# Generated by pormake.
# Topology dag, (6,3)-cn, num edge types: 1
# Building blocks:
#     Node 0, Type 0, BuildingBlock: MIDCAF_clean_sbu_0, # of connection points: 6
#     Node 1, Type 0, BuildingBlock: MIDCAF_clean_sbu_0, # of connection points: 6
#     Node 2, Type 0, BuildingBlock: MIDCAF_clean_sbu_0, # of connection points: 6
#     Node 3, Type 0, BuildingBlock: MIDCAF_clean_sbu_0, # of connection points: 6
#     Node 4, Type 1, BuildingBlock: KAKCAD_clean_linker_0, # of connection points: 3
#     Node 5, Type 1, BuildingBlock: KAKCAD_clean_linker_0, # of connection points: 3
#     Node 6, Type 1, BuildingBlock: KAKCAD_clean_linker_0, # of connection points: 3
#     Node 7, Type 1, BuildingBlock: KAKCAD_clean_linker_0, # of connection points: 3
#     Node 8, Type 1, BuildingBlock: KAKCAD_clean_linker_0, # of connection points: 3
#     Node 9, Type 1, BuildingBlock: KAKCAD_clean_linker_0, # of connection points: 3
#     Node 10, Type 1, BuildingBlock: KAKCAD_clean_linker_0, # of connection points: 3
#     Node 11, Type 1, BuildingBlock: KAKCAD_clean_linker_0, # of connection points: 3
#     Edge 12, Type (0, 1), BuildingBlock: XIVTED_clean_linker_0, # of connection points: 2
#     Edge 13, Type (0, 1), BuildingBlock: XIVTED_clean_linker_0, # of connection points: 2
#     Edge 14, Type (0, 1), BuildingBlock: XIVTED_clean_linker_0, # of connection points: 2
#     Edge 15, Type (0, 1), BuildingBlock: XIVTED_clean_linker_0, # of connection points: 2
#     Edge 16, Type (0, 1), BuildingBlock: XIVTED_clean_linker_0, # of connection points: 2
#     Edge 17, Type (0, 1), BuildingBlock: XIVTED_clean_linker_0, # of connection points: 2
#     Edge 18, Type (0, 1), BuildingBlock: XIVTED_clean_linker_0, # of connection points: 2
#     Edge 19, Type (0, 1), BuildingBlock: XIVTED_clean_linker_0, # of connection points: 2
#     Edge 20, Type (0, 1), BuildingBlock: XIVTED_clean_linker_0, # of connection points: 2
#     Edge 21, Type (0, 1), BuildingBlock: XIVTED_clean_linker_0, # of connection points: 2
#     Edge 22, Type (0, 1), BuildingBlock: XIVTED_clean_linker_0, # of connection points: 2
#     Edge 23, Type (0, 1), BuildingBlock: XIVTED_clean_linker_0, # of connection points: 2
#     Edge 24, Type (0, 1), BuildingBlock: XIVTED_clean_linker_0, # of connection points: 2
#     Edge 25, Type (0, 1), BuildingBlock: XIVTED_clean_linker_0, # of connection points: 2
#     Edge 26, Type (0, 1), BuildingBlock: XIVTED_clean_linker_0, # of connection points: 2
#     Edge 27, Type (0, 1), BuildingBlock: XIVTED_clean_linker_0, # of connection points: 2
#     Edge 28, Type (0, 1), BuildingBlock: XIVTED_clean_linker_0, # of connection points: 2
#     Edge 29, Type (0, 1), BuildingBlock: XIVTED_clean_linker_0, # of connection points: 2
#     Edge 30, Type (0, 1), BuildingBlock: XIVTED_clean_linker_0, # of connection points: 2
#     Edge 31, Type (0, 1), BuildingBlock: XIVTED_clean_linker_0, # of connection points: 2
#     Edge 32, Type (0, 1), BuildingBlock: XIVTED_clean_linker_0, # of connection points: 2
#     Edge 33, Type (0, 1), BuildingBlock: XIVTED_clean_linker_0, # of connection points: 2
#     Edge 34, Type (0, 1), BuildingBlock: XIVTED_clean_linker_0, # of connection points: 2
#     Edge 35, Type (0, 1), BuildingBlock: XIVTED_clean_linker_0, # of connection points: 2
# Relax obj value: 0.305
# Max RMSD: 0.195
# Mean RMSD: 0.179
data_MOF--net-dag--node1-MIDCAF_clean_sbu_0--node2-KAKCAD_clean_linker_0--edge1-XIVTED_clean_linker_0
_symmetry_space_group_name_H-M    P1
_symmetry_Int_Tables_number       1
_symmetry_cell_setting            triclinic
loop_
_symmetry_equiv_pos_as_xyz
'x, y, z'
_cell_length_a     48.979624
_cell_length_b     49.161475
_cell_length_c     37.340418
_cell_angle_alpha  92.583634
_cell_angle_beta   91.579312
_cell_angle_gamma 91.600591
loop_
_atom_site_label
_atom_site_type_symbol
_atom_site_fract_x
_atom_site_fract_y
_atom_site_fract_z
_atom_type_partial_charge
Zn0 Zn 0.14759 0.83877 0.08551 0.0
Zn1 Zn 0.16059 0.85377 0.91332 0.0
Zn2 Zn 0.14872 0.83861 0.02028 0.0
C3 C 0.16859 0.89656 0.97299 0.0
C4 C 0.11249 0.82923 0.96102 0.0
O5 O 0.17414 0.80417 0.03643 0.0
O6 O 0.16023 0.80132 0.09187 0.0
C7 C 0.17338 0.88685 0.06934 0.0
O8 O 0.16163 0.87952 0.99719 0.0
O9 O 0.16958 0.89017 0.93937 0.0
O10 O 0.13525 0.83909 0.95164 0.0
O11 O 0.10989 0.82673 0.99461 0.0
O12 O 0.17338 0.87075 0.09475 0.0
O13 O 0.1625 0.87923 0.03873 0.0
O14 O 0.10442 0.83262 0.031 0.0
O15 O 0.10751 0.84484 0.08847 0.0
C16 C 0.09282 0.83897 0.06067 0.0
O17 O 0.17922 0.80953 1.00145 0.0
O18 O 0.1656 0.83151 0.95646 0.0
C19 C 0.17305 0.7914 0.06575 0.0
C20 C 0.18258 0.81535 0.96895 0.0
Zn21 Zn 0.66388 0.64441 0.3637 0.0
Zn22 Zn 0.61108 0.63677 0.46426 0.0
Zn23 Zn 0.64366 0.6478 0.42292 0.0
C24 C 0.64166 0.5918 0.45481 0.0
C25 C 0.59858 0.68506 0.44203 0.0
O26 O 0.6502 0.69093 0.41441 0.0
O27 O 0.66348 0.68482 0.35864 0.0
C28 C 0.70229 0.6242 0.41483 0.0
O29 O 0.65868 0.61203 0.45175 0.0
O30 O 0.61626 0.5961 0.45311 0.0
O31 O 0.58561 0.66232 0.43952 0.0
O32 O 0.6248 0.68517 0.44172 0.0
O33 O 0.69916 0.62864 0.38183 0.0
O34 O 0.68275 0.62942 0.43637 0.0
O35 O 0.61327 0.62467 0.39272 0.0
O36 O 0.63312 0.62046 0.34087 0.0
C37 C 0.61296 0.61547 0.36031 0.0
O38 O 0.66906 0.63999 0.46952 0.0
O39 O 0.63667 0.65536 0.50379 0.0
C40 C 0.6579 0.70061 0.38494 0.0
C41 C 0.66189 0.65179 0.49919 0.0
Zn42 Zn 0.85751 0.19279 0.93724 0.0
Zn43 Zn 0.83414 0.1361 0.02273 0.0
Zn44 Zn 0.84002 0.17377 0.9906 0.0
C45 C 0.88412 0.15525 0.04277 0.0
C46 C 0.79067 0.13784 0.97917 0.0
O47 O 0.80278 0.19147 0.96944 0.0
O48 O 0.82227 0.20865 0.92253 0.0
C49 C 0.88308 0.22076 1.00003 0.0
O50 O 0.87036 0.17652 0.03587 0.0
O51 O 0.8753 0.13209 0.03047 0.0
O52 O 0.80916 0.1206 0.98287 0.0
O53 O 0.79625 0.16305 0.98783 0.0
O54 O 0.88303 0.21809 0.96613 0.0
O55 O 0.86748 0.20504 0.01787 0.0
O56 O 0.85643 0.13955 0.96217 0.0
O57 O 0.86902 0.15747 0.9124 0.0
C58 C 0.8657 0.13669 0.93077 0.0
O59 O 0.84343 0.19044 0.04666 0.0
O60 O 0.81559 0.15779 0.06304 0.0
C61 C 0.80143 0.20532 0.94121 0.0
C62 C 0.82615 0.18141 0.06918 0.0
Zn63 Zn 0.38137 0.34758 0.61437 0.0
Zn64 Zn 0.34878 0.32314 0.49702 0.0
Zn65 Zn 0.35771 0.33717 0.56006 0.0
C66 C 0.40626 0.32852 0.50923 0.0
C67 C 0.32161 0.37287 0.51297 0.0
O68 O 0.33559 0.3132 0.59968 0.0
O69 O 0.34608 0.34472 0.64188 0.0
C70 C 0.38562 0.29302 0.59599 0.0
O71 O 0.3985 0.33468 0.54082 0.0
O72 O 0.38857 0.32294 0.48444 0.0
O73 O 0.32561 0.35541 0.48787 0.0
O74 O 0.33263 0.37034 0.5441 0.0
O75 O 0.4015 0.31276 0.60644 0.0
O76 O 0.36134 0.29795 0.5845 0.0
O77 O 0.35086 0.37965 0.57762 0.0
O78 O 0.39309 0.38429 0.59887 0.0
C79 C 0.3711 0.39512 0.58923 0.0
O80 O 0.33139 0.29978 0.56347 0.0
O81 O 0.32851 0.28829 0.50541 0.0
C82 C 0.33084 0.32477 0.63053 0.0
C83 C 0.32223 0.28376 0.53724 0.0
C84 C 0.04885 0.17092 0.2432 0.0
C85 C 0.03254 0.14794 0.2319 0.0
C86 C 0.07265 0.16793 0.2642 0.0
C87 C 0.08025 0.14197 0.2742 0.0
C88 C 0.0628 0.11943 0.26539 0.0
C89 C 0.03912 0.12239 0.24456 0.0
C90 C 0.1084 0.1372 0.28687 0.0
C91 C 0.11819 0.1458 0.32131 0.0
C92 C 0.14461 0.1389 0.33304 0.0
C93 C 0.16119 0.12381 0.30962 0.0
C94 C 0.15176 0.11606 0.27476 0.0
C95 C 0.12535 0.12271 0.26377 0.0
C96 C 0.16841 0.09968 0.24987 0.0
C97 C 0.17082 0.10707 0.21417 0.0
C98 C 0.17867 0.07477 0.26014 0.0
C99 C 0.18898 0.05651 0.23445 0.0
C100 C 0.1894 0.06297 0.19808 0.0
C101 C 0.15542 0.1478 0.36932 0.0
C102 C 0.15354 0.17503 0.38182 0.0
C103 C 0.16953 0.1296 0.39054 0.0
C104 C 0.18284 0.13878 0.42258 0.0
C105 C 0.18258 0.16644 0.43396 0.0
C106 C 0.16706 0.18428 0.41373 0.0
C107 C 0.18135 0.08897 0.18856 0.0
H108 H 0.04429 0.19085 0.23376 0.0
H109 H 0.08608 0.1855 0.27038 0.0
H110 H 0.0684 0.09921 0.27279 0.0
H111 H 0.02666 0.10441 0.23684 0.0
H112 H 0.10506 0.15706 0.33916 0.0
H113 H 0.11762 0.11605 0.2372 0.0
H114 H 0.18166 0.11864 0.31815 0.0
H115 H 0.16333 0.12638 0.20574 0.0
H116 H 0.17688 0.06857 0.28747 0.0
H117 H 0.19477 0.03661 0.24277 0.0
H118 H 0.1429 0.18952 0.36592 0.0
H119 H 0.17086 0.10836 0.38186 0.0
H120 H 0.18196 0.09485 0.16099 0.0
H121 H 0.16664 0.20578 0.42133 0.0
H122 H 0.19409 0.12434 0.43784 0.0
C123 C 0.34866 0.61049 0.65978 0.0
C124 C 0.37139 0.59591 0.6483 0.0
C125 C 0.3509 0.63867 0.66709 0.0
C126 C 0.37591 0.65284 0.66306 0.0
C127 C 0.39857 0.63818 0.65169 0.0
C128 C 0.39629 0.6102 0.64416 0.0
C129 C 0.37863 0.68281 0.67032 0.0
C130 C 0.36648 0.69543 0.70004 0.0
C131 C 0.37013 0.72361 0.70772 0.0
C132 C 0.38637 0.73928 0.68521 0.0
C133 C 0.39851 0.72687 0.65514 0.0
C134 C 0.39428 0.69877 0.64792 0.0
C135 C 0.41703 0.7421 0.63176 0.0
C136 C 0.41469 0.73762 0.59437 0.0
C137 C 0.43971 0.75727 0.6464 0.0
C138 C 0.46084 0.76554 0.62432 0.0
C139 C 0.45973 0.75868 0.5872 0.0
C140 C 0.35642 0.73629 0.73904 0.0
C141 C 0.34082 0.75957 0.73528 0.0
C142 C 0.35704 0.72386 0.77222 0.0
C143 C 0.34162 0.73387 0.80062 0.0
C144 C 0.32503 0.75647 0.79649 0.0
C145 C 0.32521 0.76948 0.76361 0.0
C146 C 0.43576 0.74566 0.57242 0.0
H147 H 0.32923 0.6001 0.66353 0.0
H148 H 0.33299 0.6494 0.67552 0.0
H149 H 0.41826 0.64831 0.64882 0.0
H150 H 0.41412 0.5998 0.63478 0.0
H151 H 0.35425 0.68327 0.71743 0.0
H152 H 0.40372 0.68914 0.62488 0.0
H153 H 0.38962 0.76093 0.69113 0.0
H154 H 0.39727 0.72622 0.58229 0.0
H155 H 0.44205 0.76105 0.67514 0.0
H156 H 0.47864 0.77609 0.63664 0.0
H157 H 0.33974 0.7694 0.70991 0.0
H158 H 0.3692 0.70609 0.77605 0.0
H159 H 0.43394 0.73972 0.54417 0.0
H160 H 0.31246 0.78672 0.75919 0.0
H161 H 0.34255 0.72369 0.82572 0.0
C162 C 0.87329 0.8476 0.09272 0.0
C163 C 0.89221 0.86928 0.08913 0.0
C164 C 0.84603 0.85274 0.10054 0.0
C165 C 0.83708 0.87963 0.10422 0.0
C166 C 0.85588 0.90124 0.09968 0.0
C167 C 0.88316 0.89612 0.09247 0.0
C168 C 0.80844 0.8854 0.11364 0.0
C169 C 0.7963 0.87293 0.14268 0.0
C170 C 0.76985 0.8797 0.15311 0.0
C171 C 0.75554 0.89915 0.13419 0.0
C172 C 0.76732 0.9116 0.10504 0.0
C173 C 0.79364 0.90453 0.09477 0.0
C174 C 0.75303 0.93337 0.08669 0.0
C175 C 0.74728 0.931 0.04967 0.0
C176 C 0.74685 0.95751 0.10578 0.0
C177 C 0.73659 0.97957 0.08784 0.0
C178 C 0.73176 0.97781 0.05037 0.0
C179 C 0.75725 0.86687 0.18415 0.0
C180 C 0.73057 0.85566 0.18108 0.0
C181 C 0.77171 0.86588 0.21704 0.0
C182 C 0.75973 0.85387 0.24629 0.0
C183 C 0.73313 0.84214 0.24317 0.0
C184 C 0.71874 0.84327 0.2101 0.0
C185 C 0.73638 0.95281 0.03179 0.0
H186 H 0.87977 0.82672 0.09051 0.0
H187 H 0.83193 0.8357 0.10372 0.0
H188 H 0.84964 0.92217 0.10262 0.0
H189 H 0.89727 0.91322 0.08968 0.0
H190 H 0.8076 0.85824 0.15751 0.0
H191 H 0.80286 0.91443 0.07252 0.0
H192 H 0.73537 0.90493 0.14245 0.0
H193 H 0.75166 0.9124 0.03451 0.0
H194 H 0.7513 0.95981 0.13437 0.0
H195 H 0.73388 0.99841 0.10326 0.0
H196 H 0.71905 0.85595 0.15591 0.0
H197 H 0.79218 0.87473 0.22028 0.0
H198 H 0.7323 0.95023 0.00319 0.0
H199 H 0.69851 0.834 0.20618 0.0
H200 H 0.77135 0.85391 0.27137 0.0
C201 C 0.57766 0.23186 0.60306 0.0
C202 C 0.5602 0.23748 0.57396 0.0
C203 C 0.60304 0.24521 0.60808 0.0
C204 C 0.61288 0.26333 0.58284 0.0
C205 C 0.59721 0.26554 0.55093 0.0
C206 C 0.57096 0.2535 0.54698 0.0
C207 C 0.63748 0.28174 0.5917 0.0
C208 C 0.65651 0.27525 0.61869 0.0
C209 C 0.67559 0.29472 0.63347 0.0
C210 C 0.67778 0.32034 0.61842 0.0
C211 C 0.66052 0.32677 0.58947 0.0
C212 C 0.64022 0.30753 0.57676 0.0
C213 C 0.66253 0.35411 0.57373 0.0
C214 C 0.63875 0.36794 0.56465 0.0
C215 C 0.68809 0.36644 0.56714 0.0
C216 C 0.68974 0.39167 0.55108 0.0
C217 C 0.66587 0.40487 0.54077 0.0
C218 C 0.69007 0.28906 0.6677 0.0
C219 C 0.68845 0.30734 0.69756 0.0
C220 C 0.70177 0.26364 0.67233 0.0
C221 C 0.71024 0.25605 0.70639 0.0
C222 C 0.70717 0.27367 0.73666 0.0
C223 C 0.6969 0.29972 0.7317 0.0
C224 C 0.6404 0.3928 0.54803 0.0
H225 H 0.57128 0.2183 0.62346 0.0
H226 H 0.61384 0.24221 0.63311 0.0
H227 H 0.60458 0.27752 0.52946 0.0
H228 H 0.55879 0.25818 0.52357 0.0
H229 H 0.65559 0.25545 0.63011 0.0
H230 H 0.62609 0.31321 0.55589 0.0
H231 H 0.69237 0.33548 0.62995 0.0
H232 H 0.61874 0.3595 0.5702 0.0
H233 H 0.70682 0.35635 0.57377 0.0
H234 H 0.70967 0.40057 0.54609 0.0
H235 H 0.67915 0.32691 0.69492 0.0
H236 H 0.70346 0.24924 0.64973 0.0
H237 H 0.62163 0.40276 0.54118 0.0
H238 H 0.69417 0.31377 0.75441 0.0
H239 H 0.71876 0.23613 0.70909 0.0
C240 C 0.77393 0.42932 0.41833 0.0
C241 C 0.76249 0.44624 0.44496 0.0
C242 C 0.76469 0.40238 0.41237 0.0
C243 C 0.74464 0.39097 0.43403 0.0
C244 C 0.73583 0.40699 0.46357 0.0
C245 C 0.74422 0.43437 0.46857 0.0
C246 C 0.73107 0.3639 0.42349 0.0
C247 C 0.74407 0.3448 0.4011 0.0
C248 C 0.72959 0.32231 0.38452 0.0
C249 C 0.70262 0.31671 0.39486 0.0
C250 C 0.6897 0.33436 0.41948 0.0
C251 C 0.70379 0.35833 0.43231 0.0
C252 C 0.66093 0.32918 0.43042 0.0
C253 C 0.64104 0.31734 0.40618 0.0
C254 C 0.65283 0.33738 0.46507 0.0
C255 C 0.62551 0.33515 0.47453 0.0
C256 C 0.60545 0.32399 0.4501 0.0
C257 C 0.742 0.3066 0.35407 0.0
C258 C 0.75891 0.32018 0.33024 0.0
C259 C 0.73639 0.27857 0.34739 0.0
C260 C 0.74718 0.26469 0.31757 0.0
C261 C 0.76406 0.27839 0.2938 0.0
C262 C 0.76997 0.30628 0.30091 0.0
C263 C 0.61375 0.31456 0.416 0.0
H264 H 0.78896 0.43726 0.40051 0.0
H265 H 0.77232 0.39134 0.38923 0.0
H266 H 0.72142 0.39892 0.48205 0.0
H267 H 0.73499 0.44646 0.48966 0.0
H268 H 0.76542 0.34782 0.39534 0.0
H269 H 0.69278 0.37328 0.44783 0.0
H270 H 0.69148 0.29907 0.38309 0.0
H271 H 0.64627 0.31093 0.37919 0.0
H272 H 0.66754 0.34604 0.48489 0.0
H273 H 0.62007 0.34298 0.50074 0.0
H274 H 0.76329 0.34186 0.33371 0.0
H275 H 0.72365 0.2673 0.36512 0.0
H276 H 0.59915 0.30523 0.39657 0.0
H277 H 0.78324 0.31757 0.28383 0.0
H278 H 0.74183 0.24329 0.31288 0.0
C279 C 0.08549 0.26964 0.98011 0.0
C280 C 0.0738 0.25924 0.0109 0.0
C281 C 0.1102 0.26 0.96756 0.0
C282 C 0.12472 0.2405 0.98625 0.0
C283 C 0.1147 0.23276 0.01945 0.0
C284 C 0.08941 0.24155 0.03125 0.0
C285 C 0.14816 0.22617 0.96937 0.0
C286 C 0.16388 0.23846 0.94303 0.0
C287 C 0.18259 0.22338 0.92276 0.0
C288 C 0.18665 0.19606 0.93054 0.0
C289 C 0.17216 0.18379 0.95764 0.0
C290 C 0.15292 0.19878 0.97664 0.0
C291 C 0.17503 0.15445 0.9638 0.0
C292 C 0.172 0.13523 0.93492 0.0
C293 C 0.1793 0.14537 0.99864 0.0
C294 C 0.18011 0.11747 0.00451 0.0
C295 C 0.17608 0.09831 0.9757 0.0
C296 C 0.19634 0.23531 0.89166 0.0
C297 C 0.1821 0.25236 0.8688 0.0
C298 C 0.22321 0.22845 0.88327 0.0
C299 C 0.23526 0.23786 0.85246 0.0
C300 C 0.22088 0.25462 0.8295 0.0
C301 C 0.19428 0.26201 0.83821 0.0
C302 C 0.17231 0.10743 0.94085 0.0
H303 H 0.07499 0.28432 0.96443 0.0
H304 H 0.11685 0.26685 0.94201 0.0
H305 H 0.1257 0.21883 0.03578 0.0
H306 H 0.08158 0.23308 0.05529 0.0
H307 H 0.16134 0.25971 0.93773 0.0
H308 H 0.1405 0.18826 0.99547 0.0
H309 H 0.20049 0.18393 0.91478 0.0
H310 H 0.16844 0.1417 0.90787 0.0
H311 H 0.18173 0.15987 0.02131 0.0
H312 H 0.18292 0.11086 0.03161 0.0
H313 H 0.16121 0.25766 0.87392 0.0
H314 H 0.23499 0.21575 0.90051 0.0
H315 H 0.16927 0.09298 0.91822 0.0
H316 H 0.18261 0.27474 0.82087 0.0
H317 H 0.25598 0.23223 0.84679 0.0
C318 C 0.41833 0.5773 0.24518 0.0
C319 C 0.4304 0.55516 0.26131 0.0
C320 C 0.39029 0.57691 0.23741 0.0
C321 C 0.37374 0.55424 0.24529 0.0
C322 C 0.38614 0.53149 0.25966 0.0
C323 C 0.41415 0.53203 0.26782 0.0
C324 C 0.3435 0.55538 0.24155 0.0
C325 C 0.33105 0.56861 0.21309 0.0
C326 C 0.30266 0.57226 0.21176 0.0
C327 C 0.28649 0.56161 0.23872 0.0
C328 C 0.29872 0.54812 0.26692 0.0
C329 C 0.32705 0.54513 0.26827 0.0
C330 C 0.28272 0.53793 0.29651 0.0
C331 C 0.28209 0.55336 0.32896 0.0
C332 C 0.27317 0.51079 0.29495 0.0
C333 C 0.2651 0.49854 0.32614 0.0
C334 C 0.26666 0.51324 0.35943 0.0
C335 C 0.29035 0.58921 0.18404 0.0
C336 C 0.3033 0.61391 0.17567 0.0
C337 C 0.26503 0.58179 0.16731 0.0
C338 C 0.25245 0.59922 0.14376 0.0
C339 C 0.26487 0.62449 0.13664 0.0
C340 C 0.29072 0.63133 0.15227 0.0
C341 C 0.27396 0.54115 0.36019 0.0
H342 H 0.43032 0.59554 0.2403 0.0
H343 H 0.38144 0.59495 0.22689 0.0
H344 H 0.37408 0.5135 0.26541 0.0
H345 H 0.42304 0.51457 0.27987 0.0
H346 H 0.34352 0.57643 0.19212 0.0
H347 H 0.33629 0.53557 0.29106 0.0
H348 H 0.26466 0.56468 0.2386 0.0
H349 H 0.28967 0.57431 0.33062 0.0
H350 H 0.27394 0.49852 0.27017 0.0
H351 H 0.25993 0.47695 0.32453 0.0
H352 H 0.32264 0.62042 0.18852 0.0
H353 H 0.25477 0.5627 0.17287 0.0
H354 H 0.27504 0.55312 0.38529 0.0
H355 H 0.30066 0.65082 0.14797 0.0
H356 H 0.23269 0.59319 0.13177 0.0
C357 C 0.94503 0.80326 0.76579 0.0
C358 C 0.94809 0.80275 0.80331 0.0
C359 C 0.92068 0.81187 0.7501 0.0
C360 C 0.8993 0.82039 0.77179 0.0
C361 C 0.9018 0.81842 0.80907 0.0
C362 C 0.92591 0.80958 0.82469 0.0
C363 C 0.87553 0.83387 0.75625 0.0
C364 C 0.85931 0.82103 0.72878 0.0
C365 C 0.83615 0.83376 0.71488 0.0
C366 C 0.8298 0.86004 0.72854 0.0
C367 C 0.84611 0.87298 0.75625 0.0
C368 C 0.86889 0.85973 0.76972 0.0
C369 C 0.84002 0.90019 0.77222 0.0
C370 C 0.8384 0.92297 0.75101 0.0
C371 C 0.8398 0.904 0.8097 0.0
C372 C 0.83975 0.93011 0.82582 0.0
C373 C 0.83978 0.95316 0.80485 0.0
C374 C 0.81787 0.81832 0.68827 0.0
C375 C 0.82897 0.80132 0.66143 0.0
C376 C 0.78939 0.81801 0.69191 0.0
C377 C 0.77258 0.79997 0.6706 0.0
C378 C 0.78389 0.78171 0.64532 0.0
C379 C 0.81224 0.78314 0.6404 0.0
C380 C 0.83834 0.94928 0.7672 0.0
H381 H 0.96179 0.79798 0.74872 0.0
H382 H 0.91912 0.81328 0.72125 0.0
H383 H 0.88543 0.82475 0.82624 0.0
H384 H 0.92773 0.80972 0.85367 0.0
H385 H 0.86415 0.80058 0.71943 0.0
H386 H 0.8818 0.86978 0.79069 0.0
H387 H 0.81207 0.87015 0.71819 0.0
H388 H 0.83869 0.92053 0.72205 0.0
H389 H 0.84099 0.88672 0.82665 0.0
H390 H 0.84115 0.93218 0.85481 0.0
H391 H 0.85081 0.80138 0.65751 0.0
H392 H 0.78016 0.83075 0.71238 0.0
H393 H 0.8379 0.96657 0.75025 0.0
H394 H 0.82179 0.76939 0.62139 0.0
H395 H 0.75077 0.79993 0.67454 0.0
H396 H 0.22009 0.90495 0.10487 0.0
H397 H 0.16267 0.05406 0.133 0.0
H398 H 0.14637 0.93256 0.05458 0.0
H399 H 0.22709 0.02235 0.19903 0.0
H400 H 0.16504 0.01417 0.09234 0.0
H401 H 0.23054 0.95162 0.12825 0.0
C402 C 0.20655 0.92107 0.09792 0.0
C403 C 0.18265 0.91521 0.07721 0.0
C404 C 0.17893 0.01611 0.11545 0.0
C405 C 0.19401 0.96825 0.10436 0.0
C406 C 0.17781 0.03907 0.1386 0.0
C407 C 0.19445 0.04145 0.16994 0.0
C408 C 0.19661 0.99519 0.12378 0.0
C409 C 0.21341 0.02108 0.17572 0.0
C410 C 0.21244 0.94762 0.1113 0.0
C411 C 0.16543 0.93653 0.06948 0.0
N412 N 0.21369 0.9986 0.15316 0.0
N413 N 0.17131 0.96211 0.0833 0.0
H414 H 0.61567 0.72532 0.49119 0.0
H415 H 0.51373 0.75344 0.60755 0.0
H416 H 0.54681 0.6984 0.42302 0.0
H417 H 0.46252 0.76906 0.5151 0.0
H418 H 0.55201 0.74696 0.56846 0.0
H419 H 0.58546 0.75488 0.52581 0.0
C420 C 0.5944 0.72638 0.48273 0.0
C421 C 0.58357 0.70914 0.45456 0.0
C422 C 0.53267 0.7527 0.55676 0.0
C423 C 0.54889 0.74213 0.49449 0.0
C424 C 0.5106 0.75645 0.57921 0.0
C425 C 0.48445 0.76131 0.56476 0.0
C426 C 0.52859 0.75342 0.51943 0.0
C427 C 0.48196 0.76445 0.52753 0.0
C428 C 0.57709 0.74289 0.50286 0.0
C429 C 0.55585 0.71116 0.44485 0.0
N430 N 0.50351 0.75971 0.50611 0.0
N431 N 0.53939 0.72705 0.46506 0.0
H432 H 0.77005 0.10669 0.92277 0.0
H433 H 0.7019 0.02237 0.07269 0.0
H434 H 0.74969 0.14062 0.02651 0.0
H435 H 0.74662 0.9908 0.98242 0.0
H436 H 0.70107 0.06663 0.04532 0.0
H437 H 0.7404 0.06712 0.93227 0.0
C438 C 0.75796 0.10658 0.94665 0.0
C439 C 0.76271 0.12657 0.97425 0.0
C440 C 0.71039 0.04972 0.03119 0.0
C441 C 0.73 0.08085 0.98615 0.0
C442 C 0.7112 0.02445 0.04696 0.0
C443 C 0.72516 0.00274 0.0306 0.0
C444 C 0.7233 0.05327 0.99859 0.0
C445 C 0.7357 0.00663 0.99647 0.0
C446 C 0.74144 0.08372 0.9524 0.0
C447 C 0.74673 0.12542 0.00474 0.0
N448 N 0.73492 0.03144 0.98198 0.0
N449 N 0.73184 0.10233 0.01059 0.0
H450 H 0.39575 0.26719 0.53254 0.0
H451 H 0.5288 0.22752 0.63274 0.0
H452 H 0.40572 0.26082 0.64667 0.0
H453 H 0.52187 0.23049 0.5171 0.0
H454 H 0.48005 0.22441 0.63524 0.0
H455 H 0.43586 0.23925 0.52386 0.0
C456 C 0.40544 0.25848 0.55565 0.0
C457 C 0.39773 0.26636 0.59039 0.0
C458 C 0.4891 0.22534 0.60917 0.0
C459 C 0.44395 0.23537 0.58091 0.0
C460 C 0.51742 0.22685 0.60751 0.0
C461 C 0.53027 0.23001 0.57458 0.0
C462 C 0.47304 0.228 0.57797 0.0
C463 C 0.51332 0.22936 0.54339 0.0
C464 C 0.42861 0.2429 0.55074 0.0
C465 C 0.41117 0.25515 0.61949 0.0
N466 N 0.48562 0.22919 0.54595 0.0
N467 N 0.43402 0.24072 0.61416 0.0
H468 H 0.74627 0.60861 0.37592 0.0
H469 H 0.77066 0.47711 0.38672 0.0
H470 H 0.71249 0.60294 0.48063 0.0
H471 H 0.76221 0.48501 0.50165 0.0
H472 H 0.76913 0.52543 0.38367 0.0
H473 H 0.77446 0.56996 0.38759 0.0
C474 C 0.74476 0.59919 0.40149 0.0
C475 C 0.72541 0.60762 0.42634 0.0
C476 C 0.76862 0.51708 0.40992 0.0
C477 C 0.75614 0.562 0.4388 0.0
C478 C 0.76952 0.48897 0.41173 0.0
C479 C 0.76649 0.47646 0.44455 0.0
C480 C 0.76423 0.53325 0.44109 0.0
C481 C 0.76403 0.49349 0.47557 0.0
C482 C 0.76055 0.5767 0.40792 0.0
C483 C 0.72559 0.59566 0.45972 0.0
N484 N 0.76238 0.52095 0.47296 0.0
N485 N 0.73991 0.57274 0.46457 0.0
H486 H 0.91103 0.21599 0.06434 0.0
H487 H 0.04783 0.25943 0.07659 0.0
H488 H 0.90546 0.26651 0.9737 0.0
H489 H 0.03167 0.26948 0.96351 0.0
H490 H 0.99856 0.259 0.08589 0.0
H491 H 0.95769 0.23361 0.07713 0.0
C492 C 0.91928 0.23145 0.04799 0.0
C493 C 0.9049 0.23877 0.01715 0.0
C494 C 0.00599 0.26157 0.05919 0.0
C495 C 0.95791 0.25964 0.03147 0.0
C496 C 0.0342 0.26172 0.0537 0.0
C497 C 0.04443 0.26396 0.01897 0.0
C498 C 0.98787 0.26405 0.0298 0.0
C499 C 0.02542 0.26794 0.99088 0.0
C500 C 0.94595 0.24171 0.05528 0.0
C501 C 0.9162 0.2596 0.9972 0.0
N502 N 0.99828 0.2677 0.99694 0.0
N503 N 0.94228 0.26871 0.00406 0.0
H504 H 0.33699 0.42606 0.52531 0.0
H505 H 0.2318 0.47096 0.37601 0.0
H506 H 0.27244 0.37394 0.47801 0.0
H507 H 0.29965 0.52107 0.41954 0.0
H508 H 0.23853 0.43991 0.42462 0.0
H509 H 0.31577 0.4653 0.4992 0.0
C510 C 0.31763 0.42315 0.51086 0.0
C511 C 0.3061 0.39699 0.50439 0.0
C512 C 0.25156 0.45802 0.42395 0.0
C513 C 0.28249 0.44129 0.47257 0.0
C514 C 0.24775 0.47574 0.39616 0.0
C515 C 0.26553 0.49837 0.39318 0.0
C516 C 0.27347 0.46286 0.44875 0.0
C517 C 0.28545 0.50388 0.42056 0.0
C518 C 0.30574 0.44544 0.49535 0.0
C519 C 0.28184 0.39393 0.48365 0.0
N520 N 0.28921 0.48597 0.44676 0.0
N521 N 0.27101 0.41576 0.46807 0.0
H522 H 0.10682 0.84548 0.89246 0.0
H523 H 0.96 0.77259 0.8614 0.0
H524 H 0.06909 0.79425 0.96899 0.0
H525 H 0.9974 0.82469 0.78552 0.0
H526 H 0.00262 0.77472 0.89716 0.0
H527 H 0.06958 0.83314 0.84937 0.0
C528 C 0.09063 0.83165 0.90017 0.0
C529 C 0.0905 0.82148 0.93463 0.0
C530 C 0.00165 0.78534 0.87239 0.0
C531 C 0.04803 0.80708 0.88551 0.0
C532 C 0.97736 0.78409 0.85198 0.0
C533 C 0.97509 0.79876 0.82072 0.0
C534 C 0.02373 0.80155 0.86158 0.0
C535 C 0.99828 0.81302 0.8094 0.0
C536 C 0.06943 0.82455 0.87556 0.0
C537 C 0.06936 0.80331 0.94311 0.0
N538 N 0.02152 0.8144 0.83012 0.0
N539 N 0.04882 0.79685 0.9188 0.0
H540 H 0.88305 0.12243 0.8633 0.0
H541 H 0.81766 0.9725 0.86752 0.0
H542 H 0.85194 0.08787 0.95887 0.0
H543 H 0.87018 0.99702 0.78299 0.0
H544 H 0.82751 0.01621 0.89934 0.0
H545 H 0.87752 0.07766 0.83208 0.0
C546 C 0.8755 0.10538 0.87792 0.0
C547 C 0.86774 0.10903 0.91373 0.0
C548 C 0.83691 0.01202 0.87384 0.0
C549 C 0.86078 0.05794 0.87787 0.0
C550 C 0.83128 0.98704 0.85559 0.0
C551 C 0.84324 0.98087 0.82255 0.0
C552 C 0.85444 0.03124 0.85889 0.0
C553 C 0.86023 0.00091 0.80815 0.0
C554 C 0.87221 0.07986 0.86 0.0
C555 C 0.85804 0.08614 0.93125 0.0
N556 N 0.86533 0.02518 0.82641 0.0
N557 N 0.85451 0.0617 0.91302 0.0
H558 H 0.42869 0.32457 0.4433 0.0
H559 H 0.58298 0.31825 0.51679 0.0
H560 H 0.45074 0.32962 0.55619 0.0
H561 H 0.56005 0.32894 0.40581 0.0
H562 H 0.53494 0.31858 0.53173 0.0
H563 H 0.47682 0.32225 0.42934 0.0
C564 C 0.44367 0.32522 0.46523 0.0
C565 C 0.43563 0.32747 0.50101 0.0
C566 C 0.54048 0.32074 0.5041 0.0
C567 C 0.49104 0.32468 0.48508 0.0
C568 C 0.56803 0.32053 0.49541 0.0
C569 C 0.57598 0.3232 0.45973 0.0
C570 C 0.52054 0.32375 0.47702 0.0
C571 C 0.55524 0.32611 0.43351 0.0
C572 C 0.47121 0.32392 0.45719 0.0
C573 C 0.45604 0.32815 0.52823 0.0
N574 N 0.52859 0.32631 0.44269 0.0
N575 N 0.48284 0.32672 0.5197 0.0
H576 H 0.21377 0.92865 0.99261 0.0
H577 H 0.13451 0.06315 0.955 0.0
H578 H 0.12674 0.93037 0.97346 0.0
H579 H 0.21308 0.06677 0.0102 0.0
H580 H 0.13213 0.014 0.96132 0.0
H581 H 0.21521 0.97883 0.99986 0.0
C582 C 0.19499 0.93967 0.99057 0.0
C583 C 0.17007 0.92573 0.98277 0.0
C584 C 0.14984 0.02547 0.97238 0.0
C585 C 0.17154 0.98245 0.98996 0.0
C586 C 0.15124 0.05348 0.96857 0.0
C587 C 0.17412 0.06884 0.9818 0.0
C588 C 0.17171 0.01255 0.989 0.0
C589 C 0.19513 0.05548 0.99958 0.0
C590 C 0.19577 0.96815 0.99467 0.0
C591 C 0.14627 0.9406 0.97976 0.0
N592 N 0.19362 0.02793 1.00226 0.0
N593 N 0.14761 0.96818 0.98308 0.0
H594 H 0.60099 0.60207 0.2896 0.0
H595 H 0.45137 0.54267 0.3268 0.0
H596 H 0.56911 0.59522 0.3956 0.0
H597 H 0.47484 0.57326 0.22526 0.0
H598 H 0.49797 0.55204 0.35035 0.0
H599 H 0.55822 0.58188 0.26402 0.0
C600 C 0.58514 0.59602 0.30753 0.0
C601 C 0.58849 0.60063 0.34479 0.0
C602 C 0.49298 0.5564 0.32279 0.0
C603 C 0.53961 0.5775 0.31565 0.0
C604 C 0.46649 0.55087 0.30926 0.0
C605 C 0.45927 0.55737 0.2741 0.0
C606 C 0.5124 0.56832 0.30092 0.0
C607 C 0.47954 0.56826 0.25265 0.0
C608 C 0.56072 0.58459 0.29288 0.0
C609 C 0.56728 0.59232 0.36671 0.0
N610 N 0.50519 0.57353 0.26646 0.0
N611 N 0.54366 0.58128 0.35179 0.0
H612 H 0.32476 0.42567 0.59374 0.0
H613 H 0.40972 0.5585 0.66374 0.0
H614 H 0.41287 0.43239 0.59739 0.0
H615 H 0.32885 0.56473 0.61626 0.0
H616 H 0.40839 0.51008 0.64741 0.0
H617 H 0.32316 0.47504 0.60793 0.0
C618 C 0.3437 0.43755 0.59707 0.0
C619 C 0.36899 0.42496 0.5942 0.0
C620 C 0.39093 0.52203 0.64047 0.0
C621 C 0.36728 0.48081 0.61148 0.0
C622 C 0.3917 0.54976 0.64968 0.0
C623 C 0.36957 0.56593 0.64079 0.0
C624 C 0.36773 0.51008 0.6226 0.0
C625 C 0.34637 0.55308 0.6237 0.0
C626 C 0.34276 0.4656 0.6053 0.0
C627 C 0.39291 0.44118 0.59938 0.0
N628 N 0.34605 0.52585 0.61507 0.0
N629 N 0.39146 0.46814 0.60801 0.0
H630 H 0.05241 0.82924 0.00771 0.0
H631 H 0.93581 0.89255 0.12679 0.0
H632 H 0.06429 0.85447 0.11935 0.0
H633 H 0.91543 0.83435 0.03965 0.0
H634 H 0.98421 0.88409 0.11869 0.0
H635 H 0.003 0.83526 0.01353 0.0
C636 C 0.04472 0.83569 0.03343 0.0
C637 C 0.06266 0.84107 0.06306 0.0
C638 C 0.96918 0.87313 0.10132 0.0
C639 C 0.00641 0.8488 0.06965 0.0
C640 C 0.94158 0.87808 0.10579 0.0
C641 C 0.92161 0.86414 0.08385 0.0
C642 C 0.97706 0.85438 0.07433 0.0
C643 C 0.93023 0.84539 0.05726 0.0
C644 C 0.01654 0.83922 0.0367 0.0
C645 C 0.05143 0.84996 0.09567 0.0
N646 N 0.95738 0.84115 0.05303 0.0
N647 N 0.0242 0.85374 0.09796 0.0
H648 H 0.67949 0.57716 0.50533 0.0
H649 H 0.63659 0.4193 0.48167 0.0
H650 H 0.62261 0.54378 0.4239 0.0
H651 H 0.69799 0.45051 0.55895 0.0
H652 H 0.63483 0.46419 0.4564 0.0
H653 H 0.69055 0.53081 0.52136 0.0
C654 C 0.67012 0.56004 0.48996 0.0
C655 C 0.65078 0.56422 0.46254 0.0
C656 C 0.64887 0.46127 0.47871 0.0
C657 C 0.66207 0.51118 0.48194 0.0
C658 C 0.64979 0.43563 0.49323 0.0
C659 C 0.66712 0.43128 0.52284 0.0
C660 C 0.66522 0.48293 0.49405 0.0
C661 C 0.68424 0.45302 0.53623 0.0
C662 C 0.67604 0.53357 0.49951 0.0
C663 C 0.63783 0.54136 0.44501 0.0
N664 N 0.68261 0.478 0.52204 0.0
N665 N 0.64361 0.51588 0.4551 0.0
H666 H 0.88789 0.18555 0.10576 0.0
H667 H 0.02355 0.11458 0.17241 0.0
H668 H 0.93086 0.12666 0.04144 0.0
H669 H 0.99231 0.18586 0.22709 0.0
H670 H 0.98814 0.11752 0.12581 0.0
H671 H 0.92459 0.18527 0.15176 0.0
C672 C 0.90534 0.17292 0.10114 0.0
C673 C 0.90686 0.15668 0.06944 0.0
C674 C 0.98896 0.13256 0.14795 0.0
C675 C 0.94826 0.15545 0.12229 0.0
C676 C 0.00903 0.13074 0.17477 0.0
C677 C 0.01066 0.14982 0.20393 0.0
C678 C 0.97016 0.15353 0.15022 0.0
C679 C 0.99173 0.17073 0.20508 0.0
C680 C 0.92616 0.17265 0.12742 0.0
C681 C 0.92924 0.13983 0.06528 0.0
N682 N 0.97211 0.17195 0.17869 0.0
N683 N 0.94907 0.13965 0.09141 0.0
H684 H 0.15295 0.75008 0.1031 0.0
H685 H 0.28465 0.66031 0.08813 0.0
H686 H 0.21974 0.77137 0.03588 0.0
H687 H 0.21078 0.636 0.14011 0.0
H688 H 0.26076 0.69895 0.06403 0.0
H689 H 0.17316 0.70638 0.11259 0.0
C690 C 0.17192 0.74543 0.0902 0.0
C691 C 0.18485 0.76437 0.06891 0.0
C692 C 0.24971 0.68486 0.08021 0.0
C693 C 0.20838 0.71426 0.07988 0.0
C694 C 0.26334 0.66287 0.0941 0.0
C695 C 0.2498 0.64502 0.11656 0.0
C696 C 0.22245 0.68909 0.08909 0.0
C697 C 0.22207 0.64905 0.12283 0.0
C698 C 0.18341 0.72038 0.09546 0.0
C699 C 0.20915 0.75719 0.05238 0.0
N700 N 0.20947 0.6708 0.10957 0.0
N701 N 0.22041 0.73275 0.05863 0.0
H702 H 0.71651 0.66059 0.48913 0.0
H703 H 0.73992 0.75276 0.66981 0.0
H704 H 0.65403 0.67261 0.56714 0.0
H705 H 0.78839 0.76131 0.57582 0.0
H706 H 0.71216 0.71722 0.63732 0.0
H707 H 0.74778 0.69003 0.52667 0.0
C708 C 0.70954 0.66889 0.51452 0.0
C709 C 0.68253 0.66432 0.52489 0.0
C710 C 0.72893 0.72688 0.62389 0.0
C711 C 0.7181 0.69823 0.56767 0.0
C712 C 0.74465 0.7474 0.64228 0.0
C713 C 0.76649 0.76035 0.62552 0.0
C714 C 0.7352 0.71896 0.58858 0.0
C715 C 0.77201 0.75181 0.59007 0.0
C716 C 0.72733 0.68592 0.53574 0.0
C717 C 0.67462 0.67575 0.55801 0.0
N718 N 0.75648 0.73167 0.57281 0.0
N719 N 0.69227 0.69234 0.57811 0.0
H720 H 0.83282 0.23631 0.08604 0.0
H721 H 0.78038 0.22519 0.2861 0.0
H722 H 0.80672 0.16054 0.13011 0.0
H723 H 0.77343 0.29852 0.22725 0.0
H724 H 0.79785 0.20206 0.23256 0.0
H725 H 0.81956 0.26053 0.14179 0.0
C726 C 0.82458 0.22478 0.10753 0.0
C727 C 0.82063 0.19644 0.10334 0.0
C728 C 0.79256 0.22326 0.23152 0.0
C729 C 0.80573 0.22381 0.16695 0.0
C730 C 0.78237 0.23648 0.26203 0.0
C731 C 0.77523 0.26396 0.26149 0.0
C732 C 0.79603 0.23761 0.2002 0.0
C733 C 0.77902 0.27752 0.22945 0.0
C734 C 0.8169 0.23858 0.13917 0.0
C735 C 0.80986 0.18245 0.13201 0.0
N736 N 0.78918 0.26424 0.2002 0.0
N737 N 0.80283 0.19624 0.16254 0.0
H738 H 0.30988 0.27227 0.63242 0.0
H739 H 0.22122 0.30628 0.80521 0.0
H740 H 0.30519 0.35236 0.68367 0.0
H741 H 0.24967 0.22568 0.77934 0.0
H742 H 0.2441 0.32286 0.75268 0.0
H743 H 0.27987 0.25431 0.67824 0.0
C744 C 0.30221 0.2861 0.65294 0.0
C745 C 0.31019 0.31377 0.65455 0.0
C746 C 0.24522 0.30151 0.75839 0.0
C747 C 0.276 0.29353 0.70657 0.0
C748 C 0.23207 0.29202 0.78826 0.0
C749 C 0.23372 0.26461 0.7968 0.0
C750 C 0.25994 0.28344 0.7366 0.0
C751 C 0.24823 0.24706 0.77399 0.0
C752 C 0.28528 0.27584 0.67914 0.0
C753 C 0.29977 0.33083 0.68171 0.0
N754 N 0.26082 0.25677 0.74492 0.0
N755 N 0.28328 0.32045 0.70663 0.0
H756 H 0.62639 0.73511 0.34856 0.0
H757 H 0.75911 0.81225 0.29398 0.0
H758 H 0.70251 0.73065 0.40805 0.0
H759 H 0.67903 0.83883 0.26217 0.0
H760 H 0.7383 0.78536 0.33963 0.0
H761 H 0.64355 0.77648 0.32151 0.0
C762 C 0.64625 0.74366 0.35715 0.0
C763 C 0.66296 0.72984 0.38088 0.0
C764 C 0.7253 0.79739 0.32302 0.0
C765 C 0.68338 0.77607 0.34862 0.0
C766 C 0.73721 0.81292 0.29687 0.0
C767 C 0.72088 0.82772 0.27357 0.0
C768 C 0.69676 0.79616 0.32567 0.0
C769 C 0.69249 0.82719 0.27863 0.0
C770 C 0.65621 0.76706 0.34141 0.0
C771 C 0.68889 0.74109 0.3903 0.0
N772 N 0.68133 0.81134 0.30368 0.0
N773 N 0.69858 0.76322 0.37353 0.0
H774 H 0.78873 0.25821 0.93945 0.0
H775 H 0.69712 0.22349 0.76372 0.0
H776 H 0.75859 0.17734 0.908 0.0
H777 H 0.73228 0.30309 0.79335 0.0
H778 H 0.71112 0.20792 0.82248 0.0
H779 H 0.75817 0.27677 0.8945 0.0
C780 C 0.77464 0.2445 0.92415 0.0
C781 C 0.77589 0.2163 0.9275 0.0
C782 C 0.71552 0.22887 0.81628 0.0
C783 C 0.74207 0.2371 0.8746 0.0
C784 C 0.70779 0.23772 0.78257 0.0
C785 C 0.714 0.26453 0.77323 0.0
C786 C 0.72965 0.2469 0.84095 0.0
C787 C 0.7271 0.28225 0.79924 0.0
C788 C 0.75753 0.25503 0.89805 0.0
C789 C 0.75786 0.19926 0.90645 0.0
N790 N 0.73475 0.27303 0.8317 0.0
N791 N 0.74207 0.20987 0.88027 0.0
H792 H 0.33105 0.23095 0.51949 0.0
H793 H 0.17317 0.20705 0.48533 0.0
H794 H 0.27138 0.28415 0.5647 0.0
H795 H 0.2345 0.15099 0.45073 0.0
H796 H 0.20729 0.2303 0.52588 0.0
H797 H 0.29539 0.19581 0.50768 0.0
C798 C 0.3105 0.23476 0.52813 0.0
C799 C 0.30395 0.26033 0.54288 0.0
C800 C 0.21309 0.21253 0.50999 0.0
C801 C 0.26272 0.22094 0.52772 0.0
C802 C 0.19365 0.19935 0.48662 0.0
C803 C 0.20103 0.17732 0.46395 0.0
C804 C 0.24016 0.20377 0.51046 0.0
C805 C 0.22772 0.16785 0.46753 0.0
C806 C 0.29004 0.21483 0.5211 0.0
C807 C 0.27709 0.26454 0.55332 0.0
N808 N 0.24636 0.18139 0.48978 0.0
N809 N 0.25721 0.24528 0.54463 0.0
H810 H 0.2094 0.76687 0.97026 0.0
H811 H 0.3118 0.80887 0.81675 0.0
H812 H 0.209 0.84387 0.91941 0.0
H813 H 0.29642 0.72529 0.84311 0.0
H814 H 0.27929 0.82329 0.86165 0.0
H815 H 0.2467 0.75254 0.93129 0.0
C816 C 0.21737 0.78081 0.95122 0.0
C817 C 0.20602 0.80647 0.94779 0.0
C818 C 0.28313 0.80179 0.85771 0.0
C819 C 0.24841 0.7904 0.90343 0.0
C820 C 0.30162 0.79351 0.83189 0.0
C821 C 0.30678 0.76576 0.82571 0.0
C822 C 0.26969 0.78226 0.87779 0.0
C823 C 0.29337 0.74692 0.84703 0.0
C824 C 0.23846 0.7726 0.92887 0.0
C825 C 0.21684 0.82372 0.92248 0.0
N826 N 0.27538 0.75549 0.87199 0.0
N827 N 0.23738 0.8154 0.90134 0.0
loop_
_geom_bond_atom_site_label_1
_geom_bond_atom_site_label_2
_geom_bond_distance
_geom_bond_site_symmetry_2
_ccdc_geom_bond_type
Zn0 O6 1.920 . S
Zn0 O12 1.898 . S
Zn0 O15 1.905 . S
Zn1 O9 1.905 . S
Zn1 O10 1.898 . S
Zn1 O18 1.920 . S
Zn2 O5 2.080 . S
Zn2 O8 2.114 1_554 S
Zn2 O11 2.120 1_554 S
Zn2 O13 2.120 . S
Zn2 O14 2.114 . S
Zn2 O17 2.080 1_554 S
C3 O8 1.166 . S
C3 O9 1.182 . S
C4 O10 1.167 . S
C4 O11 1.299 . S
O5 Zn2 2.080 . S
O5 C19 1.305 . S
O6 Zn0 1.920 . S
O6 C19 1.234 . S
C7 O12 1.167 . S
C7 O13 1.299 . S
O8 Zn2 2.114 1_556 S
O8 C3 1.166 . S
O9 Zn1 1.905 . S
O9 C3 1.182 . S
O10 Zn1 1.898 . S
O10 C4 1.167 . S
O11 Zn2 2.120 1_556 S
O11 C4 1.299 . S
O12 Zn0 1.898 . S
O12 C7 1.167 . S
O13 Zn2 2.120 . S
O13 C7 1.299 . S
O14 Zn2 2.114 . S
O14 C16 1.166 . S
O15 Zn0 1.905 . S
O15 C16 1.182 . S
C16 O14 1.166 . S
C16 O15 1.182 . S
O17 Zn2 2.080 1_556 S
O17 C20 1.305 . S
O18 Zn1 1.920 . S
O18 C20 1.234 . S
C19 O5 1.305 . S
C19 O6 1.234 . S
C20 O17 1.305 . S
C20 O18 1.234 . S
Zn21 O27 1.920 . S
Zn21 O33 1.898 . S
Zn21 O36 1.905 . S
Zn22 O30 1.905 . S
Zn22 O31 1.898 . S
Zn22 O39 1.920 . S
Zn23 O26 2.080 . S
Zn23 O29 2.114 . S
Zn23 O32 2.120 . S
Zn23 O34 2.120 . S
Zn23 O35 2.114 . S
Zn23 O38 2.080 . S
C24 O29 1.166 . S
C24 O30 1.182 . S
C25 O31 1.167 . S
C25 O32 1.299 . S
O26 Zn23 2.080 . S
O26 C40 1.305 . S
O27 Zn21 1.920 . S
O27 C40 1.234 . S
C28 O33 1.167 . S
C28 O34 1.299 . S
O29 Zn23 2.114 . S
O29 C24 1.166 . S
O30 Zn22 1.905 . S
O30 C24 1.182 . S
O31 Zn22 1.898 . S
O31 C25 1.167 . S
O32 Zn23 2.120 . S
O32 C25 1.299 . S
O33 Zn21 1.898 . S
O33 C28 1.167 . S
O34 Zn23 2.120 . S
O34 C28 1.299 . S
O35 Zn23 2.114 . S
O35 C37 1.166 . S
O36 Zn21 1.905 . S
O36 C37 1.182 . S
C37 O35 1.166 . S
C37 O36 1.182 . S
O38 Zn23 2.080 . S
O38 C41 1.305 . S
O39 Zn22 1.920 . S
O39 C41 1.234 . S
C40 O26 1.305 . S
C40 O27 1.234 . S
C41 O38 1.305 . S
C41 O39 1.234 . S
Zn42 O48 1.920 . S
Zn42 O54 1.898 . S
Zn42 O57 1.905 . S
Zn43 O51 1.905 . S
Zn43 O52 1.898 . S
Zn43 O60 1.920 . S
Zn44 O47 2.076 1_554 S
Zn44 O50 2.118 . S
Zn44 O53 2.122 . S
Zn44 O55 2.118 1_554 S
Zn44 O56 2.110 1_554 S
Zn44 O59 2.084 . S
C45 O50 1.166 . S
C45 O51 1.182 . S
C46 O52 1.167 . S
C46 O53 1.299 . S
O47 Zn44 2.076 1_556 S
O47 C61 1.305 . S
O48 Zn42 1.920 . S
O48 C61 1.234 . S
C49 O54 1.167 . S
C49 O55 1.299 . S
O50 Zn44 2.118 . S
O50 C45 1.166 . S
O51 Zn43 1.905 . S
O51 C45 1.182 . S
O52 Zn43 1.898 . S
O52 C46 1.167 . S
O53 Zn44 2.122 . S
O53 C46 1.299 . S
O54 Zn42 1.898 . S
O54 C49 1.167 . S
O55 Zn44 2.118 1_556 S
O55 C49 1.299 . S
O56 Zn44 2.110 1_556 S
O56 C58 1.166 . S
O57 Zn42 1.905 . S
O57 C58 1.182 . S
C58 O56 1.166 . S
C58 O57 1.182 . S
O59 Zn44 2.084 . S
O59 C62 1.305 . S
O60 Zn43 1.920 . S
O60 C62 1.234 . S
C61 O47 1.305 . S
C61 O48 1.234 . S
C62 O59 1.305 . S
C62 O60 1.234 . S
Zn63 O69 1.920 . S
Zn63 O75 1.898 . S
Zn63 O78 1.905 . S
Zn64 O72 1.905 . S
Zn64 O73 1.898 . S
Zn64 O81 1.920 . S
Zn65 O68 2.080 . S
Zn65 O71 2.114 . S
Zn65 O74 2.120 . S
Zn65 O76 2.120 . S
Zn65 O77 2.114 . S
Zn65 O80 2.080 . S
C66 O71 1.166 . S
C66 O72 1.182 . S
C67 O73 1.167 . S
C67 O74 1.299 . S
O68 Zn65 2.080 . S
O68 C82 1.305 . S
O69 Zn63 1.920 . S
O69 C82 1.234 . S
C70 O75 1.167 . S
C70 O76 1.299 . S
O71 Zn65 2.114 . S
O71 C66 1.166 . S
O72 Zn64 1.905 . S
O72 C66 1.182 . S
O73 Zn64 1.898 . S
O73 C67 1.167 . S
O74 Zn65 2.120 . S
O74 C67 1.299 . S
O75 Zn63 1.898 . S
O75 C70 1.167 . S
O76 Zn65 2.120 . S
O76 C70 1.299 . S
O77 Zn65 2.114 . S
O77 C79 1.166 . S
O78 Zn63 1.905 . S
O78 C79 1.182 . S
C79 O77 1.166 . S
C79 O78 1.182 . S
O80 Zn65 2.080 . S
O80 C83 1.305 . S
O81 Zn64 1.920 . S
O81 C83 1.234 . S
C82 O68 1.305 . S
C82 O69 1.234 . S
C83 O80 1.305 . S
C83 O81 1.234 . S
C84 C85 1.386 . S
C84 C86 1.397 . S
C84 H108 0.931 . S
C85 C84 1.386 . S
C85 C89 1.397 . S
C86 C84 1.397 . S
C86 C87 1.384 . S
C86 H109 0.930 . S
C87 C86 1.384 . S
C87 C88 1.377 . S
C87 C90 1.481 . S
C88 C87 1.377 . S
C88 C89 1.389 . S
C88 H110 0.929 . S
C89 C85 1.397 . S
C89 C88 1.389 . S
C89 H111 0.931 . S
C90 C87 1.481 . S
C90 C91 1.387 . S
C90 C95 1.390 . S
C91 C90 1.387 . S
C91 C92 1.401 . S
C91 H112 0.930 . S
C92 C91 1.401 . S
C92 C93 1.376 . S
C92 C101 1.511 . S
C93 C92 1.376 . S
C93 C94 1.392 . S
C93 H114 0.931 . S
C94 C93 1.392 . S
C94 C95 1.361 . S
C94 C96 1.500 . S
C95 C90 1.390 . S
C95 C94 1.361 . S
C95 H113 0.931 . S
C96 C94 1.500 . S
C96 C97 1.371 . S
C96 C98 1.365 . S
C97 C96 1.371 . S
C97 C107 1.386 . S
C97 H115 0.931 . S
C98 C96 1.365 . S
C98 C99 1.409 1_545 S
C98 H116 0.929 . S
C99 C98 1.409 1_565 S
C99 C100 1.380 . S
C99 H117 0.930 . S
C100 C99 1.380 . S
C100 C107 1.357 1_565 S
C101 C92 1.511 . S
C101 C102 1.341 . S
C101 C103 1.371 . S
C102 C101 1.341 . S
C102 C106 1.394 . S
C102 H118 0.930 . S
C103 C101 1.371 . S
C103 C104 1.392 . S
C103 H119 0.931 . S
C104 C103 1.392 . S
C104 C105 1.331 . S
C104 H122 0.932 . S
C105 C104 1.331 . S
C105 C106 1.336 . S
C106 C102 1.394 . S
C106 C105 1.336 . S
C106 H121 0.929 . S
C107 C97 1.386 . S
C107 C100 1.357 1_545 S
C107 H120 0.928 . S
H108 C84 0.931 . S
H109 C86 0.930 . S
H110 C88 0.929 . S
H111 C89 0.931 . S
H112 C91 0.930 . S
H113 C95 0.931 . S
H114 C93 0.931 . S
H115 C97 0.931 . S
H116 C98 0.929 . S
H117 C99 0.930 . S
H118 C102 0.930 . S
H119 C103 0.931 . S
H120 C107 0.928 . S
H121 C106 0.929 . S
H122 C104 0.932 . S
C123 C124 1.386 . S
C123 C125 1.397 . S
C123 H147 0.931 . S
C124 C123 1.386 . S
C124 C128 1.397 . S
C125 C123 1.397 . S
C125 C126 1.384 . S
C125 H148 0.930 . S
C126 C125 1.384 . S
C126 C127 1.377 . S
C126 C129 1.481 . S
C127 C126 1.377 . S
C127 C128 1.389 . S
C127 H149 0.929 . S
C128 C124 1.397 . S
C128 C127 1.389 . S
C128 H150 0.931 . S
C129 C126 1.481 . S
C129 C130 1.387 . S
C129 C134 1.390 . S
C130 C129 1.387 . S
C130 C131 1.401 . S
C130 H151 0.930 . S
C131 C130 1.401 . S
C131 C132 1.376 . S
C131 C140 1.511 . S
C132 C131 1.376 . S
C132 C133 1.392 . S
C132 H153 0.931 . S
C133 C132 1.392 . S
C133 C134 1.361 . S
C133 C135 1.500 . S
C134 C129 1.390 . S
C134 C133 1.361 . S
C134 H152 0.931 . S
C135 C133 1.500 . S
C135 C136 1.371 . S
C135 C137 1.365 . S
C136 C135 1.371 . S
C136 C146 1.386 . S
C136 H154 0.931 . S
C137 C135 1.365 . S
C137 C138 1.409 . S
C137 H155 0.929 . S
C138 C137 1.409 . S
C138 C139 1.380 . S
C138 H156 0.930 . S
C139 C138 1.380 . S
C139 C146 1.357 . S
C140 C131 1.511 . S
C140 C141 1.341 . S
C140 C142 1.371 . S
C141 C140 1.341 . S
C141 C145 1.394 . S
C141 H157 0.930 . S
C142 C140 1.371 . S
C142 C143 1.392 . S
C142 H158 0.931 . S
C143 C142 1.392 . S
C143 C144 1.331 . S
C143 H161 0.932 . S
C144 C143 1.331 . S
C144 C145 1.336 . S
C145 C141 1.394 . S
C145 C144 1.336 . S
C145 H160 0.929 . S
C146 C136 1.386 . S
C146 C139 1.357 . S
C146 H159 0.928 . S
H147 C123 0.931 . S
H148 C125 0.930 . S
H149 C127 0.929 . S
H150 C128 0.931 . S
H151 C130 0.930 . S
H152 C134 0.931 . S
H153 C132 0.931 . S
H154 C136 0.931 . S
H155 C137 0.929 . S
H156 C138 0.930 . S
H157 C141 0.930 . S
H158 C142 0.931 . S
H159 C146 0.928 . S
H160 C145 0.929 . S
H161 C143 0.932 . S
C162 C163 1.386 . S
C162 C164 1.397 . S
C162 H186 0.931 . S
C163 C162 1.386 . S
C163 C167 1.397 . S
C164 C162 1.397 . S
C164 C165 1.384 . S
C164 H187 0.930 . S
C165 C164 1.384 . S
C165 C166 1.377 . S
C165 C168 1.481 . S
C166 C165 1.377 . S
C166 C167 1.389 . S
C166 H188 0.929 . S
C167 C163 1.397 . S
C167 C166 1.389 . S
C167 H189 0.931 . S
C168 C165 1.481 . S
C168 C169 1.387 . S
C168 C173 1.390 . S
C169 C168 1.387 . S
C169 C170 1.401 . S
C169 H190 0.930 . S
C170 C169 1.401 . S
C170 C171 1.376 . S
C170 C179 1.511 . S
C171 C170 1.376 . S
C171 C172 1.392 . S
C171 H192 0.931 . S
C172 C171 1.392 . S
C172 C173 1.361 . S
C172 C174 1.500 . S
C173 C168 1.390 . S
C173 C172 1.361 . S
C173 H191 0.931 . S
C174 C172 1.500 . S
C174 C175 1.371 . S
C174 C176 1.365 . S
C175 C174 1.371 . S
C175 C185 1.386 . S
C175 H193 0.931 . S
C176 C174 1.365 . S
C176 C177 1.409 . S
C176 H194 0.929 . S
C177 C176 1.409 . S
C177 C178 1.380 . S
C177 H195 0.930 . S
C178 C177 1.380 . S
C178 C185 1.357 . S
C179 C170 1.511 . S
C179 C180 1.341 . S
C179 C181 1.371 . S
C180 C179 1.341 . S
C180 C184 1.394 . S
C180 H196 0.930 . S
C181 C179 1.371 . S
C181 C182 1.392 . S
C181 H197 0.931 . S
C182 C181 1.392 . S
C182 C183 1.331 . S
C182 H200 0.932 . S
C183 C182 1.331 . S
C183 C184 1.336 . S
C184 C180 1.394 . S
C184 C183 1.336 . S
C184 H199 0.929 . S
C185 C175 1.386 . S
C185 C178 1.357 . S
C185 H198 0.928 . S
H186 C162 0.931 . S
H187 C164 0.930 . S
H188 C166 0.929 . S
H189 C167 0.931 . S
H190 C169 0.930 . S
H191 C173 0.931 . S
H192 C171 0.931 . S
H193 C175 0.931 . S
H194 C176 0.929 . S
H195 C177 0.930 . S
H196 C180 0.930 . S
H197 C181 0.931 . S
H198 C185 0.928 . S
H199 C184 0.929 . S
H200 C182 0.932 . S
C201 C202 1.386 . S
C201 C203 1.397 . S
C201 H225 0.931 . S
C202 C201 1.386 . S
C202 C206 1.397 . S
C203 C201 1.397 . S
C203 C204 1.384 . S
C203 H226 0.930 . S
C204 C203 1.384 . S
C204 C205 1.377 . S
C204 C207 1.481 . S
C205 C204 1.377 . S
C205 C206 1.389 . S
C205 H227 0.929 . S
C206 C202 1.397 . S
C206 C205 1.389 . S
C206 H228 0.931 . S
C207 C204 1.481 . S
C207 C208 1.387 . S
C207 C212 1.390 . S
C208 C207 1.387 . S
C208 C209 1.401 . S
C208 H229 0.930 . S
C209 C208 1.401 . S
C209 C210 1.376 . S
C209 C218 1.511 . S
C210 C209 1.376 . S
C210 C211 1.392 . S
C210 H231 0.931 . S
C211 C210 1.392 . S
C211 C212 1.361 . S
C211 C213 1.500 . S
C212 C207 1.390 . S
C212 C211 1.361 . S
C212 H230 0.931 . S
C213 C211 1.500 . S
C213 C214 1.371 . S
C213 C215 1.365 . S
C214 C213 1.371 . S
C214 C224 1.386 . S
C214 H232 0.931 . S
C215 C213 1.365 . S
C215 C216 1.409 . S
C215 H233 0.929 . S
C216 C215 1.409 . S
C216 C217 1.380 . S
C216 H234 0.930 . S
C217 C216 1.380 . S
C217 C224 1.357 . S
C218 C209 1.511 . S
C218 C219 1.341 . S
C218 C220 1.371 . S
C219 C218 1.341 . S
C219 C223 1.394 . S
C219 H235 0.930 . S
C220 C218 1.371 . S
C220 C221 1.392 . S
C220 H236 0.931 . S
C221 C220 1.392 . S
C221 C222 1.331 . S
C221 H239 0.932 . S
C222 C221 1.331 . S
C222 C223 1.336 . S
C223 C219 1.394 . S
C223 C222 1.336 . S
C223 H238 0.929 . S
C224 C214 1.386 . S
C224 C217 1.357 . S
C224 H237 0.928 . S
H225 C201 0.931 . S
H226 C203 0.930 . S
H227 C205 0.929 . S
H228 C206 0.931 . S
H229 C208 0.930 . S
H230 C212 0.931 . S
H231 C210 0.931 . S
H232 C214 0.931 . S
H233 C215 0.929 . S
H234 C216 0.930 . S
H235 C219 0.930 . S
H236 C220 0.931 . S
H237 C224 0.928 . S
H238 C223 0.929 . S
H239 C221 0.932 . S
C240 C241 1.386 . S
C240 C242 1.397 . S
C240 H264 0.931 . S
C241 C240 1.386 . S
C241 C245 1.397 . S
C242 C240 1.397 . S
C242 C243 1.384 . S
C242 H265 0.930 . S
C243 C242 1.384 . S
C243 C244 1.377 . S
C243 C246 1.481 . S
C244 C243 1.377 . S
C244 C245 1.389 . S
C244 H266 0.929 . S
C245 C241 1.397 . S
C245 C244 1.389 . S
C245 H267 0.931 . S
C246 C243 1.481 . S
C246 C247 1.387 . S
C246 C251 1.390 . S
C247 C246 1.387 . S
C247 C248 1.401 . S
C247 H268 0.930 . S
C248 C247 1.401 . S
C248 C249 1.376 . S
C248 C257 1.511 . S
C249 C248 1.376 . S
C249 C250 1.392 . S
C249 H270 0.931 . S
C250 C249 1.392 . S
C250 C251 1.361 . S
C250 C252 1.500 . S
C251 C246 1.390 . S
C251 C250 1.361 . S
C251 H269 0.931 . S
C252 C250 1.500 . S
C252 C253 1.371 . S
C252 C254 1.365 . S
C253 C252 1.371 . S
C253 C263 1.386 . S
C253 H271 0.931 . S
C254 C252 1.365 . S
C254 C255 1.409 . S
C254 H272 0.929 . S
C255 C254 1.409 . S
C255 C256 1.380 . S
C255 H273 0.930 . S
C256 C255 1.380 . S
C256 C263 1.357 . S
C257 C248 1.511 . S
C257 C258 1.341 . S
C257 C259 1.371 . S
C258 C257 1.341 . S
C258 C262 1.394 . S
C258 H274 0.930 . S
C259 C257 1.371 . S
C259 C260 1.392 . S
C259 H275 0.931 . S
C260 C259 1.392 . S
C260 C261 1.331 . S
C260 H278 0.932 . S
C261 C260 1.331 . S
C261 C262 1.336 . S
C262 C258 1.394 . S
C262 C261 1.336 . S
C262 H277 0.929 . S
C263 C253 1.386 . S
C263 C256 1.357 . S
C263 H276 0.928 . S
H264 C240 0.931 . S
H265 C242 0.930 . S
H266 C244 0.929 . S
H267 C245 0.931 . S
H268 C247 0.930 . S
H269 C251 0.931 . S
H270 C249 0.931 . S
H271 C253 0.931 . S
H272 C254 0.929 . S
H273 C255 0.930 . S
H274 C258 0.930 . S
H275 C259 0.931 . S
H276 C263 0.928 . S
H277 C262 0.929 . S
H278 C260 0.932 . S
C279 C280 1.386 . S
C279 C281 1.397 . S
C279 H303 0.931 . S
C280 C279 1.386 . S
C280 C284 1.397 . S
C281 C279 1.397 . S
C281 C282 1.384 . S
C281 H304 0.930 . S
C282 C281 1.384 . S
C282 C283 1.377 . S
C282 C285 1.481 . S
C283 C282 1.377 . S
C283 C284 1.389 . S
C283 H305 0.929 . S
C284 C280 1.397 . S
C284 C283 1.389 . S
C284 H306 0.931 . S
C285 C282 1.481 . S
C285 C286 1.387 . S
C285 C290 1.390 . S
C286 C285 1.387 . S
C286 C287 1.401 . S
C286 H307 0.930 . S
C287 C286 1.401 . S
C287 C288 1.376 . S
C287 C296 1.511 . S
C288 C287 1.376 . S
C288 C289 1.392 . S
C288 H309 0.931 . S
C289 C288 1.392 . S
C289 C290 1.361 . S
C289 C291 1.500 . S
C290 C285 1.390 . S
C290 C289 1.361 . S
C290 H308 0.931 . S
C291 C289 1.500 . S
C291 C292 1.371 . S
C291 C293 1.365 . S
C292 C291 1.371 . S
C292 C302 1.386 . S
C292 H310 0.931 . S
C293 C291 1.365 . S
C293 C294 1.409 . S
C293 H311 0.929 . S
C294 C293 1.409 . S
C294 C295 1.380 . S
C294 H312 0.930 . S
C295 C294 1.380 . S
C295 C302 1.357 . S
C296 C287 1.511 . S
C296 C297 1.341 . S
C296 C298 1.371 . S
C297 C296 1.341 . S
C297 C301 1.394 . S
C297 H313 0.930 . S
C298 C296 1.371 . S
C298 C299 1.392 . S
C298 H314 0.931 . S
C299 C298 1.392 . S
C299 C300 1.331 . S
C299 H317 0.932 . S
C300 C299 1.331 . S
C300 C301 1.336 . S
C301 C297 1.394 . S
C301 C300 1.336 . S
C301 H316 0.929 . S
C302 C292 1.386 . S
C302 C295 1.357 . S
C302 H315 0.928 . S
H303 C279 0.931 . S
H304 C281 0.930 . S
H305 C283 0.929 . S
H306 C284 0.931 . S
H307 C286 0.930 . S
H308 C290 0.931 . S
H309 C288 0.931 . S
H310 C292 0.931 . S
H311 C293 0.929 . S
H312 C294 0.930 . S
H313 C297 0.930 . S
H314 C298 0.931 . S
H315 C302 0.928 . S
H316 C301 0.929 . S
H317 C299 0.932 . S
C318 C319 1.386 . S
C318 C320 1.397 . S
C318 H342 0.931 . S
C319 C318 1.386 . S
C319 C323 1.397 . S
C320 C318 1.397 . S
C320 C321 1.384 . S
C320 H343 0.930 . S
C321 C320 1.384 . S
C321 C322 1.377 . S
C321 C324 1.481 . S
C322 C321 1.377 . S
C322 C323 1.389 . S
C322 H344 0.929 . S
C323 C319 1.397 . S
C323 C322 1.389 . S
C323 H345 0.931 . S
C324 C321 1.481 . S
C324 C325 1.387 . S
C324 C329 1.390 . S
C325 C324 1.387 . S
C325 C326 1.401 . S
C325 H346 0.930 . S
C326 C325 1.401 . S
C326 C327 1.376 . S
C326 C335 1.511 . S
C327 C326 1.376 . S
C327 C328 1.392 . S
C327 H348 0.931 . S
C328 C327 1.392 . S
C328 C329 1.361 . S
C328 C330 1.500 . S
C329 C324 1.390 . S
C329 C328 1.361 . S
C329 H347 0.931 . S
C330 C328 1.500 . S
C330 C331 1.371 . S
C330 C332 1.365 . S
C331 C330 1.371 . S
C331 C341 1.386 . S
C331 H349 0.931 . S
C332 C330 1.365 . S
C332 C333 1.409 . S
C332 H350 0.929 . S
C333 C332 1.409 . S
C333 C334 1.380 . S
C333 H351 0.930 . S
C334 C333 1.380 . S
C334 C341 1.357 . S
C335 C326 1.511 . S
C335 C336 1.341 . S
C335 C337 1.371 . S
C336 C335 1.341 . S
C336 C340 1.394 . S
C336 H352 0.930 . S
C337 C335 1.371 . S
C337 C338 1.392 . S
C337 H353 0.931 . S
C338 C337 1.392 . S
C338 C339 1.331 . S
C338 H356 0.932 . S
C339 C338 1.331 . S
C339 C340 1.336 . S
C340 C336 1.394 . S
C340 C339 1.336 . S
C340 H355 0.929 . S
C341 C331 1.386 . S
C341 C334 1.357 . S
C341 H354 0.928 . S
H342 C318 0.931 . S
H343 C320 0.930 . S
H344 C322 0.929 . S
H345 C323 0.931 . S
H346 C325 0.930 . S
H347 C329 0.931 . S
H348 C327 0.931 . S
H349 C331 0.931 . S
H350 C332 0.929 . S
H351 C333 0.930 . S
H352 C336 0.930 . S
H353 C337 0.931 . S
H354 C341 0.928 . S
H355 C340 0.929 . S
H356 C338 0.932 . S
C357 C358 1.386 . S
C357 C359 1.397 1_455 S
C357 H381 0.931 . S
C358 C357 1.386 . S
C358 C362 1.398 . S
C359 C357 1.397 1_655 S
C359 C360 1.384 . S
C359 H382 0.930 . S
C360 C359 1.384 . S
C360 C361 1.377 . S
C360 C363 1.481 . S
C361 C360 1.377 . S
C361 C362 1.389 1_655 S
C361 H383 0.929 . S
C362 C358 1.398 . S
C362 C361 1.389 1_455 S
C362 H384 0.931 . S
C363 C360 1.481 . S
C363 C364 1.387 . S
C363 C368 1.390 . S
C364 C363 1.387 . S
C364 C365 1.401 . S
C364 H385 0.930 . S
C365 C364 1.401 . S
C365 C366 1.376 . S
C365 C374 1.511 . S
C366 C365 1.376 . S
C366 C367 1.392 . S
C366 H387 0.931 . S
C367 C366 1.392 . S
C367 C368 1.361 . S
C367 C369 1.500 . S
C368 C363 1.390 . S
C368 C367 1.361 . S
C368 H386 0.931 . S
C369 C367 1.500 . S
C369 C370 1.371 . S
C369 C371 1.365 . S
C370 C369 1.371 . S
C370 C380 1.386 . S
C370 H388 0.931 . S
C371 C369 1.365 . S
C371 C372 1.409 . S
C371 H389 0.929 . S
C372 C371 1.409 . S
C372 C373 1.380 . S
C372 H390 0.930 . S
C373 C372 1.380 . S
C373 C380 1.357 . S
C374 C365 1.511 . S
C374 C375 1.341 . S
C374 C376 1.371 . S
C375 C374 1.341 . S
C375 C379 1.394 . S
C375 H391 0.930 . S
C376 C374 1.371 . S
C376 C377 1.392 . S
C376 H392 0.931 . S
C377 C376 1.392 . S
C377 C378 1.331 . S
C377 H395 0.932 . S
C378 C377 1.331 . S
C378 C379 1.336 . S
C379 C375 1.394 . S
C379 C378 1.336 . S
C379 H394 0.929 . S
C380 C370 1.386 . S
C380 C373 1.357 . S
C380 H393 0.928 . S
H381 C357 0.931 . S
H382 C359 0.930 . S
H383 C361 0.929 . S
H384 C362 0.931 . S
H385 C364 0.930 . S
H386 C368 0.931 . S
H387 C366 0.931 . S
H388 C370 0.931 . S
H389 C371 0.929 . S
H390 C372 0.930 . S
H391 C375 0.930 . S
H392 C376 0.931 . S
H393 C380 0.928 . S
H394 C379 0.929 . S
H395 C377 0.932 . S
H396 C402 0.930 . S
H397 C406 0.930 . S
H398 C411 0.929 . S
H399 C409 0.929 . S
H400 C404 0.929 . S
H401 C410 0.929 . S
C402 H396 0.930 . S
C402 C403 1.367 . S
C402 C410 1.378 . S
C403 C402 1.367 . S
C403 C411 1.433 . S
C404 H400 0.929 . S
C404 C406 1.378 . S
C404 C408 1.350 . S
C405 C408 1.463 . S
C405 C410 1.350 . S
C405 N413 1.427 . S
C406 H397 0.930 . S
C406 C404 1.378 . S
C406 C407 1.367 . S
C407 C406 1.367 . S
C407 C409 1.433 . S
C408 C404 1.350 . S
C408 C405 1.463 . S
C408 N412 1.427 . S
C409 H399 0.929 . S
C409 C407 1.433 . S
C409 N412 1.384 . S
C410 H401 0.929 . S
C410 C402 1.378 . S
C410 C405 1.350 . S
C411 H398 0.929 . S
C411 C403 1.433 . S
C411 N413 1.384 . S
N412 C408 1.427 . S
N412 C409 1.384 . S
N413 C405 1.427 . S
N413 C411 1.384 . S
H414 C420 0.930 . S
H415 C424 0.930 . S
H416 C429 0.929 . S
H417 C427 0.929 . S
H418 C422 0.929 . S
H419 C428 0.929 . S
C420 H414 0.930 . S
C420 C421 1.367 . S
C420 C428 1.378 . S
C421 C420 1.367 . S
C421 C429 1.433 . S
C422 H418 0.929 . S
C422 C424 1.378 . S
C422 C426 1.350 . S
C423 C426 1.463 . S
C423 C428 1.350 . S
C423 N431 1.427 . S
C424 H415 0.930 . S
C424 C422 1.378 . S
C424 C425 1.367 . S
C425 C424 1.367 . S
C425 C427 1.433 . S
C426 C422 1.350 . S
C426 C423 1.463 . S
C426 N430 1.427 . S
C427 H417 0.929 . S
C427 C425 1.433 . S
C427 N430 1.384 . S
C428 H419 0.929 . S
C428 C420 1.378 . S
C428 C423 1.350 . S
C429 H416 0.929 . S
C429 C421 1.433 . S
C429 N431 1.384 . S
N430 C426 1.427 . S
N430 C427 1.384 . S
N431 C423 1.427 . S
N431 C429 1.384 . S
H432 C438 0.930 . S
H433 C442 0.930 . S
H434 C447 0.929 . S
H435 C445 0.929 1_556 S
H436 C440 0.929 . S
H437 C446 0.929 1_556 S
C438 H432 0.930 . S
C438 C439 1.367 1_556 S
C438 C446 1.378 1_556 S
C439 C438 1.367 1_554 S
C439 C447 1.433 . S
C440 H436 0.929 . S
C440 C442 1.378 1_545 S
C440 C444 1.350 . S
C441 C444 1.463 . S
C441 C446 1.350 . S
C441 N449 1.427 . S
C442 H433 0.930 . S
C442 C440 1.378 1_565 S
C442 C443 1.367 . S
C443 C442 1.367 . S
C443 C445 1.433 . S
C444 C440 1.350 . S
C444 C441 1.463 . S
C444 N448 1.427 1_545 S
C445 H435 0.929 1_554 S
C445 C443 1.433 . S
C445 N448 1.384 . S
C446 H437 0.929 1_554 S
C446 C438 1.378 1_554 S
C446 C441 1.350 . S
C447 H434 0.929 . S
C447 C439 1.433 . S
C447 N449 1.384 . S
N448 C444 1.427 1_565 S
N448 C445 1.384 . S
N449 C441 1.427 . S
N449 C447 1.384 . S
H450 C456 0.930 . S
H451 C460 0.930 . S
H452 C465 0.929 . S
H453 C463 0.929 . S
H454 C458 0.929 . S
H455 C464 0.929 . S
C456 H450 0.930 . S
C456 C457 1.367 . S
C456 C464 1.378 . S
C457 C456 1.367 . S
C457 C465 1.433 . S
C458 H454 0.929 . S
C458 C460 1.378 . S
C458 C462 1.350 . S
C459 C462 1.463 . S
C459 C464 1.350 . S
C459 N467 1.427 . S
C460 H451 0.930 . S
C460 C458 1.378 . S
C460 C461 1.367 . S
C461 C460 1.367 . S
C461 C463 1.433 . S
C462 C458 1.350 . S
C462 C459 1.463 . S
C462 N466 1.427 . S
C463 H453 0.929 . S
C463 C461 1.433 . S
C463 N466 1.384 . S
C464 H455 0.929 . S
C464 C456 1.378 . S
C464 C459 1.350 . S
C465 H452 0.929 . S
C465 C457 1.433 . S
C465 N467 1.384 . S
N466 C462 1.427 . S
N466 C463 1.384 . S
N467 C459 1.427 . S
N467 C465 1.384 . S
H468 C474 0.930 . S
H469 C478 0.930 . S
H470 C483 0.929 . S
H471 C481 0.929 . S
H472 C476 0.929 . S
H473 C482 0.929 . S
C474 H468 0.930 . S
C474 C475 1.367 . S
C474 C482 1.378 . S
C475 C474 1.367 . S
C475 C483 1.433 . S
C476 H472 0.929 . S
C476 C478 1.378 . S
C476 C480 1.350 . S
C477 C480 1.463 . S
C477 C482 1.350 . S
C477 N485 1.427 . S
C478 H469 0.930 . S
C478 C476 1.378 . S
C478 C479 1.367 . S
C479 C478 1.367 . S
C479 C481 1.433 . S
C480 C476 1.350 . S
C480 C477 1.463 . S
C480 N484 1.427 . S
C481 H471 0.929 . S
C481 C479 1.433 . S
C481 N484 1.384 . S
C482 H473 0.929 . S
C482 C474 1.378 . S
C482 C477 1.350 . S
C483 H470 0.929 . S
C483 C475 1.433 . S
C483 N485 1.384 . S
N484 C480 1.427 . S
N484 C481 1.384 . S
N485 C477 1.427 . S
N485 C483 1.384 . S
H486 C492 0.930 . S
H487 C496 0.930 1_554 S
H488 C501 0.929 . S
H489 C499 0.929 . S
H490 C494 0.929 1_654 S
H491 C500 0.929 . S
C492 H486 0.930 . S
C492 C493 1.367 . S
C492 C500 1.378 . S
C493 C492 1.367 . S
C493 C501 1.433 1_556 S
C494 H490 0.929 1_456 S
C494 C496 1.378 . S
C494 C498 1.350 1_455 S
C495 C498 1.463 . S
C495 C500 1.350 . S
C495 N503 1.427 . S
C496 H487 0.930 1_556 S
C496 C494 1.378 . S
C496 C497 1.367 . S
C497 C496 1.367 . S
C497 C499 1.433 . S
C498 C494 1.350 1_655 S
C498 C495 1.463 . S
C498 N502 1.427 1_655 S
C499 H489 0.929 . S
C499 C497 1.433 . S
C499 N502 1.384 . S
C500 H491 0.929 . S
C500 C492 1.378 . S
C500 C495 1.350 . S
C501 H488 0.929 . S
C501 C493 1.433 1_554 S
C501 N503 1.384 1_554 S
N502 C498 1.427 1_455 S
N502 C499 1.384 . S
N503 C495 1.427 . S
N503 C501 1.384 1_556 S
H504 C510 0.930 . S
H505 C514 0.930 . S
H506 C519 0.929 . S
H507 C517 0.929 . S
H508 C512 0.929 . S
H509 C518 0.929 . S
C510 H504 0.930 . S
C510 C511 1.367 . S
C510 C518 1.378 . S
C511 C510 1.367 . S
C511 C519 1.433 . S
C512 H508 0.929 . S
C512 C514 1.378 . S
C512 C516 1.350 . S
C513 C516 1.463 . S
C513 C518 1.350 . S
C513 N521 1.427 . S
C514 H505 0.930 . S
C514 C512 1.378 . S
C514 C515 1.367 . S
C515 C514 1.367 . S
C515 C517 1.433 . S
C516 C512 1.350 . S
C516 C513 1.463 . S
C516 N520 1.427 . S
C517 H507 0.929 . S
C517 C515 1.433 . S
C517 N520 1.384 . S
C518 H509 0.929 . S
C518 C510 1.378 . S
C518 C513 1.350 . S
C519 H506 0.929 . S
C519 C511 1.433 . S
C519 N521 1.384 . S
N520 C516 1.427 . S
N520 C517 1.384 . S
N521 C513 1.427 . S
N521 C519 1.384 . S
H522 C528 0.930 . S
H523 C532 0.930 . S
H524 C537 0.929 . S
H525 C535 0.929 . S
H526 C530 0.929 . S
H527 C536 0.929 . S
C528 H522 0.930 . S
C528 C529 1.367 . S
C528 C536 1.378 . S
C529 C528 1.367 . S
C529 C537 1.433 . S
C530 H526 0.929 . S
C530 C532 1.378 . S
C530 C534 1.350 . S
C531 C534 1.463 . S
C531 C536 1.350 . S
C531 N539 1.427 . S
C532 H523 0.930 . S
C532 C530 1.378 . S
C532 C533 1.367 . S
C533 C532 1.367 . S
C533 C535 1.433 . S
C534 C530 1.350 . S
C534 C531 1.463 . S
C534 N538 1.427 . S
C535 H525 0.929 . S
C535 C533 1.433 . S
C535 N538 1.384 . S
C536 H527 0.929 . S
C536 C528 1.378 . S
C536 C531 1.350 . S
C537 H524 0.929 . S
C537 C529 1.433 . S
C537 N539 1.384 . S
N538 C534 1.427 . S
N538 C535 1.384 . S
N539 C531 1.427 . S
N539 C537 1.384 . S
H540 C546 0.930 . S
H541 C550 0.930 . S
H542 C555 0.929 . S
H543 C553 0.929 . S
H544 C548 0.929 . S
H545 C554 0.929 . S
C546 H540 0.930 . S
C546 C547 1.367 . S
C546 C554 1.378 . S
C547 C546 1.367 . S
C547 C555 1.433 . S
C548 H544 0.929 . S
C548 C550 1.378 . S
C548 C552 1.350 1_565 S
C549 C552 1.463 . S
C549 C554 1.350 . S
C549 N557 1.427 . S
C550 H541 0.930 . S
C550 C548 1.378 . S
C550 C551 1.367 . S
C551 C550 1.367 . S
C551 C553 1.433 1_565 S
C552 C548 1.350 1_545 S
C552 C549 1.463 . S
C552 N556 1.427 . S
C553 H543 0.929 . S
C553 C551 1.433 1_545 S
C553 N556 1.384 . S
C554 H545 0.929 . S
C554 C546 1.378 . S
C554 C549 1.350 . S
C555 H542 0.929 . S
C555 C547 1.433 . S
C555 N557 1.384 . S
N556 C552 1.427 . S
N556 C553 1.384 . S
N557 C549 1.427 . S
N557 C555 1.384 . S
H558 C564 0.930 . S
H559 C568 0.930 . S
H560 C573 0.929 . S
H561 C571 0.929 . S
H562 C566 0.929 . S
H563 C572 0.929 . S
C564 H558 0.930 . S
C564 C565 1.367 . S
C564 C572 1.378 . S
C565 C564 1.367 . S
C565 C573 1.433 . S
C566 H562 0.929 . S
C566 C568 1.378 . S
C566 C570 1.350 . S
C567 C570 1.463 . S
C567 C572 1.350 . S
C567 N575 1.427 . S
C568 H559 0.930 . S
C568 C566 1.378 . S
C568 C569 1.367 . S
C569 C568 1.367 . S
C569 C571 1.433 . S
C570 C566 1.350 . S
C570 C567 1.463 . S
C570 N574 1.427 . S
C571 H561 0.929 . S
C571 C569 1.433 . S
C571 N574 1.384 . S
C572 H563 0.929 . S
C572 C564 1.378 . S
C572 C567 1.350 . S
C573 H560 0.929 . S
C573 C565 1.433 . S
C573 N575 1.384 . S
N574 C570 1.427 . S
N574 C571 1.384 . S
N575 C567 1.427 . S
N575 C573 1.384 . S
H576 C582 0.930 . S
H577 C586 0.930 . S
H578 C591 0.929 . S
H579 C589 0.929 1_554 S
H580 C584 0.929 . S
H581 C590 0.910 1_554 S
C582 H576 0.930 . S
C582 C583 1.367 1_554 S
C582 C590 1.375 1_554 S
C583 C582 1.367 1_556 S
C583 C591 1.433 . S
C584 H580 0.929 . S
C584 C586 1.378 . S
C584 C588 1.350 . S
C585 C588 1.463 1_565 S
C585 C590 1.372 . S
C585 N593 1.427 . S
C586 H577 0.930 . S
C586 C584 1.378 . S
C586 C587 1.367 . S
C587 C586 1.367 . S
C587 C589 1.433 . S
C588 C584 1.350 . S
C588 C585 1.463 1_545 S
C588 N592 1.427 . S
C589 H579 0.929 1_556 S
C589 C587 1.433 . S
C589 N592 1.384 . S
C590 H581 0.910 1_556 S
C590 C582 1.375 1_556 S
C590 C585 1.372 . S
C591 H578 0.929 . S
C591 C583 1.433 . S
C591 N593 1.384 . S
N592 C588 1.427 . S
N592 C589 1.384 . S
N593 C585 1.427 . S
N593 C591 1.384 . S
H594 C600 0.930 . S
H595 C604 0.930 . S
H596 C609 0.929 . S
H597 C607 0.929 . S
H598 C602 0.929 . S
H599 C608 0.929 . S
C600 H594 0.930 . S
C600 C601 1.367 . S
C600 C608 1.378 . S
C601 C600 1.367 . S
C601 C609 1.433 . S
C602 H598 0.929 . S
C602 C604 1.378 . S
C602 C606 1.350 . S
C603 C606 1.463 . S
C603 C608 1.350 . S
C603 N611 1.427 . S
C604 H595 0.930 . S
C604 C602 1.378 . S
C604 C605 1.367 . S
C605 C604 1.367 . S
C605 C607 1.433 . S
C606 C602 1.350 . S
C606 C603 1.463 . S
C606 N610 1.427 . S
C607 H597 0.929 . S
C607 C605 1.433 . S
C607 N610 1.384 . S
C608 H599 0.929 . S
C608 C600 1.378 . S
C608 C603 1.350 . S
C609 H596 0.929 . S
C609 C601 1.433 . S
C609 N611 1.384 . S
N610 C606 1.427 . S
N610 C607 1.384 . S
N611 C603 1.427 . S
N611 C609 1.384 . S
H612 C618 0.930 . S
H613 C622 0.930 . S
H614 C627 0.929 . S
H615 C625 0.929 . S
H616 C620 0.929 . S
H617 C626 0.929 . S
C618 H612 0.930 . S
C618 C619 1.367 . S
C618 C626 1.378 . S
C619 C618 1.367 . S
C619 C627 1.433 . S
C620 H616 0.929 . S
C620 C622 1.378 . S
C620 C624 1.350 . S
C621 C624 1.463 . S
C621 C626 1.350 . S
C621 N629 1.427 . S
C622 H613 0.930 . S
C622 C620 1.378 . S
C622 C623 1.367 . S
C623 C622 1.367 . S
C623 C625 1.433 . S
C624 C620 1.350 . S
C624 C621 1.463 . S
C624 N628 1.427 . S
C625 H615 0.929 . S
C625 C623 1.433 . S
C625 N628 1.384 . S
C626 H617 0.929 . S
C626 C618 1.378 . S
C626 C621 1.350 . S
C627 H614 0.929 . S
C627 C619 1.433 . S
C627 N629 1.384 . S
N628 C624 1.427 . S
N628 C625 1.384 . S
N629 C621 1.427 . S
N629 C627 1.384 . S
H630 C636 0.930 . S
H631 C640 0.930 . S
H632 C645 0.929 . S
H633 C643 0.929 . S
H634 C638 0.929 . S
H635 C644 0.929 . S
C636 H630 0.930 . S
C636 C637 1.367 . S
C636 C644 1.378 . S
C637 C636 1.367 . S
C637 C645 1.433 . S
C638 H634 0.929 . S
C638 C640 1.378 . S
C638 C642 1.350 . S
C639 C642 1.463 1_455 S
C639 C644 1.350 . S
C639 N647 1.427 . S
C640 H631 0.930 . S
C640 C638 1.378 . S
C640 C641 1.367 . S
C641 C640 1.367 . S
C641 C643 1.433 . S
C642 C638 1.350 . S
C642 C639 1.463 1_655 S
C642 N646 1.427 . S
C643 H633 0.929 . S
C643 C641 1.433 . S
C643 N646 1.384 . S
C644 H635 0.929 . S
C644 C636 1.378 . S
C644 C639 1.350 . S
C645 H632 0.929 . S
C645 C637 1.433 . S
C645 N647 1.384 . S
N646 C642 1.427 . S
N646 C643 1.384 . S
N647 C639 1.427 . S
N647 C645 1.384 . S
H648 C654 0.930 . S
H649 C658 0.930 . S
H650 C663 0.929 . S
H651 C661 0.929 . S
H652 C656 0.929 . S
H653 C662 0.929 . S
C654 H648 0.930 . S
C654 C655 1.367 . S
C654 C662 1.378 . S
C655 C654 1.367 . S
C655 C663 1.433 . S
C656 H652 0.929 . S
C656 C658 1.378 . S
C656 C660 1.350 . S
C657 C660 1.463 . S
C657 C662 1.350 . S
C657 N665 1.427 . S
C658 H649 0.930 . S
C658 C656 1.378 . S
C658 C659 1.367 . S
C659 C658 1.367 . S
C659 C661 1.433 . S
C660 C656 1.350 . S
C660 C657 1.463 . S
C660 N664 1.427 . S
C661 H651 0.929 . S
C661 C659 1.433 . S
C661 N664 1.384 . S
C662 H653 0.929 . S
C662 C654 1.378 . S
C662 C657 1.350 . S
C663 H650 0.929 . S
C663 C655 1.433 . S
C663 N665 1.384 . S
N664 C660 1.427 . S
N664 C661 1.384 . S
N665 C657 1.427 . S
N665 C663 1.384 . S
H666 C672 0.930 . S
H667 C676 0.930 . S
H668 C681 0.929 . S
H669 C679 0.930 . S
H670 C674 0.929 . S
H671 C680 0.929 . S
C672 H666 0.930 . S
C672 C673 1.367 . S
C672 C680 1.378 . S
C673 C672 1.367 . S
C673 C681 1.433 . S
C674 H670 0.929 . S
C674 C676 1.378 1_655 S
C674 C678 1.350 . S
C675 C678 1.463 . S
C675 C680 1.350 . S
C675 N683 1.427 . S
C676 H667 0.930 . S
C676 C674 1.378 1_455 S
C676 C677 1.367 . S
C677 C676 1.367 . S
C677 C679 1.433 1_455 S
C678 C674 1.350 . S
C678 C675 1.463 . S
C678 N682 1.427 . S
C679 H669 0.930 . S
C679 C677 1.433 1_655 S
C679 N682 1.384 . S
C680 H671 0.929 . S
C680 C672 1.378 . S
C680 C675 1.350 . S
C681 H668 0.929 . S
C681 C673 1.433 . S
C681 N683 1.384 . S
N682 C678 1.427 . S
N682 C679 1.384 . S
N683 C675 1.427 . S
N683 C681 1.384 . S
H684 C690 0.930 . S
H685 C694 0.930 . S
H686 C699 0.929 . S
H687 C697 0.929 . S
H688 C692 0.929 . S
H689 C698 0.929 . S
C690 H684 0.930 . S
C690 C691 1.367 . S
C690 C698 1.378 . S
C691 C690 1.367 . S
C691 C699 1.433 . S
C692 H688 0.929 . S
C692 C694 1.378 . S
C692 C696 1.350 . S
C693 C696 1.463 . S
C693 C698 1.350 . S
C693 N701 1.427 . S
C694 H685 0.930 . S
C694 C692 1.378 . S
C694 C695 1.367 . S
C695 C694 1.367 . S
C695 C697 1.433 . S
C696 C692 1.350 . S
C696 C693 1.463 . S
C696 N700 1.427 . S
C697 H687 0.929 . S
C697 C695 1.433 . S
C697 N700 1.384 . S
C698 H689 0.929 . S
C698 C690 1.378 . S
C698 C693 1.350 . S
C699 H686 0.929 . S
C699 C691 1.433 . S
C699 N701 1.384 . S
N700 C696 1.427 . S
N700 C697 1.384 . S
N701 C693 1.427 . S
N701 C699 1.384 . S
H702 C708 0.930 . S
H703 C712 0.930 . S
H704 C717 0.929 . S
H705 C715 0.929 . S
H706 C710 0.929 . S
H707 C716 0.929 . S
C708 H702 0.930 . S
C708 C709 1.367 . S
C708 C716 1.378 . S
C709 C708 1.367 . S
C709 C717 1.433 . S
C710 H706 0.929 . S
C710 C712 1.378 . S
C710 C714 1.350 . S
C711 C714 1.463 . S
C711 C716 1.350 . S
C711 N719 1.427 . S
C712 H703 0.930 . S
C712 C710 1.378 . S
C712 C713 1.367 . S
C713 C712 1.367 . S
C713 C715 1.433 . S
C714 C710 1.350 . S
C714 C711 1.463 . S
C714 N718 1.427 . S
C715 H705 0.929 . S
C715 C713 1.433 . S
C715 N718 1.384 . S
C716 H707 0.929 . S
C716 C708 1.378 . S
C716 C711 1.350 . S
C717 H704 0.929 . S
C717 C709 1.433 . S
C717 N719 1.384 . S
N718 C714 1.427 . S
N718 C715 1.384 . S
N719 C711 1.427 . S
N719 C717 1.384 . S
H720 C726 0.930 . S
H721 C730 0.930 . S
H722 C735 0.929 . S
H723 C733 0.929 . S
H724 C728 0.929 . S
H725 C734 0.929 . S
C726 H720 0.930 . S
C726 C727 1.367 . S
C726 C734 1.378 . S
C727 C726 1.367 . S
C727 C735 1.433 . S
C728 H724 0.929 . S
C728 C730 1.378 . S
C728 C732 1.350 . S
C729 C732 1.463 . S
C729 C734 1.350 . S
C729 N737 1.427 . S
C730 H721 0.930 . S
C730 C728 1.378 . S
C730 C731 1.367 . S
C731 C730 1.367 . S
C731 C733 1.433 . S
C732 C728 1.350 . S
C732 C729 1.463 . S
C732 N736 1.427 . S
C733 H723 0.929 . S
C733 C731 1.433 . S
C733 N736 1.384 . S
C734 H725 0.929 . S
C734 C726 1.378 . S
C734 C729 1.350 . S
C735 H722 0.929 . S
C735 C727 1.433 . S
C735 N737 1.384 . S
N736 C732 1.427 . S
N736 C733 1.384 . S
N737 C729 1.427 . S
N737 C735 1.384 . S
H738 C744 0.930 . S
H739 C748 0.930 . S
H740 C753 0.929 . S
H741 C751 0.929 . S
H742 C746 0.929 . S
H743 C752 0.929 . S
C744 H738 0.930 . S
C744 C745 1.367 . S
C744 C752 1.378 . S
C745 C744 1.367 . S
C745 C753 1.433 . S
C746 H742 0.929 . S
C746 C748 1.378 . S
C746 C750 1.350 . S
C747 C750 1.463 . S
C747 C752 1.350 . S
C747 N755 1.427 . S
C748 H739 0.930 . S
C748 C746 1.378 . S
C748 C749 1.367 . S
C749 C748 1.367 . S
C749 C751 1.433 . S
C750 C746 1.350 . S
C750 C747 1.463 . S
C750 N754 1.427 . S
C751 H741 0.929 . S
C751 C749 1.433 . S
C751 N754 1.384 . S
C752 H743 0.929 . S
C752 C744 1.378 . S
C752 C747 1.350 . S
C753 H740 0.929 . S
C753 C745 1.433 . S
C753 N755 1.384 . S
N754 C750 1.427 . S
N754 C751 1.384 . S
N755 C747 1.427 . S
N755 C753 1.384 . S
H756 C762 0.930 . S
H757 C766 0.930 . S
H758 C771 0.929 . S
H759 C769 0.929 . S
H760 C764 0.929 . S
H761 C770 0.929 . S
C762 H756 0.930 . S
C762 C763 1.367 . S
C762 C770 1.378 . S
C763 C762 1.367 . S
C763 C771 1.433 . S
C764 H760 0.929 . S
C764 C766 1.378 . S
C764 C768 1.350 . S
C765 C768 1.463 . S
C765 C770 1.350 . S
C765 N773 1.427 . S
C766 H757 0.930 . S
C766 C764 1.378 . S
C766 C767 1.367 . S
C767 C766 1.367 . S
C767 C769 1.433 . S
C768 C764 1.350 . S
C768 C765 1.463 . S
C768 N772 1.427 . S
C769 H759 0.929 . S
C769 C767 1.433 . S
C769 N772 1.384 . S
C770 H761 0.929 . S
C770 C762 1.378 . S
C770 C765 1.350 . S
C771 H758 0.929 . S
C771 C763 1.433 . S
C771 N773 1.384 . S
N772 C768 1.427 . S
N772 C769 1.384 . S
N773 C765 1.427 . S
N773 C771 1.384 . S
H774 C780 0.930 . S
H775 C784 0.930 . S
H776 C789 0.929 . S
H777 C787 0.929 . S
H778 C782 0.929 . S
H779 C788 0.929 . S
C780 H774 0.930 . S
C780 C781 1.367 . S
C780 C788 1.378 . S
C781 C780 1.367 . S
C781 C789 1.433 . S
C782 H778 0.929 . S
C782 C784 1.378 . S
C782 C786 1.350 . S
C783 C786 1.463 . S
C783 C788 1.350 . S
C783 N791 1.427 . S
C784 H775 0.930 . S
C784 C782 1.378 . S
C784 C785 1.367 . S
C785 C784 1.367 . S
C785 C787 1.433 . S
C786 C782 1.350 . S
C786 C783 1.463 . S
C786 N790 1.427 . S
C787 H777 0.929 . S
C787 C785 1.433 . S
C787 N790 1.384 . S
C788 H779 0.929 . S
C788 C780 1.378 . S
C788 C783 1.350 . S
C789 H776 0.929 . S
C789 C781 1.433 . S
C789 N791 1.384 . S
N790 C786 1.427 . S
N790 C787 1.384 . S
N791 C783 1.427 . S
N791 C789 1.384 . S
H792 C798 0.930 . S
H793 C802 0.930 . S
H794 C807 0.929 . S
H795 C805 0.929 . S
H796 C800 0.929 . S
H797 C806 0.929 . S
C798 H792 0.930 . S
C798 C799 1.367 . S
C798 C806 1.378 . S
C799 C798 1.367 . S
C799 C807 1.433 . S
C800 H796 0.929 . S
C800 C802 1.378 . S
C800 C804 1.350 . S
C801 C804 1.463 . S
C801 C806 1.350 . S
C801 N809 1.427 . S
C802 H793 0.930 . S
C802 C800 1.378 . S
C802 C803 1.367 . S
C803 C802 1.367 . S
C803 C805 1.433 . S
C804 C800 1.350 . S
C804 C801 1.463 . S
C804 N808 1.427 . S
C805 H795 0.929 . S
C805 C803 1.433 . S
C805 N808 1.384 . S
C806 H797 0.929 . S
C806 C798 1.378 . S
C806 C801 1.350 . S
C807 H794 0.929 . S
C807 C799 1.433 . S
C807 N809 1.384 . S
N808 C804 1.427 . S
N808 C805 1.384 . S
N809 C801 1.427 . S
N809 C807 1.384 . S
H810 C816 0.930 . S
H811 C820 0.930 . S
H812 C825 0.929 . S
H813 C823 0.929 . S
H814 C818 0.929 . S
H815 C824 0.929 . S
C816 H810 0.930 . S
C816 C817 1.367 . S
C816 C824 1.378 . S
C817 C816 1.367 . S
C817 C825 1.433 . S
C818 H814 0.929 . S
C818 C820 1.378 . S
C818 C822 1.350 . S
C819 C822 1.463 . S
C819 C824 1.350 . S
C819 N827 1.427 . S
C820 H811 0.930 . S
C820 C818 1.378 . S
C820 C821 1.367 . S
C821 C820 1.367 . S
C821 C823 1.433 . S
C822 C818 1.350 . S
C822 C819 1.463 . S
C822 N826 1.427 . S
C823 H813 0.929 . S
C823 C821 1.433 . S
C823 N826 1.384 . S
C824 H815 0.929 . S
C824 C816 1.378 . S
C824 C819 1.350 . S
C825 H812 0.929 . S
C825 C817 1.433 . S
C825 N827 1.384 . S
N826 C822 1.427 . S
N826 C823 1.384 . S
N827 C819 1.427 . S
N827 C825 1.384 . S
C403 C7 0.858 . S
C407 C100 0.883 . S
C421 C25 0.972 . S
C425 C139 0.969 . S
C439 C46 1.087 . S
C443 C178 1.052 . S
C461 C202 0.706 . S
C457 C70 0.736 . S
C479 C241 0.668 . S
C475 C28 0.692 . S
C493 C49 1.063 . S
C497 C280 1.064 . S
C511 C67 0.967 . S
C515 C334 0.989 . S
C529 C4 0.868 . S
C533 C358 0.924 . S
C547 C58 1.704 . S
C551 C373 1.820 . S
C569 C256 1.670 . S
C565 C66 1.633 . S
C587 C295 1.979 . S
C583 C3 1.975 . S
C601 C37 1.700 . S
C605 C319 1.812 . S
C623 C124 1.820 . S
C619 C79 1.707 . S
C637 C16 1.951 . S
C641 C163 1.969 . S
C659 C217 1.697 . S
C655 C24 1.682 . S
C677 C85 1.771 . S
C673 C45 1.669 . S
C695 C339 1.293 . S
C691 C19 1.121 . S
C713 C378 1.261 . S
C709 C41 1.210 . S
C727 C62 0.929 . S
C731 C261 0.992 . S
C749 C300 1.497 . S
C745 C82 1.280 . S
C767 C183 1.514 . S
C763 C40 1.267 . S
C781 C61 0.958 . S
C785 C222 1.044 . S
C803 C105 1.243 . S
C799 C83 1.164 . S
C821 C144 1.301 . S
C817 C20 1.165 . S
