# Generated by pormake.
# Topology eea, (3,6)-cn, num edge types: 1
# Building blocks:
#     Node 0, Type 0, BuildingBlock: KAKCAD_clean_linker_0, # of connection points: 3
#     Node 1, Type 0, BuildingBlock: KAKCAD_clean_linker_0, # of connection points: 3
#     Node 2, Type 0, BuildingBlock: KAKCAD_clean_linker_0, # of connection points: 3
#     Node 3, Type 0, BuildingBlock: KAKCAD_clean_linker_0, # of connection points: 3
#     Node 4, Type 0, BuildingBlock: KAKCAD_clean_linker_0, # of connection points: 3
#     Node 5, Type 0, BuildingBlock: KAKCAD_clean_linker_0, # of connection points: 3
#     Node 6, Type 0, BuildingBlock: KAKCAD_clean_linker_0, # of connection points: 3
#     Node 7, Type 0, BuildingBlock: KAKCAD_clean_linker_0, # of connection points: 3
#     Node 8, Type 0, BuildingBlock: KAKCAD_clean_linker_0, # of connection points: 3
#     Node 9, Type 0, BuildingBlock: KAKCAD_clean_linker_0, # of connection points: 3
#     Node 10, Type 0, BuildingBlock: KAKCAD_clean_linker_0, # of connection points: 3
#     Node 11, Type 0, BuildingBlock: KAKCAD_clean_linker_0, # of connection points: 3
#     Node 12, Type 0, BuildingBlock: KAKCAD_clean_linker_0, # of connection points: 3
#     Node 13, Type 0, BuildingBlock: KAKCAD_clean_linker_0, # of connection points: 3
#     Node 14, Type 0, BuildingBlock: KAKCAD_clean_linker_0, # of connection points: 3
#     Node 15, Type 0, BuildingBlock: KAKCAD_clean_linker_0, # of connection points: 3
#     Node 16, Type 0, BuildingBlock: KAKCAD_clean_linker_0, # of connection points: 3
#     Node 17, Type 0, BuildingBlock: KAKCAD_clean_linker_0, # of connection points: 3
#     Node 18, Type 1, BuildingBlock: HISSIN_clean_sbu_0, # of connection points: 6
#     Node 19, Type 1, BuildingBlock: HISSIN_clean_sbu_0, # of connection points: 6
#     Node 20, Type 1, BuildingBlock: HISSIN_clean_sbu_0, # of connection points: 6
#     Node 21, Type 1, BuildingBlock: HISSIN_clean_sbu_0, # of connection points: 6
#     Node 22, Type 1, BuildingBlock: HISSIN_clean_sbu_0, # of connection points: 6
#     Node 23, Type 1, BuildingBlock: HISSIN_clean_sbu_0, # of connection points: 6
#     Node 24, Type 1, BuildingBlock: HISSIN_clean_sbu_0, # of connection points: 6
#     Node 25, Type 1, BuildingBlock: HISSIN_clean_sbu_0, # of connection points: 6
#     Node 26, Type 1, BuildingBlock: HISSIN_clean_sbu_0, # of connection points: 6
#     Edge 27, Type (0, 1), BuildingBlock: CIFDUS_clean_linker_0, # of connection points: 2
#     Edge 28, Type (0, 1), BuildingBlock: CIFDUS_clean_linker_0, # of connection points: 2
#     Edge 29, Type (0, 1), BuildingBlock: CIFDUS_clean_linker_0, # of connection points: 2
#     Edge 30, Type (0, 1), BuildingBlock: CIFDUS_clean_linker_0, # of connection points: 2
#     Edge 31, Type (0, 1), BuildingBlock: CIFDUS_clean_linker_0, # of connection points: 2
#     Edge 32, Type (0, 1), BuildingBlock: CIFDUS_clean_linker_0, # of connection points: 2
#     Edge 33, Type (0, 1), BuildingBlock: CIFDUS_clean_linker_0, # of connection points: 2
#     Edge 34, Type (0, 1), BuildingBlock: CIFDUS_clean_linker_0, # of connection points: 2
#     Edge 35, Type (0, 1), BuildingBlock: CIFDUS_clean_linker_0, # of connection points: 2
#     Edge 36, Type (0, 1), BuildingBlock: CIFDUS_clean_linker_0, # of connection points: 2
#     Edge 37, Type (0, 1), BuildingBlock: CIFDUS_clean_linker_0, # of connection points: 2
#     Edge 38, Type (0, 1), BuildingBlock: CIFDUS_clean_linker_0, # of connection points: 2
#     Edge 39, Type (0, 1), BuildingBlock: CIFDUS_clean_linker_0, # of connection points: 2
#     Edge 40, Type (0, 1), BuildingBlock: CIFDUS_clean_linker_0, # of connection points: 2
#     Edge 41, Type (0, 1), BuildingBlock: CIFDUS_clean_linker_0, # of connection points: 2
#     Edge 42, Type (0, 1), BuildingBlock: CIFDUS_clean_linker_0, # of connection points: 2
#     Edge 43, Type (0, 1), BuildingBlock: CIFDUS_clean_linker_0, # of connection points: 2
#     Edge 44, Type (0, 1), BuildingBlock: CIFDUS_clean_linker_0, # of connection points: 2
#     Edge 45, Type (0, 1), BuildingBlock: CIFDUS_clean_linker_0, # of connection points: 2
#     Edge 46, Type (0, 1), BuildingBlock: CIFDUS_clean_linker_0, # of connection points: 2
#     Edge 47, Type (0, 1), BuildingBlock: CIFDUS_clean_linker_0, # of connection points: 2
#     Edge 48, Type (0, 1), BuildingBlock: CIFDUS_clean_linker_0, # of connection points: 2
#     Edge 49, Type (0, 1), BuildingBlock: CIFDUS_clean_linker_0, # of connection points: 2
#     Edge 50, Type (0, 1), BuildingBlock: CIFDUS_clean_linker_0, # of connection points: 2
#     Edge 51, Type (0, 1), BuildingBlock: CIFDUS_clean_linker_0, # of connection points: 2
#     Edge 52, Type (0, 1), BuildingBlock: CIFDUS_clean_linker_0, # of connection points: 2
#     Edge 53, Type (0, 1), BuildingBlock: CIFDUS_clean_linker_0, # of connection points: 2
#     Edge 54, Type (0, 1), BuildingBlock: CIFDUS_clean_linker_0, # of connection points: 2
#     Edge 55, Type (0, 1), BuildingBlock: CIFDUS_clean_linker_0, # of connection points: 2
#     Edge 56, Type (0, 1), BuildingBlock: CIFDUS_clean_linker_0, # of connection points: 2
#     Edge 57, Type (0, 1), BuildingBlock: CIFDUS_clean_linker_0, # of connection points: 2
#     Edge 58, Type (0, 1), BuildingBlock: CIFDUS_clean_linker_0, # of connection points: 2
#     Edge 59, Type (0, 1), BuildingBlock: CIFDUS_clean_linker_0, # of connection points: 2
#     Edge 60, Type (0, 1), BuildingBlock: CIFDUS_clean_linker_0, # of connection points: 2
#     Edge 61, Type (0, 1), BuildingBlock: CIFDUS_clean_linker_0, # of connection points: 2
#     Edge 62, Type (0, 1), BuildingBlock: CIFDUS_clean_linker_0, # of connection points: 2
#     Edge 63, Type (0, 1), BuildingBlock: CIFDUS_clean_linker_0, # of connection points: 2
#     Edge 64, Type (0, 1), BuildingBlock: CIFDUS_clean_linker_0, # of connection points: 2
#     Edge 65, Type (0, 1), BuildingBlock: CIFDUS_clean_linker_0, # of connection points: 2
#     Edge 66, Type (0, 1), BuildingBlock: CIFDUS_clean_linker_0, # of connection points: 2
#     Edge 67, Type (0, 1), BuildingBlock: CIFDUS_clean_linker_0, # of connection points: 2
#     Edge 68, Type (0, 1), BuildingBlock: CIFDUS_clean_linker_0, # of connection points: 2
#     Edge 69, Type (0, 1), BuildingBlock: CIFDUS_clean_linker_0, # of connection points: 2
#     Edge 70, Type (0, 1), BuildingBlock: CIFDUS_clean_linker_0, # of connection points: 2
#     Edge 71, Type (0, 1), BuildingBlock: CIFDUS_clean_linker_0, # of connection points: 2
#     Edge 72, Type (0, 1), BuildingBlock: CIFDUS_clean_linker_0, # of connection points: 2
#     Edge 73, Type (0, 1), BuildingBlock: CIFDUS_clean_linker_0, # of connection points: 2
#     Edge 74, Type (0, 1), BuildingBlock: CIFDUS_clean_linker_0, # of connection points: 2
#     Edge 75, Type (0, 1), BuildingBlock: CIFDUS_clean_linker_0, # of connection points: 2
#     Edge 76, Type (0, 1), BuildingBlock: CIFDUS_clean_linker_0, # of connection points: 2
#     Edge 77, Type (0, 1), BuildingBlock: CIFDUS_clean_linker_0, # of connection points: 2
#     Edge 78, Type (0, 1), BuildingBlock: CIFDUS_clean_linker_0, # of connection points: 2
#     Edge 79, Type (0, 1), BuildingBlock: CIFDUS_clean_linker_0, # of connection points: 2
#     Edge 80, Type (0, 1), BuildingBlock: CIFDUS_clean_linker_0, # of connection points: 2
# Relax obj value: 0.034
# Max RMSD: 0.133
# Mean RMSD: 0.079
data_MOF--net-eea--node1-HISSIN_clean_sbu_0--node2-KAKCAD_clean_linker_0--edge1-CIFDUS_clean_linker_0
_symmetry_space_group_name_H-M    P1
_symmetry_Int_Tables_number       1
_symmetry_cell_setting            triclinic
loop_
_symmetry_equiv_pos_as_xyz
'x, y, z'
_cell_length_a     56.428979
_cell_length_b     56.254359
_cell_length_c     82.060983
_cell_angle_alpha  93.647824
_cell_angle_beta   93.639383
_cell_angle_gamma 119.86047
loop_
_atom_site_label
_atom_site_type_symbol
_atom_site_fract_x
_atom_site_fract_y
_atom_site_fract_z
_atom_type_partial_charge
C0 C 0.33008 0.19264 0.48648 0.0
C1 C 0.34673 0.18182 0.49139 0.0
C2 C 0.31757 0.18666 0.47039 0.0
C3 C 0.3217 0.16998 0.45873 0.0
C4 C 0.33923 0.15999 0.46352 0.0
C5 C 0.35147 0.1657 0.47973 0.0
C6 C 0.30626 0.16168 0.44202 0.0
C7 C 0.30047 0.18002 0.43421 0.0
C8 C 0.28277 0.17129 0.41952 0.0
C9 C 0.27161 0.14406 0.41228 0.0
C10 C 0.27801 0.12581 0.41959 0.0
C11 C 0.29528 0.13467 0.43441 0.0
C12 C 0.2653 0.09686 0.41235 0.0
C13 C 0.23657 0.08024 0.40956 0.0
C14 C 0.28178 0.08544 0.40876 0.0
C15 C 0.26969 0.05775 0.40249 0.0
C16 C 0.24095 0.04097 0.40006 0.0
C17 C 0.27478 0.1902 0.41232 0.0
C18 C 0.26931 0.20745 0.4226 0.0
C19 C 0.27204 0.19083 0.39522 0.0
C20 C 0.26402 0.20837 0.38858 0.0
C21 C 0.25874 0.2257 0.39892 0.0
C22 C 0.26148 0.22504 0.41598 0.0
C23 C 0.22447 0.05241 0.40362 0.0
H24 H 0.32575 0.20477 0.49529 0.0
H25 H 0.30377 0.19425 0.4673 0.0
H26 H 0.34324 0.14747 0.45482 0.0
H27 H 0.36442 0.1573 0.48319 0.0
H28 H 0.30956 0.20116 0.43968 0.0
H29 H 0.29891 0.11997 0.4404 0.0
H30 H 0.25751 0.13682 0.40112 0.0
H31 H 0.2235 0.08863 0.41236 0.0
H32 H 0.30398 0.09795 0.41083 0.0
H33 H 0.28274 0.04926 0.3999 0.0
H34 H 0.27059 0.20703 0.4358 0.0
H35 H 0.27635 0.17799 0.38697 0.0
H36 H 0.20226 0.0398 0.40179 0.0
H37 H 0.25705 0.23779 0.42424 0.0
H38 H 0.26227 0.20864 0.37538 0.0
C39 C 0.87936 0.20228 0.48001 0.0
C40 C 0.87504 0.18541 0.49275 0.0
C41 C 0.8839 0.19456 0.46445 0.0
C42 C 0.8838 0.16966 0.46133 0.0
C43 C 0.88022 0.15323 0.47419 0.0
C44 C 0.87596 0.16103 0.48971 0.0
C45 C 0.88559 0.15969 0.44454 0.0
C46 C 0.90642 0.17669 0.43515 0.0
C47 C 0.90853 0.16631 0.41957 0.0
C48 C 0.88895 0.13909 0.41322 0.0
C49 C 0.86789 0.12208 0.42239 0.0
C50 C 0.86646 0.13249 0.43803 0.0
C51 C 0.84755 0.09327 0.41579 0.0
C52 C 0.83397 0.08725 0.39986 0.0
C53 C 0.84131 0.07166 0.42552 0.0
C54 C 0.82188 0.0445 0.41942 0.0
C55 C 0.80803 0.03838 0.40351 0.0
C56 C 0.93197 0.18314 0.41025 0.0
C57 C 0.93971 0.21054 0.40801 0.0
C58 C 0.9469 0.17172 0.40357 0.0
C59 C 0.96923 0.18739 0.39497 0.0
C60 C 0.97701 0.21476 0.39271 0.0
C61 C 0.9619 0.22614 0.39919 0.0
C62 C 0.81429 0.06013 0.39382 0.0
H63 H 0.87895 0.22128 0.48203 0.0
H64 H 0.88651 0.20754 0.45473 0.0
H65 H 0.88027 0.13404 0.47215 0.0
H66 H 0.87245 0.14744 0.49919 0.0
H67 H 0.92163 0.19751 0.44027 0.0
H68 H 0.85005 0.11945 0.44509 0.0
H69 H 0.89036 0.13097 0.40121 0.0
H70 H 0.83819 0.1036 0.39219 0.0
H71 H 0.85174 0.07573 0.43779 0.0
H72 H 0.81802 0.02828 0.42712 0.0
H73 H 0.92847 0.21979 0.41297 0.0
H74 H 0.94156 0.15074 0.40523 0.0
H75 H 0.80371 0.05631 0.38163 0.0
H76 H 0.9676 0.24727 0.39772 0.0
H77 H 0.98043 0.17805 0.39005 0.0
C78 C 0.88418 0.72232 0.49176 0.0
C79 C 0.85827 0.69885 0.49261 0.0
C80 C 0.89121 0.73388 0.47693 0.0
C81 C 0.87238 0.72239 0.4627 0.0
C82 C 0.84708 0.6983 0.46334 0.0
C83 C 0.84021 0.68654 0.47805 0.0
C84 C 0.87769 0.73693 0.44771 0.0
C85 C 0.90157 0.74422 0.43996 0.0
C86 C 0.90641 0.75837 0.4258 0.0
C87 C 0.8871 0.76566 0.4199 0.0
C88 C 0.86296 0.75809 0.42738 0.0
C89 C 0.85847 0.7437 0.44124 0.0
C90 C 0.84221 0.76493 0.42066 0.0
C91 C 0.85038 0.79112 0.41568 0.0
C92 C 0.814 0.74523 0.4192 0.0
C93 C 0.79444 0.75149 0.41279 0.0
C94 C 0.80259 0.77764 0.4077 0.0
C95 C 0.93109 0.76503 0.41692 0.0
C96 C 0.95621 0.7708 0.42536 0.0
C97 C 0.92969 0.76567 0.39976 0.0
C98 C 0.95269 0.77242 0.39139 0.0
C99 C 0.97777 0.77799 0.39977 0.0
C100 C 0.97908 0.77689 0.41691 0.0
C101 C 0.83082 0.79742 0.40931 0.0
H102 H 0.89858 0.73255 0.50269 0.0
H103 H 0.91078 0.75259 0.47677 0.0
H104 H 0.83231 0.6889 0.45249 0.0
H105 H 0.82042 0.66805 0.47806 0.0
H106 H 0.9158 0.73807 0.44474 0.0
H107 H 0.84022 0.73833 0.44733 0.0
H108 H 0.89061 0.77708 0.40932 0.0
H109 H 0.87191 0.80689 0.41688 0.0
H110 H 0.80705 0.72474 0.42273 0.0
H111 H 0.77294 0.73562 0.41149 0.0
H112 H 0.95843 0.77088 0.43856 0.0
H113 H 0.91072 0.76073 0.39261 0.0
H114 H 0.83782 0.81792 0.40579 0.0
H115 H 0.9977 0.78049 0.42389 0.0
H116 H 0.95067 0.77346 0.37829 0.0
C117 C 0.13777 0.25822 0.53135 0.0
C118 C 0.12857 0.27641 0.52735 0.0
C119 C 0.13314 0.247 0.54635 0.0
C120 C 0.1194 0.25389 0.55783 0.0
C121 C 0.11021 0.27212 0.55379 0.0
C122 C 0.11464 0.28315 0.53872 0.0
C123 C 0.11501 0.2424 0.574 0.0
C124 C 0.13542 0.23897 0.58244 0.0
C125 C 0.13164 0.2283 0.59769 0.0
C126 C 0.10726 0.22159 0.60469 0.0
C127 C 0.08638 0.22461 0.59651 0.0
C128 C 0.09045 0.23488 0.58109 0.0
C129 C 0.06042 0.21698 0.60413 0.0
C130 C 0.04944 0.19505 0.61395 0.0
C131 C 0.04666 0.23184 0.60197 0.0
C132 C 0.02279 0.22508 0.60947 0.0
C133 C 0.01223 0.2036 0.61963 0.0
C134 C 0.15277 0.22346 0.60619 0.0
C135 C 0.16602 0.21218 0.59725 0.0
C136 C 0.15898 0.22892 0.62336 0.0
C137 C 0.17727 0.22246 0.63144 0.0
C138 C 0.18995 0.21055 0.62255 0.0
C139 C 0.18445 0.20587 0.60534 0.0
C140 C 0.02597 0.1887 0.62172 0.0
H141 H 0.14821 0.25231 0.52275 0.0
H142 H 0.14008 0.23265 0.54886 0.0
H143 H 0.09998 0.2783 0.5624 0.0
H144 H 0.10758 0.29736 0.53608 0.0
H145 H 0.15462 0.24515 0.5773 0.0
H146 H 0.07422 0.23642 0.57436 0.0
H147 H 0.10453 0.21377 0.61656 0.0
H148 H 0.05891 0.1826 0.61567 0.0
H149 H 0.0545 0.24906 0.59469 0.0
H150 H 0.01264 0.23676 0.6072 0.0
H151 H 0.16149 0.2074 0.58404 0.0
H152 H 0.14962 0.23811 0.63061 0.0
H153 H 0.01892 0.17228 0.62959 0.0
H154 H 0.19371 0.19648 0.59816 0.0
H155 H 0.18146 0.22677 0.64469 0.0
C156 C 0.67681 0.82728 0.54222 0.0
C157 C 0.69233 0.84874 0.53275 0.0
C158 C 0.68482 0.82966 0.55902 0.0
C159 C 0.70833 0.8536 0.56661 0.0
C160 C 0.72422 0.87463 0.55704 0.0
C161 C 0.71636 0.8722 0.54032 0.0
C162 C 0.71622 0.85737 0.58453 0.0
C163 C 0.71828 0.83697 0.59244 0.0
C164 C 0.72863 0.84208 0.60912 0.0
C165 C 0.7359 0.8674 0.618 0.0
C166 C 0.73373 0.88779 0.61021 0.0
C167 C 0.7237 0.88255 0.59356 0.0
C168 C 0.7439 0.9154 0.61899 0.0
C169 C 0.73518 0.91857 0.63421 0.0
C170 C 0.76235 0.9389 0.61196 0.0
C171 C 0.77163 0.96515 0.61983 0.0
C172 C 0.76239 0.96854 0.63485 0.0
C173 C 0.73465 0.82229 0.61679 0.0
C174 C 0.71522 0.79399 0.61502 0.0
C175 C 0.76063 0.83167 0.62532 0.0
C176 C 0.76728 0.8131 0.63171 0.0
C177 C 0.748 0.78469 0.62987 0.0
C178 C 0.72176 0.77537 0.62159 0.0
C179 C 0.74423 0.94494 0.64204 0.0
H180 H 0.65813 0.80899 0.53675 0.0
H181 H 0.67222 0.81318 0.56617 0.0
H182 H 0.74279 0.89305 0.56253 0.0
H183 H 0.72917 0.88878 0.5333 0.0
H184 H 0.71349 0.81786 0.58538 0.0
H185 H 0.72205 0.89836 0.58753 0.0
H186 H 0.74426 0.87166 0.6308 0.0
H187 H 0.72089 0.90068 0.63983 0.0
H188 H 0.76975 0.93693 0.60037 0.0
H189 H 0.78618 0.9828 0.61416 0.0
H190 H 0.69499 0.78629 0.60855 0.0
H191 H 0.77618 0.85334 0.6266 0.0
H192 H 0.73655 0.94682 0.65352 0.0
H193 H 0.70628 0.75369 0.62015 0.0
H194 H 0.78787 0.821 0.63767 0.0
C195 C 0.10951 0.81885 0.53637 0.0
C196 C 0.13627 0.82571 0.53329 0.0
C197 C 0.10402 0.82366 0.55225 0.0
C198 C 0.12518 0.83525 0.56535 0.0
C199 C 0.15168 0.84104 0.56231 0.0
C200 C 0.15719 0.83644 0.54645 0.0
C201 C 0.12017 0.84269 0.58196 0.0
C202 C 0.09583 0.82535 0.58871 0.0
C203 C 0.09113 0.83285 0.60435 0.0
C204 C 0.11136 0.85774 0.6133 0.0
C205 C 0.13548 0.87562 0.6066 0.0
C206 C 0.13964 0.86791 0.59092 0.0
C207 C 0.15583 0.90284 0.61565 0.0
C208 C 0.14696 0.91839 0.62479 0.0
C209 C 0.1842 0.91387 0.61484 0.0
C210 C 0.20316 0.94001 0.62273 0.0
C211 C 0.19416 0.95545 0.63177 0.0
C212 C 0.06481 0.81529 0.61118 0.0
C213 C 0.052 0.78637 0.60898 0.0
C214 C 0.05211 0.82747 0.61985 0.0
C215 C 0.02727 0.81118 0.62617 0.0
C216 C 0.01439 0.78232 0.62383 0.0
C217 C 0.02699 0.77005 0.61519 0.0
C218 C 0.16594 0.94434 0.63285 0.0
H219 H 0.09305 0.81072 0.52641 0.0
H220 H 0.08346 0.81923 0.55413 0.0
H221 H 0.1683 0.84943 0.57218 0.0
H222 H 0.1779 0.84147 0.54446 0.0
H223 H 0.08043 0.80618 0.58171 0.0
H224 H 0.1577 0.88203 0.58539 0.0
H225 H 0.10834 0.86317 0.62559 0.0
H226 H 0.12528 0.91084 0.62542 0.0
H227 H 0.1918 0.90228 0.60816 0.0
H228 H 0.22488 0.94808 0.62188 0.0
H229 H 0.0614 0.77631 0.60259 0.0
H230 H 0.06108 0.84966 0.6215 0.0
H231 H 0.15851 0.95603 0.63961 0.0
H232 H 0.01761 0.74782 0.61335 0.0
H233 H 0.0178 0.82116 0.63257 0.0
C234 C 0.99975 0.52857 0.81647 0.0
C235 C 0.01864 0.52039 0.82151 0.0
C236 C 0.99051 0.5255 0.79989 0.0
C237 C 1.0001 0.51436 0.78793 0.0
C238 C 0.02004 0.50748 0.79289 0.0
C239 C 0.0292 0.51043 0.80951 0.0
C240 C 0.98747 0.50774 0.77061 0.0
C241 C 0.98006 0.52536 0.76334 0.0
C242 C 0.96434 0.51728 0.74793 0.0
C243 C 0.95781 0.49199 0.73929 0.0
C244 C 0.96548 0.47423 0.74621 0.0
C245 C 0.98012 0.4823 0.76195 0.0
C246 C 0.95634 0.44633 0.73772 0.0
C247 C 0.93061 0.43113 0.72826 0.0
C248 C 0.97269 0.43407 0.73966 0.0
C249 C 0.96307 0.40699 0.73296 0.0
C250 C 0.93711 0.39162 0.72375 0.0
C251 C 0.95231 0.53374 0.74167 0.0
C252 C 0.94331 0.54702 0.75267 0.0
C253 C 0.94776 0.53465 0.72473 0.0
C254 C 0.93352 0.54739 0.71893 0.0
C255 C 0.92394 0.56006 0.72995 0.0
C256 C 0.92964 0.56026 0.7469 0.0
C257 C 0.92132 0.40435 0.72118 0.0
H258 H 0.9916 0.53678 0.8254 0.0
H259 H 0.97494 0.53076 0.79655 0.0
H260 H 0.02806 0.49915 0.78394 0.0
H261 H 0.04372 0.50388 0.81301 0.0
H262 H 0.98597 0.54514 0.76994 0.0
H263 H 0.98446 0.46805 0.76793 0.0
H264 H 0.94582 0.48561 0.72739 0.0
H265 H 0.91713 0.43951 0.72662 0.0
H266 H 0.99285 0.44524 0.74658 0.0
H267 H 0.9758 0.39798 0.73539 0.0
H268 H 0.94594 0.54648 0.7658 0.0
H269 H 0.95478 0.52511 0.71586 0.0
H270 H 0.90155 0.39356 0.71383 0.0
H271 H 0.92324 0.57035 0.7558 0.0
H272 H 0.9294 0.54658 0.70578 0.0
C273 C 0.54472 0.51434 0.82241 0.0
C274 C 0.5414 0.49573 0.83397 0.0
C275 C 0.55076 0.51011 0.80656 0.0
C276 C 0.5533 0.48708 0.80196 0.0
C277 C 0.55131 0.46928 0.81369 0.0
C278 C 0.54565 0.47366 0.82955 0.0
C279 C 0.55513 0.47995 0.78459 0.0
C280 C 0.57564 0.49897 0.7758 0.0
C281 C 0.57671 0.49203 0.75912 0.0
C282 C 0.55611 0.46609 0.75134 0.0
C283 C 0.53627 0.44671 0.76019 0.0
C284 C 0.5359 0.4537 0.77678 0.0
C285 C 0.51694 0.41855 0.75231 0.0
C286 C 0.50024 0.41428 0.73773 0.0
C287 C 0.51599 0.39582 0.75905 0.0
C288 C 0.49903 0.36923 0.75115 0.0
C289 C 0.48238 0.36493 0.73656 0.0
C290 C 0.59983 0.51093 0.74999 0.0
C291 C 0.61327 0.53975 0.7537 0.0
C292 C 0.60906 0.50012 0.73756 0.0
C293 C 0.63059 0.51746 0.72895 0.0
C294 C 0.64443 0.54623 0.73286 0.0
C295 C 0.63547 0.55711 0.74542 0.0
C296 C 0.48282 0.38758 0.73 0.0
H297 H 0.54143 0.53144 0.82533 0.0
H298 H 0.55203 0.52401 0.79766 0.0
H299 H 0.5535 0.45154 0.81046 0.0
H300 H 0.54402 0.45936 0.83824 0.0
H301 H 0.59118 0.51865 0.78221 0.0
H302 H 0.52024 0.43878 0.78355 0.0
H303 H 0.55579 0.46043 0.73843 0.0
H304 H 0.5007 0.43158 0.73235 0.0
H305 H 0.52887 0.39872 0.77022 0.0
H306 H 0.49888 0.35198 0.75643 0.0
H307 H 0.60672 0.54907 0.76299 0.0
H308 H 0.6 0.47811 0.73451 0.0
H309 H 0.47017 0.38466 0.71872 0.0
H310 H 0.64575 0.57908 0.74909 0.0
H311 H 0.63622 0.50806 0.71917 0.0
C312 C 0.56758 0.07783 0.83146 0.0
C313 C 0.54151 0.05567 0.8336 0.0
C314 C 0.57286 0.08863 0.81634 0.0
C315 C 0.55215 0.07771 0.80303 0.0
C316 C 0.52607 0.0557 0.80516 0.0
C317 C 0.52084 0.04475 0.82022 0.0
C318 C 0.5577 0.08908 0.78692 0.0
C319 C 0.582 0.09478 0.7801 0.0
C320 C 0.58689 0.10463 0.76464 0.0
C321 C 0.56733 0.10907 0.75609 0.0
C322 C 0.54326 0.10432 0.76287 0.0
C323 C 0.53858 0.09411 0.77828 0.0
C324 C 0.52335 0.11042 0.75394 0.0
C325 C 0.5328 0.13327 0.74486 0.0
C326 C 0.49481 0.09348 0.7543 0.0
C327 C 0.47627 0.09914 0.74569 0.0
C328 C 0.48585 0.12162 0.73636 0.0
C329 C 0.61254 0.11067 0.75741 0.0
C330 C 0.63824 0.12651 0.76676 0.0
C331 C 0.61154 0.10142 0.74093 0.0
C332 C 0.63574 0.10805 0.73391 0.0
C333 C 0.66159 0.12439 0.74314 0.0
C334 C 0.66248 0.13343 0.75969 0.0
C335 C 0.51428 0.13866 0.73608 0.0
H336 H 0.58388 0.08712 0.84153 0.0
H337 H 0.59307 0.10582 0.81515 0.0
H338 H 0.50979 0.04658 0.79506 0.0
H339 H 0.50068 0.02738 0.82127 0.0
H340 H 0.59679 0.09081 0.7866 0.0
H341 H 0.52037 0.09074 0.78381 0.0
H342 H 0.57108 0.11651 0.74412 0.0
H343 H 0.55459 0.14722 0.7446 0.0
H344 H 0.4867 0.0755 0.76096 0.0
H345 H 0.45442 0.08554 0.746 0.0
H346 H 0.63964 0.13419 0.77944 0.0
H347 H 0.59198 0.08889 0.73349 0.0
H348 H 0.52222 0.15637 0.72918 0.0
H349 H 0.68194 0.14639 0.76714 0.0
H350 H 0.63411 0.10018 0.72125 0.0
C351 C 0.79423 0.58 0.86342 0.0
C352 C 0.79135 0.60225 0.859 0.0
C353 C 0.7898 0.57168 0.87919 0.0
C354 C 0.78212 0.58524 0.89087 0.0
C355 C 0.77889 0.60726 0.88639 0.0
C356 C 0.78358 0.61576 0.87066 0.0
C357 C 0.77815 0.57693 0.90781 0.0
C358 C 0.79723 0.57184 0.91641 0.0
C359 C 0.79431 0.56501 0.93261 0.0
C360 C 0.77196 0.56326 0.94022 0.0
C361 C 0.75202 0.56738 0.93171 0.0
C362 C 0.75548 0.57433 0.91547 0.0
C363 C 0.72754 0.56401 0.93972 0.0
C364 C 0.71603 0.54476 0.95117 0.0
C365 C 0.71537 0.57991 0.93603 0.0
C366 C 0.69237 0.57652 0.94345 0.0
C367 C 0.68113 0.55756 0.95509 0.0
C368 C 0.81438 0.55929 0.94155 0.0
C369 C 0.82253 0.54187 0.93389 0.0
C370 C 0.82507 0.57068 0.95789 0.0
C371 C 0.84344 0.56472 0.96639 0.0
C372 C 0.85141 0.54703 0.95881 0.0
C373 C 0.84071 0.53571 0.94243 0.0
C374 C 0.69348 0.54186 0.95888 0.0
H375 H 0.80038 0.5693 0.85475 0.0
H376 H 0.79227 0.55452 0.88223 0.0
H377 H 0.77321 0.61827 0.89515 0.0
H378 H 0.78095 0.63281 0.86759 0.0
H379 H 0.81485 0.57395 0.91065 0.0
H380 H 0.7402 0.57707 0.90854 0.0
H381 H 0.77007 0.55841 0.9528 0.0
H382 H 0.72423 0.53162 0.95417 0.0
H383 H 0.7237 0.59526 0.9275 0.0
H384 H 0.68334 0.58872 0.9399 0.0
H385 H 0.81436 0.53249 0.92138 0.0
H386 H 0.81942 0.58444 0.96405 0.0
H387 H 0.68598 0.52739 0.96796 0.0
H388 H 0.84593 0.52162 0.93626 0.0
H389 H 0.85161 0.57424 0.97887 0.0
C390 C 0.355 0.15903 0.87339 0.0
C391 C 0.36958 0.17988 0.86332 0.0
C392 C 0.36434 0.1623 0.89005 0.0
C393 C 0.3882 0.18655 0.89688 0.0
C394 C 0.40336 0.20682 0.88674 0.0
C395 C 0.39429 0.20342 0.87011 0.0
C396 C 0.39605 0.19217 0.91479 0.0
C397 C 0.40269 0.17515 0.92342 0.0
C398 C 0.41161 0.18179 0.94039 0.0
C399 C 0.41265 0.20507 0.94862 0.0
C400 C 0.40651 0.22238 0.93999 0.0
C401 C 0.39815 0.21575 0.92312 0.0
C402 C 0.41119 0.24867 0.94827 0.0
C403 C 0.40089 0.24959 0.96328 0.0
C404 C 0.42704 0.27327 0.94137 0.0
C405 C 0.4329 0.29844 0.94943 0.0
C406 C 0.42275 0.29956 0.9645 0.0
C407 C 0.42172 0.16577 0.9493 0.0
C408 C 0.4093 0.13706 0.94561 0.0
C409 C 0.4445 0.17935 0.96138 0.0
C410 C 0.45444 0.16463 0.96964 0.0
C411 C 0.44223 0.13598 0.96585 0.0
C412 C 0.41953 0.12237 0.95371 0.0
C413 C 0.40648 0.27482 0.97128 0.0
H414 H 0.33581 0.14072 0.8686 0.0
H415 H 0.35228 0.14652 0.89774 0.0
H416 H 0.42199 0.22559 0.89178 0.0
H417 H 0.40645 0.21953 0.86264 0.0
H418 H 0.40219 0.15764 0.91673 0.0
H419 H 0.39334 0.22909 0.91639 0.0
H420 H 0.41923 0.21041 0.96168 0.0
H421 H 0.38849 0.23082 0.96878 0.0
H422 H 0.43562 0.27313 0.92995 0.0
H423 H 0.44604 0.31708 0.94403 0.0
H424 H 0.39162 0.12587 0.93649 0.0
H425 H 0.45504 0.20151 0.96434 0.0
H426 H 0.39806 0.27492 0.98277 0.0
H427 H 0.40984 0.10038 0.95025 0.0
H428 H 0.4717 0.1758 0.97904 0.0
C429 C 0.77206 0.15092 0.86454 0.0
C430 C 0.79957 0.15989 0.86199 0.0
C431 C 0.76541 0.15678 0.87987 0.0
C432 C 0.78613 0.17176 0.89297 0.0
C433 C 0.81346 0.17982 0.89056 0.0
C434 C 0.8201 0.17406 0.87528 0.0
C435 C 0.77972 0.18042 0.90882 0.0
C436 C 0.75638 0.16236 0.91615 0.0
C437 C 0.75028 0.17092 0.93104 0.0
C438 C 0.76853 0.19775 0.93877 0.0
C439 C 0.79208 0.21615 0.93166 0.0
C440 C 0.79705 0.2073 0.91653 0.0
C441 C 0.81138 0.2447 0.93981 0.0
C442 C 0.80185 0.25923 0.94936 0.0
C443 C 0.83963 0.25787 0.93793 0.0
C444 C 0.85758 0.28493 0.9449 0.0
C445 C 0.84809 0.29947 0.95448 0.0
C446 C 0.72451 0.15228 0.9383 0.0
C447 C 0.70007 0.13426 0.92812 0.0
C448 C 0.72375 0.15313 0.95544 0.0
C449 C 0.69913 0.13727 0.96216 0.0
C450 C 0.67459 0.11957 0.95197 0.0
C451 C 0.67558 0.11796 0.93486 0.0
C452 C 0.81997 0.286 0.95677 0.0
H453 H 0.75568 0.13963 0.85464 0.0
H454 H 0.74417 0.15037 0.88129 0.0
H455 H 0.82987 0.19103 0.90047 0.0
H456 H 0.84153 0.18156 0.87378 0.0
H457 H 0.7432 0.14149 0.91033 0.0
H458 H 0.81418 0.22162 0.91041 0.0
H459 H 0.76422 0.20444 0.95028 0.0
H460 H 0.78028 0.2502 0.95098 0.0
H461 H 0.8481 0.24735 0.93104 0.0
H462 H 0.87886 0.29445 0.94251 0.0
H463 H 0.69959 0.13313 0.91488 0.0
H464 H 0.74216 0.16621 0.96376 0.0
H465 H 0.81175 0.29602 0.96434 0.0
H466 H 0.65738 0.10418 0.92655 0.0
H467 H 0.69936 0.13945 0.97538 0.0
C468 C 0.6566 0.86311 0.14522 0.0
C469 C 0.67252 0.85325 0.15286 0.0
C470 C 0.65117 0.85974 0.12814 0.0
C471 C 0.66181 0.84671 0.11827 0.0
C472 C 0.67898 0.83824 0.12586 0.0
C473 C 0.68412 0.84129 0.14295 0.0
C474 C 0.65288 0.83963 0.10033 0.0
C475 C 0.64833 0.85744 0.09112 0.0
C476 C 0.63576 0.84898 0.07483 0.0
C477 C 0.62969 0.82304 0.06741 0.0
C478 C 0.6347 0.80514 0.07631 0.0
C479 C 0.64606 0.81361 0.09279 0.0
C480 C 0.62571 0.7766 0.06908 0.0
C481 C 0.60096 0.76127 0.0587 0.0
C482 C 0.64087 0.76381 0.07337 0.0
C483 C 0.63088 0.73606 0.06807 0.0
C484 C 0.60571 0.72051 0.0581 0.0
C485 C 0.62599 0.86565 0.06632 0.0
C486 C 0.61525 0.87958 0.07528 0.0
C487 C 0.62518 0.86607 0.04916 0.0
C488 C 0.61284 0.87905 0.04114 0.0
C489 C 0.60132 0.89215 0.05012 0.0
C490 C 0.6034 0.89288 0.06733 0.0
C491 C 0.59126 0.7337 0.05315 0.0
H492 H 0.64779 0.87292 0.15245 0.0
H493 H 0.63763 0.86629 0.12275 0.0
H494 H 0.68785 0.8285 0.11862 0.0
H495 H 0.6963 0.83324 0.14836 0.0
H496 H 0.65386 0.87768 0.09683 0.0
H497 H 0.64805 0.79919 0.10009 0.0
H498 H 0.61998 0.81626 0.0549 0.0
H499 H 0.58848 0.77019 0.05527 0.0
H500 H 0.66026 0.7751 0.08111 0.0
H501 H 0.64256 0.72664 0.07221 0.0
H502 H 0.61501 0.87944 0.08846 0.0
H503 H 0.63362 0.85596 0.04186 0.0
H504 H 0.57215 0.72264 0.04513 0.0
H505 H 0.59544 0.9034 0.07472 0.0
H506 H 0.61161 0.87805 0.02787 0.0
C507 C 0.21178 0.85492 0.1558 0.0
C508 C 0.19991 0.8346 0.16655 0.0
C509 C 0.21914 0.8487 0.14077 0.0
C510 C 0.21492 0.82215 0.1364 0.0
C511 C 0.20451 0.80251 0.1477 0.0
C512 C 0.19688 0.80858 0.1625 0.0
C513 C 0.21982 0.814 0.11989 0.0
C514 C 0.2431 0.8316 0.11233 0.0
C515 C 0.24804 0.82269 0.09714 0.0
C516 C 0.22947 0.79585 0.08962 0.0
C517 C 0.20596 0.77814 0.09693 0.0
C518 C 0.2011 0.78773 0.11182 0.0
C519 C 0.18662 0.7494 0.08936 0.0
C520 C 0.18007 0.74316 0.07223 0.0
C521 C 0.17419 0.72793 0.09936 0.0
C522 C 0.15521 0.70114 0.09249 0.0
C523 C 0.14847 0.69486 0.07539 0.0
C524 C 0.27277 0.84117 0.08918 0.0
C525 C 0.2808 0.86906 0.08859 0.0
C526 C 0.28832 0.83096 0.08191 0.0
C527 C 0.31136 0.84825 0.07424 0.0
C528 C 0.31942 0.87616 0.07366 0.0
C529 C 0.30381 0.88633 0.08089 0.0
C530 C 0.16135 0.71619 0.06533 0.0
H531 H 0.21433 0.87517 0.15874 0.0
H532 H 0.22711 0.86428 0.13235 0.0
H533 H 0.20176 0.78214 0.14497 0.0
H534 H 0.18824 0.79275 0.17074 0.0
H535 H 0.25781 0.85183 0.11851 0.0
H536 H 0.18243 0.77464 0.11719 0.0
H537 H 0.23342 0.78874 0.07809 0.0
H538 H 0.18905 0.75916 0.06414 0.0
H539 H 0.17911 0.73176 0.11258 0.0
H540 H 0.14552 0.68545 0.10069 0.0
H541 H 0.26903 0.87744 0.09386 0.0
H542 H 0.28291 0.80967 0.08236 0.0
H543 H 0.15708 0.7121 0.05208 0.0
H544 H 0.30919 0.90762 0.08046 0.0
H545 H 0.32317 0.83985 0.06904 0.0
C546 C 0.2225 0.40217 0.16241 0.0
C547 C 0.19532 0.38305 0.1649 0.0
C548 C 0.22873 0.41177 0.14702 0.0
C549 C 0.20791 0.4022 0.13378 0.0
C550 C 0.18097 0.38218 0.13621 0.0
C551 C 0.17473 0.37291 0.15159 0.0
C552 C 0.21374 0.41347 0.11761 0.0
C553 C 0.2382 0.41965 0.11085 0.0
C554 C 0.24301 0.4295 0.09535 0.0
C555 C 0.22279 0.43273 0.08648 0.0
C556 C 0.19836 0.42709 0.09312 0.0
C557 C 0.19439 0.41796 0.1088 0.0
C558 C 0.17696 0.43087 0.08391 0.0
C559 C 0.18428 0.45245 0.07397 0.0
C560 C 0.14888 0.4132 0.08535 0.0
C561 C 0.12883 0.41752 0.07756 0.0
C562 C 0.13611 0.43927 0.06776 0.0
C563 C 0.26927 0.43676 0.08848 0.0
C564 C 0.2945 0.45238 0.09836 0.0
C565 C 0.2694 0.42868 0.07193 0.0
C566 C 0.29419 0.43611 0.06541 0.0
C567 C 0.3195 0.45197 0.07525 0.0
C568 C 0.3193 0.45999 0.09183 0.0
C569 C 0.16414 0.45644 0.0659 0.0
H570 H 0.23874 0.41037 0.17251 0.0
H571 H 0.24965 0.4273 0.14564 0.0
H572 H 0.16453 0.37372 0.12622 0.0
H573 H 0.1537 0.35778 0.15309 0.0
H574 H 0.25327 0.4162 0.11746 0.0
H575 H 0.1763 0.4148 0.11438 0.0
H576 H 0.22626 0.43985 0.07444 0.0
H577 H 0.20563 0.46668 0.07264 0.0
H578 H 0.14226 0.39595 0.09256 0.0
H579 H 0.10761 0.40401 0.07953 0.0
H580 H 0.29511 0.45926 0.1111 0.0
H581 H 0.25027 0.41634 0.06404 0.0
H582 H 0.17065 0.47306 0.05819 0.0
H583 H 0.33834 0.47259 0.09973 0.0
H584 H 0.29346 0.42911 0.05269 0.0
C585 C 0.4736 0.93277 0.20013 0.0
C586 C 0.46741 0.95339 0.19671 0.0
C587 C 0.46728 0.92052 0.21475 0.0
C588 C 0.45469 0.92861 0.2264 0.0
C589 C 0.44846 0.94921 0.22299 0.0
C590 C 0.45472 0.96143 0.20834 0.0
C591 C 0.44821 0.91563 0.24205 0.0
C592 C 0.46666 0.90935 0.25039 0.0
C593 C 0.46068 0.89683 0.26503 0.0
C594 C 0.43577 0.89023 0.27126 0.0
C595 C 0.41711 0.89633 0.26314 0.0
C596 C 0.42353 0.90924 0.24865 0.0
C597 C 0.39068 0.88874 0.26972 0.0
C598 C 0.37254 0.86127 0.27226 0.0
C599 C 0.38364 0.90891 0.27374 0.0
C600 C 0.35908 0.90179 0.2805 0.0
C601 C 0.34087 0.87428 0.28296 0.0
C602 C 0.48055 0.89078 0.27386 0.0
C603 C 0.4922 0.87735 0.26538 0.0
C604 C 0.48804 0.89847 0.29083 0.0
C605 C 0.50693 0.89301 0.29915 0.0
C606 C 0.51852 0.87936 0.29074 0.0
C607 C 0.51079 0.87153 0.27373 0.0
C608 C 0.34771 0.85404 0.27865 0.0
H609 H 0.48367 0.92627 0.19159 0.0
H610 H 0.47208 0.90449 0.21684 0.0
H611 H 0.43902 0.95617 0.23174 0.0
H612 H 0.44937 0.97702 0.20606 0.0
H613 H 0.48609 0.91484 0.24573 0.0
H614 H 0.40883 0.91346 0.24227 0.0
H615 H 0.43084 0.88028 0.28244 0.0
H616 H 0.37753 0.84536 0.26921 0.0
H617 H 0.39738 0.93025 0.27194 0.0
H618 H 0.35419 0.91772 0.2837 0.0
H619 H 0.48655 0.87093 0.25232 0.0
H620 H 0.47962 0.90915 0.29764 0.0
H621 H 0.33405 0.83272 0.28051 0.0
H622 H 0.51878 0.86051 0.26685 0.0
H623 H 0.5127 0.89987 0.31215 0.0
C624 C 0.99971 0.4677 0.21191 0.0
C625 C 0.0092 0.48825 0.20111 0.0
C626 C 0.00859 0.47453 0.22877 0.0
C627 C 0.02703 0.50205 0.23516 0.0
C628 C 0.03648 0.52248 0.22431 0.0
C629 C 0.02759 0.51571 0.20757 0.0
C630 C 0.037 0.50984 0.25297 0.0
C631 C 0.04476 0.49384 0.26193 0.0
C632 C 0.05735 0.5032 0.27817 0.0
C633 C 0.06205 0.52865 0.28547 0.0
C634 C 0.05386 0.54461 0.27685 0.0
C635 C 0.0408 0.53466 0.26075 0.0
C636 C 0.06042 0.57238 0.28423 0.0
C637 C 0.05966 0.57762 0.30114 0.0
C638 C 0.06837 0.59421 0.2744 0.0
C639 C 0.0753 0.62047 0.28127 0.0
C640 C 0.07492 0.6257 0.29816 0.0
C641 C 0.06722 0.48732 0.28723 0.0
C642 C 0.04953 0.45927 0.28872 0.0
C643 C 0.09453 0.50029 0.29454 0.0
C644 C 0.10407 0.48544 0.30303 0.0
C645 C 0.08638 0.45743 0.30459 0.0
C646 C 0.05897 0.44449 0.29747 0.0
C647 C 0.06707 0.60409 0.30806 0.0
H648 H 0.98566 0.44631 0.20731 0.0
H649 H 1.00085 0.45832 0.2368 0.0
H650 H 0.05108 0.54383 0.22873 0.0
H651 H 0.035 0.53214 0.19969 0.0
H652 H 0.04237 0.47486 0.25604 0.0
H653 H 0.03383 0.54649 0.25411 0.0
H654 H 0.07263 0.5362 0.29778 0.0
H655 H 0.05327 0.56128 0.30905 0.0
H656 H 0.06992 0.59124 0.26143 0.0
H657 H 0.0817 0.63693 0.27342 0.0
H658 H 0.02836 0.44888 0.28323 0.0
H659 H 0.10861 0.52186 0.29347 0.0
H660 H 0.06648 0.60765 0.32112 0.0
H661 H 0.04502 0.42285 0.2984 0.0
H662 H 0.12528 0.49586 0.30845 0.0
C663 C 0.44249 0.47687 0.20143 0.0
C664 C 0.469 0.48335 0.19798 0.0
C665 C 0.43796 0.48355 0.2172 0.0
C666 C 0.45984 0.49672 0.22985 0.0
C667 C 0.48599 0.50164 0.22658 0.0
C668 C 0.49054 0.49515 0.21081 0.0
C669 C 0.45607 0.50786 0.24579 0.0
C670 C 0.43202 0.49303 0.25342 0.0
C671 C 0.42708 0.50497 0.26752 0.0
C672 C 0.44727 0.53199 0.2741 0.0
C673 C 0.4719 0.54657 0.26698 0.0
C674 C 0.47596 0.53445 0.25281 0.0
C675 C 0.49329 0.5749 0.27393 0.0
C676 C 0.48618 0.59489 0.27829 0.0
C677 C 0.52116 0.58238 0.27562 0.0
C678 C 0.54154 0.60934 0.28143 0.0
C679 C 0.53451 0.62949 0.28562 0.0
C680 C 0.40071 0.48957 0.27508 0.0
C681 C 0.37626 0.47008 0.26539 0.0
C682 C 0.39954 0.49439 0.29199 0.0
C683 C 0.37468 0.48068 0.29887 0.0
C684 C 0.35029 0.46098 0.28919 0.0
C685 C 0.35165 0.4557 0.27236 0.0
C686 C 0.50656 0.62191 0.28402 0.0
H687 H 0.42553 0.46792 0.19175 0.0
H688 H 0.41763 0.47972 0.21924 0.0
H689 H 0.50316 0.51124 0.23613 0.0
H690 H 0.51108 0.49991 0.20856 0.0
H691 H 0.41729 0.47211 0.24831 0.0
H692 H 0.49427 0.54636 0.24681 0.0
H693 H 0.44392 0.54196 0.2847 0.0
H694 H 0.4649 0.58982 0.27687 0.0
H695 H 0.52722 0.5673 0.27251 0.0
H696 H 0.56278 0.61432 0.28279 0.0
H697 H 0.3758 0.46596 0.25228 0.0
H698 H 0.41782 0.50871 0.30007 0.0
H699 H 0.50043 0.637 0.28689 0.0
H700 H 0.33374 0.44028 0.26442 0.0
H701 H 0.37475 0.48588 0.3118 0.0
Eu702 Eu 0.48588 0.97825 0.99375 0.0
Eu703 Eu 0.50791 0.01267 0.03077 0.0
C704 C 0.47828 0.02958 1.00393 0.0
C705 C 0.47793 0.96678 0.94732 0.0
C706 C 0.50297 0.99078 0.94586 0.0
C707 C 0.46382 0.96487 0.91843 0.0
C708 C 0.50845 0.00163 0.93078 0.0
C709 C 0.45843 0.95392 0.93351 0.0
C710 C 0.4889 0.98886 0.9169 0.0
C711 C 0.47172 0.95557 0.96327 0.0
O712 O 0.46233 0.98385 0.03001 0.0
O713 O 0.4553 0.94989 1.00996 0.0
C714 C 0.44756 0.95848 0.02279 0.0
O715 O 0.51353 0.96519 1.00641 0.0
O716 O 0.50389 0.03635 0.05143 0.0
O717 O 0.53649 0.02661 0.05316 0.0
O718 O 0.5045 0.97146 0.03253 0.0
C719 C 0.51333 0.9603 0.02182 0.0
O720 O 0.5228 0.01941 0.99113 0.0
O721 O 0.54517 0.0273 0.01684 0.0
O722 O 0.50005 0.03966 0.01474 0.0
O723 O 0.49233 0.9575 0.97259 0.0
O724 O 0.45642 0.96201 0.97159 0.0
O725 O 0.46585 0.00388 0.99735 0.0
C726 C 0.51432 0.02436 0.07679 0.0
C727 C 0.49057 0.99855 0.07689 0.0
C728 C 0.52297 0.02702 0.10644 0.0
C729 C 0.48303 0.98706 0.09163 0.0
C730 C 0.53042 0.03857 0.09165 0.0
C731 C 0.49927 1.00101 0.1066 0.0
C732 C 0.52279 0.03572 0.06112 0.0
C733 C 0.54554 0.03128 1.00123 0.0
H734 H 0.51823 1.00127 0.95641 0.0
H735 H 0.44844 0.95444 0.90793 0.0
H736 H 0.52779 0.02033 0.93007 0.0
H737 H 0.43897 0.93546 0.93439 0.0
H738 H 0.47795 0.98715 0.06552 0.0
H739 H 0.53615 0.03818 0.11768 0.0
H740 H 0.46445 0.96722 0.09128 0.0
H741 H 0.54895 0.05841 0.09179 0.0
Eu742 Eu 0.01957 0.50871 0.99545 0.0
Eu743 Eu 0.9831 0.49129 0.02668 0.0
C744 C 0.96735 0.44822 0.9954 0.0
C745 C 0.04366 0.51853 0.95272 0.0
C746 C 0.01957 0.49577 0.94469 0.0
C747 C 0.05632 0.53629 0.92655 0.0
C748 C 0.01386 0.49333 0.92765 0.0
C749 C 0.06209 0.5386 0.94356 0.0
C750 C 0.03199 0.51377 0.91841 0.0
C751 C 0.04892 0.52269 0.97067 0.0
O752 O 0.0131 0.47572 0.02918 0.0
O753 O 0.04715 0.50924 0.0166 0.0
C754 C 0.03905 0.49012 0.02662 0.0
O755 O 0.02803 0.54784 1.01009 0.0
O756 O 0.95853 0.46016 0.04238 0.0
O757 O 0.96642 0.50191 0.04741 0.0
O758 O 0.02175 0.53171 0.03518 0.0
C759 C 0.03247 0.55222 0.02614 0.0
O760 O 0.97928 0.50444 0.98598 0.0
O761 O 0.96547 0.51148 0.01071 0.0
O762 O 0.95743 0.45865 1.00584 0.0
O763 O 0.04054 0.53797 0.97796 0.0
O764 O 0.04346 0.50103 0.97815 0.0
O765 O 0.99309 0.46215 0.99233 0.0
C766 C 0.96512 0.4779 0.07007 0.0
C767 C 0.99003 0.47905 0.07478 0.0
C768 C 0.95681 0.4789 0.0987 0.0
C769 C 0.99829 0.48011 0.09135 0.0
C770 C 0.9485 0.4777 0.08209 0.0
C771 C 0.98191 0.48031 0.10354 0.0
C772 C 0.95684 0.47774 0.05271 0.0
C773 C 0.96391 0.51077 0.99456 0.0
H774 H 0.00498 0.48017 0.95161 0.0
H775 H 0.0705 0.55262 0.91987 0.0
H776 H 0.99513 0.47555 0.92175 0.0
H777 H 0.08063 0.55644 0.94962 0.0
H778 H 0.00319 0.4793 0.06565 0.0
H779 H 0.94389 0.47943 0.10776 0.0
H780 H 0.01755 0.48082 0.09461 0.0
H781 H 0.92928 0.47699 0.07865 0.0
Eu782 Eu 0.50856 0.49833 0.02941 0.0
Eu783 Eu 0.48995 0.51843 0.99649 0.0
C784 C 0.51923 0.55956 0.02856 0.0
C785 C 0.52122 0.48706 0.07377 0.0
C786 C 0.52243 0.51095 0.08108 0.0
C787 C 0.51333 0.46801 0.09994 0.0
C788 C 0.51924 0.51338 0.09776 0.0
C789 C 0.51676 0.46569 0.08331 0.0
C790 C 0.51445 0.49184 0.10732 0.0
C791 C 0.52287 0.48333 0.05607 0.0
O792 O 0.53493 0.53148 0.99656 0.0
O793 O 0.53486 0.4973 1.01019 0.0
C794 C 0.54567 0.51614 1.00006 0.0
O795 O 0.47839 0.45978 0.01314 0.0
O796 O 0.49959 0.55099 0.98055 0.0
O797 O 0.46242 0.51131 0.97454 0.0
O798 O 0.4846 0.47708 0.98827 0.0
C799 C 0.47587 0.4562 0.99704 0.0
O800 O 0.47251 0.50249 0.03585 0.0
O801 O 0.45197 0.49803 1.00983 0.0
O802 O 0.49796 0.54982 0.01748 0.0
O803 O 0.49938 0.46836 0.04709 0.0
O804 O 0.53961 0.50509 0.04929 0.0
O805 O 0.5307 0.54495 0.03223 0.0
C806 C 0.4872 0.53313 0.9528 0.0
C807 C 0.49575 0.5143 0.94837 0.0
C808 C 0.49612 0.55002 0.92606 0.0
C809 C 0.50417 0.51314 0.93286 0.0
C810 C 0.4875 0.55104 0.94159 0.0
C811 C 0.50443 0.53096 0.92152 0.0
C812 C 0.47932 0.53482 0.96937 0.0
C813 C 0.45097 0.49721 0.02579 0.0
H814 H 0.52545 0.52752 0.07386 0.0
H815 H 0.50989 0.4512 0.10704 0.0
H816 H 0.51988 0.53184 0.10308 0.0
H817 H 0.51557 0.44704 0.07783 0.0
H818 H 0.49612 0.50061 0.95697 0.0
H819 H 0.496 0.5639 0.91753 0.0
H820 H 0.51088 0.49856 0.92983 0.0
H821 H 0.48121 0.56588 0.94489 0.0
Eu822 Eu 0.1599 0.32069 0.32935 0.0
Eu823 Eu 0.18058 0.35487 0.36668 0.0
C824 C 0.15696 0.37478 0.33728 0.0
C825 C 0.15238 0.30633 0.28314 0.0
C826 C 0.15594 0.33194 0.27954 0.0
C827 C 0.16601 0.3003 0.25636 0.0
C828 C 0.16417 0.34149 0.26441 0.0
C829 C 0.15748 0.29062 0.27143 0.0
C830 C 0.16938 0.32582 0.25268 0.0
C831 C 0.14482 0.29652 0.29931 0.0
O832 O 0.14532 0.31252 0.36854 0.0
O833 O 0.12243 0.30605 0.34328 0.0
C834 C 0.12248 0.30072 0.35863 0.0
O835 O 0.16976 0.29453 0.3449 0.0
O836 O 0.16978 0.3718 0.38766 0.0
O837 O 0.20918 0.37385 0.38914 0.0
O838 O 0.20037 0.32876 0.3647 0.0
C839 C 0.18984 0.30395 0.35688 0.0
O840 O 0.20502 0.35131 0.3294 0.0
O841 O 0.21414 0.38268 0.35194 0.0
O842 O 0.15547 0.36989 0.35273 0.0
O843 O 0.16426 0.29677 0.30894 0.0
O844 O 0.13086 0.30546 0.30718 0.0
O845 O 0.16485 0.36224 0.32689 0.0
C846 C 0.18648 0.36543 0.41318 0.0
C847 C 0.16265 0.3403 0.41476 0.0
C848 C 0.20139 0.36876 0.44212 0.0
C849 C 0.1581 0.32965 0.42993 0.0
C850 C 0.20582 0.37953 0.42696 0.0
C851 C 0.17743 0.34373 0.44379 0.0
C852 C 0.19149 0.37683 0.39722 0.0
C853 C 0.22093 0.37515 0.33831 0.0
H854 H 0.15261 0.34473 0.28847 0.0
H855 H 0.1697 0.28771 0.2475 0.0
H856 H 0.16693 0.36137 0.262 0.0
H857 H 0.15508 0.27093 0.27402 0.0
H858 H 0.14754 0.32882 0.40426 0.0
H859 H 0.21657 0.38018 0.45259 0.0
H860 H 0.13964 0.31015 0.43076 0.0
H861 H 0.22436 0.39889 0.42599 0.0
Eu862 Eu 0.68826 0.8413 0.32564 0.0
Eu863 Eu 0.65489 0.83043 0.3585 0.0
C864 C 0.63349 0.78358 0.32835 0.0
C865 C 0.7141 0.85098 0.28266 0.0
C866 C 0.68949 0.83212 0.27303 0.0
C867 C 0.73394 0.87122 0.25823 0.0
C868 C 0.68718 0.83278 0.25601 0.0
C869 C 0.73627 0.87043 0.27517 0.0
C870 C 0.70937 0.85244 0.24844 0.0
C871 C 0.71703 0.85171 0.30057 0.0
O872 O 0.68329 0.81313 0.36222 0.0
O873 O 0.71582 0.8402 0.34608 0.0
C874 C 0.70816 0.82369 0.35765 0.0
O875 O 0.70141 0.8826 0.33939 0.0
O876 O 0.62983 0.80153 0.37518 0.0
O877 O 0.63968 0.84419 0.37864 0.0
O878 O 0.69464 0.87029 0.36543 0.0
C879 C 0.70661 0.88898 0.35536 0.0
O880 O 0.64976 0.84123 0.31682 0.0
O881 O 0.63801 0.85046 0.34187 0.0
O882 O 0.62651 0.79671 0.33897 0.0
O883 O 0.71301 0.86975 0.30873 0.0
O884 O 0.70631 0.82822 0.30679 0.0
O885 O 0.65831 0.79531 0.32362 0.0
C886 C 0.63538 0.82098 0.40234 0.0
C887 C 0.66026 0.84197 0.41082 0.0
C888 C 0.62264 0.79943 0.42752 0.0
C889 C 0.66611 0.84185 0.4276 0.0
C890 C 0.61668 0.7997 0.41077 0.0
C891 C 0.64734 0.8206 0.4361 0.0
C892 C 0.62887 0.82048 0.38466 0.0
C893 C 0.63564 0.84891 0.32569 0.0
H894 H 0.67209 0.81706 0.27865 0.0
H895 H 0.75124 0.88692 0.25286 0.0
H896 H 0.66808 0.81784 0.24879 0.0
H897 H 0.75532 0.8853 0.28249 0.0
H898 H 0.67519 0.8584 0.4045 0.0
H899 H 0.60776 0.78293 0.43381 0.0
H900 H 0.68546 0.85822 0.43389 0.0
H901 H 0.59745 0.78327 0.40438 0.0
Eu902 Eu 0.18343 0.83233 0.36689 0.0
Eu903 Eu 0.155 0.8371 0.33173 0.0
C904 C 0.18855 0.88857 0.3589 0.0
C905 C 0.20082 0.83127 0.41221 0.0
C906 C 0.20046 0.85475 0.4188 0.0
C907 C 0.19071 0.81253 0.4384 0.0
C908 C 0.19539 0.85713 0.4351 0.0
C909 C 0.19609 0.81029 0.42216 0.0
C910 C 0.19025 0.83593 0.445 0.0
C911 C 0.20461 0.82759 0.39483 0.0
O912 O 0.19271 0.83536 0.32586 0.0
O913 O 0.21794 0.85271 0.35107 0.0
C914 C 0.21638 0.84728 0.33511 0.0
O915 O 0.17061 0.79395 0.34988 0.0
O916 O 0.14437 0.86056 0.31549 0.0
O917 O 0.13514 0.81934 0.30694 0.0
O918 O 0.13359 0.79249 0.33604 0.0
C919 C 0.14673 0.78007 0.34094 0.0
O920 O 0.14056 0.82093 0.37208 0.0
O921 O 0.12429 0.83315 0.34936 0.0
O922 O 0.18627 0.87997 0.34333 0.0
O923 O 0.18366 0.80695 0.38585 0.0
O924 O 0.21616 0.84972 0.38722 0.0
O925 O 0.18175 0.87136 0.37007 0.0
C926 C 0.14805 0.85117 0.28758 0.0
C927 C 0.17529 0.8581 0.28591 0.0
C928 C 0.14167 0.85635 0.25878 0.0
C929 C 0.18546 0.86349 0.27066 0.0
C930 C 0.13151 0.85091 0.27404 0.0
C931 C 0.16853 0.862 0.25682 0.0
C932 C 0.1361 0.84182 0.30293 0.0
C933 C 0.12201 0.82484 0.36413 0.0
H934 H 0.20368 0.87109 0.41133 0.0
H935 H 0.18702 0.796 0.44582 0.0
H936 H 0.19486 0.87525 0.43984 0.0
H937 H 0.19617 0.79197 0.41728 0.0
H938 H 0.18833 0.85829 0.29626 0.0
H939 H 0.12824 0.85542 0.24842 0.0
H940 H 0.20612 0.86747 0.26954 0.0
H941 H 0.11045 0.84563 0.27513 0.0
Eu942 Eu 0.8196 0.64921 0.6602 0.0
Eu943 Eu 0.83928 0.68231 0.698 0.0
C944 C 0.81202 0.70104 0.6706 0.0
C945 C 0.81479 0.63386 0.61386 0.0
C946 C 0.83954 0.65841 0.61299 0.0
C947 C 0.80773 0.62642 0.58402 0.0
C948 C 0.84851 0.66682 0.59777 0.0
C949 C 0.79895 0.61791 0.59929 0.0
C950 C 0.83264 0.65098 0.58309 0.0
C951 C 0.80521 0.62519 0.6299 0.0
O952 O 0.7935 0.65368 0.69551 0.0
O953 O 0.78988 0.62014 0.67644 0.0
C954 C 0.78021 0.62826 0.68838 0.0
O955 O 0.85124 0.64097 0.67241 0.0
O956 O 0.83187 0.70229 0.71924 0.0
O957 O 0.86739 0.69695 0.72056 0.0
O958 O 0.83976 0.64263 0.69839 0.0
C959 C 0.85136 0.63491 0.68755 0.0
O960 O 0.8575 0.68948 0.6578 0.0
O961 O 0.87731 0.70201 0.6847 0.0
O962 O 0.83214 0.71005 0.68249 0.0
O963 O 0.82232 0.62318 0.64035 0.0
O964 O 0.79344 0.63741 0.63689 0.0
O965 O 0.80042 0.67588 0.6631 0.0
C966 C 0.84585 0.69366 0.74492 0.0
C967 C 0.84469 0.66902 0.74849 0.0
C968 C 0.83468 0.69953 0.77248 0.0
C969 C 0.83887 0.65989 0.76401 0.0
C970 C 0.84068 0.70873 0.75701 0.0
C971 C 0.83387 0.67507 0.77625 0.0
C972 C 0.85219 0.70387 0.7287 0.0
C973 C 0.87884 0.70401 0.66886 0.0
H974 H 0.85176 0.67115 0.62411 0.0
H975 H 0.79515 0.61368 0.57294 0.0
H976 H 0.86757 0.68601 0.59749 0.0
H977 H 0.77972 0.59893 0.59971 0.0
H978 H 0.84842 0.65688 0.73933 0.0
H979 H 0.83045 0.71152 0.78144 0.0
H980 H 0.83875 0.64115 0.76648 0.0
H981 H 0.84123 0.72766 0.75447 0.0
Eu982 Eu 0.35799 0.17197 0.66294 0.0
Eu983 Eu 0.3176 0.15617 0.69274 0.0
C984 C 0.30576 0.11221 0.6619 0.0
C985 C 0.38496 0.18079 0.6211 0.0
C986 C 0.36021 0.1595 0.61268 0.0
C987 C 0.40155 0.19637 0.59505 0.0
C988 C 0.35625 0.15652 0.59554 0.0
C989 C 0.40558 0.1992 0.61221 0.0
C990 C 0.37686 0.17495 0.58655 0.0
C991 C 0.38933 0.18415 0.63911 0.0
O992 O 0.35698 0.16007 0.70394 0.0
O993 O 0.37132 0.15019 0.68026 0.0
C994 C 0.3722 0.15231 0.69635 0.0
O995 O 0.38097 0.2056 0.68379 0.0
O996 O 0.29308 0.12597 0.70895 0.0
O997 O 0.29532 0.16557 0.71045 0.0
O998 O 0.34364 0.20248 0.69511 0.0
C999 C 0.36977 0.2164 0.69296 0.0
O1000 O 0.32832 0.18693 0.65687 0.0
O1001 O 0.29275 0.15914 0.67129 0.0
O1002 O 0.30732 0.11663 0.67791 0.0
O1003 O 0.38348 0.20146 0.64658 0.0
O1004 O 0.38053 0.16149 0.64613 0.0
O1005 O 0.31982 0.13228 0.65305 0.0
C1006 C 0.29425 0.14574 0.73509 0.0
C1007 C 0.31995 0.16669 0.74265 0.0
C1008 C 0.28307 0.12711 0.76122 0.0
C1009 C 0.32713 0.1679 0.75939 0.0
C1010 C 0.2758 0.12605 0.74446 0.0
C1011 C 0.30886 0.14799 0.76881 0.0
C1012 C 0.28762 0.14284 0.71724 0.0
C1013 C 0.30258 0.1761 0.66 0.0
H1014 H 0.34392 0.14524 0.61935 0.0
H1015 H 0.41781 0.21077 0.58842 0.0
H1016 H 0.33687 0.1401 0.58932 0.0
H1017 H 0.42478 0.21578 0.61854 0.0
H1018 H 0.33471 0.18176 0.73554 0.0
H1019 H 0.26857 0.11161 0.76822 0.0
H1020 H 0.34729 0.18397 0.76488 0.0
H1021 H 0.256 0.10956 0.73876 0.0
Eu1022 Eu 0.84817 0.17207 0.69372 0.0
Eu1023 Eu 0.82596 0.1874 0.66005 0.0
C1024 C 0.85535 0.23156 0.69075 0.0
C1025 C 0.85458 0.16119 0.73815 0.0
C1026 C 0.84531 0.17924 0.74302 0.0
C1027 C 0.84352 0.14115 0.76391 0.0
C1028 C 0.83536 0.17837 0.75826 0.0
C1029 C 0.85367 0.14219 0.74869 0.0
C1030 C 0.83412 0.15916 0.76887 0.0
C1031 C 0.86298 0.16055 0.72158 0.0
O1032 O 0.87165 0.20409 0.66015 0.0
O1033 O 0.87638 0.17338 0.6751 0.0
C1034 C 0.88506 0.19152 0.66439 0.0
O1035 O 0.81827 0.13206 0.6786 0.0
O1036 O 0.83235 0.21768 0.6429 0.0
O1037 O 0.79728 0.17627 0.63801 0.0
O1038 O 0.82468 0.14746 0.65329 0.0
C1039 C 0.81653 0.12733 0.66261 0.0
O1040 O 0.81116 0.17443 0.7 0.0
O1041 O 0.78884 0.16676 0.67411 0.0
O1042 O 0.8334 0.2201 0.68009 0.0
O1043 O 0.84377 0.14209 0.71066 0.0
O1044 O 0.877 0.18426 0.71586 0.0
O1045 O 0.86829 0.2184 0.69464 0.0
C1046 C 0.82054 0.19748 0.61554 0.0
C1047 C 0.82725 0.17729 0.61091 0.0
C1048 C 0.83324 0.21621 0.58951 0.0
C1049 C 0.83684 0.17653 0.59573 0.0
C1050 C 0.82346 0.21685 0.60472 0.0
C1051 C 0.84029 0.19617 0.5849 0.0
C1052 C 0.81254 0.19956 0.63207 0.0
C1053 C 0.78882 0.16731 0.69018 0.0
H1054 H 0.84546 0.19384 0.73496 0.0
H1055 H 0.84249 0.12581 0.77162 0.0
H1056 H 0.82872 0.19285 0.76173 0.0
H1057 H 0.86031 0.12778 0.74501 0.0
H1058 H 0.82543 0.16227 0.61913 0.0
H1059 H 0.83591 0.23183 0.58157 0.0
H1060 H 0.84157 0.1605 0.59249 0.0
H1061 H 0.81871 0.2328 0.60817 0.0
H1062 H 0.33649 0.86513 0.04511 0.0
H1063 H 0.35863 0.92909 0.08484 0.0
H1064 H 0.39954 0.96002 0.07235 0.0
H1065 H 0.42913 0.96889 0.05051 0.0
H1066 H 0.40856 0.90512 0.01096 0.0
H1067 H 0.36696 0.87402 0.02314 0.0
C1068 C 0.35037 0.88577 0.05109 0.0
C1069 C 0.34434 0.89478 0.06587 0.0
C1070 C 0.3741 0.90347 0.0439 0.0
C1071 C 0.36244 0.92173 0.07334 0.0
C1072 C 0.38595 0.9394 0.06626 0.0
C1073 C 0.41561 0.94822 0.04446 0.0
C1074 C 0.42202 0.93942 0.02978 0.0
C1075 C 0.39195 0.9305 0.05156 0.0
C1076 C 0.40417 0.91248 0.02224 0.0
C1077 C 0.38038 0.89468 0.02921 0.0
H1078 H 0.14046 0.48869 0.06214 0.0
H1079 H 0.08299 0.40093 0.05523 0.0
H1080 H 0.04745 0.40906 0.04321 0.0
H1081 H 0.03273 0.44103 0.03395 0.0
H1082 H 0.09166 0.52809 0.03813 0.0
H1083 H 0.12666 0.52023 0.05163 0.0
C1084 C 0.12037 0.47121 0.05778 0.0
C1085 C 0.11462 0.44421 0.05977 0.0
C1086 C 0.10018 0.47592 0.05034 0.0
C1087 C 0.08807 0.42201 0.05427 0.0
C1088 C 0.06768 0.4266 0.04724 0.0
C1089 C 0.05321 0.45823 0.03792 0.0
C1090 C 0.05965 0.48508 0.03516 0.0
C1091 C 0.07348 0.45345 0.04521 0.0
C1092 C 0.08632 0.50722 0.04011 0.0
C1093 C 0.10631 0.50274 0.04783 0.0
H1094 H 0.55193 0.68011 0.05527 0.0
H1095 H 0.63321 0.69313 0.05034 0.0
H1096 H 0.61374 0.64385 0.04255 0.0
H1097 H 0.5733 0.59732 0.03561 0.0
H1098 H 0.49208 0.58572 0.03764 0.0
H1099 H 0.51184 0.63432 0.04789 0.0
C1100 C 0.56546 0.67236 0.05225 0.0
C1101 C 0.59403 0.69049 0.05332 0.0
C1102 C 0.5541 0.6442 0.04727 0.0
C1103 C 0.61118 0.67972 0.04983 0.0
C1104 C 0.60005 0.65153 0.04526 0.0
C1105 C 0.56004 0.60546 0.03852 0.0
C1106 C 0.53137 0.58815 0.03602 0.0
C1107 C 0.57153 0.63362 0.04381 0.0
C1108 C 0.51425 0.59883 0.03951 0.0
C1109 C 0.52551 0.62655 0.04532 0.0
H1110 H 0.9033 0.32403 0.96496 0.0
H1111 H 0.83659 0.3412 0.96056 0.0
H1112 H 0.86726 0.38795 0.97331 0.0
H1113 H 0.91308 0.42436 0.98559 0.0
H1114 H 0.98089 0.40923 0.9869 0.0
H1115 H 0.94985 0.36154 0.97486 0.0
C1116 C 0.89537 0.33797 0.96642 0.0
C1117 C 0.86729 0.32853 0.96188 0.0
C1118 C 0.91343 0.36539 0.97311 0.0
C1119 C 0.85773 0.34722 0.96432 0.0
C1120 C 0.87538 0.37422 0.97145 0.0
C1121 C 0.92102 0.41058 0.98319 0.0
C1122 C 0.94909 0.42008 0.98721 0.0
C1123 C 0.90322 0.3835 0.97594 0.0
C1124 C 0.95931 0.40229 0.98384 0.0
C1125 C 0.94156 0.37504 0.97704 0.0
H1126 H 0.63993 0.51071 0.96568 0.0
H1127 H 0.66718 0.59699 0.96323 0.0
H1128 H 0.62732 0.59146 0.9761 0.0
H1129 H 0.58496 0.56243 0.9886 0.0
H1130 H 0.56055 0.47761 0.9936 0.0
H1131 H 0.59955 0.48261 0.97967 0.0
C1132 C 0.63762 0.52855 0.96818 0.0
C1133 C 0.6568 0.55423 0.96327 0.0
C1134 C 0.61514 0.52555 0.97619 0.0
C1135 C 0.65266 0.57676 0.9664 0.0
C1136 C 0.62992 0.57372 0.97396 0.0
C1137 C 0.58822 0.54506 0.98664 0.0
C1138 C 0.56986 0.51967 0.99209 0.0
C1139 C 0.61104 0.54823 0.97892 0.0
C1140 C 0.57447 0.49742 0.98961 0.0
C1141 C 0.59671 0.50023 0.98158 0.0
H1142 H 0.41351 0.08437 0.97536 0.0
H1143 H 0.4962 0.15261 0.97552 0.0
H1144 H 0.51446 0.12684 0.98902 0.0
H1145 H 0.5072 0.0837 0.99928 0.0
H1146 H 0.42488 0.01416 0.99642 0.0
H1147 H 0.40626 0.0415 0.98532 0.0
C1148 C 0.43555 0.09357 0.97816 0.0
C1149 C 0.45336 0.12043 0.97436 0.0
C1150 C 0.44602 0.07834 0.98545 0.0
C1151 C 0.48187 0.13215 0.9785 0.0
C1152 C 0.49241 0.11735 0.98612 0.0
C1153 C 0.48519 0.07476 0.99642 0.0
C1154 C 0.46738 0.04711 0.99868 0.0
C1155 C 0.4747 0.09033 0.98951 0.0
C1156 C 0.43893 0.03546 0.99471 0.0
C1157 C 0.42829 0.05105 0.98836 0.0
H1158 H 0.66617 0.09684 0.98121 0.0
H1159 H 0.62271 0.10594 0.93897 0.0
H1160 H 0.57935 0.0792 0.95028 0.0
H1161 H 0.55355 0.05361 0.97224 0.0
H1162 H 0.59716 0.04746 0.01542 0.0
H1163 H 0.64071 0.07354 1.00388 0.0
C1164 C 0.64737 0.09345 0.97454 0.0
C1165 C 0.64802 0.10338 0.95911 0.0
C1166 C 0.62243 0.07877 0.98136 0.0
C1167 C 0.62308 0.0981 0.95063 0.0
C1168 C 0.59816 0.08302 0.95718 0.0
C1169 C 0.57258 0.05804 0.97916 0.0
C1170 C 0.57206 0.04853 0.99466 0.0
C1171 C 0.59759 0.07325 0.97252 0.0
C1172 C 0.59696 0.05464 1.0035 0.0
C1173 C 0.62188 0.06945 0.99687 0.0
H1174 H 0.8923 0.54055 0.94707 0.0
H1175 H 0.85387 0.53821 0.99125 0.0
H1176 H 0.88544 0.52741 1.00626 0.0
H1177 H 0.92371 0.51804 1.00681 0.0
H1178 H 0.96061 0.51855 0.9622 0.0
H1179 H 0.92952 0.53005 0.94741 0.0
C1180 C 0.89054 0.53736 0.95993 0.0
C1181 C 0.87066 0.54029 0.96796 0.0
C1182 C 0.90846 0.53068 0.96845 0.0
C1183 C 0.86919 0.53656 0.98475 0.0
C1184 C 0.88713 0.53017 0.99334 0.0
C1185 C 0.92497 0.52067 0.99386 0.0
C1186 C 0.94456 0.51743 0.98569 0.0
C1187 C 0.90686 0.52716 0.98532 0.0
C1188 C 0.94575 0.52081 0.96886 0.0
C1189 C 0.92798 0.52746 0.96035 0.0
H1190 H 0.42689 0.34447 0.95126 0.0
H1191 H 0.4355 0.31564 0.99759 0.0
H1192 H 0.45098 0.36115 0.01181 0.0
H1193 H 0.4649 0.40974 0.01089 0.0
H1194 H 0.45938 0.43937 0.96432 0.0
H1195 H 0.44045 0.39296 0.95035 0.0
C1196 C 0.43232 0.34815 0.96446 0.0
C1197 C 0.43015 0.32664 0.9733 0.0
C1198 C 0.44204 0.37456 0.9725 0.0
C1199 C 0.43663 0.33166 0.99047 0.0
C1200 C 0.44575 0.35777 0.99861 0.0
C1201 C 0.45942 0.40605 0.99769 0.0
C1202 C 0.46362 0.428 0.98866 0.0
C1203 C 0.44892 0.37945 0.98971 0.0
C1204 C 0.4565 0.42287 0.97156 0.0
C1205 C 0.44562 0.39633 0.96356 0.0
H1206 H 0.11029 0.67888 0.0487 0.0
H1207 H 0.14021 0.64614 0.0858 0.0
H1208 H 0.10549 0.59936 0.07468 0.0
H1209 H 0.06735 0.5675 0.05396 0.0
H1210 H 0.04046 0.60007 0.01536 0.0
H1211 H 0.07354 0.64715 0.02739 0.0
C1212 C 0.10957 0.66158 0.05425 0.0
C1213 C 0.12787 0.66624 0.06817 0.0
C1214 C 0.09003 0.63464 0.04753 0.0
C1215 C 0.12611 0.64337 0.0753 0.0
C1216 C 0.10636 0.61652 0.06888 0.0
C1217 C 0.0686 0.58496 0.04832 0.0
C1218 C 0.05141 0.58046 0.03393 0.0
C1219 C 0.08821 0.61191 0.05501 0.0
C1220 C 0.05352 0.60314 0.02648 0.0
C1221 C 0.07242 0.63001 0.03334 0.0
H1222 H 0.33313 0.4676 0.04472 0.0
H1223 H 0.36569 0.45452 0.09016 0.0
H1224 H 0.40927 0.46836 0.07913 0.0
H1225 H 0.43799 0.4834 0.0565 0.0
H1226 H 0.40493 0.49448 0.01056 0.0
H1227 H 0.36161 0.48177 0.02182 0.0
C1228 C 0.34961 0.46746 0.05217 0.0
C1229 C 0.34599 0.46008 0.06831 0.0
C1230 C 0.37458 0.47504 0.04566 0.0
C1231 C 0.3679 0.46052 0.07782 0.0
C1232 C 0.39283 0.46826 0.07148 0.0
C1233 C 0.42138 0.48318 0.04894 0.0
C1234 C 0.42481 0.48999 0.0327 0.0
C1235 C 0.39641 0.47556 0.05542 0.0
C1236 C 0.40291 0.48931 0.02309 0.0
C1237 C 0.3781 0.48205 0.02952 0.0
H1238 H 0.55488 0.89095 0.0583 0.0
H1239 H 0.61395 0.9205 0.02289 0.0
H1240 H 0.59006 0.94177 1.00991 0.0
H1241 H 0.55418 0.95467 1.00982 0.0
H1242 H 0.49822 0.92866 0.04701 0.0
H1243 H 0.5194 0.90363 0.05827 0.0
C1244 C 0.56282 0.90233 0.04787 0.0
C1245 C 0.58641 0.90435 0.04173 0.0
C1246 C 0.54955 0.91521 0.04082 0.0
C1247 C 0.59576 0.91842 0.02785 0.0
C1248 C 0.58221 0.93076 0.02047 0.0
C1249 C 0.54645 0.9432 0.02026 0.0
C1250 C 0.52468 0.94337 0.02758 0.0
C1251 C 0.5593 0.92959 0.02699 0.0
C1252 C 0.51503 0.92883 0.04122 0.0
C1253 C 0.52713 0.91456 0.04766 0.0
H1254 H 0.02745 0.22057 0.39818 0.0
H1255 H 0.98117 0.24665 0.36797 0.0
H1256 H 0.02161 0.27412 0.35374 0.0
H1257 H 0.07075 0.29161 0.35043 0.0
H1258 H 0.11708 0.2673 0.3821 0.0
H1259 H 0.07601 0.23794 0.39502 0.0
C1260 C 0.02618 0.2321 0.38838 0.0
C1261 C 1.00139 0.23151 0.38406 0.0
C1262 C 0.04953 0.24807 0.38047 0.0
C1263 C 1.00012 0.24693 0.37156 0.0
C1264 C 0.02318 0.26251 0.36338 0.0
C1265 C 0.07166 0.27957 0.36 0.0
C1266 C 0.0968 0.28142 0.36523 0.0
C1267 C 0.04806 0.26331 0.36777 0.0
C1268 C 0.09792 0.26617 0.37787 0.0
C1269 C 0.07447 0.24942 0.38529 0.0
H1270 H 0.80644 0.80635 0.38161 0.0
H1271 H 0.7518 0.76318 0.41737 0.0
H1272 H 0.71754 0.77314 0.40503 0.0
H1273 H 0.70315 0.79444 0.38404 0.0
H1274 H 0.75897 0.83838 0.34886 0.0
H1275 H 0.79268 0.82813 0.3612 0.0
C1276 C 0.7872 0.7994 0.38687 0.0
C1277 C 0.78182 0.78407 0.40043 0.0
C1278 C 0.7677 0.80537 0.37981 0.0
C1279 C 0.75644 0.77476 0.40682 0.0
C1280 C 0.73686 0.78057 0.39982 0.0
C1281 C 0.72267 0.80176 0.37907 0.0
C1282 C 0.72838 0.81717 0.36551 0.0
C1283 C 0.74224 0.79585 0.38628 0.0
C1284 C 0.75389 0.82653 0.3593 0.0
C1285 C 0.77328 0.82066 0.36633 0.0
H1286 H 0.24885 0.01831 0.37233 0.0
H1287 H 0.20455 0.99768 0.41496 0.0
H1288 H 0.18446 0.94847 0.40605 0.0
H1289 H 0.18015 0.91145 0.38633 0.0
H1290 H 0.22238 0.93197 0.34284 0.0
H1291 H 0.24261 0.98112 0.35182 0.0
C1292 C 0.23478 0.00294 0.37961 0.0
C1293 C 0.22821 0.01137 0.39428 0.0
C1294 C 0.223 0.97478 0.37426 0.0
C1295 C 0.20974 0.99148 0.40359 0.0
C1296 C 0.19836 0.96343 0.39853 0.0
C1297 C 0.19379 0.92671 0.37884 0.0
C1298 C 0.19994 0.91818 0.36402 0.0
C1299 C 0.20494 0.95485 0.38393 0.0
C1300 C 0.21731 0.93809 0.35429 0.0
C1301 C 0.22895 0.96616 0.35943 0.0
H1302 H 0.53286 0.66311 0.31022 0.0
H1303 H 0.58505 0.66054 0.27476 0.0
H1304 H 0.6206 0.70775 0.28494 0.0
H1305 H 0.63664 0.75017 0.30379 0.0
H1306 H 0.58307 0.75227 0.33851 0.0
H1307 H 0.54828 0.70516 0.32851 0.0
C1308 C 0.55186 0.67294 0.30456 0.0
C1309 C 0.55619 0.65825 0.29173 0.0
C1310 C 0.57203 0.70015 0.3103 0.0
C1311 C 0.58125 0.67121 0.2848 0.0
C1312 C 0.60154 0.6983 0.29054 0.0
C1313 C 0.61736 0.74031 0.30915 0.0
C1314 C 0.61258 0.75488 0.32187 0.0
C1315 C 0.59715 0.71301 0.30329 0.0
C1316 C 0.5874 0.74173 0.32866 0.0
C1317 C 0.5674 0.71468 0.32298 0.0
H1318 H 0.33519 0.89523 0.31213 0.0
H1319 H 0.28874 0.83598 0.27012 0.0
H1320 H 0.24586 0.82282 0.28225 0.0
H1321 H 0.22171 0.82784 0.30506 0.0
H1322 H 0.26877 0.88516 0.34785 0.0
H1323 H 0.31119 0.89934 0.33524 0.0
C1324 C 0.31561 0.87955 0.30564 0.0
C1325 C 0.31498 0.86668 0.29024 0.0
C1326 C 0.29119 0.87167 0.31287 0.0
C1327 C 0.28962 0.84611 0.28201 0.0
C1328 C 0.26516 0.83862 0.28893 0.0
C1329 C 0.24124 0.84345 0.31161 0.0
C1330 C 0.24202 0.85541 0.32738 0.0
C1331 C 0.26569 0.85119 0.3044 0.0
C1332 C 0.26756 0.87548 0.33575 0.0
C1333 C 0.29185 0.88369 0.32852 0.0
H1334 H 0.13143 0.4543 0.29908 0.0
H1335 H 0.06452 0.42497 0.32915 0.0
H1336 H 0.08181 0.39843 0.34308 0.0
H1337 H 0.11529 0.38235 0.34595 0.0
H1338 H 0.17991 0.40921 0.31418 0.0
H1339 H 0.16453 0.43826 0.30182 0.0
C1340 C 0.12082 0.44226 0.30879 0.0
C1341 C 0.09687 0.44161 0.31317 0.0
C1342 C 0.13055 0.42672 0.31645 0.0
C1343 C 0.08296 0.42562 0.32556 0.0
C1344 C 0.09289 0.41056 0.33354 0.0
C1345 C 0.12615 0.3949 0.33648 0.0
C1346 C 0.14878 0.3939 0.33104 0.0
C1347 C 0.11659 0.41082 0.32902 0.0
C1348 C 0.16244 0.40974 0.31855 0.0
C1349 C 0.15364 0.42629 0.31146 0.0
H1350 H 0.34188 0.44756 0.32092 0.0
H1351 H 0.29776 0.44075 0.27414 0.0
H1352 H 0.2544 0.4134 0.28514 0.0
H1353 H 0.22858 0.39034 0.30781 0.0
H1354 H 0.27188 0.40199 0.35544 0.0
H1355 H 0.31601 0.42949 0.34448 0.0
C1356 C 0.32295 0.44076 0.31312 0.0
C1357 C 0.3236 0.44596 0.29649 0.0
C1358 C 0.2978 0.42599 0.31973 0.0
C1359 C 0.29839 0.43636 0.28675 0.0
C1360 C 0.27337 0.42094 0.29309 0.0
C1361 C 0.24774 0.39916 0.31578 0.0
C1362 C 0.24722 0.39412 0.33232 0.0
C1363 C 0.27283 0.41538 0.30949 0.0
C1364 C 0.27196 0.40579 0.34266 0.0
C1365 C 0.29712 0.42133 0.33637 0.0
H1366 H 0.56362 0.88013 0.27965 0.0
H1367 H 0.51844 0.86466 0.32204 0.0
H1368 H 0.55123 0.85525 0.33677 0.0
H1369 H 0.59226 0.85038 0.33751 0.0
H1370 H 0.63547 0.86278 0.29445 0.0
H1371 H 0.60358 0.8738 0.28004 0.0
C1372 C 0.56063 0.87434 0.29203 0.0
C1373 C 0.53849 0.87327 0.29966 0.0
C1374 C 0.57921 0.86828 0.30034 0.0
C1375 C 0.53548 0.86622 0.31588 0.0
C1376 C 0.55414 0.86059 0.3243 0.0
C1377 C 0.59477 0.85561 0.325 0.0
C1378 C 0.6163 0.85583 0.31711 0.0
C1379 C 0.57607 0.86153 0.31666 0.0
C1380 C 0.61905 0.86236 0.30082 0.0
C1381 C 0.60084 0.86872 0.29256 0.0
H1382 H 0.113 0.65537 0.32413 0.0
H1383 H 0.05643 0.65924 0.28803 0.0
H1384 H 0.07282 0.70711 0.29864 0.0
H1385 H 0.10452 0.74826 0.31734 0.0
H1386 H 0.16277 0.74527 0.35267 0.0
H1387 H 0.14438 0.69659 0.34324 0.0
C1388 C 0.10408 0.66667 0.31876 0.0
C1389 C 0.08355 0.65394 0.30538 0.0
C1390 C 0.11401 0.69431 0.32471 0.0
C1391 C 0.07236 0.66878 0.29832 0.0
C1392 C 0.0817 0.69608 0.30437 0.0
C1393 C 0.11309 0.73694 0.32307 0.0
C1394 C 0.135 0.75039 0.33568 0.0
C1395 C 0.10274 0.70913 0.31743 0.0
C1396 C 0.14598 0.73544 0.34289 0.0
C1397 C 0.13546 0.7076 0.33752 0.0
H1398 H 0.79907 0.01358 0.37234 0.0
H1399 H 0.77013 0.9979 0.42013 0.0
H1400 H 0.73674 0.95023 0.40962 0.0
H1401 H 0.71542 0.913 0.38677 0.0
H1402 H 0.74303 0.92977 0.33872 0.0
H1403 H 0.7768 0.97714 0.34939 0.0
C1404 C 0.78523 0.99992 0.38044 0.0
C1405 C 0.78727 0.00943 0.39703 0.0
C1406 C 0.76571 0.97268 0.37426 0.0
C1407 C 0.76943 0.99111 0.40737 0.0
C1408 C 0.75015 0.96386 0.40135 0.0
C1409 C 0.72883 0.92702 0.37864 0.0
C1410 C 0.72669 0.9178 0.36198 0.0
C1411 C 0.74813 0.9544 0.38481 0.0
C1412 C 0.74412 0.9363 0.35159 0.0
C1413 C 0.76352 0.96342 0.35768 0.0
H1414 H 0.03264 0.81177 0.41074 0.0
H1415 H 0.9785 0.75929 0.368 0.0
H1416 H 0.01787 0.77127 0.35285 0.0
H1417 H 0.06813 0.79546 0.35179 0.0
H1418 H 0.12208 0.84285 0.39551 0.0
H1419 H 0.08248 0.83363 0.41024 0.0
C1420 C 0.02925 0.80249 0.39821 0.0
C1421 C 1.00223 0.78478 0.39064 0.0
C1422 C 0.05213 0.80858 0.38967 0.0
C1423 C 0.99875 0.77357 0.3742 0.0
C1424 C 0.02138 0.7802 0.36548 0.0
C1425 C 0.07109 0.80391 0.36449 0.0
C1426 C 0.09787 0.82002 0.37254 0.0
C1427 C 0.04818 0.79765 0.37307 0.0
C1428 C 0.10158 0.83044 0.38909 0.0
C1429 C 0.07896 0.82515 0.3975 0.0
H1430 H 0.22029 0.21343 0.37312 0.0
H1431 H 0.2778 0.27963 0.40946 0.0
H1432 H 0.26187 0.30974 0.39941 0.0
H1433 H 0.23089 0.31684 0.38095 0.0
H1434 H 0.17293 0.25081 0.34458 0.0
H1435 H 0.18999 0.22112 0.35392 0.0
C1436 C 0.22954 0.23456 0.37868 0.0
C1437 C 0.25009 0.24427 0.39205 0.0
C1438 C 0.22017 0.25173 0.3729 0.0
C1439 C 0.2617 0.27159 0.39929 0.0
C1440 C 0.25268 0.28883 0.39352 0.0
C1441 C 0.22197 0.29599 0.375 0.0
C1442 C 0.20057 0.28607 0.36212 0.0
C1443 C 0.23174 0.27902 0.38046 0.0
C1444 C 0.18938 0.25899 0.35455 0.0
C1445 C 0.19912 0.24197 0.35988 0.0
H1446 H 0.68194 0.53514 0.71972 0.0
H1447 H 0.6609 0.59913 0.72578 0.0
H1448 H 0.7009 0.62984 0.71262 0.0
H1449 H 0.74235 0.63897 0.69978 0.0
H1450 H 0.76057 0.57368 0.69099 0.0
H1451 H 0.72028 0.54254 0.70423 0.0
C1452 C 0.6855 0.55551 0.71788 0.0
C1453 C 0.66825 0.56465 0.72403 0.0
C1454 C 0.70795 0.5728 0.70966 0.0
C1455 C 0.67402 0.59154 0.72171 0.0
C1456 C 0.6968 0.60912 0.71398 0.0
C1457 C 0.73731 0.61783 0.70066 0.0
C1458 C 0.75436 0.60857 0.69456 0.0
C1459 C 0.71398 0.60003 0.70803 0.0
C1460 C 0.74758 0.58113 0.69555 0.0
C1461 C 0.72469 0.56344 0.70321 0.0
H1462 H 0.4425 0.12477 0.74671 0.0
H1463 H 0.48569 0.1309 0.70425 0.0
H1464 H 0.45414 0.14051 0.68808 0.0
H1465 H 0.41457 0.14749 0.68603 0.0
H1466 H 0.37216 0.14313 0.7287 0.0
H1467 H 0.40306 0.13251 0.74474 0.0
C1468 C 0.44483 0.12806 0.73389 0.0
C1469 C 0.46633 0.1271 0.72666 0.0
C1470 C 0.42682 0.13395 0.72472 0.0
C1471 C 0.4694 0.13174 0.7101 0.0
C1472 C 0.45134 0.13715 0.70085 0.0
C1473 C 0.41199 0.14412 0.69883 0.0
C1474 C 0.391 0.146 0.70612 0.0
C1475 C 0.43002 0.13837 0.70803 0.0
C1476 C 0.38818 0.14186 0.72277 0.0
C1477 C 0.40581 0.13573 0.73196 0.0
H1478 H 0.88375 0.34953 0.72044 0.0
H1479 H 0.96573 0.3672 0.71253 0.0
H1480 H 0.94784 0.31884 0.70294 0.0
H1481 H 0.90872 0.2716 0.69607 0.0
H1482 H 0.82648 0.25544 0.70076 0.0
H1483 H 0.84464 0.30341 0.71199 0.0
C1484 C 0.89778 0.34311 0.71633 0.0
C1485 C 0.92615 0.36225 0.71731 0.0
C1486 C 0.88727 0.31548 0.71022 0.0
C1487 C 0.94389 0.35302 0.71228 0.0
C1488 C 0.93366 0.32534 0.70665 0.0
C1489 C 0.89489 0.27866 0.69967 0.0
C1490 C 0.86642 0.2602 0.69779 0.0
C1491 C 0.9054 0.30641 0.70556 0.0
C1492 C 0.84851 0.26946 0.70215 0.0
C1493 C 0.85887 0.2968 0.70856 0.0
H1494 H 0.23468 0.99772 0.61827 0.0
H1495 H 0.19782 0.97543 0.66343 0.0
H1496 H 0.22964 0.02191 0.6768 0.0
H1497 H 0.26709 0.06881 0.67549 0.0
H1498 H 0.30326 0.09208 0.63015 0.0
H1499 H 0.27252 0.04516 0.61697 0.0
C1500 C 0.23386 0.00307 0.63108 0.0
C1501 C 0.21408 0.98331 0.63991 0.0
C1502 C 0.25194 0.02991 0.6386 0.0
C1503 C 0.21283 0.99044 0.65641 0.0
C1504 C 0.23102 0.01694 0.66405 0.0
C1505 C 0.2684 0.06366 0.66274 0.0
C1506 C 0.2875 0.0839 0.65383 0.0
C1507 C 0.25052 0.03685 0.65523 0.0
C1508 C 0.2887 0.07688 0.63728 0.0
C1509 C 0.27116 0.05006 0.62975 0.0
H1510 H 0.99539 0.2389 0.63143 0.0
H1511 H 0.97211 0.15282 0.62696 0.0
H1512 H 0.93234 0.14203 0.64155 0.0
H1513 H 0.90313 0.15664 0.65506 0.0
H1514 H 0.92354 0.24155 0.65661 0.0
H1515 H 0.96505 0.25301 0.64341 0.0
C1516 C 0.98148 0.21766 0.63334 0.0
C1517 C 0.98721 0.19685 0.6281 0.0
C1518 C 0.95797 0.21132 0.64126 0.0
C1519 C 0.96891 0.16955 0.63112 0.0
C1520 C 0.94589 0.16323 0.63938 0.0
C1521 C 0.91684 0.17767 0.6526 0.0
C1522 C 0.91051 0.19829 0.65692 0.0
C1523 C 0.9402 0.18393 0.64451 0.0
C1524 C 0.92806 0.22535 0.6534 0.0
C1525 C 0.95178 0.2319 0.64586 0.0
H1526 H 0.77972 0.7913 0.6582 0.0
H1527 H 0.73402 0.73364 0.61524 0.0
H1528 H 0.74886 0.70231 0.62447 0.0
H1529 H 0.77648 0.69224 0.64395 0.0
H1530 H 0.82435 0.751 0.6861 0.0
H1531 H 0.80747 0.78126 0.67769 0.0
C1532 C 0.77315 0.77199 0.65076 0.0
C1533 C 0.75579 0.76494 0.63601 0.0
C1534 C 0.78236 0.75437 0.6559 0.0
C1535 C 0.74703 0.73949 0.62676 0.0
C1536 C 0.75573 0.72165 0.63194 0.0
C1537 C 0.78318 0.71162 0.65136 0.0
C1538 C 0.80169 0.71934 0.66563 0.0
C1539 C 0.77361 0.72902 0.64639 0.0
C1540 C 0.81022 0.74459 0.67502 0.0
C1541 C 0.80053 0.76189 0.67024 0.0
H1542 H 0.99962 0.7881 0.65411 0.0
H1543 H 0.96891 0.73803 0.60729 0.0
H1544 H 0.92415 0.70993 0.61706 0.0
H1545 H 0.89411 0.6995 0.63884 0.0
H1546 H 0.92432 0.74848 0.68597 0.0
H1547 H 0.9691 0.77727 0.67616 0.0
C1548 C 0.98305 0.7711 0.64606 0.0
C1549 C 0.98751 0.7651 0.63001 0.0
C1550 C 0.9574 0.75495 0.65179 0.0
C1551 C 0.96603 0.74283 0.61974 0.0
C1552 C 0.94043 0.72688 0.62529 0.0
C1553 C 0.91029 0.71668 0.64691 0.0
C1554 C 0.90575 0.72207 0.66302 0.0
C1555 C 0.93591 0.73278 0.64126 0.0
C1556 C 0.92728 0.74397 0.67348 0.0
C1557 C 0.95286 0.76041 0.66788 0.0
H1558 H 0.23954 0.21855 0.61474 0.0
H1559 H 0.18094 0.18356 0.64995 0.0
H1560 H 0.21026 0.16943 0.66441 0.0
H1561 H 0.25252 0.16709 0.66716 0.0
H1562 H 0.31169 0.20266 0.63227 0.0
H1563 H 0.28207 0.21621 0.61753 0.0
C1564 C 0.23314 0.20768 0.62552 0.0
C1565 C 0.20811 0.20219 0.63128 0.0
C1566 C 0.25017 0.19966 0.63383 0.0
C1567 C 0.20026 0.18837 0.64538 0.0
C1568 C 0.21694 0.18014 0.65361 0.0
C1569 C 0.25893 0.17768 0.65628 0.0
C1570 C 0.28431 0.18376 0.65083 0.0
C1571 C 0.24194 0.18569 0.64796 0.0
C1572 C 0.29231 0.19774 0.63678 0.0
C1573 C 0.27537 0.2055 0.62832 0.0
H1574 H 0.76936 0.01299 0.61992 0.0
H1575 H 0.77607 0.98733 0.66765 0.0
H1576 H 0.79239 0.03399 0.68048 0.0
H1577 H 0.80625 0.08233 0.67802 0.0
H1578 H 0.8018 0.10829 0.63005 0.0
H1579 H 0.78366 0.06123 0.6174 0.0
C1580 C 0.77469 0.01761 0.63311 0.0
C1581 C 0.77162 0.99667 0.64278 0.0
C1582 C 0.78462 0.04455 0.64036 0.0
C1583 C 0.77795 0.00295 0.65992 0.0
C1584 C 0.78748 0.02968 0.66726 0.0
C1585 C 0.80124 0.0777 0.6648 0.0
C1586 C 0.80538 0.0988 0.655 0.0
C1587 C 0.79107 0.05066 0.65758 0.0
C1588 C 0.79892 0.09247 0.63788 0.0
C1589 C 0.78849 0.06555 0.63063 0.0
H1590 H 0.42735 0.33799 0.72816 0.0
H1591 H 0.4988 0.32924 0.72615 0.0
H1592 H 0.47028 0.28256 0.71205 0.0
H1593 H 0.42504 0.24426 0.70052 0.0
H1594 H 0.35305 0.25185 0.70395 0.0
H1595 H 0.3817 0.29895 0.71732 0.0
C1596 C 0.43656 0.32579 0.72454 0.0
C1597 C 0.465 0.33685 0.72805 0.0
C1598 C 0.41998 0.29885 0.71677 0.0
C1599 C 0.47686 0.32094 0.72356 0.0
C1600 C 0.46061 0.29435 0.7155 0.0
C1601 C 0.41564 0.25628 0.70414 0.0
C1602 C 0.38703 0.24471 0.70118 0.0
C1603 C 0.43215 0.28309 0.71207 0.0
C1604 C 0.37506 0.26032 0.70614 0.0
C1605 C 0.39141 0.28726 0.71374 0.0
H1606 H 0.67238 0.13716 0.7118 0.0
H1607 H 0.70931 0.12902 0.75729 0.0
H1608 H 0.7519 0.14249 0.74511 0.0
H1609 H 0.77852 0.15587 0.72151 0.0
H1610 H 0.74101 0.16166 0.67554 0.0
H1611 H 0.6986 0.14922 0.6879 0.0
C1612 C 0.68956 0.13793 0.71903 0.0
C1613 C 0.68747 0.13211 0.73551 0.0
C1614 C 0.71391 0.14519 0.71185 0.0
C1615 C 0.71031 0.13382 0.74469 0.0
C1616 C 0.73468 0.14133 0.73769 0.0
C1617 C 0.76112 0.15451 0.71417 0.0
C1618 C 0.76304 0.15981 0.69761 0.0
C1619 C 0.73671 0.14706 0.72129 0.0
C1620 C 0.74014 0.15767 0.68829 0.0
C1621 C 0.71587 0.15059 0.69536 0.0
H1622 H 0.92939 0.58718 0.70265 0.0
H1623 H 0.88077 0.56025 0.74342 0.0
H1624 H 0.85449 0.5813 0.73405 0.0
H1625 H 0.84517 0.6074 0.71436 0.0
H1626 H 0.89118 0.63115 0.67244 0.0
H1627 H 0.91797 0.61047 0.68194 0.0
C1628 C 0.91279 0.58548 0.70939 0.0
C1629 C 0.90745 0.57237 0.72387 0.0
C1630 C 0.89709 0.59689 0.70367 0.0
C1631 C 0.88601 0.57083 0.73249 0.0
C1632 C 0.87069 0.58262 0.72706 0.0
C1633 C 0.861 0.60796 0.70728 0.0
C1634 C 0.86626 0.62085 0.69277 0.0
C1635 C 0.87612 0.59579 0.71271 0.0
C1636 C 0.88665 0.62121 0.68363 0.0
C1637 C 0.90207 0.60951 0.68909 0.0
H1638 H 0.46261 0.92859 0.16602 0.0
H1639 H 0.48776 0.00785 0.1923 0.0
H1640 H 0.49928 0.0294 0.16686 0.0
H1641 H 0.5026 0.02588 0.13712 0.0
H1642 H 0.47931 0.94683 0.11123 0.0
H1643 H 0.4668 0.92522 0.13652 0.0
C1644 C 0.47088 0.95064 0.16625 0.0
C1645 C 0.47429 0.9665 0.18113 0.0
C1646 C 0.47777 0.96299 0.1516 0.0
C1647 C 0.48454 0.99499 0.18104 0.0
C1648 C 0.49132 0.0074 0.1665 0.0
C1649 C 0.49503 0.00397 0.13703 0.0
C1650 C 0.49183 0.98806 0.1222 0.0
C1651 C 0.48809 0.99163 0.1517 0.0
C1652 C 0.48158 0.95958 0.12234 0.0
C1653 C 0.47457 0.94719 0.13685 0.0
H1654 H 0.04022 0.509 0.17605 0.0
H1655 H 0.95743 0.45219 0.18585 0.0
H1656 H 0.9419 0.44365 0.15647 0.0
H1657 H 0.9515 0.45406 0.1281 0.0
H1658 H 0.03401 0.51305 0.11884 0.0
H1659 H 0.04989 0.519 0.1479 0.0
C1660 C 0.01872 0.49487 0.17179 0.0
C1661 C 1.0 0.48146 0.18319 0.0
C1662 C 0.00985 0.49048 0.15496 0.0
C1663 C 0.97235 0.46266 0.17737 0.0
C1664 C 0.96341 0.45792 0.16057 0.0
C1665 C 0.97293 0.46833 0.13245 0.0
C1666 C 0.99149 0.48306 0.12124 0.0
C1667 C 0.98191 0.47202 0.14927 0.0
C1668 C 0.0193 0.50112 0.12709 0.0
C1669 C 0.0284 0.5047 0.14375 0.0
H1670 H 0.51038 0.52047 0.18235 0.0
H1671 H 0.4397 0.43837 0.17513 0.0
H1672 H 0.4479 0.4335 0.14648 0.0
H1673 H 0.47461 0.45314 0.12336 0.0
H1674 H 0.5447 0.53565 0.1306 0.0
H1675 H 0.53732 0.53984 0.15942 0.0
C1676 C 0.497 0.50137 0.17456 0.0
C1677 C 0.47458 0.47973 0.18085 0.0
C1678 C 0.50165 0.49888 0.15811 0.0
C1679 C 0.45704 0.45533 0.17053 0.0
C1680 C 0.46175 0.45254 0.15418 0.0
C1681 C 0.48841 0.47192 0.13131 0.0
C1682 C 0.51019 0.49405 0.12488 0.0
C1683 C 0.48391 0.47425 0.14782 0.0
C1684 C 0.52765 0.51843 0.13523 0.0
C1685 C 0.52351 0.52079 0.15172 0.0
H1686 H 0.98424 0.50463 0.84524 0.0
H1687 H 0.06929 0.53635 0.83752 0.0
H1688 H 0.08074 0.53597 0.86672 0.0
H1689 H 0.06653 0.52706 0.89445 0.0
H1690 H 0.98172 0.49753 0.9021 0.0
H1691 H 0.97023 0.49647 0.87284 0.0
C1692 C 0.00537 0.51183 0.84997 0.0
C1693 C 0.02592 0.52072 0.83924 0.0
C1694 C 0.0118 0.51176 0.86672 0.0
C1695 C 0.05306 0.52927 0.8455 0.0
C1696 C 0.05963 0.52916 0.8622 0.0
C1697 C 0.04557 0.52059 0.88974 0.0
C1698 C 0.02503 0.51232 0.90048 0.0
C1699 C 0.03916 0.5205 0.87292 0.0
C1700 C 0.99787 0.50355 0.8941 0.0
C1701 C 0.9913 0.50317 0.87739 0.0
H1702 H 0.55602 0.54275 0.85419 0.0
H1703 H 0.50477 0.45407 0.85015 0.0
H1704 H 0.48908 0.45727 0.87668 0.0
H1705 H 0.4895 0.48496 0.90102 0.0
H1706 H 0.53934 0.57361 0.90508 0.0
H1707 H 0.5553 0.57073 0.87835 0.0
C1708 C 0.54125 0.52414 0.85904 0.0
C1709 C 0.53194 0.49819 0.8502 0.0
C1710 C 0.53185 0.5261 0.87427 0.0
C1711 C 0.51291 0.4743 0.8568 0.0
C1712 C 0.50367 0.47608 0.87194 0.0
C1713 C 0.50397 0.50365 0.89609 0.0
C1714 C 0.51334 0.52943 0.90504 0.0
C1715 C 0.51305 0.50183 0.88079 0.0
C1716 C 0.53168 0.55351 0.89836 0.0
C1717 C 0.54093 0.55186 0.88313 0.0
H1718 H 0.49454 0.03694 0.84873 0.0
H1719 H 0.57602 0.04773 0.85469 0.0
H1720 H 0.56721 0.02875 0.881 0.0
H1721 H 0.53611 0.00827 0.90217 0.0
H1722 H 0.4542 0.99612 0.89577 0.0
H1723 H 0.46322 0.01575 0.8696 0.0
C1724 C 0.5103 0.03488 0.85566 0.0
C1725 C 0.53596 0.0439 0.84966 0.0
C1726 C 0.50496 0.02351 0.87069 0.0
C1727 C 0.55624 0.04145 0.85905 0.0
C1728 C 0.55116 0.03038 0.87408 0.0
C1729 C 0.5203 0.01008 0.89509 0.0
C1730 C 0.49451 1.00072 0.90093 0.0
C1731 C 0.5256 0.02134 0.88002 0.0
C1732 C 0.47411 0.00287 0.89149 0.0
C1733 C 0.47931 0.01424 0.87656 0.0
H1734 H 0.17587 0.29847 0.51264 0.0
H1735 H 0.09206 0.28102 0.50619 0.0
H1736 H 0.09972 0.30024 0.47986 0.0
H1737 H 0.13021 0.32192 0.45858 0.0
H1738 H 0.21414 0.33976 0.46515 0.0
H1739 H 0.20649 0.32053 0.49148 0.0
C1740 C 0.15924 0.29871 0.50541 0.0
C1741 C 0.13342 0.28826 0.51136 0.0
C1742 C 0.16383 0.30993 0.49031 0.0
C1743 C 0.1122 0.28914 0.50197 0.0
C1744 C 0.11653 0.30002 0.48687 0.0
C1745 C 0.14676 0.32144 0.46573 0.0
C1746 C 0.1727 0.33223 0.45988 0.0
C1747 C 0.14225 0.31045 0.48091 0.0
C1748 C 0.19407 0.33183 0.46943 0.0
C1749 C 0.18967 0.32072 0.48445 0.0
H1750 H 0.67145 0.8043 0.5095 0.0
H1751 H 0.69323 0.8898 0.51639 0.0
H1752 H 0.68136 0.88857 0.48717 0.0
H1753 H 0.66549 0.86357 0.45959 0.0
H1754 H 0.64255 0.77787 0.45248 0.0
H1755 H 0.65363 0.77863 0.48191 0.0
C1756 C 0.67328 0.82255 0.50463 0.0
C1757 C 0.68352 0.84717 0.5151 0.0
C1758 C 0.6662 0.82167 0.48779 0.0
C1759 C 0.68595 0.87072 0.50856 0.0
C1760 C 0.67903 0.87002 0.49186 0.0
C1761 C 0.66306 0.84512 0.4645 0.0
C1762 C 0.65344 0.82078 0.45393 0.0
C1763 C 0.66939 0.8457 0.48136 0.0
C1764 C 0.64985 0.79683 0.46043 0.0
C1765 C 0.65627 0.79729 0.47723 0.0
H1766 H 0.17855 0.86375 0.51868 0.0
H1767 H 0.10821 0.78154 0.50984 0.0
H1768 H 0.11897 0.77725 0.48174 0.0
H1769 H 0.14836 0.79712 0.45968 0.0
H1770 H 0.21808 0.87973 0.4685 0.0
H1771 H 0.20766 0.88366 0.49668 0.0
C1772 C 0.16574 0.84481 0.51063 0.0
C1773 C 0.14275 0.82291 0.51631 0.0
C1774 C 0.17193 0.84262 0.49452 0.0
C1775 C 0.12596 0.79869 0.50568 0.0
C1776 C 0.13216 0.79621 0.48966 0.0
C1777 C 0.16136 0.81587 0.46785 0.0
C1778 C 0.184 0.83808 0.4621 0.0
C1779 C 0.15509 0.81805 0.48396 0.0
C1780 C 0.20045 0.86245 0.47266 0.0
C1781 C 0.19456 0.86466 0.48876 0.0
H1782 H 0.7179 0.8631 0.17265 0.0
H1783 H 0.63401 0.84445 0.174 0.0
H1784 H 0.6383 0.84336 0.20362 0.0
H1785 H 0.66536 0.84644 0.22906 0.0
H1786 H 0.74803 0.86162 0.22738 0.0
H1787 H 0.74455 0.86502 0.19794 0.0
C1788 C 0.70045 0.85856 0.17937 0.0
C1789 C 0.67571 0.85394 0.17104 0.0
C1790 C 0.70277 0.8572 0.19636 0.0
C1791 C 0.65351 0.84862 0.18007 0.0
C1792 C 0.65582 0.84769 0.19702 0.0
C1793 C 0.68251 0.85015 0.22223 0.0
C1794 C 0.7069 0.85376 0.23044 0.0
C1795 C 0.68026 0.85171 0.20526 0.0
C1796 C 0.72912 0.8591 0.22143 0.0
C1797 C 0.72711 0.86092 0.20457 0.0
H1798 H 0.22778 0.87467 0.19224 0.0
H1799 H 0.14815 0.80491 0.17459 0.0
H1800 H 0.1308 0.80873 0.20056 0.0
H1801 H 0.13929 0.82915 0.22893 0.0
H1802 H 0.21909 0.89803 0.24744 0.0
H1803 H 0.23546 0.89726 0.22058 0.0
C1804 C 0.20655 0.86067 0.19407 0.0
C1805 C 0.18924 0.83948 0.18164 0.0
C1806 C 0.19687 0.86262 0.20922 0.0
C1807 C 0.16183 0.82124 0.1841 0.0
C1808 C 0.15193 0.8234 0.19892 0.0
C1809 C 0.16009 0.84442 0.22702 0.0
C1810 C 0.1779 0.86364 0.24017 0.0
C1811 C 0.16941 0.84362 0.21167 0.0
C1812 C 0.20501 0.88285 0.23755 0.0
C1813 C 0.21436 0.88247 0.22218 0.0
H1814 H 0.21973 0.36387 0.18587 0.0
H1815 H 0.15432 0.38245 0.1808 0.0
H1816 H 0.14086 0.36692 0.20759 0.0
H1817 H 0.14705 0.34724 0.23223 0.0
H1818 H 0.21143 0.32718 0.23716 0.0
H1819 H 0.22587 0.34394 0.21069 0.0
C1820 C 0.20268 0.36466 0.19073 0.0
C1821 C 0.18801 0.37425 0.1814 0.0
C1822 C 0.19479 0.35531 0.20606 0.0
C1823 C 0.16575 0.37492 0.18772 0.0
C1824 C 0.1581 0.36612 0.20304 0.0
C1825 C 0.16437 0.34674 0.22755 0.0
C1826 C 0.17819 0.33605 0.23664 0.0
C1827 C 0.17236 0.35614 0.21228 0.0
C1828 C 0.20033 0.33512 0.23032 0.0
C1829 C 0.20866 0.3448 0.21522 0.0
H1830 H 0.8207 0.65484 0.85109 0.0
H1831 H 0.77392 0.57022 0.82944 0.0
H1832 H 0.7828 0.58513 0.80203 0.0
H1833 H 0.80345 0.62225 0.78417 0.0
H1834 H 0.8516 0.70681 0.80601 0.0
H1835 H 0.84203 0.69189 0.83327 0.0
C1836 C 0.81227 0.63968 0.84036 0.0
C1837 C 0.79663 0.61146 0.84232 0.0
C1838 C 0.81757 0.64839 0.82463 0.0
C1839 C 0.78622 0.59205 0.82829 0.0
C1840 C 0.7912 0.60057 0.8126 0.0
C1841 C 0.81212 0.63744 0.79488 0.0
C1842 C 0.82814 0.66568 0.79292 0.0
C1843 C 0.8069 0.6287 0.81062 0.0
C1844 C 0.83879 0.685 0.80702 0.0
C1845 C 0.8335 0.67647 0.82268 0.0
H1846 H 0.34347 0.1342 0.84072 0.0
H1847 H 0.37056 0.22114 0.84706 0.0
H1848 H 0.35409 0.21883 0.81855 0.0
H1849 H 0.33239 0.19241 0.79171 0.0
H1850 H 0.3038 0.10529 0.7853 0.0
H1851 H 0.3197 0.10721 0.81407 0.0
C1852 C 0.34551 0.15257 0.83593 0.0
C1853 C 0.35863 0.17787 0.84601 0.0
C1854 C 0.33555 0.15105 0.81953 0.0
C1855 C 0.36122 0.20152 0.83951 0.0
C1856 C 0.35158 0.2002 0.82322 0.0
C1857 C 0.32971 0.17387 0.79663 0.0
C1858 C 0.3171 0.1488 0.78643 0.0
C1859 C 0.3389 0.17515 0.8131 0.0
C1860 C 0.3133 0.12481 0.79298 0.0
C1861 C 0.32253 0.12593 0.80938 0.0
H1862 H 0.77822 0.16441 0.83235 0.0
H1863 H 0.83838 0.14652 0.85431 0.0
H1864 H 0.85412 0.14447 0.82752 0.0
H1865 H 0.8524 0.15004 0.79814 0.0
H1866 H 0.79056 0.16543 0.77593 0.0
H1867 H 0.77396 0.16616 0.80256 0.0
C1868 C 0.79441 0.15952 0.83127 0.0
C1869 C 0.80721 0.15586 0.84541 0.0
C1870 C 0.8033 0.15821 0.81579 0.0
C1871 C 0.82846 0.14994 0.84372 0.0
C1872 C 0.83743 0.14865 0.82838 0.0
C1873 C 0.835 0.15311 0.79903 0.0
C1874 C 0.82303 0.158 0.78501 0.0
C1875 C 0.82525 0.15313 0.81437 0.0
C1876 C 0.80068 0.16227 0.78654 0.0
C1877 C 0.79099 0.16247 0.80176 0.0
H1878 H 0.34346 0.14267 0.51016 0.0
H1879 H 0.37317 0.22988 0.51185 0.0
H1880 H 0.38656 0.23572 0.54143 0.0
H1881 H 0.38712 0.21547 0.56702 0.0
H1882 H 0.35603 0.12799 0.5654 0.0
H1883 H 0.34585 0.12275 0.53556 0.0
C1884 C 0.35332 0.16301 0.51698 0.0
C1885 C 0.3574 0.18583 0.50889 0.0
C1886 C 0.36044 0.16609 0.53399 0.0
C1887 C 0.36973 0.21201 0.51788 0.0
C1888 C 0.37737 0.21535 0.53476 0.0
C1889 C 0.37848 0.19534 0.56009 0.0
C1890 C 0.37226 0.17214 0.56838 0.0
C1891 C 0.37242 0.19246 0.54298 0.0
C1892 C 0.36071 0.1461 0.55929 0.0
C1893 C 0.35499 0.14311 0.54224 0.0
H1894 H 0.89551 0.18272 0.52302 0.0
H1895 H 0.83879 0.20292 0.49876 0.0
H1896 H 0.82384 0.2093 0.52519 0.0
H1897 H 0.8245 0.20576 0.55496 0.0
H1898 H 0.88175 0.18598 0.5791 0.0
H1899 H 0.89838 0.18224 0.55292 0.0
C1900 C 0.87993 0.18859 0.52353 0.0
C1901 C 0.86817 0.19217 0.50894 0.0
C1902 C 0.87123 0.19192 0.53873 0.0
C1903 C 0.84833 0.20025 0.50982 0.0
C1904 C 0.83961 0.20368 0.52492 0.0
C1905 C 0.84089 0.20104 0.55455 0.0
C1906 C 0.85153 0.19578 0.569 0.0
C1907 C 0.8506 0.19913 0.53943 0.0
C1908 C 0.87266 0.18947 0.56815 0.0
C1909 C 0.88237 0.18752 0.55319 0.0
H1910 H 0.88918 0.69584 0.51884 0.0
H1911 H 0.80708 0.67824 0.50282 0.0
H1912 H 0.7919 0.66099 0.52885 0.0
H1913 H 0.80186 0.65196 0.55655 0.0
H1914 H 0.88413 0.67132 0.57332 0.0
H1915 H 0.89935 0.68738 0.54685 0.0
C1916 C 0.86801 0.68843 0.52105 0.0
C1917 C 0.84933 0.68815 0.50867 0.0
C1918 C 0.85941 0.67899 0.53629 0.0
C1919 C 0.82188 0.67816 0.51184 0.0
C1920 C 0.81316 0.66849 0.52684 0.0
C1921 C 0.82307 0.65945 0.55436 0.0
C1922 C 0.84179 0.66034 0.56689 0.0
C1923 C 0.83171 0.66883 0.53916 0.0
C1924 C 0.86932 0.67058 0.56393 0.0
C1925 C 0.87802 0.67968 0.54877 0.0
loop_
_geom_bond_atom_site_label_1
_geom_bond_atom_site_label_2
_geom_bond_distance
_geom_bond_site_symmetry_2
_ccdc_geom_bond_type
C0 C1 1.386 . S
C0 C2 1.397 . S
C0 H24 0.931 . S
C1 C0 1.386 . S
C1 C5 1.397 . S
C2 C0 1.397 . S
C2 C3 1.384 . S
C2 H25 0.930 . S
C3 C2 1.384 . S
C3 C4 1.377 . S
C3 C6 1.481 . S
C4 C3 1.377 . S
C4 C5 1.389 . S
C4 H26 0.929 . S
C5 C1 1.397 . S
C5 C4 1.389 . S
C5 H27 0.931 . S
C6 C3 1.481 . S
C6 C7 1.387 . S
C6 C11 1.390 . S
C7 C6 1.387 . S
C7 C8 1.401 . S
C7 H28 0.930 . S
C8 C7 1.401 . S
C8 C9 1.376 . S
C8 C17 1.511 . S
C9 C8 1.376 . S
C9 C10 1.392 . S
C9 H30 0.931 . S
C10 C9 1.392 . S
C10 C11 1.361 . S
C10 C12 1.500 . S
C11 C6 1.390 . S
C11 C10 1.361 . S
C11 H29 0.931 . S
C12 C10 1.500 . S
C12 C13 1.371 . S
C12 C14 1.365 . S
C13 C12 1.371 . S
C13 C23 1.386 . S
C13 H31 0.931 . S
C14 C12 1.365 . S
C14 C15 1.409 . S
C14 H32 0.929 . S
C15 C14 1.409 . S
C15 C16 1.380 . S
C15 H33 0.930 . S
C16 C15 1.380 . S
C16 C23 1.357 . S
C17 C8 1.511 . S
C17 C18 1.341 . S
C17 C19 1.371 . S
C18 C17 1.341 . S
C18 C22 1.394 . S
C18 H34 0.930 . S
C19 C17 1.371 . S
C19 C20 1.392 . S
C19 H35 0.931 . S
C20 C19 1.392 . S
C20 C21 1.331 . S
C20 H38 0.932 . S
C21 C20 1.331 . S
C21 C22 1.336 . S
C22 C18 1.394 . S
C22 C21 1.336 . S
C22 H37 0.929 . S
C23 C13 1.386 . S
C23 C16 1.357 . S
C23 H36 0.928 . S
H24 C0 0.931 . S
H25 C2 0.930 . S
H26 C4 0.929 . S
H27 C5 0.931 . S
H28 C7 0.930 . S
H29 C11 0.931 . S
H30 C9 0.931 . S
H31 C13 0.931 . S
H32 C14 0.929 . S
H33 C15 0.930 . S
H34 C18 0.930 . S
H35 C19 0.931 . S
H36 C23 0.928 . S
H37 C22 0.929 . S
H38 C20 0.932 . S
C39 C40 1.386 . S
C39 C41 1.397 . S
C39 H63 0.931 . S
C40 C39 1.386 . S
C40 C44 1.397 . S
C41 C39 1.397 . S
C41 C42 1.384 . S
C41 H64 0.930 . S
C42 C41 1.384 . S
C42 C43 1.377 . S
C42 C45 1.481 . S
C43 C42 1.377 . S
C43 C44 1.389 . S
C43 H65 0.929 . S
C44 C40 1.397 . S
C44 C43 1.389 . S
C44 H66 0.931 . S
C45 C42 1.481 . S
C45 C46 1.387 . S
C45 C50 1.390 . S
C46 C45 1.387 . S
C46 C47 1.401 . S
C46 H67 0.930 . S
C47 C46 1.401 . S
C47 C48 1.376 . S
C47 C56 1.511 . S
C48 C47 1.376 . S
C48 C49 1.392 . S
C48 H69 0.931 . S
C49 C48 1.392 . S
C49 C50 1.361 . S
C49 C51 1.500 . S
C50 C45 1.390 . S
C50 C49 1.361 . S
C50 H68 0.931 . S
C51 C49 1.500 . S
C51 C52 1.371 . S
C51 C53 1.365 . S
C52 C51 1.371 . S
C52 C62 1.386 . S
C52 H70 0.931 . S
C53 C51 1.365 . S
C53 C54 1.409 . S
C53 H71 0.929 . S
C54 C53 1.409 . S
C54 C55 1.380 . S
C54 H72 0.930 . S
C55 C54 1.380 . S
C55 C62 1.357 . S
C56 C47 1.511 . S
C56 C57 1.341 . S
C56 C58 1.371 . S
C57 C56 1.341 . S
C57 C61 1.394 . S
C57 H73 0.930 . S
C58 C56 1.371 . S
C58 C59 1.392 . S
C58 H74 0.931 . S
C59 C58 1.392 . S
C59 C60 1.331 . S
C59 H77 0.932 . S
C60 C59 1.331 . S
C60 C61 1.336 . S
C61 C57 1.394 . S
C61 C60 1.336 . S
C61 H76 0.929 . S
C62 C52 1.386 . S
C62 C55 1.357 . S
C62 H75 0.928 . S
H63 C39 0.931 . S
H64 C41 0.930 . S
H65 C43 0.929 . S
H66 C44 0.931 . S
H67 C46 0.930 . S
H68 C50 0.931 . S
H69 C48 0.931 . S
H70 C52 0.931 . S
H71 C53 0.929 . S
H72 C54 0.930 . S
H73 C57 0.930 . S
H74 C58 0.931 . S
H75 C62 0.928 . S
H76 C61 0.929 . S
H77 C59 0.932 . S
C78 C79 1.386 . S
C78 C80 1.397 . S
C78 H102 0.931 . S
C79 C78 1.386 . S
C79 C83 1.397 . S
C80 C78 1.397 . S
C80 C81 1.384 . S
C80 H103 0.930 . S
C81 C80 1.384 . S
C81 C82 1.377 . S
C81 C84 1.481 . S
C82 C81 1.377 . S
C82 C83 1.389 . S
C82 H104 0.929 . S
C83 C79 1.397 . S
C83 C82 1.389 . S
C83 H105 0.931 . S
C84 C81 1.481 . S
C84 C85 1.387 . S
C84 C89 1.390 . S
C85 C84 1.387 . S
C85 C86 1.401 . S
C85 H106 0.930 . S
C86 C85 1.401 . S
C86 C87 1.376 . S
C86 C95 1.511 . S
C87 C86 1.376 . S
C87 C88 1.392 . S
C87 H108 0.931 . S
C88 C87 1.392 . S
C88 C89 1.361 . S
C88 C90 1.500 . S
C89 C84 1.390 . S
C89 C88 1.361 . S
C89 H107 0.931 . S
C90 C88 1.500 . S
C90 C91 1.371 . S
C90 C92 1.365 . S
C91 C90 1.371 . S
C91 C101 1.386 . S
C91 H109 0.931 . S
C92 C90 1.365 . S
C92 C93 1.409 . S
C92 H110 0.929 . S
C93 C92 1.409 . S
C93 C94 1.380 . S
C93 H111 0.930 . S
C94 C93 1.380 . S
C94 C101 1.357 . S
C95 C86 1.511 . S
C95 C96 1.341 . S
C95 C97 1.371 . S
C96 C95 1.341 . S
C96 C100 1.394 . S
C96 H112 0.930 . S
C97 C95 1.371 . S
C97 C98 1.392 . S
C97 H113 0.931 . S
C98 C97 1.392 . S
C98 C99 1.331 . S
C98 H116 0.932 . S
C99 C98 1.331 . S
C99 C100 1.336 . S
C100 C96 1.394 . S
C100 C99 1.336 . S
C100 H115 0.929 . S
C101 C91 1.386 . S
C101 C94 1.357 . S
C101 H114 0.928 . S
H102 C78 0.931 . S
H103 C80 0.930 . S
H104 C82 0.929 . S
H105 C83 0.931 . S
H106 C85 0.930 . S
H107 C89 0.931 . S
H108 C87 0.931 . S
H109 C91 0.931 . S
H110 C92 0.929 . S
H111 C93 0.930 . S
H112 C96 0.930 . S
H113 C97 0.931 . S
H114 C101 0.928 . S
H115 C100 0.929 . S
H116 C98 0.932 . S
C117 C118 1.386 . S
C117 C119 1.397 . S
C117 H141 0.931 . S
C118 C117 1.386 . S
C118 C122 1.397 . S
C119 C117 1.397 . S
C119 C120 1.384 . S
C119 H142 0.930 . S
C120 C119 1.384 . S
C120 C121 1.377 . S
C120 C123 1.481 . S
C121 C120 1.377 . S
C121 C122 1.389 . S
C121 H143 0.929 . S
C122 C118 1.397 . S
C122 C121 1.389 . S
C122 H144 0.931 . S
C123 C120 1.481 . S
C123 C124 1.387 . S
C123 C128 1.390 . S
C124 C123 1.387 . S
C124 C125 1.401 . S
C124 H145 0.930 . S
C125 C124 1.401 . S
C125 C126 1.376 . S
C125 C134 1.511 . S
C126 C125 1.376 . S
C126 C127 1.392 . S
C126 H147 0.931 . S
C127 C126 1.392 . S
C127 C128 1.361 . S
C127 C129 1.500 . S
C128 C123 1.390 . S
C128 C127 1.361 . S
C128 H146 0.931 . S
C129 C127 1.500 . S
C129 C130 1.371 . S
C129 C131 1.365 . S
C130 C129 1.371 . S
C130 C140 1.386 . S
C130 H148 0.931 . S
C131 C129 1.365 . S
C131 C132 1.409 . S
C131 H149 0.929 . S
C132 C131 1.409 . S
C132 C133 1.380 . S
C132 H150 0.930 . S
C133 C132 1.380 . S
C133 C140 1.357 . S
C134 C125 1.511 . S
C134 C135 1.341 . S
C134 C136 1.371 . S
C135 C134 1.341 . S
C135 C139 1.394 . S
C135 H151 0.930 . S
C136 C134 1.371 . S
C136 C137 1.392 . S
C136 H152 0.931 . S
C137 C136 1.392 . S
C137 C138 1.331 . S
C137 H155 0.932 . S
C138 C137 1.331 . S
C138 C139 1.336 . S
C139 C135 1.394 . S
C139 C138 1.336 . S
C139 H154 0.929 . S
C140 C130 1.386 . S
C140 C133 1.357 . S
C140 H153 0.928 . S
H141 C117 0.931 . S
H142 C119 0.930 . S
H143 C121 0.929 . S
H144 C122 0.931 . S
H145 C124 0.930 . S
H146 C128 0.931 . S
H147 C126 0.931 . S
H148 C130 0.931 . S
H149 C131 0.929 . S
H150 C132 0.930 . S
H151 C135 0.930 . S
H152 C136 0.931 . S
H153 C140 0.928 . S
H154 C139 0.929 . S
H155 C137 0.932 . S
C156 C157 1.386 . S
C156 C158 1.397 . S
C156 H180 0.931 . S
C157 C156 1.386 . S
C157 C161 1.397 . S
C158 C156 1.397 . S
C158 C159 1.384 . S
C158 H181 0.930 . S
C159 C158 1.384 . S
C159 C160 1.377 . S
C159 C162 1.481 . S
C160 C159 1.377 . S
C160 C161 1.389 . S
C160 H182 0.929 . S
C161 C157 1.397 . S
C161 C160 1.389 . S
C161 H183 0.931 . S
C162 C159 1.481 . S
C162 C163 1.387 . S
C162 C167 1.390 . S
C163 C162 1.387 . S
C163 C164 1.401 . S
C163 H184 0.930 . S
C164 C163 1.401 . S
C164 C165 1.376 . S
C164 C173 1.511 . S
C165 C164 1.376 . S
C165 C166 1.392 . S
C165 H186 0.931 . S
C166 C165 1.392 . S
C166 C167 1.361 . S
C166 C168 1.500 . S
C167 C162 1.390 . S
C167 C166 1.361 . S
C167 H185 0.931 . S
C168 C166 1.500 . S
C168 C169 1.371 . S
C168 C170 1.365 . S
C169 C168 1.371 . S
C169 C179 1.386 . S
C169 H187 0.931 . S
C170 C168 1.365 . S
C170 C171 1.409 . S
C170 H188 0.929 . S
C171 C170 1.409 . S
C171 C172 1.380 . S
C171 H189 0.930 . S
C172 C171 1.380 . S
C172 C179 1.357 . S
C173 C164 1.511 . S
C173 C174 1.341 . S
C173 C175 1.371 . S
C174 C173 1.341 . S
C174 C178 1.394 . S
C174 H190 0.930 . S
C175 C173 1.371 . S
C175 C176 1.392 . S
C175 H191 0.931 . S
C176 C175 1.392 . S
C176 C177 1.331 . S
C176 H194 0.932 . S
C177 C176 1.331 . S
C177 C178 1.336 . S
C178 C174 1.394 . S
C178 C177 1.336 . S
C178 H193 0.929 . S
C179 C169 1.386 . S
C179 C172 1.357 . S
C179 H192 0.928 . S
H180 C156 0.931 . S
H181 C158 0.930 . S
H182 C160 0.929 . S
H183 C161 0.931 . S
H184 C163 0.930 . S
H185 C167 0.931 . S
H186 C165 0.931 . S
H187 C169 0.931 . S
H188 C170 0.929 . S
H189 C171 0.930 . S
H190 C174 0.930 . S
H191 C175 0.931 . S
H192 C179 0.928 . S
H193 C178 0.929 . S
H194 C176 0.932 . S
C195 C196 1.386 . S
C195 C197 1.397 . S
C195 H219 0.931 . S
C196 C195 1.386 . S
C196 C200 1.397 . S
C197 C195 1.397 . S
C197 C198 1.384 . S
C197 H220 0.930 . S
C198 C197 1.384 . S
C198 C199 1.377 . S
C198 C201 1.481 . S
C199 C198 1.377 . S
C199 C200 1.389 . S
C199 H221 0.929 . S
C200 C196 1.397 . S
C200 C199 1.389 . S
C200 H222 0.931 . S
C201 C198 1.481 . S
C201 C202 1.387 . S
C201 C206 1.390 . S
C202 C201 1.387 . S
C202 C203 1.401 . S
C202 H223 0.930 . S
C203 C202 1.401 . S
C203 C204 1.376 . S
C203 C212 1.511 . S
C204 C203 1.376 . S
C204 C205 1.392 . S
C204 H225 0.931 . S
C205 C204 1.392 . S
C205 C206 1.361 . S
C205 C207 1.500 . S
C206 C201 1.390 . S
C206 C205 1.361 . S
C206 H224 0.931 . S
C207 C205 1.500 . S
C207 C208 1.371 . S
C207 C209 1.365 . S
C208 C207 1.371 . S
C208 C218 1.386 . S
C208 H226 0.931 . S
C209 C207 1.365 . S
C209 C210 1.409 . S
C209 H227 0.929 . S
C210 C209 1.409 . S
C210 C211 1.380 . S
C210 H228 0.930 . S
C211 C210 1.380 . S
C211 C218 1.357 . S
C212 C203 1.511 . S
C212 C213 1.341 . S
C212 C214 1.371 . S
C213 C212 1.341 . S
C213 C217 1.394 . S
C213 H229 0.930 . S
C214 C212 1.371 . S
C214 C215 1.392 . S
C214 H230 0.931 . S
C215 C214 1.392 . S
C215 C216 1.331 . S
C215 H233 0.932 . S
C216 C215 1.331 . S
C216 C217 1.336 . S
C217 C213 1.394 . S
C217 C216 1.336 . S
C217 H232 0.929 . S
C218 C208 1.386 . S
C218 C211 1.357 . S
C218 H231 0.928 . S
H219 C195 0.931 . S
H220 C197 0.930 . S
H221 C199 0.929 . S
H222 C200 0.931 . S
H223 C202 0.930 . S
H224 C206 0.931 . S
H225 C204 0.931 . S
H226 C208 0.931 . S
H227 C209 0.929 . S
H228 C210 0.930 . S
H229 C213 0.930 . S
H230 C214 0.931 . S
H231 C218 0.928 . S
H232 C217 0.929 . S
H233 C215 0.932 . S
C234 C235 1.386 . S
C234 C236 1.397 . S
C234 H258 0.931 . S
C235 C234 1.386 . S
C235 C239 1.397 1_655 S
C236 C234 1.397 . S
C236 C237 1.384 . S
C236 H259 0.930 . S
C237 C236 1.384 . S
C237 C238 1.377 . S
C237 C240 1.481 . S
C238 C237 1.377 . S
C238 C239 1.389 1_655 S
C238 H260 0.929 1_655 S
C239 C235 1.397 1_455 S
C239 C238 1.389 1_455 S
C239 H261 0.931 . S
C240 C237 1.481 . S
C240 C241 1.387 . S
C240 C245 1.390 . S
C241 C240 1.387 . S
C241 C242 1.401 . S
C241 H262 0.930 . S
C242 C241 1.401 . S
C242 C243 1.376 . S
C242 C251 1.511 . S
C243 C242 1.376 . S
C243 C244 1.392 . S
C243 H264 0.931 . S
C244 C243 1.392 . S
C244 C245 1.361 . S
C244 C246 1.500 . S
C245 C240 1.390 . S
C245 C244 1.361 . S
C245 H263 0.931 . S
C246 C244 1.500 . S
C246 C247 1.371 . S
C246 C248 1.365 . S
C247 C246 1.371 . S
C247 C257 1.386 . S
C247 H265 0.931 . S
C248 C246 1.365 . S
C248 C249 1.409 . S
C248 H266 0.929 . S
C249 C248 1.409 . S
C249 C250 1.380 . S
C249 H267 0.930 . S
C250 C249 1.380 . S
C250 C257 1.357 . S
C251 C242 1.511 . S
C251 C252 1.341 . S
C251 C253 1.371 . S
C252 C251 1.341 . S
C252 C256 1.394 . S
C252 H268 0.930 . S
C253 C251 1.371 . S
C253 C254 1.392 . S
C253 H269 0.931 . S
C254 C253 1.392 . S
C254 C255 1.331 . S
C254 H272 0.932 . S
C255 C254 1.331 . S
C255 C256 1.336 . S
C256 C252 1.394 . S
C256 C255 1.336 . S
C256 H271 0.929 . S
C257 C247 1.386 . S
C257 C250 1.357 . S
C257 H270 0.928 . S
H258 C234 0.931 . S
H259 C236 0.930 . S
H260 C238 0.929 1_455 S
H261 C239 0.931 . S
H262 C241 0.930 . S
H263 C245 0.931 . S
H264 C243 0.931 . S
H265 C247 0.931 . S
H266 C248 0.929 . S
H267 C249 0.930 . S
H268 C252 0.930 . S
H269 C253 0.931 . S
H270 C257 0.928 . S
H271 C256 0.929 . S
H272 C254 0.932 . S
C273 C274 1.386 . S
C273 C275 1.397 . S
C273 H297 0.931 . S
C274 C273 1.386 . S
C274 C278 1.397 . S
C275 C273 1.397 . S
C275 C276 1.384 . S
C275 H298 0.930 . S
C276 C275 1.384 . S
C276 C277 1.377 . S
C276 C279 1.481 . S
C277 C276 1.377 . S
C277 C278 1.389 . S
C277 H299 0.929 . S
C278 C274 1.397 . S
C278 C277 1.389 . S
C278 H300 0.931 . S
C279 C276 1.481 . S
C279 C280 1.387 . S
C279 C284 1.390 . S
C280 C279 1.387 . S
C280 C281 1.401 . S
C280 H301 0.930 . S
C281 C280 1.401 . S
C281 C282 1.376 . S
C281 C290 1.511 . S
C282 C281 1.376 . S
C282 C283 1.392 . S
C282 H303 0.931 . S
C283 C282 1.392 . S
C283 C284 1.361 . S
C283 C285 1.500 . S
C284 C279 1.390 . S
C284 C283 1.361 . S
C284 H302 0.931 . S
C285 C283 1.500 . S
C285 C286 1.371 . S
C285 C287 1.365 . S
C286 C285 1.371 . S
C286 C296 1.386 . S
C286 H304 0.931 . S
C287 C285 1.365 . S
C287 C288 1.409 . S
C287 H305 0.929 . S
C288 C287 1.409 . S
C288 C289 1.380 . S
C288 H306 0.930 . S
C289 C288 1.380 . S
C289 C296 1.357 . S
C290 C281 1.511 . S
C290 C291 1.341 . S
C290 C292 1.371 . S
C291 C290 1.341 . S
C291 C295 1.394 . S
C291 H307 0.930 . S
C292 C290 1.371 . S
C292 C293 1.392 . S
C292 H308 0.931 . S
C293 C292 1.392 . S
C293 C294 1.331 . S
C293 H311 0.932 . S
C294 C293 1.331 . S
C294 C295 1.336 . S
C295 C291 1.394 . S
C295 C294 1.336 . S
C295 H310 0.929 . S
C296 C286 1.386 . S
C296 C289 1.357 . S
C296 H309 0.928 . S
H297 C273 0.931 . S
H298 C275 0.930 . S
H299 C277 0.929 . S
H300 C278 0.931 . S
H301 C280 0.930 . S
H302 C284 0.931 . S
H303 C282 0.931 . S
H304 C286 0.931 . S
H305 C287 0.929 . S
H306 C288 0.930 . S
H307 C291 0.930 . S
H308 C292 0.931 . S
H309 C296 0.928 . S
H310 C295 0.929 . S
H311 C293 0.932 . S
C312 C313 1.386 . S
C312 C314 1.397 . S
C312 H336 0.931 . S
C313 C312 1.386 . S
C313 C317 1.397 . S
C314 C312 1.397 . S
C314 C315 1.384 . S
C314 H337 0.930 . S
C315 C314 1.384 . S
C315 C316 1.377 . S
C315 C318 1.481 . S
C316 C315 1.377 . S
C316 C317 1.389 . S
C316 H338 0.929 . S
C317 C313 1.397 . S
C317 C316 1.389 . S
C317 H339 0.931 . S
C318 C315 1.481 . S
C318 C319 1.387 . S
C318 C323 1.390 . S
C319 C318 1.387 . S
C319 C320 1.401 . S
C319 H340 0.930 . S
C320 C319 1.401 . S
C320 C321 1.376 . S
C320 C329 1.511 . S
C321 C320 1.376 . S
C321 C322 1.392 . S
C321 H342 0.931 . S
C322 C321 1.392 . S
C322 C323 1.361 . S
C322 C324 1.500 . S
C323 C318 1.390 . S
C323 C322 1.361 . S
C323 H341 0.931 . S
C324 C322 1.500 . S
C324 C325 1.371 . S
C324 C326 1.365 . S
C325 C324 1.371 . S
C325 C335 1.386 . S
C325 H343 0.931 . S
C326 C324 1.365 . S
C326 C327 1.409 . S
C326 H344 0.929 . S
C327 C326 1.409 . S
C327 C328 1.380 . S
C327 H345 0.930 . S
C328 C327 1.380 . S
C328 C335 1.357 . S
C329 C320 1.511 . S
C329 C330 1.341 . S
C329 C331 1.371 . S
C330 C329 1.341 . S
C330 C334 1.394 . S
C330 H346 0.930 . S
C331 C329 1.371 . S
C331 C332 1.392 . S
C331 H347 0.931 . S
C332 C331 1.392 . S
C332 C333 1.331 . S
C332 H350 0.932 . S
C333 C332 1.331 . S
C333 C334 1.336 . S
C334 C330 1.394 . S
C334 C333 1.336 . S
C334 H349 0.929 . S
C335 C325 1.386 . S
C335 C328 1.357 . S
C335 H348 0.928 . S
H336 C312 0.931 . S
H337 C314 0.930 . S
H338 C316 0.929 . S
H339 C317 0.931 . S
H340 C319 0.930 . S
H341 C323 0.931 . S
H342 C321 0.931 . S
H343 C325 0.931 . S
H344 C326 0.929 . S
H345 C327 0.930 . S
H346 C330 0.930 . S
H347 C331 0.931 . S
H348 C335 0.928 . S
H349 C334 0.929 . S
H350 C332 0.932 . S
C351 C352 1.386 . S
C351 C353 1.397 . S
C351 H375 0.931 . S
C352 C351 1.386 . S
C352 C356 1.397 . S
C353 C351 1.397 . S
C353 C354 1.384 . S
C353 H376 0.930 . S
C354 C353 1.384 . S
C354 C355 1.377 . S
C354 C357 1.481 . S
C355 C354 1.377 . S
C355 C356 1.389 . S
C355 H377 0.929 . S
C356 C352 1.397 . S
C356 C355 1.389 . S
C356 H378 0.931 . S
C357 C354 1.481 . S
C357 C358 1.387 . S
C357 C362 1.390 . S
C358 C357 1.387 . S
C358 C359 1.401 . S
C358 H379 0.930 . S
C359 C358 1.401 . S
C359 C360 1.376 . S
C359 C368 1.511 . S
C360 C359 1.376 . S
C360 C361 1.392 . S
C360 H381 0.931 . S
C361 C360 1.392 . S
C361 C362 1.361 . S
C361 C363 1.500 . S
C362 C357 1.390 . S
C362 C361 1.361 . S
C362 H380 0.931 . S
C363 C361 1.500 . S
C363 C364 1.371 . S
C363 C365 1.365 . S
C364 C363 1.371 . S
C364 C374 1.386 . S
C364 H382 0.931 . S
C365 C363 1.365 . S
C365 C366 1.409 . S
C365 H383 0.929 . S
C366 C365 1.409 . S
C366 C367 1.380 . S
C366 H384 0.930 . S
C367 C366 1.380 . S
C367 C374 1.357 . S
C368 C359 1.511 . S
C368 C369 1.341 . S
C368 C370 1.371 . S
C369 C368 1.341 . S
C369 C373 1.394 . S
C369 H385 0.930 . S
C370 C368 1.371 . S
C370 C371 1.392 . S
C370 H386 0.931 . S
C371 C370 1.392 . S
C371 C372 1.331 . S
C371 H389 0.932 . S
C372 C371 1.331 . S
C372 C373 1.336 . S
C373 C369 1.394 . S
C373 C372 1.336 . S
C373 H388 0.929 . S
C374 C364 1.386 . S
C374 C367 1.357 . S
C374 H387 0.928 . S
H375 C351 0.931 . S
H376 C353 0.930 . S
H377 C355 0.929 . S
H378 C356 0.931 . S
H379 C358 0.930 . S
H380 C362 0.931 . S
H381 C360 0.931 . S
H382 C364 0.931 . S
H383 C365 0.929 . S
H384 C366 0.930 . S
H385 C369 0.930 . S
H386 C370 0.931 . S
H387 C374 0.928 . S
H388 C373 0.929 . S
H389 C371 0.932 . S
C390 C391 1.386 . S
C390 C392 1.397 . S
C390 H414 0.931 . S
C391 C390 1.386 . S
C391 C395 1.397 . S
C392 C390 1.397 . S
C392 C393 1.384 . S
C392 H415 0.930 . S
C393 C392 1.384 . S
C393 C394 1.377 . S
C393 C396 1.481 . S
C394 C393 1.377 . S
C394 C395 1.389 . S
C394 H416 0.929 . S
C395 C391 1.397 . S
C395 C394 1.389 . S
C395 H417 0.931 . S
C396 C393 1.481 . S
C396 C397 1.387 . S
C396 C401 1.390 . S
C397 C396 1.387 . S
C397 C398 1.401 . S
C397 H418 0.930 . S
C398 C397 1.401 . S
C398 C399 1.376 . S
C398 C407 1.511 . S
C399 C398 1.376 . S
C399 C400 1.392 . S
C399 H420 0.931 . S
C400 C399 1.392 . S
C400 C401 1.361 . S
C400 C402 1.500 . S
C401 C396 1.390 . S
C401 C400 1.361 . S
C401 H419 0.931 . S
C402 C400 1.500 . S
C402 C403 1.371 . S
C402 C404 1.365 . S
C403 C402 1.371 . S
C403 C413 1.386 . S
C403 H421 0.931 . S
C404 C402 1.365 . S
C404 C405 1.409 . S
C404 H422 0.929 . S
C405 C404 1.409 . S
C405 C406 1.380 . S
C405 H423 0.930 . S
C406 C405 1.380 . S
C406 C413 1.357 . S
C407 C398 1.511 . S
C407 C408 1.341 . S
C407 C409 1.371 . S
C408 C407 1.341 . S
C408 C412 1.394 . S
C408 H424 0.930 . S
C409 C407 1.371 . S
C409 C410 1.392 . S
C409 H425 0.931 . S
C410 C409 1.392 . S
C410 C411 1.331 . S
C410 H428 0.932 . S
C411 C410 1.331 . S
C411 C412 1.336 . S
C412 C408 1.394 . S
C412 C411 1.336 . S
C412 H427 0.929 . S
C413 C403 1.386 . S
C413 C406 1.357 . S
C413 H426 0.928 . S
H414 C390 0.931 . S
H415 C392 0.930 . S
H416 C394 0.929 . S
H417 C395 0.931 . S
H418 C397 0.930 . S
H419 C401 0.931 . S
H420 C399 0.931 . S
H421 C403 0.931 . S
H422 C404 0.929 . S
H423 C405 0.930 . S
H424 C408 0.930 . S
H425 C409 0.931 . S
H426 C413 0.928 . S
H427 C412 0.929 . S
H428 C410 0.932 . S
C429 C430 1.386 . S
C429 C431 1.397 . S
C429 H453 0.931 . S
C430 C429 1.386 . S
C430 C434 1.397 . S
C431 C429 1.397 . S
C431 C432 1.384 . S
C431 H454 0.930 . S
C432 C431 1.384 . S
C432 C433 1.377 . S
C432 C435 1.481 . S
C433 C432 1.377 . S
C433 C434 1.389 . S
C433 H455 0.929 . S
C434 C430 1.397 . S
C434 C433 1.389 . S
C434 H456 0.931 . S
C435 C432 1.481 . S
C435 C436 1.387 . S
C435 C440 1.390 . S
C436 C435 1.387 . S
C436 C437 1.401 . S
C436 H457 0.930 . S
C437 C436 1.401 . S
C437 C438 1.376 . S
C437 C446 1.511 . S
C438 C437 1.376 . S
C438 C439 1.392 . S
C438 H459 0.931 . S
C439 C438 1.392 . S
C439 C440 1.361 . S
C439 C441 1.500 . S
C440 C435 1.390 . S
C440 C439 1.361 . S
C440 H458 0.931 . S
C441 C439 1.500 . S
C441 C442 1.371 . S
C441 C443 1.365 . S
C442 C441 1.371 . S
C442 C452 1.386 . S
C442 H460 0.931 . S
C443 C441 1.365 . S
C443 C444 1.409 . S
C443 H461 0.929 . S
C444 C443 1.409 . S
C444 C445 1.380 . S
C444 H462 0.930 . S
C445 C444 1.380 . S
C445 C452 1.357 . S
C446 C437 1.511 . S
C446 C447 1.341 . S
C446 C448 1.371 . S
C447 C446 1.341 . S
C447 C451 1.394 . S
C447 H463 0.930 . S
C448 C446 1.371 . S
C448 C449 1.392 . S
C448 H464 0.931 . S
C449 C448 1.392 . S
C449 C450 1.331 . S
C449 H467 0.932 . S
C450 C449 1.331 . S
C450 C451 1.336 . S
C451 C447 1.394 . S
C451 C450 1.336 . S
C451 H466 0.929 . S
C452 C442 1.386 . S
C452 C445 1.357 . S
C452 H465 0.928 . S
H453 C429 0.931 . S
H454 C431 0.930 . S
H455 C433 0.929 . S
H456 C434 0.931 . S
H457 C436 0.930 . S
H458 C440 0.931 . S
H459 C438 0.931 . S
H460 C442 0.931 . S
H461 C443 0.929 . S
H462 C444 0.930 . S
H463 C447 0.930 . S
H464 C448 0.931 . S
H465 C452 0.928 . S
H466 C451 0.929 . S
H467 C449 0.932 . S
C468 C469 1.386 . S
C468 C470 1.397 . S
C468 H492 0.931 . S
C469 C468 1.386 . S
C469 C473 1.397 . S
C470 C468 1.397 . S
C470 C471 1.384 . S
C470 H493 0.930 . S
C471 C470 1.384 . S
C471 C472 1.377 . S
C471 C474 1.481 . S
C472 C471 1.377 . S
C472 C473 1.389 . S
C472 H494 0.929 . S
C473 C469 1.397 . S
C473 C472 1.389 . S
C473 H495 0.931 . S
C474 C471 1.481 . S
C474 C475 1.387 . S
C474 C479 1.390 . S
C475 C474 1.387 . S
C475 C476 1.401 . S
C475 H496 0.930 . S
C476 C475 1.401 . S
C476 C477 1.376 . S
C476 C485 1.511 . S
C477 C476 1.376 . S
C477 C478 1.392 . S
C477 H498 0.931 . S
C478 C477 1.392 . S
C478 C479 1.361 . S
C478 C480 1.500 . S
C479 C474 1.390 . S
C479 C478 1.361 . S
C479 H497 0.931 . S
C480 C478 1.500 . S
C480 C481 1.371 . S
C480 C482 1.365 . S
C481 C480 1.371 . S
C481 C491 1.386 . S
C481 H499 0.931 . S
C482 C480 1.365 . S
C482 C483 1.409 . S
C482 H500 0.929 . S
C483 C482 1.409 . S
C483 C484 1.380 . S
C483 H501 0.930 . S
C484 C483 1.380 . S
C484 C491 1.357 . S
C485 C476 1.511 . S
C485 C486 1.341 . S
C485 C487 1.371 . S
C486 C485 1.341 . S
C486 C490 1.394 . S
C486 H502 0.930 . S
C487 C485 1.371 . S
C487 C488 1.392 . S
C487 H503 0.931 . S
C488 C487 1.392 . S
C488 C489 1.331 . S
C488 H506 0.932 . S
C489 C488 1.331 . S
C489 C490 1.336 . S
C490 C486 1.394 . S
C490 C489 1.336 . S
C490 H505 0.929 . S
C491 C481 1.386 . S
C491 C484 1.357 . S
C491 H504 0.928 . S
H492 C468 0.931 . S
H493 C470 0.930 . S
H494 C472 0.929 . S
H495 C473 0.931 . S
H496 C475 0.930 . S
H497 C479 0.931 . S
H498 C477 0.931 . S
H499 C481 0.931 . S
H500 C482 0.929 . S
H501 C483 0.930 . S
H502 C486 0.930 . S
H503 C487 0.931 . S
H504 C491 0.928 . S
H505 C490 0.929 . S
H506 C488 0.932 . S
C507 C508 1.386 . S
C507 C509 1.397 . S
C507 H531 0.931 . S
C508 C507 1.386 . S
C508 C512 1.397 . S
C509 C507 1.397 . S
C509 C510 1.384 . S
C509 H532 0.930 . S
C510 C509 1.384 . S
C510 C511 1.377 . S
C510 C513 1.481 . S
C511 C510 1.377 . S
C511 C512 1.389 . S
C511 H533 0.929 . S
C512 C508 1.397 . S
C512 C511 1.389 . S
C512 H534 0.931 . S
C513 C510 1.481 . S
C513 C514 1.387 . S
C513 C518 1.390 . S
C514 C513 1.387 . S
C514 C515 1.401 . S
C514 H535 0.930 . S
C515 C514 1.401 . S
C515 C516 1.376 . S
C515 C524 1.511 . S
C516 C515 1.376 . S
C516 C517 1.392 . S
C516 H537 0.931 . S
C517 C516 1.392 . S
C517 C518 1.361 . S
C517 C519 1.500 . S
C518 C513 1.390 . S
C518 C517 1.361 . S
C518 H536 0.931 . S
C519 C517 1.500 . S
C519 C520 1.371 . S
C519 C521 1.365 . S
C520 C519 1.371 . S
C520 C530 1.386 . S
C520 H538 0.931 . S
C521 C519 1.365 . S
C521 C522 1.409 . S
C521 H539 0.929 . S
C522 C521 1.409 . S
C522 C523 1.380 . S
C522 H540 0.930 . S
C523 C522 1.380 . S
C523 C530 1.357 . S
C524 C515 1.511 . S
C524 C525 1.341 . S
C524 C526 1.371 . S
C525 C524 1.341 . S
C525 C529 1.394 . S
C525 H541 0.930 . S
C526 C524 1.371 . S
C526 C527 1.392 . S
C526 H542 0.931 . S
C527 C526 1.392 . S
C527 C528 1.331 . S
C527 H545 0.932 . S
C528 C527 1.331 . S
C528 C529 1.336 . S
C529 C525 1.394 . S
C529 C528 1.336 . S
C529 H544 0.929 . S
C530 C520 1.386 . S
C530 C523 1.357 . S
C530 H543 0.928 . S
H531 C507 0.931 . S
H532 C509 0.930 . S
H533 C511 0.929 . S
H534 C512 0.931 . S
H535 C514 0.930 . S
H536 C518 0.931 . S
H537 C516 0.931 . S
H538 C520 0.931 . S
H539 C521 0.929 . S
H540 C522 0.930 . S
H541 C525 0.930 . S
H542 C526 0.931 . S
H543 C530 0.928 . S
H544 C529 0.929 . S
H545 C527 0.932 . S
C546 C547 1.386 . S
C546 C548 1.397 . S
C546 H570 0.931 . S
C547 C546 1.386 . S
C547 C551 1.397 . S
C548 C546 1.397 . S
C548 C549 1.384 . S
C548 H571 0.930 . S
C549 C548 1.384 . S
C549 C550 1.377 . S
C549 C552 1.481 . S
C550 C549 1.377 . S
C550 C551 1.389 . S
C550 H572 0.929 . S
C551 C547 1.397 . S
C551 C550 1.389 . S
C551 H573 0.931 . S
C552 C549 1.481 . S
C552 C553 1.387 . S
C552 C557 1.390 . S
C553 C552 1.387 . S
C553 C554 1.401 . S
C553 H574 0.930 . S
C554 C553 1.401 . S
C554 C555 1.376 . S
C554 C563 1.511 . S
C555 C554 1.376 . S
C555 C556 1.392 . S
C555 H576 0.931 . S
C556 C555 1.392 . S
C556 C557 1.361 . S
C556 C558 1.500 . S
C557 C552 1.390 . S
C557 C556 1.361 . S
C557 H575 0.931 . S
C558 C556 1.500 . S
C558 C559 1.371 . S
C558 C560 1.365 . S
C559 C558 1.371 . S
C559 C569 1.386 . S
C559 H577 0.931 . S
C560 C558 1.365 . S
C560 C561 1.409 . S
C560 H578 0.929 . S
C561 C560 1.409 . S
C561 C562 1.380 . S
C561 H579 0.930 . S
C562 C561 1.380 . S
C562 C569 1.357 . S
C563 C554 1.511 . S
C563 C564 1.341 . S
C563 C565 1.371 . S
C564 C563 1.341 . S
C564 C568 1.394 . S
C564 H580 0.930 . S
C565 C563 1.371 . S
C565 C566 1.392 . S
C565 H581 0.931 . S
C566 C565 1.392 . S
C566 C567 1.331 . S
C566 H584 0.932 . S
C567 C566 1.331 . S
C567 C568 1.336 . S
C568 C564 1.394 . S
C568 C567 1.336 . S
C568 H583 0.929 . S
C569 C559 1.386 . S
C569 C562 1.357 . S
C569 H582 0.928 . S
H570 C546 0.931 . S
H571 C548 0.930 . S
H572 C550 0.929 . S
H573 C551 0.931 . S
H574 C553 0.930 . S
H575 C557 0.931 . S
H576 C555 0.931 . S
H577 C559 0.931 . S
H578 C560 0.929 . S
H579 C561 0.930 . S
H580 C564 0.930 . S
H581 C565 0.931 . S
H582 C569 0.928 . S
H583 C568 0.929 . S
H584 C566 0.932 . S
C585 C586 1.386 . S
C585 C587 1.397 . S
C585 H609 0.931 . S
C586 C585 1.386 . S
C586 C590 1.397 . S
C587 C585 1.397 . S
C587 C588 1.384 . S
C587 H610 0.930 . S
C588 C587 1.384 . S
C588 C589 1.377 . S
C588 C591 1.481 . S
C589 C588 1.377 . S
C589 C590 1.389 . S
C589 H611 0.929 . S
C590 C586 1.397 . S
C590 C589 1.389 . S
C590 H612 0.931 . S
C591 C588 1.481 . S
C591 C592 1.387 . S
C591 C596 1.390 . S
C592 C591 1.387 . S
C592 C593 1.401 . S
C592 H613 0.930 . S
C593 C592 1.401 . S
C593 C594 1.376 . S
C593 C602 1.511 . S
C594 C593 1.376 . S
C594 C595 1.392 . S
C594 H615 0.931 . S
C595 C594 1.392 . S
C595 C596 1.361 . S
C595 C597 1.500 . S
C596 C591 1.390 . S
C596 C595 1.361 . S
C596 H614 0.931 . S
C597 C595 1.500 . S
C597 C598 1.371 . S
C597 C599 1.365 . S
C598 C597 1.371 . S
C598 C608 1.386 . S
C598 H616 0.931 . S
C599 C597 1.365 . S
C599 C600 1.409 . S
C599 H617 0.929 . S
C600 C599 1.409 . S
C600 C601 1.380 . S
C600 H618 0.930 . S
C601 C600 1.380 . S
C601 C608 1.357 . S
C602 C593 1.511 . S
C602 C603 1.341 . S
C602 C604 1.371 . S
C603 C602 1.341 . S
C603 C607 1.394 . S
C603 H619 0.930 . S
C604 C602 1.371 . S
C604 C605 1.392 . S
C604 H620 0.931 . S
C605 C604 1.392 . S
C605 C606 1.331 . S
C605 H623 0.932 . S
C606 C605 1.331 . S
C606 C607 1.336 . S
C607 C603 1.394 . S
C607 C606 1.336 . S
C607 H622 0.929 . S
C608 C598 1.386 . S
C608 C601 1.357 . S
C608 H621 0.928 . S
H609 C585 0.931 . S
H610 C587 0.930 . S
H611 C589 0.929 . S
H612 C590 0.931 . S
H613 C592 0.930 . S
H614 C596 0.931 . S
H615 C594 0.931 . S
H616 C598 0.931 . S
H617 C599 0.929 . S
H618 C600 0.930 . S
H619 C603 0.930 . S
H620 C604 0.931 . S
H621 C608 0.928 . S
H622 C607 0.929 . S
H623 C605 0.932 . S
C624 C625 1.386 1_655 S
C624 C626 1.397 1_655 S
C624 H648 0.931 . S
C625 C624 1.386 1_455 S
C625 C629 1.397 . S
C626 C624 1.397 1_455 S
C626 C627 1.384 . S
C626 H649 0.930 1_455 S
C627 C626 1.384 . S
C627 C628 1.377 . S
C627 C630 1.481 . S
C628 C627 1.377 . S
C628 C629 1.389 . S
C628 H650 0.929 . S
C629 C625 1.397 . S
C629 C628 1.389 . S
C629 H651 0.931 . S
C630 C627 1.481 . S
C630 C631 1.387 . S
C630 C635 1.390 . S
C631 C630 1.387 . S
C631 C632 1.401 . S
C631 H652 0.930 . S
C632 C631 1.401 . S
C632 C633 1.376 . S
C632 C641 1.511 . S
C633 C632 1.376 . S
C633 C634 1.392 . S
C633 H654 0.931 . S
C634 C633 1.392 . S
C634 C635 1.361 . S
C634 C636 1.500 . S
C635 C630 1.390 . S
C635 C634 1.361 . S
C635 H653 0.931 . S
C636 C634 1.500 . S
C636 C637 1.371 . S
C636 C638 1.365 . S
C637 C636 1.371 . S
C637 C647 1.386 . S
C637 H655 0.931 . S
C638 C636 1.365 . S
C638 C639 1.409 . S
C638 H656 0.929 . S
C639 C638 1.409 . S
C639 C640 1.380 . S
C639 H657 0.930 . S
C640 C639 1.380 . S
C640 C647 1.357 . S
C641 C632 1.511 . S
C641 C642 1.341 . S
C641 C643 1.371 . S
C642 C641 1.341 . S
C642 C646 1.394 . S
C642 H658 0.930 . S
C643 C641 1.371 . S
C643 C644 1.392 . S
C643 H659 0.931 . S
C644 C643 1.392 . S
C644 C645 1.331 . S
C644 H662 0.932 . S
C645 C644 1.331 . S
C645 C646 1.336 . S
C646 C642 1.394 . S
C646 C645 1.336 . S
C646 H661 0.929 . S
C647 C637 1.386 . S
C647 C640 1.357 . S
C647 H660 0.928 . S
H648 C624 0.931 . S
H649 C626 0.930 1_655 S
H650 C628 0.929 . S
H651 C629 0.931 . S
H652 C631 0.930 . S
H653 C635 0.931 . S
H654 C633 0.931 . S
H655 C637 0.931 . S
H656 C638 0.929 . S
H657 C639 0.930 . S
H658 C642 0.930 . S
H659 C643 0.931 . S
H660 C647 0.928 . S
H661 C646 0.929 . S
H662 C644 0.932 . S
C663 C664 1.386 . S
C663 C665 1.397 . S
C663 H687 0.931 . S
C664 C663 1.386 . S
C664 C668 1.397 . S
C665 C663 1.397 . S
C665 C666 1.384 . S
C665 H688 0.930 . S
C666 C665 1.384 . S
C666 C667 1.377 . S
C666 C669 1.481 . S
C667 C666 1.377 . S
C667 C668 1.389 . S
C667 H689 0.929 . S
C668 C664 1.397 . S
C668 C667 1.389 . S
C668 H690 0.931 . S
C669 C666 1.481 . S
C669 C670 1.387 . S
C669 C674 1.390 . S
C670 C669 1.387 . S
C670 C671 1.401 . S
C670 H691 0.930 . S
C671 C670 1.401 . S
C671 C672 1.376 . S
C671 C680 1.511 . S
C672 C671 1.376 . S
C672 C673 1.392 . S
C672 H693 0.931 . S
C673 C672 1.392 . S
C673 C674 1.361 . S
C673 C675 1.500 . S
C674 C669 1.390 . S
C674 C673 1.361 . S
C674 H692 0.931 . S
C675 C673 1.500 . S
C675 C676 1.371 . S
C675 C677 1.365 . S
C676 C675 1.371 . S
C676 C686 1.386 . S
C676 H694 0.931 . S
C677 C675 1.365 . S
C677 C678 1.409 . S
C677 H695 0.929 . S
C678 C677 1.409 . S
C678 C679 1.380 . S
C678 H696 0.930 . S
C679 C678 1.380 . S
C679 C686 1.357 . S
C680 C671 1.511 . S
C680 C681 1.341 . S
C680 C682 1.371 . S
C681 C680 1.341 . S
C681 C685 1.394 . S
C681 H697 0.930 . S
C682 C680 1.371 . S
C682 C683 1.392 . S
C682 H698 0.931 . S
C683 C682 1.392 . S
C683 C684 1.331 . S
C683 H701 0.932 . S
C684 C683 1.331 . S
C684 C685 1.336 . S
C685 C681 1.394 . S
C685 C684 1.336 . S
C685 H700 0.929 . S
C686 C676 1.386 . S
C686 C679 1.357 . S
C686 H699 0.928 . S
H687 C663 0.931 . S
H688 C665 0.930 . S
H689 C667 0.929 . S
H690 C668 0.931 . S
H691 C670 0.930 . S
H692 C674 0.931 . S
H693 C672 0.931 . S
H694 C676 0.931 . S
H695 C677 0.929 . S
H696 C678 0.930 . S
H697 C681 0.930 . S
H698 C682 0.931 . S
H699 C686 0.928 . S
H700 C685 0.929 . S
H701 C683 0.932 . S
Eu702 C711 2.828 . S
Eu702 O713 2.391 . S
Eu702 O715 2.418 . S
Eu702 O720 2.373 1_565 S
Eu702 O723 2.488 . S
Eu702 O724 2.448 1_565 S
Eu702 O725 2.349 1_565 S
Eu703 O712 2.373 1_545 S
Eu703 O716 2.488 . S
Eu703 O717 2.470 1_545 S
Eu703 O718 2.349 1_545 S
Eu703 O721 2.392 . S
Eu703 O722 2.418 . S
Eu703 C732 2.828 . S
C704 O722 1.197 1_556 S
C704 O725 1.284 . S
C705 C706 1.379 1_565 S
C705 C709 1.373 . S
C705 C711 1.505 . S
C706 C705 1.379 1_545 S
C706 C708 1.369 . S
C706 H734 0.930 . S
C707 C709 1.383 . S
C707 C710 1.382 1_565 S
C707 H735 0.930 . S
C708 C706 1.369 . S
C708 C710 1.392 . S
C708 H736 0.930 . S
C709 C705 1.373 . S
C709 C707 1.383 . S
C709 H737 0.931 . S
C710 C707 1.382 1_545 S
C710 C708 1.392 . S
C711 Eu702 2.828 . S
C711 C705 1.505 . S
C711 O723 1.249 . S
C711 O724 1.209 1_565 S
O712 Eu703 2.373 1_565 S
O712 C714 1.258 . S
O713 Eu702 2.391 . S
O713 C714 1.243 1_556 S
C714 O712 1.258 . S
C714 O713 1.243 1_554 S
O715 Eu702 2.418 . S
O715 C719 1.244 1_556 S
O716 Eu703 2.488 . S
O716 C732 1.249 . S
O717 Eu703 2.470 1_565 S
O717 C732 1.242 1_565 S
O718 Eu703 2.349 1_565 S
O718 C719 1.265 . S
C719 O715 1.244 1_554 S
C719 O718 1.265 . S
O720 Eu702 2.373 1_545 S
O720 C733 1.258 . S
O721 Eu703 2.392 . S
O721 C733 1.242 1_554 S
O722 Eu703 2.418 . S
O722 C704 1.197 1_554 S
O723 Eu702 2.488 . S
O723 C711 1.249 . S
O724 Eu702 2.448 1_545 S
O724 C711 1.209 1_545 S
O725 Eu702 2.349 1_545 S
O725 C704 1.284 . S
C726 C727 1.379 1_545 S
C726 C730 1.373 . S
C726 C732 1.505 . S
C727 C726 1.379 1_565 S
C727 C729 1.369 . S
C727 H738 0.930 . S
C728 C730 1.383 . S
C728 C731 1.382 1_545 S
C728 H739 0.930 . S
C729 C727 1.369 . S
C729 C731 1.392 . S
C729 H740 0.930 . S
C730 C726 1.373 . S
C730 C728 1.383 . S
C730 H741 0.931 . S
C731 C728 1.382 1_565 S
C731 C729 1.392 . S
C732 Eu703 2.828 . S
C732 O716 1.249 . S
C732 O717 1.242 1_545 S
C732 C726 1.505 . S
C733 O720 1.258 . S
C733 O721 1.242 1_556 S
H734 C706 0.930 . S
H735 C707 0.930 . S
H736 C708 0.930 . S
H737 C709 0.931 . S
H738 C727 0.930 . S
H739 C728 0.930 . S
H740 C729 0.930 . S
H741 C730 0.931 . S
Eu742 C751 2.828 . S
Eu742 O753 2.392 1_556 S
Eu742 O755 2.418 . S
Eu742 O760 2.373 1_455 S
Eu742 O763 2.488 . S
Eu742 O764 2.471 1_455 S
Eu742 O765 2.349 1_455 S
Eu743 O752 2.373 1_655 S
Eu743 O756 2.488 . S
Eu743 O757 2.471 1_655 S
Eu743 O758 2.349 1_655 S
Eu743 O761 2.394 . S
Eu743 O762 2.418 . S
Eu743 C772 2.828 . S
C744 O762 1.244 1_556 S
C744 O765 1.265 . S
C745 C746 1.379 1_455 S
C745 C749 1.373 . S
C745 C751 1.505 . S
C746 C745 1.379 1_655 S
C746 C748 1.369 . S
C746 H774 0.930 . S
C747 C749 1.383 . S
C747 C750 1.382 1_455 S
C747 H775 0.930 . S
C748 C746 1.369 . S
C748 C750 1.392 . S
C748 H776 0.930 . S
C749 C745 1.373 . S
C749 C747 1.383 . S
C749 H777 0.931 . S
C750 C747 1.382 1_655 S
C750 C748 1.392 . S
C751 Eu742 2.828 . S
C751 C745 1.505 . S
C751 O763 1.249 . S
C751 O764 1.244 1_455 S
O752 Eu743 2.373 1_455 S
O752 C754 1.258 . S
O753 Eu742 2.392 1_554 S
O753 C754 1.242 . S
C754 O752 1.258 . S
C754 O753 1.242 . S
O755 Eu742 2.418 . S
O755 C759 1.244 1_556 S
O756 Eu743 2.488 . S
O756 C772 1.249 . S
O757 Eu743 2.471 1_455 S
O757 C772 1.244 1_455 S
O758 Eu743 2.349 1_455 S
O758 C759 1.265 . S
C759 O755 1.244 1_554 S
C759 O758 1.265 . S
O760 Eu742 2.373 1_655 S
O760 C773 1.258 . S
O761 Eu743 2.394 . S
O761 C773 1.240 1_554 S
O762 Eu743 2.418 . S
O762 C744 1.244 1_554 S
O763 Eu742 2.488 . S
O763 C751 1.249 . S
O764 Eu742 2.471 1_655 S
O764 C751 1.244 1_655 S
O765 Eu742 2.349 1_655 S
O765 C744 1.265 . S
C766 C767 1.379 1_655 S
C766 C770 1.373 . S
C766 C772 1.505 . S
C767 C766 1.379 1_455 S
C767 C769 1.369 . S
C767 H778 0.930 . S
C768 C770 1.383 . S
C768 C771 1.382 1_655 S
C768 H779 0.930 . S
C769 C767 1.369 . S
C769 C771 1.392 . S
C769 H780 0.930 . S
C770 C766 1.373 . S
C770 C768 1.383 . S
C770 H781 0.931 . S
C771 C768 1.382 1_455 S
C771 C769 1.392 . S
C772 Eu743 2.828 . S
C772 O756 1.249 . S
C772 O757 1.244 1_655 S
C772 C766 1.505 . S
C773 O760 1.258 . S
C773 O761 1.240 1_556 S
H774 C746 0.930 . S
H775 C747 0.930 . S
H776 C748 0.930 . S
H777 C749 0.931 . S
H778 C767 0.930 . S
H779 C768 0.930 . S
H780 C769 0.930 . S
H781 C770 0.931 . S
Eu782 C791 2.828 . S
Eu782 O793 2.392 . S
Eu782 O795 2.418 . S
Eu782 O800 2.373 . S
Eu782 O803 2.488 . S
Eu782 O804 2.471 . S
Eu782 O805 2.349 . S
Eu783 O792 2.373 . S
Eu783 O796 2.488 . S
Eu783 O797 2.471 . S
Eu783 O798 2.349 . S
Eu783 O801 2.392 1_556 S
Eu783 O802 2.418 . S
Eu783 C812 2.828 . S
C784 O802 1.244 1_554 S
C784 O805 1.265 . S
C785 C786 1.379 . S
C785 C789 1.373 . S
C785 C791 1.505 . S
C786 C785 1.379 . S
C786 C788 1.369 . S
C786 H814 0.930 . S
C787 C789 1.383 . S
C787 C790 1.382 . S
C787 H815 0.930 . S
C788 C786 1.369 . S
C788 C790 1.392 . S
C788 H816 0.930 . S
C789 C785 1.373 . S
C789 C787 1.383 . S
C789 H817 0.931 . S
C790 C787 1.382 . S
C790 C788 1.392 . S
C791 Eu782 2.828 . S
C791 C785 1.505 . S
C791 O803 1.249 . S
C791 O804 1.244 . S
O792 Eu783 2.373 . S
O792 C794 1.258 . S
O793 Eu782 2.392 . S
O793 C794 1.242 1_554 S
C794 O792 1.258 . S
C794 O793 1.242 1_556 S
O795 Eu782 2.418 . S
O795 C799 1.244 1_554 S
O796 Eu783 2.488 . S
O796 C812 1.249 . S
O797 Eu783 2.471 . S
O797 C812 1.244 . S
O798 Eu783 2.349 . S
O798 C799 1.265 . S
C799 O795 1.244 1_556 S
C799 O798 1.265 . S
O800 Eu782 2.373 . S
O800 C813 1.258 . S
O801 Eu783 2.392 1_554 S
O801 C813 1.242 . S
O802 Eu783 2.418 . S
O802 C784 1.244 1_556 S
O803 Eu782 2.488 . S
O803 C791 1.249 . S
O804 Eu782 2.471 . S
O804 C791 1.244 . S
O805 Eu782 2.349 . S
O805 C784 1.265 . S
C806 C807 1.379 . S
C806 C810 1.373 . S
C806 C812 1.505 . S
C807 C806 1.379 . S
C807 C809 1.369 . S
C807 H818 0.930 . S
C808 C810 1.383 . S
C808 C811 1.382 . S
C808 H819 0.930 . S
C809 C807 1.369 . S
C809 C811 1.392 . S
C809 H820 0.930 . S
C810 C806 1.373 . S
C810 C808 1.383 . S
C810 H821 0.931 . S
C811 C808 1.382 . S
C811 C809 1.392 . S
C812 Eu783 2.828 . S
C812 O796 1.249 . S
C812 O797 1.244 . S
C812 C806 1.505 . S
C813 O800 1.258 . S
C813 O801 1.242 . S
H814 C786 0.930 . S
H815 C787 0.930 . S
H816 C788 0.930 . S
H817 C789 0.931 . S
H818 C807 0.930 . S
H819 C808 0.930 . S
H820 C809 0.930 . S
H821 C810 0.931 . S
Eu822 C831 2.828 . S
Eu822 O833 2.392 . S
Eu822 O835 2.418 . S
Eu822 O840 2.373 . S
Eu822 O843 2.488 . S
Eu822 O844 2.471 . S
Eu822 O845 2.349 . S
Eu823 O832 2.373 . S
Eu823 O836 2.488 . S
Eu823 O837 2.471 . S
Eu823 O838 2.349 . S
Eu823 O841 2.392 . S
Eu823 O842 2.418 . S
Eu823 C852 2.828 . S
C824 O842 1.244 . S
C824 O845 1.265 . S
C825 C826 1.379 . S
C825 C829 1.373 . S
C825 C831 1.505 . S
C826 C825 1.379 . S
C826 C828 1.369 . S
C826 H854 0.930 . S
C827 C829 1.383 . S
C827 C830 1.382 . S
C827 H855 0.930 . S
C828 C826 1.369 . S
C828 C830 1.392 . S
C828 H856 0.930 . S
C829 C825 1.373 . S
C829 C827 1.383 . S
C829 H857 0.931 . S
C830 C827 1.382 . S
C830 C828 1.392 . S
C831 Eu822 2.828 . S
C831 C825 1.505 . S
C831 O843 1.249 . S
C831 O844 1.244 . S
O832 Eu823 2.373 . S
O832 C834 1.258 . S
O833 Eu822 2.392 . S
O833 C834 1.242 . S
C834 O832 1.258 . S
C834 O833 1.242 . S
O835 Eu822 2.418 . S
O835 C839 1.244 . S
O836 Eu823 2.488 . S
O836 C852 1.249 . S
O837 Eu823 2.471 . S
O837 C852 1.244 . S
O838 Eu823 2.349 . S
O838 C839 1.265 . S
C839 O835 1.244 . S
C839 O838 1.265 . S
O840 Eu822 2.373 . S
O840 C853 1.258 . S
O841 Eu823 2.392 . S
O841 C853 1.242 . S
O842 Eu823 2.418 . S
O842 C824 1.244 . S
O843 Eu822 2.488 . S
O843 C831 1.249 . S
O844 Eu822 2.471 . S
O844 C831 1.244 . S
O845 Eu822 2.349 . S
O845 C824 1.265 . S
C846 C847 1.379 . S
C846 C850 1.373 . S
C846 C852 1.505 . S
C847 C846 1.379 . S
C847 C849 1.369 . S
C847 H858 0.930 . S
C848 C850 1.383 . S
C848 C851 1.382 . S
C848 H859 0.930 . S
C849 C847 1.369 . S
C849 C851 1.392 . S
C849 H860 0.930 . S
C850 C846 1.373 . S
C850 C848 1.383 . S
C850 H861 0.931 . S
C851 C848 1.382 . S
C851 C849 1.392 . S
C852 Eu823 2.828 . S
C852 O836 1.249 . S
C852 O837 1.244 . S
C852 C846 1.505 . S
C853 O840 1.258 . S
C853 O841 1.242 . S
H854 C826 0.930 . S
H855 C827 0.930 . S
H856 C828 0.930 . S
H857 C829 0.931 . S
H858 C847 0.930 . S
H859 C848 0.930 . S
H860 C849 0.930 . S
H861 C850 0.931 . S
Eu862 C871 2.828 . S
Eu862 O873 2.392 . S
Eu862 O875 2.418 . S
Eu862 O880 2.373 . S
Eu862 O883 2.488 . S
Eu862 O884 2.471 . S
Eu862 O885 2.349 . S
Eu863 O872 2.373 . S
Eu863 O876 2.488 . S
Eu863 O877 2.471 . S
Eu863 O878 2.349 . S
Eu863 O881 2.392 . S
Eu863 O882 2.418 . S
Eu863 C892 2.828 . S
C864 O882 1.244 . S
C864 O885 1.265 . S
C865 C866 1.379 . S
C865 C869 1.373 . S
C865 C871 1.505 . S
C866 C865 1.379 . S
C866 C868 1.369 . S
C866 H894 0.930 . S
C867 C869 1.383 . S
C867 C870 1.382 . S
C867 H895 0.930 . S
C868 C866 1.369 . S
C868 C870 1.392 . S
C868 H896 0.930 . S
C869 C865 1.373 . S
C869 C867 1.383 . S
C869 H897 0.931 . S
C870 C867 1.382 . S
C870 C868 1.392 . S
C871 Eu862 2.828 . S
C871 C865 1.505 . S
C871 O883 1.249 . S
C871 O884 1.244 . S
O872 Eu863 2.373 . S
O872 C874 1.258 . S
O873 Eu862 2.392 . S
O873 C874 1.242 . S
C874 O872 1.258 . S
C874 O873 1.242 . S
O875 Eu862 2.418 . S
O875 C879 1.244 . S
O876 Eu863 2.488 . S
O876 C892 1.249 . S
O877 Eu863 2.471 . S
O877 C892 1.244 . S
O878 Eu863 2.349 . S
O878 C879 1.265 . S
C879 O875 1.244 . S
C879 O878 1.265 . S
O880 Eu862 2.373 . S
O880 C893 1.258 . S
O881 Eu863 2.392 . S
O881 C893 1.242 . S
O882 Eu863 2.418 . S
O882 C864 1.244 . S
O883 Eu862 2.488 . S
O883 C871 1.249 . S
O884 Eu862 2.471 . S
O884 C871 1.244 . S
O885 Eu862 2.349 . S
O885 C864 1.265 . S
C886 C887 1.379 . S
C886 C890 1.373 . S
C886 C892 1.505 . S
C887 C886 1.379 . S
C887 C889 1.369 . S
C887 H898 0.930 . S
C888 C890 1.383 . S
C888 C891 1.382 . S
C888 H899 0.930 . S
C889 C887 1.369 . S
C889 C891 1.392 . S
C889 H900 0.930 . S
C890 C886 1.373 . S
C890 C888 1.383 . S
C890 H901 0.931 . S
C891 C888 1.382 . S
C891 C889 1.392 . S
C892 Eu863 2.828 . S
C892 O876 1.249 . S
C892 O877 1.244 . S
C892 C886 1.505 . S
C893 O880 1.258 . S
C893 O881 1.242 . S
H894 C866 0.930 . S
H895 C867 0.930 . S
H896 C868 0.930 . S
H897 C869 0.931 . S
H898 C887 0.930 . S
H899 C888 0.930 . S
H900 C889 0.930 . S
H901 C890 0.931 . S
Eu902 C911 2.828 . S
Eu902 O913 2.392 . S
Eu902 O915 2.418 . S
Eu902 O920 2.373 . S
Eu902 O923 2.488 . S
Eu902 O924 2.471 . S
Eu902 O925 2.349 . S
Eu903 O912 2.373 . S
Eu903 O916 2.488 . S
Eu903 O917 2.471 . S
Eu903 O918 2.349 . S
Eu903 O921 2.392 . S
Eu903 O922 2.418 . S
Eu903 C932 2.828 . S
C904 O922 1.244 . S
C904 O925 1.265 . S
C905 C906 1.379 . S
C905 C909 1.373 . S
C905 C911 1.505 . S
C906 C905 1.379 . S
C906 C908 1.369 . S
C906 H934 0.930 . S
C907 C909 1.383 . S
C907 C910 1.382 . S
C907 H935 0.930 . S
C908 C906 1.369 . S
C908 C910 1.392 . S
C908 H936 0.930 . S
C909 C905 1.373 . S
C909 C907 1.383 . S
C909 H937 0.931 . S
C910 C907 1.382 . S
C910 C908 1.392 . S
C911 Eu902 2.828 . S
C911 C905 1.505 . S
C911 O923 1.249 . S
C911 O924 1.244 . S
O912 Eu903 2.373 . S
O912 C914 1.258 . S
O913 Eu902 2.392 . S
O913 C914 1.242 . S
C914 O912 1.258 . S
C914 O913 1.242 . S
O915 Eu902 2.418 . S
O915 C919 1.244 . S
O916 Eu903 2.488 . S
O916 C932 1.249 . S
O917 Eu903 2.471 . S
O917 C932 1.244 . S
O918 Eu903 2.349 . S
O918 C919 1.265 . S
C919 O915 1.244 . S
C919 O918 1.265 . S
O920 Eu902 2.373 . S
O920 C933 1.258 . S
O921 Eu903 2.392 . S
O921 C933 1.242 . S
O922 Eu903 2.418 . S
O922 C904 1.244 . S
O923 Eu902 2.488 . S
O923 C911 1.249 . S
O924 Eu902 2.471 . S
O924 C911 1.244 . S
O925 Eu902 2.349 . S
O925 C904 1.265 . S
C926 C927 1.379 . S
C926 C930 1.373 . S
C926 C932 1.505 . S
C927 C926 1.379 . S
C927 C929 1.369 . S
C927 H938 0.930 . S
C928 C930 1.383 . S
C928 C931 1.382 . S
C928 H939 0.930 . S
C929 C927 1.369 . S
C929 C931 1.392 . S
C929 H940 0.930 . S
C930 C926 1.373 . S
C930 C928 1.383 . S
C930 H941 0.931 . S
C931 C928 1.382 . S
C931 C929 1.392 . S
C932 Eu903 2.828 . S
C932 O916 1.249 . S
C932 O917 1.244 . S
C932 C926 1.505 . S
C933 O920 1.258 . S
C933 O921 1.242 . S
H934 C906 0.930 . S
H935 C907 0.930 . S
H936 C908 0.930 . S
H937 C909 0.931 . S
H938 C927 0.930 . S
H939 C928 0.930 . S
H940 C929 0.930 . S
H941 C930 0.931 . S
Eu942 C951 2.828 . S
Eu942 O953 2.392 . S
Eu942 O955 2.418 . S
Eu942 O960 2.373 . S
Eu942 O963 2.488 . S
Eu942 O964 2.471 . S
Eu942 O965 2.349 . S
Eu943 O952 2.373 . S
Eu943 O956 2.488 . S
Eu943 O957 2.471 . S
Eu943 O958 2.349 . S
Eu943 O961 2.392 . S
Eu943 O962 2.418 . S
Eu943 C972 2.828 . S
C944 O962 1.244 . S
C944 O965 1.265 . S
C945 C946 1.379 . S
C945 C949 1.373 . S
C945 C951 1.505 . S
C946 C945 1.379 . S
C946 C948 1.369 . S
C946 H974 0.930 . S
C947 C949 1.383 . S
C947 C950 1.382 . S
C947 H975 0.930 . S
C948 C946 1.369 . S
C948 C950 1.392 . S
C948 H976 0.930 . S
C949 C945 1.373 . S
C949 C947 1.383 . S
C949 H977 0.931 . S
C950 C947 1.382 . S
C950 C948 1.392 . S
C951 Eu942 2.828 . S
C951 C945 1.505 . S
C951 O963 1.249 . S
C951 O964 1.244 . S
O952 Eu943 2.373 . S
O952 C954 1.258 . S
O953 Eu942 2.392 . S
O953 C954 1.242 . S
C954 O952 1.258 . S
C954 O953 1.242 . S
O955 Eu942 2.418 . S
O955 C959 1.244 . S
O956 Eu943 2.488 . S
O956 C972 1.249 . S
O957 Eu943 2.471 . S
O957 C972 1.244 . S
O958 Eu943 2.349 . S
O958 C959 1.265 . S
C959 O955 1.244 . S
C959 O958 1.265 . S
O960 Eu942 2.373 . S
O960 C973 1.258 . S
O961 Eu943 2.392 . S
O961 C973 1.242 . S
O962 Eu943 2.418 . S
O962 C944 1.244 . S
O963 Eu942 2.488 . S
O963 C951 1.249 . S
O964 Eu942 2.471 . S
O964 C951 1.244 . S
O965 Eu942 2.349 . S
O965 C944 1.265 . S
C966 C967 1.379 . S
C966 C970 1.373 . S
C966 C972 1.505 . S
C967 C966 1.379 . S
C967 C969 1.369 . S
C967 H978 0.930 . S
C968 C970 1.383 . S
C968 C971 1.382 . S
C968 H979 0.930 . S
C969 C967 1.369 . S
C969 C971 1.392 . S
C969 H980 0.930 . S
C970 C966 1.373 . S
C970 C968 1.383 . S
C970 H981 0.931 . S
C971 C968 1.382 . S
C971 C969 1.392 . S
C972 Eu943 2.828 . S
C972 O956 1.249 . S
C972 O957 1.244 . S
C972 C966 1.505 . S
C973 O960 1.258 . S
C973 O961 1.242 . S
H974 C946 0.930 . S
H975 C947 0.930 . S
H976 C948 0.930 . S
H977 C949 0.931 . S
H978 C967 0.930 . S
H979 C968 0.930 . S
H980 C969 0.930 . S
H981 C970 0.931 . S
Eu982 C991 2.828 . S
Eu982 O993 2.392 . S
Eu982 O995 2.418 . S
Eu982 O1000 2.373 . S
Eu982 O1003 2.488 . S
Eu982 O1004 2.471 . S
Eu982 O1005 2.349 . S
Eu983 O992 2.373 . S
Eu983 O996 2.488 . S
Eu983 O997 2.471 . S
Eu983 O998 2.349 . S
Eu983 O1001 2.392 . S
Eu983 O1002 2.418 . S
Eu983 C1012 2.828 . S
C984 O1002 1.244 . S
C984 O1005 1.265 . S
C985 C986 1.379 . S
C985 C989 1.373 . S
C985 C991 1.505 . S
C986 C985 1.379 . S
C986 C988 1.369 . S
C986 H1014 0.930 . S
C987 C989 1.383 . S
C987 C990 1.382 . S
C987 H1015 0.930 . S
C988 C986 1.369 . S
C988 C990 1.392 . S
C988 H1016 0.930 . S
C989 C985 1.373 . S
C989 C987 1.383 . S
C989 H1017 0.931 . S
C990 C987 1.382 . S
C990 C988 1.392 . S
C991 Eu982 2.828 . S
C991 C985 1.505 . S
C991 O1003 1.249 . S
C991 O1004 1.244 . S
O992 Eu983 2.373 . S
O992 C994 1.258 . S
O993 Eu982 2.392 . S
O993 C994 1.242 . S
C994 O992 1.258 . S
C994 O993 1.242 . S
O995 Eu982 2.418 . S
O995 C999 1.244 . S
O996 Eu983 2.488 . S
O996 C1012 1.249 . S
O997 Eu983 2.471 . S
O997 C1012 1.244 . S
O998 Eu983 2.349 . S
O998 C999 1.265 . S
C999 O995 1.244 . S
C999 O998 1.265 . S
O1000 Eu982 2.373 . S
O1000 C1013 1.258 . S
O1001 Eu983 2.392 . S
O1001 C1013 1.242 . S
O1002 Eu983 2.418 . S
O1002 C984 1.244 . S
O1003 Eu982 2.488 . S
O1003 C991 1.249 . S
O1004 Eu982 2.471 . S
O1004 C991 1.244 . S
O1005 Eu982 2.349 . S
O1005 C984 1.265 . S
C1006 C1007 1.379 . S
C1006 C1010 1.373 . S
C1006 C1012 1.505 . S
C1007 C1006 1.379 . S
C1007 C1009 1.369 . S
C1007 H1018 0.930 . S
C1008 C1010 1.383 . S
C1008 C1011 1.382 . S
C1008 H1019 0.930 . S
C1009 C1007 1.369 . S
C1009 C1011 1.392 . S
C1009 H1020 0.930 . S
C1010 C1006 1.373 . S
C1010 C1008 1.383 . S
C1010 H1021 0.931 . S
C1011 C1008 1.382 . S
C1011 C1009 1.392 . S
C1012 Eu983 2.828 . S
C1012 O996 1.249 . S
C1012 O997 1.244 . S
C1012 C1006 1.505 . S
C1013 O1000 1.258 . S
C1013 O1001 1.242 . S
H1014 C986 0.930 . S
H1015 C987 0.930 . S
H1016 C988 0.930 . S
H1017 C989 0.931 . S
H1018 C1007 0.930 . S
H1019 C1008 0.930 . S
H1020 C1009 0.930 . S
H1021 C1010 0.931 . S
Eu1022 C1031 2.828 . S
Eu1022 O1033 2.392 . S
Eu1022 O1035 2.418 . S
Eu1022 O1040 2.373 . S
Eu1022 O1043 2.488 . S
Eu1022 O1044 2.471 . S
Eu1022 O1045 2.349 . S
Eu1023 O1032 2.373 . S
Eu1023 O1036 2.488 . S
Eu1023 O1037 2.471 . S
Eu1023 O1038 2.349 . S
Eu1023 O1041 2.392 . S
Eu1023 O1042 2.418 . S
Eu1023 C1052 2.828 . S
C1024 O1042 1.244 . S
C1024 O1045 1.265 . S
C1025 C1026 1.379 . S
C1025 C1029 1.373 . S
C1025 C1031 1.505 . S
C1026 C1025 1.379 . S
C1026 C1028 1.369 . S
C1026 H1054 0.930 . S
C1027 C1029 1.383 . S
C1027 C1030 1.382 . S
C1027 H1055 0.930 . S
C1028 C1026 1.369 . S
C1028 C1030 1.392 . S
C1028 H1056 0.930 . S
C1029 C1025 1.373 . S
C1029 C1027 1.383 . S
C1029 H1057 0.931 . S
C1030 C1027 1.382 . S
C1030 C1028 1.392 . S
C1031 Eu1022 2.828 . S
C1031 C1025 1.505 . S
C1031 O1043 1.249 . S
C1031 O1044 1.244 . S
O1032 Eu1023 2.373 . S
O1032 C1034 1.258 . S
O1033 Eu1022 2.392 . S
O1033 C1034 1.242 . S
C1034 O1032 1.258 . S
C1034 O1033 1.242 . S
O1035 Eu1022 2.418 . S
O1035 C1039 1.244 . S
O1036 Eu1023 2.488 . S
O1036 C1052 1.249 . S
O1037 Eu1023 2.471 . S
O1037 C1052 1.244 . S
O1038 Eu1023 2.349 . S
O1038 C1039 1.265 . S
C1039 O1035 1.244 . S
C1039 O1038 1.265 . S
O1040 Eu1022 2.373 . S
O1040 C1053 1.258 . S
O1041 Eu1023 2.392 . S
O1041 C1053 1.242 . S
O1042 Eu1023 2.418 . S
O1042 C1024 1.244 . S
O1043 Eu1022 2.488 . S
O1043 C1031 1.249 . S
O1044 Eu1022 2.471 . S
O1044 C1031 1.244 . S
O1045 Eu1022 2.349 . S
O1045 C1024 1.265 . S
C1046 C1047 1.379 . S
C1046 C1050 1.373 . S
C1046 C1052 1.505 . S
C1047 C1046 1.379 . S
C1047 C1049 1.369 . S
C1047 H1058 0.930 . S
C1048 C1050 1.383 . S
C1048 C1051 1.382 . S
C1048 H1059 0.930 . S
C1049 C1047 1.369 . S
C1049 C1051 1.392 . S
C1049 H1060 0.930 . S
C1050 C1046 1.373 . S
C1050 C1048 1.383 . S
C1050 H1061 0.931 . S
C1051 C1048 1.382 . S
C1051 C1049 1.392 . S
C1052 Eu1023 2.828 . S
C1052 O1036 1.249 . S
C1052 O1037 1.244 . S
C1052 C1046 1.505 . S
C1053 O1040 1.258 . S
C1053 O1041 1.242 . S
H1054 C1026 0.930 . S
H1055 C1027 0.930 . S
H1056 C1028 0.930 . S
H1057 C1029 0.931 . S
H1058 C1047 0.930 . S
H1059 C1048 0.930 . S
H1060 C1049 0.930 . S
H1061 C1050 0.931 . S
H1062 C1068 0.930 . S
H1063 C1071 0.930 . S
H1064 C1072 0.930 . S
H1065 C1073 0.930 . S
H1066 C1076 0.930 1_556 S
H1067 C1077 0.930 1_556 S
C1068 H1062 0.930 . S
C1068 C1069 1.355 . S
C1068 C1070 1.415 . S
C1069 C1068 1.355 . S
C1069 C1071 1.419 . S
C1070 C1068 1.415 . S
C1070 C1075 1.425 . S
C1070 C1077 1.409 . S
C1071 H1063 0.930 . S
C1071 C1069 1.419 . S
C1071 C1072 1.362 . S
C1072 H1064 0.930 . S
C1072 C1071 1.362 . S
C1072 C1075 1.409 . S
C1073 H1065 0.930 . S
C1073 C1074 1.355 . S
C1073 C1075 1.415 . S
C1074 C1073 1.355 . S
C1074 C1076 1.419 . S
C1075 C1070 1.425 . S
C1075 C1072 1.409 . S
C1075 C1073 1.415 . S
C1076 H1066 0.930 1_554 S
C1076 C1074 1.419 . S
C1076 C1077 1.362 . S
C1077 H1067 0.930 1_554 S
C1077 C1070 1.409 . S
C1077 C1076 1.362 . S
H1078 C1084 0.930 . S
H1079 C1087 0.930 . S
H1080 C1088 0.930 . S
H1081 C1089 0.930 . S
H1082 C1092 0.930 . S
H1083 C1093 0.930 . S
C1084 H1078 0.930 . S
C1084 C1085 1.355 . S
C1084 C1086 1.415 . S
C1085 C1084 1.355 . S
C1085 C1087 1.419 . S
C1086 C1084 1.415 . S
C1086 C1091 1.425 . S
C1086 C1093 1.409 . S
C1087 H1079 0.930 . S
C1087 C1085 1.419 . S
C1087 C1088 1.362 . S
C1088 H1080 0.930 . S
C1088 C1087 1.362 . S
C1088 C1091 1.409 . S
C1089 H1081 0.930 . S
C1089 C1090 1.355 . S
C1089 C1091 1.415 . S
C1090 C1089 1.355 . S
C1090 C1092 1.419 . S
C1091 C1086 1.425 . S
C1091 C1088 1.409 . S
C1091 C1089 1.415 . S
C1092 H1082 0.930 . S
C1092 C1090 1.419 . S
C1092 C1093 1.362 . S
C1093 H1083 0.930 . S
C1093 C1086 1.409 . S
C1093 C1092 1.362 . S
H1094 C1100 0.930 . S
H1095 C1103 0.930 . S
H1096 C1104 0.930 . S
H1097 C1105 0.930 . S
H1098 C1108 0.930 . S
H1099 C1109 0.930 . S
C1100 H1094 0.930 . S
C1100 C1101 1.355 . S
C1100 C1102 1.415 . S
C1101 C1100 1.355 . S
C1101 C1103 1.419 . S
C1102 C1100 1.415 . S
C1102 C1107 1.425 . S
C1102 C1109 1.409 . S
C1103 H1095 0.930 . S
C1103 C1101 1.419 . S
C1103 C1104 1.362 . S
C1104 H1096 0.930 . S
C1104 C1103 1.362 . S
C1104 C1107 1.409 . S
C1105 H1097 0.930 . S
C1105 C1106 1.355 . S
C1105 C1107 1.415 . S
C1106 C1105 1.355 . S
C1106 C1108 1.419 . S
C1107 C1102 1.425 . S
C1107 C1104 1.409 . S
C1107 C1105 1.415 . S
C1108 H1098 0.930 . S
C1108 C1106 1.419 . S
C1108 C1109 1.362 . S
C1109 H1099 0.930 . S
C1109 C1102 1.409 . S
C1109 C1108 1.362 . S
H1110 C1116 0.930 . S
H1111 C1119 0.930 . S
H1112 C1120 0.930 . S
H1113 C1121 0.930 . S
H1114 C1124 0.930 . S
H1115 C1125 0.930 . S
C1116 H1110 0.930 . S
C1116 C1117 1.355 . S
C1116 C1118 1.415 . S
C1117 C1116 1.355 . S
C1117 C1119 1.419 . S
C1118 C1116 1.415 . S
C1118 C1123 1.425 . S
C1118 C1125 1.409 . S
C1119 H1111 0.930 . S
C1119 C1117 1.419 . S
C1119 C1120 1.362 . S
C1120 H1112 0.930 . S
C1120 C1119 1.362 . S
C1120 C1123 1.409 . S
C1121 H1113 0.930 . S
C1121 C1122 1.355 . S
C1121 C1123 1.415 . S
C1122 C1121 1.355 . S
C1122 C1124 1.419 . S
C1123 C1118 1.425 . S
C1123 C1120 1.409 . S
C1123 C1121 1.415 . S
C1124 H1114 0.930 . S
C1124 C1122 1.419 . S
C1124 C1125 1.362 . S
C1125 H1115 0.930 . S
C1125 C1118 1.409 . S
C1125 C1124 1.362 . S
H1126 C1132 0.930 . S
H1127 C1135 0.930 . S
H1128 C1136 0.930 . S
H1129 C1137 0.930 . S
H1130 C1140 0.930 . S
H1131 C1141 0.930 . S
C1132 H1126 0.930 . S
C1132 C1133 1.355 . S
C1132 C1134 1.415 . S
C1133 C1132 1.355 . S
C1133 C1135 1.419 . S
C1134 C1132 1.415 . S
C1134 C1139 1.425 . S
C1134 C1141 1.409 . S
C1135 H1127 0.930 . S
C1135 C1133 1.419 . S
C1135 C1136 1.362 . S
C1136 H1128 0.930 . S
C1136 C1135 1.362 . S
C1136 C1139 1.409 . S
C1137 H1129 0.930 . S
C1137 C1138 1.355 . S
C1137 C1139 1.415 . S
C1138 C1137 1.355 . S
C1138 C1140 1.419 . S
C1139 C1134 1.425 . S
C1139 C1136 1.409 . S
C1139 C1137 1.415 . S
C1140 H1130 0.930 . S
C1140 C1138 1.419 . S
C1140 C1141 1.362 . S
C1141 H1131 0.930 . S
C1141 C1134 1.409 . S
C1141 C1140 1.362 . S
H1142 C1148 0.930 . S
H1143 C1151 0.930 . S
H1144 C1152 0.930 . S
H1145 C1153 0.930 . S
H1146 C1156 0.930 . S
H1147 C1157 0.930 . S
C1148 H1142 0.930 . S
C1148 C1149 1.355 . S
C1148 C1150 1.415 . S
C1149 C1148 1.355 . S
C1149 C1151 1.419 . S
C1150 C1148 1.415 . S
C1150 C1155 1.425 . S
C1150 C1157 1.409 . S
C1151 H1143 0.930 . S
C1151 C1149 1.419 . S
C1151 C1152 1.362 . S
C1152 H1144 0.930 . S
C1152 C1151 1.362 . S
C1152 C1155 1.409 . S
C1153 H1145 0.930 . S
C1153 C1154 1.355 . S
C1153 C1155 1.415 . S
C1154 C1153 1.355 . S
C1154 C1156 1.419 . S
C1155 C1150 1.425 . S
C1155 C1152 1.409 . S
C1155 C1153 1.415 . S
C1156 H1146 0.930 . S
C1156 C1154 1.419 . S
C1156 C1157 1.362 . S
C1157 H1147 0.930 . S
C1157 C1150 1.409 . S
C1157 C1156 1.362 . S
H1158 C1164 0.930 . S
H1159 C1167 0.930 . S
H1160 C1168 0.930 . S
H1161 C1169 0.930 . S
H1162 C1172 0.930 1_554 S
H1163 C1173 0.930 1_554 S
C1164 H1158 0.930 . S
C1164 C1165 1.355 . S
C1164 C1166 1.415 . S
C1165 C1164 1.355 . S
C1165 C1167 1.419 . S
C1166 C1164 1.415 . S
C1166 C1171 1.425 . S
C1166 C1173 1.409 . S
C1167 H1159 0.930 . S
C1167 C1165 1.419 . S
C1167 C1168 1.362 . S
C1168 H1160 0.930 . S
C1168 C1167 1.362 . S
C1168 C1171 1.409 . S
C1169 H1161 0.930 . S
C1169 C1170 1.355 . S
C1169 C1171 1.415 . S
C1170 C1169 1.355 . S
C1170 C1172 1.419 . S
C1171 C1166 1.425 . S
C1171 C1168 1.409 . S
C1171 C1169 1.415 . S
C1172 H1162 0.930 1_556 S
C1172 C1170 1.419 . S
C1172 C1173 1.362 . S
C1173 H1163 0.930 1_556 S
C1173 C1166 1.409 . S
C1173 C1172 1.362 . S
H1174 C1180 0.930 . S
H1175 C1183 0.930 . S
H1176 C1184 0.930 . S
H1177 C1185 0.930 . S
H1178 C1188 0.930 . S
H1179 C1189 0.930 . S
C1180 H1174 0.930 . S
C1180 C1181 1.355 . S
C1180 C1182 1.415 . S
C1181 C1180 1.355 . S
C1181 C1183 1.419 . S
C1182 C1180 1.415 . S
C1182 C1187 1.425 . S
C1182 C1189 1.409 . S
C1183 H1175 0.930 . S
C1183 C1181 1.419 . S
C1183 C1184 1.362 . S
C1184 H1176 0.930 . S
C1184 C1183 1.362 . S
C1184 C1187 1.409 . S
C1185 H1177 0.930 . S
C1185 C1186 1.355 . S
C1185 C1187 1.415 . S
C1186 C1185 1.355 . S
C1186 C1188 1.419 . S
C1187 C1182 1.425 . S
C1187 C1184 1.409 . S
C1187 C1185 1.415 . S
C1188 H1178 0.930 . S
C1188 C1186 1.419 . S
C1188 C1189 1.362 . S
C1189 H1179 0.930 . S
C1189 C1182 1.409 . S
C1189 C1188 1.362 . S
H1190 C1196 0.930 . S
H1191 C1199 0.930 . S
H1192 C1200 0.930 . S
H1193 C1201 0.930 . S
H1194 C1204 0.930 . S
H1195 C1205 0.930 . S
C1196 H1190 0.930 . S
C1196 C1197 1.355 . S
C1196 C1198 1.415 . S
C1197 C1196 1.355 . S
C1197 C1199 1.419 . S
C1198 C1196 1.415 . S
C1198 C1203 1.425 . S
C1198 C1205 1.409 . S
C1199 H1191 0.930 . S
C1199 C1197 1.419 . S
C1199 C1200 1.362 . S
C1200 H1192 0.930 . S
C1200 C1199 1.362 . S
C1200 C1203 1.409 . S
C1201 H1193 0.930 . S
C1201 C1202 1.355 . S
C1201 C1203 1.415 . S
C1202 C1201 1.355 . S
C1202 C1204 1.419 . S
C1203 C1198 1.425 . S
C1203 C1200 1.409 . S
C1203 C1201 1.415 . S
C1204 H1194 0.930 . S
C1204 C1202 1.419 . S
C1204 C1205 1.362 . S
C1205 H1195 0.930 . S
C1205 C1198 1.409 . S
C1205 C1204 1.362 . S
H1206 C1212 0.930 . S
H1207 C1215 0.930 . S
H1208 C1216 0.930 . S
H1209 C1217 0.930 . S
H1210 C1220 0.930 . S
H1211 C1221 0.930 . S
C1212 H1206 0.930 . S
C1212 C1213 1.355 . S
C1212 C1214 1.415 . S
C1213 C1212 1.355 . S
C1213 C1215 1.419 . S
C1214 C1212 1.415 . S
C1214 C1219 1.425 . S
C1214 C1221 1.409 . S
C1215 H1207 0.930 . S
C1215 C1213 1.419 . S
C1215 C1216 1.362 . S
C1216 H1208 0.930 . S
C1216 C1215 1.362 . S
C1216 C1219 1.409 . S
C1217 H1209 0.930 . S
C1217 C1218 1.355 . S
C1217 C1219 1.415 . S
C1218 C1217 1.355 . S
C1218 C1220 1.419 . S
C1219 C1214 1.425 . S
C1219 C1216 1.409 . S
C1219 C1217 1.415 . S
C1220 H1210 0.930 . S
C1220 C1218 1.419 . S
C1220 C1221 1.362 . S
C1221 H1211 0.930 . S
C1221 C1214 1.409 . S
C1221 C1220 1.362 . S
H1222 C1228 0.930 . S
H1223 C1231 0.930 . S
H1224 C1232 0.930 . S
H1225 C1233 0.930 . S
H1226 C1236 0.930 . S
H1227 C1237 0.930 . S
C1228 H1222 0.930 . S
C1228 C1229 1.355 . S
C1228 C1230 1.415 . S
C1229 C1228 1.355 . S
C1229 C1231 1.419 . S
C1230 C1228 1.415 . S
C1230 C1235 1.425 . S
C1230 C1237 1.409 . S
C1231 H1223 0.930 . S
C1231 C1229 1.419 . S
C1231 C1232 1.362 . S
C1232 H1224 0.930 . S
C1232 C1231 1.362 . S
C1232 C1235 1.409 . S
C1233 H1225 0.930 . S
C1233 C1234 1.355 . S
C1233 C1235 1.415 . S
C1234 C1233 1.355 . S
C1234 C1236 1.419 . S
C1235 C1230 1.425 . S
C1235 C1232 1.409 . S
C1235 C1233 1.415 . S
C1236 H1226 0.930 . S
C1236 C1234 1.419 . S
C1236 C1237 1.362 . S
C1237 H1227 0.930 . S
C1237 C1230 1.409 . S
C1237 C1236 1.362 . S
H1238 C1244 0.930 . S
H1239 C1247 0.930 . S
H1240 C1248 0.930 1_556 S
H1241 C1249 0.930 1_556 S
H1242 C1252 0.930 . S
H1243 C1253 0.930 . S
C1244 H1238 0.930 . S
C1244 C1245 1.355 . S
C1244 C1246 1.415 . S
C1245 C1244 1.355 . S
C1245 C1247 1.419 . S
C1246 C1244 1.415 . S
C1246 C1251 1.425 . S
C1246 C1253 1.409 . S
C1247 H1239 0.930 . S
C1247 C1245 1.419 . S
C1247 C1248 1.362 . S
C1248 H1240 0.930 1_554 S
C1248 C1247 1.362 . S
C1248 C1251 1.409 . S
C1249 H1241 0.930 1_554 S
C1249 C1250 1.355 . S
C1249 C1251 1.415 . S
C1250 C1249 1.355 . S
C1250 C1252 1.419 . S
C1251 C1246 1.425 . S
C1251 C1248 1.409 . S
C1251 C1249 1.415 . S
C1252 H1242 0.930 . S
C1252 C1250 1.419 . S
C1252 C1253 1.362 . S
C1253 H1243 0.930 . S
C1253 C1246 1.409 . S
C1253 C1252 1.362 . S
H1254 C1260 0.930 . S
H1255 C1263 0.930 . S
H1256 C1264 0.930 . S
H1257 C1265 0.930 . S
H1258 C1268 0.930 . S
H1259 C1269 0.930 . S
C1260 H1254 0.930 . S
C1260 C1261 1.355 1_455 S
C1260 C1262 1.415 . S
C1261 C1260 1.355 1_655 S
C1261 C1263 1.419 . S
C1262 C1260 1.415 . S
C1262 C1267 1.425 . S
C1262 C1269 1.409 . S
C1263 H1255 0.930 . S
C1263 C1261 1.419 . S
C1263 C1264 1.362 1_655 S
C1264 H1256 0.930 . S
C1264 C1263 1.362 1_455 S
C1264 C1267 1.409 . S
C1265 H1257 0.930 . S
C1265 C1266 1.355 . S
C1265 C1267 1.415 . S
C1266 C1265 1.355 . S
C1266 C1268 1.419 . S
C1267 C1262 1.425 . S
C1267 C1264 1.409 . S
C1267 C1265 1.415 . S
C1268 H1258 0.930 . S
C1268 C1266 1.419 . S
C1268 C1269 1.362 . S
C1269 H1259 0.930 . S
C1269 C1262 1.409 . S
C1269 C1268 1.362 . S
H1270 C1276 0.930 . S
H1271 C1279 0.930 . S
H1272 C1280 0.930 . S
H1273 C1281 0.930 . S
H1274 C1284 0.930 . S
H1275 C1285 0.930 . S
C1276 H1270 0.930 . S
C1276 C1277 1.355 . S
C1276 C1278 1.415 . S
C1277 C1276 1.355 . S
C1277 C1279 1.419 . S
C1278 C1276 1.415 . S
C1278 C1283 1.425 . S
C1278 C1285 1.409 . S
C1279 H1271 0.930 . S
C1279 C1277 1.419 . S
C1279 C1280 1.362 . S
C1280 H1272 0.930 . S
C1280 C1279 1.362 . S
C1280 C1283 1.409 . S
C1281 H1273 0.930 . S
C1281 C1282 1.355 . S
C1281 C1283 1.415 . S
C1282 C1281 1.355 . S
C1282 C1284 1.419 . S
C1283 C1278 1.425 . S
C1283 C1280 1.409 . S
C1283 C1281 1.415 . S
C1284 H1274 0.930 . S
C1284 C1282 1.419 . S
C1284 C1285 1.362 . S
C1285 H1275 0.930 . S
C1285 C1278 1.409 . S
C1285 C1284 1.362 . S
H1286 C1292 0.930 . S
H1287 C1295 0.930 . S
H1288 C1296 0.930 . S
H1289 C1297 0.930 . S
H1290 C1300 0.930 . S
H1291 C1301 0.930 . S
C1292 H1286 0.930 . S
C1292 C1293 1.355 . S
C1292 C1294 1.415 1_545 S
C1293 C1292 1.355 . S
C1293 C1295 1.419 . S
C1294 C1292 1.415 1_565 S
C1294 C1299 1.425 . S
C1294 C1301 1.409 . S
C1295 H1287 0.930 . S
C1295 C1293 1.419 . S
C1295 C1296 1.362 1_545 S
C1296 H1288 0.930 . S
C1296 C1295 1.362 1_565 S
C1296 C1299 1.409 . S
C1297 H1289 0.930 . S
C1297 C1298 1.355 . S
C1297 C1299 1.415 . S
C1298 C1297 1.355 . S
C1298 C1300 1.419 . S
C1299 C1294 1.425 . S
C1299 C1296 1.409 . S
C1299 C1297 1.415 . S
C1300 H1290 0.930 . S
C1300 C1298 1.419 . S
C1300 C1301 1.362 . S
C1301 H1291 0.930 . S
C1301 C1294 1.409 . S
C1301 C1300 1.362 . S
H1302 C1308 0.930 . S
H1303 C1311 0.930 . S
H1304 C1312 0.930 . S
H1305 C1313 0.930 . S
H1306 C1316 0.930 . S
H1307 C1317 0.930 . S
C1308 H1302 0.930 . S
C1308 C1309 1.355 . S
C1308 C1310 1.415 . S
C1309 C1308 1.355 . S
C1309 C1311 1.419 . S
C1310 C1308 1.415 . S
C1310 C1315 1.425 . S
C1310 C1317 1.409 . S
C1311 H1303 0.930 . S
C1311 C1309 1.419 . S
C1311 C1312 1.362 . S
C1312 H1304 0.930 . S
C1312 C1311 1.362 . S
C1312 C1315 1.409 . S
C1313 H1305 0.930 . S
C1313 C1314 1.355 . S
C1313 C1315 1.415 . S
C1314 C1313 1.355 . S
C1314 C1316 1.419 . S
C1315 C1310 1.425 . S
C1315 C1312 1.409 . S
C1315 C1313 1.415 . S
C1316 H1306 0.930 . S
C1316 C1314 1.419 . S
C1316 C1317 1.362 . S
C1317 H1307 0.930 . S
C1317 C1310 1.409 . S
C1317 C1316 1.362 . S
H1318 C1324 0.930 . S
H1319 C1327 0.930 . S
H1320 C1328 0.930 . S
H1321 C1329 0.930 . S
H1322 C1332 0.930 . S
H1323 C1333 0.930 . S
C1324 H1318 0.930 . S
C1324 C1325 1.355 . S
C1324 C1326 1.415 . S
C1325 C1324 1.355 . S
C1325 C1327 1.419 . S
C1326 C1324 1.415 . S
C1326 C1331 1.425 . S
C1326 C1333 1.409 . S
C1327 H1319 0.930 . S
C1327 C1325 1.419 . S
C1327 C1328 1.362 . S
C1328 H1320 0.930 . S
C1328 C1327 1.362 . S
C1328 C1331 1.409 . S
C1329 H1321 0.930 . S
C1329 C1330 1.355 . S
C1329 C1331 1.415 . S
C1330 C1329 1.355 . S
C1330 C1332 1.419 . S
C1331 C1326 1.425 . S
C1331 C1328 1.409 . S
C1331 C1329 1.415 . S
C1332 H1322 0.930 . S
C1332 C1330 1.419 . S
C1332 C1333 1.362 . S
C1333 H1323 0.930 . S
C1333 C1326 1.409 . S
C1333 C1332 1.362 . S
H1334 C1340 0.930 . S
H1335 C1343 0.930 . S
H1336 C1344 0.930 . S
H1337 C1345 0.930 . S
H1338 C1348 0.930 . S
H1339 C1349 0.930 . S
C1340 H1334 0.930 . S
C1340 C1341 1.355 . S
C1340 C1342 1.415 . S
C1341 C1340 1.355 . S
C1341 C1343 1.419 . S
C1342 C1340 1.415 . S
C1342 C1347 1.425 . S
C1342 C1349 1.409 . S
C1343 H1335 0.930 . S
C1343 C1341 1.419 . S
C1343 C1344 1.362 . S
C1344 H1336 0.930 . S
C1344 C1343 1.362 . S
C1344 C1347 1.409 . S
C1345 H1337 0.930 . S
C1345 C1346 1.355 . S
C1345 C1347 1.415 . S
C1346 C1345 1.355 . S
C1346 C1348 1.419 . S
C1347 C1342 1.425 . S
C1347 C1344 1.409 . S
C1347 C1345 1.415 . S
C1348 H1338 0.930 . S
C1348 C1346 1.419 . S
C1348 C1349 1.362 . S
C1349 H1339 0.930 . S
C1349 C1342 1.409 . S
C1349 C1348 1.362 . S
H1350 C1356 0.930 . S
H1351 C1359 0.930 . S
H1352 C1360 0.930 . S
H1353 C1361 0.930 . S
H1354 C1364 0.930 . S
H1355 C1365 0.930 . S
C1356 H1350 0.930 . S
C1356 C1357 1.355 . S
C1356 C1358 1.415 . S
C1357 C1356 1.355 . S
C1357 C1359 1.419 . S
C1358 C1356 1.415 . S
C1358 C1363 1.425 . S
C1358 C1365 1.409 . S
C1359 H1351 0.930 . S
C1359 C1357 1.419 . S
C1359 C1360 1.362 . S
C1360 H1352 0.930 . S
C1360 C1359 1.362 . S
C1360 C1363 1.409 . S
C1361 H1353 0.930 . S
C1361 C1362 1.355 . S
C1361 C1363 1.415 . S
C1362 C1361 1.355 . S
C1362 C1364 1.419 . S
C1363 C1358 1.425 . S
C1363 C1360 1.409 . S
C1363 C1361 1.415 . S
C1364 H1354 0.930 . S
C1364 C1362 1.419 . S
C1364 C1365 1.362 . S
C1365 H1355 0.930 . S
C1365 C1358 1.409 . S
C1365 C1364 1.362 . S
H1366 C1372 0.930 . S
H1367 C1375 0.930 . S
H1368 C1376 0.930 . S
H1369 C1377 0.930 . S
H1370 C1380 0.930 . S
H1371 C1381 0.930 . S
C1372 H1366 0.930 . S
C1372 C1373 1.355 . S
C1372 C1374 1.415 . S
C1373 C1372 1.355 . S
C1373 C1375 1.419 . S
C1374 C1372 1.415 . S
C1374 C1379 1.425 . S
C1374 C1381 1.409 . S
C1375 H1367 0.930 . S
C1375 C1373 1.419 . S
C1375 C1376 1.362 . S
C1376 H1368 0.930 . S
C1376 C1375 1.362 . S
C1376 C1379 1.409 . S
C1377 H1369 0.930 . S
C1377 C1378 1.355 . S
C1377 C1379 1.415 . S
C1378 C1377 1.355 . S
C1378 C1380 1.419 . S
C1379 C1374 1.425 . S
C1379 C1376 1.409 . S
C1379 C1377 1.415 . S
C1380 H1370 0.930 . S
C1380 C1378 1.419 . S
C1380 C1381 1.362 . S
C1381 H1371 0.930 . S
C1381 C1374 1.409 . S
C1381 C1380 1.362 . S
H1382 C1388 0.930 . S
H1383 C1391 0.930 . S
H1384 C1392 0.930 . S
H1385 C1393 0.930 . S
H1386 C1396 0.930 . S
H1387 C1397 0.930 . S
C1388 H1382 0.930 . S
C1388 C1389 1.355 . S
C1388 C1390 1.415 . S
C1389 C1388 1.355 . S
C1389 C1391 1.419 . S
C1390 C1388 1.415 . S
C1390 C1395 1.425 . S
C1390 C1397 1.409 . S
C1391 H1383 0.930 . S
C1391 C1389 1.419 . S
C1391 C1392 1.362 . S
C1392 H1384 0.930 . S
C1392 C1391 1.362 . S
C1392 C1395 1.409 . S
C1393 H1385 0.930 . S
C1393 C1394 1.355 . S
C1393 C1395 1.415 . S
C1394 C1393 1.355 . S
C1394 C1396 1.419 . S
C1395 C1390 1.425 . S
C1395 C1392 1.409 . S
C1395 C1393 1.415 . S
C1396 H1386 0.930 . S
C1396 C1394 1.419 . S
C1396 C1397 1.362 . S
C1397 H1387 0.930 . S
C1397 C1390 1.409 . S
C1397 C1396 1.362 . S
H1398 C1404 0.930 . S
H1399 C1407 0.930 . S
H1400 C1408 0.930 . S
H1401 C1409 0.930 . S
H1402 C1412 0.930 . S
H1403 C1413 0.930 . S
C1404 H1398 0.930 . S
C1404 C1405 1.355 . S
C1404 C1406 1.415 1_545 S
C1405 C1404 1.355 . S
C1405 C1407 1.419 . S
C1406 C1404 1.415 1_565 S
C1406 C1411 1.425 . S
C1406 C1413 1.409 . S
C1407 H1399 0.930 . S
C1407 C1405 1.419 . S
C1407 C1408 1.362 1_545 S
C1408 H1400 0.930 . S
C1408 C1407 1.362 1_565 S
C1408 C1411 1.409 . S
C1409 H1401 0.930 . S
C1409 C1410 1.355 . S
C1409 C1411 1.415 . S
C1410 C1409 1.355 . S
C1410 C1412 1.419 . S
C1411 C1406 1.425 . S
C1411 C1408 1.409 . S
C1411 C1409 1.415 . S
C1412 H1402 0.930 . S
C1412 C1410 1.419 . S
C1412 C1413 1.362 . S
C1413 H1403 0.930 . S
C1413 C1406 1.409 . S
C1413 C1412 1.362 . S
H1414 C1420 0.930 . S
H1415 C1423 0.930 . S
H1416 C1424 0.930 . S
H1417 C1425 0.930 . S
H1418 C1428 0.930 . S
H1419 C1429 0.930 . S
C1420 H1414 0.930 . S
C1420 C1421 1.355 . S
C1420 C1422 1.415 . S
C1421 C1420 1.355 . S
C1421 C1423 1.419 1_455 S
C1422 C1420 1.415 . S
C1422 C1427 1.425 . S
C1422 C1429 1.409 . S
C1423 H1415 0.930 . S
C1423 C1421 1.419 1_655 S
C1423 C1424 1.362 1_655 S
C1424 H1416 0.930 . S
C1424 C1423 1.362 1_455 S
C1424 C1427 1.409 . S
C1425 H1417 0.930 . S
C1425 C1426 1.355 . S
C1425 C1427 1.415 . S
C1426 C1425 1.355 . S
C1426 C1428 1.419 . S
C1427 C1422 1.425 . S
C1427 C1424 1.409 . S
C1427 C1425 1.415 . S
C1428 H1418 0.930 . S
C1428 C1426 1.419 . S
C1428 C1429 1.362 . S
C1429 H1419 0.930 . S
C1429 C1422 1.409 . S
C1429 C1428 1.362 . S
H1430 C1436 0.930 . S
H1431 C1439 0.930 . S
H1432 C1440 0.930 . S
H1433 C1441 0.930 . S
H1434 C1444 0.930 . S
H1435 C1445 0.930 . S
C1436 H1430 0.930 . S
C1436 C1437 1.355 . S
C1436 C1438 1.415 . S
C1437 C1436 1.355 . S
C1437 C1439 1.419 . S
C1438 C1436 1.415 . S
C1438 C1443 1.425 . S
C1438 C1445 1.409 . S
C1439 H1431 0.930 . S
C1439 C1437 1.419 . S
C1439 C1440 1.362 . S
C1440 H1432 0.930 . S
C1440 C1439 1.362 . S
C1440 C1443 1.409 . S
C1441 H1433 0.930 . S
C1441 C1442 1.355 . S
C1441 C1443 1.415 . S
C1442 C1441 1.355 . S
C1442 C1444 1.419 . S
C1443 C1438 1.425 . S
C1443 C1440 1.409 . S
C1443 C1441 1.415 . S
C1444 H1434 0.930 . S
C1444 C1442 1.419 . S
C1444 C1445 1.362 . S
C1445 H1435 0.930 . S
C1445 C1438 1.409 . S
C1445 C1444 1.362 . S
H1446 C1452 0.930 . S
H1447 C1455 0.930 . S
H1448 C1456 0.930 . S
H1449 C1457 0.930 . S
H1450 C1460 0.930 . S
H1451 C1461 0.930 . S
C1452 H1446 0.930 . S
C1452 C1453 1.355 . S
C1452 C1454 1.415 . S
C1453 C1452 1.355 . S
C1453 C1455 1.419 . S
C1454 C1452 1.415 . S
C1454 C1459 1.425 . S
C1454 C1461 1.409 . S
C1455 H1447 0.930 . S
C1455 C1453 1.419 . S
C1455 C1456 1.362 . S
C1456 H1448 0.930 . S
C1456 C1455 1.362 . S
C1456 C1459 1.409 . S
C1457 H1449 0.930 . S
C1457 C1458 1.355 . S
C1457 C1459 1.415 . S
C1458 C1457 1.355 . S
C1458 C1460 1.419 . S
C1459 C1454 1.425 . S
C1459 C1456 1.409 . S
C1459 C1457 1.415 . S
C1460 H1450 0.930 . S
C1460 C1458 1.419 . S
C1460 C1461 1.362 . S
C1461 H1451 0.930 . S
C1461 C1454 1.409 . S
C1461 C1460 1.362 . S
H1462 C1468 0.930 . S
H1463 C1471 0.930 . S
H1464 C1472 0.930 . S
H1465 C1473 0.930 . S
H1466 C1476 0.930 . S
H1467 C1477 0.930 . S
C1468 H1462 0.930 . S
C1468 C1469 1.355 . S
C1468 C1470 1.415 . S
C1469 C1468 1.355 . S
C1469 C1471 1.419 . S
C1470 C1468 1.415 . S
C1470 C1475 1.425 . S
C1470 C1477 1.409 . S
C1471 H1463 0.930 . S
C1471 C1469 1.419 . S
C1471 C1472 1.362 . S
C1472 H1464 0.930 . S
C1472 C1471 1.362 . S
C1472 C1475 1.409 . S
C1473 H1465 0.930 . S
C1473 C1474 1.355 . S
C1473 C1475 1.415 . S
C1474 C1473 1.355 . S
C1474 C1476 1.419 . S
C1475 C1470 1.425 . S
C1475 C1472 1.409 . S
C1475 C1473 1.415 . S
C1476 H1466 0.930 . S
C1476 C1474 1.419 . S
C1476 C1477 1.362 . S
C1477 H1467 0.930 . S
C1477 C1470 1.409 . S
C1477 C1476 1.362 . S
H1478 C1484 0.930 . S
H1479 C1487 0.930 . S
H1480 C1488 0.930 . S
H1481 C1489 0.930 . S
H1482 C1492 0.930 . S
H1483 C1493 0.930 . S
C1484 H1478 0.930 . S
C1484 C1485 1.355 . S
C1484 C1486 1.415 . S
C1485 C1484 1.355 . S
C1485 C1487 1.419 . S
C1486 C1484 1.415 . S
C1486 C1491 1.425 . S
C1486 C1493 1.409 . S
C1487 H1479 0.930 . S
C1487 C1485 1.419 . S
C1487 C1488 1.362 . S
C1488 H1480 0.930 . S
C1488 C1487 1.362 . S
C1488 C1491 1.409 . S
C1489 H1481 0.930 . S
C1489 C1490 1.355 . S
C1489 C1491 1.415 . S
C1490 C1489 1.355 . S
C1490 C1492 1.419 . S
C1491 C1486 1.425 . S
C1491 C1488 1.409 . S
C1491 C1489 1.415 . S
C1492 H1482 0.930 . S
C1492 C1490 1.419 . S
C1492 C1493 1.362 . S
C1493 H1483 0.930 . S
C1493 C1486 1.409 . S
C1493 C1492 1.362 . S
H1494 C1500 0.929 . S
H1495 C1503 0.930 . S
H1496 C1504 0.930 . S
H1497 C1505 0.930 . S
H1498 C1508 0.930 . S
H1499 C1509 0.930 . S
C1500 H1494 0.929 . S
C1500 C1501 1.379 . S
C1500 C1502 1.392 1_565 S
C1501 C1500 1.379 . S
C1501 C1503 1.419 . S
C1502 C1500 1.392 1_545 S
C1502 C1507 1.425 . S
C1502 C1509 1.409 . S
C1503 H1495 0.930 . S
C1503 C1501 1.419 . S
C1503 C1504 1.362 1_565 S
C1504 H1496 0.930 . S
C1504 C1503 1.362 1_545 S
C1504 C1507 1.409 . S
C1505 H1497 0.930 . S
C1505 C1506 1.355 . S
C1505 C1507 1.415 . S
C1506 C1505 1.355 . S
C1506 C1508 1.419 . S
C1507 C1502 1.425 . S
C1507 C1504 1.409 . S
C1507 C1505 1.415 . S
C1508 H1498 0.930 . S
C1508 C1506 1.419 . S
C1508 C1509 1.362 . S
C1509 H1499 0.930 . S
C1509 C1502 1.409 . S
C1509 C1508 1.362 . S
H1510 C1516 0.930 . S
H1511 C1519 0.930 1_455 S
H1512 C1520 0.930 . S
H1513 C1521 0.930 . S
H1514 C1524 0.930 . S
H1515 C1525 0.930 . S
C1516 H1510 0.930 . S
C1516 C1517 1.355 . S
C1516 C1518 1.415 . S
C1517 C1516 1.355 . S
C1517 C1519 1.419 . S
C1518 C1516 1.415 . S
C1518 C1523 1.425 . S
C1518 C1525 1.409 . S
C1519 H1511 0.930 1_655 S
C1519 C1517 1.419 . S
C1519 C1520 1.362 . S
C1520 H1512 0.930 . S
C1520 C1519 1.362 . S
C1520 C1523 1.409 . S
C1521 H1513 0.930 . S
C1521 C1522 1.355 . S
C1521 C1523 1.415 . S
C1522 C1521 1.355 . S
C1522 C1524 1.419 . S
C1523 C1518 1.425 . S
C1523 C1520 1.409 . S
C1523 C1521 1.415 . S
C1524 H1514 0.930 . S
C1524 C1522 1.419 . S
C1524 C1525 1.362 . S
C1525 H1515 0.930 . S
C1525 C1518 1.409 . S
C1525 C1524 1.362 . S
H1526 C1532 0.930 . S
H1527 C1535 0.930 . S
H1528 C1536 0.930 . S
H1529 C1537 0.930 . S
H1530 C1540 0.930 . S
H1531 C1541 0.930 . S
C1532 H1526 0.930 . S
C1532 C1533 1.355 . S
C1532 C1534 1.415 . S
C1533 C1532 1.355 . S
C1533 C1535 1.419 . S
C1534 C1532 1.415 . S
C1534 C1539 1.425 . S
C1534 C1541 1.409 . S
C1535 H1527 0.930 . S
C1535 C1533 1.419 . S
C1535 C1536 1.362 . S
C1536 H1528 0.930 . S
C1536 C1535 1.362 . S
C1536 C1539 1.409 . S
C1537 H1529 0.930 . S
C1537 C1538 1.355 . S
C1537 C1539 1.415 . S
C1538 C1537 1.355 . S
C1538 C1540 1.419 . S
C1539 C1534 1.425 . S
C1539 C1536 1.409 . S
C1539 C1537 1.415 . S
C1540 H1530 0.930 . S
C1540 C1538 1.419 . S
C1540 C1541 1.362 . S
C1541 H1531 0.930 . S
C1541 C1534 1.409 . S
C1541 C1540 1.362 . S
H1542 C1548 0.930 1_455 S
H1543 C1551 0.930 . S
H1544 C1552 0.930 . S
H1545 C1553 0.930 . S
H1546 C1556 0.930 . S
H1547 C1557 0.930 . S
C1548 H1542 0.930 1_655 S
C1548 C1549 1.355 1_655 S
C1548 C1550 1.415 . S
C1549 C1548 1.355 1_455 S
C1549 C1551 1.419 1_455 S
C1550 C1548 1.415 . S
C1550 C1555 1.425 . S
C1550 C1557 1.409 . S
C1551 H1543 0.930 . S
C1551 C1549 1.419 1_655 S
C1551 C1552 1.362 . S
C1552 H1544 0.930 . S
C1552 C1551 1.362 . S
C1552 C1555 1.409 . S
C1553 H1545 0.930 . S
C1553 C1554 1.355 . S
C1553 C1555 1.415 . S
C1554 C1553 1.355 . S
C1554 C1556 1.419 . S
C1555 C1550 1.425 . S
C1555 C1552 1.409 . S
C1555 C1553 1.415 . S
C1556 H1546 0.930 . S
C1556 C1554 1.419 . S
C1556 C1557 1.362 . S
C1557 H1547 0.930 . S
C1557 C1550 1.409 . S
C1557 C1556 1.362 . S
H1558 C1564 0.930 . S
H1559 C1567 0.930 . S
H1560 C1568 0.930 . S
H1561 C1569 0.930 . S
H1562 C1572 0.930 . S
H1563 C1573 0.930 . S
C1564 H1558 0.930 . S
C1564 C1565 1.355 . S
C1564 C1566 1.415 . S
C1565 C1564 1.355 . S
C1565 C1567 1.419 . S
C1566 C1564 1.415 . S
C1566 C1571 1.425 . S
C1566 C1573 1.409 . S
C1567 H1559 0.930 . S
C1567 C1565 1.419 . S
C1567 C1568 1.362 . S
C1568 H1560 0.930 . S
C1568 C1567 1.362 . S
C1568 C1571 1.409 . S
C1569 H1561 0.930 . S
C1569 C1570 1.355 . S
C1569 C1571 1.415 . S
C1570 C1569 1.355 . S
C1570 C1572 1.419 . S
C1571 C1566 1.425 . S
C1571 C1568 1.409 . S
C1571 C1569 1.415 . S
C1572 H1562 0.930 . S
C1572 C1570 1.419 . S
C1572 C1573 1.362 . S
C1573 H1563 0.930 . S
C1573 C1566 1.409 . S
C1573 C1572 1.362 . S
H1574 C1580 0.930 . S
H1575 C1583 0.930 . S
H1576 C1584 0.930 . S
H1577 C1585 0.930 . S
H1578 C1588 0.930 . S
H1579 C1589 0.930 . S
C1580 H1574 0.930 . S
C1580 C1581 1.355 . S
C1580 C1582 1.415 1_565 S
C1581 C1580 1.355 . S
C1581 C1583 1.419 . S
C1582 C1580 1.415 1_545 S
C1582 C1587 1.425 . S
C1582 C1589 1.409 . S
C1583 H1575 0.930 . S
C1583 C1581 1.419 . S
C1583 C1584 1.362 1_565 S
C1584 H1576 0.930 . S
C1584 C1583 1.362 1_545 S
C1584 C1587 1.409 . S
C1585 H1577 0.930 . S
C1585 C1586 1.355 . S
C1585 C1587 1.415 . S
C1586 C1585 1.355 . S
C1586 C1588 1.419 . S
C1587 C1582 1.425 . S
C1587 C1584 1.409 . S
C1587 C1585 1.415 . S
C1588 H1578 0.930 . S
C1588 C1586 1.419 . S
C1588 C1589 1.362 . S
C1589 H1579 0.930 . S
C1589 C1582 1.409 . S
C1589 C1588 1.362 . S
H1590 C1596 0.930 . S
H1591 C1599 0.930 . S
H1592 C1600 0.930 . S
H1593 C1601 0.930 . S
H1594 C1604 0.930 . S
H1595 C1605 0.930 . S
C1596 H1590 0.930 . S
C1596 C1597 1.355 . S
C1596 C1598 1.415 . S
C1597 C1596 1.355 . S
C1597 C1599 1.419 . S
C1598 C1596 1.415 . S
C1598 C1603 1.425 . S
C1598 C1605 1.409 . S
C1599 H1591 0.930 . S
C1599 C1597 1.419 . S
C1599 C1600 1.362 . S
C1600 H1592 0.930 . S
C1600 C1599 1.362 . S
C1600 C1603 1.409 . S
C1601 H1593 0.930 . S
C1601 C1602 1.355 . S
C1601 C1603 1.415 . S
C1602 C1601 1.355 . S
C1602 C1604 1.419 . S
C1603 C1598 1.425 . S
C1603 C1600 1.409 . S
C1603 C1601 1.415 . S
C1604 H1594 0.930 . S
C1604 C1602 1.419 . S
C1604 C1605 1.362 . S
C1605 H1595 0.930 . S
C1605 C1598 1.409 . S
C1605 C1604 1.362 . S
H1606 C1612 0.930 . S
H1607 C1615 0.930 . S
H1608 C1616 0.930 . S
H1609 C1617 0.930 . S
H1610 C1620 0.930 . S
H1611 C1621 0.930 . S
C1612 H1606 0.930 . S
C1612 C1613 1.355 . S
C1612 C1614 1.415 . S
C1613 C1612 1.355 . S
C1613 C1615 1.419 . S
C1614 C1612 1.415 . S
C1614 C1619 1.425 . S
C1614 C1621 1.409 . S
C1615 H1607 0.930 . S
C1615 C1613 1.419 . S
C1615 C1616 1.362 . S
C1616 H1608 0.930 . S
C1616 C1615 1.362 . S
C1616 C1619 1.409 . S
C1617 H1609 0.930 . S
C1617 C1618 1.355 . S
C1617 C1619 1.415 . S
C1618 C1617 1.355 . S
C1618 C1620 1.419 . S
C1619 C1614 1.425 . S
C1619 C1616 1.409 . S
C1619 C1617 1.415 . S
C1620 H1610 0.930 . S
C1620 C1618 1.419 . S
C1620 C1621 1.362 . S
C1621 H1611 0.930 . S
C1621 C1614 1.409 . S
C1621 C1620 1.362 . S
H1622 C1628 0.930 . S
H1623 C1631 0.930 . S
H1624 C1632 0.930 . S
H1625 C1633 0.930 . S
H1626 C1636 0.930 . S
H1627 C1637 0.930 . S
C1628 H1622 0.930 . S
C1628 C1629 1.355 . S
C1628 C1630 1.415 . S
C1629 C1628 1.355 . S
C1629 C1631 1.419 . S
C1630 C1628 1.415 . S
C1630 C1635 1.425 . S
C1630 C1637 1.409 . S
C1631 H1623 0.930 . S
C1631 C1629 1.419 . S
C1631 C1632 1.362 . S
C1632 H1624 0.930 . S
C1632 C1631 1.362 . S
C1632 C1635 1.409 . S
C1633 H1625 0.930 . S
C1633 C1634 1.355 . S
C1633 C1635 1.415 . S
C1634 C1633 1.355 . S
C1634 C1636 1.419 . S
C1635 C1630 1.425 . S
C1635 C1632 1.409 . S
C1635 C1633 1.415 . S
C1636 H1626 0.930 . S
C1636 C1634 1.419 . S
C1636 C1637 1.362 . S
C1637 H1627 0.930 . S
C1637 C1630 1.409 . S
C1637 C1636 1.362 . S
H1638 C1644 0.930 . S
H1639 C1647 0.930 1_545 S
H1640 C1648 0.930 . S
H1641 C1649 0.930 . S
H1642 C1652 0.930 . S
H1643 C1653 0.930 . S
C1644 H1638 0.930 . S
C1644 C1645 1.355 . S
C1644 C1646 1.415 . S
C1645 C1644 1.355 . S
C1645 C1647 1.419 . S
C1646 C1644 1.415 . S
C1646 C1651 1.425 . S
C1646 C1653 1.409 . S
C1647 H1639 0.930 1_565 S
C1647 C1645 1.419 . S
C1647 C1648 1.362 1_565 S
C1648 H1640 0.930 . S
C1648 C1647 1.362 1_545 S
C1648 C1651 1.409 1_545 S
C1649 H1641 0.930 . S
C1649 C1650 1.355 1_545 S
C1649 C1651 1.415 1_545 S
C1650 C1649 1.355 1_565 S
C1650 C1652 1.419 . S
C1651 C1646 1.425 . S
C1651 C1648 1.409 1_565 S
C1651 C1649 1.415 1_565 S
C1652 H1642 0.930 . S
C1652 C1650 1.419 . S
C1652 C1653 1.362 . S
C1653 H1643 0.930 . S
C1653 C1646 1.409 . S
C1653 C1652 1.362 . S
H1654 C1660 0.930 . S
H1655 C1663 0.930 . S
H1656 C1664 0.930 . S
H1657 C1665 0.939 . S
H1658 C1668 0.930 . S
H1659 C1669 0.930 . S
C1660 H1654 0.930 . S
C1660 C1661 1.355 . S
C1660 C1662 1.415 . S
C1661 C1660 1.355 . S
C1661 C1663 1.419 1_455 S
C1662 C1660 1.415 . S
C1662 C1667 1.419 1_455 S
C1662 C1669 1.409 . S
C1663 H1655 0.930 . S
C1663 C1661 1.419 1_655 S
C1663 C1664 1.362 . S
C1664 H1656 0.930 . S
C1664 C1663 1.362 . S
C1664 C1667 1.420 . S
C1665 H1657 0.939 . S
C1665 C1666 1.340 1_655 S
C1665 C1667 1.417 . S
C1666 C1665 1.340 1_455 S
C1666 C1668 1.419 . S
C1667 C1662 1.419 1_655 S
C1667 C1664 1.420 . S
C1667 C1665 1.417 . S
C1668 H1658 0.930 . S
C1668 C1666 1.419 . S
C1668 C1669 1.362 . S
C1669 H1659 0.930 . S
C1669 C1662 1.409 . S
C1669 C1668 1.362 . S
H1670 C1676 0.930 . S
H1671 C1679 0.930 . S
H1672 C1680 0.930 . S
H1673 C1681 0.930 . S
H1674 C1684 0.930 . S
H1675 C1685 0.930 . S
C1676 H1670 0.930 . S
C1676 C1677 1.355 . S
C1676 C1678 1.415 . S
C1677 C1676 1.355 . S
C1677 C1679 1.419 . S
C1678 C1676 1.415 . S
C1678 C1683 1.425 . S
C1678 C1685 1.409 . S
C1679 H1671 0.930 . S
C1679 C1677 1.419 . S
C1679 C1680 1.362 . S
C1680 H1672 0.930 . S
C1680 C1679 1.362 . S
C1680 C1683 1.409 . S
C1681 H1673 0.930 . S
C1681 C1682 1.355 . S
C1681 C1683 1.415 . S
C1682 C1681 1.355 . S
C1682 C1684 1.419 . S
C1683 C1678 1.425 . S
C1683 C1680 1.409 . S
C1683 C1681 1.415 . S
C1684 H1674 0.930 . S
C1684 C1682 1.419 . S
C1684 C1685 1.362 . S
C1685 H1675 0.930 . S
C1685 C1678 1.409 . S
C1685 C1684 1.362 . S
H1686 C1692 0.930 . S
H1687 C1695 0.930 . S
H1688 C1696 0.930 . S
H1689 C1697 0.930 . S
H1690 C1700 0.930 . S
H1691 C1701 0.930 . S
C1692 H1686 0.930 . S
C1692 C1693 1.381 . S
C1692 C1694 1.415 . S
C1693 C1692 1.381 . S
C1693 C1695 1.393 1_655 S
C1694 C1692 1.415 . S
C1694 C1699 1.425 1_655 S
C1694 C1701 1.409 . S
C1695 H1687 0.930 . S
C1695 C1693 1.393 1_455 S
C1695 C1696 1.362 . S
C1696 H1688 0.930 . S
C1696 C1695 1.362 . S
C1696 C1699 1.409 . S
C1697 H1689 0.930 . S
C1697 C1698 1.355 1_455 S
C1697 C1699 1.415 . S
C1698 C1697 1.355 1_655 S
C1698 C1700 1.419 . S
C1699 C1694 1.425 1_455 S
C1699 C1696 1.409 . S
C1699 C1697 1.415 . S
C1700 H1690 0.930 . S
C1700 C1698 1.419 . S
C1700 C1701 1.362 . S
C1701 H1691 0.930 . S
C1701 C1694 1.409 . S
C1701 C1700 1.362 . S
H1702 C1708 0.930 . S
H1703 C1711 0.930 . S
H1704 C1712 0.930 . S
H1705 C1713 0.930 . S
H1706 C1716 0.930 . S
H1707 C1717 0.930 . S
C1708 H1702 0.930 . S
C1708 C1709 1.355 . S
C1708 C1710 1.415 . S
C1709 C1708 1.355 . S
C1709 C1711 1.419 . S
C1710 C1708 1.415 . S
C1710 C1715 1.425 . S
C1710 C1717 1.409 . S
C1711 H1703 0.930 . S
C1711 C1709 1.419 . S
C1711 C1712 1.362 . S
C1712 H1704 0.930 . S
C1712 C1711 1.362 . S
C1712 C1715 1.409 . S
C1713 H1705 0.930 . S
C1713 C1714 1.355 . S
C1713 C1715 1.415 . S
C1714 C1713 1.355 . S
C1714 C1716 1.419 . S
C1715 C1710 1.425 . S
C1715 C1712 1.409 . S
C1715 C1713 1.415 . S
C1716 H1706 0.930 . S
C1716 C1714 1.419 . S
C1716 C1717 1.362 . S
C1717 H1707 0.930 . S
C1717 C1710 1.409 . S
C1717 C1716 1.362 . S
H1718 C1724 0.930 . S
H1719 C1727 0.930 . S
H1720 C1728 0.930 . S
H1721 C1729 0.930 . S
H1722 C1732 0.931 . S
H1723 C1733 0.930 1_565 S
C1724 H1718 0.930 . S
C1724 C1725 1.355 . S
C1724 C1726 1.415 . S
C1725 C1724 1.355 . S
C1725 C1727 1.419 . S
C1726 C1724 1.415 . S
C1726 C1731 1.425 . S
C1726 C1733 1.409 . S
C1727 H1719 0.930 . S
C1727 C1725 1.419 . S
C1727 C1728 1.362 . S
C1728 H1720 0.930 . S
C1728 C1727 1.362 . S
C1728 C1731 1.409 . S
C1729 H1721 0.930 . S
C1729 C1730 1.355 . S
C1729 C1731 1.415 . S
C1730 C1729 1.355 . S
C1730 C1732 1.421 1_545 S
C1731 C1726 1.425 . S
C1731 C1728 1.409 . S
C1731 C1729 1.415 . S
C1732 H1722 0.931 . S
C1732 C1730 1.421 1_565 S
C1732 C1733 1.360 1_565 S
C1733 H1723 0.930 1_545 S
C1733 C1726 1.409 . S
C1733 C1732 1.360 1_545 S
H1734 C1740 0.930 . S
H1735 C1743 0.930 . S
H1736 C1744 0.930 . S
H1737 C1745 0.930 . S
H1738 C1748 0.930 . S
H1739 C1749 0.930 . S
C1740 H1734 0.930 . S
C1740 C1741 1.355 . S
C1740 C1742 1.415 . S
C1741 C1740 1.355 . S
C1741 C1743 1.419 . S
C1742 C1740 1.415 . S
C1742 C1747 1.425 . S
C1742 C1749 1.409 . S
C1743 H1735 0.930 . S
C1743 C1741 1.419 . S
C1743 C1744 1.362 . S
C1744 H1736 0.930 . S
C1744 C1743 1.362 . S
C1744 C1747 1.409 . S
C1745 H1737 0.930 . S
C1745 C1746 1.355 . S
C1745 C1747 1.415 . S
C1746 C1745 1.355 . S
C1746 C1748 1.419 . S
C1747 C1742 1.425 . S
C1747 C1744 1.409 . S
C1747 C1745 1.415 . S
C1748 H1738 0.930 . S
C1748 C1746 1.419 . S
C1748 C1749 1.362 . S
C1749 H1739 0.930 . S
C1749 C1742 1.409 . S
C1749 C1748 1.362 . S
H1750 C1756 0.930 . S
H1751 C1759 0.930 . S
H1752 C1760 0.930 . S
H1753 C1761 0.930 . S
H1754 C1764 0.930 . S
H1755 C1765 0.930 . S
C1756 H1750 0.930 . S
C1756 C1757 1.355 . S
C1756 C1758 1.415 . S
C1757 C1756 1.355 . S
C1757 C1759 1.419 . S
C1758 C1756 1.415 . S
C1758 C1763 1.425 . S
C1758 C1765 1.409 . S
C1759 H1751 0.930 . S
C1759 C1757 1.419 . S
C1759 C1760 1.362 . S
C1760 H1752 0.930 . S
C1760 C1759 1.362 . S
C1760 C1763 1.409 . S
C1761 H1753 0.930 . S
C1761 C1762 1.355 . S
C1761 C1763 1.415 . S
C1762 C1761 1.355 . S
C1762 C1764 1.419 . S
C1763 C1758 1.425 . S
C1763 C1760 1.409 . S
C1763 C1761 1.415 . S
C1764 H1754 0.930 . S
C1764 C1762 1.419 . S
C1764 C1765 1.362 . S
C1765 H1755 0.930 . S
C1765 C1758 1.409 . S
C1765 C1764 1.362 . S
H1766 C1772 0.930 . S
H1767 C1775 0.930 . S
H1768 C1776 0.930 . S
H1769 C1777 0.930 . S
H1770 C1780 0.930 . S
H1771 C1781 0.930 . S
C1772 H1766 0.930 . S
C1772 C1773 1.355 . S
C1772 C1774 1.415 . S
C1773 C1772 1.355 . S
C1773 C1775 1.419 . S
C1774 C1772 1.415 . S
C1774 C1779 1.425 . S
C1774 C1781 1.409 . S
C1775 H1767 0.930 . S
C1775 C1773 1.419 . S
C1775 C1776 1.362 . S
C1776 H1768 0.930 . S
C1776 C1775 1.362 . S
C1776 C1779 1.409 . S
C1777 H1769 0.930 . S
C1777 C1778 1.355 . S
C1777 C1779 1.415 . S
C1778 C1777 1.355 . S
C1778 C1780 1.419 . S
C1779 C1774 1.425 . S
C1779 C1776 1.409 . S
C1779 C1777 1.415 . S
C1780 H1770 0.930 . S
C1780 C1778 1.419 . S
C1780 C1781 1.362 . S
C1781 H1771 0.930 . S
C1781 C1774 1.409 . S
C1781 C1780 1.362 . S
H1782 C1788 0.930 . S
H1783 C1791 0.930 . S
H1784 C1792 0.930 . S
H1785 C1793 0.930 . S
H1786 C1796 0.930 . S
H1787 C1797 0.930 . S
C1788 H1782 0.930 . S
C1788 C1789 1.355 . S
C1788 C1790 1.415 . S
C1789 C1788 1.355 . S
C1789 C1791 1.419 . S
C1790 C1788 1.415 . S
C1790 C1795 1.425 . S
C1790 C1797 1.409 . S
C1791 H1783 0.930 . S
C1791 C1789 1.419 . S
C1791 C1792 1.362 . S
C1792 H1784 0.930 . S
C1792 C1791 1.362 . S
C1792 C1795 1.409 . S
C1793 H1785 0.930 . S
C1793 C1794 1.355 . S
C1793 C1795 1.415 . S
C1794 C1793 1.355 . S
C1794 C1796 1.419 . S
C1795 C1790 1.425 . S
C1795 C1792 1.409 . S
C1795 C1793 1.415 . S
C1796 H1786 0.930 . S
C1796 C1794 1.419 . S
C1796 C1797 1.362 . S
C1797 H1787 0.930 . S
C1797 C1790 1.409 . S
C1797 C1796 1.362 . S
H1798 C1804 0.930 . S
H1799 C1807 0.930 . S
H1800 C1808 0.930 . S
H1801 C1809 0.930 . S
H1802 C1812 0.930 . S
H1803 C1813 0.930 . S
C1804 H1798 0.930 . S
C1804 C1805 1.355 . S
C1804 C1806 1.415 . S
C1805 C1804 1.355 . S
C1805 C1807 1.419 . S
C1806 C1804 1.415 . S
C1806 C1811 1.425 . S
C1806 C1813 1.409 . S
C1807 H1799 0.930 . S
C1807 C1805 1.419 . S
C1807 C1808 1.362 . S
C1808 H1800 0.930 . S
C1808 C1807 1.362 . S
C1808 C1811 1.409 . S
C1809 H1801 0.930 . S
C1809 C1810 1.355 . S
C1809 C1811 1.415 . S
C1810 C1809 1.355 . S
C1810 C1812 1.419 . S
C1811 C1806 1.425 . S
C1811 C1808 1.409 . S
C1811 C1809 1.415 . S
C1812 H1802 0.930 . S
C1812 C1810 1.419 . S
C1812 C1813 1.362 . S
C1813 H1803 0.930 . S
C1813 C1806 1.409 . S
C1813 C1812 1.362 . S
H1814 C1820 0.930 . S
H1815 C1823 0.930 . S
H1816 C1824 0.930 . S
H1817 C1825 0.930 . S
H1818 C1828 0.930 . S
H1819 C1829 0.930 . S
C1820 H1814 0.930 . S
C1820 C1821 1.355 . S
C1820 C1822 1.415 . S
C1821 C1820 1.355 . S
C1821 C1823 1.419 . S
C1822 C1820 1.415 . S
C1822 C1827 1.425 . S
C1822 C1829 1.409 . S
C1823 H1815 0.930 . S
C1823 C1821 1.419 . S
C1823 C1824 1.362 . S
C1824 H1816 0.930 . S
C1824 C1823 1.362 . S
C1824 C1827 1.409 . S
C1825 H1817 0.930 . S
C1825 C1826 1.355 . S
C1825 C1827 1.415 . S
C1826 C1825 1.355 . S
C1826 C1828 1.419 . S
C1827 C1822 1.425 . S
C1827 C1824 1.409 . S
C1827 C1825 1.415 . S
C1828 H1818 0.930 . S
C1828 C1826 1.419 . S
C1828 C1829 1.362 . S
C1829 H1819 0.930 . S
C1829 C1822 1.409 . S
C1829 C1828 1.362 . S
H1830 C1836 0.930 . S
H1831 C1839 0.930 . S
H1832 C1840 0.930 . S
H1833 C1841 0.930 . S
H1834 C1844 0.930 . S
H1835 C1845 0.930 . S
C1836 H1830 0.930 . S
C1836 C1837 1.355 . S
C1836 C1838 1.415 . S
C1837 C1836 1.355 . S
C1837 C1839 1.419 . S
C1838 C1836 1.415 . S
C1838 C1843 1.425 . S
C1838 C1845 1.409 . S
C1839 H1831 0.930 . S
C1839 C1837 1.419 . S
C1839 C1840 1.362 . S
C1840 H1832 0.930 . S
C1840 C1839 1.362 . S
C1840 C1843 1.409 . S
C1841 H1833 0.930 . S
C1841 C1842 1.355 . S
C1841 C1843 1.415 . S
C1842 C1841 1.355 . S
C1842 C1844 1.419 . S
C1843 C1838 1.425 . S
C1843 C1840 1.409 . S
C1843 C1841 1.415 . S
C1844 H1834 0.930 . S
C1844 C1842 1.419 . S
C1844 C1845 1.362 . S
C1845 H1835 0.930 . S
C1845 C1838 1.409 . S
C1845 C1844 1.362 . S
H1846 C1852 0.930 . S
H1847 C1855 0.930 . S
H1848 C1856 0.930 . S
H1849 C1857 0.930 . S
H1850 C1860 0.930 . S
H1851 C1861 0.930 . S
C1852 H1846 0.930 . S
C1852 C1853 1.355 . S
C1852 C1854 1.415 . S
C1853 C1852 1.355 . S
C1853 C1855 1.419 . S
C1854 C1852 1.415 . S
C1854 C1859 1.425 . S
C1854 C1861 1.409 . S
C1855 H1847 0.930 . S
C1855 C1853 1.419 . S
C1855 C1856 1.362 . S
C1856 H1848 0.930 . S
C1856 C1855 1.362 . S
C1856 C1859 1.409 . S
C1857 H1849 0.930 . S
C1857 C1858 1.355 . S
C1857 C1859 1.415 . S
C1858 C1857 1.355 . S
C1858 C1860 1.419 . S
C1859 C1854 1.425 . S
C1859 C1856 1.409 . S
C1859 C1857 1.415 . S
C1860 H1850 0.930 . S
C1860 C1858 1.419 . S
C1860 C1861 1.362 . S
C1861 H1851 0.930 . S
C1861 C1854 1.409 . S
C1861 C1860 1.362 . S
H1862 C1868 0.930 . S
H1863 C1871 0.930 . S
H1864 C1872 0.930 . S
H1865 C1873 0.930 . S
H1866 C1876 0.930 . S
H1867 C1877 0.930 . S
C1868 H1862 0.930 . S
C1868 C1869 1.355 . S
C1868 C1870 1.415 . S
C1869 C1868 1.355 . S
C1869 C1871 1.419 . S
C1870 C1868 1.415 . S
C1870 C1875 1.425 . S
C1870 C1877 1.409 . S
C1871 H1863 0.930 . S
C1871 C1869 1.419 . S
C1871 C1872 1.362 . S
C1872 H1864 0.930 . S
C1872 C1871 1.362 . S
C1872 C1875 1.409 . S
C1873 H1865 0.930 . S
C1873 C1874 1.355 . S
C1873 C1875 1.415 . S
C1874 C1873 1.355 . S
C1874 C1876 1.419 . S
C1875 C1870 1.425 . S
C1875 C1872 1.409 . S
C1875 C1873 1.415 . S
C1876 H1866 0.930 . S
C1876 C1874 1.419 . S
C1876 C1877 1.362 . S
C1877 H1867 0.930 . S
C1877 C1870 1.409 . S
C1877 C1876 1.362 . S
H1878 C1884 0.930 . S
H1879 C1887 0.930 . S
H1880 C1888 0.930 . S
H1881 C1889 0.930 . S
H1882 C1892 0.930 . S
H1883 C1893 0.930 . S
C1884 H1878 0.930 . S
C1884 C1885 1.355 . S
C1884 C1886 1.415 . S
C1885 C1884 1.355 . S
C1885 C1887 1.419 . S
C1886 C1884 1.415 . S
C1886 C1891 1.425 . S
C1886 C1893 1.409 . S
C1887 H1879 0.930 . S
C1887 C1885 1.419 . S
C1887 C1888 1.362 . S
C1888 H1880 0.930 . S
C1888 C1887 1.362 . S
C1888 C1891 1.409 . S
C1889 H1881 0.930 . S
C1889 C1890 1.355 . S
C1889 C1891 1.415 . S
C1890 C1889 1.355 . S
C1890 C1892 1.419 . S
C1891 C1886 1.425 . S
C1891 C1888 1.409 . S
C1891 C1889 1.415 . S
C1892 H1882 0.930 . S
C1892 C1890 1.419 . S
C1892 C1893 1.362 . S
C1893 H1883 0.930 . S
C1893 C1886 1.409 . S
C1893 C1892 1.362 . S
H1894 C1900 0.930 . S
H1895 C1903 0.930 . S
H1896 C1904 0.930 . S
H1897 C1905 0.930 . S
H1898 C1908 0.930 . S
H1899 C1909 0.930 . S
C1900 H1894 0.930 . S
C1900 C1901 1.355 . S
C1900 C1902 1.415 . S
C1901 C1900 1.355 . S
C1901 C1903 1.419 . S
C1902 C1900 1.415 . S
C1902 C1907 1.425 . S
C1902 C1909 1.409 . S
C1903 H1895 0.930 . S
C1903 C1901 1.419 . S
C1903 C1904 1.362 . S
C1904 H1896 0.930 . S
C1904 C1903 1.362 . S
C1904 C1907 1.409 . S
C1905 H1897 0.930 . S
C1905 C1906 1.355 . S
C1905 C1907 1.415 . S
C1906 C1905 1.355 . S
C1906 C1908 1.419 . S
C1907 C1902 1.425 . S
C1907 C1904 1.409 . S
C1907 C1905 1.415 . S
C1908 H1898 0.930 . S
C1908 C1906 1.419 . S
C1908 C1909 1.362 . S
C1909 H1899 0.930 . S
C1909 C1902 1.409 . S
C1909 C1908 1.362 . S
H1910 C1916 0.930 . S
H1911 C1919 0.930 . S
H1912 C1920 0.930 . S
H1913 C1921 0.930 . S
H1914 C1924 0.930 . S
H1915 C1925 0.930 . S
C1916 H1910 0.930 . S
C1916 C1917 1.355 . S
C1916 C1918 1.415 . S
C1917 C1916 1.355 . S
C1917 C1919 1.419 . S
C1918 C1916 1.415 . S
C1918 C1923 1.425 . S
C1918 C1925 1.409 . S
C1919 H1911 0.930 . S
C1919 C1917 1.419 . S
C1919 C1920 1.362 . S
C1920 H1912 0.930 . S
C1920 C1919 1.362 . S
C1920 C1923 1.409 . S
C1921 H1913 0.930 . S
C1921 C1922 1.355 . S
C1921 C1923 1.415 . S
C1922 C1921 1.355 . S
C1922 C1924 1.419 . S
C1923 C1918 1.425 . S
C1923 C1920 1.409 . S
C1923 C1921 1.415 . S
C1924 H1914 0.930 . S
C1924 C1922 1.419 . S
C1924 C1925 1.362 . S
C1925 H1915 0.930 . S
C1925 C1918 1.409 . S
C1925 C1924 1.362 . S
C1069 C528 1.654 . S
C1074 C714 1.676 . S
C1085 C562 1.803 . S
C1090 C754 1.802 . S
C1101 C484 1.768 . S
C1106 C784 1.764 . S
C1117 C445 1.567 . S
C1122 C744 1.590 . S
C1138 C794 1.530 . S
C1133 C367 1.526 . S
C1149 C411 1.433 . S
C1154 C704 1.504 . S
C1170 C733 1.701 . S
C1165 C450 1.663 . S
C1186 C773 1.785 . S
C1181 C372 1.766 . S
C1197 C406 1.732 . S
C1202 C799 1.775 . S
C1213 C523 1.553 . S
C1218 C759 1.572 . S
C1229 C567 1.494 . S
C1234 C813 1.504 . S
C1250 C719 1.528 . S
C1245 C489 1.482 . S
C1266 C834 1.716 . S
C1261 C60 1.704 . S
C1277 C94 1.795 . S
C1282 C874 1.795 . S
C1293 C16 1.756 . S
C1298 C904 1.791 . S
C1309 C679 1.568 . S
C1314 C864 1.559 . S
C1325 C601 1.481 . S
C1330 C914 1.500 . S
C1341 C645 1.494 . S
C1346 C824 1.500 . S
C1357 C684 1.663 . S
C1362 C853 1.701 . S
C1373 C606 1.762 . S
C1378 C893 1.782 . S
C1394 C919 1.773 . S
C1389 C640 1.773 . S
C1405 C55 1.574 . S
C1410 C879 1.561 . S
C1426 C933 1.498 . S
C1421 C99 1.476 1_455 S
C1437 C21 1.499 . S
C1442 C839 1.519 . S
C1458 C954 1.712 . S
C1453 C294 1.699 . S
C1469 C328 1.807 . S
C1474 C994 1.813 . S
C1490 C1024 1.761 . S
C1485 C250 1.765 . S
C1506 C984 1.609 . S
C1501 C211 1.617 . S
C1522 C1034 1.504 . S
C1517 C133 1.484 1_655 S
C1533 C177 1.421 . S
C1538 C944 1.458 . S
C1549 C216 1.676 . S
C1554 C973 1.710 . S
C1565 C138 1.768 . S
C1570 C1013 1.786 . S
C1586 C1039 1.798 . S
C1581 C172 1.760 . S
C1597 C289 1.554 . S
C1602 C999 1.577 . S
C1613 C333 1.486 . S
C1618 C1053 1.499 . S
C1629 C255 1.417 . S
C1634 C959 1.481 . S
C1645 C586 1.368 . S
C1650 C731 1.347 . S
C1666 C771 1.835 . S
C1661 C625 1.852 . S
C1677 C664 1.571 . S
C1682 C790 1.565 . S
C1693 C235 1.861 . S
C1698 C750 1.850 . S
C1709 C274 1.542 . S
C1714 C811 1.550 . S
C1730 C710 1.334 . S
C1725 C313 1.353 . S
C1741 C118 1.362 . S
C1746 C851 1.331 . S
C1757 C157 1.822 . S
C1762 C891 1.817 . S
C1773 C196 1.557 . S
C1778 C910 1.558 . S
C1789 C469 1.817 . S
C1794 C870 1.814 . S
C1810 C931 1.569 . S
C1805 C508 1.558 . S
C1821 C547 1.363 . S
C1826 C830 1.368 . S
C1837 C352 1.358 . S
C1842 C971 1.347 . S
C1853 C391 1.819 . S
C1858 C1011 1.812 . S
C1874 C1030 1.580 . S
C1869 C430 1.584 . S
C1885 C1 1.840 . S
C1890 C990 1.824 . S
C1901 C40 1.560 . S
C1906 C1051 1.571 . S
C1917 C79 1.367 . S
C1922 C950 1.362 . S
