# Generated by pormake.
# Topology wbl, (4,4)-cn, num edge types: 1
# Building blocks:
#     Node 0, Type 0, BuildingBlock: MUDLON_clean_linker_0, # of connection points: 4
#     Node 1, Type 0, BuildingBlock: MUDLON_clean_linker_0, # of connection points: 4
#     Node 2, Type 0, BuildingBlock: MUDLON_clean_linker_0, # of connection points: 4
#     Node 3, Type 0, BuildingBlock: MUDLON_clean_linker_0, # of connection points: 4
#     Node 4, Type 0, BuildingBlock: MUDLON_clean_linker_0, # of connection points: 4
#     Node 5, Type 0, BuildingBlock: MUDLON_clean_linker_0, # of connection points: 4
#     Node 6, Type 0, BuildingBlock: MUDLON_clean_linker_0, # of connection points: 4
#     Node 7, Type 0, BuildingBlock: MUDLON_clean_linker_0, # of connection points: 4
#     Node 8, Type 1, BuildingBlock: NAHDIM_clean_sbu_0, # of connection points: 4
#     Node 9, Type 1, BuildingBlock: NAHDIM_clean_sbu_0, # of connection points: 4
#     Node 10, Type 1, BuildingBlock: NAHDIM_clean_sbu_0, # of connection points: 4
#     Node 11, Type 1, BuildingBlock: NAHDIM_clean_sbu_0, # of connection points: 4
#     Node 12, Type 1, BuildingBlock: NAHDIM_clean_sbu_0, # of connection points: 4
#     Node 13, Type 1, BuildingBlock: NAHDIM_clean_sbu_0, # of connection points: 4
#     Node 14, Type 1, BuildingBlock: NAHDIM_clean_sbu_0, # of connection points: 4
#     Node 15, Type 1, BuildingBlock: NAHDIM_clean_sbu_0, # of connection points: 4
#     Edge 16, Type (0, 1), None
#     Edge 17, Type (0, 1), None
#     Edge 18, Type (0, 1), None
#     Edge 19, Type (0, 1), None
#     Edge 20, Type (0, 1), None
#     Edge 21, Type (0, 1), None
#     Edge 22, Type (0, 1), None
#     Edge 23, Type (0, 1), None
#     Edge 24, Type (0, 1), None
#     Edge 25, Type (0, 1), None
#     Edge 26, Type (0, 1), None
#     Edge 27, Type (0, 1), None
#     Edge 28, Type (0, 1), None
#     Edge 29, Type (0, 1), None
#     Edge 30, Type (0, 1), None
#     Edge 31, Type (0, 1), None
#     Edge 32, Type (0, 1), None
#     Edge 33, Type (0, 1), None
#     Edge 34, Type (0, 1), None
#     Edge 35, Type (0, 1), None
#     Edge 36, Type (0, 1), None
#     Edge 37, Type (0, 1), None
#     Edge 38, Type (0, 1), None
#     Edge 39, Type (0, 1), None
#     Edge 40, Type (0, 1), None
#     Edge 41, Type (0, 1), None
#     Edge 42, Type (0, 1), None
#     Edge 43, Type (0, 1), None
#     Edge 44, Type (0, 1), None
#     Edge 45, Type (0, 1), None
#     Edge 46, Type (0, 1), None
#     Edge 47, Type (0, 1), None
# Relax obj value: 0.102
# Max RMSD: 0.134
# Mean RMSD: 0.120
data_MOF--net-wbl--node1-NAHDIM_clean_sbu_0--node2-MUDLON_clean_linker_0--edge1-none
_symmetry_space_group_name_H-M    P1
_symmetry_Int_Tables_number       1
_symmetry_cell_setting            triclinic
loop_
_symmetry_equiv_pos_as_xyz
'x, y, z'
_cell_length_a     32.875066
_cell_length_b     31.907848
_cell_length_c     43.616094
_cell_angle_alpha  89.937229
_cell_angle_beta   89.123832
_cell_angle_gamma 89.975811
loop_
_atom_site_label
_atom_site_type_symbol
_atom_site_fract_x
_atom_site_fract_y
_atom_site_fract_z
_atom_type_partial_charge
H0 H 0.15684 0.89789 0.36858 0.0
N1 N 0.09345 0.87747 0.3312 0.0
H2 H 0.16899 0.87134 0.41961 0.0
H3 H 0.04866 0.82202 0.3627 0.0
H4 H 0.06127 0.79415 0.41428 0.0
H5 H 0.11809 0.80996 0.30042 0.0
H6 H 0.18335 0.7997 0.2735 0.0
H7 H 0.14928 0.93951 0.31615 0.0
H8 H 0.2135 0.9295 0.28967 0.0
H9 H 0.10916 0.9516 0.36132 0.0
H10 H 0.02527 0.89088 0.30061 0.0
H11 H 0.06798 0.0143 0.36118 0.0
H12 H 0.98238 0.95375 0.3014 0.0
H13 H 0.91926 0.21142 0.3626 0.0
H14 H 0.88542 0.23594 0.40972 0.0
H15 H 0.84639 0.1094 0.42956 0.0
H16 H 0.87921 0.08537 0.3821 0.0
H17 H 0.86069 0.07287 0.32999 0.0
H18 H 0.79756 0.07937 0.30178 0.0
H19 H 0.83171 0.20487 0.27423 0.0
H20 H 0.8952 0.19786 0.30244 0.0
H21 H 0.96408 0.10104 0.38417 0.0
H22 H 0.00595 0.03908 0.38131 0.0
H23 H 0.97861 0.02588 0.28528 0.0
N24 N 0.91698 0.13486 0.33869 0.0
H25 H 0.93483 0.08704 0.28831 0.0
C26 C 0.10157 0.86201 0.36167 0.0
C27 C 0.13549 0.87558 0.37827 0.0
C28 C 0.14241 0.86033 0.40765 0.0
C29 C 0.116 0.83069 0.42109 0.0
C30 C 0.08213 0.81701 0.40455 0.0
C31 C 0.07492 0.83278 0.37514 0.0
C32 C 0.12839 0.87523 0.31064 0.0
C33 C 0.13842 0.83639 0.29744 0.0
C34 C 0.17573 0.83058 0.28213 0.0
C35 C 0.20382 0.86365 0.27986 0.0
C36 C 0.19271 0.90323 0.29131 0.0
C37 C 0.15552 0.90902 0.30652 0.0
C38 C 0.07039 0.91608 0.33084 0.0
C39 C 0.0818 0.95148 0.34797 0.0
C40 C 0.05788 0.98755 0.34808 0.0
C41 C 0.02156 0.98907 0.33155 0.0
C42 C 0.01039 0.95388 0.31415 0.0
C43 C 0.03468 0.91785 0.31377 0.0
C44 C 0.90222 0.14667 0.3689 0.0
C45 C 0.90401 0.18894 0.37742 0.0
C46 C 0.88446 0.20287 0.40418 0.0
C47 C 0.86324 0.17454 0.42319 0.0
C48 C 0.86273 0.13187 0.41539 0.0
C49 C 0.88148 0.11811 0.38826 0.0
C50 C 0.88279 0.135 0.31823 0.0
C51 C 0.85497 0.10149 0.31744 0.0
C52 C 0.81882 0.10528 0.30129 0.0
C53 C 0.80947 0.14281 0.28604 0.0
C54 C 0.83796 0.17564 0.2859 0.0
C55 C 0.87431 0.17165 0.3018 0.0
C56 C 0.94262 0.09747 0.33718 0.0
C57 C 0.96549 0.08436 0.3626 0.0
C58 C 0.99047 0.04907 0.36082 0.0
C59 C 0.99507 0.02684 0.33319 0.0
C60 C 0.97459 0.0413 0.30722 0.0
C61 C 0.94926 0.07642 0.30907 0.0
H62 H 0.91507 0.33631 0.61459 0.0
N63 N 0.89704 0.40537 0.58 0.0
H64 H 0.8905 0.32115 0.66615 0.0
H65 H 0.85209 0.45486 0.61621 0.0
H66 H 0.82632 0.43946 0.66815 0.0
H67 H 0.82294 0.38717 0.56062 0.0
H68 H 0.80094 0.32333 0.53457 0.0
H69 H 0.94763 0.34493 0.55363 0.0
H70 H 0.92605 0.28241 0.52775 0.0
H71 H 0.97098 0.37607 0.59977 0.0
H72 H 0.91307 0.47743 0.5517 0.0
H73 H 0.03643 0.40923 0.59263 0.0
H74 H 0.97862 0.51312 0.54657 0.0
H75 H 0.22251 0.57259 0.61065 0.0
H76 H 0.22574 0.60217 0.66249 0.0
H77 H 0.09686 0.62874 0.66001 0.0
H78 H 0.09401 0.59968 0.60861 0.0
H79 H 0.10316 0.62822 0.55943 0.0
H80 H 0.11907 0.69205 0.53134 0.0
H81 H 0.24129 0.6468 0.51419 0.0
H82 H 0.22478 0.58242 0.54244 0.0
H83 H 0.13551 0.50352 0.61241 0.0
H84 H 0.07399 0.46247 0.61163 0.0
H85 H 0.04355 0.51684 0.52405 0.0
N86 N 0.15741 0.56662 0.57499 0.0
H87 H 0.10419 0.55982 0.52568 0.0
C88 C 0.88561 0.39704 0.61153 0.0
C89 C 0.89652 0.35951 0.62625 0.0
C90 C 0.88218 0.35075 0.65581 0.0
C91 C 0.85623 0.37902 0.67126 0.0
C92 C 0.84616 0.41699 0.65685 0.0
C93 C 0.86087 0.4259 0.62727 0.0
C94 C 0.8868 0.37135 0.55955 0.0
C95 C 0.84564 0.36478 0.55291 0.0
C96 C 0.83311 0.32819 0.5382 0.0
C97 C 0.86172 0.29755 0.52952 0.0
C98 C 0.90317 0.30525 0.53437 0.0
C99 C 0.91561 0.34152 0.54935 0.0
C100 C 0.93678 0.42416 0.57605 0.0
C101 C 0.97216 0.4057 0.58781 0.0
C102 C 0.00989 0.42506 0.5839 0.0
C103 C 0.01317 0.46426 0.56924 0.0
C104 C 0.97768 0.48264 0.55747 0.0
C105 C 0.94002 0.46256 0.56066 0.0
C106 C 0.15823 0.58379 0.60572 0.0
C107 C 0.19508 0.58477 0.62143 0.0
C108 C 0.19679 0.60163 0.65097 0.0
C109 C 0.16149 0.6176 0.66537 0.0
C110 C 0.12455 0.61648 0.64966 0.0
C111 C 0.12295 0.6001 0.6201 0.0
C112 C 0.16288 0.60028 0.55305 0.0
C113 C 0.13309 0.63146 0.54908 0.0
C114 C 0.14231 0.66811 0.53295 0.0
C115 C 0.18169 0.67483 0.52086 0.0
C116 C 0.21072 0.64268 0.52329 0.0
C117 C 0.20132 0.60579 0.53928 0.0
C118 C 0.12345 0.53787 0.57061 0.0
C119 C 0.11549 0.50713 0.59309 0.0
C120 C 0.08027 0.48299 0.59237 0.0
C121 C 0.0528 0.48703 0.56816 0.0
C122 C 0.06293 0.51428 0.54381 0.0
C123 C 0.09795 0.53919 0.54485 0.0
H124 H 0.66341 0.40801 0.87049 0.0
N125 N 0.60461 0.38547 0.82972 0.0
H126 H 0.67236 0.38062 0.92168 0.0
H127 H 0.55873 0.32853 0.85868 0.0
H128 H 0.56827 0.29963 0.91035 0.0
H129 H 0.62575 0.31714 0.79867 0.0
H130 H 0.69154 0.30212 0.77389 0.0
H131 H 0.66586 0.44301 0.81789 0.0
H132 H 0.73097 0.42824 0.79367 0.0
H133 H 0.62093 0.46184 0.85659 0.0
H134 H 0.53629 0.39665 0.79903 0.0
H135 H 0.57887 0.52391 0.85523 0.0
H136 H 0.49237 0.45866 0.79889 0.0
H137 H 0.42016 0.71449 0.85843 0.0
H138 H 0.38749 0.73852 0.90617 0.0
H139 H 0.35728 0.61054 0.92935 0.0
H140 H 0.38871 0.5869 0.88124 0.0
H141 H 0.36662 0.57263 0.82996 0.0
H142 H 0.30214 0.5752 0.8031 0.0
H143 H 0.32979 0.70102 0.77242 0.0
H144 H 0.39466 0.69792 0.79925 0.0
H145 H 0.47277 0.60762 0.87983 0.0
H146 H 0.5175 0.54787 0.87646 0.0
H147 H 0.4844 0.52956 0.78198 0.0
N148 N 0.42091 0.63714 0.83581 0.0
H149 H 0.43776 0.58837 0.78566 0.0
C150 C 0.61005 0.37051 0.86065 0.0
C151 C 0.64195 0.38498 0.87897 0.0
C152 C 0.64709 0.36913 0.90843 0.0
C153 C 0.62095 0.33794 0.92016 0.0
C154 C 0.58887 0.32367 0.90197 0.0
C155 C 0.5834 0.34005 0.87252 0.0
C156 C 0.64047 0.38099 0.81037 0.0
C157 C 0.64828 0.34181 0.79692 0.0
C158 C 0.68593 0.33325 0.78289 0.0
C159 C 0.71669 0.36381 0.78223 0.0
C160 C 0.70808 0.40384 0.79408 0.0
C161 C 0.67042 0.41241 0.80796 0.0
C162 C 0.58203 0.42422 0.82759 0.0
C163 C 0.59347 0.46073 0.84339 0.0
C164 C 0.56891 0.49639 0.84295 0.0
C165 C 0.53186 0.49632 0.82726 0.0
C166 C 0.52089 0.46011 0.81094 0.0
C167 C 0.54583 0.42455 0.81107 0.0
C168 C 0.40734 0.64904 0.86632 0.0
C169 C 0.40715 0.69163 0.87411 0.0
C170 C 0.38832 0.70526 0.90123 0.0
C171 C 0.36992 0.67635 0.92138 0.0
C172 C 0.37155 0.63345 0.91432 0.0
C173 C 0.38948 0.61993 0.88681 0.0
C174 C 0.38563 0.63516 0.81645 0.0
C175 C 0.35915 0.60048 0.81703 0.0
C176 C 0.32222 0.60204 0.80167 0.0
C177 C 0.3107 0.63847 0.78585 0.0
C178 C 0.33771 0.67258 0.78453 0.0
C179 C 0.37485 0.67081 0.79964 0.0
C180 C 0.44829 0.60109 0.83391 0.0
C181 C 0.47359 0.59021 0.85856 0.0
C182 C 0.50023 0.55625 0.85642 0.0
C183 C 0.50409 0.53318 0.8291 0.0
C184 C 0.48114 0.54559 0.80375 0.0
C185 C 0.45413 0.57936 0.80597 0.0
H186 H 0.40259 0.8435 0.11233 0.0
N187 N 0.38574 0.91344 0.07832 0.0
H188 H 0.3782 0.82811 0.16395 0.0
H189 H 0.34001 0.96228 0.11453 0.0
H190 H 0.31444 0.94664 0.16648 0.0
H191 H 0.31282 0.88844 0.06012 0.0
H192 H 0.29582 0.82349 0.03338 0.0
H193 H 0.44066 0.8592 0.04926 0.0
H194 H 0.42388 0.79568 0.02276 0.0
H195 H 0.45884 0.88531 0.1004 0.0
H196 H 0.40215 0.98628 0.05105 0.0
H197 H 0.52391 0.9202 0.09631 0.0
H198 H 0.4674 0.02322 0.04844 0.0
H199 H 0.7131 0.07706 0.11502 0.0
H200 H 0.71914 0.10849 0.16606 0.0
H201 H 0.59223 0.14384 0.164 0.0
H202 H 0.58662 0.11283 0.11331 0.0
H203 H 0.59596 0.13803 0.06305 0.0
H204 H 0.61463 0.19976 0.0333 0.0
H205 H 0.73462 0.14797 0.01723 0.0
H206 H 0.71535 0.08583 0.04713 0.0
H207 H 0.62034 0.01553 0.1193 0.0
H208 H 0.55811 0.9756 0.11741 0.0
H209 H 0.53434 0.02571 0.02733 0.0
N210 N 0.64732 0.07452 0.07989 0.0
H211 H 0.59581 0.06737 0.02977 0.0
C212 C 0.37326 0.90434 0.10955 0.0
C213 C 0.38401 0.86661 0.12409 0.0
C214 C 0.36985 0.85776 0.15369 0.0
C215 C 0.34426 0.88612 0.16935 0.0
C216 C 0.33404 0.92411 0.15501 0.0
C217 C 0.3486 0.93314 0.12541 0.0
C218 C 0.37785 0.87905 0.05749 0.0
C219 C 0.3372 0.86866 0.05151 0.0
C220 C 0.32754 0.83147 0.03635 0.0
C221 C 0.35851 0.80411 0.02644 0.0
C222 C 0.39924 0.81584 0.03042 0.0
C223 C 0.40888 0.85266 0.04587 0.0
C224 C 0.42525 0.93319 0.07595 0.0
C225 C 0.46017 0.91528 0.08891 0.0
C226 C 0.49765 0.93552 0.08666 0.0
C227 C 0.5011 0.97487 0.0723 0.0
C228 C 0.46617 0.99268 0.05925 0.0
C229 C 0.42874 0.97187 0.06095 0.0
C230 C 0.64961 0.09248 0.11032 0.0
C231 C 0.68668 0.09152 0.12572 0.0
C232 C 0.69 0.10944 0.15482 0.0
C233 C 0.6561 0.12852 0.1691 0.0
C234 C 0.61887 0.12923 0.15373 0.0
C235 C 0.61569 0.11171 0.12459 0.0
C236 C 0.65439 0.10713 0.05737 0.0
C237 C 0.62598 0.13945 0.05263 0.0
C238 C 0.63676 0.17483 0.03551 0.0
C239 C 0.67634 0.17908 0.02319 0.0
C240 C 0.70393 0.14576 0.02648 0.0
C241 C 0.69297 0.11016 0.04343 0.0
C242 C 0.61183 0.04766 0.076 0.0
C243 C 0.60157 0.01868 0.09924 0.0
C244 C 0.56601 0.99514 0.09791 0.0
C245 C 0.54042 -0.00193 0.07249 0.0
C246 C 0.5524 0.02398 0.04785 0.0
C247 C 0.58785 0.04815 0.04938 0.0
H248 H 0.11646 0.56101 0.86472 0.0
N249 N 0.09411 0.60616 0.91607 0.0
H250 H 0.14223 0.59066 0.81668 0.0
H251 H 0.08875 0.68512 0.89803 0.0
H252 H 0.11499 0.71513 0.8501 0.0
H253 H 0.10166 0.6544 0.96532 0.0
H254 H 0.16464 0.67107 0.99247 0.0
H255 H 0.16883 0.56974 0.90645 0.0
H256 H 0.23046 0.58419 0.93429 0.0
H257 H 0.11951 0.52333 0.91559 0.0
H258 H 0.01425 0.60336 0.92496 0.0
H259 H 0.07701 0.46203 0.92211 0.0
H260 H 0.97089 0.54134 0.93066 0.0
H261 H 0.91008 0.27441 0.90981 0.0
H262 H 0.88883 0.249 0.8595 0.0
H263 H 0.87323 0.37699 0.82927 0.0
H264 H 0.89395 0.40192 0.8794 0.0
H265 H 0.85319 0.41311 0.9242 0.0
H266 H 0.78606 0.41139 0.94833 0.0
H267 H 0.81862 0.2982 0.99672 0.0
H268 H 0.88644 0.30052 0.97245 0.0
H269 H 0.98232 0.36317 0.89648 0.0
H270 H 0.02704 0.42366 0.89437 0.0
H271 H 0.95546 0.48341 0.96569 0.0
N272 N 0.91278 0.35356 0.92928 0.0
H273 H 0.91044 0.42349 0.96773 0.0
C274 C 0.10058 0.62099 0.88513 0.0
C275 C 0.11477 0.59454 0.86145 0.0
C276 C 0.12972 0.61158 0.83395 0.0
C277 C 0.13124 0.65526 0.82985 0.0
C278 C 0.11464 0.68137 0.85272 0.0
C279 C 0.0993 0.66431 0.87999 0.0
C280 C 0.12999 0.60992 0.9345 0.0
C281 C 0.12959 0.63841 0.95894 0.0
C282 C 0.16551 0.64812 0.97419 0.0
C283 C 0.20227 0.62875 0.96551 0.0
C284 C 0.20243 0.59915 0.94175 0.0
C285 C 0.16687 0.59038 0.92603 0.0
C286 C 0.07015 0.56851 0.91991 0.0
C287 C 0.08733 0.52807 0.91908 0.0
C288 C 0.06278 0.49265 0.92262 0.0
C289 C 0.02051 0.49669 0.92689 0.0
C290 C 0.00342 0.53709 0.92786 0.0
C291 C 0.02805 0.57254 0.92438 0.0
C292 C 0.90378 0.33988 0.89846 0.0
C293 C 0.90252 0.29685 0.89215 0.0
C294 C 0.8903 0.28247 0.86345 0.0
C295 C 0.87933 0.311 0.84041 0.0
C296 C 0.88164 0.35418 0.84646 0.0
C297 C 0.89338 0.3685 0.87521 0.0
C298 C 0.87508 0.35694 0.94667 0.0
C299 C 0.84623 0.3883 0.94036 0.0
C300 C 0.80776 0.38728 0.95428 0.0
C301 C 0.79688 0.35449 0.97435 0.0
C302 C 0.82608 0.32388 0.98137 0.0
C303 C 0.86483 0.32521 0.96766 0.0
C304 C 0.94052 0.38928 0.93038 0.0
C305 C 0.97563 0.38945 0.91142 0.0
C306 C 0.00164 0.42398 0.91047 0.0
C307 C 0.99418 0.45892 0.92929 0.0
C308 C 0.9611 0.45766 0.95004 0.0
C309 C 0.93498 0.42309 0.95097 0.0
H310 H 0.59505 0.34408 0.14275 0.0
N311 N 0.61198 0.41428 0.17632 0.0
H312 H 0.61916 0.3283 0.09123 0.0
H313 H 0.65665 0.46334 0.13939 0.0
H314 H 0.68172 0.44743 0.08734 0.0
H315 H 0.68495 0.39048 0.19517 0.0
H316 H 0.70267 0.32536 0.22149 0.0
H317 H 0.55754 0.35862 0.20444 0.0
H318 H 0.57503 0.29483 0.23049 0.0
H319 H 0.53869 0.38665 0.1544 0.0
H320 H 0.59587 0.48658 0.20433 0.0
H321 H 0.47356 0.42116 0.15962 0.0
H322 H 0.53061 0.52338 0.20786 0.0
H323 H 0.28694 0.57882 0.14057 0.0
H324 H 0.28305 0.61002 0.0893 0.0
H325 H 0.40941 0.64649 0.09461 0.0
H326 H 0.41296 0.61534 0.14544 0.0
H327 H 0.40259 0.63888 0.1956 0.0
H328 H 0.38327 0.70066 0.2249 0.0
H329 H 0.2623 0.65005 0.23824 0.0
H330 H 0.28222 0.58781 0.20877 0.0
H331 H 0.37662 0.5166 0.13813 0.0
H332 H 0.43859 0.47625 0.1395 0.0
H333 H 0.46422 0.52632 0.22922 0.0
N334 N 0.35115 0.57629 0.17721 0.0
H335 H 0.40302 0.56855 0.22719 0.0
C336 C 0.62402 0.40513 0.14501 0.0
C337 C 0.61341 0.3672 0.13077 0.0
C338 C 0.62743 0.35811 0.10121 0.0
C339 C 0.65258 0.38653 0.08516 0.0
C340 C 0.66247 0.42484 0.0991 0.0
C341 C 0.6482 0.43401 0.12876 0.0
C342 C 0.62009 0.37986 0.19712 0.0
C343 C 0.6608 0.3701 0.20339 0.0
C344 C 0.67087 0.33278 0.21827 0.0
C345 C 0.64025 0.30462 0.22757 0.0
C346 C 0.5994 0.31565 0.22331 0.0
C347 C 0.58935 0.35264 0.20815 0.0
C348 C 0.57251 0.43403 0.17907 0.0
C349 C 0.53744 0.41634 0.16624 0.0
C350 C 0.49993 0.43639 0.16913 0.0
C351 C 0.49659 0.47543 0.1839 0.0
C352 C 0.53171 0.49306 0.19676 0.0
C353 C 0.56916 0.47235 0.19451 0.0
C354 C 0.34998 0.59479 0.1469 0.0
C355 C 0.31368 0.59354 0.13055 0.0
C356 C 0.31162 0.6113 0.1013 0.0
C357 C 0.346 0.63064 0.08787 0.0
C358 C 0.38243 0.63176 0.10425 0.0
C359 C 0.3844 0.61422 0.13348 0.0
C360 C 0.34374 0.6085 0.19993 0.0
C361 C 0.3722 0.64051 0.20536 0.0
C362 C 0.36103 0.67595 0.22219 0.0
C363 C 0.321 0.68061 0.23356 0.0
C364 C 0.29332 0.64753 0.22972 0.0
C365 C 0.30467 0.61186 0.21304 0.0
C366 C 0.3861 0.54873 0.18123 0.0
C367 C 0.39572 0.51955 0.15803 0.0
C368 C 0.43115 0.49578 0.15907 0.0
C369 C 0.45723 0.49864 0.18419 0.0
C370 C 0.4458 0.52465 0.2089 0.0
C371 C 0.41049 0.54914 0.20762 0.0
H372 H 0.33666 0.90307 0.38824 0.0
N373 N 0.39961 0.88281 0.42612 0.0
H374 H 0.32559 0.8769 0.33696 0.0
H375 H 0.44524 0.82788 0.39492 0.0
H376 H 0.43364 0.80028 0.34317 0.0
H377 H 0.37791 0.81455 0.45726 0.0
H378 H 0.31335 0.8017 0.48452 0.0
H379 H 0.3413 0.94242 0.4408 0.0
H380 H 0.27763 0.9299 0.46765 0.0
H381 H 0.3823 0.95756 0.3972 0.0
H382 H 0.46808 0.89627 0.45621 0.0
H383 H 0.42332 0.02043 0.39708 0.0
H384 H 0.51065 0.95931 0.45522 0.0
H385 H 0.57611 0.21594 0.393 0.0
H386 H 0.61078 0.23971 0.34599 0.0
H387 H 0.64605 0.11215 0.32589 0.0
H388 H 0.61247 0.0888 0.37329 0.0
H389 H 0.6321 0.0764 0.42529 0.0
H390 H 0.69542 0.08148 0.45336 0.0
H391 H 0.66376 0.20758 0.48101 0.0
H392 H 0.59999 0.20195 0.45296 0.0
H393 H 0.52806 0.10618 0.37221 0.0
H394 H 0.4853 0.04485 0.37583 0.0
H395 H 0.5146 0.03152 0.47151 0.0
N396 N 0.57666 0.13933 0.41698 0.0
H397 H 0.559 0.09209 0.46775 0.0
C398 C 0.39207 0.86755 0.39554 0.0
C399 C 0.35836 0.88106 0.37866 0.0
C400 C 0.35205 0.86602 0.34914 0.0
C401 C 0.37886 0.83661 0.3359 0.0
C402 C 0.41251 0.82298 0.35274 0.0
C403 C 0.41913 0.83859 0.38224 0.0
C404 C 0.36481 0.8792 0.44669 0.0
C405 C 0.3565 0.8401 0.46015 0.0
C406 C 0.31958 0.83281 0.47566 0.0
C407 C 0.29014 0.86464 0.47789 0.0
C408 C 0.29951 0.90456 0.46611 0.0
C409 C 0.33633 0.91181 0.45068 0.0
C410 C 0.42201 0.92176 0.42689 0.0
C411 C 0.40993 0.95741 0.41023 0.0
C412 C 0.43376 0.99355 0.40994 0.0
C413 C 0.47057 0.99491 0.42587 0.0
C414 C 0.48227 0.95955 0.44294 0.0
C415 C 0.45813 0.92344 0.44345 0.0
C416 C 0.59123 0.15072 0.3866 0.0
C417 C 0.59065 0.19307 0.37812 0.0
C418 C 0.61069 0.20658 0.35144 0.0
C419 C 0.63118 0.17774 0.33242 0.0
C420 C 0.6303 0.135 0.34008 0.0
C421 C 0.61108 0.12163 0.36716 0.0
C422 C 0.61117 0.1389 0.43714 0.0
C423 C 0.63841 0.10486 0.43782 0.0
C424 C 0.67467 0.10785 0.45388 0.0
C425 C 0.68475 0.14509 0.46918 0.0
C426 C 0.65692 0.17854 0.46933 0.0
C427 C 0.62043 0.17534 0.45351 0.0
C428 C 0.55042 0.10243 0.41893 0.0
C429 C 0.52682 0.0896 0.39385 0.0
C430 C 0.50137 0.0547 0.39607 0.0
C431 C 0.49714 0.03257 0.42381 0.0
C432 C 0.51831 0.04685 0.44948 0.0
C433 C 0.54402 0.08162 0.44721 0.0
H434 H 0.0825 0.83226 0.64077 0.0
N435 N 0.09896 0.89892 0.67808 0.0
H436 H 0.11019 0.81984 0.58967 0.0
H437 H 0.14707 0.94962 0.64521 0.0
H438 H 0.17602 0.93694 0.59382 0.0
H439 H 0.17132 0.88055 0.70063 0.0
H440 H 0.19192 0.81558 0.72595 0.0
H441 H 0.0471 0.83659 0.7 0.0
H442 H 0.06727 0.7728 0.72534 0.0
H443 H 0.02609 0.8717 0.65492 0.0
H444 H 0.08201 0.96987 0.70743 0.0
H445 H 0.96104 0.90679 0.6591 0.0
H446 H 0.017 0.00715 0.71001 0.0
H447 H 0.77594 0.07194 0.63912 0.0
H448 H 0.77175 0.10419 0.58816 0.0
H449 H 0.90054 0.13115 0.59017 0.0
H450 H 0.90432 0.09955 0.64082 0.0
H451 H 0.89652 0.1254 0.69113 0.0
H452 H 0.88178 0.18865 0.72026 0.0
H453 H 0.75815 0.14638 0.73541 0.0
H454 H 0.77346 0.08263 0.70609 0.0
H455 H 0.86769 0.00577 0.63516 0.0
H456 H 0.92826 0.96336 0.6383 0.0
H457 H 0.94951 0.01058 0.7295 0.0
N458 N 0.84131 0.0655 0.67442 0.0
H459 H 0.88977 0.05473 0.72583 0.0
C460 C 0.1125 0.8922 0.64681 0.0
C461 C 0.1021 0.8558 0.63054 0.0
C462 C 0.11822 0.84862 0.60125 0.0
C463 C 0.1455 0.87734 0.58767 0.0
C464 C 0.15517 0.91416 0.60366 0.0
C465 C 0.13865 0.92152 0.63294 0.0
C466 C 0.10782 0.86394 0.69807 0.0
C467 C 0.14835 0.85748 0.70657 0.0
C468 C 0.16009 0.82026 0.72086 0.0
C469 C 0.13129 0.78884 0.72728 0.0
C470 C 0.09027 0.79631 0.72057 0.0
C471 C 0.07864 0.83325 0.70593 0.0
C472 C 0.05926 0.91807 0.68106 0.0
C473 C 0.02454 0.9009 0.66737 0.0
C474 C 0.98711 0.92136 0.66956 0.0
C475 C 0.98356 0.96019 0.68462 0.0
C476 C 0.01824 0.97703 0.69863 0.0
C477 C 0.05556 0.956 0.69697 0.0
C478 C 0.84025 0.08313 0.64381 0.0
C479 C 0.80319 0.08465 0.6284 0.0
C480 C 0.80091 0.10308 0.59937 0.0
C481 C 0.83587 0.12008 0.58513 0.0
C482 C 0.8731 0.11813 0.60042 0.0
C483 C 0.87525 0.10024 0.62953 0.0
C484 C 0.83599 0.09904 0.69643 0.0
C485 C 0.86648 0.12923 0.70118 0.0
C486 C 0.85793 0.16551 0.71791 0.0
C487 C 0.81859 0.17285 0.72989 0.0
C488 C 0.78873 0.14176 0.72644 0.0
C489 C 0.79743 0.10524 0.70985 0.0
C490 C 0.87546 0.03691 0.67891 0.0
C491 C 0.88561 0.00782 0.65574 0.0
C492 C 0.92017 0.98278 0.65778 0.0
C493 C 0.94469 0.98425 0.68386 0.0
C494 C 0.93241 0.00999 0.70848 0.0
C495 C 0.89799 0.03563 0.70624 0.0
C496 C 0.24085 0.6403 0.97997 0.0
O497 O 0.27158 0.61396 0.9793 0.0
O498 O 0.30966 0.65378 0.04411 0.0
Zn499 Zn 0.3028 0.68709 0.00541 0.0
O500 O 0.34083 0.66751 0.97149 0.0
C501 C 0.34886 0.76217 0.01419 0.0
O502 O 0.37841 0.73728 0.00498 0.0
O503 O 0.24602 0.67668 0.99109 0.0
C504 C 0.34656 0.6912 0.94837 0.0
O505 O 0.32914 0.72825 0.94783 0.0
C506 C 0.34359 0.65084 0.05744 0.0
O507 O 0.37596 0.66811 0.04477 0.0
O508 O 0.31266 0.7481 0.01535 0.0
C509 C 0.2459 0.85643 0.26858 0.0
O510 O 0.274 0.88469 0.27383 0.0
O511 O 0.3386 0.8414 0.21286 0.0
Zn512 Zn 0.31717 0.81304 0.2512 0.0
O513 O 0.34254 0.83586 0.28931 0.0
C514 C 0.30735 0.72148 0.24609 0.0
O515 O 0.26886 0.72791 0.25317 0.0
O516 O 0.25659 0.82143 0.25705 0.0
C517 C 0.3702 0.81918 0.30527 0.0
O518 O 0.38781 0.78449 0.29577 0.0
C519 C 0.32699 0.87489 0.19981 0.0
O520 O 0.29769 0.89736 0.21229 0.0
O521 O 0.33178 0.75231 0.24554 0.0
C522 C 0.24844 0.85559 0.48935 0.0
O523 O 0.21919 0.88272 0.48439 0.0
O524 O 0.15449 0.8348 0.54335 0.0
Zn525 Zn 0.17903 0.80803 0.50549 0.0
O526 O 0.15358 0.82963 0.46706 0.0
C527 C 0.19324 0.71672 0.5089 0.0
O528 O 0.23108 0.72492 0.50085 0.0
O529 O 0.23921 0.81989 0.50047 0.0
C530 C 0.12519 0.81334 0.45167 0.0
O531 O 0.10689 0.77938 0.46188 0.0
C532 C 0.1652 0.86747 0.55778 0.0
O533 O 0.19579 0.89007 0.54738 0.0
O534 O 0.16766 0.74649 0.51069 0.0
C535 C 0.26999 0.64143 0.77205 0.0
O536 O 0.24632 0.6083 0.77095 0.0
O537 O 0.19714 0.64486 0.70823 0.0
Zn538 Zn 0.19907 0.67759 0.74753 0.0
O539 O 0.16307 0.65155 0.78024 0.0
C540 C 0.14409 0.74733 0.73873 0.0
O541 O 0.11661 0.71927 0.74654 0.0
O542 O 0.25643 0.67642 0.76269 0.0
C543 C 0.15316 0.6738 0.80332 0.0
O544 O 0.16572 0.71284 0.80451 0.0
C545 C 0.16315 0.63668 0.69618 0.0
O546 O 0.12949 0.64776 0.71059 0.0
O547 O 0.18149 0.73704 0.73839 0.0
C548 C 0.72503 0.14964 0.48336 0.0
O549 O 0.74977 0.11738 0.48494 0.0
O550 O 0.79909 0.15147 0.54435 0.0
Zn551 Zn 0.79499 0.18735 0.50654 0.0
O552 O 0.8306 0.16543 0.47205 0.0
C553 C 0.8486 0.25657 0.51743 0.0
O554 O 0.8759 0.2288 0.50873 0.0
O555 O 0.73747 0.18529 0.49218 0.0
C556 C 0.83982 0.1899 0.45 0.0
O557 O 0.82671 0.2288 0.45065 0.0
C558 C 0.8334 0.14139 0.55511 0.0
O559 O 0.86671 0.15274 0.54033 0.0
O560 O 0.81119 0.2464 0.5177 0.0
C561 C 0.7585 0.35338 0.77166 0.0
O562 O 0.7886 0.37904 0.77765 0.0
O563 O 0.8486 0.33326 0.71401 0.0
Zn564 Zn 0.82595 0.30442 0.75171 0.0
O565 O 0.8564 0.3217 0.78935 0.0
C566 C 0.80816 0.21427 0.7432 0.0
O567 O 0.77052 0.22321 0.75137 0.0
O568 O 0.76656 0.31822 0.75924 0.0
C569 C 0.86321 0.29594 0.81093 0.0
O570 O 0.85236 0.25658 0.80778 0.0
C571 C 0.83825 0.36753 0.70145 0.0
O572 O 0.80943 0.39052 0.71407 0.0
O573 O 0.83483 0.24306 0.74312 0.0
C574 C 0.75436 0.3508 0.98567 0.0
O575 O 0.72766 0.37972 0.97854 0.0
O576 O 0.66062 0.33957 0.04329 0.0
Zn577 Zn 0.6812 0.31115 0.00497 0.0
O578 O 0.65613 0.33533 0.96719 0.0
C579 C 0.68985 0.21978 0.01022 0.0
O580 O 0.7283 0.22608 0.003 0.0
O581 O 0.74202 0.31774 -0.00076 0.0
C582 C 0.62902 0.31916 0.95049 0.0
O583 O 0.6118 0.28372 0.95883 0.0
C584 C 0.66948 0.37501 0.05464 0.0
O585 O 0.69532 0.39967 0.04013 0.0
O586 O 0.66546 0.25068 0.01063 0.0
C587 C 0.76923 0.14846 0.27198 0.0
O588 O 0.7437 0.11688 0.27041 0.0
O589 O 0.69438 0.15489 0.21095 0.0
Zn590 Zn 0.70017 0.18945 0.24922 0.0
O591 O 0.66355 0.16838 0.28348 0.0
C592 C 0.65057 0.2627 0.23959 0.0
O593 O 0.6215 0.23711 0.24868 0.0
O594 O 0.75759 0.18453 0.26341 0.0
C595 C 0.65541 0.19264 0.30584 0.0
O596 O 0.67035 0.23082 0.30576 0.0
C597 C 0.65968 0.149 0.19932 0.0
O598 O 0.62722 0.16374 0.21352 0.0
O599 O 0.6871 0.24958 0.23866 0.0
loop_
_geom_bond_atom_site_label_1
_geom_bond_atom_site_label_2
_geom_bond_distance
_geom_bond_site_symmetry_2
_ccdc_geom_bond_type
H0 C27 0.929 . S
N1 C26 1.433 . S
N1 C32 1.435 . S
N1 C38 1.423 . S
H2 C28 0.930 . S
H3 C31 0.931 . S
H4 C30 0.929 . S
H5 C33 0.930 . S
H6 C34 0.932 . S
H7 C37 0.929 . S
H8 C36 0.931 . S
H9 C39 0.929 . S
H10 C43 0.932 . S
H11 C40 0.931 . S
H12 C42 0.929 . S
H13 C45 0.929 . S
H14 C46 0.930 . S
H15 C48 0.929 . S
H16 C49 0.931 . S
H17 C51 0.930 . S
H18 C52 0.932 . S
H19 C54 0.931 . S
H20 C55 0.929 . S
H21 C57 0.929 . S
H22 C58 0.931 1_455 S
H23 C60 0.929 . S
N24 C44 1.433 . S
N24 C50 1.435 . S
N24 C56 1.423 . S
H25 C61 0.932 . S
C26 N1 1.433 . S
C26 C27 1.363 . S
C26 C31 1.370 . S
C27 H0 0.929 . S
C27 C26 1.363 . S
C27 C28 1.385 . S
C28 H2 0.930 . S
C28 C27 1.385 . S
C28 C29 1.357 . S
C29 C28 1.357 . S
C29 C30 1.406 . S
C30 H4 0.929 . S
C30 C29 1.406 . S
C30 C31 1.391 . S
C31 H3 0.931 . S
C31 C26 1.370 . S
C31 C30 1.391 . S
C32 N1 1.435 . S
C32 C33 1.358 . S
C32 C37 1.371 . S
C33 H5 0.930 . S
C33 C32 1.358 . S
C33 C34 1.405 . S
C34 H6 0.932 . S
C34 C33 1.405 . S
C34 C35 1.383 . S
C35 C34 1.383 . S
C35 C36 1.393 . S
C36 H8 0.931 . S
C36 C35 1.393 . S
C36 C37 1.382 . S
C37 H7 0.929 . S
C37 C32 1.371 . S
C37 C36 1.382 . S
C38 N1 1.423 . S
C38 C39 1.362 . S
C38 C43 1.388 . S
C39 H9 0.929 . S
C39 C38 1.362 . S
C39 C40 1.376 1_565 S
C40 H11 0.931 . S
C40 C39 1.376 1_545 S
C40 C41 1.396 . S
C41 C40 1.396 . S
C41 C42 1.348 1_545 S
C41 C59 1.456 1_455 S
C42 H12 0.929 . S
C42 C41 1.348 1_565 S
C42 C43 1.443 . S
C43 H10 0.932 . S
C43 C38 1.388 . S
C43 C42 1.443 . S
C44 N24 1.433 . S
C44 C45 1.363 . S
C44 C49 1.370 . S
C45 H13 0.929 . S
C45 C44 1.363 . S
C45 C46 1.385 . S
C46 H14 0.930 . S
C46 C45 1.385 . S
C46 C47 1.357 . S
C47 C46 1.357 . S
C47 C48 1.406 . S
C48 H15 0.929 . S
C48 C47 1.406 . S
C48 C49 1.391 . S
C49 H16 0.931 . S
C49 C44 1.370 . S
C49 C48 1.391 . S
C50 N24 1.435 . S
C50 C51 1.358 . S
C50 C55 1.371 . S
C51 H17 0.930 . S
C51 C50 1.358 . S
C51 C52 1.405 . S
C52 H18 0.932 . S
C52 C51 1.405 . S
C52 C53 1.383 . S
C53 C52 1.383 . S
C53 C54 1.393 . S
C54 H19 0.931 . S
C54 C53 1.393 . S
C54 C55 1.382 . S
C55 H20 0.929 . S
C55 C50 1.371 . S
C55 C54 1.382 . S
C56 N24 1.423 . S
C56 C57 1.362 . S
C56 C61 1.388 . S
C57 H21 0.929 . S
C57 C56 1.362 . S
C57 C58 1.376 . S
C58 H22 0.931 1_655 S
C58 C57 1.376 . S
C58 C59 1.399 . S
C59 C41 1.456 1_655 S
C59 C58 1.399 . S
C59 C60 1.363 . S
C60 H23 0.929 . S
C60 C59 1.363 . S
C60 C61 1.443 . S
C61 H25 0.932 . S
C61 C56 1.388 . S
C61 C60 1.443 . S
H62 C89 0.929 . S
N63 C88 1.433 . S
N63 C94 1.435 . S
N63 C100 1.423 . S
H64 C90 0.930 . S
H65 C93 0.931 . S
H66 C92 0.929 . S
H67 C95 0.930 . S
H68 C96 0.932 . S
H69 C99 0.929 . S
H70 C98 0.931 . S
H71 C101 0.929 . S
H72 C105 0.932 . S
H73 C102 0.931 . S
H74 C104 0.929 . S
H75 C107 0.929 . S
H76 C108 0.930 . S
H77 C110 0.929 . S
H78 C111 0.931 . S
H79 C113 0.930 . S
H80 C114 0.932 . S
H81 C116 0.931 . S
H82 C117 0.929 . S
H83 C119 0.929 . S
H84 C120 0.931 . S
H85 C122 0.929 . S
N86 C106 1.433 . S
N86 C112 1.435 . S
N86 C118 1.423 . S
H87 C123 0.932 . S
C88 N63 1.433 . S
C88 C89 1.363 . S
C88 C93 1.370 . S
C89 H62 0.929 . S
C89 C88 1.363 . S
C89 C90 1.385 . S
C90 H64 0.930 . S
C90 C89 1.385 . S
C90 C91 1.357 . S
C91 C90 1.357 . S
C91 C92 1.406 . S
C92 H66 0.929 . S
C92 C91 1.406 . S
C92 C93 1.391 . S
C93 H65 0.931 . S
C93 C88 1.370 . S
C93 C92 1.391 . S
C94 N63 1.435 . S
C94 C95 1.358 . S
C94 C99 1.371 . S
C95 H67 0.930 . S
C95 C94 1.358 . S
C95 C96 1.405 . S
C96 H68 0.932 . S
C96 C95 1.405 . S
C96 C97 1.383 . S
C97 C96 1.383 . S
C97 C98 1.393 . S
C98 H70 0.931 . S
C98 C97 1.393 . S
C98 C99 1.382 . S
C99 H69 0.929 . S
C99 C94 1.371 . S
C99 C98 1.382 . S
C100 N63 1.423 . S
C100 C101 1.362 . S
C100 C105 1.388 . S
C101 H71 0.929 . S
C101 C100 1.362 . S
C101 C102 1.376 1_655 S
C102 H73 0.931 . S
C102 C101 1.376 1_455 S
C102 C103 1.396 . S
C103 C102 1.396 . S
C103 C104 1.348 1_455 S
C103 C121 1.472 . S
C104 H74 0.929 . S
C104 C103 1.348 1_655 S
C104 C105 1.443 . S
C105 H72 0.932 . S
C105 C100 1.388 . S
C105 C104 1.443 . S
C106 N86 1.433 . S
C106 C107 1.363 . S
C106 C111 1.370 . S
C107 H75 0.929 . S
C107 C106 1.363 . S
C107 C108 1.385 . S
C108 H76 0.930 . S
C108 C107 1.385 . S
C108 C109 1.357 . S
C109 C108 1.357 . S
C109 C110 1.406 . S
C110 H77 0.929 . S
C110 C109 1.406 . S
C110 C111 1.391 . S
C111 H78 0.931 . S
C111 C106 1.370 . S
C111 C110 1.391 . S
C112 N86 1.435 . S
C112 C113 1.358 . S
C112 C117 1.371 . S
C113 H79 0.930 . S
C113 C112 1.358 . S
C113 C114 1.405 . S
C114 H80 0.932 . S
C114 C113 1.405 . S
C114 C115 1.383 . S
C115 C114 1.383 . S
C115 C116 1.393 . S
C116 H81 0.931 . S
C116 C115 1.393 . S
C116 C117 1.382 . S
C117 H82 0.929 . S
C117 C112 1.371 . S
C117 C116 1.382 . S
C118 N86 1.423 . S
C118 C119 1.362 . S
C118 C123 1.388 . S
C119 H83 0.929 . S
C119 C118 1.362 . S
C119 C120 1.376 . S
C120 H84 0.931 . S
C120 C119 1.376 . S
C120 C121 1.396 . S
C121 C103 1.472 . S
C121 C120 1.396 . S
C121 C122 1.348 . S
C122 H85 0.929 . S
C122 C121 1.348 . S
C122 C123 1.443 . S
C123 H87 0.932 . S
C123 C118 1.388 . S
C123 C122 1.443 . S
H124 C151 0.929 . S
N125 C150 1.433 . S
N125 C156 1.435 . S
N125 C162 1.423 . S
H126 C152 0.930 . S
H127 C155 0.931 . S
H128 C154 0.929 . S
H129 C157 0.930 . S
H130 C158 0.932 . S
H131 C161 0.929 . S
H132 C160 0.931 . S
H133 C163 0.929 . S
H134 C167 0.932 . S
H135 C164 0.931 . S
H136 C166 0.929 . S
H137 C169 0.929 . S
H138 C170 0.930 . S
H139 C172 0.929 . S
H140 C173 0.931 . S
H141 C175 0.930 . S
H142 C176 0.932 . S
H143 C178 0.931 . S
H144 C179 0.929 . S
H145 C181 0.929 . S
H146 C182 0.931 . S
H147 C184 0.929 . S
N148 C168 1.433 . S
N148 C174 1.435 . S
N148 C180 1.423 . S
H149 C185 0.932 . S
C150 N125 1.433 . S
C150 C151 1.363 . S
C150 C155 1.370 . S
C151 H124 0.929 . S
C151 C150 1.363 . S
C151 C152 1.385 . S
C152 H126 0.930 . S
C152 C151 1.385 . S
C152 C153 1.357 . S
C153 C152 1.357 . S
C153 C154 1.406 . S
C154 H128 0.929 . S
C154 C153 1.406 . S
C154 C155 1.391 . S
C155 H127 0.931 . S
C155 C150 1.370 . S
C155 C154 1.391 . S
C156 N125 1.435 . S
C156 C157 1.358 . S
C156 C161 1.371 . S
C157 H129 0.930 . S
C157 C156 1.358 . S
C157 C158 1.405 . S
C158 H130 0.932 . S
C158 C157 1.405 . S
C158 C159 1.383 . S
C159 C158 1.383 . S
C159 C160 1.393 . S
C160 H132 0.931 . S
C160 C159 1.393 . S
C160 C161 1.382 . S
C161 H131 0.929 . S
C161 C156 1.371 . S
C161 C160 1.382 . S
C162 N125 1.423 . S
C162 C163 1.362 . S
C162 C167 1.388 . S
C163 H133 0.929 . S
C163 C162 1.362 . S
C163 C164 1.376 . S
C164 H135 0.931 . S
C164 C163 1.376 . S
C164 C165 1.396 . S
C165 C164 1.396 . S
C165 C166 1.348 . S
C165 C183 1.472 . S
C166 H136 0.929 . S
C166 C165 1.348 . S
C166 C167 1.443 . S
C167 H134 0.932 . S
C167 C162 1.388 . S
C167 C166 1.443 . S
C168 N148 1.433 . S
C168 C169 1.363 . S
C168 C173 1.370 . S
C169 H137 0.929 . S
C169 C168 1.363 . S
C169 C170 1.385 . S
C170 H138 0.930 . S
C170 C169 1.385 . S
C170 C171 1.357 . S
C171 C170 1.357 . S
C171 C172 1.406 . S
C172 H139 0.929 . S
C172 C171 1.406 . S
C172 C173 1.391 . S
C173 H140 0.931 . S
C173 C168 1.370 . S
C173 C172 1.391 . S
C174 N148 1.435 . S
C174 C175 1.358 . S
C174 C179 1.371 . S
C175 H141 0.930 . S
C175 C174 1.358 . S
C175 C176 1.405 . S
C176 H142 0.932 . S
C176 C175 1.405 . S
C176 C177 1.383 . S
C177 C176 1.383 . S
C177 C178 1.393 . S
C178 H143 0.931 . S
C178 C177 1.393 . S
C178 C179 1.382 . S
C179 H144 0.929 . S
C179 C174 1.371 . S
C179 C178 1.382 . S
C180 N148 1.423 . S
C180 C181 1.362 . S
C180 C185 1.388 . S
C181 H145 0.929 . S
C181 C180 1.362 . S
C181 C182 1.376 . S
C182 H146 0.931 . S
C182 C181 1.376 . S
C182 C183 1.396 . S
C183 C165 1.472 . S
C183 C182 1.396 . S
C183 C184 1.348 . S
C184 H147 0.929 . S
C184 C183 1.348 . S
C184 C185 1.443 . S
C185 H149 0.932 . S
C185 C180 1.388 . S
C185 C184 1.443 . S
H186 C213 0.929 . S
N187 C212 1.433 . S
N187 C218 1.435 . S
N187 C224 1.423 . S
H188 C214 0.930 . S
H189 C217 0.931 . S
H190 C216 0.929 . S
H191 C219 0.930 . S
H192 C220 0.932 . S
H193 C223 0.929 . S
H194 C222 0.931 . S
H195 C225 0.929 . S
H196 C229 0.932 . S
H197 C226 0.931 . S
H198 C228 0.929 . S
H199 C231 0.929 . S
H200 C232 0.930 . S
H201 C234 0.929 . S
H202 C235 0.931 . S
H203 C237 0.930 . S
H204 C238 0.932 . S
H205 C240 0.931 . S
H206 C241 0.929 . S
H207 C243 0.929 . S
H208 C244 0.931 1_565 S
H209 C246 0.929 . S
N210 C230 1.433 . S
N210 C236 1.435 . S
N210 C242 1.423 . S
H211 C247 0.932 . S
C212 N187 1.433 . S
C212 C213 1.363 . S
C212 C217 1.370 . S
C213 H186 0.929 . S
C213 C212 1.363 . S
C213 C214 1.385 . S
C214 H188 0.930 . S
C214 C213 1.385 . S
C214 C215 1.357 . S
C215 C214 1.357 . S
C215 C216 1.406 . S
C216 H190 0.929 . S
C216 C215 1.406 . S
C216 C217 1.391 . S
C217 H189 0.931 . S
C217 C212 1.370 . S
C217 C216 1.391 . S
C218 N187 1.435 . S
C218 C219 1.358 . S
C218 C223 1.371 . S
C219 H191 0.930 . S
C219 C218 1.358 . S
C219 C220 1.405 . S
C220 H192 0.932 . S
C220 C219 1.405 . S
C220 C221 1.383 1_554 S
C221 C220 1.383 1_556 S
C221 C222 1.393 . S
C222 H194 0.931 . S
C222 C221 1.393 . S
C222 C223 1.382 1_556 S
C223 H193 0.929 . S
C223 C218 1.371 . S
C223 C222 1.382 1_554 S
C224 N187 1.423 . S
C224 C225 1.362 . S
C224 C229 1.388 . S
C225 H195 0.929 . S
C225 C224 1.362 . S
C225 C226 1.376 . S
C226 H197 0.931 . S
C226 C225 1.376 . S
C226 C227 1.396 . S
C227 C226 1.396 . S
C227 C228 1.348 . S
C227 C245 1.479 . S
C228 H198 0.929 . S
C228 C227 1.348 . S
C228 C229 1.443 . S
C229 H196 0.932 . S
C229 C224 1.388 . S
C229 C228 1.443 . S
C230 N210 1.433 . S
C230 C231 1.363 . S
C230 C235 1.370 . S
C231 H199 0.929 . S
C231 C230 1.363 . S
C231 C232 1.385 . S
C232 H200 0.930 . S
C232 C231 1.385 . S
C232 C233 1.357 . S
C233 C232 1.357 . S
C233 C234 1.406 . S
C234 H201 0.929 . S
C234 C233 1.406 . S
C234 C235 1.391 . S
C235 H202 0.931 . S
C235 C230 1.370 . S
C235 C234 1.391 . S
C236 N210 1.435 . S
C236 C237 1.358 . S
C236 C241 1.371 . S
C237 H203 0.930 . S
C237 C236 1.358 . S
C237 C238 1.405 . S
C238 H204 0.932 . S
C238 C237 1.405 . S
C238 C239 1.383 1_554 S
C239 C238 1.383 1_556 S
C239 C240 1.393 . S
C240 H205 0.931 . S
C240 C239 1.393 . S
C240 C241 1.382 1_556 S
C241 H206 0.929 . S
C241 C236 1.371 . S
C241 C240 1.382 1_554 S
C242 N210 1.423 . S
C242 C243 1.362 . S
C242 C247 1.388 . S
C243 H207 0.929 . S
C243 C242 1.362 . S
C243 C244 1.376 . S
C244 H208 0.931 1_545 S
C244 C243 1.376 . S
C244 C245 1.395 1_545 S
C245 C227 1.479 . S
C245 C244 1.395 1_565 S
C245 C246 1.341 1_565 S
C246 H209 0.929 . S
C246 C245 1.341 1_545 S
C246 C247 1.443 . S
C247 H211 0.932 . S
C247 C242 1.388 . S
C247 C246 1.443 . S
H248 C275 0.929 . S
N249 C274 1.433 . S
N249 C280 1.435 . S
N249 C286 1.423 . S
H250 C276 0.930 . S
H251 C279 0.931 . S
H252 C278 0.929 . S
H253 C281 0.930 . S
H254 C282 0.932 . S
H255 C285 0.929 . S
H256 C284 0.931 . S
H257 C287 0.929 . S
H258 C291 0.932 . S
H259 C288 0.931 . S
H260 C290 0.929 . S
H261 C293 0.929 . S
H262 C294 0.930 . S
H263 C296 0.929 . S
H264 C297 0.931 . S
H265 C299 0.930 . S
H266 C300 0.932 . S
H267 C302 0.931 . S
H268 C303 0.929 . S
H269 C305 0.929 . S
H270 C306 0.931 1_455 S
H271 C308 0.929 . S
N272 C292 1.433 . S
N272 C298 1.435 . S
N272 C304 1.423 . S
H273 C309 0.932 . S
C274 N249 1.433 . S
C274 C275 1.363 . S
C274 C279 1.370 . S
C275 H248 0.929 . S
C275 C274 1.363 . S
C275 C276 1.385 . S
C276 H250 0.930 . S
C276 C275 1.385 . S
C276 C277 1.357 . S
C277 C276 1.357 . S
C277 C278 1.406 . S
C278 H252 0.929 . S
C278 C277 1.406 . S
C278 C279 1.391 . S
C279 H251 0.931 . S
C279 C274 1.370 . S
C279 C278 1.391 . S
C280 N249 1.435 . S
C280 C281 1.358 . S
C280 C285 1.371 . S
C281 H253 0.930 . S
C281 C280 1.358 . S
C281 C282 1.405 . S
C282 H254 0.932 . S
C282 C281 1.405 . S
C282 C283 1.383 1_556 S
C283 C282 1.383 1_554 S
C283 C284 1.393 . S
C284 H256 0.931 . S
C284 C283 1.393 . S
C284 C285 1.382 1_554 S
C285 H255 0.929 . S
C285 C280 1.371 . S
C285 C284 1.382 1_556 S
C286 N249 1.423 . S
C286 C287 1.362 . S
C286 C291 1.388 . S
C287 H257 0.929 . S
C287 C286 1.362 . S
C287 C288 1.376 . S
C288 H259 0.931 . S
C288 C287 1.376 . S
C288 C289 1.396 . S
C289 C288 1.396 . S
C289 C290 1.348 . S
C289 C307 1.456 1_455 S
C290 H260 0.929 . S
C290 C289 1.348 . S
C290 C291 1.443 . S
C291 H258 0.932 . S
C291 C286 1.388 . S
C291 C290 1.443 . S
C292 N272 1.433 . S
C292 C293 1.363 . S
C292 C297 1.370 . S
C293 H261 0.929 . S
C293 C292 1.363 . S
C293 C294 1.385 . S
C294 H262 0.930 . S
C294 C293 1.385 . S
C294 C295 1.357 . S
C295 C294 1.357 . S
C295 C296 1.406 . S
C296 H263 0.929 . S
C296 C295 1.406 . S
C296 C297 1.391 . S
C297 H264 0.931 . S
C297 C292 1.370 . S
C297 C296 1.391 . S
C298 N272 1.435 . S
C298 C299 1.358 . S
C298 C303 1.371 . S
C299 H265 0.930 . S
C299 C298 1.358 . S
C299 C300 1.405 . S
C300 H266 0.932 . S
C300 C299 1.405 . S
C300 C301 1.383 1_556 S
C301 C300 1.383 1_554 S
C301 C302 1.393 . S
C302 H267 0.931 . S
C302 C301 1.393 . S
C302 C303 1.382 1_554 S
C303 H268 0.929 . S
C303 C298 1.371 . S
C303 C302 1.382 1_556 S
C304 N272 1.423 . S
C304 C305 1.362 . S
C304 C309 1.388 . S
C305 H269 0.929 . S
C305 C304 1.362 . S
C305 C306 1.376 . S
C306 H270 0.931 1_655 S
C306 C305 1.376 . S
C306 C307 1.399 . S
C307 C289 1.456 1_655 S
C307 C306 1.399 . S
C307 C308 1.363 . S
C308 H271 0.929 . S
C308 C307 1.363 . S
C308 C309 1.443 . S
C309 H273 0.932 . S
C309 C304 1.388 . S
C309 C308 1.443 . S
H310 C337 0.929 . S
N311 C336 1.433 . S
N311 C342 1.435 . S
N311 C348 1.423 . S
H312 C338 0.930 . S
H313 C341 0.931 . S
H314 C340 0.929 . S
H315 C343 0.930 . S
H316 C344 0.932 . S
H317 C347 0.929 . S
H318 C346 0.931 . S
H319 C349 0.929 . S
H320 C353 0.932 . S
H321 C350 0.931 . S
H322 C352 0.929 . S
H323 C355 0.929 . S
H324 C356 0.930 . S
H325 C358 0.929 . S
H326 C359 0.931 . S
H327 C361 0.930 . S
H328 C362 0.932 . S
H329 C364 0.931 . S
H330 C365 0.929 . S
H331 C367 0.929 . S
H332 C368 0.931 . S
H333 C370 0.929 . S
N334 C354 1.433 . S
N334 C360 1.435 . S
N334 C366 1.423 . S
H335 C371 0.932 . S
C336 N311 1.433 . S
C336 C337 1.363 . S
C336 C341 1.370 . S
C337 H310 0.929 . S
C337 C336 1.363 . S
C337 C338 1.385 . S
C338 H312 0.930 . S
C338 C337 1.385 . S
C338 C339 1.357 . S
C339 C338 1.357 . S
C339 C340 1.406 . S
C340 H314 0.929 . S
C340 C339 1.406 . S
C340 C341 1.391 . S
C341 H313 0.931 . S
C341 C336 1.370 . S
C341 C340 1.391 . S
C342 N311 1.435 . S
C342 C343 1.358 . S
C342 C347 1.371 . S
C343 H315 0.930 . S
C343 C342 1.358 . S
C343 C344 1.405 . S
C344 H316 0.932 . S
C344 C343 1.405 . S
C344 C345 1.383 . S
C345 C344 1.383 . S
C345 C346 1.393 . S
C346 H318 0.931 . S
C346 C345 1.393 . S
C346 C347 1.382 . S
C347 H317 0.929 . S
C347 C342 1.371 . S
C347 C346 1.382 . S
C348 N311 1.423 . S
C348 C349 1.362 . S
C348 C353 1.388 . S
C349 H319 0.929 . S
C349 C348 1.362 . S
C349 C350 1.376 . S
C350 H321 0.931 . S
C350 C349 1.376 . S
C350 C351 1.396 . S
C351 C350 1.396 . S
C351 C352 1.348 . S
C351 C369 1.472 . S
C352 H322 0.929 . S
C352 C351 1.348 . S
C352 C353 1.443 . S
C353 H320 0.932 . S
C353 C348 1.388 . S
C353 C352 1.443 . S
C354 N334 1.433 . S
C354 C355 1.363 . S
C354 C359 1.370 . S
C355 H323 0.929 . S
C355 C354 1.363 . S
C355 C356 1.385 . S
C356 H324 0.930 . S
C356 C355 1.385 . S
C356 C357 1.357 . S
C357 C356 1.357 . S
C357 C358 1.406 . S
C358 H325 0.929 . S
C358 C357 1.406 . S
C358 C359 1.391 . S
C359 H326 0.931 . S
C359 C354 1.370 . S
C359 C358 1.391 . S
C360 N334 1.435 . S
C360 C361 1.358 . S
C360 C365 1.371 . S
C361 H327 0.930 . S
C361 C360 1.358 . S
C361 C362 1.405 . S
C362 H328 0.932 . S
C362 C361 1.405 . S
C362 C363 1.383 . S
C363 C362 1.383 . S
C363 C364 1.393 . S
C364 H329 0.931 . S
C364 C363 1.393 . S
C364 C365 1.382 . S
C365 H330 0.929 . S
C365 C360 1.371 . S
C365 C364 1.382 . S
C366 N334 1.423 . S
C366 C367 1.362 . S
C366 C371 1.388 . S
C367 H331 0.929 . S
C367 C366 1.362 . S
C367 C368 1.376 . S
C368 H332 0.931 . S
C368 C367 1.376 . S
C368 C369 1.396 . S
C369 C351 1.472 . S
C369 C368 1.396 . S
C369 C370 1.348 . S
C370 H333 0.929 . S
C370 C369 1.348 . S
C370 C371 1.443 . S
C371 H335 0.932 . S
C371 C366 1.388 . S
C371 C370 1.443 . S
H372 C399 0.929 . S
N373 C398 1.433 . S
N373 C404 1.435 . S
N373 C410 1.423 . S
H374 C400 0.930 . S
H375 C403 0.931 . S
H376 C402 0.929 . S
H377 C405 0.930 . S
H378 C406 0.932 . S
H379 C409 0.929 . S
H380 C408 0.931 . S
H381 C411 0.929 . S
H382 C415 0.932 . S
H383 C412 0.931 . S
H384 C414 0.929 . S
H385 C417 0.929 . S
H386 C418 0.930 . S
H387 C420 0.929 . S
H388 C421 0.931 . S
H389 C423 0.930 . S
H390 C424 0.932 . S
H391 C426 0.931 . S
H392 C427 0.929 . S
H393 C429 0.929 . S
H394 C430 0.931 . S
H395 C432 0.929 . S
N396 C416 1.433 . S
N396 C422 1.435 . S
N396 C428 1.423 . S
H397 C433 0.932 . S
C398 N373 1.433 . S
C398 C399 1.363 . S
C398 C403 1.370 . S
C399 H372 0.929 . S
C399 C398 1.363 . S
C399 C400 1.385 . S
C400 H374 0.930 . S
C400 C399 1.385 . S
C400 C401 1.357 . S
C401 C400 1.357 . S
C401 C402 1.406 . S
C402 H376 0.929 . S
C402 C401 1.406 . S
C402 C403 1.391 . S
C403 H375 0.931 . S
C403 C398 1.370 . S
C403 C402 1.391 . S
C404 N373 1.435 . S
C404 C405 1.358 . S
C404 C409 1.371 . S
C405 H377 0.930 . S
C405 C404 1.358 . S
C405 C406 1.405 . S
C406 H378 0.932 . S
C406 C405 1.405 . S
C406 C407 1.383 . S
C407 C406 1.383 . S
C407 C408 1.393 . S
C408 H380 0.931 . S
C408 C407 1.393 . S
C408 C409 1.382 . S
C409 H379 0.929 . S
C409 C404 1.371 . S
C409 C408 1.382 . S
C410 N373 1.423 . S
C410 C411 1.362 . S
C410 C415 1.388 . S
C411 H381 0.929 . S
C411 C410 1.362 . S
C411 C412 1.376 1_565 S
C412 H383 0.931 . S
C412 C411 1.376 1_545 S
C412 C413 1.396 . S
C413 C412 1.396 . S
C413 C414 1.348 1_545 S
C413 C431 1.472 . S
C414 H384 0.929 . S
C414 C413 1.348 1_565 S
C414 C415 1.443 . S
C415 H382 0.932 . S
C415 C410 1.388 . S
C415 C414 1.443 . S
C416 N396 1.433 . S
C416 C417 1.363 . S
C416 C421 1.370 . S
C417 H385 0.929 . S
C417 C416 1.363 . S
C417 C418 1.385 . S
C418 H386 0.930 . S
C418 C417 1.385 . S
C418 C419 1.357 . S
C419 C418 1.357 . S
C419 C420 1.406 . S
C420 H387 0.929 . S
C420 C419 1.406 . S
C420 C421 1.391 . S
C421 H388 0.931 . S
C421 C416 1.370 . S
C421 C420 1.391 . S
C422 N396 1.435 . S
C422 C423 1.358 . S
C422 C427 1.371 . S
C423 H389 0.930 . S
C423 C422 1.358 . S
C423 C424 1.405 . S
C424 H390 0.932 . S
C424 C423 1.405 . S
C424 C425 1.383 . S
C425 C424 1.383 . S
C425 C426 1.393 . S
C426 H391 0.931 . S
C426 C425 1.393 . S
C426 C427 1.382 . S
C427 H392 0.929 . S
C427 C422 1.371 . S
C427 C426 1.382 . S
C428 N396 1.423 . S
C428 C429 1.362 . S
C428 C433 1.388 . S
C429 H393 0.929 . S
C429 C428 1.362 . S
C429 C430 1.376 . S
C430 H394 0.931 . S
C430 C429 1.376 . S
C430 C431 1.396 . S
C431 C413 1.472 . S
C431 C430 1.396 . S
C431 C432 1.348 . S
C432 H395 0.929 . S
C432 C431 1.348 . S
C432 C433 1.443 . S
C433 H397 0.932 . S
C433 C428 1.388 . S
C433 C432 1.443 . S
H434 C461 0.929 . S
N435 C460 1.433 . S
N435 C466 1.435 . S
N435 C472 1.423 . S
H436 C462 0.930 . S
H437 C465 0.931 . S
H438 C464 0.929 . S
H439 C467 0.930 . S
H440 C468 0.932 . S
H441 C471 0.929 . S
H442 C470 0.931 . S
H443 C473 0.929 . S
H444 C477 0.932 . S
H445 C474 0.931 . S
H446 C476 0.929 . S
H447 C479 0.929 . S
H448 C480 0.930 . S
H449 C482 0.929 . S
H450 C483 0.931 . S
H451 C485 0.930 . S
H452 C486 0.932 . S
H453 C488 0.931 . S
H454 C489 0.929 . S
H455 C491 0.929 . S
H456 C492 0.931 1_565 S
H457 C494 0.929 . S
N458 C478 1.433 . S
N458 C484 1.435 . S
N458 C490 1.423 . S
H459 C495 0.932 . S
C460 N435 1.433 . S
C460 C461 1.363 . S
C460 C465 1.370 . S
C461 H434 0.929 . S
C461 C460 1.363 . S
C461 C462 1.385 . S
C462 H436 0.930 . S
C462 C461 1.385 . S
C462 C463 1.357 . S
C463 C462 1.357 . S
C463 C464 1.406 . S
C464 H438 0.929 . S
C464 C463 1.406 . S
C464 C465 1.391 . S
C465 H437 0.931 . S
C465 C460 1.370 . S
C465 C464 1.391 . S
C466 N435 1.435 . S
C466 C467 1.358 . S
C466 C471 1.371 . S
C467 H439 0.930 . S
C467 C466 1.358 . S
C467 C468 1.405 . S
C468 H440 0.932 . S
C468 C467 1.405 . S
C468 C469 1.383 . S
C469 C468 1.383 . S
C469 C470 1.393 . S
C470 H442 0.931 . S
C470 C469 1.393 . S
C470 C471 1.382 . S
C471 H441 0.929 . S
C471 C466 1.371 . S
C471 C470 1.382 . S
C472 N435 1.423 . S
C472 C473 1.362 . S
C472 C477 1.388 . S
C473 H443 0.929 . S
C473 C472 1.362 . S
C473 C474 1.376 1_455 S
C474 H445 0.931 . S
C474 C473 1.376 1_655 S
C474 C475 1.396 . S
C475 C474 1.396 . S
C475 C476 1.348 1_655 S
C475 C493 1.479 . S
C476 H446 0.929 . S
C476 C475 1.348 1_455 S
C476 C477 1.443 . S
C477 H444 0.932 . S
C477 C472 1.388 . S
C477 C476 1.443 . S
C478 N458 1.433 . S
C478 C479 1.363 . S
C478 C483 1.370 . S
C479 H447 0.929 . S
C479 C478 1.363 . S
C479 C480 1.385 . S
C480 H448 0.930 . S
C480 C479 1.385 . S
C480 C481 1.357 . S
C481 C480 1.357 . S
C481 C482 1.406 . S
C482 H449 0.929 . S
C482 C481 1.406 . S
C482 C483 1.391 . S
C483 H450 0.931 . S
C483 C478 1.370 . S
C483 C482 1.391 . S
C484 N458 1.435 . S
C484 C485 1.358 . S
C484 C489 1.371 . S
C485 H451 0.930 . S
C485 C484 1.358 . S
C485 C486 1.405 . S
C486 H452 0.932 . S
C486 C485 1.405 . S
C486 C487 1.383 . S
C487 C486 1.383 . S
C487 C488 1.393 . S
C488 H453 0.931 . S
C488 C487 1.393 . S
C488 C489 1.382 . S
C489 H454 0.929 . S
C489 C484 1.371 . S
C489 C488 1.382 . S
C490 N458 1.423 . S
C490 C491 1.362 . S
C490 C495 1.388 . S
C491 H455 0.929 . S
C491 C490 1.362 . S
C491 C492 1.376 . S
C492 H456 0.931 1_545 S
C492 C491 1.376 . S
C492 C493 1.395 1_545 S
C493 C475 1.479 . S
C493 C492 1.395 1_565 S
C493 C494 1.341 1_565 S
C494 H457 0.929 . S
C494 C493 1.341 1_545 S
C494 C495 1.443 . S
C495 H459 0.932 . S
C495 C490 1.388 . S
C495 C494 1.443 . S
C496 O497 1.169 . S
C496 O503 1.182 1_554 S
O497 C496 1.169 . S
O498 Zn499 1.899 . S
O498 C506 1.284 . S
Zn499 O498 1.899 . S
Zn499 O500 2.032 1_554 S
Zn499 O503 2.086 1_554 S
Zn499 O508 1.977 . S
O500 Zn499 2.032 1_556 S
O500 C504 1.278 . S
C501 O502 1.203 . S
C501 O508 1.267 . S
O502 C501 1.203 . S
O503 C496 1.182 1_556 S
O503 Zn499 2.086 1_556 S
C504 O500 1.278 . S
C504 O505 1.211 . S
O505 C504 1.211 . S
C506 O498 1.284 . S
C506 O507 1.273 . S
O507 C506 1.273 . S
O508 Zn499 1.977 . S
O508 C501 1.267 . S
C509 O510 1.160 . S
C509 O516 1.185 . S
O510 C509 1.160 . S
O511 Zn512 1.899 . S
O511 C519 1.284 . S
Zn512 O511 1.899 . S
Zn512 O513 2.032 . S
Zn512 O516 2.086 . S
Zn512 O521 1.977 . S
O513 Zn512 2.032 . S
O513 C517 1.278 . S
C514 O515 1.203 . S
C514 O521 1.267 . S
O515 C514 1.203 . S
O516 C509 1.185 . S
O516 Zn512 2.086 . S
C517 O513 1.278 . S
C517 O518 1.211 . S
O518 C517 1.211 . S
C519 O511 1.284 . S
C519 O520 1.273 . S
O520 C519 1.273 . S
O521 Zn512 1.977 . S
O521 C514 1.267 . S
C522 O523 1.160 . S
C522 O529 1.185 . S
O523 C522 1.160 . S
O524 Zn525 1.899 . S
O524 C532 1.284 . S
Zn525 O524 1.899 . S
Zn525 O526 2.032 . S
Zn525 O529 2.086 . S
Zn525 O534 1.977 . S
O526 Zn525 2.032 . S
O526 C530 1.278 . S
C527 O528 1.203 . S
C527 O534 1.267 . S
O528 C527 1.203 . S
O529 C522 1.185 . S
O529 Zn525 2.086 . S
C530 O526 1.278 . S
C530 O531 1.211 . S
O531 C530 1.211 . S
C532 O524 1.284 . S
C532 O533 1.273 . S
O533 C532 1.273 . S
O534 Zn525 1.977 . S
O534 C527 1.267 . S
C535 O536 1.160 . S
C535 O542 1.185 . S
O536 C535 1.160 . S
O537 Zn538 1.899 . S
O537 C545 1.284 . S
Zn538 O537 1.899 . S
Zn538 O539 2.032 . S
Zn538 O542 2.086 . S
Zn538 O547 1.977 . S
O539 Zn538 2.032 . S
O539 C543 1.278 . S
C540 O541 1.203 . S
C540 O547 1.267 . S
O541 C540 1.203 . S
O542 C535 1.185 . S
O542 Zn538 2.086 . S
C543 O539 1.278 . S
C543 O544 1.211 . S
O544 C543 1.211 . S
C545 O537 1.284 . S
C545 O546 1.273 . S
O546 C545 1.273 . S
O547 Zn538 1.977 . S
O547 C540 1.267 . S
C548 O549 1.160 . S
C548 O555 1.185 . S
O549 C548 1.160 . S
O550 Zn551 1.899 . S
O550 C558 1.284 . S
Zn551 O550 1.899 . S
Zn551 O552 2.032 . S
Zn551 O555 2.086 . S
Zn551 O560 1.977 . S
O552 Zn551 2.032 . S
O552 C556 1.278 . S
C553 O554 1.203 . S
C553 O560 1.267 . S
O554 C553 1.203 . S
O555 C548 1.185 . S
O555 Zn551 2.086 . S
C556 O552 1.278 . S
C556 O557 1.211 . S
O557 C556 1.211 . S
C558 O550 1.284 . S
C558 O559 1.273 . S
O559 C558 1.273 . S
O560 Zn551 1.977 . S
O560 C553 1.267 . S
C561 O562 1.160 . S
C561 O568 1.185 . S
O562 C561 1.160 . S
O563 Zn564 1.899 . S
O563 C571 1.284 . S
Zn564 O563 1.899 . S
Zn564 O565 2.032 . S
Zn564 O568 2.086 . S
Zn564 O573 1.977 . S
O565 Zn564 2.032 . S
O565 C569 1.278 . S
C566 O567 1.203 . S
C566 O573 1.267 . S
O567 C566 1.203 . S
O568 C561 1.185 . S
O568 Zn564 2.086 . S
C569 O565 1.278 . S
C569 O570 1.211 . S
O570 C569 1.211 . S
C571 O563 1.284 . S
C571 O572 1.273 . S
O572 C571 1.273 . S
O573 Zn564 1.977 . S
O573 C566 1.267 . S
C574 O575 1.169 . S
C574 O581 1.182 1_554 S
O575 C574 1.169 . S
O576 Zn577 1.899 . S
O576 C584 1.284 . S
Zn577 O576 1.899 . S
Zn577 O578 2.032 1_554 S
Zn577 O581 2.086 1_554 S
Zn577 O586 1.977 . S
O578 Zn577 2.032 1_556 S
O578 C582 1.278 . S
C579 O580 1.203 . S
C579 O586 1.267 . S
O580 C579 1.203 . S
O581 C574 1.182 1_556 S
O581 Zn577 2.086 1_556 S
C582 O578 1.278 . S
C582 O583 1.211 . S
O583 C582 1.211 . S
C584 O576 1.284 . S
C584 O585 1.273 . S
O585 C584 1.273 . S
O586 Zn577 1.977 . S
O586 C579 1.267 . S
C587 O588 1.160 . S
C587 O594 1.185 . S
O588 C587 1.160 . S
O589 Zn590 1.899 . S
O589 C597 1.284 . S
Zn590 O589 1.899 . S
Zn590 O591 2.032 . S
Zn590 O594 2.086 . S
Zn590 O599 1.977 . S
O591 Zn590 2.032 . S
O591 C595 1.278 . S
C592 O593 1.203 . S
C592 O599 1.267 . S
O593 C592 1.203 . S
O594 C587 1.185 . S
O594 Zn590 2.086 . S
C595 O591 1.278 . S
C595 O596 1.211 . S
O596 C595 1.211 . S
C597 O589 1.284 . S
C597 O598 1.273 . S
O598 C597 1.273 . S
O599 Zn590 1.977 . S
O599 C592 1.267 . S
C509 C35 1.628 . S
C527 C115 2.077 . S
C535 C177 1.673 . S
C221 C501 2.032 1_556 S
C283 C496 1.636 . S
C363 C514 2.077 . S
C522 C407 1.631 . S
C540 C469 2.032 . S
C159 C561 1.630 . S
C579 C239 2.075 1_554 S
C53 C587 1.675 . S
C553 C97 2.030 . S
C425 C548 1.673 . S
C487 C566 2.075 . S
C574 C301 1.685 . S
C345 C592 2.030 . S
C530 C29 2.628 . S
C545 C109 2.428 . S
C171 C504 2.472 . S
C215 C519 2.552 . S
C277 C543 2.626 . S
C506 C357 2.429 . S
C517 C401 2.627 . S
C532 C463 2.550 . S
C582 C153 2.625 . S
C597 C233 2.430 . S
C47 C556 2.469 . S
C571 C91 2.554 . S
C595 C419 2.470 . S
C481 C558 2.431 . S
C569 C295 2.471 . S
C584 C339 2.553 . S
