# Generated by pormake.
# Topology csq, (4,8)-cn, num edge types: 1
# Building blocks:
#     Node 0, Type 0, BuildingBlock: MUDLON_clean_linker_0, # of connection points: 4
#     Node 1, Type 0, BuildingBlock: MUDLON_clean_linker_0, # of connection points: 4
#     Node 2, Type 0, BuildingBlock: MUDLON_clean_linker_0, # of connection points: 4
#     Node 3, Type 0, BuildingBlock: MUDLON_clean_linker_0, # of connection points: 4
#     Node 4, Type 0, BuildingBlock: MUDLON_clean_linker_0, # of connection points: 4
#     Node 5, Type 0, BuildingBlock: MUDLON_clean_linker_0, # of connection points: 4
#     Node 6, Type 1, BuildingBlock: TAGTUT_clean_sbu_3, # of connection points: 8
#     Node 7, Type 1, BuildingBlock: TAGTUT_clean_sbu_3, # of connection points: 8
#     Node 8, Type 1, BuildingBlock: TAGTUT_clean_sbu_3, # of connection points: 8
#     Edge 9, Type (0, 1), BuildingBlock: XIVTED_clean_linker_0, # of connection points: 2
#     Edge 10, Type (0, 1), BuildingBlock: XIVTED_clean_linker_0, # of connection points: 2
#     Edge 11, Type (0, 1), BuildingBlock: XIVTED_clean_linker_0, # of connection points: 2
#     Edge 12, Type (0, 1), BuildingBlock: XIVTED_clean_linker_0, # of connection points: 2
#     Edge 13, Type (0, 1), BuildingBlock: XIVTED_clean_linker_0, # of connection points: 2
#     Edge 14, Type (0, 1), BuildingBlock: XIVTED_clean_linker_0, # of connection points: 2
#     Edge 15, Type (0, 1), BuildingBlock: XIVTED_clean_linker_0, # of connection points: 2
#     Edge 16, Type (0, 1), BuildingBlock: XIVTED_clean_linker_0, # of connection points: 2
#     Edge 17, Type (0, 1), BuildingBlock: XIVTED_clean_linker_0, # of connection points: 2
#     Edge 18, Type (0, 1), BuildingBlock: XIVTED_clean_linker_0, # of connection points: 2
#     Edge 19, Type (0, 1), BuildingBlock: XIVTED_clean_linker_0, # of connection points: 2
#     Edge 20, Type (0, 1), BuildingBlock: XIVTED_clean_linker_0, # of connection points: 2
#     Edge 21, Type (0, 1), BuildingBlock: XIVTED_clean_linker_0, # of connection points: 2
#     Edge 22, Type (0, 1), BuildingBlock: XIVTED_clean_linker_0, # of connection points: 2
#     Edge 23, Type (0, 1), BuildingBlock: XIVTED_clean_linker_0, # of connection points: 2
#     Edge 24, Type (0, 1), BuildingBlock: XIVTED_clean_linker_0, # of connection points: 2
#     Edge 25, Type (0, 1), BuildingBlock: XIVTED_clean_linker_0, # of connection points: 2
#     Edge 26, Type (0, 1), BuildingBlock: XIVTED_clean_linker_0, # of connection points: 2
#     Edge 27, Type (0, 1), BuildingBlock: XIVTED_clean_linker_0, # of connection points: 2
#     Edge 28, Type (0, 1), BuildingBlock: XIVTED_clean_linker_0, # of connection points: 2
#     Edge 29, Type (0, 1), BuildingBlock: XIVTED_clean_linker_0, # of connection points: 2
#     Edge 30, Type (0, 1), BuildingBlock: XIVTED_clean_linker_0, # of connection points: 2
#     Edge 31, Type (0, 1), BuildingBlock: XIVTED_clean_linker_0, # of connection points: 2
#     Edge 32, Type (0, 1), BuildingBlock: XIVTED_clean_linker_0, # of connection points: 2
# Relax obj value: 0.039
# Max RMSD: 0.119
# Mean RMSD: 0.079
data_MOF--net-csq--node1-TAGTUT_clean_sbu_3--node2-MUDLON_clean_linker_0--edge1-XIVTED_clean_linker_0
_symmetry_space_group_name_H-M    P1
_symmetry_Int_Tables_number       1
_symmetry_cell_setting            triclinic
loop_
_symmetry_equiv_pos_as_xyz
'x, y, z'
_cell_length_a     70.966019
_cell_length_b     70.18172
_cell_length_c     23.153741
_cell_angle_alpha  92.61458
_cell_angle_beta   92.706903
_cell_angle_gamma 120.02436
loop_
_atom_site_label
_atom_site_type_symbol
_atom_site_fract_x
_atom_site_fract_y
_atom_site_fract_z
_atom_type_partial_charge
H0 H 0.32118 0.47925 0.1625 0.0
N1 N 0.28916 0.43664 0.13052 0.0
H2 H 0.35112 0.48999 0.23605 0.0
H3 H 0.28868 0.41315 0.21742 0.0
H4 H 0.31814 0.42401 0.29331 0.0
H5 H 0.30287 0.41025 0.09029 0.0
H6 H 0.33139 0.41933 0.02358 0.0
H7 H 0.3035 0.47066 0.05968 0.0
H8 H 0.33203 0.47984 0.99257 0.0
H9 H 0.28481 0.47313 0.14924 0.0
H10 H 0.24948 0.40306 0.10243 0.0
H11 H 0.25033 0.47313 0.15016 0.0
H12 H 0.21498 0.40294 0.10151 0.0
H13 H 0.1616 0.4749 0.14707 0.0
H14 H 0.1458 0.49151 0.20988 0.0
H15 H 0.09924 0.42673 0.25867 0.0
H16 H 0.11501 0.41036 0.19579 0.0
H17 H 0.116 0.39107 0.07537 0.0
H18 H 0.09363 0.3829 0.9835 0.0
H19 H 0.12861 0.4522 0.95406 0.0
H20 H 0.15055 0.46016 0.04561 0.0
H21 H 0.18297 0.46502 0.08834 0.0
H22 H 0.21868 0.46775 0.08851 0.0
H23 H 0.1933 0.40694 0.173 0.0
N24 N 0.14572 0.43055 0.12426 0.0
H25 H 0.15749 0.40407 0.17092 0.0
C26 C 0.30288 0.44519 0.18388 0.0
C27 C 0.32002 0.46727 0.19197 0.0
C28 C 0.33719 0.47342 0.23423 0.0
C29 C 0.33731 0.45767 0.26936 0.0
C30 C 0.31883 0.43634 0.26565 0.0
C31 C 0.30184 0.43016 0.22298 0.0
C32 C 0.30107 0.4397 0.07989 0.0
C33 C 0.30866 0.4251 0.06756 0.0
C34 C 0.32513 0.43046 0.03022 0.0
C35 C 0.33417 0.45049 0.00397 0.0
C36 C 0.32534 0.46432 0.01247 0.0
C37 C 0.30895 0.45902 0.05048 0.0
C38 C 0.26959 0.43795 0.12627 0.0
C39 C 0.26966 0.45779 0.13855 0.0
C40 C 0.24992 0.45778 0.13885 0.0
C41 C 0.22989 0.43797 0.12679 0.0
C42 C 0.23007 0.41838 0.11241 0.0
C43 C 0.24972 0.41842 0.11231 0.0
C44 C 0.13936 0.44133 0.16687 0.0
C45 C 0.14827 0.46436 0.17208 0.0
C46 C 0.13925 0.47383 0.20798 0.0
C47 C 0.12111 0.46036 0.23843 0.0
C48 C 0.11299 0.43748 0.23497 0.0
C49 C 0.12205 0.42812 0.19957 0.0
C50 C 0.13493 0.42612 0.06709 0.0
C51 C 0.11905 0.40436 0.04832 0.0
C52 C 0.10632 0.39976 0.9961 0.0
C53 C 0.10944 0.4169 0.96159 0.0
C54 C 0.12609 0.43859 0.97922 0.0
C55 C 0.13865 0.4432 0.03173 0.0
C56 C 0.16752 0.43416 0.12928 0.0
C57 C 0.1851 0.45237 0.10721 0.0
C58 C 0.20558 0.45396 0.10756 0.0
C59 C 0.20876 0.4374 0.13001 0.0
C60 C 0.19129 0.41972 0.15416 0.0
C61 C 0.1709 0.41813 0.15358 0.0
H62 H 0.71778 0.11022 0.11638 0.0
N63 N 0.72286 0.14847 0.08768 0.0
H64 H 0.69657 0.0887 0.19389 0.0
H65 H 0.71176 0.16536 0.18106 0.0
H66 H 0.69076 0.14406 0.25845 0.0
H67 H 0.68822 0.15555 0.08627 0.0
H68 H 0.65413 0.13418 0.02486 0.0
H69 H 0.7168 0.12323 0.99223 0.0
H70 H 0.68283 0.10195 0.9301 0.0
H71 H 0.76324 0.15946 0.06799 0.0
H72 H 0.72274 0.18744 0.10427 0.0
H73 H 0.79463 0.19639 0.06444 0.0
H74 H 0.75424 0.22449 0.10509 0.0
H75 H 0.89302 0.31594 0.13138 0.0
H76 H 0.90909 0.34144 0.21871 0.0
H77 H 0.84759 0.33881 0.23789 0.0
H78 H 0.83156 0.31298 0.15097 0.0
H79 H 0.83741 0.32745 0.05776 0.0
H80 H 0.84588 0.35102 0.97746 0.0
H81 H 0.88336 0.32338 0.90846 0.0
H82 H 0.87463 0.29968 0.98901 0.0
H83 H 0.85167 0.26394 0.11751 0.0
H84 H 0.81967 0.22755 0.12254 0.0
H85 H 0.77878 0.25111 0.04797 0.0
N86 N 0.85323 0.29966 0.07994 0.0
H87 H 0.81069 0.28774 0.047 0.0
C88 C 0.71631 0.13931 0.14252 0.0
C89 C 0.71264 0.11797 0.14861 0.0
C90 C 0.7004 0.10567 0.19249 0.0
C91 C 0.69182 0.11466 0.23152 0.0
C92 C 0.69727 0.13678 0.22899 0.0
C93 C 0.70933 0.14901 0.18458 0.0
C94 C 0.70507 0.1409 0.04373 0.0
C95 C 0.68747 0.14449 0.05105 0.0
C96 C 0.66792 0.13217 0.01605 0.0
C97 C 0.6657 0.11609 0.97356 0.0
C98 C 0.68394 0.11392 0.96336 0.0
C99 C 0.70342 0.12623 0.99819 0.0
C100 C 0.7408 0.17066 0.08729 0.0
C101 C 0.76126 0.17366 0.07609 0.0
C102 C 0.77921 0.19482 0.0746 0.0
C103 C 0.77716 0.21359 0.08525 0.0
C104 C 0.75648 0.21051 0.09617 0.0
C105 C 0.73842 0.18924 0.09658 0.0
C106 C 0.8613 0.31286 0.13443 0.0
C107 C 0.88296 0.32062 0.1551 0.0
C108 C 0.89203 0.33504 0.20506 0.0
C109 C 0.87958 0.34213 0.23497 0.0
C110 C 0.85758 0.33372 0.21538 0.0
C111 C 0.84843 0.31904 0.16573 0.0
C112 C 0.85559 0.31185 0.02964 0.0
C113 C 0.84722 0.32621 0.02512 0.0
C114 C 0.85212 0.33976 0.97915 0.0
C115 C 0.86539 0.33919 0.93671 0.0
C116 C 0.87287 0.32407 0.93998 0.0
C117 C 0.86801 0.31058 0.98606 0.0
C118 C 0.83374 0.27846 0.08111 0.0
C119 C 0.83576 0.26118 0.1024 0.0
C120 C 0.81742 0.24033 0.10474 0.0
C121 C 0.79655 0.23616 0.08487 0.0
C122 C 0.7945 0.25367 0.06416 0.0
C123 C 0.81287 0.27468 0.06288 0.0
H124 H 0.5893 0.89356 0.00135 0.0
N125 N 0.56812 0.85497 0.04642 0.0
H126 H 0.57773 0.90545 0.91586 0.0
H127 H 0.53294 0.82838 0.96802 0.0
H128 H 0.52167 0.83987 0.88185 0.0
H129 H 0.52592 0.8443 0.06174 0.0
H130 H 0.51269 0.8527 0.14862 0.0
H131 H 0.59155 0.87824 0.14317 0.0
H132 H 0.57865 0.88787 0.22975 0.0
H133 H 0.60126 0.84807 0.034 0.0
H134 H 0.53272 0.81438 0.06218 0.0
H135 H 0.60155 0.81355 0.04262 0.0
H136 H 0.53305 0.78035 0.07291 0.0
H137 H 0.60483 0.72363 0.01879 0.0
H138 H 0.60433 0.70611 0.92411 0.0
H139 H 0.5341 0.6656 0.9204 0.0
H140 H 0.53472 0.6833 0.01327 0.0
H141 H 0.52785 0.69314 0.10371 0.0
H142 H 0.51195 0.66617 0.17612 0.0
H143 H 0.57615 0.67832 0.23237 0.0
H144 H 0.59188 0.70464 0.15826 0.0
H145 H 0.60014 0.75526 0.12504 0.0
H146 H 0.59908 0.78937 0.11656 0.0
H147 H 0.53608 0.75214 0.01942 0.0
N148 N 0.57105 0.71511 0.07963 0.0
H149 H 0.537 0.71829 0.0298 0.0
C150 C 0.56209 0.8602 0.99148 0.0
C151 C 0.57472 0.88169 0.97479 0.0
C152 C 0.56814 0.88839 0.92567 0.0
C153 C 0.54869 0.87363 0.89204 0.0
C154 C 0.53657 0.85174 0.90724 0.0
C155 C 0.54312 0.84509 0.95655 0.0
C156 C 0.55984 0.86069 0.09597 0.0
C157 C 0.53756 0.85374 0.09818 0.0
C158 C 0.53 0.85867 0.14802 0.0
C159 C 0.54457 0.87097 0.19645 0.0
C160 C 0.56687 0.878 0.19386 0.0
C161 C 0.57435 0.87279 0.1442 0.0
C162 C 0.56713 0.83396 0.04754 0.0
C163 C 0.5863 0.83324 0.04183 0.0
C164 C 0.58646 0.81359 0.0474 0.0
C165 C 0.56735 0.79424 0.05901 0.0
C166 C 0.548 0.79488 0.06349 0.0
C167 C 0.54785 0.81449 0.05765 0.0
C168 C 0.56996 0.7046 0.0237 0.0
C169 C 0.58937 0.71104 0.99713 0.0
C170 C 0.58903 0.70109 0.94312 0.0
C171 C 0.56917 0.68452 0.91463 0.0
C172 C 0.54965 0.6786 0.94057 0.0
C173 C 0.55002 0.68853 0.99446 0.0
C174 C 0.56114 0.7007 0.12502 0.0
C175 C 0.53854 0.68999 0.13129 0.0
C176 C 0.52943 0.67461 0.17279 0.0
C177 C 0.54284 0.67019 0.20965 0.0
C178 C 0.56547 0.68154 0.20472 0.0
C179 C 0.57447 0.69651 0.16251 0.0
C180 C 0.56875 0.7343 0.07828 0.0
C181 C 0.58601 0.75453 0.10271 0.0
C182 C 0.58547 0.77398 0.09717 0.0
C183 C 0.5676 0.7735 0.06676 0.0
C184 C 0.55001 0.75307 0.04354 0.0
C185 C 0.55053 0.73364 0.04939 0.0
H186 H 0.91509 0.62058 0.04545 0.0
N187 N 0.87276 0.59167 0.02636 0.0
H188 H 0.9402 0.62166 0.12377 0.0
H189 H 0.86083 0.56876 0.12399 0.0
H190 H 0.88563 0.57002 0.20212 0.0
H191 H 0.86195 0.54833 0.028 0.0
H192 H 0.87652 0.53056 0.96539 0.0
H193 H 0.88794 0.60424 0.92452 0.0
H194 H 0.90243 0.5865 0.86165 0.0
H195 H 0.86558 0.62491 0.01849 0.0
H196 H 0.83347 0.55572 0.0464 0.0
H197 H 0.83197 0.62526 0.03338 0.0
H198 H 0.80021 0.55612 0.06584 0.0
H199 H 0.72776 0.62449 0.1488 0.0
H200 H 0.70852 0.61897 0.23657 0.0
H201 H 0.71253 0.56031 0.2603 0.0
H202 H 0.73133 0.56576 0.17138 0.0
H203 H 0.70346 0.55336 0.08564 0.0
H204 H 0.67017 0.53784 0.02073 0.0
H205 H 0.69586 0.59981 0.94199 0.0
H206 H 0.72899 0.61536 0.00796 0.0
H207 H 0.77824 0.62696 0.12301 0.0
H208 H 0.81088 0.62485 0.10714 0.0
H209 H 0.77035 0.55825 0.02833 0.0
N210 N 0.73702 0.59645 0.09489 0.0
H211 H 0.73797 0.55998 0.04829 0.0
C212 C 0.88609 0.59477 0.07877 0.0
C213 C 0.90854 0.60993 0.08043 0.0
C214 C 0.92283 0.6104 0.12476 0.0
C215 C 0.91481 0.59585 0.16871 0.0
C216 C 0.8922 0.58156 0.16901 0.0
C217 C 0.87796 0.58087 0.1242 0.0
C218 C 0.8741 0.57778 0.98103 0.0
C219 C 0.86984 0.55632 0.99024 0.0
C220 C 0.87821 0.54617 0.95453 0.0
C221 C 0.89088 0.55739 0.90952 0.0
C222 C 0.89288 0.57765 0.89654 0.0
C223 C 0.8845 0.58772 0.93203 0.0
C224 C 0.85213 0.59048 0.0321 0.0
C225 C 0.85123 0.60982 0.0282 0.0
C226 C 0.83205 0.61 0.0375 0.0
C227 C 0.81337 0.59082 0.05209 0.0
C228 C 0.81416 0.5712 0.05444 0.0
C229 C 0.8333 0.57097 0.04388 0.0
C230 C 0.73071 0.59547 0.15335 0.0
C231 C 0.72507 0.61085 0.17407 0.0
C232 C 0.71417 0.6077 0.22443 0.0
C233 C 0.70871 0.58901 0.25506 0.0
C234 C 0.71617 0.57466 0.23707 0.0
C235 C 0.72703 0.57781 0.18647 0.0
C236 C 0.71871 0.58568 0.05178 0.0
C237 C 0.70209 0.56354 0.05396 0.0
C238 C 0.68307 0.55462 0.01666 0.0
C239 C 0.68028 0.5677 0.9769 0.0
C240 C 0.69738 0.58945 0.97299 0.0
C241 C 0.71637 0.59832 0.01014 0.0
C242 C 0.75566 0.5939 0.08623 0.0
C243 C 0.77647 0.61187 0.10275 0.0
C244 C 0.79511 0.61067 0.09297 0.0
C245 C 0.79337 0.59151 0.06532 0.0
C246 C 0.77241 0.57325 0.05001 0.0
C247 C 0.75374 0.57431 0.06095 0.0
H248 H 0.1606 0.68535 0.15283 0.0
N249 N 0.15558 0.72109 0.13374 0.0
H250 H 0.15477 0.66692 0.24154 0.0
H251 H 0.15053 0.7352 0.23718 0.0
H252 H 0.14665 0.71799 0.3284 0.0
H253 H 0.11426 0.70388 0.09313 0.0
H254 H 0.0951 0.67687 0.00999 0.0
H255 H 0.17385 0.70481 0.05891 0.0
H256 H 0.15475 0.67739 0.97652 0.0
H257 H 0.19804 0.73082 0.14795 0.0
H258 H 0.15667 0.75714 0.10027 0.0
H259 H 0.23048 0.76633 0.13299 0.0
H260 H 0.18882 0.79255 0.08518 0.0
H261 H 0.31256 0.85533 0.09348 0.0
H262 H 0.34774 0.8735 0.15136 0.0
H263 H 0.3337 0.92288 0.22058 0.0
H264 H 0.29881 0.90487 0.16164 0.0
H265 H 0.28113 0.90333 0.04111 0.0
H266 H 0.29386 0.91908 0.9489 0.0
H267 H 0.31126 0.86918 0.91026 0.0
H268 H 0.29726 0.85295 0.0003 0.0
H269 H 0.27915 0.84267 0.17197 0.0
H270 H 0.24925 0.80561 0.18008 0.0
H271 H 0.2182 0.808 0.01808 0.0
N272 N 0.28328 0.87009 0.08539 0.0
H273 H 0.24798 0.84511 0.00926 0.0
C274 C 0.15527 0.71137 0.18766 0.0
C275 C 0.15746 0.69259 0.19066 0.0
C276 C 0.15444 0.68217 0.24227 0.0
C277 C 0.14982 0.69062 0.29268 0.0
C278 C 0.14938 0.71042 0.29038 0.0
C279 C 0.15182 0.72048 0.23835 0.0
C280 C 0.14531 0.70617 0.08245 0.0
C281 C 0.12318 0.69829 0.06739 0.0
C282 C 0.1123 0.68283 0.02005 0.0
C283 C 0.12336 0.67481 0.98691 0.0
C284 C 0.14581 0.68337 0.00075 0.0
C285 C 0.15672 0.69894 0.0481 0.0
C286 C 0.17502 0.74154 0.12549 0.0
C287 C 0.19599 0.74427 0.13434 0.0
C288 C 0.21445 0.76451 0.12587 0.0
C289 C 0.21215 0.78215 0.10767 0.0
C290 C 0.1911 0.77919 0.0984 0.0
C291 C 0.17276 0.75908 0.10733 0.0
C292 C 0.30306 0.87885 0.1233 0.0
C293 C 0.31706 0.87005 0.1211 0.0
C294 C 0.3371 0.88037 0.15447 0.0
C295 C 0.3436 0.89976 0.18999 0.0
C296 C 0.32935 0.9082 0.19283 0.0
C297 C 0.30933 0.89783 0.15977 0.0
C298 C 0.28856 0.87727 0.02791 0.0
C299 C 0.28731 0.89563 0.01193 0.0
C300 C 0.29474 0.90466 0.95947 0.0
C301 C 0.30387 0.89562 0.92221 0.0
C302 C 0.30414 0.87652 0.93725 0.0
C303 C 0.29645 0.86736 0.98935 0.0
C304 C 0.26697 0.84686 0.08793 0.0
C305 C 0.26652 0.83522 0.13661 0.0
C306 C 0.24923 0.81387 0.1417 0.0
C307 C 0.23152 0.80383 0.09947 0.0
C308 C 0.2317 0.8153 0.05126 0.0
C309 C 0.249 0.83655 0.04591 0.0
H310 H 0.5343 0.33056 0.04776 0.0
N311 N 0.50383 0.31459 0.12247 0.0
H312 H 0.53333 0.34682 0.95709 0.0
H313 H 0.46854 0.31558 0.07168 0.0
H314 H 0.46763 0.3323 0.9826 0.0
H315 H 0.46421 0.30186 0.1655 0.0
H316 H 0.45764 0.31928 0.24978 0.0
H317 H 0.53311 0.34916 0.19124 0.0
H318 H 0.52667 0.36681 0.2757 0.0
H319 H 0.52631 0.29823 0.17244 0.0
H320 H 0.4646 0.27899 0.07932 0.0
H321 H 0.5138 0.25962 0.18791 0.0
H322 H 0.45213 0.24031 0.09311 0.0
H323 H 0.48278 0.14439 0.19576 0.0
H324 H 0.49103 0.12508 0.12128 0.0
H325 H 0.44304 0.12639 0.00141 0.0
H326 H 0.43326 0.1437 0.07863 0.0
H327 H 0.42531 0.12034 0.23803 0.0
H328 H 0.43419 0.10801 0.3267 0.0
H329 H 0.49363 0.17115 0.35902 0.0
H330 H 0.48532 0.18288 0.26951 0.0
H331 H 0.49221 0.18699 0.1594 0.0
H332 H 0.50471 0.22497 0.13811 0.0
H333 H 0.44151 0.2161 0.17185 0.0
N334 N 0.45124 0.15655 0.18688 0.0
H335 H 0.42885 0.17764 0.19116 0.0
C336 C 0.5017 0.3221 0.06691 0.0
C337 C 0.51961 0.33064 0.03316 0.0
C338 C 0.51905 0.34001 0.98161 0.0
C339 C 0.50048 0.34107 0.96279 0.0
C340 C 0.48213 0.33159 0.99541 0.0
C341 C 0.4827 0.32216 0.0469 0.0
C342 C 0.49924 0.32443 0.17178 0.0
C343 C 0.47794 0.31603 0.18914 0.0
C344 C 0.47419 0.32597 0.23747 0.0
C345 C 0.49164 0.34434 0.26954 0.0
C346 C 0.51293 0.35246 0.25249 0.0
C347 C 0.51663 0.34259 0.204 0.0
C348 C 0.49655 0.29149 0.12451 0.0
C349 C 0.51022 0.28558 0.15439 0.0
C350 C 0.50304 0.26353 0.16305 0.0
C351 C 0.48195 0.24688 0.14179 0.0
C352 C 0.46836 0.25278 0.11069 0.0
C353 C 0.47557 0.2749 0.10221 0.0
C354 C 0.4568 0.14503 0.14345 0.0
C355 C 0.4736 0.14011 0.15398 0.0
C356 C 0.47866 0.12933 0.11055 0.0
C357 C 0.46772 0.12392 0.05476 0.0
C358 C 0.45144 0.12953 0.04401 0.0
C359 C 0.44588 0.13964 0.08802 0.0
C360 C 0.45461 0.15233 0.24605 0.0
C361 C 0.43996 0.13171 0.26511 0.0
C362 C 0.44504 0.12475 0.3161 0.0
C363 C 0.46487 0.13845 0.34955 0.0
C364 C 0.47849 0.15997 0.33351 0.0
C365 C 0.4736 0.16678 0.28207 0.0
C366 C 0.45946 0.17943 0.17664 0.0
C367 C 0.48098 0.19315 0.16194 0.0
C368 C 0.48817 0.21494 0.15016 0.0
C369 C 0.47409 0.22355 0.15315 0.0
C370 C 0.45265 0.20985 0.16825 0.0
C371 C 0.44544 0.18799 0.17985 0.0
C372 C 0.03564 0.4912 0.51187 0.0
C373 C 0.01853 0.44636 0.70228 0.0
C374 C 0.96195 0.45315 0.69508 0.0
Mg375 Mg 0.02171 0.52698 0.47712 0.0
Mg376 Mg 0.01612 0.55765 0.57835 0.0
O377 O 0.00718 0.52902 0.54764 0.0
Mg378 Mg 0.01175 0.50894 0.5972 0.0
O379 O 0.01621 0.48739 0.6411 0.0
Mg380 Mg 0.99637 0.45928 0.59077 0.0
Mg381 Mg 0.00997 0.48566 0.71876 0.0
C382 C 0.98891 0.52944 0.67948 0.0
O383 O 0.03861 0.53739 0.66105 0.0
O384 O 0.00691 0.54651 0.43358 0.0
O385 O 0.0299 0.5205 0.74451 0.0
O386 O 0.05357 0.56004 0.5015 0.0
O387 O 0.00188 0.56557 0.50633 0.0
O388 O 0.05094 0.57852 0.57841 0.0
O389 O 0.98455 0.47955 0.54075 0.0
O390 O 0.99012 0.49382 0.45474 0.0
C391 C 0.97942 0.47782 0.48621 0.0
C392 C 0.00032 0.55958 0.45233 0.0
O393 O 0.98863 0.5118 0.66002 0.0
O394 O 0.01132 0.44293 0.64855 0.0
O395 O -0.00011 0.54816 0.65793 0.0
O396 O 0.96737 0.44689 0.64923 0.0
O397 O 0.01928 0.46163 0.7366 0.0
O398 O 0.97566 0.47049 0.72628 0.0
O399 O 0.0344 0.50794 0.53111 0.0
O400 O 0.02412 0.4721 0.53064 0.0
C401 C 0.06199 0.57668 0.53893 0.0
C402 C 0.04027 0.53786 0.71691 0.0
C403 C 0.50345 0.0377 0.52802 0.0
C404 C 0.56711 0.02428 0.46772 0.0
C405 C 0.52097 0.95659 0.49566 0.0
Mg406 Mg 0.46463 0.01019 0.61168 0.0
Mg407 Mg 0.47175 0.98389 0.71725 0.0
O408 O 0.47258 0.98794 0.63811 0.0
Mg409 Mg 0.50033 0.99788 0.59995 0.0
O410 O 0.52689 0.00828 0.55628 0.0
Mg411 Mg 0.51253 0.9993 0.47521 0.0
Mg412 Mg 0.54668 0.99876 0.57519 0.0
C413 C 0.49548 0.95764 0.67831 0.0
O414 O 0.52373 0.01577 0.6824 0.0
O415 O 0.43116 0.9891 0.65123 0.0
O416 O 0.55081 0.00838 0.66741 0.0
O417 O 0.47798 0.0316 0.69775 0.0
O418 O 0.43712 0.96973 0.71765 0.0
O419 O 0.48752 0.0158 0.76548 0.0
O420 O 0.47926 0.98101 0.51496 0.0
O421 O 0.45285 0.98921 0.52576 0.0
C422 C 0.46172 0.98047 0.4959 0.0
C423 C 0.42446 0.97462 0.68889 0.0
O424 O 0.50089 0.9671 0.63062 0.0
O425 O 0.54782 0.0183 0.44528 0.0
O426 O 0.48591 0.96277 0.71662 0.0
O427 O 0.51368 0.96725 0.46824 0.0
O428 O 0.57057 0.01913 0.51795 0.0
O429 O 0.53322 0.96485 0.54267 0.0
O430 O 0.49849 0.02791 0.57499 0.0
O431 O 0.5104 0.03083 0.48639 0.0
C432 C 0.48607 0.03211 0.74864 0.0
C433 C 0.54138 0.01599 0.69955 0.0
C434 C 0.52264 0.54874 0.68878 0.0
C435 C 0.45818 0.47777 0.7683 0.0
C436 C 0.49403 0.44641 0.70636 0.0
Mg437 Mg 0.54924 0.55192 0.57681 0.0
Mg438 Mg 0.52583 0.51437 0.46765 0.0
O439 O 0.53498 0.52002 0.54709 0.0
Mg440 Mg 0.51214 0.50635 0.6028 0.0
O441 O 0.49056 0.49418 0.66184 0.0
Mg442 Mg 0.51045 0.50076 0.73357 0.0
Mg443 Mg 0.46795 0.46471 0.64799 0.0
C444 C 0.50135 0.46557 0.50847 0.0
O445 O 0.48375 0.50076 0.53797 0.0
O446 O 0.57584 0.55755 0.51293 0.0
O447 O 0.45733 0.4673 0.56094 0.0
O448 O 0.53141 0.56098 0.5076 0.0
O449 O 0.55857 0.53002 0.44194 0.0
O450 O 0.51129 0.53347 0.44064 0.0
O451 O 0.53851 0.5106 0.67241 0.0
O452 O 0.56568 0.54284 0.64806 0.0
C453 C 0.55811 0.52694 0.68124 0.0
C454 C 0.57589 0.54694 0.46605 0.0
O455 O 0.5046 0.47223 0.56267 0.0
O456 O 0.47879 0.49002 0.78337 0.0
O457 O 0.50631 0.47868 0.46759 0.0
O458 O 0.50496 0.46559 0.73306 0.0
O459 O 0.45079 0.46684 0.71871 0.0
O460 O 0.47916 0.44202 0.66634 0.0
O461 O 0.52089 0.54109 0.63635 0.0
O462 O 0.51779 0.5363 0.73098 0.0
C463 C 0.51799 0.553 0.46254 0.0
C464 C 0.4648 0.48334 0.52793 0.0
H465 H 0.13843 0.49673 0.31771 0.0
H466 H 0.02031 0.46518 0.41241 0.0
H467 H 0.07751 0.44504 0.23242 0.0
H468 H 0.07918 0.51936 0.49915 0.0
H469 H 0.04154 0.46164 0.33754 0.0
H470 H 0.11792 0.50898 0.37687 0.0
C471 C 0.12079 0.48816 0.31102 0.0
C472 C 0.10959 0.46959 0.27101 0.0
C473 C 0.04994 0.47454 0.37235 0.0
C474 C 0.08615 0.48345 0.33792 0.0
C475 C 0.03777 0.47659 0.41494 0.0
C476 C 0.04811 0.49247 0.46186 0.0
C477 C 0.07277 0.48815 0.3773 0.0
C478 C 0.0707 0.50693 0.46334 0.0
C479 C 0.10911 0.49511 0.34475 0.0
C480 C 0.08676 0.4591 0.26377 0.0
N481 N 0.08243 0.50418 0.42208 0.0
N482 N 0.07585 0.46606 0.29712 0.0
H483 H 0.65564 0.07511 0.19879 0.0
H484 H 0.60956 0.05179 0.5098 0.0
H485 H 0.6888 0.12168 0.34765 0.0
H486 H 0.56791 0.02698 0.35029 0.0
H487 H 0.6409 0.07344 0.45382 0.0
H488 H 0.62555 0.05269 0.25725 0.0
C489 C 0.65673 0.08041 0.24412 0.0
C490 C 0.67475 0.10018 0.26867 0.0
C491 C 0.62487 0.06326 0.43126 0.0
C492 C 0.64035 0.07474 0.33544 0.0
C493 C 0.60701 0.05085 0.46302 0.0
C494 C 0.58609 0.03759 0.43458 0.0
C495 C 0.62184 0.06203 0.37065 0.0
C496 C 0.58372 0.03708 0.37395 0.0
C497 C 0.63947 0.06774 0.27719 0.0
C498 C 0.67516 0.10653 0.32726 0.0
N499 N 0.60142 0.04901 0.34393 0.0
N500 N 0.65819 0.09377 0.35887 0.0
H501 H 0.55476 0.67454 0.32523 0.0
H502 H 0.49769 0.54619 0.35291 0.0
H503 H 0.5099 0.62723 0.18936 0.0
H504 H 0.52789 0.59476 0.49927 0.0
H505 H 0.49849 0.57473 0.29432 0.0
H506 H 0.5425 0.64523 0.39154 0.0
C507 C 0.54212 0.65797 0.30968 0.0
C508 C 0.53342 0.65321 0.25182 0.0
C509 C 0.50454 0.57901 0.33958 0.0
C510 C 0.51948 0.61946 0.32704 0.0
C511 C 0.50402 0.56269 0.37316 0.0
C512 C 0.51319 0.56817 0.4308 0.0
C513 C 0.51446 0.60094 0.36378 0.0
C514 C 0.52104 0.58983 0.45471 0.0
C515 C 0.53505 0.64124 0.34751 0.0
C516 C 0.51697 0.63153 0.23379 0.0
N517 N 0.52186 0.60547 0.42086 0.0
N518 N 0.51078 0.61533 0.27102 0.0
H519 H 0.95051 0.5925 0.14683 0.0
H520 H 0.97753 0.58042 0.4771 0.0
H521 H 0.91321 0.59455 0.28636 0.0
H522 H 0.99894 0.55678 0.33315 0.0
H523 H 0.95873 0.59192 0.40872 0.0
H524 H 0.97336 0.58585 0.2161 0.0
C525 C 0.94738 0.59189 0.19225 0.0
C526 C 0.92998 0.59406 0.21109 0.0
C527 C 0.9676 0.58428 0.39213 0.0
C528 C 0.95586 0.58632 0.29011 0.0
C529 C 0.97842 0.57775 0.4311 0.0
C530 C 0.98976 0.56747 0.41085 0.0
C531 C 0.96825 0.58072 0.33238 0.0
C532 C 0.99028 0.56448 0.3507 0.0
C533 C 0.96028 0.58791 0.23155 0.0
C534 C 0.92639 0.59282 0.27015 0.0
N535 N 0.97965 0.57108 0.31351 0.0
N536 N 0.93923 0.58902 0.30763 0.0
H537 H 0.36406 0.88212 0.25366 0.0
H538 H 0.44882 0.99844 0.4138 0.0
H539 H 0.37244 0.94411 0.20276 0.0
H540 H 0.45016 0.93927 0.44788 0.0
H541 H 0.42404 0.97912 0.32782 0.0
H542 H 0.39799 0.90243 0.31692 0.0
C543 C 0.3732 0.89997 0.25515 0.0
C544 C 0.36519 0.91147 0.22381 0.0
C545 C 0.42998 0.97035 0.35325 0.0
C546 C 0.40387 0.93476 0.29608 0.0
C547 C 0.44419 0.98143 0.4022 0.0
C548 C 0.45133 0.97032 0.43778 0.0
C549 C 0.42234 0.94777 0.34062 0.0
C550 C 0.44496 0.94834 0.42119 0.0
C551 C 0.39254 0.91155 0.29128 0.0
C552 C 0.37768 0.93459 0.22736 0.0
N553 N 0.43038 0.93757 0.37428 0.0
N554 N 0.39622 0.94544 0.26328 0.0
H555 H 0.51488 0.36069 0.37561 0.0
H556 H 0.46942 0.44097 0.42413 0.0
H557 H 0.45941 0.35477 0.27385 0.0
H558 H 0.51378 0.43744 0.55096 0.0
H559 H 0.46136 0.40554 0.37762 0.0
H560 H 0.51143 0.38501 0.44813 0.0
C561 C 0.50181 0.36429 0.36893 0.0
C562 C 0.48765 0.35602 0.31816 0.0
C563 C 0.4725 0.41218 0.41633 0.0
C564 C 0.48361 0.38379 0.40079 0.0
C565 C 0.47706 0.43237 0.44288 0.0
C566 C 0.49246 0.44211 0.49076 0.0
C567 C 0.48395 0.40199 0.43684 0.0
C568 C 0.50186 0.43039 0.51385 0.0
C569 C 0.49975 0.37803 0.41052 0.0
C570 C 0.47073 0.36082 0.31223 0.0
N571 N 0.49787 0.41112 0.48573 0.0
N572 N 0.46942 0.37469 0.35252 0.0
H573 H 0.57118 0.90312 0.81169 0.0
H574 H 0.47102 0.92038 0.73147 0.0
H575 H 0.50634 0.86293 0.86671 0.0
H576 H 0.533 0.957 0.65863 0.0
H577 H 0.48267 0.89593 0.77036 0.0
H578 H 0.55691 0.92009 0.74574 0.0
C579 C 0.55392 0.89768 0.80947 0.0
C580 C 0.54 0.88171 0.84537 0.0
C581 C 0.49368 0.90906 0.74513 0.0
C582 C 0.52358 0.901 0.76988 0.0
C583 C 0.48699 0.92301 0.72289 0.0
C584 C 0.50112 0.94073 0.69208 0.0
C585 C 0.51488 0.91314 0.73771 0.0
C586 C 0.5216 0.94339 0.68187 0.0
C587 C 0.54577 0.90729 0.77157 0.0
C588 C 0.51772 0.87503 0.83979 0.0
N589 N 0.52805 0.92996 0.70559 0.0
N590 N 0.51029 0.88488 0.80342 0.0
H591 H 0.65801 0.58934 0.95859 0.0
H592 H 0.56252 0.49553 0.73915 0.0
H593 H 0.65428 0.52689 0.91729 0.0
H594 H 0.58529 0.5653 0.74325 0.0
H595 H 0.58996 0.50322 0.82035 0.0
H596 H 0.62477 0.57691 0.89628 0.0
C597 C 0.65022 0.573 0.93615 0.0
C598 C 0.65923 0.55935 0.94192 0.0
C599 C 0.58862 0.5167 0.80367 0.0
C600 C 0.62091 0.54487 0.87076 0.0
C601 C 0.57297 0.51232 0.7578 0.0
C602 C 0.57185 0.52985 0.73436 0.0
C603 C 0.60267 0.53863 0.82644 0.0
C604 C 0.58572 0.55131 0.75971 0.0
C605 C 0.63114 0.56585 0.90088 0.0
C606 C 0.64795 0.53801 0.91349 0.0
N607 N 0.60051 0.55507 0.80412 0.0
N608 N 0.62944 0.53146 0.87842 0.0
H609 H 0.1354 0.66861 0.87881 0.0
H610 H 0.03392 0.54626 0.82705 0.0
H611 H 0.08334 0.6384 0.99227 0.0
H612 H 0.0744 0.57804 0.68835 0.0
H613 H 0.05366 0.58026 0.88816 0.0
H614 H 0.1151 0.6362 0.80849 0.0
C615 C 0.1197 0.65526 0.88881 0.0
C616 C 0.11104 0.65627 0.94155 0.0
C617 C 0.05834 0.57998 0.84442 0.0
C618 C 0.0879 0.61933 0.86166 0.0
C619 C 0.04714 0.56041 0.8094 0.0
C620 C 0.0527 0.55914 0.75257 0.0
C621 C 0.07551 0.59867 0.82314 0.0
C622 C 0.06968 0.57829 0.73203 0.0
C623 C 0.10811 0.63687 0.84857 0.0
C624 C 0.09057 0.63859 0.95202 0.0
N625 N 0.08068 0.59731 0.7676 0.0
N626 N 0.07984 0.6209 0.91272 0.0
H627 H 0.44035 0.09486 0.9642 0.0
H628 H 0.50634 0.04244 0.85965 0.0
H629 H 0.50715 0.12584 0.03862 0.0
H630 H 0.47407 0.063 0.73531 0.0
H631 H 0.50499 0.06774 0.93455 0.0
H632 H 0.44932 0.0766 0.88773 0.0
C633 C 0.45696 0.09813 0.96451 0.0
C634 C 0.47302 0.11229 0.00822 0.0
C635 C 0.49865 0.06688 0.89044 0.0
C636 C 0.48297 0.09038 0.9216 0.0
C637 C 0.49938 0.05252 0.8478 0.0
C638 C 0.49002 0.05034 0.79129 0.0
C639 C 0.488 0.07856 0.87643 0.0
C640 C 0.48132 0.06391 0.77829 0.0
C641 C 0.46196 0.08749 0.9209 0.0
C642 C 0.49404 0.11489 0.00675 0.0
N643 N 0.48004 0.07702 0.82085 0.0
N644 N 0.49836 0.10384 0.96442 0.0
H645 H 0.34126 0.46672 0.89692 0.0
H646 H 0.46071 0.48174 0.88806 0.0
H647 H 0.37148 0.45034 0.0371 0.0
H648 H 0.41855 0.47223 0.73571 0.0
H649 H 0.43151 0.47781 0.94874 0.0
H650 H 0.37326 0.47665 0.84223 0.0
C651 C 0.35471 0.46537 0.91623 0.0
C652 C 0.35366 0.45742 0.97107 0.0
C653 C 0.42882 0.47672 0.90198 0.0
C654 C 0.39025 0.46885 0.90936 0.0
C655 C 0.44544 0.47903 0.86753 0.0
C656 C 0.44189 0.477 0.80692 0.0
C657 C 0.40884 0.47285 0.87537 0.0
C658 C 0.42184 0.47353 0.78231 0.0
C659 C 0.3729 0.47095 0.88508 0.0
C660 C 0.37153 0.45601 0.99436 0.0
N661 N 0.40611 0.47158 0.81656 0.0
N662 N 0.38911 0.46164 0.96335 0.0
H663 H 0.86953 0.33248 0.82121 0.0
H664 H 0.94371 0.46095 0.78868 0.0
H665 H 0.87908 0.38328 0.95107 0.0
H666 H 0.93237 0.41037 0.65564 0.0
H667 H 0.91448 0.43306 0.84043 0.0
H668 H 0.88727 0.36072 0.75309 0.0
C669 C 0.87515 0.34955 0.8352 0.0
C670 C 0.87306 0.35553 0.8922 0.0
C671 C 0.91812 0.4281 0.79941 0.0
C672 C 0.89341 0.38799 0.81445 0.0
C673 C 0.93479 0.44406 0.76968 0.0
C674 C 0.94089 0.43793 0.71836 0.0
C675 C 0.9076 0.40582 0.77798 0.0
C676 C 0.92849 0.41584 0.69546 0.0
C677 C 0.88519 0.36567 0.79619 0.0
C678 C 0.88028 0.37786 0.90758 0.0
N679 N 0.91273 0.40052 0.72601 0.0
N680 N 0.8904 0.39329 0.86923 0.0
H681 H 0.93456 0.58182 0.90894 0.0
H682 H 0.94759 0.49661 0.69935 0.0
H683 H 0.88026 0.51713 0.85395 0.0
H684 H -0.00013 0.56086 0.76665 0.0
H685 H 0.92328 0.50059 0.7652 0.0
H686 H 0.95913 0.57174 0.86561 0.0
C687 C 0.92783 0.56546 0.88723 0.0
C688 C 0.90535 0.55045 0.88368 0.0
C689 C 0.94018 0.5136 0.7662 0.0
C690 C 0.93346 0.5386 0.8338 0.0
C691 C 0.95405 0.51127 0.72902 0.0
C692 C 0.97556 0.52866 0.727 0.0
C693 C 0.94808 0.53339 0.80136 0.0
C694 C 0.98324 0.54728 0.76612 0.0
C695 C 0.94188 0.5596 0.86284 0.0
C696 C 0.89752 0.52923 0.85672 0.0
N697 N 0.96946 0.54924 0.80112 0.0
N698 N 0.91156 0.52399 0.83191 0.0
H699 H 0.30599 0.87748 0.81624 0.0
H700 H 0.39983 0.99272 0.72039 0.0
H701 H 0.32771 0.94031 0.91153 0.0
H702 H 0.39747 0.93057 0.68818 0.0
H703 H 0.36448 0.97322 0.76319 0.0
H704 H 0.33075 0.89685 0.74227 0.0
C705 C 0.3157 0.89532 0.82139 0.0
C706 C 0.31511 0.90718 0.87119 0.0
C707 C 0.37148 0.96385 0.74526 0.0
C708 C 0.34302 0.92938 0.78585 0.0
C709 C 0.39148 0.9749 0.72064 0.0
C710 C 0.40143 0.96313 0.70135 0.0
C711 C 0.36142 0.94094 0.74947 0.0
C712 C 0.39026 0.94015 0.70309 0.0
C713 C 0.32969 0.90634 0.7789 0.0
C714 C 0.32754 0.93037 0.87418 0.0
N715 N 0.37088 0.92979 0.72719 0.0
N716 N 0.34121 0.9407 0.83252 0.0
H717 H 0.46755 0.33102 0.87795 0.0
H718 H 0.53057 0.45102 0.76409 0.0
H719 H 0.53428 0.38014 0.93319 0.0
H720 H 0.46519 0.40171 0.69812 0.0
H721 H 0.53375 0.42315 0.81562 0.0
H722 H 0.46755 0.35456 0.80304 0.0
C723 C 0.48225 0.34664 0.87406 0.0
C724 C 0.50088 0.35366 0.91238 0.0
C725 C 0.51879 0.41827 0.78929 0.0
C726 C 0.50103 0.38063 0.82656 0.0
C727 C 0.51698 0.4342 0.75973 0.0
C728 C 0.49748 0.42873 0.7274 0.0
C729 C 0.50083 0.39672 0.78737 0.0
C730 C 0.4805 0.40664 0.72276 0.0
C731 C 0.48228 0.36002 0.83105 0.0
C732 C 0.51958 0.3739 0.90454 0.0
N733 N 0.48241 0.39149 0.75334 0.0
N734 N 0.51908 0.38673 0.86303 0.0
H735 H 0.06501 0.39262 0.95628 0.0
H736 H 0.04908 0.43809 0.6589 0.0
H737 H 0.11823 0.43239 0.85355 0.0
H738 H 0.00848 0.42561 0.80128 0.0
H739 H 0.06945 0.42362 0.71244 0.0
H740 H 0.03936 0.39202 0.88098 0.0
C741 C 0.07125 0.40071 0.91714 0.0
C742 C 0.09379 0.41283 0.91141 0.0
C743 C 0.0557 0.42354 0.73111 0.0
C744 C 0.06457 0.41233 0.82554 0.0
C745 C 0.04404 0.43161 0.70054 0.0
C746 C 0.02728 0.43309 0.72621 0.0
C747 C 0.05018 0.41664 0.78694 0.0
C748 C 0.02144 0.42482 0.78044 0.0
C749 C 0.05662 0.40047 0.87441 0.0
C750 C 0.10098 0.42319 0.85999 0.0
N751 N 0.03298 0.41707 0.80924 0.0
N752 N 0.08641 0.42293 0.8192 0.0
H753 H 0.64734 0.07155 0.95782 0.0
H754 H 0.54462 0.05316 0.7543 0.0
H755 H 0.63454 0.1241 0.92352 0.0
H756 H 0.56548 0.00541 0.7711 0.0
H757 H 0.57216 0.07696 0.83296 0.0
H758 H 0.61268 0.04518 0.90519 0.0
C759 C 0.63723 0.07755 0.93887 0.0
C760 C 0.64407 0.10011 0.94374 0.0
C761 C 0.57038 0.06107 0.82012 0.0
C762 C 0.6041 0.0699 0.88373 0.0
C763 C 0.55455 0.04742 0.77571 0.0
C764 C 0.5531 0.02751 0.75576 0.0
C765 C 0.58457 0.05455 0.84467 0.0
C766 C 0.56634 0.02082 0.78468 0.0
C767 C 0.61733 0.06245 0.90922 0.0
C768 C 0.62995 0.10685 0.92015 0.0
N769 N 0.58167 0.03441 0.82716 0.0
N770 N 0.61071 0.09182 0.89041 0.0
H771 H 0.59718 0.66961 0.89202 0.0
H772 H 0.51668 0.58056 0.63994 0.0
H773 H 0.54004 0.66925 0.81768 0.0
H774 H 0.55535 0.5709 0.7719 0.0
H775 H 0.53364 0.61958 0.67827 0.0
H776 H 0.59121 0.64095 0.81801 0.0
C777 C 0.58374 0.66401 0.85914 0.0
C778 C 0.56876 0.67145 0.86194 0.0
C779 C 0.5387 0.60894 0.69769 0.0
C780 C 0.56161 0.63829 0.77795 0.0
C781 C 0.52908 0.58682 0.67598 0.0
C782 C 0.53447 0.57265 0.70366 0.0
C783 C 0.5541 0.61672 0.74606 0.0
C784 C 0.55062 0.58134 0.74995 0.0
C785 C 0.58026 0.64751 0.81713 0.0
C786 C 0.5516 0.66346 0.81807 0.0
N787 N 0.55978 0.60277 0.76985 0.0
N788 N 0.5482 0.64693 0.77843 0.0
H789 H 0.50642 0.14633 0.37151 0.0
H790 H 0.47248 0.04607 0.57069 0.0
H791 H 0.44158 0.10881 0.42921 0.0
H792 H 0.52703 0.07209 0.46441 0.0
H793 H 0.46488 0.07506 0.54234 0.0
H794 H 0.51813 0.12608 0.43122 0.0
C795 C 0.49471 0.13425 0.39788 0.0
C796 C 0.47284 0.12915 0.39463 0.0
C797 C 0.47868 0.07455 0.52607 0.0
C798 C 0.48616 0.10529 0.46198 0.0
C799 C 0.48307 0.05809 0.54233 0.0
C800 C 0.5002 0.05654 0.51907 0.0
C801 C 0.49181 0.08964 0.4873 0.0
C802 C 0.51344 0.07251 0.48254 0.0
C803 C 0.50141 0.12248 0.43155 0.0
C804 C 0.45847 0.11297 0.42936 0.0
N805 N 0.50891 0.08831 0.4676 0.0
N806 N 0.4653 0.10136 0.46103 0.0
H807 H 0.35411 0.4305 0.27976 0.0
H808 H 0.46072 0.51654 0.48158 0.0
H809 H 0.3673 0.49596 0.33463 0.0
H810 H 0.43512 0.44619 0.46352 0.0
H811 H 0.43095 0.51161 0.41222 0.0
H812 H 0.38772 0.43824 0.33344 0.0
C813 C 0.36392 0.44643 0.30382 0.0
C814 C 0.35757 0.46242 0.30376 0.0
C815 C 0.43207 0.49734 0.42306 0.0
C816 C 0.39659 0.47164 0.3642 0.0
C817 C 0.44912 0.50016 0.46207 0.0
C818 C 0.45009 0.48168 0.47865 0.0
C819 C 0.41628 0.47596 0.40026 0.0
C820 C 0.43471 0.46081 0.45243 0.0
C821 C 0.38328 0.45093 0.33394 0.0
C822 C 0.3715 0.48311 0.33379 0.0
N823 N 0.41837 0.45851 0.41484 0.0
N824 N 0.39036 0.48711 0.36316 0.0
H825 H 0.90703 0.34546 0.32748 0.0
H826 H 0.95369 0.47292 0.38988 0.0
H827 H 0.87685 0.37937 0.24987 0.0
H828 H 0.96423 0.43536 0.51681 0.0
H829 H 0.926 0.43856 0.33692 0.0
H830 H 0.92855 0.37768 0.39718 0.0
C831 C 0.90473 0.35957 0.32569 0.0
C832 C 0.89024 0.35984 0.28274 0.0
C833 C 0.93417 0.43779 0.3767 0.0
C834 C 0.91489 0.39666 0.36147 0.0
C835 C 0.95007 0.45739 0.40677 0.0
C836 C 0.96138 0.45696 0.45754 0.0
C837 C 0.92984 0.41753 0.39672 0.0
C838 C 0.95589 0.4364 0.47781 0.0
C839 C 0.91692 0.37787 0.36552 0.0
C840 C 0.88775 0.37844 0.28245 0.0
N841 N 0.94072 0.41743 0.44675 0.0
N842 N 0.9002 0.39624 0.3206 0.0
H843 H 0.55848 0.87436 0.3117 0.0
H844 H 0.48968 0.92981 0.41048 0.0
H845 H 0.5127 0.88214 0.19984 0.0
H846 H 0.54548 0.93673 0.513 0.0
H847 H 0.49103 0.90259 0.34432 0.0
H848 H 0.54787 0.88872 0.39466 0.0
C849 C 0.54613 0.87895 0.30449 0.0
C850 C 0.53672 0.87731 0.24832 0.0
C851 C 0.50275 0.90976 0.38184 0.0
C852 C 0.5242 0.89324 0.34334 0.0
C853 C 0.50194 0.92523 0.41981 0.0
C854 C 0.51784 0.93595 0.46648 0.0
C855 C 0.51971 0.9051 0.39027 0.0
C856 C 0.53308 0.92907 0.47709 0.0
C857 C 0.53996 0.88695 0.35199 0.0
C858 C 0.52036 0.88292 0.24209 0.0
N859 N 0.53394 0.91439 0.43845 0.0
N860 N 0.51478 0.8908 0.28886 0.0
H861 H 0.70501 0.61573 0.33972 0.0
H862 H 0.58347 0.52298 0.38452 0.0
H863 H 0.67459 0.54801 0.26856 0.0
H864 H 0.61587 0.58517 0.48903 0.0
H865 H 0.61744 0.53269 0.34257 0.0
H866 H 0.67368 0.60552 0.39748 0.0
C867 C 0.69194 0.59868 0.33691 0.0
C868 C 0.6924 0.58273 0.2989 0.0
C869 C 0.61725 0.54425 0.37482 0.0
C870 C 0.65657 0.57105 0.36432 0.0
C871 C 0.59774 0.53878 0.39859 0.0
C872 C 0.59672 0.55336 0.44016 0.0
C873 C 0.63603 0.5646 0.39203 0.0
C874 C 0.61591 0.57347 0.45698 0.0
C875 C 0.67411 0.59288 0.36993 0.0
C876 C 0.67515 0.56085 0.29752 0.0
N877 N 0.6348 0.57861 0.43246 0.0
N878 N 0.65787 0.55576 0.32913 0.0
H879 H 0.16382 0.66292 0.33429 0.0
H880 H 0.07709 0.62009 0.57301 0.0
H881 H 0.12134 0.68872 0.3723 0.0
H882 H 0.09413 0.57772 0.47566 0.0
H883 H 0.10475 0.6517 0.52675 0.0
H884 H 0.14853 0.63774 0.41077 0.0
C885 C 0.15148 0.66354 0.35871 0.0
C886 C 0.14363 0.67784 0.34538 0.0
C887 C 0.1028 0.63555 0.51678 0.0
C888 C 0.12679 0.64958 0.4347 0.0
C889 C 0.08716 0.61751 0.54356 0.0
C890 C 0.08298 0.59614 0.52727 0.0
C891 C 0.1145 0.63222 0.47412 0.0
C892 C 0.09658 0.59386 0.48873 0.0
C893 C 0.14296 0.64928 0.4028 0.0
C894 C 0.12817 0.67827 0.38055 0.0
N895 N 0.11152 0.61164 0.46271 0.0
N896 N 0.12018 0.66425 0.42312 0.0
loop_
_geom_bond_atom_site_label_1
_geom_bond_atom_site_label_2
_geom_bond_distance
_geom_bond_site_symmetry_2
_ccdc_geom_bond_type
H0 C27 0.929 . S
N1 C26 1.433 . S
N1 C32 1.435 . S
N1 C38 1.423 . S
H2 C28 0.930 . S
H3 C31 0.931 . S
H4 C30 0.929 . S
H5 C33 0.930 . S
H6 C34 0.932 . S
H7 C37 0.929 . S
H8 C36 0.931 . S
H9 C39 0.929 . S
H10 C43 0.932 . S
H11 C40 0.931 . S
H12 C42 0.929 . S
H13 C45 0.929 . S
H14 C46 0.930 . S
H15 C48 0.929 . S
H16 C49 0.931 . S
H17 C51 0.930 . S
H18 C52 0.932 . S
H19 C54 0.931 . S
H20 C55 0.929 . S
H21 C57 0.929 . S
H22 C58 0.931 . S
H23 C60 0.929 . S
N24 C44 1.433 . S
N24 C50 1.435 . S
N24 C56 1.423 . S
H25 C61 0.932 . S
C26 N1 1.433 . S
C26 C27 1.363 . S
C26 C31 1.370 . S
C27 H0 0.929 . S
C27 C26 1.363 . S
C27 C28 1.385 . S
C28 H2 0.930 . S
C28 C27 1.385 . S
C28 C29 1.357 . S
C29 C28 1.357 . S
C29 C30 1.406 . S
C30 H4 0.929 . S
C30 C29 1.406 . S
C30 C31 1.391 . S
C31 H3 0.931 . S
C31 C26 1.370 . S
C31 C30 1.391 . S
C32 N1 1.435 . S
C32 C33 1.358 . S
C32 C37 1.371 . S
C33 H5 0.930 . S
C33 C32 1.358 . S
C33 C34 1.405 . S
C34 H6 0.932 . S
C34 C33 1.405 . S
C34 C35 1.383 . S
C35 C34 1.383 . S
C35 C36 1.393 . S
C36 H8 0.931 . S
C36 C35 1.393 . S
C36 C37 1.382 . S
C37 H7 0.929 . S
C37 C32 1.371 . S
C37 C36 1.382 . S
C38 N1 1.423 . S
C38 C39 1.362 . S
C38 C43 1.388 . S
C39 H9 0.929 . S
C39 C38 1.362 . S
C39 C40 1.376 . S
C40 H11 0.931 . S
C40 C39 1.376 . S
C40 C41 1.396 . S
C41 C40 1.396 . S
C41 C42 1.348 . S
C41 C59 1.472 . S
C42 H12 0.929 . S
C42 C41 1.348 . S
C42 C43 1.443 . S
C43 H10 0.932 . S
C43 C38 1.388 . S
C43 C42 1.443 . S
C44 N24 1.433 . S
C44 C45 1.363 . S
C44 C49 1.370 . S
C45 H13 0.929 . S
C45 C44 1.363 . S
C45 C46 1.385 . S
C46 H14 0.930 . S
C46 C45 1.385 . S
C46 C47 1.357 . S
C47 C46 1.357 . S
C47 C48 1.406 . S
C48 H15 0.929 . S
C48 C47 1.406 . S
C48 C49 1.391 . S
C49 H16 0.931 . S
C49 C44 1.370 . S
C49 C48 1.391 . S
C50 N24 1.435 . S
C50 C51 1.358 . S
C50 C55 1.371 . S
C51 H17 0.930 . S
C51 C50 1.358 . S
C51 C52 1.405 . S
C52 H18 0.932 . S
C52 C51 1.405 . S
C52 C53 1.383 . S
C53 C52 1.383 . S
C53 C54 1.393 . S
C54 H19 0.931 . S
C54 C53 1.393 . S
C54 C55 1.382 . S
C55 H20 0.929 . S
C55 C50 1.371 . S
C55 C54 1.382 . S
C56 N24 1.423 . S
C56 C57 1.362 . S
C56 C61 1.388 . S
C57 H21 0.929 . S
C57 C56 1.362 . S
C57 C58 1.376 . S
C58 H22 0.931 . S
C58 C57 1.376 . S
C58 C59 1.396 . S
C59 C41 1.472 . S
C59 C58 1.396 . S
C59 C60 1.348 . S
C60 H23 0.929 . S
C60 C59 1.348 . S
C60 C61 1.443 . S
C61 H25 0.932 . S
C61 C56 1.388 . S
C61 C60 1.443 . S
H62 C89 0.929 . S
N63 C88 1.433 . S
N63 C94 1.435 . S
N63 C100 1.423 . S
H64 C90 0.930 . S
H65 C93 0.931 . S
H66 C92 0.929 . S
H67 C95 0.930 . S
H68 C96 0.932 . S
H69 C99 0.929 . S
H70 C98 0.931 . S
H71 C101 0.929 . S
H72 C105 0.932 . S
H73 C102 0.931 . S
H74 C104 0.929 . S
H75 C107 0.929 . S
H76 C108 0.930 . S
H77 C110 0.929 . S
H78 C111 0.931 . S
H79 C113 0.930 . S
H80 C114 0.932 . S
H81 C116 0.931 . S
H82 C117 0.929 . S
H83 C119 0.929 . S
H84 C120 0.931 . S
H85 C122 0.929 . S
N86 C106 1.433 . S
N86 C112 1.435 . S
N86 C118 1.423 . S
H87 C123 0.932 . S
C88 N63 1.433 . S
C88 C89 1.363 . S
C88 C93 1.370 . S
C89 H62 0.929 . S
C89 C88 1.363 . S
C89 C90 1.385 . S
C90 H64 0.930 . S
C90 C89 1.385 . S
C90 C91 1.357 . S
C91 C90 1.357 . S
C91 C92 1.406 . S
C92 H66 0.929 . S
C92 C91 1.406 . S
C92 C93 1.391 . S
C93 H65 0.931 . S
C93 C88 1.370 . S
C93 C92 1.391 . S
C94 N63 1.435 . S
C94 C95 1.358 . S
C94 C99 1.371 1_554 S
C95 H67 0.930 . S
C95 C94 1.358 . S
C95 C96 1.405 1_554 S
C96 H68 0.932 . S
C96 C95 1.405 1_556 S
C96 C97 1.383 . S
C97 C96 1.383 . S
C97 C98 1.393 . S
C98 H70 0.931 . S
C98 C97 1.393 . S
C98 C99 1.382 . S
C99 H69 0.929 . S
C99 C94 1.371 1_556 S
C99 C98 1.382 . S
C100 N63 1.423 . S
C100 C101 1.362 . S
C100 C105 1.388 . S
C101 H71 0.929 . S
C101 C100 1.362 . S
C101 C102 1.376 . S
C102 H73 0.931 . S
C102 C101 1.376 . S
C102 C103 1.396 . S
C103 C102 1.396 . S
C103 C104 1.348 . S
C103 C121 1.472 . S
C104 H74 0.929 . S
C104 C103 1.348 . S
C104 C105 1.443 . S
C105 H72 0.932 . S
C105 C100 1.388 . S
C105 C104 1.443 . S
C106 N86 1.433 . S
C106 C107 1.363 . S
C106 C111 1.370 . S
C107 H75 0.929 . S
C107 C106 1.363 . S
C107 C108 1.385 . S
C108 H76 0.930 . S
C108 C107 1.385 . S
C108 C109 1.357 . S
C109 C108 1.357 . S
C109 C110 1.406 . S
C110 H77 0.929 . S
C110 C109 1.406 . S
C110 C111 1.391 . S
C111 H78 0.931 . S
C111 C106 1.370 . S
C111 C110 1.391 . S
C112 N86 1.435 . S
C112 C113 1.358 . S
C112 C117 1.357 1_554 S
C113 H79 0.930 . S
C113 C112 1.358 . S
C113 C114 1.405 . S
C114 H80 0.932 . S
C114 C113 1.405 . S
C114 C115 1.383 1_554 S
C115 C114 1.383 1_556 S
C115 C116 1.393 . S
C116 H81 0.931 . S
C116 C115 1.393 . S
C116 C117 1.396 . S
C117 H82 0.929 . S
C117 C112 1.357 1_556 S
C117 C116 1.396 . S
C118 N86 1.423 . S
C118 C119 1.362 . S
C118 C123 1.388 . S
C119 H83 0.929 . S
C119 C118 1.362 . S
C119 C120 1.376 . S
C120 H84 0.931 . S
C120 C119 1.376 . S
C120 C121 1.396 . S
C121 C103 1.472 . S
C121 C120 1.396 . S
C121 C122 1.348 . S
C122 H85 0.929 . S
C122 C121 1.348 . S
C122 C123 1.443 . S
C123 H87 0.932 . S
C123 C118 1.388 . S
C123 C122 1.443 . S
H124 C151 0.929 . S
N125 C150 1.433 1_554 S
N125 C156 1.435 . S
N125 C162 1.423 . S
H126 C152 0.930 . S
H127 C155 0.931 . S
H128 C154 0.929 . S
H129 C157 0.930 . S
H130 C158 0.932 . S
H131 C161 0.929 . S
H132 C160 0.931 . S
H133 C163 0.929 1_556 S
H134 C167 0.932 . S
H135 C164 0.931 1_556 S
H136 C166 0.929 . S
H137 C169 0.929 . S
H138 C170 0.930 . S
H139 C172 0.929 . S
H140 C173 0.931 . S
H141 C175 0.930 . S
H142 C176 0.932 . S
H143 C178 0.931 . S
H144 C179 0.929 . S
H145 C181 0.929 1_556 S
H146 C182 0.931 1_556 S
H147 C184 0.929 . S
N148 C168 1.433 1_554 S
N148 C174 1.435 . S
N148 C180 1.423 . S
H149 C185 0.932 . S
C150 N125 1.433 1_556 S
C150 C151 1.363 . S
C150 C155 1.370 . S
C151 H124 0.929 . S
C151 C150 1.363 . S
C151 C152 1.385 . S
C152 H126 0.930 . S
C152 C151 1.385 . S
C152 C153 1.357 . S
C153 C152 1.357 . S
C153 C154 1.406 . S
C154 H128 0.929 . S
C154 C153 1.406 . S
C154 C155 1.391 . S
C155 H127 0.931 . S
C155 C150 1.370 . S
C155 C154 1.391 . S
C156 N125 1.435 . S
C156 C157 1.358 . S
C156 C161 1.371 . S
C157 H129 0.930 . S
C157 C156 1.358 . S
C157 C158 1.405 . S
C158 H130 0.932 . S
C158 C157 1.405 . S
C158 C159 1.383 . S
C159 C158 1.383 . S
C159 C160 1.393 . S
C160 H132 0.931 . S
C160 C159 1.393 . S
C160 C161 1.382 . S
C161 H131 0.929 . S
C161 C156 1.371 . S
C161 C160 1.382 . S
C162 N125 1.423 . S
C162 C163 1.362 . S
C162 C167 1.388 . S
C163 H133 0.929 1_554 S
C163 C162 1.362 . S
C163 C164 1.376 . S
C164 H135 0.931 1_554 S
C164 C163 1.376 . S
C164 C165 1.396 . S
C165 C164 1.396 . S
C165 C166 1.348 . S
C165 C183 1.472 . S
C166 H136 0.929 . S
C166 C165 1.348 . S
C166 C167 1.443 . S
C167 H134 0.932 . S
C167 C162 1.388 . S
C167 C166 1.443 . S
C168 N148 1.433 1_556 S
C168 C169 1.363 . S
C168 C173 1.370 . S
C169 H137 0.929 . S
C169 C168 1.363 . S
C169 C170 1.385 . S
C170 H138 0.930 . S
C170 C169 1.385 . S
C170 C171 1.357 . S
C171 C170 1.357 . S
C171 C172 1.406 . S
C172 H139 0.929 . S
C172 C171 1.406 . S
C172 C173 1.391 . S
C173 H140 0.931 . S
C173 C168 1.370 . S
C173 C172 1.391 . S
C174 N148 1.435 . S
C174 C175 1.358 . S
C174 C179 1.371 . S
C175 H141 0.930 . S
C175 C174 1.358 . S
C175 C176 1.405 . S
C176 H142 0.932 . S
C176 C175 1.405 . S
C176 C177 1.383 . S
C177 C176 1.383 . S
C177 C178 1.393 . S
C178 H143 0.931 . S
C178 C177 1.393 . S
C178 C179 1.382 . S
C179 H144 0.929 . S
C179 C174 1.371 . S
C179 C178 1.382 . S
C180 N148 1.423 . S
C180 C181 1.362 . S
C180 C185 1.388 . S
C181 H145 0.929 1_554 S
C181 C180 1.362 . S
C181 C182 1.376 . S
C182 H146 0.931 1_554 S
C182 C181 1.376 . S
C182 C183 1.396 . S
C183 C165 1.472 . S
C183 C182 1.396 . S
C183 C184 1.348 . S
C184 H147 0.929 . S
C184 C183 1.348 . S
C184 C185 1.443 . S
C185 H149 0.932 . S
C185 C180 1.388 . S
C185 C184 1.443 . S
H186 C213 0.929 . S
N187 C212 1.433 . S
N187 C218 1.435 1_554 S
N187 C224 1.423 . S
H188 C214 0.930 . S
H189 C217 0.931 . S
H190 C216 0.929 . S
H191 C219 0.919 1_554 S
H192 C220 0.932 . S
H193 C223 0.929 . S
H194 C222 0.931 . S
H195 C225 0.929 . S
H196 C229 0.932 . S
H197 C226 0.931 . S
H198 C228 0.929 . S
H199 C231 0.929 . S
H200 C232 0.930 . S
H201 C234 0.929 . S
H202 C235 0.931 . S
H203 C237 0.930 . S
H204 C238 0.932 . S
H205 C240 0.931 . S
H206 C241 0.929 . S
H207 C243 0.929 . S
H208 C244 0.931 . S
H209 C246 0.929 . S
N210 C230 1.433 . S
N210 C236 1.435 1_554 S
N210 C242 1.423 . S
H211 C247 0.932 . S
C212 N187 1.433 . S
C212 C213 1.363 . S
C212 C217 1.370 . S
C213 H186 0.929 . S
C213 C212 1.363 . S
C213 C214 1.385 . S
C214 H188 0.930 . S
C214 C213 1.385 . S
C214 C215 1.357 . S
C215 C214 1.357 . S
C215 C216 1.406 . S
C216 H190 0.929 . S
C216 C215 1.406 . S
C216 C217 1.391 . S
C217 H189 0.931 . S
C217 C212 1.370 . S
C217 C216 1.391 . S
C218 N187 1.435 1_556 S
C218 C219 1.358 . S
C218 C223 1.371 . S
C219 H191 0.919 1_556 S
C219 C218 1.358 . S
C219 C220 1.405 . S
C220 H192 0.932 . S
C220 C219 1.405 . S
C220 C221 1.383 . S
C221 C220 1.383 . S
C221 C222 1.393 . S
C222 H194 0.931 . S
C222 C221 1.393 . S
C222 C223 1.382 . S
C223 H193 0.929 . S
C223 C218 1.371 . S
C223 C222 1.382 . S
C224 N187 1.423 . S
C224 C225 1.362 . S
C224 C229 1.388 1_554 S
C225 H195 0.929 . S
C225 C224 1.362 . S
C225 C226 1.376 . S
C226 H197 0.931 . S
C226 C225 1.376 . S
C226 C227 1.396 . S
C227 C226 1.396 . S
C227 C228 1.348 1_554 S
C227 C245 1.472 . S
C228 H198 0.929 . S
C228 C227 1.348 1_556 S
C228 C229 1.443 . S
C229 H196 0.932 . S
C229 C224 1.388 1_556 S
C229 C228 1.443 . S
C230 N210 1.433 . S
C230 C231 1.363 . S
C230 C235 1.370 . S
C231 H199 0.929 . S
C231 C230 1.363 . S
C231 C232 1.385 . S
C232 H200 0.930 . S
C232 C231 1.385 . S
C232 C233 1.357 . S
C233 C232 1.357 . S
C233 C234 1.406 . S
C234 H201 0.929 . S
C234 C233 1.406 . S
C234 C235 1.391 . S
C235 H202 0.931 . S
C235 C230 1.370 . S
C235 C234 1.391 . S
C236 N210 1.435 1_556 S
C236 C237 1.358 . S
C236 C241 1.371 . S
C237 H203 0.930 . S
C237 C236 1.358 . S
C237 C238 1.405 . S
C238 H204 0.932 . S
C238 C237 1.405 . S
C238 C239 1.383 . S
C239 C238 1.383 . S
C239 C240 1.393 . S
C240 H205 0.931 . S
C240 C239 1.393 . S
C240 C241 1.382 . S
C241 H206 0.929 . S
C241 C236 1.371 . S
C241 C240 1.382 . S
C242 N210 1.423 . S
C242 C243 1.362 . S
C242 C247 1.388 1_554 S
C243 H207 0.929 . S
C243 C242 1.362 . S
C243 C244 1.376 . S
C244 H208 0.931 . S
C244 C243 1.376 . S
C244 C245 1.396 . S
C245 C227 1.472 . S
C245 C244 1.396 . S
C245 C246 1.348 1_554 S
C246 H209 0.929 . S
C246 C245 1.348 1_556 S
C246 C247 1.443 . S
C247 H211 0.932 . S
C247 C242 1.388 1_556 S
C247 C246 1.443 . S
H248 C275 0.929 . S
N249 C274 1.433 . S
N249 C280 1.435 . S
N249 C286 1.423 . S
H250 C276 0.930 . S
H251 C279 0.931 . S
H252 C278 0.929 . S
H253 C281 0.930 . S
H254 C282 0.932 . S
H255 C285 0.929 . S
H256 C284 0.931 . S
H257 C287 0.929 . S
H258 C291 0.932 . S
H259 C288 0.931 . S
H260 C290 0.929 . S
H261 C293 0.929 . S
H262 C294 0.930 . S
H263 C296 0.929 . S
H264 C297 0.931 . S
H265 C299 0.930 . S
H266 C300 0.932 . S
H267 C302 0.931 . S
H268 C303 0.929 . S
H269 C305 0.929 . S
H270 C306 0.931 . S
H271 C308 0.929 . S
N272 C292 1.433 . S
N272 C298 1.435 . S
N272 C304 1.423 . S
H273 C309 0.932 . S
C274 N249 1.433 . S
C274 C275 1.363 . S
C274 C279 1.370 . S
C275 H248 0.929 . S
C275 C274 1.363 . S
C275 C276 1.385 . S
C276 H250 0.930 . S
C276 C275 1.385 . S
C276 C277 1.357 . S
C277 C276 1.357 . S
C277 C278 1.406 . S
C278 H252 0.929 . S
C278 C277 1.406 . S
C278 C279 1.391 . S
C279 H251 0.931 . S
C279 C274 1.370 . S
C279 C278 1.391 . S
C280 N249 1.435 . S
C280 C281 1.358 . S
C280 C285 1.371 1_554 S
C281 H253 0.930 . S
C281 C280 1.358 . S
C281 C282 1.405 . S
C282 H254 0.932 . S
C282 C281 1.405 . S
C282 C283 1.383 1_554 S
C283 C282 1.383 1_556 S
C283 C284 1.393 . S
C284 H256 0.931 . S
C284 C283 1.393 . S
C284 C285 1.382 . S
C285 H255 0.929 . S
C285 C280 1.371 1_556 S
C285 C284 1.382 . S
C286 N249 1.423 . S
C286 C287 1.362 . S
C286 C291 1.388 . S
C287 H257 0.929 . S
C287 C286 1.362 . S
C287 C288 1.376 . S
C288 H259 0.931 . S
C288 C287 1.376 . S
C288 C289 1.396 . S
C289 C288 1.396 . S
C289 C290 1.348 . S
C289 C307 1.472 . S
C290 H260 0.929 . S
C290 C289 1.348 . S
C290 C291 1.443 . S
C291 H258 0.932 . S
C291 C286 1.388 . S
C291 C290 1.443 . S
C292 N272 1.433 . S
C292 C293 1.363 . S
C292 C297 1.370 . S
C293 H261 0.929 . S
C293 C292 1.363 . S
C293 C294 1.385 . S
C294 H262 0.930 . S
C294 C293 1.385 . S
C294 C295 1.357 . S
C295 C294 1.357 . S
C295 C296 1.406 . S
C296 H263 0.929 . S
C296 C295 1.406 . S
C296 C297 1.391 . S
C297 H264 0.931 . S
C297 C292 1.370 . S
C297 C296 1.391 . S
C298 N272 1.435 . S
C298 C299 1.358 . S
C298 C303 1.371 . S
C299 H265 0.930 . S
C299 C298 1.358 . S
C299 C300 1.405 . S
C300 H266 0.932 . S
C300 C299 1.405 . S
C300 C301 1.383 1_554 S
C301 C300 1.383 1_556 S
C301 C302 1.393 . S
C302 H267 0.931 . S
C302 C301 1.393 . S
C302 C303 1.382 1_556 S
C303 H268 0.929 . S
C303 C298 1.371 . S
C303 C302 1.382 1_554 S
C304 N272 1.423 . S
C304 C305 1.362 . S
C304 C309 1.388 . S
C305 H269 0.929 . S
C305 C304 1.362 . S
C305 C306 1.376 . S
C306 H270 0.931 . S
C306 C305 1.376 . S
C306 C307 1.396 . S
C307 C289 1.472 . S
C307 C306 1.396 . S
C307 C308 1.348 . S
C308 H271 0.929 . S
C308 C307 1.348 . S
C308 C309 1.443 . S
C309 H273 0.932 . S
C309 C304 1.388 . S
C309 C308 1.443 . S
H310 C337 0.929 . S
N311 C336 1.433 . S
N311 C342 1.435 . S
N311 C348 1.423 . S
H312 C338 0.930 . S
H313 C341 0.931 . S
H314 C340 0.929 1_556 S
H315 C343 0.930 . S
H316 C344 0.932 . S
H317 C347 0.929 . S
H318 C346 0.931 . S
H319 C349 0.929 . S
H320 C353 0.932 . S
H321 C350 0.931 . S
H322 C352 0.929 . S
H323 C355 0.929 . S
H324 C356 0.930 . S
H325 C358 0.929 1_556 S
H326 C359 0.931 . S
H327 C361 0.930 . S
H328 C362 0.932 . S
H329 C364 0.931 . S
H330 C365 0.929 . S
H331 C367 0.929 . S
H332 C368 0.931 . S
H333 C370 0.929 . S
N334 C354 1.433 . S
N334 C360 1.435 . S
N334 C366 1.423 . S
H335 C371 0.932 . S
C336 N311 1.433 . S
C336 C337 1.363 . S
C336 C341 1.370 . S
C337 H310 0.929 . S
C337 C336 1.363 . S
C337 C338 1.385 . S
C338 H312 0.930 . S
C338 C337 1.385 . S
C338 C339 1.357 . S
C339 C338 1.357 . S
C339 C340 1.406 . S
C340 H314 0.929 1_554 S
C340 C339 1.406 . S
C340 C341 1.391 . S
C341 H313 0.931 . S
C341 C336 1.370 . S
C341 C340 1.391 . S
C342 N311 1.435 . S
C342 C343 1.358 . S
C342 C347 1.371 . S
C343 H315 0.930 . S
C343 C342 1.358 . S
C343 C344 1.405 . S
C344 H316 0.932 . S
C344 C343 1.405 . S
C344 C345 1.383 . S
C345 C344 1.383 . S
C345 C346 1.393 . S
C346 H318 0.931 . S
C346 C345 1.393 . S
C346 C347 1.382 . S
C347 H317 0.929 . S
C347 C342 1.371 . S
C347 C346 1.382 . S
C348 N311 1.423 . S
C348 C349 1.362 . S
C348 C353 1.388 . S
C349 H319 0.929 . S
C349 C348 1.362 . S
C349 C350 1.376 . S
C350 H321 0.931 . S
C350 C349 1.376 . S
C350 C351 1.396 . S
C351 C350 1.396 . S
C351 C352 1.348 . S
C351 C369 1.472 . S
C352 H322 0.929 . S
C352 C351 1.348 . S
C352 C353 1.443 . S
C353 H320 0.932 . S
C353 C348 1.388 . S
C353 C352 1.443 . S
C354 N334 1.433 . S
C354 C355 1.363 . S
C354 C359 1.370 . S
C355 H323 0.929 . S
C355 C354 1.363 . S
C355 C356 1.385 . S
C356 H324 0.930 . S
C356 C355 1.385 . S
C356 C357 1.357 1_554 S
C357 C356 1.357 1_556 S
C357 C358 1.406 1_556 S
C358 H325 0.929 1_554 S
C358 C357 1.406 1_554 S
C358 C359 1.391 . S
C359 H326 0.931 . S
C359 C354 1.370 . S
C359 C358 1.391 . S
C360 N334 1.435 . S
C360 C361 1.358 . S
C360 C365 1.371 . S
C361 H327 0.930 . S
C361 C360 1.358 . S
C361 C362 1.405 . S
C362 H328 0.932 . S
C362 C361 1.405 . S
C362 C363 1.383 . S
C363 C362 1.383 . S
C363 C364 1.393 . S
C364 H329 0.931 . S
C364 C363 1.393 . S
C364 C365 1.382 . S
C365 H330 0.929 . S
C365 C360 1.371 . S
C365 C364 1.382 . S
C366 N334 1.423 . S
C366 C367 1.362 . S
C366 C371 1.388 . S
C367 H331 0.929 . S
C367 C366 1.362 . S
C367 C368 1.376 . S
C368 H332 0.931 . S
C368 C367 1.376 . S
C368 C369 1.396 . S
C369 C351 1.472 . S
C369 C368 1.396 . S
C369 C370 1.348 . S
C370 H333 0.929 . S
C370 C369 1.348 . S
C370 C371 1.443 . S
C371 H335 0.932 . S
C371 C366 1.388 . S
C371 C370 1.443 . S
C372 O399 1.312 . S
C372 O400 1.208 . S
C373 O394 1.331 . S
C373 O397 1.244 . S
C374 O396 1.264 . S
C374 O398 1.273 . S
Mg375 O377 1.930 1_455 S
Mg375 O384 2.081 1_455 S
Mg375 O386 2.023 . S
Mg375 O390 2.031 1_455 S
Mg375 O399 2.291 . S
Mg376 O377 1.976 1_455 S
Mg376 O387 1.935 1_455 S
Mg376 O388 1.965 . S
Mg376 O395 1.979 1_455 S
O377 Mg375 1.930 1_655 S
O377 Mg376 1.976 1_655 S
O377 Mg378 1.909 1_655 S
Mg378 O377 1.909 1_455 S
Mg378 O379 1.915 . S
Mg378 O383 2.013 . S
Mg378 O389 2.114 1_455 S
Mg378 O393 2.013 1_455 S
Mg378 O399 2.114 . S
O379 Mg378 1.915 . S
O379 Mg380 1.936 . S
O379 Mg381 1.963 . S
Mg380 O379 1.936 . S
Mg380 O389 2.291 1_455 S
Mg380 O394 2.081 . S
Mg380 O396 2.023 1_455 S
Mg380 O400 2.031 . S
Mg381 O379 1.963 . S
Mg381 O385 1.986 . S
Mg381 O397 1.942 . S
Mg381 O398 1.955 1_455 S
C382 O393 1.191 . S
C382 O395 1.307 . S
O383 Mg378 2.013 . S
O383 C402 1.191 . S
O384 Mg375 2.081 1_655 S
O384 C392 1.331 . S
O385 Mg381 1.986 . S
O385 C402 1.307 . S
O386 Mg375 2.023 . S
O386 C401 1.264 . S
O387 Mg376 1.935 1_655 S
O387 C392 1.244 . S
O388 Mg376 1.965 . S
O388 C401 1.273 . S
O389 Mg378 2.114 1_655 S
O389 Mg380 2.291 1_655 S
O389 C391 1.312 . S
O390 Mg375 2.031 1_655 S
O390 C391 1.208 . S
C391 O389 1.312 . S
C391 O390 1.208 . S
C392 O384 1.331 . S
C392 O387 1.244 . S
O393 Mg378 2.013 1_655 S
O393 C382 1.191 . S
O394 C373 1.331 . S
O394 Mg380 2.081 . S
O395 Mg376 1.979 1_655 S
O395 C382 1.307 . S
O396 C374 1.264 . S
O396 Mg380 2.023 1_655 S
O397 C373 1.244 . S
O397 Mg381 1.942 . S
O398 C374 1.273 . S
O398 Mg381 1.955 1_655 S
O399 C372 1.312 . S
O399 Mg375 2.291 . S
O399 Mg378 2.114 . S
O400 C372 1.208 . S
O400 Mg380 2.031 . S
C401 O386 1.264 . S
C401 O388 1.273 . S
C402 O383 1.191 . S
C402 O385 1.307 . S
C403 O430 1.312 . S
C403 O431 1.208 . S
C404 O425 1.331 . S
C404 O428 1.244 . S
C405 O427 1.264 . S
C405 O429 1.273 . S
Mg406 O408 1.936 1_545 S
Mg406 O415 2.081 1_545 S
Mg406 O417 2.023 . S
Mg406 O421 2.031 1_545 S
Mg406 O430 2.291 . S
Mg407 O408 1.955 . S
Mg407 O418 1.952 . S
Mg407 O419 1.897 1_565 S
Mg407 O426 2.039 . S
O408 Mg406 1.936 1_565 S
O408 Mg407 1.955 . S
O408 Mg409 1.915 1_565 S
Mg409 O408 1.915 1_545 S
Mg409 O410 1.915 . S
Mg409 O414 2.013 . S
Mg409 O420 2.114 1_545 S
Mg409 O424 2.013 1_545 S
Mg409 O430 2.114 . S
O410 Mg409 1.915 . S
O410 Mg411 1.936 . S
O410 Mg412 1.963 . S
Mg411 O410 1.936 . S
Mg411 O420 2.291 1_545 S
Mg411 O425 2.081 . S
Mg411 O427 2.023 1_545 S
Mg411 O431 2.031 . S
Mg412 O410 1.963 . S
Mg412 O416 1.986 . S
Mg412 O428 1.942 . S
Mg412 O429 1.955 1_545 S
C413 O424 1.191 . S
C413 O426 1.307 . S
O414 Mg409 2.013 . S
O414 C433 1.191 . S
O415 Mg406 2.081 1_565 S
O415 C423 1.331 . S
O416 Mg412 1.986 . S
O416 C433 1.307 . S
O417 Mg406 2.023 . S
O417 C432 1.264 . S
O418 Mg407 1.952 . S
O418 C423 1.244 . S
O419 Mg407 1.897 1_545 S
O419 C432 1.273 . S
O420 Mg409 2.114 1_565 S
O420 Mg411 2.291 1_565 S
O420 C422 1.312 . S
O421 Mg406 2.031 1_565 S
O421 C422 1.208 . S
C422 O420 1.312 . S
C422 O421 1.208 . S
C423 O415 1.331 . S
C423 O418 1.244 . S
O424 Mg409 2.013 1_565 S
O424 C413 1.191 . S
O425 C404 1.331 . S
O425 Mg411 2.081 . S
O426 Mg407 2.039 . S
O426 C413 1.307 . S
O427 C405 1.264 . S
O427 Mg411 2.023 1_565 S
O428 C404 1.244 . S
O428 Mg412 1.942 . S
O429 C405 1.273 . S
O429 Mg412 1.955 1_565 S
O430 C403 1.312 . S
O430 Mg406 2.291 . S
O430 Mg409 2.114 . S
O431 C403 1.208 . S
O431 Mg411 2.031 . S
C432 O417 1.264 . S
C432 O419 1.273 . S
C433 O414 1.191 . S
C433 O416 1.307 . S
C434 O461 1.312 . S
C434 O462 1.208 . S
C435 O456 1.331 . S
C435 O459 1.244 . S
C436 O458 1.264 . S
C436 O460 1.273 . S
Mg437 O439 1.936 . S
Mg437 O446 2.081 . S
Mg437 O448 2.023 . S
Mg437 O452 2.031 . S
Mg437 O461 2.291 . S
Mg438 O439 1.963 . S
Mg438 O449 1.942 . S
Mg438 O450 1.955 . S
Mg438 O457 1.986 . S
O439 Mg437 1.936 . S
O439 Mg438 1.963 . S
O439 Mg440 1.915 . S
Mg440 O439 1.915 . S
Mg440 O441 1.915 . S
Mg440 O445 2.013 . S
Mg440 O451 2.114 . S
Mg440 O455 2.013 . S
Mg440 O461 2.114 . S
O441 Mg440 1.915 . S
O441 Mg442 1.936 . S
O441 Mg443 1.963 . S
Mg442 O441 1.936 . S
Mg442 O451 2.291 . S
Mg442 O456 2.081 . S
Mg442 O458 2.023 . S
Mg442 O462 2.031 . S
Mg443 O441 1.963 . S
Mg443 O447 1.986 . S
Mg443 O459 1.942 . S
Mg443 O460 1.955 . S
C444 O455 1.191 . S
C444 O457 1.307 . S
O445 Mg440 2.013 . S
O445 C464 1.191 . S
O446 Mg437 2.081 . S
O446 C454 1.331 . S
O447 Mg443 1.986 . S
O447 C464 1.307 . S
O448 Mg437 2.023 . S
O448 C463 1.264 . S
O449 Mg438 1.942 . S
O449 C454 1.244 . S
O450 Mg438 1.955 . S
O450 C463 1.273 . S
O451 Mg440 2.114 . S
O451 Mg442 2.291 . S
O451 C453 1.312 . S
O452 Mg437 2.031 . S
O452 C453 1.208 . S
C453 O451 1.312 . S
C453 O452 1.208 . S
C454 O446 1.331 . S
C454 O449 1.244 . S
O455 Mg440 2.013 . S
O455 C444 1.191 . S
O456 C435 1.331 . S
O456 Mg442 2.081 . S
O457 Mg438 1.986 . S
O457 C444 1.307 . S
O458 C436 1.264 . S
O458 Mg442 2.023 . S
O459 C435 1.244 . S
O459 Mg443 1.942 . S
O460 C436 1.273 . S
O460 Mg443 1.955 . S
O461 C434 1.312 . S
O461 Mg437 2.291 . S
O461 Mg440 2.114 . S
O462 C434 1.208 . S
O462 Mg442 2.031 . S
C463 O448 1.264 . S
C463 O450 1.273 . S
C464 O445 1.191 . S
C464 O447 1.307 . S
H465 C471 0.930 . S
H466 C475 0.930 . S
H467 C480 0.929 . S
H468 C478 0.929 . S
H469 C473 0.929 . S
H470 C479 0.929 . S
C471 H465 0.930 . S
C471 C472 1.367 . S
C471 C479 1.378 . S
C472 C471 1.367 . S
C472 C480 1.433 . S
C473 H469 0.929 . S
C473 C475 1.378 . S
C473 C477 1.350 . S
C474 C477 1.463 . S
C474 C479 1.350 . S
C474 N482 1.427 . S
C475 H466 0.930 . S
C475 C473 1.378 . S
C475 C476 1.367 . S
C476 C475 1.367 . S
C476 C478 1.433 . S
C477 C473 1.350 . S
C477 C474 1.463 . S
C477 N481 1.427 . S
C478 H468 0.929 . S
C478 C476 1.433 . S
C478 N481 1.384 . S
C479 H470 0.929 . S
C479 C471 1.378 . S
C479 C474 1.350 . S
C480 H467 0.929 . S
C480 C472 1.433 . S
C480 N482 1.384 . S
N481 C477 1.427 . S
N481 C478 1.384 . S
N482 C474 1.427 . S
N482 C480 1.384 . S
H483 C489 0.930 . S
H484 C493 0.930 . S
H485 C498 0.929 . S
H486 C496 0.929 . S
H487 C491 0.929 . S
H488 C497 0.929 . S
C489 H483 0.930 . S
C489 C490 1.367 . S
C489 C497 1.378 . S
C490 C489 1.367 . S
C490 C498 1.433 . S
C491 H487 0.929 . S
C491 C493 1.378 . S
C491 C495 1.350 . S
C492 C495 1.463 . S
C492 C497 1.350 . S
C492 N500 1.427 . S
C493 H484 0.930 . S
C493 C491 1.378 . S
C493 C494 1.367 . S
C494 C493 1.367 . S
C494 C496 1.433 . S
C495 C491 1.350 . S
C495 C492 1.463 . S
C495 N499 1.427 . S
C496 H486 0.929 . S
C496 C494 1.433 . S
C496 N499 1.384 . S
C497 H488 0.929 . S
C497 C489 1.378 . S
C497 C492 1.350 . S
C498 H485 0.929 . S
C498 C490 1.433 . S
C498 N500 1.384 . S
N499 C495 1.427 . S
N499 C496 1.384 . S
N500 C492 1.427 . S
N500 C498 1.384 . S
H501 C507 0.930 . S
H502 C511 0.930 . S
H503 C516 0.929 . S
H504 C514 0.929 . S
H505 C509 0.929 . S
H506 C515 0.929 . S
C507 H501 0.930 . S
C507 C508 1.367 . S
C507 C515 1.378 . S
C508 C507 1.367 . S
C508 C516 1.433 . S
C509 H505 0.929 . S
C509 C511 1.378 . S
C509 C513 1.350 . S
C510 C513 1.463 . S
C510 C515 1.350 . S
C510 N518 1.427 . S
C511 H502 0.930 . S
C511 C509 1.378 . S
C511 C512 1.367 . S
C512 C511 1.367 . S
C512 C514 1.433 . S
C513 C509 1.350 . S
C513 C510 1.463 . S
C513 N517 1.427 . S
C514 H504 0.929 . S
C514 C512 1.433 . S
C514 N517 1.384 . S
C515 H506 0.929 . S
C515 C507 1.378 . S
C515 C510 1.350 . S
C516 H503 0.929 . S
C516 C508 1.433 . S
C516 N518 1.384 . S
N517 C513 1.427 . S
N517 C514 1.384 . S
N518 C510 1.427 . S
N518 C516 1.384 . S
H519 C525 0.930 . S
H520 C529 0.930 . S
H521 C534 0.929 . S
H522 C532 0.929 . S
H523 C527 0.929 . S
H524 C533 0.929 . S
C525 H519 0.930 . S
C525 C526 1.367 . S
C525 C533 1.378 . S
C526 C525 1.367 . S
C526 C534 1.433 . S
C527 H523 0.929 . S
C527 C529 1.378 . S
C527 C531 1.350 . S
C528 C531 1.463 . S
C528 C533 1.350 . S
C528 N536 1.427 . S
C529 H520 0.930 . S
C529 C527 1.378 . S
C529 C530 1.367 . S
C530 C529 1.367 . S
C530 C532 1.433 . S
C531 C527 1.350 . S
C531 C528 1.463 . S
C531 N535 1.427 . S
C532 H522 0.929 . S
C532 C530 1.433 . S
C532 N535 1.384 . S
C533 H524 0.929 . S
C533 C525 1.378 . S
C533 C528 1.350 . S
C534 H521 0.929 . S
C534 C526 1.433 . S
C534 N536 1.384 . S
N535 C531 1.427 . S
N535 C532 1.384 . S
N536 C528 1.427 . S
N536 C534 1.384 . S
H537 C543 0.930 . S
H538 C547 0.930 . S
H539 C552 0.929 . S
H540 C550 0.929 . S
H541 C545 0.929 . S
H542 C551 0.929 . S
C543 H537 0.930 . S
C543 C544 1.367 . S
C543 C551 1.378 . S
C544 C543 1.367 . S
C544 C552 1.433 . S
C545 H541 0.929 . S
C545 C547 1.378 . S
C545 C549 1.350 . S
C546 C549 1.463 . S
C546 C551 1.350 . S
C546 N554 1.427 . S
C547 H538 0.930 . S
C547 C545 1.378 . S
C547 C548 1.367 . S
C548 C547 1.367 . S
C548 C550 1.433 . S
C549 C545 1.350 . S
C549 C546 1.463 . S
C549 N553 1.427 . S
C550 H540 0.929 . S
C550 C548 1.433 . S
C550 N553 1.384 . S
C551 H542 0.929 . S
C551 C543 1.378 . S
C551 C546 1.350 . S
C552 H539 0.929 . S
C552 C544 1.433 . S
C552 N554 1.384 . S
N553 C549 1.427 . S
N553 C550 1.384 . S
N554 C546 1.427 . S
N554 C552 1.384 . S
H555 C561 0.930 . S
H556 C565 0.930 . S
H557 C570 0.929 . S
H558 C568 0.929 . S
H559 C563 0.929 . S
H560 C569 0.929 . S
C561 H555 0.930 . S
C561 C562 1.367 . S
C561 C569 1.378 . S
C562 C561 1.367 . S
C562 C570 1.433 . S
C563 H559 0.929 . S
C563 C565 1.378 . S
C563 C567 1.350 . S
C564 C567 1.463 . S
C564 C569 1.350 . S
C564 N572 1.427 . S
C565 H556 0.930 . S
C565 C563 1.378 . S
C565 C566 1.367 . S
C566 C565 1.367 . S
C566 C568 1.433 . S
C567 C563 1.350 . S
C567 C564 1.463 . S
C567 N571 1.427 . S
C568 H558 0.929 . S
C568 C566 1.433 . S
C568 N571 1.384 . S
C569 H560 0.929 . S
C569 C561 1.378 . S
C569 C564 1.350 . S
C570 H557 0.929 . S
C570 C562 1.433 . S
C570 N572 1.384 . S
N571 C567 1.427 . S
N571 C568 1.384 . S
N572 C564 1.427 . S
N572 C570 1.384 . S
H573 C579 0.930 . S
H574 C583 0.930 . S
H575 C588 0.929 . S
H576 C586 0.929 . S
H577 C581 0.929 . S
H578 C587 0.929 . S
C579 H573 0.930 . S
C579 C580 1.367 . S
C579 C587 1.378 . S
C580 C579 1.367 . S
C580 C588 1.433 . S
C581 H577 0.929 . S
C581 C583 1.378 . S
C581 C585 1.350 . S
C582 C585 1.463 . S
C582 C587 1.350 . S
C582 N590 1.427 . S
C583 H574 0.930 . S
C583 C581 1.378 . S
C583 C584 1.367 . S
C584 C583 1.367 . S
C584 C586 1.433 . S
C585 C581 1.350 . S
C585 C582 1.463 . S
C585 N589 1.427 . S
C586 H576 0.929 . S
C586 C584 1.433 . S
C586 N589 1.384 . S
C587 H578 0.929 . S
C587 C579 1.378 . S
C587 C582 1.350 . S
C588 H575 0.929 . S
C588 C580 1.433 . S
C588 N590 1.384 . S
N589 C585 1.427 . S
N589 C586 1.384 . S
N590 C582 1.427 . S
N590 C588 1.384 . S
H591 C597 0.930 . S
H592 C601 0.930 . S
H593 C606 0.929 . S
H594 C604 0.929 . S
H595 C599 0.929 . S
H596 C605 0.929 . S
C597 H591 0.930 . S
C597 C598 1.367 . S
C597 C605 1.378 . S
C598 C597 1.367 . S
C598 C606 1.433 . S
C599 H595 0.929 . S
C599 C601 1.378 . S
C599 C603 1.350 . S
C600 C603 1.463 . S
C600 C605 1.350 . S
C600 N608 1.427 . S
C601 H592 0.930 . S
C601 C599 1.378 . S
C601 C602 1.367 . S
C602 C601 1.367 . S
C602 C604 1.433 . S
C603 C599 1.350 . S
C603 C600 1.463 . S
C603 N607 1.427 . S
C604 H594 0.929 . S
C604 C602 1.433 . S
C604 N607 1.384 . S
C605 H596 0.929 . S
C605 C597 1.378 . S
C605 C600 1.350 . S
C606 H593 0.929 . S
C606 C598 1.433 . S
C606 N608 1.384 . S
N607 C603 1.427 . S
N607 C604 1.384 . S
N608 C600 1.427 . S
N608 C606 1.384 . S
H609 C615 0.930 . S
H610 C619 0.930 . S
H611 C624 0.929 . S
H612 C622 0.929 . S
H613 C617 0.929 . S
H614 C623 0.929 . S
C615 H609 0.930 . S
C615 C616 1.367 . S
C615 C623 1.378 . S
C616 C615 1.367 . S
C616 C624 1.433 . S
C617 H613 0.929 . S
C617 C619 1.378 . S
C617 C621 1.350 . S
C618 C621 1.463 . S
C618 C623 1.350 . S
C618 N626 1.427 . S
C619 H610 0.930 . S
C619 C617 1.378 . S
C619 C620 1.367 . S
C620 C619 1.367 . S
C620 C622 1.433 . S
C621 C617 1.350 . S
C621 C618 1.463 . S
C621 N625 1.427 . S
C622 H612 0.929 . S
C622 C620 1.433 . S
C622 N625 1.384 . S
C623 H614 0.929 . S
C623 C615 1.378 . S
C623 C618 1.350 . S
C624 H611 0.929 . S
C624 C616 1.433 . S
C624 N626 1.384 . S
N625 C621 1.427 . S
N625 C622 1.384 . S
N626 C618 1.427 . S
N626 C624 1.384 . S
H627 C633 0.930 . S
H628 C637 0.930 . S
H629 C642 0.929 1_554 S
H630 C640 0.929 . S
H631 C635 0.929 . S
H632 C641 0.929 . S
C633 H627 0.930 . S
C633 C634 1.367 . S
C633 C641 1.378 . S
C634 C633 1.367 . S
C634 C642 1.433 . S
C635 H631 0.929 . S
C635 C637 1.378 . S
C635 C639 1.350 . S
C636 C639 1.463 . S
C636 C641 1.350 . S
C636 N644 1.427 . S
C637 H628 0.930 . S
C637 C635 1.378 . S
C637 C638 1.367 . S
C638 C637 1.367 . S
C638 C640 1.433 . S
C639 C635 1.350 . S
C639 C636 1.463 . S
C639 N643 1.427 . S
C640 H630 0.929 . S
C640 C638 1.433 . S
C640 N643 1.384 . S
C641 H632 0.929 . S
C641 C633 1.378 . S
C641 C636 1.350 . S
C642 H629 0.929 1_556 S
C642 C634 1.433 . S
C642 N644 1.384 . S
N643 C639 1.427 . S
N643 C640 1.384 . S
N644 C636 1.427 . S
N644 C642 1.384 . S
H645 C651 0.930 . S
H646 C655 0.930 . S
H647 C660 0.929 1_554 S
H648 C658 0.929 . S
H649 C653 0.929 . S
H650 C659 0.929 . S
C651 H645 0.930 . S
C651 C652 1.367 . S
C651 C659 1.378 . S
C652 C651 1.367 . S
C652 C660 1.433 . S
C653 H649 0.929 . S
C653 C655 1.378 . S
C653 C657 1.350 . S
C654 C657 1.463 . S
C654 C659 1.350 . S
C654 N662 1.427 . S
C655 H646 0.930 . S
C655 C653 1.378 . S
C655 C656 1.367 . S
C656 C655 1.367 . S
C656 C658 1.433 . S
C657 C653 1.350 . S
C657 C654 1.463 . S
C657 N661 1.427 . S
C658 H648 0.929 . S
C658 C656 1.433 . S
C658 N661 1.384 . S
C659 H650 0.929 . S
C659 C651 1.378 . S
C659 C654 1.350 . S
C660 H647 0.929 1_556 S
C660 C652 1.433 . S
C660 N662 1.384 . S
N661 C657 1.427 . S
N661 C658 1.384 . S
N662 C654 1.427 . S
N662 C660 1.384 . S
H663 C669 0.930 . S
H664 C673 0.930 . S
H665 C678 0.929 . S
H666 C676 0.929 . S
H667 C671 0.929 . S
H668 C677 0.929 . S
C669 H663 0.930 . S
C669 C670 1.367 . S
C669 C677 1.378 . S
C670 C669 1.367 . S
C670 C678 1.433 . S
C671 H667 0.929 . S
C671 C673 1.378 . S
C671 C675 1.350 . S
C672 C675 1.463 . S
C672 C677 1.350 . S
C672 N680 1.427 . S
C673 H664 0.930 . S
C673 C671 1.378 . S
C673 C674 1.367 . S
C674 C673 1.367 . S
C674 C676 1.433 . S
C675 C671 1.350 . S
C675 C672 1.463 . S
C675 N679 1.427 . S
C676 H666 0.929 . S
C676 C674 1.433 . S
C676 N679 1.384 . S
C677 H668 0.929 . S
C677 C669 1.378 . S
C677 C672 1.350 . S
C678 H665 0.929 . S
C678 C670 1.433 . S
C678 N680 1.384 . S
N679 C675 1.427 . S
N679 C676 1.384 . S
N680 C672 1.427 . S
N680 C678 1.384 . S
H681 C687 0.930 . S
H682 C691 0.930 . S
H683 C696 0.929 . S
H684 C694 0.929 . S
H685 C689 0.929 . S
H686 C695 0.929 . S
C687 H681 0.930 . S
C687 C688 1.367 . S
C687 C695 1.378 . S
C688 C687 1.367 . S
C688 C696 1.433 . S
C689 H685 0.929 . S
C689 C691 1.378 . S
C689 C693 1.350 . S
C690 C693 1.463 . S
C690 C695 1.350 . S
C690 N698 1.427 . S
C691 H682 0.930 . S
C691 C689 1.378 . S
C691 C692 1.367 . S
C692 C691 1.367 . S
C692 C694 1.433 . S
C693 C689 1.350 . S
C693 C690 1.463 . S
C693 N697 1.427 . S
C694 H684 0.929 . S
C694 C692 1.433 . S
C694 N697 1.384 . S
C695 H686 0.929 . S
C695 C687 1.378 . S
C695 C690 1.350 . S
C696 H683 0.929 . S
C696 C688 1.433 . S
C696 N698 1.384 . S
N697 C693 1.427 . S
N697 C694 1.384 . S
N698 C690 1.427 . S
N698 C696 1.384 . S
H699 C705 0.930 . S
H700 C709 0.930 . S
H701 C714 0.929 . S
H702 C712 0.929 . S
H703 C707 0.929 . S
H704 C713 0.929 . S
C705 H699 0.930 . S
C705 C706 1.367 . S
C705 C713 1.378 . S
C706 C705 1.367 . S
C706 C714 1.433 . S
C707 H703 0.929 . S
C707 C709 1.378 . S
C707 C711 1.350 . S
C708 C711 1.463 . S
C708 C713 1.350 . S
C708 N716 1.427 . S
C709 H700 0.930 . S
C709 C707 1.378 . S
C709 C710 1.367 . S
C710 C709 1.367 . S
C710 C712 1.433 . S
C711 C707 1.350 . S
C711 C708 1.463 . S
C711 N715 1.427 . S
C712 H702 0.929 . S
C712 C710 1.433 . S
C712 N715 1.384 . S
C713 H704 0.929 . S
C713 C705 1.378 . S
C713 C708 1.350 . S
C714 H701 0.929 . S
C714 C706 1.433 . S
C714 N716 1.384 . S
N715 C711 1.427 . S
N715 C712 1.384 . S
N716 C708 1.427 . S
N716 C714 1.384 . S
H717 C723 0.930 . S
H718 C727 0.930 . S
H719 C732 0.929 . S
H720 C730 0.929 . S
H721 C725 0.929 . S
H722 C731 0.929 . S
C723 H717 0.930 . S
C723 C724 1.367 . S
C723 C731 1.378 . S
C724 C723 1.367 . S
C724 C732 1.433 . S
C725 H721 0.929 . S
C725 C727 1.378 . S
C725 C729 1.350 . S
C726 C729 1.463 . S
C726 C731 1.350 . S
C726 N734 1.427 . S
C727 H718 0.930 . S
C727 C725 1.378 . S
C727 C728 1.367 . S
C728 C727 1.367 . S
C728 C730 1.433 . S
C729 C725 1.350 . S
C729 C726 1.463 . S
C729 N733 1.427 . S
C730 H720 0.929 . S
C730 C728 1.433 . S
C730 N733 1.384 . S
C731 H722 0.929 . S
C731 C723 1.378 . S
C731 C726 1.350 . S
C732 H719 0.929 . S
C732 C724 1.433 . S
C732 N734 1.384 . S
N733 C729 1.427 . S
N733 C730 1.384 . S
N734 C726 1.427 . S
N734 C732 1.384 . S
H735 C741 0.930 1_554 S
H736 C745 0.930 . S
H737 C750 0.929 . S
H738 C748 0.929 . S
H739 C743 0.929 . S
H740 C749 0.929 . S
C741 H735 0.930 1_556 S
C741 C742 1.367 . S
C741 C749 1.378 . S
C742 C741 1.367 . S
C742 C750 1.433 . S
C743 H739 0.929 . S
C743 C745 1.378 . S
C743 C747 1.350 . S
C744 C747 1.463 . S
C744 C749 1.350 . S
C744 N752 1.427 . S
C745 H736 0.930 . S
C745 C743 1.378 . S
C745 C746 1.367 . S
C746 C745 1.367 . S
C746 C748 1.433 . S
C747 C743 1.350 . S
C747 C744 1.463 . S
C747 N751 1.427 . S
C748 H738 0.929 . S
C748 C746 1.433 . S
C748 N751 1.384 . S
C749 H740 0.929 . S
C749 C741 1.378 . S
C749 C744 1.350 . S
C750 H737 0.929 . S
C750 C742 1.433 . S
C750 N752 1.384 . S
N751 C747 1.427 . S
N751 C748 1.384 . S
N752 C744 1.427 . S
N752 C750 1.384 . S
H753 C759 0.930 . S
H754 C763 0.930 . S
H755 C768 0.929 . S
H756 C766 0.929 . S
H757 C761 0.929 . S
H758 C767 0.929 . S
C759 H753 0.930 . S
C759 C760 1.367 . S
C759 C767 1.378 . S
C760 C759 1.367 . S
C760 C768 1.433 . S
C761 H757 0.929 . S
C761 C763 1.378 . S
C761 C765 1.350 . S
C762 C765 1.463 . S
C762 C767 1.350 . S
C762 N770 1.427 . S
C763 H754 0.930 . S
C763 C761 1.378 . S
C763 C764 1.367 . S
C764 C763 1.367 . S
C764 C766 1.433 . S
C765 C761 1.350 . S
C765 C762 1.463 . S
C765 N769 1.427 . S
C766 H756 0.929 . S
C766 C764 1.433 . S
C766 N769 1.384 . S
C767 H758 0.929 . S
C767 C759 1.378 . S
C767 C762 1.350 . S
C768 H755 0.929 . S
C768 C760 1.433 . S
C768 N770 1.384 . S
N769 C765 1.427 . S
N769 C766 1.384 . S
N770 C762 1.427 . S
N770 C768 1.384 . S
H771 C777 0.930 . S
H772 C781 0.930 . S
H773 C786 0.929 . S
H774 C784 0.929 . S
H775 C779 0.929 . S
H776 C785 0.929 . S
C777 H771 0.930 . S
C777 C778 1.367 . S
C777 C785 1.378 . S
C778 C777 1.367 . S
C778 C786 1.433 . S
C779 H775 0.929 . S
C779 C781 1.378 . S
C779 C783 1.350 . S
C780 C783 1.463 . S
C780 C785 1.350 . S
C780 N788 1.427 . S
C781 H772 0.930 . S
C781 C779 1.378 . S
C781 C782 1.367 . S
C782 C781 1.367 . S
C782 C784 1.433 . S
C783 C779 1.350 . S
C783 C780 1.463 . S
C783 N787 1.427 . S
C784 H774 0.929 . S
C784 C782 1.433 . S
C784 N787 1.384 . S
C785 H776 0.929 . S
C785 C777 1.378 . S
C785 C780 1.350 . S
C786 H773 0.929 . S
C786 C778 1.433 . S
C786 N788 1.384 . S
N787 C783 1.427 . S
N787 C784 1.384 . S
N788 C780 1.427 . S
N788 C786 1.384 . S
H789 C795 0.930 . S
H790 C799 0.930 . S
H791 C804 0.929 . S
H792 C802 0.929 . S
H793 C797 0.929 . S
H794 C803 0.929 . S
C795 H789 0.930 . S
C795 C796 1.367 . S
C795 C803 1.378 . S
C796 C795 1.367 . S
C796 C804 1.433 . S
C797 H793 0.929 . S
C797 C799 1.378 . S
C797 C801 1.350 . S
C798 C801 1.463 . S
C798 C803 1.350 . S
C798 N806 1.427 . S
C799 H790 0.930 . S
C799 C797 1.378 . S
C799 C800 1.367 . S
C800 C799 1.367 . S
C800 C802 1.433 . S
C801 C797 1.350 . S
C801 C798 1.463 . S
C801 N805 1.427 . S
C802 H792 0.929 . S
C802 C800 1.433 . S
C802 N805 1.384 . S
C803 H794 0.929 . S
C803 C795 1.378 . S
C803 C798 1.350 . S
C804 H791 0.929 . S
C804 C796 1.433 . S
C804 N806 1.384 . S
N805 C801 1.427 . S
N805 C802 1.384 . S
N806 C798 1.427 . S
N806 C804 1.384 . S
H807 C813 0.930 . S
H808 C817 0.930 . S
H809 C822 0.929 . S
H810 C820 0.929 . S
H811 C815 0.929 . S
H812 C821 0.929 . S
C813 H807 0.930 . S
C813 C814 1.367 . S
C813 C821 1.378 . S
C814 C813 1.367 . S
C814 C822 1.433 . S
C815 H811 0.929 . S
C815 C817 1.378 . S
C815 C819 1.350 . S
C816 C819 1.463 . S
C816 C821 1.350 . S
C816 N824 1.427 . S
C817 H808 0.930 . S
C817 C815 1.378 . S
C817 C818 1.367 . S
C818 C817 1.367 . S
C818 C820 1.433 . S
C819 C815 1.350 . S
C819 C816 1.463 . S
C819 N823 1.427 . S
C820 H810 0.929 . S
C820 C818 1.433 . S
C820 N823 1.384 . S
C821 H812 0.929 . S
C821 C813 1.378 . S
C821 C816 1.350 . S
C822 H809 0.929 . S
C822 C814 1.433 . S
C822 N824 1.384 . S
N823 C819 1.427 . S
N823 C820 1.384 . S
N824 C816 1.427 . S
N824 C822 1.384 . S
H825 C831 0.930 . S
H826 C835 0.930 . S
H827 C840 0.929 . S
H828 C838 0.929 . S
H829 C833 0.929 . S
H830 C839 0.929 . S
C831 H825 0.930 . S
C831 C832 1.367 . S
C831 C839 1.378 . S
C832 C831 1.367 . S
C832 C840 1.433 . S
C833 H829 0.929 . S
C833 C835 1.378 . S
C833 C837 1.350 . S
C834 C837 1.463 . S
C834 C839 1.350 . S
C834 N842 1.427 . S
C835 H826 0.930 . S
C835 C833 1.378 . S
C835 C836 1.367 . S
C836 C835 1.367 . S
C836 C838 1.433 . S
C837 C833 1.350 . S
C837 C834 1.463 . S
C837 N841 1.427 . S
C838 H828 0.929 . S
C838 C836 1.433 . S
C838 N841 1.384 . S
C839 H830 0.929 . S
C839 C831 1.378 . S
C839 C834 1.350 . S
C840 H827 0.929 . S
C840 C832 1.433 . S
C840 N842 1.384 . S
N841 C837 1.427 . S
N841 C838 1.384 . S
N842 C834 1.427 . S
N842 C840 1.384 . S
H843 C849 0.930 . S
H844 C853 0.930 . S
H845 C858 0.929 . S
H846 C856 0.929 . S
H847 C851 0.929 . S
H848 C857 0.929 . S
C849 H843 0.930 . S
C849 C850 1.367 . S
C849 C857 1.378 . S
C850 C849 1.367 . S
C850 C858 1.433 . S
C851 H847 0.929 . S
C851 C853 1.378 . S
C851 C855 1.350 . S
C852 C855 1.463 . S
C852 C857 1.350 . S
C852 N860 1.427 . S
C853 H844 0.930 . S
C853 C851 1.378 . S
C853 C854 1.367 . S
C854 C853 1.367 . S
C854 C856 1.433 . S
C855 C851 1.350 . S
C855 C852 1.463 . S
C855 N859 1.427 . S
C856 H846 0.929 . S
C856 C854 1.433 . S
C856 N859 1.384 . S
C857 H848 0.929 . S
C857 C849 1.378 . S
C857 C852 1.350 . S
C858 H845 0.929 . S
C858 C850 1.433 . S
C858 N860 1.384 . S
N859 C855 1.427 . S
N859 C856 1.384 . S
N860 C852 1.427 . S
N860 C858 1.384 . S
H861 C867 0.930 . S
H862 C871 0.930 . S
H863 C876 0.929 . S
H864 C874 0.929 . S
H865 C869 0.929 . S
H866 C875 0.929 . S
C867 H861 0.930 . S
C867 C868 1.367 . S
C867 C875 1.378 . S
C868 C867 1.367 . S
C868 C876 1.433 . S
C869 H865 0.929 . S
C869 C871 1.378 . S
C869 C873 1.350 . S
C870 C873 1.463 . S
C870 C875 1.350 . S
C870 N878 1.427 . S
C871 H862 0.930 . S
C871 C869 1.378 . S
C871 C872 1.367 . S
C872 C871 1.367 . S
C872 C874 1.433 . S
C873 C869 1.350 . S
C873 C870 1.463 . S
C873 N877 1.427 . S
C874 H864 0.929 . S
C874 C872 1.433 . S
C874 N877 1.384 . S
C875 H866 0.929 . S
C875 C867 1.378 . S
C875 C870 1.350 . S
C876 H863 0.929 . S
C876 C868 1.433 . S
C876 N878 1.384 . S
N877 C873 1.427 . S
N877 C874 1.384 . S
N878 C870 1.427 . S
N878 C876 1.384 . S
H879 C885 0.930 . S
H880 C889 0.930 . S
H881 C894 0.929 . S
H882 C892 0.929 . S
H883 C887 0.929 . S
H884 C893 0.929 . S
C885 H879 0.930 . S
C885 C886 1.367 . S
C885 C893 1.378 . S
C886 C885 1.367 . S
C886 C894 1.433 . S
C887 H883 0.929 . S
C887 C889 1.378 . S
C887 C891 1.350 . S
C888 C891 1.463 . S
C888 C893 1.350 . S
C888 N896 1.427 . S
C889 H880 0.930 . S
C889 C887 1.378 . S
C889 C890 1.367 . S
C890 C889 1.367 . S
C890 C892 1.433 . S
C891 C887 1.350 . S
C891 C888 1.463 . S
C891 N895 1.427 . S
C892 H882 0.929 . S
C892 C890 1.433 . S
C892 N895 1.384 . S
C893 H884 0.929 . S
C893 C885 1.378 . S
C893 C888 1.350 . S
C894 H881 0.929 . S
C894 C886 1.433 . S
C894 N896 1.384 . S
N895 C891 1.427 . S
N895 C892 1.384 . S
N896 C888 1.427 . S
N896 C894 1.384 . S
C472 C47 1.903 . S
C476 C372 1.996 . S
C490 C91 1.770 . S
C494 C404 1.863 . S
C512 C463 1.898 . S
C508 C177 1.971 . S
C530 C392 1.709 . S
C526 C215 1.671 . S
C544 C295 1.790 . S
C548 C422 1.828 . S
C566 C444 1.106 . S
C562 C345 1.105 . S
C584 C413 2.003 . S
C580 C153 1.881 . S
C598 C239 1.195 . S
C602 C453 1.149 . S
C620 C402 1.523 . S
C616 C283 1.549 . S
C634 C357 1.716 . S
C638 C432 1.784 . S
C652 C35 1.869 1_556 S
C656 C435 1.824 . S
C674 C374 1.547 . S
C670 C115 1.584 . S
C692 C382 1.525 . S
C688 C221 1.561 . S
C710 C423 1.475 . S
C706 C301 1.497 . S
C728 C436 2.209 . S
C724 C339 2.149 1_556 S
C746 C373 1.468 . S
C742 C53 1.502 1_556 S
C764 C433 1.487 . S
C760 C97 1.539 . S
C778 C171 1.431 . S
C782 C434 1.521 . S
C800 C403 1.520 . S
C796 C363 1.546 . S
C818 C464 1.517 . S
C814 C29 1.388 . S
C836 C391 1.808 . S
C832 C109 1.795 . S
C854 C405 1.532 . S
C850 C159 1.598 . S
C868 C233 2.096 . S
C872 C454 2.115 . S
C886 C277 1.808 . S
C890 C401 1.933 . S
