# Generated by pormake.
# Topology pyr, (3,6)-cn, num edge types: 1
# Building blocks:
#     Node 0, Type 0, BuildingBlock: ESEHIV_clean_linker_0, # of connection points: 3
#     Node 1, Type 0, BuildingBlock: ESEHIV_clean_linker_0, # of connection points: 3
#     Node 2, Type 0, BuildingBlock: ESEHIV_clean_linker_0, # of connection points: 3
#     Node 3, Type 0, BuildingBlock: ESEHIV_clean_linker_0, # of connection points: 3
#     Node 4, Type 0, BuildingBlock: ESEHIV_clean_linker_0, # of connection points: 3
#     Node 5, Type 0, BuildingBlock: ESEHIV_clean_linker_0, # of connection points: 3
#     Node 6, Type 0, BuildingBlock: ESEHIV_clean_linker_0, # of connection points: 3
#     Node 7, Type 0, BuildingBlock: ESEHIV_clean_linker_0, # of connection points: 3
#     Node 8, Type 1, BuildingBlock: JUFBIX_clean_sbu_0, # of connection points: 6
#     Node 9, Type 1, BuildingBlock: JUFBIX_clean_sbu_0, # of connection points: 6
#     Node 10, Type 1, BuildingBlock: JUFBIX_clean_sbu_0, # of connection points: 6
#     Node 11, Type 1, BuildingBlock: JUFBIX_clean_sbu_0, # of connection points: 6
#     Edge 12, Type (0, 1), BuildingBlock: AJUNOK_clean_linker_0, # of connection points: 2
#     Edge 13, Type (0, 1), BuildingBlock: AJUNOK_clean_linker_0, # of connection points: 2
#     Edge 14, Type (0, 1), BuildingBlock: AJUNOK_clean_linker_0, # of connection points: 2
#     Edge 15, Type (0, 1), BuildingBlock: AJUNOK_clean_linker_0, # of connection points: 2
#     Edge 16, Type (0, 1), BuildingBlock: AJUNOK_clean_linker_0, # of connection points: 2
#     Edge 17, Type (0, 1), BuildingBlock: AJUNOK_clean_linker_0, # of connection points: 2
#     Edge 18, Type (0, 1), BuildingBlock: AJUNOK_clean_linker_0, # of connection points: 2
#     Edge 19, Type (0, 1), BuildingBlock: AJUNOK_clean_linker_0, # of connection points: 2
#     Edge 20, Type (0, 1), BuildingBlock: AJUNOK_clean_linker_0, # of connection points: 2
#     Edge 21, Type (0, 1), BuildingBlock: AJUNOK_clean_linker_0, # of connection points: 2
#     Edge 22, Type (0, 1), BuildingBlock: AJUNOK_clean_linker_0, # of connection points: 2
#     Edge 23, Type (0, 1), BuildingBlock: AJUNOK_clean_linker_0, # of connection points: 2
#     Edge 24, Type (0, 1), BuildingBlock: AJUNOK_clean_linker_0, # of connection points: 2
#     Edge 25, Type (0, 1), BuildingBlock: AJUNOK_clean_linker_0, # of connection points: 2
#     Edge 26, Type (0, 1), BuildingBlock: AJUNOK_clean_linker_0, # of connection points: 2
#     Edge 27, Type (0, 1), BuildingBlock: AJUNOK_clean_linker_0, # of connection points: 2
#     Edge 28, Type (0, 1), BuildingBlock: AJUNOK_clean_linker_0, # of connection points: 2
#     Edge 29, Type (0, 1), BuildingBlock: AJUNOK_clean_linker_0, # of connection points: 2
#     Edge 30, Type (0, 1), BuildingBlock: AJUNOK_clean_linker_0, # of connection points: 2
#     Edge 31, Type (0, 1), BuildingBlock: AJUNOK_clean_linker_0, # of connection points: 2
#     Edge 32, Type (0, 1), BuildingBlock: AJUNOK_clean_linker_0, # of connection points: 2
#     Edge 33, Type (0, 1), BuildingBlock: AJUNOK_clean_linker_0, # of connection points: 2
#     Edge 34, Type (0, 1), BuildingBlock: AJUNOK_clean_linker_0, # of connection points: 2
#     Edge 35, Type (0, 1), BuildingBlock: AJUNOK_clean_linker_0, # of connection points: 2
# Relax obj value: 0.111
# Max RMSD: 0.115
# Mean RMSD: 0.044
data_MOF--net-pyr--node1-JUFBIX_clean_sbu_0--node2-ESEHIV_clean_linker_0--edge1-AJUNOK_clean_linker_0
_symmetry_space_group_name_H-M    P1
_symmetry_Int_Tables_number       1
_symmetry_cell_setting            triclinic
loop_
_symmetry_equiv_pos_as_xyz
'x, y, z'
_cell_length_a     25.150916
_cell_length_b     23.82978
_cell_length_c     25.500684
_cell_angle_alpha  81.218771
_cell_angle_beta   89.907174
_cell_angle_gamma 91.158645
loop_
_atom_site_label
_atom_site_type_symbol
_atom_site_fract_x
_atom_site_fract_y
_atom_site_fract_z
_atom_type_partial_charge
H0 H 0.14459 0.20072 0.23845 0.0
H1 H 0.26579 0.0755 0.24481 0.0
H2 H 0.25332 0.2059 0.10762 0.0
C3 C 0.17705 0.18238 0.21931 0.0
C4 C 0.19392 0.20777 0.16851 0.0
C5 C 0.20096 0.13379 0.24661 0.0
C6 C 0.24668 0.11266 0.22391 0.0
C7 C 0.26638 0.13829 0.17319 0.0
C8 C 0.23915 0.1858 0.14619 0.0
H9 H 0.45767 0.97595 0.64382 0.0
H10 H 0.56046 0.83341 0.66606 0.0
H11 H 0.45273 0.85597 0.53429 0.0
C12 C 0.47516 0.94074 0.628 0.0
C13 C 0.45101 0.92067 0.58483 0.0
C14 C 0.51454 0.90978 0.65757 0.0
C15 C 0.53308 0.86003 0.64116 0.0
C16 C 0.51131 0.84117 0.59608 0.0
C17 C 0.47159 0.87262 0.56706 0.0
H18 H 0.75601 0.32172 0.96126 0.0
H19 H 0.76388 0.45721 0.82846 0.0
H20 H 0.64137 0.32747 0.83583 0.0
C21 C 0.74102 0.34142 0.92324 0.0
C22 C 0.69537 0.31814 0.90182 0.0
C23 C 0.76699 0.39098 0.89695 0.0
C24 C 0.74498 0.41871 0.84877 0.0
C25 C 0.69857 0.3966 0.82691 0.0
C26 C 0.6753 0.34597 0.85355 0.0
H27 H 0.95759 0.69331 0.53211 0.0
H28 H 0.06749 0.69306 0.40239 0.0
H29 H 0.94327 0.56606 0.43077 0.0
C30 C 0.97372 0.67245 0.50082 0.0
C31 C 0.94625 0.62581 0.48583 0.0
C32 C 1.01794 0.69659 0.47129 0.0
C33 C 1.0356 0.67254 0.42735 0.0
C34 C 1.00941 0.62421 0.41364 0.0
C35 C 0.96598 0.60043 0.44406 0.0
H36 H 0.82867 0.95412 0.83898 0.0
H37 H 0.95237 0.83104 0.84645 0.0
H38 H 0.83202 0.81388 0.96812 0.0
C39 C 0.84676 0.91567 0.85851 0.0
C40 C 0.8242 0.88681 0.90669 0.0
C41 C 0.8935 0.89605 0.8364 0.0
C42 C 0.91677 0.84651 0.86296 0.0
C43 C 0.89479 0.81586 0.90981 0.0
C44 C 0.84921 0.83715 0.93204 0.0
H45 H 0.53079 0.1792 0.40956 0.0
H46 H 0.63581 0.03958 0.4426 0.0
H47 H 0.63307 0.16646 0.54535 0.0
C48 C 0.55769 0.15445 0.43667 0.0
C49 C 0.57641 0.17613 0.48153 0.0
C50 C 0.57795 0.10391 0.42377 0.0
C51 C 0.6165 0.07504 0.45624 0.0
C52 C 0.63773 0.09784 0.49945 0.0
C53 C 0.61555 0.14709 0.51345 0.0
H54 H 0.33179 0.70497 0.11443 0.0
H55 H 0.32211 0.56932 0.24748 0.0
H56 H 0.45213 0.69053 0.23487 0.0
C57 C 0.34855 0.68247 0.15055 0.0
C58 C 0.39538 0.70386 0.17137 0.0
C59 C 0.32174 0.63348 0.17698 0.0
C60 C 0.34224 0.6066 0.22622 0.0
C61 C 0.38859 0.62825 0.24827 0.0
C62 C 0.41525 0.67548 0.21943 0.0
H63 H 1.03791 0.35804 0.67282 0.0
H64 H 0.11416 0.36473 0.52167 0.0
H65 H 0.12579 0.50753 0.60477 0.0
C66 C 0.05814 0.38282 0.63919 0.0
C67 C 0.08109 0.4361 0.6441 0.0
C68 C 0.06666 0.35878 0.59273 0.0
C69 C 0.10067 0.38711 0.55307 0.0
C70 C 0.12691 0.43784 0.56045 0.0
C71 C 0.10828 0.46659 0.6005 0.0
Co72 Co 1.0085 0.02911 0.52267 0.0
C73 C 0.04972 0.92138 0.52247 0.0
Co74 Co 0.08526 0.01562 0.5624 0.0
C75 C 0.89861 0.054 0.51656 0.0
C76 C 0.92259 0.01117 0.45261 0.0
N77 N 0.94168 0.03504 0.49365 0.0
N78 N 0.85346 0.04126 0.49256 0.0
C79 C 0.86802 0.01474 0.45202 0.0
H80 H 0.89998 0.07366 0.55213 0.0
H81 H 0.94647 0.98991 0.42664 0.0
C82 C 0.0441 0.12401 0.56189 0.0
N83 N 0.15202 1.00912 0.59123 0.0
C84 C 0.19365 0.98649 0.56927 0.0
C85 C 0.17259 0.03246 0.63193 0.0
N86 N 0.23939 0.99558 0.59395 0.0
C87 C 0.22671 0.02442 0.63348 0.0
C88 C 0.09176 0.05581 0.45081 0.0
O89 O 1.00603 0.10539 0.53635 0.0
O90 O 0.08281 0.09184 0.57604 0.0
O91 O 0.11808 0.04161 0.49322 0.0
O92 O 1.04115 0.0549 0.4543 0.0
O93 O 0.08747 0.93906 0.54895 0.0
H94 H 0.15006 0.05545 0.65754 0.0
H95 H 0.19092 0.96591 0.5343 0.0
O96 O 1.01122 0.95369 0.50847 0.0
O97 O 0.97595 1.0025 0.5913 0.0
O98 O 0.05236 0.98964 0.63121 0.0
C99 C 1.00167 0.98757 0.63389 0.0
H100 H 0.84103 0.99837 0.42469 0.0
H101 H 0.2546 0.03875 0.66115 0.0
Co102 Co 0.52326 0.01171 1.00068 0.0
C103 C 0.5061 0.91409 0.07642 0.0
Co104 Co 0.56543 0.01281 0.07555 0.0
C105 C 0.51376 1.00367 0.89054 0.0
C106 C 0.43996 0.98476 0.93215 0.0
N107 N 0.48972 1.00521 0.9376 0.0
N108 N 0.48206 0.98021 0.85709 0.0
C109 C 0.43522 0.96909 0.88262 0.0
H110 H 0.55525 0.01443 0.88265 0.0
H111 H 0.41085 0.97655 0.96381 0.0
C112 C 0.58317 0.11007 0.99964 0.0
N113 N 0.59895 0.01877 0.13861 0.0
C114 C 0.57539 0.01858 0.1862 0.0
C115 C 0.64949 0.0365 0.14481 0.0
N116 N 0.60876 0.03705 0.2213 0.0
C117 C 0.65547 0.04833 0.19563 0.0
C118 C 0.62884 0.9675 1.00212 0.0
O119 O 0.54998 0.08616 0.97211 0.0
O120 O 0.59471 0.08556 0.04589 0.0
O121 O 0.62829 0.97725 0.04995 0.0
O122 O 0.58704 0.97889 0.97478 0.0
O123 O 0.5364 0.94013 0.10498 0.0
H124 H 0.67872 0.04473 0.11326 0.0
H125 H 0.5334 0.01004 0.19367 0.0
O126 O 0.49666 0.93725 1.02921 0.0
O127 O 0.45978 0.04428 1.02707 0.0
O128 O 0.50221 0.04835 0.10084 0.0
C129 C 0.45959 0.05664 0.074 0.0
H130 H 0.40139 0.94743 0.86797 0.0
H131 H 0.69028 0.0672 0.21147 0.0
Co132 Co 0.57897 0.52053 0.51677 0.0
C133 C 0.49493 0.53745 0.4467 0.0
Co134 Co 0.50288 0.49651 0.5569 0.0
C135 C 0.68545 0.5632 0.50872 0.0
C136 C 0.66464 0.52182 0.44236 0.0
N137 N 0.64447 0.53821 0.48654 0.0
N138 N 0.73042 0.56204 0.48062 0.0
C139 C 0.71794 0.53614 0.43886 0.0
H140 H 0.6831 0.57912 0.5462 0.0
H141 H 0.64263 0.49861 0.41591 0.0
C142 C 0.58838 0.47978 0.6268 0.0
N143 N 0.4367 0.47732 0.58724 0.0
C144 C 0.38883 0.49158 0.56571 0.0
C145 C 0.42572 0.43712 0.62928 0.0
N146 N 0.34876 0.46077 0.59157 0.0
C147 C 0.37172 0.4268 0.63196 0.0
C148 C 0.54848 0.40787 0.51696 0.0
O149 O 0.61341 0.49668 0.5838 0.0
O150 O 0.53774 0.47692 0.62505 0.0
O151 O 0.50952 0.4209 0.54398 0.0
O152 O 0.58352 0.44558 0.50051 0.0
O153 O 0.46945 0.51643 0.48833 0.0
H154 H 0.45521 0.41371 0.654 0.0
H155 H 0.38355 0.52057 0.52922 0.0
O156 O 0.54498 0.54465 0.44964 0.0
O157 O 0.57385 0.59528 0.5331 0.0
O158 O 0.49618 0.5721 0.56999 0.0
C159 C 0.53277 0.60918 0.55675 0.0
H160 H 0.74574 0.5269 0.40901 0.0
H161 H 0.35122 0.3945 0.65961 0.0
Co162 Co 0.06602 0.51136 1.00037 0.0
C163 C 0.96035 0.46639 0.99949 0.0
Co164 Co 1.02207 0.5098 0.07472 0.0
C165 C 0.08058 0.51075 0.88802 0.0
C166 C 0.15177 0.49377 0.93306 0.0
N167 N 0.10099 0.50936 0.93714 0.0
N168 N 0.11651 0.49565 0.85349 0.0
C169 C 0.16123 0.48468 0.88215 0.0
H170 H 1.03939 0.5197 0.87857 0.0
H171 H 0.17892 0.48502 0.96603 0.0
C172 C 0.12781 0.55485 0.07601 0.0
N173 N 0.98971 0.51043 0.13959 0.0
C174 C 1.00012 0.54921 0.1718 0.0
C175 C 0.96368 0.46749 0.17031 0.0
N176 N 0.9835 0.5315 0.22188 0.0
C177 C 0.96006 0.48023 0.22112 0.0
C178 C 0.08201 0.4123 0.07237 0.0
O179 O 0.12777 0.54872 1.02726 0.0
O180 O 0.08583 0.54045 0.10276 0.0
O181 O 0.04743 0.43393 0.09936 0.0
O182 O 0.0959 0.43935 1.02758 0.0
O183 O 0.95837 0.47917 0.0462 0.0
H184 H 0.95225 0.4276 0.15778 0.0
H185 H 1.02407 0.58728 0.15995 0.0
O186 O 1.00412 0.47398 0.9739 0.0
O187 O 1.03589 0.58347 0.97324 0.0
O188 O 0.99665 0.58529 0.04977 0.0
C189 C 1.00545 0.60839 1.00202 0.0
H190 H 0.1971 0.46671 0.86901 0.0
H191 H 0.9442 0.45259 0.25546 0.0
C192 C 0.20255 0.09934 0.34646 0.0
C193 C 0.17508 0.10607 0.29786 0.0
C194 C 0.17566 0.08249 0.39545 0.0
C195 C 0.12 0.07193 0.39813 0.0
H196 H 0.24475 0.10927 0.34684 0.0
H197 H 0.19862 0.07904 0.43165 0.0
S198 S 1.03068 0.07744 0.28158 0.0
N199 N 0.08971 0.09606 0.25548 0.0
N200 N 1.03962 0.0654 0.34641 0.0
C201 C 0.09266 0.07641 0.3495 0.0
C202 C 0.11999 0.09311 0.29989 0.0
C203 C 0.53604 0.97723 0.72058 0.0
C204 C 0.52243 0.92164 0.71226 0.0
C205 C 0.52497 0.99556 0.7691 0.0
C206 C 0.49909 0.95918 0.81016 0.0
H207 H 0.5517 1.00777 0.68811 0.0
H208 H 0.53362 0.0393 0.77347 0.0
S209 S 0.46293 0.80752 0.81141 0.0
N210 N 0.48748 0.82875 0.7514 0.0
N211 N 0.46711 0.86333 0.84253 0.0
C212 C 0.4894 0.90239 0.80394 0.0
C213 C 0.50116 0.88352 0.75497 0.0
C214 C 0.61683 0.42881 0.77391 0.0
C215 C 0.67278 0.42447 0.77638 0.0
C216 C 0.59022 0.44736 0.726 0.0
C217 C 0.61811 0.46289 0.67786 0.0
H218 H 0.59304 0.41665 0.80944 0.0
H219 H 0.54721 0.44875 0.72673 0.0
S220 S 0.7653 0.46166 0.66224 0.0
N221 N 0.75522 0.43883 0.72601 0.0
N222 N 0.70583 0.47458 0.63638 0.0
C223 C 0.67431 0.4606 0.67994 0.0
C224 C 0.7014 0.44142 0.72892 0.0
C225 C 1.02282 0.54571 0.36128 0.0
C226 C 1.01784 0.60426 0.36214 0.0
C227 C 1.01274 0.5224 0.31501 0.0
C228 C 0.99749 0.55682 0.26789 0.0
H229 H 1.03116 0.5173 0.39759 0.0
H230 H 1.01555 0.47692 0.31648 0.0
S231 S 0.98273 0.71309 0.24828 0.0
N232 N 0.99982 0.69654 0.31116 0.0
N233 N 0.9814 0.65273 0.2239 0.0
C234 C 0.99581 0.61583 0.26727 0.0
C235 C 1.00599 0.63959 0.31447 0.0
C236 C 0.36248 0.10427 0.17619 0.0
C237 C 0.3148 0.11578 0.14768 0.0
C238 C 0.40875 0.08609 0.15214 0.0
C239 C 0.40991 0.07785 0.0983 0.0
H240 H 0.36443 0.11033 0.21738 0.0
H241 H 0.444 0.07828 0.17627 0.0
S242 S 0.29467 0.09814 1.00658 0.0
N243 N 0.27148 0.1147 0.06274 0.0
N244 N 0.35732 0.08105 1.01804 0.0
C245 C 0.36215 0.08831 0.06965 0.0
C246 C 0.31519 0.10706 0.09405 0.0
C247 C 0.38565 0.99881 0.56722 0.0
C248 C 0.39664 0.94061 0.57026 0.0
C249 C 0.33371 0.01698 0.57329 0.0
C250 C 0.29103 0.9778 0.58073 0.0
H251 H 0.4179 0.02998 0.56442 0.0
H252 H 0.32697 0.06158 0.5741 0.0
S253 S 0.2964 0.8223 0.58452 0.0
N254 N 0.35888 0.84462 0.5769 0.0
N255 N 0.26127 0.87992 0.58536 0.0
C256 C 0.30045 0.92053 0.57867 0.0
C257 C 0.35331 0.90164 0.57378 0.0
C258 C 0.85842 0.37434 0.93775 0.0
C259 C 0.81716 0.4123 0.92073 0.0
C260 C 0.90467 0.39193 0.96276 0.0
C261 C 0.91127 0.44798 0.97307 0.0
H262 H 0.855 0.33046 0.93153 0.0
H263 H 0.93519 0.36122 0.97475 0.0
S264 S 0.8168 0.56481 0.93615 0.0
N265 N 0.78754 0.50948 0.91545 0.0
N266 N 0.87356 0.54184 0.96311 0.0
C267 C 0.87082 0.48649 0.95608 0.0
C268 C 0.82415 0.46892 0.92977 0.0
C269 C 0.87435 0.55431 0.51409 0.0
C270 C 0.89066 0.61177 0.50265 0.0
C271 C 0.82091 0.53825 0.50977 0.0
C272 C 0.78233 0.57922 0.49505 0.0
H273 H 0.90367 0.52139 0.52172 0.0
H274 H 0.80996 0.49355 0.51502 0.0
S275 S 0.80247 0.73488 0.46793 0.0
N276 N 0.86261 0.70984 0.48074 0.0
N277 N 0.76183 0.67888 0.47474 0.0
C278 C 0.79695 0.63671 0.48869 0.0
C279 C 0.85135 0.65327 0.49229 0.0
C280 C 0.19153 0.30523 0.1118 0.0
C281 C 0.16408 0.25781 0.14004 0.0
C282 C 0.16451 0.35426 0.08894 0.0
C283 C 0.10898 0.35859 0.0942 0.0
H284 H 0.23446 0.3053 0.10857 0.0
H285 H 0.18757 0.38988 0.06844 0.0
S286 S 1.01698 0.24469 0.15734 0.0
N287 N 0.07645 0.21664 0.16554 0.0
N288 N 1.02697 0.30995 0.12593 0.0
C289 C 0.08079 0.3113 0.12084 0.0
C290 C 0.10793 0.26075 0.14277 0.0
C291 C 0.61145 0.26025 0.92866 0.0
C292 C 0.66762 0.26505 0.92927 0.0
C293 C 0.58427 0.2101 0.95114 0.0
C294 C 0.61191 0.16318 0.97669 0.0
H295 H 0.588 0.29559 0.91057 0.0
H296 H 0.54125 0.2083 0.94908 0.0
S297 S 0.75832 0.15118 0.98794 0.0
N298 N 0.74954 0.21582 0.95563 0.0
N299 N 0.69814 0.12343 1.0006 0.0
C300 C 0.66771 0.16723 0.97845 0.0
C301 C 0.69559 0.21764 0.95428 0.0
C302 C 0.05651 0.76175 0.53017 0.0
C303 C 1.037 0.75339 0.48017 0.0
C304 C 0.06384 0.81671 0.54287 0.0
C305 C 0.05032 0.8646 0.50643 0.0
H306 H 0.06399 0.72554 0.56026 0.0
H307 H 0.07712 0.82158 0.58236 0.0
S308 S 1.00153 0.86546 0.36918 0.0
N309 N 1.00772 0.79751 0.39312 0.0
N310 N 1.02061 0.90054 0.4172 0.0
C311 C 1.03316 0.85678 0.4556 0.0
C312 C 1.0267 0.80116 0.4424 0.0
C313 C 0.56249 0.76581 0.56077 0.0
C314 C 0.51829 0.78187 0.58808 0.0
C315 C 0.56709 0.70964 0.55109 0.0
C316 C 0.52756 0.66794 0.56842 0.0
H317 H 0.59317 0.79692 0.54629 0.0
H318 H 0.60165 0.69906 0.52945 0.0
S319 S 0.40504 0.68991 0.6438 0.0
N320 N 0.43544 0.75267 0.63393 0.0
N321 N 0.44331 0.64745 0.61564 0.0
C322 C 0.48352 0.68393 0.59654 0.0
C323 C 0.47911 0.74084 0.6064 0.0
C324 C 0.97491 0.93288 0.7817 0.0
C325 C 0.91903 0.92526 0.78531 0.0
C326 C 1.00095 0.95352 0.73327 0.0
C327 C 0.9726 0.96774 0.6856 0.0
H328 H 0.99909 0.92201 0.81675 0.0
H329 H 0.04391 0.95768 0.73324 0.0
S330 S 0.82537 0.95696 0.67272 0.0
N331 N 0.83621 0.9346 0.73627 0.0
N332 N 0.88444 0.97377 0.64585 0.0
C333 C 0.91647 0.96166 0.68879 0.0
C334 C 0.88997 0.94057 0.73827 0.0
C335 C 0.59424 0.12813 0.32732 0.0
C336 C 0.57254 0.08978 0.36968 0.0
C337 C 0.60504 0.11079 0.27852 0.0
C338 C 0.59382 0.05485 0.27031 0.0
H339 H 0.60642 0.17065 0.33308 0.0
H340 H 0.62357 0.1408 0.24733 0.0
S341 S 0.53254 0.93984 0.36671 0.0
N342 N 0.53738 0.99451 0.3994 0.0
N343 N 0.55627 0.96247 0.30653 0.0
C344 C 0.569 0.01717 0.31101 0.0
C345 C 0.55875 0.03451 0.36108 0.0
C346 C 0.42194 0.54531 0.31402 0.0
C347 C 0.41035 0.60352 0.3016 0.0
C348 C 0.44904 0.5237 0.3612 0.0
C349 C 0.46567 0.55955 0.39744 0.0
H350 H 0.41161 0.51667 0.28633 0.0
H351 H 0.45789 0.4789 0.3689 0.0
S352 S 0.4402 0.71332 0.38711 0.0
N353 N 0.41387 0.6952 0.33265 0.0
N354 N 0.46529 0.65469 0.41981 0.0
C355 C 0.45267 0.61705 0.38653 0.0
C356 C 0.42491 0.63896 0.33908 0.0
C357 C 0.04753 0.45238 0.73385 0.0
C358 C 0.0895 0.45344 0.69727 0.0
C359 C 0.05619 0.46762 0.78436 0.0
C360 C 0.10711 0.48474 0.8 0.0
H361 H 1.00787 0.43941 0.7235 0.0
H362 H 1.02296 0.46451 0.81171 0.0
S363 S 0.23058 0.49445 0.71869 0.0
N364 N 0.18468 0.47005 0.68153 0.0
N365 N 0.19934 0.50435 0.77332 0.0
C366 C 0.14906 0.48706 0.76319 0.0
C367 C 0.14071 0.46987 0.71276 0.0
C368 C 0.7715 0.91461 0.98431 0.0
C369 C 0.77407 0.90753 0.93031 0.0
C370 C 0.72491 0.93359 1.00712 0.0
C371 C 0.67795 0.94558 0.97744 0.0
H372 H 0.80618 0.90612 1.00914 0.0
H373 H 0.72589 0.93899 0.04851 0.0
S374 S 0.66214 0.92986 0.83508 0.0
N375 N 0.72431 0.91205 0.84842 0.0
N376 N 0.63735 0.946 0.89074 0.0
C377 C 0.67984 0.93743 0.92357 0.0
C378 C 0.72749 0.91898 0.90026 0.0
C379 C 0.7326 0.1233 0.51245 0.0
C380 C 0.69215 0.08093 0.51677 0.0
C381 C 0.78607 0.10949 0.50821 0.0
C382 C 0.80056 0.0532 0.50745 0.0
H383 H 0.72282 0.16786 0.50716 0.0
H384 H 0.81581 0.14334 0.50124 0.0
S385 S 0.71231 0.92567 0.53064 0.0
N386 N 0.67187 0.97946 0.53074 0.0
N387 N 0.77268 0.95404 0.52061 0.0
C388 C 0.76162 0.01001 0.51729 0.0
C389 C 0.70728 0.02379 0.52279 0.0
C390 C 0.27074 0.60682 0.09823 0.0
C391 C 0.27202 0.61195 0.15271 0.0
C392 C 0.22432 0.58889 0.07381 0.0
C393 C 0.17655 0.57557 0.10248 0.0
H394 H 0.30622 0.61645 0.07414 0.0
H395 H 0.22608 0.58531 1.03201 0.0
S396 S 0.1575 0.58453 0.24586 0.0
N397 N 0.22034 0.60389 0.2341 0.0
N398 N 0.13373 0.57018 0.18897 0.0
C399 C 0.17721 0.58093 0.15703 0.0
C400 C 0.22459 0.59895 0.18187 0.0
C401 C 0.21666 0.3964 0.56471 0.0
C402 C 0.18501 0.44426 0.54908 0.0
C403 C 0.27038 0.40225 0.57674 0.0
C404 C 0.29503 0.45601 0.57326 0.0
H405 H 0.19902 0.3541 0.57277 0.0
H406 H 0.29235 0.36437 0.59093 0.0
S407 S 0.23327 0.59409 0.52464 0.0
N408 N 0.18466 0.54673 0.52291 0.0
N409 N 0.28614 0.55769 0.54641 0.0
C410 C 0.26565 0.50391 0.55268 0.0
C411 C 0.21064 0.49798 0.54017 0.0
C412 C 0.93246 0.75012 0.98854 0.0
C413 C 0.91992 0.76109 0.93407 0.0
C414 C 0.96003 0.70088 1.01043 0.0
C415 C 0.97679 0.66089 0.97865 0.0
H416 H 0.92195 0.78042 1.01426 0.0
H417 H 0.96906 0.6946 0.05241 0.0
S418 S 0.94705 0.66513 0.83552 0.0
N419 N 0.92136 0.72395 0.8504 0.0
N420 N 0.97401 0.63326 0.89084 0.0
C421 C 0.9629 0.67049 0.92459 0.0
C422 C 0.93431 0.71994 0.90256 0.0
C423 C 0.44286 0.79695 0.17655 0.0
C424 C 0.42302 0.75733 0.14516 0.0
C425 C 0.47057 0.84654 0.15409 0.0
C426 C 0.47901 0.85955 0.09902 0.0
H427 H 0.43654 0.78994 0.21909 0.0
H428 H 0.48452 0.87554 0.18017 0.0
S429 S 0.43699 0.77005 0.99873 0.0
N430 N 0.41585 0.73411 0.05573 0.0
N431 N 0.46596 0.82847 1.01338 0.0
C432 C 0.45923 0.82076 0.0669 0.0
C433 C 0.43167 0.76959 0.08992 0.0
C434 C 1.02362 0.28311 0.54815 0.0
C435 C 0.05306 0.29839 0.59082 0.0
C436 C 1.01873 0.22613 0.54035 0.0
C437 C 0.04436 0.1828 0.57417 0.0
H438 H 1.00575 0.31567 0.51969 0.0
H439 H 0.99684 0.21635 0.50621 0.0
S440 S 0.12422 0.20072 0.693 0.0
N441 N 0.10634 0.26569 0.6684 0.0
N442 N 0.09761 0.15891 0.6537 0.0
C443 C 0.07243 0.1975 0.61796 0.0
C444 C 0.07669 0.25523 0.6263 0.0
C445 C 0.53629 0.24726 0.53157 0.0
C446 C 0.56538 0.23519 0.48781 0.0
C447 C 0.5298 0.30354 0.54 0.0
C448 C 0.55338 0.34924 0.50563 0.0
H449 H 0.51903 0.21299 0.55964 0.0
H450 H 0.50745 0.31117 0.57449 0.0
S451 S 0.63316 0.33897 0.38505 0.0
N452 N 0.61722 0.27253 0.40939 0.0
N453 N 0.60595 0.37824 0.4255 0.0
C454 C 0.58223 0.33739 0.46149 0.0
C455 C 0.58802 0.28031 0.45253 0.0
loop_
_geom_bond_atom_site_label_1
_geom_bond_atom_site_label_2
_geom_bond_distance
_geom_bond_site_symmetry_2
_ccdc_geom_bond_type
H0 C3 0.931 . S
H1 C6 0.928 . S
H2 C8 0.930 . S
C3 H0 0.931 . S
C3 C4 1.413 . S
C3 C5 1.360 . S
C4 C3 1.413 . S
C4 C8 1.429 . S
C5 C3 1.360 . S
C5 C6 1.372 . S
C6 H1 0.928 . S
C6 C5 1.372 . S
C6 C7 1.404 . S
C7 C6 1.404 . S
C7 C8 1.391 . S
C8 H2 0.930 . S
C8 C4 1.429 . S
C8 C7 1.391 . S
H9 C12 0.931 . S
H10 C15 0.928 . S
H11 C17 0.930 . S
C12 H9 0.931 . S
C12 C13 1.413 . S
C12 C14 1.360 . S
C13 C12 1.413 . S
C13 C17 1.429 . S
C14 C12 1.360 . S
C14 C15 1.372 . S
C15 H10 0.928 . S
C15 C14 1.372 . S
C15 C16 1.404 . S
C16 C15 1.404 . S
C16 C17 1.391 . S
C17 H11 0.930 . S
C17 C13 1.429 . S
C17 C16 1.391 . S
H18 C21 0.931 . S
H19 C24 0.928 . S
H20 C26 0.930 . S
C21 H18 0.931 . S
C21 C22 1.413 . S
C21 C23 1.360 . S
C22 C21 1.413 . S
C22 C26 1.429 . S
C23 C21 1.360 . S
C23 C24 1.372 . S
C24 H19 0.928 . S
C24 C23 1.372 . S
C24 C25 1.404 . S
C25 C24 1.404 . S
C25 C26 1.391 . S
C26 H20 0.930 . S
C26 C22 1.429 . S
C26 C25 1.391 . S
H27 C30 0.931 . S
H28 C33 0.928 . S
H29 C35 0.930 . S
C30 H27 0.931 . S
C30 C31 1.413 . S
C30 C32 1.360 . S
C31 C30 1.413 . S
C31 C35 1.429 . S
C32 C30 1.360 . S
C32 C33 1.372 . S
C33 H28 0.928 . S
C33 C32 1.372 . S
C33 C34 1.404 . S
C34 C33 1.404 . S
C34 C35 1.391 . S
C35 H29 0.930 . S
C35 C31 1.429 . S
C35 C34 1.391 . S
H36 C39 0.931 . S
H37 C42 0.928 . S
H38 C44 0.930 . S
C39 H36 0.931 . S
C39 C40 1.413 . S
C39 C41 1.360 . S
C40 C39 1.413 . S
C40 C44 1.429 . S
C41 C39 1.360 . S
C41 C42 1.372 . S
C42 H37 0.928 . S
C42 C41 1.372 . S
C42 C43 1.404 . S
C43 C42 1.404 . S
C43 C44 1.391 . S
C44 H38 0.930 . S
C44 C40 1.429 . S
C44 C43 1.391 . S
H45 C48 0.931 . S
H46 C51 0.928 . S
H47 C53 0.930 . S
C48 H45 0.931 . S
C48 C49 1.413 . S
C48 C50 1.360 . S
C49 C48 1.413 . S
C49 C53 1.429 . S
C50 C48 1.360 . S
C50 C51 1.372 . S
C51 H46 0.928 . S
C51 C50 1.372 . S
C51 C52 1.404 . S
C52 C51 1.404 . S
C52 C53 1.391 . S
C53 H47 0.930 . S
C53 C49 1.429 . S
C53 C52 1.391 . S
H54 C57 0.931 . S
H55 C60 0.928 . S
H56 C62 0.930 . S
C57 H54 0.931 . S
C57 C58 1.413 . S
C57 C59 1.360 . S
C58 C57 1.413 . S
C58 C62 1.429 . S
C59 C57 1.360 . S
C59 C60 1.372 . S
C60 H55 0.928 . S
C60 C59 1.372 . S
C60 C61 1.404 . S
C61 C60 1.404 . S
C61 C62 1.391 . S
C62 H56 0.930 . S
C62 C58 1.429 . S
C62 C61 1.391 . S
H63 C66 0.931 . S
H64 C69 0.928 . S
H65 C71 0.930 . S
C66 H63 0.931 . S
C66 C67 1.413 . S
C66 C68 1.360 . S
C67 C66 1.413 . S
C67 C71 1.429 . S
C68 C66 1.360 . S
C68 C69 1.372 . S
C69 H64 0.928 . S
C69 C68 1.372 . S
C69 C70 1.404 . S
C70 C69 1.404 . S
C70 C71 1.391 . S
C71 H65 0.930 . S
C71 C67 1.429 . S
C71 C70 1.391 . S
Co72 N77 2.057 . S
Co72 O89 2.021 . S
Co72 O92 2.062 . S
Co72 O96 2.117 1_545 S
Co72 O97 2.020 1_545 S
C73 O93 1.259 1_655 S
C73 O96 1.258 . S
Co74 N83 2.057 . S
Co74 O90 2.117 1_565 S
Co74 O91 2.020 1_565 S
Co74 O93 2.021 . S
Co74 O98 2.062 . S
C75 N77 1.316 . S
C75 N78 1.347 . S
C75 H80 0.931 . S
C76 N77 1.375 1_565 S
C76 C79 1.350 1_565 S
C76 H81 0.930 . S
N77 Co72 2.057 . S
N77 C75 1.316 . S
N77 C76 1.375 1_545 S
N78 C75 1.347 . S
N78 C79 1.373 . S
C79 C76 1.350 1_545 S
C79 N78 1.373 . S
C79 H100 0.931 1_545 S
H80 C75 0.931 . S
H81 C76 0.930 . S
C82 O89 1.259 1_455 S
C82 O90 1.258 . S
N83 Co74 2.057 . S
N83 C84 1.316 . S
N83 C85 1.375 1_565 S
C84 N83 1.316 . S
C84 N86 1.347 . S
C84 H95 0.931 . S
C85 N83 1.375 1_545 S
C85 C87 1.350 1_545 S
C85 H94 0.930 . S
N86 C84 1.347 . S
N86 C87 1.373 . S
C87 C85 1.350 1_565 S
C87 N86 1.373 . S
C87 H101 0.931 1_565 S
C88 O91 1.256 . S
C88 O92 1.255 1_455 S
O89 Co72 2.021 . S
O89 C82 1.259 1_655 S
O90 Co74 2.117 1_545 S
O90 C82 1.258 . S
O91 Co74 2.020 1_545 S
O91 C88 1.256 . S
O92 Co72 2.062 . S
O92 C88 1.255 1_655 S
O93 C73 1.259 1_455 S
O93 Co74 2.021 . S
H94 C85 0.930 . S
H95 C84 0.931 . S
O96 Co72 2.117 1_565 S
O96 C73 1.258 . S
O97 Co72 2.020 1_565 S
O97 C99 1.256 . S
O98 Co74 2.062 . S
O98 C99 1.255 1_455 S
C99 O97 1.256 . S
C99 O98 1.255 1_655 S
H100 C79 0.931 1_565 S
H101 C87 0.931 1_545 S
Co102 N107 2.057 . S
Co102 O119 2.021 1_565 S
Co102 O122 2.062 . S
Co102 O126 2.108 1_556 S
Co102 O127 2.020 1_565 S
C103 O123 1.259 . S
C103 O126 1.273 . S
Co104 N113 2.057 . S
Co104 O120 2.117 . S
Co104 O121 2.020 1_545 S
Co104 O123 2.021 1_545 S
Co104 O128 2.062 . S
C105 N107 1.316 . S
C105 N108 1.347 . S
C105 H110 0.931 1_565 S
C106 N107 1.375 . S
C106 C109 1.350 . S
C106 H111 0.930 . S
N107 Co102 2.057 . S
N107 C105 1.316 . S
N107 C106 1.375 . S
N108 C105 1.347 . S
N108 C109 1.373 . S
C109 C106 1.350 . S
C109 N108 1.373 . S
C109 H130 0.931 . S
H110 C105 0.931 1_545 S
H111 C106 0.930 . S
C112 O119 1.259 . S
C112 O120 1.258 1_556 S
N113 Co104 2.057 . S
N113 C114 1.316 . S
N113 C115 1.375 . S
C114 N113 1.316 . S
C114 N116 1.347 . S
C114 H125 0.931 1_545 S
C115 N113 1.375 . S
C115 C117 1.350 . S
C115 H124 0.930 . S
N116 C114 1.347 . S
N116 C117 1.373 . S
C117 C115 1.350 . S
C117 N116 1.373 . S
C117 H131 0.931 . S
C118 O121 1.256 1_556 S
C118 O122 1.255 . S
O119 Co102 2.021 1_545 S
O119 C112 1.259 . S
O120 Co104 2.117 . S
O120 C112 1.258 1_554 S
O121 Co104 2.020 1_565 S
O121 C118 1.256 1_554 S
O122 Co102 2.062 . S
O122 C118 1.255 . S
O123 C103 1.259 . S
O123 Co104 2.021 1_565 S
H124 C115 0.930 . S
H125 C114 0.931 1_565 S
O126 Co102 2.108 1_554 S
O126 C103 1.273 . S
O127 Co102 2.020 1_545 S
O127 C129 1.256 1_556 S
O128 Co104 2.062 . S
O128 C129 1.255 . S
C129 O127 1.256 1_554 S
C129 O128 1.255 . S
H130 C109 0.931 . S
H131 C117 0.931 . S
Co132 N137 2.057 . S
Co132 O149 2.021 . S
Co132 O152 2.062 . S
Co132 O156 2.117 . S
Co132 O157 2.020 . S
C133 O153 1.259 . S
C133 O156 1.258 . S
Co134 N143 2.057 . S
Co134 O150 2.117 . S
Co134 O151 2.020 . S
Co134 O153 2.021 . S
Co134 O158 2.062 . S
C135 N137 1.316 . S
C135 N138 1.347 . S
C135 H140 0.931 . S
C136 N137 1.375 . S
C136 C139 1.350 . S
C136 H141 0.930 . S
N137 Co132 2.057 . S
N137 C135 1.316 . S
N137 C136 1.375 . S
N138 C135 1.347 . S
N138 C139 1.373 . S
C139 C136 1.350 . S
C139 N138 1.373 . S
C139 H160 0.931 . S
H140 C135 0.931 . S
H141 C136 0.930 . S
C142 O149 1.259 . S
C142 O150 1.258 . S
N143 Co134 2.057 . S
N143 C144 1.316 . S
N143 C145 1.375 . S
C144 N143 1.316 . S
C144 N146 1.347 . S
C144 H155 0.931 . S
C145 N143 1.375 . S
C145 C147 1.350 . S
C145 H154 0.930 . S
N146 C144 1.347 . S
N146 C147 1.373 . S
C147 C145 1.350 . S
C147 N146 1.373 . S
C147 H161 0.931 . S
C148 O151 1.256 . S
C148 O152 1.255 . S
O149 Co132 2.021 . S
O149 C142 1.259 . S
O150 Co134 2.117 . S
O150 C142 1.258 . S
O151 Co134 2.020 . S
O151 C148 1.256 . S
O152 Co132 2.062 . S
O152 C148 1.255 . S
O153 C133 1.259 . S
O153 Co134 2.021 . S
H154 C145 0.930 . S
H155 C144 0.931 . S
O156 Co132 2.117 . S
O156 C133 1.258 . S
O157 Co132 2.020 . S
O157 C159 1.256 . S
O158 Co134 2.062 . S
O158 C159 1.255 . S
C159 O157 1.256 . S
C159 O158 1.255 . S
H160 C139 0.931 . S
H161 C147 0.931 . S
Co162 N167 2.057 . S
Co162 O179 2.021 . S
Co162 O182 2.062 . S
Co162 O186 2.117 1_455 S
Co162 O187 2.020 1_455 S
C163 O183 1.259 1_556 S
C163 O186 1.258 . S
Co164 N173 2.057 . S
Co164 O180 2.117 1_655 S
Co164 O181 2.020 1_655 S
Co164 O183 2.021 . S
Co164 O188 2.062 . S
C165 N167 1.316 . S
C165 N168 1.347 . S
C165 H170 0.931 . S
C166 N167 1.375 1_655 S
C166 C169 1.350 1_655 S
C166 H171 0.930 . S
N167 Co162 2.057 . S
N167 C165 1.316 . S
N167 C166 1.375 1_455 S
N168 C165 1.347 . S
N168 C169 1.373 . S
C169 C166 1.350 1_455 S
C169 N168 1.373 . S
C169 H190 0.931 1_455 S
H170 C165 0.931 . S
H171 C166 0.930 . S
C172 O179 1.259 1_554 S
C172 O180 1.258 . S
N173 Co164 2.057 . S
N173 C174 1.316 . S
N173 C175 1.375 1_655 S
C174 N173 1.316 . S
C174 N176 1.347 . S
C174 H185 0.931 . S
C175 N173 1.375 1_455 S
C175 C177 1.350 1_455 S
C175 H184 0.930 . S
N176 C174 1.347 . S
N176 C177 1.373 . S
C177 C175 1.350 1_655 S
C177 N176 1.373 . S
C177 H191 0.931 1_655 S
C178 O181 1.256 . S
C178 O182 1.255 1_554 S
O179 Co162 2.021 . S
O179 C172 1.259 1_556 S
O180 Co164 2.117 1_455 S
O180 C172 1.258 . S
O181 Co164 2.020 1_455 S
O181 C178 1.256 . S
O182 Co162 2.062 . S
O182 C178 1.255 1_556 S
O183 C163 1.259 1_554 S
O183 Co164 2.021 . S
H184 C175 0.930 . S
H185 C174 0.931 . S
O186 Co162 2.117 1_655 S
O186 C163 1.258 . S
O187 Co162 2.020 1_655 S
O187 C189 1.256 . S
O188 Co164 2.062 . S
O188 C189 1.255 1_554 S
C189 O187 1.256 . S
C189 O188 1.255 1_556 S
H190 C169 0.931 1_655 S
H191 C177 0.931 1_455 S
C192 C193 1.369 . S
C192 C194 1.419 . S
C192 H196 0.930 . S
C193 C192 1.369 . S
C193 C202 1.429 . S
C194 C192 1.419 . S
C194 C195 1.363 . S
C194 H197 0.929 . S
C195 C194 1.363 . S
C195 C201 1.428 . S
H196 C192 0.930 . S
H197 C194 0.929 . S
S198 N199 1.613 1_655 S
S198 N200 1.610 . S
N199 S198 1.613 1_455 S
N199 C202 1.350 . S
N200 S198 1.610 . S
N200 C201 1.351 1_655 S
C201 C195 1.428 . S
C201 N200 1.351 1_455 S
C201 C202 1.434 . S
C202 C193 1.429 . S
C202 N199 1.350 . S
C202 C201 1.434 . S
C203 C204 1.369 . S
C203 C205 1.419 . S
C203 H207 0.930 . S
C204 C203 1.369 . S
C204 C213 1.429 . S
C205 C203 1.419 . S
C205 C206 1.363 . S
C205 H208 0.929 1_565 S
C206 C205 1.363 . S
C206 C212 1.428 . S
H207 C203 0.930 . S
H208 C205 0.929 1_545 S
S209 N210 1.613 . S
S209 N211 1.610 . S
N210 S209 1.613 . S
N210 C213 1.350 . S
N211 S209 1.610 . S
N211 C212 1.351 . S
C212 C206 1.428 . S
C212 N211 1.351 . S
C212 C213 1.434 . S
C213 C204 1.429 . S
C213 N210 1.350 . S
C213 C212 1.434 . S
C214 C215 1.369 . S
C214 C216 1.419 . S
C214 H218 0.930 . S
C215 C214 1.369 . S
C215 C224 1.429 . S
C216 C214 1.419 . S
C216 C217 1.363 . S
C216 H219 0.929 . S
C217 C216 1.363 . S
C217 C223 1.428 . S
H218 C214 0.930 . S
H219 C216 0.929 . S
S220 N221 1.613 . S
S220 N222 1.610 . S
N221 S220 1.613 . S
N221 C224 1.350 . S
N222 S220 1.610 . S
N222 C223 1.351 . S
C223 C217 1.428 . S
C223 N222 1.351 . S
C223 C224 1.434 . S
C224 C215 1.429 . S
C224 N221 1.350 . S
C224 C223 1.434 . S
C225 C226 1.369 . S
C225 C227 1.419 . S
C225 H229 0.930 . S
C226 C225 1.369 . S
C226 C235 1.429 . S
C227 C225 1.419 . S
C227 C228 1.363 . S
C227 H230 0.929 . S
C228 C227 1.363 . S
C228 C234 1.428 . S
H229 C225 0.930 . S
H230 C227 0.929 . S
S231 N232 1.613 1_455 S
S231 N233 1.610 1_455 S
N232 S231 1.613 1_655 S
N232 C235 1.351 . S
N233 S231 1.610 1_655 S
N233 C234 1.351 . S
C234 C228 1.428 . S
C234 N233 1.351 . S
C234 C235 1.434 . S
C235 C226 1.429 . S
C235 N232 1.351 . S
C235 C234 1.434 . S
C236 C237 1.369 . S
C236 C238 1.419 . S
C236 H240 0.930 . S
C237 C236 1.369 . S
C237 C246 1.429 . S
C238 C236 1.419 . S
C238 C239 1.363 . S
C238 H241 0.929 . S
C239 C238 1.363 . S
C239 C245 1.428 . S
H240 C236 0.930 . S
H241 C238 0.929 . S
S242 N243 1.613 . S
S242 N244 1.610 . S
N243 S242 1.613 . S
N243 C246 1.350 1_556 S
N244 S242 1.610 . S
N244 C245 1.351 1_556 S
C245 C239 1.428 . S
C245 N244 1.351 1_554 S
C245 C246 1.434 . S
C246 C237 1.429 . S
C246 N243 1.350 1_554 S
C246 C245 1.434 . S
C247 C248 1.369 . S
C247 C249 1.419 . S
C247 H251 0.930 . S
C248 C247 1.369 . S
C248 C257 1.429 . S
C249 C247 1.419 . S
C249 C250 1.363 . S
C249 H252 0.929 . S
C250 C249 1.363 . S
C250 C256 1.428 . S
H251 C247 0.930 . S
H252 C249 0.929 . S
S253 N254 1.613 . S
S253 N255 1.610 . S
N254 S253 1.613 . S
N254 C257 1.350 . S
N255 S253 1.610 . S
N255 C256 1.351 . S
C256 C250 1.428 . S
C256 N255 1.351 . S
C256 C257 1.434 . S
C257 C248 1.429 . S
C257 N254 1.350 . S
C257 C256 1.434 . S
C258 C259 1.369 . S
C258 C260 1.419 . S
C258 H262 0.930 . S
C259 C258 1.369 . S
C259 C268 1.429 . S
C260 C258 1.419 . S
C260 C261 1.363 . S
C260 H263 0.929 . S
C261 C260 1.363 . S
C261 C267 1.428 . S
H262 C258 0.930 . S
H263 C260 0.929 . S
S264 N265 1.613 . S
S264 N266 1.610 . S
N265 S264 1.613 . S
N265 C268 1.350 . S
N266 S264 1.610 . S
N266 C267 1.351 . S
C267 C261 1.428 . S
C267 N266 1.351 . S
C267 C268 1.434 . S
C268 C259 1.429 . S
C268 N265 1.350 . S
C268 C267 1.434 . S
C269 C270 1.369 . S
C269 C271 1.419 . S
C269 H273 0.930 . S
C270 C269 1.369 . S
C270 C279 1.429 . S
C271 C269 1.419 . S
C271 C272 1.363 . S
C271 H274 0.929 . S
C272 C271 1.363 . S
C272 C278 1.428 . S
H273 C269 0.930 . S
H274 C271 0.929 . S
S275 N276 1.613 . S
S275 N277 1.610 . S
N276 S275 1.613 . S
N276 C279 1.350 . S
N277 S275 1.610 . S
N277 C278 1.351 . S
C278 C272 1.428 . S
C278 N277 1.351 . S
C278 C279 1.434 . S
C279 C270 1.429 . S
C279 N276 1.350 . S
C279 C278 1.434 . S
C280 C281 1.369 . S
C280 C282 1.419 . S
C280 H284 0.930 . S
C281 C280 1.369 . S
C281 C290 1.429 . S
C282 C280 1.419 . S
C282 C283 1.363 . S
C282 H285 0.929 . S
C283 C282 1.363 . S
C283 C289 1.428 . S
H284 C280 0.930 . S
H285 C282 0.929 . S
S286 N287 1.613 . S
S286 N288 1.610 . S
N287 S286 1.613 . S
N287 C290 1.350 1_655 S
N288 S286 1.610 . S
N288 C289 1.351 1_655 S
C289 C283 1.428 . S
C289 N288 1.351 1_455 S
C289 C290 1.434 . S
C290 C281 1.429 . S
C290 N287 1.350 1_455 S
C290 C289 1.434 . S
C291 C292 1.369 . S
C291 C293 1.419 . S
C291 H295 0.930 . S
C292 C291 1.369 . S
C292 C301 1.429 . S
C293 C291 1.419 . S
C293 C294 1.363 . S
C293 H296 0.929 . S
C294 C293 1.363 . S
C294 C300 1.428 . S
H295 C291 0.930 . S
H296 C293 0.929 . S
S297 N298 1.613 . S
S297 N299 1.610 . S
N298 S297 1.613 . S
N298 C301 1.350 . S
N299 S297 1.610 . S
N299 C300 1.351 . S
C300 C294 1.428 . S
C300 N299 1.351 . S
C300 C301 1.434 . S
C301 C292 1.429 . S
C301 N298 1.350 . S
C301 C300 1.434 . S
C302 C303 1.369 . S
C302 C304 1.419 . S
C302 H306 0.930 . S
C303 C302 1.369 . S
C303 C312 1.429 . S
C304 C302 1.419 . S
C304 C305 1.363 . S
C304 H307 0.929 . S
C305 C304 1.363 . S
C305 C311 1.428 . S
H306 C302 0.930 . S
H307 C304 0.929 . S
S308 N309 1.613 . S
S308 N310 1.610 . S
N309 S308 1.613 . S
N309 C312 1.350 . S
N310 S308 1.610 . S
N310 C311 1.351 . S
C311 C305 1.428 . S
C311 N310 1.351 . S
C311 C312 1.434 . S
C312 C303 1.429 . S
C312 N309 1.350 . S
C312 C311 1.434 . S
C313 C314 1.369 . S
C313 C315 1.419 . S
C313 H317 0.930 . S
C314 C313 1.369 . S
C314 C323 1.429 . S
C315 C313 1.419 . S
C315 C316 1.363 . S
C315 H318 0.929 . S
C316 C315 1.363 . S
C316 C322 1.428 . S
H317 C313 0.930 . S
H318 C315 0.929 . S
S319 N320 1.613 . S
S319 N321 1.610 . S
N320 S319 1.613 . S
N320 C323 1.350 . S
N321 S319 1.610 . S
N321 C322 1.351 . S
C322 C316 1.428 . S
C322 N321 1.351 . S
C322 C323 1.434 . S
C323 C314 1.429 . S
C323 N320 1.350 . S
C323 C322 1.434 . S
C324 C325 1.369 . S
C324 C326 1.419 . S
C324 H328 0.930 . S
C325 C324 1.369 . S
C325 C334 1.429 . S
C326 C324 1.419 . S
C326 C327 1.363 . S
C326 H329 0.929 . S
C327 C326 1.363 . S
C327 C333 1.428 . S
H328 C324 0.930 . S
H329 C326 0.929 . S
S330 N331 1.613 . S
S330 N332 1.610 . S
N331 S330 1.613 . S
N331 C334 1.350 1_545 S
N332 S330 1.610 . S
N332 C333 1.351 1_545 S
C333 C327 1.428 . S
C333 N332 1.351 1_565 S
C333 C334 1.434 . S
C334 C325 1.429 . S
C334 N331 1.350 1_565 S
C334 C333 1.434 . S
C335 C336 1.369 . S
C335 C337 1.419 . S
C335 H339 0.930 . S
C336 C335 1.369 . S
C336 C345 1.429 . S
C337 C335 1.419 . S
C337 C338 1.363 . S
C337 H340 0.929 . S
C338 C337 1.363 . S
C338 C344 1.428 . S
H339 C335 0.930 . S
H340 C337 0.929 . S
S341 N342 1.613 . S
S341 N343 1.610 . S
N342 S341 1.613 . S
N342 C345 1.350 . S
N343 S341 1.610 . S
N343 C344 1.351 . S
C344 C338 1.428 . S
C344 N343 1.351 . S
C344 C345 1.434 . S
C345 C336 1.429 . S
C345 N342 1.350 . S
C345 C344 1.434 . S
C346 C347 1.369 . S
C346 C348 1.419 . S
C346 H350 0.930 . S
C347 C346 1.369 . S
C347 C356 1.429 . S
C348 C346 1.419 . S
C348 C349 1.363 . S
C348 H351 0.929 . S
C349 C348 1.363 . S
C349 C355 1.428 . S
H350 C346 0.930 . S
H351 C348 0.929 . S
S352 N353 1.613 . S
S352 N354 1.610 . S
N353 S352 1.613 . S
N353 C356 1.350 . S
N354 S352 1.610 . S
N354 C355 1.351 . S
C355 C349 1.428 . S
C355 N354 1.351 . S
C355 C356 1.434 . S
C356 C347 1.429 . S
C356 N353 1.350 . S
C356 C355 1.434 . S
C357 C358 1.369 . S
C357 C359 1.419 . S
C357 H361 0.930 1_455 S
C358 C357 1.369 . S
C358 C367 1.429 . S
C359 C357 1.419 . S
C359 C360 1.363 . S
C359 H362 0.929 . S
C360 C359 1.363 . S
C360 C366 1.428 . S
H361 C357 0.930 1_655 S
H362 C359 0.929 . S
S363 N364 1.613 . S
S363 N365 1.610 . S
N364 S363 1.613 . S
N364 C367 1.350 . S
N365 S363 1.610 . S
N365 C366 1.351 . S
C366 C360 1.428 . S
C366 N365 1.351 . S
C366 C367 1.434 . S
C367 C358 1.429 . S
C367 N364 1.350 . S
C367 C366 1.434 . S
C368 C369 1.369 . S
C368 C370 1.419 . S
C368 H372 0.942 . S
C369 C368 1.369 . S
C369 C378 1.429 . S
C370 C368 1.419 . S
C370 C371 1.363 . S
C370 H373 0.929 1_556 S
C371 C370 1.363 . S
C371 C377 1.428 . S
H372 C368 0.942 . S
H373 C370 0.929 1_554 S
S374 N375 1.613 . S
S374 N376 1.610 . S
N375 S374 1.613 . S
N375 C378 1.350 . S
N376 S374 1.610 . S
N376 C377 1.351 . S
C377 C371 1.428 . S
C377 N376 1.351 . S
C377 C378 1.434 . S
C378 C369 1.429 . S
C378 N375 1.350 . S
C378 C377 1.434 . S
C379 C380 1.369 . S
C379 C381 1.419 . S
C379 H383 0.930 . S
C380 C379 1.369 . S
C380 C389 1.429 . S
C381 C379 1.419 . S
C381 C382 1.363 . S
C381 H384 0.929 . S
C382 C381 1.363 . S
C382 C388 1.428 . S
H383 C379 0.930 . S
H384 C381 0.929 . S
S385 N386 1.613 . S
S385 N387 1.610 . S
N386 S385 1.613 . S
N386 C389 1.350 . S
N387 S385 1.610 . S
N387 C388 1.351 . S
C388 C382 1.428 . S
C388 N387 1.351 . S
C388 C389 1.434 . S
C389 C380 1.429 . S
C389 N386 1.350 . S
C389 C388 1.434 . S
C390 C391 1.369 . S
C390 C392 1.419 . S
C390 H394 0.930 . S
C391 C390 1.369 . S
C391 C400 1.429 . S
C392 C390 1.419 . S
C392 C393 1.363 . S
C392 H395 0.929 1_554 S
C393 C392 1.363 . S
C393 C399 1.428 . S
H394 C390 0.930 . S
H395 C392 0.929 1_556 S
S396 N397 1.613 . S
S396 N398 1.610 . S
N397 S396 1.613 . S
N397 C400 1.350 . S
N398 S396 1.610 . S
N398 C399 1.351 . S
C399 C393 1.428 . S
C399 N398 1.351 . S
C399 C400 1.434 . S
C400 C391 1.429 . S
C400 N397 1.350 . S
C400 C399 1.434 . S
C401 C402 1.369 . S
C401 C403 1.419 . S
C401 H405 0.930 . S
C402 C401 1.369 . S
C402 C411 1.429 . S
C403 C401 1.419 . S
C403 C404 1.363 . S
C403 H406 0.929 . S
C404 C403 1.363 . S
C404 C410 1.428 . S
H405 C401 0.930 . S
H406 C403 0.929 . S
S407 N408 1.613 . S
S407 N409 1.610 . S
N408 S407 1.613 . S
N408 C411 1.350 . S
N409 S407 1.610 . S
N409 C410 1.351 . S
C410 C404 1.428 . S
C410 N409 1.351 . S
C410 C411 1.434 . S
C411 C402 1.429 . S
C411 N408 1.350 . S
C411 C410 1.434 . S
C412 C413 1.369 . S
C412 C414 1.419 . S
C412 H416 0.930 . S
C413 C412 1.369 . S
C413 C422 1.429 . S
C414 C412 1.419 . S
C414 C415 1.363 . S
C414 H417 0.929 1_655 S
C415 C414 1.363 . S
C415 C421 1.428 . S
H416 C412 0.930 . S
H417 C414 0.929 1_455 S
S418 N419 1.613 . S
S418 N420 1.610 . S
N419 S418 1.613 . S
N419 C422 1.350 . S
N420 S418 1.610 . S
N420 C421 1.351 . S
C421 C415 1.428 . S
C421 N420 1.351 . S
C421 C422 1.434 . S
C422 C413 1.429 . S
C422 N419 1.350 . S
C422 C421 1.434 . S
C423 C424 1.369 . S
C423 C425 1.419 . S
C423 H427 0.930 . S
C424 C423 1.369 . S
C424 C433 1.429 . S
C425 C423 1.419 . S
C425 C426 1.363 . S
C425 H428 0.929 . S
C426 C425 1.363 . S
C426 C432 1.428 . S
H427 C423 0.930 . S
H428 C425 0.929 . S
S429 N430 1.613 1_556 S
S429 N431 1.610 . S
N430 S429 1.613 1_554 S
N430 C433 1.350 . S
N431 S429 1.610 . S
N431 C432 1.351 1_556 S
C432 C426 1.428 . S
C432 N431 1.351 1_554 S
C432 C433 1.434 . S
C433 C424 1.429 . S
C433 N430 1.350 . S
C433 C432 1.434 . S
C434 C435 1.369 . S
C434 C436 1.419 . S
C434 H438 0.930 . S
C435 C434 1.369 . S
C435 C444 1.429 . S
C436 C434 1.419 . S
C436 C437 1.363 . S
C436 H439 0.929 . S
C437 C436 1.363 . S
C437 C443 1.428 . S
H438 C434 0.930 . S
H439 C436 0.929 . S
S440 N441 1.613 . S
S440 N442 1.610 . S
N441 S440 1.613 . S
N441 C444 1.350 . S
N442 S440 1.610 . S
N442 C443 1.351 . S
C443 C437 1.428 . S
C443 N442 1.351 . S
C443 C444 1.434 . S
C444 C435 1.429 . S
C444 N441 1.350 . S
C444 C443 1.434 . S
C445 C446 1.369 . S
C445 C447 1.419 . S
C445 H449 0.930 . S
C446 C445 1.369 . S
C446 C455 1.429 . S
C447 C445 1.419 . S
C447 C448 1.363 . S
C447 H450 0.929 . S
C448 C447 1.363 . S
C448 C454 1.428 . S
H449 C445 0.930 . S
H450 C447 0.929 . S
S451 N452 1.613 . S
S451 N453 1.610 . S
N452 S451 1.613 . S
N452 C455 1.350 . S
N453 S451 1.610 . S
N453 C454 1.351 . S
C454 C448 1.428 . S
C454 N453 1.351 . S
C454 C455 1.434 . S
C455 C446 1.429 . S
C455 N452 1.350 . S
C455 C454 1.434 . S
C193 C5 2.083 . S
C195 C88 2.098 . S
C204 C14 1.137 . S
C206 N108 1.109 . S
C217 C142 1.976 . S
C215 C25 1.973 . S
C226 C34 1.266 . S
C228 N176 1.195 . S
C239 C129 2.224 . S
C237 C7 2.214 . S
C250 N86 1.130 . S
C248 C13 1.160 . S
C261 C163 2.035 . S
C259 C23 2.029 . S
C272 N138 1.026 . S
C270 C31 1.021 . S
C281 C4 1.753 . S
C283 C178 1.764 . S
C294 C112 1.697 . S
C292 C22 1.681 . S
C303 C32 1.348 . S
C305 C73 1.371 . S
C314 C16 1.343 . S
C316 C159 1.359 . S
C327 C99 2.086 . S
C325 C41 2.072 . S
C336 C50 1.142 . S
C338 N116 1.124 . S
C347 C61 1.964 . S
C349 C133 1.974 . S
C358 C67 1.264 . S
C360 N168 1.208 . S
C369 C40 2.225 . S
C371 C118 2.236 . S
C382 N78 1.107 . S
C380 C52 1.147 . S
C393 C172 2.037 . S
C391 C59 2.026 . S
C404 N146 1.029 . S
C402 C70 1.024 . S
C413 C43 1.746 . S
C415 C189 1.761 . S
C426 C103 1.701 . S
C424 C58 1.686 . S
C437 C82 1.364 . S
C435 C68 1.335 . S
C446 C49 1.351 . S
C448 C148 1.367 . S
