# Generated by pormake.
# Topology pyr, (3,6)-cn, num edge types: 1
# Building blocks:
#     Node 0, Type 0, BuildingBlock: INOVEN_clean_linker_0, # of connection points: 3
#     Node 1, Type 0, BuildingBlock: INOVEN_clean_linker_0, # of connection points: 3
#     Node 2, Type 0, BuildingBlock: INOVEN_clean_linker_0, # of connection points: 3
#     Node 3, Type 0, BuildingBlock: INOVEN_clean_linker_0, # of connection points: 3
#     Node 4, Type 0, BuildingBlock: INOVEN_clean_linker_0, # of connection points: 3
#     Node 5, Type 0, BuildingBlock: INOVEN_clean_linker_0, # of connection points: 3
#     Node 6, Type 0, BuildingBlock: INOVEN_clean_linker_0, # of connection points: 3
#     Node 7, Type 0, BuildingBlock: INOVEN_clean_linker_0, # of connection points: 3
#     Node 8, Type 1, BuildingBlock: BETGAK_clean_sbu_0, # of connection points: 6
#     Node 9, Type 1, BuildingBlock: BETGAK_clean_sbu_0, # of connection points: 6
#     Node 10, Type 1, BuildingBlock: BETGAK_clean_sbu_0, # of connection points: 6
#     Node 11, Type 1, BuildingBlock: BETGAK_clean_sbu_0, # of connection points: 6
#     Edge 12, Type (0, 1), None
#     Edge 13, Type (0, 1), None
#     Edge 14, Type (0, 1), None
#     Edge 15, Type (0, 1), None
#     Edge 16, Type (0, 1), None
#     Edge 17, Type (0, 1), None
#     Edge 18, Type (0, 1), None
#     Edge 19, Type (0, 1), None
#     Edge 20, Type (0, 1), None
#     Edge 21, Type (0, 1), None
#     Edge 22, Type (0, 1), None
#     Edge 23, Type (0, 1), None
#     Edge 24, Type (0, 1), None
#     Edge 25, Type (0, 1), None
#     Edge 26, Type (0, 1), None
#     Edge 27, Type (0, 1), None
#     Edge 28, Type (0, 1), None
#     Edge 29, Type (0, 1), None
#     Edge 30, Type (0, 1), None
#     Edge 31, Type (0, 1), None
#     Edge 32, Type (0, 1), None
#     Edge 33, Type (0, 1), None
#     Edge 34, Type (0, 1), None
#     Edge 35, Type (0, 1), None
# Relax obj value: 0.436
# Max RMSD: 0.253
# Mean RMSD: 0.151
data_MOF--net-pyr--node1-BETGAK_clean_sbu_0--node2-INOVEN_clean_linker_0--edge1-none
_symmetry_space_group_name_H-M    P1
_symmetry_Int_Tables_number       1
_symmetry_cell_setting            triclinic
loop_
_symmetry_equiv_pos_as_xyz
'x, y, z'
_cell_length_a     17.459733
_cell_length_b     17.595651
_cell_length_c     16.391446
_cell_angle_alpha  92.079194
_cell_angle_beta   89.319417
_cell_angle_gamma 115.12875
loop_
_atom_site_label
_atom_site_type_symbol
_atom_site_fract_x
_atom_site_fract_y
_atom_site_fract_z
_atom_type_partial_charge
H0 H 0.41293 0.43495 0.54284 0.0
H1 H 0.61444 0.36273 0.48063 0.0
H2 H 0.50576 0.45643 0.29921 0.0
N3 N 0.3983 0.48448 0.39166 0.0
N4 N 0.35092 0.50282 0.43786 0.0
C5 C 0.45987 0.43266 0.50026 0.0
C6 C 0.51992 0.40286 0.52446 0.0
C7 C 0.45939 0.45819 0.42014 0.0
C8 C 0.51307 0.44627 0.36303 0.0
C9 C 0.56529 0.40794 0.38471 0.0
C10 C 0.57341 0.39234 0.46556 0.0
H11 H 0.17648 0.98275 0.69119 0.0
H12 H 0.30075 1.01111 0.9219 0.0
H13 H 0.0649 1.03142 0.9098 0.0
N14 N 0.05857 1.03103 0.75 0.0
N15 N 1.04899 1.09984 0.76275 0.0
C16 C 0.1764 0.99026 0.75709 0.0
C17 C 0.24267 0.98846 0.8036 0.0
C18 C 0.11441 1.00986 0.79611 0.0
C19 C 0.11443 1.0189 0.88066 0.0
C20 C 0.18338 1.02434 0.92605 0.0
C21 C 0.24587 1.00601 0.88772 0.0
H22 H 0.60101 0.47195 0.97636 0.0
H23 H 0.78548 0.49999 0.1603 0.0
H24 H 0.8271 0.70378 0.99805 0.0
N25 N 0.67515 0.61784 0.90801 0.0
N26 N 0.68286 0.69084 0.89351 0.0
C27 C 0.66043 0.51024 1.00685 0.0
C28 C 0.68631 0.47647 1.07295 0.0
C29 C 0.70801 0.59275 0.97943 0.0
C30 C 0.78783 0.6417 1.01942 0.0
C31 C 0.8184 0.60816 1.08469 0.0
C32 C 0.76496 0.52629 1.11085 0.0
H33 H 0.77823 0.76882 0.50212 0.0
H34 H 0.82903 0.99604 0.63971 0.0
H35 H 1.01822 0.98615 0.47269 0.0
N36 N 0.92133 0.81947 0.41404 0.0
N37 N 0.98581 0.84323 0.36819 0.0
C38 C 0.82006 0.83386 0.51627 0.0
C39 C 0.79506 0.87893 0.5772 0.0
C40 C 0.90026 0.8713 0.47508 0.0
C41 C 0.95592 0.95657 0.49948 0.0
C42 C 0.93012 1.00278 0.55972 0.0
C43 C 0.84956 0.96247 0.59438 0.0
H44 H 0.53006 0.93637 0.98294 0.0
H45 H 0.70371 0.83792 0.95161 0.0
H46 H 0.74951 1.02965 0.14016 0.0
N47 N 0.61953 1.0599 1.08913 0.0
N48 N 0.56915 1.07684 1.04808 0.0
C49 C 0.58707 0.93364 1.00493 0.0
C50 C 0.63594 0.91378 0.94831 0.0
C51 C 0.63305 0.98748 1.06994 0.0
C52 C 0.70934 0.98445 1.0948 0.0
C53 C 0.73688 0.92889 1.05205 0.0
C54 C 0.68705 0.88197 0.98544 0.0
H55 H 0.93813 0.40009 0.35812 0.0
H56 H 0.08669 0.28509 0.45925 0.0
H57 H 1.03989 0.47393 0.59796 0.0
N58 N 0.93191 0.48232 0.49907 0.0
N59 N 0.87576 0.48143 0.45237 0.0
C60 C 0.98055 0.39924 0.40548 0.0
C61 C 1.02134 0.34525 0.39651 0.0
C62 C 0.98782 0.44558 0.4784 0.0
C63 C 1.03805 0.44022 0.54069 0.0
C64 C 0.06938 0.37887 0.53632 0.0
C65 C 0.06538 0.33473 0.46243 0.0
H66 H 0.54414 1.03249 0.40251 0.0
H67 H 0.36704 0.99907 0.20896 0.0
H68 H 0.32807 0.79454 0.36711 0.0
N69 N 0.47114 0.87913 0.46045 0.0
N70 N 0.46037 0.80438 0.46953 0.0
C71 C 0.48731 0.99352 0.36848 0.0
C72 C 0.46245 1.02846 0.3024 0.0
C73 C 0.44154 0.90853 0.39097 0.0
C74 C 0.36537 0.85808 0.34812 0.0
C75 C 0.33528 0.8907 0.28358 0.0
C76 C 0.38671 0.97492 0.2601 0.0
H77 H 0.13661 0.49502 0.90957 0.0
H78 H 0.31234 0.49134 0.72269 0.0
H79 H 0.36214 0.72065 0.85669 0.0
N80 N 0.22624 0.66769 0.9556 0.0
N81 N 0.16464 0.64424 1.00537 0.0
C82 C 0.19467 0.52704 0.87604 0.0
C83 C 0.21866 0.48089 0.8138 0.0
C84 C 0.24644 0.6152 0.89381 0.0
C85 C 0.32231 0.65449 0.84574 0.0
C86 C 0.34594 0.60991 0.78268 0.0
C87 C 0.29361 0.52463 0.76988 0.0
La88 La 0.14835 0.22597 0.68005 0.0
La89 La 0.99938 0.23792 0.72897 0.0
C90 C 0.27741 0.21035 0.63342 0.0
C91 C 0.36407 0.24783 0.66316 0.0
C92 C 0.41927 0.2187 0.6262 0.0
C93 C 0.49674 0.2775 0.59905 0.0
C94 C 0.51176 0.36285 0.60392 0.0
C95 C 0.47327 0.38884 0.66788 0.0
C96 C 0.39646 0.33006 0.69708 0.0
C97 C 0.09396 0.16473 0.82593 0.0
C98 C 0.16847 0.38881 0.78574 0.0
C99 C 0.85714 0.2079 0.78736 0.0
C100 C 0.79079 1.12784 0.80984 0.0
C101 C 0.71618 1.12432 0.84382 0.0
C102 C 0.66164 1.052 0.88195 0.0
C103 C 0.68125 0.98191 0.88835 0.0
C104 C 0.7527 0.98438 0.84598 0.0
C105 C 0.80726 1.05661 0.80785 0.0
C106 C 0.07603 0.34259 0.6131 0.0
C107 C 0.98413 1.08959 0.59726 0.0
O108 O 0.22186 0.15795 0.68151 0.0
O109 O 0.25176 0.26305 0.60161 0.0
O110 O 0.16781 0.22284 0.8109 0.0
O111 O 1.04978 1.15353 0.7628 0.0
O112 O 0.20155 0.3572 0.7275 0.0
O113 O 0.08936 0.34312 0.80816 0.0
O114 O 0.87332 0.21707 0.70925 0.0
O115 O 0.92565 0.23049 0.83181 0.0
O116 O 1.0399 0.35862 0.67634 0.0
O117 O 0.06828 0.26812 0.61639 0.0
O118 O 0.94592 1.12649 0.64431 0.0
O119 O 0.06735 1.1213 0.59695 0.0
H120 H 0.39682 1.15398 0.60415 0.0
H121 H 0.53113 0.2548 0.55692 0.0
H122 H 0.48899 0.45492 0.6788 0.0
H123 H 0.35575 0.35238 0.73057 0.0
H124 H 0.70194 0.17858 0.84434 0.0
H125 H 0.60442 1.05206 0.90685 0.0
H126 H 0.76895 0.93192 0.8449 0.0
H127 H 0.86507 1.05847 0.78131 0.0
La128 La 0.6445 0.25805 0.21433 0.0
La129 La 0.49993 0.25726 0.16594 0.0
C130 C 0.79541 0.27701 0.21398 0.0
C131 C 0.85882 0.24495 0.22552 0.0
C132 C 0.85028 0.19281 0.29095 0.0
C133 C 0.91982 0.21133 0.34192 0.0
C134 C 0.99438 0.28372 0.32795 0.0
C135 C 1.00884 0.31645 0.24973 0.0
C136 C 0.93994 0.29702 0.19792 0.0
C137 C 0.51624 1.12023 0.27883 0.0
C138 C 0.57519 0.35137 0.32454 0.0
C139 C 0.35436 0.25248 0.1572 0.0
C140 C 0.27741 0.18047 1.1347 0.0
C141 C 0.21979 0.19353 1.08575 0.0
C142 C 0.18067 1.13664 1.02193 0.0
C143 C 0.20005 1.06728 1.007 0.0
C144 C 0.24645 1.04787 1.06534 0.0
C145 C 0.28261 1.10327 1.13066 0.0
C146 C 0.63074 0.38847 1.10101 0.0
C147 C 0.56298 1.15298 1.0625 0.0
O148 O 0.74796 0.25428 0.14897 0.0
O149 O 0.75596 0.28702 0.27882 0.0
O150 O 0.5883 0.16733 0.31259 0.0
O151 O 0.51797 1.14986 0.20897 0.0
O152 O 0.64768 0.36117 0.29331 0.0
O153 O 0.50618 0.29497 0.29215 0.0
O154 O 0.40886 0.27478 1.09762 0.0
O155 O 0.3889 0.24728 0.22545 0.0
O156 O 0.56284 0.33812 1.06323 0.0
O157 O 0.62474 0.36362 0.17343 0.0
O158 O 0.49168 1.14895 1.09286 0.0
O159 O 0.63157 0.21754 1.08659 0.0
H160 H 0.78811 1.15011 0.31159 0.0
H161 H 0.90873 0.18269 0.40094 0.0
H162 H 0.06727 0.37005 0.23645 0.0
H163 H 0.94787 0.33591 0.14581 0.0
H164 H 0.21517 0.25309 1.08864 0.0
H165 H 0.14414 1.15329 0.97938 0.0
H166 H 0.25942 0.99304 1.05761 0.0
H167 H 0.32658 1.09298 0.16929 0.0
La168 La 0.56538 0.67774 0.64154 0.0
La169 La 0.57895 0.8206 0.71809 0.0
C170 C 0.64752 0.60541 0.58046 0.0
C171 C 0.69581 0.56283 0.54473 0.0
C172 C 0.71779 0.57148 0.46181 0.0
C173 C 0.77577 0.54236 0.43058 0.0
C174 C 0.81471 0.50815 0.48289 0.0
C175 C 0.79198 0.49943 0.56591 0.0
C176 C 0.73299 0.52666 0.59652 0.0
C177 C 0.42237 0.64723 0.7255 0.0
C178 C 0.64506 0.71006 0.82202 0.0
C179 C 0.53204 0.92707 0.77669 0.0
C180 C 0.45924 0.94552 0.76056 0.0
C181 C 0.46773 1.02795 0.7715 0.0
C182 C 0.39588 1.04375 0.77461 0.0
C183 C 0.31478 0.97714 0.76722 0.0
C184 C 0.30681 0.89585 0.74812 0.0
C185 C 0.37883 0.88012 0.74433 0.0
C186 C 0.71773 0.84298 0.63192 0.0
C187 C 0.49244 0.78 0.54048 0.0
O188 O 0.56718 0.5825 0.56376 0.0
O189 O 0.67969 0.66475 0.63682 0.0
O190 O 0.42828 0.60813 0.65773 0.0
O191 O 0.49759 0.69486 0.74767 0.0
O192 O 0.61022 0.65386 0.76163 0.0
O193 O 0.64246 0.78437 0.81732 0.0
O194 O 0.59043 0.94501 0.72073 0.0
O195 O 0.51481 0.85521 0.80965 0.0
O196 O 0.71661 0.87424 0.70467 0.0
O197 O 0.6413 0.80332 0.60974 0.0
O198 O 0.50298 0.82231 0.61069 0.0
O199 O 0.51669 0.71825 0.53508 0.0
H200 H 0.69098 0.60158 0.42174 0.0
H201 H 0.7922 0.5488 0.36648 0.0
H202 H 0.82032 0.47197 0.60728 0.0
H203 H 0.71808 0.52163 0.66106 0.0
H204 H 0.52919 1.07924 0.78333 0.0
H205 H 0.40313 1.10681 0.79039 0.0
H206 H 0.24487 0.84354 0.7436 0.0
H207 H 0.37107 0.81601 0.73466 0.0
La208 La 0.06073 0.68086 0.23917 0.0
La209 La 0.09173 0.80802 0.13852 0.0
C210 C 0.07975 0.56783 0.31488 0.0
C211 C 0.15472 0.55789 0.34499 0.0
C212 C 0.17923 0.57491 0.42756 0.0
C213 C 0.24438 0.55711 0.45768 0.0
C214 C 0.28789 0.5245 0.40542 0.0
C215 C 0.2662 0.51124 0.32198 0.0
C216 C 0.20023 0.52749 0.29227 0.0
C217 C 1.0017 0.78654 0.30908 0.0
C218 C 0.24813 0.83972 0.24416 0.0
C219 C 0.06413 0.92418 1.08445 0.0
C220 C 0.98363 0.93133 1.07777 0.0
C221 C 0.94224 0.9125 1.0028 0.0
C222 C 0.86428 0.91388 0.99513 0.0
C223 C 0.82259 0.931 1.06292 0.0
C224 C 0.86445 0.95059 0.13871 0.0
C225 C 0.94462 0.95108 0.14606 0.0
C226 C 0.14945 0.70186 1.06469 0.0
C227 C 0.90656 0.65489 1.1245 0.0
O228 O 0.07007 0.56579 0.23593 0.0
O229 O 0.06219 0.62577 0.35082 0.0
O230 O 0.96287 0.70514 0.30943 0.0
O231 O 0.07104 0.8051 0.26992 0.0
O232 O 0.19848 0.76229 0.26688 0.0
O233 O 0.21862 0.87438 0.19044 0.0
O234 O 0.07431 0.86782 1.03667 0.0
O235 O 0.09181 0.92608 0.15834 0.0
O236 O 0.18493 0.78345 1.06067 0.0
O237 O 0.08168 0.68234 1.10745 0.0
O238 O 0.95577 0.73309 1.10635 0.0
O239 O 0.93637 0.61715 0.1759 0.0
H240 H 0.14634 0.59962 0.4695 0.0
H241 H 0.26028 0.56788 0.52203 0.0
H242 H 0.29873 0.4863 0.27986 0.0
H243 H 0.18404 0.51467 0.2281 0.0
H244 H 0.96935 0.89502 0.94962 0.0
H245 H 0.83779 0.90035 0.93481 0.0
H246 H 0.83494 0.96396 0.19238 0.0
H247 H 0.97497 0.96509 0.20545 0.0
loop_
_geom_bond_atom_site_label_1
_geom_bond_atom_site_label_2
_geom_bond_distance
_geom_bond_site_symmetry_2
_ccdc_geom_bond_type
H0 C5 0.929 . S
H1 C10 0.931 . S
H2 C8 0.930 . S
N3 N4 1.234 . S
N3 C7 1.453 . S
N4 N3 1.234 . S
C5 H0 0.929 . S
C5 C6 1.373 . S
C5 C7 1.368 . S
C6 C5 1.373 . S
C6 C10 1.397 . S
C7 N3 1.453 . S
C7 C5 1.368 . S
C7 C8 1.373 . S
C8 H2 0.930 . S
C8 C7 1.373 . S
C8 C9 1.371 . S
C9 C8 1.371 . S
C9 C10 1.383 . S
C10 H1 0.931 . S
C10 C6 1.397 . S
C10 C9 1.383 . S
H11 C16 0.929 . S
H12 C21 0.931 . S
H13 C19 0.930 . S
N14 N15 1.234 1_455 S
N14 C18 1.453 . S
N15 N14 1.234 1_655 S
C16 H11 0.929 . S
C16 C17 1.373 . S
C16 C18 1.368 . S
C17 C16 1.373 . S
C17 C21 1.397 . S
C18 N14 1.453 . S
C18 C16 1.368 . S
C18 C19 1.373 . S
C19 H13 0.930 . S
C19 C18 1.373 . S
C19 C20 1.371 . S
C20 C19 1.371 . S
C20 C21 1.383 . S
C21 H12 0.931 . S
C21 C17 1.397 . S
C21 C20 1.383 . S
H22 C27 0.929 . S
H23 C32 0.931 1_554 S
H24 C30 0.930 . S
N25 N26 1.234 . S
N25 C29 1.453 . S
N26 N25 1.234 . S
C27 H22 0.929 . S
C27 C28 1.373 . S
C27 C29 1.368 . S
C28 C27 1.373 . S
C28 C32 1.397 . S
C29 N25 1.453 . S
C29 C27 1.368 . S
C29 C30 1.373 . S
C30 H24 0.930 . S
C30 C29 1.373 . S
C30 C31 1.371 . S
C31 C30 1.371 . S
C31 C32 1.383 . S
C32 H23 0.931 1_556 S
C32 C28 1.397 . S
C32 C31 1.383 . S
H33 C38 0.929 . S
H34 C43 0.931 . S
H35 C41 0.930 . S
N36 N37 1.234 . S
N36 C40 1.453 . S
N37 N36 1.234 . S
C38 H33 0.929 . S
C38 C39 1.373 . S
C38 C40 1.368 . S
C39 C38 1.373 . S
C39 C43 1.397 . S
C40 N36 1.453 . S
C40 C38 1.368 . S
C40 C41 1.373 . S
C41 H35 0.930 . S
C41 C40 1.373 . S
C41 C42 1.371 . S
C42 C41 1.371 . S
C42 C43 1.383 . S
C43 H34 0.931 . S
C43 C39 1.397 . S
C43 C42 1.383 . S
H44 C49 0.929 . S
H45 C54 0.931 . S
H46 C52 0.930 . S
N47 N48 1.234 . S
N47 C51 1.453 . S
N48 N47 1.234 . S
C49 H44 0.929 . S
C49 C50 1.373 . S
C49 C51 1.368 . S
C50 C49 1.373 . S
C50 C54 1.397 . S
C51 N47 1.453 . S
C51 C49 1.368 . S
C51 C52 1.373 . S
C52 H46 0.930 . S
C52 C51 1.373 . S
C52 C53 1.371 . S
C53 C52 1.371 . S
C53 C54 1.383 . S
C54 H45 0.931 . S
C54 C50 1.397 . S
C54 C53 1.383 . S
H55 C60 0.929 . S
H56 C65 0.931 . S
H57 C63 0.930 . S
N58 N59 1.234 . S
N58 C62 1.453 . S
N59 N58 1.234 . S
C60 H55 0.929 . S
C60 C61 1.373 . S
C60 C62 1.368 . S
C61 C60 1.373 . S
C61 C65 1.397 . S
C62 N58 1.453 . S
C62 C60 1.368 . S
C62 C63 1.373 . S
C63 H57 0.930 . S
C63 C62 1.373 . S
C63 C64 1.371 . S
C64 C63 1.371 . S
C64 C65 1.383 . S
C65 H56 0.931 . S
C65 C61 1.397 . S
C65 C64 1.383 . S
H66 C71 0.929 . S
H67 C76 0.931 . S
H68 C74 0.930 . S
N69 N70 1.234 . S
N69 C73 1.453 . S
N70 N69 1.234 . S
C71 H66 0.929 . S
C71 C72 1.373 . S
C71 C73 1.368 . S
C72 C71 1.373 . S
C72 C76 1.397 . S
C73 N69 1.453 . S
C73 C71 1.368 . S
C73 C74 1.373 . S
C74 H68 0.930 . S
C74 C73 1.373 . S
C74 C75 1.371 . S
C75 C74 1.371 . S
C75 C76 1.383 . S
C76 H67 0.931 . S
C76 C72 1.397 . S
C76 C75 1.383 . S
H77 C82 0.929 . S
H78 C87 0.931 . S
H79 C85 0.930 . S
N80 N81 1.234 . S
N80 C84 1.453 . S
N81 N80 1.234 . S
C82 H77 0.929 . S
C82 C83 1.373 . S
C82 C84 1.368 . S
C83 C82 1.373 . S
C83 C87 1.397 . S
C84 N80 1.453 . S
C84 C82 1.368 . S
C84 C85 1.373 . S
C85 H79 0.930 . S
C85 C84 1.373 . S
C85 C86 1.371 . S
C86 C85 1.371 . S
C86 C87 1.383 . S
C87 H78 0.931 . S
C87 C83 1.397 . S
C87 C86 1.383 . S
La88 C90 2.928 . S
La88 O108 2.521 . S
La88 O109 2.628 . S
La88 O110 2.554 1_545 S
La88 O111 2.757 1_545 S
La88 O112 2.470 . S
La88 O117 2.482 1_455 S
La88 O119 2.503 1_445 S
La89 C99 2.928 1_545 S
La89 O111 2.482 1_645 S
La89 O113 2.503 1_655 S
La89 O114 2.521 1_545 S
La89 O115 2.628 1_545 S
La89 O116 2.554 . S
La89 O117 2.757 . S
La89 O118 2.470 1_545 S
C90 La88 2.928 . S
C90 C91 1.503 . S
C90 O108 1.261 . S
C90 O109 1.243 . S
C91 C90 1.503 . S
C91 C92 1.394 . S
C91 C96 1.373 . S
C92 C91 1.394 . S
C92 C93 1.380 . S
C92 H120 0.930 . S
C93 C92 1.380 . S
C93 C94 1.376 . S
C93 H121 0.930 . S
C94 C93 1.376 . S
C94 C95 1.370 . S
C95 C94 1.370 . S
C95 C96 1.396 . S
C95 H122 0.929 . S
C96 C91 1.373 . S
C96 C95 1.396 . S
C96 H123 0.929 . S
C97 O110 1.240 . S
C97 O111 1.289 . S
C98 O112 1.258 . S
C98 O113 1.256 . S
C99 La89 2.928 1_565 S
C99 C100 1.503 . S
C99 O114 1.261 . S
C99 O115 1.243 . S
C100 C99 1.503 . S
C100 C101 1.394 . S
C100 C105 1.373 . S
C101 C100 1.394 . S
C101 C102 1.380 . S
C101 H124 0.930 . S
C102 C101 1.380 . S
C102 C103 1.376 . S
C102 H125 0.930 . S
C103 C102 1.376 . S
C103 C104 1.370 . S
C104 C103 1.370 . S
C104 C105 1.396 . S
C104 H126 0.929 . S
C105 C100 1.373 . S
C105 C104 1.396 . S
C105 H127 0.929 . S
C106 O116 1.240 . S
C106 O117 1.289 . S
C107 O118 1.258 . S
C107 O119 1.256 . S
O108 La88 2.521 . S
O108 C90 1.261 . S
O109 La88 2.628 . S
O109 C90 1.243 . S
O110 La88 2.554 1_565 S
O110 C97 1.240 . S
O111 La88 2.757 1_565 S
O111 La89 2.482 1_465 S
O111 C97 1.289 . S
O112 La88 2.470 . S
O112 C98 1.258 . S
O113 La89 2.503 1_455 S
O113 C98 1.256 . S
O114 La89 2.521 1_565 S
O114 C99 1.261 . S
O115 La89 2.628 1_565 S
O115 C99 1.243 . S
O116 La89 2.554 . S
O116 C106 1.240 . S
O117 La88 2.482 1_655 S
O117 La89 2.757 . S
O117 C106 1.289 . S
O118 La89 2.470 1_565 S
O118 C107 1.258 . S
O119 La88 2.503 1_665 S
O119 C107 1.256 . S
H120 C92 0.930 . S
H121 C93 0.930 . S
H122 C95 0.929 . S
H123 C96 0.929 . S
H124 C101 0.930 . S
H125 C102 0.930 . S
H126 C104 0.929 . S
H127 C105 0.929 . S
La128 C130 2.928 . S
La128 O148 2.521 . S
La128 O149 2.628 . S
La128 O150 2.554 1_545 S
La128 O151 2.757 1_545 S
La128 O152 2.470 . S
La128 O157 2.482 . S
La128 O159 2.503 1_545 S
La129 C139 2.928 1_544 S
La129 O151 2.482 1_545 S
La129 O153 2.503 . S
La129 O154 2.521 1_554 S
La129 O155 2.628 1_544 S
La129 O156 2.554 1_554 S
La129 O157 2.757 . S
La129 O158 2.462 1_544 S
C130 La128 2.928 . S
C130 C131 1.503 . S
C130 O148 1.261 . S
C130 O149 1.243 . S
C131 C130 1.503 . S
C131 C132 1.394 . S
C131 C136 1.373 . S
C132 C131 1.394 . S
C132 C133 1.380 . S
C132 H160 0.930 . S
C133 C132 1.380 . S
C133 C134 1.376 . S
C133 H161 0.930 . S
C134 C133 1.376 . S
C134 C135 1.370 . S
C135 C134 1.370 . S
C135 C136 1.396 . S
C135 H162 0.929 . S
C136 C131 1.373 . S
C136 C135 1.396 . S
C136 H163 0.929 . S
C137 O150 1.240 . S
C137 O151 1.289 . S
C138 O152 1.258 . S
C138 O153 1.256 . S
C139 La129 2.928 1_566 S
C139 C140 1.503 . S
C139 O154 1.261 1_565 S
C139 O155 1.243 . S
C140 C139 1.503 . S
C140 C141 1.394 . S
C140 C145 1.373 . S
C141 C140 1.394 . S
C141 C142 1.380 . S
C141 H164 0.930 1_565 S
C142 C141 1.380 . S
C142 C143 1.376 . S
C142 H165 0.930 . S
C143 C142 1.376 . S
C143 C144 1.370 . S
C144 C143 1.370 . S
C144 C145 1.396 . S
C144 H166 0.929 . S
C145 C140 1.373 . S
C145 C144 1.396 . S
C145 H167 0.929 . S
C146 O156 1.240 . S
C146 O157 1.289 1_556 S
C147 O158 1.268 . S
C147 O159 1.256 1_556 S
O148 La128 2.521 . S
O148 C130 1.261 . S
O149 La128 2.628 . S
O149 C130 1.243 . S
O150 La128 2.554 1_565 S
O150 C137 1.240 . S
O151 La128 2.757 1_565 S
O151 La129 2.482 1_565 S
O151 C137 1.289 . S
O152 La128 2.470 . S
O152 C138 1.258 . S
O153 La129 2.503 . S
O153 C138 1.256 . S
O154 La129 2.521 1_556 S
O154 C139 1.261 1_545 S
O155 La129 2.628 1_566 S
O155 C139 1.243 . S
O156 La129 2.554 1_556 S
O156 C146 1.240 . S
O157 La128 2.482 . S
O157 La129 2.757 . S
O157 C146 1.289 1_554 S
O158 La129 2.462 1_566 S
O158 C147 1.268 . S
O159 La128 2.503 1_565 S
O159 C147 1.256 1_554 S
H160 C132 0.930 . S
H161 C133 0.930 . S
H162 C135 0.929 . S
H163 C136 0.929 . S
H164 C141 0.930 1_545 S
H165 C142 0.930 . S
H166 C144 0.929 . S
H167 C145 0.929 . S
La168 C170 2.928 . S
La168 O188 2.521 . S
La168 O189 2.628 . S
La168 O190 2.554 . S
La168 O191 2.757 . S
La168 O192 2.470 . S
La168 O197 2.482 . S
La168 O199 2.503 . S
La169 C179 2.928 . S
La169 O191 2.482 . S
La169 O193 2.503 . S
La169 O194 2.521 . S
La169 O195 2.628 . S
La169 O196 2.554 . S
La169 O197 2.757 . S
La169 O198 2.470 . S
C170 La168 2.928 . S
C170 C171 1.503 . S
C170 O188 1.261 . S
C170 O189 1.243 . S
C171 C170 1.503 . S
C171 C172 1.394 . S
C171 C176 1.373 . S
C172 C171 1.394 . S
C172 C173 1.380 . S
C172 H200 0.930 . S
C173 C172 1.380 . S
C173 C174 1.376 . S
C173 H201 0.930 . S
C174 C173 1.376 . S
C174 C175 1.370 . S
C175 C174 1.370 . S
C175 C176 1.396 . S
C175 H202 0.929 . S
C176 C171 1.373 . S
C176 C175 1.396 . S
C176 H203 0.929 . S
C177 O190 1.240 . S
C177 O191 1.289 . S
C178 O192 1.258 . S
C178 O193 1.256 . S
C179 La169 2.928 . S
C179 C180 1.503 . S
C179 O194 1.261 . S
C179 O195 1.243 . S
C180 C179 1.503 . S
C180 C181 1.394 . S
C180 C185 1.373 . S
C181 C180 1.394 . S
C181 C182 1.380 . S
C181 H204 0.930 . S
C182 C181 1.380 . S
C182 C183 1.376 . S
C182 H205 0.930 . S
C183 C182 1.376 . S
C183 C184 1.370 . S
C184 C183 1.370 . S
C184 C185 1.396 . S
C184 H206 0.929 . S
C185 C180 1.373 . S
C185 C184 1.396 . S
C185 H207 0.929 . S
C186 O196 1.240 . S
C186 O197 1.289 . S
C187 O198 1.258 . S
C187 O199 1.256 . S
O188 La168 2.521 . S
O188 C170 1.261 . S
O189 La168 2.628 . S
O189 C170 1.243 . S
O190 La168 2.554 . S
O190 C177 1.240 . S
O191 La168 2.757 . S
O191 La169 2.482 . S
O191 C177 1.289 . S
O192 La168 2.470 . S
O192 C178 1.258 . S
O193 La169 2.503 . S
O193 C178 1.256 . S
O194 La169 2.521 . S
O194 C179 1.261 . S
O195 La169 2.628 . S
O195 C179 1.243 . S
O196 La169 2.554 . S
O196 C186 1.240 . S
O197 La168 2.482 . S
O197 La169 2.757 . S
O197 C186 1.289 . S
O198 La169 2.470 . S
O198 C187 1.258 . S
O199 La168 2.503 . S
O199 C187 1.256 . S
H200 C172 0.930 . S
H201 C173 0.930 . S
H202 C175 0.929 . S
H203 C176 0.929 . S
H204 C181 0.930 . S
H205 C182 0.930 . S
H206 C184 0.929 . S
H207 C185 0.929 . S
La208 C210 2.928 . S
La208 O228 2.521 . S
La208 O229 2.628 . S
La208 O230 2.554 1_455 S
La208 O231 2.757 1_455 S
La208 O232 2.470 . S
La208 O237 2.482 1_554 S
La208 O239 2.503 1_455 S
La209 C219 2.928 1_455 S
La209 O231 2.482 1_456 S
La209 O233 2.503 1_556 S
La209 O234 2.521 1_455 S
La209 O235 2.628 1_455 S
La209 O236 2.554 . S
La209 O237 2.757 . S
La209 O238 2.470 1_455 S
C210 La208 2.928 . S
C210 C211 1.503 . S
C210 O228 1.261 . S
C210 O229 1.243 . S
C211 C210 1.503 . S
C211 C212 1.394 . S
C211 C216 1.373 . S
C212 C211 1.394 . S
C212 C213 1.380 . S
C212 H240 0.930 . S
C213 C212 1.380 . S
C213 C214 1.376 . S
C213 H241 0.930 . S
C214 C213 1.376 . S
C214 C215 1.370 . S
C215 C214 1.370 . S
C215 C216 1.396 . S
C215 H242 0.929 . S
C216 C211 1.373 . S
C216 C215 1.396 . S
C216 H243 0.929 . S
C217 O230 1.240 . S
C217 O231 1.289 . S
C218 O232 1.258 . S
C218 O233 1.256 . S
C219 La209 2.928 1_655 S
C219 C220 1.503 . S
C219 O234 1.261 . S
C219 O235 1.243 . S
C220 C219 1.503 . S
C220 C221 1.394 . S
C220 C225 1.373 . S
C221 C220 1.394 . S
C221 C222 1.380 . S
C221 H244 0.930 . S
C222 C221 1.380 . S
C222 C223 1.376 . S
C222 H245 0.930 . S
C223 C222 1.376 . S
C223 C224 1.370 . S
C224 C223 1.370 . S
C224 C225 1.396 . S
C224 H246 0.929 . S
C225 C220 1.373 . S
C225 C224 1.396 . S
C225 H247 0.929 . S
C226 O236 1.240 . S
C226 O237 1.289 . S
C227 O238 1.258 . S
C227 O239 1.256 1_556 S
O228 La208 2.521 . S
O228 C210 1.261 . S
O229 La208 2.628 . S
O229 C210 1.243 . S
O230 La208 2.554 1_655 S
O230 C217 1.240 . S
O231 La208 2.757 1_655 S
O231 La209 2.482 1_654 S
O231 C217 1.289 . S
O232 La208 2.470 . S
O232 C218 1.258 . S
O233 La209 2.503 1_554 S
O233 C218 1.256 . S
O234 La209 2.521 1_655 S
O234 C219 1.261 . S
O235 La209 2.628 1_655 S
O235 C219 1.243 . S
O236 La209 2.554 . S
O236 C226 1.240 . S
O237 La208 2.482 1_556 S
O237 La209 2.757 . S
O237 C226 1.289 . S
O238 La209 2.470 1_655 S
O238 C227 1.258 . S
O239 La208 2.503 1_655 S
O239 C227 1.256 1_554 S
H240 C212 0.930 . S
H241 C213 0.930 . S
H242 C215 0.929 . S
H243 C216 0.929 . S
H244 C221 0.930 . S
H245 C222 0.930 . S
H246 C224 0.929 . S
H247 C225 0.929 . S
C6 C94 1.455 . S
C20 C143 1.722 . S
C178 N26 3.221 . S
N37 C217 3.486 . S
C138 C9 3.340 . S
C97 N15 2.147 1_455 S
C227 C31 2.758 . S
C186 C39 2.665 . S
N4 C214 2.019 . S
C146 C28 3.752 . S
C42 C107 3.196 . S
C17 C183 2.904 . S
C103 C50 1.128 . S
C61 C134 1.850 . S
N70 C187 3.565 . S
N81 C226 3.361 . S
N48 C147 3.397 . S
C106 C64 1.399 . S
C218 C75 2.516 . S
C177 C86 2.442 . S
C53 C223 2.525 . S
C137 C72 2.898 . S
C98 C83 3.916 . S
N59 C174 1.978 . S
