# Generated by pormake.
# Topology tsx, (6,3)-cn, num edge types: 1
# Building blocks:
#     Node 0, Type 0, BuildingBlock: FUNLAD_clean_sbu_0, # of connection points: 6
#     Node 1, Type 0, BuildingBlock: FUNLAD_clean_sbu_0, # of connection points: 6
#     Node 2, Type 1, BuildingBlock: VETTIZ_charged_linker_0, # of connection points: 3
#     Node 3, Type 1, BuildingBlock: VETTIZ_charged_linker_0, # of connection points: 3
#     Node 4, Type 1, BuildingBlock: VETTIZ_charged_linker_0, # of connection points: 3
#     Node 5, Type 1, BuildingBlock: VETTIZ_charged_linker_0, # of connection points: 3
#     Edge 6, Type (0, 1), BuildingBlock: FUNLAD_clean_linker_1, # of connection points: 2
#     Edge 7, Type (0, 1), BuildingBlock: FUNLAD_clean_linker_1, # of connection points: 2
#     Edge 8, Type (0, 1), BuildingBlock: FUNLAD_clean_linker_1, # of connection points: 2
#     Edge 9, Type (0, 1), BuildingBlock: FUNLAD_clean_linker_1, # of connection points: 2
#     Edge 10, Type (0, 1), BuildingBlock: FUNLAD_clean_linker_1, # of connection points: 2
#     Edge 11, Type (0, 1), BuildingBlock: FUNLAD_clean_linker_1, # of connection points: 2
#     Edge 12, Type (0, 1), BuildingBlock: FUNLAD_clean_linker_1, # of connection points: 2
#     Edge 13, Type (0, 1), BuildingBlock: FUNLAD_clean_linker_1, # of connection points: 2
#     Edge 14, Type (0, 1), BuildingBlock: FUNLAD_clean_linker_1, # of connection points: 2
#     Edge 15, Type (0, 1), BuildingBlock: FUNLAD_clean_linker_1, # of connection points: 2
#     Edge 16, Type (0, 1), BuildingBlock: FUNLAD_clean_linker_1, # of connection points: 2
#     Edge 17, Type (0, 1), BuildingBlock: FUNLAD_clean_linker_1, # of connection points: 2
# Relax obj value: 0.169
# Max RMSD: 0.157
# Mean RMSD: 0.093
data_MOF--net-tsx--node1-FUNLAD_clean_sbu_0--node2-VETTIZ_charged_linker_0--edge1-FUNLAD_clean_linker_1
_symmetry_space_group_name_H-M    P1
_symmetry_Int_Tables_number       1
_symmetry_cell_setting            triclinic
loop_
_symmetry_equiv_pos_as_xyz
'x, y, z'
_cell_length_a     23.417288
_cell_length_b     25.958317
_cell_length_c     52.601388
_cell_angle_alpha  90.911044
_cell_angle_beta   92.163253
_cell_angle_gamma 89.672989
loop_
_atom_site_label
_atom_site_type_symbol
_atom_site_fract_x
_atom_site_fract_y
_atom_site_fract_z
_atom_type_partial_charge
C0 C 0.92697 0.94176 0.00987 0.0
N1 N 0.02995 0.02577 0.06194 0.0
C2 C 0.98296 0.03277 0.07605 0.0
C3 C 0.98889 0.04186 0.1022 0.0
C4 C 0.04359 0.0444 0.1139 0.0
C5 C 0.09144 0.03619 0.09896 0.0
C6 C 0.08352 0.02693 0.07286 0.0
Zn7 Zn 0.01937 0.01593 0.02361 0.0
C8 C 0.09174 0.93081 0.00343 0.0
N9 N 0.99576 0.99812 0.94326 0.0
C10 C 0.94157 0.99643 0.933 0.0
C11 C 0.04187 0.99581 0.9283 0.0
C12 C 0.03436 0.99263 0.90186 0.0
C13 C 0.97876 0.99191 0.89076 0.0
C14 C 0.93214 0.99294 0.90669 0.0
Zn15 Zn 0.0073 1.00646 0.9817 0.0
O16 O 0.95265 0.96358 0.02874 0.0
C17 C 0.93373 0.09025 0.00166 0.0
O18 O 0.94154 0.95159 0.98742 0.0
H19 H 0.08455 0.99677 0.93689 0.0
H20 H 0.94077 0.03172 0.06697 0.0
H21 H 0.9055 0.99836 0.94523 0.0
O22 O 0.95939 0.07866 0.02251 0.0
O23 O 0.94561 0.06579 0.98144 0.0
H24 H 0.12024 0.02091 0.06128 0.0
O25 O 0.07294 0.0629 0.97673 0.0
O26 O 0.08593 0.06791 0.01825 0.0
O27 O 0.06903 0.94594 0.98247 0.0
O28 O 0.07879 0.95334 0.02408 0.0
C29 C 0.0991 0.08202 -0.00371 0.0
H30 H 0.95101 0.04746 0.11315 0.0
H31 H 0.13445 0.03613 0.10721 0.0
H32 H 0.07174 0.99027 0.89041 0.0
H33 H 0.8887 0.99206 0.89884 0.0
C34 C 0.46181 0.40749 0.48835 0.0
N35 N 0.55452 0.46754 0.55109 0.0
C36 C 0.50448 0.46681 0.5634 0.0
C37 C 0.50463 0.47059 0.58984 0.0
C38 C 0.55661 0.47604 0.60366 0.0
C39 C 0.60787 0.47346 0.59062 0.0
C40 C 0.60577 0.46918 0.56413 0.0
Zn41 Zn 0.55125 0.47408 0.51263 0.0
C42 C 0.62731 0.40126 0.48658 0.0
N43 N 0.54019 0.49275 0.43234 0.0
C44 C 0.48796 0.4972 0.42035 0.0
C45 C 0.58906 0.49493 0.41923 0.0
C46 C 0.58648 0.50178 0.39294 0.0
C47 C 0.5332 0.50591 0.38003 0.0
C48 C 0.4834 0.50396 0.3941 0.0
Zn49 Zn 0.54472 0.4845 0.4708 0.0
O50 O 0.48651 0.41889 0.50957 0.0
C51 C 0.46734 0.55626 0.49673 0.0
O52 O 0.47712 0.42932 0.46829 0.0
H53 H 0.63013 0.49161 0.42919 0.0
H54 H 0.46421 0.46555 0.55266 0.0
H55 H 0.44968 0.49602 0.43119 0.0
O56 O 0.48879 0.53385 0.51615 0.0
O57 O 0.48378 0.54349 0.47479 0.0
H58 H 0.64501 0.46914 0.55393 0.0
O59 O 0.61117 0.54064 0.474 0.0
O60 O 0.61641 0.52963 0.51531 0.0
O61 O 0.60602 0.42447 0.46732 0.0
O62 O 0.61259 0.41451 0.50877 0.0
C63 C 0.63329 0.55218 0.49578 0.0
H64 H 0.46432 0.47184 0.5993 0.0
H65 H 0.64906 0.4757 0.6006 0.0
H66 H 0.62577 0.50357 0.38277 0.0
H67 H 0.44133 0.50869 0.38522 0.0
C68 C 0.13091 0.84365 0.44404 0.0
C69 C 0.17458 0.81626 0.4319 0.0
C70 C 0.19071 0.83136 0.40766 0.0
C71 C 0.12361 0.90237 0.40855 0.0
C72 C 0.10568 0.88635 0.43186 0.0
C73 C 0.05795 0.91978 0.44146 0.0
H74 H 0.90575 0.14189 0.42957 0.0
C75 C 0.09153 0.94939 0.40162 0.0
C76 C 0.05297 0.96023 0.42083 0.0
H77 H 0.89033 0.02679 0.48743 0.0
H78 H 0.96089 0.97358 0.46665 0.0
H79 H 0.04115 0.13661 0.42418 0.0
H80 H 0.8996 0.06287 0.38434 0.0
H81 H 0.95128 0.07129 0.36155 0.0
H82 H 0.92081 0.12704 0.37705 0.0
H83 H 0.99032 0.16992 0.40389 0.0
H84 H 0.05275 0.13948 0.39133 0.0
C85 C 0.07726 0.943 0.46759 0.0
C86 C 1.00361 0.88629 0.44205 0.0
C87 C 0.13294 0.03797 0.31918 0.0
C88 C 0.10813 0.08051 0.30685 0.0
C89 C 0.06859 0.11155 0.31976 0.0
C90 C 0.05182 0.09855 0.34413 0.0
C91 C 0.0745 0.05395 0.35561 0.0
C92 C 0.11505 0.02503 0.34329 0.0
C93 C 0.13322 0.97812 0.35791 0.0
C94 C 0.09578 0.98288 0.38075 0.0
C95 C 0.06182 0.02741 0.37937 0.0
C96 C 0.19753 0.98392 0.36548 0.0
C97 C 0.11833 0.92967 0.34132 0.0
C98 C 0.91632 0.10487 0.4377 0.0
C99 C 0.89201 0.08843 0.46022 0.0
C100 C 0.90872 0.04038 0.47019 0.0
C101 C 0.94958 0.00959 0.45814 0.0
C102 C 0.97415 0.02712 0.43592 0.0
C103 C 0.95638 0.0736 0.42583 0.0
C104 C 0.98413 0.08517 0.40135 0.0
C105 C 0.02284 0.03866 0.39868 0.0
C106 C 0.01764 1.00495 0.41913 0.0
C107 C 0.01875 0.13559 0.40514 0.0
C108 C 0.93685 0.08711 0.37987 0.0
H109 H 0.18096 0.88424 0.37775 0.0
H110 H 0.11643 0.83199 0.46237 0.0
H111 H 1.00026 0.86031 0.42503 0.0
H112 H 0.96378 0.9092 0.44141 0.0
H113 H 1.00461 0.86172 0.45916 0.0
H114 H 0.12262 0.95546 0.46743 0.0
H115 H 0.0736 0.91428 0.48287 0.0
H116 H 0.05285 0.97772 0.47276 0.0
H117 H 0.16324 0.0134 0.30962 0.0
H118 H 0.04985 0.1453 0.31086 0.0
H119 H 0.02095 0.12314 0.35285 0.0
H120 H 0.2082 0.02484 0.37004 0.0
H121 H 0.22476 0.97108 0.34972 0.0
H122 H 0.21037 0.96284 0.38285 0.0
H123 H 0.08 0.93659 0.32865 0.0
H124 H 0.10677 0.89612 0.35271 0.0
H125 H 0.15412 0.91873 0.32903 0.0
H126 H 0.22381 0.81043 0.39791 0.0
C127 C 0.16589 0.87438 0.39603 0.0
C128 C 0.1264 0.11501 0.53511 0.0
C129 C 0.15281 0.15804 0.54677 0.0
C130 C 0.1407 0.17132 0.57208 0.0
C131 C 0.07896 0.09717 0.57425 0.0
C132 C 0.08872 0.0858 0.54902 0.0
C133 C 0.05378 0.04084 0.53917 0.0
H134 H 0.87043 0.84836 0.56275 0.0
C135 C 0.03971 0.05808 0.58357 0.0
C136 C 0.02358 0.02567 0.56296 0.0
H137 H 0.93459 0.89182 0.49013 0.0
H138 H 0.98898 0.96071 0.51082 0.0
H139 H 0.98588 0.86016 0.5936 0.0
H140 H 0.84417 0.9647 0.58293 0.0
H141 H 0.86567 0.967 0.61535 0.0
H142 H 0.84063 0.90714 0.60127 0.0
H143 H 0.92145 0.85369 0.61063 0.0
H144 H 0.97961 0.89373 0.62255 0.0
C145 C 0.09525 0.99818 0.53031 0.0
C146 C 0.0114 0.06041 0.5181 0.0
C147 C 0.0091 0.04632 0.67832 0.0
C148 C 0.97957 0.01132 0.69302 0.0
C149 C 0.94707 0.97212 0.68054 0.0
C150 C 0.94481 0.96765 0.65394 0.0
C151 C 0.97566 1.00233 0.63957 0.0
C152 C 1.00661 0.04119 0.65177 0.0
C153 C 0.0374 0.0741 0.63347 0.0
C154 C 0.02117 0.04753 0.60832 0.0
C155 C 0.98498 1.00561 0.61202 0.0
C156 C 0.10231 0.06999 0.64002 0.0
C157 C 0.01293 0.12968 0.63503 0.0
C158 C 0.89484 0.87322 0.551 0.0
C159 C 0.89709 0.86518 0.52449 0.0
C160 C 0.93189 0.89748 0.51048 0.0
C161 C 0.96316 0.93754 0.52247 0.0
C162 C 0.95969 0.94552 0.54883 0.0
C163 C 0.9259 0.91364 0.56262 0.0
C164 C 0.92776 0.92747 0.59051 0.0
C165 C 0.9668 0.97394 0.59104 0.0
C166 C 0.98585 0.98402 0.56663 0.0
C167 C 0.95463 0.88151 0.60528 0.0
C168 C 0.86645 0.94209 0.59816 0.0
H169 H 0.09707 0.15251 0.60521 0.0
H170 H 0.13451 0.10469 0.51553 0.0
H171 H 0.96953 0.04115 0.51856 0.0
H172 H 0.02916 0.0554 0.49894 0.0
H173 H 1.0013 0.10206 0.52071 0.0
H174 H 0.13046 0.99251 0.54481 0.0
H175 H 0.11483 0.00879 0.51223 0.0
H176 H 0.07463 0.96029 0.52768 0.0
H177 H 0.03451 0.0767 0.68735 0.0
H178 H 0.92476 0.94369 0.69117 0.0
H179 H 0.91996 0.9367 0.64562 0.0
H180 H 0.11492 0.02914 0.64321 0.0
H181 H 0.11382 0.09235 0.65764 0.0
H182 H 0.12917 0.08341 0.62474 0.0
H183 H 0.96863 0.13015 0.64198 0.0
H184 H 0.00922 0.148 0.61616 0.0
H185 H 0.0394 0.15439 0.6482 0.0
H186 H 0.16108 0.20427 0.58141 0.0
C187 C 0.10396 0.14104 0.58589 0.0
C188 C 0.58254 0.38256 0.94465 0.0
C189 C 0.63321 0.35852 0.93696 0.0
C190 C 0.65724 0.37309 0.91407 0.0
C191 C 0.58223 0.43617 0.90716 0.0
C192 C 0.55816 0.42193 0.92956 0.0
C193 C 0.50799 0.4561 0.93579 0.0
H194 H 0.34362 0.66513 0.90441 0.0
C195 C 0.54877 0.47941 0.89641 0.0
C196 C 0.50559 0.49225 0.91323 0.0
H197 H 0.33726 0.57526 0.97266 0.0
H198 H 0.40942 0.51701 0.95641 0.0
H199 H 0.48063 0.66696 0.90099 0.0
H200 H 0.34916 0.5708 0.86675 0.0
H201 H 0.40242 0.57409 0.84428 0.0
H202 H 0.36576 0.63225 0.8539 0.0
H203 H 0.42816 0.68893 0.87777 0.0
H204 H 0.49392 0.6594 0.86839 0.0
C205 C 0.52291 0.48467 0.96108 0.0
C206 C 0.4539 0.42246 0.93649 0.0
C207 C 0.59561 0.54365 0.80932 0.0
C208 C 0.5681 0.57829 0.79274 0.0
C209 C 0.52248 0.60864 0.80145 0.0
C210 C 0.50304 0.60269 0.82612 0.0
C211 C 0.52918 0.56576 0.84209 0.0
C212 C 0.57492 0.53733 0.83362 0.0
C213 C 0.5954 0.49781 0.85241 0.0
C214 C 0.55367 0.50649 0.87343 0.0
C215 C 0.51555 0.54665 0.86746 0.0
C216 C 0.6576 0.51146 0.8612 0.0
C217 C 0.58825 0.44381 0.83961 0.0
C218 C 0.35821 0.6332 0.91604 0.0
C219 C 0.3359 0.62562 0.94004 0.0
C220 C 0.35512 0.58301 0.95443 0.0
C221 C 0.39715 0.5494 0.9451 0.0
C222 C 0.42113 0.55917 0.92156 0.0
C223 C 0.40087 0.60021 0.90735 0.0
C224 C 0.42992 0.60463 0.88256 0.0
C225 C 0.47282 0.5609 0.88464 0.0
C226 C 0.46757 0.53394 0.90743 0.0
C227 C 0.45959 0.6578 0.88215 0.0
C228 C 0.38476 0.59536 0.86062 0.0
H229 H 0.65292 0.42089 0.88206 0.0
H230 H 0.56356 0.37216 0.9623 0.0
H231 H 0.45182 0.39516 0.91997 0.0
H232 H 0.41411 0.44541 0.93518 0.0
H233 H 0.454 0.39946 0.95413 0.0
H234 H 0.49961 0.52137 0.96308 0.0
H235 H 0.56888 0.49539 0.96236 0.0
H236 H 0.51442 0.45975 0.97745 0.0
H237 H 0.63044 0.51959 0.80297 0.0
H238 H 0.50123 0.63627 0.78907 0.0
H239 H 0.46771 0.62633 0.8316 0.0
H240 H 0.66607 0.55338 0.85946 0.0
H241 H 0.68917 0.49047 0.84962 0.0
H242 H 0.66658 0.5035 0.88158 0.0
H243 H 0.54828 0.44209 0.8275 0.0
H244 H 0.58407 0.41248 0.85334 0.0
H245 H 0.6245 0.43469 0.82726 0.0
H246 H 0.69553 0.35429 0.90757 0.0
C247 C 0.63215 0.41165 0.89919 0.0
C248 C 0.56043 0.66112 0.02948 0.0
C249 C 0.59454 0.69755 0.04289 0.0
C250 C 0.59225 0.70032 0.06969 0.0
C251 C 0.52499 0.62967 0.06912 0.0
C252 C 0.52599 0.62786 0.0429 0.0
C253 C 0.48968 0.58504 0.03163 0.0
H254 H 0.31873 0.38029 0.04952 0.0
C255 C 0.48804 0.5875 0.07729 0.0
C256 C 0.46608 0.56191 0.05536 0.0
H257 H 0.36557 0.44465 0.97799 0.0
H258 H 0.42089 0.51082 0.00081 0.0
H259 H 0.44393 0.39 0.07664 0.0
H260 H 0.29293 0.48499 0.07726 0.0
H261 H 0.3226 0.48627 0.10842 0.0
H262 H 0.29875 0.42585 0.09439 0.0
H263 H 0.3814 0.37254 0.09314 0.0
H264 H 0.43676 0.41183 0.10808 0.0
C265 C 0.52976 0.5466 0.01833 0.0
C266 C 0.44231 0.60861 0.01392 0.0
C267 C 0.47678 0.54872 0.17133 0.0
C268 C 0.44855 0.51032 0.18465 0.0
C269 C 0.41394 0.47469 0.17084 0.0
C270 C 0.40756 0.4769 0.14432 0.0
C271 C 0.43655 0.51498 0.13129 0.0
C272 C 0.46994 0.55039 0.1448 0.0
C273 C 0.49781 0.58795 0.12773 0.0
C274 C 0.4758 0.56903 0.10174 0.0
C275 C 0.44041 0.52602 0.10396 0.0
C276 C 0.56346 0.58128 0.13123 0.0
C277 C 0.47541 0.64277 0.13413 0.0
C278 C 0.34162 0.40778 0.03855 0.0
C279 C 0.3391 0.40626 0.01175 0.0
C280 C 0.36764 0.44464 -0.00142 0.0
C281 C 0.39936 0.48304 0.01179 0.0
C282 C 0.402 0.48353 0.03852 0.0
C283 C 0.37322 0.44637 0.05141 0.0
C284 C 0.38043 0.45281 0.07978 0.0
C285 C 0.41771 0.50039 0.08183 0.0
C286 C 0.43046 0.51818 0.05764 0.0
C287 C 0.41187 0.40434 0.09019 0.0
C288 C 0.32075 0.46265 0.09075 0.0
H289 H 0.55833 0.67041 0.10314 0.0
H290 H 0.5615 0.65778 0.00895 0.0
H291 H 0.40124 0.58798 0.01481 0.0
H292 H 0.45557 0.60911 -0.00613 0.0
H293 H 0.43219 0.64899 0.01965 0.0
H294 H 0.56851 0.53874 0.03059 0.0
H295 H 0.54423 0.56243 0.0002 0.0
H296 H 0.50972 0.5088 0.01471 0.0
H297 H 0.5048 0.57628 0.18096 0.0
H298 H 0.39188 0.44473 0.18064 0.0
H299 H 0.38073 0.44848 0.13499 0.0
H300 H 0.5751 0.53989 0.13329 0.0
H301 H 0.57999 0.60213 0.14856 0.0
H302 H 0.58707 0.59421 0.11477 0.0
H303 H 0.43068 0.64155 0.14051 0.0
H304 H 0.47349 0.66815 0.11744 0.0
H305 H 0.50194 0.66128 0.14962 0.0
H306 H 0.61878 0.72684 0.08084 0.0
C307 C 0.55743 0.66687 0.08279 0.0
H308 H 0.16894 0.1305 0.01162 0.0
C309 C 0.14307 0.12197 -0.00553 0.0
H310 H 0.12027 0.14679 0.95732 0.0
H311 H 0.19464 0.36796 0.00541 0.0
H312 H 0.09183 0.37799 0.00172 0.0
H313 H 0.03067 0.30643 0.98587 0.0
H314 H 0.07225 0.22409 0.97383 0.0
C315 C 0.14812 0.15199 0.97414 0.0
C316 C 0.18549 0.19819 0.97653 0.0
C317 C 0.16093 0.24685 0.98219 0.0
C318 C 0.19639 0.28842 -0.00915 0.0
C319 C 0.17019 0.33543 -0.00189 0.0
C320 C 0.11105 0.34168 -0.00381 0.0
C321 C 0.0766 0.30137 0.98731 0.0
C322 C 0.10098 0.25433 0.98049 0.0
H323 H 0.28979 0.37523 0.978 0.0
C324 C 0.30526 0.36647 -0.00279 0.0
H325 H 0.31195 0.30885 0.02513 0.0
H326 H 0.24592 0.11277 0.96282 0.0
H327 H 0.34945 0.10334 0.96433 0.0
H328 H 0.41136 0.17562 0.97865 0.0
H329 H 0.37025 0.25772 -0.0084 0.0
C330 C 0.29309 0.32031 0.00691 0.0
C331 C 0.25656 0.28143 -0.0069 0.0
C332 C 0.28124 0.23409 0.98522 0.0
C333 C 0.24565 0.19243 0.97694 0.0
C334 C 0.27127 0.14535 0.96951 0.0
C335 C 0.3305 0.13956 0.97018 0.0
C336 C 0.36536 0.18027 0.97825 0.0
C337 C 0.34126 0.22707 0.98572 0.0
H338 H 0.1502 0.87494 0.02245 0.0
C339 C 0.13158 0.88638 0.00414 0.0
H340 H 0.12348 0.86885 0.96487 0.0
H341 H 0.36234 0.74042 -0.00888 0.0
H342 H 0.40487 0.82327 0.00196 0.0
H343 H 0.34534 0.9018 0.00421 0.0
H344 H 0.243 0.89799 -0.00416 0.0
C345 C 0.1438 0.85904 0.98309 0.0
C346 C 0.17997 0.81153 0.98401 0.0
C347 C 0.23989 0.81456 0.989 0.0
C348 C 0.27444 0.76937 0.98725 0.0
C349 C 0.33416 0.77351 -0.00793 0.0
C350 C 0.35914 0.82084 -0.00169 0.0
C351 C 0.32561 0.86504 -0.00038 0.0
C352 C 0.26675 0.86223 -0.0051 0.0
H353 H 0.26788 0.68393 0.9345 0.0
C354 C 0.29251 0.66294 0.94897 0.0
H355 H 0.31369 0.65981 0.98838 0.0
H356 H 0.06614 0.79122 0.97578 0.0
H357 H 0.02373 0.70787 0.96587 0.0
H358 H 0.08388 0.62984 0.96269 0.0
H359 H 0.18693 0.63473 0.96942 0.0
C360 C 0.28664 0.67676 0.97348 0.0
C361 C 0.24932 0.72157 0.97989 0.0
C362 C 0.18919 0.71809 0.97622 0.0
C363 C 0.15454 0.76308 0.97819 0.0
C364 C 0.09458 0.75839 0.97431 0.0
C365 C 0.06965 0.71074 0.9687 0.0
C366 C 0.10351 0.66681 0.9669 0.0
C367 C 0.16259 0.67019 0.97064 0.0
H368 H 0.87395 0.89544 0.03426 0.0
C369 C 0.88034 0.90587 0.01463 0.0
H370 H 0.84788 0.89929 0.97661 0.0
H371 H 0.74277 0.70398 0.0421 0.0
H372 H 0.83731 0.66691 0.03853 0.0
H373 H 0.91349 0.71447 0.01797 0.0
H374 H 0.89551 0.7999 0.00117 0.0
C375 C 0.84435 0.88757 -0.00378 0.0
C376 C 0.79573 0.85462 0.00311 0.0
C377 C 0.80609 0.80392 0.0118 0.0
C378 C 0.76157 0.77586 0.02282 0.0
C379 C 0.77425 0.7265 0.03276 0.0
C380 C 0.82855 0.70481 0.03097 0.0
C381 C 0.87148 0.73163 0.01947 0.0
C382 C 0.86068 0.78068 0.01002 0.0
H383 H 0.64629 0.71511 0.00972 0.0
C384 C 0.63536 0.72868 0.0286 0.0
H385 H 0.6486 0.78849 0.05605 0.0
H386 H 0.7605 0.94871 0.98567 0.0
H387 H 0.66461 0.98454 0.98717 0.0
H388 H 0.58661 0.93513 0.00532 0.0
H389 H 0.60404 0.84967 0.0222 0.0
C390 C 0.66099 0.77139 0.03813 0.0
C391 C 0.7062 0.79806 0.0243 0.0
C392 C 0.69506 0.84749 0.01412 0.0
C393 C 0.73988 0.87579 0.00346 0.0
C394 C 0.7279 0.92553 -0.0061 0.0
C395 C 0.67307 0.94651 -0.00538 0.0
C396 C 0.62915 0.9187 0.00486 0.0
C397 C 0.63976 0.86976 0.01453 0.0
H398 H 0.89253 0.16128 0.0162 0.0
C399 C 0.89211 0.13315 0.00067 0.0
H400 H 0.85595 0.11089 0.96492 0.0
H401 H 0.67427 0.29409 0.00172 0.0
H402 H 0.65293 0.23888 0.03687 0.0
H403 H 0.70687 0.1582 0.04413 0.0
H404 H 0.78335 0.13284 0.01664 0.0
C405 C 0.85577 0.13892 0.9805 0.0
C406 C 0.82158 0.18679 0.97636 0.0
C407 C 0.7755 0.19994 -0.00797 0.0
C408 C 0.74238 0.24516 0.98704 0.0
C409 C 0.69893 0.25899 0.00389 0.0
C410 C 0.68655 0.22785 0.02427 0.0
C411 C 0.71708 0.18252 0.02842 0.0
C412 C 0.76107 0.16853 0.01255 0.0
H413 H 0.63856 0.2822 0.95513 0.0
C414 C 0.66168 0.31762 0.95214 0.0
H415 H 0.73925 0.35753 0.9557 0.0
H416 H 0.90943 0.17457 0.94374 0.0
H417 H 0.92892 0.22784 0.90781 0.0
H418 H 0.86815 0.30308 0.89747 0.0
H419 H 0.78825 0.32573 0.9231 0.0
C420 C 0.71753 0.32144 0.95893 0.0
C421 C 0.75361 0.27568 0.96564 0.0
C422 C 0.8001 0.26258 0.95011 0.0
C423 C 0.83431 0.21845 0.95564 0.0
C424 C 0.88115 0.20695 0.94013 0.0
C425 C 0.89306 0.23734 0.91945 0.0
C426 C 0.85895 0.27971 0.91366 0.0
C427 C 0.81305 0.29234 0.92869 0.0
H428 H 0.69509 0.59911 0.51823 0.0
C429 C 0.67626 0.5931 0.4992 0.0
H430 H 0.66891 0.62197 0.46186 0.0
H431 H 0.72901 0.84629 0.5059 0.0
H432 H 0.6302 0.85723 0.49123 0.0
H433 H 0.57408 0.78318 0.47445 0.0
H434 H 0.61653 0.69788 0.472 0.0
C435 C 0.68942 0.62548 0.48068 0.0
C436 C 0.72589 0.67109 0.48692 0.0
C437 C 0.70064 0.72079 0.48784 0.0
C438 C 0.73272 0.76331 0.49788 0.0
C439 C 0.70632 0.81251 0.49879 0.0
C440 C 0.6497 0.81936 0.49036 0.0
C441 C 0.61813 0.77769 0.48088 0.0
C442 C 0.64304 0.7289 0.4796 0.0
H443 H 0.87975 0.81009 0.49247 0.0
C444 C 0.86554 0.82256 0.51104 0.0
H445 H 0.80189 0.8132 0.53809 0.0
H446 H 0.78958 0.58294 0.48348 0.0
H447 H 0.88802 0.57129 0.49864 0.0
H448 H 0.9421 0.64361 0.51853 0.0
H449 H 0.89864 0.72795 0.52304 0.0
C450 C 0.82017 0.79917 0.52064 0.0
C451 C 0.78989 0.75602 0.50703 0.0
C452 C 0.81598 0.70668 0.50503 0.0
C453 C 0.78417 0.66443 0.49449 0.0
C454 C 0.81141 0.61586 0.49208 0.0
C455 C 0.86791 0.60873 0.50057 0.0
C456 C 0.8984 0.64949 0.5117 0.0
C457 C 0.87294 0.6979 0.51403 0.0
H458 H 0.68256 0.35193 0.4635 0.0
C459 C 0.66789 0.35861 0.48266 0.0
H460 H 0.66902 0.33106 0.52033 0.0
H461 H 0.73263 0.10676 0.47746 0.0
H462 H 0.63689 0.09272 0.49218 0.0
H463 H 0.57974 0.1651 0.50878 0.0
H464 H 0.61787 0.25196 0.51077 0.0
C465 C 0.68522 0.32672 0.50133 0.0
C466 C 0.72293 0.28205 0.49557 0.0
C467 C 0.70049 0.23141 0.4952 0.0
C468 C 0.73341 0.18965 0.48565 0.0
C469 C 0.70941 0.13973 0.48463 0.0
C470 C 0.65457 0.13119 0.49301 0.0
C471 C 0.62238 0.17195 0.50236 0.0
C472 C 0.64477 0.2216 0.50341 0.0
H473 H 0.85102 0.11891 0.49481 0.0
C474 C 0.85212 0.12224 0.47425 0.0
H475 H 0.81829 0.1612 0.44194 0.0
H476 H 0.78248 0.37246 0.49856 0.0
H477 H 0.87935 0.38592 0.48519 0.0
H478 H 0.93578 0.31384 0.46781 0.0
H479 H 0.89586 0.22785 0.46387 0.0
C480 C 0.81934 0.15801 0.46249 0.0
C481 C 0.78867 0.19874 0.47671 0.0
C482 C 0.81265 0.24869 0.47884 0.0
C483 C 0.77991 0.29034 0.4885 0.0
C484 C 0.80511 0.33973 0.49077 0.0
C485 C 0.86075 0.3479 0.48331 0.0
C486 C 0.89254 0.30732 0.47355 0.0
C487 C 0.86904 0.25819 0.47132 0.0
H488 H 0.37889 0.37824 0.47296 0.0
C489 C 0.4121 0.37302 0.4877 0.0
H490 H 0.43866 0.33519 0.52117 0.0
H491 H 0.21093 0.29602 0.5719 0.0
H492 H 0.25628 0.3583 0.60052 0.0
H493 H 0.34306 0.40403 0.58855 0.0
H494 H 0.38542 0.38687 0.54806 0.0
C495 C 0.40496 0.33964 0.50655 0.0
C496 C 0.34859 0.31652 0.51153 0.0
C497 C 0.32286 0.32866 0.5349 0.0
C498 C 0.27163 0.30378 0.54137 0.0
C499 C 0.24883 0.31464 0.5655 0.0
C500 C 0.27457 0.35034 0.58226 0.0
C501 C 0.32347 0.37596 0.57556 0.0
C502 C 0.34751 0.36544 0.55224 0.0
H503 H 0.23092 0.16532 0.52506 0.0
C504 C 0.19601 0.18691 0.53324 0.0
H505 H 0.15902 0.25943 0.54015 0.0
H506 H 0.38778 0.28204 0.46572 0.0
H507 H 0.33714 0.22667 0.43504 0.0
H508 H 0.24188 0.19264 0.44391 0.0
H509 H 0.19762 0.21247 0.48392 0.0
C510 C 0.19469 0.23855 0.53218 0.0
C511 C 0.24494 0.2682 0.524 0.0
C512 C 0.26823 0.25928 0.49977 0.0
C513 C 0.32131 0.28185 0.49392 0.0
C514 C 0.34618 0.2683 0.4706 0.0
C515 C 0.31773 0.23622 0.45288 0.0
C516 C 0.26423 0.21685 0.45792 0.0
C517 C 0.23955 0.22813 0.48105 0.0
H518 H 0.41178 0.60819 0.5188 0.0
C519 C 0.4228 0.596 0.49973 0.0
H520 H 0.40394 0.60275 0.46033 0.0
H521 H 0.1543 0.68645 0.46857 0.0
H522 H 0.13327 0.5952 0.4629 0.0
H523 H 0.21037 0.53011 0.4661 0.0
H524 H 0.30883 0.55575 0.47507 0.0
C525 C 0.39489 0.61617 0.47945 0.0
C526 C 0.34792 0.65427 0.48201 0.0
C527 C 0.29074 0.63853 0.47696 0.0
C528 C 0.24643 0.67597 0.47489 0.0
C529 C 0.18961 0.6594 0.46985 0.0
C530 C 0.17699 0.60724 0.46671 0.0
C531 C 0.2204 0.57059 0.46853 0.0
C532 C 0.27671 0.58581 0.4736 0.0
H533 H 0.22411 0.74405 0.43076 0.0
C534 C 0.20498 0.77199 0.44359 0.0
H535 H 0.20305 0.79784 0.48192 0.0
H536 H 0.4524 0.6969 0.49423 0.0
H537 H 0.47241 0.78763 0.5015 0.0
H538 H 0.39516 0.85252 0.49831 0.0
H539 H 0.29743 0.82702 0.48772 0.0
C540 C 0.21726 0.7684 0.46865 0.0
C541 C 0.25958 0.72901 0.47751 0.0
C542 C 0.31592 0.74442 0.48479 0.0
C543 C 0.36036 0.70697 0.48685 0.0
C544 C 0.41687 0.72361 0.49276 0.0
C545 C 0.42899 0.77561 0.49692 0.0
C546 C 0.3855 0.81215 0.4951 0.0
C547 C 0.32959 0.797 0.489 0.0
H548 H 0.01149 0.0459 0.15282 0.0
C549 C 0.04872 0.05373 0.14174 0.0
H550 H 0.13273 0.08414 0.14354 0.0
H551 H 0.09048 0.19647 0.24954 0.0
H552 H 0.09935 0.26958 0.2217 0.0
H553 H 0.10711 0.25664 0.17538 0.0
H554 H 0.10639 0.17058 0.1566 0.0
C555 C 0.09598 0.0722 0.1539 0.0
C556 C 0.09729 0.07985 0.18196 0.0
C557 C 0.09812 0.13038 0.19255 0.0
C558 C 0.09312 0.13789 0.21921 0.0
C559 C 0.09382 0.18872 0.22937 0.0
C560 C 0.09891 0.23096 0.21362 0.0
C561 C 0.10331 0.22367 0.18754 0.0
C562 C 0.10285 0.17407 0.17701 0.0
H563 H 0.16047 0.07293 0.27292 0.0
C564 C 0.12039 0.08811 0.27981 0.0
H565 H 0.03807 0.11594 0.26871 0.0
H566 H 0.10468 0.97777 0.16825 0.0
H567 H 0.0933 0.90477 0.19579 0.0
H568 H 0.07623 0.91783 0.24144 0.0
H569 H 0.07171 1.00366 0.25987 0.0
C570 C 0.07963 0.10276 0.26275 0.0
C571 C 0.08724 0.09489 0.23509 0.0
C572 C 0.0872 0.04421 0.22452 0.0
C573 C 0.09397 0.0367 0.19801 0.0
C574 C 0.09712 0.98571 0.1881 0.0
C575 C 0.09106 0.94343 0.20372 0.0
C576 C 0.08169 0.95078 0.22942 0.0
C577 C 0.07963 1.00042 0.2398 0.0
H578 H 0.92681 0.97427 0.85575 0.0
C579 C 0.96769 0.98949 0.86283 0.0
H580 H 0.04481 0.02429 0.85232 0.0
H581 H 0.03292 0.92525 0.74144 0.0
H582 H 0.11031 0.87562 0.76102 0.0
H583 H 0.13397 0.88431 0.80699 0.0
H584 H 0.08024 0.9426 0.83365 0.0
C585 C 1.00405 0.00788 0.84606 0.0
C586 C 0.99073 1.00445 0.81825 0.0
C587 C 0.02314 0.97078 0.8029 0.0
C588 C 0.00988 0.96616 0.77638 0.0
C589 C 0.04189 0.93111 0.7616 0.0
C590 C 0.08625 0.90214 0.77262 0.0
C591 C 0.09953 0.907 0.7985 0.0
C592 C 0.06839 0.9407 0.81358 0.0
H593 H 0.02336 0.03663 0.72899 0.0
C594 C 0.98706 0.01484 0.72114 0.0
H595 H 0.91339 0.97315 0.73075 0.0
H596 H 0.9238 0.07652 0.84179 0.0
H597 H 0.84645 0.12607 0.82215 0.0
H598 H 0.82192 0.11629 0.77631 0.0
H599 H 0.87501 0.05708 0.74979 0.0
C600 C 0.95221 0.9925 0.73737 0.0
C601 C 0.96474 0.9958 0.76524 0.0
C602 C 0.93234 0.02948 0.78055 0.0
C603 C 0.94578 0.03434 0.80706 0.0
C604 C 0.91436 0.07006 0.82171 0.0
C605 C 0.87008 0.09906 0.81064 0.0
C606 C 0.85634 0.09362 0.78482 0.0
C607 C 0.88709 0.05945 0.76983 0.0
H608 H 0.51723 0.47599 0.64115 0.0
C609 C 0.55537 0.48677 0.63134 0.0
H610 H 0.63224 0.52936 0.63451 0.0
H611 H 0.54648 0.66759 0.72539 0.0
H612 H 0.55384 0.73011 0.6918 0.0
H613 H 0.57606 0.70228 0.64819 0.0
H614 H 0.59145 0.612 0.63791 0.0
C615 C 0.5959 0.51424 0.64414 0.0
C616 C 0.58735 0.53121 0.67081 0.0
C617 C 0.57863 0.58425 0.67641 0.0
C618 C 0.56517 0.6003 0.70143 0.0
C619 C 0.55653 0.65341 0.70661 0.0
C620 C 0.56061 0.68965 0.68753 0.0
C621 C 0.57316 0.67398 0.66298 0.0
C622 C 0.58199 0.62198 0.65735 0.0
H623 H 0.62808 0.56626 0.76181 0.0
C624 C 0.58459 0.57775 0.76594 0.0
H625 H 0.50093 0.58857 0.75009 0.0
H626 H 0.61014 0.4277 0.66731 0.0
H627 H 0.60007 0.36502 0.70054 0.0
H628 H 0.56944 0.39199 0.74313 0.0
H629 H 0.54979 0.48169 0.75284 0.0
C630 C 0.54544 0.57988 0.7467 0.0
C631 C 0.56033 0.56332 0.72068 0.0
C632 C 0.5694 0.51026 0.71514 0.0
C633 C 0.58441 0.49437 0.69031 0.0
C634 C 0.5963 0.44158 0.68558 0.0
C635 C 0.59108 0.40524 0.70454 0.0
C636 C 0.57405 0.42044 0.72853 0.0
C637 C 0.56323 0.47222 0.73388 0.0
H638 H 0.56884 0.52969 0.34368 0.0
C639 C 0.53122 0.51381 0.35215 0.0
H640 H 0.44819 0.4839 0.34445 0.0
H641 H 0.40264 0.60592 0.24317 0.0
H642 H 0.34058 0.65211 0.27167 0.0
H643 H 0.34437 0.63489 0.3177 0.0
H644 H 0.40999 0.57117 0.33548 0.0
C645 C 0.48618 0.50068 0.33687 0.0
C646 C 0.48524 0.51137 0.30922 0.0
C647 C 0.44696 0.54906 0.29921 0.0
C648 C 0.44525 0.55943 0.27275 0.0
C649 C 0.40608 0.59681 0.26317 0.0
C650 C 0.37017 0.6236 0.27932 0.0
C651 C 0.37227 0.61387 0.30522 0.0
C652 C 0.41011 0.57711 0.31517 0.0
H653 H 0.44132 0.46872 0.22071 0.0
C654 C 0.45554 0.50458 0.21264 0.0
H655 H 0.48883 0.57874 0.22191 0.0
H656 H 0.56041 0.43356 0.32188 0.0
H657 H 0.62512 0.38997 0.29367 0.0
H658 H 0.62666 0.4122 0.24827 0.0
H659 H 0.56274 0.47755 0.23076 0.0
C660 C 0.47745 0.541 0.22858 0.0
C661 C 0.48185 0.5321 0.2564 0.0
C662 C 0.52115 0.49526 0.2665 0.0
C663 C 0.522 0.48407 0.29287 0.0
C664 C 0.55942 0.44505 0.3022 0.0
C665 C 0.59658 0.41946 0.28617 0.0
C666 C 0.59731 0.43184 0.2606 0.0
C667 C 0.56014 0.46924 0.25076 0.0
loop_
_geom_bond_atom_site_label_1
_geom_bond_atom_site_label_2
_geom_bond_distance
_geom_bond_site_symmetry_2
_ccdc_geom_bond_type
C0 O16 1.251 . S
C0 O18 1.254 1_554 S
N1 C2 1.333 1_445 S
N1 C6 1.307 . S
N1 Zn7 2.020 . S
C2 N1 1.333 1_665 S
C2 C3 1.379 . S
C2 H20 0.952 . S
C3 C2 1.379 . S
C3 C4 1.390 1_665 S
C3 H30 0.949 . S
C4 C3 1.390 1_445 S
C4 C5 1.357 . S
C5 C4 1.357 . S
C5 C6 1.370 . S
C5 H31 0.950 . S
C6 N1 1.307 . S
C6 C5 1.370 . S
C6 H24 0.948 . S
Zn7 N1 2.020 . S
Zn7 O16 2.039 1_445 S
Zn7 O22 2.034 1_455 S
Zn7 O26 2.025 . S
Zn7 O28 2.024 1_545 S
C8 O27 1.246 1_554 S
C8 O28 1.249 . S
N9 C10 1.307 1_445 S
N9 C11 1.333 . S
N9 Zn15 2.020 . S
C10 N9 1.307 1_665 S
C10 C14 1.370 . S
C10 H21 0.948 . S
C11 N9 1.333 . S
C11 C12 1.379 . S
C11 H19 0.952 . S
C12 C11 1.379 . S
C12 C13 1.390 . S
C12 H32 0.949 . S
C13 C12 1.390 . S
C13 C14 1.357 1_445 S
C14 C10 1.370 . S
C14 C13 1.357 1_665 S
C14 H33 0.950 . S
Zn15 N9 2.020 . S
Zn15 O18 2.025 1_445 S
Zn15 O23 2.024 1_455 S
Zn15 O25 2.039 . S
Zn15 O27 2.034 1_545 S
O16 C0 1.251 . S
O16 Zn7 2.039 1_665 S
C17 O22 1.246 . S
C17 O23 1.249 1_554 S
O18 C0 1.254 1_556 S
O18 Zn15 2.025 1_665 S
H19 C11 0.952 . S
H20 C2 0.952 . S
H21 C10 0.948 . S
O22 Zn7 2.034 1_655 S
O22 C17 1.246 . S
O23 Zn15 2.024 1_655 S
O23 C17 1.249 1_556 S
H24 C6 0.948 . S
O25 Zn15 2.039 . S
O25 C29 1.251 1_556 S
O26 Zn7 2.025 . S
O26 C29 1.254 . S
O27 C8 1.246 1_556 S
O27 Zn15 2.034 1_565 S
O28 Zn7 2.024 1_565 S
O28 C8 1.249 . S
C29 O25 1.251 1_554 S
C29 O26 1.254 . S
H30 C3 0.949 . S
H31 C5 0.950 . S
H32 C12 0.949 . S
H33 C14 0.950 . S
C34 O50 1.251 . S
C34 O52 1.254 . S
N35 C36 1.333 . S
N35 C40 1.307 . S
N35 Zn41 2.020 . S
C36 N35 1.333 . S
C36 C37 1.379 . S
C36 H54 0.952 . S
C37 C36 1.379 . S
C37 C38 1.390 . S
C37 H64 0.949 . S
C38 C37 1.390 . S
C38 C39 1.357 . S
C39 C38 1.357 . S
C39 C40 1.370 . S
C39 H65 0.950 . S
C40 N35 1.307 . S
C40 C39 1.370 . S
C40 H58 0.948 . S
Zn41 N35 2.020 . S
Zn41 O50 2.039 . S
Zn41 O56 2.034 . S
Zn41 O60 2.025 . S
Zn41 O62 2.024 . S
C42 O61 1.246 . S
C42 O62 1.249 . S
N43 C44 1.307 . S
N43 C45 1.333 . S
N43 Zn49 2.020 . S
C44 N43 1.307 . S
C44 C48 1.370 . S
C44 H55 0.948 . S
C45 N43 1.333 . S
C45 C46 1.379 . S
C45 H53 0.952 . S
C46 C45 1.379 . S
C46 C47 1.390 . S
C46 H66 0.949 . S
C47 C46 1.390 . S
C47 C48 1.357 . S
C48 C44 1.370 . S
C48 C47 1.357 . S
C48 H67 0.950 . S
Zn49 N43 2.020 . S
Zn49 O52 2.025 . S
Zn49 O57 2.024 . S
Zn49 O59 2.039 . S
Zn49 O61 2.034 . S
O50 C34 1.251 . S
O50 Zn41 2.039 . S
C51 O56 1.246 . S
C51 O57 1.249 . S
O52 C34 1.254 . S
O52 Zn49 2.025 . S
H53 C45 0.952 . S
H54 C36 0.952 . S
H55 C44 0.948 . S
O56 Zn41 2.034 . S
O56 C51 1.246 . S
O57 Zn49 2.024 . S
O57 C51 1.249 . S
H58 C40 0.948 . S
O59 Zn49 2.039 . S
O59 C63 1.251 . S
O60 Zn41 2.025 . S
O60 C63 1.254 . S
O61 C42 1.246 . S
O61 Zn49 2.034 . S
O62 Zn41 2.024 . S
O62 C42 1.249 . S
C63 O59 1.251 . S
C63 O60 1.254 . S
H64 C37 0.949 . S
H65 C39 0.950 . S
H66 C46 0.949 . S
H67 C48 0.950 . S
C68 C69 1.391 . S
C68 C72 1.391 . S
C68 H110 0.948 . S
C69 C68 1.391 . S
C69 C70 1.391 . S
C70 C69 1.391 . S
C70 H126 0.947 . S
C70 C127 1.392 . S
C71 C72 1.391 . S
C71 C75 1.397 . S
C71 C127 1.419 . S
C72 C68 1.391 . S
C72 C71 1.391 . S
C72 C73 1.399 . S
C73 C72 1.399 . S
C73 C76 1.396 . S
C73 C85 1.453 1_565 S
C73 C86 1.684 1_455 S
H74 C98 0.948 . S
C75 C71 1.397 . S
C75 C76 1.394 . S
C75 C94 1.723 . S
C76 C73 1.396 . S
C76 C75 1.394 . S
C76 C106 1.723 1_465 S
H77 C100 0.947 . S
H78 C101 0.948 . S
H79 C107 0.982 . S
H80 C108 0.979 . S
H81 C108 0.980 . S
H82 C108 0.983 . S
H83 C107 0.979 . S
H84 C107 0.977 . S
C85 C73 1.453 1_545 S
C85 H114 0.982 . S
C85 H115 0.979 1_545 S
C85 H116 0.977 . S
C86 C73 1.684 1_655 S
C86 H111 0.979 . S
C86 H112 0.980 . S
C86 H113 0.983 1_655 S
C87 C88 1.391 1_465 S
C87 C92 1.391 . S
C87 H117 0.948 . S
C88 C87 1.391 1_645 S
C88 C89 1.391 . S
C89 C88 1.391 . S
C89 C90 1.392 . S
C89 H118 0.947 . S
C90 C89 1.392 . S
C90 C91 1.419 . S
C90 H119 0.948 . S
C91 C90 1.419 . S
C91 C92 1.391 1_645 S
C91 C95 1.397 . S
C92 C87 1.391 . S
C92 C91 1.391 1_465 S
C92 C93 1.399 . S
C93 C92 1.399 . S
C93 C94 1.396 . S
C93 C96 1.453 . S
C93 C97 1.684 . S
C94 C75 1.723 . S
C94 C93 1.396 . S
C94 C95 1.394 1_465 S
C95 C91 1.397 . S
C95 C94 1.394 1_645 S
C95 C105 1.723 . S
C96 C93 1.453 . S
C96 H120 0.982 . S
C96 H121 0.979 . S
C96 H122 0.977 . S
C97 C93 1.684 . S
C97 H123 0.979 . S
C97 H124 0.980 . S
C97 H125 0.983 . S
C98 H74 0.948 . S
C98 C99 1.391 . S
C98 C103 1.391 . S
C99 C98 1.391 . S
C99 C100 1.391 . S
C100 H77 0.947 . S
C100 C99 1.391 . S
C100 C101 1.392 . S
C101 H78 0.948 . S
C101 C100 1.392 . S
C101 C102 1.419 . S
C102 C101 1.419 . S
C102 C103 1.391 . S
C102 C106 1.397 . S
C103 C98 1.391 . S
C103 C102 1.391 . S
C103 C104 1.399 . S
C104 C103 1.399 . S
C104 C105 1.396 . S
C104 C107 1.453 . S
C104 C108 1.684 . S
C105 C95 1.723 . S
C105 C104 1.396 . S
C105 C106 1.394 . S
C106 C76 1.723 1_645 S
C106 C102 1.397 . S
C106 C105 1.394 . S
C107 H79 0.982 . S
C107 H83 0.979 . S
C107 H84 0.977 . S
C107 C104 1.453 . S
C108 H80 0.979 . S
C108 H81 0.980 . S
C108 H82 0.983 . S
C108 C104 1.684 . S
H109 C127 0.948 . S
H110 C68 0.948 . S
H111 C86 0.979 . S
H112 C86 0.980 . S
H113 C86 0.983 1_455 S
H114 C85 0.982 . S
H115 C85 0.979 1_565 S
H116 C85 0.977 . S
H117 C87 0.948 . S
H118 C89 0.947 . S
H119 C90 0.948 . S
H120 C96 0.982 . S
H121 C96 0.979 . S
H122 C96 0.977 . S
H123 C97 0.979 . S
H124 C97 0.980 . S
H125 C97 0.983 . S
H126 C70 0.947 . S
C127 C70 1.392 . S
C127 C71 1.419 . S
C127 H109 0.948 . S
C128 C129 1.391 . S
C128 C132 1.391 . S
C128 H170 0.948 . S
C129 C128 1.391 . S
C129 C130 1.391 . S
C130 C129 1.391 . S
C130 H186 0.947 . S
C130 C187 1.392 . S
C131 C132 1.391 . S
C131 C135 1.397 . S
C131 C187 1.419 . S
C132 C128 1.391 . S
C132 C131 1.391 . S
C132 C133 1.399 . S
C133 C132 1.399 . S
C133 C136 1.396 . S
C133 C145 1.453 . S
C133 C146 1.685 1_455 S
H134 C158 0.948 . S
C135 C131 1.397 . S
C135 C136 1.394 . S
C135 C154 1.723 . S
C136 C133 1.396 . S
C136 C135 1.394 . S
C136 C166 1.723 1_445 S
H137 C160 0.947 . S
H138 C161 0.948 . S
H139 C167 0.982 . S
H140 C168 0.979 . S
H141 C168 0.980 . S
H142 C168 0.983 . S
H143 C167 0.979 . S
H144 C167 0.977 . S
C145 C133 1.453 . S
C145 H174 0.982 1_545 S
C145 H175 0.979 . S
C145 H176 0.977 1_545 S
C146 C133 1.685 1_655 S
C146 H171 0.978 . S
C146 H172 0.979 . S
C146 H173 0.984 1_655 S
C147 C148 1.391 . S
C147 C152 1.391 . S
C147 H177 0.948 . S
C148 C147 1.391 . S
C148 C149 1.391 1_445 S
C149 C148 1.391 1_665 S
C149 C150 1.392 . S
C149 H178 0.947 . S
C150 C149 1.392 . S
C150 C151 1.419 1_655 S
C150 H179 0.948 . S
C151 C150 1.419 1_455 S
C151 C152 1.391 1_565 S
C151 C155 1.397 1_565 S
C152 C147 1.391 . S
C152 C151 1.391 1_545 S
C152 C153 1.399 . S
C153 C152 1.399 . S
C153 C154 1.396 . S
C153 C156 1.453 . S
C153 C157 1.684 . S
C154 C135 1.723 . S
C154 C153 1.396 . S
C154 C155 1.394 . S
C155 C151 1.397 1_545 S
C155 C154 1.394 . S
C155 C165 1.723 1_445 S
C156 C153 1.453 . S
C156 H180 0.982 . S
C156 H181 0.979 . S
C156 H182 0.977 . S
C157 C153 1.684 . S
C157 H183 0.979 . S
C157 H184 0.980 . S
C157 H185 0.983 . S
C158 H134 0.948 . S
C158 C159 1.391 . S
C158 C163 1.391 . S
C159 C158 1.391 . S
C159 C160 1.391 . S
C160 H137 0.947 . S
C160 C159 1.391 . S
C160 C161 1.392 . S
C161 H138 0.948 . S
C161 C160 1.392 . S
C161 C162 1.419 . S
C162 C161 1.419 . S
C162 C163 1.391 . S
C162 C166 1.397 . S
C163 C158 1.391 . S
C163 C162 1.391 . S
C163 C164 1.399 . S
C164 C163 1.399 . S
C164 C165 1.396 . S
C164 C167 1.453 . S
C164 C168 1.684 . S
C165 C155 1.723 1_665 S
C165 C164 1.396 . S
C165 C166 1.394 . S
C166 C136 1.723 1_665 S
C166 C162 1.397 . S
C166 C165 1.394 . S
C167 H139 0.982 . S
C167 H143 0.979 . S
C167 H144 0.977 . S
C167 C164 1.453 . S
C168 H140 0.979 . S
C168 H141 0.980 . S
C168 H142 0.983 . S
C168 C164 1.684 . S
H169 C187 0.948 . S
H170 C128 0.948 . S
H171 C146 0.978 . S
H172 C146 0.979 . S
H173 C146 0.984 1_455 S
H174 C145 0.982 1_565 S
H175 C145 0.979 . S
H176 C145 0.977 1_565 S
H177 C147 0.948 . S
H178 C149 0.947 . S
H179 C150 0.948 . S
H180 C156 0.982 . S
H181 C156 0.979 . S
H182 C156 0.977 . S
H183 C157 0.979 . S
H184 C157 0.980 . S
H185 C157 0.983 . S
H186 C130 0.947 . S
C187 C130 1.392 . S
C187 C131 1.419 . S
C187 H169 0.948 . S
C188 C189 1.391 . S
C188 C192 1.391 . S
C188 H230 0.948 1_556 S
C189 C188 1.391 . S
C189 C190 1.391 . S
C190 C189 1.391 . S
C190 H246 0.947 . S
C190 C247 1.392 . S
C191 C192 1.391 . S
C191 C195 1.397 . S
C191 C247 1.419 . S
C192 C188 1.391 . S
C192 C191 1.391 . S
C192 C193 1.399 . S
C193 C192 1.399 . S
C193 C196 1.396 . S
C193 C205 1.453 1_556 S
C193 C206 1.684 1_556 S
H194 C218 0.948 . S
C195 C191 1.397 . S
C195 C196 1.394 . S
C195 C214 1.723 . S
C196 C193 1.396 . S
C196 C195 1.394 . S
C196 C226 1.723 . S
H197 C220 0.947 . S
H198 C221 0.948 1_554 S
H199 C227 0.982 . S
H200 C228 0.979 . S
H201 C228 0.980 . S
H202 C228 0.983 . S
H203 C227 0.979 . S
H204 C227 0.977 . S
C205 C193 1.453 1_554 S
C205 H234 0.982 1_554 S
C205 H235 0.979 . S
C205 H236 0.977 . S
C206 C193 1.684 1_554 S
C206 H231 0.979 . S
C206 H232 0.980 . S
C206 H233 0.983 . S
C207 C208 1.391 . S
C207 C212 1.391 . S
C207 H237 0.948 . S
C208 C207 1.391 . S
C208 C209 1.391 . S
C209 C208 1.391 . S
C209 C210 1.392 . S
C209 H238 0.947 . S
C210 C209 1.392 . S
C210 C211 1.419 . S
C210 H239 0.948 . S
C211 C210 1.419 . S
C211 C212 1.391 . S
C211 C215 1.397 . S
C212 C207 1.391 . S
C212 C211 1.391 . S
C212 C213 1.399 . S
C213 C212 1.399 . S
C213 C214 1.396 . S
C213 C216 1.453 . S
C213 C217 1.684 . S
C214 C195 1.723 . S
C214 C213 1.396 . S
C214 C215 1.394 . S
C215 C211 1.397 . S
C215 C214 1.394 . S
C215 C225 1.723 . S
C216 C213 1.453 . S
C216 H240 0.982 . S
C216 H241 0.979 . S
C216 H242 0.977 . S
C217 C213 1.684 . S
C217 H243 0.979 . S
C217 H244 0.980 . S
C217 H245 0.983 . S
C218 H194 0.948 . S
C218 C219 1.391 . S
C218 C223 1.391 . S
C219 C218 1.391 . S
C219 C220 1.391 1_556 S
C220 H197 0.947 . S
C220 C219 1.391 1_554 S
C220 C221 1.392 1_554 S
C221 H198 0.948 1_556 S
C221 C220 1.392 1_556 S
C221 C222 1.419 . S
C222 C221 1.419 . S
C222 C223 1.391 . S
C222 C226 1.397 . S
C223 C218 1.391 . S
C223 C222 1.391 . S
C223 C224 1.399 . S
C224 C223 1.399 . S
C224 C225 1.396 . S
C224 C227 1.453 . S
C224 C228 1.684 . S
C225 C215 1.723 . S
C225 C224 1.396 . S
C225 C226 1.394 . S
C226 C196 1.723 . S
C226 C222 1.397 . S
C226 C225 1.394 . S
C227 H199 0.982 . S
C227 H203 0.979 . S
C227 H204 0.977 . S
C227 C224 1.453 . S
C228 H200 0.979 . S
C228 H201 0.980 . S
C228 H202 0.983 . S
C228 C224 1.684 . S
H229 C247 0.948 . S
H230 C188 0.948 1_554 S
H231 C206 0.979 . S
H232 C206 0.980 . S
H233 C206 0.983 . S
H234 C205 0.982 1_556 S
H235 C205 0.979 . S
H236 C205 0.977 . S
H237 C207 0.948 . S
H238 C209 0.947 . S
H239 C210 0.948 . S
H240 C216 0.982 . S
H241 C216 0.979 . S
H242 C216 0.977 . S
H243 C217 0.979 . S
H244 C217 0.980 . S
H245 C217 0.983 . S
H246 C190 0.947 . S
C247 C190 1.392 . S
C247 C191 1.419 . S
C247 H229 0.948 . S
C248 C249 1.391 . S
C248 C252 1.391 . S
C248 H290 0.948 1_554 S
C249 C248 1.391 . S
C249 C250 1.391 . S
C250 C249 1.391 . S
C250 H306 0.947 . S
C250 C307 1.392 . S
C251 C252 1.391 . S
C251 C255 1.397 . S
C251 C307 1.419 . S
C252 C248 1.391 . S
C252 C251 1.391 . S
C252 C253 1.399 . S
C253 C252 1.399 . S
C253 C256 1.396 . S
C253 C265 1.462 . S
C253 C266 1.684 1_554 S
H254 C278 0.948 . S
C255 C251 1.397 . S
C255 C256 1.394 . S
C255 C274 1.723 . S
C256 C253 1.396 . S
C256 C255 1.394 . S
C256 C286 1.723 . S
H257 C280 0.947 . S
H258 C281 0.948 1_556 S
H259 C287 0.982 . S
H260 C288 0.979 . S
H261 C288 0.980 . S
H262 C288 0.983 . S
H263 C287 0.979 . S
H264 C287 0.977 . S
C265 C253 1.462 . S
C265 H294 0.989 . S
C265 H295 0.966 1_554 S
C265 H296 0.975 1_554 S
C266 C253 1.684 1_556 S
C266 H291 0.979 . S
C266 H292 0.980 . S
C266 H293 0.983 . S
C267 C268 1.391 . S
C267 C272 1.391 . S
C267 H297 0.948 . S
C268 C267 1.391 . S
C268 C269 1.391 . S
C269 C268 1.391 . S
C269 C270 1.392 . S
C269 H298 0.947 . S
C270 C269 1.392 . S
C270 C271 1.419 . S
C270 H299 0.948 . S
C271 C270 1.419 . S
C271 C272 1.391 . S
C271 C275 1.397 . S
C272 C267 1.391 . S
C272 C271 1.391 . S
C272 C273 1.399 . S
C273 C272 1.399 . S
C273 C274 1.396 . S
C273 C276 1.453 . S
C273 C277 1.684 . S
C274 C255 1.723 . S
C274 C273 1.396 . S
C274 C275 1.394 . S
C275 C271 1.397 . S
C275 C274 1.394 . S
C275 C285 1.723 . S
C276 C273 1.453 . S
C276 H300 0.982 . S
C276 H301 0.979 . S
C276 H302 0.977 . S
C277 C273 1.684 . S
C277 H303 0.979 . S
C277 H304 0.980 . S
C277 H305 0.983 . S
C278 H254 0.948 . S
C278 C279 1.391 . S
C278 C283 1.391 . S
C279 C278 1.391 . S
C279 C280 1.391 1_554 S
C280 H257 0.947 . S
C280 C279 1.391 1_556 S
C280 C281 1.392 1_556 S
C281 H258 0.948 1_554 S
C281 C280 1.392 1_554 S
C281 C282 1.419 . S
C282 C281 1.419 . S
C282 C283 1.391 . S
C282 C286 1.397 . S
C283 C278 1.391 . S
C283 C282 1.391 . S
C283 C284 1.399 . S
C284 C283 1.399 . S
C284 C285 1.396 . S
C284 C287 1.453 . S
C284 C288 1.684 . S
C285 C275 1.723 . S
C285 C284 1.396 . S
C285 C286 1.394 . S
C286 C256 1.723 . S
C286 C282 1.397 . S
C286 C285 1.394 . S
C287 H259 0.982 . S
C287 H263 0.979 . S
C287 H264 0.977 . S
C287 C284 1.453 . S
C288 H260 0.979 . S
C288 H261 0.980 . S
C288 H262 0.983 . S
C288 C284 1.684 . S
H289 C307 0.948 . S
H290 C248 0.948 1_556 S
H291 C266 0.979 . S
H292 C266 0.980 . S
H293 C266 0.983 . S
H294 C265 0.989 . S
H295 C265 0.966 1_556 S
H296 C265 0.975 1_556 S
H297 C267 0.948 . S
H298 C269 0.947 . S
H299 C270 0.948 . S
H300 C276 0.982 . S
H301 C276 0.979 . S
H302 C276 0.977 . S
H303 C277 0.979 . S
H304 C277 0.980 . S
H305 C277 0.983 . S
H306 C250 0.947 . S
C307 C250 1.392 . S
C307 C251 1.419 . S
C307 H289 0.948 . S
H308 C309 0.951 . S
C309 H308 0.951 . S
C309 C315 1.265 . S
H310 C315 0.950 . S
H311 C319 0.949 . S
H312 C320 0.950 . S
H313 C321 0.951 . S
H314 C322 0.951 . S
C315 C309 1.265 . S
C315 H310 0.950 . S
C315 C316 1.478 . S
C316 C315 1.478 . S
C316 C317 1.397 . S
C316 C333 1.394 1_554 S
C317 C316 1.397 . S
C317 C318 1.438 . S
C317 C322 1.429 . S
C318 C317 1.438 . S
C318 C319 1.428 . S
C318 C331 1.394 . S
C319 H311 0.949 . S
C319 C318 1.428 . S
C319 C320 1.345 . S
C320 H312 0.950 . S
C320 C319 1.345 . S
C320 C321 1.424 . S
C321 H313 0.951 . S
C321 C320 1.424 . S
C321 C322 1.347 . S
C322 H314 0.951 . S
C322 C317 1.429 . S
C322 C321 1.347 . S
H323 C324 0.951 . S
C324 H323 0.951 . S
C324 C330 1.265 . S
H325 C330 0.950 . S
H326 C334 0.949 . S
H327 C335 0.950 . S
H328 C336 0.951 . S
H329 C337 0.951 . S
C330 C324 1.265 . S
C330 H325 0.950 . S
C330 C331 1.478 . S
C331 C318 1.394 . S
C331 C330 1.478 . S
C331 C332 1.397 1_554 S
C332 C331 1.397 1_556 S
C332 C333 1.438 . S
C332 C337 1.429 . S
C333 C316 1.394 1_556 S
C333 C332 1.438 . S
C333 C334 1.428 . S
C334 H326 0.949 . S
C334 C333 1.428 . S
C334 C335 1.345 . S
C335 H327 0.950 . S
C335 C334 1.345 . S
C335 C336 1.424 . S
C336 H328 0.951 . S
C336 C335 1.424 . S
C336 C337 1.347 . S
C337 H329 0.951 . S
C337 C332 1.429 . S
C337 C336 1.347 . S
H338 C339 0.951 . S
C339 H338 0.951 . S
C339 C345 1.265 1_554 S
H340 C345 0.950 . S
H341 C349 0.949 . S
H342 C350 0.950 . S
H343 C351 0.951 . S
H344 C352 0.951 . S
C345 C339 1.265 1_556 S
C345 H340 0.950 . S
C345 C346 1.478 . S
C346 C345 1.478 . S
C346 C347 1.383 1_556 S
C346 C363 1.408 . S
C347 C346 1.383 1_554 S
C347 C348 1.438 . S
C347 C352 1.429 . S
C348 C347 1.438 . S
C348 C349 1.428 . S
C348 C361 1.364 1_554 S
C349 H341 0.949 . S
C349 C348 1.428 . S
C349 C350 1.345 . S
C350 H342 0.950 . S
C350 C349 1.345 . S
C350 C351 1.424 . S
C351 H343 0.951 . S
C351 C350 1.424 . S
C351 C352 1.347 . S
C352 H344 0.951 . S
C352 C347 1.429 . S
C352 C351 1.347 . S
H353 C354 0.951 . S
C354 H353 0.951 . S
C354 C360 1.265 . S
H355 C360 0.945 1_554 S
H356 C364 0.949 . S
H357 C365 0.950 . S
H358 C366 0.951 . S
H359 C367 0.951 . S
C360 C354 1.265 . S
C360 H355 0.945 1_556 S
C360 C361 1.480 . S
C361 C348 1.364 1_556 S
C361 C360 1.480 . S
C361 C362 1.428 . S
C362 C361 1.428 . S
C362 C363 1.438 . S
C362 C367 1.429 . S
C363 C346 1.408 . S
C363 C362 1.438 . S
C363 C364 1.428 . S
C364 H356 0.949 . S
C364 C363 1.428 . S
C364 C365 1.345 . S
C365 H357 0.950 . S
C365 C364 1.345 . S
C365 C366 1.424 . S
C366 H358 0.951 . S
C366 C365 1.424 . S
C366 C367 1.347 . S
C367 H359 0.951 . S
C367 C362 1.429 . S
C367 C366 1.347 . S
H368 C369 0.951 . S
C369 H368 0.951 . S
C369 C375 1.265 . S
H370 C375 0.950 . S
H371 C379 0.949 . S
H372 C380 0.950 . S
H373 C381 0.951 . S
H374 C382 0.951 . S
C375 C369 1.265 . S
C375 H370 0.950 . S
C375 C376 1.478 . S
C376 C375 1.478 . S
C376 C377 1.397 . S
C376 C393 1.394 1_554 S
C377 C376 1.397 . S
C377 C378 1.438 . S
C377 C382 1.429 . S
C378 C377 1.438 . S
C378 C379 1.428 . S
C378 C391 1.394 . S
C379 H371 0.949 . S
C379 C378 1.428 . S
C379 C380 1.345 . S
C380 H372 0.950 . S
C380 C379 1.345 . S
C380 C381 1.424 . S
C381 H373 0.951 . S
C381 C380 1.424 . S
C381 C382 1.347 . S
C382 H374 0.951 . S
C382 C377 1.429 . S
C382 C381 1.347 . S
H383 C384 0.951 . S
C384 H383 0.951 . S
C384 C390 1.265 . S
H385 C390 0.950 . S
H386 C394 0.949 . S
H387 C395 0.950 . S
H388 C396 0.951 . S
H389 C397 0.951 . S
C390 C384 1.265 . S
C390 H385 0.950 . S
C390 C391 1.478 . S
C391 C378 1.394 . S
C391 C390 1.478 . S
C391 C392 1.397 1_554 S
C392 C391 1.397 1_556 S
C392 C393 1.438 . S
C392 C397 1.429 . S
C393 C376 1.394 1_556 S
C393 C392 1.438 . S
C393 C394 1.428 . S
C394 H386 0.949 . S
C394 C393 1.428 . S
C394 C395 1.345 . S
C395 H387 0.950 . S
C395 C394 1.345 . S
C395 C396 1.424 . S
C396 H388 0.951 . S
C396 C395 1.424 . S
C396 C397 1.347 . S
C397 H389 0.951 . S
C397 C392 1.429 . S
C397 C396 1.347 . S
H398 C399 0.951 . S
C399 H398 0.951 . S
C399 C405 1.265 . S
H400 C405 0.950 . S
H401 C409 0.949 . S
H402 C410 0.950 . S
H403 C411 0.951 . S
H404 C412 0.951 . S
C405 C399 1.265 . S
C405 H400 0.950 . S
C405 C406 1.478 . S
C406 C405 1.478 . S
C406 C407 1.397 . S
C406 C423 1.394 1_554 S
C407 C406 1.397 . S
C407 C408 1.438 . S
C407 C412 1.429 . S
C408 C407 1.438 . S
C408 C409 1.428 . S
C408 C421 1.394 1_554 S
C409 H401 0.949 . S
C409 C408 1.428 . S
C409 C410 1.345 . S
C410 H402 0.950 . S
C410 C409 1.345 . S
C410 C411 1.424 . S
C411 H403 0.951 . S
C411 C410 1.424 . S
C411 C412 1.347 . S
C412 H404 0.951 . S
C412 C407 1.429 . S
C412 C411 1.347 . S
H413 C414 0.951 . S
C414 H413 0.951 . S
C414 C420 1.265 . S
H415 C420 0.950 . S
H416 C424 0.949 . S
H417 C425 0.950 . S
H418 C426 0.951 . S
H419 C427 0.951 . S
C420 C414 1.265 . S
C420 H415 0.950 . S
C420 C421 1.478 . S
C421 C408 1.394 1_556 S
C421 C420 1.478 . S
C421 C422 1.397 . S
C422 C421 1.397 . S
C422 C423 1.438 . S
C422 C427 1.429 . S
C423 C406 1.394 1_556 S
C423 C422 1.438 . S
C423 C424 1.428 . S
C424 H416 0.949 . S
C424 C423 1.428 . S
C424 C425 1.345 . S
C425 H417 0.950 . S
C425 C424 1.345 . S
C425 C426 1.424 . S
C426 H418 0.951 . S
C426 C425 1.424 . S
C426 C427 1.347 . S
C427 H419 0.951 . S
C427 C422 1.429 . S
C427 C426 1.347 . S
H428 C429 0.951 . S
C429 H428 0.951 . S
C429 C435 1.265 . S
H430 C435 0.950 . S
H431 C439 0.949 . S
H432 C440 0.950 . S
H433 C441 0.951 . S
H434 C442 0.951 . S
C435 C429 1.265 . S
C435 H430 0.950 . S
C435 C436 1.478 . S
C436 C435 1.478 . S
C436 C437 1.397 . S
C436 C453 1.394 . S
C437 C436 1.397 . S
C437 C438 1.438 . S
C437 C442 1.429 . S
C438 C437 1.438 . S
C438 C439 1.428 . S
C438 C451 1.394 . S
C439 H431 0.949 . S
C439 C438 1.428 . S
C439 C440 1.345 . S
C440 H432 0.950 . S
C440 C439 1.345 . S
C440 C441 1.424 . S
C441 H433 0.951 . S
C441 C440 1.424 . S
C441 C442 1.347 . S
C442 H434 0.951 . S
C442 C437 1.429 . S
C442 C441 1.347 . S
H443 C444 0.951 . S
C444 H443 0.951 . S
C444 C450 1.265 . S
H445 C450 0.950 . S
H446 C454 0.949 . S
H447 C455 0.950 . S
H448 C456 0.951 . S
H449 C457 0.951 . S
C450 C444 1.265 . S
C450 H445 0.950 . S
C450 C451 1.478 . S
C451 C438 1.394 . S
C451 C450 1.478 . S
C451 C452 1.397 . S
C452 C451 1.397 . S
C452 C453 1.438 . S
C452 C457 1.429 . S
C453 C436 1.394 . S
C453 C452 1.438 . S
C453 C454 1.428 . S
C454 H446 0.949 . S
C454 C453 1.428 . S
C454 C455 1.345 . S
C455 H447 0.950 . S
C455 C454 1.345 . S
C455 C456 1.424 . S
C456 H448 0.951 . S
C456 C455 1.424 . S
C456 C457 1.347 . S
C457 H449 0.951 . S
C457 C452 1.429 . S
C457 C456 1.347 . S
H458 C459 0.951 . S
C459 H458 0.951 . S
C459 C465 1.265 . S
H460 C465 0.950 . S
H461 C469 0.949 . S
H462 C470 0.950 . S
H463 C471 0.951 . S
H464 C472 0.951 . S
C465 C459 1.265 . S
C465 H460 0.950 . S
C465 C466 1.478 . S
C466 C465 1.478 . S
C466 C467 1.397 . S
C466 C483 1.394 . S
C467 C466 1.397 . S
C467 C468 1.438 . S
C467 C472 1.429 . S
C468 C467 1.438 . S
C468 C469 1.428 . S
C468 C481 1.394 . S
C469 H461 0.949 . S
C469 C468 1.428 . S
C469 C470 1.345 . S
C470 H462 0.950 . S
C470 C469 1.345 . S
C470 C471 1.424 . S
C471 H463 0.951 . S
C471 C470 1.424 . S
C471 C472 1.347 . S
C472 H464 0.951 . S
C472 C467 1.429 . S
C472 C471 1.347 . S
H473 C474 0.951 . S
C474 H473 0.951 . S
C474 C480 1.265 . S
H475 C480 0.950 . S
H476 C484 0.949 . S
H477 C485 0.950 . S
H478 C486 0.951 . S
H479 C487 0.951 . S
C480 C474 1.265 . S
C480 H475 0.950 . S
C480 C481 1.478 . S
C481 C468 1.394 . S
C481 C480 1.478 . S
C481 C482 1.397 . S
C482 C481 1.397 . S
C482 C483 1.438 . S
C482 C487 1.429 . S
C483 C466 1.394 . S
C483 C482 1.438 . S
C483 C484 1.428 . S
C484 H476 0.949 . S
C484 C483 1.428 . S
C484 C485 1.345 . S
C485 H477 0.950 . S
C485 C484 1.345 . S
C485 C486 1.424 . S
C486 H478 0.951 . S
C486 C485 1.424 . S
C486 C487 1.347 . S
C487 H479 0.951 . S
C487 C482 1.429 . S
C487 C486 1.347 . S
H488 C489 0.951 . S
C489 H488 0.951 . S
C489 C495 1.265 . S
H490 C495 0.950 . S
H491 C499 0.949 . S
H492 C500 0.950 . S
H493 C501 0.951 . S
H494 C502 0.951 . S
C495 C489 1.265 . S
C495 H490 0.950 . S
C495 C496 1.478 . S
C496 C495 1.478 . S
C496 C497 1.397 . S
C496 C513 1.394 . S
C497 C496 1.397 . S
C497 C498 1.438 . S
C497 C502 1.429 . S
C498 C497 1.438 . S
C498 C499 1.428 . S
C498 C511 1.394 . S
C499 H491 0.949 . S
C499 C498 1.428 . S
C499 C500 1.345 . S
C500 H492 0.950 . S
C500 C499 1.345 . S
C500 C501 1.424 . S
C501 H493 0.951 . S
C501 C500 1.424 . S
C501 C502 1.347 . S
C502 H494 0.951 . S
C502 C497 1.429 . S
C502 C501 1.347 . S
H503 C504 0.951 . S
C504 H503 0.951 . S
C504 C510 1.265 . S
H505 C510 0.950 . S
H506 C514 0.949 . S
H507 C515 0.950 . S
H508 C516 0.951 . S
H509 C517 0.951 . S
C510 C504 1.265 . S
C510 H505 0.950 . S
C510 C511 1.478 . S
C511 C498 1.394 . S
C511 C510 1.478 . S
C511 C512 1.397 . S
C512 C511 1.397 . S
C512 C513 1.438 . S
C512 C517 1.429 . S
C513 C496 1.394 . S
C513 C512 1.438 . S
C513 C514 1.428 . S
C514 H506 0.949 . S
C514 C513 1.428 . S
C514 C515 1.345 . S
C515 H507 0.950 . S
C515 C514 1.345 . S
C515 C516 1.424 . S
C516 H508 0.951 . S
C516 C515 1.424 . S
C516 C517 1.347 . S
C517 H509 0.951 . S
C517 C512 1.429 . S
C517 C516 1.347 . S
H518 C519 0.951 . S
C519 H518 0.951 . S
C519 C525 1.265 . S
H520 C525 0.950 . S
H521 C529 0.949 . S
H522 C530 0.950 . S
H523 C531 0.951 . S
H524 C532 0.951 . S
C525 C519 1.265 . S
C525 H520 0.950 . S
C525 C526 1.478 . S
C526 C525 1.478 . S
C526 C527 1.397 . S
C526 C543 1.394 . S
C527 C526 1.397 . S
C527 C528 1.438 . S
C527 C532 1.429 . S
C528 C527 1.438 . S
C528 C529 1.428 . S
C528 C541 1.394 . S
C529 H521 0.949 . S
C529 C528 1.428 . S
C529 C530 1.345 . S
C530 H522 0.950 . S
C530 C529 1.345 . S
C530 C531 1.424 . S
C531 H523 0.951 . S
C531 C530 1.424 . S
C531 C532 1.347 . S
C532 H524 0.951 . S
C532 C527 1.429 . S
C532 C531 1.347 . S
H533 C534 0.951 . S
C534 H533 0.951 . S
C534 C540 1.265 . S
H535 C540 0.950 . S
H536 C544 0.949 . S
H537 C545 0.950 . S
H538 C546 0.951 . S
H539 C547 0.951 . S
C540 C534 1.265 . S
C540 H535 0.950 . S
C540 C541 1.478 . S
C541 C528 1.394 . S
C541 C540 1.478 . S
C541 C542 1.397 . S
C542 C541 1.397 . S
C542 C543 1.438 . S
C542 C547 1.429 . S
C543 C526 1.394 . S
C543 C542 1.438 . S
C543 C544 1.428 . S
C544 H536 0.949 . S
C544 C543 1.428 . S
C544 C545 1.345 . S
C545 H537 0.950 . S
C545 C544 1.345 . S
C545 C546 1.424 . S
C546 H538 0.951 . S
C546 C545 1.424 . S
C546 C547 1.347 . S
C547 H539 0.951 . S
C547 C542 1.429 . S
C547 C546 1.347 . S
H548 C549 0.969 1_565 S
C549 H548 0.969 1_545 S
C549 C555 1.254 1_655 S
H550 C555 0.950 . S
H551 C559 0.949 . S
H552 C560 0.950 . S
H553 C561 0.951 . S
H554 C562 0.951 . S
C555 C549 1.254 1_455 S
C555 H550 0.950 . S
C555 C556 1.478 . S
C556 C555 1.478 . S
C556 C557 1.397 . S
C556 C573 1.394 1_445 S
C557 C556 1.397 . S
C557 C558 1.438 . S
C557 C562 1.429 . S
C558 C557 1.438 . S
C558 C559 1.428 . S
C558 C571 1.396 1_455 S
C559 H551 0.949 . S
C559 C558 1.428 . S
C559 C560 1.345 . S
C560 H552 0.950 . S
C560 C559 1.345 . S
C560 C561 1.424 . S
C561 H553 0.951 . S
C561 C560 1.424 . S
C561 C562 1.347 . S
C562 H554 0.951 . S
C562 C557 1.429 . S
C562 C561 1.347 . S
H563 C564 0.951 . S
C564 H563 0.951 . S
C564 C570 1.265 1_445 S
H565 C570 0.950 . S
H566 C574 0.949 . S
H567 C575 0.950 . S
H568 C576 0.951 . S
H569 C577 0.951 . S
C570 C564 1.265 1_665 S
C570 H565 0.950 . S
C570 C571 1.478 1_565 S
C571 C558 1.396 1_655 S
C571 C570 1.478 1_545 S
C571 C572 1.395 1_545 S
C572 C571 1.395 1_565 S
C572 C573 1.438 . S
C572 C577 1.429 . S
C573 C556 1.394 1_665 S
C573 C572 1.438 . S
C573 C574 1.428 . S
C574 H566 0.949 . S
C574 C573 1.428 . S
C574 C575 1.345 . S
C575 H567 0.950 . S
C575 C574 1.345 . S
C575 C576 1.424 . S
C576 H568 0.951 . S
C576 C575 1.424 . S
C576 C577 1.347 . S
C577 H569 0.951 . S
C577 C572 1.429 . S
C577 C576 1.347 . S
H578 C579 0.951 1_655 S
C579 H578 0.951 1_455 S
C579 C585 1.265 . S
H580 C585 0.950 . S
H581 C589 0.949 . S
H582 C590 0.950 . S
H583 C591 0.951 . S
H584 C592 0.951 . S
C585 C579 1.265 . S
C585 H580 0.950 . S
C585 C586 1.478 . S
C586 C585 1.478 . S
C586 C587 1.397 1_545 S
C586 C603 1.394 1_455 S
C587 C586 1.397 1_565 S
C587 C588 1.438 . S
C587 C592 1.429 . S
C588 C587 1.438 . S
C588 C589 1.428 . S
C588 C601 1.394 1_565 S
C589 H581 0.949 . S
C589 C588 1.428 . S
C589 C590 1.345 . S
C590 H582 0.950 . S
C590 C589 1.345 . S
C590 C591 1.424 . S
C591 H583 0.951 . S
C591 C590 1.424 . S
C591 C592 1.347 . S
C592 H584 0.951 . S
C592 C587 1.429 . S
C592 C591 1.347 . S
H593 C594 0.951 . S
C594 H593 0.951 . S
C594 C600 1.265 1_455 S
H595 C600 0.950 . S
H596 C604 0.949 . S
H597 C605 0.950 . S
H598 C606 0.951 . S
H599 C607 0.951 . S
C600 C594 1.265 1_655 S
C600 H595 0.950 . S
C600 C601 1.478 1_655 S
C601 C588 1.394 1_545 S
C601 C600 1.478 1_455 S
C601 C602 1.397 1_455 S
C602 C601 1.397 1_655 S
C602 C603 1.438 . S
C602 C607 1.429 . S
C603 C586 1.394 1_655 S
C603 C602 1.438 . S
C603 C604 1.428 . S
C604 H596 0.949 . S
C604 C603 1.428 . S
C604 C605 1.345 . S
C605 H597 0.950 . S
C605 C604 1.345 . S
C605 C606 1.424 . S
C606 H598 0.951 . S
C606 C605 1.424 . S
C606 C607 1.347 . S
C607 H599 0.951 . S
C607 C602 1.429 . S
C607 C606 1.347 . S
H608 C609 0.951 . S
C609 H608 0.951 . S
C609 C615 1.265 . S
H610 C615 0.950 . S
H611 C619 0.949 . S
H612 C620 0.950 . S
H613 C621 0.951 . S
H614 C622 0.951 . S
C615 C609 1.265 . S
C615 H610 0.950 . S
C615 C616 1.478 . S
C616 C615 1.478 . S
C616 C617 1.397 . S
C616 C633 1.394 . S
C617 C616 1.397 . S
C617 C618 1.438 . S
C617 C622 1.429 . S
C618 C617 1.438 . S
C618 C619 1.428 . S
C618 C631 1.394 . S
C619 H611 0.949 . S
C619 C618 1.428 . S
C619 C620 1.345 . S
C620 H612 0.950 . S
C620 C619 1.345 . S
C620 C621 1.424 . S
C621 H613 0.951 . S
C621 C620 1.424 . S
C621 C622 1.347 . S
C622 H614 0.951 . S
C622 C617 1.429 . S
C622 C621 1.347 . S
H623 C624 0.951 . S
C624 H623 0.951 . S
C624 C630 1.265 . S
H625 C630 0.950 . S
H626 C634 0.949 . S
H627 C635 0.950 . S
H628 C636 0.951 . S
H629 C637 0.951 . S
C630 C624 1.265 . S
C630 H625 0.950 . S
C630 C631 1.478 . S
C631 C618 1.394 . S
C631 C630 1.478 . S
C631 C632 1.397 . S
C632 C631 1.397 . S
C632 C633 1.438 . S
C632 C637 1.429 . S
C633 C616 1.394 . S
C633 C632 1.438 . S
C633 C634 1.428 . S
C634 H626 0.949 . S
C634 C633 1.428 . S
C634 C635 1.345 . S
C635 H627 0.950 . S
C635 C634 1.345 . S
C635 C636 1.424 . S
C636 H628 0.951 . S
C636 C635 1.424 . S
C636 C637 1.347 . S
C637 H629 0.951 . S
C637 C632 1.429 . S
C637 C636 1.347 . S
H638 C639 0.951 . S
C639 H638 0.951 . S
C639 C645 1.265 . S
H640 C645 0.950 . S
H641 C649 0.949 . S
H642 C650 0.950 . S
H643 C651 0.951 . S
H644 C652 0.951 . S
C645 C639 1.265 . S
C645 H640 0.950 . S
C645 C646 1.478 . S
C646 C645 1.478 . S
C646 C647 1.397 . S
C646 C663 1.394 . S
C647 C646 1.397 . S
C647 C648 1.438 . S
C647 C652 1.429 . S
C648 C647 1.438 . S
C648 C649 1.428 . S
C648 C661 1.394 . S
C649 H641 0.949 . S
C649 C648 1.428 . S
C649 C650 1.345 . S
C650 H642 0.950 . S
C650 C649 1.345 . S
C650 C651 1.424 . S
C651 H643 0.951 . S
C651 C650 1.424 . S
C651 C652 1.347 . S
C652 H644 0.951 . S
C652 C647 1.429 . S
C652 C651 1.347 . S
H653 C654 0.951 . S
C654 H653 0.951 . S
C654 C660 1.265 . S
H655 C660 0.950 . S
H656 C664 0.949 . S
H657 C665 0.950 . S
H658 C666 0.951 . S
H659 C667 0.951 . S
C660 C654 1.265 . S
C660 H655 0.950 . S
C660 C661 1.478 . S
C661 C648 1.394 . S
C661 C660 1.478 . S
C661 C662 1.397 . S
C662 C661 1.397 . S
C662 C663 1.438 . S
C662 C667 1.429 . S
C663 C646 1.394 . S
C663 C662 1.438 . S
C663 C664 1.428 . S
C664 H656 0.949 . S
C664 C663 1.428 . S
C664 C665 1.345 . S
C665 H657 0.950 . S
C665 C664 1.345 . S
C665 C666 1.424 . S
C666 H658 0.951 . S
C666 C665 1.424 . S
C666 C667 1.347 . S
C667 H659 0.951 . S
C667 C662 1.429 . S
C667 C666 1.347 . S
C324 C279 1.446 . S
C309 C29 1.473 . S
C339 C8 1.465 . S
C354 C219 1.460 . S
C369 C0 1.449 . S
C384 C249 1.355 . S
C399 C17 1.479 . S
C414 C189 1.336 . S
C429 C63 1.479 . S
C444 C159 1.481 . S
C459 C42 1.457 . S
C474 C99 1.457 . S
C504 C129 1.354 . S
C489 C34 1.448 . S
C534 C69 1.340 . S
C519 C51 1.479 . S
C549 C4 1.476 1_655 S
C564 C88 1.480 1_455 S
C579 C13 1.466 . S
C594 C148 1.482 . S
C624 C208 1.482 . S
C609 C38 1.479 . S
C639 C47 1.480 . S
C654 C268 1.413 . S
