# Generated by pormake.
# Topology anh, (6,3)-cn, num edge types: 1
# Building blocks:
#     Node 0, Type 0, BuildingBlock: NUHQIS_clean_sbu_0, # of connection points: 6
#     Node 1, Type 0, BuildingBlock: NUHQIS_clean_sbu_0, # of connection points: 6
#     Node 2, Type 0, BuildingBlock: NUHQIS_clean_sbu_0, # of connection points: 6
#     Node 3, Type 1, BuildingBlock: BETDAH_clean_linker_0, # of connection points: 3
#     Node 4, Type 1, BuildingBlock: BETDAH_clean_linker_0, # of connection points: 3
#     Node 5, Type 1, BuildingBlock: BETDAH_clean_linker_0, # of connection points: 3
#     Node 6, Type 1, BuildingBlock: BETDAH_clean_linker_0, # of connection points: 3
#     Node 7, Type 1, BuildingBlock: BETDAH_clean_linker_0, # of connection points: 3
#     Node 8, Type 1, BuildingBlock: BETDAH_clean_linker_0, # of connection points: 3
#     Edge 9, Type (0, 1), BuildingBlock: AJUNOK_clean_linker_0, # of connection points: 2
#     Edge 10, Type (0, 1), BuildingBlock: AJUNOK_clean_linker_0, # of connection points: 2
#     Edge 11, Type (0, 1), BuildingBlock: AJUNOK_clean_linker_0, # of connection points: 2
#     Edge 12, Type (0, 1), BuildingBlock: AJUNOK_clean_linker_0, # of connection points: 2
#     Edge 13, Type (0, 1), BuildingBlock: AJUNOK_clean_linker_0, # of connection points: 2
#     Edge 14, Type (0, 1), BuildingBlock: AJUNOK_clean_linker_0, # of connection points: 2
#     Edge 15, Type (0, 1), BuildingBlock: AJUNOK_clean_linker_0, # of connection points: 2
#     Edge 16, Type (0, 1), BuildingBlock: AJUNOK_clean_linker_0, # of connection points: 2
#     Edge 17, Type (0, 1), BuildingBlock: AJUNOK_clean_linker_0, # of connection points: 2
#     Edge 18, Type (0, 1), BuildingBlock: AJUNOK_clean_linker_0, # of connection points: 2
#     Edge 19, Type (0, 1), BuildingBlock: AJUNOK_clean_linker_0, # of connection points: 2
#     Edge 20, Type (0, 1), BuildingBlock: AJUNOK_clean_linker_0, # of connection points: 2
#     Edge 21, Type (0, 1), BuildingBlock: AJUNOK_clean_linker_0, # of connection points: 2
#     Edge 22, Type (0, 1), BuildingBlock: AJUNOK_clean_linker_0, # of connection points: 2
#     Edge 23, Type (0, 1), BuildingBlock: AJUNOK_clean_linker_0, # of connection points: 2
#     Edge 24, Type (0, 1), BuildingBlock: AJUNOK_clean_linker_0, # of connection points: 2
#     Edge 25, Type (0, 1), BuildingBlock: AJUNOK_clean_linker_0, # of connection points: 2
#     Edge 26, Type (0, 1), BuildingBlock: AJUNOK_clean_linker_0, # of connection points: 2
# Relax obj value: 0.361
# Max RMSD: 0.160
# Mean RMSD: 0.115
data_MOF--net-anh--node1-NUHQIS_clean_sbu_0--node2-BETDAH_clean_linker_0--edge1-AJUNOK_clean_linker_0
_symmetry_space_group_name_H-M    P1
_symmetry_Int_Tables_number       1
_symmetry_cell_setting            triclinic
loop_
_symmetry_equiv_pos_as_xyz
'x, y, z'
_cell_length_a     22.299739
_cell_length_b     22.16072
_cell_length_c     36.375159
_cell_angle_alpha  91.878058
_cell_angle_beta   94.389697
_cell_angle_gamma 120.40149
loop_
_atom_site_label
_atom_site_type_symbol
_atom_site_fract_x
_atom_site_fract_y
_atom_site_fract_z
_atom_type_partial_charge
Tb0 Tb 0.33906 0.71382 0.17105 0.0
Eu1 Eu 0.27272 0.81328 0.1798 0.0
C2 C 0.33327 0.76473 0.2489 0.0
C3 C 1.17668 0.64536 0.18225 0.0
C4 C 0.42449 0.59862 0.1637 0.0
C5 C 0.44621 0.51011 0.1889 0.0
C6 C 0.41636 0.55227 0.19106 0.0
C7 C 0.46665 0.60531 0.13559 0.0
C8 C 0.49622 0.56318 0.13343 0.0
C9 C 0.48398 0.51346 0.15922 0.0
C10 C 0.37679 0.62615 0.15922 0.0
O11 O 0.28028 0.70545 0.11869 0.0
O12 O 0.29604 0.81457 0.12008 0.0
O13 O 0.38842 0.89117 0.18522 0.0
O14 O 0.43407 0.82027 0.17325 0.0
C15 C 0.2858 0.75823 0.1011 0.0
O16 O 0.21063 0.85759 0.15875 0.0
O17 O 0.26283 0.88938 0.2146 0.0
O18 O 0.2813 0.77223 0.23519 0.0
O19 O 0.37473 0.75947 0.22719 0.0
O20 O 0.23556 0.6457 0.19013 0.0
O21 O 1.17794 0.70195 0.17101 0.0
C22 C 0.44187 0.88314 0.18057 0.0
O23 O 0.34248 0.62563 0.18677 0.0
O24 O 0.39164 0.67857 0.13892 0.0
C25 C 1.15227 0.88054 0.20303 0.0
C26 C 1.01055 0.81729 0.21416 0.0
C27 C 1.03587 0.85706 0.1836 0.0
C28 C 1.10622 0.8886 0.17821 0.0
C29 C 1.12981 0.8513 0.23658 0.0
C30 C 1.05944 0.82136 0.24249 0.0
C31 C 0.21793 0.89164 0.19033 0.0
H32 H 0.43629 0.4721 0.20907 0.0
H33 H 0.3832 0.54513 0.21274 0.0
H34 H 0.47307 0.63971 0.11385 0.0
H35 H 0.52617 0.5672 0.11057 0.0
H36 H 1.00058 0.85666 0.1613 0.0
H37 H 1.12293 0.91258 0.15259 0.0
H38 H 1.16494 0.84631 0.25683 0.0
H39 H 1.04235 0.79488 0.2674 0.0
Tb40 Tb 0.76403 0.28729 0.51842 0.0
Eu41 Eu 0.6022 0.216 0.4848 0.0
C42 C 0.64177 0.22234 0.56862 0.0
C43 C 0.67998 1.12292 0.50315 0.0
C44 C 0.95681 0.36072 0.54105 0.0
C45 C 1.0832 0.4313 0.54941 0.0
C46 C 1.01828 0.41994 0.5573 0.0
C47 C 0.96064 0.31124 0.51784 0.0
C48 C 1.02582 0.32235 0.51007 0.0
C49 C 1.08775 0.38314 0.52535 0.0
C50 C 0.88976 0.35427 0.54709 0.0
O51 O 0.77002 0.28187 0.45814 0.0
O52 O 0.65751 0.24707 0.43396 0.0
O53 O 0.64203 0.33275 0.48365 0.0
O54 O 0.73022 0.36387 0.52973 0.0
C55 C 0.723 0.26832 0.42977 0.0
O56 O 0.51147 0.13805 0.44803 0.0
O57 O 0.49879 0.20127 0.48985 0.0
O58 O 0.60957 0.24194 0.54512 0.0
O59 O 0.70074 0.2275 0.56144 0.0
O60 O 0.74177 0.18064 0.50454 0.0
O61 O 0.62188 1.12594 0.4995 0.0
C62 C 0.68945 0.37972 0.50913 0.0
O63 O 0.86388 0.37742 0.52172 0.0
O64 O 0.84217 0.29467 0.55756 0.0
C65 C 0.41615 1.07983 0.48228 0.0
C66 C 0.34802 0.94435 0.50739 0.0
C67 C 0.33542 0.95503 0.47022 0.0
C68 C 0.36908 1.02212 0.45785 0.0
C69 C 0.42312 1.07053 0.52018 0.0
C70 C 0.38868 1.00334 0.53272 0.0
C71 C 0.46761 0.14472 0.46714 0.0
H72 H 1.1296 0.47977 0.56063 0.0
H73 H 1.01602 0.45884 0.57505 0.0
H74 H 0.91338 0.26528 0.50496 0.0
H75 H 1.02782 0.2847 0.49122 0.0
H76 H 0.30494 0.91108 0.44969 0.0
H77 H 0.36318 1.02802 0.42856 0.0
H78 H 0.45917 1.11437 0.53969 0.0
H79 H 0.39804 0.99732 0.56165 0.0
Tb80 Tb 0.78987 0.77267 0.84825 0.0
Eu81 Eu 0.70218 0.60588 0.83318 0.0
C82 C 0.77213 0.67544 0.91381 0.0
C83 C 0.87534 0.69248 0.84674 0.0
C84 C 0.81988 0.93471 0.82226 0.0
C85 C 0.73588 0.97195 0.80853 0.0
C86 C 0.78775 0.97202 0.83282 0.0
C87 C 0.80683 0.90673 0.78533 0.0
C88 C 0.75255 0.90301 0.76193 0.0
C89 C 0.71356 0.9322 0.77395 0.0
C90 C 0.84357 0.90293 0.8506 0.0
O91 O 0.78471 0.75001 0.78841 0.0
O92 O 0.68098 0.64798 0.7812 0.0
O93 O 0.63049 0.63787 0.85871 0.0
O94 O 0.67932 0.74372 0.83524 0.0
C95 C 0.72806 0.70412 0.76726 0.0
O96 O 0.67299 0.50839 0.80067 0.0
O97 O 0.61564 0.50698 0.84681 0.0
O98 O 0.75608 0.62337 0.88956 0.0
O99 O 0.77612 0.73414 0.90397 0.0
O100 O 0.87293 0.7478 0.8592 0.0
O101 O 0.81764 0.63578 0.83087 0.0
C102 C 0.62608 0.69229 0.84931 0.0
O103 O 0.79552 0.86388 0.87149 0.0
O104 O 0.87499 0.87105 0.83873 0.0
C105 C 0.61032 0.39992 0.82931 0.0
C106 C 0.5553 0.25415 0.82881 0.0
C107 C 0.61403 0.29604 0.8102 0.0
C108 C 0.64121 0.36834 0.81036 0.0
C109 C 0.55645 0.35916 0.85105 0.0
C110 C 0.52919 0.28686 0.85083 0.0
C111 C 0.62316 0.46996 0.82094 0.0
H112 H 0.70895 0.99757 0.81824 0.0
H113 H 0.79716 0.99459 0.86102 0.0
H114 H 0.83201 0.87921 0.77579 0.0
H115 H 0.73735 0.87082 0.73613 0.0
H116 H 0.63451 0.27221 0.7924 0.0
H117 H 0.68255 0.39822 0.79324 0.0
H118 H 0.53136 0.38204 0.86583 0.0
H119 H 0.48381 0.25573 0.86526 0.0
H120 H 0.6735 0.13658 0.27766 0.0
H121 H 0.85582 0.33686 0.26502 0.0
H122 H 0.74781 0.18498 0.17076 0.0
C123 C 0.71166 0.17185 0.26027 0.0
C124 C 0.70409 0.15144 0.22244 0.0
C125 C 0.76557 0.23844 0.27576 0.0
C126 C 0.81477 0.28546 0.25317 0.0
C127 C 0.80922 0.26638 0.21506 0.0
C128 C 0.75314 0.19953 0.20007 0.0
N129 N 0.85701 0.31216 0.1905 0.0
C130 C 0.91634 0.38011 0.19803 0.0
H131 H 0.70177 0.62068 0.60984 0.0
H132 H 0.68955 0.8066 0.59573 0.0
H133 H 0.6778 0.67801 0.50022 0.0
C134 C 0.6972 0.65618 0.59155 0.0
C135 C 0.69123 0.64191 0.55308 0.0
C136 C 0.69681 0.71491 0.60717 0.0
C137 C 0.68994 0.76144 0.58375 0.0
C138 C 0.68271 0.7485 0.5448 0.0
C139 C 0.68287 0.68813 0.52997 0.0
N140 N 0.67508 0.79344 0.51931 0.0
C141 C 0.6754 0.85702 0.52569 0.0
H142 H 1.1366 0.72438 0.94226 0.0
H143 H 0.32254 0.71742 0.92603 0.0
H144 H 1.17426 0.6826 0.83255 0.0
C145 C 1.16922 0.71809 0.92372 0.0
C146 C 1.14678 0.70363 0.88549 0.0
C147 C 0.23154 0.72211 0.93875 0.0
C148 C 0.27398 0.71303 0.91478 0.0
C149 C 0.25407 0.69855 0.87636 0.0
C150 C 1.18985 0.69334 0.86207 0.0
N151 N 0.29639 0.68883 0.8513 0.0
C152 C 0.36188 0.69282 0.85864 0.0
H153 H 0.33133 0.7699 0.42332 0.0
H154 H 0.39681 0.628 0.38702 0.0
H155 H 0.36817 0.64809 0.50169 0.0
C156 C 0.34523 0.73064 0.4294 0.0
C157 C 0.34684 0.71204 0.4658 0.0
C158 C 0.36215 0.70026 0.40075 0.0
C159 C 0.3845 0.65282 0.409 0.0
C160 C 0.38591 0.63318 0.4452 0.0
C161 C 0.36733 0.66323 0.47371 0.0
N162 N 0.39877 0.5779 0.45183 0.0
C163 C 0.35017 0.5212 0.46897 0.0
H164 H 0.48415 1.11738 0.70712 0.0
H165 H 0.42794 0.93401 0.63596 0.0
H166 H 0.37745 0.91377 0.74822 0.0
C167 C 0.45613 1.06064 0.70182 0.0
C168 C 0.42654 1.01873 0.73076 0.0
C169 C 0.45783 1.03086 0.66776 0.0
C170 C 0.42459 0.95761 0.66173 0.0
C171 C 0.39404 0.91498 0.69043 0.0
C172 C 0.39535 0.94584 0.7251 0.0
N173 N 0.38236 0.84619 0.68798 0.0
C174 C 0.43847 0.84015 0.70172 0.0
H175 H 0.83022 0.68303 0.09288 0.0
H176 H 0.71816 0.47615 0.03652 0.0
H177 H 0.745 0.50062 0.15499 0.0
C178 C 0.80055 0.62657 0.09402 0.0
C179 C 0.79168 0.59745 0.12841 0.0
C180 C 0.77381 0.58354 0.06079 0.0
C181 C 0.73998 0.51022 0.06193 0.0
C182 C 0.72963 0.48042 0.09589 0.0
C183 C 0.7548 0.52419 0.12894 0.0
N184 N 0.68615 0.40684 0.09685 0.0
C185 C 0.62764 0.38381 0.11565 0.0
C186 C 0.48796 0.42388 0.1184 0.0
C187 C 0.50702 0.46256 0.15301 0.0
C188 C 0.52112 0.38772 0.1081 0.0
C189 C 0.57399 0.38914 0.13216 0.0
H190 H 0.45081 0.42585 0.09817 0.0
H191 H 0.51036 0.3648 0.07986 0.0
S192 S 0.63474 0.47254 0.22786 0.0
N193 N 0.57549 0.49252 0.21301 0.0
N194 N 0.63747 0.42346 0.19358 0.0
C195 C 0.58805 0.42084 0.1682 0.0
C196 C 0.55455 0.45807 0.17871 0.0
C197 C 1.1608 0.40007 0.4738 0.0
C198 C 1.15601 0.40228 0.51214 0.0
C199 C 0.22581 0.43395 0.45988 0.0
C200 C 0.28781 0.47056 0.48382 0.0
H201 H 1.11409 0.37701 0.4543 0.0
H202 H 0.22723 0.43587 0.43019 0.0
S203 S 0.30498 0.48281 0.58609 0.0
N204 N 0.21976 0.43618 0.57376 0.0
N205 N 0.34207 0.50142 0.54717 0.0
C206 C 0.28449 0.46854 0.52202 0.0
C207 C 0.21837 0.4338 0.53632 0.0
C208 C 0.58782 0.89731 0.77447 0.0
C209 C 0.64404 0.91132 0.75385 0.0
C210 C 0.52034 0.87191 0.75717 0.0
C211 C 0.50583 0.85698 0.7188 0.0
H212 H 0.59523 0.90454 0.80439 0.0
H213 H 0.47915 0.86371 0.77399 0.0
S214 S 0.63154 0.88464 0.65134 0.0
N215 N 0.67937 0.91115 0.6919 0.0
N216 N 0.55073 0.85842 0.6601 0.0
C217 C 0.56022 0.8701 0.69758 0.0
C218 C 0.62972 0.89814 0.71494 0.0
C219 C 0.88538 0.76613 0.18944 0.0
C220 C 0.93673 0.75786 0.20975 0.0
C221 C 0.83163 0.71048 0.16605 0.0
C222 C 0.8268 0.64462 0.16294 0.0
H223 H 0.89227 0.81794 0.18763 0.0
H224 H 0.79823 0.72115 0.14758 0.0
S225 S 0.92723 0.5881 0.22411 0.0
N226 N 0.96405 0.67303 0.23516 0.0
N227 N 0.86283 0.56854 0.19168 0.0
C228 C 0.86805 0.63206 0.18924 0.0
C229 C 0.92298 0.68884 0.21289 0.0
C230 C 0.2704 0.8144 0.49835 0.0
C231 C 0.33149 0.87277 0.51634 0.0
C232 C 0.27008 0.75313 0.48739 0.0
C233 C 0.33048 0.74858 0.49462 0.0
H234 H 0.22673 0.81983 0.4878 0.0
H235 H 0.22661 0.71396 0.46844 0.0
S236 S 0.48786 0.87079 0.55797 0.0
N237 N 0.44286 0.91108 0.5531 0.0
N238 N 0.44098 0.79473 0.53297 0.0
C239 C 0.38435 0.79888 0.52033 0.0
C240 C 0.38517 0.86175 0.53122 0.0
C241 C 0.44298 0.15241 0.80076 0.0
C242 C 0.51182 0.17817 0.8171 0.0
C243 C 0.40921 1.09194 0.77621 0.0
C244 C 0.44281 1.05497 0.76787 0.0
H245 H 0.41833 0.18354 0.80327 0.0
H246 H 0.36032 1.07891 0.76048 0.0
S247 S 0.61497 1.09039 0.81032 0.0
N248 N 0.60652 0.15458 0.82866 0.0
N249 N 0.54231 1.04012 0.78264 0.0
C250 C 0.50694 1.07417 0.78809 0.0
C251 C 0.54181 0.13623 0.81273 0.0
C252 C 0.73058 1.05194 0.53141 0.0
C253 C 0.6766 1.05361 0.50906 0.0
C254 C 0.72888 0.9882 0.53786 0.0
C255 C 0.67359 0.92275 0.52187 0.0
H256 H 0.7746 1.10053 0.54444 0.0
H257 H 0.77193 0.99046 0.55507 0.0
S258 S 0.52156 0.89683 0.45896 0.0
N259 N 0.5666 0.98237 0.47035 0.0
N260 N 0.56525 0.8643 0.48088 0.0
C261 C 0.61991 0.92357 0.49903 0.0
C262 C 0.62078 0.98821 0.49314 0.0
C263 C 1.00227 0.75161 0.87516 0.0
C264 C 0.94496 0.69437 0.85343 0.0
C265 C 1.06676 0.75468 0.88404 0.0
C266 C 1.07899 0.70119 0.87152 0.0
H267 H 0.9972 0.79454 0.88627 0.0
H268 H 1.1076 0.79963 0.90142 0.0
S269 S 0.9484 0.53991 0.81291 0.0
N270 N 0.9066 0.58274 0.81896 0.0
N271 N 1.02733 0.58901 0.83535 0.0
C272 C 1.02307 0.64432 0.84897 0.0
C273 C 0.95663 0.64076 0.84014 0.0
C274 C 0.56809 0.95297 0.21003 0.0
C275 C 0.51327 0.94879 0.18588 0.0
C276 C 0.63056 1.01796 0.22065 0.0
C277 C 0.642 1.08149 0.20684 0.0
H278 H 0.56114 0.90639 0.22246 0.0
H279 H 0.66963 1.0188 0.24063 0.0
S280 S 0.51691 1.09894 0.14125 0.0
N281 N 0.47617 1.01437 0.14768 0.0
N282 N 0.59343 0.13471 0.16653 0.0
C283 C 0.58891 1.07732 0.18144 0.0
C284 C 0.52483 1.01169 0.17131 0.0
C285 C 0.64091 0.46279 0.50279 0.0
C286 C 0.69328 0.44945 0.51773 0.0
C287 C 0.64172 0.52587 0.51281 0.0
C288 C 0.69486 0.57884 0.53836 0.0
H289 H 0.59773 0.42339 0.48385 0.0
H290 H 0.59898 0.53202 0.50145 0.0
S291 S 0.8487 0.57499 0.58248 0.0
N292 N 0.80308 0.49901 0.55743 0.0
N293 N 0.80436 0.61557 0.57582 0.0
C294 C 0.74883 0.56738 0.55224 0.0
C295 C 0.74813 0.50358 0.54211 0.0
C296 C 0.52926 0.68639 0.88566 0.0
C297 C 0.55885 0.69321 0.85186 0.0
C298 C 0.46626 0.68743 0.88814 0.0
C299 C 0.4291 0.69401 0.85678 0.0
H300 H 0.55543 0.68092 0.91055 0.0
H301 H 0.44629 0.68246 0.91478 0.0
S302 S 0.47889 0.70426 0.76102 0.0
N303 N 0.5428 0.70247 0.78611 0.0
N304 N 0.4248 0.70196 0.79034 0.0
C305 C 0.45732 0.69902 0.82279 0.0
C306 C 0.52183 0.69929 0.82043 0.0
C307 C 1.106 0.53182 0.21284 0.0
C308 C 1.1081 0.57972 0.18741 0.0
C309 C 1.04335 0.46851 0.21727 0.0
C310 C 0.97975 0.44956 0.19624 0.0
H311 H 1.15345 0.54318 0.22952 0.0
H312 H 1.04515 0.43345 0.2368 0.0
S313 S 0.9557 0.55344 0.12468 0.0
N314 N 1.03928 0.6019 0.14064 0.0
N315 N 0.92324 0.48285 0.14809 0.0
C316 C 0.9809 0.49645 0.17064 0.0
C317 C 1.04433 0.56145 0.16654 0.0
C318 C 0.26024 0.79572 0.03963 0.0
C319 C 0.27592 0.7511 0.05961 0.0
C320 C 0.24728 0.78692 0.00069 0.0
C321 C 0.25038 0.73378 0.97993 0.0
H322 H 0.25646 0.83689 0.05419 0.0
H323 H 0.23437 0.82192 0.98668 0.0
S324 S 0.29185 0.60451 0.01845 0.0
N325 N 0.296 0.65291 0.05511 0.0
N326 N 0.27133 0.63657 0.98249 0.0
C327 C 0.26756 0.68991 -0.00052 0.0
C328 C 0.28028 0.69847 0.03906 0.0
C329 C 0.79475 0.25913 0.38142 0.0
C330 C 0.74222 0.27266 0.39096 0.0
C331 C 0.80538 0.2521 0.34406 0.0
C332 C 0.76456 0.25935 0.315 0.0
H333 H 0.82536 0.25023 0.40277 0.0
H334 H 0.84355 0.23784 0.33781 0.0
S335 S 0.6265 0.30314 0.32479 0.0
N336 N 0.6535 0.29925 0.36773 0.0
N337 N 0.67377 0.28599 0.29823 0.0
C338 C 0.71485 0.27664 0.32422 0.0
C339 C 0.70369 0.28343 0.36196 0.0
C340 C 0.77577 0.75795 0.70799 0.0
C341 C 0.71813 0.71391 0.72702 0.0
C342 C 0.76803 0.76238 0.66941 0.0
C343 C 0.70219 0.72411 0.64842 0.0
H344 H 0.82781 0.78689 0.72267 0.0
H345 H 0.81433 0.79343 0.65564 0.0
S346 S 0.53353 0.60786 0.68488 0.0
N347 N 0.5918 0.63588 0.72167 0.0
N348 N 0.57795 0.64486 0.64974 0.0
C349 C 0.64386 0.68307 0.6673 0.0
C350 C 0.6516 0.67792 0.70637 0.0
C351 C 0.54608 0.18419 0.60917 0.0
C352 C 0.6011 0.1776 0.59705 0.0
C353 C 0.49874 0.13535 0.63117 0.0
C354 C 0.50426 1.07774 0.64159 0.0
H355 H 0.53866 0.22674 0.60097 0.0
H356 H 0.45726 0.1425 0.64 0.0
S357 S 0.64014 1.0377 0.61824 0.0
N358 N 0.65914 1.10964 0.59773 0.0
N359 N 0.57049 1.01816 0.63954 0.0
C360 C 0.55954 1.07095 0.63016 0.0
C361 C 0.60809 1.121 0.60794 0.0
C362 C 0.8072 0.61749 0.96096 0.0
C363 C 0.78284 0.6637 0.95296 0.0
C364 C 0.80597 0.59355 0.99613 0.0
C365 C 0.78056 0.61502 0.02483 0.0
H366 H 0.82538 0.5977 0.93945 0.0
H367 H 0.82376 0.5568 0.0007 0.0
S368 S 0.71362 0.73787 0.01894 0.0
N369 N 0.73527 0.73236 0.97705 0.0
N370 N 0.73283 0.6873 0.0435 0.0
C371 C 0.759 0.66377 0.0178 0.0
C372 C 0.76032 0.68827 0.98179 0.0
C373 C 0.40243 0.756 0.30379 0.0
C374 C 0.34064 0.75253 0.2884 0.0
C375 C 0.40895 0.73855 0.33998 0.0
C376 C 0.35395 0.71705 0.3622 0.0
H377 H 0.44621 0.77189 0.28766 0.0
H378 H 0.45753 0.74242 0.35075 0.0
S379 S 1.18001 0.69585 0.3349 0.0
N380 N 0.22275 0.72425 0.29824 0.0
N381 N 0.23481 0.69086 0.36607 0.0
C382 C 0.29187 0.71324 0.34727 0.0
C383 C 0.28526 0.73123 0.31047 0.0
loop_
_geom_bond_atom_site_label_1
_geom_bond_atom_site_label_2
_geom_bond_distance
_geom_bond_site_symmetry_2
_ccdc_geom_bond_type
Tb0 C10 2.825 . S
Tb0 O11 2.347 . S
Tb0 O14 2.366 . S
Tb0 O19 2.418 . S
Tb0 O20 2.384 1_455 S
Tb0 O23 2.479 . S
Tb0 O24 2.471 . S
Eu1 O12 2.418 . S
Eu1 O13 2.384 1_655 S
Eu1 O16 2.479 . S
Eu1 O17 2.471 . S
Eu1 O18 2.347 1_655 S
Eu1 O21 2.366 . S
Eu1 C31 2.825 . S
C2 O18 1.259 . S
C2 O19 1.265 . S
C3 O20 1.255 . S
C3 O21 1.265 . S
C4 C6 1.380 . S
C4 C7 1.374 . S
C4 C10 1.507 . S
C5 C6 1.384 . S
C5 C9 1.387 . S
C5 H32 0.930 . S
C6 C4 1.380 . S
C6 C5 1.384 . S
C6 H33 0.931 . S
C7 C4 1.374 . S
C7 C8 1.390 . S
C7 H34 0.930 . S
C8 C7 1.390 . S
C8 C9 1.391 . S
C8 H35 0.930 . S
C9 C5 1.387 . S
C9 C8 1.391 . S
C10 Tb0 2.825 . S
C10 C4 1.507 . S
C10 O23 1.238 . S
C10 O24 1.247 . S
O11 Tb0 2.347 . S
O11 C15 1.259 . S
O12 Eu1 2.418 . S
O12 C15 1.265 1_655 S
O13 Eu1 2.384 1_455 S
O13 C22 1.255 . S
O14 Tb0 2.366 . S
O14 C22 1.265 . S
C15 O11 1.259 . S
C15 O12 1.265 1_455 S
O16 Eu1 2.479 . S
O16 C31 1.238 . S
O17 Eu1 2.471 . S
O17 C31 1.247 . S
O18 Eu1 2.347 1_455 S
O18 C2 1.259 . S
O19 Tb0 2.418 . S
O19 C2 1.265 . S
O20 Tb0 2.384 1_655 S
O20 C3 1.255 . S
O21 Eu1 2.366 . S
O21 C3 1.265 . S
C22 O13 1.255 . S
C22 O14 1.265 . S
O23 Tb0 2.479 . S
O23 C10 1.238 . S
O24 Tb0 2.471 . S
O24 C10 1.247 . S
C25 C28 1.380 . S
C25 C29 1.374 . S
C25 C31 1.507 . S
C26 C27 1.387 . S
C26 C30 1.391 . S
C27 C26 1.387 . S
C27 C28 1.384 . S
C27 H36 0.930 . S
C28 C25 1.380 . S
C28 C27 1.384 . S
C28 H37 0.931 . S
C29 C25 1.374 . S
C29 C30 1.390 . S
C29 H38 0.930 . S
C30 C26 1.391 . S
C30 C29 1.390 . S
C30 H39 0.930 . S
C31 Eu1 2.825 . S
C31 O16 1.238 . S
C31 O17 1.247 . S
C31 C25 1.507 . S
H32 C5 0.930 . S
H33 C6 0.931 . S
H34 C7 0.930 . S
H35 C8 0.930 . S
H36 C27 0.930 . S
H37 C28 0.931 . S
H38 C29 0.930 . S
H39 C30 0.930 . S
Tb40 C50 2.825 . S
Tb40 O51 2.347 . S
Tb40 O54 2.366 . S
Tb40 O59 2.418 . S
Tb40 O60 2.395 . S
Tb40 O63 2.479 . S
Tb40 O64 2.471 . S
Eu41 O52 2.418 . S
Eu41 O53 2.384 . S
Eu41 O56 2.479 1_545 S
Eu41 O57 2.471 1_545 S
Eu41 O58 2.347 . S
Eu41 O61 2.366 1_545 S
Eu41 C71 2.825 1_545 S
C42 O58 1.259 . S
C42 O59 1.265 . S
C43 O60 1.251 1_565 S
C43 O61 1.265 . S
C44 C46 1.380 . S
C44 C47 1.374 . S
C44 C50 1.507 . S
C45 C46 1.384 . S
C45 C49 1.387 . S
C45 H72 0.930 . S
C46 C44 1.380 . S
C46 C45 1.384 . S
C46 H73 0.931 . S
C47 C44 1.374 . S
C47 C48 1.390 . S
C47 H74 0.930 . S
C48 C47 1.390 . S
C48 C49 1.391 . S
C48 H75 0.930 . S
C49 C45 1.387 . S
C49 C48 1.391 . S
C50 Tb40 2.825 . S
C50 C44 1.507 . S
C50 O63 1.238 . S
C50 O64 1.247 . S
O51 Tb40 2.347 . S
O51 C55 1.259 . S
O52 Eu41 2.418 . S
O52 C55 1.265 . S
O53 Eu41 2.384 . S
O53 C62 1.255 . S
O54 Tb40 2.366 . S
O54 C62 1.265 . S
C55 O51 1.259 . S
C55 O52 1.265 . S
O56 Eu41 2.479 1_565 S
O56 C71 1.238 . S
O57 Eu41 2.471 1_565 S
O57 C71 1.247 . S
O58 Eu41 2.347 . S
O58 C42 1.259 . S
O59 Tb40 2.418 . S
O59 C42 1.265 . S
O60 Tb40 2.395 . S
O60 C43 1.251 1_545 S
O61 Eu41 2.366 1_565 S
O61 C43 1.265 . S
C62 O53 1.255 . S
C62 O54 1.265 . S
O63 Tb40 2.479 . S
O63 C50 1.238 . S
O64 Tb40 2.471 . S
O64 C50 1.247 . S
C65 C68 1.380 . S
C65 C69 1.374 . S
C65 C71 1.507 . S
C66 C67 1.387 . S
C66 C70 1.391 . S
C67 C66 1.387 . S
C67 C68 1.384 . S
C67 H76 0.930 . S
C68 C65 1.380 . S
C68 C67 1.384 . S
C68 H77 0.931 . S
C69 C65 1.374 . S
C69 C70 1.390 . S
C69 H78 0.930 . S
C70 C66 1.391 . S
C70 C69 1.390 . S
C70 H79 0.930 . S
C71 Eu41 2.825 1_565 S
C71 O56 1.238 . S
C71 O57 1.247 . S
C71 C65 1.507 . S
H72 C45 0.930 . S
H73 C46 0.931 . S
H74 C47 0.930 . S
H75 C48 0.930 . S
H76 C67 0.930 . S
H77 C68 0.931 . S
H78 C69 0.930 . S
H79 C70 0.930 . S
Tb80 C90 2.825 . S
Tb80 O91 2.347 . S
Tb80 O94 2.366 . S
Tb80 O99 2.418 . S
Tb80 O100 2.384 . S
Tb80 O103 2.479 . S
Tb80 O104 2.471 . S
Eu81 O92 2.418 . S
Eu81 O93 2.384 . S
Eu81 O96 2.479 . S
Eu81 O97 2.471 . S
Eu81 O98 2.347 . S
Eu81 O101 2.366 . S
Eu81 C111 2.825 . S
C82 O98 1.259 . S
C82 O99 1.265 . S
C83 O100 1.255 . S
C83 O101 1.265 . S
C84 C86 1.380 . S
C84 C87 1.374 . S
C84 C90 1.507 . S
C85 C86 1.384 . S
C85 C89 1.387 . S
C85 H112 0.930 . S
C86 C84 1.380 . S
C86 C85 1.384 . S
C86 H113 0.931 . S
C87 C84 1.374 . S
C87 C88 1.390 . S
C87 H114 0.930 . S
C88 C87 1.390 . S
C88 C89 1.391 . S
C88 H115 0.930 . S
C89 C85 1.387 . S
C89 C88 1.391 . S
C90 Tb80 2.825 . S
C90 C84 1.507 . S
C90 O103 1.238 . S
C90 O104 1.247 . S
O91 Tb80 2.347 . S
O91 C95 1.259 . S
O92 Eu81 2.418 . S
O92 C95 1.265 . S
O93 Eu81 2.384 . S
O93 C102 1.255 . S
O94 Tb80 2.366 . S
O94 C102 1.265 . S
C95 O91 1.259 . S
C95 O92 1.265 . S
O96 Eu81 2.479 . S
O96 C111 1.238 . S
O97 Eu81 2.471 . S
O97 C111 1.247 . S
O98 Eu81 2.347 . S
O98 C82 1.259 . S
O99 Tb80 2.418 . S
O99 C82 1.265 . S
O100 Tb80 2.384 . S
O100 C83 1.255 . S
O101 Eu81 2.366 . S
O101 C83 1.265 . S
C102 O93 1.255 . S
C102 O94 1.265 . S
O103 Tb80 2.479 . S
O103 C90 1.238 . S
O104 Tb80 2.471 . S
O104 C90 1.247 . S
C105 C108 1.380 . S
C105 C109 1.374 . S
C105 C111 1.507 . S
C106 C107 1.387 . S
C106 C110 1.391 . S
C107 C106 1.387 . S
C107 C108 1.384 . S
C107 H116 0.930 . S
C108 C105 1.380 . S
C108 C107 1.384 . S
C108 H117 0.931 . S
C109 C105 1.374 . S
C109 C110 1.390 . S
C109 H118 0.930 . S
C110 C106 1.391 . S
C110 C109 1.390 . S
C110 H119 0.930 . S
C111 Eu81 2.825 . S
C111 O96 1.238 . S
C111 O97 1.247 . S
C111 C105 1.507 . S
H112 C85 0.930 . S
H113 C86 0.931 . S
H114 C87 0.930 . S
H115 C88 0.930 . S
H116 C107 0.930 . S
H117 C108 0.931 . S
H118 C109 0.930 . S
H119 C110 0.930 . S
H120 C123 0.929 . S
H121 C126 0.929 . S
H122 C128 0.930 . S
C123 H120 0.929 . S
C123 C124 1.398 . S
C123 C125 1.396 1_565 S
C124 C123 1.398 . S
C124 C128 1.407 1_565 S
C125 C123 1.396 1_545 S
C125 C126 1.394 . S
C126 H121 0.929 . S
C126 C125 1.394 . S
C126 C127 1.382 . S
C127 C126 1.382 . S
C127 C128 1.392 . S
C127 N129 1.420 . S
C128 H122 0.930 . S
C128 C124 1.407 1_545 S
C128 C127 1.392 . S
N129 C127 1.420 . S
N129 C130 1.244 . S
C130 N129 1.244 . S
H131 C134 0.929 . S
H132 C137 0.929 . S
H133 C139 0.930 . S
C134 H131 0.929 . S
C134 C135 1.398 . S
C134 C136 1.396 . S
C135 C134 1.398 . S
C135 C139 1.407 . S
C136 C134 1.396 . S
C136 C137 1.394 . S
C137 H132 0.929 . S
C137 C136 1.394 . S
C137 C138 1.382 . S
C138 C137 1.382 . S
C138 C139 1.392 . S
C138 N140 1.420 . S
C139 H133 0.930 . S
C139 C135 1.407 . S
C139 C138 1.392 . S
N140 C138 1.420 . S
N140 C141 1.244 . S
C141 N140 1.244 . S
H142 C145 0.929 . S
H143 C148 0.929 . S
H144 C150 0.930 . S
C145 H142 0.929 . S
C145 C146 1.398 . S
C145 C147 1.396 1_655 S
C146 C145 1.398 . S
C146 C150 1.407 . S
C147 C145 1.396 1_455 S
C147 C148 1.394 . S
C148 H143 0.929 . S
C148 C147 1.394 . S
C148 C149 1.382 . S
C149 C148 1.382 . S
C149 C150 1.392 1_455 S
C149 N151 1.420 . S
C150 H144 0.930 . S
C150 C146 1.407 . S
C150 C149 1.392 1_655 S
N151 C149 1.420 . S
N151 C152 1.244 . S
C152 N151 1.244 . S
H153 C156 0.929 . S
H154 C159 0.929 . S
H155 C161 0.930 . S
C156 H153 0.929 . S
C156 C157 1.398 . S
C156 C158 1.396 . S
C157 C156 1.398 . S
C157 C161 1.407 . S
C158 C156 1.396 . S
C158 C159 1.394 1_455 S
C159 H154 0.929 . S
C159 C158 1.394 1_655 S
C159 C160 1.382 1_655 S
C160 C159 1.382 1_455 S
C160 C161 1.392 . S
C160 N162 1.420 1_455 S
C161 H155 0.930 . S
C161 C157 1.407 . S
C161 C160 1.392 . S
N162 C160 1.420 1_655 S
N162 C163 1.244 . S
C163 N162 1.244 . S
H164 C167 0.929 . S
H165 C170 0.947 . S
H166 C172 0.930 . S
C167 H164 0.929 . S
C167 C168 1.398 . S
C167 C169 1.396 . S
C168 C167 1.398 . S
C168 C172 1.407 . S
C169 C167 1.396 . S
C169 C170 1.376 1_545 S
C170 H165 0.947 . S
C170 C169 1.376 1_565 S
C170 C171 1.381 1_565 S
C171 C170 1.381 1_545 S
C171 C172 1.392 . S
C171 N173 1.420 1_545 S
C172 H166 0.930 . S
C172 C168 1.407 . S
C172 C171 1.392 . S
N173 C171 1.420 1_565 S
N173 C174 1.244 . S
C174 N173 1.244 . S
H175 C178 0.929 . S
H176 C181 0.929 . S
H177 C183 0.930 . S
C178 H175 0.929 . S
C178 C179 1.398 . S
C178 C180 1.396 . S
C179 C178 1.398 . S
C179 C183 1.407 . S
C180 C178 1.396 . S
C180 C181 1.394 . S
C181 H176 0.929 . S
C181 C180 1.394 . S
C181 C182 1.382 . S
C182 C181 1.382 . S
C182 C183 1.392 . S
C182 N184 1.420 . S
C183 H177 0.930 . S
C183 C179 1.407 . S
C183 C182 1.392 . S
N184 C182 1.420 . S
N184 C185 1.244 . S
C185 N184 1.244 . S
C186 C187 1.369 . S
C186 C188 1.419 . S
C186 H190 0.930 . S
C187 C186 1.369 . S
C187 C196 1.429 . S
C188 C186 1.419 . S
C188 C189 1.363 . S
C188 H191 0.929 . S
C189 C188 1.363 . S
C189 C195 1.428 . S
H190 C186 0.930 . S
H191 C188 0.929 . S
S192 N193 1.613 . S
S192 N194 1.610 . S
N193 S192 1.613 . S
N193 C196 1.350 . S
N194 S192 1.610 . S
N194 C195 1.351 . S
C195 C189 1.428 . S
C195 N194 1.351 . S
C195 C196 1.434 . S
C196 C187 1.429 . S
C196 N193 1.350 . S
C196 C195 1.434 . S
C197 C198 1.369 . S
C197 C199 1.419 . S
C197 H201 0.930 . S
C198 C197 1.369 . S
C198 C207 1.429 . S
C199 C197 1.419 . S
C199 C200 1.363 . S
C199 H202 0.929 . S
C200 C199 1.363 . S
C200 C206 1.428 . S
H201 C197 0.930 . S
H202 C199 0.929 . S
S203 N204 1.613 . S
S203 N205 1.610 . S
N204 S203 1.613 . S
N204 C207 1.350 . S
N205 S203 1.610 . S
N205 C206 1.351 . S
C206 C200 1.428 . S
C206 N205 1.351 . S
C206 C207 1.434 . S
C207 C198 1.429 . S
C207 N204 1.350 . S
C207 C206 1.434 . S
C208 C209 1.369 . S
C208 C210 1.419 . S
C208 H212 0.930 . S
C209 C208 1.369 . S
C209 C218 1.429 . S
C210 C208 1.419 . S
C210 C211 1.363 . S
C210 H213 0.929 . S
C211 C210 1.363 . S
C211 C217 1.428 . S
H212 C208 0.930 . S
H213 C210 0.929 . S
S214 N215 1.613 . S
S214 N216 1.610 . S
N215 S214 1.613 . S
N215 C218 1.350 . S
N216 S214 1.610 . S
N216 C217 1.351 . S
C217 C211 1.428 . S
C217 N216 1.351 . S
C217 C218 1.434 . S
C218 C209 1.429 . S
C218 N215 1.350 . S
C218 C217 1.434 . S
C219 C220 1.369 . S
C219 C221 1.419 . S
C219 H223 0.930 . S
C220 C219 1.369 . S
C220 C229 1.429 . S
C221 C219 1.419 . S
C221 C222 1.363 . S
C221 H224 0.929 . S
C222 C221 1.363 . S
C222 C228 1.428 . S
H223 C219 0.930 . S
H224 C221 0.929 . S
S225 N226 1.613 . S
S225 N227 1.610 . S
N226 S225 1.613 . S
N226 C229 1.350 . S
N227 S225 1.610 . S
N227 C228 1.351 . S
C228 C222 1.428 . S
C228 N227 1.351 . S
C228 C229 1.434 . S
C229 C220 1.429 . S
C229 N226 1.350 . S
C229 C228 1.434 . S
C230 C231 1.369 . S
C230 C232 1.419 . S
C230 H234 0.930 . S
C231 C230 1.369 . S
C231 C240 1.429 . S
C232 C230 1.419 . S
C232 C233 1.363 . S
C232 H235 0.929 . S
C233 C232 1.363 . S
C233 C239 1.428 . S
H234 C230 0.930 . S
H235 C232 0.929 . S
S236 N237 1.613 . S
S236 N238 1.610 . S
N237 S236 1.613 . S
N237 C240 1.350 . S
N238 S236 1.610 . S
N238 C239 1.351 . S
C239 C233 1.428 . S
C239 N238 1.351 . S
C239 C240 1.434 . S
C240 C231 1.429 . S
C240 N237 1.350 . S
C240 C239 1.434 . S
C241 C242 1.369 . S
C241 C243 1.419 . S
C241 H245 0.930 . S
C242 C241 1.369 . S
C242 C251 1.429 . S
C243 C241 1.419 . S
C243 C244 1.363 . S
C243 H246 0.929 . S
C244 C243 1.363 . S
C244 C250 1.428 . S
H245 C241 0.930 . S
H246 C243 0.929 . S
S247 N248 1.613 . S
S247 N249 1.610 . S
N248 S247 1.613 . S
N248 C251 1.350 . S
N249 S247 1.610 . S
N249 C250 1.351 . S
C250 C244 1.428 . S
C250 N249 1.351 . S
C250 C251 1.434 . S
C251 C242 1.429 . S
C251 N248 1.350 . S
C251 C250 1.434 . S
C252 C253 1.369 . S
C252 C254 1.419 . S
C252 H256 0.930 . S
C253 C252 1.369 . S
C253 C262 1.429 . S
C254 C252 1.419 . S
C254 C255 1.363 . S
C254 H257 0.929 . S
C255 C254 1.363 . S
C255 C261 1.428 . S
H256 C252 0.930 . S
H257 C254 0.929 . S
S258 N259 1.613 . S
S258 N260 1.610 . S
N259 S258 1.613 . S
N259 C262 1.350 . S
N260 S258 1.610 . S
N260 C261 1.351 . S
C261 C255 1.428 . S
C261 N260 1.351 . S
C261 C262 1.434 . S
C262 C253 1.429 . S
C262 N259 1.350 . S
C262 C261 1.434 . S
C263 C264 1.369 . S
C263 C265 1.419 . S
C263 H267 0.930 . S
C264 C263 1.369 . S
C264 C273 1.429 . S
C265 C263 1.419 . S
C265 C266 1.363 . S
C265 H268 0.929 . S
C266 C265 1.363 . S
C266 C272 1.428 . S
H267 C263 0.930 . S
H268 C265 0.929 . S
S269 N270 1.613 . S
S269 N271 1.610 . S
N270 S269 1.613 . S
N270 C273 1.350 . S
N271 S269 1.610 . S
N271 C272 1.351 . S
C272 C266 1.428 . S
C272 N271 1.351 . S
C272 C273 1.434 . S
C273 C264 1.429 . S
C273 N270 1.350 . S
C273 C272 1.434 . S
C274 C275 1.369 . S
C274 C276 1.419 . S
C274 H278 0.930 . S
C275 C274 1.369 . S
C275 C284 1.429 . S
C276 C274 1.419 . S
C276 C277 1.363 . S
C276 H279 0.929 . S
C277 C276 1.363 . S
C277 C283 1.428 . S
H278 C274 0.930 . S
H279 C276 0.929 . S
S280 N281 1.613 . S
S280 N282 1.610 . S
N281 S280 1.613 . S
N281 C284 1.350 . S
N282 S280 1.610 . S
N282 C283 1.351 . S
C283 C277 1.428 . S
C283 N282 1.351 . S
C283 C284 1.434 . S
C284 C275 1.429 . S
C284 N281 1.350 . S
C284 C283 1.434 . S
C285 C286 1.369 . S
C285 C287 1.419 . S
C285 H289 0.930 . S
C286 C285 1.369 . S
C286 C295 1.429 . S
C287 C285 1.419 . S
C287 C288 1.363 . S
C287 H290 0.929 . S
C288 C287 1.363 . S
C288 C294 1.428 . S
H289 C285 0.930 . S
H290 C287 0.929 . S
S291 N292 1.613 . S
S291 N293 1.610 . S
N292 S291 1.613 . S
N292 C295 1.350 . S
N293 S291 1.610 . S
N293 C294 1.351 . S
C294 C288 1.428 . S
C294 N293 1.351 . S
C294 C295 1.434 . S
C295 C286 1.429 . S
C295 N292 1.350 . S
C295 C294 1.434 . S
C296 C297 1.369 . S
C296 C298 1.419 . S
C296 H300 0.930 . S
C297 C296 1.369 . S
C297 C306 1.429 . S
C298 C296 1.419 . S
C298 C299 1.363 . S
C298 H301 0.929 . S
C299 C298 1.363 . S
C299 C305 1.428 . S
H300 C296 0.930 . S
H301 C298 0.929 . S
S302 N303 1.613 . S
S302 N304 1.610 . S
N303 S302 1.613 . S
N303 C306 1.350 . S
N304 S302 1.610 . S
N304 C305 1.351 . S
C305 C299 1.428 . S
C305 N304 1.351 . S
C305 C306 1.434 . S
C306 C297 1.429 . S
C306 N303 1.350 . S
C306 C305 1.434 . S
C307 C308 1.369 . S
C307 C309 1.419 . S
C307 H311 0.930 . S
C308 C307 1.369 . S
C308 C317 1.429 . S
C309 C307 1.419 . S
C309 C310 1.363 . S
C309 H312 0.929 . S
C310 C309 1.363 . S
C310 C316 1.428 . S
H311 C307 0.930 . S
H312 C309 0.929 . S
S313 N314 1.613 . S
S313 N315 1.610 . S
N314 S313 1.613 . S
N314 C317 1.350 . S
N315 S313 1.610 . S
N315 C316 1.351 . S
C316 C310 1.428 . S
C316 N315 1.351 . S
C316 C317 1.434 . S
C317 C308 1.429 . S
C317 N314 1.350 . S
C317 C316 1.434 . S
C318 C319 1.369 . S
C318 C320 1.419 . S
C318 H322 0.930 . S
C319 C318 1.369 . S
C319 C328 1.429 1_455 S
C320 C318 1.419 . S
C320 C321 1.363 1_554 S
C320 H323 0.929 1_554 S
C321 C320 1.363 1_556 S
C321 C327 1.447 1_455 S
H322 C318 0.930 . S
H323 C320 0.929 1_556 S
S324 N325 1.613 . S
S324 N326 1.610 1_554 S
N325 S324 1.613 . S
N325 C328 1.350 . S
N326 S324 1.610 1_556 S
N326 C327 1.361 . S
C327 C321 1.447 1_655 S
C327 N326 1.361 . S
C327 C328 1.404 1_556 S
C328 C319 1.429 1_655 S
C328 N325 1.350 . S
C328 C327 1.404 1_554 S
C329 C330 1.369 . S
C329 C331 1.419 . S
C329 H333 0.930 . S
C330 C329 1.369 . S
C330 C339 1.429 . S
C331 C329 1.419 . S
C331 C332 1.363 . S
C331 H334 0.929 . S
C332 C331 1.363 . S
C332 C338 1.428 . S
H333 C329 0.930 . S
H334 C331 0.929 . S
S335 N336 1.613 . S
S335 N337 1.610 . S
N336 S335 1.613 . S
N336 C339 1.350 . S
N337 S335 1.610 . S
N337 C338 1.351 . S
C338 C332 1.428 . S
C338 N337 1.351 . S
C338 C339 1.434 . S
C339 C330 1.429 . S
C339 N336 1.350 . S
C339 C338 1.434 . S
C340 C341 1.369 . S
C340 C342 1.419 . S
C340 H344 0.930 . S
C341 C340 1.369 . S
C341 C350 1.429 . S
C342 C340 1.419 . S
C342 C343 1.363 . S
C342 H345 0.929 . S
C343 C342 1.363 . S
C343 C349 1.428 . S
H344 C340 0.930 . S
H345 C342 0.929 . S
S346 N347 1.613 . S
S346 N348 1.610 . S
N347 S346 1.613 . S
N347 C350 1.350 . S
N348 S346 1.610 . S
N348 C349 1.351 . S
C349 C343 1.428 . S
C349 N348 1.351 . S
C349 C350 1.434 . S
C350 C341 1.429 . S
C350 N347 1.350 . S
C350 C349 1.434 . S
C351 C352 1.369 . S
C351 C353 1.419 . S
C351 H355 0.930 1_545 S
C352 C351 1.369 . S
C352 C361 1.429 . S
C353 C351 1.419 . S
C353 C354 1.363 . S
C353 H356 0.929 1_545 S
C354 C353 1.363 . S
C354 C360 1.428 . S
H355 C351 0.930 1_565 S
H356 C353 0.929 1_565 S
S357 N358 1.613 . S
S357 N359 1.610 . S
N358 S357 1.613 . S
N358 C361 1.350 . S
N359 S357 1.610 . S
N359 C360 1.351 . S
C360 C354 1.428 . S
C360 N359 1.351 . S
C360 C361 1.434 . S
C361 C352 1.429 . S
C361 N358 1.350 . S
C361 C360 1.434 . S
C362 C363 1.369 . S
C362 C364 1.419 . S
C362 H366 0.930 . S
C363 C362 1.369 . S
C363 C372 1.429 . S
C364 C362 1.419 . S
C364 C365 1.363 1_556 S
C364 H367 0.921 1_556 S
C365 C364 1.363 1_554 S
C365 C371 1.428 . S
H366 C362 0.930 . S
H367 C364 0.921 1_554 S
S368 N369 1.613 1_554 S
S368 N370 1.610 . S
N369 S368 1.613 1_556 S
N369 C372 1.350 . S
N370 S368 1.610 . S
N370 C371 1.351 . S
C371 C365 1.428 . S
C371 N370 1.351 . S
C371 C372 1.434 1_554 S
C372 C363 1.429 . S
C372 N369 1.350 . S
C372 C371 1.434 1_556 S
C373 C374 1.369 . S
C373 C375 1.419 . S
C373 H377 0.930 . S
C374 C373 1.369 . S
C374 C383 1.429 . S
C375 C373 1.419 . S
C375 C376 1.363 . S
C375 H378 0.929 . S
C376 C375 1.363 . S
C376 C382 1.428 . S
H377 C373 0.930 . S
H378 C375 0.929 . S
S379 N380 1.613 . S
S379 N381 1.610 . S
N380 S379 1.613 . S
N380 C383 1.350 . S
N381 S379 1.610 . S
N381 C382 1.351 . S
C382 C376 1.428 . S
C382 N381 1.351 . S
C382 C383 1.434 . S
C383 C374 1.429 . S
C383 N380 1.350 . S
C383 C382 1.434 . S
C187 C9 0.874 . S
C189 C185 0.900 . S
C198 C49 0.665 . S
C200 C163 0.616 . S
C209 C89 0.596 . S
C211 C174 0.533 . S
C220 C26 0.696 . S
C222 C179 0.686 . S
C233 C157 0.532 . S
C231 C66 0.628 . S
C244 C168 0.656 . S
C242 C106 0.705 . S
C253 C43 3.080 . S
C255 C141 3.012 . S
C264 C83 3.055 . S
C266 C146 3.002 . S
C275 C22 3.084 . S
C277 C124 3.022 . S
C288 C135 3.026 . S
C286 C62 3.084 . S
C299 C152 3.024 . S
C297 C102 3.099 . S
C308 C3 3.084 . S
C310 C130 3.022 . S
C321 C147 1.762 . S
C319 C15 1.735 . S
C330 C55 1.765 . S
C332 C125 1.786 . S
C341 C95 1.750 . S
C343 C136 1.785 . S
C354 C169 1.109 . S
C352 C42 1.087 . S
C365 C180 1.144 . S
C363 C82 1.145 . S
C374 C2 1.087 . S
C376 C158 1.099 . S
