# Generated by pormake.
# Topology ctn, (3,4)-cn, num edge types: 1
# Building blocks:
#     Node 0, Type 0, BuildingBlock: ESEHIV_clean_linker_0, # of connection points: 3
#     Node 1, Type 0, BuildingBlock: ESEHIV_clean_linker_0, # of connection points: 3
#     Node 2, Type 0, BuildingBlock: ESEHIV_clean_linker_0, # of connection points: 3
#     Node 3, Type 0, BuildingBlock: ESEHIV_clean_linker_0, # of connection points: 3
#     Node 4, Type 0, BuildingBlock: ESEHIV_clean_linker_0, # of connection points: 3
#     Node 5, Type 0, BuildingBlock: ESEHIV_clean_linker_0, # of connection points: 3
#     Node 6, Type 0, BuildingBlock: ESEHIV_clean_linker_0, # of connection points: 3
#     Node 7, Type 0, BuildingBlock: ESEHIV_clean_linker_0, # of connection points: 3
#     Node 8, Type 0, BuildingBlock: ESEHIV_clean_linker_0, # of connection points: 3
#     Node 9, Type 0, BuildingBlock: ESEHIV_clean_linker_0, # of connection points: 3
#     Node 10, Type 0, BuildingBlock: ESEHIV_clean_linker_0, # of connection points: 3
#     Node 11, Type 0, BuildingBlock: ESEHIV_clean_linker_0, # of connection points: 3
#     Node 12, Type 0, BuildingBlock: ESEHIV_clean_linker_0, # of connection points: 3
#     Node 13, Type 0, BuildingBlock: ESEHIV_clean_linker_0, # of connection points: 3
#     Node 14, Type 0, BuildingBlock: ESEHIV_clean_linker_0, # of connection points: 3
#     Node 15, Type 0, BuildingBlock: ESEHIV_clean_linker_0, # of connection points: 3
#     Node 16, Type 1, BuildingBlock: AZAVOO_clean_sbu_0, # of connection points: 4
#     Node 17, Type 1, BuildingBlock: AZAVOO_clean_sbu_0, # of connection points: 4
#     Node 18, Type 1, BuildingBlock: AZAVOO_clean_sbu_0, # of connection points: 4
#     Node 19, Type 1, BuildingBlock: AZAVOO_clean_sbu_0, # of connection points: 4
#     Node 20, Type 1, BuildingBlock: AZAVOO_clean_sbu_0, # of connection points: 4
#     Node 21, Type 1, BuildingBlock: AZAVOO_clean_sbu_0, # of connection points: 4
#     Node 22, Type 1, BuildingBlock: AZAVOO_clean_sbu_0, # of connection points: 4
#     Node 23, Type 1, BuildingBlock: AZAVOO_clean_sbu_0, # of connection points: 4
#     Node 24, Type 1, BuildingBlock: AZAVOO_clean_sbu_0, # of connection points: 4
#     Node 25, Type 1, BuildingBlock: AZAVOO_clean_sbu_0, # of connection points: 4
#     Node 26, Type 1, BuildingBlock: AZAVOO_clean_sbu_0, # of connection points: 4
#     Node 27, Type 1, BuildingBlock: AZAVOO_clean_sbu_0, # of connection points: 4
#     Edge 28, Type (0, 1), BuildingBlock: OJICUG_clean_linker_0, # of connection points: 2
#     Edge 29, Type (0, 1), BuildingBlock: OJICUG_clean_linker_0, # of connection points: 2
#     Edge 30, Type (0, 1), BuildingBlock: OJICUG_clean_linker_0, # of connection points: 2
#     Edge 31, Type (0, 1), BuildingBlock: OJICUG_clean_linker_0, # of connection points: 2
#     Edge 32, Type (0, 1), BuildingBlock: OJICUG_clean_linker_0, # of connection points: 2
#     Edge 33, Type (0, 1), BuildingBlock: OJICUG_clean_linker_0, # of connection points: 2
#     Edge 34, Type (0, 1), BuildingBlock: OJICUG_clean_linker_0, # of connection points: 2
#     Edge 35, Type (0, 1), BuildingBlock: OJICUG_clean_linker_0, # of connection points: 2
#     Edge 36, Type (0, 1), BuildingBlock: OJICUG_clean_linker_0, # of connection points: 2
#     Edge 37, Type (0, 1), BuildingBlock: OJICUG_clean_linker_0, # of connection points: 2
#     Edge 38, Type (0, 1), BuildingBlock: OJICUG_clean_linker_0, # of connection points: 2
#     Edge 39, Type (0, 1), BuildingBlock: OJICUG_clean_linker_0, # of connection points: 2
#     Edge 40, Type (0, 1), BuildingBlock: OJICUG_clean_linker_0, # of connection points: 2
#     Edge 41, Type (0, 1), BuildingBlock: OJICUG_clean_linker_0, # of connection points: 2
#     Edge 42, Type (0, 1), BuildingBlock: OJICUG_clean_linker_0, # of connection points: 2
#     Edge 43, Type (0, 1), BuildingBlock: OJICUG_clean_linker_0, # of connection points: 2
#     Edge 44, Type (0, 1), BuildingBlock: OJICUG_clean_linker_0, # of connection points: 2
#     Edge 45, Type (0, 1), BuildingBlock: OJICUG_clean_linker_0, # of connection points: 2
#     Edge 46, Type (0, 1), BuildingBlock: OJICUG_clean_linker_0, # of connection points: 2
#     Edge 47, Type (0, 1), BuildingBlock: OJICUG_clean_linker_0, # of connection points: 2
#     Edge 48, Type (0, 1), BuildingBlock: OJICUG_clean_linker_0, # of connection points: 2
#     Edge 49, Type (0, 1), BuildingBlock: OJICUG_clean_linker_0, # of connection points: 2
#     Edge 50, Type (0, 1), BuildingBlock: OJICUG_clean_linker_0, # of connection points: 2
#     Edge 51, Type (0, 1), BuildingBlock: OJICUG_clean_linker_0, # of connection points: 2
#     Edge 52, Type (0, 1), BuildingBlock: OJICUG_clean_linker_0, # of connection points: 2
#     Edge 53, Type (0, 1), BuildingBlock: OJICUG_clean_linker_0, # of connection points: 2
#     Edge 54, Type (0, 1), BuildingBlock: OJICUG_clean_linker_0, # of connection points: 2
#     Edge 55, Type (0, 1), BuildingBlock: OJICUG_clean_linker_0, # of connection points: 2
#     Edge 56, Type (0, 1), BuildingBlock: OJICUG_clean_linker_0, # of connection points: 2
#     Edge 57, Type (0, 1), BuildingBlock: OJICUG_clean_linker_0, # of connection points: 2
#     Edge 58, Type (0, 1), BuildingBlock: OJICUG_clean_linker_0, # of connection points: 2
#     Edge 59, Type (0, 1), BuildingBlock: OJICUG_clean_linker_0, # of connection points: 2
#     Edge 60, Type (0, 1), BuildingBlock: OJICUG_clean_linker_0, # of connection points: 2
#     Edge 61, Type (0, 1), BuildingBlock: OJICUG_clean_linker_0, # of connection points: 2
#     Edge 62, Type (0, 1), BuildingBlock: OJICUG_clean_linker_0, # of connection points: 2
#     Edge 63, Type (0, 1), BuildingBlock: OJICUG_clean_linker_0, # of connection points: 2
#     Edge 64, Type (0, 1), BuildingBlock: OJICUG_clean_linker_0, # of connection points: 2
#     Edge 65, Type (0, 1), BuildingBlock: OJICUG_clean_linker_0, # of connection points: 2
#     Edge 66, Type (0, 1), BuildingBlock: OJICUG_clean_linker_0, # of connection points: 2
#     Edge 67, Type (0, 1), BuildingBlock: OJICUG_clean_linker_0, # of connection points: 2
#     Edge 68, Type (0, 1), BuildingBlock: OJICUG_clean_linker_0, # of connection points: 2
#     Edge 69, Type (0, 1), BuildingBlock: OJICUG_clean_linker_0, # of connection points: 2
#     Edge 70, Type (0, 1), BuildingBlock: OJICUG_clean_linker_0, # of connection points: 2
#     Edge 71, Type (0, 1), BuildingBlock: OJICUG_clean_linker_0, # of connection points: 2
#     Edge 72, Type (0, 1), BuildingBlock: OJICUG_clean_linker_0, # of connection points: 2
#     Edge 73, Type (0, 1), BuildingBlock: OJICUG_clean_linker_0, # of connection points: 2
#     Edge 74, Type (0, 1), BuildingBlock: OJICUG_clean_linker_0, # of connection points: 2
#     Edge 75, Type (0, 1), BuildingBlock: OJICUG_clean_linker_0, # of connection points: 2
# Relax obj value: 0.002
# Max RMSD: 0.039
# Mean RMSD: 0.023
data_MOF--net-ctn--node1-AZAVOO_clean_sbu_0--node2-ESEHIV_clean_linker_0--edge1-OJICUG_clean_linker_0
_symmetry_space_group_name_H-M    P1
_symmetry_Int_Tables_number       1
_symmetry_cell_setting            triclinic
loop_
_symmetry_equiv_pos_as_xyz
'x, y, z'
_cell_length_a     35.962126
_cell_length_b     36.754864
_cell_length_c     36.674463
_cell_angle_alpha  89.976437
_cell_angle_beta   93.734907
_cell_angle_gamma 93.856155
loop_
_atom_site_label
_atom_site_type_symbol
_atom_site_fract_x
_atom_site_fract_y
_atom_site_fract_z
_atom_type_partial_charge
H0 H 0.00829 0.08529 0.02504 0.0
H1 H 0.07029 0.99844 0.07078 0.0
H2 H 0.09595 0.04306 0.96652 0.0
C3 C 0.02961 0.06621 0.02293 0.0
C4 C 0.05159 0.06793 0.99252 0.0
C5 C 0.03589 0.04138 0.05151 0.0
C6 C 0.06423 0.01718 0.04873 0.0
C7 C 0.08565 0.01743 0.018 0.0
C8 C 0.07893 0.04255 0.98984 0.0
H9 H 0.3183 0.67736 0.27676 0.0
H10 H 0.36544 0.76336 0.20987 0.0
H11 H 0.2663 0.69902 0.17156 0.0
C12 C 0.31827 0.69301 0.25172 0.0
C13 C 0.28987 0.68485 0.22452 0.0
C14 C 0.34664 0.72054 0.2466 0.0
C15 C 0.34438 0.74167 0.21446 0.0
C16 C 0.31532 0.73402 0.18746 0.0
C17 C 0.28873 0.70507 0.19235 0.0
H18 H 0.96401 0.52694 0.09554 0.0
H19 H 0.02386 0.44365 0.04784 0.0
H20 H 0.91309 0.46315 0.0046 0.0
C21 C 0.96514 0.50542 0.07552 0.0
C22 C 0.9346 0.4976 0.05007 0.0
C23 C 0.99762 0.48638 0.07462 0.0
C24 C 0.99934 0.45928 0.04801 0.0
C25 C 0.96904 0.45071 0.02279 0.0
C26 C 0.93667 0.46993 0.02389 0.0
H27 H 0.68471 0.78445 0.22238 0.0
H28 H 0.78159 0.83266 0.17455 0.0
H29 H 0.73566 0.88667 0.2641 0.0
C30 C 0.70589 0.80678 0.22135 0.0
C31 C 0.70713 0.8357 0.24656 0.0
C32 C 0.73229 0.80628 0.19503 0.0
C33 C 0.76053 0.83437 0.19419 0.0
C34 C 0.76257 0.86349 0.21925 0.0
C35 C 0.73527 0.86408 0.2451 0.0
H36 H 0.99283 0.93396 0.46899 0.0
H37 H 0.04832 0.03964 0.4545 0.0
H38 H 0.08006 0.97429 0.54744 0.0
C39 C 0.01293 0.95566 0.47877 0.0
C40 C 0.03518 0.95079 0.51107 0.0
C41 C 0.01764 0.98755 0.45811 0.0
C42 C 0.04396 0.01532 0.47083 0.0
C43 C 0.0666 0.01093 0.50305 0.0
C44 C 0.06243 0.97825 0.52284 0.0
H45 H 0.15748 0.74821 0.76974 0.0
H46 H 0.2559 0.69589 0.8081 0.0
H47 H 0.19114 0.65463 0.71278 0.0
C48 C 0.1762 0.72654 0.7674 0.0
C49 C 0.17078 0.70182 0.73788 0.0
C50 C 0.207 0.72452 0.7928 0.0
C51 C 0.23194 0.69716 0.78879 0.0
C52 C 0.22687 0.67202 0.75989 0.0
C53 C 0.19582 0.67428 0.73488 0.0
H54 H 0.91757 0.51844 0.50004 0.0
H55 H 0.00618 0.56208 0.43595 0.0
H56 H 0.94959 0.45839 0.40778 0.0
C57 C 0.9353 0.51614 0.4775 0.0
C58 C 0.93076 0.48483 0.45522 0.0
C59 C 0.96244 0.54434 0.4709 0.0
C60 C 0.98465 0.541 0.4411 0.0
C61 C 0.97997 0.51028 0.41813 0.0
C62 C 0.9534 0.48203 0.42563 0.0
H63 H 0.73397 0.79244 0.82377 0.0
H64 H 0.79458 0.80782 0.72722 0.0
H65 H 0.81459 0.71684 0.79755 0.0
C66 C 0.75356 0.78306 0.80524 0.0
C67 C 0.7719 0.75109 0.81351 0.0
C68 C 0.76178 0.8041 0.77445 0.0
C69 C 0.78884 0.79266 0.75177 0.0
C70 C 0.80875 0.76186 0.76034 0.0
C71 C 0.79966 0.74086 0.79097 0.0
H72 H 0.21851 0.27414 0.31588 0.0
H73 H 0.29145 0.3017 0.23065 0.0
H74 H 0.32284 0.22396 0.3127 0.0
C75 C 0.24445 0.27112 0.30313 0.0
C76 C 0.2702 0.2476 0.31893 0.0
C77 C 0.25251 0.29221 0.27241 0.0
C78 C 0.28503 0.28609 0.25471 0.0
C79 C 0.30997 0.26059 0.2682 0.0
C80 C 0.30261 0.24181 0.30077 0.0
H81 H 0.46537 0.02412 0.60038 0.0
H82 H 0.52786 0.94213 0.55367 0.0
H83 H 0.41808 0.96147 0.50738 0.0
C84 C 0.46751 0.00294 0.58021 0.0
C85 C 0.43786 0.9952 0.5538 0.0
C86 C 0.50033 0.98428 0.58008 0.0
C87 C 0.50314 0.95751 0.55328 0.0
C88 C 0.47358 0.94902 0.52713 0.0
C89 C 0.44105 0.96807 0.52742 0.0
H90 H 0.18383 0.28093 0.727 0.0
H91 H 0.28835 0.32036 0.68757 0.0
H92 H 0.23152 0.38722 0.75985 0.0
C93 C 0.20559 0.30269 0.72567 0.0
C94 C 0.20474 0.33437 0.74699 0.0
C95 C 0.23557 0.29798 0.70405 0.0
C96 C 0.26484 0.3251 0.70354 0.0
C97 C 0.26387 0.35784 0.72323 0.0
C98 C 0.23332 0.3622 0.74471 0.0
H99 H 0.80671 0.18878 0.78476 0.0
H100 H 0.86155 0.26779 0.7153 0.0
H101 H 0.75625 0.2131 0.67942 0.0
C102 C 0.80773 0.204 0.75951 0.0
C103 C 0.77844 0.19792 0.73269 0.0
C104 C 0.83863 0.22841 0.75347 0.0
C105 C 0.83832 0.24872 0.72081 0.0
C106 C 0.80848 0.2434 0.69431 0.0
C107 C 0.77906 0.21756 0.70012 0.0
H108 H 0.505 0.58387 0.52497 0.0
H109 H 0.56749 0.49722 0.57062 0.0
H110 H 0.59274 0.54186 0.46639 0.0
C111 C 0.52634 0.56481 0.52282 0.0
C112 C 0.54844 0.5667 0.49247 0.0
C113 C 0.53261 0.53984 0.55132 0.0
C114 C 0.56117 0.51587 0.54855 0.0
C115 C 0.58261 0.51632 0.51786 0.0
C116 C 0.57571 0.54131 0.4897 0.0
H117 H 0.49774 0.42877 0.96906 0.0
H118 H 0.54952 0.53592 0.95366 0.0
H119 H 0.58396 0.47233 0.04703 0.0
C120 C 0.51731 0.45104 0.97849 0.0
C121 C 0.53983 0.44717 0.01082 0.0
C122 C 0.52073 0.48296 0.95767 0.0
C123 C 0.54617 0.51154 0.97012 0.0
C124 C 0.56911 0.50811 0.00229 0.0
C125 C 0.56621 0.47549 0.02234 0.0
H126 H 0.65302 0.24394 0.27931 0.0
H127 H 0.75645 0.19659 0.30905 0.0
H128 H 0.69033 0.15754 0.21393 0.0
C129 C 0.67325 0.22442 0.27395 0.0
C130 C 0.66725 0.20081 0.24348 0.0
C131 C 0.7057 0.22342 0.29732 0.0
C132 C 0.73154 0.19759 0.29091 0.0
C133 C 0.72614 0.17348 0.26121 0.0
C134 C 0.69406 0.17547 0.23745 0.0
H135 H 0.41708 0.01369 0.01108 0.0
H136 H 0.49668 0.06587 0.94154 0.0
H137 H 0.449 0.95793 0.91635 0.0
C138 C 0.43299 0.01374 0.98701 0.0
C139 C 0.4294 0.98286 0.9642 0.0
C140 C 0.45715 0.04412 0.97933 0.0
C141 C 0.47837 0.04265 0.94848 0.0
C142 C 0.47618 0.01136 0.92619 0.0
C143 C 0.45166 0.98158 0.93423 0.0
Mg144 Mg 0.23118 0.83846 0.0055 0.0
O145 O 0.28611 0.87121 0.99418 0.0
O146 O 0.33066 0.83186 0.99132 0.0
Mg147 Mg 0.30453 0.77441 0.99887 0.0
C148 C 0.31998 0.86429 0.99007 0.0
C149 C 0.19928 0.91339 0.01777 0.0
O150 O 0.22306 0.91134 0.04632 0.0
O151 O 0.22373 0.81945 0.94592 0.0
O152 O 0.26934 0.7809 0.94507 0.0
O153 O 0.24661 0.84135 0.0656 0.0
O154 O 0.2613 0.79722 0.02958 0.0
C155 C 0.24228 0.79693 0.92927 0.0
C156 C 0.26365 0.81187 0.06155 0.0
O157 O 0.19718 0.88812 0.9939 0.0
Mg158 Mg 0.15539 0.50214 0.26871 0.0
O159 O 0.11838 0.50276 0.2151 0.0
O160 O 0.15651 0.5032 0.16935 0.0
Mg161 Mg 0.21695 0.50502 0.19282 0.0
C162 C 0.1238 0.50283 0.181 0.0
C163 C 0.08009 0.51047 0.30149 0.0
O164 O 0.08344 0.53923 0.28036 0.0
O165 O 0.16677 0.44291 0.25947 0.0
O166 O 0.2073 0.44693 0.21559 0.0
O167 O 0.16128 0.56274 0.27137 0.0
O168 O 0.19936 0.52901 0.24334 0.0
C169 C 0.18866 0.42835 0.23853 0.0
C170 C 0.18988 0.5609 0.25195 0.0
O171 O 0.10482 0.48734 0.3015 0.0
Mg172 Mg 0.76865 0.65994 0.03414 0.0
O173 O 0.71343 0.62389 0.03148 0.0
O174 O 0.66728 0.6615 0.02411 0.0
Mg175 Mg 0.69158 0.72048 0.02316 0.0
C176 C 0.67868 0.62944 0.0275 0.0
C177 C 0.813 0.59231 0.05528 0.0
O178 O 0.80142 0.60125 0.0871 0.0
O179 O 0.76286 0.67042 0.97252 0.0
O180 O 0.71745 0.70938 0.96903 0.0
O181 O 0.7668 0.66835 0.09489 0.0
O182 O 0.74241 0.70416 0.05296 0.0
C183 C 0.74172 0.69141 0.95419 0.0
C184 C 0.74875 0.69691 0.08692 0.0
O185 O 0.80268 0.61022 0.02715 0.0
Mg186 Mg 0.92486 0.05252 0.24244 0.0
O187 O 0.88704 0.00096 0.23018 0.0
O188 O 0.92183 0.95473 0.21815 0.0
Mg189 Mg 0.98295 0.97696 0.22399 0.0
C190 C 0.89029 0.96775 0.22179 0.0
C191 C 0.84853 0.08442 0.23526 0.0
O192 O 0.8529 0.07225 0.20226 0.0
O193 O 0.94008 0.03032 0.29915 0.0
O194 O 0.97704 0.98621 0.28562 0.0
O195 O 0.92636 0.06751 0.1837 0.0
O196 O 0.96648 0.03244 0.21206 0.0
C197 C 0.96133 0.00503 0.30885 0.0
C198 C 0.95454 0.04764 0.18233 0.0
O199 O 0.87396 0.08009 0.26042 0.0
Mg200 Mg 0.27141 0.15541 0.54141 0.0
O201 O 0.21534 0.12052 0.53715 0.0
O202 O 0.17078 0.16019 0.53246 0.0
Mg203 Mg 0.19645 0.21873 0.53736 0.0
C204 C 0.18092 0.12753 0.53341 0.0
C205 C 0.31257 0.08535 0.5572 0.0
O206 O 0.29757 0.09058 0.58832 0.0
O207 O 0.26476 0.1701 0.48037 0.0
O208 O 0.22339 0.21267 0.48305 0.0
O209 O 0.27223 0.15911 0.6029 0.0
O210 O 0.24577 0.19778 0.56531 0.0
C211 C 0.24592 0.19505 0.46539 0.0
C212 C 0.25338 0.18765 0.59828 0.0
O213 O 0.30504 0.10632 0.53051 0.0
Mg214 Mg 0.42433 0.54893 0.74415 0.0
O215 O 0.38691 0.49703 0.73215 0.0
O216 O 0.4217 0.45149 0.71798 0.0
Mg217 Mg 0.48268 0.47414 0.72362 0.0
C218 C 0.39018 0.46404 0.7229 0.0
C219 C 0.34758 0.5793 0.7382 0.0
O220 O 0.35145 0.56569 0.70566 0.0
O221 O 0.44056 0.52615 0.80031 0.0
O222 O 0.47742 0.48237 0.78557 0.0
O223 O 0.4247 0.56458 0.68545 0.0
O224 O 0.46553 0.52955 0.71272 0.0
C225 C 0.46197 0.50078 0.80933 0.0
C226 C 0.45296 0.54494 0.68334 0.0
O227 O 0.37352 0.57615 0.76312 0.0
Mg228 Mg 0.73368 0.34285 0.50713 0.0
O229 O 0.78798 0.37544 0.4933 0.0
O230 O 0.83251 0.336 0.49124 0.0
Mg231 Mg 0.80724 0.27888 0.50244 0.0
C232 C 0.82168 0.36832 0.4886 0.0
C233 C 0.70049 0.41708 0.51739 0.0
O234 O 0.72471 0.41619 0.54571 0.0
O235 O 0.72534 0.3211 0.44873 0.0
O236 O 0.77093 0.28241 0.44886 0.0
O237 O 0.74973 0.34846 0.56683 0.0
O238 O 0.76431 0.30284 0.53264 0.0
C239 C 0.74351 0.29773 0.43285 0.0
C240 C 0.76659 0.3187 0.56403 0.0
O241 O 0.69881 0.3914 0.49401 0.0
Mg242 Mg 0.6528 0.0111 0.77797 0.0
O243 O 0.61693 0.00782 0.72351 0.0
O244 O 0.65642 0.01265 0.67885 0.0
Mg245 Mg 0.7163 0.02267 0.70362 0.0
C246 C 0.62333 0.00838 0.68961 0.0
C247 C 0.57641 0.01339 0.80933 0.0
O248 O 0.57788 0.04151 0.78721 0.0
O249 O 0.67163 0.95327 0.7692 0.0
O250 O 0.71425 0.96548 0.72826 0.0
O251 O 0.65217 0.07217 0.7805 0.0
O252 O 0.69401 0.0427 0.75315 0.0
C253 C 0.69776 0.94355 0.74997 0.0
C254 C 0.68111 0.07319 0.7613 0.0
O255 O 0.60285 0.992 0.81021 0.0
Mg256 Mg 0.04385 0.27016 0.89827 0.0
O257 O 0.99006 0.25642 0.86229 0.0
O258 O 0.94848 0.22879 0.89793 0.0
Mg259 Mg 0.97416 0.22749 0.95636 0.0
C260 C 0.95791 0.24087 0.86699 0.0
C261 C 0.10065 0.31962 0.85933 0.0
O262 O 0.11475 0.3207 0.89332 0.0
O263 O 0.01684 0.31842 0.92194 0.0
O264 O 0.97629 0.29045 0.95828 0.0
O265 O 0.06465 0.2151 0.88951 0.0
O266 O 0.0292 0.22846 0.93401 0.0
C267 C 0.99177 0.31944 0.945 0.0
C268 C 0.04608 0.20442 0.91705 0.0
O269 O 0.06876 0.3032 0.85236 0.0
Mg270 Mg 0.54568 0.76945 0.39913 0.0
O271 O 0.49299 0.7569 0.36096 0.0
O272 O 0.44973 0.72969 0.39505 0.0
Mg273 Mg 0.47299 0.72758 0.45429 0.0
C274 C 0.46044 0.74173 0.36454 0.0
C275 C 0.60675 0.81446 0.36194 0.0
O276 O 0.62161 0.81081 0.39533 0.0
O277 O 0.51935 0.81812 0.42272 0.0
O278 O 0.47714 0.79045 0.45749 0.0
O279 O 0.56547 0.71404 0.39047 0.0
O280 O 0.52885 0.7277 0.43391 0.0
C281 C 0.49385 0.81932 0.44529 0.0
C282 C 0.54574 0.70347 0.41725 0.0
O283 O 0.57307 0.8026 0.35476 0.0
Mg284 Mg 0.96736 0.73374 0.59481 0.0
O285 O 0.02204 0.7237 0.62894 0.0
O286 O 0.06509 0.71584 0.58891 0.0
Mg287 Mg 0.03951 0.72107 0.53074 0.0
C288 C 0.0554 0.71766 0.62171 0.0
C289 C 0.92215 0.72592 0.66376 0.0
O290 O 0.9252 0.69171 0.65489 0.0
O291 O 0.98969 0.79205 0.58251 0.0
O292 O 0.03227 0.78165 0.54247 0.0
O293 O 0.95248 0.67387 0.59024 0.0
O294 O 0.98434 0.70532 0.55007 0.0
C295 C 0.01456 0.80343 0.56103 0.0
C296 C 0.97009 0.67436 0.56063 0.0
O297 O 0.93887 0.75086 0.64561 0.0
Mg298 Mg 0.46426 0.23631 0.09991 0.0
O299 O 0.51656 0.22347 0.13599 0.0
O300 O 0.56093 0.21049 0.09876 0.0
Mg301 Mg 0.5381 0.21656 0.03964 0.0
C302 C 0.5494 0.2143 0.13061 0.0
C303 C 0.42708 0.23231 0.17344 0.0
O304 O 0.43725 0.19893 0.16963 0.0
O305 O 0.49136 0.29256 0.08734 0.0
O306 O 0.53416 0.2784 0.04892 0.0
O307 O 0.44366 0.17779 0.09551 0.0
O308 O 0.48136 0.2049 0.05721 0.0
C309 C 0.51726 0.30188 0.06623 0.0
C310 C 0.4633 0.17561 0.0674 0.0
O311 O 0.43611 0.25615 0.14981 0.0
C312 C 0.25093 0.76409 0.8337 0.0
C313 C 0.21413 0.75063 0.82379 0.0
H314 H 0.28856 0.78935 0.87521 0.0
C315 C 0.18549 0.75868 0.84627 0.0
H316 H 0.27347 0.75931 0.81646 0.0
C317 C 0.19414 0.77688 0.87967 0.0
C318 C 0.23151 0.7868 0.89102 0.0
H319 H 0.15688 0.74873 0.8393 0.0
H320 H 0.17206 0.78059 0.89778 0.0
C321 C 0.25959 0.78152 0.86718 0.0
C322 C 0.006 0.53822 0.36238 0.0
C323 C 0.00278 0.50834 0.38607 0.0
H324 H 0.03229 0.56199 0.31671 0.0
C325 C 0.02277 0.47763 0.37986 0.0
H326 H 0.99048 0.56203 0.36631 0.0
C327 C 0.04704 0.47763 0.3515 0.0
C328 C 0.05131 0.50817 0.32864 0.0
H329 H 0.02075 0.45425 0.3978 0.0
H330 H 0.06314 0.45414 0.34811 0.0
C331 C 0.02981 0.53807 0.33385 0.0
C332 C 0.72661 0.72646 0.85821 0.0
C333 C 0.76333 0.72995 0.84697 0.0
H334 H 0.69094 0.71113 0.9009 0.0
C335 C 0.79197 0.71541 0.86935 0.0
H336 H 0.70368 0.73638 0.84125 0.0
C337 C 0.78442 0.69998 0.90321 0.0
C338 C 0.74821 0.69931 0.91554 0.0
H339 H 0.82063 0.71778 0.86178 0.0
H340 H 0.80738 0.69094 0.92074 0.0
C341 C 0.71921 0.71165 0.89223 0.0
C342 C 0.98198 0.02261 0.41019 0.0
C343 C 0.99827 0.99038 0.42135 0.0
H344 H 0.95672 0.0523 0.3659 0.0
C345 C 0.999 0.96182 0.39603 0.0
H346 H 0.98092 0.04497 0.42925 0.0
C347 C 0.98555 0.96609 0.35981 0.0
C348 C 0.97066 0.99886 0.34819 0.0
H349 H 0.01168 0.93679 0.40376 0.0
H350 H 0.98782 0.94405 0.34065 0.0
C351 C 0.96799 0.0267 0.374 0.0
C352 C 0.20901 0.25834 0.6524 0.0
C353 C 0.23635 0.26514 0.68106 0.0
H354 H 0.1928 0.22785 0.60357 0.0
C355 C 0.26651 0.24281 0.68505 0.0
H356 H 0.18556 0.27532 0.64887 0.0
C357 C 0.27031 0.21525 0.65957 0.0
C358 C 0.24453 0.21033 0.62926 0.0
H359 H 0.28785 0.24764 0.70707 0.0
H360 H 0.29478 0.19955 0.66221 0.0
C361 C 0.21327 0.23136 0.62646 0.0
C362 C 0.498 0.57333 0.59716 0.0
C363 C 0.51093 0.54043 0.58478 0.0
H364 H 0.4687 0.59998 0.6373 0.0
C365 C 0.50356 0.50848 0.60519 0.0
H366 H 0.504 0.59887 0.58338 0.0
C367 C 0.48465 0.50969 0.63733 0.0
C368 C 0.47161 0.54255 0.649 0.0
H369 H 0.51226 0.48245 0.59641 0.0
H370 H 0.47979 0.48488 0.65275 0.0
C371 C 0.47799 0.57418 0.62842 0.0
C372 C 0.80091 0.30213 0.66177 0.0
C373 C 0.80681 0.26484 0.66042 0.0
H374 H 0.78338 0.34875 0.63186 0.0
C375 C 0.80459 0.24687 0.62656 0.0
H376 H 0.8022 0.31632 0.68776 0.0
C377 C 0.79418 0.26531 0.59466 0.0
C378 C 0.78517 0.30187 0.59625 0.0
H379 H 0.80891 0.21802 0.62509 0.0
H380 H 0.79083 0.2502 0.56918 0.0
C381 C 0.78994 0.32052 0.62988 0.0
C382 C 0.52471 0.9957 0.64525 0.0
C383 C 0.53157 0.9921 0.60815 0.0
H384 H 0.54817 0.00342 0.70014 0.0
C385 C 0.56867 0.99487 0.59807 0.0
H386 H 0.49641 0.99339 0.65389 0.0
C387 C 0.59827 0.00056 0.62445 0.0
C388 C 0.59157 0.00347 0.66168 0.0
H389 H 0.57484 0.99265 0.56966 0.0
H390 H 0.62648 0.0023 0.61559 0.0
C391 C 0.55439 0.00121 0.67175 0.0
C392 C 0.88087 0.20092 0.80185 0.0
C393 C 0.87123 0.23148 0.78091 0.0
H394 H 0.91541 0.18029 0.84587 0.0
C395 C 0.89261 0.26472 0.78704 0.0
H396 H 0.86629 0.17444 0.79717 0.0
C397 C 0.92207 0.26744 0.81402 0.0
C398 C 0.93 0.23728 0.83593 0.0
H399 H 0.88601 0.28895 0.77184 0.0
H400 H 0.93758 0.29349 0.81883 0.0
C401 C 0.90939 0.204 0.82949 0.0
C402 C 0.50812 0.9158 0.48177 0.0
C403 C 0.4761 0.91843 0.50134 0.0
H404 H 0.5385 0.88262 0.44789 0.0
C405 C 0.44806 0.88991 0.49889 0.0
H406 H 0.53002 0.93758 0.4831 0.0
C407 C 0.45302 0.85831 0.47911 0.0
C408 C 0.4859 0.85486 0.46099 0.0
H409 H 0.42319 0.8912 0.51388 0.0
H410 H 0.43167 0.83607 0.47907 0.0
C411 C 0.51284 0.88443 0.46149 0.0
C412 C 0.13875 0.32375 0.76557 0.0
C413 C 0.17596 0.33675 0.77405 0.0
H414 H 0.08536 0.30879 0.78578 0.0
C415 C 0.18651 0.34874 0.80988 0.0
H416 H 0.12962 0.31486 0.73809 0.0
C417 C 0.16117 0.34542 0.83716 0.0
C418 C 0.12471 0.33004 0.82924 0.0
H419 H 0.21502 0.35868 0.81741 0.0
H420 H 0.1708 0.35319 0.86484 0.0
C421 C 0.11333 0.32052 0.79287 0.0
C422 C 0.51213 0.61468 0.45939 0.0
C423 C 0.54601 0.598 0.46659 0.0
H424 H 0.48555 0.66158 0.43844 0.0
C425 C 0.57861 0.61436 0.45248 0.0
H426 H 0.48614 0.60242 0.46849 0.0
C427 C 0.57777 0.64752 0.43394 0.0
C428 C 0.54463 0.66552 0.43001 0.0
H429 H 0.6054 0.60294 0.45767 0.0
H430 H 0.60363 0.66032 0.42501 0.0
C431 C 0.51161 0.64846 0.44193 0.0
C432 C 0.84436 0.71589 0.72864 0.0
C433 C 0.83948 0.75236 0.73752 0.0
H434 H 0.87447 0.67897 0.69878 0.0
C435 C 0.86385 0.77995 0.72386 0.0
H436 H 0.82599 0.694 0.73843 0.0
C437 C 0.89149 0.77139 0.70079 0.0
C438 C 0.8956 0.73501 0.69107 0.0
H439 H 0.86144 0.80829 0.73082 0.0
H440 H 0.90921 0.79334 0.69011 0.0
C441 C 0.87216 0.70732 0.70577 0.0
C442 C 0.99695 0.9021 0.54213 0.0
C443 C 0.03163 0.91547 0.53028 0.0
H444 H 0.96459 0.85614 0.56231 0.0
C445 C 0.06172 0.89304 0.53267 0.0
H446 H 0.97334 0.91899 0.54037 0.0
C447 C 0.05657 0.85697 0.54442 0.0
C448 C 0.02143 0.84298 0.55472 0.0
H449 H 0.08861 0.90272 0.52339 0.0
H450 H 0.07976 0.83964 0.54426 0.0
C451 C 0.99201 0.86626 0.55474 0.0
C452 C 0.14847 0.70223 0.67183 0.0
C453 C 0.14066 0.7059 0.70864 0.0
H454 H 0.12809 0.70288 0.61596 0.0
C455 C 0.10432 0.71357 0.71687 0.0
H456 H 0.17632 0.69703 0.66445 0.0
C457 C 0.07637 0.71712 0.68881 0.0
C458 C 0.0843 0.71329 0.65196 0.0
H459 H 0.09741 0.7164 0.74499 0.0
H460 H 0.04865 0.72296 0.696 0.0
C461 C 0.12074 0.70582 0.64394 0.0
C462 C 0.96203 0.57507 0.53233 0.0
C463 C 0.9671 0.57749 0.49464 0.0
H464 H 0.95905 0.60379 0.58277 0.0
C465 C 0.97583 0.61206 0.47963 0.0
H466 H 0.95621 0.54894 0.54512 0.0
C467 C 0.97858 0.64334 0.50151 0.0
C468 C 0.97195 0.64091 0.53875 0.0
H469 H 0.97936 0.61524 0.45069 0.0
H470 H 0.98435 0.66959 0.48889 0.0
C471 C 0.96406 0.60647 0.55405 0.0
C472 C 0.80929 0.90804 0.25245 0.0
C473 C 0.79409 0.89211 0.21936 0.0
H474 H 0.85145 0.94495 0.27872 0.0
C475 C 0.81046 0.90262 0.18669 0.0
H476 H 0.79823 0.90026 0.27828 0.0
C477 C 0.84186 0.9273 0.18731 0.0
C478 C 0.85677 0.9427 0.22041 0.0
H479 H 0.79918 0.89175 0.16055 0.0
H480 H 0.85438 0.93448 0.16197 0.0
C481 C 0.84003 0.93338 0.25286 0.0
C482 C 0.77506 0.13133 0.28371 0.0
C483 C 0.75528 0.14777 0.25435 0.0
H484 H 0.82028 0.09879 0.30081 0.0
C485 C 0.76531 0.14133 0.21863 0.0
H486 H 0.76759 0.13494 0.31154 0.0
C487 C 0.79495 0.1199 0.21252 0.0
C488 C 0.81565 0.10488 0.24199 0.0
H489 H 0.75121 0.15389 0.19539 0.0
H490 H 0.80242 0.11614 0.1847 0.0
C491 C 0.80516 0.11045 0.27762 0.0
C492 C 0.36522 0.95968 0.97981 0.0
C493 C 0.40154 0.95243 0.9712 0.0
H494 H 0.31093 0.93769 0.99232 0.0
C495 C 0.41082 0.91606 0.96886 0.0
H496 H 0.35712 0.98747 0.98136 0.0
C497 C 0.38438 0.88752 0.9751 0.0
C498 C 0.34795 0.8947 0.98359 0.0
H499 H 0.43867 0.90966 0.96256 0.0
H500 H 0.39254 0.85979 0.97312 0.0
C501 C 0.33868 0.93114 0.98585 0.0
C502 C 0.21338 0.3433 0.28882 0.0
C503 C 0.22959 0.32348 0.26175 0.0
H504 H 0.18678 0.39128 0.30236 0.0
C505 C 0.22695 0.33631 0.22552 0.0
H506 H 0.21525 0.33512 0.31719 0.0
C507 C 0.21159 0.36957 0.21733 0.0
C508 C 0.19751 0.39014 0.24495 0.0
H509 H 0.23796 0.32144 0.20363 0.0
H510 H 0.21193 0.37982 0.18964 0.0
C511 C 0.1971 0.37589 0.28039 0.0
C512 C 0.13269 0.03223 0.52352 0.0
C513 C 0.09551 0.04017 0.51455 0.0
H514 H 0.18906 0.05352 0.53628 0.0
C515 C 0.08643 0.07673 0.51402 0.0
H516 H 0.14052 0.00427 0.52388 0.0
C517 C 0.11401 0.10482 0.52109 0.0
C518 C 0.15155 0.09715 0.52867 0.0
H519 H 0.05793 0.08365 0.50757 0.0
H520 H 0.10589 0.13266 0.51976 0.0
C521 C 0.1605 0.06045 0.53037 0.0
C522 C 0.7421 0.14098 0.71143 0.0
C523 C 0.74885 0.16885 0.73765 0.0
H524 H 0.7147 0.08878 0.69827 0.0
C525 C 0.72952 0.16701 0.76973 0.0
H526 H 0.75673 0.14182 0.68651 0.0
C527 C 0.70509 0.13685 0.77623 0.0
C528 C 0.70042 0.10783 0.75112 0.0
H529 H 0.73419 0.18837 0.79019 0.0
H530 H 0.69167 0.13522 0.80184 0.0
C531 C 0.7183 0.11056 0.71827 0.0
C532 C 0.38665 0.02107 0.58659 0.0
C533 C 0.40369 0.01567 0.55384 0.0
H534 H 0.3441 0.04662 0.61317 0.0
C535 C 0.38872 0.03108 0.52148 0.0
H536 H 0.39732 0.0091 0.61183 0.0
C537 C 0.35825 0.05279 0.52219 0.0
C538 C 0.34194 0.05915 0.55523 0.0
H539 H 0.40141 0.02741 0.49586 0.0
H540 H 0.34807 0.06529 0.49705 0.0
C541 C 0.356 0.04238 0.58725 0.0
C542 C 0.61789 0.47069 0.48556 0.0
C543 C 0.61394 0.49228 0.51649 0.0
H544 H 0.64845 0.42977 0.46149 0.0
C545 C 0.64004 0.49068 0.54652 0.0
H546 H 0.59813 0.47152 0.46203 0.0
C547 C 0.66897 0.46727 0.5461 0.0
C548 C 0.67223 0.44461 0.51576 0.0
H549 H 0.63797 0.5075 0.57047 0.0
H550 H 0.68818 0.46628 0.57003 0.0
C551 C 0.64665 0.44685 0.48528 0.0
C552 C 0.68535 0.25624 0.35226 0.0
C553 C 0.71339 0.24892 0.32878 0.0
H554 H 0.67302 0.2784 0.404 0.0
C555 C 0.75014 0.26328 0.33753 0.0
H556 H 0.6568 0.24558 0.3463 0.0
C557 C 0.75943 0.28113 0.37067 0.0
C558 C 0.73198 0.28607 0.39526 0.0
H559 H 0.77219 0.25921 0.31949 0.0
H560 H 0.78839 0.28986 0.37773 0.0
C561 C 0.69459 0.27497 0.38524 0.0
C562 C 0.50085 0.03919 0.86959 0.0
C563 C 0.49938 0.01007 0.89431 0.0
H564 H 0.52564 0.06265 0.82295 0.0
C565 C 0.52124 0.98042 0.88914 0.0
H566 H 0.4839 0.06214 0.87267 0.0
C567 C 0.54545 0.98073 0.86072 0.0
C568 C 0.54783 0.01049 0.8367 0.0
H569 H 0.52062 0.95763 0.90789 0.0
H570 H 0.56293 0.95811 0.85814 0.0
C571 C 0.52461 0.0393 0.84097 0.0
C572 C 0.27436 0.19767 0.36684 0.0
C573 C 0.26447 0.23277 0.35619 0.0
H574 H 0.27625 0.15782 0.40991 0.0
C575 C 0.24921 0.25479 0.38196 0.0
H576 H 0.28625 0.18 0.34774 0.0
C577 C 0.24279 0.24194 0.41675 0.0
C578 C 0.25221 0.20688 0.42749 0.0
H579 H 0.24257 0.28247 0.37552 0.0
H580 H 0.23106 0.26006 0.43557 0.0
C581 C 0.26846 0.18489 0.40232 0.0
C582 C 0.50194 0.45735 0.89554 0.0
C583 C 0.50056 0.48544 0.92127 0.0
H584 H 0.49076 0.44017 0.83996 0.0
C585 C 0.48299 0.51717 0.91077 0.0
H586 H 0.51556 0.43271 0.9028 0.0
C587 C 0.46849 0.52138 0.8748 0.0
C588 C 0.47187 0.49417 0.8485 0.0
H589 H 0.48139 0.53914 0.93017 0.0
H590 H 0.45628 0.54668 0.86723 0.0
C591 C 0.48794 0.46175 0.85949 0.0
C592 C 0.73968 0.74114 0.17896 0.0
C593 C 0.73101 0.77638 0.16815 0.0
H594 H 0.75223 0.68785 0.16144 0.0
C595 C 0.72447 0.78404 0.13099 0.0
H596 H 0.74498 0.73488 0.20762 0.0
C597 C 0.72799 0.75728 0.10477 0.0
C598 C 0.73882 0.72251 0.11521 0.0
H599 H 0.71778 0.81113 0.12222 0.0
H600 H 0.72405 0.76455 0.07623 0.0
C601 C 0.74384 0.71438 0.15261 0.0
C602 C 0.00629 0.01045 0.10534 0.0
C603 C 0.0142 0.04228 0.08494 0.0
H604 H 0.98152 0.98719 0.15257 0.0
C605 C 0.00156 0.07538 0.09711 0.0
H606 H 0.01485 0.98429 0.09674 0.0
C607 C 0.98107 0.07651 0.12801 0.0
C608 C 0.97394 0.04496 0.14848 0.0
H609 H 0.00804 0.10085 0.08338 0.0
H610 H 0.97191 0.10245 0.13667 0.0
C611 C 0.98689 0.01192 0.13717 0.0
C612 C 0.30252 0.79324 0.15763 0.0
C613 C 0.3108 0.75666 0.15447 0.0
H614 H 0.28078 0.83965 0.13039 0.0
C615 C 0.30804 0.74004 0.1199 0.0
H616 H 0.30411 0.80639 0.18417 0.0
C617 C 0.29488 0.75893 0.08923 0.0
C618 C 0.28376 0.79462 0.09269 0.0
H619 H 0.31415 0.71176 0.11697 0.0
H620 H 0.29134 0.74471 0.06325 0.0
C621 C 0.2889 0.81207 0.12695 0.0
C622 C 0.02399 0.49686 0.13925 0.0
C623 C 0.02964 0.49382 0.10183 0.0
H624 H 0.04922 0.50193 0.19373 0.0
C625 C 0.06633 0.4958 0.09064 0.0
H626 H 0.99601 0.49518 0.14868 0.0
C627 C 0.09674 0.49955 0.1163 0.0
C628 C 0.09125 0.50132 0.15387 0.0
H629 H 0.07155 0.49405 0.06195 0.0
H630 H 0.12459 0.50039 0.10659 0.0
C631 C 0.05449 0.50049 0.16504 0.0
C632 C 0.39545 0.7613 0.28272 0.0
C633 C 0.37836 0.72631 0.27481 0.0
H634 H 0.43565 0.79354 0.31725 0.0
C635 C 0.39107 0.69645 0.29507 0.0
H636 H 0.3864 0.785 0.268 0.0
C637 C 0.41813 0.70166 0.32387 0.0
C638 C 0.43427 0.73658 0.33225 0.0
H639 H 0.37988 0.66888 0.28904 0.0
H640 H 0.42645 0.67831 0.33971 0.0
C641 C 0.42352 0.76631 0.31099 0.0
C642 C 0.94448 0.39012 0.99731 0.0
C643 C 0.97106 0.41986 0.99724 0.0
H644 H 0.93022 0.33482 0.98078 0.0
C645 C 0.00219 0.41784 0.97627 0.0
H646 H 0.92038 0.39098 0.01347 0.0
C647 C 0.00774 0.38589 0.95731 0.0
C648 C 0.98257 0.35513 0.9595 0.0
H649 H 0.02301 0.44053 0.97577 0.0
H650 H 0.03283 0.38467 0.94266 0.0
C651 C 0.95031 0.35794 0.97881 0.0
C652 C 0.6422 0.82494 0.2674 0.0
C653 C 0.6802 0.83512 0.27556 0.0
H654 H 0.58889 0.81117 0.28825 0.0
C655 C 0.69282 0.84237 0.31207 0.0
H656 H 0.6316 0.8197 0.23943 0.0
C657 C 0.66839 0.83754 0.34004 0.0
C658 C 0.63081 0.82551 0.33207 0.0
H659 H 0.72198 0.85008 0.31922 0.0
H660 H 0.67936 0.84186 0.36803 0.0
C661 C 0.61771 0.82033 0.29535 0.0
C662 C 0.01436 0.11502 0.95915 0.0
C663 C 0.04862 0.09899 0.96639 0.0
H664 H 0.98682 0.16142 0.93834 0.0
C665 C 0.08093 0.11593 0.95228 0.0
H666 H 0.98858 0.10226 0.96823 0.0
C667 C 0.07942 0.14914 0.93381 0.0
C668 C 0.04588 0.16653 0.92994 0.0
H669 H 0.10792 0.10492 0.95744 0.0
H670 H 0.10504 0.16243 0.92485 0.0
C671 C 0.01317 0.14881 0.9418 0.0
C672 C 0.35471 0.21848 0.24363 0.0
C673 C 0.34361 0.25405 0.24804 0.0
H674 H 0.38998 0.18378 0.21694 0.0
C675 C 0.36317 0.28295 0.23066 0.0
H676 H 0.34025 0.19557 0.25644 0.0
C677 C 0.39132 0.27614 0.20748 0.0
C678 C 0.40097 0.24034 0.20158 0.0
H679 H 0.35617 0.31086 0.23426 0.0
H680 H 0.40484 0.29884 0.19349 0.0
C681 C 0.38316 0.21172 0.22079 0.0
C682 C 0.50277 0.40099 0.0459 0.0
C683 C 0.53657 0.41245 0.03103 0.0
H684 H 0.4705 0.35715 0.06976 0.0
C685 C 0.56551 0.38869 0.03157 0.0
H686 H 0.48004 0.41893 0.04553 0.0
C687 C 0.55989 0.35313 0.04473 0.0
C688 C 0.52545 0.34099 0.05817 0.0
H689 H 0.59169 0.39696 0.01996 0.0
H690 H 0.58205 0.33473 0.04321 0.0
C691 C 0.4974 0.36571 0.0598 0.0
C692 C 0.61957 0.23765 0.20916 0.0
C693 C 0.63416 0.20362 0.21694 0.0
H694 H 0.58055 0.26733 0.1761 0.0
C695 C 0.61805 0.17266 0.19764 0.0
H696 H 0.63144 0.2623 0.2227 0.0
C697 C 0.58976 0.17598 0.17007 0.0
C698 C 0.57606 0.21004 0.1621 0.0
H699 H 0.62759 0.14582 0.20336 0.0
H700 H 0.57881 0.15199 0.15471 0.0
C701 C 0.59053 0.2407 0.18229 0.0
C702 C 0.4281 0.08744 0.02076 0.0
C703 C 0.45952 0.07744 0.00304 0.0
H704 H 0.4052 0.12569 0.05557 0.0
C705 C 0.4929 0.09985 0.00791 0.0
H706 H 0.40156 0.07175 0.01713 0.0
C707 C 0.49441 0.13173 0.02901 0.0
C708 C 0.46298 0.14129 0.04659 0.0
H709 H 0.51802 0.09285 0.9956 0.0
H710 H 0.52027 0.14862 0.03188 0.0
C711 C 0.43003 0.1186 0.0427 0.0
C712 C 0.31643 0.39094 0.69117 0.0
C713 C 0.29521 0.3867 0.72216 0.0
H714 H 0.36372 0.41824 0.66746 0.0
C715 C 0.30505 0.40963 0.75256 0.0
H716 H 0.30936 0.37482 0.66672 0.0
C717 C 0.33509 0.43571 0.75201 0.0
C718 C 0.3568 0.43866 0.72165 0.0
H719 H 0.29036 0.40695 0.77734 0.0
H720 H 0.34228 0.45264 0.77596 0.0
C721 C 0.34736 0.41613 0.69125 0.0
C722 C 0.27524 0.62999 0.7847 0.0
C723 C 0.25556 0.64531 0.75458 0.0
H724 H 0.32004 0.59743 0.80326 0.0
C725 C 0.26536 0.63688 0.71921 0.0
H726 H 0.26802 0.63513 0.81234 0.0
C727 C 0.29448 0.61454 0.71411 0.0
C728 C 0.31506 0.60058 0.74421 0.0
H729 H 0.2515 0.64858 0.69532 0.0
H730 H 0.3017 0.60931 0.68646 0.0
C731 C 0.30494 0.60819 0.77957 0.0
C732 C 0.91155 0.41854 0.46229 0.0
C733 C 0.90243 0.45506 0.46302 0.0
H734 H 0.89346 0.36268 0.46992 0.0
C735 C 0.86635 0.46293 0.47188 0.0
H736 H 0.93923 0.41165 0.45592 0.0
C737 C 0.84 0.43485 0.47999 0.0
C738 C 0.84925 0.39829 0.47962 0.0
H739 H 0.85839 0.49082 0.47227 0.0
H740 H 0.81248 0.44185 0.48674 0.0
C741 C 0.88533 0.3905 0.47057 0.0
C742 C 0.70695 0.84401 0.77552 0.0
C743 C 0.74406 0.83921 0.76715 0.0
H744 H 0.66302 0.88082 0.77688 0.0
C745 C 0.76491 0.86884 0.75258 0.0
H746 H 0.68983 0.82175 0.78639 0.0
C747 C 0.74924 0.90205 0.74625 0.0
C748 C 0.71247 0.90708 0.75505 0.0
H749 H 0.79384 0.86686 0.74679 0.0
H750 H 0.76656 0.92421 0.7354 0.0
C751 C 0.69143 0.87775 0.76985 0.0
C752 C 0.58593 0.57451 0.01277 0.0
C753 C 0.59677 0.53851 0.01349 0.0
H754 H 0.60296 0.63116 0.01687 0.0
C755 C 0.63454 0.53233 0.02171 0.0
H756 H 0.55694 0.58006 0.00689 0.0
C757 C 0.66121 0.56176 0.0273 0.0
C758 C 0.65051 0.5979 0.025 0.0
H759 H 0.64368 0.50483 0.02223 0.0
H760 H 0.69027 0.55618 0.03242 0.0
C761 C 0.6124 0.6038 0.01852 0.0
C762 C 0.23893 0.65475 0.25907 0.0
C763 C 0.26179 0.65454 0.22955 0.0
H764 H 0.19731 0.62533 0.28866 0.0
C765 C 0.25892 0.62451 0.20571 0.0
H766 H 0.24072 0.67781 0.27765 0.0
C767 C 0.23466 0.59429 0.21229 0.0
C768 C 0.21236 0.59406 0.24233 0.0
H769 H 0.2764 0.62393 0.18277 0.0
H770 H 0.23375 0.57102 0.19414 0.0
C771 C 0.21404 0.6249 0.26516 0.0
C772 C 0.88606 0.52666 0.08415 0.0
C773 C 0.90095 0.51887 0.05078 0.0
H774 H 0.84635 0.55542 0.11168 0.0
C775 C 0.88468 0.53313 0.01841 0.0
H776 H 0.89765 0.51562 0.10949 0.0
C777 C 0.85522 0.55605 0.01961 0.0
C778 C 0.84128 0.56495 0.0532 0.0
H779 H 0.89568 0.52772 0.99229 0.0
H780 H 0.84407 0.56757 0.99433 0.0
C781 C 0.8565 0.54933 0.08534 0.0
C782 C 0.1421 0.98985 0.04663 0.0
C783 C 0.11634 0.99257 0.01647 0.0
H784 H 0.18878 0.96328 0.07041 0.0
C785 C 0.11956 0.97076 0.98552 0.0
H786 H 0.1406 0.00674 0.07063 0.0
C787 C 0.14715 0.94561 0.98539 0.0
C788 C 0.17228 0.94218 0.01605 0.0
H789 H 0.10002 0.97237 0.9619 0.0
H790 H 0.14832 0.9284 0.96158 0.0
C791 C 0.16986 0.96509 0.04636 0.0
loop_
_geom_bond_atom_site_label_1
_geom_bond_atom_site_label_2
_geom_bond_distance
_geom_bond_site_symmetry_2
_ccdc_geom_bond_type
H0 C3 0.931 1_655 S
H1 C6 0.928 1_565 S
H2 C8 0.933 . S
C3 H0 0.931 1_455 S
C3 C4 1.413 . S
C3 C5 1.360 . S
C4 C3 1.413 . S
C4 C8 1.428 1_554 S
C5 C3 1.360 . S
C5 C6 1.372 . S
C6 H1 0.928 1_545 S
C6 C5 1.372 . S
C6 C7 1.404 . S
C7 C6 1.404 . S
C7 C8 1.388 1_554 S
C8 H2 0.933 . S
C8 C4 1.428 1_556 S
C8 C7 1.388 1_556 S
H9 C12 0.931 . S
H10 C15 0.928 . S
H11 C17 0.930 . S
C12 H9 0.931 . S
C12 C13 1.413 . S
C12 C14 1.360 . S
C13 C12 1.413 . S
C13 C17 1.429 . S
C14 C12 1.360 . S
C14 C15 1.372 . S
C15 H10 0.928 . S
C15 C14 1.372 . S
C15 C16 1.404 . S
C16 C15 1.404 . S
C16 C17 1.391 . S
C17 H11 0.930 . S
C17 C13 1.429 . S
C17 C16 1.391 . S
H18 C21 0.931 . S
H19 C24 0.928 . S
H20 C26 0.930 1_556 S
C21 H18 0.931 . S
C21 C22 1.413 . S
C21 C23 1.360 1_655 S
C22 C21 1.413 . S
C22 C26 1.429 . S
C23 C21 1.360 1_455 S
C23 C24 1.372 . S
C24 H19 0.928 . S
C24 C23 1.372 . S
C24 C25 1.404 1_455 S
C25 C24 1.404 1_655 S
C25 C26 1.391 . S
C26 H20 0.930 1_554 S
C26 C22 1.429 . S
C26 C25 1.391 . S
H27 C30 0.931 . S
H28 C33 0.928 . S
H29 C35 0.930 . S
C30 H27 0.931 . S
C30 C31 1.413 . S
C30 C32 1.360 . S
C31 C30 1.413 . S
C31 C35 1.429 . S
C32 C30 1.360 . S
C32 C33 1.372 . S
C33 H28 0.928 . S
C33 C32 1.372 . S
C33 C34 1.404 . S
C34 C33 1.404 . S
C34 C35 1.391 . S
C35 H29 0.930 . S
C35 C31 1.429 . S
C35 C34 1.391 . S
H36 C39 0.931 . S
H37 C42 0.928 . S
H38 C44 0.930 . S
C39 H36 0.931 . S
C39 C40 1.413 . S
C39 C41 1.360 . S
C40 C39 1.413 . S
C40 C44 1.429 . S
C41 C39 1.360 . S
C41 C42 1.372 1_565 S
C42 H37 0.928 . S
C42 C41 1.372 1_545 S
C42 C43 1.404 1_545 S
C43 C42 1.404 1_565 S
C43 C44 1.391 . S
C44 H38 0.930 . S
C44 C40 1.429 . S
C44 C43 1.391 . S
H45 C48 0.931 . S
H46 C51 0.928 . S
H47 C53 0.930 . S
C48 H45 0.931 . S
C48 C49 1.413 . S
C48 C50 1.360 . S
C49 C48 1.413 . S
C49 C53 1.429 . S
C50 C48 1.360 . S
C50 C51 1.372 . S
C51 H46 0.928 . S
C51 C50 1.372 . S
C51 C52 1.404 . S
C52 C51 1.404 . S
C52 C53 1.391 . S
C53 H47 0.930 . S
C53 C49 1.429 . S
C53 C52 1.391 . S
H54 C57 0.931 . S
H55 C60 0.928 1_455 S
H56 C62 0.930 . S
C57 H54 0.931 . S
C57 C58 1.413 . S
C57 C59 1.360 . S
C58 C57 1.413 . S
C58 C62 1.429 . S
C59 C57 1.360 . S
C59 C60 1.372 . S
C60 H55 0.928 1_655 S
C60 C59 1.372 . S
C60 C61 1.404 . S
C61 C60 1.404 . S
C61 C62 1.391 . S
C62 H56 0.930 . S
C62 C58 1.429 . S
C62 C61 1.391 . S
H63 C66 0.931 . S
H64 C69 0.928 . S
H65 C71 0.930 . S
C66 H63 0.931 . S
C66 C67 1.413 . S
C66 C68 1.360 . S
C67 C66 1.413 . S
C67 C71 1.429 . S
C68 C66 1.360 . S
C68 C69 1.372 . S
C69 H64 0.928 . S
C69 C68 1.372 . S
C69 C70 1.404 . S
C70 C69 1.404 . S
C70 C71 1.391 . S
C71 H65 0.930 . S
C71 C67 1.429 . S
C71 C70 1.391 . S
H72 C75 0.931 . S
H73 C78 0.928 . S
H74 C80 0.930 . S
C75 H72 0.931 . S
C75 C76 1.413 . S
C75 C77 1.360 . S
C76 C75 1.413 . S
C76 C80 1.429 . S
C77 C75 1.360 . S
C77 C78 1.372 . S
C78 H73 0.928 . S
C78 C77 1.372 . S
C78 C79 1.404 . S
C79 C78 1.404 . S
C79 C80 1.391 . S
C80 H74 0.930 . S
C80 C76 1.429 . S
C80 C79 1.391 . S
H81 C84 0.931 1_545 S
H82 C87 0.928 . S
H83 C89 0.930 . S
C84 H81 0.931 1_565 S
C84 C85 1.413 . S
C84 C86 1.360 . S
C85 C84 1.413 . S
C85 C89 1.429 . S
C86 C84 1.360 . S
C86 C87 1.372 . S
C87 H82 0.928 . S
C87 C86 1.372 . S
C87 C88 1.404 . S
C88 C87 1.404 . S
C88 C89 1.391 . S
C89 H83 0.930 . S
C89 C85 1.429 . S
C89 C88 1.391 . S
H90 C93 0.931 . S
H91 C96 0.928 . S
H92 C98 0.930 . S
C93 H90 0.931 . S
C93 C94 1.413 . S
C93 C95 1.360 . S
C94 C93 1.413 . S
C94 C98 1.429 . S
C95 C93 1.360 . S
C95 C96 1.372 . S
C96 H91 0.928 . S
C96 C95 1.372 . S
C96 C97 1.404 . S
C97 C96 1.404 . S
C97 C98 1.391 . S
C98 H92 0.930 . S
C98 C94 1.429 . S
C98 C97 1.391 . S
H99 C102 0.931 . S
H100 C105 0.928 . S
H101 C107 0.930 . S
C102 H99 0.931 . S
C102 C103 1.413 . S
C102 C104 1.360 . S
C103 C102 1.413 . S
C103 C107 1.429 . S
C104 C102 1.360 . S
C104 C105 1.372 . S
C105 H100 0.928 . S
C105 C104 1.372 . S
C105 C106 1.404 . S
C106 C105 1.404 . S
C106 C107 1.391 . S
C107 H101 0.930 . S
C107 C103 1.429 . S
C107 C106 1.391 . S
H108 C111 0.931 . S
H109 C114 0.928 . S
H110 C116 0.930 . S
C111 H108 0.931 . S
C111 C112 1.413 . S
C111 C113 1.360 . S
C112 C111 1.413 . S
C112 C116 1.429 . S
C113 C111 1.360 . S
C113 C114 1.372 . S
C114 H109 0.928 . S
C114 C113 1.372 . S
C114 C115 1.404 . S
C115 C114 1.404 . S
C115 C116 1.391 . S
C116 H110 0.930 . S
C116 C112 1.429 . S
C116 C115 1.391 . S
H117 C120 0.931 . S
H118 C123 0.928 . S
H119 C125 0.930 1_554 S
C120 H117 0.931 . S
C120 C121 1.413 . S
C120 C122 1.360 . S
C121 C120 1.413 . S
C121 C125 1.429 . S
C122 C120 1.360 . S
C122 C123 1.372 . S
C123 H118 0.928 . S
C123 C122 1.372 . S
C123 C124 1.404 . S
C124 C123 1.404 . S
C124 C125 1.391 . S
C125 H119 0.930 1_556 S
C125 C121 1.429 . S
C125 C124 1.391 . S
H126 C129 0.931 . S
H127 C132 0.928 . S
H128 C134 0.930 . S
C129 H126 0.931 . S
C129 C130 1.413 . S
C129 C131 1.360 . S
C130 C129 1.413 . S
C130 C134 1.429 . S
C131 C129 1.360 . S
C131 C132 1.372 . S
C132 H127 0.928 . S
C132 C131 1.372 . S
C132 C133 1.404 . S
C133 C132 1.404 . S
C133 C134 1.391 . S
C134 H128 0.930 . S
C134 C130 1.429 . S
C134 C133 1.391 . S
H135 C138 0.952 . S
H136 C141 0.928 . S
H137 C143 0.930 1_565 S
C138 H135 0.952 . S
C138 C139 1.398 1_554 S
C138 C140 1.355 1_554 S
C139 C138 1.398 1_556 S
C139 C143 1.429 . S
C140 C138 1.355 1_556 S
C140 C141 1.372 . S
C141 H136 0.928 . S
C141 C140 1.372 . S
C141 C142 1.404 . S
C142 C141 1.404 . S
C142 C143 1.391 . S
C143 H137 0.930 1_545 S
C143 C139 1.429 . S
C143 C142 1.391 . S
Mg144 O145 2.028 . S
Mg144 O151 1.986 1_554 S
Mg144 O153 2.114 . S
Mg144 O154 2.251 . S
Mg144 O157 2.010 . S
O145 Mg144 2.028 . S
O145 C148 1.250 1_554 S
O146 Mg147 2.028 . S
O146 C148 1.248 . S
Mg147 O146 2.028 . S
Mg147 O152 2.032 . S
Mg147 O154 2.079 1_556 S
C148 O145 1.250 1_556 S
C148 O146 1.248 . S
C149 O150 1.264 . S
C149 O157 1.249 . S
O150 C149 1.264 . S
O151 Mg144 1.986 1_556 S
O151 C155 1.246 . S
O152 Mg147 2.032 . S
O152 C155 1.259 . S
O153 Mg144 2.114 . S
O153 C156 1.252 . S
O154 Mg144 2.251 . S
O154 Mg147 2.079 1_554 S
O154 C156 1.273 . S
C155 O151 1.246 . S
C155 O152 1.259 . S
C156 O153 1.252 . S
C156 O154 1.273 . S
O157 Mg144 2.010 . S
O157 C149 1.249 . S
Mg158 O159 2.028 . S
Mg158 O165 1.986 . S
Mg158 O167 2.114 . S
Mg158 O168 2.251 . S
Mg158 O171 2.010 . S
O159 Mg158 2.028 . S
O159 C162 1.250 . S
O160 Mg161 2.028 . S
O160 C162 1.248 . S
Mg161 O160 2.028 . S
Mg161 O166 2.032 . S
Mg161 O168 2.079 . S
C162 O159 1.250 . S
C162 O160 1.248 . S
C163 O164 1.264 . S
C163 O171 1.249 . S
O164 C163 1.264 . S
O165 Mg158 1.986 . S
O165 C169 1.246 . S
O166 Mg161 2.032 . S
O166 C169 1.259 . S
O167 Mg158 2.114 . S
O167 C170 1.252 . S
O168 Mg158 2.251 . S
O168 Mg161 2.079 . S
O168 C170 1.273 . S
C169 O165 1.246 . S
C169 O166 1.259 . S
C170 O167 1.252 . S
C170 O168 1.273 . S
O171 Mg158 2.010 . S
O171 C163 1.249 . S
Mg172 O173 2.028 . S
Mg172 O179 1.986 1_554 S
Mg172 O181 2.114 . S
Mg172 O182 2.251 . S
Mg172 O185 2.010 . S
O173 Mg172 2.028 . S
O173 C176 1.255 . S
O174 Mg175 2.028 . S
O174 C176 1.245 1_556 S
Mg175 O174 2.028 . S
Mg175 O180 2.032 . S
Mg175 O182 2.079 1_556 S
C176 O173 1.255 . S
C176 O174 1.245 1_554 S
C177 O178 1.264 . S
C177 O185 1.249 . S
O178 C177 1.264 . S
O179 Mg172 1.986 1_556 S
O179 C183 1.246 . S
O180 Mg175 2.032 . S
O180 C183 1.259 . S
O181 Mg172 2.114 . S
O181 C184 1.252 . S
O182 Mg172 2.251 . S
O182 Mg175 2.079 1_554 S
O182 C184 1.273 . S
C183 O179 1.246 . S
C183 O180 1.259 . S
C184 O181 1.252 . S
C184 O182 1.273 . S
O185 Mg172 2.010 . S
O185 C177 1.249 . S
Mg186 O187 2.028 1_545 S
Mg186 O193 1.986 . S
Mg186 O195 2.114 . S
Mg186 O196 2.251 . S
Mg186 O199 2.010 . S
O187 Mg186 2.028 1_565 S
O187 C190 1.250 . S
O188 Mg189 2.028 . S
O188 C190 1.248 . S
Mg189 O188 2.028 . S
Mg189 O194 2.032 . S
Mg189 O196 2.079 1_565 S
C190 O187 1.250 . S
C190 O188 1.248 . S
C191 O192 1.264 . S
C191 O199 1.249 . S
O192 C191 1.264 . S
O193 Mg186 1.986 . S
O193 C197 1.246 1_545 S
O194 Mg189 2.032 . S
O194 C197 1.259 . S
O195 Mg186 2.114 . S
O195 C198 1.252 . S
O196 Mg186 2.251 . S
O196 Mg189 2.079 1_545 S
O196 C198 1.273 . S
C197 O193 1.246 1_565 S
C197 O194 1.259 . S
C198 O195 1.252 . S
C198 O196 1.273 . S
O199 Mg186 2.010 . S
O199 C191 1.249 . S
Mg200 O201 2.028 . S
Mg200 O207 1.986 . S
Mg200 O209 2.114 . S
Mg200 O210 2.251 . S
Mg200 O213 2.010 . S
O201 Mg200 2.028 . S
O201 C204 1.250 . S
O202 Mg203 2.028 . S
O202 C204 1.248 . S
Mg203 O202 2.028 . S
Mg203 O208 2.032 . S
Mg203 O210 2.079 . S
C204 O201 1.250 . S
C204 O202 1.248 . S
C205 O206 1.264 . S
C205 O213 1.249 . S
O206 C205 1.264 . S
O207 Mg200 1.986 . S
O207 C211 1.246 . S
O208 Mg203 2.032 . S
O208 C211 1.259 . S
O209 Mg200 2.114 . S
O209 C212 1.252 . S
O210 Mg200 2.251 . S
O210 Mg203 2.079 . S
O210 C212 1.273 . S
C211 O207 1.246 . S
C211 O208 1.259 . S
C212 O209 1.252 . S
C212 O210 1.273 . S
O213 Mg200 2.010 . S
O213 C205 1.249 . S
Mg214 O215 2.028 . S
Mg214 O221 1.986 . S
Mg214 O223 2.114 . S
Mg214 O224 2.251 . S
Mg214 O227 2.010 . S
O215 Mg214 2.028 . S
O215 C218 1.250 . S
O216 Mg217 2.028 . S
O216 C218 1.248 . S
Mg217 O216 2.028 . S
Mg217 O222 2.032 . S
Mg217 O224 2.079 . S
C218 O215 1.250 . S
C218 O216 1.248 . S
C219 O220 1.264 . S
C219 O227 1.249 . S
O220 C219 1.264 . S
O221 Mg214 1.986 . S
O221 C225 1.246 . S
O222 Mg217 2.032 . S
O222 C225 1.259 . S
O223 Mg214 2.114 . S
O223 C226 1.252 . S
O224 Mg214 2.251 . S
O224 Mg217 2.079 . S
O224 C226 1.273 . S
C225 O221 1.246 . S
C225 O222 1.259 . S
C226 O223 1.252 . S
C226 O224 1.273 . S
O227 Mg214 2.010 . S
O227 C219 1.249 . S
Mg228 O229 2.028 . S
Mg228 O235 1.986 . S
Mg228 O237 2.114 . S
Mg228 O238 2.251 . S
Mg228 O241 2.010 . S
O229 Mg228 2.028 . S
O229 C232 1.250 . S
O230 Mg231 2.028 . S
O230 C232 1.248 . S
Mg231 O230 2.028 . S
Mg231 O236 2.032 . S
Mg231 O238 2.079 . S
C232 O229 1.250 . S
C232 O230 1.248 . S
C233 O234 1.264 . S
C233 O241 1.249 . S
O234 C233 1.264 . S
O235 Mg228 1.986 . S
O235 C239 1.246 . S
O236 Mg231 2.032 . S
O236 C239 1.259 . S
O237 Mg228 2.114 . S
O237 C240 1.252 . S
O238 Mg228 2.251 . S
O238 Mg231 2.079 . S
O238 C240 1.273 . S
C239 O235 1.246 . S
C239 O236 1.259 . S
C240 O237 1.252 . S
C240 O238 1.273 . S
O241 Mg228 2.010 . S
O241 C233 1.249 . S
Mg242 O243 2.028 1_545 S
Mg242 O249 1.986 1_545 S
Mg242 O251 2.114 . S
Mg242 O252 2.251 . S
Mg242 O255 2.010 . S
O243 Mg242 2.028 1_565 S
O243 C246 1.250 . S
O244 Mg245 2.028 . S
O244 C246 1.248 . S
Mg245 O244 2.028 . S
Mg245 O250 2.032 . S
Mg245 O252 2.079 1_565 S
C246 O243 1.250 . S
C246 O244 1.248 . S
C247 O248 1.264 . S
C247 O255 1.249 . S
O248 C247 1.264 . S
O249 Mg242 1.986 1_565 S
O249 C253 1.246 . S
O250 Mg245 2.032 . S
O250 C253 1.259 . S
O251 Mg242 2.114 . S
O251 C254 1.252 . S
O252 Mg242 2.251 . S
O252 Mg245 2.079 1_545 S
O252 C254 1.273 . S
C253 O249 1.246 . S
C253 O250 1.259 . S
C254 O251 1.252 . S
C254 O252 1.273 . S
O255 Mg242 2.010 . S
O255 C247 1.249 . S
Mg256 O257 2.028 1_455 S
Mg256 O263 1.986 . S
Mg256 O265 2.114 . S
Mg256 O266 2.251 1_455 S
Mg256 O269 2.010 . S
O257 Mg256 2.028 1_655 S
O257 C260 1.250 . S
O258 Mg259 2.028 . S
O258 C260 1.248 . S
Mg259 O258 2.028 . S
Mg259 O264 2.032 . S
Mg259 O266 2.079 . S
C260 O257 1.250 . S
C260 O258 1.248 . S
C261 O262 1.264 . S
C261 O269 1.249 . S
O262 C261 1.264 . S
O263 Mg256 1.986 . S
O263 C267 1.246 1_455 S
O264 Mg259 2.032 . S
O264 C267 1.259 . S
O265 Mg256 2.114 . S
O265 C268 1.252 . S
O266 Mg256 2.251 1_655 S
O266 Mg259 2.079 . S
O266 C268 1.273 1_655 S
C267 O263 1.246 1_655 S
C267 O264 1.259 . S
C268 O265 1.252 . S
C268 O266 1.273 1_455 S
O269 Mg256 2.010 . S
O269 C261 1.249 . S
Mg270 O271 2.028 . S
Mg270 O277 1.986 . S
Mg270 O279 2.114 . S
Mg270 O280 2.251 . S
Mg270 O283 2.010 . S
O271 Mg270 2.028 . S
O271 C274 1.250 . S
O272 Mg273 2.028 . S
O272 C274 1.248 . S
Mg273 O272 2.028 . S
Mg273 O278 2.032 . S
Mg273 O280 2.079 . S
C274 O271 1.250 . S
C274 O272 1.248 . S
C275 O276 1.264 . S
C275 O283 1.249 . S
O276 C275 1.264 . S
O277 Mg270 1.986 . S
O277 C281 1.246 . S
O278 Mg273 2.032 . S
O278 C281 1.259 . S
O279 Mg270 2.114 . S
O279 C282 1.252 . S
O280 Mg270 2.251 . S
O280 Mg273 2.079 . S
O280 C282 1.273 . S
C281 O277 1.246 . S
C281 O278 1.259 . S
C282 O279 1.252 . S
C282 O280 1.273 . S
O283 Mg270 2.010 . S
O283 C275 1.249 . S
Mg284 O285 2.028 1_655 S
Mg284 O291 1.986 . S
Mg284 O293 2.114 . S
Mg284 O294 2.251 1_655 S
Mg284 O297 2.010 . S
O285 Mg284 2.028 1_455 S
O285 C288 1.250 . S
O286 Mg287 2.028 . S
O286 C288 1.248 . S
Mg287 O286 2.028 . S
Mg287 O292 2.032 . S
Mg287 O294 2.079 . S
C288 O285 1.250 . S
C288 O286 1.248 . S
C289 O290 1.264 . S
C289 O297 1.249 . S
O290 C289 1.264 . S
O291 Mg284 1.986 . S
O291 C295 1.246 1_655 S
O292 Mg287 2.032 . S
O292 C295 1.259 . S
O293 Mg284 2.114 . S
O293 C296 1.252 . S
O294 Mg284 2.251 1_455 S
O294 Mg287 2.079 . S
O294 C296 1.273 1_455 S
C295 O291 1.246 1_455 S
C295 O292 1.259 . S
C296 O293 1.252 . S
C296 O294 1.273 1_655 S
O297 Mg284 2.010 . S
O297 C289 1.249 . S
Mg298 O299 2.028 . S
Mg298 O305 1.986 . S
Mg298 O307 2.114 . S
Mg298 O308 2.251 . S
Mg298 O311 2.010 . S
O299 Mg298 2.028 . S
O299 C302 1.250 . S
O300 Mg301 2.028 . S
O300 C302 1.248 . S
Mg301 O300 2.028 . S
Mg301 O306 2.032 . S
Mg301 O308 2.079 . S
C302 O299 1.250 . S
C302 O300 1.248 . S
C303 O304 1.264 . S
C303 O311 1.249 . S
O304 C303 1.264 . S
O305 Mg298 1.986 . S
O305 C309 1.246 . S
O306 Mg301 2.032 . S
O306 C309 1.259 . S
O307 Mg298 2.114 . S
O307 C310 1.252 . S
O308 Mg298 2.251 . S
O308 Mg301 2.079 . S
O308 C310 1.273 . S
C309 O305 1.246 . S
C309 O306 1.259 . S
C310 O307 1.252 . S
C310 O308 1.273 . S
O311 Mg298 2.010 . S
O311 C303 1.249 . S
C312 C313 1.387 . S
C312 H316 0.950 . S
C312 C321 1.390 . S
C313 C312 1.387 . S
C313 C315 1.387 . S
H314 C321 0.950 . S
C315 C313 1.387 . S
C315 C317 1.390 . S
C315 H319 0.950 . S
H316 C312 0.950 . S
C317 C315 1.390 . S
C317 C318 1.387 . S
C317 H320 0.950 . S
C318 C317 1.387 . S
C318 C321 1.387 . S
H319 C315 0.950 . S
H320 C317 0.950 . S
C321 C312 1.390 . S
C321 H314 0.950 . S
C321 C318 1.387 . S
C322 C323 1.387 . S
C322 H326 0.950 . S
C322 C331 1.390 . S
C323 C322 1.387 . S
C323 C325 1.387 . S
H324 C331 0.950 . S
C325 C323 1.387 . S
C325 C327 1.390 . S
C325 H329 0.950 . S
H326 C322 0.950 . S
C327 C325 1.390 . S
C327 C328 1.387 . S
C327 H330 0.950 . S
C328 C327 1.387 . S
C328 C331 1.387 . S
H329 C325 0.950 . S
H330 C327 0.950 . S
C331 C322 1.390 . S
C331 H324 0.950 . S
C331 C328 1.387 . S
C332 C333 1.387 . S
C332 H336 0.950 . S
C332 C341 1.390 . S
C333 C332 1.387 . S
C333 C335 1.387 . S
H334 C341 0.950 . S
C335 C333 1.387 . S
C335 C337 1.390 . S
C335 H339 0.950 . S
H336 C332 0.950 . S
C337 C335 1.390 . S
C337 C338 1.387 . S
C337 H340 0.950 . S
C338 C337 1.387 . S
C338 C341 1.387 . S
H339 C335 0.950 . S
H340 C337 0.950 . S
C341 C332 1.390 . S
C341 H334 0.950 . S
C341 C338 1.387 . S
C342 C343 1.387 1_645 S
C342 H346 0.950 . S
C342 C351 1.390 . S
C343 C342 1.387 1_465 S
C343 C345 1.387 1_455 S
H344 C351 0.950 . S
C345 C343 1.387 1_655 S
C345 C347 1.390 . S
C345 H349 0.950 1_655 S
H346 C342 0.950 . S
C347 C345 1.390 . S
C347 C348 1.387 . S
C347 H350 0.950 . S
C348 C347 1.387 . S
C348 C351 1.387 1_565 S
H349 C345 0.950 1_455 S
H350 C347 0.950 . S
C351 C342 1.390 . S
C351 H344 0.950 . S
C351 C348 1.387 1_545 S
C352 C353 1.387 . S
C352 H356 0.950 . S
C352 C361 1.390 . S
C353 C352 1.387 . S
C353 C355 1.387 . S
H354 C361 0.950 . S
C355 C353 1.387 . S
C355 C357 1.390 . S
C355 H359 0.950 . S
H356 C352 0.950 . S
C357 C355 1.390 . S
C357 C358 1.387 . S
C357 H360 0.950 . S
C358 C357 1.387 . S
C358 C361 1.387 . S
H359 C355 0.950 . S
H360 C357 0.950 . S
C361 C352 1.390 . S
C361 H354 0.950 . S
C361 C358 1.387 . S
C362 C363 1.387 . S
C362 H366 0.950 . S
C362 C371 1.390 . S
C363 C362 1.387 . S
C363 C365 1.387 . S
H364 C371 0.950 . S
C365 C363 1.387 . S
C365 C367 1.390 . S
C365 H369 0.950 . S
H366 C362 0.950 . S
C367 C365 1.390 . S
C367 C368 1.387 . S
C367 H370 0.950 . S
C368 C367 1.387 . S
C368 C371 1.387 . S
H369 C365 0.950 . S
H370 C367 0.950 . S
C371 C362 1.390 . S
C371 H364 0.950 . S
C371 C368 1.387 . S
C372 C373 1.387 . S
C372 H376 0.950 . S
C372 C381 1.390 . S
C373 C372 1.387 . S
C373 C375 1.387 . S
H374 C381 0.950 . S
C375 C373 1.387 . S
C375 C377 1.390 . S
C375 H379 0.950 . S
H376 C372 0.950 . S
C377 C375 1.390 . S
C377 C378 1.387 . S
C377 H380 0.950 . S
C378 C377 1.387 . S
C378 C381 1.387 . S
H379 C375 0.950 . S
H380 C377 0.950 . S
C381 C372 1.390 . S
C381 H374 0.950 . S
C381 C378 1.387 . S
C382 C383 1.387 . S
C382 H386 0.950 . S
C382 C391 1.390 . S
C383 C382 1.387 . S
C383 C385 1.387 1_565 S
H384 C391 0.950 . S
C385 C383 1.387 1_545 S
C385 C387 1.390 . S
C385 H389 0.950 . S
H386 C382 0.950 . S
C387 C385 1.390 . S
C387 C388 1.387 1_545 S
C387 H390 0.950 . S
C388 C387 1.387 1_565 S
C388 C391 1.387 . S
H389 C385 0.950 . S
H390 C387 0.950 . S
C391 C382 1.390 . S
C391 H384 0.950 . S
C391 C388 1.387 . S
C392 C393 1.387 . S
C392 H396 0.950 . S
C392 C401 1.390 . S
C393 C392 1.387 . S
C393 C395 1.387 . S
H394 C401 0.950 . S
C395 C393 1.387 . S
C395 C397 1.390 . S
C395 H399 0.950 . S
H396 C392 0.950 . S
C397 C395 1.390 . S
C397 C398 1.387 . S
C397 H400 0.950 . S
C398 C397 1.387 . S
C398 C401 1.387 . S
H399 C395 0.950 . S
H400 C397 0.950 . S
C401 C392 1.390 . S
C401 H394 0.950 . S
C401 C398 1.387 . S
C402 C403 1.387 . S
C402 H406 0.950 . S
C402 C411 1.390 . S
C403 C402 1.387 . S
C403 C405 1.387 . S
H404 C411 0.950 . S
C405 C403 1.387 . S
C405 C407 1.390 . S
C405 H409 0.950 . S
H406 C402 0.950 . S
C407 C405 1.390 . S
C407 C408 1.387 . S
C407 H410 0.950 . S
C408 C407 1.387 . S
C408 C411 1.387 . S
H409 C405 0.950 . S
H410 C407 0.950 . S
C411 C402 1.390 . S
C411 H404 0.950 . S
C411 C408 1.387 . S
C412 C413 1.387 . S
C412 H416 0.950 . S
C412 C421 1.390 . S
C413 C412 1.387 . S
C413 C415 1.387 . S
H414 C421 0.950 . S
C415 C413 1.387 . S
C415 C417 1.390 . S
C415 H419 0.950 . S
H416 C412 0.950 . S
C417 C415 1.390 . S
C417 C418 1.387 . S
C417 H420 0.950 . S
C418 C417 1.387 . S
C418 C421 1.387 . S
H419 C415 0.950 . S
H420 C417 0.950 . S
C421 C412 1.390 . S
C421 H414 0.950 . S
C421 C418 1.387 . S
C422 C423 1.387 . S
C422 H426 0.950 . S
C422 C431 1.390 . S
C423 C422 1.387 . S
C423 C425 1.387 . S
H424 C431 0.950 . S
C425 C423 1.387 . S
C425 C427 1.390 . S
C425 H429 0.950 . S
H426 C422 0.950 . S
C427 C425 1.390 . S
C427 C428 1.387 . S
C427 H430 0.950 . S
C428 C427 1.387 . S
C428 C431 1.387 . S
H429 C425 0.950 . S
H430 C427 0.950 . S
C431 C422 1.390 . S
C431 H424 0.950 . S
C431 C428 1.387 . S
C432 C433 1.387 . S
C432 H436 0.950 . S
C432 C441 1.390 . S
C433 C432 1.387 . S
C433 C435 1.387 . S
H434 C441 0.950 . S
C435 C433 1.387 . S
C435 C437 1.390 . S
C435 H439 0.950 . S
H436 C432 0.950 . S
C437 C435 1.390 . S
C437 C438 1.387 . S
C437 H440 0.950 . S
C438 C437 1.387 . S
C438 C441 1.387 . S
H439 C435 0.950 . S
H440 C437 0.950 . S
C441 C432 1.390 . S
C441 H434 0.950 . S
C441 C438 1.387 . S
C442 C443 1.387 . S
C442 H446 0.950 . S
C442 C451 1.390 . S
C443 C442 1.387 . S
C443 C445 1.387 . S
H444 C451 0.950 1_655 S
C445 C443 1.387 . S
C445 C447 1.390 . S
C445 H449 0.950 . S
H446 C442 0.950 . S
C447 C445 1.390 . S
C447 C448 1.387 . S
C447 H450 0.950 . S
C448 C447 1.387 . S
C448 C451 1.387 . S
H449 C445 0.950 . S
H450 C447 0.950 . S
C451 C442 1.390 . S
C451 H444 0.950 1_455 S
C451 C448 1.387 . S
C452 C453 1.387 . S
C452 H456 0.950 . S
C452 C461 1.390 . S
C453 C452 1.387 . S
C453 C455 1.387 . S
H454 C461 0.950 . S
C455 C453 1.387 . S
C455 C457 1.390 . S
C455 H459 0.950 . S
H456 C452 0.950 . S
C457 C455 1.390 . S
C457 C458 1.387 . S
C457 H460 0.950 . S
C458 C457 1.387 . S
C458 C461 1.387 . S
H459 C455 0.950 . S
H460 C457 0.950 . S
C461 C452 1.390 . S
C461 H454 0.950 . S
C461 C458 1.387 . S
C462 C463 1.387 . S
C462 H466 0.950 . S
C462 C471 1.390 . S
C463 C462 1.387 . S
C463 C465 1.387 . S
H464 C471 0.950 . S
C465 C463 1.387 . S
C465 C467 1.389 1_655 S
C465 H469 0.950 1_655 S
H466 C462 0.950 . S
C467 C465 1.389 1_455 S
C467 C468 1.376 1_455 S
C467 H470 0.963 . S
C468 C467 1.376 1_655 S
C468 C471 1.387 . S
H469 C465 0.950 1_455 S
H470 C467 0.963 . S
C471 C462 1.390 . S
C471 H464 0.950 . S
C471 C468 1.387 . S
C472 C473 1.387 . S
C472 H476 0.950 . S
C472 C481 1.390 . S
C473 C472 1.387 . S
C473 C475 1.387 . S
H474 C481 0.950 . S
C475 C473 1.387 . S
C475 C477 1.390 . S
C475 H479 0.950 . S
H476 C472 0.950 . S
C477 C475 1.390 . S
C477 C478 1.387 . S
C477 H480 0.950 . S
C478 C477 1.387 . S
C478 C481 1.387 . S
H479 C475 0.950 . S
H480 C477 0.950 . S
C481 C472 1.390 . S
C481 H474 0.950 . S
C481 C478 1.387 . S
C482 C483 1.387 . S
C482 H486 0.950 . S
C482 C491 1.390 . S
C483 C482 1.387 . S
C483 C485 1.387 . S
H484 C491 0.950 . S
C485 C483 1.387 . S
C485 C487 1.390 . S
C485 H489 0.950 . S
H486 C482 0.950 . S
C487 C485 1.390 . S
C487 C488 1.387 . S
C487 H490 0.950 . S
C488 C487 1.387 . S
C488 C491 1.387 . S
H489 C485 0.950 . S
H490 C487 0.950 . S
C491 C482 1.390 . S
C491 H484 0.950 . S
C491 C488 1.387 . S
C492 C493 1.387 . S
C492 H496 0.950 1_565 S
C492 C501 1.390 . S
C493 C492 1.387 . S
C493 C495 1.387 . S
H494 C501 0.950 . S
C495 C493 1.387 . S
C495 C497 1.390 . S
C495 H499 0.950 . S
H496 C492 0.950 1_545 S
C497 C495 1.390 . S
C497 C498 1.387 . S
C497 H500 0.950 1_556 S
C498 C497 1.387 . S
C498 C501 1.387 . S
H499 C495 0.950 . S
H500 C497 0.950 1_554 S
C501 C492 1.390 . S
C501 H494 0.950 . S
C501 C498 1.387 . S
C502 C503 1.387 . S
C502 H506 0.950 . S
C502 C511 1.390 . S
C503 C502 1.387 . S
C503 C505 1.387 . S
H504 C511 0.950 . S
C505 C503 1.387 . S
C505 C507 1.390 . S
C505 H509 0.950 . S
H506 C502 0.950 . S
C507 C505 1.390 . S
C507 C508 1.387 . S
C507 H510 0.950 . S
C508 C507 1.387 . S
C508 C511 1.387 . S
H509 C505 0.950 . S
H510 C507 0.950 . S
C511 C502 1.390 . S
C511 H504 0.950 . S
C511 C508 1.387 . S
C512 C513 1.387 . S
C512 H516 0.950 . S
C512 C521 1.390 . S
C513 C512 1.387 . S
C513 C515 1.387 . S
H514 C521 0.950 . S
C515 C513 1.387 . S
C515 C517 1.390 . S
C515 H519 0.950 . S
H516 C512 0.950 . S
C517 C515 1.390 . S
C517 C518 1.387 . S
C517 H520 0.950 . S
C518 C517 1.387 . S
C518 C521 1.387 . S
H519 C515 0.950 . S
H520 C517 0.950 . S
C521 C512 1.390 . S
C521 H514 0.950 . S
C521 C518 1.387 . S
C522 C523 1.387 . S
C522 H526 0.950 . S
C522 C531 1.390 . S
C523 C522 1.387 . S
C523 C525 1.387 . S
H524 C531 0.950 . S
C525 C523 1.387 . S
C525 C527 1.390 . S
C525 H529 0.950 . S
H526 C522 0.950 . S
C527 C525 1.390 . S
C527 C528 1.387 . S
C527 H530 0.950 . S
C528 C527 1.387 . S
C528 C531 1.387 . S
H529 C525 0.950 . S
H530 C527 0.950 . S
C531 C522 1.390 . S
C531 H524 0.950 . S
C531 C528 1.387 . S
C532 C533 1.387 . S
C532 H536 0.950 . S
C532 C541 1.390 . S
C533 C532 1.387 . S
C533 C535 1.387 . S
H534 C541 0.950 . S
C535 C533 1.387 . S
C535 C537 1.390 . S
C535 H539 0.950 . S
H536 C532 0.950 . S
C537 C535 1.390 . S
C537 C538 1.387 . S
C537 H540 0.950 . S
C538 C537 1.387 . S
C538 C541 1.387 . S
H539 C535 0.950 . S
H540 C537 0.950 . S
C541 C532 1.390 . S
C541 H534 0.950 . S
C541 C538 1.387 . S
C542 C543 1.387 . S
C542 H546 0.950 . S
C542 C551 1.390 . S
C543 C542 1.387 . S
C543 C545 1.387 . S
H544 C551 0.950 . S
C545 C543 1.387 . S
C545 C547 1.390 . S
C545 H549 0.950 . S
H546 C542 0.950 . S
C547 C545 1.390 . S
C547 C548 1.387 . S
C547 H550 0.950 . S
C548 C547 1.387 . S
C548 C551 1.387 . S
H549 C545 0.950 . S
H550 C547 0.950 . S
C551 C542 1.390 . S
C551 H544 0.950 . S
C551 C548 1.387 . S
C552 C553 1.387 . S
C552 H556 0.950 . S
C552 C561 1.390 . S
C553 C552 1.387 . S
C553 C555 1.387 . S
H554 C561 0.950 . S
C555 C553 1.387 . S
C555 C557 1.390 . S
C555 H559 0.950 . S
H556 C552 0.950 . S
C557 C555 1.390 . S
C557 C558 1.387 . S
C557 H560 0.950 . S
C558 C557 1.387 . S
C558 C561 1.387 . S
H559 C555 0.950 . S
H560 C557 0.950 . S
C561 C552 1.390 . S
C561 H554 0.950 . S
C561 C558 1.387 . S
C562 C563 1.387 . S
C562 H566 0.950 . S
C562 C571 1.390 . S
C563 C562 1.387 . S
C563 C565 1.387 1_545 S
H564 C571 0.950 . S
C565 C563 1.387 1_565 S
C565 C567 1.390 . S
C565 H569 0.950 . S
H566 C562 0.950 . S
C567 C565 1.390 . S
C567 C568 1.387 1_565 S
C567 H570 0.950 . S
C568 C567 1.387 1_545 S
C568 C571 1.387 . S
H569 C565 0.950 . S
H570 C567 0.950 . S
C571 C562 1.390 . S
C571 H564 0.950 . S
C571 C568 1.387 . S
C572 C573 1.387 . S
C572 H576 0.950 . S
C572 C581 1.390 . S
C573 C572 1.387 . S
C573 C575 1.387 . S
H574 C581 0.950 . S
C575 C573 1.387 . S
C575 C577 1.390 . S
C575 H579 0.950 . S
H576 C572 0.950 . S
C577 C575 1.390 . S
C577 C578 1.387 . S
C577 H580 0.950 . S
C578 C577 1.387 . S
C578 C581 1.387 . S
H579 C575 0.950 . S
H580 C577 0.950 . S
C581 C572 1.390 . S
C581 H574 0.950 . S
C581 C578 1.387 . S
C582 C583 1.387 . S
C582 H586 0.950 . S
C582 C591 1.390 . S
C583 C582 1.387 . S
C583 C585 1.387 . S
H584 C591 0.950 . S
C585 C583 1.387 . S
C585 C587 1.390 . S
C585 H589 0.950 . S
H586 C582 0.950 . S
C587 C585 1.390 . S
C587 C588 1.387 . S
C587 H590 0.950 . S
C588 C587 1.387 . S
C588 C591 1.387 . S
H589 C585 0.950 . S
H590 C587 0.950 . S
C591 C582 1.390 . S
C591 H584 0.950 . S
C591 C588 1.387 . S
C592 C593 1.387 . S
C592 H596 0.950 . S
C592 C601 1.390 . S
C593 C592 1.387 . S
C593 C595 1.387 . S
H594 C601 0.950 . S
C595 C593 1.387 . S
C595 C597 1.390 . S
C595 H599 0.950 . S
H596 C592 0.950 . S
C597 C595 1.390 . S
C597 C598 1.387 . S
C597 H600 0.950 . S
C598 C597 1.387 . S
C598 C601 1.387 . S
H599 C595 0.950 . S
H600 C597 0.950 . S
C601 C592 1.390 . S
C601 H594 0.950 . S
C601 C598 1.387 . S
C602 C603 1.387 1_565 S
C602 H606 0.950 . S
C602 C611 1.390 . S
C603 C602 1.387 1_545 S
C603 C605 1.387 . S
H604 C611 0.950 . S
C605 C603 1.387 . S
C605 C607 1.390 . S
C605 H609 0.950 . S
H606 C602 0.950 . S
C607 C605 1.390 . S
C607 C608 1.387 . S
C607 H610 0.950 . S
C608 C607 1.387 . S
C608 C611 1.387 1_545 S
H609 C605 0.950 . S
H610 C607 0.950 . S
C611 C602 1.390 . S
C611 H604 0.950 . S
C611 C608 1.387 1_565 S
C612 C613 1.387 . S
C612 H616 0.950 . S
C612 C621 1.390 . S
C613 C612 1.387 . S
C613 C615 1.387 . S
H614 C621 0.950 . S
C615 C613 1.387 . S
C615 C617 1.390 . S
C615 H619 0.950 . S
H616 C612 0.950 . S
C617 C615 1.390 . S
C617 C618 1.387 . S
C617 H620 0.950 . S
C618 C617 1.387 . S
C618 C621 1.387 . S
H619 C615 0.950 . S
H620 C617 0.950 . S
C621 C612 1.390 . S
C621 H614 0.950 . S
C621 C618 1.387 . S
C622 C623 1.387 . S
C622 H626 0.950 . S
C622 C631 1.390 . S
C623 C622 1.387 . S
C623 C625 1.387 . S
H624 C631 0.950 . S
C625 C623 1.387 . S
C625 C627 1.390 . S
C625 H629 0.950 . S
H626 C622 0.950 . S
C627 C625 1.390 . S
C627 C628 1.387 . S
C627 H630 0.950 . S
C628 C627 1.387 . S
C628 C631 1.387 . S
H629 C625 0.950 . S
H630 C627 0.950 . S
C631 C622 1.390 . S
C631 H624 0.950 . S
C631 C628 1.387 . S
C632 C633 1.387 . S
C632 H636 0.950 . S
C632 C641 1.390 . S
C633 C632 1.387 . S
C633 C635 1.387 . S
H634 C641 0.950 . S
C635 C633 1.387 . S
C635 C637 1.390 . S
C635 H639 0.950 . S
H636 C632 0.950 . S
C637 C635 1.390 . S
C637 C638 1.387 . S
C637 H640 0.950 . S
C638 C637 1.387 . S
C638 C641 1.387 . S
H639 C635 0.950 . S
H640 C637 0.950 . S
C641 C632 1.390 . S
C641 H634 0.950 . S
C641 C638 1.387 . S
C642 C643 1.383 1_454 S
C642 H646 0.950 . S
C642 C651 1.390 1_554 S
C643 C642 1.383 1_656 S
C643 C645 1.402 . S
H644 C651 0.950 . S
C645 C643 1.402 . S
C645 C647 1.390 . S
C645 H649 0.950 . S
H646 C642 0.950 . S
C647 C645 1.390 . S
C647 C648 1.387 . S
C647 H650 0.950 . S
C648 C647 1.387 . S
C648 C651 1.387 1_655 S
H649 C645 0.950 . S
H650 C647 0.950 . S
C651 C642 1.390 1_556 S
C651 H644 0.950 . S
C651 C648 1.387 1_455 S
C652 C653 1.387 . S
C652 H656 0.950 . S
C652 C661 1.390 . S
C653 C652 1.387 . S
C653 C655 1.387 . S
H654 C661 0.950 . S
C655 C653 1.387 . S
C655 C657 1.390 . S
C655 H659 0.950 . S
H656 C652 0.950 . S
C657 C655 1.390 . S
C657 C658 1.387 . S
C657 H660 0.950 . S
C658 C657 1.387 . S
C658 C661 1.387 . S
H659 C655 0.950 . S
H660 C657 0.950 . S
C661 C652 1.390 . S
C661 H654 0.950 . S
C661 C658 1.387 . S
C662 C663 1.387 1_655 S
C662 H666 0.950 1_556 S
C662 C671 1.390 . S
C663 C662 1.387 1_455 S
C663 C665 1.387 . S
H664 C671 0.950 . S
C665 C663 1.387 . S
C665 C667 1.390 . S
C665 H669 0.950 . S
H666 C662 0.950 1_554 S
C667 C665 1.390 . S
C667 C668 1.387 . S
C667 H670 0.950 . S
C668 C667 1.387 . S
C668 C671 1.387 1_455 S
H669 C665 0.950 . S
H670 C667 0.950 . S
C671 C662 1.390 . S
C671 H664 0.950 . S
C671 C668 1.387 1_655 S
C672 C673 1.387 . S
C672 H676 0.950 . S
C672 C681 1.390 . S
C673 C672 1.387 . S
C673 C675 1.387 . S
H674 C681 0.950 . S
C675 C673 1.387 . S
C675 C677 1.390 . S
C675 H679 0.950 . S
H676 C672 0.950 . S
C677 C675 1.390 . S
C677 C678 1.387 . S
C677 H680 0.950 . S
C678 C677 1.387 . S
C678 C681 1.387 . S
H679 C675 0.950 . S
H680 C677 0.950 . S
C681 C672 1.390 . S
C681 H674 0.950 . S
C681 C678 1.387 . S
C682 C683 1.387 . S
C682 H686 0.950 . S
C682 C691 1.390 . S
C683 C682 1.387 . S
C683 C685 1.387 . S
H684 C691 0.950 . S
C685 C683 1.387 . S
C685 C687 1.390 . S
C685 H689 0.950 1_554 S
H686 C682 0.950 . S
C687 C685 1.390 . S
C687 C688 1.387 . S
C687 H690 0.950 . S
C688 C687 1.387 . S
C688 C691 1.387 . S
H689 C685 0.950 1_556 S
H690 C687 0.950 . S
C691 C682 1.390 . S
C691 H684 0.950 . S
C691 C688 1.387 . S
C692 C693 1.387 . S
C692 H696 0.950 . S
C692 C701 1.390 . S
C693 C692 1.387 . S
C693 C695 1.387 . S
H694 C701 0.950 . S
C695 C693 1.387 . S
C695 C697 1.390 . S
C695 H699 0.950 . S
H696 C692 0.950 . S
C697 C695 1.390 . S
C697 C698 1.387 . S
C697 H700 0.950 . S
C698 C697 1.387 . S
C698 C701 1.387 . S
H699 C695 0.950 . S
H700 C697 0.950 . S
C701 C692 1.390 . S
C701 H694 0.950 . S
C701 C698 1.387 . S
C702 C703 1.387 . S
C702 H706 0.950 1_554 S
C702 C711 1.390 . S
C703 C702 1.387 . S
C703 C705 1.387 . S
H704 C711 0.950 . S
C705 C703 1.387 . S
C705 C707 1.390 . S
C705 H709 0.950 . S
H706 C702 0.950 1_556 S
C707 C705 1.390 . S
C707 C708 1.387 . S
C707 H710 0.950 . S
C708 C707 1.387 . S
C708 C711 1.387 . S
H709 C705 0.950 . S
H710 C707 0.950 . S
C711 C702 1.390 . S
C711 H704 0.950 . S
C711 C708 1.387 . S
C712 C713 1.387 . S
C712 H716 0.950 . S
C712 C721 1.390 . S
C713 C712 1.387 . S
C713 C715 1.387 . S
H714 C721 0.950 . S
C715 C713 1.387 . S
C715 C717 1.390 . S
C715 H719 0.950 . S
H716 C712 0.950 . S
C717 C715 1.390 . S
C717 C718 1.387 . S
C717 H720 0.950 . S
C718 C717 1.387 . S
C718 C721 1.387 . S
H719 C715 0.950 . S
H720 C717 0.950 . S
C721 C712 1.390 . S
C721 H714 0.950 . S
C721 C718 1.387 . S
C722 C723 1.387 . S
C722 H726 0.950 . S
C722 C731 1.390 . S
C723 C722 1.387 . S
C723 C725 1.387 . S
H724 C731 0.950 . S
C725 C723 1.387 . S
C725 C727 1.390 . S
C725 H729 0.950 . S
H726 C722 0.950 . S
C727 C725 1.390 . S
C727 C728 1.387 . S
C727 H730 0.950 . S
C728 C727 1.387 . S
C728 C731 1.387 . S
H729 C725 0.950 . S
H730 C727 0.950 . S
C731 C722 1.390 . S
C731 H724 0.950 . S
C731 C728 1.387 . S
C732 C733 1.387 . S
C732 H736 0.950 . S
C732 C741 1.390 . S
C733 C732 1.387 . S
C733 C735 1.387 . S
H734 C741 0.950 . S
C735 C733 1.387 . S
C735 C737 1.390 . S
C735 H739 0.950 . S
H736 C732 0.950 . S
C737 C735 1.390 . S
C737 C738 1.387 . S
C737 H740 0.950 . S
C738 C737 1.387 . S
C738 C741 1.387 . S
H739 C735 0.950 . S
H740 C737 0.950 . S
C741 C732 1.390 . S
C741 H734 0.950 . S
C741 C738 1.387 . S
C742 C743 1.387 . S
C742 H746 0.950 . S
C742 C751 1.390 . S
C743 C742 1.387 . S
C743 C745 1.387 . S
H744 C751 0.950 . S
C745 C743 1.387 . S
C745 C747 1.390 . S
C745 H749 0.950 . S
H746 C742 0.950 . S
C747 C745 1.390 . S
C747 C748 1.387 . S
C747 H750 0.950 . S
C748 C747 1.387 . S
C748 C751 1.387 . S
H749 C745 0.950 . S
H750 C747 0.950 . S
C751 C742 1.390 . S
C751 H744 0.950 . S
C751 C748 1.387 . S
C752 C753 1.387 1_554 S
C752 H756 0.950 . S
C752 C761 1.390 . S
C753 C752 1.387 1_556 S
C753 C755 1.387 . S
H754 C761 0.950 . S
C755 C753 1.387 . S
C755 C757 1.390 . S
C755 H759 0.950 . S
H756 C752 0.950 . S
C757 C755 1.390 . S
C757 C758 1.387 . S
C757 H760 0.950 . S
C758 C757 1.387 . S
C758 C761 1.387 1_556 S
H759 C755 0.950 . S
H760 C757 0.950 . S
C761 C752 1.390 . S
C761 H754 0.950 . S
C761 C758 1.387 1_554 S
C762 C763 1.387 . S
C762 H766 0.950 . S
C762 C771 1.390 . S
C763 C762 1.387 . S
C763 C765 1.387 . S
H764 C771 0.950 . S
C765 C763 1.387 . S
C765 C767 1.390 . S
C765 H769 0.950 . S
H766 C762 0.950 . S
C767 C765 1.390 . S
C767 C768 1.387 . S
C767 H770 0.950 . S
C768 C767 1.387 . S
C768 C771 1.387 . S
H769 C765 0.950 . S
H770 C767 0.950 . S
C771 C762 1.390 . S
C771 H764 0.950 . S
C771 C768 1.387 . S
C772 C773 1.387 . S
C772 H776 0.950 . S
C772 C781 1.390 . S
C773 C772 1.387 . S
C773 C775 1.387 . S
H774 C781 0.950 . S
C775 C773 1.387 . S
C775 C777 1.390 1_554 S
C775 H779 0.950 1_554 S
H776 C772 0.950 . S
C777 C775 1.390 1_556 S
C777 C778 1.388 1_556 S
C777 H780 0.949 . S
C778 C777 1.388 1_554 S
C778 C781 1.387 . S
H779 C775 0.950 1_556 S
H780 C777 0.949 . S
C781 C772 1.390 . S
C781 H774 0.950 . S
C781 C778 1.387 . S
C782 C783 1.387 . S
C782 H786 0.950 . S
C782 C791 1.390 . S
C783 C782 1.387 . S
C783 C785 1.387 1_554 S
H784 C791 0.950 . S
C785 C783 1.387 1_556 S
C785 C787 1.390 . S
C785 H789 0.950 . S
H786 C782 0.950 . S
C787 C785 1.390 . S
C787 C788 1.387 1_556 S
C787 H790 0.950 . S
C788 C787 1.387 1_554 S
C788 C791 1.387 . S
H789 C785 0.950 . S
H790 C787 0.950 . S
C791 C782 1.390 . S
C791 H784 0.950 . S
C791 C788 1.387 . S
C318 C155 1.466 . S
C313 C50 1.485 . S
C328 C163 1.262 . S
C323 C61 1.519 1_455 S
C333 C67 1.458 . S
C338 C183 1.435 . S
C348 C197 1.488 . S
C343 C41 1.510 . S
C358 C212 1.514 . S
C353 C95 1.516 . S
C368 C226 1.510 . S
C363 C113 1.506 . S
C373 C106 1.540 . S
C378 C240 1.540 . S
C388 C246 1.446 . S
C383 C86 1.490 . S
C393 C104 1.514 . S
C398 C260 1.480 . S
C408 C281 1.509 . S
C403 C88 1.534 . S
C413 C94 1.488 . S
C418 C261 1.251 . S
C428 C282 1.514 . S
C423 C112 1.512 . S
C433 C70 1.481 . S
C438 C289 1.222 . S
C443 C40 1.507 . S
C448 C295 1.490 . S
C453 C49 1.510 . S
C458 C288 1.469 . S
C463 C59 1.488 . S
C468 C296 1.490 . S
C473 C34 1.497 . S
C478 C190 1.454 . S
C483 C133 1.496 . S
C488 C191 1.256 . S
C498 C148 1.495 . S
C493 C139 1.540 1_565 S
C508 C169 1.453 . S
C503 C77 1.479 . S
C513 C43 1.485 1_545 S
C518 C204 1.447 . S
C528 C254 1.520 . S
C523 C103 1.520 . S
C538 C205 1.234 . S
C533 C85 1.477 1_545 S
C548 C233 1.252 . S
C543 C115 1.521 . S
C558 C239 1.464 . S
C553 C131 1.485 . S
C563 C142 1.519 . S
C568 C247 1.262 . S
C573 C76 1.459 . S
C578 C211 1.435 . S
C588 C225 1.488 . S
C583 C122 1.509 . S
C593 C32 1.516 . S
C598 C184 1.514 . S
C608 C198 1.510 . S
C603 C5 1.506 1_655 S
C618 C156 1.540 . S
C613 C16 1.540 . S
C628 C162 1.446 . S
C623 C23 1.490 . S
C633 C14 1.515 . S
C638 C274 1.478 . S
C643 C25 1.524 1_556 S
C648 C267 1.508 . S
C653 C31 1.488 . S
C658 C275 1.251 . S
C663 C4 1.512 1_556 S
C668 C268 1.514 . S
C678 C303 1.222 . S
C673 C79 1.481 . S
C688 C309 1.490 . S
C683 C121 1.507 1_554 S
C698 C302 1.467 . S
C693 C130 1.509 . S
C703 C140 1.488 1_554 S
C708 C310 1.490 . S
C713 C97 1.497 . S
C718 C218 1.457 . S
C728 C219 1.256 . S
C723 C52 1.496 . S
C738 C232 1.497 . S
C733 C58 1.540 . S
C748 C253 1.454 . S
C743 C68 1.479 . S
C753 C124 1.485 . S
C758 C176 1.447 1_556 S
C768 C170 1.520 . S
C763 C13 1.520 . S
C773 C22 1.477 . S
C778 C177 1.234 . S
C788 C149 1.246 . S
C783 C7 1.520 1_565 S
