# Generated by pormake.
# Topology anh, (6,3)-cn, num edge types: 1
# Building blocks:
#     Node 0, Type 0, BuildingBlock: BETDEL_clean_sbu_0, # of connection points: 6
#     Node 1, Type 0, BuildingBlock: BETDEL_clean_sbu_0, # of connection points: 6
#     Node 2, Type 0, BuildingBlock: BETDEL_clean_sbu_0, # of connection points: 6
#     Node 3, Type 1, BuildingBlock: CUQRIR_clean_linker_1, # of connection points: 3
#     Node 4, Type 1, BuildingBlock: CUQRIR_clean_linker_1, # of connection points: 3
#     Node 5, Type 1, BuildingBlock: CUQRIR_clean_linker_1, # of connection points: 3
#     Node 6, Type 1, BuildingBlock: CUQRIR_clean_linker_1, # of connection points: 3
#     Node 7, Type 1, BuildingBlock: CUQRIR_clean_linker_1, # of connection points: 3
#     Node 8, Type 1, BuildingBlock: CUQRIR_clean_linker_1, # of connection points: 3
#     Edge 9, Type (0, 1), BuildingBlock: UVAHIK_clean_linker_0, # of connection points: 2
#     Edge 10, Type (0, 1), BuildingBlock: UVAHIK_clean_linker_0, # of connection points: 2
#     Edge 11, Type (0, 1), BuildingBlock: UVAHIK_clean_linker_0, # of connection points: 2
#     Edge 12, Type (0, 1), BuildingBlock: UVAHIK_clean_linker_0, # of connection points: 2
#     Edge 13, Type (0, 1), BuildingBlock: UVAHIK_clean_linker_0, # of connection points: 2
#     Edge 14, Type (0, 1), BuildingBlock: UVAHIK_clean_linker_0, # of connection points: 2
#     Edge 15, Type (0, 1), BuildingBlock: UVAHIK_clean_linker_0, # of connection points: 2
#     Edge 16, Type (0, 1), BuildingBlock: UVAHIK_clean_linker_0, # of connection points: 2
#     Edge 17, Type (0, 1), BuildingBlock: UVAHIK_clean_linker_0, # of connection points: 2
#     Edge 18, Type (0, 1), BuildingBlock: UVAHIK_clean_linker_0, # of connection points: 2
#     Edge 19, Type (0, 1), BuildingBlock: UVAHIK_clean_linker_0, # of connection points: 2
#     Edge 20, Type (0, 1), BuildingBlock: UVAHIK_clean_linker_0, # of connection points: 2
#     Edge 21, Type (0, 1), BuildingBlock: UVAHIK_clean_linker_0, # of connection points: 2
#     Edge 22, Type (0, 1), BuildingBlock: UVAHIK_clean_linker_0, # of connection points: 2
#     Edge 23, Type (0, 1), BuildingBlock: UVAHIK_clean_linker_0, # of connection points: 2
#     Edge 24, Type (0, 1), BuildingBlock: UVAHIK_clean_linker_0, # of connection points: 2
#     Edge 25, Type (0, 1), BuildingBlock: UVAHIK_clean_linker_0, # of connection points: 2
#     Edge 26, Type (0, 1), BuildingBlock: UVAHIK_clean_linker_0, # of connection points: 2
# Relax obj value: 0.118
# Max RMSD: 0.197
# Mean RMSD: 0.139
data_MOF--net-anh--node1-BETDEL_clean_sbu_0--node2-CUQRIR_clean_linker_1--edge1-UVAHIK_clean_linker_0
_symmetry_space_group_name_H-M    P1
_symmetry_Int_Tables_number       1
_symmetry_cell_setting            triclinic
loop_
_symmetry_equiv_pos_as_xyz
'x, y, z'
_cell_length_a     36.499126
_cell_length_b     36.504696
_cell_length_c     59.868923
_cell_angle_alpha  85.717156
_cell_angle_beta   89.560952
_cell_angle_gamma 119.9433
loop_
_atom_site_label
_atom_site_type_symbol
_atom_site_fract_x
_atom_site_fract_y
_atom_site_fract_z
_atom_type_partial_charge
Dy0 Dy 0.03262 0.47993 0.17476 0.0
C1 C 0.93939 0.5644 0.16425 0.0
C2 C 0.0831 0.44459 0.17497 0.0
Dy3 Dy 0.99081 0.53009 0.16734 0.0
O4 O 0.06807 0.45205 0.19262 0.0
O5 O 0.07079 0.45667 0.15702 0.0
O6 O 0.99457 0.44995 0.20704 0.0
O7 O 0.01509 0.51406 0.19723 0.0
C8 C 0.99363 0.48354 0.21185 0.0
C9 C 0.03182 0.52793 0.13056 0.0
O10 O 0.05175 0.58273 0.17806 0.0
O11 O 0.08857 0.5475 0.17287 0.0
O12 O 0.95638 0.55676 0.14749 0.0
O13 O 0.9506 0.55346 0.18297 0.0
O14 O 0.03173 0.56149 0.13615 0.0
O15 O 1.00901 0.49647 0.14452 0.0
O16 O 0.96951 0.42601 0.16708 0.0
O17 O 0.93471 0.46316 0.17213 0.0
C18 C 0.08798 0.58273 0.17649 0.0
C19 C 0.93395 0.42694 0.16972 0.0
Dy20 Dy 0.53512 0.056 0.50076 0.0
C21 C 0.71507 0.15331 0.51895 0.0
C22 C 0.4535 1.00501 0.49032 0.0
Dy23 Dy 0.63517 0.10639 0.5049 0.0
O24 O 0.46686 0.01028 0.51048 0.0
O25 O 0.48478 0.02774 0.47566 0.0
O26 O 0.52789 0.0759 0.53412 0.0
O27 O 0.57951 0.06701 0.52729 0.0
C28 C 0.56294 0.0794 0.54127 0.0
C29 C 0.61462 0.10262 0.46143 0.0
O30 O 0.62152 0.03904 0.5116 0.0
O31 O 0.55122 1.00351 0.50122 0.0
O32 O 0.70353 0.12421 0.50501 0.0
O33 O 0.68236 0.15545 0.52587 0.0
O34 O 0.65336 0.12201 0.46754 0.0
O35 O 0.5909 0.08764 0.47889 0.0
O36 O 0.549 0.12334 0.49344 0.0
O37 O 0.61645 0.15628 0.50761 0.0
C38 C 0.58643 1.00372 0.50726 0.0
C39 C 0.58258 0.15734 0.50031 0.0
Dy40 Dy 0.59385 0.66638 0.82898 0.0
C41 C 0.5241 0.4861 0.85746 0.0
C42 C 0.62182 0.7436 0.80599 0.0
Dy43 Dy 0.54641 0.5669 0.84112 0.0
O44 O 0.64192 0.73544 0.82164 0.0
O45 O 0.58685 0.70918 0.8025 0.0
O46 O 0.60226 0.68657 0.86435 0.0
O47 O 0.57168 0.62313 0.85852 0.0
C48 C 0.5834 0.64788 0.87375 0.0
C49 C 0.54833 0.59437 0.79795 0.0
O50 O 0.49577 0.58041 0.85201 0.0
O51 O 0.52386 0.64632 0.83134 0.0
O52 O 0.50971 0.49601 0.83964 0.0
O53 O 0.54975 0.52031 0.86665 0.0
O54 O 0.51706 0.55967 0.80772 0.0
O55 O 0.57797 0.61078 0.81111 0.0
O56 O 0.64973 0.65565 0.82667 0.0
O57 O 0.61474 0.58349 0.83914 0.0
C58 C 0.49211 0.613 0.84331 0.0
C59 C 0.64995 0.61992 0.83294 0.0
C60 C 0.50811 1.00465 0.19954 0.0
N61 N 0.53337 0.03403 0.21351 0.0
N62 N 0.47119 0.97466 0.21053 0.0
C63 C 0.51826 1.00652 0.175 0.0
C64 C 0.47504 0.98676 0.23161 0.0
N65 N 0.51238 0.02276 0.23338 0.0
C66 C 0.44338 0.96184 0.25089 0.0
H67 H 0.53653 0.03994 0.16762 0.0
H68 H 0.48895 0.98905 0.16585 0.0
H69 H 0.53795 0.99155 0.17294 0.0
H70 H 0.45944 0.96483 0.26688 0.0
H71 H 0.42436 0.92774 0.24806 0.0
H72 H 0.42164 0.97459 0.25254 0.0
C73 C 0.57918 0.57559 0.52911 0.0
N74 N 0.58072 0.60312 0.54376 0.0
N75 N 0.58311 0.54366 0.53991 0.0
C76 C 0.57639 0.58114 0.50421 0.0
C77 C 0.58692 0.55272 0.56159 0.0
N78 N 0.58583 0.58877 0.5639 0.0
C79 C 0.5891 0.52487 0.58078 0.0
H80 H 0.5426 0.56716 0.50029 0.0
H81 H 0.59001 0.56473 0.4953 0.0
H82 H 0.59311 0.61532 0.49809 0.0
H83 H 0.62281 0.53639 0.58413 0.0
H84 H 0.5743 0.49139 0.57674 0.0
H85 H 0.57306 0.52622 0.59626 0.0
C86 C 0.0657 0.60492 0.86418 0.0
N87 N 0.0881 0.59476 0.87908 0.0
N88 N 0.02747 0.59526 0.87359 0.0
C89 C 0.07963 0.62145 0.8401 0.0
C90 C 0.02752 0.57907 0.89467 0.0
N91 N 0.06382 0.5784 0.89793 0.0
C92 C 0.99289 0.56595 0.91254 0.0
H93 H 0.09945 0.65654 0.83905 0.0
H94 H 0.05195 0.61311 0.82971 0.0
H95 H 0.09881 0.60853 0.83332 0.0
H96 H 0.97051 0.53137 0.91259 0.0
H97 H 0.97513 0.58299 0.9093 0.0
H98 H 1.00599 0.57223 0.92938 0.0
C99 C 0.04655 0.60087 0.46599 0.0
N100 N 0.01901 0.56825 0.45449 0.0
N101 N 0.06266 0.63815 0.45303 0.0
C102 C 0.05919 0.59633 0.48945 0.0
C103 C 0.04358 0.6271 0.43341 0.0
N104 N 0.01681 0.58478 0.43435 0.0
C105 C 0.0538 0.65713 0.41266 0.0
H106 H 0.06774 0.62494 0.49826 0.0
H107 H 0.08736 0.59233 0.48862 0.0
H108 H 0.03319 0.56832 0.49936 0.0
H109 H 0.07483 0.6529 0.40094 0.0
H110 H 0.06982 0.69065 0.41672 0.0
H111 H 0.0245 0.64994 0.40401 0.0
C112 C 0.61474 0.14563 0.80669 0.0
N113 N 0.62225 0.13189 0.7877 0.0
N114 N 0.60613 0.17726 0.80163 0.0
C115 C 0.61209 0.12575 0.83 0.0
C116 C 0.60887 0.18236 0.77894 0.0
N117 N 0.6182 0.1545 0.77044 0.0
C118 C 0.60483 0.21629 0.76518 0.0
H119 H 0.59055 0.13001 0.84132 0.0
H120 H 0.64413 0.14132 0.83673 0.0
H121 H 0.60091 0.09138 0.82986 0.0
H122 H 0.61467 0.24444 0.77469 0.0
H123 H 0.57128 0.2037 0.76109 0.0
H124 H 0.62443 0.22613 0.74926 0.0
C125 C 0.50919 0.49967 0.14191 0.0
N126 N 0.54032 0.51962 0.12553 0.0
N127 N 0.47372 0.49937 0.13537 0.0
C128 C 0.51411 0.483 0.16475 0.0
C129 C 0.48426 0.5199 0.11457 0.0
N130 N 0.5249 0.53256 0.10868 0.0
C131 C 0.45434 0.52593 0.09965 0.0
H132 H 0.51029 0.45108 0.16367 0.0
H133 H 0.48986 0.48018 0.17713 0.0
H134 H 0.54614 0.50406 0.17064 0.0
H135 H 0.45927 0.55823 0.10094 0.0
H136 H 0.42087 0.50235 0.10472 0.0
H137 H 0.46074 0.52323 0.08188 0.0
C138 C 0.13317 0.42839 0.15547 0.0
C139 C 0.11373 0.42965 0.17544 0.0
C140 C 0.16686 0.42051 0.15616 0.0
C141 C 0.23334 0.39435 0.16183 0.0
H142 H 0.31838 0.47118 0.19985 0.0
C143 C 0.40783 0.43814 0.15185 0.0
C144 C 0.43399 0.48217 0.14763 0.0
C145 C 0.36661 0.42128 0.16096 0.0
C146 C 0.29477 0.44906 0.18941 0.0
H147 H 0.11161 0.42048 0.21173 0.0
H148 H 0.17046 0.4066 0.21294 0.0
H149 H 0.24592 0.45688 0.20407 0.0
H150 H 0.43968 0.54337 0.15033 0.0
H151 H 0.36779 0.51432 0.16654 0.0
H152 H 0.28314 0.38898 0.14615 0.0
C153 C 0.1601 0.41219 0.19678 0.0
C154 C 0.25319 0.44057 0.19192 0.0
C155 C 0.12645 0.42007 0.19608 0.0
C156 C 0.41964 0.50931 0.15364 0.0
C157 C 0.37879 0.49263 0.16299 0.0
C158 C 0.27497 0.40272 0.15938 0.0
C159 C 0.18157 0.41377 0.17685 0.0
C160 C 0.22248 0.41457 0.17751 0.0
C161 C 0.35152 0.44845 0.16621 0.0
C162 C 0.30636 0.43161 0.17251 0.0
H163 H 0.12378 0.43557 0.13935 0.0
H164 H 0.18305 0.42241 0.1405 0.0
H165 H 0.21017 0.3738 0.15068 0.0
H166 H 0.41875 0.41699 0.14713 0.0
H167 H 0.34616 0.38715 0.1633 0.0
C168 C 0.79093 0.19033 0.50582 0.0
C169 C 0.75913 0.18768 0.52034 0.0
C170 C 0.82905 0.22857 0.50165 0.0
C171 C 0.89577 0.33766 0.51777 0.0
H172 H 0.90177 0.37016 0.45402 0.0
C173 C 0.01673 0.50372 0.47249 0.0
C174 C 0.99609 0.52369 0.46205 0.0
C175 C 0.99379 0.46085 0.48057 0.0
C176 C 0.90079 0.36131 0.4718 0.0
H177 H 0.74396 0.22096 0.54393 0.0
H178 H 0.81091 0.28766 0.53691 0.0
H179 H 0.85391 0.29671 0.46869 0.0
H180 H 0.93599 0.51453 0.45115 0.0
H181 H 0.89605 0.43894 0.46433 0.0
H182 H 0.94215 0.40293 0.52076 0.0
C183 C 0.80628 0.2604 0.5286 0.0
C184 C 0.87373 0.31931 0.48018 0.0
C185 C 0.76794 0.22225 0.5326 0.0
C186 C 0.95252 0.49972 0.45905 0.0
C187 C 0.92978 0.45671 0.46664 0.0
C188 C 0.92355 0.37965 0.50928 0.0
C189 C 0.83612 0.26452 0.51216 0.0
C190 C 0.87018 0.30727 0.50331 0.0
C191 C 0.95014 0.43707 0.47767 0.0
C192 C 0.92535 0.39193 0.48631 0.0
H193 H 0.78504 0.16407 0.49622 0.0
H194 H 0.8518 0.23086 0.48909 0.0
H195 H 0.89346 0.32916 0.53566 0.0
H196 H 0.05054 0.52126 0.47438 0.0
H197 H 1.01013 0.44613 0.48882 0.0
C198 C 0.66837 0.82215 0.80433 0.0
C199 C 0.63246 0.78676 0.7972 0.0
C200 C 0.67439 0.8629 0.79958 0.0
C201 C 0.63662 0.92642 0.76612 0.0
H202 H 0.66225 0.989 0.81883 0.0
C203 C 0.60015 0.06152 0.77498 0.0
C204 C 0.62862 0.09632 0.78618 0.0
C205 C 0.60575 0.02651 0.77395 0.0
C206 C 0.65582 0.97242 0.8038 0.0
H207 H 0.57613 0.76624 0.7783 0.0
H208 H 0.5864 0.83736 0.77011 0.0
H209 H 0.66453 0.9235 0.82018 0.0
H210 H 0.68542 0.12279 0.80471 0.0
H211 H 0.69573 0.06165 0.80291 0.0
H212 H 0.62705 0.9751 0.74992 0.0
C213 C 0.6101 0.83381 0.77924 0.0
C214 C 0.65717 0.93481 0.80457 0.0
C215 C 0.60413 0.79303 0.78398 0.0
C216 C 0.66303 0.09595 0.79615 0.0
C217 C 0.66876 0.061 0.79512 0.0
C218 C 0.63535 0.96417 0.76533 0.0
C219 C 0.64455 0.86903 0.78764 0.0
C220 C 0.64705 0.91105 0.78585 0.0
C221 C 0.63996 0.02568 0.78416 0.0
C222 C 0.64436 0.9873 0.78428 0.0
H223 H 0.69084 0.8182 0.81446 0.0
H224 H 0.70167 0.88948 0.80592 0.0
H225 H 0.6291 0.90907 0.75134 0.0
H226 H 0.57314 0.06118 0.76741 0.0
H227 H 0.58258 0.9996 0.76571 0.0
C228 C 0.88318 0.57575 0.1808 0.0
C229 C 0.90679 0.57665 0.16197 0.0
C230 C 0.84738 0.57992 0.17805 0.0
C231 C 0.78701 0.60515 0.13548 0.0
H232 H 0.6897 0.51647 0.17116 0.0
C233 C 0.61575 0.57316 0.12526 0.0
C234 C 0.58368 0.53045 0.12719 0.0
C235 C 0.65731 0.58419 0.12983 0.0
C236 C 0.71654 0.54126 0.16097 0.0
H237 H 0.91382 0.58575 0.12567 0.0
H238 H 0.85129 0.59226 0.12082 0.0
H239 H 0.76013 0.53007 0.17961 0.0
H240 H 0.56932 0.46562 0.13406 0.0
H241 H 0.64216 0.48446 0.14162 0.0
H242 H 0.74293 0.6147 0.11612 0.0
C243 C 0.86026 0.58881 0.13771 0.0
C244 C 0.75703 0.54961 0.16609 0.0
C245 C 0.89597 0.58476 0.14047 0.0
C246 C 0.59379 0.49874 0.13275 0.0
C247 C 0.63527 0.50963 0.13723 0.0
C248 C 0.74639 0.59665 0.1303 0.0
C249 C 0.83471 0.58496 0.15642 0.0
C250 C 0.79269 0.58102 0.1531 0.0
C251 C 0.66731 0.55253 0.13634 0.0
C252 C 0.71067 0.56391 0.14268 0.0
H253 H 0.89112 0.56977 0.19756 0.0
H254 H 0.82872 0.57756 0.19281 0.0
H255 H 0.8139 0.6299 0.12532 0.0
H256 H 0.6082 0.59796 0.12118 0.0
H257 H 0.6812 0.61748 0.12909 0.0
C258 C 0.37733 0.95895 0.5019 0.0
C259 C 0.4099 0.97448 0.48514 0.0
C260 C 0.33666 0.92674 0.49796 0.0
C261 C 0.2683 0.86488 0.45293 0.0
H262 H 0.21019 0.77917 0.50271 0.0
C263 C 0.13624 0.69347 0.44322 0.0
C264 C 0.0992 0.67789 0.45688 0.0
C265 C 0.17171 0.73244 0.44644 0.0
C266 C 0.22585 0.80313 0.48876 0.0
H267 H 0.42576 0.96971 0.45098 0.0
H268 H 0.35523 0.91208 0.4443 0.0
H269 H 0.27687 0.84276 0.50843 0.0
H270 H 0.0695 0.6903 0.48439 0.0
H271 H 0.13259 0.7583 0.49079 0.0
H272 H 0.21795 0.82357 0.43307 0.0
C273 C 0.36046 0.92543 0.4603 0.0
C274 C 0.26399 0.83975 0.492 0.0
C275 C 0.40098 0.95831 0.46412 0.0
C276 C 0.09809 0.70168 0.47393 0.0
C277 C 0.1339 0.74041 0.47747 0.0
C278 C 0.2305 0.82787 0.44962 0.0
C279 C 0.32793 0.90868 0.47733 0.0
C280 C 0.28594 0.87101 0.47409 0.0
C281 C 0.1709 0.75615 0.46365 0.0
C282 C 0.20919 0.79659 0.46747 0.0
H283 H 0.38343 0.97129 0.5182 0.0
H284 H 0.31226 0.91555 0.51127 0.0
H285 H 0.28376 0.88852 0.43885 0.0
H286 H 0.13761 0.67529 0.43007 0.0
H287 H 0.20005 0.7437 0.43577 0.0
C288 C 0.54768 0.44033 0.87819 0.0
C289 C 0.52062 0.44441 0.86293 0.0
C290 C 0.5514 0.40393 0.87973 0.0
C291 C 0.58011 0.34658 0.86102 0.0
H292 H 0.48933 0.23181 0.8553 0.0
C293 C 0.61676 0.22013 0.8335 0.0
C294 C 0.59165 0.1972 0.81641 0.0
C295 C 0.60468 0.24369 0.84599 0.0
C296 C 0.51508 0.2637 0.85687 0.0
H297 H 0.4737 0.41254 0.83871 0.0
H298 H 0.47984 0.3488 0.84152 0.0
H299 H 0.47251 0.28558 0.86537 0.0
H300 H 0.53331 0.17822 0.79982 0.0
H301 H 0.51262 0.22005 0.82092 0.0
H302 H 0.62261 0.32581 0.85115 0.0
C303 C 0.49823 0.37361 0.85229 0.0
C304 C 0.5054 0.29439 0.86273 0.0
C305 C 0.49481 0.41016 0.8506 0.0
C306 C 0.55331 0.19622 0.81277 0.0
C307 C 0.5413 0.21977 0.82511 0.0
C308 C 0.58978 0.31604 0.85496 0.0
C309 C 0.5278 0.37085 0.8662 0.0
C310 C 0.53778 0.33645 0.8642 0.0
C311 C 0.56729 0.24465 0.84153 0.0
C312 C 0.55733 0.27456 0.85207 0.0
H313 H 0.5679 0.46629 0.88793 0.0
H314 H 0.57411 0.40245 0.89076 0.0
H315 H 0.60577 0.37885 0.86176 0.0
H316 H 0.64641 0.22108 0.83655 0.0
H317 H 0.62516 0.262 0.85872 0.0
C318 C 0.62008 0.95974 0.51913 0.0
C319 C 0.58594 0.96232 0.50998 0.0
C320 C 0.61925 0.92078 0.52209 0.0
C321 C 0.54532 0.80302 0.5251 0.0
H322 H 0.64943 0.80022 0.51765 0.0
C323 C 0.54852 0.64439 0.52725 0.0
C324 C 0.58114 0.64284 0.53881 0.0
C325 C 0.54867 0.68292 0.52313 0.0
C326 C 0.62006 0.80037 0.52001 0.0
H327 H 0.52419 0.92527 0.49652 0.0
H328 H 0.52311 0.85786 0.5012 0.0
H329 H 0.6506 0.86752 0.51153 0.0
H330 H 0.63961 0.68032 0.55489 0.0
H331 H 0.64005 0.74743 0.54786 0.0
H332 H 0.51483 0.73566 0.5334 0.0
C333 C 0.55031 0.88579 0.50658 0.0
C334 C 0.62072 0.83917 0.51654 0.0
C335 C 0.55105 0.92472 0.50373 0.0
C336 C 0.61401 0.68062 0.54602 0.0
C337 C 0.61438 0.71913 0.5418 0.0
C338 C 0.54463 0.76415 0.52845 0.0
C339 C 0.58434 0.88307 0.51587 0.0
C340 C 0.58342 0.84127 0.51916 0.0
C341 C 0.58167 0.72093 0.53033 0.0
C342 C 0.58205 0.76224 0.52609 0.0
H343 H 0.64744 0.98779 0.5243 0.0
H344 H 0.64584 0.92022 0.52964 0.0
H345 H 0.51596 0.80308 0.52767 0.0
H346 H 0.52263 0.61565 0.52168 0.0
H347 H 0.5231 0.68298 0.51411 0.0
C348 C 0.73054 0.65757 0.83053 0.0
C349 C 0.69102 0.61984 0.83359 0.0
C350 C 0.76861 0.65683 0.83285 0.0
C351 C 0.80897 0.58839 0.85907 0.0
H352 H 0.91083 0.66118 0.82166 0.0
C353 C 0.95256 0.56329 0.8641 0.0
C354 C 0.99313 0.59919 0.86394 0.0
C355 C 0.9174 0.56725 0.85851 0.0
C356 C 0.88279 0.64085 0.83241 0.0
H357 H 0.6613 0.55149 0.84076 0.0
H358 H 0.72674 0.55022 0.84439 0.0
H359 H 0.84687 0.66585 0.81573 0.0
H360 H 0.029 0.66734 0.85702 0.0
H361 H 0.96748 0.67466 0.84713 0.0
H362 H 0.84447 0.56347 0.87583 0.0
C363 C 0.72865 0.58065 0.84072 0.0
C364 C 0.846 0.64357 0.82901 0.0
C365 C 0.69084 0.58138 0.83845 0.0
C366 C 0.99811 0.63914 0.85703 0.0
C367 C 0.96278 0.64322 0.85144 0.0
C368 C 0.84553 0.58566 0.86243 0.0
C369 C 0.76821 0.61834 0.83833 0.0
C370 C 0.80832 0.61701 0.84216 0.0
C371 C 0.92164 0.60737 0.85268 0.0
C372 C 0.88298 0.61147 0.84903 0.0
H373 H 0.73212 0.68784 0.82683 0.0
H374 H 0.7983 0.68659 0.83097 0.0
H375 H 0.78117 0.56815 0.87 0.0
H376 H 0.94793 0.53214 0.8693 0.0
H377 H 0.88663 0.53873 0.85916 0.0
C378 C 0.1282 0.66003 0.18377 0.0
C379 C 0.12859 0.62312 0.17882 0.0
C380 C 0.16603 0.69808 0.18594 0.0
C381 C 0.28233 0.75501 0.17174 0.0
H382 H 0.28581 0.82458 0.2184 0.0
C383 C 0.43838 0.90463 0.19487 0.0
C384 C 0.43501 0.93847 0.2023 0.0
C385 C 0.40189 0.86663 0.19047 0.0
C386 C 0.28542 0.80604 0.20502 0.0
H387 H 0.16984 0.59792 0.17212 0.0
H388 H 0.23582 0.66423 0.17602 0.0
H389 H 0.2214 0.75793 0.21417 0.0
H390 H 0.39141 0.96006 0.20994 0.0
H391 H 0.32796 0.89474 0.20172 0.0
H392 H 0.34654 0.80337 0.16262 0.0
C393 C 0.20609 0.66378 0.17806 0.0
C394 C 0.24826 0.76752 0.20262 0.0
C395 C 0.16813 0.62556 0.17597 0.0
C396 C 0.39474 0.93433 0.20427 0.0
C397 C 0.35839 0.89663 0.1998 0.0
C398 C 0.3196 0.79373 0.17411 0.0
C399 C 0.20562 0.70062 0.18318 0.0
C400 C 0.24595 0.74144 0.18588 0.0
C401 C 0.36117 0.86168 0.19339 0.0
C402 C 0.32166 0.82003 0.19071 0.0
H403 H 0.09854 0.65967 0.186 0.0
H404 H 0.16418 0.72576 0.18954 0.0
H405 H 0.28178 0.73613 0.1585 0.0
H406 H 0.46907 0.90693 0.19349 0.0
H407 H 0.40554 0.84055 0.18571 0.0
C408 C 0.61738 0.23396 0.50855 0.0
C409 C 0.58205 0.19802 0.50119 0.0
C410 C 0.61668 0.27151 0.51087 0.0
C411 C 0.56089 0.33095 0.49459 0.0
H412 H 0.61336 0.39043 0.54657 0.0
C413 C 0.54947 0.47696 0.52093 0.0
C414 C 0.58452 0.50851 0.53103 0.0
C415 C 0.54865 0.43963 0.51557 0.0
C416 C 0.59909 0.37477 0.53174 0.0
H417 H 0.51836 0.17438 0.49004 0.0
H418 H 0.51712 0.24006 0.49415 0.0
H419 H 0.61237 0.32488 0.54068 0.0
H420 H 0.64683 0.52688 0.54242 0.0
H421 H 0.64623 0.4628 0.53265 0.0
H422 H 0.5476 0.38116 0.48574 0.0
C423 C 0.54557 0.23909 0.49801 0.0
C424 C 0.59846 0.33688 0.52837 0.0
C425 C 0.54623 0.20127 0.49572 0.0
C426 C 0.6194 0.5029 0.53473 0.0
C427 C 0.61873 0.46589 0.52934 0.0
C428 C 0.5616 0.36909 0.49795 0.0
C429 C 0.58063 0.27462 0.50594 0.0
C430 C 0.57974 0.3145 0.50964 0.0
C431 C 0.58294 0.43307 0.5202 0.0
C432 C 0.58111 0.39185 0.5165 0.0
H433 H 0.64575 0.23312 0.51282 0.0
H434 H 0.64466 0.29828 0.51656 0.0
H435 H 0.5464 0.31489 0.47989 0.0
H436 H 0.52202 0.48039 0.51812 0.0
H437 H 0.52042 0.4152 0.50866 0.0
C438 C 0.4156 0.57612 0.85795 0.0
C439 C 0.4509 0.61207 0.84698 0.0
C440 C 0.37689 0.57501 0.86132 0.0
C441 C 0.3163 0.62877 0.84181 0.0
H442 H 0.24645 0.56874 0.89588 0.0
C443 C 0.16411 0.63528 0.86569 0.0
C444 C 0.12888 0.59759 0.87524 0.0
C445 C 0.2035 0.63778 0.86215 0.0
C446 C 0.26525 0.58531 0.88055 0.0
H447 H 0.4725 0.67531 0.83105 0.0
H448 H 0.40558 0.67374 0.83725 0.0
H449 H 0.31409 0.57189 0.89006 0.0
H450 H 0.10741 0.53282 0.88817 0.0
H451 H 0.17582 0.53706 0.88232 0.0
H452 H 0.2674 0.64243 0.83245 0.0
C453 C 0.40746 0.64591 0.84295 0.0
C454 C 0.30427 0.58708 0.87716 0.0
C455 C 0.44617 0.64694 0.8395 0.0
C456 C 0.13407 0.56252 0.88116 0.0
C457 C 0.17341 0.56503 0.87777 0.0
C458 C 0.27732 0.62716 0.84526 0.0
C459 C 0.37207 0.60991 0.85393 0.0
C460 C 0.33047 0.60866 0.85767 0.0
C461 C 0.20886 0.6027 0.86821 0.0
C462 C 0.25101 0.60522 0.86464 0.0
H463 H 0.41766 0.54847 0.86386 0.0
H464 H 0.35049 0.54635 0.86947 0.0
H465 H 0.33493 0.64516 0.82641 0.0
H466 H 0.16131 0.66304 0.86125 0.0
H467 H 0.22999 0.66753 0.85503 0.0
C468 C 0.85503 0.38573 0.17859 0.0
C469 C 0.89237 0.38625 0.17188 0.0
C470 C 0.81649 0.34738 0.18232 0.0
C471 C 0.7597 0.23402 0.17011 0.0
H472 H 0.6891 0.21919 0.22254 0.0
C473 C 0.60794 0.0719 0.19798 0.0
C474 C 0.57343 0.07275 0.20794 0.0
C475 C 0.64697 0.10956 0.19323 0.0
C476 C 0.70791 0.22278 0.2076 0.0
H477 H 0.91769 0.3462 0.16339 0.0
H478 H 0.85043 0.27943 0.16967 0.0
H479 H 0.75568 0.2853 0.21447 0.0
H480 H 0.5524 0.11364 0.22028 0.0
H481 H 0.61968 0.17928 0.21168 0.0
H482 H 0.71167 0.17171 0.16305 0.0
C483 C 0.85101 0.30883 0.17204 0.0
C484 C 0.74637 0.26091 0.20299 0.0
C485 C 0.88971 0.34722 0.1685 0.0
C486 C 0.57865 0.11205 0.21284 0.0
C487 C 0.61744 0.14967 0.20799 0.0
C488 C 0.72098 0.19593 0.17462 0.0
C489 C 0.81389 0.30827 0.1793 0.0
C490 C 0.77286 0.26723 0.18415 0.0
C491 C 0.65247 0.14916 0.19822 0.0
C492 C 0.6943 0.18966 0.19343 0.0
H493 H 0.85561 0.41497 0.18141 0.0
H494 H 0.78859 0.34842 0.18757 0.0
H495 H 0.77896 0.23776 0.15533 0.0
H496 H 0.6049 0.04195 0.19428 0.0
H497 H 0.67306 0.10741 0.18604 0.0
C498 C 0.07417 0.56337 0.09483 0.0
C499 C 0.04602 0.52559 0.10778 0.0
C500 C 0.08378 0.56294 0.07226 0.0
C501 C 0.03555 0.50272 0.02449 0.0
H502 H 0.14525 0.5789 0.99437 0.0
C503 C 0.05185 0.52422 0.92846 0.0
C504 C 0.07525 0.56633 0.91902 0.0
C505 C 0.0551 0.51386 0.95104 0.0
C506 C 0.11436 0.55756 0.00248 0.0
H507 H 1.00734 0.45737 0.10761 0.0
H508 H 0.0238 0.45655 0.06786 0.0
H509 H 0.13831 0.57013 0.03532 0.0
H510 H 0.12163 0.63036 0.92509 0.0
H511 H 0.12711 0.61291 0.96475 0.0
H512 H 0.01096 0.49163 0.99192 0.0
C513 C 0.03837 0.48656 0.07524 0.0
C514 C 0.11042 0.55242 0.02596 0.0
C515 C 0.02912 0.48696 0.09799 0.0
C516 C 0.10389 0.59759 0.93207 0.0
C517 C 0.10686 0.58743 0.95477 0.0
C518 C 0.03939 0.50807 0.00105 0.0
C519 C 0.06516 0.52471 0.06201 0.0
C520 C 0.07079 0.5256 0.03725 0.0
C521 C 0.08131 0.54563 0.96478 0.0
C522 C 0.07868 0.53622 0.98968 0.0
H523 H 0.08779 0.5936 0.10198 0.0
H524 H 0.10417 0.59291 0.06257 0.0
H525 H 1.00444 0.48233 0.03261 0.0
H526 H 0.02939 0.49981 0.91858 0.0
H527 H 0.03569 0.48121 0.95793 0.0
C528 C 0.63069 0.12923 0.42115 0.0
C529 C 0.60224 0.09938 0.43795 0.0
C530 C 0.62129 0.12531 0.39859 0.0
C531 C 0.53368 0.06839 0.36046 0.0
H532 H 0.62715 0.10034 0.31758 0.0
C533 C 0.56259 0.04023 0.26339 0.0
C534 C 0.52849 0.04194 0.25388 0.0
C535 C 0.57339 0.05161 0.2852 0.0
C536 C 0.60056 0.09093 0.32929 0.0
H537 H 0.54184 0.04178 0.44444 0.0
H538 H 0.52547 0.03401 0.40494 0.0
H539 H 0.64054 0.10901 0.35702 0.0
H540 H 0.48031 0.05879 0.25875 0.0
H541 H 0.50006 0.08061 0.29654 0.0
H542 H 0.49341 0.04816 0.33288 0.0
C543 C 0.55462 0.06132 0.40915 0.0
C544 C 0.60833 0.09652 0.35198 0.0
C545 C 0.56386 0.06568 0.43182 0.0
C546 C 0.50674 0.05732 0.26593 0.0
C547 C 0.51778 0.06921 0.28763 0.0
C548 C 0.52585 0.06236 0.3378 0.0
C549 C 0.58348 0.09087 0.39218 0.0
C550 C 0.57501 0.08532 0.36792 0.0
C551 C 0.55048 0.06535 0.29784 0.0
C552 C 0.55917 0.07346 0.32187 0.0
H553 H 0.66048 0.15567 0.42546 0.0
H554 H 0.64388 0.1493 0.38617 0.0
H555 H 0.50723 0.05983 0.37211 0.0
H556 H 0.57929 0.02788 0.25436 0.0
H557 H 0.59842 0.0477 0.29248 0.0
C558 C 0.51577 0.59098 0.76118 0.0
C559 C 0.55222 0.60612 0.77354 0.0
C560 C 0.51904 0.59801 0.73779 0.0
C561 C 0.59651 0.65673 0.68849 0.0
H562 H 0.51274 0.56286 0.6578 0.0
C563 C 0.61919 0.61874 0.59865 0.0
C564 C 0.5847 0.60517 0.58486 0.0
C565 C 0.61552 0.6273 0.62069 0.0
C566 C 0.53604 0.58965 0.66608 0.0
H567 H 0.62073 0.64174 0.77134 0.0
H568 H 0.62676 0.65231 0.73048 0.0
H569 H 0.50568 0.56099 0.69824 0.0
H570 H 0.52015 0.59141 0.58256 0.0
H571 H 0.51318 0.60575 0.62139 0.0
H572 H 0.62807 0.68383 0.65605 0.0
C573 C 0.59544 0.63603 0.7387 0.0
C574 C 0.53195 0.58876 0.68936 0.0
C575 C 0.59209 0.62978 0.76217 0.0
C576 C 0.54712 0.60219 0.59298 0.0
C577 C 0.54315 0.61009 0.61514 0.0
C578 C 0.60097 0.65721 0.66517 0.0
C579 C 0.55892 0.61947 0.7261 0.0
C580 C 0.56225 0.62212 0.70101 0.0
C581 C 0.577 0.6217 0.62939 0.0
C582 C 0.57087 0.62353 0.65376 0.0
H583 H 0.48462 0.57309 0.76959 0.0
H584 H 0.49011 0.5859 0.72889 0.0
H585 H 0.62013 0.68342 0.69667 0.0
H586 H 0.64829 0.62088 0.5926 0.0
H587 H 0.642 0.63586 0.63131 0.0
C588 C 0.61423 0.09181 0.57149 0.0
C589 C 0.57865 0.09286 0.56349 0.0
C590 C 0.62722 0.10295 0.59314 0.0
C591 C 0.61382 0.15878 0.63918 0.0
H592 H 0.63722 0.08431 0.67849 0.0
C593 C 0.58609 0.14225 0.73387 0.0
C594 C 0.61969 0.14786 0.74713 0.0
C595 C 0.5881 0.13839 0.711 0.0
C596 C 0.6314 0.1057 0.66758 0.0
H597 H 0.52921 0.10691 0.57151 0.0
H598 H 0.55125 0.12566 0.60906 0.0
H599 H 0.62906 0.07395 0.63844 0.0
H600 H 0.68083 0.15184 0.74735 0.0
H601 H 0.68393 0.1437 0.70698 0.0
H602 H 0.61395 0.18906 0.66845 0.0
C603 C 0.56969 0.11697 0.59872 0.0
C604 C 0.62685 0.09991 0.64468 0.0
C605 C 0.5568 0.10587 0.57723 0.0
C606 C 0.65465 0.14763 0.73733 0.0
C607 C 0.65642 0.14307 0.71437 0.0
C608 C 0.61791 0.16423 0.66199 0.0
C609 C 0.60493 0.11553 0.607 0.0
C610 C 0.61667 0.12559 0.63039 0.0
C611 C 0.62348 0.13931 0.70097 0.0
C612 C 0.62551 0.13701 0.67649 0.0
H613 H 0.63162 0.08189 0.56115 0.0
H614 H 0.65461 0.10174 0.59901 0.0
H615 H 0.60704 0.17977 0.62854 0.0
H616 H 0.55834 0.14112 0.74125 0.0
H617 H 0.56191 0.13463 0.70109 0.0
C618 C 0.59061 0.66806 0.91284 0.0
C619 C 0.57958 0.6364 0.8981 0.0
C620 C 0.58863 0.65829 0.93595 0.0
C621 C 0.59329 0.58443 0.97858 0.0
H622 H 0.53342 0.62016 0.01715 0.0
C623 C 0.54954 0.52393 0.07236 0.0
C624 C 0.54501 0.54999 0.08681 0.0
C625 C 0.55976 0.53716 0.04954 0.0
C626 C 0.55113 0.61073 0.00675 0.0
H627 H 0.55766 0.56984 0.89585 0.0
H628 H 0.5549 0.55266 0.93644 0.0
H629 H 0.5378 0.63687 0.97682 0.0
H630 H 0.55011 0.61086 0.0897 0.0
H631 H 0.57041 0.6355 0.05002 0.0
H632 H 0.60734 0.5589 0.00849 0.0
C633 C 0.56506 0.58502 0.93002 0.0
C634 C 0.55326 0.62002 0.9836 0.0
C635 C 0.56643 0.59473 0.90686 0.0
C636 C 0.55367 0.59057 0.07863 0.0
C637 C 0.56462 0.6042 0.05592 0.0
C638 C 0.59171 0.57563 0.00183 0.0
C639 C 0.57611 0.61677 0.94475 0.0
C640 C 0.57412 0.60677 0.96929 0.0
C641 C 0.56607 0.57697 0.04089 0.0
C642 C 0.5704 0.58849 0.01623 0.0
H643 H 0.60089 0.7005 0.90652 0.0
H644 H 0.59749 0.68337 0.94695 0.0
H645 H 0.60998 0.57429 0.96787 0.0
H646 H 0.54232 0.49226 0.07851 0.0
H647 H 0.56017 0.51512 0.03855 0.0
C648 C 0.9575 0.45254 0.24957 0.0
C649 C 0.98137 0.48846 0.23445 0.0
C650 C 0.95002 0.45701 0.27185 0.0
C651 C 0.9592 0.53606 0.31088 0.0
H652 H 0.97383 0.46143 0.35483 0.0
C653 C 0.96638 0.56345 0.40436 0.0
C654 C 0.99926 0.56145 0.41521 0.0
C655 C 0.95434 0.54708 0.38359 0.0
C656 C 0.96971 0.48258 0.3428 0.0
H657 H 0.01452 0.55719 0.23032 0.0
H658 H 1.00268 0.56522 0.26932 0.0
H659 H 0.97185 0.44937 0.3154 0.0
H660 H 0.04427 0.53967 0.4139 0.0
H661 H 0.02417 0.5116 0.37741 0.0
H662 H 0.95994 0.57097 0.33812 0.0
C663 C 0.98895 0.53347 0.26402 0.0
C664 C 0.96797 0.47532 0.32015 0.0
C665 C 0.996 0.52895 0.24167 0.0
C666 C 0.01853 0.541 0.40573 0.0
C667 C 1.00684 0.52491 0.3849 0.0
C668 C 0.96134 0.54355 0.33351 0.0
C669 C 0.96665 0.49755 0.27953 0.0
C670 C 0.96358 0.5025 0.30382 0.0
C671 C 0.97538 0.52881 0.37326 0.0
C672 C 0.96754 0.51744 0.34971 0.0
H673 H 0.94545 0.42092 0.24432 0.0
H674 H 0.9319 0.42864 0.28316 0.0
H675 H 0.95507 0.55721 0.29885 0.0
H676 H 0.95123 0.57915 0.41162 0.0
H677 H 0.92945 0.54989 0.37534 0.0
loop_
_geom_bond_atom_site_label_1
_geom_bond_atom_site_label_2
_geom_bond_distance
_geom_bond_site_symmetry_2
_ccdc_geom_bond_type
Dy0 O4 2.398 . S
Dy0 O5 2.491 . S
Dy0 O6 2.403 . S
Dy0 O7 2.664 1_455 S
Dy0 O11 2.326 . S
Dy0 O15 2.310 . S
Dy0 O16 2.351 1_455 S
C1 O12 1.185 . S
C1 O13 1.355 . S
C2 O4 1.185 . S
C2 O5 1.355 . S
Dy3 O7 2.310 . S
Dy3 O10 2.351 1_655 S
Dy3 O12 2.398 . S
Dy3 O13 2.491 . S
Dy3 O14 2.403 . S
Dy3 O15 2.664 1_655 S
Dy3 O17 2.326 . S
O4 Dy0 2.398 . S
O4 C2 1.185 . S
O5 Dy0 2.491 . S
O5 C2 1.355 . S
O6 Dy0 2.403 . S
O6 C8 1.254 . S
O7 Dy0 2.664 1_655 S
O7 Dy3 2.310 . S
O7 C8 1.268 1_655 S
C8 O6 1.254 . S
C8 O7 1.268 1_455 S
C9 O14 1.254 1_455 S
C9 O15 1.268 . S
O10 Dy3 2.351 1_455 S
O10 C18 1.249 . S
O11 Dy0 2.326 . S
O11 C18 1.267 . S
O12 C1 1.185 . S
O12 Dy3 2.398 . S
O13 C1 1.355 . S
O13 Dy3 2.491 . S
O14 Dy3 2.403 . S
O14 C9 1.254 1_655 S
O15 Dy0 2.310 . S
O15 Dy3 2.664 1_455 S
O15 C9 1.268 . S
O16 Dy0 2.351 1_655 S
O16 C19 1.249 . S
O17 Dy3 2.326 . S
O17 C19 1.267 . S
C18 O10 1.249 . S
C18 O11 1.267 . S
C19 O16 1.249 . S
C19 O17 1.267 . S
Dy20 O24 2.398 1_545 S
Dy20 O25 2.491 1_545 S
Dy20 O26 2.403 . S
Dy20 O27 2.664 . S
Dy20 O31 2.326 1_545 S
Dy20 O35 2.310 . S
Dy20 O36 2.351 . S
C21 O32 1.185 . S
C21 O33 1.355 . S
C22 O24 1.185 . S
C22 O25 1.355 . S
Dy23 O27 2.310 . S
Dy23 O30 2.351 . S
Dy23 O32 2.398 . S
Dy23 O33 2.491 . S
Dy23 O34 2.403 . S
Dy23 O35 2.664 . S
Dy23 O37 2.326 . S
O24 Dy20 2.398 1_565 S
O24 C22 1.185 . S
O25 Dy20 2.491 1_565 S
O25 C22 1.355 . S
O26 Dy20 2.403 . S
O26 C28 1.254 . S
O27 Dy20 2.664 . S
O27 Dy23 2.310 . S
O27 C28 1.268 . S
C28 O26 1.254 . S
C28 O27 1.268 . S
C29 O34 1.254 . S
C29 O35 1.268 . S
O30 Dy23 2.351 . S
O30 C38 1.249 1_545 S
O31 Dy20 2.326 1_565 S
O31 C38 1.267 . S
O32 C21 1.185 . S
O32 Dy23 2.398 . S
O33 C21 1.355 . S
O33 Dy23 2.491 . S
O34 Dy23 2.403 . S
O34 C29 1.254 . S
O35 Dy20 2.310 . S
O35 Dy23 2.664 . S
O35 C29 1.268 . S
O36 Dy20 2.351 . S
O36 C39 1.249 . S
O37 Dy23 2.326 . S
O37 C39 1.267 . S
C38 O30 1.249 1_565 S
C38 O31 1.267 . S
C39 O36 1.249 . S
C39 O37 1.267 . S
Dy40 O44 2.398 . S
Dy40 O45 2.491 . S
Dy40 O46 2.403 . S
Dy40 O47 2.664 . S
Dy40 O51 2.326 . S
Dy40 O55 2.310 . S
Dy40 O56 2.351 . S
C41 O52 1.185 . S
C41 O53 1.355 . S
C42 O44 1.185 . S
C42 O45 1.355 . S
Dy43 O47 2.310 . S
Dy43 O50 2.351 . S
Dy43 O52 2.398 . S
Dy43 O53 2.491 . S
Dy43 O54 2.403 . S
Dy43 O55 2.664 . S
Dy43 O57 2.326 . S
O44 Dy40 2.398 . S
O44 C42 1.185 . S
O45 Dy40 2.491 . S
O45 C42 1.355 . S
O46 Dy40 2.403 . S
O46 C48 1.254 . S
O47 Dy40 2.664 . S
O47 Dy43 2.310 . S
O47 C48 1.268 . S
C48 O46 1.254 . S
C48 O47 1.268 . S
C49 O54 1.254 . S
C49 O55 1.268 . S
O50 Dy43 2.351 . S
O50 C58 1.249 . S
O51 Dy40 2.326 . S
O51 C58 1.267 . S
O52 C41 1.185 . S
O52 Dy43 2.398 . S
O53 C41 1.355 . S
O53 Dy43 2.491 . S
O54 Dy43 2.403 . S
O54 C49 1.254 . S
O55 Dy40 2.310 . S
O55 Dy43 2.664 . S
O55 C49 1.268 . S
O56 Dy40 2.351 . S
O56 C59 1.249 . S
O57 Dy43 2.326 . S
O57 C59 1.267 . S
C58 O50 1.249 . S
C58 O51 1.267 . S
C59 O56 1.249 . S
C59 O57 1.267 . S
C60 N61 1.317 . S
C60 N62 1.348 1_545 S
C60 C63 1.485 . S
N61 C60 1.317 . S
N61 N65 1.370 . S
N62 C60 1.348 1_565 S
N62 C64 1.346 . S
C63 C60 1.485 . S
C63 H67 0.960 . S
C63 H68 0.961 1_545 S
C63 H69 0.960 . S
C64 N62 1.346 . S
C64 N65 1.307 1_565 S
C64 C66 1.486 . S
N65 N61 1.370 . S
N65 C64 1.307 1_545 S
C66 C64 1.486 . S
C66 H70 0.960 . S
C66 H71 0.960 . S
C66 H72 0.959 . S
H67 C63 0.960 . S
H68 C63 0.961 1_565 S
H69 C63 0.960 . S
H70 C66 0.960 . S
H71 C66 0.960 . S
H72 C66 0.959 . S
C73 N74 1.317 . S
C73 N75 1.348 . S
C73 C76 1.485 . S
N74 C73 1.317 . S
N74 N78 1.370 . S
N75 C73 1.348 . S
N75 C77 1.346 . S
C76 C73 1.485 . S
C76 H80 0.960 . S
C76 H81 0.961 . S
C76 H82 0.960 . S
C77 N75 1.346 . S
C77 N78 1.307 . S
C77 C79 1.486 . S
N78 N74 1.370 . S
N78 C77 1.307 . S
C79 C77 1.486 . S
C79 H83 0.960 . S
C79 H84 0.960 . S
C79 H85 0.959 . S
H80 C76 0.960 . S
H81 C76 0.961 . S
H82 C76 0.960 . S
H83 C79 0.960 . S
H84 C79 0.960 . S
H85 C79 0.959 . S
C86 N87 1.317 . S
C86 N88 1.348 . S
C86 C89 1.485 . S
N87 C86 1.317 . S
N87 N91 1.370 . S
N88 C86 1.348 . S
N88 C90 1.346 . S
C89 C86 1.485 . S
C89 H93 0.960 . S
C89 H94 0.961 . S
C89 H95 0.960 . S
C90 N88 1.346 . S
C90 N91 1.307 . S
C90 C92 1.486 1_455 S
N91 N87 1.370 . S
N91 C90 1.307 . S
C92 C90 1.486 1_655 S
C92 H96 0.960 . S
C92 H97 0.960 . S
C92 H98 0.959 . S
H93 C89 0.960 . S
H94 C89 0.961 . S
H95 C89 0.960 . S
H96 C92 0.960 . S
H97 C92 0.960 . S
H98 C92 0.959 . S
C99 N100 1.317 . S
C99 N101 1.348 . S
C99 C102 1.485 . S
N100 C99 1.317 . S
N100 N104 1.370 . S
N101 C99 1.348 . S
N101 C103 1.346 . S
C102 C99 1.485 . S
C102 H106 0.960 . S
C102 H107 0.961 . S
C102 H108 0.960 . S
C103 N101 1.346 . S
C103 N104 1.307 . S
C103 C105 1.486 . S
N104 N100 1.370 . S
N104 C103 1.307 . S
C105 C103 1.486 . S
C105 H109 0.960 . S
C105 H110 0.960 . S
C105 H111 0.959 . S
H106 C102 0.960 . S
H107 C102 0.961 . S
H108 C102 0.960 . S
H109 C105 0.960 . S
H110 C105 0.960 . S
H111 C105 0.959 . S
C112 N113 1.317 . S
C112 N114 1.348 . S
C112 C115 1.485 . S
N113 C112 1.317 . S
N113 N117 1.370 . S
N114 C112 1.348 . S
N114 C116 1.346 . S
C115 C112 1.485 . S
C115 H119 0.960 . S
C115 H120 0.961 . S
C115 H121 0.960 . S
C116 N114 1.346 . S
C116 N117 1.307 . S
C116 C118 1.486 . S
N117 N113 1.370 . S
N117 C116 1.307 . S
C118 C116 1.486 . S
C118 H122 0.960 . S
C118 H123 0.960 . S
C118 H124 0.959 . S
H119 C115 0.960 . S
H120 C115 0.961 . S
H121 C115 0.960 . S
H122 C118 0.960 . S
H123 C118 0.960 . S
H124 C118 0.959 . S
C125 N126 1.317 . S
C125 N127 1.348 . S
C125 C128 1.485 . S
N126 C125 1.317 . S
N126 N130 1.370 . S
N127 C125 1.348 . S
N127 C129 1.346 . S
C128 C125 1.485 . S
C128 H132 0.960 . S
C128 H133 0.961 . S
C128 H134 0.960 . S
C129 N127 1.346 . S
C129 N130 1.307 . S
C129 C131 1.486 . S
N130 N126 1.370 . S
N130 C129 1.307 . S
C131 C129 1.486 . S
C131 H135 0.960 . S
C131 H136 0.960 . S
C131 H137 0.959 . S
H132 C128 0.960 . S
H133 C128 0.961 . S
H134 C128 0.960 . S
H135 C131 0.960 . S
H136 C131 0.960 . S
H137 C131 0.959 . S
C138 C139 1.349 . S
C138 C140 1.327 . S
C138 H163 0.950 . S
C139 C138 1.349 . S
C139 C155 1.349 . S
C140 C138 1.327 . S
C140 C159 1.429 . S
C140 H164 0.950 . S
C141 C158 1.574 . S
C141 C160 1.368 . S
C141 H165 0.949 . S
H142 C146 0.949 . S
C143 C144 1.349 . S
C143 C145 1.327 . S
C143 H166 0.950 . S
C144 C143 1.349 . S
C144 C156 1.349 . S
C145 C143 1.327 . S
C145 C161 1.429 . S
C145 H167 0.950 . S
C146 H142 0.949 . S
C146 C154 1.574 . S
C146 C162 1.368 . S
H147 C155 0.950 . S
H148 C153 0.950 . S
H149 C154 0.949 . S
H150 C156 0.950 . S
H151 C157 0.950 . S
H152 C158 0.949 . S
C153 H148 0.950 . S
C153 C155 1.327 . S
C153 C159 1.429 . S
C154 C146 1.574 . S
C154 H149 0.949 . S
C154 C160 1.368 . S
C155 C139 1.349 . S
C155 H147 0.950 . S
C155 C153 1.327 . S
C156 C144 1.349 . S
C156 H150 0.950 . S
C156 C157 1.327 . S
C157 H151 0.950 . S
C157 C156 1.327 . S
C157 C161 1.429 . S
C158 C141 1.574 . S
C158 H152 0.949 . S
C158 C162 1.368 . S
C159 C140 1.429 . S
C159 C153 1.429 . S
C159 C160 1.523 . S
C160 C141 1.368 . S
C160 C154 1.368 . S
C160 C159 1.523 . S
C161 C145 1.429 . S
C161 C157 1.429 . S
C161 C162 1.523 . S
C162 C146 1.368 . S
C162 C158 1.368 . S
C162 C161 1.523 . S
H163 C138 0.950 . S
H164 C140 0.950 . S
H165 C141 0.949 . S
H166 C143 0.950 . S
H167 C145 0.950 . S
C168 C169 1.349 . S
C168 C170 1.327 . S
C168 H193 0.950 . S
C169 C168 1.349 . S
C169 C185 1.349 . S
C170 C168 1.327 . S
C170 C189 1.429 . S
C170 H194 0.950 . S
C171 C188 1.574 . S
C171 C190 1.368 . S
C171 H195 0.949 . S
H172 C176 0.949 . S
C173 C174 1.349 . S
C173 C175 1.327 . S
C173 H196 0.950 1_655 S
C174 C173 1.349 . S
C174 C186 1.349 . S
C175 C173 1.327 . S
C175 C191 1.429 . S
C175 H197 0.950 . S
C176 H172 0.949 . S
C176 C184 1.574 . S
C176 C192 1.368 . S
H177 C185 0.950 . S
H178 C183 0.950 . S
H179 C184 0.949 . S
H180 C186 0.950 . S
H181 C187 0.950 . S
H182 C188 0.949 . S
C183 H178 0.950 . S
C183 C185 1.327 . S
C183 C189 1.429 . S
C184 C176 1.574 . S
C184 H179 0.949 . S
C184 C190 1.368 . S
C185 C169 1.349 . S
C185 H177 0.950 . S
C185 C183 1.327 . S
C186 C174 1.349 . S
C186 H180 0.950 . S
C186 C187 1.327 . S
C187 H181 0.950 . S
C187 C186 1.327 . S
C187 C191 1.429 . S
C188 C171 1.574 . S
C188 H182 0.949 . S
C188 C192 1.368 . S
C189 C170 1.429 . S
C189 C183 1.429 . S
C189 C190 1.523 . S
C190 C171 1.368 . S
C190 C184 1.368 . S
C190 C189 1.523 . S
C191 C175 1.429 . S
C191 C187 1.429 . S
C191 C192 1.523 . S
C192 C176 1.368 . S
C192 C188 1.368 . S
C192 C191 1.523 . S
H193 C168 0.950 . S
H194 C170 0.950 . S
H195 C171 0.949 . S
H196 C173 0.950 1_455 S
H197 C175 0.950 . S
C198 C199 1.349 . S
C198 C200 1.327 . S
C198 H223 0.950 . S
C199 C198 1.349 . S
C199 C215 1.349 . S
C200 C198 1.327 . S
C200 C219 1.429 . S
C200 H224 0.950 . S
C201 C218 1.574 . S
C201 C220 1.368 . S
C201 H225 0.949 . S
H202 C206 0.949 . S
C203 C204 1.349 . S
C203 C205 1.327 . S
C203 H226 0.950 . S
C204 C203 1.349 . S
C204 C216 1.349 . S
C205 C203 1.327 . S
C205 C221 1.429 1_545 S
C205 H227 0.950 1_545 S
C206 H202 0.949 . S
C206 C214 1.574 . S
C206 C222 1.368 . S
H207 C215 0.950 . S
H208 C213 0.950 . S
H209 C214 0.949 . S
H210 C216 0.950 . S
H211 C217 0.950 . S
H212 C218 0.949 . S
C213 H208 0.950 . S
C213 C215 1.327 . S
C213 C219 1.429 . S
C214 C206 1.574 . S
C214 H209 0.949 . S
C214 C220 1.368 . S
C215 C199 1.349 . S
C215 H207 0.950 . S
C215 C213 1.327 . S
C216 C204 1.349 . S
C216 H210 0.950 . S
C216 C217 1.327 . S
C217 H211 0.950 . S
C217 C216 1.327 . S
C217 C221 1.429 1_545 S
C218 C201 1.574 . S
C218 H212 0.949 . S
C218 C222 1.368 . S
C219 C200 1.429 . S
C219 C213 1.429 . S
C219 C220 1.523 . S
C220 C201 1.368 . S
C220 C214 1.368 . S
C220 C219 1.523 . S
C221 C205 1.429 1_565 S
C221 C217 1.429 1_565 S
C221 C222 1.523 . S
C222 C206 1.368 . S
C222 C218 1.368 . S
C222 C221 1.523 . S
H223 C198 0.950 . S
H224 C200 0.950 . S
H225 C201 0.949 . S
H226 C203 0.950 . S
H227 C205 0.950 1_565 S
C228 C229 1.349 . S
C228 C230 1.327 . S
C228 H253 0.950 . S
C229 C228 1.349 . S
C229 C245 1.349 . S
C230 C228 1.327 . S
C230 C249 1.429 . S
C230 H254 0.950 . S
C231 C248 1.574 . S
C231 C250 1.368 . S
C231 H255 0.949 . S
H232 C236 0.949 . S
C233 C234 1.349 . S
C233 C235 1.327 . S
C233 H256 0.950 . S
C234 C233 1.349 . S
C234 C246 1.349 . S
C235 C233 1.327 . S
C235 C251 1.429 . S
C235 H257 0.950 . S
C236 H232 0.949 . S
C236 C244 1.574 . S
C236 C252 1.368 . S
H237 C245 0.950 . S
H238 C243 0.950 . S
H239 C244 0.949 . S
H240 C246 0.950 . S
H241 C247 0.950 . S
H242 C248 0.949 . S
C243 H238 0.950 . S
C243 C245 1.327 . S
C243 C249 1.429 . S
C244 C236 1.574 . S
C244 H239 0.949 . S
C244 C250 1.368 . S
C245 C229 1.349 . S
C245 H237 0.950 . S
C245 C243 1.327 . S
C246 C234 1.349 . S
C246 H240 0.950 . S
C246 C247 1.327 . S
C247 H241 0.950 . S
C247 C246 1.327 . S
C247 C251 1.429 . S
C248 C231 1.574 . S
C248 H242 0.949 . S
C248 C252 1.368 . S
C249 C230 1.429 . S
C249 C243 1.429 . S
C249 C250 1.523 . S
C250 C231 1.368 . S
C250 C244 1.368 . S
C250 C249 1.523 . S
C251 C235 1.429 . S
C251 C247 1.429 . S
C251 C252 1.523 . S
C252 C236 1.368 . S
C252 C248 1.368 . S
C252 C251 1.523 . S
H253 C228 0.950 . S
H254 C230 0.950 . S
H255 C231 0.949 . S
H256 C233 0.950 . S
H257 C235 0.950 . S
C258 C259 1.349 . S
C258 C260 1.327 . S
C258 H283 0.950 . S
C259 C258 1.349 . S
C259 C275 1.349 . S
C260 C258 1.327 . S
C260 C279 1.429 . S
C260 H284 0.950 . S
C261 C278 1.574 . S
C261 C280 1.368 . S
C261 H285 0.949 . S
H262 C266 0.949 . S
C263 C264 1.349 . S
C263 C265 1.327 . S
C263 H286 0.950 . S
C264 C263 1.349 . S
C264 C276 1.349 . S
C265 C263 1.327 . S
C265 C281 1.429 . S
C265 H287 0.950 . S
C266 H262 0.949 . S
C266 C274 1.574 . S
C266 C282 1.368 . S
H267 C275 0.950 . S
H268 C273 0.950 . S
H269 C274 0.949 . S
H270 C276 0.950 . S
H271 C277 0.950 . S
H272 C278 0.949 . S
C273 H268 0.950 . S
C273 C275 1.327 . S
C273 C279 1.429 . S
C274 C266 1.574 . S
C274 H269 0.949 . S
C274 C280 1.368 . S
C275 C259 1.349 . S
C275 H267 0.950 . S
C275 C273 1.327 . S
C276 C264 1.349 . S
C276 H270 0.950 . S
C276 C277 1.327 . S
C277 H271 0.950 . S
C277 C276 1.327 . S
C277 C281 1.429 . S
C278 C261 1.574 . S
C278 H272 0.949 . S
C278 C282 1.368 . S
C279 C260 1.429 . S
C279 C273 1.429 . S
C279 C280 1.523 . S
C280 C261 1.368 . S
C280 C274 1.368 . S
C280 C279 1.523 . S
C281 C265 1.429 . S
C281 C277 1.429 . S
C281 C282 1.523 . S
C282 C266 1.368 . S
C282 C278 1.368 . S
C282 C281 1.523 . S
H283 C258 0.950 . S
H284 C260 0.950 . S
H285 C261 0.949 . S
H286 C263 0.950 . S
H287 C265 0.950 . S
C288 C289 1.349 . S
C288 C290 1.327 . S
C288 H313 0.950 . S
C289 C288 1.349 . S
C289 C305 1.349 . S
C290 C288 1.327 . S
C290 C309 1.429 . S
C290 H314 0.950 . S
C291 C308 1.574 . S
C291 C310 1.368 . S
C291 H315 0.949 . S
H292 C296 0.949 . S
C293 C294 1.349 . S
C293 C295 1.327 . S
C293 H316 0.950 . S
C294 C293 1.349 . S
C294 C306 1.349 . S
C295 C293 1.327 . S
C295 C311 1.429 . S
C295 H317 0.950 . S
C296 H292 0.949 . S
C296 C304 1.574 . S
C296 C312 1.368 . S
H297 C305 0.950 . S
H298 C303 0.950 . S
H299 C304 0.949 . S
H300 C306 0.950 . S
H301 C307 0.950 . S
H302 C308 0.949 . S
C303 H298 0.950 . S
C303 C305 1.327 . S
C303 C309 1.429 . S
C304 C296 1.574 . S
C304 H299 0.949 . S
C304 C310 1.368 . S
C305 C289 1.349 . S
C305 H297 0.950 . S
C305 C303 1.327 . S
C306 C294 1.349 . S
C306 H300 0.950 . S
C306 C307 1.327 . S
C307 H301 0.950 . S
C307 C306 1.327 . S
C307 C311 1.429 . S
C308 C291 1.574 . S
C308 H302 0.949 . S
C308 C312 1.368 . S
C309 C290 1.429 . S
C309 C303 1.429 . S
C309 C310 1.523 . S
C310 C291 1.368 . S
C310 C304 1.368 . S
C310 C309 1.523 . S
C311 C295 1.429 . S
C311 C307 1.429 . S
C311 C312 1.523 . S
C312 C296 1.368 . S
C312 C308 1.368 . S
C312 C311 1.523 . S
H313 C288 0.950 . S
H314 C290 0.950 . S
H315 C291 0.949 . S
H316 C293 0.950 . S
H317 C295 0.950 . S
C318 C319 1.349 . S
C318 C320 1.327 . S
C318 H343 0.950 . S
C319 C318 1.349 . S
C319 C335 1.349 . S
C320 C318 1.327 . S
C320 C339 1.429 . S
C320 H344 0.950 . S
C321 C338 1.574 . S
C321 C340 1.368 . S
C321 H345 0.949 . S
H322 C326 0.949 . S
C323 C324 1.349 . S
C323 C325 1.327 . S
C323 H346 0.950 . S
C324 C323 1.349 . S
C324 C336 1.349 . S
C325 C323 1.327 . S
C325 C341 1.429 . S
C325 H347 0.950 . S
C326 H322 0.949 . S
C326 C334 1.574 . S
C326 C342 1.368 . S
H327 C335 0.950 . S
H328 C333 0.950 . S
H329 C334 0.949 . S
H330 C336 0.950 . S
H331 C337 0.950 . S
H332 C338 0.949 . S
C333 H328 0.950 . S
C333 C335 1.327 . S
C333 C339 1.429 . S
C334 C326 1.574 . S
C334 H329 0.949 . S
C334 C340 1.368 . S
C335 C319 1.349 . S
C335 H327 0.950 . S
C335 C333 1.327 . S
C336 C324 1.349 . S
C336 H330 0.950 . S
C336 C337 1.327 . S
C337 H331 0.950 . S
C337 C336 1.327 . S
C337 C341 1.429 . S
C338 C321 1.574 . S
C338 H332 0.949 . S
C338 C342 1.368 . S
C339 C320 1.429 . S
C339 C333 1.429 . S
C339 C340 1.523 . S
C340 C321 1.368 . S
C340 C334 1.368 . S
C340 C339 1.523 . S
C341 C325 1.429 . S
C341 C337 1.429 . S
C341 C342 1.523 . S
C342 C326 1.368 . S
C342 C338 1.368 . S
C342 C341 1.523 . S
H343 C318 0.950 . S
H344 C320 0.950 . S
H345 C321 0.949 . S
H346 C323 0.950 . S
H347 C325 0.950 . S
C348 C349 1.349 . S
C348 C350 1.327 . S
C348 H373 0.950 . S
C349 C348 1.349 . S
C349 C365 1.349 . S
C350 C348 1.327 . S
C350 C369 1.429 . S
C350 H374 0.950 . S
C351 C368 1.574 . S
C351 C370 1.368 . S
C351 H375 0.949 . S
H352 C356 0.949 . S
C353 C354 1.349 . S
C353 C355 1.327 . S
C353 H376 0.950 . S
C354 C353 1.349 . S
C354 C366 1.349 . S
C355 C353 1.327 . S
C355 C371 1.429 . S
C355 H377 0.950 . S
C356 H352 0.949 . S
C356 C364 1.574 . S
C356 C372 1.368 . S
H357 C365 0.950 . S
H358 C363 0.950 . S
H359 C364 0.949 . S
H360 C366 0.950 1_455 S
H361 C367 0.950 . S
H362 C368 0.949 . S
C363 H358 0.950 . S
C363 C365 1.327 . S
C363 C369 1.429 . S
C364 C356 1.574 . S
C364 H359 0.949 . S
C364 C370 1.368 . S
C365 C349 1.349 . S
C365 H357 0.950 . S
C365 C363 1.327 . S
C366 C354 1.349 . S
C366 H360 0.950 1_655 S
C366 C367 1.327 . S
C367 H361 0.950 . S
C367 C366 1.327 . S
C367 C371 1.429 . S
C368 C351 1.574 . S
C368 H362 0.949 . S
C368 C372 1.368 . S
C369 C350 1.429 . S
C369 C363 1.429 . S
C369 C370 1.523 . S
C370 C351 1.368 . S
C370 C364 1.368 . S
C370 C369 1.523 . S
C371 C355 1.429 . S
C371 C367 1.429 . S
C371 C372 1.523 . S
C372 C356 1.368 . S
C372 C368 1.368 . S
C372 C371 1.523 . S
H373 C348 0.950 . S
H374 C350 0.950 . S
H375 C351 0.949 . S
H376 C353 0.950 . S
H377 C355 0.950 . S
C378 C379 1.349 . S
C378 C380 1.327 . S
C378 H403 0.950 . S
C379 C378 1.349 . S
C379 C395 1.349 . S
C380 C378 1.327 . S
C380 C399 1.429 . S
C380 H404 0.950 . S
C381 C398 1.574 . S
C381 C400 1.368 . S
C381 H405 0.949 . S
H382 C386 0.949 . S
C383 C384 1.349 . S
C383 C385 1.327 . S
C383 H406 0.950 . S
C384 C383 1.349 . S
C384 C396 1.349 . S
C385 C383 1.327 . S
C385 C401 1.429 . S
C385 H407 0.950 . S
C386 H382 0.949 . S
C386 C394 1.574 . S
C386 C402 1.368 . S
H387 C395 0.950 . S
H388 C393 0.950 . S
H389 C394 0.949 . S
H390 C396 0.950 . S
H391 C397 0.950 . S
H392 C398 0.949 . S
C393 H388 0.950 . S
C393 C395 1.327 . S
C393 C399 1.429 . S
C394 C386 1.574 . S
C394 H389 0.949 . S
C394 C400 1.368 . S
C395 C379 1.349 . S
C395 H387 0.950 . S
C395 C393 1.327 . S
C396 C384 1.349 . S
C396 H390 0.950 . S
C396 C397 1.327 . S
C397 H391 0.950 . S
C397 C396 1.327 . S
C397 C401 1.429 . S
C398 C381 1.574 . S
C398 H392 0.949 . S
C398 C402 1.368 . S
C399 C380 1.429 . S
C399 C393 1.429 . S
C399 C400 1.523 . S
C400 C381 1.368 . S
C400 C394 1.368 . S
C400 C399 1.523 . S
C401 C385 1.429 . S
C401 C397 1.429 . S
C401 C402 1.523 . S
C402 C386 1.368 . S
C402 C398 1.368 . S
C402 C401 1.523 . S
H403 C378 0.950 . S
H404 C380 0.950 . S
H405 C381 0.949 . S
H406 C383 0.950 . S
H407 C385 0.950 . S
C408 C409 1.349 . S
C408 C410 1.327 . S
C408 H433 0.950 . S
C409 C408 1.349 . S
C409 C425 1.349 . S
C410 C408 1.327 . S
C410 C429 1.429 . S
C410 H434 0.950 . S
C411 C428 1.574 . S
C411 C430 1.368 . S
C411 H435 0.949 . S
H412 C416 0.949 . S
C413 C414 1.349 . S
C413 C415 1.327 . S
C413 H436 0.950 . S
C414 C413 1.349 . S
C414 C426 1.349 . S
C415 C413 1.327 . S
C415 C431 1.429 . S
C415 H437 0.950 . S
C416 H412 0.949 . S
C416 C424 1.574 . S
C416 C432 1.368 . S
H417 C425 0.950 . S
H418 C423 0.950 . S
H419 C424 0.949 . S
H420 C426 0.950 . S
H421 C427 0.950 . S
H422 C428 0.949 . S
C423 H418 0.950 . S
C423 C425 1.327 . S
C423 C429 1.429 . S
C424 C416 1.574 . S
C424 H419 0.949 . S
C424 C430 1.368 . S
C425 C409 1.349 . S
C425 H417 0.950 . S
C425 C423 1.327 . S
C426 C414 1.349 . S
C426 H420 0.950 . S
C426 C427 1.327 . S
C427 H421 0.950 . S
C427 C426 1.327 . S
C427 C431 1.429 . S
C428 C411 1.574 . S
C428 H422 0.949 . S
C428 C432 1.368 . S
C429 C410 1.429 . S
C429 C423 1.429 . S
C429 C430 1.523 . S
C430 C411 1.368 . S
C430 C424 1.368 . S
C430 C429 1.523 . S
C431 C415 1.429 . S
C431 C427 1.429 . S
C431 C432 1.523 . S
C432 C416 1.368 . S
C432 C428 1.368 . S
C432 C431 1.523 . S
H433 C408 0.950 . S
H434 C410 0.950 . S
H435 C411 0.949 . S
H436 C413 0.950 . S
H437 C415 0.950 . S
C438 C439 1.349 . S
C438 C440 1.327 . S
C438 H463 0.950 . S
C439 C438 1.349 . S
C439 C455 1.349 . S
C440 C438 1.327 . S
C440 C459 1.429 . S
C440 H464 0.950 . S
C441 C458 1.574 . S
C441 C460 1.368 . S
C441 H465 0.949 . S
H442 C446 0.949 . S
C443 C444 1.349 . S
C443 C445 1.327 . S
C443 H466 0.950 . S
C444 C443 1.349 . S
C444 C456 1.349 . S
C445 C443 1.327 . S
C445 C461 1.429 . S
C445 H467 0.950 . S
C446 H442 0.949 . S
C446 C454 1.574 . S
C446 C462 1.368 . S
H447 C455 0.950 . S
H448 C453 0.950 . S
H449 C454 0.949 . S
H450 C456 0.950 . S
H451 C457 0.950 . S
H452 C458 0.949 . S
C453 H448 0.950 . S
C453 C455 1.327 . S
C453 C459 1.429 . S
C454 C446 1.574 . S
C454 H449 0.949 . S
C454 C460 1.368 . S
C455 C439 1.349 . S
C455 H447 0.950 . S
C455 C453 1.327 . S
C456 C444 1.349 . S
C456 H450 0.950 . S
C456 C457 1.327 . S
C457 H451 0.950 . S
C457 C456 1.327 . S
C457 C461 1.429 . S
C458 C441 1.574 . S
C458 H452 0.949 . S
C458 C462 1.368 . S
C459 C440 1.429 . S
C459 C453 1.429 . S
C459 C460 1.523 . S
C460 C441 1.368 . S
C460 C454 1.368 . S
C460 C459 1.523 . S
C461 C445 1.429 . S
C461 C457 1.429 . S
C461 C462 1.523 . S
C462 C446 1.368 . S
C462 C458 1.368 . S
C462 C461 1.523 . S
H463 C438 0.950 . S
H464 C440 0.950 . S
H465 C441 0.949 . S
H466 C443 0.950 . S
H467 C445 0.950 . S
C468 C469 1.349 . S
C468 C470 1.327 . S
C468 H493 0.950 . S
C469 C468 1.349 . S
C469 C485 1.349 . S
C470 C468 1.327 . S
C470 C489 1.429 . S
C470 H494 0.950 . S
C471 C488 1.574 . S
C471 C490 1.368 . S
C471 H495 0.949 . S
H472 C476 0.949 . S
C473 C474 1.349 . S
C473 C475 1.327 . S
C473 H496 0.950 . S
C474 C473 1.349 . S
C474 C486 1.349 . S
C475 C473 1.327 . S
C475 C491 1.429 . S
C475 H497 0.950 . S
C476 H472 0.949 . S
C476 C484 1.574 . S
C476 C492 1.368 . S
H477 C485 0.950 . S
H478 C483 0.950 . S
H479 C484 0.949 . S
H480 C486 0.950 . S
H481 C487 0.950 . S
H482 C488 0.949 . S
C483 H478 0.950 . S
C483 C485 1.327 . S
C483 C489 1.429 . S
C484 C476 1.574 . S
C484 H479 0.949 . S
C484 C490 1.368 . S
C485 C469 1.349 . S
C485 H477 0.950 . S
C485 C483 1.327 . S
C486 C474 1.349 . S
C486 H480 0.950 . S
C486 C487 1.327 . S
C487 H481 0.950 . S
C487 C486 1.327 . S
C487 C491 1.429 . S
C488 C471 1.574 . S
C488 H482 0.949 . S
C488 C492 1.368 . S
C489 C470 1.429 . S
C489 C483 1.429 . S
C489 C490 1.523 . S
C490 C471 1.368 . S
C490 C484 1.368 . S
C490 C489 1.523 . S
C491 C475 1.429 . S
C491 C487 1.429 . S
C491 C492 1.523 . S
C492 C476 1.368 . S
C492 C488 1.368 . S
C492 C491 1.523 . S
H493 C468 0.950 . S
H494 C470 0.950 . S
H495 C471 0.949 . S
H496 C473 0.950 . S
H497 C475 0.950 . S
C498 C499 1.349 . S
C498 C500 1.327 . S
C498 H523 0.950 . S
C499 C498 1.349 . S
C499 C515 1.349 1_455 S
C500 C498 1.327 . S
C500 C519 1.429 . S
C500 H524 0.950 . S
C501 C518 1.574 1_554 S
C501 C520 1.379 . S
C501 H525 0.939 1_455 S
H502 C506 0.935 1_556 S
C503 C504 1.349 . S
C503 C505 1.327 . S
C503 H526 0.966 . S
C504 C503 1.349 . S
C504 C516 1.349 . S
C505 C503 1.327 . S
C505 C521 1.429 . S
C505 H527 0.950 1_455 S
C506 H502 0.935 1_554 S
C506 C514 1.610 . S
C506 C522 1.349 1_554 S
H507 C515 0.950 . S
H508 C513 0.950 . S
H509 C514 0.949 . S
H510 C516 0.950 . S
H511 C517 0.950 . S
H512 C518 0.949 1_655 S
C513 H508 0.950 . S
C513 C515 1.327 . S
C513 C519 1.429 1_655 S
C514 C506 1.610 . S
C514 H509 0.949 . S
C514 C520 1.368 . S
C515 C499 1.349 1_655 S
C515 H507 0.950 . S
C515 C513 1.327 . S
C516 C504 1.349 . S
C516 H510 0.950 . S
C516 C517 1.327 . S
C517 H511 0.950 . S
C517 C516 1.327 . S
C517 C521 1.429 . S
C518 C501 1.574 1_556 S
C518 H512 0.949 1_455 S
C518 C522 1.368 . S
C519 C500 1.429 . S
C519 C513 1.429 1_455 S
C519 C520 1.523 . S
C520 C501 1.379 . S
C520 C514 1.368 . S
C520 C519 1.523 . S
C521 C505 1.429 . S
C521 C517 1.429 . S
C521 C522 1.523 . S
C522 C506 1.349 1_556 S
C522 C518 1.368 . S
C522 C521 1.523 . S
H523 C498 0.950 . S
H524 C500 0.950 . S
H525 C501 0.939 1_655 S
H526 C503 0.966 . S
H527 C505 0.950 1_655 S
C528 C529 1.349 . S
C528 C530 1.327 . S
C528 H553 0.950 . S
C529 C528 1.349 . S
C529 C545 1.349 . S
C530 C528 1.327 . S
C530 C549 1.429 . S
C530 H554 0.950 . S
C531 C548 1.574 . S
C531 C550 1.368 . S
C531 H555 0.949 1_545 S
H532 C536 0.949 . S
C533 C534 1.341 1_565 S
C533 C535 1.325 1_565 S
C533 H556 0.961 . S
C534 C533 1.341 1_545 S
C534 C546 1.349 . S
C535 C533 1.325 1_545 S
C535 C551 1.429 . S
C535 H557 0.950 1_545 S
C536 H532 0.949 . S
C536 C544 1.574 . S
C536 C552 1.368 . S
H537 C545 0.950 . S
H538 C543 0.950 . S
H539 C544 0.949 . S
H540 C546 0.950 . S
H541 C547 0.950 . S
H542 C548 0.949 1_565 S
C543 H538 0.950 . S
C543 C545 1.327 . S
C543 C549 1.429 . S
C544 C536 1.574 . S
C544 H539 0.949 . S
C544 C550 1.368 . S
C545 C529 1.349 . S
C545 H537 0.950 . S
C545 C543 1.327 . S
C546 C534 1.349 . S
C546 H540 0.950 . S
C546 C547 1.327 . S
C547 H541 0.950 . S
C547 C546 1.327 . S
C547 C551 1.429 . S
C548 C531 1.574 . S
C548 H542 0.949 1_545 S
C548 C552 1.368 . S
C549 C530 1.429 . S
C549 C543 1.429 . S
C549 C550 1.523 . S
C550 C531 1.368 . S
C550 C544 1.368 . S
C550 C549 1.523 . S
C551 C535 1.429 . S
C551 C547 1.429 . S
C551 C552 1.523 . S
C552 C536 1.368 . S
C552 C548 1.368 . S
C552 C551 1.523 . S
H553 C528 0.950 . S
H554 C530 0.950 . S
H555 C531 0.949 1_565 S
H556 C533 0.961 . S
H557 C535 0.950 1_565 S
C558 C559 1.349 . S
C558 C560 1.327 . S
C558 H583 0.950 . S
C559 C558 1.349 . S
C559 C575 1.349 . S
C560 C558 1.327 . S
C560 C579 1.429 . S
C560 H584 0.950 . S
C561 C578 1.574 . S
C561 C580 1.368 . S
C561 H585 0.949 . S
H562 C566 0.949 . S
C563 C564 1.349 . S
C563 C565 1.327 . S
C563 H586 0.950 . S
C564 C563 1.349 . S
C564 C576 1.349 . S
C565 C563 1.327 . S
C565 C581 1.429 . S
C565 H587 0.950 . S
C566 H562 0.949 . S
C566 C574 1.574 . S
C566 C582 1.368 . S
H567 C575 0.950 . S
H568 C573 0.950 . S
H569 C574 0.949 . S
H570 C576 0.950 . S
H571 C577 0.950 . S
H572 C578 0.949 . S
C573 H568 0.950 . S
C573 C575 1.327 . S
C573 C579 1.429 . S
C574 C566 1.574 . S
C574 H569 0.949 . S
C574 C580 1.368 . S
C575 C559 1.349 . S
C575 H567 0.950 . S
C575 C573 1.327 . S
C576 C564 1.349 . S
C576 H570 0.950 . S
C576 C577 1.327 . S
C577 H571 0.950 . S
C577 C576 1.327 . S
C577 C581 1.429 . S
C578 C561 1.574 . S
C578 H572 0.949 . S
C578 C582 1.368 . S
C579 C560 1.429 . S
C579 C573 1.429 . S
C579 C580 1.523 . S
C580 C561 1.368 . S
C580 C574 1.368 . S
C580 C579 1.523 . S
C581 C565 1.429 . S
C581 C577 1.429 . S
C581 C582 1.523 . S
C582 C566 1.368 . S
C582 C578 1.368 . S
C582 C581 1.523 . S
H583 C558 0.950 . S
H584 C560 0.950 . S
H585 C561 0.949 . S
H586 C563 0.950 . S
H587 C565 0.950 . S
C588 C589 1.349 . S
C588 C590 1.327 . S
C588 H613 0.950 . S
C589 C588 1.349 . S
C589 C605 1.349 . S
C590 C588 1.327 . S
C590 C609 1.429 . S
C590 H614 0.950 . S
C591 C608 1.574 . S
C591 C610 1.368 . S
C591 H615 0.949 . S
H592 C596 0.949 . S
C593 C594 1.349 . S
C593 C595 1.327 . S
C593 H616 0.950 . S
C594 C593 1.349 . S
C594 C606 1.349 . S
C595 C593 1.327 . S
C595 C611 1.429 . S
C595 H617 0.950 . S
C596 H592 0.949 . S
C596 C604 1.574 . S
C596 C612 1.368 . S
H597 C605 0.950 . S
H598 C603 0.950 . S
H599 C604 0.949 . S
H600 C606 0.950 . S
H601 C607 0.950 . S
H602 C608 0.949 . S
C603 H598 0.950 . S
C603 C605 1.327 . S
C603 C609 1.429 . S
C604 C596 1.574 . S
C604 H599 0.949 . S
C604 C610 1.368 . S
C605 C589 1.349 . S
C605 H597 0.950 . S
C605 C603 1.327 . S
C606 C594 1.349 . S
C606 H600 0.950 . S
C606 C607 1.327 . S
C607 H601 0.950 . S
C607 C606 1.327 . S
C607 C611 1.429 . S
C608 C591 1.574 . S
C608 H602 0.949 . S
C608 C612 1.368 . S
C609 C590 1.429 . S
C609 C603 1.429 . S
C609 C610 1.523 . S
C610 C591 1.368 . S
C610 C604 1.368 . S
C610 C609 1.523 . S
C611 C595 1.429 . S
C611 C607 1.429 . S
C611 C612 1.523 . S
C612 C596 1.368 . S
C612 C608 1.368 . S
C612 C611 1.523 . S
H613 C588 0.950 . S
H614 C590 0.950 . S
H615 C591 0.949 . S
H616 C593 0.950 . S
H617 C595 0.950 . S
C618 C619 1.349 . S
C618 C620 1.327 . S
C618 H643 0.950 . S
C619 C618 1.349 . S
C619 C635 1.349 . S
C620 C618 1.327 . S
C620 C639 1.429 . S
C620 H644 0.950 . S
C621 C638 1.574 1_556 S
C621 C640 1.368 . S
C621 H645 0.949 . S
H622 C626 0.949 . S
C623 C624 1.349 . S
C623 C625 1.327 . S
C623 H646 0.950 . S
C624 C623 1.349 . S
C624 C636 1.349 . S
C625 C623 1.327 . S
C625 C641 1.429 . S
C625 H647 0.950 . S
C626 H622 0.949 . S
C626 C634 1.574 1_554 S
C626 C642 1.368 . S
H627 C635 0.950 . S
H628 C633 0.950 . S
H629 C634 0.949 . S
H630 C636 0.950 . S
H631 C637 0.950 . S
H632 C638 0.949 . S
C633 H628 0.950 . S
C633 C635 1.327 . S
C633 C639 1.429 . S
C634 C626 1.574 1_556 S
C634 H629 0.949 . S
C634 C640 1.368 . S
C635 C619 1.349 . S
C635 H627 0.950 . S
C635 C633 1.327 . S
C636 C624 1.349 . S
C636 H630 0.950 . S
C636 C637 1.327 . S
C637 H631 0.950 . S
C637 C636 1.327 . S
C637 C641 1.429 . S
C638 C621 1.574 1_554 S
C638 H632 0.949 . S
C638 C642 1.368 . S
C639 C620 1.429 . S
C639 C633 1.429 . S
C639 C640 1.523 . S
C640 C621 1.368 . S
C640 C634 1.368 . S
C640 C639 1.523 . S
C641 C625 1.429 . S
C641 C637 1.429 . S
C641 C642 1.523 . S
C642 C626 1.368 . S
C642 C638 1.368 . S
C642 C641 1.523 . S
H643 C618 0.950 . S
H644 C620 0.950 . S
H645 C621 0.949 . S
H646 C623 0.950 . S
H647 C625 0.950 . S
C648 C649 1.349 . S
C648 C650 1.327 . S
C648 H673 0.950 . S
C649 C648 1.349 . S
C649 C665 1.349 . S
C650 C648 1.327 . S
C650 C669 1.429 . S
C650 H674 0.950 . S
C651 C668 1.574 . S
C651 C670 1.368 . S
C651 H675 0.949 . S
H652 C656 0.949 . S
C653 C654 1.349 . S
C653 C655 1.327 . S
C653 H676 0.950 . S
C654 C653 1.349 . S
C654 C666 1.349 . S
C655 C653 1.327 . S
C655 C671 1.429 . S
C655 H677 0.950 . S
C656 H652 0.949 . S
C656 C664 1.574 . S
C656 C672 1.368 . S
H657 C665 0.951 1_655 S
H658 C663 0.950 . S
H659 C664 0.949 . S
H660 C666 0.950 . S
H661 C667 0.950 . S
H662 C668 0.949 . S
C663 H658 0.950 . S
C663 C665 1.327 . S
C663 C669 1.429 . S
C664 C656 1.574 . S
C664 H659 0.949 . S
C664 C670 1.368 . S
C665 C649 1.349 . S
C665 H657 0.951 1_455 S
C665 C663 1.327 . S
C666 C654 1.349 . S
C666 H660 0.950 . S
C666 C667 1.327 . S
C667 H661 0.950 . S
C667 C666 1.327 . S
C667 C671 1.429 . S
C668 C651 1.574 . S
C668 H662 0.949 . S
C668 C672 1.368 . S
C669 C650 1.429 . S
C669 C663 1.429 . S
C669 C670 1.523 . S
C670 C651 1.368 . S
C670 C664 1.368 . S
C670 C669 1.523 . S
C671 C655 1.429 . S
C671 C667 1.429 . S
C671 C672 1.523 . S
C672 C656 1.368 . S
C672 C668 1.368 . S
C672 C671 1.523 . S
H673 C648 0.950 . S
H674 C650 0.950 . S
H675 C651 0.949 . S
H676 C653 0.950 . S
H677 C655 0.950 . S
C139 C2 0.711 . S
C144 N127 0.713 . S
C169 C21 0.858 . S
C174 N100 0.861 1_655 S
C199 C42 0.939 . S
C204 N113 0.942 . S
C229 C1 1.265 . S
C234 N126 1.298 . S
C264 N101 1.123 . S
C259 C22 1.115 . S
C294 N114 1.019 . S
C289 C41 1.006 . S
C319 C38 1.697 . S
C324 N74 1.710 . S
C349 C59 1.574 . S
C354 N88 1.546 1_655 S
C379 C18 1.865 . S
C384 N62 1.875 . S
C414 N75 1.958 . S
C409 C39 1.979 . S
C444 N87 2.166 . S
C439 C58 2.129 . S
C469 C19 1.792 . S
C474 N61 1.791 . S
C504 N91 1.595 . S
C499 C9 1.561 . S
C529 C29 1.552 . S
C534 N65 1.564 . S
C559 C49 1.531 . S
C564 N78 1.612 . S
C594 N117 1.441 . S
C589 C28 1.407 . S
C624 N130 1.468 . S
C619 C48 1.474 . S
C649 C8 1.475 . S
C654 N104 1.492 . S
