# Generated by pormake.
# Topology llj, (12,3)-cn, num edge types: 1
# Building blocks:
#     Node 0, Type 0, BuildingBlock: QEWDON_clean_sbu_0, # of connection points: 12
#     Node 1, Type 0, BuildingBlock: QEWDON_clean_sbu_0, # of connection points: 12
#     Node 2, Type 1, BuildingBlock: CUQRIR_clean_linker_1, # of connection points: 3
#     Node 3, Type 1, BuildingBlock: CUQRIR_clean_linker_1, # of connection points: 3
#     Node 4, Type 1, BuildingBlock: CUQRIR_clean_linker_1, # of connection points: 3
#     Node 5, Type 1, BuildingBlock: CUQRIR_clean_linker_1, # of connection points: 3
#     Node 6, Type 1, BuildingBlock: CUQRIR_clean_linker_1, # of connection points: 3
#     Node 7, Type 1, BuildingBlock: CUQRIR_clean_linker_1, # of connection points: 3
#     Node 8, Type 1, BuildingBlock: CUQRIR_clean_linker_1, # of connection points: 3
#     Node 9, Type 1, BuildingBlock: CUQRIR_clean_linker_1, # of connection points: 3
#     Edge 10, Type (0, 1), BuildingBlock: KIFKEQ_clean_linker_1, # of connection points: 2
#     Edge 11, Type (0, 1), BuildingBlock: KIFKEQ_clean_linker_1, # of connection points: 2
#     Edge 12, Type (0, 1), BuildingBlock: KIFKEQ_clean_linker_1, # of connection points: 2
#     Edge 13, Type (0, 1), BuildingBlock: KIFKEQ_clean_linker_1, # of connection points: 2
#     Edge 14, Type (0, 1), BuildingBlock: KIFKEQ_clean_linker_1, # of connection points: 2
#     Edge 15, Type (0, 1), BuildingBlock: KIFKEQ_clean_linker_1, # of connection points: 2
#     Edge 16, Type (0, 1), BuildingBlock: KIFKEQ_clean_linker_1, # of connection points: 2
#     Edge 17, Type (0, 1), BuildingBlock: KIFKEQ_clean_linker_1, # of connection points: 2
#     Edge 18, Type (0, 1), BuildingBlock: KIFKEQ_clean_linker_1, # of connection points: 2
#     Edge 19, Type (0, 1), BuildingBlock: KIFKEQ_clean_linker_1, # of connection points: 2
#     Edge 20, Type (0, 1), BuildingBlock: KIFKEQ_clean_linker_1, # of connection points: 2
#     Edge 21, Type (0, 1), BuildingBlock: KIFKEQ_clean_linker_1, # of connection points: 2
#     Edge 22, Type (0, 1), BuildingBlock: KIFKEQ_clean_linker_1, # of connection points: 2
#     Edge 23, Type (0, 1), BuildingBlock: KIFKEQ_clean_linker_1, # of connection points: 2
#     Edge 24, Type (0, 1), BuildingBlock: KIFKEQ_clean_linker_1, # of connection points: 2
#     Edge 25, Type (0, 1), BuildingBlock: KIFKEQ_clean_linker_1, # of connection points: 2
#     Edge 26, Type (0, 1), BuildingBlock: KIFKEQ_clean_linker_1, # of connection points: 2
#     Edge 27, Type (0, 1), BuildingBlock: KIFKEQ_clean_linker_1, # of connection points: 2
#     Edge 28, Type (0, 1), BuildingBlock: KIFKEQ_clean_linker_1, # of connection points: 2
#     Edge 29, Type (0, 1), BuildingBlock: KIFKEQ_clean_linker_1, # of connection points: 2
#     Edge 30, Type (0, 1), BuildingBlock: KIFKEQ_clean_linker_1, # of connection points: 2
#     Edge 31, Type (0, 1), BuildingBlock: KIFKEQ_clean_linker_1, # of connection points: 2
#     Edge 32, Type (0, 1), BuildingBlock: KIFKEQ_clean_linker_1, # of connection points: 2
#     Edge 33, Type (0, 1), BuildingBlock: KIFKEQ_clean_linker_1, # of connection points: 2
# Relax obj value: 0.011
# Max RMSD: 0.116
# Mean RMSD: 0.100
data_MOF--net-llj--node1-QEWDON_clean_sbu_0--node2-CUQRIR_clean_linker_1--edge1-KIFKEQ_clean_linker_1
_symmetry_space_group_name_H-M    P1
_symmetry_Int_Tables_number       1
_symmetry_cell_setting            triclinic
loop_
_symmetry_equiv_pos_as_xyz
'x, y, z'
_cell_length_a     37.681427
_cell_length_b     37.672684
_cell_length_c     23.141627
_cell_angle_alpha  90.023336
_cell_angle_beta   90.024876
_cell_angle_gamma 89.922952
loop_
_atom_site_label
_atom_site_type_symbol
_atom_site_fract_x
_atom_site_fract_y
_atom_site_fract_z
_atom_type_partial_charge
Zn0 Zn 0.94945 0.0755 0.95185 0.0
Zn1 Zn 0.94661 0.06855 0.08967 0.0
O2 O 0.97808 0.06025 0.02133 0.0
H3 H 0.99576 0.04172 0.01916 0.0
C4 C 0.93358 0.98113 0.83914 0.0
O5 O 0.96207 0.99213 0.86654 0.0
Zn6 Zn 0.04707 0.93483 0.09143 0.0
Zn7 Zn 0.04513 0.93414 0.9535 0.0
O8 O 0.01563 0.94599 0.02388 0.0
H9 H 0.9979 0.96452 0.02385 0.0
Zn10 Zn 0.92447 0.93871 0.94514 0.0
O11 O 0.92666 0.97429 0.01095 0.0
Zn12 Zn 0.92051 0.94489 0.08275 0.0
H13 H 0.93743 0.99743 0.00741 0.0
Zn14 Zn 0.08065 0.05484 0.94992 0.0
O15 O 0.06737 0.02531 0.01901 0.0
H16 H 0.05117 0.0056 0.01593 0.0
Zn17 Zn 0.07396 0.05676 0.08766 0.0
C18 C 0.09082 0.99621 0.87256 0.0
O19 O 0.09556 0.98115 0.92316 0.0
O20 O 0.90756 0.10757 0.97335 0.0
O21 O 0.90614 0.10304 0.06933 0.0
O22 O 0.08538 0.89899 0.97178 0.0
O23 O 0.08532 0.89872 0.06801 0.0
O24 O 0.89689 0.89405 0.96835 0.0
O25 O 0.89089 0.90088 0.06346 0.0
C26 C 0.00975 0.08591 0.15502 0.0
O27 O 0.11283 0.09685 0.97081 0.0
O28 O 0.10705 0.09823 0.06666 0.0
O29 O 0.01888 0.92874 0.87517 0.0
C30 C 0.89402 0.11582 0.022 0.0
O31 O 0.97602 0.08485 0.8748 0.0
C32 C 0.98364 0.91979 0.15643 0.0
O33 O 0.91368 0.95829 0.86315 0.0
C34 C 0.09759 0.88765 0.01972 0.0
O35 O 0.08451 0.02929 0.87063 0.0
C36 C 0.90774 0.00717 0.149 0.0
O37 O 0.97607 0.08834 0.15556 0.0
O38 O 0.02446 0.07275 0.11031 0.0
C39 C 0.88479 0.88367 0.01689 0.0
O40 O 0.01725 0.91719 0.15849 0.0
O41 O 0.96967 0.93101 0.10974 0.0
C42 C 0.08607 0.99495 0.15626 0.0
O43 O 0.89857 0.97477 0.14617 0.0
O44 O 0.92711 0.01982 0.10907 0.0
C45 C 0.12016 0.11055 0.01977 0.0
O46 O 0.09374 0.02775 0.15399 0.0
O47 O 0.06914 0.98165 0.11391 0.0
C48 C 0.99471 0.90533 0.87443 0.0
O49 O 0.98835 0.88734 0.92196 0.0
C50 C 0.00842 0.09397 0.87741 0.0
O51 O 0.02346 0.09733 0.92834 0.0
Zn52 Zn 0.44493 0.57991 0.44086 0.0
Zn53 Zn 0.44548 0.57323 0.57868 0.0
O54 O 0.47575 0.56663 0.50836 0.0
H55 H 0.49464 0.54948 0.50419 0.0
C56 C 0.40382 0.50934 0.36352 0.0
O57 O 0.40229 0.52548 0.41377 0.0
Zn58 Zn 0.55356 0.42513 0.57856 0.0
Zn59 Zn 0.55862 0.41892 0.44198 0.0
O60 O 0.52375 0.42805 0.5067 0.0
H61 H 0.50265 0.4423 0.50166 0.0
Zn62 Zn 0.42169 0.45046 0.43983 0.0
O63 O 0.43729 0.47909 0.50907 0.0
Zn64 Zn 0.42932 0.4484 0.57873 0.0
H65 H 0.45577 0.49672 0.50613 0.0
Zn66 Zn 0.57547 0.55349 0.43928 0.0
O67 O 0.56254 0.5218 0.50646 0.0
H68 H 0.54581 0.50254 0.50237 0.0
Zn69 Zn 0.56939 0.55147 0.57734 0.0
C70 C 0.59309 0.49678 0.361 0.0
O71 O 0.59744 0.48141 0.41147 0.0
O72 O 0.40234 0.61045 0.46454 0.0
O73 O 0.40305 0.60554 0.56062 0.0
O74 O 0.60132 0.38961 0.46966 0.0
O75 O 0.59672 0.393 0.56549 0.0
O76 O 0.39236 0.40683 0.4623 0.0
O77 O 0.3977 0.406 0.55827 0.0
C78 C 0.50826 0.58494 0.64258 0.0
O79 O 0.60395 0.59773 0.46356 0.0
O80 O 0.60122 0.59412 0.55968 0.0
O81 O 0.53809 0.40782 0.36058 0.0
C82 C 0.38942 0.61784 0.51404 0.0
O83 O 0.46934 0.58604 0.36104 0.0
C84 C 0.49119 0.41509 0.64535 0.0
O85 O 0.41138 0.47646 0.36218 0.0
C86 C 0.61232 0.3815 0.52008 0.0
O87 O 0.58386 0.5292 0.3596 0.0
C88 C 0.41239 0.5108 0.64221 0.0
O89 O 0.4755 0.59289 0.64345 0.0
O90 O 0.52042 0.568 0.59952 0.0
C91 C 0.38543 0.39297 0.51126 0.0
O92 O 0.52395 0.40713 0.6449 0.0
O93 O 0.47836 0.43195 0.60261 0.0
C94 C 0.58414 0.4882 0.64006 0.0
O95 O 0.40666 0.4776 0.64233 0.0
O96 O 0.4297 0.52404 0.60041 0.0
C97 C 0.61196 0.6095 0.51359 0.0
O98 O 0.58977 0.52141 0.64165 0.0
O99 O 0.56825 0.47516 0.59663 0.0
C100 C 0.51791 0.42965 0.33456 0.0
O101 O 0.51005 0.45994 0.35968 0.0
C102 C 0.50231 0.5929 0.3626 0.0
O103 O 0.5178 0.59653 0.41312 0.0
C104 C 0.31733 0.3177 0.97253 0.0
N105 N 0.3468 0.3369 0.9842 0.0
N106 N 0.30503 0.30187 0.02104 0.0
C107 C 0.30217 0.31237 0.91295 0.0
C108 C 0.32824 0.31186 0.06259 0.0
N109 N 0.35396 0.33286 0.04005 0.0
C110 C 0.32621 0.30017 0.12466 0.0
H111 H 0.29496 0.33842 0.89403 0.0
H112 H 0.27816 0.29541 0.91335 0.0
H113 H 0.32263 0.3002 0.88467 0.0
H114 H 0.29839 0.29519 0.13779 0.0
H115 H 0.33788 0.32045 0.15378 0.0
H116 H 0.34124 0.27502 0.12974 0.0
C117 C 0.69298 0.31984 0.96311 0.0
N118 N 0.66943 0.34562 0.97654 0.0
N119 N 0.70359 0.3024 0.01131 0.0
C120 C 0.70501 0.31134 0.9027 0.0
C121 C 0.68545 0.31853 0.05454 0.0
N122 N 0.6644 0.34466 0.03328 0.0
C123 C 0.69111 0.31128 0.11786 0.0
H124 H 0.68344 0.31657 0.87115 0.0
H125 H 0.71351 0.28321 0.8991 0.0
H126 H 0.72777 0.32867 0.89152 0.0
H127 H 0.71789 0.30009 0.12601 0.0
H128 H 0.67101 0.29179 0.13262 0.0
H129 H 0.68793 0.33587 0.14375 0.0
C130 C 0.68442 0.67598 0.05467 0.0
N131 N 0.65764 0.65553 0.03445 0.0
N132 N 0.70296 0.69033 0.01032 0.0
C133 C 0.69039 0.68454 0.11747 0.0
C134 C 0.68643 0.67779 0.96249 0.0
N135 N 0.65887 0.65679 0.97721 0.0
C136 C 0.69682 0.68633 0.90129 0.0
H137 H 0.70081 0.71189 0.12272 0.0
H138 H 0.71022 0.66571 0.13531 0.0
H139 H 0.66552 0.68189 0.14273 0.0
H140 H 0.69221 0.66317 0.87266 0.0
H141 H 0.72512 0.69423 0.89859 0.0
H142 H 0.68007 0.70853 0.88542 0.0
C143 C 0.3004 0.68028 0.0502 0.0
N144 N 0.32194 0.65415 0.03054 0.0
N145 N 0.28448 0.69727 0.00557 0.0
C146 C 0.29293 0.68741 0.11303 0.0
C147 C 0.29715 0.68045 0.95806 0.0
N148 N 0.31977 0.65416 0.9733 0.0
C149 C 0.28753 0.68966 0.89677 0.0
H150 H 0.26558 0.69768 0.11911 0.0
H151 H 0.3119 0.70767 0.12899 0.0
H152 H 0.29638 0.66302 0.13931 0.0
H153 H 0.27929 0.71786 0.89317 0.0
H154 H 0.26516 0.67257 0.88279 0.0
H155 H 0.31016 0.6847 0.86722 0.0
C156 C 0.80589 0.8213 0.47511 0.0
N157 N 0.83486 0.84061 0.48998 0.0
N158 N 0.79167 0.80535 0.52224 0.0
C159 C 0.79397 0.81471 0.41392 0.0
C160 C 0.81314 0.81553 0.5661 0.0
N161 N 0.83953 0.83662 0.54648 0.0
C162 C 0.80774 0.80582 0.62856 0.0
H163 H 0.77412 0.83518 0.40185 0.0
H164 H 0.78148 0.78821 0.40951 0.0
H165 H 0.81656 0.81646 0.38332 0.0
H166 H 0.82383 0.78196 0.63879 0.0
H167 H 0.77943 0.79986 0.63745 0.0
H168 H 0.81662 0.82772 0.6572 0.0
C169 C 0.17729 0.81476 0.56385 0.0
N170 N 0.15671 0.84184 0.54467 0.0
N171 N 0.19466 0.79923 0.51921 0.0
C172 C 0.18336 0.80601 0.62656 0.0
C173 C 0.184 0.81796 0.47236 0.0
N174 N 0.16122 0.84392 0.48793 0.0
C175 C 0.19554 0.81085 0.41123 0.0
H176 H 0.21018 0.7946 0.63348 0.0
H177 H 0.16337 0.78615 0.64035 0.0
H178 H 0.18035 0.82993 0.65411 0.0
H179 H 0.20393 0.78281 0.40569 0.0
H180 H 0.21823 0.82841 0.40061 0.0
H181 H 0.17371 0.81688 0.38053 0.0
C182 C 0.1863 0.18488 0.56222 0.0
N183 N 0.15912 0.1641 0.54445 0.0
N184 N 0.20294 0.19966 0.51627 0.0
C185 C 0.19452 0.19329 0.62439 0.0
C186 C 0.18481 0.18712 0.47002 0.0
N187 N 0.15812 0.1657 0.48721 0.0
C188 C 0.19294 0.1959 0.40802 0.0
H189 H 0.17054 0.19076 0.65187 0.0
H190 H 0.20529 0.22055 0.62883 0.0
H191 H 0.21479 0.17427 0.64029 0.0
H192 H 0.18742 0.17282 0.37965 0.0
H193 H 0.22105 0.20399 0.40275 0.0
H194 H 0.17555 0.21808 0.394 0.0
C195 C 0.8091 0.16833 0.57199 0.0
N196 N 0.82958 0.14255 0.54819 0.0
N197 N 0.79834 0.19166 0.53106 0.0
C198 C 0.79855 0.17017 0.6346 0.0
C199 C 0.8132 0.17935 0.48171 0.0
N200 N 0.83247 0.14974 0.49221 0.0
C201 C 0.80667 0.19461 0.42253 0.0
H202 H 0.77385 0.15466 0.64091 0.0
H203 H 0.79326 0.19788 0.64815 0.0
H204 H 0.8196 0.1588 0.6626 0.0
H205 H 0.83205 0.19722 0.39872 0.0
H206 H 0.79382 0.22107 0.42475 0.0
H207 H 0.78945 0.1762 0.39774 0.0
H208 H 0.14075 0.14987 0.11417 0.0
H209 H 0.15748 0.13898 0.93009 0.0
H210 H 0.18545 0.19695 0.11717 0.0
H211 H 0.20174 0.18576 0.93341 0.0
H212 H 0.30848 0.23716 0.97377 0.0
H213 H 0.26258 0.19119 0.97565 0.0
H214 H 0.19597 0.25969 0.0791 0.0
H215 H 0.24227 0.3057 0.0765 0.0
C216 C 0.15375 0.15759 0.07438 0.0
C217 C 0.14566 0.14045 0.02197 0.0
C218 C 0.17923 0.18461 0.07612 0.0
C219 C 0.19728 0.19474 0.02562 0.0
C220 C 0.18866 0.1781 0.97318 0.0
C221 C 0.16311 0.1514 0.97131 0.0
C222 C 0.28398 0.24211 0.99689 0.0
C223 C 0.27852 0.27464 0.02481 0.0
C224 C 0.25774 0.21605 0.99788 0.0
C225 C 0.22561 0.22199 0.02721 0.0
C226 C 0.22055 0.25434 0.05646 0.0
C227 C 0.24681 0.28058 0.05498 0.0
H228 H 0.85279 0.13675 0.11428 0.0
H229 H 0.86847 0.15424 0.93135 0.0
H230 H 0.8059 0.18196 0.11446 0.0
H231 H 0.82202 0.1989 0.93189 0.0
H232 H 0.77016 0.30584 0.96992 0.0
H233 H 0.8158 0.25976 0.975 0.0
H234 H 0.74397 0.19264 0.07077 0.0
H235 H 0.69805 0.2389 0.06448 0.0
C236 C 0.84621 0.15006 0.07419 0.0
C237 C 0.86454 0.14194 0.02289 0.0
C238 C 0.8193 0.1758 0.07429 0.0
C239 C 0.81059 0.19412 0.02328 0.0
C240 C 0.82854 0.18559 0.97202 0.0
C241 C 0.85506 0.15978 0.97175 0.0
C242 C 0.76415 0.28109 0.99151 0.0
C243 C 0.73062 0.27553 0.01608 0.0
C244 C 0.79019 0.2548 0.99464 0.0
C245 C 0.78332 0.22253 0.02294 0.0
C246 C 0.75003 0.21734 0.04898 0.0
C247 C 0.72382 0.24362 0.04532 0.0
H248 H 0.85733 0.84818 0.92456 0.0
H249 H 0.85886 0.84806 0.11152 0.0
H250 H 0.81459 0.7999 0.92531 0.0
H251 H 0.816 0.79916 0.11177 0.0
H252 H 0.76421 0.68677 0.07064 0.0
H253 H 0.81078 0.73242 0.0754 0.0
H254 H 0.74931 0.79895 0.96095 0.0
H255 H 0.70263 0.754 0.95804 0.0
C256 C 0.84887 0.83766 0.96587 0.0
C257 C 0.8613 0.85223 0.01805 0.0
C258 C 0.82428 0.81009 0.96617 0.0
C259 C 0.81187 0.79613 0.01855 0.0
C260 C 0.82529 0.80952 0.07082 0.0
C261 C 0.84966 0.83754 0.07061 0.0
C262 C 0.76079 0.71132 0.04699 0.0
C263 C 0.73028 0.71687 0.01332 0.0
C264 C 0.78725 0.73731 0.04968 0.0
C265 C 0.78366 0.76893 0.01806 0.0
C266 C 0.75293 0.77452 0.98495 0.0
C267 C 0.72637 0.74885 0.98302 0.0
H268 H 0.12301 0.85162 0.92611 0.0
H269 H 0.13676 0.8621 0.11089 0.0
H270 H 0.16871 0.80599 0.92389 0.0
H271 H 0.1827 0.81614 0.10833 0.0
H272 H 0.28971 0.75971 0.06196 0.0
H273 H 0.24456 0.80663 0.06742 0.0
H274 H 0.17485 0.74366 0.96048 0.0
H275 H 0.21976 0.69675 0.95628 0.0
C276 C 0.1358 0.84427 0.96631 0.0
C277 C 0.12609 0.86048 0.01877 0.0
C278 C 0.16187 0.81795 0.96499 0.0
C279 C 0.17912 0.80739 0.01594 0.0
C280 C 0.16994 0.82393 0.06833 0.0
C281 C 0.14353 0.8501 0.0698 0.0
C282 C 0.26459 0.75602 0.04007 0.0
C283 C 0.25814 0.72493 0.00835 0.0
C284 C 0.23881 0.78271 0.0432 0.0
C285 C 0.20627 0.77884 0.01415 0.0
C286 C 0.19988 0.74759 0.9826 0.0
C287 C 0.2255 0.72084 0.98001 0.0
H288 H 0.64699 0.63453 0.60905 0.0
H289 H 0.62953 0.65604 0.42773 0.0
H290 H 0.6885 0.68424 0.61384 0.0
H291 H 0.67092 0.70563 0.43281 0.0
H292 H 0.72534 0.81166 0.47926 0.0
H293 H 0.67871 0.7661 0.47965 0.0
H294 H 0.74924 0.69472 0.57008 0.0
H295 H 0.79574 0.73985 0.56814 0.0
C296 C 0.65173 0.65001 0.57038 0.0
C297 C 0.63515 0.64112 0.5179 0.0
C298 C 0.6756 0.67836 0.57311 0.0
C299 C 0.68301 0.69868 0.52364 0.0
C300 C 0.66552 0.69059 0.47171 0.0
C301 C 0.642 0.66202 0.46878 0.0
C302 C 0.73063 0.78617 0.49909 0.0
C303 C 0.76386 0.7792 0.52403 0.0
C304 C 0.7041 0.7602 0.49941 0.0
C305 C 0.71031 0.72698 0.52528 0.0
C306 C 0.74348 0.72028 0.55078 0.0
C307 C 0.77005 0.74604 0.54978 0.0
H308 H 0.34912 0.63592 0.60879 0.0
H309 H 0.36032 0.65559 0.42552 0.0
H310 H 0.30062 0.67932 0.61269 0.0
H311 H 0.31234 0.69858 0.42984 0.0
H312 H 0.2608 0.80471 0.47707 0.0
H313 H 0.307 0.75913 0.4778 0.0
H314 H 0.23696 0.68866 0.57061 0.0
H315 H 0.19031 0.73443 0.56846 0.0
C316 C 0.3412 0.6493 0.56941 0.0
C317 C 0.3588 0.64246 0.51695 0.0
C318 C 0.31338 0.67397 0.57165 0.0
C319 C 0.30306 0.69246 0.52166 0.0
C320 C 0.32013 0.68504 0.46917 0.0
C321 C 0.34754 0.66025 0.46675 0.0
C322 C 0.25527 0.77932 0.497 0.0
C323 C 0.22202 0.77265 0.52182 0.0
C324 C 0.28162 0.75335 0.49766 0.0
C325 C 0.27537 0.72031 0.52384 0.0
C326 C 0.24243 0.71397 0.55032 0.0
C327 C 0.21585 0.73996 0.54905 0.0
H328 H 0.35018 0.36269 0.42098 0.0
H329 H 0.3657 0.35318 0.60558 0.0
H330 H 0.30736 0.31462 0.42381 0.0
H331 H 0.32241 0.30478 0.60805 0.0
H332 H 0.26671 0.19563 0.56894 0.0
H333 H 0.31313 0.24145 0.5699 0.0
H334 H 0.24619 0.30934 0.46605 0.0
H335 H 0.19998 0.2639 0.46628 0.0
C336 C 0.34465 0.35026 0.46219 0.0
C337 C 0.36123 0.36204 0.51318 0.0
C338 C 0.31995 0.3228 0.46375 0.0
C339 C 0.31134 0.30626 0.51619 0.0
C340 C 0.32868 0.31707 0.567 0.0
C341 C 0.35332 0.34485 0.56557 0.0
C342 C 0.26214 0.2205 0.54668 0.0
C343 C 0.2302 0.2263 0.51689 0.0
C344 C 0.28849 0.24662 0.54727 0.0
C345 C 0.28332 0.27876 0.51761 0.0
C346 C 0.25113 0.28456 0.4884 0.0
C347 C 0.22478 0.25864 0.48832 0.0
H348 H 0.64727 0.35968 0.61852 0.0
H349 H 0.64514 0.34558 0.433 0.0
H350 H 0.69324 0.31369 0.62577 0.0
H351 H 0.69049 0.30001 0.44066 0.0
H352 H 0.73361 0.19024 0.48372 0.0
H353 H 0.68931 0.23786 0.48466 0.0
H354 H 0.7587 0.30153 0.59104 0.0
H355 H 0.80327 0.25362 0.58901 0.0
C356 C 0.65672 0.34705 0.57937 0.0
C357 C 0.64228 0.35614 0.52524 0.0
C358 C 0.68305 0.32084 0.58357 0.0
C359 C 0.69498 0.30305 0.53384 0.0
C360 C 0.68132 0.31291 0.47977 0.0
C361 C 0.65544 0.33921 0.47547 0.0
C362 C 0.73909 0.21439 0.50747 0.0
C363 C 0.77155 0.21862 0.53615 0.0
C364 C 0.71397 0.24158 0.50796 0.0
C365 C 0.72076 0.27344 0.53758 0.0
C366 C 0.75279 0.27716 0.56814 0.0
C367 C 0.77816 0.24996 0.56705 0.0
H368 H 0.98385 0.10266 0.26171 0.0
H369 H 0.08191 0.09414 0.16673 0.0
H370 H 0.0171 0.11798 0.34875 0.0
H371 H 0.11515 0.10814 0.25382 0.0
H372 H 0.16463 0.10305 0.43352 0.0
H373 H 0.12661 0.08072 0.35509 0.0
H374 H 0.05714 0.171 0.37725 0.0
H375 H 0.09577 0.19328 0.45454 0.0
C376 C 0.0125 0.10349 0.2594 0.0
C377 C 0.03027 0.09594 0.2073 0.0
C378 C 0.03149 0.11231 0.30928 0.0
C379 C 0.06869 0.11356 0.30823 0.0
C380 C 0.08648 0.10642 0.25622 0.0
C381 C 0.06743 0.09817 0.20621 0.0
C382 C 0.14064 0.11733 0.42234 0.0
C383 C 0.13242 0.14931 0.45019 0.0
C384 C 0.11917 0.1049 0.37742 0.0
C385 C 0.08902 0.12423 0.36017 0.0
C386 C 0.07997 0.15539 0.39015 0.0
C387 C 0.10179 0.16803 0.43442 0.0
H388 H 0.95162 0.04057 0.22334 0.0
H389 H 0.8413 0.0185 0.19066 0.0
H390 H 0.93558 0.0729 0.31128 0.0
H391 H 0.82485 0.05132 0.27809 0.0
H392 H 0.80966 0.08437 0.46518 0.0
H393 H 0.82917 0.04794 0.38315 0.0
H394 H 0.90661 0.12805 0.33895 0.0
H395 H 0.88739 0.16357 0.42192 0.0
C396 C 0.92385 0.04383 0.23409 0.0
C397 C 0.89753 0.02852 0.19938 0.0
C398 C 0.91468 0.06196 0.28459 0.0
C399 C 0.87895 0.06507 0.30131 0.0
C400 C 0.85264 0.04921 0.26668 0.0
C401 C 0.86192 0.0308 0.2164 0.0
C402 C 0.83128 0.09357 0.43827 0.0
C403 C 0.84707 0.12655 0.44905 0.0
C404 C 0.84217 0.07309 0.39109 0.0
C405 C 0.86914 0.08532 0.35406 0.0
C406 C 0.88591 0.11777 0.3667 0.0
C407 C 0.87493 0.13817 0.41383 0.0
H408 H 0.91245 0.90548 0.16374 0.0
H409 H 0.00699 0.91453 0.26777 0.0
H410 H 0.87804 0.8912 0.24927 0.0
H411 H 0.97256 0.90014 0.35393 0.0
H412 H 0.90419 0.82627 0.47345 0.0
H413 H 0.94169 0.84899 0.39537 0.0
H414 H 0.85567 0.91664 0.33888 0.0
H415 H 0.81842 0.89336 0.41685 0.0
C416 C 0.92579 0.90504 0.20485 0.0
C417 C 0.96233 0.91156 0.20862 0.0
C418 C 0.90605 0.89686 0.25416 0.0
C419 C 0.92247 0.89478 0.30866 0.0
C420 C 0.95911 0.9013 0.3126 0.0
C421 C 0.9788 0.90959 0.26316 0.0
C422 C 0.89385 0.84669 0.44516 0.0
C423 C 0.85864 0.85823 0.45078 0.0
C424 C 0.91517 0.85966 0.40039 0.0
C425 C 0.90153 0.88434 0.36042 0.0
C426 C 0.86677 0.89716 0.36822 0.0
C427 C 0.84556 0.88418 0.41293 0.0
H428 H 0.08491 0.9226 0.17081 0.0
H429 H 0.10871 0.0203 0.26031 0.0
H430 H 0.09837 0.88907 0.258 0.0
H431 H 0.12356 0.9865 0.34705 0.0
H432 H 0.09598 0.84367 0.44166 0.0
H433 H 0.07463 0.88251 0.36342 0.0
H434 H 0.1732 0.94079 0.37005 0.0
H435 H 0.19433 0.9014 0.44723 0.0
C436 C 0.09244 0.93698 0.20909 0.0
C437 C 0.09514 0.97413 0.20853 0.0
C438 C 0.10026 0.91776 0.25911 0.0
C439 C 0.11167 0.93527 0.30933 0.0
C440 C 0.11477 0.97239 0.30884 0.0
C441 C 0.1064 0.99164 0.25907 0.0
C442 C 0.11244 0.8654 0.42698 0.0
C443 C 0.1464 0.8702 0.45022 0.0
C444 C 0.10052 0.88732 0.38221 0.0
C445 C 0.12235 0.91455 0.36078 0.0
C446 C 0.15573 0.92024 0.38618 0.0
C447 C 0.1678 0.89794 0.43016 0.0
H448 H 0.08747 0.01926 0.76008 0.0
H449 H 0.10008 0.9248 0.86408 0.0
H450 H 0.09532 0.98361 0.67248 0.0
H451 H 0.10793 0.88956 0.77734 0.0
H452 H 0.10244 0.82766 0.61592 0.0
H453 H 0.07838 0.86724 0.69039 0.0
H454 H 0.14647 0.95142 0.62911 0.0
H455 H 0.17 0.91165 0.5548 0.0
C456 C 0.09163 0.99091 0.76426 0.0
C457 C 0.09346 0.97488 0.81907 0.0
C458 C 0.09612 0.97055 0.71415 0.0
C459 C 0.10213 0.93377 0.71797 0.0
C460 C 0.10278 0.91772 0.77276 0.0
C461 C 0.09861 0.93802 0.82264 0.0
C462 C 0.11133 0.85496 0.61774 0.0
C463 C 0.13782 0.86687 0.58 0.0
C464 C 0.09785 0.87751 0.66033 0.0
C465 C 0.11084 0.91233 0.66603 0.0
C466 C 0.13564 0.9249 0.62551 0.0
C467 C 0.14908 0.90226 0.58291 0.0
H468 H 0.98385 0.0986 0.76634 0.0
H469 H 0.07963 0.10523 0.86808 0.0
H470 H 0.01833 0.10869 0.67844 0.0
H471 H 0.1139 0.116 0.78095 0.0
H472 H 0.17284 0.10943 0.61489 0.0
H473 H 0.13417 0.08706 0.69187 0.0
H474 H 0.05145 0.15884 0.63584 0.0
H475 H 0.09034 0.18063 0.55901 0.0
C476 C 0.01229 0.10171 0.76986 0.0
C477 C 0.02907 0.10045 0.82407 0.0
C478 C 0.03199 0.10778 0.71961 0.0
C479 C 0.0689 0.11274 0.72264 0.0
C480 C 0.08562 0.11149 0.77692 0.0
C481 C 0.06591 0.10562 0.82702 0.0
C482 C 0.14597 0.11945 0.61838 0.0
C483 C 0.13416 0.14626 0.58109 0.0
C484 C 0.124 0.10703 0.66251 0.0
C485 C 0.08989 0.12147 0.67028 0.0
C486 C 0.07741 0.14689 0.63062 0.0
C487 C 0.09948 0.15927 0.58648 0.0
H488 H 0.96469 0.03686 0.78381 0.0
H489 H 0.87833 0.96229 0.76862 0.0
H490 H 0.94107 0.07051 0.70266 0.0
H491 H 0.85541 0.99506 0.6858 0.0
H492 H 0.79666 0.09425 0.61524 0.0
H493 H 0.82478 0.04944 0.67585 0.0
H494 H 0.92702 0.07733 0.60409 0.0
H495 H 0.89849 0.12365 0.54605 0.0
C496 C 0.94095 0.02737 0.76253 0.0
C497 C 0.92273 0.99768 0.78386 0.0
C498 C 0.92756 0.04645 0.71553 0.0
C499 C 0.89584 0.03602 0.68832 0.0
C500 C 0.87928 0.00453 0.70677 0.0
C501 C 0.89251 0.98564 0.75414 0.0
C502 C 0.82511 0.09064 0.61264 0.0
C503 C 0.84562 0.11282 0.57739 0.0
C504 C 0.84127 0.06461 0.64662 0.0
C505 C 0.87835 0.05988 0.64547 0.0
C506 C 0.89853 0.08066 0.60705 0.0
C507 C 0.88228 0.10693 0.57341 0.0
H508 H -0.00089 0.93872 0.76888 0.0
H509 H 0.94404 0.85492 0.85955 0.0
H510 H 0.96536 0.92469 0.68095 0.0
H511 H 0.91118 0.84085 0.77219 0.0
H512 H 0.88854 0.79652 0.59819 0.0
H513 H 0.92998 0.81562 0.67335 0.0
H514 H 0.8972 0.92438 0.6477 0.0
H515 H 0.85552 0.90472 0.57192 0.0
C516 C 0.97995 0.91731 0.77003 0.0
C517 C 0.97442 0.89773 0.82109 0.0
C518 C 0.96064 0.90942 0.71984 0.0
C519 C 0.93612 0.88138 0.7197 0.0
C520 C 0.93041 0.86219 0.77086 0.0
C521 C 0.94919 0.87035 0.82097 0.0
C522 C 0.89099 0.82454 0.60781 0.0
C523 C 0.86896 0.84922 0.58015 0.0
C524 C 0.91443 0.83548 0.6508 0.0
C525 C 0.91629 0.87137 0.66689 0.0
C526 C 0.89624 0.89655 0.63598 0.0
C527 C 0.87258 0.88545 0.59279 0.0
H528 H 0.5268 0.6506 0.67901 0.0
H529 H 0.53837 0.53941 0.71822 0.0
H530 H 0.56185 0.66579 0.76428 0.0
H531 H 0.57241 0.55412 0.80495 0.0
H532 H 0.66459 0.59546 0.91927 0.0
H533 H 0.62753 0.57642 0.83795 0.0
H534 H 0.5593 0.66738 0.86546 0.0
H535 H 0.59796 0.68692 0.94403 0.0
C536 C 0.53707 0.62949 0.70608 0.0
C537 C 0.53085 0.59395 0.69189 0.0
C538 C 0.55674 0.63806 0.75529 0.0
C539 C 0.56985 0.61119 0.79195 0.0
C540 C 0.56329 0.5755 0.7774 0.0
C541 C 0.54398 0.567 0.72773 0.0
C542 C 0.64111 0.61065 0.90829 0.0
C543 C 0.6334 0.64209 0.93798 0.0
C544 C 0.6199 0.59992 0.86188 0.0
C545 C 0.59052 0.62054 0.84463 0.0
C546 C 0.58207 0.65122 0.8766 0.0
C547 C 0.60362 0.6621 0.92233 0.0
H548 H 0.34466 0.52175 0.67692 0.0
H549 H 0.45318 0.54636 0.71928 0.0
H550 H 0.32444 0.555 0.76139 0.0
H551 H 0.43349 0.57904 0.80482 0.0
H552 H 0.38006 0.66678 0.91561 0.0
H553 H 0.4041 0.63164 0.83555 0.0
H554 H 0.32223 0.55305 0.86322 0.0
H555 H 0.29771 0.58952 0.94119 0.0
C556 C 0.3641 0.5346 0.70434 0.0
C557 C 0.40028 0.53262 0.691 0.0
C558 C 0.35267 0.55327 0.75313 0.0
C559 C 0.37731 0.56973 0.79029 0.0
C560 C 0.41368 0.56736 0.77676 0.0
C561 C 0.42502 0.54894 0.72758 0.0
C562 C 0.36796 0.64155 0.90498 0.0
C563 C 0.33755 0.63034 0.9345 0.0
C564 C 0.38157 0.6214 0.85925 0.0
C565 C 0.36494 0.58956 0.84236 0.0
C566 C 0.33533 0.57773 0.87411 0.0
C567 C 0.32161 0.59813 0.91939 0.0
H568 H 0.48231 0.34928 0.68975 0.0
H569 H 0.45391 0.45892 0.71554 0.0
H570 H 0.44875 0.33279 0.77604 0.0
H571 H 0.42014 0.44286 0.80195 0.0
H572 H 0.3312 0.39092 0.91264 0.0
H573 H 0.36681 0.41143 0.83075 0.0
H574 H 0.45043 0.33874 0.87996 0.0
H575 H 0.41383 0.31759 0.96036 0.0
C576 C 0.46844 0.36973 0.71375 0.0
C577 C 0.4693 0.40509 0.69513 0.0
C578 C 0.44958 0.36045 0.76342 0.0
C579 C 0.43167 0.3865 0.79589 0.0
C580 C 0.43299 0.42204 0.77732 0.0
C581 C 0.45184 0.43124 0.72751 0.0
C582 C 0.35732 0.37968 0.90578 0.0
C583 C 0.36986 0.35259 0.9419 0.0
C584 C 0.37781 0.39149 0.85933 0.0
C585 C 0.4113 0.37639 0.84835 0.0
C586 C 0.42446 0.35041 0.88651 0.0
C587 C 0.40386 0.3386 0.93285 0.0
H588 H 0.5423 0.46494 0.72715 0.0
H589 H 0.64974 0.46297 0.66358 0.0
H590 H 0.56089 0.4328 0.81404 0.0
H591 H 0.6685 0.42974 0.74896 0.0
H592 H 0.70099 0.40194 0.92893 0.0
H593 H 0.67852 0.43781 0.84874 0.0
H594 H 0.58114 0.37708 0.85019 0.0
H595 H 0.60365 0.3426 0.93237 0.0
C596 C 0.56981 0.45698 0.73162 0.0
C597 C 0.59468 0.46596 0.68907 0.0
C598 C 0.5805 0.4386 0.78122 0.0
C599 C 0.6163 0.4289 0.78897 0.0
C600 C 0.6409 0.43745 0.74526 0.0
C601 C 0.63021 0.45606 0.69603 0.0
C602 C 0.67446 0.39717 0.91271 0.0
C603 C 0.65371 0.37013 0.93659 0.0
C604 C 0.66172 0.41718 0.86636 0.0
C605 C 0.62819 0.40998 0.84215 0.0
C606 C 0.60692 0.38362 0.86787 0.0
C607 C 0.61961 0.36391 0.91484 0.0
H608 H 0.61169 0.42728 0.35155 0.0
H609 H 0.5866 0.51971 0.24858 0.0
H610 H 0.6206 0.39279 0.26418 0.0
H611 H 0.5962 0.48487 0.16036 0.0
H612 H 0.67429 0.41535 0.03923 0.0
H613 H 0.65028 0.45502 0.11364 0.0
H614 H 0.58641 0.36897 0.17962 0.0
H615 H 0.61064 0.32963 0.10503 0.0
C616 C 0.60791 0.44025 0.31023 0.0
C617 C 0.59839 0.47625 0.30712 0.0
C618 C 0.61273 0.42035 0.26008 0.0
C619 C 0.60874 0.43603 0.20541 0.0
C620 C 0.59936 0.47211 0.20198 0.0
C621 C 0.59395 0.492 0.25243 0.0
C622 C 0.65408 0.40551 0.0683 0.0
C623 C 0.64422 0.36964 0.06689 0.0
C624 C 0.64042 0.42807 0.11095 0.0
C625 C 0.61689 0.4149 0.15293 0.0
C626 C 0.60492 0.37968 0.14835 0.0
C627 C 0.61851 0.35726 0.10568 0.0
H628 H 0.47876 0.58961 0.25027 0.0
H629 H 0.57318 0.60505 0.35342 0.0
H630 H 0.51403 0.59766 0.16221 0.0
H631 H 0.60806 0.61246 0.26615 0.0
H632 H 0.66908 0.60011 0.10421 0.0
H633 H 0.62866 0.57805 0.17906 0.0
H634 H 0.54782 0.65066 0.11918 0.0
H635 H 0.58857 0.67256 0.04493 0.0
C636 C 0.50699 0.59444 0.25418 0.0
C637 C 0.52319 0.59671 0.30886 0.0
C638 C 0.52712 0.59898 0.20384 0.0
C639 C 0.56381 0.60531 0.20738 0.0
C640 C 0.57996 0.60696 0.262 0.0
C641 C 0.55987 0.60297 0.31209 0.0
C642 C 0.64224 0.61034 0.10622 0.0
C643 C 0.63155 0.63755 0.0688 0.0
C644 C 0.61926 0.59802 0.14902 0.0
C645 C 0.58522 0.61287 0.15513 0.0
C646 C 0.57373 0.63845 0.11502 0.0
C647 C 0.59688 0.65086 0.07236 0.0
H648 H 0.39356 0.58066 0.35132 0.0
H649 H 0.39688 0.483 0.25383 0.0
H650 H 0.38001 0.61337 0.26355 0.0
H651 H 0.3841 0.51592 0.1652 0.0
H652 H 0.3084 0.58493 0.04738 0.0
H653 H 0.33335 0.54761 0.12392 0.0
H654 H 0.40422 0.63283 0.17188 0.0
H655 H 0.37849 0.66994 0.09562 0.0
C656 C 0.39185 0.56618 0.31098 0.0
C657 C 0.39657 0.52921 0.30952 0.0
C658 C 0.38439 0.58501 0.26045 0.0
C659 C 0.38125 0.56733 0.20713 0.0
C660 C 0.38624 0.53034 0.20554 0.0
C661 C 0.39382 0.51151 0.25622 0.0
C662 C 0.33022 0.59495 0.07302 0.0
C663 C 0.34197 0.62991 0.06563 0.0
C664 C 0.34443 0.57377 0.11702 0.0
C665 C 0.37052 0.58739 0.15452 0.0
C666 C 0.38375 0.62174 0.14443 0.0
C667 C 0.36945 0.64284 0.10055 0.0
H668 H 0.53445 0.37362 0.26428 0.0
H669 H 0.4632 0.463 0.27936 0.0
H670 H 0.50124 0.35241 0.18079 0.0
H671 H 0.42906 0.44104 0.19771 0.0
H672 H 0.37416 0.40144 0.04106 0.0
H673 H 0.42113 0.42792 0.10008 0.0
H674 H 0.44677 0.32391 0.16773 0.0
H675 H 0.40161 0.29784 0.10571 0.0
C676 C 0.51171 0.38879 0.24966 0.0
C677 C 0.50085 0.41948 0.27938 0.0
C678 C 0.49254 0.37655 0.20191 0.0
C679 C 0.4618 0.39448 0.18321 0.0
C680 C 0.4525 0.4265 0.21069 0.0
C681 C 0.47192 0.43897 0.25796 0.0
C682 C 0.39052 0.3844 0.06776 0.0
C683 C 0.3839 0.34783 0.07014 0.0
C684 C 0.41717 0.39948 0.10201 0.0
C685 C 0.43752 0.37822 0.13966 0.0
C686 C 0.432 0.34125 0.13922 0.0
C687 C 0.40571 0.32625 0.10445 0.0
loop_
_geom_bond_atom_site_label_1
_geom_bond_atom_site_label_2
_geom_bond_distance
_geom_bond_site_symmetry_2
_ccdc_geom_bond_type
Zn0 O2 1.933 1_556 S
Zn0 O20 1.985 . S
Zn0 O31 1.955 . S
Zn1 O2 1.911 . S
Zn1 O21 1.970 . S
Zn1 O37 1.945 . S
Zn1 O44 1.981 . S
O2 Zn0 1.933 1_554 S
O2 Zn1 1.911 . S
O2 H3 0.841 1_655 S
H3 O2 0.841 1_455 S
C4 O5 1.246 . S
C4 O33 1.276 1_545 S
O5 C4 1.246 . S
Zn6 O8 1.911 . S
Zn6 O23 1.970 . S
Zn6 O40 1.945 . S
Zn6 O47 1.981 . S
Zn7 O8 1.933 1_556 S
Zn7 O22 1.985 . S
Zn7 O29 1.955 . S
O8 Zn6 1.911 . S
O8 Zn7 1.933 1_554 S
O8 H9 0.841 1_455 S
H9 O8 0.841 1_655 S
Zn10 O11 1.933 1_556 S
Zn10 O24 1.985 . S
Zn10 O33 1.955 . S
O11 Zn10 1.933 1_554 S
O11 Zn12 1.911 . S
O11 H13 0.841 1_565 S
Zn12 O11 1.911 . S
Zn12 O25 1.970 . S
Zn12 O41 1.981 . S
Zn12 O43 1.945 . S
H13 O11 0.841 1_545 S
Zn14 O15 1.933 1_556 S
Zn14 O27 1.985 . S
Zn14 O35 1.955 . S
O15 Zn14 1.933 1_554 S
O15 H16 0.841 1_545 S
O15 Zn17 1.911 . S
H16 O15 0.841 1_565 S
Zn17 O15 1.911 . S
Zn17 O28 1.970 . S
Zn17 O38 1.981 . S
Zn17 O46 1.945 . S
C18 O19 1.246 . S
C18 O35 1.276 1_565 S
O19 C18 1.246 . S
O20 Zn0 1.985 . S
O20 C30 1.245 1_556 S
O21 Zn1 1.970 . S
O21 C30 1.263 . S
O22 Zn7 1.985 . S
O22 C34 1.245 1_556 S
O23 Zn6 1.970 . S
O23 C34 1.263 . S
O24 Zn10 1.985 . S
O24 C39 1.245 1_556 S
O25 Zn12 1.970 . S
O25 C39 1.263 . S
C26 O37 1.262 1_455 S
C26 O38 1.245 . S
O27 Zn14 1.985 . S
O27 C45 1.245 1_556 S
O28 Zn17 1.970 . S
O28 C45 1.263 . S
O29 Zn7 1.955 . S
O29 C48 1.276 1_455 S
C30 O20 1.245 1_554 S
C30 O21 1.263 . S
O31 Zn0 1.955 . S
O31 C50 1.276 1_655 S
C32 O40 1.262 1_655 S
C32 O41 1.245 . S
O33 C4 1.276 1_565 S
O33 Zn10 1.955 . S
C34 O22 1.245 1_554 S
C34 O23 1.263 . S
O35 Zn14 1.955 . S
O35 C18 1.276 1_545 S
C36 O43 1.262 1_545 S
C36 O44 1.245 . S
O37 Zn1 1.945 . S
O37 C26 1.262 1_655 S
O38 Zn17 1.981 . S
O38 C26 1.245 . S
C39 O24 1.245 1_554 S
C39 O25 1.263 . S
O40 Zn6 1.945 . S
O40 C32 1.262 1_455 S
O41 Zn12 1.981 . S
O41 C32 1.245 . S
C42 O46 1.262 1_565 S
C42 O47 1.245 . S
O43 Zn12 1.945 . S
O43 C36 1.262 1_565 S
O44 Zn1 1.981 . S
O44 C36 1.245 . S
C45 O27 1.245 1_554 S
C45 O28 1.263 . S
O46 Zn17 1.945 . S
O46 C42 1.262 1_545 S
O47 Zn6 1.981 . S
O47 C42 1.245 . S
C48 O29 1.276 1_655 S
C48 O49 1.246 . S
O49 C48 1.246 . S
C50 O31 1.276 1_455 S
C50 O51 1.246 . S
O51 C50 1.246 . S
Zn52 O54 1.933 . S
Zn52 O72 1.985 . S
Zn52 O83 1.955 . S
Zn53 O54 1.911 . S
Zn53 O73 1.970 . S
Zn53 O89 1.945 . S
Zn53 O96 1.981 . S
O54 Zn52 1.933 . S
O54 Zn53 1.911 . S
O54 H55 0.841 . S
H55 O54 0.841 . S
C56 O57 1.246 . S
C56 O85 1.276 . S
O57 C56 1.246 . S
Zn58 O60 1.911 . S
Zn58 O75 1.970 . S
Zn58 O92 1.945 . S
Zn58 O99 1.981 . S
Zn59 O60 1.933 . S
Zn59 O74 1.985 . S
Zn59 O81 1.955 . S
O60 Zn58 1.911 . S
O60 Zn59 1.933 . S
O60 H61 0.841 . S
H61 O60 0.841 . S
Zn62 O63 1.933 . S
Zn62 O76 1.985 . S
Zn62 O85 1.955 . S
O63 Zn62 1.933 . S
O63 Zn64 1.911 . S
O63 H65 0.841 . S
Zn64 O63 1.911 . S
Zn64 O77 1.970 . S
Zn64 O93 1.981 . S
Zn64 O95 1.945 . S
H65 O63 0.841 . S
Zn66 O67 1.933 . S
Zn66 O79 1.985 . S
Zn66 O87 1.955 . S
O67 Zn66 1.933 . S
O67 H68 0.841 . S
O67 Zn69 1.911 . S
H68 O67 0.841 . S
Zn69 O67 1.911 . S
Zn69 O80 1.970 . S
Zn69 O90 1.981 . S
Zn69 O98 1.945 . S
C70 O71 1.246 . S
C70 O87 1.276 . S
O71 C70 1.246 . S
O72 Zn52 1.985 . S
O72 C82 1.245 . S
O73 Zn53 1.970 . S
O73 C82 1.263 . S
O74 Zn59 1.985 . S
O74 C86 1.245 . S
O75 Zn58 1.970 . S
O75 C86 1.263 . S
O76 Zn62 1.985 . S
O76 C91 1.245 . S
O77 Zn64 1.970 . S
O77 C91 1.263 . S
C78 O89 1.262 . S
C78 O90 1.245 . S
O79 Zn66 1.985 . S
O79 C97 1.245 . S
O80 Zn69 1.970 . S
O80 C97 1.263 . S
O81 Zn59 1.955 . S
O81 C100 1.276 . S
C82 O72 1.245 . S
C82 O73 1.263 . S
O83 Zn52 1.955 . S
O83 C102 1.276 . S
C84 O92 1.262 . S
C84 O93 1.245 . S
O85 C56 1.276 . S
O85 Zn62 1.955 . S
C86 O74 1.245 . S
C86 O75 1.263 . S
O87 Zn66 1.955 . S
O87 C70 1.276 . S
C88 O95 1.262 . S
C88 O96 1.245 . S
O89 Zn53 1.945 . S
O89 C78 1.262 . S
O90 Zn69 1.981 . S
O90 C78 1.245 . S
C91 O76 1.245 . S
C91 O77 1.263 . S
O92 Zn58 1.945 . S
O92 C84 1.262 . S
O93 Zn64 1.981 . S
O93 C84 1.245 . S
C94 O98 1.262 . S
C94 O99 1.245 . S
O95 Zn64 1.945 . S
O95 C88 1.262 . S
O96 Zn53 1.981 . S
O96 C88 1.245 . S
C97 O79 1.245 . S
C97 O80 1.263 . S
O98 Zn69 1.945 . S
O98 C94 1.262 . S
O99 Zn58 1.981 . S
O99 C94 1.245 . S
C100 O81 1.276 . S
C100 O101 1.246 . S
O101 C100 1.246 . S
C102 O83 1.276 . S
C102 O103 1.246 . S
O103 C102 1.246 . S
C104 N105 1.317 . S
C104 N106 1.348 1_556 S
C104 C107 1.485 . S
N105 C104 1.317 . S
N105 N109 1.370 1_556 S
N106 C104 1.348 1_554 S
N106 C108 1.346 . S
C107 C104 1.485 . S
C107 H111 0.960 . S
C107 H112 0.961 . S
C107 H113 0.960 . S
C108 N106 1.346 . S
C108 N109 1.307 . S
C108 C110 1.486 . S
N109 N105 1.370 1_554 S
N109 C108 1.307 . S
C110 C108 1.486 . S
C110 H114 0.960 . S
C110 H115 0.960 . S
C110 H116 0.959 . S
H111 C107 0.960 . S
H112 C107 0.961 . S
H113 C107 0.960 . S
H114 C110 0.960 . S
H115 C110 0.960 . S
H116 C110 0.959 . S
C117 N118 1.317 . S
C117 N119 1.348 1_556 S
C117 C120 1.485 . S
N118 C117 1.317 . S
N118 N122 1.370 1_556 S
N119 C117 1.348 1_554 S
N119 C121 1.346 . S
C120 C117 1.485 . S
C120 H124 0.960 . S
C120 H125 0.961 . S
C120 H126 0.960 . S
C121 N119 1.346 . S
C121 N122 1.307 . S
C121 C123 1.486 . S
N122 N118 1.370 1_554 S
N122 C121 1.307 . S
C123 C121 1.486 . S
C123 H127 0.960 . S
C123 H128 0.960 . S
C123 H129 0.959 . S
H124 C120 0.960 . S
H125 C120 0.961 . S
H126 C120 0.960 . S
H127 C123 0.960 . S
H128 C123 0.960 . S
H129 C123 0.959 . S
C130 N131 1.317 . S
C130 N132 1.348 . S
C130 C133 1.485 . S
N131 C130 1.317 . S
N131 N135 1.370 1_554 S
N132 C130 1.348 . S
N132 C134 1.346 1_554 S
C133 C130 1.485 . S
C133 H137 0.960 . S
C133 H138 0.961 . S
C133 H139 0.960 . S
C134 N132 1.346 1_556 S
C134 N135 1.307 . S
C134 C136 1.486 . S
N135 N131 1.370 1_556 S
N135 C134 1.307 . S
C136 C134 1.486 . S
C136 H140 0.960 . S
C136 H141 0.960 . S
C136 H142 0.959 . S
H137 C133 0.960 . S
H138 C133 0.961 . S
H139 C133 0.960 . S
H140 C136 0.960 . S
H141 C136 0.960 . S
H142 C136 0.959 . S
C143 N144 1.317 . S
C143 N145 1.348 . S
C143 C146 1.485 . S
N144 C143 1.317 . S
N144 N148 1.370 1_554 S
N145 C143 1.348 . S
N145 C147 1.346 1_554 S
C146 C143 1.485 . S
C146 H150 0.960 . S
C146 H151 0.961 . S
C146 H152 0.960 . S
C147 N145 1.346 1_556 S
C147 N148 1.307 . S
C147 C149 1.486 . S
N148 N144 1.370 1_556 S
N148 C147 1.307 . S
C149 C147 1.486 . S
C149 H153 0.960 . S
C149 H154 0.960 . S
C149 H155 0.959 . S
H150 C146 0.960 . S
H151 C146 0.961 . S
H152 C146 0.960 . S
H153 C149 0.960 . S
H154 C149 0.960 . S
H155 C149 0.959 . S
C156 N157 1.317 . S
C156 N158 1.348 . S
C156 C159 1.485 . S
N157 C156 1.317 . S
N157 N161 1.370 . S
N158 C156 1.348 . S
N158 C160 1.346 . S
C159 C156 1.485 . S
C159 H163 0.960 . S
C159 H164 0.961 . S
C159 H165 0.960 . S
C160 N158 1.346 . S
C160 N161 1.307 . S
C160 C162 1.486 . S
N161 N157 1.370 . S
N161 C160 1.307 . S
C162 C160 1.486 . S
C162 H166 0.960 . S
C162 H167 0.960 . S
C162 H168 0.959 . S
H163 C159 0.960 . S
H164 C159 0.961 . S
H165 C159 0.960 . S
H166 C162 0.960 . S
H167 C162 0.960 . S
H168 C162 0.959 . S
C169 N170 1.317 . S
C169 N171 1.348 . S
C169 C172 1.485 . S
N170 C169 1.317 . S
N170 N174 1.370 . S
N171 C169 1.348 . S
N171 C173 1.346 . S
C172 C169 1.485 . S
C172 H176 0.960 . S
C172 H177 0.961 . S
C172 H178 0.960 . S
C173 N171 1.346 . S
C173 N174 1.307 . S
C173 C175 1.486 . S
N174 N170 1.370 . S
N174 C173 1.307 . S
C175 C173 1.486 . S
C175 H179 0.960 . S
C175 H180 0.960 . S
C175 H181 0.959 . S
H176 C172 0.960 . S
H177 C172 0.961 . S
H178 C172 0.960 . S
H179 C175 0.960 . S
H180 C175 0.960 . S
H181 C175 0.959 . S
C182 N183 1.317 . S
C182 N184 1.348 . S
C182 C185 1.485 . S
N183 C182 1.317 . S
N183 N187 1.370 . S
N184 C182 1.348 . S
N184 C186 1.346 . S
C185 C182 1.485 . S
C185 H189 0.960 . S
C185 H190 0.961 . S
C185 H191 0.960 . S
C186 N184 1.346 . S
C186 N187 1.307 . S
C186 C188 1.486 . S
N187 N183 1.370 . S
N187 C186 1.307 . S
C188 C186 1.486 . S
C188 H192 0.960 . S
C188 H193 0.960 . S
C188 H194 0.959 . S
H189 C185 0.960 . S
H190 C185 0.961 . S
H191 C185 0.960 . S
H192 C188 0.960 . S
H193 C188 0.960 . S
H194 C188 0.959 . S
C195 N196 1.317 . S
C195 N197 1.348 . S
C195 C198 1.485 . S
N196 C195 1.317 . S
N196 N200 1.370 . S
N197 C195 1.348 . S
N197 C199 1.346 . S
C198 C195 1.485 . S
C198 H202 0.960 . S
C198 H203 0.961 . S
C198 H204 0.960 . S
C199 N197 1.346 . S
C199 N200 1.307 . S
C199 C201 1.486 . S
N200 N196 1.370 . S
N200 C199 1.307 . S
C201 C199 1.486 . S
C201 H205 0.960 . S
C201 H206 0.960 . S
C201 H207 0.959 . S
H202 C198 0.960 . S
H203 C198 0.961 . S
H204 C198 0.960 . S
H205 C201 0.960 . S
H206 C201 0.960 . S
H207 C201 0.959 . S
H208 C216 0.950 . S
H209 C221 0.950 . S
H210 C218 0.950 . S
H211 C220 0.950 . S
H212 C222 0.950 . S
H213 C224 0.950 . S
H214 C226 0.950 . S
H215 C227 0.950 . S
C216 H208 0.950 . S
C216 C217 1.386 . S
C216 C218 1.391 . S
C217 C216 1.386 . S
C217 C221 1.393 1_554 S
C218 H210 0.950 . S
C218 C216 1.391 . S
C218 C219 1.400 . S
C219 C218 1.400 . S
C219 C220 1.398 1_554 S
C219 C225 1.491 . S
C220 H211 0.950 . S
C220 C219 1.398 1_556 S
C220 C221 1.391 . S
C221 H209 0.950 . S
C221 C217 1.393 1_556 S
C221 C220 1.391 . S
C222 H212 0.950 . S
C222 C223 1.386 1_556 S
C222 C224 1.391 . S
C223 C222 1.386 1_554 S
C223 C227 1.393 . S
C224 H213 0.950 . S
C224 C222 1.391 . S
C224 C225 1.400 1_556 S
C225 C219 1.491 . S
C225 C224 1.400 1_554 S
C225 C226 1.398 . S
C226 H214 0.950 . S
C226 C225 1.398 . S
C226 C227 1.391 . S
C227 H215 0.950 . S
C227 C223 1.393 . S
C227 C226 1.391 . S
H228 C236 0.950 . S
H229 C241 0.950 . S
H230 C238 0.950 . S
H231 C240 0.950 . S
H232 C242 0.950 . S
H233 C244 0.950 . S
H234 C246 0.950 . S
H235 C247 0.950 . S
C236 H228 0.950 . S
C236 C237 1.386 . S
C236 C238 1.391 . S
C237 C236 1.386 . S
C237 C241 1.393 1_554 S
C238 H230 0.950 . S
C238 C236 1.391 . S
C238 C239 1.400 . S
C239 C238 1.400 . S
C239 C240 1.398 1_554 S
C239 C245 1.491 . S
C240 H231 0.950 . S
C240 C239 1.398 1_556 S
C240 C241 1.391 . S
C241 H229 0.950 . S
C241 C237 1.393 1_556 S
C241 C240 1.391 . S
C242 H232 0.950 . S
C242 C243 1.386 1_556 S
C242 C244 1.391 . S
C243 C242 1.386 1_554 S
C243 C247 1.393 . S
C244 H233 0.950 . S
C244 C242 1.391 . S
C244 C245 1.400 1_556 S
C245 C239 1.491 . S
C245 C244 1.400 1_554 S
C245 C246 1.398 . S
C246 H234 0.950 . S
C246 C245 1.398 . S
C246 C247 1.391 . S
C247 H235 0.950 . S
C247 C243 1.393 . S
C247 C246 1.391 . S
H248 C256 0.950 . S
H249 C261 0.950 . S
H250 C258 0.950 . S
H251 C260 0.950 . S
H252 C262 0.950 . S
H253 C264 0.950 . S
H254 C266 0.950 . S
H255 C267 0.950 . S
C256 H248 0.950 . S
C256 C257 1.386 1_556 S
C256 C258 1.391 . S
C257 C256 1.386 1_554 S
C257 C261 1.393 . S
C258 H250 0.950 . S
C258 C256 1.391 . S
C258 C259 1.400 1_556 S
C259 C258 1.400 1_554 S
C259 C260 1.398 . S
C259 C265 1.491 . S
C260 H251 0.950 . S
C260 C259 1.398 . S
C260 C261 1.391 . S
C261 H249 0.950 . S
C261 C257 1.393 . S
C261 C260 1.391 . S
C262 H252 0.950 . S
C262 C263 1.386 . S
C262 C264 1.391 . S
C263 C262 1.386 . S
C263 C267 1.393 1_554 S
C264 H253 0.950 . S
C264 C262 1.391 . S
C264 C265 1.400 . S
C265 C259 1.491 . S
C265 C264 1.400 . S
C265 C266 1.398 1_554 S
C266 H254 0.950 . S
C266 C265 1.398 1_556 S
C266 C267 1.391 . S
C267 H255 0.950 . S
C267 C263 1.393 1_556 S
C267 C266 1.391 . S
H268 C276 0.950 . S
H269 C281 0.950 . S
H270 C278 0.950 . S
H271 C280 0.950 . S
H272 C282 0.950 . S
H273 C284 0.950 . S
H274 C286 0.950 . S
H275 C287 0.950 . S
C276 H268 0.950 . S
C276 C277 1.386 1_556 S
C276 C278 1.391 . S
C277 C276 1.386 1_554 S
C277 C281 1.393 . S
C278 H270 0.950 . S
C278 C276 1.391 . S
C278 C279 1.400 1_556 S
C279 C278 1.400 1_554 S
C279 C280 1.398 . S
C279 C285 1.491 . S
C280 H271 0.950 . S
C280 C279 1.398 . S
C280 C281 1.391 . S
C281 H269 0.950 . S
C281 C277 1.393 . S
C281 C280 1.391 . S
C282 H272 0.950 . S
C282 C283 1.386 . S
C282 C284 1.391 . S
C283 C282 1.386 . S
C283 C287 1.393 1_554 S
C284 H273 0.950 . S
C284 C282 1.391 . S
C284 C285 1.400 . S
C285 C279 1.491 . S
C285 C284 1.400 . S
C285 C286 1.398 1_554 S
C286 H274 0.950 . S
C286 C285 1.398 1_556 S
C286 C287 1.391 . S
C287 H275 0.950 . S
C287 C283 1.393 1_556 S
C287 C286 1.391 . S
H288 C296 0.950 . S
H289 C301 0.950 . S
H290 C298 0.950 . S
H291 C300 0.950 . S
H292 C302 0.950 . S
H293 C304 0.950 . S
H294 C306 0.950 . S
H295 C307 0.950 . S
C296 H288 0.950 . S
C296 C297 1.386 . S
C296 C298 1.391 . S
C297 C296 1.386 . S
C297 C301 1.393 . S
C298 H290 0.950 . S
C298 C296 1.391 . S
C298 C299 1.400 . S
C299 C298 1.400 . S
C299 C300 1.398 . S
C299 C305 1.491 . S
C300 H291 0.950 . S
C300 C299 1.398 . S
C300 C301 1.391 . S
C301 H289 0.950 . S
C301 C297 1.393 . S
C301 C300 1.391 . S
C302 H292 0.950 . S
C302 C303 1.386 . S
C302 C304 1.391 . S
C303 C302 1.386 . S
C303 C307 1.393 . S
C304 H293 0.950 . S
C304 C302 1.391 . S
C304 C305 1.400 . S
C305 C299 1.491 . S
C305 C304 1.400 . S
C305 C306 1.398 . S
C306 H294 0.950 . S
C306 C305 1.398 . S
C306 C307 1.391 . S
C307 H295 0.950 . S
C307 C303 1.393 . S
C307 C306 1.391 . S
H308 C316 0.950 . S
H309 C321 0.950 . S
H310 C318 0.950 . S
H311 C320 0.950 . S
H312 C322 0.950 . S
H313 C324 0.950 . S
H314 C326 0.950 . S
H315 C327 0.950 . S
C316 H308 0.950 . S
C316 C317 1.386 . S
C316 C318 1.391 . S
C317 C316 1.386 . S
C317 C321 1.393 . S
C318 H310 0.950 . S
C318 C316 1.391 . S
C318 C319 1.400 . S
C319 C318 1.400 . S
C319 C320 1.398 . S
C319 C325 1.491 . S
C320 H311 0.950 . S
C320 C319 1.398 . S
C320 C321 1.391 . S
C321 H309 0.950 . S
C321 C317 1.393 . S
C321 C320 1.391 . S
C322 H312 0.950 . S
C322 C323 1.386 . S
C322 C324 1.391 . S
C323 C322 1.386 . S
C323 C327 1.393 . S
C324 H313 0.950 . S
C324 C322 1.391 . S
C324 C325 1.400 . S
C325 C319 1.491 . S
C325 C324 1.400 . S
C325 C326 1.398 . S
C326 H314 0.950 . S
C326 C325 1.398 . S
C326 C327 1.391 . S
C327 H315 0.950 . S
C327 C323 1.393 . S
C327 C326 1.391 . S
H328 C336 0.950 . S
H329 C341 0.950 . S
H330 C338 0.950 . S
H331 C340 0.950 . S
H332 C342 0.950 . S
H333 C344 0.950 . S
H334 C346 0.950 . S
H335 C347 0.950 . S
C336 H328 0.950 . S
C336 C337 1.386 . S
C336 C338 1.391 . S
C337 C336 1.386 . S
C337 C341 1.393 . S
C338 H330 0.950 . S
C338 C336 1.391 . S
C338 C339 1.400 . S
C339 C338 1.400 . S
C339 C340 1.398 . S
C339 C345 1.491 . S
C340 H331 0.950 . S
C340 C339 1.398 . S
C340 C341 1.391 . S
C341 H329 0.950 . S
C341 C337 1.393 . S
C341 C340 1.391 . S
C342 H332 0.950 . S
C342 C343 1.386 . S
C342 C344 1.391 . S
C343 C342 1.386 . S
C343 C347 1.393 . S
C344 H333 0.950 . S
C344 C342 1.391 . S
C344 C345 1.400 . S
C345 C339 1.491 . S
C345 C344 1.400 . S
C345 C346 1.398 . S
C346 H334 0.950 . S
C346 C345 1.398 . S
C346 C347 1.391 . S
C347 H335 0.950 . S
C347 C343 1.393 . S
C347 C346 1.391 . S
H348 C356 0.950 . S
H349 C361 0.950 . S
H350 C358 0.950 . S
H351 C360 0.950 . S
H352 C362 0.950 . S
H353 C364 0.950 . S
H354 C366 0.950 . S
H355 C367 0.950 . S
C356 H348 0.950 . S
C356 C357 1.386 . S
C356 C358 1.391 . S
C357 C356 1.386 . S
C357 C361 1.393 . S
C358 H350 0.950 . S
C358 C356 1.391 . S
C358 C359 1.400 . S
C359 C358 1.400 . S
C359 C360 1.398 . S
C359 C365 1.491 . S
C360 H351 0.950 . S
C360 C359 1.398 . S
C360 C361 1.391 . S
C361 H349 0.950 . S
C361 C357 1.393 . S
C361 C360 1.391 . S
C362 H352 0.950 . S
C362 C363 1.386 . S
C362 C364 1.391 . S
C363 C362 1.386 . S
C363 C367 1.393 . S
C364 H353 0.950 . S
C364 C362 1.391 . S
C364 C365 1.400 . S
C365 C359 1.491 . S
C365 C364 1.400 . S
C365 C366 1.398 . S
C366 H354 0.950 . S
C366 C365 1.398 . S
C366 C367 1.391 . S
C367 H355 0.950 . S
C367 C363 1.393 . S
C367 C366 1.391 . S
H368 C376 0.950 1_655 S
H369 C381 0.950 . S
H370 C378 0.950 . S
H371 C380 0.950 . S
H372 C382 0.950 . S
H373 C384 0.950 . S
H374 C386 0.950 . S
H375 C387 0.950 . S
C376 H368 0.950 1_455 S
C376 C377 1.386 . S
C376 C378 1.391 . S
C377 C376 1.386 . S
C377 C381 1.393 . S
C378 H370 0.950 . S
C378 C376 1.391 . S
C378 C379 1.400 . S
C379 C378 1.400 . S
C379 C380 1.398 . S
C379 C385 1.491 . S
C380 H371 0.950 . S
C380 C379 1.398 . S
C380 C381 1.391 . S
C381 H369 0.950 . S
C381 C377 1.393 . S
C381 C380 1.391 . S
C382 H372 0.950 . S
C382 C383 1.386 . S
C382 C384 1.391 . S
C383 C382 1.386 . S
C383 C387 1.393 . S
C384 H373 0.950 . S
C384 C382 1.391 . S
C384 C385 1.400 . S
C385 C379 1.491 . S
C385 C384 1.400 . S
C385 C386 1.398 . S
C386 H374 0.950 . S
C386 C385 1.398 . S
C386 C387 1.391 . S
C387 H375 0.950 . S
C387 C383 1.393 . S
C387 C386 1.391 . S
H388 C396 0.950 . S
H389 C401 0.950 . S
H390 C398 0.950 . S
H391 C400 0.950 . S
H392 C402 0.950 . S
H393 C404 0.950 . S
H394 C406 0.950 . S
H395 C407 0.950 . S
C396 H388 0.950 . S
C396 C397 1.386 . S
C396 C398 1.391 . S
C397 C396 1.386 . S
C397 C401 1.393 . S
C398 H390 0.950 . S
C398 C396 1.391 . S
C398 C399 1.400 . S
C399 C398 1.400 . S
C399 C400 1.398 . S
C399 C405 1.491 . S
C400 H391 0.950 . S
C400 C399 1.398 . S
C400 C401 1.391 . S
C401 H389 0.950 . S
C401 C397 1.393 . S
C401 C400 1.391 . S
C402 H392 0.950 . S
C402 C403 1.386 . S
C402 C404 1.391 . S
C403 C402 1.386 . S
C403 C407 1.393 . S
C404 H393 0.950 . S
C404 C402 1.391 . S
C404 C405 1.400 . S
C405 C399 1.491 . S
C405 C404 1.400 . S
C405 C406 1.398 . S
C406 H394 0.950 . S
C406 C405 1.398 . S
C406 C407 1.391 . S
C407 H395 0.950 . S
C407 C403 1.393 . S
C407 C406 1.391 . S
H408 C416 0.950 . S
H409 C421 0.950 . S
H410 C418 0.950 . S
H411 C420 0.950 . S
H412 C422 0.950 . S
H413 C424 0.950 . S
H414 C426 0.950 . S
H415 C427 0.950 . S
C416 H408 0.950 . S
C416 C417 1.386 . S
C416 C418 1.391 . S
C417 C416 1.386 . S
C417 C421 1.393 . S
C418 H410 0.950 . S
C418 C416 1.391 . S
C418 C419 1.400 . S
C419 C418 1.400 . S
C419 C420 1.398 . S
C419 C425 1.491 . S
C420 H411 0.950 . S
C420 C419 1.398 . S
C420 C421 1.391 . S
C421 H409 0.950 . S
C421 C417 1.393 . S
C421 C420 1.391 . S
C422 H412 0.950 . S
C422 C423 1.386 . S
C422 C424 1.391 . S
C423 C422 1.386 . S
C423 C427 1.393 . S
C424 H413 0.950 . S
C424 C422 1.391 . S
C424 C425 1.400 . S
C425 C419 1.491 . S
C425 C424 1.400 . S
C425 C426 1.398 . S
C426 H414 0.950 . S
C426 C425 1.398 . S
C426 C427 1.391 . S
C427 H415 0.950 . S
C427 C423 1.393 . S
C427 C426 1.391 . S
H428 C436 0.950 . S
H429 C441 0.950 . S
H430 C438 0.950 . S
H431 C440 0.950 . S
H432 C442 0.950 . S
H433 C444 0.950 . S
H434 C446 0.950 . S
H435 C447 0.950 . S
C436 H428 0.950 . S
C436 C437 1.386 . S
C436 C438 1.391 . S
C437 C436 1.386 . S
C437 C441 1.393 . S
C438 H430 0.950 . S
C438 C436 1.391 . S
C438 C439 1.400 . S
C439 C438 1.400 . S
C439 C440 1.398 . S
C439 C445 1.491 . S
C440 H431 0.950 . S
C440 C439 1.398 . S
C440 C441 1.391 . S
C441 H429 0.950 . S
C441 C437 1.393 . S
C441 C440 1.391 . S
C442 H432 0.950 . S
C442 C443 1.386 . S
C442 C444 1.391 . S
C443 C442 1.386 . S
C443 C447 1.393 . S
C444 H433 0.950 . S
C444 C442 1.391 . S
C444 C445 1.400 . S
C445 C439 1.491 . S
C445 C444 1.400 . S
C445 C446 1.398 . S
C446 H434 0.950 . S
C446 C445 1.398 . S
C446 C447 1.391 . S
C447 H435 0.950 . S
C447 C443 1.393 . S
C447 C446 1.391 . S
H448 C456 0.950 1_545 S
H449 C461 0.950 . S
H450 C458 0.950 . S
H451 C460 0.950 . S
H452 C462 0.950 . S
H453 C464 0.950 . S
H454 C466 0.950 . S
H455 C467 0.950 . S
C456 H448 0.950 1_565 S
C456 C457 1.386 . S
C456 C458 1.391 . S
C457 C456 1.386 . S
C457 C461 1.393 . S
C458 H450 0.950 . S
C458 C456 1.391 . S
C458 C459 1.400 . S
C459 C458 1.400 . S
C459 C460 1.398 . S
C459 C465 1.491 . S
C460 H451 0.950 . S
C460 C459 1.398 . S
C460 C461 1.391 . S
C461 H449 0.950 . S
C461 C457 1.393 . S
C461 C460 1.391 . S
C462 H452 0.950 . S
C462 C463 1.386 . S
C462 C464 1.391 . S
C463 C462 1.386 . S
C463 C467 1.393 . S
C464 H453 0.950 . S
C464 C462 1.391 . S
C464 C465 1.400 . S
C465 C459 1.491 . S
C465 C464 1.400 . S
C465 C466 1.398 . S
C466 H454 0.950 . S
C466 C465 1.398 . S
C466 C467 1.391 . S
C467 H455 0.950 . S
C467 C463 1.393 . S
C467 C466 1.391 . S
H468 C476 0.950 . S
H469 C481 0.950 . S
H470 C478 0.950 . S
H471 C480 0.950 . S
H472 C482 0.950 . S
H473 C484 0.950 . S
H474 C486 0.950 . S
H475 C487 0.950 . S
C476 H468 0.950 . S
C476 C477 1.386 . S
C476 C478 1.391 . S
C477 C476 1.386 . S
C477 C481 1.393 . S
C478 H470 0.950 . S
C478 C476 1.391 . S
C478 C479 1.400 . S
C479 C478 1.400 . S
C479 C480 1.398 . S
C479 C485 1.491 . S
C480 H471 0.950 . S
C480 C479 1.398 . S
C480 C481 1.391 . S
C481 H469 0.950 . S
C481 C477 1.393 . S
C481 C480 1.391 . S
C482 H472 0.950 . S
C482 C483 1.386 . S
C482 C484 1.391 . S
C483 C482 1.386 . S
C483 C487 1.393 . S
C484 H473 0.950 . S
C484 C482 1.391 . S
C484 C485 1.400 . S
C485 C479 1.491 . S
C485 C484 1.400 . S
C485 C486 1.398 . S
C486 H474 0.950 . S
C486 C485 1.398 . S
C486 C487 1.391 . S
C487 H475 0.950 . S
C487 C483 1.393 . S
C487 C486 1.391 . S
H488 C496 0.950 . S
H489 C501 0.950 . S
H490 C498 0.950 . S
H491 C500 0.950 . S
H492 C502 0.950 . S
H493 C504 0.950 . S
H494 C506 0.950 . S
H495 C507 0.950 . S
C496 H488 0.950 . S
C496 C497 1.386 . S
C496 C498 1.391 . S
C497 C496 1.386 . S
C497 C501 1.393 . S
C498 H490 0.950 . S
C498 C496 1.391 . S
C498 C499 1.400 . S
C499 C498 1.400 . S
C499 C500 1.398 . S
C499 C505 1.491 . S
C500 H491 0.950 . S
C500 C499 1.398 . S
C500 C501 1.391 . S
C501 H489 0.950 . S
C501 C497 1.393 . S
C501 C500 1.391 . S
C502 H492 0.950 . S
C502 C503 1.386 . S
C502 C504 1.391 . S
C503 C502 1.386 . S
C503 C507 1.393 . S
C504 H493 0.950 . S
C504 C502 1.391 . S
C504 C505 1.400 . S
C505 C499 1.491 . S
C505 C504 1.400 . S
C505 C506 1.398 . S
C506 H494 0.950 . S
C506 C505 1.398 . S
C506 C507 1.391 . S
C507 H495 0.950 . S
C507 C503 1.393 . S
C507 C506 1.391 . S
H508 C516 0.950 . S
H509 C521 0.950 . S
H510 C518 0.950 . S
H511 C520 0.950 . S
H512 C522 0.950 . S
H513 C524 0.950 . S
H514 C526 0.950 . S
H515 C527 0.950 . S
C516 H508 0.950 . S
C516 C517 1.386 . S
C516 C518 1.391 . S
C517 C516 1.386 . S
C517 C521 1.393 . S
C518 H510 0.950 . S
C518 C516 1.391 . S
C518 C519 1.400 . S
C519 C518 1.400 . S
C519 C520 1.398 . S
C519 C525 1.491 . S
C520 H511 0.950 . S
C520 C519 1.398 . S
C520 C521 1.391 . S
C521 H509 0.950 . S
C521 C517 1.393 . S
C521 C520 1.391 . S
C522 H512 0.950 . S
C522 C523 1.386 . S
C522 C524 1.391 . S
C523 C522 1.386 . S
C523 C527 1.393 . S
C524 H513 0.950 . S
C524 C522 1.391 . S
C524 C525 1.400 . S
C525 C519 1.491 . S
C525 C524 1.400 . S
C525 C526 1.398 . S
C526 H514 0.950 . S
C526 C525 1.398 . S
C526 C527 1.391 . S
C527 H515 0.950 . S
C527 C523 1.393 . S
C527 C526 1.391 . S
H528 C536 0.950 . S
H529 C541 0.950 . S
H530 C538 0.950 . S
H531 C540 0.950 . S
H532 C542 0.950 . S
H533 C544 0.950 . S
H534 C546 0.950 . S
H535 C547 0.950 . S
C536 H528 0.950 . S
C536 C537 1.386 . S
C536 C538 1.391 . S
C537 C536 1.386 . S
C537 C541 1.393 . S
C538 H530 0.950 . S
C538 C536 1.391 . S
C538 C539 1.400 . S
C539 C538 1.400 . S
C539 C540 1.398 . S
C539 C545 1.491 . S
C540 H531 0.950 . S
C540 C539 1.398 . S
C540 C541 1.391 . S
C541 H529 0.950 . S
C541 C537 1.393 . S
C541 C540 1.391 . S
C542 H532 0.950 . S
C542 C543 1.386 . S
C542 C544 1.391 . S
C543 C542 1.386 . S
C543 C547 1.393 . S
C544 H533 0.950 . S
C544 C542 1.391 . S
C544 C545 1.400 . S
C545 C539 1.491 . S
C545 C544 1.400 . S
C545 C546 1.398 . S
C546 H534 0.950 . S
C546 C545 1.398 . S
C546 C547 1.391 . S
C547 H535 0.950 . S
C547 C543 1.393 . S
C547 C546 1.391 . S
H548 C556 0.950 . S
H549 C561 0.950 . S
H550 C558 0.950 . S
H551 C560 0.950 . S
H552 C562 0.950 . S
H553 C564 0.950 . S
H554 C566 0.950 . S
H555 C567 0.950 . S
C556 H548 0.950 . S
C556 C557 1.386 . S
C556 C558 1.391 . S
C557 C556 1.386 . S
C557 C561 1.393 . S
C558 H550 0.950 . S
C558 C556 1.391 . S
C558 C559 1.400 . S
C559 C558 1.400 . S
C559 C560 1.398 . S
C559 C565 1.491 . S
C560 H551 0.950 . S
C560 C559 1.398 . S
C560 C561 1.391 . S
C561 H549 0.950 . S
C561 C557 1.393 . S
C561 C560 1.391 . S
C562 H552 0.950 . S
C562 C563 1.386 . S
C562 C564 1.391 . S
C563 C562 1.386 . S
C563 C567 1.393 . S
C564 H553 0.950 . S
C564 C562 1.391 . S
C564 C565 1.400 . S
C565 C559 1.491 . S
C565 C564 1.400 . S
C565 C566 1.398 . S
C566 H554 0.950 . S
C566 C565 1.398 . S
C566 C567 1.391 . S
C567 H555 0.950 . S
C567 C563 1.393 . S
C567 C566 1.391 . S
H568 C576 0.950 . S
H569 C581 0.950 . S
H570 C578 0.950 . S
H571 C580 0.950 . S
H572 C582 0.950 . S
H573 C584 0.950 . S
H574 C586 0.950 . S
H575 C587 0.950 . S
C576 H568 0.950 . S
C576 C577 1.386 . S
C576 C578 1.391 . S
C577 C576 1.386 . S
C577 C581 1.393 . S
C578 H570 0.950 . S
C578 C576 1.391 . S
C578 C579 1.400 . S
C579 C578 1.400 . S
C579 C580 1.398 . S
C579 C585 1.491 . S
C580 H571 0.950 . S
C580 C579 1.398 . S
C580 C581 1.391 . S
C581 H569 0.950 . S
C581 C577 1.393 . S
C581 C580 1.391 . S
C582 H572 0.950 . S
C582 C583 1.386 . S
C582 C584 1.391 . S
C583 C582 1.386 . S
C583 C587 1.393 . S
C584 H573 0.950 . S
C584 C582 1.391 . S
C584 C585 1.400 . S
C585 C579 1.491 . S
C585 C584 1.400 . S
C585 C586 1.398 . S
C586 H574 0.950 . S
C586 C585 1.398 . S
C586 C587 1.391 . S
C587 H575 0.950 . S
C587 C583 1.393 . S
C587 C586 1.391 . S
H588 C596 0.950 . S
H589 C601 0.950 . S
H590 C598 0.950 . S
H591 C600 0.950 . S
H592 C602 0.950 . S
H593 C604 0.950 . S
H594 C606 0.950 . S
H595 C607 0.950 . S
C596 H588 0.950 . S
C596 C597 1.386 . S
C596 C598 1.391 . S
C597 C596 1.386 . S
C597 C601 1.393 . S
C598 H590 0.950 . S
C598 C596 1.391 . S
C598 C599 1.400 . S
C599 C598 1.400 . S
C599 C600 1.398 . S
C599 C605 1.491 . S
C600 H591 0.950 . S
C600 C599 1.398 . S
C600 C601 1.391 . S
C601 H589 0.950 . S
C601 C597 1.393 . S
C601 C600 1.391 . S
C602 H592 0.950 . S
C602 C603 1.386 . S
C602 C604 1.391 . S
C603 C602 1.386 . S
C603 C607 1.393 . S
C604 H593 0.950 . S
C604 C602 1.391 . S
C604 C605 1.400 . S
C605 C599 1.491 . S
C605 C604 1.400 . S
C605 C606 1.398 . S
C606 H594 0.950 . S
C606 C605 1.398 . S
C606 C607 1.391 . S
C607 H595 0.950 . S
C607 C603 1.393 . S
C607 C606 1.391 . S
H608 C616 0.950 . S
H609 C621 0.950 . S
H610 C618 0.950 . S
H611 C620 0.950 . S
H612 C622 0.950 . S
H613 C624 0.950 . S
H614 C626 0.950 . S
H615 C627 0.950 . S
C616 H608 0.950 . S
C616 C617 1.386 . S
C616 C618 1.391 . S
C617 C616 1.386 . S
C617 C621 1.393 . S
C618 H610 0.950 . S
C618 C616 1.391 . S
C618 C619 1.400 . S
C619 C618 1.400 . S
C619 C620 1.398 . S
C619 C625 1.491 . S
C620 H611 0.950 . S
C620 C619 1.398 . S
C620 C621 1.391 . S
C621 H609 0.950 . S
C621 C617 1.393 . S
C621 C620 1.391 . S
C622 H612 0.950 . S
C622 C623 1.386 . S
C622 C624 1.391 . S
C623 C622 1.386 . S
C623 C627 1.393 . S
C624 H613 0.950 . S
C624 C622 1.391 . S
C624 C625 1.400 . S
C625 C619 1.491 . S
C625 C624 1.400 . S
C625 C626 1.398 . S
C626 H614 0.950 . S
C626 C625 1.398 . S
C626 C627 1.391 . S
C627 H615 0.950 . S
C627 C623 1.393 . S
C627 C626 1.391 . S
H628 C636 0.950 . S
H629 C641 0.950 . S
H630 C638 0.950 . S
H631 C640 0.950 . S
H632 C642 0.950 . S
H633 C644 0.950 . S
H634 C646 0.950 . S
H635 C647 0.950 . S
C636 H628 0.950 . S
C636 C637 1.386 . S
C636 C638 1.391 . S
C637 C636 1.386 . S
C637 C641 1.393 . S
C638 H630 0.950 . S
C638 C636 1.391 . S
C638 C639 1.400 . S
C639 C638 1.400 . S
C639 C640 1.398 . S
C639 C645 1.491 . S
C640 H631 0.950 . S
C640 C639 1.398 . S
C640 C641 1.391 . S
C641 H629 0.950 . S
C641 C637 1.393 . S
C641 C640 1.391 . S
C642 H632 0.950 . S
C642 C643 1.386 . S
C642 C644 1.391 . S
C643 C642 1.386 . S
C643 C647 1.393 . S
C644 H633 0.950 . S
C644 C642 1.391 . S
C644 C645 1.400 . S
C645 C639 1.491 . S
C645 C644 1.400 . S
C645 C646 1.398 . S
C646 H634 0.950 . S
C646 C645 1.398 . S
C646 C647 1.391 . S
C647 H635 0.950 . S
C647 C643 1.393 . S
C647 C646 1.391 . S
H648 C656 0.950 . S
H649 C661 0.950 . S
H650 C658 0.950 . S
H651 C660 0.950 . S
H652 C662 0.950 . S
H653 C664 0.950 . S
H654 C666 0.950 . S
H655 C667 0.950 . S
C656 H648 0.950 . S
C656 C657 1.386 . S
C656 C658 1.391 . S
C657 C656 1.386 . S
C657 C661 1.393 . S
C658 H650 0.950 . S
C658 C656 1.391 . S
C658 C659 1.400 . S
C659 C658 1.400 . S
C659 C660 1.398 . S
C659 C665 1.491 . S
C660 H651 0.950 . S
C660 C659 1.398 . S
C660 C661 1.391 . S
C661 H649 0.950 . S
C661 C657 1.393 . S
C661 C660 1.391 . S
C662 H652 0.950 . S
C662 C663 1.386 . S
C662 C664 1.391 . S
C663 C662 1.386 . S
C663 C667 1.393 . S
C664 H653 0.950 . S
C664 C662 1.391 . S
C664 C665 1.400 . S
C665 C659 1.491 . S
C665 C664 1.400 . S
C665 C666 1.398 . S
C666 H654 0.950 . S
C666 C665 1.398 . S
C666 C667 1.391 . S
C667 H655 0.950 . S
C667 C663 1.393 . S
C667 C666 1.391 . S
H668 C676 0.950 . S
H669 C681 0.950 . S
H670 C678 0.950 . S
H671 C680 0.950 . S
H672 C682 0.950 . S
H673 C684 0.950 . S
H674 C686 0.950 . S
H675 C687 0.950 . S
C676 H668 0.950 . S
C676 C677 1.386 . S
C676 C678 1.391 . S
C677 C676 1.386 . S
C677 C681 1.393 . S
C678 H670 0.950 . S
C678 C676 1.391 . S
C678 C679 1.400 . S
C679 C678 1.400 . S
C679 C680 1.398 . S
C679 C685 1.491 . S
C680 H671 0.950 . S
C680 C679 1.398 . S
C680 C681 1.391 . S
C681 H669 0.950 . S
C681 C677 1.393 . S
C681 C680 1.391 . S
C682 H672 0.950 . S
C682 C683 1.386 . S
C682 C684 1.391 . S
C683 C682 1.386 . S
C683 C687 1.393 . S
C684 H673 0.950 . S
C684 C682 1.391 . S
C684 C685 1.400 . S
C685 C679 1.491 . S
C685 C684 1.400 . S
C685 C686 1.398 . S
C686 H674 0.950 . S
C686 C685 1.398 . S
C686 C687 1.391 . S
C687 H675 0.950 . S
C687 C683 1.393 . S
C687 C686 1.391 . S
C217 C45 1.540 . S
C223 N106 1.552 . S
C237 C30 1.539 . S
C243 N119 1.552 . S
C257 C39 1.552 . S
C263 N132 1.553 . S
C283 N145 1.550 . S
C277 C34 1.550 . S
C297 C97 1.539 . S
C303 N158 1.553 . S
C323 N171 1.546 . S
C317 C82 1.544 . S
C343 N184 1.546 . S
C337 C91 1.546 . S
C363 N197 1.544 . S
C357 C86 1.542 . S
C383 N187 1.525 . S
C377 C26 1.503 . S
C403 N200 1.535 . S
C397 C36 1.490 . S
C423 N157 1.533 . S
C417 C32 1.482 . S
C443 N174 1.522 . S
C437 C42 1.492 . S
C457 C18 1.541 . S
C463 N170 1.592 . S
C483 N183 1.600 . S
C477 C50 1.550 . S
C497 C4 1.554 . S
C503 N196 1.585 . S
C517 C48 1.542 . S
C523 N161 1.602 . S
C543 N135 1.523 . S
C537 C78 1.501 . S
C557 C88 1.498 . S
C563 N148 1.522 . S
C583 N105 1.531 . S
C577 C84 1.499 . S
C603 N118 1.542 . S
C597 C94 1.489 . S
C623 N122 1.604 . S
C617 C70 1.564 . S
C643 N131 1.597 . S
C637 C102 1.546 . S
C657 C56 1.566 . S
C663 N144 1.598 . S
C677 C100 1.549 . S
C683 N109 1.613 . S
