# Generated by pormake.
# Topology pth, (4,4)-cn, num edge types: 1
# Building blocks:
#     Node 0, Type 0, BuildingBlock: KUFVIS_clean_sbu_0, # of connection points: 4
#     Node 1, Type 0, BuildingBlock: KUFVIS_clean_sbu_0, # of connection points: 4
#     Node 2, Type 0, BuildingBlock: KUFVIS_clean_sbu_0, # of connection points: 4
#     Node 3, Type 1, BuildingBlock: AZAVOO_clean_linker_0, # of connection points: 4
#     Node 4, Type 1, BuildingBlock: AZAVOO_clean_linker_0, # of connection points: 4
#     Node 5, Type 1, BuildingBlock: AZAVOO_clean_linker_0, # of connection points: 4
#     Edge 6, Type (0, 1), BuildingBlock: XIVTED_clean_linker_0, # of connection points: 2
#     Edge 7, Type (0, 1), BuildingBlock: XIVTED_clean_linker_0, # of connection points: 2
#     Edge 8, Type (0, 1), BuildingBlock: XIVTED_clean_linker_0, # of connection points: 2
#     Edge 9, Type (0, 1), BuildingBlock: XIVTED_clean_linker_0, # of connection points: 2
#     Edge 10, Type (0, 1), BuildingBlock: XIVTED_clean_linker_0, # of connection points: 2
#     Edge 11, Type (0, 1), BuildingBlock: XIVTED_clean_linker_0, # of connection points: 2
#     Edge 12, Type (0, 1), BuildingBlock: XIVTED_clean_linker_0, # of connection points: 2
#     Edge 13, Type (0, 1), BuildingBlock: XIVTED_clean_linker_0, # of connection points: 2
#     Edge 14, Type (0, 1), BuildingBlock: XIVTED_clean_linker_0, # of connection points: 2
#     Edge 15, Type (0, 1), BuildingBlock: XIVTED_clean_linker_0, # of connection points: 2
#     Edge 16, Type (0, 1), BuildingBlock: XIVTED_clean_linker_0, # of connection points: 2
#     Edge 17, Type (0, 1), BuildingBlock: XIVTED_clean_linker_0, # of connection points: 2
# Relax obj value: 0.112
# Max RMSD: 0.225
# Mean RMSD: 0.161
data_MOF--net-pth--node1-KUFVIS_clean_sbu_0--node2-AZAVOO_clean_linker_0--edge1-XIVTED_clean_linker_0
_symmetry_space_group_name_H-M    P1
_symmetry_Int_Tables_number       1
_symmetry_cell_setting            triclinic
loop_
_symmetry_equiv_pos_as_xyz
'x, y, z'
_cell_length_a     26.054018
_cell_length_b     26.347334
_cell_length_c     71.867305
_cell_angle_alpha  92.631353
_cell_angle_beta   90.978168
_cell_angle_gamma 120.25121
loop_
_atom_site_label
_atom_site_type_symbol
_atom_site_fract_x
_atom_site_fract_y
_atom_site_fract_z
_atom_type_partial_charge
Mn0 Mn 0.09182 0.09314 0.07557 0.0
Mn1 Mn 0.04257 0.17179 0.0534 0.0
C2 C 0.06013 0.06908 0.04461 0.0
C3 C 0.0736 0.01771 0.09476 0.0
C4 C 0.17316 0.21485 0.06201 0.0
O5 O 0.07825 0.13838 0.09673 0.0
O6 O 0.03556 0.18001 0.08068 0.0
C7 C 0.91519 0.105 0.06185 0.0
N8 N 0.95819 0.12746 0.04916 0.0
C9 C 0.88502 0.09304 0.02371 0.0
C10 C 0.83991 0.0699 0.03652 0.0
C11 C 0.85509 0.07573 0.05567 0.0
C12 C 0.94411 0.12195 0.0307 0.0
H13 H 0.9267 0.1094 0.07658 0.0
C14 C 0.05196 0.16807 0.09598 0.0
O15 O 0.12691 0.06216 0.09338 0.0
O16 O 0.03092 0.01727 0.08504 0.0
N17 N 0.04606 0.16729 0.02684 0.0
C18 C 0.09471 0.18786 0.01626 0.0
C19 C 0.08712 0.1829 -0.00326 0.0
C20 C 0.02974 0.1575 0.98832 0.0
C21 C 0.9804 0.13711 -0.0005 0.0
C22 C 0.99069 0.14325 0.01888 0.0
H23 H 0.13893 0.20762 0.02266 0.0
O24 O 0.09384 0.05149 0.05199 0.0
O25 O 0.04435 0.09871 0.05573 0.0
O26 O 0.16633 0.16805 0.06874 0.0
O27 O 0.12991 0.22135 0.05668 0.0
C28 C 0.92135 0.10991 0.99218 0.0
C29 C 0.87367 0.08762 0.00426 0.0
H30 H 0.7935 0.04707 0.0318 0.0
H31 H 0.82053 0.0577 0.06563 0.0
H32 H 0.12541 0.19866 0.98821 0.0
H33 H 0.02404 0.15345 0.97325 0.0
H34 H 0.91205 0.10508 0.97725 0.0
H35 H 0.82842 0.06576 -0.00156 0.0
Mn36 Mn 0.00073 0.05727 0.40904 0.0
Mn37 Mn 0.09061 0.19333 0.42945 0.0
C38 C 0.06774 0.07025 0.43269 0.0
C39 C 0.98194 0.98505 0.38578 0.0
C40 C 0.96164 0.11573 0.43873 0.0
O41 O 0.99247 0.11038 0.39104 0.0
O42 O 0.05853 0.19891 0.40483 0.0
C43 C 0.1869 0.23479 0.40275 0.0
N44 N 0.16896 0.22497 0.42057 0.0
C45 C 0.26969 0.26547 0.43257 0.0
C46 C 0.28935 0.27673 0.41437 0.0
C47 C 0.24772 0.26103 0.39939 0.0
C48 C 0.20853 0.23926 0.43506 0.0
H49 H 0.15502 0.22257 0.3912 0.0
C50 C 0.02125 0.16647 0.39158 0.0
O51 O 0.93871 0.98514 0.3945 0.0
O52 O 0.03526 0.02856 0.38985 0.0
N53 N 0.1259 0.19599 0.45332 0.0
C54 C 0.09933 0.17878 0.46985 0.0
C55 C 0.13459 0.18902 0.48614 0.0
C56 C 0.19679 0.21773 0.48534 0.0
C57 C 0.22318 0.23589 0.46822 0.0
C58 C 0.18577 0.22442 0.45244 0.0
H59 H 0.05158 0.15706 0.47059 0.0
O60 O 0.0224 0.0186 0.42817 0.0
O61 O 0.07404 0.11312 0.42279 0.0
O62 O 0.95041 0.07145 0.4278 0.0
O63 O 0.01163 0.16383 0.43987 0.0
C64 C 0.28505 0.26396 0.46613 0.0
C65 C 0.30827 0.27844 0.44831 0.0
H66 H 0.33622 0.29685 0.41172 0.0
H67 H 0.26249 0.26914 0.38529 0.0
H68 H 0.11389 0.17489 0.4993 0.0
H69 H 0.22381 0.22526 0.49791 0.0
H70 H 0.31516 0.27392 0.4781 0.0
H71 H 0.35583 0.29907 0.44684 0.0
Mn72 Mn 0.06823 0.10351 0.75374 0.0
Mn73 Mn 0.01381 0.177 0.77814 0.0
C74 C 0.11944 0.16148 0.78006 0.0
C75 C 0.12672 0.09851 0.73048 0.0
C76 C 0.96641 0.04651 0.78039 0.0
O77 O 0.00747 0.10199 0.73529 0.0
O78 O 0.97454 0.1524 0.7527 0.0
C79 C 0.06194 0.28252 0.75613 0.0
N80 N 0.05755 0.25811 0.77275 0.0
C81 C 0.12212 0.35314 0.78837 0.0
C82 C 0.12698 0.37933 0.77144 0.0
C83 C 0.0968 0.34384 0.75526 0.0
C84 C 0.08632 0.29185 0.78842 0.0
H85 H 0.03914 0.25537 0.74363 0.0
C86 C 0.97418 0.1242 0.73762 0.0
O87 O 0.08335 0.05103 0.73673 0.0
O88 O 0.13391 0.14844 0.73706 0.0
N89 N 0.04834 0.20354 0.8029 0.0
C90 C 0.04147 0.17112 0.81788 0.0
C91 C 0.07023 0.19985 0.83507 0.0
C92 C 0.10547 0.26154 0.8367 0.0
C93 C 0.11135 0.29398 0.82115 0.0
C94 C 0.08119 0.26297 0.80441 0.0
H95 H 0.01469 0.12368 0.81667 0.0
O96 O 0.12795 0.11918 0.77412 0.0
O97 O 0.08096 0.16845 0.77042 0.0
O98 O 0.00155 0.0429 0.76897 0.0
O99 O 0.96721 0.09442 0.78483 0.0
C100 C 0.14693 0.35576 0.82148 0.0
C101 C 0.15233 0.38532 0.8051 0.0
H102 H 0.15417 0.42658 0.77068 0.0
H103 H 0.10059 0.3637 0.74212 0.0
H104 H 0.06552 0.1745 0.84701 0.0
H105 H 0.1281 0.28349 0.84994 0.0
H106 H 0.17095 0.38091 0.8342 0.0
H107 H 0.1804 0.43277 0.80548 0.0
H108 H 0.96705 0.39784 0.12506 0.0
H109 H 0.99307 0.88679 0.27642 0.0
H110 H 0.87491 0.38315 0.22635 0.0
H111 H 0.88088 0.30486 0.2087 0.0
H112 H 0.07277 0.41057 0.21239 0.0
H113 H 0.06622 0.48782 0.23046 0.0
H114 H 0.88732 0.44922 0.1953 0.0
H115 H 0.90276 0.41699 0.16448 0.0
H116 H 0.09011 0.54703 0.17097 0.0
H117 H 0.07411 0.57813 0.20191 0.0
H118 H 0.89596 0.57006 0.19534 0.0
H119 H 0.91359 0.63923 0.17124 0.0
H120 H 0.08665 0.7602 0.19746 0.0
H121 H 0.06954 0.6897 0.22084 0.0
H122 H 0.86751 0.61102 0.23929 0.0
H123 H 0.85958 0.69737 0.24855 0.0
H124 H 0.04578 0.792 0.26643 0.0
H125 H 0.05306 0.70551 0.25698 0.0
H126 H 0.85817 0.53677 0.27446 0.0
H127 H 0.85093 0.5919 0.30166 0.0
H128 H 0.04275 0.68699 0.3093 0.0
H129 H 0.04893 0.63062 0.28263 0.0
H130 H 0.8746 0.39989 0.26162 0.0
H131 H 0.88223 0.33668 0.28403 0.0
H132 H 0.05866 0.47809 0.30175 0.0
H133 H 0.05217 0.5385 0.27826 0.0
O134 O 0.96167 0.41236 0.13706 0.0
O135 O 0.05684 0.48255 0.14048 0.0
O136 O 0.89999 0.80241 0.2625 0.0
O137 O 0.99521 0.85245 0.27228 0.0
C138 C 0.96635 0.49409 0.23455 0.0
C139 C 0.97116 0.53112 0.22021 0.0
C140 C 0.97109 0.58375 0.22453 0.0
C141 C 0.96416 0.59835 0.24305 0.0
C142 C 0.95965 0.5615 0.25741 0.0
C143 C 0.96145 0.50959 0.25322 0.0
C144 C 0.97013 0.44096 0.22964 0.0
C145 C 0.91818 0.38806 0.22414 0.0
C146 C 0.9217 0.34378 0.21387 0.0
C147 C 0.97727 0.3521 0.20888 0.0
C148 C 0.02935 0.40269 0.2161 0.0
C149 C 0.02574 0.44687 0.22644 0.0
C150 C 0.9796 0.51589 0.20079 0.0
C151 C 0.93156 0.47092 0.18996 0.0
C152 C 0.94055 0.45255 0.17239 0.0
C153 C -0.00227 0.47926 0.16529 0.0
C154 C 0.04553 0.52545 0.17603 0.0
C155 C 0.0365 0.54353 0.19365 0.0
C156 C 0.98133 0.62517 0.20986 0.0
C157 C 0.93774 0.61141 0.19574 0.0
C158 C 0.94777 0.65115 0.18209 0.0
C159 C 0.00153 0.70539 0.18242 0.0
C160 C 0.04514 0.71858 0.19659 0.0
C161 C 0.03523 0.67869 0.21011 0.0
C162 C 0.96078 0.65214 0.2475 0.0
C163 C 0.90659 0.65067 0.24505 0.0
C164 C 0.90218 0.69994 0.25042 0.0
C165 C 0.95202 0.75153 0.25831 0.0
C166 C 0.00652 0.75299 0.26044 0.0
C167 C 0.01085 0.70373 0.25504 0.0
C168 C 0.95402 0.57933 0.27673 0.0
C169 C 0.89826 0.56758 0.2826 0.0
C170 C 0.89437 0.59987 0.29794 0.0
C171 C 0.94629 0.64466 0.30752 0.0
C172 C 0.00171 0.65249 0.30249 0.0
C173 C 0.00545 0.61999 0.28725 0.0
C174 C 0.96281 0.47378 0.26832 0.0
C175 C 0.91482 0.41698 0.27037 0.0
C176 C 0.91915 0.38113 0.28333 0.0
C177 C 0.97133 0.40185 0.29468 0.0
C178 C 0.01834 0.45983 0.29299 0.0
C179 C 0.01437 0.49504 0.27979 0.0
C180 C 0.00742 0.45842 0.14687 0.0
C181 C 0.94728 0.80353 0.26444 0.0
H182 H 0.54164 0.99207 0.46245 0.0
H183 H 0.25976 0.18786 0.61728 0.0
H184 H 0.56958 0.98232 0.56094 0.0
H185 H 0.64276 0.98379 0.53995 0.0
H186 H 0.76205 0.16745 0.55669 0.0
H187 H 0.68682 0.16632 0.57663 0.0
H188 H 0.46501 0.98442 0.53883 0.0
H189 H 0.48216 0.97133 0.50603 0.0
H190 H 0.63665 0.1465 0.50935 0.0
H191 H 0.61826 0.15941 0.542 0.0
H192 H 0.36453 0.00707 0.56327 0.0
H193 H 0.29499 0.00833 0.54064 0.0
H194 H 0.44031 0.16132 0.51755 0.0
H195 H 0.50766 0.16368 0.54184 0.0
H196 H 0.37306 0.01213 0.60383 0.0
H197 H 0.29465 0.02818 0.61575 0.0
H198 H 0.3855 0.20425 0.59637 0.0
H199 H 0.46425 0.18798 0.58484 0.0
H200 H 0.46571 0.00331 0.62521 0.0
H201 H 0.41394 0.00462 0.65309 0.0
H202 H 0.48055 0.19049 0.64849 0.0
H203 H 0.53429 0.18906 0.62128 0.0
H204 H 0.55437 0.99212 0.61335 0.0
H205 H 0.62389 0.99394 0.63731 0.0
H206 H 0.73601 0.18142 0.63327 0.0
H207 H 0.66522 0.17967 0.60988 0.0
O208 O 0.53516 -0.00151 0.47535 0.0
O209 O 0.6148 0.08841 0.47791 0.0
O210 O 0.24568 0.08974 0.62261 0.0
O211 O 0.2898 0.18009 0.6125 0.0
C212 C 0.57146 0.0791 0.57656 0.0
C213 C 0.5316 0.07936 0.56296 0.0
C214 C 0.48306 0.08522 0.56851 0.0
C215 C 0.47438 0.09082 0.58765 0.0
C216 C 0.51426 0.09055 0.60123 0.0
C217 C 0.56286 0.08485 0.5957 0.0
C218 C 0.62274 0.07426 0.57022 0.0
C219 C 0.6125 0.02219 0.56062 0.0
C220 C 0.65445 0.02323 0.54857 0.0
C221 C 0.70769 0.07623 0.54624 0.0
C222 C 0.72073 0.12636 0.55774 0.0
C223 C 0.67832 0.12552 0.56951 0.0
C224 C 0.54055 0.0727 0.5428 0.0
C225 C 0.50221 0.02005 0.53239 0.0
C226 C 0.51227 0.01264 0.51368 0.0
C227 C 0.56093 0.05778 0.50508 0.0
C228 C 0.59884 0.1108 0.51554 0.0
C229 C 0.58853 0.11825 0.5342 0.0
C230 C 0.44116 0.08535 0.55426 0.0
C231 C 0.381 0.04146 0.55351 0.0
C232 C 0.34144 0.04172 0.54026 0.0
C233 C 0.36161 0.08466 0.52696 0.0
C234 C 0.42237 0.12815 0.52767 0.0
C235 C 0.46142 0.12907 0.54139 0.0
C236 C 0.42447 0.09902 0.59359 0.0
C237 C 0.37591 0.05412 0.60218 0.0
C238 C 0.33116 0.06338 0.60895 0.0
C239 C 0.33391 0.11761 0.60707 0.0
C240 C 0.38207 0.16205 0.59808 0.0
C241 C 0.42697 0.15281 0.59141 0.0
C242 C 0.50343 0.09602 0.6212 0.0
C243 C 0.47176 0.0449 0.63086 0.0
C244 C 0.44122 0.04555 0.64657 0.0
C245 C 0.44159 0.09725 0.6527 0.0
C246 C 0.4792 0.14986 0.64423 0.0
C247 C 0.51025 0.14927 0.62867 0.0
C248 C 0.60506 0.08572 0.6099 0.0
C249 C 0.59385 0.03353 0.61772 0.0
C250 C 0.63341 0.03462 0.63133 0.0
C251 C 0.68526 0.08777 0.63698 0.0
C252 C 0.69661 0.13987 0.62897 0.0
C253 C 0.65636 0.13894 0.61568 0.0
C254 C 0.5721 0.0494 0.48531 0.0
C255 C 0.28702 0.12805 0.61454 0.0
H256 H 0.7611 0.79388 0.03482 0.0
H257 H 0.31926 0.21925 0.92338 0.0
H258 H 0.66 0.74906 0.93894 0.0
H259 H 0.74585 0.84319 0.94883 0.0
H260 H 0.86112 0.78734 0.92399 0.0
H261 H 0.77382 0.691 0.91519 0.0
H262 H 0.60123 0.67027 0.96957 0.0
H263 H 0.65448 0.72394 -0.00121 0.0
H264 H 0.80121 0.69901 0.98447 0.0
H265 H 0.74704 0.64467 0.95542 0.0
H266 H 0.48824 0.55838 0.95549 0.0
H267 H 0.43955 0.51305 0.98373 0.0
H268 H 0.57775 0.47261 0.99585 0.0
H269 H 0.62589 0.51763 0.96714 0.0
H270 H 0.44453 0.50905 0.91601 0.0
H271 H 0.3558 0.41086 0.91388 0.0
H272 H 0.46336 0.33635 0.9301 0.0
H273 H 0.55191 0.43475 0.93188 0.0
H274 H 0.51175 0.59335 0.88652 0.0
H275 H 0.43658 0.52862 0.86242 0.0
H276 H 0.49933 0.40533 0.86546 0.0
H277 H 0.57415 0.47024 0.88959 0.0
H278 H 0.62699 0.71975 0.89854 0.0
H279 H 0.67279 0.77966 0.87228 0.0
H280 H 0.72615 0.65639 0.85234 0.0
H281 H 0.68247 0.59822 0.87935 0.0
O282 O 0.74039 0.77165 0.02334 0.0
O283 O 0.81468 0.75776 0.0153 0.0
O284 O 0.30043 0.29906 0.91569 0.0
O285 O 0.35357 0.25861 0.92422 0.0
C286 C 0.66012 0.65182 0.92559 0.0
C287 C 0.63902 0.62316 0.9423 0.0
C288 C 0.5876 0.567 0.94172 0.0
C289 C 0.5589 0.5382 0.92443 0.0
C290 C 0.58091 0.56627 0.90767 0.0
C291 C 0.63097 0.62357 0.90826 0.0
C292 C 0.71095 0.71302 0.92675 0.0
C293 C 0.70374 0.75773 0.93526 0.0
C294 C 0.75322 0.81197 0.94074 0.0
C295 C 0.81104 0.82301 0.93751 0.0
C296 C 0.81749 0.77995 0.92716 0.0
C297 C 0.76771 0.7251 0.92192 0.0
C298 C 0.67007 0.65315 0.96048 0.0
C299 C 0.64451 0.67575 0.9729 0.0
C300 C 0.6752 0.7067 0.98952 0.0
C301 C 0.73214 0.7158 0.99397 0.0
C302 C 0.75743 0.69274 0.98149 0.0
C303 C 0.72658 0.66162 0.96491 0.0
C304 C 0.56017 0.54078 0.95926 0.0
C305 C 0.50807 0.5399 0.96428 0.0
C306 C 0.48078 0.51461 0.98053 0.0
C307 C 0.50512 0.48969 0.99211 0.0
C308 C 0.55793 0.49132 0.98716 0.0
C309 C 0.58544 0.51696 0.97085 0.0
C310 C 0.50464 0.47886 0.92395 0.0
C311 C 0.44882 0.47142 0.91904 0.0
C312 C 0.39822 0.41532 0.91788 0.0
C313 C 0.40252 0.3657 0.92176 0.0
C314 C 0.45849 0.37357 0.92697 0.0
C315 C 0.5091 0.42969 0.92805 0.0
C316 C 0.54808 0.53624 0.88981 0.0
C317 C 0.51065 0.55342 0.88146 0.0
C318 C 0.46759 0.51627 0.86777 0.0
C319 C 0.46144 0.46145 0.86234 0.0
C320 C 0.50236 0.4468 0.86966 0.0
C321 C 0.54551 0.48405 0.88325 0.0
C322 C 0.65207 0.6551 0.89095 0.0
C323 C 0.64825 0.70553 0.88842 0.0
C324 C 0.674 0.7394 0.87326 0.0
C325 C 0.70348 0.72308 0.86016 0.0
C326 C 0.70473 0.67084 0.86231 0.0
C327 C 0.67935 0.63722 0.87762 0.0
C328 C 0.76505 0.74958 0.01149 0.0
C329 C 0.34899 0.30592 0.92037 0.0
H330 H 0.09523 0.17256 0.13163 0.0
H331 H 0.91076 0.31139 0.17632 0.0
H332 H 0.97673 0.21092 0.10053 0.0
H333 H 0.05356 0.3084 0.20666 0.0
H334 H 0.9246 0.25986 0.14973 0.0
H335 H 0.07212 0.20954 0.16034 0.0
C336 C 0.0643 0.18855 0.13083 0.0
C337 C 0.0383 0.1891 0.1136 0.0
C338 C 0.95258 0.26983 0.16225 0.0
C339 C 0.01142 0.2308 0.14633 0.0
C340 C 0.9442 0.29865 0.17755 0.0
C341 C 0.98082 0.31387 0.1938 0.0
C342 C -0.00192 0.25614 0.16309 0.0
C343 C 0.02455 0.29766 0.19436 0.0
C344 C 0.0512 0.20964 0.1472 0.0
C345 C -0.00159 0.21018 0.11342 0.0
N346 N 0.03218 0.26982 0.17916 0.0
N347 N 0.98629 0.23015 0.1295 0.0
H348 H 0.95138 0.20308 0.45708 0.0
H349 H 0.73577 0.9948 0.5318 0.0
H350 H 0.87275 0.01416 0.45196 0.0
H351 H 0.76348 0.16825 0.52381 0.0
H352 H 0.79201 0.00254 0.50406 0.0
H353 H 0.88775 0.19271 0.48291 0.0
C354 C 0.92015 0.15936 0.46124 0.0
C355 C 0.91731 0.10941 0.45235 0.0
C356 C 0.78573 0.03884 0.50846 0.0
C357 C 0.84535 0.09735 0.48215 0.0
C358 C 0.75375 0.03453 0.52429 0.0
C359 C 0.74537 0.0812 0.53034 0.0
C360 C 0.80988 0.09034 0.49869 0.0
C361 C 0.7701 0.13177 0.52007 0.0
C362 C 0.88394 0.15348 0.47599 0.0
C363 C 0.87607 0.05382 0.45833 0.0
N364 N 0.80137 0.13505 0.50482 0.0
N365 N 0.84217 0.0493 0.47303 0.0
H366 H 0.97063 0.94567 0.78462 0.0
H367 H 0.67097 0.78943 0.83994 0.0
H368 H 0.86419 0.02533 0.79683 0.0
H369 H 0.81065 0.74775 0.84615 0.0
H370 H 0.73125 0.86363 0.81835 0.0
H371 H 0.90182 0.86033 0.80152 0.0
C372 C 0.93252 0.94499 0.79068 0.0
C373 C 0.92338 0.99291 0.78944 0.0
C374 C 0.74838 0.83782 0.82435 0.0
C375 C 0.84454 0.89543 0.8086 0.0
C376 C 0.71414 0.79559 0.83673 0.0
C377 C 0.73599 0.76269 0.84514 0.0
C378 C 0.80467 0.84692 0.82014 0.0
C379 C 0.79163 0.77163 0.83997 0.0
C380 C 0.89348 0.89641 0.80037 0.0
C381 C 0.87332 0.98967 0.79761 0.0
N382 N 0.8242 0.81314 0.82789 0.0
N383 N 0.8358 0.9418 0.80684 0.0
H384 H 0.96578 0.92674 0.10373 0.0
H385 H 0.10521 0.77706 0.16542 0.0
H386 H 0.15466 -0.00064 0.11339 0.0
H387 H 0.92165 0.73266 0.16719 0.0
H388 H 0.12265 0.85183 0.14358 0.0
H389 H 0.94734 0.84817 0.1242 0.0
C390 C 0.00338 0.92609 0.11013 0.0
C391 C 0.06186 0.96973 0.10692 0.0
C392 C 0.07854 0.82564 0.14874 0.0
C393 C 0.04106 0.87989 0.13024 0.0
C394 C 0.06856 0.78308 0.16128 0.0
C395 C 0.01193 0.74868 0.1683 0.0
C396 C 0.0315 0.83372 0.14304 0.0
C397 C 0.96588 0.75761 0.16203 0.0
C398 C 0.9928 0.88131 0.12183 0.0
C399 C 0.10887 0.96673 0.11556 0.0
N400 N 0.97671 0.79933 0.14979 0.0
N401 N 0.09745 0.92251 0.12681 0.0
H402 H 0.0459 0.02328 0.46628 0.0
H403 H 0.36668 0.17875 0.50972 0.0
H404 H 0.18802 0.1238 0.43011 0.0
H405 H 0.25953 0.98913 0.51085 0.0
H406 H 0.2972 0.17565 0.48589 0.0
H407 H 0.11902 0.02626 0.48906 0.0
C408 C 0.09268 0.04681 0.46333 0.0
C409 C 0.11175 0.07573 0.4468 0.0
C410 C 0.28939 0.13507 0.49148 0.0
C411 C 0.19445 0.07895 0.47245 0.0
C412 C 0.32916 0.13643 0.50499 0.0
C413 C 0.31952 0.08403 0.5125 0.0
C414 C 0.23867 0.08145 0.4859 0.0
C415 C 0.26856 0.03097 0.506 0.0
C416 C 0.13399 0.04824 0.47621 0.0
C417 C 0.17233 0.10377 0.44319 0.0
N418 N 0.22963 0.03115 0.49325 0.0
N419 N 0.21204 0.10562 0.45611 0.0
H420 H 0.18429 0.27853 0.77548 0.0
H421 H 0.39003 0.34474 0.86763 0.0
H422 H 0.15802 0.1472 0.81373 0.0
H423 H 0.41315 0.47836 0.83059 0.0
H424 H 0.30308 0.27252 0.84854 0.0
H425 H 0.26533 0.35355 0.79616 0.0
C426 C 0.1949 0.26595 0.7885 0.0
C427 C 0.16348 0.20736 0.79335 0.0
C428 C 0.32713 0.31757 0.84454 0.0
C429 C 0.25749 0.29191 0.8166 0.0
C430 C 0.37714 0.35872 0.85533 0.0
C431 C 0.40938 0.41745 0.85051 0.0
C432 C 0.30913 0.33514 0.82875 0.0
C433 C 0.3896 0.4335 0.83477 0.0
C434 C 0.24147 0.30852 0.80019 0.0
C435 C 0.18058 0.19237 0.80981 0.0
N436 N 0.34086 0.39248 0.82439 0.0
N437 N 0.22644 0.23446 0.8209 0.0
H438 H 0.98458 0.11133 0.70001 0.0
H439 H 0.65985 0.04735 0.67178 0.0
H440 H 0.86755 0.11912 0.74037 0.0
H441 H 0.80486 0.13179 0.63508 0.0
H442 H 0.73026 0.05383 0.69622 0.0
H443 H 0.91355 0.09994 0.67493 0.0
C444 C 0.94388 0.11036 0.70358 0.0
C445 C 0.93197 0.11644 0.72226 0.0
C446 C 0.74653 0.07075 0.68279 0.0
C447 C 0.85068 0.10255 0.69381 0.0
C448 C 0.70648 0.06679 0.66887 0.0
C449 C 0.72687 0.08926 0.6515 0.0
C450 C 0.80708 0.09627 0.67915 0.0
C451 C 0.78769 0.11437 0.64838 0.0
C452 C 0.90365 0.10412 0.6893 0.0
C453 C 0.87868 0.11509 0.72614 0.0
N454 N 0.82577 0.11695 0.66207 0.0
N455 N 0.83979 0.10787 0.71204 0.0
H456 H 0.11393 0.06244 0.01314 0.0
H457 H 0.82813 0.93387 0.94604 0.0
H458 H 0.9432 0.01638 0.03439 0.0
H459 H 0.91276 0.83004 0.95231 0.0
H460 H 0.89766 0.00489 0.97017 0.0
H461 H 0.06422 0.01387 0.9826 0.0
C462 C 0.06627 0.04345 0.01119 0.0
C463 C 0.03257 0.0455 0.0259 0.0
C464 C 0.90175 0.96734 0.96574 0.0
C465 C 0.97662 0.99141 0.99149 0.0
C466 C 0.86191 0.92644 0.95211 0.0
C467 C 0.86303 0.87457 0.94749 0.0
C468 C 0.94424 0.95743 0.97429 0.0
C469 C 0.90966 0.86896 0.95536 0.0
C470 C 0.03828 0.01612 0.99389 0.0
C471 C 0.97085 0.01843 0.02305 0.0
N472 N 0.94801 0.90955 0.96861 0.0
N473 N 0.94475 0.99295 0.00607 0.0
H474 H 0.87765 0.89759 0.36837 0.0
H475 H 0.01579 0.69833 0.33956 0.0
H476 H 0.06454 0.95633 0.37583 0.0
H477 H 0.87222 0.69063 0.30617 0.0
H478 H 0.02165 0.78041 0.35861 0.0
H479 H 0.86351 0.80955 0.35018 0.0
C480 C 0.91563 0.89214 0.36608 0.0
C481 C 0.9724 0.93437 0.37349 0.0
C482 C 0.98856 0.76024 0.34719 0.0
C483 C 0.95621 0.83374 0.35339 0.0
C484 C 0.98517 0.71345 0.33629 0.0
C485 C 0.94388 0.68773 0.32107 0.0
C486 C 0.94983 0.781 0.34306 0.0
C487 C 0.90435 0.70847 0.31786 0.0
C488 C 0.90751 0.84204 0.35578 0.0
C489 C 0.02012 0.92516 0.37023 0.0
N490 N 0.90842 0.75409 0.32874 0.0
N491 N 0.01084 0.87557 0.36059 0.0
H492 H 0.12004 0.00217 0.71168 0.0
H493 H 0.45537 0.17993 0.68025 0.0
H494 H 0.23315 0.19032 0.72133 0.0
H495 H 0.32539 0.00995 0.65465 0.0
H496 H 0.37749 0.17977 0.6988 0.0
H497 H 0.19765 -0.0001 0.69344 0.0
C498 C 0.16094 0.043 0.70983 0.0
C499 C 0.17012 0.09652 0.71797 0.0
C500 C 0.36623 0.14238 0.68918 0.0
C501 C 0.25923 0.09407 0.69753 0.0
C502 C 0.41066 0.1424 0.67861 0.0
C503 C 0.39713 0.09486 0.66587 0.0
C504 C 0.30787 0.09433 0.68711 0.0
C505 C 0.33838 0.04709 0.66454 0.0
C506 C 0.2052 0.04166 0.69948 0.0
C507 C 0.22405 0.14811 0.71522 0.0
N508 N 0.29594 0.04809 0.675 0.0
N509 N 0.26673 0.14554 0.70535 0.0
H510 H 0.27324 0.20667 0.05798 0.0
H511 H 0.45052 0.52462 0.01765 0.0
H512 H 0.21099 0.33061 0.0575 0.0
H513 H 0.4849 0.38373 0.00371 0.0
H514 H 0.38039 0.464 0.04042 0.0
H515 H 0.36787 0.28142 0.04626 0.0
C516 C 0.27993 0.24997 0.05582 0.0
C517 C 0.23385 0.26218 0.05841 0.0
C518 C 0.40403 0.44675 0.03259 0.0
C519 C 0.34164 0.34751 0.04504 0.0
C520 C 0.4439 0.48121 0.01957 0.0
C521 C 0.47252 0.45863 0.00847 0.0
C522 C 0.39266 0.38927 0.03452 0.0
C523 C 0.46357 0.40277 0.01189 0.0
C524 C 0.3338 0.29245 0.04905 0.0
C525 C 0.24496 0.31901 0.05538 0.0
N526 N 0.42363 0.36955 0.02443 0.0
N527 N 0.2975 0.35937 0.04868 0.0
H528 H 0.92112 0.1284 0.36881 0.0
H529 H 0.07209 0.3985 0.30426 0.0
H530 H 0.10066 0.2732 0.37923 0.0
H531 H 0.88503 0.31552 0.31511 0.0
H532 H 0.08308 0.3385 0.32699 0.0
H533 H 0.90701 0.18264 0.34412 0.0
C534 C 0.95762 0.17125 0.3658 0.0
C535 C 0.01207 0.19648 0.3761 0.0
C536 C 0.03966 0.33349 0.32433 0.0
C537 C 0.99651 0.25779 0.34792 0.0
C538 C 0.0333 0.3681 0.31146 0.0
C539 C 0.97766 0.36313 0.3079 0.0
C540 C 0.98994 0.29259 0.33351 0.0
C541 C 0.92874 0.32089 0.31724 0.0
C542 C 0.94943 0.20215 0.35183 0.0
C543 C 0.05785 0.25224 0.37172 0.0
N544 N 0.93601 0.28719 0.32963 0.0
N545 N 0.04915 0.28085 0.35789 0.0
loop_
_geom_bond_atom_site_label_1
_geom_bond_atom_site_label_2
_geom_bond_distance
_geom_bond_site_symmetry_2
_ccdc_geom_bond_type
Mn0 O5 2.095 . S
Mn0 O15 2.162 . S
Mn0 O16 2.297 . S
Mn0 O24 2.385 . S
Mn0 O25 2.209 . S
Mn0 O26 2.094 . S
Mn1 O6 2.121 . S
Mn1 N8 2.257 1_455 S
Mn1 N17 2.282 . S
Mn1 O25 2.215 . S
Mn1 O27 2.117 . S
C2 O24 1.234 . S
C2 O25 1.283 . S
C3 O15 1.281 . S
C3 O16 1.236 . S
C4 O26 1.240 . S
C4 O27 1.264 . S
O5 Mn0 2.095 . S
O5 C14 1.250 . S
O6 Mn1 2.121 . S
O6 C14 1.258 . S
C7 N8 1.326 . S
C7 C11 1.460 . S
C7 H13 0.929 . S
N8 Mn1 2.257 1_655 S
N8 C7 1.326 . S
N8 C12 1.362 . S
C9 C10 1.258 . S
C9 C12 1.431 . S
C9 C29 1.449 . S
C10 C9 1.258 . S
C10 C11 1.477 . S
C10 H30 0.931 . S
C11 C7 1.460 . S
C11 C10 1.477 . S
C11 H31 0.930 . S
C12 N8 1.362 . S
C12 C9 1.431 . S
C12 C22 1.476 . S
H13 C7 0.929 . S
C14 O5 1.250 . S
C14 O6 1.258 . S
O15 Mn0 2.162 . S
O15 C3 1.281 . S
O16 Mn0 2.297 . S
O16 C3 1.236 . S
N17 Mn1 2.282 . S
N17 C18 1.328 . S
N17 C22 1.318 1_455 S
C18 N17 1.328 . S
C18 C19 1.457 . S
C18 H23 0.929 . S
C19 C18 1.457 . S
C19 C20 1.291 1_454 S
C19 H32 0.931 1_554 S
C20 C19 1.291 1_656 S
C20 C21 1.373 1_556 S
C20 H33 0.929 . S
C21 C20 1.373 1_554 S
C21 C22 1.396 . S
C21 C28 1.403 . S
C22 C12 1.476 . S
C22 N17 1.318 1_655 S
C22 C21 1.396 . S
H23 C18 0.929 . S
O24 Mn0 2.385 . S
O24 C2 1.234 . S
O25 Mn0 2.209 . S
O25 Mn1 2.215 . S
O25 C2 1.283 . S
O26 Mn0 2.094 . S
O26 C4 1.240 . S
O27 Mn1 2.117 . S
O27 C4 1.264 . S
C28 C21 1.403 . S
C28 C29 1.399 . S
C28 H34 0.929 1_554 S
C29 C9 1.449 . S
C29 C28 1.399 . S
C29 H35 0.930 . S
H30 C10 0.931 . S
H31 C11 0.930 . S
H32 C19 0.931 1_556 S
H33 C20 0.929 . S
H34 C28 0.929 1_556 S
H35 C29 0.930 . S
Mn36 O41 2.095 . S
Mn36 O51 2.162 1_545 S
Mn36 O52 2.297 1_645 S
Mn36 O60 2.385 1_645 S
Mn36 O61 2.209 1_655 S
Mn36 O62 2.094 . S
Mn37 O42 2.121 . S
Mn37 N44 2.257 . S
Mn37 N53 2.282 . S
Mn37 O61 2.215 . S
Mn37 O63 2.117 1_455 S
C38 O60 1.234 1_545 S
C38 O61 1.283 . S
C39 O51 1.281 . S
C39 O52 1.236 1_655 S
C40 O62 1.240 . S
C40 O63 1.264 . S
O41 Mn36 2.095 . S
O41 C50 1.250 1_655 S
O42 Mn37 2.121 . S
O42 C50 1.258 . S
C43 N44 1.326 . S
C43 C47 1.460 . S
C43 H49 0.929 . S
N44 Mn37 2.257 . S
N44 C43 1.326 . S
N44 C48 1.362 . S
C45 C46 1.258 . S
C45 C48 1.431 . S
C45 C65 1.449 . S
C46 C45 1.258 . S
C46 C47 1.477 . S
C46 H66 0.931 . S
C47 C43 1.460 . S
C47 C46 1.477 . S
C47 H67 0.930 . S
C48 N44 1.362 . S
C48 C45 1.431 . S
C48 C58 1.476 . S
H49 C43 0.929 . S
C50 O41 1.250 1_455 S
C50 O42 1.258 . S
O51 Mn36 2.162 1_565 S
O51 C39 1.281 . S
O52 Mn36 2.297 1_465 S
O52 C39 1.236 1_455 S
N53 Mn37 2.282 . S
N53 C54 1.328 . S
N53 C58 1.318 . S
C54 N53 1.328 . S
C54 C55 1.457 . S
C54 H59 0.929 . S
C55 C54 1.457 . S
C55 C56 1.291 . S
C55 H68 0.931 . S
C56 C55 1.291 . S
C56 C57 1.373 . S
C56 H69 0.929 . S
C57 C56 1.373 . S
C57 C58 1.396 . S
C57 C64 1.403 . S
C58 C48 1.476 . S
C58 N53 1.318 . S
C58 C57 1.396 . S
H59 C54 0.929 . S
O60 Mn36 2.385 1_465 S
O60 C38 1.234 1_565 S
O61 Mn36 2.209 1_455 S
O61 Mn37 2.215 . S
O61 C38 1.283 . S
O62 Mn36 2.094 . S
O62 C40 1.240 . S
O63 Mn37 2.117 1_655 S
O63 C40 1.264 . S
C64 C57 1.403 . S
C64 C65 1.399 . S
C64 H70 0.929 . S
C65 C45 1.449 . S
C65 C64 1.399 . S
C65 H71 0.930 . S
H66 C46 0.931 . S
H67 C47 0.930 . S
H68 C55 0.931 . S
H69 C56 0.929 . S
H70 C64 0.929 . S
H71 C65 0.930 . S
Mn72 O77 2.095 . S
Mn72 O87 2.162 . S
Mn72 O88 2.297 . S
Mn72 O96 2.385 . S
Mn72 O97 2.209 . S
Mn72 O98 2.094 . S
Mn73 O78 2.121 . S
Mn73 N80 2.257 . S
Mn73 N89 2.282 . S
Mn73 O97 2.215 . S
Mn73 O99 2.117 . S
C74 O96 1.234 . S
C74 O97 1.283 . S
C75 O87 1.281 . S
C75 O88 1.236 . S
C76 O98 1.240 . S
C76 O99 1.264 . S
O77 Mn72 2.095 . S
O77 C86 1.250 . S
O78 Mn73 2.121 . S
O78 C86 1.258 . S
C79 N80 1.326 . S
C79 C83 1.460 . S
C79 H85 0.929 . S
N80 Mn73 2.257 . S
N80 C79 1.326 . S
N80 C84 1.362 . S
C81 C82 1.258 . S
C81 C84 1.431 . S
C81 C101 1.449 . S
C82 C81 1.258 . S
C82 C83 1.477 . S
C82 H102 0.931 . S
C83 C79 1.460 . S
C83 C82 1.477 . S
C83 H103 0.930 . S
C84 N80 1.362 . S
C84 C81 1.431 . S
C84 C94 1.476 . S
H85 C79 0.929 . S
C86 O77 1.250 . S
C86 O78 1.258 . S
O87 Mn72 2.162 . S
O87 C75 1.281 . S
O88 Mn72 2.297 . S
O88 C75 1.236 . S
N89 Mn73 2.282 . S
N89 C90 1.328 . S
N89 C94 1.318 . S
C90 N89 1.328 . S
C90 C91 1.457 . S
C90 H95 0.929 . S
C91 C90 1.457 . S
C91 C92 1.291 . S
C91 H104 0.931 . S
C92 C91 1.291 . S
C92 C93 1.373 . S
C92 H105 0.929 . S
C93 C92 1.373 . S
C93 C94 1.396 . S
C93 C100 1.403 . S
C94 C84 1.476 . S
C94 N89 1.318 . S
C94 C93 1.396 . S
H95 C90 0.929 . S
O96 Mn72 2.385 . S
O96 C74 1.234 . S
O97 Mn72 2.209 . S
O97 Mn73 2.215 . S
O97 C74 1.283 . S
O98 Mn72 2.094 . S
O98 C76 1.240 . S
O99 Mn73 2.117 . S
O99 C76 1.264 . S
C100 C93 1.403 . S
C100 C101 1.399 . S
C100 H106 0.929 . S
C101 C81 1.449 . S
C101 C100 1.399 . S
C101 H107 0.930 . S
H102 C82 0.931 . S
H103 C83 0.930 . S
H104 C91 0.931 . S
H105 C92 0.929 . S
H106 C100 0.929 . S
H107 C101 0.930 . S
H108 O134 0.856 . S
H109 O137 0.854 . S
H110 C145 0.930 . S
H111 C146 0.930 . S
H112 C148 0.930 . S
H113 C149 0.930 . S
H114 C151 0.931 1_655 S
H115 C152 0.930 1_655 S
H116 C154 0.930 . S
H117 C155 0.929 . S
H118 C157 0.930 1_655 S
H119 C158 0.931 1_655 S
H120 C160 0.930 . S
H121 C161 0.929 . S
H122 C163 0.931 . S
H123 C164 0.930 . S
H124 C166 0.930 . S
H125 C167 0.932 . S
H126 C169 0.930 . S
H127 C170 0.929 . S
H128 C172 0.931 . S
H129 C173 0.930 . S
H130 C175 0.929 . S
H131 C176 0.931 . S
H132 C178 0.930 . S
H133 C179 0.929 . S
O134 H108 0.856 . S
O134 C180 1.300 . S
O135 C180 1.209 . S
O136 C181 1.199 1_655 S
O137 H109 0.854 . S
O137 C181 1.297 . S
C138 C139 1.404 . S
C138 C143 1.397 . S
C138 C144 1.492 . S
C139 C138 1.404 . S
C139 C140 1.396 . S
C139 C150 1.492 . S
C140 C139 1.396 . S
C140 C141 1.397 . S
C140 C156 1.509 . S
C141 C140 1.397 . S
C141 C142 1.412 . S
C141 C162 1.485 . S
C142 C141 1.412 . S
C142 C143 1.388 . S
C142 C168 1.490 . S
C143 C138 1.397 . S
C143 C142 1.388 . S
C143 C174 1.519 . S
C144 C138 1.492 . S
C144 C145 1.363 1_455 S
C144 C149 1.390 . S
C145 H110 0.930 . S
C145 C144 1.363 1_655 S
C145 C146 1.372 . S
C146 H111 0.930 . S
C146 C145 1.372 . S
C146 C147 1.383 1_655 S
C147 C146 1.383 1_455 S
C147 C148 1.395 . S
C148 H112 0.930 . S
C148 C147 1.395 . S
C148 C149 1.362 . S
C149 H113 0.930 . S
C149 C144 1.390 . S
C149 C148 1.362 . S
C150 C139 1.492 . S
C150 C151 1.377 . S
C150 C155 1.397 . S
C151 H114 0.931 1_455 S
C151 C150 1.377 . S
C151 C152 1.376 . S
C152 H115 0.930 1_455 S
C152 C151 1.376 . S
C152 C153 1.376 . S
C153 C152 1.376 . S
C153 C154 1.378 . S
C153 C180 1.486 . S
C154 H116 0.930 . S
C154 C153 1.378 . S
C154 C155 1.376 . S
C155 H117 0.929 . S
C155 C150 1.397 . S
C155 C154 1.376 . S
C156 C140 1.509 . S
C156 C157 1.391 . S
C156 C161 1.386 . S
C157 H118 0.930 1_455 S
C157 C156 1.391 . S
C157 C158 1.375 . S
C158 H119 0.931 1_455 S
C158 C157 1.375 . S
C158 C159 1.375 . S
C159 C158 1.375 . S
C159 C160 1.361 . S
C160 H120 0.930 . S
C160 C159 1.361 . S
C160 C161 1.399 . S
C161 H121 0.929 . S
C161 C156 1.386 . S
C161 C160 1.399 . S
C162 C141 1.485 . S
C162 C163 1.394 1_455 S
C162 C167 1.360 . S
C163 H122 0.931 . S
C163 C162 1.394 1_655 S
C163 C164 1.372 . S
C164 H123 0.930 . S
C164 C163 1.372 . S
C164 C165 1.397 1_655 S
C165 C164 1.397 1_455 S
C165 C166 1.390 . S
C165 C181 1.476 . S
C166 H124 0.930 . S
C166 C165 1.390 . S
C166 C167 1.366 . S
C167 H125 0.932 . S
C167 C162 1.360 . S
C167 C166 1.366 . S
C168 C142 1.490 . S
C168 C169 1.380 1_455 S
C168 C173 1.386 . S
C169 H126 0.930 . S
C169 C168 1.380 1_655 S
C169 C170 1.381 . S
C170 H127 0.929 . S
C170 C169 1.381 . S
C170 C171 1.371 . S
C171 C170 1.371 . S
C171 C172 1.380 1_655 S
C172 H128 0.931 . S
C172 C171 1.380 1_455 S
C172 C173 1.387 . S
C173 H129 0.930 . S
C173 C168 1.386 . S
C173 C172 1.387 . S
C174 C143 1.519 . S
C174 C175 1.377 1_455 S
C174 C179 1.361 . S
C175 H130 0.929 . S
C175 C174 1.377 1_655 S
C175 C176 1.386 . S
C176 H131 0.931 . S
C176 C175 1.386 . S
C176 C177 1.363 1_655 S
C177 C176 1.363 1_455 S
C177 C178 1.385 . S
C178 H132 0.930 . S
C178 C177 1.385 . S
C178 C179 1.396 . S
C179 H133 0.929 . S
C179 C174 1.361 . S
C179 C178 1.396 . S
C180 O134 1.300 . S
C180 O135 1.209 . S
C180 C153 1.486 . S
C181 O136 1.199 1_455 S
C181 O137 1.297 . S
C181 C165 1.476 . S
H182 O208 0.856 . S
H183 O211 0.854 . S
H184 C219 0.930 . S
H185 C220 0.930 . S
H186 C222 0.930 . S
H187 C223 0.930 . S
H188 C225 0.931 . S
H189 C226 0.930 . S
H190 C228 0.930 . S
H191 C229 0.929 . S
H192 C231 0.930 . S
H193 C232 0.931 . S
H194 C234 0.930 . S
H195 C235 0.929 . S
H196 C237 0.931 . S
H197 C238 0.930 . S
H198 C240 0.930 . S
H199 C241 0.932 . S
H200 C243 0.930 . S
H201 C244 0.929 . S
H202 C246 0.931 . S
H203 C247 0.930 . S
H204 C249 0.929 . S
H205 C250 0.931 . S
H206 C252 0.930 . S
H207 C253 0.929 . S
O208 H182 0.856 . S
O208 C254 1.300 . S
O209 C254 1.209 . S
O210 C255 1.199 . S
O211 H183 0.854 . S
O211 C255 1.297 . S
C212 C213 1.404 . S
C212 C217 1.397 . S
C212 C218 1.492 . S
C213 C212 1.404 . S
C213 C214 1.396 . S
C213 C224 1.492 . S
C214 C213 1.396 . S
C214 C215 1.397 . S
C214 C230 1.509 . S
C215 C214 1.397 . S
C215 C216 1.412 . S
C215 C236 1.485 . S
C216 C215 1.412 . S
C216 C217 1.388 . S
C216 C242 1.490 . S
C217 C212 1.397 . S
C217 C216 1.388 . S
C217 C248 1.519 . S
C218 C212 1.492 . S
C218 C219 1.363 . S
C218 C223 1.390 . S
C219 H184 0.930 . S
C219 C218 1.363 . S
C219 C220 1.372 . S
C220 H185 0.930 . S
C220 C219 1.372 . S
C220 C221 1.383 . S
C221 C220 1.383 . S
C221 C222 1.395 . S
C222 H186 0.930 . S
C222 C221 1.395 . S
C222 C223 1.362 . S
C223 H187 0.930 . S
C223 C218 1.390 . S
C223 C222 1.362 . S
C224 C213 1.492 . S
C224 C225 1.377 . S
C224 C229 1.397 . S
C225 H188 0.931 . S
C225 C224 1.377 . S
C225 C226 1.376 . S
C226 H189 0.930 . S
C226 C225 1.376 . S
C226 C227 1.376 . S
C227 C226 1.376 . S
C227 C228 1.378 . S
C227 C254 1.486 . S
C228 H190 0.930 . S
C228 C227 1.378 . S
C228 C229 1.376 . S
C229 H191 0.929 . S
C229 C224 1.397 . S
C229 C228 1.376 . S
C230 C214 1.509 . S
C230 C231 1.391 . S
C230 C235 1.386 . S
C231 H192 0.930 . S
C231 C230 1.391 . S
C231 C232 1.375 . S
C232 H193 0.931 . S
C232 C231 1.375 . S
C232 C233 1.375 . S
C233 C232 1.375 . S
C233 C234 1.361 . S
C234 H194 0.930 . S
C234 C233 1.361 . S
C234 C235 1.399 . S
C235 H195 0.929 . S
C235 C230 1.386 . S
C235 C234 1.399 . S
C236 C215 1.485 . S
C236 C237 1.394 . S
C236 C241 1.360 . S
C237 H196 0.931 . S
C237 C236 1.394 . S
C237 C238 1.372 . S
C238 H197 0.930 . S
C238 C237 1.372 . S
C238 C239 1.397 . S
C239 C238 1.397 . S
C239 C240 1.390 . S
C239 C255 1.476 . S
C240 H198 0.930 . S
C240 C239 1.390 . S
C240 C241 1.366 . S
C241 H199 0.932 . S
C241 C236 1.360 . S
C241 C240 1.366 . S
C242 C216 1.490 . S
C242 C243 1.380 . S
C242 C247 1.386 . S
C243 H200 0.930 . S
C243 C242 1.380 . S
C243 C244 1.381 . S
C244 H201 0.929 . S
C244 C243 1.381 . S
C244 C245 1.371 . S
C245 C244 1.371 . S
C245 C246 1.380 . S
C246 H202 0.931 . S
C246 C245 1.380 . S
C246 C247 1.387 . S
C247 H203 0.930 . S
C247 C242 1.386 . S
C247 C246 1.387 . S
C248 C217 1.519 . S
C248 C249 1.377 . S
C248 C253 1.361 . S
C249 H204 0.929 . S
C249 C248 1.377 . S
C249 C250 1.386 . S
C250 H205 0.931 . S
C250 C249 1.386 . S
C250 C251 1.363 . S
C251 C250 1.363 . S
C251 C252 1.385 . S
C252 H206 0.930 . S
C252 C251 1.385 . S
C252 C253 1.396 . S
C253 H207 0.929 . S
C253 C248 1.361 . S
C253 C252 1.396 . S
C254 O208 1.300 . S
C254 O209 1.209 . S
C254 C227 1.486 . S
C255 O210 1.199 . S
C255 O211 1.297 . S
C255 C239 1.476 . S
H256 O282 0.856 . S
H257 O285 0.854 . S
H258 C293 0.930 . S
H259 C294 0.930 . S
H260 C296 0.930 . S
H261 C297 0.930 . S
H262 C299 0.931 . S
H263 C300 0.930 . S
H264 C302 0.933 . S
H265 C303 0.929 . S
H266 C305 0.930 . S
H267 C306 0.931 . S
H268 C308 0.930 . S
H269 C309 0.929 . S
H270 C311 0.931 . S
H271 C312 0.930 . S
H272 C314 0.930 . S
H273 C315 0.932 . S
H274 C317 0.930 . S
H275 C318 0.929 . S
H276 C320 0.931 . S
H277 C321 0.930 . S
H278 C323 0.929 . S
H279 C324 0.931 . S
H280 C326 0.930 . S
H281 C327 0.929 . S
O282 H256 0.856 . S
O282 C328 1.300 . S
O283 C328 1.209 . S
O284 C329 1.199 . S
O285 H257 0.854 . S
O285 C329 1.297 . S
C286 C287 1.404 . S
C286 C291 1.397 . S
C286 C292 1.492 . S
C287 C286 1.404 . S
C287 C288 1.396 . S
C287 C298 1.492 . S
C288 C287 1.396 . S
C288 C289 1.397 . S
C288 C304 1.509 . S
C289 C288 1.397 . S
C289 C290 1.412 . S
C289 C310 1.485 . S
C290 C289 1.412 . S
C290 C291 1.388 . S
C290 C316 1.490 . S
C291 C286 1.397 . S
C291 C290 1.388 . S
C291 C322 1.519 . S
C292 C286 1.492 . S
C292 C293 1.363 . S
C292 C297 1.390 . S
C293 H258 0.930 . S
C293 C292 1.363 . S
C293 C294 1.372 . S
C294 H259 0.930 . S
C294 C293 1.372 . S
C294 C295 1.383 . S
C295 C294 1.383 . S
C295 C296 1.395 . S
C296 H260 0.930 . S
C296 C295 1.395 . S
C296 C297 1.362 . S
C297 H261 0.930 . S
C297 C292 1.390 . S
C297 C296 1.362 . S
C298 C287 1.492 . S
C298 C299 1.377 . S
C298 C303 1.397 . S
C299 H262 0.931 . S
C299 C298 1.377 . S
C299 C300 1.376 1_556 S
C300 H263 0.930 . S
C300 C299 1.376 1_554 S
C300 C301 1.376 . S
C301 C300 1.376 . S
C301 C302 1.378 1_554 S
C301 C328 1.486 . S
C302 H264 0.933 . S
C302 C301 1.378 1_556 S
C302 C303 1.376 . S
C303 H265 0.929 . S
C303 C298 1.397 . S
C303 C302 1.376 . S
C304 C288 1.509 . S
C304 C305 1.391 . S
C304 C309 1.386 . S
C305 H266 0.930 . S
C305 C304 1.391 . S
C305 C306 1.375 . S
C306 H267 0.931 . S
C306 C305 1.375 . S
C306 C307 1.375 . S
C307 C306 1.375 . S
C307 C308 1.361 . S
C308 H268 0.930 . S
C308 C307 1.361 . S
C308 C309 1.399 . S
C309 H269 0.929 . S
C309 C304 1.386 . S
C309 C308 1.399 . S
C310 C289 1.485 . S
C310 C311 1.394 . S
C310 C315 1.360 . S
C311 H270 0.931 . S
C311 C310 1.394 . S
C311 C312 1.372 . S
C312 H271 0.930 . S
C312 C311 1.372 . S
C312 C313 1.397 . S
C313 C312 1.397 . S
C313 C314 1.390 . S
C313 C329 1.476 . S
C314 H272 0.930 . S
C314 C313 1.390 . S
C314 C315 1.366 . S
C315 H273 0.932 . S
C315 C310 1.360 . S
C315 C314 1.366 . S
C316 C290 1.490 . S
C316 C317 1.380 . S
C316 C321 1.386 . S
C317 H274 0.930 . S
C317 C316 1.380 . S
C317 C318 1.381 . S
C318 H275 0.929 . S
C318 C317 1.381 . S
C318 C319 1.371 . S
C319 C318 1.371 . S
C319 C320 1.380 . S
C320 H276 0.931 . S
C320 C319 1.380 . S
C320 C321 1.387 . S
C321 H277 0.930 . S
C321 C316 1.386 . S
C321 C320 1.387 . S
C322 C291 1.519 . S
C322 C323 1.377 . S
C322 C327 1.361 . S
C323 H278 0.929 . S
C323 C322 1.377 . S
C323 C324 1.386 . S
C324 H279 0.931 . S
C324 C323 1.386 . S
C324 C325 1.363 . S
C325 C324 1.363 . S
C325 C326 1.385 . S
C326 H280 0.930 . S
C326 C325 1.385 . S
C326 C327 1.396 . S
C327 H281 0.929 . S
C327 C322 1.361 . S
C327 C326 1.396 . S
C328 O282 1.300 . S
C328 O283 1.209 . S
C328 C301 1.486 . S
C329 O284 1.199 . S
C329 O285 1.297 . S
C329 C313 1.476 . S
H330 C336 0.930 . S
H331 C340 0.930 . S
H332 C345 0.929 . S
H333 C343 0.929 . S
H334 C338 0.929 . S
H335 C344 0.929 . S
C336 H330 0.930 . S
C336 C337 1.367 . S
C336 C344 1.378 . S
C337 C336 1.367 . S
C337 C345 1.433 . S
C338 H334 0.929 . S
C338 C340 1.378 . S
C338 C342 1.350 . S
C339 C342 1.463 . S
C339 C344 1.350 . S
C339 N347 1.427 . S
C340 H331 0.930 . S
C340 C338 1.378 . S
C340 C341 1.367 . S
C341 C340 1.367 . S
C341 C343 1.433 . S
C342 C338 1.350 . S
C342 C339 1.463 . S
C342 N346 1.427 . S
C343 H333 0.929 . S
C343 C341 1.433 . S
C343 N346 1.384 . S
C344 H335 0.929 . S
C344 C336 1.378 . S
C344 C339 1.350 . S
C345 H332 0.929 . S
C345 C337 1.433 . S
C345 N347 1.384 . S
N346 C342 1.427 . S
N346 C343 1.384 . S
N347 C339 1.427 . S
N347 C345 1.384 . S
H348 C354 0.930 . S
H349 C358 0.930 . S
H350 C363 0.929 1_565 S
H351 C361 0.929 . S
H352 C356 0.929 . S
H353 C362 0.929 . S
C354 H348 0.930 . S
C354 C355 1.367 . S
C354 C362 1.378 . S
C355 C354 1.367 . S
C355 C363 1.433 . S
C356 H352 0.929 . S
C356 C358 1.378 . S
C356 C360 1.350 . S
C357 C360 1.463 . S
C357 C362 1.350 . S
C357 N365 1.427 . S
C358 H349 0.930 . S
C358 C356 1.378 . S
C358 C359 1.367 . S
C359 C358 1.367 . S
C359 C361 1.433 . S
C360 C356 1.350 . S
C360 C357 1.463 . S
C360 N364 1.427 . S
C361 H351 0.929 . S
C361 C359 1.433 . S
C361 N364 1.384 . S
C362 H353 0.929 . S
C362 C354 1.378 . S
C362 C357 1.350 . S
C363 H350 0.929 1_545 S
C363 C355 1.433 . S
C363 N365 1.384 . S
N364 C360 1.427 . S
N364 C361 1.384 . S
N365 C357 1.427 . S
N365 C363 1.384 . S
H366 C372 0.930 1_455 S
H367 C376 0.930 . S
H368 C381 0.929 . S
H369 C379 0.929 . S
H370 C374 0.929 . S
H371 C380 0.929 . S
C372 H366 0.930 1_655 S
C372 C373 1.367 . S
C372 C380 1.378 . S
C373 C372 1.367 . S
C373 C381 1.433 . S
C374 H370 0.929 . S
C374 C376 1.378 . S
C374 C378 1.350 . S
C375 C378 1.463 . S
C375 C380 1.350 . S
C375 N383 1.427 . S
C376 H367 0.930 . S
C376 C374 1.378 . S
C376 C377 1.367 . S
C377 C376 1.367 . S
C377 C379 1.433 . S
C378 C374 1.350 . S
C378 C375 1.463 . S
C378 N382 1.427 . S
C379 H369 0.929 . S
C379 C377 1.433 . S
C379 N382 1.384 . S
C380 H371 0.929 . S
C380 C372 1.378 . S
C380 C375 1.350 . S
C381 H368 0.929 . S
C381 C373 1.433 . S
C381 N383 1.384 . S
N382 C378 1.427 . S
N382 C379 1.384 . S
N383 C375 1.427 . S
N383 C381 1.384 . S
H384 C390 0.930 . S
H385 C394 0.930 . S
H386 C399 0.929 . S
H387 C397 0.929 1_655 S
H388 C392 0.929 . S
H389 C398 0.934 . S
C390 H384 0.930 . S
C390 C391 1.367 . S
C390 C398 1.378 . S
C391 C390 1.367 . S
C391 C399 1.433 . S
C392 H388 0.929 . S
C392 C394 1.378 . S
C392 C396 1.350 . S
C393 C396 1.463 . S
C393 C398 1.350 . S
C393 N401 1.427 . S
C394 H385 0.930 . S
C394 C392 1.378 . S
C394 C395 1.367 . S
C395 C394 1.367 . S
C395 C397 1.433 . S
C396 C392 1.350 . S
C396 C393 1.463 . S
C396 N400 1.427 . S
C397 H387 0.929 1_455 S
C397 C395 1.433 . S
C397 N400 1.384 . S
C398 H389 0.934 . S
C398 C390 1.378 . S
C398 C393 1.350 . S
C399 H386 0.929 . S
C399 C391 1.433 . S
C399 N401 1.384 . S
N400 C396 1.427 . S
N400 C397 1.384 . S
N401 C393 1.427 . S
N401 C399 1.384 . S
H402 C408 0.930 1_565 S
H403 C412 0.930 . S
H404 C417 0.929 . S
H405 C415 0.929 . S
H406 C410 0.929 . S
H407 C416 0.929 . S
C408 H402 0.930 1_545 S
C408 C409 1.367 . S
C408 C416 1.378 . S
C409 C408 1.367 . S
C409 C417 1.433 . S
C410 H406 0.929 . S
C410 C412 1.378 . S
C410 C414 1.350 . S
C411 C414 1.463 . S
C411 C416 1.350 . S
C411 N419 1.427 . S
C412 H403 0.930 . S
C412 C410 1.378 . S
C412 C413 1.367 . S
C413 C412 1.367 . S
C413 C415 1.433 . S
C414 C410 1.350 . S
C414 C411 1.463 . S
C414 N418 1.427 . S
C415 H405 0.929 . S
C415 C413 1.433 . S
C415 N418 1.384 . S
C416 H407 0.929 . S
C416 C408 1.378 . S
C416 C411 1.350 . S
C417 H404 0.929 . S
C417 C409 1.433 . S
C417 N419 1.384 . S
N418 C414 1.427 . S
N418 C415 1.384 . S
N419 C411 1.427 . S
N419 C417 1.384 . S
H420 C426 0.930 . S
H421 C430 0.930 . S
H422 C435 0.929 . S
H423 C433 0.929 . S
H424 C428 0.929 . S
H425 C434 0.929 . S
C426 H420 0.930 . S
C426 C427 1.367 . S
C426 C434 1.378 . S
C427 C426 1.367 . S
C427 C435 1.433 . S
C428 H424 0.929 . S
C428 C430 1.378 . S
C428 C432 1.350 . S
C429 C432 1.463 . S
C429 C434 1.350 . S
C429 N437 1.427 . S
C430 H421 0.930 . S
C430 C428 1.378 . S
C430 C431 1.367 . S
C431 C430 1.367 . S
C431 C433 1.433 . S
C432 C428 1.350 . S
C432 C429 1.463 . S
C432 N436 1.427 . S
C433 H423 0.929 . S
C433 C431 1.433 . S
C433 N436 1.384 . S
C434 H425 0.929 . S
C434 C426 1.378 . S
C434 C429 1.350 . S
C435 H422 0.929 . S
C435 C427 1.433 . S
C435 N437 1.384 . S
N436 C432 1.427 . S
N436 C433 1.384 . S
N437 C429 1.427 . S
N437 C435 1.384 . S
H438 C444 0.930 1_455 S
H439 C448 0.930 . S
H440 C453 0.929 . S
H441 C451 0.929 . S
H442 C446 0.929 . S
H443 C452 0.929 . S
C444 H438 0.930 1_655 S
C444 C445 1.367 . S
C444 C452 1.378 . S
C445 C444 1.367 . S
C445 C453 1.433 . S
C446 H442 0.929 . S
C446 C448 1.378 . S
C446 C450 1.350 . S
C447 C450 1.463 . S
C447 C452 1.350 . S
C447 N455 1.427 . S
C448 H439 0.930 . S
C448 C446 1.378 . S
C448 C449 1.367 . S
C449 C448 1.367 . S
C449 C451 1.433 . S
C450 C446 1.350 . S
C450 C447 1.463 . S
C450 N454 1.427 . S
C451 H441 0.929 . S
C451 C449 1.433 . S
C451 N454 1.384 . S
C452 H443 0.929 . S
C452 C444 1.378 . S
C452 C447 1.350 . S
C453 H440 0.929 . S
C453 C445 1.433 . S
C453 N455 1.384 . S
N454 C450 1.427 . S
N454 C451 1.384 . S
N455 C447 1.427 . S
N455 C453 1.384 . S
H456 C462 0.930 . S
H457 C466 0.930 . S
H458 C471 0.929 . S
H459 C469 0.929 . S
H460 C464 0.929 . S
H461 C470 0.929 . S
C462 H456 0.930 . S
C462 C463 1.367 . S
C462 C470 1.378 . S
C463 C462 1.367 . S
C463 C471 1.433 1_565 S
C464 H460 0.929 . S
C464 C466 1.378 . S
C464 C468 1.350 . S
C465 C468 1.463 1_554 S
C465 C470 1.350 . S
C465 N473 1.427 . S
C466 H457 0.930 . S
C466 C464 1.378 . S
C466 C467 1.367 . S
C467 C466 1.367 . S
C467 C469 1.433 . S
C468 C464 1.350 . S
C468 C465 1.463 1_556 S
C468 N472 1.427 . S
C469 H459 0.929 . S
C469 C467 1.433 . S
C469 N472 1.384 . S
C470 H461 0.929 . S
C470 C462 1.378 . S
C470 C465 1.350 . S
C471 H458 0.929 . S
C471 C463 1.433 1_545 S
C471 N473 1.384 1_545 S
N472 C468 1.427 . S
N472 C469 1.384 . S
N473 C465 1.427 . S
N473 C471 1.384 1_565 S
H474 C480 0.930 . S
H475 C484 0.930 . S
H476 C489 0.929 . S
H477 C487 0.929 . S
H478 C482 0.929 . S
H479 C488 0.929 . S
C480 H474 0.930 . S
C480 C481 1.367 . S
C480 C488 1.378 . S
C481 C480 1.367 . S
C481 C489 1.433 1_655 S
C482 H478 0.929 . S
C482 C484 1.378 . S
C482 C486 1.350 1_455 S
C483 C486 1.463 . S
C483 C488 1.350 . S
C483 N491 1.427 1_655 S
C484 H475 0.930 . S
C484 C482 1.378 . S
C484 C485 1.367 1_455 S
C485 C484 1.367 1_655 S
C485 C487 1.433 . S
C486 C482 1.350 1_655 S
C486 C483 1.463 . S
C486 N490 1.427 . S
C487 H477 0.929 . S
C487 C485 1.433 . S
C487 N490 1.384 . S
C488 H479 0.929 . S
C488 C480 1.378 . S
C488 C483 1.350 . S
C489 H476 0.929 . S
C489 C481 1.433 1_455 S
C489 N491 1.384 . S
N490 C486 1.427 . S
N490 C487 1.384 . S
N491 C483 1.427 1_455 S
N491 C489 1.384 . S
H492 C498 0.930 . S
H493 C502 0.930 . S
H494 C507 0.929 . S
H495 C505 0.929 . S
H496 C500 0.929 . S
H497 C506 0.929 . S
C498 H492 0.930 . S
C498 C499 1.367 . S
C498 C506 1.378 . S
C499 C498 1.367 . S
C499 C507 1.433 . S
C500 H496 0.929 . S
C500 C502 1.378 . S
C500 C504 1.350 . S
C501 C504 1.463 . S
C501 C506 1.350 . S
C501 N509 1.427 . S
C502 H493 0.930 . S
C502 C500 1.378 . S
C502 C503 1.367 . S
C503 C502 1.367 . S
C503 C505 1.433 . S
C504 C500 1.350 . S
C504 C501 1.463 . S
C504 N508 1.427 . S
C505 H495 0.929 . S
C505 C503 1.433 . S
C505 N508 1.384 . S
C506 H497 0.929 . S
C506 C498 1.378 . S
C506 C501 1.350 . S
C507 H494 0.929 . S
C507 C499 1.433 . S
C507 N509 1.384 . S
N508 C504 1.427 . S
N508 C505 1.384 . S
N509 C501 1.427 . S
N509 C507 1.384 . S
H510 C516 0.930 . S
H511 C520 0.930 . S
H512 C525 0.929 . S
H513 C523 0.929 . S
H514 C518 0.929 . S
H515 C524 0.929 . S
C516 H510 0.930 . S
C516 C517 1.367 . S
C516 C524 1.378 . S
C517 C516 1.367 . S
C517 C525 1.433 . S
C518 H514 0.929 . S
C518 C520 1.378 . S
C518 C522 1.350 . S
C519 C522 1.463 . S
C519 C524 1.350 . S
C519 N527 1.427 . S
C520 H511 0.930 . S
C520 C518 1.378 . S
C520 C521 1.367 1_554 S
C521 C520 1.367 1_556 S
C521 C523 1.433 . S
C522 C518 1.350 . S
C522 C519 1.463 . S
C522 N526 1.426 1_554 S
C523 H513 0.929 . S
C523 C521 1.433 . S
C523 N526 1.385 . S
C524 H515 0.929 . S
C524 C516 1.378 . S
C524 C519 1.350 . S
C525 H512 0.929 . S
C525 C517 1.433 . S
C525 N527 1.384 . S
N526 C522 1.426 1_556 S
N526 C523 1.385 . S
N527 C519 1.427 . S
N527 C525 1.384 . S
H528 C534 0.930 . S
H529 C538 0.930 . S
H530 C543 0.929 . S
H531 C541 0.929 . S
H532 C536 0.929 . S
H533 C542 0.929 . S
C534 H528 0.930 . S
C534 C535 1.367 1_655 S
C534 C542 1.378 . S
C535 C534 1.367 1_455 S
C535 C543 1.433 . S
C536 H532 0.929 . S
C536 C538 1.378 . S
C536 C540 1.350 . S
C537 C540 1.463 . S
C537 C542 1.350 1_455 S
C537 N545 1.427 . S
C538 H529 0.930 . S
C538 C536 1.378 . S
C538 C539 1.367 . S
C539 C538 1.367 . S
C539 C541 1.433 1_455 S
C540 C536 1.350 . S
C540 C537 1.463 . S
C540 N544 1.427 1_455 S
C541 H531 0.929 . S
C541 C539 1.433 1_655 S
C541 N544 1.384 . S
C542 H533 0.929 . S
C542 C534 1.378 . S
C542 C537 1.350 1_655 S
C543 H530 0.929 . S
C543 C535 1.433 . S
C543 N545 1.384 . S
N544 C540 1.427 1_655 S
N544 C541 1.384 . S
N545 C537 1.427 . S
N545 C543 1.384 . S
C341 C147 1.427 . S
C337 C14 1.530 . S
C355 C40 1.428 . S
C359 C221 1.389 . S
C373 C76 2.077 1_665 S
C377 C325 2.095 . S
C391 C3 0.806 1_565 S
C395 C159 0.811 . S
C413 C233 0.867 . S
C409 C38 0.866 . S
C427 C74 1.565 . S
C431 C319 1.437 . S
C449 C251 2.097 . S
C445 C86 2.067 1_655 S
C463 C2 1.508 1_665 S
C467 C295 1.437 . S
C485 C171 1.432 . S
C481 C39 1.552 . S
C503 C245 1.375 . S
C499 C75 1.479 . S
C521 C307 0.823 . S
C517 C4 0.817 . S
C535 C50 2.124 . S
C539 C177 2.172 . S
