# Generated by pormake.
# Topology dag, (6,3)-cn, num edge types: 1
# Building blocks:
#     Node 0, Type 0, BuildingBlock: IZENUY_clean_sbu_0, # of connection points: 6
#     Node 1, Type 0, BuildingBlock: IZENUY_clean_sbu_0, # of connection points: 6
#     Node 2, Type 0, BuildingBlock: IZENUY_clean_sbu_0, # of connection points: 6
#     Node 3, Type 0, BuildingBlock: IZENUY_clean_sbu_0, # of connection points: 6
#     Node 4, Type 1, BuildingBlock: ESEHIV_clean_linker_0, # of connection points: 3
#     Node 5, Type 1, BuildingBlock: ESEHIV_clean_linker_0, # of connection points: 3
#     Node 6, Type 1, BuildingBlock: ESEHIV_clean_linker_0, # of connection points: 3
#     Node 7, Type 1, BuildingBlock: ESEHIV_clean_linker_0, # of connection points: 3
#     Node 8, Type 1, BuildingBlock: ESEHIV_clean_linker_0, # of connection points: 3
#     Node 9, Type 1, BuildingBlock: ESEHIV_clean_linker_0, # of connection points: 3
#     Node 10, Type 1, BuildingBlock: ESEHIV_clean_linker_0, # of connection points: 3
#     Node 11, Type 1, BuildingBlock: ESEHIV_clean_linker_0, # of connection points: 3
#     Edge 12, Type (0, 1), BuildingBlock: OJICUG_clean_linker_0, # of connection points: 2
#     Edge 13, Type (0, 1), BuildingBlock: OJICUG_clean_linker_0, # of connection points: 2
#     Edge 14, Type (0, 1), BuildingBlock: OJICUG_clean_linker_0, # of connection points: 2
#     Edge 15, Type (0, 1), BuildingBlock: OJICUG_clean_linker_0, # of connection points: 2
#     Edge 16, Type (0, 1), BuildingBlock: OJICUG_clean_linker_0, # of connection points: 2
#     Edge 17, Type (0, 1), BuildingBlock: OJICUG_clean_linker_0, # of connection points: 2
#     Edge 18, Type (0, 1), BuildingBlock: OJICUG_clean_linker_0, # of connection points: 2
#     Edge 19, Type (0, 1), BuildingBlock: OJICUG_clean_linker_0, # of connection points: 2
#     Edge 20, Type (0, 1), BuildingBlock: OJICUG_clean_linker_0, # of connection points: 2
#     Edge 21, Type (0, 1), BuildingBlock: OJICUG_clean_linker_0, # of connection points: 2
#     Edge 22, Type (0, 1), BuildingBlock: OJICUG_clean_linker_0, # of connection points: 2
#     Edge 23, Type (0, 1), BuildingBlock: OJICUG_clean_linker_0, # of connection points: 2
#     Edge 24, Type (0, 1), BuildingBlock: OJICUG_clean_linker_0, # of connection points: 2
#     Edge 25, Type (0, 1), BuildingBlock: OJICUG_clean_linker_0, # of connection points: 2
#     Edge 26, Type (0, 1), BuildingBlock: OJICUG_clean_linker_0, # of connection points: 2
#     Edge 27, Type (0, 1), BuildingBlock: OJICUG_clean_linker_0, # of connection points: 2
#     Edge 28, Type (0, 1), BuildingBlock: OJICUG_clean_linker_0, # of connection points: 2
#     Edge 29, Type (0, 1), BuildingBlock: OJICUG_clean_linker_0, # of connection points: 2
#     Edge 30, Type (0, 1), BuildingBlock: OJICUG_clean_linker_0, # of connection points: 2
#     Edge 31, Type (0, 1), BuildingBlock: OJICUG_clean_linker_0, # of connection points: 2
#     Edge 32, Type (0, 1), BuildingBlock: OJICUG_clean_linker_0, # of connection points: 2
#     Edge 33, Type (0, 1), BuildingBlock: OJICUG_clean_linker_0, # of connection points: 2
#     Edge 34, Type (0, 1), BuildingBlock: OJICUG_clean_linker_0, # of connection points: 2
#     Edge 35, Type (0, 1), BuildingBlock: OJICUG_clean_linker_0, # of connection points: 2
# Relax obj value: 0.254
# Max RMSD: 0.193
# Mean RMSD: 0.159
data_MOF--net-dag--node1-IZENUY_clean_sbu_0--node2-ESEHIV_clean_linker_0--edge1-OJICUG_clean_linker_0
_symmetry_space_group_name_H-M    P1
_symmetry_Int_Tables_number       1
_symmetry_cell_setting            triclinic
loop_
_symmetry_equiv_pos_as_xyz
'x, y, z'
_cell_length_a     25.858242
_cell_length_b     27.130922
_cell_length_c     22.882837
_cell_angle_alpha  95.011538
_cell_angle_beta   90.17456
_cell_angle_gamma 89.770074
loop_
_atom_site_label
_atom_site_type_symbol
_atom_site_fract_x
_atom_site_fract_y
_atom_site_fract_z
_atom_type_partial_charge
Fe0 Fe 0.23117 0.86736 0.09936 0.0
Fe1 Fe 0.12672 0.88891 0.04473 0.0
O2 O 0.17201 0.84576 0.06713 0.0
Fe3 Fe 0.15828 0.78142 0.05681 0.0
O4 O 0.16471 0.77491 0.13477 0.0
O5 O 0.23733 0.81674 0.14696 0.0
O6 O 0.19778 0.90235 0.15966 0.0
C7 C 0.16295 0.93389 0.15216 0.0
C8 C 0.26408 0.78798 0.02716 0.0
O9 O 0.14303 0.93731 0.10224 0.0
C10 C 0.1215 0.81231 0.95393 0.0
O11 O 0.23568 0.92211 0.05749 0.0
O12 O 0.17242 0.91151 0.99373 0.0
O13 O 0.22595 0.7634 0.04345 0.0
O14 O 0.26783 0.83387 0.04109 0.0
C15 C 0.06245 0.82464 0.09358 0.0
O16 O 0.1015 0.84884 0.98349 0.0
O17 O 0.15106 0.78276 0.97757 0.0
C18 C 0.21563 0.92997 0.0086 0.0
O19 O 0.07882 0.86837 0.09421 0.0
O20 O 0.08788 0.78869 0.06861 0.0
C21 C 0.20431 0.78721 0.16491 0.0
Fe22 Fe 0.74191 0.62488 0.49318 0.0
Fe23 Fe 0.65903 0.70412 0.52658 0.0
O24 O 0.67887 0.64124 0.51865 0.0
Fe25 Fe 0.63635 0.59417 0.53559 0.0
O26 O 0.68054 0.57409 0.59033 0.0
O27 O 0.74744 0.56837 0.53209 0.0
O28 O 0.77037 0.65893 0.5566 0.0
C29 C 0.76244 0.70455 0.56966 0.0
C30 C 0.68332 0.55632 0.43058 0.0
O31 O 0.72392 0.7267 0.54894 0.0
C32 C 0.56974 0.65363 0.48013 0.0
O33 O 0.74877 0.6777 0.44947 0.0
O34 O 0.67135 0.71087 0.44951 0.0
O35 O 0.66086 0.5489 0.47805 0.0
O36 O 0.71579 0.59058 0.42817 0.0
C37 C 0.61693 0.67038 0.62527 0.0
O38 O 0.5909 0.69169 0.50594 0.0
O39 O 0.58958 0.61137 0.4824 0.0
C40 C 0.71498 0.7034 0.42599 0.0
O41 O 0.64486 0.70239 0.60423 0.0
O42 O 0.60409 0.63107 0.5952 0.0
C43 C 0.72501 0.55734 0.5782 0.0
Fe44 Fe 0.8395 0.20675 0.02821 0.0
Fe45 Fe 0.8649 0.09971 0.05051 0.0
O46 O 0.82238 0.14319 0.02352 0.0
Fe47 Fe 0.76294 0.12221 0.99178 0.0
O48 O 0.75939 0.16942 0.93943 0.0
O49 O 0.83323 0.20917 0.94972 0.0
O50 O 0.90913 0.19492 0.01549 0.0
C51 C 0.93184 0.15628 0.99286 0.0
C52 C 0.73284 0.20658 0.05741 0.0
O53 O 0.91378 0.1138 -0.00153 0.0
C54 C 0.77475 0.06412 0.08861 0.0
O55 O 0.84727 0.21017 0.10781 0.0
O56 O 0.89307 0.14207 0.10741 0.0
O57 O 0.72681 0.16053 0.04636 0.0
O58 O 0.77282 0.22848 0.04091 0.0
C59 C 0.82724 0.04877 0.94732 0.0
O60 O 0.81753 0.08355 0.10378 0.0
O61 O 0.75541 0.07095 0.0389 0.0
C62 C 0.8756 0.18117 0.13385 0.0
O63 O 0.84542 0.04855 -0.00152 0.0
O64 O 0.79622 0.08243 0.93493 0.0
C65 C 0.79353 0.19693 0.92001 0.0
Fe66 Fe 0.37006 0.39544 0.55205 0.0
Fe67 Fe 0.2647 0.36588 0.59738 0.0
O68 O 0.32597 0.34909 0.56697 0.0
Fe69 Fe 0.34387 0.28624 0.55112 0.0
O70 O 0.39893 0.29217 0.60106 0.0
O71 O 0.42772 0.35862 0.56409 0.0
O72 O 0.37344 0.41674 0.6285 0.0
C73 C 0.33523 0.43128 0.65941 0.0
C74 C 0.38257 0.33301 0.45405 0.0
O75 O 0.28928 0.42097 0.64263 0.0
C76 C 0.24376 0.28622 0.51208 0.0
O77 O 0.32119 0.44171 0.53795 0.0
O78 O 0.24759 0.40196 0.53671 0.0
O79 O 0.38413 0.29759 0.48692 0.0
O80 O 0.36856 0.37562 0.47459 0.0
C81 C 0.28805 0.28614 0.65795 0.0
O82 O 0.23047 0.31366 0.55741 0.0
O83 O 0.29065 0.27688 0.50084 0.0
C84 C 0.27473 0.43701 0.52167 0.0
O85 O 0.27675 0.33143 0.66006 0.0
O86 O 0.30634 0.26371 0.61159 0.0
C87 C 0.43382 0.32396 0.59689 0.0
H88 H 0.016 0.09618 0.24845 0.0
H89 H 0.15027 0.11292 0.35943 0.0
H90 H 0.03759 0.23023 0.35946 0.0
C91 C 0.03786 0.11673 0.28288 0.0
C92 C 0.01981 0.16371 0.30465 0.0
C93 C 0.08541 0.0981 0.30141 0.0
C94 C 0.114 0.12695 0.34364 0.0
C95 C 0.09743 0.17474 0.36424 0.0
C96 C 0.05 0.19295 0.34498 0.0
H97 H 0.47008 0.58994 0.74862 0.0
H98 H 0.3411 0.61782 0.86357 0.0
H99 H 0.46359 0.72562 0.86036 0.0
C100 C 0.45109 0.61321 0.78318 0.0
C101 C 0.47272 0.65908 0.80249 0.0
C102 C 0.40376 0.59825 0.80499 0.0
C103 C 0.37822 0.62923 0.84756 0.0
C104 C 0.3999 0.67487 0.86901 0.0
C105 C 0.44688 0.69019 0.84526 0.0
H106 H 0.84183 0.88691 0.11518 0.0
H107 H 0.84797 0.75945 0.21247 0.0
H108 H 0.72025 0.86259 0.23632 0.0
C109 C 0.8233 0.86302 0.14447 0.0
C110 C 0.77633 0.87756 0.171 0.0
C111 C 0.84941 0.82099 0.16011 0.0
C112 C 0.82692 0.79161 0.20016 0.0
C113 C 0.78014 0.80613 0.2283 0.0
C114 C 0.75477 0.84933 0.21315 0.0
H115 H 0.65136 0.38904 0.6255 0.0
H116 H 0.64718 0.26736 0.73282 0.0
H117 H 0.78709 0.35307 0.72056 0.0
C118 C 0.67089 0.36484 0.65391 0.0
C119 C 0.722 0.37492 0.67048 0.0
C120 C 0.64356 0.32645 0.67658 0.0
C121 C 0.66909 0.29583 0.71367 0.0
C122 C 0.72134 0.30449 0.7297 0.0
C123 C 0.74752 0.3446 0.70781 0.0
H124 H 0.53367 0.41846 0.32809 0.0
H125 H 0.66144 0.38375 0.21333 0.0
H126 H 0.53244 0.2832 0.21544 0.0
C127 C 0.551 0.39471 0.29279 0.0
C128 C 0.5268 0.35011 0.27329 0.0
C129 C 0.59954 0.40679 0.27154 0.0
C130 C 0.62321 0.37477 0.22848 0.0
C131 C 0.59894 0.33052 0.20671 0.0
C132 C 0.55091 0.31786 0.23023 0.0
H133 H 0.14897 0.09394 0.95544 0.0
H134 H 0.14064 0.21493 0.84709 0.0
H135 H 0.27878 0.12441 0.84847 0.0
C136 C 0.16731 0.11724 0.92533 0.0
C137 C 0.21722 0.10573 0.90534 0.0
C138 C 0.13929 0.15598 0.90406 0.0
C139 C 0.16282 0.18556 0.86459 0.0
C140 C 0.21354 0.17474 0.84435 0.0
C141 C 0.24042 0.1342 0.86466 0.0
H142 H 0.34864 0.59343 0.45831 0.0
H143 H 0.35492 0.71142 0.34591 0.0
H144 H 0.21171 0.63251 0.36661 0.0
C145 C 0.32929 0.61721 0.42926 0.0
C146 C 0.27706 0.60941 0.41568 0.0
C147 C 0.35744 0.65384 0.40432 0.0
C148 C 0.33241 0.68413 0.36646 0.0
C149 C 0.27954 0.67702 0.35223 0.0
C150 C 0.25211 0.6391 0.37709 0.0
H151 H 0.98109 0.89677 0.8412 0.0
H152 H 0.97036 0.77036 0.71519 0.0
H153 H 0.84472 0.87594 0.73578 0.0
C154 C 0.96062 0.87641 0.80538 0.0
C155 C 0.91104 0.89193 0.79026 0.0
C156 C 0.98217 0.83263 0.77865 0.0
C157 C 0.95418 0.80477 0.73489 0.0
C158 C 0.90496 0.82098 0.71764 0.0
C159 C 0.88391 0.86484 0.74554 0.0
C160 C 0.18019 0.00578 0.22524 0.0
C161 C 0.14623 0.96986 0.20004 0.0
H162 H 0.18761 0.07542 0.2757 0.0
C163 C 0.09349 0.9733 0.21359 0.0
H164 H 0.22093 0.00423 0.21431 0.0
C165 C 0.07434 0.01292 0.25015 0.0
C166 C 0.10732 0.05129 0.27209 0.0
H167 H 0.06667 0.94627 0.19385 0.0
H168 H 0.03325 0.0144 0.2591 0.0
C169 C 0.16086 0.04646 0.26056 0.0
C170 C 0.59803 0.64364 0.72295 0.0
C171 C 0.59297 0.67985 0.68321 0.0
H172 H 0.56413 0.61007 0.79471 0.0
C173 C 0.55508 0.71684 0.69286 0.0
H174 H 0.62683 0.6146 0.71592 0.0
C175 C 0.5187 0.71398 0.73777 0.0
C176 C 0.52025 0.67416 0.77314 0.0
H177 H 0.55014 0.74463 0.66203 0.0
H178 H 0.48637 0.73959 0.7406 0.0
C179 C 0.56221 0.64107 0.76794 0.0
C180 C 0.77629 0.01455 0.17552 0.0
C181 C 0.75787 0.02104 0.11885 0.0
H182 H 0.79474 0.96247 0.2377 0.0
C183 C 0.73275 0.98139 0.08679 0.0
H184 H 0.79552 0.04451 0.20134 0.0
C185 C 0.73276 0.93445 0.10749 0.0
C186 C 0.75659 0.927 0.16107 0.0
H187 H 0.71811 0.98515 0.04299 0.0
H188 H 0.71874 0.90322 0.07919 0.0
C189 C 0.7755 0.96777 0.19656 0.0
C190 C 0.512 0.27654 0.6267 0.0
C191 C 0.48378 0.32092 0.62707 0.0
H192 H 0.5861 0.24341 0.64191 0.0
C193 C 0.50629 0.36517 0.65071 0.0
H194 H 0.49524 0.24202 0.60846 0.0
C195 C 0.55716 0.36591 0.67021 0.0
C196 C 0.5872 0.32254 0.66539 0.0
H197 H 0.48502 0.39976 0.65205 0.0
H198 H 0.57375 0.40101 0.68684 0.0
C199 C 0.56375 0.27738 0.64567 0.0
C200 C 0.62308 0.53231 0.35 0.0
C201 C 0.67002 0.52414 0.37835 0.0
H202 H 0.56406 0.50123 0.29239 0.0
C203 C 0.69761 0.48021 0.36438 0.0
H204 H 0.60119 0.56599 0.36088 0.0
C205 C 0.67657 0.44323 0.3251 0.0
C206 C 0.62745 0.44976 0.30027 0.0
H207 H 0.73347 0.47313 0.38687 0.0
H208 H 0.69672 0.40815 0.31789 0.0
C209 C 0.60188 0.49536 0.31115 0.0
C210 C 0.00248 0.1182 0.9305 0.0
C211 C 0.98271 0.15976 0.96416 0.0
H212 H 0.06723 0.08531 0.88413 0.0
C213 C 0.01296 0.20293 0.97182 0.0
H214 H 0.97991 0.08469 0.92273 0.0
C215 C 0.06337 0.20322 0.94926 0.0
C216 C 0.08381 0.16043 0.9188 0.0
H217 H 0.99857 0.23564 -0.00276 0.0
H218 H 0.08714 0.23583 0.95809 0.0
C219 C 0.05237 0.11858 0.90808 0.0
C220 C 0.25193 0.47694 0.43205 0.0
C221 C 0.2515 0.47811 0.49341 0.0
H222 H 0.25841 0.51989 0.35807 0.0
C223 C 0.2449 0.52342 0.52705 0.0
H224 H 0.25826 0.44236 0.40556 0.0
C225 C 0.24505 0.56759 0.50004 0.0
C226 C 0.25195 0.56677 0.43919 0.0
H227 H 0.2456 0.525 0.57455 0.0
H228 H 0.24603 0.60234 0.52724 0.0
C229 C 0.25193 0.52123 0.40494 0.0
C230 C 0.06347 0.76679 0.88211 0.0
C231 C 0.10247 0.80213 0.8937 0.0
H232 H 0.99397 0.74847 0.83369 0.0
C233 C 0.10926 0.8391 0.85524 0.0
H234 H 0.05693 0.73867 0.91207 0.0
C235 C 0.07331 0.84488 0.81076 0.0
C236 C 0.03005 0.81381 0.8044 0.0
H237 H 0.13866 0.86716 0.86404 0.0
H238 H 0.07596 0.87707 0.78603 0.0
C239 C 0.02737 0.77254 0.83739 0.0
C240 C 0.86183 0.96398 0.92635 0.0
C241 C 0.8414 0.00694 0.90471 0.0
H242 H 0.89962 0.89453 0.90696 0.0
C243 C 0.84021 0.01047 0.84378 0.0
H244 H 0.86258 0.95957 0.97296 0.0
C245 C 0.86171 0.97251 0.80557 0.0
C246 C 0.88483 0.93114 0.82819 0.0
H247 H 0.82476 0.04321 0.82602 0.0
H248 H 0.86197 0.97623 0.75883 0.0
C249 C 0.88335 0.92671 0.88864 0.0
C250 C 0.446 0.2909 0.38322 0.0
C251 C 0.40932 0.3286 0.39674 0.0
H252 H 0.51237 0.26794 0.33159 0.0
C253 C 0.40432 0.36669 0.3592 0.0
H254 H 0.45055 0.26086 0.41105 0.0
C255 C 0.43936 0.37042 0.31362 0.0
C256 C 0.47995 0.33611 0.30469 0.0
H257 H 0.37581 0.39579 0.36776 0.0
H258 H 0.43753 0.40253 0.28864 0.0
C259 C 0.4812 0.29471 0.33746 0.0
C260 C 0.25596 0.01305 0.00654 0.0
C261 C 0.23476 0.97063 0.97603 0.0
H262 H 0.268 0.09118 0.00629 0.0
C263 C 0.22281 0.97134 0.91621 0.0
H264 H 0.26546 0.01346 0.05273 0.0
C265 C 0.22575 0.01546 0.88936 0.0
C266 C 0.23987 0.05937 0.92231 0.0
H267 H 0.20685 0.93893 0.89168 0.0
H268 H 0.21084 0.01645 0.84516 0.0
C269 C 0.25794 0.05744 0.97992 0.0
C270 C 0.4882 0.70071 0.4596 0.0
C271 C 0.51766 0.65679 0.45339 0.0
H272 H 0.41374 0.73438 0.44823 0.0
C273 C 0.49535 0.61402 0.42476 0.0
H274 H 0.50431 0.73433 0.4812 0.0
C275 C 0.44406 0.61418 0.40622 0.0
C276 C 0.41374 0.6571 0.41552 0.0
H277 H 0.51687 0.57964 0.41852 0.0
H278 H 0.42744 0.58012 0.38631 0.0
C279 C 0.43654 0.70087 0.44063 0.0
C280 C 0.39376 0.46748 0.73731 0.0
C281 C 0.34568 0.4685 0.70868 0.0
H282 H 0.44946 0.5079 0.7913 0.0
C283 C 0.31282 0.50945 0.72058 0.0
H284 H 0.4195 0.43599 0.72947 0.0
C285 C 0.33015 0.55082 0.75607 0.0
C286 C 0.38038 0.55143 0.7799 0.0
H287 H 0.27569 0.51117 0.6988 0.0
H288 H 0.30592 0.58356 0.76112 0.0
C289 C 0.41095 0.50856 0.77255 0.0
C290 C 0.99063 0.85045 0.16085 0.0
C291 C 0.00972 0.8174 0.11542 0.0
H292 H 0.92465 0.8769 0.21029 0.0
C293 C 0.97643 0.78149 0.08794 0.0
H294 H 0.01559 0.87769 0.18355 0.0
C295 C 0.92398 0.78092 0.10354 0.0
C296 C 0.90486 0.81608 0.14679 0.0
H297 H 0.99026 0.75567 0.05261 0.0
H298 H 0.89815 0.75451 0.08051 0.0
C299 C 0.93876 0.84988 0.1763 0.0
C300 C 0.76176 0.47209 0.57468 0.0
C301 C 0.74233 0.51413 0.6079 0.0
H302 H 0.77096 0.39315 0.5696 0.0
C303 C 0.72942 0.51079 0.66694 0.0
H304 H 0.77151 0.47364 0.52886 0.0
C305 C 0.73055 0.46507 0.69052 0.0
C306 C 0.74371 0.42207 0.65506 0.0
H307 H 0.71433 0.54271 0.69334 0.0
H308 H 0.71554 0.46251 0.73432 0.0
C309 C 0.76178 0.42609 0.59796 0.0
C310 C 0.8894 0.16104 0.23483 0.0
C311 C 0.89691 0.19463 0.1924 0.0
H312 H 0.92332 0.12534 0.3055 0.0
C313 C 0.93887 0.22736 0.19822 0.0
H314 H 0.85773 0.1349 0.23045 0.0
C315 C 0.97667 0.22173 0.24116 0.0
C316 C 0.97265 0.18322 0.27816 0.0
H317 H 0.94598 0.25271 0.1651 0.0
H318 H 0.01176 0.24337 0.24065 0.0
C319 C 0.92709 0.1553 0.27744 0.0
C320 C 0.20052 0.71251 0.22178 0.0
C321 C 0.21713 0.76122 0.21713 0.0
H322 H 0.20821 0.64719 0.26702 0.0
C323 C 0.25028 0.78352 0.26028 0.0
H324 H 0.1752 0.69431 0.1889 0.0
C325 C 0.26836 0.75697 0.30578 0.0
C326 C 0.25454 0.70714 0.30856 0.0
H327 H 0.26316 0.82128 0.25815 0.0
H328 H 0.29419 0.77525 0.33803 0.0
C329 C 0.21937 0.68558 0.26678 0.0
C330 C 0.8047 0.78492 0.60132 0.0
C331 C 0.80146 0.73361 0.60454 0.0
H332 H 0.84164 0.85242 0.63261 0.0
C333 C 0.83544 0.71051 0.64172 0.0
H334 H 0.77961 0.8036 0.57226 0.0
C335 C 0.87054 0.73861 0.677 0.0
C336 C 0.8727 0.79022 0.67514 0.0
H337 H 0.83373 0.67096 0.645 0.0
H338 H 0.89442 0.72009 0.70736 0.0
C339 C 0.84026 0.81285 0.63586 0.0
C340 C 0.68772 0.28679 0.08204 0.0
C341 C 0.69251 0.23621 0.08954 0.0
H342 H 0.65253 0.35576 0.1115 0.0
C343 C 0.66138 0.21545 0.13115 0.0
H344 H 0.71061 0.30358 0.04956 0.0
C345 C 0.62871 0.24561 0.1676 0.0
C346 C 0.62628 0.29683 0.16238 0.0
H347 H 0.66443 0.17648 0.13776 0.0
H348 H 0.60762 0.22924 0.20182 0.0
C349 C 0.65458 0.31666 0.11765 0.0
C350 C 0.24962 0.28216 0.75776 0.0
C351 C 0.27327 0.25793 0.70784 0.0
H352 H 0.21273 0.2749 0.84017 0.0
C353 C 0.27997 0.20633 0.70495 0.0
H354 H 0.24415 0.32191 0.76172 0.0
C355 C 0.26182 0.17944 0.75002 0.0
C356 C 0.23658 0.20356 0.79888 0.0
H357 H 0.29804 0.18651 0.6672 0.0
H358 H 0.26596 0.13954 0.74559 0.0
C359 C 0.23139 0.25526 0.80267 0.0
C360 C 0.6933 0.74782 0.33708 0.0
C361 C 0.73017 0.73026 0.37553 0.0
H362 H 0.6802 0.78468 0.25905 0.0
C363 C 0.78284 0.73842 0.36565 0.0
H364 H 0.65241 0.74197 0.34381 0.0
C365 C 0.79855 0.76331 0.3183 0.0
C366 C 0.76212 0.77989 0.27868 0.0
H367 H 0.81218 0.72617 0.3951 0.0
H368 H 0.83948 0.77011 0.31338 0.0
C369 C 0.7092 0.77227 0.28877 0.0
C370 C 0.79788 0.2707 0.86242 0.0
C371 C 0.78197 0.22177 0.86677 0.0
H372 H 0.78998 0.33575 0.81715 0.0
C373 C 0.75053 0.19856 0.82261 0.0
H374 H 0.82181 0.28958 0.89622 0.0
C375 C 0.7334 0.22453 0.77615 0.0
C376 C 0.74622 0.27469 0.77375 0.0
H377 H 0.73823 0.16063 0.82472 0.0
H378 H 0.70885 0.20561 0.74303 0.0
C379 C 0.77975 0.29708 0.81675 0.0
C380 C 0.15197 0.26024 0.48924 0.0
C381 C 0.20446 0.26109 0.47337 0.0
H382 H 0.07631 0.23175 0.46675 0.0
C383 C 0.22016 0.23622 0.41991 0.0
H384 H 0.13872 0.27934 0.53003 0.0
C385 C 0.18484 0.20947 0.38422 0.0
C386 C 0.13291 0.20675 0.40102 0.0
H387 H 0.26007 0.23682 0.4057 0.0
H388 H 0.19835 0.19036 0.34351 0.0
C389 C 0.11632 0.23322 0.45314 0.0
C390 C 0.3329 0.78497 0.95023 0.0
C391 C 0.3051 0.76157 0.99257 0.0
H392 H 0.38449 0.77558 0.87686 0.0
C393 C 0.31356 0.71115 -0.00168 0.0
H394 H 0.32693 0.82389 0.94498 0.0
C395 C 0.347 0.68389 0.9604 0.0
C396 C 0.37191 0.70619 0.91502 0.0
H397 H 0.29327 0.69241 0.0313 0.0
H398 H 0.35199 0.64481 0.96537 0.0
C399 C 0.36591 0.75739 0.91143 0.0
loop_
_geom_bond_atom_site_label_1
_geom_bond_atom_site_label_2
_geom_bond_distance
_geom_bond_site_symmetry_2
_ccdc_geom_bond_type
Fe0 O2 1.918 . S
Fe0 O5 1.997 . S
Fe0 O6 2.002 . S
Fe0 O11 1.976 . S
Fe0 O14 1.996 . S
Fe1 O2 1.918 . S
Fe1 O9 1.997 . S
Fe1 O12 1.996 . S
Fe1 O16 1.976 1_554 S
Fe1 O19 2.002 . S
O2 Fe0 1.918 . S
O2 Fe1 1.918 . S
O2 Fe3 1.918 . S
Fe3 O2 1.918 . S
Fe3 O4 2.002 . S
Fe3 O13 1.976 . S
Fe3 O17 1.996 1_554 S
Fe3 O20 1.997 . S
O4 Fe3 2.002 . S
O4 C21 1.295 . S
O5 Fe0 1.997 . S
O5 C21 1.235 . S
O6 Fe0 2.002 . S
O6 C7 1.295 . S
C7 O6 1.295 . S
C7 O9 1.235 . S
C8 O13 1.287 . S
C8 O14 1.255 . S
O9 Fe1 1.997 . S
O9 C7 1.235 . S
C10 O16 1.287 . S
C10 O17 1.255 . S
O11 Fe0 1.976 . S
O11 C18 1.287 . S
O12 Fe1 1.996 . S
O12 C18 1.255 . S
O13 Fe3 1.976 . S
O13 C8 1.287 . S
O14 Fe0 1.996 . S
O14 C8 1.255 . S
C15 O19 1.295 . S
C15 O20 1.235 . S
O16 Fe1 1.976 1_556 S
O16 C10 1.287 . S
O17 Fe3 1.996 1_556 S
O17 C10 1.255 . S
C18 O11 1.287 . S
C18 O12 1.255 . S
O19 Fe1 2.002 . S
O19 C15 1.295 . S
O20 Fe3 1.997 . S
O20 C15 1.235 . S
C21 O4 1.295 . S
C21 O5 1.235 . S
Fe22 O24 1.918 . S
Fe22 O27 1.997 . S
Fe22 O28 2.002 . S
Fe22 O33 1.976 . S
Fe22 O36 1.996 . S
Fe23 O24 1.918 . S
Fe23 O31 1.997 . S
Fe23 O34 1.996 . S
Fe23 O38 1.976 . S
Fe23 O41 2.002 . S
O24 Fe22 1.918 . S
O24 Fe23 1.918 . S
O24 Fe25 1.918 . S
Fe25 O24 1.918 . S
Fe25 O26 2.002 . S
Fe25 O35 1.976 . S
Fe25 O39 1.996 . S
Fe25 O42 1.997 . S
O26 Fe25 2.002 . S
O26 C43 1.295 . S
O27 Fe22 1.997 . S
O27 C43 1.235 . S
O28 Fe22 2.002 . S
O28 C29 1.295 . S
C29 O28 1.295 . S
C29 O31 1.235 . S
C30 O35 1.287 . S
C30 O36 1.255 . S
O31 Fe23 1.997 . S
O31 C29 1.235 . S
C32 O38 1.287 . S
C32 O39 1.255 . S
O33 Fe22 1.976 . S
O33 C40 1.287 . S
O34 Fe23 1.996 . S
O34 C40 1.255 . S
O35 Fe25 1.976 . S
O35 C30 1.287 . S
O36 Fe22 1.996 . S
O36 C30 1.255 . S
C37 O41 1.295 . S
C37 O42 1.235 . S
O38 Fe23 1.976 . S
O38 C32 1.287 . S
O39 Fe25 1.996 . S
O39 C32 1.255 . S
C40 O33 1.287 . S
C40 O34 1.255 . S
O41 Fe23 2.002 . S
O41 C37 1.295 . S
O42 Fe25 1.997 . S
O42 C37 1.235 . S
C43 O26 1.295 . S
C43 O27 1.235 . S
Fe44 O46 1.918 . S
Fe44 O49 1.997 1_554 S
Fe44 O50 2.002 . S
Fe44 O55 1.976 . S
Fe44 O58 1.996 . S
Fe45 O46 1.918 . S
Fe45 O53 1.997 1_554 S
Fe45 O56 1.996 . S
Fe45 O60 1.976 . S
Fe45 O63 2.002 1_554 S
O46 Fe44 1.918 . S
O46 Fe45 1.918 . S
O46 Fe47 1.918 1_554 S
Fe47 O46 1.918 1_556 S
Fe47 O48 2.002 . S
Fe47 O57 1.976 1_556 S
Fe47 O61 1.996 1_556 S
Fe47 O64 1.997 . S
O48 Fe47 2.002 . S
O48 C65 1.295 . S
O49 Fe44 1.997 1_556 S
O49 C65 1.235 . S
O50 Fe44 2.002 . S
O50 C51 1.295 1_554 S
C51 O50 1.295 1_556 S
C51 O53 1.235 . S
C52 O57 1.287 . S
C52 O58 1.255 . S
O53 Fe45 1.997 1_556 S
O53 C51 1.235 . S
C54 O60 1.287 . S
C54 O61 1.255 . S
O55 Fe44 1.976 . S
O55 C62 1.287 . S
O56 Fe45 1.996 . S
O56 C62 1.255 . S
O57 Fe47 1.976 1_554 S
O57 C52 1.287 . S
O58 Fe44 1.996 . S
O58 C52 1.255 . S
C59 O63 1.295 . S
C59 O64 1.235 . S
O60 Fe45 1.976 . S
O60 C54 1.287 . S
O61 Fe47 1.996 1_554 S
O61 C54 1.255 . S
C62 O55 1.287 . S
C62 O56 1.255 . S
O63 Fe45 2.002 1_556 S
O63 C59 1.295 . S
O64 Fe47 1.997 . S
O64 C59 1.235 . S
C65 O48 1.295 . S
C65 O49 1.235 . S
Fe66 O68 1.918 . S
Fe66 O71 1.997 . S
Fe66 O72 2.002 . S
Fe66 O77 1.976 . S
Fe66 O80 1.996 . S
Fe67 O68 1.918 . S
Fe67 O75 1.997 . S
Fe67 O78 1.996 . S
Fe67 O82 1.976 . S
Fe67 O85 2.002 . S
O68 Fe66 1.918 . S
O68 Fe67 1.918 . S
O68 Fe69 1.918 . S
Fe69 O68 1.918 . S
Fe69 O70 2.002 . S
Fe69 O79 1.976 . S
Fe69 O83 1.996 . S
Fe69 O86 1.997 . S
O70 Fe69 2.002 . S
O70 C87 1.295 . S
O71 Fe66 1.997 . S
O71 C87 1.235 . S
O72 Fe66 2.002 . S
O72 C73 1.295 . S
C73 O72 1.295 . S
C73 O75 1.235 . S
C74 O79 1.287 . S
C74 O80 1.255 . S
O75 Fe67 1.997 . S
O75 C73 1.235 . S
C76 O82 1.287 . S
C76 O83 1.255 . S
O77 Fe66 1.976 . S
O77 C84 1.287 . S
O78 Fe67 1.996 . S
O78 C84 1.255 . S
O79 Fe69 1.976 . S
O79 C74 1.287 . S
O80 Fe66 1.996 . S
O80 C74 1.255 . S
C81 O85 1.295 . S
C81 O86 1.235 . S
O82 Fe67 1.976 . S
O82 C76 1.287 . S
O83 Fe69 1.996 . S
O83 C76 1.255 . S
C84 O77 1.287 . S
C84 O78 1.255 . S
O85 Fe67 2.002 . S
O85 C81 1.295 . S
O86 Fe69 1.997 . S
O86 C81 1.235 . S
C87 O70 1.295 . S
C87 O71 1.235 . S
H88 C91 0.931 . S
H89 C94 0.928 . S
H90 C96 0.930 . S
C91 H88 0.931 . S
C91 C92 1.413 . S
C91 C93 1.360 . S
C92 C91 1.413 . S
C92 C96 1.429 . S
C93 C91 1.360 . S
C93 C94 1.372 . S
C94 H89 0.928 . S
C94 C93 1.372 . S
C94 C95 1.404 . S
C95 C94 1.404 . S
C95 C96 1.391 . S
C96 H90 0.930 . S
C96 C92 1.429 . S
C96 C95 1.391 . S
H97 C100 0.931 . S
H98 C103 0.928 . S
H99 C105 0.930 . S
C100 H97 0.931 . S
C100 C101 1.413 . S
C100 C102 1.360 . S
C101 C100 1.413 . S
C101 C105 1.429 . S
C102 C100 1.360 . S
C102 C103 1.372 . S
C103 H98 0.928 . S
C103 C102 1.372 . S
C103 C104 1.404 . S
C104 C103 1.404 . S
C104 C105 1.391 . S
C105 H99 0.930 . S
C105 C101 1.429 . S
C105 C104 1.391 . S
H106 C109 0.931 . S
H107 C112 0.928 . S
H108 C114 0.930 . S
C109 H106 0.931 . S
C109 C110 1.413 . S
C109 C111 1.360 . S
C110 C109 1.413 . S
C110 C114 1.429 . S
C111 C109 1.360 . S
C111 C112 1.372 . S
C112 H107 0.928 . S
C112 C111 1.372 . S
C112 C113 1.404 . S
C113 C112 1.404 . S
C113 C114 1.391 . S
C114 H108 0.930 . S
C114 C110 1.429 . S
C114 C113 1.391 . S
H115 C118 0.931 . S
H116 C121 0.928 . S
H117 C123 0.930 . S
C118 H115 0.931 . S
C118 C119 1.413 . S
C118 C120 1.360 . S
C119 C118 1.413 . S
C119 C123 1.429 . S
C120 C118 1.360 . S
C120 C121 1.372 . S
C121 H116 0.928 . S
C121 C120 1.372 . S
C121 C122 1.404 . S
C122 C121 1.404 . S
C122 C123 1.391 . S
C123 H117 0.930 . S
C123 C119 1.429 . S
C123 C122 1.391 . S
H124 C127 0.931 . S
H125 C130 0.928 . S
H126 C132 0.930 . S
C127 H124 0.931 . S
C127 C128 1.413 . S
C127 C129 1.360 . S
C128 C127 1.413 . S
C128 C132 1.429 . S
C129 C127 1.360 . S
C129 C130 1.372 . S
C130 H125 0.928 . S
C130 C129 1.372 . S
C130 C131 1.404 . S
C131 C130 1.404 . S
C131 C132 1.391 . S
C132 H126 0.930 . S
C132 C128 1.429 . S
C132 C131 1.391 . S
H133 C136 0.931 . S
H134 C139 0.928 . S
H135 C141 0.930 . S
C136 H133 0.931 . S
C136 C137 1.413 . S
C136 C138 1.360 . S
C137 C136 1.413 . S
C137 C141 1.429 . S
C138 C136 1.360 . S
C138 C139 1.372 . S
C139 H134 0.928 . S
C139 C138 1.372 . S
C139 C140 1.404 . S
C140 C139 1.404 . S
C140 C141 1.391 . S
C141 H135 0.930 . S
C141 C137 1.429 . S
C141 C140 1.391 . S
H142 C145 0.931 . S
H143 C148 0.928 . S
H144 C150 0.930 . S
C145 H142 0.931 . S
C145 C146 1.413 . S
C145 C147 1.360 . S
C146 C145 1.413 . S
C146 C150 1.429 . S
C147 C145 1.360 . S
C147 C148 1.372 . S
C148 H143 0.928 . S
C148 C147 1.372 . S
C148 C149 1.404 . S
C149 C148 1.404 . S
C149 C150 1.391 . S
C150 H144 0.930 . S
C150 C146 1.429 . S
C150 C149 1.391 . S
H151 C154 0.931 . S
H152 C157 0.928 . S
H153 C159 0.930 . S
C154 H151 0.931 . S
C154 C155 1.413 . S
C154 C156 1.360 . S
C155 C154 1.413 . S
C155 C159 1.429 . S
C156 C154 1.360 . S
C156 C157 1.372 . S
C157 H152 0.928 . S
C157 C156 1.372 . S
C157 C158 1.404 . S
C158 C157 1.404 . S
C158 C159 1.391 . S
C159 H153 0.930 . S
C159 C155 1.429 . S
C159 C158 1.391 . S
C160 C161 1.387 . S
C160 H164 0.950 . S
C160 C169 1.390 1_565 S
C161 C160 1.387 . S
C161 C163 1.387 . S
H162 C169 0.950 . S
C163 C161 1.387 . S
C163 C165 1.390 1_565 S
C163 H167 0.950 . S
H164 C160 0.950 . S
C165 C163 1.390 1_545 S
C165 C166 1.387 . S
C165 H168 0.950 . S
C166 C165 1.387 . S
C166 C169 1.387 . S
H167 C163 0.950 . S
H168 C165 0.950 . S
C169 C160 1.390 1_545 S
C169 H162 0.950 . S
C169 C166 1.387 . S
C170 C171 1.387 . S
C170 H174 0.950 . S
C170 C179 1.390 . S
C171 C170 1.387 . S
C171 C173 1.387 . S
H172 C179 0.950 . S
C173 C171 1.387 . S
C173 C175 1.390 . S
C173 H177 0.950 . S
H174 C170 0.950 . S
C175 C173 1.390 . S
C175 C176 1.387 . S
C175 H178 0.950 . S
C176 C175 1.387 . S
C176 C179 1.387 . S
H177 C173 0.950 . S
H178 C175 0.950 . S
C179 C170 1.390 . S
C179 H172 0.950 . S
C179 C176 1.387 . S
C180 C181 1.387 . S
C180 H184 0.950 . S
C180 C189 1.390 1_545 S
C181 C180 1.387 . S
C181 C183 1.387 1_545 S
H182 C189 0.950 . S
C183 C181 1.387 1_565 S
C183 C185 1.390 . S
C183 H187 0.950 . S
H184 C180 0.950 . S
C185 C183 1.390 . S
C185 C186 1.387 . S
C185 H188 0.950 . S
C186 C185 1.387 . S
C186 C189 1.387 . S
H187 C183 0.950 . S
H188 C185 0.950 . S
C189 C180 1.390 1_565 S
C189 H182 0.950 . S
C189 C186 1.387 . S
C190 C191 1.387 . S
C190 H194 0.950 . S
C190 C199 1.390 . S
C191 C190 1.387 . S
C191 C193 1.387 . S
H192 C199 0.950 . S
C193 C191 1.387 . S
C193 C195 1.390 . S
C193 H197 0.950 . S
H194 C190 0.950 . S
C195 C193 1.390 . S
C195 C196 1.387 . S
C195 H198 0.950 . S
C196 C195 1.387 . S
C196 C199 1.387 . S
H197 C193 0.950 . S
H198 C195 0.950 . S
C199 C190 1.390 . S
C199 H192 0.950 . S
C199 C196 1.387 . S
C200 C201 1.387 . S
C200 H204 0.950 . S
C200 C209 1.390 . S
C201 C200 1.387 . S
C201 C203 1.387 . S
H202 C209 0.950 . S
C203 C201 1.387 . S
C203 C205 1.390 . S
C203 H207 0.950 . S
H204 C200 0.950 . S
C205 C203 1.390 . S
C205 C206 1.387 . S
C205 H208 0.950 . S
C206 C205 1.387 . S
C206 C209 1.387 . S
H207 C203 0.950 . S
H208 C205 0.950 . S
C209 C200 1.390 . S
C209 H202 0.950 . S
C209 C206 1.387 . S
C210 C211 1.387 . S
C210 H214 0.950 . S
C210 C219 1.390 . S
C211 C210 1.387 . S
C211 C213 1.387 . S
H212 C219 0.950 . S
C213 C211 1.387 . S
C213 C215 1.390 . S
C213 H217 0.950 . S
H214 C210 0.950 . S
C215 C213 1.390 . S
C215 C216 1.387 . S
C215 H218 0.950 . S
C216 C215 1.387 . S
C216 C219 1.387 . S
H217 C213 0.950 . S
H218 C215 0.950 . S
C219 C210 1.390 . S
C219 H212 0.950 . S
C219 C216 1.387 . S
C220 C221 1.387 . S
C220 H224 0.950 . S
C220 C229 1.390 . S
C221 C220 1.387 . S
C221 C223 1.387 . S
H222 C229 0.950 . S
C223 C221 1.387 . S
C223 C225 1.390 . S
C223 H227 0.950 . S
H224 C220 0.950 . S
C225 C223 1.390 . S
C225 C226 1.387 . S
C225 H228 0.950 . S
C226 C225 1.387 . S
C226 C229 1.387 . S
H227 C223 0.950 . S
H228 C225 0.950 . S
C229 C220 1.390 . S
C229 H222 0.950 . S
C229 C226 1.387 . S
C230 C231 1.387 . S
C230 H234 0.950 . S
C230 C239 1.390 . S
C231 C230 1.387 . S
C231 C233 1.387 . S
H232 C239 0.950 . S
C233 C231 1.387 . S
C233 C235 1.390 . S
C233 H237 0.950 . S
H234 C230 0.950 . S
C235 C233 1.390 . S
C235 C236 1.387 . S
C235 H238 0.950 . S
C236 C235 1.387 . S
C236 C239 1.387 . S
H237 C233 0.950 . S
H238 C235 0.950 . S
C239 C230 1.390 . S
C239 H232 0.950 . S
C239 C236 1.387 . S
C240 C241 1.387 1_565 S
C240 H244 0.950 . S
C240 C249 1.390 . S
C241 C240 1.387 1_545 S
C241 C243 1.387 . S
H242 C249 0.950 . S
C243 C241 1.387 . S
C243 C245 1.389 . S
C243 H247 0.950 . S
H244 C240 0.950 . S
C245 C243 1.389 . S
C245 C246 1.388 1_545 S
C245 H248 0.950 . S
C246 C245 1.388 1_565 S
C246 C249 1.387 . S
H247 C243 0.950 . S
H248 C245 0.950 . S
C249 C240 1.390 . S
C249 H242 0.950 . S
C249 C246 1.387 . S
C250 C251 1.387 . S
C250 H254 0.950 . S
C250 C259 1.390 . S
C251 C250 1.387 . S
C251 C253 1.387 . S
H252 C259 0.950 . S
C253 C251 1.387 . S
C253 C255 1.390 . S
C253 H257 0.950 . S
H254 C250 0.950 . S
C255 C253 1.390 . S
C255 C256 1.387 . S
C255 H258 0.950 . S
C256 C255 1.387 . S
C256 C259 1.387 . S
H257 C253 0.950 . S
H258 C255 0.950 . S
C259 C250 1.390 . S
C259 H252 0.950 . S
C259 C256 1.387 . S
C260 C261 1.387 1_544 S
C260 H264 0.950 . S
C260 C269 1.390 . S
C261 C260 1.387 1_566 S
C261 C263 1.387 . S
H262 C269 0.950 . S
C263 C261 1.387 . S
C263 C265 1.390 1_565 S
C263 H267 0.950 . S
H264 C260 0.950 . S
C265 C263 1.390 1_545 S
C265 C266 1.387 . S
C265 H268 0.950 . S
C266 C265 1.387 . S
C266 C269 1.387 1_556 S
H267 C263 0.950 . S
H268 C265 0.950 . S
C269 C260 1.390 . S
C269 H262 0.950 . S
C269 C266 1.387 1_554 S
C270 C271 1.387 . S
C270 H274 0.950 . S
C270 C279 1.390 . S
C271 C270 1.387 . S
C271 C273 1.387 . S
H272 C279 0.950 . S
C273 C271 1.387 . S
C273 C275 1.390 . S
C273 H277 0.950 . S
H274 C270 0.950 . S
C275 C273 1.390 . S
C275 C276 1.387 . S
C275 H278 0.950 . S
C276 C275 1.387 . S
C276 C279 1.387 . S
H277 C273 0.950 . S
H278 C275 0.950 . S
C279 C270 1.390 . S
C279 H272 0.950 . S
C279 C276 1.387 . S
C280 C281 1.387 . S
C280 H284 0.950 . S
C280 C289 1.390 . S
C281 C280 1.387 . S
C281 C283 1.387 . S
H282 C289 0.950 . S
C283 C281 1.387 . S
C283 C285 1.390 . S
C283 H287 0.950 . S
H284 C280 0.950 . S
C285 C283 1.390 . S
C285 C286 1.387 . S
C285 H288 0.950 . S
C286 C285 1.387 . S
C286 C289 1.387 . S
H287 C283 0.950 . S
H288 C285 0.950 . S
C289 C280 1.390 . S
C289 H282 0.950 . S
C289 C286 1.387 . S
C290 C291 1.387 . S
C290 H294 0.950 . S
C290 C299 1.390 . S
C291 C290 1.387 . S
C291 C293 1.387 . S
H292 C299 0.950 . S
C293 C291 1.387 . S
C293 C295 1.390 . S
C293 H297 0.950 . S
H294 C290 0.950 . S
C295 C293 1.390 . S
C295 C296 1.387 . S
C295 H298 0.950 . S
C296 C295 1.387 . S
C296 C299 1.387 . S
H297 C293 0.950 . S
H298 C295 0.950 . S
C299 C290 1.390 . S
C299 H292 0.950 . S
C299 C296 1.387 . S
C300 C301 1.387 . S
C300 H304 0.950 . S
C300 C309 1.390 . S
C301 C300 1.387 . S
C301 C303 1.387 . S
H302 C309 0.950 . S
C303 C301 1.387 . S
C303 C305 1.390 . S
C303 H307 0.950 . S
H304 C300 0.950 . S
C305 C303 1.390 . S
C305 C306 1.387 . S
C305 H308 0.950 . S
C306 C305 1.387 . S
C306 C309 1.387 . S
H307 C303 0.950 . S
H308 C305 0.950 . S
C309 C300 1.390 . S
C309 H302 0.950 . S
C309 C306 1.387 . S
C310 C311 1.387 . S
C310 H314 0.950 . S
C310 C319 1.390 . S
C311 C310 1.387 . S
C311 C313 1.387 . S
H312 C319 0.950 . S
C313 C311 1.387 . S
C313 C315 1.390 . S
C313 H317 0.950 . S
H314 C310 0.950 . S
C315 C313 1.390 . S
C315 C316 1.387 . S
C315 H318 0.950 . S
C316 C315 1.387 . S
C316 C319 1.387 . S
H317 C313 0.950 . S
H318 C315 0.950 . S
C319 C310 1.390 . S
C319 H312 0.950 . S
C319 C316 1.387 . S
C320 C321 1.387 . S
C320 H324 0.950 . S
C320 C329 1.390 . S
C321 C320 1.387 . S
C321 C323 1.387 . S
H322 C329 0.950 . S
C323 C321 1.387 . S
C323 C325 1.390 . S
C323 H327 0.950 . S
H324 C320 0.950 . S
C325 C323 1.390 . S
C325 C326 1.387 . S
C325 H328 0.950 . S
C326 C325 1.387 . S
C326 C329 1.387 . S
H327 C323 0.950 . S
H328 C325 0.950 . S
C329 C320 1.390 . S
C329 H322 0.950 . S
C329 C326 1.387 . S
C330 C331 1.387 . S
C330 H334 0.950 . S
C330 C339 1.390 . S
C331 C330 1.387 . S
C331 C333 1.387 . S
H332 C339 0.950 . S
C333 C331 1.387 . S
C333 C335 1.390 . S
C333 H337 0.950 . S
H334 C330 0.950 . S
C335 C333 1.390 . S
C335 C336 1.387 . S
C335 H338 0.950 . S
C336 C335 1.387 . S
C336 C339 1.387 . S
H337 C333 0.950 . S
H338 C335 0.950 . S
C339 C330 1.390 . S
C339 H332 0.950 . S
C339 C336 1.387 . S
C340 C341 1.387 . S
C340 H344 0.950 . S
C340 C349 1.390 . S
C341 C340 1.387 . S
C341 C343 1.387 . S
H342 C349 0.950 . S
C343 C341 1.387 . S
C343 C345 1.390 . S
C343 H347 0.950 . S
H344 C340 0.950 . S
C345 C343 1.390 . S
C345 C346 1.387 . S
C345 H348 0.950 . S
C346 C345 1.387 . S
C346 C349 1.387 . S
H347 C343 0.950 . S
H348 C345 0.950 . S
C349 C340 1.390 . S
C349 H342 0.950 . S
C349 C346 1.387 . S
C350 C351 1.387 . S
C350 H354 0.950 . S
C350 C359 1.390 . S
C351 C350 1.387 . S
C351 C353 1.387 . S
H352 C359 0.950 . S
C353 C351 1.387 . S
C353 C355 1.390 . S
C353 H357 0.950 . S
H354 C350 0.950 . S
C355 C353 1.390 . S
C355 C356 1.387 . S
C355 H358 0.950 . S
C356 C355 1.387 . S
C356 C359 1.387 . S
H357 C353 0.950 . S
H358 C355 0.950 . S
C359 C350 1.390 . S
C359 H352 0.950 . S
C359 C356 1.387 . S
C360 C361 1.387 . S
C360 H364 0.950 . S
C360 C369 1.390 . S
C361 C360 1.387 . S
C361 C363 1.387 . S
H362 C369 0.950 . S
C363 C361 1.387 . S
C363 C365 1.390 . S
C363 H367 0.950 . S
H364 C360 0.950 . S
C365 C363 1.390 . S
C365 C366 1.387 . S
C365 H368 0.950 . S
C366 C365 1.387 . S
C366 C369 1.387 . S
H367 C363 0.950 . S
H368 C365 0.950 . S
C369 C360 1.390 . S
C369 H362 0.950 . S
C369 C366 1.387 . S
C370 C371 1.387 . S
C370 H374 0.950 . S
C370 C379 1.390 . S
C371 C370 1.387 . S
C371 C373 1.387 . S
H372 C379 0.950 . S
C373 C371 1.387 . S
C373 C375 1.390 . S
C373 H377 0.950 . S
H374 C370 0.950 . S
C375 C373 1.390 . S
C375 C376 1.387 . S
C375 H378 0.950 . S
C376 C375 1.387 . S
C376 C379 1.387 . S
H377 C373 0.950 . S
H378 C375 0.950 . S
C379 C370 1.390 . S
C379 H372 0.950 . S
C379 C376 1.387 . S
C380 C381 1.387 . S
C380 H384 0.950 . S
C380 C389 1.390 . S
C381 C380 1.387 . S
C381 C383 1.387 . S
H382 C389 0.950 . S
C383 C381 1.387 . S
C383 C385 1.390 . S
C383 H387 0.950 . S
H384 C380 0.950 . S
C385 C383 1.390 . S
C385 C386 1.387 . S
C385 H388 0.950 . S
C386 C385 1.387 . S
C386 C389 1.387 . S
H387 C383 0.950 . S
H388 C385 0.950 . S
C389 C380 1.390 . S
C389 H382 0.950 . S
C389 C386 1.387 . S
C390 C391 1.387 . S
C390 H394 0.950 . S
C390 C399 1.390 . S
C391 C390 1.387 . S
C391 C393 1.387 1_556 S
H392 C399 0.950 . S
C393 C391 1.387 1_554 S
C393 C395 1.390 1_554 S
C393 H397 0.950 . S
H394 C390 0.950 . S
C395 C393 1.390 1_556 S
C395 C396 1.387 . S
C395 H398 0.950 1_556 S
C396 C395 1.387 . S
C396 C399 1.387 . S
H397 C393 0.950 . S
H398 C395 0.950 1_554 S
C399 C390 1.390 . S
C399 H392 0.950 . S
C399 C396 1.387 . S
C161 C7 1.462 . S
C166 C93 1.445 . S
C171 C37 1.377 . S
C176 C101 1.354 . S
C181 C54 1.447 . S
C186 C110 1.407 . S
C196 C120 1.457 . S
C191 C87 1.440 . S
C206 C129 1.417 . S
C201 C30 1.435 . S
C211 C51 1.446 1_455 S
C216 C138 1.461 . S
C221 C84 1.472 . S
C226 C146 1.427 . S
C231 C10 1.359 . S
C236 C156 1.332 1_455 S
C241 C59 1.464 . S
C246 C155 1.457 . S
C256 C128 1.322 . S
C251 C74 1.343 . S
C266 C137 1.430 . S
C261 C18 1.470 1_556 S
C271 C32 1.430 . S
C276 C147 1.438 . S
C286 C102 1.449 . S
C281 C73 1.466 . S
C291 C15 1.432 1_655 S
C296 C111 1.458 . S
C306 C119 1.453 . S
C301 C43 1.476 . S
C316 C92 1.329 1_655 S
C311 C62 1.351 . S
C326 C149 1.453 . S
C321 C21 1.501 . S
C336 C158 1.352 . S
C331 C29 1.362 . S
C341 C52 1.344 . S
C346 C131 1.326 . S
C356 C140 1.438 . S
C351 C81 1.486 . S
C366 C113 1.439 . S
C361 C40 1.473 . S
C371 C65 1.477 . S
C376 C122 1.432 . S
C386 C95 1.330 . S
C381 C76 1.348 . S
C396 C104 1.348 . S
C391 C8 1.372 1_556 S
