# Generated by pormake.
# Topology tbo, (3,4)-cn, num edge types: 1
# Building blocks:
#     Node 0, Type 0, BuildingBlock: CUQRIR_clean_linker_1, # of connection points: 3
#     Node 1, Type 0, BuildingBlock: CUQRIR_clean_linker_1, # of connection points: 3
#     Node 2, Type 0, BuildingBlock: CUQRIR_clean_linker_1, # of connection points: 3
#     Node 3, Type 0, BuildingBlock: CUQRIR_clean_linker_1, # of connection points: 3
#     Node 4, Type 0, BuildingBlock: CUQRIR_clean_linker_1, # of connection points: 3
#     Node 5, Type 0, BuildingBlock: CUQRIR_clean_linker_1, # of connection points: 3
#     Node 6, Type 0, BuildingBlock: CUQRIR_clean_linker_1, # of connection points: 3
#     Node 7, Type 0, BuildingBlock: CUQRIR_clean_linker_1, # of connection points: 3
#     Node 8, Type 0, BuildingBlock: CUQRIR_clean_linker_1, # of connection points: 3
#     Node 9, Type 0, BuildingBlock: CUQRIR_clean_linker_1, # of connection points: 3
#     Node 10, Type 0, BuildingBlock: CUQRIR_clean_linker_1, # of connection points: 3
#     Node 11, Type 0, BuildingBlock: CUQRIR_clean_linker_1, # of connection points: 3
#     Node 12, Type 0, BuildingBlock: CUQRIR_clean_linker_1, # of connection points: 3
#     Node 13, Type 0, BuildingBlock: CUQRIR_clean_linker_1, # of connection points: 3
#     Node 14, Type 0, BuildingBlock: CUQRIR_clean_linker_1, # of connection points: 3
#     Node 15, Type 0, BuildingBlock: CUQRIR_clean_linker_1, # of connection points: 3
#     Node 16, Type 0, BuildingBlock: CUQRIR_clean_linker_1, # of connection points: 3
#     Node 17, Type 0, BuildingBlock: CUQRIR_clean_linker_1, # of connection points: 3
#     Node 18, Type 0, BuildingBlock: CUQRIR_clean_linker_1, # of connection points: 3
#     Node 19, Type 0, BuildingBlock: CUQRIR_clean_linker_1, # of connection points: 3
#     Node 20, Type 0, BuildingBlock: CUQRIR_clean_linker_1, # of connection points: 3
#     Node 21, Type 0, BuildingBlock: CUQRIR_clean_linker_1, # of connection points: 3
#     Node 22, Type 0, BuildingBlock: CUQRIR_clean_linker_1, # of connection points: 3
#     Node 23, Type 0, BuildingBlock: CUQRIR_clean_linker_1, # of connection points: 3
#     Node 24, Type 0, BuildingBlock: CUQRIR_clean_linker_1, # of connection points: 3
#     Node 25, Type 0, BuildingBlock: CUQRIR_clean_linker_1, # of connection points: 3
#     Node 26, Type 0, BuildingBlock: CUQRIR_clean_linker_1, # of connection points: 3
#     Node 27, Type 0, BuildingBlock: CUQRIR_clean_linker_1, # of connection points: 3
#     Node 28, Type 0, BuildingBlock: CUQRIR_clean_linker_1, # of connection points: 3
#     Node 29, Type 0, BuildingBlock: CUQRIR_clean_linker_1, # of connection points: 3
#     Node 30, Type 0, BuildingBlock: CUQRIR_clean_linker_1, # of connection points: 3
#     Node 31, Type 0, BuildingBlock: CUQRIR_clean_linker_1, # of connection points: 3
#     Node 32, Type 1, BuildingBlock: ESEHIV_clean_sbu_0, # of connection points: 4
#     Node 33, Type 1, BuildingBlock: ESEHIV_clean_sbu_0, # of connection points: 4
#     Node 34, Type 1, BuildingBlock: ESEHIV_clean_sbu_0, # of connection points: 4
#     Node 35, Type 1, BuildingBlock: ESEHIV_clean_sbu_0, # of connection points: 4
#     Node 36, Type 1, BuildingBlock: ESEHIV_clean_sbu_0, # of connection points: 4
#     Node 37, Type 1, BuildingBlock: ESEHIV_clean_sbu_0, # of connection points: 4
#     Node 38, Type 1, BuildingBlock: ESEHIV_clean_sbu_0, # of connection points: 4
#     Node 39, Type 1, BuildingBlock: ESEHIV_clean_sbu_0, # of connection points: 4
#     Node 40, Type 1, BuildingBlock: ESEHIV_clean_sbu_0, # of connection points: 4
#     Node 41, Type 1, BuildingBlock: ESEHIV_clean_sbu_0, # of connection points: 4
#     Node 42, Type 1, BuildingBlock: ESEHIV_clean_sbu_0, # of connection points: 4
#     Node 43, Type 1, BuildingBlock: ESEHIV_clean_sbu_0, # of connection points: 4
#     Node 44, Type 1, BuildingBlock: ESEHIV_clean_sbu_0, # of connection points: 4
#     Node 45, Type 1, BuildingBlock: ESEHIV_clean_sbu_0, # of connection points: 4
#     Node 46, Type 1, BuildingBlock: ESEHIV_clean_sbu_0, # of connection points: 4
#     Node 47, Type 1, BuildingBlock: ESEHIV_clean_sbu_0, # of connection points: 4
#     Node 48, Type 1, BuildingBlock: ESEHIV_clean_sbu_0, # of connection points: 4
#     Node 49, Type 1, BuildingBlock: ESEHIV_clean_sbu_0, # of connection points: 4
#     Node 50, Type 1, BuildingBlock: ESEHIV_clean_sbu_0, # of connection points: 4
#     Node 51, Type 1, BuildingBlock: ESEHIV_clean_sbu_0, # of connection points: 4
#     Node 52, Type 1, BuildingBlock: ESEHIV_clean_sbu_0, # of connection points: 4
#     Node 53, Type 1, BuildingBlock: ESEHIV_clean_sbu_0, # of connection points: 4
#     Node 54, Type 1, BuildingBlock: ESEHIV_clean_sbu_0, # of connection points: 4
#     Node 55, Type 1, BuildingBlock: ESEHIV_clean_sbu_0, # of connection points: 4
#     Edge 56, Type (0, 1), BuildingBlock: ZUJKAS_clean_linker_0, # of connection points: 2
#     Edge 57, Type (0, 1), BuildingBlock: ZUJKAS_clean_linker_0, # of connection points: 2
#     Edge 58, Type (0, 1), BuildingBlock: ZUJKAS_clean_linker_0, # of connection points: 2
#     Edge 59, Type (0, 1), BuildingBlock: ZUJKAS_clean_linker_0, # of connection points: 2
#     Edge 60, Type (0, 1), BuildingBlock: ZUJKAS_clean_linker_0, # of connection points: 2
#     Edge 61, Type (0, 1), BuildingBlock: ZUJKAS_clean_linker_0, # of connection points: 2
#     Edge 62, Type (0, 1), BuildingBlock: ZUJKAS_clean_linker_0, # of connection points: 2
#     Edge 63, Type (0, 1), BuildingBlock: ZUJKAS_clean_linker_0, # of connection points: 2
#     Edge 64, Type (0, 1), BuildingBlock: ZUJKAS_clean_linker_0, # of connection points: 2
#     Edge 65, Type (0, 1), BuildingBlock: ZUJKAS_clean_linker_0, # of connection points: 2
#     Edge 66, Type (0, 1), BuildingBlock: ZUJKAS_clean_linker_0, # of connection points: 2
#     Edge 67, Type (0, 1), BuildingBlock: ZUJKAS_clean_linker_0, # of connection points: 2
#     Edge 68, Type (0, 1), BuildingBlock: ZUJKAS_clean_linker_0, # of connection points: 2
#     Edge 69, Type (0, 1), BuildingBlock: ZUJKAS_clean_linker_0, # of connection points: 2
#     Edge 70, Type (0, 1), BuildingBlock: ZUJKAS_clean_linker_0, # of connection points: 2
#     Edge 71, Type (0, 1), BuildingBlock: ZUJKAS_clean_linker_0, # of connection points: 2
#     Edge 72, Type (0, 1), BuildingBlock: ZUJKAS_clean_linker_0, # of connection points: 2
#     Edge 73, Type (0, 1), BuildingBlock: ZUJKAS_clean_linker_0, # of connection points: 2
#     Edge 74, Type (0, 1), BuildingBlock: ZUJKAS_clean_linker_0, # of connection points: 2
#     Edge 75, Type (0, 1), BuildingBlock: ZUJKAS_clean_linker_0, # of connection points: 2
#     Edge 76, Type (0, 1), BuildingBlock: ZUJKAS_clean_linker_0, # of connection points: 2
#     Edge 77, Type (0, 1), BuildingBlock: ZUJKAS_clean_linker_0, # of connection points: 2
#     Edge 78, Type (0, 1), BuildingBlock: ZUJKAS_clean_linker_0, # of connection points: 2
#     Edge 79, Type (0, 1), BuildingBlock: ZUJKAS_clean_linker_0, # of connection points: 2
#     Edge 80, Type (0, 1), BuildingBlock: ZUJKAS_clean_linker_0, # of connection points: 2
#     Edge 81, Type (0, 1), BuildingBlock: ZUJKAS_clean_linker_0, # of connection points: 2
#     Edge 82, Type (0, 1), BuildingBlock: ZUJKAS_clean_linker_0, # of connection points: 2
#     Edge 83, Type (0, 1), BuildingBlock: ZUJKAS_clean_linker_0, # of connection points: 2
#     Edge 84, Type (0, 1), BuildingBlock: ZUJKAS_clean_linker_0, # of connection points: 2
#     Edge 85, Type (0, 1), BuildingBlock: ZUJKAS_clean_linker_0, # of connection points: 2
#     Edge 86, Type (0, 1), BuildingBlock: ZUJKAS_clean_linker_0, # of connection points: 2
#     Edge 87, Type (0, 1), BuildingBlock: ZUJKAS_clean_linker_0, # of connection points: 2
#     Edge 88, Type (0, 1), BuildingBlock: ZUJKAS_clean_linker_0, # of connection points: 2
#     Edge 89, Type (0, 1), BuildingBlock: ZUJKAS_clean_linker_0, # of connection points: 2
#     Edge 90, Type (0, 1), BuildingBlock: ZUJKAS_clean_linker_0, # of connection points: 2
#     Edge 91, Type (0, 1), BuildingBlock: ZUJKAS_clean_linker_0, # of connection points: 2
#     Edge 92, Type (0, 1), BuildingBlock: ZUJKAS_clean_linker_0, # of connection points: 2
#     Edge 93, Type (0, 1), BuildingBlock: ZUJKAS_clean_linker_0, # of connection points: 2
#     Edge 94, Type (0, 1), BuildingBlock: ZUJKAS_clean_linker_0, # of connection points: 2
#     Edge 95, Type (0, 1), BuildingBlock: ZUJKAS_clean_linker_0, # of connection points: 2
#     Edge 96, Type (0, 1), BuildingBlock: ZUJKAS_clean_linker_0, # of connection points: 2
#     Edge 97, Type (0, 1), BuildingBlock: ZUJKAS_clean_linker_0, # of connection points: 2
#     Edge 98, Type (0, 1), BuildingBlock: ZUJKAS_clean_linker_0, # of connection points: 2
#     Edge 99, Type (0, 1), BuildingBlock: ZUJKAS_clean_linker_0, # of connection points: 2
#     Edge 100, Type (0, 1), BuildingBlock: ZUJKAS_clean_linker_0, # of connection points: 2
#     Edge 101, Type (0, 1), BuildingBlock: ZUJKAS_clean_linker_0, # of connection points: 2
#     Edge 102, Type (0, 1), BuildingBlock: ZUJKAS_clean_linker_0, # of connection points: 2
#     Edge 103, Type (0, 1), BuildingBlock: ZUJKAS_clean_linker_0, # of connection points: 2
#     Edge 104, Type (0, 1), BuildingBlock: ZUJKAS_clean_linker_0, # of connection points: 2
#     Edge 105, Type (0, 1), BuildingBlock: ZUJKAS_clean_linker_0, # of connection points: 2
#     Edge 106, Type (0, 1), BuildingBlock: ZUJKAS_clean_linker_0, # of connection points: 2
#     Edge 107, Type (0, 1), BuildingBlock: ZUJKAS_clean_linker_0, # of connection points: 2
#     Edge 108, Type (0, 1), BuildingBlock: ZUJKAS_clean_linker_0, # of connection points: 2
#     Edge 109, Type (0, 1), BuildingBlock: ZUJKAS_clean_linker_0, # of connection points: 2
#     Edge 110, Type (0, 1), BuildingBlock: ZUJKAS_clean_linker_0, # of connection points: 2
#     Edge 111, Type (0, 1), BuildingBlock: ZUJKAS_clean_linker_0, # of connection points: 2
#     Edge 112, Type (0, 1), BuildingBlock: ZUJKAS_clean_linker_0, # of connection points: 2
#     Edge 113, Type (0, 1), BuildingBlock: ZUJKAS_clean_linker_0, # of connection points: 2
#     Edge 114, Type (0, 1), BuildingBlock: ZUJKAS_clean_linker_0, # of connection points: 2
#     Edge 115, Type (0, 1), BuildingBlock: ZUJKAS_clean_linker_0, # of connection points: 2
#     Edge 116, Type (0, 1), BuildingBlock: ZUJKAS_clean_linker_0, # of connection points: 2
#     Edge 117, Type (0, 1), BuildingBlock: ZUJKAS_clean_linker_0, # of connection points: 2
#     Edge 118, Type (0, 1), BuildingBlock: ZUJKAS_clean_linker_0, # of connection points: 2
#     Edge 119, Type (0, 1), BuildingBlock: ZUJKAS_clean_linker_0, # of connection points: 2
#     Edge 120, Type (0, 1), BuildingBlock: ZUJKAS_clean_linker_0, # of connection points: 2
#     Edge 121, Type (0, 1), BuildingBlock: ZUJKAS_clean_linker_0, # of connection points: 2
#     Edge 122, Type (0, 1), BuildingBlock: ZUJKAS_clean_linker_0, # of connection points: 2
#     Edge 123, Type (0, 1), BuildingBlock: ZUJKAS_clean_linker_0, # of connection points: 2
#     Edge 124, Type (0, 1), BuildingBlock: ZUJKAS_clean_linker_0, # of connection points: 2
#     Edge 125, Type (0, 1), BuildingBlock: ZUJKAS_clean_linker_0, # of connection points: 2
#     Edge 126, Type (0, 1), BuildingBlock: ZUJKAS_clean_linker_0, # of connection points: 2
#     Edge 127, Type (0, 1), BuildingBlock: ZUJKAS_clean_linker_0, # of connection points: 2
#     Edge 128, Type (0, 1), BuildingBlock: ZUJKAS_clean_linker_0, # of connection points: 2
#     Edge 129, Type (0, 1), BuildingBlock: ZUJKAS_clean_linker_0, # of connection points: 2
#     Edge 130, Type (0, 1), BuildingBlock: ZUJKAS_clean_linker_0, # of connection points: 2
#     Edge 131, Type (0, 1), BuildingBlock: ZUJKAS_clean_linker_0, # of connection points: 2
#     Edge 132, Type (0, 1), BuildingBlock: ZUJKAS_clean_linker_0, # of connection points: 2
#     Edge 133, Type (0, 1), BuildingBlock: ZUJKAS_clean_linker_0, # of connection points: 2
#     Edge 134, Type (0, 1), BuildingBlock: ZUJKAS_clean_linker_0, # of connection points: 2
#     Edge 135, Type (0, 1), BuildingBlock: ZUJKAS_clean_linker_0, # of connection points: 2
#     Edge 136, Type (0, 1), BuildingBlock: ZUJKAS_clean_linker_0, # of connection points: 2
#     Edge 137, Type (0, 1), BuildingBlock: ZUJKAS_clean_linker_0, # of connection points: 2
#     Edge 138, Type (0, 1), BuildingBlock: ZUJKAS_clean_linker_0, # of connection points: 2
#     Edge 139, Type (0, 1), BuildingBlock: ZUJKAS_clean_linker_0, # of connection points: 2
#     Edge 140, Type (0, 1), BuildingBlock: ZUJKAS_clean_linker_0, # of connection points: 2
#     Edge 141, Type (0, 1), BuildingBlock: ZUJKAS_clean_linker_0, # of connection points: 2
#     Edge 142, Type (0, 1), BuildingBlock: ZUJKAS_clean_linker_0, # of connection points: 2
#     Edge 143, Type (0, 1), BuildingBlock: ZUJKAS_clean_linker_0, # of connection points: 2
#     Edge 144, Type (0, 1), BuildingBlock: ZUJKAS_clean_linker_0, # of connection points: 2
#     Edge 145, Type (0, 1), BuildingBlock: ZUJKAS_clean_linker_0, # of connection points: 2
#     Edge 146, Type (0, 1), BuildingBlock: ZUJKAS_clean_linker_0, # of connection points: 2
#     Edge 147, Type (0, 1), BuildingBlock: ZUJKAS_clean_linker_0, # of connection points: 2
#     Edge 148, Type (0, 1), BuildingBlock: ZUJKAS_clean_linker_0, # of connection points: 2
#     Edge 149, Type (0, 1), BuildingBlock: ZUJKAS_clean_linker_0, # of connection points: 2
#     Edge 150, Type (0, 1), BuildingBlock: ZUJKAS_clean_linker_0, # of connection points: 2
#     Edge 151, Type (0, 1), BuildingBlock: ZUJKAS_clean_linker_0, # of connection points: 2
# Relax obj value: 0.021
# Max RMSD: 0.194
# Mean RMSD: 0.118
data_MOF--net-tbo--node1-ESEHIV_clean_sbu_0--node2-CUQRIR_clean_linker_1--edge1-ZUJKAS_clean_linker_0
_symmetry_space_group_name_H-M    P1
_symmetry_Int_Tables_number       1
_symmetry_cell_setting            triclinic
loop_
_symmetry_equiv_pos_as_xyz
'x, y, z'
_cell_length_a     89.168423
_cell_length_b     90.049628
_cell_length_c     86.852281
_cell_angle_alpha  86.941533
_cell_angle_beta   95.078956
_cell_angle_gamma 95.521728
loop_
_atom_site_label
_atom_site_type_symbol
_atom_site_fract_x
_atom_site_fract_y
_atom_site_fract_z
_atom_type_partial_charge
C0 C 0.17739 0.16448 0.22158 0.0
N1 N 0.18798 0.16313 0.21152 0.0
N2 N 0.17109 0.17759 0.21881 0.0
C3 C 0.17358 0.15344 0.23463 0.0
C4 C 0.17829 0.18421 0.20678 0.0
N5 N 0.18863 0.1755 0.20244 0.0
C6 C 0.17515 0.19915 0.19923 0.0
H7 H 0.16137 0.15299 0.2364 0.0
H8 H 0.1801 0.15719 0.24542 0.0
H9 H 0.17648 0.14206 0.23271 0.0
H10 H 0.17077 0.2063 0.2075 0.0
H11 H 0.16649 0.19737 0.18936 0.0
H12 H 0.18545 0.20503 0.19468 0.0
C13 C 0.84817 0.19749 0.16315 0.0
N14 N 0.85555 0.19217 0.17629 0.0
N15 N 0.85325 0.21189 0.15998 0.0
C16 C 0.83542 0.18898 0.15389 0.0
C17 C 0.86397 0.21514 0.17162 0.0
N18 N 0.86525 0.20321 0.18164 0.0
C19 C 0.87424 0.22944 0.17232 0.0
H20 H 0.84018 0.18259 0.1452 0.0
H21 H 0.82772 0.1967 0.1477 0.0
H22 H 0.82888 0.18097 0.16149 0.0
H23 H 0.8694 0.2373 0.1795 0.0
H24 H 0.87534 0.23477 0.16061 0.0
H25 H 0.88567 0.22737 0.17765 0.0
C26 C 0.88544 0.85457 0.20411 0.0
N27 N 0.88789 0.84347 0.19495 0.0
N28 N 0.8742 0.86253 0.19756 0.0
C29 C 0.89481 0.85834 0.21891 0.0
C30 C 0.86999 0.85592 0.18397 0.0
N31 N 0.87842 0.84441 0.18228 0.0
C32 C 0.85681 0.85994 0.17302 0.0
H33 H 0.88986 0.8517 0.22867 0.0
H34 H 0.89495 0.87037 0.22115 0.0
H35 H 0.90661 0.85552 0.21851 0.0
H36 H 0.86099 0.86797 0.16388 0.0
H37 H 0.84847 0.86525 0.17914 0.0
H38 H 0.8511 0.8499 0.16739 0.0
C39 C 0.20116 0.82484 0.15241 0.0
N40 N 0.21263 0.83564 0.15051 0.0
N41 N 0.19393 0.82716 0.16505 0.0
C42 C 0.1977 0.81148 0.14259 0.0
C43 C 0.20144 0.83979 0.17074 0.0
N44 N 0.21285 0.84485 0.16199 0.0
C45 C 0.19731 0.84747 0.18452 0.0
H46 H 0.18957 0.81429 0.13269 0.0
H47 H 0.19256 0.80178 0.14932 0.0
H48 H 0.2081 0.80835 0.13793 0.0
H49 H 0.20357 0.84297 0.19508 0.0
H50 H 0.18501 0.84541 0.18587 0.0
H51 H 0.20047 0.85968 0.18348 0.0
C52 C 0.17278 0.85622 0.84862 0.0
N53 N 0.18652 0.86227 0.85424 0.0
N54 N 0.16647 0.86557 0.83772 0.0
C55 C 0.16509 0.84167 0.85448 0.0
C56 C 0.17682 0.87755 0.83696 0.0
N57 N 0.189 0.87558 0.84708 0.0
C58 C 0.17557 0.89056 0.82546 0.0
H59 H 0.16824 0.8325 0.84773 0.0
H60 H 0.15261 0.8418 0.85307 0.0
H61 H 0.16871 0.83936 0.86686 0.0
H62 H 0.17079 0.89968 0.83098 0.0
H63 H 0.16799 0.88738 0.8151 0.0
H64 H 0.18684 0.89486 0.82179 0.0
C65 C 0.21737 0.15588 0.85413 0.0
N66 N 0.21636 0.16658 0.86432 0.0
N67 N 0.23019 0.14896 0.85753 0.0
C68 C 0.20643 0.15295 0.84017 0.0
C69 C 0.23697 0.15591 0.87013 0.0
N70 N 0.22867 0.16672 0.87416 0.0
C71 C 0.2511 0.15138 0.87922 0.0
H72 H 0.19703 0.1448 0.84358 0.0
H73 H 0.21201 0.14824 0.83086 0.0
H74 H 0.20158 0.16337 0.83563 0.0
H75 H 0.26101 0.15828 0.87498 0.0
H76 H 0.25256 0.13945 0.87778 0.0
H77 H 0.25081 0.15325 0.89171 0.0
C78 C 0.8801 0.20227 0.83646 0.0
N79 N 0.88963 0.19787 0.82662 0.0
N80 N 0.88714 0.21318 0.84542 0.0
C81 C 0.86436 0.19509 0.83818 0.0
C82 C 0.90132 0.21517 0.8407 0.0
N83 N 0.90287 0.20577 0.82938 0.0
C84 C 0.9133 0.22702 0.84633 0.0
H85 H 0.85631 0.20083 0.82998 0.0
H86 H 0.86109 0.19602 0.8501 0.0
H87 H 0.86344 0.18313 0.83543 0.0
H88 H 0.92055 0.22218 0.85599 0.0
H89 H 0.90817 0.23661 0.85058 0.0
H90 H 0.92058 0.23109 0.83697 0.0
C91 C 0.85028 0.87814 0.85075 0.0
N92 N 0.8586 0.86662 0.85549 0.0
N93 N 0.85636 0.88623 0.83883 0.0
C94 C 0.837 0.88227 0.85863 0.0
C95 C 0.86877 0.87926 0.83658 0.0
N96 N 0.87025 0.86744 0.84681 0.0
C97 C 0.87874 0.88329 0.8236 0.0
H98 H 0.82654 0.87612 0.85347 0.0
H99 H 0.83579 0.89442 0.85711 0.0
H100 H 0.83822 0.87916 0.87119 0.0
H101 H 0.8725 0.88895 0.8137 0.0
H102 H 0.88313 0.8732 0.81953 0.0
H103 H 0.88851 0.891 0.82784 0.0
C104 C 0.1778 0.68766 0.69988 0.0
N105 N 0.18888 0.68669 0.69035 0.0
N106 N 0.17056 0.70012 0.69626 0.0
C107 C 0.17482 0.67703 0.71347 0.0
C108 C 0.17779 0.70676 0.68422 0.0
N109 N 0.18905 0.69868 0.6807 0.0
C110 C 0.17288 0.72034 0.675 0.0
H111 H 0.16651 0.66773 0.70958 0.0
H112 H 0.17012 0.68272 0.72275 0.0
H113 H 0.18534 0.67223 0.71828 0.0
H114 H 0.17935 0.73045 0.67978 0.0
H115 H 0.16066 0.72135 0.67569 0.0
H116 H 0.17511 0.71986 0.66268 0.0
C117 C 0.84672 0.68277 0.65619 0.0
N118 N 0.85666 0.68372 0.66891 0.0
N119 N 0.84729 0.69589 0.64783 0.0
C120 C 0.83666 0.66902 0.65179 0.0
C121 C 0.85785 0.70489 0.65592 0.0
N122 N 0.86345 0.69752 0.66881 0.0
C123 C 0.86304 0.72071 0.65106 0.0
H124 H 0.84299 0.66197 0.64505 0.0
H125 H 0.82643 0.67194 0.6445 0.0
H126 H 0.83323 0.66241 0.66227 0.0
H127 H 0.85893 0.72367 0.63898 0.0
H128 H 0.87558 0.72241 0.65236 0.0
H129 H 0.85867 0.72843 0.65875 0.0
C130 C 0.89775 0.36894 0.71153 0.0
N131 N 0.90075 0.35718 0.70355 0.0
N132 N 0.88629 0.37605 0.70404 0.0
C133 C 0.90684 0.3742 0.72599 0.0
C134 C 0.88254 0.36823 0.69112 0.0
N135 N 0.89143 0.35687 0.69071 0.0
C136 C 0.86937 0.37094 0.67956 0.0
H137 H 0.90188 0.3684 0.7362 0.0
H138 H 0.90669 0.38641 0.72696 0.0
H139 H 0.91875 0.37152 0.72614 0.0
H140 H 0.87346 0.37829 0.66985 0.0
H141 H 0.86066 0.37648 0.68491 0.0
H142 H 0.86413 0.36029 0.6748 0.0
C143 C 0.21307 0.35663 0.66393 0.0
N144 N 0.22435 0.36742 0.66132 0.0
N145 N 0.20659 0.35905 0.67701 0.0
C146 C 0.20923 0.34308 0.65442 0.0
C147 C 0.21445 0.37167 0.6823 0.0
N148 N 0.22535 0.37667 0.67286 0.0
C149 C 0.21075 0.37973 0.69602 0.0
H150 H 0.20072 0.34572 0.64481 0.0
H151 H 0.20444 0.33346 0.6615 0.0
H152 H 0.21938 0.33988 0.64933 0.0
H153 H 0.21784 0.37604 0.7064 0.0
H154 H 0.19868 0.37723 0.69823 0.0
H155 H 0.21322 0.39198 0.69419 0.0
C156 C 0.17864 0.34222 0.35237 0.0
N157 N 0.19236 0.34915 0.3568 0.0
N158 N 0.17188 0.3499 0.34029 0.0
C159 C 0.17133 0.32864 0.36059 0.0
C160 C 0.1819 0.36183 0.33761 0.0
N161 N 0.19435 0.36142 0.34773 0.0
C162 C 0.18002 0.37319 0.32443 0.0
H163 H 0.17442 0.31848 0.35539 0.0
H164 H 0.15883 0.32858 0.35938 0.0
H165 H 0.1753 0.32821 0.37306 0.0
H166 H 0.17505 0.38292 0.32859 0.0
H167 H 0.17233 0.36849 0.31478 0.0
H168 H 0.1911 0.37717 0.32007 0.0
C169 C 0.20895 0.64234 0.33513 0.0
N170 N 0.20806 0.65346 0.34488 0.0
N171 N 0.22185 0.63559 0.33864 0.0
C172 C 0.19718 0.63803 0.32226 0.0
C173 C 0.22883 0.64309 0.3508 0.0
N174 N 0.22056 0.65407 0.35448 0.0
C175 C 0.2437 0.63967 0.3592 0.0
H176 H 0.18774 0.63094 0.3272 0.0
H177 H 0.20177 0.63161 0.31351 0.0
H178 H 0.19255 0.64812 0.31653 0.0
H179 H 0.2526 0.64846 0.35598 0.0
H180 H 0.24715 0.62875 0.35625 0.0
H181 H 0.24301 0.6398 0.37188 0.0
C182 C 0.87165 0.6811 0.34689 0.0
N183 N 0.87909 0.67567 0.33578 0.0
N184 N 0.87856 0.69438 0.35146 0.0
C185 C 0.85701 0.67396 0.35244 0.0
C186 C 0.89045 0.69687 0.34267 0.0
N187 N 0.89068 0.68559 0.33295 0.0
C188 C 0.90266 0.70954 0.34475 0.0
H189 H 0.85013 0.68249 0.35628 0.0
H190 H 0.85957 0.66609 0.36238 0.0
H191 H 0.85031 0.66759 0.34319 0.0
H192 H 0.90342 0.71364 0.35664 0.0
H193 H 0.89997 0.7189 0.33645 0.0
H194 H 0.91381 0.70602 0.34248 0.0
C195 C 0.85293 0.36228 0.36291 0.0
N196 N 0.86 0.35044 0.36933 0.0
N197 N 0.85999 0.36851 0.35059 0.0
C198 C 0.84002 0.36867 0.36953 0.0
C199 C 0.87168 0.36009 0.34982 0.0
N200 N 0.87183 0.34925 0.36128 0.0
C201 C 0.88229 0.3617 0.33714 0.0
H202 H 0.82919 0.36311 0.36449 0.0
H203 H 0.84014 0.38084 0.3667 0.0
H204 H 0.84059 0.36675 0.38228 0.0
H205 H 0.87687 0.36673 0.32637 0.0
H206 H 0.88594 0.35071 0.33462 0.0
H207 H 0.89249 0.36907 0.34094 0.0
C208 C 0.68593 0.18416 0.70133 0.0
N209 N 0.69675 0.18297 0.69151 0.0
N210 N 0.67946 0.19716 0.69849 0.0
C211 C 0.68273 0.17337 0.71477 0.0
C212 C 0.68693 0.20398 0.68673 0.0
N213 N 0.69752 0.19544 0.68254 0.0
C214 C 0.68322 0.21853 0.67865 0.0
H215 H 0.67393 0.16451 0.71085 0.0
H216 H 0.67853 0.1791 0.72431 0.0
H217 H 0.69304 0.16804 0.71928 0.0
H218 H 0.69054 0.22778 0.68417 0.0
H219 H 0.67124 0.22045 0.67958 0.0
H220 H 0.68539 0.21873 0.66626 0.0
C221 C 0.35562 0.17257 0.66894 0.0
N222 N 0.36617 0.1721 0.68114 0.0
N223 N 0.35685 0.1861 0.66138 0.0
C224 C 0.34404 0.15993 0.66451 0.0
C225 C 0.36842 0.19389 0.66944 0.0
N226 N 0.37399 0.18542 0.68154 0.0
C227 C 0.37434 0.20974 0.66549 0.0
H228 H 0.34929 0.15213 0.65761 0.0
H229 H 0.33418 0.16402 0.65742 0.0
H230 H 0.34014 0.15367 0.675 0.0
H231 H 0.37079 0.21327 0.65341 0.0
H232 H 0.38686 0.21103 0.6673 0.0
H233 H 0.36987 0.21727 0.67332 0.0
C234 C 0.38503 0.86026 0.70769 0.0
N235 N 0.38803 0.84875 0.69934 0.0
N236 N 0.37314 0.86712 0.70076 0.0
C237 C 0.39454 0.86564 0.72185 0.0
C238 C 0.36913 0.85943 0.6878 0.0
N239 N 0.37826 0.84836 0.68685 0.0
C240 C 0.35563 0.86202 0.67666 0.0
H241 H 0.39024 0.85954 0.73224 0.0
H242 H 0.39399 0.87777 0.72306 0.0
H243 H 0.40652 0.86345 0.72136 0.0
H244 H 0.34694 0.86723 0.6824 0.0
H245 H 0.3505 0.85138 0.67178 0.0
H246 H 0.35933 0.86963 0.66697 0.0
C247 C 0.70707 0.84466 0.65392 0.0
N248 N 0.71848 0.85533 0.65133 0.0
N249 N 0.70051 0.84727 0.66689 0.0
C250 C 0.70312 0.83102 0.64457 0.0
C251 C 0.70841 0.85987 0.67214 0.0
N252 N 0.71944 0.86471 0.66278 0.0
C253 C 0.70454 0.8681 0.68568 0.0
H254 H 0.69471 0.83365 0.63486 0.0
H255 H 0.69812 0.82156 0.65173 0.0
H256 H 0.71327 0.82759 0.63967 0.0
H257 H 0.71131 0.86431 0.69625 0.0
H258 H 0.69239 0.86581 0.6876 0.0
H259 H 0.70724 0.88032 0.68384 0.0
C260 C 0.66785 0.83536 0.33676 0.0
N261 N 0.68151 0.84276 0.34052 0.0
N262 N 0.6613 0.84136 0.3235 0.0
C263 C 0.66132 0.82168 0.34542 0.0
C264 C 0.67147 0.85265 0.31929 0.0
N265 N 0.68382 0.85341 0.32957 0.0
C266 C 0.66868 0.8638 0.30605 0.0
H267 H 0.65383 0.81438 0.33752 0.0
H268 H 0.65451 0.82517 0.35446 0.0
H269 H 0.67043 0.81525 0.35115 0.0
H270 H 0.67445 0.87496 0.30869 0.0
H271 H 0.65641 0.86485 0.30343 0.0
H272 H 0.67322 0.85997 0.29561 0.0
C273 C 0.70868 0.16113 0.33946 0.0
N274 N 0.70604 0.17186 0.34904 0.0
N275 N 0.72042 0.15351 0.34546 0.0
C276 C 0.69907 0.15727 0.32484 0.0
C277 C 0.7248 0.15998 0.35907 0.0
N278 N 0.71601 0.171 0.36131 0.0
C279 C 0.73801 0.15586 0.36994 0.0
H280 H 0.69941 0.14536 0.32233 0.0
H281 H 0.70345 0.16428 0.31503 0.0
H282 H 0.68716 0.1595 0.32574 0.0
H283 H 0.74313 0.16553 0.37659 0.0
H284 H 0.74682 0.15161 0.36353 0.0
H285 H 0.73399 0.14694 0.37832 0.0
C286 C 0.36561 0.17944 0.3571 0.0
N287 N 0.37353 0.17399 0.34639 0.0
N288 N 0.37382 0.19101 0.36418 0.0
C289 C 0.3503 0.17286 0.36132 0.0
C290 C 0.387 0.19238 0.35734 0.0
N291 N 0.38688 0.18195 0.34665 0.0
C292 C 0.39942 0.20474 0.36011 0.0
H293 H 0.34149 0.17826 0.35379 0.0
H294 H 0.34871 0.17481 0.37355 0.0
H295 H 0.34877 0.16068 0.3595 0.0
H296 H 0.40793 0.20084 0.36914 0.0
H297 H 0.39493 0.21479 0.36414 0.0
H298 H 0.40516 0.20784 0.34941 0.0
C299 C 0.3428 0.85719 0.36529 0.0
N300 N 0.3505 0.84501 0.36889 0.0
N301 N 0.34589 0.86331 0.35119 0.0
C302 C 0.33122 0.86232 0.37493 0.0
C303 C 0.35565 0.85427 0.34626 0.0
N304 N 0.35834 0.84306 0.35693 0.0
C305 C 0.36343 0.85701 0.33155 0.0
H306 H 0.32254 0.86812 0.36761 0.0
H307 H 0.33695 0.87021 0.38343 0.0
H308 H 0.32552 0.85274 0.38138 0.0
H309 H 0.37487 0.85299 0.33294 0.0
H310 H 0.36443 0.86905 0.32799 0.0
H311 H 0.35668 0.85077 0.32222 0.0
C312 C 0.67479 0.67922 0.20416 0.0
N313 N 0.68554 0.67962 0.19394 0.0
N314 N 0.66539 0.69011 0.20052 0.0
C315 C 0.67268 0.66743 0.21693 0.0
C316 C 0.67078 0.69711 0.18765 0.0
N317 N 0.68292 0.69067 0.18354 0.0
C318 C 0.66501 0.71107 0.17993 0.0
H319 H 0.66065 0.66557 0.21947 0.0
H320 H 0.6795 0.67118 0.22756 0.0
H321 H 0.67652 0.65671 0.2138 0.0
H322 H 0.65974 0.71746 0.18825 0.0
H323 H 0.65635 0.70791 0.17042 0.0
H324 H 0.6743 0.71835 0.17495 0.0
C325 C 0.33737 0.6622 0.15287 0.0
N326 N 0.34707 0.66254 0.1658 0.0
N327 N 0.33917 0.67524 0.14442 0.0
C328 C 0.32661 0.64902 0.1482 0.0
C329 C 0.3502 0.68353 0.15271 0.0
N330 N 0.35492 0.67584 0.16574 0.0
C331 C 0.35707 0.69869 0.14753 0.0
H332 H 0.33255 0.64163 0.14145 0.0
H333 H 0.31669 0.65257 0.14082 0.0
H334 H 0.3227 0.64253 0.15855 0.0
H335 H 0.34934 0.70424 0.13882 0.0
H336 H 0.36775 0.69737 0.14229 0.0
H337 H 0.35984 0.70596 0.15747 0.0
C338 C 0.39544 0.34533 0.21161 0.0
N339 N 0.39757 0.33306 0.20397 0.0
N340 N 0.38242 0.35109 0.20603 0.0
C341 C 0.40589 0.35144 0.22479 0.0
C342 C 0.37671 0.34179 0.19473 0.0
N343 N 0.38584 0.33077 0.19354 0.0
C344 C 0.36283 0.34417 0.18403 0.0
H345 H 0.41173 0.34244 0.23133 0.0
H346 H 0.39962 0.35722 0.2328 0.0
H347 H 0.41462 0.3596 0.22004 0.0
H348 H 0.36079 0.35616 0.18288 0.0
H349 H 0.35288 0.33781 0.18884 0.0
H350 H 0.36394 0.3401 0.17239 0.0
C351 C 0.70511 0.35292 0.15528 0.0
N352 N 0.71557 0.36484 0.15454 0.0
N353 N 0.6983 0.35249 0.16865 0.0
C354 C 0.70231 0.34112 0.14345 0.0
C355 C 0.70511 0.36451 0.17609 0.0
N356 N 0.71576 0.37191 0.16761 0.0
C357 C 0.70047 0.36972 0.191 0.0
H358 H 0.69388 0.34473 0.13418 0.0
H359 H 0.69786 0.33028 0.14873 0.0
H360 H 0.71286 0.33956 0.13809 0.0
H361 H 0.70782 0.36523 0.20077 0.0
H362 H 0.68854 0.36573 0.19272 0.0
H363 H 0.70181 0.38209 0.19118 0.0
C364 C 0.686 0.36314 0.83542 0.0
N365 N 0.69959 0.37055 0.83936 0.0
N366 N 0.67916 0.36981 0.82268 0.0
C367 C 0.67899 0.34995 0.84445 0.0
C368 C 0.6891 0.38155 0.81903 0.0
N369 N 0.7015 0.38202 0.82925 0.0
C370 C 0.68641 0.3929 0.80599 0.0
H371 H 0.68771 0.34308 0.85019 0.0
H372 H 0.67096 0.34286 0.83683 0.0
H373 H 0.67267 0.35407 0.85356 0.0
H374 H 0.68077 0.40211 0.81033 0.0
H375 H 0.67895 0.38798 0.79632 0.0
H376 H 0.69726 0.39764 0.80163 0.0
C377 C 0.71999 0.66605 0.84267 0.0
N378 N 0.71797 0.67597 0.85333 0.0
N379 N 0.73155 0.65776 0.8476 0.0
C380 C 0.71032 0.66411 0.82769 0.0
C381 C 0.73643 0.663 0.86171 0.0
N382 N 0.7281 0.67399 0.86526 0.0
C383 C 0.75009 0.65821 0.87145 0.0
H384 H 0.69871 0.6672 0.8287 0.0
H385 H 0.70971 0.65242 0.82409 0.0
H386 H 0.71539 0.67156 0.81857 0.0
H387 H 0.75827 0.65408 0.86416 0.0
H388 H 0.74644 0.64905 0.87974 0.0
H389 H 0.75582 0.6676 0.87815 0.0
C390 C 0.38145 0.6845 0.83695 0.0
N391 N 0.38995 0.68046 0.82595 0.0
N392 N 0.38749 0.69752 0.84304 0.0
C393 C 0.36665 0.67635 0.84089 0.0
C394 C 0.39993 0.70129 0.83525 0.0
N395 N 0.40133 0.69101 0.82474 0.0
C396 C 0.41142 0.71426 0.83887 0.0
H397 H 0.35915 0.6841 0.84513 0.0
H398 H 0.36889 0.66766 0.85014 0.0
H399 H 0.36076 0.67076 0.83067 0.0
H400 H 0.41136 0.71737 0.85105 0.0
H401 H 0.40864 0.72401 0.83115 0.0
H402 H 0.42296 0.71157 0.83685 0.0
C403 C 0.35732 0.35993 0.86961 0.0
N404 N 0.36571 0.34839 0.87386 0.0
N405 N 0.36334 0.36848 0.85798 0.0
C406 C 0.34344 0.36308 0.87711 0.0
C407 C 0.37579 0.36175 0.85537 0.0
N408 N 0.37733 0.34961 0.86513 0.0
C409 C 0.38671 0.36718 0.8436 0.0
H410 H 0.33707 0.35258 0.88103 0.0
H411 H 0.33588 0.36952 0.86903 0.0
H412 H 0.34699 0.36975 0.8874 0.0
H413 H 0.39724 0.37235 0.84968 0.0
H414 H 0.38212 0.37561 0.83518 0.0
H415 H 0.38974 0.35762 0.83733 0.0
Cu416 Cu 0.29002 0.25321 0.04103 0.0
N417 N 0.29285 0.27103 0.02889 0.0
N418 N 0.30141 0.28615 0.00956 0.0
C419 C 0.30148 0.2725 0.01681 0.0
C420 C 0.2924 0.29361 0.01753 0.0
C421 C 0.28713 0.28426 0.02942 0.0
O422 O 0.28758 0.23756 0.02586 0.0
C423 C 0.30667 0.2641 0.06624 0.0
O424 O 0.29548 0.27265 0.06389 0.0
H425 H 0.3077 0.26362 0.01347 0.0
H426 H 0.27957 0.2869 0.03774 0.0
N427 N 0.27245 0.25144 0.05179 0.0
N428 N 0.25662 0.24324 0.0698 0.0
C429 C 0.27017 0.24213 0.06425 0.0
C430 C 0.25991 0.25872 0.04932 0.0
C431 C 0.25015 0.2537 0.06037 0.0
C432 C 0.27713 0.23998 0.0152 0.0
O433 O 0.26914 0.25132 0.01638 0.0
H434 H 0.27832 0.23462 0.06903 0.0
H435 H 0.25799 0.26711 0.04017 0.0
O436 O 0.30712 0.25365 0.05694 0.0
H437 H 0.28954 0.30492 0.01482 0.0
H438 H 0.23924 0.25766 0.06147 0.0
Cu439 Cu 0.80598 0.30902 0.99364 0.0
N440 N 0.78929 0.31503 1.00445 0.0
N441 N 0.77653 0.3247 0.02199 0.0
C442 C 0.79031 0.32295 0.01732 0.0
C443 C 0.76653 0.31764 0.01157 0.0
C444 C 0.77443 0.31168 1.00079 0.0
O445 O 0.81342 0.2977 0.01317 0.0
C446 C 0.79628 0.33336 0.97247 0.0
O447 O 0.80047 0.3418 0.98425 0.0
H448 H 0.80091 0.32737 0.02308 0.0
H449 H 0.76971 0.3052 0.99109 0.0
N450 N 0.82277 0.30309 0.98298 0.0
N451 N 0.83616 0.29233 0.96682 0.0
C452 C 0.82219 0.29394 0.97109 0.0
C453 C 0.83749 0.3075 0.98626 0.0
C454 C 0.84577 0.30086 0.97635 0.0
C455 C 0.82264 0.30355 0.02363 0.0
O456 O 0.82822 0.3175 0.02172 0.0
H457 H 0.81179 0.28849 0.96582 0.0
H458 H 0.84188 0.31507 0.99517 0.0
O459 O 0.7979 0.31948 0.9738 0.0
H460 H 0.75437 0.3165 0.0119 0.0
H461 H 0.85793 0.30241 0.97602 0.0
Cu462 Cu 0.78856 0.77075 0.02571 0.0
N463 N 0.7915 0.78821 0.01296 0.0
N464 N 0.7998 0.80312 0.99334 0.0
C465 C 0.80012 0.78958 1.00086 0.0
C466 C 0.79059 0.81053 1.00112 0.0
C467 C 0.78549 0.80133 0.01316 0.0
O468 O 0.78488 0.75451 0.01123 0.0
C469 C 0.80962 0.78241 0.04796 0.0
O470 O 0.80176 0.79382 0.04405 0.0
H471 H 0.8062 0.78062 0.99746 0.0
H472 H 0.77796 0.80404 0.02147 0.0
N473 N 0.77156 0.77026 0.03712 0.0
N474 N 0.75564 0.76281 0.05523 0.0
C475 C 0.76941 0.76177 0.05017 0.0
C476 C 0.75874 0.77697 0.03384 0.0
C477 C 0.74893 0.77241 0.04495 0.0
C478 C 0.77436 0.75676 1.00062 0.0
O479 O 0.76704 0.76868 1.00115 0.0
H480 H 0.77762 0.75458 0.05554 0.0
H481 H 0.75653 0.78441 0.02388 0.0
O482 O 0.80608 0.77023 0.04106 0.0
H483 H 0.78779 0.82186 0.99842 0.0
H484 H 0.73768 0.77587 0.04538 0.0
Cu485 Cu 0.30467 0.78469 0.9927 0.0
N486 N 0.30827 0.79782 0.00885 0.0
N487 N 0.30355 0.80993 0.0295 0.0
C488 C 0.29758 0.80173 0.01748 0.0
C489 C 0.31863 0.81122 0.02832 0.0
C490 C 0.32151 0.8037 0.01561 0.0
O491 O 0.30081 0.76496 1.00238 0.0
C492 C 0.28853 0.80404 0.97383 0.0
O493 O 0.3006 0.81293 0.97802 0.0
H494 H 0.28572 0.79795 0.01539 0.0
H495 H 0.3325 0.80215 0.01193 0.0
N496 N 0.321 0.78508 0.98048 0.0
N497 N 0.33531 0.77848 0.96253 0.0
C498 C 0.32351 0.77434 0.97104 0.0
C499 C 0.33154 0.79644 0.97783 0.0
C500 C 0.3404 0.7924 0.96679 0.0
C501 C 0.31213 0.75852 1.00845 0.0
O502 O 0.32579 0.76502 1.00692 0.0
H503 H 0.31642 0.76392 0.97002 0.0
H504 H 0.33244 0.80709 0.98319 0.0
O505 O 0.28754 0.79062 0.97929 0.0
H506 H 0.32704 0.81692 0.03623 0.0
H507 H 0.34974 0.79924 0.96214 0.0
Cu508 Cu 0.01675 0.25181 0.30078 0.0
N509 N 0.03071 0.23739 0.3032 0.0
N510 N 0.04986 0.2247 0.29767 0.0
C511 C 0.0407 0.23545 0.29286 0.0
C512 C 0.04539 0.21966 0.31163 0.0
C513 C 0.03356 0.22747 0.31499 0.0
O514 O 0.02829 0.27007 0.29434 0.0
C515 C 0.99386 0.23275 0.28728 0.0
O516 O 0.99781 0.22443 0.29959 0.0
H517 H 0.04143 0.24209 0.28215 0.0
H518 H 0.02753 0.22606 0.32531 0.0
N519 N 1.00748 0.25464 0.31886 0.0
N520 N 0.99059 0.26217 0.33379 0.0
C521 C 0.99373 0.25964 0.31924 0.0
C522 C 0.01326 0.25387 0.33367 0.0
C523 C 1.00289 0.25845 0.3429 0.0
C524 C 0.02705 0.28296 0.29912 0.0
O525 O 0.01604 0.28487 0.3077 0.0
H526 H 0.98655 0.26211 0.30889 0.0
H527 H 0.02444 0.25068 0.33746 0.0
O528 O 1.00098 0.24553 0.28518 0.0
H529 H 0.05023 0.21087 0.31887 0.0
H530 H 1.00446 0.25922 0.35533 0.0
Cu531 Cu 0.79948 0.01189 0.26639 0.0
N532 N 0.80327 0.02492 0.24822 0.0
N533 N 0.81049 0.04497 0.23355 0.0
C534 C 0.81031 0.03881 0.24807 0.0
C535 C 0.80334 0.03445 0.22428 0.0
C536 C 0.79886 0.02209 0.23338 0.0
O537 O 0.78921 0.02838 0.27551 0.0
C538 C 0.82119 0.99009 0.26201 0.0
O539 O 0.8288 0.99619 0.27409 0.0
H540 H 0.81517 0.04426 0.25839 0.0
H541 H 0.79265 0.01186 0.22952 0.0
N542 N 0.79571 0.99886 0.28456 0.0
N543 N 0.78603 0.98004 0.29945 0.0
C544 C 0.78551 0.9869 0.28521 0.0
C545 C 0.803 0.99967 0.29875 0.0
C546 C 0.79703 0.98807 0.30799 0.0
C547 C 0.79595 0.0374 0.28523 0.0
O548 O 0.81023 0.0362 0.28982 0.0
H549 H 0.77814 0.98317 0.27533 0.0
H550 H 0.81208 1.00801 0.30209 0.0
O551 O 0.80877 0.99507 0.25673 0.0
H552 H 0.80112 0.03574 0.21185 0.0
H553 H 0.80047 0.98584 0.32009 0.0
Cu554 Cu 0.05158 0.75079 0.26728 0.0
N555 N 0.04092 0.76785 0.26654 0.0
N556 N 0.02253 0.78266 0.25908 0.0
C557 C 0.02774 0.7692 0.25793 0.0
C558 C 0.03291 0.7901 0.26884 0.0
C559 C 0.04421 0.78093 0.27345 0.0
O560 O 0.03588 0.73404 0.26807 0.0
C561 C 0.07345 0.76424 0.2502 0.0
O562 O 0.07408 0.77256 0.26226 0.0
H563 H 0.02224 0.76049 0.25072 0.0
H564 H 0.05417 0.78369 0.28116 0.0
N565 N 0.06522 0.74903 0.28495 0.0
N566 N 0.08468 0.74104 0.30035 0.0
C567 C 0.07676 0.74026 0.28633 0.0
C568 C 0.06583 0.75564 0.29855 0.0
C569 C 0.07779 0.75075 0.30804 0.0
C570 C 0.02826 0.73448 0.27978 0.0
O571 O 0.03243 0.74497 0.28963 0.0
H572 H 0.07932 0.73357 0.27709 0.0
H573 H 0.05804 0.76334 0.30144 0.0
O574 O 0.06376 0.75285 0.2495 0.0
H575 H 0.03234 0.80131 0.27251 0.0
H576 H 0.08094 0.75394 0.31981 0.0
Cu577 Cu 0.29235 0.01517 0.24254 0.0
N578 N 0.30964 0.02871 0.24491 0.0
N579 N 0.32499 0.04782 0.25434 0.0
C580 C 0.31216 0.03883 0.25595 0.0
C581 C 0.33085 0.04313 0.24186 0.0
C582 C 0.3214 0.03127 0.23612 0.0
O583 O 0.27533 0.02741 0.23953 0.0
C584 C 0.30477 0.99317 0.26056 0.0
O585 O 0.31451 0.99666 0.25015 0.0
H586 H 0.3045 0.03986 0.26473 0.0
H587 H 0.32301 0.02505 0.22619 0.0
N588 N 0.29173 1.00417 0.22474 0.0
N589 N 0.28589 0.98509 0.20915 0.0
C590 C 0.28503 0.99019 0.22335 0.0
C591 C 0.29686 0.00815 0.21084 0.0
C592 C 0.29339 0.99633 0.20124 0.0
C593 C 0.26994 0.03475 0.24955 0.0
O594 O 0.27434 0.03265 0.26427 0.0
H595 H 0.27963 0.98387 0.23263 0.0
H596 H 0.30241 0.01896 0.20777 0.0
O597 O 0.29315 1.00051 0.26005 0.0
H598 H 0.34123 0.04789 0.23725 0.0
H599 H 0.29581 0.99617 0.18926 0.0
Cu600 Cu 0.01563 0.77331 0.77849 0.0
N601 N 0.02926 0.75855 0.78044 0.0
N602 N 0.04821 0.74576 0.77457 0.0
C603 C 0.04064 0.758 0.7713 0.0
C604 C 0.04129 0.73832 0.78631 0.0
C605 C 0.02965 0.74626 0.78993 0.0
O606 O 0.02774 0.79153 0.77299 0.0
C607 C 0.99185 0.7553 0.7657 0.0
O608 O 0.99517 0.74777 0.77874 0.0
H609 H 0.04302 0.76624 0.76209 0.0
H610 H 0.02189 0.74317 0.7987 0.0
N611 N 1.00643 0.77574 0.79672 0.0
N612 N 0.98982 0.78309 0.81209 0.0
C613 C 0.9931 0.78151 0.79737 0.0
C614 C 0.01179 0.77344 0.81153 0.0
C615 C 1.00159 0.77794 0.82102 0.0
C616 C 0.0259 0.8045 0.77717 0.0
O617 O 0.0137 0.80663 0.78387 0.0
H618 H 0.98629 0.78509 0.78716 0.0
H619 H 0.02252 0.76912 0.81516 0.0
O620 O 0.9997 0.76752 0.76275 0.0
H621 H 0.04442 0.7279 0.79189 0.0
H622 H 1.00289 0.77758 0.83354 0.0
Cu623 Cu 0.32336 0.01202 0.79489 0.0
N624 N 0.34049 0.02561 0.7942 0.0
N625 N 0.35419 0.0463 0.78651 0.0
C626 C 0.34043 0.03863 0.78592 0.0
C627 C 0.36337 0.03772 0.79551 0.0
C628 C 0.35482 0.02495 0.80036 0.0
O629 O 0.30629 0.02412 0.79546 0.0
C630 C 0.33421 0.99097 0.77853 0.0
O631 O 0.34437 0.99276 0.79035 0.0
H632 H 0.3305 0.04219 0.77918 0.0
H633 H 0.35883 0.01578 0.80762 0.0
N634 N 0.32356 0.99949 0.81269 0.0
N635 N 0.31516 0.98038 0.82803 0.0
C636 C 0.31434 0.98685 0.81368 0.0
C637 C 0.33065 1.00111 0.82693 0.0
C638 C 0.32538 0.98933 0.8365 0.0
C639 C 0.30772 0.03244 0.80706 0.0
O640 O 0.31984 0.03182 0.81675 0.0
H641 H 0.30653 0.98293 0.80418 0.0
H642 H 0.33861 0.01045 0.83026 0.0
O643 O 0.32298 0.99887 0.77757 0.0
H644 H 0.37535 0.04046 0.79835 0.0
H645 H 0.32852 0.98766 0.84875 0.0
Cu646 Cu 0.06699 0.26848 0.77667 0.0
N647 N 0.05535 0.28466 0.77709 0.0
N648 N 0.03621 0.29881 0.77061 0.0
C649 C 0.04164 0.28546 0.76935 0.0
C650 C 0.04698 0.3067 0.77955 0.0
C651 C 0.05876 0.29794 0.78354 0.0
O652 O 0.05195 0.25149 0.77286 0.0
C653 C 0.0919 0.28282 0.76374 0.0
O654 O 0.09317 0.28867 0.77738 0.0
H655 H 0.03602 0.27658 0.76245 0.0
H656 H 0.06919 0.30115 0.79039 0.0
N657 N 0.07881 0.26532 0.79541 0.0
N658 N 0.09665 0.2565 0.81235 0.0
C659 C 0.0907 0.25702 0.79747 0.0
C660 C 0.07719 0.27032 0.80944 0.0
C661 C 0.08814 0.26488 0.81991 0.0
C662 C 0.04848 0.24194 0.78365 0.0
O663 O 0.05717 0.24174 0.79665 0.0
H664 H 0.09465 0.25119 0.78826 0.0
H665 H 0.06856 0.2773 0.8119 0.0
O666 O 0.08078 0.27319 0.76045 0.0
H667 H 0.04644 0.31802 0.78293 0.0
H668 H 0.08973 0.267 0.83211 0.0
Cu669 Cu 0.80465 0.03771 0.72918 0.0
N670 N 0.82205 0.05119 0.73047 0.0
N671 N 0.83827 0.07028 0.73853 0.0
C672 C 0.82555 0.06147 0.74124 0.0
C673 C 0.843 0.06529 0.72557 0.0
C674 C 0.83301 0.05348 0.72066 0.0
O675 O 0.78765 0.04993 0.72544 0.0
C676 C 0.8176 0.01851 0.75121 0.0
O677 O 0.82925 0.02331 0.74346 0.0
H678 H 0.81864 0.06276 0.75063 0.0
H679 H 0.83363 0.04714 0.71055 0.0
N680 N 0.804 0.02585 0.71208 0.0
N681 N 0.79795 1.00615 0.69731 0.0
C682 C 0.79881 0.0113 0.71173 0.0
C683 C 0.8065 0.03011 0.69738 0.0
C684 C 0.80285 0.01798 0.68826 0.0
C685 C 0.78281 0.05822 0.73498 0.0
O686 O 0.78799 0.05742 0.7496 0.0
H687 H 0.79498 1.00487 0.72176 0.0
H688 H 0.81016 0.04137 0.69347 0.0
O689 O 0.80498 0.02388 0.74741 0.0
H690 H 0.85295 0.06984 0.72003 0.0
H691 H 0.80348 0.01801 0.67587 0.0
Cu692 Cu 0.29575 0.74357 0.52881 0.0
N693 N 0.31285 0.74407 0.5431 0.0
N694 N 0.32851 0.75186 0.56329 0.0
C695 C 0.31475 0.75259 0.55555 0.0
C696 C 0.33554 0.74244 0.55539 0.0
C697 C 0.32584 0.73762 0.54298 0.0
O698 O 0.27854 0.74393 0.5414 0.0
C699 C 0.31021 0.75815 0.5052 0.0
O700 O 0.31778 0.74643 0.50855 0.0
H701 H 0.30637 0.75964 0.55853 0.0
H702 H 0.32827 0.73023 0.53429 0.0
N703 N 0.29269 0.72624 0.51734 0.0
N704 N 0.28403 0.71163 0.49776 0.0
C705 C 0.28371 0.725 0.50406 0.0
C706 C 0.29895 0.71321 0.51959 0.0
C707 C 0.29363 0.70418 0.50755 0.0
C708 C 0.27551 0.73185 0.5494 0.0
O709 O 0.28343 0.72053 0.54794 0.0
H710 H 0.27738 0.73395 0.49893 0.0
H711 H 0.30685 0.71047 0.52927 0.0
O712 O 0.29925 0.75994 0.51328 0.0
H713 H 0.3469 0.73932 0.5583 0.0
H714 H 0.29657 0.69297 0.50621 0.0
Cu715 Cu 0.80383 0.79863 0.49249 0.0
N716 N 0.8197 0.79808 0.47989 0.0
N717 N 0.83365 0.78962 0.46264 0.0
C718 C 0.82232 0.78627 0.47195 0.0
C719 C 0.8383 0.80414 0.46479 0.0
C720 C 0.82967 0.80932 0.47542 0.0
O721 O 0.78606 0.80248 0.47896 0.0
C722 C 0.81271 0.77421 0.51052 0.0
O723 O 0.82609 0.78101 0.50824 0.0
H724 H 0.81563 0.77561 0.47256 0.0
H725 H 0.8303 0.82061 0.47924 0.0
N726 N 0.80763 0.81343 0.50696 0.0
N727 N 0.80374 0.82701 0.52684 0.0
C728 C 0.79737 0.81767 0.51592 0.0
C729 C 0.82098 0.82029 0.51236 0.0
C730 C 0.81861 0.82872 0.52459 0.0
C731 C 0.78636 0.81494 0.47133 0.0
O732 O 0.79814 0.82473 0.47372 0.0
H733 H 0.78561 0.81327 0.51499 0.0
H734 H 0.83177 0.81875 0.50819 0.0
O735 O 0.80098 0.7798 0.50419 0.0
H736 H 0.84718 0.8106 0.45898 0.0
H737 H 0.82724 0.83528 0.53151 0.0
Cu738 Cu 0.80354 0.25594 0.53241 0.0
N739 N 0.80063 0.23924 0.52015 0.0
N740 N 0.79083 0.22538 0.50039 0.0
C741 C 0.79083 0.23839 0.50742 0.0
C742 C 0.80106 0.2177 0.50908 0.0
C743 C 0.80703 0.22624 0.52132 0.0
O744 O 0.80483 0.27298 0.51728 0.0
C745 C 0.78857 0.24355 0.55683 0.0
O746 O 0.79992 0.2353 0.55663 0.0
H747 H 0.78398 0.24731 0.50328 0.0
H748 H 0.81533 0.22312 0.53045 0.0
N749 N 0.82163 0.25717 0.54546 0.0
N750 N 0.83824 0.26512 0.5649 0.0
C751 C 0.82447 0.26638 0.55732 0.0
C752 C 0.83404 0.24976 0.54549 0.0
C753 C 0.84429 0.25463 0.55745 0.0
C754 C 0.81687 0.27407 0.51015 0.0
O755 O 0.82694 0.26452 0.51401 0.0
H756 H 0.81641 0.27373 0.5604 0.0
H757 H 0.83567 0.24156 0.5373 0.0
O758 O 0.78718 0.25404 0.54641 0.0
H759 H 0.80385 0.2066 0.50691 0.0
H760 H 0.85542 0.2509 0.56022 0.0
Cu761 Cu 0.31111 0.29835 0.50987 0.0
N762 N 0.31391 0.31523 0.52181 0.0
N763 N 0.3098 0.33036 0.5403 0.0
C764 C 0.30682 0.31663 0.53464 0.0
C765 C 0.31918 0.33794 0.53063 0.0
C766 C 0.32175 0.32855 0.51926 0.0
O767 O 0.30834 0.28112 0.52403 0.0
C768 C 0.29585 0.31124 0.48479 0.0
O769 O 0.30873 0.31969 0.48557 0.0
H770 H 0.29913 0.30787 0.53937 0.0
H771 H 0.32853 0.33134 0.50961 0.0
N772 N 0.32759 0.2958 0.49871 0.0
N773 N 0.34061 0.28626 0.48134 0.0
C774 C 0.32696 0.28675 0.48678 0.0
C775 C 0.34215 0.30131 0.50093 0.0
C776 C 0.35024 0.29539 0.49024 0.0
C777 C 0.31953 0.27957 0.53395 0.0
O778 O 0.33145 0.28933 0.5335 0.0
H779 H 0.31671 0.2803 0.4825 0.0
H780 H 0.34661 0.30885 0.50985 0.0
O781 O 0.29397 0.30058 0.49487 0.0
H782 H 0.32374 0.34946 0.53164 0.0
H783 H 0.36225 0.29763 0.48913 0.0
Cu784 Cu 0.83068 0.52518 0.7883 0.0
N785 N 0.8465 0.54032 0.7878 0.0
N786 N 0.85801 0.56215 0.77982 0.0
C787 C 0.84494 0.55328 0.77969 0.0
C788 C 0.86829 0.55445 0.78839 0.0
C789 C 0.86112 0.54098 0.7934 0.0
O790 O 0.81232 0.53565 0.78682 0.0
C791 C 0.84417 0.50452 0.77342 0.0
O792 O 0.8543 0.50793 0.7849 0.0
H793 H 0.83451 0.55583 0.77319 0.0
H794 H 0.86635 0.53218 0.8002 0.0
N795 N 0.83078 0.5135 0.80671 0.0
N796 N 0.82137 0.49588 0.82316 0.0
C797 C 0.8184 0.50501 0.81071 0.0
C798 C 0.84208 0.50969 0.81706 0.0
C799 C 0.83629 0.49869 0.82721 0.0
C800 C 0.81021 0.54209 0.7991 0.0
O801 O 0.81992 0.54078 0.81127 0.0
H802 H 0.80759 0.50486 0.80395 0.0
H803 H 0.85379 0.514 0.81682 0.0
O804 O 0.8322 0.51137 0.77191 0.0
H805 H 0.88015 0.55817 0.79065 0.0
H806 H 0.84262 0.49288 0.83648 0.0
Cu807 Cu 0.29596 0.53029 0.75287 0.0
N808 N 0.29495 0.51777 0.7707 0.0
N809 N 0.29989 0.49885 0.78763 0.0
C810 C 0.30159 0.50493 0.77324 0.0
C811 C 0.2918 0.50827 0.79435 0.0
C812 C 0.28878 0.51992 0.78389 0.0
O813 O 0.2972 0.51684 0.73628 0.0
C814 C 0.31905 0.55445 0.74746 0.0
O815 O 0.31352 0.55497 0.73293 0.0
H816 H 0.30801 0.50043 0.76486 0.0
H817 H 0.28277 0.52943 0.78584 0.0
N818 N 0.2786 0.54071 0.74944 0.0
N819 N 0.26317 0.55856 0.74224 0.0
C820 C 0.27754 0.5547 0.74326 0.0
C821 C 0.26444 0.53556 0.75243 0.0
C822 C 0.25493 0.54652 0.74804 0.0
C823 C 0.28916 0.51702 0.72342 0.0
O824 O 0.28112 0.52834 0.7196 0.0
H825 H 0.2871 0.56194 0.7397 0.0
H826 H 0.26126 0.52454 0.75734 0.0
O827 O 0.31355 0.54446 0.75683 0.0
H828 H 0.28835 0.50691 0.80602 0.0
H829 H 0.24282 0.54555 0.7488 0.0
Cu830 Cu 0.31979 0.5 0.28354 0.0
N831 N 0.32167 0.48856 0.30204 0.0
N832 N 0.31525 0.46971 0.31864 0.0
C833 C 0.31369 0.47526 0.30393 0.0
C834 C 0.32466 0.47993 0.32638 0.0
C835 C 0.32873 0.49154 0.31605 0.0
O836 O 0.32081 0.48593 0.26731 0.0
C837 C 0.29955 0.51702 0.29494 0.0
O838 O 0.30995 0.51654 0.30659 0.0
H839 H 0.30611 0.47021 0.29484 0.0
H840 H 0.33566 0.50174 0.31875 0.0
N841 N 0.33507 0.51549 0.28169 0.0
N842 N 0.3462 0.53671 0.27175 0.0
C843 C 0.33392 0.52671 0.27097 0.0
C844 C 0.34857 0.51842 0.28969 0.0
C845 C 0.35548 0.53157 0.28357 0.0
C846 C 0.33383 0.48143 0.2663 0.0
O847 O 0.34532 0.48724 0.27524 0.0
H848 H 0.32403 0.52759 0.26293 0.0
H849 H 0.35313 0.51148 0.29917 0.0
O850 O 0.30109 0.50993 0.28291 0.0
H851 H 0.32797 0.47928 0.33868 0.0
H852 H 0.36651 0.53681 0.28741 0.0
Cu853 Cu 0.79304 0.52695 0.2432 0.0
N854 N 0.80797 0.51368 0.24271 0.0
N855 N 0.82053 0.49393 0.25083 0.0
C856 C 0.80854 0.50159 0.2525 0.0
C857 C 0.82784 0.50152 0.23945 0.0
C858 C 0.81999 0.51367 0.23437 0.0
O859 O 0.77465 0.51326 0.24304 0.0
C860 C 0.81185 0.54389 0.2637 0.0
O861 O 0.82157 0.53992 0.25455 0.0
H862 H 0.80048 0.49875 0.26105 0.0
H863 H 0.82303 0.52204 0.2255 0.0
N864 N 0.79156 0.54111 0.22661 0.0
N865 N 0.78305 0.56127 0.21362 0.0
C866 C 0.78472 0.55373 0.22744 0.0
C867 C 0.79451 0.54064 0.21172 0.0
C868 C 0.78924 0.55306 0.20367 0.0
C869 C 0.76486 0.51254 0.23141 0.0
O870 O 0.76437 0.52395 0.22138 0.0
H871 H 0.78022 0.5568 0.23788 0.0
H872 H 0.79948 0.53161 0.20693 0.0
O873 O 0.79799 0.53886 0.26146 0.0
H874 H 0.83811 0.49853 0.23512 0.0
H875 H 0.78961 0.55562 0.19139 0.0
Cu876 Cu 0.52475 0.26347 0.78887 0.0
N877 N 0.51385 0.26344 0.80649 0.0
N878 N 0.4964 0.26943 0.82169 0.0
C879 C 0.50327 0.27277 0.80847 0.0
C880 C 0.50298 0.25744 0.82821 0.0
C881 C 0.51361 0.25374 0.8188 0.0
O882 O 0.51046 0.25591 0.77242 0.0
C883 C 0.53935 0.29147 0.79508 0.0
O884 O 0.5374 0.2866 0.80935 0.0
H885 H 0.50037 0.28155 0.80005 0.0
H886 H 0.52035 0.24435 0.82063 0.0
N887 N 0.54104 0.25153 0.79103 0.0
N888 N 0.56114 0.24098 0.78418 0.0
C889 C 0.54883 0.24817 0.77923 0.0
C890 C 0.54874 0.24639 0.80393 0.0
C891 C 0.56104 0.23978 0.79974 0.0
C892 C 0.5054 0.24226 0.77402 0.0
O893 O 0.51066 0.23428 0.78606 0.0
H894 H 0.54569 0.25131 0.76727 0.0
H895 H 0.54608 0.24797 0.81559 0.0
O896 O 0.53374 0.28345 0.78399 0.0
H897 H 0.50027 0.2516 0.83896 0.0
H898 H 0.56963 0.23511 0.80762 0.0
Cu899 Cu 0.55786 0.76274 0.76625 0.0
N900 N 0.56983 0.75999 0.78492 0.0
N901 N 0.58877 0.75282 0.80151 0.0
C902 C 0.58248 0.75276 0.78676 0.0
C903 C 0.57972 0.76044 0.80923 0.0
C904 C 0.56803 0.76479 0.79899 0.0
O905 O 0.57151 0.76779 0.75002 0.0
C906 C 0.54262 0.73352 0.77112 0.0
O907 O 0.55367 0.73128 0.78176 0.0
H908 H 0.58705 0.74768 0.77739 0.0
H909 H 0.55884 0.77098 0.80164 0.0
N910 N 0.5456 0.77846 0.76675 0.0
N911 N 0.52589 0.79197 0.76048 0.0
C912 C 0.53225 0.77929 0.75828 0.0
C913 C 0.54782 0.79105 0.77463 0.0
C914 C 0.5357 0.79938 0.77081 0.0
C915 C 0.58079 0.7793 0.7523 0.0
O916 O 0.58039 0.78647 0.76502 0.0
H917 H 0.52733 0.77064 0.75071 0.0
H918 H 0.55763 0.79405 0.78247 0.0
O919 O 0.54345 0.74538 0.76244 0.0
H920 H 0.5813 0.76251 0.82145 0.0
H921 H 0.53443 0.81021 0.77511 0.0
Cu922 Cu 0.50206 0.74871 0.28178 0.0
N923 N 0.49022 0.74889 0.29871 0.0
N924 N 0.47283 0.75583 0.31341 0.0
C925 C 0.48129 0.75962 0.30136 0.0
C926 C 0.4766 0.74214 0.3185 0.0
C927 C 0.48726 0.73788 0.30941 0.0
O928 O 0.48855 0.74168 0.26451 0.0
C929 C 0.51754 0.77589 0.28888 0.0
O930 O 0.51548 0.77051 0.30297 0.0
H931 H 0.48058 0.76977 0.29417 0.0
H932 H 0.49211 0.72729 0.31024 0.0
N933 N 0.51811 0.73646 0.28489 0.0
N934 N 0.53914 0.72633 0.27986 0.0
C935 C 0.5274 0.73396 0.27401 0.0
C936 C 0.52416 0.73021 0.29812 0.0
C937 C 0.53706 0.72392 0.29506 0.0
C938 C 0.48343 0.728 0.26515 0.0
O939 O 0.48815 0.71939 0.27692 0.0
H940 H 0.52593 0.73833 0.26218 0.0
H941 H 0.51987 0.73068 0.30932 0.0
O942 O 0.51161 0.7685 0.27745 0.0
H943 H 0.47188 0.73556 0.328 0.0
H944 H 0.54444 0.71822 0.30348 0.0
Cu945 Cu 0.55125 0.23992 0.25818 0.0
N946 N 0.53764 0.22283 0.25825 0.0
N947 N 0.51707 0.20826 0.26439 0.0
C948 C 0.52486 0.22183 0.26551 0.0
C949 C 0.52529 0.20041 0.25594 0.0
C950 C 0.53801 0.20943 0.2522 0.0
O951 O 0.53847 0.25652 0.2587 0.0
C952 C 0.57518 0.22726 0.27404 0.0
O953 O 0.5724 0.21922 0.26175 0.0
H954 H 0.52136 0.23101 0.27146 0.0
H955 H 0.54695 0.20634 0.24572 0.0
N956 N 0.56164 0.24222 0.24029 0.0
N957 N 0.57838 0.2522 0.22405 0.0
C958 C 0.57335 0.2525 0.23824 0.0
C959 C 0.55915 0.23503 0.22699 0.0
C960 C 0.56947 0.24116 0.21694 0.0
C961 C 0.53271 0.26191 0.24584 0.0
O962 O 0.53679 0.25733 0.23287 0.0
H963 H 0.57802 0.26005 0.24708 0.0
H964 H 0.55024 0.22624 0.22461 0.0
O965 O 0.56675 0.23771 0.27552 0.0
H966 H 0.52252 0.1889 0.25296 0.0
H967 H 0.57004 0.23799 0.20518 0.0
H968 H 0.21387 0.19434 0.20271 0.0
H969 H 0.22703 0.2042 0.18006 0.0
H970 H 0.19718 0.17485 0.151 0.0
H971 H 0.18414 0.16498 0.1738 0.0
H972 H 0.22842 0.17805 0.1434 0.0
H973 H 0.20531 0.23257 0.14819 0.0
H974 H 0.21573 0.22589 0.16541 0.0
H975 H 0.1983 0.21576 0.15851 0.0
C976 C 0.21046 0.18977 0.19152 0.0
C977 C 0.19812 0.17891 0.18988 0.0
C978 C 0.21784 0.19547 0.17859 0.0
C979 C 0.21293 0.19046 0.16377 0.0
C980 C 0.20115 0.17893 0.16229 0.0
H981 H 0.22702 0.23842 0.0758 0.0
H982 H 0.2167 0.22513 0.09832 0.0
C983 C 0.19376 0.17324 0.17527 0.0
C984 C 0.21937 0.19794 0.14977 0.0
H985 H 0.22262 0.23143 0.12926 0.0
C986 C 0.22717 0.18972 0.1403 0.0
C987 C 0.21753 0.21312 0.14558 0.0
C988 C 0.20866 0.22236 0.15484 0.0
C989 C 0.2334 0.19634 0.12694 0.0
C990 C 0.2319 0.21163 0.12298 0.0
C991 C 0.22389 0.21976 0.13233 0.0
C992 C 0.23832 0.2194 0.10908 0.0
C993 C 0.24128 0.18683 0.11699 0.0
C994 C 0.25396 0.22078 0.10763 0.0
C995 C 0.25995 0.2285 0.09476 0.0
C996 C 0.25044 0.2351 0.08304 0.0
C997 C 0.23477 0.23369 0.08459 0.0
C998 C 0.22881 0.22599 0.09746 0.0
H999 H 0.23818 0.17472 0.11934 0.0
H1000 H 0.23848 0.18956 0.10451 0.0
H1001 H 0.25369 0.18903 0.1195 0.0
H1002 H 0.2616 0.21611 0.11659 0.0
H1003 H 0.27208 0.22953 0.0942 0.0
H1004 H 0.85407 0.20573 0.13013 0.0
H1005 H 0.84884 0.22253 0.10747 0.0
H1006 H 0.83853 0.25618 0.13746 0.0
H1007 H 0.84353 0.23922 0.16009 0.0
H1008 H 0.81762 0.25188 0.11104 0.0
H1009 H 0.87714 0.25987 0.09584 0.0
H1010 H 0.86969 0.24068 0.09798 0.0
H1011 H 0.87193 0.25218 0.11446 0.0
C1012 C 0.85049 0.21665 0.13177 0.0
C1013 C 0.84917 0.22129 0.14671 0.0
C1014 C 0.84767 0.22626 0.11892 0.0
C1015 C 0.84356 0.24066 0.12086 0.0
C1016 C 0.8418 0.24515 0.13577 0.0
H1017 H 0.84178 0.31223 0.04868 0.0
H1018 H 0.84691 0.2978 0.07303 0.0
C1019 C 0.84465 0.23553 0.14862 0.0
C1020 C 0.84107 0.25103 0.10731 0.0
H1021 H 0.85857 0.26907 0.07729 0.0
C1022 C 0.82658 0.25573 0.1037 0.0
C1023 C 0.85287 0.2562 0.09795 0.0
C1024 C 0.86883 0.25211 0.10179 0.0
C1025 C 0.82343 0.26507 0.09061 0.0
C1026 C 0.83505 0.26966 0.08085 0.0
C1027 C 0.84967 0.2654 0.08476 0.0
C1028 C 0.83209 0.27839 0.0662 0.0
C1029 C 0.8077 0.26995 0.08731 0.0
C1030 C 0.8223 0.2721 0.05427 0.0
C1031 C 0.8194 0.28024 0.0404 0.0
C1032 C 0.82628 0.29483 0.03817 0.0
C1033 C 0.83629 0.30103 0.05006 0.0
C1034 C 0.83922 0.29283 0.06396 0.0
H1035 H 0.80134 0.26879 0.09781 0.0
H1036 H 0.80808 0.28174 0.0828 0.0
H1037 H 0.80138 0.26286 0.07839 0.0
H1038 H 0.81692 0.26086 0.0557 0.0
H1039 H 0.81167 0.2751 0.03147 0.0
H1040 H 0.87944 0.85234 0.15206 0.0
H1041 H 0.87187 0.83641 0.13018 0.0
H1042 H 0.86623 0.79809 0.16184 0.0
H1043 H 0.87334 0.81428 0.18379 0.0
H1044 H 0.88187 0.81155 0.11895 0.0
H1045 H 0.82442 0.79805 0.13924 0.0
H1046 H 0.83771 0.81234 0.14768 0.0
H1047 H 0.83988 0.79296 0.15253 0.0
C1048 C 0.87673 0.84049 0.15428 0.0
C1049 C 0.87676 0.83454 0.16955 0.0
C1050 C 0.87245 0.83137 0.1418 0.0
C1051 C 0.86812 0.81608 0.14433 0.0
C1052 C 0.86916 0.80991 0.15958 0.0
H1053 H 0.81782 0.76169 0.07097 0.0
H1054 H 0.83426 0.76681 0.09482 0.0
C1055 C 0.8734 0.81909 0.17211 0.0
C1056 C 0.86169 0.80704 0.13098 0.0
H1057 H 0.82868 0.78921 0.11528 0.0
C1058 C 0.8703 0.80648 0.11826 0.0
C1059 C 0.84659 0.80035 0.13002 0.0
C1060 C 0.83653 0.801 0.14301 0.0
C1061 C 0.86408 0.79996 0.10447 0.0
C1062 C 0.84879 0.79395 0.10327 0.0
C1063 C 0.84043 0.79375 0.11624 0.0
C1064 C 0.84064 0.7899 0.08813 0.0
C1065 C 0.87382 0.79993 0.09115 0.0
C1066 C 0.8389 0.80107 0.0764 0.0
C1067 C 0.8295 0.79822 0.06297 0.0
C1068 C 0.82165 0.78408 0.06084 0.0
C1069 C 0.82391 0.77261 0.0722 0.0
C1070 C 0.83322 0.77556 0.08585 0.0
H1071 H 0.88601 0.80029 0.09526 0.0
H1072 H 0.87073 0.78989 0.08425 0.0
H1073 H 0.87218 0.80998 0.08345 0.0
H1074 H 0.84424 0.81228 0.07797 0.0
H1075 H 0.82791 0.8073 0.05446 0.0
H1076 H 0.24291 0.83524 0.15435 0.0
H1077 H 0.26013 0.8342 0.13394 0.0
H1078 H 0.22246 0.83622 0.09934 0.0
H1079 H 0.20541 0.83771 0.11979 0.0
H1080 H 0.25838 0.81183 0.11351 0.0
H1081 H 0.25392 0.86612 0.08109 0.0
H1082 H 0.2477 0.86258 0.10029 0.0
H1083 H 0.23589 0.85604 0.08369 0.0
C1084 C 0.23847 0.83596 0.14236 0.0
C1085 C 0.22294 0.83675 0.13855 0.0
C1086 C 0.24825 0.83522 0.13072 0.0
C1087 C 0.24264 0.83533 0.11507 0.0
C1088 C 0.22713 0.83646 0.11127 0.0
H1089 H 0.27414 0.81583 0.02787 0.0
H1090 H 0.26014 0.8226 0.04904 0.0
C1091 C 0.21739 0.83721 0.12292 0.0
C1092 C 0.25271 0.83292 0.10283 0.0
H1093 H 0.26484 0.84734 0.0684 0.0
C1094 C 0.25995 0.81969 0.10374 0.0
C1095 C 0.25468 0.84313 0.09005 0.0
C1096 C 0.24776 0.85783 0.08876 0.0
C1097 C 0.26872 0.81616 0.09201 0.0
C1098 C 0.27051 0.82626 0.07911 0.0
C1099 C 0.26344 0.8396 0.07829 0.0
C1100 C 0.27931 0.82293 0.06615 0.0
C1101 C 0.27555 0.8014 0.09326 0.0
C1102 C 0.29482 0.82116 0.06865 0.0
C1103 C 0.30284 0.81719 0.05659 0.0
C1104 C 0.29553 0.81495 0.04174 0.0
C1105 C 0.28008 0.8172 0.03919 0.0
C1106 C 0.27208 0.82118 0.05126 0.0
H1107 H 0.27026 0.79351 0.10193 0.0
H1108 H 0.2743 0.79608 0.08191 0.0
H1109 H 0.28779 0.80331 0.0969 0.0
H1110 H 0.30069 0.82269 0.08 0.0
H1111 H 0.31468 0.8155 0.05904 0.0
H1112 H 0.19746 0.87481 0.88084 0.0
H1113 H 0.21435 0.864 0.90151 0.0
H1114 H 0.21455 0.82465 0.87532 0.0
H1115 H 0.1978 0.83557 0.85463 0.0
H1116 H 0.20893 0.83503 0.9185 0.0
H1117 H 0.26012 0.83991 0.88563 0.0
H1118 H 0.2442 0.85061 0.88021 0.0
H1119 H 0.24308 0.83122 0.87601 0.0
C1120 C 0.20122 0.86389 0.87956 0.0
C1121 C 0.19643 0.85595 0.86628 0.0
C1122 C 0.21076 0.85772 0.89132 0.0
C1123 C 0.21572 0.84358 0.88987 0.0
C1124 C 0.21092 0.83562 0.87659 0.0
H1125 H 0.26235 0.78873 0.96171 0.0
H1126 H 0.24395 0.79781 0.94155 0.0
C1127 C 0.20133 0.84178 0.86486 0.0
C1128 C 0.22597 0.83717 0.90225 0.0
H1129 H 0.26204 0.82766 0.91036 0.0
C1130 C 0.22053 0.83336 0.91675 0.0
C1131 C 0.2411 0.83515 0.89989 0.0
C1132 C 0.24758 0.83952 0.88465 0.0
C1133 C 0.22988 0.82752 0.92901 0.0
C1134 C 0.24499 0.82539 0.92661 0.0
C1135 C 0.25041 0.82922 0.9121 0.0
C1136 C 0.25563 0.81991 0.9392 0.0
C1137 C 0.22369 0.82403 0.94454 0.0
C1138 C 0.26828 0.82931 0.94446 0.0
C1139 C 0.27876 0.82419 0.95592 0.0
C1140 C 0.27687 0.8095 0.96228 0.0
C1141 C 0.2641 0.80012 0.95708 0.0
C1142 C 0.25356 0.80529 0.94561 0.0
H1143 H 0.2128 0.82889 0.94528 0.0
H1144 H 0.22174 0.81174 0.94645 0.0
H1145 H 0.23191 0.82832 0.95399 0.0
H1146 H 0.27007 0.84063 0.93964 0.0
H1147 H 0.28846 0.83172 0.95963 0.0
H1148 H 0.21251 0.16635 0.89897 0.0
H1149 H 0.22068 0.17805 0.92364 0.0
H1150 H 0.2609 0.19859 0.9041 0.0
H1151 H 0.25285 0.18646 0.87969 0.0
H1152 H 0.268 0.18566 0.93168 0.0
H1153 H 0.22043 0.21994 0.9367 0.0
H1154 H 0.21444 0.20051 0.93465 0.0
H1155 H 0.22301 0.21117 0.91907 0.0
C1156 C 0.22288 0.17369 0.89992 0.0
C1157 C 0.23201 0.1757 0.8875 0.0
C1158 C 0.22758 0.18036 0.91399 0.0
C1159 C 0.24138 0.18935 0.91577 0.0
C1160 C 0.25023 0.19171 0.90309 0.0
H1161 H 0.2692 0.25122 0.98667 0.0
H1162 H 0.2615 0.23789 0.96323 0.0
C1163 C 0.2456 0.18492 0.88912 0.0
C1164 C 0.247 0.19577 0.93094 0.0
H1165 H 0.23798 0.21809 0.9587 0.0
C1166 C 0.26144 0.19278 0.93757 0.0
C1167 C 0.23851 0.20512 0.93865 0.0
C1168 C 0.22331 0.20951 0.93185 0.0
C1169 C 0.26767 0.19899 0.95154 0.0
C1170 C 0.25909 0.20817 0.95934 0.0
C1171 C 0.24456 0.21097 0.95281 0.0
C1172 C 0.26525 0.21603 0.97359 0.0
C1173 C 0.28358 0.19607 0.95748 0.0
C1174 C 0.27038 0.20828 0.9873 0.0
C1175 C 0.2751 0.21601 1.00083 0.0
C1176 C 0.27445 0.23154 1.00087 0.0
C1177 C 0.26971 0.23922 0.98705 0.0
C1178 C 0.26525 0.2316 0.97361 0.0
H1179 H 0.28989 0.192 0.94831 0.0
H1180 H 0.28995 0.20633 0.96206 0.0
H1181 H 0.28316 0.18738 0.96701 0.0
H1182 H 0.27026 0.19624 0.98771 0.0
H1183 H 0.27856 0.20981 0.01136 0.0
H1184 H 0.8993 0.21646 0.87474 0.0
H1185 H 0.88935 0.22978 0.89502 0.0
H1186 H 0.8512 0.23999 0.86351 0.0
H1187 H 0.86134 0.22691 0.84313 0.0
H1188 H 0.88248 0.26093 0.89274 0.0
H1189 H 0.83234 0.22119 0.90339 0.0
H1190 H 0.84821 0.21588 0.89405 0.0
H1191 H 0.83476 0.22704 0.88356 0.0
C1192 C 0.88883 0.22162 0.87218 0.0
C1193 C 0.88107 0.2207 0.85742 0.0
C1194 C 0.88313 0.22914 0.88375 0.0
C1195 C 0.86946 0.23574 0.88082 0.0
C1196 C 0.86164 0.23478 0.86609 0.0
H1197 H 0.81941 0.28555 0.93999 0.0
H1198 H 0.82711 0.27194 0.91869 0.0
C1199 C 0.86741 0.22733 0.85448 0.0
C1200 C 0.86371 0.24405 0.89305 0.0
H1201 H 0.83526 0.24341 0.91705 0.0
C1202 C 0.87216 0.25711 0.89807 0.0
C1203 C 0.85018 0.23911 0.89986 0.0
C1204 C 0.84084 0.22498 0.89507 0.0
C1205 C 0.86744 0.2654 0.90971 0.0
C1206 C 0.85409 0.26027 0.91684 0.0
C1207 C 0.8455 0.24731 0.91163 0.0
C1208 C 0.84911 0.26802 0.92996 0.0
C1209 C 0.87668 0.27973 0.91404 0.0
C1210 C 0.85871 0.26999 0.94354 0.0
C1211 C 0.85436 0.27777 0.95565 0.0
C1212 C 0.84021 0.28362 0.95458 0.0
C1213 C 0.83035 0.28115 0.94121 0.0
C1214 C 0.83477 0.27342 0.92901 0.0
H1215 H 0.88356 0.28437 0.90455 0.0
H1216 H 0.86934 0.28831 0.91692 0.0
H1217 H 0.88456 0.27747 0.92433 0.0
H1218 H 0.86962 0.26552 0.94476 0.0
H1219 H 0.86208 0.27916 0.96592 0.0
H1220 H 0.87709 0.86285 0.88145 0.0
H1221 H 0.8702 0.84923 0.90554 0.0
H1222 H 0.82664 0.83453 0.88299 0.0
H1223 H 0.83369 0.84793 0.85901 0.0
H1224 H 0.84681 0.85575 0.92162 0.0
H1225 H 0.83795 0.7965 0.90643 0.0
H1226 H 0.84817 0.81059 0.89481 0.0
H1227 H 0.82783 0.80841 0.89286 0.0
C1228 C 0.86628 0.85626 0.88159 0.0
C1229 C 0.85592 0.85631 0.86845 0.0
C1230 C 0.86229 0.84859 0.89534 0.0
C1231 C 0.84792 0.84073 0.89609 0.0
C1232 C 0.83788 0.84023 0.88268 0.0
H1233 H 0.79221 0.82537 0.97248 0.0
H1234 H 0.80504 0.83425 0.9496 0.0
C1235 C 0.84187 0.8479 0.869 0.0
C1236 C 0.84276 0.83442 0.91116 0.0
H1237 H 0.82628 0.8029 0.92882 0.0
C1238 C 0.84251 0.84414 0.92325 0.0
C1239 C 0.83724 0.81925 0.9134 0.0
C1240 C 0.83794 0.80805 0.90124 0.0
C1241 C 0.83638 0.83927 0.93722 0.0
C1242 C 0.83008 0.82431 0.93912 0.0
C1243 C 0.8309 0.81442 0.9273 0.0
C1244 C 0.82232 0.81883 0.95313 0.0
C1245 C 0.83669 0.85022 0.94983 0.0
C1246 C 0.82751 0.80695 0.96261 0.0
C1247 C 0.82019 0.80182 0.97578 0.0
C1248 C 0.80741 0.8084 0.97974 0.0
C1249 C 0.80215 0.82019 0.97006 0.0
C1250 C 0.80949 0.82531 0.95692 0.0
H1251 H 0.84554 0.85964 0.94843 0.0
H1252 H 0.8256 0.85493 0.94928 0.0
H1253 H 0.83878 0.84467 0.96144 0.0
H1254 H 0.83736 0.80173 0.95991 0.0
H1255 H 0.82469 0.79283 0.98296 0.0
H1256 H 0.14426 0.18571 0.20592 0.0
H1257 H 0.12384 0.19454 0.21927 0.0
H1258 H 0.15046 0.18977 0.26291 0.0
H1259 H 0.17107 0.18163 0.24943 0.0
H1260 H 0.10712 0.18051 0.24088 0.0
H1261 H 0.13814 0.23122 0.26559 0.0
H1262 H 0.14549 0.2211 0.25099 0.0
H1263 H 0.14737 0.21465 0.27098 0.0
C1264 C 0.14578 0.1868 0.21833 0.0
C1265 C 0.15921 0.18304 0.22666 0.0
C1266 C 0.1341 0.19174 0.22597 0.0
C1267 C 0.13564 0.19306 0.24211 0.0
C1268 C 0.14908 0.18921 0.25044 0.0
H1269 H 0.07535 0.21304 0.31047 0.0
H1270 H 0.09595 0.20513 0.29685 0.0
C1271 C 0.16078 0.18437 0.24277 0.0
C1272 C 0.12301 0.19794 0.25025 0.0
H1273 H 0.11427 0.22339 0.27518 0.0
C1274 C 0.10868 0.18996 0.24829 0.0
C1275 C 0.12498 0.21028 0.25995 0.0
C1276 C 0.13978 0.2199 0.2619 0.0
C1277 C 0.09641 0.19378 0.25593 0.0
C1278 C 0.09845 0.20598 0.26575 0.0
C1279 C 0.11274 0.21399 0.26772 0.0
C1280 C 0.08584 0.21067 0.27397 0.0
C1281 C 0.0814 0.18455 0.25369 0.0
C1282 C 0.07335 0.21653 0.26565 0.0
C1283 C 0.06157 0.2211 0.27341 0.0
C1284 C 0.06199 0.21986 0.28967 0.0
C1285 C 0.07454 0.21398 0.29796 0.0
C1286 C 0.08638 0.20953 0.29019 0.0
H1287 H 0.0825 0.17375 0.24847 0.0
H1288 H 0.07632 0.18226 0.2649 0.0
H1289 H 0.07351 0.19085 0.24586 0.0
H1290 H 0.07275 0.21768 0.25314 0.0
H1291 H 0.05205 0.22545 0.26664 0.0
H1292 H 0.84911 0.18537 0.20568 0.0
H1293 H 0.84363 0.16024 0.21756 0.0
H1294 H 0.85076 0.14091 0.17468 0.0
H1295 H 0.85661 0.16599 0.16304 0.0
H1296 H 0.82026 0.13947 0.20738 0.0
H1297 H 0.87561 0.11642 0.20657 0.0
H1298 H 0.87347 0.13616 0.20409 0.0
H1299 H 0.86873 0.12418 0.18812 0.0
C1300 C 0.84973 0.17569 0.19896 0.0
C1301 C 0.85318 0.17747 0.18349 0.0
C1302 C 0.84657 0.1614 0.20569 0.0
C1303 C 0.84696 0.14871 0.19705 0.0
C1304 C 0.85067 0.15052 0.18164 0.0
H1305 H 0.82054 0.0544 0.2058 0.0
H1306 H 0.82964 0.07989 0.19776 0.0
C1307 C 0.85382 0.1648 0.17495 0.0
C1308 C 0.84249 0.13363 0.20374 0.0
H1309 H 0.85441 0.09883 0.211 0.0
C1310 C 0.82777 0.13062 0.20836 0.0
C1311 C 0.85232 0.12212 0.20494 0.0
C1312 C 0.86846 0.12489 0.20081 0.0
C1313 C 0.82243 0.11626 0.21366 0.0
C1314 C 0.83217 0.10468 0.21459 0.0
C1315 C 0.84697 0.10774 0.21022 0.0
C1316 C 0.82705 0.08922 0.21971 0.0
C1317 C 0.80626 0.11347 0.21773 0.0
C1318 C 0.82278 0.08601 0.23477 0.0
C1319 C 0.81749 0.07148 0.23936 0.0
C1320 C 0.81642 0.05987 0.22899 0.0
C1321 C 0.821 0.0631 0.21399 0.0
C1322 C 0.82631 0.07764 0.20942 0.0
H1323 H 0.79936 0.1226 0.21309 0.0
H1324 H 0.80092 0.10275 0.21318 0.0
H1325 H 0.80605 0.11275 0.2305 0.0
H1326 H 0.82348 0.09477 0.24295 0.0
H1327 H 0.81395 0.06944 0.25094 0.0
H1328 H 0.89019 0.82277 0.21818 0.0
H1329 H 0.91291 0.81035 0.2272 0.0
H1330 H 0.93529 0.83032 0.1881 0.0
H1331 H 0.91234 0.84253 0.17899 0.0
H1332 H 0.94274 0.80078 0.19641 0.0
H1333 H 0.9489 0.83653 0.24707 0.0
H1334 H 0.93111 0.82537 0.24496 0.0
H1335 H 0.93575 0.83968 0.23047 0.0
C1336 C 0.89984 0.82408 0.21132 0.0
C1337 C 0.89963 0.83352 0.19794 0.0
C1338 C 0.91284 0.81715 0.21653 0.0
C1339 C 0.92593 0.8197 0.20854 0.0
C1340 C 0.92535 0.82826 0.1945 0.0
H1341 H 0.01709 0.8114 0.25134 0.0
H1342 H 0.99397 0.82025 0.23824 0.0
C1343 C 0.91226 0.83514 0.18924 0.0
C1344 C 0.94047 0.81446 0.21549 0.0
H1345 H 0.96573 0.81766 0.24738 0.0
C1346 C 0.94779 0.80448 0.20754 0.0
C1347 C 0.94723 0.81953 0.22987 0.0
C1348 C 0.94045 0.83098 0.23854 0.0
C1349 C 0.9615 0.79915 0.21377 0.0
C1350 C 0.96794 0.80376 0.22845 0.0
C1351 C 0.96075 0.814 0.23621 0.0
C1352 C 0.98215 0.79823 0.236 0.0
C1353 C 0.96909 0.78885 0.20442 0.0
C1354 C 0.9832 0.78291 0.23932 0.0
C1355 C 0.99642 0.77782 0.24682 0.0
C1356 C 1.00887 0.78794 0.25135 0.0
C1357 C 1.00772 0.80329 0.24816 0.0
C1358 C 0.99451 0.80837 0.24059 0.0
H1359 H 0.96523 0.78987 0.19192 0.0
H1360 H 0.98158 0.79122 0.20577 0.0
H1361 H 0.9662 0.77713 0.20851 0.0
H1362 H 0.97369 0.77488 0.23632 0.0
H1363 H 0.99677 0.76595 0.24934 0.0
H1364 H 0.20744 0.87214 0.15027 0.0
H1365 H 0.22193 0.89585 0.15691 0.0
H1366 H 0.25453 0.87159 0.18521 0.0
H1367 H 0.23942 0.84801 0.17914 0.0
H1368 H 0.24727 0.89291 0.20058 0.0
H1369 H 0.25944 0.91755 0.14295 0.0
H1370 H 0.23952 0.91315 0.14395 0.0
H1371 H 0.25193 0.89837 0.14576 0.0
C1372 C 0.2179 0.87199 0.15761 0.0
C1373 C 0.22258 0.85841 0.16399 0.0
C1374 C 0.22623 0.88548 0.16135 0.0
C1375 C 0.23957 0.88558 0.17132 0.0
C1376 C 0.24438 0.87186 0.17741 0.0
H1377 H 0.29742 0.96863 0.18859 0.0
H1378 H 0.28704 0.94408 0.17959 0.0
C1379 C 0.23588 0.85841 0.17387 0.0
C1380 C 0.24772 0.89995 0.17649 0.0
H1381 H 0.26191 0.93458 0.16366 0.0
C1382 C 0.25063 0.90194 0.19246 0.0
C1383 C 0.25237 0.91174 0.16599 0.0
C1384 C 0.2508 0.91003 0.14872 0.0
C1385 C 0.25762 0.91541 0.1982 0.0
C1386 C 0.26132 0.92754 0.18771 0.0
C1387 C 0.25886 0.92542 0.17174 0.0
C1388 C 0.26762 0.9425 0.1931 0.0
C1389 C 0.26117 0.91636 0.21546 0.0
C1390 C 0.26007 0.94997 0.20347 0.0
C1391 C 0.26611 0.96387 0.20878 0.0
C1392 C 0.27964 0.9708 0.20354 0.0
C1393 C 0.28696 0.96357 0.19279 0.0
C1394 C 0.28104 0.94953 0.18766 0.0
H1395 H 0.2625 0.90515 0.22112 0.0
H1396 H 0.27169 0.92369 0.21827 0.0
H1397 H 0.25168 0.92097 0.22048 0.0
H1398 H 0.24944 0.94509 0.20743 0.0
H1399 H 0.26005 0.96931 0.2168 0.0
H1400 H 0.14365 0.88331 0.83564 0.0
H1401 H 0.11857 0.87841 0.82161 0.0
H1402 H 0.13208 0.83741 0.80598 0.0
H1403 H 0.15713 0.84242 0.81988 0.0
H1404 H 0.11519 0.8568 0.78252 0.0
H1405 H 0.08785 0.84358 0.83754 0.0
H1406 H 0.09958 0.86092 0.83586 0.0
H1407 H 0.108 0.84357 0.83658 0.0
C1408 C 0.14123 0.87338 0.82903 0.0
C1409 C 0.15213 0.86315 0.82884 0.0
C1410 C 0.12697 0.87057 0.82109 0.0
C1411 C 0.1235 0.85751 0.81286 0.0
C1412 C 0.13458 0.84754 0.81227 0.0
H1413 H 0.05392 0.80233 0.76753 0.0
H1414 H 0.07679 0.81851 0.77395 0.0
C1415 C 0.14878 0.85033 0.82025 0.0
C1416 C 0.10808 0.85367 0.80561 0.0
H1417 H 0.07271 0.84006 0.8144 0.0
C1418 C 0.10581 0.85332 0.78944 0.0
C1419 C 0.0959 0.84926 0.8147 0.0
C1420 C 0.09785 0.84923 0.83214 0.0
C1421 C 0.09171 0.84825 0.7821 0.0
C1422 C 0.07973 0.84307 0.79124 0.0
C1423 C 0.08186 0.84407 0.80738 0.0
C1424 C 0.06549 0.83501 0.78465 0.0
C1425 C 0.08986 0.84838 0.76467 0.0
C1426 C 0.0514 0.83895 0.78833 0.0
C1427 C 0.03824 0.82955 0.78486 0.0
C1428 C 0.03896 0.81602 0.7777 0.0
C1429 C 0.05292 0.81266 0.77305 0.0
C1430 C 0.06606 0.822 0.77661 0.0
H1431 H 0.09744 0.85749 0.75955 0.0
H1432 H 0.09303 0.83765 0.76077 0.0
H1433 H 0.07802 0.84979 0.76014 0.0
H1434 H 0.0507 0.84892 0.79459 0.0
H1435 H 0.02767 0.83249 0.78857 0.0
H1436 H 0.25761 0.14804 0.84693 0.0
H1437 H 0.26699 0.12706 0.83499 0.0
H1438 H 0.22365 0.10177 0.83811 0.0
H1439 H 0.21452 0.12262 0.85064 0.0
H1440 H 0.24584 0.08531 0.84835 0.0
H1441 H 0.25976 0.11193 0.79202 0.0
H1442 H 0.26887 0.12245 0.80774 0.0
H1443 H 0.24853 0.12042 0.80483 0.0
C1444 C 0.25012 0.138 0.845 0.0
C1445 C 0.23537 0.13691 0.84968 0.0
C1446 C 0.25539 0.12609 0.83799 0.0
C1447 C 0.24594 0.11289 0.83531 0.0
C1448 C 0.23112 0.11186 0.83988 0.0
H1449 H 0.28276 0.04058 0.78821 0.0
H1450 H 0.26529 0.05894 0.79364 0.0
C1451 C 0.22588 0.12377 0.84697 0.0
C1452 C 0.25194 0.09981 0.82892 0.0
H1453 H 0.2721 0.08965 0.80007 0.0
C1454 C 0.25134 0.08622 0.83765 0.0
C1455 C 0.25888 0.1008 0.81478 0.0
C1456 C 0.25891 0.11465 0.80422 0.0
C1457 C 0.25827 0.07395 0.83317 0.0
C1458 C 0.2663 0.07536 0.81973 0.0
C1459 C 0.2661 0.08861 0.81046 0.0
C1460 C 0.27635 0.06392 0.81623 0.0
C1461 C 0.25721 0.05967 0.84308 0.0
C1462 C 0.28841 0.06077 0.82698 0.0
C1463 C 0.29829 0.05043 0.82393 0.0
C1464 C 0.29649 0.04294 0.80997 0.0
C1465 C 0.2844 0.04607 0.79911 0.0
C1466 C 0.27445 0.05657 0.80218 0.0
H1467 H 0.24688 0.05859 0.84948 0.0
H1468 H 0.2571 0.04974 0.83602 0.0
H1469 H 0.26714 0.05977 0.85174 0.0
H1470 H 0.29033 0.06651 0.83773 0.0
H1471 H 0.30747 0.0484 0.83259 0.0
H1472 H 0.90515 0.21109 0.79882 0.0
H1473 H 0.9286 0.21336 0.78547 0.0
H1474 H 0.95377 0.2016 0.82839 0.0
H1475 H 0.93037 0.19943 0.84162 0.0
H1476 H 0.95424 0.23406 0.79519 0.0
H1477 H 0.96966 0.17584 0.79589 0.0
H1478 H 0.95059 0.18035 0.79772 0.0
H1479 H 0.96441 0.18141 0.81409 0.0
C1480 C 0.91569 0.20868 0.80522 0.0
C1481 C 0.9161 0.2051 0.82117 0.0
C1482 C 0.92903 0.21001 0.79766 0.0
C1483 C 0.9429 0.2075 0.80591 0.0
C1484 C 0.94317 0.20334 0.82174 0.0
H1485 H 0.03738 0.22188 0.80538 0.0
H1486 H 1.01112 0.21251 0.80762 0.0
C1487 C 0.92988 0.20218 0.82931 0.0
C1488 C 0.95734 0.2107 0.79854 0.0
H1489 H 0.98947 0.19519 0.79179 0.0
C1490 C 0.96186 0.22555 0.79413 0.0
C1491 C 0.96723 0.19956 0.79725 0.0
C1492 C 0.96271 0.18336 0.80135 0.0
C1493 C 0.9764 0.22974 0.78939 0.0
C1494 C 0.98656 0.21867 0.78862 0.0
C1495 C 0.98171 0.20368 0.79234 0.0
C1496 C 1.00272 0.22264 0.78579 0.0
C1497 C 0.98103 0.24613 0.78627 0.0
C1498 C 1.00694 0.2309 0.77241 0.0
C1499 C 0.02205 0.23646 0.77114 0.0
C1500 C 0.03322 0.23367 0.78317 0.0
C1501 C 0.0291 0.22437 0.79594 0.0
C1502 C 0.01403 0.21896 0.79724 0.0
H1503 H 0.97309 0.25337 0.79064 0.0
H1504 H 0.99255 0.24929 0.79173 0.0
H1505 H 0.98114 0.24847 0.7736 0.0
H1506 H 0.99848 0.23353 0.7632 0.0
H1507 H 0.02482 0.2435 0.7611 0.0
H1508 H 0.82819 0.88976 0.82566 0.0
H1509 H 0.81942 0.91225 0.81168 0.0
H1510 H 0.86403 0.93497 0.81972 0.0
H1511 H 0.87268 0.91262 0.83389 0.0
H1512 H 0.8206 0.94301 0.82203 0.0
H1513 H 0.85404 0.93816 0.77187 0.0
H1514 H 0.84999 0.92274 0.78549 0.0
H1515 H 0.86464 0.93724 0.79043 0.0
C1516 C 0.83604 0.89963 0.82451 0.0
C1517 C 0.85113 0.89946 0.83074 0.0
C1518 C 0.83105 0.91243 0.81653 0.0
C1519 C 0.84111 0.92524 0.81451 0.0
C1520 C 0.85613 0.92515 0.82093 0.0
H1521 H 0.84349 0.01122 0.76726 0.0
H1522 H 0.84763 0.98875 0.78336 0.0
C1523 C 0.86108 0.91239 0.82897 0.0
C1524 C 0.83606 0.93866 0.8055 0.0
H1525 H 0.84269 0.96074 0.77316 0.0
C1526 C 0.82532 0.94686 0.81128 0.0
C1527 C 0.84217 0.94361 0.79144 0.0
C1528 C 0.85325 0.93494 0.78432 0.0
C1529 C 0.82101 0.96023 0.8037 0.0
C1530 C 0.82741 0.96537 0.78981 0.0
C1531 C 0.83783 0.95689 0.78385 0.0
C1532 C 0.82417 0.97981 0.78153 0.0
C1533 C 0.81011 0.96901 0.81092 0.0
C1534 C 0.80949 0.98257 0.77539 0.0
C1535 C 0.80704 0.99562 0.76624 0.0
C1536 C 0.81928 1.00601 0.76291 0.0
C1537 C 0.83382 1.00343 0.76954 0.0
C1538 C 0.83622 0.99055 0.77874 0.0
H1539 H 0.80905 0.9655 0.82327 0.0
H1540 H 0.81372 0.98116 0.81015 0.0
H1541 H 0.79876 0.96716 0.80461 0.0
H1542 H 0.80002 0.97436 0.77712 0.0
H1543 H 0.79575 0.99719 0.76113 0.0
H1544 H 0.21835 0.16389 0.2165 0.0
H1545 H 0.23338 0.14225 0.21992 0.0
H1546 H 0.19276 0.11291 0.21039 0.0
H1547 H 0.17814 0.1346 0.20593 0.0
H1548 H 0.23263 0.12164 0.24106 0.0
H1549 H 0.21941 0.09293 0.18642 0.0
H1550 H 0.21433 0.11155 0.18856 0.0
H1551 H 0.20224 0.0955 0.19473 0.0
C1552 C 0.21283 0.15281 0.21463 0.0
C1553 C 0.19714 0.15081 0.21106 0.0
C1554 C 0.22134 0.14043 0.21673 0.0
C1555 C 0.2143 0.12581 0.21534 0.0
C1556 C 0.19865 0.12396 0.21116 0.0
H1557 H 0.25077 0.04863 0.26598 0.0
H1558 H 0.23705 0.07034 0.25757 0.0
C1559 C 0.19024 0.13634 0.20875 0.0
C1560 C 0.22296 0.11252 0.21957 0.0
H1561 H 0.22836 0.07772 0.20838 0.0
C1562 C 0.23183 0.11213 0.23378 0.0
C1563 C 0.2222 0.10009 0.21008 0.0
C1564 C 0.21417 0.10012 0.19404 0.0
C1565 C 0.23963 0.09967 0.23888 0.0
C1566 C 0.23801 0.08683 0.22989 0.0
C1567 C 0.22942 0.08736 0.21551 0.0
C1568 C 0.24552 0.07297 0.23485 0.0
C1569 C 0.24983 0.10066 0.25369 0.0
C1570 C 0.25416 0.06653 0.22466 0.0
C1571 C 0.26156 0.05379 0.22927 0.0
C1572 C 0.2607 0.04726 0.24429 0.0
C1573 C 0.25178 0.05346 0.25439 0.0
C1574 C 0.24407 0.06602 0.24963 0.0
H1575 H 0.25371 0.11244 0.25621 0.0
H1576 H 0.24347 0.09584 0.26348 0.0
H1577 H 0.25994 0.09447 0.25316 0.0
H1578 H 0.25547 0.07154 0.21318 0.0
H1579 H 0.2684 0.04938 0.22119 0.0
H1580 H 0.19184 0.90459 0.85388 0.0
H1581 H 0.21503 0.92174 0.85417 0.0
H1582 H 0.24036 0.88543 0.84421 0.0
H1583 H 0.21712 0.86834 0.84386 0.0
H1584 H 0.2555 0.90585 0.86693 0.0
H1585 H 0.23318 0.93432 0.81246 0.0
H1586 H 0.22112 0.93325 0.82807 0.0
H1587 H 0.22491 0.91643 0.81949 0.0
C1588 C 0.20241 0.90034 0.85187 0.0
C1589 C 0.20279 0.88528 0.8487 0.0
C1590 C 0.21561 0.91007 0.85206 0.0
C1591 C 0.22935 0.90486 0.84903 0.0
C1592 C 0.22986 0.88964 0.84659 0.0
H1593 H 0.30489 0.95635 0.81173 0.0
H1594 H 0.28515 0.93695 0.81845 0.0
C1595 C 0.21665 0.87992 0.84639 0.0
C1596 C 0.24289 0.91546 0.84721 0.0
H1597 H 0.25661 0.94441 0.82396 0.0
C1598 C 0.25578 0.91432 0.85757 0.0
C1599 C 0.24323 0.92634 0.83486 0.0
C1600 C 0.22994 0.92764 0.82298 0.0
C1601 C 0.26903 0.9239 0.85595 0.0
C1602 C 0.26927 0.9349 0.84371 0.0
C1603 C 0.25637 0.93598 0.83336 0.0
C1604 C 0.28283 0.94523 0.84097 0.0
C1605 C 0.28274 0.922 0.86709 0.0
C1606 C 0.28837 0.95609 0.85159 0.0
C1607 C 0.29971 0.9672 0.84775 0.0
C1608 C 0.30551 0.96769 0.83318 0.0
C1609 C 0.30047 0.95634 0.82295 0.0
C1610 C 0.28924 0.94524 0.82679 0.0
H1611 H 0.28179 0.9111 0.87371 0.0
H1612 H 0.29316 0.92286 0.86084 0.0
H1613 H 0.28395 0.93102 0.87545 0.0
H1614 H 0.28341 0.95642 0.86249 0.0
H1615 H 0.30328 0.97589 0.85579 0.0
H1616 H 0.21989 0.19653 0.85988 0.0
H1617 H 0.1996 0.21304 0.85337 0.0
H1618 H 0.16632 0.17574 0.86023 0.0
H1619 H 0.18665 0.15931 0.86636 0.0
H1620 H 0.16075 0.18965 0.83284 0.0
H1621 H 0.17043 0.23213 0.87734 0.0
H1622 H 0.18688 0.23033 0.86733 0.0
H1623 H 0.17936 0.21489 0.87921 0.0
C1624 C 0.20822 0.19205 0.86043 0.0
C1625 C 0.20474 0.17674 0.86366 0.0
C1626 C 0.19663 0.20145 0.85672 0.0
C1627 C 0.18135 0.1957 0.85639 0.0
C1628 C 0.17796 0.18049 0.86038 0.0
H1629 H 0.10173 0.2458 0.84206 0.0
H1630 H 0.12241 0.23137 0.85279 0.0
C1631 C 0.18954 0.17111 0.86397 0.0
C1632 C 0.16895 0.20506 0.85047 0.0
H1633 H 0.15335 0.23756 0.85544 0.0
C1634 C 0.15911 0.20008 0.83786 0.0
C1635 C 0.16666 0.21864 0.85704 0.0
C1636 C 0.1763 0.22426 0.87107 0.0
C1637 C 0.14722 0.20831 0.83157 0.0
C1638 C 0.14526 0.22215 0.83778 0.0
C1639 C 0.15494 0.22705 0.85054 0.0
C1640 C 0.13305 0.23151 0.83134 0.0
C1641 C 0.13669 0.20191 0.8185 0.0
C1642 C 0.13224 0.23669 0.81576 0.0
C1643 C 0.12039 0.24492 0.80957 0.0
C1644 C 0.10913 0.24834 0.81885 0.0
C1645 C 0.11022 0.24349 0.83457 0.0
C1646 C 0.12204 0.23519 0.84073 0.0
H1647 H 0.13708 0.18965 0.81804 0.0
H1648 H 0.12484 0.20421 0.81967 0.0
H1649 H 0.14015 0.20712 0.80734 0.0
H1650 H 0.14079 0.23434 0.80835 0.0
H1651 H 0.12013 0.24872 0.79752 0.0
H1652 H 0.86821 0.19592 0.80281 0.0
H1653 H 0.86092 0.17426 0.78684 0.0
H1654 H 0.89638 0.15089 0.81153 0.0
H1655 H 0.90388 0.1728 0.82716 0.0
H1656 H 0.89412 0.14555 0.78114 0.0
H1657 H 0.83721 0.13724 0.80281 0.0
H1658 H 0.84091 0.15537 0.79361 0.0
H1659 H 0.85198 0.15024 0.81111 0.0
C1660 C 0.87449 0.18617 0.80463 0.0
C1661 C 0.8865 0.18586 0.81618 0.0
C1662 C 0.87028 0.17379 0.79564 0.0
C1663 C 0.87783 0.16077 0.79827 0.0
C1664 C 0.89031 0.16074 0.80937 0.0
H1665 H 0.83812 0.07348 0.76932 0.0
H1666 H 0.84873 0.09507 0.78397 0.0
C1667 C 0.89462 0.17322 0.81824 0.0
C1668 C 0.87245 0.14707 0.78978 0.0
H1669 H 0.8413 0.12267 0.78182 0.0
C1670 C 0.88259 0.14051 0.78133 0.0
C1671 C 0.85748 0.14029 0.79028 0.0
C1672 C 0.84631 0.14604 0.80007 0.0
C1673 C 0.8781 0.12754 0.77313 0.0
C1674 C 0.86293 0.12117 0.77304 0.0
C1675 C 0.85288 0.12761 0.78172 0.0
C1676 C 0.85719 0.10779 0.76417 0.0
C1677 C 0.88977 0.12063 0.76496 0.0
C1678 C 0.85833 0.1077 0.74814 0.0
C1679 C 0.85239 0.0953 0.73979 0.0
C1680 C 0.84492 0.08282 0.74723 0.0
C1681 C 0.84371 0.08296 0.76325 0.0
C1682 C 0.84981 0.09528 0.77163 0.0
H1683 H 0.90142 0.12388 0.77008 0.0
H1684 H 0.88783 0.10826 0.76545 0.0
H1685 H 0.8891 0.12464 0.75263 0.0
H1686 H 0.86354 0.11736 0.74201 0.0
H1687 H 0.85327 0.09564 0.72742 0.0
H1688 H 0.86663 0.83754 0.84382 0.0
H1689 H 0.88666 0.82133 0.84021 0.0
H1690 H 0.92026 0.85866 0.84728 0.0
H1691 H 0.90024 0.87473 0.85083 0.0
H1692 H 0.92234 0.84476 0.82005 0.0
H1693 H 0.91955 0.8029 0.86926 0.0
H1694 H 0.90181 0.80515 0.85825 0.0
H1695 H 0.91109 0.82036 0.86908 0.0
C1696 C 0.87834 0.84209 0.84504 0.0
C1697 C 0.88196 0.85734 0.84757 0.0
C1698 C 0.88978 0.83287 0.84296 0.0
C1699 C 0.90502 0.83875 0.84351 0.0
C1700 C 0.90862 0.85385 0.84678 0.0
H1701 H 0.98779 0.79559 0.83969 0.0
H1702 H 0.9668 0.80827 0.84739 0.0
C1703 C 0.89722 0.86302 0.84884 0.0
C1704 C 0.91709 0.82969 0.83931 0.0
H1705 H 0.93539 0.79849 0.84968 0.0
C1706 C 0.92518 0.83465 0.82655 0.0
C1707 C 0.9209 0.81653 0.84783 0.0
C1708 C 0.913 0.81094 0.86196 0.0
C1709 C 0.93686 0.82684 0.82203 0.0
C1710 C 0.9405 0.81353 0.83036 0.0
C1711 C 0.93252 0.80861 0.84321 0.0
C1712 C 0.95279 0.80485 0.82602 0.0
C1713 C 0.94544 0.83307 0.80854 0.0
C1714 C 0.95182 0.79838 0.81157 0.0
C1715 C 0.9638 0.79103 0.80713 0.0
C1716 C 0.97708 0.78993 0.81705 0.0
C1717 C 0.97779 0.79606 0.83174 0.0
C1718 C 0.96578 0.80338 0.83617 0.0
H1719 H 0.94368 0.84499 0.80572 0.0
H1720 H 0.95774 0.83207 0.811 0.0
H1721 H 0.94143 0.82664 0.79818 0.0
H1722 H 0.9418 0.79911 0.80365 0.0
H1723 H 0.96263 0.78621 0.79589 0.0
H1724 H 0.87125 0.88949 0.18301 0.0
H1725 H 0.86188 0.91133 0.19349 0.0
H1726 H 0.85498 0.88617 0.23636 0.0
H1727 H 0.8639 0.86423 0.22565 0.0
H1728 H 0.8311 0.90236 0.22669 0.0
H1729 H 0.88501 0.93847 0.22517 0.0
H1730 H 0.87803 0.93121 0.20678 0.0
H1731 H 0.88377 0.91863 0.22252 0.0
C1732 C 0.8676 0.88865 0.19461 0.0
C1733 C 0.86834 0.87525 0.20357 0.0
C1734 C 0.86242 0.90115 0.20067 0.0
C1735 C 0.85798 0.90051 0.21584 0.0
C1736 C 0.85844 0.887 0.22468 0.0
H1737 H 0.84624 0.9755 0.27148 0.0
H1738 H 0.85483 0.95377 0.26027 0.0
C1739 C 0.86359 0.8745 0.21861 0.0
C1740 C 0.85276 0.91384 0.2225 0.0
H1741 H 0.86363 0.95006 0.23135 0.0
C1742 C 0.83822 0.91279 0.22772 0.0
C1743 C 0.86213 0.92739 0.22406 0.0
C1744 C 0.87816 0.92901 0.21948 0.0
C1745 C 0.83271 0.92493 0.23427 0.0
C1746 C 0.8419 0.93863 0.23538 0.0
C1747 C 0.85652 0.93962 0.23035 0.0
C1748 C 0.83667 0.95197 0.24202 0.0
C1749 C 0.81723 0.92286 0.24024 0.0
C1750 C 0.82373 0.95838 0.23537 0.0
C1751 C 0.81876 0.9708 0.24179 0.0
C1752 C 0.8267 0.97717 0.25493 0.0
C1753 C 0.83983 0.9709 0.26138 0.0
C1754 C 0.84477 0.95846 0.25498 0.0
H1755 H 0.81344 0.91087 0.24237 0.0
H1756 H 0.81708 0.92872 0.25115 0.0
H1757 H 0.80894 0.9276 0.23149 0.0
H1758 H 0.81748 0.95382 0.22517 0.0
H1759 H 0.80867 0.97539 0.23644 0.0
H1760 H 0.19192 0.81568 0.1942 0.0
H1761 H 0.16985 0.80175 0.20476 0.0
H1762 H 0.14521 0.80436 0.15979 0.0
H1763 H 0.16718 0.81882 0.14941 0.0
H1764 H 0.12861 0.81183 0.18176 0.0
H1765 H 0.15263 0.75896 0.20085 0.0
H1766 H 0.16401 0.7747 0.20878 0.0
H1767 H 0.16197 0.77271 0.18815 0.0
C1768 C 0.18177 0.81324 0.18662 0.0
C1769 C 0.18119 0.81831 0.17103 0.0
C1770 C 0.16924 0.8051 0.19257 0.0
C1771 C 0.15593 0.8017 0.18301 0.0
C1772 C 0.15539 0.80669 0.16737 0.0
H1773 H 0.07995 0.74808 0.2257 0.0
H1774 H 0.09857 0.75576 0.20672 0.0
C1775 C 0.16792 0.81489 0.16143 0.0
C1776 C 0.14226 0.79399 0.18965 0.0
H1777 H 0.13034 0.76413 0.21293 0.0
C1778 C 0.12893 0.80126 0.18832 0.0
C1779 C 0.14248 0.78003 0.19799 0.0
C1780 C 0.156 0.77107 0.19888 0.0
C1781 C 0.11623 0.79548 0.19593 0.0
C1782 C 0.11692 0.7822 0.20535 0.0
C1783 C 0.12985 0.77439 0.20585 0.0
C1784 C 0.1052 0.7774 0.21619 0.0
C1785 C 0.10229 0.80389 0.19415 0.0
C1786 C 0.1029 0.78691 0.22783 0.0
C1787 C 0.09244 0.78258 0.23858 0.0
C1788 C 0.08399 0.76855 0.23807 0.0
C1789 C 0.08621 0.75897 0.22635 0.0
C1790 C 0.09686 0.76333 0.21555 0.0
H1791 H 0.10158 0.81057 0.18302 0.0
H1792 H 0.09184 0.79617 0.19471 0.0
H1793 H 0.1028 0.81173 0.20366 0.0
H1794 H 0.10941 0.79767 0.22877 0.0
H1795 H 0.09109 0.79028 0.24741 0.0
H1796 H 0.86942 0.22081 0.20591 0.0
H1797 H 0.8912 0.22218 0.22529 0.0
H1798 H 0.90785 0.18446 0.20585 0.0
H1799 H 0.88624 0.18345 0.18614 0.0
H1800 H 0.90358 0.20258 0.24766 0.0
H1801 H 0.94187 0.21787 0.20097 0.0
H1802 H 0.92158 0.21733 0.19763 0.0
H1803 H 0.93067 0.20028 0.19913 0.0
C1804 C 0.87766 0.21271 0.206 0.0
C1805 C 0.87638 0.20214 0.19457 0.0
C1806 C 0.89003 0.21346 0.21703 0.0
C1807 C 0.90127 0.20361 0.21678 0.0
C1808 C 0.89943 0.19233 0.20603 0.0
H1809 H 0.97793 0.2053 0.28739 0.0
H1810 H 0.95577 0.19702 0.27033 0.0
C1811 C 0.88706 0.19165 0.19492 0.0
C1812 C 0.91538 0.20602 0.22702 0.0
H1813 H 0.95312 0.21675 0.2265 0.0
C1814 C 0.91445 0.20555 0.24308 0.0
C1815 C 0.92948 0.21014 0.22093 0.0
C1816 C 0.93102 0.21158 0.20373 0.0
C1817 C 0.92722 0.20928 0.25324 0.0
C1818 C 0.94133 0.21331 0.24715 0.0
C1819 C 0.9423 0.21357 0.23111 0.0
C1820 C 0.95509 0.21805 0.25715 0.0
C1821 C 0.92538 0.20945 0.27034 0.0
C1822 C 0.96236 0.23246 0.25504 0.0
C1823 C 0.97513 0.23719 0.26465 0.0
C1824 C 0.98084 0.22757 0.27656 0.0
C1825 C 0.97373 0.21303 0.27842 0.0
C1826 C 0.96101 0.20829 0.26874 0.0
H1827 H 0.91335 0.2096 0.27268 0.0
H1828 H 0.92964 0.19925 0.27621 0.0
H1829 H 0.93197 0.21931 0.27553 0.0
H1830 H 0.95799 0.24014 0.24609 0.0
H1831 H 0.98035 0.24845 0.26291 0.0
H1832 H 0.19394 0.68069 0.658 0.0
H1833 H 0.2087 0.68748 0.63565 0.0
H1834 H 0.22018 0.73162 0.65269 0.0
H1835 H 0.20602 0.72457 0.67529 0.0
H1836 H 0.20385 0.70872 0.61312 0.0
H1837 H 0.26096 0.7217 0.64254 0.0
H1838 H 0.24563 0.71211 0.65243 0.0
H1839 H 0.24698 0.73212 0.64947 0.0
C1840 C 0.19996 0.69169 0.65712 0.0
C1841 C 0.1989 0.7021 0.66836 0.0
C1842 C 0.20827 0.69563 0.64429 0.0
C1843 C 0.21573 0.71005 0.64249 0.0
C1844 C 0.21485 0.72035 0.6539 0.0
H1845 H 0.26633 0.75365 0.56674 0.0
H1846 H 0.25069 0.74965 0.58891 0.0
C1847 C 0.20663 0.71637 0.66674 0.0
C1848 C 0.22374 0.71454 0.62831 0.0
H1849 H 0.25776 0.7288 0.61577 0.0
C1850 C 0.21565 0.71307 0.61374 0.0
C1851 C 0.23914 0.72033 0.62902 0.0
C1852 C 0.24873 0.72153 0.64419 0.0
C1853 C 0.2225 0.71719 0.59995 0.0
C1854 C 0.23788 0.72289 0.60068 0.0
C1855 C 0.24592 0.72459 0.61522 0.0
C1856 C 0.24618 0.7258 0.58651 0.0
C1857 C 0.21322 0.71543 0.58467 0.0
C1858 C 0.24871 0.71379 0.57775 0.0
C1859 C 0.25765 0.71603 0.56526 0.0
C1860 C 0.26422 0.73036 0.56112 0.0
C1861 C 0.26126 0.74252 0.56952 0.0
C1862 C 0.25242 0.74023 0.58224 0.0
H1863 H 0.20089 0.71457 0.58607 0.0
H1864 H 0.21602 0.72498 0.57647 0.0
H1865 H 0.21579 0.70507 0.57948 0.0
H1866 H 0.24419 0.70255 0.58091 0.0
H1867 H 0.25974 0.70641 0.55906 0.0
H1868 H 0.85982 0.69942 0.62085 0.0
H1869 H 0.84774 0.70806 0.59591 0.0
H1870 H 0.80542 0.70802 0.61653 0.0
H1871 H 0.81779 0.6998 0.64162 0.0
H1872 H 0.82316 0.69735 0.57648 0.0
H1873 H 0.81315 0.75118 0.6009 0.0
H1874 H 0.82492 0.73812 0.61124 0.0
H1875 H 0.80469 0.73457 0.61022 0.0
C1876 C 0.84791 0.70113 0.61989 0.0
C1877 C 0.83968 0.69915 0.63297 0.0
C1878 C 0.84101 0.706 0.60572 0.0
C1879 C 0.82574 0.70891 0.60443 0.0
C1880 C 0.81728 0.70611 0.61735 0.0
H1881 H 0.7881 0.76315 0.52579 0.0
H1882 H 0.78773 0.74446 0.54742 0.0
C1883 C 0.82426 0.70135 0.63158 0.0
C1884 C 0.81923 0.71589 0.58983 0.0
H1885 H 0.80752 0.74887 0.57429 0.0
C1886 C 0.8195 0.70853 0.57601 0.0
C1887 C 0.81441 0.73045 0.58925 0.0
C1888 C 0.81434 0.73914 0.60364 0.0
C1889 C 0.81575 0.71562 0.56159 0.0
C1890 C 0.81176 0.73045 0.561 0.0
C1891 C 0.81055 0.73746 0.57482 0.0
C1892 C 0.81094 0.73969 0.54639 0.0
C1893 C 0.81655 0.70735 0.54708 0.0
C1894 C 0.82403 0.74304 0.53857 0.0
C1895 C 0.82432 0.75376 0.52638 0.0
C1896 C 0.8115 0.76134 0.52176 0.0
C1897 C 0.79813 0.75744 0.52906 0.0
C1898 C 0.7979 0.74678 0.54141 0.0
H1899 H 0.81488 0.69506 0.54936 0.0
H1900 H 0.80793 0.71068 0.53785 0.0
H1901 H 0.82789 0.71002 0.54277 0.0
H1902 H 0.83431 0.73793 0.54242 0.0
H1903 H 0.83478 0.75649 0.52095 0.0
H1904 H 0.89385 0.36223 0.66025 0.0
H1905 H 0.88706 0.34446 0.63974 0.0
H1906 H 0.87921 0.30903 0.67431 0.0
H1907 H 0.88584 0.32697 0.69483 0.0
H1908 H 0.89753 0.31697 0.63263 0.0
H1909 H 0.83808 0.31012 0.64841 0.0
H1910 H 0.85161 0.32485 0.65564 0.0
H1911 H 0.85221 0.30612 0.66374 0.0
C1912 C 0.89092 0.35059 0.6634 0.0
C1913 C 0.89025 0.34592 0.67902 0.0
C1914 C 0.88705 0.34045 0.65172 0.0
C1915 C 0.88236 0.32546 0.65547 0.0
C1916 C 0.88257 0.32059 0.67114 0.0
H1917 H 0.86085 0.25713 0.58604 0.0
H1918 H 0.87217 0.27107 0.60824 0.0
C1919 C 0.8865 0.33076 0.68284 0.0
C1920 C 0.87632 0.31533 0.64292 0.0
H1921 H 0.84374 0.2965 0.6276 0.0
C1922 C 0.88581 0.31237 0.63159 0.0
C1923 C 0.86095 0.30954 0.64143 0.0
C1924 C 0.85004 0.31287 0.65285 0.0
C1925 C 0.88033 0.30385 0.6188 0.0
C1926 C 0.86497 0.29801 0.61737 0.0
C1927 C 0.85552 0.3009 0.62875 0.0
C1928 C 0.85827 0.28949 0.60379 0.0
C1929 C 0.89089 0.30159 0.60666 0.0
C1930 C 0.84651 0.29504 0.59402 0.0
C1931 C 0.84001 0.28712 0.58128 0.0
C1932 C 0.84504 0.27335 0.57805 0.0
C1933 C 0.8568 0.26777 0.58795 0.0
C1934 C 0.86332 0.27574 0.60069 0.0
H1935 H 0.90129 0.30944 0.6077 0.0
H1936 H 0.89431 0.29003 0.60802 0.0
H1937 H 0.88519 0.30309 0.59486 0.0
H1938 H 0.84242 0.30563 0.59617 0.0
H1939 H 0.83116 0.29192 0.57389 0.0
H1940 H 0.21673 0.36989 0.63074 0.0
H1941 H 0.23293 0.36639 0.61001 0.0
H1942 H 0.27065 0.36163 0.64407 0.0
H1943 H 0.25443 0.36558 0.66471 0.0
H1944 H 0.27947 0.37679 0.61748 0.0
H1945 H 0.24371 0.32473 0.60317 0.0
H1946 H 0.23334 0.34093 0.60161 0.0
H1947 H 0.24176 0.33478 0.62018 0.0
C1948 C 0.22857 0.36839 0.63366 0.0
C1949 C 0.23441 0.3679 0.64919 0.0
C1950 C 0.23778 0.36628 0.6219 0.0
C1951 C 0.25291 0.36334 0.62552 0.0
C1952 C 0.25899 0.36377 0.641 0.0
H1953 H 0.30229 0.31465 0.56631 0.0
H1954 H 0.28971 0.32339 0.58756 0.0
C1955 C 0.24979 0.36606 0.65277 0.0
C1956 C 0.26205 0.35884 0.61331 0.0
H1957 H 0.26256 0.3328 0.58623 0.0
C1958 C 0.2758 0.36716 0.61065 0.0
C1959 C 0.25743 0.34609 0.60462 0.0
C1960 C 0.24334 0.33602 0.60762 0.0
C1961 C 0.28492 0.36321 0.59937 0.0
C1962 C 0.27999 0.35078 0.59027 0.0
C1963 C 0.26632 0.34239 0.59309 0.0
C1964 C 0.28882 0.346 0.57792 0.0
C1965 C 0.2999 0.37217 0.59757 0.0
C1966 C 0.29266 0.35579 0.56544 0.0
C1967 C 0.29999 0.35081 0.55332 0.0
C1968 C 0.30337 0.33588 0.55331 0.0
C1969 C 0.29969 0.32617 0.56591 0.0
C1970 C 0.29253 0.33118 0.57808 0.0
H1971 H 0.304 0.37821 0.60819 0.0
H1972 H 0.30864 0.36492 0.59493 0.0
H1973 H 0.29854 0.38062 0.5879 0.0
H1974 H 0.28958 0.36716 0.56481 0.0
H1975 H 0.30249 0.3585 0.54368 0.0
H1976 H 0.20377 0.32252 0.36122 0.0
H1977 H 0.22027 0.31417 0.38352 0.0
H1978 H 0.22092 0.35739 0.40291 0.0
H1979 H 0.20406 0.36553 0.38078 0.0
H1980 H 0.24886 0.32566 0.39393 0.0
H1981 H 0.2088 0.32866 0.43875 0.0
H1982 H 0.20295 0.32924 0.4183 0.0
H1983 H 0.21178 0.34574 0.42734 0.0
C1984 C 0.2074 0.33013 0.37034 0.0
C1985 C 0.20264 0.34458 0.36948 0.0
C1986 C 0.21681 0.32541 0.383 0.0
C1987 C 0.22156 0.33507 0.395 0.0
C1988 C 0.2171 0.34965 0.39394 0.0
H1989 H 0.29704 0.33348 0.46241 0.0
H1990 H 0.27848 0.33789 0.44078 0.0
C1991 C 0.20765 0.35436 0.38128 0.0
C1992 C 0.23153 0.33001 0.40841 0.0
H1993 H 0.2345 0.32576 0.44784 0.0
C1994 C 0.24568 0.32556 0.40571 0.0
C1995 C 0.22722 0.32963 0.42373 0.0
C1996 C 0.2118 0.33343 0.42724 0.0
C1997 C 0.25589 0.32129 0.41798 0.0
C1998 C 0.25192 0.32171 0.43336 0.0
C1999 C 0.23755 0.32559 0.43604 0.0
C2000 C 0.26289 0.31899 0.44677 0.0
C2001 C 0.27088 0.3164 0.41439 0.0
C2002 C 0.26004 0.30715 0.45762 0.0
C2003 C 0.27065 0.30461 0.47014 0.0
C2004 C 0.2842 0.31396 0.47201 0.0
C2005 C 0.28679 0.32599 0.46127 0.0
C2006 C 0.27623 0.32849 0.44883 0.0
H2007 H 0.2704 0.31255 0.4024 0.0
H2008 H 0.27963 0.326 0.41547 0.0
H2009 H 0.27443 0.30726 0.42259 0.0
H2010 H 0.24972 0.29978 0.45627 0.0
H2011 H 0.26831 0.29529 0.47824 0.0
H2012 H 0.20385 0.65496 0.37872 0.0
H2013 H 0.21182 0.66713 0.40321 0.0
H2014 H 0.25328 0.68539 0.3845 0.0
H2015 H 0.24506 0.67355 0.36002 0.0
H2016 H 0.23654 0.66081 0.42209 0.0
H2017 H 0.24159 0.72111 0.40543 0.0
H2018 H 0.23141 0.70734 0.3931 0.0
H2019 H 0.25168 0.71057 0.3935 0.0
C2020 C 0.21442 0.66198 0.37977 0.0
C2021 C 0.22387 0.66336 0.3676 0.0
C2022 C 0.21903 0.66883 0.39375 0.0
C2023 C 0.23313 0.67728 0.39572 0.0
C2024 C 0.24225 0.67919 0.38324 0.0
H2025 H 0.29182 0.69055 0.4794 0.0
H2026 H 0.27855 0.68227 0.45511 0.0
C2027 C 0.23762 0.67235 0.3693 0.0
C2028 C 0.23899 0.68286 0.41117 0.0
H2029 H 0.25483 0.71392 0.42958 0.0
C2030 C 0.24037 0.67246 0.42375 0.0
C2031 C 0.24388 0.69807 0.41345 0.0
C2032 C 0.24193 0.70994 0.40069 0.0
C2033 C 0.24696 0.67676 0.43834 0.0
C2034 C 0.2526 0.69183 0.44039 0.0
C2035 C 0.25071 0.70233 0.42798 0.0
C2036 C 0.26064 0.69685 0.45526 0.0
C2037 C 0.24776 0.66509 0.45145 0.0
C2038 C 0.25524 0.70807 0.46331 0.0
C2039 C 0.26284 0.71286 0.47725 0.0
C2040 C 0.27609 0.7066 0.48342 0.0
C2041 C 0.28153 0.69544 0.47522 0.0
C2042 C 0.27393 0.69068 0.46129 0.0
H2043 H 0.23923 0.65542 0.44934 0.0
H2044 H 0.25912 0.66088 0.45251 0.0
H2045 H 0.24595 0.66984 0.46261 0.0
H2046 H 0.24504 0.71304 0.45889 0.0
H2047 H 0.2582 0.72135 0.48326 0.0
H2048 H 0.87265 0.68644 0.38089 0.0
H2049 H 0.8647 0.70252 0.40007 0.0
H2050 H 0.86737 0.73995 0.36696 0.0
H2051 H 0.87465 0.7237 0.34764 0.0
H2052 H 0.87917 0.7273 0.41291 0.0
H2053 H 0.82563 0.7417 0.38077 0.0
H2054 H 0.83607 0.72693 0.37521 0.0
H2055 H 0.84173 0.7461 0.36982 0.0
C2056 C 0.87132 0.69806 0.37772 0.0
C2057 C 0.87413 0.70385 0.36281 0.0
C2058 C 0.86689 0.70725 0.38866 0.0
C2059 C 0.86517 0.72239 0.38488 0.0
C2060 C 0.86825 0.72824 0.37005 0.0
H2061 H 0.84524 0.79775 0.43528 0.0
H2062 H 0.8534 0.78122 0.41678 0.0
C2063 C 0.87258 0.71902 0.35908 0.0
C2064 C 0.86049 0.73214 0.39654 0.0
H2065 H 0.83414 0.75584 0.40281 0.0
C2066 C 0.86927 0.73346 0.41074 0.0
C2067 C 0.84753 0.74015 0.39373 0.0
C2068 C 0.83711 0.73856 0.37912 0.0
C2069 C 0.86562 0.7428 0.42204 0.0
C2070 C 0.85283 0.75097 0.4191 0.0
C2071 C 0.84401 0.74962 0.40497 0.0
C2072 C 0.84836 0.76095 0.43058 0.0
C2073 C 0.87561 0.74411 0.43695 0.0
C2074 C 0.84277 0.755 0.44443 0.0
C2075 C 0.83807 0.76441 0.45501 0.0
C2076 C 0.83891 0.77996 0.45194 0.0
C2077 C 0.84463 0.78587 0.43809 0.0
C2078 C 0.84921 0.77644 0.42747 0.0
H2079 H 0.88653 0.73929 0.43627 0.0
H2080 H 0.87796 0.75599 0.43996 0.0
H2081 H 0.8697 0.73805 0.44646 0.0
H2082 H 0.84189 0.74306 0.44698 0.0
H2083 H 0.83383 0.75953 0.46561 0.0
H2084 H 0.83268 0.33605 0.37373 0.0
H2085 H 0.82431 0.32406 0.3979 0.0
H2086 H 0.86963 0.33192 0.41953 0.0
H2087 H 0.8778 0.34453 0.39546 0.0
H2088 H 0.83161 0.30033 0.41568 0.0
H2089 H 0.8462 0.35095 0.44945 0.0
H2090 H 0.84639 0.35135 0.42868 0.0
H2091 H 0.86211 0.34505 0.44092 0.0
C2092 C 0.84083 0.33516 0.38366 0.0
C2093 C 0.85583 0.34136 0.38281 0.0
C2094 C 0.83606 0.32829 0.39746 0.0
C2095 C 0.8462 0.32741 0.41075 0.0
C2096 C 0.86144 0.33283 0.40963 0.0
H2097 H 0.84394 0.28656 0.50196 0.0
H2098 H 0.84958 0.30046 0.47795 0.0
C2099 C 0.86619 0.33982 0.39581 0.0
C2100 C 0.84073 0.32099 0.42571 0.0
H2101 H 0.83928 0.32839 0.46379 0.0
C2102 C 0.83317 0.30654 0.42615 0.0
C2103 C 0.84259 0.3291 0.43941 0.0
C2104 C 0.84962 0.34502 0.43961 0.0
C2105 C 0.82794 0.29983 0.43995 0.0
C2106 C 0.83019 0.3078 0.4537 0.0
C2107 C 0.83752 0.32231 0.45324 0.0
C2108 C 0.82623 0.30074 0.46892 0.0
C2109 C 0.82049 0.28407 0.43986 0.0
C2110 C 0.81113 0.2967 0.47214 0.0
C2111 C 0.80782 0.28886 0.48608 0.0
C2112 C 0.81959 0.28483 0.4969 0.0
C2113 C 0.83461 0.28948 0.49386 0.0
C2114 C 0.83788 0.29742 0.48012 0.0
H2115 H 0.82153 0.27868 0.42884 0.0
H2116 H 0.82557 0.27717 0.44958 0.0
H2117 H 0.8083 0.28419 0.44147 0.0
H2118 H 0.80195 0.29928 0.46372 0.0
H2119 H 0.79617 0.2853 0.48802 0.0
H2120 H 0.16845 0.72748 0.70692 0.0
H2121 H 0.14744 0.73561 0.71997 0.0
H2122 H 0.12363 0.69187 0.71558 0.0
H2123 H 0.1444 0.68389 0.70212 0.0
H2124 H 0.11304 0.73221 0.70755 0.0
H2125 H 0.1282 0.70276 0.76396 0.0
H2126 H 0.14203 0.70848 0.75029 0.0
H2127 H 0.12847 0.69279 0.74656 0.0
C2128 C 0.15863 0.7197 0.70859 0.0
C2129 C 0.15805 0.70505 0.70356 0.0
C2130 C 0.14669 0.72431 0.71609 0.0
C2131 C 0.13404 0.7143 0.71886 0.0
C2132 C 0.13336 0.69972 0.7137 0.0
H2133 H 0.05527 0.71757 0.77077 0.0
H2134 H 0.07595 0.71019 0.75697 0.0
C2135 C 0.14522 0.69516 0.70607 0.0
C2136 C 0.12155 0.71905 0.72719 0.0
H2137 H 0.10586 0.71498 0.76184 0.0
C2138 C 0.11147 0.72851 0.71943 0.0
C2139 C 0.11946 0.71408 0.74263 0.0
C2140 C 0.13011 0.70402 0.75148 0.0
C2141 C 0.09918 0.73296 0.72664 0.0
C2142 C 0.09719 0.72819 0.74222 0.0
C2143 C 0.10734 0.7187 0.74994 0.0
C2144 C 0.08462 0.73279 0.7507 0.0
C2145 C 0.08822 0.74236 0.71728 0.0
C2146 C 0.08267 0.74795 0.75207 0.0
C2147 C 0.07076 0.75219 0.75988 0.0
C2148 C 0.06066 0.74137 0.76676 0.0
C2149 C 0.06287 0.7262 0.76571 0.0
C2150 C 0.07469 0.72197 0.75776 0.0
H2151 H 0.08859 0.74114 0.70466 0.0
H2152 H 0.07645 0.7393 0.72033 0.0
H2153 H 0.09131 0.75429 0.71966 0.0
H2154 H 0.09042 0.75656 0.7472 0.0
H2155 H 0.06959 0.76396 0.76071 0.0
H2156 H 0.85447 0.68543 0.69942 0.0
H2157 H 0.85785 0.66549 0.71951 0.0
H2158 H 0.86837 0.6363 0.68492 0.0
H2159 H 0.86489 0.65627 0.6649 0.0
H2160 H 0.84686 0.62339 0.70284 0.0
H2161 H 0.89554 0.64823 0.74007 0.0
H2162 H 0.88036 0.66005 0.73675 0.0
H2163 H 0.89043 0.65564 0.72078 0.0
C2164 C 0.85768 0.67478 0.69624 0.0
C2165 C 0.8593 0.67222 0.68072 0.0
C2166 C 0.85971 0.66346 0.70768 0.0
C2167 C 0.86356 0.64946 0.70374 0.0
C2168 C 0.86544 0.64702 0.68822 0.0
H2169 H 0.88339 0.57317 0.76641 0.0
H2170 H 0.88585 0.59508 0.74842 0.0
C2171 C 0.86337 0.65834 0.6768 0.0
C2172 C 0.8644 0.637 0.71556 0.0
H2173 H 0.88158 0.62659 0.7507 0.0
C2174 C 0.85454 0.62406 0.71324 0.0
C2175 C 0.87454 0.63782 0.72905 0.0
C2176 C 0.88592 0.65112 0.73177 0.0
C2177 C 0.85425 0.61207 0.72421 0.0
C2178 C 0.86388 0.61316 0.73802 0.0
C2179 C 0.87408 0.62589 0.74018 0.0
C2180 C 0.86323 0.60117 0.75035 0.0
C2181 C 0.84362 0.59831 0.7209 0.0
C2182 C 0.84994 0.59774 0.75781 0.0
C2183 C 0.84851 0.5853 0.76803 0.0
C2184 C 0.86039 0.57609 0.77106 0.0
C2185 C 0.87407 0.58008 0.76433 0.0
C2186 C 0.87547 0.59255 0.75402 0.0
H2187 H 0.83993 0.59769 0.70837 0.0
H2188 H 0.84904 0.588 0.72482 0.0
H2189 H 0.8334 0.59861 0.72725 0.0
H2190 H 0.84048 0.60444 0.75536 0.0
H2191 H 0.83796 0.58267 0.7733 0.0
H2192 H 0.90333 0.33893 0.7289 0.0
H2193 H 0.92594 0.32687 0.73908 0.0
H2194 H 0.94807 0.3427 0.69833 0.0
H2195 H 0.92521 0.35451 0.68807 0.0
H2196 H 0.95517 0.31408 0.70882 0.0
H2197 H 0.96257 0.353 0.75684 0.0
H2198 H 0.94466 0.342 0.75577 0.0
H2199 H 0.94917 0.3553 0.74028 0.0
C2200 C 0.91292 0.33946 0.72201 0.0
C2201 C 0.91264 0.3476 0.70777 0.0
C2202 C 0.92586 0.33273 0.72786 0.0
C2203 C 0.93886 0.33421 0.71967 0.0
C2204 C 0.93822 0.3415 0.70492 0.0
H2205 H 0.03033 0.32723 0.76189 0.0
H2206 H 1.00688 0.33547 0.74897 0.0
C2207 C 0.92519 0.34816 0.69901 0.0
C2208 C 0.95334 0.32903 0.72694 0.0
H2209 H 0.97897 0.33366 0.75839 0.0
C2210 C 0.9604 0.31836 0.71965 0.0
C2211 C 0.96034 0.33484 0.74092 0.0
C2212 C 0.9539 0.34702 0.74885 0.0
C2213 C 0.97408 0.31313 0.72611 0.0
C2214 C 0.98076 0.31853 0.74041 0.0
C2215 C 0.97381 0.32939 0.74753 0.0
C2216 C 0.9951 0.31333 0.74809 0.0
C2217 C 0.9814 0.30213 0.71737 0.0
C2218 C 0.99629 0.29815 0.75215 0.0
C2219 C 1.00973 0.2934 0.75954 0.0
C2220 C 0.02224 0.30375 0.76323 0.0
C2221 C 0.02092 0.31897 0.75938 0.0
C2222 C 1.00751 0.32369 0.7519 0.0
H2223 H 0.97736 0.30245 0.70489 0.0
H2224 H 0.9939 0.30439 0.71844 0.0
H2225 H 0.97846 0.29068 0.72221 0.0
H2226 H 0.98676 0.28996 0.74978 0.0
H2227 H 1.01024 0.28163 0.76258 0.0
H2228 H 0.22709 0.40034 0.6526 0.0
H2229 H 0.24126 0.42482 0.65708 0.0
H2230 H 0.25988 0.40777 0.70132 0.0
H2231 H 0.24567 0.38342 0.69679 0.0
H2232 H 0.23672 0.44133 0.68406 0.0
H2233 H 0.29682 0.43108 0.68139 0.0
H2234 H 0.28133 0.41937 0.67221 0.0
H2235 H 0.2859 0.41745 0.69273 0.0
C2236 C 0.23454 0.40181 0.66306 0.0
C2237 C 0.23538 0.39013 0.67437 0.0
C2238 C 0.24255 0.41574 0.66565 0.0
C2239 C 0.25173 0.41807 0.67947 0.0
C2240 C 0.25307 0.40616 0.69047 0.0
H2241 H 0.29735 0.48909 0.73224 0.0
H2242 H 0.28902 0.46576 0.71967 0.0
C2243 C 0.24494 0.39231 0.68794 0.0
C2244 C 0.25855 0.43328 0.68324 0.0
H2245 H 0.29218 0.45363 0.69254 0.0
C2246 C 0.24885 0.44413 0.68569 0.0
C2247 C 0.27436 0.4368 0.68553 0.0
C2248 C 0.28526 0.42562 0.68273 0.0
C2249 C 0.25448 0.45822 0.691 0.0
C2250 C 0.27033 0.46176 0.69344 0.0
C2251 C 0.28005 0.45099 0.69061 0.0
C2252 C 0.27693 0.47619 0.69992 0.0
C2253 C 0.24334 0.46886 0.69469 0.0
C2254 C 0.27348 0.48993 0.69271 0.0
C2255 C 0.27808 0.50333 0.69997 0.0
C2256 C 0.28649 0.50327 0.71446 0.0
C2257 C 0.29088 0.48958 0.7211 0.0
C2258 C 0.2861 0.47619 0.71392 0.0
H2259 H 0.23194 0.46303 0.69604 0.0
H2260 H 0.24723 0.47465 0.7055 0.0
H2261 H 0.24221 0.47741 0.68509 0.0
H2262 H 0.26681 0.49028 0.68167 0.0
H2263 H 0.27465 0.51368 0.69446 0.0
H2264 H 0.16258 0.32405 0.3269 0.0
H2265 H 0.13698 0.31627 0.31569 0.0
H2266 H 0.12288 0.35933 0.32445 0.0
H2267 H 0.14857 0.36704 0.33575 0.0
H2268 H 0.11179 0.31576 0.33371 0.0
H2269 H 0.10448 0.351 0.27944 0.0
H2270 H 0.12287 0.34756 0.28868 0.0
H2271 H 0.11186 0.3605 0.2966 0.0
C2272 C 0.15402 0.33185 0.32622 0.0
C2273 C 0.15738 0.34606 0.3322 0.0
C2274 C 0.13948 0.32747 0.31979 0.0
C2275 C 0.1281 0.33728 0.31914 0.0
C2276 C 0.13158 0.35171 0.3246 0.0
H2277 H 0.03212 0.30912 0.31424 0.0
H2278 H 0.05605 0.32484 0.3173 0.0
C2279 C 0.14617 0.35608 0.33106 0.0
C2280 C 0.11231 0.33173 0.31438 0.0
H2281 H 0.08295 0.33556 0.2868 0.0
C2282 C 0.10547 0.32011 0.32348 0.0
C2283 C 0.10415 0.33748 0.30103 0.0
C2284 C 0.11119 0.34976 0.29076 0.0
C2285 C 0.0907 0.31399 0.31954 0.0
C2286 C 0.08253 0.31968 0.3062 0.0
C2287 C 0.08928 0.33135 0.29709 0.0
C2288 C 0.06723 0.31288 0.3014 0.0
C2289 C 0.08393 0.30127 0.32952 0.0
C2290 C 0.06552 0.30139 0.29096 0.0
C2291 C 0.05192 0.29231 0.28925 0.0
C2292 C 0.03985 0.29461 0.29799 0.0
C2293 C 0.0412 0.307 0.30739 0.0
C2294 C 0.05484 0.31603 0.30914 0.0
H2295 H 0.09218 0.29746 0.3389 0.0
H2296 H 0.0741 0.30487 0.33486 0.0
H2297 H 0.07977 0.29166 0.32232 0.0
H2298 H 0.07502 0.29878 0.28496 0.0
H2299 H 0.05121 0.28293 0.28183 0.0
H2300 H 0.23101 0.6351 0.30994 0.0
H2301 H 0.24045 0.61391 0.29815 0.0
H2302 H 0.23405 0.58695 0.34007 0.0
H2303 H 0.22411 0.60797 0.35147 0.0
H2304 H 0.26472 0.59994 0.30663 0.0
H2305 H 0.2153 0.55821 0.30892 0.0
H2306 H 0.21417 0.57768 0.3122 0.0
H2307 H 0.22098 0.56524 0.32766 0.0
C2308 C 0.23141 0.62452 0.31643 0.0
C2309 C 0.22679 0.62302 0.33151 0.0
C2310 C 0.23683 0.61245 0.30976 0.0
C2311 C 0.23771 0.59867 0.31807 0.0
C2312 C 0.23307 0.59725 0.3332 0.0
H2313 H 0.28708 0.52346 0.32075 0.0
H2314 H 0.2703 0.54283 0.32365 0.0
C2315 C 0.22754 0.60927 0.33978 0.0
C2316 C 0.24443 0.58612 0.31143 0.0
H2317 H 0.23931 0.54845 0.30655 0.0
C2318 C 0.25902 0.58876 0.3063 0.0
C2319 C 0.23701 0.57149 0.31089 0.0
C2320 C 0.22093 0.56802 0.31506 0.0
C2321 C 0.26665 0.57706 0.30152 0.0
C2322 C 0.25953 0.56234 0.30182 0.0
C2323 C 0.24475 0.55976 0.30634 0.0
C2324 C 0.26799 0.54936 0.29931 0.0
C2325 C 0.28259 0.58036 0.2969 0.0
C2326 C 0.27188 0.54625 0.28454 0.0
C2327 C 0.28138 0.53497 0.2828 0.0
C2328 C 0.28726 0.52682 0.29585 0.0
C2329 C 0.28276 0.52957 0.31047 0.0
C2330 C 0.27316 0.54063 0.31216 0.0
H2331 H 0.28689 0.59226 0.29823 0.0
H2332 H 0.29028 0.57323 0.30404 0.0
H2333 H 0.28297 0.57766 0.28463 0.0
H2334 H 0.26796 0.55287 0.27446 0.0
H2335 H 0.28477 0.53319 0.27142 0.0
H2336 H 0.9075 0.66238 0.33062 0.0
H2337 H 0.93009 0.66286 0.31622 0.0
H2338 H 0.92234 0.70717 0.29772 0.0
H2339 H 0.89928 0.70612 0.31111 0.0
H2340 H 0.93511 0.69331 0.27738 0.0
H2341 H 0.96723 0.68523 0.33468 0.0
H2342 H 0.95401 0.66983 0.32898 0.0
H2343 H 0.9473 0.68737 0.3329 0.0
C2344 C 0.91039 0.67195 0.32303 0.0
C2345 C 0.90189 0.68436 0.32219 0.0
C2346 C 0.92342 0.67235 0.315 0.0
C2347 C 0.92832 0.68531 0.30634 0.0
C2348 C 0.919 0.69711 0.30443 0.0
H2349 H 1.0095 0.73599 0.30234 0.0
H2350 H 0.98616 0.72098 0.30656 0.0
C2351 C 0.90586 0.69656 0.31216 0.0
C2352 C 0.94374 0.68754 0.30064 0.0
H2353 H 0.98117 0.69172 0.31357 0.0
C2354 C 0.94522 0.69274 0.28523 0.0
C2355 C 0.95699 0.68684 0.31089 0.0
C2356 C 0.95638 0.68214 0.3278 0.0
C2357 C 0.95935 0.69823 0.2801 0.0
C2358 C 0.97245 0.69811 0.29056 0.0
C2359 C 0.97112 0.6918 0.30557 0.0
C2360 C 0.987 0.70684 0.28734 0.0
C2361 C 0.95997 0.7051 0.26392 0.0
C2362 C 0.99543 0.70396 0.27503 0.0
C2363 C 1.00898 0.71279 0.27242 0.0
C2364 C 0.01431 0.72449 0.28219 0.0
C2365 C 1.00587 0.72709 0.29456 0.0
C2366 C 0.99244 0.71845 0.29704 0.0
H2367 H 0.94852 0.70624 0.25806 0.0
H2368 H 0.96636 0.71631 0.26414 0.0
H2369 H 0.96593 0.69795 0.25693 0.0
H2370 H 0.99161 0.69491 0.26751 0.0
H2371 H 0.01523 0.71048 0.26282 0.0
H2372 H 0.83263 0.37308 0.33596 0.0
H2373 H 0.8262 0.39454 0.31873 0.0
H2374 H 0.8723 0.41394 0.32522 0.0
H2375 H 0.87861 0.39272 0.34278 0.0
H2376 H 0.83156 0.42716 0.3263 0.0
H2377 H 0.8615 0.41199 0.27664 0.0
H2378 H 0.85554 0.39841 0.29148 0.0
H2379 H 0.87171 0.4115 0.29547 0.0
C2380 C 0.84132 0.38202 0.3338 0.0
C2381 C 0.85612 0.38123 0.34065 0.0
C2382 C 0.83767 0.39421 0.32392 0.0
C2383 C 0.84881 0.40575 0.32054 0.0
C2384 C 0.86358 0.40506 0.32748 0.0
H2385 H 0.84889 0.48598 0.25905 0.0
H2386 H 0.85588 0.46465 0.27606 0.0
C2387 C 0.86718 0.39294 0.33747 0.0
C2388 C 0.84495 0.41863 0.30996 0.0
H2389 H 0.85053 0.43491 0.27419 0.0
C2390 C 0.83566 0.42885 0.31489 0.0
C2391 C 0.85044 0.4209 0.29515 0.0
C2392 C 0.86028 0.41011 0.28923 0.0
C2393 C 0.83185 0.44138 0.30548 0.0
C2394 C 0.83708 0.44352 0.29049 0.0
C2395 C 0.84646 0.4333 0.28562 0.0
C2396 C 0.83284 0.4562 0.27968 0.0
C2397 C 0.82261 0.45241 0.31193 0.0
C2398 C 0.81757 0.45839 0.27563 0.0
C2399 C 0.81358 0.47061 0.26602 0.0
C2400 C 0.82475 0.48083 0.25996 0.0
C2401 C 0.84003 0.4783 0.26347 0.0
C2402 C 0.84402 0.46613 0.27325 0.0
H2403 H 0.82364 0.45179 0.32479 0.0
H2404 H 0.82612 0.46403 0.30791 0.0
H2405 H 0.8105 0.44977 0.30801 0.0
H2406 H 0.80869 0.45064 0.27995 0.0
H2407 H 0.80171 0.47203 0.26327 0.0
H2408 H 0.21915 0.68938 0.69702 0.0
H2409 H 0.23526 0.66872 0.70323 0.0
H2410 H 0.19684 0.63698 0.6925 0.0
H2411 H 0.18094 0.65759 0.68627 0.0
H2412 H 0.23024 0.64709 0.72687 0.0
H2413 H 0.23008 0.62005 0.6711 0.0
H2414 H 0.2249 0.63883 0.67232 0.0
H2415 H 0.21146 0.62307 0.67584 0.0
C2416 C 0.21437 0.67797 0.69556 0.0
C2417 C 0.19891 0.67497 0.6911 0.0
C2418 C 0.2235 0.66619 0.6992 0.0
C2419 C 0.21731 0.65126 0.6982 0.0
C2420 C 0.20198 0.64835 0.69307 0.0
H2421 H 0.23842 0.57098 0.74984 0.0
H2422 H 0.22873 0.5941 0.73893 0.0
C2423 C 0.19288 0.6601 0.68955 0.0
C2424 C 0.22633 0.63869 0.70397 0.0
H2425 H 0.23686 0.60518 0.69402 0.0
C2426 C 0.23187 0.63804 0.71962 0.0
C2427 C 0.22858 0.62689 0.69453 0.0
C2428 C 0.22357 0.62728 0.67747 0.0
C2429 C 0.23898 0.62565 0.72622 0.0
C2430 C 0.24048 0.61348 0.71698 0.0
C2431 C 0.23557 0.61442 0.70116 0.0
C2432 C 0.24656 0.59947 0.72366 0.0
C2433 C 0.24475 0.62564 0.74308 0.0
C2434 C 0.25969 0.5946 0.71852 0.0
C2435 C 0.26525 0.5813 0.72472 0.0
C2436 C 0.25768 0.57248 0.73605 0.0
C2437 C 0.24448 0.57738 0.74107 0.0
C2438 C 0.239 0.5907 0.73494 0.0
H2439 H 0.24655 0.63714 0.74735 0.0
H2440 H 0.2363 0.61915 0.75003 0.0
H2441 H 0.25555 0.62036 0.74507 0.0
H2442 H 0.26566 0.60112 0.70974 0.0
H2443 H 0.27531 0.57779 0.72043 0.0
H2444 H 0.19612 0.39118 0.35035 0.0
H2445 H 0.21872 0.40886 0.34843 0.0
H2446 H 0.24546 0.37218 0.34363 0.0
H2447 H 0.22279 0.35453 0.34551 0.0
H2448 H 0.2598 0.39546 0.36354 0.0
H2449 H 0.23676 0.41713 0.30602 0.0
H2450 H 0.22451 0.41755 0.32131 0.0
H2451 H 0.22904 0.39992 0.31509 0.0
C2452 C 0.20687 0.38698 0.34895 0.0
C2453 C 0.20781 0.37161 0.3479 0.0
C2454 C 0.21973 0.39701 0.3479 0.0
C2455 C 0.2337 0.39181 0.3457 0.0
C2456 C 0.23478 0.37639 0.34532 0.0
H2457 H 0.30696 0.44405 0.30433 0.0
H2458 H 0.28854 0.42392 0.31244 0.0
C2459 C 0.22189 0.36635 0.34639 0.0
C2460 C 0.24691 0.40251 0.34275 0.0
H2461 H 0.2595 0.42955 0.31674 0.0
C2462 C 0.25979 0.40292 0.35332 0.0
C2463 C 0.24689 0.41206 0.32929 0.0
C2464 C 0.23363 0.41161 0.31718 0.0
C2465 C 0.27262 0.41285 0.35086 0.0
C2466 C 0.27244 0.42262 0.33756 0.0
C2467 C 0.25959 0.42207 0.32695 0.0
C2468 C 0.28542 0.43349 0.33413 0.0
C2469 C 0.28633 0.41263 0.36233 0.0
C2470 C 0.2901 0.44535 0.34384 0.0
C2471 C 0.30069 0.45686 0.33922 0.0
C2472 C 0.30658 0.45676 0.32474 0.0
C2473 C 0.30246 0.44448 0.31546 0.0
C2474 C 0.29198 0.43297 0.32009 0.0
H2475 H 0.28605 0.40217 0.36973 0.0
H2476 H 0.29689 0.41382 0.35631 0.0
H2477 H 0.28664 0.42217 0.36997 0.0
H2478 H 0.28498 0.44612 0.35458 0.0
H2479 H 0.30354 0.46627 0.34652 0.0
H2480 H 0.21155 0.6834 0.34051 0.0
H2481 H 0.19127 0.7002 0.33537 0.0
H2482 H 0.15797 0.66283 0.3417 0.0
H2483 H 0.17825 0.64621 0.34704 0.0
H2484 H 0.16884 0.69761 0.31095 0.0
H2485 H 0.14301 0.69473 0.36687 0.0
H2486 H 0.16159 0.68894 0.36508 0.0
H2487 H 0.14499 0.67673 0.35975 0.0
C2488 C 0.19989 0.67893 0.34116 0.0
C2489 C 0.19638 0.66358 0.34412 0.0
C2490 C 0.18833 0.68847 0.33814 0.0
C2491 C 0.17307 0.68281 0.33824 0.0
C2492 C 0.16963 0.66753 0.34178 0.0
H2493 H 0.09325 0.7156 0.28941 0.0
H2494 H 0.11514 0.70236 0.29873 0.0
C2495 C 0.18118 0.65802 0.34473 0.0
C2496 C 0.16074 0.69257 0.33344 0.0
H2497 H 0.12846 0.70469 0.34493 0.0
C2498 C 0.16009 0.69927 0.31843 0.0
C2499 C 0.14936 0.69485 0.34322 0.0
C2500 C 0.14981 0.68856 0.35969 0.0
C2501 C 0.14817 0.70776 0.31281 0.0
C2502 C 0.13645 0.7095 0.32236 0.0
C2503 C 0.13734 0.70322 0.33754 0.0
C2504 C 0.1231 0.71763 0.31671 0.0
C2505 C 0.14826 0.71486 0.29668 0.0
C2506 C 0.12005 0.73048 0.32389 0.0
C2507 C 0.10752 0.73817 0.31853 0.0
C2508 C 0.09765 0.7331 0.30593 0.0
C2509 C 0.10067 0.72007 0.29891 0.0
C2510 C 0.11322 0.71244 0.30426 0.0
H2511 H 0.15974 0.71581 0.29247 0.0
H2512 H 0.1406 0.70785 0.28865 0.0
H2513 H 0.14418 0.72616 0.29623 0.0
H2514 H 0.12749 0.73469 0.33355 0.0
H2515 H 0.10573 0.74819 0.32418 0.0
H2516 H 0.87738 0.6481 0.3491 0.0
H2517 H 0.866 0.62508 0.33726 0.0
H2518 H 0.85855 0.64962 0.29363 0.0
H2519 H 0.87029 0.67258 0.30555 0.0
H2520 H 0.83715 0.61992 0.32503 0.0
H2521 H 0.87642 0.61329 0.28032 0.0
H2522 H 0.88107 0.62599 0.29577 0.0
H2523 H 0.86894 0.63115 0.27908 0.0
C2524 C 0.87362 0.6484 0.3369 0.0
C2525 C 0.87477 0.66194 0.32813 0.0
C2526 C 0.86704 0.63533 0.33017 0.0
C2527 C 0.86146 0.63557 0.31453 0.0
C2528 C 0.86302 0.64907 0.30563 0.0
H2529 H 0.79648 0.56673 0.27225 0.0
H2530 H 0.80765 0.58908 0.28557 0.0
C2531 C 0.86972 0.66215 0.31238 0.0
C2532 C 0.85335 0.62185 0.30788 0.0
H2533 H 0.85358 0.5974 0.27921 0.0
C2534 C 0.84076 0.61496 0.31503 0.0
C2535 C 0.85811 0.61533 0.2949 0.0
C2536 C 0.87196 0.62172 0.28714 0.0
C2537 C 0.83284 0.60174 0.3096 0.0
C2538 C 0.83745 0.59537 0.29645 0.0
C2539 C 0.85 0.60231 0.28926 0.0
C2540 C 0.8299 0.58123 0.29019 0.0
C2541 C 0.8199 0.59451 0.31823 0.0
C2542 C 0.83857 0.5693 0.28853 0.0
C2543 C 0.83226 0.55668 0.28083 0.0
C2544 C 0.8171 0.55563 0.2747 0.0
C2545 C 0.80812 0.56715 0.27711 0.0
C2546 C 0.81452 0.57993 0.28469 0.0
H2547 H 0.82037 0.59849 0.33017 0.0
H2548 H 0.80906 0.59739 0.31203 0.0
H2549 H 0.8199 0.58216 0.31889 0.0
H2550 H 0.85042 0.56998 0.29272 0.0
H2551 H 0.83946 0.54798 0.27912 0.0
H2552 H 0.9017 0.35476 0.36795 0.0
H2553 H 0.92094 0.33743 0.3657 0.0
H2554 H 0.8858 0.30182 0.35696 0.0
H2555 H 0.8665 0.31932 0.3592 0.0
H2556 H 0.91467 0.29455 0.37746 0.0
H2557 H 0.92397 0.3229 0.3202 0.0
H2558 H 0.9243 0.33494 0.33612 0.0
H2559 H 0.90704 0.32421 0.32985 0.0
C2560 C 0.89815 0.34312 0.36601 0.0
C2561 C 0.8827 0.33831 0.36374 0.0
C2562 C 0.9091 0.33327 0.36464 0.0
C2563 C 0.9048 0.31839 0.36096 0.0
C2564 C 0.88936 0.31326 0.35979 0.0
H2565 H 0.96293 0.26283 0.31782 0.0
H2566 H 0.94146 0.27523 0.32481 0.0
C2567 C 0.87836 0.32318 0.36116 0.0
C2568 C 0.9164 0.30877 0.35688 0.0
H2569 H 0.94108 0.30536 0.3296 0.0
C2570 C 0.92041 0.29683 0.36697 0.0
C2571 C 0.92374 0.31167 0.3431 0.0
C2572 C 0.91952 0.32404 0.33159 0.0
C2573 C 0.93188 0.28797 0.36382 0.0
C2574 C 0.9396 0.29121 0.35028 0.0
C2575 C 0.93526 0.3029 0.34001 0.0
C2576 C 0.95238 0.28283 0.34659 0.0
C2577 C 0.93556 0.27513 0.37494 0.0
C2578 C 0.96575 0.28298 0.35645 0.0
C2579 C 0.97814 0.27599 0.35242 0.0
C2580 C 0.97751 0.26872 0.33836 0.0
C2581 C 0.96399 0.26844 0.32862 0.0
C2582 C 0.95162 0.27547 0.33265 0.0
H2583 H 0.92614 0.27164 0.38229 0.0
H2584 H 0.93807 0.26536 0.36865 0.0
H2585 H 0.94572 0.27865 0.38267 0.0
H2586 H 0.96677 0.28887 0.3671 0.0
H2587 H 0.98835 0.2767 0.36015 0.0
H2588 H 0.88169 0.40134 0.68675 0.0
H2589 H 0.87155 0.42377 0.69497 0.0
H2590 H 0.86679 0.40276 0.74031 0.0
H2591 H 0.87618 0.38008 0.73179 0.0
H2592 H 0.84279 0.41813 0.7309 0.0
H2593 H 0.89583 0.45391 0.72183 0.0
H2594 H 0.88722 0.44516 0.70474 0.0
H2595 H 0.89454 0.43388 0.72089 0.0
C2596 C 0.87827 0.40149 0.69839 0.0
C2597 C 0.87982 0.38905 0.70869 0.0
C2598 C 0.87264 0.41435 0.70314 0.0
C2599 C 0.86869 0.41512 0.71838 0.0
C2600 C 0.86983 0.40251 0.72853 0.0
H2601 H 0.8685 0.48841 0.77537 0.0
H2602 H 0.87274 0.46745 0.76042 0.0
C2603 C 0.87531 0.38961 0.72372 0.0
C2604 C 0.86381 0.42913 0.72399 0.0
H2605 H 0.87574 0.46571 0.73013 0.0
C2606 C 0.84995 0.42857 0.73065 0.0
C2607 C 0.87319 0.44275 0.72376 0.0
C2608 C 0.88858 0.44399 0.71756 0.0
C2609 C 0.84539 0.4411 0.73741 0.0
C2610 C 0.85481 0.45469 0.73722 0.0
C2611 C 0.86845 0.45535 0.73015 0.0
C2612 C 0.85177 0.46779 0.7459 0.0
C2613 C 0.8309 0.43948 0.74534 0.0
C2614 C 0.83855 0.47519 0.74268 0.0
C2615 C 0.83599 0.4873 0.7514 0.0
C2616 C 0.84667 0.49225 0.76339 0.0
C2617 C 0.85998 0.48496 0.76628 0.0
C2618 C 0.86247 0.47292 0.75769 0.0
H2619 H 0.82654 0.42759 0.74712 0.0
H2620 H 0.83258 0.44467 0.75675 0.0
H2621 H 0.82215 0.44525 0.73809 0.0
H2622 H 0.83024 0.47163 0.73345 0.0
H2623 H 0.82565 0.49269 0.74884 0.0
H2624 H 0.17936 0.34947 0.66298 0.0
H2625 H 0.15879 0.334 0.67471 0.0
H2626 H 0.18571 0.33333 0.7185 0.0
H2627 H 0.20648 0.3482 0.70655 0.0
H2628 H 0.17201 0.30592 0.71218 0.0
H2629 H 0.12987 0.34783 0.70292 0.0
H2630 H 0.13731 0.34283 0.68557 0.0
H2631 H 0.14961 0.35244 0.70012 0.0
C2632 C 0.18085 0.34591 0.67508 0.0
C2633 C 0.19443 0.35007 0.68391 0.0
C2634 C 0.16906 0.33722 0.68182 0.0
C2635 C 0.17056 0.33271 0.69758 0.0
C2636 C 0.18422 0.33674 0.70635 0.0
H2637 H 0.12016 0.29596 0.77056 0.0
H2638 H 0.13858 0.30615 0.75274 0.0
C2639 C 0.19604 0.34532 0.69958 0.0
C2640 C 0.15805 0.32371 0.70503 0.0
H2641 H 0.12165 0.32444 0.71436 0.0
C2642 C 0.16098 0.30995 0.71255 0.0
C2643 C 0.14359 0.32891 0.7055 0.0
C2644 C 0.13989 0.34386 0.69822 0.0
C2645 C 0.15001 0.30146 0.72078 0.0
C2646 C 0.13575 0.30684 0.72156 0.0
C2647 C 0.13258 0.3203 0.71361 0.0
C2648 C 0.12471 0.29962 0.73209 0.0
C2649 C 0.15383 0.2869 0.72889 0.0
C2650 C 0.11076 0.29251 0.72637 0.0
C2651 C 0.10016 0.28648 0.7366 0.0
C2652 C 0.10329 0.2878 0.75266 0.0
C2653 C 0.11736 0.2948 0.75826 0.0
C2654 C 0.12794 0.30059 0.7481 0.0
H2655 H 0.16375 0.28261 0.72431 0.0
H2656 H 0.15656 0.28865 0.74141 0.0
H2657 H 0.14404 0.27831 0.72765 0.0
H2658 H 0.10803 0.29174 0.71402 0.0
H2659 H 0.0894 0.28124 0.73195 0.0
H2660 H 0.88986 0.68547 0.67507 0.0
H2661 H 0.91169 0.69533 0.692 0.0
H2662 H 0.88696 0.73189 0.70258 0.0
H2663 H 0.865 0.72169 0.68606 0.0
H2664 H 0.92804 0.72303 0.68895 0.0
H2665 H 0.90272 0.71612 0.74531 0.0
H2666 H 0.89426 0.70694 0.72826 0.0
H2667 H 0.89191 0.72627 0.7306 0.0
C2668 C 0.88909 0.69547 0.68125 0.0
C2669 C 0.87588 0.70288 0.67936 0.0
C2670 C 0.90153 0.70113 0.69079 0.0
C2671 C 0.90089 0.71427 0.69863 0.0
C2672 C 0.88761 0.72162 0.69682 0.0
H2673 H 0.97896 0.7694 0.73968 0.0
H2674 H 0.95694 0.75989 0.72289 0.0
C2675 C 0.87517 0.71591 0.68732 0.0
C2676 C 0.9143 0.72054 0.70827 0.0
H2677 H 0.92661 0.73019 0.74501 0.0
C2678 C 0.92776 0.72458 0.70122 0.0
C2679 C 0.9139 0.72242 0.72428 0.0
C2680 C 0.89998 0.71759 0.73262 0.0
C2681 C 0.94087 0.73052 0.70976 0.0
C2682 C 0.94038 0.73273 0.7257 0.0
C2683 C 0.92691 0.72863 0.73275 0.0
C2684 C 0.95387 0.73857 0.73552 0.0
C2685 C 0.95521 0.73402 0.70173 0.0
C2686 C 0.95928 0.72986 0.74829 0.0
C2687 C 0.97169 0.7353 0.75794 0.0
C2688 C 0.979 0.74959 0.75502 0.0
C2689 C 0.97364 0.75831 0.74216 0.0
C2690 C 0.96111 0.75287 0.73252 0.0
H2691 H 0.95468 0.72831 0.69064 0.0
H2692 H 0.95692 0.74623 0.69911 0.0
H2693 H 0.96517 0.73066 0.70923 0.0
H2694 H 0.95386 0.71881 0.75082 0.0
H2695 H 0.97553 0.72827 0.76773 0.0
H2696 H 0.69795 0.18075 0.65631 0.0
H2697 H 0.71227 0.18895 0.63393 0.0
H2698 H 0.73339 0.22673 0.65883 0.0
H2699 H 0.71861 0.21874 0.68084 0.0
H2700 H 0.7245 0.23565 0.63052 0.0
H2701 H 0.75523 0.18553 0.62676 0.0
H2702 H 0.7351 0.18134 0.62531 0.0
H2703 H 0.74468 0.18823 0.643 0.0
C2704 C 0.70588 0.19063 0.657 0.0
C2705 C 0.70734 0.19907 0.67026 0.0
C2706 C 0.71408 0.19533 0.64425 0.0
C2707 C 0.72413 0.2084 0.64467 0.0
C2708 C 0.72575 0.21663 0.65813 0.0
H2709 H 0.7959 0.23203 0.58553 0.0
H2710 H 0.77946 0.22447 0.60599 0.0
C2711 C 0.71741 0.21204 0.67074 0.0
C2712 C 0.73263 0.21385 0.63102 0.0
H2713 H 0.75712 0.20374 0.60615 0.0
C2714 C 0.73166 0.22866 0.62522 0.0
C2715 C 0.74208 0.20484 0.62407 0.0
C2716 C 0.74448 0.18916 0.63019 0.0
C2717 C 0.73995 0.23473 0.61291 0.0
C2718 C 0.74921 0.22563 0.6058 0.0
C2719 C 0.74998 0.21075 0.61146 0.0
C2720 C 0.75912 0.23146 0.59334 0.0
C2721 C 0.73914 0.25099 0.60806 0.0
C2722 C 0.75336 0.23827 0.57933 0.0
C2723 C 0.76293 0.24293 0.56757 0.0
C2724 C 0.77835 0.24054 0.5695 0.0
C2725 C 0.78405 0.23395 0.58359 0.0
C2726 C 0.77462 0.22957 0.59534 0.0
H2727 H 0.73489 0.25728 0.61718 0.0
H2728 H 0.7504 0.25637 0.60538 0.0
H2729 H 0.73124 0.2519 0.59751 0.0
H2730 H 0.7414 0.23962 0.57729 0.0
H2731 H 0.75817 0.24781 0.55678 0.0
H2732 H 0.36633 0.19016 0.63295 0.0
H2733 H 0.35333 0.2026 0.61046 0.0
H2734 H 0.31493 0.20574 0.6367 0.0
H2735 H 0.32826 0.19359 0.65932 0.0
H2736 H 0.32551 0.19778 0.59276 0.0
H2737 H 0.3291 0.24931 0.62622 0.0
H2738 H 0.33904 0.23338 0.63295 0.0
H2739 H 0.31904 0.23296 0.63441 0.0
C2740 C 0.355 0.1933 0.6337 0.0
C2741 C 0.34823 0.19113 0.64769 0.0
C2742 C 0.34757 0.20034 0.62093 0.0
C2743 C 0.33325 0.20528 0.622 0.0
C2744 C 0.32606 0.20221 0.63572 0.0
H2745 H 0.29634 0.25807 0.54005 0.0
H2746 H 0.29638 0.23878 0.56125 0.0
C2747 C 0.33358 0.19524 0.64855 0.0
C2748 C 0.32678 0.21496 0.60927 0.0
H2749 H 0.32076 0.25134 0.6 0.0
C2750 C 0.32415 0.20943 0.59435 0.0
C2751 C 0.32514 0.23018 0.61141 0.0
C2752 C 0.32831 0.23691 0.62706 0.0
C2753 C 0.32066 0.2189 0.5814 0.0
C2754 C 0.31968 0.23421 0.58351 0.0
C2755 C 0.32146 0.23955 0.5985 0.0
C2756 C 0.31931 0.24531 0.57034 0.0
C2757 C 0.31901 0.21274 0.56547 0.0
C2758 C 0.33214 0.2553 0.56852 0.0
C2759 C 0.33215 0.26623 0.55658 0.0
C2760 C 0.31929 0.26748 0.54617 0.0
C2761 C 0.30643 0.25736 0.54788 0.0
C2762 C 0.30644 0.24634 0.55993 0.0
H2763 H 0.32116 0.20077 0.56574 0.0
H2764 H 0.30739 0.21387 0.56012 0.0
H2765 H 0.327 0.21922 0.55798 0.0
H2766 H 0.34219 0.25466 0.57643 0.0
H2767 H 0.34227 0.27378 0.55562 0.0
H2768 H 0.38069 0.8539 0.65642 0.0
H2769 H 0.37416 0.8362 0.6358 0.0
H2770 H 0.36527 0.80077 0.67014 0.0
H2771 H 0.37224 0.81854 0.69076 0.0
H2772 H 0.37872 0.79089 0.64597 0.0
H2773 H 0.33048 0.82252 0.62359 0.0
H2774 H 0.34826 0.83368 0.62383 0.0
H2775 H 0.3412 0.82634 0.64175 0.0
C2776 C 0.3776 0.84226 0.65948 0.0
C2777 C 0.37686 0.83751 0.67506 0.0
C2778 C 0.37374 0.83219 0.64774 0.0
C2779 C 0.36879 0.81722 0.65137 0.0
C2780 C 0.36892 0.81228 0.66702 0.0
H2781 H 0.313 0.7609 0.58601 0.0
H2782 H 0.3231 0.77578 0.60798 0.0
C2783 C 0.37294 0.82236 0.67879 0.0
C2784 C 0.36281 0.80696 0.63887 0.0
H2785 H 0.33623 0.80321 0.60812 0.0
C2786 C 0.3694 0.79355 0.63771 0.0
C2787 C 0.35043 0.81026 0.62827 0.0
C2788 C 0.34207 0.8239 0.62948 0.0
C2789 C 0.36416 0.78352 0.62608 0.0
C2790 C 0.35221 0.78715 0.61507 0.0
C2791 C 0.34548 0.80045 0.61642 0.0
C2792 C 0.34632 0.77733 0.60213 0.0
C2793 C 0.37127 0.769 0.62596 0.0
C2794 C 0.35595 0.7732 0.59144 0.0
C2795 C 0.35018 0.76458 0.57891 0.0
C2796 C 0.33461 0.76012 0.57662 0.0
C2797 C 0.32501 0.76426 0.58734 0.0
C2798 C 0.3308 0.77274 0.59994 0.0
H2799 H 0.37671 0.76589 0.63754 0.0
H2800 H 0.36278 0.75975 0.6223 0.0
H2801 H 0.38017 0.77023 0.61771 0.0
H2802 H 0.36789 0.77693 0.59256 0.0
H2803 H 0.35785 0.7618 0.57075 0.0
H2804 H 0.71025 0.85517 0.62077 0.0
H2805 H 0.72672 0.85302 0.59996 0.0
H2806 H 0.76561 0.85504 0.63334 0.0
H2807 H 0.74899 0.85669 0.65421 0.0
H2808 H 0.75124 0.87084 0.58947 0.0
H2809 H 0.7683 0.81575 0.61291 0.0
H2810 H 0.75287 0.82431 0.61984 0.0
H2811 H 0.77207 0.83059 0.62611 0.0
C2812 C 0.72233 0.85519 0.62358 0.0
C2813 C 0.72839 0.8559 0.63902 0.0
C2814 C 0.73172 0.85403 0.61173 0.0
C2815 C 0.74737 0.85357 0.61512 0.0
C2816 C 0.75354 0.85506 0.63049 0.0
H2817 H 0.81638 0.83413 0.55544 0.0
H2818 H 0.80351 0.84218 0.57685 0.0
C2819 C 0.7441 0.85616 0.64236 0.0
C2820 C 0.75701 0.85093 0.60261 0.0
H2821 H 0.77937 0.82582 0.59053 0.0
C2822 C 0.75744 0.86103 0.58973 0.0
C2823 C 0.76507 0.8381 0.60293 0.0
C2824 C 0.7645 0.82648 0.61611 0.0
C2825 C 0.7657 0.85864 0.57716 0.0
C2826 C 0.77356 0.8457 0.5774 0.0
C2827 C 0.77337 0.83576 0.5904 0.0
C2828 C 0.78156 0.8419 0.56404 0.0
C2829 C 0.766 0.87001 0.56377 0.0
C2830 C 0.7735 0.83906 0.54972 0.0
C2831 C 0.78083 0.83447 0.53744 0.0
C2832 C 0.79638 0.83259 0.53923 0.0
C2833 C 0.80446 0.83565 0.55356 0.0
C2834 C 0.7971 0.84018 0.56585 0.0
H2835 H 0.76304 0.88103 0.56715 0.0
H2836 H 0.77731 0.87149 0.55919 0.0
H2837 H 0.7576 0.86609 0.55432 0.0
H2838 H 0.76144 0.84005 0.54813 0.0
H2839 H 0.77429 0.83233 0.52656 0.0
H2840 H 0.67487 0.84098 0.37024 0.0
H2841 H 0.69203 0.83592 0.39316 0.0
H2842 H 0.72842 0.83377 0.36396 0.0
H2843 H 0.711 0.83823 0.34098 0.0
H2844 H 0.72711 0.81088 0.38611 0.0
H2845 H 0.72479 0.86518 0.41267 0.0
H2846 H 0.70654 0.85523 0.40868 0.0
H2847 H 0.71762 0.86183 0.39295 0.0
C2848 C 0.6865 0.83929 0.36878 0.0
C2849 C 0.69168 0.83993 0.35395 0.0
C2850 C 0.69633 0.83659 0.38184 0.0
C2851 C 0.71156 0.8347 0.38028 0.0
C2852 C 0.71672 0.83526 0.36542 0.0
H2853 H 0.78562 0.83918 0.4512 0.0
H2854 H 0.76703 0.84346 0.42948 0.0
C2855 C 0.70685 0.83788 0.35235 0.0
C2856 C 0.72204 0.8319 0.39412 0.0
H2857 H 0.73705 0.84662 0.42814 0.0
C2858 C 0.72932 0.81869 0.3953 0.0
C2859 C 0.72501 0.8422 0.406 0.0
C2860 C 0.7182 0.85697 0.40499 0.0
C2861 C 0.73944 0.81546 0.40808 0.0
C2862 C 0.74208 0.82556 0.42018 0.0
C2863 C 0.73486 0.8388 0.41895 0.0
C2864 C 0.75292 0.823 0.4338 0.0
C2865 C 0.74752 0.80146 0.40829 0.0
C2866 C 0.75099 0.81022 0.44367 0.0
C2867 C 0.76169 0.80767 0.45609 0.0
C2868 C 0.7744 0.81797 0.45894 0.0
C2869 C 0.77599 0.831 0.44933 0.0
C2870 C 0.76537 0.83348 0.4369 0.0
H2871 H 0.7472 0.79702 0.39656 0.0
H2872 H 0.75951 0.80356 0.4129 0.0
H2873 H 0.7419 0.79272 0.41588 0.0
H2874 H 0.74127 0.80216 0.44172 0.0
H2875 H 0.76008 0.79758 0.46334 0.0
H2876 H 0.70404 0.16573 0.38851 0.0
H2877 H 0.71336 0.17753 0.4128 0.0
H2878 H 0.74402 0.20792 0.38785 0.0
H2879 H 0.73406 0.19648 0.36361 0.0
H2880 H 0.74048 0.1761 0.42535 0.0
H2881 H 0.73207 0.23604 0.41724 0.0
H2882 H 0.72272 0.22236 0.40432 0.0
H2883 H 0.74184 0.23001 0.40187 0.0
C2884 C 0.71217 0.17546 0.38822 0.0
C2885 C 0.71806 0.18052 0.37425 0.0
C2886 C 0.71767 0.18207 0.40208 0.0
C2887 C 0.72937 0.19375 0.40226 0.0
C2888 C 0.73473 0.19927 0.3881 0.0
H2889 H 0.79832 0.20744 0.47871 0.0
H2890 H 0.78304 0.19991 0.45512 0.0
C2891 C 0.72903 0.19278 0.37422 0.0
C2892 C 0.73725 0.19872 0.41727 0.0
H2893 H 0.75111 0.2295 0.43725 0.0
C2894 C 0.74261 0.18779 0.42799 0.0
C2895 C 0.73999 0.21394 0.42092 0.0
C2896 C 0.7337 0.22623 0.41054 0.0
C2897 C 0.75086 0.19162 0.44199 0.0
C2898 C 0.75438 0.20688 0.44522 0.0
C2899 C 0.74867 0.21781 0.43471 0.0
C2900 C 0.76387 0.21169 0.45943 0.0
C2901 C 0.75552 0.17921 0.45325 0.0
C2902 C 0.75849 0.22127 0.46951 0.0
C2903 C 0.76733 0.22576 0.48289 0.0
C2904 C 0.78174 0.22074 0.48655 0.0
C2905 C 0.78717 0.21127 0.47639 0.0
C2906 C 0.7784 0.20692 0.46291 0.0
H2907 H 0.748 0.16876 0.45148 0.0
H2908 H 0.76718 0.1768 0.4514 0.0
H2909 H 0.7553 0.18235 0.46542 0.0
H2910 H 0.74736 0.22515 0.46711 0.0
H2911 H 0.76276 0.23298 0.49051 0.0
H2912 H 0.38988 0.19674 0.39131 0.0
H2913 H 0.38374 0.21307 0.41117 0.0
H2914 H 0.34225 0.22154 0.38412 0.0
H2915 H 0.34857 0.20539 0.36411 0.0
H2916 H 0.37801 0.24439 0.40599 0.0
H2917 H 0.32943 0.20897 0.4285 0.0
H2918 H 0.34318 0.20153 0.41767 0.0
H2919 H 0.32886 0.2121 0.40783 0.0
C2920 C 0.37946 0.2021 0.38966 0.0
C2921 C 0.36968 0.19985 0.37623 0.0
C2922 C 0.37595 0.21137 0.40099 0.0
C2923 C 0.36249 0.21842 0.39917 0.0
C2924 C 0.35259 0.21603 0.38585 0.0
H2925 H 0.32207 0.2775 0.45641 0.0
H2926 H 0.32765 0.26152 0.43614 0.0
C2927 C 0.35616 0.20681 0.37446 0.0
C2928 C 0.35913 0.22868 0.41098 0.0
H2929 H 0.33485 0.23301 0.43834 0.0
C2930 C 0.3686 0.24191 0.4131 0.0
C2931 C 0.3468 0.22544 0.42015 0.0
C2932 C 0.3365 0.2112 0.41857 0.0
C2933 C 0.36595 0.25212 0.42404 0.0
C2934 C 0.35373 0.2488 0.4334 0.0
C2935 C 0.34423 0.23556 0.4312 0.0
C2936 C 0.35058 0.25886 0.44554 0.0
C2937 C 0.37607 0.26652 0.42516 0.0
C2938 C 0.36157 0.26266 0.45766 0.0
C2939 C 0.35842 0.27186 0.46923 0.0
C2940 C 0.34413 0.27728 0.46908 0.0
C2941 C 0.33313 0.27341 0.45696 0.0
C2942 C 0.33633 0.2643 0.44534 0.0
H2943 H 0.38176 0.26934 0.41437 0.0
H2944 H 0.36959 0.27596 0.42753 0.0
H2945 H 0.38499 0.26529 0.43478 0.0
H2946 H 0.37252 0.25829 0.45832 0.0
H2947 H 0.36704 0.27441 0.47853 0.0
H2948 H 0.34186 0.81539 0.37113 0.0
H2949 H 0.33566 0.80079 0.39489 0.0
H2950 H 0.34999 0.83938 0.42171 0.0
H2951 H 0.3566 0.85367 0.39807 0.0
H2952 H 0.35859 0.81465 0.43681 0.0
H2953 H 0.29794 0.80533 0.41624 0.0
H2954 H 0.31024 0.79819 0.40372 0.0
H2955 H 0.31112 0.81797 0.40621 0.0
C2956 C 0.34402 0.82055 0.38218 0.0
C2957 C 0.34963 0.83562 0.38285 0.0
C2958 C 0.34024 0.81232 0.39571 0.0
C2959 C 0.34191 0.8191 0.41009 0.0
C2960 C 0.34841 0.83391 0.4108 0.0
H2961 H 0.2973 0.78363 0.49316 0.0
H2962 H 0.30479 0.79955 0.47061 0.0
C2963 C 0.35223 0.84207 0.39732 0.0
C2964 C 0.33667 0.81099 0.42437 0.0
H2965 H 0.30572 0.79252 0.43985 0.0
C2966 C 0.34701 0.80986 0.43746 0.0
C2967 C 0.32146 0.80505 0.42543 0.0
C2968 C 0.3095 0.80681 0.41222 0.0
C2969 C 0.34271 0.80261 0.45135 0.0
C2970 C 0.32771 0.79598 0.45215 0.0
C2971 C 0.31724 0.79749 0.43923 0.0
C2972 C 0.32303 0.78665 0.46592 0.0
C2973 C 0.3543 0.80226 0.4651 0.0
C2974 C 0.33058 0.77403 0.47064 0.0
C2975 C 0.32641 0.76506 0.48344 0.0
C2976 C 0.3144 0.76831 0.49185 0.0
C2977 C 0.30664 0.78086 0.48703 0.0
C2978 C 0.3109 0.78993 0.47413 0.0
H2979 H 0.36324 0.81169 0.46434 0.0
H2980 H 0.34898 0.80275 0.47612 0.0
H2981 H 0.35985 0.79172 0.46536 0.0
H2982 H 0.33969 0.77099 0.46432 0.0
H2983 H 0.33261 0.75544 0.48663 0.0
H2984 H 0.67887 0.22386 0.7113 0.0
H2985 H 0.65847 0.23204 0.72517 0.0
H2986 H 0.63237 0.18984 0.71737 0.0
H2987 H 0.65251 0.18197 0.70301 0.0
H2988 H 0.61478 0.21267 0.71264 0.0
H2989 H 0.64917 0.21864 0.76872 0.0
H2990 H 0.65702 0.22978 0.75311 0.0
H2991 H 0.65559 0.20974 0.7527 0.0
C2992 C 0.66869 0.21644 0.71244 0.0
C2993 C 0.66727 0.20226 0.70617 0.0
C2994 C 0.65712 0.22102 0.72052 0.0
C2995 C 0.64396 0.21144 0.72264 0.0
C2996 C 0.64242 0.19741 0.71603 0.0
H2997 H 0.57944 0.21868 0.791 0.0
H2998 H 0.59919 0.21157 0.77574 0.0
C2999 C 0.65394 0.19287 0.7079 0.0
C3000 C 0.63176 0.21597 0.73167 0.0
H3001 H 0.62468 0.22711 0.76716 0.0
C3002 C 0.61696 0.21582 0.72457 0.0
C3003 C 0.63449 0.21986 0.74733 0.0
C3004 C 0.64989 0.21939 0.75599 0.0
C3005 C 0.6049 0.21957 0.73259 0.0
C3006 C 0.60772 0.22392 0.7481 0.0
C3007 C 0.6225 0.22393 0.75525 0.0
C3008 C 0.59549 0.22822 0.75724 0.0
C3009 C 0.58918 0.21845 0.72447 0.0
C3010 C 0.58685 0.24005 0.75206 0.0
C3011 C 0.57549 0.24411 0.76076 0.0
C3012 C 0.57261 0.23656 0.77497 0.0
C3013 C 0.58139 0.22481 0.78019 0.0
C3014 C 0.59268 0.22071 0.77144 0.0
H3015 H 0.58824 0.21099 0.71458 0.0
H3016 H 0.58061 0.21419 0.73254 0.0
H3017 H 0.58649 0.2297 0.71985 0.0
H3018 H 0.58903 0.24631 0.74138 0.0
H3019 H 0.56921 0.25339 0.7565 0.0
H3020 H 0.37145 0.14398 0.67569 0.0
H3021 H 0.37248 0.12279 0.69468 0.0
H3022 H 0.36598 0.15188 0.73095 0.0
H3023 H 0.36504 0.17304 0.7119 0.0
H3024 H 0.38751 0.13123 0.7397 0.0
H3025 H 0.33382 0.10377 0.71274 0.0
H3026 H 0.34843 0.1079 0.69978 0.0
H3027 H 0.34038 0.1229 0.70801 0.0
C3028 C 0.37028 0.14576 0.68773 0.0
C3029 C 0.36796 0.15997 0.69241 0.0
C3030 C 0.37088 0.13373 0.69855 0.0
C3031 C 0.36904 0.13573 0.71417 0.0
C3032 C 0.36738 0.15009 0.71895 0.0
H3033 H 0.3365 0.06889 0.78046 0.0
H3034 H 0.34153 0.0912 0.76381 0.0
C3035 C 0.36684 0.16213 0.70812 0.0
C3036 C 0.36795 0.12274 0.72537 0.0
H3037 H 0.34634 0.09033 0.73326 0.0
C3038 C 0.37855 0.12225 0.73832 0.0
C3039 C 0.35611 0.11117 0.72361 0.0
C3040 C 0.34394 0.11146 0.71037 0.0
C3041 C 0.37762 0.11042 0.74955 0.0
C3042 C 0.36591 0.09875 0.74763 0.0
C3043 C 0.35536 0.09927 0.73467 0.0
C3044 C 0.36387 0.0861 0.75914 0.0
C3045 C 0.38893 0.11071 0.76354 0.0
C3046 C 0.37489 0.07595 0.7623 0.0
C3047 C 0.37203 0.06316 0.7719 0.0
C3048 C 0.35804 0.06026 0.77828 0.0
C3049 C 0.34729 0.07073 0.77552 0.0
C3050 C 0.35017 0.0835 0.76605 0.0
H3051 H 0.39488 0.12202 0.7651 0.0
H3052 H 0.38331 0.10708 0.7742 0.0
H3053 H 0.39752 0.10289 0.76208 0.0
H3054 H 0.38543 0.07759 0.75687 0.0
H3055 H 0.38045 0.0552 0.77372 0.0
H3056 H 0.41085 0.84587 0.68162 0.0
H3057 H 0.43412 0.83379 0.68958 0.0
H3058 H 0.41651 0.8196 0.73321 0.0
H3059 H 0.3933 0.83152 0.72512 0.0
H3060 H 0.4537 0.84194 0.71515 0.0
H3061 H 0.43369 0.78188 0.72079 0.0
H3062 H 0.42268 0.79538 0.71 0.0
H3063 H 0.42294 0.79362 0.73075 0.0
C3064 C 0.41185 0.83976 0.69269 0.0
C3065 C 0.40036 0.83952 0.70277 0.0
C3066 C 0.42514 0.83297 0.69728 0.0
C3067 C 0.42704 0.82567 0.71196 0.0
C3068 C 0.41524 0.8249 0.72174 0.0
H3069 H 0.50875 0.81245 0.77042 0.0
H3070 H 0.48513 0.82053 0.75784 0.0
C3071 C 0.40202 0.83174 0.71717 0.0
C3072 C 0.44182 0.82009 0.71767 0.0
H3073 H 0.45814 0.78922 0.73319 0.0
C3074 C 0.4547 0.83038 0.71894 0.0
C3075 C 0.44317 0.80499 0.72255 0.0
C3076 C 0.42992 0.79329 0.72083 0.0
C3077 C 0.46875 0.82609 0.72538 0.0
C3078 C 0.46994 0.81114 0.73089 0.0
C3079 C 0.45719 0.80073 0.72915 0.0
C3080 C 0.48431 0.80614 0.73857 0.0
C3081 C 0.48221 0.83761 0.72621 0.0
C3082 C 0.4916 0.79512 0.73212 0.0
C3083 C 0.50519 0.79049 0.73926 0.0
C3084 C 0.51177 0.79668 0.75313 0.0
C3085 C 0.50427 0.80759 0.75965 0.0
C3086 C 0.49071 0.81224 0.75247 0.0
H3087 H 0.48043 0.84732 0.71803 0.0
H3088 H 0.48408 0.84177 0.73808 0.0
H3089 H 0.4926 0.8327 0.72358 0.0
H3090 H 0.48687 0.79023 0.72142 0.0
H3091 H 0.51062 0.78221 0.73374 0.0
H3092 H 0.72323 0.88754 0.64166 0.0
H3093 H 0.73889 0.91132 0.64541 0.0
H3094 H 0.75375 0.89578 0.69159 0.0
H3095 H 0.73841 0.87197 0.68762 0.0
H3096 H 0.73551 0.93129 0.66758 0.0
H3097 H 0.79336 0.91298 0.67514 0.0
H3098 H 0.77734 0.9013 0.66699 0.0
H3099 H 0.78064 0.90275 0.68762 0.0
C3100 C 0.73014 0.88916 0.65244 0.0
C3101 C 0.72969 0.87803 0.66437 0.0
C3102 C 0.739 0.90272 0.65462 0.0
C3103 C 0.74764 0.90529 0.66872 0.0
C3104 C 0.74744 0.89398 0.6805 0.0
H3105 H 0.79647 0.98019 0.71479 0.0
H3106 H 0.7845 0.95584 0.70701 0.0
C3107 C 0.7386 0.88045 0.67831 0.0
C3108 C 0.7559 0.92016 0.67162 0.0
H3109 H 0.79057 0.93752 0.68312 0.0
C3110 C 0.74759 0.93269 0.67079 0.0
C3111 C 0.77164 0.92196 0.6759 0.0
C3112 C 0.7813 0.90906 0.67633 0.0
C3113 C 0.75447 0.94687 0.67457 0.0
C3114 C 0.77017 0.94864 0.67907 0.0
C3115 C 0.77853 0.93615 0.6797 0.0
C3116 C 0.77799 0.9633 0.6835 0.0
C3117 C 0.74478 0.95975 0.67424 0.0
C3118 C 0.77859 0.97553 0.67279 0.0
C3119 C 0.78534 0.98951 0.67722 0.0
C3120 C 0.79171 0.99154 0.69247 0.0
C3121 C 0.79147 0.97913 0.70304 0.0
C3122 C 0.78472 0.96516 0.69859 0.0
H3123 H 0.73256 0.95587 0.67414 0.0
H3124 H 0.74798 0.96672 0.6844 0.0
H3125 H 0.74647 0.9669 0.66362 0.0
H3126 H 0.77369 0.97431 0.66101 0.0
H3127 H 0.78522 0.99877 0.66877 0.0
H3128 H 0.6351 0.83922 0.33688 0.0
H3129 H 0.60976 0.83212 0.32462 0.0
H3130 H 0.62874 0.82832 0.28114 0.0
H3131 H 0.65418 0.83497 0.29362 0.0
H3132 H 0.59349 0.84554 0.29886 0.0
H3133 H 0.60527 0.78742 0.28833 0.0
H3134 H 0.6176 0.79921 0.30111 0.0
H3135 H 0.61773 0.80225 0.28052 0.0
C3136 C 0.6338 0.83671 0.32476 0.0
C3137 C 0.64647 0.83741 0.31618 0.0
C3138 C 0.61938 0.83283 0.31773 0.0
C3139 C 0.61742 0.82958 0.30201 0.0
C3140 C 0.63005 0.8306 0.29332 0.0
H3141 H 0.53293 0.78341 0.26322 0.0
H3142 H 0.55635 0.79993 0.26228 0.0
C3143 C 0.6445 0.83444 0.30039 0.0
C3144 C 0.60213 0.82462 0.29506 0.0
H3145 H 0.58051 0.79364 0.28243 0.0
C3146 C 0.59066 0.83426 0.29503 0.0
C3147 C 0.59853 0.80996 0.28993 0.0
C3148 C 0.61037 0.79903 0.29003 0.0
C3149 C 0.57553 0.82939 0.2907 0.0
C3150 C 0.57181 0.81445 0.28653 0.0
C3151 C 0.58341 0.80512 0.28559 0.0
C3152 C 0.55605 0.8075 0.28547 0.0
C3153 C 0.56362 0.84015 0.29107 0.0
C3154 C 0.54789 0.80667 0.29863 0.0
C3155 C 0.53459 0.79724 0.29922 0.0
C3156 C 0.52924 0.7884 0.28669 0.0
C3157 C 0.53675 0.79012 0.27305 0.0
C3158 C 0.55015 0.79952 0.2725 0.0
H3159 H 0.56839 0.85184 0.28885 0.0
H3160 H 0.55394 0.83752 0.28239 0.0
H3161 H 0.55934 0.83939 0.30273 0.0
H3162 H 0.55236 0.81247 0.30889 0.0
H3163 H 0.52901 0.79618 0.30987 0.0
H3164 H 0.72563 0.12663 0.3591 0.0
H3165 H 0.73835 0.10693 0.34852 0.0
H3166 H 0.74208 0.13339 0.3059 0.0
H3167 H 0.73001 0.15336 0.31683 0.0
H3168 H 0.73124 0.08998 0.32403 0.0
H3169 H 0.78525 0.12428 0.31605 0.0
H3170 H 0.77079 0.13046 0.32682 0.0
H3171 H 0.7692 0.13213 0.306 0.0
C3172 C 0.72932 0.12825 0.34754 0.0
C3173 C 0.72702 0.14155 0.33883 0.0
C3174 C 0.73649 0.11698 0.34145 0.0
C3175 C 0.74147 0.11877 0.3265 0.0
C3176 C 0.73871 0.13187 0.31759 0.0
H3177 H 0.7678 0.04569 0.27518 0.0
H3178 H 0.7545 0.06528 0.28495 0.0
C3179 C 0.73164 0.1432 0.32374 0.0
C3180 C 0.7495 0.10688 0.3203 0.0
H3181 H 0.7823 0.10039 0.30525 0.0
C3182 C 0.74242 0.09226 0.31995 0.0
C3183 C 0.7642 0.10976 0.31519 0.0
C3184 C 0.77288 0.12497 0.31616 0.0
C3185 C 0.74954 0.08051 0.31453 0.0
C3186 C 0.76401 0.0835 0.30891 0.0
C3187 C 0.77115 0.09809 0.30939 0.0
C3188 C 0.77212 0.07162 0.3028 0.0
C3189 C 0.74161 0.06494 0.31527 0.0
C3190 C 0.78669 0.06892 0.30919 0.0
C3191 C 0.79443 0.05786 0.30347 0.0
C3192 C 0.78776 0.04921 0.29123 0.0
C3193 C 0.77322 0.05202 0.28474 0.0
C3194 C 0.76554 0.06317 0.29038 0.0
H3195 H 0.733 0.06381 0.32387 0.0
H3196 H 0.7357 0.06245 0.30379 0.0
H3197 H 0.74978 0.05648 0.31835 0.0
H3198 H 0.79206 0.07532 0.31872 0.0
H3199 H 0.80561 0.05603 0.30874 0.0
H3200 H 0.38403 0.18317 0.31548 0.0
H3201 H 0.40456 0.18355 0.29827 0.0
H3202 H 0.43655 0.1785 0.33806 0.0
H3203 H 0.41597 0.1778 0.35512 0.0
H3204 H 0.42854 0.20496 0.29866 0.0
H3205 H 0.44952 0.14913 0.30888 0.0
H3206 H 0.43125 0.15317 0.31419 0.0
H3207 H 0.44807 0.15812 0.32656 0.0
C3208 C 0.39541 0.18175 0.32043 0.0
C3209 C 0.39854 0.18046 0.33653 0.0
C3210 C 0.40711 0.18203 0.31065 0.0
C3211 C 0.42207 0.18088 0.31687 0.0
C3212 C 0.42507 0.17909 0.33298 0.0
H3213 H 0.50626 0.21938 0.28921 0.0
H3214 H 0.48229 0.21184 0.30003 0.0
C3215 C 0.41339 0.17883 0.34272 0.0
C3216 C 0.43475 0.18319 0.30678 0.0
H3217 H 0.4668 0.16848 0.29824 0.0
C3218 C 0.43676 0.19687 0.29836 0.0
C3219 C 0.4454 0.17258 0.30625 0.0
C3220 C 0.44338 0.15736 0.31433 0.0
C3221 C 0.44954 0.20056 0.29012 0.0
C3222 C 0.46069 0.19037 0.29046 0.0
C3223 C 0.4583 0.17634 0.29815 0.0
C3224 C 0.47533 0.19457 0.28384 0.0
C3225 C 0.45116 0.21547 0.28136 0.0
C3226 C 0.47956 0.18709 0.27136 0.0
C3227 C 0.4933 0.19146 0.26501 0.0
C3228 C 0.50309 0.20333 0.27113 0.0
C3229 C 0.49891 0.21048 0.28391 0.0
C3230 C 0.4852 0.20615 0.29017 0.0
H3231 H 0.44007 0.22009 0.27868 0.0
H3232 H 0.45856 0.22352 0.28854 0.0
H3233 H 0.45642 0.21455 0.27037 0.0
H3234 H 0.47211 0.17805 0.26637 0.0
H3235 H 0.49611 0.18574 0.25516 0.0
H3236 H 0.34603 0.8904 0.36315 0.0
H3237 H 0.3364 0.9129 0.35031 0.0
H3238 H 0.3245 0.88898 0.30856 0.0
H3239 H 0.33337 0.86628 0.32176 0.0
H3240 H 0.34563 0.92918 0.32677 0.0
H3241 H 0.28629 0.90815 0.31107 0.0
H3242 H 0.29874 0.89783 0.32421 0.0
H3243 H 0.29917 0.89681 0.30359 0.0
C3244 C 0.3411 0.88992 0.35133 0.0
C3245 C 0.34035 0.87659 0.34348 0.0
C3246 C 0.33566 0.90279 0.34395 0.0
C3247 C 0.32941 0.90265 0.32851 0.0
C3248 C 0.32884 0.88934 0.32059 0.0
H3249 H 0.3278 0.97541 0.26202 0.0
H3250 H 0.33263 0.95436 0.27974 0.0
C3251 C 0.33413 0.87642 0.32804 0.0
C3252 C 0.32436 0.91662 0.32046 0.0
H3253 H 0.29542 0.9308 0.29748 0.0
C3254 C 0.33456 0.92953 0.32055 0.0
C3255 C 0.30981 0.91732 0.31255 0.0
C3256 C 0.29782 0.90433 0.31298 0.0
C3257 C 0.33092 0.9428 0.31243 0.0
C3258 C 0.31681 0.94315 0.30358 0.0
C3259 C 0.30631 0.93051 0.30408 0.0
C3260 C 0.31338 0.95608 0.29281 0.0
C3261 C 0.3423 0.95632 0.31338 0.0
C3262 C 0.30057 0.96388 0.29384 0.0
C3263 C 0.29763 0.97603 0.28348 0.0
C3264 C 0.30742 0.9805 0.2719 0.0
C3265 C 0.32006 0.97247 0.27086 0.0
C3266 C 0.32293 0.96041 0.28108 0.0
H3267 H 0.34973 0.95597 0.32434 0.0
H3268 H 0.34962 0.9565 0.30367 0.0
H3269 H 0.33666 0.96684 0.3126 0.0
H3270 H 0.29294 0.96064 0.30271 0.0
H3271 H 0.28775 0.98189 0.28455 0.0
H3272 H 0.68713 0.1538 0.69001 0.0
H3273 H 0.70237 0.13273 0.69572 0.0
H3274 H 0.74291 0.16315 0.69768 0.0
H3275 H 0.72741 0.18435 0.69313 0.0
H3276 H 0.72276 0.1202 0.68389 0.0
H3277 H 0.74901 0.14286 0.739 0.0
H3278 H 0.73403 0.15147 0.72765 0.0
H3279 H 0.75325 0.1549 0.72255 0.0
C3280 C 0.69931 0.15594 0.69162 0.0
C3281 C 0.70607 0.17069 0.69145 0.0
C3282 C 0.70805 0.1439 0.69483 0.0
C3283 C 0.72384 0.14628 0.69769 0.0
C3284 C 0.73073 0.16098 0.69615 0.0
H3285 H 0.77919 0.07026 0.7055 0.0
H3286 H 0.76521 0.09141 0.69624 0.0
C3287 C 0.72191 0.1731 0.69323 0.0
C3288 C 0.73278 0.13337 0.70278 0.0
H3289 H 0.75802 0.12077 0.73134 0.0
C3290 C 0.73045 0.12035 0.69429 0.0
C3291 C 0.74261 0.13331 0.71655 0.0
C3292 C 0.74477 0.14631 0.72705 0.0
C3293 C 0.73755 0.10739 0.69914 0.0
C3294 C 0.74787 0.10755 0.71255 0.0
C3295 C 0.75023 0.12058 0.72101 0.0
C3296 C 0.75623 0.09437 0.71813 0.0
C3297 C 0.73339 0.09351 0.6901 0.0
C3298 C 0.75639 0.08914 0.73372 0.0
C3299 C 0.76478 0.07724 0.73917 0.0
C3300 C 0.77303 0.07014 0.72912 0.0
C3301 C 0.77272 0.07526 0.71351 0.0
C3302 C 0.76462 0.08735 0.70815 0.0
H3303 H 0.72197 0.09366 0.68386 0.0
H3304 H 0.7416 0.09299 0.68131 0.0
H3305 H 0.73354 0.08324 0.69775 0.0
H3306 H 0.75009 0.09434 0.74173 0.0
H3307 H 0.76484 0.07364 0.75127 0.0
H3308 H 0.69406 0.87217 0.35217 0.0
H3309 H 0.714 0.89291 0.35065 0.0
H3310 H 0.72143 0.88076 0.30471 0.0
H3311 H 0.70193 0.85973 0.30655 0.0
H3312 H 0.74805 0.88935 0.32207 0.0
H3313 H 0.70565 0.93047 0.32421 0.0
H3314 H 0.70691 0.91742 0.34054 0.0
H3315 H 0.70032 0.91086 0.32173 0.0
C3316 C 0.70022 0.87381 0.34193 0.0
C3317 C 0.6965 0.86455 0.32941 0.0
C3318 C 0.71147 0.88569 0.34099 0.0
C3319 C 0.71896 0.88853 0.32744 0.0
C3320 C 0.71573 0.8788 0.31524 0.0
H3321 H 0.75855 0.96938 0.28648 0.0
H3322 H 0.74329 0.94687 0.29447 0.0
C3323 C 0.70459 0.86689 0.31624 0.0
C3324 C 0.72949 0.90211 0.32542 0.0
H3325 H 0.73085 0.94013 0.32194 0.0
C3326 C 0.74437 0.90047 0.32216 0.0
C3327 C 0.72453 0.91658 0.32535 0.0
C3328 C 0.70846 0.91901 0.32801 0.0
C3329 C 0.75437 0.91293 0.31855 0.0
C3330 C 0.7494 0.92739 0.3185 0.0
C3331 C 0.73463 0.92903 0.32207 0.0
C3332 C 0.75897 0.94094 0.31377 0.0
C3333 C 0.76992 0.91046 0.31419 0.0
C3334 C 0.77282 0.94515 0.32204 0.0
C3335 C 0.78171 0.95795 0.31736 0.0
C3336 C 0.77684 0.96687 0.3044 0.0
C3337 C 0.76283 0.96269 0.29632 0.0
C3338 C 0.754 0.94987 0.30095 0.0
H3339 H 0.7707 0.89869 0.31134 0.0
H3340 H 0.77302 0.91786 0.3041 0.0
H3341 H 0.77834 0.91312 0.32407 0.0
H3342 H 0.77673 0.93856 0.33214 0.0
H3343 H 0.79246 0.96074 0.32381 0.0
H3344 H 0.68364 0.17519 0.36735 0.0
H3345 H 0.66107 0.18855 0.36016 0.0
H3346 H 0.67904 0.20373 0.31696 0.0
H3347 H 0.70178 0.19093 0.3245 0.0
H3348 H 0.66347 0.22495 0.3279 0.0
H3349 H 0.62931 0.16994 0.32918 0.0
H3350 H 0.63922 0.17505 0.34729 0.0
H3351 H 0.64967 0.17156 0.33128 0.0
C3352 C 0.68294 0.18181 0.35659 0.0
C3353 C 0.69437 0.182 0.34642 0.0
C3354 C 0.66995 0.18926 0.35236 0.0
C3355 C 0.66812 0.19685 0.33781 0.0
C3356 C 0.68008 0.1979 0.32819 0.0
H3357 H 0.5943 0.20585 0.27234 0.0
H3358 H 0.61586 0.20013 0.28988 0.0
C3359 C 0.69305 0.19058 0.33247 0.0
C3360 C 0.65339 0.20253 0.33184 0.0
H3361 H 0.61669 0.19076 0.32036 0.0
C3362 C 0.65317 0.21753 0.32645 0.0
C3363 C 0.63995 0.19282 0.32978 0.0
C3364 C 0.63949 0.17642 0.33455 0.0
C3365 C 0.64011 0.22292 0.3186 0.0
C3366 C 0.6268 0.21311 0.31627 0.0
C3367 C 0.62685 0.1983 0.32224 0.0
C3368 C 0.61345 0.2172 0.30584 0.0
C3369 C 0.6409 0.23882 0.31211 0.0
C3370 C 0.60472 0.22878 0.3089 0.0
C3371 C 0.59219 0.23219 0.29871 0.0
C3372 C 0.58818 0.22402 0.28533 0.0
C3373 C 0.59695 0.21243 0.28247 0.0
C3374 C 0.60935 0.20908 0.29255 0.0
H3375 H 0.65266 0.24423 0.3128 0.0
H3376 H 0.6362 0.23924 0.29983 0.0
H3377 H 0.63401 0.24541 0.31875 0.0
H3378 H 0.6075 0.23508 0.3192 0.0
H3379 H 0.58568 0.24116 0.30128 0.0
H3380 H 0.34959 0.17095 0.32528 0.0
H3381 H 0.34179 0.14939 0.3093 0.0
H3382 H 0.37937 0.12689 0.3309 0.0
H3383 H 0.38739 0.14876 0.34637 0.0
H3384 H 0.37674 0.12289 0.30116 0.0
H3385 H 0.31996 0.11078 0.3224 0.0
H3386 H 0.32259 0.12934 0.31394 0.0
H3387 H 0.33402 0.12417 0.3312 0.0
C3388 C 0.35607 0.16133 0.32657 0.0
C3389 C 0.36896 0.16133 0.33705 0.0
C3390 C 0.3516 0.14899 0.31755 0.0
C3391 C 0.35976 0.1363 0.31914 0.0
C3392 C 0.37281 0.13646 0.32951 0.0
H3393 H 0.32338 0.04976 0.28509 0.0
H3394 H 0.33265 0.07098 0.30089 0.0
C3395 C 0.37739 0.1489 0.33834 0.0
C3396 C 0.35487 0.12297 0.30986 0.0
H3397 H 0.32463 0.09796 0.30025 0.0
C3398 C 0.36536 0.11739 0.30104 0.0
C3399 C 0.3401 0.11558 0.30988 0.0
C3400 C 0.32858 0.12017 0.31999 0.0
C3401 C 0.36148 0.1048 0.29211 0.0
C3402 C 0.3465 0.09786 0.29153 0.0
C3403 C 0.33606 0.10334 0.30051 0.0
C3404 C 0.3414 0.08479 0.28192 0.0
C3405 C 0.37362 0.09887 0.28374 0.0
C3406 C 0.34315 0.08542 0.26596 0.0
C3407 C 0.33806 0.07318 0.25698 0.0
C3408 C 0.33078 0.06021 0.26369 0.0
C3409 C 0.32887 0.05965 0.2796 0.0
C3410 C 0.33418 0.07177 0.28863 0.0
H3411 H 0.38509 0.1022 0.28927 0.0
H3412 H 0.37211 0.0865 0.28347 0.0
H3413 H 0.37311 0.10358 0.27166 0.0
H3414 H 0.34822 0.09546 0.26037 0.0
H3415 H 0.33944 0.07403 0.24469 0.0
H3416 H 0.38454 0.83964 0.37429 0.0
H3417 H 0.40435 0.82398 0.36847 0.0
H3418 H 0.37491 0.80561 0.33068 0.0
H3419 H 0.35544 0.82159 0.33629 0.0
H3420 H 0.40729 0.79437 0.36635 0.0
H3421 H 0.41091 0.82268 0.30847 0.0
H3422 H 0.40021 0.82931 0.32296 0.0
H3423 H 0.39228 0.81413 0.31122 0.0
C3424 C 0.38227 0.83198 0.36499 0.0
C3425 C 0.36855 0.83175 0.35572 0.0
C3426 C 0.39358 0.82311 0.36159 0.0
C3427 C 0.39132 0.81388 0.34884 0.0
C3428 C 0.37715 0.81293 0.34028 0.0
H3429 H 0.44762 0.74482 0.32719 0.0
H3430 H 0.42839 0.75896 0.33636 0.0
C3431 C 0.36596 0.82189 0.34358 0.0
C3432 C 0.40391 0.80576 0.34407 0.0
H3433 H 0.42415 0.80098 0.31329 0.0
C3434 C 0.41101 0.79586 0.35476 0.0
C3435 C 0.40908 0.80791 0.32905 0.0
C3436 C 0.40284 0.8192 0.31732 0.0
C3437 C 0.42279 0.7878 0.35075 0.0
C3438 C 0.42742 0.78939 0.33549 0.0
C3439 C 0.42055 0.79956 0.32493 0.0
C3440 C 0.43935 0.78069 0.33017 0.0
C3441 C 0.43036 0.77792 0.36306 0.0
C3442 C 0.45179 0.78806 0.32313 0.0
C3443 C 0.46274 0.77995 0.31765 0.0
C3444 C 0.46157 0.76425 0.31912 0.0
C3445 C 0.44908 0.75689 0.32613 0.0
C3446 C 0.43807 0.765 0.33146 0.0
H3447 H 0.42902 0.78154 0.37486 0.0
H3448 H 0.42504 0.76631 0.36219 0.0
H3449 H 0.44262 0.77792 0.36165 0.0
H3450 H 0.45307 0.80014 0.3219 0.0
H3451 H 0.47223 0.78599 0.31242 0.0
H3452 H 0.36377 0.87016 0.72904 0.0
H3453 H 0.35394 0.89216 0.73851 0.0
H3454 H 0.35709 0.91449 0.69355 0.0
H3455 H 0.36761 0.89267 0.68435 0.0
H3456 H 0.36863 0.93247 0.71525 0.0
H3457 H 0.31319 0.9077 0.73237 0.0
H3458 H 0.32814 0.89759 0.74156 0.0
H3459 H 0.32463 0.89802 0.72079 0.0
C3460 C 0.36231 0.87977 0.72122 0.0
C3461 C 0.36644 0.87975 0.70599 0.0
C3462 C 0.35649 0.89227 0.72655 0.0
C3463 C 0.35443 0.90493 0.71667 0.0
C3464 C 0.35841 0.90483 0.70137 0.0
H3465 H 0.31419 0.98059 0.75433 0.0
H3466 H 0.31776 0.96075 0.73684 0.0
C3467 C 0.36434 0.89236 0.69608 0.0
C3468 C 0.34928 0.91864 0.72271 0.0
H3469 H 0.32292 0.93084 0.74419 0.0
C3470 C 0.35848 0.93213 0.72134 0.0
C3471 C 0.33588 0.91841 0.7304 0.0
C3472 C 0.32481 0.90468 0.73121 0.0
C3473 C 0.35517 0.94507 0.72823 0.0
C3474 C 0.34249 0.94448 0.73705 0.0
C3475 C 0.33275 0.93128 0.73761 0.0
C3476 C 0.34016 0.95685 0.74705 0.0
C3477 C 0.36548 0.95921 0.72622 0.0
C3478 C 0.35143 0.96112 0.75867 0.0
C3479 C 0.34945 0.97234 0.76855 0.0
C3480 C 0.33605 0.97957 0.76723 0.0
C3481 C 0.32468 0.97532 0.75559 0.0
C3482 C 0.32669 0.96397 0.74563 0.0
H3483 H 0.37108 0.95942 0.71527 0.0
H3484 H 0.35921 0.96928 0.7262 0.0
H3485 H 0.37448 0.95975 0.73591 0.0
H3486 H 0.36176 0.95559 0.76027 0.0
H3487 H 0.35846 0.97521 0.77738 0.0
H3488 H 0.69976 0.83599 0.69621 0.0
H3489 H 0.6782 0.8221 0.70782 0.0
H3490 H 0.65152 0.8251 0.66402 0.0
H3491 H 0.67305 0.83933 0.65256 0.0
H3492 H 0.63652 0.83287 0.68815 0.0
H3493 H 0.66062 0.77899 0.70278 0.0
H3494 H 0.67255 0.79462 0.71027 0.0
H3495 H 0.66897 0.79302 0.68968 0.0
C3496 C 0.68928 0.83362 0.68912 0.0
C3497 C 0.688 0.83867 0.67353 0.0
C3498 C 0.67704 0.82556 0.69568 0.0
C3499 C 0.66331 0.8223 0.68673 0.0
C3500 C 0.66204 0.82734 0.67111 0.0
H3501 H 0.58764 0.76615 0.72608 0.0
H3502 H 0.60665 0.77575 0.70822 0.0
C3503 C 0.6743 0.83541 0.66456 0.0
C3504 C 0.65005 0.81448 0.69394 0.0
H3505 H 0.63868 0.78325 0.71557 0.0
C3506 C 0.63692 0.82193 0.69395 0.0
C3507 C 0.65045 0.80009 0.70132 0.0
C3508 C 0.66385 0.79114 0.7009 0.0
C3509 C 0.62453 0.81573 0.70181 0.0
C3510 C 0.62534 0.80181 0.71004 0.0
C3511 C 0.63812 0.79398 0.70937 0.0
C3512 C 0.61364 0.79589 0.72049 0.0
C3513 C 0.61075 0.82428 0.70146 0.0
C3514 C 0.61144 0.80391 0.73336 0.0
C3515 C 0.60072 0.79848 0.74353 0.0
C3516 C 0.59194 0.78483 0.74111 0.0
C3517 C 0.59417 0.77673 0.72822 0.0
C3518 C 0.60503 0.78218 0.71804 0.0
H3519 H 0.61 0.83222 0.69123 0.0
H3520 H 0.60023 0.81659 0.70125 0.0
H3521 H 0.61146 0.83083 0.712 0.0
H3522 H 0.61814 0.81437 0.73565 0.0
H3523 H 0.59938 0.80503 0.75334 0.0
H3524 H 0.39969 0.17187 0.6859 0.0
H3525 H 0.42266 0.18021 0.70218 0.0
H3526 H 0.40025 0.21687 0.71663 0.0
H3527 H 0.3773 0.20834 0.70056 0.0
H3528 H 0.43924 0.20883 0.69922 0.0
H3529 H 0.41851 0.19786 0.75755 0.0
H3530 H 0.40907 0.18938 0.74048 0.0
H3531 H 0.40655 0.20838 0.74424 0.0
C3532 C 0.3997 0.18154 0.69279 0.0
C3533 C 0.3869 0.18954 0.69206 0.0
C3534 C 0.41276 0.18634 0.70197 0.0
C3535 C 0.4131 0.1991 0.71066 0.0
C3536 C 0.40016 0.2069 0.71016 0.0
H3537 H 0.48971 0.25604 0.74955 0.0
H3538 H 0.46779 0.24522 0.73349 0.0
C3539 C 0.38714 0.20212 0.70095 0.0
C3540 C 0.42718 0.2047 0.71966 0.0
H3541 H 0.44205 0.21252 0.7562 0.0
C3542 C 0.43991 0.20957 0.71169 0.0
C3543 C 0.42801 0.20554 0.73592 0.0
C3544 C 0.41486 0.1999 0.74511 0.0
C3545 C 0.45341 0.21553 0.71954 0.0
C3546 C 0.45408 0.21679 0.73575 0.0
C3547 C 0.44144 0.21165 0.74375 0.0
C3548 C 0.46786 0.22319 0.74474 0.0
C3549 C 0.46687 0.22027 0.71048 0.0
C3550 C 0.47509 0.21441 0.75641 0.0
C3551 C 0.48754 0.22055 0.7656 0.0
C3552 C 0.49296 0.23564 0.76338 0.0
C3553 C 0.48586 0.24437 0.7515 0.0
C3554 C 0.47337 0.23819 0.74228 0.0
H3555 H 0.4657 0.21529 0.69895 0.0
H3556 H 0.46788 0.2326 0.70864 0.0
H3557 H 0.47747 0.21703 0.7169 0.0
H3558 H 0.471 0.20282 0.7585 0.0
H3559 H 0.49273 0.2135 0.77464 0.0
H3560 H 0.6724 0.69417 0.15367 0.0
H3561 H 0.68646 0.70537 0.13224 0.0
H3562 H 0.72737 0.70908 0.16275 0.0
H3563 H 0.71316 0.69809 0.18431 0.0
H3564 H 0.70309 0.73509 0.13368 0.0
H3565 H 0.73937 0.69054 0.12251 0.0
H3566 H 0.72216 0.68662 0.1321 0.0
H3567 H 0.73878 0.69534 0.14229 0.0
C3568 C 0.68442 0.69726 0.15572 0.0
C3569 C 0.6917 0.69536 0.17061 0.0
C3570 C 0.69244 0.70362 0.1435 0.0
C3571 C 0.70797 0.70803 0.14586 0.0
C3572 C 0.71543 0.7056 0.16061 0.0
H3573 H 0.77064 0.75276 0.08181 0.0
H3574 H 0.75958 0.73969 0.10421 0.0
C3575 C 0.70735 0.69931 0.1729 0.0
C3576 C 0.71598 0.71616 0.13314 0.0
H3577 H 0.7426 0.71321 0.10772 0.0
C3578 C 0.71174 0.73032 0.128 0.0
C3579 C 0.72738 0.70999 0.12587 0.0
C3580 C 0.7322 0.69475 0.13084 0.0
C3581 C 0.71854 0.73848 0.1158 0.0
C3582 C 0.72961 0.73213 0.10813 0.0
C3583 C 0.73407 0.71807 0.11348 0.0
C3584 C 0.73642 0.73981 0.09438 0.0
C3585 C 0.71395 0.75395 0.11144 0.0
C3586 C 0.72717 0.74402 0.08123 0.0
C3587 C 0.73346 0.75156 0.06847 0.0
C3588 C 0.7492 0.7549 0.06841 0.0
C3589 C 0.7585 0.75033 0.08142 0.0
C3590 C 0.75217 0.74288 0.09426 0.0
H3591 H 0.70928 0.7589 0.12124 0.0
H3592 H 0.72367 0.76155 0.10774 0.0
H3593 H 0.705 0.75331 0.10172 0.0
H3594 H 0.71504 0.7414 0.08078 0.0
H3595 H 0.72598 0.75458 0.05854 0.0
H3596 H 0.35327 0.67961 0.11837 0.0
H3597 H 0.34264 0.68927 0.0932 0.0
H3598 H 0.29905 0.68881 0.1113 0.0
H3599 H 0.30994 0.67957 0.13666 0.0
H3600 H 0.31877 0.67935 0.07211 0.0
H3601 H 0.30827 0.73249 0.09763 0.0
H3602 H 0.31942 0.71896 0.10807 0.0
H3603 H 0.29917 0.71569 0.10599 0.0
C3604 C 0.34139 0.68143 0.11681 0.0
C3605 C 0.33236 0.67895 0.12928 0.0
C3606 C 0.33531 0.68688 0.1025 0.0
C3607 C 0.3201 0.68995 0.10044 0.0
C3608 C 0.31086 0.68674 0.11271 0.0
H3609 H 0.28673 0.74747 0.02246 0.0
H3610 H 0.28523 0.72808 0.04336 0.0
C3611 C 0.317 0.68136 0.12709 0.0
C3612 C 0.31444 0.6975 0.08579 0.0
H3613 H 0.30388 0.73111 0.07079 0.0
C3614 C 0.31528 0.69058 0.07182 0.0
C3615 C 0.30985 0.71214 0.08543 0.0
C3616 C 0.3092 0.72035 0.10004 0.0
C3617 C 0.31226 0.69815 0.05749 0.0
C3618 C 0.30847 0.71305 0.05716 0.0
C3619 C 0.30675 0.71965 0.07109 0.0
C3620 C 0.30831 0.72273 0.04281 0.0
C3621 C 0.31355 0.69028 0.04283 0.0
C3622 C 0.3217 0.72596 0.03545 0.0
C3623 C 0.32262 0.73706 0.02365 0.0
C3624 C 0.31017 0.74516 0.01897 0.0
C3625 C 0.29649 0.74136 0.02576 0.0
C3626 C 0.29562 0.73031 0.03771 0.0
H3627 H 0.31148 0.67798 0.04467 0.0
H3628 H 0.30545 0.69409 0.03332 0.0
H3629 H 0.32518 0.69279 0.03918 0.0
H3630 H 0.33173 0.72048 0.03941 0.0
H3631 H 0.33331 0.7397 0.01863 0.0
H3632 H 0.40337 0.32562 0.17087 0.0
H3633 H 0.39584 0.30959 0.1489 0.0
H3634 H 0.35431 0.29444 0.16918 0.0
H3635 H 0.36212 0.31006 0.19127 0.0
H3636 H 0.36515 0.27199 0.15366 0.0
H3637 H 0.36385 0.32469 0.11718 0.0
H3638 H 0.38187 0.32125 0.12696 0.0
H3639 H 0.3665 0.32464 0.13799 0.0
C3640 C 0.39294 0.3184 0.17086 0.0
C3641 C 0.3833 0.31901 0.18269 0.0
C3642 C 0.38853 0.30941 0.15823 0.0
C3643 C 0.37433 0.30104 0.15719 0.0
C3644 C 0.36528 0.3008 0.16965 0.0
H3645 H 0.30503 0.28311 0.08899 0.0
H3646 H 0.32374 0.29004 0.10994 0.0
C3647 C 0.36972 0.3097 0.18226 0.0
C3648 C 0.36799 0.29393 0.14259 0.0
H3649 H 0.3542 0.3026 0.10554 0.0
C3650 C 0.36302 0.27861 0.14303 0.0
C3651 C 0.36505 0.3026 0.12873 0.0
C3652 C 0.36946 0.31922 0.12762 0.0
C3653 C 0.35468 0.27191 0.13024 0.0
C3654 C 0.35131 0.28073 0.11664 0.0
C3655 C 0.35692 0.29584 0.11594 0.0
C3656 C 0.33995 0.27535 0.10407 0.0
C3657 C 0.3487 0.2557 0.13164 0.0
C3658 C 0.34271 0.26455 0.09378 0.0
C3659 C 0.33187 0.26047 0.08156 0.0
C3660 C 0.31817 0.26719 0.07947 0.0
C3661 C 0.31545 0.27774 0.09006 0.0
C3662 C 0.32617 0.28175 0.10213 0.0
H3663 H 0.35154 0.2506 0.14334 0.0
H3664 H 0.33622 0.25457 0.12914 0.0
H3665 H 0.35356 0.24936 0.12298 0.0
H3666 H 0.35334 0.25953 0.09501 0.0
H3667 H 0.33432 0.25234 0.0736 0.0
H3668 H 0.7457 0.36354 0.15644 0.0
H3669 H 0.76085 0.36173 0.13436 0.0
H3670 H 0.72207 0.37036 0.10297 0.0
H3671 H 0.7072 0.37236 0.12502 0.0
H3672 H 0.75351 0.33981 0.11424 0.0
H3673 H 0.75526 0.39392 0.0811 0.0
H3674 H 0.75048 0.39198 0.10093 0.0
H3675 H 0.73637 0.38742 0.08533 0.0
C3676 C 0.74074 0.36574 0.14481 0.0
C3677 C 0.72541 0.36823 0.14231 0.0
C3678 C 0.7493 0.36457 0.13221 0.0
C3679 C 0.74266 0.36601 0.11695 0.0
C3680 C 0.7276 0.36955 0.11456 0.0
H3681 H 0.75069 0.33697 0.02642 0.0
H3682 H 0.74437 0.34781 0.04996 0.0
C3683 C 0.71909 0.37069 0.12713 0.0
C3684 C 0.7505 0.36162 0.10367 0.0
H3685 H 0.75854 0.37233 0.06672 0.0
C3686 C 0.75492 0.34704 0.10397 0.0
C3687 C 0.75224 0.37099 0.09022 0.0
C3688 C 0.74847 0.387 0.08942 0.0
C3689 C 0.76027 0.34132 0.09095 0.0
C3690 C 0.76146 0.35051 0.07729 0.0
C3691 C 0.75756 0.36527 0.07716 0.0
C3692 C 0.76584 0.34468 0.06278 0.0
C3693 C 0.76385 0.32524 0.09167 0.0
C3694 C 0.78012 0.33953 0.06204 0.0
C3695 C 0.78373 0.3332 0.04861 0.0
C3696 C 0.77315 0.33193 0.0356 0.0
C3697 C 0.75902 0.33751 0.03627 0.0
C3698 C 0.75543 0.34384 0.04969 0.0
H3699 H 0.75937 0.31884 0.10183 0.0
H3700 H 0.75909 0.31961 0.08101 0.0
H3701 H 0.7763 0.32485 0.09258 0.0
H3702 H 0.78841 0.34025 0.07193 0.0
H3703 H 0.79468 0.32897 0.04858 0.0
H3704 H 0.70631 0.38857 0.8631 0.0
H3705 H 0.72449 0.3848 0.88567 0.0
H3706 H 0.73343 0.34273 0.86841 0.0
H3707 H 0.71549 0.34676 0.84573 0.0
H3708 H 0.72401 0.36118 0.90802 0.0
H3709 H 0.77578 0.36444 0.87658 0.0
H3710 H 0.75821 0.37082 0.86797 0.0
H3711 H 0.76093 0.35124 0.869 0.0
C3712 C 0.71219 0.37855 0.86426 0.0
C3713 C 0.70953 0.36785 0.85294 0.0
C3714 C 0.72254 0.3764 0.87705 0.0
C3715 C 0.73044 0.36359 0.87858 0.0
C3716 C 0.72764 0.35282 0.8673 0.0
H3717 H 0.78833 0.31936 0.94549 0.0
H3718 H 0.77316 0.32844 0.92279 0.0
C3719 C 0.71731 0.35499 0.85451 0.0
C3720 C 0.74128 0.36122 0.8922 0.0
H3721 H 0.77796 0.35481 0.90279 0.0
C3722 C 0.73585 0.35997 0.90693 0.0
C3723 C 0.75672 0.35973 0.89069 0.0
C3724 C 0.76332 0.36177 0.87522 0.0
C3725 C 0.74533 0.35661 0.92017 0.0
C3726 C 0.76067 0.35467 0.9186 0.0
C3727 C 0.76619 0.35631 0.90392 0.0
C3728 C 0.77085 0.34989 0.93194 0.0
C3729 C 0.73874 0.35455 0.93564 0.0
C3730 C 0.77488 0.35913 0.94444 0.0
C3731 C 0.78359 0.35398 0.95748 0.0
C3732 C 0.78837 0.3395 0.95819 0.0
C3733 C 0.78475 0.33053 0.94537 0.0
C3734 C 0.77611 0.3357 0.93236 0.0
H3735 H 0.72619 0.35379 0.93445 0.0
H3736 H 0.74239 0.34429 0.94197 0.0
H3737 H 0.7429 0.3642 0.94277 0.0
H3738 H 0.77109 0.37022 0.94421 0.0
H3739 H 0.78623 0.36118 0.96714 0.0
H3740 H 0.7271 0.66228 0.89434 0.0
H3741 H 0.73452 0.67532 0.9184 0.0
H3742 H 0.74152 0.71689 0.89193 0.0
H3743 H 0.73433 0.70376 0.86783 0.0
H3744 H 0.76711 0.69982 0.91961 0.0
H3745 H 0.71143 0.71681 0.93315 0.0
H3746 H 0.71276 0.69949 0.92398 0.0
H3747 H 0.71611 0.71689 0.91333 0.0
C3748 C 0.73001 0.67424 0.89374 0.0
C3749 C 0.73007 0.68207 0.87931 0.0
C3750 C 0.73428 0.68164 0.90743 0.0
C3751 C 0.73862 0.69703 0.9069 0.0
C3752 C 0.73818 0.705 0.89254 0.0
H3753 H 0.7597 0.76424 0.97314 0.0
H3754 H 0.75194 0.74877 0.95128 0.0
C3755 C 0.73393 0.69756 0.87883 0.0
C3756 C 0.74418 0.70466 0.92131 0.0
H3757 H 0.73266 0.72434 0.9499 0.0
C3758 C 0.75962 0.70515 0.92632 0.0
C3759 C 0.73435 0.71154 0.92996 0.0
C3760 C 0.7177 0.71123 0.92496 0.0
C3761 C 0.76557 0.71272 0.93961 0.0
C3762 C 0.75574 0.71973 0.94828 0.0
C3763 C 0.74022 0.71895 0.94334 0.0
C3764 C 0.76134 0.72899 0.96173 0.0
C3765 C 0.7824 0.71362 0.94388 0.0
C3766 C 0.76944 0.72314 0.97499 0.0
C3767 C 0.77413 0.73214 0.98763 0.0
C3768 C 0.77054 0.74703 0.98727 0.0
C3769 C 0.76255 0.75279 0.97392 0.0
C3770 C 0.75807 0.74393 0.96135 0.0
H3771 H 0.78869 0.71078 0.93411 0.0
H3772 H 0.78676 0.72498 0.94751 0.0
H3773 H 0.78479 0.70557 0.95371 0.0
H3774 H 0.77188 0.71157 0.97572 0.0
H3775 H 0.78018 0.72736 0.99777 0.0
H3776 H 0.38257 0.72666 0.84234 0.0
H3777 H 0.37406 0.74028 0.86322 0.0
H3778 H 0.37098 0.69954 0.89172 0.0
H3779 H 0.38019 0.68614 0.87109 0.0
H3780 H 0.34805 0.73676 0.87704 0.0
H3781 H 0.39564 0.72736 0.92093 0.0
H3782 H 0.3961 0.7233 0.90087 0.0
H3783 H 0.38612 0.71034 0.91373 0.0
C3784 C 0.38024 0.72072 0.85315 0.0
C3785 C 0.38211 0.70541 0.85519 0.0
C3786 C 0.37531 0.72845 0.86503 0.0
C3787 C 0.37213 0.72101 0.87918 0.0
C3788 C 0.37371 0.70562 0.88109 0.0
H3789 H 0.33448 0.74838 0.96137 0.0
H3790 H 0.34323 0.73429 0.94101 0.0
C3791 C 0.37877 0.69793 0.86924 0.0
C3792 C 0.36685 0.7293 0.89175 0.0
H3793 H 0.37461 0.7379 0.92969 0.0
C3794 C 0.35391 0.73706 0.88852 0.0
C3795 C 0.37451 0.72973 0.90676 0.0
C3796 C 0.38894 0.72237 0.91077 0.0
C3797 C 0.34833 0.74505 0.89991 0.0
C3798 C 0.35591 0.74534 0.9149 0.0
C3799 C 0.3688 0.73757 0.91819 0.0
C3800 C 0.35073 0.75388 0.92726 0.0
C3801 C 0.33426 0.75299 0.89593 0.0
C3802 C 0.35221 0.76954 0.92634 0.0
C3803 C 0.34729 0.77761 0.93796 0.0
C3804 C 0.34071 0.77016 0.95071 0.0
C3805 C 0.33933 0.75444 0.95163 0.0
C3806 C 0.34439 0.74638 0.94006 0.0
H3807 H 0.32823 0.74951 0.88477 0.0
H3808 H 0.32641 0.75081 0.9052 0.0
H3809 H 0.33742 0.76521 0.89499 0.0
H3810 H 0.35718 0.77553 0.9166 0.0
H3811 H 0.34839 0.78968 0.93682 0.0
H3812 H 0.34595 0.32397 0.87457 0.0
H3813 H 0.33675 0.31096 0.89803 0.0
H3814 H 0.37018 0.33771 0.92611 0.0
H3815 H 0.37934 0.35062 0.90255 0.0
H3816 H 0.36439 0.30645 0.9373 0.0
H3817 H 0.3124 0.3359 0.92456 0.0
H3818 H 0.31719 0.32505 0.90923 0.0
H3819 H 0.32945 0.34114 0.91505 0.0
C3820 C 0.35165 0.32659 0.88576 0.0
C3821 C 0.3634 0.33811 0.88687 0.0
C3822 C 0.34632 0.31932 0.89913 0.0
C3823 C 0.35262 0.32354 0.91384 0.0
C3824 C 0.36514 0.33428 0.9149 0.0
H3825 H 0.30923 0.315 1.00018 0.0
H3826 H 0.3221 0.32381 0.97723 0.0
C3827 C 0.37045 0.34156 0.9015 0.0
C3828 C 0.34525 0.31787 0.928 0.0
H3829 H 0.3129 0.31884 0.94618 0.0
C3830 C 0.35312 0.30911 0.93925 0.0
C3831 C 0.33065 0.32159 0.93066 0.0
C3832 C 0.32193 0.33154 0.91933 0.0
C3833 C 0.34667 0.30377 0.95295 0.0
C3834 C 0.3319 0.30719 0.95542 0.0
C3835 C 0.32415 0.31613 0.94426 0.0
C3836 C 0.32431 0.30172 0.96953 0.0
C3837 C 0.35581 0.29475 0.96481 0.0
C3838 C 0.32104 0.28638 0.97278 0.0
C3839 C 0.31356 0.28129 0.98585 0.0
C3840 C 0.30912 0.29144 0.99601 0.0
C3841 C 0.31232 0.30683 0.99263 0.0
C3842 C 0.31978 0.3119 0.97952 0.0
H3843 H 0.36806 0.29625 0.96303 0.0
H3844 H 0.35426 0.2979 0.97672 0.0
H3845 H 0.35193 0.28273 0.96384 0.0
H3846 H 0.32407 0.2783 0.96506 0.0
H3847 H 0.31104 0.26939 0.9878 0.0
H3848 H 0.66487 0.69476 0.23099 0.0
H3849 H 0.6431 0.70044 0.24442 0.0
H3850 H 0.61531 0.69934 0.20118 0.0
H3851 H 0.63695 0.69319 0.18791 0.0
H3852 H 0.62602 0.72423 0.24033 0.0
H3853 H 0.58936 0.67207 0.22873 0.0
H3854 H 0.60919 0.67408 0.22556 0.0
H3855 H 0.59563 0.68179 0.21155 0.0
C3856 C 0.65404 0.69555 0.22444 0.0
C3857 C 0.65256 0.69345 0.20844 0.0
C3858 C 0.64163 0.69888 0.23208 0.0
C3859 C 0.62743 0.7001 0.22391 0.0
C3860 C 0.626 0.69815 0.20786 0.0
H3861 H 0.53968 0.72245 0.24903 0.0
H3862 H 0.56115 0.71648 0.23549 0.0
C3863 C 0.6384 0.69479 0.20024 0.0
C3864 C 0.61426 0.70379 0.23209 0.0
H3865 H 0.57795 0.69149 0.23949 0.0
C3866 C 0.61554 0.71701 0.2402 0.0
C3867 C 0.60053 0.69443 0.23194 0.0
C3868 C 0.59859 0.67973 0.22411 0.0
C3869 C 0.60346 0.72124 0.24791 0.0
C3870 C 0.58973 0.71189 0.24774 0.0
C3871 C 0.58843 0.69869 0.23961 0.0
C3872 C 0.57665 0.71555 0.25605 0.0
C3873 C 0.6054 0.73587 0.25588 0.0
C3874 C 0.57808 0.71683 0.27218 0.0
C3875 C 0.56582 0.72028 0.27996 0.0
C3876 C 0.55175 0.7225 0.27183 0.0
C3877 C 0.55033 0.72103 0.25568 0.0
C3878 C 0.5626 0.71752 0.24791 0.0
H3879 H 0.61483 0.74347 0.25154 0.0
H3880 H 0.59488 0.74164 0.25422 0.0
H3881 H 0.60803 0.73368 0.26847 0.0
H3882 H 0.58869 0.7151 0.27879 0.0
H3883 H 0.56746 0.7214 0.29234 0.0
H3884 H 0.34494 0.6646 0.19625 0.0
H3885 H 0.34765 0.64468 0.21652 0.0
H3886 H 0.35586 0.61433 0.18204 0.0
H3887 H 0.35342 0.63436 0.16189 0.0
H3888 H 0.32971 0.61734 0.21773 0.0
H3889 H 0.39028 0.60867 0.21617 0.0
H3890 H 0.38226 0.62529 0.20792 0.0
H3891 H 0.37983 0.60838 0.19751 0.0
C3892 C 0.34746 0.65369 0.19312 0.0
C3893 C 0.34885 0.65087 0.17761 0.0
C3894 C 0.34899 0.64235 0.20464 0.0
C3895 C 0.35212 0.62809 0.2008 0.0
C3896 C 0.35369 0.62532 0.18529 0.0
H3897 H 0.33364 0.54167 0.24259 0.0
H3898 H 0.33592 0.56478 0.22674 0.0
C3899 C 0.35211 0.63666 0.17378 0.0
C3900 C 0.35275 0.6158 0.21282 0.0
H3901 H 0.37506 0.58944 0.22928 0.0
C3902 C 0.33968 0.61136 0.22039 0.0
C3903 C 0.36583 0.60813 0.21641 0.0
C3904 C 0.3804 0.61293 0.2092 0.0
C3905 C 0.33913 0.59901 0.23094 0.0
C3906 C 0.35193 0.59085 0.23389 0.0
C3907 C 0.36523 0.59567 0.22687 0.0
C3908 C 0.35127 0.57675 0.24345 0.0
C3909 C 0.32476 0.59461 0.23869 0.0
C3910 C 0.35948 0.57572 0.25795 0.0
C3911 C 0.35808 0.56249 0.26718 0.0
C3912 C 0.34852 0.55008 0.26198 0.0
C3913 C 0.34078 0.55108 0.24717 0.0
C3914 C 0.34213 0.56427 0.23803 0.0
H3915 H 0.31734 0.60389 0.23807 0.0
H3916 H 0.31841 0.58501 0.23279 0.0
H3917 H 0.32733 0.59111 0.25102 0.0
H3918 H 0.36665 0.58526 0.26227 0.0
H3919 H 0.36416 0.56213 0.27853 0.0
H3920 H 0.42419 0.33673 0.19143 0.0
H3921 H 0.44691 0.32404 0.19995 0.0
H3922 H 0.42197 0.29752 0.2337 0.0
H3923 H 0.39919 0.30989 0.22463 0.0
H3924 H 0.46214 0.32481 0.22753 0.0
H3925 H 0.443 0.26563 0.21657 0.0
H3926 H 0.4324 0.28079 0.20875 0.0
H3927 H 0.43105 0.27402 0.22851 0.0
C3928 C 0.42354 0.3278 0.20027 0.0
C3929 C 0.40997 0.32392 0.20712 0.0
C3930 C 0.43651 0.32067 0.20528 0.0
C3931 C 0.43619 0.30963 0.21737 0.0
C3932 C 0.42249 0.30564 0.22408 0.0
H3933 H 0.51024 0.26209 0.26562 0.0
H3934 H 0.48671 0.27448 0.26061 0.0
C3935 C 0.40948 0.31268 0.21893 0.0
C3936 C 0.45042 0.3031 0.22359 0.0
H3937 H 0.46658 0.27024 0.23129 0.0
C3938 C 0.46307 0.31287 0.22831 0.0
C3939 C 0.45171 0.2875 0.22476 0.0
C3940 C 0.43887 0.27638 0.21924 0.0
C3941 C 0.47691 0.30751 0.234 0.0
C3942 C 0.4782 0.29197 0.23502 0.0
C3943 C 0.46552 0.28216 0.23065 0.0
C3944 C 0.49298 0.28575 0.23917 0.0
C3945 C 0.49009 0.31853 0.23883 0.0
C3946 C 0.50438 0.28817 0.22895 0.0
C3947 C 0.5177 0.28109 0.23173 0.0
C3948 C 0.52001 0.27151 0.24488 0.0
C3949 C 0.5089 0.2696 0.25553 0.0
C3950 C 0.49541 0.27656 0.2526 0.0
H3951 H 0.48639 0.32964 0.24087 0.0
H3952 H 0.49643 0.31436 0.24953 0.0
H3953 H 0.49794 0.31997 0.22953 0.0
H3954 H 0.50271 0.29506 0.21844 0.0
H3955 H 0.52599 0.28269 0.22326 0.0
H3956 H 0.71378 0.39857 0.15242 0.0
H3957 H 0.72319 0.42302 0.16268 0.0
H3958 H 0.74525 0.40082 0.20245 0.0
H3959 H 0.73589 0.37653 0.19209 0.0
H3960 H 0.71501 0.43147 0.19148 0.0
H3961 H 0.7774 0.43436 0.19101 0.0
H3962 H 0.76478 0.42179 0.17926 0.0
H3963 H 0.76901 0.41727 0.19949 0.0
C3964 C 0.72114 0.39902 0.16302 0.0
C3965 C 0.7243 0.3858 0.17143 0.0
C3966 C 0.72637 0.41292 0.16897 0.0
C3967 C 0.73499 0.41376 0.18331 0.0
C3968 C 0.73885 0.40049 0.19126 0.0
H3969 H 0.76915 0.4848 0.24494 0.0
H3970 H 0.76068 0.46059 0.23405 0.0
C3971 C 0.73355 0.38664 0.18535 0.0
C3972 C 0.73856 0.42831 0.19079 0.0
H3973 H 0.76767 0.45208 0.2059 0.0
C3974 C 0.72653 0.43605 0.19451 0.0
C3975 C 0.75358 0.43416 0.19494 0.0
C3976 C 0.76696 0.42655 0.19087 0.0
C3977 C 0.72908 0.44937 0.20249 0.0
C3978 C 0.74411 0.45528 0.20658 0.0
C3979 C 0.75615 0.44752 0.20285 0.0
C3980 C 0.74765 0.46978 0.21421 0.0
C3981 C 0.71564 0.45676 0.20678 0.0
C3982 C 0.74286 0.48299 0.2069 0.0
C3983 C 0.74756 0.49683 0.21317 0.0
C3984 C 0.75731 0.49781 0.22681 0.0
C3985 C 0.76154 0.48449 0.2345 0.0
C3986 C 0.75681 0.47063 0.22821 0.0
H3987 H 0.70543 0.44869 0.20718 0.0
H3988 H 0.71799 0.46188 0.2182 0.0
H3989 H 0.71304 0.4657 0.19793 0.0
H3990 H 0.73602 0.48269 0.19596 0.0
H3991 H 0.74413 0.50683 0.20687 0.0
H3992 H 0.65308 0.36977 0.83587 0.0
H3993 H 0.62786 0.36023 0.82501 0.0
H3994 H 0.64652 0.35166 0.78251 0.0
H3995 H 0.67186 0.36068 0.79372 0.0
H3996 H 0.60934 0.36786 0.79897 0.0
H3997 H 0.6275 0.31073 0.79576 0.0
H3998 H 0.63907 0.32525 0.80589 0.0
H3999 H 0.63797 0.32525 0.78512 0.0
C4000 C 0.65167 0.36593 0.82418 0.0
C4001 C 0.66425 0.36587 0.81558 0.0
C4002 C 0.63733 0.36057 0.81795 0.0
C4003 C 0.63535 0.35505 0.80302 0.0
C4004 C 0.64784 0.35563 0.79414 0.0
H4005 H 0.55479 0.29862 0.76938 0.0
H4006 H 0.57703 0.3167 0.76761 0.0
C4007 C 0.66223 0.3609 0.80045 0.0
C4008 C 0.62038 0.34782 0.79733 0.0
H4009 H 0.602 0.31385 0.78884 0.0
C4010 C 0.60774 0.3561 0.79655 0.0
C4011 C 0.61833 0.33247 0.79414 0.0
C4012 C 0.63139 0.32283 0.79537 0.0
C4013 C 0.59305 0.3493 0.7932 0.0
C4014 C 0.59097 0.33383 0.79071 0.0
C4015 C 0.60365 0.32574 0.79068 0.0
C4016 C 0.57588 0.32533 0.7902 0.0
C4017 C 0.57985 0.35865 0.7927 0.0
C4018 C 0.56767 0.32448 0.80332 0.0
C4019 C 0.55507 0.31414 0.8044 0.0
C4020 C 0.55044 0.30444 0.79239 0.0
C4021 C 0.55804 0.306 0.77879 0.0
C4022 C 0.57076 0.31629 0.77777 0.0
H4023 H 0.58331 0.37057 0.78973 0.0
H4024 H 0.57057 0.35455 0.78417 0.0
H4025 H 0.57543 0.35803 0.80429 0.0
H4026 H 0.57158 0.33112 0.81317 0.0
H4027 H 0.54943 0.31321 0.81501 0.0
H4028 H 0.73572 0.62999 0.8593 0.0
H4029 H 0.7465 0.61019 0.84676 0.0
H4030 H 0.75019 0.63871 0.80548 0.0
H4031 H 0.74008 0.65876 0.81838 0.0
H4032 H 0.73717 0.59502 0.82107 0.0
H4033 H 0.79271 0.62689 0.81314 0.0
H4034 H 0.77921 0.63325 0.82499 0.0
H4035 H 0.7767 0.6357 0.80427 0.0
C4036 C 0.73898 0.63203 0.84761 0.0
C4037 C 0.73722 0.64592 0.83985 0.0
C4038 C 0.74503 0.6207 0.8404 0.0
C4039 C 0.74941 0.623 0.82524 0.0
C4040 C 0.74723 0.63675 0.81729 0.0
H4041 H 0.79809 0.56097 0.77636 0.0
H4042 H 0.78115 0.58038 0.77996 0.0
C4043 C 0.74129 0.64814 0.82458 0.0
C4044 C 0.75638 0.611 0.81798 0.0
H4045 H 0.789 0.60265 0.80377 0.0
C4046 C 0.74846 0.59675 0.81717 0.0
C4047 C 0.77111 0.61321 0.81281 0.0
C4048 C 0.78051 0.62804 0.81394 0.0
C4049 C 0.75499 0.58462 0.81177 0.0
C4050 C 0.76986 0.58675 0.80708 0.0
C4051 C 0.77755 0.60109 0.80725 0.0
C4052 C 0.77835 0.57396 0.80399 0.0
C4053 C 0.74606 0.56953 0.8114 0.0
C4054 C 0.78222 0.56386 0.8162 0.0
C4055 C 0.79193 0.55297 0.81421 0.0
C4056 C 0.79789 0.55183 0.79992 0.0
C4057 C 0.79346 0.56147 0.78742 0.0
C4058 C 0.78389 0.57259 0.7895 0.0
H4059 H 0.73371 0.57052 0.81114 0.0
H4060 H 0.74832 0.56345 0.80118 0.0
H4061 H 0.74947 0.56277 0.82197 0.0
H4062 H 0.77829 0.56483 0.82752 0.0
H4063 H 0.7952 0.54574 0.82406 0.0
H4064 H 0.4207 0.6698 0.82489 0.0
H4065 H 0.44435 0.67179 0.81194 0.0
H4066 H 0.4335 0.71417 0.79051 0.0
H4067 H 0.4099 0.71209 0.80341 0.0
H4068 H 0.44761 0.69332 0.77091 0.0
H4069 H 0.47838 0.7046 0.82839 0.0
H4070 H 0.46539 0.68806 0.82705 0.0
H4071 H 0.45833 0.7061 0.82468 0.0
C4072 C 0.42325 0.67929 0.81707 0.0
C4073 C 0.41365 0.69084 0.81513 0.0
C4074 C 0.43673 0.68048 0.80976 0.0
C4075 C 0.44071 0.6932 0.80039 0.0
C4076 C 0.43063 0.70427 0.79768 0.0
H4077 H 0.51499 0.73972 0.75728 0.0
H4078 H 0.49039 0.72738 0.7628 0.0
C4079 C 0.41722 0.70311 0.80504 0.0
C4080 C 0.456 0.69582 0.79472 0.0
H4081 H 0.49272 0.70627 0.80698 0.0
C4082 C 0.45754 0.69599 0.77877 0.0
C4083 C 0.46889 0.69929 0.80502 0.0
C4084 C 0.46778 0.69962 0.82225 0.0
C4085 C 0.47167 0.69969 0.77283 0.0
C4086 C 0.48449 0.70373 0.78309 0.0
C4087 C 0.48295 0.70313 0.79908 0.0
C4088 C 0.49938 0.70967 0.77765 0.0
C4089 C 0.47269 0.69921 0.75562 0.0
C4090 C 0.51274 0.70385 0.78405 0.0
C4091 C 0.52688 0.71106 0.7811 0.0
C4092 C 0.52797 0.72423 0.77166 0.0
C4093 C 0.5146 0.72953 0.7645 0.0
C4094 C 0.50047 0.72241 0.76758 0.0
H4095 H 0.46384 0.69102 0.75037 0.0
H4096 H 0.47083 0.71036 0.75012 0.0
H4097 H 0.48394 0.69622 0.75294 0.0
H4098 H 0.51222 0.69407 0.79187 0.0
H4099 H 0.53694 0.70667 0.78679 0.0
H4100 H 0.35367 0.37273 0.82791 0.0
H4101 H 0.34349 0.39524 0.81542 0.0
H4102 H 0.34946 0.4164 0.85924 0.0
H4103 H 0.36009 0.39407 0.8715 0.0
H4104 H 0.31857 0.40838 0.8211 0.0
H4105 H 0.36911 0.44855 0.83151 0.0
H4106 H 0.36988 0.42862 0.83419 0.0
H4107 H 0.36318 0.43901 0.84892 0.0
C4108 C 0.35303 0.38234 0.83472 0.0
C4109 C 0.35785 0.38185 0.85055 0.0
C4110 C 0.34714 0.39513 0.82765 0.0
C4111 C 0.34595 0.40767 0.83631 0.0
C4112 C 0.35062 0.40707 0.8522 0.0
H4113 H 0.30762 0.49268 0.81811 0.0
H4114 H 0.31842 0.47028 0.82967 0.0
C4115 C 0.35658 0.39431 0.85923 0.0
C4116 C 0.3393 0.42111 0.82884 0.0
H4117 H 0.34609 0.45892 0.82276 0.0
C4118 C 0.32464 0.41941 0.82137 0.0
C4119 C 0.3472 0.43554 0.82918 0.0
C4120 C 0.36326 0.43806 0.83624 0.0
C4121 C 0.31756 0.43173 0.81454 0.0
C4122 C 0.3254 0.44615 0.81505 0.0
C4123 C 0.34007 0.44787 0.82245 0.0
C4124 C 0.31857 0.45961 0.80796 0.0
C4125 C 0.30162 0.42929 0.80713 0.0
C4126 C 0.31513 0.46112 0.79189 0.0
C4127 C 0.30894 0.47393 0.78524 0.0
C4128 C 0.30604 0.48551 0.79452 0.0
C4129 C 0.3095 0.48393 0.81063 0.0
C4130 C 0.31577 0.47116 0.81725 0.0
H4131 H 0.296 0.41826 0.81072 0.0
H4132 H 0.29472 0.43818 0.81014 0.0
H4133 H 0.30189 0.42973 0.79437 0.0
H4134 H 0.31738 0.45244 0.78447 0.0
H4135 H 0.30633 0.4747 0.77284 0.0
H4136 H 0.7062 0.67383 0.21747 0.0
H4137 H 0.72411 0.65465 0.21897 0.0
H4138 H 0.70904 0.64325 0.17216 0.0
H4139 H 0.69105 0.66247 0.17075 0.0
H4140 H 0.71588 0.62424 0.21587 0.0
H4141 H 0.75529 0.64568 0.17202 0.0
H4142 H 0.74274 0.65735 0.1799 0.0
H4143 H 0.73557 0.64446 0.16534 0.0
C4144 C 0.70687 0.66731 0.20748 0.0
C4145 C 0.69725 0.66956 0.19403 0.0
C4146 C 0.71709 0.65638 0.20831 0.0
C4147 C 0.71804 0.64753 0.19565 0.0
C4148 C 0.70874 0.65009 0.18199 0.0
H4149 H 0.76787 0.56946 0.18632 0.0
H4150 H 0.75232 0.59052 0.18144 0.0
C4151 C 0.69847 0.66104 0.18118 0.0
C4152 C 0.72792 0.63496 0.19728 0.0
H4153 H 0.75837 0.62145 0.18325 0.0
C4154 C 0.7252 0.62367 0.20875 0.0
C4155 C 0.74 0.63411 0.18791 0.0
C4156 C 0.74371 0.64608 0.17567 0.0
C4157 C 0.73413 0.61157 0.2111 0.0
C4158 C 0.74642 0.61085 0.20196 0.0
C4159 C 0.74902 0.62202 0.19031 0.0
C4160 C 0.75674 0.59866 0.20454 0.0
C4161 C 0.73011 0.59952 0.22318 0.0
C4162 C 0.76481 0.59644 0.219 0.0
C4163 C 0.77369 0.58443 0.22182 0.0
C4164 C 0.77487 0.57437 0.21021 0.0
C4165 C 0.7673 0.57699 0.19552 0.0
C4166 C 0.75835 0.58901 0.19272 0.0
H4167 H 0.71816 0.59943 0.22589 0.0
H4168 H 0.73192 0.58831 0.21933 0.0
H4169 H 0.73741 0.6016 0.23401 0.0
H4170 H 0.76411 0.60395 0.22819 0.0
H4171 H 0.7796 0.58297 0.23315 0.0
H4172 H 0.73056 0.37646 0.82925 0.0
H4173 H 0.7529 0.39462 0.83214 0.0
H4174 H 0.7238 0.43015 0.83298 0.0
H4175 H 0.70154 0.41186 0.8307 0.0
H4176 H 0.76122 0.41849 0.81318 0.0
H4177 H 0.75283 0.43762 0.87108 0.0
H4178 H 0.74269 0.42099 0.86327 0.0
H4179 H 0.73653 0.43909 0.8576 0.0
C4180 C 0.72904 0.38817 0.8301 0.0
C4181 C 0.71445 0.39287 0.82969 0.0
C4182 C 0.74173 0.3985 0.83175 0.0
C4183 C 0.74001 0.41369 0.83306 0.0
C4184 C 0.72539 0.41843 0.83234 0.0
H4185 H 0.79165 0.49706 0.82554 0.0
H4186 H 0.77305 0.47591 0.83044 0.0
C4187 C 0.7127 0.40807 0.83078 0.0
C4188 C 0.75347 0.42469 0.83452 0.0
H4189 H 0.77039 0.45307 0.85633 0.0
C4190 C 0.76337 0.4259 0.82274 0.0
C4191 C 0.75629 0.43426 0.84706 0.0
C4192 C 0.74661 0.43284 0.86055 0.0
C4193 C 0.7756 0.43693 0.82275 0.0
C4194 C 0.77805 0.44689 0.83496 0.0
C4195 C 0.76845 0.44539 0.84701 0.0
C4196 C 0.7896 0.45979 0.83451 0.0
C4197 C 0.78542 0.4383 0.80936 0.0
C4198 C 0.80509 0.45777 0.83579 0.0
C4199 C 0.81574 0.46987 0.83303 0.0
C4200 C 0.81099 0.48408 0.82887 0.0
C4201 C 0.79556 0.48618 0.82856 0.0
C4202 C 0.78496 0.47415 0.83142 0.0
H4203 H 0.78074 0.43103 0.79981 0.0
H4204 H 0.78671 0.45005 0.80472 0.0
H4205 H 0.79685 0.43505 0.81344 0.0
H4206 H 0.80886 0.44675 0.83829 0.0
H4207 H 0.82756 0.46794 0.83325 0.0
H4208 H 0.71945 0.70371 0.8403 0.0
H4209 H 0.69822 0.71908 0.83394 0.0
H4210 H 0.6685 0.6851 0.85561 0.0
H4211 H 0.68998 0.67021 0.86252 0.0
H4212 H 0.67468 0.71269 0.81516 0.0
H4213 H 0.65372 0.72099 0.87176 0.0
H4214 H 0.67174 0.71392 0.87012 0.0
H4215 H 0.65459 0.70155 0.86882 0.0
C4216 C 0.70846 0.69991 0.84419 0.0
C4217 C 0.70631 0.68606 0.85222 0.0
C4218 C 0.69631 0.70856 0.84044 0.0
C4219 C 0.68169 0.70341 0.84445 0.0
C4220 C 0.67966 0.68962 0.85278 0.0
H4221 H 0.59904 0.72764 0.79232 0.0
H4222 H 0.62167 0.71605 0.80291 0.0
C4223 C 0.69189 0.68109 0.85672 0.0
C4224 C 0.66844 0.71172 0.83863 0.0
H4225 H 0.63648 0.7251 0.8494 0.0
C4226 C 0.66644 0.71553 0.82272 0.0
C4227 C 0.65769 0.71565 0.84842 0.0
C4228 C 0.65963 0.71296 0.86574 0.0
C4229 C 0.65393 0.72282 0.8163 0.0
C4230 C 0.64272 0.72596 0.82594 0.0
C4231 C 0.6449 0.7225 0.84192 0.0
C4232 C 0.6287 0.73284 0.81969 0.0
C4233 C 0.65306 0.7273 0.79927 0.0
C4234 C 0.62466 0.74583 0.82594 0.0
C4235 C 0.61155 0.75233 0.82005 0.0
C4236 C 0.6022 0.74604 0.80771 0.0
C4237 C 0.60616 0.73294 0.8016 0.0
C4238 C 0.61915 0.72633 0.80762 0.0
H4239 H 0.66445 0.72862 0.79484 0.0
H4240 H 0.64617 0.71842 0.79272 0.0
H4241 H 0.64776 0.73794 0.79688 0.0
H4242 H 0.63176 0.75106 0.83528 0.0
H4243 H 0.60886 0.76244 0.82498 0.0
H4244 H 0.38564 0.68006 0.79482 0.0
H4245 H 0.37635 0.65825 0.77953 0.0
H4246 H 0.37793 0.63001 0.82125 0.0
H4247 H 0.38704 0.65181 0.83642 0.0
H4248 H 0.38682 0.62945 0.77595 0.0
H4249 H 0.33319 0.62529 0.80445 0.0
H4250 H 0.34676 0.64148 0.80568 0.0
H4251 H 0.34976 0.62501 0.81777 0.0
C4252 C 0.38425 0.66911 0.80058 0.0
C4253 C 0.38683 0.66751 0.81674 0.0
C4254 C 0.37894 0.6567 0.7919 0.0
C4255 C 0.37616 0.64257 0.79931 0.0
C4256 C 0.3797 0.64086 0.81535 0.0
H4257 H 0.3332 0.55603 0.7766 0.0
H4258 H 0.34837 0.57734 0.78794 0.0
C4259 C 0.38493 0.65324 0.82399 0.0
C4260 C 0.36859 0.6298 0.79057 0.0
H4261 H 0.33687 0.60526 0.78896 0.0
C4262 C 0.37587 0.62419 0.77871 0.0
C4263 C 0.35423 0.62305 0.79409 0.0
C4264 C 0.34544 0.62908 0.80608 0.0
C4265 C 0.36936 0.61165 0.77066 0.0
C4266 C 0.35518 0.6047 0.77449 0.0
C4267 C 0.34781 0.61052 0.78614 0.0
C4268 C 0.34772 0.59123 0.76684 0.0
C4269 C 0.37787 0.60568 0.75844 0.0
C4270 C 0.34251 0.59185 0.7511 0.0
C4271 C 0.33379 0.57962 0.74452 0.0
C4272 C 0.33004 0.56661 0.75363 0.0
C4273 C 0.33581 0.56586 0.76924 0.0
C4274 C 0.3445 0.57805 0.77576 0.0
H4275 H 0.38992 0.61027 0.75913 0.0
H4276 H 0.37734 0.5933 0.75953 0.0
H4277 H 0.37257 0.60884 0.74683 0.0
H4278 H 0.34464 0.60199 0.74405 0.0
H4279 H 0.32947 0.5806 0.7325 0.0
H4280 H 0.37332 0.32074 0.85784 0.0
H4281 H 0.39327 0.30492 0.85282 0.0
H4282 H 0.42722 0.34021 0.86656 0.0
H4283 H 0.40728 0.35582 0.87169 0.0
H4284 H 0.41409 0.31259 0.83083 0.0
H4285 H 0.44403 0.30325 0.88872 0.0
H4286 H 0.42524 0.3094 0.88613 0.0
H4287 H 0.44148 0.32252 0.88377 0.0
C4288 C 0.38507 0.32484 0.86023 0.0
C4289 C 0.38885 0.3394 0.86521 0.0
C4290 C 0.39645 0.3159 0.85725 0.0
C4291 C 0.41179 0.32131 0.85939 0.0
C4292 C 0.41553 0.33565 0.86505 0.0
H4293 H 0.48816 0.29739 0.81364 0.0
H4294 H 0.46736 0.30935 0.82276 0.0
C4295 C 0.40416 0.34459 0.86794 0.0
C4296 C 0.4238 0.31262 0.85442 0.0
H4297 H 0.45687 0.29776 0.86698 0.0
C4298 C 0.42337 0.30924 0.83877 0.0
C4299 C 0.4359 0.30815 0.86477 0.0
C4300 C 0.43667 0.31088 0.88182 0.0
C4301 C 0.43487 0.30191 0.83312 0.0
C4302 C 0.44726 0.29796 0.84335 0.0
C4303 C 0.44748 0.30094 0.85909 0.0
C4304 C 0.46006 0.2907 0.8379 0.0
C4305 C 0.43361 0.29838 0.81625 0.0
C4306 C 0.46312 0.27633 0.84357 0.0
C4307 C 0.475 0.26938 0.8383 0.0
C4308 C 0.48422 0.27669 0.8273 0.0
C4309 C 0.48122 0.29123 0.82185 0.0
C4310 C 0.46931 0.29813 0.82709 0.0
H4311 H 0.42185 0.29874 0.81089 0.0
H4312 H 0.44101 0.30676 0.80992 0.0
H4313 H 0.43734 0.28717 0.81473 0.0
H4314 H 0.45617 0.27037 0.85193 0.0
H4315 H 0.47675 0.25817 0.84272 0.0
H4316 H 0.35411 0.35269 0.21421 0.0
H4317 H 0.34313 0.37494 0.22177 0.0
H4318 H 0.38578 0.40101 0.21692 0.0
H4319 H 0.39648 0.37891 0.20872 0.0
H4320 H 0.35059 0.39223 0.24596 0.0
H4321 H 0.35742 0.42707 0.19221 0.0
H4322 H 0.35983 0.40736 0.19339 0.0
H4323 H 0.37498 0.42068 0.20032 0.0
C4324 C 0.36103 0.36324 0.21459 0.0
C4325 C 0.37611 0.36413 0.21082 0.0
C4326 C 0.3548 0.37592 0.21897 0.0
C4327 C 0.36351 0.38978 0.21964 0.0
C4328 C 0.37867 0.39059 0.21612 0.0
H4329 H 0.36027 0.4751 0.2561 0.0
H4330 H 0.36545 0.45279 0.24349 0.0
C4331 C 0.38487 0.37792 0.21165 0.0
C4332 C 0.35694 0.40323 0.22457 0.0
H4333 H 0.35241 0.43988 0.21448 0.0
C4334 C 0.35078 0.40258 0.23897 0.0
C4335 C 0.35707 0.41675 0.21542 0.0
C4336 C 0.36253 0.41799 0.19941 0.0
C4337 C 0.34544 0.41521 0.24475 0.0
C4338 C 0.34614 0.42886 0.23587 0.0
C4339 C 0.35188 0.42942 0.22129 0.0
C4340 C 0.34232 0.44295 0.24215 0.0
C4341 C 0.33968 0.41407 0.26064 0.0
C4342 C 0.32745 0.44509 0.24518 0.0
C4343 C 0.32439 0.458 0.25232 0.0
C4344 C 0.33619 0.46888 0.25663 0.0
C4345 C 0.35092 0.46692 0.253 0.0
C4346 C 0.35392 0.45416 0.24577 0.0
H4347 H 0.34184 0.40331 0.26691 0.0
H4348 H 0.3451 0.42337 0.26768 0.0
H4349 H 0.32731 0.41499 0.25952 0.0
H4350 H 0.31828 0.43664 0.24233 0.0
H4351 H 0.31295 0.45915 0.25503 0.0
H4352 H 0.69774 0.3368 0.19595 0.0
H4353 H 0.6771 0.31913 0.20452 0.0
H4354 H 0.6514 0.32642 0.16073 0.0
H4355 H 0.6718 0.34457 0.1525 0.0
H4356 H 0.63422 0.3271 0.18448 0.0
H4357 H 0.66576 0.27678 0.19179 0.0
H4358 H 0.6747 0.29196 0.20283 0.0
H4359 H 0.67302 0.2938 0.18202 0.0
C4360 C 0.68764 0.33461 0.18824 0.0
C4361 C 0.68631 0.34193 0.17357 0.0
C4362 C 0.67595 0.32441 0.19303 0.0
C4363 C 0.66282 0.32121 0.18314 0.0
C4364 C 0.66147 0.32861 0.1685 0.0
H4365 H 0.59448 0.24722 0.19991 0.0
H4366 H 0.61445 0.26406 0.1891 0.0
C4367 C 0.67311 0.33888 0.16377 0.0
C4368 C 0.65025 0.31058 0.18825 0.0
H4369 H 0.6418 0.27492 0.20242 0.0
C4370 C 0.63586 0.31566 0.1883 0.0
C4371 C 0.65232 0.29558 0.193 0.0
C4372 C 0.66725 0.28914 0.19227 0.0
C4373 C 0.62358 0.30628 0.19333 0.0
C4374 C 0.62583 0.29151 0.19881 0.0
C4375 C 0.64012 0.2863 0.19838 0.0
C4376 C 0.61357 0.28137 0.20525 0.0
C4377 C 0.60827 0.31225 0.19253 0.0
C4378 C 0.60654 0.28542 0.21803 0.0
C4379 C 0.595 0.27591 0.22412 0.0
C4380 C 0.59034 0.262 0.21771 0.0
C4381 C 0.59757 0.25789 0.20503 0.0
C4382 C 0.60909 0.26747 0.19888 0.0
H4383 H 0.60742 0.32174 0.18387 0.0
H4384 H 0.59906 0.30343 0.1895 0.0
H4385 H 0.60649 0.31639 0.20397 0.0
H4386 H 0.61003 0.29594 0.22335 0.0
H4387 H 0.58967 0.27959 0.23376 0.0
H4388 H 0.38105 0.6631 0.16949 0.0
H4389 H 0.40356 0.67105 0.18661 0.0
H4390 H 0.38003 0.7063 0.20244 0.0
H4391 H 0.35751 0.69812 0.18547 0.0
H4392 H 0.42003 0.69974 0.18598 0.0
H4393 H 0.39691 0.68509 0.24271 0.0
H4394 H 0.38816 0.67769 0.22482 0.0
H4395 H 0.38544 0.69634 0.22966 0.0
C4396 C 0.38076 0.67244 0.17678 0.0
C4397 C 0.36777 0.68011 0.17625 0.0
C4398 C 0.39355 0.677 0.18646 0.0
C4399 C 0.3934 0.6892 0.19584 0.0
C4400 C 0.38029 0.69675 0.19544 0.0
H4401 H 0.46887 0.7432 0.24096 0.0
H4402 H 0.44753 0.73352 0.22347 0.0
C4403 C 0.36754 0.69219 0.18573 0.0
C4404 C 0.40711 0.69435 0.20567 0.0
H4405 H 0.42061 0.69964 0.24316 0.0
C4406 C 0.4202 0.69967 0.19849 0.0
C4407 C 0.40731 0.69409 0.22197 0.0
C4408 C 0.39376 0.68788 0.2303 0.0
C4409 C 0.43346 0.70501 0.2072 0.0
C4410 C 0.4335 0.70518 0.22347 0.0
C4411 C 0.42049 0.69961 0.23066 0.0
C4412 C 0.44698 0.71091 0.23335 0.0
C4413 C 0.44733 0.71024 0.19895 0.0
C4414 C 0.45367 0.70143 0.24473 0.0
C4415 C 0.46579 0.70693 0.25476 0.0
C4416 C 0.47141 0.72205 0.25366 0.0
C4417 C 0.46486 0.73149 0.24205 0.0
C4418 C 0.45271 0.72596 0.23202 0.0
H4419 H 0.44661 0.70597 0.18711 0.0
H4420 H 0.44846 0.72263 0.19789 0.0
H4421 H 0.4577 0.70661 0.20554 0.0
H4422 H 0.4494 0.68979 0.24596 0.0
H4423 H 0.47057 0.69935 0.26355 0.0
loop_
_geom_bond_atom_site_label_1
_geom_bond_atom_site_label_2
_geom_bond_distance
_geom_bond_site_symmetry_2
_ccdc_geom_bond_type
C0 N1 1.317 . S
C0 N2 1.348 . S
C0 C3 1.485 . S
N1 C0 1.317 . S
N1 N5 1.370 . S
N2 C0 1.348 . S
N2 C4 1.346 . S
C3 C0 1.485 . S
C3 H7 0.960 . S
C3 H8 0.961 . S
C3 H9 0.960 . S
C4 N2 1.346 . S
C4 N5 1.307 . S
C4 C6 1.486 . S
N5 N1 1.370 . S
N5 C4 1.307 . S
C6 C4 1.486 . S
C6 H10 0.960 . S
C6 H11 0.960 . S
C6 H12 0.959 . S
H7 C3 0.960 . S
H8 C3 0.961 . S
H9 C3 0.960 . S
H10 C6 0.960 . S
H11 C6 0.960 . S
H12 C6 0.959 . S
C13 N14 1.317 . S
C13 N15 1.348 . S
C13 C16 1.485 . S
N14 C13 1.317 . S
N14 N18 1.370 . S
N15 C13 1.348 . S
N15 C17 1.346 . S
C16 C13 1.485 . S
C16 H20 0.960 . S
C16 H21 0.961 . S
C16 H22 0.960 . S
C17 N15 1.346 . S
C17 N18 1.307 . S
C17 C19 1.486 . S
N18 N14 1.370 . S
N18 C17 1.307 . S
C19 C17 1.486 . S
C19 H23 0.960 . S
C19 H24 0.960 . S
C19 H25 0.959 . S
H20 C16 0.960 . S
H21 C16 0.961 . S
H22 C16 0.960 . S
H23 C19 0.960 . S
H24 C19 0.960 . S
H25 C19 0.959 . S
C26 N27 1.317 . S
C26 N28 1.348 . S
C26 C29 1.485 . S
N27 C26 1.317 . S
N27 N31 1.370 . S
N28 C26 1.348 . S
N28 C30 1.346 . S
C29 C26 1.485 . S
C29 H33 0.960 . S
C29 H34 0.961 . S
C29 H35 0.960 . S
C30 N28 1.346 . S
C30 N31 1.307 . S
C30 C32 1.486 . S
N31 N27 1.370 . S
N31 C30 1.307 . S
C32 C30 1.486 . S
C32 H36 0.960 . S
C32 H37 0.960 . S
C32 H38 0.959 . S
H33 C29 0.960 . S
H34 C29 0.961 . S
H35 C29 0.960 . S
H36 C32 0.960 . S
H37 C32 0.960 . S
H38 C32 0.959 . S
C39 N40 1.317 . S
C39 N41 1.348 . S
C39 C42 1.485 . S
N40 C39 1.317 . S
N40 N44 1.370 . S
N41 C39 1.348 . S
N41 C43 1.346 . S
C42 C39 1.485 . S
C42 H46 0.960 . S
C42 H47 0.961 . S
C42 H48 0.960 . S
C43 N41 1.346 . S
C43 N44 1.307 . S
C43 C45 1.486 . S
N44 N40 1.370 . S
N44 C43 1.307 . S
C45 C43 1.486 . S
C45 H49 0.960 . S
C45 H50 0.960 . S
C45 H51 0.959 . S
H46 C42 0.960 . S
H47 C42 0.961 . S
H48 C42 0.960 . S
H49 C45 0.960 . S
H50 C45 0.960 . S
H51 C45 0.959 . S
C52 N53 1.317 . S
C52 N54 1.348 . S
C52 C55 1.485 . S
N53 C52 1.317 . S
N53 N57 1.370 . S
N54 C52 1.348 . S
N54 C56 1.346 . S
C55 C52 1.485 . S
C55 H59 0.960 . S
C55 H60 0.961 . S
C55 H61 0.960 . S
C56 N54 1.346 . S
C56 N57 1.307 . S
C56 C58 1.486 . S
N57 N53 1.370 . S
N57 C56 1.307 . S
C58 C56 1.486 . S
C58 H62 0.960 . S
C58 H63 0.960 . S
C58 H64 0.959 . S
H59 C55 0.960 . S
H60 C55 0.961 . S
H61 C55 0.960 . S
H62 C58 0.960 . S
H63 C58 0.960 . S
H64 C58 0.959 . S
C65 N66 1.317 . S
C65 N67 1.348 . S
C65 C68 1.485 . S
N66 C65 1.317 . S
N66 N70 1.370 . S
N67 C65 1.348 . S
N67 C69 1.346 . S
C68 C65 1.485 . S
C68 H72 0.960 . S
C68 H73 0.961 . S
C68 H74 0.960 . S
C69 N67 1.346 . S
C69 N70 1.307 . S
C69 C71 1.486 . S
N70 N66 1.370 . S
N70 C69 1.307 . S
C71 C69 1.486 . S
C71 H75 0.960 . S
C71 H76 0.960 . S
C71 H77 0.959 . S
H72 C68 0.960 . S
H73 C68 0.961 . S
H74 C68 0.960 . S
H75 C71 0.960 . S
H76 C71 0.960 . S
H77 C71 0.959 . S
C78 N79 1.317 . S
C78 N80 1.348 . S
C78 C81 1.485 . S
N79 C78 1.317 . S
N79 N83 1.370 . S
N80 C78 1.348 . S
N80 C82 1.346 . S
C81 C78 1.485 . S
C81 H85 0.960 . S
C81 H86 0.961 . S
C81 H87 0.960 . S
C82 N80 1.346 . S
C82 N83 1.307 . S
C82 C84 1.486 . S
N83 N79 1.370 . S
N83 C82 1.307 . S
C84 C82 1.486 . S
C84 H88 0.960 . S
C84 H89 0.960 . S
C84 H90 0.959 . S
H85 C81 0.960 . S
H86 C81 0.961 . S
H87 C81 0.960 . S
H88 C84 0.960 . S
H89 C84 0.960 . S
H90 C84 0.959 . S
C91 N92 1.317 . S
C91 N93 1.348 . S
C91 C94 1.485 . S
N92 C91 1.317 . S
N92 N96 1.370 . S
N93 C91 1.348 . S
N93 C95 1.346 . S
C94 C91 1.485 . S
C94 H98 0.960 . S
C94 H99 0.961 . S
C94 H100 0.960 . S
C95 N93 1.346 . S
C95 N96 1.307 . S
C95 C97 1.486 . S
N96 N92 1.370 . S
N96 C95 1.307 . S
C97 C95 1.486 . S
C97 H101 0.960 . S
C97 H102 0.960 . S
C97 H103 0.959 . S
H98 C94 0.960 . S
H99 C94 0.961 . S
H100 C94 0.960 . S
H101 C97 0.960 . S
H102 C97 0.960 . S
H103 C97 0.959 . S
C104 N105 1.317 . S
C104 N106 1.348 . S
C104 C107 1.485 . S
N105 C104 1.317 . S
N105 N109 1.370 . S
N106 C104 1.348 . S
N106 C108 1.346 . S
C107 C104 1.485 . S
C107 H111 0.960 . S
C107 H112 0.961 . S
C107 H113 0.960 . S
C108 N106 1.346 . S
C108 N109 1.307 . S
C108 C110 1.486 . S
N109 N105 1.370 . S
N109 C108 1.307 . S
C110 C108 1.486 . S
C110 H114 0.960 . S
C110 H115 0.960 . S
C110 H116 0.959 . S
H111 C107 0.960 . S
H112 C107 0.961 . S
H113 C107 0.960 . S
H114 C110 0.960 . S
H115 C110 0.960 . S
H116 C110 0.959 . S
C117 N118 1.317 . S
C117 N119 1.348 . S
C117 C120 1.485 . S
N118 C117 1.317 . S
N118 N122 1.370 . S
N119 C117 1.348 . S
N119 C121 1.346 . S
C120 C117 1.485 . S
C120 H124 0.960 . S
C120 H125 0.961 . S
C120 H126 0.960 . S
C121 N119 1.346 . S
C121 N122 1.307 . S
C121 C123 1.486 . S
N122 N118 1.370 . S
N122 C121 1.307 . S
C123 C121 1.486 . S
C123 H127 0.960 . S
C123 H128 0.960 . S
C123 H129 0.959 . S
H124 C120 0.960 . S
H125 C120 0.961 . S
H126 C120 0.960 . S
H127 C123 0.960 . S
H128 C123 0.960 . S
H129 C123 0.959 . S
C130 N131 1.317 . S
C130 N132 1.348 . S
C130 C133 1.485 . S
N131 C130 1.317 . S
N131 N135 1.370 . S
N132 C130 1.348 . S
N132 C134 1.346 . S
C133 C130 1.485 . S
C133 H137 0.960 . S
C133 H138 0.961 . S
C133 H139 0.960 . S
C134 N132 1.346 . S
C134 N135 1.307 . S
C134 C136 1.486 . S
N135 N131 1.370 . S
N135 C134 1.307 . S
C136 C134 1.486 . S
C136 H140 0.960 . S
C136 H141 0.960 . S
C136 H142 0.959 . S
H137 C133 0.960 . S
H138 C133 0.961 . S
H139 C133 0.960 . S
H140 C136 0.960 . S
H141 C136 0.960 . S
H142 C136 0.959 . S
C143 N144 1.317 . S
C143 N145 1.348 . S
C143 C146 1.485 . S
N144 C143 1.317 . S
N144 N148 1.370 . S
N145 C143 1.348 . S
N145 C147 1.346 . S
C146 C143 1.485 . S
C146 H150 0.960 . S
C146 H151 0.961 . S
C146 H152 0.960 . S
C147 N145 1.346 . S
C147 N148 1.307 . S
C147 C149 1.486 . S
N148 N144 1.370 . S
N148 C147 1.307 . S
C149 C147 1.486 . S
C149 H153 0.960 . S
C149 H154 0.960 . S
C149 H155 0.959 . S
H150 C146 0.960 . S
H151 C146 0.961 . S
H152 C146 0.960 . S
H153 C149 0.960 . S
H154 C149 0.960 . S
H155 C149 0.959 . S
C156 N157 1.317 . S
C156 N158 1.348 . S
C156 C159 1.485 . S
N157 C156 1.317 . S
N157 N161 1.370 . S
N158 C156 1.348 . S
N158 C160 1.346 . S
C159 C156 1.485 . S
C159 H163 0.960 . S
C159 H164 0.961 . S
C159 H165 0.960 . S
C160 N158 1.346 . S
C160 N161 1.307 . S
C160 C162 1.486 . S
N161 N157 1.370 . S
N161 C160 1.307 . S
C162 C160 1.486 . S
C162 H166 0.960 . S
C162 H167 0.960 . S
C162 H168 0.959 . S
H163 C159 0.960 . S
H164 C159 0.961 . S
H165 C159 0.960 . S
H166 C162 0.960 . S
H167 C162 0.960 . S
H168 C162 0.959 . S
C169 N170 1.317 . S
C169 N171 1.348 . S
C169 C172 1.485 . S
N170 C169 1.317 . S
N170 N174 1.370 . S
N171 C169 1.348 . S
N171 C173 1.346 . S
C172 C169 1.485 . S
C172 H176 0.960 . S
C172 H177 0.961 . S
C172 H178 0.960 . S
C173 N171 1.346 . S
C173 N174 1.307 . S
C173 C175 1.486 . S
N174 N170 1.370 . S
N174 C173 1.307 . S
C175 C173 1.486 . S
C175 H179 0.960 . S
C175 H180 0.960 . S
C175 H181 0.959 . S
H176 C172 0.960 . S
H177 C172 0.961 . S
H178 C172 0.960 . S
H179 C175 0.960 . S
H180 C175 0.960 . S
H181 C175 0.959 . S
C182 N183 1.317 . S
C182 N184 1.348 . S
C182 C185 1.485 . S
N183 C182 1.317 . S
N183 N187 1.370 . S
N184 C182 1.348 . S
N184 C186 1.346 . S
C185 C182 1.485 . S
C185 H189 0.960 . S
C185 H190 0.961 . S
C185 H191 0.960 . S
C186 N184 1.346 . S
C186 N187 1.307 . S
C186 C188 1.486 . S
N187 N183 1.370 . S
N187 C186 1.307 . S
C188 C186 1.486 . S
C188 H192 0.960 . S
C188 H193 0.960 . S
C188 H194 0.959 . S
H189 C185 0.960 . S
H190 C185 0.961 . S
H191 C185 0.960 . S
H192 C188 0.960 . S
H193 C188 0.960 . S
H194 C188 0.959 . S
C195 N196 1.317 . S
C195 N197 1.348 . S
C195 C198 1.485 . S
N196 C195 1.317 . S
N196 N200 1.370 . S
N197 C195 1.348 . S
N197 C199 1.346 . S
C198 C195 1.485 . S
C198 H202 0.960 . S
C198 H203 0.961 . S
C198 H204 0.960 . S
C199 N197 1.346 . S
C199 N200 1.307 . S
C199 C201 1.486 . S
N200 N196 1.370 . S
N200 C199 1.307 . S
C201 C199 1.486 . S
C201 H205 0.960 . S
C201 H206 0.960 . S
C201 H207 0.959 . S
H202 C198 0.960 . S
H203 C198 0.961 . S
H204 C198 0.960 . S
H205 C201 0.960 . S
H206 C201 0.960 . S
H207 C201 0.959 . S
C208 N209 1.317 . S
C208 N210 1.348 . S
C208 C211 1.485 . S
N209 C208 1.317 . S
N209 N213 1.370 . S
N210 C208 1.348 . S
N210 C212 1.346 . S
C211 C208 1.485 . S
C211 H215 0.960 . S
C211 H216 0.961 . S
C211 H217 0.960 . S
C212 N210 1.346 . S
C212 N213 1.307 . S
C212 C214 1.486 . S
N213 N209 1.370 . S
N213 C212 1.307 . S
C214 C212 1.486 . S
C214 H218 0.960 . S
C214 H219 0.960 . S
C214 H220 0.959 . S
H215 C211 0.960 . S
H216 C211 0.961 . S
H217 C211 0.960 . S
H218 C214 0.960 . S
H219 C214 0.960 . S
H220 C214 0.959 . S
C221 N222 1.317 . S
C221 N223 1.348 . S
C221 C224 1.485 . S
N222 C221 1.317 . S
N222 N226 1.370 . S
N223 C221 1.348 . S
N223 C225 1.346 . S
C224 C221 1.485 . S
C224 H228 0.960 . S
C224 H229 0.961 . S
C224 H230 0.960 . S
C225 N223 1.346 . S
C225 N226 1.307 . S
C225 C227 1.486 . S
N226 N222 1.370 . S
N226 C225 1.307 . S
C227 C225 1.486 . S
C227 H231 0.960 . S
C227 H232 0.960 . S
C227 H233 0.959 . S
H228 C224 0.960 . S
H229 C224 0.961 . S
H230 C224 0.960 . S
H231 C227 0.960 . S
H232 C227 0.960 . S
H233 C227 0.959 . S
C234 N235 1.317 . S
C234 N236 1.348 . S
C234 C237 1.485 . S
N235 C234 1.317 . S
N235 N239 1.370 . S
N236 C234 1.348 . S
N236 C238 1.346 . S
C237 C234 1.485 . S
C237 H241 0.960 . S
C237 H242 0.961 . S
C237 H243 0.960 . S
C238 N236 1.346 . S
C238 N239 1.307 . S
C238 C240 1.486 . S
N239 N235 1.370 . S
N239 C238 1.307 . S
C240 C238 1.486 . S
C240 H244 0.960 . S
C240 H245 0.960 . S
C240 H246 0.959 . S
H241 C237 0.960 . S
H242 C237 0.961 . S
H243 C237 0.960 . S
H244 C240 0.960 . S
H245 C240 0.960 . S
H246 C240 0.959 . S
C247 N248 1.317 . S
C247 N249 1.348 . S
C247 C250 1.485 . S
N248 C247 1.317 . S
N248 N252 1.370 . S
N249 C247 1.348 . S
N249 C251 1.346 . S
C250 C247 1.485 . S
C250 H254 0.960 . S
C250 H255 0.961 . S
C250 H256 0.960 . S
C251 N249 1.346 . S
C251 N252 1.307 . S
C251 C253 1.486 . S
N252 N248 1.370 . S
N252 C251 1.307 . S
C253 C251 1.486 . S
C253 H257 0.960 . S
C253 H258 0.960 . S
C253 H259 0.959 . S
H254 C250 0.960 . S
H255 C250 0.961 . S
H256 C250 0.960 . S
H257 C253 0.960 . S
H258 C253 0.960 . S
H259 C253 0.959 . S
C260 N261 1.317 . S
C260 N262 1.348 . S
C260 C263 1.485 . S
N261 C260 1.317 . S
N261 N265 1.370 . S
N262 C260 1.348 . S
N262 C264 1.346 . S
C263 C260 1.485 . S
C263 H267 0.960 . S
C263 H268 0.961 . S
C263 H269 0.960 . S
C264 N262 1.346 . S
C264 N265 1.307 . S
C264 C266 1.486 . S
N265 N261 1.370 . S
N265 C264 1.307 . S
C266 C264 1.486 . S
C266 H270 0.960 . S
C266 H271 0.960 . S
C266 H272 0.959 . S
H267 C263 0.960 . S
H268 C263 0.961 . S
H269 C263 0.960 . S
H270 C266 0.960 . S
H271 C266 0.960 . S
H272 C266 0.959 . S
C273 N274 1.317 . S
C273 N275 1.348 . S
C273 C276 1.485 . S
N274 C273 1.317 . S
N274 N278 1.370 . S
N275 C273 1.348 . S
N275 C277 1.346 . S
C276 C273 1.485 . S
C276 H280 0.960 . S
C276 H281 0.961 . S
C276 H282 0.960 . S
C277 N275 1.346 . S
C277 N278 1.307 . S
C277 C279 1.486 . S
N278 N274 1.370 . S
N278 C277 1.307 . S
C279 C277 1.486 . S
C279 H283 0.960 . S
C279 H284 0.960 . S
C279 H285 0.959 . S
H280 C276 0.960 . S
H281 C276 0.961 . S
H282 C276 0.960 . S
H283 C279 0.960 . S
H284 C279 0.960 . S
H285 C279 0.959 . S
C286 N287 1.317 . S
C286 N288 1.348 . S
C286 C289 1.485 . S
N287 C286 1.317 . S
N287 N291 1.370 . S
N288 C286 1.348 . S
N288 C290 1.346 . S
C289 C286 1.485 . S
C289 H293 0.960 . S
C289 H294 0.961 . S
C289 H295 0.960 . S
C290 N288 1.346 . S
C290 N291 1.307 . S
C290 C292 1.486 . S
N291 N287 1.370 . S
N291 C290 1.307 . S
C292 C290 1.486 . S
C292 H296 0.960 . S
C292 H297 0.960 . S
C292 H298 0.959 . S
H293 C289 0.960 . S
H294 C289 0.961 . S
H295 C289 0.960 . S
H296 C292 0.960 . S
H297 C292 0.960 . S
H298 C292 0.959 . S
C299 N300 1.317 . S
C299 N301 1.348 . S
C299 C302 1.485 . S
N300 C299 1.317 . S
N300 N304 1.370 . S
N301 C299 1.348 . S
N301 C303 1.346 . S
C302 C299 1.485 . S
C302 H306 0.960 . S
C302 H307 0.961 . S
C302 H308 0.960 . S
C303 N301 1.346 . S
C303 N304 1.307 . S
C303 C305 1.486 . S
N304 N300 1.370 . S
N304 C303 1.307 . S
C305 C303 1.486 . S
C305 H309 0.960 . S
C305 H310 0.960 . S
C305 H311 0.959 . S
H306 C302 0.960 . S
H307 C302 0.961 . S
H308 C302 0.960 . S
H309 C305 0.960 . S
H310 C305 0.960 . S
H311 C305 0.959 . S
C312 N313 1.317 . S
C312 N314 1.348 . S
C312 C315 1.485 . S
N313 C312 1.317 . S
N313 N317 1.370 . S
N314 C312 1.348 . S
N314 C316 1.346 . S
C315 C312 1.485 . S
C315 H319 0.960 . S
C315 H320 0.961 . S
C315 H321 0.960 . S
C316 N314 1.346 . S
C316 N317 1.307 . S
C316 C318 1.486 . S
N317 N313 1.370 . S
N317 C316 1.307 . S
C318 C316 1.486 . S
C318 H322 0.960 . S
C318 H323 0.960 . S
C318 H324 0.959 . S
H319 C315 0.960 . S
H320 C315 0.961 . S
H321 C315 0.960 . S
H322 C318 0.960 . S
H323 C318 0.960 . S
H324 C318 0.959 . S
C325 N326 1.317 . S
C325 N327 1.348 . S
C325 C328 1.485 . S
N326 C325 1.317 . S
N326 N330 1.370 . S
N327 C325 1.348 . S
N327 C329 1.346 . S
C328 C325 1.485 . S
C328 H332 0.960 . S
C328 H333 0.961 . S
C328 H334 0.960 . S
C329 N327 1.346 . S
C329 N330 1.307 . S
C329 C331 1.486 . S
N330 N326 1.370 . S
N330 C329 1.307 . S
C331 C329 1.486 . S
C331 H335 0.960 . S
C331 H336 0.960 . S
C331 H337 0.959 . S
H332 C328 0.960 . S
H333 C328 0.961 . S
H334 C328 0.960 . S
H335 C331 0.960 . S
H336 C331 0.960 . S
H337 C331 0.959 . S
C338 N339 1.317 . S
C338 N340 1.348 . S
C338 C341 1.485 . S
N339 C338 1.317 . S
N339 N343 1.370 . S
N340 C338 1.348 . S
N340 C342 1.346 . S
C341 C338 1.485 . S
C341 H345 0.960 . S
C341 H346 0.961 . S
C341 H347 0.960 . S
C342 N340 1.346 . S
C342 N343 1.307 . S
C342 C344 1.486 . S
N343 N339 1.370 . S
N343 C342 1.307 . S
C344 C342 1.486 . S
C344 H348 0.960 . S
C344 H349 0.960 . S
C344 H350 0.959 . S
H345 C341 0.960 . S
H346 C341 0.961 . S
H347 C341 0.960 . S
H348 C344 0.960 . S
H349 C344 0.960 . S
H350 C344 0.959 . S
C351 N352 1.317 . S
C351 N353 1.348 . S
C351 C354 1.485 . S
N352 C351 1.317 . S
N352 N356 1.370 . S
N353 C351 1.348 . S
N353 C355 1.346 . S
C354 C351 1.485 . S
C354 H358 0.960 . S
C354 H359 0.961 . S
C354 H360 0.960 . S
C355 N353 1.346 . S
C355 N356 1.307 . S
C355 C357 1.486 . S
N356 N352 1.370 . S
N356 C355 1.307 . S
C357 C355 1.486 . S
C357 H361 0.960 . S
C357 H362 0.960 . S
C357 H363 0.959 . S
H358 C354 0.960 . S
H359 C354 0.961 . S
H360 C354 0.960 . S
H361 C357 0.960 . S
H362 C357 0.960 . S
H363 C357 0.959 . S
C364 N365 1.317 . S
C364 N366 1.348 . S
C364 C367 1.485 . S
N365 C364 1.317 . S
N365 N369 1.370 . S
N366 C364 1.348 . S
N366 C368 1.346 . S
C367 C364 1.485 . S
C367 H371 0.960 . S
C367 H372 0.961 . S
C367 H373 0.960 . S
C368 N366 1.346 . S
C368 N369 1.307 . S
C368 C370 1.486 . S
N369 N365 1.370 . S
N369 C368 1.307 . S
C370 C368 1.486 . S
C370 H374 0.960 . S
C370 H375 0.960 . S
C370 H376 0.959 . S
H371 C367 0.960 . S
H372 C367 0.961 . S
H373 C367 0.960 . S
H374 C370 0.960 . S
H375 C370 0.960 . S
H376 C370 0.959 . S
C377 N378 1.317 . S
C377 N379 1.348 . S
C377 C380 1.485 . S
N378 C377 1.317 . S
N378 N382 1.370 . S
N379 C377 1.348 . S
N379 C381 1.346 . S
C380 C377 1.485 . S
C380 H384 0.960 . S
C380 H385 0.961 . S
C380 H386 0.960 . S
C381 N379 1.346 . S
C381 N382 1.307 . S
C381 C383 1.486 . S
N382 N378 1.370 . S
N382 C381 1.307 . S
C383 C381 1.486 . S
C383 H387 0.960 . S
C383 H388 0.960 . S
C383 H389 0.959 . S
H384 C380 0.960 . S
H385 C380 0.961 . S
H386 C380 0.960 . S
H387 C383 0.960 . S
H388 C383 0.960 . S
H389 C383 0.959 . S
C390 N391 1.317 . S
C390 N392 1.348 . S
C390 C393 1.485 . S
N391 C390 1.317 . S
N391 N395 1.370 . S
N392 C390 1.348 . S
N392 C394 1.346 . S
C393 C390 1.485 . S
C393 H397 0.960 . S
C393 H398 0.961 . S
C393 H399 0.960 . S
C394 N392 1.346 . S
C394 N395 1.307 . S
C394 C396 1.486 . S
N395 N391 1.370 . S
N395 C394 1.307 . S
C396 C394 1.486 . S
C396 H400 0.960 . S
C396 H401 0.960 . S
C396 H402 0.959 . S
H397 C393 0.960 . S
H398 C393 0.961 . S
H399 C393 0.960 . S
H400 C396 0.960 . S
H401 C396 0.960 . S
H402 C396 0.959 . S
C403 N404 1.317 . S
C403 N405 1.348 . S
C403 C406 1.485 . S
N404 C403 1.317 . S
N404 N408 1.370 . S
N405 C403 1.348 . S
N405 C407 1.346 . S
C406 C403 1.485 . S
C406 H410 0.960 . S
C406 H411 0.961 . S
C406 H412 0.960 . S
C407 N405 1.346 . S
C407 N408 1.307 . S
C407 C409 1.486 . S
N408 N404 1.370 . S
N408 C407 1.307 . S
C409 C407 1.486 . S
C409 H413 0.960 . S
C409 H414 0.960 . S
C409 H415 0.959 . S
H410 C406 0.960 . S
H411 C406 0.961 . S
H412 C406 0.960 . S
H413 C409 0.960 . S
H414 C409 0.960 . S
H415 C409 0.959 . S
Cu416 N417 1.999 . S
Cu416 O422 1.988 . S
Cu416 N427 1.985 . S
Cu416 O436 1.959 . S
N417 Cu416 1.999 . S
N417 C419 1.263 1_554 S
N417 C421 1.389 . S
N418 C419 1.358 . S
N418 C420 1.400 . S
C419 N417 1.263 1_556 S
C419 N418 1.358 . S
C419 H425 0.930 . S
C420 N418 1.400 . S
C420 C421 1.351 1_556 S
C420 H437 0.930 . S
C421 N417 1.389 . S
C421 C420 1.351 1_554 S
C421 H426 0.930 . S
O422 Cu416 1.988 . S
O422 C432 1.272 1_554 S
C423 O424 1.261 . S
C423 O436 1.251 . S
O424 C423 1.261 . S
H425 C419 0.930 . S
H426 C421 0.930 . S
N427 Cu416 1.985 . S
N427 C429 1.335 . S
N427 C430 1.390 . S
N428 C429 1.345 . S
N428 C431 1.336 . S
C429 N427 1.335 . S
C429 N428 1.345 . S
C429 H434 0.930 . S
C430 N427 1.390 . S
C430 C431 1.346 . S
C430 H435 0.930 . S
C431 N428 1.336 . S
C431 C430 1.346 . S
C431 H438 0.929 . S
C432 O422 1.272 1_556 S
C432 O433 1.216 . S
O433 C432 1.216 . S
H434 C429 0.930 . S
H435 C430 0.930 . S
O436 Cu416 1.959 . S
O436 C423 1.251 . S
H437 C420 0.930 . S
H438 C431 0.929 . S
Cu439 N440 1.999 . S
Cu439 O445 1.974 . S
Cu439 N450 1.985 1_554 S
Cu439 O459 1.959 1_554 S
N440 Cu439 1.999 . S
N440 C442 1.263 . S
N440 C444 1.389 . S
N441 C442 1.358 . S
N441 C443 1.400 . S
C442 N440 1.263 . S
C442 N441 1.358 . S
C442 H448 0.930 . S
C443 N441 1.400 . S
C443 C444 1.351 . S
C443 H460 0.930 . S
C444 N440 1.389 . S
C444 C443 1.351 . S
C444 H449 0.930 . S
O445 Cu439 1.974 . S
O445 C455 1.282 . S
C446 O447 1.261 . S
C446 O459 1.251 . S
O447 C446 1.261 . S
H448 C442 0.930 . S
H449 C444 0.930 . S
N450 Cu439 1.985 1_556 S
N450 C452 1.335 . S
N450 C453 1.376 1_556 S
N451 C452 1.345 . S
N451 C454 1.336 . S
C452 N450 1.335 . S
C452 N451 1.345 . S
C452 H457 0.930 . S
C453 N450 1.376 1_554 S
C453 C454 1.285 1_554 S
C453 H458 0.996 . S
C454 N451 1.336 . S
C454 C453 1.285 1_556 S
C454 H461 0.929 . S
C455 O445 1.282 . S
C455 O456 1.216 . S
O456 C455 1.216 . S
H457 C452 0.930 . S
H458 C453 0.996 . S
O459 Cu439 1.959 1_556 S
O459 C446 1.251 . S
H460 C443 0.930 . S
H461 C454 0.929 . S
Cu462 N463 1.999 1_554 S
Cu462 O468 1.974 1_554 S
Cu462 N473 1.985 . S
Cu462 O482 1.959 . S
N463 Cu462 1.999 1_556 S
N463 C465 1.263 . S
N463 C467 1.389 . S
N464 C465 1.358 . S
N464 C466 1.400 . S
C465 N463 1.263 . S
C465 N464 1.358 . S
C465 H471 0.930 . S
C466 N464 1.400 . S
C466 C467 1.351 . S
C466 H483 0.930 . S
C467 N463 1.389 . S
C467 C466 1.351 . S
C467 H472 0.930 1_556 S
O468 Cu462 1.974 1_556 S
O468 C478 1.282 . S
C469 O470 1.261 . S
C469 O482 1.251 . S
O470 C469 1.261 . S
H471 C465 0.930 . S
H472 C467 0.930 1_554 S
N473 Cu462 1.985 . S
N473 C475 1.335 . S
N473 C476 1.390 . S
N474 C475 1.345 . S
N474 C477 1.336 . S
C475 N473 1.335 . S
C475 N474 1.345 . S
C475 H480 0.930 . S
C476 N473 1.390 . S
C476 C477 1.346 . S
C476 H481 0.930 . S
C477 N474 1.336 . S
C477 C476 1.346 . S
C477 H484 0.929 . S
C478 O468 1.282 . S
C478 O479 1.216 . S
O479 C478 1.216 . S
H480 C475 0.930 . S
H481 C476 0.930 . S
O482 Cu462 1.959 . S
O482 C469 1.251 . S
H483 C466 0.930 . S
H484 C477 0.929 . S
Cu485 N486 1.999 . S
Cu485 O491 1.974 . S
Cu485 N496 1.985 1_554 S
Cu485 O505 1.959 1_554 S
N486 Cu485 1.999 . S
N486 C488 1.263 . S
N486 C490 1.389 . S
N487 C488 1.358 . S
N487 C489 1.400 . S
C488 N486 1.263 . S
C488 N487 1.358 . S
C488 H494 0.930 . S
C489 N487 1.400 . S
C489 C490 1.351 . S
C489 H506 0.930 . S
C490 N486 1.389 . S
C490 C489 1.351 . S
C490 H495 0.930 . S
O491 Cu485 1.974 . S
O491 C501 1.282 . S
C492 O493 1.261 . S
C492 O505 1.251 . S
O493 C492 1.261 . S
H494 C488 0.930 . S
H495 C490 0.930 . S
N496 Cu485 1.985 1_556 S
N496 C498 1.335 . S
N496 C499 1.390 . S
N497 C498 1.345 . S
N497 C500 1.336 . S
C498 N496 1.335 . S
C498 N497 1.345 . S
C498 H503 0.930 . S
C499 N496 1.390 . S
C499 C500 1.346 . S
C499 H504 0.930 1_556 S
C500 N497 1.336 . S
C500 C499 1.346 . S
C500 H507 0.929 . S
C501 O491 1.282 . S
C501 O502 1.216 . S
O502 C501 1.216 . S
H503 C498 0.930 . S
H504 C499 0.930 1_554 S
O505 Cu485 1.959 1_556 S
O505 C492 1.251 . S
H506 C489 0.930 . S
H507 C500 0.929 . S
Cu508 N509 1.999 . S
Cu508 O514 1.974 . S
Cu508 N519 1.985 1_455 S
Cu508 O528 1.959 1_455 S
N509 Cu508 1.999 . S
N509 C511 1.263 . S
N509 C513 1.389 . S
N510 C511 1.358 . S
N510 C512 1.400 . S
C511 N509 1.263 . S
C511 N510 1.358 . S
C511 H517 0.930 . S
C512 N510 1.400 . S
C512 C513 1.351 . S
C512 H529 0.930 . S
C513 N509 1.389 . S
C513 C512 1.351 . S
C513 H518 0.930 . S
O514 Cu508 1.974 . S
O514 C524 1.282 . S
C515 O516 1.261 . S
C515 O528 1.251 . S
O516 C515 1.261 . S
H517 C511 0.930 . S
H518 C513 0.930 . S
N519 Cu508 1.985 1_655 S
N519 C521 1.335 . S
N519 C522 1.390 1_655 S
N520 C521 1.345 . S
N520 C523 1.336 . S
C521 N519 1.335 . S
C521 N520 1.345 . S
C521 H526 0.930 . S
C522 N519 1.390 1_455 S
C522 C523 1.346 1_455 S
C522 H527 0.930 . S
C523 N520 1.336 . S
C523 C522 1.346 1_655 S
C523 H530 0.929 . S
C524 O514 1.282 . S
C524 O525 1.216 . S
O525 C524 1.216 . S
H526 C521 0.930 . S
H527 C522 0.930 . S
O528 Cu508 1.959 1_655 S
O528 C515 1.251 . S
H529 C512 0.930 . S
H530 C523 0.929 . S
Cu531 N532 1.999 . S
Cu531 O537 1.974 . S
Cu531 N542 1.985 1_545 S
Cu531 O551 1.959 1_545 S
N532 Cu531 1.999 . S
N532 C534 1.263 . S
N532 C536 1.389 . S
N533 C534 1.358 . S
N533 C535 1.400 . S
C534 N532 1.263 . S
C534 N533 1.358 . S
C534 H540 0.930 . S
C535 N533 1.400 . S
C535 C536 1.351 . S
C535 H552 0.930 . S
C536 N532 1.389 . S
C536 C535 1.351 . S
C536 H541 0.930 . S
O537 Cu531 1.974 . S
O537 C547 1.282 . S
C538 O539 1.261 . S
C538 O551 1.251 . S
O539 C538 1.261 . S
H540 C534 0.930 . S
H541 C536 0.930 . S
N542 Cu531 1.985 1_565 S
N542 C544 1.335 . S
N542 C545 1.390 . S
N543 C544 1.345 . S
N543 C546 1.336 . S
C544 N542 1.335 . S
C544 N543 1.345 . S
C544 H549 0.930 . S
C545 N542 1.390 . S
C545 C546 1.346 . S
C545 H550 0.930 . S
C546 N543 1.336 . S
C546 C545 1.346 . S
C546 H553 0.929 . S
C547 O537 1.282 . S
C547 O548 1.216 . S
O548 C547 1.216 . S
H549 C544 0.930 . S
H550 C545 0.930 . S
O551 Cu531 1.959 1_565 S
O551 C538 1.251 . S
H552 C535 0.930 . S
H553 C546 0.929 . S
Cu554 N555 1.999 . S
Cu554 O560 1.974 . S
Cu554 N565 1.985 . S
Cu554 O574 1.959 . S
N555 Cu554 1.999 . S
N555 C557 1.263 1_455 S
N555 C559 1.389 . S
N556 C557 1.358 . S
N556 C558 1.400 . S
C557 N555 1.263 1_655 S
C557 N556 1.358 . S
C557 H563 0.930 . S
C558 N556 1.400 . S
C558 C559 1.351 1_655 S
C558 H575 0.930 . S
C559 N555 1.389 . S
C559 C558 1.351 1_455 S
C559 H564 0.930 . S
O560 Cu554 1.974 . S
O560 C570 1.282 1_455 S
C561 O562 1.261 . S
C561 O574 1.251 . S
O562 C561 1.261 . S
H563 C557 0.930 . S
H564 C559 0.930 . S
N565 Cu554 1.985 . S
N565 C567 1.335 . S
N565 C568 1.390 . S
N566 C567 1.345 . S
N566 C569 1.336 . S
C567 N565 1.335 . S
C567 N566 1.345 . S
C567 H572 0.930 . S
C568 N565 1.390 . S
C568 C569 1.346 . S
C568 H573 0.930 . S
C569 N566 1.336 . S
C569 C568 1.346 . S
C569 H576 0.929 . S
C570 O560 1.282 1_655 S
C570 O571 1.216 1_655 S
O571 C570 1.216 1_455 S
H572 C567 0.930 . S
H573 C568 0.930 . S
O574 Cu554 1.959 . S
O574 C561 1.251 . S
H575 C558 0.930 . S
H576 C569 0.929 . S
Cu577 N578 1.999 . S
Cu577 O583 1.974 . S
Cu577 N588 1.985 . S
Cu577 O597 1.959 . S
N578 Cu577 1.999 . S
N578 C580 1.263 . S
N578 C582 1.389 . S
N579 C580 1.358 . S
N579 C581 1.400 . S
C580 N578 1.263 . S
C580 N579 1.358 . S
C580 H586 0.930 . S
C581 N579 1.400 . S
C581 C582 1.351 . S
C581 H598 0.930 . S
C582 N578 1.389 . S
C582 C581 1.351 . S
C582 H587 0.930 . S
O583 Cu577 1.974 . S
O583 C593 1.282 . S
C584 O585 1.239 1_565 S
C584 O597 1.231 1_565 S
O585 C584 1.239 1_545 S
H586 C580 0.930 . S
H587 C582 0.930 . S
N588 Cu577 1.985 . S
N588 C590 1.335 1_545 S
N588 C591 1.390 . S
N589 C590 1.345 . S
N589 C592 1.336 . S
C590 N588 1.335 1_565 S
C590 N589 1.345 . S
C590 H595 0.930 . S
C591 N588 1.390 . S
C591 C592 1.346 1_545 S
C591 H596 0.930 . S
C592 N589 1.336 . S
C592 C591 1.346 1_565 S
C592 H599 0.929 . S
C593 O583 1.282 . S
C593 O594 1.216 . S
O594 C593 1.216 . S
H595 C590 0.930 . S
H596 C591 0.930 . S
O597 Cu577 1.959 . S
O597 C584 1.231 1_545 S
H598 C581 0.930 . S
H599 C592 0.929 . S
Cu600 N601 1.999 . S
Cu600 O606 1.974 . S
Cu600 N611 1.985 1_455 S
Cu600 O620 1.959 1_455 S
N601 Cu600 1.999 . S
N601 C603 1.263 . S
N601 C605 1.389 . S
N602 C603 1.358 . S
N602 C604 1.400 . S
C603 N601 1.263 . S
C603 N602 1.358 . S
C603 H609 0.930 . S
C604 N602 1.400 . S
C604 C605 1.351 . S
C604 H621 0.930 . S
C605 N601 1.389 . S
C605 C604 1.351 . S
C605 H610 0.930 . S
O606 Cu600 1.974 . S
O606 C616 1.282 . S
C607 O608 1.261 . S
C607 O620 1.251 . S
O608 C607 1.261 . S
H609 C603 0.930 . S
H610 C605 0.930 . S
N611 Cu600 1.985 1_655 S
N611 C613 1.335 . S
N611 C614 1.390 1_655 S
N612 C613 1.345 . S
N612 C615 1.336 . S
C613 N611 1.335 . S
C613 N612 1.345 . S
C613 H618 0.930 . S
C614 N611 1.390 1_455 S
C614 C615 1.346 1_455 S
C614 H619 0.930 . S
C615 N612 1.336 . S
C615 C614 1.346 1_655 S
C615 H622 0.929 . S
C616 O606 1.282 . S
C616 O617 1.216 . S
O617 C616 1.216 . S
H618 C613 0.930 . S
H619 C614 0.930 . S
O620 Cu600 1.959 1_655 S
O620 C607 1.251 . S
H621 C604 0.930 . S
H622 C615 0.929 . S
Cu623 N624 1.999 . S
Cu623 O629 1.974 . S
Cu623 N634 1.985 1_545 S
Cu623 O643 1.959 1_545 S
N624 Cu623 1.999 . S
N624 C626 1.263 . S
N624 C628 1.389 . S
N625 C626 1.358 . S
N625 C627 1.400 . S
C626 N624 1.263 . S
C626 N625 1.358 . S
C626 H632 0.930 . S
C627 N625 1.400 . S
C627 C628 1.351 . S
C627 H644 0.930 . S
C628 N624 1.389 . S
C628 C627 1.351 . S
C628 H633 0.930 . S
O629 Cu623 1.974 . S
O629 C639 1.282 . S
C630 O631 1.261 . S
C630 O643 1.251 . S
O631 C630 1.261 . S
H632 C626 0.930 . S
H633 C628 0.930 . S
N634 Cu623 1.985 1_565 S
N634 C636 1.335 . S
N634 C637 1.390 . S
N635 C636 1.345 . S
N635 C638 1.336 . S
C636 N634 1.335 . S
C636 N635 1.345 . S
C636 H641 0.930 . S
C637 N634 1.390 . S
C637 C638 1.346 . S
C637 H642 0.871 1_565 S
C638 N635 1.336 . S
C638 C637 1.346 . S
C638 H645 0.929 . S
C639 O629 1.282 . S
C639 O640 1.216 . S
O640 C639 1.216 . S
H641 C636 0.930 . S
H642 C637 0.871 1_545 S
O643 Cu623 1.959 1_565 S
O643 C630 1.251 . S
H644 C627 0.930 . S
H645 C638 0.929 . S
Cu646 N647 1.999 . S
Cu646 O652 1.974 . S
Cu646 N657 1.985 . S
Cu646 O666 1.959 . S
N647 Cu646 1.999 . S
N647 C649 1.263 . S
N647 C651 1.389 . S
N648 C649 1.358 . S
N648 C650 1.400 . S
C649 N647 1.263 . S
C649 N648 1.358 . S
C649 H655 0.930 . S
C650 N648 1.400 . S
C650 C651 1.351 . S
C650 H667 0.930 . S
C651 N647 1.389 . S
C651 C650 1.351 . S
C651 H656 0.930 . S
O652 Cu646 1.974 . S
O652 C662 1.282 . S
C653 O654 1.261 . S
C653 O666 1.251 . S
O654 C653 1.261 . S
H655 C649 0.930 . S
H656 C651 0.930 . S
N657 Cu646 1.985 . S
N657 C659 1.335 . S
N657 C660 1.390 . S
N658 C659 1.345 . S
N658 C661 1.336 . S
C659 N657 1.335 . S
C659 N658 1.345 . S
C659 H664 0.930 . S
C660 N657 1.390 . S
C660 C661 1.346 . S
C660 H665 0.930 . S
C661 N658 1.336 . S
C661 C660 1.346 . S
C661 H668 0.929 . S
C662 O652 1.282 . S
C662 O663 1.216 . S
O663 C662 1.216 . S
H664 C659 0.930 . S
H665 C660 0.930 . S
O666 Cu646 1.959 . S
O666 C653 1.251 . S
H667 C650 0.930 . S
H668 C661 0.929 . S
Cu669 N670 1.999 . S
Cu669 O675 1.974 . S
Cu669 N680 1.985 . S
Cu669 O689 1.959 . S
N670 Cu669 1.999 . S
N670 C672 1.263 . S
N670 C674 1.389 . S
N671 C672 1.358 . S
N671 C673 1.400 . S
C672 N670 1.263 . S
C672 N671 1.358 . S
C672 H678 0.930 . S
C673 N671 1.400 . S
C673 C674 1.351 . S
C673 H690 0.930 . S
C674 N670 1.389 . S
C674 C673 1.351 . S
C674 H679 0.930 . S
O675 Cu669 1.974 . S
O675 C685 1.282 . S
C676 O677 1.261 . S
C676 O689 1.251 . S
O677 C676 1.261 . S
H678 C672 0.930 . S
H679 C674 0.930 . S
N680 Cu669 1.985 . S
N680 C682 1.335 . S
N680 C683 1.390 . S
N681 C682 1.346 1_565 S
N681 C684 1.338 1_565 S
C682 N680 1.335 . S
C682 N681 1.346 1_545 S
C682 H687 0.930 . S
C683 N680 1.390 . S
C683 C684 1.346 . S
C683 H688 0.930 . S
C684 N681 1.338 1_545 S
C684 C683 1.346 . S
C684 H691 0.929 . S
C685 O675 1.282 . S
C685 O686 1.216 . S
O686 C685 1.216 . S
H687 C682 0.930 . S
H688 C683 0.930 . S
O689 Cu669 1.959 . S
O689 C676 1.251 . S
H690 C673 0.930 . S
H691 C684 0.929 . S
Cu692 N693 1.999 . S
Cu692 O698 1.974 . S
Cu692 N703 1.985 . S
Cu692 O712 1.959 . S
N693 Cu692 1.999 . S
N693 C695 1.263 . S
N693 C697 1.389 . S
N694 C695 1.358 . S
N694 C696 1.400 . S
C695 N693 1.263 . S
C695 N694 1.358 . S
C695 H701 0.930 . S
C696 N694 1.400 . S
C696 C697 1.351 . S
C696 H713 0.930 . S
C697 N693 1.389 . S
C697 C696 1.351 . S
C697 H702 0.930 . S
O698 Cu692 1.974 . S
O698 C708 1.282 . S
C699 O700 1.261 . S
C699 O712 1.251 . S
O700 C699 1.261 . S
H701 C695 0.930 . S
H702 C697 0.930 . S
N703 Cu692 1.985 . S
N703 C705 1.335 . S
N703 C706 1.390 . S
N704 C705 1.345 . S
N704 C707 1.336 . S
C705 N703 1.335 . S
C705 N704 1.345 . S
C705 H710 0.930 . S
C706 N703 1.390 . S
C706 C707 1.346 . S
C706 H711 0.930 . S
C707 N704 1.336 . S
C707 C706 1.346 . S
C707 H714 0.929 . S
C708 O698 1.282 . S
C708 O709 1.216 . S
O709 C708 1.216 . S
H710 C705 0.930 . S
H711 C706 0.930 . S
O712 Cu692 1.959 . S
O712 C699 1.251 . S
H713 C696 0.930 . S
H714 C707 0.929 . S
Cu715 N716 1.999 . S
Cu715 O721 1.974 . S
Cu715 N726 1.985 . S
Cu715 O735 1.959 . S
N716 Cu715 1.999 . S
N716 C718 1.263 . S
N716 C720 1.389 . S
N717 C718 1.358 . S
N717 C719 1.400 . S
C718 N716 1.263 . S
C718 N717 1.358 . S
C718 H724 0.930 . S
C719 N717 1.400 . S
C719 C720 1.351 . S
C719 H736 0.930 . S
C720 N716 1.389 . S
C720 C719 1.351 . S
C720 H725 0.930 . S
O721 Cu715 1.974 . S
O721 C731 1.282 . S
C722 O723 1.261 . S
C722 O735 1.251 . S
O723 C722 1.261 . S
H724 C718 0.930 . S
H725 C720 0.930 . S
N726 Cu715 1.985 . S
N726 C728 1.335 . S
N726 C729 1.390 . S
N727 C728 1.345 . S
N727 C730 1.336 . S
C728 N726 1.335 . S
C728 N727 1.345 . S
C728 H733 0.930 . S
C729 N726 1.390 . S
C729 C730 1.346 . S
C729 H734 0.930 . S
C730 N727 1.336 . S
C730 C729 1.346 . S
C730 H737 0.929 . S
C731 O721 1.282 . S
C731 O732 1.216 . S
O732 C731 1.216 . S
H733 C728 0.930 . S
H734 C729 0.930 . S
O735 Cu715 1.959 . S
O735 C722 1.251 . S
H736 C719 0.930 . S
H737 C730 0.929 . S
Cu738 N739 1.999 . S
Cu738 O744 1.974 . S
Cu738 N749 1.985 . S
Cu738 O758 1.959 . S
N739 Cu738 1.999 . S
N739 C741 1.263 . S
N739 C743 1.389 . S
N740 C741 1.358 . S
N740 C742 1.400 . S
C741 N739 1.263 . S
C741 N740 1.358 . S
C741 H747 0.930 . S
C742 N740 1.400 . S
C742 C743 1.351 . S
C742 H759 0.930 . S
C743 N739 1.389 . S
C743 C742 1.351 . S
C743 H748 0.930 . S
O744 Cu738 1.974 . S
O744 C754 1.282 . S
C745 O746 1.261 . S
C745 O758 1.251 . S
O746 C745 1.261 . S
H747 C741 0.930 . S
H748 C743 0.930 . S
N749 Cu738 1.985 . S
N749 C751 1.335 . S
N749 C752 1.390 . S
N750 C751 1.345 . S
N750 C753 1.336 . S
C751 N749 1.335 . S
C751 N750 1.345 . S
C751 H756 0.930 . S
C752 N749 1.390 . S
C752 C753 1.346 . S
C752 H757 0.930 . S
C753 N750 1.336 . S
C753 C752 1.346 . S
C753 H760 0.929 . S
C754 O744 1.282 . S
C754 O755 1.216 . S
O755 C754 1.216 . S
H756 C751 0.930 . S
H757 C752 0.930 . S
O758 Cu738 1.959 . S
O758 C745 1.251 . S
H759 C742 0.930 . S
H760 C753 0.929 . S
Cu761 N762 1.999 . S
Cu761 O767 1.974 . S
Cu761 N772 1.985 . S
Cu761 O781 1.959 . S
N762 Cu761 1.999 . S
N762 C764 1.263 . S
N762 C766 1.389 . S
N763 C764 1.358 . S
N763 C765 1.400 . S
C764 N762 1.263 . S
C764 N763 1.358 . S
C764 H770 0.930 . S
C765 N763 1.400 . S
C765 C766 1.351 . S
C765 H782 0.930 . S
C766 N762 1.389 . S
C766 C765 1.351 . S
C766 H771 0.930 . S
O767 Cu761 1.974 . S
O767 C777 1.282 . S
C768 O769 1.261 . S
C768 O781 1.251 . S
O769 C768 1.261 . S
H770 C764 0.930 . S
H771 C766 0.930 . S
N772 Cu761 1.985 . S
N772 C774 1.335 . S
N772 C775 1.390 . S
N773 C774 1.345 . S
N773 C776 1.336 . S
C774 N772 1.335 . S
C774 N773 1.345 . S
C774 H779 0.930 . S
C775 N772 1.390 . S
C775 C776 1.346 . S
C775 H780 0.930 . S
C776 N773 1.336 . S
C776 C775 1.346 . S
C776 H783 0.929 . S
C777 O767 1.282 . S
C777 O778 1.216 . S
O778 C777 1.216 . S
H779 C774 0.930 . S
H780 C775 0.930 . S
O781 Cu761 1.959 . S
O781 C768 1.251 . S
H782 C765 0.930 . S
H783 C776 0.929 . S
Cu784 N785 1.999 . S
Cu784 O790 1.974 . S
Cu784 N795 1.985 . S
Cu784 O804 1.959 . S
N785 Cu784 1.999 . S
N785 C787 1.263 . S
N785 C789 1.389 . S
N786 C787 1.358 . S
N786 C788 1.400 . S
C787 N785 1.263 . S
C787 N786 1.358 . S
C787 H793 0.930 . S
C788 N786 1.400 . S
C788 C789 1.351 . S
C788 H805 0.930 . S
C789 N785 1.389 . S
C789 C788 1.351 . S
C789 H794 0.930 . S
O790 Cu784 1.974 . S
O790 C800 1.282 . S
C791 O792 1.261 . S
C791 O804 1.251 . S
O792 C791 1.261 . S
H793 C787 0.930 . S
H794 C789 0.930 . S
N795 Cu784 1.985 . S
N795 C797 1.335 . S
N795 C798 1.390 . S
N796 C797 1.345 . S
N796 C799 1.336 . S
C797 N795 1.335 . S
C797 N796 1.345 . S
C797 H802 0.930 . S
C798 N795 1.390 . S
C798 C799 1.346 . S
C798 H803 0.930 . S
C799 N796 1.336 . S
C799 C798 1.346 . S
C799 H806 0.929 . S
C800 O790 1.282 . S
C800 O801 1.216 . S
O801 C800 1.216 . S
H802 C797 0.930 . S
H803 C798 0.930 . S
O804 Cu784 1.959 . S
O804 C791 1.251 . S
H805 C788 0.930 . S
H806 C799 0.929 . S
Cu807 N808 1.999 . S
Cu807 O813 1.974 . S
Cu807 N818 1.985 . S
Cu807 O827 1.959 . S
N808 Cu807 1.999 . S
N808 C810 1.263 . S
N808 C812 1.389 . S
N809 C810 1.358 . S
N809 C811 1.400 . S
C810 N808 1.263 . S
C810 N809 1.358 . S
C810 H816 0.930 . S
C811 N809 1.400 . S
C811 C812 1.351 . S
C811 H828 0.930 . S
C812 N808 1.389 . S
C812 C811 1.351 . S
C812 H817 0.930 . S
O813 Cu807 1.974 . S
O813 C823 1.282 . S
C814 O815 1.261 . S
C814 O827 1.251 . S
O815 C814 1.261 . S
H816 C810 0.930 . S
H817 C812 0.930 . S
N818 Cu807 1.985 . S
N818 C820 1.335 . S
N818 C821 1.390 . S
N819 C820 1.345 . S
N819 C822 1.336 . S
C820 N818 1.335 . S
C820 N819 1.345 . S
C820 H825 0.930 . S
C821 N818 1.390 . S
C821 C822 1.346 . S
C821 H826 0.930 . S
C822 N819 1.336 . S
C822 C821 1.346 . S
C822 H829 0.929 . S
C823 O813 1.282 . S
C823 O824 1.216 . S
O824 C823 1.216 . S
H825 C820 0.930 . S
H826 C821 0.930 . S
O827 Cu807 1.959 . S
O827 C814 1.251 . S
H828 C811 0.930 . S
H829 C822 0.929 . S
Cu830 N831 1.999 . S
Cu830 O836 1.974 . S
Cu830 N841 1.985 . S
Cu830 O850 1.959 . S
N831 Cu830 1.999 . S
N831 C833 1.263 . S
N831 C835 1.389 . S
N832 C833 1.358 . S
N832 C834 1.400 . S
C833 N831 1.263 . S
C833 N832 1.358 . S
C833 H839 0.930 . S
C834 N832 1.400 . S
C834 C835 1.351 . S
C834 H851 0.930 . S
C835 N831 1.389 . S
C835 C834 1.351 . S
C835 H840 0.930 . S
O836 Cu830 1.974 . S
O836 C846 1.282 . S
C837 O838 1.261 . S
C837 O850 1.251 . S
O838 C837 1.261 . S
H839 C833 0.930 . S
H840 C835 0.930 . S
N841 Cu830 1.985 . S
N841 C843 1.335 . S
N841 C844 1.390 . S
N842 C843 1.345 . S
N842 C845 1.336 . S
C843 N841 1.335 . S
C843 N842 1.345 . S
C843 H848 0.930 . S
C844 N841 1.390 . S
C844 C845 1.346 . S
C844 H849 0.930 . S
C845 N842 1.336 . S
C845 C844 1.346 . S
C845 H852 0.929 . S
C846 O836 1.282 . S
C846 O847 1.216 . S
O847 C846 1.216 . S
H848 C843 0.930 . S
H849 C844 0.930 . S
O850 Cu830 1.959 . S
O850 C837 1.251 . S
H851 C834 0.930 . S
H852 C845 0.929 . S
Cu853 N854 1.999 . S
Cu853 O859 1.974 . S
Cu853 N864 1.985 . S
Cu853 O873 1.959 . S
N854 Cu853 1.999 . S
N854 C856 1.263 . S
N854 C858 1.389 . S
N855 C856 1.358 . S
N855 C857 1.400 . S
C856 N854 1.263 . S
C856 N855 1.358 . S
C856 H862 0.930 . S
C857 N855 1.400 . S
C857 C858 1.351 . S
C857 H874 0.930 . S
C858 N854 1.389 . S
C858 C857 1.351 . S
C858 H863 0.930 . S
O859 Cu853 1.974 . S
O859 C869 1.282 . S
C860 O861 1.261 . S
C860 O873 1.251 . S
O861 C860 1.261 . S
H862 C856 0.930 . S
H863 C858 0.930 . S
N864 Cu853 1.985 . S
N864 C866 1.335 . S
N864 C867 1.390 . S
N865 C866 1.345 . S
N865 C868 1.336 . S
C866 N864 1.335 . S
C866 N865 1.345 . S
C866 H871 0.930 . S
C867 N864 1.390 . S
C867 C868 1.346 . S
C867 H872 0.930 . S
C868 N865 1.336 . S
C868 C867 1.346 . S
C868 H875 0.929 . S
C869 O859 1.282 . S
C869 O870 1.216 . S
O870 C869 1.216 . S
H871 C866 0.930 . S
H872 C867 0.930 . S
O873 Cu853 1.959 . S
O873 C860 1.251 . S
H874 C857 0.930 . S
H875 C868 0.929 . S
Cu876 N877 1.999 . S
Cu876 O882 1.974 . S
Cu876 N887 1.985 . S
Cu876 O896 1.959 . S
N877 Cu876 1.999 . S
N877 C879 1.263 . S
N877 C881 1.389 . S
N878 C879 1.358 . S
N878 C880 1.400 . S
C879 N877 1.263 . S
C879 N878 1.358 . S
C879 H885 0.930 . S
C880 N878 1.400 . S
C880 C881 1.351 . S
C880 H897 0.930 . S
C881 N877 1.389 . S
C881 C880 1.351 . S
C881 H886 0.930 . S
O882 Cu876 1.974 . S
O882 C892 1.282 . S
C883 O884 1.261 . S
C883 O896 1.251 . S
O884 C883 1.261 . S
H885 C879 0.930 . S
H886 C881 0.930 . S
N887 Cu876 1.985 . S
N887 C889 1.335 . S
N887 C890 1.390 . S
N888 C889 1.345 . S
N888 C891 1.336 . S
C889 N887 1.335 . S
C889 N888 1.345 . S
C889 H894 0.930 . S
C890 N887 1.390 . S
C890 C891 1.346 . S
C890 H895 0.930 . S
C891 N888 1.336 . S
C891 C890 1.346 . S
C891 H898 0.929 . S
C892 O882 1.282 . S
C892 O893 1.216 . S
O893 C892 1.216 . S
H894 C889 0.930 . S
H895 C890 0.930 . S
O896 Cu876 1.959 . S
O896 C883 1.251 . S
H897 C880 0.930 . S
H898 C891 0.929 . S
Cu899 N900 1.999 . S
Cu899 O905 1.974 . S
Cu899 N910 1.985 . S
Cu899 O919 1.959 . S
N900 Cu899 1.999 . S
N900 C902 1.263 . S
N900 C904 1.389 . S
N901 C902 1.358 . S
N901 C903 1.400 . S
C902 N900 1.263 . S
C902 N901 1.358 . S
C902 H908 0.930 . S
C903 N901 1.400 . S
C903 C904 1.351 . S
C903 H920 0.930 . S
C904 N900 1.389 . S
C904 C903 1.351 . S
C904 H909 0.930 . S
O905 Cu899 1.974 . S
O905 C915 1.282 . S
C906 O907 1.261 . S
C906 O919 1.251 . S
O907 C906 1.261 . S
H908 C902 0.930 . S
H909 C904 0.930 . S
N910 Cu899 1.985 . S
N910 C912 1.335 . S
N910 C913 1.390 . S
N911 C912 1.345 . S
N911 C914 1.336 . S
C912 N910 1.335 . S
C912 N911 1.345 . S
C912 H917 0.930 . S
C913 N910 1.390 . S
C913 C914 1.346 . S
C913 H918 0.930 . S
C914 N911 1.336 . S
C914 C913 1.346 . S
C914 H921 0.929 . S
C915 O905 1.282 . S
C915 O916 1.216 . S
O916 C915 1.216 . S
H917 C912 0.930 . S
H918 C913 0.930 . S
O919 Cu899 1.959 . S
O919 C906 1.251 . S
H920 C903 0.930 . S
H921 C914 0.929 . S
Cu922 N923 1.999 . S
Cu922 O928 1.974 . S
Cu922 N933 1.985 . S
Cu922 O942 1.959 . S
N923 Cu922 1.999 . S
N923 C925 1.263 . S
N923 C927 1.389 . S
N924 C925 1.358 . S
N924 C926 1.400 . S
C925 N923 1.263 . S
C925 N924 1.358 . S
C925 H931 0.930 . S
C926 N924 1.400 . S
C926 C927 1.351 . S
C926 H943 0.930 . S
C927 N923 1.389 . S
C927 C926 1.351 . S
C927 H932 0.930 . S
O928 Cu922 1.974 . S
O928 C938 1.282 . S
C929 O930 1.261 . S
C929 O942 1.251 . S
O930 C929 1.261 . S
H931 C925 0.930 . S
H932 C927 0.930 . S
N933 Cu922 1.985 . S
N933 C935 1.335 . S
N933 C936 1.390 . S
N934 C935 1.345 . S
N934 C937 1.336 . S
C935 N933 1.335 . S
C935 N934 1.345 . S
C935 H940 0.930 . S
C936 N933 1.390 . S
C936 C937 1.346 . S
C936 H941 0.930 . S
C937 N934 1.336 . S
C937 C936 1.346 . S
C937 H944 0.929 . S
C938 O928 1.282 . S
C938 O939 1.216 . S
O939 C938 1.216 . S
H940 C935 0.930 . S
H941 C936 0.930 . S
O942 Cu922 1.959 . S
O942 C929 1.251 . S
H943 C926 0.930 . S
H944 C937 0.929 . S
Cu945 N946 1.999 . S
Cu945 O951 1.974 . S
Cu945 N956 1.985 . S
Cu945 O965 1.959 . S
N946 Cu945 1.999 . S
N946 C948 1.263 . S
N946 C950 1.389 . S
N947 C948 1.358 . S
N947 C949 1.400 . S
C948 N946 1.263 . S
C948 N947 1.358 . S
C948 H954 0.930 . S
C949 N947 1.400 . S
C949 C950 1.351 . S
C949 H966 0.930 . S
C950 N946 1.389 . S
C950 C949 1.351 . S
C950 H955 0.930 . S
O951 Cu945 1.974 . S
O951 C961 1.282 . S
C952 O953 1.261 . S
C952 O965 1.251 . S
O953 C952 1.261 . S
H954 C948 0.930 . S
H955 C950 0.930 . S
N956 Cu945 1.985 . S
N956 C958 1.335 . S
N956 C959 1.390 . S
N957 C958 1.345 . S
N957 C960 1.336 . S
C958 N956 1.335 . S
C958 N957 1.345 . S
C958 H963 0.930 . S
C959 N956 1.390 . S
C959 C960 1.346 . S
C959 H964 0.930 . S
C960 N957 1.336 . S
C960 C959 1.346 . S
C960 H967 0.929 . S
C961 O951 1.282 . S
C961 O962 1.216 . S
O962 C961 1.216 . S
H963 C958 0.930 . S
H964 C959 0.930 . S
O965 Cu945 1.959 . S
O965 C952 1.251 . S
H966 C949 0.930 . S
H967 C960 0.929 . S
H968 C976 0.929 . S
H969 C978 0.930 . S
H970 C980 0.930 . S
H971 C983 0.929 . S
H972 C986 0.930 . S
H973 C988 0.960 . S
H974 C988 0.960 . S
H975 C988 0.960 . S
C976 H968 0.929 . S
C976 C977 1.377 . S
C976 C978 1.384 . S
C977 C976 1.377 . S
C977 C983 1.390 . S
C978 H969 0.930 . S
C978 C976 1.384 . S
C978 C979 1.372 . S
C979 C978 1.372 . S
C979 C980 1.400 . S
C979 C984 1.490 . S
C980 H970 0.930 . S
C980 C979 1.400 . S
C980 C983 1.386 . S
H981 C997 0.930 . S
H982 C998 0.931 . S
C983 H971 0.929 . S
C983 C977 1.390 . S
C983 C980 1.386 . S
C984 C979 1.490 . S
C984 C986 1.395 . S
C984 C987 1.403 . S
H985 C991 0.930 . S
C986 H972 0.930 . S
C986 C984 1.395 . S
C986 C989 1.403 . S
C987 C984 1.403 . S
C987 C988 1.524 . S
C987 C991 1.400 . S
C988 H973 0.960 . S
C988 H974 0.960 . S
C988 H975 0.960 . S
C988 C987 1.524 . S
C989 C986 1.403 . S
C989 C990 1.392 . S
C989 C993 1.495 . S
C990 C989 1.392 . S
C990 C991 1.385 . S
C990 C992 1.478 . S
C991 H985 0.930 . S
C991 C987 1.400 . S
C991 C990 1.385 . S
C992 C990 1.478 . S
C992 C994 1.381 . S
C992 C998 1.383 . S
C993 C989 1.495 . S
C993 H999 0.959 . S
C993 H1000 0.961 . S
C993 H1001 0.960 . S
C994 C992 1.381 . S
C994 C995 1.394 . S
C994 H1002 0.930 . S
C995 C994 1.394 . S
C995 C996 1.383 . S
C995 H1003 0.929 . S
C996 C995 1.383 . S
C996 C997 1.377 . S
C997 H981 0.930 . S
C997 C996 1.377 . S
C997 C998 1.379 . S
C998 H982 0.931 . S
C998 C992 1.383 . S
C998 C997 1.379 . S
H999 C993 0.959 . S
H1000 C993 0.961 . S
H1001 C993 0.960 . S
H1002 C994 0.930 . S
H1003 C995 0.929 . S
H1004 C1012 0.929 . S
H1005 C1014 0.930 . S
H1006 C1016 0.930 . S
H1007 C1019 0.929 . S
H1008 C1022 0.930 . S
H1009 C1024 0.960 . S
H1010 C1024 0.960 . S
H1011 C1024 0.960 . S
C1012 H1004 0.929 . S
C1012 C1013 1.377 . S
C1012 C1014 1.384 . S
C1013 C1012 1.377 . S
C1013 C1019 1.390 . S
C1014 H1005 0.930 . S
C1014 C1012 1.384 . S
C1014 C1015 1.372 . S
C1015 C1014 1.372 . S
C1015 C1016 1.400 . S
C1015 C1020 1.490 . S
C1016 H1006 0.930 . S
C1016 C1015 1.400 . S
C1016 C1019 1.386 . S
H1017 C1033 0.930 . S
H1018 C1034 0.931 . S
C1019 H1007 0.929 . S
C1019 C1013 1.390 . S
C1019 C1016 1.386 . S
C1020 C1015 1.490 . S
C1020 C1022 1.395 . S
C1020 C1023 1.403 . S
H1021 C1027 0.930 . S
C1022 H1008 0.930 . S
C1022 C1020 1.395 . S
C1022 C1025 1.403 . S
C1023 C1020 1.403 . S
C1023 C1024 1.524 . S
C1023 C1027 1.400 . S
C1024 H1009 0.960 . S
C1024 H1010 0.960 . S
C1024 H1011 0.960 . S
C1024 C1023 1.524 . S
C1025 C1022 1.403 . S
C1025 C1026 1.392 . S
C1025 C1029 1.495 . S
C1026 C1025 1.392 . S
C1026 C1027 1.385 . S
C1026 C1028 1.478 . S
C1027 H1021 0.930 . S
C1027 C1023 1.400 . S
C1027 C1026 1.385 . S
C1028 C1026 1.478 . S
C1028 C1030 1.381 . S
C1028 C1034 1.383 . S
C1029 C1025 1.495 . S
C1029 H1035 0.959 . S
C1029 H1036 0.961 . S
C1029 H1037 0.960 . S
C1030 C1028 1.381 . S
C1030 C1031 1.394 . S
C1030 H1038 0.930 . S
C1031 C1030 1.394 . S
C1031 C1032 1.383 . S
C1031 H1039 0.929 . S
C1032 C1031 1.383 . S
C1032 C1033 1.377 . S
C1033 H1017 0.930 . S
C1033 C1032 1.377 . S
C1033 C1034 1.379 . S
C1034 H1018 0.931 . S
C1034 C1028 1.383 . S
C1034 C1033 1.379 . S
H1035 C1029 0.959 . S
H1036 C1029 0.961 . S
H1037 C1029 0.960 . S
H1038 C1030 0.930 . S
H1039 C1031 0.929 . S
H1040 C1048 0.929 . S
H1041 C1050 0.930 . S
H1042 C1052 0.930 . S
H1043 C1055 0.929 . S
H1044 C1058 0.930 . S
H1045 C1060 0.960 . S
H1046 C1060 0.960 . S
H1047 C1060 0.960 . S
C1048 H1040 0.929 . S
C1048 C1049 1.377 . S
C1048 C1050 1.384 . S
C1049 C1048 1.377 . S
C1049 C1055 1.390 . S
C1050 H1041 0.930 . S
C1050 C1048 1.384 . S
C1050 C1051 1.372 . S
C1051 C1050 1.372 . S
C1051 C1052 1.400 . S
C1051 C1056 1.490 . S
C1052 H1042 0.930 . S
C1052 C1051 1.400 . S
C1052 C1055 1.386 . S
H1053 C1069 0.930 . S
H1054 C1070 0.931 . S
C1055 H1043 0.929 . S
C1055 C1049 1.390 . S
C1055 C1052 1.386 . S
C1056 C1051 1.490 . S
C1056 C1058 1.395 . S
C1056 C1059 1.403 . S
H1057 C1063 0.930 . S
C1058 H1044 0.930 . S
C1058 C1056 1.395 . S
C1058 C1061 1.403 . S
C1059 C1056 1.403 . S
C1059 C1060 1.524 . S
C1059 C1063 1.400 . S
C1060 H1045 0.960 . S
C1060 H1046 0.960 . S
C1060 H1047 0.960 . S
C1060 C1059 1.524 . S
C1061 C1058 1.403 . S
C1061 C1062 1.392 . S
C1061 C1065 1.495 . S
C1062 C1061 1.392 . S
C1062 C1063 1.385 . S
C1062 C1064 1.478 . S
C1063 H1057 0.930 . S
C1063 C1059 1.400 . S
C1063 C1062 1.385 . S
C1064 C1062 1.478 . S
C1064 C1066 1.381 . S
C1064 C1070 1.383 . S
C1065 C1061 1.495 . S
C1065 H1071 0.959 . S
C1065 H1072 0.961 . S
C1065 H1073 0.960 . S
C1066 C1064 1.381 . S
C1066 C1067 1.394 . S
C1066 H1074 0.930 . S
C1067 C1066 1.394 . S
C1067 C1068 1.383 . S
C1067 H1075 0.929 . S
C1068 C1067 1.383 . S
C1068 C1069 1.377 . S
C1069 H1053 0.930 . S
C1069 C1068 1.377 . S
C1069 C1070 1.379 . S
C1070 H1054 0.931 . S
C1070 C1064 1.383 . S
C1070 C1069 1.379 . S
H1071 C1065 0.959 . S
H1072 C1065 0.961 . S
H1073 C1065 0.960 . S
H1074 C1066 0.930 . S
H1075 C1067 0.929 . S
H1076 C1084 0.929 . S
H1077 C1086 0.930 . S
H1078 C1088 0.930 . S
H1079 C1091 0.929 . S
H1080 C1094 0.930 . S
H1081 C1096 0.960 . S
H1082 C1096 0.960 . S
H1083 C1096 0.960 . S
C1084 H1076 0.929 . S
C1084 C1085 1.377 . S
C1084 C1086 1.384 . S
C1085 C1084 1.377 . S
C1085 C1091 1.390 . S
C1086 H1077 0.930 . S
C1086 C1084 1.384 . S
C1086 C1087 1.372 . S
C1087 C1086 1.372 . S
C1087 C1088 1.400 . S
C1087 C1092 1.490 . S
C1088 H1078 0.930 . S
C1088 C1087 1.400 . S
C1088 C1091 1.386 . S
H1089 C1105 0.930 . S
H1090 C1106 0.931 . S
C1091 H1079 0.929 . S
C1091 C1085 1.390 . S
C1091 C1088 1.386 . S
C1092 C1087 1.490 . S
C1092 C1094 1.395 . S
C1092 C1095 1.403 . S
H1093 C1099 0.930 . S
C1094 H1080 0.930 . S
C1094 C1092 1.395 . S
C1094 C1097 1.403 . S
C1095 C1092 1.403 . S
C1095 C1096 1.524 . S
C1095 C1099 1.400 . S
C1096 H1081 0.960 . S
C1096 H1082 0.960 . S
C1096 H1083 0.960 . S
C1096 C1095 1.524 . S
C1097 C1094 1.403 . S
C1097 C1098 1.392 . S
C1097 C1101 1.495 . S
C1098 C1097 1.392 . S
C1098 C1099 1.385 . S
C1098 C1100 1.478 . S
C1099 H1093 0.930 . S
C1099 C1095 1.400 . S
C1099 C1098 1.385 . S
C1100 C1098 1.478 . S
C1100 C1102 1.381 . S
C1100 C1106 1.383 . S
C1101 C1097 1.495 . S
C1101 H1107 0.959 . S
C1101 H1108 0.961 . S
C1101 H1109 0.960 . S
C1102 C1100 1.381 . S
C1102 C1103 1.394 . S
C1102 H1110 0.930 . S
C1103 C1102 1.394 . S
C1103 C1104 1.383 . S
C1103 H1111 0.929 . S
C1104 C1103 1.383 . S
C1104 C1105 1.377 . S
C1105 H1089 0.930 . S
C1105 C1104 1.377 . S
C1105 C1106 1.379 . S
C1106 H1090 0.931 . S
C1106 C1100 1.383 . S
C1106 C1105 1.379 . S
H1107 C1101 0.959 . S
H1108 C1101 0.961 . S
H1109 C1101 0.960 . S
H1110 C1102 0.930 . S
H1111 C1103 0.929 . S
H1112 C1120 0.929 . S
H1113 C1122 0.930 . S
H1114 C1124 0.930 . S
H1115 C1127 0.929 . S
H1116 C1130 0.930 . S
H1117 C1132 0.960 . S
H1118 C1132 0.960 . S
H1119 C1132 0.960 . S
C1120 H1112 0.929 . S
C1120 C1121 1.377 . S
C1120 C1122 1.384 . S
C1121 C1120 1.377 . S
C1121 C1127 1.390 . S
C1122 H1113 0.930 . S
C1122 C1120 1.384 . S
C1122 C1123 1.372 . S
C1123 C1122 1.372 . S
C1123 C1124 1.400 . S
C1123 C1128 1.490 . S
C1124 H1114 0.930 . S
C1124 C1123 1.400 . S
C1124 C1127 1.386 . S
H1125 C1141 0.930 . S
H1126 C1142 0.931 . S
C1127 H1115 0.929 . S
C1127 C1121 1.390 . S
C1127 C1124 1.386 . S
C1128 C1123 1.490 . S
C1128 C1130 1.395 . S
C1128 C1131 1.403 . S
H1129 C1135 0.930 . S
C1130 H1116 0.930 . S
C1130 C1128 1.395 . S
C1130 C1133 1.403 . S
C1131 C1128 1.403 . S
C1131 C1132 1.524 . S
C1131 C1135 1.400 . S
C1132 H1117 0.960 . S
C1132 H1118 0.960 . S
C1132 H1119 0.960 . S
C1132 C1131 1.524 . S
C1133 C1130 1.403 . S
C1133 C1134 1.392 . S
C1133 C1137 1.495 . S
C1134 C1133 1.392 . S
C1134 C1135 1.385 . S
C1134 C1136 1.478 . S
C1135 H1129 0.930 . S
C1135 C1131 1.400 . S
C1135 C1134 1.385 . S
C1136 C1134 1.478 . S
C1136 C1138 1.381 . S
C1136 C1142 1.383 . S
C1137 C1133 1.495 . S
C1137 H1143 0.959 . S
C1137 H1144 0.961 . S
C1137 H1145 0.960 . S
C1138 C1136 1.381 . S
C1138 C1139 1.394 . S
C1138 H1146 0.930 . S
C1139 C1138 1.394 . S
C1139 C1140 1.383 . S
C1139 H1147 0.929 . S
C1140 C1139 1.383 . S
C1140 C1141 1.377 . S
C1141 H1125 0.930 . S
C1141 C1140 1.377 . S
C1141 C1142 1.379 . S
C1142 H1126 0.931 . S
C1142 C1136 1.383 . S
C1142 C1141 1.379 . S
H1143 C1137 0.959 . S
H1144 C1137 0.961 . S
H1145 C1137 0.960 . S
H1146 C1138 0.930 . S
H1147 C1139 0.929 . S
H1148 C1156 0.929 . S
H1149 C1158 0.930 . S
H1150 C1160 0.930 . S
H1151 C1163 0.929 . S
H1152 C1166 0.930 . S
H1153 C1168 0.960 . S
H1154 C1168 0.960 . S
H1155 C1168 0.960 . S
C1156 H1148 0.929 . S
C1156 C1157 1.377 . S
C1156 C1158 1.384 . S
C1157 C1156 1.377 . S
C1157 C1163 1.390 . S
C1158 H1149 0.930 . S
C1158 C1156 1.384 . S
C1158 C1159 1.372 . S
C1159 C1158 1.372 . S
C1159 C1160 1.400 . S
C1159 C1164 1.490 . S
C1160 H1150 0.930 . S
C1160 C1159 1.400 . S
C1160 C1163 1.386 . S
H1161 C1177 0.930 . S
H1162 C1178 0.931 . S
C1163 H1151 0.929 . S
C1163 C1157 1.390 . S
C1163 C1160 1.386 . S
C1164 C1159 1.490 . S
C1164 C1166 1.395 . S
C1164 C1167 1.403 . S
H1165 C1171 0.930 . S
C1166 H1152 0.930 . S
C1166 C1164 1.395 . S
C1166 C1169 1.403 . S
C1167 C1164 1.403 . S
C1167 C1168 1.524 . S
C1167 C1171 1.400 . S
C1168 H1153 0.960 . S
C1168 H1154 0.960 . S
C1168 H1155 0.960 . S
C1168 C1167 1.524 . S
C1169 C1166 1.403 . S
C1169 C1170 1.392 . S
C1169 C1173 1.495 . S
C1170 C1169 1.392 . S
C1170 C1171 1.385 . S
C1170 C1172 1.478 . S
C1171 H1165 0.930 . S
C1171 C1167 1.400 . S
C1171 C1170 1.385 . S
C1172 C1170 1.478 . S
C1172 C1174 1.381 . S
C1172 C1178 1.383 . S
C1173 C1169 1.495 . S
C1173 H1179 0.959 . S
C1173 H1180 0.961 . S
C1173 H1181 0.960 . S
C1174 C1172 1.381 . S
C1174 C1175 1.394 . S
C1174 H1182 0.930 . S
C1175 C1174 1.394 . S
C1175 C1176 1.383 . S
C1175 H1183 0.929 . S
C1176 C1175 1.383 . S
C1176 C1177 1.377 . S
C1177 H1161 0.930 . S
C1177 C1176 1.377 . S
C1177 C1178 1.379 . S
C1178 H1162 0.931 . S
C1178 C1172 1.383 . S
C1178 C1177 1.379 . S
H1179 C1173 0.959 . S
H1180 C1173 0.961 . S
H1181 C1173 0.960 . S
H1182 C1174 0.930 . S
H1183 C1175 0.929 . S
H1184 C1192 0.929 . S
H1185 C1194 0.930 . S
H1186 C1196 0.930 . S
H1187 C1199 0.929 . S
H1188 C1202 0.930 . S
H1189 C1204 0.960 . S
H1190 C1204 0.960 . S
H1191 C1204 0.960 . S
C1192 H1184 0.929 . S
C1192 C1193 1.377 . S
C1192 C1194 1.384 . S
C1193 C1192 1.377 . S
C1193 C1199 1.390 . S
C1194 H1185 0.930 . S
C1194 C1192 1.384 . S
C1194 C1195 1.372 . S
C1195 C1194 1.372 . S
C1195 C1196 1.400 . S
C1195 C1200 1.490 . S
C1196 H1186 0.930 . S
C1196 C1195 1.400 . S
C1196 C1199 1.386 . S
H1197 C1213 0.930 . S
H1198 C1214 0.931 . S
C1199 H1187 0.929 . S
C1199 C1193 1.390 . S
C1199 C1196 1.386 . S
C1200 C1195 1.490 . S
C1200 C1202 1.395 . S
C1200 C1203 1.403 . S
H1201 C1207 0.930 . S
C1202 H1188 0.930 . S
C1202 C1200 1.395 . S
C1202 C1205 1.403 . S
C1203 C1200 1.403 . S
C1203 C1204 1.524 . S
C1203 C1207 1.400 . S
C1204 H1189 0.960 . S
C1204 H1190 0.960 . S
C1204 H1191 0.960 . S
C1204 C1203 1.524 . S
C1205 C1202 1.403 . S
C1205 C1206 1.392 . S
C1205 C1209 1.495 . S
C1206 C1205 1.392 . S
C1206 C1207 1.385 . S
C1206 C1208 1.478 . S
C1207 H1201 0.930 . S
C1207 C1203 1.400 . S
C1207 C1206 1.385 . S
C1208 C1206 1.478 . S
C1208 C1210 1.381 . S
C1208 C1214 1.383 . S
C1209 C1205 1.495 . S
C1209 H1215 0.959 . S
C1209 H1216 0.961 . S
C1209 H1217 0.960 . S
C1210 C1208 1.381 . S
C1210 C1211 1.394 . S
C1210 H1218 0.930 . S
C1211 C1210 1.394 . S
C1211 C1212 1.383 . S
C1211 H1219 0.929 . S
C1212 C1211 1.383 . S
C1212 C1213 1.377 . S
C1213 H1197 0.930 . S
C1213 C1212 1.377 . S
C1213 C1214 1.379 . S
C1214 H1198 0.931 . S
C1214 C1208 1.383 . S
C1214 C1213 1.379 . S
H1215 C1209 0.959 . S
H1216 C1209 0.961 . S
H1217 C1209 0.960 . S
H1218 C1210 0.930 . S
H1219 C1211 0.929 . S
H1220 C1228 0.929 . S
H1221 C1230 0.930 . S
H1222 C1232 0.930 . S
H1223 C1235 0.929 . S
H1224 C1238 0.930 . S
H1225 C1240 0.960 . S
H1226 C1240 0.960 . S
H1227 C1240 0.960 . S
C1228 H1220 0.929 . S
C1228 C1229 1.377 . S
C1228 C1230 1.384 . S
C1229 C1228 1.377 . S
C1229 C1235 1.390 . S
C1230 H1221 0.930 . S
C1230 C1228 1.384 . S
C1230 C1231 1.372 . S
C1231 C1230 1.372 . S
C1231 C1232 1.400 . S
C1231 C1236 1.490 . S
C1232 H1222 0.930 . S
C1232 C1231 1.400 . S
C1232 C1235 1.386 . S
H1233 C1249 0.930 . S
H1234 C1250 0.931 . S
C1235 H1223 0.929 . S
C1235 C1229 1.390 . S
C1235 C1232 1.386 . S
C1236 C1231 1.490 . S
C1236 C1238 1.395 . S
C1236 C1239 1.403 . S
H1237 C1243 0.930 . S
C1238 H1224 0.930 . S
C1238 C1236 1.395 . S
C1238 C1241 1.403 . S
C1239 C1236 1.403 . S
C1239 C1240 1.524 . S
C1239 C1243 1.400 . S
C1240 H1225 0.960 . S
C1240 H1226 0.960 . S
C1240 H1227 0.960 . S
C1240 C1239 1.524 . S
C1241 C1238 1.403 . S
C1241 C1242 1.392 . S
C1241 C1245 1.495 . S
C1242 C1241 1.392 . S
C1242 C1243 1.385 . S
C1242 C1244 1.478 . S
C1243 H1237 0.930 . S
C1243 C1239 1.400 . S
C1243 C1242 1.385 . S
C1244 C1242 1.478 . S
C1244 C1246 1.381 . S
C1244 C1250 1.383 . S
C1245 C1241 1.495 . S
C1245 H1251 0.959 . S
C1245 H1252 0.961 . S
C1245 H1253 0.960 . S
C1246 C1244 1.381 . S
C1246 C1247 1.394 . S
C1246 H1254 0.930 . S
C1247 C1246 1.394 . S
C1247 C1248 1.383 . S
C1247 H1255 0.929 . S
C1248 C1247 1.383 . S
C1248 C1249 1.377 . S
C1249 H1233 0.930 . S
C1249 C1248 1.377 . S
C1249 C1250 1.379 . S
C1250 H1234 0.931 . S
C1250 C1244 1.383 . S
C1250 C1249 1.379 . S
H1251 C1245 0.959 . S
H1252 C1245 0.961 . S
H1253 C1245 0.960 . S
H1254 C1246 0.930 . S
H1255 C1247 0.929 . S
H1256 C1264 0.929 . S
H1257 C1266 0.930 . S
H1258 C1268 0.930 . S
H1259 C1271 0.929 . S
H1260 C1274 0.930 . S
H1261 C1276 0.960 . S
H1262 C1276 0.960 . S
H1263 C1276 0.960 . S
C1264 H1256 0.929 . S
C1264 C1265 1.377 . S
C1264 C1266 1.384 . S
C1265 C1264 1.377 . S
C1265 C1271 1.390 . S
C1266 H1257 0.930 . S
C1266 C1264 1.384 . S
C1266 C1267 1.372 . S
C1267 C1266 1.372 . S
C1267 C1268 1.400 . S
C1267 C1272 1.490 . S
C1268 H1258 0.930 . S
C1268 C1267 1.400 . S
C1268 C1271 1.386 . S
H1269 C1285 0.930 . S
H1270 C1286 0.931 . S
C1271 H1259 0.929 . S
C1271 C1265 1.390 . S
C1271 C1268 1.386 . S
C1272 C1267 1.490 . S
C1272 C1274 1.395 . S
C1272 C1275 1.403 . S
H1273 C1279 0.930 . S
C1274 H1260 0.930 . S
C1274 C1272 1.395 . S
C1274 C1277 1.403 . S
C1275 C1272 1.403 . S
C1275 C1276 1.524 . S
C1275 C1279 1.400 . S
C1276 H1261 0.960 . S
C1276 H1262 0.960 . S
C1276 H1263 0.960 . S
C1276 C1275 1.524 . S
C1277 C1274 1.403 . S
C1277 C1278 1.392 . S
C1277 C1281 1.495 . S
C1278 C1277 1.392 . S
C1278 C1279 1.385 . S
C1278 C1280 1.478 . S
C1279 H1273 0.930 . S
C1279 C1275 1.400 . S
C1279 C1278 1.385 . S
C1280 C1278 1.478 . S
C1280 C1282 1.381 . S
C1280 C1286 1.383 . S
C1281 C1277 1.495 . S
C1281 H1287 0.959 . S
C1281 H1288 0.961 . S
C1281 H1289 0.960 . S
C1282 C1280 1.381 . S
C1282 C1283 1.394 . S
C1282 H1290 0.930 . S
C1283 C1282 1.394 . S
C1283 C1284 1.383 . S
C1283 H1291 0.929 . S
C1284 C1283 1.383 . S
C1284 C1285 1.377 . S
C1285 H1269 0.930 . S
C1285 C1284 1.377 . S
C1285 C1286 1.379 . S
C1286 H1270 0.931 . S
C1286 C1280 1.383 . S
C1286 C1285 1.379 . S
H1287 C1281 0.959 . S
H1288 C1281 0.961 . S
H1289 C1281 0.960 . S
H1290 C1282 0.930 . S
H1291 C1283 0.929 . S
H1292 C1300 0.929 . S
H1293 C1302 0.930 . S
H1294 C1304 0.930 . S
H1295 C1307 0.929 . S
H1296 C1310 0.930 . S
H1297 C1312 0.960 . S
H1298 C1312 0.960 . S
H1299 C1312 0.960 . S
C1300 H1292 0.929 . S
C1300 C1301 1.377 . S
C1300 C1302 1.384 . S
C1301 C1300 1.377 . S
C1301 C1307 1.390 . S
C1302 H1293 0.930 . S
C1302 C1300 1.384 . S
C1302 C1303 1.372 . S
C1303 C1302 1.372 . S
C1303 C1304 1.400 . S
C1303 C1308 1.490 . S
C1304 H1294 0.930 . S
C1304 C1303 1.400 . S
C1304 C1307 1.386 . S
H1305 C1321 0.930 . S
H1306 C1322 0.931 . S
C1307 H1295 0.929 . S
C1307 C1301 1.390 . S
C1307 C1304 1.386 . S
C1308 C1303 1.490 . S
C1308 C1310 1.395 . S
C1308 C1311 1.403 . S
H1309 C1315 0.930 . S
C1310 H1296 0.930 . S
C1310 C1308 1.395 . S
C1310 C1313 1.403 . S
C1311 C1308 1.403 . S
C1311 C1312 1.524 . S
C1311 C1315 1.400 . S
C1312 H1297 0.960 . S
C1312 H1298 0.960 . S
C1312 H1299 0.960 . S
C1312 C1311 1.524 . S
C1313 C1310 1.403 . S
C1313 C1314 1.392 . S
C1313 C1317 1.495 . S
C1314 C1313 1.392 . S
C1314 C1315 1.385 . S
C1314 C1316 1.478 . S
C1315 H1309 0.930 . S
C1315 C1311 1.400 . S
C1315 C1314 1.385 . S
C1316 C1314 1.478 . S
C1316 C1318 1.381 . S
C1316 C1322 1.383 . S
C1317 C1313 1.495 . S
C1317 H1323 0.959 . S
C1317 H1324 0.961 . S
C1317 H1325 0.960 . S
C1318 C1316 1.381 . S
C1318 C1319 1.394 . S
C1318 H1326 0.930 . S
C1319 C1318 1.394 . S
C1319 C1320 1.383 . S
C1319 H1327 0.929 . S
C1320 C1319 1.383 . S
C1320 C1321 1.377 . S
C1321 H1305 0.930 . S
C1321 C1320 1.377 . S
C1321 C1322 1.379 . S
C1322 H1306 0.931 . S
C1322 C1316 1.383 . S
C1322 C1321 1.379 . S
H1323 C1317 0.959 . S
H1324 C1317 0.961 . S
H1325 C1317 0.960 . S
H1326 C1318 0.930 . S
H1327 C1319 0.929 . S
H1328 C1336 0.929 . S
H1329 C1338 0.930 . S
H1330 C1340 0.930 . S
H1331 C1343 0.929 . S
H1332 C1346 0.930 . S
H1333 C1348 0.960 . S
H1334 C1348 0.960 . S
H1335 C1348 0.960 . S
C1336 H1328 0.929 . S
C1336 C1337 1.377 . S
C1336 C1338 1.384 . S
C1337 C1336 1.377 . S
C1337 C1343 1.390 . S
C1338 H1329 0.930 . S
C1338 C1336 1.384 . S
C1338 C1339 1.372 . S
C1339 C1338 1.372 . S
C1339 C1340 1.400 . S
C1339 C1344 1.490 . S
C1340 H1330 0.930 . S
C1340 C1339 1.400 . S
C1340 C1343 1.386 . S
H1341 C1357 0.930 . S
H1342 C1358 0.931 . S
C1343 H1331 0.929 . S
C1343 C1337 1.390 . S
C1343 C1340 1.386 . S
C1344 C1339 1.490 . S
C1344 C1346 1.395 . S
C1344 C1347 1.403 . S
H1345 C1351 0.930 . S
C1346 H1332 0.930 . S
C1346 C1344 1.395 . S
C1346 C1349 1.403 . S
C1347 C1344 1.403 . S
C1347 C1348 1.524 . S
C1347 C1351 1.400 . S
C1348 H1333 0.960 . S
C1348 H1334 0.960 . S
C1348 H1335 0.960 . S
C1348 C1347 1.524 . S
C1349 C1346 1.403 . S
C1349 C1350 1.392 . S
C1349 C1353 1.495 . S
C1350 C1349 1.392 . S
C1350 C1351 1.385 . S
C1350 C1352 1.478 . S
C1351 H1345 0.930 . S
C1351 C1347 1.400 . S
C1351 C1350 1.385 . S
C1352 C1350 1.478 . S
C1352 C1354 1.381 . S
C1352 C1358 1.383 . S
C1353 C1349 1.495 . S
C1353 H1359 0.959 . S
C1353 H1360 0.961 . S
C1353 H1361 0.960 . S
C1354 C1352 1.381 . S
C1354 C1355 1.394 . S
C1354 H1362 0.930 . S
C1355 C1354 1.394 . S
C1355 C1356 1.383 . S
C1355 H1363 0.929 . S
C1356 C1355 1.383 . S
C1356 C1357 1.377 . S
C1357 H1341 0.930 . S
C1357 C1356 1.377 . S
C1357 C1358 1.379 . S
C1358 H1342 0.931 . S
C1358 C1352 1.383 . S
C1358 C1357 1.379 . S
H1359 C1353 0.959 . S
H1360 C1353 0.961 . S
H1361 C1353 0.960 . S
H1362 C1354 0.930 . S
H1363 C1355 0.929 . S
H1364 C1372 0.929 . S
H1365 C1374 0.930 . S
H1366 C1376 0.930 . S
H1367 C1379 0.929 . S
H1368 C1382 0.930 . S
H1369 C1384 0.960 . S
H1370 C1384 0.960 . S
H1371 C1384 0.960 . S
C1372 H1364 0.929 . S
C1372 C1373 1.377 . S
C1372 C1374 1.384 . S
C1373 C1372 1.377 . S
C1373 C1379 1.390 . S
C1374 H1365 0.930 . S
C1374 C1372 1.384 . S
C1374 C1375 1.372 . S
C1375 C1374 1.372 . S
C1375 C1376 1.400 . S
C1375 C1380 1.490 . S
C1376 H1366 0.930 . S
C1376 C1375 1.400 . S
C1376 C1379 1.386 . S
H1377 C1393 0.930 . S
H1378 C1394 0.931 . S
C1379 H1367 0.929 . S
C1379 C1373 1.390 . S
C1379 C1376 1.386 . S
C1380 C1375 1.490 . S
C1380 C1382 1.395 . S
C1380 C1383 1.403 . S
H1381 C1387 0.930 . S
C1382 H1368 0.930 . S
C1382 C1380 1.395 . S
C1382 C1385 1.403 . S
C1383 C1380 1.403 . S
C1383 C1384 1.524 . S
C1383 C1387 1.400 . S
C1384 H1369 0.960 . S
C1384 H1370 0.960 . S
C1384 H1371 0.960 . S
C1384 C1383 1.524 . S
C1385 C1382 1.403 . S
C1385 C1386 1.392 . S
C1385 C1389 1.495 . S
C1386 C1385 1.392 . S
C1386 C1387 1.385 . S
C1386 C1388 1.478 . S
C1387 H1381 0.930 . S
C1387 C1383 1.400 . S
C1387 C1386 1.385 . S
C1388 C1386 1.478 . S
C1388 C1390 1.381 . S
C1388 C1394 1.383 . S
C1389 C1385 1.495 . S
C1389 H1395 0.959 . S
C1389 H1396 0.961 . S
C1389 H1397 0.960 . S
C1390 C1388 1.381 . S
C1390 C1391 1.394 . S
C1390 H1398 0.930 . S
C1391 C1390 1.394 . S
C1391 C1392 1.383 . S
C1391 H1399 0.929 . S
C1392 C1391 1.383 . S
C1392 C1393 1.377 . S
C1393 H1377 0.930 . S
C1393 C1392 1.377 . S
C1393 C1394 1.379 . S
C1394 H1378 0.931 . S
C1394 C1388 1.383 . S
C1394 C1393 1.379 . S
H1395 C1389 0.959 . S
H1396 C1389 0.961 . S
H1397 C1389 0.960 . S
H1398 C1390 0.930 . S
H1399 C1391 0.929 . S
H1400 C1408 0.929 . S
H1401 C1410 0.930 . S
H1402 C1412 0.930 . S
H1403 C1415 0.929 . S
H1404 C1418 0.930 . S
H1405 C1420 0.960 . S
H1406 C1420 0.960 . S
H1407 C1420 0.960 . S
C1408 H1400 0.929 . S
C1408 C1409 1.377 . S
C1408 C1410 1.384 . S
C1409 C1408 1.377 . S
C1409 C1415 1.390 . S
C1410 H1401 0.930 . S
C1410 C1408 1.384 . S
C1410 C1411 1.372 . S
C1411 C1410 1.372 . S
C1411 C1412 1.400 . S
C1411 C1416 1.490 . S
C1412 H1402 0.930 . S
C1412 C1411 1.400 . S
C1412 C1415 1.386 . S
H1413 C1429 0.930 . S
H1414 C1430 0.931 . S
C1415 H1403 0.929 . S
C1415 C1409 1.390 . S
C1415 C1412 1.386 . S
C1416 C1411 1.490 . S
C1416 C1418 1.395 . S
C1416 C1419 1.403 . S
H1417 C1423 0.930 . S
C1418 H1404 0.930 . S
C1418 C1416 1.395 . S
C1418 C1421 1.403 . S
C1419 C1416 1.403 . S
C1419 C1420 1.524 . S
C1419 C1423 1.400 . S
C1420 H1405 0.960 . S
C1420 H1406 0.960 . S
C1420 H1407 0.960 . S
C1420 C1419 1.524 . S
C1421 C1418 1.403 . S
C1421 C1422 1.392 . S
C1421 C1425 1.495 . S
C1422 C1421 1.392 . S
C1422 C1423 1.385 . S
C1422 C1424 1.478 . S
C1423 H1417 0.930 . S
C1423 C1419 1.400 . S
C1423 C1422 1.385 . S
C1424 C1422 1.478 . S
C1424 C1426 1.381 . S
C1424 C1430 1.383 . S
C1425 C1421 1.495 . S
C1425 H1431 0.959 . S
C1425 H1432 0.961 . S
C1425 H1433 0.960 . S
C1426 C1424 1.381 . S
C1426 C1427 1.394 . S
C1426 H1434 0.930 . S
C1427 C1426 1.394 . S
C1427 C1428 1.383 . S
C1427 H1435 0.929 . S
C1428 C1427 1.383 . S
C1428 C1429 1.377 . S
C1429 H1413 0.930 . S
C1429 C1428 1.377 . S
C1429 C1430 1.379 . S
C1430 H1414 0.931 . S
C1430 C1424 1.383 . S
C1430 C1429 1.379 . S
H1431 C1425 0.959 . S
H1432 C1425 0.961 . S
H1433 C1425 0.960 . S
H1434 C1426 0.930 . S
H1435 C1427 0.929 . S
H1436 C1444 0.929 . S
H1437 C1446 0.930 . S
H1438 C1448 0.930 . S
H1439 C1451 0.929 . S
H1440 C1454 0.930 . S
H1441 C1456 0.960 . S
H1442 C1456 0.960 . S
H1443 C1456 0.960 . S
C1444 H1436 0.929 . S
C1444 C1445 1.377 . S
C1444 C1446 1.384 . S
C1445 C1444 1.377 . S
C1445 C1451 1.390 . S
C1446 H1437 0.930 . S
C1446 C1444 1.384 . S
C1446 C1447 1.372 . S
C1447 C1446 1.372 . S
C1447 C1448 1.400 . S
C1447 C1452 1.490 . S
C1448 H1438 0.930 . S
C1448 C1447 1.400 . S
C1448 C1451 1.386 . S
H1449 C1465 0.930 . S
H1450 C1466 0.931 . S
C1451 H1439 0.929 . S
C1451 C1445 1.390 . S
C1451 C1448 1.386 . S
C1452 C1447 1.490 . S
C1452 C1454 1.395 . S
C1452 C1455 1.403 . S
H1453 C1459 0.930 . S
C1454 H1440 0.930 . S
C1454 C1452 1.395 . S
C1454 C1457 1.403 . S
C1455 C1452 1.403 . S
C1455 C1456 1.524 . S
C1455 C1459 1.400 . S
C1456 H1441 0.960 . S
C1456 H1442 0.960 . S
C1456 H1443 0.960 . S
C1456 C1455 1.524 . S
C1457 C1454 1.403 . S
C1457 C1458 1.392 . S
C1457 C1461 1.495 . S
C1458 C1457 1.392 . S
C1458 C1459 1.385 . S
C1458 C1460 1.478 . S
C1459 H1453 0.930 . S
C1459 C1455 1.400 . S
C1459 C1458 1.385 . S
C1460 C1458 1.478 . S
C1460 C1462 1.381 . S
C1460 C1466 1.383 . S
C1461 C1457 1.495 . S
C1461 H1467 0.959 . S
C1461 H1468 0.961 . S
C1461 H1469 0.960 . S
C1462 C1460 1.381 . S
C1462 C1463 1.394 . S
C1462 H1470 0.930 . S
C1463 C1462 1.394 . S
C1463 C1464 1.383 . S
C1463 H1471 0.929 . S
C1464 C1463 1.383 . S
C1464 C1465 1.377 . S
C1465 H1449 0.930 . S
C1465 C1464 1.377 . S
C1465 C1466 1.379 . S
C1466 H1450 0.931 . S
C1466 C1460 1.383 . S
C1466 C1465 1.379 . S
H1467 C1461 0.959 . S
H1468 C1461 0.961 . S
H1469 C1461 0.960 . S
H1470 C1462 0.930 . S
H1471 C1463 0.929 . S
H1472 C1480 0.929 . S
H1473 C1482 0.930 . S
H1474 C1484 0.930 . S
H1475 C1487 0.929 . S
H1476 C1490 0.930 . S
H1477 C1492 0.960 . S
H1478 C1492 0.960 . S
H1479 C1492 0.960 . S
C1480 H1472 0.929 . S
C1480 C1481 1.377 . S
C1480 C1482 1.384 . S
C1481 C1480 1.377 . S
C1481 C1487 1.390 . S
C1482 H1473 0.930 . S
C1482 C1480 1.384 . S
C1482 C1483 1.372 . S
C1483 C1482 1.372 . S
C1483 C1484 1.400 . S
C1483 C1488 1.490 . S
C1484 H1474 0.930 . S
C1484 C1483 1.400 . S
C1484 C1487 1.386 . S
H1485 C1501 0.933 1_455 S
H1486 C1502 0.931 . S
C1487 H1475 0.929 . S
C1487 C1481 1.390 . S
C1487 C1484 1.386 . S
C1488 C1483 1.490 . S
C1488 C1490 1.395 . S
C1488 C1491 1.403 . S
H1489 C1495 0.930 . S
C1490 H1476 0.930 . S
C1490 C1488 1.395 . S
C1490 C1493 1.403 . S
C1491 C1488 1.403 . S
C1491 C1492 1.524 . S
C1491 C1495 1.400 . S
C1492 H1477 0.960 . S
C1492 H1478 0.960 . S
C1492 H1479 0.960 . S
C1492 C1491 1.524 . S
C1493 C1490 1.403 . S
C1493 C1494 1.392 . S
C1493 C1497 1.495 . S
C1494 C1493 1.392 . S
C1494 C1495 1.385 . S
C1494 C1496 1.478 . S
C1495 H1489 0.930 . S
C1495 C1491 1.400 . S
C1495 C1494 1.385 . S
C1496 C1494 1.478 . S
C1496 C1498 1.381 . S
C1496 C1502 1.383 . S
C1497 C1493 1.495 . S
C1497 H1503 0.959 . S
C1497 H1504 0.961 . S
C1497 H1505 0.960 . S
C1498 C1496 1.381 . S
C1498 C1499 1.394 . S
C1498 H1506 0.930 . S
C1499 C1498 1.394 . S
C1499 C1500 1.383 1_655 S
C1499 H1507 0.929 . S
C1500 C1499 1.383 1_455 S
C1500 C1501 1.380 1_455 S
C1501 H1485 0.933 1_655 S
C1501 C1500 1.380 1_655 S
C1501 C1502 1.373 . S
C1502 H1486 0.931 . S
C1502 C1496 1.383 . S
C1502 C1501 1.373 . S
H1503 C1497 0.959 . S
H1504 C1497 0.961 . S
H1505 C1497 0.960 . S
H1506 C1498 0.930 . S
H1507 C1499 0.929 . S
H1508 C1516 0.929 . S
H1509 C1518 0.930 . S
H1510 C1520 0.930 . S
H1511 C1523 0.929 . S
H1512 C1526 0.930 . S
H1513 C1528 0.960 . S
H1514 C1528 0.960 . S
H1515 C1528 0.960 . S
C1516 H1508 0.929 . S
C1516 C1517 1.377 . S
C1516 C1518 1.384 . S
C1517 C1516 1.377 . S
C1517 C1523 1.390 . S
C1518 H1509 0.930 . S
C1518 C1516 1.384 . S
C1518 C1519 1.372 . S
C1519 C1518 1.372 . S
C1519 C1520 1.400 . S
C1519 C1524 1.490 . S
C1520 H1510 0.930 . S
C1520 C1519 1.400 . S
C1520 C1523 1.386 . S
H1521 C1537 0.948 . S
H1522 C1538 0.931 . S
C1523 H1511 0.929 . S
C1523 C1517 1.390 . S
C1523 C1520 1.386 . S
C1524 C1519 1.490 . S
C1524 C1526 1.395 . S
C1524 C1527 1.403 . S
H1525 C1531 0.930 . S
C1526 H1512 0.930 . S
C1526 C1524 1.395 . S
C1526 C1529 1.403 . S
C1527 C1524 1.403 . S
C1527 C1528 1.524 . S
C1527 C1531 1.400 . S
C1528 H1513 0.960 . S
C1528 H1514 0.960 . S
C1528 H1515 0.960 . S
C1528 C1527 1.524 . S
C1529 C1526 1.403 . S
C1529 C1530 1.392 . S
C1529 C1533 1.495 . S
C1530 C1529 1.392 . S
C1530 C1531 1.385 . S
C1530 C1532 1.478 . S
C1531 H1525 0.930 . S
C1531 C1527 1.400 . S
C1531 C1530 1.385 . S
C1532 C1530 1.478 . S
C1532 C1534 1.381 . S
C1532 C1538 1.383 . S
C1533 C1529 1.495 . S
C1533 H1539 0.959 . S
C1533 H1540 0.961 . S
C1533 H1541 0.960 . S
C1534 C1532 1.381 . S
C1534 C1535 1.394 . S
C1534 H1542 0.930 . S
C1535 C1534 1.394 . S
C1535 C1536 1.383 . S
C1535 H1543 0.929 . S
C1536 C1535 1.383 . S
C1536 C1537 1.375 1_565 S
C1537 H1521 0.948 . S
C1537 C1536 1.375 1_545 S
C1537 C1538 1.363 1_545 S
C1538 H1522 0.931 . S
C1538 C1532 1.383 . S
C1538 C1537 1.363 1_565 S
H1539 C1533 0.959 . S
H1540 C1533 0.961 . S
H1541 C1533 0.960 . S
H1542 C1534 0.930 . S
H1543 C1535 0.929 . S
H1544 C1552 0.929 . S
H1545 C1554 0.930 . S
H1546 C1556 0.930 . S
H1547 C1559 0.929 . S
H1548 C1562 0.930 . S
H1549 C1564 0.960 . S
H1550 C1564 0.960 . S
H1551 C1564 0.960 . S
C1552 H1544 0.929 . S
C1552 C1553 1.377 . S
C1552 C1554 1.384 . S
C1553 C1552 1.377 . S
C1553 C1559 1.390 . S
C1554 H1545 0.930 . S
C1554 C1552 1.384 . S
C1554 C1555 1.372 . S
C1555 C1554 1.372 . S
C1555 C1556 1.400 . S
C1555 C1560 1.490 . S
C1556 H1546 0.930 . S
C1556 C1555 1.400 . S
C1556 C1559 1.386 . S
H1557 C1573 0.930 . S
H1558 C1574 0.931 . S
C1559 H1547 0.929 . S
C1559 C1553 1.390 . S
C1559 C1556 1.386 . S
C1560 C1555 1.490 . S
C1560 C1562 1.395 . S
C1560 C1563 1.403 . S
H1561 C1567 0.930 . S
C1562 H1548 0.930 . S
C1562 C1560 1.395 . S
C1562 C1565 1.403 . S
C1563 C1560 1.403 . S
C1563 C1564 1.524 . S
C1563 C1567 1.400 . S
C1564 H1549 0.960 . S
C1564 H1550 0.960 . S
C1564 H1551 0.960 . S
C1564 C1563 1.524 . S
C1565 C1562 1.403 . S
C1565 C1566 1.392 . S
C1565 C1569 1.495 . S
C1566 C1565 1.392 . S
C1566 C1567 1.385 . S
C1566 C1568 1.478 . S
C1567 H1561 0.930 . S
C1567 C1563 1.400 . S
C1567 C1566 1.385 . S
C1568 C1566 1.478 . S
C1568 C1570 1.381 . S
C1568 C1574 1.383 . S
C1569 C1565 1.495 . S
C1569 H1575 0.959 . S
C1569 H1576 0.961 . S
C1569 H1577 0.960 . S
C1570 C1568 1.381 . S
C1570 C1571 1.394 . S
C1570 H1578 0.930 . S
C1571 C1570 1.394 . S
C1571 C1572 1.383 . S
C1571 H1579 0.929 . S
C1572 C1571 1.383 . S
C1572 C1573 1.377 . S
C1573 H1557 0.930 . S
C1573 C1572 1.377 . S
C1573 C1574 1.379 . S
C1574 H1558 0.931 . S
C1574 C1568 1.383 . S
C1574 C1573 1.379 . S
H1575 C1569 0.959 . S
H1576 C1569 0.961 . S
H1577 C1569 0.960 . S
H1578 C1570 0.930 . S
H1579 C1571 0.929 . S
H1580 C1588 0.929 . S
H1581 C1590 0.930 . S
H1582 C1592 0.930 . S
H1583 C1595 0.929 . S
H1584 C1598 0.930 . S
H1585 C1600 0.960 . S
H1586 C1600 0.960 . S
H1587 C1600 0.960 . S
C1588 H1580 0.929 . S
C1588 C1589 1.377 . S
C1588 C1590 1.384 . S
C1589 C1588 1.377 . S
C1589 C1595 1.390 . S
C1590 H1581 0.930 . S
C1590 C1588 1.384 . S
C1590 C1591 1.372 . S
C1591 C1590 1.372 . S
C1591 C1592 1.400 . S
C1591 C1596 1.490 . S
C1592 H1582 0.930 . S
C1592 C1591 1.400 . S
C1592 C1595 1.386 . S
H1593 C1609 0.930 . S
H1594 C1610 0.931 . S
C1595 H1583 0.929 . S
C1595 C1589 1.390 . S
C1595 C1592 1.386 . S
C1596 C1591 1.490 . S
C1596 C1598 1.395 . S
C1596 C1599 1.403 . S
H1597 C1603 0.930 . S
C1598 H1584 0.930 . S
C1598 C1596 1.395 . S
C1598 C1601 1.403 . S
C1599 C1596 1.403 . S
C1599 C1600 1.524 . S
C1599 C1603 1.400 . S
C1600 H1585 0.960 . S
C1600 H1586 0.960 . S
C1600 H1587 0.960 . S
C1600 C1599 1.524 . S
C1601 C1598 1.403 . S
C1601 C1602 1.392 . S
C1601 C1605 1.495 . S
C1602 C1601 1.392 . S
C1602 C1603 1.385 . S
C1602 C1604 1.478 . S
C1603 H1597 0.930 . S
C1603 C1599 1.400 . S
C1603 C1602 1.385 . S
C1604 C1602 1.478 . S
C1604 C1606 1.381 . S
C1604 C1610 1.383 . S
C1605 C1601 1.495 . S
C1605 H1611 0.959 . S
C1605 H1612 0.961 . S
C1605 H1613 0.960 . S
C1606 C1604 1.381 . S
C1606 C1607 1.394 . S
C1606 H1614 0.930 . S
C1607 C1606 1.394 . S
C1607 C1608 1.383 . S
C1607 H1615 0.929 . S
C1608 C1607 1.383 . S
C1608 C1609 1.377 . S
C1609 H1593 0.930 . S
C1609 C1608 1.377 . S
C1609 C1610 1.379 . S
C1610 H1594 0.931 . S
C1610 C1604 1.383 . S
C1610 C1609 1.379 . S
H1611 C1605 0.959 . S
H1612 C1605 0.961 . S
H1613 C1605 0.960 . S
H1614 C1606 0.930 . S
H1615 C1607 0.929 . S
H1616 C1624 0.929 . S
H1617 C1626 0.930 . S
H1618 C1628 0.930 . S
H1619 C1631 0.929 . S
H1620 C1634 0.930 . S
H1621 C1636 0.960 . S
H1622 C1636 0.960 . S
H1623 C1636 0.960 . S
C1624 H1616 0.929 . S
C1624 C1625 1.377 . S
C1624 C1626 1.384 . S
C1625 C1624 1.377 . S
C1625 C1631 1.390 . S
C1626 H1617 0.930 . S
C1626 C1624 1.384 . S
C1626 C1627 1.372 . S
C1627 C1626 1.372 . S
C1627 C1628 1.400 . S
C1627 C1632 1.490 . S
C1628 H1618 0.930 . S
C1628 C1627 1.400 . S
C1628 C1631 1.386 . S
H1629 C1645 0.930 . S
H1630 C1646 0.931 . S
C1631 H1619 0.929 . S
C1631 C1625 1.390 . S
C1631 C1628 1.386 . S
C1632 C1627 1.490 . S
C1632 C1634 1.395 . S
C1632 C1635 1.403 . S
H1633 C1639 0.930 . S
C1634 H1620 0.930 . S
C1634 C1632 1.395 . S
C1634 C1637 1.403 . S
C1635 C1632 1.403 . S
C1635 C1636 1.524 . S
C1635 C1639 1.400 . S
C1636 H1621 0.960 . S
C1636 H1622 0.960 . S
C1636 H1623 0.960 . S
C1636 C1635 1.524 . S
C1637 C1634 1.403 . S
C1637 C1638 1.392 . S
C1637 C1641 1.495 . S
C1638 C1637 1.392 . S
C1638 C1639 1.385 . S
C1638 C1640 1.478 . S
C1639 H1633 0.930 . S
C1639 C1635 1.400 . S
C1639 C1638 1.385 . S
C1640 C1638 1.478 . S
C1640 C1642 1.381 . S
C1640 C1646 1.383 . S
C1641 C1637 1.495 . S
C1641 H1647 0.959 . S
C1641 H1648 0.961 . S
C1641 H1649 0.960 . S
C1642 C1640 1.381 . S
C1642 C1643 1.394 . S
C1642 H1650 0.930 . S
C1643 C1642 1.394 . S
C1643 C1644 1.383 . S
C1643 H1651 0.929 . S
C1644 C1643 1.383 . S
C1644 C1645 1.377 . S
C1645 H1629 0.930 . S
C1645 C1644 1.377 . S
C1645 C1646 1.379 . S
C1646 H1630 0.931 . S
C1646 C1640 1.383 . S
C1646 C1645 1.379 . S
H1647 C1641 0.959 . S
H1648 C1641 0.961 . S
H1649 C1641 0.960 . S
H1650 C1642 0.930 . S
H1651 C1643 0.929 . S
H1652 C1660 0.929 . S
H1653 C1662 0.930 . S
H1654 C1664 0.930 . S
H1655 C1667 0.929 . S
H1656 C1670 0.930 . S
H1657 C1672 0.960 . S
H1658 C1672 0.960 . S
H1659 C1672 0.960 . S
C1660 H1652 0.929 . S
C1660 C1661 1.377 . S
C1660 C1662 1.384 . S
C1661 C1660 1.377 . S
C1661 C1667 1.390 . S
C1662 H1653 0.930 . S
C1662 C1660 1.384 . S
C1662 C1663 1.372 . S
C1663 C1662 1.372 . S
C1663 C1664 1.400 . S
C1663 C1668 1.490 . S
C1664 H1654 0.930 . S
C1664 C1663 1.400 . S
C1664 C1667 1.386 . S
H1665 C1681 0.930 . S
H1666 C1682 0.931 . S
C1667 H1655 0.929 . S
C1667 C1661 1.390 . S
C1667 C1664 1.386 . S
C1668 C1663 1.490 . S
C1668 C1670 1.395 . S
C1668 C1671 1.403 . S
H1669 C1675 0.930 . S
C1670 H1656 0.930 . S
C1670 C1668 1.395 . S
C1670 C1673 1.403 . S
C1671 C1668 1.403 . S
C1671 C1672 1.524 . S
C1671 C1675 1.400 . S
C1672 H1657 0.960 . S
C1672 H1658 0.960 . S
C1672 H1659 0.960 . S
C1672 C1671 1.524 . S
C1673 C1670 1.403 . S
C1673 C1674 1.392 . S
C1673 C1677 1.495 . S
C1674 C1673 1.392 . S
C1674 C1675 1.385 . S
C1674 C1676 1.478 . S
C1675 H1669 0.930 . S
C1675 C1671 1.400 . S
C1675 C1674 1.385 . S
C1676 C1674 1.478 . S
C1676 C1678 1.381 . S
C1676 C1682 1.383 . S
C1677 C1673 1.495 . S
C1677 H1683 0.959 . S
C1677 H1684 0.961 . S
C1677 H1685 0.960 . S
C1678 C1676 1.381 . S
C1678 C1679 1.394 . S
C1678 H1686 0.930 . S
C1679 C1678 1.394 . S
C1679 C1680 1.383 . S
C1679 H1687 0.929 . S
C1680 C1679 1.383 . S
C1680 C1681 1.377 . S
C1681 H1665 0.930 . S
C1681 C1680 1.377 . S
C1681 C1682 1.379 . S
C1682 H1666 0.931 . S
C1682 C1676 1.383 . S
C1682 C1681 1.379 . S
H1683 C1677 0.959 . S
H1684 C1677 0.961 . S
H1685 C1677 0.960 . S
H1686 C1678 0.930 . S
H1687 C1679 0.929 . S
H1688 C1696 0.929 . S
H1689 C1698 0.930 . S
H1690 C1700 0.930 . S
H1691 C1703 0.929 . S
H1692 C1706 0.930 . S
H1693 C1708 0.960 . S
H1694 C1708 0.960 . S
H1695 C1708 0.960 . S
C1696 H1688 0.929 . S
C1696 C1697 1.377 . S
C1696 C1698 1.384 . S
C1697 C1696 1.377 . S
C1697 C1703 1.390 . S
C1698 H1689 0.930 . S
C1698 C1696 1.384 . S
C1698 C1699 1.372 . S
C1699 C1698 1.372 . S
C1699 C1700 1.400 . S
C1699 C1704 1.490 . S
C1700 H1690 0.930 . S
C1700 C1699 1.400 . S
C1700 C1703 1.386 . S
H1701 C1717 0.930 . S
H1702 C1718 0.931 . S
C1703 H1691 0.929 . S
C1703 C1697 1.390 . S
C1703 C1700 1.386 . S
C1704 C1699 1.490 . S
C1704 C1706 1.395 . S
C1704 C1707 1.403 . S
H1705 C1711 0.930 . S
C1706 H1692 0.930 . S
C1706 C1704 1.395 . S
C1706 C1709 1.403 . S
C1707 C1704 1.403 . S
C1707 C1708 1.524 . S
C1707 C1711 1.400 . S
C1708 H1693 0.960 . S
C1708 H1694 0.960 . S
C1708 H1695 0.960 . S
C1708 C1707 1.524 . S
C1709 C1706 1.403 . S
C1709 C1710 1.392 . S
C1709 C1713 1.495 . S
C1710 C1709 1.392 . S
C1710 C1711 1.385 . S
C1710 C1712 1.478 . S
C1711 H1705 0.930 . S
C1711 C1707 1.400 . S
C1711 C1710 1.385 . S
C1712 C1710 1.478 . S
C1712 C1714 1.381 . S
C1712 C1718 1.383 . S
C1713 C1709 1.495 . S
C1713 H1719 0.959 . S
C1713 H1720 0.961 . S
C1713 H1721 0.960 . S
C1714 C1712 1.381 . S
C1714 C1715 1.394 . S
C1714 H1722 0.930 . S
C1715 C1714 1.394 . S
C1715 C1716 1.383 . S
C1715 H1723 0.929 . S
C1716 C1715 1.383 . S
C1716 C1717 1.377 . S
C1717 H1701 0.930 . S
C1717 C1716 1.377 . S
C1717 C1718 1.379 . S
C1718 H1702 0.931 . S
C1718 C1712 1.383 . S
C1718 C1717 1.379 . S
H1719 C1713 0.959 . S
H1720 C1713 0.961 . S
H1721 C1713 0.960 . S
H1722 C1714 0.930 . S
H1723 C1715 0.929 . S
H1724 C1732 0.929 . S
H1725 C1734 0.930 . S
H1726 C1736 0.930 . S
H1727 C1739 0.929 . S
H1728 C1742 0.930 . S
H1729 C1744 0.960 . S
H1730 C1744 0.960 . S
H1731 C1744 0.960 . S
C1732 H1724 0.929 . S
C1732 C1733 1.377 . S
C1732 C1734 1.384 . S
C1733 C1732 1.377 . S
C1733 C1739 1.390 . S
C1734 H1725 0.930 . S
C1734 C1732 1.384 . S
C1734 C1735 1.372 . S
C1735 C1734 1.372 . S
C1735 C1736 1.400 . S
C1735 C1740 1.490 . S
C1736 H1726 0.930 . S
C1736 C1735 1.400 . S
C1736 C1739 1.386 . S
H1737 C1753 0.930 . S
H1738 C1754 0.931 . S
C1739 H1727 0.929 . S
C1739 C1733 1.390 . S
C1739 C1736 1.386 . S
C1740 C1735 1.490 . S
C1740 C1742 1.395 . S
C1740 C1743 1.403 . S
H1741 C1747 0.930 . S
C1742 H1728 0.930 . S
C1742 C1740 1.395 . S
C1742 C1745 1.403 . S
C1743 C1740 1.403 . S
C1743 C1744 1.524 . S
C1743 C1747 1.400 . S
C1744 H1729 0.960 . S
C1744 H1730 0.960 . S
C1744 H1731 0.960 . S
C1744 C1743 1.524 . S
C1745 C1742 1.403 . S
C1745 C1746 1.392 . S
C1745 C1749 1.495 . S
C1746 C1745 1.392 . S
C1746 C1747 1.385 . S
C1746 C1748 1.478 . S
C1747 H1741 0.930 . S
C1747 C1743 1.400 . S
C1747 C1746 1.385 . S
C1748 C1746 1.478 . S
C1748 C1750 1.381 . S
C1748 C1754 1.383 . S
C1749 C1745 1.495 . S
C1749 H1755 0.959 . S
C1749 H1756 0.961 . S
C1749 H1757 0.960 . S
C1750 C1748 1.381 . S
C1750 C1751 1.394 . S
C1750 H1758 0.930 . S
C1751 C1750 1.394 . S
C1751 C1752 1.383 . S
C1751 H1759 0.929 . S
C1752 C1751 1.383 . S
C1752 C1753 1.377 . S
C1753 H1737 0.930 . S
C1753 C1752 1.377 . S
C1753 C1754 1.379 . S
C1754 H1738 0.931 . S
C1754 C1748 1.383 . S
C1754 C1753 1.379 . S
H1755 C1749 0.959 . S
H1756 C1749 0.961 . S
H1757 C1749 0.960 . S
H1758 C1750 0.930 . S
H1759 C1751 0.929 . S
H1760 C1768 0.929 . S
H1761 C1770 0.930 . S
H1762 C1772 0.930 . S
H1763 C1775 0.929 . S
H1764 C1778 0.930 . S
H1765 C1780 0.960 . S
H1766 C1780 0.960 . S
H1767 C1780 0.960 . S
C1768 H1760 0.929 . S
C1768 C1769 1.377 . S
C1768 C1770 1.384 . S
C1769 C1768 1.377 . S
C1769 C1775 1.390 . S
C1770 H1761 0.930 . S
C1770 C1768 1.384 . S
C1770 C1771 1.372 . S
C1771 C1770 1.372 . S
C1771 C1772 1.400 . S
C1771 C1776 1.490 . S
C1772 H1762 0.930 . S
C1772 C1771 1.400 . S
C1772 C1775 1.386 . S
H1773 C1789 0.930 . S
H1774 C1790 0.931 . S
C1775 H1763 0.929 . S
C1775 C1769 1.390 . S
C1775 C1772 1.386 . S
C1776 C1771 1.490 . S
C1776 C1778 1.395 . S
C1776 C1779 1.403 . S
H1777 C1783 0.930 . S
C1778 H1764 0.930 . S
C1778 C1776 1.395 . S
C1778 C1781 1.403 . S
C1779 C1776 1.403 . S
C1779 C1780 1.524 . S
C1779 C1783 1.400 . S
C1780 H1765 0.960 . S
C1780 H1766 0.960 . S
C1780 H1767 0.960 . S
C1780 C1779 1.524 . S
C1781 C1778 1.403 . S
C1781 C1782 1.392 . S
C1781 C1785 1.495 . S
C1782 C1781 1.392 . S
C1782 C1783 1.385 . S
C1782 C1784 1.478 . S
C1783 H1777 0.930 . S
C1783 C1779 1.400 . S
C1783 C1782 1.385 . S
C1784 C1782 1.478 . S
C1784 C1786 1.381 . S
C1784 C1790 1.383 . S
C1785 C1781 1.495 . S
C1785 H1791 0.959 . S
C1785 H1792 0.961 . S
C1785 H1793 0.960 . S
C1786 C1784 1.381 . S
C1786 C1787 1.394 . S
C1786 H1794 0.930 . S
C1787 C1786 1.394 . S
C1787 C1788 1.383 . S
C1787 H1795 0.929 . S
C1788 C1787 1.383 . S
C1788 C1789 1.377 . S
C1789 H1773 0.930 . S
C1789 C1788 1.377 . S
C1789 C1790 1.379 . S
C1790 H1774 0.931 . S
C1790 C1784 1.383 . S
C1790 C1789 1.379 . S
H1791 C1785 0.959 . S
H1792 C1785 0.961 . S
H1793 C1785 0.960 . S
H1794 C1786 0.930 . S
H1795 C1787 0.929 . S
H1796 C1804 0.929 . S
H1797 C1806 0.930 . S
H1798 C1808 0.930 . S
H1799 C1811 0.929 . S
H1800 C1814 0.930 . S
H1801 C1816 0.960 . S
H1802 C1816 0.960 . S
H1803 C1816 0.960 . S
C1804 H1796 0.929 . S
C1804 C1805 1.377 . S
C1804 C1806 1.384 . S
C1805 C1804 1.377 . S
C1805 C1811 1.390 . S
C1806 H1797 0.930 . S
C1806 C1804 1.384 . S
C1806 C1807 1.372 . S
C1807 C1806 1.372 . S
C1807 C1808 1.400 . S
C1807 C1812 1.490 . S
C1808 H1798 0.930 . S
C1808 C1807 1.400 . S
C1808 C1811 1.386 . S
H1809 C1825 0.930 . S
H1810 C1826 0.931 . S
C1811 H1799 0.929 . S
C1811 C1805 1.390 . S
C1811 C1808 1.386 . S
C1812 C1807 1.490 . S
C1812 C1814 1.395 . S
C1812 C1815 1.403 . S
H1813 C1819 0.930 . S
C1814 H1800 0.930 . S
C1814 C1812 1.395 . S
C1814 C1817 1.403 . S
C1815 C1812 1.403 . S
C1815 C1816 1.524 . S
C1815 C1819 1.400 . S
C1816 H1801 0.960 . S
C1816 H1802 0.960 . S
C1816 H1803 0.960 . S
C1816 C1815 1.524 . S
C1817 C1814 1.403 . S
C1817 C1818 1.392 . S
C1817 C1821 1.495 . S
C1818 C1817 1.392 . S
C1818 C1819 1.385 . S
C1818 C1820 1.478 . S
C1819 H1813 0.930 . S
C1819 C1815 1.400 . S
C1819 C1818 1.385 . S
C1820 C1818 1.478 . S
C1820 C1822 1.381 . S
C1820 C1826 1.383 . S
C1821 C1817 1.495 . S
C1821 H1827 0.959 . S
C1821 H1828 0.961 . S
C1821 H1829 0.960 . S
C1822 C1820 1.381 . S
C1822 C1823 1.394 . S
C1822 H1830 0.930 . S
C1823 C1822 1.394 . S
C1823 C1824 1.383 . S
C1823 H1831 0.929 . S
C1824 C1823 1.383 . S
C1824 C1825 1.377 . S
C1825 H1809 0.930 . S
C1825 C1824 1.377 . S
C1825 C1826 1.379 . S
C1826 H1810 0.931 . S
C1826 C1820 1.383 . S
C1826 C1825 1.379 . S
H1827 C1821 0.959 . S
H1828 C1821 0.961 . S
H1829 C1821 0.960 . S
H1830 C1822 0.930 . S
H1831 C1823 0.929 . S
H1832 C1840 0.929 . S
H1833 C1842 0.930 . S
H1834 C1844 0.930 . S
H1835 C1847 0.929 . S
H1836 C1850 0.930 . S
H1837 C1852 0.960 . S
H1838 C1852 0.960 . S
H1839 C1852 0.960 . S
C1840 H1832 0.929 . S
C1840 C1841 1.377 . S
C1840 C1842 1.384 . S
C1841 C1840 1.377 . S
C1841 C1847 1.390 . S
C1842 H1833 0.930 . S
C1842 C1840 1.384 . S
C1842 C1843 1.372 . S
C1843 C1842 1.372 . S
C1843 C1844 1.400 . S
C1843 C1848 1.490 . S
C1844 H1834 0.930 . S
C1844 C1843 1.400 . S
C1844 C1847 1.386 . S
H1845 C1861 0.930 . S
H1846 C1862 0.931 . S
C1847 H1835 0.929 . S
C1847 C1841 1.390 . S
C1847 C1844 1.386 . S
C1848 C1843 1.490 . S
C1848 C1850 1.395 . S
C1848 C1851 1.403 . S
H1849 C1855 0.930 . S
C1850 H1836 0.930 . S
C1850 C1848 1.395 . S
C1850 C1853 1.403 . S
C1851 C1848 1.403 . S
C1851 C1852 1.524 . S
C1851 C1855 1.400 . S
C1852 H1837 0.960 . S
C1852 H1838 0.960 . S
C1852 H1839 0.960 . S
C1852 C1851 1.524 . S
C1853 C1850 1.403 . S
C1853 C1854 1.392 . S
C1853 C1857 1.495 . S
C1854 C1853 1.392 . S
C1854 C1855 1.385 . S
C1854 C1856 1.478 . S
C1855 H1849 0.930 . S
C1855 C1851 1.400 . S
C1855 C1854 1.385 . S
C1856 C1854 1.478 . S
C1856 C1858 1.381 . S
C1856 C1862 1.383 . S
C1857 C1853 1.495 . S
C1857 H1863 0.959 . S
C1857 H1864 0.961 . S
C1857 H1865 0.960 . S
C1858 C1856 1.381 . S
C1858 C1859 1.394 . S
C1858 H1866 0.930 . S
C1859 C1858 1.394 . S
C1859 C1860 1.383 . S
C1859 H1867 0.929 . S
C1860 C1859 1.383 . S
C1860 C1861 1.377 . S
C1861 H1845 0.930 . S
C1861 C1860 1.377 . S
C1861 C1862 1.379 . S
C1862 H1846 0.931 . S
C1862 C1856 1.383 . S
C1862 C1861 1.379 . S
H1863 C1857 0.959 . S
H1864 C1857 0.961 . S
H1865 C1857 0.960 . S
H1866 C1858 0.930 . S
H1867 C1859 0.929 . S
H1868 C1876 0.929 . S
H1869 C1878 0.930 . S
H1870 C1880 0.930 . S
H1871 C1883 0.929 . S
H1872 C1886 0.930 . S
H1873 C1888 0.960 . S
H1874 C1888 0.960 . S
H1875 C1888 0.960 . S
C1876 H1868 0.929 . S
C1876 C1877 1.377 . S
C1876 C1878 1.384 . S
C1877 C1876 1.377 . S
C1877 C1883 1.390 . S
C1878 H1869 0.930 . S
C1878 C1876 1.384 . S
C1878 C1879 1.372 . S
C1879 C1878 1.372 . S
C1879 C1880 1.400 . S
C1879 C1884 1.490 . S
C1880 H1870 0.930 . S
C1880 C1879 1.400 . S
C1880 C1883 1.386 . S
H1881 C1897 0.930 . S
H1882 C1898 0.931 . S
C1883 H1871 0.929 . S
C1883 C1877 1.390 . S
C1883 C1880 1.386 . S
C1884 C1879 1.490 . S
C1884 C1886 1.395 . S
C1884 C1887 1.403 . S
H1885 C1891 0.930 . S
C1886 H1872 0.930 . S
C1886 C1884 1.395 . S
C1886 C1889 1.403 . S
C1887 C1884 1.403 . S
C1887 C1888 1.524 . S
C1887 C1891 1.400 . S
C1888 H1873 0.960 . S
C1888 H1874 0.960 . S
C1888 H1875 0.960 . S
C1888 C1887 1.524 . S
C1889 C1886 1.403 . S
C1889 C1890 1.392 . S
C1889 C1893 1.495 . S
C1890 C1889 1.392 . S
C1890 C1891 1.385 . S
C1890 C1892 1.478 . S
C1891 H1885 0.930 . S
C1891 C1887 1.400 . S
C1891 C1890 1.385 . S
C1892 C1890 1.478 . S
C1892 C1894 1.381 . S
C1892 C1898 1.383 . S
C1893 C1889 1.495 . S
C1893 H1899 0.959 . S
C1893 H1900 0.961 . S
C1893 H1901 0.960 . S
C1894 C1892 1.381 . S
C1894 C1895 1.394 . S
C1894 H1902 0.930 . S
C1895 C1894 1.394 . S
C1895 C1896 1.383 . S
C1895 H1903 0.929 . S
C1896 C1895 1.383 . S
C1896 C1897 1.377 . S
C1897 H1881 0.930 . S
C1897 C1896 1.377 . S
C1897 C1898 1.379 . S
C1898 H1882 0.931 . S
C1898 C1892 1.383 . S
C1898 C1897 1.379 . S
H1899 C1893 0.959 . S
H1900 C1893 0.961 . S
H1901 C1893 0.960 . S
H1902 C1894 0.930 . S
H1903 C1895 0.929 . S
H1904 C1912 0.929 . S
H1905 C1914 0.930 . S
H1906 C1916 0.930 . S
H1907 C1919 0.929 . S
H1908 C1922 0.930 . S
H1909 C1924 0.960 . S
H1910 C1924 0.960 . S
H1911 C1924 0.960 . S
C1912 H1904 0.929 . S
C1912 C1913 1.377 . S
C1912 C1914 1.384 . S
C1913 C1912 1.377 . S
C1913 C1919 1.390 . S
C1914 H1905 0.930 . S
C1914 C1912 1.384 . S
C1914 C1915 1.372 . S
C1915 C1914 1.372 . S
C1915 C1916 1.400 . S
C1915 C1920 1.490 . S
C1916 H1906 0.930 . S
C1916 C1915 1.400 . S
C1916 C1919 1.386 . S
H1917 C1933 0.930 . S
H1918 C1934 0.931 . S
C1919 H1907 0.929 . S
C1919 C1913 1.390 . S
C1919 C1916 1.386 . S
C1920 C1915 1.490 . S
C1920 C1922 1.395 . S
C1920 C1923 1.403 . S
H1921 C1927 0.930 . S
C1922 H1908 0.930 . S
C1922 C1920 1.395 . S
C1922 C1925 1.403 . S
C1923 C1920 1.403 . S
C1923 C1924 1.524 . S
C1923 C1927 1.400 . S
C1924 H1909 0.960 . S
C1924 H1910 0.960 . S
C1924 H1911 0.960 . S
C1924 C1923 1.524 . S
C1925 C1922 1.403 . S
C1925 C1926 1.392 . S
C1925 C1929 1.495 . S
C1926 C1925 1.392 . S
C1926 C1927 1.385 . S
C1926 C1928 1.478 . S
C1927 H1921 0.930 . S
C1927 C1923 1.400 . S
C1927 C1926 1.385 . S
C1928 C1926 1.478 . S
C1928 C1930 1.381 . S
C1928 C1934 1.383 . S
C1929 C1925 1.495 . S
C1929 H1935 0.959 . S
C1929 H1936 0.961 . S
C1929 H1937 0.960 . S
C1930 C1928 1.381 . S
C1930 C1931 1.394 . S
C1930 H1938 0.930 . S
C1931 C1930 1.394 . S
C1931 C1932 1.383 . S
C1931 H1939 0.929 . S
C1932 C1931 1.383 . S
C1932 C1933 1.377 . S
C1933 H1917 0.930 . S
C1933 C1932 1.377 . S
C1933 C1934 1.379 . S
C1934 H1918 0.931 . S
C1934 C1928 1.383 . S
C1934 C1933 1.379 . S
H1935 C1929 0.959 . S
H1936 C1929 0.961 . S
H1937 C1929 0.960 . S
H1938 C1930 0.930 . S
H1939 C1931 0.929 . S
H1940 C1948 0.929 . S
H1941 C1950 0.930 . S
H1942 C1952 0.930 . S
H1943 C1955 0.929 . S
H1944 C1958 0.930 . S
H1945 C1960 0.960 . S
H1946 C1960 0.960 . S
H1947 C1960 0.960 . S
C1948 H1940 0.929 . S
C1948 C1949 1.377 . S
C1948 C1950 1.384 . S
C1949 C1948 1.377 . S
C1949 C1955 1.390 . S
C1950 H1941 0.930 . S
C1950 C1948 1.384 . S
C1950 C1951 1.372 . S
C1951 C1950 1.372 . S
C1951 C1952 1.400 . S
C1951 C1956 1.490 . S
C1952 H1942 0.930 . S
C1952 C1951 1.400 . S
C1952 C1955 1.386 . S
H1953 C1969 0.930 . S
H1954 C1970 0.931 . S
C1955 H1943 0.929 . S
C1955 C1949 1.390 . S
C1955 C1952 1.386 . S
C1956 C1951 1.490 . S
C1956 C1958 1.395 . S
C1956 C1959 1.403 . S
H1957 C1963 0.930 . S
C1958 H1944 0.930 . S
C1958 C1956 1.395 . S
C1958 C1961 1.403 . S
C1959 C1956 1.403 . S
C1959 C1960 1.524 . S
C1959 C1963 1.400 . S
C1960 H1945 0.960 . S
C1960 H1946 0.960 . S
C1960 H1947 0.960 . S
C1960 C1959 1.524 . S
C1961 C1958 1.403 . S
C1961 C1962 1.392 . S
C1961 C1965 1.495 . S
C1962 C1961 1.392 . S
C1962 C1963 1.385 . S
C1962 C1964 1.478 . S
C1963 H1957 0.930 . S
C1963 C1959 1.400 . S
C1963 C1962 1.385 . S
C1964 C1962 1.478 . S
C1964 C1966 1.381 . S
C1964 C1970 1.383 . S
C1965 C1961 1.495 . S
C1965 H1971 0.959 . S
C1965 H1972 0.961 . S
C1965 H1973 0.960 . S
C1966 C1964 1.381 . S
C1966 C1967 1.394 . S
C1966 H1974 0.930 . S
C1967 C1966 1.394 . S
C1967 C1968 1.383 . S
C1967 H1975 0.929 . S
C1968 C1967 1.383 . S
C1968 C1969 1.377 . S
C1969 H1953 0.930 . S
C1969 C1968 1.377 . S
C1969 C1970 1.379 . S
C1970 H1954 0.931 . S
C1970 C1964 1.383 . S
C1970 C1969 1.379 . S
H1971 C1965 0.959 . S
H1972 C1965 0.961 . S
H1973 C1965 0.960 . S
H1974 C1966 0.930 . S
H1975 C1967 0.929 . S
H1976 C1984 0.929 . S
H1977 C1986 0.930 . S
H1978 C1988 0.930 . S
H1979 C1991 0.929 . S
H1980 C1994 0.930 . S
H1981 C1996 0.960 . S
H1982 C1996 0.960 . S
H1983 C1996 0.960 . S
C1984 H1976 0.929 . S
C1984 C1985 1.377 . S
C1984 C1986 1.384 . S
C1985 C1984 1.377 . S
C1985 C1991 1.390 . S
C1986 H1977 0.930 . S
C1986 C1984 1.384 . S
C1986 C1987 1.372 . S
C1987 C1986 1.372 . S
C1987 C1988 1.400 . S
C1987 C1992 1.490 . S
C1988 H1978 0.930 . S
C1988 C1987 1.400 . S
C1988 C1991 1.386 . S
H1989 C2005 0.930 . S
H1990 C2006 0.931 . S
C1991 H1979 0.929 . S
C1991 C1985 1.390 . S
C1991 C1988 1.386 . S
C1992 C1987 1.490 . S
C1992 C1994 1.395 . S
C1992 C1995 1.403 . S
H1993 C1999 0.930 . S
C1994 H1980 0.930 . S
C1994 C1992 1.395 . S
C1994 C1997 1.403 . S
C1995 C1992 1.403 . S
C1995 C1996 1.524 . S
C1995 C1999 1.400 . S
C1996 H1981 0.960 . S
C1996 H1982 0.960 . S
C1996 H1983 0.960 . S
C1996 C1995 1.524 . S
C1997 C1994 1.403 . S
C1997 C1998 1.392 . S
C1997 C2001 1.495 . S
C1998 C1997 1.392 . S
C1998 C1999 1.385 . S
C1998 C2000 1.478 . S
C1999 H1993 0.930 . S
C1999 C1995 1.400 . S
C1999 C1998 1.385 . S
C2000 C1998 1.478 . S
C2000 C2002 1.381 . S
C2000 C2006 1.383 . S
C2001 C1997 1.495 . S
C2001 H2007 0.959 . S
C2001 H2008 0.961 . S
C2001 H2009 0.960 . S
C2002 C2000 1.381 . S
C2002 C2003 1.394 . S
C2002 H2010 0.930 . S
C2003 C2002 1.394 . S
C2003 C2004 1.383 . S
C2003 H2011 0.929 . S
C2004 C2003 1.383 . S
C2004 C2005 1.377 . S
C2005 H1989 0.930 . S
C2005 C2004 1.377 . S
C2005 C2006 1.379 . S
C2006 H1990 0.931 . S
C2006 C2000 1.383 . S
C2006 C2005 1.379 . S
H2007 C2001 0.959 . S
H2008 C2001 0.961 . S
H2009 C2001 0.960 . S
H2010 C2002 0.930 . S
H2011 C2003 0.929 . S
H2012 C2020 0.929 . S
H2013 C2022 0.930 . S
H2014 C2024 0.930 . S
H2015 C2027 0.929 . S
H2016 C2030 0.930 . S
H2017 C2032 0.960 . S
H2018 C2032 0.960 . S
H2019 C2032 0.960 . S
C2020 H2012 0.929 . S
C2020 C2021 1.377 . S
C2020 C2022 1.384 . S
C2021 C2020 1.377 . S
C2021 C2027 1.390 . S
C2022 H2013 0.930 . S
C2022 C2020 1.384 . S
C2022 C2023 1.372 . S
C2023 C2022 1.372 . S
C2023 C2024 1.400 . S
C2023 C2028 1.490 . S
C2024 H2014 0.930 . S
C2024 C2023 1.400 . S
C2024 C2027 1.386 . S
H2025 C2041 0.930 . S
H2026 C2042 0.931 . S
C2027 H2015 0.929 . S
C2027 C2021 1.390 . S
C2027 C2024 1.386 . S
C2028 C2023 1.490 . S
C2028 C2030 1.395 . S
C2028 C2031 1.403 . S
H2029 C2035 0.930 . S
C2030 H2016 0.930 . S
C2030 C2028 1.395 . S
C2030 C2033 1.403 . S
C2031 C2028 1.403 . S
C2031 C2032 1.524 . S
C2031 C2035 1.400 . S
C2032 H2017 0.960 . S
C2032 H2018 0.960 . S
C2032 H2019 0.960 . S
C2032 C2031 1.524 . S
C2033 C2030 1.403 . S
C2033 C2034 1.392 . S
C2033 C2037 1.495 . S
C2034 C2033 1.392 . S
C2034 C2035 1.385 . S
C2034 C2036 1.478 . S
C2035 H2029 0.930 . S
C2035 C2031 1.400 . S
C2035 C2034 1.385 . S
C2036 C2034 1.478 . S
C2036 C2038 1.381 . S
C2036 C2042 1.383 . S
C2037 C2033 1.495 . S
C2037 H2043 0.959 . S
C2037 H2044 0.961 . S
C2037 H2045 0.960 . S
C2038 C2036 1.381 . S
C2038 C2039 1.394 . S
C2038 H2046 0.930 . S
C2039 C2038 1.394 . S
C2039 C2040 1.383 . S
C2039 H2047 0.929 . S
C2040 C2039 1.383 . S
C2040 C2041 1.377 . S
C2041 H2025 0.930 . S
C2041 C2040 1.377 . S
C2041 C2042 1.379 . S
C2042 H2026 0.931 . S
C2042 C2036 1.383 . S
C2042 C2041 1.379 . S
H2043 C2037 0.959 . S
H2044 C2037 0.961 . S
H2045 C2037 0.960 . S
H2046 C2038 0.930 . S
H2047 C2039 0.929 . S
H2048 C2056 0.929 . S
H2049 C2058 0.930 . S
H2050 C2060 0.930 . S
H2051 C2063 0.929 . S
H2052 C2066 0.930 . S
H2053 C2068 0.960 . S
H2054 C2068 0.960 . S
H2055 C2068 0.960 . S
C2056 H2048 0.929 . S
C2056 C2057 1.377 . S
C2056 C2058 1.384 . S
C2057 C2056 1.377 . S
C2057 C2063 1.390 . S
C2058 H2049 0.930 . S
C2058 C2056 1.384 . S
C2058 C2059 1.372 . S
C2059 C2058 1.372 . S
C2059 C2060 1.400 . S
C2059 C2064 1.490 . S
C2060 H2050 0.930 . S
C2060 C2059 1.400 . S
C2060 C2063 1.386 . S
H2061 C2077 0.930 . S
H2062 C2078 0.931 . S
C2063 H2051 0.929 . S
C2063 C2057 1.390 . S
C2063 C2060 1.386 . S
C2064 C2059 1.490 . S
C2064 C2066 1.395 . S
C2064 C2067 1.403 . S
H2065 C2071 0.930 . S
C2066 H2052 0.930 . S
C2066 C2064 1.395 . S
C2066 C2069 1.403 . S
C2067 C2064 1.403 . S
C2067 C2068 1.524 . S
C2067 C2071 1.400 . S
C2068 H2053 0.960 . S
C2068 H2054 0.960 . S
C2068 H2055 0.960 . S
C2068 C2067 1.524 . S
C2069 C2066 1.403 . S
C2069 C2070 1.392 . S
C2069 C2073 1.495 . S
C2070 C2069 1.392 . S
C2070 C2071 1.385 . S
C2070 C2072 1.478 . S
C2071 H2065 0.930 . S
C2071 C2067 1.400 . S
C2071 C2070 1.385 . S
C2072 C2070 1.478 . S
C2072 C2074 1.381 . S
C2072 C2078 1.383 . S
C2073 C2069 1.495 . S
C2073 H2079 0.959 . S
C2073 H2080 0.961 . S
C2073 H2081 0.960 . S
C2074 C2072 1.381 . S
C2074 C2075 1.394 . S
C2074 H2082 0.930 . S
C2075 C2074 1.394 . S
C2075 C2076 1.383 . S
C2075 H2083 0.929 . S
C2076 C2075 1.383 . S
C2076 C2077 1.377 . S
C2077 H2061 0.930 . S
C2077 C2076 1.377 . S
C2077 C2078 1.379 . S
C2078 H2062 0.931 . S
C2078 C2072 1.383 . S
C2078 C2077 1.379 . S
H2079 C2073 0.959 . S
H2080 C2073 0.961 . S
H2081 C2073 0.960 . S
H2082 C2074 0.930 . S
H2083 C2075 0.929 . S
H2084 C2092 0.929 . S
H2085 C2094 0.930 . S
H2086 C2096 0.930 . S
H2087 C2099 0.929 . S
H2088 C2102 0.930 . S
H2089 C2104 0.960 . S
H2090 C2104 0.960 . S
H2091 C2104 0.960 . S
C2092 H2084 0.929 . S
C2092 C2093 1.377 . S
C2092 C2094 1.384 . S
C2093 C2092 1.377 . S
C2093 C2099 1.390 . S
C2094 H2085 0.930 . S
C2094 C2092 1.384 . S
C2094 C2095 1.372 . S
C2095 C2094 1.372 . S
C2095 C2096 1.400 . S
C2095 C2100 1.490 . S
C2096 H2086 0.930 . S
C2096 C2095 1.400 . S
C2096 C2099 1.386 . S
H2097 C2113 0.930 . S
H2098 C2114 0.931 . S
C2099 H2087 0.929 . S
C2099 C2093 1.390 . S
C2099 C2096 1.386 . S
C2100 C2095 1.490 . S
C2100 C2102 1.395 . S
C2100 C2103 1.403 . S
H2101 C2107 0.930 . S
C2102 H2088 0.930 . S
C2102 C2100 1.395 . S
C2102 C2105 1.403 . S
C2103 C2100 1.403 . S
C2103 C2104 1.524 . S
C2103 C2107 1.400 . S
C2104 H2089 0.960 . S
C2104 H2090 0.960 . S
C2104 H2091 0.960 . S
C2104 C2103 1.524 . S
C2105 C2102 1.403 . S
C2105 C2106 1.392 . S
C2105 C2109 1.495 . S
C2106 C2105 1.392 . S
C2106 C2107 1.385 . S
C2106 C2108 1.478 . S
C2107 H2101 0.930 . S
C2107 C2103 1.400 . S
C2107 C2106 1.385 . S
C2108 C2106 1.478 . S
C2108 C2110 1.381 . S
C2108 C2114 1.383 . S
C2109 C2105 1.495 . S
C2109 H2115 0.959 . S
C2109 H2116 0.961 . S
C2109 H2117 0.960 . S
C2110 C2108 1.381 . S
C2110 C2111 1.394 . S
C2110 H2118 0.930 . S
C2111 C2110 1.394 . S
C2111 C2112 1.383 . S
C2111 H2119 0.929 . S
C2112 C2111 1.383 . S
C2112 C2113 1.377 . S
C2113 H2097 0.930 . S
C2113 C2112 1.377 . S
C2113 C2114 1.379 . S
C2114 H2098 0.931 . S
C2114 C2108 1.383 . S
C2114 C2113 1.379 . S
H2115 C2109 0.959 . S
H2116 C2109 0.961 . S
H2117 C2109 0.960 . S
H2118 C2110 0.930 . S
H2119 C2111 0.929 . S
H2120 C2128 0.929 . S
H2121 C2130 0.930 . S
H2122 C2132 0.930 . S
H2123 C2135 0.929 . S
H2124 C2138 0.930 . S
H2125 C2140 0.960 . S
H2126 C2140 0.960 . S
H2127 C2140 0.960 . S
C2128 H2120 0.929 . S
C2128 C2129 1.377 . S
C2128 C2130 1.384 . S
C2129 C2128 1.377 . S
C2129 C2135 1.390 . S
C2130 H2121 0.930 . S
C2130 C2128 1.384 . S
C2130 C2131 1.372 . S
C2131 C2130 1.372 . S
C2131 C2132 1.400 . S
C2131 C2136 1.490 . S
C2132 H2122 0.930 . S
C2132 C2131 1.400 . S
C2132 C2135 1.386 . S
H2133 C2149 0.930 . S
H2134 C2150 0.931 . S
C2135 H2123 0.929 . S
C2135 C2129 1.390 . S
C2135 C2132 1.386 . S
C2136 C2131 1.490 . S
C2136 C2138 1.395 . S
C2136 C2139 1.403 . S
H2137 C2143 0.930 . S
C2138 H2124 0.930 . S
C2138 C2136 1.395 . S
C2138 C2141 1.403 . S
C2139 C2136 1.403 . S
C2139 C2140 1.524 . S
C2139 C2143 1.400 . S
C2140 H2125 0.960 . S
C2140 H2126 0.960 . S
C2140 H2127 0.960 . S
C2140 C2139 1.524 . S
C2141 C2138 1.403 . S
C2141 C2142 1.392 . S
C2141 C2145 1.495 . S
C2142 C2141 1.392 . S
C2142 C2143 1.385 . S
C2142 C2144 1.478 . S
C2143 H2137 0.930 . S
C2143 C2139 1.400 . S
C2143 C2142 1.385 . S
C2144 C2142 1.478 . S
C2144 C2146 1.381 . S
C2144 C2150 1.383 . S
C2145 C2141 1.495 . S
C2145 H2151 0.959 . S
C2145 H2152 0.961 . S
C2145 H2153 0.960 . S
C2146 C2144 1.381 . S
C2146 C2147 1.394 . S
C2146 H2154 0.930 . S
C2147 C2146 1.394 . S
C2147 C2148 1.383 . S
C2147 H2155 0.929 . S
C2148 C2147 1.383 . S
C2148 C2149 1.377 . S
C2149 H2133 0.930 . S
C2149 C2148 1.377 . S
C2149 C2150 1.379 . S
C2150 H2134 0.931 . S
C2150 C2144 1.383 . S
C2150 C2149 1.379 . S
H2151 C2145 0.959 . S
H2152 C2145 0.961 . S
H2153 C2145 0.960 . S
H2154 C2146 0.930 . S
H2155 C2147 0.929 . S
H2156 C2164 0.929 . S
H2157 C2166 0.930 . S
H2158 C2168 0.930 . S
H2159 C2171 0.929 . S
H2160 C2174 0.930 . S
H2161 C2176 0.960 . S
H2162 C2176 0.960 . S
H2163 C2176 0.960 . S
C2164 H2156 0.929 . S
C2164 C2165 1.377 . S
C2164 C2166 1.384 . S
C2165 C2164 1.377 . S
C2165 C2171 1.390 . S
C2166 H2157 0.930 . S
C2166 C2164 1.384 . S
C2166 C2167 1.372 . S
C2167 C2166 1.372 . S
C2167 C2168 1.400 . S
C2167 C2172 1.490 . S
C2168 H2158 0.930 . S
C2168 C2167 1.400 . S
C2168 C2171 1.386 . S
H2169 C2185 0.930 . S
H2170 C2186 0.931 . S
C2171 H2159 0.929 . S
C2171 C2165 1.390 . S
C2171 C2168 1.386 . S
C2172 C2167 1.490 . S
C2172 C2174 1.395 . S
C2172 C2175 1.403 . S
H2173 C2179 0.930 . S
C2174 H2160 0.930 . S
C2174 C2172 1.395 . S
C2174 C2177 1.403 . S
C2175 C2172 1.403 . S
C2175 C2176 1.524 . S
C2175 C2179 1.400 . S
C2176 H2161 0.960 . S
C2176 H2162 0.960 . S
C2176 H2163 0.960 . S
C2176 C2175 1.524 . S
C2177 C2174 1.403 . S
C2177 C2178 1.392 . S
C2177 C2181 1.495 . S
C2178 C2177 1.392 . S
C2178 C2179 1.385 . S
C2178 C2180 1.478 . S
C2179 H2173 0.930 . S
C2179 C2175 1.400 . S
C2179 C2178 1.385 . S
C2180 C2178 1.478 . S
C2180 C2182 1.381 . S
C2180 C2186 1.383 . S
C2181 C2177 1.495 . S
C2181 H2187 0.959 . S
C2181 H2188 0.961 . S
C2181 H2189 0.960 . S
C2182 C2180 1.381 . S
C2182 C2183 1.394 . S
C2182 H2190 0.930 . S
C2183 C2182 1.394 . S
C2183 C2184 1.383 . S
C2183 H2191 0.929 . S
C2184 C2183 1.383 . S
C2184 C2185 1.377 . S
C2185 H2169 0.930 . S
C2185 C2184 1.377 . S
C2185 C2186 1.379 . S
C2186 H2170 0.931 . S
C2186 C2180 1.383 . S
C2186 C2185 1.379 . S
H2187 C2181 0.959 . S
H2188 C2181 0.961 . S
H2189 C2181 0.960 . S
H2190 C2182 0.930 . S
H2191 C2183 0.929 . S
H2192 C2200 0.929 . S
H2193 C2202 0.930 . S
H2194 C2204 0.930 . S
H2195 C2207 0.929 . S
H2196 C2210 0.930 . S
H2197 C2212 0.960 . S
H2198 C2212 0.960 . S
H2199 C2212 0.960 . S
C2200 H2192 0.929 . S
C2200 C2201 1.377 . S
C2200 C2202 1.384 . S
C2201 C2200 1.377 . S
C2201 C2207 1.390 . S
C2202 H2193 0.930 . S
C2202 C2200 1.384 . S
C2202 C2203 1.372 . S
C2203 C2202 1.372 . S
C2203 C2204 1.400 . S
C2203 C2208 1.490 . S
C2204 H2194 0.930 . S
C2204 C2203 1.400 . S
C2204 C2207 1.386 . S
H2205 C2221 0.930 . S
H2206 C2222 0.931 . S
C2207 H2195 0.929 . S
C2207 C2201 1.390 . S
C2207 C2204 1.386 . S
C2208 C2203 1.490 . S
C2208 C2210 1.395 . S
C2208 C2211 1.403 . S
H2209 C2215 0.930 . S
C2210 H2196 0.930 . S
C2210 C2208 1.395 . S
C2210 C2213 1.403 . S
C2211 C2208 1.403 . S
C2211 C2212 1.524 . S
C2211 C2215 1.400 . S
C2212 H2197 0.960 . S
C2212 H2198 0.960 . S
C2212 H2199 0.960 . S
C2212 C2211 1.524 . S
C2213 C2210 1.403 . S
C2213 C2214 1.392 . S
C2213 C2217 1.495 . S
C2214 C2213 1.392 . S
C2214 C2215 1.385 . S
C2214 C2216 1.478 . S
C2215 H2209 0.930 . S
C2215 C2211 1.400 . S
C2215 C2214 1.385 . S
C2216 C2214 1.478 . S
C2216 C2218 1.381 . S
C2216 C2222 1.383 . S
C2217 C2213 1.495 . S
C2217 H2223 0.959 . S
C2217 H2224 0.961 . S
C2217 H2225 0.960 . S
C2218 C2216 1.381 . S
C2218 C2219 1.394 . S
C2218 H2226 0.930 . S
C2219 C2218 1.394 . S
C2219 C2220 1.383 . S
C2219 H2227 0.929 . S
C2220 C2219 1.383 . S
C2220 C2221 1.377 . S
C2221 H2205 0.930 . S
C2221 C2220 1.377 . S
C2221 C2222 1.379 . S
C2222 H2206 0.931 . S
C2222 C2216 1.383 . S
C2222 C2221 1.379 . S
H2223 C2217 0.959 . S
H2224 C2217 0.961 . S
H2225 C2217 0.960 . S
H2226 C2218 0.930 . S
H2227 C2219 0.929 . S
H2228 C2236 0.929 . S
H2229 C2238 0.930 . S
H2230 C2240 0.930 . S
H2231 C2243 0.929 . S
H2232 C2246 0.930 . S
H2233 C2248 0.960 . S
H2234 C2248 0.960 . S
H2235 C2248 0.960 . S
C2236 H2228 0.929 . S
C2236 C2237 1.377 . S
C2236 C2238 1.384 . S
C2237 C2236 1.377 . S
C2237 C2243 1.390 . S
C2238 H2229 0.930 . S
C2238 C2236 1.384 . S
C2238 C2239 1.372 . S
C2239 C2238 1.372 . S
C2239 C2240 1.400 . S
C2239 C2244 1.490 . S
C2240 H2230 0.930 . S
C2240 C2239 1.400 . S
C2240 C2243 1.386 . S
H2241 C2257 0.930 . S
H2242 C2258 0.931 . S
C2243 H2231 0.929 . S
C2243 C2237 1.390 . S
C2243 C2240 1.386 . S
C2244 C2239 1.490 . S
C2244 C2246 1.395 . S
C2244 C2247 1.403 . S
H2245 C2251 0.930 . S
C2246 H2232 0.930 . S
C2246 C2244 1.395 . S
C2246 C2249 1.403 . S
C2247 C2244 1.403 . S
C2247 C2248 1.524 . S
C2247 C2251 1.400 . S
C2248 H2233 0.960 . S
C2248 H2234 0.960 . S
C2248 H2235 0.960 . S
C2248 C2247 1.524 . S
C2249 C2246 1.403 . S
C2249 C2250 1.392 . S
C2249 C2253 1.495 . S
C2250 C2249 1.392 . S
C2250 C2251 1.385 . S
C2250 C2252 1.478 . S
C2251 H2245 0.930 . S
C2251 C2247 1.400 . S
C2251 C2250 1.385 . S
C2252 C2250 1.478 . S
C2252 C2254 1.381 . S
C2252 C2258 1.383 . S
C2253 C2249 1.495 . S
C2253 H2259 0.959 . S
C2253 H2260 0.961 . S
C2253 H2261 0.960 . S
C2254 C2252 1.381 . S
C2254 C2255 1.394 . S
C2254 H2262 0.930 . S
C2255 C2254 1.394 . S
C2255 C2256 1.383 . S
C2255 H2263 0.929 . S
C2256 C2255 1.383 . S
C2256 C2257 1.377 . S
C2257 H2241 0.930 . S
C2257 C2256 1.377 . S
C2257 C2258 1.379 . S
C2258 H2242 0.931 . S
C2258 C2252 1.383 . S
C2258 C2257 1.379 . S
H2259 C2253 0.959 . S
H2260 C2253 0.961 . S
H2261 C2253 0.960 . S
H2262 C2254 0.930 . S
H2263 C2255 0.929 . S
H2264 C2272 0.929 . S
H2265 C2274 0.930 . S
H2266 C2276 0.930 . S
H2267 C2279 0.929 . S
H2268 C2282 0.930 . S
H2269 C2284 0.960 . S
H2270 C2284 0.960 . S
H2271 C2284 0.960 . S
C2272 H2264 0.929 . S
C2272 C2273 1.377 . S
C2272 C2274 1.384 . S
C2273 C2272 1.377 . S
C2273 C2279 1.390 . S
C2274 H2265 0.930 . S
C2274 C2272 1.384 . S
C2274 C2275 1.372 . S
C2275 C2274 1.372 . S
C2275 C2276 1.400 . S
C2275 C2280 1.490 . S
C2276 H2266 0.930 . S
C2276 C2275 1.400 . S
C2276 C2279 1.386 . S
H2277 C2293 0.930 . S
H2278 C2294 0.931 . S
C2279 H2267 0.929 . S
C2279 C2273 1.390 . S
C2279 C2276 1.386 . S
C2280 C2275 1.490 . S
C2280 C2282 1.395 . S
C2280 C2283 1.403 . S
H2281 C2287 0.930 . S
C2282 H2268 0.930 . S
C2282 C2280 1.395 . S
C2282 C2285 1.403 . S
C2283 C2280 1.403 . S
C2283 C2284 1.524 . S
C2283 C2287 1.400 . S
C2284 H2269 0.960 . S
C2284 H2270 0.960 . S
C2284 H2271 0.960 . S
C2284 C2283 1.524 . S
C2285 C2282 1.403 . S
C2285 C2286 1.392 . S
C2285 C2289 1.495 . S
C2286 C2285 1.392 . S
C2286 C2287 1.385 . S
C2286 C2288 1.478 . S
C2287 H2281 0.930 . S
C2287 C2283 1.400 . S
C2287 C2286 1.385 . S
C2288 C2286 1.478 . S
C2288 C2290 1.381 . S
C2288 C2294 1.383 . S
C2289 C2285 1.495 . S
C2289 H2295 0.959 . S
C2289 H2296 0.961 . S
C2289 H2297 0.960 . S
C2290 C2288 1.381 . S
C2290 C2291 1.394 . S
C2290 H2298 0.930 . S
C2291 C2290 1.394 . S
C2291 C2292 1.383 . S
C2291 H2299 0.929 . S
C2292 C2291 1.383 . S
C2292 C2293 1.377 . S
C2293 H2277 0.930 . S
C2293 C2292 1.377 . S
C2293 C2294 1.379 . S
C2294 H2278 0.931 . S
C2294 C2288 1.383 . S
C2294 C2293 1.379 . S
H2295 C2289 0.959 . S
H2296 C2289 0.961 . S
H2297 C2289 0.960 . S
H2298 C2290 0.930 . S
H2299 C2291 0.929 . S
H2300 C2308 0.929 . S
H2301 C2310 0.930 . S
H2302 C2312 0.930 . S
H2303 C2315 0.929 . S
H2304 C2318 0.930 . S
H2305 C2320 0.960 . S
H2306 C2320 0.960 . S
H2307 C2320 0.960 . S
C2308 H2300 0.929 . S
C2308 C2309 1.377 . S
C2308 C2310 1.384 . S
C2309 C2308 1.377 . S
C2309 C2315 1.390 . S
C2310 H2301 0.930 . S
C2310 C2308 1.384 . S
C2310 C2311 1.372 . S
C2311 C2310 1.372 . S
C2311 C2312 1.400 . S
C2311 C2316 1.490 . S
C2312 H2302 0.930 . S
C2312 C2311 1.400 . S
C2312 C2315 1.386 . S
H2313 C2329 0.930 . S
H2314 C2330 0.931 . S
C2315 H2303 0.929 . S
C2315 C2309 1.390 . S
C2315 C2312 1.386 . S
C2316 C2311 1.490 . S
C2316 C2318 1.395 . S
C2316 C2319 1.403 . S
H2317 C2323 0.930 . S
C2318 H2304 0.930 . S
C2318 C2316 1.395 . S
C2318 C2321 1.403 . S
C2319 C2316 1.403 . S
C2319 C2320 1.524 . S
C2319 C2323 1.400 . S
C2320 H2305 0.960 . S
C2320 H2306 0.960 . S
C2320 H2307 0.960 . S
C2320 C2319 1.524 . S
C2321 C2318 1.403 . S
C2321 C2322 1.392 . S
C2321 C2325 1.495 . S
C2322 C2321 1.392 . S
C2322 C2323 1.385 . S
C2322 C2324 1.478 . S
C2323 H2317 0.930 . S
C2323 C2319 1.400 . S
C2323 C2322 1.385 . S
C2324 C2322 1.478 . S
C2324 C2326 1.381 . S
C2324 C2330 1.383 . S
C2325 C2321 1.495 . S
C2325 H2331 0.959 . S
C2325 H2332 0.961 . S
C2325 H2333 0.960 . S
C2326 C2324 1.381 . S
C2326 C2327 1.394 . S
C2326 H2334 0.930 . S
C2327 C2326 1.394 . S
C2327 C2328 1.383 . S
C2327 H2335 0.929 . S
C2328 C2327 1.383 . S
C2328 C2329 1.377 . S
C2329 H2313 0.930 . S
C2329 C2328 1.377 . S
C2329 C2330 1.379 . S
C2330 H2314 0.931 . S
C2330 C2324 1.383 . S
C2330 C2329 1.379 . S
H2331 C2325 0.959 . S
H2332 C2325 0.961 . S
H2333 C2325 0.960 . S
H2334 C2326 0.930 . S
H2335 C2327 0.929 . S
H2336 C2344 0.929 . S
H2337 C2346 0.930 . S
H2338 C2348 0.930 . S
H2339 C2351 0.929 . S
H2340 C2354 0.930 . S
H2341 C2356 0.960 . S
H2342 C2356 0.960 . S
H2343 C2356 0.960 . S
C2344 H2336 0.929 . S
C2344 C2345 1.377 . S
C2344 C2346 1.384 . S
C2345 C2344 1.377 . S
C2345 C2351 1.390 . S
C2346 H2337 0.930 . S
C2346 C2344 1.384 . S
C2346 C2347 1.372 . S
C2347 C2346 1.372 . S
C2347 C2348 1.400 . S
C2347 C2352 1.490 . S
C2348 H2338 0.930 . S
C2348 C2347 1.400 . S
C2348 C2351 1.386 . S
H2349 C2365 0.930 . S
H2350 C2366 0.931 . S
C2351 H2339 0.929 . S
C2351 C2345 1.390 . S
C2351 C2348 1.386 . S
C2352 C2347 1.490 . S
C2352 C2354 1.395 . S
C2352 C2355 1.403 . S
H2353 C2359 0.930 . S
C2354 H2340 0.930 . S
C2354 C2352 1.395 . S
C2354 C2357 1.403 . S
C2355 C2352 1.403 . S
C2355 C2356 1.524 . S
C2355 C2359 1.400 . S
C2356 H2341 0.960 . S
C2356 H2342 0.960 . S
C2356 H2343 0.960 . S
C2356 C2355 1.524 . S
C2357 C2354 1.403 . S
C2357 C2358 1.392 . S
C2357 C2361 1.495 . S
C2358 C2357 1.392 . S
C2358 C2359 1.385 . S
C2358 C2360 1.478 . S
C2359 H2353 0.930 . S
C2359 C2355 1.400 . S
C2359 C2358 1.385 . S
C2360 C2358 1.478 . S
C2360 C2362 1.381 . S
C2360 C2366 1.383 . S
C2361 C2357 1.495 . S
C2361 H2367 0.959 . S
C2361 H2368 0.961 . S
C2361 H2369 0.960 . S
C2362 C2360 1.381 . S
C2362 C2363 1.394 . S
C2362 H2370 0.930 . S
C2363 C2362 1.394 . S
C2363 C2364 1.383 . S
C2363 H2371 0.929 . S
C2364 C2363 1.383 . S
C2364 C2365 1.377 . S
C2365 H2349 0.930 . S
C2365 C2364 1.377 . S
C2365 C2366 1.379 . S
C2366 H2350 0.931 . S
C2366 C2360 1.383 . S
C2366 C2365 1.379 . S
H2367 C2361 0.959 . S
H2368 C2361 0.961 . S
H2369 C2361 0.960 . S
H2370 C2362 0.930 . S
H2371 C2363 0.929 . S
H2372 C2380 0.929 . S
H2373 C2382 0.930 . S
H2374 C2384 0.930 . S
H2375 C2387 0.929 . S
H2376 C2390 0.930 . S
H2377 C2392 0.960 . S
H2378 C2392 0.960 . S
H2379 C2392 0.960 . S
C2380 H2372 0.929 . S
C2380 C2381 1.377 . S
C2380 C2382 1.384 . S
C2381 C2380 1.377 . S
C2381 C2387 1.390 . S
C2382 H2373 0.930 . S
C2382 C2380 1.384 . S
C2382 C2383 1.372 . S
C2383 C2382 1.372 . S
C2383 C2384 1.400 . S
C2383 C2388 1.490 . S
C2384 H2374 0.930 . S
C2384 C2383 1.400 . S
C2384 C2387 1.386 . S
H2385 C2401 0.930 . S
H2386 C2402 0.931 . S
C2387 H2375 0.929 . S
C2387 C2381 1.390 . S
C2387 C2384 1.386 . S
C2388 C2383 1.490 . S
C2388 C2390 1.395 . S
C2388 C2391 1.403 . S
H2389 C2395 0.930 . S
C2390 H2376 0.930 . S
C2390 C2388 1.395 . S
C2390 C2393 1.403 . S
C2391 C2388 1.403 . S
C2391 C2392 1.524 . S
C2391 C2395 1.400 . S
C2392 H2377 0.960 . S
C2392 H2378 0.960 . S
C2392 H2379 0.960 . S
C2392 C2391 1.524 . S
C2393 C2390 1.403 . S
C2393 C2394 1.392 . S
C2393 C2397 1.495 . S
C2394 C2393 1.392 . S
C2394 C2395 1.385 . S
C2394 C2396 1.478 . S
C2395 H2389 0.930 . S
C2395 C2391 1.400 . S
C2395 C2394 1.385 . S
C2396 C2394 1.478 . S
C2396 C2398 1.381 . S
C2396 C2402 1.383 . S
C2397 C2393 1.495 . S
C2397 H2403 0.959 . S
C2397 H2404 0.961 . S
C2397 H2405 0.960 . S
C2398 C2396 1.381 . S
C2398 C2399 1.394 . S
C2398 H2406 0.930 . S
C2399 C2398 1.394 . S
C2399 C2400 1.383 . S
C2399 H2407 0.929 . S
C2400 C2399 1.383 . S
C2400 C2401 1.377 . S
C2401 H2385 0.930 . S
C2401 C2400 1.377 . S
C2401 C2402 1.379 . S
C2402 H2386 0.931 . S
C2402 C2396 1.383 . S
C2402 C2401 1.379 . S
H2403 C2397 0.959 . S
H2404 C2397 0.961 . S
H2405 C2397 0.960 . S
H2406 C2398 0.930 . S
H2407 C2399 0.929 . S
H2408 C2416 0.929 . S
H2409 C2418 0.930 . S
H2410 C2420 0.930 . S
H2411 C2423 0.929 . S
H2412 C2426 0.930 . S
H2413 C2428 0.960 . S
H2414 C2428 0.960 . S
H2415 C2428 0.960 . S
C2416 H2408 0.929 . S
C2416 C2417 1.377 . S
C2416 C2418 1.384 . S
C2417 C2416 1.377 . S
C2417 C2423 1.390 . S
C2418 H2409 0.930 . S
C2418 C2416 1.384 . S
C2418 C2419 1.372 . S
C2419 C2418 1.372 . S
C2419 C2420 1.400 . S
C2419 C2424 1.490 . S
C2420 H2410 0.930 . S
C2420 C2419 1.400 . S
C2420 C2423 1.386 . S
H2421 C2437 0.930 . S
H2422 C2438 0.931 . S
C2423 H2411 0.929 . S
C2423 C2417 1.390 . S
C2423 C2420 1.386 . S
C2424 C2419 1.490 . S
C2424 C2426 1.395 . S
C2424 C2427 1.403 . S
H2425 C2431 0.930 . S
C2426 H2412 0.930 . S
C2426 C2424 1.395 . S
C2426 C2429 1.403 . S
C2427 C2424 1.403 . S
C2427 C2428 1.524 . S
C2427 C2431 1.400 . S
C2428 H2413 0.960 . S
C2428 H2414 0.960 . S
C2428 H2415 0.960 . S
C2428 C2427 1.524 . S
C2429 C2426 1.403 . S
C2429 C2430 1.392 . S
C2429 C2433 1.495 . S
C2430 C2429 1.392 . S
C2430 C2431 1.385 . S
C2430 C2432 1.478 . S
C2431 H2425 0.930 . S
C2431 C2427 1.400 . S
C2431 C2430 1.385 . S
C2432 C2430 1.478 . S
C2432 C2434 1.381 . S
C2432 C2438 1.383 . S
C2433 C2429 1.495 . S
C2433 H2439 0.959 . S
C2433 H2440 0.961 . S
C2433 H2441 0.960 . S
C2434 C2432 1.381 . S
C2434 C2435 1.394 . S
C2434 H2442 0.930 . S
C2435 C2434 1.394 . S
C2435 C2436 1.383 . S
C2435 H2443 0.929 . S
C2436 C2435 1.383 . S
C2436 C2437 1.377 . S
C2437 H2421 0.930 . S
C2437 C2436 1.377 . S
C2437 C2438 1.379 . S
C2438 H2422 0.931 . S
C2438 C2432 1.383 . S
C2438 C2437 1.379 . S
H2439 C2433 0.959 . S
H2440 C2433 0.961 . S
H2441 C2433 0.960 . S
H2442 C2434 0.930 . S
H2443 C2435 0.929 . S
H2444 C2452 0.929 . S
H2445 C2454 0.930 . S
H2446 C2456 0.930 . S
H2447 C2459 0.929 . S
H2448 C2462 0.930 . S
H2449 C2464 0.960 . S
H2450 C2464 0.960 . S
H2451 C2464 0.960 . S
C2452 H2444 0.929 . S
C2452 C2453 1.377 . S
C2452 C2454 1.384 . S
C2453 C2452 1.377 . S
C2453 C2459 1.390 . S
C2454 H2445 0.930 . S
C2454 C2452 1.384 . S
C2454 C2455 1.372 . S
C2455 C2454 1.372 . S
C2455 C2456 1.400 . S
C2455 C2460 1.490 . S
C2456 H2446 0.930 . S
C2456 C2455 1.400 . S
C2456 C2459 1.386 . S
H2457 C2473 0.930 . S
H2458 C2474 0.931 . S
C2459 H2447 0.929 . S
C2459 C2453 1.390 . S
C2459 C2456 1.386 . S
C2460 C2455 1.490 . S
C2460 C2462 1.395 . S
C2460 C2463 1.403 . S
H2461 C2467 0.930 . S
C2462 H2448 0.930 . S
C2462 C2460 1.395 . S
C2462 C2465 1.403 . S
C2463 C2460 1.403 . S
C2463 C2464 1.524 . S
C2463 C2467 1.400 . S
C2464 H2449 0.960 . S
C2464 H2450 0.960 . S
C2464 H2451 0.960 . S
C2464 C2463 1.524 . S
C2465 C2462 1.403 . S
C2465 C2466 1.392 . S
C2465 C2469 1.495 . S
C2466 C2465 1.392 . S
C2466 C2467 1.385 . S
C2466 C2468 1.478 . S
C2467 H2461 0.930 . S
C2467 C2463 1.400 . S
C2467 C2466 1.385 . S
C2468 C2466 1.478 . S
C2468 C2470 1.381 . S
C2468 C2474 1.383 . S
C2469 C2465 1.495 . S
C2469 H2475 0.959 . S
C2469 H2476 0.961 . S
C2469 H2477 0.960 . S
C2470 C2468 1.381 . S
C2470 C2471 1.394 . S
C2470 H2478 0.930 . S
C2471 C2470 1.394 . S
C2471 C2472 1.383 . S
C2471 H2479 0.929 . S
C2472 C2471 1.383 . S
C2472 C2473 1.377 . S
C2473 H2457 0.930 . S
C2473 C2472 1.377 . S
C2473 C2474 1.379 . S
C2474 H2458 0.931 . S
C2474 C2468 1.383 . S
C2474 C2473 1.379 . S
H2475 C2469 0.959 . S
H2476 C2469 0.961 . S
H2477 C2469 0.960 . S
H2478 C2470 0.930 . S
H2479 C2471 0.929 . S
H2480 C2488 0.929 . S
H2481 C2490 0.930 . S
H2482 C2492 0.930 . S
H2483 C2495 0.929 . S
H2484 C2498 0.930 . S
H2485 C2500 0.960 . S
H2486 C2500 0.960 . S
H2487 C2500 0.960 . S
C2488 H2480 0.929 . S
C2488 C2489 1.377 . S
C2488 C2490 1.384 . S
C2489 C2488 1.377 . S
C2489 C2495 1.390 . S
C2490 H2481 0.930 . S
C2490 C2488 1.384 . S
C2490 C2491 1.372 . S
C2491 C2490 1.372 . S
C2491 C2492 1.400 . S
C2491 C2496 1.490 . S
C2492 H2482 0.930 . S
C2492 C2491 1.400 . S
C2492 C2495 1.386 . S
H2493 C2509 0.930 . S
H2494 C2510 0.931 . S
C2495 H2483 0.929 . S
C2495 C2489 1.390 . S
C2495 C2492 1.386 . S
C2496 C2491 1.490 . S
C2496 C2498 1.395 . S
C2496 C2499 1.403 . S
H2497 C2503 0.930 . S
C2498 H2484 0.930 . S
C2498 C2496 1.395 . S
C2498 C2501 1.403 . S
C2499 C2496 1.403 . S
C2499 C2500 1.524 . S
C2499 C2503 1.400 . S
C2500 H2485 0.960 . S
C2500 H2486 0.960 . S
C2500 H2487 0.960 . S
C2500 C2499 1.524 . S
C2501 C2498 1.403 . S
C2501 C2502 1.392 . S
C2501 C2505 1.495 . S
C2502 C2501 1.392 . S
C2502 C2503 1.385 . S
C2502 C2504 1.478 . S
C2503 H2497 0.930 . S
C2503 C2499 1.400 . S
C2503 C2502 1.385 . S
C2504 C2502 1.478 . S
C2504 C2506 1.381 . S
C2504 C2510 1.383 . S
C2505 C2501 1.495 . S
C2505 H2511 0.959 . S
C2505 H2512 0.961 . S
C2505 H2513 0.960 . S
C2506 C2504 1.381 . S
C2506 C2507 1.394 . S
C2506 H2514 0.930 . S
C2507 C2506 1.394 . S
C2507 C2508 1.383 . S
C2507 H2515 0.929 . S
C2508 C2507 1.383 . S
C2508 C2509 1.377 . S
C2509 H2493 0.930 . S
C2509 C2508 1.377 . S
C2509 C2510 1.379 . S
C2510 H2494 0.931 . S
C2510 C2504 1.383 . S
C2510 C2509 1.379 . S
H2511 C2505 0.959 . S
H2512 C2505 0.961 . S
H2513 C2505 0.960 . S
H2514 C2506 0.930 . S
H2515 C2507 0.929 . S
H2516 C2524 0.929 . S
H2517 C2526 0.930 . S
H2518 C2528 0.930 . S
H2519 C2531 0.929 . S
H2520 C2534 0.930 . S
H2521 C2536 0.960 . S
H2522 C2536 0.960 . S
H2523 C2536 0.960 . S
C2524 H2516 0.929 . S
C2524 C2525 1.377 . S
C2524 C2526 1.384 . S
C2525 C2524 1.377 . S
C2525 C2531 1.390 . S
C2526 H2517 0.930 . S
C2526 C2524 1.384 . S
C2526 C2527 1.372 . S
C2527 C2526 1.372 . S
C2527 C2528 1.400 . S
C2527 C2532 1.490 . S
C2528 H2518 0.930 . S
C2528 C2527 1.400 . S
C2528 C2531 1.386 . S
H2529 C2545 0.930 . S
H2530 C2546 0.931 . S
C2531 H2519 0.929 . S
C2531 C2525 1.390 . S
C2531 C2528 1.386 . S
C2532 C2527 1.490 . S
C2532 C2534 1.395 . S
C2532 C2535 1.403 . S
H2533 C2539 0.930 . S
C2534 H2520 0.930 . S
C2534 C2532 1.395 . S
C2534 C2537 1.403 . S
C2535 C2532 1.403 . S
C2535 C2536 1.524 . S
C2535 C2539 1.400 . S
C2536 H2521 0.960 . S
C2536 H2522 0.960 . S
C2536 H2523 0.960 . S
C2536 C2535 1.524 . S
C2537 C2534 1.403 . S
C2537 C2538 1.392 . S
C2537 C2541 1.495 . S
C2538 C2537 1.392 . S
C2538 C2539 1.385 . S
C2538 C2540 1.478 . S
C2539 H2533 0.930 . S
C2539 C2535 1.400 . S
C2539 C2538 1.385 . S
C2540 C2538 1.478 . S
C2540 C2542 1.381 . S
C2540 C2546 1.383 . S
C2541 C2537 1.495 . S
C2541 H2547 0.959 . S
C2541 H2548 0.961 . S
C2541 H2549 0.960 . S
C2542 C2540 1.381 . S
C2542 C2543 1.394 . S
C2542 H2550 0.930 . S
C2543 C2542 1.394 . S
C2543 C2544 1.383 . S
C2543 H2551 0.929 . S
C2544 C2543 1.383 . S
C2544 C2545 1.377 . S
C2545 H2529 0.930 . S
C2545 C2544 1.377 . S
C2545 C2546 1.379 . S
C2546 H2530 0.931 . S
C2546 C2540 1.383 . S
C2546 C2545 1.379 . S
H2547 C2541 0.959 . S
H2548 C2541 0.961 . S
H2549 C2541 0.960 . S
H2550 C2542 0.930 . S
H2551 C2543 0.929 . S
H2552 C2560 0.929 . S
H2553 C2562 0.930 . S
H2554 C2564 0.930 . S
H2555 C2567 0.929 . S
H2556 C2570 0.930 . S
H2557 C2572 0.960 . S
H2558 C2572 0.960 . S
H2559 C2572 0.960 . S
C2560 H2552 0.929 . S
C2560 C2561 1.377 . S
C2560 C2562 1.384 . S
C2561 C2560 1.377 . S
C2561 C2567 1.390 . S
C2562 H2553 0.930 . S
C2562 C2560 1.384 . S
C2562 C2563 1.372 . S
C2563 C2562 1.372 . S
C2563 C2564 1.400 . S
C2563 C2568 1.490 . S
C2564 H2554 0.930 . S
C2564 C2563 1.400 . S
C2564 C2567 1.386 . S
H2565 C2581 0.930 . S
H2566 C2582 0.931 . S
C2567 H2555 0.929 . S
C2567 C2561 1.390 . S
C2567 C2564 1.386 . S
C2568 C2563 1.490 . S
C2568 C2570 1.395 . S
C2568 C2571 1.403 . S
H2569 C2575 0.930 . S
C2570 H2556 0.930 . S
C2570 C2568 1.395 . S
C2570 C2573 1.403 . S
C2571 C2568 1.403 . S
C2571 C2572 1.524 . S
C2571 C2575 1.400 . S
C2572 H2557 0.960 . S
C2572 H2558 0.960 . S
C2572 H2559 0.960 . S
C2572 C2571 1.524 . S
C2573 C2570 1.403 . S
C2573 C2574 1.392 . S
C2573 C2577 1.495 . S
C2574 C2573 1.392 . S
C2574 C2575 1.385 . S
C2574 C2576 1.478 . S
C2575 H2569 0.930 . S
C2575 C2571 1.400 . S
C2575 C2574 1.385 . S
C2576 C2574 1.478 . S
C2576 C2578 1.381 . S
C2576 C2582 1.383 . S
C2577 C2573 1.495 . S
C2577 H2583 0.959 . S
C2577 H2584 0.961 . S
C2577 H2585 0.960 . S
C2578 C2576 1.381 . S
C2578 C2579 1.394 . S
C2578 H2586 0.930 . S
C2579 C2578 1.394 . S
C2579 C2580 1.383 . S
C2579 H2587 0.929 . S
C2580 C2579 1.383 . S
C2580 C2581 1.377 . S
C2581 H2565 0.930 . S
C2581 C2580 1.377 . S
C2581 C2582 1.379 . S
C2582 H2566 0.931 . S
C2582 C2576 1.383 . S
C2582 C2581 1.379 . S
H2583 C2577 0.959 . S
H2584 C2577 0.961 . S
H2585 C2577 0.960 . S
H2586 C2578 0.930 . S
H2587 C2579 0.929 . S
H2588 C2596 0.929 . S
H2589 C2598 0.930 . S
H2590 C2600 0.930 . S
H2591 C2603 0.929 . S
H2592 C2606 0.930 . S
H2593 C2608 0.960 . S
H2594 C2608 0.960 . S
H2595 C2608 0.960 . S
C2596 H2588 0.929 . S
C2596 C2597 1.377 . S
C2596 C2598 1.384 . S
C2597 C2596 1.377 . S
C2597 C2603 1.390 . S
C2598 H2589 0.930 . S
C2598 C2596 1.384 . S
C2598 C2599 1.372 . S
C2599 C2598 1.372 . S
C2599 C2600 1.400 . S
C2599 C2604 1.490 . S
C2600 H2590 0.930 . S
C2600 C2599 1.400 . S
C2600 C2603 1.386 . S
H2601 C2617 0.930 . S
H2602 C2618 0.931 . S
C2603 H2591 0.929 . S
C2603 C2597 1.390 . S
C2603 C2600 1.386 . S
C2604 C2599 1.490 . S
C2604 C2606 1.395 . S
C2604 C2607 1.403 . S
H2605 C2611 0.930 . S
C2606 H2592 0.930 . S
C2606 C2604 1.395 . S
C2606 C2609 1.403 . S
C2607 C2604 1.403 . S
C2607 C2608 1.524 . S
C2607 C2611 1.400 . S
C2608 H2593 0.960 . S
C2608 H2594 0.960 . S
C2608 H2595 0.960 . S
C2608 C2607 1.524 . S
C2609 C2606 1.403 . S
C2609 C2610 1.392 . S
C2609 C2613 1.495 . S
C2610 C2609 1.392 . S
C2610 C2611 1.385 . S
C2610 C2612 1.478 . S
C2611 H2605 0.930 . S
C2611 C2607 1.400 . S
C2611 C2610 1.385 . S
C2612 C2610 1.478 . S
C2612 C2614 1.381 . S
C2612 C2618 1.383 . S
C2613 C2609 1.495 . S
C2613 H2619 0.959 . S
C2613 H2620 0.961 . S
C2613 H2621 0.960 . S
C2614 C2612 1.381 . S
C2614 C2615 1.394 . S
C2614 H2622 0.930 . S
C2615 C2614 1.394 . S
C2615 C2616 1.383 . S
C2615 H2623 0.929 . S
C2616 C2615 1.383 . S
C2616 C2617 1.377 . S
C2617 H2601 0.930 . S
C2617 C2616 1.377 . S
C2617 C2618 1.379 . S
C2618 H2602 0.931 . S
C2618 C2612 1.383 . S
C2618 C2617 1.379 . S
H2619 C2613 0.959 . S
H2620 C2613 0.961 . S
H2621 C2613 0.960 . S
H2622 C2614 0.930 . S
H2623 C2615 0.929 . S
H2624 C2632 0.929 . S
H2625 C2634 0.930 . S
H2626 C2636 0.930 . S
H2627 C2639 0.929 . S
H2628 C2642 0.930 . S
H2629 C2644 0.960 . S
H2630 C2644 0.960 . S
H2631 C2644 0.960 . S
C2632 H2624 0.929 . S
C2632 C2633 1.377 . S
C2632 C2634 1.384 . S
C2633 C2632 1.377 . S
C2633 C2639 1.390 . S
C2634 H2625 0.930 . S
C2634 C2632 1.384 . S
C2634 C2635 1.372 . S
C2635 C2634 1.372 . S
C2635 C2636 1.400 . S
C2635 C2640 1.490 . S
C2636 H2626 0.930 . S
C2636 C2635 1.400 . S
C2636 C2639 1.386 . S
H2637 C2653 0.930 . S
H2638 C2654 0.931 . S
C2639 H2627 0.929 . S
C2639 C2633 1.390 . S
C2639 C2636 1.386 . S
C2640 C2635 1.490 . S
C2640 C2642 1.395 . S
C2640 C2643 1.403 . S
H2641 C2647 0.930 . S
C2642 H2628 0.930 . S
C2642 C2640 1.395 . S
C2642 C2645 1.403 . S
C2643 C2640 1.403 . S
C2643 C2644 1.524 . S
C2643 C2647 1.400 . S
C2644 H2629 0.960 . S
C2644 H2630 0.960 . S
C2644 H2631 0.960 . S
C2644 C2643 1.524 . S
C2645 C2642 1.403 . S
C2645 C2646 1.392 . S
C2645 C2649 1.495 . S
C2646 C2645 1.392 . S
C2646 C2647 1.385 . S
C2646 C2648 1.478 . S
C2647 H2641 0.930 . S
C2647 C2643 1.400 . S
C2647 C2646 1.385 . S
C2648 C2646 1.478 . S
C2648 C2650 1.381 . S
C2648 C2654 1.383 . S
C2649 C2645 1.495 . S
C2649 H2655 0.959 . S
C2649 H2656 0.961 . S
C2649 H2657 0.960 . S
C2650 C2648 1.381 . S
C2650 C2651 1.394 . S
C2650 H2658 0.930 . S
C2651 C2650 1.394 . S
C2651 C2652 1.383 . S
C2651 H2659 0.929 . S
C2652 C2651 1.383 . S
C2652 C2653 1.377 . S
C2653 H2637 0.930 . S
C2653 C2652 1.377 . S
C2653 C2654 1.379 . S
C2654 H2638 0.931 . S
C2654 C2648 1.383 . S
C2654 C2653 1.379 . S
H2655 C2649 0.959 . S
H2656 C2649 0.961 . S
H2657 C2649 0.960 . S
H2658 C2650 0.930 . S
H2659 C2651 0.929 . S
H2660 C2668 0.929 . S
H2661 C2670 0.930 . S
H2662 C2672 0.930 . S
H2663 C2675 0.929 . S
H2664 C2678 0.930 . S
H2665 C2680 0.960 . S
H2666 C2680 0.960 . S
H2667 C2680 0.960 . S
C2668 H2660 0.929 . S
C2668 C2669 1.377 . S
C2668 C2670 1.384 . S
C2669 C2668 1.377 . S
C2669 C2675 1.390 . S
C2670 H2661 0.930 . S
C2670 C2668 1.384 . S
C2670 C2671 1.372 . S
C2671 C2670 1.372 . S
C2671 C2672 1.400 . S
C2671 C2676 1.490 . S
C2672 H2662 0.930 . S
C2672 C2671 1.400 . S
C2672 C2675 1.386 . S
H2673 C2689 0.930 . S
H2674 C2690 0.931 . S
C2675 H2663 0.929 . S
C2675 C2669 1.390 . S
C2675 C2672 1.386 . S
C2676 C2671 1.490 . S
C2676 C2678 1.395 . S
C2676 C2679 1.403 . S
H2677 C2683 0.930 . S
C2678 H2664 0.930 . S
C2678 C2676 1.395 . S
C2678 C2681 1.403 . S
C2679 C2676 1.403 . S
C2679 C2680 1.524 . S
C2679 C2683 1.400 . S
C2680 H2665 0.960 . S
C2680 H2666 0.960 . S
C2680 H2667 0.960 . S
C2680 C2679 1.524 . S
C2681 C2678 1.403 . S
C2681 C2682 1.392 . S
C2681 C2685 1.495 . S
C2682 C2681 1.392 . S
C2682 C2683 1.385 . S
C2682 C2684 1.478 . S
C2683 H2677 0.930 . S
C2683 C2679 1.400 . S
C2683 C2682 1.385 . S
C2684 C2682 1.478 . S
C2684 C2686 1.381 . S
C2684 C2690 1.383 . S
C2685 C2681 1.495 . S
C2685 H2691 0.959 . S
C2685 H2692 0.961 . S
C2685 H2693 0.960 . S
C2686 C2684 1.381 . S
C2686 C2687 1.394 . S
C2686 H2694 0.930 . S
C2687 C2686 1.394 . S
C2687 C2688 1.383 . S
C2687 H2695 0.929 . S
C2688 C2687 1.383 . S
C2688 C2689 1.377 . S
C2689 H2673 0.930 . S
C2689 C2688 1.377 . S
C2689 C2690 1.379 . S
C2690 H2674 0.931 . S
C2690 C2684 1.383 . S
C2690 C2689 1.379 . S
H2691 C2685 0.959 . S
H2692 C2685 0.961 . S
H2693 C2685 0.960 . S
H2694 C2686 0.930 . S
H2695 C2687 0.929 . S
H2696 C2704 0.929 . S
H2697 C2706 0.930 . S
H2698 C2708 0.930 . S
H2699 C2711 0.929 . S
H2700 C2714 0.930 . S
H2701 C2716 0.960 . S
H2702 C2716 0.960 . S
H2703 C2716 0.960 . S
C2704 H2696 0.929 . S
C2704 C2705 1.377 . S
C2704 C2706 1.384 . S
C2705 C2704 1.377 . S
C2705 C2711 1.390 . S
C2706 H2697 0.930 . S
C2706 C2704 1.384 . S
C2706 C2707 1.372 . S
C2707 C2706 1.372 . S
C2707 C2708 1.400 . S
C2707 C2712 1.490 . S
C2708 H2698 0.930 . S
C2708 C2707 1.400 . S
C2708 C2711 1.386 . S
H2709 C2725 0.930 . S
H2710 C2726 0.931 . S
C2711 H2699 0.929 . S
C2711 C2705 1.390 . S
C2711 C2708 1.386 . S
C2712 C2707 1.490 . S
C2712 C2714 1.395 . S
C2712 C2715 1.403 . S
H2713 C2719 0.930 . S
C2714 H2700 0.930 . S
C2714 C2712 1.395 . S
C2714 C2717 1.403 . S
C2715 C2712 1.403 . S
C2715 C2716 1.524 . S
C2715 C2719 1.400 . S
C2716 H2701 0.960 . S
C2716 H2702 0.960 . S
C2716 H2703 0.960 . S
C2716 C2715 1.524 . S
C2717 C2714 1.403 . S
C2717 C2718 1.392 . S
C2717 C2721 1.495 . S
C2718 C2717 1.392 . S
C2718 C2719 1.385 . S
C2718 C2720 1.478 . S
C2719 H2713 0.930 . S
C2719 C2715 1.400 . S
C2719 C2718 1.385 . S
C2720 C2718 1.478 . S
C2720 C2722 1.381 . S
C2720 C2726 1.383 . S
C2721 C2717 1.495 . S
C2721 H2727 0.959 . S
C2721 H2728 0.961 . S
C2721 H2729 0.960 . S
C2722 C2720 1.381 . S
C2722 C2723 1.394 . S
C2722 H2730 0.930 . S
C2723 C2722 1.394 . S
C2723 C2724 1.383 . S
C2723 H2731 0.929 . S
C2724 C2723 1.383 . S
C2724 C2725 1.377 . S
C2725 H2709 0.930 . S
C2725 C2724 1.377 . S
C2725 C2726 1.379 . S
C2726 H2710 0.931 . S
C2726 C2720 1.383 . S
C2726 C2725 1.379 . S
H2727 C2721 0.959 . S
H2728 C2721 0.961 . S
H2729 C2721 0.960 . S
H2730 C2722 0.930 . S
H2731 C2723 0.929 . S
H2732 C2740 0.929 . S
H2733 C2742 0.930 . S
H2734 C2744 0.930 . S
H2735 C2747 0.929 . S
H2736 C2750 0.930 . S
H2737 C2752 0.960 . S
H2738 C2752 0.960 . S
H2739 C2752 0.960 . S
C2740 H2732 0.929 . S
C2740 C2741 1.377 . S
C2740 C2742 1.384 . S
C2741 C2740 1.377 . S
C2741 C2747 1.390 . S
C2742 H2733 0.930 . S
C2742 C2740 1.384 . S
C2742 C2743 1.372 . S
C2743 C2742 1.372 . S
C2743 C2744 1.400 . S
C2743 C2748 1.490 . S
C2744 H2734 0.930 . S
C2744 C2743 1.400 . S
C2744 C2747 1.386 . S
H2745 C2761 0.930 . S
H2746 C2762 0.931 . S
C2747 H2735 0.929 . S
C2747 C2741 1.390 . S
C2747 C2744 1.386 . S
C2748 C2743 1.490 . S
C2748 C2750 1.395 . S
C2748 C2751 1.403 . S
H2749 C2755 0.930 . S
C2750 H2736 0.930 . S
C2750 C2748 1.395 . S
C2750 C2753 1.403 . S
C2751 C2748 1.403 . S
C2751 C2752 1.524 . S
C2751 C2755 1.400 . S
C2752 H2737 0.960 . S
C2752 H2738 0.960 . S
C2752 H2739 0.960 . S
C2752 C2751 1.524 . S
C2753 C2750 1.403 . S
C2753 C2754 1.392 . S
C2753 C2757 1.495 . S
C2754 C2753 1.392 . S
C2754 C2755 1.385 . S
C2754 C2756 1.478 . S
C2755 H2749 0.930 . S
C2755 C2751 1.400 . S
C2755 C2754 1.385 . S
C2756 C2754 1.478 . S
C2756 C2758 1.381 . S
C2756 C2762 1.383 . S
C2757 C2753 1.495 . S
C2757 H2763 0.959 . S
C2757 H2764 0.961 . S
C2757 H2765 0.960 . S
C2758 C2756 1.381 . S
C2758 C2759 1.394 . S
C2758 H2766 0.930 . S
C2759 C2758 1.394 . S
C2759 C2760 1.383 . S
C2759 H2767 0.929 . S
C2760 C2759 1.383 . S
C2760 C2761 1.377 . S
C2761 H2745 0.930 . S
C2761 C2760 1.377 . S
C2761 C2762 1.379 . S
C2762 H2746 0.931 . S
C2762 C2756 1.383 . S
C2762 C2761 1.379 . S
H2763 C2757 0.959 . S
H2764 C2757 0.961 . S
H2765 C2757 0.960 . S
H2766 C2758 0.930 . S
H2767 C2759 0.929 . S
H2768 C2776 0.929 . S
H2769 C2778 0.930 . S
H2770 C2780 0.930 . S
H2771 C2783 0.929 . S
H2772 C2786 0.930 . S
H2773 C2788 0.960 . S
H2774 C2788 0.960 . S
H2775 C2788 0.960 . S
C2776 H2768 0.929 . S
C2776 C2777 1.377 . S
C2776 C2778 1.384 . S
C2777 C2776 1.377 . S
C2777 C2783 1.390 . S
C2778 H2769 0.930 . S
C2778 C2776 1.384 . S
C2778 C2779 1.372 . S
C2779 C2778 1.372 . S
C2779 C2780 1.400 . S
C2779 C2784 1.490 . S
C2780 H2770 0.930 . S
C2780 C2779 1.400 . S
C2780 C2783 1.386 . S
H2781 C2797 0.930 . S
H2782 C2798 0.931 . S
C2783 H2771 0.929 . S
C2783 C2777 1.390 . S
C2783 C2780 1.386 . S
C2784 C2779 1.490 . S
C2784 C2786 1.395 . S
C2784 C2787 1.403 . S
H2785 C2791 0.930 . S
C2786 H2772 0.930 . S
C2786 C2784 1.395 . S
C2786 C2789 1.403 . S
C2787 C2784 1.403 . S
C2787 C2788 1.524 . S
C2787 C2791 1.400 . S
C2788 H2773 0.960 . S
C2788 H2774 0.960 . S
C2788 H2775 0.960 . S
C2788 C2787 1.524 . S
C2789 C2786 1.403 . S
C2789 C2790 1.392 . S
C2789 C2793 1.495 . S
C2790 C2789 1.392 . S
C2790 C2791 1.385 . S
C2790 C2792 1.478 . S
C2791 H2785 0.930 . S
C2791 C2787 1.400 . S
C2791 C2790 1.385 . S
C2792 C2790 1.478 . S
C2792 C2794 1.381 . S
C2792 C2798 1.383 . S
C2793 C2789 1.495 . S
C2793 H2799 0.959 . S
C2793 H2800 0.961 . S
C2793 H2801 0.960 . S
C2794 C2792 1.381 . S
C2794 C2795 1.394 . S
C2794 H2802 0.930 . S
C2795 C2794 1.394 . S
C2795 C2796 1.383 . S
C2795 H2803 0.929 . S
C2796 C2795 1.383 . S
C2796 C2797 1.377 . S
C2797 H2781 0.930 . S
C2797 C2796 1.377 . S
C2797 C2798 1.379 . S
C2798 H2782 0.931 . S
C2798 C2792 1.383 . S
C2798 C2797 1.379 . S
H2799 C2793 0.959 . S
H2800 C2793 0.961 . S
H2801 C2793 0.960 . S
H2802 C2794 0.930 . S
H2803 C2795 0.929 . S
H2804 C2812 0.929 . S
H2805 C2814 0.930 . S
H2806 C2816 0.930 . S
H2807 C2819 0.929 . S
H2808 C2822 0.930 . S
H2809 C2824 0.960 . S
H2810 C2824 0.960 . S
H2811 C2824 0.960 . S
C2812 H2804 0.929 . S
C2812 C2813 1.377 . S
C2812 C2814 1.384 . S
C2813 C2812 1.377 . S
C2813 C2819 1.390 . S
C2814 H2805 0.930 . S
C2814 C2812 1.384 . S
C2814 C2815 1.372 . S
C2815 C2814 1.372 . S
C2815 C2816 1.400 . S
C2815 C2820 1.490 . S
C2816 H2806 0.930 . S
C2816 C2815 1.400 . S
C2816 C2819 1.386 . S
H2817 C2833 0.930 . S
H2818 C2834 0.931 . S
C2819 H2807 0.929 . S
C2819 C2813 1.390 . S
C2819 C2816 1.386 . S
C2820 C2815 1.490 . S
C2820 C2822 1.395 . S
C2820 C2823 1.403 . S
H2821 C2827 0.930 . S
C2822 H2808 0.930 . S
C2822 C2820 1.395 . S
C2822 C2825 1.403 . S
C2823 C2820 1.403 . S
C2823 C2824 1.524 . S
C2823 C2827 1.400 . S
C2824 H2809 0.960 . S
C2824 H2810 0.960 . S
C2824 H2811 0.960 . S
C2824 C2823 1.524 . S
C2825 C2822 1.403 . S
C2825 C2826 1.392 . S
C2825 C2829 1.495 . S
C2826 C2825 1.392 . S
C2826 C2827 1.385 . S
C2826 C2828 1.478 . S
C2827 H2821 0.930 . S
C2827 C2823 1.400 . S
C2827 C2826 1.385 . S
C2828 C2826 1.478 . S
C2828 C2830 1.381 . S
C2828 C2834 1.383 . S
C2829 C2825 1.495 . S
C2829 H2835 0.959 . S
C2829 H2836 0.961 . S
C2829 H2837 0.960 . S
C2830 C2828 1.381 . S
C2830 C2831 1.394 . S
C2830 H2838 0.930 . S
C2831 C2830 1.394 . S
C2831 C2832 1.383 . S
C2831 H2839 0.929 . S
C2832 C2831 1.383 . S
C2832 C2833 1.377 . S
C2833 H2817 0.930 . S
C2833 C2832 1.377 . S
C2833 C2834 1.379 . S
C2834 H2818 0.931 . S
C2834 C2828 1.383 . S
C2834 C2833 1.379 . S
H2835 C2829 0.959 . S
H2836 C2829 0.961 . S
H2837 C2829 0.960 . S
H2838 C2830 0.930 . S
H2839 C2831 0.929 . S
H2840 C2848 0.929 . S
H2841 C2850 0.930 . S
H2842 C2852 0.930 . S
H2843 C2855 0.929 . S
H2844 C2858 0.930 . S
H2845 C2860 0.960 . S
H2846 C2860 0.960 . S
H2847 C2860 0.960 . S
C2848 H2840 0.929 . S
C2848 C2849 1.377 . S
C2848 C2850 1.384 . S
C2849 C2848 1.377 . S
C2849 C2855 1.390 . S
C2850 H2841 0.930 . S
C2850 C2848 1.384 . S
C2850 C2851 1.372 . S
C2851 C2850 1.372 . S
C2851 C2852 1.400 . S
C2851 C2856 1.490 . S
C2852 H2842 0.930 . S
C2852 C2851 1.400 . S
C2852 C2855 1.386 . S
H2853 C2869 0.930 . S
H2854 C2870 0.931 . S
C2855 H2843 0.929 . S
C2855 C2849 1.390 . S
C2855 C2852 1.386 . S
C2856 C2851 1.490 . S
C2856 C2858 1.395 . S
C2856 C2859 1.403 . S
H2857 C2863 0.930 . S
C2858 H2844 0.930 . S
C2858 C2856 1.395 . S
C2858 C2861 1.403 . S
C2859 C2856 1.403 . S
C2859 C2860 1.524 . S
C2859 C2863 1.400 . S
C2860 H2845 0.960 . S
C2860 H2846 0.960 . S
C2860 H2847 0.960 . S
C2860 C2859 1.524 . S
C2861 C2858 1.403 . S
C2861 C2862 1.392 . S
C2861 C2865 1.495 . S
C2862 C2861 1.392 . S
C2862 C2863 1.385 . S
C2862 C2864 1.478 . S
C2863 H2857 0.930 . S
C2863 C2859 1.400 . S
C2863 C2862 1.385 . S
C2864 C2862 1.478 . S
C2864 C2866 1.381 . S
C2864 C2870 1.383 . S
C2865 C2861 1.495 . S
C2865 H2871 0.959 . S
C2865 H2872 0.961 . S
C2865 H2873 0.960 . S
C2866 C2864 1.381 . S
C2866 C2867 1.394 . S
C2866 H2874 0.930 . S
C2867 C2866 1.394 . S
C2867 C2868 1.383 . S
C2867 H2875 0.929 . S
C2868 C2867 1.383 . S
C2868 C2869 1.377 . S
C2869 H2853 0.930 . S
C2869 C2868 1.377 . S
C2869 C2870 1.379 . S
C2870 H2854 0.931 . S
C2870 C2864 1.383 . S
C2870 C2869 1.379 . S
H2871 C2865 0.959 . S
H2872 C2865 0.961 . S
H2873 C2865 0.960 . S
H2874 C2866 0.930 . S
H2875 C2867 0.929 . S
H2876 C2884 0.929 . S
H2877 C2886 0.930 . S
H2878 C2888 0.930 . S
H2879 C2891 0.929 . S
H2880 C2894 0.930 . S
H2881 C2896 0.960 . S
H2882 C2896 0.960 . S
H2883 C2896 0.960 . S
C2884 H2876 0.929 . S
C2884 C2885 1.377 . S
C2884 C2886 1.384 . S
C2885 C2884 1.377 . S
C2885 C2891 1.390 . S
C2886 H2877 0.930 . S
C2886 C2884 1.384 . S
C2886 C2887 1.372 . S
C2887 C2886 1.372 . S
C2887 C2888 1.400 . S
C2887 C2892 1.490 . S
C2888 H2878 0.930 . S
C2888 C2887 1.400 . S
C2888 C2891 1.386 . S
H2889 C2905 0.930 . S
H2890 C2906 0.931 . S
C2891 H2879 0.929 . S
C2891 C2885 1.390 . S
C2891 C2888 1.386 . S
C2892 C2887 1.490 . S
C2892 C2894 1.395 . S
C2892 C2895 1.403 . S
H2893 C2899 0.930 . S
C2894 H2880 0.930 . S
C2894 C2892 1.395 . S
C2894 C2897 1.403 . S
C2895 C2892 1.403 . S
C2895 C2896 1.524 . S
C2895 C2899 1.400 . S
C2896 H2881 0.960 . S
C2896 H2882 0.960 . S
C2896 H2883 0.960 . S
C2896 C2895 1.524 . S
C2897 C2894 1.403 . S
C2897 C2898 1.392 . S
C2897 C2901 1.495 . S
C2898 C2897 1.392 . S
C2898 C2899 1.385 . S
C2898 C2900 1.478 . S
C2899 H2893 0.930 . S
C2899 C2895 1.400 . S
C2899 C2898 1.385 . S
C2900 C2898 1.478 . S
C2900 C2902 1.381 . S
C2900 C2906 1.383 . S
C2901 C2897 1.495 . S
C2901 H2907 0.959 . S
C2901 H2908 0.961 . S
C2901 H2909 0.960 . S
C2902 C2900 1.381 . S
C2902 C2903 1.394 . S
C2902 H2910 0.930 . S
C2903 C2902 1.394 . S
C2903 C2904 1.383 . S
C2903 H2911 0.929 . S
C2904 C2903 1.383 . S
C2904 C2905 1.377 . S
C2905 H2889 0.930 . S
C2905 C2904 1.377 . S
C2905 C2906 1.379 . S
C2906 H2890 0.931 . S
C2906 C2900 1.383 . S
C2906 C2905 1.379 . S
H2907 C2901 0.959 . S
H2908 C2901 0.961 . S
H2909 C2901 0.960 . S
H2910 C2902 0.930 . S
H2911 C2903 0.929 . S
H2912 C2920 0.929 . S
H2913 C2922 0.930 . S
H2914 C2924 0.930 . S
H2915 C2927 0.929 . S
H2916 C2930 0.930 . S
H2917 C2932 0.960 . S
H2918 C2932 0.960 . S
H2919 C2932 0.960 . S
C2920 H2912 0.929 . S
C2920 C2921 1.377 . S
C2920 C2922 1.384 . S
C2921 C2920 1.377 . S
C2921 C2927 1.390 . S
C2922 H2913 0.930 . S
C2922 C2920 1.384 . S
C2922 C2923 1.372 . S
C2923 C2922 1.372 . S
C2923 C2924 1.400 . S
C2923 C2928 1.490 . S
C2924 H2914 0.930 . S
C2924 C2923 1.400 . S
C2924 C2927 1.386 . S
H2925 C2941 0.930 . S
H2926 C2942 0.931 . S
C2927 H2915 0.929 . S
C2927 C2921 1.390 . S
C2927 C2924 1.386 . S
C2928 C2923 1.490 . S
C2928 C2930 1.395 . S
C2928 C2931 1.403 . S
H2929 C2935 0.930 . S
C2930 H2916 0.930 . S
C2930 C2928 1.395 . S
C2930 C2933 1.403 . S
C2931 C2928 1.403 . S
C2931 C2932 1.524 . S
C2931 C2935 1.400 . S
C2932 H2917 0.960 . S
C2932 H2918 0.960 . S
C2932 H2919 0.960 . S
C2932 C2931 1.524 . S
C2933 C2930 1.403 . S
C2933 C2934 1.392 . S
C2933 C2937 1.495 . S
C2934 C2933 1.392 . S
C2934 C2935 1.385 . S
C2934 C2936 1.478 . S
C2935 H2929 0.930 . S
C2935 C2931 1.400 . S
C2935 C2934 1.385 . S
C2936 C2934 1.478 . S
C2936 C2938 1.381 . S
C2936 C2942 1.383 . S
C2937 C2933 1.495 . S
C2937 H2943 0.959 . S
C2937 H2944 0.961 . S
C2937 H2945 0.960 . S
C2938 C2936 1.381 . S
C2938 C2939 1.394 . S
C2938 H2946 0.930 . S
C2939 C2938 1.394 . S
C2939 C2940 1.383 . S
C2939 H2947 0.929 . S
C2940 C2939 1.383 . S
C2940 C2941 1.377 . S
C2941 H2925 0.930 . S
C2941 C2940 1.377 . S
C2941 C2942 1.379 . S
C2942 H2926 0.931 . S
C2942 C2936 1.383 . S
C2942 C2941 1.379 . S
H2943 C2937 0.959 . S
H2944 C2937 0.961 . S
H2945 C2937 0.960 . S
H2946 C2938 0.930 . S
H2947 C2939 0.929 . S
H2948 C2956 0.929 . S
H2949 C2958 0.930 . S
H2950 C2960 0.930 . S
H2951 C2963 0.929 . S
H2952 C2966 0.930 . S
H2953 C2968 0.960 . S
H2954 C2968 0.960 . S
H2955 C2968 0.960 . S
C2956 H2948 0.929 . S
C2956 C2957 1.377 . S
C2956 C2958 1.384 . S
C2957 C2956 1.377 . S
C2957 C2963 1.390 . S
C2958 H2949 0.930 . S
C2958 C2956 1.384 . S
C2958 C2959 1.372 . S
C2959 C2958 1.372 . S
C2959 C2960 1.400 . S
C2959 C2964 1.490 . S
C2960 H2950 0.930 . S
C2960 C2959 1.400 . S
C2960 C2963 1.386 . S
H2961 C2977 0.930 . S
H2962 C2978 0.931 . S
C2963 H2951 0.929 . S
C2963 C2957 1.390 . S
C2963 C2960 1.386 . S
C2964 C2959 1.490 . S
C2964 C2966 1.395 . S
C2964 C2967 1.403 . S
H2965 C2971 0.930 . S
C2966 H2952 0.930 . S
C2966 C2964 1.395 . S
C2966 C2969 1.403 . S
C2967 C2964 1.403 . S
C2967 C2968 1.524 . S
C2967 C2971 1.400 . S
C2968 H2953 0.960 . S
C2968 H2954 0.960 . S
C2968 H2955 0.960 . S
C2968 C2967 1.524 . S
C2969 C2966 1.403 . S
C2969 C2970 1.392 . S
C2969 C2973 1.495 . S
C2970 C2969 1.392 . S
C2970 C2971 1.385 . S
C2970 C2972 1.478 . S
C2971 H2965 0.930 . S
C2971 C2967 1.400 . S
C2971 C2970 1.385 . S
C2972 C2970 1.478 . S
C2972 C2974 1.381 . S
C2972 C2978 1.383 . S
C2973 C2969 1.495 . S
C2973 H2979 0.959 . S
C2973 H2980 0.961 . S
C2973 H2981 0.960 . S
C2974 C2972 1.381 . S
C2974 C2975 1.394 . S
C2974 H2982 0.930 . S
C2975 C2974 1.394 . S
C2975 C2976 1.383 . S
C2975 H2983 0.929 . S
C2976 C2975 1.383 . S
C2976 C2977 1.377 . S
C2977 H2961 0.930 . S
C2977 C2976 1.377 . S
C2977 C2978 1.379 . S
C2978 H2962 0.931 . S
C2978 C2972 1.383 . S
C2978 C2977 1.379 . S
H2979 C2973 0.959 . S
H2980 C2973 0.961 . S
H2981 C2973 0.960 . S
H2982 C2974 0.930 . S
H2983 C2975 0.929 . S
H2984 C2992 0.929 . S
H2985 C2994 0.930 . S
H2986 C2996 0.930 . S
H2987 C2999 0.929 . S
H2988 C3002 0.930 . S
H2989 C3004 0.960 . S
H2990 C3004 0.960 . S
H2991 C3004 0.960 . S
C2992 H2984 0.929 . S
C2992 C2993 1.377 . S
C2992 C2994 1.384 . S
C2993 C2992 1.377 . S
C2993 C2999 1.390 . S
C2994 H2985 0.930 . S
C2994 C2992 1.384 . S
C2994 C2995 1.372 . S
C2995 C2994 1.372 . S
C2995 C2996 1.400 . S
C2995 C3000 1.490 . S
C2996 H2986 0.930 . S
C2996 C2995 1.400 . S
C2996 C2999 1.386 . S
H2997 C3013 0.930 . S
H2998 C3014 0.931 . S
C2999 H2987 0.929 . S
C2999 C2993 1.390 . S
C2999 C2996 1.386 . S
C3000 C2995 1.490 . S
C3000 C3002 1.395 . S
C3000 C3003 1.403 . S
H3001 C3007 0.930 . S
C3002 H2988 0.930 . S
C3002 C3000 1.395 . S
C3002 C3005 1.403 . S
C3003 C3000 1.403 . S
C3003 C3004 1.524 . S
C3003 C3007 1.400 . S
C3004 H2989 0.960 . S
C3004 H2990 0.960 . S
C3004 H2991 0.960 . S
C3004 C3003 1.524 . S
C3005 C3002 1.403 . S
C3005 C3006 1.392 . S
C3005 C3009 1.495 . S
C3006 C3005 1.392 . S
C3006 C3007 1.385 . S
C3006 C3008 1.478 . S
C3007 H3001 0.930 . S
C3007 C3003 1.400 . S
C3007 C3006 1.385 . S
C3008 C3006 1.478 . S
C3008 C3010 1.381 . S
C3008 C3014 1.383 . S
C3009 C3005 1.495 . S
C3009 H3015 0.959 . S
C3009 H3016 0.961 . S
C3009 H3017 0.960 . S
C3010 C3008 1.381 . S
C3010 C3011 1.394 . S
C3010 H3018 0.930 . S
C3011 C3010 1.394 . S
C3011 C3012 1.383 . S
C3011 H3019 0.929 . S
C3012 C3011 1.383 . S
C3012 C3013 1.377 . S
C3013 H2997 0.930 . S
C3013 C3012 1.377 . S
C3013 C3014 1.379 . S
C3014 H2998 0.931 . S
C3014 C3008 1.383 . S
C3014 C3013 1.379 . S
H3015 C3009 0.959 . S
H3016 C3009 0.961 . S
H3017 C3009 0.960 . S
H3018 C3010 0.930 . S
H3019 C3011 0.929 . S
H3020 C3028 0.929 . S
H3021 C3030 0.930 . S
H3022 C3032 0.930 . S
H3023 C3035 0.929 . S
H3024 C3038 0.930 . S
H3025 C3040 0.960 . S
H3026 C3040 0.960 . S
H3027 C3040 0.960 . S
C3028 H3020 0.929 . S
C3028 C3029 1.377 . S
C3028 C3030 1.384 . S
C3029 C3028 1.377 . S
C3029 C3035 1.390 . S
C3030 H3021 0.930 . S
C3030 C3028 1.384 . S
C3030 C3031 1.372 . S
C3031 C3030 1.372 . S
C3031 C3032 1.400 . S
C3031 C3036 1.490 . S
C3032 H3022 0.930 . S
C3032 C3031 1.400 . S
C3032 C3035 1.386 . S
H3033 C3049 0.930 . S
H3034 C3050 0.931 . S
C3035 H3023 0.929 . S
C3035 C3029 1.390 . S
C3035 C3032 1.386 . S
C3036 C3031 1.490 . S
C3036 C3038 1.395 . S
C3036 C3039 1.403 . S
H3037 C3043 0.930 . S
C3038 H3024 0.930 . S
C3038 C3036 1.395 . S
C3038 C3041 1.403 . S
C3039 C3036 1.403 . S
C3039 C3040 1.524 . S
C3039 C3043 1.400 . S
C3040 H3025 0.960 . S
C3040 H3026 0.960 . S
C3040 H3027 0.960 . S
C3040 C3039 1.524 . S
C3041 C3038 1.403 . S
C3041 C3042 1.392 . S
C3041 C3045 1.495 . S
C3042 C3041 1.392 . S
C3042 C3043 1.385 . S
C3042 C3044 1.478 . S
C3043 H3037 0.930 . S
C3043 C3039 1.400 . S
C3043 C3042 1.385 . S
C3044 C3042 1.478 . S
C3044 C3046 1.381 . S
C3044 C3050 1.383 . S
C3045 C3041 1.495 . S
C3045 H3051 0.959 . S
C3045 H3052 0.961 . S
C3045 H3053 0.960 . S
C3046 C3044 1.381 . S
C3046 C3047 1.394 . S
C3046 H3054 0.930 . S
C3047 C3046 1.394 . S
C3047 C3048 1.383 . S
C3047 H3055 0.929 . S
C3048 C3047 1.383 . S
C3048 C3049 1.377 . S
C3049 H3033 0.930 . S
C3049 C3048 1.377 . S
C3049 C3050 1.379 . S
C3050 H3034 0.931 . S
C3050 C3044 1.383 . S
C3050 C3049 1.379 . S
H3051 C3045 0.959 . S
H3052 C3045 0.961 . S
H3053 C3045 0.960 . S
H3054 C3046 0.930 . S
H3055 C3047 0.929 . S
H3056 C3064 0.929 . S
H3057 C3066 0.930 . S
H3058 C3068 0.930 . S
H3059 C3071 0.929 . S
H3060 C3074 0.930 . S
H3061 C3076 0.960 . S
H3062 C3076 0.960 . S
H3063 C3076 0.960 . S
C3064 H3056 0.929 . S
C3064 C3065 1.377 . S
C3064 C3066 1.384 . S
C3065 C3064 1.377 . S
C3065 C3071 1.390 . S
C3066 H3057 0.930 . S
C3066 C3064 1.384 . S
C3066 C3067 1.372 . S
C3067 C3066 1.372 . S
C3067 C3068 1.400 . S
C3067 C3072 1.490 . S
C3068 H3058 0.930 . S
C3068 C3067 1.400 . S
C3068 C3071 1.386 . S
H3069 C3085 0.930 . S
H3070 C3086 0.931 . S
C3071 H3059 0.929 . S
C3071 C3065 1.390 . S
C3071 C3068 1.386 . S
C3072 C3067 1.490 . S
C3072 C3074 1.395 . S
C3072 C3075 1.403 . S
H3073 C3079 0.930 . S
C3074 H3060 0.930 . S
C3074 C3072 1.395 . S
C3074 C3077 1.403 . S
C3075 C3072 1.403 . S
C3075 C3076 1.524 . S
C3075 C3079 1.400 . S
C3076 H3061 0.960 . S
C3076 H3062 0.960 . S
C3076 H3063 0.960 . S
C3076 C3075 1.524 . S
C3077 C3074 1.403 . S
C3077 C3078 1.392 . S
C3077 C3081 1.495 . S
C3078 C3077 1.392 . S
C3078 C3079 1.385 . S
C3078 C3080 1.478 . S
C3079 H3073 0.930 . S
C3079 C3075 1.400 . S
C3079 C3078 1.385 . S
C3080 C3078 1.478 . S
C3080 C3082 1.381 . S
C3080 C3086 1.383 . S
C3081 C3077 1.495 . S
C3081 H3087 0.959 . S
C3081 H3088 0.961 . S
C3081 H3089 0.960 . S
C3082 C3080 1.381 . S
C3082 C3083 1.394 . S
C3082 H3090 0.930 . S
C3083 C3082 1.394 . S
C3083 C3084 1.383 . S
C3083 H3091 0.929 . S
C3084 C3083 1.383 . S
C3084 C3085 1.377 . S
C3085 H3069 0.930 . S
C3085 C3084 1.377 . S
C3085 C3086 1.379 . S
C3086 H3070 0.931 . S
C3086 C3080 1.383 . S
C3086 C3085 1.379 . S
H3087 C3081 0.959 . S
H3088 C3081 0.961 . S
H3089 C3081 0.960 . S
H3090 C3082 0.930 . S
H3091 C3083 0.929 . S
H3092 C3100 0.929 . S
H3093 C3102 0.930 . S
H3094 C3104 0.930 . S
H3095 C3107 0.929 . S
H3096 C3110 0.930 . S
H3097 C3112 0.960 . S
H3098 C3112 0.960 . S
H3099 C3112 0.960 . S
C3100 H3092 0.929 . S
C3100 C3101 1.377 . S
C3100 C3102 1.384 . S
C3101 C3100 1.377 . S
C3101 C3107 1.390 . S
C3102 H3093 0.930 . S
C3102 C3100 1.384 . S
C3102 C3103 1.372 . S
C3103 C3102 1.372 . S
C3103 C3104 1.400 . S
C3103 C3108 1.490 . S
C3104 H3094 0.930 . S
C3104 C3103 1.400 . S
C3104 C3107 1.386 . S
H3105 C3121 0.930 . S
H3106 C3122 0.931 . S
C3107 H3095 0.929 . S
C3107 C3101 1.390 . S
C3107 C3104 1.386 . S
C3108 C3103 1.490 . S
C3108 C3110 1.395 . S
C3108 C3111 1.403 . S
H3109 C3115 0.930 . S
C3110 H3096 0.930 . S
C3110 C3108 1.395 . S
C3110 C3113 1.403 . S
C3111 C3108 1.403 . S
C3111 C3112 1.524 . S
C3111 C3115 1.400 . S
C3112 H3097 0.960 . S
C3112 H3098 0.960 . S
C3112 H3099 0.960 . S
C3112 C3111 1.524 . S
C3113 C3110 1.403 . S
C3113 C3114 1.392 . S
C3113 C3117 1.495 . S
C3114 C3113 1.392 . S
C3114 C3115 1.385 . S
C3114 C3116 1.478 . S
C3115 H3109 0.930 . S
C3115 C3111 1.400 . S
C3115 C3114 1.385 . S
C3116 C3114 1.478 . S
C3116 C3118 1.381 . S
C3116 C3122 1.383 . S
C3117 C3113 1.495 . S
C3117 H3123 0.959 . S
C3117 H3124 0.961 . S
C3117 H3125 0.960 . S
C3118 C3116 1.381 . S
C3118 C3119 1.394 . S
C3118 H3126 0.930 . S
C3119 C3118 1.394 . S
C3119 C3120 1.383 . S
C3119 H3127 0.929 . S
C3120 C3119 1.383 . S
C3120 C3121 1.377 . S
C3121 H3105 0.930 . S
C3121 C3120 1.377 . S
C3121 C3122 1.379 . S
C3122 H3106 0.931 . S
C3122 C3116 1.383 . S
C3122 C3121 1.379 . S
H3123 C3117 0.959 . S
H3124 C3117 0.961 . S
H3125 C3117 0.960 . S
H3126 C3118 0.930 . S
H3127 C3119 0.929 . S
H3128 C3136 0.929 . S
H3129 C3138 0.930 . S
H3130 C3140 0.930 . S
H3131 C3143 0.929 . S
H3132 C3146 0.930 . S
H3133 C3148 0.960 . S
H3134 C3148 0.960 . S
H3135 C3148 0.960 . S
C3136 H3128 0.929 . S
C3136 C3137 1.377 . S
C3136 C3138 1.384 . S
C3137 C3136 1.377 . S
C3137 C3143 1.390 . S
C3138 H3129 0.930 . S
C3138 C3136 1.384 . S
C3138 C3139 1.372 . S
C3139 C3138 1.372 . S
C3139 C3140 1.400 . S
C3139 C3144 1.490 . S
C3140 H3130 0.930 . S
C3140 C3139 1.400 . S
C3140 C3143 1.386 . S
H3141 C3157 0.930 . S
H3142 C3158 0.931 . S
C3143 H3131 0.929 . S
C3143 C3137 1.390 . S
C3143 C3140 1.386 . S
C3144 C3139 1.490 . S
C3144 C3146 1.395 . S
C3144 C3147 1.403 . S
H3145 C3151 0.930 . S
C3146 H3132 0.930 . S
C3146 C3144 1.395 . S
C3146 C3149 1.403 . S
C3147 C3144 1.403 . S
C3147 C3148 1.524 . S
C3147 C3151 1.400 . S
C3148 H3133 0.960 . S
C3148 H3134 0.960 . S
C3148 H3135 0.960 . S
C3148 C3147 1.524 . S
C3149 C3146 1.403 . S
C3149 C3150 1.392 . S
C3149 C3153 1.495 . S
C3150 C3149 1.392 . S
C3150 C3151 1.385 . S
C3150 C3152 1.478 . S
C3151 H3145 0.930 . S
C3151 C3147 1.400 . S
C3151 C3150 1.385 . S
C3152 C3150 1.478 . S
C3152 C3154 1.381 . S
C3152 C3158 1.383 . S
C3153 C3149 1.495 . S
C3153 H3159 0.959 . S
C3153 H3160 0.961 . S
C3153 H3161 0.960 . S
C3154 C3152 1.381 . S
C3154 C3155 1.394 . S
C3154 H3162 0.930 . S
C3155 C3154 1.394 . S
C3155 C3156 1.383 . S
C3155 H3163 0.929 . S
C3156 C3155 1.383 . S
C3156 C3157 1.377 . S
C3157 H3141 0.930 . S
C3157 C3156 1.377 . S
C3157 C3158 1.379 . S
C3158 H3142 0.931 . S
C3158 C3152 1.383 . S
C3158 C3157 1.379 . S
H3159 C3153 0.959 . S
H3160 C3153 0.961 . S
H3161 C3153 0.960 . S
H3162 C3154 0.930 . S
H3163 C3155 0.929 . S
H3164 C3172 0.929 . S
H3165 C3174 0.930 . S
H3166 C3176 0.930 . S
H3167 C3179 0.929 . S
H3168 C3182 0.930 . S
H3169 C3184 0.960 . S
H3170 C3184 0.960 . S
H3171 C3184 0.960 . S
C3172 H3164 0.929 . S
C3172 C3173 1.377 . S
C3172 C3174 1.384 . S
C3173 C3172 1.377 . S
C3173 C3179 1.390 . S
C3174 H3165 0.930 . S
C3174 C3172 1.384 . S
C3174 C3175 1.372 . S
C3175 C3174 1.372 . S
C3175 C3176 1.400 . S
C3175 C3180 1.490 . S
C3176 H3166 0.930 . S
C3176 C3175 1.400 . S
C3176 C3179 1.386 . S
H3177 C3193 0.930 . S
H3178 C3194 0.931 . S
C3179 H3167 0.929 . S
C3179 C3173 1.390 . S
C3179 C3176 1.386 . S
C3180 C3175 1.490 . S
C3180 C3182 1.395 . S
C3180 C3183 1.403 . S
H3181 C3187 0.930 . S
C3182 H3168 0.930 . S
C3182 C3180 1.395 . S
C3182 C3185 1.403 . S
C3183 C3180 1.403 . S
C3183 C3184 1.524 . S
C3183 C3187 1.400 . S
C3184 H3169 0.960 . S
C3184 H3170 0.960 . S
C3184 H3171 0.960 . S
C3184 C3183 1.524 . S
C3185 C3182 1.403 . S
C3185 C3186 1.392 . S
C3185 C3189 1.495 . S
C3186 C3185 1.392 . S
C3186 C3187 1.385 . S
C3186 C3188 1.478 . S
C3187 H3181 0.930 . S
C3187 C3183 1.400 . S
C3187 C3186 1.385 . S
C3188 C3186 1.478 . S
C3188 C3190 1.381 . S
C3188 C3194 1.383 . S
C3189 C3185 1.495 . S
C3189 H3195 0.959 . S
C3189 H3196 0.961 . S
C3189 H3197 0.960 . S
C3190 C3188 1.381 . S
C3190 C3191 1.394 . S
C3190 H3198 0.930 . S
C3191 C3190 1.394 . S
C3191 C3192 1.383 . S
C3191 H3199 0.929 . S
C3192 C3191 1.383 . S
C3192 C3193 1.377 . S
C3193 H3177 0.930 . S
C3193 C3192 1.377 . S
C3193 C3194 1.379 . S
C3194 H3178 0.931 . S
C3194 C3188 1.383 . S
C3194 C3193 1.379 . S
H3195 C3189 0.959 . S
H3196 C3189 0.961 . S
H3197 C3189 0.960 . S
H3198 C3190 0.930 . S
H3199 C3191 0.929 . S
H3200 C3208 0.929 . S
H3201 C3210 0.930 . S
H3202 C3212 0.930 . S
H3203 C3215 0.929 . S
H3204 C3218 0.930 . S
H3205 C3220 0.960 . S
H3206 C3220 0.960 . S
H3207 C3220 0.960 . S
C3208 H3200 0.929 . S
C3208 C3209 1.377 . S
C3208 C3210 1.384 . S
C3209 C3208 1.377 . S
C3209 C3215 1.390 . S
C3210 H3201 0.930 . S
C3210 C3208 1.384 . S
C3210 C3211 1.372 . S
C3211 C3210 1.372 . S
C3211 C3212 1.400 . S
C3211 C3216 1.490 . S
C3212 H3202 0.930 . S
C3212 C3211 1.400 . S
C3212 C3215 1.386 . S
H3213 C3229 0.930 . S
H3214 C3230 0.931 . S
C3215 H3203 0.929 . S
C3215 C3209 1.390 . S
C3215 C3212 1.386 . S
C3216 C3211 1.490 . S
C3216 C3218 1.395 . S
C3216 C3219 1.403 . S
H3217 C3223 0.930 . S
C3218 H3204 0.930 . S
C3218 C3216 1.395 . S
C3218 C3221 1.403 . S
C3219 C3216 1.403 . S
C3219 C3220 1.524 . S
C3219 C3223 1.400 . S
C3220 H3205 0.960 . S
C3220 H3206 0.960 . S
C3220 H3207 0.960 . S
C3220 C3219 1.524 . S
C3221 C3218 1.403 . S
C3221 C3222 1.392 . S
C3221 C3225 1.495 . S
C3222 C3221 1.392 . S
C3222 C3223 1.385 . S
C3222 C3224 1.478 . S
C3223 H3217 0.930 . S
C3223 C3219 1.400 . S
C3223 C3222 1.385 . S
C3224 C3222 1.478 . S
C3224 C3226 1.381 . S
C3224 C3230 1.383 . S
C3225 C3221 1.495 . S
C3225 H3231 0.959 . S
C3225 H3232 0.961 . S
C3225 H3233 0.960 . S
C3226 C3224 1.381 . S
C3226 C3227 1.394 . S
C3226 H3234 0.930 . S
C3227 C3226 1.394 . S
C3227 C3228 1.383 . S
C3227 H3235 0.929 . S
C3228 C3227 1.383 . S
C3228 C3229 1.377 . S
C3229 H3213 0.930 . S
C3229 C3228 1.377 . S
C3229 C3230 1.379 . S
C3230 H3214 0.931 . S
C3230 C3224 1.383 . S
C3230 C3229 1.379 . S
H3231 C3225 0.959 . S
H3232 C3225 0.961 . S
H3233 C3225 0.960 . S
H3234 C3226 0.930 . S
H3235 C3227 0.929 . S
H3236 C3244 0.929 . S
H3237 C3246 0.930 . S
H3238 C3248 0.930 . S
H3239 C3251 0.929 . S
H3240 C3254 0.930 . S
H3241 C3256 0.960 . S
H3242 C3256 0.960 . S
H3243 C3256 0.960 . S
C3244 H3236 0.929 . S
C3244 C3245 1.377 . S
C3244 C3246 1.384 . S
C3245 C3244 1.377 . S
C3245 C3251 1.390 . S
C3246 H3237 0.930 . S
C3246 C3244 1.384 . S
C3246 C3247 1.372 . S
C3247 C3246 1.372 . S
C3247 C3248 1.400 . S
C3247 C3252 1.490 . S
C3248 H3238 0.930 . S
C3248 C3247 1.400 . S
C3248 C3251 1.386 . S
H3249 C3265 0.930 . S
H3250 C3266 0.931 . S
C3251 H3239 0.929 . S
C3251 C3245 1.390 . S
C3251 C3248 1.386 . S
C3252 C3247 1.490 . S
C3252 C3254 1.395 . S
C3252 C3255 1.403 . S
H3253 C3259 0.930 . S
C3254 H3240 0.930 . S
C3254 C3252 1.395 . S
C3254 C3257 1.403 . S
C3255 C3252 1.403 . S
C3255 C3256 1.524 . S
C3255 C3259 1.400 . S
C3256 H3241 0.960 . S
C3256 H3242 0.960 . S
C3256 H3243 0.960 . S
C3256 C3255 1.524 . S
C3257 C3254 1.403 . S
C3257 C3258 1.392 . S
C3257 C3261 1.495 . S
C3258 C3257 1.392 . S
C3258 C3259 1.385 . S
C3258 C3260 1.478 . S
C3259 H3253 0.930 . S
C3259 C3255 1.400 . S
C3259 C3258 1.385 . S
C3260 C3258 1.478 . S
C3260 C3262 1.381 . S
C3260 C3266 1.383 . S
C3261 C3257 1.495 . S
C3261 H3267 0.959 . S
C3261 H3268 0.961 . S
C3261 H3269 0.960 . S
C3262 C3260 1.381 . S
C3262 C3263 1.394 . S
C3262 H3270 0.930 . S
C3263 C3262 1.394 . S
C3263 C3264 1.383 . S
C3263 H3271 0.929 . S
C3264 C3263 1.383 . S
C3264 C3265 1.377 . S
C3265 H3249 0.930 . S
C3265 C3264 1.377 . S
C3265 C3266 1.379 . S
C3266 H3250 0.931 . S
C3266 C3260 1.383 . S
C3266 C3265 1.379 . S
H3267 C3261 0.959 . S
H3268 C3261 0.961 . S
H3269 C3261 0.960 . S
H3270 C3262 0.930 . S
H3271 C3263 0.929 . S
H3272 C3280 0.929 . S
H3273 C3282 0.930 . S
H3274 C3284 0.930 . S
H3275 C3287 0.929 . S
H3276 C3290 0.930 . S
H3277 C3292 0.960 . S
H3278 C3292 0.960 . S
H3279 C3292 0.960 . S
C3280 H3272 0.929 . S
C3280 C3281 1.377 . S
C3280 C3282 1.384 . S
C3281 C3280 1.377 . S
C3281 C3287 1.390 . S
C3282 H3273 0.930 . S
C3282 C3280 1.384 . S
C3282 C3283 1.372 . S
C3283 C3282 1.372 . S
C3283 C3284 1.400 . S
C3283 C3288 1.490 . S
C3284 H3274 0.930 . S
C3284 C3283 1.400 . S
C3284 C3287 1.386 . S
H3285 C3301 0.930 . S
H3286 C3302 0.931 . S
C3287 H3275 0.929 . S
C3287 C3281 1.390 . S
C3287 C3284 1.386 . S
C3288 C3283 1.490 . S
C3288 C3290 1.395 . S
C3288 C3291 1.403 . S
H3289 C3295 0.930 . S
C3290 H3276 0.930 . S
C3290 C3288 1.395 . S
C3290 C3293 1.403 . S
C3291 C3288 1.403 . S
C3291 C3292 1.524 . S
C3291 C3295 1.400 . S
C3292 H3277 0.960 . S
C3292 H3278 0.960 . S
C3292 H3279 0.960 . S
C3292 C3291 1.524 . S
C3293 C3290 1.403 . S
C3293 C3294 1.392 . S
C3293 C3297 1.495 . S
C3294 C3293 1.392 . S
C3294 C3295 1.385 . S
C3294 C3296 1.478 . S
C3295 H3289 0.930 . S
C3295 C3291 1.400 . S
C3295 C3294 1.385 . S
C3296 C3294 1.478 . S
C3296 C3298 1.381 . S
C3296 C3302 1.383 . S
C3297 C3293 1.495 . S
C3297 H3303 0.959 . S
C3297 H3304 0.961 . S
C3297 H3305 0.960 . S
C3298 C3296 1.381 . S
C3298 C3299 1.394 . S
C3298 H3306 0.930 . S
C3299 C3298 1.394 . S
C3299 C3300 1.383 . S
C3299 H3307 0.929 . S
C3300 C3299 1.383 . S
C3300 C3301 1.377 . S
C3301 H3285 0.930 . S
C3301 C3300 1.377 . S
C3301 C3302 1.379 . S
C3302 H3286 0.931 . S
C3302 C3296 1.383 . S
C3302 C3301 1.379 . S
H3303 C3297 0.959 . S
H3304 C3297 0.961 . S
H3305 C3297 0.960 . S
H3306 C3298 0.930 . S
H3307 C3299 0.929 . S
H3308 C3316 0.929 . S
H3309 C3318 0.930 . S
H3310 C3320 0.930 . S
H3311 C3323 0.929 . S
H3312 C3326 0.930 . S
H3313 C3328 0.960 . S
H3314 C3328 0.960 . S
H3315 C3328 0.960 . S
C3316 H3308 0.929 . S
C3316 C3317 1.377 . S
C3316 C3318 1.384 . S
C3317 C3316 1.377 . S
C3317 C3323 1.390 . S
C3318 H3309 0.930 . S
C3318 C3316 1.384 . S
C3318 C3319 1.372 . S
C3319 C3318 1.372 . S
C3319 C3320 1.400 . S
C3319 C3324 1.490 . S
C3320 H3310 0.930 . S
C3320 C3319 1.400 . S
C3320 C3323 1.386 . S
H3321 C3337 0.930 . S
H3322 C3338 0.931 . S
C3323 H3311 0.929 . S
C3323 C3317 1.390 . S
C3323 C3320 1.386 . S
C3324 C3319 1.490 . S
C3324 C3326 1.395 . S
C3324 C3327 1.403 . S
H3325 C3331 0.930 . S
C3326 H3312 0.930 . S
C3326 C3324 1.395 . S
C3326 C3329 1.403 . S
C3327 C3324 1.403 . S
C3327 C3328 1.524 . S
C3327 C3331 1.400 . S
C3328 H3313 0.960 . S
C3328 H3314 0.960 . S
C3328 H3315 0.960 . S
C3328 C3327 1.524 . S
C3329 C3326 1.403 . S
C3329 C3330 1.392 . S
C3329 C3333 1.495 . S
C3330 C3329 1.392 . S
C3330 C3331 1.385 . S
C3330 C3332 1.478 . S
C3331 H3325 0.930 . S
C3331 C3327 1.400 . S
C3331 C3330 1.385 . S
C3332 C3330 1.478 . S
C3332 C3334 1.381 . S
C3332 C3338 1.383 . S
C3333 C3329 1.495 . S
C3333 H3339 0.959 . S
C3333 H3340 0.961 . S
C3333 H3341 0.960 . S
C3334 C3332 1.381 . S
C3334 C3335 1.394 . S
C3334 H3342 0.930 . S
C3335 C3334 1.394 . S
C3335 C3336 1.383 . S
C3335 H3343 0.929 . S
C3336 C3335 1.383 . S
C3336 C3337 1.377 . S
C3337 H3321 0.930 . S
C3337 C3336 1.377 . S
C3337 C3338 1.379 . S
C3338 H3322 0.931 . S
C3338 C3332 1.383 . S
C3338 C3337 1.379 . S
H3339 C3333 0.959 . S
H3340 C3333 0.961 . S
H3341 C3333 0.960 . S
H3342 C3334 0.930 . S
H3343 C3335 0.929 . S
H3344 C3352 0.929 . S
H3345 C3354 0.930 . S
H3346 C3356 0.930 . S
H3347 C3359 0.929 . S
H3348 C3362 0.930 . S
H3349 C3364 0.960 . S
H3350 C3364 0.960 . S
H3351 C3364 0.960 . S
C3352 H3344 0.929 . S
C3352 C3353 1.377 . S
C3352 C3354 1.384 . S
C3353 C3352 1.377 . S
C3353 C3359 1.390 . S
C3354 H3345 0.930 . S
C3354 C3352 1.384 . S
C3354 C3355 1.372 . S
C3355 C3354 1.372 . S
C3355 C3356 1.400 . S
C3355 C3360 1.490 . S
C3356 H3346 0.930 . S
C3356 C3355 1.400 . S
C3356 C3359 1.386 . S
H3357 C3373 0.930 . S
H3358 C3374 0.931 . S
C3359 H3347 0.929 . S
C3359 C3353 1.390 . S
C3359 C3356 1.386 . S
C3360 C3355 1.490 . S
C3360 C3362 1.395 . S
C3360 C3363 1.403 . S
H3361 C3367 0.930 . S
C3362 H3348 0.930 . S
C3362 C3360 1.395 . S
C3362 C3365 1.403 . S
C3363 C3360 1.403 . S
C3363 C3364 1.524 . S
C3363 C3367 1.400 . S
C3364 H3349 0.960 . S
C3364 H3350 0.960 . S
C3364 H3351 0.960 . S
C3364 C3363 1.524 . S
C3365 C3362 1.403 . S
C3365 C3366 1.392 . S
C3365 C3369 1.495 . S
C3366 C3365 1.392 . S
C3366 C3367 1.385 . S
C3366 C3368 1.478 . S
C3367 H3361 0.930 . S
C3367 C3363 1.400 . S
C3367 C3366 1.385 . S
C3368 C3366 1.478 . S
C3368 C3370 1.381 . S
C3368 C3374 1.383 . S
C3369 C3365 1.495 . S
C3369 H3375 0.959 . S
C3369 H3376 0.961 . S
C3369 H3377 0.960 . S
C3370 C3368 1.381 . S
C3370 C3371 1.394 . S
C3370 H3378 0.930 . S
C3371 C3370 1.394 . S
C3371 C3372 1.383 . S
C3371 H3379 0.929 . S
C3372 C3371 1.383 . S
C3372 C3373 1.377 . S
C3373 H3357 0.930 . S
C3373 C3372 1.377 . S
C3373 C3374 1.379 . S
C3374 H3358 0.931 . S
C3374 C3368 1.383 . S
C3374 C3373 1.379 . S
H3375 C3369 0.959 . S
H3376 C3369 0.961 . S
H3377 C3369 0.960 . S
H3378 C3370 0.930 . S
H3379 C3371 0.929 . S
H3380 C3388 0.929 . S
H3381 C3390 0.930 . S
H3382 C3392 0.930 . S
H3383 C3395 0.929 . S
H3384 C3398 0.930 . S
H3385 C3400 0.960 . S
H3386 C3400 0.960 . S
H3387 C3400 0.960 . S
C3388 H3380 0.929 . S
C3388 C3389 1.377 . S
C3388 C3390 1.384 . S
C3389 C3388 1.377 . S
C3389 C3395 1.390 . S
C3390 H3381 0.930 . S
C3390 C3388 1.384 . S
C3390 C3391 1.372 . S
C3391 C3390 1.372 . S
C3391 C3392 1.400 . S
C3391 C3396 1.490 . S
C3392 H3382 0.930 . S
C3392 C3391 1.400 . S
C3392 C3395 1.386 . S
H3393 C3409 0.930 . S
H3394 C3410 0.931 . S
C3395 H3383 0.929 . S
C3395 C3389 1.390 . S
C3395 C3392 1.386 . S
C3396 C3391 1.490 . S
C3396 C3398 1.395 . S
C3396 C3399 1.403 . S
H3397 C3403 0.930 . S
C3398 H3384 0.930 . S
C3398 C3396 1.395 . S
C3398 C3401 1.403 . S
C3399 C3396 1.403 . S
C3399 C3400 1.524 . S
C3399 C3403 1.400 . S
C3400 H3385 0.960 . S
C3400 H3386 0.960 . S
C3400 H3387 0.960 . S
C3400 C3399 1.524 . S
C3401 C3398 1.403 . S
C3401 C3402 1.392 . S
C3401 C3405 1.495 . S
C3402 C3401 1.392 . S
C3402 C3403 1.385 . S
C3402 C3404 1.478 . S
C3403 H3397 0.930 . S
C3403 C3399 1.400 . S
C3403 C3402 1.385 . S
C3404 C3402 1.478 . S
C3404 C3406 1.381 . S
C3404 C3410 1.383 . S
C3405 C3401 1.495 . S
C3405 H3411 0.959 . S
C3405 H3412 0.961 . S
C3405 H3413 0.960 . S
C3406 C3404 1.381 . S
C3406 C3407 1.394 . S
C3406 H3414 0.930 . S
C3407 C3406 1.394 . S
C3407 C3408 1.383 . S
C3407 H3415 0.929 . S
C3408 C3407 1.383 . S
C3408 C3409 1.377 . S
C3409 H3393 0.930 . S
C3409 C3408 1.377 . S
C3409 C3410 1.379 . S
C3410 H3394 0.931 . S
C3410 C3404 1.383 . S
C3410 C3409 1.379 . S
H3411 C3405 0.959 . S
H3412 C3405 0.961 . S
H3413 C3405 0.960 . S
H3414 C3406 0.930 . S
H3415 C3407 0.929 . S
H3416 C3424 0.929 . S
H3417 C3426 0.930 . S
H3418 C3428 0.930 . S
H3419 C3431 0.929 . S
H3420 C3434 0.930 . S
H3421 C3436 0.960 . S
H3422 C3436 0.960 . S
H3423 C3436 0.960 . S
C3424 H3416 0.929 . S
C3424 C3425 1.377 . S
C3424 C3426 1.384 . S
C3425 C3424 1.377 . S
C3425 C3431 1.390 . S
C3426 H3417 0.930 . S
C3426 C3424 1.384 . S
C3426 C3427 1.372 . S
C3427 C3426 1.372 . S
C3427 C3428 1.400 . S
C3427 C3432 1.490 . S
C3428 H3418 0.930 . S
C3428 C3427 1.400 . S
C3428 C3431 1.386 . S
H3429 C3445 0.930 . S
H3430 C3446 0.931 . S
C3431 H3419 0.929 . S
C3431 C3425 1.390 . S
C3431 C3428 1.386 . S
C3432 C3427 1.490 . S
C3432 C3434 1.395 . S
C3432 C3435 1.403 . S
H3433 C3439 0.930 . S
C3434 H3420 0.930 . S
C3434 C3432 1.395 . S
C3434 C3437 1.403 . S
C3435 C3432 1.403 . S
C3435 C3436 1.524 . S
C3435 C3439 1.400 . S
C3436 H3421 0.960 . S
C3436 H3422 0.960 . S
C3436 H3423 0.960 . S
C3436 C3435 1.524 . S
C3437 C3434 1.403 . S
C3437 C3438 1.392 . S
C3437 C3441 1.495 . S
C3438 C3437 1.392 . S
C3438 C3439 1.385 . S
C3438 C3440 1.478 . S
C3439 H3433 0.930 . S
C3439 C3435 1.400 . S
C3439 C3438 1.385 . S
C3440 C3438 1.478 . S
C3440 C3442 1.381 . S
C3440 C3446 1.383 . S
C3441 C3437 1.495 . S
C3441 H3447 0.959 . S
C3441 H3448 0.961 . S
C3441 H3449 0.960 . S
C3442 C3440 1.381 . S
C3442 C3443 1.394 . S
C3442 H3450 0.930 . S
C3443 C3442 1.394 . S
C3443 C3444 1.383 . S
C3443 H3451 0.929 . S
C3444 C3443 1.383 . S
C3444 C3445 1.377 . S
C3445 H3429 0.930 . S
C3445 C3444 1.377 . S
C3445 C3446 1.379 . S
C3446 H3430 0.931 . S
C3446 C3440 1.383 . S
C3446 C3445 1.379 . S
H3447 C3441 0.959 . S
H3448 C3441 0.961 . S
H3449 C3441 0.960 . S
H3450 C3442 0.930 . S
H3451 C3443 0.929 . S
H3452 C3460 0.929 . S
H3453 C3462 0.930 . S
H3454 C3464 0.930 . S
H3455 C3467 0.929 . S
H3456 C3470 0.930 . S
H3457 C3472 0.960 . S
H3458 C3472 0.960 . S
H3459 C3472 0.960 . S
C3460 H3452 0.929 . S
C3460 C3461 1.377 . S
C3460 C3462 1.384 . S
C3461 C3460 1.377 . S
C3461 C3467 1.390 . S
C3462 H3453 0.930 . S
C3462 C3460 1.384 . S
C3462 C3463 1.372 . S
C3463 C3462 1.372 . S
C3463 C3464 1.400 . S
C3463 C3468 1.490 . S
C3464 H3454 0.930 . S
C3464 C3463 1.400 . S
C3464 C3467 1.386 . S
H3465 C3481 0.930 . S
H3466 C3482 0.931 . S
C3467 H3455 0.929 . S
C3467 C3461 1.390 . S
C3467 C3464 1.386 . S
C3468 C3463 1.490 . S
C3468 C3470 1.395 . S
C3468 C3471 1.403 . S
H3469 C3475 0.930 . S
C3470 H3456 0.930 . S
C3470 C3468 1.395 . S
C3470 C3473 1.403 . S
C3471 C3468 1.403 . S
C3471 C3472 1.524 . S
C3471 C3475 1.400 . S
C3472 H3457 0.960 . S
C3472 H3458 0.960 . S
C3472 H3459 0.960 . S
C3472 C3471 1.524 . S
C3473 C3470 1.403 . S
C3473 C3474 1.392 . S
C3473 C3477 1.495 . S
C3474 C3473 1.392 . S
C3474 C3475 1.385 . S
C3474 C3476 1.478 . S
C3475 H3469 0.930 . S
C3475 C3471 1.400 . S
C3475 C3474 1.385 . S
C3476 C3474 1.478 . S
C3476 C3478 1.381 . S
C3476 C3482 1.383 . S
C3477 C3473 1.495 . S
C3477 H3483 0.959 . S
C3477 H3484 0.961 . S
C3477 H3485 0.960 . S
C3478 C3476 1.381 . S
C3478 C3479 1.394 . S
C3478 H3486 0.930 . S
C3479 C3478 1.394 . S
C3479 C3480 1.383 . S
C3479 H3487 0.929 . S
C3480 C3479 1.383 . S
C3480 C3481 1.377 . S
C3481 H3465 0.930 . S
C3481 C3480 1.377 . S
C3481 C3482 1.379 . S
C3482 H3466 0.931 . S
C3482 C3476 1.383 . S
C3482 C3481 1.379 . S
H3483 C3477 0.959 . S
H3484 C3477 0.961 . S
H3485 C3477 0.960 . S
H3486 C3478 0.930 . S
H3487 C3479 0.929 . S
H3488 C3496 0.929 . S
H3489 C3498 0.930 . S
H3490 C3500 0.930 . S
H3491 C3503 0.929 . S
H3492 C3506 0.930 . S
H3493 C3508 0.960 . S
H3494 C3508 0.960 . S
H3495 C3508 0.960 . S
C3496 H3488 0.929 . S
C3496 C3497 1.377 . S
C3496 C3498 1.384 . S
C3497 C3496 1.377 . S
C3497 C3503 1.390 . S
C3498 H3489 0.930 . S
C3498 C3496 1.384 . S
C3498 C3499 1.372 . S
C3499 C3498 1.372 . S
C3499 C3500 1.400 . S
C3499 C3504 1.490 . S
C3500 H3490 0.930 . S
C3500 C3499 1.400 . S
C3500 C3503 1.386 . S
H3501 C3517 0.930 . S
H3502 C3518 0.931 . S
C3503 H3491 0.929 . S
C3503 C3497 1.390 . S
C3503 C3500 1.386 . S
C3504 C3499 1.490 . S
C3504 C3506 1.395 . S
C3504 C3507 1.403 . S
H3505 C3511 0.930 . S
C3506 H3492 0.930 . S
C3506 C3504 1.395 . S
C3506 C3509 1.403 . S
C3507 C3504 1.403 . S
C3507 C3508 1.524 . S
C3507 C3511 1.400 . S
C3508 H3493 0.960 . S
C3508 H3494 0.960 . S
C3508 H3495 0.960 . S
C3508 C3507 1.524 . S
C3509 C3506 1.403 . S
C3509 C3510 1.392 . S
C3509 C3513 1.495 . S
C3510 C3509 1.392 . S
C3510 C3511 1.385 . S
C3510 C3512 1.478 . S
C3511 H3505 0.930 . S
C3511 C3507 1.400 . S
C3511 C3510 1.385 . S
C3512 C3510 1.478 . S
C3512 C3514 1.381 . S
C3512 C3518 1.383 . S
C3513 C3509 1.495 . S
C3513 H3519 0.959 . S
C3513 H3520 0.961 . S
C3513 H3521 0.960 . S
C3514 C3512 1.381 . S
C3514 C3515 1.394 . S
C3514 H3522 0.930 . S
C3515 C3514 1.394 . S
C3515 C3516 1.383 . S
C3515 H3523 0.929 . S
C3516 C3515 1.383 . S
C3516 C3517 1.377 . S
C3517 H3501 0.930 . S
C3517 C3516 1.377 . S
C3517 C3518 1.379 . S
C3518 H3502 0.931 . S
C3518 C3512 1.383 . S
C3518 C3517 1.379 . S
H3519 C3513 0.959 . S
H3520 C3513 0.961 . S
H3521 C3513 0.960 . S
H3522 C3514 0.930 . S
H3523 C3515 0.929 . S
H3524 C3532 0.929 . S
H3525 C3534 0.930 . S
H3526 C3536 0.930 . S
H3527 C3539 0.929 . S
H3528 C3542 0.930 . S
H3529 C3544 0.960 . S
H3530 C3544 0.960 . S
H3531 C3544 0.960 . S
C3532 H3524 0.929 . S
C3532 C3533 1.377 . S
C3532 C3534 1.384 . S
C3533 C3532 1.377 . S
C3533 C3539 1.390 . S
C3534 H3525 0.930 . S
C3534 C3532 1.384 . S
C3534 C3535 1.372 . S
C3535 C3534 1.372 . S
C3535 C3536 1.400 . S
C3535 C3540 1.490 . S
C3536 H3526 0.930 . S
C3536 C3535 1.400 . S
C3536 C3539 1.386 . S
H3537 C3553 0.930 . S
H3538 C3554 0.931 . S
C3539 H3527 0.929 . S
C3539 C3533 1.390 . S
C3539 C3536 1.386 . S
C3540 C3535 1.490 . S
C3540 C3542 1.395 . S
C3540 C3543 1.403 . S
H3541 C3547 0.930 . S
C3542 H3528 0.930 . S
C3542 C3540 1.395 . S
C3542 C3545 1.403 . S
C3543 C3540 1.403 . S
C3543 C3544 1.524 . S
C3543 C3547 1.400 . S
C3544 H3529 0.960 . S
C3544 H3530 0.960 . S
C3544 H3531 0.960 . S
C3544 C3543 1.524 . S
C3545 C3542 1.403 . S
C3545 C3546 1.392 . S
C3545 C3549 1.495 . S
C3546 C3545 1.392 . S
C3546 C3547 1.385 . S
C3546 C3548 1.478 . S
C3547 H3541 0.930 . S
C3547 C3543 1.400 . S
C3547 C3546 1.385 . S
C3548 C3546 1.478 . S
C3548 C3550 1.381 . S
C3548 C3554 1.383 . S
C3549 C3545 1.495 . S
C3549 H3555 0.959 . S
C3549 H3556 0.961 . S
C3549 H3557 0.960 . S
C3550 C3548 1.381 . S
C3550 C3551 1.394 . S
C3550 H3558 0.930 . S
C3551 C3550 1.394 . S
C3551 C3552 1.383 . S
C3551 H3559 0.929 . S
C3552 C3551 1.383 . S
C3552 C3553 1.377 . S
C3553 H3537 0.930 . S
C3553 C3552 1.377 . S
C3553 C3554 1.379 . S
C3554 H3538 0.931 . S
C3554 C3548 1.383 . S
C3554 C3553 1.379 . S
H3555 C3549 0.959 . S
H3556 C3549 0.961 . S
H3557 C3549 0.960 . S
H3558 C3550 0.930 . S
H3559 C3551 0.929 . S
H3560 C3568 0.929 . S
H3561 C3570 0.930 . S
H3562 C3572 0.930 . S
H3563 C3575 0.929 . S
H3564 C3578 0.930 . S
H3565 C3580 0.960 . S
H3566 C3580 0.960 . S
H3567 C3580 0.960 . S
C3568 H3560 0.929 . S
C3568 C3569 1.377 . S
C3568 C3570 1.384 . S
C3569 C3568 1.377 . S
C3569 C3575 1.390 . S
C3570 H3561 0.930 . S
C3570 C3568 1.384 . S
C3570 C3571 1.372 . S
C3571 C3570 1.372 . S
C3571 C3572 1.400 . S
C3571 C3576 1.490 . S
C3572 H3562 0.930 . S
C3572 C3571 1.400 . S
C3572 C3575 1.386 . S
H3573 C3589 0.930 . S
H3574 C3590 0.931 . S
C3575 H3563 0.929 . S
C3575 C3569 1.390 . S
C3575 C3572 1.386 . S
C3576 C3571 1.490 . S
C3576 C3578 1.395 . S
C3576 C3579 1.403 . S
H3577 C3583 0.930 . S
C3578 H3564 0.930 . S
C3578 C3576 1.395 . S
C3578 C3581 1.403 . S
C3579 C3576 1.403 . S
C3579 C3580 1.524 . S
C3579 C3583 1.400 . S
C3580 H3565 0.960 . S
C3580 H3566 0.960 . S
C3580 H3567 0.960 . S
C3580 C3579 1.524 . S
C3581 C3578 1.403 . S
C3581 C3582 1.392 . S
C3581 C3585 1.495 . S
C3582 C3581 1.392 . S
C3582 C3583 1.385 . S
C3582 C3584 1.478 . S
C3583 H3577 0.930 . S
C3583 C3579 1.400 . S
C3583 C3582 1.385 . S
C3584 C3582 1.478 . S
C3584 C3586 1.381 . S
C3584 C3590 1.383 . S
C3585 C3581 1.495 . S
C3585 H3591 0.959 . S
C3585 H3592 0.961 . S
C3585 H3593 0.960 . S
C3586 C3584 1.381 . S
C3586 C3587 1.394 . S
C3586 H3594 0.930 . S
C3587 C3586 1.394 . S
C3587 C3588 1.383 . S
C3587 H3595 0.929 . S
C3588 C3587 1.383 . S
C3588 C3589 1.377 . S
C3589 H3573 0.930 . S
C3589 C3588 1.377 . S
C3589 C3590 1.379 . S
C3590 H3574 0.931 . S
C3590 C3584 1.383 . S
C3590 C3589 1.379 . S
H3591 C3585 0.959 . S
H3592 C3585 0.961 . S
H3593 C3585 0.960 . S
H3594 C3586 0.930 . S
H3595 C3587 0.929 . S
H3596 C3604 0.929 . S
H3597 C3606 0.930 . S
H3598 C3608 0.930 . S
H3599 C3611 0.929 . S
H3600 C3614 0.930 . S
H3601 C3616 0.960 . S
H3602 C3616 0.960 . S
H3603 C3616 0.960 . S
C3604 H3596 0.929 . S
C3604 C3605 1.377 . S
C3604 C3606 1.384 . S
C3605 C3604 1.377 . S
C3605 C3611 1.390 . S
C3606 H3597 0.930 . S
C3606 C3604 1.384 . S
C3606 C3607 1.372 . S
C3607 C3606 1.372 . S
C3607 C3608 1.400 . S
C3607 C3612 1.490 . S
C3608 H3598 0.930 . S
C3608 C3607 1.400 . S
C3608 C3611 1.386 . S
H3609 C3625 0.930 . S
H3610 C3626 0.931 . S
C3611 H3599 0.929 . S
C3611 C3605 1.390 . S
C3611 C3608 1.386 . S
C3612 C3607 1.490 . S
C3612 C3614 1.395 . S
C3612 C3615 1.403 . S
H3613 C3619 0.930 . S
C3614 H3600 0.930 . S
C3614 C3612 1.395 . S
C3614 C3617 1.403 . S
C3615 C3612 1.403 . S
C3615 C3616 1.524 . S
C3615 C3619 1.400 . S
C3616 H3601 0.960 . S
C3616 H3602 0.960 . S
C3616 H3603 0.960 . S
C3616 C3615 1.524 . S
C3617 C3614 1.403 . S
C3617 C3618 1.392 . S
C3617 C3621 1.495 . S
C3618 C3617 1.392 . S
C3618 C3619 1.385 . S
C3618 C3620 1.478 . S
C3619 H3613 0.930 . S
C3619 C3615 1.400 . S
C3619 C3618 1.385 . S
C3620 C3618 1.478 . S
C3620 C3622 1.381 . S
C3620 C3626 1.383 . S
C3621 C3617 1.495 . S
C3621 H3627 0.959 . S
C3621 H3628 0.961 . S
C3621 H3629 0.960 . S
C3622 C3620 1.381 . S
C3622 C3623 1.394 . S
C3622 H3630 0.930 . S
C3623 C3622 1.394 . S
C3623 C3624 1.383 . S
C3623 H3631 0.929 . S
C3624 C3623 1.383 . S
C3624 C3625 1.377 . S
C3625 H3609 0.930 . S
C3625 C3624 1.377 . S
C3625 C3626 1.379 . S
C3626 H3610 0.931 . S
C3626 C3620 1.383 . S
C3626 C3625 1.379 . S
H3627 C3621 0.959 . S
H3628 C3621 0.961 . S
H3629 C3621 0.960 . S
H3630 C3622 0.930 . S
H3631 C3623 0.929 . S
H3632 C3640 0.929 . S
H3633 C3642 0.930 . S
H3634 C3644 0.930 . S
H3635 C3647 0.929 . S
H3636 C3650 0.930 . S
H3637 C3652 0.960 . S
H3638 C3652 0.960 . S
H3639 C3652 0.960 . S
C3640 H3632 0.929 . S
C3640 C3641 1.377 . S
C3640 C3642 1.384 . S
C3641 C3640 1.377 . S
C3641 C3647 1.390 . S
C3642 H3633 0.930 . S
C3642 C3640 1.384 . S
C3642 C3643 1.372 . S
C3643 C3642 1.372 . S
C3643 C3644 1.400 . S
C3643 C3648 1.490 . S
C3644 H3634 0.930 . S
C3644 C3643 1.400 . S
C3644 C3647 1.386 . S
H3645 C3661 0.930 . S
H3646 C3662 0.931 . S
C3647 H3635 0.929 . S
C3647 C3641 1.390 . S
C3647 C3644 1.386 . S
C3648 C3643 1.490 . S
C3648 C3650 1.395 . S
C3648 C3651 1.403 . S
H3649 C3655 0.930 . S
C3650 H3636 0.930 . S
C3650 C3648 1.395 . S
C3650 C3653 1.403 . S
C3651 C3648 1.403 . S
C3651 C3652 1.524 . S
C3651 C3655 1.400 . S
C3652 H3637 0.960 . S
C3652 H3638 0.960 . S
C3652 H3639 0.960 . S
C3652 C3651 1.524 . S
C3653 C3650 1.403 . S
C3653 C3654 1.392 . S
C3653 C3657 1.495 . S
C3654 C3653 1.392 . S
C3654 C3655 1.385 . S
C3654 C3656 1.478 . S
C3655 H3649 0.930 . S
C3655 C3651 1.400 . S
C3655 C3654 1.385 . S
C3656 C3654 1.478 . S
C3656 C3658 1.381 . S
C3656 C3662 1.383 . S
C3657 C3653 1.495 . S
C3657 H3663 0.959 . S
C3657 H3664 0.961 . S
C3657 H3665 0.960 . S
C3658 C3656 1.381 . S
C3658 C3659 1.394 . S
C3658 H3666 0.930 . S
C3659 C3658 1.394 . S
C3659 C3660 1.383 . S
C3659 H3667 0.929 . S
C3660 C3659 1.383 . S
C3660 C3661 1.377 . S
C3661 H3645 0.930 . S
C3661 C3660 1.377 . S
C3661 C3662 1.379 . S
C3662 H3646 0.931 . S
C3662 C3656 1.383 . S
C3662 C3661 1.379 . S
H3663 C3657 0.959 . S
H3664 C3657 0.961 . S
H3665 C3657 0.960 . S
H3666 C3658 0.930 . S
H3667 C3659 0.929 . S
H3668 C3676 0.929 . S
H3669 C3678 0.930 . S
H3670 C3680 0.930 . S
H3671 C3683 0.929 . S
H3672 C3686 0.930 . S
H3673 C3688 0.960 . S
H3674 C3688 0.960 . S
H3675 C3688 0.960 . S
C3676 H3668 0.929 . S
C3676 C3677 1.377 . S
C3676 C3678 1.384 . S
C3677 C3676 1.377 . S
C3677 C3683 1.390 . S
C3678 H3669 0.930 . S
C3678 C3676 1.384 . S
C3678 C3679 1.372 . S
C3679 C3678 1.372 . S
C3679 C3680 1.400 . S
C3679 C3684 1.490 . S
C3680 H3670 0.930 . S
C3680 C3679 1.400 . S
C3680 C3683 1.386 . S
H3681 C3697 0.930 . S
H3682 C3698 0.931 . S
C3683 H3671 0.929 . S
C3683 C3677 1.390 . S
C3683 C3680 1.386 . S
C3684 C3679 1.490 . S
C3684 C3686 1.395 . S
C3684 C3687 1.403 . S
H3685 C3691 0.930 . S
C3686 H3672 0.930 . S
C3686 C3684 1.395 . S
C3686 C3689 1.403 . S
C3687 C3684 1.403 . S
C3687 C3688 1.524 . S
C3687 C3691 1.400 . S
C3688 H3673 0.960 . S
C3688 H3674 0.960 . S
C3688 H3675 0.960 . S
C3688 C3687 1.524 . S
C3689 C3686 1.403 . S
C3689 C3690 1.392 . S
C3689 C3693 1.495 . S
C3690 C3689 1.392 . S
C3690 C3691 1.385 . S
C3690 C3692 1.478 . S
C3691 H3685 0.930 . S
C3691 C3687 1.400 . S
C3691 C3690 1.385 . S
C3692 C3690 1.478 . S
C3692 C3694 1.381 . S
C3692 C3698 1.383 . S
C3693 C3689 1.495 . S
C3693 H3699 0.959 . S
C3693 H3700 0.961 . S
C3693 H3701 0.960 . S
C3694 C3692 1.381 . S
C3694 C3695 1.394 . S
C3694 H3702 0.930 . S
C3695 C3694 1.394 . S
C3695 C3696 1.383 . S
C3695 H3703 0.929 . S
C3696 C3695 1.383 . S
C3696 C3697 1.377 . S
C3697 H3681 0.930 . S
C3697 C3696 1.377 . S
C3697 C3698 1.379 . S
C3698 H3682 0.931 . S
C3698 C3692 1.383 . S
C3698 C3697 1.379 . S
H3699 C3693 0.959 . S
H3700 C3693 0.961 . S
H3701 C3693 0.960 . S
H3702 C3694 0.930 . S
H3703 C3695 0.929 . S
H3704 C3712 0.929 . S
H3705 C3714 0.930 . S
H3706 C3716 0.930 . S
H3707 C3719 0.929 . S
H3708 C3722 0.930 . S
H3709 C3724 0.960 . S
H3710 C3724 0.960 . S
H3711 C3724 0.960 . S
C3712 H3704 0.929 . S
C3712 C3713 1.377 . S
C3712 C3714 1.384 . S
C3713 C3712 1.377 . S
C3713 C3719 1.390 . S
C3714 H3705 0.930 . S
C3714 C3712 1.384 . S
C3714 C3715 1.372 . S
C3715 C3714 1.372 . S
C3715 C3716 1.400 . S
C3715 C3720 1.490 . S
C3716 H3706 0.930 . S
C3716 C3715 1.400 . S
C3716 C3719 1.386 . S
H3717 C3733 0.930 . S
H3718 C3734 0.931 . S
C3719 H3707 0.929 . S
C3719 C3713 1.390 . S
C3719 C3716 1.386 . S
C3720 C3715 1.490 . S
C3720 C3722 1.395 . S
C3720 C3723 1.403 . S
H3721 C3727 0.930 . S
C3722 H3708 0.930 . S
C3722 C3720 1.395 . S
C3722 C3725 1.403 . S
C3723 C3720 1.403 . S
C3723 C3724 1.524 . S
C3723 C3727 1.400 . S
C3724 H3709 0.960 . S
C3724 H3710 0.960 . S
C3724 H3711 0.960 . S
C3724 C3723 1.524 . S
C3725 C3722 1.403 . S
C3725 C3726 1.392 . S
C3725 C3729 1.495 . S
C3726 C3725 1.392 . S
C3726 C3727 1.385 . S
C3726 C3728 1.478 . S
C3727 H3721 0.930 . S
C3727 C3723 1.400 . S
C3727 C3726 1.385 . S
C3728 C3726 1.478 . S
C3728 C3730 1.381 . S
C3728 C3734 1.383 . S
C3729 C3725 1.495 . S
C3729 H3735 0.959 . S
C3729 H3736 0.961 . S
C3729 H3737 0.960 . S
C3730 C3728 1.381 . S
C3730 C3731 1.394 . S
C3730 H3738 0.930 . S
C3731 C3730 1.394 . S
C3731 C3732 1.383 . S
C3731 H3739 0.929 . S
C3732 C3731 1.383 . S
C3732 C3733 1.377 . S
C3733 H3717 0.930 . S
C3733 C3732 1.377 . S
C3733 C3734 1.379 . S
C3734 H3718 0.931 . S
C3734 C3728 1.383 . S
C3734 C3733 1.379 . S
H3735 C3729 0.959 . S
H3736 C3729 0.961 . S
H3737 C3729 0.960 . S
H3738 C3730 0.930 . S
H3739 C3731 0.929 . S
H3740 C3748 0.929 . S
H3741 C3750 0.930 . S
H3742 C3752 0.930 . S
H3743 C3755 0.929 . S
H3744 C3758 0.930 . S
H3745 C3760 0.960 . S
H3746 C3760 0.960 . S
H3747 C3760 0.960 . S
C3748 H3740 0.929 . S
C3748 C3749 1.377 . S
C3748 C3750 1.384 . S
C3749 C3748 1.377 . S
C3749 C3755 1.390 . S
C3750 H3741 0.930 . S
C3750 C3748 1.384 . S
C3750 C3751 1.372 . S
C3751 C3750 1.372 . S
C3751 C3752 1.400 . S
C3751 C3756 1.490 . S
C3752 H3742 0.930 . S
C3752 C3751 1.400 . S
C3752 C3755 1.386 . S
H3753 C3769 0.930 . S
H3754 C3770 0.931 . S
C3755 H3743 0.929 . S
C3755 C3749 1.390 . S
C3755 C3752 1.386 . S
C3756 C3751 1.490 . S
C3756 C3758 1.395 . S
C3756 C3759 1.403 . S
H3757 C3763 0.930 . S
C3758 H3744 0.930 . S
C3758 C3756 1.395 . S
C3758 C3761 1.403 . S
C3759 C3756 1.403 . S
C3759 C3760 1.524 . S
C3759 C3763 1.400 . S
C3760 H3745 0.960 . S
C3760 H3746 0.960 . S
C3760 H3747 0.960 . S
C3760 C3759 1.524 . S
C3761 C3758 1.403 . S
C3761 C3762 1.392 . S
C3761 C3765 1.495 . S
C3762 C3761 1.392 . S
C3762 C3763 1.385 . S
C3762 C3764 1.478 . S
C3763 H3757 0.930 . S
C3763 C3759 1.400 . S
C3763 C3762 1.385 . S
C3764 C3762 1.478 . S
C3764 C3766 1.381 . S
C3764 C3770 1.383 . S
C3765 C3761 1.495 . S
C3765 H3771 0.959 . S
C3765 H3772 0.961 . S
C3765 H3773 0.960 . S
C3766 C3764 1.381 . S
C3766 C3767 1.394 . S
C3766 H3774 0.930 . S
C3767 C3766 1.394 . S
C3767 C3768 1.383 . S
C3767 H3775 0.929 . S
C3768 C3767 1.383 . S
C3768 C3769 1.377 . S
C3769 H3753 0.930 . S
C3769 C3768 1.377 . S
C3769 C3770 1.379 . S
C3770 H3754 0.931 . S
C3770 C3764 1.383 . S
C3770 C3769 1.379 . S
H3771 C3765 0.959 . S
H3772 C3765 0.961 . S
H3773 C3765 0.960 . S
H3774 C3766 0.930 . S
H3775 C3767 0.929 . S
H3776 C3784 0.929 . S
H3777 C3786 0.930 . S
H3778 C3788 0.930 . S
H3779 C3791 0.929 . S
H3780 C3794 0.930 . S
H3781 C3796 0.960 . S
H3782 C3796 0.960 . S
H3783 C3796 0.960 . S
C3784 H3776 0.929 . S
C3784 C3785 1.377 . S
C3784 C3786 1.384 . S
C3785 C3784 1.377 . S
C3785 C3791 1.390 . S
C3786 H3777 0.930 . S
C3786 C3784 1.384 . S
C3786 C3787 1.372 . S
C3787 C3786 1.372 . S
C3787 C3788 1.400 . S
C3787 C3792 1.490 . S
C3788 H3778 0.930 . S
C3788 C3787 1.400 . S
C3788 C3791 1.386 . S
H3789 C3805 0.930 . S
H3790 C3806 0.931 . S
C3791 H3779 0.929 . S
C3791 C3785 1.390 . S
C3791 C3788 1.386 . S
C3792 C3787 1.490 . S
C3792 C3794 1.395 . S
C3792 C3795 1.403 . S
H3793 C3799 0.930 . S
C3794 H3780 0.930 . S
C3794 C3792 1.395 . S
C3794 C3797 1.403 . S
C3795 C3792 1.403 . S
C3795 C3796 1.524 . S
C3795 C3799 1.400 . S
C3796 H3781 0.960 . S
C3796 H3782 0.960 . S
C3796 H3783 0.960 . S
C3796 C3795 1.524 . S
C3797 C3794 1.403 . S
C3797 C3798 1.392 . S
C3797 C3801 1.495 . S
C3798 C3797 1.392 . S
C3798 C3799 1.385 . S
C3798 C3800 1.478 . S
C3799 H3793 0.930 . S
C3799 C3795 1.400 . S
C3799 C3798 1.385 . S
C3800 C3798 1.478 . S
C3800 C3802 1.381 . S
C3800 C3806 1.383 . S
C3801 C3797 1.495 . S
C3801 H3807 0.959 . S
C3801 H3808 0.961 . S
C3801 H3809 0.960 . S
C3802 C3800 1.381 . S
C3802 C3803 1.394 . S
C3802 H3810 0.930 . S
C3803 C3802 1.394 . S
C3803 C3804 1.383 . S
C3803 H3811 0.929 . S
C3804 C3803 1.383 . S
C3804 C3805 1.377 . S
C3805 H3789 0.930 . S
C3805 C3804 1.377 . S
C3805 C3806 1.379 . S
C3806 H3790 0.931 . S
C3806 C3800 1.383 . S
C3806 C3805 1.379 . S
H3807 C3801 0.959 . S
H3808 C3801 0.961 . S
H3809 C3801 0.960 . S
H3810 C3802 0.930 . S
H3811 C3803 0.929 . S
H3812 C3820 0.929 . S
H3813 C3822 0.930 . S
H3814 C3824 0.930 . S
H3815 C3827 0.929 . S
H3816 C3830 0.930 . S
H3817 C3832 0.960 . S
H3818 C3832 0.960 . S
H3819 C3832 0.960 . S
C3820 H3812 0.929 . S
C3820 C3821 1.377 . S
C3820 C3822 1.384 . S
C3821 C3820 1.377 . S
C3821 C3827 1.390 . S
C3822 H3813 0.930 . S
C3822 C3820 1.384 . S
C3822 C3823 1.372 . S
C3823 C3822 1.372 . S
C3823 C3824 1.400 . S
C3823 C3828 1.490 . S
C3824 H3814 0.930 . S
C3824 C3823 1.400 . S
C3824 C3827 1.386 . S
H3825 C3841 0.930 . S
H3826 C3842 0.931 . S
C3827 H3815 0.929 . S
C3827 C3821 1.390 . S
C3827 C3824 1.386 . S
C3828 C3823 1.490 . S
C3828 C3830 1.395 . S
C3828 C3831 1.403 . S
H3829 C3835 0.930 . S
C3830 H3816 0.930 . S
C3830 C3828 1.395 . S
C3830 C3833 1.403 . S
C3831 C3828 1.403 . S
C3831 C3832 1.524 . S
C3831 C3835 1.400 . S
C3832 H3817 0.960 . S
C3832 H3818 0.960 . S
C3832 H3819 0.960 . S
C3832 C3831 1.524 . S
C3833 C3830 1.403 . S
C3833 C3834 1.392 . S
C3833 C3837 1.495 . S
C3834 C3833 1.392 . S
C3834 C3835 1.385 . S
C3834 C3836 1.478 . S
C3835 H3829 0.930 . S
C3835 C3831 1.400 . S
C3835 C3834 1.385 . S
C3836 C3834 1.478 . S
C3836 C3838 1.381 . S
C3836 C3842 1.383 . S
C3837 C3833 1.495 . S
C3837 H3843 0.959 . S
C3837 H3844 0.961 . S
C3837 H3845 0.960 . S
C3838 C3836 1.381 . S
C3838 C3839 1.394 . S
C3838 H3846 0.930 . S
C3839 C3838 1.394 . S
C3839 C3840 1.383 . S
C3839 H3847 0.929 . S
C3840 C3839 1.383 . S
C3840 C3841 1.377 . S
C3841 H3825 0.930 . S
C3841 C3840 1.377 . S
C3841 C3842 1.379 . S
C3842 H3826 0.931 . S
C3842 C3836 1.383 . S
C3842 C3841 1.379 . S
H3843 C3837 0.959 . S
H3844 C3837 0.961 . S
H3845 C3837 0.960 . S
H3846 C3838 0.930 . S
H3847 C3839 0.929 . S
H3848 C3856 0.929 . S
H3849 C3858 0.930 . S
H3850 C3860 0.930 . S
H3851 C3863 0.929 . S
H3852 C3866 0.930 . S
H3853 C3868 0.960 . S
H3854 C3868 0.960 . S
H3855 C3868 0.960 . S
C3856 H3848 0.929 . S
C3856 C3857 1.377 . S
C3856 C3858 1.384 . S
C3857 C3856 1.377 . S
C3857 C3863 1.390 . S
C3858 H3849 0.930 . S
C3858 C3856 1.384 . S
C3858 C3859 1.372 . S
C3859 C3858 1.372 . S
C3859 C3860 1.400 . S
C3859 C3864 1.490 . S
C3860 H3850 0.930 . S
C3860 C3859 1.400 . S
C3860 C3863 1.386 . S
H3861 C3877 0.930 . S
H3862 C3878 0.931 . S
C3863 H3851 0.929 . S
C3863 C3857 1.390 . S
C3863 C3860 1.386 . S
C3864 C3859 1.490 . S
C3864 C3866 1.395 . S
C3864 C3867 1.403 . S
H3865 C3871 0.930 . S
C3866 H3852 0.930 . S
C3866 C3864 1.395 . S
C3866 C3869 1.403 . S
C3867 C3864 1.403 . S
C3867 C3868 1.524 . S
C3867 C3871 1.400 . S
C3868 H3853 0.960 . S
C3868 H3854 0.960 . S
C3868 H3855 0.960 . S
C3868 C3867 1.524 . S
C3869 C3866 1.403 . S
C3869 C3870 1.392 . S
C3869 C3873 1.495 . S
C3870 C3869 1.392 . S
C3870 C3871 1.385 . S
C3870 C3872 1.478 . S
C3871 H3865 0.930 . S
C3871 C3867 1.400 . S
C3871 C3870 1.385 . S
C3872 C3870 1.478 . S
C3872 C3874 1.381 . S
C3872 C3878 1.383 . S
C3873 C3869 1.495 . S
C3873 H3879 0.959 . S
C3873 H3880 0.961 . S
C3873 H3881 0.960 . S
C3874 C3872 1.381 . S
C3874 C3875 1.394 . S
C3874 H3882 0.930 . S
C3875 C3874 1.394 . S
C3875 C3876 1.383 . S
C3875 H3883 0.929 . S
C3876 C3875 1.383 . S
C3876 C3877 1.377 . S
C3877 H3861 0.930 . S
C3877 C3876 1.377 . S
C3877 C3878 1.379 . S
C3878 H3862 0.931 . S
C3878 C3872 1.383 . S
C3878 C3877 1.379 . S
H3879 C3873 0.959 . S
H3880 C3873 0.961 . S
H3881 C3873 0.960 . S
H3882 C3874 0.930 . S
H3883 C3875 0.929 . S
H3884 C3892 0.929 . S
H3885 C3894 0.930 . S
H3886 C3896 0.930 . S
H3887 C3899 0.929 . S
H3888 C3902 0.930 . S
H3889 C3904 0.960 . S
H3890 C3904 0.960 . S
H3891 C3904 0.960 . S
C3892 H3884 0.929 . S
C3892 C3893 1.377 . S
C3892 C3894 1.384 . S
C3893 C3892 1.377 . S
C3893 C3899 1.390 . S
C3894 H3885 0.930 . S
C3894 C3892 1.384 . S
C3894 C3895 1.372 . S
C3895 C3894 1.372 . S
C3895 C3896 1.400 . S
C3895 C3900 1.490 . S
C3896 H3886 0.930 . S
C3896 C3895 1.400 . S
C3896 C3899 1.386 . S
H3897 C3913 0.930 . S
H3898 C3914 0.931 . S
C3899 H3887 0.929 . S
C3899 C3893 1.390 . S
C3899 C3896 1.386 . S
C3900 C3895 1.490 . S
C3900 C3902 1.395 . S
C3900 C3903 1.403 . S
H3901 C3907 0.930 . S
C3902 H3888 0.930 . S
C3902 C3900 1.395 . S
C3902 C3905 1.403 . S
C3903 C3900 1.403 . S
C3903 C3904 1.524 . S
C3903 C3907 1.400 . S
C3904 H3889 0.960 . S
C3904 H3890 0.960 . S
C3904 H3891 0.960 . S
C3904 C3903 1.524 . S
C3905 C3902 1.403 . S
C3905 C3906 1.392 . S
C3905 C3909 1.495 . S
C3906 C3905 1.392 . S
C3906 C3907 1.385 . S
C3906 C3908 1.478 . S
C3907 H3901 0.930 . S
C3907 C3903 1.400 . S
C3907 C3906 1.385 . S
C3908 C3906 1.478 . S
C3908 C3910 1.381 . S
C3908 C3914 1.383 . S
C3909 C3905 1.495 . S
C3909 H3915 0.959 . S
C3909 H3916 0.961 . S
C3909 H3917 0.960 . S
C3910 C3908 1.381 . S
C3910 C3911 1.394 . S
C3910 H3918 0.930 . S
C3911 C3910 1.394 . S
C3911 C3912 1.383 . S
C3911 H3919 0.929 . S
C3912 C3911 1.383 . S
C3912 C3913 1.377 . S
C3913 H3897 0.930 . S
C3913 C3912 1.377 . S
C3913 C3914 1.379 . S
C3914 H3898 0.931 . S
C3914 C3908 1.383 . S
C3914 C3913 1.379 . S
H3915 C3909 0.959 . S
H3916 C3909 0.961 . S
H3917 C3909 0.960 . S
H3918 C3910 0.930 . S
H3919 C3911 0.929 . S
H3920 C3928 0.929 . S
H3921 C3930 0.930 . S
H3922 C3932 0.930 . S
H3923 C3935 0.929 . S
H3924 C3938 0.930 . S
H3925 C3940 0.960 . S
H3926 C3940 0.960 . S
H3927 C3940 0.960 . S
C3928 H3920 0.929 . S
C3928 C3929 1.377 . S
C3928 C3930 1.384 . S
C3929 C3928 1.377 . S
C3929 C3935 1.390 . S
C3930 H3921 0.930 . S
C3930 C3928 1.384 . S
C3930 C3931 1.372 . S
C3931 C3930 1.372 . S
C3931 C3932 1.400 . S
C3931 C3936 1.490 . S
C3932 H3922 0.930 . S
C3932 C3931 1.400 . S
C3932 C3935 1.386 . S
H3933 C3949 0.930 . S
H3934 C3950 0.931 . S
C3935 H3923 0.929 . S
C3935 C3929 1.390 . S
C3935 C3932 1.386 . S
C3936 C3931 1.490 . S
C3936 C3938 1.395 . S
C3936 C3939 1.403 . S
H3937 C3943 0.930 . S
C3938 H3924 0.930 . S
C3938 C3936 1.395 . S
C3938 C3941 1.403 . S
C3939 C3936 1.403 . S
C3939 C3940 1.524 . S
C3939 C3943 1.400 . S
C3940 H3925 0.960 . S
C3940 H3926 0.960 . S
C3940 H3927 0.960 . S
C3940 C3939 1.524 . S
C3941 C3938 1.403 . S
C3941 C3942 1.392 . S
C3941 C3945 1.495 . S
C3942 C3941 1.392 . S
C3942 C3943 1.385 . S
C3942 C3944 1.478 . S
C3943 H3937 0.930 . S
C3943 C3939 1.400 . S
C3943 C3942 1.385 . S
C3944 C3942 1.478 . S
C3944 C3946 1.381 . S
C3944 C3950 1.383 . S
C3945 C3941 1.495 . S
C3945 H3951 0.959 . S
C3945 H3952 0.961 . S
C3945 H3953 0.960 . S
C3946 C3944 1.381 . S
C3946 C3947 1.394 . S
C3946 H3954 0.930 . S
C3947 C3946 1.394 . S
C3947 C3948 1.383 . S
C3947 H3955 0.929 . S
C3948 C3947 1.383 . S
C3948 C3949 1.377 . S
C3949 H3933 0.930 . S
C3949 C3948 1.377 . S
C3949 C3950 1.379 . S
C3950 H3934 0.931 . S
C3950 C3944 1.383 . S
C3950 C3949 1.379 . S
H3951 C3945 0.959 . S
H3952 C3945 0.961 . S
H3953 C3945 0.960 . S
H3954 C3946 0.930 . S
H3955 C3947 0.929 . S
H3956 C3964 0.929 . S
H3957 C3966 0.930 . S
H3958 C3968 0.930 . S
H3959 C3971 0.929 . S
H3960 C3974 0.930 . S
H3961 C3976 0.960 . S
H3962 C3976 0.960 . S
H3963 C3976 0.960 . S
C3964 H3956 0.929 . S
C3964 C3965 1.377 . S
C3964 C3966 1.384 . S
C3965 C3964 1.377 . S
C3965 C3971 1.390 . S
C3966 H3957 0.930 . S
C3966 C3964 1.384 . S
C3966 C3967 1.372 . S
C3967 C3966 1.372 . S
C3967 C3968 1.400 . S
C3967 C3972 1.490 . S
C3968 H3958 0.930 . S
C3968 C3967 1.400 . S
C3968 C3971 1.386 . S
H3969 C3985 0.930 . S
H3970 C3986 0.931 . S
C3971 H3959 0.929 . S
C3971 C3965 1.390 . S
C3971 C3968 1.386 . S
C3972 C3967 1.490 . S
C3972 C3974 1.395 . S
C3972 C3975 1.403 . S
H3973 C3979 0.930 . S
C3974 H3960 0.930 . S
C3974 C3972 1.395 . S
C3974 C3977 1.403 . S
C3975 C3972 1.403 . S
C3975 C3976 1.524 . S
C3975 C3979 1.400 . S
C3976 H3961 0.960 . S
C3976 H3962 0.960 . S
C3976 H3963 0.960 . S
C3976 C3975 1.524 . S
C3977 C3974 1.403 . S
C3977 C3978 1.392 . S
C3977 C3981 1.495 . S
C3978 C3977 1.392 . S
C3978 C3979 1.385 . S
C3978 C3980 1.478 . S
C3979 H3973 0.930 . S
C3979 C3975 1.400 . S
C3979 C3978 1.385 . S
C3980 C3978 1.478 . S
C3980 C3982 1.381 . S
C3980 C3986 1.383 . S
C3981 C3977 1.495 . S
C3981 H3987 0.959 . S
C3981 H3988 0.961 . S
C3981 H3989 0.960 . S
C3982 C3980 1.381 . S
C3982 C3983 1.394 . S
C3982 H3990 0.930 . S
C3983 C3982 1.394 . S
C3983 C3984 1.383 . S
C3983 H3991 0.929 . S
C3984 C3983 1.383 . S
C3984 C3985 1.377 . S
C3985 H3969 0.930 . S
C3985 C3984 1.377 . S
C3985 C3986 1.379 . S
C3986 H3970 0.931 . S
C3986 C3980 1.383 . S
C3986 C3985 1.379 . S
H3987 C3981 0.959 . S
H3988 C3981 0.961 . S
H3989 C3981 0.960 . S
H3990 C3982 0.930 . S
H3991 C3983 0.929 . S
H3992 C4000 0.929 . S
H3993 C4002 0.930 . S
H3994 C4004 0.930 . S
H3995 C4007 0.929 . S
H3996 C4010 0.930 . S
H3997 C4012 0.960 . S
H3998 C4012 0.960 . S
H3999 C4012 0.960 . S
C4000 H3992 0.929 . S
C4000 C4001 1.377 . S
C4000 C4002 1.384 . S
C4001 C4000 1.377 . S
C4001 C4007 1.390 . S
C4002 H3993 0.930 . S
C4002 C4000 1.384 . S
C4002 C4003 1.372 . S
C4003 C4002 1.372 . S
C4003 C4004 1.400 . S
C4003 C4008 1.490 . S
C4004 H3994 0.930 . S
C4004 C4003 1.400 . S
C4004 C4007 1.386 . S
H4005 C4021 0.930 . S
H4006 C4022 0.931 . S
C4007 H3995 0.929 . S
C4007 C4001 1.390 . S
C4007 C4004 1.386 . S
C4008 C4003 1.490 . S
C4008 C4010 1.395 . S
C4008 C4011 1.403 . S
H4009 C4015 0.930 . S
C4010 H3996 0.930 . S
C4010 C4008 1.395 . S
C4010 C4013 1.403 . S
C4011 C4008 1.403 . S
C4011 C4012 1.524 . S
C4011 C4015 1.400 . S
C4012 H3997 0.960 . S
C4012 H3998 0.960 . S
C4012 H3999 0.960 . S
C4012 C4011 1.524 . S
C4013 C4010 1.403 . S
C4013 C4014 1.392 . S
C4013 C4017 1.495 . S
C4014 C4013 1.392 . S
C4014 C4015 1.385 . S
C4014 C4016 1.478 . S
C4015 H4009 0.930 . S
C4015 C4011 1.400 . S
C4015 C4014 1.385 . S
C4016 C4014 1.478 . S
C4016 C4018 1.381 . S
C4016 C4022 1.383 . S
C4017 C4013 1.495 . S
C4017 H4023 0.959 . S
C4017 H4024 0.961 . S
C4017 H4025 0.960 . S
C4018 C4016 1.381 . S
C4018 C4019 1.394 . S
C4018 H4026 0.930 . S
C4019 C4018 1.394 . S
C4019 C4020 1.383 . S
C4019 H4027 0.929 . S
C4020 C4019 1.383 . S
C4020 C4021 1.377 . S
C4021 H4005 0.930 . S
C4021 C4020 1.377 . S
C4021 C4022 1.379 . S
C4022 H4006 0.931 . S
C4022 C4016 1.383 . S
C4022 C4021 1.379 . S
H4023 C4017 0.959 . S
H4024 C4017 0.961 . S
H4025 C4017 0.960 . S
H4026 C4018 0.930 . S
H4027 C4019 0.929 . S
H4028 C4036 0.929 . S
H4029 C4038 0.930 . S
H4030 C4040 0.930 . S
H4031 C4043 0.929 . S
H4032 C4046 0.930 . S
H4033 C4048 0.960 . S
H4034 C4048 0.960 . S
H4035 C4048 0.960 . S
C4036 H4028 0.929 . S
C4036 C4037 1.377 . S
C4036 C4038 1.384 . S
C4037 C4036 1.377 . S
C4037 C4043 1.390 . S
C4038 H4029 0.930 . S
C4038 C4036 1.384 . S
C4038 C4039 1.372 . S
C4039 C4038 1.372 . S
C4039 C4040 1.400 . S
C4039 C4044 1.490 . S
C4040 H4030 0.930 . S
C4040 C4039 1.400 . S
C4040 C4043 1.386 . S
H4041 C4057 0.930 . S
H4042 C4058 0.931 . S
C4043 H4031 0.929 . S
C4043 C4037 1.390 . S
C4043 C4040 1.386 . S
C4044 C4039 1.490 . S
C4044 C4046 1.395 . S
C4044 C4047 1.403 . S
H4045 C4051 0.930 . S
C4046 H4032 0.930 . S
C4046 C4044 1.395 . S
C4046 C4049 1.403 . S
C4047 C4044 1.403 . S
C4047 C4048 1.524 . S
C4047 C4051 1.400 . S
C4048 H4033 0.960 . S
C4048 H4034 0.960 . S
C4048 H4035 0.960 . S
C4048 C4047 1.524 . S
C4049 C4046 1.403 . S
C4049 C4050 1.392 . S
C4049 C4053 1.495 . S
C4050 C4049 1.392 . S
C4050 C4051 1.385 . S
C4050 C4052 1.478 . S
C4051 H4045 0.930 . S
C4051 C4047 1.400 . S
C4051 C4050 1.385 . S
C4052 C4050 1.478 . S
C4052 C4054 1.381 . S
C4052 C4058 1.383 . S
C4053 C4049 1.495 . S
C4053 H4059 0.959 . S
C4053 H4060 0.961 . S
C4053 H4061 0.960 . S
C4054 C4052 1.381 . S
C4054 C4055 1.394 . S
C4054 H4062 0.930 . S
C4055 C4054 1.394 . S
C4055 C4056 1.383 . S
C4055 H4063 0.929 . S
C4056 C4055 1.383 . S
C4056 C4057 1.377 . S
C4057 H4041 0.930 . S
C4057 C4056 1.377 . S
C4057 C4058 1.379 . S
C4058 H4042 0.931 . S
C4058 C4052 1.383 . S
C4058 C4057 1.379 . S
H4059 C4053 0.959 . S
H4060 C4053 0.961 . S
H4061 C4053 0.960 . S
H4062 C4054 0.930 . S
H4063 C4055 0.929 . S
H4064 C4072 0.929 . S
H4065 C4074 0.930 . S
H4066 C4076 0.930 . S
H4067 C4079 0.929 . S
H4068 C4082 0.930 . S
H4069 C4084 0.960 . S
H4070 C4084 0.960 . S
H4071 C4084 0.960 . S
C4072 H4064 0.929 . S
C4072 C4073 1.377 . S
C4072 C4074 1.384 . S
C4073 C4072 1.377 . S
C4073 C4079 1.390 . S
C4074 H4065 0.930 . S
C4074 C4072 1.384 . S
C4074 C4075 1.372 . S
C4075 C4074 1.372 . S
C4075 C4076 1.400 . S
C4075 C4080 1.490 . S
C4076 H4066 0.930 . S
C4076 C4075 1.400 . S
C4076 C4079 1.386 . S
H4077 C4093 0.930 . S
H4078 C4094 0.931 . S
C4079 H4067 0.929 . S
C4079 C4073 1.390 . S
C4079 C4076 1.386 . S
C4080 C4075 1.490 . S
C4080 C4082 1.395 . S
C4080 C4083 1.403 . S
H4081 C4087 0.930 . S
C4082 H4068 0.930 . S
C4082 C4080 1.395 . S
C4082 C4085 1.403 . S
C4083 C4080 1.403 . S
C4083 C4084 1.524 . S
C4083 C4087 1.400 . S
C4084 H4069 0.960 . S
C4084 H4070 0.960 . S
C4084 H4071 0.960 . S
C4084 C4083 1.524 . S
C4085 C4082 1.403 . S
C4085 C4086 1.392 . S
C4085 C4089 1.495 . S
C4086 C4085 1.392 . S
C4086 C4087 1.385 . S
C4086 C4088 1.478 . S
C4087 H4081 0.930 . S
C4087 C4083 1.400 . S
C4087 C4086 1.385 . S
C4088 C4086 1.478 . S
C4088 C4090 1.381 . S
C4088 C4094 1.383 . S
C4089 C4085 1.495 . S
C4089 H4095 0.959 . S
C4089 H4096 0.961 . S
C4089 H4097 0.960 . S
C4090 C4088 1.381 . S
C4090 C4091 1.394 . S
C4090 H4098 0.930 . S
C4091 C4090 1.394 . S
C4091 C4092 1.383 . S
C4091 H4099 0.929 . S
C4092 C4091 1.383 . S
C4092 C4093 1.377 . S
C4093 H4077 0.930 . S
C4093 C4092 1.377 . S
C4093 C4094 1.379 . S
C4094 H4078 0.931 . S
C4094 C4088 1.383 . S
C4094 C4093 1.379 . S
H4095 C4089 0.959 . S
H4096 C4089 0.961 . S
H4097 C4089 0.960 . S
H4098 C4090 0.930 . S
H4099 C4091 0.929 . S
H4100 C4108 0.929 . S
H4101 C4110 0.930 . S
H4102 C4112 0.930 . S
H4103 C4115 0.929 . S
H4104 C4118 0.930 . S
H4105 C4120 0.960 . S
H4106 C4120 0.960 . S
H4107 C4120 0.960 . S
C4108 H4100 0.929 . S
C4108 C4109 1.377 . S
C4108 C4110 1.384 . S
C4109 C4108 1.377 . S
C4109 C4115 1.390 . S
C4110 H4101 0.930 . S
C4110 C4108 1.384 . S
C4110 C4111 1.372 . S
C4111 C4110 1.372 . S
C4111 C4112 1.400 . S
C4111 C4116 1.490 . S
C4112 H4102 0.930 . S
C4112 C4111 1.400 . S
C4112 C4115 1.386 . S
H4113 C4129 0.930 . S
H4114 C4130 0.931 . S
C4115 H4103 0.929 . S
C4115 C4109 1.390 . S
C4115 C4112 1.386 . S
C4116 C4111 1.490 . S
C4116 C4118 1.395 . S
C4116 C4119 1.403 . S
H4117 C4123 0.930 . S
C4118 H4104 0.930 . S
C4118 C4116 1.395 . S
C4118 C4121 1.403 . S
C4119 C4116 1.403 . S
C4119 C4120 1.524 . S
C4119 C4123 1.400 . S
C4120 H4105 0.960 . S
C4120 H4106 0.960 . S
C4120 H4107 0.960 . S
C4120 C4119 1.524 . S
C4121 C4118 1.403 . S
C4121 C4122 1.392 . S
C4121 C4125 1.495 . S
C4122 C4121 1.392 . S
C4122 C4123 1.385 . S
C4122 C4124 1.478 . S
C4123 H4117 0.930 . S
C4123 C4119 1.400 . S
C4123 C4122 1.385 . S
C4124 C4122 1.478 . S
C4124 C4126 1.381 . S
C4124 C4130 1.383 . S
C4125 C4121 1.495 . S
C4125 H4131 0.959 . S
C4125 H4132 0.961 . S
C4125 H4133 0.960 . S
C4126 C4124 1.381 . S
C4126 C4127 1.394 . S
C4126 H4134 0.930 . S
C4127 C4126 1.394 . S
C4127 C4128 1.383 . S
C4127 H4135 0.929 . S
C4128 C4127 1.383 . S
C4128 C4129 1.377 . S
C4129 H4113 0.930 . S
C4129 C4128 1.377 . S
C4129 C4130 1.379 . S
C4130 H4114 0.931 . S
C4130 C4124 1.383 . S
C4130 C4129 1.379 . S
H4131 C4125 0.959 . S
H4132 C4125 0.961 . S
H4133 C4125 0.960 . S
H4134 C4126 0.930 . S
H4135 C4127 0.929 . S
H4136 C4144 0.929 . S
H4137 C4146 0.930 . S
H4138 C4148 0.930 . S
H4139 C4151 0.929 . S
H4140 C4154 0.930 . S
H4141 C4156 0.960 . S
H4142 C4156 0.960 . S
H4143 C4156 0.960 . S
C4144 H4136 0.929 . S
C4144 C4145 1.377 . S
C4144 C4146 1.384 . S
C4145 C4144 1.377 . S
C4145 C4151 1.390 . S
C4146 H4137 0.930 . S
C4146 C4144 1.384 . S
C4146 C4147 1.372 . S
C4147 C4146 1.372 . S
C4147 C4148 1.400 . S
C4147 C4152 1.490 . S
C4148 H4138 0.930 . S
C4148 C4147 1.400 . S
C4148 C4151 1.386 . S
H4149 C4165 0.930 . S
H4150 C4166 0.931 . S
C4151 H4139 0.929 . S
C4151 C4145 1.390 . S
C4151 C4148 1.386 . S
C4152 C4147 1.490 . S
C4152 C4154 1.395 . S
C4152 C4155 1.403 . S
H4153 C4159 0.930 . S
C4154 H4140 0.930 . S
C4154 C4152 1.395 . S
C4154 C4157 1.403 . S
C4155 C4152 1.403 . S
C4155 C4156 1.524 . S
C4155 C4159 1.400 . S
C4156 H4141 0.960 . S
C4156 H4142 0.960 . S
C4156 H4143 0.960 . S
C4156 C4155 1.524 . S
C4157 C4154 1.403 . S
C4157 C4158 1.392 . S
C4157 C4161 1.495 . S
C4158 C4157 1.392 . S
C4158 C4159 1.385 . S
C4158 C4160 1.478 . S
C4159 H4153 0.930 . S
C4159 C4155 1.400 . S
C4159 C4158 1.385 . S
C4160 C4158 1.478 . S
C4160 C4162 1.381 . S
C4160 C4166 1.383 . S
C4161 C4157 1.495 . S
C4161 H4167 0.959 . S
C4161 H4168 0.961 . S
C4161 H4169 0.960 . S
C4162 C4160 1.381 . S
C4162 C4163 1.394 . S
C4162 H4170 0.930 . S
C4163 C4162 1.394 . S
C4163 C4164 1.383 . S
C4163 H4171 0.929 . S
C4164 C4163 1.383 . S
C4164 C4165 1.377 . S
C4165 H4149 0.930 . S
C4165 C4164 1.377 . S
C4165 C4166 1.379 . S
C4166 H4150 0.931 . S
C4166 C4160 1.383 . S
C4166 C4165 1.379 . S
H4167 C4161 0.959 . S
H4168 C4161 0.961 . S
H4169 C4161 0.960 . S
H4170 C4162 0.930 . S
H4171 C4163 0.929 . S
H4172 C4180 0.929 . S
H4173 C4182 0.930 . S
H4174 C4184 0.930 . S
H4175 C4187 0.929 . S
H4176 C4190 0.930 . S
H4177 C4192 0.960 . S
H4178 C4192 0.960 . S
H4179 C4192 0.960 . S
C4180 H4172 0.929 . S
C4180 C4181 1.377 . S
C4180 C4182 1.384 . S
C4181 C4180 1.377 . S
C4181 C4187 1.390 . S
C4182 H4173 0.930 . S
C4182 C4180 1.384 . S
C4182 C4183 1.372 . S
C4183 C4182 1.372 . S
C4183 C4184 1.400 . S
C4183 C4188 1.490 . S
C4184 H4174 0.930 . S
C4184 C4183 1.400 . S
C4184 C4187 1.386 . S
H4185 C4201 0.930 . S
H4186 C4202 0.931 . S
C4187 H4175 0.929 . S
C4187 C4181 1.390 . S
C4187 C4184 1.386 . S
C4188 C4183 1.490 . S
C4188 C4190 1.395 . S
C4188 C4191 1.403 . S
H4189 C4195 0.930 . S
C4190 H4176 0.930 . S
C4190 C4188 1.395 . S
C4190 C4193 1.403 . S
C4191 C4188 1.403 . S
C4191 C4192 1.524 . S
C4191 C4195 1.400 . S
C4192 H4177 0.960 . S
C4192 H4178 0.960 . S
C4192 H4179 0.960 . S
C4192 C4191 1.524 . S
C4193 C4190 1.403 . S
C4193 C4194 1.392 . S
C4193 C4197 1.495 . S
C4194 C4193 1.392 . S
C4194 C4195 1.385 . S
C4194 C4196 1.478 . S
C4195 H4189 0.930 . S
C4195 C4191 1.400 . S
C4195 C4194 1.385 . S
C4196 C4194 1.478 . S
C4196 C4198 1.381 . S
C4196 C4202 1.383 . S
C4197 C4193 1.495 . S
C4197 H4203 0.959 . S
C4197 H4204 0.961 . S
C4197 H4205 0.960 . S
C4198 C4196 1.381 . S
C4198 C4199 1.394 . S
C4198 H4206 0.930 . S
C4199 C4198 1.394 . S
C4199 C4200 1.383 . S
C4199 H4207 0.929 . S
C4200 C4199 1.383 . S
C4200 C4201 1.377 . S
C4201 H4185 0.930 . S
C4201 C4200 1.377 . S
C4201 C4202 1.379 . S
C4202 H4186 0.931 . S
C4202 C4196 1.383 . S
C4202 C4201 1.379 . S
H4203 C4197 0.959 . S
H4204 C4197 0.961 . S
H4205 C4197 0.960 . S
H4206 C4198 0.930 . S
H4207 C4199 0.929 . S
H4208 C4216 0.929 . S
H4209 C4218 0.930 . S
H4210 C4220 0.930 . S
H4211 C4223 0.929 . S
H4212 C4226 0.930 . S
H4213 C4228 0.960 . S
H4214 C4228 0.960 . S
H4215 C4228 0.960 . S
C4216 H4208 0.929 . S
C4216 C4217 1.377 . S
C4216 C4218 1.384 . S
C4217 C4216 1.377 . S
C4217 C4223 1.390 . S
C4218 H4209 0.930 . S
C4218 C4216 1.384 . S
C4218 C4219 1.372 . S
C4219 C4218 1.372 . S
C4219 C4220 1.400 . S
C4219 C4224 1.490 . S
C4220 H4210 0.930 . S
C4220 C4219 1.400 . S
C4220 C4223 1.386 . S
H4221 C4237 0.930 . S
H4222 C4238 0.931 . S
C4223 H4211 0.929 . S
C4223 C4217 1.390 . S
C4223 C4220 1.386 . S
C4224 C4219 1.490 . S
C4224 C4226 1.395 . S
C4224 C4227 1.403 . S
H4225 C4231 0.930 . S
C4226 H4212 0.930 . S
C4226 C4224 1.395 . S
C4226 C4229 1.403 . S
C4227 C4224 1.403 . S
C4227 C4228 1.524 . S
C4227 C4231 1.400 . S
C4228 H4213 0.960 . S
C4228 H4214 0.960 . S
C4228 H4215 0.960 . S
C4228 C4227 1.524 . S
C4229 C4226 1.403 . S
C4229 C4230 1.392 . S
C4229 C4233 1.495 . S
C4230 C4229 1.392 . S
C4230 C4231 1.385 . S
C4230 C4232 1.478 . S
C4231 H4225 0.930 . S
C4231 C4227 1.400 . S
C4231 C4230 1.385 . S
C4232 C4230 1.478 . S
C4232 C4234 1.381 . S
C4232 C4238 1.383 . S
C4233 C4229 1.495 . S
C4233 H4239 0.959 . S
C4233 H4240 0.961 . S
C4233 H4241 0.960 . S
C4234 C4232 1.381 . S
C4234 C4235 1.394 . S
C4234 H4242 0.930 . S
C4235 C4234 1.394 . S
C4235 C4236 1.383 . S
C4235 H4243 0.929 . S
C4236 C4235 1.383 . S
C4236 C4237 1.377 . S
C4237 H4221 0.930 . S
C4237 C4236 1.377 . S
C4237 C4238 1.379 . S
C4238 H4222 0.931 . S
C4238 C4232 1.383 . S
C4238 C4237 1.379 . S
H4239 C4233 0.959 . S
H4240 C4233 0.961 . S
H4241 C4233 0.960 . S
H4242 C4234 0.930 . S
H4243 C4235 0.929 . S
H4244 C4252 0.929 . S
H4245 C4254 0.930 . S
H4246 C4256 0.930 . S
H4247 C4259 0.929 . S
H4248 C4262 0.930 . S
H4249 C4264 0.960 . S
H4250 C4264 0.960 . S
H4251 C4264 0.960 . S
C4252 H4244 0.929 . S
C4252 C4253 1.377 . S
C4252 C4254 1.384 . S
C4253 C4252 1.377 . S
C4253 C4259 1.390 . S
C4254 H4245 0.930 . S
C4254 C4252 1.384 . S
C4254 C4255 1.372 . S
C4255 C4254 1.372 . S
C4255 C4256 1.400 . S
C4255 C4260 1.490 . S
C4256 H4246 0.930 . S
C4256 C4255 1.400 . S
C4256 C4259 1.386 . S
H4257 C4273 0.930 . S
H4258 C4274 0.931 . S
C4259 H4247 0.929 . S
C4259 C4253 1.390 . S
C4259 C4256 1.386 . S
C4260 C4255 1.490 . S
C4260 C4262 1.395 . S
C4260 C4263 1.403 . S
H4261 C4267 0.930 . S
C4262 H4248 0.930 . S
C4262 C4260 1.395 . S
C4262 C4265 1.403 . S
C4263 C4260 1.403 . S
C4263 C4264 1.524 . S
C4263 C4267 1.400 . S
C4264 H4249 0.960 . S
C4264 H4250 0.960 . S
C4264 H4251 0.960 . S
C4264 C4263 1.524 . S
C4265 C4262 1.403 . S
C4265 C4266 1.392 . S
C4265 C4269 1.495 . S
C4266 C4265 1.392 . S
C4266 C4267 1.385 . S
C4266 C4268 1.478 . S
C4267 H4261 0.930 . S
C4267 C4263 1.400 . S
C4267 C4266 1.385 . S
C4268 C4266 1.478 . S
C4268 C4270 1.381 . S
C4268 C4274 1.383 . S
C4269 C4265 1.495 . S
C4269 H4275 0.959 . S
C4269 H4276 0.961 . S
C4269 H4277 0.960 . S
C4270 C4268 1.381 . S
C4270 C4271 1.394 . S
C4270 H4278 0.930 . S
C4271 C4270 1.394 . S
C4271 C4272 1.383 . S
C4271 H4279 0.929 . S
C4272 C4271 1.383 . S
C4272 C4273 1.377 . S
C4273 H4257 0.930 . S
C4273 C4272 1.377 . S
C4273 C4274 1.379 . S
C4274 H4258 0.931 . S
C4274 C4268 1.383 . S
C4274 C4273 1.379 . S
H4275 C4269 0.959 . S
H4276 C4269 0.961 . S
H4277 C4269 0.960 . S
H4278 C4270 0.930 . S
H4279 C4271 0.929 . S
H4280 C4288 0.929 . S
H4281 C4290 0.930 . S
H4282 C4292 0.930 . S
H4283 C4295 0.929 . S
H4284 C4298 0.930 . S
H4285 C4300 0.960 . S
H4286 C4300 0.960 . S
H4287 C4300 0.960 . S
C4288 H4280 0.929 . S
C4288 C4289 1.377 . S
C4288 C4290 1.384 . S
C4289 C4288 1.377 . S
C4289 C4295 1.390 . S
C4290 H4281 0.930 . S
C4290 C4288 1.384 . S
C4290 C4291 1.372 . S
C4291 C4290 1.372 . S
C4291 C4292 1.400 . S
C4291 C4296 1.490 . S
C4292 H4282 0.930 . S
C4292 C4291 1.400 . S
C4292 C4295 1.386 . S
H4293 C4309 0.930 . S
H4294 C4310 0.931 . S
C4295 H4283 0.929 . S
C4295 C4289 1.390 . S
C4295 C4292 1.386 . S
C4296 C4291 1.490 . S
C4296 C4298 1.395 . S
C4296 C4299 1.403 . S
H4297 C4303 0.930 . S
C4298 H4284 0.930 . S
C4298 C4296 1.395 . S
C4298 C4301 1.403 . S
C4299 C4296 1.403 . S
C4299 C4300 1.524 . S
C4299 C4303 1.400 . S
C4300 H4285 0.960 . S
C4300 H4286 0.960 . S
C4300 H4287 0.960 . S
C4300 C4299 1.524 . S
C4301 C4298 1.403 . S
C4301 C4302 1.392 . S
C4301 C4305 1.495 . S
C4302 C4301 1.392 . S
C4302 C4303 1.385 . S
C4302 C4304 1.478 . S
C4303 H4297 0.930 . S
C4303 C4299 1.400 . S
C4303 C4302 1.385 . S
C4304 C4302 1.478 . S
C4304 C4306 1.381 . S
C4304 C4310 1.383 . S
C4305 C4301 1.495 . S
C4305 H4311 0.959 . S
C4305 H4312 0.961 . S
C4305 H4313 0.960 . S
C4306 C4304 1.381 . S
C4306 C4307 1.394 . S
C4306 H4314 0.930 . S
C4307 C4306 1.394 . S
C4307 C4308 1.383 . S
C4307 H4315 0.929 . S
C4308 C4307 1.383 . S
C4308 C4309 1.377 . S
C4309 H4293 0.930 . S
C4309 C4308 1.377 . S
C4309 C4310 1.379 . S
C4310 H4294 0.931 . S
C4310 C4304 1.383 . S
C4310 C4309 1.379 . S
H4311 C4305 0.959 . S
H4312 C4305 0.961 . S
H4313 C4305 0.960 . S
H4314 C4306 0.930 . S
H4315 C4307 0.929 . S
H4316 C4324 0.929 . S
H4317 C4326 0.930 . S
H4318 C4328 0.930 . S
H4319 C4331 0.929 . S
H4320 C4334 0.930 . S
H4321 C4336 0.960 . S
H4322 C4336 0.960 . S
H4323 C4336 0.960 . S
C4324 H4316 0.929 . S
C4324 C4325 1.377 . S
C4324 C4326 1.384 . S
C4325 C4324 1.377 . S
C4325 C4331 1.390 . S
C4326 H4317 0.930 . S
C4326 C4324 1.384 . S
C4326 C4327 1.372 . S
C4327 C4326 1.372 . S
C4327 C4328 1.400 . S
C4327 C4332 1.490 . S
C4328 H4318 0.930 . S
C4328 C4327 1.400 . S
C4328 C4331 1.386 . S
H4329 C4345 0.930 . S
H4330 C4346 0.931 . S
C4331 H4319 0.929 . S
C4331 C4325 1.390 . S
C4331 C4328 1.386 . S
C4332 C4327 1.490 . S
C4332 C4334 1.395 . S
C4332 C4335 1.403 . S
H4333 C4339 0.930 . S
C4334 H4320 0.930 . S
C4334 C4332 1.395 . S
C4334 C4337 1.403 . S
C4335 C4332 1.403 . S
C4335 C4336 1.524 . S
C4335 C4339 1.400 . S
C4336 H4321 0.960 . S
C4336 H4322 0.960 . S
C4336 H4323 0.960 . S
C4336 C4335 1.524 . S
C4337 C4334 1.403 . S
C4337 C4338 1.392 . S
C4337 C4341 1.495 . S
C4338 C4337 1.392 . S
C4338 C4339 1.385 . S
C4338 C4340 1.478 . S
C4339 H4333 0.930 . S
C4339 C4335 1.400 . S
C4339 C4338 1.385 . S
C4340 C4338 1.478 . S
C4340 C4342 1.381 . S
C4340 C4346 1.383 . S
C4341 C4337 1.495 . S
C4341 H4347 0.959 . S
C4341 H4348 0.961 . S
C4341 H4349 0.960 . S
C4342 C4340 1.381 . S
C4342 C4343 1.394 . S
C4342 H4350 0.930 . S
C4343 C4342 1.394 . S
C4343 C4344 1.383 . S
C4343 H4351 0.929 . S
C4344 C4343 1.383 . S
C4344 C4345 1.377 . S
C4345 H4329 0.930 . S
C4345 C4344 1.377 . S
C4345 C4346 1.379 . S
C4346 H4330 0.931 . S
C4346 C4340 1.383 . S
C4346 C4345 1.379 . S
H4347 C4341 0.959 . S
H4348 C4341 0.961 . S
H4349 C4341 0.960 . S
H4350 C4342 0.930 . S
H4351 C4343 0.929 . S
H4352 C4360 0.929 . S
H4353 C4362 0.930 . S
H4354 C4364 0.930 . S
H4355 C4367 0.929 . S
H4356 C4370 0.930 . S
H4357 C4372 0.960 . S
H4358 C4372 0.960 . S
H4359 C4372 0.960 . S
C4360 H4352 0.929 . S
C4360 C4361 1.377 . S
C4360 C4362 1.384 . S
C4361 C4360 1.377 . S
C4361 C4367 1.390 . S
C4362 H4353 0.930 . S
C4362 C4360 1.384 . S
C4362 C4363 1.372 . S
C4363 C4362 1.372 . S
C4363 C4364 1.400 . S
C4363 C4368 1.490 . S
C4364 H4354 0.930 . S
C4364 C4363 1.400 . S
C4364 C4367 1.386 . S
H4365 C4381 0.930 . S
H4366 C4382 0.931 . S
C4367 H4355 0.929 . S
C4367 C4361 1.390 . S
C4367 C4364 1.386 . S
C4368 C4363 1.490 . S
C4368 C4370 1.395 . S
C4368 C4371 1.403 . S
H4369 C4375 0.930 . S
C4370 H4356 0.930 . S
C4370 C4368 1.395 . S
C4370 C4373 1.403 . S
C4371 C4368 1.403 . S
C4371 C4372 1.524 . S
C4371 C4375 1.400 . S
C4372 H4357 0.960 . S
C4372 H4358 0.960 . S
C4372 H4359 0.960 . S
C4372 C4371 1.524 . S
C4373 C4370 1.403 . S
C4373 C4374 1.392 . S
C4373 C4377 1.495 . S
C4374 C4373 1.392 . S
C4374 C4375 1.385 . S
C4374 C4376 1.478 . S
C4375 H4369 0.930 . S
C4375 C4371 1.400 . S
C4375 C4374 1.385 . S
C4376 C4374 1.478 . S
C4376 C4378 1.381 . S
C4376 C4382 1.383 . S
C4377 C4373 1.495 . S
C4377 H4383 0.959 . S
C4377 H4384 0.961 . S
C4377 H4385 0.960 . S
C4378 C4376 1.381 . S
C4378 C4379 1.394 . S
C4378 H4386 0.930 . S
C4379 C4378 1.394 . S
C4379 C4380 1.383 . S
C4379 H4387 0.929 . S
C4380 C4379 1.383 . S
C4380 C4381 1.377 . S
C4381 H4365 0.930 . S
C4381 C4380 1.377 . S
C4381 C4382 1.379 . S
C4382 H4366 0.931 . S
C4382 C4376 1.383 . S
C4382 C4381 1.379 . S
H4383 C4377 0.959 . S
H4384 C4377 0.961 . S
H4385 C4377 0.960 . S
H4386 C4378 0.930 . S
H4387 C4379 0.929 . S
H4388 C4396 0.929 . S
H4389 C4398 0.930 . S
H4390 C4400 0.930 . S
H4391 C4403 0.929 . S
H4392 C4406 0.930 . S
H4393 C4408 0.960 . S
H4394 C4408 0.960 . S
H4395 C4408 0.960 . S
C4396 H4388 0.929 . S
C4396 C4397 1.377 . S
C4396 C4398 1.384 . S
C4397 C4396 1.377 . S
C4397 C4403 1.390 . S
C4398 H4389 0.930 . S
C4398 C4396 1.384 . S
C4398 C4399 1.372 . S
C4399 C4398 1.372 . S
C4399 C4400 1.400 . S
C4399 C4404 1.490 . S
C4400 H4390 0.930 . S
C4400 C4399 1.400 . S
C4400 C4403 1.386 . S
H4401 C4417 0.930 . S
H4402 C4418 0.931 . S
C4403 H4391 0.929 . S
C4403 C4397 1.390 . S
C4403 C4400 1.386 . S
C4404 C4399 1.490 . S
C4404 C4406 1.395 . S
C4404 C4407 1.403 . S
H4405 C4411 0.930 . S
C4406 H4392 0.930 . S
C4406 C4404 1.395 . S
C4406 C4409 1.403 . S
C4407 C4404 1.403 . S
C4407 C4408 1.524 . S
C4407 C4411 1.400 . S
C4408 H4393 0.960 . S
C4408 H4394 0.960 . S
C4408 H4395 0.960 . S
C4408 C4407 1.524 . S
C4409 C4406 1.403 . S
C4409 C4410 1.392 . S
C4409 C4413 1.495 . S
C4410 C4409 1.392 . S
C4410 C4411 1.385 . S
C4410 C4412 1.478 . S
C4411 H4405 0.930 . S
C4411 C4407 1.400 . S
C4411 C4410 1.385 . S
C4412 C4410 1.478 . S
C4412 C4414 1.381 . S
C4412 C4418 1.383 . S
C4413 C4409 1.495 . S
C4413 H4419 0.959 . S
C4413 H4420 0.961 . S
C4413 H4421 0.960 . S
C4414 C4412 1.381 . S
C4414 C4415 1.394 . S
C4414 H4422 0.930 . S
C4415 C4414 1.394 . S
C4415 C4416 1.383 . S
C4415 H4423 0.929 . S
C4416 C4415 1.383 . S
C4416 C4417 1.377 . S
C4417 H4401 0.930 . S
C4417 C4416 1.377 . S
C4417 C4418 1.379 . S
C4418 H4402 0.931 . S
C4418 C4412 1.383 . S
C4418 C4417 1.379 . S
H4419 C4413 0.959 . S
H4420 C4413 0.961 . S
H4421 C4413 0.960 . S
H4422 C4414 0.930 . S
H4423 C4415 0.929 . S
C996 N428 1.713 . S
C977 N5 1.767 . S
C1032 C455 1.508 . S
C1013 N15 1.531 . S
C1049 N31 1.738 . S
C1068 C469 1.747 . S
C1104 N487 1.540 . S
C1085 N40 1.581 . S
C1121 N53 1.404 . S
C1140 C492 1.365 . S
C1157 N70 1.651 . S
C1176 C432 1.673 . S
C1193 N80 1.509 . S
C1212 N451 1.454 . S
C1248 N464 1.749 . S
C1229 N92 1.794 . S
C1284 N510 1.685 . S
C1265 N2 1.799 . S
C1301 N14 1.425 . S
C1320 N533 1.368 . S
C1337 N27 1.775 . S
C1356 N556 1.761 . S
C1392 N589 1.662 . S
C1373 N44 1.725 . S
C1409 N54 1.261 . S
C1428 C616 1.259 . S
C1464 C639 1.319 . S
C1445 N67 1.319 . S
C1481 N83 1.261 . S
C1500 C662 1.260 . S
C1536 C676 1.575 1_565 S
C1517 N93 1.606 . S
C1553 N1 1.691 . S
C1572 C593 1.655 . S
C1589 N57 1.431 . S
C1608 N635 1.393 . S
C1644 N658 1.836 . S
C1625 N66 1.851 . S
C1661 N79 1.872 . S
C1680 N671 1.828 . S
C1716 N612 1.807 . S
C1697 N96 1.864 . S
C1752 C538 1.570 . S
C1733 N28 1.578 . S
C1769 N41 1.419 . S
C1788 C561 1.402 . S
C1824 C515 1.400 . S
C1805 N18 1.416 . S
C1860 C708 1.787 . S
C1841 N109 1.790 . S
C1877 N119 1.427 . S
C1896 C722 1.390 . S
C1913 N135 1.674 . S
C1932 N750 1.625 . S
C1968 N763 1.518 . S
C1949 N144 1.549 . S
C1985 N157 1.433 . S
C2004 C768 1.406 . S
C2021 N174 1.659 . S
C2040 N704 1.604 . S
C2057 N184 1.618 . S
C2076 N717 1.504 . S
C2093 N196 1.782 . S
C2112 C754 1.782 . S
C2148 N602 1.651 . S
C2129 N106 1.777 . S
C2165 N118 1.441 . S
C2184 N786 1.377 . S
C2220 N648 1.678 1_655 S
C2201 N131 1.694 . S
C2237 N148 1.800 . S
C2256 C823 1.790 . S
C2273 N158 1.388 . S
C2292 C524 1.392 . S
C2328 C837 1.386 . S
C2309 N171 1.383 . S
C2345 N187 1.347 . S
C2364 C570 1.347 . S
C2400 N855 1.529 . S
C2381 N197 1.662 . S
C2417 N105 1.713 . S
C2436 N819 1.694 . S
C2472 N832 1.425 . S
C2453 N161 1.460 . S
C2489 N170 1.884 . S
C2508 N566 1.856 . S
C2544 C860 1.790 . S
C2525 N183 1.821 . S
C2561 N200 1.863 . S
C2580 N520 1.830 . S
C2597 N132 1.486 . S
C2616 C791 1.472 . S
C2633 N145 1.444 . S
C2652 C653 1.447 . S
C2669 N122 1.293 . S
C2688 C607 1.256 . S
C2705 N213 1.828 . S
C2724 C745 1.821 . S
C2760 C777 1.408 . S
C2741 N223 1.426 . S
C2777 N239 1.690 . S
C2796 N694 1.684 . S
C2813 N248 1.558 . S
C2832 N727 1.524 . S
C2849 N261 1.451 . S
C2868 C731 1.436 . S
C2885 N278 1.695 . S
C2904 N740 1.661 . S
C2940 N773 1.442 . S
C2921 N288 1.496 . S
C2957 N300 1.837 . S
C2976 C699 1.841 . S
C3012 N888 1.795 . S
C2993 N210 1.838 . S
C3029 N222 1.422 . S
C3048 N625 1.385 . S
C3084 N911 1.602 . S
C3065 N235 1.679 . S
C3101 N252 1.771 . S
C3120 N681 1.675 . S
C3137 N262 1.327 . S
C3156 C929 1.304 . S
C3173 N275 1.411 . S
C3192 C547 1.408 . S
C3228 N947 1.243 . S
C3209 N291 1.263 . S
C3245 N301 1.643 . S
C3264 C584 1.664 . S
C3300 C685 1.673 . S
C3281 N209 1.726 . S
C3336 N543 1.402 . S
C3317 N265 1.418 . S
C3353 N274 1.948 . S
C3372 C952 1.966 . S
C3389 N287 1.798 . S
C3408 N579 1.764 . S
C3444 N924 1.785 . S
C3425 N304 1.914 . S
C3480 C630 1.494 . S
C3461 N236 1.492 . S
C3516 C915 1.390 . S
C3497 N249 1.425 . S
C3552 C892 1.308 . S
C3533 N226 1.326 . S
C3569 N317 1.721 . S
C3588 N474 1.651 . S
C3605 N327 1.413 . S
C3624 C501 1.409 . S
C3660 C423 1.749 . S
C3641 N343 1.736 . S
C3696 N441 1.426 . S
C3677 N352 1.513 . S
C3732 C446 1.444 . S
C3713 N365 1.492 . S
C3768 C478 1.678 . S
C3749 N382 1.661 . S
C3804 N497 1.596 . S
C3785 N392 1.616 . S
C3821 N404 1.792 . S
C3840 N418 1.761 . S
C3857 N314 1.737 . S
C3876 N934 1.722 . S
C3912 N842 1.401 . S
C3893 N326 1.402 . S
C3948 C961 1.809 . S
C3929 N339 1.811 . S
C3984 C869 1.652 . S
C3965 N356 1.658 . S
C4001 N366 1.352 . S
C4020 C883 1.330 . S
C4056 C800 1.348 . S
C4037 N379 1.352 . S
C4092 C906 1.404 . S
C4073 N395 1.396 . S
C4109 N405 1.629 . S
C4128 N809 1.524 . S
C4164 N865 1.632 . S
C4145 N313 1.691 . S
C4200 N796 1.416 . S
C4181 N369 1.426 . S
C4236 N901 1.874 . S
C4217 N378 1.859 . S
C4253 N391 1.907 . S
C4272 C814 1.891 . S
C4289 N408 1.873 . S
C4308 N878 1.768 . S
C4325 N340 1.594 . S
C4344 C846 1.590 . S
C4361 N353 1.391 . S
C4380 N957 1.327 . S
C4416 C938 1.325 . S
C4397 N330 1.347 . S
