# Generated by pormake.
# Topology hwx, (6,3)-cn, num edge types: 1
# Building blocks:
#     Node 0, Type 0, BuildingBlock: OJICUG_clean_sbu_0, # of connection points: 6
#     Node 1, Type 0, BuildingBlock: OJICUG_clean_sbu_0, # of connection points: 6
#     Node 2, Type 0, BuildingBlock: OJICUG_clean_sbu_0, # of connection points: 6
#     Node 3, Type 0, BuildingBlock: OJICUG_clean_sbu_0, # of connection points: 6
#     Node 4, Type 1, BuildingBlock: INOVEN_clean_linker_0, # of connection points: 3
#     Node 5, Type 1, BuildingBlock: INOVEN_clean_linker_0, # of connection points: 3
#     Node 6, Type 1, BuildingBlock: INOVEN_clean_linker_0, # of connection points: 3
#     Node 7, Type 1, BuildingBlock: INOVEN_clean_linker_0, # of connection points: 3
#     Node 8, Type 1, BuildingBlock: INOVEN_clean_linker_0, # of connection points: 3
#     Node 9, Type 1, BuildingBlock: INOVEN_clean_linker_0, # of connection points: 3
#     Node 10, Type 1, BuildingBlock: INOVEN_clean_linker_0, # of connection points: 3
#     Node 11, Type 1, BuildingBlock: INOVEN_clean_linker_0, # of connection points: 3
#     Edge 12, Type (0, 1), BuildingBlock: AJUNOK_clean_linker_0, # of connection points: 2
#     Edge 13, Type (0, 1), BuildingBlock: AJUNOK_clean_linker_0, # of connection points: 2
#     Edge 14, Type (0, 1), BuildingBlock: AJUNOK_clean_linker_0, # of connection points: 2
#     Edge 15, Type (0, 1), BuildingBlock: AJUNOK_clean_linker_0, # of connection points: 2
#     Edge 16, Type (0, 1), BuildingBlock: AJUNOK_clean_linker_0, # of connection points: 2
#     Edge 17, Type (0, 1), BuildingBlock: AJUNOK_clean_linker_0, # of connection points: 2
#     Edge 18, Type (0, 1), BuildingBlock: AJUNOK_clean_linker_0, # of connection points: 2
#     Edge 19, Type (0, 1), BuildingBlock: AJUNOK_clean_linker_0, # of connection points: 2
#     Edge 20, Type (0, 1), BuildingBlock: AJUNOK_clean_linker_0, # of connection points: 2
#     Edge 21, Type (0, 1), BuildingBlock: AJUNOK_clean_linker_0, # of connection points: 2
#     Edge 22, Type (0, 1), BuildingBlock: AJUNOK_clean_linker_0, # of connection points: 2
#     Edge 23, Type (0, 1), BuildingBlock: AJUNOK_clean_linker_0, # of connection points: 2
#     Edge 24, Type (0, 1), BuildingBlock: AJUNOK_clean_linker_0, # of connection points: 2
#     Edge 25, Type (0, 1), BuildingBlock: AJUNOK_clean_linker_0, # of connection points: 2
#     Edge 26, Type (0, 1), BuildingBlock: AJUNOK_clean_linker_0, # of connection points: 2
#     Edge 27, Type (0, 1), BuildingBlock: AJUNOK_clean_linker_0, # of connection points: 2
#     Edge 28, Type (0, 1), BuildingBlock: AJUNOK_clean_linker_0, # of connection points: 2
#     Edge 29, Type (0, 1), BuildingBlock: AJUNOK_clean_linker_0, # of connection points: 2
#     Edge 30, Type (0, 1), BuildingBlock: AJUNOK_clean_linker_0, # of connection points: 2
#     Edge 31, Type (0, 1), BuildingBlock: AJUNOK_clean_linker_0, # of connection points: 2
#     Edge 32, Type (0, 1), BuildingBlock: AJUNOK_clean_linker_0, # of connection points: 2
#     Edge 33, Type (0, 1), BuildingBlock: AJUNOK_clean_linker_0, # of connection points: 2
#     Edge 34, Type (0, 1), BuildingBlock: AJUNOK_clean_linker_0, # of connection points: 2
#     Edge 35, Type (0, 1), BuildingBlock: AJUNOK_clean_linker_0, # of connection points: 2
# Relax obj value: 0.009
# Max RMSD: 0.040
# Mean RMSD: 0.039
data_MOF--net-hwx--node1-OJICUG_clean_sbu_0--node2-INOVEN_clean_linker_0--edge1-AJUNOK_clean_linker_0
_symmetry_space_group_name_H-M    P1
_symmetry_Int_Tables_number       1
_symmetry_cell_setting            triclinic
loop_
_symmetry_equiv_pos_as_xyz
'x, y, z'
_cell_length_a     39.280958
_cell_length_b     39.299268
_cell_length_c     15.25114
_cell_angle_alpha  92.60561
_cell_angle_beta   92.603688
_cell_angle_gamma 90.000574
loop_
_atom_site_label
_atom_site_type_symbol
_atom_site_fract_x
_atom_site_fract_y
_atom_site_fract_z
_atom_type_partial_charge
Sc0 Sc 0.23032 0.23279 0.10452 0.0
Sc1 Sc 0.17547 0.17807 0.97306 0.0
Sc2 Sc 0.23183 0.23332 0.87509 0.0
O3 O 0.21252 0.2147 0.98429 0.0
C4 C 0.22716 0.3009 -0.00187 0.0
C5 C 0.15039 0.22597 0.13136 0.0
C6 C 0.15233 0.22744 0.82164 0.0
C7 C 0.2226 0.15298 0.13274 0.0
C8 C 0.29885 0.22839 8e-05 0.0
C9 C 0.22505 0.15387 0.82291 0.0
O10 O 0.22757 0.28533 0.06949 0.0
O11 O 0.14497 0.20365 0.06944 0.0
O12 O 0.18198 0.23956 0.81398 0.0
O13 O 0.23527 0.18227 0.15247 0.0
O14 O 0.28372 0.22956 0.92488 0.0
O15 O 0.20181 0.14813 0.87563 0.0
O16 O 0.2829 0.22938 0.07083 0.0
O17 O 0.20048 0.14763 0.07031 0.0
O18 O 0.23764 0.18329 0.81515 0.0
O19 O 0.17974 0.23844 0.15118 0.0
O20 O 0.22856 0.28535 0.92356 0.0
O21 O 0.14613 0.20449 0.87481 0.0
Sc22 Sc 0.26325 0.73386 0.3857 0.0
Sc23 Sc 0.32055 0.67928 0.49618 0.0
Sc24 Sc 0.26595 0.73349 0.61556 0.0
O25 O 0.28327 0.71552 0.49913 0.0
C26 C 0.26825 0.80154 0.50959 0.0
C27 C 0.34262 0.72872 0.34887 0.0
C28 C 0.34608 0.72761 0.65936 0.0
C29 C 0.27054 0.65433 0.33576 0.0
C30 C 0.19684 0.7282 0.49697 0.0
C31 C 0.27413 0.65393 0.64628 0.0
O32 O 0.26639 0.78619 0.4343 0.0
O33 O 0.34924 0.70597 0.4037 0.0
O34 O 0.31671 0.73979 0.67292 0.0
O35 O 0.25761 0.68358 0.32506 0.0
O36 O 0.21326 0.72942 0.57078 0.0
O37 O 0.29609 0.64863 0.58858 0.0
O38 O 0.21147 0.72958 0.42458 0.0
O39 O 0.29405 0.64899 0.39345 0.0
O40 O 0.26144 0.68314 0.66298 0.0
O41 O 0.31283 0.74048 0.3349 0.0
O42 O 0.26832 0.78577 0.58047 0.0
O43 O 0.35137 0.70524 0.59878 0.0
Sc44 Sc 0.76526 0.76601 0.90095 0.0
Sc45 Sc 0.82161 0.81972 0.03018 0.0
Sc46 Sc 0.7647 0.76568 0.13065 0.0
O47 O 0.78387 0.78382 0.02059 0.0
C48 C 0.69725 0.77154 0.00764 0.0
C49 C 0.77397 0.84552 0.87217 0.0
C50 C 0.77349 0.84516 0.18236 0.0
C51 C 0.84512 0.77136 0.87108 0.0
C52 C 0.76798 0.69798 0.00731 0.0
C53 C 0.84453 0.77018 0.18139 0.0
O54 O 0.7129 0.77015 0.93642 0.0
O55 O 0.79663 0.85055 0.93351 0.0
O56 O 0.76011 0.81606 0.1906 0.0
O57 O 0.81546 0.7595 0.85202 0.0
O58 O 0.76686 0.71332 0.08236 0.0
O59 O 0.85094 0.7929 0.12778 0.0
O60 O 0.7676 0.71373 0.93637 0.0
O61 O 0.85118 0.7935 0.93305 0.0
O62 O 0.81471 0.75865 0.19013 0.0
O63 O 0.76073 0.81645 0.85317 0.0
O64 O 0.71264 0.7703 0.0825 0.0
O65 O 0.79638 0.8502 0.12822 0.0
Sc66 Sc 0.73363 0.26629 0.629 0.0
Sc67 Sc 0.67655 0.32126 0.51928 0.0
Sc68 Sc 0.72974 0.26572 0.39913 0.0
O69 O 0.71328 0.28445 0.51581 0.0
C70 C 0.79945 0.27057 0.51537 0.0
C71 C 0.72701 0.34575 0.67941 0.0
C72 C 0.72338 0.34557 0.36912 0.0
C73 C 0.65443 0.27213 0.66719 0.0
C74 C 0.72732 0.19818 0.50655 0.0
C75 C 0.6497 0.27317 0.35692 0.0
O76 O 0.78524 0.27022 0.58857 0.0
O77 O 0.70351 0.35128 0.62186 0.0
O78 O 0.7351 0.316 0.35166 0.0
O79 O 0.68415 0.26014 0.68081 0.0
O80 O 0.72658 0.21344 0.43478 0.0
O81 O 0.64503 0.29586 0.41711 0.0
O82 O 0.73008 0.21401 0.58103 0.0
O83 O 0.64784 0.29486 0.61223 0.0
O84 O 0.67876 0.2603 0.34318 0.0
O85 O 0.73978 0.31643 0.68966 0.0
O86 O 0.78259 0.26877 0.44224 0.0
O87 O 0.70145 0.35148 0.42662 0.0
H88 H 0.23759 0.50665 0.82875 0.0
H89 H 0.24384 0.60041 0.98475 0.0
H90 H 0.23533 0.50569 0.11135 0.0
N91 N 0.23266 0.46594 0.95969 0.0
N92 N 0.23102 0.44769 0.02412 0.0
C93 C 0.23781 0.52019 0.8923 0.0
C94 C 0.24061 0.55577 0.89784 0.0
C95 C 0.23547 0.5019 0.96871 0.0
C96 C 0.23643 0.51947 0.05161 0.0
C97 C 0.2388 0.55511 0.05695 0.0
C98 C 0.24075 0.57293 0.98011 0.0
H99 H 0.99163 0.73167 0.67885 0.0
H100 H 0.89748 0.73915 0.52629 0.0
H101 H 0.99182 0.73171 0.39587 0.0
N102 N 0.03204 0.72833 0.5457 0.0
N103 N 0.04995 0.72799 0.48024 0.0
C104 C 0.9779 0.73222 0.61565 0.0
C105 C 0.9423 0.7351 0.61153 0.0
C106 C 0.996 0.73059 0.53833 0.0
C107 C 0.9782 0.73217 0.4561 0.0
C108 C 0.94255 0.73452 0.45197 0.0
C109 C 0.92494 0.73582 0.52961 0.0
H110 H 0.75644 0.49393 0.18777 0.0
H111 H 0.75408 0.39931 0.03514 0.0
H112 H 0.75967 0.49347 0.90503 0.0
N113 N 0.7609 0.53416 0.05438 0.0
N114 N 0.76575 0.55127 -0.0108 0.0
C115 C 0.75699 0.48013 0.12469 0.0
C116 C 0.75591 0.44445 0.12033 0.0
C117 C 0.75908 0.49807 0.04756 0.0
C118 C 0.75894 0.48001 0.96535 0.0
C119 C 0.75762 0.44434 0.96114 0.0
C120 C 0.75627 0.42688 0.03866 0.0
H121 H 0.00345 0.26349 0.32514 0.0
H122 H 0.09831 0.25676 0.47494 0.0
H123 H 0.00465 0.26441 0.60839 0.0
N124 N 0.96376 0.26748 0.45974 0.0
N125 N 0.94627 0.269 0.52598 0.0
C126 C 0.01747 0.26312 0.38797 0.0
C127 C 0.05307 0.26042 0.39107 0.0
C128 C -0.00022 0.26503 0.46593 0.0
C129 C 0.01797 0.26373 0.54767 0.0
C130 C 0.0536 0.2614 0.5507 0.0
C131 C 0.07083 0.25992 0.47248 0.0
H132 H 0.73633 0.99284 0.68159 0.0
H133 H 0.74519 0.89904 0.52891 0.0
H134 H 0.73561 0.99335 0.39859 0.0
N135 N 0.7319 0.03326 0.54898 0.0
N136 N 0.73056 0.05141 0.48397 0.0
C137 C 0.73708 0.97922 0.61829 0.0
C138 C 0.74043 0.94372 0.61393 0.0
C139 C 0.73495 0.99733 0.54108 0.0
C140 C 0.73665 0.97965 0.45869 0.0
C141 C 0.73991 0.94405 0.45437 0.0
C142 C 0.74151 0.92644 0.53204 0.0
H143 H 0.50697 0.23503 0.84252 0.0
H144 H 0.59887 0.24295 0.00551 0.0
H145 H 0.50237 0.23615 0.12489 0.0
N146 N 0.4645 0.23184 0.97046 0.0
N147 N 0.44554 0.23102 0.03368 0.0
C148 C 0.5197 0.23583 0.90716 0.0
C149 C 0.55527 0.23828 0.91552 0.0
C150 C 0.50042 0.23452 0.98212 0.0
C151 C 0.51696 0.2365 0.06634 0.0
C152 C 0.55258 0.23914 0.07462 0.0
C153 C 0.57141 0.23976 -0.00091 0.0
H154 H 0.2582 0.00523 0.32493 0.0
H155 H 0.25327 0.09996 0.4761 0.0
H156 H 0.26049 0.00612 0.60832 0.0
N157 N 0.26257 0.96529 0.45968 0.0
N158 N 0.26691 0.94826 0.52629 0.0
C159 C 0.25827 0.01916 0.38792 0.0
C160 C 0.25608 0.05482 0.39151 0.0
C161 C 0.26046 0.00135 0.46573 0.0
C162 C 0.25972 0.01949 0.54768 0.0
C163 C 0.25769 0.0551 0.55115 0.0
C164 C 0.25611 0.07246 0.47318 0.0
H165 H 0.48994 0.76703 0.17234 0.0
H166 H 0.39731 0.75906 0.01227 0.0
H167 H 0.49315 0.766 0.88968 0.0
N168 N 0.5318 0.77016 0.04285 0.0
N169 N 0.55045 0.77029 0.97886 0.0
C170 C 0.4769 0.7663 0.10809 0.0
C171 C 0.44132 0.7638 0.10085 0.0
C172 C 0.49582 0.76761 0.03245 0.0
C173 C 0.47885 0.76564 0.94873 0.0
C174 C 0.4432 0.76296 0.94154 0.0
C175 C 0.42477 0.76235 0.01775 0.0
C176 C 0.12537 0.26721 0.23959 0.0
C177 C 0.12177 0.23727 0.18565 0.0
C178 C 0.10126 0.27616 0.30109 0.0
C179 C 0.07259 0.25557 0.311 0.0
H180 H 0.14768 0.28327 0.23687 0.0
H181 H 0.106 0.2984 0.34459 0.0
S182 S 0.04911 0.17657 0.18054 0.0
N183 N 0.08546 0.18862 0.14116 0.0
N184 N 0.0403 0.20553 0.25803 0.0
C185 C 0.06728 0.22694 0.25365 0.0
C186 C 0.09186 0.21775 0.19065 0.0
C187 C 0.23361 0.62875 0.74677 0.0
C188 C 0.26334 0.62535 0.69886 0.0
C189 C 0.22493 0.60451 0.80617 0.0
C190 C 0.24556 0.57588 0.81992 0.0
H191 H 0.21745 0.65094 0.74081 0.0
H192 H 0.20278 0.60902 0.84489 0.0
S193 S 0.32421 0.55306 0.70583 0.0
N194 N 0.31195 0.5894 0.66433 0.0
N195 N 0.29552 0.54397 0.77716 0.0
C196 C 0.27406 0.57086 0.76865 0.0
C197 C 0.28299 0.59558 0.70782 0.0
C198 C 0.90196 0.77772 0.25848 0.0
C199 C 0.8727 0.75751 0.239 0.0
C200 C 0.92657 0.76849 0.32259 0.0
C201 C 0.92277 0.73869 0.36863 0.0
H202 H 0.90495 0.8018 0.22782 0.0
H203 H 0.94737 0.78592 0.34048 0.0
S204 S 0.85455 0.67391 0.33132 0.0
N205 N 0.8441 0.70389 0.26264 0.0
N206 N 0.89033 0.6869 0.38327 0.0
C207 C 0.89528 0.71692 0.34474 0.0
C208 C 0.87022 0.72625 0.2799 0.0
C209 C 0.71786 0.40305 0.75368 0.0
C210 C 0.73868 0.37419 0.74073 0.0
C211 C 0.72578 0.4277 0.82089 0.0
C212 C 0.75483 0.42435 0.87688 0.0
H213 H 0.69424 0.40568 0.71512 0.0
H214 H 0.70788 0.44817 0.83292 0.0
S215 S 0.82093 0.35743 0.86097 0.0
N216 N 0.79222 0.34656 0.78224 0.0
N217 N 0.80671 0.39287 0.90866 0.0
C218 C 0.77728 0.39732 0.86015 0.0
C219 C 0.7693 0.37222 0.79204 0.0
C220 C 0.6233 0.23129 0.24633 0.0
C221 C 0.62062 0.26189 0.29724 0.0
C222 C 0.59908 0.22238 0.17931 0.0
C223 C 0.57123 0.24368 0.16062 0.0
H224 H 0.64509 0.21472 0.25559 0.0
H225 H 0.60328 0.19969 0.13815 0.0
S226 S 0.54997 0.32442 0.28038 0.0
N227 N 0.58579 0.31182 0.32972 0.0
N228 N 0.54042 0.29497 0.20244 0.0
C229 C 0.56665 0.27292 0.21501 0.0
C230 C 0.59134 0.28207 0.28369 0.0
C231 C 0.21615 0.0966 0.74603 0.0
C232 C 0.23698 0.12546 0.76491 0.0
C233 C 0.22461 0.07185 0.68153 0.0
C234 C 0.25423 0.07511 0.63441 0.0
H235 H 0.19218 0.09404 0.77754 0.0
H236 H 0.20675 0.05136 0.66428 0.0
S237 S 0.32041 0.14204 0.66948 0.0
N238 N 0.29101 0.15303 0.73937 0.0
N239 N 0.30649 0.10655 0.61784 0.0
C240 C 0.2766 0.10217 0.6575 0.0
C241 C 0.26808 0.12736 0.72285 0.0
C242 C 0.40011 0.72141 0.28567 0.0
C243 C 0.3705 0.74118 0.29634 0.0
C244 C 0.42475 0.73047 0.22721 0.0
C245 C 0.42064 0.75964 0.17799 0.0
H246 H 0.40347 0.69783 0.31909 0.0
H247 H 0.44597 0.71342 0.21628 0.0
S248 S 0.35128 0.82319 0.19278 0.0
N249 N 0.34109 0.79379 0.26105 0.0
N250 N 0.3874 0.81042 0.15094 0.0
C251 C 0.39267 0.78096 0.19292 0.0
C252 C 0.36758 0.77183 0.25214 0.0
C253 C 0.73323 0.87086 0.76326 0.0
C254 C 0.76305 0.87425 0.81783 0.0
C255 C 0.72451 0.89515 0.70214 0.0
C256 C 0.74517 0.92383 0.69332 0.0
H257 H 0.71707 0.84859 0.76523 0.0
H258 H 0.70236 0.89059 0.65818 0.0
S259 S 0.82389 0.94684 0.82561 0.0
N260 N 0.81168 0.91037 0.86394 0.0
N261 N 0.79514 0.95591 0.74781 0.0
C262 C 0.77369 0.92891 0.75117 0.0
C263 C 0.78268 0.90413 0.81375 0.0
C264 C 0.86901 0.73 0.76105 0.0
C265 C 0.87339 0.75957 0.81611 0.0
C266 C 0.89306 0.72058 0.69972 0.0
C267 C 0.92244 0.74031 0.69104 0.0
H268 H 0.8462 0.71459 0.76291 0.0
H269 H 0.88779 0.69864 0.65553 0.0
S270 S 0.94791 0.81807 0.82439 0.0
N271 N 0.91108 0.80693 0.8627 0.0
N272 N 0.95605 0.78919 0.74616 0.0
C273 C 0.92841 0.76857 0.74932 0.0
C274 C 0.90391 0.77822 0.81215 0.0
C275 C 0.71374 0.40241 0.30421 0.0
C276 C 0.73499 0.37405 0.31759 0.0
C277 C 0.72212 0.4272 0.24538 0.0
C278 C 0.7521 0.42445 0.19881 0.0
H279 H 0.68954 0.40449 0.33537 0.0
H280 H 0.704 0.44728 0.23186 0.0
S281 S 0.81928 0.35894 0.22222 0.0
N282 N 0.7896 0.34748 0.28831 0.0
N283 N 0.80508 0.39406 0.17781 0.0
C284 C 0.77483 0.3979 0.217 0.0
C285 C 0.76633 0.37265 0.27636 0.0
C286 C 0.09493 0.21924 0.74487 0.0
C287 C 0.12413 0.23964 0.76339 0.0
C288 C 0.07018 0.22805 0.68072 0.0
C289 C 0.07375 0.2576 0.63361 0.0
H290 H 0.09206 0.19534 0.77647 0.0
H291 H 0.04939 0.2105 0.66376 0.0
S292 S 0.14175 0.32275 0.66772 0.0
N293 N 0.15246 0.2932 0.7374 0.0
N294 N 0.10594 0.30937 0.61664 0.0
C295 C 0.10121 0.27956 0.65632 0.0
C296 C 0.12642 0.27066 0.72125 0.0
C297 C 0.27995 0.59708 0.26146 0.0
C298 C 0.25879 0.62563 0.27546 0.0
C299 C 0.27168 0.57211 0.19526 0.0
C300 C 0.24191 0.5748 0.14156 0.0
H301 H 0.30404 0.59498 0.29824 0.0
H302 H 0.28981 0.55196 0.18197 0.0
S303 S 0.17496 0.64069 0.16129 0.0
N304 N 0.20436 0.65224 0.23767 0.0
N305 N 0.18922 0.60536 0.11311 0.0
C306 C 0.21922 0.6015 0.15956 0.0
C307 C 0.22757 0.62692 0.22655 0.0
C308 C 0.37153 0.76955 0.77144 0.0
C309 C 0.37488 0.73927 0.71959 0.0
C310 C 0.39571 0.77878 0.83834 0.0
C311 C 0.42417 0.75813 0.85605 0.0
H312 H 0.34933 0.78563 0.76285 0.0
H313 H 0.39108 0.80123 0.88003 0.0
S314 S 0.44706 0.67838 0.73399 0.0
N315 N 0.41084 0.69032 0.68548 0.0
N316 N 0.45607 0.70774 0.81252 0.0
C317 C 0.42929 0.72921 0.8009 0.0
C318 C 0.40466 0.71974 0.73234 0.0
C319 C 0.73266 0.87069 0.28756 0.0
C320 C 0.76243 0.87401 0.24054 0.0
C321 C 0.72377 0.89531 0.35149 0.0
C322 C 0.74424 0.92423 0.37094 0.0
H323 H 0.71667 0.84826 0.27746 0.0
H324 H 0.70173 0.89076 0.38959 0.0
S325 S 0.82261 0.94724 0.26095 0.0
N326 N 0.81067 0.91043 0.21263 0.0
N327 N 0.79388 0.95645 0.33408 0.0
C328 C 0.77265 0.92924 0.3205 0.0
C329 C 0.78178 0.90416 0.25503 0.0
C330 C 0.59693 0.27981 0.73001 0.0
C331 C 0.62657 0.26001 0.7203 0.0
C332 C 0.57222 0.27107 0.78859 0.0
C333 C 0.5763 0.24222 0.83896 0.0
H334 H 0.59355 0.30316 0.69558 0.0
H335 H 0.55093 0.28813 0.79856 0.0
S336 S 0.64577 0.1787 0.82737 0.0
N337 N 0.65603 0.20768 0.75802 0.0
N338 N 0.60957 0.19167 0.86836 0.0
C339 C 0.60433 0.22086 0.8252 0.0
C340 C 0.62949 0.22966 0.76582 0.0
C341 C 0.26343 0.12753 0.24139 0.0
C342 C 0.23349 0.1243 0.18733 0.0
C343 C 0.27217 0.10317 0.3024 0.0
C344 C 0.25134 0.07463 0.31183 0.0
H345 H 0.2797 0.1497 0.239 0.0
H346 H 0.29448 0.1076 0.3459 0.0
S347 S 0.17207 0.05221 0.18114 0.0
N348 N 0.18448 0.08853 0.14238 0.0
N349 N 0.20096 0.04296 0.25842 0.0
C350 C 0.22263 0.06975 0.25449 0.0
C351 C 0.21367 0.09456 0.19193 0.0
C352 C 0.23002 0.35691 0.08411 0.0
C353 C 0.22619 0.33879 0.00232 0.0
C354 C 0.23103 0.3926 0.08972 0.0
C355 C 0.22835 0.4116 0.01424 0.0
H356 H 0.23284 0.34351 0.14451 0.0
H357 H 0.2345 0.40556 0.15372 0.0
S358 S 0.21518 0.37706 0.78421 0.0
N359 N 0.21767 0.34309 0.84383 0.0
N360 N 0.21973 0.40999 0.8548 0.0
C361 C 0.22357 0.39406 0.9319 0.0
C362 C 0.22245 0.3577 0.92601 0.0
C363 C 0.14004 0.73041 0.4154 0.0
C364 C 0.15898 0.72619 0.49494 0.0
C365 C 0.10435 0.73036 0.41203 0.0
C366 C 0.08612 0.72618 0.48757 0.0
H367 H 0.15279 0.73435 0.35518 0.0
H368 H 0.09076 0.7342 0.34988 0.0
S369 S 0.12299 0.71117 0.71123 0.0
N370 N 0.15635 0.71552 0.65071 0.0
N371 N 0.08933 0.7156 0.64399 0.0
C372 C 0.10447 0.72094 0.56739 0.0
C373 C 0.14088 0.72092 0.57099 0.0
C374 C 0.76255 0.64183 0.0775 0.0
C375 C 0.7688 0.66011 0.00235 0.0
C376 C 0.76176 0.60613 0.07401 0.0
C377 C 0.76729 0.58739 -0.00489 0.0
H378 H 0.75772 0.65513 0.13946 0.0
H379 H 0.75647 0.59325 0.13317 0.0
S380 S 0.78662 0.62195 0.78153 0.0
N381 N 0.78208 0.65601 0.84742 0.0
N382 N 0.7803 0.58892 0.84203 0.0
C383 C 0.77414 0.60504 0.92041 0.0
C384 C 0.77499 0.64135 0.92357 0.0
C385 C 0.85667 0.2698 0.59517 0.0
C386 C 0.83729 0.27202 0.51553 0.0
C387 C 0.89235 0.26936 0.59703 0.0
C388 C 0.91011 0.27108 0.51983 0.0
H389 H 0.84429 0.26786 0.65677 0.0
H390 H 0.9063 0.26714 0.65942 0.0
S391 S 0.87201 0.27973 0.29439 0.0
N392 N 0.83904 0.27784 0.35727 0.0
N393 N 0.906 0.27689 0.36125 0.0
C394 C 0.89132 0.27422 0.43966 0.0
C395 C 0.85494 0.27472 0.43757 0.0
C396 C 0.72943 0.14196 0.42219 0.0
C397 C 0.72615 0.1603 0.50298 0.0
C398 C 0.73028 0.10628 0.4174 0.0
C399 C 0.72793 0.08749 0.49273 0.0
H400 H 0.73199 0.15518 0.36205 0.0
H401 H 0.73337 0.09315 0.35427 0.0
S402 S 0.71623 0.12268 0.71977 0.0
N403 N 0.71851 0.15648 0.65997 0.0
N404 N 0.72024 0.08955 0.65063 0.0
C405 C 0.72368 0.10526 0.57392 0.0
C406 C 0.72277 0.14162 0.57895 0.0
C407 C 0.35424 0.23119 0.0886 0.0
C408 C 0.33673 0.22708 0.00603 0.0
C409 C 0.38991 0.23188 0.09607 0.0
C410 C 0.4095 0.2286 0.02177 0.0
H411 H 0.34039 0.23446 0.14819 0.0
H412 H 0.40239 0.23558 0.1606 0.0
S413 S 0.37668 0.21453 0.7905 0.0
N414 N 0.34219 0.21767 0.84817 0.0
N415 N 0.40913 0.21915 0.86263 0.0
C416 C 0.39258 0.22354 0.93868 0.0
C417 C 0.35622 0.22275 0.93088 0.0
C418 C 0.26398 0.85764 0.43765 0.0
C419 C 0.26941 0.83941 0.51463 0.0
C420 C 0.26346 0.89334 0.4407 0.0
C421 C 0.26846 0.91214 0.52099 0.0
H422 H 0.25958 0.84432 0.37441 0.0
H423 H 0.25876 0.90616 0.37999 0.0
S424 S 0.28554 0.87777 0.74019 0.0
N425 N 0.28132 0.84366 0.67326 0.0
N426 N 0.28008 0.91074 0.67769 0.0
C427 C 0.27453 0.89456 0.5977 0.0
C428 C 0.2751 0.85824 0.59501 0.0
C429 C 0.64144 0.7679 0.92103 0.0
C430 C 0.65938 0.77335 0.00265 0.0
C431 C 0.60576 0.76756 0.91474 0.0
C432 C 0.58655 0.77253 -0.01066 0.0
H433 H 0.65498 0.76321 0.86138 0.0
H434 H 0.59294 0.76274 0.85098 0.0
S435 S 0.62061 0.791 0.21792 0.0
N436 N 0.65478 0.78614 0.15955 0.0
N437 N 0.58778 0.7853 0.14737 0.0
C438 C 0.60391 0.77904 0.07133 0.0
C439 C 0.6403 0.77948 0.0779 0.0
loop_
_geom_bond_atom_site_label_1
_geom_bond_atom_site_label_2
_geom_bond_distance
_geom_bond_site_symmetry_2
_ccdc_geom_bond_type
Sc0 O3 2.025 . S
Sc0 O10 2.105 . S
Sc0 O13 2.105 . S
Sc0 O16 2.105 . S
Sc0 O19 2.105 . S
Sc1 O3 2.025 . S
Sc1 O11 2.105 . S
Sc1 O15 2.105 1_554 S
Sc1 O17 2.105 . S
Sc1 O21 2.105 1_554 S
Sc2 O3 2.025 1_556 S
Sc2 O12 2.105 . S
Sc2 O14 2.105 . S
Sc2 O18 2.105 . S
Sc2 O20 2.105 . S
O3 Sc0 2.025 . S
O3 Sc1 2.025 . S
O3 Sc2 2.025 1_554 S
C4 O10 1.268 . S
C4 O20 1.268 1_554 S
C5 O11 1.268 . S
C5 O19 1.268 . S
C6 O12 1.268 . S
C6 O21 1.268 . S
C7 O13 1.268 . S
C7 O17 1.268 . S
C8 O14 1.268 1_554 S
C8 O16 1.268 . S
C9 O15 1.268 . S
C9 O18 1.268 . S
O10 Sc0 2.105 . S
O10 C4 1.268 . S
O11 Sc1 2.105 . S
O11 C5 1.268 . S
O12 Sc2 2.105 . S
O12 C6 1.268 . S
O13 Sc0 2.105 . S
O13 C7 1.268 . S
O14 Sc2 2.105 . S
O14 C8 1.268 1_556 S
O15 Sc1 2.105 1_556 S
O15 C9 1.268 . S
O16 Sc0 2.105 . S
O16 C8 1.268 . S
O17 Sc1 2.105 . S
O17 C7 1.268 . S
O18 Sc2 2.105 . S
O18 C9 1.268 . S
O19 Sc0 2.105 . S
O19 C5 1.268 . S
O20 Sc2 2.105 . S
O20 C4 1.268 1_556 S
O21 Sc1 2.105 1_556 S
O21 C6 1.268 . S
Sc22 O25 2.025 . S
Sc22 O32 2.105 . S
Sc22 O35 2.105 . S
Sc22 O38 2.105 . S
Sc22 O41 2.105 . S
Sc23 O25 2.025 . S
Sc23 O33 2.105 . S
Sc23 O37 2.105 . S
Sc23 O39 2.105 . S
Sc23 O43 2.105 . S
Sc24 O25 2.025 . S
Sc24 O34 2.105 . S
Sc24 O36 2.105 . S
Sc24 O40 2.105 . S
Sc24 O42 2.105 . S
O25 Sc22 2.025 . S
O25 Sc23 2.025 . S
O25 Sc24 2.025 . S
C26 O32 1.268 . S
C26 O42 1.268 . S
C27 O33 1.268 . S
C27 O41 1.268 . S
C28 O34 1.268 . S
C28 O43 1.268 . S
C29 O35 1.268 . S
C29 O39 1.268 . S
C30 O36 1.268 . S
C30 O38 1.268 . S
C31 O37 1.268 . S
C31 O40 1.268 . S
O32 Sc22 2.105 . S
O32 C26 1.268 . S
O33 Sc23 2.105 . S
O33 C27 1.268 . S
O34 Sc24 2.105 . S
O34 C28 1.268 . S
O35 Sc22 2.105 . S
O35 C29 1.268 . S
O36 Sc24 2.105 . S
O36 C30 1.268 . S
O37 Sc23 2.105 . S
O37 C31 1.268 . S
O38 Sc22 2.105 . S
O38 C30 1.268 . S
O39 Sc23 2.105 . S
O39 C29 1.268 . S
O40 Sc24 2.105 . S
O40 C31 1.268 . S
O41 Sc22 2.105 . S
O41 C27 1.268 . S
O42 Sc24 2.105 . S
O42 C26 1.268 . S
O43 Sc23 2.105 . S
O43 C28 1.268 . S
Sc44 O47 2.025 1_556 S
Sc44 O54 2.105 . S
Sc44 O57 2.105 . S
Sc44 O60 2.105 . S
Sc44 O63 2.105 . S
Sc45 O47 2.025 . S
Sc45 O55 2.105 1_554 S
Sc45 O59 2.105 . S
Sc45 O61 2.105 1_554 S
Sc45 O65 2.105 . S
Sc46 O47 2.025 . S
Sc46 O56 2.105 . S
Sc46 O58 2.105 . S
Sc46 O62 2.105 . S
Sc46 O64 2.105 . S
O47 Sc44 2.025 1_554 S
O47 Sc45 2.025 . S
O47 Sc46 2.025 . S
C48 O54 1.268 1_554 S
C48 O64 1.268 . S
C49 O55 1.268 . S
C49 O63 1.268 . S
C50 O56 1.268 . S
C50 O65 1.268 . S
C51 O57 1.268 . S
C51 O61 1.268 . S
C52 O58 1.268 . S
C52 O60 1.268 1_554 S
C53 O59 1.268 . S
C53 O62 1.268 . S
O54 Sc44 2.105 . S
O54 C48 1.268 1_556 S
O55 Sc45 2.105 1_556 S
O55 C49 1.268 . S
O56 Sc46 2.105 . S
O56 C50 1.268 . S
O57 Sc44 2.105 . S
O57 C51 1.268 . S
O58 Sc46 2.105 . S
O58 C52 1.268 . S
O59 Sc45 2.105 . S
O59 C53 1.268 . S
O60 Sc44 2.105 . S
O60 C52 1.268 1_556 S
O61 Sc45 2.105 1_556 S
O61 C51 1.268 . S
O62 Sc46 2.105 . S
O62 C53 1.268 . S
O63 Sc44 2.105 . S
O63 C49 1.268 . S
O64 Sc46 2.105 . S
O64 C48 1.268 . S
O65 Sc45 2.105 . S
O65 C50 1.268 . S
Sc66 O69 2.025 . S
Sc66 O76 2.105 . S
Sc66 O79 2.105 . S
Sc66 O82 2.105 . S
Sc66 O85 2.105 . S
Sc67 O69 2.025 . S
Sc67 O77 2.105 . S
Sc67 O81 2.105 . S
Sc67 O83 2.105 . S
Sc67 O87 2.105 . S
Sc68 O69 2.025 . S
Sc68 O78 2.105 . S
Sc68 O80 2.105 . S
Sc68 O84 2.105 . S
Sc68 O86 2.105 . S
O69 Sc66 2.025 . S
O69 Sc67 2.025 . S
O69 Sc68 2.025 . S
C70 O76 1.268 . S
C70 O86 1.268 . S
C71 O77 1.268 . S
C71 O85 1.268 . S
C72 O78 1.268 . S
C72 O87 1.268 . S
C73 O79 1.268 . S
C73 O83 1.268 . S
C74 O80 1.268 . S
C74 O82 1.268 . S
C75 O81 1.268 . S
C75 O84 1.268 . S
O76 Sc66 2.105 . S
O76 C70 1.268 . S
O77 Sc67 2.105 . S
O77 C71 1.268 . S
O78 Sc68 2.105 . S
O78 C72 1.268 . S
O79 Sc66 2.105 . S
O79 C73 1.268 . S
O80 Sc68 2.105 . S
O80 C74 1.268 . S
O81 Sc67 2.105 . S
O81 C75 1.268 . S
O82 Sc66 2.105 . S
O82 C74 1.268 . S
O83 Sc67 2.105 . S
O83 C73 1.268 . S
O84 Sc68 2.105 . S
O84 C75 1.268 . S
O85 Sc66 2.105 . S
O85 C71 1.268 . S
O86 Sc68 2.105 . S
O86 C70 1.268 . S
O87 Sc67 2.105 . S
O87 C72 1.268 . S
H88 C93 0.929 . S
H89 C98 0.931 . S
H90 C96 0.930 . S
N91 N92 1.234 1_556 S
N91 C95 1.453 . S
N92 N91 1.234 1_554 S
C93 H88 0.929 . S
C93 C94 1.373 . S
C93 C95 1.368 . S
C94 C93 1.373 . S
C94 C98 1.397 1_556 S
C95 N91 1.453 . S
C95 C93 1.368 . S
C95 C96 1.373 1_556 S
C96 H90 0.930 . S
C96 C95 1.373 1_554 S
C96 C97 1.371 . S
C97 C96 1.371 . S
C97 C98 1.383 . S
C98 H89 0.931 . S
C98 C94 1.397 1_554 S
C98 C97 1.383 . S
H99 C104 0.929 . S
H100 C109 0.931 . S
H101 C107 0.932 . S
N102 N103 1.234 . S
N102 C106 1.486 . S
N103 N102 1.234 . S
C104 H99 0.929 . S
C104 C105 1.373 . S
C104 C106 1.349 1_655 S
C105 C104 1.373 . S
C105 C109 1.397 . S
C106 N102 1.486 . S
C106 C104 1.349 1_455 S
C106 C107 1.360 1_455 S
C107 H101 0.932 . S
C107 C106 1.360 1_655 S
C107 C108 1.371 . S
C108 C107 1.371 . S
C108 C109 1.383 . S
C109 H100 0.931 . S
C109 C105 1.397 . S
C109 C108 1.383 . S
H110 C115 0.929 . S
H111 C120 0.931 . S
H112 C118 0.930 . S
N113 N114 1.234 . S
N113 C117 1.453 . S
N114 N113 1.234 . S
C115 H110 0.929 . S
C115 C116 1.373 . S
C115 C117 1.368 . S
C116 C115 1.373 . S
C116 C120 1.397 . S
C117 N113 1.453 . S
C117 C115 1.368 . S
C117 C118 1.373 1_554 S
C118 H112 0.930 . S
C118 C117 1.373 1_556 S
C118 C119 1.371 . S
C119 C118 1.371 . S
C119 C120 1.383 1_556 S
C120 H111 0.931 . S
C120 C116 1.397 . S
C120 C119 1.383 1_554 S
H121 C126 0.929 . S
H122 C131 0.931 . S
H123 C129 0.930 . S
N124 N125 1.234 . S
N124 C128 1.453 1_655 S
N125 N124 1.234 . S
C126 H121 0.929 . S
C126 C127 1.373 . S
C126 C128 1.368 . S
C127 C126 1.373 . S
C127 C131 1.397 . S
C128 N124 1.453 1_455 S
C128 C126 1.368 . S
C128 C129 1.373 . S
C129 H123 0.930 . S
C129 C128 1.373 . S
C129 C130 1.371 . S
C130 C129 1.371 . S
C130 C131 1.383 . S
C131 H122 0.931 . S
C131 C127 1.397 . S
C131 C130 1.383 . S
H132 C137 0.929 . S
H133 C142 0.931 . S
H134 C140 0.930 . S
N135 N136 1.234 . S
N135 C139 1.453 1_545 S
N136 N135 1.234 . S
C137 H132 0.929 . S
C137 C138 1.373 . S
C137 C139 1.368 . S
C138 C137 1.373 . S
C138 C142 1.397 . S
C139 N135 1.453 1_565 S
C139 C137 1.368 . S
C139 C140 1.373 . S
C140 H134 0.930 . S
C140 C139 1.373 . S
C140 C141 1.371 . S
C141 C140 1.371 . S
C141 C142 1.383 . S
C142 H133 0.931 . S
C142 C138 1.397 . S
C142 C141 1.383 . S
H143 C148 0.929 . S
H144 C153 0.931 . S
H145 C151 0.930 . S
N146 N147 1.234 1_556 S
N146 C150 1.453 . S
N147 N146 1.234 1_554 S
C148 H143 0.929 . S
C148 C149 1.373 . S
C148 C150 1.368 . S
C149 C148 1.373 . S
C149 C153 1.397 1_556 S
C150 N146 1.453 . S
C150 C148 1.368 . S
C150 C151 1.373 1_556 S
C151 H145 0.930 . S
C151 C150 1.373 1_554 S
C151 C152 1.371 . S
C152 C151 1.371 . S
C152 C153 1.383 . S
C153 H144 0.931 . S
C153 C149 1.397 1_554 S
C153 C152 1.383 . S
H154 C159 0.929 . S
H155 C164 0.931 . S
H156 C162 0.940 . S
N157 N158 1.234 . S
N157 C161 1.473 . S
N158 N157 1.234 . S
C159 H154 0.929 . S
C159 C160 1.373 . S
C159 C161 1.356 1_545 S
C160 C159 1.373 . S
C160 C164 1.397 . S
C161 N157 1.473 . S
C161 C159 1.356 1_565 S
C161 C162 1.365 1_565 S
C162 H156 0.940 . S
C162 C161 1.365 1_545 S
C162 C163 1.371 . S
C163 C162 1.371 . S
C163 C164 1.383 . S
C164 H155 0.931 . S
C164 C160 1.397 . S
C164 C163 1.383 . S
H165 C170 0.929 . S
H166 C175 0.931 . S
H167 C173 0.930 . S
N168 N169 1.234 . S
N168 C172 1.453 . S
N169 N168 1.234 . S
C170 H165 0.929 . S
C170 C171 1.373 . S
C170 C172 1.368 . S
C171 C170 1.373 . S
C171 C175 1.397 . S
C172 N168 1.453 . S
C172 C170 1.368 . S
C172 C173 1.373 1_554 S
C173 H167 0.930 . S
C173 C172 1.373 1_556 S
C173 C174 1.371 . S
C174 C173 1.371 . S
C174 C175 1.383 1_556 S
C175 H166 0.931 . S
C175 C171 1.397 . S
C175 C174 1.383 1_554 S
C176 C177 1.369 . S
C176 C178 1.419 . S
C176 H180 0.930 . S
C177 C176 1.369 . S
C177 C186 1.429 . S
C178 C176 1.419 . S
C178 C179 1.363 . S
C178 H181 0.929 . S
C179 C178 1.363 . S
C179 C185 1.428 . S
H180 C176 0.930 . S
H181 C178 0.929 . S
S182 N183 1.613 . S
S182 N184 1.610 . S
N183 S182 1.613 . S
N183 C186 1.350 . S
N184 S182 1.610 . S
N184 C185 1.351 . S
C185 C179 1.428 . S
C185 N184 1.351 . S
C185 C186 1.434 . S
C186 C177 1.429 . S
C186 N183 1.350 . S
C186 C185 1.434 . S
C187 C188 1.369 . S
C187 C189 1.419 . S
C187 H191 0.930 . S
C188 C187 1.369 . S
C188 C197 1.429 . S
C189 C187 1.419 . S
C189 C190 1.363 . S
C189 H192 0.929 . S
C190 C189 1.363 . S
C190 C196 1.428 . S
H191 C187 0.930 . S
H192 C189 0.929 . S
S193 N194 1.613 . S
S193 N195 1.610 . S
N194 S193 1.613 . S
N194 C197 1.350 . S
N195 S193 1.610 . S
N195 C196 1.351 . S
C196 C190 1.428 . S
C196 N195 1.351 . S
C196 C197 1.434 . S
C197 C188 1.429 . S
C197 N194 1.350 . S
C197 C196 1.434 . S
C198 C199 1.369 . S
C198 C200 1.419 . S
C198 H202 0.930 . S
C199 C198 1.369 . S
C199 C208 1.429 . S
C200 C198 1.419 . S
C200 C201 1.363 . S
C200 H203 0.929 . S
C201 C200 1.363 . S
C201 C207 1.428 . S
H202 C198 0.930 . S
H203 C200 0.929 . S
S204 N205 1.613 . S
S204 N206 1.610 . S
N205 S204 1.613 . S
N205 C208 1.350 . S
N206 S204 1.610 . S
N206 C207 1.351 . S
C207 C201 1.428 . S
C207 N206 1.351 . S
C207 C208 1.434 . S
C208 C199 1.429 . S
C208 N205 1.350 . S
C208 C207 1.434 . S
C209 C210 1.369 . S
C209 C211 1.419 . S
C209 H213 0.930 . S
C210 C209 1.369 . S
C210 C219 1.429 . S
C211 C209 1.419 . S
C211 C212 1.363 . S
C211 H214 0.929 . S
C212 C211 1.363 . S
C212 C218 1.428 . S
H213 C209 0.930 . S
H214 C211 0.929 . S
S215 N216 1.613 . S
S215 N217 1.610 . S
N216 S215 1.613 . S
N216 C219 1.350 . S
N217 S215 1.610 . S
N217 C218 1.351 . S
C218 C212 1.428 . S
C218 N217 1.351 . S
C218 C219 1.434 . S
C219 C210 1.429 . S
C219 N216 1.350 . S
C219 C218 1.434 . S
C220 C221 1.369 . S
C220 C222 1.419 . S
C220 H224 0.930 . S
C221 C220 1.369 . S
C221 C230 1.429 . S
C222 C220 1.419 . S
C222 C223 1.363 . S
C222 H225 0.929 . S
C223 C222 1.363 . S
C223 C229 1.428 . S
H224 C220 0.930 . S
H225 C222 0.929 . S
S226 N227 1.613 . S
S226 N228 1.610 . S
N227 S226 1.613 . S
N227 C230 1.350 . S
N228 S226 1.610 . S
N228 C229 1.351 . S
C229 C223 1.428 . S
C229 N228 1.351 . S
C229 C230 1.434 . S
C230 C221 1.429 . S
C230 N227 1.350 . S
C230 C229 1.434 . S
C231 C232 1.369 . S
C231 C233 1.419 . S
C231 H235 0.930 . S
C232 C231 1.369 . S
C232 C241 1.429 . S
C233 C231 1.419 . S
C233 C234 1.363 . S
C233 H236 0.929 . S
C234 C233 1.363 . S
C234 C240 1.428 . S
H235 C231 0.930 . S
H236 C233 0.929 . S
S237 N238 1.613 . S
S237 N239 1.610 . S
N238 S237 1.613 . S
N238 C241 1.350 . S
N239 S237 1.610 . S
N239 C240 1.351 . S
C240 C234 1.428 . S
C240 N239 1.351 . S
C240 C241 1.434 . S
C241 C232 1.429 . S
C241 N238 1.350 . S
C241 C240 1.434 . S
C242 C243 1.369 . S
C242 C244 1.419 . S
C242 H246 0.930 . S
C243 C242 1.369 . S
C243 C252 1.429 . S
C244 C242 1.419 . S
C244 C245 1.363 . S
C244 H247 0.929 . S
C245 C244 1.363 . S
C245 C251 1.428 . S
H246 C242 0.930 . S
H247 C244 0.929 . S
S248 N249 1.613 . S
S248 N250 1.610 . S
N249 S248 1.613 . S
N249 C252 1.350 . S
N250 S248 1.610 . S
N250 C251 1.351 . S
C251 C245 1.428 . S
C251 N250 1.351 . S
C251 C252 1.434 . S
C252 C243 1.429 . S
C252 N249 1.350 . S
C252 C251 1.434 . S
C253 C254 1.369 . S
C253 C255 1.419 . S
C253 H257 0.930 . S
C254 C253 1.369 . S
C254 C263 1.429 . S
C255 C253 1.419 . S
C255 C256 1.363 . S
C255 H258 0.929 . S
C256 C255 1.363 . S
C256 C262 1.428 . S
H257 C253 0.930 . S
H258 C255 0.929 . S
S259 N260 1.613 . S
S259 N261 1.610 . S
N260 S259 1.613 . S
N260 C263 1.350 . S
N261 S259 1.610 . S
N261 C262 1.351 . S
C262 C256 1.428 . S
C262 N261 1.351 . S
C262 C263 1.434 . S
C263 C254 1.429 . S
C263 N260 1.350 . S
C263 C262 1.434 . S
C264 C265 1.369 . S
C264 C266 1.419 . S
C264 H268 0.930 . S
C265 C264 1.369 . S
C265 C274 1.429 . S
C266 C264 1.419 . S
C266 C267 1.363 . S
C266 H269 0.929 . S
C267 C266 1.363 . S
C267 C273 1.428 . S
H268 C264 0.930 . S
H269 C266 0.929 . S
S270 N271 1.613 . S
S270 N272 1.610 . S
N271 S270 1.613 . S
N271 C274 1.350 . S
N272 S270 1.610 . S
N272 C273 1.351 . S
C273 C267 1.428 . S
C273 N272 1.351 . S
C273 C274 1.434 . S
C274 C265 1.429 . S
C274 N271 1.350 . S
C274 C273 1.434 . S
C275 C276 1.369 . S
C275 C277 1.419 . S
C275 H279 0.930 . S
C276 C275 1.369 . S
C276 C285 1.429 . S
C277 C275 1.419 . S
C277 C278 1.363 . S
C277 H280 0.929 . S
C278 C277 1.363 . S
C278 C284 1.428 . S
H279 C275 0.930 . S
H280 C277 0.929 . S
S281 N282 1.613 . S
S281 N283 1.610 . S
N282 S281 1.613 . S
N282 C285 1.350 . S
N283 S281 1.610 . S
N283 C284 1.351 . S
C284 C278 1.428 . S
C284 N283 1.351 . S
C284 C285 1.434 . S
C285 C276 1.429 . S
C285 N282 1.350 . S
C285 C284 1.434 . S
C286 C287 1.369 . S
C286 C288 1.419 . S
C286 H290 0.930 . S
C287 C286 1.369 . S
C287 C296 1.429 . S
C288 C286 1.419 . S
C288 C289 1.363 . S
C288 H291 0.929 . S
C289 C288 1.363 . S
C289 C295 1.428 . S
H290 C286 0.930 . S
H291 C288 0.929 . S
S292 N293 1.613 . S
S292 N294 1.610 . S
N293 S292 1.613 . S
N293 C296 1.350 . S
N294 S292 1.610 . S
N294 C295 1.351 . S
C295 C289 1.428 . S
C295 N294 1.351 . S
C295 C296 1.434 . S
C296 C287 1.429 . S
C296 N293 1.350 . S
C296 C295 1.434 . S
C297 C298 1.369 . S
C297 C299 1.419 . S
C297 H301 0.930 . S
C298 C297 1.369 . S
C298 C307 1.429 . S
C299 C297 1.419 . S
C299 C300 1.363 . S
C299 H302 0.929 . S
C300 C299 1.363 . S
C300 C306 1.428 . S
H301 C297 0.930 . S
H302 C299 0.929 . S
S303 N304 1.613 . S
S303 N305 1.610 . S
N304 S303 1.613 . S
N304 C307 1.350 . S
N305 S303 1.610 . S
N305 C306 1.351 . S
C306 C300 1.428 . S
C306 N305 1.351 . S
C306 C307 1.434 . S
C307 C298 1.429 . S
C307 N304 1.350 . S
C307 C306 1.434 . S
C308 C309 1.369 . S
C308 C310 1.419 . S
C308 H312 0.930 . S
C309 C308 1.369 . S
C309 C318 1.429 . S
C310 C308 1.419 . S
C310 C311 1.363 . S
C310 H313 0.929 . S
C311 C310 1.363 . S
C311 C317 1.428 . S
H312 C308 0.930 . S
H313 C310 0.929 . S
S314 N315 1.613 . S
S314 N316 1.610 . S
N315 S314 1.613 . S
N315 C318 1.350 . S
N316 S314 1.610 . S
N316 C317 1.351 . S
C317 C311 1.428 . S
C317 N316 1.351 . S
C317 C318 1.434 . S
C318 C309 1.429 . S
C318 N315 1.350 . S
C318 C317 1.434 . S
C319 C320 1.369 . S
C319 C321 1.419 . S
C319 H323 0.930 . S
C320 C319 1.369 . S
C320 C329 1.429 . S
C321 C319 1.419 . S
C321 C322 1.363 . S
C321 H324 0.929 . S
C322 C321 1.363 . S
C322 C328 1.428 . S
H323 C319 0.930 . S
H324 C321 0.929 . S
S325 N326 1.613 . S
S325 N327 1.610 . S
N326 S325 1.613 . S
N326 C329 1.350 . S
N327 S325 1.610 . S
N327 C328 1.351 . S
C328 C322 1.428 . S
C328 N327 1.351 . S
C328 C329 1.434 . S
C329 C320 1.429 . S
C329 N326 1.350 . S
C329 C328 1.434 . S
C330 C331 1.369 . S
C330 C332 1.419 . S
C330 H334 0.930 . S
C331 C330 1.369 . S
C331 C340 1.429 . S
C332 C330 1.419 . S
C332 C333 1.363 . S
C332 H335 0.929 . S
C333 C332 1.363 . S
C333 C339 1.428 . S
H334 C330 0.930 . S
H335 C332 0.929 . S
S336 N337 1.613 . S
S336 N338 1.610 . S
N337 S336 1.613 . S
N337 C340 1.350 . S
N338 S336 1.610 . S
N338 C339 1.351 . S
C339 C333 1.428 . S
C339 N338 1.351 . S
C339 C340 1.434 . S
C340 C331 1.429 . S
C340 N337 1.350 . S
C340 C339 1.434 . S
C341 C342 1.369 . S
C341 C343 1.419 . S
C341 H345 0.930 . S
C342 C341 1.369 . S
C342 C351 1.429 . S
C343 C341 1.419 . S
C343 C344 1.363 . S
C343 H346 0.929 . S
C344 C343 1.363 . S
C344 C350 1.428 . S
H345 C341 0.930 . S
H346 C343 0.929 . S
S347 N348 1.613 . S
S347 N349 1.610 . S
N348 S347 1.613 . S
N348 C351 1.350 . S
N349 S347 1.610 . S
N349 C350 1.351 . S
C350 C344 1.428 . S
C350 N349 1.351 . S
C350 C351 1.434 . S
C351 C342 1.429 . S
C351 N348 1.350 . S
C351 C350 1.434 . S
C352 C353 1.369 . S
C352 C354 1.419 . S
C352 H356 0.930 . S
C353 C352 1.369 . S
C353 C362 1.429 1_554 S
C354 C352 1.419 . S
C354 C355 1.363 . S
C354 H357 0.929 . S
C355 C354 1.363 . S
C355 C361 1.428 1_554 S
H356 C352 0.930 . S
H357 C354 0.929 . S
S358 N359 1.613 . S
S358 N360 1.610 . S
N359 S358 1.613 . S
N359 C362 1.350 . S
N360 S358 1.610 . S
N360 C361 1.351 . S
C361 C355 1.428 1_556 S
C361 N360 1.351 . S
C361 C362 1.434 . S
C362 C353 1.429 1_556 S
C362 N359 1.350 . S
C362 C361 1.434 . S
C363 C364 1.369 . S
C363 C365 1.419 . S
C363 H367 0.930 . S
C364 C363 1.369 . S
C364 C373 1.429 . S
C365 C363 1.419 . S
C365 C366 1.363 . S
C365 H368 0.929 . S
C366 C365 1.363 . S
C366 C372 1.428 . S
H367 C363 0.930 . S
H368 C365 0.929 . S
S369 N370 1.613 . S
S369 N371 1.610 . S
N370 S369 1.613 . S
N370 C373 1.350 . S
N371 S369 1.610 . S
N371 C372 1.351 . S
C372 C366 1.428 . S
C372 N371 1.351 . S
C372 C373 1.434 . S
C373 C364 1.429 . S
C373 N370 1.350 . S
C373 C372 1.434 . S
C374 C375 1.369 . S
C374 C376 1.419 . S
C374 H378 0.930 . S
C375 C374 1.369 . S
C375 C384 1.429 1_554 S
C376 C374 1.419 . S
C376 C377 1.363 . S
C376 H379 0.929 . S
C377 C376 1.363 . S
C377 C383 1.428 1_554 S
H378 C374 0.930 . S
H379 C376 0.929 . S
S380 N381 1.613 . S
S380 N382 1.610 . S
N381 S380 1.613 . S
N381 C384 1.350 . S
N382 S380 1.610 . S
N382 C383 1.351 . S
C383 C377 1.428 1_556 S
C383 N382 1.351 . S
C383 C384 1.434 . S
C384 C375 1.429 1_556 S
C384 N381 1.350 . S
C384 C383 1.434 . S
C385 C386 1.369 . S
C385 C387 1.419 . S
C385 H389 0.930 . S
C386 C385 1.369 . S
C386 C395 1.429 . S
C387 C385 1.419 . S
C387 C388 1.363 . S
C387 H390 0.929 . S
C388 C387 1.363 . S
C388 C394 1.428 . S
H389 C385 0.930 . S
H390 C387 0.929 . S
S391 N392 1.613 . S
S391 N393 1.610 . S
N392 S391 1.613 . S
N392 C395 1.350 . S
N393 S391 1.610 . S
N393 C394 1.351 . S
C394 C388 1.428 . S
C394 N393 1.351 . S
C394 C395 1.434 . S
C395 C386 1.429 . S
C395 N392 1.350 . S
C395 C394 1.434 . S
C396 C397 1.369 . S
C396 C398 1.419 . S
C396 H400 0.930 . S
C397 C396 1.369 . S
C397 C406 1.429 . S
C398 C396 1.419 . S
C398 C399 1.363 . S
C398 H401 0.929 . S
C399 C398 1.363 . S
C399 C405 1.428 . S
H400 C396 0.930 . S
H401 C398 0.929 . S
S402 N403 1.613 . S
S402 N404 1.610 . S
N403 S402 1.613 . S
N403 C406 1.350 . S
N404 S402 1.610 . S
N404 C405 1.351 . S
C405 C399 1.428 . S
C405 N404 1.351 . S
C405 C406 1.434 . S
C406 C397 1.429 . S
C406 N403 1.350 . S
C406 C405 1.434 . S
C407 C408 1.369 . S
C407 C409 1.419 . S
C407 H411 0.930 . S
C408 C407 1.369 . S
C408 C417 1.429 1_554 S
C409 C407 1.419 . S
C409 C410 1.363 . S
C409 H412 0.929 . S
C410 C409 1.363 . S
C410 C416 1.428 1_554 S
H411 C407 0.930 . S
H412 C409 0.929 . S
S413 N414 1.613 . S
S413 N415 1.610 . S
N414 S413 1.613 . S
N414 C417 1.350 . S
N415 S413 1.610 . S
N415 C416 1.351 . S
C416 C410 1.428 1_556 S
C416 N415 1.351 . S
C416 C417 1.434 . S
C417 C408 1.429 1_556 S
C417 N414 1.350 . S
C417 C416 1.434 . S
C418 C419 1.369 . S
C418 C420 1.419 . S
C418 H422 0.930 . S
C419 C418 1.369 . S
C419 C428 1.429 . S
C420 C418 1.419 . S
C420 C421 1.363 . S
C420 H423 0.929 . S
C421 C420 1.363 . S
C421 C427 1.428 . S
H422 C418 0.930 . S
H423 C420 0.929 . S
S424 N425 1.613 . S
S424 N426 1.610 . S
N425 S424 1.613 . S
N425 C428 1.350 . S
N426 S424 1.610 . S
N426 C427 1.351 . S
C427 C421 1.428 . S
C427 N426 1.351 . S
C427 C428 1.434 . S
C428 C419 1.429 . S
C428 N425 1.350 . S
C428 C427 1.434 . S
C429 C430 1.369 1_556 S
C429 C431 1.419 . S
C429 H433 0.930 . S
C430 C429 1.369 1_554 S
C430 C439 1.429 . S
C431 C429 1.419 . S
C431 C432 1.363 1_556 S
C431 H434 0.929 . S
C432 C431 1.363 1_554 S
C432 C438 1.428 . S
H433 C429 0.930 . S
H434 C431 0.929 . S
S435 N436 1.613 . S
S435 N437 1.610 . S
N436 S435 1.613 . S
N436 C439 1.350 . S
N437 S435 1.610 . S
N437 C438 1.351 . S
C438 C432 1.428 . S
C438 N437 1.351 . S
C438 C439 1.434 . S
C439 C430 1.429 . S
C439 N436 1.350 . S
C439 C438 1.434 . S
C177 C5 1.448 . S
C179 C127 1.465 . S
C188 C31 1.469 . S
C190 C94 1.480 . S
C201 C108 1.473 . S
C199 C53 1.497 . S
C210 C71 1.476 . S
C212 C119 1.459 . S
C223 C152 1.461 . S
C221 C75 1.477 . S
C234 C163 1.479 . S
C232 C9 1.502 . S
C245 C171 1.481 . S
C243 C27 1.471 . S
C256 C138 1.465 . S
C254 C49 1.448 . S
C265 C51 1.449 . S
C267 C105 1.457 . S
C276 C72 1.473 . S
C278 C116 1.472 . S
C287 C6 1.502 . S
C289 C130 1.484 . S
C300 C97 1.469 . S
C298 C29 1.481 . S
C309 C28 1.479 . S
C311 C174 1.468 . S
C322 C141 1.478 . S
C320 C50 1.497 . S
C333 C149 1.472 . S
C331 C73 1.473 . S
C342 C7 1.449 . S
C344 C160 1.457 . S
C355 N92 1.507 . S
C353 C4 1.508 . S
C366 N103 1.512 . S
C364 C30 1.507 . S
C375 C52 1.509 . S
C377 N114 1.511 . S
C386 C70 1.505 . S
C388 N125 1.505 . S
C399 N136 1.505 . S
C397 C74 1.505 . S
C408 C8 1.508 . S
C410 N147 1.512 . S
C419 C26 1.507 . S
C421 N158 1.509 . S
C430 C48 1.508 . S
C432 N169 1.507 . S
