# Generated by pormake.
# Topology ptr, (4,4)-cn, num edge types: 1
# Building blocks:
#     Node 0, Type 0, BuildingBlock: NAHDIM_clean_sbu_0, # of connection points: 4
#     Node 1, Type 0, BuildingBlock: NAHDIM_clean_sbu_0, # of connection points: 4
#     Node 2, Type 0, BuildingBlock: NAHDIM_clean_sbu_0, # of connection points: 4
#     Node 3, Type 0, BuildingBlock: NAHDIM_clean_sbu_0, # of connection points: 4
#     Node 4, Type 0, BuildingBlock: NAHDIM_clean_sbu_0, # of connection points: 4
#     Node 5, Type 0, BuildingBlock: NAHDIM_clean_sbu_0, # of connection points: 4
#     Node 6, Type 0, BuildingBlock: NAHDIM_clean_sbu_0, # of connection points: 4
#     Node 7, Type 0, BuildingBlock: NAHDIM_clean_sbu_0, # of connection points: 4
#     Node 8, Type 0, BuildingBlock: NAHDIM_clean_sbu_0, # of connection points: 4
#     Node 9, Type 0, BuildingBlock: NAHDIM_clean_sbu_0, # of connection points: 4
#     Node 10, Type 0, BuildingBlock: NAHDIM_clean_sbu_0, # of connection points: 4
#     Node 11, Type 0, BuildingBlock: NAHDIM_clean_sbu_0, # of connection points: 4
#     Node 12, Type 0, BuildingBlock: NAHDIM_clean_sbu_0, # of connection points: 4
#     Node 13, Type 0, BuildingBlock: NAHDIM_clean_sbu_0, # of connection points: 4
#     Node 14, Type 0, BuildingBlock: NAHDIM_clean_sbu_0, # of connection points: 4
#     Node 15, Type 0, BuildingBlock: NAHDIM_clean_sbu_0, # of connection points: 4
#     Node 16, Type 0, BuildingBlock: NAHDIM_clean_sbu_0, # of connection points: 4
#     Node 17, Type 0, BuildingBlock: NAHDIM_clean_sbu_0, # of connection points: 4
#     Node 18, Type 1, BuildingBlock: AZAVOO_clean_linker_0, # of connection points: 4
#     Node 19, Type 1, BuildingBlock: AZAVOO_clean_linker_0, # of connection points: 4
#     Node 20, Type 1, BuildingBlock: AZAVOO_clean_linker_0, # of connection points: 4
#     Node 21, Type 1, BuildingBlock: AZAVOO_clean_linker_0, # of connection points: 4
#     Node 22, Type 1, BuildingBlock: AZAVOO_clean_linker_0, # of connection points: 4
#     Node 23, Type 1, BuildingBlock: AZAVOO_clean_linker_0, # of connection points: 4
#     Node 24, Type 1, BuildingBlock: AZAVOO_clean_linker_0, # of connection points: 4
#     Node 25, Type 1, BuildingBlock: AZAVOO_clean_linker_0, # of connection points: 4
#     Node 26, Type 1, BuildingBlock: AZAVOO_clean_linker_0, # of connection points: 4
#     Node 27, Type 1, BuildingBlock: AZAVOO_clean_linker_0, # of connection points: 4
#     Node 28, Type 1, BuildingBlock: AZAVOO_clean_linker_0, # of connection points: 4
#     Node 29, Type 1, BuildingBlock: AZAVOO_clean_linker_0, # of connection points: 4
#     Node 30, Type 1, BuildingBlock: AZAVOO_clean_linker_0, # of connection points: 4
#     Node 31, Type 1, BuildingBlock: AZAVOO_clean_linker_0, # of connection points: 4
#     Node 32, Type 1, BuildingBlock: AZAVOO_clean_linker_0, # of connection points: 4
#     Node 33, Type 1, BuildingBlock: AZAVOO_clean_linker_0, # of connection points: 4
#     Node 34, Type 1, BuildingBlock: AZAVOO_clean_linker_0, # of connection points: 4
#     Node 35, Type 1, BuildingBlock: AZAVOO_clean_linker_0, # of connection points: 4
#     Edge 36, Type (0, 1), BuildingBlock: KIFKEQ_clean_linker_1, # of connection points: 2
#     Edge 37, Type (0, 1), BuildingBlock: KIFKEQ_clean_linker_1, # of connection points: 2
#     Edge 38, Type (0, 1), BuildingBlock: KIFKEQ_clean_linker_1, # of connection points: 2
#     Edge 39, Type (0, 1), BuildingBlock: KIFKEQ_clean_linker_1, # of connection points: 2
#     Edge 40, Type (0, 1), BuildingBlock: KIFKEQ_clean_linker_1, # of connection points: 2
#     Edge 41, Type (0, 1), BuildingBlock: KIFKEQ_clean_linker_1, # of connection points: 2
#     Edge 42, Type (0, 1), BuildingBlock: KIFKEQ_clean_linker_1, # of connection points: 2
#     Edge 43, Type (0, 1), BuildingBlock: KIFKEQ_clean_linker_1, # of connection points: 2
#     Edge 44, Type (0, 1), BuildingBlock: KIFKEQ_clean_linker_1, # of connection points: 2
#     Edge 45, Type (0, 1), BuildingBlock: KIFKEQ_clean_linker_1, # of connection points: 2
#     Edge 46, Type (0, 1), BuildingBlock: KIFKEQ_clean_linker_1, # of connection points: 2
#     Edge 47, Type (0, 1), BuildingBlock: KIFKEQ_clean_linker_1, # of connection points: 2
#     Edge 48, Type (0, 1), BuildingBlock: KIFKEQ_clean_linker_1, # of connection points: 2
#     Edge 49, Type (0, 1), BuildingBlock: KIFKEQ_clean_linker_1, # of connection points: 2
#     Edge 50, Type (0, 1), BuildingBlock: KIFKEQ_clean_linker_1, # of connection points: 2
#     Edge 51, Type (0, 1), BuildingBlock: KIFKEQ_clean_linker_1, # of connection points: 2
#     Edge 52, Type (0, 1), BuildingBlock: KIFKEQ_clean_linker_1, # of connection points: 2
#     Edge 53, Type (0, 1), BuildingBlock: KIFKEQ_clean_linker_1, # of connection points: 2
#     Edge 54, Type (0, 1), BuildingBlock: KIFKEQ_clean_linker_1, # of connection points: 2
#     Edge 55, Type (0, 1), BuildingBlock: KIFKEQ_clean_linker_1, # of connection points: 2
#     Edge 56, Type (0, 1), BuildingBlock: KIFKEQ_clean_linker_1, # of connection points: 2
#     Edge 57, Type (0, 1), BuildingBlock: KIFKEQ_clean_linker_1, # of connection points: 2
#     Edge 58, Type (0, 1), BuildingBlock: KIFKEQ_clean_linker_1, # of connection points: 2
#     Edge 59, Type (0, 1), BuildingBlock: KIFKEQ_clean_linker_1, # of connection points: 2
#     Edge 60, Type (0, 1), BuildingBlock: KIFKEQ_clean_linker_1, # of connection points: 2
#     Edge 61, Type (0, 1), BuildingBlock: KIFKEQ_clean_linker_1, # of connection points: 2
#     Edge 62, Type (0, 1), BuildingBlock: KIFKEQ_clean_linker_1, # of connection points: 2
#     Edge 63, Type (0, 1), BuildingBlock: KIFKEQ_clean_linker_1, # of connection points: 2
#     Edge 64, Type (0, 1), BuildingBlock: KIFKEQ_clean_linker_1, # of connection points: 2
#     Edge 65, Type (0, 1), BuildingBlock: KIFKEQ_clean_linker_1, # of connection points: 2
#     Edge 66, Type (0, 1), BuildingBlock: KIFKEQ_clean_linker_1, # of connection points: 2
#     Edge 67, Type (0, 1), BuildingBlock: KIFKEQ_clean_linker_1, # of connection points: 2
#     Edge 68, Type (0, 1), BuildingBlock: KIFKEQ_clean_linker_1, # of connection points: 2
#     Edge 69, Type (0, 1), BuildingBlock: KIFKEQ_clean_linker_1, # of connection points: 2
#     Edge 70, Type (0, 1), BuildingBlock: KIFKEQ_clean_linker_1, # of connection points: 2
#     Edge 71, Type (0, 1), BuildingBlock: KIFKEQ_clean_linker_1, # of connection points: 2
#     Edge 72, Type (0, 1), BuildingBlock: KIFKEQ_clean_linker_1, # of connection points: 2
#     Edge 73, Type (0, 1), BuildingBlock: KIFKEQ_clean_linker_1, # of connection points: 2
#     Edge 74, Type (0, 1), BuildingBlock: KIFKEQ_clean_linker_1, # of connection points: 2
#     Edge 75, Type (0, 1), BuildingBlock: KIFKEQ_clean_linker_1, # of connection points: 2
#     Edge 76, Type (0, 1), BuildingBlock: KIFKEQ_clean_linker_1, # of connection points: 2
#     Edge 77, Type (0, 1), BuildingBlock: KIFKEQ_clean_linker_1, # of connection points: 2
#     Edge 78, Type (0, 1), BuildingBlock: KIFKEQ_clean_linker_1, # of connection points: 2
#     Edge 79, Type (0, 1), BuildingBlock: KIFKEQ_clean_linker_1, # of connection points: 2
#     Edge 80, Type (0, 1), BuildingBlock: KIFKEQ_clean_linker_1, # of connection points: 2
#     Edge 81, Type (0, 1), BuildingBlock: KIFKEQ_clean_linker_1, # of connection points: 2
#     Edge 82, Type (0, 1), BuildingBlock: KIFKEQ_clean_linker_1, # of connection points: 2
#     Edge 83, Type (0, 1), BuildingBlock: KIFKEQ_clean_linker_1, # of connection points: 2
#     Edge 84, Type (0, 1), BuildingBlock: KIFKEQ_clean_linker_1, # of connection points: 2
#     Edge 85, Type (0, 1), BuildingBlock: KIFKEQ_clean_linker_1, # of connection points: 2
#     Edge 86, Type (0, 1), BuildingBlock: KIFKEQ_clean_linker_1, # of connection points: 2
#     Edge 87, Type (0, 1), BuildingBlock: KIFKEQ_clean_linker_1, # of connection points: 2
#     Edge 88, Type (0, 1), BuildingBlock: KIFKEQ_clean_linker_1, # of connection points: 2
#     Edge 89, Type (0, 1), BuildingBlock: KIFKEQ_clean_linker_1, # of connection points: 2
#     Edge 90, Type (0, 1), BuildingBlock: KIFKEQ_clean_linker_1, # of connection points: 2
#     Edge 91, Type (0, 1), BuildingBlock: KIFKEQ_clean_linker_1, # of connection points: 2
#     Edge 92, Type (0, 1), BuildingBlock: KIFKEQ_clean_linker_1, # of connection points: 2
#     Edge 93, Type (0, 1), BuildingBlock: KIFKEQ_clean_linker_1, # of connection points: 2
#     Edge 94, Type (0, 1), BuildingBlock: KIFKEQ_clean_linker_1, # of connection points: 2
#     Edge 95, Type (0, 1), BuildingBlock: KIFKEQ_clean_linker_1, # of connection points: 2
#     Edge 96, Type (0, 1), BuildingBlock: KIFKEQ_clean_linker_1, # of connection points: 2
#     Edge 97, Type (0, 1), BuildingBlock: KIFKEQ_clean_linker_1, # of connection points: 2
#     Edge 98, Type (0, 1), BuildingBlock: KIFKEQ_clean_linker_1, # of connection points: 2
#     Edge 99, Type (0, 1), BuildingBlock: KIFKEQ_clean_linker_1, # of connection points: 2
#     Edge 100, Type (0, 1), BuildingBlock: KIFKEQ_clean_linker_1, # of connection points: 2
#     Edge 101, Type (0, 1), BuildingBlock: KIFKEQ_clean_linker_1, # of connection points: 2
#     Edge 102, Type (0, 1), BuildingBlock: KIFKEQ_clean_linker_1, # of connection points: 2
#     Edge 103, Type (0, 1), BuildingBlock: KIFKEQ_clean_linker_1, # of connection points: 2
#     Edge 104, Type (0, 1), BuildingBlock: KIFKEQ_clean_linker_1, # of connection points: 2
#     Edge 105, Type (0, 1), BuildingBlock: KIFKEQ_clean_linker_1, # of connection points: 2
#     Edge 106, Type (0, 1), BuildingBlock: KIFKEQ_clean_linker_1, # of connection points: 2
#     Edge 107, Type (0, 1), BuildingBlock: KIFKEQ_clean_linker_1, # of connection points: 2
# Relax obj value: 0.100
# Max RMSD: 0.291
# Mean RMSD: 0.174
data_MOF--net-ptr--node1-NAHDIM_clean_sbu_0--node2-AZAVOO_clean_linker_0--edge1-KIFKEQ_clean_linker_1
_symmetry_space_group_name_H-M    P1
_symmetry_Int_Tables_number       1
_symmetry_cell_setting            triclinic
loop_
_symmetry_equiv_pos_as_xyz
'x, y, z'
_cell_length_a     84.43463
_cell_length_b     81.726472
_cell_length_c     69.048589
_cell_angle_alpha  94.317858
_cell_angle_beta   91.682392
_cell_angle_gamma 122.0908
loop_
_atom_site_label
_atom_site_type_symbol
_atom_site_fract_x
_atom_site_fract_y
_atom_site_fract_z
_atom_type_partial_charge
C0 C 0.02718 0.35014 0.0452 0.0
O1 O 0.00904 0.33975 0.04699 0.0
O2 O 0.99337 0.33699 0.00857 0.0
Zn3 Zn 0.0127 0.36445 0.01987 0.0
O4 O 0.00209 0.37397 0.0404 0.0
C5 C 0.00978 0.37754 0.98365 0.0
O6 O 0.99385 0.36066 0.98232 0.0
O7 O 0.0334 0.36321 0.03357 0.0
C8 C 0.99448 0.38346 0.03698 0.0
O9 O 0.99274 0.38696 0.01905 0.0
C10 C 0.97591 0.32882 0.01039 0.0
O11 O 0.96968 0.33856 0.01989 0.0
O12 O 0.02125 0.38252 0.99853 0.0
C13 C 0.66445 0.63515 0.04522 0.0
O14 O 0.65375 0.64072 0.03785 0.0
O15 O 0.64447 0.64957 0.08263 0.0
Zn16 Zn 0.63625 0.62296 0.07024 0.0
O17 O 0.61722 0.61507 0.04745 0.0
C18 C 0.6133 0.60506 0.10004 0.0
O19 O 0.6096 0.61836 0.09671 0.0
O20 O 0.65953 0.62577 0.06007 0.0
C21 C 0.60244 0.59829 0.0437 0.0
O22 O 0.59861 0.58497 0.05548 0.0
C23 C 0.63637 0.65845 0.07875 0.0
O24 O 0.6213 0.64978 0.06648 0.0
O25 O 0.62518 0.60387 0.09017 0.0
C26 C 0.3668 0.02396 0.00196 0.0
O27 O 0.35656 0.00527 0.99611 0.0
O28 O 0.36003 0.98988 0.02983 0.0
Zn29 Zn 0.38482 0.00893 0.02034 0.0
O30 O 0.39031 0.99769 0.99644 0.0
C31 C 0.40185 0.0223 0.05923 0.0
O32 O 0.38665 0.02269 0.06149 0.0
O33 O 0.38174 0.03046 0.01293 0.0
C34 C 0.40261 0.99323 0.99685 0.0
O35 O 0.41148 0.99504 0.01359 0.0
C36 C 0.35415 0.97346 0.03587 0.0
O37 O 0.36495 0.9664 0.03587 0.0
O38 O 0.40471 0.01763 0.04232 0.0
C39 C 0.95749 0.63113 0.02737 0.0
O40 O 0.95968 0.6176 0.0189 0.0
O41 O 0.00723 0.66468 0.06724 0.0
Zn42 Zn 0.9877 0.63808 0.05469 0.0
O43 O 0.99772 0.62941 0.0328 0.0
C44 C 0.9915 0.62292 0.08879 0.0
O45 O 0.00784 0.63937 0.08979 0.0
O46 O 0.96702 0.64056 0.04332 0.0
C47 C 0.00827 0.62289 0.03528 0.0
O48 O 0.01395 0.62251 0.05306 0.0
C49 C 0.01932 0.67825 0.05811 0.0
O50 O 0.01976 0.67497 0.03927 0.0
O51 O 0.97942 0.6189 0.07482 0.0
C52 C 0.32478 0.36839 0.00152 0.0
O53 O 0.32364 0.35806 0.98542 0.0
O54 O 0.35809 0.35811 0.98799 0.0
Zn55 Zn 0.36455 0.38399 0.00094 0.0
O56 O 0.38253 0.39278 0.02487 0.0
C57 C 0.39226 0.40671 0.97708 0.0
O58 O 0.39853 0.39665 0.98446 0.0
O59 O 0.34084 0.38113 0.00983 0.0
C60 C 0.39221 0.38589 0.03011 0.0
O61 O 0.39106 0.37133 0.01926 0.0
C62 C 0.35059 0.343 0.99691 0.0
O63 O 0.34796 0.34445 0.01547 0.0
O64 O 0.37666 0.40388 0.98195 0.0
C65 C 0.63465 0.97157 0.04239 0.0
O66 O 0.64283 0.98212 0.02813 0.0
O67 O 0.63684 0.01334 0.03184 0.0
Zn68 Zn 0.61507 0.99196 0.04384 0.0
O69 O 0.60898 0.00112 0.06879 0.0
C70 C 0.58739 0.99089 0.01905 0.0
O71 O 0.59546 0.00842 0.0283 0.0
O72 O 0.62188 0.97276 0.05043 0.0
C73 C 0.61155 0.0177 0.07374 0.0
O74 O 0.61923 0.03134 0.06195 0.0
C75 C 0.6532 0.02494 0.04008 0.0
O76 O 0.65642 0.02477 0.05878 0.0
O77 O 0.59302 0.97992 0.02364 0.0
C78 C 0.69072 0.68664 0.37586 0.0
O79 O 0.67253 0.67528 0.37688 0.0
O80 O 0.65744 0.67478 0.33812 0.0
Zn81 Zn 0.67661 0.70184 0.3505 0.0
O82 O 0.66494 0.71071 0.37049 0.0
C83 C 0.67497 0.71755 0.31572 0.0
O84 O 0.65758 0.70275 0.31536 0.0
O85 O 0.69678 0.70025 0.36488 0.0
C86 C 0.66349 0.72533 0.36933 0.0
O87 O 0.66963 0.73537 0.35432 0.0
C88 C 0.63995 0.66707 0.33942 0.0
O89 O 0.63397 0.67711 0.34877 0.0
O90 O 0.68662 0.72032 0.32964 0.0
C91 C 0.33754 0.9689 0.3873 0.0
O92 O 0.33375 0.98243 0.38578 0.0
O93 O 0.31028 0.97893 0.41482 0.0
Zn94 Zn 0.30245 0.95252 0.40198 0.0
O95 O 0.28641 0.94593 0.37702 0.0
C96 C 0.29479 0.93414 0.43745 0.0
O97 O 0.31159 0.94915 0.44343 0.0
O98 O 0.3258 0.95354 0.3946 0.0
C99 C 0.26953 0.94155 0.37562 0.0
O100 O 0.26129 0.94148 0.39147 0.0
C101 C 0.29962 0.98314 0.4234 0.0
O102 O 0.28191 0.96959 0.42435 0.0
O103 O 0.28825 0.9324 0.4201 0.0
C104 C 0.05327 0.35626 0.32893 0.0
O105 O 0.05067 0.34167 0.31688 0.0
O106 O 0.03303 0.31759 0.36765 0.0
Zn107 Zn 0.05777 0.33447 0.35669 0.0
O108 O 0.06174 0.32005 0.3343 0.0
C109 C 0.07831 0.3544 0.39327 0.0
O110 O 0.06539 0.35871 0.39406 0.0
O111 O 0.05719 0.35677 0.34696 0.0
C112 C 0.07612 0.31885 0.33371 0.0
O113 O 0.08845 0.32599 0.34892 0.0
C114 C 0.01761 0.31114 0.35762 0.0
O115 O 0.01787 0.31437 0.33925 0.0
O116 O 0.07815 0.3443 0.37827 0.0
C117 C 0.64176 0.97439 0.35395 0.0
O118 O 0.65905 0.9817 0.34922 0.0
O119 O 0.67553 0.99259 0.39796 0.0
Zn120 Zn 0.65726 0.9656 0.38497 0.0
O121 O 0.67026 0.95741 0.36629 0.0
C122 C 0.65818 0.94167 0.41148 0.0
O123 O 0.67493 0.94969 0.40504 0.0
O124 O 0.63698 0.96609 0.36949 0.0
C125 C 0.66116 0.93997 0.3584 0.0
O126 O 0.64377 0.92826 0.36255 0.0
C127 C 0.6929 0.99903 0.40081 0.0
O128 O 0.69908 0.98784 0.39519 0.0
O129 O 0.64706 0.94645 0.40512 0.0
C130 C 0.99422 0.70167 0.33943 0.0
O131 O 0.99374 0.69102 0.32392 0.0
O132 O 0.02806 0.69229 0.32734 0.0
Zn133 Zn 0.03409 0.7184 0.33939 0.0
O134 O 0.05168 0.72672 0.36368 0.0
C135 C 0.05689 0.73717 0.30883 0.0
O136 O 0.06024 0.72333 0.31026 0.0
O137 O 0.01001 0.715 0.34782 0.0
C138 C 0.0694 0.73829 0.36466 0.0
O139 O 0.07752 0.74589 0.34896 0.0
C140 C 0.03853 0.68573 0.33003 0.0
O141 O 0.05436 0.69637 0.34102 0.0
O142 O 0.04558 0.73814 0.31991 0.0
C143 C 0.29685 0.30529 0.37976 0.0
O144 O 0.30534 0.31611 0.36578 0.0
O145 O 0.29766 0.34561 0.36692 0.0
Zn146 Zn 0.27618 0.32446 0.37943 0.0
O147 O 0.27041 0.33516 0.40345 0.0
C148 C 0.2573 0.30636 0.34249 0.0
O149 O 0.274 0.30946 0.33995 0.0
O150 O 0.28362 0.30602 0.38729 0.0
C151 C 0.26308 0.34528 0.40305 0.0
O152 O 0.25914 0.3493 0.38618 0.0
C153 C 0.31371 0.35796 0.37543 0.0
O154 O 0.31654 0.35858 0.39436 0.0
O155 O 0.25411 0.31105 0.35922 0.0
C156 C 0.3608 0.02374 0.71019 0.0
O157 O 0.3427 0.01249 0.71182 0.0
O158 O 0.32582 0.01182 0.67413 0.0
Zn159 Zn 0.34633 0.039 0.68511 0.0
O160 O 0.33754 0.051 0.70513 0.0
C161 C 0.34455 0.05282 0.64904 0.0
O162 O 0.32724 0.03788 0.64864 0.0
O163 O 0.36653 0.03706 0.69888 0.0
C164 C 0.32501 0.05489 0.70221 0.0
O165 O 0.31602 0.05035 0.68489 0.0
C166 C 0.30946 0.00241 0.67998 0.0
O167 O 0.30493 0.0105 0.69408 0.0
O168 O 0.35607 0.05626 0.66338 0.0
C169 C 0.00502 0.30642 0.71659 0.0
O170 O 0.99799 0.31713 0.71379 0.0
O171 O 0.97385 0.31014 0.74311 0.0
Zn172 Zn 0.96968 0.28488 0.7305 0.0
O173 O 0.95377 0.27613 0.70499 0.0
C174 C 0.94697 0.26566 0.76079 0.0
O175 O 0.94364 0.27954 0.75953 0.0
O176 O 0.99515 0.2906 0.7241 0.0
C177 C 0.93608 0.26812 0.70271 0.0
O178 O 0.92639 0.26489 0.71805 0.0
C179 C 0.96424 0.31739 0.73897 0.0
O180 O 0.95001 0.30803 0.72569 0.0
O181 O 0.95794 0.26451 0.74933 0.0
C182 C 0.70465 0.69095 0.6726 0.0
O183 O 0.69474 0.67223 0.66686 0.0
O184 O 0.70199 0.65609 0.69735 0.0
Zn185 Zn 0.72625 0.67858 0.69008 0.0
O186 O 0.73646 0.67181 0.66696 0.0
C187 C 0.75619 0.68422 0.71683 0.0
O188 O 0.75675 0.67204 0.70374 0.0
O189 O 0.72005 0.69802 0.6829 0.0
C190 C 0.72937 0.65499 0.65787 0.0
O191 O 0.71432 0.64017 0.66387 0.0
C192 C 0.69927 0.64191 0.70631 0.0
O193 O 0.71342 0.64006 0.71084 0.0
O194 O 0.74467 0.68943 0.71373 0.0
C195 C 0.31326 0.31492 0.68506 0.0
O196 O 0.32987 0.3202 0.67933 0.0
O197 O 0.34694 0.32907 0.72804 0.0
Zn198 Zn 0.32748 0.30298 0.71422 0.0
O199 O 0.33853 0.29391 0.69377 0.0
C200 C 0.3278 0.28547 0.74787 0.0
O201 O 0.34512 0.30055 0.74935 0.0
O202 O 0.3082 0.30635 0.70043 0.0
C203 C 0.34942 0.2879 0.69677 0.0
O204 O 0.35474 0.28755 0.71471 0.0
C205 C 0.36221 0.34102 0.72112 0.0
O206 O 0.36603 0.33628 0.70407 0.0
O207 O 0.31657 0.28333 0.73381 0.0
C208 C 0.67809 0.03721 0.69146 0.0
O209 O 0.68619 0.02788 0.69599 0.0
O210 O 0.69777 0.02398 0.65332 0.0
Zn211 Zn 0.70728 0.05034 0.66755 0.0
O212 O 0.72574 0.05605 0.69032 0.0
C213 C 0.73047 0.06901 0.63785 0.0
O214 O 0.73336 0.05489 0.63966 0.0
O215 O 0.68492 0.04909 0.67868 0.0
C216 C 0.74325 0.06869 0.69201 0.0
O217 O 0.75106 0.07945 0.6778 0.0
C218 C 0.70033 0.01145 0.66009 0.0
O219 O 0.7102 0.01589 0.67686 0.0
O220 O 0.7192 0.0704 0.64862 0.0
C221 C 0.95711 0.63706 0.71333 0.0
O222 O 0.96743 0.64771 0.7 0.0
O223 O 0.96673 0.68155 0.70306 0.0
Zn224 Zn 0.9418 0.66101 0.71122 0.0
O225 O 0.93429 0.67174 0.73371 0.0
C226 C 0.92561 0.64614 0.67189 0.0
O227 O 0.94185 0.64792 0.66979 0.0
O228 O 0.94468 0.63973 0.71996 0.0
C229 C 0.91799 0.66073 0.73919 0.0
O230 O 0.90697 0.64339 0.7297 0.0
C231 C 0.96883 0.69336 0.69096 0.0
O232 O 0.95414 0.69338 0.68416 0.0
O233 O 0.92221 0.65067 0.68857 0.0
H234 H 0.16594 0.34893 0.03109 0.0
H235 H 0.24765 0.26725 0.16279 0.0
H236 H 0.15831 0.34238 0.13436 0.0
H237 H 0.13627 0.35 0.12092 0.0
H238 H 0.09094 0.29038 0.12294 0.0
H239 H 0.11347 0.28273 0.13539 0.0
H240 H 0.18651 0.34227 0.11041 0.0
H241 H 0.18266 0.35048 0.07798 0.0
H242 H 0.13179 0.2938 0.0652 0.0
H243 H 0.13595 0.28568 0.0976 0.0
H244 H 0.21431 0.33566 0.13451 0.0
H245 H 0.2375 0.3457 0.11042 0.0
H246 H 0.19788 0.29539 0.07096 0.0
H247 H 0.17482 0.28519 0.09546 0.0
H248 H 0.21161 0.32261 0.17404 0.0
H249 H 0.23635 0.31662 0.18234 0.0
H250 H 0.20785 0.26385 0.14266 0.0
H251 H 0.1831 0.26991 0.13466 0.0
H252 H 0.18171 0.32405 0.1956 0.0
H253 H 0.19043 0.31955 0.22782 0.0
H254 H 0.16951 0.25947 0.20807 0.0
H255 H 0.16141 0.26443 0.17558 0.0
H256 H 0.15174 0.33133 0.17703 0.0
H257 H 0.13405 0.3302 0.20486 0.0
H258 H 0.10987 0.26831 0.20293 0.0
H259 H 0.1276 0.26959 0.175 0.0
O260 O 0.16723 0.34536 0.04382 0.0
O261 O 0.14108 0.3161 0.03804 0.0
O262 O 0.25216 0.29724 0.17997 0.0
O263 O 0.23808 0.26999 0.15974 0.0
C264 C 0.15158 0.30691 0.1402 0.0
C265 C 0.16387 0.30833 0.126 0.0
C266 C 0.17842 0.30523 0.1306 0.0
C267 C 0.18027 0.29999 0.14915 0.0
C268 C 0.16781 0.29826 0.16325 0.0
C269 C 0.15342 0.30168 0.15878 0.0
C270 C 0.13751 0.31197 0.13561 0.0
C271 C 0.14357 0.33103 0.1321 0.0
C272 C 0.13089 0.33538 0.12454 0.0
C273 C 0.1118 0.32077 0.12062 0.0
C274 C 0.1056 0.3019 0.12535 0.0
C275 C 0.11838 0.29752 0.13271 0.0
C276 C 0.16159 0.31333 0.10627 0.0
C277 C 0.17463 0.3316 0.10053 0.0
C278 C 0.17235 0.33627 0.08202 0.0
C279 C 0.15693 0.32278 0.06898 0.0
C280 C 0.14384 0.30451 0.07487 0.0
C281 C 0.14617 0.29984 0.09335 0.0
C282 C 0.19294 0.30969 0.11673 0.0
C283 C 0.21077 0.32661 0.12081 0.0
C284 C 0.22389 0.33245 0.10694 0.0
C285 C 0.21941 0.32147 0.0887 0.0
C286 C 0.20174 0.3041 0.08491 0.0
C287 C 0.18858 0.29827 0.09884 0.0
C288 C 0.19551 0.2966 0.15387 0.0
C289 C 0.2107 0.30972 0.16723 0.0
C290 C 0.22483 0.30629 0.17191 0.0
C291 C 0.22405 0.28972 0.1632 0.0
C292 C 0.20887 0.27672 0.14966 0.0
C293 C 0.19473 0.28015 0.14503 0.0
C294 C 0.17099 0.29459 0.18329 0.0
C295 C 0.17875 0.30985 0.19835 0.0
C296 C 0.18362 0.30718 0.2168 0.0
C297 C 0.18071 0.28913 0.2206 0.0
C298 C 0.17222 0.27364 0.2056 0.0
C299 C 0.16747 0.27638 0.18708 0.0
C300 C 0.14091 0.30054 0.17397 0.0
C301 C 0.1423 0.31747 0.18234 0.0
C302 C 0.13219 0.31679 0.19824 0.0
C303 C 0.12063 0.29917 0.20612 0.0
C304 C 0.11882 0.28212 0.1973 0.0
C305 C 0.12883 0.2828 0.18131 0.0
C306 C 0.15454 0.3278 0.04935 0.0
C307 C 0.23898 0.28595 0.16819 0.0
H308 H 0.67801 0.83805 0.04197 0.0
H309 H 0.73199 0.98791 0.21545 0.0
H310 H 0.67053 0.82464 0.14419 0.0
H311 H 0.66133 0.79244 0.12942 0.0
H312 H 0.71612 0.804 0.14731 0.0
H313 H 0.72544 0.83665 0.16183 0.0
H314 H 0.67358 0.85466 0.1248 0.0
H315 H 0.67015 0.84669 0.08947 0.0
H316 H 0.72618 0.85738 0.09169 0.0
H317 H 0.7295 0.86557 0.12702 0.0
H318 H 0.6741 0.88374 0.15791 0.0
H319 H 0.66357 0.89834 0.1355 0.0
H320 H 0.71472 0.9201 0.10659 0.0
H321 H 0.72547 0.90576 0.12964 0.0
H322 H 0.683 0.89115 0.19907 0.0
H323 H 0.68592 0.92093 0.21367 0.0
H324 H 0.73987 0.95491 0.19039 0.0
H325 H 0.7369 0.92496 0.17612 0.0
H326 H 0.68084 0.85547 0.21402 0.0
H327 H 0.67896 0.86573 0.24747 0.0
H328 H 0.73583 0.91508 0.24878 0.0
H329 H 0.73772 0.90444 0.21521 0.0
H330 H 0.6753 0.82235 0.18724 0.0
H331 H 0.67189 0.79894 0.20931 0.0
H332 H 0.73015 0.83714 0.23075 0.0
H333 H 0.7336 0.86022 0.20791 0.0
O334 O 0.6797 0.84135 0.05595 0.0
O335 O 0.70854 0.84696 0.05789 0.0
O336 O 0.70275 0.95775 0.22159 0.0
O337 O 0.73046 0.9759 0.20979 0.0
C338 C 0.70398 0.85269 0.16228 0.0
C339 C 0.70405 0.86574 0.14992 0.0
C340 C 0.7055 0.88292 0.15801 0.0
C341 C 0.70837 0.88779 0.1784 0.0
C342 C 0.70892 0.87503 0.1908 0.0
C343 C 0.70642 0.8573 0.18274 0.0
C344 C 0.69875 0.83309 0.15375 0.0
C345 C 0.68065 0.82035 0.1447 0.0
C346 C 0.67542 0.80198 0.13629 0.0
C347 C 0.6881 0.79586 0.13705 0.0
C348 C 0.70612 0.80843 0.14654 0.0
C349 C 0.71145 0.82701 0.15477 0.0
C350 C 0.70189 0.86095 0.12842 0.0
C351 C 0.68517 0.85547 0.1176 0.0
C352 C 0.68321 0.85083 0.09743 0.0
C353 C 0.69791 0.85145 0.08774 0.0
C354 C 0.7146 0.85681 0.09869 0.0
C355 C 0.71655 0.86149 0.11885 0.0
C356 C 0.70059 0.89381 0.14548 0.0
C357 C 0.68322 0.89199 0.147 0.0
C358 C 0.67711 0.90009 0.134 0.0
C359 C 0.68819 0.9101 0.1191 0.0
C360 C 0.70591 0.91249 0.11796 0.0
C361 C 0.71206 0.90434 0.13106 0.0
C362 C 0.70985 0.90591 0.18675 0.0
C363 C 0.69549 0.90504 0.19725 0.0
C364 C 0.69716 0.92207 0.20551 0.0
C365 C 0.71317 0.94031 0.20326 0.0
C366 C 0.72739 0.94111 0.19246 0.0
C367 C 0.72572 0.92404 0.18426 0.0
C368 C 0.70944 0.87915 0.2122 0.0
C369 C 0.69316 0.86805 0.22176 0.0
C370 C 0.6921 0.87398 0.24088 0.0
C371 C 0.70723 0.89127 0.25069 0.0
C372 C 0.72392 0.90177 0.24149 0.0
C373 C 0.72506 0.89568 0.2224 0.0
C374 C 0.70475 0.84289 0.19581 0.0
C375 C 0.68741 0.82553 0.19646 0.0
C376 C 0.68544 0.81228 0.20928 0.0
C377 C 0.70072 0.81622 0.22192 0.0
C378 C 0.71816 0.83358 0.22109 0.0
C379 C 0.72014 0.84682 0.20814 0.0
C380 C 0.69578 0.84647 0.06631 0.0
C381 C 0.71507 0.95846 0.21212 0.0
H382 H 0.14354 0.85023 0.03228 0.0
H383 H 0.29824 0.97846 0.19036 0.0
H384 H 0.13051 0.85712 0.13478 0.0
H385 H 0.10311 0.82596 0.12072 0.0
H386 H 0.1276 0.79605 0.14441 0.0
H387 H 0.15464 0.8271 0.15851 0.0
H388 H 0.1661 0.88964 0.11162 0.0
H389 H 0.1563 0.87773 0.0771 0.0
H390 H 0.16042 0.82823 0.08585 0.0
H391 H 0.17042 0.84043 0.12027 0.0
H392 H 0.20748 0.92421 0.12956 0.0
H393 H 0.23269 0.9377 0.10748 0.0
H394 H 0.23466 0.88584 0.10704 0.0
H395 H 0.20926 0.87243 0.1285 0.0
H396 H 0.20483 0.93185 0.17969 0.0
H397 H 0.23527 0.96158 0.18966 0.0
H398 H 0.263 0.93137 0.17349 0.0
H399 H 0.23249 0.90171 0.16383 0.0
H400 H 0.17282 0.90008 0.20835 0.0
H401 H 0.18367 0.90787 0.24312 0.0
H402 H 0.22549 0.89397 0.23137 0.0
H403 H 0.21394 0.88531 0.19714 0.0
H404 H 0.13523 0.86528 0.18451 0.0
H405 H 0.11566 0.84563 0.20939 0.0
H406 H 0.15445 0.82746 0.22052 0.0
H407 H 0.17401 0.84747 0.19614 0.0
O408 O 0.14755 0.85473 0.04594 0.0
O409 O 0.14981 0.82952 0.05123 0.0
O410 O 0.27108 0.98173 0.19476 0.0
O411 O 0.28602 0.9669 0.18656 0.0
C412 C 0.16223 0.86304 0.15374 0.0
C413 C 0.17447 0.87302 0.13943 0.0
C414 C 0.19246 0.88953 0.14506 0.0
C415 C 0.19789 0.89675 0.16493 0.0
C416 C 0.18578 0.88661 0.17929 0.0
C417 C 0.16799 0.86967 0.17368 0.0
C418 C 0.14444 0.84431 0.14778 0.0
C419 C 0.12969 0.84377 0.13725 0.0
C420 C 0.11417 0.826 0.1291 0.0
C421 C 0.11322 0.80853 0.13139 0.0
C422 C 0.12773 0.80917 0.14263 0.0
C423 C 0.1432 0.8269 0.15073 0.0
C424 C 0.16877 0.86579 0.11845 0.0
C425 C 0.1649 0.87624 0.10602 0.0
C426 C 0.15928 0.86939 0.08633 0.0
C427 C 0.15749 0.85198 0.07873 0.0
C428 C 0.16158 0.84164 0.09124 0.0
C429 C 0.16723 0.84854 0.11091 0.0
C430 C 0.20656 0.89736 0.13052 0.0
C431 C 0.21324 0.91574 0.12442 0.0
C432 C 0.2277 0.92342 0.11194 0.0
C433 C 0.23575 0.91286 0.10551 0.0
C434 C 0.22862 0.89424 0.11138 0.0
C435 C 0.21415 0.88657 0.12372 0.0
C436 C 0.21647 0.91471 0.17084 0.0
C437 C 0.21751 0.93171 0.1783 0.0
C438 C 0.2349 0.94866 0.18397 0.0
C439 C 0.25158 0.94888 0.1823 0.0
C440 C 0.25045 0.93174 0.1749 0.0
C441 C 0.23304 0.9148 0.16928 0.0
C442 C 0.19271 0.8923 0.20022 0.0
C443 C 0.1843 0.89872 0.21339 0.0
C444 C 0.19058 0.90325 0.23319 0.0
C445 C 0.20539 0.90145 0.24008 0.0
C446 C 0.21383 0.89517 0.2267 0.0
C447 C 0.20744 0.8905 0.20705 0.0
C448 C 0.15608 0.8579 0.18871 0.0
C449 C 0.13947 0.8571 0.19245 0.0
C450 C 0.1283 0.84581 0.20658 0.0
C451 C 0.13355 0.83507 0.21708 0.0
C452 C 0.15018 0.83588 0.21308 0.0
C453 C 0.16134 0.84721 0.19907 0.0
C454 C 0.1514 0.84467 0.05783 0.0
C455 C 0.2701 0.96685 0.18827 0.0
H456 H 0.28517 0.16488 0.02373 0.0
H457 H 0.32044 0.04514 0.87361 0.0
H458 H 0.2729 0.16426 0.91888 0.0
H459 H 0.27863 0.19597 0.93155 0.0
H460 H 0.33586 0.22348 0.91577 0.0
H461 H 0.32975 0.19199 0.90269 0.0
H462 H 0.27201 0.12855 0.94373 0.0
H463 H 0.2723 0.13913 0.97794 0.0
H464 H 0.32831 0.1891 0.97542 0.0
H465 H 0.32792 0.17822 0.94133 0.0
H466 H 0.27961 0.09293 0.92521 0.0
H467 H 0.29085 0.0774 0.94571 0.0
H468 H 0.34371 0.13221 0.95871 0.0
H469 H 0.33278 0.1472 0.9373 0.0
H470 H 0.27148 0.08783 0.87746 0.0
H471 H 0.27297 0.05916 0.86842 0.0
H472 H 0.33135 0.09123 0.89042 0.0
H473 H 0.32972 0.11984 0.89915 0.0
H474 H 0.27097 0.11747 0.84941 0.0
H475 H 0.27351 0.10719 0.81588 0.0
H476 H 0.33147 0.12691 0.83109 0.0
H477 H 0.32891 0.13761 0.86409 0.0
H478 H 0.26962 0.15377 0.8696 0.0
H479 H 0.27113 0.17382 0.84412 0.0
H480 H 0.32991 0.19476 0.84068 0.0
H481 H 0.32798 0.17421 0.86548 0.0
O482 O 0.28539 0.16092 0.01022 0.0
O483 O 0.31413 0.18642 0.00813 0.0
O484 O 0.28947 0.04048 0.86573 0.0
O485 O 0.31947 0.05628 0.87698 0.0
C486 C 0.29848 0.1568 0.90437 0.0
C487 C 0.2994 0.14625 0.9192 0.0
C488 C 0.3004 0.12975 0.91429 0.0
C489 C 0.2994 0.12317 0.89448 0.0
C490 C 0.29824 0.1336 0.87967 0.0
C491 C 0.29791 0.15047 0.88462 0.0
C492 C 0.30087 0.17591 0.90974 0.0
C493 C 0.28651 0.17724 0.91781 0.0
C494 C 0.28989 0.19533 0.92521 0.0
C495 C 0.30774 0.21231 0.92475 0.0
C496 C 0.32186 0.21084 0.91605 0.0
C497 C 0.31842 0.19283 0.90858 0.0
C498 C 0.29984 0.15273 0.94001 0.0
C499 C 0.28433 0.14177 0.95062 0.0
C500 C 0.28453 0.14785 0.97014 0.0
C501 C 0.3003 0.16501 0.97939 0.0
C502 C 0.31591 0.17587 0.96872 0.0
C503 C 0.31569 0.16974 0.94922 0.0
C504 C 0.30539 0.12116 0.92971 0.0
C505 C 0.29348 0.10161 0.93278 0.0
C506 C 0.29992 0.09281 0.94458 0.0
C507 C 0.31829 0.10352 0.95368 0.0
C508 C 0.32964 0.12345 0.95161 0.0
C509 C 0.32331 0.13213 0.93962 0.0
C510 C 0.30043 0.10582 0.88912 0.0
C511 C 0.28457 0.08861 0.8803 0.0
C512 C 0.28546 0.07227 0.87517 0.0
C513 C 0.30227 0.07288 0.87876 0.0
C514 C 0.31817 0.09023 0.8875 0.0
C515 C 0.31727 0.10658 0.89257 0.0
C516 C 0.29972 0.12813 0.85914 0.0
C517 C 0.28423 0.11971 0.84534 0.0
C518 C 0.28569 0.11377 0.82628 0.0
C519 C 0.3027 0.11625 0.82079 0.0
C520 C 0.31825 0.12507 0.83468 0.0
C521 C 0.31678 0.13102 0.85361 0.0
C522 C 0.29865 0.16248 0.86922 0.0
C523 C 0.28274 0.16263 0.86318 0.0
C524 C 0.28368 0.17417 0.84873 0.0
C525 C 0.30062 0.18584 0.84022 0.0
C526 C 0.31653 0.18565 0.84652 0.0
C527 C 0.31552 0.17402 0.8608 0.0
C528 C 0.30043 0.17149 0.0001 0.0
C529 C 0.30328 0.05554 0.8734 0.0
H530 H 0.82415 0.15467 0.03483 0.0
H531 H 0.724 0.00728 0.85809 0.0
H532 H 0.83609 0.16886 0.93251 0.0
H533 H 0.86089 0.19998 0.94928 0.0
H534 H 0.90132 0.1839 0.9389 0.0
H535 H 0.87615 0.15237 0.92229 0.0
H536 H 0.80654 0.14034 0.9504 0.0
H537 H 0.81005 0.1479 0.98579 0.0
H538 H 0.85082 0.13137 0.99001 0.0
H539 H 0.84698 0.12362 0.95457 0.0
H540 H 0.77831 0.11419 0.91858 0.0
H541 H 0.7524 0.10088 0.93932 0.0
H542 H 0.77374 0.06915 0.96558 0.0
H543 H 0.80035 0.0836 0.94531 0.0
H544 H 0.77908 0.10382 0.87538 0.0
H545 H 0.75065 0.07497 0.8593 0.0
H546 H 0.76593 0.03844 0.88583 0.0
H547 H 0.79441 0.06743 0.90164 0.0
H548 H 0.81469 0.13709 0.86198 0.0
H549 H 0.80671 0.12861 0.82695 0.0
H550 H 0.81297 0.07965 0.83006 0.0
H551 H 0.82067 0.08817 0.86535 0.0
H552 H 0.84498 0.1703 0.89022 0.0
H553 H 0.86748 0.19245 0.86895 0.0
H554 H 0.88378 0.15139 0.85405 0.0
H555 H 0.86115 0.12924 0.87557 0.0
O556 O 0.8229 0.1515 0.02086 0.0
O557 O 0.84384 0.1429 0.02223 0.0
O558 O 0.72794 0.03836 0.85095 0.0
O559 O 0.73512 0.01894 0.86429 0.0
C560 C 0.83873 0.13914 0.91715 0.0
C561 C 0.82428 0.12661 0.92845 0.0
C562 C 0.8078 0.11004 0.91928 0.0
C563 C 0.80628 0.10518 0.89899 0.0
C564 C 0.82098 0.11737 0.88771 0.0
C565 C 0.83712 0.1345 0.89675 0.0
C566 C 0.85428 0.15825 0.9265 0.0
C567 C 0.85027 0.17196 0.934 0.0
C568 C 0.86442 0.1897 0.94357 0.0
C569 C 0.88295 0.19421 0.94559 0.0
C570 C 0.88712 0.18072 0.93754 0.0
C571 C 0.87282 0.16278 0.92811 0.0
C572 C 0.82631 0.13118 0.94997 0.0
C573 C 0.81605 0.13815 0.95901 0.0
C574 C 0.81817 0.14256 0.97923 0.0
C575 C 0.83068 0.14018 0.99075 0.0
C576 C 0.84103 0.13331 0.98158 0.0
C577 C 0.83887 0.12887 0.96136 0.0
C578 C 0.79108 0.09975 0.93041 0.0
C579 C 0.77723 0.10417 0.92866 0.0
C580 C 0.76238 0.09646 0.94052 0.0
C581 C 0.76087 0.08386 0.95418 0.0
C582 C 0.77459 0.07905 0.95549 0.0
C583 C 0.78967 0.08706 0.94377 0.0
C584 C 0.78886 0.08768 0.8895 0.0
C585 C 0.7763 0.08957 0.8776 0.0
C586 C 0.76005 0.07307 0.86849 0.0
C587 C 0.75604 0.05438 0.87124 0.0
C588 C 0.7686 0.05259 0.88336 0.0
C589 C 0.78487 0.06911 0.89243 0.0
C590 C 0.81834 0.1133 0.86616 0.0
C591 C 0.81472 0.12478 0.85502 0.0
C592 C 0.81021 0.11991 0.83498 0.0
C593 C 0.80921 0.10344 0.82567 0.0
C594 C 0.81343 0.0923 0.83682 0.0
C595 C 0.81794 0.09719 0.85692 0.0
C596 C 0.85161 0.14828 0.88462 0.0
C597 C 0.85365 0.16623 0.88265 0.0
C598 C 0.86652 0.17886 0.8705 0.0
C599 C 0.87749 0.17371 0.85992 0.0
C600 C 0.87546 0.15571 0.86196 0.0
C601 C 0.86263 0.1431 0.87427 0.0
C602 C 0.83292 0.14492 0.01222 0.0
C603 C 0.73884 0.0368 0.86152 0.0
H604 H 0.88052 0.70356 0.0503 0.0
H605 H 0.73314 0.69897 0.91349 0.0
H606 H 0.88826 0.72161 0.95204 0.0
H607 H 0.90867 0.71177 0.9657 0.0
H608 H 0.87482 0.65547 0.93254 0.0
H609 H 0.85419 0.6652 0.91931 0.0
H610 H 0.85939 0.72448 0.97915 0.0
H611 H 0.86973 0.72115 0.01129 0.0
H612 H 0.8512 0.6616 0.99209 0.0
H613 H 0.84063 0.66504 0.96014 0.0
H614 H 0.82237 0.72465 0.96609 0.0
H615 H 0.79819 0.71647 0.98902 0.0
H616 H 0.78122 0.65615 0.97981 0.0
H617 H 0.80563 0.6646 0.95756 0.0
H618 H 0.82518 0.73501 0.9184 0.0
H619 H 0.79903 0.73962 0.91343 0.0
H620 H 0.76004 0.67942 0.9218 0.0
H621 H 0.78628 0.67496 0.92647 0.0
H622 H 0.85209 0.72997 0.8855 0.0
H623 H 0.84128 0.73043 0.85222 0.0
H624 H 0.78977 0.67558 0.85655 0.0
H625 H 0.80077 0.67503 0.88947 0.0
H626 H 0.88413 0.72408 0.90207 0.0
H627 H 0.89757 0.72046 0.87216 0.0
H628 H 0.84652 0.66485 0.85535 0.0
H629 H 0.83328 0.66862 0.88506 0.0
O630 O 0.87601 0.70445 0.0376 0.0
O631 O 0.86659 0.67404 0.02688 0.0
O632 O 0.76433 0.72836 0.91101 0.0
O633 O 0.74372 0.69755 0.91536 0.0
C634 C 0.8544 0.69769 0.93159 0.0
C635 C 0.84415 0.69757 0.94751 0.0
C636 C 0.82851 0.69925 0.94456 0.0
C637 C 0.82362 0.70209 0.92593 0.0
C638 C 0.83363 0.7019 0.90996 0.0
C639 C 0.84881 0.69931 0.91273 0.0
C640 C 0.8697 0.69409 0.93477 0.0
C641 C 0.88564 0.7074 0.94721 0.0
C642 C 0.89717 0.70172 0.95511 0.0
C643 C 0.89311 0.68279 0.95035 0.0
C644 C 0.87827 0.67016 0.93637 0.0
C645 C 0.86656 0.67575 0.9287 0.0
C646 C 0.84943 0.69506 0.9673 0.0
C647 C 0.85745 0.71069 0.98199 0.0
C648 C 0.8634 0.70876 0.0003 0.0
C649 C 0.8614 0.69114 0.00423 0.0
C650 C 0.85302 0.67539 0.98953 0.0
C651 C 0.847 0.67732 0.97127 0.0
C652 C 0.81569 0.6952 0.96022 0.0
C653 C 0.81363 0.70977 0.9694 0.0
C654 C 0.79975 0.70502 0.98236 0.0
C655 C 0.78768 0.68562 0.98621 0.0
C656 C 0.79041 0.67127 0.97751 0.0
C657 C 0.80431 0.67605 0.9647 0.0
C658 C 0.80763 0.70472 0.92299 0.0
C659 C 0.81098 0.72286 0.91916 0.0
C660 C 0.79602 0.72544 0.91634 0.0
C661 C 0.77743 0.70989 0.91729 0.0
C662 C 0.77416 0.69171 0.92104 0.0
C663 C 0.78913 0.68914 0.9238 0.0
C664 C 0.82709 0.70261 0.88999 0.0
C665 C 0.83848 0.71809 0.87922 0.0
C666 C 0.83233 0.7183 0.86025 0.0
C667 C 0.81463 0.70312 0.85191 0.0
C668 C 0.80333 0.68763 0.86275 0.0
C669 C 0.80956 0.68732 0.88155 0.0
C670 C 0.8577 0.69669 0.89559 0.0
C671 C 0.87598 0.71107 0.89196 0.0
C672 C 0.8836 0.70898 0.87492 0.0
C673 C 0.87299 0.69249 0.8613 0.0
C674 C 0.85488 0.6779 0.86535 0.0
C675 C 0.84734 0.67996 0.88235 0.0
C676 C 0.86811 0.68928 0.02355 0.0
C677 C 0.7615 0.71257 0.91435 0.0
H678 H 0.82961 0.68376 0.36023 0.0
H679 H 0.90872 0.60032 0.4943 0.0
H680 H 0.82391 0.67986 0.46422 0.0
H681 H 0.80242 0.68852 0.45104 0.0
H682 H 0.75607 0.62938 0.45216 0.0
H683 H 0.77778 0.62074 0.46516 0.0
H684 H 0.85079 0.678 0.43966 0.0
H685 H 0.84677 0.68577 0.40706 0.0
H686 H 0.79542 0.62935 0.39529 0.0
H687 H 0.79975 0.62168 0.42786 0.0
H688 H 0.87807 0.67147 0.46506 0.0
H689 H 0.90194 0.68102 0.44182 0.0
H690 H 0.86292 0.63067 0.40208 0.0
H691 H 0.83909 0.62097 0.42576 0.0
H692 H 0.87572 0.65855 0.50382 0.0
H693 H 0.89973 0.65161 0.51244 0.0
H694 H 0.86956 0.59806 0.47397 0.0
H695 H 0.84552 0.60507 0.46567 0.0
H696 H 0.84673 0.66215 0.52508 0.0
H697 H 0.85678 0.65888 0.55722 0.0
H698 H 0.83499 0.59823 0.53957 0.0
H699 H 0.82526 0.60183 0.50718 0.0
H700 H 0.82004 0.67116 0.50697 0.0
H701 H 0.80352 0.67274 0.53489 0.0
H702 H 0.77378 0.61032 0.53396 0.0
H703 H 0.79032 0.60886 0.50588 0.0
O704 O 0.83099 0.68034 0.37301 0.0
O705 O 0.80462 0.65121 0.36774 0.0
O706 O 0.9144 0.63111 0.51073 0.0
O707 O 0.89945 0.60345 0.4911 0.0
C708 C 0.81598 0.64397 0.47015 0.0
C709 C 0.82792 0.64456 0.45592 0.0
C710 C 0.84222 0.64116 0.46072 0.0
C711 C 0.84395 0.63613 0.47943 0.0
C712 C 0.83185 0.63527 0.4936 0.0
C713 C 0.81792 0.63932 0.489 0.0
C714 C 0.8024 0.64964 0.46544 0.0
C715 C 0.80907 0.66884 0.46187 0.0
C716 C 0.79683 0.67373 0.45428 0.0
C717 C 0.77764 0.65956 0.45037 0.0
C718 C 0.77079 0.64058 0.45509 0.0
C719 C 0.78313 0.63564 0.46252 0.0
C720 C 0.82565 0.64922 0.43603 0.0
C721 C 0.83878 0.66728 0.42994 0.0
C722 C 0.8364 0.67171 0.41135 0.0
C723 C 0.82078 0.65817 0.39855 0.0
C724 C 0.80762 0.6401 0.40476 0.0
C725 C 0.81005 0.63567 0.42334 0.0
C726 C 0.85691 0.6455 0.44711 0.0
C727 C 0.87476 0.66233 0.45147 0.0
C728 C 0.88829 0.66789 0.43808 0.0
C729 C 0.88421 0.65672 0.42003 0.0
C730 C 0.86646 0.63952 0.4159 0.0
C731 C 0.85286 0.63397 0.42935 0.0
C732 C 0.85881 0.63221 0.48427 0.0
C733 C 0.87429 0.64528 0.49735 0.0
C734 C 0.888 0.64131 0.50221 0.0
C735 C 0.88653 0.62424 0.49394 0.0
C736 C 0.8711 0.6113 0.48064 0.0
C737 C 0.85737 0.61528 0.47584 0.0
C738 C 0.83523 0.63222 0.51384 0.0
C739 C 0.84372 0.64805 0.52832 0.0
C740 C 0.84943 0.64612 0.54671 0.0
C741 C 0.84675 0.62829 0.55099 0.0
C742 C 0.83748 0.61222 0.53667 0.0
C743 C 0.83179 0.61419 0.51823 0.0
C744 C 0.8063 0.63989 0.50439 0.0
C745 C 0.80971 0.65781 0.51258 0.0
C746 C 0.80041 0.65869 0.52861 0.0
C747 C 0.78747 0.64166 0.53667 0.0
C748 C 0.78358 0.62365 0.52797 0.0
C749 C 0.79301 0.62279 0.512 0.0
C750 C 0.81825 0.66295 0.37884 0.0
C751 C 0.901 0.61988 0.49914 0.0
H752 H 0.33047 0.15911 0.37409 0.0
H753 H 0.3938 0.31743 0.53993 0.0
H754 H 0.33117 0.15088 0.47972 0.0
H755 H 0.32137 0.1174 0.469 0.0
H756 H 0.37865 0.13267 0.47859 0.0
H757 H 0.38841 0.16637 0.48939 0.0
H758 H 0.33209 0.1796 0.45745 0.0
H759 H 0.32602 0.16972 0.42234 0.0
H760 H 0.38244 0.18204 0.41999 0.0
H761 H 0.38838 0.19209 0.4551 0.0
H762 H 0.33464 0.21077 0.48844 0.0
H763 H 0.32377 0.2259 0.46712 0.0
H764 H 0.37377 0.24708 0.43621 0.0
H765 H 0.38483 0.23219 0.45816 0.0
H766 H 0.3459 0.2205 0.52939 0.0
H767 H 0.3489 0.25072 0.54265 0.0
H768 H 0.40124 0.28358 0.51609 0.0
H769 H 0.39819 0.25322 0.50316 0.0
H770 H 0.34535 0.18553 0.54546 0.0
H771 H 0.3444 0.19737 0.57859 0.0
H772 H 0.40009 0.24782 0.57627 0.0
H773 H 0.40128 0.23531 0.54333 0.0
H774 H 0.33956 0.15208 0.52091 0.0
H775 H 0.33908 0.12949 0.54246 0.0
H776 H 0.39841 0.16901 0.55814 0.0
H777 H 0.39886 0.19149 0.53608 0.0
O778 O 0.33318 0.1631 0.38796 0.0
O779 O 0.36227 0.16953 0.38757 0.0
O780 O 0.36535 0.28768 0.54833 0.0
O781 O 0.39226 0.30525 0.53487 0.0
C782 C 0.36578 0.18087 0.49282 0.0
C783 C 0.36454 0.1929 0.48004 0.0
C784 C 0.36622 0.21033 0.48759 0.0
C785 C 0.37033 0.21634 0.50778 0.0
C786 C 0.37196 0.20448 0.5206 0.0
C787 C 0.36947 0.18662 0.51312 0.0
C788 C 0.3605 0.16101 0.48521 0.0
C789 C 0.34164 0.14705 0.47931 0.0
C790 C 0.33604 0.12794 0.47338 0.0
C791 C 0.34924 0.12248 0.47311 0.0
C792 C 0.36823 0.13658 0.47862 0.0
C793 C 0.37381 0.15574 0.48478 0.0
C794 C 0.36074 0.18677 0.45875 0.0
C795 C 0.34315 0.18029 0.44929 0.0
C796 C 0.33971 0.17459 0.42925 0.0
C797 C 0.35376 0.17514 0.41834 0.0
C798 C 0.37132 0.18148 0.42795 0.0
C799 C 0.37475 0.18722 0.44798 0.0
C800 C 0.36057 0.22053 0.47492 0.0
C801 C 0.34336 0.21887 0.47721 0.0
C802 C 0.33707 0.22731 0.46486 0.0
C803 C 0.34782 0.23749 0.44985 0.0
C804 C 0.36523 0.23938 0.44771 0.0
C805 C 0.37155 0.23089 0.46016 0.0
C806 C 0.37195 0.23469 0.51553 0.0
C807 C 0.35806 0.23424 0.52657 0.0
C808 C 0.35978 0.25153 0.53407 0.0
C809 C 0.37535 0.26958 0.53048 0.0
C810 C 0.3891 0.26994 0.51918 0.0
C811 C 0.38739 0.25263 0.51175 0.0
C812 C 0.37338 0.20955 0.54196 0.0
C813 C 0.35766 0.19872 0.55237 0.0
C814 C 0.35703 0.20567 0.5712 0.0
C815 C 0.37201 0.22373 0.57989 0.0
C816 C 0.38835 0.23383 0.57001 0.0
C817 C 0.38905 0.22674 0.55119 0.0
C818 C 0.36932 0.17324 0.52664 0.0
C819 C 0.35252 0.15574 0.52876 0.0
C820 C 0.35227 0.14288 0.54107 0.0
C821 C 0.36876 0.14741 0.55179 0.0
C822 C 0.38552 0.16517 0.55003 0.0
C823 C 0.3858 0.17797 0.53746 0.0
C824 C 0.35007 0.1691 0.39704 0.0
C825 C 0.37728 0.28799 0.53846 0.0
H826 H 0.80497 0.18103 0.35992 0.0
H827 H 0.96488 0.31608 0.50993 0.0
H828 H 0.7968 0.18227 0.46432 0.0
H829 H 0.77136 0.14898 0.45218 0.0
H830 H 0.80526 0.12737 0.47179 0.0
H831 H 0.83047 0.16046 0.4838 0.0
H832 H 0.82985 0.21948 0.43955 0.0
H833 H 0.81843 0.20764 0.40529 0.0
H834 H 0.82854 0.16142 0.41012 0.0
H835 H 0.84015 0.17357 0.44426 0.0
H836 H 0.87285 0.25818 0.45803 0.0
H837 H 0.89694 0.27449 0.43512 0.0
H838 H 0.89956 0.22319 0.42498 0.0
H839 H 0.87599 0.20728 0.44806 0.0
H840 H 0.87136 0.26333 0.50663 0.0
H841 H 0.90107 0.29426 0.51536 0.0
H842 H 0.93117 0.26826 0.49363 0.0
H843 H 0.9014 0.23738 0.48522 0.0
H844 H 0.84112 0.2295 0.53486 0.0
H845 H 0.85356 0.23896 0.56924 0.0
H846 H 0.89914 0.23171 0.55529 0.0
H847 H 0.88633 0.22161 0.52129 0.0
H848 H 0.80514 0.19467 0.51169 0.0
H849 H 0.78677 0.17456 0.53682 0.0
H850 H 0.82809 0.15947 0.54682 0.0
H851 H 0.84659 0.18019 0.52226 0.0
O852 O 0.8096 0.1855 0.37347 0.0
O853 O 0.81499 0.16197 0.37674 0.0
O854 O 0.93681 0.31664 0.51782 0.0
O855 O 0.95294 0.30401 0.50669 0.0
C856 C 0.83177 0.19373 0.48011 0.0
C857 C 0.84244 0.20455 0.46523 0.0
C858 C 0.85982 0.22218 0.47011 0.0
C859 C 0.86609 0.22947 0.48991 0.0
C860 C 0.85529 0.21871 0.50481 0.0
C861 C 0.83812 0.20085 0.49986 0.0
C862 C 0.8154 0.1737 0.47496 0.0
C863 C 0.79853 0.17027 0.46627 0.0
C864 C 0.78407 0.15133 0.45939 0.0
C865 C 0.78648 0.13571 0.46094 0.0
C866 C 0.80316 0.13919 0.47026 0.0
C867 C 0.81746 0.15802 0.47726 0.0
C868 C 0.83562 0.19726 0.44443 0.0
C869 C 0.82958 0.2068 0.43316 0.0
C870 C 0.82306 0.2 0.41361 0.0
C871 C 0.8225 0.18353 0.40498 0.0
C872 C 0.82871 0.17409 0.41632 0.0
C873 C 0.83527 0.18094 0.43585 0.0
C874 C 0.8726 0.23151 0.45463 0.0
C875 C 0.87848 0.25043 0.45064 0.0
C876 C 0.89222 0.25971 0.43762 0.0
C877 C 0.90004 0.25006 0.42823 0.0
C878 C 0.89357 0.23087 0.43174 0.0
C879 C 0.88009 0.22175 0.44491 0.0
C880 C 0.88422 0.24818 0.49514 0.0
C881 C 0.88439 0.26436 0.50378 0.0
C882 C 0.90138 0.282 0.50874 0.0
C883 C 0.91851 0.28375 0.50513 0.0
C884 C 0.91825 0.26744 0.49655 0.0
C885 C 0.90126 0.2498 0.49167 0.0
C886 C 0.86294 0.22509 0.52553 0.0
C887 C 0.85376 0.22993 0.53927 0.0
C888 C 0.86084 0.23529 0.55884 0.0
C889 C 0.87736 0.2362 0.56481 0.0
C890 C 0.88652 0.2314 0.55099 0.0
C891 C 0.87927 0.2257 0.53159 0.0
C892 C 0.8272 0.18894 0.51531 0.0
C893 C 0.81022 0.18709 0.51946 0.0
C894 C 0.79971 0.1755 0.53372 0.0
C895 C 0.80593 0.16538 0.5439 0.0
C896 C 0.82302 0.16733 0.53959 0.0
C897 C 0.83358 0.17906 0.52548 0.0
C898 C 0.81549 0.17629 0.38423 0.0
C899 C 0.93659 0.30248 0.51029 0.0
H900 H 0.00318 0.52131 0.35934 0.0
H901 H 0.99844 0.38418 0.18036 0.0
H902 H 0.96709 0.51116 0.2439 0.0
H903 H 0.97381 0.54287 0.25843 0.0
H904 H 0.03267 0.56334 0.26632 0.0
H905 H 0.02592 0.53192 0.2516 0.0
H906 H 0.97186 0.48738 0.27937 0.0
H907 H 0.97958 0.49976 0.31395 0.0
H908 H 0.03763 0.51925 0.30747 0.0
H909 H 0.02974 0.50699 0.2729 0.0
H910 H 0.9754 0.44334 0.26933 0.0
H911 H 0.98757 0.42641 0.2863 0.0
H912 H 0.04214 0.46425 0.26574 0.0
H913 H 0.02961 0.48035 0.24825 0.0
H914 H 0.96124 0.42722 0.23012 0.0
H915 H 0.95969 0.3975 0.21763 0.0
H916 H 0.01219 0.43211 0.19188 0.0
H917 H 0.01361 0.46168 0.2046 0.0
H918 H 0.95222 0.44346 0.19505 0.0
H919 H 0.94778 0.42785 0.16192 0.0
H920 H 0.00331 0.47428 0.15094 0.0
H921 H 0.00747 0.4898 0.18391 0.0
H922 H 0.9553 0.48545 0.19874 0.0
H923 H 0.9533 0.5052 0.17485 0.0
H924 H 0.01287 0.54708 0.18629 0.0
H925 H 0.0148 0.52696 0.20939 0.0
O926 O 0.00041 0.5164 0.34568 0.0
O927 O 0.03007 0.52607 0.3416 0.0
O928 O 0.97179 0.37855 0.19908 0.0
O929 O 0.99872 0.39568 0.18552 0.0
C930 C 0.99208 0.49978 0.23974 0.0
C931 C 0.99539 0.48908 0.25264 0.0
C932 C 0.99418 0.47186 0.24543 0.0
C933 C 0.98831 0.46449 0.22569 0.0
C934 C 0.98444 0.47483 0.21287 0.0
C935 C 0.98673 0.49274 0.21979 0.0
C936 C 0.99599 0.51922 0.247 0.0
C937 C 0.98143 0.5226 0.2486 0.0
C938 C 0.98528 0.54065 0.25685 0.0
C939 C 0.00372 0.5554 0.26371 0.0
C940 C 0.0183 0.55209 0.26148 0.0
C941 C 0.01448 0.53421 0.25308 0.0
C942 C 0.00018 0.49604 0.27373 0.0
C943 C 0.98621 0.49422 0.2855 0.0
C944 C 0.99067 0.50133 0.30522 0.0
C945 C 0.00922 0.51044 0.31349 0.0
C946 C 0.02319 0.51223 0.30159 0.0
C947 C 0.01871 0.50512 0.28187 0.0
C948 C 0.00167 0.463 0.25764 0.0
C949 C 0.99001 0.44803 0.26875 0.0
C950 C 0.99703 0.43848 0.27847 0.0
C951 C 0.0158 0.4439 0.27724 0.0
C952 C 0.02754 0.45948 0.26669 0.0
C953 C 0.02048 0.46881 0.25684 0.0
C954 C 0.98749 0.44653 0.21818 0.0
C955 C 0.9724 0.42831 0.22181 0.0
C956 C 0.97154 0.41139 0.21464 0.0
C957 C 0.98581 0.41243 0.20371 0.0
C958 C 0.00096 0.43078 0.2002 0.0
C959 C 0.00181 0.44768 0.20741 0.0
C960 C 0.98014 0.46775 0.19182 0.0
C961 C 0.96317 0.4505 0.18525 0.0
C962 C 0.96074 0.44155 0.16641 0.0
C963 C 0.97527 0.44973 0.15387 0.0
C964 C 0.99176 0.4677 0.16013 0.0
C965 C 0.99418 0.47662 0.17896 0.0
C966 C 0.98517 0.50487 0.20587 0.0
C967 C 0.96787 0.49891 0.19603 0.0
C968 C 0.96675 0.51024 0.18249 0.0
C969 C 0.98294 0.52767 0.17859 0.0
C970 C 0.00019 0.53359 0.18867 0.0
C971 C 0.00129 0.52224 0.20206 0.0
C972 C 0.01393 0.51812 0.33441 0.0
C973 C 0.98495 0.3945 0.196 0.0
H974 H 0.49161 0.4937 0.3715 0.0
H975 H 0.38331 0.34238 0.19921 0.0
H976 H 0.49748 0.50528 0.2681 0.0
H977 H 0.52275 0.53695 0.28335 0.0
H978 H 0.563 0.52109 0.27079 0.0
H979 H 0.53738 0.48906 0.25564 0.0
H980 H 0.46944 0.47723 0.28785 0.0
H981 H 0.47484 0.48565 0.32317 0.0
H982 H 0.51592 0.46938 0.3247 0.0
H983 H 0.5102 0.46078 0.28936 0.0
H984 H 0.44025 0.45107 0.25699 0.0
H985 H 0.41443 0.43731 0.27785 0.0
H986 H 0.43613 0.40538 0.30295 0.0
H987 H 0.4626 0.42019 0.28247 0.0
H988 H 0.43815 0.43905 0.21442 0.0
H989 H 0.40913 0.40987 0.19986 0.0
H990 H 0.42655 0.37417 0.22441 0.0
H991 H 0.45563 0.40349 0.23868 0.0
H992 H 0.47271 0.47237 0.1992 0.0
H993 H 0.46137 0.46263 0.16481 0.0
H994 H 0.46702 0.41319 0.16621 0.0
H995 H 0.47889 0.42339 0.20065 0.0
H996 H 0.50263 0.50515 0.22503 0.0
H997 H 0.52363 0.52741 0.20279 0.0
H998 H 0.54217 0.48833 0.18739 0.0
H999 H 0.52125 0.46621 0.21008 0.0
O1000 O 0.48961 0.49017 0.35754 0.0
O1001 O 0.51065 0.48168 0.35753 0.0
O1002 O 0.38639 0.37316 0.19246 0.0
O1003 O 0.39467 0.35415 0.2048 0.0
C1004 C 0.4998 0.47543 0.25252 0.0
C1005 C 0.48612 0.46311 0.26463 0.0
C1006 C 0.46933 0.44636 0.25627 0.0
C1007 C 0.46681 0.44105 0.23599 0.0
C1008 C 0.48072 0.45305 0.22386 0.0
C1009 C 0.4971 0.47042 0.23212 0.0
C1010 C 0.51558 0.49479 0.26108 0.0
C1011 C 0.51173 0.50856 0.26879 0.0
C1012 C 0.52616 0.52661 0.2775 0.0
C1013 C 0.54479 0.53136 0.27847 0.0
C1014 C 0.54874 0.51776 0.27023 0.0
C1015 C 0.53418 0.49952 0.26164 0.0
C1016 C 0.48923 0.46813 0.28611 0.0
C1017 C 0.47943 0.47527 0.29587 0.0
C1018 C 0.48263 0.48018 0.31604 0.0
C1019 C 0.49578 0.47813 0.32678 0.0
C1020 C 0.50566 0.47108 0.31688 0.0
C1021 C 0.50242 0.46615 0.29672 0.0
C1022 C 0.45315 0.4365 0.26818 0.0
C1023 C 0.43932 0.44098 0.26691 0.0
C1024 C 0.42452 0.43301 0.2788 0.0
C1025 C 0.42307 0.4201 0.29204 0.0
C1026 C 0.43692 0.41546 0.29311 0.0
C1027 C 0.45194 0.4237 0.28131 0.0
C1028 C 0.44905 0.42335 0.2274 0.0
C1029 C 0.43572 0.42491 0.21652 0.0
C1030 C 0.41913 0.40822 0.20828 0.0
C1031 C 0.41554 0.38967 0.21092 0.0
C1032 C 0.42889 0.38821 0.22205 0.0
C1033 C 0.44549 0.40492 0.23023 0.0
C1034 C 0.47673 0.44866 0.20238 0.0
C1035 C 0.47204 0.45976 0.19195 0.0
C1036 C 0.46534 0.45404 0.17238 0.0
C1037 C 0.4631 0.43702 0.1629 0.0
C1038 C 0.4687 0.42642 0.17311 0.0
C1039 C 0.47544 0.43219 0.19275 0.0
C1040 C 0.51055 0.48416 0.21924 0.0
C1041 C 0.5114 0.50151 0.21704 0.0
C1042 C 0.52325 0.5141 0.2042 0.0
C1043 C 0.53445 0.50954 0.19327 0.0
C1044 C 0.5338 0.49227 0.19574 0.0
C1045 C 0.52185 0.47962 0.20859 0.0
C1046 C 0.49918 0.48341 0.3482 0.0
C1047 C 0.39798 0.37189 0.20215 0.0
H1048 H 0.52655 0.99825 0.37204 0.0
H1049 H 0.37857 0.98091 0.22502 0.0
H1050 H 0.54016 0.02924 0.27614 0.0
H1051 H 0.56492 0.02569 0.29034 0.0
H1052 H 0.5413 0.97042 0.25554 0.0
H1053 H 0.51659 0.97415 0.24134 0.0
H1054 H 0.50769 0.0222 0.30173 0.0
H1055 H 0.51648 0.01726 0.33386 0.0
H1056 H 0.50531 0.96121 0.31037 0.0
H1057 H 0.49632 0.96624 0.27839 0.0
H1058 H 0.4731 0.02311 0.28324 0.0
H1059 H 0.4511 0.01684 0.30814 0.0
H1060 H 0.43664 0.95736 0.30544 0.0
H1061 H 0.45834 0.96369 0.2801 0.0
H1062 H 0.47201 0.03098 0.23888 0.0
H1063 H 0.44308 0.03019 0.23149 0.0
H1064 H 0.41076 0.96841 0.23621 0.0
H1065 H 0.43982 0.96937 0.24333 0.0
H1066 H 0.50415 0.03736 0.21273 0.0
H1067 H 0.4924 0.04267 0.1824 0.0
H1068 H 0.44772 0.98208 0.17465 0.0
H1069 H 0.45952 0.97695 0.20488 0.0
H1070 H 0.54074 0.03525 0.23369 0.0
H1071 H 0.56172 0.04133 0.20754 0.0
H1072 H 0.51812 0.98863 0.17392 0.0
H1073 H 0.4975 0.98219 0.20035 0.0
O1074 O 0.5228 -0.00019 0.35927 0.0
O1075 O 0.51704 0.97119 0.34642 0.0
O1076 O 0.40749 0.01341 0.22562 0.0
O1077 O 0.39023 0.98165 0.22796 0.0
C1078 C 0.5092 0.00173 0.25333 0.0
C1079 C 0.4968 0.99799 0.26812 0.0
C1080 C 0.4801 0.99756 0.26428 0.0
C1081 C 0.47563 0.00069 0.24563 0.0
C1082 C 0.48785 0.00412 0.23071 0.0
C1083 C 0.50473 0.00473 0.23456 0.0
C1084 C 0.52657 0.0019 0.25782 0.0
C1085 C 0.54068 0.01665 0.27117 0.0
C1086 C 0.55467 0.0145 0.27939 0.0
C1087 C 0.55482 0.99761 0.2743 0.0
C1088 C 0.54155 0.9836 0.25971 0.0
C1089 C 0.52748 0.98573 0.25153 0.0
C1090 C 0.50141 0.99459 0.28777 0.0
C1091 C 0.50702 0.00881 0.30361 0.0
C1092 C 0.51209 0.00598 0.32192 0.0
C1093 C 0.51165 0.98886 0.32467 0.0
C1094 C 0.50584 0.97457 0.30875 0.0
C1095 C 0.50071 0.9774 0.29048 0.0
C1096 C 0.46724 0.99384 0.27987 0.0
C1097 C 0.46519 0.00876 0.28807 0.0
C1098 C 0.45275 0.00518 0.30241 0.0
C1099 C 0.44217 0.98661 0.30881 0.0
C1100 C 0.44446 0.97176 0.30069 0.0
C1101 C 0.4569 0.97536 0.28633 0.0
C1102 C 0.458 0.00024 0.24164 0.0
C1103 C 0.45867 0.0173 0.23829 0.0
C1104 C 0.44212 0.0168 0.23409 0.0
C1105 C 0.42459 0.99922 0.23325 0.0
C1106 C 0.42401 0.98218 0.23675 0.0
C1107 C 0.44057 0.98269 0.24088 0.0
C1108 C 0.48258 0.00681 0.21104 0.0
C1109 C 0.49205 0.02519 0.20425 0.0
C1110 C 0.48533 0.02819 0.18696 0.0
C1111 C 0.46899 0.01284 0.17633 0.0
C1112 C 0.46013 0.99425 0.18273 0.0
C1113 C 0.4669 0.99127 0.1999 0.0
C1114 C 0.51756 0.0083 0.21891 0.0
C1115 C 0.5358 0.02491 0.22077 0.0
C1116 C 0.54772 0.0284 0.20586 0.0
C1117 C 0.54143 0.01551 0.18872 0.0
C1118 C 0.52319 0.9989 0.1869 0.0
C1119 C 0.51143 0.99522 0.20196 0.0
C1120 C 0.5173 0.98601 0.34407 0.0
C1121 C 0.40698 0.9986 0.22872 0.0
H1122 H 0.51222 0.04091 0.7025 0.0
H1123 H 0.59719 0.96691 0.83946 0.0
H1124 H 0.49809 0.03007 0.80317 0.0
H1125 H 0.4743 0.03472 0.78863 0.0
H1126 H 0.43253 0.97383 0.79082 0.0
H1127 H 0.45681 0.96917 0.80433 0.0
H1128 H 0.53046 0.03329 0.78237 0.0
H1129 H 0.52752 0.04193 0.74988 0.0
H1130 H 0.4781 0.98453 0.7349 0.0
H1131 H 0.48134 0.976 0.76737 0.0
H1132 H 0.55887 0.02745 0.80658 0.0
H1133 H 0.58362 0.03456 0.78486 0.0
H1134 H 0.54441 0.98317 0.74634 0.0
H1135 H 0.51988 0.97589 0.76854 0.0
H1136 H 0.55343 0.01489 0.84837 0.0
H1137 H 0.57949 0.01145 0.85832 0.0
H1138 H 0.55677 0.96029 0.81687 0.0
H1139 H 0.53068 0.96377 0.80722 0.0
H1140 H 0.51862 0.01118 0.86852 0.0
H1141 H 0.52476 0.00502 0.90112 0.0
H1142 H 0.51406 0.9492 0.87767 0.0
H1143 H 0.50763 0.95538 0.84503 0.0
H1144 H 0.49116 0.01845 0.847 0.0
H1145 H 0.47112 0.01503 0.8732 0.0
H1146 H 0.44921 0.95344 0.86907 0.0
H1147 H 0.4696 0.95712 0.84303 0.0
O1148 O 0.51319 0.03714 0.71523 0.0
O1149 O 0.48782 0.00746 0.70828 0.0
O1150 O 0.59808 0.99493 0.85697 0.0
O1151 O 0.58704 0.96861 0.83581 0.0
C1152 C 0.49436 0.99604 0.8103 0.0
C1153 C 0.50781 0.99884 0.79701 0.0
C1154 C 0.52285 0.99683 0.8026 0.0
C1155 C 0.52422 0.99152 0.82128 0.0
C1156 C 0.51059 0.98836 0.83445 0.0
C1157 C 0.49565 0.99064 0.82896 0.0
C1158 C 0.47921 -0.00075 0.80458 0.0
C1159 C 0.48375 0.01779 0.80065 0.0
C1160 C 0.47007 0.02043 0.79247 0.0
C1161 C 0.45147 0.00461 0.78835 0.0
C1162 C 0.44678 0.98625 0.79339 0.0
C1163 C 0.46056 0.98358 0.80135 0.0
C1164 C 0.50616 0.004 0.77717 0.0
C1165 C 0.5191 0.02256 0.77199 0.0
C1166 C 0.51734 0.02748 0.75345 0.0
C1167 C 0.50257 0.01392 0.73979 0.0
C1168 C 0.48964 0.99532 0.74507 0.0
C1169 C 0.49144 0.9904 0.76359 0.0
C1170 C 0.53766 0.0011 0.78917 0.0
C1171 C 0.55568 0.01772 0.79347 0.0
C1172 C 0.56972 0.02185 0.78094 0.0
C1173 C 0.56596 0.00946 0.76384 0.0
C1174 C 0.54779 0.9929 0.75949 0.0
C1175 C 0.53376 0.98875 0.77208 0.0
C1176 C 0.54015 0.98954 0.82713 0.0
C1177 C 0.55408 0.00291 0.84152 0.0
C1178 C 0.56896 0.00093 0.84714 0.0
C1179 C 0.5702 0.98557 0.8384 0.0
C1180 C 0.55624 0.97227 0.8239 0.0
C1181 C 0.54134 0.97424 0.81833 0.0
C1182 C 0.51265 0.98372 0.85442 0.0
C1183 C 0.5172 0.99745 0.87048 0.0
C1184 C 0.52068 0.99388 0.88909 0.0
C1185 C 0.51988 0.97661 0.89193 0.0
C1186 C 0.51489 0.96267 0.87587 0.0
C1187 C 0.51119 0.96616 0.85727 0.0
C1188 C 0.48182 0.98804 0.84314 0.0
C1189 C 0.48178 0.00417 0.85153 0.0
C1190 C 0.47028 0.00216 0.86647 0.0
C1191 C 0.4586 0.98396 0.87329 0.0
C1192 C 0.45824 0.9677 0.86435 0.0
C1193 C 0.46975 0.96973 0.84941 0.0
C1194 C 0.50069 0.01923 0.72014 0.0
C1195 C 0.58597 0.98339 0.84434 0.0
H1196 H 0.96946 0.47472 0.71515 0.0
H1197 H 0.03473 0.63779 0.87706 0.0
H1198 H 0.9749 0.47027 0.81831 0.0
H1199 H 0.96806 0.43893 0.80321 0.0
H1200 H 0.02582 0.45705 0.81624 0.0
H1201 H 0.0327 0.48871 0.83107 0.0
H1202 H 0.97394 0.49971 0.79783 0.0
H1203 H 0.96679 0.48826 0.76306 0.0
H1204 H 0.02251 0.49882 0.75985 0.0
H1205 H 0.02955 0.51047 0.79461 0.0
H1206 H 0.97772 0.53294 0.8267 0.0
H1207 H 0.96902 0.54945 0.80475 0.0
H1208 H 0.01914 0.56698 0.77497 0.0
H1209 H 0.02805 0.55087 0.79756 0.0
H1210 H 0.98862 0.54099 0.86921 0.0
H1211 H 0.99124 0.57116 0.88194 0.0
H1212 H 0.04252 0.60404 0.85365 0.0
H1213 H 0.03988 0.57375 0.84127 0.0
H1214 H 0.99065 0.5086 0.88743 0.0
H1215 H 0.99217 0.52281 0.92038 0.0
H1216 H 0.0473 0.57203 0.91281 0.0
H1217 H 0.04592 0.55732 0.8801 0.0
H1218 H 0.98478 0.47248 0.86167 0.0
H1219 H 0.98648 0.45161 0.88393 0.0
H1220 H 0.04522 0.49499 0.89903 0.0
H1221 H 0.04354 0.51538 0.87581 0.0
O1222 O 0.97264 0.47944 0.72887 0.0
O1223 O 0.00142 0.48507 0.72801 0.0
O1224 O 0.00704 0.60807 0.88665 0.0
O1225 O 0.03336 0.62564 0.87224 0.0
C1226 C 0.00851 0.50133 0.83296 0.0
C1227 C 0.0066 0.5128 0.81988 0.0
C1228 C 0.0083 0.53033 0.82702 0.0
C1229 C 0.01274 0.53688 0.84708 0.0
C1230 C 0.0152 0.5257 0.86013 0.0
C1231 C 0.0129 0.5078 0.85311 0.0
C1232 C 0.00434 0.48182 0.82553 0.0
C1233 C 0.98608 0.46748 0.81791 0.0
C1234 C 0.98221 0.44964 0.80929 0.0
C1235 C 0.99647 0.44571 0.8084 0.0
C1236 C 0.0146 0.45976 0.81679 0.0
C1237 C 0.01854 0.47778 0.82522 0.0
C1238 C 0.00232 0.50609 0.79868 0.0
C1239 C 0.98463 0.49972 0.78955 0.0
C1240 C 0.98056 0.4931 0.7697 0.0
C1241 C 0.99409 0.49265 0.75866 0.0
C1242 C 0.01179 0.49901 0.76791 0.0
C1243 C 0.01585 0.50567 0.78775 0.0
C1244 C 0.00356 0.54086 0.81378 0.0
C1245 C 0.9869 0.54051 0.81554 0.0
C1246 C 0.98185 0.54974 0.80284 0.0
C1247 C 0.99333 0.55941 0.78803 0.0
C1248 C 0.01009 0.55979 0.78634 0.0
C1249 C 0.01517 0.55057 0.79914 0.0
C1250 C 0.01416 0.55521 0.85448 0.0
C1251 C 0.00047 0.55473 0.86588 0.0
C1252 C 0.00197 0.57198 0.87308 0.0
C1253 C 0.01713 0.59003 0.86884 0.0
C1254 C 0.0307 0.59041 0.85722 0.0
C1255 C 0.02922 0.57314 0.8501 0.0
C1256 C 0.01814 0.53198 0.88136 0.0
C1257 C 0.00334 0.52208 0.89317 0.0
C1258 C 0.00414 0.53035 0.91188 0.0
C1259 C 0.0197 0.54872 0.91904 0.0
C1260 C 0.03515 0.55784 0.90776 0.0
C1261 C 0.03438 0.54949 0.88906 0.0
C1262 C 0.01407 0.49536 0.86697 0.0
C1263 C 0.99806 0.47739 0.86963 0.0
C1264 C 0.99903 0.46559 0.88257 0.0
C1265 C 0.01598 0.47165 0.8934 0.0
C1266 C 0.03201 0.48976 0.89077 0.0
C1267 C 0.03105 0.5015 0.87764 0.0
C1268 C 0.98968 0.48551 0.7376 0.0
C1269 C 0.0188 0.6084 0.87648 0.0
H1270 H 0.49249 0.50889 0.69758 0.0
H1271 H 0.64064 0.63721 0.86167 0.0
H1272 H 0.47507 0.51937 0.79736 0.0
H1273 H 0.44757 0.48863 0.78265 0.0
H1274 H 0.4674 0.4571 0.81187 0.0
H1275 H 0.49471 0.48777 0.82644 0.0
H1276 H 0.51189 0.55003 0.77604 0.0
H1277 H 0.50368 0.53745 0.74153 0.0
H1278 H 0.50544 0.48737 0.75413 0.0
H1279 H 0.51386 0.50023 0.78855 0.0
H1280 H 0.55069 0.58328 0.79427 0.0
H1281 H 0.57671 0.59612 0.77298 0.0
H1282 H 0.58047 0.54594 0.77822 0.0
H1283 H 0.55444 0.53314 0.7992 0.0
H1284 H 0.5479 0.59319 0.84423 0.0
H1285 H 0.57838 0.62252 0.85509 0.0
H1286 H 0.60512 0.59024 0.84485 0.0
H1287 H 0.57455 0.56099 0.83426 0.0
H1288 H 0.51427 0.56358 0.87192 0.0
H1289 H 0.52278 0.57152 0.90723 0.0
H1290 H 0.56204 0.55313 0.90157 0.0
H1291 H 0.55319 0.54489 0.86663 0.0
H1292 H 0.47598 0.52666 0.8465 0.0
H1293 H 0.45486 0.50818 0.87107 0.0
H1294 H 0.49329 0.49154 0.88938 0.0
H1295 H 0.51414 0.50992 0.86493 0.0
O1296 O 0.49588 0.51366 0.71126 0.0
O1297 O 0.49689 0.48816 0.71852 0.0
O1298 O 0.61397 0.64175 0.86259 0.0
O1299 O 0.62842 0.62583 0.85747 0.0
C1300 C 0.5048 0.52412 0.81949 0.0
C1301 C 0.51798 0.53357 0.80573 0.0
C1302 C 0.53594 0.54985 0.81197 0.0
C1303 C 0.54048 0.55734 0.83181 0.0
C1304 C 0.52743 0.54775 0.84562 0.0
C1305 C 0.50963 0.53102 0.83948 0.0
C1306 C 0.4868 0.50576 0.81303 0.0
C1307 C 0.47323 0.50578 0.80085 0.0
C1308 C 0.45764 0.48826 0.79238 0.0
C1309 C 0.45538 0.47046 0.79605 0.0
C1310 C 0.4686 0.47054 0.80897 0.0
C1311 C 0.4842 0.48804 0.81733 0.0
C1312 C 0.51331 0.52597 0.78477 0.0
C1313 C 0.51054 0.53637 0.77128 0.0
C1314 C 0.50583 0.52914 0.7516 0.0
C1315 C 0.50383 0.51136 0.74508 0.0
C1316 C 0.5068 0.50106 0.75867 0.0
C1317 C 0.51156 0.50835 0.77833 0.0
C1318 C 0.55077 0.55733 0.79821 0.0
C1319 C 0.55704 0.57502 0.7906 0.0
C1320 C 0.57179 0.58226 0.77847 0.0
C1321 C 0.58056 0.572 0.77407 0.0
C1322 C 0.57401 0.55415 0.78152 0.0
C1323 C 0.55915 0.54682 0.79338 0.0
C1324 C 0.55906 0.57505 0.83826 0.0
C1325 C 0.56037 0.59251 0.84433 0.0
C1326 C 0.57779 0.60923 0.85052 0.0
C1327 C 0.59421 0.60874 0.85077 0.0
C1328 C 0.59279 0.59115 0.84476 0.0
C1329 C 0.57535 0.57444 0.83862 0.0
C1330 C 0.53324 0.55382 0.86674 0.0
C1331 C 0.52478 0.5614 0.87837 0.0
C1332 C 0.52967 0.56594 0.89847 0.0
C1333 C 0.54298 0.56281 0.90717 0.0
C1334 C 0.55153 0.55541 0.89536 0.0
C1335 C 0.54668 0.55094 0.87536 0.0
C1336 C 0.49667 0.51981 0.85414 0.0
C1337 C 0.47977 0.51902 0.85587 0.0
C1338 C 0.46775 0.50844 0.86984 0.0
C1339 C 0.47253 0.4986 0.88229 0.0
C1340 C 0.4894 0.49931 0.88031 0.0
C1341 C 0.50131 0.50975 0.86633 0.0
C1342 C 0.49867 0.50364 0.72418 0.0
C1343 C 0.61275 0.62647 0.85731 0.0
H1344 H 0.62846 0.83645 0.69369 0.0
H1345 H 0.65636 0.70904 0.54684 0.0
H1346 H 0.61011 0.82903 0.59164 0.0
H1347 H 0.61707 0.86143 0.60367 0.0
H1348 H 0.66984 0.88747 0.57733 0.0
H1349 H 0.66294 0.85526 0.56569 0.0
H1350 H 0.61014 0.79481 0.61557 0.0
H1351 H 0.61276 0.80765 0.6495 0.0
H1352 H 0.66742 0.85749 0.64155 0.0
H1353 H 0.66474 0.84435 0.60776 0.0
H1354 H 0.6153 0.75806 0.59672 0.0
H1355 H 0.62681 0.74302 0.61755 0.0
H1356 H 0.68019 0.79762 0.62822 0.0
H1357 H 0.66896 0.81206 0.6064 0.0
H1358 H 0.60613 0.75034 0.54988 0.0
H1359 H 0.6079 0.72165 0.54212 0.0
H1360 H 0.66704 0.75553 0.56118 0.0
H1361 H 0.66511 0.78414 0.56863 0.0
H1362 H 0.60347 0.77655 0.52076 0.0
H1363 H 0.60495 0.76486 0.48734 0.0
H1364 H 0.66432 0.78934 0.49936 0.0
H1365 H 0.6627 0.80084 0.53249 0.0
H1366 H 0.60389 0.81842 0.54236 0.0
H1367 H 0.60366 0.83729 0.51637 0.0
H1368 H 0.65903 0.85128 0.5035 0.0
H1369 H 0.65922 0.83272 0.52946 0.0
O1370 O 0.62776 0.83159 0.68027 0.0
O1371 O 0.65574 0.85699 0.67538 0.0
O1372 O 0.62487 0.70343 0.5399 0.0
O1373 O 0.65528 0.72017 0.54969 0.0
C1374 C 0.63353 0.82052 0.57318 0.0
C1375 C 0.63531 0.8109 0.58852 0.0
C1376 C 0.63601 0.79415 0.58423 0.0
C1377 C 0.63425 0.78658 0.56463 0.0
C1378 C 0.6323 0.79608 0.54935 0.0
C1379 C 0.63196 0.81307 0.55358 0.0
C1380 C 0.63598 0.83982 0.57771 0.0
C1381 C 0.62298 0.84178 0.58817 0.0
C1382 C 0.62701 0.86023 0.59509 0.0
C1383 C 0.64401 0.87695 0.59145 0.0
C1384 C 0.65652 0.87489 0.58012 0.0
C1385 C 0.65258 0.85649 0.57342 0.0
C1386 C 0.63715 0.81874 0.60916 0.0
C1387 C 0.62268 0.80848 0.62121 0.0
C1388 C 0.6242 0.81586 0.64057 0.0
C1389 C 0.64027 0.83364 0.64822 0.0
C1390 C 0.65483 0.8438 0.63611 0.0
C1391 C 0.6533 0.83637 0.61678 0.0
C1392 C 0.64131 0.78611 0.59997 0.0
C1393 C 0.62935 0.76681 0.60385 0.0
C1394 C 0.63595 0.7583 0.61586 0.0
C1395 C 0.65454 0.76906 0.62437 0.0
C1396 C 0.66595 0.7888 0.62157 0.0
C1397 C 0.65946 0.79719 0.60934 0.0
C1398 C 0.63544 0.76924 0.55995 0.0
C1399 C 0.61944 0.75152 0.55233 0.0
C1400 C 0.6205 0.73517 0.54794 0.0
C1401 C 0.63761 0.73629 0.55109 0.0
C1402 C 0.65364 0.75415 0.55863 0.0
C1403 C 0.65257 0.77049 0.56295 0.0
C1404 C 0.63297 0.7895 0.52896 0.0
C1405 C 0.61676 0.77942 0.51606 0.0
C1406 C 0.61762 0.77273 0.49708 0.0
C1407 C 0.63477 0.7763 0.49077 0.0
C1408 C 0.65098 0.78662 0.50373 0.0
C1409 C 0.65006 0.79308 0.52267 0.0
C1410 C 0.63142 0.8239 0.53752 0.0
C1411 C 0.61588 0.82548 0.5338 0.0
C1412 C 0.6158 0.83629 0.51905 0.0
C1413 C 0.63123 0.84555 0.50777 0.0
C1414 C 0.64676 0.84394 0.51164 0.0
C1415 C 0.64689 0.83332 0.52643 0.0
C1416 C 0.64179 0.8415 0.66875 0.0
C1417 C 0.63879 0.71894 0.54653 0.0
H1418 H 0.14749 0.82706 0.70524 0.0
H1419 H 0.05615 0.68059 0.52723 0.0
H1420 H 0.16588 0.84305 0.60576 0.0
H1421 H 0.1913 0.87395 0.62245 0.0
H1422 H 0.23083 0.85717 0.60982 0.0
H1423 H 0.20508 0.82574 0.5937 0.0
H1424 H 0.13298 0.81276 0.62041 0.0
H1425 H 0.13502 0.82006 0.65574 0.0
H1426 H 0.17782 0.80655 0.66244 0.0
H1427 H 0.17546 0.79906 0.62709 0.0
H1428 H 0.10502 0.7845 0.58444 0.0
H1429 H 0.07696 0.76893 0.60222 0.0
H1430 H 0.1014 0.74484 0.63712 0.0
H1431 H 0.12963 0.76056 0.61908 0.0
H1432 H 0.10947 0.77726 0.54413 0.0
H1433 H 0.08201 0.74803 0.52719 0.0
H1434 H 0.09663 0.71248 0.55681 0.0
H1435 H 0.12419 0.74185 0.57346 0.0
H1436 H 0.14622 0.81224 0.53316 0.0
H1437 H 0.13782 0.80347 0.49821 0.0
H1438 H 0.14215 0.75337 0.5017 0.0
H1439 H 0.1505 0.76229 0.53688 0.0
H1440 H 0.17559 0.84458 0.56125 0.0
H1441 H 0.19908 0.86626 0.54029 0.0
H1442 H 0.21511 0.82454 0.52845 0.0
H1443 H 0.19176 0.80306 0.54976 0.0
O1444 O 0.14686 0.82404 0.69131 0.0
O1445 O 0.16889 0.81704 0.69395 0.0
O1446 O 0.06005 0.71132 0.51882 0.0
O1447 O 0.06689 0.69239 0.53374 0.0
C1448 C 0.16782 0.8132 0.58901 0.0
C1449 C 0.15275 0.8007 0.59976 0.0
C1450 C 0.13653 0.78417 0.59004 0.0
C1451 C 0.13584 0.77939 0.56984 0.0
C1452 C 0.15099 0.7917 0.55911 0.0
C1453 C 0.16692 0.80869 0.56867 0.0
C1454 C 0.18357 0.83201 0.59879 0.0
C1455 C 0.17996 0.84588 0.60685 0.0
C1456 C 0.19446 0.86351 0.61631 0.0
C1457 C 0.21293 0.8678 0.61752 0.0
C1458 C 0.21667 0.85413 0.60906 0.0
C1459 C 0.20203 0.83625 0.59989 0.0
C1460 C 0.15393 0.80517 0.62122 0.0
C1461 C 0.14266 0.81122 0.62955 0.0
C1462 C 0.14392 0.81546 0.64973 0.0
C1463 C 0.15655 0.81385 0.66193 0.0
C1464 C 0.16791 0.80791 0.65348 0.0
C1465 C 0.16661 0.80362 0.6333 0.0
C1466 C 0.11926 0.77351 0.60037 0.0
C1467 C 0.1042 0.77561 0.59572 0.0
C1468 C 0.08819 0.76671 0.60589 0.0
C1469 C 0.08696 0.75562 0.62102 0.0
C1470 C 0.10204 0.75343 0.62562 0.0
C1471 C 0.11808 0.76227 0.6153 0.0
C1472 C 0.11892 0.76166 0.55985 0.0
C1473 C 0.10677 0.76315 0.54684 0.0
C1474 C 0.09107 0.74643 0.53724 0.0
C1475 C 0.08715 0.72791 0.5406 0.0
C1476 C 0.09925 0.72651 0.55384 0.0
C1477 C 0.11499 0.74325 0.56339 0.0
C1478 C 0.14902 0.78793 0.53753 0.0
C1479 C 0.14589 0.79968 0.52629 0.0
C1480 C 0.14109 0.79464 0.5063 0.0
C1481 C 0.13924 0.77767 0.49717 0.0
C1482 C 0.14326 0.7664 0.50835 0.0
C1483 C 0.14814 0.77153 0.52838 0.0
C1484 C 0.18206 0.82232 0.55706 0.0
C1485 C 0.18438 0.84027 0.55435 0.0
C1486 C 0.19766 0.85253 0.54226 0.0
C1487 C 0.20886 0.84704 0.53267 0.0
C1488 C 0.20681 0.82923 0.5358 0.0
C1489 C 0.19345 0.81693 0.54786 0.0
C1490 C 0.15787 0.81838 0.68336 0.0
C1491 C 0.07054 0.7101 0.53037 0.0
H1492 H 0.21662 0.37166 0.7168 0.0
H1493 H 0.06284 0.34916 0.57585 0.0
H1494 H 0.22514 0.39053 0.61798 0.0
H1495 H 0.24863 0.38404 0.63009 0.0
H1496 H 0.2184 0.32766 0.5965 0.0
H1497 H 0.19497 0.33421 0.58458 0.0
H1498 H 0.1936 0.38965 0.64481 0.0
H1499 H 0.20426 0.38737 0.67727 0.0
H1500 H 0.19217 0.33 0.65788 0.0
H1501 H 0.18127 0.33235 0.6256 0.0
H1502 H 0.15399 0.38612 0.62858 0.0
H1503 H 0.1296 0.37663 0.65135 0.0
H1504 H 0.12181 0.31976 0.64949 0.0
H1505 H 0.1454 0.32905 0.62598 0.0
H1506 H 0.15629 0.39569 0.58324 0.0
H1507 H 0.12779 0.39612 0.57735 0.0
H1508 H 0.09413 0.33512 0.58549 0.0
H1509 H 0.12273 0.33485 0.59114 0.0
H1510 H 0.18544 0.39712 0.55342 0.0
H1511 H 0.17426 0.39807 0.52052 0.0
H1512 H 0.1282 0.33851 0.52031 0.0
H1513 H 0.13965 0.33762 0.55286 0.0
H1514 H 0.22095 0.39426 0.56943 0.0
H1515 H 0.23647 0.39432 0.53984 0.0
H1516 H 0.18935 0.33676 0.51985 0.0
H1517 H 0.17408 0.33682 0.54934 0.0
O1518 O 0.21214 0.37216 0.70393 0.0
O1519 O 0.20589 0.34282 0.69317 0.0
O1520 O 0.09227 0.38072 0.57397 0.0
O1521 O 0.07433 0.34939 0.57811 0.0
C1522 C 0.1919 0.36457 0.59722 0.0
C1523 C 0.18098 0.36305 0.61298 0.0
C1524 C 0.1643 0.36288 0.60984 0.0
C1525 C 0.15894 0.36512 0.59113 0.0
C1526 C 0.16982 0.36663 0.57541 0.0
C1527 C 0.18612 0.366 0.57837 0.0
C1528 C 0.20835 0.36282 0.60046 0.0
C1529 C 0.22392 0.37702 0.61281 0.0
C1530 C 0.23719 0.37322 0.61984 0.0
C1531 C 0.23518 0.35523 0.61445 0.0
C1532 C 0.22037 0.34168 0.60083 0.0
C1533 C 0.20703 0.34543 0.59393 0.0
C1534 C 0.18682 0.36125 0.63283 0.0
C1535 C 0.19318 0.37657 0.64765 0.0
C1536 C 0.1993 0.37525 0.66615 0.0
C1537 C 0.19915 0.35854 0.67015 0.0
C1538 C 0.19253 0.3431 0.65528 0.0
C1539 C 0.18635 0.34442 0.63682 0.0
C1540 C 0.15141 0.35826 0.62559 0.0
C1541 C 0.1471 0.37169 0.63326 0.0
C1542 C 0.13326 0.36627 0.64637 0.0
C1543 C 0.12364 0.34737 0.65216 0.0
C1544 C 0.12868 0.3343 0.64509 0.0
C1545 C 0.14233 0.33965 0.63184 0.0
C1546 C 0.14156 0.36528 0.58774 0.0
C1547 C 0.14274 0.38244 0.58374 0.0
C1548 C 0.12645 0.38264 0.58039 0.0
C1549 C 0.10867 0.36565 0.58099 0.0
C1550 C 0.10758 0.34846 0.58497 0.0
C1551 C 0.12389 0.34828 0.58825 0.0
C1552 C 0.16327 0.36734 0.5555 0.0
C1553 C 0.17298 0.3843 0.54617 0.0
C1554 C 0.16654 0.38483 0.52748 0.0
C1555 C 0.15038 0.36835 0.51783 0.0
C1556 C 0.14083 0.35136 0.52723 0.0
C1557 C 0.14723 0.35086 0.54588 0.0
C1558 C 0.19634 0.36561 0.5614 0.0
C1559 C 0.21412 0.38163 0.55871 0.0
C1560 C 0.22293 0.38163 0.54185 0.0
C1561 C 0.214 0.36564 0.52743 0.0
C1562 C 0.19641 0.34944 0.5305 0.0
C1563 C 0.18771 0.3494 0.54736 0.0
C1564 C 0.2059 0.35729 0.68974 0.0
C1565 C 0.09132 0.36579 0.57747 0.0
H1566 H 0.97965 0.40612 0.0353 0.0
H1567 H 0.99622 0.37883 0.07556 0.0
H1568 H 0.97188 0.42076 0.06252 0.0
H1569 H 0.98883 0.39371 0.10267 0.0
H1570 H 0.96172 0.41099 0.14717 0.0
H1571 H 0.96327 0.39347 0.11794 0.0
H1572 H 0.98907 0.44617 0.08962 0.0
H1573 H 0.98677 0.46354 0.11863 0.0
C1574 C 0.98154 0.40316 0.04992 0.0
C1575 C 0.98863 0.39138 0.05327 0.0
C1576 C 0.97718 0.41163 0.06552 0.0
C1577 C 0.97975 0.40843 0.08476 0.0
C1578 C 0.98641 0.39626 0.08802 0.0
C1579 C 0.99079 0.38783 0.07246 0.0
C1580 C 0.96724 0.41874 0.13454 0.0
C1581 C 0.97415 0.43869 0.13524 0.0
C1582 C 0.96837 0.40874 0.11787 0.0
C1583 C 0.97648 0.41846 0.10153 0.0
C1584 C 0.98263 0.43821 0.10191 0.0
C1585 C 0.98148 0.44822 0.11859 0.0
H1586 H 0.61389 0.57286 0.10755 0.0
H1587 H 0.5893 0.60597 0.12485 0.0
H1588 H 0.5951 0.54909 0.12987 0.0
H1589 H 0.57095 0.58258 0.14728 0.0
H1590 H 0.52473 0.52659 0.16707 0.0
H1591 H 0.54443 0.54935 0.14467 0.0
H1592 H 0.59083 0.5449 0.16477 0.0
H1593 H 0.57093 0.52187 0.1872 0.0
C1594 C 0.60462 0.57516 0.11623 0.0
C1595 C 0.60297 0.59121 0.11432 0.0
C1596 C 0.59392 0.56159 0.12905 0.0
C1597 C 0.58139 0.56385 0.14018 0.0
C1598 C 0.58017 0.58019 0.13861 0.0
C1599 C 0.59079 0.59367 0.12581 0.0
C1600 C 0.53916 0.53053 0.16678 0.0
C1601 C 0.54636 0.52264 0.17904 0.0
C1602 C 0.55046 0.54359 0.15396 0.0
C1603 C 0.56926 0.54913 0.15313 0.0
C1604 C 0.57636 0.54083 0.16501 0.0
C1605 C 0.56499 0.52768 0.17784 0.0
H1606 H 0.43281 0.01955 0.06 0.0
H1607 H 0.39846 0.03035 0.09742 0.0
H1608 H 0.45036 0.0194 0.08863 0.0
H1609 H 0.41618 0.03047 0.12597 0.0
H1610 H 0.4322 -8e-05 0.16838 0.0
H1611 H 0.41769 0.00475 0.14027 0.0
H1612 H 0.47196 0.03905 0.11788 0.0
H1613 H 0.48651 0.03377 0.14598 0.0
C1614 C 0.4292 0.02221 0.07432 0.0
C1615 C 0.41409 0.02475 0.07643 0.0
C1616 C 0.43932 0.02221 0.09072 0.0
C1617 C 0.43452 0.0247 0.10955 0.0
C1618 C 0.42 0.02816 0.11164 0.0
C1619 C 0.40991 0.0282 0.09527 0.0
C1620 C 0.44104 0.00839 0.1574 0.0
C1621 C 0.46047 0.01631 0.15928 0.0
C1622 C 0.43276 0.01138 0.14142 0.0
C1623 C 0.44369 0.02237 0.12689 0.0
C1624 C 0.46317 0.03044 0.1288 0.0
C1625 C 0.4715 0.02752 0.14491 0.0
H1626 H 0.38649 0.98717 0.95994 0.0
H1627 H 0.4317 0.98801 0.992 0.0
H1628 H 0.39773 0.98202 0.92939 0.0
H1629 H 0.44323 0.9834 0.96148 0.0
H1630 H 0.45348 0.96265 0.90388 0.0
H1631 H 0.43747 0.96162 0.93298 0.0
H1632 H 0.42401 0.00129 0.91093 0.0
H1633 H 0.4392 0.00155 0.88143 0.0
C1634 C 0.39876 0.98614 0.96048 0.0
C1635 C 0.40828 0.98815 0.97841 0.0
C1636 C 0.40527 0.9833 0.94295 0.0
C1637 C 0.42148 0.98248 0.94295 0.0
C1638 C 0.43058 0.98376 0.96092 0.0
C1639 C 0.42403 0.98651 0.97844 0.0
C1640 C 0.44674 0.97081 0.90504 0.0
C1641 C 0.44767 0.98223 0.89034 0.0
C1642 C 0.43776 0.97041 0.92185 0.0
C1643 C 0.42955 0.98146 0.92437 0.0
C1644 C 0.43001 0.99243 0.9094 0.0
C1645 C 0.43893 0.99279 0.89258 0.0
H1646 H 0.98588 0.37195 0.95299 0.0
H1647 H 0.04041 0.41447 0.982 0.0
H1648 H 0.98885 0.39549 0.93152 0.0
H1649 H 0.04336 0.43813 0.96015 0.0
H1650 H 0.04436 0.46528 0.901 0.0
H1651 H 0.04457 0.44309 0.9228 0.0
H1652 H 0.98947 0.42707 0.93879 0.0
H1653 H 0.98942 0.44954 0.91766 0.0
C1654 C 0.99861 0.38626 0.95468 0.0
C1655 C 0.01285 0.39138 0.96935 0.0
C1656 C 0.00024 0.39976 0.94241 0.0
C1657 C 0.01621 0.41867 0.94436 0.0
C1658 C 0.0309 0.42362 0.95838 0.0
C1659 C 0.02918 0.4101 0.97087 0.0
C1660 C 0.03243 0.45727 0.90941 0.0
C1661 C 0.01676 0.45903 0.90737 0.0
C1662 C 0.03255 0.44454 0.92183 0.0
C1663 C 0.01694 0.43322 0.93225 0.0
C1664 C 0.00154 0.43537 0.93062 0.0
C1665 C 0.00149 0.44819 0.91843 0.0
H1666 H 0.57038 0.56367 0.03048 0.0
H1667 H 0.60792 0.62181 0.01521 0.0
H1668 H 0.55285 0.5548 0.99874 0.0
H1669 H 0.59069 0.61282 0.9834 0.0
H1670 H 0.55017 0.59488 0.93077 0.0
H1671 H 0.56144 0.6033 0.96527 0.0
H1672 H 0.55932 0.54932 0.9658 0.0
H1673 H 0.54745 0.54067 0.93167 0.0
C1674 C 0.57481 0.5746 0.02043 0.0
C1675 C 0.59067 0.59338 0.0253 0.0
C1676 C 0.56481 0.56949 0.00221 0.0
C1677 C 0.57046 0.58305 0.98847 0.0
C1678 C 0.58583 0.60207 0.9937 0.0
C1679 C 0.5958 0.60719 0.01191 0.0
C1680 C 0.55177 0.58468 0.9384 0.0
C1681 C 0.54814 0.56722 0.92848 0.0
C1682 C 0.55838 0.58956 0.9581 0.0
C1683 C 0.56141 0.57705 0.96826 0.0
C1684 C 0.557 0.55922 0.9585 0.0
C1685 C 0.55042 0.55437 0.93886 0.0
H1686 H 0.99845 0.62122 0.99686 0.0
H1687 H 0.02724 0.60418 0.03535 0.0
H1688 H 0.00247 0.60387 0.96919 0.0
H1689 H 0.03098 0.58649 0.00757 0.0
H1690 H 0.0475 0.5709 0.94846 0.0
H1691 H 0.0464 0.59027 0.97664 0.0
H1692 H 0.98886 0.56956 0.95824 0.0
H1693 H 0.99013 0.55086 0.92997 0.0
C1694 C 0.00574 0.61386 0.99942 0.0
C1695 C 0.01238 0.61394 0.01834 0.0
C1696 C 0.00794 0.60381 0.98357 0.0
C1697 C 0.01681 0.59358 0.98625 0.0
C1698 C 0.02414 0.5943 0.00505 0.0
C1699 C 0.02194 0.60437 0.02095 0.0
C1700 C 0.03464 0.57051 0.9505 0.0
C1701 C 0.01888 0.55926 0.93705 0.0
C1702 C 0.03398 0.58149 0.96666 0.0
C1703 C 0.01759 0.58156 0.96956 0.0
C1704 C 0.00178 0.57006 0.95626 0.0
C1705 C 0.00242 0.55909 0.94021 0.0
H1706 H 0.38262 0.42818 0.95667 0.0
H1707 H 0.42722 0.41791 0.96697 0.0
H1708 H 0.40156 0.45207 0.93444 0.0
H1709 H 0.44589 0.44146 0.9448 0.0
H1710 H 0.48242 0.49787 0.91999 0.0
H1711 H 0.46247 0.47682 0.9435 0.0
H1712 H 0.41426 0.45272 0.90185 0.0
H1713 H 0.43431 0.47381 0.87821 0.0
C1714 C 0.39643 0.43102 0.95421 0.0
C1715 C 0.40343 0.42118 0.9636 0.0
C1716 C 0.40722 0.44462 0.94144 0.0
C1717 C 0.42525 0.44872 0.938 0.0
C1718 C 0.43218 0.43886 0.94741 0.0
C1719 C 0.4214 0.42524 0.96002 0.0
C1720 C 0.46756 0.4881 0.91586 0.0
C1721 C 0.45997 0.48729 0.89717 0.0
C1722 C 0.45614 0.47607 0.92932 0.0
C1723 C 0.43685 0.46295 0.92442 0.0
C1724 C 0.42907 0.46277 0.90606 0.0
C1725 C 0.44053 0.47483 0.89254 0.0
H1726 H 0.57137 0.95794 0.99313 0.0
H1727 H 0.5723 0.01095 0.00674 0.0
H1728 H 0.55139 0.95066 0.96333 0.0
H1729 H 0.55285 0.00396 0.97697 0.0
H1730 H 0.50974 0.98348 0.92741 0.0
H1731 H 0.52253 0.98329 0.95951 0.0
H1732 H 0.5562 0.9641 0.93228 0.0
H1733 H 0.5432 0.96404 0.90029 0.0
C1734 C 0.56714 0.96791 0.98989 0.0
C1735 C 0.57355 0.98511 0.00222 0.0
C1736 C 0.55579 0.9638 0.97277 0.0
C1737 C 0.55059 0.97677 0.9677 0.0
C1738 C 0.55636 0.99351 0.98051 0.0
C1739 C 0.56767 0.99761 0.99755 0.0
C1740 C 0.51971 0.97901 0.92834 0.0
C1741 C 0.52559 0.97394 0.91136 0.0
C1742 C 0.52706 0.97892 0.9467 0.0
C1743 C 0.54055 0.97388 0.94847 0.0
C1744 C 0.54568 0.96784 0.93148 0.0
C1745 C 0.53825 0.96783 0.91312 0.0
H1746 H 0.6057 0.99858 0.10593 0.0
H1747 H 0.60104 0.0436 0.08266 0.0
H1748 H 0.59089 0.00117 0.13484 0.0
H1749 H 0.58587 0.04592 0.11157 0.0
H1750 H 0.5337 0.0163 0.15041 0.0
H1751 H 0.55329 0.02009 0.12354 0.0
H1752 H 0.59649 0.0264 0.16421 0.0
H1753 H 0.57695 0.02285 0.19114 0.0
C1754 C 0.60168 0.00917 0.1071 0.0
C1755 C 0.60443 0.02083 0.09202 0.0
C1756 C 0.59331 0.01072 0.12369 0.0
C1757 C 0.58723 0.02371 0.12536 0.0
C1758 C 0.59041 0.03575 0.11055 0.0
C1759 C 0.59914 0.03448 0.09409 0.0
C1760 C 0.54746 0.01869 0.15357 0.0
C1761 C 0.55383 0.01921 0.17276 0.0
C1762 C 0.5587 0.02101 0.13828 0.0
C1763 C 0.57637 0.02354 0.14186 0.0
C1764 C 0.5829 0.02444 0.1611 0.0
C1765 C 0.57179 0.02248 0.17646 0.0
H1766 H 0.9595 0.58729 0.09169 0.0
H1767 H 0.01647 0.62614 0.11691 0.0
H1768 H 0.95576 0.56288 0.11292 0.0
H1769 H 0.0127 0.60189 0.13779 0.0
H1770 H 0.00796 0.54629 0.1518 0.0
H1771 H 0.00847 0.56869 0.13016 0.0
H1772 H 0.95633 0.55852 0.15022 0.0
H1773 H 0.95597 0.5363 0.17239 0.0
C1774 C 0.97113 0.59068 0.10183 0.0
C1775 C 0.98832 0.6086 0.10252 0.0
C1776 C 0.96897 0.57675 0.11397 0.0
C1777 C 0.98403 0.58046 0.12677 0.0
C1778 C 0.00097 0.59855 0.12781 0.0
C1779 C 0.00307 0.61248 0.1159 0.0
C1780 C 0.99663 0.54887 0.15172 0.0
C1781 C 0.9821 0.53977 0.16409 0.0
C1782 C 0.9969 0.56164 0.13926 0.0
C1783 C 0.98257 0.5655 0.13873 0.0
C1784 C 0.96753 0.55574 0.15035 0.0
C1785 C 0.96733 0.54301 0.16299 0.0
H1786 H 0.41014 0.37128 0.04937 0.0
H1787 H 0.40144 0.41894 0.05282 0.0
H1788 H 0.42812 0.38379 0.08113 0.0
H1789 H 0.41973 0.43165 0.08411 0.0
H1790 H 0.43147 0.43476 0.1491 0.0
H1791 H 0.41544 0.42267 0.11665 0.0
H1792 H 0.457 0.41025 0.099 0.0
H1793 H 0.473 0.42223 0.13183 0.0
C1794 C 0.41223 0.38452 0.05679 0.0
C1795 C 0.40419 0.39399 0.04867 0.0
C1796 C 0.42261 0.39174 0.07494 0.0
C1797 C 0.4252 0.40861 0.08527 0.0
C1798 C 0.41766 0.41839 0.07677 0.0
C1799 C 0.40723 0.41113 0.05876 0.0
C1800 C 0.43733 0.42967 0.13824 0.0
C1801 C 0.45363 0.42967 0.14294 0.0
C1802 C 0.42815 0.42274 0.11962 0.0
C1803 C 0.43505 0.41569 0.10513 0.0
C1804 C 0.45125 0.41546 0.10986 0.0
C1805 C 0.46044 0.42235 0.12862 0.0
H1806 H 0.66119 0.75753 0.37292 0.0
H1807 H 0.64907 0.70758 0.40208 0.0
H1808 H 0.65136 0.7694 0.40059 0.0
H1809 H 0.63948 0.7196 0.4298 0.0
H1810 H 0.6117 0.73984 0.47191 0.0
H1811 H 0.61586 0.72674 0.44075 0.0
H1812 H 0.66501 0.78291 0.43429 0.0
H1813 H 0.66062 0.796 0.46513 0.0
C1814 C 0.6563 0.749 0.38515 0.0
C1815 C 0.65609 0.7317 0.38538 0.0
C1816 C 0.65072 0.75584 0.40102 0.0
C1817 C 0.64474 0.74549 0.41741 0.0
C1818 C 0.64384 0.72781 0.41731 0.0
C1819 C 0.64948 0.721 0.40148 0.0
C1820 C 0.62315 0.74944 0.4636 0.0
C1821 C 0.63591 0.76889 0.47095 0.0
C1822 C 0.62563 0.74191 0.44588 0.0
C1823 C 0.64082 0.75377 0.43513 0.0
C1824 C 0.65308 0.77344 0.44213 0.0
C1825 C 0.65067 0.7809 0.45986 0.0
H1826 H 0.25873 0.90328 0.43017 0.0
H1827 H 0.30411 0.93349 0.4756 0.0
H1828 H 0.23851 0.88162 0.4531 0.0
H1829 H 0.2837 0.91185 0.49862 0.0
H1830 H 0.24507 0.85698 0.52906 0.0
H1831 H 0.26642 0.87715 0.50565 0.0
H1832 H 0.22361 0.88546 0.48182 0.0
H1833 H 0.20223 0.86503 0.50481 0.0
C1834 C 0.26443 0.90525 0.44502 0.0
C1835 C 0.28301 0.9202 0.45109 0.0
C1836 C 0.2528 0.89289 0.45818 0.0
C1837 C 0.25947 0.89515 0.47768 0.0
C1838 C 0.27821 0.9097 0.48364 0.0
C1839 C 0.28986 0.92214 0.47048 0.0
C1840 C 0.24024 0.86305 0.51873 0.0
C1841 C 0.22202 0.85948 0.51879 0.0
C1842 C 0.25248 0.87469 0.50545 0.0
C1843 C 0.24665 0.88282 0.49187 0.0
C1844 C 0.22843 0.87921 0.49195 0.0
C1845 C 0.21626 0.8677 0.50527 0.0
H1846 H 0.08036 0.37291 0.42878 0.0
H1847 H 0.10678 0.3478 0.39628 0.0
H1848 H 0.10039 0.3785 0.45782 0.0
H1849 H 0.12709 0.35379 0.42525 0.0
H1850 H 0.13732 0.34057 0.48676 0.0
H1851 H 0.12219 0.33961 0.45578 0.0
H1852 H 0.13228 0.39648 0.47328 0.0
H1853 H 0.14686 0.39711 0.50465 0.0
C1854 C 0.09064 0.36885 0.42775 0.0
C1855 C 0.09182 0.35971 0.41028 0.0
C1856 C 0.10221 0.37218 0.44438 0.0
C1857 C 0.11525 0.36647 0.44388 0.0
C1858 C 0.11698 0.35807 0.42618 0.0
C1859 C 0.10539 0.35472 0.40957 0.0
C1860 C 0.13634 0.35288 0.48397 0.0
C1861 C 0.1431 0.36882 0.49821 0.0
C1862 C 0.12787 0.35244 0.46612 0.0
C1863 C 0.12597 0.36795 0.46208 0.0
C1864 C 0.13334 0.38422 0.47605 0.0
C1865 C 0.14186 0.38466 0.49393 0.0
H1866 H 0.10572 0.31486 0.32704 0.0
H1867 H 0.05577 0.30746 0.29838 0.0
H1868 H 0.11442 0.30748 0.29576 0.0
H1869 H 0.0644 0.29986 0.26714 0.0
H1870 H 0.10198 0.31735 0.21509 0.0
H1871 H 0.08934 0.31923 0.24592 0.0
H1872 H 0.10563 0.28199 0.26869 0.0
H1873 H 0.11871 0.28053 0.23801 0.0
C1874 C 0.09644 0.31136 0.31413 0.0
C1875 C 0.08014 0.31192 0.3152 0.0
C1876 C 0.10139 0.30704 0.2962 0.0
C1877 C 0.09016 0.30323 0.27896 0.0
C1878 C 0.07347 0.303 0.28014 0.0
C1879 C 0.06847 0.30724 0.29807 0.0
C1880 C 0.10278 0.30951 0.22666 0.0
C1881 C 0.11139 0.29885 0.22416 0.0
C1882 C 0.09539 0.31042 0.24425 0.0
C1883 C 0.09651 0.30077 0.25975 0.0
C1884 C 0.10469 0.2897 0.25707 0.0
C1885 C 0.11201 0.28871 0.23944 0.0
H1886 H 0.70885 0.75146 0.31337 0.0
H1887 H 0.65273 0.71555 0.28514 0.0
H1888 H 0.71611 0.77576 0.29069 0.0
H1889 H 0.66003 0.73961 0.26259 0.0
H1890 H 0.67103 0.79657 0.24374 0.0
H1891 H 0.66592 0.77276 0.26592 0.0
H1892 H 0.71966 0.78096 0.25506 0.0
H1893 H 0.72474 0.80476 0.23252 0.0
C1894 C 0.69815 0.74866 0.30224 0.0
C1895 C 0.68017 0.73164 0.30117 0.0
C1896 C 0.70232 0.76253 0.28923 0.0
C1897 C 0.68856 0.75968 0.27502 0.0
C1898 C 0.67082 0.74239 0.27362 0.0
C1899 C 0.66667 0.72854 0.2865 0.0
C1900 C 0.68171 0.79319 0.2459 0.0
C1901 C 0.69819 0.80239 0.23614 0.0
C1902 C 0.67878 0.77956 0.25864 0.0
C1903 C 0.69229 0.77483 0.26205 0.0
C1904 C 0.70904 0.78439 0.25277 0.0
C1905 C 0.71194 0.79802 0.23989 0.0
H1906 H 0.2798 0.93257 0.3414 0.0
H1907 H 0.2357 0.93732 0.36594 0.0
H1908 H 0.26251 0.92215 0.30948 0.0
H1909 H 0.21843 0.92699 0.33368 0.0
H1910 H 0.20991 0.93134 0.2657 0.0
H1911 H 0.22396 0.94054 0.29933 0.0
H1912 H 0.23093 0.8918 0.29524 0.0
H1913 H 0.21638 0.88217 0.26201 0.0
C1914 C 0.26645 0.93146 0.33998 0.0
C1915 C 0.2591 0.93572 0.35622 0.0
C1916 C 0.25651 0.92538 0.32171 0.0
C1917 C 0.23911 0.92366 0.31919 0.0
C1918 C 0.23185 0.92825 0.33529 0.0
C1919 C 0.2417 0.93408 0.3537 0.0
C1920 C 0.21407 0.92235 0.2721 0.0
C1921 C 0.21228 0.90618 0.26104 0.0
C1922 C 0.22215 0.92766 0.29132 0.0
C1923 C 0.22872 0.91701 0.29972 0.0
C1924 C 0.22626 0.90045 0.28896 0.0
C1925 C 0.21802 0.89501 0.2699 0.0
H1926 H 0.64509 0.90399 0.3384 0.0
H1927 H 0.69704 0.96007 0.34738 0.0
H1928 H 0.6589 0.89277 0.31467 0.0
H1929 H 0.71104 0.94865 0.32387 0.0
H1930 H 0.71668 0.92839 0.26081 0.0
H1931 H 0.70753 0.94043 0.28885 0.0
H1932 H 0.68217 0.8843 0.31063 0.0
H1933 H 0.6912 0.8722 0.28235 0.0
C1934 C 0.65953 0.91387 0.33546 0.0
C1935 C 0.66992 0.93297 0.34466 0.0
C1936 C 0.66752 0.90737 0.32197 0.0
C1937 C 0.6861 0.9198 0.3174 0.0
C1938 C 0.69663 0.93879 0.32692 0.0
C1939 C 0.68862 0.94531 0.34042 0.0
C1940 C 0.70962 0.91878 0.27186 0.0
C1941 C 0.70459 0.89933 0.26938 0.0
C1942 C 0.70433 0.92567 0.28793 0.0
C1943 C 0.69394 0.91326 0.30187 0.0
C1944 C 0.68985 0.89411 0.29994 0.0
C1945 C 0.69508 0.8872 0.28382 0.0
H1946 H 0.08789 0.7443 0.29106 0.0
H1947 H 0.04958 0.76394 0.29676 0.0
H1948 H 0.10588 0.76938 0.26989 0.0
H1949 H 0.06768 0.78909 0.27522 0.0
H1950 H 0.09508 0.81227 0.21548 0.0
H1951 H 0.0759 0.78971 0.23856 0.0
H1952 H 0.12592 0.80687 0.27479 0.0
H1953 H 0.14508 0.82984 0.25221 0.0
C1954 C 0.08325 0.75393 0.28773 0.0
C1955 C 0.06732 0.75216 0.29559 0.0
C1956 C 0.09364 0.76836 0.27571 0.0
C1957 C 0.08822 0.78122 0.27106 0.0
C1958 C 0.07211 0.77931 0.2786 0.0
C1959 C 0.06183 0.765 0.29094 0.0
C1960 C 0.10197 0.81156 0.22858 0.0
C1961 C 0.12166 0.82269 0.23185 0.0
C1962 C 0.09097 0.79861 0.24174 0.0
C1963 C 0.09948 0.79643 0.25829 0.0
C1964 C 0.11906 0.80807 0.26196 0.0
C1965 C 0.13001 0.82114 0.24896 0.0
H1966 H 0.2213 0.29837 0.34201 0.0
H1967 H 0.2618 0.2992 0.30458 0.0
H1968 H 0.19962 0.2901 0.31345 0.0
H1969 H 0.24062 0.29172 0.27622 0.0
H1970 H 0.19728 0.26872 0.22728 0.0
H1971 H 0.21245 0.26859 0.25763 0.0
H1972 H 0.19702 0.30604 0.28717 0.0
H1973 H 0.18067 0.30503 0.25709 0.0
C1974 C 0.22552 0.29666 0.32772 0.0
C1975 C 0.24332 0.29955 0.32557 0.0
C1976 C 0.21315 0.29204 0.31134 0.0
C1977 C 0.21836 0.29031 0.29247 0.0
C1978 C 0.23593 0.29259 0.29047 0.0
C1979 C 0.2482 0.29706 0.3068 0.0
C1980 C 0.1966 0.27645 0.24034 0.0
C1981 C 0.1879 0.28708 0.23963 0.0
C1982 C 0.20557 0.27661 0.25774 0.0
C1983 C 0.20629 0.28759 0.27482 0.0
C1984 C 0.19672 0.29735 0.27436 0.0
C1985 C 0.18756 0.29701 0.257 0.0
H1986 H 0.27101 0.34088 0.44022 0.0
H1987 H 0.24373 0.36344 0.40738 0.0
H1988 H 0.26064 0.34848 0.47018 0.0
H1989 H 0.23355 0.37129 0.4375 0.0
H1990 H 0.19721 0.35441 0.49044 0.0
H1991 H 0.21072 0.35203 0.46047 0.0
H1992 H 0.26422 0.37521 0.49283 0.0
H1993 H 0.25051 0.37712 0.523 0.0
C1994 C 0.26296 0.34765 0.43941 0.0
C1995 C 0.25805 0.35139 0.42137 0.0
C1996 C 0.25714 0.35215 0.45662 0.0
C1997 C 0.24622 0.36043 0.45621 0.0
C1998 C 0.24177 0.36471 0.43825 0.0
C1999 C 0.24767 0.36028 0.42102 0.0
C2000 C 0.21186 0.359 0.49115 0.0
C2001 C 0.22275 0.36575 0.50909 0.0
C2002 C 0.21966 0.35786 0.47395 0.0
C2003 C 0.23853 0.36339 0.47428 0.0
C2004 C 0.24958 0.37066 0.49215 0.0
C2005 C 0.24179 0.3719 0.50938 0.0
H2006 H 0.67833 0.92722 0.42499 0.0
H2007 H 0.62513 0.92258 0.42921 0.0
H2008 H 0.66935 0.90268 0.44723 0.0
H2009 H 0.61602 0.89761 0.45158 0.0
H2010 H 0.62108 0.87234 0.50954 0.0
H2011 H 0.62557 0.89462 0.48542 0.0
H2012 H 0.64674 0.8676 0.44712 0.0
H2013 H 0.64231 0.84547 0.47115 0.0
C2014 C 0.66467 0.92093 0.43063 0.0
C2015 C 0.65243 0.92685 0.42528 0.0
C2016 C 0.65947 0.90672 0.44328 0.0
C2017 C 0.6419 0.89805 0.45098 0.0
C2018 C 0.62967 0.90408 0.44587 0.0
C2019 C 0.63486 0.91831 0.43305 0.0
C2020 C 0.62634 0.87095 0.4958 0.0
C2021 C 0.6316 0.85737 0.49232 0.0
C2022 C 0.62891 0.88369 0.482 0.0
C2023 C 0.63677 0.88304 0.46452 0.0
C2024 C 0.64104 0.86873 0.46065 0.0
C2025 C 0.6385 0.85606 0.47439 0.0
H2026 H 0.10755 0.76165 0.3718 0.0
H2027 H 0.05684 0.72593 0.39992 0.0
H2028 H 0.12604 0.77006 0.40288 0.0
H2029 H 0.07524 0.73467 0.43096 0.0
H2030 H 0.1131 0.74073 0.48136 0.0
H2031 H 0.09764 0.73026 0.4485 0.0
H2032 H 0.1315 0.78918 0.43379 0.0
H2033 H 0.14756 0.79949 0.46641 0.0
C2034 C 0.10035 0.75559 0.3846 0.0
C2035 C 0.08071 0.74316 0.38339 0.0
C2036 C 0.11094 0.76047 0.40242 0.0
C2037 C 0.10213 0.75302 0.4194 0.0
C2038 C 0.08252 0.74042 0.41811 0.0
C2039 C 0.07194 0.73553 0.40032 0.0
C2040 C 0.1176 0.75136 0.47097 0.0
C2041 C 0.13152 0.77097 0.47653 0.0
C2042 C 0.10854 0.74541 0.45221 0.0
C2043 C 0.11316 0.75893 0.43859 0.0
C2044 C 0.12766 0.77837 0.44388 0.0
C2045 C 0.13674 0.78432 0.46264 0.0
H2046 H 0.34651 0.07412 0.73604 0.0
H2047 H 0.29418 0.05772 0.7048 0.0
H2048 H 0.33994 0.09019 0.76284 0.0
H2049 H 0.28754 0.07378 0.73195 0.0
H2050 H 0.2769 0.08209 0.79894 0.0
H2051 H 0.28138 0.06823 0.76852 0.0
H2052 H 0.33662 0.11963 0.76791 0.0
H2053 H 0.33205 0.13375 0.79795 0.0
C2054 C 0.33359 0.07395 0.73489 0.0
C2055 C 0.32085 0.06465 0.71831 0.0
C2056 C 0.32991 0.08327 0.75018 0.0
C2057 C 0.31331 0.08332 0.74937 0.0
C2058 C 0.30045 0.07393 0.73289 0.0
C2059 C 0.30428 0.06482 0.71738 0.0
C2060 C 0.2898 0.09065 0.79205 0.0
C2061 C 0.30423 0.10892 0.80103 0.0
C2062 C 0.29236 0.08269 0.77467 0.0
C2063 C 0.30943 0.09278 0.76606 0.0
C2064 C 0.32344 0.11143 0.77446 0.0
C2065 C 0.32084 0.11946 0.79168 0.0
H2066 H 0.92568 0.26686 0.78895 0.0
H2067 H 0.94834 0.23342 0.76616 0.0
H2068 H 0.91092 0.24453 0.81333 0.0
H2069 H 0.93356 0.211 0.79092 0.0
H2070 H 0.88262 0.16415 0.82278 0.0
H2071 H 0.90117 0.18633 0.79917 0.0
H2072 H 0.91995 0.23515 0.84268 0.0
H2073 H 0.90146 0.21304 0.86624 0.0
C2074 C 0.92758 0.25477 0.78918 0.0
C2075 C 0.93819 0.25193 0.7756 0.0
C2076 C 0.91923 0.24204 0.80328 0.0
C2077 C 0.92121 0.2261 0.80416 0.0
C2078 C 0.93175 0.22314 0.79054 0.0
C2079 C 0.94024 0.236 0.77643 0.0
C2080 C 0.89102 0.17959 0.82739 0.0
C2081 C 0.89042 0.18688 0.84629 0.0
C2082 C 0.90163 0.19229 0.81388 0.0
C2083 C 0.91182 0.21248 0.81901 0.0
C2084 C 0.91193 0.21968 0.83819 0.0
C2085 C 0.90135 0.20702 0.85167 0.0
H2086 H 0.78161 0.67519 0.7287 0.0
H2087 H 0.75598 0.70674 0.74802 0.0
H2088 H 0.79743 0.68225 0.76117 0.0
H2089 H 0.77195 0.71392 0.78036 0.0
H2090 H 0.83357 0.71061 0.81897 0.0
H2091 H 0.82142 0.70875 0.78567 0.0
H2092 H 0.76804 0.69352 0.80668 0.0
H2093 H 0.78025 0.6957 0.83983 0.0
C2094 C 0.77955 0.68385 0.73978 0.0
C2095 C 0.76739 0.69024 0.73581 0.0
C2096 C 0.7887 0.68798 0.75835 0.0
C2097 C 0.78581 0.6985 0.77335 0.0
C2098 C 0.77424 0.70553 0.76917 0.0
C2099 C 0.76515 0.70148 0.7506 0.0
C2100 C 0.81934 0.70714 0.81644 0.0
C2101 C 0.80781 0.70322 0.83193 0.0
C2102 C 0.81235 0.70593 0.79741 0.0
C2103 C 0.79378 0.70099 0.79358 0.0
C2104 C 0.78246 0.69757 0.80918 0.0
C2105 C 0.78938 0.69863 0.82813 0.0
H2106 H 0.72023 0.62096 0.63664 0.0
H2107 H 0.75747 0.68329 0.63925 0.0
H2108 H 0.73425 0.61706 0.60761 0.0
H2109 H 0.77099 0.67945 0.61004 0.0
H2110 H 0.80483 0.66632 0.56973 0.0
H2111 H 0.7908 0.66875 0.59923 0.0
H2112 H 0.73631 0.62217 0.57359 0.0
H2113 H 0.75056 0.6195 0.54416 0.0
C2114 C 0.73135 0.63382 0.63099 0.0
C2115 C 0.73779 0.65242 0.64031 0.0
C2116 C 0.7393 0.63159 0.61428 0.0
C2117 C 0.7538 0.64794 0.6065 0.0
C2118 C 0.76011 0.66652 0.61581 0.0
C2119 C 0.75227 0.66873 0.63254 0.0
C2120 C 0.78983 0.65668 0.57037 0.0
C2121 C 0.77875 0.64285 0.55459 0.0
C2122 C 0.78178 0.65808 0.58727 0.0
C2123 C 0.76239 0.64577 0.58875 0.0
C2124 C 0.75132 0.63173 0.57304 0.0
C2125 C 0.75944 0.63024 0.55615 0.0
H2126 H 0.3226 0.04988 0.61763 0.0
H2127 H 0.37875 0.08592 0.64573 0.0
H2128 H 0.3305 0.07267 0.59357 0.0
H2129 H 0.38685 0.10864 0.62119 0.0
H2130 H 0.38364 0.15547 0.58953 0.0
H2131 H 0.37957 0.13225 0.61225 0.0
H2132 H 0.3487 0.08515 0.56632 0.0
H2133 H 0.35247 0.10834 0.54381 0.0
C2134 C 0.33673 0.06256 0.61854 0.0
C2135 C 0.35002 0.06611 0.63366 0.0
C2136 C 0.34131 0.07559 0.60463 0.0
C2137 C 0.35933 0.09248 0.6054 0.0
C2138 C 0.37278 0.09586 0.6203 0.0
C2139 C 0.36817 0.0828 0.63429 0.0
C2140 C 0.37625 0.14017 0.58426 0.0
C2141 C 0.36818 0.13366 0.565 0.0
C2142 C 0.37395 0.12686 0.59725 0.0
C2143 C 0.36362 0.1068 0.59117 0.0
C2144 C 0.35636 0.10045 0.57161 0.0
C2145 C 0.35855 0.11371 0.5587 0.0
H2146 H 0.90067 0.25924 0.69187 0.0
H2147 H 0.95043 0.26584 0.66854 0.0
H2148 H 0.886 0.2525 0.65883 0.0
H2149 H 0.9356 0.25834 0.63572 0.0
H2150 H 0.91312 0.26368 0.57862 0.0
H2151 H 0.9267 0.27191 0.6122 0.0
H2152 H 0.87278 0.22919 0.63087 0.0
H2153 H 0.85913 0.2216 0.59722 0.0
C2154 C 0.90839 0.25906 0.6797 0.0
C2155 C 0.92674 0.26318 0.68281 0.0
C2156 C 0.89996 0.25511 0.66075 0.0
C2157 C 0.90964 0.25502 0.64453 0.0
C2158 C 0.92786 0.25876 0.64777 0.0
C2159 C 0.93634 0.26292 0.66664 0.0
C2160 C 0.90419 0.25617 0.58997 0.0
C2161 C 0.88513 0.24196 0.58539 0.0
C2162 C 0.91197 0.26075 0.6092 0.0
C2163 C 0.90092 0.25102 0.62428 0.0
C2164 C 0.88169 0.23712 0.6197 0.0
C2165 C 0.87385 0.23272 0.60044 0.0
H2166 H 0.36883 0.26962 0.69747 0.0
H2167 H 0.34258 0.28876 0.65818 0.0
H2168 H 0.37542 0.25447 0.6696 0.0
H2169 H 0.34944 0.27399 0.63051 0.0
H2170 H 0.34123 0.22442 0.58873 0.0
H2171 H 0.33722 0.24054 0.61737 0.0
H2172 H 0.39367 0.26121 0.64023 0.0
H2173 H 0.39751 0.24434 0.6116 0.0
C2174 C 0.36467 0.2708 0.68291 0.0
C2175 C 0.35498 0.28019 0.68004 0.0
C2176 C 0.36851 0.26219 0.66696 0.0
C2177 C 0.36273 0.26282 0.64789 0.0
C2178 C 0.35372 0.27289 0.64505 0.0
C2179 C 0.34986 0.28144 0.66092 0.0
C2180 C 0.3527 0.23208 0.6 0.0
C2181 C 0.36964 0.23294 0.59798 0.0
C2182 C 0.3505 0.24159 0.61629 0.0
C2183 C 0.3652 0.25232 0.63096 0.0
C2184 C 0.38208 0.25298 0.62917 0.0
C2185 C 0.38431 0.24345 0.61276 0.0
H2186 H 0.76148 0.07542 0.62046 0.0
H2187 H 0.72359 0.09569 0.62481 0.0
H2188 H 0.77952 0.09974 0.59852 0.0
H2189 H 0.74168 0.12 0.60257 0.0
H2190 H 0.76759 0.14155 0.54276 0.0
H2191 H 0.74909 0.11924 0.56623 0.0
H2192 H 0.79984 0.13711 0.60147 0.0
H2193 H 0.81839 0.15996 0.57849 0.0
C2194 C 0.75697 0.08503 0.61669 0.0
C2195 C 0.74112 0.08365 0.62435 0.0
C2196 C 0.76738 0.09903 0.60423 0.0
C2197 C 0.76202 0.11176 0.59895 0.0
C2198 C 0.74605 0.11029 0.6064 0.0
C2199 C 0.73577 0.09644 0.61914 0.0
C2200 C 0.77482 0.14105 0.5557 0.0
C2201 C 0.79453 0.1525 0.55864 0.0
C2202 C 0.7642 0.12822 0.56909 0.0
C2203 C 0.77307 0.12639 0.58555 0.0
C2204 C 0.79269 0.13807 0.58873 0.0
C2205 C 0.80329 0.15107 0.5755 0.0
H2206 H 0.93085 0.64087 0.6337 0.0
H2207 H 0.88981 0.63839 0.67134 0.0
H2208 H 0.90969 0.63386 0.60531 0.0
H2209 H 0.86829 0.63072 0.64288 0.0
H2210 H 0.84795 0.64506 0.58738 0.0
H2211 H 0.86553 0.64705 0.61697 0.0
H2212 H 0.8812 0.61005 0.58687 0.0
H2213 H 0.86456 0.60902 0.55699 0.0
C2214 C 0.91718 0.63853 0.63593 0.0
C2215 C 0.91207 0.64032 0.65478 0.0
C2216 C 0.90495 0.63436 0.61963 0.0
C2217 C 0.88725 0.63172 0.62177 0.0
C2218 C 0.88192 0.63294 0.64068 0.0
C2219 C 0.89422 0.63725 0.657 0.0
C2220 C 0.85513 0.63733 0.58709 0.0
C2221 C 0.855 0.62707 0.56974 0.0
C2222 C 0.86503 0.63826 0.60414 0.0
C2223 C 0.87495 0.62885 0.60429 0.0
C2224 C 0.87401 0.61776 0.58719 0.0
C2225 C 0.86421 0.61693 0.57011 0.0
H2226 H 0.93805 0.69448 0.76375 0.0
H2227 H 0.88372 0.641 0.75367 0.0
H2228 H 0.92775 0.70406 0.79277 0.0
H2229 H 0.87359 0.65043 0.7827 0.0
H2230 H 0.85484 0.68034 0.82492 0.0
H2231 H 0.86615 0.67426 0.79485 0.0
H2232 H 0.9195 0.6938 0.82572 0.0
H2233 H 0.90815 0.69992 0.85589 0.0
C2234 C 0.92391 0.6848 0.76768 0.0
C2235 C 0.9117 0.66697 0.75641 0.0
C2236 C 0.91806 0.69024 0.78435 0.0
C2237 C 0.89985 0.67802 0.79 0.0
C2238 C 0.88761 0.6603 0.77858 0.0
C2239 C 0.89347 0.65484 0.762 0.0
C2240 C 0.86898 0.68331 0.82529 0.0
C2241 C 0.88053 0.69035 0.84281 0.0
C2242 C 0.87546 0.67984 0.80807 0.0
C2243 C 0.89364 0.68334 0.80796 0.0
C2244 C 0.90547 0.69109 0.82532 0.0
C2245 C 0.89897 0.69458 0.84259 0.0
H2246 H 0.35089 0.28065 0.7716 0.0
H2247 H 0.29226 0.25621 0.75448 0.0
H2248 H 0.34232 0.25515 0.79278 0.0
H2249 H 0.28371 0.2307 0.77615 0.0
H2250 H 0.28392 0.20689 0.83832 0.0
H2251 H 0.28863 0.22993 0.81502 0.0
H2252 H 0.3256 0.21709 0.78526 0.0
H2253 H 0.32039 0.19353 0.80787 0.0
C2254 C 0.33615 0.26992 0.77246 0.0
C2255 C 0.32224 0.27041 0.76134 0.0
C2256 C 0.33128 0.25527 0.7845 0.0
C2257 C 0.31239 0.24095 0.78594 0.0
C2258 C 0.29838 0.24162 0.77524 0.0
C2259 C 0.30327 0.25615 0.76285 0.0
C2260 C 0.2927 0.20862 0.82654 0.0
C2261 C 0.30199 0.19853 0.82516 0.0
C2262 C 0.29541 0.22184 0.81327 0.0
C2263 C 0.30762 0.22537 0.79855 0.0
C2264 C 0.31633 0.21479 0.79669 0.0
C2265 C 0.31343 0.20141 0.80973 0.0
H2266 H 0.78122 0.09298 0.70018 0.0
H2267 H 0.73057 0.05206 0.72559 0.0
H2268 H 0.79923 0.09996 0.73129 0.0
H2269 H 0.74838 0.05946 0.75671 0.0
H2270 H 0.78518 0.06651 0.80814 0.0
H2271 H 0.77125 0.0567 0.77468 0.0
H2272 H 0.80294 0.11668 0.7627 0.0
H2273 H 0.81767 0.12634 0.79582 0.0
C2274 C 0.77394 0.08543 0.71238 0.0
C2275 C 0.75445 0.07206 0.71044 0.0
C2276 C 0.78425 0.0895 0.73023 0.0
C2277 C 0.77527 0.08034 0.74655 0.0
C2278 C 0.75584 0.06657 0.74441 0.0
C2279 C 0.74557 0.06243 0.72657 0.0
C2280 C 0.78957 0.07755 0.79823 0.0
C2281 C 0.80244 0.09724 0.80472 0.0
C2282 C 0.78138 0.07195 0.7791 0.0
C2283 C 0.78576 0.08592 0.76605 0.0
C2284 C 0.7993 0.1055 0.77228 0.0
C2285 C 0.80758 0.11109 0.79137 0.0
H2286 H 0.01719 0.31844 0.06411 0.0
H2287 H 0.06555 0.37285 0.05163 0.0
H2288 H 0.03751 0.31155 0.08278 0.0
H2289 H 0.08594 0.36591 0.07056 0.0
H2290 H 0.11102 0.35407 0.12521 0.0
H2291 H 0.09105 0.36163 0.10668 0.0
H2292 H 0.06286 0.30457 0.07476 0.0
H2293 H 0.08319 0.29717 0.09263 0.0
C2294 C 0.03217 0.32896 0.06538 0.0
C2295 C 0.03978 0.3462 0.05638 0.0
C2296 C 0.04379 0.32495 0.076 0.0
C2297 C 0.06326 0.33819 0.07809 0.0
C2298 C 0.07093 0.35553 0.06926 0.0
C2299 C 0.05929 0.35944 0.05836 0.0
C2300 C 0.10068 0.34317 0.11414 0.0
C2301 C 0.09874 0.32498 0.11047 0.0
C2302 C 0.08925 0.34752 0.10356 0.0
C2303 C 0.07547 0.3337 0.08929 0.0
C2304 C 0.07328 0.31543 0.08583 0.0
C2305 C 0.08485 0.31115 0.0962 0.0
H2306 H 0.62092 0.68042 0.07682 0.0
H2307 H 0.66975 0.68202 0.10047 0.0
H2308 H 0.63422 0.71379 0.09095 0.0
H2309 H 0.68331 0.71558 0.11407 0.0
H2310 H 0.69184 0.76841 0.15302 0.0
H2311 H 0.67952 0.73507 0.13907 0.0
H2312 H 0.65907 0.74614 0.08663 0.0
H2313 H 0.671 0.77923 0.10081 0.0
C2314 C 0.63452 0.68792 0.08496 0.0
C2315 C 0.64426 0.67858 0.08753 0.0
C2316 C 0.64222 0.7071 0.09295 0.0
C2317 C 0.65989 0.7174 0.10355 0.0
C2318 C 0.66958 0.708 0.10619 0.0
C2319 C 0.66183 0.68878 0.09831 0.0
C2320 C 0.6849 0.76371 0.13844 0.0
C2321 C 0.68224 0.77628 0.12803 0.0
C2322 C 0.67785 0.74465 0.13043 0.0
C2323 C 0.66814 0.73787 0.1118 0.0
C2324 C 0.66607 0.75073 0.10118 0.0
C2325 C 0.67298 0.7697 0.10924 0.0
H2326 H 0.33069 0.98652 0.04081 0.0
H2327 H 0.33593 0.93774 0.04982 0.0
H2328 H 0.30141 0.97137 0.05634 0.0
H2329 H 0.30637 0.92253 0.06546 0.0
H2330 H 0.2432 0.89478 0.07527 0.0
H2331 H 0.27135 0.90859 0.05745 0.0
H2332 H 0.2934 0.96425 0.09081 0.0
H2333 H 0.26563 0.95044 0.10901 0.0
C2334 C 0.32556 0.9725 0.046 0.0
C2335 C 0.33574 0.96338 0.04419 0.0
C2336 C 0.3088 0.96388 0.05497 0.0
C2337 C 0.30172 0.94588 0.06221 0.0
C2338 C 0.31152 0.93641 0.0599 0.0
C2339 C 0.32845 0.94514 0.05104 0.0
C2340 C 0.2541 0.90994 0.07889 0.0
C2341 C 0.25214 0.92151 0.0936 0.0
C2342 C 0.27018 0.91781 0.06867 0.0
C2343 C 0.28452 0.93745 0.07277 0.0
C2344 C 0.28244 0.9491 0.08719 0.0
C2345 C 0.26647 0.94121 0.09754 0.0
H2346 H 0.38588 0.0638 0.00737 0.0
H2347 H 0.33277 0.01281 0.98458 0.0
H2348 H 0.37449 0.08441 0.9982 0.0
H2349 H 0.32155 0.0333 0.9755 0.0
H2350 H 0.30087 0.07433 0.97742 0.0
H2351 H 0.31309 0.05607 0.99109 0.0
H2352 H 0.36574 0.09214 0.96638 0.0
H2353 H 0.35351 0.11007 0.95237 0.0
C2354 C 0.37181 0.05701 0.00046 0.0
C2355 C 0.36027 0.0367 0.9966 0.0
C2356 C 0.36531 0.06878 0.99521 0.0
C2357 C 0.3471 0.06042 0.98625 0.0
C2358 C 0.33554 0.04013 0.98264 0.0
C2359 C 0.34207 0.02842 0.98768 0.0
C2360 C 0.31506 0.07839 0.97494 0.0
C2361 C 0.32617 0.09364 0.96376 0.0
C2362 C 0.32206 0.06798 0.98281 0.0
C2363 C 0.34034 0.07269 0.97975 0.0
C2364 C 0.35169 0.08837 0.9692 0.0
C2365 C 0.34466 0.09867 0.96122 0.0
H2366 H 0.93764 0.30853 0.00773 0.0
H2367 H 0.98443 0.30359 0.99296 0.0
H2368 H 0.91595 0.2756 0.99254 0.0
H2369 H 0.9627 0.27041 0.97824 0.0
H2370 H 0.91751 0.22033 0.93412 0.0
H2371 H 0.94049 0.25268 0.95028 0.0
H2372 H 0.90454 0.24247 0.99718 0.0
H2373 H 0.88151 0.21043 0.9808 0.0
C2374 C 0.94329 0.30036 0.00138 0.0
C2375 C 0.96274 0.30868 0.00153 0.0
C2376 C 0.93086 0.28142 0.99277 0.0
C2377 C 0.93758 0.27032 0.98423 0.0
C2378 C 0.95705 0.27863 0.98447 0.0
C2379 C 0.9695 0.29762 0.993 0.0
C2380 C 0.91469 0.22498 0.948 0.0
C2381 C 0.8977 0.21301 0.95614 0.0
C2382 C 0.92783 0.24347 0.95728 0.0
C2383 C 0.92426 0.25025 0.97493 0.0
C2384 C 0.90754 0.2379 0.98338 0.0
C2385 C 0.89439 0.21952 0.97405 0.0
H2386 H 0.67482 0.64746 0.00971 0.0
H2387 H 0.69506 0.63709 0.0627 0.0
H2388 H 0.70531 0.6602 0.9971 0.0
H2389 H 0.726 0.65063 0.05036 0.0
H2390 H 0.77297 0.65805 0.01199 0.0
H2391 H 0.74329 0.64528 0.02666 0.0
H2392 H 0.736 0.68818 0.00203 0.0
H2393 H 0.76491 0.69999 0.98627 0.0
C2394 C 0.68584 0.64795 0.01869 0.0
C2395 C 0.68259 0.64134 0.03721 0.0
C2396 C 0.7034 0.65545 0.01154 0.0
C2397 C 0.71825 0.65679 0.02285 0.0
C2398 C 0.71487 0.64973 0.04123 0.0
C2399 C 0.69716 0.64198 0.0483 0.0
C2400 C 0.76501 0.66473 0.00968 0.0
C2401 C 0.77125 0.6799 0.99774 0.0
C2402 C 0.74807 0.65754 0.01828 0.0
C2403 C 0.73708 0.66549 0.01529 0.0
C2404 C 0.74387 0.68138 0.00426 0.0
C2405 C 0.76067 0.68841 0.99549 0.0
H2406 H 0.93346 0.61315 0.99447 0.0
H2407 H 0.95663 0.66364 0.03681 0.0
H2408 H 0.91734 0.6252 0.97605 0.0
H2409 H 0.94125 0.67605 0.0181 0.0
H2410 H 0.89817 0.68541 0.98966 0.0
H2411 H 0.91217 0.67173 0.00875 0.0
H2412 H 0.92378 0.64985 0.9556 0.0
H2413 H 0.90906 0.66303 0.93654 0.0
C2414 C 0.93506 0.62678 -0.00012 0.0
C2415 C 0.9463 0.63741 0.01711 0.0
C2416 C 0.92597 0.6338 0.98922 0.0
C2417 C 0.92808 0.65169 0.99548 0.0
C2418 C 0.93905 0.66209 0.01295 0.0
C2419 C 0.94795 0.65498 0.02368 0.0
C2420 C 0.90393 0.67787 0.9821 0.0
C2421 C 0.90277 0.67546 0.96165 0.0
C2422 C 0.91194 0.67 0.99302 0.0
C2423 C 0.91918 0.65971 0.98376 0.0
C2424 C 0.91808 0.6574 0.96324 0.0
C2425 C 0.90983 0.66508 0.9523 0.0
H2426 H 0.34183 0.30943 0.01187 0.0
H2427 H 0.3438 0.33331 0.95764 0.0
H2428 H 0.33056 0.27783 0.99397 0.0
H2429 H 0.33166 0.30161 0.93977 0.0
H2430 H 0.33007 0.24833 0.91247 0.0
H2431 H 0.34028 0.27963 0.93 0.0
H2432 H 0.30465 0.25082 0.9757 0.0
H2433 H 0.29559 0.21949 0.95887 0.0
C2434 C 0.33971 0.30786 0.99613 0.0
C2435 C 0.34383 0.32385 0.98615 0.0
C2436 C 0.33308 0.28971 0.98585 0.0
C2437 C 0.33014 0.28708 0.96537 0.0
C2438 C 0.33408 0.30311 0.95547 0.0
C2439 C 0.34099 0.3213 0.96573 0.0
C2440 C 0.3245 0.24865 0.92633 0.0
C2441 C 0.31213 0.23134 0.93431 0.0
C2442 C 0.33017 0.26665 0.93629 0.0
C2443 C 0.32339 0.26784 0.95437 0.0
C2444 C 0.31046 0.25051 0.96201 0.0
C2445 C 0.30498 0.23249 0.95216 0.0
H2446 H 0.65243 0.01986 0.00065 0.0
H2447 H 0.68952 0.05412 0.05181 0.0
H2448 H 0.67848 0.03455 0.98054 0.0
H2449 H 0.71573 0.06982 0.03138 0.0
H2450 H 0.76148 0.07681 0.99245 0.0
H2451 H 0.73564 0.06377 0.01329 0.0
H2452 H 0.69937 0.06218 0.96666 0.0
H2453 H 0.72459 0.0734 0.94536 0.0
C2454 C 0.66612 0.03089 0.00758 0.0
C2455 C 0.6689 0.03581 0.02786 0.0
C2456 C 0.68113 0.03945 0.99597 0.0
C2457 C 0.69931 0.05346 0.00425 0.0
C2458 C 0.702 0.05884 0.02451 0.0
C2459 C 0.68696 0.05 0.03622 0.0
C2460 C 0.7479 0.07333 0.98652 0.0
C2461 C 0.74518 0.07609 0.96712 0.0
C2462 C 0.73314 0.06619 0.99863 0.0
C2463 C 0.71534 0.06188 0.99173 0.0
C2464 C 0.71274 0.06498 0.97244 0.0
C2465 C 0.72737 0.07175 0.96026 0.0
H2466 H 0.61923 0.94602 0.06963 0.0
H2467 H 0.6663 0.97186 0.03416 0.0
H2468 H 0.63254 0.93005 0.08581 0.0
H2469 H 0.67956 0.95566 0.05033 0.0
H2470 H 0.70687 0.9456 0.10496 0.0
H2471 H 0.69368 0.9589 0.08381 0.0
H2472 H 0.6399 0.90479 0.07975 0.0
H2473 H 0.65305 0.89152 0.10075 0.0
C2474 C 0.6323 0.94809 0.0651 0.0
C2475 C 0.64173 0.96025 0.05065 0.0
C2476 C 0.63988 0.93886 0.07431 0.0
C2477 C 0.65712 0.94164 0.06936 0.0
C2478 C 0.66634 0.9534 0.05456 0.0
C2479 C 0.65867 0.96255 0.04522 0.0
C2480 C 0.69233 0.93647 0.09926 0.0
C2481 C 0.68092 0.91764 0.10475 0.0
C2482 C 0.68478 0.94406 0.08714 0.0
C2483 C 0.6657 0.93294 0.08031 0.0
C2484 C 0.65455 0.91382 0.0851 0.0
C2485 C 0.66208 0.90625 0.09715 0.0
H2486 H 0.04946 0.70963 0.04454 0.0
H2487 H 0.01872 0.69073 0.09566 0.0
H2488 H 0.07126 0.74136 0.06242 0.0
H2489 H 0.04007 0.72254 0.11328 0.0
H2490 H 0.09451 0.77297 0.14521 0.0
H2491 H 0.07167 0.74177 0.12725 0.0
H2492 H 0.07378 0.77058 0.07651 0.0
H2493 H 0.09741 0.8017 0.09418 0.0
C2494 C 0.04728 0.71229 0.05953 0.0
C2495 C 0.03243 0.69763 0.0687 0.0
C2496 C 0.05969 0.73052 0.06975 0.0
C2497 C 0.05743 0.7345 0.08931 0.0
C2498 C 0.04241 0.71988 0.09835 0.0
C2499 C 0.03011 0.70165 0.0882 0.0
C2500 C 0.09013 0.77264 0.13021 0.0
C2501 C 0.09784 0.78981 0.12111 0.0
C2502 C 0.07688 0.75476 0.11996 0.0
C2503 C 0.07092 0.75365 0.1004 0.0
C2504 C 0.07826 0.77089 0.09146 0.0
C2505 C 0.09159 0.78877 0.10169 0.0
H2506 H 0.2888 0.33795 0.9913 0.0
H2507 H 0.32234 0.38673 0.03494 0.0
H2508 H 0.26171 0.3269 0.01047 0.0
H2509 H 0.29543 0.37552 0.05416 0.0
H2510 H 0.24051 0.35835 0.07859 0.0
H2511 H 0.26441 0.3705 0.05533 0.0
H2512 H 0.25302 0.31258 0.04144 0.0
H2513 H 0.22901 0.30042 0.06469 0.0
C2514 C 0.29034 0.34646 0.00484 0.0
C2515 C 0.30776 0.36316 0.01165 0.0
C2516 C 0.27486 0.34004 0.01588 0.0
C2517 C 0.27647 0.35024 0.0339 0.0
C2518 C 0.29367 0.36742 0.04026 0.0
C2519 C 0.30913 0.3738 0.02927 0.0
C2520 C 0.24313 0.34822 0.07058 0.0
C2521 C 0.23306 0.32848 0.07363 0.0
C2522 C 0.25679 0.35517 0.05723 0.0
C2523 C 0.26069 0.34253 0.04663 0.0
C2524 C 0.25018 0.32266 0.04921 0.0
C2525 C 0.23648 0.31569 0.06256 0.0
H2526 H 0.72891 0.71048 0.38247 0.0
H2527 H 0.6818 0.65521 0.39493 0.0
H2528 H 0.75004 0.70481 0.40149 0.0
H2529 H 0.70288 0.64917 0.41323 0.0
H2530 H 0.743 0.65112 0.45972 0.0
H2531 H 0.72231 0.65861 0.44249 0.0
H2532 H 0.76324 0.68545 0.40037 0.0
H2533 H 0.78402 0.67848 0.41798 0.0
C2534 C 0.72309 0.69708 0.38916 0.0
C2535 C 0.7037 0.68331 0.38721 0.0
C2536 C 0.7352 0.69376 0.39999 0.0
C2537 C 0.72819 0.67651 0.40893 0.0
C2538 C 0.70877 0.66277 0.4069 0.0
C2539 C 0.69667 0.66618 0.39626 0.0
C2540 C 0.74752 0.65866 0.4468 0.0
C2541 C 0.76512 0.66432 0.44024 0.0
C2542 C 0.73567 0.6629 0.43686 0.0
C2543 C 0.74107 0.67265 0.41999 0.0
C2544 C 0.75873 0.67829 0.4135 0.0
C2545 C 0.77064 0.67424 0.42355 0.0
H2546 H 0.33635 0.0124 0.43059 0.0
H2547 H 0.27999 -0.00051 0.43519 0.0
H2548 H 0.34895 0.04584 0.4439 0.0
H2549 H 0.29254 0.03315 0.44777 0.0
H2550 H 0.32027 0.09015 0.48612 0.0
H2551 H 0.30874 0.05632 0.47526 0.0
H2552 H 0.35226 0.07499 0.43532 0.0
H2553 H 0.36408 0.10882 0.44676 0.0
C2554 C 0.32664 0.01674 0.43437 0.0
C2555 C 0.30717 0.00332 0.43184 0.0
C2556 C 0.33387 0.03596 0.44189 0.0
C2557 C 0.32179 0.04226 0.44687 0.0
C2558 C 0.30228 0.02876 0.44441 0.0
C2559 C 0.29506 0.00947 0.43709 0.0
C2560 C 0.32736 0.08695 0.47506 0.0
C2561 C 0.343 0.10203 0.46719 0.0
C2562 C 0.32072 0.06759 0.46876 0.0
C2563 C 0.32945 0.06288 0.45428 0.0
C2564 C 0.34533 0.07804 0.44667 0.0
C2565 C 0.3521 0.09743 0.45316 0.0
H2566 H 0.982 0.29409 0.34036 0.0
H2567 H 0.0129 0.30718 0.3963 0.0
H2568 H 0.95276 0.28028 0.35636 0.0
H2569 H 0.98373 0.29333 0.41216 0.0
H2570 H 0.93149 0.28617 0.43651 0.0
H2571 H 0.95949 0.30132 0.41848 0.0
H2572 H 0.93277 0.25174 0.37479 0.0
H2573 H 0.90464 0.23672 0.39268 0.0
C2574 C 0.98255 0.29393 0.35603 0.0
C2575 C -0.00023 0.30173 0.36705 0.0
C2576 C 0.96581 0.28601 0.36516 0.0
C2577 C 0.966 0.2859 0.38551 0.0
C2578 C 0.98319 0.29352 0.39649 0.0
C2579 C -0.00012 0.30128 0.38736 0.0
C2580 C 0.93146 0.27872 0.42284 0.0
C2581 C 0.91593 0.26026 0.416 0.0
C2582 C 0.94755 0.28727 0.41265 0.0
C2583 C 0.94836 0.2776 0.39535 0.0
C2584 C 0.93251 0.25955 0.38805 0.0
C2585 C 0.91647 0.25092 0.39832 0.0
H2586 H 0.0439 0.35842 0.29158 0.0
H2587 H 0.05468 0.3868 0.35015 0.0
H2588 H 0.03587 0.38063 0.27994 0.0
H2589 H 0.04702 0.40942 0.33833 0.0
H2590 H 0.00889 0.42886 0.31248 0.0
H2591 H 0.0193 0.40879 0.32543 0.0
H2592 H 0.04972 0.41417 0.27459 0.0
H2593 H 0.03861 0.43328 0.26125 0.0
C2594 C 0.04478 0.36956 0.30195 0.0
C2595 C 0.04989 0.37082 0.32179 0.0
C2596 C 0.04027 0.38237 0.29525 0.0
C2597 C 0.04082 0.3968 0.30821 0.0
C2598 C 0.04626 0.39831 0.32803 0.0
C2599 C 0.05077 0.38545 0.33476 0.0
C2600 C 0.01773 0.42566 0.30406 0.0
C2601 C 0.02289 0.43265 0.28583 0.0
C2602 C 0.02388 0.41438 0.31158 0.0
C2603 C 0.0353 0.40986 0.301 0.0
C2604 C 0.04076 0.4172 0.28299 0.0
C2605 C 0.03457 0.42838 0.27546 0.0
H2606 H 0.64775 0.64136 0.32161 0.0
H2607 H 0.60173 0.64738 0.3371 0.0
H2608 H 0.62548 0.60806 0.30748 0.0
H2609 H 0.57952 0.61433 0.32256 0.0
H2610 H 0.54478 0.54892 0.3135 0.0
H2611 H 0.56832 0.58141 0.32851 0.0
H2612 H 0.60226 0.58968 0.2801 0.0
H2613 H 0.57872 0.55693 0.26524 0.0
C2614 C 0.63289 0.63562 0.32191 0.0
C2615 C 0.6265 0.647 0.33053 0.0
C2616 C 0.62013 0.61657 0.31373 0.0
C2617 C 0.60073 0.6085 0.31397 0.0
C2618 C 0.59438 0.61997 0.32245 0.0
C2619 C 0.60711 0.63897 0.33068 0.0
C2620 C 0.5573 0.55769 0.3061 0.0
C2621 C 0.55987 0.5505 0.28814 0.0
C2622 C 0.57075 0.57632 0.31465 0.0
C2623 C 0.58706 0.58824 0.30539 0.0
C2624 C 0.58992 0.58082 0.28769 0.0
C2625 C 0.57646 0.56209 0.27917 0.0
H2626 H 0.34642 0.94128 0.38069 0.0
H2627 H 0.36695 0.00163 0.37545 0.0
H2628 H 0.37322 0.94471 0.36435 0.0
H2629 H 0.39342 0.00495 0.35908 0.0
H2630 H 0.44626 0.00961 0.34187 0.0
H2631 H 0.42228 0.00467 0.36378 0.0
H2632 H 0.38272 0.94977 0.33044 0.0
H2633 H 0.40663 0.95473 0.30847 0.0
C2634 C 0.35674 0.95531 0.37627 0.0
C2635 C 0.35452 0.97115 0.37923 0.0
C2636 C 0.37201 0.95724 0.36685 0.0
C2637 C 0.38539 0.97509 0.36042 0.0
C2638 C 0.38349 0.99107 0.36407 0.0
C2639 C 0.36821 0.98912 0.37333 0.0
C2640 C 0.43246 0.99645 0.33927 0.0
C2641 C 0.42828 0.98266 0.32332 0.0
C2642 C 0.41876 0.99361 0.35184 0.0
C2643 C 0.4006 0.97689 0.34874 0.0
C2644 C 0.39665 0.96268 0.33333 0.0
C2645 C 0.41035 0.96554 0.32073 0.0
H2646 H 0.64742 0.98963 0.31915 0.0
H2647 H 0.60591 0.96382 0.36087 0.0
H2648 H 0.62614 0.99452 0.29951 0.0
H2649 H 0.58451 0.96851 0.34102 0.0
H2650 H 0.56235 0.00282 0.31363 0.0
H2651 H 0.58293 0.9963 0.33237 0.0
H2652 H 0.59609 0.97643 0.27908 0.0
H2653 H 0.57578 0.98347 0.26023 0.0
C2654 C 0.63371 0.98488 0.32408 0.0
C2655 C 0.6284 0.97643 0.34164 0.0
C2656 C 0.62147 0.98758 0.31274 0.0
C2657 C 0.60367 0.98196 0.31874 0.0
C2658 C 0.59823 0.97322 0.33614 0.0
C2659 C 0.61045 0.97044 0.34746 0.0
C2660 C 0.56983 0.99729 0.30589 0.0
C2661 C 0.56765 0.99387 0.28544 0.0
C2662 C 0.5814 0.9933 0.31664 0.0
C2663 C 0.59109 0.9858 0.30721 0.0
C2664 C 0.58892 0.98235 0.28674 0.0
C2665 C 0.57723 0.98626 0.27597 0.0
H2666 H 0.06009 0.67009 0.32702 0.0
H2667 H 0.00462 0.65787 0.31138 0.0
H2668 H 0.05124 0.63856 0.31082 0.0
H2669 H 0.99553 0.62602 0.29576 0.0
H2670 H 0.99232 0.579 0.25195 0.0
H2671 H 0.00058 0.61057 0.26795 0.0
H2672 H 0.03224 0.60486 0.31441 0.0
H2673 H 0.02439 0.57369 0.29811 0.0
C2674 C 0.04595 0.6606 0.32026 0.0
C2675 C 0.03306 0.66646 0.32048 0.0
C2676 C 0.04083 0.64246 0.31106 0.0
C2677 C 0.02264 0.6297 0.30203 0.0
C2678 C 0.00973 0.63558 0.30231 0.0
C2679 C 0.01491 0.6538 0.31137 0.0
C2680 C 0.00095 0.58452 0.26564 0.0
C2681 C 0.00785 0.57405 0.27374 0.0
C2682 C 0.00565 0.60255 0.27484 0.0
C2683 C 0.01719 0.61033 0.29241 0.0
C2684 C 0.0237 0.59954 0.30068 0.0
C2685 C 0.01915 0.58165 0.2914 0.0
H2686 H 0.31391 0.35253 0.33614 0.0
H2687 H 0.34956 0.38788 0.38773 0.0
H2688 H 0.34041 0.36783 0.31663 0.0
H2689 H 0.37618 0.40405 0.36789 0.0
H2690 H 0.42327 0.41243 0.33013 0.0
H2691 H 0.39695 0.39839 0.35042 0.0
H2692 H 0.36091 0.39625 0.30317 0.0
H2693 H 0.38667 0.40865 0.2825 0.0
C2694 C 0.32737 0.36389 0.34329 0.0
C2695 C 0.32962 0.369 0.36352 0.0
C2696 C 0.34262 0.37277 0.33203 0.0
C2697 C 0.3605 0.38725 0.34062 0.0
C2698 C 0.36268 0.39274 0.36082 0.0
C2699 C 0.3474 0.38362 0.37218 0.0
C2700 C 0.40965 0.40865 0.32397 0.0
C2701 C 0.40714 0.41165 0.30462 0.0
C2702 C 0.39461 0.40092 0.33574 0.0
C2703 C 0.37676 0.39618 0.32848 0.0
C2704 C 0.37435 0.39942 0.30921 0.0
C2705 C 0.38926 0.40684 0.2974 0.0
H2706 H 0.32766 0.30445 0.37046 0.0
H2707 H 0.28156 0.27994 0.40728 0.0
H2708 H 0.34007 0.28689 0.38525 0.0
H2709 H 0.29408 0.26258 0.42213 0.0
H2710 H 0.31224 0.22094 0.43308 0.0
H2711 H 0.29963 0.23612 0.4142 0.0
H2712 H 0.35467 0.28866 0.41785 0.0
H2713 H 0.3673 0.27348 0.43688 0.0
C2714 C 0.32009 0.29521 0.38159 0.0
C2715 C 0.30364 0.29362 0.38773 0.0
C2716 C 0.32728 0.28526 0.39012 0.0
C2717 C 0.31807 0.2734 0.40485 0.0
C2718 C 0.30138 0.27144 0.41065 0.0
C2719 C 0.29425 0.28147 0.40221 0.0
C2720 C 0.32166 0.23573 0.42984 0.0
C2721 C 0.34072 0.24611 0.43667 0.0
C2722 C 0.31443 0.2444 0.41903 0.0
C2723 C 0.32612 0.26363 0.41472 0.0
C2724 C 0.34535 0.27376 0.42082 0.0
C2725 C 0.35259 0.26508 0.43171 0.0
H2726 H 0.72885 0.01452 0.41571 0.0
H2727 H 0.68671 0.02857 0.40702 0.0
H2728 H 0.75082 0.0474 0.43069 0.0
H2729 H 0.70896 0.06181 0.42132 0.0
H2730 H 0.74873 0.11496 0.4649 0.0
H2731 H 0.72562 0.0817 0.45089 0.0
H2732 H 0.7692 0.0793 0.42197 0.0
H2733 H 0.79218 0.11211 0.43651 0.0
C2734 C 0.72433 0.02469 0.41688 0.0
C2735 C 0.70608 0.01897 0.41012 0.0
C2736 C 0.73696 0.04361 0.42537 0.0
C2737 C 0.73175 0.05736 0.42707 0.0
C2738 C 0.7134 0.05156 0.42046 0.0
C2739 C 0.70067 0.03254 0.41216 0.0
C2740 C 0.75325 0.10724 0.4555 0.0
C2741 C 0.77221 0.11594 0.45193 0.0
C2742 C 0.74005 0.08824 0.44741 0.0
C2743 C 0.74556 0.07771 0.43543 0.0
C2744 C 0.76451 0.08673 0.43153 0.0
C2745 C 0.77768 0.10557 0.43977 0.0
H2746 H 0.95853 0.67122 0.328 0.0
H2747 H 0.99043 0.72015 0.37191 0.0
H2748 H 0.93044 0.66059 0.34538 0.0
H2749 H 0.96249 0.70934 0.38938 0.0
H2750 H 0.90639 0.69336 0.40966 0.0
H2751 H 0.93163 0.70491 0.38796 0.0
H2752 H 0.91959 0.64654 0.37612 0.0
H2753 H 0.89424 0.63498 0.3978 0.0
C2754 C 0.95952 0.67983 0.34123 0.0
C2755 C 0.97675 0.69648 0.34863 0.0
C2756 C 0.94345 0.67365 0.35125 0.0
C2757 C 0.94426 0.68404 0.36881 0.0
C2758 C 0.96133 0.70111 0.37578 0.0
C2759 C 0.97739 0.70726 0.36581 0.0
C2760 C 0.90914 0.683 0.40241 0.0
C2761 C 0.8985 0.6633 0.40561 0.0
C2762 C 0.92357 0.68961 0.38997 0.0
C2763 C 0.92771 0.67668 0.38045 0.0
C2764 C 0.91662 0.65684 0.38308 0.0
C2765 C 0.90213 0.65021 0.39552 0.0
H2766 H 0.35277 0.99242 0.72899 0.0
H2767 H 0.3988 0.04875 0.7173 0.0
H2768 H 0.37442 0.98778 0.74839 0.0
H2769 H 0.42046 0.04408 0.73691 0.0
H2770 H 0.44721 0.03577 0.79229 0.0
H2771 H 0.42554 0.0406 0.77312 0.0
H2772 H 0.40192 0.98386 0.7416 0.0
H2773 H 0.42396 0.9792 0.76013 0.0
C2774 C 0.36751 0.00382 0.73056 0.0
C2775 C 0.3741 0.02096 0.72161 0.0
C2776 C 0.37989 0.00111 0.74161 0.0
C2777 C 0.39907 0.01558 0.74415 0.0
C2778 C 0.40569 0.03277 0.73529 0.0
C2779 C 0.39333 0.03538 0.72399 0.0
C2780 C 0.43752 0.02436 0.78117 0.0
C2781 C 0.43738 0.00708 0.77778 0.0
C2782 C 0.42511 0.02715 0.77024 0.0
C2783 C 0.41213 0.01262 0.75588 0.0
C2784 C 0.41169 0.99521 0.75273 0.0
C2785 C 0.42425 0.99252 0.76346 0.0
H2786 H 0.94317 0.33369 0.73944 0.0
H2787 H 0.9963 0.34359 0.76158 0.0
H2788 H 0.95111 0.36458 0.75657 0.0
H2789 H 0.00458 0.37482 0.7781 0.0
H2790 H 0.00521 0.42045 0.82132 0.0
H2791 H 0.9973 0.38922 0.80475 0.0
H2792 H 0.97123 0.39854 0.75552 0.0
H2793 H 0.97864 0.42934 0.77241 0.0
C2794 C 0.95661 0.34254 0.74785 0.0
C2795 C 0.9691 0.33621 0.74918 0.0
C2796 C 0.96122 0.36032 0.75758 0.0
C2797 C 0.97852 0.37225 0.76869 0.0
C2798 C 0.99102 0.36589 0.76995 0.0
C2799 C 0.98632 0.34802 0.76038 0.0
C2800 C 0.99786 0.41578 0.80693 0.0
C2801 C 0.99241 0.42717 0.79817 0.0
C2802 C 0.99337 0.39795 0.79739 0.0
C2803 C 0.98353 0.39129 0.77882 0.0
C2804 C 0.97842 0.40297 0.76998 0.0
C2805 C 0.98274 0.42065 0.77959 0.0
H2806 H 0.66989 0.64694 0.7058 0.0
H2807 H 0.68661 0.60825 0.72334 0.0
H2808 H 0.64071 0.62852 0.72077 0.0
H2809 H 0.65675 0.58905 0.73762 0.0
H2810 H 0.61431 0.57668 0.78335 0.0
H2811 H 0.64206 0.59157 0.76513 0.0
H2812 H 0.61126 0.59989 0.71985 0.0
H2813 H 0.58378 0.58575 0.73868 0.0
C2814 C 0.66717 0.63423 0.71253 0.0
C2815 C 0.68067 0.62916 0.71353 0.0
C2816 C 0.6503 0.62353 0.72103 0.0
C2817 C 0.64631 0.60728 0.73051 0.0
C2818 C 0.65949 0.60171 0.73079 0.0
C2819 C 0.67655 0.61261 0.72248 0.0
C2820 C 0.6135 0.58159 0.76942 0.0
C2821 C 0.59701 0.5802 0.76243 0.0
C2822 C 0.62935 0.59001 0.75889 0.0
C2823 C 0.62898 0.59698 0.74097 0.0
C2824 C 0.61221 0.59504 0.73376 0.0
C2825 C 0.59645 0.5869 0.74447 0.0
H2826 H 0.72329 0.73068 0.67736 0.0
H2827 H 0.6699 0.67906 0.65652 0.0
H2828 H 0.71138 0.75082 0.6683 0.0
H2829 H 0.65812 0.69914 0.6475 0.0
H2830 H 0.63764 0.74061 0.64904 0.0
H2831 H 0.65001 0.7225 0.66276 0.0
H2832 H 0.70188 0.75741 0.63628 0.0
H2833 H 0.68949 0.77513 0.62219 0.0
C2834 C 0.70902 0.72364 0.67093 0.0
C2835 C 0.69757 0.7033 0.66754 0.0
C2836 C 0.70223 0.73516 0.66573 0.0
C2837 C 0.68381 0.72652 0.65727 0.0
C2838 C 0.67228 0.70618 0.65423 0.0
C2839 C 0.67911 0.6947 0.65924 0.0
C2840 C 0.65169 0.74444 0.64618 0.0
C2841 C 0.66254 0.75932 0.6345 0.0
C2842 C 0.65877 0.73411 0.65407 0.0
C2843 C 0.67689 0.73857 0.65056 0.0
C2844 C 0.68797 0.75386 0.63947 0.0
C2845 C 0.68086 0.76405 0.63145 0.0
H2846 H 0.27162 0.98139 0.6825 0.0
H2847 H 0.31639 0.97825 0.65758 0.0
H2848 H 0.24897 0.94861 0.66763 0.0
H2849 H 0.29387 0.9451 0.64341 0.0
H2850 H 0.24576 0.89427 0.60335 0.0
H2851 H 0.26944 0.92672 0.61861 0.0
H2852 H 0.2381 0.91578 0.66963 0.0
H2853 H 0.21414 0.88376 0.6539 0.0
C2854 C 0.27664 0.9736 0.674 0.0
C2855 C 0.29576 0.9824 0.67117 0.0
C2856 C 0.26366 0.95473 0.66557 0.0
C2857 C 0.26955 0.94409 0.65436 0.0
C2858 C 0.28876 0.95291 0.65168 0.0
C2859 C 0.3017 0.9719 0.65989 0.0
C2860 C 0.24411 0.89883 0.6179 0.0
C2861 C 0.22815 0.88666 0.62744 0.0
C2862 C 0.25768 0.91738 0.6267 0.0
C2863 C 0.25565 0.924 0.64533 0.0
C2864 C 0.23993 0.91142 0.6551 0.0
C2865 C 0.22626 0.89302 0.64618 0.0
H2866 H 0.02132 0.28502 0.71294 0.0
H2867 H 0.03111 0.34171 0.70582 0.0
H2868 H 0.05144 0.2948 0.69996 0.0
H2869 H 0.06098 0.35134 0.69284 0.0
H2870 H 0.12035 0.36785 0.68348 0.0
H2871 H 0.09281 0.35786 0.70173 0.0
H2872 H 0.06319 0.30222 0.66687 0.0
H2873 H 0.09042 0.31223 0.64841 0.0
C2874 C 0.02996 0.2996 0.7088 0.0
C2875 C 0.02378 0.31254 0.71025 0.0
C2876 C 0.04715 0.30516 0.70132 0.0
C2877 C 0.05853 0.32383 0.69537 0.0
C2878 C 0.05262 0.33695 0.69749 0.0
C2879 C 0.03542 0.33135 0.70479 0.0
C2880 C 0.10796 0.35349 0.67972 0.0
C2881 C 0.1076 0.34088 0.66444 0.0
C2882 C 0.09224 0.34775 0.69022 0.0
C2883 C 0.07587 0.32926 0.68572 0.0
C2884 C 0.0757 0.31644 0.67088 0.0
C2885 C 0.09135 0.3222 0.66031 0.0
H2886 H 0.31949 0.33088 0.65069 0.0
H2887 H 0.27994 0.31018 0.69485 0.0
H2888 H 0.30076 0.34061 0.63344 0.0
H2889 H 0.26103 0.31975 0.67737 0.0
H2890 H 0.24539 0.36064 0.65329 0.0
H2891 H 0.26397 0.35036 0.67004 0.0
H2892 H 0.27008 0.32641 0.61489 0.0
H2893 H 0.25185 0.33716 0.59806 0.0
C2894 C 0.30672 0.32828 0.65666 0.0
C2895 C 0.30123 0.31981 0.67419 0.0
C2896 C 0.29594 0.33378 0.6467 0.0
C2897 C 0.27946 0.331 0.65407 0.0
C2898 C 0.27381 0.32229 0.67147 0.0
C2899 C 0.28456 0.31669 0.68141 0.0
C2900 C 0.25096 0.35346 0.64471 0.0
C2901 C 0.24733 0.34985 0.62434 0.0
C2902 C 0.26136 0.34732 0.65434 0.0
C2903 C 0.2684 0.33749 0.64379 0.0
C2904 C 0.26494 0.33407 0.62339 0.0
C2905 C 0.25444 0.34012 0.61377 0.0
H2906 H 0.70054 0.98037 0.6718 0.0
H2907 H 0.6798 0.99792 0.6248 0.0
H2908 H 0.68529 0.94771 0.65487 0.0
H2909 H 0.66434 0.96515 0.60802 0.0
H2910 H 0.66015 0.91109 0.57494 0.0
H2911 H 0.67312 0.94367 0.59146 0.0
H2912 H 0.65346 0.91923 0.64557 0.0
H2913 H 0.64097 0.88672 0.62916 0.0
C2914 C 0.69272 0.97727 0.65788 0.0
C2915 C 0.69142 0.99175 0.64964 0.0
C2916 C 0.68385 0.95851 0.64826 0.0
C2917 C 0.67353 0.95385 0.63017 0.0
C2918 C 0.6723 0.96835 0.62187 0.0
C2919 C 0.68113 0.9871 0.63152 0.0
C2920 C 0.6585 0.9127 0.59033 0.0
C2921 C 0.6496 0.89639 0.60077 0.0
C2922 C 0.66581 0.93132 0.59976 0.0
C2923 C 0.66444 0.934 0.61984 0.0
C2924 C 0.65495 0.91763 0.63013 0.0
C2925 C 0.64758 0.899 0.62069 0.0
H2926 H 0.97781 0.71776 0.66248 0.0
H2927 H 0.00117 0.69478 0.70052 0.0
H2928 H 0.00698 0.73386 0.6465 0.0
H2929 H 0.0301 0.71051 0.68428 0.0
H2930 H 0.08537 0.755 0.66049 0.0
H2931 H 0.05746 0.74175 0.67869 0.0
H2932 H 0.02256 0.72308 0.6246 0.0
H2933 H 0.05039 0.73636 0.6065 0.0
C2934 C 0.9892 0.71628 0.66755 0.0
C2935 C 0.98712 0.7049 0.68269 0.0
C2936 C 0.00586 0.72537 0.65829 0.0
C2937 C 0.02077 0.72328 0.66399 0.0
C2938 C 0.01894 0.71253 0.67964 0.0
C2939 C 0.0023 0.70344 0.68889 0.0
C2940 C 0.07171 0.74788 0.65252 0.0
C2941 C 0.07005 0.74674 0.63208 0.0
C2942 C 0.05574 0.74036 0.66293 0.0
C2943 C 0.03782 0.73153 0.65309 0.0
C2944 C 0.03619 0.73019 0.63264 0.0
C2945 C 0.05212 0.73771 0.62226 0.0
H2946 H 0.93827 0.61248 0.74064 0.0
H2947 H 0.98528 0.6311 0.70542 0.0
H2948 H 0.94678 0.5924 0.75681 0.0
H2949 H 0.99365 0.61084 0.7215 0.0
H2950 H 0.01581 0.59491 0.77493 0.0
H2951 H 0.00634 0.61202 0.75479 0.0
H2952 H 0.94893 0.5634 0.75093 0.0
H2953 H 0.95841 0.54618 0.77091 0.0
C2954 C 0.95028 0.61212 0.73618 0.0
C2955 C 0.96117 0.62348 0.72183 0.0
C2956 C 0.9551 0.60053 0.74538 0.0
C2957 C 0.97094 0.60013 0.74047 0.0
C2958 C 0.9815 0.61106 0.72574 0.0
C2959 C 0.97664 0.62257 0.71646 0.0
C2960 C 0.00123 0.58773 0.7695 0.0
C2961 C 0.98784 0.56926 0.77464 0.0
C2962 C 0.9958 0.59753 0.75797 0.0
C2963 C 0.97687 0.58908 0.75137 0.0
C2964 C 0.96357 0.57039 0.75606 0.0
C2965 C 0.969 0.56057 0.76753 0.0
H2966 H 0.39594 0.3702 0.71069 0.0
H2967 H 0.35809 0.35523 0.7564 0.0
H2968 H 0.41753 0.40175 0.72895 0.0
H2969 H 0.3795 0.3869 0.77444 0.0
H2970 H 0.43319 0.43564 0.81052 0.0
H2971 H 0.41034 0.40447 0.79228 0.0
H2972 H 0.42005 0.43235 0.73934 0.0
H2973 H 0.4434 0.46337 0.75745 0.0
C2974 C 0.39219 0.37366 0.72458 0.0
C2975 C 0.37533 0.36019 0.7321 0.0
C2976 C 0.40449 0.3918 0.73498 0.0
C2977 C 0.4002 0.39684 0.75312 0.0
C2978 C 0.38331 0.38337 0.76061 0.0
C2979 C 0.37101 0.36525 0.75022 0.0
C2980 C 0.43041 0.43509 0.79499 0.0
C2981 C 0.44011 0.45193 0.78541 0.0
C2982 C 0.41722 0.41728 0.78457 0.0
C2983 C 0.41346 0.41593 0.76435 0.0
C2984 C 0.42282 0.43288 0.75486 0.0
C2985 C 0.436 0.45069 0.76528 0.0
H2986 H 0.65716 0.05342 0.68576 0.0
H2987 H 0.66074 0.01243 0.71875 0.0
H2988 H 0.62893 0.04646 0.70155 0.0
H2989 H 0.63297 0.0058 0.7346 0.0
H2990 H 0.57328 0.98342 0.74614 0.0
H2991 H 0.5994 0.99011 0.72692 0.0
H2992 H 0.6197 0.05131 0.73407 0.0
H2993 H 0.59309 0.04451 0.75268 0.0
C2994 C 0.65197 0.04299 0.69638 0.0
C2995 C 0.66117 0.03346 0.70097 0.0
C2996 C 0.63586 0.03905 0.70546 0.0
C2997 C 0.62865 0.02547 0.71921 0.0
C2998 C 0.63794 0.01605 0.7238 0.0
C2999 C 0.65397 0.01999 0.71479 0.0
C3000 C 0.5831 0.99826 0.7433 0.0
C3001 C 0.58116 0.01345 0.75103 0.0
C3002 C 0.59819 0.00212 0.73247 0.0
C3003 C 0.61173 0.02127 0.72915 0.0
C3004 C 0.60946 0.0364 0.7363 0.0
C3005 C 0.59434 0.03253 0.74715 0.0
loop_
_geom_bond_atom_site_label_1
_geom_bond_atom_site_label_2
_geom_bond_distance
_geom_bond_site_symmetry_2
_ccdc_geom_bond_type
C0 O1 1.160 . S
C0 O7 1.185 . S
O1 C0 1.160 . S
O2 Zn3 1.899 1_655 S
O2 C10 1.284 . S
Zn3 O2 1.899 1_455 S
Zn3 O4 2.032 . S
Zn3 O7 2.086 . S
Zn3 O12 1.977 . S
O4 Zn3 2.032 . S
O4 C8 1.278 1_455 S
C5 O6 1.203 1_455 S
C5 O12 1.267 1_556 S
O6 C5 1.203 1_655 S
O7 C0 1.185 . S
O7 Zn3 2.086 . S
C8 O4 1.278 1_655 S
C8 O9 1.211 . S
O9 C8 1.211 . S
C10 O2 1.284 . S
C10 O11 1.273 . S
O11 C10 1.273 . S
O12 Zn3 1.977 . S
O12 C5 1.267 1_554 S
C13 O14 1.160 . S
C13 O20 1.185 . S
O14 C13 1.160 . S
O15 Zn16 1.899 . S
O15 C23 1.284 . S
Zn16 O15 1.899 . S
Zn16 O17 2.032 . S
Zn16 O20 2.086 . S
Zn16 O25 1.977 . S
O17 Zn16 2.032 . S
O17 C21 1.278 . S
C18 O19 1.203 . S
C18 O25 1.267 . S
O19 C18 1.203 . S
O20 C13 1.185 . S
O20 Zn16 2.086 . S
C21 O17 1.278 . S
C21 O22 1.211 . S
O22 C21 1.211 . S
C23 O15 1.284 . S
C23 O24 1.273 . S
O24 C23 1.273 . S
O25 Zn16 1.977 . S
O25 C18 1.267 . S
C26 O27 1.160 . S
C26 O33 1.185 . S
O27 C26 1.160 . S
O28 Zn29 1.899 1_565 S
O28 C36 1.284 . S
Zn29 O28 1.899 1_545 S
Zn29 O30 2.032 . S
Zn29 O33 2.086 . S
Zn29 O38 1.977 . S
O30 Zn29 2.032 . S
O30 C34 1.278 1_545 S
C31 O32 1.203 1_545 S
C31 O38 1.267 . S
O32 C31 1.203 1_565 S
O33 C26 1.185 . S
O33 Zn29 2.086 . S
C34 O30 1.278 1_565 S
C34 O35 1.211 . S
O35 C34 1.211 . S
C36 O28 1.284 . S
C36 O37 1.273 . S
O37 C36 1.273 . S
O38 Zn29 1.977 . S
O38 C31 1.267 . S
C39 O40 1.160 . S
C39 O46 1.185 . S
O40 C39 1.160 . S
O41 Zn42 1.899 1_455 S
O41 C49 1.284 . S
Zn42 O41 1.899 1_655 S
Zn42 O43 2.017 1_655 S
Zn42 O46 2.086 . S
Zn42 O51 1.977 . S
O43 Zn42 2.017 1_455 S
O43 C47 1.310 . S
C44 O45 1.203 1_655 S
C44 O51 1.267 . S
O45 C44 1.203 1_455 S
O46 C39 1.185 . S
O46 Zn42 2.086 . S
C47 O43 1.310 . S
C47 O48 1.211 . S
O48 C47 1.211 . S
C49 O41 1.284 . S
C49 O50 1.273 . S
O50 C49 1.273 . S
O51 Zn42 1.977 . S
O51 C44 1.267 . S
C52 O53 1.160 . S
C52 O59 1.185 . S
O53 C52 1.160 . S
O54 Zn55 1.899 1_556 S
O54 C62 1.284 . S
Zn55 O54 1.899 1_554 S
Zn55 O56 2.032 . S
Zn55 O59 2.086 . S
Zn55 O64 1.977 1_554 S
O56 Zn55 2.032 . S
O56 C60 1.278 . S
C57 O58 1.203 . S
C57 O64 1.267 . S
O58 C57 1.203 . S
O59 C52 1.185 . S
O59 Zn55 2.086 . S
C60 O56 1.278 . S
C60 O61 1.211 . S
O61 C60 1.211 . S
C62 O54 1.284 . S
C62 O63 1.270 1_556 S
O63 C62 1.270 1_554 S
O64 Zn55 1.977 1_556 S
O64 C57 1.267 . S
C65 O66 1.160 . S
C65 O72 1.185 . S
O66 C65 1.160 . S
O67 Zn68 1.899 1_545 S
O67 C75 1.284 . S
Zn68 O67 1.899 1_565 S
Zn68 O69 2.032 1_565 S
Zn68 O72 2.086 . S
Zn68 O77 1.977 . S
O69 Zn68 2.032 1_545 S
O69 C73 1.278 . S
C70 O71 1.203 1_565 S
C70 O77 1.267 . S
O71 C70 1.203 1_545 S
O72 C65 1.185 . S
O72 Zn68 2.086 . S
C73 O69 1.278 . S
C73 O74 1.211 . S
O74 C73 1.211 . S
C75 O67 1.284 . S
C75 O76 1.273 . S
O76 C75 1.273 . S
O77 Zn68 1.977 . S
O77 C70 1.267 . S
C78 O79 1.160 . S
C78 O85 1.185 . S
O79 C78 1.160 . S
O80 Zn81 1.899 . S
O80 C88 1.284 . S
Zn81 O80 1.899 . S
Zn81 O82 2.032 . S
Zn81 O85 2.086 . S
Zn81 O90 1.977 . S
O82 Zn81 2.032 . S
O82 C86 1.278 . S
C83 O84 1.203 . S
C83 O90 1.267 . S
O84 C83 1.203 . S
O85 C78 1.185 . S
O85 Zn81 2.086 . S
C86 O82 1.278 . S
C86 O87 1.211 . S
O87 C86 1.211 . S
C88 O80 1.284 . S
C88 O89 1.273 . S
O89 C88 1.273 . S
O90 Zn81 1.977 . S
O90 C83 1.267 . S
C91 O92 1.160 . S
C91 O98 1.185 . S
O92 C91 1.160 . S
O93 Zn94 1.899 . S
O93 C101 1.284 . S
Zn94 O93 1.899 . S
Zn94 O95 2.032 . S
Zn94 O98 2.086 . S
Zn94 O103 1.977 . S
O95 Zn94 2.032 . S
O95 C99 1.278 . S
C96 O97 1.203 . S
C96 O103 1.267 . S
O97 C96 1.203 . S
O98 C91 1.185 . S
O98 Zn94 2.086 . S
C99 O95 1.278 . S
C99 O100 1.211 . S
O100 C99 1.211 . S
C101 O93 1.284 . S
C101 O102 1.273 . S
O102 C101 1.273 . S
O103 Zn94 1.977 . S
O103 C96 1.267 . S
C104 O105 1.160 . S
C104 O111 1.185 . S
O105 C104 1.160 . S
O106 Zn107 1.899 . S
O106 C114 1.284 . S
Zn107 O106 1.899 . S
Zn107 O108 2.032 . S
Zn107 O111 2.086 . S
Zn107 O116 1.977 . S
O108 Zn107 2.032 . S
O108 C112 1.278 . S
C109 O110 1.203 . S
C109 O116 1.267 . S
O110 C109 1.203 . S
O111 C104 1.185 . S
O111 Zn107 2.086 . S
C112 O108 1.278 . S
C112 O113 1.211 . S
O113 C112 1.211 . S
C114 O106 1.284 . S
C114 O115 1.273 . S
O115 C114 1.273 . S
O116 Zn107 1.977 . S
O116 C109 1.267 . S
C117 O118 1.160 . S
C117 O124 1.185 . S
O118 C117 1.160 . S
O119 Zn120 1.899 . S
O119 C127 1.284 . S
Zn120 O119 1.899 . S
Zn120 O121 2.032 . S
Zn120 O124 2.086 . S
Zn120 O129 1.977 . S
O121 Zn120 2.032 . S
O121 C125 1.278 . S
C122 O123 1.203 . S
C122 O129 1.267 . S
O123 C122 1.203 . S
O124 C117 1.185 . S
O124 Zn120 2.086 . S
C125 O121 1.278 . S
C125 O126 1.211 . S
O126 C125 1.211 . S
C127 O119 1.284 . S
C127 O128 1.273 . S
O128 C127 1.273 . S
O129 Zn120 1.977 . S
O129 C122 1.267 . S
C130 O131 1.160 . S
C130 O137 1.185 1_655 S
O131 C130 1.160 . S
O132 Zn133 1.899 . S
O132 C140 1.284 . S
Zn133 O132 1.899 . S
Zn133 O134 2.032 . S
Zn133 O137 2.086 . S
Zn133 O142 1.977 . S
O134 Zn133 2.032 . S
O134 C138 1.278 . S
C135 O136 1.203 . S
C135 O142 1.267 . S
O136 C135 1.203 . S
O137 C130 1.185 1_455 S
O137 Zn133 2.086 . S
C138 O134 1.278 . S
C138 O139 1.211 . S
O139 C138 1.211 . S
C140 O132 1.284 . S
C140 O141 1.273 . S
O141 C140 1.273 . S
O142 Zn133 1.977 . S
O142 C135 1.267 . S
C143 O144 1.160 . S
C143 O150 1.185 . S
O144 C143 1.160 . S
O145 Zn146 1.899 . S
O145 C153 1.284 . S
Zn146 O145 1.899 . S
Zn146 O147 2.032 . S
Zn146 O150 2.086 . S
Zn146 O155 1.977 . S
O147 Zn146 2.032 . S
O147 C151 1.278 . S
C148 O149 1.203 . S
C148 O155 1.267 . S
O149 C148 1.203 . S
O150 C143 1.185 . S
O150 Zn146 2.086 . S
C151 O147 1.278 . S
C151 O152 1.211 . S
O152 C151 1.211 . S
C153 O145 1.284 . S
C153 O154 1.273 . S
O154 C153 1.273 . S
O155 Zn146 1.977 . S
O155 C148 1.267 . S
C156 O157 1.160 . S
C156 O163 1.185 . S
O157 C156 1.160 . S
O158 Zn159 1.899 . S
O158 C166 1.284 . S
Zn159 O158 1.899 . S
Zn159 O160 2.032 . S
Zn159 O163 2.086 . S
Zn159 O168 1.977 . S
O160 Zn159 2.032 . S
O160 C164 1.278 . S
C161 O162 1.203 . S
C161 O168 1.267 . S
O162 C161 1.203 . S
O163 C156 1.185 . S
O163 Zn159 2.086 . S
C164 O160 1.278 . S
C164 O165 1.211 . S
O165 C164 1.211 . S
C166 O158 1.284 . S
C166 O167 1.273 . S
O167 C166 1.273 . S
O168 Zn159 1.977 . S
O168 C161 1.267 . S
C169 O170 1.160 . S
C169 O176 1.185 1_455 S
O170 C169 1.160 . S
O171 Zn172 1.899 . S
O171 C179 1.284 . S
Zn172 O171 1.899 . S
Zn172 O173 2.032 . S
Zn172 O176 2.086 . S
Zn172 O181 1.977 . S
O173 Zn172 2.032 . S
O173 C177 1.278 . S
C174 O175 1.203 . S
C174 O181 1.267 . S
O175 C174 1.203 . S
O176 C169 1.185 1_655 S
O176 Zn172 2.086 . S
C177 O173 1.278 . S
C177 O178 1.211 . S
O178 C177 1.211 . S
C179 O171 1.284 . S
C179 O180 1.273 . S
O180 C179 1.273 . S
O181 Zn172 1.977 . S
O181 C174 1.267 . S
C182 O183 1.160 . S
C182 O189 1.185 . S
O183 C182 1.160 . S
O184 Zn185 1.899 . S
O184 C192 1.284 . S
Zn185 O184 1.899 . S
Zn185 O186 2.032 . S
Zn185 O189 2.086 . S
Zn185 O194 1.977 . S
O186 Zn185 2.032 . S
O186 C190 1.278 . S
C187 O188 1.203 . S
C187 O194 1.267 . S
O188 C187 1.203 . S
O189 C182 1.185 . S
O189 Zn185 2.086 . S
C190 O186 1.278 . S
C190 O191 1.211 . S
O191 C190 1.211 . S
C192 O184 1.284 . S
C192 O193 1.273 . S
O193 C192 1.273 . S
O194 Zn185 1.977 . S
O194 C187 1.267 . S
C195 O196 1.160 . S
C195 O202 1.185 . S
O196 C195 1.160 . S
O197 Zn198 1.899 . S
O197 C205 1.284 . S
Zn198 O197 1.899 . S
Zn198 O199 2.032 . S
Zn198 O202 2.086 . S
Zn198 O207 1.977 . S
O199 Zn198 2.032 . S
O199 C203 1.278 . S
C200 O201 1.203 . S
C200 O207 1.267 . S
O201 C200 1.203 . S
O202 C195 1.185 . S
O202 Zn198 2.086 . S
C203 O199 1.278 . S
C203 O204 1.211 . S
O204 C203 1.211 . S
C205 O197 1.284 . S
C205 O206 1.273 . S
O206 C205 1.273 . S
O207 Zn198 1.977 . S
O207 C200 1.267 . S
C208 O209 1.160 . S
C208 O215 1.185 . S
O209 C208 1.160 . S
O210 Zn211 1.899 . S
O210 C218 1.284 . S
Zn211 O210 1.899 . S
Zn211 O212 2.032 . S
Zn211 O215 2.086 . S
Zn211 O220 1.977 . S
O212 Zn211 2.032 . S
O212 C216 1.278 . S
C213 O214 1.203 . S
C213 O220 1.267 . S
O214 C213 1.203 . S
O215 C208 1.185 . S
O215 Zn211 2.086 . S
C216 O212 1.278 . S
C216 O217 1.211 . S
O217 C216 1.211 . S
C218 O210 1.284 . S
C218 O219 1.273 . S
O219 C218 1.273 . S
O220 Zn211 1.977 . S
O220 C213 1.267 . S
C221 O222 1.160 . S
C221 O228 1.185 . S
O222 C221 1.160 . S
O223 Zn224 1.899 . S
O223 C231 1.284 . S
Zn224 O223 1.899 . S
Zn224 O225 2.032 . S
Zn224 O228 2.086 . S
Zn224 O233 1.977 . S
O225 Zn224 2.032 . S
O225 C229 1.278 . S
C226 O227 1.203 . S
C226 O233 1.267 . S
O227 C226 1.203 . S
O228 C221 1.185 . S
O228 Zn224 2.086 . S
C229 O225 1.278 . S
C229 O230 1.211 . S
O230 C229 1.211 . S
C231 O223 1.284 . S
C231 O232 1.273 . S
O232 C231 1.273 . S
O233 Zn224 1.977 . S
O233 C226 1.267 . S
H234 O260 0.856 . S
H235 O263 0.854 . S
H236 C271 0.930 . S
H237 C272 0.930 . S
H238 C274 0.930 . S
H239 C275 0.930 . S
H240 C277 0.931 . S
H241 C278 0.930 . S
H242 C280 0.930 . S
H243 C281 0.929 . S
H244 C283 0.930 . S
H245 C284 0.931 . S
H246 C286 0.930 . S
H247 C287 0.929 . S
H248 C289 0.931 . S
H249 C290 0.930 . S
H250 C292 0.930 . S
H251 C293 0.932 . S
H252 C295 0.930 . S
H253 C296 0.929 . S
H254 C298 0.931 . S
H255 C299 0.930 . S
H256 C301 0.929 . S
H257 C302 0.931 . S
H258 C304 0.930 . S
H259 C305 0.929 . S
O260 H234 0.856 . S
O260 C306 1.300 . S
O261 C306 1.209 . S
O262 C307 1.199 . S
O263 H235 0.854 . S
O263 C307 1.297 . S
C264 C265 1.404 . S
C264 C269 1.397 . S
C264 C270 1.492 . S
C265 C264 1.404 . S
C265 C266 1.396 . S
C265 C276 1.492 . S
C266 C265 1.396 . S
C266 C267 1.397 . S
C266 C282 1.509 . S
C267 C266 1.397 . S
C267 C268 1.412 . S
C267 C288 1.485 . S
C268 C267 1.412 . S
C268 C269 1.388 . S
C268 C294 1.490 . S
C269 C264 1.397 . S
C269 C268 1.388 . S
C269 C300 1.519 . S
C270 C264 1.492 . S
C270 C271 1.363 . S
C270 C275 1.390 . S
C271 H236 0.930 . S
C271 C270 1.363 . S
C271 C272 1.372 . S
C272 H237 0.930 . S
C272 C271 1.372 . S
C272 C273 1.383 . S
C273 C272 1.383 . S
C273 C274 1.395 . S
C274 H238 0.930 . S
C274 C273 1.395 . S
C274 C275 1.362 . S
C275 H239 0.930 . S
C275 C270 1.390 . S
C275 C274 1.362 . S
C276 C265 1.492 . S
C276 C277 1.377 . S
C276 C281 1.397 . S
C277 H240 0.931 . S
C277 C276 1.377 . S
C277 C278 1.376 . S
C278 H241 0.930 . S
C278 C277 1.376 . S
C278 C279 1.376 . S
C279 C278 1.376 . S
C279 C280 1.378 . S
C279 C306 1.486 . S
C280 H242 0.930 . S
C280 C279 1.378 . S
C280 C281 1.376 . S
C281 H243 0.929 . S
C281 C276 1.397 . S
C281 C280 1.376 . S
C282 C266 1.509 . S
C282 C283 1.391 . S
C282 C287 1.386 . S
C283 H244 0.930 . S
C283 C282 1.391 . S
C283 C284 1.375 . S
C284 H245 0.931 . S
C284 C283 1.375 . S
C284 C285 1.375 . S
C285 C284 1.375 . S
C285 C286 1.361 . S
C286 H246 0.930 . S
C286 C285 1.361 . S
C286 C287 1.399 . S
C287 H247 0.929 . S
C287 C282 1.386 . S
C287 C286 1.399 . S
C288 C267 1.485 . S
C288 C289 1.394 . S
C288 C293 1.360 . S
C289 H248 0.931 . S
C289 C288 1.394 . S
C289 C290 1.372 . S
C290 H249 0.930 . S
C290 C289 1.372 . S
C290 C291 1.397 . S
C291 C290 1.397 . S
C291 C292 1.390 . S
C291 C307 1.476 . S
C292 H250 0.930 . S
C292 C291 1.390 . S
C292 C293 1.366 . S
C293 H251 0.932 . S
C293 C288 1.360 . S
C293 C292 1.366 . S
C294 C268 1.490 . S
C294 C295 1.380 . S
C294 C299 1.386 . S
C295 H252 0.930 . S
C295 C294 1.380 . S
C295 C296 1.381 . S
C296 H253 0.929 . S
C296 C295 1.381 . S
C296 C297 1.371 . S
C297 C296 1.371 . S
C297 C298 1.380 . S
C298 H254 0.931 . S
C298 C297 1.380 . S
C298 C299 1.387 . S
C299 H255 0.930 . S
C299 C294 1.386 . S
C299 C298 1.387 . S
C300 C269 1.519 . S
C300 C301 1.377 . S
C300 C305 1.361 . S
C301 H256 0.929 . S
C301 C300 1.377 . S
C301 C302 1.386 . S
C302 H257 0.931 . S
C302 C301 1.386 . S
C302 C303 1.363 . S
C303 C302 1.363 . S
C303 C304 1.385 . S
C304 H258 0.930 . S
C304 C303 1.385 . S
C304 C305 1.396 . S
C305 H259 0.929 . S
C305 C300 1.361 . S
C305 C304 1.396 . S
C306 O260 1.300 . S
C306 O261 1.209 . S
C306 C279 1.486 . S
C307 O262 1.199 . S
C307 O263 1.297 . S
C307 C291 1.476 . S
H308 O334 0.856 . S
H309 O337 0.854 . S
H310 C345 0.930 . S
H311 C346 0.930 . S
H312 C348 0.930 . S
H313 C349 0.930 . S
H314 C351 0.931 . S
H315 C352 0.930 . S
H316 C354 0.930 . S
H317 C355 0.929 . S
H318 C357 0.930 . S
H319 C358 0.931 . S
H320 C360 0.930 . S
H321 C361 0.929 . S
H322 C363 0.931 . S
H323 C364 0.930 . S
H324 C366 0.930 . S
H325 C367 0.932 . S
H326 C369 0.930 . S
H327 C370 0.929 . S
H328 C372 0.931 . S
H329 C373 0.930 . S
H330 C375 0.929 . S
H331 C376 0.931 . S
H332 C378 0.930 . S
H333 C379 0.929 . S
O334 H308 0.856 . S
O334 C380 1.300 . S
O335 C380 1.209 . S
O336 C381 1.199 . S
O337 H309 0.854 . S
O337 C381 1.297 . S
C338 C339 1.404 . S
C338 C343 1.397 . S
C338 C344 1.492 . S
C339 C338 1.404 . S
C339 C340 1.396 . S
C339 C350 1.492 . S
C340 C339 1.396 . S
C340 C341 1.397 . S
C340 C356 1.509 . S
C341 C340 1.397 . S
C341 C342 1.412 . S
C341 C362 1.485 . S
C342 C341 1.412 . S
C342 C343 1.388 . S
C342 C368 1.490 . S
C343 C338 1.397 . S
C343 C342 1.388 . S
C343 C374 1.519 . S
C344 C338 1.492 . S
C344 C345 1.363 . S
C344 C349 1.390 . S
C345 H310 0.930 . S
C345 C344 1.363 . S
C345 C346 1.372 . S
C346 H311 0.930 . S
C346 C345 1.372 . S
C346 C347 1.383 . S
C347 C346 1.383 . S
C347 C348 1.395 . S
C348 H312 0.930 . S
C348 C347 1.395 . S
C348 C349 1.362 . S
C349 H313 0.930 . S
C349 C344 1.390 . S
C349 C348 1.362 . S
C350 C339 1.492 . S
C350 C351 1.377 . S
C350 C355 1.397 . S
C351 H314 0.931 . S
C351 C350 1.377 . S
C351 C352 1.376 . S
C352 H315 0.930 . S
C352 C351 1.376 . S
C352 C353 1.376 . S
C353 C352 1.376 . S
C353 C354 1.378 . S
C353 C380 1.486 . S
C354 H316 0.930 . S
C354 C353 1.378 . S
C354 C355 1.376 . S
C355 H317 0.929 . S
C355 C350 1.397 . S
C355 C354 1.376 . S
C356 C340 1.509 . S
C356 C357 1.391 . S
C356 C361 1.386 . S
C357 H318 0.930 . S
C357 C356 1.391 . S
C357 C358 1.375 . S
C358 H319 0.931 . S
C358 C357 1.375 . S
C358 C359 1.375 . S
C359 C358 1.375 . S
C359 C360 1.361 . S
C360 H320 0.930 . S
C360 C359 1.361 . S
C360 C361 1.399 . S
C361 H321 0.929 . S
C361 C356 1.386 . S
C361 C360 1.399 . S
C362 C341 1.485 . S
C362 C363 1.394 . S
C362 C367 1.360 . S
C363 H322 0.931 . S
C363 C362 1.394 . S
C363 C364 1.372 . S
C364 H323 0.930 . S
C364 C363 1.372 . S
C364 C365 1.397 . S
C365 C364 1.397 . S
C365 C366 1.390 . S
C365 C381 1.476 . S
C366 H324 0.930 . S
C366 C365 1.390 . S
C366 C367 1.366 . S
C367 H325 0.932 . S
C367 C362 1.360 . S
C367 C366 1.366 . S
C368 C342 1.490 . S
C368 C369 1.380 . S
C368 C373 1.386 . S
C369 H326 0.930 . S
C369 C368 1.380 . S
C369 C370 1.381 . S
C370 H327 0.929 . S
C370 C369 1.381 . S
C370 C371 1.371 . S
C371 C370 1.371 . S
C371 C372 1.380 . S
C372 H328 0.931 . S
C372 C371 1.380 . S
C372 C373 1.387 . S
C373 H329 0.930 . S
C373 C368 1.386 . S
C373 C372 1.387 . S
C374 C343 1.519 . S
C374 C375 1.377 . S
C374 C379 1.361 . S
C375 H330 0.929 . S
C375 C374 1.377 . S
C375 C376 1.386 . S
C376 H331 0.931 . S
C376 C375 1.386 . S
C376 C377 1.363 . S
C377 C376 1.363 . S
C377 C378 1.385 . S
C378 H332 0.930 . S
C378 C377 1.385 . S
C378 C379 1.396 . S
C379 H333 0.929 . S
C379 C374 1.361 . S
C379 C378 1.396 . S
C380 O334 1.300 . S
C380 O335 1.209 . S
C380 C353 1.486 . S
C381 O336 1.199 . S
C381 O337 1.297 . S
C381 C365 1.476 . S
H382 O408 0.856 . S
H383 O411 0.854 . S
H384 C419 0.930 . S
H385 C420 0.930 . S
H386 C422 0.930 . S
H387 C423 0.930 . S
H388 C425 0.931 . S
H389 C426 0.930 . S
H390 C428 0.930 . S
H391 C429 0.929 . S
H392 C431 0.930 . S
H393 C432 0.931 . S
H394 C434 0.930 . S
H395 C435 0.929 . S
H396 C437 0.931 . S
H397 C438 0.930 . S
H398 C440 0.930 . S
H399 C441 0.932 . S
H400 C443 0.930 . S
H401 C444 0.929 . S
H402 C446 0.931 . S
H403 C447 0.930 . S
H404 C449 0.929 . S
H405 C450 0.931 . S
H406 C452 0.930 . S
H407 C453 0.929 . S
O408 H382 0.856 . S
O408 C454 1.300 . S
O409 C454 1.209 . S
O410 C455 1.199 . S
O411 H383 0.854 . S
O411 C455 1.297 . S
C412 C413 1.404 . S
C412 C417 1.397 . S
C412 C418 1.492 . S
C413 C412 1.404 . S
C413 C414 1.396 . S
C413 C424 1.492 . S
C414 C413 1.396 . S
C414 C415 1.397 . S
C414 C430 1.509 . S
C415 C414 1.397 . S
C415 C416 1.412 . S
C415 C436 1.485 . S
C416 C415 1.412 . S
C416 C417 1.388 . S
C416 C442 1.490 . S
C417 C412 1.397 . S
C417 C416 1.388 . S
C417 C448 1.519 . S
C418 C412 1.492 . S
C418 C419 1.363 . S
C418 C423 1.390 . S
C419 H384 0.930 . S
C419 C418 1.363 . S
C419 C420 1.372 . S
C420 H385 0.930 . S
C420 C419 1.372 . S
C420 C421 1.383 . S
C421 C420 1.383 . S
C421 C422 1.395 . S
C422 H386 0.930 . S
C422 C421 1.395 . S
C422 C423 1.362 . S
C423 H387 0.930 . S
C423 C418 1.390 . S
C423 C422 1.362 . S
C424 C413 1.492 . S
C424 C425 1.377 . S
C424 C429 1.397 . S
C425 H388 0.931 . S
C425 C424 1.377 . S
C425 C426 1.376 . S
C426 H389 0.930 . S
C426 C425 1.376 . S
C426 C427 1.376 . S
C427 C426 1.376 . S
C427 C428 1.378 . S
C427 C454 1.486 . S
C428 H390 0.930 . S
C428 C427 1.378 . S
C428 C429 1.376 . S
C429 H391 0.929 . S
C429 C424 1.397 . S
C429 C428 1.376 . S
C430 C414 1.509 . S
C430 C431 1.391 . S
C430 C435 1.386 . S
C431 H392 0.930 . S
C431 C430 1.391 . S
C431 C432 1.375 . S
C432 H393 0.931 . S
C432 C431 1.375 . S
C432 C433 1.375 . S
C433 C432 1.375 . S
C433 C434 1.361 . S
C434 H394 0.930 . S
C434 C433 1.361 . S
C434 C435 1.399 . S
C435 H395 0.929 . S
C435 C430 1.386 . S
C435 C434 1.399 . S
C436 C415 1.485 . S
C436 C437 1.394 . S
C436 C441 1.360 . S
C437 H396 0.931 . S
C437 C436 1.394 . S
C437 C438 1.372 . S
C438 H397 0.930 . S
C438 C437 1.372 . S
C438 C439 1.397 . S
C439 C438 1.397 . S
C439 C440 1.390 . S
C439 C455 1.476 . S
C440 H398 0.930 . S
C440 C439 1.390 . S
C440 C441 1.366 . S
C441 H399 0.932 . S
C441 C436 1.360 . S
C441 C440 1.366 . S
C442 C416 1.490 . S
C442 C443 1.380 . S
C442 C447 1.386 . S
C443 H400 0.930 . S
C443 C442 1.380 . S
C443 C444 1.381 . S
C444 H401 0.929 . S
C444 C443 1.381 . S
C444 C445 1.371 . S
C445 C444 1.371 . S
C445 C446 1.380 . S
C446 H402 0.931 . S
C446 C445 1.380 . S
C446 C447 1.387 . S
C447 H403 0.930 . S
C447 C442 1.386 . S
C447 C446 1.387 . S
C448 C417 1.519 . S
C448 C449 1.377 . S
C448 C453 1.361 . S
C449 H404 0.929 . S
C449 C448 1.377 . S
C449 C450 1.386 . S
C450 H405 0.931 . S
C450 C449 1.386 . S
C450 C451 1.363 . S
C451 C450 1.363 . S
C451 C452 1.385 . S
C452 H406 0.930 . S
C452 C451 1.385 . S
C452 C453 1.396 . S
C453 H407 0.929 . S
C453 C448 1.361 . S
C453 C452 1.396 . S
C454 O408 1.300 . S
C454 O409 1.209 . S
C454 C427 1.486 . S
C455 O410 1.199 . S
C455 O411 1.297 . S
C455 C439 1.476 . S
H456 O482 0.856 . S
H457 O485 0.854 . S
H458 C493 0.930 . S
H459 C494 0.930 . S
H460 C496 0.930 . S
H461 C497 0.930 . S
H462 C499 0.931 . S
H463 C500 0.930 . S
H464 C502 0.930 . S
H465 C503 0.929 . S
H466 C505 0.930 . S
H467 C506 0.931 . S
H468 C508 0.930 . S
H469 C509 0.929 . S
H470 C511 0.931 . S
H471 C512 0.930 . S
H472 C514 0.930 . S
H473 C515 0.932 . S
H474 C517 0.930 . S
H475 C518 0.929 . S
H476 C520 0.931 . S
H477 C521 0.930 . S
H478 C523 0.929 . S
H479 C524 0.931 . S
H480 C526 0.930 . S
H481 C527 0.929 . S
O482 H456 0.856 . S
O482 C528 1.285 1_554 S
O483 C528 1.204 1_554 S
O484 C529 1.199 . S
O485 H457 0.854 . S
O485 C529 1.297 . S
C486 C487 1.404 . S
C486 C491 1.397 . S
C486 C492 1.492 . S
C487 C486 1.404 . S
C487 C488 1.396 . S
C487 C498 1.492 . S
C488 C487 1.396 . S
C488 C489 1.397 . S
C488 C504 1.509 . S
C489 C488 1.397 . S
C489 C490 1.412 . S
C489 C510 1.485 . S
C490 C489 1.412 . S
C490 C491 1.388 . S
C490 C516 1.490 . S
C491 C486 1.397 . S
C491 C490 1.388 . S
C491 C522 1.519 . S
C492 C486 1.492 . S
C492 C493 1.363 . S
C492 C497 1.390 . S
C493 H458 0.930 . S
C493 C492 1.363 . S
C493 C494 1.372 . S
C494 H459 0.930 . S
C494 C493 1.372 . S
C494 C495 1.383 . S
C495 C494 1.383 . S
C495 C496 1.395 . S
C496 H460 0.930 . S
C496 C495 1.395 . S
C496 C497 1.362 . S
C497 H461 0.930 . S
C497 C492 1.390 . S
C497 C496 1.362 . S
C498 C487 1.492 . S
C498 C499 1.377 . S
C498 C503 1.397 . S
C499 H462 0.931 . S
C499 C498 1.377 . S
C499 C500 1.376 . S
C500 H463 0.930 . S
C500 C499 1.376 . S
C500 C501 1.376 . S
C501 C500 1.376 . S
C501 C502 1.378 . S
C501 C528 1.507 . S
C502 H464 0.930 . S
C502 C501 1.378 . S
C502 C503 1.376 . S
C503 H465 0.929 . S
C503 C498 1.397 . S
C503 C502 1.376 . S
C504 C488 1.509 . S
C504 C505 1.391 . S
C504 C509 1.386 . S
C505 H466 0.930 . S
C505 C504 1.391 . S
C505 C506 1.375 . S
C506 H467 0.931 . S
C506 C505 1.375 . S
C506 C507 1.375 . S
C507 C506 1.375 . S
C507 C508 1.361 . S
C508 H468 0.930 . S
C508 C507 1.361 . S
C508 C509 1.399 . S
C509 H469 0.929 . S
C509 C504 1.386 . S
C509 C508 1.399 . S
C510 C489 1.485 . S
C510 C511 1.394 . S
C510 C515 1.360 . S
C511 H470 0.931 . S
C511 C510 1.394 . S
C511 C512 1.372 . S
C512 H471 0.930 . S
C512 C511 1.372 . S
C512 C513 1.397 . S
C513 C512 1.397 . S
C513 C514 1.390 . S
C513 C529 1.476 . S
C514 H472 0.930 . S
C514 C513 1.390 . S
C514 C515 1.366 . S
C515 H473 0.932 . S
C515 C510 1.360 . S
C515 C514 1.366 . S
C516 C490 1.490 . S
C516 C517 1.380 . S
C516 C521 1.386 . S
C517 H474 0.930 . S
C517 C516 1.380 . S
C517 C518 1.381 . S
C518 H475 0.929 . S
C518 C517 1.381 . S
C518 C519 1.371 . S
C519 C518 1.371 . S
C519 C520 1.380 . S
C520 H476 0.931 . S
C520 C519 1.380 . S
C520 C521 1.387 . S
C521 H477 0.930 . S
C521 C516 1.386 . S
C521 C520 1.387 . S
C522 C491 1.519 . S
C522 C523 1.377 . S
C522 C527 1.361 . S
C523 H478 0.929 . S
C523 C522 1.377 . S
C523 C524 1.386 . S
C524 H479 0.931 . S
C524 C523 1.386 . S
C524 C525 1.363 . S
C525 C524 1.363 . S
C525 C526 1.385 . S
C526 H480 0.930 . S
C526 C525 1.385 . S
C526 C527 1.396 . S
C527 H481 0.929 . S
C527 C522 1.361 . S
C527 C526 1.396 . S
C528 O482 1.285 1_556 S
C528 O483 1.204 1_556 S
C528 C501 1.507 . S
C529 O484 1.199 . S
C529 O485 1.297 . S
C529 C513 1.476 . S
H530 O556 0.856 . S
H531 O559 0.854 . S
H532 C567 0.930 . S
H533 C568 0.930 . S
H534 C570 0.930 . S
H535 C571 0.930 . S
H536 C573 0.931 . S
H537 C574 0.930 . S
H538 C576 0.930 . S
H539 C577 0.929 . S
H540 C579 0.930 . S
H541 C580 0.931 . S
H542 C582 0.930 . S
H543 C583 0.929 . S
H544 C585 0.931 . S
H545 C586 0.930 . S
H546 C588 0.930 . S
H547 C589 0.932 . S
H548 C591 0.930 . S
H549 C592 0.929 . S
H550 C594 0.931 . S
H551 C595 0.930 . S
H552 C597 0.929 . S
H553 C598 0.931 . S
H554 C600 0.930 . S
H555 C601 0.929 . S
O556 H530 0.856 . S
O556 C602 1.300 . S
O557 C602 1.209 . S
O558 C603 1.199 . S
O559 H531 0.854 . S
O559 C603 1.297 . S
C560 C561 1.404 . S
C560 C565 1.397 . S
C560 C566 1.492 . S
C561 C560 1.404 . S
C561 C562 1.396 . S
C561 C572 1.492 . S
C562 C561 1.396 . S
C562 C563 1.397 . S
C562 C578 1.509 . S
C563 C562 1.397 . S
C563 C564 1.412 . S
C563 C584 1.485 . S
C564 C563 1.412 . S
C564 C565 1.388 . S
C564 C590 1.490 . S
C565 C560 1.397 . S
C565 C564 1.388 . S
C565 C596 1.519 . S
C566 C560 1.492 . S
C566 C567 1.363 . S
C566 C571 1.390 . S
C567 H532 0.930 . S
C567 C566 1.363 . S
C567 C568 1.372 . S
C568 H533 0.930 . S
C568 C567 1.372 . S
C568 C569 1.383 . S
C569 C568 1.383 . S
C569 C570 1.395 . S
C570 H534 0.930 . S
C570 C569 1.395 . S
C570 C571 1.362 . S
C571 H535 0.930 . S
C571 C566 1.390 . S
C571 C570 1.362 . S
C572 C561 1.492 . S
C572 C573 1.377 . S
C572 C577 1.397 . S
C573 H536 0.931 . S
C573 C572 1.377 . S
C573 C574 1.376 . S
C574 H537 0.930 . S
C574 C573 1.376 . S
C574 C575 1.376 . S
C575 C574 1.376 . S
C575 C576 1.378 . S
C575 C602 1.486 1_556 S
C576 H538 0.930 . S
C576 C575 1.378 . S
C576 C577 1.376 . S
C577 H539 0.929 . S
C577 C572 1.397 . S
C577 C576 1.376 . S
C578 C562 1.509 . S
C578 C579 1.391 . S
C578 C583 1.386 . S
C579 H540 0.930 . S
C579 C578 1.391 . S
C579 C580 1.375 . S
C580 H541 0.931 . S
C580 C579 1.375 . S
C580 C581 1.375 . S
C581 C580 1.375 . S
C581 C582 1.361 . S
C582 H542 0.930 . S
C582 C581 1.361 . S
C582 C583 1.399 . S
C583 H543 0.929 . S
C583 C578 1.386 . S
C583 C582 1.399 . S
C584 C563 1.485 . S
C584 C585 1.394 . S
C584 C589 1.360 . S
C585 H544 0.931 . S
C585 C584 1.394 . S
C585 C586 1.372 . S
C586 H545 0.930 . S
C586 C585 1.372 . S
C586 C587 1.397 . S
C587 C586 1.397 . S
C587 C588 1.390 . S
C587 C603 1.476 . S
C588 H546 0.930 . S
C588 C587 1.390 . S
C588 C589 1.366 . S
C589 H547 0.932 . S
C589 C584 1.360 . S
C589 C588 1.366 . S
C590 C564 1.490 . S
C590 C591 1.380 . S
C590 C595 1.386 . S
C591 H548 0.930 . S
C591 C590 1.380 . S
C591 C592 1.381 . S
C592 H549 0.929 . S
C592 C591 1.381 . S
C592 C593 1.371 . S
C593 C592 1.371 . S
C593 C594 1.380 . S
C594 H550 0.931 . S
C594 C593 1.380 . S
C594 C595 1.387 . S
C595 H551 0.930 . S
C595 C590 1.386 . S
C595 C594 1.387 . S
C596 C565 1.519 . S
C596 C597 1.377 . S
C596 C601 1.361 . S
C597 H552 0.929 . S
C597 C596 1.377 . S
C597 C598 1.386 . S
C598 H553 0.931 . S
C598 C597 1.386 . S
C598 C599 1.363 . S
C599 C598 1.363 . S
C599 C600 1.385 . S
C600 H554 0.930 . S
C600 C599 1.385 . S
C600 C601 1.396 . S
C601 H555 0.929 . S
C601 C596 1.361 . S
C601 C600 1.396 . S
C602 O556 1.300 . S
C602 O557 1.209 . S
C602 C575 1.486 1_554 S
C603 O558 1.199 . S
C603 O559 1.297 . S
C603 C587 1.476 . S
H604 O630 0.856 . S
H605 O633 0.854 . S
H606 C641 0.930 . S
H607 C642 0.930 . S
H608 C644 0.930 . S
H609 C645 0.930 . S
H610 C647 0.931 . S
H611 C648 0.930 1_554 S
H612 C650 0.930 . S
H613 C651 0.929 . S
H614 C653 0.930 . S
H615 C654 0.931 . S
H616 C656 0.930 . S
H617 C657 0.929 . S
H618 C659 0.931 . S
H619 C660 0.930 . S
H620 C662 0.930 . S
H621 C663 0.932 . S
H622 C665 0.930 . S
H623 C666 0.929 . S
H624 C668 0.931 . S
H625 C669 0.930 . S
H626 C671 0.929 . S
H627 C672 0.931 . S
H628 C674 0.930 . S
H629 C675 0.929 . S
O630 H604 0.856 . S
O630 C676 1.300 . S
O631 C676 1.209 . S
O632 C677 1.199 . S
O633 H605 0.854 . S
O633 C677 1.297 . S
C634 C635 1.404 . S
C634 C639 1.397 . S
C634 C640 1.492 . S
C635 C634 1.404 . S
C635 C636 1.396 . S
C635 C646 1.492 . S
C636 C635 1.396 . S
C636 C637 1.397 . S
C636 C652 1.509 . S
C637 C636 1.397 . S
C637 C638 1.412 . S
C637 C658 1.485 . S
C638 C637 1.412 . S
C638 C639 1.388 . S
C638 C664 1.490 . S
C639 C634 1.397 . S
C639 C638 1.388 . S
C639 C670 1.519 . S
C640 C634 1.492 . S
C640 C641 1.363 . S
C640 C645 1.390 . S
C641 H606 0.930 . S
C641 C640 1.363 . S
C641 C642 1.372 . S
C642 H607 0.930 . S
C642 C641 1.372 . S
C642 C643 1.383 . S
C643 C642 1.383 . S
C643 C644 1.395 . S
C644 H608 0.930 . S
C644 C643 1.395 . S
C644 C645 1.362 . S
C645 H609 0.930 . S
C645 C640 1.390 . S
C645 C644 1.362 . S
C646 C635 1.492 . S
C646 C647 1.377 . S
C646 C651 1.397 . S
C647 H610 0.931 . S
C647 C646 1.377 . S
C647 C648 1.376 . S
C648 H611 0.930 1_556 S
C648 C647 1.376 . S
C648 C649 1.376 . S
C649 C648 1.376 . S
C649 C650 1.378 . S
C649 C676 1.486 1_556 S
C650 H612 0.930 . S
C650 C649 1.378 . S
C650 C651 1.376 . S
C651 H613 0.929 . S
C651 C646 1.397 . S
C651 C650 1.376 . S
C652 C636 1.509 . S
C652 C653 1.391 . S
C652 C657 1.386 . S
C653 H614 0.930 . S
C653 C652 1.391 . S
C653 C654 1.375 . S
C654 H615 0.931 . S
C654 C653 1.375 . S
C654 C655 1.375 . S
C655 C654 1.375 . S
C655 C656 1.361 . S
C656 H616 0.930 . S
C656 C655 1.361 . S
C656 C657 1.399 . S
C657 H617 0.929 . S
C657 C652 1.386 . S
C657 C656 1.399 . S
C658 C637 1.485 . S
C658 C659 1.394 . S
C658 C663 1.360 . S
C659 H618 0.931 . S
C659 C658 1.394 . S
C659 C660 1.372 . S
C660 H619 0.930 . S
C660 C659 1.372 . S
C660 C661 1.397 . S
C661 C660 1.397 . S
C661 C662 1.390 . S
C661 C677 1.476 . S
C662 H620 0.930 . S
C662 C661 1.390 . S
C662 C663 1.366 . S
C663 H621 0.932 . S
C663 C658 1.360 . S
C663 C662 1.366 . S
C664 C638 1.490 . S
C664 C665 1.380 . S
C664 C669 1.386 . S
C665 H622 0.930 . S
C665 C664 1.380 . S
C665 C666 1.381 . S
C666 H623 0.929 . S
C666 C665 1.381 . S
C666 C667 1.371 . S
C667 C666 1.371 . S
C667 C668 1.380 . S
C668 H624 0.931 . S
C668 C667 1.380 . S
C668 C669 1.387 . S
C669 H625 0.930 . S
C669 C664 1.386 . S
C669 C668 1.387 . S
C670 C639 1.519 . S
C670 C671 1.377 . S
C670 C675 1.361 . S
C671 H626 0.929 . S
C671 C670 1.377 . S
C671 C672 1.386 . S
C672 H627 0.931 . S
C672 C671 1.386 . S
C672 C673 1.363 . S
C673 C672 1.363 . S
C673 C674 1.385 . S
C674 H628 0.930 . S
C674 C673 1.385 . S
C674 C675 1.396 . S
C675 H629 0.929 . S
C675 C670 1.361 . S
C675 C674 1.396 . S
C676 O630 1.300 . S
C676 O631 1.209 . S
C676 C649 1.486 1_554 S
C677 O632 1.199 . S
C677 O633 1.297 . S
C677 C661 1.476 . S
H678 O704 0.856 . S
H679 O707 0.854 . S
H680 C715 0.930 . S
H681 C716 0.930 . S
H682 C718 0.930 . S
H683 C719 0.930 . S
H684 C721 0.931 . S
H685 C722 0.930 . S
H686 C724 0.930 . S
H687 C725 0.929 . S
H688 C727 0.930 . S
H689 C728 0.931 . S
H690 C730 0.930 . S
H691 C731 0.929 . S
H692 C733 0.931 . S
H693 C734 0.930 . S
H694 C736 0.930 . S
H695 C737 0.932 . S
H696 C739 0.930 . S
H697 C740 0.929 . S
H698 C742 0.931 . S
H699 C743 0.930 . S
H700 C745 0.929 . S
H701 C746 0.931 . S
H702 C748 0.930 . S
H703 C749 0.929 . S
O704 H678 0.856 . S
O704 C750 1.300 . S
O705 C750 1.209 . S
O706 C751 1.199 . S
O707 H679 0.854 . S
O707 C751 1.297 . S
C708 C709 1.404 . S
C708 C713 1.397 . S
C708 C714 1.492 . S
C709 C708 1.404 . S
C709 C710 1.396 . S
C709 C720 1.492 . S
C710 C709 1.396 . S
C710 C711 1.397 . S
C710 C726 1.509 . S
C711 C710 1.397 . S
C711 C712 1.412 . S
C711 C732 1.485 . S
C712 C711 1.412 . S
C712 C713 1.388 . S
C712 C738 1.490 . S
C713 C708 1.397 . S
C713 C712 1.388 . S
C713 C744 1.519 . S
C714 C708 1.492 . S
C714 C715 1.363 . S
C714 C719 1.390 . S
C715 H680 0.930 . S
C715 C714 1.363 . S
C715 C716 1.372 . S
C716 H681 0.930 . S
C716 C715 1.372 . S
C716 C717 1.383 . S
C717 C716 1.383 . S
C717 C718 1.395 . S
C718 H682 0.930 . S
C718 C717 1.395 . S
C718 C719 1.362 . S
C719 H683 0.930 . S
C719 C714 1.390 . S
C719 C718 1.362 . S
C720 C709 1.492 . S
C720 C721 1.377 . S
C720 C725 1.397 . S
C721 H684 0.931 . S
C721 C720 1.377 . S
C721 C722 1.376 . S
C722 H685 0.930 . S
C722 C721 1.376 . S
C722 C723 1.376 . S
C723 C722 1.376 . S
C723 C724 1.378 . S
C723 C750 1.486 . S
C724 H686 0.930 . S
C724 C723 1.378 . S
C724 C725 1.376 . S
C725 H687 0.929 . S
C725 C720 1.397 . S
C725 C724 1.376 . S
C726 C710 1.509 . S
C726 C727 1.391 . S
C726 C731 1.386 . S
C727 H688 0.930 . S
C727 C726 1.391 . S
C727 C728 1.375 . S
C728 H689 0.931 . S
C728 C727 1.375 . S
C728 C729 1.375 . S
C729 C728 1.375 . S
C729 C730 1.361 . S
C730 H690 0.930 . S
C730 C729 1.361 . S
C730 C731 1.399 . S
C731 H691 0.929 . S
C731 C726 1.386 . S
C731 C730 1.399 . S
C732 C711 1.485 . S
C732 C733 1.394 . S
C732 C737 1.360 . S
C733 H692 0.931 . S
C733 C732 1.394 . S
C733 C734 1.372 . S
C734 H693 0.930 . S
C734 C733 1.372 . S
C734 C735 1.397 . S
C735 C734 1.397 . S
C735 C736 1.390 . S
C735 C751 1.476 . S
C736 H694 0.930 . S
C736 C735 1.390 . S
C736 C737 1.366 . S
C737 H695 0.932 . S
C737 C732 1.360 . S
C737 C736 1.366 . S
C738 C712 1.490 . S
C738 C739 1.380 . S
C738 C743 1.386 . S
C739 H696 0.930 . S
C739 C738 1.380 . S
C739 C740 1.381 . S
C740 H697 0.929 . S
C740 C739 1.381 . S
C740 C741 1.371 . S
C741 C740 1.371 . S
C741 C742 1.380 . S
C742 H698 0.931 . S
C742 C741 1.380 . S
C742 C743 1.387 . S
C743 H699 0.930 . S
C743 C738 1.386 . S
C743 C742 1.387 . S
C744 C713 1.519 . S
C744 C745 1.377 . S
C744 C749 1.361 . S
C745 H700 0.929 . S
C745 C744 1.377 . S
C745 C746 1.386 . S
C746 H701 0.931 . S
C746 C745 1.386 . S
C746 C747 1.363 . S
C747 C746 1.363 . S
C747 C748 1.385 . S
C748 H702 0.930 . S
C748 C747 1.385 . S
C748 C749 1.396 . S
C749 H703 0.929 . S
C749 C744 1.361 . S
C749 C748 1.396 . S
C750 O704 1.300 . S
C750 O705 1.209 . S
C750 C723 1.486 . S
C751 O706 1.199 . S
C751 O707 1.297 . S
C751 C735 1.476 . S
H752 O778 0.856 . S
H753 O781 0.854 . S
H754 C789 0.930 . S
H755 C790 0.930 . S
H756 C792 0.930 . S
H757 C793 0.930 . S
H758 C795 0.931 . S
H759 C796 0.930 . S
H760 C798 0.930 . S
H761 C799 0.929 . S
H762 C801 0.930 . S
H763 C802 0.931 . S
H764 C804 0.930 . S
H765 C805 0.929 . S
H766 C807 0.931 . S
H767 C808 0.930 . S
H768 C810 0.930 . S
H769 C811 0.932 . S
H770 C813 0.930 . S
H771 C814 0.929 . S
H772 C816 0.931 . S
H773 C817 0.930 . S
H774 C819 0.929 . S
H775 C820 0.931 . S
H776 C822 0.930 . S
H777 C823 0.929 . S
O778 H752 0.856 . S
O778 C824 1.300 . S
O779 C824 1.209 . S
O780 C825 1.199 . S
O781 H753 0.854 . S
O781 C825 1.297 . S
C782 C783 1.404 . S
C782 C787 1.397 . S
C782 C788 1.492 . S
C783 C782 1.404 . S
C783 C784 1.396 . S
C783 C794 1.492 . S
C784 C783 1.396 . S
C784 C785 1.397 . S
C784 C800 1.509 . S
C785 C784 1.397 . S
C785 C786 1.412 . S
C785 C806 1.485 . S
C786 C785 1.412 . S
C786 C787 1.388 . S
C786 C812 1.490 . S
C787 C782 1.397 . S
C787 C786 1.388 . S
C787 C818 1.519 . S
C788 C782 1.492 . S
C788 C789 1.363 . S
C788 C793 1.390 . S
C789 H754 0.930 . S
C789 C788 1.363 . S
C789 C790 1.372 . S
C790 H755 0.930 . S
C790 C789 1.372 . S
C790 C791 1.383 . S
C791 C790 1.383 . S
C791 C792 1.395 . S
C792 H756 0.930 . S
C792 C791 1.395 . S
C792 C793 1.362 . S
C793 H757 0.930 . S
C793 C788 1.390 . S
C793 C792 1.362 . S
C794 C783 1.492 . S
C794 C795 1.377 . S
C794 C799 1.397 . S
C795 H758 0.931 . S
C795 C794 1.377 . S
C795 C796 1.376 . S
C796 H759 0.930 . S
C796 C795 1.376 . S
C796 C797 1.376 . S
C797 C796 1.376 . S
C797 C798 1.378 . S
C797 C824 1.486 . S
C798 H760 0.930 . S
C798 C797 1.378 . S
C798 C799 1.376 . S
C799 H761 0.929 . S
C799 C794 1.397 . S
C799 C798 1.376 . S
C800 C784 1.509 . S
C800 C801 1.391 . S
C800 C805 1.386 . S
C801 H762 0.930 . S
C801 C800 1.391 . S
C801 C802 1.375 . S
C802 H763 0.931 . S
C802 C801 1.375 . S
C802 C803 1.375 . S
C803 C802 1.375 . S
C803 C804 1.361 . S
C804 H764 0.930 . S
C804 C803 1.361 . S
C804 C805 1.399 . S
C805 H765 0.929 . S
C805 C800 1.386 . S
C805 C804 1.399 . S
C806 C785 1.485 . S
C806 C807 1.394 . S
C806 C811 1.360 . S
C807 H766 0.931 . S
C807 C806 1.394 . S
C807 C808 1.372 . S
C808 H767 0.930 . S
C808 C807 1.372 . S
C808 C809 1.397 . S
C809 C808 1.397 . S
C809 C810 1.390 . S
C809 C825 1.476 . S
C810 H768 0.930 . S
C810 C809 1.390 . S
C810 C811 1.366 . S
C811 H769 0.932 . S
C811 C806 1.360 . S
C811 C810 1.366 . S
C812 C786 1.490 . S
C812 C813 1.380 . S
C812 C817 1.386 . S
C813 H770 0.930 . S
C813 C812 1.380 . S
C813 C814 1.381 . S
C814 H771 0.929 . S
C814 C813 1.381 . S
C814 C815 1.371 . S
C815 C814 1.371 . S
C815 C816 1.380 . S
C816 H772 0.931 . S
C816 C815 1.380 . S
C816 C817 1.387 . S
C817 H773 0.930 . S
C817 C812 1.386 . S
C817 C816 1.387 . S
C818 C787 1.519 . S
C818 C819 1.377 . S
C818 C823 1.361 . S
C819 H774 0.929 . S
C819 C818 1.377 . S
C819 C820 1.386 . S
C820 H775 0.931 . S
C820 C819 1.386 . S
C820 C821 1.363 . S
C821 C820 1.363 . S
C821 C822 1.385 . S
C822 H776 0.930 . S
C822 C821 1.385 . S
C822 C823 1.396 . S
C823 H777 0.929 . S
C823 C818 1.361 . S
C823 C822 1.396 . S
C824 O778 1.300 . S
C824 O779 1.209 . S
C824 C797 1.486 . S
C825 O780 1.199 . S
C825 O781 1.297 . S
C825 C809 1.476 . S
H826 O852 0.856 . S
H827 O855 0.854 . S
H828 C863 0.930 . S
H829 C864 0.930 . S
H830 C866 0.930 . S
H831 C867 0.930 . S
H832 C869 0.931 . S
H833 C870 0.930 . S
H834 C872 0.930 . S
H835 C873 0.929 . S
H836 C875 0.930 . S
H837 C876 0.931 . S
H838 C878 0.930 . S
H839 C879 0.929 . S
H840 C881 0.931 . S
H841 C882 0.930 . S
H842 C884 0.930 . S
H843 C885 0.932 . S
H844 C887 0.930 . S
H845 C888 0.929 . S
H846 C890 0.931 . S
H847 C891 0.930 . S
H848 C893 0.929 . S
H849 C894 0.931 . S
H850 C896 0.930 . S
H851 C897 0.929 . S
O852 H826 0.856 . S
O852 C898 1.300 . S
O853 C898 1.209 . S
O854 C899 1.199 . S
O855 H827 0.854 . S
O855 C899 1.297 . S
C856 C857 1.404 . S
C856 C861 1.397 . S
C856 C862 1.492 . S
C857 C856 1.404 . S
C857 C858 1.396 . S
C857 C868 1.492 . S
C858 C857 1.396 . S
C858 C859 1.397 . S
C858 C874 1.509 . S
C859 C858 1.397 . S
C859 C860 1.412 . S
C859 C880 1.485 . S
C860 C859 1.412 . S
C860 C861 1.388 . S
C860 C886 1.490 . S
C861 C856 1.397 . S
C861 C860 1.388 . S
C861 C892 1.519 . S
C862 C856 1.492 . S
C862 C863 1.363 . S
C862 C867 1.390 . S
C863 H828 0.930 . S
C863 C862 1.363 . S
C863 C864 1.372 . S
C864 H829 0.930 . S
C864 C863 1.372 . S
C864 C865 1.383 . S
C865 C864 1.383 . S
C865 C866 1.395 . S
C866 H830 0.930 . S
C866 C865 1.395 . S
C866 C867 1.362 . S
C867 H831 0.930 . S
C867 C862 1.390 . S
C867 C866 1.362 . S
C868 C857 1.492 . S
C868 C869 1.377 . S
C868 C873 1.397 . S
C869 H832 0.931 . S
C869 C868 1.377 . S
C869 C870 1.376 . S
C870 H833 0.930 . S
C870 C869 1.376 . S
C870 C871 1.376 . S
C871 C870 1.376 . S
C871 C872 1.378 . S
C871 C898 1.486 . S
C872 H834 0.930 . S
C872 C871 1.378 . S
C872 C873 1.376 . S
C873 H835 0.929 . S
C873 C868 1.397 . S
C873 C872 1.376 . S
C874 C858 1.509 . S
C874 C875 1.391 . S
C874 C879 1.386 . S
C875 H836 0.930 . S
C875 C874 1.391 . S
C875 C876 1.375 . S
C876 H837 0.931 . S
C876 C875 1.375 . S
C876 C877 1.375 . S
C877 C876 1.375 . S
C877 C878 1.361 . S
C878 H838 0.930 . S
C878 C877 1.361 . S
C878 C879 1.399 . S
C879 H839 0.929 . S
C879 C874 1.386 . S
C879 C878 1.399 . S
C880 C859 1.485 . S
C880 C881 1.394 . S
C880 C885 1.360 . S
C881 H840 0.931 . S
C881 C880 1.394 . S
C881 C882 1.372 . S
C882 H841 0.930 . S
C882 C881 1.372 . S
C882 C883 1.397 . S
C883 C882 1.397 . S
C883 C884 1.390 . S
C883 C899 1.476 . S
C884 H842 0.930 . S
C884 C883 1.390 . S
C884 C885 1.366 . S
C885 H843 0.932 . S
C885 C880 1.360 . S
C885 C884 1.366 . S
C886 C860 1.490 . S
C886 C887 1.380 . S
C886 C891 1.386 . S
C887 H844 0.930 . S
C887 C886 1.380 . S
C887 C888 1.381 . S
C888 H845 0.929 . S
C888 C887 1.381 . S
C888 C889 1.371 . S
C889 C888 1.371 . S
C889 C890 1.380 . S
C890 H846 0.931 . S
C890 C889 1.380 . S
C890 C891 1.387 . S
C891 H847 0.930 . S
C891 C886 1.386 . S
C891 C890 1.387 . S
C892 C861 1.519 . S
C892 C893 1.377 . S
C892 C897 1.361 . S
C893 H848 0.929 . S
C893 C892 1.377 . S
C893 C894 1.386 . S
C894 H849 0.931 . S
C894 C893 1.386 . S
C894 C895 1.363 . S
C895 C894 1.363 . S
C895 C896 1.385 . S
C896 H850 0.930 . S
C896 C895 1.385 . S
C896 C897 1.396 . S
C897 H851 0.929 . S
C897 C892 1.361 . S
C897 C896 1.396 . S
C898 O852 1.300 . S
C898 O853 1.209 . S
C898 C871 1.486 . S
C899 O854 1.199 . S
C899 O855 1.297 . S
C899 C883 1.476 . S
H900 O926 0.856 . S
H901 O929 0.854 . S
H902 C937 0.930 . S
H903 C938 0.930 . S
H904 C940 0.930 . S
H905 C941 0.930 . S
H906 C943 0.931 . S
H907 C944 0.930 1_655 S
H908 C946 0.930 . S
H909 C947 0.929 . S
H910 C949 0.930 . S
H911 C950 0.931 1_655 S
H912 C952 0.930 . S
H913 C953 0.929 . S
H914 C955 0.931 . S
H915 C956 0.930 . S
H916 C958 0.930 . S
H917 C959 0.932 . S
H918 C961 0.930 . S
H919 C962 0.929 . S
H920 C964 0.931 . S
H921 C965 0.930 . S
H922 C967 0.929 . S
H923 C968 0.931 . S
H924 C970 0.930 . S
H925 C971 0.929 . S
O926 H900 0.856 . S
O926 C972 1.300 . S
O927 C972 1.209 . S
O928 C973 1.199 1_655 S
O929 H901 0.854 . S
O929 C973 1.297 . S
C930 C931 1.404 . S
C930 C935 1.393 . S
C930 C936 1.492 . S
C931 C930 1.404 . S
C931 C932 1.396 . S
C931 C942 1.492 . S
C932 C931 1.396 . S
C932 C933 1.397 . S
C932 C948 1.509 . S
C933 C932 1.397 . S
C933 C934 1.437 . S
C933 C954 1.485 . S
C934 C933 1.437 . S
C934 C935 1.394 . S
C934 C960 1.491 1_455 S
C935 C930 1.393 . S
C935 C934 1.394 . S
C935 C966 1.479 1_455 S
C936 C930 1.492 . S
C936 C937 1.363 1_455 S
C936 C941 1.390 . S
C937 H902 0.930 . S
C937 C936 1.363 1_655 S
C937 C938 1.372 . S
C938 H903 0.930 . S
C938 C937 1.372 . S
C938 C939 1.383 . S
C939 C938 1.383 . S
C939 C940 1.395 1_655 S
C940 H904 0.930 . S
C940 C939 1.395 1_455 S
C940 C941 1.362 . S
C941 H905 0.930 . S
C941 C936 1.390 . S
C941 C940 1.362 . S
C942 C931 1.492 . S
C942 C943 1.377 1_455 S
C942 C947 1.397 . S
C943 H906 0.931 . S
C943 C942 1.377 1_655 S
C943 C944 1.376 1_655 S
C944 H907 0.930 1_455 S
C944 C943 1.376 1_455 S
C944 C945 1.376 . S
C945 C944 1.376 . S
C945 C946 1.378 . S
C945 C972 1.486 . S
C946 H908 0.930 . S
C946 C945 1.378 . S
C946 C947 1.376 . S
C947 H909 0.929 . S
C947 C942 1.397 . S
C947 C946 1.376 . S
C948 C932 1.509 . S
C948 C949 1.391 1_455 S
C948 C953 1.386 . S
C949 H910 0.930 . S
C949 C948 1.391 1_655 S
C949 C950 1.375 1_655 S
C950 H911 0.931 1_455 S
C950 C949 1.375 1_455 S
C950 C951 1.375 . S
C951 C950 1.375 . S
C951 C952 1.361 . S
C952 H912 0.930 . S
C952 C951 1.361 . S
C952 C953 1.399 . S
C953 H913 0.929 . S
C953 C948 1.386 . S
C953 C952 1.399 . S
C954 C933 1.485 . S
C954 C955 1.394 1_455 S
C954 C959 1.360 . S
C955 H914 0.931 . S
C955 C954 1.394 1_655 S
C955 C956 1.372 . S
C956 H915 0.930 . S
C956 C955 1.372 . S
C956 C957 1.397 1_655 S
C957 C956 1.397 1_455 S
C957 C958 1.390 . S
C957 C973 1.476 . S
C958 H916 0.930 . S
C958 C957 1.390 . S
C958 C959 1.366 . S
C959 H917 0.932 . S
C959 C954 1.360 . S
C959 C958 1.366 . S
C960 C934 1.491 1_655 S
C960 C961 1.380 . S
C960 C965 1.386 1_655 S
C961 H918 0.930 . S
C961 C960 1.380 . S
C961 C962 1.381 . S
C962 H919 0.929 . S
C962 C961 1.381 . S
C962 C963 1.371 . S
C963 C962 1.371 . S
C963 C964 1.380 1_655 S
C964 H920 0.931 . S
C964 C963 1.380 1_455 S
C964 C965 1.387 . S
C965 H921 0.930 . S
C965 C960 1.386 1_455 S
C965 C964 1.387 . S
C966 C935 1.479 1_655 S
C966 C967 1.424 . S
C966 C971 1.332 1_655 S
C967 H922 0.929 . S
C967 C966 1.424 . S
C967 C968 1.386 . S
C968 H923 0.931 . S
C968 C967 1.386 . S
C968 C969 1.410 . S
C969 C968 1.410 . S
C969 C970 1.312 1_655 S
C970 H924 0.930 . S
C970 C969 1.312 1_455 S
C970 C971 1.396 . S
C971 H925 0.929 . S
C971 C966 1.332 1_455 S
C971 C970 1.396 . S
C972 O926 1.300 . S
C972 O927 1.209 . S
C972 C945 1.486 . S
C973 O928 1.199 1_455 S
C973 O929 1.297 . S
C973 C957 1.476 . S
H974 O1000 0.856 . S
H975 O1003 0.854 . S
H976 C1011 0.930 . S
H977 C1012 0.930 . S
H978 C1014 0.930 . S
H979 C1015 0.930 . S
H980 C1017 0.931 . S
H981 C1018 0.930 . S
H982 C1020 0.930 . S
H983 C1021 0.929 . S
H984 C1023 0.930 . S
H985 C1024 0.931 . S
H986 C1026 0.930 . S
H987 C1027 0.929 . S
H988 C1029 0.931 . S
H989 C1030 0.930 . S
H990 C1032 0.930 . S
H991 C1033 0.932 . S
H992 C1035 0.930 . S
H993 C1036 0.929 . S
H994 C1038 0.931 . S
H995 C1039 0.930 . S
H996 C1041 0.929 . S
H997 C1042 0.931 . S
H998 C1044 0.930 . S
H999 C1045 0.929 . S
O1000 H974 0.856 . S
O1000 C1046 1.300 . S
O1001 C1046 1.209 . S
O1002 C1047 1.199 . S
O1003 H975 0.854 . S
O1003 C1047 1.297 . S
C1004 C1005 1.404 . S
C1004 C1009 1.397 . S
C1004 C1010 1.492 . S
C1005 C1004 1.404 . S
C1005 C1006 1.396 . S
C1005 C1016 1.492 . S
C1006 C1005 1.396 . S
C1006 C1007 1.397 . S
C1006 C1022 1.509 . S
C1007 C1006 1.397 . S
C1007 C1008 1.412 . S
C1007 C1028 1.485 . S
C1008 C1007 1.412 . S
C1008 C1009 1.388 . S
C1008 C1034 1.490 . S
C1009 C1004 1.397 . S
C1009 C1008 1.388 . S
C1009 C1040 1.519 . S
C1010 C1004 1.492 . S
C1010 C1011 1.363 . S
C1010 C1015 1.390 . S
C1011 H976 0.930 . S
C1011 C1010 1.363 . S
C1011 C1012 1.372 . S
C1012 H977 0.930 . S
C1012 C1011 1.372 . S
C1012 C1013 1.383 . S
C1013 C1012 1.383 . S
C1013 C1014 1.395 . S
C1014 H978 0.930 . S
C1014 C1013 1.395 . S
C1014 C1015 1.362 . S
C1015 H979 0.930 . S
C1015 C1010 1.390 . S
C1015 C1014 1.362 . S
C1016 C1005 1.492 . S
C1016 C1017 1.377 . S
C1016 C1021 1.397 . S
C1017 H980 0.931 . S
C1017 C1016 1.377 . S
C1017 C1018 1.376 . S
C1018 H981 0.930 . S
C1018 C1017 1.376 . S
C1018 C1019 1.376 . S
C1019 C1018 1.376 . S
C1019 C1020 1.378 . S
C1019 C1046 1.486 . S
C1020 H982 0.930 . S
C1020 C1019 1.378 . S
C1020 C1021 1.376 . S
C1021 H983 0.929 . S
C1021 C1016 1.397 . S
C1021 C1020 1.376 . S
C1022 C1006 1.509 . S
C1022 C1023 1.391 . S
C1022 C1027 1.386 . S
C1023 H984 0.930 . S
C1023 C1022 1.391 . S
C1023 C1024 1.375 . S
C1024 H985 0.931 . S
C1024 C1023 1.375 . S
C1024 C1025 1.375 . S
C1025 C1024 1.375 . S
C1025 C1026 1.361 . S
C1026 H986 0.930 . S
C1026 C1025 1.361 . S
C1026 C1027 1.399 . S
C1027 H987 0.929 . S
C1027 C1022 1.386 . S
C1027 C1026 1.399 . S
C1028 C1007 1.485 . S
C1028 C1029 1.394 . S
C1028 C1033 1.360 . S
C1029 H988 0.931 . S
C1029 C1028 1.394 . S
C1029 C1030 1.372 . S
C1030 H989 0.930 . S
C1030 C1029 1.372 . S
C1030 C1031 1.397 . S
C1031 C1030 1.397 . S
C1031 C1032 1.390 . S
C1031 C1047 1.476 . S
C1032 H990 0.930 . S
C1032 C1031 1.390 . S
C1032 C1033 1.366 . S
C1033 H991 0.932 . S
C1033 C1028 1.360 . S
C1033 C1032 1.366 . S
C1034 C1008 1.490 . S
C1034 C1035 1.380 . S
C1034 C1039 1.386 . S
C1035 H992 0.930 . S
C1035 C1034 1.380 . S
C1035 C1036 1.381 . S
C1036 H993 0.929 . S
C1036 C1035 1.381 . S
C1036 C1037 1.371 . S
C1037 C1036 1.371 . S
C1037 C1038 1.380 . S
C1038 H994 0.931 . S
C1038 C1037 1.380 . S
C1038 C1039 1.387 . S
C1039 H995 0.930 . S
C1039 C1034 1.386 . S
C1039 C1038 1.387 . S
C1040 C1009 1.519 . S
C1040 C1041 1.377 . S
C1040 C1045 1.361 . S
C1041 H996 0.929 . S
C1041 C1040 1.377 . S
C1041 C1042 1.386 . S
C1042 H997 0.931 . S
C1042 C1041 1.386 . S
C1042 C1043 1.363 . S
C1043 C1042 1.363 . S
C1043 C1044 1.385 . S
C1044 H998 0.930 . S
C1044 C1043 1.385 . S
C1044 C1045 1.396 . S
C1045 H999 0.929 . S
C1045 C1040 1.361 . S
C1045 C1044 1.396 . S
C1046 O1000 1.300 . S
C1046 O1001 1.209 . S
C1046 C1019 1.486 . S
C1047 O1002 1.199 . S
C1047 O1003 1.297 . S
C1047 C1031 1.476 . S
H1048 O1074 0.856 . S
H1049 O1077 0.854 . S
H1050 C1085 0.930 . S
H1051 C1086 0.930 . S
H1052 C1088 0.930 . S
H1053 C1089 0.930 . S
H1054 C1091 0.931 . S
H1055 C1092 0.917 1_545 S
H1056 C1094 0.930 . S
H1057 C1095 0.929 . S
H1058 C1097 0.930 . S
H1059 C1098 0.931 . S
H1060 C1100 0.930 . S
H1061 C1101 0.929 . S
H1062 C1103 0.931 . S
H1063 C1104 0.930 . S
H1064 C1106 0.930 . S
H1065 C1107 0.932 . S
H1066 C1109 0.930 . S
H1067 C1110 0.929 . S
H1068 C1112 0.931 . S
H1069 C1113 0.930 . S
H1070 C1115 0.929 . S
H1071 C1116 0.931 . S
H1072 C1118 0.930 . S
H1073 C1119 0.929 . S
O1074 H1048 0.856 . S
O1074 C1120 1.300 . S
O1075 C1120 1.209 . S
O1076 C1121 1.199 1_545 S
O1077 H1049 0.854 . S
O1077 C1121 1.297 . S
C1078 C1079 1.404 . S
C1078 C1083 1.415 . S
C1078 C1084 1.492 . S
C1079 C1078 1.404 . S
C1079 C1080 1.396 . S
C1079 C1090 1.492 . S
C1080 C1079 1.396 . S
C1080 C1081 1.397 . S
C1080 C1096 1.509 . S
C1081 C1080 1.397 . S
C1081 C1082 1.412 1_565 S
C1081 C1102 1.485 . S
C1082 C1081 1.412 1_545 S
C1082 C1083 1.363 1_545 S
C1082 C1108 1.489 . S
C1083 C1078 1.415 . S
C1083 C1082 1.363 1_565 S
C1083 C1114 1.533 1_565 S
C1084 C1078 1.492 . S
C1084 C1085 1.363 1_565 S
C1084 C1089 1.390 . S
C1085 H1050 0.930 . S
C1085 C1084 1.363 1_545 S
C1085 C1086 1.372 . S
C1086 H1051 0.930 . S
C1086 C1085 1.372 . S
C1086 C1087 1.447 . S
C1087 C1086 1.447 . S
C1087 C1088 1.364 1_545 S
C1088 H1052 0.930 . S
C1088 C1087 1.364 1_565 S
C1088 C1089 1.362 . S
C1089 H1053 0.930 . S
C1089 C1084 1.390 . S
C1089 C1088 1.362 . S
C1090 C1079 1.492 . S
C1090 C1091 1.377 1_565 S
C1090 C1095 1.397 . S
C1091 H1054 0.931 . S
C1091 C1090 1.377 1_545 S
C1091 C1092 1.368 1_545 S
C1092 H1055 0.917 1_565 S
C1092 C1091 1.368 1_565 S
C1092 C1093 1.396 . S
C1093 C1092 1.396 . S
C1093 C1094 1.378 . S
C1093 C1120 1.486 . S
C1094 H1056 0.930 . S
C1094 C1093 1.378 . S
C1094 C1095 1.376 . S
C1095 H1057 0.929 . S
C1095 C1090 1.397 . S
C1095 C1094 1.376 . S
C1096 C1080 1.509 . S
C1096 C1097 1.391 1_565 S
C1096 C1101 1.386 . S
C1097 H1058 0.930 . S
C1097 C1096 1.391 1_545 S
C1097 C1098 1.375 . S
C1098 H1059 0.931 . S
C1098 C1097 1.375 . S
C1098 C1099 1.375 1_545 S
C1099 C1098 1.375 1_565 S
C1099 C1100 1.361 . S
C1100 H1060 0.930 . S
C1100 C1099 1.361 . S
C1100 C1101 1.399 . S
C1101 H1061 0.929 . S
C1101 C1096 1.386 . S
C1101 C1100 1.399 . S
C1102 C1081 1.485 . S
C1102 C1103 1.394 1_565 S
C1102 C1107 1.360 . S
C1103 H1062 0.931 . S
C1103 C1102 1.394 1_545 S
C1103 C1104 1.372 . S
C1104 H1063 0.930 . S
C1104 C1103 1.372 . S
C1104 C1105 1.397 1_545 S
C1105 C1104 1.397 1_565 S
C1105 C1106 1.390 . S
C1105 C1121 1.476 . S
C1106 H1064 0.930 . S
C1106 C1105 1.390 . S
C1106 C1107 1.366 . S
C1107 H1065 0.932 . S
C1107 C1102 1.360 . S
C1107 C1106 1.366 . S
C1108 C1082 1.489 . S
C1108 C1109 1.380 . S
C1108 C1113 1.386 1_545 S
C1109 H1066 0.930 . S
C1109 C1108 1.380 . S
C1109 C1110 1.381 . S
C1110 H1067 0.929 . S
C1110 C1109 1.381 . S
C1110 C1111 1.371 . S
C1111 C1110 1.371 . S
C1111 C1112 1.380 1_545 S
C1112 H1068 0.931 . S
C1112 C1111 1.380 1_565 S
C1112 C1113 1.387 . S
C1113 H1069 0.930 . S
C1113 C1108 1.386 1_565 S
C1113 C1112 1.387 . S
C1114 C1083 1.533 1_545 S
C1114 C1115 1.376 . S
C1114 C1119 1.362 1_545 S
C1115 H1070 0.929 . S
C1115 C1114 1.376 . S
C1115 C1116 1.386 . S
C1116 H1071 0.931 . S
C1116 C1115 1.386 . S
C1116 C1117 1.317 1_545 S
C1117 C1116 1.317 1_565 S
C1117 C1118 1.409 . S
C1118 H1072 0.930 . S
C1118 C1117 1.409 . S
C1118 C1119 1.396 . S
C1119 H1073 0.929 . S
C1119 C1114 1.362 1_565 S
C1119 C1118 1.396 . S
C1120 O1074 1.300 . S
C1120 O1075 1.209 . S
C1120 C1093 1.486 . S
C1121 O1076 1.199 1_565 S
C1121 O1077 1.297 . S
C1121 C1105 1.476 . S
H1122 O1148 0.856 . S
H1123 O1151 0.854 . S
H1124 C1159 0.930 . S
H1125 C1160 0.930 . S
H1126 C1162 0.930 . S
H1127 C1163 0.930 . S
H1128 C1165 0.931 . S
H1129 C1166 0.930 . S
H1130 C1168 0.930 . S
H1131 C1169 0.929 . S
H1132 C1171 0.930 . S
H1133 C1172 0.931 . S
H1134 C1174 0.930 . S
H1135 C1175 0.929 . S
H1136 C1177 0.931 . S
H1137 C1178 0.930 . S
H1138 C1180 0.930 . S
H1139 C1181 0.932 . S
H1140 C1183 0.930 . S
H1141 C1184 0.929 . S
H1142 C1186 0.931 . S
H1143 C1187 0.930 . S
H1144 C1189 0.929 . S
H1145 C1190 0.931 . S
H1146 C1192 0.930 . S
H1147 C1193 0.929 . S
O1148 H1122 0.856 . S
O1148 C1194 1.300 . S
O1149 C1194 1.209 1_565 S
O1150 C1195 1.199 1_545 S
O1151 H1123 0.854 . S
O1151 C1195 1.297 . S
C1152 C1153 1.404 . S
C1152 C1157 1.396 1_545 S
C1152 C1158 1.492 . S
C1153 C1152 1.404 . S
C1153 C1154 1.421 . S
C1153 C1164 1.492 . S
C1154 C1153 1.421 . S
C1154 C1155 1.373 1_545 S
C1154 C1170 1.501 . S
C1155 C1154 1.373 1_565 S
C1155 C1156 1.414 . S
C1155 C1176 1.519 . S
C1156 C1155 1.414 . S
C1156 C1157 1.355 . S
C1156 C1182 1.506 . S
C1157 C1152 1.396 1_565 S
C1157 C1156 1.355 . S
C1157 C1188 1.518 . S
C1158 C1152 1.492 . S
C1158 C1159 1.363 . S
C1158 C1163 1.390 1_545 S
C1159 H1124 0.930 . S
C1159 C1158 1.363 . S
C1159 C1160 1.372 . S
C1160 H1125 0.930 . S
C1160 C1159 1.372 . S
C1160 C1161 1.383 . S
C1161 C1160 1.383 . S
C1161 C1162 1.395 1_545 S
C1162 H1126 0.930 . S
C1162 C1161 1.395 1_565 S
C1162 C1163 1.362 . S
C1163 H1127 0.930 . S
C1163 C1158 1.390 1_565 S
C1163 C1162 1.362 . S
C1164 C1153 1.492 . S
C1164 C1165 1.377 . S
C1164 C1169 1.397 1_545 S
C1165 H1128 0.931 . S
C1165 C1164 1.377 . S
C1165 C1166 1.376 . S
C1166 H1129 0.930 . S
C1166 C1165 1.376 . S
C1166 C1167 1.376 . S
C1167 C1166 1.376 . S
C1167 C1168 1.378 1_545 S
C1167 C1194 1.486 . S
C1168 H1130 0.930 . S
C1168 C1167 1.378 1_565 S
C1168 C1169 1.376 . S
C1169 H1131 0.929 . S
C1169 C1164 1.397 1_565 S
C1169 C1168 1.376 . S
C1170 C1154 1.501 . S
C1170 C1171 1.398 . S
C1170 C1175 1.374 1_545 S
C1171 H1132 0.930 . S
C1171 C1170 1.398 . S
C1171 C1172 1.375 . S
C1172 H1133 0.931 . S
C1172 C1171 1.375 . S
C1172 C1173 1.363 1_545 S
C1173 C1172 1.363 1_565 S
C1173 C1174 1.368 . S
C1174 H1134 0.930 . S
C1174 C1173 1.368 . S
C1174 C1175 1.399 . S
C1175 H1135 0.929 . S
C1175 C1170 1.374 1_565 S
C1175 C1174 1.399 . S
C1176 C1155 1.519 . S
C1176 C1177 1.394 1_565 S
C1176 C1181 1.360 . S
C1177 H1136 0.931 . S
C1177 C1176 1.394 1_545 S
C1177 C1178 1.372 . S
C1178 H1137 0.930 . S
C1178 C1177 1.372 . S
C1178 C1179 1.397 1_545 S
C1179 C1178 1.397 1_565 S
C1179 C1180 1.390 . S
C1179 C1195 1.476 . S
C1180 H1138 0.930 . S
C1180 C1179 1.390 . S
C1180 C1181 1.366 . S
C1181 H1139 0.932 . S
C1181 C1176 1.360 . S
C1181 C1180 1.366 . S
C1182 C1156 1.506 . S
C1182 C1183 1.380 1_565 S
C1182 C1187 1.386 . S
C1183 H1140 0.930 . S
C1183 C1182 1.380 1_545 S
C1183 C1184 1.381 . S
C1184 H1141 0.929 . S
C1184 C1183 1.381 . S
C1184 C1185 1.355 1_545 S
C1185 C1184 1.355 1_565 S
C1185 C1186 1.392 . S
C1186 H1142 0.931 . S
C1186 C1185 1.392 . S
C1186 C1187 1.387 . S
C1187 H1143 0.930 . S
C1187 C1182 1.386 . S
C1187 C1186 1.387 . S
C1188 C1157 1.518 . S
C1188 C1189 1.377 1_565 S
C1188 C1193 1.361 . S
C1189 H1144 0.929 . S
C1189 C1188 1.377 1_545 S
C1189 C1190 1.386 . S
C1190 H1145 0.931 . S
C1190 C1189 1.386 . S
C1190 C1191 1.363 1_545 S
C1191 C1190 1.363 1_565 S
C1191 C1192 1.385 . S
C1192 H1146 0.930 . S
C1192 C1191 1.385 . S
C1192 C1193 1.396 . S
C1193 H1147 0.929 . S
C1193 C1188 1.361 . S
C1193 C1192 1.396 . S
C1194 O1148 1.300 . S
C1194 O1149 1.209 1_545 S
C1194 C1167 1.486 . S
C1195 O1150 1.199 1_565 S
C1195 O1151 1.297 . S
C1195 C1179 1.476 . S
H1196 O1222 0.856 . S
H1197 O1225 0.854 . S
H1198 C1233 0.930 . S
H1199 C1234 0.930 . S
H1200 C1236 0.930 . S
H1201 C1237 0.930 . S
H1202 C1239 0.931 . S
H1203 C1240 0.930 . S
H1204 C1242 0.930 . S
H1205 C1243 0.929 . S
H1206 C1245 0.930 . S
H1207 C1246 0.931 . S
H1208 C1248 0.930 . S
H1209 C1249 0.929 . S
H1210 C1251 0.931 . S
H1211 C1252 0.930 . S
H1212 C1254 0.930 . S
H1213 C1255 0.932 . S
H1214 C1257 0.930 . S
H1215 C1258 0.929 . S
H1216 C1260 0.931 . S
H1217 C1261 0.930 . S
H1218 C1263 0.929 . S
H1219 C1264 0.931 . S
H1220 C1266 0.930 . S
H1221 C1267 0.929 . S
O1222 H1196 0.856 . S
O1222 C1268 1.300 . S
O1223 C1268 1.209 1_455 S
O1224 C1269 1.199 1_655 S
O1225 H1197 0.854 . S
O1225 C1269 1.297 . S
C1226 C1227 1.404 . S
C1226 C1231 1.397 . S
C1226 C1232 1.492 . S
C1227 C1226 1.404 . S
C1227 C1228 1.396 . S
C1227 C1238 1.492 . S
C1228 C1227 1.396 . S
C1228 C1229 1.393 . S
C1228 C1244 1.509 . S
C1229 C1228 1.393 . S
C1229 C1230 1.387 1_655 S
C1229 C1250 1.517 1_655 S
C1230 C1229 1.387 1_455 S
C1230 C1231 1.395 1_455 S
C1230 C1256 1.488 . S
C1231 C1226 1.397 . S
C1231 C1230 1.395 1_655 S
C1231 C1262 1.521 1_655 S
C1232 C1226 1.492 . S
C1232 C1233 1.363 . S
C1232 C1237 1.390 1_655 S
C1233 H1198 0.930 . S
C1233 C1232 1.363 . S
C1233 C1234 1.372 . S
C1234 H1199 0.930 . S
C1234 C1233 1.372 . S
C1234 C1235 1.383 . S
C1235 C1234 1.383 . S
C1235 C1236 1.395 1_655 S
C1236 H1200 0.930 . S
C1236 C1235 1.395 1_455 S
C1236 C1237 1.362 . S
C1237 H1201 0.930 . S
C1237 C1232 1.390 1_455 S
C1237 C1236 1.362 . S
C1238 C1227 1.492 . S
C1238 C1239 1.377 . S
C1238 C1243 1.397 1_655 S
C1239 H1202 0.931 . S
C1239 C1238 1.377 . S
C1239 C1240 1.376 . S
C1240 H1203 0.930 . S
C1240 C1239 1.376 . S
C1240 C1241 1.376 . S
C1241 C1240 1.376 . S
C1241 C1242 1.378 1_655 S
C1241 C1268 1.486 . S
C1242 H1204 0.930 . S
C1242 C1241 1.378 1_455 S
C1242 C1243 1.376 . S
C1243 H1205 0.929 . S
C1243 C1238 1.397 1_455 S
C1243 C1242 1.376 . S
C1244 C1228 1.509 . S
C1244 C1245 1.391 . S
C1244 C1249 1.386 1_655 S
C1245 H1206 0.930 . S
C1245 C1244 1.391 . S
C1245 C1246 1.375 . S
C1246 H1207 0.931 . S
C1246 C1245 1.375 . S
C1246 C1247 1.375 . S
C1247 C1246 1.375 . S
C1247 C1248 1.361 1_655 S
C1248 H1208 0.930 . S
C1248 C1247 1.361 1_455 S
C1248 C1249 1.399 . S
C1249 H1209 0.929 . S
C1249 C1244 1.386 1_455 S
C1249 C1248 1.399 . S
C1250 C1229 1.517 1_455 S
C1250 C1251 1.384 1_455 S
C1250 C1255 1.364 . S
C1251 H1210 0.931 . S
C1251 C1250 1.384 1_655 S
C1251 C1252 1.372 . S
C1252 H1211 0.930 . S
C1252 C1251 1.372 . S
C1252 C1253 1.397 1_655 S
C1253 C1252 1.397 1_455 S
C1253 C1254 1.390 . S
C1253 C1269 1.476 . S
C1254 H1212 0.930 . S
C1254 C1253 1.390 . S
C1254 C1255 1.366 . S
C1255 H1213 0.932 . S
C1255 C1250 1.364 . S
C1255 C1254 1.366 . S
C1256 C1230 1.488 . S
C1256 C1257 1.380 1_455 S
C1256 C1261 1.386 . S
C1257 H1214 0.930 . S
C1257 C1256 1.380 1_655 S
C1257 C1258 1.381 . S
C1258 H1215 0.929 . S
C1258 C1257 1.381 . S
C1258 C1259 1.371 1_655 S
C1259 C1258 1.371 1_455 S
C1259 C1260 1.380 . S
C1260 H1216 0.931 . S
C1260 C1259 1.380 . S
C1260 C1261 1.387 . S
C1261 H1217 0.930 . S
C1261 C1256 1.386 . S
C1261 C1260 1.387 . S
C1262 C1231 1.521 1_455 S
C1262 C1263 1.377 1_455 S
C1262 C1267 1.361 . S
C1263 H1218 0.929 . S
C1263 C1262 1.377 1_655 S
C1263 C1264 1.386 . S
C1264 H1219 0.931 . S
C1264 C1263 1.386 . S
C1264 C1265 1.363 1_655 S
C1265 C1264 1.363 1_455 S
C1265 C1266 1.385 . S
C1266 H1220 0.930 . S
C1266 C1265 1.385 . S
C1266 C1267 1.396 . S
C1267 H1221 0.929 . S
C1267 C1262 1.361 . S
C1267 C1266 1.396 . S
C1268 O1222 1.300 . S
C1268 O1223 1.209 1_655 S
C1268 C1241 1.486 . S
C1269 O1224 1.199 1_455 S
C1269 O1225 1.297 . S
C1269 C1253 1.476 . S
H1270 O1296 0.856 . S
H1271 O1299 0.854 . S
H1272 C1307 0.930 . S
H1273 C1308 0.930 . S
H1274 C1310 0.930 . S
H1275 C1311 0.930 . S
H1276 C1313 0.931 . S
H1277 C1314 0.930 . S
H1278 C1316 0.930 . S
H1279 C1317 0.929 . S
H1280 C1319 0.930 . S
H1281 C1320 0.931 . S
H1282 C1322 0.930 . S
H1283 C1323 0.929 . S
H1284 C1325 0.931 . S
H1285 C1326 0.930 . S
H1286 C1328 0.930 . S
H1287 C1329 0.932 . S
H1288 C1331 0.930 . S
H1289 C1332 0.929 . S
H1290 C1334 0.931 . S
H1291 C1335 0.930 . S
H1292 C1337 0.929 . S
H1293 C1338 0.931 . S
H1294 C1340 0.930 . S
H1295 C1341 0.929 . S
O1296 H1270 0.856 . S
O1296 C1342 1.300 . S
O1297 C1342 1.209 . S
O1298 C1343 1.199 . S
O1299 H1271 0.854 . S
O1299 C1343 1.297 . S
C1300 C1301 1.404 . S
C1300 C1305 1.397 . S
C1300 C1306 1.492 . S
C1301 C1300 1.404 . S
C1301 C1302 1.396 . S
C1301 C1312 1.492 . S
C1302 C1301 1.396 . S
C1302 C1303 1.397 . S
C1302 C1318 1.509 . S
C1303 C1302 1.397 . S
C1303 C1304 1.412 . S
C1303 C1324 1.485 . S
C1304 C1303 1.412 . S
C1304 C1305 1.388 . S
C1304 C1330 1.490 . S
C1305 C1300 1.397 . S
C1305 C1304 1.388 . S
C1305 C1336 1.519 . S
C1306 C1300 1.492 . S
C1306 C1307 1.363 . S
C1306 C1311 1.390 . S
C1307 H1272 0.930 . S
C1307 C1306 1.363 . S
C1307 C1308 1.372 . S
C1308 H1273 0.930 . S
C1308 C1307 1.372 . S
C1308 C1309 1.383 . S
C1309 C1308 1.383 . S
C1309 C1310 1.395 . S
C1310 H1274 0.930 . S
C1310 C1309 1.395 . S
C1310 C1311 1.362 . S
C1311 H1275 0.930 . S
C1311 C1306 1.390 . S
C1311 C1310 1.362 . S
C1312 C1301 1.492 . S
C1312 C1313 1.377 . S
C1312 C1317 1.397 . S
C1313 H1276 0.931 . S
C1313 C1312 1.377 . S
C1313 C1314 1.376 . S
C1314 H1277 0.930 . S
C1314 C1313 1.376 . S
C1314 C1315 1.376 . S
C1315 C1314 1.376 . S
C1315 C1316 1.378 . S
C1315 C1342 1.486 . S
C1316 H1278 0.930 . S
C1316 C1315 1.378 . S
C1316 C1317 1.376 . S
C1317 H1279 0.929 . S
C1317 C1312 1.397 . S
C1317 C1316 1.376 . S
C1318 C1302 1.509 . S
C1318 C1319 1.391 . S
C1318 C1323 1.386 . S
C1319 H1280 0.930 . S
C1319 C1318 1.391 . S
C1319 C1320 1.375 . S
C1320 H1281 0.931 . S
C1320 C1319 1.375 . S
C1320 C1321 1.375 . S
C1321 C1320 1.375 . S
C1321 C1322 1.361 . S
C1322 H1282 0.930 . S
C1322 C1321 1.361 . S
C1322 C1323 1.399 . S
C1323 H1283 0.929 . S
C1323 C1318 1.386 . S
C1323 C1322 1.399 . S
C1324 C1303 1.485 . S
C1324 C1325 1.394 . S
C1324 C1329 1.360 . S
C1325 H1284 0.931 . S
C1325 C1324 1.394 . S
C1325 C1326 1.372 . S
C1326 H1285 0.930 . S
C1326 C1325 1.372 . S
C1326 C1327 1.397 . S
C1327 C1326 1.397 . S
C1327 C1328 1.390 . S
C1327 C1343 1.476 . S
C1328 H1286 0.930 . S
C1328 C1327 1.390 . S
C1328 C1329 1.366 . S
C1329 H1287 0.932 . S
C1329 C1324 1.360 . S
C1329 C1328 1.366 . S
C1330 C1304 1.490 . S
C1330 C1331 1.380 . S
C1330 C1335 1.386 . S
C1331 H1288 0.930 . S
C1331 C1330 1.380 . S
C1331 C1332 1.381 . S
C1332 H1289 0.929 . S
C1332 C1331 1.381 . S
C1332 C1333 1.371 . S
C1333 C1332 1.371 . S
C1333 C1334 1.380 . S
C1334 H1290 0.931 . S
C1334 C1333 1.380 . S
C1334 C1335 1.387 . S
C1335 H1291 0.930 . S
C1335 C1330 1.386 . S
C1335 C1334 1.387 . S
C1336 C1305 1.519 . S
C1336 C1337 1.377 . S
C1336 C1341 1.361 . S
C1337 H1292 0.929 . S
C1337 C1336 1.377 . S
C1337 C1338 1.386 . S
C1338 H1293 0.931 . S
C1338 C1337 1.386 . S
C1338 C1339 1.363 . S
C1339 C1338 1.363 . S
C1339 C1340 1.385 . S
C1340 H1294 0.930 . S
C1340 C1339 1.385 . S
C1340 C1341 1.396 . S
C1341 H1295 0.929 . S
C1341 C1336 1.361 . S
C1341 C1340 1.396 . S
C1342 O1296 1.300 . S
C1342 O1297 1.209 . S
C1342 C1315 1.486 . S
C1343 O1298 1.199 . S
C1343 O1299 1.297 . S
C1343 C1327 1.476 . S
H1344 O1370 0.856 . S
H1345 O1373 0.854 . S
H1346 C1381 0.930 . S
H1347 C1382 0.930 . S
H1348 C1384 0.930 . S
H1349 C1385 0.930 . S
H1350 C1387 0.931 . S
H1351 C1388 0.930 . S
H1352 C1390 0.930 . S
H1353 C1391 0.929 . S
H1354 C1393 0.930 . S
H1355 C1394 0.931 . S
H1356 C1396 0.930 . S
H1357 C1397 0.929 . S
H1358 C1399 0.931 . S
H1359 C1400 0.930 . S
H1360 C1402 0.930 . S
H1361 C1403 0.932 . S
H1362 C1405 0.930 . S
H1363 C1406 0.929 . S
H1364 C1408 0.931 . S
H1365 C1409 0.930 . S
H1366 C1411 0.929 . S
H1367 C1412 0.931 . S
H1368 C1414 0.930 . S
H1369 C1415 0.929 . S
O1370 H1344 0.856 . S
O1370 C1416 1.300 . S
O1371 C1416 1.209 . S
O1372 C1417 1.199 . S
O1373 H1345 0.854 . S
O1373 C1417 1.297 . S
C1374 C1375 1.404 . S
C1374 C1379 1.397 . S
C1374 C1380 1.492 . S
C1375 C1374 1.404 . S
C1375 C1376 1.396 . S
C1375 C1386 1.492 . S
C1376 C1375 1.396 . S
C1376 C1377 1.397 . S
C1376 C1392 1.509 . S
C1377 C1376 1.397 . S
C1377 C1378 1.412 . S
C1377 C1398 1.485 . S
C1378 C1377 1.412 . S
C1378 C1379 1.388 . S
C1378 C1404 1.490 . S
C1379 C1374 1.397 . S
C1379 C1378 1.388 . S
C1379 C1410 1.519 . S
C1380 C1374 1.492 . S
C1380 C1381 1.363 . S
C1380 C1385 1.390 . S
C1381 H1346 0.930 . S
C1381 C1380 1.363 . S
C1381 C1382 1.372 . S
C1382 H1347 0.930 . S
C1382 C1381 1.372 . S
C1382 C1383 1.383 . S
C1383 C1382 1.383 . S
C1383 C1384 1.395 . S
C1384 H1348 0.930 . S
C1384 C1383 1.395 . S
C1384 C1385 1.362 . S
C1385 H1349 0.930 . S
C1385 C1380 1.390 . S
C1385 C1384 1.362 . S
C1386 C1375 1.492 . S
C1386 C1387 1.377 . S
C1386 C1391 1.397 . S
C1387 H1350 0.931 . S
C1387 C1386 1.377 . S
C1387 C1388 1.376 . S
C1388 H1351 0.930 . S
C1388 C1387 1.376 . S
C1388 C1389 1.376 . S
C1389 C1388 1.376 . S
C1389 C1390 1.378 . S
C1389 C1416 1.486 . S
C1390 H1352 0.930 . S
C1390 C1389 1.378 . S
C1390 C1391 1.376 . S
C1391 H1353 0.929 . S
C1391 C1386 1.397 . S
C1391 C1390 1.376 . S
C1392 C1376 1.509 . S
C1392 C1393 1.391 . S
C1392 C1397 1.386 . S
C1393 H1354 0.930 . S
C1393 C1392 1.391 . S
C1393 C1394 1.375 . S
C1394 H1355 0.931 . S
C1394 C1393 1.375 . S
C1394 C1395 1.375 . S
C1395 C1394 1.375 . S
C1395 C1396 1.361 . S
C1396 H1356 0.930 . S
C1396 C1395 1.361 . S
C1396 C1397 1.399 . S
C1397 H1357 0.929 . S
C1397 C1392 1.386 . S
C1397 C1396 1.399 . S
C1398 C1377 1.485 . S
C1398 C1399 1.394 . S
C1398 C1403 1.360 . S
C1399 H1358 0.931 . S
C1399 C1398 1.394 . S
C1399 C1400 1.372 . S
C1400 H1359 0.930 . S
C1400 C1399 1.372 . S
C1400 C1401 1.397 . S
C1401 C1400 1.397 . S
C1401 C1402 1.390 . S
C1401 C1417 1.476 . S
C1402 H1360 0.930 . S
C1402 C1401 1.390 . S
C1402 C1403 1.366 . S
C1403 H1361 0.932 . S
C1403 C1398 1.360 . S
C1403 C1402 1.366 . S
C1404 C1378 1.490 . S
C1404 C1405 1.380 . S
C1404 C1409 1.386 . S
C1405 H1362 0.930 . S
C1405 C1404 1.380 . S
C1405 C1406 1.381 . S
C1406 H1363 0.929 . S
C1406 C1405 1.381 . S
C1406 C1407 1.371 . S
C1407 C1406 1.371 . S
C1407 C1408 1.380 . S
C1408 H1364 0.931 . S
C1408 C1407 1.380 . S
C1408 C1409 1.387 . S
C1409 H1365 0.930 . S
C1409 C1404 1.386 . S
C1409 C1408 1.387 . S
C1410 C1379 1.519 . S
C1410 C1411 1.377 . S
C1410 C1415 1.361 . S
C1411 H1366 0.929 . S
C1411 C1410 1.377 . S
C1411 C1412 1.386 . S
C1412 H1367 0.931 . S
C1412 C1411 1.386 . S
C1412 C1413 1.363 . S
C1413 C1412 1.363 . S
C1413 C1414 1.385 . S
C1414 H1368 0.930 . S
C1414 C1413 1.385 . S
C1414 C1415 1.396 . S
C1415 H1369 0.929 . S
C1415 C1410 1.361 . S
C1415 C1414 1.396 . S
C1416 O1370 1.300 . S
C1416 O1371 1.209 . S
C1416 C1389 1.486 . S
C1417 O1372 1.199 . S
C1417 O1373 1.297 . S
C1417 C1401 1.476 . S
H1418 O1444 0.856 . S
H1419 O1447 0.854 . S
H1420 C1455 0.930 . S
H1421 C1456 0.930 . S
H1422 C1458 0.930 . S
H1423 C1459 0.930 . S
H1424 C1461 0.931 . S
H1425 C1462 0.930 . S
H1426 C1464 0.930 . S
H1427 C1465 0.929 . S
H1428 C1467 0.930 . S
H1429 C1468 0.931 . S
H1430 C1470 0.930 . S
H1431 C1471 0.929 . S
H1432 C1473 0.931 . S
H1433 C1474 0.930 . S
H1434 C1476 0.930 . S
H1435 C1477 0.932 . S
H1436 C1479 0.930 . S
H1437 C1480 0.929 . S
H1438 C1482 0.931 . S
H1439 C1483 0.930 . S
H1440 C1485 0.929 . S
H1441 C1486 0.931 . S
H1442 C1488 0.930 . S
H1443 C1489 0.929 . S
O1444 H1418 0.856 . S
O1444 C1490 1.300 . S
O1445 C1490 1.209 . S
O1446 C1491 1.199 . S
O1447 H1419 0.854 . S
O1447 C1491 1.297 . S
C1448 C1449 1.404 . S
C1448 C1453 1.397 . S
C1448 C1454 1.492 . S
C1449 C1448 1.404 . S
C1449 C1450 1.396 . S
C1449 C1460 1.492 . S
C1450 C1449 1.396 . S
C1450 C1451 1.397 . S
C1450 C1466 1.509 . S
C1451 C1450 1.397 . S
C1451 C1452 1.412 . S
C1451 C1472 1.485 . S
C1452 C1451 1.412 . S
C1452 C1453 1.388 . S
C1452 C1478 1.490 . S
C1453 C1448 1.397 . S
C1453 C1452 1.388 . S
C1453 C1484 1.519 . S
C1454 C1448 1.492 . S
C1454 C1455 1.363 . S
C1454 C1459 1.390 . S
C1455 H1420 0.930 . S
C1455 C1454 1.363 . S
C1455 C1456 1.372 . S
C1456 H1421 0.930 . S
C1456 C1455 1.372 . S
C1456 C1457 1.383 . S
C1457 C1456 1.383 . S
C1457 C1458 1.395 . S
C1458 H1422 0.930 . S
C1458 C1457 1.395 . S
C1458 C1459 1.362 . S
C1459 H1423 0.930 . S
C1459 C1454 1.390 . S
C1459 C1458 1.362 . S
C1460 C1449 1.492 . S
C1460 C1461 1.377 . S
C1460 C1465 1.397 . S
C1461 H1424 0.931 . S
C1461 C1460 1.377 . S
C1461 C1462 1.376 . S
C1462 H1425 0.930 . S
C1462 C1461 1.376 . S
C1462 C1463 1.376 . S
C1463 C1462 1.376 . S
C1463 C1464 1.378 . S
C1463 C1490 1.486 . S
C1464 H1426 0.930 . S
C1464 C1463 1.378 . S
C1464 C1465 1.376 . S
C1465 H1427 0.929 . S
C1465 C1460 1.397 . S
C1465 C1464 1.376 . S
C1466 C1450 1.509 . S
C1466 C1467 1.391 . S
C1466 C1471 1.386 . S
C1467 H1428 0.930 . S
C1467 C1466 1.391 . S
C1467 C1468 1.375 . S
C1468 H1429 0.931 . S
C1468 C1467 1.375 . S
C1468 C1469 1.375 . S
C1469 C1468 1.375 . S
C1469 C1470 1.361 . S
C1470 H1430 0.930 . S
C1470 C1469 1.361 . S
C1470 C1471 1.399 . S
C1471 H1431 0.929 . S
C1471 C1466 1.386 . S
C1471 C1470 1.399 . S
C1472 C1451 1.485 . S
C1472 C1473 1.394 . S
C1472 C1477 1.360 . S
C1473 H1432 0.931 . S
C1473 C1472 1.394 . S
C1473 C1474 1.372 . S
C1474 H1433 0.930 . S
C1474 C1473 1.372 . S
C1474 C1475 1.397 . S
C1475 C1474 1.397 . S
C1475 C1476 1.390 . S
C1475 C1491 1.476 . S
C1476 H1434 0.930 . S
C1476 C1475 1.390 . S
C1476 C1477 1.366 . S
C1477 H1435 0.932 . S
C1477 C1472 1.360 . S
C1477 C1476 1.366 . S
C1478 C1452 1.490 . S
C1478 C1479 1.380 . S
C1478 C1483 1.386 . S
C1479 H1436 0.930 . S
C1479 C1478 1.380 . S
C1479 C1480 1.381 . S
C1480 H1437 0.929 . S
C1480 C1479 1.381 . S
C1480 C1481 1.371 . S
C1481 C1480 1.371 . S
C1481 C1482 1.380 . S
C1482 H1438 0.931 . S
C1482 C1481 1.380 . S
C1482 C1483 1.387 . S
C1483 H1439 0.930 . S
C1483 C1478 1.386 . S
C1483 C1482 1.387 . S
C1484 C1453 1.519 . S
C1484 C1485 1.377 . S
C1484 C1489 1.361 . S
C1485 H1440 0.929 . S
C1485 C1484 1.377 . S
C1485 C1486 1.386 . S
C1486 H1441 0.931 . S
C1486 C1485 1.386 . S
C1486 C1487 1.363 . S
C1487 C1486 1.363 . S
C1487 C1488 1.385 . S
C1488 H1442 0.930 . S
C1488 C1487 1.385 . S
C1488 C1489 1.396 . S
C1489 H1443 0.929 . S
C1489 C1484 1.361 . S
C1489 C1488 1.396 . S
C1490 O1444 1.300 . S
C1490 O1445 1.209 . S
C1490 C1463 1.486 . S
C1491 O1446 1.199 . S
C1491 O1447 1.297 . S
C1491 C1475 1.476 . S
H1492 O1518 0.856 . S
H1493 O1521 0.854 . S
H1494 C1529 0.930 . S
H1495 C1530 0.930 . S
H1496 C1532 0.930 . S
H1497 C1533 0.930 . S
H1498 C1535 0.931 . S
H1499 C1536 0.930 . S
H1500 C1538 0.930 . S
H1501 C1539 0.929 . S
H1502 C1541 0.930 . S
H1503 C1542 0.931 . S
H1504 C1544 0.930 . S
H1505 C1545 0.929 . S
H1506 C1547 0.931 . S
H1507 C1548 0.930 . S
H1508 C1550 0.930 . S
H1509 C1551 0.932 . S
H1510 C1553 0.930 . S
H1511 C1554 0.929 . S
H1512 C1556 0.931 . S
H1513 C1557 0.930 . S
H1514 C1559 0.929 . S
H1515 C1560 0.931 . S
H1516 C1562 0.930 . S
H1517 C1563 0.929 . S
O1518 H1492 0.856 . S
O1518 C1564 1.300 . S
O1519 C1564 1.209 . S
O1520 C1565 1.199 . S
O1521 H1493 0.854 . S
O1521 C1565 1.297 . S
C1522 C1523 1.404 . S
C1522 C1527 1.397 . S
C1522 C1528 1.492 . S
C1523 C1522 1.404 . S
C1523 C1524 1.396 . S
C1523 C1534 1.492 . S
C1524 C1523 1.396 . S
C1524 C1525 1.397 . S
C1524 C1540 1.509 . S
C1525 C1524 1.397 . S
C1525 C1526 1.412 . S
C1525 C1546 1.485 . S
C1526 C1525 1.412 . S
C1526 C1527 1.388 . S
C1526 C1552 1.490 . S
C1527 C1522 1.397 . S
C1527 C1526 1.388 . S
C1527 C1558 1.519 . S
C1528 C1522 1.492 . S
C1528 C1529 1.363 . S
C1528 C1533 1.390 . S
C1529 H1494 0.930 . S
C1529 C1528 1.363 . S
C1529 C1530 1.372 . S
C1530 H1495 0.930 . S
C1530 C1529 1.372 . S
C1530 C1531 1.383 . S
C1531 C1530 1.383 . S
C1531 C1532 1.395 . S
C1532 H1496 0.930 . S
C1532 C1531 1.395 . S
C1532 C1533 1.362 . S
C1533 H1497 0.930 . S
C1533 C1528 1.390 . S
C1533 C1532 1.362 . S
C1534 C1523 1.492 . S
C1534 C1535 1.377 . S
C1534 C1539 1.397 . S
C1535 H1498 0.931 . S
C1535 C1534 1.377 . S
C1535 C1536 1.376 . S
C1536 H1499 0.930 . S
C1536 C1535 1.376 . S
C1536 C1537 1.376 . S
C1537 C1536 1.376 . S
C1537 C1538 1.378 . S
C1537 C1564 1.486 . S
C1538 H1500 0.930 . S
C1538 C1537 1.378 . S
C1538 C1539 1.376 . S
C1539 H1501 0.929 . S
C1539 C1534 1.397 . S
C1539 C1538 1.376 . S
C1540 C1524 1.509 . S
C1540 C1541 1.391 . S
C1540 C1545 1.386 . S
C1541 H1502 0.930 . S
C1541 C1540 1.391 . S
C1541 C1542 1.375 . S
C1542 H1503 0.931 . S
C1542 C1541 1.375 . S
C1542 C1543 1.375 . S
C1543 C1542 1.375 . S
C1543 C1544 1.361 . S
C1544 H1504 0.930 . S
C1544 C1543 1.361 . S
C1544 C1545 1.399 . S
C1545 H1505 0.929 . S
C1545 C1540 1.386 . S
C1545 C1544 1.399 . S
C1546 C1525 1.485 . S
C1546 C1547 1.394 . S
C1546 C1551 1.360 . S
C1547 H1506 0.931 . S
C1547 C1546 1.394 . S
C1547 C1548 1.372 . S
C1548 H1507 0.930 . S
C1548 C1547 1.372 . S
C1548 C1549 1.397 . S
C1549 C1548 1.397 . S
C1549 C1550 1.390 . S
C1549 C1565 1.476 . S
C1550 H1508 0.930 . S
C1550 C1549 1.390 . S
C1550 C1551 1.366 . S
C1551 H1509 0.932 . S
C1551 C1546 1.360 . S
C1551 C1550 1.366 . S
C1552 C1526 1.490 . S
C1552 C1553 1.380 . S
C1552 C1557 1.386 . S
C1553 H1510 0.930 . S
C1553 C1552 1.380 . S
C1553 C1554 1.381 . S
C1554 H1511 0.929 . S
C1554 C1553 1.381 . S
C1554 C1555 1.371 . S
C1555 C1554 1.371 . S
C1555 C1556 1.380 . S
C1556 H1512 0.931 . S
C1556 C1555 1.380 . S
C1556 C1557 1.387 . S
C1557 H1513 0.930 . S
C1557 C1552 1.386 . S
C1557 C1556 1.387 . S
C1558 C1527 1.519 . S
C1558 C1559 1.377 . S
C1558 C1563 1.361 . S
C1559 H1514 0.929 . S
C1559 C1558 1.377 . S
C1559 C1560 1.386 . S
C1560 H1515 0.931 . S
C1560 C1559 1.386 . S
C1560 C1561 1.363 . S
C1561 C1560 1.363 . S
C1561 C1562 1.385 . S
C1562 H1516 0.930 . S
C1562 C1561 1.385 . S
C1562 C1563 1.396 . S
C1563 H1517 0.929 . S
C1563 C1558 1.361 . S
C1563 C1562 1.396 . S
C1564 O1518 1.300 . S
C1564 O1519 1.209 . S
C1564 C1537 1.486 . S
C1565 O1520 1.199 . S
C1565 O1521 1.297 . S
C1565 C1549 1.476 . S
H1566 C1574 0.950 . S
H1567 C1579 0.950 . S
H1568 C1576 0.950 . S
H1569 C1578 0.950 . S
H1570 C1580 0.950 1_455 S
H1571 C1582 0.945 1_455 S
H1572 C1584 0.950 . S
H1573 C1585 0.950 . S
C1574 H1566 0.950 . S
C1574 C1575 1.386 . S
C1574 C1576 1.391 . S
C1575 C1574 1.386 . S
C1575 C1579 1.393 1_655 S
C1576 H1568 0.950 . S
C1576 C1574 1.391 . S
C1576 C1577 1.400 . S
C1577 C1576 1.400 . S
C1577 C1578 1.398 1_655 S
C1577 C1583 1.491 . S
C1578 H1569 0.950 . S
C1578 C1577 1.398 1_455 S
C1578 C1579 1.391 . S
C1579 H1567 0.950 . S
C1579 C1575 1.393 1_455 S
C1579 C1578 1.391 . S
C1580 H1570 0.950 1_655 S
C1580 C1581 1.386 . S
C1580 C1582 1.394 . S
C1581 C1580 1.386 . S
C1581 C1585 1.393 . S
C1582 H1571 0.945 1_655 S
C1582 C1580 1.394 . S
C1582 C1583 1.402 . S
C1583 C1577 1.491 . S
C1583 C1582 1.402 . S
C1583 C1584 1.398 . S
C1584 H1572 0.950 . S
C1584 C1583 1.398 . S
C1584 C1585 1.391 . S
C1585 H1573 0.950 . S
C1585 C1581 1.393 . S
C1585 C1584 1.391 . S
H1586 C1594 0.950 . S
H1587 C1599 0.950 . S
H1588 C1596 0.950 . S
H1589 C1598 0.950 . S
H1590 C1600 0.950 . S
H1591 C1602 0.950 . S
H1592 C1604 0.950 . S
H1593 C1605 0.950 . S
C1594 H1586 0.950 . S
C1594 C1595 1.386 . S
C1594 C1596 1.391 . S
C1595 C1594 1.386 . S
C1595 C1599 1.393 . S
C1596 H1588 0.950 . S
C1596 C1594 1.391 . S
C1596 C1597 1.400 . S
C1597 C1596 1.400 . S
C1597 C1598 1.398 . S
C1597 C1603 1.491 . S
C1598 H1589 0.950 . S
C1598 C1597 1.398 . S
C1598 C1599 1.391 . S
C1599 H1587 0.950 . S
C1599 C1595 1.393 . S
C1599 C1598 1.391 . S
C1600 H1590 0.950 . S
C1600 C1601 1.386 . S
C1600 C1602 1.391 . S
C1601 C1600 1.386 . S
C1601 C1605 1.393 . S
C1602 H1591 0.950 . S
C1602 C1600 1.391 . S
C1602 C1603 1.400 . S
C1603 C1597 1.491 . S
C1603 C1602 1.400 . S
C1603 C1604 1.398 . S
C1604 H1592 0.950 . S
C1604 C1603 1.398 . S
C1604 C1605 1.391 . S
C1605 H1593 0.950 . S
C1605 C1601 1.393 . S
C1605 C1604 1.391 . S
H1606 C1614 0.950 . S
H1607 C1619 0.950 1_565 S
H1608 C1616 0.950 . S
H1609 C1618 0.950 1_565 S
H1610 C1620 0.950 1_565 S
H1611 C1622 0.950 1_565 S
H1612 C1624 0.950 . S
H1613 C1625 0.950 . S
C1614 H1606 0.950 . S
C1614 C1615 1.386 . S
C1614 C1616 1.391 . S
C1615 C1614 1.386 . S
C1615 C1619 1.393 . S
C1616 H1608 0.950 . S
C1616 C1614 1.391 . S
C1616 C1617 1.400 . S
C1617 C1616 1.400 . S
C1617 C1618 1.398 . S
C1617 C1623 1.491 . S
C1618 H1609 0.950 1_545 S
C1618 C1617 1.398 . S
C1618 C1619 1.391 . S
C1619 H1607 0.950 1_545 S
C1619 C1615 1.393 . S
C1619 C1618 1.391 . S
C1620 H1610 0.950 1_545 S
C1620 C1621 1.386 . S
C1620 C1622 1.391 . S
C1621 C1620 1.386 . S
C1621 C1625 1.393 . S
C1622 H1611 0.950 1_545 S
C1622 C1620 1.391 . S
C1622 C1623 1.400 . S
C1623 C1617 1.491 . S
C1623 C1622 1.400 . S
C1623 C1624 1.398 . S
C1624 H1612 0.950 . S
C1624 C1623 1.398 . S
C1624 C1625 1.391 . S
C1625 H1613 0.950 . S
C1625 C1621 1.393 . S
C1625 C1624 1.391 . S
H1626 C1634 0.950 . S
H1627 C1639 0.950 . S
H1628 C1636 0.950 . S
H1629 C1638 0.950 . S
H1630 C1640 0.950 . S
H1631 C1642 0.950 . S
H1632 C1644 0.950 . S
H1633 C1645 0.950 . S
C1634 H1626 0.950 . S
C1634 C1635 1.386 . S
C1634 C1636 1.391 . S
C1635 C1634 1.386 . S
C1635 C1639 1.393 . S
C1636 H1628 0.950 . S
C1636 C1634 1.391 . S
C1636 C1637 1.400 . S
C1637 C1636 1.400 . S
C1637 C1638 1.398 . S
C1637 C1643 1.491 . S
C1638 H1629 0.950 . S
C1638 C1637 1.398 . S
C1638 C1639 1.391 . S
C1639 H1627 0.950 . S
C1639 C1635 1.393 . S
C1639 C1638 1.391 . S
C1640 H1630 0.950 . S
C1640 C1641 1.386 . S
C1640 C1642 1.391 . S
C1641 C1640 1.386 . S
C1641 C1645 1.393 . S
C1642 H1631 0.950 . S
C1642 C1640 1.391 . S
C1642 C1643 1.400 . S
C1643 C1637 1.491 . S
C1643 C1642 1.400 . S
C1643 C1644 1.398 . S
C1644 H1632 0.950 . S
C1644 C1643 1.398 . S
C1644 C1645 1.391 . S
C1645 H1633 0.950 . S
C1645 C1641 1.393 . S
C1645 C1644 1.391 . S
H1646 C1654 0.950 1_655 S
H1647 C1659 0.950 . S
H1648 C1656 0.950 1_655 S
H1649 C1658 0.950 . S
H1650 C1660 0.950 . S
H1651 C1662 0.950 . S
H1652 C1664 0.950 1_655 S
H1653 C1665 0.950 1_655 S
C1654 H1646 0.950 1_455 S
C1654 C1655 1.386 . S
C1654 C1656 1.391 . S
C1655 C1654 1.386 . S
C1655 C1659 1.393 . S
C1656 H1648 0.950 1_455 S
C1656 C1654 1.391 . S
C1656 C1657 1.400 . S
C1657 C1656 1.400 . S
C1657 C1658 1.398 . S
C1657 C1663 1.491 . S
C1658 H1649 0.950 . S
C1658 C1657 1.398 . S
C1658 C1659 1.391 . S
C1659 H1647 0.950 . S
C1659 C1655 1.393 . S
C1659 C1658 1.391 . S
C1660 H1650 0.950 . S
C1660 C1661 1.386 . S
C1660 C1662 1.391 . S
C1661 C1660 1.386 . S
C1661 C1665 1.393 . S
C1662 H1651 0.950 . S
C1662 C1660 1.391 . S
C1662 C1663 1.400 . S
C1663 C1657 1.491 . S
C1663 C1662 1.400 . S
C1663 C1664 1.398 . S
C1664 H1652 0.950 1_455 S
C1664 C1663 1.398 . S
C1664 C1665 1.391 . S
C1665 H1653 0.950 1_455 S
C1665 C1661 1.393 . S
C1665 C1664 1.391 . S
H1666 C1674 0.950 . S
H1667 C1679 0.950 . S
H1668 C1676 0.953 . S
H1669 C1678 0.950 . S
H1670 C1680 0.950 . S
H1671 C1682 0.950 . S
H1672 C1684 0.950 . S
H1673 C1685 0.950 . S
C1674 H1666 0.950 . S
C1674 C1675 1.386 . S
C1674 C1676 1.407 . S
C1675 C1674 1.386 . S
C1675 C1679 1.393 1_554 S
C1676 H1668 0.953 . S
C1676 C1674 1.407 . S
C1676 C1677 1.382 1_554 S
C1677 C1676 1.382 1_556 S
C1677 C1678 1.398 . S
C1677 C1683 1.491 . S
C1678 H1669 0.950 . S
C1678 C1677 1.398 . S
C1678 C1679 1.391 . S
C1679 H1667 0.950 . S
C1679 C1675 1.393 1_556 S
C1679 C1678 1.391 . S
C1680 H1670 0.950 . S
C1680 C1681 1.386 . S
C1680 C1682 1.391 . S
C1681 C1680 1.386 . S
C1681 C1685 1.393 . S
C1682 H1671 0.950 . S
C1682 C1680 1.391 . S
C1682 C1683 1.400 . S
C1683 C1677 1.491 . S
C1683 C1682 1.400 . S
C1683 C1684 1.398 . S
C1684 H1672 0.950 . S
C1684 C1683 1.398 . S
C1684 C1685 1.391 . S
C1685 H1673 0.950 . S
C1685 C1681 1.393 . S
C1685 C1684 1.391 . S
H1686 C1694 0.950 . S
H1687 C1699 0.950 . S
H1688 C1696 0.950 . S
H1689 C1698 0.950 . S
H1690 C1700 0.950 . S
H1691 C1702 0.950 . S
H1692 C1704 0.950 . S
H1693 C1705 0.950 . S
C1694 H1686 0.950 . S
C1694 C1695 1.386 1_556 S
C1694 C1696 1.391 . S
C1695 C1694 1.386 1_554 S
C1695 C1699 1.393 . S
C1696 H1688 0.950 . S
C1696 C1694 1.391 . S
C1696 C1697 1.400 . S
C1697 C1696 1.400 . S
C1697 C1698 1.398 . S
C1697 C1703 1.491 . S
C1698 H1689 0.950 . S
C1698 C1697 1.398 . S
C1698 C1699 1.391 1_556 S
C1699 H1687 0.950 . S
C1699 C1695 1.393 . S
C1699 C1698 1.391 1_554 S
C1700 H1690 0.950 . S
C1700 C1701 1.386 . S
C1700 C1702 1.391 . S
C1701 C1700 1.386 . S
C1701 C1705 1.393 . S
C1702 H1691 0.950 . S
C1702 C1700 1.391 . S
C1702 C1703 1.400 . S
C1703 C1697 1.491 . S
C1703 C1702 1.400 . S
C1703 C1704 1.398 . S
C1704 H1692 0.950 . S
C1704 C1703 1.398 . S
C1704 C1705 1.391 . S
C1705 H1693 0.950 . S
C1705 C1701 1.393 . S
C1705 C1704 1.391 . S
H1706 C1714 0.950 . S
H1707 C1719 0.950 . S
H1708 C1716 0.950 . S
H1709 C1718 0.950 . S
H1710 C1720 0.950 . S
H1711 C1722 0.950 . S
H1712 C1724 0.950 . S
H1713 C1725 0.950 . S
C1714 H1706 0.950 . S
C1714 C1715 1.386 . S
C1714 C1716 1.391 . S
C1715 C1714 1.386 . S
C1715 C1719 1.393 . S
C1716 H1708 0.950 . S
C1716 C1714 1.391 . S
C1716 C1717 1.400 . S
C1717 C1716 1.400 . S
C1717 C1718 1.398 . S
C1717 C1723 1.491 . S
C1718 H1709 0.950 . S
C1718 C1717 1.398 . S
C1718 C1719 1.391 . S
C1719 H1707 0.950 . S
C1719 C1715 1.393 . S
C1719 C1718 1.391 . S
C1720 H1710 0.950 . S
C1720 C1721 1.386 . S
C1720 C1722 1.391 . S
C1721 C1720 1.386 . S
C1721 C1725 1.393 . S
C1722 H1711 0.950 . S
C1722 C1720 1.391 . S
C1722 C1723 1.400 . S
C1723 C1717 1.491 . S
C1723 C1722 1.400 . S
C1723 C1724 1.398 . S
C1724 H1712 0.950 . S
C1724 C1723 1.398 . S
C1724 C1725 1.391 . S
C1725 H1713 0.950 . S
C1725 C1721 1.393 . S
C1725 C1724 1.391 . S
H1726 C1734 0.950 . S
H1727 C1739 0.950 1_554 S
H1728 C1736 0.950 . S
H1729 C1738 0.950 . S
H1730 C1740 0.950 . S
H1731 C1742 0.950 . S
H1732 C1744 0.950 . S
H1733 C1745 0.950 . S
C1734 H1726 0.950 . S
C1734 C1735 1.386 . S
C1734 C1736 1.391 . S
C1735 C1734 1.386 . S
C1735 C1739 1.393 1_565 S
C1736 H1728 0.950 . S
C1736 C1734 1.391 . S
C1736 C1737 1.400 . S
C1737 C1736 1.400 . S
C1737 C1738 1.398 1_565 S
C1737 C1743 1.491 . S
C1738 H1729 0.950 . S
C1738 C1737 1.398 1_545 S
C1738 C1739 1.391 . S
C1739 H1727 0.950 1_556 S
C1739 C1735 1.393 1_545 S
C1739 C1738 1.391 . S
C1740 H1730 0.950 . S
C1740 C1741 1.378 1_545 S
C1740 C1742 1.391 . S
C1741 C1740 1.378 1_565 S
C1741 C1745 1.409 . S
C1742 H1731 0.950 . S
C1742 C1740 1.391 . S
C1742 C1743 1.400 1_545 S
C1743 C1737 1.491 . S
C1743 C1742 1.400 1_565 S
C1743 C1744 1.398 . S
C1744 H1732 0.950 . S
C1744 C1743 1.398 . S
C1744 C1745 1.391 . S
C1745 H1733 0.950 . S
C1745 C1741 1.409 . S
C1745 C1744 1.391 . S
H1746 C1754 0.950 . S
H1747 C1759 0.950 . S
H1748 C1756 0.950 . S
H1749 C1758 0.950 . S
H1750 C1760 0.950 . S
H1751 C1762 0.953 1_565 S
H1752 C1764 0.950 . S
H1753 C1765 0.950 . S
C1754 H1746 0.950 . S
C1754 C1755 1.386 . S
C1754 C1756 1.391 . S
C1755 C1754 1.386 . S
C1755 C1759 1.393 . S
C1756 H1748 0.950 . S
C1756 C1754 1.391 . S
C1756 C1757 1.400 . S
C1757 C1756 1.400 . S
C1757 C1758 1.398 . S
C1757 C1763 1.491 . S
C1758 H1749 0.950 . S
C1758 C1757 1.398 . S
C1758 C1759 1.391 . S
C1759 H1747 0.950 . S
C1759 C1755 1.393 . S
C1759 C1758 1.391 . S
C1760 H1750 0.950 . S
C1760 C1761 1.383 . S
C1760 C1762 1.394 1_565 S
C1761 C1760 1.383 . S
C1761 C1765 1.399 1_565 S
C1762 H1751 0.953 1_545 S
C1762 C1760 1.394 1_545 S
C1762 C1763 1.395 . S
C1763 C1757 1.491 . S
C1763 C1762 1.395 . S
C1763 C1764 1.398 . S
C1764 H1752 0.950 . S
C1764 C1763 1.398 . S
C1764 C1765 1.391 . S
C1765 H1753 0.950 . S
C1765 C1761 1.399 1_545 S
C1765 C1764 1.391 . S
H1766 C1774 0.950 . S
H1767 C1779 0.978 . S
H1768 C1776 0.950 . S
H1769 C1778 0.950 . S
H1770 C1780 0.950 . S
H1771 C1782 0.950 . S
H1772 C1784 0.950 . S
H1773 C1785 0.950 . S
C1774 H1766 0.950 . S
C1774 C1775 1.386 . S
C1774 C1776 1.391 . S
C1775 C1774 1.386 . S
C1775 C1779 1.345 1_655 S
C1776 H1768 0.950 . S
C1776 C1774 1.391 . S
C1776 C1777 1.400 . S
C1777 C1776 1.400 . S
C1777 C1778 1.398 1_655 S
C1777 C1783 1.491 . S
C1778 H1769 0.950 . S
C1778 C1777 1.398 1_455 S
C1778 C1779 1.412 . S
C1779 H1767 0.978 . S
C1779 C1775 1.345 1_455 S
C1779 C1778 1.412 . S
C1780 H1770 0.950 . S
C1780 C1781 1.386 1_455 S
C1780 C1782 1.391 . S
C1781 C1780 1.386 1_655 S
C1781 C1785 1.393 . S
C1782 H1771 0.950 . S
C1782 C1780 1.391 . S
C1782 C1783 1.400 1_455 S
C1783 C1777 1.491 . S
C1783 C1782 1.400 1_655 S
C1783 C1784 1.398 . S
C1784 H1772 0.950 . S
C1784 C1783 1.398 . S
C1784 C1785 1.391 . S
C1785 H1773 0.950 . S
C1785 C1781 1.393 . S
C1785 C1784 1.391 . S
H1786 C1794 0.950 . S
H1787 C1799 0.950 . S
H1788 C1796 0.950 . S
H1789 C1798 0.950 . S
H1790 C1800 0.950 . S
H1791 C1802 0.950 . S
H1792 C1804 0.950 . S
H1793 C1805 0.950 . S
C1794 H1786 0.950 . S
C1794 C1795 1.386 . S
C1794 C1796 1.391 . S
C1795 C1794 1.386 . S
C1795 C1799 1.393 . S
C1796 H1788 0.950 . S
C1796 C1794 1.391 . S
C1796 C1797 1.400 . S
C1797 C1796 1.400 . S
C1797 C1798 1.398 . S
C1797 C1803 1.491 . S
C1798 H1789 0.950 . S
C1798 C1797 1.398 . S
C1798 C1799 1.391 . S
C1799 H1787 0.950 . S
C1799 C1795 1.393 . S
C1799 C1798 1.391 . S
C1800 H1790 0.950 . S
C1800 C1801 1.386 . S
C1800 C1802 1.391 . S
C1801 C1800 1.386 . S
C1801 C1805 1.393 . S
C1802 H1791 0.950 . S
C1802 C1800 1.391 . S
C1802 C1803 1.400 . S
C1803 C1797 1.491 . S
C1803 C1802 1.400 . S
C1803 C1804 1.398 . S
C1804 H1792 0.950 . S
C1804 C1803 1.398 . S
C1804 C1805 1.391 . S
C1805 H1793 0.950 . S
C1805 C1801 1.393 . S
C1805 C1804 1.391 . S
H1806 C1814 0.950 . S
H1807 C1819 0.950 . S
H1808 C1816 0.950 . S
H1809 C1818 0.950 . S
H1810 C1820 0.950 . S
H1811 C1822 0.950 . S
H1812 C1824 0.950 . S
H1813 C1825 0.950 . S
C1814 H1806 0.950 . S
C1814 C1815 1.386 . S
C1814 C1816 1.391 . S
C1815 C1814 1.386 . S
C1815 C1819 1.393 . S
C1816 H1808 0.950 . S
C1816 C1814 1.391 . S
C1816 C1817 1.400 . S
C1817 C1816 1.400 . S
C1817 C1818 1.398 . S
C1817 C1823 1.491 . S
C1818 H1809 0.950 . S
C1818 C1817 1.398 . S
C1818 C1819 1.391 . S
C1819 H1807 0.950 . S
C1819 C1815 1.393 . S
C1819 C1818 1.391 . S
C1820 H1810 0.950 . S
C1820 C1821 1.386 . S
C1820 C1822 1.391 . S
C1821 C1820 1.386 . S
C1821 C1825 1.393 . S
C1822 H1811 0.950 . S
C1822 C1820 1.391 . S
C1822 C1823 1.400 . S
C1823 C1817 1.491 . S
C1823 C1822 1.400 . S
C1823 C1824 1.398 . S
C1824 H1812 0.950 . S
C1824 C1823 1.398 . S
C1824 C1825 1.391 . S
C1825 H1813 0.950 . S
C1825 C1821 1.393 . S
C1825 C1824 1.391 . S
H1826 C1834 0.950 . S
H1827 C1839 0.950 . S
H1828 C1836 0.950 . S
H1829 C1838 0.950 . S
H1830 C1840 0.950 . S
H1831 C1842 0.950 . S
H1832 C1844 0.950 . S
H1833 C1845 0.950 . S
C1834 H1826 0.950 . S
C1834 C1835 1.386 . S
C1834 C1836 1.391 . S
C1835 C1834 1.386 . S
C1835 C1839 1.393 . S
C1836 H1828 0.950 . S
C1836 C1834 1.391 . S
C1836 C1837 1.400 . S
C1837 C1836 1.400 . S
C1837 C1838 1.398 . S
C1837 C1843 1.491 . S
C1838 H1829 0.950 . S
C1838 C1837 1.398 . S
C1838 C1839 1.391 . S
C1839 H1827 0.950 . S
C1839 C1835 1.393 . S
C1839 C1838 1.391 . S
C1840 H1830 0.950 . S
C1840 C1841 1.386 . S
C1840 C1842 1.391 . S
C1841 C1840 1.386 . S
C1841 C1845 1.393 . S
C1842 H1831 0.950 . S
C1842 C1840 1.391 . S
C1842 C1843 1.400 . S
C1843 C1837 1.491 . S
C1843 C1842 1.400 . S
C1843 C1844 1.398 . S
C1844 H1832 0.950 . S
C1844 C1843 1.398 . S
C1844 C1845 1.391 . S
C1845 H1833 0.950 . S
C1845 C1841 1.393 . S
C1845 C1844 1.391 . S
H1846 C1854 0.950 . S
H1847 C1859 0.950 . S
H1848 C1856 0.950 . S
H1849 C1858 0.950 . S
H1850 C1860 0.950 . S
H1851 C1862 0.950 . S
H1852 C1864 0.950 . S
H1853 C1865 0.950 . S
C1854 H1846 0.950 . S
C1854 C1855 1.386 . S
C1854 C1856 1.391 . S
C1855 C1854 1.386 . S
C1855 C1859 1.393 . S
C1856 H1848 0.950 . S
C1856 C1854 1.391 . S
C1856 C1857 1.400 . S
C1857 C1856 1.400 . S
C1857 C1858 1.398 . S
C1857 C1863 1.491 . S
C1858 H1849 0.950 . S
C1858 C1857 1.398 . S
C1858 C1859 1.391 . S
C1859 H1847 0.950 . S
C1859 C1855 1.393 . S
C1859 C1858 1.391 . S
C1860 H1850 0.950 . S
C1860 C1861 1.386 . S
C1860 C1862 1.391 . S
C1861 C1860 1.386 . S
C1861 C1865 1.393 . S
C1862 H1851 0.950 . S
C1862 C1860 1.391 . S
C1862 C1863 1.400 . S
C1863 C1857 1.491 . S
C1863 C1862 1.400 . S
C1863 C1864 1.398 . S
C1864 H1852 0.950 . S
C1864 C1863 1.398 . S
C1864 C1865 1.391 . S
C1865 H1853 0.950 . S
C1865 C1861 1.393 . S
C1865 C1864 1.391 . S
H1866 C1874 0.950 . S
H1867 C1879 0.950 . S
H1868 C1876 0.950 . S
H1869 C1878 0.950 . S
H1870 C1880 0.950 . S
H1871 C1882 0.950 . S
H1872 C1884 0.950 . S
H1873 C1885 0.950 . S
C1874 H1866 0.950 . S
C1874 C1875 1.386 . S
C1874 C1876 1.391 . S
C1875 C1874 1.386 . S
C1875 C1879 1.393 . S
C1876 H1868 0.950 . S
C1876 C1874 1.391 . S
C1876 C1877 1.400 . S
C1877 C1876 1.400 . S
C1877 C1878 1.398 . S
C1877 C1883 1.491 . S
C1878 H1869 0.950 . S
C1878 C1877 1.398 . S
C1878 C1879 1.391 . S
C1879 H1867 0.950 . S
C1879 C1875 1.393 . S
C1879 C1878 1.391 . S
C1880 H1870 0.950 . S
C1880 C1881 1.386 . S
C1880 C1882 1.391 . S
C1881 C1880 1.386 . S
C1881 C1885 1.393 . S
C1882 H1871 0.950 . S
C1882 C1880 1.391 . S
C1882 C1883 1.400 . S
C1883 C1877 1.491 . S
C1883 C1882 1.400 . S
C1883 C1884 1.398 . S
C1884 H1872 0.950 . S
C1884 C1883 1.398 . S
C1884 C1885 1.391 . S
C1885 H1873 0.950 . S
C1885 C1881 1.393 . S
C1885 C1884 1.391 . S
H1886 C1894 0.950 . S
H1887 C1899 0.950 . S
H1888 C1896 0.950 . S
H1889 C1898 0.950 . S
H1890 C1900 0.950 . S
H1891 C1902 0.950 . S
H1892 C1904 0.950 . S
H1893 C1905 0.950 . S
C1894 H1886 0.950 . S
C1894 C1895 1.386 . S
C1894 C1896 1.391 . S
C1895 C1894 1.386 . S
C1895 C1899 1.393 . S
C1896 H1888 0.950 . S
C1896 C1894 1.391 . S
C1896 C1897 1.400 . S
C1897 C1896 1.400 . S
C1897 C1898 1.398 . S
C1897 C1903 1.491 . S
C1898 H1889 0.950 . S
C1898 C1897 1.398 . S
C1898 C1899 1.391 . S
C1899 H1887 0.950 . S
C1899 C1895 1.393 . S
C1899 C1898 1.391 . S
C1900 H1890 0.950 . S
C1900 C1901 1.386 . S
C1900 C1902 1.391 . S
C1901 C1900 1.386 . S
C1901 C1905 1.393 . S
C1902 H1891 0.950 . S
C1902 C1900 1.391 . S
C1902 C1903 1.400 . S
C1903 C1897 1.491 . S
C1903 C1902 1.400 . S
C1903 C1904 1.398 . S
C1904 H1892 0.950 . S
C1904 C1903 1.398 . S
C1904 C1905 1.391 . S
C1905 H1893 0.950 . S
C1905 C1901 1.393 . S
C1905 C1904 1.391 . S
H1906 C1914 0.950 . S
H1907 C1919 0.950 . S
H1908 C1916 0.950 . S
H1909 C1918 0.950 . S
H1910 C1920 0.950 . S
H1911 C1922 0.950 . S
H1912 C1924 0.950 . S
H1913 C1925 0.950 . S
C1914 H1906 0.950 . S
C1914 C1915 1.386 . S
C1914 C1916 1.391 . S
C1915 C1914 1.386 . S
C1915 C1919 1.393 . S
C1916 H1908 0.950 . S
C1916 C1914 1.391 . S
C1916 C1917 1.400 . S
C1917 C1916 1.400 . S
C1917 C1918 1.398 . S
C1917 C1923 1.491 . S
C1918 H1909 0.950 . S
C1918 C1917 1.398 . S
C1918 C1919 1.391 . S
C1919 H1907 0.950 . S
C1919 C1915 1.393 . S
C1919 C1918 1.391 . S
C1920 H1910 0.950 . S
C1920 C1921 1.386 . S
C1920 C1922 1.391 . S
C1921 C1920 1.386 . S
C1921 C1925 1.393 . S
C1922 H1911 0.950 . S
C1922 C1920 1.391 . S
C1922 C1923 1.400 . S
C1923 C1917 1.491 . S
C1923 C1922 1.400 . S
C1923 C1924 1.398 . S
C1924 H1912 0.950 . S
C1924 C1923 1.398 . S
C1924 C1925 1.391 . S
C1925 H1913 0.950 . S
C1925 C1921 1.393 . S
C1925 C1924 1.391 . S
H1926 C1934 0.950 . S
H1927 C1939 0.950 . S
H1928 C1936 0.950 . S
H1929 C1938 0.950 . S
H1930 C1940 0.950 . S
H1931 C1942 0.950 . S
H1932 C1944 0.950 . S
H1933 C1945 0.950 . S
C1934 H1926 0.950 . S
C1934 C1935 1.386 . S
C1934 C1936 1.391 . S
C1935 C1934 1.386 . S
C1935 C1939 1.393 . S
C1936 H1928 0.950 . S
C1936 C1934 1.391 . S
C1936 C1937 1.400 . S
C1937 C1936 1.400 . S
C1937 C1938 1.398 . S
C1937 C1943 1.491 . S
C1938 H1929 0.950 . S
C1938 C1937 1.398 . S
C1938 C1939 1.391 . S
C1939 H1927 0.950 . S
C1939 C1935 1.393 . S
C1939 C1938 1.391 . S
C1940 H1930 0.950 . S
C1940 C1941 1.386 . S
C1940 C1942 1.391 . S
C1941 C1940 1.386 . S
C1941 C1945 1.393 . S
C1942 H1931 0.950 . S
C1942 C1940 1.391 . S
C1942 C1943 1.400 . S
C1943 C1937 1.491 . S
C1943 C1942 1.400 . S
C1943 C1944 1.398 . S
C1944 H1932 0.950 . S
C1944 C1943 1.398 . S
C1944 C1945 1.391 . S
C1945 H1933 0.950 . S
C1945 C1941 1.393 . S
C1945 C1944 1.391 . S
H1946 C1954 0.950 . S
H1947 C1959 0.950 . S
H1948 C1956 0.950 . S
H1949 C1958 0.950 . S
H1950 C1960 0.950 . S
H1951 C1962 0.950 . S
H1952 C1964 0.950 . S
H1953 C1965 0.950 . S
C1954 H1946 0.950 . S
C1954 C1955 1.386 . S
C1954 C1956 1.391 . S
C1955 C1954 1.386 . S
C1955 C1959 1.393 . S
C1956 H1948 0.950 . S
C1956 C1954 1.391 . S
C1956 C1957 1.400 . S
C1957 C1956 1.400 . S
C1957 C1958 1.398 . S
C1957 C1963 1.491 . S
C1958 H1949 0.950 . S
C1958 C1957 1.398 . S
C1958 C1959 1.391 . S
C1959 H1947 0.950 . S
C1959 C1955 1.393 . S
C1959 C1958 1.391 . S
C1960 H1950 0.950 . S
C1960 C1961 1.386 . S
C1960 C1962 1.391 . S
C1961 C1960 1.386 . S
C1961 C1965 1.393 . S
C1962 H1951 0.950 . S
C1962 C1960 1.391 . S
C1962 C1963 1.400 . S
C1963 C1957 1.491 . S
C1963 C1962 1.400 . S
C1963 C1964 1.398 . S
C1964 H1952 0.950 . S
C1964 C1963 1.398 . S
C1964 C1965 1.391 . S
C1965 H1953 0.950 . S
C1965 C1961 1.393 . S
C1965 C1964 1.391 . S
H1966 C1974 0.950 . S
H1967 C1979 0.950 . S
H1968 C1976 0.950 . S
H1969 C1978 0.950 . S
H1970 C1980 0.950 . S
H1971 C1982 0.950 . S
H1972 C1984 0.950 . S
H1973 C1985 0.950 . S
C1974 H1966 0.950 . S
C1974 C1975 1.386 . S
C1974 C1976 1.391 . S
C1975 C1974 1.386 . S
C1975 C1979 1.393 . S
C1976 H1968 0.950 . S
C1976 C1974 1.391 . S
C1976 C1977 1.400 . S
C1977 C1976 1.400 . S
C1977 C1978 1.398 . S
C1977 C1983 1.491 . S
C1978 H1969 0.950 . S
C1978 C1977 1.398 . S
C1978 C1979 1.391 . S
C1979 H1967 0.950 . S
C1979 C1975 1.393 . S
C1979 C1978 1.391 . S
C1980 H1970 0.950 . S
C1980 C1981 1.386 . S
C1980 C1982 1.391 . S
C1981 C1980 1.386 . S
C1981 C1985 1.393 . S
C1982 H1971 0.950 . S
C1982 C1980 1.391 . S
C1982 C1983 1.400 . S
C1983 C1977 1.491 . S
C1983 C1982 1.400 . S
C1983 C1984 1.398 . S
C1984 H1972 0.950 . S
C1984 C1983 1.398 . S
C1984 C1985 1.391 . S
C1985 H1973 0.950 . S
C1985 C1981 1.393 . S
C1985 C1984 1.391 . S
H1986 C1994 0.950 . S
H1987 C1999 0.950 . S
H1988 C1996 0.950 . S
H1989 C1998 0.950 . S
H1990 C2000 0.950 . S
H1991 C2002 0.950 . S
H1992 C2004 0.950 . S
H1993 C2005 0.950 . S
C1994 H1986 0.950 . S
C1994 C1995 1.386 . S
C1994 C1996 1.391 . S
C1995 C1994 1.386 . S
C1995 C1999 1.393 . S
C1996 H1988 0.950 . S
C1996 C1994 1.391 . S
C1996 C1997 1.400 . S
C1997 C1996 1.400 . S
C1997 C1998 1.398 . S
C1997 C2003 1.491 . S
C1998 H1989 0.950 . S
C1998 C1997 1.398 . S
C1998 C1999 1.391 . S
C1999 H1987 0.950 . S
C1999 C1995 1.393 . S
C1999 C1998 1.391 . S
C2000 H1990 0.950 . S
C2000 C2001 1.386 . S
C2000 C2002 1.391 . S
C2001 C2000 1.386 . S
C2001 C2005 1.393 . S
C2002 H1991 0.950 . S
C2002 C2000 1.391 . S
C2002 C2003 1.400 . S
C2003 C1997 1.491 . S
C2003 C2002 1.400 . S
C2003 C2004 1.398 . S
C2004 H1992 0.950 . S
C2004 C2003 1.398 . S
C2004 C2005 1.391 . S
C2005 H1993 0.950 . S
C2005 C2001 1.393 . S
C2005 C2004 1.391 . S
H2006 C2014 0.950 . S
H2007 C2019 0.950 . S
H2008 C2016 0.950 . S
H2009 C2018 0.950 . S
H2010 C2020 0.950 . S
H2011 C2022 0.950 . S
H2012 C2024 0.950 . S
H2013 C2025 0.950 . S
C2014 H2006 0.950 . S
C2014 C2015 1.386 . S
C2014 C2016 1.391 . S
C2015 C2014 1.386 . S
C2015 C2019 1.393 . S
C2016 H2008 0.950 . S
C2016 C2014 1.391 . S
C2016 C2017 1.400 . S
C2017 C2016 1.400 . S
C2017 C2018 1.398 . S
C2017 C2023 1.491 . S
C2018 H2009 0.950 . S
C2018 C2017 1.398 . S
C2018 C2019 1.391 . S
C2019 H2007 0.950 . S
C2019 C2015 1.393 . S
C2019 C2018 1.391 . S
C2020 H2010 0.950 . S
C2020 C2021 1.386 . S
C2020 C2022 1.391 . S
C2021 C2020 1.386 . S
C2021 C2025 1.393 . S
C2022 H2011 0.950 . S
C2022 C2020 1.391 . S
C2022 C2023 1.400 . S
C2023 C2017 1.491 . S
C2023 C2022 1.400 . S
C2023 C2024 1.398 . S
C2024 H2012 0.950 . S
C2024 C2023 1.398 . S
C2024 C2025 1.391 . S
C2025 H2013 0.950 . S
C2025 C2021 1.393 . S
C2025 C2024 1.391 . S
H2026 C2034 0.950 . S
H2027 C2039 0.950 . S
H2028 C2036 0.950 . S
H2029 C2038 0.950 . S
H2030 C2040 0.950 . S
H2031 C2042 0.950 . S
H2032 C2044 0.950 . S
H2033 C2045 0.950 . S
C2034 H2026 0.950 . S
C2034 C2035 1.386 . S
C2034 C2036 1.391 . S
C2035 C2034 1.386 . S
C2035 C2039 1.393 . S
C2036 H2028 0.950 . S
C2036 C2034 1.391 . S
C2036 C2037 1.400 . S
C2037 C2036 1.400 . S
C2037 C2038 1.398 . S
C2037 C2043 1.491 . S
C2038 H2029 0.950 . S
C2038 C2037 1.398 . S
C2038 C2039 1.391 . S
C2039 H2027 0.950 . S
C2039 C2035 1.393 . S
C2039 C2038 1.391 . S
C2040 H2030 0.950 . S
C2040 C2041 1.386 . S
C2040 C2042 1.391 . S
C2041 C2040 1.386 . S
C2041 C2045 1.393 . S
C2042 H2031 0.950 . S
C2042 C2040 1.391 . S
C2042 C2043 1.400 . S
C2043 C2037 1.491 . S
C2043 C2042 1.400 . S
C2043 C2044 1.398 . S
C2044 H2032 0.950 . S
C2044 C2043 1.398 . S
C2044 C2045 1.391 . S
C2045 H2033 0.950 . S
C2045 C2041 1.393 . S
C2045 C2044 1.391 . S
H2046 C2054 0.950 . S
H2047 C2059 0.950 . S
H2048 C2056 0.950 . S
H2049 C2058 0.950 . S
H2050 C2060 0.950 . S
H2051 C2062 0.950 . S
H2052 C2064 0.950 . S
H2053 C2065 0.950 . S
C2054 H2046 0.950 . S
C2054 C2055 1.386 . S
C2054 C2056 1.391 . S
C2055 C2054 1.386 . S
C2055 C2059 1.393 . S
C2056 H2048 0.950 . S
C2056 C2054 1.391 . S
C2056 C2057 1.400 . S
C2057 C2056 1.400 . S
C2057 C2058 1.398 . S
C2057 C2063 1.491 . S
C2058 H2049 0.950 . S
C2058 C2057 1.398 . S
C2058 C2059 1.391 . S
C2059 H2047 0.950 . S
C2059 C2055 1.393 . S
C2059 C2058 1.391 . S
C2060 H2050 0.950 . S
C2060 C2061 1.386 . S
C2060 C2062 1.391 . S
C2061 C2060 1.386 . S
C2061 C2065 1.393 . S
C2062 H2051 0.950 . S
C2062 C2060 1.391 . S
C2062 C2063 1.400 . S
C2063 C2057 1.491 . S
C2063 C2062 1.400 . S
C2063 C2064 1.398 . S
C2064 H2052 0.950 . S
C2064 C2063 1.398 . S
C2064 C2065 1.391 . S
C2065 H2053 0.950 . S
C2065 C2061 1.393 . S
C2065 C2064 1.391 . S
H2066 C2074 0.950 . S
H2067 C2079 0.950 . S
H2068 C2076 0.950 . S
H2069 C2078 0.950 . S
H2070 C2080 0.950 . S
H2071 C2082 0.950 . S
H2072 C2084 0.950 . S
H2073 C2085 0.950 . S
C2074 H2066 0.950 . S
C2074 C2075 1.386 . S
C2074 C2076 1.391 . S
C2075 C2074 1.386 . S
C2075 C2079 1.393 . S
C2076 H2068 0.950 . S
C2076 C2074 1.391 . S
C2076 C2077 1.400 . S
C2077 C2076 1.400 . S
C2077 C2078 1.398 . S
C2077 C2083 1.491 . S
C2078 H2069 0.950 . S
C2078 C2077 1.398 . S
C2078 C2079 1.391 . S
C2079 H2067 0.950 . S
C2079 C2075 1.393 . S
C2079 C2078 1.391 . S
C2080 H2070 0.950 . S
C2080 C2081 1.386 . S
C2080 C2082 1.391 . S
C2081 C2080 1.386 . S
C2081 C2085 1.393 . S
C2082 H2071 0.950 . S
C2082 C2080 1.391 . S
C2082 C2083 1.400 . S
C2083 C2077 1.491 . S
C2083 C2082 1.400 . S
C2083 C2084 1.398 . S
C2084 H2072 0.950 . S
C2084 C2083 1.398 . S
C2084 C2085 1.391 . S
C2085 H2073 0.950 . S
C2085 C2081 1.393 . S
C2085 C2084 1.391 . S
H2086 C2094 0.950 . S
H2087 C2099 0.950 . S
H2088 C2096 0.950 . S
H2089 C2098 0.950 . S
H2090 C2100 0.950 . S
H2091 C2102 0.950 . S
H2092 C2104 0.950 . S
H2093 C2105 0.950 . S
C2094 H2086 0.950 . S
C2094 C2095 1.386 . S
C2094 C2096 1.391 . S
C2095 C2094 1.386 . S
C2095 C2099 1.393 . S
C2096 H2088 0.950 . S
C2096 C2094 1.391 . S
C2096 C2097 1.400 . S
C2097 C2096 1.400 . S
C2097 C2098 1.398 . S
C2097 C2103 1.491 . S
C2098 H2089 0.950 . S
C2098 C2097 1.398 . S
C2098 C2099 1.391 . S
C2099 H2087 0.950 . S
C2099 C2095 1.393 . S
C2099 C2098 1.391 . S
C2100 H2090 0.950 . S
C2100 C2101 1.386 . S
C2100 C2102 1.391 . S
C2101 C2100 1.386 . S
C2101 C2105 1.393 . S
C2102 H2091 0.950 . S
C2102 C2100 1.391 . S
C2102 C2103 1.400 . S
C2103 C2097 1.491 . S
C2103 C2102 1.400 . S
C2103 C2104 1.398 . S
C2104 H2092 0.950 . S
C2104 C2103 1.398 . S
C2104 C2105 1.391 . S
C2105 H2093 0.950 . S
C2105 C2101 1.393 . S
C2105 C2104 1.391 . S
H2106 C2114 0.950 . S
H2107 C2119 0.950 . S
H2108 C2116 0.950 . S
H2109 C2118 0.950 . S
H2110 C2120 0.950 . S
H2111 C2122 0.950 . S
H2112 C2124 0.950 . S
H2113 C2125 0.950 . S
C2114 H2106 0.950 . S
C2114 C2115 1.386 . S
C2114 C2116 1.391 . S
C2115 C2114 1.386 . S
C2115 C2119 1.393 . S
C2116 H2108 0.950 . S
C2116 C2114 1.391 . S
C2116 C2117 1.400 . S
C2117 C2116 1.400 . S
C2117 C2118 1.398 . S
C2117 C2123 1.491 . S
C2118 H2109 0.950 . S
C2118 C2117 1.398 . S
C2118 C2119 1.391 . S
C2119 H2107 0.950 . S
C2119 C2115 1.393 . S
C2119 C2118 1.391 . S
C2120 H2110 0.950 . S
C2120 C2121 1.386 . S
C2120 C2122 1.391 . S
C2121 C2120 1.386 . S
C2121 C2125 1.393 . S
C2122 H2111 0.950 . S
C2122 C2120 1.391 . S
C2122 C2123 1.400 . S
C2123 C2117 1.491 . S
C2123 C2122 1.400 . S
C2123 C2124 1.398 . S
C2124 H2112 0.950 . S
C2124 C2123 1.398 . S
C2124 C2125 1.391 . S
C2125 H2113 0.950 . S
C2125 C2121 1.393 . S
C2125 C2124 1.391 . S
H2126 C2134 0.950 . S
H2127 C2139 0.950 . S
H2128 C2136 0.950 . S
H2129 C2138 0.950 . S
H2130 C2140 0.950 . S
H2131 C2142 0.950 . S
H2132 C2144 0.950 . S
H2133 C2145 0.950 . S
C2134 H2126 0.950 . S
C2134 C2135 1.386 . S
C2134 C2136 1.391 . S
C2135 C2134 1.386 . S
C2135 C2139 1.393 . S
C2136 H2128 0.950 . S
C2136 C2134 1.391 . S
C2136 C2137 1.400 . S
C2137 C2136 1.400 . S
C2137 C2138 1.398 . S
C2137 C2143 1.491 . S
C2138 H2129 0.950 . S
C2138 C2137 1.398 . S
C2138 C2139 1.391 . S
C2139 H2127 0.950 . S
C2139 C2135 1.393 . S
C2139 C2138 1.391 . S
C2140 H2130 0.950 . S
C2140 C2141 1.386 . S
C2140 C2142 1.391 . S
C2141 C2140 1.386 . S
C2141 C2145 1.393 . S
C2142 H2131 0.950 . S
C2142 C2140 1.391 . S
C2142 C2143 1.400 . S
C2143 C2137 1.491 . S
C2143 C2142 1.400 . S
C2143 C2144 1.398 . S
C2144 H2132 0.950 . S
C2144 C2143 1.398 . S
C2144 C2145 1.391 . S
C2145 H2133 0.950 . S
C2145 C2141 1.393 . S
C2145 C2144 1.391 . S
H2146 C2154 0.950 . S
H2147 C2159 0.950 . S
H2148 C2156 0.950 . S
H2149 C2158 0.950 . S
H2150 C2160 0.950 . S
H2151 C2162 0.950 . S
H2152 C2164 0.950 . S
H2153 C2165 0.950 . S
C2154 H2146 0.950 . S
C2154 C2155 1.386 . S
C2154 C2156 1.391 . S
C2155 C2154 1.386 . S
C2155 C2159 1.393 . S
C2156 H2148 0.950 . S
C2156 C2154 1.391 . S
C2156 C2157 1.400 . S
C2157 C2156 1.400 . S
C2157 C2158 1.398 . S
C2157 C2163 1.491 . S
C2158 H2149 0.950 . S
C2158 C2157 1.398 . S
C2158 C2159 1.391 . S
C2159 H2147 0.950 . S
C2159 C2155 1.393 . S
C2159 C2158 1.391 . S
C2160 H2150 0.950 . S
C2160 C2161 1.386 . S
C2160 C2162 1.391 . S
C2161 C2160 1.386 . S
C2161 C2165 1.393 . S
C2162 H2151 0.950 . S
C2162 C2160 1.391 . S
C2162 C2163 1.400 . S
C2163 C2157 1.491 . S
C2163 C2162 1.400 . S
C2163 C2164 1.398 . S
C2164 H2152 0.950 . S
C2164 C2163 1.398 . S
C2164 C2165 1.391 . S
C2165 H2153 0.950 . S
C2165 C2161 1.393 . S
C2165 C2164 1.391 . S
H2166 C2174 0.950 . S
H2167 C2179 0.950 . S
H2168 C2176 0.950 . S
H2169 C2178 0.950 . S
H2170 C2180 0.950 . S
H2171 C2182 0.950 . S
H2172 C2184 0.950 . S
H2173 C2185 0.950 . S
C2174 H2166 0.950 . S
C2174 C2175 1.386 . S
C2174 C2176 1.391 . S
C2175 C2174 1.386 . S
C2175 C2179 1.393 . S
C2176 H2168 0.950 . S
C2176 C2174 1.391 . S
C2176 C2177 1.400 . S
C2177 C2176 1.400 . S
C2177 C2178 1.398 . S
C2177 C2183 1.491 . S
C2178 H2169 0.950 . S
C2178 C2177 1.398 . S
C2178 C2179 1.391 . S
C2179 H2167 0.950 . S
C2179 C2175 1.393 . S
C2179 C2178 1.391 . S
C2180 H2170 0.950 . S
C2180 C2181 1.386 . S
C2180 C2182 1.391 . S
C2181 C2180 1.386 . S
C2181 C2185 1.393 . S
C2182 H2171 0.950 . S
C2182 C2180 1.391 . S
C2182 C2183 1.400 . S
C2183 C2177 1.491 . S
C2183 C2182 1.400 . S
C2183 C2184 1.398 . S
C2184 H2172 0.950 . S
C2184 C2183 1.398 . S
C2184 C2185 1.391 . S
C2185 H2173 0.950 . S
C2185 C2181 1.393 . S
C2185 C2184 1.391 . S
H2186 C2194 0.950 . S
H2187 C2199 0.950 . S
H2188 C2196 0.950 . S
H2189 C2198 0.950 . S
H2190 C2200 0.950 . S
H2191 C2202 0.950 . S
H2192 C2204 0.950 . S
H2193 C2205 0.950 . S
C2194 H2186 0.950 . S
C2194 C2195 1.386 . S
C2194 C2196 1.391 . S
C2195 C2194 1.386 . S
C2195 C2199 1.393 . S
C2196 H2188 0.950 . S
C2196 C2194 1.391 . S
C2196 C2197 1.400 . S
C2197 C2196 1.400 . S
C2197 C2198 1.398 . S
C2197 C2203 1.491 . S
C2198 H2189 0.950 . S
C2198 C2197 1.398 . S
C2198 C2199 1.391 . S
C2199 H2187 0.950 . S
C2199 C2195 1.393 . S
C2199 C2198 1.391 . S
C2200 H2190 0.950 . S
C2200 C2201 1.386 . S
C2200 C2202 1.391 . S
C2201 C2200 1.386 . S
C2201 C2205 1.393 . S
C2202 H2191 0.950 . S
C2202 C2200 1.391 . S
C2202 C2203 1.400 . S
C2203 C2197 1.491 . S
C2203 C2202 1.400 . S
C2203 C2204 1.398 . S
C2204 H2192 0.950 . S
C2204 C2203 1.398 . S
C2204 C2205 1.391 . S
C2205 H2193 0.950 . S
C2205 C2201 1.393 . S
C2205 C2204 1.391 . S
H2206 C2214 0.950 . S
H2207 C2219 0.950 . S
H2208 C2216 0.950 . S
H2209 C2218 0.950 . S
H2210 C2220 0.950 . S
H2211 C2222 0.950 . S
H2212 C2224 0.950 . S
H2213 C2225 0.950 . S
C2214 H2206 0.950 . S
C2214 C2215 1.386 . S
C2214 C2216 1.391 . S
C2215 C2214 1.386 . S
C2215 C2219 1.393 . S
C2216 H2208 0.950 . S
C2216 C2214 1.391 . S
C2216 C2217 1.400 . S
C2217 C2216 1.400 . S
C2217 C2218 1.398 . S
C2217 C2223 1.491 . S
C2218 H2209 0.950 . S
C2218 C2217 1.398 . S
C2218 C2219 1.391 . S
C2219 H2207 0.950 . S
C2219 C2215 1.393 . S
C2219 C2218 1.391 . S
C2220 H2210 0.950 . S
C2220 C2221 1.386 . S
C2220 C2222 1.391 . S
C2221 C2220 1.386 . S
C2221 C2225 1.393 . S
C2222 H2211 0.950 . S
C2222 C2220 1.391 . S
C2222 C2223 1.400 . S
C2223 C2217 1.491 . S
C2223 C2222 1.400 . S
C2223 C2224 1.398 . S
C2224 H2212 0.950 . S
C2224 C2223 1.398 . S
C2224 C2225 1.391 . S
C2225 H2213 0.950 . S
C2225 C2221 1.393 . S
C2225 C2224 1.391 . S
H2226 C2234 0.950 . S
H2227 C2239 0.950 . S
H2228 C2236 0.950 . S
H2229 C2238 0.950 . S
H2230 C2240 0.950 . S
H2231 C2242 0.950 . S
H2232 C2244 0.950 . S
H2233 C2245 0.950 . S
C2234 H2226 0.950 . S
C2234 C2235 1.386 . S
C2234 C2236 1.391 . S
C2235 C2234 1.386 . S
C2235 C2239 1.393 . S
C2236 H2228 0.950 . S
C2236 C2234 1.391 . S
C2236 C2237 1.400 . S
C2237 C2236 1.400 . S
C2237 C2238 1.398 . S
C2237 C2243 1.491 . S
C2238 H2229 0.950 . S
C2238 C2237 1.398 . S
C2238 C2239 1.391 . S
C2239 H2227 0.950 . S
C2239 C2235 1.393 . S
C2239 C2238 1.391 . S
C2240 H2230 0.950 . S
C2240 C2241 1.386 . S
C2240 C2242 1.391 . S
C2241 C2240 1.386 . S
C2241 C2245 1.393 . S
C2242 H2231 0.950 . S
C2242 C2240 1.391 . S
C2242 C2243 1.400 . S
C2243 C2237 1.491 . S
C2243 C2242 1.400 . S
C2243 C2244 1.398 . S
C2244 H2232 0.950 . S
C2244 C2243 1.398 . S
C2244 C2245 1.391 . S
C2245 H2233 0.950 . S
C2245 C2241 1.393 . S
C2245 C2244 1.391 . S
H2246 C2254 0.950 . S
H2247 C2259 0.950 . S
H2248 C2256 0.950 . S
H2249 C2258 0.950 . S
H2250 C2260 0.950 . S
H2251 C2262 0.950 . S
H2252 C2264 0.950 . S
H2253 C2265 0.950 . S
C2254 H2246 0.950 . S
C2254 C2255 1.386 . S
C2254 C2256 1.391 . S
C2255 C2254 1.386 . S
C2255 C2259 1.393 . S
C2256 H2248 0.950 . S
C2256 C2254 1.391 . S
C2256 C2257 1.400 . S
C2257 C2256 1.400 . S
C2257 C2258 1.398 . S
C2257 C2263 1.491 . S
C2258 H2249 0.950 . S
C2258 C2257 1.398 . S
C2258 C2259 1.391 . S
C2259 H2247 0.950 . S
C2259 C2255 1.393 . S
C2259 C2258 1.391 . S
C2260 H2250 0.950 . S
C2260 C2261 1.386 . S
C2260 C2262 1.391 . S
C2261 C2260 1.386 . S
C2261 C2265 1.393 . S
C2262 H2251 0.950 . S
C2262 C2260 1.391 . S
C2262 C2263 1.400 . S
C2263 C2257 1.491 . S
C2263 C2262 1.400 . S
C2263 C2264 1.398 . S
C2264 H2252 0.950 . S
C2264 C2263 1.398 . S
C2264 C2265 1.391 . S
C2265 H2253 0.950 . S
C2265 C2261 1.393 . S
C2265 C2264 1.391 . S
H2266 C2274 0.950 . S
H2267 C2279 0.950 . S
H2268 C2276 0.950 . S
H2269 C2278 0.950 . S
H2270 C2280 0.950 . S
H2271 C2282 0.950 . S
H2272 C2284 0.950 . S
H2273 C2285 0.950 . S
C2274 H2266 0.950 . S
C2274 C2275 1.386 . S
C2274 C2276 1.391 . S
C2275 C2274 1.386 . S
C2275 C2279 1.393 . S
C2276 H2268 0.950 . S
C2276 C2274 1.391 . S
C2276 C2277 1.400 . S
C2277 C2276 1.400 . S
C2277 C2278 1.398 . S
C2277 C2283 1.491 . S
C2278 H2269 0.950 . S
C2278 C2277 1.398 . S
C2278 C2279 1.391 . S
C2279 H2267 0.950 . S
C2279 C2275 1.393 . S
C2279 C2278 1.391 . S
C2280 H2270 0.950 . S
C2280 C2281 1.386 . S
C2280 C2282 1.391 . S
C2281 C2280 1.386 . S
C2281 C2285 1.393 . S
C2282 H2271 0.950 . S
C2282 C2280 1.391 . S
C2282 C2283 1.400 . S
C2283 C2277 1.491 . S
C2283 C2282 1.400 . S
C2283 C2284 1.398 . S
C2284 H2272 0.950 . S
C2284 C2283 1.398 . S
C2284 C2285 1.391 . S
C2285 H2273 0.950 . S
C2285 C2281 1.393 . S
C2285 C2284 1.391 . S
H2286 C2294 0.950 . S
H2287 C2299 0.950 . S
H2288 C2296 0.950 . S
H2289 C2298 0.950 . S
H2290 C2300 0.950 . S
H2291 C2302 0.950 . S
H2292 C2304 0.950 . S
H2293 C2305 0.950 . S
C2294 H2286 0.950 . S
C2294 C2295 1.386 . S
C2294 C2296 1.391 . S
C2295 C2294 1.386 . S
C2295 C2299 1.393 . S
C2296 H2288 0.950 . S
C2296 C2294 1.391 . S
C2296 C2297 1.400 . S
C2297 C2296 1.400 . S
C2297 C2298 1.398 . S
C2297 C2303 1.491 . S
C2298 H2289 0.950 . S
C2298 C2297 1.398 . S
C2298 C2299 1.391 . S
C2299 H2287 0.950 . S
C2299 C2295 1.393 . S
C2299 C2298 1.391 . S
C2300 H2290 0.950 . S
C2300 C2301 1.386 . S
C2300 C2302 1.391 . S
C2301 C2300 1.386 . S
C2301 C2305 1.393 . S
C2302 H2291 0.950 . S
C2302 C2300 1.391 . S
C2302 C2303 1.400 . S
C2303 C2297 1.491 . S
C2303 C2302 1.400 . S
C2303 C2304 1.398 . S
C2304 H2292 0.950 . S
C2304 C2303 1.398 . S
C2304 C2305 1.391 . S
C2305 H2293 0.950 . S
C2305 C2301 1.393 . S
C2305 C2304 1.391 . S
H2306 C2314 0.950 . S
H2307 C2319 0.950 . S
H2308 C2316 0.950 . S
H2309 C2318 0.950 . S
H2310 C2320 0.950 . S
H2311 C2322 0.950 . S
H2312 C2324 0.950 . S
H2313 C2325 0.950 . S
C2314 H2306 0.950 . S
C2314 C2315 1.386 . S
C2314 C2316 1.391 . S
C2315 C2314 1.386 . S
C2315 C2319 1.393 . S
C2316 H2308 0.950 . S
C2316 C2314 1.391 . S
C2316 C2317 1.400 . S
C2317 C2316 1.400 . S
C2317 C2318 1.398 . S
C2317 C2323 1.491 . S
C2318 H2309 0.950 . S
C2318 C2317 1.398 . S
C2318 C2319 1.391 . S
C2319 H2307 0.950 . S
C2319 C2315 1.393 . S
C2319 C2318 1.391 . S
C2320 H2310 0.950 . S
C2320 C2321 1.386 . S
C2320 C2322 1.391 . S
C2321 C2320 1.386 . S
C2321 C2325 1.393 . S
C2322 H2311 0.950 . S
C2322 C2320 1.391 . S
C2322 C2323 1.400 . S
C2323 C2317 1.491 . S
C2323 C2322 1.400 . S
C2323 C2324 1.398 . S
C2324 H2312 0.950 . S
C2324 C2323 1.398 . S
C2324 C2325 1.391 . S
C2325 H2313 0.950 . S
C2325 C2321 1.393 . S
C2325 C2324 1.391 . S
H2326 C2334 0.950 . S
H2327 C2339 0.950 . S
H2328 C2336 0.950 . S
H2329 C2338 0.950 . S
H2330 C2340 0.950 . S
H2331 C2342 0.950 . S
H2332 C2344 0.950 . S
H2333 C2345 0.950 . S
C2334 H2326 0.950 . S
C2334 C2335 1.386 . S
C2334 C2336 1.391 . S
C2335 C2334 1.386 . S
C2335 C2339 1.393 . S
C2336 H2328 0.950 . S
C2336 C2334 1.391 . S
C2336 C2337 1.400 . S
C2337 C2336 1.400 . S
C2337 C2338 1.398 . S
C2337 C2343 1.491 . S
C2338 H2329 0.950 . S
C2338 C2337 1.398 . S
C2338 C2339 1.391 . S
C2339 H2327 0.950 . S
C2339 C2335 1.393 . S
C2339 C2338 1.391 . S
C2340 H2330 0.950 . S
C2340 C2341 1.386 . S
C2340 C2342 1.391 . S
C2341 C2340 1.386 . S
C2341 C2345 1.393 . S
C2342 H2331 0.950 . S
C2342 C2340 1.391 . S
C2342 C2343 1.400 . S
C2343 C2337 1.491 . S
C2343 C2342 1.400 . S
C2343 C2344 1.398 . S
C2344 H2332 0.950 . S
C2344 C2343 1.398 . S
C2344 C2345 1.391 . S
C2345 H2333 0.950 . S
C2345 C2341 1.393 . S
C2345 C2344 1.391 . S
H2346 C2354 0.950 . S
H2347 C2359 0.950 . S
H2348 C2356 0.950 . S
H2349 C2358 0.950 . S
H2350 C2360 0.950 . S
H2351 C2362 0.950 1_554 S
H2352 C2364 0.950 . S
H2353 C2365 0.950 . S
C2354 H2346 0.950 . S
C2354 C2355 1.386 1_556 S
C2354 C2356 1.391 . S
C2355 C2354 1.386 1_554 S
C2355 C2359 1.393 . S
C2356 H2348 0.950 . S
C2356 C2354 1.391 . S
C2356 C2357 1.400 . S
C2357 C2356 1.400 . S
C2357 C2358 1.398 1_556 S
C2357 C2363 1.491 . S
C2358 H2349 0.950 . S
C2358 C2357 1.398 1_554 S
C2358 C2359 1.391 . S
C2359 H2347 0.950 . S
C2359 C2355 1.393 . S
C2359 C2358 1.391 . S
C2360 H2350 0.950 . S
C2360 C2361 1.386 . S
C2360 C2362 1.391 . S
C2361 C2360 1.386 . S
C2361 C2365 1.393 . S
C2362 H2351 0.950 1_556 S
C2362 C2360 1.391 . S
C2362 C2363 1.400 . S
C2363 C2357 1.491 . S
C2363 C2362 1.400 . S
C2363 C2364 1.398 . S
C2364 H2352 0.950 . S
C2364 C2363 1.398 . S
C2364 C2365 1.391 . S
C2365 H2353 0.950 . S
C2365 C2361 1.393 . S
C2365 C2364 1.391 . S
H2366 C2374 0.950 . S
H2367 C2379 0.950 . S
H2368 C2376 0.950 1_554 S
H2369 C2378 0.950 . S
H2370 C2380 0.950 . S
H2371 C2382 0.950 . S
H2372 C2384 0.950 . S
H2373 C2385 0.950 . S
C2374 H2366 0.950 . S
C2374 C2375 1.371 1_554 S
C2374 C2376 1.391 1_554 S
C2375 C2374 1.371 1_556 S
C2375 C2379 1.422 . S
C2376 H2368 0.950 1_556 S
C2376 C2374 1.391 1_556 S
C2376 C2377 1.400 . S
C2377 C2376 1.400 . S
C2377 C2378 1.398 . S
C2377 C2383 1.491 . S
C2378 H2369 0.950 . S
C2378 C2377 1.398 . S
C2378 C2379 1.391 . S
C2379 H2367 0.950 . S
C2379 C2375 1.422 . S
C2379 C2378 1.391 . S
C2380 H2370 0.950 . S
C2380 C2381 1.386 . S
C2380 C2382 1.391 . S
C2381 C2380 1.386 . S
C2381 C2385 1.393 . S
C2382 H2371 0.950 . S
C2382 C2380 1.391 . S
C2382 C2383 1.400 . S
C2383 C2377 1.491 . S
C2383 C2382 1.400 . S
C2383 C2384 1.398 . S
C2384 H2372 0.950 . S
C2384 C2383 1.398 . S
C2384 C2385 1.391 . S
C2385 H2373 0.950 . S
C2385 C2381 1.393 . S
C2385 C2384 1.391 . S
H2386 C2394 0.950 . S
H2387 C2399 0.950 . S
H2388 C2396 0.950 1_556 S
H2389 C2398 0.950 . S
H2390 C2400 0.950 . S
H2391 C2402 0.950 . S
H2392 C2404 0.950 . S
H2393 C2405 0.950 . S
C2394 H2386 0.950 . S
C2394 C2395 1.386 . S
C2394 C2396 1.391 . S
C2395 C2394 1.386 . S
C2395 C2399 1.393 . S
C2396 H2388 0.950 1_554 S
C2396 C2394 1.391 . S
C2396 C2397 1.400 . S
C2397 C2396 1.400 . S
C2397 C2398 1.398 . S
C2397 C2403 1.491 . S
C2398 H2389 0.950 . S
C2398 C2397 1.398 . S
C2398 C2399 1.391 . S
C2399 H2387 0.950 . S
C2399 C2395 1.393 . S
C2399 C2398 1.391 . S
C2400 H2390 0.950 . S
C2400 C2401 1.386 1_554 S
C2400 C2402 1.391 . S
C2401 C2400 1.386 1_556 S
C2401 C2405 1.393 . S
C2402 H2391 0.950 . S
C2402 C2400 1.391 . S
C2402 C2403 1.400 . S
C2403 C2397 1.491 . S
C2403 C2402 1.400 . S
C2403 C2404 1.398 1_554 S
C2404 H2392 0.950 . S
C2404 C2403 1.398 1_556 S
C2404 C2405 1.391 . S
C2405 H2393 0.950 . S
C2405 C2401 1.393 . S
C2405 C2404 1.391 . S
H2406 C2414 0.950 . S
H2407 C2419 0.950 . S
H2408 C2416 0.950 . S
H2409 C2418 0.950 . S
H2410 C2420 0.950 . S
H2411 C2422 0.924 1_554 S
H2412 C2424 0.950 . S
H2413 C2425 0.950 . S
C2414 H2406 0.950 . S
C2414 C2415 1.386 1_556 S
C2414 C2416 1.391 . S
C2415 C2414 1.386 1_554 S
C2415 C2419 1.393 . S
C2416 H2408 0.950 . S
C2416 C2414 1.391 . S
C2416 C2417 1.400 . S
C2417 C2416 1.400 . S
C2417 C2418 1.398 1_556 S
C2417 C2423 1.491 . S
C2418 H2409 0.950 . S
C2418 C2417 1.398 1_554 S
C2418 C2419 1.391 . S
C2419 H2407 0.950 . S
C2419 C2415 1.393 . S
C2419 C2418 1.391 . S
C2420 H2410 0.950 . S
C2420 C2421 1.386 . S
C2420 C2422 1.391 . S
C2421 C2420 1.386 . S
C2421 C2425 1.393 . S
C2422 H2411 0.924 1_556 S
C2422 C2420 1.391 . S
C2422 C2423 1.400 . S
C2423 C2417 1.491 . S
C2423 C2422 1.400 . S
C2423 C2424 1.398 . S
C2424 H2412 0.950 . S
C2424 C2423 1.398 . S
C2424 C2425 1.391 . S
C2425 H2413 0.950 . S
C2425 C2421 1.393 . S
C2425 C2424 1.391 . S
H2426 C2434 0.950 . S
H2427 C2439 0.950 . S
H2428 C2436 0.950 . S
H2429 C2438 0.950 . S
H2430 C2440 0.950 . S
H2431 C2442 0.950 . S
H2432 C2444 0.950 . S
H2433 C2445 0.950 . S
C2434 H2426 0.950 . S
C2434 C2435 1.386 . S
C2434 C2436 1.391 . S
C2435 C2434 1.386 . S
C2435 C2439 1.393 . S
C2436 H2428 0.950 . S
C2436 C2434 1.391 . S
C2436 C2437 1.400 . S
C2437 C2436 1.400 . S
C2437 C2438 1.398 . S
C2437 C2443 1.491 . S
C2438 H2429 0.950 . S
C2438 C2437 1.398 . S
C2438 C2439 1.391 . S
C2439 H2427 0.950 . S
C2439 C2435 1.393 . S
C2439 C2438 1.391 . S
C2440 H2430 0.950 . S
C2440 C2441 1.386 . S
C2440 C2442 1.391 . S
C2441 C2440 1.386 . S
C2441 C2445 1.393 . S
C2442 H2431 0.950 . S
C2442 C2440 1.391 . S
C2442 C2443 1.400 . S
C2443 C2437 1.491 . S
C2443 C2442 1.400 . S
C2443 C2444 1.398 . S
C2444 H2432 0.950 . S
C2444 C2443 1.398 . S
C2444 C2445 1.391 . S
C2445 H2433 0.950 . S
C2445 C2441 1.393 . S
C2445 C2444 1.391 . S
H2446 C2454 0.950 . S
H2447 C2459 0.950 . S
H2448 C2456 0.967 . S
H2449 C2458 0.950 . S
H2450 C2460 0.950 . S
H2451 C2462 0.946 1_554 S
H2452 C2464 0.950 . S
H2453 C2465 0.950 . S
C2454 H2446 0.950 . S
C2454 C2455 1.386 . S
C2454 C2456 1.379 1_554 S
C2455 C2454 1.386 . S
C2455 C2459 1.393 . S
C2456 H2448 0.967 . S
C2456 C2454 1.379 1_556 S
C2456 C2457 1.397 1_556 S
C2457 C2456 1.397 1_554 S
C2457 C2458 1.398 . S
C2457 C2463 1.491 1_554 S
C2458 H2449 0.950 . S
C2458 C2457 1.398 . S
C2458 C2459 1.391 . S
C2459 H2447 0.950 . S
C2459 C2455 1.393 . S
C2459 C2458 1.391 . S
C2460 H2450 0.950 . S
C2460 C2461 1.386 . S
C2460 C2462 1.394 . S
C2461 C2460 1.386 . S
C2461 C2465 1.393 . S
C2462 H2451 0.946 1_556 S
C2462 C2460 1.394 . S
C2462 C2463 1.401 . S
C2463 C2457 1.491 1_556 S
C2463 C2462 1.401 . S
C2463 C2464 1.398 . S
C2464 H2452 0.950 . S
C2464 C2463 1.398 . S
C2464 C2465 1.391 . S
C2465 H2453 0.950 . S
C2465 C2461 1.393 . S
C2465 C2464 1.391 . S
H2466 C2474 0.950 . S
H2467 C2479 0.950 . S
H2468 C2476 0.950 . S
H2469 C2478 0.950 . S
H2470 C2480 0.950 . S
H2471 C2482 0.950 . S
H2472 C2484 0.950 . S
H2473 C2485 0.950 . S
C2474 H2466 0.950 . S
C2474 C2475 1.386 . S
C2474 C2476 1.391 . S
C2475 C2474 1.386 . S
C2475 C2479 1.393 . S
C2476 H2468 0.950 . S
C2476 C2474 1.391 . S
C2476 C2477 1.400 . S
C2477 C2476 1.400 . S
C2477 C2478 1.398 . S
C2477 C2483 1.491 . S
C2478 H2469 0.950 . S
C2478 C2477 1.398 . S
C2478 C2479 1.391 . S
C2479 H2467 0.950 . S
C2479 C2475 1.393 . S
C2479 C2478 1.391 . S
C2480 H2470 0.950 . S
C2480 C2481 1.386 . S
C2480 C2482 1.391 . S
C2481 C2480 1.386 . S
C2481 C2485 1.393 . S
C2482 H2471 0.950 . S
C2482 C2480 1.391 . S
C2482 C2483 1.400 . S
C2483 C2477 1.491 . S
C2483 C2482 1.400 . S
C2483 C2484 1.398 . S
C2484 H2472 0.950 . S
C2484 C2483 1.398 . S
C2484 C2485 1.391 . S
C2485 H2473 0.950 . S
C2485 C2481 1.393 . S
C2485 C2484 1.391 . S
H2486 C2494 0.950 . S
H2487 C2499 0.950 . S
H2488 C2496 0.950 . S
H2489 C2498 0.950 . S
H2490 C2500 0.950 . S
H2491 C2502 0.950 . S
H2492 C2504 0.950 . S
H2493 C2505 0.950 . S
C2494 H2486 0.950 . S
C2494 C2495 1.386 . S
C2494 C2496 1.391 . S
C2495 C2494 1.386 . S
C2495 C2499 1.393 . S
C2496 H2488 0.950 . S
C2496 C2494 1.391 . S
C2496 C2497 1.400 . S
C2497 C2496 1.400 . S
C2497 C2498 1.398 . S
C2497 C2503 1.491 . S
C2498 H2489 0.950 . S
C2498 C2497 1.398 . S
C2498 C2499 1.391 . S
C2499 H2487 0.950 . S
C2499 C2495 1.393 . S
C2499 C2498 1.391 . S
C2500 H2490 0.950 . S
C2500 C2501 1.386 . S
C2500 C2502 1.391 . S
C2501 C2500 1.386 . S
C2501 C2505 1.393 . S
C2502 H2491 0.950 . S
C2502 C2500 1.391 . S
C2502 C2503 1.400 . S
C2503 C2497 1.491 . S
C2503 C2502 1.400 . S
C2503 C2504 1.398 . S
C2504 H2492 0.950 . S
C2504 C2503 1.398 . S
C2504 C2505 1.391 . S
C2505 H2493 0.950 . S
C2505 C2501 1.393 . S
C2505 C2504 1.391 . S
H2506 C2514 0.950 . S
H2507 C2519 0.950 . S
H2508 C2516 0.950 . S
H2509 C2518 0.950 . S
H2510 C2520 0.950 . S
H2511 C2522 0.950 . S
H2512 C2524 0.950 . S
H2513 C2525 0.950 . S
C2514 H2506 0.950 . S
C2514 C2515 1.386 . S
C2514 C2516 1.391 . S
C2515 C2514 1.386 . S
C2515 C2519 1.393 . S
C2516 H2508 0.950 . S
C2516 C2514 1.391 . S
C2516 C2517 1.400 . S
C2517 C2516 1.400 . S
C2517 C2518 1.398 . S
C2517 C2523 1.491 . S
C2518 H2509 0.950 . S
C2518 C2517 1.398 . S
C2518 C2519 1.391 . S
C2519 H2507 0.950 . S
C2519 C2515 1.393 . S
C2519 C2518 1.391 . S
C2520 H2510 0.950 . S
C2520 C2521 1.386 . S
C2520 C2522 1.391 . S
C2521 C2520 1.386 . S
C2521 C2525 1.393 . S
C2522 H2511 0.950 . S
C2522 C2520 1.391 . S
C2522 C2523 1.400 . S
C2523 C2517 1.491 . S
C2523 C2522 1.400 . S
C2523 C2524 1.398 . S
C2524 H2512 0.950 . S
C2524 C2523 1.398 . S
C2524 C2525 1.391 . S
C2525 H2513 0.950 . S
C2525 C2521 1.393 . S
C2525 C2524 1.391 . S
H2526 C2534 0.950 . S
H2527 C2539 0.950 . S
H2528 C2536 0.950 . S
H2529 C2538 0.950 . S
H2530 C2540 0.950 . S
H2531 C2542 0.950 . S
H2532 C2544 0.950 . S
H2533 C2545 0.950 . S
C2534 H2526 0.950 . S
C2534 C2535 1.386 . S
C2534 C2536 1.391 . S
C2535 C2534 1.386 . S
C2535 C2539 1.393 . S
C2536 H2528 0.950 . S
C2536 C2534 1.391 . S
C2536 C2537 1.400 . S
C2537 C2536 1.400 . S
C2537 C2538 1.398 . S
C2537 C2543 1.491 . S
C2538 H2529 0.950 . S
C2538 C2537 1.398 . S
C2538 C2539 1.391 . S
C2539 H2527 0.950 . S
C2539 C2535 1.393 . S
C2539 C2538 1.391 . S
C2540 H2530 0.950 . S
C2540 C2541 1.386 . S
C2540 C2542 1.391 . S
C2541 C2540 1.386 . S
C2541 C2545 1.393 . S
C2542 H2531 0.950 . S
C2542 C2540 1.391 . S
C2542 C2543 1.400 . S
C2543 C2537 1.491 . S
C2543 C2542 1.400 . S
C2543 C2544 1.398 . S
C2544 H2532 0.950 . S
C2544 C2543 1.398 . S
C2544 C2545 1.391 . S
C2545 H2533 0.950 . S
C2545 C2541 1.393 . S
C2545 C2544 1.391 . S
H2546 C2554 0.950 . S
H2547 C2559 0.950 . S
H2548 C2556 0.950 . S
H2549 C2558 0.950 . S
H2550 C2560 0.950 . S
H2551 C2562 0.950 . S
H2552 C2564 0.950 . S
H2553 C2565 0.950 . S
C2554 H2546 0.950 . S
C2554 C2555 1.386 . S
C2554 C2556 1.391 . S
C2555 C2554 1.386 . S
C2555 C2559 1.393 . S
C2556 H2548 0.950 . S
C2556 C2554 1.391 . S
C2556 C2557 1.400 . S
C2557 C2556 1.400 . S
C2557 C2558 1.398 . S
C2557 C2563 1.491 . S
C2558 H2549 0.950 . S
C2558 C2557 1.398 . S
C2558 C2559 1.391 . S
C2559 H2547 0.950 . S
C2559 C2555 1.393 . S
C2559 C2558 1.391 . S
C2560 H2550 0.950 . S
C2560 C2561 1.386 . S
C2560 C2562 1.391 . S
C2561 C2560 1.386 . S
C2561 C2565 1.393 . S
C2562 H2551 0.950 . S
C2562 C2560 1.391 . S
C2562 C2563 1.400 . S
C2563 C2557 1.491 . S
C2563 C2562 1.400 . S
C2563 C2564 1.398 . S
C2564 H2552 0.950 . S
C2564 C2563 1.398 . S
C2564 C2565 1.391 . S
C2565 H2553 0.950 . S
C2565 C2561 1.393 . S
C2565 C2564 1.391 . S
H2566 C2574 0.950 . S
H2567 C2579 0.950 . S
H2568 C2576 0.950 . S
H2569 C2578 0.950 . S
H2570 C2580 0.950 . S
H2571 C2582 0.950 . S
H2572 C2584 0.950 . S
H2573 C2585 0.950 . S
C2574 H2566 0.950 . S
C2574 C2575 1.386 1_655 S
C2574 C2576 1.391 . S
C2575 C2574 1.386 1_455 S
C2575 C2579 1.393 . S
C2576 H2568 0.950 . S
C2576 C2574 1.391 . S
C2576 C2577 1.400 . S
C2577 C2576 1.400 . S
C2577 C2578 1.398 . S
C2577 C2583 1.491 . S
C2578 H2569 0.950 . S
C2578 C2577 1.398 . S
C2578 C2579 1.391 1_655 S
C2579 H2567 0.950 . S
C2579 C2575 1.393 . S
C2579 C2578 1.391 1_455 S
C2580 H2570 0.950 . S
C2580 C2581 1.386 . S
C2580 C2582 1.391 . S
C2581 C2580 1.386 . S
C2581 C2585 1.393 . S
C2582 H2571 0.950 . S
C2582 C2580 1.391 . S
C2582 C2583 1.400 . S
C2583 C2577 1.491 . S
C2583 C2582 1.400 . S
C2583 C2584 1.398 . S
C2584 H2572 0.950 . S
C2584 C2583 1.398 . S
C2584 C2585 1.391 . S
C2585 H2573 0.950 . S
C2585 C2581 1.393 . S
C2585 C2584 1.391 . S
H2586 C2594 0.950 . S
H2587 C2599 0.950 . S
H2588 C2596 0.950 . S
H2589 C2598 0.950 . S
H2590 C2600 0.950 . S
H2591 C2602 0.950 . S
H2592 C2604 0.950 . S
H2593 C2605 0.950 . S
C2594 H2586 0.950 . S
C2594 C2595 1.386 . S
C2594 C2596 1.391 . S
C2595 C2594 1.386 . S
C2595 C2599 1.393 . S
C2596 H2588 0.950 . S
C2596 C2594 1.391 . S
C2596 C2597 1.400 . S
C2597 C2596 1.400 . S
C2597 C2598 1.398 . S
C2597 C2603 1.491 . S
C2598 H2589 0.950 . S
C2598 C2597 1.398 . S
C2598 C2599 1.391 . S
C2599 H2587 0.950 . S
C2599 C2595 1.393 . S
C2599 C2598 1.391 . S
C2600 H2590 0.950 . S
C2600 C2601 1.386 . S
C2600 C2602 1.391 . S
C2601 C2600 1.386 . S
C2601 C2605 1.393 . S
C2602 H2591 0.950 . S
C2602 C2600 1.391 . S
C2602 C2603 1.400 . S
C2603 C2597 1.491 . S
C2603 C2602 1.400 . S
C2603 C2604 1.398 . S
C2604 H2592 0.950 . S
C2604 C2603 1.398 . S
C2604 C2605 1.391 . S
C2605 H2593 0.950 . S
C2605 C2601 1.393 . S
C2605 C2604 1.391 . S
H2606 C2614 0.950 . S
H2607 C2619 0.950 . S
H2608 C2616 0.950 . S
H2609 C2618 0.950 . S
H2610 C2620 0.950 . S
H2611 C2622 0.950 . S
H2612 C2624 0.950 . S
H2613 C2625 0.950 . S
C2614 H2606 0.950 . S
C2614 C2615 1.386 . S
C2614 C2616 1.391 . S
C2615 C2614 1.386 . S
C2615 C2619 1.393 . S
C2616 H2608 0.950 . S
C2616 C2614 1.391 . S
C2616 C2617 1.400 . S
C2617 C2616 1.400 . S
C2617 C2618 1.398 . S
C2617 C2623 1.491 . S
C2618 H2609 0.950 . S
C2618 C2617 1.398 . S
C2618 C2619 1.391 . S
C2619 H2607 0.950 . S
C2619 C2615 1.393 . S
C2619 C2618 1.391 . S
C2620 H2610 0.950 . S
C2620 C2621 1.386 . S
C2620 C2622 1.391 . S
C2621 C2620 1.386 . S
C2621 C2625 1.393 . S
C2622 H2611 0.950 . S
C2622 C2620 1.391 . S
C2622 C2623 1.400 . S
C2623 C2617 1.491 . S
C2623 C2622 1.400 . S
C2623 C2624 1.398 . S
C2624 H2612 0.950 . S
C2624 C2623 1.398 . S
C2624 C2625 1.391 . S
C2625 H2613 0.950 . S
C2625 C2621 1.393 . S
C2625 C2624 1.391 . S
H2626 C2634 0.950 . S
H2627 C2639 0.950 . S
H2628 C2636 0.950 . S
H2629 C2638 0.950 . S
H2630 C2640 0.950 1_545 S
H2631 C2642 0.953 . S
H2632 C2644 0.950 . S
H2633 C2645 0.950 . S
C2634 H2626 0.950 . S
C2634 C2635 1.386 . S
C2634 C2636 1.391 . S
C2635 C2634 1.386 . S
C2635 C2639 1.393 . S
C2636 H2628 0.950 . S
C2636 C2634 1.391 . S
C2636 C2637 1.400 . S
C2637 C2636 1.400 . S
C2637 C2638 1.398 . S
C2637 C2643 1.491 . S
C2638 H2629 0.950 . S
C2638 C2637 1.398 . S
C2638 C2639 1.391 . S
C2639 H2627 0.950 . S
C2639 C2635 1.393 . S
C2639 C2638 1.391 . S
C2640 H2630 0.950 1_565 S
C2640 C2641 1.386 . S
C2640 C2642 1.391 . S
C2641 C2640 1.386 . S
C2641 C2645 1.393 . S
C2642 H2631 0.953 . S
C2642 C2640 1.391 . S
C2642 C2643 1.400 . S
C2643 C2637 1.491 . S
C2643 C2642 1.400 . S
C2643 C2644 1.398 . S
C2644 H2632 0.950 . S
C2644 C2643 1.398 . S
C2644 C2645 1.391 . S
C2645 H2633 0.950 . S
C2645 C2641 1.393 . S
C2645 C2644 1.391 . S
H2646 C2654 0.950 . S
H2647 C2659 0.950 . S
H2648 C2656 0.950 . S
H2649 C2658 0.950 . S
H2650 C2660 0.942 1_545 S
H2651 C2662 0.950 . S
H2652 C2664 0.950 . S
H2653 C2665 0.950 . S
C2654 H2646 0.950 . S
C2654 C2655 1.386 . S
C2654 C2656 1.391 . S
C2655 C2654 1.386 . S
C2655 C2659 1.393 . S
C2656 H2648 0.950 . S
C2656 C2654 1.391 . S
C2656 C2657 1.400 . S
C2657 C2656 1.400 . S
C2657 C2658 1.398 . S
C2657 C2663 1.491 . S
C2658 H2649 0.950 . S
C2658 C2657 1.398 . S
C2658 C2659 1.391 . S
C2659 H2647 0.950 . S
C2659 C2655 1.393 . S
C2659 C2658 1.391 . S
C2660 H2650 0.942 1_565 S
C2660 C2661 1.390 . S
C2660 C2662 1.391 . S
C2661 C2660 1.390 . S
C2661 C2665 1.428 . S
C2662 H2651 0.950 . S
C2662 C2660 1.391 . S
C2662 C2663 1.400 . S
C2663 C2657 1.491 . S
C2663 C2662 1.400 . S
C2663 C2664 1.398 . S
C2664 H2652 0.950 . S
C2664 C2663 1.398 . S
C2664 C2665 1.391 . S
C2665 H2653 0.950 . S
C2665 C2661 1.428 . S
C2665 C2664 1.391 . S
H2666 C2674 0.950 . S
H2667 C2679 0.950 . S
H2668 C2676 0.950 . S
H2669 C2678 0.950 1_655 S
H2670 C2680 0.950 . S
H2671 C2682 0.950 . S
H2672 C2684 0.950 . S
H2673 C2685 0.950 . S
C2674 H2666 0.950 . S
C2674 C2675 1.386 . S
C2674 C2676 1.391 . S
C2675 C2674 1.386 . S
C2675 C2679 1.393 . S
C2676 H2668 0.950 . S
C2676 C2674 1.391 . S
C2676 C2677 1.400 . S
C2677 C2676 1.400 . S
C2677 C2678 1.398 . S
C2677 C2683 1.491 . S
C2678 H2669 0.950 1_455 S
C2678 C2677 1.398 . S
C2678 C2679 1.391 . S
C2679 H2667 0.950 . S
C2679 C2675 1.393 . S
C2679 C2678 1.391 . S
C2680 H2670 0.950 . S
C2680 C2681 1.386 . S
C2680 C2682 1.391 . S
C2681 C2680 1.386 . S
C2681 C2685 1.393 1_655 S
C2682 H2671 0.950 . S
C2682 C2680 1.391 . S
C2682 C2683 1.400 1_655 S
C2683 C2677 1.491 . S
C2683 C2682 1.400 1_455 S
C2683 C2684 1.398 . S
C2684 H2672 0.950 . S
C2684 C2683 1.398 . S
C2684 C2685 1.391 . S
C2685 H2673 0.950 . S
C2685 C2681 1.393 1_455 S
C2685 C2684 1.391 . S
H2686 C2694 0.950 . S
H2687 C2699 0.950 . S
H2688 C2696 0.950 . S
H2689 C2698 0.950 . S
H2690 C2700 0.950 . S
H2691 C2702 0.950 . S
H2692 C2704 0.950 . S
H2693 C2705 0.950 . S
C2694 H2686 0.950 . S
C2694 C2695 1.386 . S
C2694 C2696 1.391 . S
C2695 C2694 1.386 . S
C2695 C2699 1.393 . S
C2696 H2688 0.950 . S
C2696 C2694 1.391 . S
C2696 C2697 1.400 . S
C2697 C2696 1.400 . S
C2697 C2698 1.398 . S
C2697 C2703 1.491 . S
C2698 H2689 0.950 . S
C2698 C2697 1.398 . S
C2698 C2699 1.391 . S
C2699 H2687 0.950 . S
C2699 C2695 1.393 . S
C2699 C2698 1.391 . S
C2700 H2690 0.950 . S
C2700 C2701 1.386 . S
C2700 C2702 1.391 . S
C2701 C2700 1.386 . S
C2701 C2705 1.393 . S
C2702 H2691 0.950 . S
C2702 C2700 1.391 . S
C2702 C2703 1.400 . S
C2703 C2697 1.491 . S
C2703 C2702 1.400 . S
C2703 C2704 1.398 . S
C2704 H2692 0.950 . S
C2704 C2703 1.398 . S
C2704 C2705 1.391 . S
C2705 H2693 0.950 . S
C2705 C2701 1.393 . S
C2705 C2704 1.391 . S
H2706 C2714 0.950 . S
H2707 C2719 0.950 . S
H2708 C2716 0.950 . S
H2709 C2718 0.950 . S
H2710 C2720 0.950 . S
H2711 C2722 0.950 . S
H2712 C2724 0.950 . S
H2713 C2725 0.950 . S
C2714 H2706 0.950 . S
C2714 C2715 1.386 . S
C2714 C2716 1.391 . S
C2715 C2714 1.386 . S
C2715 C2719 1.393 . S
C2716 H2708 0.950 . S
C2716 C2714 1.391 . S
C2716 C2717 1.400 . S
C2717 C2716 1.400 . S
C2717 C2718 1.398 . S
C2717 C2723 1.491 . S
C2718 H2709 0.950 . S
C2718 C2717 1.398 . S
C2718 C2719 1.391 . S
C2719 H2707 0.950 . S
C2719 C2715 1.393 . S
C2719 C2718 1.391 . S
C2720 H2710 0.950 . S
C2720 C2721 1.386 . S
C2720 C2722 1.391 . S
C2721 C2720 1.386 . S
C2721 C2725 1.393 . S
C2722 H2711 0.950 . S
C2722 C2720 1.391 . S
C2722 C2723 1.400 . S
C2723 C2717 1.491 . S
C2723 C2722 1.400 . S
C2723 C2724 1.398 . S
C2724 H2712 0.950 . S
C2724 C2723 1.398 . S
C2724 C2725 1.391 . S
C2725 H2713 0.950 . S
C2725 C2721 1.393 . S
C2725 C2724 1.391 . S
H2726 C2734 0.950 . S
H2727 C2739 0.950 . S
H2728 C2736 0.950 . S
H2729 C2738 0.950 . S
H2730 C2740 0.950 . S
H2731 C2742 0.950 . S
H2732 C2744 0.950 . S
H2733 C2745 0.950 . S
C2734 H2726 0.950 . S
C2734 C2735 1.386 . S
C2734 C2736 1.391 . S
C2735 C2734 1.386 . S
C2735 C2739 1.393 . S
C2736 H2728 0.950 . S
C2736 C2734 1.391 . S
C2736 C2737 1.400 . S
C2737 C2736 1.400 . S
C2737 C2738 1.398 . S
C2737 C2743 1.491 . S
C2738 H2729 0.950 . S
C2738 C2737 1.398 . S
C2738 C2739 1.391 . S
C2739 H2727 0.950 . S
C2739 C2735 1.393 . S
C2739 C2738 1.391 . S
C2740 H2730 0.950 . S
C2740 C2741 1.386 . S
C2740 C2742 1.391 . S
C2741 C2740 1.386 . S
C2741 C2745 1.393 . S
C2742 H2731 0.950 . S
C2742 C2740 1.391 . S
C2742 C2743 1.400 . S
C2743 C2737 1.491 . S
C2743 C2742 1.400 . S
C2743 C2744 1.398 . S
C2744 H2732 0.950 . S
C2744 C2743 1.398 . S
C2744 C2745 1.391 . S
C2745 H2733 0.950 . S
C2745 C2741 1.393 . S
C2745 C2744 1.391 . S
H2746 C2754 0.950 . S
H2747 C2759 0.950 . S
H2748 C2756 0.950 . S
H2749 C2758 0.950 . S
H2750 C2760 0.950 . S
H2751 C2762 0.950 . S
H2752 C2764 0.950 . S
H2753 C2765 0.950 . S
C2754 H2746 0.950 . S
C2754 C2755 1.386 . S
C2754 C2756 1.391 . S
C2755 C2754 1.386 . S
C2755 C2759 1.393 . S
C2756 H2748 0.950 . S
C2756 C2754 1.391 . S
C2756 C2757 1.400 . S
C2757 C2756 1.400 . S
C2757 C2758 1.398 . S
C2757 C2763 1.491 . S
C2758 H2749 0.950 . S
C2758 C2757 1.398 . S
C2758 C2759 1.391 . S
C2759 H2747 0.950 . S
C2759 C2755 1.393 . S
C2759 C2758 1.391 . S
C2760 H2750 0.950 . S
C2760 C2761 1.386 . S
C2760 C2762 1.391 . S
C2761 C2760 1.386 . S
C2761 C2765 1.393 . S
C2762 H2751 0.950 . S
C2762 C2760 1.391 . S
C2762 C2763 1.400 . S
C2763 C2757 1.491 . S
C2763 C2762 1.400 . S
C2763 C2764 1.398 . S
C2764 H2752 0.950 . S
C2764 C2763 1.398 . S
C2764 C2765 1.391 . S
C2765 H2753 0.950 . S
C2765 C2761 1.393 . S
C2765 C2764 1.391 . S
H2766 C2774 0.950 . S
H2767 C2779 0.950 . S
H2768 C2776 0.950 1_565 S
H2769 C2778 0.950 . S
H2770 C2780 0.950 . S
H2771 C2782 0.950 . S
H2772 C2784 0.950 1_565 S
H2773 C2785 0.953 1_565 S
C2774 H2766 0.950 . S
C2774 C2775 1.386 . S
C2774 C2776 1.391 . S
C2775 C2774 1.386 . S
C2775 C2779 1.393 . S
C2776 H2768 0.950 1_545 S
C2776 C2774 1.391 . S
C2776 C2777 1.400 . S
C2777 C2776 1.400 . S
C2777 C2778 1.398 . S
C2777 C2783 1.491 . S
C2778 H2769 0.950 . S
C2778 C2777 1.398 . S
C2778 C2779 1.391 . S
C2779 H2767 0.950 . S
C2779 C2775 1.393 . S
C2779 C2778 1.391 . S
C2780 H2770 0.950 . S
C2780 C2781 1.386 . S
C2780 C2782 1.391 . S
C2781 C2780 1.386 . S
C2781 C2785 1.392 . S
C2782 H2771 0.950 . S
C2782 C2780 1.391 . S
C2782 C2783 1.400 . S
C2783 C2777 1.491 . S
C2783 C2782 1.400 . S
C2783 C2784 1.398 . S
C2784 H2772 0.950 1_545 S
C2784 C2783 1.398 . S
C2784 C2785 1.388 . S
C2785 H2773 0.953 1_545 S
C2785 C2781 1.392 . S
C2785 C2784 1.388 . S
H2786 C2794 0.950 . S
H2787 C2799 0.950 . S
H2788 C2796 0.950 . S
H2789 C2798 0.950 . S
H2790 C2800 0.950 1_455 S
H2791 C2802 0.900 1_455 S
H2792 C2804 0.950 . S
H2793 C2805 0.950 . S
C2794 H2786 0.950 . S
C2794 C2795 1.386 . S
C2794 C2796 1.391 . S
C2795 C2794 1.386 . S
C2795 C2799 1.393 . S
C2796 H2788 0.950 . S
C2796 C2794 1.391 . S
C2796 C2797 1.400 . S
C2797 C2796 1.400 . S
C2797 C2798 1.398 . S
C2797 C2803 1.491 . S
C2798 H2789 0.950 . S
C2798 C2797 1.398 . S
C2798 C2799 1.391 . S
C2799 H2787 0.950 . S
C2799 C2795 1.393 . S
C2799 C2798 1.391 . S
C2800 H2790 0.950 1_655 S
C2800 C2801 1.386 . S
C2800 C2802 1.391 . S
C2801 C2800 1.386 . S
C2801 C2805 1.393 . S
C2802 H2791 0.900 1_655 S
C2802 C2800 1.391 . S
C2802 C2803 1.400 . S
C2803 C2797 1.491 . S
C2803 C2802 1.400 . S
C2803 C2804 1.398 . S
C2804 H2792 0.950 . S
C2804 C2803 1.398 . S
C2804 C2805 1.391 . S
C2805 H2793 0.950 . S
C2805 C2801 1.393 . S
C2805 C2804 1.391 . S
H2806 C2814 0.950 . S
H2807 C2819 0.950 . S
H2808 C2816 0.950 . S
H2809 C2818 0.950 . S
H2810 C2820 0.950 . S
H2811 C2822 0.950 . S
H2812 C2824 0.950 . S
H2813 C2825 0.950 . S
C2814 H2806 0.950 . S
C2814 C2815 1.386 . S
C2814 C2816 1.391 . S
C2815 C2814 1.386 . S
C2815 C2819 1.393 . S
C2816 H2808 0.950 . S
C2816 C2814 1.391 . S
C2816 C2817 1.400 . S
C2817 C2816 1.400 . S
C2817 C2818 1.398 . S
C2817 C2823 1.491 . S
C2818 H2809 0.950 . S
C2818 C2817 1.398 . S
C2818 C2819 1.391 . S
C2819 H2807 0.950 . S
C2819 C2815 1.393 . S
C2819 C2818 1.391 . S
C2820 H2810 0.950 . S
C2820 C2821 1.386 . S
C2820 C2822 1.391 . S
C2821 C2820 1.386 . S
C2821 C2825 1.393 . S
C2822 H2811 0.950 . S
C2822 C2820 1.391 . S
C2822 C2823 1.400 . S
C2823 C2817 1.491 . S
C2823 C2822 1.400 . S
C2823 C2824 1.398 . S
C2824 H2812 0.950 . S
C2824 C2823 1.398 . S
C2824 C2825 1.391 . S
C2825 H2813 0.950 . S
C2825 C2821 1.393 . S
C2825 C2824 1.391 . S
H2826 C2834 0.950 . S
H2827 C2839 0.950 . S
H2828 C2836 0.950 . S
H2829 C2838 0.950 . S
H2830 C2840 0.950 . S
H2831 C2842 0.950 . S
H2832 C2844 0.950 . S
H2833 C2845 0.950 . S
C2834 H2826 0.950 . S
C2834 C2835 1.386 . S
C2834 C2836 1.391 . S
C2835 C2834 1.386 . S
C2835 C2839 1.393 . S
C2836 H2828 0.950 . S
C2836 C2834 1.391 . S
C2836 C2837 1.400 . S
C2837 C2836 1.400 . S
C2837 C2838 1.398 . S
C2837 C2843 1.491 . S
C2838 H2829 0.950 . S
C2838 C2837 1.398 . S
C2838 C2839 1.391 . S
C2839 H2827 0.950 . S
C2839 C2835 1.393 . S
C2839 C2838 1.391 . S
C2840 H2830 0.950 . S
C2840 C2841 1.386 . S
C2840 C2842 1.391 . S
C2841 C2840 1.386 . S
C2841 C2845 1.393 . S
C2842 H2831 0.950 . S
C2842 C2840 1.391 . S
C2842 C2843 1.400 . S
C2843 C2837 1.491 . S
C2843 C2842 1.400 . S
C2843 C2844 1.398 . S
C2844 H2832 0.950 . S
C2844 C2843 1.398 . S
C2844 C2845 1.391 . S
C2845 H2833 0.950 . S
C2845 C2841 1.393 . S
C2845 C2844 1.391 . S
H2846 C2854 0.950 . S
H2847 C2859 0.950 . S
H2848 C2856 0.950 . S
H2849 C2858 0.950 . S
H2850 C2860 0.950 . S
H2851 C2862 0.950 . S
H2852 C2864 0.950 . S
H2853 C2865 0.950 . S
C2854 H2846 0.950 . S
C2854 C2855 1.386 . S
C2854 C2856 1.391 . S
C2855 C2854 1.386 . S
C2855 C2859 1.393 . S
C2856 H2848 0.950 . S
C2856 C2854 1.391 . S
C2856 C2857 1.400 . S
C2857 C2856 1.400 . S
C2857 C2858 1.398 . S
C2857 C2863 1.491 . S
C2858 H2849 0.950 . S
C2858 C2857 1.398 . S
C2858 C2859 1.391 . S
C2859 H2847 0.950 . S
C2859 C2855 1.393 . S
C2859 C2858 1.391 . S
C2860 H2850 0.950 . S
C2860 C2861 1.386 . S
C2860 C2862 1.391 . S
C2861 C2860 1.386 . S
C2861 C2865 1.393 . S
C2862 H2851 0.950 . S
C2862 C2860 1.391 . S
C2862 C2863 1.400 . S
C2863 C2857 1.491 . S
C2863 C2862 1.400 . S
C2863 C2864 1.398 . S
C2864 H2852 0.950 . S
C2864 C2863 1.398 . S
C2864 C2865 1.391 . S
C2865 H2853 0.950 . S
C2865 C2861 1.393 . S
C2865 C2864 1.391 . S
H2866 C2874 0.950 . S
H2867 C2879 0.950 . S
H2868 C2876 0.950 . S
H2869 C2878 0.950 . S
H2870 C2880 0.950 . S
H2871 C2882 0.950 . S
H2872 C2884 0.950 . S
H2873 C2885 0.950 . S
C2874 H2866 0.950 . S
C2874 C2875 1.386 . S
C2874 C2876 1.391 . S
C2875 C2874 1.386 . S
C2875 C2879 1.393 . S
C2876 H2868 0.950 . S
C2876 C2874 1.391 . S
C2876 C2877 1.400 . S
C2877 C2876 1.400 . S
C2877 C2878 1.398 . S
C2877 C2883 1.491 . S
C2878 H2869 0.950 . S
C2878 C2877 1.398 . S
C2878 C2879 1.391 . S
C2879 H2867 0.950 . S
C2879 C2875 1.393 . S
C2879 C2878 1.391 . S
C2880 H2870 0.950 . S
C2880 C2881 1.386 . S
C2880 C2882 1.391 . S
C2881 C2880 1.386 . S
C2881 C2885 1.393 . S
C2882 H2871 0.950 . S
C2882 C2880 1.391 . S
C2882 C2883 1.400 . S
C2883 C2877 1.491 . S
C2883 C2882 1.400 . S
C2883 C2884 1.398 . S
C2884 H2872 0.950 . S
C2884 C2883 1.398 . S
C2884 C2885 1.391 . S
C2885 H2873 0.950 . S
C2885 C2881 1.393 . S
C2885 C2884 1.391 . S
H2886 C2894 0.950 . S
H2887 C2899 0.950 . S
H2888 C2896 0.950 . S
H2889 C2898 0.950 . S
H2890 C2900 0.950 . S
H2891 C2902 0.950 . S
H2892 C2904 0.950 . S
H2893 C2905 0.950 . S
C2894 H2886 0.950 . S
C2894 C2895 1.386 . S
C2894 C2896 1.391 . S
C2895 C2894 1.386 . S
C2895 C2899 1.393 . S
C2896 H2888 0.950 . S
C2896 C2894 1.391 . S
C2896 C2897 1.400 . S
C2897 C2896 1.400 . S
C2897 C2898 1.398 . S
C2897 C2903 1.491 . S
C2898 H2889 0.950 . S
C2898 C2897 1.398 . S
C2898 C2899 1.391 . S
C2899 H2887 0.950 . S
C2899 C2895 1.393 . S
C2899 C2898 1.391 . S
C2900 H2890 0.950 . S
C2900 C2901 1.386 . S
C2900 C2902 1.391 . S
C2901 C2900 1.386 . S
C2901 C2905 1.393 . S
C2902 H2891 0.950 . S
C2902 C2900 1.391 . S
C2902 C2903 1.400 . S
C2903 C2897 1.491 . S
C2903 C2902 1.400 . S
C2903 C2904 1.398 . S
C2904 H2892 0.950 . S
C2904 C2903 1.398 . S
C2904 C2905 1.391 . S
C2905 H2893 0.950 . S
C2905 C2901 1.393 . S
C2905 C2904 1.391 . S
H2906 C2914 0.950 . S
H2907 C2919 0.950 . S
H2908 C2916 0.950 . S
H2909 C2918 0.950 . S
H2910 C2920 0.950 . S
H2911 C2922 0.950 . S
H2912 C2924 0.950 . S
H2913 C2925 0.950 . S
C2914 H2906 0.950 . S
C2914 C2915 1.386 . S
C2914 C2916 1.391 . S
C2915 C2914 1.386 . S
C2915 C2919 1.393 . S
C2916 H2908 0.950 . S
C2916 C2914 1.391 . S
C2916 C2917 1.400 . S
C2917 C2916 1.400 . S
C2917 C2918 1.398 . S
C2917 C2923 1.491 . S
C2918 H2909 0.950 . S
C2918 C2917 1.398 . S
C2918 C2919 1.391 . S
C2919 H2907 0.950 . S
C2919 C2915 1.393 . S
C2919 C2918 1.391 . S
C2920 H2910 0.950 . S
C2920 C2921 1.386 . S
C2920 C2922 1.391 . S
C2921 C2920 1.386 . S
C2921 C2925 1.393 . S
C2922 H2911 0.950 . S
C2922 C2920 1.391 . S
C2922 C2923 1.400 . S
C2923 C2917 1.491 . S
C2923 C2922 1.400 . S
C2923 C2924 1.398 . S
C2924 H2912 0.950 . S
C2924 C2923 1.398 . S
C2924 C2925 1.391 . S
C2925 H2913 0.950 . S
C2925 C2921 1.393 . S
C2925 C2924 1.391 . S
H2926 C2934 0.950 1_655 S
H2927 C2939 0.950 . S
H2928 C2936 0.950 . S
H2929 C2938 0.950 . S
H2930 C2940 0.950 . S
H2931 C2942 0.950 . S
H2932 C2944 0.950 . S
H2933 C2945 0.950 . S
C2934 H2926 0.950 1_455 S
C2934 C2935 1.386 . S
C2934 C2936 1.391 . S
C2935 C2934 1.386 . S
C2935 C2939 1.393 . S
C2936 H2928 0.950 . S
C2936 C2934 1.391 . S
C2936 C2937 1.400 . S
C2937 C2936 1.400 . S
C2937 C2938 1.398 . S
C2937 C2943 1.491 . S
C2938 H2929 0.950 . S
C2938 C2937 1.398 . S
C2938 C2939 1.391 . S
C2939 H2927 0.950 . S
C2939 C2935 1.393 . S
C2939 C2938 1.391 . S
C2940 H2930 0.950 . S
C2940 C2941 1.386 . S
C2940 C2942 1.391 . S
C2941 C2940 1.386 . S
C2941 C2945 1.393 . S
C2942 H2931 0.950 . S
C2942 C2940 1.391 . S
C2942 C2943 1.400 . S
C2943 C2937 1.491 . S
C2943 C2942 1.400 . S
C2943 C2944 1.398 . S
C2944 H2932 0.950 . S
C2944 C2943 1.398 . S
C2944 C2945 1.391 . S
C2945 H2933 0.950 . S
C2945 C2941 1.393 . S
C2945 C2944 1.391 . S
H2946 C2954 0.950 . S
H2947 C2959 0.950 . S
H2948 C2956 0.950 . S
H2949 C2958 0.950 . S
H2950 C2960 0.950 . S
H2951 C2962 0.950 1_455 S
H2952 C2964 0.950 . S
H2953 C2965 0.950 . S
C2954 H2946 0.950 . S
C2954 C2955 1.386 . S
C2954 C2956 1.391 . S
C2955 C2954 1.386 . S
C2955 C2959 1.393 . S
C2956 H2948 0.950 . S
C2956 C2954 1.391 . S
C2956 C2957 1.400 . S
C2957 C2956 1.400 . S
C2957 C2958 1.398 . S
C2957 C2963 1.491 . S
C2958 H2949 0.950 . S
C2958 C2957 1.398 . S
C2958 C2959 1.391 . S
C2959 H2947 0.950 . S
C2959 C2955 1.393 . S
C2959 C2958 1.391 . S
C2960 H2950 0.950 . S
C2960 C2961 1.386 1_455 S
C2960 C2962 1.391 1_455 S
C2961 C2960 1.386 1_655 S
C2961 C2965 1.393 . S
C2962 H2951 0.950 1_655 S
C2962 C2960 1.391 1_655 S
C2962 C2963 1.400 . S
C2963 C2957 1.491 . S
C2963 C2962 1.400 . S
C2963 C2964 1.398 . S
C2964 H2952 0.950 . S
C2964 C2963 1.398 . S
C2964 C2965 1.391 . S
C2965 H2953 0.950 . S
C2965 C2961 1.393 . S
C2965 C2964 1.391 . S
H2966 C2974 0.950 . S
H2967 C2979 0.950 . S
H2968 C2976 0.950 . S
H2969 C2978 0.950 . S
H2970 C2980 0.950 . S
H2971 C2982 0.950 . S
H2972 C2984 0.950 . S
H2973 C2985 0.950 . S
C2974 H2966 0.950 . S
C2974 C2975 1.386 . S
C2974 C2976 1.391 . S
C2975 C2974 1.386 . S
C2975 C2979 1.393 . S
C2976 H2968 0.950 . S
C2976 C2974 1.391 . S
C2976 C2977 1.400 . S
C2977 C2976 1.400 . S
C2977 C2978 1.398 . S
C2977 C2983 1.491 . S
C2978 H2969 0.950 . S
C2978 C2977 1.398 . S
C2978 C2979 1.391 . S
C2979 H2967 0.950 . S
C2979 C2975 1.393 . S
C2979 C2978 1.391 . S
C2980 H2970 0.950 . S
C2980 C2981 1.386 . S
C2980 C2982 1.391 . S
C2981 C2980 1.386 . S
C2981 C2985 1.393 . S
C2982 H2971 0.950 . S
C2982 C2980 1.391 . S
C2982 C2983 1.400 . S
C2983 C2977 1.491 . S
C2983 C2982 1.400 . S
C2983 C2984 1.398 . S
C2984 H2972 0.950 . S
C2984 C2983 1.398 . S
C2984 C2985 1.391 . S
C2985 H2973 0.950 . S
C2985 C2981 1.393 . S
C2985 C2984 1.391 . S
H2986 C2994 0.950 . S
H2987 C2999 0.950 . S
H2988 C2996 0.950 . S
H2989 C2998 0.950 . S
H2990 C3000 0.950 . S
H2991 C3002 0.916 1_565 S
H2992 C3004 0.950 . S
H2993 C3005 0.950 . S
C2994 H2986 0.950 . S
C2994 C2995 1.386 . S
C2994 C2996 1.391 . S
C2995 C2994 1.386 . S
C2995 C2999 1.393 . S
C2996 H2988 0.950 . S
C2996 C2994 1.391 . S
C2996 C2997 1.400 . S
C2997 C2996 1.400 . S
C2997 C2998 1.398 . S
C2997 C3003 1.491 . S
C2998 H2989 0.950 . S
C2998 C2997 1.398 . S
C2998 C2999 1.391 . S
C2999 H2987 0.950 . S
C2999 C2995 1.393 . S
C2999 C2998 1.391 . S
C3000 H2990 0.950 . S
C3000 C3001 1.386 1_565 S
C3000 C3002 1.396 1_565 S
C3001 C3000 1.386 1_545 S
C3001 C3005 1.393 . S
C3002 H2991 0.916 1_545 S
C3002 C3000 1.396 1_545 S
C3002 C3003 1.430 . S
C3003 C2997 1.491 . S
C3003 C3002 1.430 . S
C3003 C3004 1.398 . S
C3004 H2992 0.950 . S
C3004 C3003 1.398 . S
C3004 C3005 1.391 . S
C3005 H2993 0.950 . S
C3005 C3001 1.393 . S
C3005 C3004 1.391 . S
C1575 C8 1.141 . S
C1581 C963 1.119 . S
C1595 C18 1.478 . S
C1601 C1043 1.496 . S
C1621 C1111 1.301 . S
C1615 C31 1.277 . S
C1635 C34 1.666 1_556 S
C1641 C1191 1.700 . S
C1655 C5 1.465 . S
C1661 C1265 1.511 . S
C1675 C21 1.574 . S
C1681 C1333 1.512 . S
C1695 C47 1.059 . S
C1701 C1259 1.064 . S
C1721 C1339 1.418 . S
C1715 C57 1.364 . S
C1741 C1185 1.297 . S
C1735 C70 1.261 1_556 S
C1755 C73 1.618 . S
C1761 C1117 1.681 . S
C1781 C969 1.535 . S
C1775 C44 1.435 . S
C1795 C60 1.401 . S
C1801 C1037 1.409 . S
C1815 C86 1.374 . S
C1821 C1407 1.301 . S
C1835 C96 1.531 . S
C1841 C1487 1.495 . S
C1861 C1555 1.481 . S
C1855 C109 1.538 . S
C1875 C112 1.922 . S
C1881 C303 1.867 . S
C1895 C83 1.686 . S
C1901 C377 1.685 . S
C1915 C99 1.605 . S
C1921 C445 1.541 . S
C1935 C125 1.068 . S
C1941 C371 1.077 . S
C1955 C135 1.406 . S
C1961 C451 1.464 . S
C1981 C297 1.389 . S
C1975 C148 1.347 . S
C2001 C1561 1.855 . S
C1995 C151 1.843 . S
C2021 C1413 1.526 . S
C2015 C122 1.486 . S
C2041 C1481 1.476 . S
C2035 C138 1.469 . S
C2055 C164 1.254 . S
C2061 C519 1.197 . S
C2075 C174 1.543 . S
C2081 C599 1.556 . S
C2095 C187 1.555 . S
C2101 C667 1.497 . S
C2115 C190 2.005 . S
C2121 C747 1.948 . S
C2141 C821 1.657 . S
C2135 C161 1.669 . S
C2161 C889 1.583 . S
C2155 C177 1.659 . S
C2181 C815 1.173 . S
C2175 C203 1.165 . S
C2201 C895 1.423 . S
C2195 C213 1.373 . S
C2215 C226 1.331 . S
C2221 C741 1.328 . S
C2241 C673 1.761 . S
C2235 C229 1.749 . S
C2255 C200 1.526 . S
C2261 C525 1.583 . S
C2281 C593 1.442 . S
C2275 C216 1.432 . S
C2301 C273 1.897 . S
C2295 C0 1.838 . S
C2315 C23 1.375 . S
C2321 C347 1.360 . S
C2341 C433 1.491 . S
C2335 C36 1.509 . S
C2361 C507 1.204 . S
C2355 C26 1.139 . S
C2381 C569 1.536 . S
C2375 C10 1.546 1_556 S
C2401 C655 1.485 . S
C2395 C13 1.413 . S
C2415 C39 2.010 . S
C2421 C643 2.030 . S
C2435 C62 1.581 . S
C2441 C495 1.502 . S
C2455 C75 1.740 . S
C2461 C581 1.691 . S
C2475 C65 1.393 . S
C2481 C359 1.433 . S
C2501 C421 1.659 . S
C2495 C49 1.769 . S
C2515 C52 1.646 . S
C2521 C285 1.702 . S
C2541 C717 1.825 . S
C2535 C78 1.792 . S
C2555 C101 1.504 1_545 S
C2561 C791 1.497 . S
C2575 C114 1.549 . S
C2581 C877 1.535 . S
C2601 C951 0.991 . S
C2595 C104 0.958 . S
C2615 C88 1.444 . S
C2621 C1013 1.425 . S
C2635 C91 1.235 . S
C2641 C1099 1.277 . S
C2655 C117 1.687 . S
C2661 C1087 1.615 1_565 S
C2675 C140 1.283 . S
C2681 C939 1.257 . S
C2701 C1025 1.595 . S
C2695 C153 1.639 . S
C2715 C143 1.382 . S
C2721 C803 1.419 . S
C2735 C127 1.791 1_545 S
C2741 C865 1.703 . S
C2761 C729 1.768 . S
C2755 C130 1.729 . S
C2781 C1161 1.667 . S
C2775 C156 1.650 . S
C2795 C179 1.159 . S
C2801 C1235 1.149 . S
C2815 C192 1.427 . S
C2821 C1321 1.415 . S
C2841 C1395 1.188 . S
C2835 C182 1.144 . S
C2861 C1457 1.575 . S
C2855 C166 1.595 1_565 S
C2875 C169 1.502 . S
C2881 C1543 1.563 . S
C2895 C195 1.973 . S
C2901 C1531 1.976 . S
C2915 C218 1.708 1_565 S
C2921 C1383 1.618 . S
C2941 C1469 1.688 . S
C2935 C231 1.753 1_455 S
C2961 C1247 1.061 . S
C2955 C221 1.045 . S
C2981 C1309 1.560 . S
C2975 C205 1.652 . S
C2995 C208 1.335 . S
C3001 C1173 1.378 1_545 S
