# Generated by pormake.
# Topology pts, (4,4)-cn, num edge types: 1
# Building blocks:
#     Node 0, Type 0, BuildingBlock: MUDLON_clean_linker_0, # of connection points: 4
#     Node 1, Type 0, BuildingBlock: MUDLON_clean_linker_0, # of connection points: 4
#     Node 2, Type 1, BuildingBlock: QUQFOY_clean_sbu_1, # of connection points: 4
#     Node 3, Type 1, BuildingBlock: QUQFOY_clean_sbu_1, # of connection points: 4
#     Edge 4, Type (0, 1), BuildingBlock: FUNLAD_clean_linker_0, # of connection points: 2
#     Edge 5, Type (0, 1), BuildingBlock: FUNLAD_clean_linker_0, # of connection points: 2
#     Edge 6, Type (0, 1), BuildingBlock: FUNLAD_clean_linker_0, # of connection points: 2
#     Edge 7, Type (0, 1), BuildingBlock: FUNLAD_clean_linker_0, # of connection points: 2
#     Edge 8, Type (0, 1), BuildingBlock: FUNLAD_clean_linker_0, # of connection points: 2
#     Edge 9, Type (0, 1), BuildingBlock: FUNLAD_clean_linker_0, # of connection points: 2
#     Edge 10, Type (0, 1), BuildingBlock: FUNLAD_clean_linker_0, # of connection points: 2
#     Edge 11, Type (0, 1), BuildingBlock: FUNLAD_clean_linker_0, # of connection points: 2
# Relax obj value: 0.109
# Max RMSD: 0.273
# Mean RMSD: 0.181
data_MOF--net-pts--node1-QUQFOY_clean_sbu_1--node2-MUDLON_clean_linker_0--edge1-FUNLAD_clean_linker_0
_symmetry_space_group_name_H-M    P1
_symmetry_Int_Tables_number       1
_symmetry_cell_setting            triclinic
loop_
_symmetry_equiv_pos_as_xyz
'x, y, z'
_cell_length_a     36.137439
_cell_length_b     39.480964
_cell_length_c     53.252949
_cell_angle_alpha  89.97258
_cell_angle_beta   90.063726
_cell_angle_gamma 89.92333
loop_
_atom_site_label
_atom_site_type_symbol
_atom_site_fract_x
_atom_site_fract_y
_atom_site_fract_z
_atom_type_partial_charge
H0 H 0.67246 0.08879 0.03548 0.0
N1 N 0.63293 0.05074 0.00461 0.0
H2 H 0.70494 0.07104 0.07368 0.0
H3 H 0.63198 0.98714 0.02516 0.0
H4 H 0.66489 0.96897 0.06317 0.0
H5 H 0.65979 0.99143 0.98486 0.0
H6 H 0.69765 0.98565 0.94725 0.0
H7 H 0.65256 0.09919 0.97288 0.0
H8 H 0.68971 0.0936 0.93469 0.0
H9 H 0.58445 0.09632 0.02011 0.0
H10 H 0.59242 0.99756 0.98618 0.0
H11 H 0.51704 0.09355 0.01771 0.0
H12 H 0.52506 0.99503 0.98262 0.0
H13 H 0.33491 0.08282 0.03277 0.0
H14 H 0.29853 0.06525 0.06928 0.0
H15 H 0.29948 0.96212 0.0421 0.0
H16 H 0.33529 0.98 0.00563 0.0
H17 H 0.35956 0.98857 0.96458 0.0
H18 H 0.32324 0.97897 0.92645 0.0
H19 H 0.27855 0.08035 0.93236 0.0
H20 H 0.31358 0.08886 0.9711 0.0
H21 H 0.40175 0.09631 0.98583 0.0
H22 H 0.4693 0.0966 0.98731 0.0
H23 H 0.46875 0.98999 0.00603 0.0
N24 N 0.3568 0.04489 -0.0055 0.0
H25 H 0.40126 0.98978 0.00334 0.0
C26 C 0.65021 0.03933 0.02744 0.0
C27 C 0.67051 0.06268 0.04159 0.0
C28 C 0.68881 0.05253 0.06341 0.0
C29 C 0.68739 0.01862 0.07138 0.0
C30 C 0.66665 0.9952 0.05733 0.0
C31 C 0.64791 0.00553 0.03561 0.0
C32 C 0.65361 0.04594 0.9818 0.0
C33 C 0.66607 0.01385 0.97406 0.0
C34 C 0.68756 0.01054 0.95238 0.0
C35 C 0.69691 0.03918 0.93802 0.0
C36 C 0.68357 0.07109 0.94554 0.0
C37 C 0.66218 0.07436 0.96722 0.0
C38 C 0.59337 0.04747 0.00312 0.0
C39 C 0.57152 0.07414 0.012 0.0
C40 C 0.53305 0.07256 0.01039 0.0
C41 C 0.51554 0.04425 -0.00037 0.0
C42 C 0.53756 0.01713 0.99114 0.0
C43 C 0.57617 0.01864 0.99298 0.0
C44 C 0.33764 0.03292 0.01646 0.0
C45 C 0.32749 0.0564 0.03489 0.0
C46 C 0.30691 0.04625 0.05575 0.0
C47 C 0.29604 0.01227 0.05855 0.0
C48 C 0.30703 0.98855 0.04032 0.0
C49 C 0.32769 0.99874 0.01948 0.0
C50 C 0.33868 0.03934 0.97081 0.0
C51 C 0.34187 0.00863 0.95766 0.0
C52 C 0.32134 1.00333 0.9357 0.0
C53 C 0.29757 0.02874 0.92645 0.0
C54 C 0.29582 0.0599 0.93922 0.0
C55 C 0.31601 0.06498 0.96122 0.0
C56 C 0.39654 0.0433 -0.00525 0.0
C57 C 0.41635 0.07303 0.9901 0.0
C58 C 0.4549 0.07314 0.99118 0.0
C59 C 0.47453 0.04341 -0.00282 0.0
C60 C 0.45458 0.0133 0.00123 0.0
C61 C 0.41589 0.01318 -0.0001 0.0
H62 H 0.98482 0.66011 0.51072 0.0
N63 N 0.04522 0.62071 0.49985 0.0
H64 H 0.97839 0.69818 0.54624 0.0
H65 H 0.08822 0.62318 0.54044 0.0
H66 H 0.08078 0.65944 0.5773 0.0
H67 H 0.09148 0.66675 0.48182 0.0
H68 H 0.08071 0.70655 0.44762 0.0
H69 H 0.9856 0.62036 0.46777 0.0
H70 H 0.97554 0.65838 0.43236 0.0
H71 H 0.98169 0.59324 0.51995 0.0
H72 H 0.07961 0.56984 0.47714 0.0
H73 H 0.96368 0.53401 0.51906 0.0
H74 H 0.0604 0.51077 0.47438 0.0
H75 H 0.91002 0.34098 0.51026 0.0
H76 H 0.91164 0.29812 0.54346 0.0
H77 H 0.02529 0.32432 0.55933 0.0
H78 H 0.0236 0.3666 0.52616 0.0
H79 H 0.03167 0.34394 0.48332 0.0
H80 H 0.0439 0.30571 0.44838 0.0
H81 H 0.93594 0.32811 0.41761 0.0
H82 H 0.92396 0.36669 0.45273 0.0
H83 H 0.92246 0.43068 0.49451 0.0
H84 H 0.94021 0.49032 0.49529 0.0
H85 H 0.05556 0.46068 0.49609 0.0
N86 N 0.96627 0.3769 0.49279 0.0
H87 H 0.03739 0.40169 0.4932 0.0
C88 C 0.03759 0.6393 0.52264 0.0
C89 C 0.00588 0.65976 0.52517 0.0
C90 C 0.00205 0.68136 0.54577 0.0
C91 C 0.02935 0.68247 0.56465 0.0
C92 C 0.05972 0.66018 0.56284 0.0
C93 C 0.06387 0.63906 0.54195 0.0
C94 C 0.03971 0.64039 0.47726 0.0
C95 C 0.06636 0.66459 0.47082 0.0
C96 C 0.06013 0.68724 0.45113 0.0
C97 C 0.02716 0.68589 0.43705 0.0
C98 C 1.00095 0.66073 0.443 0.0
C99 C 0.00692 0.63849 0.46306 0.0
C100 C 0.03262 0.58598 0.499 0.0
C101 C 0.99934 0.57541 0.51024 0.0
C102 C 0.98876 0.54135 0.50942 0.0
C103 C 0.01059 0.51716 0.49676 0.0
C104 C 0.04327 0.52819 0.48492 0.0
C105 C 0.0542 0.56207 0.48624 0.0
C106 C 0.96648 0.3571 0.51558 0.0
C107 C 0.93494 0.33803 0.52137 0.0
C108 C 0.93596 0.31355 0.54032 0.0
C109 C 0.96876 0.30756 0.55384 0.0
C110 C 0.9998 0.32795 0.54896 0.0
C111 C 0.99871 0.35248 0.53003 0.0
C112 C 0.9767 0.35823 0.47065 0.0
C113 C 0.01087 0.34127 0.46887 0.0
C114 C 0.01774 0.31911 0.44896 0.0
C115 C 0.99074 0.31363 0.43038 0.0
C116 C 0.95739 0.33195 0.43154 0.0
C117 C 0.95047 0.35396 0.45154 0.0
C118 C 0.97836 0.41164 0.49421 0.0
C119 C 0.95155 0.43723 0.49486 0.0
C120 C 0.96185 0.47135 0.49551 0.0
C121 C 0.99946 0.48069 0.49593 0.0
C122 C 0.02634 0.45479 0.4954 0.0
C123 C 0.01595 0.42072 0.49419 0.0
O124 O 0.94598 0.96626 0.23291 0.0
Cd125 Cd 0.99701 0.95702 0.24895 0.0
Cd126 Cd 0.99882 0.02723 0.2533 0.0
O127 O 0.94836 0.02194 0.23559 0.0
O128 O 0.99666 0.90829 0.2584 0.0
O129 O 0.00279 0.94974 0.2861 0.0
C130 C 1.00093 0.91766 0.28141 0.0
C131 C 0.00128 0.06914 0.28434 0.0
C132 C 0.93156 0.99513 0.22896 0.0
C133 C 0.05966 0.9929 0.22353 0.0
O134 O 0.04641 0.0201 0.23261 0.0
O135 O 0.04375 0.9647 0.22745 0.0
O136 O 0.99996 0.07659 0.26082 0.0
O137 O 0.00146 0.03748 0.29045 0.0
O138 O 0.93713 0.02106 0.76071 0.0
Cd139 Cd 0.98427 0.03171 0.74039 0.0
Cd140 Cd 0.99166 0.96082 0.74607 0.0
O141 O 0.9439 0.96613 0.7669 0.0
O142 O 0.97799 0.08119 0.73446 0.0
O143 O 0.98139 0.04417 0.70354 0.0
C144 C 0.97769 0.07522 0.71072 0.0
C145 C 0.99307 0.91858 0.7155 0.0
C146 C 0.92583 0.9934 0.77019 0.0
C147 C 0.05308 1.00435 0.76621 0.0
O148 O 0.04099 0.97453 0.76268 0.0
O149 O 0.03463 0.02986 0.7587 0.0
O150 O 0.99679 0.91156 0.73901 0.0
O151 O 0.98847 0.94993 0.70921 0.0
C152 C 0.27768 0.01523 0.10399 0.0
C153 C 0.27184 1.00209 0.07978 0.0
C154 C 0.25316 0.00774 0.12349 0.0
C155 C 0.22201 0.98716 0.11911 0.0
C156 C 0.21715 0.97286 0.09521 0.0
C157 C 0.24168 0.98032 0.07572 0.0
C158 C 0.1936 0.98065 0.1387 0.0
C159 C 0.18675 1.0023 0.15771 0.0
C160 C 0.15526 0.99847 0.17543 0.0
C161 C 0.14168 0.02751 0.18752 0.0
C162 C 0.11102 0.02559 0.20337 0.0
C163 C 0.09331 0.99445 0.20769 0.0
H164 H 0.14869 0.94388 0.17212 0.0
C165 C 0.10763 0.96511 0.19628 0.0
C166 C 0.13834 0.96705 0.18037 0.0
H167 H 0.09493 0.94065 0.19944 0.0
H168 H 0.30117 0.03143 0.10784 0.0
H169 H 0.25876 0.01817 0.14188 0.0
H170 H 0.19361 0.9567 0.09135 0.0
H171 H 0.23625 0.96995 0.05726 0.0
H172 H 0.17558 0.95901 0.13587 0.0
H173 H 0.20268 0.02551 0.15911 0.0
H174 H 0.15435 0.05199 0.18428 0.0
H175 H 0.10095 0.04868 0.21197 0.0
C176 C 0.94206 0.27104 0.58803 0.0
C177 C 0.97134 0.27864 0.57163 0.0
C178 C 0.94397 0.2428 0.60386 0.0
C179 C 0.97532 0.22155 0.60364 0.0
C180 C 0.0044 0.22905 0.58712 0.0
C181 C 0.00256 0.25734 0.5714 0.0
C182 C 0.9783 0.19094 0.61982 0.0
C183 C 0.96064 0.18787 0.64196 0.0
C184 C 0.96517 0.15822 0.65889 0.0
C185 C 0.95988 0.16292 0.68473 0.0
C186 C 0.96406 0.13595 0.70143 0.0
C187 C 0.9731 0.10341 0.69264 0.0
H188 H 0.97708 0.12076 0.63008 0.0
C189 C 0.97769 0.0984 0.66671 0.0
C190 C 0.97382 0.12557 0.64996 0.0
H191 H 0.98441 0.07357 0.65936 0.0
H192 H 0.91761 0.28692 0.58861 0.0
H193 H 0.92051 0.2374 0.6158 0.0
H194 H 0.02869 0.21297 0.58637 0.0
H195 H 0.02526 0.26206 0.55861 0.0
H196 H 0.99756 0.17132 0.614 0.0
H197 H 0.9442 0.20889 0.64893 0.0
H198 H 0.9529 0.1877 0.6921 0.0
H199 H 0.96007 0.14066 0.72128 0.0
C200 C 0.70855 0.02735 0.1157 0.0
C201 C 0.70892 0.00778 0.09369 0.0
C202 C 0.7319 0.01933 0.13577 0.0
C203 C 0.75667 0.99184 0.13404 0.0
C204 C 0.75544 0.9712 0.11257 0.0
C205 C 0.73183 0.97907 0.09258 0.0
C206 C 0.78516 0.98468 0.15358 0.0
C207 C 0.79809 0.00852 0.16946 0.0
C208 C 0.83063 1.0037 0.18627 0.0
C209 C 0.84867 0.03267 0.19542 0.0
C210 C 0.88085 0.02983 0.20977 0.0
C211 C 0.89579 0.99785 0.21545 0.0
H212 H 0.831 0.94855 0.18701 0.0
C213 C 0.87696 0.96874 0.20723 0.0
C214 C 0.84463 0.97159 0.19288 0.0
H215 H 0.88746 0.94369 0.21156 0.0
H216 H 0.6905 0.04918 0.11726 0.0
H217 H 0.73061 0.03501 0.15238 0.0
H218 H 0.77384 0.94964 0.11081 0.0
H219 H 0.7327 0.96355 0.07582 0.0
H220 H 0.7983 0.95999 0.15297 0.0
H221 H 0.78675 0.03395 0.16859 0.0
H222 H 0.83838 0.05774 0.1909 0.0
H223 H 0.89442 0.05282 0.21593 0.0
C224 C 0.9928 0.7189 0.59477 0.0
C225 C 0.02719 0.70806 0.58525 0.0
C226 C 0.99089 0.74456 0.61284 0.0
C227 C 0.02338 0.75963 0.62206 0.0
C228 C 0.0577 0.74814 0.61327 0.0
C229 C 0.05963 0.72302 0.59486 0.0
C230 C 0.02239 0.7867 0.64132 0.0
C231 C 0.99605 0.81086 0.64182 0.0
C232 C 0.99585 0.83839 0.6608 0.0
C233 C 0.98238 0.87057 0.6542 0.0
C234 C 0.98192 0.8969 0.67181 0.0
C235 C 0.99414 0.89124 0.69652 0.0
H236 H 0.01765 0.80801 0.69143 0.0
C237 C 0.00703 0.85885 0.7032 0.0
C238 C 0.008 0.83275 0.68554 0.0
H239 H 0.01649 0.85362 0.72212 0.0
H240 H 0.96723 0.70752 0.58838 0.0
H241 H 0.96403 0.75222 0.61983 0.0
H242 H 0.08314 0.75926 0.62021 0.0
H243 H 0.08663 0.71599 0.58777 0.0
H244 H 0.04542 0.78802 0.65443 0.0
H245 H 0.97523 0.81164 0.62709 0.0
H246 H 0.97258 0.87546 0.63531 0.0
H247 H 0.97159 0.92152 0.66616 0.0
C248 C 0.23708 0.03521 0.90388 0.0
C249 C 0.27347 0.02256 0.90424 0.0
C250 C 0.21414 0.02976 0.88321 0.0
C251 C 0.22695 0.01142 0.86233 0.0
C252 C 0.26294 0.99802 0.86284 0.0
C253 C 0.28611 1.00374 0.88351 0.0
C254 C 0.20246 1.00472 0.84049 0.0
C255 C 0.17639 0.02703 0.8331 0.0
C256 C 0.14824 0.0202 0.8134 0.0
C257 C 0.12928 0.04778 0.80281 0.0
C258 C 0.09941 0.04262 0.78662 0.0
C259 C 0.08752 0.00965 0.78082 0.0
H260 H 0.15067 0.96519 0.81497 0.0
C261 C 0.10733 0.98197 0.79067 0.0
C262 C 0.13735 0.98715 0.80683 0.0
H263 H 0.09889 0.95623 0.78661 0.0
H264 H 0.22594 0.04887 0.91981 0.0
H265 H 0.18606 0.03929 0.88394 0.0
H266 H 0.27329 0.98344 0.8471 0.0
H267 H 0.31401 0.99372 0.88311 0.0
H268 H 0.2065 0.98128 0.8302 0.0
H269 H 0.17529 0.05173 0.84209 0.0
H270 H 0.13698 0.0735 0.80761 0.0
H271 H 0.08489 0.06456 0.77935 0.0
C272 C 0.01056 0.25541 0.4172 0.0
C273 C 0.99634 0.28743 0.41076 0.0
C274 C 0.01388 0.22996 0.3991 0.0
C275 C 0.00298 0.23602 0.37412 0.0
C276 C 0.98982 0.26833 0.36757 0.0
C277 C 0.98624 0.29369 0.38571 0.0
C278 C 0.0054 0.20957 0.35434 0.0
C279 C 0.00252 0.17607 0.3591 0.0
C280 C 0.0029 0.14921 0.33938 0.0
C281 C 0.00632 0.11515 0.34684 0.0
C282 C 0.00594 0.089 0.32908 0.0
C283 C 0.00211 0.09638 0.30342 0.0
H284 H 0.99499 0.18194 0.30677 0.0
C285 C 0.9986 0.13036 0.29593 0.0
C286 C 0.99879 0.15642 0.31362 0.0
H287 H 0.99526 0.13694 0.2763 0.0
H288 H 0.01842 0.24975 0.43639 0.0
H289 H 0.02523 0.20575 0.40475 0.0
H290 H 0.98165 0.27381 0.3484 0.0
H291 H 0.97559 0.31823 0.38013 0.0
H292 H 0.00824 0.21859 0.33523 0.0
H293 H 0.99913 0.16767 0.37837 0.0
H294 H 0.00925 0.10869 0.36652 0.0
H295 H 0.00862 0.06306 0.33547 0.0
C296 C 0.71788 0.00871 0.89902 0.0
C297 C 0.7215 0.03602 0.91579 0.0
C298 C 0.74167 0.00553 0.87843 0.0
C299 C 0.76976 0.02957 0.8743 0.0
C300 C 0.77291 0.05708 0.89084 0.0
C301 C 0.74924 0.06021 0.91139 0.0
C302 C 0.79604 0.02738 0.85291 0.0
C303 C 0.80446 0.9984 0.84078 0.0
C304 C 0.83339 0.99677 0.82098 0.0
C305 C 0.85313 0.96648 0.81748 0.0
C306 C 0.8825 0.96494 0.80042 0.0
C307 C 0.89253 0.99367 0.78638 0.0
H308 H 0.82658 0.0483 0.80729 0.0
C309 C 0.87148 0.02344 0.78895 0.0
C310 C 0.84214 0.02494 0.80594 0.0
H311 H 0.878 0.04588 0.77812 0.0
H312 H 0.69635 0.98998 0.90162 0.0
H313 H 0.73754 0.98453 0.86571 0.0
H314 H 0.79418 0.07605 0.88808 0.0
H315 H 0.75315 0.08132 0.92409 0.0
H316 H 0.81102 0.05036 0.84825 0.0
H317 H 0.79228 0.97467 0.84687 0.0
H318 H 0.84663 0.94426 0.82857 0.0
H319 H 0.89796 0.94153 0.79877 0.0
C320 C 0.04879 0.72516 0.40267 0.0
C321 C 0.01967 0.71151 0.41703 0.0
C322 C 0.04206 0.7506 0.38499 0.0
C323 C 0.00596 0.76265 0.38093 0.0
C324 C 0.97669 0.74837 0.39453 0.0
C325 C 0.98346 0.72343 0.41262 0.0
C326 C 0.99809 0.78927 0.36203 0.0
C327 C 0.02088 0.81572 0.35823 0.0
C328 C 0.01367 0.84203 0.33893 0.0
C329 C 0.02534 0.87545 0.3432 0.0
C330 C 0.02027 0.90039 0.32482 0.0
C331 C 0.00428 0.89209 0.30157 0.0
H332 H 0.98863 0.80819 0.31168 0.0
C333 C 0.99268 0.85862 0.29729 0.0
C334 C 0.99714 0.83388 0.31581 0.0
H335 H 0.98034 0.85144 0.27953 0.0
H336 H 0.07688 0.71609 0.40494 0.0
H337 H 0.06507 0.76042 0.3742 0.0
H338 H 0.94858 0.75712 0.39158 0.0
H339 H 0.96032 0.71411 0.42348 0.0
H340 H 0.97201 0.78788 0.35191 0.0
H341 H 0.04498 0.81891 0.37024 0.0
H342 H 0.03843 0.88226 0.3608 0.0
H343 H 0.0297 0.92592 0.32858 0.0
loop_
_geom_bond_atom_site_label_1
_geom_bond_atom_site_label_2
_geom_bond_distance
_geom_bond_site_symmetry_2
_ccdc_geom_bond_type
H0 C27 0.929 . S
N1 C26 1.433 . S
N1 C32 1.435 1_554 S
N1 C38 1.424 . S
H2 C28 0.930 . S
H3 C31 0.931 . S
H4 C30 0.929 . S
H5 C33 0.930 . S
H6 C34 0.932 . S
H7 C37 0.929 . S
H8 C36 0.931 . S
H9 C39 0.929 . S
H10 C43 0.932 1_565 S
H11 C40 0.931 . S
H12 C42 0.929 1_565 S
H13 C45 0.929 . S
H14 C46 0.930 . S
H15 C48 0.929 . S
H16 C49 0.931 . S
H17 C51 0.930 . S
H18 C52 0.932 . S
H19 C54 0.931 . S
H20 C55 0.929 . S
H21 C57 0.929 . S
H22 C58 0.931 . S
H23 C60 0.929 1_565 S
N24 C44 1.433 . S
N24 C50 1.435 1_554 S
N24 C56 1.424 . S
H25 C61 0.932 1_565 S
C26 N1 1.433 . S
C26 C27 1.363 . S
C26 C31 1.370 1_545 S
C27 H0 0.929 . S
C27 C26 1.363 . S
C27 C28 1.385 . S
C28 H2 0.930 . S
C28 C27 1.385 . S
C28 C29 1.357 . S
C29 C28 1.357 . S
C29 C30 1.406 1_545 S
C30 H4 0.929 . S
C30 C29 1.406 1_565 S
C30 C31 1.391 . S
C31 H3 0.931 . S
C31 C26 1.370 1_565 S
C31 C30 1.391 . S
C32 N1 1.435 1_556 S
C32 C33 1.358 1_545 S
C32 C37 1.371 . S
C33 H5 0.930 . S
C33 C32 1.358 1_565 S
C33 C34 1.405 . S
C34 H6 0.932 . S
C34 C33 1.405 . S
C34 C35 1.383 1_565 S
C35 C34 1.383 1_545 S
C35 C36 1.393 . S
C36 H8 0.931 . S
C36 C35 1.393 . S
C36 C37 1.382 . S
C37 H7 0.929 . S
C37 C32 1.371 . S
C37 C36 1.382 . S
C38 N1 1.424 . S
C38 C39 1.367 . S
C38 C43 1.383 1_554 S
C39 H9 0.929 . S
C39 C38 1.367 . S
C39 C40 1.376 . S
C40 H11 0.931 . S
C40 C39 1.376 . S
C40 C41 1.396 1_554 S
C41 C40 1.396 1_556 S
C41 C42 1.348 . S
C41 C59 1.472 . S
C42 H12 0.929 1_545 S
C42 C41 1.348 . S
C42 C43 1.443 . S
C43 H10 0.932 1_545 S
C43 C38 1.383 1_556 S
C43 C42 1.443 . S
C44 N24 1.433 . S
C44 C45 1.363 . S
C44 C49 1.370 1_545 S
C45 H13 0.929 . S
C45 C44 1.363 . S
C45 C46 1.385 . S
C46 H14 0.930 . S
C46 C45 1.385 . S
C46 C47 1.357 . S
C47 C46 1.357 . S
C47 C48 1.406 1_545 S
C48 H15 0.929 . S
C48 C47 1.406 1_565 S
C48 C49 1.391 . S
C49 H16 0.931 . S
C49 C44 1.370 1_565 S
C49 C48 1.391 . S
C50 N24 1.435 1_556 S
C50 C51 1.358 1_545 S
C50 C55 1.371 . S
C51 H17 0.930 . S
C51 C50 1.358 1_565 S
C51 C52 1.405 . S
C52 H18 0.932 . S
C52 C51 1.405 . S
C52 C53 1.383 1_565 S
C53 C52 1.383 1_545 S
C53 C54 1.393 . S
C54 H19 0.931 . S
C54 C53 1.393 . S
C54 C55 1.382 . S
C55 H20 0.929 . S
C55 C50 1.371 . S
C55 C54 1.382 . S
C56 N24 1.424 . S
C56 C57 1.367 . S
C56 C61 1.383 1_554 S
C57 H21 0.929 . S
C57 C56 1.367 . S
C57 C58 1.376 . S
C58 H22 0.931 . S
C58 C57 1.376 . S
C58 C59 1.396 1_554 S
C59 C41 1.472 . S
C59 C58 1.396 1_556 S
C59 C60 1.348 . S
C60 H23 0.929 1_545 S
C60 C59 1.348 . S
C60 C61 1.443 . S
C61 H25 0.932 1_545 S
C61 C56 1.383 1_556 S
C61 C60 1.443 . S
H62 C89 0.929 . S
N63 C88 1.433 . S
N63 C94 1.435 . S
N63 C100 1.423 . S
H64 C90 0.930 . S
H65 C93 0.931 . S
H66 C92 0.929 . S
H67 C95 0.930 . S
H68 C96 0.932 . S
H69 C99 0.929 . S
H70 C98 0.931 . S
H71 C101 0.929 . S
H72 C105 0.932 1_455 S
H73 C102 0.931 . S
H74 C104 0.929 1_455 S
H75 C107 0.929 . S
H76 C108 0.930 . S
H77 C110 0.929 . S
H78 C111 0.931 . S
H79 C113 0.930 . S
H80 C114 0.932 . S
H81 C116 0.931 . S
H82 C117 0.929 . S
H83 C119 0.929 . S
H84 C120 0.931 . S
H85 C122 0.929 1_455 S
N86 C106 1.433 . S
N86 C112 1.435 . S
N86 C118 1.423 . S
H87 C123 0.932 1_455 S
C88 N63 1.433 . S
C88 C89 1.363 . S
C88 C93 1.370 1_655 S
C89 H62 0.929 . S
C89 C88 1.363 . S
C89 C90 1.385 . S
C90 H64 0.930 . S
C90 C89 1.385 . S
C90 C91 1.357 . S
C91 C90 1.357 . S
C91 C92 1.406 1_655 S
C92 H66 0.929 . S
C92 C91 1.406 1_455 S
C92 C93 1.391 . S
C93 H65 0.931 . S
C93 C88 1.370 1_455 S
C93 C92 1.391 . S
C94 N63 1.435 . S
C94 C95 1.358 1_655 S
C94 C99 1.371 . S
C95 H67 0.930 . S
C95 C94 1.358 1_455 S
C95 C96 1.405 . S
C96 H68 0.932 . S
C96 C95 1.405 . S
C96 C97 1.383 1_455 S
C97 C96 1.383 1_655 S
C97 C98 1.393 . S
C98 H70 0.931 . S
C98 C97 1.393 . S
C98 C99 1.382 . S
C99 H69 0.929 . S
C99 C94 1.371 . S
C99 C98 1.382 . S
C100 N63 1.423 . S
C100 C101 1.362 . S
C100 C105 1.388 . S
C101 H71 0.929 . S
C101 C100 1.362 . S
C101 C102 1.376 . S
C102 H73 0.931 . S
C102 C101 1.376 . S
C102 C103 1.396 . S
C103 C102 1.396 . S
C103 C104 1.348 . S
C103 C121 1.472 . S
C104 H74 0.929 1_655 S
C104 C103 1.348 . S
C104 C105 1.443 . S
C105 H72 0.932 1_655 S
C105 C100 1.388 . S
C105 C104 1.443 . S
C106 N86 1.433 . S
C106 C107 1.363 . S
C106 C111 1.370 1_655 S
C107 H75 0.929 . S
C107 C106 1.363 . S
C107 C108 1.385 . S
C108 H76 0.930 . S
C108 C107 1.385 . S
C108 C109 1.357 . S
C109 C108 1.357 . S
C109 C110 1.406 1_655 S
C110 H77 0.929 . S
C110 C109 1.406 1_455 S
C110 C111 1.391 . S
C111 H78 0.931 . S
C111 C106 1.370 1_455 S
C111 C110 1.391 . S
C112 N86 1.435 . S
C112 C113 1.358 1_655 S
C112 C117 1.371 . S
C113 H79 0.930 . S
C113 C112 1.358 1_455 S
C113 C114 1.405 . S
C114 H80 0.932 . S
C114 C113 1.405 . S
C114 C115 1.383 1_455 S
C115 C114 1.383 1_655 S
C115 C116 1.393 . S
C116 H81 0.931 . S
C116 C115 1.393 . S
C116 C117 1.382 . S
C117 H82 0.929 . S
C117 C112 1.371 . S
C117 C116 1.382 . S
C118 N86 1.423 . S
C118 C119 1.362 . S
C118 C123 1.388 . S
C119 H83 0.929 . S
C119 C118 1.362 . S
C119 C120 1.376 . S
C120 H84 0.931 . S
C120 C119 1.376 . S
C120 C121 1.396 . S
C121 C103 1.472 . S
C121 C120 1.396 . S
C121 C122 1.348 . S
C122 H85 0.929 1_655 S
C122 C121 1.348 . S
C122 C123 1.443 . S
C123 H87 0.932 1_655 S
C123 C118 1.388 . S
C123 C122 1.443 . S
O124 Cd125 2.223 1_655 S
O124 C132 1.315 . S
Cd125 O124 2.223 1_455 S
Cd125 O128 2.297 1_455 S
Cd125 O129 2.439 1_455 S
Cd125 O135 2.240 1_565 S
Cd126 O127 2.240 1_545 S
Cd126 O134 2.223 1_655 S
Cd126 O136 2.297 1_655 S
Cd126 O137 2.439 1_655 S
O127 Cd126 2.240 1_565 S
O127 C132 1.279 . S
O128 Cd125 2.297 1_655 S
O128 C130 1.247 . S
O129 Cd125 2.439 1_655 S
O129 C130 1.208 . S
C130 O128 1.247 . S
C130 O129 1.208 . S
C131 O136 1.247 . S
C131 O137 1.208 . S
C132 O124 1.315 . S
C132 O127 1.279 . S
C133 O134 1.315 . S
C133 O135 1.279 . S
O134 Cd126 2.223 1_455 S
O134 C133 1.315 . S
O135 Cd125 2.240 1_545 S
O135 C133 1.279 . S
O136 Cd126 2.297 1_455 S
O136 C131 1.247 . S
O137 Cd126 2.439 1_455 S
O137 C131 1.208 . S
O138 Cd139 2.223 1_655 S
O138 C146 1.315 . S
Cd139 O138 2.223 1_455 S
Cd139 O142 2.297 1_455 S
Cd139 O143 2.439 1_455 S
Cd139 O149 2.240 1_545 S
Cd140 O141 2.240 1_565 S
Cd140 O148 2.223 1_655 S
Cd140 O150 2.297 1_655 S
Cd140 O151 2.439 1_655 S
O141 Cd140 2.240 1_545 S
O141 C146 1.279 . S
O142 Cd139 2.297 1_655 S
O142 C144 1.247 . S
O143 Cd139 2.439 1_655 S
O143 C144 1.208 . S
C144 O142 1.247 . S
C144 O143 1.208 . S
C145 O150 1.247 . S
C145 O151 1.208 . S
C146 O138 1.315 . S
C146 O141 1.279 . S
C147 O148 1.315 . S
C147 O149 1.279 . S
O148 Cd140 2.223 1_455 S
O148 C147 1.315 . S
O149 Cd139 2.240 1_565 S
O149 C147 1.279 . S
O150 Cd140 2.297 1_455 S
O150 C145 1.247 . S
O151 Cd140 2.439 1_455 S
O151 C145 1.208 . S
C152 C153 1.410 . S
C152 C154 1.383 . S
C152 H168 0.951 . S
C153 C152 1.410 . S
C153 C157 1.360 1_545 S
C154 C152 1.383 . S
C154 C155 1.402 . S
C154 H169 0.951 . S
C155 C154 1.402 . S
C155 C156 1.375 1_545 S
C155 C158 1.481 . S
C156 C155 1.375 1_565 S
C156 C157 1.367 . S
C156 H170 0.951 . S
C157 C153 1.360 1_565 S
C157 C156 1.367 . S
C157 H171 0.950 . S
C158 C155 1.481 . S
C158 C159 1.309 . S
C158 H172 0.937 1_545 S
C159 C158 1.309 . S
C159 C160 1.479 . S
C159 H173 0.950 . S
C160 C159 1.479 . S
C160 C161 1.375 . S
C160 C166 1.404 1_545 S
C161 C160 1.375 . S
C161 C162 1.369 . S
C161 H174 0.950 . S
C162 C161 1.369 . S
C162 C163 1.392 . S
C162 H175 0.951 . S
C163 C162 1.392 . S
C163 C165 1.384 1_545 S
H164 C166 0.949 . S
C165 C163 1.384 1_565 S
C165 C166 1.385 . S
C165 H167 0.950 . S
C166 C160 1.404 1_565 S
C166 H164 0.949 . S
C166 C165 1.385 . S
H167 C165 0.950 . S
H168 C152 0.951 . S
H169 C154 0.951 . S
H170 C156 0.951 . S
H171 C157 0.950 . S
H172 C158 0.937 1_565 S
H173 C159 0.950 . S
H174 C161 0.950 . S
H175 C162 0.951 . S
C176 C177 1.386 . S
C176 C178 1.383 . S
C176 H192 0.951 . S
C177 C176 1.386 . S
C177 C181 1.383 1_655 S
C178 C176 1.383 . S
C178 C179 1.402 . S
C178 H193 0.951 . S
C179 C178 1.402 . S
C179 C180 1.375 1_655 S
C179 C182 1.481 . S
C180 C179 1.375 1_455 S
C180 C181 1.367 . S
C180 H194 0.951 . S
C181 C177 1.383 1_455 S
C181 C180 1.367 . S
C181 H195 0.950 . S
C182 C179 1.481 . S
C182 C183 1.297 . S
C182 H196 0.950 1_655 S
C183 C182 1.297 . S
C183 C184 1.479 . S
C183 H197 0.950 . S
C184 C183 1.479 . S
C184 C185 1.375 . S
C184 C190 1.404 1_655 S
C185 C184 1.375 . S
C185 C186 1.369 . S
C185 H198 0.950 . S
C186 C185 1.369 . S
C186 C187 1.392 . S
C186 H199 0.951 . S
C187 C186 1.392 . S
C187 C189 1.384 1_655 S
H188 C190 0.949 . S
C189 C187 1.384 1_455 S
C189 C190 1.385 . S
C189 H191 0.950 . S
C190 C184 1.404 1_455 S
C190 H188 0.949 . S
C190 C189 1.385 . S
H191 C189 0.950 . S
H192 C176 0.951 . S
H193 C178 0.951 . S
H194 C180 0.951 . S
H195 C181 0.950 . S
H196 C182 0.950 1_455 S
H197 C183 0.950 . S
H198 C185 0.950 . S
H199 C186 0.951 . S
C200 C201 1.386 1_545 S
C200 C202 1.383 . S
C200 H216 0.951 . S
C201 C200 1.386 1_565 S
C201 C205 1.383 . S
C202 C200 1.383 . S
C202 C203 1.402 1_545 S
C202 H217 0.951 . S
C203 C202 1.402 1_565 S
C203 C204 1.375 . S
C203 C206 1.481 . S
C204 C203 1.375 . S
C204 C205 1.367 . S
C204 H218 0.951 . S
C205 C201 1.383 . S
C205 C204 1.367 . S
C205 H219 0.950 . S
C206 C203 1.481 . S
C206 C207 1.297 . S
C206 H220 0.950 . S
C207 C206 1.297 . S
C207 C208 1.479 . S
C207 H221 0.950 1_565 S
C208 C207 1.479 . S
C208 C209 1.375 1_565 S
C208 C214 1.404 . S
C209 C208 1.375 1_545 S
C209 C210 1.369 . S
C209 H222 0.950 . S
C210 C209 1.369 . S
C210 C211 1.392 1_545 S
C210 H223 0.951 . S
C211 C210 1.392 1_565 S
C211 C213 1.384 . S
H212 C214 0.949 . S
C213 C211 1.384 . S
C213 C214 1.385 . S
C213 H215 0.950 . S
C214 C208 1.404 . S
C214 H212 0.949 . S
C214 C213 1.385 . S
H215 C213 0.950 . S
H216 C200 0.951 . S
H217 C202 0.951 . S
H218 C204 0.951 . S
H219 C205 0.950 . S
H220 C206 0.950 . S
H221 C207 0.950 1_545 S
H222 C209 0.950 . S
H223 C210 0.951 . S
C224 C225 1.386 1_655 S
C224 C226 1.383 . S
C224 H240 0.951 . S
C225 C224 1.386 1_455 S
C225 C229 1.383 . S
C226 C224 1.383 . S
C226 C227 1.402 1_655 S
C226 H241 0.951 . S
C227 C226 1.402 1_455 S
C227 C228 1.375 . S
C227 C230 1.481 . S
C228 C227 1.375 . S
C228 C229 1.367 . S
C228 H242 0.951 . S
C229 C225 1.383 . S
C229 C228 1.367 . S
C229 H243 0.950 . S
C230 C227 1.481 . S
C230 C231 1.297 1_455 S
C230 H244 0.950 . S
C231 C230 1.297 1_655 S
C231 C232 1.479 1_655 S
C231 H245 0.950 . S
C232 C231 1.479 1_455 S
C232 C233 1.375 1_455 S
C232 C238 1.404 . S
C233 C232 1.375 1_655 S
C233 C234 1.369 . S
C233 H246 0.950 . S
C234 C233 1.369 . S
C234 C235 1.392 1_655 S
C234 H247 0.951 . S
C235 C234 1.392 1_455 S
C235 C237 1.384 . S
H236 C238 0.949 . S
C237 C235 1.384 . S
C237 C238 1.385 . S
C237 H239 0.950 . S
C238 C232 1.404 . S
C238 H236 0.949 . S
C238 C237 1.385 . S
H239 C237 0.950 . S
H240 C224 0.951 . S
H241 C226 0.951 . S
H242 C228 0.951 . S
H243 C229 0.950 . S
H244 C230 0.950 . S
H245 C231 0.950 . S
H246 C233 0.950 . S
H247 C234 0.951 . S
C248 C249 1.386 1_545 S
C248 C250 1.383 . S
C248 H264 0.951 . S
C249 C248 1.386 1_565 S
C249 C253 1.383 . S
C250 C248 1.383 . S
C250 C251 1.402 1_545 S
C250 H265 0.951 . S
C251 C250 1.402 1_565 S
C251 C252 1.375 . S
C251 C254 1.481 . S
C252 C251 1.375 . S
C252 C253 1.367 . S
C252 H266 0.951 . S
C253 C249 1.383 . S
C253 C252 1.367 . S
C253 H267 0.950 . S
C254 C251 1.481 . S
C254 C255 1.297 . S
C254 H268 0.950 . S
C255 C254 1.297 . S
C255 C256 1.479 . S
C255 H269 0.950 1_565 S
C256 C255 1.479 . S
C256 C257 1.375 1_565 S
C256 C262 1.404 . S
C257 C256 1.375 1_545 S
C257 C258 1.369 . S
C257 H270 0.950 . S
C258 C257 1.369 . S
C258 C259 1.392 1_545 S
C258 H271 0.951 . S
C259 C258 1.392 1_565 S
C259 C261 1.384 . S
H260 C262 0.949 . S
C261 C259 1.384 . S
C261 C262 1.385 . S
C261 H263 0.950 . S
C262 C256 1.404 . S
C262 H260 0.949 . S
C262 C261 1.385 . S
H263 C261 0.950 . S
H264 C248 0.951 . S
H265 C250 0.951 . S
H266 C252 0.951 . S
H267 C253 0.950 . S
H268 C254 0.950 . S
H269 C255 0.950 1_545 S
H270 C257 0.950 . S
H271 C258 0.951 . S
C272 C273 1.386 1_655 S
C272 C274 1.383 . S
C272 H288 0.951 . S
C273 C272 1.386 1_455 S
C273 C277 1.383 . S
C274 C272 1.383 . S
C274 C275 1.401 1_655 S
C274 H289 0.951 . S
C275 C274 1.401 1_455 S
C275 C276 1.375 . S
C275 C278 1.481 . S
C276 C275 1.375 . S
C276 C277 1.367 . S
C276 H290 0.951 . S
C277 C273 1.383 . S
C277 C276 1.367 . S
C277 H291 0.950 . S
C278 C275 1.481 . S
C278 C279 1.297 1_455 S
C278 H292 0.950 . S
C279 C278 1.297 1_655 S
C279 C280 1.479 1_655 S
C279 H293 0.950 . S
C280 C279 1.479 1_455 S
C280 C281 1.375 . S
C280 C286 1.404 . S
C281 C280 1.375 . S
C281 C282 1.369 . S
C281 H294 0.956 . S
C282 C281 1.369 . S
C282 C283 1.392 . S
C282 H295 0.951 . S
C283 C282 1.392 . S
C283 C285 1.384 . S
H284 C286 0.953 . S
C285 C283 1.384 . S
C285 C286 1.385 . S
C285 H287 0.950 . S
C286 C280 1.404 . S
C286 H284 0.953 . S
C286 C285 1.385 . S
H287 C285 0.950 . S
H288 C272 0.951 . S
H289 C274 0.951 . S
H290 C276 0.951 . S
H291 C277 0.950 . S
H292 C278 0.950 . S
H293 C279 0.950 . S
H294 C281 0.956 . S
H295 C282 0.951 . S
C296 C297 1.386 1_565 S
C296 C298 1.383 . S
C296 H312 0.951 . S
C297 C296 1.386 1_545 S
C297 C301 1.383 . S
C298 C296 1.383 . S
C298 C299 1.402 1_565 S
C298 H313 0.951 . S
C299 C298 1.402 1_545 S
C299 C300 1.375 . S
C299 C302 1.481 . S
C300 C299 1.375 . S
C300 C301 1.367 . S
C300 H314 0.951 . S
C301 C297 1.383 . S
C301 C300 1.367 . S
C301 H315 0.950 . S
C302 C299 1.481 . S
C302 C303 1.297 . S
C302 H316 0.950 . S
C303 C302 1.297 . S
C303 C304 1.479 . S
C303 H317 0.950 1_545 S
C304 C303 1.479 . S
C304 C305 1.375 1_545 S
C304 C310 1.404 . S
C305 C304 1.375 1_565 S
C305 C306 1.369 . S
C305 H318 0.950 . S
C306 C305 1.369 . S
C306 C307 1.392 1_565 S
C306 H319 0.951 . S
C307 C306 1.392 1_545 S
C307 C309 1.384 . S
H308 C310 0.949 . S
C309 C307 1.384 . S
C309 C310 1.385 . S
C309 H311 0.950 . S
C310 C304 1.404 . S
C310 H308 0.949 . S
C310 C309 1.385 . S
H311 C309 0.950 . S
H312 C296 0.951 . S
H313 C298 0.951 . S
H314 C300 0.951 . S
H315 C301 0.950 . S
H316 C302 0.950 . S
H317 C303 0.950 1_565 S
H318 C305 0.950 . S
H319 C306 0.951 . S
C320 C321 1.386 1_455 S
C320 C322 1.383 . S
C320 H336 0.951 . S
C321 C320 1.386 1_655 S
C321 C325 1.383 . S
C322 C320 1.383 . S
C322 C323 1.402 1_455 S
C322 H337 0.951 . S
C323 C322 1.402 1_655 S
C323 C324 1.375 . S
C323 C326 1.481 . S
C324 C323 1.375 . S
C324 C325 1.367 . S
C324 H338 0.951 . S
C325 C321 1.383 . S
C325 C324 1.367 . S
C325 H339 0.950 . S
C326 C323 1.481 . S
C326 C327 1.297 . S
C326 H340 0.950 . S
C327 C326 1.297 . S
C327 C328 1.479 . S
C327 H341 0.950 1_655 S
C328 C327 1.479 . S
C328 C329 1.375 1_655 S
C328 C334 1.404 . S
C329 C328 1.375 1_455 S
C329 C330 1.369 . S
C329 H342 0.950 . S
C330 C329 1.369 . S
C330 C331 1.392 1_455 S
C330 H343 0.951 . S
C331 C330 1.392 1_655 S
C331 C333 1.384 . S
H332 C334 0.949 . S
C333 C331 1.384 . S
C333 C334 1.385 . S
C333 H335 0.950 . S
C334 C328 1.404 . S
C334 H332 0.949 . S
C334 C333 1.385 . S
H335 C333 0.950 . S
H336 C320 0.951 . S
H337 C322 0.951 . S
H338 C324 0.951 . S
H339 C325 0.950 . S
H340 C326 0.950 . S
H341 C327 0.950 1_455 S
H342 C329 0.950 . S
H343 C330 0.951 . S
C163 C133 1.844 . S
C153 C47 1.725 . S
C187 C144 1.813 . S
C177 C109 1.709 . S
C211 C132 1.825 . S
C201 C29 1.767 1_565 S
C235 C145 1.721 . S
C225 C91 1.779 1_455 S
C259 C147 1.555 . S
C249 C53 1.562 1_565 S
C283 C131 1.372 . S
C273 C115 1.479 1_455 S
C307 C146 1.554 . S
C297 C35 1.551 . S
C321 C97 1.469 . S
C331 C130 1.373 . S
