# Generated by pormake.
# Topology anh, (6,3)-cn, num edge types: 1
# Building blocks:
#     Node 0, Type 0, BuildingBlock: BETFEN_clean_sbu_0, # of connection points: 6
#     Node 1, Type 0, BuildingBlock: BETFEN_clean_sbu_0, # of connection points: 6
#     Node 2, Type 0, BuildingBlock: BETFEN_clean_sbu_0, # of connection points: 6
#     Node 3, Type 1, BuildingBlock: BETDIP_clean_linker_0, # of connection points: 3
#     Node 4, Type 1, BuildingBlock: BETDIP_clean_linker_0, # of connection points: 3
#     Node 5, Type 1, BuildingBlock: BETDIP_clean_linker_0, # of connection points: 3
#     Node 6, Type 1, BuildingBlock: BETDIP_clean_linker_0, # of connection points: 3
#     Node 7, Type 1, BuildingBlock: BETDIP_clean_linker_0, # of connection points: 3
#     Node 8, Type 1, BuildingBlock: BETDIP_clean_linker_0, # of connection points: 3
#     Edge 9, Type (0, 1), BuildingBlock: TEMPAE_clean_linker_10, # of connection points: 2
#     Edge 10, Type (0, 1), BuildingBlock: TEMPAE_clean_linker_10, # of connection points: 2
#     Edge 11, Type (0, 1), BuildingBlock: TEMPAE_clean_linker_10, # of connection points: 2
#     Edge 12, Type (0, 1), BuildingBlock: TEMPAE_clean_linker_10, # of connection points: 2
#     Edge 13, Type (0, 1), BuildingBlock: TEMPAE_clean_linker_10, # of connection points: 2
#     Edge 14, Type (0, 1), BuildingBlock: TEMPAE_clean_linker_10, # of connection points: 2
#     Edge 15, Type (0, 1), BuildingBlock: TEMPAE_clean_linker_10, # of connection points: 2
#     Edge 16, Type (0, 1), BuildingBlock: TEMPAE_clean_linker_10, # of connection points: 2
#     Edge 17, Type (0, 1), BuildingBlock: TEMPAE_clean_linker_10, # of connection points: 2
#     Edge 18, Type (0, 1), BuildingBlock: TEMPAE_clean_linker_10, # of connection points: 2
#     Edge 19, Type (0, 1), BuildingBlock: TEMPAE_clean_linker_10, # of connection points: 2
#     Edge 20, Type (0, 1), BuildingBlock: TEMPAE_clean_linker_10, # of connection points: 2
#     Edge 21, Type (0, 1), BuildingBlock: TEMPAE_clean_linker_10, # of connection points: 2
#     Edge 22, Type (0, 1), BuildingBlock: TEMPAE_clean_linker_10, # of connection points: 2
#     Edge 23, Type (0, 1), BuildingBlock: TEMPAE_clean_linker_10, # of connection points: 2
#     Edge 24, Type (0, 1), BuildingBlock: TEMPAE_clean_linker_10, # of connection points: 2
#     Edge 25, Type (0, 1), BuildingBlock: TEMPAE_clean_linker_10, # of connection points: 2
#     Edge 26, Type (0, 1), BuildingBlock: TEMPAE_clean_linker_10, # of connection points: 2
# Relax obj value: 0.160
# Max RMSD: 0.181
# Mean RMSD: 0.131
data_MOF--net-anh--node1-BETFEN_clean_sbu_0--node2-BETDIP_clean_linker_0--edge1-TEMPAE_clean_linker_10
_symmetry_space_group_name_H-M    P1
_symmetry_Int_Tables_number       1
_symmetry_cell_setting            triclinic
loop_
_symmetry_equiv_pos_as_xyz
'x, y, z'
_cell_length_a     30.892597
_cell_length_b     33.873783
_cell_length_c     50.265302
_cell_angle_alpha  93.659069
_cell_angle_beta   93.185299
_cell_angle_gamma 105.82429
loop_
_atom_site_label
_atom_site_type_symbol
_atom_site_fract_x
_atom_site_fract_y
_atom_site_fract_z
_atom_type_partial_charge
Pr0 Pr 0.04818 0.55018 0.15353 0.0
Pr1 Pr 0.07195 0.63953 0.15287 0.0
C2 C 1.00981 0.4703 0.16007 0.0
C3 C 0.96335 0.44349 0.16007 0.0
C4 C 0.95028 0.40628 0.14387 0.0
C5 C 0.9068 0.37984 0.14416 0.0
C6 C 0.87583 0.39006 0.16086 0.0
C7 C 0.8884 0.42802 0.17633 0.0
C8 C 0.9317 0.45463 0.17585 0.0
C9 C 0.06126 0.57653 0.10251 0.0
C10 C 0.96463 0.59691 0.15107 0.0
C11 C 0.1081 0.71913 0.14446 0.0
C12 C 0.15291 0.74909 0.14846 0.0
C13 C 0.18019 0.75237 0.17225 0.0
C14 C 0.22244 0.78125 0.1758 0.0
C15 C 0.23834 0.80706 0.15556 0.0
C16 C 0.2115 0.80297 0.1315 0.0
C17 C 0.16902 0.77428 0.12804 0.0
C18 C 0.06036 0.6124 0.20393 0.0
C19 C 0.15617 0.59301 0.15473 0.0
O20 O 0.02436 0.49834 0.1801 0.0
O21 O 0.02218 0.48351 0.13709 0.0
O22 O 0.03863 0.59028 0.11916 0.0
O23 O 0.0778 0.54859 0.11204 0.0
O24 O 0.99441 0.62871 0.14282 0.0
O25 O 0.97805 0.56554 0.15942 0.0
O26 O 0.10362 0.68904 0.12601 0.0
O27 O 0.08778 0.70732 0.16591 0.0
O28 O 0.08282 0.59943 0.18694 0.0
O29 O 0.04317 0.64036 0.19505 0.0
O30 O 0.12631 0.55978 0.16138 0.0
O31 O 0.14294 0.62551 0.14839 0.0
H32 H 0.974 0.39735 0.13133 0.0
H33 H 0.89801 0.35065 0.13217 0.0
H34 H 0.86492 0.43676 0.18916 0.0
H35 H 0.94056 0.48354 0.18814 0.0
H36 H 0.16885 0.73278 0.18814 0.0
H37 H 0.24274 0.7834 0.1944 0.0
H38 H 0.22288 0.82263 0.11565 0.0
H39 H 0.14859 0.77193 0.10946 0.0
Pr40 Pr 0.56079 0.08296 0.5047 0.0
Pr41 Pr 0.45532 0.0519 0.50229 0.0
C42 C 0.6485 0.11099 0.4959 0.0
C43 C 0.67962 0.15322 0.49612 0.0
C44 C 0.71132 0.16992 0.51797 0.0
C45 C 0.73996 0.21007 0.5184 0.0
C46 C 0.73755 0.23406 0.49692 0.0
C47 C 0.70594 0.21764 0.47518 0.0
C48 C 0.67722 0.17774 0.47477 0.0
C49 C 0.52439 0.08426 0.5537 0.0
C50 C 0.50478 0.16051 0.50714 0.0
C51 C 0.36926 1.01715 0.51345 0.0
C52 C 0.33686 0.97576 0.50805 0.0
C53 C 0.32664 0.95631 0.48202 0.0
C54 C 0.29789 0.91626 0.47758 0.0
C55 C 0.27895 0.8946 0.49905 0.0
C56 C 0.28923 0.91415 0.52507 0.0
C57 C 0.31776 0.95431 0.52949 0.0
C58 C 0.48157 0.05732 0.4497 0.0
C59 C 0.51243 0.97427 0.50406 0.0
O60 O 0.6163 0.09982 0.47657 0.0
O61 O 0.63501 0.09851 0.51897 0.0
O62 O 0.51111 0.05627 0.53495 0.0
O63 O 0.55924 0.11274 0.54769 0.0
O64 O 0.46801 0.12891 0.51071 0.0
O65 O 0.54275 0.14999 0.50193 0.0
O66 O 0.40415 1.0193 0.52984 0.0
O67 O 0.37966 0.03959 0.49327 0.0
O68 O 0.50686 0.0655 0.47091 0.0
O69 O 0.4399 0.04459 0.45531 0.0
O70 O 0.55054 1.0063 0.5054 0.0
O71 O 0.47281 0.98398 0.50167 0.0
H72 H 0.71406 0.1519 0.53471 0.0
H73 H 0.76451 0.2221 0.53524 0.0
H74 H 0.70381 0.23565 0.45834 0.0
H75 H 0.65325 0.16615 0.45762 0.0
H76 H 0.34132 0.97175 0.4651 0.0
H77 H 0.29121 0.90192 0.45733 0.0
H78 H 0.27495 0.8985 0.54202 0.0
H79 H 0.32535 0.96851 0.54977 0.0
Pr80 Pr 0.51831 0.50057 0.8244 0.0
Pr81 Pr 0.54609 0.59109 0.8354 0.0
C82 C 0.51934 0.42435 0.81086 0.0
C83 C 0.55316 0.40502 0.82126 0.0
C84 C 0.55832 0.39984 0.84872 0.0
C85 C 0.5849 0.37531 0.85749 0.0
C86 C 0.60388 0.35426 0.83855 0.0
C87 C 0.60858 0.36825 0.8129 0.0
C88 C 0.58171 0.39244 0.8039 0.0
C89 C 0.52112 0.52629 0.87835 0.0
C90 C 0.63051 0.54929 0.83295 0.0
C91 C 0.55105 0.6616 0.86371 0.0
C92 C 0.52044 0.68777 0.86359 0.0
C93 C 0.50224 0.69704 0.8394 0.0
C94 C 0.47343 0.72221 0.83951 0.0
C95 C 0.46221 0.73853 0.86384 0.0
C96 C 0.47666 0.72541 0.88791 0.0
C97 C 0.50592 0.70048 0.88778 0.0
C98 C 0.53058 0.57717 0.77913 0.0
C99 C 0.43549 0.54098 0.82526 0.0
O100 O 0.53427 0.45384 0.79534 0.0
O101 O 0.49163 0.43236 0.82786 0.0
O102 O 0.55118 0.54066 0.86269 0.0
O103 O 0.48799 0.49763 0.86609 0.0
O104 O 0.62034 0.58445 0.83767 0.0
O105 O 0.59814 0.51455 0.82737 0.0
O106 O 0.5338 0.62566 0.87254 0.0
O107 O 0.57398 0.6602 0.84258 0.0
O108 O 0.52617 0.54967 0.79532 0.0
O109 O 0.54272 0.61352 0.79182 0.0
O110 O 0.44724 0.51035 0.8129 0.0
O111 O 0.46662 0.57193 0.83829 0.0
H112 H 0.53907 0.41169 0.86303 0.0
H113 H 0.58259 0.36612 0.87775 0.0
H114 H 0.6251 0.35373 0.79829 0.0
H115 H 0.58058 0.39848 0.783 0.0
H116 H 0.51143 0.68602 0.82041 0.0
H117 H 0.46329 0.73161 0.8205 0.0
H118 H 0.46806 0.73693 0.90692 0.0
H119 H 0.51818 0.692 0.9066 0.0
H120 H 0.548 0.05919 0.17787 0.0
H121 H 0.60042 0.12307 0.25446 0.0
H122 H 0.49137 1.01096 0.24893 0.0
H123 H 0.58451 0.17695 0.21711 0.0
C124 C 0.60991 0.16767 0.20607 0.0
C125 C 0.54763 0.06118 0.19947 0.0
C126 C 0.51707 0.03087 0.21189 0.0
C127 C 0.57696 0.09472 0.21478 0.0
C128 C 0.57661 0.09749 0.24284 0.0
C129 C 0.54658 0.06672 0.2557 0.0
C130 C 0.51653 0.03387 0.23978 0.0
N131 N 0.60705 0.12525 0.20161 0.0
H132 H 0.51156 0.52455 0.4977 0.0
H133 H 0.51677 0.6011 0.57149 0.0
H134 H 0.50573 0.47355 0.57511 0.0
H135 H 0.49248 0.64591 0.55035 0.0
C136 C 0.50548 0.64902 0.5308 0.0
C137 C 0.51112 0.52795 0.51921 0.0
C138 C 0.51043 0.4907 0.53449 0.0
C139 C 0.51192 0.56992 0.53219 0.0
C140 C 0.51367 0.572 0.56037 0.0
C141 C 0.51164 0.53763 0.57523 0.0
C142 C 0.50873 0.49859 0.56237 0.0
N143 N 0.513 0.60931 0.51851 0.0
H144 H 0.987 0.53518 0.82811 0.0
H145 H 0.08511 0.57114 0.89599 0.0
H146 H 0.94847 0.57165 0.9052 0.0
H147 H 0.12492 0.60703 0.8559 0.0
C148 C 0.1212 0.57583 0.84742 0.0
C149 C 0.99544 0.54605 0.84899 0.0
C150 C 0.96097 0.55168 0.86538 0.0
C151 C 0.04105 0.55444 0.85982 0.0
C152 C 0.05118 0.56703 0.8872 0.0
C153 C 1.01754 0.57186 0.90366 0.0
C154 C 0.97349 0.56571 0.89241 0.0
N155 N 0.0764 0.54827 0.84396 0.0
H156 H 0.04586 0.58549 0.47745 0.0
H157 H 0.98577 0.52072 0.4019 0.0
H158 H 0.09366 0.63189 0.40353 0.0
H159 H 0.92279 0.50868 0.42701 0.0
C160 C 0.93638 0.49953 0.44529 0.0
C161 C 0.04439 0.58277 0.45579 0.0
C162 C 0.07444 0.61244 0.44226 0.0
C163 C 1.01172 0.54992 0.44148 0.0
C164 C 1.01013 0.54619 0.41327 0.0
C165 C 0.0396 0.57587 0.39958 0.0
C166 C 0.07148 0.60866 0.4142 0.0
N167 N 0.98088 0.5212 0.45584 0.0
H168 H 0.57846 0.05947 0.80893 0.0
H169 H 0.55614 0.98367 0.73604 0.0
H170 H 0.46086 0.05096 0.75732 0.0
H171 H 0.63762 0.95568 0.7883 0.0
C172 C 0.60711 0.96531 0.79026 0.0
C173 C 0.55589 0.04493 0.79161 0.0
C174 C 0.51769 0.05771 0.78508 0.0
C175 C 0.56702 1.01535 0.77499 0.0
C176 C 0.54282 1.00191 0.75017 0.0
C177 C 0.50577 1.01675 0.74268 0.0
C178 C 0.49 0.04003 0.76209 0.0
N179 N 0.60691 1.00427 0.78156 0.0
H180 H 0.51464 0.59271 0.15557 0.0
H181 H 0.59154 0.58686 0.08717 0.0
H182 H 0.45421 0.58898 0.07528 0.0
H183 H 0.61027 0.53804 0.11756 0.0
C184 C 0.62559 0.56425 0.13191 0.0
C185 C 0.51687 0.59185 0.13414 0.0
C186 C 0.47802 0.59034 0.11686 0.0
C187 C 0.55809 0.58996 0.12345 0.0
C188 C 0.56024 0.58775 0.09558 0.0
C189 C 0.52295 0.587 0.07828 0.0
C190 C 0.48259 0.58916 0.08899 0.0
N191 N 0.59731 0.58943 0.14015 0.0
C192 C 0.22234 0.56328 0.16392 0.0
C193 C 0.20495 0.59357 0.15303 0.0
C194 C 0.26764 0.56274 0.1613 0.0
C195 C 0.2966 0.5927 0.14695 0.0
C196 C 0.27936 0.62369 0.13629 0.0
C197 C 0.23427 0.62396 0.13965 0.0
C198 C 0.28434 0.52962 0.1736 0.0
C199 C 0.30812 0.65588 0.1204 0.0
C200 C 0.4262 0.61122 0.15005 0.0
C201 C 0.43188 0.58836 0.12675 0.0
C202 C 0.38261 0.61195 0.15742 0.0
C203 C 0.34336 0.58975 0.14104 0.0
C204 C 0.34892 0.56563 0.11808 0.0
C205 C 0.3925 0.56472 0.11157 0.0
C206 C 0.3786 0.63723 0.18248 0.0
C207 C 0.30871 0.54151 0.09976 0.0
H208 H 0.20043 0.53976 0.17449 0.0
H209 H 0.22159 0.64754 0.13103 0.0
H210 H 0.29295 0.50947 0.15768 0.0
H211 H 0.31561 0.54376 0.18667 0.0
H212 H 0.25889 0.51022 0.18558 0.0
H213 H 0.29069 0.67897 0.11441 0.0
H214 H 0.34011 0.67216 0.13223 0.0
H215 H 0.31709 0.64078 0.10208 0.0
H216 H 0.45583 0.62955 0.16216 0.0
H217 H 0.39562 0.54556 0.09409 0.0
H218 H 0.35429 0.61821 0.19523 0.0
H219 H 0.36527 0.6632 0.17716 0.0
H220 H 0.41153 0.64991 0.1943 0.0
H221 H 0.28486 0.51927 0.11103 0.0
H222 H 0.3185 0.5243 0.08263 0.0
H223 H 0.29036 0.56273 0.09181 0.0
C224 C 0.76316 0.31037 0.50879 0.0
C225 C 0.77007 0.27495 0.49584 0.0
C226 C 0.79128 0.34973 0.50499 0.0
C227 C 0.82684 0.35346 0.48779 0.0
C228 C 0.83493 0.31739 0.47576 0.0
C229 C 0.80632 0.27865 0.47985 0.0
C230 C 0.78162 0.38727 0.51835 0.0
C231 C 0.8725 0.31975 0.45742 0.0
C232 C 0.86438 0.44471 0.44628 0.0
C233 C 0.90732 0.46488 0.45842 0.0
C234 C 0.83685 0.40979 0.45658 0.0
C235 C 0.85256 0.39451 0.47972 0.0
C236 C 0.89502 0.41602 0.49292 0.0
C237 C 0.92205 0.45095 0.48205 0.0
C238 C 0.79179 0.38806 0.4419 0.0
C239 C 0.91243 0.40135 0.518 0.0
H240 H 0.73489 0.30732 0.5211 0.0
H241 H 0.81146 0.2511 0.46989 0.0
H242 H 0.81318 0.40895 0.52785 0.0
H243 H 0.76767 0.40372 0.50313 0.0
H244 H 0.75697 0.37914 0.53377 0.0
H245 H 0.87629 0.28889 0.45118 0.0
H246 H 0.86556 0.33464 0.43924 0.0
H247 H 0.905 0.33894 0.46744 0.0
H248 H 0.85272 0.45563 0.42815 0.0
H249 H 0.955 0.46672 0.49175 0.0
H250 H 0.76464 0.38348 0.45588 0.0
H251 H 0.7924 0.35715 0.43346 0.0
H252 H 0.78315 0.40541 0.42532 0.0
H253 H 0.88763 0.39903 0.53338 0.0
H254 H 0.94532 0.42224 0.52642 0.0
H255 H 0.91656 0.3701 0.5137 0.0
C256 C 0.42232 0.78407 0.84188 0.0
C257 C 0.44858 0.7772 0.86387 0.0
C258 C 0.43306 0.82271 0.83149 0.0
C259 C 0.47049 0.85392 0.84358 0.0
C260 C 0.4885 0.84982 0.86944 0.0
C261 C 0.47624 0.8113 0.87969 0.0
C262 C 0.41 0.82761 0.80519 0.0
C263 C 0.52763 0.8827 0.88368 0.0
C264 C 0.56484 0.89518 0.7996 0.0
C265 C 0.56835 0.9372 0.80179 0.0
C266 C 0.5316 0.86742 0.81212 0.0
C267 C 0.50001 0.88204 0.82654 0.0
C268 C 0.50184 0.92416 0.82769 0.0
C269 C 0.53719 0.95148 0.81628 0.0
C270 C 0.53187 0.82275 0.81086 0.0
C271 C 0.46689 0.9404 0.84115 0.0
H272 H 0.39876 0.75807 0.83041 0.0
H273 H 0.49517 0.80679 0.8975 0.0
H274 H 0.40921 0.85996 0.80375 0.0
H275 H 0.42885 0.81923 0.78857 0.0
H276 H 0.37499 0.80704 0.80258 0.0
H277 H 0.53165 0.87805 0.90526 0.0
H278 H 0.55921 0.88148 0.87455 0.0
H279 H 0.52346 0.91387 0.88181 0.0
H280 H 0.58918 0.88415 0.78873 0.0
H281 H 0.54119 0.98391 0.82 0.0
H282 H 0.49944 0.80294 0.80118 0.0
H283 H 0.53579 0.81313 0.83134 0.0
H284 H 0.55959 0.81694 0.79943 0.0
H285 H 0.43387 0.92812 0.82943 0.0
H286 H 0.47562 0.97457 0.84258 0.0
H287 H 0.46227 0.92981 0.86148 0.0
C288 C 0.89939 0.62596 0.13855 0.0
C289 C 0.91568 0.59639 0.15118 0.0
C290 C 0.85316 0.6248 0.13757 0.0
C291 C 0.82193 0.59361 0.14979 0.0
C292 C 0.83852 0.56463 0.16345 0.0
C293 C 0.88479 0.56618 0.16382 0.0
C294 C 0.83747 0.65616 0.12253 0.0
C295 C 0.80707 0.53112 0.17712 0.0
C296 C 0.70062 0.60144 0.15864 0.0
C297 C 0.67601 0.57471 0.13714 0.0
C298 C 0.74805 0.60807 0.16317 0.0
C299 C 0.7716 0.58819 0.14553 0.0
C300 C 0.74669 0.56208 0.12353 0.0
C301 C 0.69966 0.55541 0.11987 0.0
C302 C 0.77284 0.63569 0.18711 0.0
C303 C 0.76971 0.54079 0.10374 0.0
H304 H 0.92264 0.64963 0.1288 0.0
H305 H 0.8967 0.54337 0.17393 0.0
H306 H 0.8141 0.64042 0.10513 0.0
H307 H 0.81851 0.67206 0.13554 0.0
H308 H 0.86597 0.67963 0.11521 0.0
H309 H 0.82553 0.51346 0.18902 0.0
H310 H 0.7865 0.54455 0.19053 0.0
H311 H 0.78342 0.5094 0.16193 0.0
H312 H 0.68279 0.61636 0.17222 0.0
H313 H 0.68112 0.53484 0.10312 0.0
H314 H 0.80026 0.66101 0.18061 0.0
H315 H 0.78888 0.61792 0.2004 0.0
H316 H 0.75014 0.64926 0.19879 0.0
H317 H 0.79701 0.56385 0.09516 0.0
H318 H 0.74594 0.52276 0.0871 0.0
H319 H 0.78555 0.51964 0.11403 0.0
C320 C 0.25315 0.821 0.51079 0.0
C321 C 0.24873 0.85176 0.49422 0.0
C322 C 0.22573 0.78022 0.50579 0.0
C323 C 0.19305 0.76993 0.48372 0.0
C324 C 0.18791 0.80102 0.46724 0.0
C325 C 0.21576 0.84143 0.47267 0.0
C326 C 0.23245 0.74799 0.52375 0.0
C327 C 0.15337 0.79147 0.44356 0.0
C328 C 0.15144 0.66239 0.44866 0.0
C329 C 0.10737 0.6491 0.45672 0.0
C330 C 0.18059 0.70071 0.45846 0.0
C331 C 0.16542 0.72648 0.47685 0.0
C332 C 0.12207 0.71204 0.48645 0.0
C333 C 0.09353 0.67347 0.47628 0.0
C334 C 0.22663 0.7146 0.44785 0.0
C335 C 0.10483 0.73835 0.5063 0.0
H336 H 0.27883 0.8286 0.52733 0.0
H337 H 0.21162 0.86509 0.46002 0.0
H338 H 0.19986 0.73136 0.53119 0.0
H339 H 0.24499 0.72488 0.51221 0.0
H340 H 0.25696 0.76146 0.54116 0.0
H341 H 0.15268 0.81931 0.43319 0.0
H342 H 0.1609 0.76867 0.42899 0.0
H343 H 0.11925 0.7775 0.45013 0.0
H344 H 0.16256 0.64336 0.43385 0.0
H345 H 0.05949 0.66347 0.48252 0.0
H346 H 0.25302 0.72611 0.46455 0.0
H347 H 0.22779 0.74045 0.43516 0.0
H348 H 0.235 0.68948 0.43571 0.0
H349 H 0.1298 0.74964 0.52373 0.0
H350 H 0.07213 0.72136 0.51354 0.0
H351 H 0.10018 0.76576 0.49682 0.0
C352 C 0.54401 0.29004 0.83282 0.0
C353 C 0.59012 0.30951 0.83867 0.0
C354 C 0.52858 0.24795 0.82617 0.0
C355 C 0.56 0.22465 0.82619 0.0
C356 C 0.60643 0.24366 0.83349 0.0
C357 C 0.62127 0.28648 0.83924 0.0
C358 C 0.47931 0.22913 0.81708 0.0
C359 C 0.64051 0.21912 0.8336 0.0
C360 C 0.5165 0.10886 0.82255 0.0
C361 C 0.51842 0.09918 0.7953 0.0
C362 C 0.52885 0.15005 0.83293 0.0
C363 C 0.54473 0.18135 0.81564 0.0
C364 C 0.54516 0.17158 0.78793 0.0
C365 C 0.53141 0.13046 0.77806 0.0
C366 C 0.52661 0.16013 0.86241 0.0
C367 C 0.56189 0.20427 0.76887 0.0
H368 H 0.52026 0.3084 0.83154 0.0
H369 H 0.65692 0.30202 0.84318 0.0
H370 H 0.47597 0.2189 0.79546 0.0
H371 H 0.46492 0.20159 0.82791 0.0
H372 H 0.45889 0.25121 0.82019 0.0
H373 H 0.67434 0.23775 0.84225 0.0
H374 H 0.62901 0.19188 0.84522 0.0
H375 H 0.64368 0.20758 0.81284 0.0
H376 H 0.50704 0.08429 0.83572 0.0
H377 H 0.53396 0.12256 0.75705 0.0
H378 H 0.50652 0.18246 0.86544 0.0
H379 H 0.5611 0.17496 0.87177 0.0
H380 H 0.51132 0.13233 0.87285 0.0
H381 H 0.54168 0.22676 0.76956 0.0
H382 H 0.56007 0.19107 0.74789 0.0
H383 H 0.59744 0.22153 0.77495 0.0
C384 C 0.47505 0.89129 0.49846 0.0
C385 C 0.51336 0.92621 0.50561 0.0
C386 C 0.47472 0.84792 0.5 0.0
C387 C 0.5133 0.8351 0.50977 0.0
C388 C 0.55201 0.87015 0.51721 0.0
C389 C 0.55177 0.91328 0.51482 0.0
C390 C 0.4318 0.81514 0.4909 0.0
C391 C 0.59477 0.86211 0.5283 0.0
C392 C 0.49655 0.72419 0.54122 0.0
C393 C 0.50896 0.69598 0.52248 0.0
C394 C 0.49796 0.76699 0.53742 0.0
C395 C 0.51225 0.78676 0.51368 0.0
C396 C 0.52503 0.75887 0.49433 0.0
C397 C 0.52338 0.71554 0.49871 0.0
C398 C 0.48389 0.79163 0.55967 0.0
C399 C 0.54038 0.77491 0.46824 0.0
H400 H 0.44423 0.89777 0.49122 0.0
H401 H 0.58245 0.9374 0.52087 0.0
H402 H 0.43907 0.79132 0.47703 0.0
H403 H 0.41701 0.79967 0.5084 0.0
H404 H 0.4064 0.82792 0.48073 0.0
H405 H 0.62169 0.89101 0.53442 0.0
H406 H 0.58783 0.84371 0.54587 0.0
H407 H 0.60732 0.84371 0.51305 0.0
H408 H 0.48521 0.71247 0.55992 0.0
H409 H 0.53358 0.6971 0.48318 0.0
H410 H 0.45423 0.80154 0.55245 0.0
H411 H 0.51156 0.81991 0.56592 0.0
H412 H 0.47506 0.77394 0.5774 0.0
H413 H 0.51219 0.78271 0.45709 0.0
H414 H 0.55182 0.75219 0.45557 0.0
H415 H 0.56838 0.80366 0.47198 0.0
C416 C 0.71426 0.58199 0.84522 0.0
C417 C 0.67902 0.54785 0.83462 0.0
C418 C 0.75958 0.5802 0.84786 0.0
C419 C 0.77074 0.54361 0.83933 0.0
C420 C 0.73541 0.50927 0.82812 0.0
C421 C 0.69031 0.51168 0.82612 0.0
C422 C 0.7955 0.61733 0.86053 0.0
C423 C 0.74509 0.46963 0.8185 0.0
C424 C 0.89745 0.55564 0.83145 0.0
C425 C 0.91155 0.54325 0.85586 0.0
C426 C 0.85152 0.55406 0.82517 0.0
C427 C 0.81872 0.54062 0.84388 0.0
C428 C 0.83247 0.5261 0.86786 0.0
C429 C 0.87797 0.52675 0.87318 0.0
C430 C 0.83833 0.56805 0.79881 0.0
C431 C 0.79956 0.51178 0.88871 0.0
H432 H 0.70635 0.61004 0.85202 0.0
H433 H 0.66375 0.48494 0.81786 0.0
H434 H 0.81151 0.60913 0.87891 0.0
H435 H 0.82237 0.62735 0.84667 0.0
H436 H 0.78178 0.64363 0.86588 0.0
H437 H 0.71495 0.4472 0.80792 0.0
H438 H 0.77277 0.47592 0.80486 0.0
H439 H 0.75649 0.45516 0.83575 0.0
H440 H 0.92251 0.56817 0.81771 0.0
H441 H 0.88761 0.5156 0.89171 0.0
H442 H 0.82868 0.59707 0.80232 0.0
H443 H 0.80849 0.54473 0.78869 0.0
H444 H 0.8662 0.5734 0.78526 0.0
H445 H 0.78689 0.53771 0.89631 0.0
H446 H 0.81506 0.50013 0.90592 0.0
H447 H 0.76995 0.48701 0.87981 0.0
C448 C 0.31349 0.84499 0.1406 0.0
C449 C 0.28201 0.83925 0.16007 0.0
C450 C 0.35498 0.87546 0.14498 0.0
C451 C 0.36475 0.90087 0.16924 0.0
C452 C 0.33281 0.8954 0.1888 0.0
C453 C 0.29194 0.86457 0.184 0.0
C454 C 0.38848 0.88018 0.12385 0.0
C455 C 0.34178 0.92214 0.21486 0.0
C456 C 0.48107 0.95617 0.20062 0.0
C457 C 0.48339 0.99699 0.19608 0.0
C458 C 0.44421 0.92386 0.18988 0.0
C459 C 0.40851 0.93293 0.17482 0.0
C460 C 0.41227 0.97393 0.1687 0.0
C461 C 0.45001 1.00557 0.1793 0.0
C462 C 0.44189 0.88049 0.19641 0.0
C463 C 0.37478 0.98485 0.15288 0.0
H464 H 0.30593 0.82521 0.12214 0.0
H465 H 0.26735 0.86058 0.19889 0.0
H466 H 0.39657 0.91188 0.11735 0.0
H467 H 0.42048 0.87544 0.13227 0.0
H468 H 0.37566 0.85801 0.10605 0.0
H469 H 0.31309 0.91425 0.22776 0.0
H470 H 0.37233 0.91875 0.2261 0.0
H471 H 0.34838 0.955 0.21083 0.0
H472 H 0.50719 0.94976 0.21356 0.0
H473 H 0.4519 0.03731 0.176 0.0
H474 H 0.43035 0.85865 0.17838 0.0
H475 H 0.41705 0.87103 0.21153 0.0
H476 H 0.47505 0.87779 0.20455 0.0
H477 H 0.36349 0.96365 0.13455 0.0
H478 H 0.38522 1.017 0.14708 0.0
H479 H 0.34533 0.98139 0.16511 0.0
C480 C 0.46875 0.22442 0.51858 0.0
C481 C 0.50445 0.20897 0.50906 0.0
C482 C 0.46927 0.26819 0.52087 0.0
C483 C 0.50596 0.30117 0.51309 0.0
C484 C 0.54167 0.28565 0.50301 0.0
C485 C 0.54074 0.24187 0.50151 0.0
C486 C 0.42965 0.27927 0.53217 0.0
C487 C 0.58214 0.31574 0.49347 0.0
C488 C 0.48979 0.41682 0.50253 0.0
C489 C 0.51207 0.44329 0.52561 0.0
C490 C 0.4882 0.37272 0.49797 0.0
C491 C 0.50811 0.3505 0.5168 0.0
C492 C 0.53092 0.37712 0.5397 0.0
C493 C 0.53325 0.42091 0.5433 0.0
C494 C 0.46434 0.34951 0.47242 0.0
C495 C 0.55282 0.35888 0.56148 0.0
H496 H 0.4397 0.20195 0.52482 0.0
H497 H 0.56943 0.2334 0.49399 0.0
H498 H 0.44153 0.30339 0.54902 0.0
H499 H 0.41199 0.29223 0.5166 0.0
H500 H 0.40516 0.25228 0.53935 0.0
H501 H 0.60178 0.30007 0.48074 0.0
H502 H 0.57174 0.33898 0.48196 0.0
H503 H 0.60467 0.33233 0.51097 0.0
H504 H 0.47242 0.43026 0.48784 0.0
H505 H 0.55245 0.43799 0.56104 0.0
H506 H 0.4318 0.32822 0.47684 0.0
H507 H 0.48482 0.33061 0.46335 0.0
H508 H 0.45738 0.37047 0.45766 0.0
H509 H 0.52792 0.33175 0.56819 0.0
H510 H 0.56656 0.38129 0.57905 0.0
H511 H 0.58075 0.348 0.55362 0.0
C512 C 0.3567 0.53277 0.80398 0.0
C513 C 0.3868 0.53979 0.82688 0.0
C514 C 0.31185 0.53546 0.80553 0.0
C515 C 0.29585 0.5438 0.83071 0.0
C516 C 0.32578 0.54901 0.85397 0.0
C517 C 0.37082 0.5478 0.8517 0.0
C518 C 0.2822 0.53118 0.78006 0.0
C519 C 0.31051 0.55663 0.88136 0.0
C520 C 0.20225 0.59787 0.83723 0.0
C521 C 0.16371 0.56542 0.84023 0.0
C522 C 0.24455 0.59101 0.83315 0.0
C523 C 0.24947 0.55056 0.83268 0.0
C524 C 0.2105 0.51741 0.83541 0.0
C525 C 0.16808 0.52514 0.83885 0.0
C526 C 0.28433 0.62746 0.82992 0.0
C527 C 0.21399 0.47391 0.83572 0.0
H528 H 0.36882 0.52695 0.7847 0.0
H529 H 0.39371 0.55299 0.86954 0.0
H530 H 0.24972 0.50748 0.78132 0.0
H531 H 0.27425 0.56075 0.77724 0.0
H532 H 0.2985 0.52274 0.76223 0.0
H533 H 0.33604 0.5557 0.89759 0.0
H534 H 0.30392 0.58724 0.88322 0.0
H535 H 0.27845 0.53326 0.88425 0.0
H536 H 0.19942 0.62914 0.83838 0.0
H537 H 0.13883 0.49986 0.84154 0.0
H538 H 0.30126 0.62177 0.81174 0.0
H539 H 0.30946 0.63192 0.84727 0.0
H540 H 0.27432 0.6564 0.82842 0.0
H541 H 0.22812 0.46508 0.81717 0.0
H542 H 0.1808 0.4514 0.83753 0.0
H543 H 0.23752 0.47188 0.85275 0.0
C544 C 0.80396 0.33855 0.14201 0.0
C545 C 0.83238 0.35948 0.1642 0.0
C546 C 0.7643 0.30751 0.14538 0.0
C547 C 0.75366 0.29669 0.17148 0.0
C548 C 0.78206 0.3182 0.19388 0.0
C549 C 0.82082 0.34952 0.18995 0.0
C550 C 0.73423 0.28593 0.12108 0.0
C551 C 0.77235 0.30724 0.22202 0.0
C552 C 0.63898 0.2384 0.19174 0.0
C553 C 0.64467 0.19913 0.19408 0.0
C554 C 0.67294 0.26981 0.18229 0.0
C555 C 0.71399 0.26194 0.17581 0.0
C556 C 0.71907 0.22176 0.17705 0.0
C557 C 0.6841 0.19067 0.18597 0.0
C558 C 0.66573 0.3119 0.18045 0.0
C559 C 0.76248 0.21221 0.17056 0.0
H560 H 0.81284 0.34643 0.12208 0.0
H561 H 0.8431 0.3653 0.20708 0.0
H562 H 0.73428 0.25316 0.11888 0.0
H563 H 0.69891 0.28648 0.1235 0.0
H564 H 0.74528 0.30025 0.10243 0.0
H565 H 0.79761 0.32728 0.23725 0.0
H566 H 0.73844 0.30995 0.22642 0.0
H567 H 0.77223 0.27478 0.22405 0.0
H568 H 0.60818 0.24472 0.1977 0.0
H569 H 0.68855 0.16027 0.18771 0.0
H570 H 0.67607 0.32404 0.1611 0.0
H571 H 0.687 0.33361 0.19658 0.0
H572 H 0.62996 0.31143 0.18245 0.0
H573 H 0.77236 0.22262 0.15075 0.0
H574 H 0.75974 0.17881 0.17048 0.0
H575 H 0.79001 0.2292 0.1856 0.0
C576 C 0.0404 0.61278 0.06389 0.0
C577 C 0.06208 0.58498 0.07405 0.0
C578 C 0.03737 0.61743 0.0363 0.0
C579 C 0.05603 0.59334 0.01861 0.0
C580 C 0.08021 0.56707 0.02905 0.0
C581 C 0.08311 0.56339 0.05664 0.0
C582 C 1.01215 0.64639 0.02596 0.0
C583 C 0.10058 0.5408 0.01094 0.0
C584 C 0.99726 0.55602 0.94989 0.0
C585 C 0.027 0.5797 0.93314 0.0
C586 C 1.00577 0.56122 0.97772 0.0
C587 C 0.04509 0.5909 0.98924 0.0
C588 C 0.07495 0.61554 0.97253 0.0
C589 C 0.06564 0.60952 0.9446 0.0
C590 C 0.97332 0.53388 -0.00526 0.0
C591 C 0.11682 0.64791 0.98416 0.0
H592 H 0.02465 0.62997 0.07737 0.0
H593 H 0.10043 0.54225 0.06446 0.0
H594 H 0.03138 0.66533 0.01104 0.0
H595 H 0.97929 0.62831 0.01577 0.0
H596 H 1.00559 0.66719 0.0423 0.0
H597 H 0.12179 0.52494 0.02231 0.0
H598 H 0.07322 0.51713 -0.00103 0.0
H599 H 0.12156 0.55984 -0.0033 0.0
H600 H 0.96774 0.53246 0.94116 0.0
H601 H 0.08849 0.62813 0.93172 0.0
H602 H 0.96138 0.55289 0.0099 0.0
H603 H 0.99082 0.51448 0.00565 0.0
H604 H 0.94347 0.51336 0.9827 0.0
H605 H 0.1072 0.67115 -0.00265 0.0
H606 H 0.13712 0.66385 0.96844 0.0
H607 H 0.13828 0.63377 -0.00331 0.0
C608 C 0.54075 0.06634 0.41663 0.0
C609 C 0.49606 0.06289 0.42233 0.0
C610 C 0.5538 0.07004 0.39031 0.0
C611 C 0.52141 0.07067 0.36934 0.0
C612 C 0.47654 0.06843 0.37523 0.0
C613 C 0.46438 0.06426 0.4016 0.0
C614 C 0.60189 0.07219 0.38482 0.0
C615 C 0.44099 0.06929 0.35356 0.0
C616 C 0.55248 0.10631 0.3008 0.0
C617 C 0.54521 0.0686 0.28546 0.0
C618 C 0.54715 0.10766 0.32845 0.0
C619 C 0.53312 0.07043 0.34096 0.0
C620 C 0.52711 0.03243 0.32581 0.0
C621 C 0.5341 0.03204 0.29849 0.0
C622 C 0.55486 0.14885 0.34405 0.0
C623 C 0.51147 0.99195 0.33822 0.0
H624 H 0.56519 0.06501 0.43259 0.0
H625 H 0.42985 0.06195 0.40599 0.0
H626 H 0.60267 0.04447 0.37206 0.0
H627 H 0.61638 0.09936 0.37367 0.0
H628 H 0.62363 0.07408 0.40348 0.0
H629 H 0.40842 0.06978 0.36169 0.0
H630 H 0.45272 0.09677 0.3422 0.0
H631 H 0.43505 0.04174 0.3392 0.0
H632 H 0.56084 0.13481 0.29112 0.0
H633 H 0.52991 1.00273 0.28722 0.0
H634 H 0.57695 0.1506 0.36252 0.0
H635 H 0.5222 0.15256 0.35027 0.0
H636 H 0.5705 0.17488 0.33217 0.0
H637 H 0.53455 0.99124 0.35577 0.0
H638 H 0.50971 0.9651 0.32389 0.0
H639 H 0.47746 0.98861 0.34545 0.0
C640 C 0.50657 0.59351 0.73348 0.0
C641 C 0.52581 0.56927 0.7494 0.0
C642 C 0.50258 0.58704 0.7053 0.0
C643 C 0.52017 0.55683 0.69248 0.0
C644 C 0.54012 0.53251 0.70856 0.0
C645 C 0.54182 0.53843 0.73675 0.0
C646 C 0.47934 0.61255 0.68923 0.0
C647 C 0.56101 0.50113 0.69602 0.0
C648 C 0.48036 0.51731 0.6194 0.0
C649 C 0.51358 0.54265 0.60526 0.0
C650 C 0.48198 0.52158 0.64762 0.0
C651 C 0.51829 0.55131 0.66233 0.0
C652 C 0.55235 0.57646 0.64811 0.0
C653 C 0.5493 0.57219 0.61987 0.0
C654 C 0.44444 0.49454 0.66167 0.0
C655 C 0.59239 0.60772 0.66275 0.0
H656 H 0.49391 0.61721 0.74313 0.0
H657 H 0.5572 0.51987 0.74894 0.0
H658 H 0.50362 0.63201 0.6767 0.0
H659 H 0.45178 0.59209 0.67552 0.0
H660 H 0.4649 0.63283 0.70213 0.0
H661 H 0.57388 0.48375 0.71115 0.0
H662 H 0.53607 0.47894 0.68171 0.0
H663 H 0.58946 0.51689 0.68451 0.0
H664 H 0.4526 0.49447 0.6083 0.0
H665 H 0.57543 0.59151 0.60916 0.0
H666 H 0.42861 0.51392 0.67433 0.0
H667 H 0.45824 0.47545 0.6751 0.0
H668 H 0.41795 0.47378 0.64742 0.0
H669 H 0.58089 0.63109 0.67469 0.0
H670 H 0.61691 0.62374 0.64892 0.0
H671 H 0.60997 0.59235 0.67692 0.0
C672 C 0.47263 0.05235 0.58704 0.0
C673 C 0.5153 0.07584 0.58136 0.0
C674 C 0.4647 0.03868 0.61243 0.0
C675 C 0.50064 0.0488 0.63249 0.0
C676 C 0.54378 0.07338 0.62706 0.0
C677 C 0.55052 0.08694 0.60149 0.0
C678 C 0.41794 1.01365 0.61779 0.0
C679 C 0.58293 0.08483 0.64811 0.0
C680 C 0.48323 0.05498 0.70568 0.0
C681 C 0.49321 1.01915 0.71384 0.0
C682 C 0.48218 0.06333 0.67891 0.0
C683 C 0.49276 0.03597 0.65972 0.0
C684 C 0.49984 0.9985 0.66718 0.0
C685 C 0.49909 0.99013 0.69416 0.0
C686 C 0.47348 0.10327 0.67157 0.0
C687 C 0.51134 0.96872 0.64698 0.0
H688 H 0.44544 0.0446 0.57163 0.0
H689 H 0.58374 0.10481 0.59698 0.0
H690 H 0.41926 0.98394 0.62539 0.0
H691 H 0.40438 0.0304 0.6335 0.0
H692 H 0.39414 1.0072 0.59962 0.0
H693 H 0.61469 0.10269 0.64026 0.0
H694 H 0.57513 0.10351 0.66517 0.0
H695 H 0.58853 0.0566 0.65597 0.0
H696 H 0.47947 0.07856 0.72017 0.0
H697 H 0.50563 0.96191 0.69994 0.0
H698 H 0.44961 0.09798 0.65354 0.0
H699 H 0.50554 0.125 0.66682 0.0
H700 H 0.45951 0.11818 0.68807 0.0
H701 H 0.48562 0.96057 0.62977 0.0
H702 H 0.51365 0.93999 0.65573 0.0
H703 H 0.5442 0.98353 0.6391 0.0
C704 C 0.48614 0.52306 0.92204 0.0
C705 C 0.52359 0.53865 0.90743 0.0
C706 C 0.48747 0.53316 0.94968 0.0
C707 C 0.52732 0.5595 0.96322 0.0
C708 C 0.56517 0.57579 0.94854 0.0
C709 C 0.56282 0.56527 0.92078 0.0
C710 C 0.4463 0.51513 0.96447 0.0
C711 C 0.60832 0.60384 0.96223 0.0
C712 C 0.51242 0.60767 0.03166 0.0
C713 C 0.52575 0.58144 0.04887 0.0
C714 C 0.5145 0.60196 0.0038 0.0
C715 C 0.52938 0.56872 0.99286 0.0
C716 C 0.54335 0.54248 0.01027 0.0
C717 C 0.54162 0.54932 0.038 0.0
C718 C 0.50008 0.63108 0.98604 0.0
C719 C 0.5588 0.50632 -0.00042 0.0
H720 H 0.45559 0.50269 0.91185 0.0
H721 H 0.59186 0.57747 0.90959 0.0
H722 H 0.45477 0.4961 0.98006 0.0
H723 H 0.43513 0.54017 0.97479 0.0
H724 H 0.41771 0.49568 0.95097 0.0
H725 H 0.63409 0.61526 0.9479 0.0
H726 H 0.60133 0.63065 0.9732 0.0
H727 H 0.6226 0.58718 0.97719 0.0
H728 H 0.50059 0.63278 0.04002 0.0
H729 H 0.55163 0.52879 0.05125 0.0
H730 H 0.46946 0.61417 0.97316 0.0
H731 H 0.52691 0.64374 0.97262 0.0
H732 H 0.49256 0.65708 -0.0023 0.0
H733 H 0.5303 0.48368 0.98776 0.0
H734 H 0.57138 0.49055 0.01579 0.0
H735 H 0.58601 0.51656 0.98597 0.0
C736 C 1.01349 0.58023 0.2396 0.0
C737 C 0.05608 0.59928 0.23122 0.0
C738 C 1.00831 0.57023 0.26618 0.0
C739 C 0.04643 0.58111 0.28495 0.0
C740 C 0.08973 0.59952 0.27626 0.0
C741 C 0.0941 0.6078 0.24934 0.0
C742 C 0.96182 0.54947 0.27436 0.0
C743 C 0.1311 0.61243 0.29568 0.0
C744 C 0.03083 0.60878 0.35748 0.0
C745 C 0.03648 0.57452 0.36996 0.0
C746 C 0.03256 0.61059 0.32976 0.0
C747 C 0.04059 0.57744 0.31406 0.0
C748 C 0.04496 0.54211 0.32645 0.0
C749 C 0.04259 0.54097 0.35433 0.0
C750 C 0.02726 0.64867 0.31743 0.0
C751 C 0.05339 0.50612 0.31039 0.0
H752 H 0.98421 0.5734 0.22537 0.0
H753 H 0.12696 0.6227 0.2427 0.0
H754 H 0.96275 0.52316 0.28623 0.0
H755 H 0.94989 0.57158 0.28722 0.0
H756 H 0.937 0.53808 0.25681 0.0
H757 H 0.16256 0.62418 0.28551 0.0
H758 H 0.1278 0.63703 0.31046 0.0
H759 H 0.13424 0.58614 0.30697 0.0
H760 H 0.02579 0.63459 0.36959 0.0
H761 H 0.0472 0.51457 0.36403 0.0
H762 H 0.99968 0.64013 0.30123 0.0
H763 H 0.05875 0.66406 0.30831 0.0
H764 H 0.01964 0.67108 0.33229 0.0
H765 H 0.02661 0.49459 0.2939 0.0
H766 H 0.05442 0.48039 0.32283 0.0
H767 H 0.08596 0.51615 0.30112 0.0
loop_
_geom_bond_atom_site_label_1
_geom_bond_atom_site_label_2
_geom_bond_distance
_geom_bond_site_symmetry_2
_ccdc_geom_bond_type
Pr0 C2 2.880 1_455 S
Pr0 O20 2.562 1_455 S
Pr0 O21 2.490 1_455 S
Pr0 O22 2.695 . S
Pr0 O23 2.512 . S
Pr0 O25 2.437 1_455 S
Pr0 O28 2.436 . S
Pr0 O30 2.438 . S
Pr1 C11 2.880 . S
Pr1 O22 2.436 . S
Pr1 O24 2.438 1_455 S
Pr1 O26 2.562 . S
Pr1 O27 2.490 . S
Pr1 O28 2.695 . S
Pr1 O29 2.512 . S
Pr1 O31 2.437 . S
C2 Pr0 2.880 1_655 S
C2 C3 1.491 . S
C2 O20 1.254 . S
C2 O21 1.225 . S
C3 C2 1.491 . S
C3 C4 1.392 . S
C3 C8 1.356 . S
C4 C3 1.392 . S
C4 C5 1.368 . S
C4 H32 0.929 . S
C5 C4 1.368 . S
C5 C6 1.386 . S
C5 H33 0.929 . S
C6 C5 1.386 . S
C6 C7 1.373 . S
C7 C6 1.373 . S
C7 C8 1.409 . S
C7 H34 0.931 . S
C8 C3 1.356 . S
C8 C7 1.409 . S
C8 H35 0.930 . S
C9 O22 1.270 . S
C9 O23 1.248 . S
C10 O24 1.267 . S
C10 O25 1.278 . S
C11 Pr1 2.880 . S
C11 C12 1.491 . S
C11 O26 1.254 . S
C11 O27 1.225 . S
C12 C11 1.491 . S
C12 C13 1.392 . S
C12 C17 1.356 . S
C13 C12 1.392 . S
C13 C14 1.368 . S
C13 H36 0.929 . S
C14 C13 1.368 . S
C14 C15 1.386 . S
C14 H37 0.929 . S
C15 C14 1.386 . S
C15 C16 1.373 . S
C16 C15 1.373 . S
C16 C17 1.409 . S
C16 H38 0.931 . S
C17 C12 1.356 . S
C17 C16 1.409 . S
C17 H39 0.930 . S
C18 O28 1.270 . S
C18 O29 1.248 . S
C19 O30 1.267 . S
C19 O31 1.278 . S
O20 Pr0 2.562 1_655 S
O20 C2 1.254 . S
O21 Pr0 2.490 1_655 S
O21 C2 1.225 . S
O22 Pr0 2.695 . S
O22 Pr1 2.436 . S
O22 C9 1.270 . S
O23 Pr0 2.512 . S
O23 C9 1.248 . S
O24 Pr1 2.438 1_655 S
O24 C10 1.267 . S
O25 Pr0 2.437 1_655 S
O25 C10 1.278 . S
O26 Pr1 2.562 . S
O26 C11 1.254 . S
O27 Pr1 2.490 . S
O27 C11 1.225 . S
O28 Pr0 2.436 . S
O28 Pr1 2.695 . S
O28 C18 1.270 . S
O29 Pr1 2.512 . S
O29 C18 1.248 . S
O30 Pr0 2.438 . S
O30 C19 1.267 . S
O31 Pr1 2.437 . S
O31 C19 1.278 . S
H32 C4 0.929 . S
H33 C5 0.929 . S
H34 C7 0.931 . S
H35 C8 0.930 . S
H36 C13 0.929 . S
H37 C14 0.929 . S
H38 C16 0.931 . S
H39 C17 0.930 . S
Pr40 C42 2.880 . S
Pr40 O60 2.562 . S
Pr40 O61 2.490 . S
Pr40 O62 2.695 . S
Pr40 O63 2.512 . S
Pr40 O65 2.437 . S
Pr40 O68 2.436 . S
Pr40 O70 2.438 1_545 S
Pr41 C51 2.880 1_545 S
Pr41 O62 2.436 . S
Pr41 O64 2.438 . S
Pr41 O66 2.562 1_545 S
Pr41 O67 2.490 1_545 S
Pr41 O68 2.695 . S
Pr41 O69 2.512 . S
Pr41 O71 2.437 1_545 S
C42 Pr40 2.880 . S
C42 C43 1.491 . S
C42 O60 1.254 . S
C42 O61 1.225 . S
C43 C42 1.491 . S
C43 C44 1.392 . S
C43 C48 1.356 . S
C44 C43 1.392 . S
C44 C45 1.368 . S
C44 H72 0.929 . S
C45 C44 1.368 . S
C45 C46 1.386 . S
C45 H73 0.929 . S
C46 C45 1.386 . S
C46 C47 1.373 . S
C47 C46 1.373 . S
C47 C48 1.409 . S
C47 H74 0.931 . S
C48 C43 1.356 . S
C48 C47 1.409 . S
C48 H75 0.930 . S
C49 O62 1.270 . S
C49 O63 1.248 . S
C50 O64 1.267 . S
C50 O65 1.278 . S
C51 Pr41 2.880 1_565 S
C51 C52 1.491 . S
C51 O66 1.254 . S
C51 O67 1.225 . S
C52 C51 1.491 . S
C52 C53 1.392 . S
C52 C57 1.356 . S
C53 C52 1.392 . S
C53 C54 1.368 . S
C53 H76 0.929 . S
C54 C53 1.368 . S
C54 C55 1.386 . S
C54 H77 0.929 . S
C55 C54 1.386 . S
C55 C56 1.373 . S
C56 C55 1.373 . S
C56 C57 1.409 . S
C56 H78 0.931 . S
C57 C52 1.356 . S
C57 C56 1.409 . S
C57 H79 0.930 . S
C58 O68 1.270 . S
C58 O69 1.248 . S
C59 O70 1.267 . S
C59 O71 1.278 . S
O60 Pr40 2.562 . S
O60 C42 1.254 . S
O61 Pr40 2.490 . S
O61 C42 1.225 . S
O62 Pr40 2.695 . S
O62 Pr41 2.436 . S
O62 C49 1.270 . S
O63 Pr40 2.512 . S
O63 C49 1.248 . S
O64 Pr41 2.438 . S
O64 C50 1.267 . S
O65 Pr40 2.437 . S
O65 C50 1.278 . S
O66 Pr41 2.562 1_565 S
O66 C51 1.254 . S
O67 Pr41 2.490 1_565 S
O67 C51 1.225 . S
O68 Pr40 2.436 . S
O68 Pr41 2.695 . S
O68 C58 1.270 . S
O69 Pr41 2.512 . S
O69 C58 1.248 . S
O70 Pr40 2.438 1_565 S
O70 C59 1.267 . S
O71 Pr41 2.437 1_565 S
O71 C59 1.278 . S
H72 C44 0.929 . S
H73 C45 0.929 . S
H74 C47 0.931 . S
H75 C48 0.930 . S
H76 C53 0.929 . S
H77 C54 0.929 . S
H78 C56 0.931 . S
H79 C57 0.930 . S
Pr80 C82 2.880 . S
Pr80 O100 2.562 . S
Pr80 O101 2.490 . S
Pr80 O102 2.695 . S
Pr80 O103 2.512 . S
Pr80 O105 2.437 . S
Pr80 O108 2.436 . S
Pr80 O110 2.438 . S
Pr81 C91 2.880 . S
Pr81 O102 2.436 . S
Pr81 O104 2.438 . S
Pr81 O106 2.562 . S
Pr81 O107 2.490 . S
Pr81 O108 2.695 . S
Pr81 O109 2.512 . S
Pr81 O111 2.437 . S
C82 Pr80 2.880 . S
C82 C83 1.491 . S
C82 O100 1.254 . S
C82 O101 1.225 . S
C83 C82 1.491 . S
C83 C84 1.392 . S
C83 C88 1.356 . S
C84 C83 1.392 . S
C84 C85 1.368 . S
C84 H112 0.929 . S
C85 C84 1.368 . S
C85 C86 1.386 . S
C85 H113 0.929 . S
C86 C85 1.386 . S
C86 C87 1.373 . S
C87 C86 1.373 . S
C87 C88 1.409 . S
C87 H114 0.931 . S
C88 C83 1.356 . S
C88 C87 1.409 . S
C88 H115 0.930 . S
C89 O102 1.270 . S
C89 O103 1.248 . S
C90 O104 1.267 . S
C90 O105 1.278 . S
C91 Pr81 2.880 . S
C91 C92 1.491 . S
C91 O106 1.254 . S
C91 O107 1.225 . S
C92 C91 1.491 . S
C92 C93 1.392 . S
C92 C97 1.356 . S
C93 C92 1.392 . S
C93 C94 1.368 . S
C93 H116 0.929 . S
C94 C93 1.368 . S
C94 C95 1.386 . S
C94 H117 0.929 . S
C95 C94 1.386 . S
C95 C96 1.373 . S
C96 C95 1.373 . S
C96 C97 1.409 . S
C96 H118 0.931 . S
C97 C92 1.356 . S
C97 C96 1.409 . S
C97 H119 0.930 . S
C98 O108 1.270 . S
C98 O109 1.248 . S
C99 O110 1.267 . S
C99 O111 1.278 . S
O100 Pr80 2.562 . S
O100 C82 1.254 . S
O101 Pr80 2.490 . S
O101 C82 1.225 . S
O102 Pr80 2.695 . S
O102 Pr81 2.436 . S
O102 C89 1.270 . S
O103 Pr80 2.512 . S
O103 C89 1.248 . S
O104 Pr81 2.438 . S
O104 C90 1.267 . S
O105 Pr80 2.437 . S
O105 C90 1.278 . S
O106 Pr81 2.562 . S
O106 C91 1.254 . S
O107 Pr81 2.490 . S
O107 C91 1.225 . S
O108 Pr80 2.436 . S
O108 Pr81 2.695 . S
O108 C98 1.270 . S
O109 Pr81 2.512 . S
O109 C98 1.248 . S
O110 Pr80 2.438 . S
O110 C99 1.267 . S
O111 Pr81 2.437 . S
O111 C99 1.278 . S
H112 C84 0.929 . S
H113 C85 0.929 . S
H114 C87 0.931 . S
H115 C88 0.930 . S
H116 C93 0.929 . S
H117 C94 0.929 . S
H118 C96 0.931 . S
H119 C97 0.930 . S
H120 C125 0.930 . S
H121 C128 0.930 . S
H122 C130 0.930 . S
H123 C124 1.016 . S
C124 H123 1.016 . S
C124 N131 1.286 . S
C125 H120 0.930 . S
C125 C126 1.397 . S
C125 C127 1.361 . S
C126 C125 1.397 . S
C126 C130 1.390 . S
C127 C125 1.361 . S
C127 C128 1.393 . S
C127 N131 1.413 . S
C128 H121 0.930 . S
C128 C127 1.393 . S
C128 C129 1.399 . S
C129 C128 1.399 . S
C129 C130 1.381 . S
C130 H122 0.930 . S
C130 C126 1.390 . S
C130 C129 1.381 . S
N131 C124 1.286 . S
N131 C127 1.413 . S
H132 C137 0.930 . S
H133 C140 0.930 . S
H134 C142 0.930 . S
H135 C136 1.016 . S
C136 H135 1.016 . S
C136 N143 1.286 . S
C137 H132 0.930 . S
C137 C138 1.397 . S
C137 C139 1.361 . S
C138 C137 1.397 . S
C138 C142 1.390 . S
C139 C137 1.361 . S
C139 C140 1.393 . S
C139 N143 1.413 . S
C140 H133 0.930 . S
C140 C139 1.393 . S
C140 C141 1.399 . S
C141 C140 1.399 . S
C141 C142 1.381 . S
C142 H134 0.930 . S
C142 C138 1.390 . S
C142 C141 1.381 . S
N143 C136 1.286 . S
N143 C139 1.413 . S
H144 C149 0.930 . S
H145 C152 0.930 . S
H146 C154 0.930 . S
H147 C148 1.016 . S
C148 H147 1.016 . S
C148 N155 1.286 . S
C149 H144 0.930 . S
C149 C150 1.397 . S
C149 C151 1.361 1_655 S
C150 C149 1.397 . S
C150 C154 1.390 . S
C151 C149 1.361 1_455 S
C151 C152 1.393 . S
C151 N155 1.413 . S
C152 H145 0.930 . S
C152 C151 1.393 . S
C152 C153 1.399 . S
C153 C152 1.399 . S
C153 C154 1.381 1_455 S
C154 H146 0.930 . S
C154 C150 1.390 . S
C154 C153 1.381 1_655 S
N155 C148 1.286 . S
N155 C151 1.413 . S
H156 C161 0.930 . S
H157 C164 0.930 . S
H158 C166 0.930 . S
H159 C160 1.016 . S
C160 H159 1.016 . S
C160 N167 1.286 . S
C161 H156 0.930 . S
C161 C162 1.397 . S
C161 C163 1.361 1_455 S
C162 C161 1.397 . S
C162 C166 1.390 . S
C163 C161 1.361 1_655 S
C163 C164 1.393 . S
C163 N167 1.413 . S
C164 H157 0.930 . S
C164 C163 1.393 . S
C164 C165 1.399 1_655 S
C165 C164 1.399 1_455 S
C165 C166 1.381 . S
C166 H158 0.930 . S
C166 C162 1.390 . S
C166 C165 1.381 . S
N167 C160 1.286 . S
N167 C163 1.413 . S
H168 C173 0.930 . S
H169 C176 0.938 . S
H170 C178 0.930 . S
H171 C172 1.016 . S
C172 H171 1.016 . S
C172 N179 1.286 . S
C173 H168 0.930 . S
C173 C174 1.397 . S
C173 C175 1.361 . S
C174 C173 1.397 . S
C174 C178 1.390 . S
C175 C173 1.361 . S
C175 C176 1.393 1_545 S
C175 N179 1.413 1_545 S
C176 H169 0.938 . S
C176 C175 1.393 1_565 S
C176 C177 1.391 1_565 S
C177 C176 1.391 1_545 S
C177 C178 1.381 . S
C178 H170 0.930 . S
C178 C174 1.390 . S
C178 C177 1.381 . S
N179 C172 1.286 . S
N179 C175 1.413 1_565 S
H180 C185 0.930 . S
H181 C188 0.930 . S
H182 C190 0.930 . S
H183 C184 1.016 . S
C184 H183 1.016 . S
C184 N191 1.286 . S
C185 H180 0.930 . S
C185 C186 1.397 . S
C185 C187 1.361 . S
C186 C185 1.397 . S
C186 C190 1.390 . S
C187 C185 1.361 . S
C187 C188 1.393 . S
C187 N191 1.413 . S
C188 H181 0.930 . S
C188 C187 1.393 . S
C188 C189 1.399 . S
C189 C188 1.399 . S
C189 C190 1.381 . S
C190 H182 0.930 . S
C190 C186 1.390 . S
C190 C189 1.381 . S
N191 C184 1.286 . S
N191 C187 1.413 . S
C192 C193 1.391 . S
C192 C194 1.394 . S
C192 H208 0.931 . S
C193 C192 1.391 . S
C193 C197 1.376 . S
C194 C192 1.394 . S
C194 C195 1.369 . S
C194 C198 1.531 . S
C195 C194 1.369 . S
C195 C196 1.410 . S
C195 C203 1.503 . S
C196 C195 1.410 . S
C196 C197 1.392 . S
C196 C199 1.511 . S
C197 C193 1.376 . S
C197 C196 1.392 . S
C197 H209 0.929 . S
C198 C194 1.531 . S
C198 H210 0.960 . S
C198 H211 0.962 . S
C198 H212 0.960 . S
C199 C196 1.511 . S
C199 H213 0.961 . S
C199 H214 0.961 . S
C199 H215 0.961 . S
C200 C201 1.370 . S
C200 C202 1.363 . S
C200 H216 0.931 . S
C201 C200 1.370 . S
C201 C205 1.408 . S
C202 C200 1.363 . S
C202 C203 1.370 . S
C202 C206 1.524 . S
C203 C195 1.503 . S
C203 C202 1.370 . S
C203 C204 1.403 . S
C204 C203 1.403 . S
C204 C205 1.404 . S
C204 C207 1.539 . S
C205 C201 1.408 . S
C205 C204 1.404 . S
C205 H217 0.930 . S
C206 C202 1.524 . S
C206 H218 0.956 . S
C206 H219 0.961 . S
C206 H220 0.961 . S
C207 C204 1.539 . S
C207 H221 0.958 . S
C207 H222 0.961 . S
C207 H223 0.960 . S
H208 C192 0.931 . S
H209 C197 0.929 . S
H210 C198 0.960 . S
H211 C198 0.962 . S
H212 C198 0.960 . S
H213 C199 0.961 . S
H214 C199 0.961 . S
H215 C199 0.961 . S
H216 C200 0.931 . S
H217 C205 0.930 . S
H218 C206 0.956 . S
H219 C206 0.961 . S
H220 C206 0.961 . S
H221 C207 0.958 . S
H222 C207 0.961 . S
H223 C207 0.960 . S
C224 C225 1.391 . S
C224 C226 1.394 . S
C224 H240 0.931 . S
C225 C224 1.391 . S
C225 C229 1.376 . S
C226 C224 1.394 . S
C226 C227 1.369 . S
C226 C230 1.531 . S
C227 C226 1.369 . S
C227 C228 1.410 . S
C227 C235 1.503 . S
C228 C227 1.410 . S
C228 C229 1.392 . S
C228 C231 1.511 . S
C229 C225 1.376 . S
C229 C228 1.392 . S
C229 H241 0.929 . S
C230 C226 1.531 . S
C230 H242 0.960 . S
C230 H243 0.962 . S
C230 H244 0.960 . S
C231 C228 1.511 . S
C231 H245 0.961 . S
C231 H246 0.961 . S
C231 H247 0.961 . S
C232 C233 1.370 . S
C232 C234 1.363 . S
C232 H248 0.931 . S
C233 C232 1.370 . S
C233 C237 1.408 . S
C234 C232 1.363 . S
C234 C235 1.370 . S
C234 C238 1.524 . S
C235 C227 1.503 . S
C235 C234 1.370 . S
C235 C236 1.403 . S
C236 C235 1.403 . S
C236 C237 1.404 . S
C236 C239 1.539 . S
C237 C233 1.408 . S
C237 C236 1.404 . S
C237 H249 0.930 . S
C238 C234 1.524 . S
C238 H250 0.956 . S
C238 H251 0.961 . S
C238 H252 0.961 . S
C239 C236 1.539 . S
C239 H253 0.958 . S
C239 H254 0.961 . S
C239 H255 0.960 . S
H240 C224 0.931 . S
H241 C229 0.929 . S
H242 C230 0.960 . S
H243 C230 0.962 . S
H244 C230 0.960 . S
H245 C231 0.961 . S
H246 C231 0.961 . S
H247 C231 0.961 . S
H248 C232 0.931 . S
H249 C237 0.930 . S
H250 C238 0.956 . S
H251 C238 0.961 . S
H252 C238 0.961 . S
H253 C239 0.958 . S
H254 C239 0.961 . S
H255 C239 0.960 . S
C256 C257 1.391 . S
C256 C258 1.394 . S
C256 H272 0.931 . S
C257 C256 1.391 . S
C257 C261 1.376 . S
C258 C256 1.394 . S
C258 C259 1.369 . S
C258 C262 1.531 . S
C259 C258 1.369 . S
C259 C260 1.410 . S
C259 C267 1.503 . S
C260 C259 1.410 . S
C260 C261 1.392 . S
C260 C263 1.511 . S
C261 C257 1.376 . S
C261 C260 1.392 . S
C261 H273 0.929 . S
C262 C258 1.531 . S
C262 H274 0.960 . S
C262 H275 0.962 . S
C262 H276 0.960 . S
C263 C260 1.511 . S
C263 H277 0.961 . S
C263 H278 0.961 . S
C263 H279 0.961 . S
C264 C265 1.370 . S
C264 C266 1.363 . S
C264 H280 0.931 . S
C265 C264 1.370 . S
C265 C269 1.408 . S
C266 C264 1.363 . S
C266 C267 1.370 . S
C266 C270 1.524 . S
C267 C259 1.503 . S
C267 C266 1.370 . S
C267 C268 1.403 . S
C268 C267 1.403 . S
C268 C269 1.404 . S
C268 C271 1.539 . S
C269 C265 1.408 . S
C269 C268 1.404 . S
C269 H281 0.930 . S
C270 C266 1.524 . S
C270 H282 0.956 . S
C270 H283 0.961 . S
C270 H284 0.961 . S
C271 C268 1.539 . S
C271 H285 0.958 . S
C271 H286 0.961 . S
C271 H287 0.960 . S
H272 C256 0.931 . S
H273 C261 0.929 . S
H274 C262 0.960 . S
H275 C262 0.962 . S
H276 C262 0.960 . S
H277 C263 0.961 . S
H278 C263 0.961 . S
H279 C263 0.961 . S
H280 C264 0.931 . S
H281 C269 0.930 . S
H282 C270 0.956 . S
H283 C270 0.961 . S
H284 C270 0.961 . S
H285 C271 0.958 . S
H286 C271 0.961 . S
H287 C271 0.960 . S
C288 C289 1.391 . S
C288 C290 1.394 . S
C288 H304 0.931 . S
C289 C288 1.391 . S
C289 C293 1.376 . S
C290 C288 1.394 . S
C290 C291 1.369 . S
C290 C294 1.531 . S
C291 C290 1.369 . S
C291 C292 1.410 . S
C291 C299 1.503 . S
C292 C291 1.410 . S
C292 C293 1.392 . S
C292 C295 1.511 . S
C293 C289 1.376 . S
C293 C292 1.392 . S
C293 H305 0.929 . S
C294 C290 1.531 . S
C294 H306 0.960 . S
C294 H307 0.962 . S
C294 H308 0.960 . S
C295 C292 1.511 . S
C295 H309 0.961 . S
C295 H310 0.961 . S
C295 H311 0.961 . S
C296 C297 1.370 . S
C296 C298 1.363 . S
C296 H312 0.931 . S
C297 C296 1.370 . S
C297 C301 1.408 . S
C298 C296 1.363 . S
C298 C299 1.370 . S
C298 C302 1.524 . S
C299 C291 1.503 . S
C299 C298 1.370 . S
C299 C300 1.403 . S
C300 C299 1.403 . S
C300 C301 1.404 . S
C300 C303 1.539 . S
C301 C297 1.408 . S
C301 C300 1.404 . S
C301 H313 0.930 . S
C302 C298 1.524 . S
C302 H314 0.956 . S
C302 H315 0.961 . S
C302 H316 0.961 . S
C303 C300 1.539 . S
C303 H317 0.958 . S
C303 H318 0.961 . S
C303 H319 0.960 . S
H304 C288 0.931 . S
H305 C293 0.929 . S
H306 C294 0.960 . S
H307 C294 0.962 . S
H308 C294 0.960 . S
H309 C295 0.961 . S
H310 C295 0.961 . S
H311 C295 0.961 . S
H312 C296 0.931 . S
H313 C301 0.930 . S
H314 C302 0.956 . S
H315 C302 0.961 . S
H316 C302 0.961 . S
H317 C303 0.958 . S
H318 C303 0.961 . S
H319 C303 0.960 . S
C320 C321 1.391 . S
C320 C322 1.394 . S
C320 H336 0.931 . S
C321 C320 1.391 . S
C321 C325 1.376 . S
C322 C320 1.394 . S
C322 C323 1.369 . S
C322 C326 1.531 . S
C323 C322 1.369 . S
C323 C324 1.410 . S
C323 C331 1.503 . S
C324 C323 1.410 . S
C324 C325 1.392 . S
C324 C327 1.511 . S
C325 C321 1.376 . S
C325 C324 1.392 . S
C325 H337 0.929 . S
C326 C322 1.531 . S
C326 H338 0.960 . S
C326 H339 0.962 . S
C326 H340 0.960 . S
C327 C324 1.511 . S
C327 H341 0.961 . S
C327 H342 0.961 . S
C327 H343 0.961 . S
C328 C329 1.370 . S
C328 C330 1.363 . S
C328 H344 0.931 . S
C329 C328 1.370 . S
C329 C333 1.408 . S
C330 C328 1.363 . S
C330 C331 1.370 . S
C330 C334 1.524 . S
C331 C323 1.503 . S
C331 C330 1.370 . S
C331 C332 1.403 . S
C332 C331 1.403 . S
C332 C333 1.404 . S
C332 C335 1.539 . S
C333 C329 1.408 . S
C333 C332 1.404 . S
C333 H345 0.930 . S
C334 C330 1.524 . S
C334 H346 0.956 . S
C334 H347 0.961 . S
C334 H348 0.961 . S
C335 C332 1.539 . S
C335 H349 0.958 . S
C335 H350 0.961 . S
C335 H351 0.960 . S
H336 C320 0.931 . S
H337 C325 0.929 . S
H338 C326 0.960 . S
H339 C326 0.962 . S
H340 C326 0.960 . S
H341 C327 0.961 . S
H342 C327 0.961 . S
H343 C327 0.961 . S
H344 C328 0.931 . S
H345 C333 0.930 . S
H346 C334 0.956 . S
H347 C334 0.961 . S
H348 C334 0.961 . S
H349 C335 0.958 . S
H350 C335 0.961 . S
H351 C335 0.960 . S
C352 C353 1.391 . S
C352 C354 1.394 . S
C352 H368 0.931 . S
C353 C352 1.391 . S
C353 C357 1.376 . S
C354 C352 1.394 . S
C354 C355 1.369 . S
C354 C358 1.531 . S
C355 C354 1.369 . S
C355 C356 1.410 . S
C355 C363 1.503 . S
C356 C355 1.410 . S
C356 C357 1.392 . S
C356 C359 1.511 . S
C357 C353 1.376 . S
C357 C356 1.392 . S
C357 H369 0.929 . S
C358 C354 1.531 . S
C358 H370 0.960 . S
C358 H371 0.962 . S
C358 H372 0.960 . S
C359 C356 1.511 . S
C359 H373 0.961 . S
C359 H374 0.961 . S
C359 H375 0.961 . S
C360 C361 1.370 . S
C360 C362 1.363 . S
C360 H376 0.931 . S
C361 C360 1.370 . S
C361 C365 1.408 . S
C362 C360 1.363 . S
C362 C363 1.370 . S
C362 C366 1.524 . S
C363 C355 1.503 . S
C363 C362 1.370 . S
C363 C364 1.403 . S
C364 C363 1.403 . S
C364 C365 1.404 . S
C364 C367 1.539 . S
C365 C361 1.408 . S
C365 C364 1.404 . S
C365 H377 0.930 . S
C366 C362 1.524 . S
C366 H378 0.956 . S
C366 H379 0.961 . S
C366 H380 0.961 . S
C367 C364 1.539 . S
C367 H381 0.958 . S
C367 H382 0.961 . S
C367 H383 0.960 . S
H368 C352 0.931 . S
H369 C357 0.929 . S
H370 C358 0.960 . S
H371 C358 0.962 . S
H372 C358 0.960 . S
H373 C359 0.961 . S
H374 C359 0.961 . S
H375 C359 0.961 . S
H376 C360 0.931 . S
H377 C365 0.930 . S
H378 C366 0.956 . S
H379 C366 0.961 . S
H380 C366 0.961 . S
H381 C367 0.958 . S
H382 C367 0.961 . S
H383 C367 0.960 . S
C384 C385 1.391 . S
C384 C386 1.394 . S
C384 H400 0.931 . S
C385 C384 1.391 . S
C385 C389 1.376 . S
C386 C384 1.394 . S
C386 C387 1.369 . S
C386 C390 1.531 . S
C387 C386 1.369 . S
C387 C388 1.410 . S
C387 C395 1.503 . S
C388 C387 1.410 . S
C388 C389 1.392 . S
C388 C391 1.511 . S
C389 C385 1.376 . S
C389 C388 1.392 . S
C389 H401 0.929 . S
C390 C386 1.531 . S
C390 H402 0.960 . S
C390 H403 0.962 . S
C390 H404 0.960 . S
C391 C388 1.511 . S
C391 H405 0.961 . S
C391 H406 0.961 . S
C391 H407 0.961 . S
C392 C393 1.370 . S
C392 C394 1.363 . S
C392 H408 0.931 . S
C393 C392 1.370 . S
C393 C397 1.408 . S
C394 C392 1.363 . S
C394 C395 1.370 . S
C394 C398 1.524 . S
C395 C387 1.503 . S
C395 C394 1.370 . S
C395 C396 1.403 . S
C396 C395 1.403 . S
C396 C397 1.404 . S
C396 C399 1.539 . S
C397 C393 1.408 . S
C397 C396 1.404 . S
C397 H409 0.930 . S
C398 C394 1.524 . S
C398 H410 0.956 . S
C398 H411 0.961 . S
C398 H412 0.961 . S
C399 C396 1.539 . S
C399 H413 0.958 . S
C399 H414 0.961 . S
C399 H415 0.960 . S
H400 C384 0.931 . S
H401 C389 0.929 . S
H402 C390 0.960 . S
H403 C390 0.962 . S
H404 C390 0.960 . S
H405 C391 0.961 . S
H406 C391 0.961 . S
H407 C391 0.961 . S
H408 C392 0.931 . S
H409 C397 0.930 . S
H410 C398 0.956 . S
H411 C398 0.961 . S
H412 C398 0.961 . S
H413 C399 0.958 . S
H414 C399 0.961 . S
H415 C399 0.960 . S
C416 C417 1.391 . S
C416 C418 1.394 . S
C416 H432 0.931 . S
C417 C416 1.391 . S
C417 C421 1.376 . S
C418 C416 1.394 . S
C418 C419 1.369 . S
C418 C422 1.531 . S
C419 C418 1.369 . S
C419 C420 1.410 . S
C419 C427 1.503 . S
C420 C419 1.410 . S
C420 C421 1.392 . S
C420 C423 1.511 . S
C421 C417 1.376 . S
C421 C420 1.392 . S
C421 H433 0.929 . S
C422 C418 1.531 . S
C422 H434 0.960 . S
C422 H435 0.962 . S
C422 H436 0.960 . S
C423 C420 1.511 . S
C423 H437 0.961 . S
C423 H438 0.961 . S
C423 H439 0.961 . S
C424 C425 1.370 . S
C424 C426 1.363 . S
C424 H440 0.931 . S
C425 C424 1.370 . S
C425 C429 1.408 . S
C426 C424 1.363 . S
C426 C427 1.370 . S
C426 C430 1.524 . S
C427 C419 1.503 . S
C427 C426 1.370 . S
C427 C428 1.403 . S
C428 C427 1.403 . S
C428 C429 1.404 . S
C428 C431 1.539 . S
C429 C425 1.408 . S
C429 C428 1.404 . S
C429 H441 0.930 . S
C430 C426 1.524 . S
C430 H442 0.956 . S
C430 H443 0.961 . S
C430 H444 0.961 . S
C431 C428 1.539 . S
C431 H445 0.958 . S
C431 H446 0.961 . S
C431 H447 0.960 . S
H432 C416 0.931 . S
H433 C421 0.929 . S
H434 C422 0.960 . S
H435 C422 0.962 . S
H436 C422 0.960 . S
H437 C423 0.961 . S
H438 C423 0.961 . S
H439 C423 0.961 . S
H440 C424 0.931 . S
H441 C429 0.930 . S
H442 C430 0.956 . S
H443 C430 0.961 . S
H444 C430 0.961 . S
H445 C431 0.958 . S
H446 C431 0.961 . S
H447 C431 0.960 . S
C448 C449 1.391 . S
C448 C450 1.394 . S
C448 H464 0.931 . S
C449 C448 1.391 . S
C449 C453 1.376 . S
C450 C448 1.394 . S
C450 C451 1.369 . S
C450 C454 1.531 . S
C451 C450 1.369 . S
C451 C452 1.410 . S
C451 C459 1.503 . S
C452 C451 1.410 . S
C452 C453 1.392 . S
C452 C455 1.511 . S
C453 C449 1.376 . S
C453 C452 1.392 . S
C453 H465 0.929 . S
C454 C450 1.531 . S
C454 H466 0.960 . S
C454 H467 0.962 . S
C454 H468 0.960 . S
C455 C452 1.511 . S
C455 H469 0.961 . S
C455 H470 0.961 . S
C455 H471 0.961 . S
C456 C457 1.370 . S
C456 C458 1.363 . S
C456 H472 0.931 . S
C457 C456 1.370 . S
C457 C461 1.408 . S
C458 C456 1.363 . S
C458 C459 1.370 . S
C458 C462 1.524 . S
C459 C451 1.503 . S
C459 C458 1.370 . S
C459 C460 1.403 . S
C460 C459 1.403 . S
C460 C461 1.404 . S
C460 C463 1.539 . S
C461 C457 1.408 . S
C461 C460 1.404 . S
C461 H473 0.930 1_565 S
C462 C458 1.524 . S
C462 H474 0.956 . S
C462 H475 0.961 . S
C462 H476 0.961 . S
C463 C460 1.539 . S
C463 H477 0.958 . S
C463 H478 0.961 . S
C463 H479 0.960 . S
H464 C448 0.931 . S
H465 C453 0.929 . S
H466 C454 0.960 . S
H467 C454 0.962 . S
H468 C454 0.960 . S
H469 C455 0.961 . S
H470 C455 0.961 . S
H471 C455 0.961 . S
H472 C456 0.931 . S
H473 C461 0.930 1_545 S
H474 C462 0.956 . S
H475 C462 0.961 . S
H476 C462 0.961 . S
H477 C463 0.958 . S
H478 C463 0.961 . S
H479 C463 0.960 . S
C480 C481 1.391 . S
C480 C482 1.394 . S
C480 H496 0.931 . S
C481 C480 1.391 . S
C481 C485 1.376 . S
C482 C480 1.394 . S
C482 C483 1.369 . S
C482 C486 1.531 . S
C483 C482 1.369 . S
C483 C484 1.410 . S
C483 C491 1.503 . S
C484 C483 1.410 . S
C484 C485 1.392 . S
C484 C487 1.511 . S
C485 C481 1.376 . S
C485 C484 1.392 . S
C485 H497 0.929 . S
C486 C482 1.531 . S
C486 H498 0.960 . S
C486 H499 0.962 . S
C486 H500 0.960 . S
C487 C484 1.511 . S
C487 H501 0.961 . S
C487 H502 0.961 . S
C487 H503 0.961 . S
C488 C489 1.370 . S
C488 C490 1.363 . S
C488 H504 0.931 . S
C489 C488 1.370 . S
C489 C493 1.408 . S
C490 C488 1.363 . S
C490 C491 1.370 . S
C490 C494 1.524 . S
C491 C483 1.503 . S
C491 C490 1.370 . S
C491 C492 1.403 . S
C492 C491 1.403 . S
C492 C493 1.404 . S
C492 C495 1.539 . S
C493 C489 1.408 . S
C493 C492 1.404 . S
C493 H505 0.930 . S
C494 C490 1.524 . S
C494 H506 0.956 . S
C494 H507 0.961 . S
C494 H508 0.961 . S
C495 C492 1.539 . S
C495 H509 0.958 . S
C495 H510 0.961 . S
C495 H511 0.960 . S
H496 C480 0.931 . S
H497 C485 0.929 . S
H498 C486 0.960 . S
H499 C486 0.962 . S
H500 C486 0.960 . S
H501 C487 0.961 . S
H502 C487 0.961 . S
H503 C487 0.961 . S
H504 C488 0.931 . S
H505 C493 0.930 . S
H506 C494 0.956 . S
H507 C494 0.961 . S
H508 C494 0.961 . S
H509 C495 0.958 . S
H510 C495 0.961 . S
H511 C495 0.960 . S
C512 C513 1.391 . S
C512 C514 1.394 . S
C512 H528 0.931 . S
C513 C512 1.391 . S
C513 C517 1.376 . S
C514 C512 1.394 . S
C514 C515 1.369 . S
C514 C518 1.531 . S
C515 C514 1.369 . S
C515 C516 1.410 . S
C515 C523 1.503 . S
C516 C515 1.410 . S
C516 C517 1.392 . S
C516 C519 1.511 . S
C517 C513 1.376 . S
C517 C516 1.392 . S
C517 H529 0.929 . S
C518 C514 1.531 . S
C518 H530 0.960 . S
C518 H531 0.962 . S
C518 H532 0.960 . S
C519 C516 1.511 . S
C519 H533 0.961 . S
C519 H534 0.961 . S
C519 H535 0.961 . S
C520 C521 1.370 . S
C520 C522 1.363 . S
C520 H536 0.931 . S
C521 C520 1.370 . S
C521 C525 1.408 . S
C522 C520 1.363 . S
C522 C523 1.370 . S
C522 C526 1.524 . S
C523 C515 1.503 . S
C523 C522 1.370 . S
C523 C524 1.403 . S
C524 C523 1.403 . S
C524 C525 1.404 . S
C524 C527 1.539 . S
C525 C521 1.408 . S
C525 C524 1.404 . S
C525 H537 0.930 . S
C526 C522 1.524 . S
C526 H538 0.956 . S
C526 H539 0.961 . S
C526 H540 0.961 . S
C527 C524 1.539 . S
C527 H541 0.958 . S
C527 H542 0.961 . S
C527 H543 0.960 . S
H528 C512 0.931 . S
H529 C517 0.929 . S
H530 C518 0.960 . S
H531 C518 0.962 . S
H532 C518 0.960 . S
H533 C519 0.961 . S
H534 C519 0.961 . S
H535 C519 0.961 . S
H536 C520 0.931 . S
H537 C525 0.930 . S
H538 C526 0.956 . S
H539 C526 0.961 . S
H540 C526 0.961 . S
H541 C527 0.958 . S
H542 C527 0.961 . S
H543 C527 0.960 . S
C544 C545 1.391 . S
C544 C546 1.394 . S
C544 H560 0.931 . S
C545 C544 1.391 . S
C545 C549 1.376 . S
C546 C544 1.394 . S
C546 C547 1.369 . S
C546 C550 1.531 . S
C547 C546 1.369 . S
C547 C548 1.410 . S
C547 C555 1.503 . S
C548 C547 1.410 . S
C548 C549 1.392 . S
C548 C551 1.511 . S
C549 C545 1.376 . S
C549 C548 1.392 . S
C549 H561 0.929 . S
C550 C546 1.531 . S
C550 H562 0.960 . S
C550 H563 0.962 . S
C550 H564 0.960 . S
C551 C548 1.511 . S
C551 H565 0.961 . S
C551 H566 0.961 . S
C551 H567 0.961 . S
C552 C553 1.370 . S
C552 C554 1.363 . S
C552 H568 0.931 . S
C553 C552 1.370 . S
C553 C557 1.408 . S
C554 C552 1.363 . S
C554 C555 1.370 . S
C554 C558 1.524 . S
C555 C547 1.503 . S
C555 C554 1.370 . S
C555 C556 1.403 . S
C556 C555 1.403 . S
C556 C557 1.404 . S
C556 C559 1.539 . S
C557 C553 1.408 . S
C557 C556 1.404 . S
C557 H569 0.930 . S
C558 C554 1.524 . S
C558 H570 0.956 . S
C558 H571 0.961 . S
C558 H572 0.961 . S
C559 C556 1.539 . S
C559 H573 0.958 . S
C559 H574 0.961 . S
C559 H575 0.960 . S
H560 C544 0.931 . S
H561 C549 0.929 . S
H562 C550 0.960 . S
H563 C550 0.962 . S
H564 C550 0.960 . S
H565 C551 0.961 . S
H566 C551 0.961 . S
H567 C551 0.961 . S
H568 C552 0.931 . S
H569 C557 0.930 . S
H570 C558 0.956 . S
H571 C558 0.961 . S
H572 C558 0.961 . S
H573 C559 0.958 . S
H574 C559 0.961 . S
H575 C559 0.960 . S
C576 C577 1.391 . S
C576 C578 1.394 . S
C576 H592 0.931 . S
C577 C576 1.391 . S
C577 C581 1.376 . S
C578 C576 1.394 . S
C578 C579 1.369 . S
C578 C582 1.531 1_455 S
C579 C578 1.369 . S
C579 C580 1.410 . S
C579 C587 1.503 1_554 S
C580 C579 1.410 . S
C580 C581 1.392 . S
C580 C583 1.511 . S
C581 C577 1.376 . S
C581 C580 1.392 . S
C581 H593 0.929 . S
C582 C578 1.531 1_655 S
C582 H594 0.960 1_655 S
C582 H595 0.962 . S
C582 H596 0.960 . S
C583 C580 1.511 . S
C583 H597 0.961 . S
C583 H598 0.961 . S
C583 H599 0.961 . S
C584 C585 1.370 1_655 S
C584 C586 1.363 . S
C584 H600 0.931 . S
C585 C584 1.370 1_455 S
C585 C589 1.408 . S
C586 C584 1.363 . S
C586 C587 1.370 1_655 S
C586 C590 1.536 . S
C587 C579 1.503 1_556 S
C587 C586 1.370 1_455 S
C587 C588 1.403 . S
C588 C587 1.403 . S
C588 C589 1.404 . S
C588 C591 1.539 . S
C589 C585 1.408 . S
C589 C588 1.404 . S
C589 H601 0.930 . S
C590 C586 1.536 . S
C590 H602 0.947 1_556 S
C590 H603 0.948 1_556 S
C590 H604 0.970 . S
C591 C588 1.539 . S
C591 H605 0.958 . S
C591 H606 0.961 . S
C591 H607 0.960 1_556 S
H592 C576 0.931 . S
H593 C581 0.929 . S
H594 C582 0.960 1_455 S
H595 C582 0.962 . S
H596 C582 0.960 . S
H597 C583 0.961 . S
H598 C583 0.961 . S
H599 C583 0.961 . S
H600 C584 0.931 . S
H601 C589 0.930 . S
H602 C590 0.947 1_554 S
H603 C590 0.948 1_554 S
H604 C590 0.970 . S
H605 C591 0.958 . S
H606 C591 0.961 . S
H607 C591 0.960 1_554 S
C608 C609 1.391 . S
C608 C610 1.394 . S
C608 H624 0.931 . S
C609 C608 1.391 . S
C609 C613 1.376 . S
C610 C608 1.394 . S
C610 C611 1.369 . S
C610 C614 1.531 . S
C611 C610 1.369 . S
C611 C612 1.410 . S
C611 C619 1.503 . S
C612 C611 1.410 . S
C612 C613 1.392 . S
C612 C615 1.511 . S
C613 C609 1.376 . S
C613 C612 1.392 . S
C613 H625 0.929 . S
C614 C610 1.531 . S
C614 H626 0.960 . S
C614 H627 0.962 . S
C614 H628 0.960 . S
C615 C612 1.511 . S
C615 H629 0.961 . S
C615 H630 0.961 . S
C615 H631 0.961 . S
C616 C617 1.370 . S
C616 C618 1.363 . S
C616 H632 0.931 . S
C617 C616 1.370 . S
C617 C621 1.408 . S
C618 C616 1.363 . S
C618 C619 1.370 . S
C618 C622 1.524 . S
C619 C611 1.503 . S
C619 C618 1.370 . S
C619 C620 1.403 . S
C620 C619 1.403 . S
C620 C621 1.404 . S
C620 C623 1.539 1_545 S
C621 C617 1.408 . S
C621 C620 1.404 . S
C621 H633 0.930 1_545 S
C622 C618 1.524 . S
C622 H634 0.956 . S
C622 H635 0.961 . S
C622 H636 0.961 . S
C623 C620 1.539 1_565 S
C623 H637 0.958 . S
C623 H638 0.961 . S
C623 H639 0.960 . S
H624 C608 0.931 . S
H625 C613 0.929 . S
H626 C614 0.960 . S
H627 C614 0.962 . S
H628 C614 0.960 . S
H629 C615 0.961 . S
H630 C615 0.961 . S
H631 C615 0.961 . S
H632 C616 0.931 . S
H633 C621 0.930 1_565 S
H634 C622 0.956 . S
H635 C622 0.961 . S
H636 C622 0.961 . S
H637 C623 0.958 . S
H638 C623 0.961 . S
H639 C623 0.960 . S
C640 C641 1.391 . S
C640 C642 1.394 . S
C640 H656 0.931 . S
C641 C640 1.391 . S
C641 C645 1.376 . S
C642 C640 1.394 . S
C642 C643 1.369 . S
C642 C646 1.531 . S
C643 C642 1.369 . S
C643 C644 1.410 . S
C643 C651 1.503 . S
C644 C643 1.410 . S
C644 C645 1.392 . S
C644 C647 1.511 . S
C645 C641 1.376 . S
C645 C644 1.392 . S
C645 H657 0.929 . S
C646 C642 1.531 . S
C646 H658 0.960 . S
C646 H659 0.962 . S
C646 H660 0.960 . S
C647 C644 1.511 . S
C647 H661 0.961 . S
C647 H662 0.961 . S
C647 H663 0.961 . S
C648 C649 1.370 . S
C648 C650 1.363 . S
C648 H664 0.931 . S
C649 C648 1.370 . S
C649 C653 1.408 . S
C650 C648 1.363 . S
C650 C651 1.370 . S
C650 C654 1.524 . S
C651 C643 1.503 . S
C651 C650 1.370 . S
C651 C652 1.403 . S
C652 C651 1.403 . S
C652 C653 1.404 . S
C652 C655 1.539 . S
C653 C649 1.408 . S
C653 C652 1.404 . S
C653 H665 0.930 . S
C654 C650 1.524 . S
C654 H666 0.956 . S
C654 H667 0.961 . S
C654 H668 0.961 . S
C655 C652 1.539 . S
C655 H669 0.958 . S
C655 H670 0.961 . S
C655 H671 0.960 . S
H656 C640 0.931 . S
H657 C645 0.929 . S
H658 C646 0.960 . S
H659 C646 0.962 . S
H660 C646 0.960 . S
H661 C647 0.961 . S
H662 C647 0.961 . S
H663 C647 0.961 . S
H664 C648 0.931 . S
H665 C653 0.930 . S
H666 C654 0.956 . S
H667 C654 0.961 . S
H668 C654 0.961 . S
H669 C655 0.958 . S
H670 C655 0.961 . S
H671 C655 0.960 . S
C672 C673 1.391 . S
C672 C674 1.394 . S
C672 H688 0.931 . S
C673 C672 1.391 . S
C673 C677 1.376 . S
C674 C672 1.394 . S
C674 C675 1.369 . S
C674 C678 1.531 1_545 S
C675 C674 1.369 . S
C675 C676 1.410 . S
C675 C683 1.503 . S
C676 C675 1.410 . S
C676 C677 1.392 . S
C676 C679 1.511 . S
C677 C673 1.376 . S
C677 C676 1.392 . S
C677 H689 0.929 . S
C678 C674 1.531 1_565 S
C678 H690 0.960 . S
C678 H691 0.962 1_565 S
C678 H692 0.960 . S
C679 C676 1.511 . S
C679 H693 0.961 . S
C679 H694 0.961 . S
C679 H695 0.961 . S
C680 C681 1.370 . S
C680 C682 1.363 . S
C680 H696 0.931 . S
C681 C680 1.370 . S
C681 C685 1.408 1_545 S
C682 C680 1.363 . S
C682 C683 1.370 . S
C682 C686 1.524 . S
C683 C675 1.503 . S
C683 C682 1.370 . S
C683 C684 1.403 1_545 S
C684 C683 1.403 1_565 S
C684 C685 1.404 . S
C684 C687 1.539 . S
C685 C681 1.408 1_565 S
C685 C684 1.404 . S
C685 H697 0.930 . S
C686 C682 1.524 . S
C686 H698 0.956 . S
C686 H699 0.961 . S
C686 H700 0.961 . S
C687 C684 1.539 . S
C687 H701 0.958 . S
C687 H702 0.961 . S
C687 H703 0.960 . S
H688 C672 0.931 . S
H689 C677 0.929 . S
H690 C678 0.960 . S
H691 C678 0.962 1_545 S
H692 C678 0.960 . S
H693 C679 0.961 . S
H694 C679 0.961 . S
H695 C679 0.961 . S
H696 C680 0.931 . S
H697 C685 0.930 . S
H698 C686 0.956 . S
H699 C686 0.961 . S
H700 C686 0.961 . S
H701 C687 0.958 . S
H702 C687 0.961 . S
H703 C687 0.960 . S
C704 C705 1.391 . S
C704 C706 1.394 . S
C704 H720 0.931 . S
C705 C704 1.391 . S
C705 C709 1.376 . S
C706 C704 1.394 . S
C706 C707 1.369 . S
C706 C710 1.531 . S
C707 C706 1.369 . S
C707 C708 1.410 . S
C707 C715 1.503 1_556 S
C708 C707 1.410 . S
C708 C709 1.392 . S
C708 C711 1.511 . S
C709 C705 1.376 . S
C709 C708 1.392 . S
C709 H721 0.929 . S
C710 C706 1.531 . S
C710 H722 0.960 . S
C710 H723 0.962 . S
C710 H724 0.960 . S
C711 C708 1.511 . S
C711 H725 0.961 . S
C711 H726 0.980 . S
C711 H727 0.961 . S
C712 C713 1.370 . S
C712 C714 1.363 . S
C712 H728 0.931 . S
C713 C712 1.370 . S
C713 C717 1.408 . S
C714 C712 1.363 . S
C714 C715 1.370 . S
C714 C718 1.525 1_554 S
C715 C707 1.503 1_554 S
C715 C714 1.370 . S
C715 C716 1.403 . S
C716 C715 1.403 . S
C716 C717 1.404 . S
C716 C719 1.539 . S
C717 C713 1.408 . S
C717 C716 1.404 . S
C717 H729 0.930 . S
C718 C714 1.525 1_556 S
C718 H730 0.955 . S
C718 H731 0.960 . S
C718 H732 0.961 1_556 S
C719 C716 1.539 . S
C719 H733 0.958 . S
C719 H734 0.961 . S
C719 H735 0.967 . S
H720 C704 0.931 . S
H721 C709 0.929 . S
H722 C710 0.960 . S
H723 C710 0.962 . S
H724 C710 0.960 . S
H725 C711 0.961 . S
H726 C711 0.980 . S
H727 C711 0.961 . S
H728 C712 0.931 . S
H729 C717 0.930 . S
H730 C718 0.955 . S
H731 C718 0.960 . S
H732 C718 0.961 1_554 S
H733 C719 0.958 . S
H734 C719 0.961 . S
H735 C719 0.967 . S
C736 C737 1.391 1_655 S
C736 C738 1.394 . S
C736 H752 0.931 . S
C737 C736 1.391 1_455 S
C737 C741 1.376 . S
C738 C736 1.394 . S
C738 C739 1.369 1_655 S
C738 C742 1.531 . S
C739 C738 1.369 1_455 S
C739 C740 1.410 . S
C739 C747 1.503 . S
C740 C739 1.410 . S
C740 C741 1.392 . S
C740 C743 1.511 . S
C741 C737 1.376 . S
C741 C740 1.392 . S
C741 H753 0.929 . S
C742 C738 1.531 . S
C742 H754 0.960 . S
C742 H755 0.962 . S
C742 H756 0.960 . S
C743 C740 1.511 . S
C743 H757 0.961 . S
C743 H758 0.961 . S
C743 H759 0.961 . S
C744 C745 1.370 . S
C744 C746 1.363 . S
C744 H760 0.918 1_455 S
C745 C744 1.370 . S
C745 C749 1.408 . S
C746 C744 1.363 . S
C746 C747 1.370 . S
C746 C750 1.524 . S
C747 C739 1.503 . S
C747 C746 1.370 . S
C747 C748 1.403 . S
C748 C747 1.403 . S
C748 C749 1.404 . S
C748 C751 1.539 . S
C749 C745 1.408 . S
C749 C748 1.404 . S
C749 H761 0.930 . S
C750 C746 1.524 . S
C750 H762 0.956 1_455 S
C750 H763 0.961 . S
C750 H764 0.959 1_455 S
C751 C748 1.539 . S
C751 H765 0.958 . S
C751 H766 0.961 . S
C751 H767 0.960 . S
H752 C736 0.931 . S
H753 C741 0.929 . S
H754 C742 0.960 . S
H755 C742 0.962 . S
H756 C742 0.960 . S
H757 C743 0.961 . S
H758 C743 0.961 . S
H759 C743 0.961 . S
H760 C744 0.918 1_655 S
H761 C749 0.930 . S
H762 C750 0.956 1_655 S
H763 C750 0.961 . S
H764 C750 0.959 1_655 S
H765 C751 0.958 . S
H766 C751 0.961 . S
H767 C751 0.960 . S
C193 C19 2.109 . S
C201 C186 2.096 . S
C225 C46 1.296 . S
C233 C160 1.285 . S
C257 C95 0.633 . S
C265 C172 0.491 . S
C289 C10 1.747 . S
C297 C184 1.649 . S
C329 C162 1.170 . S
C321 C55 1.182 . S
C361 C174 0.361 . S
C353 C86 0.428 . S
C385 C59 3.154 . S
C393 C136 3.080 . S
C417 C90 2.164 . S
C425 C150 2.192 . S
C449 C15 1.144 . S
C457 C126 1.154 1_565 S
C489 C138 2.914 . S
C481 C50 2.927 . S
C521 C148 1.627 . S
C513 C99 1.683 . S
C545 C6 1.254 . S
C553 C124 1.260 . S
C585 C153 1.486 . S
C577 C9 1.442 . S
C609 C58 1.509 . S
C617 C129 1.539 . S
C641 C98 1.628 . S
C649 C141 1.753 . S
C681 C177 1.250 . S
C673 C49 1.183 . S
C713 C189 1.495 . S
C705 C89 1.430 . S
C737 C18 1.514 . S
C745 C165 1.520 . S
