# Generated by pormake.
# Topology eea, (3,6)-cn, num edge types: 1
# Building blocks:
#     Node 0, Type 0, BuildingBlock: BETDAH_clean_linker_0, # of connection points: 3
#     Node 1, Type 0, BuildingBlock: BETDAH_clean_linker_0, # of connection points: 3
#     Node 2, Type 0, BuildingBlock: BETDAH_clean_linker_0, # of connection points: 3
#     Node 3, Type 0, BuildingBlock: BETDAH_clean_linker_0, # of connection points: 3
#     Node 4, Type 0, BuildingBlock: BETDAH_clean_linker_0, # of connection points: 3
#     Node 5, Type 0, BuildingBlock: BETDAH_clean_linker_0, # of connection points: 3
#     Node 6, Type 0, BuildingBlock: BETDAH_clean_linker_0, # of connection points: 3
#     Node 7, Type 0, BuildingBlock: BETDAH_clean_linker_0, # of connection points: 3
#     Node 8, Type 0, BuildingBlock: BETDAH_clean_linker_0, # of connection points: 3
#     Node 9, Type 0, BuildingBlock: BETDAH_clean_linker_0, # of connection points: 3
#     Node 10, Type 0, BuildingBlock: BETDAH_clean_linker_0, # of connection points: 3
#     Node 11, Type 0, BuildingBlock: BETDAH_clean_linker_0, # of connection points: 3
#     Node 12, Type 0, BuildingBlock: BETDAH_clean_linker_0, # of connection points: 3
#     Node 13, Type 0, BuildingBlock: BETDAH_clean_linker_0, # of connection points: 3
#     Node 14, Type 0, BuildingBlock: BETDAH_clean_linker_0, # of connection points: 3
#     Node 15, Type 0, BuildingBlock: BETDAH_clean_linker_0, # of connection points: 3
#     Node 16, Type 0, BuildingBlock: BETDAH_clean_linker_0, # of connection points: 3
#     Node 17, Type 0, BuildingBlock: BETDAH_clean_linker_0, # of connection points: 3
#     Node 18, Type 1, BuildingBlock: CUKXOW_clean_sbu_0, # of connection points: 6
#     Node 19, Type 1, BuildingBlock: CUKXOW_clean_sbu_0, # of connection points: 6
#     Node 20, Type 1, BuildingBlock: CUKXOW_clean_sbu_0, # of connection points: 6
#     Node 21, Type 1, BuildingBlock: CUKXOW_clean_sbu_0, # of connection points: 6
#     Node 22, Type 1, BuildingBlock: CUKXOW_clean_sbu_0, # of connection points: 6
#     Node 23, Type 1, BuildingBlock: CUKXOW_clean_sbu_0, # of connection points: 6
#     Node 24, Type 1, BuildingBlock: CUKXOW_clean_sbu_0, # of connection points: 6
#     Node 25, Type 1, BuildingBlock: CUKXOW_clean_sbu_0, # of connection points: 6
#     Node 26, Type 1, BuildingBlock: CUKXOW_clean_sbu_0, # of connection points: 6
#     Edge 27, Type (0, 1), BuildingBlock: OJICUG_clean_linker_0, # of connection points: 2
#     Edge 28, Type (0, 1), BuildingBlock: OJICUG_clean_linker_0, # of connection points: 2
#     Edge 29, Type (0, 1), BuildingBlock: OJICUG_clean_linker_0, # of connection points: 2
#     Edge 30, Type (0, 1), BuildingBlock: OJICUG_clean_linker_0, # of connection points: 2
#     Edge 31, Type (0, 1), BuildingBlock: OJICUG_clean_linker_0, # of connection points: 2
#     Edge 32, Type (0, 1), BuildingBlock: OJICUG_clean_linker_0, # of connection points: 2
#     Edge 33, Type (0, 1), BuildingBlock: OJICUG_clean_linker_0, # of connection points: 2
#     Edge 34, Type (0, 1), BuildingBlock: OJICUG_clean_linker_0, # of connection points: 2
#     Edge 35, Type (0, 1), BuildingBlock: OJICUG_clean_linker_0, # of connection points: 2
#     Edge 36, Type (0, 1), BuildingBlock: OJICUG_clean_linker_0, # of connection points: 2
#     Edge 37, Type (0, 1), BuildingBlock: OJICUG_clean_linker_0, # of connection points: 2
#     Edge 38, Type (0, 1), BuildingBlock: OJICUG_clean_linker_0, # of connection points: 2
#     Edge 39, Type (0, 1), BuildingBlock: OJICUG_clean_linker_0, # of connection points: 2
#     Edge 40, Type (0, 1), BuildingBlock: OJICUG_clean_linker_0, # of connection points: 2
#     Edge 41, Type (0, 1), BuildingBlock: OJICUG_clean_linker_0, # of connection points: 2
#     Edge 42, Type (0, 1), BuildingBlock: OJICUG_clean_linker_0, # of connection points: 2
#     Edge 43, Type (0, 1), BuildingBlock: OJICUG_clean_linker_0, # of connection points: 2
#     Edge 44, Type (0, 1), BuildingBlock: OJICUG_clean_linker_0, # of connection points: 2
#     Edge 45, Type (0, 1), BuildingBlock: OJICUG_clean_linker_0, # of connection points: 2
#     Edge 46, Type (0, 1), BuildingBlock: OJICUG_clean_linker_0, # of connection points: 2
#     Edge 47, Type (0, 1), BuildingBlock: OJICUG_clean_linker_0, # of connection points: 2
#     Edge 48, Type (0, 1), BuildingBlock: OJICUG_clean_linker_0, # of connection points: 2
#     Edge 49, Type (0, 1), BuildingBlock: OJICUG_clean_linker_0, # of connection points: 2
#     Edge 50, Type (0, 1), BuildingBlock: OJICUG_clean_linker_0, # of connection points: 2
#     Edge 51, Type (0, 1), BuildingBlock: OJICUG_clean_linker_0, # of connection points: 2
#     Edge 52, Type (0, 1), BuildingBlock: OJICUG_clean_linker_0, # of connection points: 2
#     Edge 53, Type (0, 1), BuildingBlock: OJICUG_clean_linker_0, # of connection points: 2
#     Edge 54, Type (0, 1), BuildingBlock: OJICUG_clean_linker_0, # of connection points: 2
#     Edge 55, Type (0, 1), BuildingBlock: OJICUG_clean_linker_0, # of connection points: 2
#     Edge 56, Type (0, 1), BuildingBlock: OJICUG_clean_linker_0, # of connection points: 2
#     Edge 57, Type (0, 1), BuildingBlock: OJICUG_clean_linker_0, # of connection points: 2
#     Edge 58, Type (0, 1), BuildingBlock: OJICUG_clean_linker_0, # of connection points: 2
#     Edge 59, Type (0, 1), BuildingBlock: OJICUG_clean_linker_0, # of connection points: 2
#     Edge 60, Type (0, 1), BuildingBlock: OJICUG_clean_linker_0, # of connection points: 2
#     Edge 61, Type (0, 1), BuildingBlock: OJICUG_clean_linker_0, # of connection points: 2
#     Edge 62, Type (0, 1), BuildingBlock: OJICUG_clean_linker_0, # of connection points: 2
#     Edge 63, Type (0, 1), BuildingBlock: OJICUG_clean_linker_0, # of connection points: 2
#     Edge 64, Type (0, 1), BuildingBlock: OJICUG_clean_linker_0, # of connection points: 2
#     Edge 65, Type (0, 1), BuildingBlock: OJICUG_clean_linker_0, # of connection points: 2
#     Edge 66, Type (0, 1), BuildingBlock: OJICUG_clean_linker_0, # of connection points: 2
#     Edge 67, Type (0, 1), BuildingBlock: OJICUG_clean_linker_0, # of connection points: 2
#     Edge 68, Type (0, 1), BuildingBlock: OJICUG_clean_linker_0, # of connection points: 2
#     Edge 69, Type (0, 1), BuildingBlock: OJICUG_clean_linker_0, # of connection points: 2
#     Edge 70, Type (0, 1), BuildingBlock: OJICUG_clean_linker_0, # of connection points: 2
#     Edge 71, Type (0, 1), BuildingBlock: OJICUG_clean_linker_0, # of connection points: 2
#     Edge 72, Type (0, 1), BuildingBlock: OJICUG_clean_linker_0, # of connection points: 2
#     Edge 73, Type (0, 1), BuildingBlock: OJICUG_clean_linker_0, # of connection points: 2
#     Edge 74, Type (0, 1), BuildingBlock: OJICUG_clean_linker_0, # of connection points: 2
#     Edge 75, Type (0, 1), BuildingBlock: OJICUG_clean_linker_0, # of connection points: 2
#     Edge 76, Type (0, 1), BuildingBlock: OJICUG_clean_linker_0, # of connection points: 2
#     Edge 77, Type (0, 1), BuildingBlock: OJICUG_clean_linker_0, # of connection points: 2
#     Edge 78, Type (0, 1), BuildingBlock: OJICUG_clean_linker_0, # of connection points: 2
#     Edge 79, Type (0, 1), BuildingBlock: OJICUG_clean_linker_0, # of connection points: 2
#     Edge 80, Type (0, 1), BuildingBlock: OJICUG_clean_linker_0, # of connection points: 2
# Relax obj value: 0.033
# Max RMSD: 0.161
# Mean RMSD: 0.086
data_MOF--net-eea--node1-CUKXOW_clean_sbu_0--node2-BETDAH_clean_linker_0--edge1-OJICUG_clean_linker_0
_symmetry_space_group_name_H-M    P1
_symmetry_Int_Tables_number       1
_symmetry_cell_setting            triclinic
loop_
_symmetry_equiv_pos_as_xyz
'x, y, z'
_cell_length_a     44.782602
_cell_length_b     41.310281
_cell_length_c     35.182449
_cell_angle_alpha  93.441079
_cell_angle_beta   93.7644
_cell_angle_gamma 119.99656
loop_
_atom_site_label
_atom_site_type_symbol
_atom_site_fract_x
_atom_site_fract_y
_atom_site_fract_z
_atom_type_partial_charge
H0 H 0.25296 0.05602 0.47049 0.0
H1 H 0.26429 0.16622 0.46678 0.0
H2 H 0.22483 0.08671 0.36611 0.0
C3 C 0.2498 0.07656 0.45576 0.0
C4 C 0.23643 0.06705 0.41708 0.0
C5 C 0.26057 0.1125 0.4745 0.0
C6 C 0.25665 0.13853 0.45337 0.0
C7 C 0.24394 0.12908 0.41415 0.0
C8 C 0.23452 0.09373 0.39629 0.0
N9 N 0.2423 0.15497 0.39077 0.0
C10 C 0.23373 0.18177 0.40207 0.0
H11 H 0.9365 0.19939 0.48465 0.0
H12 H 0.84614 0.0887 0.45468 0.0
H13 H 0.93322 0.12592 0.39072 0.0
C14 C 0.92267 0.17274 0.4669 0.0
C15 C 0.93829 0.16664 0.43596 0.0
C16 C 0.88921 0.14473 0.47441 0.0
C17 C 0.87216 0.1102 0.45059 0.0
C18 C 0.88842 0.10364 0.42069 0.0
C19 C 0.92111 0.13167 0.41385 0.0
N20 N 0.87284 0.06961 0.39603 0.0
C21 C 0.84158 0.03756 0.39967 0.0
H22 H 0.82544 0.7275 0.48694 0.0
H23 H 0.89958 0.696 0.45665 0.0
H24 H 0.8545 0.73431 0.37198 0.0
C25 C 0.84044 0.72424 0.46565 0.0
C26 C 0.83712 0.73301 0.4282 0.0
C27 C 0.86241 0.71038 0.47589 0.0
C28 C 0.88267 0.70686 0.449 0.0
C29 C 0.88031 0.71647 0.41178 0.0
C30 C 0.85709 0.72864 0.40131 0.0
N31 N 0.89913 0.71136 0.38362 0.0
C32 C 0.93512 0.73191 0.3863 0.0
H33 H 0.07908 0.28254 0.54247 0.0
H34 H 0.17674 0.29143 0.58248 0.0
H35 H 0.09336 0.24808 0.65193 0.0
C36 C 0.09532 0.27871 0.56375 0.0
C37 C 0.08201 0.26449 0.59809 0.0
C38 C 0.12974 0.28884 0.55741 0.0
C39 C 0.14997 0.28285 0.58559 0.0
C40 C 0.13653 0.26805 0.61939 0.0
C41 C 0.10306 0.25935 0.62547 0.0
N42 N 0.15706 0.26484 0.64961 0.0
C43 C 0.17785 0.24914 0.64484 0.0
H44 H 0.75282 0.80044 0.56355 0.0
H45 H 0.75672 0.90668 0.58807 0.0
H46 H 0.80421 0.8693 0.66992 0.0
C47 C 0.76012 0.82557 0.58234 0.0
C48 C 0.77917 0.8315 0.61817 0.0
C49 C 0.75188 0.85268 0.57042 0.0
C50 C 0.76338 0.88587 0.59547 0.0
C51 C 0.78265 0.89188 0.63098 0.0
C52 C 0.7898 0.86451 0.64214 0.0
N53 N 0.79505 0.92476 0.65689 0.0
C54 C 0.79823 0.95854 0.64785 0.0
H55 H 0.21662 0.94576 0.56315 0.0
H56 H 0.12652 0.83465 0.55986 0.0
H57 H 0.16198 0.91162 0.66195 0.0
C58 C 0.19472 0.92473 0.57591 0.0
C59 C 0.19088 0.93326 0.61384 0.0
C60 C 0.17133 0.88951 0.55512 0.0
C61 C 0.1446 0.86235 0.57421 0.0
C62 C 0.1414 0.87024 0.61264 0.0
C63 C 0.16411 0.90589 0.63209 0.0
N64 N 0.1196 0.84057 0.63352 0.0
C65 C 0.08563 0.8308 0.63809 0.0
H66 H 0.9208 0.39575 0.79804 0.0
H67 H 0.94683 0.51151 0.79427 0.0
H68 H 0.90515 0.43388 0.69235 0.0
C69 C 0.92138 0.41818 0.78314 0.0
C70 C 0.90978 0.41037 0.74388 0.0
C71 C 0.9355 0.45475 0.80221 0.0
C72 C 0.93654 0.48319 0.78081 0.0
C73 C 0.92577 0.47555 0.74117 0.0
C74 C 0.91301 0.43942 0.72295 0.0
N75 N 0.9309 0.50443 0.71808 0.0
C76 C 0.91827 0.52865 0.72447 0.0
H77 H 0.61003 0.53157 0.80991 0.0
H78 H 0.50796 0.43867 0.76771 0.0
H79 H 0.58911 0.47681 0.69523 0.0
C80 C 0.59214 0.5104 0.78728 0.0
C81 C 0.60426 0.50696 0.75204 0.0
C82 C 0.55721 0.48595 0.79358 0.0
C83 C 0.53497 0.45736 0.7642 0.0
C84 C 0.54691 0.45396 0.72916 0.0
C85 C 0.58089 0.47924 0.72304 0.0
N86 N 0.52515 0.42612 0.6988 0.0
C87 C 0.49887 0.39036 0.70412 0.0
H88 H 0.4875 0.07259 0.82238 0.0
H89 H 0.55175 0.02402 0.8056 0.0
H90 H 0.54388 0.0926 0.72354 0.0
C91 C 0.50547 0.06904 0.80601 0.0
C92 C 0.51344 0.08505 0.77119 0.0
C93 C 0.51925 0.04714 0.81915 0.0
C94 C 0.54185 0.04197 0.7971 0.0
C95 C 0.5513 0.05904 0.76332 0.0
C96 C 0.53723 0.0806 0.75041 0.0
N97 N 0.5718 0.05055 0.74042 0.0
C98 C 0.60441 0.07763 0.73223 0.0
H99 H 0.75281 0.62569 0.88851 0.0
H100 H 0.85477 0.64507 0.92393 0.0
H101 H 0.77405 0.59263 0.99649 0.0
C102 C 0.77025 0.62308 0.90927 0.0
C103 C 0.75855 0.60721 0.94347 0.0
C104 C 0.80491 0.63693 0.90213 0.0
C105 C 0.82799 0.63439 0.92912 0.0
C106 C 0.81656 0.61835 0.96306 0.0
C107 C 0.78222 0.60513 0.97014 0.0
N108 N 0.83983 0.6178 0.99184 0.0
C109 C 0.85648 0.59741 0.98648 0.0
H110 H 0.43033 0.13875 0.88557 0.0
H111 H 0.43574 0.24492 0.91593 0.0
H112 H 0.47805 0.2004 0.99583 0.0
C113 C 0.43776 0.1632 0.90552 0.0
C114 C 0.4543 0.16604 0.94197 0.0
C115 C 0.43023 0.19126 0.89544 0.0
C116 C 0.44164 0.22329 0.92217 0.0
C117 C 0.4595 0.22682 0.958 0.0
C118 C 0.46493 0.19784 0.96782 0.0
N119 N 0.47174 0.25853 0.98556 0.0
C120 C 0.4745 0.2926 0.97853 0.0
H121 H 0.87892 0.28143 0.89124 0.0
H122 H 0.78533 0.17294 0.88738 0.0
H123 H 0.82649 0.24782 0.9914 0.0
C124 C 0.85687 0.26091 0.90425 0.0
C125 C 0.85445 0.26919 0.94273 0.0
C126 C 0.83185 0.22657 0.8831 0.0
C127 C 0.80459 0.19998 0.90219 0.0
C128 C 0.80292 0.20759 0.9413 0.0
C129 C 0.82759 0.2423 0.96116 0.0
N130 N 0.78049 0.17869 0.96263 0.0
C131 C 0.74464 0.1625 0.95894 0.0
H132 H 0.59939 0.73139 0.12552 0.0
H133 H 0.57289 0.81599 0.15685 0.0
H134 H 0.52506 0.74248 0.05278 0.0
C135 C 0.58545 0.74596 0.11938 0.0
C136 C 0.56205 0.73358 0.08596 0.0
C137 C 0.58929 0.7752 0.14597 0.0
C138 C 0.57129 0.79417 0.13669 0.0
C139 C 0.54856 0.78253 0.10267 0.0
C140 C 0.54372 0.75208 0.07807 0.0
N141 N 0.52611 0.79678 0.09522 0.0
C142 C 0.5366 0.83455 0.09475 0.0
H143 H 0.27186 0.86182 0.15761 0.0
H144 H 0.17273 0.76894 0.10714 0.0
H145 H 0.26057 0.81022 0.04372 0.0
C146 C 0.25567 0.84105 0.13384 0.0
C147 C 0.27063 0.83878 0.10064 0.0
C148 C 0.22015 0.81609 0.13667 0.0
C149 C 0.20012 0.78808 0.10597 0.0
C150 C 0.21505 0.78596 0.07272 0.0
C151 C 0.24976 0.81169 0.07002 0.0
N152 N 0.19574 0.75914 0.04074 0.0
C153 C 0.16871 0.72312 0.04352 0.0
H154 H 0.15801 0.40859 0.15387 0.0
H155 H 0.22333 0.36133 0.13723 0.0
H156 H 0.21355 0.42826 0.05442 0.0
C157 C 0.17604 0.40519 0.13748 0.0
C158 C 0.18344 0.4208 0.10238 0.0
C159 C 0.19026 0.38373 0.15079 0.0
C160 C 0.21314 0.37902 0.12873 0.0
C161 C 0.22226 0.3959 0.09473 0.0
C162 C 0.20742 0.4167 0.08156 0.0
N163 N 0.24239 0.38704 0.07148 0.0
C164 C 0.2749 0.41357 0.06232 0.0
H165 H 0.41633 0.95216 0.21141 0.0
H166 H 0.51639 0.96761 0.25286 0.0
H167 H 0.43314 0.92121 0.32203 0.0
C168 C 0.43331 0.94983 0.23301 0.0
C169 C 0.42047 0.93582 0.26762 0.0
C170 C 0.46815 0.96164 0.22685 0.0
C171 C 0.48929 0.95762 0.2556 0.0
C172 C 0.47634 0.94283 0.28951 0.0
C173 C 0.44242 0.93242 0.29541 0.0
N174 N 0.49784 0.94123 0.31976 0.0
C175 C 0.51736 0.92397 0.31515 0.0
H176 H 0.09275 0.46702 0.2178 0.0
H177 H 0.10261 0.5754 0.24864 0.0
H178 H 0.14138 0.5273 0.32825 0.0
C179 C 0.10072 0.49151 0.23791 0.0
C180 C 0.1167 0.49349 0.27436 0.0
C181 C 0.0947 0.52064 0.22795 0.0
C182 C 0.10717 0.55281 0.25483 0.0
C183 C 0.12463 0.55536 0.29065 0.0
C184 C 0.12843 0.52537 0.30032 0.0
N185 N 0.13844 0.58721 0.31826 0.0
C186 C 0.14193 0.62168 0.31188 0.0
H187 H 0.53524 0.61189 0.21949 0.0
H188 H 0.452 0.49679 0.21753 0.0
H189 H 0.48827 0.57115 0.32159 0.0
C190 C 0.51526 0.58932 0.23303 0.0
C191 C 0.51306 0.59606 0.27204 0.0
C192 C 0.49366 0.55353 0.21249 0.0
C193 C 0.46919 0.52464 0.23212 0.0
C194 C 0.46734 0.53108 0.2713 0.0
C195 C 0.48942 0.5666 0.29118 0.0
N196 N 0.44639 0.50075 0.29187 0.0
C197 C 0.41174 0.48889 0.29481 0.0
Tb198 Tb 0.54358 0.0346 0.02074 0.0
C199 C 0.52242 0.95733 0.05087 0.0
Tb200 Tb 0.46672 0.98265 0.03351 0.0
O201 O 0.55844 0.0405 0.08281 0.0
O202 O 0.5102 0.03102 0.06238 0.0
O203 O 0.54463 0.98355 0.03084 0.0
C204 C 0.40797 0.93854 0.06283 0.0
O205 O 0.49293 0.95517 0.05882 0.0
C206 C 0.47916 0.98238 0.96176 0.0
C207 C 0.48725 0.05871 1.00083 0.0
O208 O 0.42218 0.92744 0.03822 0.0
O209 O 0.42657 0.97481 0.07067 0.0
O210 O 0.44892 0.97296 0.97255 0.0
O211 O 0.49939 0.98664 0.9909 0.0
O212 O 0.46522 0.03282 0.02132 0.0
O213 O 0.51735 0.06172 0.99375 0.0
C214 C 0.60488 0.07806 0.99484 0.0
O215 O 0.59072 0.08944 0.01936 0.0
O216 O 0.58462 0.04228 0.98521 0.0
C217 C 0.52842 0.03352 0.09231 0.0
Tb218 Tb 0.9839 0.50583 0.01857 0.0
C219 C 0.06237 0.56791 0.02624 0.0
Tb220 Tb 0.03755 0.48002 0.01987 0.0
O221 O 1.00242 0.53 0.07837 0.0
O222 O 1.00401 0.48251 0.05774 0.0
O223 O 0.03003 0.5599 0.01719 0.0
C224 C 0.08853 0.46739 0.04393 0.0
O225 O 0.07084 0.54154 0.03028 0.0
C226 C 0.00976 0.47951 0.95185 0.0
C227 C 0.95891 0.4184 0.00799 0.0
O228 O 0.07077 0.47605 0.06575 0.0
O229 O 0.07743 0.46553 0.00836 0.0
O230 O 0.02096 0.4568 0.95969 0.0
O231 O 0.01735 0.50307 0.98053 0.0
O232 O 0.99058 0.42594 0.02083 0.0
O233 O 0.95128 0.44512 1.00213 0.0
C234 C 0.93539 0.52383 1.00111 0.0
O235 O 0.93848 0.50944 0.03193 0.0
O236 O 0.95922 0.52738 0.97979 0.0
C237 C 0.01252 0.50646 0.08625 0.0
Tb238 Tb 0.47547 0.50191 0.99739 0.0
C239 C 0.50088 0.44389 0.98901 0.0
Tb240 Tb 0.55388 0.53289 0.9963 0.0
O241 O 0.46637 0.47857 0.93738 0.0
O242 O 0.51282 0.52728 0.9583 0.0
O243 O 0.47565 0.44962 0.99891 0.0
C244 C 0.61739 0.55287 0.978 0.0
O245 O 0.53235 0.47189 0.98415 0.0
C246 C 0.53274 0.53194 0.06397 0.0
C247 C 0.52882 0.59066 0.00811 0.0
O248 O 0.59124 0.54625 0.95397 0.0
O249 O 0.60767 0.54786 0.01213 0.0
O250 O 0.56338 0.55653 0.05602 0.0
O251 O 0.51674 0.50773 0.03546 0.0
O252 O 0.55366 0.58539 0.99581 0.0
O253 O 0.49751 0.56235 0.01269 0.0
C254 C 0.413 0.4822 0.01949 0.0
O255 O 0.42235 0.49157 0.98576 0.0
O256 O 0.4388 0.48403 0.04052 0.0
C257 C 0.49717 0.5032 0.92963 0.0
Tb258 Tb 0.20983 0.36795 0.35406 0.0
C259 C 0.19077 0.28816 0.37716 0.0
Tb260 Tb 0.13305 0.31141 0.36304 0.0
O261 O 0.22248 0.37085 0.41605 0.0
O262 O 0.17408 0.36044 0.39409 0.0
O263 O 0.2136 0.3186 0.36236 0.0
C264 C 0.07226 0.26791 0.38926 0.0
O265 O 0.15871 0.28063 0.3818 0.0
C266 C 0.14851 0.31598 0.29219 0.0
C267 C 0.15192 0.38884 0.33407 0.0
O268 O 0.09937 0.29543 0.40945 0.0
O269 O 0.07961 0.26462 0.35472 0.0
O270 O 0.11762 0.30497 0.30182 0.0
O271 O 0.16807 0.31959 0.32178 0.0
O272 O 0.13034 0.36169 0.35378 0.0
O273 O 0.18292 0.39418 0.32772 0.0
C274 C 0.27159 0.41246 0.33006 0.0
O275 O 0.25845 0.42239 0.35716 0.0
O276 O 0.24999 0.37785 0.31681 0.0
C277 C 0.19171 0.36226 0.42429 0.0
Tb278 Tb 0.64457 0.8328 0.35668 0.0
C279 C 0.72372 0.88929 0.37328 0.0
Tb280 Tb 0.69325 0.80078 0.3627 0.0
O281 O 0.66019 0.85609 0.41706 0.0
O282 O 0.66026 0.80746 0.39845 0.0
O283 O 0.6938 0.88442 0.3577 0.0
C284 C 0.7395 0.78099 0.38473 0.0
O285 O 0.72795 0.86072 0.38141 0.0
C286 C 0.67014 0.80177 0.29248 0.0
C287 C 0.61396 0.74446 0.3432 0.0
O288 O 0.74171 0.80099 0.35683 0.0
O289 O 0.71126 0.77216 0.40029 0.0
O290 O 0.67956 0.77815 0.30242 0.0
O291 O 0.67745 0.82577 0.32075 0.0
O292 O 0.64357 0.74875 0.35931 0.0
O293 O 0.60988 0.77337 0.33628 0.0
C294 C 0.59949 0.8548 0.33642 0.0
O295 O 0.59758 0.83512 0.36456 0.0
O296 O 0.62666 0.86182 0.31944 0.0
C297 C 0.66843 0.83152 0.4268 0.0
Tb298 Tb 0.14192 0.82896 0.34213 0.0
C299 C 0.16881 0.7728 0.32879 0.0
Tb300 Tb 0.21957 0.86195 0.33347 0.0
O301 O 0.12944 0.80503 0.28196 0.0
O302 O 0.17561 0.85485 0.29994 0.0
O303 O 0.144 0.77779 0.34149 0.0
C304 C 0.28199 0.88499 0.30925 0.0
O305 O 0.19939 0.80118 0.32202 0.0
C306 C 0.20413 0.86166 0.40417 0.0
C307 C 0.19283 0.9172 0.35089 0.0
O308 O 0.27547 0.88441 0.34464 0.0
O309 O 0.25316 0.87198 0.28719 0.0
O310 O 0.23351 0.88609 0.39325 0.0
O311 O 0.1862 0.83695 0.3765 0.0
O312 O 0.2155 0.91227 0.33251 0.0
O313 O 0.16409 0.88863 0.36097 0.0
C314 C 0.07887 0.80666 0.36349 0.0
O315 O 0.09099 0.82433 0.33383 0.0
O316 O 0.10248 0.80198 0.38147 0.0
C317 C 0.15874 0.83055 0.27185 0.0
Tb318 Tb 0.88198 0.71278 0.69553 0.0
C319 C 0.86643 0.62896 0.70269 0.0
Tb320 Tb 0.80543 0.64649 0.68833 0.0
O321 O 0.8794 0.72942 0.7557 0.0
O322 O 0.84785 0.67486 0.73067 0.0
O323 O 0.88907 0.66393 0.69613 0.0
C324 C 0.7419 0.60351 0.70889 0.0
O325 O 0.83308 0.61739 0.70553 0.0
C326 C 0.83467 0.66073 0.62443 0.0
C327 C 0.82154 0.73043 0.67646 0.0
O328 O 0.75592 0.59329 0.68301 0.0
O329 O 0.76341 0.63813 0.72261 0.0
O330 O 0.80798 0.62825 0.62901 0.0
O331 O 0.83967 0.68332 0.65286 0.0
O332 O 0.79806 0.69515 0.68169 0.0
O333 O 0.85536 0.74251 0.67812 0.0
C334 C 0.94589 0.75544 0.67574 0.0
O335 O 0.93454 0.76227 0.70659 0.0
O336 O 0.92139 0.72468 0.65654 0.0
C337 C 0.85307 0.69658 0.75988 0.0
Tb338 Tb 0.31559 0.17149 0.68719 0.0
C339 C 0.3938 0.23479 0.69417 0.0
Tb340 Tb 0.37032 0.14727 0.68896 0.0
O341 O 0.33389 0.19617 0.74693 0.0
O342 O 0.33649 0.14921 0.72668 0.0
O343 O 0.36118 0.22609 0.68557 0.0
C344 C 0.42166 0.13541 0.71303 0.0
O345 O 0.4029 0.20893 0.69836 0.0
C346 C 0.34188 0.14538 0.62081 0.0
C347 C 0.29206 0.08437 0.67789 0.0
O348 O 0.40416 0.14445 0.73486 0.0
O349 O 0.41019 0.1329 0.67746 0.0
O350 O 0.35366 0.12326 0.62904 0.0
O351 O 0.3492 0.16906 0.64927 0.0
O352 O 0.32399 0.09281 0.69081 0.0
O353 O 0.28376 0.11052 0.67157 0.0
C354 C 0.26596 0.18726 0.6679 0.0
O355 O 0.26933 0.17382 0.69932 0.0
O356 O 0.29026 0.19131 0.64713 0.0
C357 C 0.34466 0.1732 0.75505 0.0
Tb358 Tb 0.805 0.1705 0.66941 0.0
C359 C 0.82883 0.11127 0.65818 0.0
Tb360 Tb 0.88243 0.19995 0.6625 0.0
O361 O 0.79296 0.14614 0.60945 0.0
O362 O 0.83987 0.19487 0.62789 0.0
O363 O 0.80461 0.11787 0.66991 0.0
C364 C 0.94449 0.21969 0.6391 0.0
O365 O 0.86009 0.13866 0.65169 0.0
C366 C 0.86549 0.20016 0.73247 0.0
C367 C 0.85886 0.2585 0.67752 0.0
O368 O 0.9161 0.20823 0.6167 0.0
O369 O 0.93772 0.21941 0.6744 0.0
O370 O 0.89553 0.22401 0.72241 0.0
O371 O 0.84775 0.17592 0.70446 0.0
O372 O 0.88146 0.25202 0.66092 0.0
O373 O 0.82878 0.23092 0.68627 0.0
C374 C 0.74329 0.15146 0.6929 0.0
O375 O 0.75283 0.16288 0.65982 0.0
O376 O 0.76856 0.15102 0.71267 0.0
C377 C 0.8229 0.1707 0.59969 0.0
C378 C 0.327 0.8503 0.0797 0.0
C379 C 0.30784 0.86454 0.09682 0.0
H380 H 0.37362 0.86271 0.05548 0.0
C381 C 0.32355 0.90355 0.10665 0.0
H382 H 0.31592 0.82032 0.07264 0.0
C383 C 0.35696 0.92793 0.09711 0.0
C384 C 0.37489 0.91354 0.07754 0.0
H385 H 0.30939 0.9153 0.11987 0.0
H386 H 0.36809 0.95798 0.10352 0.0
C387 C 0.36006 0.87454 0.06995 0.0
C388 C 0.15286 0.45778 0.11053 0.0
C389 C 0.16317 0.43763 0.08623 0.0
H390 H 0.12091 0.48244 0.11627 0.0
C391 C 0.15073 0.43025 0.04701 0.0
H392 H 0.16241 0.46482 0.14069 0.0
C393 C 0.12744 0.44115 0.0329 0.0
C394 C 0.11573 0.45922 0.05776 0.0
H395 H 0.15762 0.41444 0.02742 0.0
H396 H 0.11751 0.43405 1.00283 0.0
C397 C 0.12916 0.46807 0.09654 0.0
C398 C 0.5192 0.6708 0.05058 0.0
C399 C 0.55393 0.69886 0.06161 0.0
H400 H 0.48403 0.61489 0.02461 0.0
C401 C 0.58042 0.69235 0.05126 0.0
H402 H 0.49817 0.67475 0.05847 0.0
C403 C 0.57229 0.65798 0.03153 0.0
C404 C 0.5375 0.62925 0.02218 0.0
H405 H 0.60741 0.71356 0.05912 0.0
H406 H 0.5933 0.65334 0.02529 0.0
C407 C 0.51109 0.63639 0.03123 0.0
C408 C 0.91589 0.31634 0.96757 0.0
C409 C 0.88072 0.30586 0.96361 0.0
H410 H 0.96817 0.35996 0.98568 0.0
C411 C 0.87109 0.33158 0.97723 0.0
H412 H 0.92384 0.29689 0.95719 0.0
C413 C 0.89644 0.3679 0.99294 0.0
C414 C 0.93178 0.37879 0.99607 0.0
H415 H 0.84409 0.32407 0.97424 0.0
H416 H 0.88843 0.38769 1.00189 0.0
C417 C 0.94116 0.35233 0.98405 0.0
C418 C 0.71471 0.59662 0.98977 0.0
C419 C 0.72205 0.59338 0.95186 0.0
H420 H 0.67596 0.58578 0.0276 0.0
C421 C 0.69421 0.5766 0.92241 0.0
H422 H 0.73529 0.61023 0.01319 0.0
C423 C 0.66009 0.56352 0.93075 0.0
C424 C 0.65309 0.56631 0.96872 0.0
H425 H 0.69861 0.57304 0.89296 0.0
H426 H 0.63918 0.55081 0.90757 0.0
C427 C 0.68064 0.58285 0.99811 0.0
C428 C 0.44622 0.11871 0.98714 0.0
C429 C 0.46012 0.13579 0.9543 0.0
H430 H 0.44367 0.08076 0.02738 0.0
C431 C 0.48198 0.12632 0.93584 0.0
H432 H 0.42934 0.12568 1.00186 0.0
C433 C 0.49085 0.1012 0.95093 0.0
C434 C 0.47747 0.08468 0.98431 0.0
H435 H 0.49313 0.13932 0.9106 0.0
H436 H 0.5082 0.09476 0.93651 0.0
C437 C 0.4545 0.09312 1.00176 0.0
C438 C 0.68642 0.10597 0.94685 0.0
C439 C 0.70797 0.14328 0.96291 0.0
H440 H 0.63651 0.05601 0.94426 0.0
C441 C 0.69482 0.15997 0.98742 0.0
H442 H 0.69631 0.0925 0.92825 0.0
C443 C 0.66077 0.13914 0.99681 0.0
C444 C 0.63952 0.10127 0.98198 0.0
H445 H 0.71129 0.18863 1.00049 0.0
H446 H 0.65151 0.15229 0.01668 0.0
C447 C 0.65238 0.08512 0.95621 0.0
C448 C 0.86967 0.55364 0.01726 0.0
C449 C 0.87373 0.57584 0.98726 0.0
H450 H 0.88593 0.51934 0.04494 0.0
C451 C 0.89616 0.57868 0.96003 0.0
H452 H 0.85246 0.55123 0.03857 0.0
C453 C 0.91524 0.56033 0.96353 0.0
C454 C 0.91218 0.53915 0.99443 0.0
H455 H 0.89962 0.59583 0.93673 0.0
H456 H 0.9332 0.56374 0.94283 0.0
C457 C 0.88876 0.53542 0.02085 0.0
C458 C 0.45394 0.33753 0.98574 0.0
C459 C 0.48002 0.32996 0.97705 0.0
H460 H 0.44001 0.37949 0.99632 0.0
C461 C 0.51265 0.35953 0.97089 0.0
H462 H 0.42869 0.31498 0.99094 0.0
C463 C 0.51939 0.39659 0.97415 0.0
C464 C 0.49359 0.40459 0.98386 0.0
H465 H 0.53319 0.3541 0.96451 0.0
H466 H 0.54499 0.41896 0.96975 0.0
C467 C 0.46061 0.37451 0.98904 0.0
C468 C 0.15056 0.65666 0.04717 0.0
C469 C 0.14186 0.68443 0.04205 0.0
H470 H 0.13217 0.59772 0.04612 0.0
C471 C 0.10726 0.67415 0.03244 0.0
H472 H 0.17735 0.66431 0.05433 0.0
C473 C 0.08145 0.63625 0.02747 0.0
C474 C 0.08992 0.60802 0.03193 0.0
H475 H 0.10024 0.69537 0.0281 0.0
H476 H 0.0549 0.62918 0.01977 0.0
C477 C 0.12476 0.61866 0.04222 0.0
C478 C 0.31638 0.44597 0.01563 0.0
C479 C 0.31002 0.4357 0.05281 0.0
H480 H 0.35439 0.46922 0.97585 0.0
C481 C 0.33781 0.44305 0.07957 0.0
H482 H 0.29512 0.4401 0.99446 0.0
C483 C 0.37152 0.45937 0.06898 0.0
C484 C 0.37792 0.46854 0.03139 0.0
H485 H 0.33331 0.43494 0.10831 0.0
H486 H 0.39241 0.46382 0.08994 0.0
C487 C 0.35017 0.46244 1.005 0.0
C488 C 0.51609 0.87873 0.10613 0.0
C489 C 0.53868 0.86983 0.08881 0.0
H490 H 0.49333 0.91343 0.10778 0.0
C491 C 0.55832 0.89172 0.06106 0.0
H492 H 0.5004 0.86181 0.12726 0.0
C493 C 0.55436 0.92148 0.04971 0.0
C494 C 0.53022 0.92915 0.06554 0.0
H495 H 0.5755 0.88478 0.04696 0.0
H496 H 0.56892 0.93723 0.02733 0.0
C497 C 0.51185 0.90806 0.09461 0.0
C498 C 0.97661 0.20028 0.3863 0.0
C499 C 0.97215 0.19623 0.42528 0.0
H500 H 0.01178 0.22552 0.34466 0.0
C501 C 1.00074 0.21841 0.4529 0.0
H502 H 0.95496 0.18445 0.3643 0.0
C503 C 0.03347 0.24272 0.44149 0.0
C504 C 0.03795 0.24476 0.40235 0.0
H505 H 0.99808 0.21588 0.48308 0.0
H506 H 0.05539 0.25889 0.46313 0.0
C507 C 0.00915 0.22387 0.37499 0.0
C508 C 0.78004 0.73044 0.43227 0.0
C509 C 0.81216 0.74564 0.41713 0.0
H510 H 0.73213 0.73004 0.43416 0.0
C511 C 0.82011 0.77289 0.39134 0.0
H512 H 0.77261 0.70887 0.45156 0.0
C513 C 0.79648 0.78441 0.38081 0.0
C514 C 0.76461 0.76926 0.39617 0.0
H515 H 0.84475 0.78566 0.37954 0.0
H516 H 0.80326 0.80536 0.36083 0.0
C517 C 0.75666 0.74234 0.42212 0.0
C518 C 0.19692 0.99782 0.41215 0.0
C519 C 0.2242 0.02897 0.39842 0.0
H520 H 0.1648 0.93809 0.40697 0.0
C521 C 0.23962 0.02353 0.36707 0.0
H522 H 0.18453 1.00154 0.43613 0.0
C523 C 0.22878 0.98716 0.35064 0.0
C524 C 0.20183 0.9558 0.36481 0.0
H525 H 0.26066 0.04735 0.35604 0.0
H526 H 0.24184 0.98359 0.32729 0.0
C527 C 0.1855 0.9616 0.39518 0.0
C528 C 0.55933 0.63821 0.32493 0.0
C529 C 0.53672 0.6337 0.29281 0.0
H530 H 0.60189 0.67704 0.36609 0.0
C531 C 0.53813 0.6656 0.27916 0.0
H532 H 0.5588 0.61395 0.33577 0.0
C533 C 0.56216 0.70148 0.29686 0.0
C534 C 0.58581 0.70623 0.32805 0.0
H535 H 0.52092 0.66275 0.25443 0.0
H536 H 0.56312 0.72555 0.28502 0.0
C537 C 0.58396 0.67423 0.34216 0.0
C538 C 0.3794 0.93411 0.31362 0.0
C539 C 0.38473 0.92551 0.27624 0.0
H540 H 0.34302 0.92754 0.35316 0.0
C541 C 0.35563 0.90525 0.24868 0.0
H542 H 0.40114 0.95063 0.33535 0.0
C543 C 0.32198 0.89257 0.25891 0.0
C544 C 0.31699 0.89967 0.29689 0.0
H545 H 0.35873 0.89811 0.21965 0.0
H546 H 0.29991 0.87638 0.23747 0.0
C547 C 0.34604 0.92101 0.32388 0.0
C548 C 0.10768 0.44535 0.31874 0.0
C549 C 0.12194 0.46285 0.2862 0.0
H550 H 0.10577 0.40783 0.35929 0.0
C551 C 0.14461 0.45438 0.26829 0.0
H552 H 0.09026 0.45174 0.33306 0.0
C553 C 0.15415 0.43004 0.28379 0.0
C554 C 0.14071 0.41337 0.31707 0.0
H555 H 0.15609 0.46783 0.24337 0.0
H556 H 0.17229 0.42452 0.2699 0.0
C557 C 0.11667 0.42045 0.3338 0.0
C558 C 0.35091 0.43919 0.27886 0.0
C559 C 0.37566 0.47275 0.30053 0.0
H560 H 0.29821 0.39392 0.27117 0.0
C561 C 0.36566 0.48819 0.33024 0.0
H562 H 0.3583 0.4268 0.25597 0.0
C563 C 0.33127 0.46944 0.33903 0.0
C564 C 0.30672 0.43494 0.31835 0.0
H565 H 0.38462 0.51401 0.34743 0.0
H566 H 0.32425 0.48118 0.36283 0.0
C567 C 0.31667 0.42041 0.28767 0.0
C568 C 0.56369 0.91274 0.29514 0.0
C569 C 0.53628 0.90427 0.31725 0.0
H570 H 0.60531 0.90313 0.28368 0.0
C571 C 0.52841 0.87794 0.34378 0.0
H572 H 0.57011 0.93315 0.2746 0.0
C573 C 0.54838 0.86095 0.3491 0.0
C574 C 0.57653 0.87007 0.3279 0.0
H575 H 0.50732 0.87119 0.36114 0.0
H576 H 0.54229 0.84136 0.37047 0.0
C577 C 0.5837 0.89561 0.30036 0.0
C578 C 0.18032 0.68893 0.30592 0.0
C579 C 0.14768 0.65915 0.31174 0.0
H580 H 0.21281 0.74861 0.30671 0.0
C581 C 0.12181 0.66647 0.32181 0.0
H582 H 0.2007 0.6836 0.29852 0.0
C583 C 0.12866 0.70341 0.32688 0.0
C584 C 0.16164 0.7337 0.32207 0.0
H585 H 0.09657 0.64371 0.32679 0.0
H586 H 0.10817 0.70814 0.33514 0.0
C587 C 0.18725 0.72603 0.31089 0.0
C588 C 0.77959 0.99532 0.37879 0.0
C589 C 0.81073 1.00133 0.39758 0.0
H590 H 0.72739 0.95494 0.35625 0.0
C591 C 0.81297 0.97096 0.4099 0.0
H592 H 0.7777 0.01858 0.3687 0.0
C593 C 0.78446 0.93453 0.40256 0.0
C594 C 0.75336 0.92802 0.38262 0.0
H595 H 0.83708 0.97524 0.4241 0.0
H596 H 0.78707 0.91148 0.41192 0.0
C597 C 0.751 0.95891 0.37147 0.0
C598 C 0.99532 0.74832 0.40725 0.0
C599 C 0.9719 0.7534 0.38358 0.0
H600 H 0.04813 0.7618 0.41966 0.0
C601 C 0.98406 0.77785 0.35513 0.0
H602 H 0.98626 0.72941 0.42931 0.0
C603 C 0.01918 0.79623 0.34952 0.0
C604 C 0.04265 0.7904 0.37233 0.0
H605 H 0.96624 0.78198 0.33653 0.0
H606 H 0.02778 0.81422 0.32666 0.0
C607 C 0.03057 0.76682 0.40173 0.0
C608 C 0.18865 0.19927 0.40359 0.0
C609 C 0.22366 0.20984 0.40343 0.0
H610 H 0.15054 0.21597 0.39557 0.0
C611 C 0.24799 0.24665 0.39756 0.0
H612 H 0.16945 0.17065 0.40749 0.0
C613 C 0.23729 0.27233 0.39021 0.0
C614 C 0.20197 0.26156 0.38848 0.0
H615 H 0.27507 0.25509 0.39684 0.0
H616 H 0.25668 0.30035 0.3848 0.0
C617 C 0.17786 0.22508 0.39644 0.0
C618 C 0.65912 0.57059 0.75644 0.0
C619 C 0.64098 0.53178 0.74443 0.0
H620 H 0.70543 0.62386 0.75449 0.0
C621 C 0.65739 0.51688 0.72243 0.0
H622 H 0.64731 0.58308 0.77325 0.0
C623 C 0.69007 0.54024 0.71098 0.0
C624 C 0.70761 0.57905 0.72188 0.0
H625 H 0.64473 0.48701 0.71353 0.0
H626 H 0.70159 0.52787 0.69349 0.0
C627 C 0.69223 0.59398 0.7454 0.0
C628 C 0.48205 0.09617 0.71596 0.0
C629 C 0.4941 0.1029 0.75525 0.0
H630 H 0.44984 0.10142 0.67176 0.0
C631 C 0.48436 0.12349 0.77968 0.0
H632 H 0.48854 0.08004 0.69628 0.0
C633 C 0.4615 0.13488 0.7657 0.0
C634 C 0.44838 0.12663 0.72684 0.0
H635 H 0.49367 0.12999 0.80991 0.0
H636 H 0.45355 0.14952 0.78549 0.0
C637 C 0.45959 0.10812 0.70188 0.0
C638 C 0.91015 0.36497 0.69366 0.0
C639 C 0.89512 0.37188 0.72461 0.0
H640 H 0.9105 0.32347 0.65436 0.0
C641 C 0.86643 0.3417 0.73779 0.0
H642 H 0.93233 0.38792 0.68306 0.0
C643 C 0.85337 0.30505 0.72083 0.0
C644 C 0.86936 0.29775 0.69101 0.0
H645 H 0.85433 0.34647 0.76148 0.0
H646 H 0.83171 0.28229 0.73232 0.0
C647 C 0.89762 0.32816 0.67725 0.0
C648 C 0.25133 0.98168 0.64055 0.0
C649 C 0.21605 0.9705 0.63454 0.0
H650 H 0.30293 0.02619 0.65989 0.0
C651 C 0.20545 0.99602 0.64579 0.0
H652 H 0.26004 0.96241 0.632 0.0
C653 C 0.23002 0.0328 0.6612 0.0
C654 C 0.26552 0.04438 0.66635 0.0
H655 H 0.17835 0.98797 0.64119 0.0
H656 H 0.22129 0.05237 0.66829 0.0
C657 C 0.27579 0.01813 0.65668 0.0
C658 C 0.01761 0.23657 0.57909 0.0
C659 C 0.0467 0.25569 0.60677 0.0
H660 H 0.96208 0.21004 0.56752 0.0
C661 C 0.04167 0.26448 0.64422 0.0
H662 H 0.02057 0.2292 0.55012 0.0
C663 C 0.00846 0.25278 0.65431 0.0
C664 C 0.97937 0.2327 0.6271 0.0
H665 H 0.06347 0.28006 0.66608 0.0
H666 H 1.0056 0.25945 0.68362 0.0
C667 C 0.98417 0.22533 0.58912 0.0
C668 C 0.82412 0.81799 0.64573 0.0
C669 C 0.78953 0.80452 0.63106 0.0
H670 H 0.86105 0.80562 0.67203 0.0
C671 C 0.76506 0.76628 0.63186 0.0
H672 H 0.8436 0.8473 0.64538 0.0
C673 C 0.77503 0.74219 0.64767 0.0
C674 C 0.80972 0.75588 0.66254 0.0
H675 H 0.73817 0.75525 0.62107 0.0
H676 H 0.75567 0.71282 0.64777 0.0
C677 C 0.83408 0.79406 0.66118 0.0
C678 C 0.04185 0.82681 0.67972 0.0
C679 C 0.04995 0.81541 0.64544 0.0
H680 H 1.00211 0.81672 0.71627 0.0
C681 C 0.02356 0.78586 0.62031 0.0
H682 H 0.06208 0.84937 0.69964 0.0
C683 C 0.9895 0.76709 0.62983 0.0
C684 C 0.98137 0.77758 0.6647 0.0
H685 H 0.02944 0.77647 0.5939 0.0
H686 H 0.96969 0.74376 0.6103 0.0
C687 C 0.0077 0.80808 0.68925 0.0
C688 C 0.22193 0.23544 0.62189 0.0
C689 C 0.19819 0.23108 0.64798 0.0
H690 H 0.26209 0.22433 0.60761 0.0
C691 C 0.19528 0.21041 0.67907 0.0
H692 H 0.22448 0.25142 0.59776 0.0
C693 C 0.21662 0.19509 0.68481 0.0
C694 C 0.24117 0.2002 0.65945 0.0
H695 H 0.17704 0.20685 0.69949 0.0
H696 H 0.21445 0.18002 0.70959 0.0
C697 C 0.24329 0.21995 0.62754 0.0
C698 C 0.83726 0.02486 0.63827 0.0
C699 C 0.80457 0.99614 0.64556 0.0
H700 H 0.87074 0.08405 0.63643 0.0
C701 C 0.77954 0.00497 0.65536 0.0
H702 H 0.85704 0.01845 0.63109 0.0
C703 C 0.78732 0.04233 0.65881 0.0
C704 C 0.82043 0.07158 0.65268 0.0
H705 H 0.75429 0.98312 0.6615 0.0
H706 H 0.7675 0.04823 0.66703 0.0
C707 C 0.84513 0.06234 0.64165 0.0
C708 C 0.48174 0.32447 0.71032 0.0
C709 C 0.47243 0.35174 0.70499 0.0
H710 H 0.46413 0.26584 0.71112 0.0
C711 C 0.43748 0.34086 0.69721 0.0
H712 H 0.50878 0.33253 0.71608 0.0
C713 C 0.41194 0.30287 0.69411 0.0
C714 C 0.42102 0.2751 0.69861 0.0
H715 H 0.42994 0.36165 0.69273 0.0
H716 H 0.38511 0.29533 0.68766 0.0
C717 C 0.45622 0.28638 0.70726 0.0
C718 C 0.64677 0.1148 0.68837 0.0
C719 C 0.63969 0.10108 0.72413 0.0
H720 H 0.68567 0.14215 0.65044 0.0
C721 C 0.66699 0.10659 0.75062 0.0
H722 H 0.62588 0.11045 0.66747 0.0
C723 C 0.701 0.12442 0.74094 0.0
C724 C 0.70812 0.13693 0.70457 0.0
H725 H 0.66187 0.09587 0.77827 0.0
H726 H 0.72153 0.1273 0.76146 0.0
C727 C 0.68086 0.13279 0.67867 0.0
C728 C 0.86999 0.54151 0.7233 0.0
C729 C 0.9055 0.55447 0.72329 0.0
H730 H 0.82958 0.55492 0.71674 0.0
C731 C 0.92815 0.59187 0.71746 0.0
H732 H 0.85208 0.51247 0.72722 0.0
C733 C 0.91544 0.61606 0.71105 0.0
C734 C 0.87973 0.60321 0.7103 0.0
H735 H 0.95561 0.60217 0.71684 0.0
H736 H 0.93365 0.64472 0.70621 0.0
C737 C 0.85718 0.56574 0.71701 0.0
C738 C 0.51091 0.97743 0.17755 0.0
C739 C 0.48318 0.97975 0.19169 0.0
H740 H 0.54766 0.99371 0.13628 0.0
C741 C 0.47104 1.0008 0.17269 0.0
H742 H 0.52055 0.96072 0.19017 0.0
C743 C 0.48596 0.01857 0.14063 0.0
C744 C 0.51395 0.01665 0.12738 0.0
H745 H 0.45037 0.00421 0.18277 0.0
H746 H 0.47583 0.03417 0.12639 0.0
C747 C 0.5265 0.99624 0.14636 0.0
C748 C 0.04926 0.48127 0.17193 0.0
C749 C 0.07457 0.51695 0.19039 0.0
H750 H 0.01046 0.4501 0.12421 0.0
C751 C 0.07958 0.549 0.17306 0.0
H752 H 0.04368 0.45574 0.18427 0.0
C753 C 0.05918 0.54552 0.13944 0.0
C754 C 0.03413 0.50995 0.12148 0.0
H755 H 0.09932 0.57698 0.1852 0.0
H756 H 0.06339 0.5707 0.12711 0.0
C757 C 0.02975 0.47786 0.13758 0.0
C758 C 0.51282 0.57565 0.14824 0.0
C759 C 0.49883 0.54616 0.17181 0.0
H760 H 0.53541 0.59436 0.09632 0.0
C761 C 0.49255 0.51048 0.15699 0.0
H762 H 0.51679 0.60313 0.1574 0.0
C763 C 0.50154 0.50511 0.12067 0.0
C764 C 0.51801 0.5355 0.09906 0.0
H765 H 0.48225 0.48698 0.17394 0.0
H766 H 0.49753 0.47779 0.11052 0.0
C767 C 0.52308 0.5706 0.11281 0.0
C768 C 0.94035 0.43454 0.86786 0.0
C769 C 0.95153 0.46318 0.84315 0.0
H770 H 0.95076 0.41702 0.92081 0.0
C771 C 0.98022 0.49882 0.85705 0.0
H772 H 0.91763 0.40718 0.8595 0.0
C773 C 0.99801 0.50489 0.89351 0.0
C774 C 0.98824 0.47521 0.91628 0.0
H775 H 0.99017 0.5217 0.83927 0.0
H776 H 0.02061 0.53214 0.90295 0.0
C777 C 0.95902 0.44022 0.90345 0.0
C778 C 0.55528 0.52637 0.84951 0.0
C779 C 0.5434 0.4905 0.83004 0.0
H780 H 0.54997 0.55849 0.89625 0.0
C781 C 0.51684 0.459 0.84476 0.0
H782 H 0.57529 0.55141 0.83903 0.0
C783 C 0.50179 0.4633 0.87686 0.0
C784 C 0.5134 0.49908 0.89576 0.0
H785 H 0.50752 0.4308 0.83152 0.0
H786 H 0.48125 0.43848 0.88717 0.0
C787 C 0.54059 0.53055 0.88215 0.0
C788 C 0.4749 0.01498 0.8648 0.0
C789 C 0.50877 0.02849 0.85492 0.0
H790 H 0.43933 0.99018 0.90616 0.0
C791 C 0.5323 0.02405 0.87956 0.0
H792 H 0.45554 0.01648 0.84611 0.0
C793 C 0.52239 0.00752 0.91362 0.0
C794 C 0.4892 0.99606 0.9242 0.0
H795 H 0.55858 0.03392 0.87297 0.0
H796 H 0.54065 0.00381 0.93165 0.0
C797 C 0.46537 0.99928 0.89909 0.0
C798 C 0.13544 0.33123 0.50571 0.0
C799 C 0.14527 0.30735 0.52266 0.0
H800 H 0.14242 0.36718 0.46131 0.0
C801 C 0.17108 0.30246 0.50685 0.0
H802 H 0.11632 0.33657 0.51723 0.0
C803 C 0.18689 0.32125 0.47569 0.0
C804 C 0.17663 0.34454 0.45877 0.0
H805 H 0.17898 0.28379 0.5182 0.0
H806 H 0.20651 0.31671 0.46417 0.0
C807 C 0.15073 0.34929 0.47394 0.0
C808 C 0.70713 0.81027 0.51456 0.0
C809 C 0.73147 0.8467 0.53225 0.0
H810 H 0.66866 0.77689 0.467 0.0
C811 C 0.73557 0.87764 0.51334 0.0
H812 H 0.70258 0.78554 0.52795 0.0
C813 C 0.71498 0.87248 0.47931 0.0
C814 C 0.69057 0.83626 0.46225 0.0
H815 H 0.75476 0.90615 0.52459 0.0
H816 H 0.7185 0.89698 0.46603 0.0
C817 C 0.68733 0.80515 0.47968 0.0
C818 C 0.19344 0.91054 0.49157 0.0
C819 C 0.17623 0.88108 0.51454 0.0
H820 H 0.21691 0.92745 0.43987 0.0
C821 C 0.16546 0.8441 0.49871 0.0
H822 H 0.2009 0.93919 0.50124 0.0
C823 C 0.17275 0.83723 0.46183 0.0
C824 C 0.19204 0.86724 0.44066 0.0
H825 H 0.15252 0.82042 0.51507 0.0
H826 H 0.16489 0.80874 0.45074 0.0
C827 C 0.2021 0.90381 0.45577 0.0
C828 C 0.60952 0.75319 0.20195 0.0
C829 C 0.60942 0.78296 0.18448 0.0
H830 H 0.62895 0.73612 0.249 0.0
C831 C 0.62832 0.81938 0.20439 0.0
H832 H 0.59421 0.72446 0.18878 0.0
C833 C 0.6475 0.8258 0.24015 0.0
C834 C 0.64857 0.79605 0.25625 0.0
H835 H 0.6289 0.84305 0.19205 0.0
H836 H 0.66225 0.85409 0.25461 0.0
C837 C 0.6292 0.75975 0.2369 0.0
C838 C 0.21443 0.85542 0.19014 0.0
C839 C 0.20394 0.81974 0.17121 0.0
H840 H 0.20816 0.88669 0.23675 0.0
C841 C 0.17761 0.78772 0.18538 0.0
H842 H 0.23405 0.88079 0.17974 0.0
C843 C 0.1623 0.79132 0.21755 0.0
C844 C 0.17335 0.82691 0.23661 0.0
H845 H 0.16918 0.75976 0.17206 0.0
H846 H 0.14246 0.76616 0.22812 0.0
C847 C 0.1994 0.85891 0.22259 0.0
C848 C 0.20265 0.35917 0.21074 0.0
C849 C 0.17959 0.36471 0.18648 0.0
H850 H 0.21011 0.33696 0.26186 0.0
C851 C 0.1458 0.35164 0.19654 0.0
H852 H 0.22881 0.36852 0.20406 0.0
C853 C 0.13599 0.33545 0.23054 0.0
C854 C 0.15932 0.33104 0.25523 0.0
H855 H 0.12662 0.35371 0.17815 0.0
H856 H 0.11002 0.32671 0.23763 0.0
C857 C 0.19236 0.34194 0.24445 0.0
C858 C 0.80153 0.63075 0.83098 0.0
C859 C 0.81666 0.65323 0.86596 0.0
H860 H 0.80214 0.62657 0.77038 0.0
C861 C 0.8432 0.69083 0.86607 0.0
H862 H 0.78124 0.60162 0.83027 0.0
C863 C 0.85439 0.70568 0.83149 0.0
C864 C 0.83969 0.68285 0.79648 0.0
H865 H 0.85517 0.70863 0.89287 0.0
H866 H 0.87503 0.73463 0.83221 0.0
C867 C 0.81329 0.64523 0.79669 0.0
C868 C 0.38454 0.15045 0.84009 0.0
C869 C 0.40935 0.18654 0.85809 0.0
H870 H 0.34519 0.11808 0.79314 0.0
C871 C 0.41297 0.21804 0.84066 0.0
H872 H 0.38008 0.1253 0.85252 0.0
C873 C 0.39167 0.21363 0.80748 0.0
C874 C 0.36706 0.17768 0.79002 0.0
H875 H 0.43231 0.24633 0.85243 0.0
H876 H 0.39486 0.23842 0.79509 0.0
C877 C 0.36407 0.14613 0.80617 0.0
C878 C 0.85356 0.2482 0.81964 0.0
C879 C 0.836 0.21843 0.84217 0.0
H880 H 0.8778 0.26571 0.76842 0.0
C881 C 0.825 0.18156 0.82592 0.0
H882 H 0.86116 0.2768 0.82977 0.0
C883 C 0.83283 0.17512 0.78919 0.0
C884 C 0.85277 0.20544 0.76861 0.0
H885 H 0.81165 0.15772 0.842 0.0
H886 H 0.82494 0.1467 0.7778 0.0
C887 C 0.86267 0.24189 0.78396 0.0
C888 C 0.27016 0.09478 0.53981 0.0
C889 C 0.27795 0.12283 0.51488 0.0
H890 H 0.28516 0.07976 0.59188 0.0
C891 C 0.30483 0.1598 0.5278 0.0
H892 H 0.24882 0.06636 0.53218 0.0
C893 C 0.32446 0.16779 0.56348 0.0
C894 C 0.31832 0.13882 0.58627 0.0
H895 H 0.31198 0.18229 0.50973 0.0
H896 H 0.34571 0.1961 0.57218 0.0
C897 C 0.29069 0.10247 0.57448 0.0
C898 C 0.84818 0.1215 0.52554 0.0
C899 C 0.87186 0.15155 0.50649 0.0
H900 H 0.81354 0.10396 0.56907 0.0
C901 C 0.8785 0.18802 0.51831 0.0
H902 H 0.84288 0.09315 0.51838 0.0
C903 C 0.86246 0.19423 0.5485 0.0
C904 C 0.83869 0.16407 0.56686 0.0
H905 H 0.89582 0.21193 0.50412 0.0
H906 H 0.86845 0.22261 0.55736 0.0
C907 C 0.8314 0.12763 0.55489 0.0
C908 C 0.84496 0.65916 0.51854 0.0
C909 C 0.86196 0.69774 0.51426 0.0
H910 H 0.82276 0.61695 0.55728 0.0
C911 C 0.87322 0.72386 0.5468 0.0
H912 H 0.83566 0.63859 0.49361 0.0
C913 C 0.86615 0.71163 0.58298 0.0
C914 C 0.8471 0.67301 0.58716 0.0
H915 H 0.88605 0.75372 0.54399 0.0
H916 H 0.87396 0.7325 0.60736 0.0
C917 C 0.83742 0.64684 0.5548 0.0
loop_
_geom_bond_atom_site_label_1
_geom_bond_atom_site_label_2
_geom_bond_distance
_geom_bond_site_symmetry_2
_ccdc_geom_bond_type
H0 C3 0.929 . S
H1 C6 0.929 . S
H2 C8 0.930 . S
C3 H0 0.929 . S
C3 C4 1.398 . S
C3 C5 1.396 . S
C4 C3 1.398 . S
C4 C8 1.407 . S
C5 C3 1.396 . S
C5 C6 1.394 . S
C6 H1 0.929 . S
C6 C5 1.394 . S
C6 C7 1.382 . S
C7 C6 1.382 . S
C7 C8 1.392 . S
C7 N9 1.420 . S
C8 H2 0.930 . S
C8 C4 1.407 . S
C8 C7 1.392 . S
N9 C7 1.420 . S
N9 C10 1.244 . S
C10 N9 1.244 . S
H11 C14 0.929 . S
H12 C17 0.929 . S
H13 C19 0.930 . S
C14 H11 0.929 . S
C14 C15 1.398 . S
C14 C16 1.396 . S
C15 C14 1.398 . S
C15 C19 1.407 . S
C16 C14 1.396 . S
C16 C17 1.394 . S
C17 H12 0.929 . S
C17 C16 1.394 . S
C17 C18 1.382 . S
C18 C17 1.382 . S
C18 C19 1.392 . S
C18 N20 1.420 . S
C19 H13 0.930 . S
C19 C15 1.407 . S
C19 C18 1.392 . S
N20 C18 1.420 . S
N20 C21 1.244 . S
C21 N20 1.244 . S
H22 C25 0.929 . S
H23 C28 0.929 . S
H24 C30 0.930 . S
C25 H22 0.929 . S
C25 C26 1.398 . S
C25 C27 1.396 . S
C26 C25 1.398 . S
C26 C30 1.407 . S
C27 C25 1.396 . S
C27 C28 1.394 . S
C28 H23 0.929 . S
C28 C27 1.394 . S
C28 C29 1.382 . S
C29 C28 1.382 . S
C29 C30 1.392 . S
C29 N31 1.420 . S
C30 H24 0.930 . S
C30 C26 1.407 . S
C30 C29 1.392 . S
N31 C29 1.420 . S
N31 C32 1.244 . S
C32 N31 1.244 . S
H33 C36 0.929 . S
H34 C39 0.929 . S
H35 C41 0.930 . S
C36 H33 0.929 . S
C36 C37 1.398 . S
C36 C38 1.396 . S
C37 C36 1.398 . S
C37 C41 1.407 . S
C38 C36 1.396 . S
C38 C39 1.394 . S
C39 H34 0.929 . S
C39 C38 1.394 . S
C39 C40 1.382 . S
C40 C39 1.382 . S
C40 C41 1.392 . S
C40 N42 1.420 . S
C41 H35 0.930 . S
C41 C37 1.407 . S
C41 C40 1.392 . S
N42 C40 1.420 . S
N42 C43 1.244 . S
C43 N42 1.244 . S
H44 C47 0.929 . S
H45 C50 0.929 . S
H46 C52 0.930 . S
C47 H44 0.929 . S
C47 C48 1.398 . S
C47 C49 1.396 . S
C48 C47 1.398 . S
C48 C52 1.407 . S
C49 C47 1.396 . S
C49 C50 1.394 . S
C50 H45 0.929 . S
C50 C49 1.394 . S
C50 C51 1.382 . S
C51 C50 1.382 . S
C51 C52 1.392 . S
C51 N53 1.420 . S
C52 H46 0.930 . S
C52 C48 1.407 . S
C52 C51 1.392 . S
N53 C51 1.420 . S
N53 C54 1.244 . S
C54 N53 1.244 . S
H55 C58 0.929 . S
H56 C61 0.929 . S
H57 C63 0.930 . S
C58 H55 0.929 . S
C58 C59 1.398 . S
C58 C60 1.396 . S
C59 C58 1.398 . S
C59 C63 1.407 . S
C60 C58 1.396 . S
C60 C61 1.394 . S
C61 H56 0.929 . S
C61 C60 1.394 . S
C61 C62 1.382 . S
C62 C61 1.382 . S
C62 C63 1.392 . S
C62 N64 1.420 . S
C63 H57 0.930 . S
C63 C59 1.407 . S
C63 C62 1.392 . S
N64 C62 1.420 . S
N64 C65 1.244 . S
C65 N64 1.244 . S
H66 C69 0.929 . S
H67 C72 0.929 . S
H68 C74 0.930 . S
C69 H66 0.929 . S
C69 C70 1.398 . S
C69 C71 1.396 . S
C70 C69 1.398 . S
C70 C74 1.407 . S
C71 C69 1.396 . S
C71 C72 1.394 . S
C72 H67 0.929 . S
C72 C71 1.394 . S
C72 C73 1.382 . S
C73 C72 1.382 . S
C73 C74 1.392 . S
C73 N75 1.420 . S
C74 H68 0.930 . S
C74 C70 1.407 . S
C74 C73 1.392 . S
N75 C73 1.420 . S
N75 C76 1.244 . S
C76 N75 1.244 . S
H77 C80 0.929 . S
H78 C83 0.929 . S
H79 C85 0.930 . S
C80 H77 0.929 . S
C80 C81 1.398 . S
C80 C82 1.396 . S
C81 C80 1.398 . S
C81 C85 1.407 . S
C82 C80 1.396 . S
C82 C83 1.394 . S
C83 H78 0.929 . S
C83 C82 1.394 . S
C83 C84 1.382 . S
C84 C83 1.382 . S
C84 C85 1.392 . S
C84 N86 1.420 . S
C85 H79 0.930 . S
C85 C81 1.407 . S
C85 C84 1.392 . S
N86 C84 1.420 . S
N86 C87 1.244 . S
C87 N86 1.244 . S
H88 C91 0.929 . S
H89 C94 0.929 . S
H90 C96 0.930 . S
C91 H88 0.929 . S
C91 C92 1.398 . S
C91 C93 1.396 . S
C92 C91 1.398 . S
C92 C96 1.407 . S
C93 C91 1.396 . S
C93 C94 1.394 . S
C94 H89 0.929 . S
C94 C93 1.394 . S
C94 C95 1.382 . S
C95 C94 1.382 . S
C95 C96 1.392 . S
C95 N97 1.420 . S
C96 H90 0.930 . S
C96 C92 1.407 . S
C96 C95 1.392 . S
N97 C95 1.420 . S
N97 C98 1.244 . S
C98 N97 1.244 . S
H99 C102 0.929 . S
H100 C105 0.929 . S
H101 C107 0.930 . S
C102 H99 0.929 . S
C102 C103 1.398 . S
C102 C104 1.396 . S
C103 C102 1.398 . S
C103 C107 1.407 . S
C104 C102 1.396 . S
C104 C105 1.394 . S
C105 H100 0.929 . S
C105 C104 1.394 . S
C105 C106 1.382 . S
C106 C105 1.382 . S
C106 C107 1.392 . S
C106 N108 1.420 . S
C107 H101 0.930 . S
C107 C103 1.407 . S
C107 C106 1.392 . S
N108 C106 1.420 . S
N108 C109 1.244 . S
C109 N108 1.244 . S
H110 C113 0.929 . S
H111 C116 0.929 . S
H112 C118 0.930 1_554 S
C113 H110 0.929 . S
C113 C114 1.398 . S
C113 C115 1.396 . S
C114 C113 1.398 . S
C114 C118 1.407 . S
C115 C113 1.396 . S
C115 C116 1.394 . S
C116 H111 0.929 . S
C116 C115 1.394 . S
C116 C117 1.382 . S
C117 C116 1.382 . S
C117 C118 1.392 . S
C117 N119 1.420 . S
C118 H112 0.930 1_556 S
C118 C114 1.407 . S
C118 C117 1.392 . S
N119 C117 1.420 . S
N119 C120 1.244 . S
C120 N119 1.244 . S
H121 C124 0.929 . S
H122 C127 0.929 . S
H123 C129 0.930 . S
C124 H121 0.929 . S
C124 C125 1.398 . S
C124 C126 1.396 . S
C125 C124 1.398 . S
C125 C129 1.407 . S
C126 C124 1.396 . S
C126 C127 1.394 . S
C127 H122 0.929 . S
C127 C126 1.394 . S
C127 C128 1.382 . S
C128 C127 1.382 . S
C128 C129 1.392 . S
C128 N130 1.420 . S
C129 H123 0.930 . S
C129 C125 1.407 . S
C129 C128 1.392 . S
N130 C128 1.420 . S
N130 C131 1.244 . S
C131 N130 1.244 . S
H132 C135 0.929 . S
H133 C138 0.929 . S
H134 C140 0.930 . S
C135 H132 0.929 . S
C135 C136 1.398 . S
C135 C137 1.396 . S
C136 C135 1.398 . S
C136 C140 1.407 . S
C137 C135 1.396 . S
C137 C138 1.394 . S
C138 H133 0.929 . S
C138 C137 1.394 . S
C138 C139 1.382 . S
C139 C138 1.382 . S
C139 C140 1.392 . S
C139 N141 1.420 . S
C140 H134 0.930 . S
C140 C136 1.407 . S
C140 C139 1.392 . S
N141 C139 1.420 . S
N141 C142 1.244 . S
C142 N141 1.244 . S
H143 C146 0.929 . S
H144 C149 0.929 . S
H145 C151 0.930 . S
C146 H143 0.929 . S
C146 C147 1.398 . S
C146 C148 1.396 . S
C147 C146 1.398 . S
C147 C151 1.407 . S
C148 C146 1.396 . S
C148 C149 1.394 . S
C149 H144 0.929 . S
C149 C148 1.394 . S
C149 C150 1.382 . S
C150 C149 1.382 . S
C150 C151 1.392 . S
C150 N152 1.420 . S
C151 H145 0.930 . S
C151 C147 1.407 . S
C151 C150 1.392 . S
N152 C150 1.420 . S
N152 C153 1.244 . S
C153 N152 1.244 . S
H154 C157 0.929 . S
H155 C160 0.929 . S
H156 C162 0.930 . S
C157 H154 0.929 . S
C157 C158 1.398 . S
C157 C159 1.396 . S
C158 C157 1.398 . S
C158 C162 1.407 . S
C159 C157 1.396 . S
C159 C160 1.394 . S
C160 H155 0.929 . S
C160 C159 1.394 . S
C160 C161 1.382 . S
C161 C160 1.382 . S
C161 C162 1.392 . S
C161 N163 1.420 . S
C162 H156 0.930 . S
C162 C158 1.407 . S
C162 C161 1.392 . S
N163 C161 1.420 . S
N163 C164 1.244 . S
C164 N163 1.244 . S
H165 C168 0.929 . S
H166 C171 0.929 . S
H167 C173 0.930 . S
C168 H165 0.929 . S
C168 C169 1.398 . S
C168 C170 1.396 . S
C169 C168 1.398 . S
C169 C173 1.407 . S
C170 C168 1.396 . S
C170 C171 1.394 . S
C171 H166 0.929 . S
C171 C170 1.394 . S
C171 C172 1.382 . S
C172 C171 1.382 . S
C172 C173 1.392 . S
C172 N174 1.420 . S
C173 H167 0.930 . S
C173 C169 1.407 . S
C173 C172 1.392 . S
N174 C172 1.420 . S
N174 C175 1.244 . S
C175 N174 1.244 . S
H176 C179 0.929 . S
H177 C182 0.929 . S
H178 C184 0.930 . S
C179 H176 0.929 . S
C179 C180 1.398 . S
C179 C181 1.396 . S
C180 C179 1.398 . S
C180 C184 1.407 . S
C181 C179 1.396 . S
C181 C182 1.394 . S
C182 H177 0.929 . S
C182 C181 1.394 . S
C182 C183 1.382 . S
C183 C182 1.382 . S
C183 C184 1.392 . S
C183 N185 1.420 . S
C184 H178 0.930 . S
C184 C180 1.407 . S
C184 C183 1.392 . S
N185 C183 1.420 . S
N185 C186 1.244 . S
C186 N185 1.244 . S
H187 C190 0.929 . S
H188 C193 0.929 . S
H189 C195 0.930 . S
C190 H187 0.929 . S
C190 C191 1.398 . S
C190 C192 1.396 . S
C191 C190 1.398 . S
C191 C195 1.407 . S
C192 C190 1.396 . S
C192 C193 1.394 . S
C193 H188 0.929 . S
C193 C192 1.394 . S
C193 C194 1.382 . S
C194 C193 1.382 . S
C194 C195 1.392 . S
C194 N196 1.420 . S
C195 H189 0.930 . S
C195 C191 1.407 . S
C195 C194 1.392 . S
N196 C194 1.420 . S
N196 C197 1.244 . S
C197 N196 1.244 . S
Tb198 O201 2.453 . S
Tb198 O202 2.596 1_545 S
Tb198 O203 2.374 1_545 S
Tb198 O211 2.343 1_554 S
Tb198 O213 2.353 . S
Tb198 O215 2.427 . S
Tb198 O216 2.513 1_554 S
C199 O203 1.251 . S
C199 O205 1.263 1_554 S
Tb200 O202 2.343 1_556 S
Tb200 O205 2.353 . S
Tb200 O208 2.427 1_556 S
Tb200 O209 2.513 1_556 S
Tb200 O210 2.453 . S
Tb200 O211 2.596 1_565 S
Tb200 O212 2.374 1_565 S
O201 Tb198 2.453 . S
O201 C217 1.245 1_545 S
O202 Tb198 2.596 1_565 S
O202 Tb200 2.343 1_554 S
O202 C217 1.259 . S
O203 Tb198 2.374 1_565 S
O203 C199 1.251 . S
C204 O208 1.275 . S
C204 O209 1.246 . S
O205 C199 1.263 1_556 S
O205 Tb200 2.353 . S
C206 O210 1.245 1_545 S
C206 O211 1.259 . S
C207 O212 1.250 1_554 S
C207 O213 1.263 . S
O208 Tb200 2.427 1_554 S
O208 C204 1.275 . S
O209 Tb200 2.513 1_554 S
O209 C204 1.246 . S
O210 Tb200 2.453 . S
O210 C206 1.245 1_565 S
O211 Tb198 2.343 1_556 S
O211 Tb200 2.596 1_545 S
O211 C206 1.259 . S
O212 Tb200 2.374 1_545 S
O212 C207 1.250 1_556 S
O213 Tb198 2.353 . S
O213 C207 1.263 . S
C214 O215 1.275 1_556 S
C214 O216 1.246 . S
O215 Tb198 2.427 . S
O215 C214 1.275 1_554 S
O216 Tb198 2.513 1_556 S
O216 C214 1.246 . S
C217 O201 1.245 1_565 S
C217 O202 1.259 . S
Tb218 O221 2.453 . S
Tb218 O222 2.596 1_655 S
Tb218 O223 2.374 1_655 S
Tb218 O231 2.343 1_554 S
Tb218 O233 2.353 . S
Tb218 O235 2.427 1_554 S
Tb218 O236 2.513 1_554 S
C219 O223 1.251 . S
C219 O225 1.263 1_554 S
Tb220 O222 2.343 1_556 S
Tb220 O225 2.353 . S
Tb220 O228 2.427 1_556 S
Tb220 O229 2.513 1_556 S
Tb220 O230 2.453 . S
Tb220 O231 2.596 1_455 S
Tb220 O232 2.374 1_455 S
O221 Tb218 2.453 . S
O221 C237 1.245 1_655 S
O222 Tb218 2.596 1_455 S
O222 Tb220 2.343 1_554 S
O222 C237 1.259 . S
O223 Tb218 2.374 1_455 S
O223 C219 1.251 . S
C224 O228 1.275 . S
C224 O229 1.246 . S
O225 C219 1.263 1_556 S
O225 Tb220 2.353 . S
C226 O230 1.245 1_655 S
C226 O231 1.259 . S
C227 O232 1.250 . S
C227 O233 1.263 1_556 S
O228 Tb220 2.427 1_554 S
O228 C224 1.275 . S
O229 Tb220 2.513 1_554 S
O229 C224 1.246 . S
O230 Tb220 2.453 . S
O230 C226 1.245 1_455 S
O231 Tb218 2.343 1_556 S
O231 Tb220 2.596 1_655 S
O231 C226 1.259 . S
O232 Tb220 2.374 1_655 S
O232 C227 1.250 . S
O233 Tb218 2.353 . S
O233 C227 1.263 1_554 S
C234 O235 1.275 . S
C234 O236 1.246 . S
O235 Tb218 2.427 1_556 S
O235 C234 1.275 . S
O236 Tb218 2.513 1_556 S
O236 C234 1.246 . S
C237 O221 1.245 1_455 S
C237 O222 1.259 . S
Tb238 O241 2.453 . S
Tb238 O242 2.596 . S
Tb238 O243 2.374 . S
Tb238 O251 2.343 1_556 S
Tb238 O253 2.353 . S
Tb238 O255 2.427 1_556 S
Tb238 O256 2.513 1_556 S
C239 O243 1.251 1_554 S
C239 O245 1.263 . S
Tb240 O242 2.343 1_554 S
Tb240 O245 2.353 . S
Tb240 O248 2.427 1_554 S
Tb240 O249 2.513 1_554 S
Tb240 O250 2.453 . S
Tb240 O251 2.596 . S
Tb240 O252 2.374 . S
O241 Tb238 2.453 . S
O241 C257 1.245 . S
O242 Tb238 2.596 . S
O242 Tb240 2.343 1_556 S
O242 C257 1.259 . S
O243 Tb238 2.374 . S
O243 C239 1.251 1_556 S
C244 O248 1.275 . S
C244 O249 1.246 . S
O245 C239 1.263 . S
O245 Tb240 2.353 . S
C246 O250 1.245 . S
C246 O251 1.259 . S
C247 O252 1.250 . S
C247 O253 1.263 1_554 S
O248 Tb240 2.427 1_556 S
O248 C244 1.275 . S
O249 Tb240 2.513 1_556 S
O249 C244 1.246 . S
O250 Tb240 2.453 . S
O250 C246 1.245 . S
O251 Tb238 2.343 1_554 S
O251 Tb240 2.596 . S
O251 C246 1.259 . S
O252 Tb240 2.374 . S
O252 C247 1.250 . S
O253 Tb238 2.353 . S
O253 C247 1.263 1_556 S
C254 O255 1.275 . S
C254 O256 1.246 . S
O255 Tb238 2.427 1_554 S
O255 C254 1.275 . S
O256 Tb238 2.513 1_554 S
O256 C254 1.246 . S
C257 O241 1.245 . S
C257 O242 1.259 . S
Tb258 O261 2.453 . S
Tb258 O262 2.596 . S
Tb258 O263 2.374 . S
Tb258 O271 2.343 . S
Tb258 O273 2.353 . S
Tb258 O275 2.427 . S
Tb258 O276 2.513 . S
C259 O263 1.251 . S
C259 O265 1.263 . S
Tb260 O262 2.343 . S
Tb260 O265 2.353 . S
Tb260 O268 2.427 . S
Tb260 O269 2.513 . S
Tb260 O270 2.453 . S
Tb260 O271 2.596 . S
Tb260 O272 2.374 . S
O261 Tb258 2.453 . S
O261 C277 1.245 . S
O262 Tb258 2.596 . S
O262 Tb260 2.343 . S
O262 C277 1.259 . S
O263 Tb258 2.374 . S
O263 C259 1.251 . S
C264 O268 1.275 . S
C264 O269 1.246 . S
O265 C259 1.263 . S
O265 Tb260 2.353 . S
C266 O270 1.245 . S
C266 O271 1.259 . S
C267 O272 1.250 . S
C267 O273 1.263 . S
O268 Tb260 2.427 . S
O268 C264 1.275 . S
O269 Tb260 2.513 . S
O269 C264 1.246 . S
O270 Tb260 2.453 . S
O270 C266 1.245 . S
O271 Tb258 2.343 . S
O271 Tb260 2.596 . S
O271 C266 1.259 . S
O272 Tb260 2.374 . S
O272 C267 1.250 . S
O273 Tb258 2.353 . S
O273 C267 1.263 . S
C274 O275 1.275 . S
C274 O276 1.246 . S
O275 Tb258 2.427 . S
O275 C274 1.275 . S
O276 Tb258 2.513 . S
O276 C274 1.246 . S
C277 O261 1.245 . S
C277 O262 1.259 . S
Tb278 O281 2.453 . S
Tb278 O282 2.596 . S
Tb278 O283 2.374 . S
Tb278 O291 2.343 . S
Tb278 O293 2.353 . S
Tb278 O295 2.427 . S
Tb278 O296 2.513 . S
C279 O283 1.251 . S
C279 O285 1.263 . S
Tb280 O282 2.343 . S
Tb280 O285 2.353 . S
Tb280 O288 2.427 . S
Tb280 O289 2.513 . S
Tb280 O290 2.453 . S
Tb280 O291 2.596 . S
Tb280 O292 2.374 . S
O281 Tb278 2.453 . S
O281 C297 1.245 . S
O282 Tb278 2.596 . S
O282 Tb280 2.343 . S
O282 C297 1.259 . S
O283 Tb278 2.374 . S
O283 C279 1.251 . S
C284 O288 1.275 . S
C284 O289 1.246 . S
O285 C279 1.263 . S
O285 Tb280 2.353 . S
C286 O290 1.245 . S
C286 O291 1.259 . S
C287 O292 1.250 . S
C287 O293 1.263 . S
O288 Tb280 2.427 . S
O288 C284 1.275 . S
O289 Tb280 2.513 . S
O289 C284 1.246 . S
O290 Tb280 2.453 . S
O290 C286 1.245 . S
O291 Tb278 2.343 . S
O291 Tb280 2.596 . S
O291 C286 1.259 . S
O292 Tb280 2.374 . S
O292 C287 1.250 . S
O293 Tb278 2.353 . S
O293 C287 1.263 . S
C294 O295 1.275 . S
C294 O296 1.246 . S
O295 Tb278 2.427 . S
O295 C294 1.275 . S
O296 Tb278 2.513 . S
O296 C294 1.246 . S
C297 O281 1.245 . S
C297 O282 1.259 . S
Tb298 O301 2.453 . S
Tb298 O302 2.596 . S
Tb298 O303 2.374 . S
Tb298 O311 2.343 . S
Tb298 O313 2.353 . S
Tb298 O315 2.427 . S
Tb298 O316 2.513 . S
C299 O303 1.251 . S
C299 O305 1.263 . S
Tb300 O302 2.343 . S
Tb300 O305 2.353 . S
Tb300 O308 2.427 . S
Tb300 O309 2.513 . S
Tb300 O310 2.453 . S
Tb300 O311 2.596 . S
Tb300 O312 2.374 . S
O301 Tb298 2.453 . S
O301 C317 1.245 . S
O302 Tb298 2.596 . S
O302 Tb300 2.343 . S
O302 C317 1.259 . S
O303 Tb298 2.374 . S
O303 C299 1.251 . S
C304 O308 1.275 . S
C304 O309 1.246 . S
O305 C299 1.263 . S
O305 Tb300 2.353 . S
C306 O310 1.245 . S
C306 O311 1.259 . S
C307 O312 1.250 . S
C307 O313 1.263 . S
O308 Tb300 2.427 . S
O308 C304 1.275 . S
O309 Tb300 2.513 . S
O309 C304 1.246 . S
O310 Tb300 2.453 . S
O310 C306 1.245 . S
O311 Tb298 2.343 . S
O311 Tb300 2.596 . S
O311 C306 1.259 . S
O312 Tb300 2.374 . S
O312 C307 1.250 . S
O313 Tb298 2.353 . S
O313 C307 1.263 . S
C314 O315 1.275 . S
C314 O316 1.246 . S
O315 Tb298 2.427 . S
O315 C314 1.275 . S
O316 Tb298 2.513 . S
O316 C314 1.246 . S
C317 O301 1.245 . S
C317 O302 1.259 . S
Tb318 O321 2.453 . S
Tb318 O322 2.596 . S
Tb318 O323 2.374 . S
Tb318 O331 2.343 . S
Tb318 O333 2.353 . S
Tb318 O335 2.427 . S
Tb318 O336 2.513 . S
C319 O323 1.251 . S
C319 O325 1.263 . S
Tb320 O322 2.343 . S
Tb320 O325 2.353 . S
Tb320 O328 2.427 . S
Tb320 O329 2.513 . S
Tb320 O330 2.453 . S
Tb320 O331 2.596 . S
Tb320 O332 2.374 . S
O321 Tb318 2.453 . S
O321 C337 1.245 . S
O322 Tb318 2.596 . S
O322 Tb320 2.343 . S
O322 C337 1.259 . S
O323 Tb318 2.374 . S
O323 C319 1.251 . S
C324 O328 1.275 . S
C324 O329 1.246 . S
O325 C319 1.263 . S
O325 Tb320 2.353 . S
C326 O330 1.245 . S
C326 O331 1.259 . S
C327 O332 1.250 . S
C327 O333 1.263 . S
O328 Tb320 2.427 . S
O328 C324 1.275 . S
O329 Tb320 2.513 . S
O329 C324 1.246 . S
O330 Tb320 2.453 . S
O330 C326 1.245 . S
O331 Tb318 2.343 . S
O331 Tb320 2.596 . S
O331 C326 1.259 . S
O332 Tb320 2.374 . S
O332 C327 1.250 . S
O333 Tb318 2.353 . S
O333 C327 1.263 . S
C334 O335 1.275 . S
C334 O336 1.246 . S
O335 Tb318 2.427 . S
O335 C334 1.275 . S
O336 Tb318 2.513 . S
O336 C334 1.246 . S
C337 O321 1.245 . S
C337 O322 1.259 . S
Tb338 O341 2.453 . S
Tb338 O342 2.596 . S
Tb338 O343 2.374 . S
Tb338 O351 2.343 . S
Tb338 O353 2.353 . S
Tb338 O355 2.427 . S
Tb338 O356 2.513 . S
C339 O343 1.251 . S
C339 O345 1.263 . S
Tb340 O342 2.343 . S
Tb340 O345 2.353 . S
Tb340 O348 2.427 . S
Tb340 O349 2.513 . S
Tb340 O350 2.453 . S
Tb340 O351 2.596 . S
Tb340 O352 2.374 . S
O341 Tb338 2.453 . S
O341 C357 1.245 . S
O342 Tb338 2.596 . S
O342 Tb340 2.343 . S
O342 C357 1.259 . S
O343 Tb338 2.374 . S
O343 C339 1.251 . S
C344 O348 1.275 . S
C344 O349 1.246 . S
O345 C339 1.263 . S
O345 Tb340 2.353 . S
C346 O350 1.245 . S
C346 O351 1.259 . S
C347 O352 1.250 . S
C347 O353 1.263 . S
O348 Tb340 2.427 . S
O348 C344 1.275 . S
O349 Tb340 2.513 . S
O349 C344 1.246 . S
O350 Tb340 2.453 . S
O350 C346 1.245 . S
O351 Tb338 2.343 . S
O351 Tb340 2.596 . S
O351 C346 1.259 . S
O352 Tb340 2.374 . S
O352 C347 1.250 . S
O353 Tb338 2.353 . S
O353 C347 1.263 . S
C354 O355 1.275 . S
C354 O356 1.246 . S
O355 Tb338 2.427 . S
O355 C354 1.275 . S
O356 Tb338 2.513 . S
O356 C354 1.246 . S
C357 O341 1.245 . S
C357 O342 1.259 . S
Tb358 O361 2.453 . S
Tb358 O362 2.596 . S
Tb358 O363 2.374 . S
Tb358 O371 2.343 . S
Tb358 O373 2.353 . S
Tb358 O375 2.427 . S
Tb358 O376 2.513 . S
C359 O363 1.251 . S
C359 O365 1.263 . S
Tb360 O362 2.343 . S
Tb360 O365 2.353 . S
Tb360 O368 2.427 . S
Tb360 O369 2.513 . S
Tb360 O370 2.453 . S
Tb360 O371 2.596 . S
Tb360 O372 2.374 . S
O361 Tb358 2.453 . S
O361 C377 1.245 . S
O362 Tb358 2.596 . S
O362 Tb360 2.343 . S
O362 C377 1.259 . S
O363 Tb358 2.374 . S
O363 C359 1.251 . S
C364 O368 1.275 . S
C364 O369 1.246 . S
O365 C359 1.263 . S
O365 Tb360 2.353 . S
C366 O370 1.245 . S
C366 O371 1.259 . S
C367 O372 1.250 . S
C367 O373 1.263 . S
O368 Tb360 2.427 . S
O368 C364 1.275 . S
O369 Tb360 2.513 . S
O369 C364 1.246 . S
O370 Tb360 2.453 . S
O370 C366 1.245 . S
O371 Tb358 2.343 . S
O371 Tb360 2.596 . S
O371 C366 1.259 . S
O372 Tb360 2.374 . S
O372 C367 1.250 . S
O373 Tb358 2.353 . S
O373 C367 1.263 . S
C374 O375 1.275 . S
C374 O376 1.246 . S
O375 Tb358 2.427 . S
O375 C374 1.275 . S
O376 Tb358 2.513 . S
O376 C374 1.246 . S
C377 O361 1.245 . S
C377 O362 1.259 . S
C378 C379 1.387 . S
C378 H382 0.950 . S
C378 C387 1.390 . S
C379 C378 1.387 . S
C379 C381 1.387 . S
H380 C387 0.926 1_556 S
C381 C379 1.387 . S
C381 C383 1.390 . S
C381 H385 0.950 . S
H382 C378 0.950 . S
C383 C381 1.390 . S
C383 C384 1.387 . S
C383 H386 0.950 . S
C384 C383 1.387 . S
C384 C387 1.387 . S
H385 C381 0.950 . S
H386 C383 0.950 . S
C387 C378 1.390 . S
C387 H380 0.926 1_554 S
C387 C384 1.387 . S
C388 C389 1.387 . S
C388 H392 0.950 . S
C388 C397 1.390 . S
C389 C388 1.387 . S
C389 C391 1.387 . S
H390 C397 0.950 . S
C391 C389 1.387 . S
C391 C393 1.390 . S
C391 H395 0.950 . S
H392 C388 0.950 . S
C393 C391 1.390 . S
C393 C394 1.387 . S
C393 H396 0.950 . S
C394 C393 1.387 . S
C394 C397 1.387 . S
H395 C391 0.950 . S
H396 C393 0.950 . S
C397 C388 1.390 . S
C397 H390 0.950 . S
C397 C394 1.387 . S
C398 C399 1.387 . S
C398 H402 0.950 1_554 S
C398 C407 1.390 . S
C399 C398 1.387 . S
C399 C401 1.387 . S
H400 C407 0.950 1_556 S
C401 C399 1.387 . S
C401 C403 1.390 . S
C401 H405 0.950 . S
H402 C398 0.950 1_556 S
C403 C401 1.390 . S
C403 C404 1.387 . S
C403 H406 0.950 . S
C404 C403 1.387 . S
C404 C407 1.387 . S
H405 C401 0.950 . S
H406 C403 0.950 . S
C407 C398 1.390 . S
C407 H400 0.950 1_554 S
C407 C404 1.387 . S
C408 C409 1.387 . S
C408 H412 0.950 . S
C408 C417 1.390 . S
C409 C408 1.387 . S
C409 C411 1.364 1_556 S
H410 C417 0.950 . S
C411 C409 1.364 1_554 S
C411 C413 1.394 . S
C411 H415 0.970 . S
H412 C408 0.950 . S
C413 C411 1.394 . S
C413 C414 1.387 1_554 S
C413 H416 0.950 . S
C414 C413 1.387 1_556 S
C414 C417 1.387 . S
H415 C411 0.970 . S
H416 C413 0.950 . S
C417 C408 1.390 . S
C417 H410 0.950 . S
C417 C414 1.387 . S
C418 C419 1.387 . S
C418 H422 0.950 . S
C418 C427 1.390 . S
C419 C418 1.387 . S
C419 C421 1.387 . S
H420 C427 0.950 . S
C421 C419 1.387 . S
C421 C423 1.390 . S
C421 H425 0.950 . S
H422 C418 0.950 . S
C423 C421 1.390 . S
C423 C424 1.387 . S
C423 H426 0.950 . S
C424 C423 1.387 . S
C424 C427 1.387 . S
H425 C421 0.950 . S
H426 C423 0.950 . S
C427 C418 1.390 . S
C427 H420 0.950 . S
C427 C424 1.387 . S
C428 C429 1.387 1_554 S
C428 H432 0.950 . S
C428 C437 1.390 . S
C429 C428 1.387 1_556 S
C429 C431 1.387 . S
H430 C437 0.950 . S
C431 C429 1.387 . S
C431 C433 1.390 . S
C431 H435 0.950 . S
H432 C428 0.950 . S
C433 C431 1.390 . S
C433 C434 1.387 . S
C433 H436 0.950 . S
C434 C433 1.387 . S
C434 C437 1.387 1_556 S
H435 C431 0.950 . S
H436 C433 0.950 . S
C437 C428 1.390 . S
C437 H430 0.950 . S
C437 C434 1.387 1_554 S
C438 C439 1.387 . S
C438 H442 0.950 . S
C438 C447 1.390 . S
C439 C438 1.387 . S
C439 C441 1.387 . S
H440 C447 0.950 . S
C441 C439 1.387 . S
C441 C443 1.390 . S
C441 H445 0.950 1_556 S
H442 C438 0.950 . S
C443 C441 1.390 . S
C443 C444 1.387 . S
C443 H446 0.950 1_556 S
C444 C443 1.387 . S
C444 C447 1.387 . S
H445 C441 0.950 1_554 S
H446 C443 0.950 1_554 S
C447 C438 1.390 . S
C447 H440 0.950 . S
C447 C444 1.387 . S
C448 C449 1.387 . S
C448 H452 0.950 1_556 S
C448 C457 1.390 . S
C449 C448 1.387 . S
C449 C451 1.387 . S
H450 C457 0.950 1_554 S
C451 C449 1.387 . S
C451 C453 1.390 . S
C451 H455 0.950 . S
H452 C448 0.950 1_554 S
C453 C451 1.390 . S
C453 C454 1.387 . S
C453 H456 0.950 . S
C454 C453 1.387 . S
C454 C457 1.387 . S
H455 C451 0.950 . S
H456 C453 0.950 . S
C457 C448 1.390 . S
C457 H450 0.950 1_556 S
C457 C454 1.387 . S
C458 C459 1.387 . S
C458 H462 0.950 . S
C458 C467 1.390 . S
C459 C458 1.387 . S
C459 C461 1.387 1_556 S
H460 C467 0.950 . S
C461 C459 1.387 1_554 S
C461 C463 1.390 . S
C461 H465 0.950 . S
H462 C458 0.950 . S
C463 C461 1.390 . S
C463 C464 1.387 1_554 S
C463 H466 0.950 . S
C464 C463 1.387 1_556 S
C464 C467 1.387 . S
H465 C461 0.950 . S
H466 C463 0.950 . S
C467 C458 1.390 . S
C467 H460 0.950 . S
C467 C464 1.387 . S
C468 C469 1.387 . S
C468 H472 0.950 1_554 S
C468 C477 1.390 1_554 S
C469 C468 1.387 . S
C469 C471 1.387 . S
H470 C477 0.950 . S
C471 C469 1.387 . S
C471 C473 1.390 . S
C471 H475 0.950 . S
H472 C468 0.950 1_556 S
C473 C471 1.390 . S
C473 C474 1.387 . S
C473 H476 0.950 . S
C474 C473 1.387 . S
C474 C477 1.387 1_554 S
H475 C471 0.950 . S
H476 C473 0.950 . S
C477 C468 1.390 1_556 S
C477 H470 0.950 . S
C477 C474 1.387 1_556 S
C478 C479 1.387 . S
C478 H482 0.950 . S
C478 C487 1.390 . S
C479 C478 1.387 . S
C479 C481 1.387 . S
H480 C487 0.950 . S
C481 C479 1.387 . S
C481 C483 1.390 . S
C481 H485 0.950 . S
H482 C478 0.950 . S
C483 C481 1.390 . S
C483 C484 1.387 . S
C483 H486 0.950 . S
C484 C483 1.387 . S
C484 C487 1.387 . S
H485 C481 0.950 . S
H486 C483 0.950 . S
C487 C478 1.390 . S
C487 H480 0.950 . S
C487 C484 1.387 . S
C488 C489 1.392 . S
C488 H492 0.946 1_554 S
C488 C497 1.389 1_554 S
C489 C488 1.392 . S
C489 C491 1.387 . S
H490 C497 0.950 . S
C491 C489 1.387 . S
C491 C493 1.390 . S
C491 H495 0.950 . S
H492 C488 0.946 1_556 S
C493 C491 1.390 . S
C493 C494 1.387 . S
C493 H496 0.950 . S
C494 C493 1.387 . S
C494 C497 1.387 1_554 S
H495 C491 0.950 . S
H496 C493 0.950 . S
C497 C488 1.389 1_556 S
C497 H490 0.950 . S
C497 C494 1.387 1_556 S
C498 C499 1.387 . S
C498 H502 0.950 . S
C498 C507 1.390 . S
C499 C498 1.387 . S
C499 C501 1.387 . S
H500 C507 0.950 . S
C501 C499 1.387 . S
C501 C503 1.390 1_655 S
C501 H505 0.950 . S
H502 C498 0.950 . S
C503 C501 1.390 1_455 S
C503 C504 1.387 . S
C503 H506 0.950 . S
C504 C503 1.387 . S
C504 C507 1.387 1_455 S
H505 C501 0.950 . S
H506 C503 0.950 . S
C507 C498 1.390 . S
C507 H500 0.950 . S
C507 C504 1.387 1_655 S
C508 C509 1.387 . S
C508 H512 0.950 . S
C508 C517 1.390 . S
C509 C508 1.387 . S
C509 C511 1.387 . S
H510 C517 0.950 . S
C511 C509 1.387 . S
C511 C513 1.390 . S
C511 H515 0.950 . S
H512 C508 0.950 . S
C513 C511 1.390 . S
C513 C514 1.387 . S
C513 H516 0.950 . S
C514 C513 1.387 . S
C514 C517 1.387 . S
H515 C511 0.950 . S
H516 C513 0.950 . S
C517 C508 1.390 . S
C517 H510 0.950 . S
C517 C514 1.387 . S
C518 C519 1.387 . S
C518 H522 0.950 . S
C518 C527 1.390 1_545 S
C519 C518 1.387 . S
C519 C521 1.387 . S
H520 C527 0.950 . S
C521 C519 1.387 . S
C521 C523 1.390 1_545 S
C521 H525 0.950 . S
H522 C518 0.950 . S
C523 C521 1.390 1_565 S
C523 C524 1.387 . S
C523 H526 0.950 . S
C524 C523 1.387 . S
C524 C527 1.387 . S
H525 C521 0.950 . S
H526 C523 0.950 . S
C527 C518 1.390 1_565 S
C527 H520 0.950 . S
C527 C524 1.387 . S
C528 C529 1.387 . S
C528 H532 0.950 . S
C528 C537 1.390 . S
C529 C528 1.387 . S
C529 C531 1.387 . S
H530 C537 0.950 . S
C531 C529 1.387 . S
C531 C533 1.390 . S
C531 H535 0.950 . S
H532 C528 0.950 . S
C533 C531 1.390 . S
C533 C534 1.387 . S
C533 H536 0.950 . S
C534 C533 1.387 . S
C534 C537 1.387 . S
H535 C531 0.950 . S
H536 C533 0.950 . S
C537 C528 1.390 . S
C537 H530 0.950 . S
C537 C534 1.387 . S
C538 C539 1.387 . S
C538 H542 0.950 . S
C538 C547 1.390 . S
C539 C538 1.387 . S
C539 C541 1.387 . S
H540 C547 0.950 . S
C541 C539 1.387 . S
C541 C543 1.390 . S
C541 H545 0.950 . S
H542 C538 0.950 . S
C543 C541 1.390 . S
C543 C544 1.387 . S
C543 H546 0.950 . S
C544 C543 1.387 . S
C544 C547 1.387 . S
H545 C541 0.950 . S
H546 C543 0.950 . S
C547 C538 1.390 . S
C547 H540 0.950 . S
C547 C544 1.387 . S
C548 C549 1.387 . S
C548 H552 0.950 . S
C548 C557 1.390 . S
C549 C548 1.387 . S
C549 C551 1.387 . S
H550 C557 0.950 . S
C551 C549 1.387 . S
C551 C553 1.390 . S
C551 H555 0.950 . S
H552 C548 0.950 . S
C553 C551 1.390 . S
C553 C554 1.387 . S
C553 H556 0.950 . S
C554 C553 1.387 . S
C554 C557 1.387 . S
H555 C551 0.950 . S
H556 C553 0.950 . S
C557 C548 1.390 . S
C557 H550 0.950 . S
C557 C554 1.387 . S
C558 C559 1.387 . S
C558 H562 0.950 . S
C558 C567 1.390 . S
C559 C558 1.387 . S
C559 C561 1.387 . S
H560 C567 0.950 . S
C561 C559 1.387 . S
C561 C563 1.390 . S
C561 H565 0.950 . S
H562 C558 0.950 . S
C563 C561 1.390 . S
C563 C564 1.387 . S
C563 H566 0.950 . S
C564 C563 1.387 . S
C564 C567 1.387 . S
H565 C561 0.950 . S
H566 C563 0.950 . S
C567 C558 1.390 . S
C567 H560 0.950 . S
C567 C564 1.387 . S
C568 C569 1.387 . S
C568 H572 0.950 . S
C568 C577 1.390 . S
C569 C568 1.387 . S
C569 C571 1.387 . S
H570 C577 0.950 . S
C571 C569 1.387 . S
C571 C573 1.390 . S
C571 H575 0.950 . S
H572 C568 0.950 . S
C573 C571 1.390 . S
C573 C574 1.387 . S
C573 H576 0.950 . S
C574 C573 1.387 . S
C574 C577 1.387 . S
H575 C571 0.950 . S
H576 C573 0.950 . S
C577 C568 1.390 . S
C577 H570 0.950 . S
C577 C574 1.387 . S
C578 C579 1.387 . S
C578 H582 0.950 . S
C578 C587 1.390 . S
C579 C578 1.387 . S
C579 C581 1.387 . S
H580 C587 0.950 . S
C581 C579 1.387 . S
C581 C583 1.390 . S
C581 H585 0.950 . S
H582 C578 0.950 . S
C583 C581 1.390 . S
C583 C584 1.387 . S
C583 H586 0.950 . S
C584 C583 1.387 . S
C584 C587 1.387 . S
H585 C581 0.950 . S
H586 C583 0.950 . S
C587 C578 1.390 . S
C587 H580 0.950 . S
C587 C584 1.387 . S
C588 C589 1.387 . S
C588 H592 0.950 . S
C588 C597 1.390 . S
C589 C588 1.387 . S
C589 C591 1.387 . S
H590 C597 0.950 . S
C591 C589 1.387 . S
C591 C593 1.390 . S
C591 H595 0.950 . S
H592 C588 0.950 . S
C593 C591 1.390 . S
C593 C594 1.387 . S
C593 H596 0.950 . S
C594 C593 1.387 . S
C594 C597 1.387 . S
H595 C591 0.950 . S
H596 C593 0.950 . S
C597 C588 1.390 . S
C597 H590 0.950 . S
C597 C594 1.387 . S
C598 C599 1.387 1_455 S
C598 H602 0.950 . S
C598 C607 1.390 . S
C599 C598 1.387 1_655 S
C599 C601 1.387 1_655 S
H600 C607 0.950 . S
C601 C599 1.387 1_455 S
C601 C603 1.390 . S
C601 H605 0.950 1_455 S
H602 C598 0.950 . S
C603 C601 1.390 . S
C603 C604 1.387 . S
C603 H606 0.950 . S
C604 C603 1.387 . S
C604 C607 1.387 . S
H605 C601 0.950 1_655 S
H606 C603 0.950 . S
C607 C598 1.390 . S
C607 H600 0.950 . S
C607 C604 1.387 . S
C608 C609 1.387 . S
C608 H612 0.950 . S
C608 C617 1.390 . S
C609 C608 1.387 . S
C609 C611 1.387 . S
H610 C617 0.950 . S
C611 C609 1.387 . S
C611 C613 1.390 . S
C611 H615 0.950 . S
H612 C608 0.950 . S
C613 C611 1.390 . S
C613 C614 1.387 . S
C613 H616 0.950 . S
C614 C613 1.387 . S
C614 C617 1.387 . S
H615 C611 0.950 . S
H616 C613 0.950 . S
C617 C608 1.390 . S
C617 H610 0.950 . S
C617 C614 1.387 . S
C618 C619 1.387 . S
C618 H622 0.950 . S
C618 C627 1.390 . S
C619 C618 1.387 . S
C619 C621 1.387 . S
H620 C627 0.950 . S
C621 C619 1.387 . S
C621 C623 1.390 . S
C621 H625 0.950 . S
H622 C618 0.950 . S
C623 C621 1.390 . S
C623 C624 1.387 . S
C623 H626 0.950 . S
C624 C623 1.387 . S
C624 C627 1.387 . S
H625 C621 0.950 . S
H626 C623 0.950 . S
C627 C618 1.390 . S
C627 H620 0.950 . S
C627 C624 1.387 . S
C628 C629 1.387 . S
C628 H632 0.950 . S
C628 C637 1.390 . S
C629 C628 1.387 . S
C629 C631 1.387 . S
H630 C637 0.950 . S
C631 C629 1.387 . S
C631 C633 1.390 . S
C631 H635 0.950 . S
H632 C628 0.950 . S
C633 C631 1.390 . S
C633 C634 1.387 . S
C633 H636 0.950 . S
C634 C633 1.387 . S
C634 C637 1.387 . S
H635 C631 0.950 . S
H636 C633 0.950 . S
C637 C628 1.390 . S
C637 H630 0.950 . S
C637 C634 1.387 . S
C638 C639 1.387 . S
C638 H642 0.950 . S
C638 C647 1.390 . S
C639 C638 1.387 . S
C639 C641 1.387 . S
H640 C647 0.950 . S
C641 C639 1.387 . S
C641 C643 1.390 . S
C641 H645 0.950 . S
H642 C638 0.950 . S
C643 C641 1.390 . S
C643 C644 1.387 . S
C643 H646 0.950 . S
C644 C643 1.387 . S
C644 C647 1.387 . S
H645 C641 0.950 . S
H646 C643 0.950 . S
C647 C638 1.390 . S
C647 H640 0.950 . S
C647 C644 1.387 . S
C648 C649 1.387 . S
C648 H652 0.950 . S
C648 C657 1.390 1_565 S
C649 C648 1.387 . S
C649 C651 1.387 . S
H650 C657 0.950 . S
C651 C649 1.387 . S
C651 C653 1.390 1_565 S
C651 H655 0.950 . S
H652 C648 0.950 . S
C653 C651 1.390 1_545 S
C653 C654 1.387 . S
C653 H656 0.950 . S
C654 C653 1.387 . S
C654 C657 1.387 . S
H655 C651 0.950 . S
H656 C653 0.950 . S
C657 C648 1.390 1_545 S
C657 H650 0.950 . S
C657 C654 1.387 . S
C658 C659 1.387 . S
C658 H662 0.950 . S
C658 C667 1.390 1_455 S
C659 C658 1.387 . S
C659 C661 1.387 . S
H660 C667 0.950 . S
C661 C659 1.387 . S
C661 C663 1.390 . S
C661 H665 0.950 . S
H662 C658 0.950 . S
C663 C661 1.390 . S
C663 C664 1.387 1_455 S
C663 H666 0.950 . S
C664 C663 1.387 1_655 S
C664 C667 1.387 . S
H665 C661 0.950 . S
H666 C663 0.950 . S
C667 C658 1.390 1_655 S
C667 H660 0.950 . S
C667 C664 1.387 . S
C668 C669 1.387 . S
C668 H672 0.950 . S
C668 C677 1.390 . S
C669 C668 1.387 . S
C669 C671 1.387 . S
H670 C677 0.950 . S
C671 C669 1.387 . S
C671 C673 1.390 . S
C671 H675 0.950 . S
H672 C668 0.950 . S
C673 C671 1.390 . S
C673 C674 1.387 . S
C673 H676 0.950 . S
C674 C673 1.387 . S
C674 C677 1.387 . S
H675 C671 0.950 . S
H676 C673 0.950 . S
C677 C668 1.390 . S
C677 H670 0.950 . S
C677 C674 1.387 . S
C678 C679 1.387 . S
C678 H682 0.950 . S
C678 C687 1.390 1_455 S
C679 C678 1.387 . S
C679 C681 1.387 1_455 S
H680 C687 0.950 . S
C681 C679 1.387 1_655 S
C681 C683 1.390 . S
C681 H685 0.950 1_655 S
H682 C678 0.950 . S
C683 C681 1.390 . S
C683 C684 1.387 . S
C683 H686 0.950 . S
C684 C683 1.387 . S
C684 C687 1.387 . S
H685 C681 0.950 1_455 S
H686 C683 0.950 . S
C687 C678 1.390 1_655 S
C687 H680 0.950 . S
C687 C684 1.387 . S
C688 C689 1.387 . S
C688 H692 0.950 . S
C688 C697 1.390 . S
C689 C688 1.387 . S
C689 C691 1.387 . S
H690 C697 0.950 . S
C691 C689 1.387 . S
C691 C693 1.390 . S
C691 H695 0.950 . S
H692 C688 0.950 . S
C693 C691 1.390 . S
C693 C694 1.387 . S
C693 H696 0.950 . S
C694 C693 1.387 . S
C694 C697 1.387 . S
H695 C691 0.950 . S
H696 C693 0.950 . S
C697 C688 1.390 . S
C697 H690 0.950 . S
C697 C694 1.387 . S
C698 C699 1.387 1_545 S
C698 H702 0.950 . S
C698 C707 1.390 . S
C699 C698 1.387 1_565 S
C699 C701 1.387 1_565 S
H700 C707 0.950 . S
C701 C699 1.387 1_545 S
C701 C703 1.390 . S
C701 H705 0.950 . S
H702 C698 0.950 . S
C703 C701 1.390 . S
C703 C704 1.387 . S
C703 H706 0.950 . S
C704 C703 1.387 . S
C704 C707 1.387 . S
H705 C701 0.950 . S
H706 C703 0.950 . S
C707 C698 1.390 . S
C707 H700 0.950 . S
C707 C704 1.387 . S
C708 C709 1.387 . S
C708 H712 0.950 . S
C708 C717 1.390 . S
C709 C708 1.387 . S
C709 C711 1.387 . S
H710 C717 0.950 . S
C711 C709 1.387 . S
C711 C713 1.390 . S
C711 H715 0.950 . S
H712 C708 0.950 . S
C713 C711 1.390 . S
C713 C714 1.387 . S
C713 H716 0.950 . S
C714 C713 1.387 . S
C714 C717 1.387 . S
H715 C711 0.950 . S
H716 C713 0.950 . S
C717 C708 1.390 . S
C717 H710 0.950 . S
C717 C714 1.387 . S
C718 C719 1.387 . S
C718 H722 0.950 . S
C718 C727 1.390 . S
C719 C718 1.387 . S
C719 C721 1.387 . S
H720 C727 0.950 . S
C721 C719 1.387 . S
C721 C723 1.390 . S
C721 H725 0.950 . S
H722 C718 0.950 . S
C723 C721 1.390 . S
C723 C724 1.387 . S
C723 H726 0.950 . S
C724 C723 1.387 . S
C724 C727 1.387 . S
H725 C721 0.950 . S
H726 C723 0.950 . S
C727 C718 1.390 . S
C727 H720 0.950 . S
C727 C724 1.387 . S
C728 C729 1.387 . S
C728 H732 0.950 . S
C728 C737 1.390 . S
C729 C728 1.387 . S
C729 C731 1.387 . S
H730 C737 0.950 . S
C731 C729 1.387 . S
C731 C733 1.390 . S
C731 H735 0.950 . S
H732 C728 0.950 . S
C733 C731 1.390 . S
C733 C734 1.387 . S
C733 H736 0.950 . S
C734 C733 1.387 . S
C734 C737 1.387 . S
H735 C731 0.950 . S
H736 C733 0.950 . S
C737 C728 1.390 . S
C737 H730 0.950 . S
C737 C734 1.387 . S
C738 C739 1.387 . S
C738 H742 0.950 . S
C738 C747 1.390 . S
C739 C738 1.387 . S
C739 C741 1.387 . S
H740 C747 0.950 . S
C741 C739 1.387 . S
C741 C743 1.390 . S
C741 H745 0.950 . S
H742 C738 0.950 . S
C743 C741 1.390 . S
C743 C744 1.387 . S
C743 H746 0.950 1_565 S
C744 C743 1.387 . S
C744 C747 1.387 . S
H745 C741 0.950 . S
H746 C743 0.950 1_545 S
C747 C738 1.390 . S
C747 H740 0.950 . S
C747 C744 1.387 . S
C748 C749 1.387 . S
C748 H752 0.950 . S
C748 C757 1.390 . S
C749 C748 1.387 . S
C749 C751 1.387 . S
H750 C757 0.950 . S
C751 C749 1.387 . S
C751 C753 1.390 . S
C751 H755 0.950 . S
H752 C748 0.950 . S
C753 C751 1.390 . S
C753 C754 1.387 . S
C753 H756 0.950 . S
C754 C753 1.387 . S
C754 C757 1.387 . S
H755 C751 0.950 . S
H756 C753 0.950 . S
C757 C748 1.390 . S
C757 H750 0.950 . S
C757 C754 1.387 . S
C758 C759 1.387 . S
C758 H762 0.950 . S
C758 C767 1.390 . S
C759 C758 1.387 . S
C759 C761 1.387 . S
H760 C767 0.950 . S
C761 C759 1.387 . S
C761 C763 1.390 . S
C761 H765 0.950 . S
H762 C758 0.950 . S
C763 C761 1.390 . S
C763 C764 1.387 . S
C763 H766 0.950 . S
C764 C763 1.387 . S
C764 C767 1.387 . S
H765 C761 0.950 . S
H766 C763 0.950 . S
C767 C758 1.390 . S
C767 H760 0.950 . S
C767 C764 1.387 . S
C768 C769 1.387 . S
C768 H772 0.950 . S
C768 C777 1.390 . S
C769 C768 1.387 . S
C769 C771 1.387 . S
H770 C777 0.950 . S
C771 C769 1.387 . S
C771 C773 1.390 . S
C771 H775 0.950 . S
H772 C768 0.950 . S
C773 C771 1.390 . S
C773 C774 1.387 . S
C773 H776 0.950 . S
C774 C773 1.387 . S
C774 C777 1.387 . S
H775 C771 0.950 . S
H776 C773 0.950 . S
C777 C768 1.390 . S
C777 H770 0.950 . S
C777 C774 1.387 . S
C778 C779 1.387 . S
C778 H782 0.950 . S
C778 C787 1.390 . S
C779 C778 1.387 . S
C779 C781 1.387 . S
H780 C787 0.950 . S
C781 C779 1.387 . S
C781 C783 1.390 . S
C781 H785 0.950 . S
H782 C778 0.950 . S
C783 C781 1.390 . S
C783 C784 1.387 . S
C783 H786 0.950 . S
C784 C783 1.387 . S
C784 C787 1.387 . S
H785 C781 0.950 . S
H786 C783 0.950 . S
C787 C778 1.390 . S
C787 H780 0.950 . S
C787 C784 1.387 . S
C788 C789 1.387 . S
C788 H792 0.950 . S
C788 C797 1.390 . S
C789 C788 1.387 . S
C789 C791 1.387 . S
H790 C797 0.950 1_565 S
C791 C789 1.387 . S
C791 C793 1.390 . S
C791 H795 0.950 . S
H792 C788 0.950 . S
C793 C791 1.390 . S
C793 C794 1.387 . S
C793 H796 0.950 . S
C794 C793 1.387 . S
C794 C797 1.387 . S
H795 C791 0.950 . S
H796 C793 0.950 . S
C797 C788 1.390 . S
C797 H790 0.950 1_545 S
C797 C794 1.387 . S
C798 C799 1.387 . S
C798 H802 0.950 . S
C798 C807 1.390 . S
C799 C798 1.387 . S
C799 C801 1.387 . S
H800 C807 0.950 . S
C801 C799 1.387 . S
C801 C803 1.390 . S
C801 H805 0.950 . S
H802 C798 0.950 . S
C803 C801 1.390 . S
C803 C804 1.387 . S
C803 H806 0.950 . S
C804 C803 1.387 . S
C804 C807 1.387 . S
H805 C801 0.950 . S
H806 C803 0.950 . S
C807 C798 1.390 . S
C807 H800 0.950 . S
C807 C804 1.387 . S
C808 C809 1.387 . S
C808 H812 0.950 . S
C808 C817 1.390 . S
C809 C808 1.387 . S
C809 C811 1.387 . S
H810 C817 0.950 . S
C811 C809 1.387 . S
C811 C813 1.390 . S
C811 H815 0.950 . S
H812 C808 0.950 . S
C813 C811 1.390 . S
C813 C814 1.387 . S
C813 H816 0.950 . S
C814 C813 1.387 . S
C814 C817 1.387 . S
H815 C811 0.950 . S
H816 C813 0.950 . S
C817 C808 1.390 . S
C817 H810 0.950 . S
C817 C814 1.387 . S
C818 C819 1.387 . S
C818 H822 0.950 . S
C818 C827 1.390 . S
C819 C818 1.387 . S
C819 C821 1.387 . S
H820 C827 0.950 . S
C821 C819 1.387 . S
C821 C823 1.390 . S
C821 H825 0.950 . S
H822 C818 0.950 . S
C823 C821 1.390 . S
C823 C824 1.387 . S
C823 H826 0.950 . S
C824 C823 1.387 . S
C824 C827 1.387 . S
H825 C821 0.950 . S
H826 C823 0.950 . S
C827 C818 1.390 . S
C827 H820 0.950 . S
C827 C824 1.387 . S
C828 C829 1.387 . S
C828 H832 0.950 . S
C828 C837 1.390 . S
C829 C828 1.387 . S
C829 C831 1.387 . S
H830 C837 0.950 . S
C831 C829 1.387 . S
C831 C833 1.390 . S
C831 H835 0.950 . S
H832 C828 0.950 . S
C833 C831 1.390 . S
C833 C834 1.387 . S
C833 H836 0.950 . S
C834 C833 1.387 . S
C834 C837 1.387 . S
H835 C831 0.950 . S
H836 C833 0.950 . S
C837 C828 1.390 . S
C837 H830 0.950 . S
C837 C834 1.387 . S
C838 C839 1.387 . S
C838 H842 0.950 . S
C838 C847 1.390 . S
C839 C838 1.387 . S
C839 C841 1.387 . S
H840 C847 0.950 . S
C841 C839 1.387 . S
C841 C843 1.390 . S
C841 H845 0.950 . S
H842 C838 0.950 . S
C843 C841 1.390 . S
C843 C844 1.387 . S
C843 H846 0.950 . S
C844 C843 1.387 . S
C844 C847 1.387 . S
H845 C841 0.950 . S
H846 C843 0.950 . S
C847 C838 1.390 . S
C847 H840 0.950 . S
C847 C844 1.387 . S
C848 C849 1.387 . S
C848 H852 0.950 . S
C848 C857 1.390 . S
C849 C848 1.387 . S
C849 C851 1.387 . S
H850 C857 0.950 . S
C851 C849 1.387 . S
C851 C853 1.390 . S
C851 H855 0.950 . S
H852 C848 0.950 . S
C853 C851 1.390 . S
C853 C854 1.387 . S
C853 H856 0.950 . S
C854 C853 1.387 . S
C854 C857 1.387 . S
H855 C851 0.950 . S
H856 C853 0.950 . S
C857 C848 1.390 . S
C857 H850 0.950 . S
C857 C854 1.387 . S
C858 C859 1.387 . S
C858 H862 0.950 . S
C858 C867 1.390 . S
C859 C858 1.387 . S
C859 C861 1.387 . S
H860 C867 0.950 . S
C861 C859 1.387 . S
C861 C863 1.390 . S
C861 H865 0.950 . S
H862 C858 0.950 . S
C863 C861 1.390 . S
C863 C864 1.387 . S
C863 H866 0.950 . S
C864 C863 1.387 . S
C864 C867 1.387 . S
H865 C861 0.950 . S
H866 C863 0.950 . S
C867 C858 1.390 . S
C867 H860 0.950 . S
C867 C864 1.387 . S
C868 C869 1.387 . S
C868 H872 0.950 . S
C868 C877 1.390 . S
C869 C868 1.387 . S
C869 C871 1.387 . S
H870 C877 0.950 . S
C871 C869 1.387 . S
C871 C873 1.390 . S
C871 H875 0.950 . S
H872 C868 0.950 . S
C873 C871 1.390 . S
C873 C874 1.387 . S
C873 H876 0.950 . S
C874 C873 1.387 . S
C874 C877 1.387 . S
H875 C871 0.950 . S
H876 C873 0.950 . S
C877 C868 1.390 . S
C877 H870 0.950 . S
C877 C874 1.387 . S
C878 C879 1.387 . S
C878 H882 0.950 . S
C878 C887 1.390 . S
C879 C878 1.387 . S
C879 C881 1.387 . S
H880 C887 0.950 . S
C881 C879 1.387 . S
C881 C883 1.390 . S
C881 H885 0.950 . S
H882 C878 0.950 . S
C883 C881 1.390 . S
C883 C884 1.387 . S
C883 H886 0.950 . S
C884 C883 1.387 . S
C884 C887 1.387 . S
H885 C881 0.950 . S
H886 C883 0.950 . S
C887 C878 1.390 . S
C887 H880 0.950 . S
C887 C884 1.387 . S
C888 C889 1.387 . S
C888 H892 0.950 . S
C888 C897 1.390 . S
C889 C888 1.387 . S
C889 C891 1.387 . S
H890 C897 0.950 . S
C891 C889 1.387 . S
C891 C893 1.390 . S
C891 H895 0.950 . S
H892 C888 0.950 . S
C893 C891 1.390 . S
C893 C894 1.387 . S
C893 H896 0.950 . S
C894 C893 1.387 . S
C894 C897 1.387 . S
H895 C891 0.950 . S
H896 C893 0.950 . S
C897 C888 1.390 . S
C897 H890 0.950 . S
C897 C894 1.387 . S
C898 C899 1.387 . S
C898 H902 0.950 . S
C898 C907 1.390 . S
C899 C898 1.387 . S
C899 C901 1.387 . S
H900 C907 0.950 . S
C901 C899 1.387 . S
C901 C903 1.390 . S
C901 H905 0.950 . S
H902 C898 0.950 . S
C903 C901 1.390 . S
C903 C904 1.387 . S
C903 H906 0.950 . S
C904 C903 1.387 . S
C904 C907 1.387 . S
H905 C901 0.950 . S
H906 C903 0.950 . S
C907 C898 1.390 . S
C907 H900 0.950 . S
C907 C904 1.387 . S
C908 C909 1.387 . S
C908 H912 0.950 . S
C908 C917 1.390 . S
C909 C908 1.387 . S
C909 C911 1.387 . S
H910 C917 0.950 . S
C911 C909 1.387 . S
C911 C913 1.390 . S
C911 H915 0.950 . S
H912 C908 0.950 . S
C913 C911 1.390 . S
C913 C914 1.387 . S
C913 H916 0.950 . S
C914 C913 1.387 . S
C914 C917 1.387 . S
H915 C911 0.950 . S
H916 C913 0.950 . S
C917 C908 1.390 . S
C917 H910 0.950 . S
C917 C914 1.387 . S
C379 C147 1.550 . S
C384 C204 1.529 . S
C389 C158 1.489 . S
C394 C224 1.467 . S
C399 C136 1.505 . S
C404 C247 1.512 . S
C409 C125 1.444 . S
C414 C227 1.448 . S
C424 C244 1.453 . S
C419 C103 1.468 . S
C429 C114 1.505 . S
C434 C207 1.504 1_556 S
C444 C214 1.538 . S
C439 C131 1.569 . S
C454 C234 1.424 . S
C449 C109 1.451 . S
C459 C120 1.529 . S
C464 C239 1.545 1_556 S
C469 C153 1.463 . S
C474 C219 1.476 . S
C479 C164 1.477 . S
C484 C254 1.448 . S
C494 C199 1.557 . S
C489 C142 1.557 . S
C504 C264 1.531 . S
C499 C15 1.551 . S
C509 C26 1.490 . S
C514 C284 1.469 . S
C519 C4 1.505 . S
C524 C307 1.513 . S
C529 C191 1.444 . S
C534 C287 1.448 . S
C539 C169 1.468 . S
C544 C304 1.452 . S
C549 C180 1.505 . S
C554 C267 1.504 . S
C559 C197 1.569 . S
C564 C274 1.539 . S
C569 C175 1.451 . S
C574 C294 1.424 . S
C584 C299 1.545 . S
C579 C186 1.529 . S
C589 C21 1.462 1_565 S
C594 C279 1.476 . S
C604 C314 1.446 . S
C599 C32 1.477 . S
C609 C10 1.556 . S
C614 C259 1.557 . S
C624 C324 1.531 . S
C619 C81 1.551 . S
C629 C92 1.490 . S
C634 C344 1.469 . S
C644 C367 1.512 . S
C639 C70 1.505 . S
C654 C347 1.448 . S
C649 C59 1.444 . S
C664 C364 1.451 . S
C659 C37 1.468 . S
C669 C48 1.505 . S
C674 C327 1.504 . S
C679 C65 1.570 . S
C684 C334 1.541 . S
C689 C43 1.451 . S
C694 C354 1.424 . S
C704 C359 1.545 . S
C699 C54 1.529 . S
C709 C87 1.462 . S
C714 C339 1.476 . S
C719 C98 1.478 . S
C724 C374 1.448 . S
C729 C76 1.557 . S
C734 C319 1.557 . S
C739 C170 1.408 . S
C744 C217 1.356 . S
C754 C237 1.584 . S
C749 C181 1.666 . S
C759 C192 1.511 . S
C764 C246 1.477 . S
C769 C71 1.628 . S
C774 C226 1.581 . S
C779 C82 1.572 . S
C784 C257 1.502 . S
C794 C206 1.357 . S
C789 C93 1.376 . S
C799 C38 1.407 . S
C804 C277 1.352 . S
C809 C49 1.666 . S
C814 C297 1.584 . S
C819 C60 1.511 . S
C824 C306 1.477 . S
C829 C137 1.628 . S
C834 C286 1.580 . S
C844 C317 1.502 . S
C839 C148 1.572 . S
C849 C159 1.377 . S
C854 C266 1.354 . S
C859 C104 1.407 . S
C864 C337 1.353 . S
C869 C115 1.666 . S
C874 C357 1.584 . S
C884 C366 1.477 . S
C879 C126 1.511 . S
C889 C5 1.628 . S
C894 C346 1.581 . S
C899 C16 1.573 . S
C904 C377 1.505 . S
C909 C27 1.376 . S
C914 C326 1.357 . S
