# Generated by pormake.
# Topology ptr, (4,4)-cn, num edge types: 1
# Building blocks:
#     Node 0, Type 0, BuildingBlock: AZAVOO_clean_sbu_0, # of connection points: 4
#     Node 1, Type 0, BuildingBlock: AZAVOO_clean_sbu_0, # of connection points: 4
#     Node 2, Type 0, BuildingBlock: AZAVOO_clean_sbu_0, # of connection points: 4
#     Node 3, Type 0, BuildingBlock: AZAVOO_clean_sbu_0, # of connection points: 4
#     Node 4, Type 0, BuildingBlock: AZAVOO_clean_sbu_0, # of connection points: 4
#     Node 5, Type 0, BuildingBlock: AZAVOO_clean_sbu_0, # of connection points: 4
#     Node 6, Type 0, BuildingBlock: AZAVOO_clean_sbu_0, # of connection points: 4
#     Node 7, Type 0, BuildingBlock: AZAVOO_clean_sbu_0, # of connection points: 4
#     Node 8, Type 0, BuildingBlock: AZAVOO_clean_sbu_0, # of connection points: 4
#     Node 9, Type 0, BuildingBlock: AZAVOO_clean_sbu_0, # of connection points: 4
#     Node 10, Type 0, BuildingBlock: AZAVOO_clean_sbu_0, # of connection points: 4
#     Node 11, Type 0, BuildingBlock: AZAVOO_clean_sbu_0, # of connection points: 4
#     Node 12, Type 0, BuildingBlock: AZAVOO_clean_sbu_0, # of connection points: 4
#     Node 13, Type 0, BuildingBlock: AZAVOO_clean_sbu_0, # of connection points: 4
#     Node 14, Type 0, BuildingBlock: AZAVOO_clean_sbu_0, # of connection points: 4
#     Node 15, Type 0, BuildingBlock: AZAVOO_clean_sbu_0, # of connection points: 4
#     Node 16, Type 0, BuildingBlock: AZAVOO_clean_sbu_0, # of connection points: 4
#     Node 17, Type 0, BuildingBlock: AZAVOO_clean_sbu_0, # of connection points: 4
#     Node 18, Type 1, BuildingBlock: GIZVER_clean_linker_0, # of connection points: 4
#     Node 19, Type 1, BuildingBlock: GIZVER_clean_linker_0, # of connection points: 4
#     Node 20, Type 1, BuildingBlock: GIZVER_clean_linker_0, # of connection points: 4
#     Node 21, Type 1, BuildingBlock: GIZVER_clean_linker_0, # of connection points: 4
#     Node 22, Type 1, BuildingBlock: GIZVER_clean_linker_0, # of connection points: 4
#     Node 23, Type 1, BuildingBlock: GIZVER_clean_linker_0, # of connection points: 4
#     Node 24, Type 1, BuildingBlock: GIZVER_clean_linker_0, # of connection points: 4
#     Node 25, Type 1, BuildingBlock: GIZVER_clean_linker_0, # of connection points: 4
#     Node 26, Type 1, BuildingBlock: GIZVER_clean_linker_0, # of connection points: 4
#     Node 27, Type 1, BuildingBlock: GIZVER_clean_linker_0, # of connection points: 4
#     Node 28, Type 1, BuildingBlock: GIZVER_clean_linker_0, # of connection points: 4
#     Node 29, Type 1, BuildingBlock: GIZVER_clean_linker_0, # of connection points: 4
#     Node 30, Type 1, BuildingBlock: GIZVER_clean_linker_0, # of connection points: 4
#     Node 31, Type 1, BuildingBlock: GIZVER_clean_linker_0, # of connection points: 4
#     Node 32, Type 1, BuildingBlock: GIZVER_clean_linker_0, # of connection points: 4
#     Node 33, Type 1, BuildingBlock: GIZVER_clean_linker_0, # of connection points: 4
#     Node 34, Type 1, BuildingBlock: GIZVER_clean_linker_0, # of connection points: 4
#     Node 35, Type 1, BuildingBlock: GIZVER_clean_linker_0, # of connection points: 4
#     Edge 36, Type (0, 1), BuildingBlock: CIFDUS_clean_linker_0, # of connection points: 2
#     Edge 37, Type (0, 1), BuildingBlock: CIFDUS_clean_linker_0, # of connection points: 2
#     Edge 38, Type (0, 1), BuildingBlock: CIFDUS_clean_linker_0, # of connection points: 2
#     Edge 39, Type (0, 1), BuildingBlock: CIFDUS_clean_linker_0, # of connection points: 2
#     Edge 40, Type (0, 1), BuildingBlock: CIFDUS_clean_linker_0, # of connection points: 2
#     Edge 41, Type (0, 1), BuildingBlock: CIFDUS_clean_linker_0, # of connection points: 2
#     Edge 42, Type (0, 1), BuildingBlock: CIFDUS_clean_linker_0, # of connection points: 2
#     Edge 43, Type (0, 1), BuildingBlock: CIFDUS_clean_linker_0, # of connection points: 2
#     Edge 44, Type (0, 1), BuildingBlock: CIFDUS_clean_linker_0, # of connection points: 2
#     Edge 45, Type (0, 1), BuildingBlock: CIFDUS_clean_linker_0, # of connection points: 2
#     Edge 46, Type (0, 1), BuildingBlock: CIFDUS_clean_linker_0, # of connection points: 2
#     Edge 47, Type (0, 1), BuildingBlock: CIFDUS_clean_linker_0, # of connection points: 2
#     Edge 48, Type (0, 1), BuildingBlock: CIFDUS_clean_linker_0, # of connection points: 2
#     Edge 49, Type (0, 1), BuildingBlock: CIFDUS_clean_linker_0, # of connection points: 2
#     Edge 50, Type (0, 1), BuildingBlock: CIFDUS_clean_linker_0, # of connection points: 2
#     Edge 51, Type (0, 1), BuildingBlock: CIFDUS_clean_linker_0, # of connection points: 2
#     Edge 52, Type (0, 1), BuildingBlock: CIFDUS_clean_linker_0, # of connection points: 2
#     Edge 53, Type (0, 1), BuildingBlock: CIFDUS_clean_linker_0, # of connection points: 2
#     Edge 54, Type (0, 1), BuildingBlock: CIFDUS_clean_linker_0, # of connection points: 2
#     Edge 55, Type (0, 1), BuildingBlock: CIFDUS_clean_linker_0, # of connection points: 2
#     Edge 56, Type (0, 1), BuildingBlock: CIFDUS_clean_linker_0, # of connection points: 2
#     Edge 57, Type (0, 1), BuildingBlock: CIFDUS_clean_linker_0, # of connection points: 2
#     Edge 58, Type (0, 1), BuildingBlock: CIFDUS_clean_linker_0, # of connection points: 2
#     Edge 59, Type (0, 1), BuildingBlock: CIFDUS_clean_linker_0, # of connection points: 2
#     Edge 60, Type (0, 1), BuildingBlock: CIFDUS_clean_linker_0, # of connection points: 2
#     Edge 61, Type (0, 1), BuildingBlock: CIFDUS_clean_linker_0, # of connection points: 2
#     Edge 62, Type (0, 1), BuildingBlock: CIFDUS_clean_linker_0, # of connection points: 2
#     Edge 63, Type (0, 1), BuildingBlock: CIFDUS_clean_linker_0, # of connection points: 2
#     Edge 64, Type (0, 1), BuildingBlock: CIFDUS_clean_linker_0, # of connection points: 2
#     Edge 65, Type (0, 1), BuildingBlock: CIFDUS_clean_linker_0, # of connection points: 2
#     Edge 66, Type (0, 1), BuildingBlock: CIFDUS_clean_linker_0, # of connection points: 2
#     Edge 67, Type (0, 1), BuildingBlock: CIFDUS_clean_linker_0, # of connection points: 2
#     Edge 68, Type (0, 1), BuildingBlock: CIFDUS_clean_linker_0, # of connection points: 2
#     Edge 69, Type (0, 1), BuildingBlock: CIFDUS_clean_linker_0, # of connection points: 2
#     Edge 70, Type (0, 1), BuildingBlock: CIFDUS_clean_linker_0, # of connection points: 2
#     Edge 71, Type (0, 1), BuildingBlock: CIFDUS_clean_linker_0, # of connection points: 2
#     Edge 72, Type (0, 1), BuildingBlock: CIFDUS_clean_linker_0, # of connection points: 2
#     Edge 73, Type (0, 1), BuildingBlock: CIFDUS_clean_linker_0, # of connection points: 2
#     Edge 74, Type (0, 1), BuildingBlock: CIFDUS_clean_linker_0, # of connection points: 2
#     Edge 75, Type (0, 1), BuildingBlock: CIFDUS_clean_linker_0, # of connection points: 2
#     Edge 76, Type (0, 1), BuildingBlock: CIFDUS_clean_linker_0, # of connection points: 2
#     Edge 77, Type (0, 1), BuildingBlock: CIFDUS_clean_linker_0, # of connection points: 2
#     Edge 78, Type (0, 1), BuildingBlock: CIFDUS_clean_linker_0, # of connection points: 2
#     Edge 79, Type (0, 1), BuildingBlock: CIFDUS_clean_linker_0, # of connection points: 2
#     Edge 80, Type (0, 1), BuildingBlock: CIFDUS_clean_linker_0, # of connection points: 2
#     Edge 81, Type (0, 1), BuildingBlock: CIFDUS_clean_linker_0, # of connection points: 2
#     Edge 82, Type (0, 1), BuildingBlock: CIFDUS_clean_linker_0, # of connection points: 2
#     Edge 83, Type (0, 1), BuildingBlock: CIFDUS_clean_linker_0, # of connection points: 2
#     Edge 84, Type (0, 1), BuildingBlock: CIFDUS_clean_linker_0, # of connection points: 2
#     Edge 85, Type (0, 1), BuildingBlock: CIFDUS_clean_linker_0, # of connection points: 2
#     Edge 86, Type (0, 1), BuildingBlock: CIFDUS_clean_linker_0, # of connection points: 2
#     Edge 87, Type (0, 1), BuildingBlock: CIFDUS_clean_linker_0, # of connection points: 2
#     Edge 88, Type (0, 1), BuildingBlock: CIFDUS_clean_linker_0, # of connection points: 2
#     Edge 89, Type (0, 1), BuildingBlock: CIFDUS_clean_linker_0, # of connection points: 2
#     Edge 90, Type (0, 1), BuildingBlock: CIFDUS_clean_linker_0, # of connection points: 2
#     Edge 91, Type (0, 1), BuildingBlock: CIFDUS_clean_linker_0, # of connection points: 2
#     Edge 92, Type (0, 1), BuildingBlock: CIFDUS_clean_linker_0, # of connection points: 2
#     Edge 93, Type (0, 1), BuildingBlock: CIFDUS_clean_linker_0, # of connection points: 2
#     Edge 94, Type (0, 1), BuildingBlock: CIFDUS_clean_linker_0, # of connection points: 2
#     Edge 95, Type (0, 1), BuildingBlock: CIFDUS_clean_linker_0, # of connection points: 2
#     Edge 96, Type (0, 1), BuildingBlock: CIFDUS_clean_linker_0, # of connection points: 2
#     Edge 97, Type (0, 1), BuildingBlock: CIFDUS_clean_linker_0, # of connection points: 2
#     Edge 98, Type (0, 1), BuildingBlock: CIFDUS_clean_linker_0, # of connection points: 2
#     Edge 99, Type (0, 1), BuildingBlock: CIFDUS_clean_linker_0, # of connection points: 2
#     Edge 100, Type (0, 1), BuildingBlock: CIFDUS_clean_linker_0, # of connection points: 2
#     Edge 101, Type (0, 1), BuildingBlock: CIFDUS_clean_linker_0, # of connection points: 2
#     Edge 102, Type (0, 1), BuildingBlock: CIFDUS_clean_linker_0, # of connection points: 2
#     Edge 103, Type (0, 1), BuildingBlock: CIFDUS_clean_linker_0, # of connection points: 2
#     Edge 104, Type (0, 1), BuildingBlock: CIFDUS_clean_linker_0, # of connection points: 2
#     Edge 105, Type (0, 1), BuildingBlock: CIFDUS_clean_linker_0, # of connection points: 2
#     Edge 106, Type (0, 1), BuildingBlock: CIFDUS_clean_linker_0, # of connection points: 2
#     Edge 107, Type (0, 1), BuildingBlock: CIFDUS_clean_linker_0, # of connection points: 2
# Relax obj value: 0.077
# Max RMSD: 0.238
# Mean RMSD: 0.125
data_MOF--net-ptr--node1-AZAVOO_clean_sbu_0--node2-GIZVER_clean_linker_0--edge1-CIFDUS_clean_linker_0
_symmetry_space_group_name_H-M    P1
_symmetry_Int_Tables_number       1
_symmetry_cell_setting            triclinic
loop_
_symmetry_equiv_pos_as_xyz
'x, y, z'
_cell_length_a     71.229728
_cell_length_b     70.212609
_cell_length_c     40.686184
_cell_angle_alpha  91.757116
_cell_angle_beta   91.616774
_cell_angle_gamma 120.03831
loop_
_atom_site_label
_atom_site_type_symbol
_atom_site_fract_x
_atom_site_fract_y
_atom_site_fract_z
_atom_type_partial_charge
Mg0 Mg 1.00177 0.36446 0.97616 0.0
O1 O 1.00104 0.38248 0.02407 0.0
O2 O 0.97676 0.39334 0.01512 0.0
Mg3 Mg 0.96178 0.38214 0.96301 0.0
C4 C 0.99086 0.39219 0.03371 0.0
C5 C 0.03792 0.35249 0.9894 0.0
O6 O 0.04437 0.36277 0.96195 0.0
O7 O 0.96943 0.33419 0.98726 0.0
O8 O 0.94609 0.34589 0.97642 0.0
O9 O 0.027 0.39637 0.95717 0.0
O10 O 0.99172 0.38283 0.94912 0.0
C11 C 0.95007 0.33083 0.98488 0.0
C12 C 0.01119 0.39873 0.94566 0.0
O13 O 0.02098 0.35072 0.00202 0.0
Mg14 Mg 0.61629 0.62915 0.04475 0.0
O15 O 0.59718 0.6125 -0.00381 0.0
O16 O 0.56241 0.60247 0.00239 0.0
Mg17 Mg 0.55935 0.61286 0.05491 0.0
C18 C 0.57752 0.6036 0.98493 0.0
C19 C 0.66097 0.63477 0.02987 0.0
O20 O 0.65508 0.62144 0.05428 0.0
O21 O 0.61489 0.66016 0.03414 0.0
O22 O 0.58041 0.64963 0.04403 0.0
O23 O 0.60892 0.59652 0.06248 0.0
O24 O 0.58829 0.61125 0.07082 0.0
C25 C 0.59944 0.66433 0.03653 0.0
C26 C 0.5914 0.5948 0.07392 0.0
O27 O 0.6484 0.64155 0.01963 0.0
Mg28 Mg 0.39472 0.01232 0.98168 0.0
O29 O 0.41346 0.013 0.02871 0.0
O30 O 0.44873 0.03651 0.02292 0.0
Mg31 Mg 0.45245 0.05103 0.97252 0.0
C32 C 0.43325 0.02269 0.0396 0.0
C33 C 0.34793 0.97589 0.99439 0.0
O34 O 0.3519 0.96718 0.96837 0.0
O35 O 0.39882 0.04557 -0.00343 0.0
O36 O 0.43373 0.06859 0.98771 0.0
O37 O 0.39941 0.98574 0.95952 0.0
O38 O 0.42204 0.02132 0.95508 0.0
C39 C 0.41509 0.06503 -0.00403 0.0
C40 C 0.41747 1.0013 0.94916 0.0
O41 O 0.36262 0.99457 0.00653 0.0
Mg42 Mg 1.0031 0.64737 0.03043 0.0
O43 O 0.00917 0.6294 0.98654 0.0
O44 O 0.03632 0.62422 0.00442 0.0
Mg45 Mg 0.04662 0.63692 0.0576 0.0
C46 C 0.0225 0.62241 0.98205 0.0
C47 C 0.96366 0.65138 0.01304 0.0
O48 O 0.9598 0.64177 0.04123 0.0
O49 O 0.0345 0.67978 0.02114 0.0
O50 O 0.05934 0.67182 0.04038 0.0
O51 O 0.97891 0.61494 0.04948 0.0
O52 O 0.01405 0.63205 0.06252 0.0
C53 C 0.05427 0.68517 0.02774 0.0
C54 C 0.99513 0.61492 0.06449 0.0
O55 O 0.98151 0.65656 -0.00021 0.0
Mg56 Mg 0.37708 0.38722 0.96674 0.0
O57 O 0.4012 0.40265 0.01177 0.0
O58 O 0.43427 0.41107 -0.00426 0.0
Mg59 Mg 0.43083 0.399 0.94208 0.0
C60 C 0.42161 0.41074 0.01756 0.0
C61 C 0.33146 0.37727 0.98928 0.0
O62 O 0.3319 0.38685 0.96185 0.0
O63 O 0.37702 0.35513 0.97331 0.0
O64 O 0.40978 0.36312 0.95714 0.0
O65 O 0.38461 0.4204 0.95018 0.0
O66 O 0.4025 0.40339 0.93633 0.0
C67 C 0.39128 0.34963 0.96795 0.0
C68 C 0.40056 0.42063 0.93532 0.0
O69 O 0.34786 0.37571 -0.00161 0.0
Mg70 Mg 0.6327 0.01441 0.04223 0.0
O71 O 0.61157 0.00642 0.99447 0.0
O72 O 0.58022 0.97541 0.00118 0.0
Mg73 Mg 0.58052 0.96467 0.05353 0.0
C74 C 0.59277 0.99119 0.98362 0.0
C75 C 0.66424 0.05434 0.00092 0.0
O76 O 0.6469 0.05631 -0.00251 0.0
O77 O 0.63856 0.986 0.02967 0.0
O78 O 0.60703 0.95643 0.04052 0.0
O79 O 0.61948 0.03475 0.0635 0.0
O80 O 0.6049 0.99894 0.06872 0.0
C81 C 0.62665 0.9652 0.0319 0.0
C82 C 0.60411 0.01666 0.07436 0.0
O83 O 0.66324 0.03867 0.01706 0.0
Mg84 Mg 0.67435 0.69391 0.30306 0.0
O85 O 0.6704 0.71045 0.35019 0.0
O86 O 0.63805 0.70845 0.34498 0.0
Mg87 Mg 0.62239 0.69279 0.29444 0.0
C88 C 0.65577 0.71405 0.36126 0.0
C89 C 0.71167 0.68289 0.31189 0.0
O90 O 0.70413 0.67427 0.282 0.0
O91 O 0.64913 0.65938 0.31859 0.0
O92 O 0.61822 0.65983 0.31011 0.0
O93 O 0.69015 0.72648 0.27991 0.0
O94 O 0.65486 0.70304 0.27659 0.0
C95 C 0.62841 0.6499 0.31838 0.0
C96 C 0.67083 0.72205 0.27025 0.0
O97 O 0.70259 0.69183 0.32754 0.0
Mg98 Mg 0.29619 0.97156 0.38348 0.0
O99 O 0.27604 0.95337 0.33578 0.0
O100 O 0.24253 0.94771 0.34148 0.0
Mg101 Mg 0.24112 0.96221 0.39166 0.0
C102 C 0.25643 0.94572 0.32483 0.0
C103 C 0.34517 0.99689 0.36269 0.0
O104 O 0.34526 0.01401 0.37679 0.0
O105 O 0.29894 0.00409 0.36831 0.0
O106 O 0.26537 0.99731 0.37702 0.0
O107 O 0.2854 0.93934 0.40582 0.0
O108 O 0.26798 0.95787 0.40978 0.0
C109 C 0.28483 0.01027 0.36907 0.0
C110 C 0.26881 0.94038 0.41569 0.0
O111 O 0.32767 0.97837 0.36034 0.0
Mg112 Mg 0.05484 0.34315 0.30995 0.0
O113 O 0.07313 0.34618 0.35821 0.0
O114 O 0.1073 0.37384 0.35831 0.0
Mg115 Mg 0.11085 0.38851 0.30771 0.0
C116 C 0.09185 0.35802 0.37245 0.0
C117 C 0.00485 0.30822 0.32183 0.0
O118 O 1.00155 0.30754 0.28978 0.0
O119 O 0.05289 0.37347 0.3252 0.0
O120 O 0.08708 0.40058 0.32058 0.0
O121 O 0.06568 0.32104 0.28772 0.0
O122 O 0.08363 0.35729 0.28554 0.0
C123 C 0.06725 0.3939 0.32656 0.0
C124 C 0.08249 0.33872 0.27854 0.0
O125 O 0.02377 0.32075 0.3349 0.0
Mg126 Mg 0.66384 0.96499 0.37274 0.0
O127 O 0.66656 0.94879 0.32403 0.0
O128 O 0.69784 0.94856 0.32891 0.0
Mg129 Mg 0.71496 0.964 0.37865 0.0
C130 C 0.6804 0.94405 0.31262 0.0
C131 C 0.61637 0.95395 0.35428 0.0
O132 O 0.61272 0.93569 0.36765 0.0
O133 O 0.68967 0.99935 0.3575 0.0
O134 O 0.71987 0.99736 0.36396 0.0
O135 O 0.64737 0.93202 0.39526 0.0
O136 O 0.68284 0.95418 0.39682 0.0
C137 C 0.71029 0.00805 0.35677 0.0
C138 C 0.66655 0.93539 0.40308 0.0
O139 O 0.63591 0.96919 0.35141 0.0
Mg140 Mg 0.05192 0.7162 0.30236 0.0
O141 O 0.07244 0.73181 0.35091 0.0
O142 O 0.10504 0.73533 0.34313 0.0
Mg143 Mg 0.10592 0.72333 0.29103 0.0
C144 C 0.09179 0.73751 0.36119 0.0
C145 C 0.01718 0.72269 0.33913 0.0
O146 O 0.03336 0.74312 0.34188 0.0
O147 O 0.04805 0.6827 0.31405 0.0
O148 O 0.0811 0.68828 0.30435 0.0
O149 O 0.06342 0.74953 0.28305 0.0
O150 O 0.08027 0.73056 0.27689 0.0
C151 C 0.06159 0.67583 0.31245 0.0
C152 C 0.07995 0.74852 0.27281 0.0
O153 O 0.02015 0.70786 0.32579 0.0
Mg154 Mg 0.28985 0.32269 0.36218 0.0
O155 O 0.26983 0.31544 0.31379 0.0
O156 O 0.23667 0.28649 0.31921 0.0
Mg157 Mg 0.23602 0.2743 0.37074 0.0
C158 C 0.25065 0.30174 0.30235 0.0
C159 C 0.33918 0.35622 0.35156 0.0
O160 O 0.34156 0.35019 0.38092 0.0
O161 O 0.29479 0.29371 0.34963 0.0
O162 O 0.26195 0.26516 0.35803 0.0
O163 O 0.27687 0.34343 0.38221 0.0
O164 O 0.26155 0.3076 0.38798 0.0
C165 C 0.28173 0.27299 0.35067 0.0
C166 C 0.2611 0.32556 0.39292 0.0
O167 O 0.32035 0.34724 0.33732 0.0
Mg168 Mg 0.34831 0.0348 0.64299 0.0
O169 O 0.34943 0.05292 0.69189 0.0
O170 O 0.32286 0.06107 0.68784 0.0
Mg171 Mg 0.30418 0.04736 0.63839 0.0
C172 C 0.3389 0.06169 0.70369 0.0
C173 C 0.39162 0.04044 0.67124 0.0
O174 O 0.39621 0.06094 0.66896 0.0
O175 O 0.31877 0.00328 0.65849 0.0
O176 O 0.2925 0.01168 0.65291 0.0
O177 O 0.36973 0.06695 0.62147 0.0
O178 O 0.33396 0.05058 0.61866 0.0
C179 C 0.29885 0.99807 0.65966 0.0
C180 C 0.35239 0.06755 0.61309 0.0
O181 O 0.37233 0.025 0.6639 0.0
Mg182 Mg 0.95882 0.30422 0.70722 0.0
O183 O 0.93905 0.28769 0.65875 0.0
O184 O 0.90526 0.28128 0.66536 0.0
Mg185 Mg 0.90275 0.29099 0.71844 0.0
C186 C 0.91957 0.28071 0.64783 0.0
C187 C 1.00286 0.30788 0.68936 0.0
O188 O 0.99585 0.2918 0.70971 0.0
O189 O 0.959 0.33628 0.69727 0.0
O190 O 0.92515 0.32748 0.70835 0.0
O191 O 0.95015 0.2712 0.72522 0.0
O192 O 0.93071 0.28728 0.73311 0.0
C193 C 0.94433 0.3415 0.70054 0.0
C194 C 0.93293 0.27033 0.73646 0.0
O195 O 0.99106 0.31624 0.68245 0.0
Mg196 Mg 0.72311 0.66609 0.63077 0.0
O197 O 0.74037 0.66584 0.6791 0.0
O198 O 0.77512 0.69241 0.67812 0.0
Mg199 Mg 0.78022 0.70929 0.6295 0.0
C200 C 0.75957 0.67673 0.69237 0.0
C201 C 0.67472 0.64825 0.64861 0.0
O202 O 0.67816 0.66629 0.63474 0.0
O203 O 0.72348 0.69726 0.64898 0.0
O204 O 0.75815 0.72309 0.64422 0.0
O205 O 0.73171 0.64295 0.60579 0.0
O206 O 0.75213 0.6792 0.60714 0.0
C207 C 0.73864 0.71738 0.65088 0.0
C208 C 0.74949 0.66023 0.59817 0.0
O209 O 0.69001 0.64391 0.65116 0.0
Mg210 Mg 0.33958 0.30987 0.70221 0.0
O211 O 0.34322 0.29076 0.65711 0.0
O212 O 0.36923 0.28328 0.67315 0.0
Mg213 Mg 0.38379 0.29905 0.72386 0.0
C214 C 0.35491 0.28186 0.65209 0.0
C215 C 0.29903 0.31271 0.68969 0.0
O216 O 0.29598 0.30195 0.71668 0.0
O217 O 0.3703 0.34159 0.68917 0.0
O218 O 0.39572 0.33338 0.70427 0.0
O219 O 0.31656 0.27793 0.72444 0.0
O220 O 0.35217 0.29532 0.73273 0.0
C221 C 0.3902 0.34668 0.69269 0.0
C222 C 0.33358 0.27833 0.73713 0.0
O223 O 0.3166 0.31892 0.675 0.0
Mg224 Mg 0.70117 0.03841 0.62454 0.0
O225 O 0.7207 0.05442 0.67321 0.0
O226 O 0.75513 0.06288 0.66697 0.0
Mg227 Mg 0.75711 0.05081 0.61517 0.0
C228 C 0.74032 0.06255 0.68429 0.0
C229 C 0.66714 0.04232 0.6657 0.0
O230 O 0.68351 0.06262 0.6694 0.0
O231 O 0.70038 0.00666 0.63684 0.0
O232 O 0.73448 0.01485 0.62883 0.0
O233 O 0.71013 0.07104 0.60491 0.0
O234 O 0.72941 0.05451 0.59909 0.0
C235 C 0.71506 1.00128 0.63633 0.0
C236 C 0.72732 0.07144 0.59446 0.0
O237 O 0.66941 0.02807 0.64902 0.0
Mg238 Mg 0.95886 0.67409 0.70113 0.0
O239 O 0.94208 0.66854 0.65005 0.0
O240 O 0.90924 0.63829 0.6503 0.0
Mg241 Mg 0.90556 0.62396 0.70093 0.0
C242 C 0.92383 0.65466 0.63583 0.0
C243 C 0.99205 0.71723 0.67028 0.0
O244 O 0.97438 0.71866 0.66776 0.0
O245 O 0.96583 0.64655 0.68853 0.0
O246 O 0.93319 0.61651 0.6918 0.0
O247 O 0.94367 0.69303 0.72015 0.0
O248 O 0.92898 0.65699 0.72224 0.0
C249 C 0.95354 0.62563 0.68734 0.0
C250 C 0.92761 0.67437 0.7281 0.0
O251 O 0.99101 0.70025 0.68232 0.0
H252 H 0.14612 0.29601 0.12922 0.0
H253 H 0.13362 0.30769 0.02943 0.0
H254 H 0.11033 0.32868 0.11143 0.0
H255 H 0.14655 0.27355 0.07184 0.0
H256 H 0.15495 0.2906 0.03748 0.0
H257 H 0.16971 0.28495 0.12422 0.0
H258 H 0.23679 0.33414 0.11881 0.0
H259 H 0.19292 0.31812 0.0346 0.0
C260 C 0.13998 0.30309 0.11181 0.0
C261 C 0.12882 0.31324 0.12384 0.0
C262 C 0.1429 0.302 0.07777 0.0
C263 C 0.13266 0.3096 0.05575 0.0
C264 C 0.12019 0.31855 0.06775 0.0
C265 C 0.11935 0.32121 0.10184 0.0
C266 C 0.15514 0.291 0.06484 0.0
C267 C 0.17835 0.30204 0.07903 0.0
C268 C 0.18269 0.29767 0.11104 0.0
C269 C 0.20368 0.30935 0.12595 0.0
C270 C 0.2206 0.3244 0.10744 0.0
C271 C 0.2173 0.32641 0.07388 0.0
C272 C 0.19589 0.3161 0.06016 0.0
H273 H 0.6931 0.83476 0.14559 0.0
H274 H 0.66737 0.81468 0.04524 0.0
H275 H 0.65044 0.76647 0.11787 0.0
H276 H 0.71018 0.85909 0.09747 0.0
H277 H 0.69573 0.85211 0.05835 0.0
H278 H 0.69407 0.86812 0.14693 0.0
H279 H 0.66047 0.90262 0.12179 0.0
H280 H 0.67059 0.8649 0.04685 0.0
C281 C 0.68249 0.82209 0.1273 0.0
C282 C 0.67121 0.80006 0.13599 0.0
C283 C 0.6806 0.82767 0.09482 0.0
C284 C 0.66804 0.81077 0.07066 0.0
C285 C 0.65696 0.78872 0.07921 0.0
C286 C 0.65826 0.78365 0.11185 0.0
C287 C 0.69362 0.85133 0.08537 0.0
C288 C 0.68318 0.8646 0.09588 0.0
C289 C 0.68542 0.8723 0.12897 0.0
C290 C 0.67691 0.88572 0.13883 0.0
C291 C 0.66631 0.8915 0.11504 0.0
C292 C 0.66398 0.88404 0.08211 0.0
C293 C 0.67218 0.8704 0.07249 0.0
H294 H 0.17558 0.83891 0.1497 0.0
H295 H 0.16492 0.81443 0.04872 0.0
H296 H 0.1111 0.80246 0.10689 0.0
H297 H 0.19908 0.82463 0.11629 0.0
H298 H 0.19977 0.82876 0.07351 0.0
H299 H 0.21123 0.85695 0.15789 0.0
H300 H 0.2633 0.9169 0.12527 0.0
H301 H 0.22145 0.86489 0.05416 0.0
C302 C 0.165 0.83171 0.12789 0.0
C303 C 0.14256 0.82221 0.13106 0.0
C304 C 0.17339 0.82949 0.09806 0.0
C305 C 0.15882 0.81768 0.07104 0.0
C306 C 0.13622 0.80792 0.07392 0.0
C307 C 0.12844 0.81126 0.10358 0.0
C308 C 0.19672 0.83452 0.0975 0.0
C309 C 0.2136 0.85851 0.10495 0.0
C310 C 0.21946 0.86712 0.13774 0.0
C311 C 0.23701 0.8884 0.1449 0.0
C312 C 0.24914 0.9009 0.11924 0.0
C313 C 0.24385 0.89264 0.08636 0.0
C314 C 0.22565 0.87157 0.07936 0.0
H315 H 0.37602 0.19803 0.84854 0.0
H316 H 0.3993 0.22578 0.94709 0.0
H317 H 0.35899 0.24347 0.89073 0.0
H318 H 0.41194 0.20351 0.87803 0.0
H319 H 0.41336 0.20505 0.92185 0.0
H320 H 0.38221 0.16986 0.84654 0.0
H321 H 0.35968 0.10982 0.89595 0.0
H322 H 0.39457 0.17199 0.95119 0.0
C323 C 0.37581 0.20748 0.86984 0.0
C324 C 0.36502 0.21947 0.86697 0.0
C325 C 0.3877 0.20908 0.89903 0.0
C326 C 0.38902 0.22328 0.92535 0.0
C327 C 0.37849 0.23561 0.92262 0.0
C328 C 0.36592 0.23292 0.89383 0.0
C329 C 0.40182 0.19865 0.89992 0.0
C330 C 0.38863 0.1738 0.89931 0.0
C331 C 0.37972 0.16152 0.86929 0.0
C332 C 0.36897 0.13845 0.86807 0.0
C333 C 0.36721 0.12763 0.89713 0.0
C334 C 0.37656 0.13959 0.92714 0.0
C335 C 0.38689 0.16268 0.92822 0.0
H336 H 0.84776 0.16641 0.86213 0.0
H337 H 0.86011 0.18158 0.96699 0.0
H338 H 0.87936 0.23336 0.89966 0.0
H339 H 0.84942 0.13969 0.90769 0.0
H340 H 0.84224 0.14383 0.94786 0.0
H341 H 0.82372 0.12941 0.85979 0.0
H342 H 0.75648 0.10484 0.8781 0.0
H343 H 0.80482 0.13412 0.95764 0.0
C344 C 0.85322 0.17809 0.88305 0.0
C345 C 0.86284 0.20056 0.87743 0.0
C346 C 0.85112 0.1709 0.91547 0.0
C347 C 0.86033 0.18672 0.9421 0.0
C348 C 0.8704 0.20928 0.93637 0.0
C349 C 0.87093 0.21591 0.90417 0.0
C350 C 0.84066 0.14656 0.92137 0.0
C351 C 0.81698 0.13422 0.90957 0.0
C352 C 0.81118 0.12717 0.87625 0.0
C353 C 0.78942 0.11689 0.86429 0.0
C354 C 0.77335 0.11289 0.8867 0.0
C355 C 0.7786 0.11824 0.9205 0.0
C356 C 0.80055 0.12947 0.9317 0.0
H357 H 0.81499 0.62661 0.85731 0.0
H358 H 0.83265 0.63419 0.96094 0.0
H359 H 0.88149 0.65785 0.88861 0.0
H360 H 0.78974 0.60133 0.90176 0.0
H361 H 0.79572 0.61129 0.94363 0.0
H362 H 0.78603 0.6281 0.85937 0.0
H363 H 0.74164 0.64669 0.89507 0.0
H364 H 0.77575 0.62732 0.96318 0.0
C365 C 0.82701 0.63366 0.87748 0.0
C366 C 0.84888 0.64484 0.87014 0.0
C367 C 0.82091 0.6306 0.91035 0.0
C368 C 0.8373 0.63743 0.93572 0.0
C369 C 0.8594 0.64688 0.92837 0.0
C370 C 0.86486 0.65127 0.89546 0.0
C371 C 0.79713 0.61665 0.91793 0.0
C372 C 0.7837 0.62772 0.9123 0.0
C373 C 0.77923 0.63182 0.88022 0.0
C374 C 0.76461 0.63928 0.87419 0.0
C375 C 0.75368 0.64194 0.90034 0.0
C376 C 0.75735 0.63756 0.93264 0.0
C377 C 0.77282 0.63091 0.93848 0.0
H378 H 0.81668 0.62346 0.44752 0.0
H379 H 0.81612 0.64805 0.35165 0.0
H380 H 0.77883 0.65375 0.42902 0.0
H381 H 0.82925 0.61167 0.39481 0.0
H382 H 0.83544 0.62846 0.36011 0.0
H383 H 0.84971 0.63083 0.45108 0.0
H384 H 0.91616 0.6803 0.44238 0.0
H385 H 0.87261 0.65584 0.35661 0.0
C386 C 0.812 0.63221 0.4309 0.0
C387 C 0.79829 0.63959 0.44196 0.0
C388 C 0.81945 0.6361 0.39873 0.0
C389 C 0.81119 0.64573 0.37684 0.0
C390 C 0.79625 0.65199 0.3874 0.0
C391 C 0.79039 0.64923 0.42027 0.0
C392 C 0.83512 0.6288 0.38744 0.0
C393 C 0.85793 0.64334 0.40273 0.0
C394 C 0.86228 0.64268 0.43651 0.0
C395 C 0.88306 0.65637 0.45143 0.0
C396 C 0.89996 0.6699 0.43147 0.0
C397 C 0.89661 0.66905 0.39717 0.0
C398 C 0.87538 0.65629 0.38302 0.0
H399 H 0.36377 0.17488 0.49839 0.0
H400 H 0.35842 0.16039 0.39355 0.0
H401 H 0.32357 0.10852 0.45884 0.0
H402 H 0.39137 0.20059 0.45975 0.0
H403 H 0.38551 0.19639 0.41631 0.0
H404 H 0.37449 0.21636 0.49486 0.0
H405 H 0.34228 0.24648 0.44629 0.0
H406 H 0.35867 0.20461 0.39023 0.0
C407 C 0.35638 0.16332 0.47732 0.0
C408 C 0.3424 0.14092 0.48229 0.0
C409 C 0.36171 0.17065 0.44524 0.0
C410 C 0.35342 0.15516 0.41814 0.0
C411 C 0.33935 0.13277 0.42308 0.0
C412 C 0.33348 0.126 0.455 0.0
C413 C 0.37797 0.19453 0.44046 0.0
C414 C 0.36749 0.20862 0.44246 0.0
C415 C 0.36724 0.21881 0.4728 0.0
C416 C 0.35848 0.23287 0.47435 0.0
C417 C 0.34944 0.236 0.44548 0.0
C418 C 0.34959 0.22603 0.4153 0.0
C419 C 0.35845 0.21221 0.41371 0.0
H420 H 0.84278 0.15446 0.47985 0.0
H421 H 0.83417 0.13755 0.3758 0.0
H422 H 0.77927 0.11263 0.43689 0.0
H423 H 0.87206 0.15276 0.44213 0.0
H424 H 0.86988 0.15685 0.3996 0.0
H425 H 0.87526 0.18205 0.48537 0.0
H426 H 0.9114 0.24795 0.45478 0.0
H427 H 0.88755 0.1936 0.38292 0.0
C428 C 0.83242 0.14742 0.45786 0.0
C429 C 0.81 0.13486 0.46125 0.0
C430 C 0.84137 0.14934 0.4269 0.0
C431 C 0.82737 0.13753 0.3993 0.0
C432 C 0.80483 0.12409 0.40262 0.0
C433 C 0.79635 0.12379 0.43346 0.0
C434 C 0.86582 0.16031 0.42446 0.0
C435 C 0.8777 0.18495 0.43257 0.0
C436 C 0.88091 0.19315 0.46551 0.0
C437 C 0.8924 0.21585 0.47334 0.0
C438 C 0.90182 0.23043 0.44834 0.0
C439 C 0.90125 0.22257 0.41596 0.0
C440 C 0.88817 0.19986 0.40784 0.0
H441 H 0.02279 0.52575 0.18275 0.0
H442 H 0.02841 0.54075 0.28712 0.0
H443 H 0.9985 0.56593 0.22197 0.0
H444 H 0.05135 0.52531 0.22083 0.0
H445 H 0.04885 0.52573 0.2642 0.0
H446 H 0.02023 0.49264 0.1852 0.0
H447 H 1.00145 0.43135 0.2289 0.0
H448 H 0.03264 0.4916 0.28908 0.0
C449 C 0.01867 0.53236 0.20393 0.0
C450 C 0.00847 0.54477 0.19891 0.0
C451 C 0.02522 0.53011 0.23583 0.0
C452 C 0.02193 0.54098 0.2628 0.0
C453 C 0.01229 0.554 0.25798 0.0
C454 C 0.00471 0.55486 0.22617 0.0
C455 C 0.03928 0.51979 0.24027 0.0
C456 C 0.02639 0.4949 0.23789 0.0
C457 C 0.01814 0.48355 0.20707 0.0
C458 C 0.00897 0.46061 0.20377 0.0
C459 C 0.00774 0.44896 0.23171 0.0
C460 C 0.01643 0.45999 0.26251 0.0
C461 C 0.02533 0.48293 0.26558 0.0
H462 H 0.51279 0.48938 0.20173 0.0
H463 H 0.52956 0.50466 0.30588 0.0
H464 H 0.54358 0.55621 0.24001 0.0
H465 H 0.51949 0.46419 0.24475 0.0
H466 H 0.5135 0.46723 0.28613 0.0
H467 H 0.49123 0.452 0.19917 0.0
H468 H 0.42505 0.41698 0.22638 0.0
H469 H 0.476 0.45378 0.30058 0.0
C470 C 0.5187 0.50101 0.22275 0.0
C471 C 0.52723 0.52343 0.21748 0.0
C472 C 0.51852 0.49383 0.25484 0.0
C473 C 0.52831 0.50969 0.28138 0.0
C474 C 0.53727 0.53218 0.27591 0.0
C475 C 0.53604 0.53875 0.24424 0.0
C476 C 0.51026 0.46969 0.26015 0.0
C477 C 0.48628 0.4553 0.25073 0.0
C478 C 0.47935 0.44777 0.21771 0.0
C479 C 0.45722 0.43413 0.2087 0.0
C480 C 0.4421 0.42775 0.2332 0.0
C481 C 0.44857 0.43437 0.26643 0.0
C482 C 0.47076 0.44847 0.27503 0.0
H483 H 0.49088 0.97169 0.20135 0.0
H484 H 0.50467 0.96707 0.30364 0.0
H485 H 0.55647 0.99918 0.23785 0.0
H486 H 0.46339 0.9419 0.24099 0.0
H487 H 0.46787 0.94911 0.28395 0.0
H488 H 0.4595 0.9686 0.2018 0.0
H489 H 0.42229 0.99523 0.24173 0.0
H490 H 0.45063 0.96796 0.30625 0.0
C491 C 0.50219 0.97633 0.22227 0.0
C492 C 0.52442 0.98759 0.21667 0.0
C493 C 0.49477 0.96994 0.25403 0.0
C494 C 0.51012 0.97348 0.27971 0.0
C495 C 0.53245 0.984 0.27395 0.0
C496 C 0.53939 0.99185 0.24279 0.0
C497 C 0.47059 0.95617 0.25926 0.0
C498 C 0.45834 0.96857 0.25497 0.0
C499 C 0.45417 0.97358 0.22329 0.0
C500 C 0.4416 0.98358 0.21864 0.0
C501 C 0.43262 0.98816 0.24568 0.0
C502 C 0.43554 0.98238 0.27726 0.0
C503 C 0.44866 0.97283 0.28195 0.0
H504 H 0.48831 0.97295 0.80663 0.0
H505 H 0.47252 0.9752 0.70411 0.0
H506 H 0.46179 0.01298 0.77871 0.0
H507 H 0.48011 0.94162 0.7573 0.0
H508 H 0.48812 0.953 0.71808 0.0
H509 H 0.50666 0.95515 0.80575 0.0
H510 H 0.57435 0.99065 0.78617 0.0
H511 H 0.52659 0.97809 0.70886 0.0
C512 C 0.48325 0.97977 0.78721 0.0
C513 C 0.47633 0.99457 0.79593 0.0
C514 C 0.48299 0.97342 0.75396 0.0
C515 C 0.47405 0.98093 0.72961 0.0
C516 C 0.46646 0.99537 0.73843 0.0
C517 C 0.46835 0.00255 0.77148 0.0
C518 C 0.49044 0.95721 0.74502 0.0
C519 C 0.51393 0.96592 0.75619 0.0
C520 C 0.5194 0.9639 0.78895 0.0
C521 C 0.5412 0.9737 0.80041 0.0
C522 C 0.55751 0.9841 0.77805 0.0
C523 C 0.55241 0.98548 0.74502 0.0
C524 C 0.53059 0.97666 0.73423 0.0
H525 H 0.02495 0.5087 0.82682 0.0
H526 H 0.01157 0.49171 0.7224 0.0
H527 H 0.98953 0.44095 0.79197 0.0
H528 H 0.04546 0.53614 0.7834 0.0
H529 H 0.03565 0.52976 0.74129 0.0
H530 H 0.02404 0.54254 0.82584 0.0
H531 H 0.98096 0.56413 0.7893 0.0
H532 H 0.00597 0.53503 0.7221 0.0
C533 C 0.01745 0.49649 0.80656 0.0
C534 C 0.00657 0.4741 0.81301 0.0
C535 C 0.01878 0.50307 0.77388 0.0
C536 C 0.00996 0.4869 0.74768 0.0
C537 C 0.99931 0.46447 0.75429 0.0
C538 C 0.99736 0.45831 0.7869 0.0
C539 C 0.03046 0.52725 0.7671 0.0
C540 C 0.01619 0.5371 0.77341 0.0
C541 C 0.0148 0.54416 0.80562 0.0
C542 C 1.00186 0.55369 0.81169 0.0
C543 C 0.99026 0.55594 0.78524 0.0
C544 C 0.99176 0.54937 0.75308 0.0
C545 C 0.0046 0.53982 0.74711 0.0
H546 H 0.51269 0.49891 0.81426 0.0
H547 H 0.50024 0.47747 0.71183 0.0
H548 H 0.44747 0.46052 0.77509 0.0
H549 H 0.53859 0.49143 0.77777 0.0
H550 H 0.53609 0.49313 0.73453 0.0
H551 H 0.54569 0.525 0.81603 0.0
H552 H 0.59077 0.58629 0.77693 0.0
H553 H 0.55716 0.52807 0.71254 0.0
C554 C 0.50162 0.49178 0.79301 0.0
C555 C 0.47929 0.48117 0.79782 0.0
C556 C 0.50951 0.49127 0.76186 0.0
C557 C 0.49447 0.47944 0.73534 0.0
C558 C 0.47198 0.4684 0.73989 0.0
C559 C 0.46466 0.47019 0.77088 0.0
C560 C 0.53345 0.49911 0.75864 0.0
C561 C 0.54805 0.52388 0.76319 0.0
C562 C 0.55261 0.53444 0.79476 0.0
C563 C 0.56753 0.55702 0.7997 0.0
C564 C 0.57859 0.56903 0.77292 0.0
C565 C 0.57523 0.55864 0.74158 0.0
C566 C 0.55957 0.53618 0.73665 0.0
H567 H 0.69302 0.84857 0.51692 0.0
H568 H 0.72116 0.87696 0.61363 0.0
H569 H 0.67581 0.89189 0.566 0.0
H570 H 0.73238 0.85753 0.54226 0.0
H571 H 0.73398 0.85623 0.58575 0.0
H572 H 0.70737 0.825 0.50691 0.0
H573 H 0.68384 0.7623 0.54899 0.0
H574 H 0.71264 0.82135 0.61197 0.0
C575 C 0.69354 0.85774 0.53913 0.0
C576 C 0.68169 0.86876 0.53946 0.0
C577 C 0.70728 0.85997 0.56634 0.0
C578 C 0.70951 0.87395 0.59359 0.0
C579 C 0.6982 0.88561 0.59373 0.0
C580 C 0.6836 0.88202 0.56718 0.0
C581 C 0.72235 0.85072 0.56396 0.0
C582 C 0.71022 0.82589 0.56005 0.0
C583 C 0.70391 0.81531 0.52847 0.0
C584 C 0.6939 0.79232 0.52449 0.0
C585 C 0.69028 0.77992 0.55233 0.0
C586 C 0.69731 0.79023 0.58393 0.0
C587 C 0.70681 0.81322 0.58773 0.0
H588 H 0.17833 0.84294 0.54144 0.0
H589 H 0.18772 0.8584 0.64627 0.0
H590 H 0.20889 0.90996 0.57825 0.0
H591 H 0.17881 0.81658 0.58709 0.0
H592 H 0.17157 0.82069 0.6272 0.0
H593 H 0.15283 0.80769 0.53799 0.0
H594 H 0.08543 0.7754 0.55856 0.0
H595 H 0.13383 0.80796 0.63756 0.0
C596 C 0.18294 0.85464 0.56217 0.0
C597 C 0.19283 0.87708 0.55621 0.0
C598 C 0.17989 0.84752 0.59464 0.0
C599 C 0.18843 0.86344 0.62121 0.0
C600 C 0.19878 0.88598 0.61519 0.0
C601 C 0.20014 0.89252 0.58282 0.0
C602 C 0.16982 0.82323 0.60068 0.0
C603 C 0.14612 0.81024 0.58892 0.0
C604 C 0.14033 0.80374 0.55536 0.0
C605 C 0.11844 0.79184 0.54409 0.0
C606 C 0.10232 0.78572 0.56689 0.0
C607 C 0.10767 0.79115 0.60059 0.0
C608 C 0.12961 0.80373 0.61152 0.0
H609 H 0.17404 0.32528 0.53399 0.0
H610 H 0.19345 0.33311 0.63678 0.0
H611 H 0.24125 0.35808 0.5634 0.0
H612 H 0.14917 0.3019 0.57916 0.0
H613 H 0.15623 0.31198 0.62099 0.0
H614 H 0.15364 0.33905 0.54149 0.0
H615 H 0.09983 0.34464 0.57114 0.0
H616 H 0.12857 0.31844 0.63707 0.0
C617 C 0.18648 0.333 0.55363 0.0
C618 C 0.20825 0.34436 0.54546 0.0
C619 C 0.18087 0.33055 0.58678 0.0
C620 C 0.19757 0.33692 0.61146 0.0
C621 C 0.21943 0.34629 0.60312 0.0
C622 C 0.22458 0.35128 0.57034 0.0
C623 C 0.15718 0.31724 0.59528 0.0
C624 C 0.14387 0.32862 0.59078 0.0
C625 C 0.14314 0.33776 0.56075 0.0
C626 C 0.12739 0.34362 0.55377 0.0
C627 C 0.11245 0.34087 0.57738 0.0
C628 C 0.11266 0.33189 0.60767 0.0
C629 C 0.1286 0.32598 0.61423 0.0
H630 H 0.97816 0.42018 0.05844 0.0
H631 H 0.01485 0.38857 0.08437 0.0
H632 H 0.02327 0.40669 0.13933 0.0
H633 H 0.0207 0.43189 0.17963 0.0
H634 H 0.98467 0.46405 0.15358 0.0
H635 H 0.97562 0.44541 0.09874 0.0
C636 C 0.98792 0.41714 0.07611 0.0
C637 C 0.9958 0.40294 0.06724 0.0
C638 C 0.99286 0.42775 0.10755 0.0
C639 C 0.00859 0.3994 0.09045 0.0
C640 C 0.0134 0.40975 0.12191 0.0
C641 C 0.01063 0.4346 0.16208 0.0
C642 C 1.00313 0.44911 0.1707 0.0
C643 C 0.00565 0.42397 0.13067 0.0
C644 C 0.99059 0.45293 0.14745 0.0
C645 C 0.9854 0.44225 0.11619 0.0
H646 H 0.55528 0.58811 0.10454 0.0
H647 H 0.59414 0.55807 0.08469 0.0
H648 H 0.57396 0.5298 0.12344 0.0
H649 H 0.54979 0.51772 0.16979 0.0
H650 H 0.51273 0.54928 0.19188 0.0
H651 H 0.52719 0.57245 0.14491 0.0
C652 C 0.55902 0.5751 0.10809 0.0
C653 C 0.57644 0.57544 0.09216 0.0
C654 C 0.54767 0.55918 0.13097 0.0
C655 C 0.58098 0.55837 0.09694 0.0
C656 C 0.56946 0.54219 0.11916 0.0
C657 C 0.54428 0.52908 0.16344 0.0
C658 C 0.53028 0.53189 0.18408 0.0
C659 C 0.55339 0.54297 0.13728 0.0
C660 C 0.52347 0.54689 0.17613 0.0
C661 C 0.53191 0.56026 0.14952 0.0
H662 H 0.40495 0.99792 0.08493 0.0
H663 H 0.47341 0.03507 0.06748 0.0
H664 H 0.48199 0.02538 0.12067 0.0
H665 H 0.47006 0.00669 0.17268 0.0
H666 H 0.40174 0.97052 0.19039 0.0
H667 H 0.39309 0.97935 0.13644 0.0
C668 C 0.42177 0.00391 0.09269 0.0
C669 C 0.43848 0.01722 0.07219 0.0
C670 C 0.42662 0.99839 0.12334 0.0
C671 C 0.46018 0.02488 0.08279 0.0
C672 C 0.46513 0.01929 0.11318 0.0
C673 C 0.45331 1.00065 0.16448 0.0
C674 C 0.43655 0.98806 0.18529 0.0
C675 C 0.44848 0.00608 0.13367 0.0
C676 C 0.41488 0.98041 0.17473 0.0
C677 C 0.40994 0.98543 0.14396 0.0
H678 H 0.45415 0.03051 0.92065 0.0
H679 H 0.41184 0.96086 0.93123 0.0
H680 H 0.43017 0.95258 0.88798 0.0
H681 H 0.45338 0.96523 0.84063 0.0
H682 H 0.49339 0.03479 0.82765 0.0
H683 H 0.4812 0.04313 0.87892 0.0
C684 C 0.44926 0.01352 0.91413 0.0
C685 C 0.4314 0.99633 0.92868 0.0
C686 C 0.45941 0.00891 0.88863 0.0
C687 C 0.42537 0.9744 0.92007 0.0
C688 C 0.43581 0.96965 0.89528 0.0
C689 C 0.45999 0.98217 0.84978 0.0
C690 C 0.47412 0.99942 0.83062 0.0
C691 C 0.45216 0.98677 0.87841 0.0
C692 C 0.48244 0.02134 0.84221 0.0
C693 C 0.47535 0.02607 0.8713 0.0
H694 H 0.98191 0.4109 0.92682 0.0
H695 H 0.04979 0.43088 0.92416 0.0
H696 H 0.05543 0.45978 0.88699 0.0
H697 H 0.03965 0.47518 0.84848 0.0
H698 H 0.97151 0.45377 0.84987 0.0
H699 H 0.96742 0.43004 0.89513 0.0
C700 C 0.99802 0.42178 0.91872 0.0
C701 C 0.0153 0.41844 0.92788 0.0
C702 C 1.00108 0.43819 0.89715 0.0
C703 C 0.03614 0.43295 0.91728 0.0
C704 C 0.03938 0.44947 0.89596 0.0
C705 C 0.02417 0.46597 0.85973 0.0
C706 C 0.00592 0.46623 0.84632 0.0
C707 C 0.02181 0.45173 0.88483 0.0
C708 C 0.98576 0.45393 0.8603 0.0
C709 C 0.98339 0.44018 0.88582 0.0
H710 H 0.60544 0.60731 0.93796 0.0
H711 H 0.5371 0.57781 0.95504 0.0
H712 H 0.528 0.56082 0.89935 0.0
H713 H 0.53944 0.55398 0.84583 0.0
H714 H 0.60775 0.58376 0.82893 0.0
H715 H 0.61683 0.60106 0.88446 0.0
C716 C 0.58854 0.59718 0.92956 0.0
C717 C 0.57201 0.59383 0.95077 0.0
C718 C 0.58339 0.58752 0.89748 0.0
C719 C 0.55019 0.58074 0.93928 0.0
C720 C 0.54495 0.57096 0.90743 0.0
C721 C 0.5563 0.56423 0.85441 0.0
C722 C 0.57289 0.56767 0.83332 0.0
C723 C 0.56141 0.57416 0.88636 0.0
C724 C 0.59468 0.5811 0.84458 0.0
C725 C 0.59989 0.5909 0.87637 0.0
H726 H 0.98738 0.59627 0.94072 0.0
H727 H 0.05662 0.62328 0.95287 0.0
H728 H 0.05624 0.60343 0.90235 0.0
H729 H 0.0364 0.57883 0.85422 0.0
H730 H 0.96694 0.55042 0.84291 0.0
H731 H 0.9672 0.57015 0.89361 0.0
C732 C 1.00237 0.59793 0.93207 0.0
C733 C 0.02201 0.61136 0.95029 0.0
C734 C 1.00198 0.58603 0.90333 0.0
C735 C 0.04129 0.61306 0.93919 0.0
C736 C 0.04109 0.60166 0.91037 0.0
C737 C 0.02127 0.5766 0.86319 0.0
C738 C 1.00171 0.56321 0.84476 0.0
C739 C 0.02153 0.58802 0.89231 0.0
C740 C 0.98227 0.5608 0.8565 0.0
C741 C 0.9824 0.57211 0.88545 0.0
H742 H 0.44347 0.43666 0.92919 0.0
H743 H 0.39059 0.44619 0.89804 0.0
H744 H 0.41254 0.47012 0.85522 0.0
H745 H 0.44411 0.48226 0.82064 0.0
H746 H 0.4956 0.46998 0.85049 0.0
H747 H 0.47718 0.45373 0.90013 0.0
C748 C 0.43687 0.44418 0.91326 0.0
C749 C 0.41532 0.43922 0.91597 0.0
C750 C 0.44935 0.45738 0.88836 0.0
C751 C 0.40715 0.44971 0.89614 0.0
C752 C 0.41963 0.46322 0.87152 0.0
C753 C 0.45149 0.47645 0.83841 0.0
C754 C 0.47106 0.4771 0.83155 0.0
C755 C 0.44036 0.46628 0.86643 0.0
C756 C 0.48065 0.46987 0.85508 0.0
C757 C 0.46998 0.46028 0.88338 0.0
H758 H 0.5578 0.95845 0.94825 0.0
H759 H 0.61107 0.02498 0.94196 0.0
H760 H 0.5992 0.02557 0.88536 0.0
H761 H 0.57404 0.0072 0.83766 0.0
H762 H 0.52189 0.94004 0.84265 0.0
H763 H 0.53271 0.93994 0.90016 0.0
C764 C 0.56679 0.97314 0.93459 0.0
C765 C 0.58533 0.99165 0.94942 0.0
C766 C 0.56002 0.9733 0.9019 0.0
C767 C 0.59681 0.01047 0.9312 0.0
C768 C 0.59001 0.01084 0.89882 0.0
C769 C 0.56515 0.99242 0.85115 0.0
C770 C 0.54725 0.9736 0.83569 0.0
C771 C 0.57174 0.99231 0.8839 0.0
C772 C 0.5356 0.95482 0.85393 0.0
C773 C 0.54188 0.9547 0.88676 0.0
H774 H 0.5638 0.98252 0.08431 0.0
H775 H 0.60776 0.05092 0.11255 0.0
H776 H 0.58464 0.04893 0.15709 0.0
H777 H 0.55534 0.02599 0.19336 0.0
H778 H 0.5116 0.95758 0.16513 0.0
H779 H 0.53094 0.96136 0.11488 0.0
C780 C 0.56811 0.99707 0.09984 0.0
C781 C 0.58768 0.01667 0.09567 0.0
C782 C 0.55483 0.99575 0.12551 0.0
C783 C 0.59282 0.03558 0.11543 0.0
C784 C 0.57968 0.03442 0.14104 0.0
C785 C 0.54974 0.01213 0.17566 0.0
C786 C 0.53226 0.99152 0.18291 0.0
C787 C 0.56115 0.01435 0.14712 0.0
C788 C 0.52498 0.97363 0.15989 0.0
C789 C 0.53616 0.97573 0.13136 0.0
H790 H 0.02362 0.60058 0.07626 0.0
H791 H 0.95919 0.5873 0.0964 0.0
H792 H 0.95591 0.5607 0.13653 0.0
H793 H 0.97369 0.54579 0.17172 0.0
H794 H 0.03862 0.56019 0.15234 0.0
H795 H 0.03918 0.58127 0.10551 0.0
C796 C 0.00884 0.59177 0.08927 0.0
C797 C 0.99194 0.59632 0.08414 0.0
C798 C 0.00714 0.57664 0.11236 0.0
C799 C 0.97252 0.5842 0.10024 0.0
C800 C 0.97066 0.56905 0.12324 0.0
C801 C 0.98771 0.55308 0.15665 0.0
C802 C 0.00614 0.55162 0.16565 0.0
C803 C 0.98819 0.56577 0.13036 0.0
C804 C 0.02416 0.56093 0.14582 0.0
C805 C 0.02462 0.57326 0.11929 0.0
H806 H 0.40784 0.38855 0.07253 0.0
H807 H 0.4565 0.45041 0.03718 0.0
H808 H 0.47244 0.46324 0.09337 0.0
H809 H 0.47183 0.45684 0.15279 0.0
H810 H 0.42532 0.39306 0.18628 0.0
H811 H 0.4093 0.38097 0.13067 0.0
C812 C 0.42184 0.40489 0.07732 0.0
C813 C 0.43081 0.41875 0.05123 0.0
C814 C 0.43132 0.41174 0.10928 0.0
C815 C 0.44928 0.43963 0.05723 0.0
C816 C 0.45839 0.4469 0.08923 0.0
C817 C 0.45843 0.44019 0.14784 0.0
C818 C 0.4495 0.42611 0.17394 0.0
C819 C 0.44954 0.43307 0.1155 0.0
C820 C 0.43211 0.40454 0.16695 0.0
C821 C 0.42297 0.39752 0.13508 0.0
H822 H 0.69308 0.74975 0.38519 0.0
H823 H 0.62683 0.70546 0.40849 0.0
H824 H 0.63252 0.72617 0.46087 0.0
H825 H 0.65647 0.75685 0.50012 0.0
H826 H 0.72202 0.80254 0.47532 0.0
H827 H 0.71643 0.78166 0.42315 0.0
C828 C 0.68 0.74459 0.40195 0.0
C829 C 0.65969 0.72599 0.39341 0.0
C830 C 0.68319 0.75701 0.43144 0.0
C831 C 0.64265 0.71968 0.4148 0.0
C832 C 0.64587 0.73154 0.44464 0.0
C833 C 0.66942 0.76228 0.48309 0.0
C834 C 0.68958 0.78117 0.49138 0.0
C835 C 0.66605 0.75026 0.45316 0.0
C836 C 0.70627 0.78817 0.46918 0.0
C837 C 0.70315 0.77613 0.43955 0.0
H838 H 0.23326 0.9389 0.44113 0.0
H839 H 0.26679 0.90216 0.43305 0.0
H840 H 0.2428 0.87621 0.47197 0.0
H841 H 0.21633 0.86768 0.5147 0.0
H842 H 0.18429 0.90567 0.52458 0.0
H843 H 0.20323 0.92709 0.47788 0.0
C844 C 0.23505 0.92497 0.44727 0.0
C845 C 0.25201 0.92268 0.43456 0.0
C846 C 0.22146 0.91035 0.47008 0.0
C847 C 0.25402 0.90445 0.44275 0.0
C848 C 0.24031 0.8896 0.46505 0.0
C849 C 0.21294 0.88011 0.50578 0.0
C850 C 0.19904 0.8852 0.52293 0.0
C851 C 0.22451 0.89288 0.47977 0.0
C852 C 0.19497 0.90155 0.51161 0.0
C853 C 0.20593 0.91389 0.48516 0.0
H854 H 0.12988 0.37669 0.41021 0.0
H855 H 0.06152 0.32855 0.41168 0.0
H856 H 0.06659 0.32047 0.46778 0.0
H857 H 0.0902 0.32644 0.51614 0.0
H858 H 0.15857 0.37395 0.51574 0.0
H859 H 0.15374 0.38279 0.45938 0.0
C860 C 0.11609 0.36446 0.42281 0.0
C861 C 0.09536 0.35328 0.4066 0.0
C862 C 0.11909 0.35975 0.45525 0.0
C863 C 0.07769 0.33741 0.42336 0.0
C864 C 0.08053 0.33276 0.45554 0.0
C865 C 0.104 0.33898 0.50391 0.0
C866 C 0.12465 0.34976 0.52016 0.0
C867 C 0.10112 0.34381 0.47168 0.0
C868 C 0.1425 0.3655 0.50368 0.0
C869 C 0.13973 0.37055 0.47153 0.0
H870 H 0.08283 0.30209 0.25506 0.0
H871 H 0.11788 0.37309 0.25355 0.0
H872 H 0.13875 0.37139 0.20844 0.0
H873 H 0.14199 0.34967 0.16298 0.0
H874 H 0.10633 0.27884 0.1626 0.0
H875 H 0.09107 0.28046 0.21518 0.0
C876 C 0.09541 0.3172 0.24541 0.0
C877 C 0.09844 0.33765 0.25721 0.0
C878 C 0.1071 0.31612 0.21887 0.0
C879 C 0.11498 0.3571 0.24471 0.0
C880 C 0.12691 0.35617 0.21876 0.0
C881 C 0.13143 0.33466 0.17509 0.0
C882 C 0.12508 0.3142 0.15916 0.0
C883 C 0.12237 0.33577 0.20469 0.0
C884 C 0.11143 0.29476 0.17472 0.0
C885 C 0.10256 0.2957 0.20453 0.0
H886 H 0.70137 0.76195 0.24944 0.0
H887 H 0.63211 0.71758 0.24884 0.0
H888 H 0.62607 0.74085 0.21214 0.0
H889 H 0.64051 0.77068 0.17414 0.0
H890 H 0.70971 0.81334 0.1704 0.0
H891 H 0.7157 0.79447 0.21561 0.0
C892 C 0.68494 0.75756 0.24171 0.0
C893 C 0.66724 0.73788 0.25173 0.0
C894 C 0.68157 0.77078 0.21975 0.0
C895 C 0.64606 0.73253 0.24155 0.0
C896 C 0.64257 0.74583 0.22043 0.0
C897 C 0.65689 0.77611 0.18371 0.0
C898 C 0.67464 0.79315 0.16869 0.0
C899 C 0.66021 0.76455 0.20851 0.0
C900 C 0.69576 0.80031 0.1816 0.0
C901 C 0.6992 0.78931 0.20716 0.0
H902 H 0.28086 0.93835 0.2813 0.0
H903 H 0.21567 0.92547 0.29503 0.0
H904 H 0.2036 0.90522 0.24179 0.0
H905 H 0.2117 0.89208 0.19024 0.0
H906 H 0.27696 0.90583 0.17589 0.0
H907 H 0.28877 0.92457 0.23049 0.0
C908 C 0.26401 0.93112 0.27271 0.0
C909 C 0.24928 0.93358 0.29222 0.0
C910 C 0.25712 0.91953 0.24194 0.0
C911 C 0.22746 0.924 0.28058 0.0
C912 C 0.22048 0.91233 0.25011 0.0
C913 C 0.22841 0.89894 0.19937 0.0
C914 C 0.24346 0.89764 0.17923 0.0
C915 C 0.23517 0.91006 0.23051 0.0
C916 C 0.26514 0.90677 0.19102 0.0
C917 C 0.2719 0.9175 0.22216 0.0
H918 H 0.70739 0.93431 0.27948 0.0
H919 H 0.64345 0.92702 0.27225 0.0
H920 H 0.63624 0.90689 0.21903 0.0
H921 H 0.64823 0.89175 0.17447 0.0
H922 H 0.71295 0.90102 0.18064 0.0
H923 H 0.71934 0.91928 0.2351 0.0
C924 C 0.69183 0.92835 0.26637 0.0
C925 C 0.67601 0.93228 0.27992 0.0
C926 C 0.68782 0.91687 0.2358 0.0
C927 C 0.65599 0.92438 0.26241 0.0
C928 C 0.65181 0.91278 0.23201 0.0
C929 C 0.66381 0.89787 0.18759 0.0
C930 C 0.6801 0.89503 0.17327 0.0
C931 C 0.66765 0.90901 0.21845 0.0
C932 C 0.69998 0.90264 0.1911 0.0
C933 C 0.70375 0.91333 0.22213 0.0
H934 H 0.07722 0.78054 0.24105 0.0
H935 H 0.12153 0.75747 0.26543 0.0
H936 H 0.14743 0.78269 0.22803 0.0
H937 H 0.15434 0.80589 0.18146 0.0
H938 H 0.10918 0.82714 0.15341 0.0
H939 H 0.087 0.80854 0.1997 0.0
C940 C 0.09276 0.78142 0.23873 0.0
C941 C 0.09721 0.76675 0.25541 0.0
C942 C 0.10738 0.79559 0.21636 0.0
C943 C 0.11743 0.76812 0.25228 0.0
C944 C 0.13232 0.78264 0.23095 0.0
C945 C 0.14015 0.80726 0.18625 0.0
C946 C 0.13334 0.81779 0.16403 0.0
C947 C 0.12705 0.79571 0.21183 0.0
C948 C 0.11467 0.81907 0.17023 0.0
C949 C 0.10191 0.80826 0.19647 0.0
H950 H 0.21203 0.29542 0.27774 0.0
H951 H 0.27615 0.31137 0.25027 0.0
H952 H 0.26654 0.31327 0.19283 0.0
H953 H 0.24017 0.31043 0.15089 0.0
H954 H 0.17758 0.29957 0.17886 0.0
H955 H 0.18603 0.29475 0.2355 0.0
C956 C 0.22382 0.29927 0.25906 0.0
C957 C 0.24471 0.30319 0.26799 0.0
C958 C 0.2184 0.30101 0.22627 0.0
C959 C 0.26001 0.30842 0.24385 0.0
C960 C 0.2545 0.30941 0.21106 0.0
C961 C 0.22844 0.30749 0.16933 0.0
C962 C 0.20831 0.30561 0.16039 0.0
C963 C 0.2338 0.30586 0.20207 0.0
C964 C 0.19312 0.30087 0.18472 0.0
C965 C 0.19801 0.29832 0.21726 0.0
H966 H 0.2618 0.36151 0.42075 0.0
H967 H 0.22316 0.29058 0.41128 0.0
H968 H 0.2001 0.29077 0.45409 0.0
H969 H 0.19528 0.31042 0.50091 0.0
H970 H 0.23593 0.38089 0.51392 0.0
H971 H 0.2536 0.38169 0.46283 0.0
C972 C 0.24801 0.34614 0.42747 0.0
C973 C 0.24444 0.32604 0.41317 0.0
C974 C 0.23529 0.34631 0.45307 0.0
C975 C 0.22647 0.30627 0.4221 0.0
C976 C 0.21327 0.30635 0.44671 0.0
C977 C 0.20745 0.326 0.49184 0.0
C978 C 0.2144 0.34556 0.51093 0.0
C979 C 0.21814 0.32617 0.46336 0.0
C980 C 0.23042 0.36566 0.49942 0.0
C981 C 0.2406 0.36608 0.47041 0.0
H982 H 0.63887 0.90401 0.44242 0.0
H983 H 0.70124 0.92894 0.40015 0.0
H984 H 0.70935 0.90599 0.43457 0.0
H985 H 0.70139 0.88393 0.48306 0.0
H986 H 0.64046 0.86127 0.52877 0.0
H987 H 0.62873 0.87749 0.48612 0.0
C988 C 0.65403 0.90403 0.44028 0.0
C989 C 0.66969 0.91862 0.41942 0.0
C990 C 0.6588 0.89111 0.46083 0.0
C991 C 0.68921 0.91844 0.41676 0.0
C992 C 0.69381 0.90516 0.4363 0.0
C993 C 0.68519 0.88177 0.48284 0.0
C994 C 0.67175 0.87141 0.50882 0.0
C995 C 0.67911 0.89214 0.45936 0.0
C996 C 0.65098 0.86909 0.50878 0.0
C997 C 0.64441 0.87859 0.48466 0.0
H998 H 0.07539 0.75698 0.40101 0.0
H999 H 0.12576 0.73994 0.39726 0.0
H1000 H 0.13908 0.75614 0.45276 0.0
H1001 H 0.13587 0.77419 0.50303 0.0
H1002 H 0.08634 0.79236 0.5065 0.0
H1003 H 0.07328 0.77668 0.45053 0.0
C1004 C 0.08923 0.75675 0.4124 0.0
C1005 C 0.09947 0.74716 0.39506 0.0
C1006 C 0.09702 0.76635 0.44426 0.0
C1007 C 0.11757 0.74724 0.41002 0.0
C1008 C 0.12522 0.75651 0.44178 0.0
C1009 C 0.12248 0.77509 0.49133 0.0
C1010 C 0.11207 0.78436 0.50895 0.0
C1011 C 0.11507 0.76609 0.45915 0.0
C1012 C 0.09449 0.78507 0.49358 0.0
C1013 C 0.08702 0.77614 0.46157 0.0
H1014 H 0.32941 0.09217 0.72794 0.0
H1015 H 0.36455 0.05874 0.75229 0.0
H1016 H 0.37656 0.07928 0.80557 0.0
H1017 H 0.37744 0.10707 0.84488 0.0
H1018 H 0.34357 0.14153 0.81956 0.0
H1019 H 0.33076 0.1203 0.76675 0.0
C1020 C 0.33959 0.08925 0.74496 0.0
C1021 C 0.34595 0.07381 0.73622 0.0
C1022 C 0.34671 0.10136 0.77526 0.0
C1023 C 0.35941 0.0705 0.7584 0.0
C1024 C 0.36627 0.08223 0.78887 0.0
C1025 C 0.3671 0.10977 0.82786 0.0
C1026 C 0.36125 0.12565 0.8361 0.0
C1027 C 0.36005 0.09772 0.7975 0.0
C1028 C 0.34825 0.12938 0.81364 0.0
C1029 C 0.3409 0.11722 0.78356 0.0
H1030 H 0.89613 0.26453 0.76372 0.0
H1031 H 0.93469 0.23342 0.75044 0.0
H1032 H 0.91288 0.20565 0.78895 0.0
H1033 H 0.88701 0.19422 0.83321 0.0
H1034 H 0.8501 0.2268 0.84839 0.0
H1035 H 0.86663 0.2496 0.80172 0.0
C1036 C 0.89949 0.25141 0.76863 0.0
C1037 C 0.91725 0.25129 0.75461 0.0
C1038 C 0.88716 0.23576 0.79127 0.0
C1039 C 0.92126 0.23406 0.76116 0.0
C1040 C 0.90881 0.21818 0.78325 0.0
C1041 C 0.88203 0.20574 0.8254 0.0
C1042 C 0.86743 0.20892 0.84401 0.0
C1043 C 0.89228 0.21939 0.79941 0.0
C1044 C 0.86129 0.22412 0.8342 0.0
C1045 C 0.8709 0.23727 0.80778 0.0
H1046 H 0.73021 0.65055 0.7357 0.0
H1047 H 0.79913 0.69035 0.72328 0.0
H1048 H 0.8067 0.68162 0.77785 0.0
H1049 H 0.79381 0.66336 0.82974 0.0
H1050 H 0.72501 0.62437 0.84274 0.0
H1051 H 0.71734 0.63212 0.78735 0.0
C1052 C 0.74689 0.65725 0.74484 0.0
C1053 C 0.76405 0.6711 0.72536 0.0
C1054 C 0.75117 0.65237 0.77642 0.0
C1055 C 0.78558 0.67973 0.73775 0.0
C1056 C 0.78995 0.67472 0.76897 0.0
C1057 C 0.77716 0.65646 0.82027 0.0
C1058 C 0.76001 0.6434 0.84022 0.0
C1059 C 0.77289 0.66115 0.78857 0.0
C1060 C 0.73848 0.63468 0.82789 0.0
C1061 C 0.73409 0.63904 0.79622 0.0
H1062 H 0.74518 0.62327 0.56705 0.0
H1063 H 0.78869 0.69346 0.58075 0.0
H1064 H 0.81036 0.69222 0.53655 0.0
H1065 H 0.81305 0.6725 0.48788 0.0
H1066 H 0.76865 0.60295 0.47143 0.0
H1067 H 0.75137 0.60243 0.52304 0.0
C1068 C 0.7597 0.63819 0.5609 0.0
C1069 C 0.76507 0.65848 0.57686 0.0
C1070 C 0.7718 0.63747 0.5347 0.0
C1071 C 0.78402 0.67765 0.56872 0.0
C1072 C 0.79641 0.67699 0.5433 0.0
C1073 C 0.80004 0.65715 0.49631 0.0
C1074 C 0.792 0.6378 0.47632 0.0
C1075 C 0.78989 0.6572 0.52523 0.0
C1076 C 0.77508 0.61795 0.48686 0.0
C1077 C 0.76512 0.61774 0.51611 0.0
H1078 H 0.31915 0.0728 0.58944 0.0
H1079 H 0.38908 0.10556 0.59994 0.0
H1080 H 0.392 0.13455 0.56531 0.0
H1081 H 0.37485 0.14696 0.52473 0.0
H1082 H 0.30511 0.11323 0.51187 0.0
H1083 H 0.30189 0.0887 0.55551 0.0
C1084 C 0.33502 0.08651 0.58475 0.0
C1085 C 0.35385 0.08677 0.59678 0.0
C1086 C 0.33661 0.103 0.56435 0.0
C1087 C 0.3743 0.10476 0.5906 0.0
C1088 C 0.37601 0.12139 0.5708 0.0
C1089 C 0.35896 0.13483 0.53248 0.0
C1090 C 0.34025 0.13181 0.51517 0.0
C1091 C 0.3573 0.12022 0.55653 0.0
C1092 C 0.31972 0.11581 0.52499 0.0
C1093 C 0.3179 0.10164 0.54963 0.0
H1094 H 0.92815 0.25093 0.61909 0.0
H1095 H 0.89551 0.28766 0.60201 0.0
H1096 H 0.88367 0.27043 0.54635 0.0
H1097 H 0.88307 0.24515 0.50232 0.0
H1098 H 0.91329 0.20632 0.52109 0.0
H1099 H 0.92537 0.22378 0.57654 0.0
C1100 C 0.91856 0.2552 0.60301 0.0
C1101 C 0.91295 0.27072 0.61417 0.0
C1102 C 0.91119 0.24466 0.57161 0.0
C1103 C 0.90009 0.27582 0.59364 0.0
C1104 C 0.8933 0.26596 0.56194 0.0
C1105 C 0.8921 0.24042 0.51881 0.0
C1106 C 0.89728 0.22451 0.50794 0.0
C1107 C 0.89875 0.25035 0.55067 0.0
C1108 C 0.90895 0.21838 0.52927 0.0
C1109 C 0.91599 0.22848 0.56078 0.0
H1110 H 0.36071 0.29634 0.59029 0.0
H1111 H 0.34405 0.23916 0.64563 0.0
H1112 H 0.34381 0.21865 0.59564 0.0
H1113 H 0.34943 0.21742 0.53623 0.0
H1114 H 0.36896 0.27584 0.48209 0.0
H1115 H 0.36717 0.29539 0.53128 0.0
C1116 C 0.35664 0.27927 0.5911 0.0
C1117 C 0.35198 0.26904 0.62119 0.0
C1118 C 0.35736 0.26789 0.56254 0.0
C1119 C 0.34737 0.24715 0.62242 0.0
C1120 C 0.3474 0.23551 0.59396 0.0
C1121 C 0.3535 0.23448 0.53532 0.0
C1122 C 0.35907 0.24501 0.50539 0.0
C1123 C 0.35267 0.2458 0.56391 0.0
C1124 C 0.36421 0.26715 0.50464 0.0
C1125 C 0.36324 0.27841 0.5328 0.0
H1126 H 0.76986 0.08472 0.58723 0.0
H1127 H 0.71972 0.09905 0.55829 0.0
H1128 H 0.74286 0.12353 0.51712 0.0
H1129 H 0.7748 0.13572 0.4835 0.0
H1130 H 0.82439 0.12047 0.51203 0.0
H1131 H 0.80428 0.10191 0.55966 0.0
C1132 C 0.76412 0.09342 0.57226 0.0
C1133 C 0.74295 0.08967 0.57519 0.0
C1134 C 0.77741 0.10727 0.54849 0.0
C1135 C 0.73593 0.10156 0.55629 0.0
C1136 C 0.7491 0.11546 0.53261 0.0
C1137 C 0.78141 0.12882 0.5007 0.0
C1138 C 0.8009 0.12926 0.49416 0.0
C1139 C 0.7695 0.1177 0.52761 0.0
C1140 C 0.80948 0.12046 0.51666 0.0
C1141 C 0.79786 0.10961 0.54369 0.0
H1142 H 0.88639 0.64809 0.60607 0.0
H1143 H 0.95246 0.66627 0.58757 0.0
H1144 H 0.94547 0.66763 0.52874 0.0
H1145 H 0.92028 0.66211 0.48283 0.0
H1146 H 0.85551 0.64896 0.50182 0.0
H1147 H 0.86211 0.64644 0.56016 0.0
C1148 C 0.89922 0.65244 0.58906 0.0
C1149 C 0.91984 0.65693 0.60088 0.0
C1150 C 0.89526 0.65379 0.55545 0.0
C1151 C 0.93649 0.66283 0.5789 0.0
C1152 C 0.93247 0.6635 0.54531 0.0
C1153 C 0.90768 0.65929 0.49956 0.0
C1154 C 0.88735 0.65568 0.48744 0.0
C1155 C 0.91188 0.6589 0.53332 0.0
C1156 C 0.87117 0.65132 0.50998 0.0
C1157 C 0.87498 0.65009 0.54352 0.0
H1158 H 0.88932 0.63801 0.74053 0.0
H1159 H 0.92631 0.70848 0.7595 0.0
H1160 H 0.90209 0.70584 0.80257 0.0
H1161 H 0.87495 0.68274 0.84143 0.0
H1162 H 0.83852 0.61232 0.8232 0.0
H1163 H 0.85769 0.61565 0.77278 0.0
C1164 C 0.8918 0.65284 0.75351 0.0
C1165 C 0.90989 0.67333 0.74737 0.0
C1166 C 0.87801 0.65116 0.77857 0.0
C1167 C 0.91262 0.69247 0.76398 0.0
C1168 C 0.89886 0.69097 0.78877 0.0
C1169 C 0.8708 0.66826 0.82574 0.0
C1170 C 0.8556 0.64734 0.83586 0.0
C1171 C 0.88218 0.6703 0.79729 0.0
C1172 C 0.85016 0.62858 0.81562 0.0
C1173 C 0.86126 0.63048 0.78704 0.0
H1174 H 0.36004 0.26107 0.73725 0.0
H1175 H 0.30322 0.25542 0.78105 0.0
H1176 H 0.30529 0.23197 0.82267 0.0
H1177 H 0.32738 0.21923 0.85208 0.0
H1178 H 0.38533 0.22686 0.80918 0.0
H1179 H 0.37839 0.24276 0.76125 0.0
C1180 C 0.34802 0.25452 0.75573 0.0
C1181 C 0.33194 0.26044 0.75691 0.0
C1182 C 0.34953 0.24138 0.7797 0.0
C1183 C 0.31588 0.25118 0.78001 0.0
C1184 C 0.31713 0.23789 0.80387 0.0
C1185 C 0.33812 0.22383 0.83178 0.0
C1186 C 0.357 0.22219 0.83442 0.0
C1187 C 0.33449 0.23376 0.80481 0.0
C1188 C 0.37064 0.22787 0.80778 0.0
C1189 C 0.36686 0.23727 0.78052 0.0
H1190 H 0.77765 0.0978 0.70947 0.0
H1191 H 0.71536 0.04549 0.73654 0.0
H1192 H 0.7254 0.05713 0.79469 0.0
H1193 H 0.75232 0.08102 0.83747 0.0
H1194 H 0.81283 0.13657 0.81032 0.0
H1195 H 0.80331 0.12426 0.75255 0.0
C1196 C 0.76629 0.08907 0.72818 0.0
C1197 C 0.74588 0.07077 0.71894 0.0
C1198 C 0.77195 0.09619 0.76146 0.0
C1199 C 0.73113 0.05969 0.74319 0.0
C1200 C 0.73691 0.06626 0.77639 0.0
C1201 C 0.76331 0.09091 0.81912 0.0
C1202 C 0.78338 0.10974 0.82872 0.0
C1203 C 0.75732 0.08441 0.78579 0.0
C1204 C 0.79751 0.12171 0.80409 0.0
C1205 C 0.79198 0.11484 0.77088 0.0
H1206 H 0.07736 0.35793 0.97381 0.0
H1207 H 0.02579 0.32547 0.04074 0.0
H1208 H 0.04592 0.31038 0.06823 0.0
H1209 H 0.07855 0.30769 0.07506 0.0
H1210 H 0.13147 0.34158 0.01112 0.0
H1211 H 0.1101 0.35423 0.97985 0.0
C1212 C 0.07049 0.34748 0.99433 0.0
C1213 C 0.05013 0.34299 0.00533 0.0
C1214 C 0.08231 0.33901 0.01037 0.0
C1215 C 0.04147 0.32938 0.03191 0.0
C1216 C 0.05294 0.32067 0.04761 0.0
C1217 C 0.08548 0.31791 0.05431 0.0
C1218 C 0.10672 0.32402 0.04575 0.0
C1219 C 0.07344 0.32561 0.03732 0.0
C1220 C 0.11518 0.33668 0.01821 0.0
C1221 C 0.10303 0.34405 0.00055 0.0
H1222 H 0.63591 0.69968 0.01487 0.0
H1223 H 0.57383 0.68115 0.05479 0.0
H1224 H 0.58474 0.71976 0.06438 0.0
H1225 H 0.61447 0.75809 0.07217 0.0
H1226 H 0.67675 0.77682 0.03383 0.0
H1227 H 0.66306 0.73907 0.01191 0.0
C1228 C 0.62458 0.70408 0.02498 0.0
C1229 C 0.60431 0.68746 0.03493 0.0
C1230 C 0.63103 0.72643 0.03076 0.0
C1231 C 0.58968 0.69351 0.04735 0.0
C1232 C 0.5959 0.71565 0.05294 0.0
C1233 C 0.62465 0.75405 0.05758 0.0
C1234 C 0.64652 0.77005 0.05455 0.0
C1235 C 0.61688 0.73218 0.04621 0.0
C1236 C 0.65977 0.76475 0.03606 0.0
C1237 C 0.65204 0.74308 0.02407 0.0
H1238 H 0.31837 0.93222 0.98662 0.0
H1239 H 0.33035 0.99249 0.03727 0.0
H1240 H 0.29681 0.97219 0.06606 0.0
H1241 H 0.26593 0.93712 0.08024 0.0
H1242 H 0.2564 0.87638 0.0345 0.0
H1243 H 0.28641 0.89714 -0.00079 0.0
C1244 C 0.31352 0.94094 0.00371 0.0
C1245 C 0.32692 0.96378 0.01005 0.0
C1246 C 0.29452 0.92908 0.02083 0.0
C1247 C 0.32044 0.97486 0.03227 0.0
C1248 C 0.30124 0.96328 0.04865 0.0
C1249 C 0.27038 0.92837 0.06256 0.0
C1250 C 0.25904 0.90517 0.06051 0.0
C1251 C 0.28844 0.94034 0.04368 0.0
C1252 C 0.26463 0.8942 0.0366 0.0
C1253 C 0.28203 0.90607 0.01667 0.0
H1254 H 0.37637 0.06382 -0.00117 0.0
H1255 H 0.44546 0.10897 -0.00127 0.0
H1256 H 0.4389 0.13877 0.98515 0.0
H1257 H 0.41388 0.14912 0.95983 0.0
H1258 H 0.34505 0.10303 0.95497 0.0
H1259 H 0.35109 0.07665 0.98463 0.0
C1260 C 0.39003 0.08031 -0.00316 0.0
C1261 C 0.41136 0.08396 -0.00131 0.0
C1262 C 0.38615 0.09717 0.98764 0.0
C1263 C 0.42885 0.10555 -0.00335 0.0
C1264 C 0.42512 0.12262 0.98874 0.0
C1265 C 0.40015 0.1337 0.96659 0.0
C1266 C 0.3791 0.12781 0.95489 0.0
C1267 C 0.40387 0.11825 0.98213 0.0
C1268 C 0.36142 0.10775 0.96354 0.0
C1269 C 0.3649 0.09262 0.98022 0.0
H1270 H 0.95083 0.29276 -0.00511 0.0
H1271 H 0.90697 0.31795 0.98172 0.0
H1272 H 0.87646 0.28063 0.97354 0.0
H1273 H 0.86366 0.24184 0.95839 0.0
H1274 H 0.90729 0.2165 0.96899 0.0
H1275 H 0.93619 0.25258 0.991 0.0
C1276 C 0.93455 0.29009 0.99104 0.0
C1277 C 0.93139 0.30825 0.98793 0.0
C1278 C 0.91695 0.26846 0.9858 0.0
C1279 C 0.91006 0.30438 0.9835 0.0
C1280 C 0.89251 0.28299 0.97881 0.0
C1281 C 0.87921 0.24404 0.96704 0.0
C1282 C 0.88345 0.2267 0.96207 0.0
C1283 C 0.89593 0.26501 0.97826 0.0
C1284 C 0.90365 0.22962 0.97295 0.0
C1285 C 0.92028 0.25036 0.98497 0.0
H1286 H 0.68472 0.61439 0.0341 0.0
H1287 H 0.68269 0.66802 0.98832 0.0
H1288 H 0.71478 0.67583 0.95812 0.0
H1289 H 0.74153 0.66565 0.94167 0.0
H1290 H 0.74057 0.60913 0.98262 0.0
H1291 H 0.71233 0.605 0.01895 0.0
C1292 C 0.69142 0.62794 0.01777 0.0
C1293 C 0.68124 0.64052 0.0133 0.0
C1294 C 0.7095 0.63195 -0.00017 0.0
C1295 C 0.6901 0.65797 0.99198 0.0
C1296 C 0.70848 0.66247 0.97477 0.0
C1297 C 0.73515 0.65235 0.95844 0.0
C1298 C 0.74311 0.63756 0.95888 0.0
C1299 C 0.718 0.64926 0.97797 0.0
C1300 C 0.73506 0.62095 0.98174 0.0
C1301 C 0.71862 0.61835 0.00228 0.0
H1302 H 0.92061 0.6301 0.02296 0.0
H1303 H 0.96946 0.68166 0.96766 0.0
H1304 H 0.94163 0.68766 0.94126 0.0
H1305 H 0.90337 0.67682 0.93182 0.0
H1306 H 0.85421 0.62114 0.98098 0.0
H1307 H 0.88233 0.61932 0.01351 0.0
C1308 C 0.92521 0.64275 0.00527 0.0
C1309 C 0.94707 0.65536 -0.00285 0.0
C1310 C 0.90907 0.64565 0.98953 0.0
C1311 C 0.95273 0.6716 0.97406 0.0
C1312 C 0.93684 0.6751 0.95913 0.0
C1313 C 0.89863 0.66407 0.94935 0.0
C1314 C 0.8764 0.64889 0.95314 0.0
C1315 C 0.91491 0.66196 0.9663 0.0
C1316 C 0.87096 0.63328 0.97737 0.0
C1317 C 0.88711 0.63193 -0.00428 0.0
H1318 H 0.41869 0.33318 0.97062 0.0
H1319 H 0.35082 0.31365 0.97223 0.0
H1320 H 0.34081 0.275 0.96583 0.0
H1321 H 0.35114 0.24762 0.94943 0.0
H1322 H 0.4189 0.26753 0.94501 0.0
H1323 H 0.42913 0.30488 0.96419 0.0
C1324 C 0.40172 0.32046 0.97017 0.0
C1325 C 0.38553 0.32636 0.97103 0.0
C1326 C 0.39603 0.29825 0.96603 0.0
C1327 C 0.36363 0.30963 0.97119 0.0
C1328 C 0.35787 0.28748 0.96744 0.0
C1329 C 0.36814 0.26 0.95373 0.0
C1330 C 0.38421 0.2549 0.94533 0.0
C1331 C 0.37389 0.28169 0.96336 0.0
C1332 C 0.40619 0.27097 0.95136 0.0
C1333 C 0.41206 0.29246 0.96183 0.0
H1334 H 0.70471 0.06089 0.01453 0.0
H1335 H 0.66963 0.08311 0.95351 0.0
H1336 H 0.70282 0.10722 0.92598 0.0
H1337 H 0.74107 0.11967 0.91621 0.0
H1338 H 0.77591 0.0969 0.97651 0.0
H1339 H 0.74378 0.07595 0.00811 0.0
C1340 C 0.70434 0.07108 -0.0047 0.0
C1341 C 0.68465 0.06995 0.98575 0.0
C1342 C 0.7235 0.08497 0.97965 0.0
C1343 C 0.68453 0.08354 0.96119 0.0
C1344 C 0.70351 0.09735 0.94544 0.0
C1345 C 0.74168 0.11033 0.93655 0.0
C1346 C 0.7608 0.10969 0.94381 0.0
C1347 C 0.72298 0.09788 0.95405 0.0
C1348 C 0.76148 0.09783 0.97057 0.0
C1349 C 0.74302 0.08561 0.98838 0.0
H1350 H 0.60635 0.92041 0.03207 0.0
H1351 H 0.66947 0.97821 0.02458 0.0
H1352 H 0.68673 0.95608 0.03207 0.0
H1353 H 0.68418 0.92214 0.05187 0.0
H1354 H 0.62142 0.86515 0.06294 0.0
H1355 H 0.60366 0.88488 0.04218 0.0
C1356 C 0.62386 0.92812 0.03137 0.0
C1357 C 0.63659 0.95108 0.02863 0.0
C1358 C 0.63375 0.91539 0.03644 0.0
C1359 C 0.65924 0.96066 0.02714 0.0
C1360 C 0.66917 0.94802 0.03153 0.0
C1361 C 0.66664 0.91382 0.04823 0.0
C1362 C 0.65403 0.89226 0.05848 0.0
C1363 C 0.65665 0.92561 0.03773 0.0
C1364 C 0.63134 0.88164 0.05459 0.0
C1365 C 0.62123 0.89304 0.04321 0.0
H1366 H 0.05193 0.7229 0.02373 0.0
H1367 H 0.09708 0.69884 0.02301 0.0
H1368 H 0.12748 0.73632 0.02988 0.0
H1369 H 0.14062 0.7746 0.04742 0.0
H1370 H 0.09605 0.79925 0.05006 0.0
H1371 H 0.06622 0.76308 0.03036 0.0
C1372 C 0.06843 0.72591 0.02415 0.0
C1373 C 0.07215 0.70801 0.02372 0.0
C1374 C 0.086 0.74765 0.02883 0.0
C1375 C 0.09368 0.71225 0.02405 0.0
C1376 C 0.11114 0.73373 0.02797 0.0
C1377 C 0.12461 0.77242 0.04232 0.0
C1378 C 0.12054 0.78955 0.05077 0.0
C1379 C 0.10745 0.75143 0.03203 0.0
C1380 C 0.09957 0.78624 0.04417 0.0
C1381 C 0.08246 0.76549 0.03317 0.0
H1382 H 0.29464 0.38004 0.98024 0.0
H1383 H 0.32343 0.35085 0.04065 0.0
H1384 H 0.29043 0.33217 0.07061 0.0
H1385 H 0.25359 0.32352 0.07919 0.0
H1386 H 0.22441 0.35367 0.02212 0.0
H1387 H 0.25722 0.37205 0.99049 0.0
C1388 C 0.2937 0.36965 4e-05 0.0
C1389 C 0.31155 0.36688 0.00815 0.0
C1390 C 0.27459 0.35897 0.01749 0.0
C1391 C 0.31005 0.35338 0.03391 0.0
C1392 C 0.29113 0.3426 0.05102 0.0
C1393 C 0.25443 0.33445 0.06028 0.0
C1394 C 0.23665 0.33752 0.05352 0.0
C1395 C 0.27336 0.34527 0.04298 0.0
C1396 C 0.23783 0.35102 0.02792 0.0
C1397 C 0.25664 0.36163 0.00999 0.0
H1398 H 0.72995 0.65895 0.29026 0.0
H1399 H 0.7356 0.70511 0.36794 0.0
H1400 H 0.76518 0.70249 0.39495 0.0
H1401 H 0.78723 0.68489 0.39907 0.0
H1402 H 0.77942 0.63605 0.32458 0.0
H1403 H 0.75374 0.64275 0.29294 0.0
C1404 C 0.73776 0.66857 0.31297 0.0
C1405 C 0.73036 0.68203 0.32722 0.0
C1406 C 0.75456 0.66669 0.32876 0.0
C1407 C 0.74074 0.69442 0.35661 0.0
C1408 C 0.75774 0.69301 0.37202 0.0
C1409 C 0.78003 0.67578 0.37578 0.0
C1410 C 0.78502 0.65972 0.36452 0.0
C1411 C 0.76445 0.67886 0.35868 0.0
C1412 C 0.77599 0.64857 0.33383 0.0
C1413 C 0.76104 0.65217 0.31595 0.0
H1414 H 0.32597 0.04523 0.36313 0.0
H1415 H 0.25899 0.02869 0.36785 0.0
H1416 H 0.2703 0.06735 0.3777 0.0
H1417 H 0.29918 0.10434 0.397 0.0
H1418 H 0.36604 0.12112 0.39377 0.0
H1419 H 0.35491 0.08421 0.37044 0.0
C1420 C 0.31381 0.05011 0.36537 0.0
C1421 C 0.29168 0.03389 0.36576 0.0
C1422 C 0.32043 0.07251 0.37154 0.0
C1423 C 0.27617 0.04067 0.36819 0.0
C1424 C 0.28261 0.06284 0.37388 0.0
C1425 C 0.31127 0.10017 0.38964 0.0
C1426 C 0.33334 0.11529 0.397 0.0
C1427 C 0.3047 0.07873 0.37734 0.0
C1428 C 0.34896 0.10976 0.38789 0.0
C1429 C 0.34256 0.08854 0.37508 0.0
H1430 H 0.96206 0.27897 0.30381 0.0
H1431 H 0.00784 0.30537 0.38789 0.0
H1432 H 0.97976 0.28149 0.42356 0.0
H1433 H 0.94309 0.25255 0.43108 0.0
H1434 H 0.89598 0.22576 0.34902 0.0
H1435 H 0.92389 0.25011 0.31219 0.0
C1436 C 0.96583 0.27953 0.32995 0.0
C1437 C 0.9871 0.29395 0.34303 0.0
C1438 C 0.94947 0.26565 0.35065 0.0
C1439 C 0.99169 0.29448 0.377 0.0
C1440 C 0.97564 0.2808 0.39753 0.0
C1441 C 0.93865 0.25231 0.40529 0.0
C1442 C 0.91733 0.23764 0.39298 0.0
C1443 C 0.95458 0.26631 0.38461 0.0
C1444 C 0.91225 0.23698 0.35917 0.0
C1445 C 0.92819 0.25092 0.33817 0.0
H1446 H 0.02584 0.38651 0.3262 0.0
H1447 H 0.09288 0.43873 0.33315 0.0
H1448 H 0.08181 0.46558 0.32139 0.0
H1449 H 0.05427 0.47247 0.29639 0.0
H1450 H 0.98759 0.42001 0.28575 0.0
H1451 H 0.99726 0.39513 0.31235 0.0
C1452 C 0.03801 0.40384 0.32609 0.0
C1453 C 0.06021 0.41047 0.32949 0.0
C1454 C 0.0316 0.41914 0.31819 0.0
C1455 C 0.0757 0.43306 0.32985 0.0
C1456 C 0.06939 0.44847 0.32302 0.0
C1457 C 0.04168 0.45588 0.3012 0.0
C1458 C 0.02033 0.44794 0.28864 0.0
C1459 C 0.04753 0.44148 0.31523 0.0
C1460 C 0.00421 0.42636 0.29487 0.0
C1461 C 0.00977 0.41211 0.30983 0.0
H1462 H 0.58634 0.6269 0.33479 0.0
H1463 H 0.64084 0.61886 0.31201 0.0
H1464 H 0.61674 0.57901 0.30483 0.0
H1465 H 0.57944 0.54807 0.2929 0.0
H1466 H 0.52507 0.55691 0.31183 0.0
H1467 H 0.54973 0.59461 0.33353 0.0
C1468 C 0.59304 0.61638 0.32907 0.0
C1469 C 0.61528 0.62591 0.32317 0.0
C1470 C 0.57901 0.59356 0.32416 0.0
C1471 C 0.62378 0.61201 0.31641 0.0
C1472 C 0.60996 0.5892 0.31208 0.0
C1473 C 0.57307 0.55795 0.30339 0.0
C1474 C 0.55055 0.5498 0.30116 0.0
C1475 C 0.58743 0.57995 0.31423 0.0
C1476 C 0.54235 0.56281 0.3139 0.0
C1477 C 0.55647 0.58446 0.32577 0.0
H1478 H 0.35587 0.9649 0.3583 0.0
H1479 H 0.38003 0.03341 0.34071 0.0
H1480 H 0.41247 0.03602 0.3173 0.0
H1481 H 0.43192 0.01768 0.29665 0.0
H1482 H 0.40779 0.94926 0.31447 0.0
H1483 H 0.3778 0.94793 0.34419 0.0
C1484 C 0.3683 0.98042 0.34946 0.0
C1485 C 0.36539 0.99883 0.35054 0.0
C1486 C 0.38702 0.98186 0.33651 0.0
C1487 C 0.38183 0.01897 0.3398 0.0
C1488 C 0.40038 0.02047 0.32648 0.0
C1489 C 0.4204 0.00267 0.30787 0.0
C1490 C 0.42196 0.98357 0.3033 0.0
C1491 C 0.40291 1.0019 0.3241 0.0
C1492 C 0.40704 0.96422 0.31796 0.0
C1493 C 0.3897 0.96337 0.33449 0.0
H1494 H 0.61689 0.99194 0.33971 0.0
H1495 H 0.57396 0.92188 0.34478 0.0
H1496 H 0.54331 0.92558 0.3253 0.0
H1497 H 0.52926 0.94816 0.30204 0.0
H1498 H 0.57203 0.01805 0.29607 0.0
H1499 H 0.60199 0.0151 0.32147 0.0
C1500 C 0.60082 0.9775 0.33663 0.0
C1501 C 0.59782 0.95663 0.34326 0.0
C1502 C 0.58315 0.97975 0.32558 0.0
C1503 C 0.5768 0.93814 0.33964 0.0
C1504 C 0.55921 0.94023 0.32857 0.0
C1505 C 0.54495 0.96284 0.30736 0.0
C1506 C 0.54843 0.9833 0.29738 0.0
C1507 C 0.56223 0.9609 0.32101 0.0
C1508 C 0.56897 0.00214 0.30374 0.0
C1509 C 0.58614 1.00041 0.31791 0.0
H1510 H 0.01994 0.64105 0.31009 0.0
H1511 H 0.08684 0.65746 0.32336 0.0
H1512 H 0.07608 0.61875 0.3158 0.0
H1513 H 0.04915 0.58214 0.29326 0.0
H1514 H 0.98252 0.56562 0.27681 0.0
H1515 H 0.99155 0.60221 0.29874 0.0
C1516 C 0.03209 0.63609 0.31226 0.0
C1517 C 0.05422 0.65222 0.31633 0.0
C1518 C 0.02585 0.61374 0.30702 0.0
C1519 C 0.06972 0.64546 0.31944 0.0
C1520 C 0.0636 0.62329 0.31514 0.0
C1521 C 0.03638 0.58614 0.29589 0.0
C1522 C 0.01528 0.57134 0.28291 0.0
C1523 C 0.04189 0.60748 0.30714 0.0
C1524 C 0.99895 0.57686 0.28634 0.0
C1525 C 0.00417 0.59787 0.29854 0.0
H1526 H 0.38229 0.37226 0.36674 0.0
H1527 H 0.33834 0.37994 0.30056 0.0
H1528 H 0.36895 0.40808 0.27244 0.0
H1529 H 0.40774 0.42822 0.26363 0.0
H1530 H 0.45175 0.41785 0.32531 0.0
H1531 H 0.42181 0.39404 0.35927 0.0
C1532 C 0.37945 0.38021 0.3463 0.0
C1533 C 0.35803 0.37381 0.33554 0.0
C1534 C 0.39718 0.39612 0.32969 0.0
C1535 C 0.35462 0.38431 0.30907 0.0
C1536 C 0.37213 0.40051 0.29307 0.0
C1537 C 0.41084 0.42085 0.28462 0.0
C1538 C 0.43191 0.42453 0.29153 0.0
C1539 C 0.39341 0.4062 0.30274 0.0
C1540 C 0.43574 0.41539 0.31943 0.0
C1541 C 0.41854 0.40149 0.33858 0.0
H1542 H 0.32331 0.28303 0.3398 0.0
H1543 H 0.25981 0.22847 0.35756 0.0
H1544 H 0.27574 0.20594 0.37121 0.0
H1545 H 0.30819 0.20522 0.39149 0.0
H1546 H 0.37159 0.26027 0.37683 0.0
H1547 H 0.35532 0.27885 0.34771 0.0
C1548 C 0.31286 0.26602 0.34573 0.0
C1549 C 0.29049 0.25778 0.34882 0.0
C1550 C 0.32218 0.25324 0.35435 0.0
C1551 C 0.27716 0.2355 0.35577 0.0
C1552 C 0.28626 0.22255 0.36369 0.0
C1553 C 0.31836 0.22074 0.38028 0.0
C1554 C 0.34094 0.23144 0.38607 0.0
C1555 C 0.30883 0.2317 0.36501 0.0
C1556 C 0.35414 0.25171 0.37217 0.0
C1557 C 0.34481 0.26247 0.35605 0.0
H1558 H 0.75242 0.02976 0.34055 0.0
H1559 H 0.69943 0.04033 0.36334 0.0
H1560 H 0.72476 0.07991 0.3713 0.0
H1561 H 0.76244 0.10971 0.38365 0.0
H1562 H 0.81518 0.09771 0.36595 0.0
H1563 H 0.78959 0.061 0.34269 0.0
C1564 C 0.74631 0.04077 0.3465 0.0
C1565 C 0.72413 0.03201 0.35223 0.0
C1566 C 0.76103 0.06338 0.35208 0.0
C1567 C 0.71643 0.04656 0.35914 0.0
C1568 C 0.73095 0.06922 0.36391 0.0
C1569 C 0.76836 0.09926 0.37383 0.0
C1570 C 0.7907 0.10633 0.37741 0.0
C1571 C 0.7534 0.0776 0.36225 0.0
C1572 C 0.79816 0.09283 0.36373 0.0
C1573 C 0.78344 0.0716 0.35086 0.0
H1574 H 0.97833 0.68676 0.32025 0.0
H1575 H 0.00731 0.74647 0.3824 0.0
H1576 H 0.97168 0.73671 0.40233 0.0
H1577 H 0.93282 0.70976 0.40535 0.0
H1578 H 0.90408 0.64978 0.34393 0.0
H1579 H 0.93887 0.66154 0.31942 0.0
C1580 C 0.97684 0.69765 0.33813 0.0
C1581 C 0.99549 0.71712 0.35027 0.0
C1582 C 0.95629 0.69204 0.34924 0.0
C1583 C 0.99323 0.73129 0.37289 0.0
C1584 C 0.97286 0.72575 0.38423 0.0
C1585 C 0.93412 0.69944 0.38621 0.0
C1586 C 0.91591 0.67884 0.3767 0.0
C1587 C 0.95434 0.70599 0.37298 0.0
C1588 C 0.91775 0.66579 0.35152 0.0
C1589 C 0.93774 0.67236 0.33783 0.0
H1590 H 0.39088 1.00109 0.66595 0.0
H1591 H 0.43161 0.06937 0.69878 0.0
H1592 H 0.46014 0.06208 0.71711 0.0
H1593 H 0.47227 0.03583 0.72852 0.0
H1594 H 0.43158 0.96735 0.69776 0.0
H1595 H 0.40474 0.97532 0.67268 0.0
C1596 C 0.40602 0.01437 0.67705 0.0
C1597 C 0.40894 0.03568 0.68145 0.0
C1598 C 0.42252 0.01009 0.68747 0.0
C1599 C 0.42881 0.05278 0.69535 0.0
C1600 C 0.44521 0.04865 0.70576 0.0
C1601 C 0.45774 0.02276 0.71559 0.0
C1602 C 0.45384 1.00104 0.71508 0.0
C1603 C 0.44209 0.02733 0.70246 0.0
C1604 C 0.43505 0.98424 0.69818 0.0
C1605 C 0.41954 0.98875 0.68433 0.0
H1606 H 0.98391 0.37732 0.68931 0.0
H1607 H 0.91782 0.35871 0.70956 0.0
H1608 H 0.92864 0.39714 0.72077 0.0
H1609 H 0.95791 0.43477 0.7359 0.0
H1610 H 0.02403 0.45356 0.71769 0.0
H1611 H 0.01217 0.41661 0.69371 0.0
C1612 C 0.97176 0.38168 0.6954 0.0
C1613 C 0.95019 0.36499 0.6995 0.0
C1614 C 0.97814 0.40394 0.70229 0.0
C1615 C 0.93464 0.37107 0.70686 0.0
C1616 C 0.9408 0.39311 0.71332 0.0
C1617 C 0.96953 0.43099 0.72519 0.0
C1618 C 0.99173 0.44672 0.72833 0.0
C1619 C 0.96265 0.40954 0.71266 0.0
C1620 C 0.00681 0.44171 0.71501 0.0
C1621 C 1.00005 0.42048 0.70184 0.0
H1622 H 0.65663 0.60444 0.65629 0.0
H1623 H 0.6451 0.6588 0.67044 0.0
H1624 H 0.61135 0.6349 0.69703 0.0
H1625 H 0.5871 0.59945 0.72098 0.0
H1626 H 0.59854 0.5451 0.70613 0.0
H1627 H 0.62997 0.56787 0.67417 0.0
C1628 C 0.64663 0.61099 0.66502 0.0
C1629 C 0.65348 0.63339 0.662 0.0
C1630 C 0.62717 0.59712 0.6799 0.0
C1631 C 0.6402 0.64161 0.67273 0.0
C1632 C 0.62093 0.62797 0.68793 0.0
C1633 C 0.59625 0.59252 0.71012 0.0
C1634 C 0.59063 0.57071 0.71599 0.0
C1635 C 0.61451 0.60582 0.69227 0.0
C1636 C 0.60245 0.56179 0.70167 0.0
C1637 C 0.62058 0.57489 0.68376 0.0
H1638 H 0.6982 0.71261 0.64819 0.0
H1639 H 0.76617 0.76171 0.66152 0.0
H1640 H 0.75784 0.79057 0.6497 0.0
H1641 H 0.73289 0.80013 0.62216 0.0
H1642 H 0.66554 0.75064 0.60428 0.0
H1643 H 0.67186 0.72378 0.63196 0.0
C1644 C 0.71114 0.72967 0.64953 0.0
C1645 C 0.73287 0.73488 0.65464 0.0
C1646 C 0.70635 0.74612 0.64137 0.0
C1647 C 0.74935 0.75715 0.65686 0.0
C1648 C 0.74461 0.7737 0.64997 0.0
C1649 C 0.71939 0.78375 0.62565 0.0
C1650 C 0.69887 0.77722 0.61077 0.0
C1651 C 0.72339 0.76817 0.64015 0.0
C1652 C 0.68154 0.75591 0.61527 0.0
C1653 C 0.6852 0.74052 0.63083 0.0
H1654 H 0.25562 0.98139 0.66781 0.0
H1655 H 0.30438 0.96218 0.66225 0.0
H1656 H 0.27606 0.9235 0.65679 0.0
H1657 H 0.2379 0.89627 0.64138 0.0
H1658 H 0.18961 0.91598 0.64241 0.0
H1659 H 0.21706 0.95309 0.66293 0.0
C1660 C 0.26011 0.96875 0.66614 0.0
C1661 C 0.28214 0.9748 0.66454 0.0
C1662 C 0.24371 0.94652 0.66218 0.0
C1663 C 0.28759 0.95811 0.66305 0.0
C1664 C 0.27137 0.93592 0.65982 0.0
C1665 C 0.23327 0.90842 0.6478 0.0
C1666 C 0.21183 0.90348 0.64073 0.0
C1667 C 0.2494 0.93004 0.65771 0.0
C1668 C 0.20599 0.91941 0.64822 0.0
C1669 C 0.22177 0.94072 0.65936 0.0
H1670 H 0.02776 0.28855 0.68834 0.0
H1671 H 0.02645 0.34643 0.65886 0.0
H1672 H 0.06179 0.36031 0.63504 0.0
H1673 H 0.09218 0.35528 0.62048 0.0
H1674 H 0.09159 0.2955 0.6447 0.0
H1675 H 0.0585 0.2837 0.67408 0.0
C1676 C 0.03525 0.30425 0.67682 0.0
C1677 C 0.0244 0.31637 0.67523 0.0
C1678 C 0.05541 0.31196 0.66262 0.0
C1679 C 0.03433 0.33666 0.66017 0.0
C1680 C 0.05459 0.34466 0.64667 0.0
C1681 C 0.08483 0.3396 0.63202 0.0
C1682 C 0.09446 0.32629 0.62996 0.0
C1683 C 0.06514 0.33231 0.64739 0.0
C1684 C 0.08489 0.30634 0.64607 0.0
C1685 C 0.06572 0.29938 0.66254 0.0
H1686 H 0.30368 0.34941 0.66106 0.0
H1687 H 0.25578 0.28541 0.6914 0.0
H1688 H 0.2266 0.29147 0.67163 0.0
H1689 H 0.21474 0.31368 0.64195 0.0
H1690 H 0.2622 0.37845 0.61353 0.0
H1691 H 0.29145 0.37366 0.63711 0.0
C1692 C 0.28684 0.33683 0.66318 0.0
C1693 C 0.28183 0.31683 0.67702 0.0
C1694 C 0.27007 0.34068 0.65255 0.0
C1695 C 0.25999 0.30085 0.68049 0.0
C1696 C 0.2433 0.30433 0.66934 0.0
C1697 C 0.2314 0.32709 0.64191 0.0
C1698 C 0.23624 0.34634 0.62578 0.0
C1699 C 0.24814 0.32409 0.65505 0.0
C1700 C 0.25803 0.36339 0.6256 0.0
C1701 C 0.27479 0.36058 0.63881 0.0
H1702 H 0.74171 0.98389 0.63877 0.0
H1703 H 0.67445 0.96614 0.64427 0.0
H1704 H 0.66352 0.9272 0.63984 0.0
H1705 H 0.67252 0.89884 0.62362 0.0
H1706 H 0.73955 0.91721 0.61332 0.0
H1707 H 0.75108 0.9549 0.63201 0.0
C1708 C 0.72468 0.97154 0.63963 0.0
C1709 C 0.70891 0.97801 0.6409 0.0
C1710 C 0.71843 0.94915 0.63627 0.0
C1711 C 0.68696 0.96171 0.64272 0.0
C1712 C 0.68066 0.93938 0.64015 0.0
C1713 C 0.68968 0.91099 0.62636 0.0
C1714 C 0.70507 0.90527 0.61637 0.0
C1715 C 0.69617 0.93297 0.6353 0.0
C1716 C 0.72729 0.92104 0.62077 0.0
C1717 C 0.73391 0.94277 0.63095 0.0
H1718 H 0.03285 0.72492 0.68514 0.0
H1719 H 0.99767 0.74957 0.62963 0.0
H1720 H 0.03137 0.77731 0.60706 0.0
H1721 H 0.07009 0.79197 0.59869 0.0
H1722 H 0.10532 0.7671 0.65319 0.0
H1723 H 0.07253 0.74258 0.68151 0.0
C1724 C 0.0326 0.73645 0.66825 0.0
C1725 C 0.01274 0.73494 0.65862 0.0
C1726 C 0.05207 0.75245 0.65546 0.0
C1727 C 0.01271 0.75026 0.63722 0.0
C1728 C 0.03197 0.76615 0.62432 0.0
C1729 C 0.07065 0.78152 0.61735 0.0
C1730 C 0.08997 0.78118 0.62375 0.0
C1731 C 0.05165 0.76707 0.63272 0.0
C1732 C 0.09064 0.76774 0.64807 0.0
C1733 C 0.07183 0.75351 0.6639 0.0
H1734 H 0.93355 0.58105 0.69098 0.0
H1735 H 0.99639 0.63857 0.68023 0.0
H1736 H 0.01398 0.61718 0.69175 0.0
H1737 H 0.01178 0.58477 0.71691 0.0
H1738 H 0.94925 0.52868 0.73274 0.0
H1739 H 0.93121 0.54653 0.70638 0.0
C1740 C 0.95106 0.58883 0.69034 0.0
C1741 C 0.96363 0.61157 0.68568 0.0
C1742 C 0.96114 0.57661 0.69807 0.0
C1743 C 0.98629 0.62121 0.68438 0.0
C1744 C 0.99641 0.60899 0.69105 0.0
C1745 C 0.99424 0.57612 0.71305 0.0
C1746 C 0.98176 0.55547 0.72634 0.0
C1747 C 0.98406 0.58703 0.69964 0.0
C1748 C 0.95906 0.54447 0.72215 0.0
C1749 C 0.94879 0.55483 0.70756 0.0
H1750 H 0.3875 0.38419 0.69018 0.0
H1751 H 0.43277 0.36046 0.68395 0.0
H1752 H 0.46315 0.39803 0.69032 0.0
H1753 H 0.47645 0.43614 0.70973 0.0
H1754 H 0.43157 0.46006 0.71858 0.0
H1755 H 0.4016 0.42415 0.69827 0.0
C1756 C 0.404 0.38728 0.68921 0.0
C1757 C 0.40782 0.36946 0.68747 0.0
C1758 C 0.42153 0.40902 0.69374 0.0
C1759 C 0.42933 0.37382 0.686 0.0
C1760 C 0.44677 0.39534 0.68967 0.0
C1761 C 0.4603 0.43384 0.70581 0.0
C1762 C 0.45619 0.45064 0.71616 0.0
C1763 C 0.44306 0.41293 0.69533 0.0
C1764 C 0.43509 0.44728 0.71111 0.0
C1765 C 0.41791 0.42667 0.6998 0.0
H1766 H 0.62746 0.00664 0.64979 0.0
H1767 H 0.66049 0.06419 0.71627 0.0
H1768 H 0.62695 0.05287 0.74442 0.0
H1769 H 0.58909 0.02515 0.75289 0.0
H1770 H 0.55586 0.96763 0.68668 0.0
H1771 H 0.58846 0.98068 0.655 0.0
C1772 C 0.62727 0.01674 0.67035 0.0
C1773 C 0.64649 0.03605 0.68126 0.0
C1774 C 0.60788 0.01022 0.68626 0.0
C1775 C 0.64594 0.04919 0.70754 0.0
C1776 C 0.62677 0.04274 0.72364 0.0
C1777 C 0.58894 0.01569 0.73118 0.0
C1778 C 0.57026 0.99543 0.72216 0.0
C1779 C 0.60778 0.02311 0.71356 0.0
C1780 C 0.57006 0.98335 0.69389 0.0
C1781 C 0.58875 0.99069 0.67604 0.0
loop_
_geom_bond_atom_site_label_1
_geom_bond_atom_site_label_2
_geom_bond_distance
_geom_bond_site_symmetry_2
_ccdc_geom_bond_type
Mg0 O1 2.028 1_556 S
Mg0 O7 1.986 1_455 S
Mg0 O9 2.114 . S
Mg0 O10 2.251 1_455 S
Mg0 O13 2.010 1_556 S
O1 Mg0 2.028 1_554 S
O1 C4 1.250 1_455 S
O2 Mg3 2.028 1_554 S
O2 C4 1.248 . S
Mg3 O2 2.028 1_556 S
Mg3 O8 2.032 . S
Mg3 O10 2.079 . S
C4 O1 1.250 1_655 S
C4 O2 1.248 . S
C5 O6 1.264 1_554 S
C5 O13 1.249 . S
O6 C5 1.264 1_556 S
O7 Mg0 1.986 1_655 S
O7 C11 1.246 . S
O8 Mg3 2.032 . S
O8 C11 1.259 . S
O9 Mg0 2.114 . S
O9 C12 1.252 . S
O10 Mg0 2.251 1_655 S
O10 Mg3 2.079 . S
O10 C12 1.273 1_655 S
C11 O7 1.246 . S
C11 O8 1.259 . S
C12 O9 1.252 . S
C12 O10 1.273 1_455 S
O13 Mg0 2.010 1_554 S
O13 C5 1.249 . S
Mg14 O15 2.028 1_554 S
Mg14 O21 1.986 . S
Mg14 O23 2.114 . S
Mg14 O24 2.251 . S
Mg14 O27 2.010 . S
O15 Mg14 2.028 1_556 S
O15 C18 1.250 . S
O16 Mg17 2.028 1_556 S
O16 C18 1.248 . S
Mg17 O16 2.028 1_554 S
Mg17 O22 2.032 . S
Mg17 O24 2.079 . S
C18 O15 1.250 . S
C18 O16 1.248 . S
C19 O20 1.264 . S
C19 O27 1.249 . S
O20 C19 1.264 . S
O21 Mg14 1.986 . S
O21 C25 1.246 . S
O22 Mg17 2.032 . S
O22 C25 1.259 . S
O23 Mg14 2.114 . S
O23 C26 1.252 . S
O24 Mg14 2.251 . S
O24 Mg17 2.079 . S
O24 C26 1.273 . S
C25 O21 1.246 . S
C25 O22 1.259 . S
C26 O23 1.252 . S
C26 O24 1.273 . S
O27 Mg14 2.010 . S
O27 C19 1.249 . S
Mg28 O29 2.022 1_556 S
Mg28 O35 1.986 1_565 S
Mg28 O37 2.114 . S
Mg28 O38 2.251 1_565 S
Mg28 O41 2.010 1_556 S
O29 Mg28 2.022 1_554 S
O29 C32 1.244 1_565 S
O30 Mg31 2.028 1_554 S
O30 C32 1.248 . S
Mg31 O30 2.028 1_556 S
Mg31 O36 2.032 . S
Mg31 O38 2.079 . S
C32 O29 1.244 1_545 S
C32 O30 1.248 . S
C33 O34 1.264 1_554 S
C33 O41 1.249 . S
O34 C33 1.264 1_556 S
O35 Mg28 1.986 1_545 S
O35 C39 1.246 . S
O36 Mg31 2.032 . S
O36 C39 1.259 . S
O37 Mg28 2.114 . S
O37 C40 1.252 . S
O38 Mg28 2.251 1_545 S
O38 Mg31 2.079 . S
O38 C40 1.273 1_545 S
C39 O35 1.246 . S
C39 O36 1.259 . S
C40 O37 1.252 . S
C40 O38 1.273 1_565 S
O41 Mg28 2.010 1_554 S
O41 C33 1.249 . S
Mg42 O43 2.028 1_554 S
Mg42 O49 1.986 1_655 S
Mg42 O51 2.114 . S
Mg42 O52 2.251 1_655 S
Mg42 O55 2.010 . S
O43 Mg42 2.028 1_556 S
O43 C46 1.250 1_655 S
O44 Mg45 2.028 1_556 S
O44 C46 1.248 . S
Mg45 O44 2.028 1_554 S
Mg45 O50 2.032 . S
Mg45 O52 2.079 . S
C46 O43 1.250 1_455 S
C46 O44 1.248 . S
C47 O48 1.264 . S
C47 O55 1.249 . S
O48 C47 1.264 . S
O49 Mg42 1.986 1_455 S
O49 C53 1.246 . S
O50 Mg45 2.032 . S
O50 C53 1.259 . S
O51 Mg42 2.114 . S
O51 C54 1.252 . S
O52 Mg42 2.251 1_455 S
O52 Mg45 2.079 . S
O52 C54 1.273 1_455 S
C53 O49 1.246 . S
C53 O50 1.259 . S
C54 O51 1.252 . S
C54 O52 1.273 1_655 S
O55 Mg42 2.010 . S
O55 C47 1.249 . S
Mg56 O57 2.028 1_556 S
Mg56 O63 1.986 . S
Mg56 O65 2.114 . S
Mg56 O66 2.251 . S
Mg56 O69 2.010 1_556 S
O57 Mg56 2.028 1_554 S
O57 C60 1.250 . S
O58 Mg59 2.028 1_554 S
O58 C60 1.248 . S
Mg59 O58 2.028 1_556 S
Mg59 O64 2.032 . S
Mg59 O66 2.079 . S
C60 O57 1.250 . S
C60 O58 1.248 . S
C61 O62 1.254 1_554 S
C61 O69 1.249 . S
O62 C61 1.254 1_556 S
O63 Mg56 1.986 . S
O63 C67 1.246 . S
O64 Mg59 2.032 . S
O64 C67 1.259 . S
O65 Mg56 2.114 . S
O65 C68 1.252 . S
O66 Mg56 2.251 . S
O66 Mg59 2.079 . S
O66 C68 1.273 . S
C67 O63 1.246 . S
C67 O64 1.259 . S
C68 O65 1.252 . S
C68 O66 1.273 . S
O69 Mg56 2.010 1_554 S
O69 C61 1.249 . S
Mg70 O71 2.028 1_554 S
Mg70 O77 1.986 1_545 S
Mg70 O79 2.114 . S
Mg70 O80 2.251 1_545 S
Mg70 O83 2.010 . S
O71 Mg70 2.028 1_556 S
O71 C74 1.250 1_545 S
O72 Mg73 2.028 1_556 S
O72 C74 1.248 . S
Mg73 O72 2.028 1_554 S
Mg73 O78 2.032 . S
Mg73 O80 2.079 . S
C74 O71 1.250 1_565 S
C74 O72 1.248 . S
C75 O76 1.264 . S
C75 O83 1.249 . S
O76 C75 1.264 . S
O77 Mg70 1.986 1_565 S
O77 C81 1.246 . S
O78 Mg73 2.032 . S
O78 C81 1.259 . S
O79 Mg70 2.114 . S
O79 C82 1.252 . S
O80 Mg70 2.251 1_565 S
O80 Mg73 2.079 . S
O80 C82 1.273 1_565 S
C81 O77 1.246 . S
C81 O78 1.259 . S
C82 O79 1.252 . S
C82 O80 1.273 1_545 S
O83 Mg70 2.010 . S
O83 C75 1.249 . S
Mg84 O85 2.028 . S
Mg84 O91 1.986 . S
Mg84 O93 2.114 . S
Mg84 O94 2.251 . S
Mg84 O97 2.010 . S
O85 Mg84 2.028 . S
O85 C88 1.250 . S
O86 Mg87 2.028 . S
O86 C88 1.248 . S
Mg87 O86 2.028 . S
Mg87 O92 2.032 . S
Mg87 O94 2.079 . S
C88 O85 1.250 . S
C88 O86 1.248 . S
C89 O90 1.264 . S
C89 O97 1.249 . S
O90 C89 1.264 . S
O91 Mg84 1.986 . S
O91 C95 1.246 . S
O92 Mg87 2.032 . S
O92 C95 1.259 . S
O93 Mg84 2.114 . S
O93 C96 1.252 . S
O94 Mg84 2.251 . S
O94 Mg87 2.079 . S
O94 C96 1.273 . S
C95 O91 1.246 . S
C95 O92 1.259 . S
C96 O93 1.252 . S
C96 O94 1.273 . S
O97 Mg84 2.010 . S
O97 C89 1.249 . S
Mg98 O99 2.028 . S
Mg98 O105 1.986 1_565 S
Mg98 O107 2.114 . S
Mg98 O108 2.251 . S
Mg98 O111 2.010 . S
O99 Mg98 2.028 . S
O99 C102 1.250 . S
O100 Mg101 2.028 . S
O100 C102 1.248 . S
Mg101 O100 2.028 . S
Mg101 O106 2.032 1_565 S
Mg101 O108 2.079 . S
C102 O99 1.250 . S
C102 O100 1.248 . S
C103 O104 1.264 . S
C103 O111 1.249 . S
O104 C103 1.264 . S
O105 Mg98 1.986 1_545 S
O105 C109 1.246 . S
O106 Mg101 2.032 1_545 S
O106 C109 1.259 . S
O107 Mg98 2.114 . S
O107 C110 1.252 . S
O108 Mg98 2.251 . S
O108 Mg101 2.079 . S
O108 C110 1.273 . S
C109 O105 1.246 . S
C109 O106 1.259 . S
C110 O107 1.252 . S
C110 O108 1.273 . S
O111 Mg98 2.010 . S
O111 C103 1.249 . S
Mg112 O113 2.028 . S
Mg112 O119 1.986 . S
Mg112 O121 2.114 . S
Mg112 O122 2.251 . S
Mg112 O125 2.010 1_455 S
O113 Mg112 2.028 . S
O113 C116 1.250 . S
O114 Mg115 2.028 . S
O114 C116 1.248 . S
Mg115 O114 2.028 . S
Mg115 O120 2.032 . S
Mg115 O122 2.079 . S
C116 O113 1.250 . S
C116 O114 1.248 . S
C117 O118 1.264 . S
C117 O125 1.249 . S
O118 C117 1.264 . S
O119 Mg112 1.986 . S
O119 C123 1.246 . S
O120 Mg115 2.032 . S
O120 C123 1.259 . S
O121 Mg112 2.114 . S
O121 C124 1.252 . S
O122 Mg112 2.251 . S
O122 Mg115 2.079 . S
O122 C124 1.273 . S
C123 O119 1.246 . S
C123 O120 1.259 . S
C124 O121 1.252 . S
C124 O122 1.273 . S
O125 Mg112 2.010 1_655 S
O125 C117 1.249 . S
Mg126 O127 2.028 . S
Mg126 O133 1.986 1_565 S
Mg126 O135 2.114 . S
Mg126 O136 2.251 . S
Mg126 O139 2.010 . S
O127 Mg126 2.028 . S
O127 C130 1.250 . S
O128 Mg129 2.028 . S
O128 C130 1.248 . S
Mg129 O128 2.028 . S
Mg129 O134 2.032 1_565 S
Mg129 O136 2.079 . S
C130 O127 1.250 . S
C130 O128 1.248 . S
C131 O132 1.264 . S
C131 O139 1.249 . S
O132 C131 1.264 . S
O133 Mg126 1.986 1_545 S
O133 C137 1.246 . S
O134 Mg129 2.032 1_545 S
O134 C137 1.259 . S
O135 Mg126 2.114 . S
O135 C138 1.252 . S
O136 Mg126 2.251 . S
O136 Mg129 2.079 . S
O136 C138 1.273 . S
C137 O133 1.246 . S
C137 O134 1.259 . S
C138 O135 1.252 . S
C138 O136 1.273 . S
O139 Mg126 2.010 . S
O139 C131 1.249 . S
Mg140 O141 2.028 . S
Mg140 O147 1.986 . S
Mg140 O149 2.114 . S
Mg140 O150 2.251 . S
Mg140 O153 2.010 1_455 S
O141 Mg140 2.028 . S
O141 C144 1.250 . S
O142 Mg143 2.028 . S
O142 C144 1.248 . S
Mg143 O142 2.028 . S
Mg143 O148 2.032 . S
Mg143 O150 2.079 . S
C144 O141 1.250 . S
C144 O142 1.248 . S
C145 O146 1.264 . S
C145 O153 1.249 . S
O146 C145 1.264 . S
O147 Mg140 1.986 . S
O147 C151 1.246 . S
O148 Mg143 2.032 . S
O148 C151 1.259 . S
O149 Mg140 2.114 . S
O149 C152 1.252 . S
O150 Mg140 2.251 . S
O150 Mg143 2.079 . S
O150 C152 1.273 . S
C151 O147 1.246 . S
C151 O148 1.259 . S
C152 O149 1.252 . S
C152 O150 1.273 . S
O153 Mg140 2.010 1_655 S
O153 C145 1.249 . S
Mg154 O155 2.028 . S
Mg154 O161 1.986 . S
Mg154 O163 2.114 . S
Mg154 O164 2.251 . S
Mg154 O167 2.010 . S
O155 Mg154 2.028 . S
O155 C158 1.250 . S
O156 Mg157 2.028 . S
O156 C158 1.248 . S
Mg157 O156 2.028 . S
Mg157 O162 2.032 . S
Mg157 O164 2.079 . S
C158 O155 1.250 . S
C158 O156 1.248 . S
C159 O160 1.264 . S
C159 O167 1.249 . S
O160 C159 1.264 . S
O161 Mg154 1.986 . S
O161 C165 1.246 . S
O162 Mg157 2.032 . S
O162 C165 1.259 . S
O163 Mg154 2.114 . S
O163 C166 1.252 . S
O164 Mg154 2.251 . S
O164 Mg157 2.079 . S
O164 C166 1.273 . S
C165 O161 1.246 . S
C165 O162 1.259 . S
C166 O163 1.252 . S
C166 O164 1.273 . S
O167 Mg154 2.010 . S
O167 C159 1.249 . S
Mg168 O169 2.028 . S
Mg168 O175 1.986 1_545 S
Mg168 O177 2.114 . S
Mg168 O178 2.251 . S
Mg168 O181 2.010 . S
O169 Mg168 2.028 . S
O169 C172 1.250 . S
O170 Mg171 2.028 . S
O170 C172 1.248 . S
Mg171 O170 2.028 . S
Mg171 O176 2.032 1_545 S
Mg171 O178 2.079 . S
C172 O169 1.250 . S
C172 O170 1.248 . S
C173 O174 1.264 . S
C173 O181 1.249 . S
O174 C173 1.264 . S
O175 Mg168 1.986 1_565 S
O175 C179 1.246 . S
O176 Mg171 2.032 1_565 S
O176 C179 1.259 . S
O177 Mg168 2.114 . S
O177 C180 1.252 . S
O178 Mg168 2.251 . S
O178 Mg171 2.079 . S
O178 C180 1.273 . S
C179 O175 1.246 . S
C179 O176 1.259 . S
C180 O177 1.252 . S
C180 O178 1.273 . S
O181 Mg168 2.010 . S
O181 C173 1.249 . S
Mg182 O183 2.028 . S
Mg182 O189 1.986 . S
Mg182 O191 2.114 . S
Mg182 O192 2.251 . S
Mg182 O195 2.010 1_655 S
O183 Mg182 2.028 . S
O183 C186 1.250 . S
O184 Mg185 2.028 . S
O184 C186 1.248 . S
Mg185 O184 2.028 . S
Mg185 O190 2.032 . S
Mg185 O192 2.079 . S
C186 O183 1.250 . S
C186 O184 1.248 . S
C187 O188 1.264 . S
C187 O195 1.249 . S
O188 C187 1.264 . S
O189 Mg182 1.986 . S
O189 C193 1.246 . S
O190 Mg185 2.032 . S
O190 C193 1.259 . S
O191 Mg182 2.114 . S
O191 C194 1.252 . S
O192 Mg182 2.251 . S
O192 Mg185 2.079 . S
O192 C194 1.273 . S
C193 O189 1.246 . S
C193 O190 1.259 . S
C194 O191 1.252 . S
C194 O192 1.273 . S
O195 Mg182 2.010 1_455 S
O195 C187 1.249 . S
Mg196 O197 2.028 . S
Mg196 O203 1.986 . S
Mg196 O205 2.114 . S
Mg196 O206 2.251 . S
Mg196 O209 2.010 . S
O197 Mg196 2.028 . S
O197 C200 1.250 . S
O198 Mg199 2.028 . S
O198 C200 1.248 . S
Mg199 O198 2.028 . S
Mg199 O204 2.032 . S
Mg199 O206 2.079 . S
C200 O197 1.250 . S
C200 O198 1.248 . S
C201 O202 1.264 . S
C201 O209 1.249 . S
O202 C201 1.264 . S
O203 Mg196 1.986 . S
O203 C207 1.246 . S
O204 Mg199 2.032 . S
O204 C207 1.259 . S
O205 Mg196 2.114 . S
O205 C208 1.252 . S
O206 Mg196 2.251 . S
O206 Mg199 2.079 . S
O206 C208 1.273 . S
C207 O203 1.246 . S
C207 O204 1.259 . S
C208 O205 1.252 . S
C208 O206 1.273 . S
O209 Mg196 2.010 . S
O209 C201 1.249 . S
Mg210 O211 2.028 . S
Mg210 O217 1.986 . S
Mg210 O219 2.114 . S
Mg210 O220 2.251 . S
Mg210 O223 2.010 . S
O211 Mg210 2.028 . S
O211 C214 1.250 . S
O212 Mg213 2.028 . S
O212 C214 1.248 . S
Mg213 O212 2.028 . S
Mg213 O218 2.032 . S
Mg213 O220 2.079 . S
C214 O211 1.250 . S
C214 O212 1.248 . S
C215 O216 1.264 . S
C215 O223 1.249 . S
O216 C215 1.264 . S
O217 Mg210 1.986 . S
O217 C221 1.246 . S
O218 Mg213 2.032 . S
O218 C221 1.259 . S
O219 Mg210 2.114 . S
O219 C222 1.252 . S
O220 Mg210 2.251 . S
O220 Mg213 2.079 . S
O220 C222 1.273 . S
C221 O217 1.246 . S
C221 O218 1.259 . S
C222 O219 1.252 . S
C222 O220 1.273 . S
O223 Mg210 2.010 . S
O223 C215 1.249 . S
Mg224 O225 2.028 . S
Mg224 O231 1.986 1_545 S
Mg224 O233 2.114 . S
Mg224 O234 2.251 . S
Mg224 O237 2.010 . S
O225 Mg224 2.028 . S
O225 C228 1.250 . S
O226 Mg227 2.028 . S
O226 C228 1.248 . S
Mg227 O226 2.028 . S
Mg227 O232 2.032 1_545 S
Mg227 O234 2.079 . S
C228 O225 1.250 . S
C228 O226 1.248 . S
C229 O230 1.264 . S
C229 O237 1.249 . S
O230 C229 1.264 . S
O231 Mg224 1.986 1_565 S
O231 C235 1.246 . S
O232 Mg227 2.032 1_565 S
O232 C235 1.259 . S
O233 Mg224 2.114 . S
O233 C236 1.252 . S
O234 Mg224 2.251 . S
O234 Mg227 2.079 . S
O234 C236 1.273 . S
C235 O231 1.246 . S
C235 O232 1.259 . S
C236 O233 1.252 . S
C236 O234 1.273 . S
O237 Mg224 2.010 . S
O237 C229 1.249 . S
Mg238 O239 2.028 . S
Mg238 O245 1.986 . S
Mg238 O247 2.114 . S
Mg238 O248 2.251 . S
Mg238 O251 2.010 1_655 S
O239 Mg238 2.028 . S
O239 C242 1.250 . S
O240 Mg241 2.028 . S
O240 C242 1.248 . S
Mg241 O240 2.028 . S
Mg241 O246 2.032 . S
Mg241 O248 2.079 . S
C242 O239 1.250 . S
C242 O240 1.248 . S
C243 O244 1.264 . S
C243 O251 1.249 . S
O244 C243 1.264 . S
O245 Mg238 1.986 . S
O245 C249 1.246 . S
O246 Mg241 2.032 . S
O246 C249 1.259 . S
O247 Mg238 2.114 . S
O247 C250 1.252 . S
O248 Mg238 2.251 . S
O248 Mg241 2.079 . S
O248 C250 1.273 . S
C249 O245 1.246 . S
C249 O246 1.259 . S
C250 O247 1.252 . S
C250 O248 1.273 . S
O251 Mg238 2.010 1_455 S
O251 C243 1.249 . S
H252 C260 0.930 . S
H253 C263 0.930 . S
H254 C265 0.930 . S
H255 C266 0.970 . S
H256 C266 0.970 . S
H257 C268 0.930 . S
H258 C270 0.930 . S
H259 C272 0.930 . S
C260 H252 0.930 . S
C260 C261 1.382 . S
C260 C262 1.426 . S
C261 C260 1.382 . S
C261 C265 1.389 . S
C262 C260 1.426 . S
C262 C263 1.375 . S
C262 C266 1.532 . S
C263 H253 0.930 . S
C263 C262 1.375 . S
C263 C264 1.416 . S
C264 C263 1.416 . S
C264 C265 1.371 . S
C265 H254 0.930 . S
C265 C261 1.389 . S
C265 C264 1.371 . S
C266 H255 0.970 . S
C266 H256 0.970 . S
C266 C262 1.532 . S
C266 C267 1.499 . S
C267 C266 1.499 . S
C267 C268 1.370 . S
C267 C272 1.415 . S
C268 H257 0.930 . S
C268 C267 1.370 . S
C268 C269 1.407 . S
C269 C268 1.407 . S
C269 C270 1.365 . S
C270 H258 0.930 . S
C270 C269 1.365 . S
C270 C271 1.393 . S
C271 C270 1.393 . S
C271 C272 1.387 . S
C272 H259 0.930 . S
C272 C267 1.415 . S
C272 C271 1.387 . S
H273 C281 0.930 . S
H274 C284 0.930 . S
H275 C286 0.930 . S
H276 C287 0.970 . S
H277 C287 0.970 . S
H278 C289 0.930 . S
H279 C291 0.930 . S
H280 C293 0.930 . S
C281 H273 0.930 . S
C281 C282 1.382 . S
C281 C283 1.426 . S
C282 C281 1.382 . S
C282 C286 1.389 . S
C283 C281 1.426 . S
C283 C284 1.375 . S
C283 C287 1.532 . S
C284 H274 0.930 . S
C284 C283 1.375 . S
C284 C285 1.416 . S
C285 C284 1.416 . S
C285 C286 1.371 . S
C286 H275 0.930 . S
C286 C282 1.389 . S
C286 C285 1.371 . S
C287 H276 0.970 . S
C287 H277 0.970 . S
C287 C283 1.532 . S
C287 C288 1.499 . S
C288 C287 1.499 . S
C288 C289 1.370 . S
C288 C293 1.415 . S
C289 H278 0.930 . S
C289 C288 1.370 . S
C289 C290 1.407 . S
C290 C289 1.407 . S
C290 C291 1.365 . S
C291 H279 0.930 . S
C291 C290 1.365 . S
C291 C292 1.393 . S
C292 C291 1.393 . S
C292 C293 1.387 . S
C293 H280 0.930 . S
C293 C288 1.415 . S
C293 C292 1.387 . S
H294 C302 0.930 . S
H295 C305 0.930 . S
H296 C307 0.930 . S
H297 C308 0.970 . S
H298 C308 0.970 . S
H299 C310 0.930 . S
H300 C312 0.930 . S
H301 C314 0.930 . S
C302 H294 0.930 . S
C302 C303 1.382 . S
C302 C304 1.426 . S
C303 C302 1.382 . S
C303 C307 1.389 . S
C304 C302 1.426 . S
C304 C305 1.375 . S
C304 C308 1.532 . S
C305 H295 0.930 . S
C305 C304 1.375 . S
C305 C306 1.416 . S
C306 C305 1.416 . S
C306 C307 1.371 . S
C307 H296 0.930 . S
C307 C303 1.389 . S
C307 C306 1.371 . S
C308 H297 0.970 . S
C308 H298 0.970 . S
C308 C304 1.532 . S
C308 C309 1.499 . S
C309 C308 1.499 . S
C309 C310 1.370 . S
C309 C314 1.415 . S
C310 H299 0.930 . S
C310 C309 1.370 . S
C310 C311 1.407 . S
C311 C310 1.407 . S
C311 C312 1.365 . S
C312 H300 0.930 . S
C312 C311 1.365 . S
C312 C313 1.393 . S
C313 C312 1.393 . S
C313 C314 1.387 . S
C314 H301 0.930 . S
C314 C309 1.415 . S
C314 C313 1.387 . S
H315 C323 0.930 . S
H316 C326 0.930 . S
H317 C328 0.930 . S
H318 C329 0.970 . S
H319 C329 0.970 . S
H320 C331 0.930 . S
H321 C333 0.930 . S
H322 C335 0.930 . S
C323 H315 0.930 . S
C323 C324 1.382 . S
C323 C325 1.426 . S
C324 C323 1.382 . S
C324 C328 1.389 . S
C325 C323 1.426 . S
C325 C326 1.375 . S
C325 C329 1.532 . S
C326 H316 0.930 . S
C326 C325 1.375 . S
C326 C327 1.416 . S
C327 C326 1.416 . S
C327 C328 1.371 . S
C328 H317 0.930 . S
C328 C324 1.389 . S
C328 C327 1.371 . S
C329 H318 0.970 . S
C329 H319 0.970 . S
C329 C325 1.532 . S
C329 C330 1.499 . S
C330 C329 1.499 . S
C330 C331 1.370 . S
C330 C335 1.415 . S
C331 H320 0.930 . S
C331 C330 1.370 . S
C331 C332 1.407 . S
C332 C331 1.407 . S
C332 C333 1.365 . S
C333 H321 0.930 . S
C333 C332 1.365 . S
C333 C334 1.393 . S
C334 C333 1.393 . S
C334 C335 1.387 . S
C335 H322 0.930 . S
C335 C330 1.415 . S
C335 C334 1.387 . S
H336 C344 0.930 . S
H337 C347 0.930 . S
H338 C349 0.930 . S
H339 C350 0.970 . S
H340 C350 0.970 . S
H341 C352 0.930 . S
H342 C354 0.930 . S
H343 C356 0.930 . S
C344 H336 0.930 . S
C344 C345 1.382 . S
C344 C346 1.426 . S
C345 C344 1.382 . S
C345 C349 1.389 . S
C346 C344 1.426 . S
C346 C347 1.375 . S
C346 C350 1.532 . S
C347 H337 0.930 . S
C347 C346 1.375 . S
C347 C348 1.416 . S
C348 C347 1.416 . S
C348 C349 1.371 . S
C349 H338 0.930 . S
C349 C345 1.389 . S
C349 C348 1.371 . S
C350 H339 0.970 . S
C350 H340 0.970 . S
C350 C346 1.532 . S
C350 C351 1.499 . S
C351 C350 1.499 . S
C351 C352 1.370 . S
C351 C356 1.415 . S
C352 H341 0.930 . S
C352 C351 1.370 . S
C352 C353 1.407 . S
C353 C352 1.407 . S
C353 C354 1.365 . S
C354 H342 0.930 . S
C354 C353 1.365 . S
C354 C355 1.393 . S
C355 C354 1.393 . S
C355 C356 1.387 . S
C356 H343 0.930 . S
C356 C351 1.415 . S
C356 C355 1.387 . S
H357 C365 0.930 . S
H358 C368 0.930 . S
H359 C370 0.930 . S
H360 C371 0.970 . S
H361 C371 0.970 . S
H362 C373 0.930 . S
H363 C375 0.930 . S
H364 C377 0.930 . S
C365 H357 0.930 . S
C365 C366 1.382 . S
C365 C367 1.426 . S
C366 C365 1.382 . S
C366 C370 1.389 . S
C367 C365 1.426 . S
C367 C368 1.375 . S
C367 C371 1.532 . S
C368 H358 0.930 . S
C368 C367 1.375 . S
C368 C369 1.416 . S
C369 C368 1.416 . S
C369 C370 1.371 . S
C370 H359 0.930 . S
C370 C366 1.389 . S
C370 C369 1.371 . S
C371 H360 0.970 . S
C371 H361 0.970 . S
C371 C367 1.532 . S
C371 C372 1.499 . S
C372 C371 1.499 . S
C372 C373 1.370 . S
C372 C377 1.415 . S
C373 H362 0.930 . S
C373 C372 1.370 . S
C373 C374 1.407 . S
C374 C373 1.407 . S
C374 C375 1.365 . S
C375 H363 0.930 . S
C375 C374 1.365 . S
C375 C376 1.393 . S
C376 C375 1.393 . S
C376 C377 1.387 . S
C377 H364 0.930 . S
C377 C372 1.415 . S
C377 C376 1.387 . S
H378 C386 0.930 . S
H379 C389 0.930 . S
H380 C391 0.930 . S
H381 C392 0.970 . S
H382 C392 0.970 . S
H383 C394 0.930 . S
H384 C396 0.930 . S
H385 C398 0.930 . S
C386 H378 0.930 . S
C386 C387 1.382 . S
C386 C388 1.426 . S
C387 C386 1.382 . S
C387 C391 1.389 . S
C388 C386 1.426 . S
C388 C389 1.375 . S
C388 C392 1.532 . S
C389 H379 0.930 . S
C389 C388 1.375 . S
C389 C390 1.416 . S
C390 C389 1.416 . S
C390 C391 1.371 . S
C391 H380 0.930 . S
C391 C387 1.389 . S
C391 C390 1.371 . S
C392 H381 0.970 . S
C392 H382 0.970 . S
C392 C388 1.532 . S
C392 C393 1.499 . S
C393 C392 1.499 . S
C393 C394 1.370 . S
C393 C398 1.415 . S
C394 H383 0.930 . S
C394 C393 1.370 . S
C394 C395 1.407 . S
C395 C394 1.407 . S
C395 C396 1.365 . S
C396 H384 0.930 . S
C396 C395 1.365 . S
C396 C397 1.393 . S
C397 C396 1.393 . S
C397 C398 1.387 . S
C398 H385 0.930 . S
C398 C393 1.415 . S
C398 C397 1.387 . S
H399 C407 0.930 . S
H400 C410 0.930 . S
H401 C412 0.930 . S
H402 C413 0.970 . S
H403 C413 0.970 . S
H404 C415 0.930 . S
H405 C417 0.930 . S
H406 C419 0.930 . S
C407 H399 0.930 . S
C407 C408 1.382 . S
C407 C409 1.426 . S
C408 C407 1.382 . S
C408 C412 1.389 . S
C409 C407 1.426 . S
C409 C410 1.375 . S
C409 C413 1.532 . S
C410 H400 0.930 . S
C410 C409 1.375 . S
C410 C411 1.416 . S
C411 C410 1.416 . S
C411 C412 1.371 . S
C412 H401 0.930 . S
C412 C408 1.389 . S
C412 C411 1.371 . S
C413 H402 0.970 . S
C413 H403 0.970 . S
C413 C409 1.532 . S
C413 C414 1.499 . S
C414 C413 1.499 . S
C414 C415 1.370 . S
C414 C419 1.415 . S
C415 H404 0.930 . S
C415 C414 1.370 . S
C415 C416 1.407 . S
C416 C415 1.407 . S
C416 C417 1.365 . S
C417 H405 0.930 . S
C417 C416 1.365 . S
C417 C418 1.393 . S
C418 C417 1.393 . S
C418 C419 1.387 . S
C419 H406 0.930 . S
C419 C414 1.415 . S
C419 C418 1.387 . S
H420 C428 0.930 . S
H421 C431 0.930 . S
H422 C433 0.930 . S
H423 C434 0.970 . S
H424 C434 0.970 . S
H425 C436 0.930 . S
H426 C438 0.930 . S
H427 C440 0.930 . S
C428 H420 0.930 . S
C428 C429 1.382 . S
C428 C430 1.426 . S
C429 C428 1.382 . S
C429 C433 1.389 . S
C430 C428 1.426 . S
C430 C431 1.375 . S
C430 C434 1.532 . S
C431 H421 0.930 . S
C431 C430 1.375 . S
C431 C432 1.416 . S
C432 C431 1.416 . S
C432 C433 1.371 . S
C433 H422 0.930 . S
C433 C429 1.389 . S
C433 C432 1.371 . S
C434 H423 0.970 . S
C434 H424 0.970 . S
C434 C430 1.532 . S
C434 C435 1.499 . S
C435 C434 1.499 . S
C435 C436 1.370 . S
C435 C440 1.415 . S
C436 H425 0.930 . S
C436 C435 1.370 . S
C436 C437 1.407 . S
C437 C436 1.407 . S
C437 C438 1.365 . S
C438 H426 0.930 . S
C438 C437 1.365 . S
C438 C439 1.393 . S
C439 C438 1.393 . S
C439 C440 1.387 . S
C440 H427 0.930 . S
C440 C435 1.415 . S
C440 C439 1.387 . S
H441 C449 0.930 . S
H442 C452 0.930 . S
H443 C454 0.930 . S
H444 C455 0.970 . S
H445 C455 0.970 . S
H446 C457 0.930 . S
H447 C459 0.930 . S
H448 C461 0.930 . S
C449 H441 0.930 . S
C449 C450 1.382 . S
C449 C451 1.426 . S
C450 C449 1.382 . S
C450 C454 1.389 1_455 S
C451 C449 1.426 . S
C451 C452 1.375 . S
C451 C455 1.532 . S
C452 H442 0.930 . S
C452 C451 1.375 . S
C452 C453 1.416 . S
C453 C452 1.416 . S
C453 C454 1.371 1_455 S
C454 H443 0.930 . S
C454 C450 1.389 1_655 S
C454 C453 1.371 1_655 S
C455 H444 0.970 . S
C455 H445 0.970 . S
C455 C451 1.532 . S
C455 C456 1.499 . S
C456 C455 1.499 . S
C456 C457 1.370 . S
C456 C461 1.415 . S
C457 H446 0.930 . S
C457 C456 1.370 . S
C457 C458 1.410 . S
C458 C457 1.410 . S
C458 C459 1.368 1_455 S
C459 H447 0.930 . S
C459 C458 1.368 1_655 S
C459 C460 1.393 1_655 S
C460 C459 1.393 1_455 S
C460 C461 1.387 . S
C461 H448 0.930 . S
C461 C456 1.415 . S
C461 C460 1.387 . S
H462 C470 0.930 . S
H463 C473 0.930 . S
H464 C475 0.930 . S
H465 C476 0.970 . S
H466 C476 0.970 . S
H467 C478 0.930 . S
H468 C480 0.930 . S
H469 C482 0.930 . S
C470 H462 0.930 . S
C470 C471 1.382 . S
C470 C472 1.426 . S
C471 C470 1.382 . S
C471 C475 1.389 . S
C472 C470 1.426 . S
C472 C473 1.375 . S
C472 C476 1.532 . S
C473 H463 0.930 . S
C473 C472 1.375 . S
C473 C474 1.416 . S
C474 C473 1.416 . S
C474 C475 1.371 . S
C475 H464 0.930 . S
C475 C471 1.389 . S
C475 C474 1.371 . S
C476 H465 0.970 . S
C476 H466 0.970 . S
C476 C472 1.532 . S
C476 C477 1.499 . S
C477 C476 1.499 . S
C477 C478 1.370 . S
C477 C482 1.415 . S
C478 H467 0.930 . S
C478 C477 1.370 . S
C478 C479 1.407 . S
C479 C478 1.407 . S
C479 C480 1.365 . S
C480 H468 0.930 . S
C480 C479 1.365 . S
C480 C481 1.393 . S
C481 C480 1.393 . S
C481 C482 1.387 . S
C482 H469 0.930 . S
C482 C477 1.415 . S
C482 C481 1.387 . S
H483 C491 0.930 . S
H484 C494 0.930 . S
H485 C496 0.930 . S
H486 C497 0.970 . S
H487 C497 0.970 . S
H488 C499 0.930 . S
H489 C501 0.930 . S
H490 C503 0.930 . S
C491 H483 0.930 . S
C491 C492 1.382 . S
C491 C493 1.426 . S
C492 C491 1.382 . S
C492 C496 1.389 1_565 S
C493 C491 1.426 . S
C493 C494 1.375 . S
C493 C497 1.532 . S
C494 H484 0.930 . S
C494 C493 1.375 . S
C494 C495 1.416 . S
C495 C494 1.416 . S
C495 C496 1.371 1_565 S
C496 H485 0.930 . S
C496 C492 1.389 1_545 S
C496 C495 1.371 1_545 S
C497 H486 0.970 . S
C497 H487 0.970 . S
C497 C493 1.532 . S
C497 C498 1.499 . S
C498 C497 1.499 . S
C498 C499 1.370 . S
C498 C503 1.415 . S
C499 H488 0.930 . S
C499 C498 1.370 . S
C499 C500 1.434 . S
C500 C499 1.434 . S
C500 C501 1.355 1_565 S
C501 H489 0.930 . S
C501 C500 1.355 1_545 S
C501 C502 1.393 1_545 S
C502 C501 1.393 1_565 S
C502 C503 1.387 . S
C503 H490 0.930 . S
C503 C498 1.415 . S
C503 C502 1.387 . S
H504 C512 0.930 . S
H505 C515 0.930 . S
H506 C517 0.930 . S
H507 C518 0.970 . S
H508 C518 0.970 . S
H509 C520 0.930 . S
H510 C522 0.930 . S
H511 C524 0.930 . S
C512 H504 0.930 . S
C512 C513 1.382 . S
C512 C514 1.426 . S
C513 C512 1.382 . S
C513 C517 1.389 1_565 S
C514 C512 1.426 . S
C514 C515 1.375 . S
C514 C518 1.532 . S
C515 H505 0.930 . S
C515 C514 1.375 . S
C515 C516 1.416 . S
C516 C515 1.416 . S
C516 C517 1.371 1_565 S
C517 H506 0.930 . S
C517 C513 1.389 1_545 S
C517 C516 1.371 1_545 S
C518 H507 0.970 . S
C518 H508 0.970 . S
C518 C514 1.532 . S
C518 C519 1.499 . S
C519 C518 1.499 . S
C519 C520 1.370 . S
C519 C524 1.415 . S
C520 H509 0.930 . S
C520 C519 1.370 . S
C520 C521 1.407 . S
C521 C520 1.407 . S
C521 C522 1.365 1_565 S
C522 H510 0.930 . S
C522 C521 1.365 1_545 S
C522 C523 1.393 1_545 S
C523 C522 1.393 1_565 S
C523 C524 1.387 . S
C524 H511 0.930 . S
C524 C519 1.415 . S
C524 C523 1.387 . S
H525 C533 0.930 . S
H526 C536 0.930 . S
H527 C538 0.930 . S
H528 C539 0.970 . S
H529 C539 0.970 . S
H530 C541 0.930 . S
H531 C543 0.930 . S
H532 C545 0.930 . S
C533 H525 0.930 . S
C533 C534 1.382 . S
C533 C535 1.426 . S
C534 C533 1.382 . S
C534 C538 1.389 1_455 S
C535 C533 1.426 . S
C535 C536 1.375 . S
C535 C539 1.532 . S
C536 H526 0.930 . S
C536 C535 1.375 . S
C536 C537 1.416 . S
C537 C536 1.416 . S
C537 C538 1.371 1_455 S
C538 H527 0.930 . S
C538 C534 1.389 1_655 S
C538 C537 1.371 1_655 S
C539 H528 0.970 . S
C539 H529 0.970 . S
C539 C535 1.532 . S
C539 C540 1.499 . S
C540 C539 1.499 . S
C540 C541 1.370 . S
C540 C545 1.415 . S
C541 H530 0.930 . S
C541 C540 1.370 . S
C541 C542 1.407 . S
C542 C541 1.407 . S
C542 C543 1.365 1_455 S
C543 H531 0.930 . S
C543 C542 1.365 1_655 S
C543 C544 1.393 1_655 S
C544 C543 1.393 1_455 S
C544 C545 1.387 . S
C545 H532 0.930 . S
C545 C540 1.415 . S
C545 C544 1.387 . S
H546 C554 0.930 . S
H547 C557 0.930 . S
H548 C559 0.930 . S
H549 C560 0.970 . S
H550 C560 0.970 . S
H551 C562 0.930 . S
H552 C564 0.930 . S
H553 C566 0.930 . S
C554 H546 0.930 . S
C554 C555 1.382 . S
C554 C556 1.426 . S
C555 C554 1.382 . S
C555 C559 1.389 . S
C556 C554 1.426 . S
C556 C557 1.375 . S
C556 C560 1.532 . S
C557 H547 0.930 . S
C557 C556 1.375 . S
C557 C558 1.416 . S
C558 C557 1.416 . S
C558 C559 1.371 . S
C559 H548 0.930 . S
C559 C555 1.389 . S
C559 C558 1.371 . S
C560 H549 0.970 . S
C560 H550 0.970 . S
C560 C556 1.532 . S
C560 C561 1.499 . S
C561 C560 1.499 . S
C561 C562 1.370 . S
C561 C566 1.415 . S
C562 H551 0.930 . S
C562 C561 1.370 . S
C562 C563 1.407 . S
C563 C562 1.407 . S
C563 C564 1.365 . S
C564 H552 0.930 . S
C564 C563 1.365 . S
C564 C565 1.393 . S
C565 C564 1.393 . S
C565 C566 1.387 . S
C566 H553 0.930 . S
C566 C561 1.415 . S
C566 C565 1.387 . S
H567 C575 0.930 . S
H568 C578 0.930 . S
H569 C580 0.930 . S
H570 C581 0.970 . S
H571 C581 0.970 . S
H572 C583 0.930 . S
H573 C585 0.930 . S
H574 C587 0.930 . S
C575 H567 0.930 . S
C575 C576 1.382 . S
C575 C577 1.426 . S
C576 C575 1.382 . S
C576 C580 1.389 . S
C577 C575 1.426 . S
C577 C578 1.375 . S
C577 C581 1.532 . S
C578 H568 0.930 . S
C578 C577 1.375 . S
C578 C579 1.416 . S
C579 C578 1.416 . S
C579 C580 1.371 . S
C580 H569 0.930 . S
C580 C576 1.389 . S
C580 C579 1.371 . S
C581 H570 0.970 . S
C581 H571 0.970 . S
C581 C577 1.532 . S
C581 C582 1.499 . S
C582 C581 1.499 . S
C582 C583 1.370 . S
C582 C587 1.415 . S
C583 H572 0.930 . S
C583 C582 1.370 . S
C583 C584 1.407 . S
C584 C583 1.407 . S
C584 C585 1.365 . S
C585 H573 0.930 . S
C585 C584 1.365 . S
C585 C586 1.393 . S
C586 C585 1.393 . S
C586 C587 1.387 . S
C587 H574 0.930 . S
C587 C582 1.415 . S
C587 C586 1.387 . S
H588 C596 0.930 . S
H589 C599 0.930 . S
H590 C601 0.930 . S
H591 C602 0.970 . S
H592 C602 0.970 . S
H593 C604 0.930 . S
H594 C606 0.930 . S
H595 C608 0.930 . S
C596 H588 0.930 . S
C596 C597 1.382 . S
C596 C598 1.426 . S
C597 C596 1.382 . S
C597 C601 1.389 . S
C598 C596 1.426 . S
C598 C599 1.375 . S
C598 C602 1.532 . S
C599 H589 0.930 . S
C599 C598 1.375 . S
C599 C600 1.416 . S
C600 C599 1.416 . S
C600 C601 1.371 . S
C601 H590 0.930 . S
C601 C597 1.389 . S
C601 C600 1.371 . S
C602 H591 0.970 . S
C602 H592 0.970 . S
C602 C598 1.532 . S
C602 C603 1.499 . S
C603 C602 1.499 . S
C603 C604 1.370 . S
C603 C608 1.415 . S
C604 H593 0.930 . S
C604 C603 1.370 . S
C604 C605 1.407 . S
C605 C604 1.407 . S
C605 C606 1.365 . S
C606 H594 0.930 . S
C606 C605 1.365 . S
C606 C607 1.393 . S
C607 C606 1.393 . S
C607 C608 1.387 . S
C608 H595 0.930 . S
C608 C603 1.415 . S
C608 C607 1.387 . S
H609 C617 0.930 . S
H610 C620 0.930 . S
H611 C622 0.930 . S
H612 C623 0.970 . S
H613 C623 0.970 . S
H614 C625 0.930 . S
H615 C627 0.930 . S
H616 C629 0.930 . S
C617 H609 0.930 . S
C617 C618 1.382 . S
C617 C619 1.426 . S
C618 C617 1.382 . S
C618 C622 1.389 . S
C619 C617 1.426 . S
C619 C620 1.375 . S
C619 C623 1.532 . S
C620 H610 0.930 . S
C620 C619 1.375 . S
C620 C621 1.416 . S
C621 C620 1.416 . S
C621 C622 1.371 . S
C622 H611 0.930 . S
C622 C618 1.389 . S
C622 C621 1.371 . S
C623 H612 0.970 . S
C623 H613 0.970 . S
C623 C619 1.532 . S
C623 C624 1.499 . S
C624 C623 1.499 . S
C624 C625 1.370 . S
C624 C629 1.415 . S
C625 H614 0.930 . S
C625 C624 1.370 . S
C625 C626 1.407 . S
C626 C625 1.407 . S
C626 C627 1.365 . S
C627 H615 0.930 . S
C627 C626 1.365 . S
C627 C628 1.393 . S
C628 C627 1.393 . S
C628 C629 1.387 . S
C629 H616 0.930 . S
C629 C624 1.415 . S
C629 C628 1.387 . S
H630 C636 0.930 . S
H631 C639 0.930 . S
H632 C640 0.930 . S
H633 C641 0.930 . S
H634 C644 0.930 . S
H635 C645 0.930 . S
C636 H630 0.930 . S
C636 C637 1.355 . S
C636 C638 1.415 . S
C637 C636 1.355 . S
C637 C639 1.419 1_655 S
C638 C636 1.415 . S
C638 C643 1.425 1_655 S
C638 C645 1.409 . S
C639 H631 0.930 . S
C639 C637 1.419 1_455 S
C639 C640 1.362 . S
C640 H632 0.930 . S
C640 C639 1.362 . S
C640 C643 1.409 . S
C641 H633 0.930 . S
C641 C642 1.355 1_455 S
C641 C643 1.415 . S
C642 C641 1.355 1_655 S
C642 C644 1.419 . S
C643 C638 1.425 1_455 S
C643 C640 1.409 . S
C643 C641 1.415 . S
C644 H634 0.930 . S
C644 C642 1.419 . S
C644 C645 1.362 . S
C645 H635 0.930 . S
C645 C638 1.409 . S
C645 C644 1.362 . S
H646 C652 0.930 . S
H647 C655 0.930 . S
H648 C656 0.930 . S
H649 C657 0.930 . S
H650 C660 0.930 . S
H651 C661 0.930 . S
C652 H646 0.930 . S
C652 C653 1.355 . S
C652 C654 1.415 . S
C653 C652 1.355 . S
C653 C655 1.419 . S
C654 C652 1.415 . S
C654 C659 1.425 . S
C654 C661 1.409 . S
C655 H647 0.930 . S
C655 C653 1.419 . S
C655 C656 1.362 . S
C656 H648 0.930 . S
C656 C655 1.362 . S
C656 C659 1.409 . S
C657 H649 0.930 . S
C657 C658 1.355 . S
C657 C659 1.415 . S
C658 C657 1.355 . S
C658 C660 1.419 . S
C659 C654 1.425 . S
C659 C656 1.409 . S
C659 C657 1.415 . S
C660 H650 0.930 . S
C660 C658 1.419 . S
C660 C661 1.362 . S
C661 H651 0.930 . S
C661 C654 1.409 . S
C661 C660 1.362 . S
H662 C668 0.930 . S
H663 C671 0.930 . S
H664 C672 0.930 . S
H665 C673 0.930 . S
H666 C676 0.930 . S
H667 C677 0.930 . S
C668 H662 0.930 . S
C668 C669 1.355 . S
C668 C670 1.415 . S
C669 C668 1.355 . S
C669 C671 1.419 . S
C670 C668 1.415 . S
C670 C675 1.425 . S
C670 C677 1.409 . S
C671 H663 0.930 . S
C671 C669 1.419 . S
C671 C672 1.362 . S
C672 H664 0.930 . S
C672 C671 1.362 . S
C672 C675 1.409 . S
C673 H665 0.930 . S
C673 C674 1.355 . S
C673 C675 1.415 . S
C674 C673 1.355 . S
C674 C676 1.419 . S
C675 C670 1.425 . S
C675 C672 1.409 . S
C675 C673 1.415 . S
C676 H666 0.930 . S
C676 C674 1.419 . S
C676 C677 1.362 . S
C677 H667 0.930 . S
C677 C670 1.409 . S
C677 C676 1.362 . S
H678 C684 0.930 . S
H679 C687 0.930 . S
H680 C688 0.930 . S
H681 C689 0.930 . S
H682 C692 0.930 . S
H683 C693 0.930 . S
C684 H678 0.930 . S
C684 C685 1.355 1_545 S
C684 C686 1.415 . S
C685 C684 1.355 1_565 S
C685 C687 1.419 . S
C686 C684 1.415 . S
C686 C691 1.425 1_545 S
C686 C693 1.409 . S
C687 H679 0.930 . S
C687 C685 1.419 . S
C687 C688 1.362 . S
C688 H680 0.930 . S
C688 C687 1.362 . S
C688 C691 1.409 . S
C689 H681 0.930 . S
C689 C690 1.355 . S
C689 C691 1.415 . S
C690 C689 1.355 . S
C690 C692 1.419 1_565 S
C691 C686 1.425 1_565 S
C691 C688 1.409 . S
C691 C689 1.415 . S
C692 H682 0.930 . S
C692 C690 1.419 1_545 S
C692 C693 1.362 . S
C693 H683 0.930 . S
C693 C686 1.409 . S
C693 C692 1.362 . S
H694 C700 0.930 . S
H695 C703 0.930 . S
H696 C704 0.930 . S
H697 C705 0.930 . S
H698 C708 0.930 . S
H699 C709 0.930 . S
C700 H694 0.930 . S
C700 C701 1.355 . S
C700 C702 1.415 . S
C701 C700 1.355 . S
C701 C703 1.419 . S
C702 C700 1.415 . S
C702 C707 1.425 . S
C702 C709 1.409 . S
C703 H695 0.930 . S
C703 C701 1.419 . S
C703 C704 1.362 . S
C704 H696 0.930 . S
C704 C703 1.362 . S
C704 C707 1.409 . S
C705 H697 0.930 . S
C705 C706 1.355 . S
C705 C707 1.415 . S
C706 C705 1.355 . S
C706 C708 1.419 . S
C707 C702 1.425 . S
C707 C704 1.409 . S
C707 C705 1.415 . S
C708 H698 0.930 . S
C708 C706 1.419 . S
C708 C709 1.362 . S
C709 H699 0.930 . S
C709 C702 1.409 . S
C709 C708 1.362 . S
H710 C716 0.930 . S
H711 C719 0.930 . S
H712 C720 0.930 . S
H713 C721 0.930 . S
H714 C724 0.930 . S
H715 C725 0.930 . S
C716 H710 0.930 . S
C716 C717 1.355 . S
C716 C718 1.415 . S
C717 C716 1.355 . S
C717 C719 1.419 . S
C718 C716 1.415 . S
C718 C723 1.425 . S
C718 C725 1.409 . S
C719 H711 0.930 . S
C719 C717 1.419 . S
C719 C720 1.362 . S
C720 H712 0.930 . S
C720 C719 1.362 . S
C720 C723 1.409 . S
C721 H713 0.930 . S
C721 C722 1.355 . S
C721 C723 1.415 . S
C722 C721 1.355 . S
C722 C724 1.419 . S
C723 C718 1.425 . S
C723 C720 1.409 . S
C723 C721 1.415 . S
C724 H714 0.930 . S
C724 C722 1.419 . S
C724 C725 1.362 . S
C725 H715 0.930 . S
C725 C718 1.409 . S
C725 C724 1.362 . S
H726 C732 0.930 . S
H727 C735 0.930 . S
H728 C736 0.930 . S
H729 C737 0.930 . S
H730 C740 0.930 . S
H731 C741 0.930 . S
C732 H726 0.930 . S
C732 C733 1.355 1_655 S
C732 C734 1.415 . S
C733 C732 1.355 1_455 S
C733 C735 1.419 . S
C734 C732 1.415 . S
C734 C739 1.425 1_655 S
C734 C741 1.409 . S
C735 H727 0.930 . S
C735 C733 1.419 . S
C735 C736 1.362 . S
C736 H728 0.930 . S
C736 C735 1.362 . S
C736 C739 1.409 . S
C737 H729 0.930 . S
C737 C738 1.351 1_455 S
C737 C739 1.415 . S
C738 C737 1.351 1_655 S
C738 C740 1.427 . S
C739 C734 1.425 1_455 S
C739 C736 1.409 . S
C739 C737 1.415 . S
C740 H730 0.930 . S
C740 C738 1.427 . S
C740 C741 1.362 . S
C741 H731 0.930 . S
C741 C734 1.409 . S
C741 C740 1.362 . S
H742 C748 0.930 . S
H743 C751 0.930 . S
H744 C752 0.930 . S
H745 C753 0.930 . S
H746 C756 0.930 . S
H747 C757 0.930 . S
C748 H742 0.930 . S
C748 C749 1.355 . S
C748 C750 1.415 . S
C749 C748 1.355 . S
C749 C751 1.419 . S
C750 C748 1.415 . S
C750 C755 1.425 . S
C750 C757 1.409 . S
C751 H743 0.930 . S
C751 C749 1.419 . S
C751 C752 1.362 . S
C752 H744 0.930 . S
C752 C751 1.362 . S
C752 C755 1.409 . S
C753 H745 0.930 . S
C753 C754 1.355 . S
C753 C755 1.415 . S
C754 C753 1.355 . S
C754 C756 1.419 . S
C755 C750 1.425 . S
C755 C752 1.409 . S
C755 C753 1.415 . S
C756 H746 0.930 . S
C756 C754 1.419 . S
C756 C757 1.362 . S
C757 H747 0.930 . S
C757 C750 1.409 . S
C757 C756 1.362 . S
H758 C764 0.930 . S
H759 C767 0.930 . S
H760 C768 0.930 . S
H761 C769 0.930 . S
H762 C772 0.930 . S
H763 C773 0.930 . S
C764 H758 0.930 . S
C764 C765 1.355 . S
C764 C766 1.415 . S
C765 C764 1.355 . S
C765 C767 1.419 1_565 S
C766 C764 1.415 . S
C766 C771 1.425 1_565 S
C766 C773 1.409 . S
C767 H759 0.930 . S
C767 C765 1.419 1_545 S
C767 C768 1.362 . S
C768 H760 0.930 . S
C768 C767 1.362 . S
C768 C771 1.409 . S
C769 H761 0.930 . S
C769 C770 1.355 1_545 S
C769 C771 1.415 . S
C770 C769 1.355 1_565 S
C770 C772 1.419 . S
C771 C766 1.425 1_545 S
C771 C768 1.409 . S
C771 C769 1.415 . S
C772 H762 0.930 . S
C772 C770 1.419 . S
C772 C773 1.362 . S
C773 H763 0.930 . S
C773 C766 1.409 . S
C773 C772 1.362 . S
H774 C780 0.930 . S
H775 C783 0.930 . S
H776 C784 0.930 . S
H777 C785 0.930 . S
H778 C788 0.930 . S
H779 C789 0.930 . S
C780 H774 0.930 . S
C780 C781 1.355 1_565 S
C780 C782 1.415 . S
C781 C780 1.355 1_545 S
C781 C783 1.419 . S
C782 C780 1.415 . S
C782 C787 1.425 1_565 S
C782 C789 1.409 . S
C783 H775 0.930 . S
C783 C781 1.419 . S
C783 C784 1.362 . S
C784 H776 0.930 . S
C784 C783 1.362 . S
C784 C787 1.409 . S
C785 H777 0.930 . S
C785 C786 1.363 . S
C785 C787 1.415 . S
C786 C785 1.363 . S
C786 C788 1.400 1_545 S
C787 C782 1.425 1_545 S
C787 C784 1.409 . S
C787 C785 1.415 . S
C788 H778 0.930 . S
C788 C786 1.400 1_565 S
C788 C789 1.362 . S
C789 H779 0.930 . S
C789 C782 1.409 . S
C789 C788 1.362 . S
H790 C796 0.930 . S
H791 C799 0.930 . S
H792 C800 0.930 . S
H793 C801 0.930 . S
H794 C804 0.930 . S
H795 C805 0.930 . S
C796 H790 0.930 . S
C796 C797 1.355 1_455 S
C796 C798 1.415 . S
C797 C796 1.355 1_655 S
C797 C799 1.419 . S
C798 C796 1.415 . S
C798 C803 1.425 1_455 S
C798 C805 1.409 . S
C799 H791 0.930 . S
C799 C797 1.419 . S
C799 C800 1.362 . S
C800 H792 0.930 . S
C800 C799 1.362 . S
C800 C803 1.409 . S
C801 H793 0.930 . S
C801 C802 1.360 . S
C801 C803 1.415 . S
C802 C801 1.360 . S
C802 C804 1.416 1_655 S
C803 C798 1.425 1_655 S
C803 C800 1.409 . S
C803 C801 1.415 . S
C804 H794 0.930 . S
C804 C802 1.416 1_455 S
C804 C805 1.362 . S
C805 H795 0.930 . S
C805 C798 1.409 . S
C805 C804 1.362 . S
H806 C812 0.930 . S
H807 C815 0.930 . S
H808 C816 0.930 . S
H809 C817 0.930 . S
H810 C820 0.930 . S
H811 C821 0.930 . S
C812 H806 0.930 . S
C812 C813 1.355 . S
C812 C814 1.415 . S
C813 C812 1.355 . S
C813 C815 1.419 . S
C814 C812 1.415 . S
C814 C819 1.425 . S
C814 C821 1.409 . S
C815 H807 0.930 . S
C815 C813 1.419 . S
C815 C816 1.362 . S
C816 H808 0.930 . S
C816 C815 1.362 . S
C816 C819 1.409 . S
C817 H809 0.930 . S
C817 C818 1.355 . S
C817 C819 1.415 . S
C818 C817 1.355 . S
C818 C820 1.419 . S
C819 C814 1.425 . S
C819 C816 1.409 . S
C819 C817 1.415 . S
C820 H810 0.930 . S
C820 C818 1.419 . S
C820 C821 1.362 . S
C821 H811 0.930 . S
C821 C814 1.409 . S
C821 C820 1.362 . S
H822 C828 0.930 . S
H823 C831 0.930 . S
H824 C832 0.930 . S
H825 C833 0.930 . S
H826 C836 0.930 . S
H827 C837 0.930 . S
C828 H822 0.930 . S
C828 C829 1.355 . S
C828 C830 1.415 . S
C829 C828 1.355 . S
C829 C831 1.419 . S
C830 C828 1.415 . S
C830 C835 1.425 . S
C830 C837 1.409 . S
C831 H823 0.930 . S
C831 C829 1.419 . S
C831 C832 1.362 . S
C832 H824 0.930 . S
C832 C831 1.362 . S
C832 C835 1.409 . S
C833 H825 0.930 . S
C833 C834 1.355 . S
C833 C835 1.415 . S
C834 C833 1.355 . S
C834 C836 1.419 . S
C835 C830 1.425 . S
C835 C832 1.409 . S
C835 C833 1.415 . S
C836 H826 0.930 . S
C836 C834 1.419 . S
C836 C837 1.362 . S
C837 H827 0.930 . S
C837 C830 1.409 . S
C837 C836 1.362 . S
H838 C844 0.930 . S
H839 C847 0.930 . S
H840 C848 0.930 . S
H841 C849 0.930 . S
H842 C852 0.930 . S
H843 C853 0.930 . S
C844 H838 0.930 . S
C844 C845 1.355 . S
C844 C846 1.415 . S
C845 C844 1.355 . S
C845 C847 1.419 . S
C846 C844 1.415 . S
C846 C851 1.425 . S
C846 C853 1.409 . S
C847 H839 0.930 . S
C847 C845 1.419 . S
C847 C848 1.362 . S
C848 H840 0.930 . S
C848 C847 1.362 . S
C848 C851 1.409 . S
C849 H841 0.930 . S
C849 C850 1.355 . S
C849 C851 1.415 . S
C850 C849 1.355 . S
C850 C852 1.419 . S
C851 C846 1.425 . S
C851 C848 1.409 . S
C851 C849 1.415 . S
C852 H842 0.930 . S
C852 C850 1.419 . S
C852 C853 1.362 . S
C853 H843 0.930 . S
C853 C846 1.409 . S
C853 C852 1.362 . S
H854 C860 0.930 . S
H855 C863 0.930 . S
H856 C864 0.930 . S
H857 C865 0.930 . S
H858 C868 0.930 . S
H859 C869 0.930 . S
C860 H854 0.930 . S
C860 C861 1.355 . S
C860 C862 1.415 . S
C861 C860 1.355 . S
C861 C863 1.419 . S
C862 C860 1.415 . S
C862 C867 1.425 . S
C862 C869 1.409 . S
C863 H855 0.930 . S
C863 C861 1.419 . S
C863 C864 1.362 . S
C864 H856 0.930 . S
C864 C863 1.362 . S
C864 C867 1.409 . S
C865 H857 0.930 . S
C865 C866 1.355 . S
C865 C867 1.415 . S
C866 C865 1.355 . S
C866 C868 1.419 . S
C867 C862 1.425 . S
C867 C864 1.409 . S
C867 C865 1.415 . S
C868 H858 0.930 . S
C868 C866 1.419 . S
C868 C869 1.362 . S
C869 H859 0.930 . S
C869 C862 1.409 . S
C869 C868 1.362 . S
H870 C876 0.930 . S
H871 C879 0.930 . S
H872 C880 0.930 . S
H873 C881 0.930 . S
H874 C884 0.930 . S
H875 C885 0.930 . S
C876 H870 0.930 . S
C876 C877 1.355 . S
C876 C878 1.415 . S
C877 C876 1.355 . S
C877 C879 1.419 . S
C878 C876 1.415 . S
C878 C883 1.425 . S
C878 C885 1.409 . S
C879 H871 0.930 . S
C879 C877 1.419 . S
C879 C880 1.362 . S
C880 H872 0.930 . S
C880 C879 1.362 . S
C880 C883 1.409 . S
C881 H873 0.930 . S
C881 C882 1.355 . S
C881 C883 1.415 . S
C882 C881 1.355 . S
C882 C884 1.419 . S
C883 C878 1.425 . S
C883 C880 1.409 . S
C883 C881 1.415 . S
C884 H874 0.930 . S
C884 C882 1.419 . S
C884 C885 1.362 . S
C885 H875 0.930 . S
C885 C878 1.409 . S
C885 C884 1.362 . S
H886 C892 0.930 . S
H887 C895 0.930 . S
H888 C896 0.930 . S
H889 C897 0.930 . S
H890 C900 0.930 . S
H891 C901 0.930 . S
C892 H886 0.930 . S
C892 C893 1.355 . S
C892 C894 1.415 . S
C893 C892 1.355 . S
C893 C895 1.419 . S
C894 C892 1.415 . S
C894 C899 1.425 . S
C894 C901 1.409 . S
C895 H887 0.930 . S
C895 C893 1.419 . S
C895 C896 1.362 . S
C896 H888 0.930 . S
C896 C895 1.362 . S
C896 C899 1.409 . S
C897 H889 0.930 . S
C897 C898 1.355 . S
C897 C899 1.415 . S
C898 C897 1.355 . S
C898 C900 1.419 . S
C899 C894 1.425 . S
C899 C896 1.409 . S
C899 C897 1.415 . S
C900 H890 0.930 . S
C900 C898 1.419 . S
C900 C901 1.362 . S
C901 H891 0.930 . S
C901 C894 1.409 . S
C901 C900 1.362 . S
H902 C908 0.930 . S
H903 C911 0.930 . S
H904 C912 0.930 . S
H905 C913 0.930 . S
H906 C916 0.930 . S
H907 C917 0.930 . S
C908 H902 0.930 . S
C908 C909 1.355 . S
C908 C910 1.415 . S
C909 C908 1.355 . S
C909 C911 1.419 . S
C910 C908 1.415 . S
C910 C915 1.425 . S
C910 C917 1.409 . S
C911 H903 0.930 . S
C911 C909 1.419 . S
C911 C912 1.362 . S
C912 H904 0.930 . S
C912 C911 1.362 . S
C912 C915 1.409 . S
C913 H905 0.930 . S
C913 C914 1.355 . S
C913 C915 1.415 . S
C914 C913 1.355 . S
C914 C916 1.419 . S
C915 C910 1.425 . S
C915 C912 1.409 . S
C915 C913 1.415 . S
C916 H906 0.930 . S
C916 C914 1.419 . S
C916 C917 1.362 . S
C917 H907 0.930 . S
C917 C910 1.409 . S
C917 C916 1.362 . S
H918 C924 0.930 . S
H919 C927 0.930 . S
H920 C928 0.930 . S
H921 C929 0.930 . S
H922 C932 0.930 . S
H923 C933 0.930 . S
C924 H918 0.930 . S
C924 C925 1.355 . S
C924 C926 1.415 . S
C925 C924 1.355 . S
C925 C927 1.419 . S
C926 C924 1.415 . S
C926 C931 1.425 . S
C926 C933 1.409 . S
C927 H919 0.930 . S
C927 C925 1.419 . S
C927 C928 1.362 . S
C928 H920 0.930 . S
C928 C927 1.362 . S
C928 C931 1.409 . S
C929 H921 0.930 . S
C929 C930 1.355 . S
C929 C931 1.415 . S
C930 C929 1.355 . S
C930 C932 1.419 . S
C931 C926 1.425 . S
C931 C928 1.409 . S
C931 C929 1.415 . S
C932 H922 0.930 . S
C932 C930 1.419 . S
C932 C933 1.362 . S
C933 H923 0.930 . S
C933 C926 1.409 . S
C933 C932 1.362 . S
H934 C940 0.930 . S
H935 C943 0.930 . S
H936 C944 0.930 . S
H937 C945 0.930 . S
H938 C948 0.930 . S
H939 C949 0.930 . S
C940 H934 0.930 . S
C940 C941 1.355 . S
C940 C942 1.415 . S
C941 C940 1.355 . S
C941 C943 1.419 . S
C942 C940 1.415 . S
C942 C947 1.425 . S
C942 C949 1.409 . S
C943 H935 0.930 . S
C943 C941 1.419 . S
C943 C944 1.362 . S
C944 H936 0.930 . S
C944 C943 1.362 . S
C944 C947 1.409 . S
C945 H937 0.930 . S
C945 C946 1.355 . S
C945 C947 1.415 . S
C946 C945 1.355 . S
C946 C948 1.419 . S
C947 C942 1.425 . S
C947 C944 1.409 . S
C947 C945 1.415 . S
C948 H938 0.930 . S
C948 C946 1.419 . S
C948 C949 1.362 . S
C949 H939 0.930 . S
C949 C942 1.409 . S
C949 C948 1.362 . S
H950 C956 0.930 . S
H951 C959 0.930 . S
H952 C960 0.930 . S
H953 C961 0.930 . S
H954 C964 0.930 . S
H955 C965 0.930 . S
C956 H950 0.930 . S
C956 C957 1.355 . S
C956 C958 1.415 . S
C957 C956 1.355 . S
C957 C959 1.419 . S
C958 C956 1.415 . S
C958 C963 1.425 . S
C958 C965 1.409 . S
C959 H951 0.930 . S
C959 C957 1.419 . S
C959 C960 1.362 . S
C960 H952 0.930 . S
C960 C959 1.362 . S
C960 C963 1.409 . S
C961 H953 0.930 . S
C961 C962 1.355 . S
C961 C963 1.415 . S
C962 C961 1.355 . S
C962 C964 1.419 . S
C963 C958 1.425 . S
C963 C960 1.409 . S
C963 C961 1.415 . S
C964 H954 0.930 . S
C964 C962 1.419 . S
C964 C965 1.362 . S
C965 H955 0.930 . S
C965 C958 1.409 . S
C965 C964 1.362 . S
H966 C972 0.930 . S
H967 C975 0.930 . S
H968 C976 0.930 . S
H969 C977 0.930 . S
H970 C980 0.930 . S
H971 C981 0.930 . S
C972 H966 0.930 . S
C972 C973 1.355 . S
C972 C974 1.415 . S
C973 C972 1.355 . S
C973 C975 1.419 . S
C974 C972 1.415 . S
C974 C979 1.425 . S
C974 C981 1.409 . S
C975 H967 0.930 . S
C975 C973 1.419 . S
C975 C976 1.362 . S
C976 H968 0.930 . S
C976 C975 1.362 . S
C976 C979 1.409 . S
C977 H969 0.930 . S
C977 C978 1.355 . S
C977 C979 1.415 . S
C978 C977 1.355 . S
C978 C980 1.419 . S
C979 C974 1.425 . S
C979 C976 1.409 . S
C979 C977 1.415 . S
C980 H970 0.930 . S
C980 C978 1.419 . S
C980 C981 1.362 . S
C981 H971 0.930 . S
C981 C974 1.409 . S
C981 C980 1.362 . S
H982 C988 0.930 . S
H983 C991 0.930 . S
H984 C992 0.930 . S
H985 C993 0.930 . S
H986 C996 0.930 . S
H987 C997 0.930 . S
C988 H982 0.930 . S
C988 C989 1.355 . S
C988 C990 1.415 . S
C989 C988 1.355 . S
C989 C991 1.419 . S
C990 C988 1.415 . S
C990 C995 1.425 . S
C990 C997 1.409 . S
C991 H983 0.930 . S
C991 C989 1.419 . S
C991 C992 1.362 . S
C992 H984 0.930 . S
C992 C991 1.362 . S
C992 C995 1.409 . S
C993 H985 0.930 . S
C993 C994 1.355 . S
C993 C995 1.415 . S
C994 C993 1.355 . S
C994 C996 1.419 . S
C995 C990 1.425 . S
C995 C992 1.409 . S
C995 C993 1.415 . S
C996 H986 0.930 . S
C996 C994 1.419 . S
C996 C997 1.362 . S
C997 H987 0.930 . S
C997 C990 1.409 . S
C997 C996 1.362 . S
H998 C1004 0.930 . S
H999 C1007 0.930 . S
H1000 C1008 0.930 . S
H1001 C1009 0.930 . S
H1002 C1012 0.930 . S
H1003 C1013 0.930 . S
C1004 H998 0.930 . S
C1004 C1005 1.355 . S
C1004 C1006 1.415 . S
C1005 C1004 1.355 . S
C1005 C1007 1.419 . S
C1006 C1004 1.415 . S
C1006 C1011 1.425 . S
C1006 C1013 1.409 . S
C1007 H999 0.930 . S
C1007 C1005 1.419 . S
C1007 C1008 1.362 . S
C1008 H1000 0.930 . S
C1008 C1007 1.362 . S
C1008 C1011 1.409 . S
C1009 H1001 0.930 . S
C1009 C1010 1.355 . S
C1009 C1011 1.415 . S
C1010 C1009 1.355 . S
C1010 C1012 1.419 . S
C1011 C1006 1.425 . S
C1011 C1008 1.409 . S
C1011 C1009 1.415 . S
C1012 H1002 0.930 . S
C1012 C1010 1.419 . S
C1012 C1013 1.362 . S
C1013 H1003 0.930 . S
C1013 C1006 1.409 . S
C1013 C1012 1.362 . S
H1014 C1020 0.930 . S
H1015 C1023 0.930 . S
H1016 C1024 0.930 . S
H1017 C1025 0.930 . S
H1018 C1028 0.930 . S
H1019 C1029 0.930 . S
C1020 H1014 0.930 . S
C1020 C1021 1.355 . S
C1020 C1022 1.415 . S
C1021 C1020 1.355 . S
C1021 C1023 1.419 . S
C1022 C1020 1.415 . S
C1022 C1027 1.425 . S
C1022 C1029 1.409 . S
C1023 H1015 0.930 . S
C1023 C1021 1.419 . S
C1023 C1024 1.362 . S
C1024 H1016 0.930 . S
C1024 C1023 1.362 . S
C1024 C1027 1.409 . S
C1025 H1017 0.930 . S
C1025 C1026 1.355 . S
C1025 C1027 1.415 . S
C1026 C1025 1.355 . S
C1026 C1028 1.419 . S
C1027 C1022 1.425 . S
C1027 C1024 1.409 . S
C1027 C1025 1.415 . S
C1028 H1018 0.930 . S
C1028 C1026 1.419 . S
C1028 C1029 1.362 . S
C1029 H1019 0.930 . S
C1029 C1022 1.409 . S
C1029 C1028 1.362 . S
H1030 C1036 0.930 . S
H1031 C1039 0.930 . S
H1032 C1040 0.930 . S
H1033 C1041 0.930 . S
H1034 C1044 0.930 . S
H1035 C1045 0.930 . S
C1036 H1030 0.930 . S
C1036 C1037 1.355 . S
C1036 C1038 1.415 . S
C1037 C1036 1.355 . S
C1037 C1039 1.419 . S
C1038 C1036 1.415 . S
C1038 C1043 1.425 . S
C1038 C1045 1.409 . S
C1039 H1031 0.930 . S
C1039 C1037 1.419 . S
C1039 C1040 1.362 . S
C1040 H1032 0.930 . S
C1040 C1039 1.362 . S
C1040 C1043 1.409 . S
C1041 H1033 0.930 . S
C1041 C1042 1.355 . S
C1041 C1043 1.415 . S
C1042 C1041 1.355 . S
C1042 C1044 1.419 . S
C1043 C1038 1.425 . S
C1043 C1040 1.409 . S
C1043 C1041 1.415 . S
C1044 H1034 0.930 . S
C1044 C1042 1.419 . S
C1044 C1045 1.362 . S
C1045 H1035 0.930 . S
C1045 C1038 1.409 . S
C1045 C1044 1.362 . S
H1046 C1052 0.930 . S
H1047 C1055 0.930 . S
H1048 C1056 0.930 . S
H1049 C1057 0.930 . S
H1050 C1060 0.930 . S
H1051 C1061 0.930 . S
C1052 H1046 0.930 . S
C1052 C1053 1.355 . S
C1052 C1054 1.415 . S
C1053 C1052 1.355 . S
C1053 C1055 1.419 . S
C1054 C1052 1.415 . S
C1054 C1059 1.425 . S
C1054 C1061 1.409 . S
C1055 H1047 0.930 . S
C1055 C1053 1.419 . S
C1055 C1056 1.362 . S
C1056 H1048 0.930 . S
C1056 C1055 1.362 . S
C1056 C1059 1.409 . S
C1057 H1049 0.930 . S
C1057 C1058 1.355 . S
C1057 C1059 1.415 . S
C1058 C1057 1.355 . S
C1058 C1060 1.419 . S
C1059 C1054 1.425 . S
C1059 C1056 1.409 . S
C1059 C1057 1.415 . S
C1060 H1050 0.930 . S
C1060 C1058 1.419 . S
C1060 C1061 1.362 . S
C1061 H1051 0.930 . S
C1061 C1054 1.409 . S
C1061 C1060 1.362 . S
H1062 C1068 0.930 . S
H1063 C1071 0.930 . S
H1064 C1072 0.930 . S
H1065 C1073 0.930 . S
H1066 C1076 0.930 . S
H1067 C1077 0.930 . S
C1068 H1062 0.930 . S
C1068 C1069 1.355 . S
C1068 C1070 1.415 . S
C1069 C1068 1.355 . S
C1069 C1071 1.419 . S
C1070 C1068 1.415 . S
C1070 C1075 1.425 . S
C1070 C1077 1.409 . S
C1071 H1063 0.930 . S
C1071 C1069 1.419 . S
C1071 C1072 1.362 . S
C1072 H1064 0.930 . S
C1072 C1071 1.362 . S
C1072 C1075 1.409 . S
C1073 H1065 0.930 . S
C1073 C1074 1.355 . S
C1073 C1075 1.415 . S
C1074 C1073 1.355 . S
C1074 C1076 1.419 . S
C1075 C1070 1.425 . S
C1075 C1072 1.409 . S
C1075 C1073 1.415 . S
C1076 H1066 0.930 . S
C1076 C1074 1.419 . S
C1076 C1077 1.362 . S
C1077 H1067 0.930 . S
C1077 C1070 1.409 . S
C1077 C1076 1.362 . S
H1078 C1084 0.930 . S
H1079 C1087 0.930 . S
H1080 C1088 0.930 . S
H1081 C1089 0.930 . S
H1082 C1092 0.930 . S
H1083 C1093 0.930 . S
C1084 H1078 0.930 . S
C1084 C1085 1.355 . S
C1084 C1086 1.415 . S
C1085 C1084 1.355 . S
C1085 C1087 1.419 . S
C1086 C1084 1.415 . S
C1086 C1091 1.425 . S
C1086 C1093 1.409 . S
C1087 H1079 0.930 . S
C1087 C1085 1.419 . S
C1087 C1088 1.362 . S
C1088 H1080 0.930 . S
C1088 C1087 1.362 . S
C1088 C1091 1.409 . S
C1089 H1081 0.930 . S
C1089 C1090 1.355 . S
C1089 C1091 1.415 . S
C1090 C1089 1.355 . S
C1090 C1092 1.419 . S
C1091 C1086 1.425 . S
C1091 C1088 1.409 . S
C1091 C1089 1.415 . S
C1092 H1082 0.930 . S
C1092 C1090 1.419 . S
C1092 C1093 1.362 . S
C1093 H1083 0.930 . S
C1093 C1086 1.409 . S
C1093 C1092 1.362 . S
H1094 C1100 0.930 . S
H1095 C1103 0.930 . S
H1096 C1104 0.930 . S
H1097 C1105 0.930 . S
H1098 C1108 0.930 . S
H1099 C1109 0.930 . S
C1100 H1094 0.930 . S
C1100 C1101 1.355 . S
C1100 C1102 1.415 . S
C1101 C1100 1.355 . S
C1101 C1103 1.419 . S
C1102 C1100 1.415 . S
C1102 C1107 1.425 . S
C1102 C1109 1.409 . S
C1103 H1095 0.930 . S
C1103 C1101 1.419 . S
C1103 C1104 1.362 . S
C1104 H1096 0.930 . S
C1104 C1103 1.362 . S
C1104 C1107 1.409 . S
C1105 H1097 0.930 . S
C1105 C1106 1.355 . S
C1105 C1107 1.415 . S
C1106 C1105 1.355 . S
C1106 C1108 1.419 . S
C1107 C1102 1.425 . S
C1107 C1104 1.409 . S
C1107 C1105 1.415 . S
C1108 H1098 0.930 . S
C1108 C1106 1.419 . S
C1108 C1109 1.362 . S
C1109 H1099 0.930 . S
C1109 C1102 1.409 . S
C1109 C1108 1.362 . S
H1110 C1116 0.930 . S
H1111 C1119 0.930 . S
H1112 C1120 0.930 . S
H1113 C1121 0.930 . S
H1114 C1124 0.930 . S
H1115 C1125 0.930 . S
C1116 H1110 0.930 . S
C1116 C1117 1.355 . S
C1116 C1118 1.415 . S
C1117 C1116 1.355 . S
C1117 C1119 1.419 . S
C1118 C1116 1.415 . S
C1118 C1123 1.425 . S
C1118 C1125 1.409 . S
C1119 H1111 0.930 . S
C1119 C1117 1.419 . S
C1119 C1120 1.362 . S
C1120 H1112 0.930 . S
C1120 C1119 1.362 . S
C1120 C1123 1.409 . S
C1121 H1113 0.930 . S
C1121 C1122 1.355 . S
C1121 C1123 1.415 . S
C1122 C1121 1.355 . S
C1122 C1124 1.419 . S
C1123 C1118 1.425 . S
C1123 C1120 1.409 . S
C1123 C1121 1.415 . S
C1124 H1114 0.930 . S
C1124 C1122 1.419 . S
C1124 C1125 1.362 . S
C1125 H1115 0.930 . S
C1125 C1118 1.409 . S
C1125 C1124 1.362 . S
H1126 C1132 0.930 . S
H1127 C1135 0.930 . S
H1128 C1136 0.930 . S
H1129 C1137 0.930 . S
H1130 C1140 0.930 . S
H1131 C1141 0.930 . S
C1132 H1126 0.930 . S
C1132 C1133 1.355 . S
C1132 C1134 1.415 . S
C1133 C1132 1.355 . S
C1133 C1135 1.419 . S
C1134 C1132 1.415 . S
C1134 C1139 1.425 . S
C1134 C1141 1.409 . S
C1135 H1127 0.930 . S
C1135 C1133 1.419 . S
C1135 C1136 1.362 . S
C1136 H1128 0.930 . S
C1136 C1135 1.362 . S
C1136 C1139 1.409 . S
C1137 H1129 0.930 . S
C1137 C1138 1.355 . S
C1137 C1139 1.415 . S
C1138 C1137 1.355 . S
C1138 C1140 1.419 . S
C1139 C1134 1.425 . S
C1139 C1136 1.409 . S
C1139 C1137 1.415 . S
C1140 H1130 0.930 . S
C1140 C1138 1.419 . S
C1140 C1141 1.362 . S
C1141 H1131 0.930 . S
C1141 C1134 1.409 . S
C1141 C1140 1.362 . S
H1142 C1148 0.930 . S
H1143 C1151 0.930 . S
H1144 C1152 0.930 . S
H1145 C1153 0.930 . S
H1146 C1156 0.930 . S
H1147 C1157 0.930 . S
C1148 H1142 0.930 . S
C1148 C1149 1.355 . S
C1148 C1150 1.415 . S
C1149 C1148 1.355 . S
C1149 C1151 1.419 . S
C1150 C1148 1.415 . S
C1150 C1155 1.425 . S
C1150 C1157 1.409 . S
C1151 H1143 0.930 . S
C1151 C1149 1.419 . S
C1151 C1152 1.362 . S
C1152 H1144 0.930 . S
C1152 C1151 1.362 . S
C1152 C1155 1.409 . S
C1153 H1145 0.930 . S
C1153 C1154 1.355 . S
C1153 C1155 1.415 . S
C1154 C1153 1.355 . S
C1154 C1156 1.419 . S
C1155 C1150 1.425 . S
C1155 C1152 1.409 . S
C1155 C1153 1.415 . S
C1156 H1146 0.930 . S
C1156 C1154 1.419 . S
C1156 C1157 1.362 . S
C1157 H1147 0.930 . S
C1157 C1150 1.409 . S
C1157 C1156 1.362 . S
H1158 C1164 0.930 . S
H1159 C1167 0.930 . S
H1160 C1168 0.930 . S
H1161 C1169 0.930 . S
H1162 C1172 0.930 . S
H1163 C1173 0.930 . S
C1164 H1158 0.930 . S
C1164 C1165 1.355 . S
C1164 C1166 1.415 . S
C1165 C1164 1.355 . S
C1165 C1167 1.419 . S
C1166 C1164 1.415 . S
C1166 C1171 1.425 . S
C1166 C1173 1.409 . S
C1167 H1159 0.930 . S
C1167 C1165 1.419 . S
C1167 C1168 1.362 . S
C1168 H1160 0.930 . S
C1168 C1167 1.362 . S
C1168 C1171 1.409 . S
C1169 H1161 0.930 . S
C1169 C1170 1.355 . S
C1169 C1171 1.415 . S
C1170 C1169 1.355 . S
C1170 C1172 1.419 . S
C1171 C1166 1.425 . S
C1171 C1168 1.409 . S
C1171 C1169 1.415 . S
C1172 H1162 0.930 . S
C1172 C1170 1.419 . S
C1172 C1173 1.362 . S
C1173 H1163 0.930 . S
C1173 C1166 1.409 . S
C1173 C1172 1.362 . S
H1174 C1180 0.930 . S
H1175 C1183 0.930 . S
H1176 C1184 0.930 . S
H1177 C1185 0.930 . S
H1178 C1188 0.930 . S
H1179 C1189 0.930 . S
C1180 H1174 0.930 . S
C1180 C1181 1.355 . S
C1180 C1182 1.415 . S
C1181 C1180 1.355 . S
C1181 C1183 1.419 . S
C1182 C1180 1.415 . S
C1182 C1187 1.425 . S
C1182 C1189 1.409 . S
C1183 H1175 0.930 . S
C1183 C1181 1.419 . S
C1183 C1184 1.362 . S
C1184 H1176 0.930 . S
C1184 C1183 1.362 . S
C1184 C1187 1.409 . S
C1185 H1177 0.930 . S
C1185 C1186 1.355 . S
C1185 C1187 1.415 . S
C1186 C1185 1.355 . S
C1186 C1188 1.419 . S
C1187 C1182 1.425 . S
C1187 C1184 1.409 . S
C1187 C1185 1.415 . S
C1188 H1178 0.930 . S
C1188 C1186 1.419 . S
C1188 C1189 1.362 . S
C1189 H1179 0.930 . S
C1189 C1182 1.409 . S
C1189 C1188 1.362 . S
H1190 C1196 0.930 . S
H1191 C1199 0.930 . S
H1192 C1200 0.930 . S
H1193 C1201 0.930 . S
H1194 C1204 0.930 . S
H1195 C1205 0.930 . S
C1196 H1190 0.930 . S
C1196 C1197 1.355 . S
C1196 C1198 1.415 . S
C1197 C1196 1.355 . S
C1197 C1199 1.419 . S
C1198 C1196 1.415 . S
C1198 C1203 1.425 . S
C1198 C1205 1.409 . S
C1199 H1191 0.930 . S
C1199 C1197 1.419 . S
C1199 C1200 1.362 . S
C1200 H1192 0.930 . S
C1200 C1199 1.362 . S
C1200 C1203 1.409 . S
C1201 H1193 0.930 . S
C1201 C1202 1.355 . S
C1201 C1203 1.415 . S
C1202 C1201 1.355 . S
C1202 C1204 1.419 . S
C1203 C1198 1.425 . S
C1203 C1200 1.409 . S
C1203 C1201 1.415 . S
C1204 H1194 0.930 . S
C1204 C1202 1.419 . S
C1204 C1205 1.362 . S
C1205 H1195 0.930 . S
C1205 C1198 1.409 . S
C1205 C1204 1.362 . S
H1206 C1212 0.930 . S
H1207 C1215 0.930 . S
H1208 C1216 0.930 . S
H1209 C1217 0.930 . S
H1210 C1220 0.930 . S
H1211 C1221 0.930 . S
C1212 H1206 0.930 . S
C1212 C1213 1.355 . S
C1212 C1214 1.415 . S
C1213 C1212 1.355 . S
C1213 C1215 1.419 . S
C1214 C1212 1.415 . S
C1214 C1219 1.425 . S
C1214 C1221 1.409 . S
C1215 H1207 0.930 . S
C1215 C1213 1.419 . S
C1215 C1216 1.362 . S
C1216 H1208 0.930 . S
C1216 C1215 1.362 . S
C1216 C1219 1.409 . S
C1217 H1209 0.930 . S
C1217 C1218 1.355 . S
C1217 C1219 1.415 . S
C1218 C1217 1.355 . S
C1218 C1220 1.419 . S
C1219 C1214 1.425 . S
C1219 C1216 1.409 . S
C1219 C1217 1.415 . S
C1220 H1210 0.930 . S
C1220 C1218 1.419 . S
C1220 C1221 1.362 . S
C1221 H1211 0.930 . S
C1221 C1214 1.409 . S
C1221 C1220 1.362 . S
H1222 C1228 0.930 . S
H1223 C1231 0.930 . S
H1224 C1232 0.930 . S
H1225 C1233 0.930 . S
H1226 C1236 0.930 . S
H1227 C1237 0.930 . S
C1228 H1222 0.930 . S
C1228 C1229 1.355 . S
C1228 C1230 1.415 . S
C1229 C1228 1.355 . S
C1229 C1231 1.419 . S
C1230 C1228 1.415 . S
C1230 C1235 1.425 . S
C1230 C1237 1.409 . S
C1231 H1223 0.930 . S
C1231 C1229 1.419 . S
C1231 C1232 1.362 . S
C1232 H1224 0.930 . S
C1232 C1231 1.362 . S
C1232 C1235 1.409 . S
C1233 H1225 0.930 . S
C1233 C1234 1.355 . S
C1233 C1235 1.415 . S
C1234 C1233 1.355 . S
C1234 C1236 1.419 . S
C1235 C1230 1.425 . S
C1235 C1232 1.409 . S
C1235 C1233 1.415 . S
C1236 H1226 0.930 . S
C1236 C1234 1.419 . S
C1236 C1237 1.362 . S
C1237 H1227 0.930 . S
C1237 C1230 1.409 . S
C1237 C1236 1.362 . S
H1238 C1244 0.930 . S
H1239 C1247 0.930 . S
H1240 C1248 0.930 . S
H1241 C1249 0.930 . S
H1242 C1252 0.930 . S
H1243 C1253 0.930 . S
C1244 H1238 0.930 . S
C1244 C1245 1.355 . S
C1244 C1246 1.415 . S
C1245 C1244 1.355 . S
C1245 C1247 1.419 . S
C1246 C1244 1.415 . S
C1246 C1251 1.425 . S
C1246 C1253 1.409 . S
C1247 H1239 0.930 . S
C1247 C1245 1.419 . S
C1247 C1248 1.362 . S
C1248 H1240 0.930 . S
C1248 C1247 1.362 . S
C1248 C1251 1.409 . S
C1249 H1241 0.930 . S
C1249 C1250 1.355 . S
C1249 C1251 1.415 . S
C1250 C1249 1.355 . S
C1250 C1252 1.419 . S
C1251 C1246 1.425 . S
C1251 C1248 1.409 . S
C1251 C1249 1.415 . S
C1252 H1242 0.930 . S
C1252 C1250 1.419 . S
C1252 C1253 1.362 . S
C1253 H1243 0.930 . S
C1253 C1246 1.409 . S
C1253 C1252 1.362 . S
H1254 C1260 0.930 . S
H1255 C1263 0.930 . S
H1256 C1264 0.923 1_554 S
H1257 C1265 0.930 . S
H1258 C1268 0.930 . S
H1259 C1269 0.930 . S
C1260 H1254 0.930 . S
C1260 C1261 1.355 . S
C1260 C1262 1.415 . S
C1261 C1260 1.355 . S
C1261 C1263 1.419 1_556 S
C1262 C1260 1.415 . S
C1262 C1267 1.425 . S
C1262 C1269 1.409 . S
C1263 H1255 0.930 . S
C1263 C1261 1.419 1_554 S
C1263 C1264 1.362 1_554 S
C1264 H1256 0.923 1_556 S
C1264 C1263 1.362 1_556 S
C1264 C1267 1.409 . S
C1265 H1257 0.930 . S
C1265 C1266 1.355 . S
C1265 C1267 1.415 . S
C1266 C1265 1.355 . S
C1266 C1268 1.419 . S
C1267 C1262 1.425 . S
C1267 C1264 1.409 . S
C1267 C1265 1.415 . S
C1268 H1258 0.930 . S
C1268 C1266 1.419 . S
C1268 C1269 1.362 . S
C1269 H1259 0.930 . S
C1269 C1262 1.409 . S
C1269 C1268 1.362 . S
H1270 C1276 0.930 . S
H1271 C1279 0.930 . S
H1272 C1280 0.930 1_554 S
H1273 C1281 0.930 . S
H1274 C1284 0.930 . S
H1275 C1285 0.930 . S
C1276 H1270 0.930 . S
C1276 C1277 1.355 . S
C1276 C1278 1.415 . S
C1277 C1276 1.355 . S
C1277 C1279 1.419 1_556 S
C1278 C1276 1.415 . S
C1278 C1283 1.425 . S
C1278 C1285 1.409 . S
C1279 H1271 0.930 . S
C1279 C1277 1.419 1_554 S
C1279 C1280 1.362 1_554 S
C1280 H1272 0.930 1_556 S
C1280 C1279 1.362 1_556 S
C1280 C1283 1.409 . S
C1281 H1273 0.930 . S
C1281 C1282 1.355 . S
C1281 C1283 1.415 . S
C1282 C1281 1.355 . S
C1282 C1284 1.419 . S
C1283 C1278 1.425 . S
C1283 C1280 1.409 . S
C1283 C1281 1.415 . S
C1284 H1274 0.930 . S
C1284 C1282 1.419 . S
C1284 C1285 1.362 . S
C1285 H1275 0.930 . S
C1285 C1278 1.409 . S
C1285 C1284 1.362 . S
H1286 C1292 0.930 . S
H1287 C1295 0.930 1_554 S
H1288 C1296 0.930 . S
H1289 C1297 0.930 . S
H1290 C1300 0.930 . S
H1291 C1301 0.930 . S
C1292 H1286 0.930 . S
C1292 C1293 1.355 . S
C1292 C1294 1.415 . S
C1293 C1292 1.355 . S
C1293 C1295 1.419 . S
C1294 C1292 1.415 . S
C1294 C1299 1.425 . S
C1294 C1301 1.409 . S
C1295 H1287 0.930 1_556 S
C1295 C1293 1.419 . S
C1295 C1296 1.362 . S
C1296 H1288 0.930 . S
C1296 C1295 1.362 . S
C1296 C1299 1.409 . S
C1297 H1289 0.930 . S
C1297 C1298 1.355 . S
C1297 C1299 1.415 . S
C1298 C1297 1.355 . S
C1298 C1300 1.419 . S
C1299 C1294 1.425 . S
C1299 C1296 1.409 . S
C1299 C1297 1.415 . S
C1300 H1290 0.930 . S
C1300 C1298 1.419 . S
C1300 C1301 1.362 . S
C1301 H1291 0.930 . S
C1301 C1294 1.409 . S
C1301 C1300 1.362 . S
H1302 C1308 0.930 . S
H1303 C1311 0.930 . S
H1304 C1312 0.930 . S
H1305 C1313 0.930 . S
H1306 C1316 0.930 . S
H1307 C1317 0.930 . S
C1308 H1302 0.930 . S
C1308 C1309 1.355 . S
C1308 C1310 1.415 . S
C1309 C1308 1.355 . S
C1309 C1311 1.419 . S
C1310 C1308 1.415 . S
C1310 C1315 1.425 . S
C1310 C1317 1.409 . S
C1311 H1303 0.930 . S
C1311 C1309 1.419 . S
C1311 C1312 1.362 . S
C1312 H1304 0.930 . S
C1312 C1311 1.362 . S
C1312 C1315 1.409 . S
C1313 H1305 0.930 . S
C1313 C1314 1.355 . S
C1313 C1315 1.415 . S
C1314 C1313 1.355 . S
C1314 C1316 1.419 . S
C1315 C1310 1.425 . S
C1315 C1312 1.409 . S
C1315 C1313 1.415 . S
C1316 H1306 0.930 . S
C1316 C1314 1.419 . S
C1316 C1317 1.362 . S
C1317 H1307 0.930 . S
C1317 C1310 1.409 . S
C1317 C1316 1.362 . S
H1318 C1324 0.930 . S
H1319 C1327 0.930 . S
H1320 C1328 0.930 . S
H1321 C1329 0.930 . S
H1322 C1332 0.930 . S
H1323 C1333 0.930 . S
C1324 H1318 0.930 . S
C1324 C1325 1.355 . S
C1324 C1326 1.415 . S
C1325 C1324 1.355 . S
C1325 C1327 1.419 1_556 S
C1326 C1324 1.415 . S
C1326 C1331 1.425 . S
C1326 C1333 1.409 . S
C1327 H1319 0.930 . S
C1327 C1325 1.419 1_554 S
C1327 C1328 1.362 . S
C1328 H1320 0.930 . S
C1328 C1327 1.362 . S
C1328 C1331 1.409 1_554 S
C1329 H1321 0.930 . S
C1329 C1330 1.355 . S
C1329 C1331 1.415 . S
C1330 C1329 1.355 . S
C1330 C1332 1.419 . S
C1331 C1326 1.425 . S
C1331 C1328 1.409 1_556 S
C1331 C1329 1.415 . S
C1332 H1322 0.930 . S
C1332 C1330 1.419 . S
C1332 C1333 1.362 . S
C1333 H1323 0.930 . S
C1333 C1326 1.409 . S
C1333 C1332 1.362 . S
H1334 C1340 0.930 . S
H1335 C1343 0.930 . S
H1336 C1344 0.930 . S
H1337 C1345 0.930 . S
H1338 C1348 0.930 . S
H1339 C1349 0.930 . S
C1340 H1334 0.930 . S
C1340 C1341 1.355 . S
C1340 C1342 1.415 . S
C1341 C1340 1.355 . S
C1341 C1343 1.419 . S
C1342 C1340 1.415 . S
C1342 C1347 1.425 . S
C1342 C1349 1.409 . S
C1343 H1335 0.930 . S
C1343 C1341 1.419 . S
C1343 C1344 1.362 . S
C1344 H1336 0.930 . S
C1344 C1343 1.362 . S
C1344 C1347 1.409 . S
C1345 H1337 0.930 . S
C1345 C1346 1.355 . S
C1345 C1347 1.415 . S
C1346 C1345 1.355 . S
C1346 C1348 1.419 . S
C1347 C1342 1.425 . S
C1347 C1344 1.409 . S
C1347 C1345 1.415 . S
C1348 H1338 0.930 . S
C1348 C1346 1.419 . S
C1348 C1349 1.362 . S
C1349 H1339 0.930 . S
C1349 C1342 1.409 . S
C1349 C1348 1.362 . S
H1350 C1356 0.930 . S
H1351 C1359 0.930 1_556 S
H1352 C1360 0.930 . S
H1353 C1361 0.930 . S
H1354 C1364 0.930 . S
H1355 C1365 0.930 . S
C1356 H1350 0.930 . S
C1356 C1357 1.355 . S
C1356 C1358 1.415 . S
C1357 C1356 1.355 . S
C1357 C1359 1.419 . S
C1358 C1356 1.415 . S
C1358 C1363 1.425 . S
C1358 C1365 1.409 . S
C1359 H1351 0.930 1_554 S
C1359 C1357 1.419 . S
C1359 C1360 1.362 . S
C1360 H1352 0.930 . S
C1360 C1359 1.362 . S
C1360 C1363 1.409 . S
C1361 H1353 0.930 . S
C1361 C1362 1.355 . S
C1361 C1363 1.415 . S
C1362 C1361 1.355 . S
C1362 C1364 1.419 . S
C1363 C1358 1.425 . S
C1363 C1360 1.409 . S
C1363 C1361 1.415 . S
C1364 H1354 0.930 . S
C1364 C1362 1.419 . S
C1364 C1365 1.362 . S
C1365 H1355 0.930 . S
C1365 C1358 1.409 . S
C1365 C1364 1.362 . S
H1366 C1372 0.930 . S
H1367 C1375 0.930 . S
H1368 C1376 0.930 . S
H1369 C1377 0.930 . S
H1370 C1380 0.930 . S
H1371 C1381 0.930 . S
C1372 H1366 0.930 . S
C1372 C1373 1.355 . S
C1372 C1374 1.415 . S
C1373 C1372 1.355 . S
C1373 C1375 1.419 . S
C1374 C1372 1.415 . S
C1374 C1379 1.425 . S
C1374 C1381 1.409 . S
C1375 H1367 0.930 . S
C1375 C1373 1.419 . S
C1375 C1376 1.362 . S
C1376 H1368 0.930 . S
C1376 C1375 1.362 . S
C1376 C1379 1.409 . S
C1377 H1369 0.930 . S
C1377 C1378 1.355 . S
C1377 C1379 1.415 . S
C1378 C1377 1.355 . S
C1378 C1380 1.419 . S
C1379 C1374 1.425 . S
C1379 C1376 1.409 . S
C1379 C1377 1.415 . S
C1380 H1370 0.930 . S
C1380 C1378 1.419 . S
C1380 C1381 1.362 . S
C1381 H1371 0.930 . S
C1381 C1374 1.409 . S
C1381 C1380 1.362 . S
H1382 C1388 0.930 . S
H1383 C1391 0.930 . S
H1384 C1392 0.930 . S
H1385 C1393 0.930 . S
H1386 C1396 0.930 . S
H1387 C1397 0.930 . S
C1388 H1382 0.930 . S
C1388 C1389 1.355 . S
C1388 C1390 1.415 . S
C1389 C1388 1.355 . S
C1389 C1391 1.419 . S
C1390 C1388 1.415 . S
C1390 C1395 1.425 . S
C1390 C1397 1.409 . S
C1391 H1383 0.930 . S
C1391 C1389 1.419 . S
C1391 C1392 1.362 . S
C1392 H1384 0.930 . S
C1392 C1391 1.362 . S
C1392 C1395 1.409 . S
C1393 H1385 0.930 . S
C1393 C1394 1.355 . S
C1393 C1395 1.415 . S
C1394 C1393 1.355 . S
C1394 C1396 1.419 . S
C1395 C1390 1.425 . S
C1395 C1392 1.409 . S
C1395 C1393 1.415 . S
C1396 H1386 0.930 . S
C1396 C1394 1.419 . S
C1396 C1397 1.362 . S
C1397 H1387 0.930 . S
C1397 C1390 1.409 . S
C1397 C1396 1.362 . S
H1398 C1404 0.930 . S
H1399 C1407 0.930 . S
H1400 C1408 0.930 . S
H1401 C1409 0.930 . S
H1402 C1412 0.930 . S
H1403 C1413 0.930 . S
C1404 H1398 0.930 . S
C1404 C1405 1.355 . S
C1404 C1406 1.415 . S
C1405 C1404 1.355 . S
C1405 C1407 1.419 . S
C1406 C1404 1.415 . S
C1406 C1411 1.425 . S
C1406 C1413 1.409 . S
C1407 H1399 0.930 . S
C1407 C1405 1.419 . S
C1407 C1408 1.362 . S
C1408 H1400 0.930 . S
C1408 C1407 1.362 . S
C1408 C1411 1.409 . S
C1409 H1401 0.930 . S
C1409 C1410 1.355 . S
C1409 C1411 1.415 . S
C1410 C1409 1.355 . S
C1410 C1412 1.419 . S
C1411 C1406 1.425 . S
C1411 C1408 1.409 . S
C1411 C1409 1.415 . S
C1412 H1402 0.930 . S
C1412 C1410 1.419 . S
C1412 C1413 1.362 . S
C1413 H1403 0.930 . S
C1413 C1406 1.409 . S
C1413 C1412 1.362 . S
H1414 C1420 0.930 . S
H1415 C1423 0.930 . S
H1416 C1424 0.930 . S
H1417 C1425 0.930 . S
H1418 C1428 0.930 . S
H1419 C1429 0.930 . S
C1420 H1414 0.930 . S
C1420 C1421 1.355 . S
C1420 C1422 1.415 . S
C1421 C1420 1.355 . S
C1421 C1423 1.419 . S
C1422 C1420 1.415 . S
C1422 C1427 1.425 . S
C1422 C1429 1.409 . S
C1423 H1415 0.930 . S
C1423 C1421 1.419 . S
C1423 C1424 1.362 . S
C1424 H1416 0.930 . S
C1424 C1423 1.362 . S
C1424 C1427 1.409 . S
C1425 H1417 0.930 . S
C1425 C1426 1.355 . S
C1425 C1427 1.415 . S
C1426 C1425 1.355 . S
C1426 C1428 1.419 . S
C1427 C1422 1.425 . S
C1427 C1424 1.409 . S
C1427 C1425 1.415 . S
C1428 H1418 0.930 . S
C1428 C1426 1.419 . S
C1428 C1429 1.362 . S
C1429 H1419 0.930 . S
C1429 C1422 1.409 . S
C1429 C1428 1.362 . S
H1430 C1436 0.930 . S
H1431 C1439 0.930 . S
H1432 C1440 0.930 . S
H1433 C1441 0.930 . S
H1434 C1444 0.930 . S
H1435 C1445 0.930 . S
C1436 H1430 0.930 . S
C1436 C1437 1.355 . S
C1436 C1438 1.415 . S
C1437 C1436 1.355 . S
C1437 C1439 1.419 . S
C1438 C1436 1.415 . S
C1438 C1443 1.425 . S
C1438 C1445 1.409 . S
C1439 H1431 0.930 . S
C1439 C1437 1.419 . S
C1439 C1440 1.362 . S
C1440 H1432 0.930 . S
C1440 C1439 1.362 . S
C1440 C1443 1.409 . S
C1441 H1433 0.930 . S
C1441 C1442 1.355 . S
C1441 C1443 1.415 . S
C1442 C1441 1.355 . S
C1442 C1444 1.419 . S
C1443 C1438 1.425 . S
C1443 C1440 1.409 . S
C1443 C1441 1.415 . S
C1444 H1434 0.930 . S
C1444 C1442 1.419 . S
C1444 C1445 1.362 . S
C1445 H1435 0.930 . S
C1445 C1438 1.409 . S
C1445 C1444 1.362 . S
H1446 C1452 0.930 1_655 S
H1447 C1455 0.930 . S
H1448 C1456 0.930 . S
H1449 C1457 0.930 . S
H1450 C1460 0.930 . S
H1451 C1461 0.930 . S
C1452 H1446 0.930 1_455 S
C1452 C1453 1.355 . S
C1452 C1454 1.415 . S
C1453 C1452 1.355 . S
C1453 C1455 1.419 . S
C1454 C1452 1.415 . S
C1454 C1459 1.425 . S
C1454 C1461 1.409 1_455 S
C1455 H1447 0.930 . S
C1455 C1453 1.419 . S
C1455 C1456 1.362 . S
C1456 H1448 0.930 . S
C1456 C1455 1.362 . S
C1456 C1459 1.409 . S
C1457 H1449 0.930 . S
C1457 C1458 1.355 . S
C1457 C1459 1.415 . S
C1458 C1457 1.355 . S
C1458 C1460 1.419 1_455 S
C1459 C1454 1.425 . S
C1459 C1456 1.409 . S
C1459 C1457 1.415 . S
C1460 H1450 0.930 . S
C1460 C1458 1.419 1_655 S
C1460 C1461 1.362 . S
C1461 H1451 0.930 . S
C1461 C1454 1.409 1_655 S
C1461 C1460 1.362 . S
H1462 C1468 0.930 . S
H1463 C1471 0.930 . S
H1464 C1472 0.930 . S
H1465 C1473 0.930 . S
H1466 C1476 0.930 . S
H1467 C1477 0.930 . S
C1468 H1462 0.930 . S
C1468 C1469 1.355 . S
C1468 C1470 1.415 . S
C1469 C1468 1.355 . S
C1469 C1471 1.419 . S
C1470 C1468 1.415 . S
C1470 C1475 1.425 . S
C1470 C1477 1.409 . S
C1471 H1463 0.930 . S
C1471 C1469 1.419 . S
C1471 C1472 1.362 . S
C1472 H1464 0.930 . S
C1472 C1471 1.362 . S
C1472 C1475 1.409 . S
C1473 H1465 0.930 . S
C1473 C1474 1.355 . S
C1473 C1475 1.415 . S
C1474 C1473 1.355 . S
C1474 C1476 1.419 . S
C1475 C1470 1.425 . S
C1475 C1472 1.409 . S
C1475 C1473 1.415 . S
C1476 H1466 0.930 . S
C1476 C1474 1.419 . S
C1476 C1477 1.362 . S
C1477 H1467 0.930 . S
C1477 C1470 1.409 . S
C1477 C1476 1.362 . S
H1478 C1484 0.930 . S
H1479 C1487 0.930 . S
H1480 C1488 0.930 . S
H1481 C1489 0.930 . S
H1482 C1492 0.930 1_545 S
H1483 C1493 0.934 . S
C1484 H1478 0.930 . S
C1484 C1485 1.355 . S
C1484 C1486 1.415 . S
C1485 C1484 1.355 . S
C1485 C1487 1.419 . S
C1486 C1484 1.415 . S
C1486 C1491 1.425 . S
C1486 C1493 1.409 . S
C1487 H1479 0.930 . S
C1487 C1485 1.419 . S
C1487 C1488 1.362 . S
C1488 H1480 0.930 . S
C1488 C1487 1.362 . S
C1488 C1491 1.409 . S
C1489 H1481 0.930 . S
C1489 C1490 1.355 . S
C1489 C1491 1.415 . S
C1490 C1489 1.355 . S
C1490 C1492 1.419 . S
C1491 C1486 1.425 . S
C1491 C1488 1.409 . S
C1491 C1489 1.415 . S
C1492 H1482 0.930 1_565 S
C1492 C1490 1.419 . S
C1492 C1493 1.362 . S
C1493 H1483 0.934 . S
C1493 C1486 1.409 . S
C1493 C1492 1.362 . S
H1494 C1500 0.952 . S
H1495 C1503 0.930 . S
H1496 C1504 0.930 . S
H1497 C1505 0.930 . S
H1498 C1508 0.930 . S
H1499 C1509 0.930 . S
C1500 H1494 0.952 . S
C1500 C1501 1.312 1_545 S
C1500 C1502 1.418 . S
C1501 C1500 1.312 1_565 S
C1501 C1503 1.419 . S
C1502 C1500 1.418 . S
C1502 C1507 1.407 1_545 S
C1502 C1509 1.446 . S
C1503 H1495 0.930 . S
C1503 C1501 1.419 . S
C1503 C1504 1.362 . S
C1504 H1496 0.930 . S
C1504 C1503 1.362 . S
C1504 C1507 1.409 . S
C1505 H1497 0.930 . S
C1505 C1506 1.400 . S
C1505 C1507 1.415 . S
C1506 C1505 1.400 . S
C1506 C1508 1.397 1_565 S
C1507 C1502 1.407 1_565 S
C1507 C1504 1.409 . S
C1507 C1505 1.415 . S
C1508 H1498 0.930 . S
C1508 C1506 1.397 1_545 S
C1508 C1509 1.362 . S
C1509 H1499 0.930 . S
C1509 C1502 1.446 . S
C1509 C1508 1.362 . S
H1510 C1516 0.930 1_655 S
H1511 C1519 0.930 . S
H1512 C1520 0.930 . S
H1513 C1521 0.930 . S
H1514 C1524 0.930 . S
H1515 C1525 0.930 . S
C1516 H1510 0.930 1_455 S
C1516 C1517 1.355 . S
C1516 C1518 1.397 . S
C1517 C1516 1.355 . S
C1517 C1519 1.419 . S
C1518 C1516 1.397 . S
C1518 C1523 1.466 . S
C1518 C1525 1.389 1_455 S
C1519 H1511 0.930 . S
C1519 C1517 1.419 . S
C1519 C1520 1.362 . S
C1520 H1512 0.930 . S
C1520 C1519 1.362 . S
C1520 C1523 1.409 . S
C1521 H1513 0.930 . S
C1521 C1522 1.379 . S
C1521 C1523 1.415 . S
C1522 C1521 1.379 . S
C1522 C1524 1.374 1_455 S
C1523 C1518 1.466 . S
C1523 C1520 1.409 . S
C1523 C1521 1.415 . S
C1524 H1514 0.930 . S
C1524 C1522 1.374 1_655 S
C1524 C1525 1.362 . S
C1525 H1515 0.930 . S
C1525 C1518 1.389 1_655 S
C1525 C1524 1.362 . S
H1526 C1532 0.930 . S
H1527 C1535 0.930 . S
H1528 C1536 0.930 . S
H1529 C1537 0.930 . S
H1530 C1540 0.930 . S
H1531 C1541 0.930 . S
C1532 H1526 0.930 . S
C1532 C1533 1.355 . S
C1532 C1534 1.415 . S
C1533 C1532 1.355 . S
C1533 C1535 1.419 . S
C1534 C1532 1.415 . S
C1534 C1539 1.425 . S
C1534 C1541 1.409 . S
C1535 H1527 0.930 . S
C1535 C1533 1.419 . S
C1535 C1536 1.362 . S
C1536 H1528 0.930 . S
C1536 C1535 1.362 . S
C1536 C1539 1.409 . S
C1537 H1529 0.930 . S
C1537 C1538 1.355 . S
C1537 C1539 1.415 . S
C1538 C1537 1.355 . S
C1538 C1540 1.419 . S
C1539 C1534 1.425 . S
C1539 C1536 1.409 . S
C1539 C1537 1.415 . S
C1540 H1530 0.930 . S
C1540 C1538 1.419 . S
C1540 C1541 1.362 . S
C1541 H1531 0.930 . S
C1541 C1534 1.409 . S
C1541 C1540 1.362 . S
H1542 C1548 0.930 . S
H1543 C1551 0.930 . S
H1544 C1552 0.930 . S
H1545 C1553 0.930 . S
H1546 C1556 0.930 . S
H1547 C1557 0.930 . S
C1548 H1542 0.930 . S
C1548 C1549 1.355 . S
C1548 C1550 1.415 . S
C1549 C1548 1.355 . S
C1549 C1551 1.419 . S
C1550 C1548 1.415 . S
C1550 C1555 1.425 . S
C1550 C1557 1.409 . S
C1551 H1543 0.930 . S
C1551 C1549 1.419 . S
C1551 C1552 1.362 . S
C1552 H1544 0.930 . S
C1552 C1551 1.362 . S
C1552 C1555 1.409 . S
C1553 H1545 0.930 . S
C1553 C1554 1.355 . S
C1553 C1555 1.415 . S
C1554 C1553 1.355 . S
C1554 C1556 1.419 . S
C1555 C1550 1.425 . S
C1555 C1552 1.409 . S
C1555 C1553 1.415 . S
C1556 H1546 0.930 . S
C1556 C1554 1.419 . S
C1556 C1557 1.362 . S
C1557 H1547 0.930 . S
C1557 C1550 1.409 . S
C1557 C1556 1.362 . S
H1558 C1564 0.930 . S
H1559 C1567 0.930 . S
H1560 C1568 0.930 . S
H1561 C1569 0.930 . S
H1562 C1572 0.930 . S
H1563 C1573 0.930 . S
C1564 H1558 0.930 . S
C1564 C1565 1.355 . S
C1564 C1566 1.415 . S
C1565 C1564 1.355 . S
C1565 C1567 1.419 . S
C1566 C1564 1.415 . S
C1566 C1571 1.425 . S
C1566 C1573 1.409 . S
C1567 H1559 0.930 . S
C1567 C1565 1.419 . S
C1567 C1568 1.362 . S
C1568 H1560 0.930 . S
C1568 C1567 1.362 . S
C1568 C1571 1.409 . S
C1569 H1561 0.930 . S
C1569 C1570 1.355 . S
C1569 C1571 1.415 . S
C1570 C1569 1.355 . S
C1570 C1572 1.419 . S
C1571 C1566 1.425 . S
C1571 C1568 1.409 . S
C1571 C1569 1.415 . S
C1572 H1562 0.930 . S
C1572 C1570 1.419 . S
C1572 C1573 1.362 . S
C1573 H1563 0.930 . S
C1573 C1566 1.409 . S
C1573 C1572 1.362 . S
H1574 C1580 0.930 . S
H1575 C1583 0.930 . S
H1576 C1584 0.930 . S
H1577 C1585 0.930 . S
H1578 C1588 0.930 . S
H1579 C1589 0.930 . S
C1580 H1574 0.930 . S
C1580 C1581 1.355 . S
C1580 C1582 1.415 . S
C1581 C1580 1.355 . S
C1581 C1583 1.419 . S
C1582 C1580 1.415 . S
C1582 C1587 1.425 . S
C1582 C1589 1.409 . S
C1583 H1575 0.930 . S
C1583 C1581 1.419 . S
C1583 C1584 1.362 . S
C1584 H1576 0.930 . S
C1584 C1583 1.362 . S
C1584 C1587 1.409 . S
C1585 H1577 0.930 . S
C1585 C1586 1.355 . S
C1585 C1587 1.415 . S
C1586 C1585 1.355 . S
C1586 C1588 1.419 . S
C1587 C1582 1.425 . S
C1587 C1584 1.409 . S
C1587 C1585 1.415 . S
C1588 H1578 0.930 . S
C1588 C1586 1.419 . S
C1588 C1589 1.362 . S
C1589 H1579 0.930 . S
C1589 C1582 1.409 . S
C1589 C1588 1.362 . S
H1590 C1596 0.930 . S
H1591 C1599 0.930 . S
H1592 C1600 0.930 . S
H1593 C1601 0.930 . S
H1594 C1604 0.930 . S
H1595 C1605 0.930 . S
C1596 H1590 0.930 . S
C1596 C1597 1.355 . S
C1596 C1598 1.415 . S
C1597 C1596 1.355 . S
C1597 C1599 1.419 . S
C1598 C1596 1.415 . S
C1598 C1603 1.425 . S
C1598 C1605 1.409 . S
C1599 H1591 0.930 . S
C1599 C1597 1.419 . S
C1599 C1600 1.362 . S
C1600 H1592 0.930 . S
C1600 C1599 1.362 . S
C1600 C1603 1.409 . S
C1601 H1593 0.930 . S
C1601 C1602 1.355 . S
C1601 C1603 1.415 . S
C1602 C1601 1.355 . S
C1602 C1604 1.419 . S
C1603 C1598 1.425 . S
C1603 C1600 1.409 . S
C1603 C1601 1.415 . S
C1604 H1594 0.930 . S
C1604 C1602 1.419 . S
C1604 C1605 1.362 . S
C1605 H1595 0.930 . S
C1605 C1598 1.409 . S
C1605 C1604 1.362 . S
H1606 C1612 0.930 1_455 S
H1607 C1615 0.930 . S
H1608 C1616 0.930 . S
H1609 C1617 0.930 . S
H1610 C1620 0.930 . S
H1611 C1621 0.930 . S
C1612 H1606 0.930 1_655 S
C1612 C1613 1.355 . S
C1612 C1614 1.415 . S
C1613 C1612 1.355 . S
C1613 C1615 1.419 . S
C1614 C1612 1.415 . S
C1614 C1619 1.425 . S
C1614 C1621 1.409 1_655 S
C1615 H1607 0.930 . S
C1615 C1613 1.419 . S
C1615 C1616 1.362 . S
C1616 H1608 0.930 . S
C1616 C1615 1.362 . S
C1616 C1619 1.409 . S
C1617 H1609 0.930 . S
C1617 C1618 1.355 . S
C1617 C1619 1.415 . S
C1618 C1617 1.355 . S
C1618 C1620 1.419 1_655 S
C1619 C1614 1.425 . S
C1619 C1616 1.409 . S
C1619 C1617 1.415 . S
C1620 H1610 0.930 . S
C1620 C1618 1.419 1_455 S
C1620 C1621 1.362 . S
C1621 H1611 0.930 . S
C1621 C1614 1.409 1_455 S
C1621 C1620 1.362 . S
H1622 C1628 0.930 . S
H1623 C1631 0.930 . S
H1624 C1632 0.930 . S
H1625 C1633 0.930 . S
H1626 C1636 0.930 . S
H1627 C1637 0.930 . S
C1628 H1622 0.930 . S
C1628 C1629 1.355 . S
C1628 C1630 1.415 . S
C1629 C1628 1.355 . S
C1629 C1631 1.419 . S
C1630 C1628 1.415 . S
C1630 C1635 1.425 . S
C1630 C1637 1.409 . S
C1631 H1623 0.930 . S
C1631 C1629 1.419 . S
C1631 C1632 1.362 . S
C1632 H1624 0.930 . S
C1632 C1631 1.362 . S
C1632 C1635 1.409 . S
C1633 H1625 0.930 . S
C1633 C1634 1.355 . S
C1633 C1635 1.415 . S
C1634 C1633 1.355 . S
C1634 C1636 1.419 . S
C1635 C1630 1.425 . S
C1635 C1632 1.409 . S
C1635 C1633 1.415 . S
C1636 H1626 0.930 . S
C1636 C1634 1.419 . S
C1636 C1637 1.362 . S
C1637 H1627 0.930 . S
C1637 C1630 1.409 . S
C1637 C1636 1.362 . S
H1638 C1644 0.930 . S
H1639 C1647 0.930 . S
H1640 C1648 0.930 . S
H1641 C1649 0.930 . S
H1642 C1652 0.930 . S
H1643 C1653 0.930 . S
C1644 H1638 0.930 . S
C1644 C1645 1.355 . S
C1644 C1646 1.415 . S
C1645 C1644 1.355 . S
C1645 C1647 1.419 . S
C1646 C1644 1.415 . S
C1646 C1651 1.425 . S
C1646 C1653 1.409 . S
C1647 H1639 0.930 . S
C1647 C1645 1.419 . S
C1647 C1648 1.362 . S
C1648 H1640 0.930 . S
C1648 C1647 1.362 . S
C1648 C1651 1.409 . S
C1649 H1641 0.930 . S
C1649 C1650 1.355 . S
C1649 C1651 1.415 . S
C1650 C1649 1.355 . S
C1650 C1652 1.419 . S
C1651 C1646 1.425 . S
C1651 C1648 1.409 . S
C1651 C1649 1.415 . S
C1652 H1642 0.930 . S
C1652 C1650 1.419 . S
C1652 C1653 1.362 . S
C1653 H1643 0.930 . S
C1653 C1646 1.409 . S
C1653 C1652 1.362 . S
H1654 C1660 0.930 . S
H1655 C1663 0.930 . S
H1656 C1664 0.930 . S
H1657 C1665 0.930 . S
H1658 C1668 0.930 . S
H1659 C1669 0.930 . S
C1660 H1654 0.930 . S
C1660 C1661 1.355 . S
C1660 C1662 1.415 . S
C1661 C1660 1.355 . S
C1661 C1663 1.419 . S
C1662 C1660 1.415 . S
C1662 C1667 1.425 . S
C1662 C1669 1.409 . S
C1663 H1655 0.930 . S
C1663 C1661 1.419 . S
C1663 C1664 1.362 . S
C1664 H1656 0.930 . S
C1664 C1663 1.362 . S
C1664 C1667 1.409 . S
C1665 H1657 0.930 . S
C1665 C1666 1.355 . S
C1665 C1667 1.415 . S
C1666 C1665 1.355 . S
C1666 C1668 1.419 . S
C1667 C1662 1.425 . S
C1667 C1664 1.409 . S
C1667 C1665 1.415 . S
C1668 H1658 0.930 . S
C1668 C1666 1.419 . S
C1668 C1669 1.362 . S
C1669 H1659 0.930 . S
C1669 C1662 1.409 . S
C1669 C1668 1.362 . S
H1670 C1676 0.930 . S
H1671 C1679 0.930 . S
H1672 C1680 0.930 . S
H1673 C1681 0.930 . S
H1674 C1684 0.930 . S
H1675 C1685 0.930 . S
C1676 H1670 0.930 . S
C1676 C1677 1.355 . S
C1676 C1678 1.415 . S
C1677 C1676 1.355 . S
C1677 C1679 1.419 . S
C1678 C1676 1.415 . S
C1678 C1683 1.425 . S
C1678 C1685 1.409 . S
C1679 H1671 0.930 . S
C1679 C1677 1.419 . S
C1679 C1680 1.362 . S
C1680 H1672 0.930 . S
C1680 C1679 1.362 . S
C1680 C1683 1.409 . S
C1681 H1673 0.930 . S
C1681 C1682 1.355 . S
C1681 C1683 1.415 . S
C1682 C1681 1.355 . S
C1682 C1684 1.419 . S
C1683 C1678 1.425 . S
C1683 C1680 1.409 . S
C1683 C1681 1.415 . S
C1684 H1674 0.930 . S
C1684 C1682 1.419 . S
C1684 C1685 1.362 . S
C1685 H1675 0.930 . S
C1685 C1678 1.409 . S
C1685 C1684 1.362 . S
H1686 C1692 0.930 . S
H1687 C1695 0.930 . S
H1688 C1696 0.930 . S
H1689 C1697 0.930 . S
H1690 C1700 0.930 . S
H1691 C1701 0.930 . S
C1692 H1686 0.930 . S
C1692 C1693 1.355 . S
C1692 C1694 1.415 . S
C1693 C1692 1.355 . S
C1693 C1695 1.419 . S
C1694 C1692 1.415 . S
C1694 C1699 1.425 . S
C1694 C1701 1.409 . S
C1695 H1687 0.930 . S
C1695 C1693 1.419 . S
C1695 C1696 1.362 . S
C1696 H1688 0.930 . S
C1696 C1695 1.362 . S
C1696 C1699 1.409 . S
C1697 H1689 0.930 . S
C1697 C1698 1.355 . S
C1697 C1699 1.415 . S
C1698 C1697 1.355 . S
C1698 C1700 1.419 . S
C1699 C1694 1.425 . S
C1699 C1696 1.409 . S
C1699 C1697 1.415 . S
C1700 H1690 0.930 . S
C1700 C1698 1.419 . S
C1700 C1701 1.362 . S
C1701 H1691 0.930 . S
C1701 C1694 1.409 . S
C1701 C1700 1.362 . S
H1702 C1708 0.930 . S
H1703 C1711 0.930 . S
H1704 C1712 0.930 . S
H1705 C1713 0.930 . S
H1706 C1716 0.930 . S
H1707 C1717 0.930 . S
C1708 H1702 0.930 . S
C1708 C1709 1.355 . S
C1708 C1710 1.415 . S
C1709 C1708 1.355 . S
C1709 C1711 1.419 . S
C1710 C1708 1.415 . S
C1710 C1715 1.425 . S
C1710 C1717 1.409 . S
C1711 H1703 0.930 . S
C1711 C1709 1.419 . S
C1711 C1712 1.362 . S
C1712 H1704 0.930 . S
C1712 C1711 1.362 . S
C1712 C1715 1.409 . S
C1713 H1705 0.930 . S
C1713 C1714 1.355 . S
C1713 C1715 1.415 . S
C1714 C1713 1.355 . S
C1714 C1716 1.419 . S
C1715 C1710 1.425 . S
C1715 C1712 1.409 . S
C1715 C1713 1.415 . S
C1716 H1706 0.930 . S
C1716 C1714 1.419 . S
C1716 C1717 1.362 . S
C1717 H1707 0.930 . S
C1717 C1710 1.409 . S
C1717 C1716 1.362 . S
H1718 C1724 0.930 . S
H1719 C1727 0.930 . S
H1720 C1728 0.930 . S
H1721 C1729 0.930 . S
H1722 C1732 0.930 . S
H1723 C1733 0.930 . S
C1724 H1718 0.930 . S
C1724 C1725 1.355 . S
C1724 C1726 1.415 . S
C1725 C1724 1.355 . S
C1725 C1727 1.419 . S
C1726 C1724 1.415 . S
C1726 C1731 1.425 . S
C1726 C1733 1.409 . S
C1727 H1719 0.930 . S
C1727 C1725 1.419 . S
C1727 C1728 1.362 . S
C1728 H1720 0.930 . S
C1728 C1727 1.362 . S
C1728 C1731 1.409 . S
C1729 H1721 0.930 . S
C1729 C1730 1.355 . S
C1729 C1731 1.415 . S
C1730 C1729 1.355 . S
C1730 C1732 1.419 . S
C1731 C1726 1.425 . S
C1731 C1728 1.409 . S
C1731 C1729 1.415 . S
C1732 H1722 0.930 . S
C1732 C1730 1.419 . S
C1732 C1733 1.362 . S
C1733 H1723 0.930 . S
C1733 C1726 1.409 . S
C1733 C1732 1.362 . S
H1734 C1740 0.930 . S
H1735 C1743 0.930 . S
H1736 C1744 0.930 . S
H1737 C1745 0.930 . S
H1738 C1748 0.930 . S
H1739 C1749 0.930 . S
C1740 H1734 0.930 . S
C1740 C1741 1.355 . S
C1740 C1742 1.415 . S
C1741 C1740 1.355 . S
C1741 C1743 1.419 1_655 S
C1742 C1740 1.415 . S
C1742 C1747 1.425 1_655 S
C1742 C1749 1.409 . S
C1743 H1735 0.930 . S
C1743 C1741 1.419 1_455 S
C1743 C1744 1.362 . S
C1744 H1736 0.930 . S
C1744 C1743 1.362 . S
C1744 C1747 1.409 . S
C1745 H1737 0.930 . S
C1745 C1746 1.355 1_455 S
C1745 C1747 1.415 . S
C1746 C1745 1.355 1_655 S
C1746 C1748 1.419 . S
C1747 C1742 1.425 1_455 S
C1747 C1744 1.409 . S
C1747 C1745 1.415 . S
C1748 H1738 0.930 . S
C1748 C1746 1.419 . S
C1748 C1749 1.362 . S
C1749 H1739 0.930 . S
C1749 C1742 1.409 . S
C1749 C1748 1.362 . S
H1750 C1756 0.930 . S
H1751 C1759 0.930 . S
H1752 C1760 0.930 . S
H1753 C1761 0.930 . S
H1754 C1764 0.930 . S
H1755 C1765 0.930 . S
C1756 H1750 0.930 . S
C1756 C1757 1.355 . S
C1756 C1758 1.415 . S
C1757 C1756 1.355 . S
C1757 C1759 1.419 . S
C1758 C1756 1.415 . S
C1758 C1763 1.425 . S
C1758 C1765 1.409 . S
C1759 H1751 0.930 . S
C1759 C1757 1.419 . S
C1759 C1760 1.362 . S
C1760 H1752 0.930 . S
C1760 C1759 1.362 . S
C1760 C1763 1.409 . S
C1761 H1753 0.930 . S
C1761 C1762 1.355 . S
C1761 C1763 1.415 . S
C1762 C1761 1.355 . S
C1762 C1764 1.419 . S
C1763 C1758 1.425 . S
C1763 C1760 1.409 . S
C1763 C1761 1.415 . S
C1764 H1754 0.930 . S
C1764 C1762 1.419 . S
C1764 C1765 1.362 . S
C1765 H1755 0.930 . S
C1765 C1758 1.409 . S
C1765 C1764 1.362 . S
H1766 C1772 0.930 1_565 S
H1767 C1775 0.930 . S
H1768 C1776 0.930 . S
H1769 C1777 0.930 . S
H1770 C1780 0.930 . S
H1771 C1781 0.930 . S
C1772 H1766 0.930 1_545 S
C1772 C1773 1.355 . S
C1772 C1774 1.415 . S
C1773 C1772 1.355 . S
C1773 C1775 1.419 . S
C1774 C1772 1.415 . S
C1774 C1779 1.425 . S
C1774 C1781 1.409 1_545 S
C1775 H1767 0.930 . S
C1775 C1773 1.419 . S
C1775 C1776 1.362 . S
C1776 H1768 0.930 . S
C1776 C1775 1.362 . S
C1776 C1779 1.409 . S
C1777 H1769 0.930 . S
C1777 C1778 1.355 . S
C1777 C1779 1.415 . S
C1778 C1777 1.355 . S
C1778 C1780 1.419 1_545 S
C1779 C1774 1.425 . S
C1779 C1776 1.409 . S
C1779 C1777 1.415 . S
C1780 H1770 0.930 . S
C1780 C1778 1.419 1_565 S
C1780 C1781 1.362 . S
C1781 H1771 0.930 . S
C1781 C1774 1.409 1_565 S
C1781 C1780 1.362 . S
C637 C4 1.541 . S
C642 C458 1.548 1_655 S
C653 C26 1.567 . S
C658 C471 1.534 . S
C674 C500 1.430 1_545 S
C669 C32 1.459 . S
C685 C40 1.518 . S
C690 C513 1.473 . S
C701 C12 1.562 . S
C706 C534 1.534 . S
C717 C18 1.488 . S
C722 C563 1.457 . S
C733 C46 1.536 . S
C738 C542 1.543 1_655 S
C754 C555 1.454 . S
C749 C68 1.554 . S
C770 C521 1.453 . S
C765 C74 1.482 . S
C781 C82 1.521 . S
C786 C492 1.456 1_545 S
C802 C450 1.475 1_655 S
C797 C54 1.558 . S
C813 C60 1.478 . S
C818 C479 1.473 . S
C829 C88 1.582 . S
C834 C584 1.544 . S
C845 C110 1.577 . S
C850 C597 1.524 . S
C866 C626 1.550 . S
C861 C116 1.566 . S
C877 C124 1.505 . S
C882 C261 1.459 . S
C893 C96 1.555 . S
C898 C282 1.508 . S
C909 C102 1.501 . S
C914 C311 1.461 . S
C925 C130 1.584 . S
C930 C290 1.577 . S
C941 C152 1.564 . S
C946 C303 1.530 . S
C962 C269 1.564 . S
C957 C158 1.554 . S
C978 C618 1.494 . S
C973 C166 1.540 . S
C994 C576 1.502 . S
C989 C138 1.566 . S
C1010 C605 1.513 . S
C1005 C144 1.492 . S
C1021 C172 1.599 . S
C1026 C332 1.579 . S
C1037 C194 1.601 . S
C1042 C345 1.571 . S
C1053 C200 1.505 . S
C1058 C374 1.466 . S
C1069 C208 1.515 . S
C1074 C387 1.457 . S
C1090 C408 1.553 . S
C1085 C180 1.577 . S
C1106 C437 1.475 . S
C1101 C186 1.496 . S
C1122 C416 1.546 . S
C1117 C214 1.543 . S
C1138 C429 1.476 . S
C1133 C236 1.559 . S
C1149 C242 1.528 . S
C1154 C395 1.553 . S
C1170 C366 1.415 . S
C1165 C250 1.493 . S
C1181 C222 1.543 . S
C1186 C324 1.488 . S
C1202 C353 1.547 . S
C1197 C228 1.524 . S
C1218 C264 1.305 . S
C1213 C5 1.129 . S
C1229 C25 1.332 . S
C1234 C285 1.260 . S
C1250 C313 1.284 . S
C1245 C33 1.198 . S
C1266 C334 1.242 . S
C1261 C39 1.309 . S
C1282 C348 1.223 . S
C1277 C11 1.360 . S
C1298 C376 1.209 . S
C1293 C19 1.092 1_556 S
C1309 C47 1.232 1_556 S
C1314 C369 1.279 . S
C1325 C67 1.390 . S
C1330 C327 1.135 . S
C1341 C75 1.211 1_556 S
C1346 C355 1.326 . S
C1357 C81 1.374 . S
C1362 C292 1.268 . S
C1378 C306 1.260 . S
C1373 C53 1.364 . S
C1389 C61 1.251 . S
C1394 C271 1.351 . S
C1410 C390 1.356 . S
C1405 C89 1.257 . S
C1421 C109 1.369 . S
C1426 C411 1.264 . S
C1437 C117 1.232 . S
C1442 C439 1.314 . S
C1458 C460 1.237 . S
C1453 C123 1.272 . S
C1469 C95 1.351 . S
C1474 C474 1.314 . S
C1485 C103 1.103 . S
C1490 C502 1.210 . S
C1501 C131 1.144 . S
C1506 C495 1.203 . S
C1517 C151 1.334 . S
C1522 C453 1.230 . S
C1538 C481 1.323 . S
C1533 C159 1.226 . S
C1549 C165 1.366 . S
C1554 C418 1.231 . S
C1565 C137 1.423 . S
C1570 C432 1.175 . S
C1586 C397 1.300 . S
C1581 C145 1.122 . S
C1602 C516 1.195 1_545 S
C1597 C173 1.105 . S
C1613 C193 1.291 . S
C1618 C537 1.247 1_655 S
C1629 C201 1.090 . S
C1634 C565 1.204 . S
C1650 C586 1.180 . S
C1645 C207 1.331 . S
C1666 C600 1.249 . S
C1661 C179 1.405 . S
C1677 C187 1.181 . S
C1682 C628 1.283 . S
C1693 C215 1.218 . S
C1698 C621 1.282 . S
C1709 C235 1.422 . S
C1714 C579 1.194 . S
C1730 C607 1.332 . S
C1725 C243 1.228 . S
C1746 C544 1.280 1_655 S
C1741 C249 1.291 . S
C1762 C558 1.172 . S
C1757 C221 1.385 . S
C1773 C229 1.088 . S
C1778 C523 1.222 1_545 S
