# Generated by pormake.
# Topology ctn, (3,4)-cn, num edge types: 1
# Building blocks:
#     Node 0, Type 0, BuildingBlock: ESEHIV_clean_linker_0, # of connection points: 3
#     Node 1, Type 0, BuildingBlock: ESEHIV_clean_linker_0, # of connection points: 3
#     Node 2, Type 0, BuildingBlock: ESEHIV_clean_linker_0, # of connection points: 3
#     Node 3, Type 0, BuildingBlock: ESEHIV_clean_linker_0, # of connection points: 3
#     Node 4, Type 0, BuildingBlock: ESEHIV_clean_linker_0, # of connection points: 3
#     Node 5, Type 0, BuildingBlock: ESEHIV_clean_linker_0, # of connection points: 3
#     Node 6, Type 0, BuildingBlock: ESEHIV_clean_linker_0, # of connection points: 3
#     Node 7, Type 0, BuildingBlock: ESEHIV_clean_linker_0, # of connection points: 3
#     Node 8, Type 0, BuildingBlock: ESEHIV_clean_linker_0, # of connection points: 3
#     Node 9, Type 0, BuildingBlock: ESEHIV_clean_linker_0, # of connection points: 3
#     Node 10, Type 0, BuildingBlock: ESEHIV_clean_linker_0, # of connection points: 3
#     Node 11, Type 0, BuildingBlock: ESEHIV_clean_linker_0, # of connection points: 3
#     Node 12, Type 0, BuildingBlock: ESEHIV_clean_linker_0, # of connection points: 3
#     Node 13, Type 0, BuildingBlock: ESEHIV_clean_linker_0, # of connection points: 3
#     Node 14, Type 0, BuildingBlock: ESEHIV_clean_linker_0, # of connection points: 3
#     Node 15, Type 0, BuildingBlock: ESEHIV_clean_linker_0, # of connection points: 3
#     Node 16, Type 1, BuildingBlock: NAHDIM_clean_sbu_0, # of connection points: 4
#     Node 17, Type 1, BuildingBlock: NAHDIM_clean_sbu_0, # of connection points: 4
#     Node 18, Type 1, BuildingBlock: NAHDIM_clean_sbu_0, # of connection points: 4
#     Node 19, Type 1, BuildingBlock: NAHDIM_clean_sbu_0, # of connection points: 4
#     Node 20, Type 1, BuildingBlock: NAHDIM_clean_sbu_0, # of connection points: 4
#     Node 21, Type 1, BuildingBlock: NAHDIM_clean_sbu_0, # of connection points: 4
#     Node 22, Type 1, BuildingBlock: NAHDIM_clean_sbu_0, # of connection points: 4
#     Node 23, Type 1, BuildingBlock: NAHDIM_clean_sbu_0, # of connection points: 4
#     Node 24, Type 1, BuildingBlock: NAHDIM_clean_sbu_0, # of connection points: 4
#     Node 25, Type 1, BuildingBlock: NAHDIM_clean_sbu_0, # of connection points: 4
#     Node 26, Type 1, BuildingBlock: NAHDIM_clean_sbu_0, # of connection points: 4
#     Node 27, Type 1, BuildingBlock: NAHDIM_clean_sbu_0, # of connection points: 4
#     Edge 28, Type (0, 1), BuildingBlock: UVAHIK_clean_linker_0, # of connection points: 2
#     Edge 29, Type (0, 1), BuildingBlock: UVAHIK_clean_linker_0, # of connection points: 2
#     Edge 30, Type (0, 1), BuildingBlock: UVAHIK_clean_linker_0, # of connection points: 2
#     Edge 31, Type (0, 1), BuildingBlock: UVAHIK_clean_linker_0, # of connection points: 2
#     Edge 32, Type (0, 1), BuildingBlock: UVAHIK_clean_linker_0, # of connection points: 2
#     Edge 33, Type (0, 1), BuildingBlock: UVAHIK_clean_linker_0, # of connection points: 2
#     Edge 34, Type (0, 1), BuildingBlock: UVAHIK_clean_linker_0, # of connection points: 2
#     Edge 35, Type (0, 1), BuildingBlock: UVAHIK_clean_linker_0, # of connection points: 2
#     Edge 36, Type (0, 1), BuildingBlock: UVAHIK_clean_linker_0, # of connection points: 2
#     Edge 37, Type (0, 1), BuildingBlock: UVAHIK_clean_linker_0, # of connection points: 2
#     Edge 38, Type (0, 1), BuildingBlock: UVAHIK_clean_linker_0, # of connection points: 2
#     Edge 39, Type (0, 1), BuildingBlock: UVAHIK_clean_linker_0, # of connection points: 2
#     Edge 40, Type (0, 1), BuildingBlock: UVAHIK_clean_linker_0, # of connection points: 2
#     Edge 41, Type (0, 1), BuildingBlock: UVAHIK_clean_linker_0, # of connection points: 2
#     Edge 42, Type (0, 1), BuildingBlock: UVAHIK_clean_linker_0, # of connection points: 2
#     Edge 43, Type (0, 1), BuildingBlock: UVAHIK_clean_linker_0, # of connection points: 2
#     Edge 44, Type (0, 1), BuildingBlock: UVAHIK_clean_linker_0, # of connection points: 2
#     Edge 45, Type (0, 1), BuildingBlock: UVAHIK_clean_linker_0, # of connection points: 2
#     Edge 46, Type (0, 1), BuildingBlock: UVAHIK_clean_linker_0, # of connection points: 2
#     Edge 47, Type (0, 1), BuildingBlock: UVAHIK_clean_linker_0, # of connection points: 2
#     Edge 48, Type (0, 1), BuildingBlock: UVAHIK_clean_linker_0, # of connection points: 2
#     Edge 49, Type (0, 1), BuildingBlock: UVAHIK_clean_linker_0, # of connection points: 2
#     Edge 50, Type (0, 1), BuildingBlock: UVAHIK_clean_linker_0, # of connection points: 2
#     Edge 51, Type (0, 1), BuildingBlock: UVAHIK_clean_linker_0, # of connection points: 2
#     Edge 52, Type (0, 1), BuildingBlock: UVAHIK_clean_linker_0, # of connection points: 2
#     Edge 53, Type (0, 1), BuildingBlock: UVAHIK_clean_linker_0, # of connection points: 2
#     Edge 54, Type (0, 1), BuildingBlock: UVAHIK_clean_linker_0, # of connection points: 2
#     Edge 55, Type (0, 1), BuildingBlock: UVAHIK_clean_linker_0, # of connection points: 2
#     Edge 56, Type (0, 1), BuildingBlock: UVAHIK_clean_linker_0, # of connection points: 2
#     Edge 57, Type (0, 1), BuildingBlock: UVAHIK_clean_linker_0, # of connection points: 2
#     Edge 58, Type (0, 1), BuildingBlock: UVAHIK_clean_linker_0, # of connection points: 2
#     Edge 59, Type (0, 1), BuildingBlock: UVAHIK_clean_linker_0, # of connection points: 2
#     Edge 60, Type (0, 1), BuildingBlock: UVAHIK_clean_linker_0, # of connection points: 2
#     Edge 61, Type (0, 1), BuildingBlock: UVAHIK_clean_linker_0, # of connection points: 2
#     Edge 62, Type (0, 1), BuildingBlock: UVAHIK_clean_linker_0, # of connection points: 2
#     Edge 63, Type (0, 1), BuildingBlock: UVAHIK_clean_linker_0, # of connection points: 2
#     Edge 64, Type (0, 1), BuildingBlock: UVAHIK_clean_linker_0, # of connection points: 2
#     Edge 65, Type (0, 1), BuildingBlock: UVAHIK_clean_linker_0, # of connection points: 2
#     Edge 66, Type (0, 1), BuildingBlock: UVAHIK_clean_linker_0, # of connection points: 2
#     Edge 67, Type (0, 1), BuildingBlock: UVAHIK_clean_linker_0, # of connection points: 2
#     Edge 68, Type (0, 1), BuildingBlock: UVAHIK_clean_linker_0, # of connection points: 2
#     Edge 69, Type (0, 1), BuildingBlock: UVAHIK_clean_linker_0, # of connection points: 2
#     Edge 70, Type (0, 1), BuildingBlock: UVAHIK_clean_linker_0, # of connection points: 2
#     Edge 71, Type (0, 1), BuildingBlock: UVAHIK_clean_linker_0, # of connection points: 2
#     Edge 72, Type (0, 1), BuildingBlock: UVAHIK_clean_linker_0, # of connection points: 2
#     Edge 73, Type (0, 1), BuildingBlock: UVAHIK_clean_linker_0, # of connection points: 2
#     Edge 74, Type (0, 1), BuildingBlock: UVAHIK_clean_linker_0, # of connection points: 2
#     Edge 75, Type (0, 1), BuildingBlock: UVAHIK_clean_linker_0, # of connection points: 2
# Relax obj value: 0.002
# Max RMSD: 0.033
# Mean RMSD: 0.017
data_MOF--net-ctn--node1-NAHDIM_clean_sbu_0--node2-ESEHIV_clean_linker_0--edge1-UVAHIK_clean_linker_0
_symmetry_space_group_name_H-M    P1
_symmetry_Int_Tables_number       1
_symmetry_cell_setting            triclinic
loop_
_symmetry_equiv_pos_as_xyz
'x, y, z'
_cell_length_a     68.203538
_cell_length_b     68.676342
_cell_length_c     67.840115
_cell_angle_alpha  91.071952
_cell_angle_beta   90.092134
_cell_angle_gamma 92.151229
loop_
_atom_site_label
_atom_site_type_symbol
_atom_site_fract_x
_atom_site_fract_y
_atom_site_fract_z
_atom_type_partial_charge
H0 H 0.00622 0.05993 0.0396 0.0
H1 H 0.04433 0.01727 0.06267 0.0
H2 H 0.0574 0.04392 0.00721 0.0
C3 C 0.01912 0.05129 0.03824 0.0
C4 C 0.03151 0.05384 0.0219 0.0
C5 C 0.02345 0.03797 0.05299 0.0
C6 C 0.04038 0.02702 0.05106 0.0
C7 C 0.05272 0.02908 0.03462 0.0
C8 C 0.04812 0.04247 0.02009 0.0
H9 H 0.28856 0.68233 0.2401 0.0
H10 H 0.30935 0.73349 0.20985 0.0
H11 H 0.25998 0.6996 0.18689 0.0
C12 C 0.28754 0.69211 0.22781 0.0
C13 C 0.27266 0.6889 0.21362 0.0
C14 C 0.30083 0.70815 0.22657 0.0
C15 C 0.2991 0.72111 0.21097 0.0
C16 C 0.28426 0.71823 0.19677 0.0
C17 C 0.2711 0.70212 0.19817 0.0
H18 H 0.96421 0.49223 0.05172 0.0
H19 H 0.9946 0.44047 0.03602 0.0
H20 H 0.9504 0.46135 -0.00261 0.0
C21 C 0.96649 0.48013 0.04161 0.0
C22 C 0.95556 0.47847 0.02404 0.0
C23 C 0.98061 0.4665 0.04605 0.0
C24 C 0.98383 0.45114 0.03265 0.0
C25 C 0.97315 0.44934 0.01497 0.0
C26 C 0.95908 0.46307 0.01074 0.0
H27 H 0.68226 0.77637 0.18435 0.0
H28 H 0.73484 0.81057 0.17228 0.0
H29 H 0.69774 0.82655 0.22064 0.0
C30 C 0.69226 0.78857 0.18789 0.0
C31 C 0.68798 0.80112 0.20375 0.0
C32 C 0.70917 0.79182 0.17644 0.0
C33 C 0.72171 0.808 0.18095 0.0
C34 C 0.71764 0.82074 0.19673 0.0
C35 C 0.70069 0.8172 0.20803 0.0
H36 H 0.00423 0.95366 0.45432 0.0
H37 H 0.03904 0.00485 0.43965 0.0
H38 H 0.05359 0.97184 0.49052 0.0
C39 C 0.01644 0.9638 0.45749 0.0
C40 C 0.02857 0.96072 0.47379 0.0
C41 C 0.02 0.97974 0.44515 0.0
C42 C 0.03588 0.99279 0.44936 0.0
C43 C 0.04819 0.9899 0.46558 0.0
C44 C 0.04439 0.97387 0.47774 0.0
H45 H 0.17208 0.7457 0.80336 0.0
H46 H 0.22144 0.71404 0.82296 0.0
H47 H 0.19005 0.6952 0.77059 0.0
C48 C 0.182 0.73387 0.8013 0.0
C49 C 0.17932 0.72086 0.78521 0.0
C50 C 0.19708 0.73147 0.81504 0.0
C51 C 0.20945 0.71572 0.81269 0.0
C52 C 0.207 0.70256 0.79671 0.0
C53 C 0.19192 0.70525 0.78302 0.0
H54 H 0.94763 0.53797 0.49303 0.0
H55 H 0.99637 0.55651 0.45711 0.0
H56 H 0.96219 0.50465 0.44111 0.0
C57 C 0.95684 0.53577 0.48023 0.0
C58 C 0.95313 0.5196 0.46762 0.0
C59 C 0.97228 0.54923 0.4764 0.0
C60 C 0.98417 0.54636 0.45983 0.0
C61 C 0.9808 0.53019 0.44712 0.0
C62 C 0.96524 0.51686 0.45114 0.0
H63 H 0.76813 0.79715 0.81167 0.0
H64 H 0.79721 0.81232 0.75773 0.0
H65 H 0.81712 0.76448 0.7915 0.0
C66 C 0.77974 0.79474 0.80112 0.0
C67 C 0.79244 0.77935 0.80373 0.0
C68 C 0.78146 0.80676 0.78468 0.0
C69 C 0.7959 0.80314 0.77052 0.0
C70 C 0.80868 0.78777 0.77279 0.0
C71 C 0.8069 0.77599 0.78945 0.0
H72 H 0.26465 0.2835 0.30959 0.0
H73 H 0.29463 0.30285 0.25743 0.0
H74 H 0.31292 0.25154 0.28656 0.0
C75 C 0.27625 0.28179 0.29887 0.0
C76 C 0.28853 0.26586 0.30002 0.0
C77 C 0.27839 0.29521 0.28361 0.0
C78 C 0.29293 0.29256 0.26929 0.0
C79 C 0.30526 0.27669 0.27014 0.0
C80 C 0.30302 0.26346 0.28557 0.0
H81 H 0.46263 0.9886 0.54593 0.0
H82 H 0.5014 0.9444 0.52611 0.0
H83 H 0.45271 0.95957 0.48995 0.0
C84 C 0.46718 0.97834 0.53467 0.0
C85 C 0.45592 0.97575 0.51741 0.0
C86 C 0.48373 0.96724 0.53792 0.0
C87 C 0.4888 0.9532 0.52368 0.0
C88 C 0.47745 0.95005 0.50654 0.0
C89 C 0.46119 0.96158 0.5034 0.0
H90 H 0.18346 0.27525 0.69005 0.0
H91 H 0.23386 0.31118 0.6749 0.0
H92 H 0.20029 0.32494 0.72662 0.0
C93 C 0.19333 0.28763 0.69331 0.0
C94 C 0.18982 0.29972 0.70976 0.0
C95 C 0.20924 0.29162 0.68075 0.0
C96 C 0.22161 0.30803 0.68463 0.0
C97 C 0.21847 0.32023 0.7011 0.0
C98 C 0.20251 0.31596 0.71357 0.0
H99 H 0.78809 0.18497 0.7419 0.0
H100 H 0.80477 0.23633 0.70977 0.0
H101 H 0.75452 0.20093 0.69133 0.0
C102 C 0.7856 0.19476 0.72988 0.0
C103 C 0.76984 0.19087 0.71686 0.0
C104 C 0.79816 0.21121 0.72752 0.0
C105 C 0.79487 0.22384 0.71193 0.0
C106 C 0.77932 0.22007 0.69866 0.0
C107 C 0.76687 0.20358 0.70123 0.0
H108 H 0.50706 0.56152 0.54373 0.0
H109 H 0.53718 0.51002 0.55894 0.0
H110 H 0.55713 0.54439 0.51007 0.0
C111 C 0.51865 0.55146 0.54094 0.0
C112 C 0.53157 0.55466 0.52512 0.0
C113 C 0.52075 0.53556 0.5534 0.0
C114 C 0.5358 0.52259 0.54968 0.0
C115 C 0.54889 0.52554 0.53397 0.0
C116 C 0.54667 0.54163 0.52179 0.0
H117 H 0.50454 0.45347 0.9539 0.0
H118 H 0.53927 0.50473 0.93925 0.0
H119 H 0.5542 0.47138 0.98979 0.0
C120 C 0.51679 0.46357 0.95703 0.0
C121 C 0.52891 0.46051 0.97333 0.0
C122 C 0.52039 0.47948 0.94465 0.0
C123 C 0.53634 0.49247 0.94877 0.0
C124 C 0.5486 0.48965 0.96505 0.0
C125 C 0.54474 0.47366 0.97725 0.0
H126 H 0.68053 0.24757 0.30187 0.0
H127 H 0.7264 0.2114 0.32184 0.0
H128 H 0.68953 0.19227 0.27316 0.0
C129 C 0.68865 0.23433 0.3005 0.0
C130 C 0.68324 0.2203 0.28601 0.0
C131 C 0.70398 0.23104 0.3137 0.0
C132 C 0.71417 0.21371 0.31205 0.0
C133 C 0.70922 0.19975 0.29732 0.0
C134 C 0.69358 0.20305 0.28447 0.0
H135 H 0.44791 0.04163 -0.00199 0.0
H136 H 0.49574 0.05883 0.96038 0.0
H137 H 0.46335 0.00478 0.94888 0.0
C138 C 0.45727 0.03857 0.98551 0.0
C139 C 0.45369 0.02162 0.97396 0.0
C140 C 0.47244 0.05197 0.98072 0.0
C141 C 0.4841 0.04838 0.96414 0.0
C142 C 0.48095 0.0314 0.95252 0.0
C143 C 0.46565 0.01811 0.95751 0.0
C144 C 0.22474 0.91525 0.01305 0.0
O145 O 0.24037 0.92236 0.00402 0.0
O146 O 0.2408 0.86223 0.99146 0.0
Zn147 Zn 0.24707 0.88027 0.01428 0.0
O148 O 0.27179 0.89592 0.00845 0.0
C149 C 0.26642 0.85445 0.03978 0.0
O150 O 0.28001 0.85596 0.02613 0.0
O151 O 0.22445 0.89774 0.01882 0.0
C152 C 0.28174 0.90443 0.02214 0.0
O153 O 0.27566 0.90303 0.04045 0.0
C154 C 0.23668 0.86854 0.97453 0.0
O155 O 0.23657 0.88743 0.97186 0.0
O156 O 0.25088 0.8639 0.03805 0.0
C157 C 0.15337 0.45852 0.26868 0.0
O158 O 0.15145 0.47109 0.28333 0.0
O159 O 0.11239 0.48879 0.27392 0.0
Zn160 Zn 0.12821 0.4846 0.24921 0.0
O161 O 0.14623 0.50784 0.24424 0.0
C162 C 0.09205 0.48225 0.22633 0.0
O163 O 0.08392 0.48763 0.243 0.0
O164 O 0.1446 0.46127 0.2525 0.0
C165 C 0.14092 0.52178 0.23365 0.0
O166 O 0.12322 0.52111 0.22595 0.0
C167 C 0.10763 0.50565 0.27978 0.0
O168 O 0.11326 0.52091 0.26957 0.0
O169 O 0.11044 0.47992 0.22574 0.0
C170 C 0.79468 0.60246 0.98688 0.0
O171 O 0.7898 0.60726 0.96891 0.0
O172 O 0.76636 0.64175 0.9732 0.0
Zn173 Zn 0.76152 0.62512 -0.00313 0.0
O174 O 0.7372 0.60839 0.99192 0.0
C175 C 0.76753 0.65808 0.02349 0.0
O176 O 0.78129 0.663 0.0108 0.0
O177 O 0.78453 0.60838 0.00133 0.0
C178 C 0.72635 0.60273 0.00606 0.0
O179 O 0.73145 0.60756 0.02424 0.0
C180 C 0.75659 0.6569 0.97065 0.0
O181 O 0.74319 0.66155 0.98362 0.0
O182 O 0.75747 0.64231 0.02071 0.0
C183 C 0.84235 0.04412 0.27084 0.0
O184 O 0.84494 0.0311 0.28446 0.0
O185 O 0.8848 0.01624 0.27452 0.0
Zn186 Zn 0.86839 0.01973 0.25018 0.0
O187 O 0.85021 -0.00366 0.24491 0.0
C188 C 0.90213 0.01577 0.22529 0.0
O189 O 0.90698 0.0035 0.23894 0.0
O190 O 0.85137 0.04257 0.25456 0.0
C191 C 0.85482 0.98145 0.23479 0.0
O192 O 0.87252 0.98066 0.22731 0.0
C193 C 0.88817 -0.00036 0.28147 0.0
O194 O 0.88052 0.9839 0.27275 0.0
O195 O 0.88617 0.02463 0.22694 0.0
C196 C 0.28409 0.08963 0.49881 0.0
O197 O 0.26946 0.08365 0.48733 0.0
O198 O 0.26639 0.13722 0.47651 0.0
Zn199 Zn 0.26092 0.12328 0.50189 0.0
O200 O 0.236 0.10682 0.49982 0.0
C201 C 0.25666 0.16087 0.52105 0.0
O202 O 0.25798 0.16719 0.50293 0.0
O203 O 0.28357 0.10632 0.50717 0.0
C204 C 0.21943 0.11469 0.49969 0.0
O205 O 0.21877 0.13377 0.50087 0.0
C206 C 0.25624 0.13474 0.46088 0.0
O207 O 0.24127 0.12214 0.46063 0.0
O208 O 0.25791 0.14275 0.52414 0.0
C209 C 0.3412 0.54718 0.77191 0.0
O210 O 0.34324 0.53433 0.78581 0.0
O211 O 0.38315 0.51819 0.77609 0.0
Zn212 Zn 0.36657 0.52158 0.75178 0.0
O213 O 0.34816 0.49833 0.74727 0.0
C214 C 0.40178 0.52157 0.72791 0.0
O215 O 0.40985 0.5157 0.74424 0.0
O216 O 0.35019 0.54495 0.75569 0.0
C217 C 0.35296 0.4838 0.7367 0.0
O218 O 0.37052 0.48375 0.72878 0.0
C219 C 0.38764 0.50148 0.78203 0.0
O220 O 0.38115 0.48586 0.77224 0.0
O221 O 0.38365 0.5252 0.72779 0.0
C222 C 0.7143 0.40457 0.50259 0.0
O223 O 0.7211 0.40177 0.48471 0.0
O224 O 0.74242 0.36379 0.48826 0.0
Zn225 Zn 0.74646 0.38066 0.51263 0.0
O226 O 0.77042 0.39808 0.50935 0.0
C227 C 0.75331 0.34552 0.53381 0.0
O228 O 0.75419 0.33801 0.5159 0.0
O229 O 0.72286 0.39696 0.51705 0.0
C230 C 0.78689 0.39069 0.50588 0.0
O231 O 0.78792 0.37163 0.50467 0.0
C232 C 0.74815 0.36859 0.47115 0.0
O233 O 0.75693 0.38572 0.46861 0.0
O234 O 0.75019 0.36356 0.53608 0.0
C235 C 0.64823 0.96307 0.76732 0.0
O236 O 0.64843 0.97702 0.78082 0.0
O237 O 0.60344 0.99197 0.77186 0.0
Zn238 Zn 0.62102 0.98781 0.74842 0.0
O239 O 0.63934 0.0111 0.7445 0.0
C240 C 0.58955 0.99313 0.72087 0.0
O241 O 0.58448 0.00642 0.73385 0.0
O242 O 0.63733 0.9644 0.75225 0.0
C243 C 0.63354 0.02847 0.7447 0.0
O244 O 0.61491 0.0316 0.74778 0.0
C245 C 0.60879 0.00243 0.7867 0.0
O246 O 0.6264 0.01086 0.78696 0.0
O247 O 0.60455 0.98322 0.72409 0.0
C248 C 0.99419 0.2133 0.89417 0.0
O249 O 0.97615 0.21858 0.89101 0.0
O250 O 0.97832 0.24125 0.85495 0.0
Zn251 Zn 0.00323 0.24658 0.87056 0.0
O252 O 0.00061 0.26978 0.88878 0.0
C253 C 0.02371 0.2553 0.83419 0.0
O254 O 0.00586 0.25576 0.82697 0.0
O255 O 0.00839 0.2232 0.88681 0.0
C256 C 0.00423 0.28701 0.88291 0.0
O257 O 0.00968 0.28968 0.86456 0.0
C258 C 0.96514 0.25368 0.85302 0.0
O259 O 0.96753 0.27096 0.86147 0.0
O260 O 0.02605 0.25154 0.8523 0.0
C261 C 0.50784 0.72168 0.40338 0.0
O262 O 0.49863 0.73664 0.41066 0.0
O263 O 0.48118 0.73693 0.35364 0.0
Zn264 Zn 0.50641 0.7438 0.36786 0.0
O265 O 0.5032 0.76826 0.38407 0.0
C266 C 0.52869 0.76392 0.33836 0.0
O267 O 0.51557 0.7771 0.34173 0.0
O268 O 0.51287 0.72161 0.38535 0.0
C269 C 0.51762 0.77863 0.39074 0.0
O270 O 0.53557 0.7732 0.38723 0.0
C271 C 0.46905 0.7499 0.34962 0.0
O272 O 0.47314 0.76811 0.35489 0.0
O273 O 0.52778 0.74818 0.34793 0.0
C274 C 0.99164 0.7899 0.58989 0.0
O275 O 0.97363 0.78282 0.59213 0.0
O276 O 0.97491 0.76283 0.63018 0.0
Zn277 Zn -0.0002 0.75835 0.61498 0.0
O278 O 0.99695 0.73454 0.59737 0.0
C279 C 0.01939 0.75185 0.65201 0.0
O280 O 0.00137 0.75093 0.6588 0.0
O281 O 0.00566 0.78165 0.59833 0.0
C282 C -0.0001 0.71772 0.60401 0.0
O283 O 0.00456 0.71597 0.62268 0.0
C284 C 0.96155 0.74979 0.63303 0.0
O285 O 0.96347 0.73222 0.62548 0.0
O286 O 0.02225 0.75504 0.63382 0.0
C287 C 0.49366 0.29279 0.09429 0.0
O288 O 0.47582 0.28519 0.09634 0.0
O289 O 0.47727 0.264 0.13367 0.0
Zn290 Zn 0.50281 0.26123 0.11914 0.0
O291 O 0.50168 0.23763 0.10094 0.0
C292 C 0.5216 0.25097 0.15529 0.0
O293 O 0.50396 0.24381 0.15931 0.0
O294 O 0.50785 0.28495 0.10286 0.0
C295 C 0.50518 0.22066 0.10688 0.0
O296 O 0.50975 0.21827 0.12546 0.0
C297 C 0.46383 0.25069 0.13415 0.0
O298 O 0.46624 0.23417 0.12457 0.0
O299 O 0.52466 0.25922 0.1389 0.0
C300 C 0.20448 0.73915 0.85064 0.0
C301 C 0.20017 0.74562 0.83164 0.0
C302 C 0.20791 0.75252 0.86613 0.0
C303 C 0.19995 0.8034 0.88176 0.0
H304 H 0.24304 0.79496 0.91759 0.0
C305 C 0.22747 0.86139 0.93928 0.0
C306 C 0.23212 0.85466 0.95809 0.0
C307 C 0.22327 0.84818 0.92378 0.0
C308 C 0.23082 0.79742 0.90784 0.0
H309 H 0.19616 0.77117 0.81398 0.0
H310 H 0.20216 0.79452 0.84103 0.0
H311 H 0.23602 0.77162 0.89079 0.0
H312 H 0.23586 0.82881 0.97544 0.0
H313 H 0.22839 0.80585 0.94848 0.0
H314 H 0.1948 0.82924 0.89882 0.0
C315 C 0.20261 0.7791 0.84401 0.0
C316 C 0.22679 0.78404 0.89249 0.0
C317 C 0.19918 0.76573 0.82851 0.0
C318 C 0.23241 0.83448 0.9611 0.0
C319 C 0.22823 0.82131 0.94562 0.0
C320 C 0.20399 0.8168 0.89711 0.0
C321 C 0.20712 0.77265 0.86296 0.0
C322 C 0.21129 0.78686 0.8793 0.0
C323 C 0.22367 0.828 0.92678 0.0
C324 C 0.21945 0.81392 0.91034 0.0
H325 H 0.20506 0.72373 0.85356 0.0
H326 H 0.21103 0.74708 0.88064 0.0
H327 H 0.18775 0.80585 0.87198 0.0
H328 H 0.22715 0.87685 0.93648 0.0
H329 H 0.22 0.85378 0.90937 0.0
C330 C -0.00045 0.54322 0.41815 0.0
C331 C 0.99355 0.5273 0.42969 0.0
C332 C 0.01197 0.54063 0.40205 0.0
C333 C 0.02931 0.5035 0.36703 0.0
H334 H 0.07245 0.54095 0.35921 0.0
C335 C 0.08917 0.49169 0.30845 0.0
C336 C 0.09521 0.50797 0.29744 0.0
C337 C 0.07704 0.49387 0.32485 0.0
C338 C 0.06035 0.53048 0.36107 0.0
H339 H 0.99588 0.49617 0.43338 0.0
H340 H 0.01751 0.49163 0.40518 0.0
H341 H 0.05047 0.54507 0.38715 0.0
H342 H 0.09332 0.53931 0.29506 0.0
H343 H 0.072 0.54306 0.32352 0.0
H344 H 0.03911 0.48898 0.34088 0.0
C345 C 0.01244 0.50608 0.40849 0.0
C346 C 0.04777 0.53284 0.37707 0.0
C347 C 5e-05 0.50868 0.42463 0.0
C348 C 0.08899 0.52648 0.30326 0.0
C349 C 0.07684 0.52865 0.31964 0.0
C350 C 0.04188 0.50116 0.35099 0.0
C351 C 0.01863 0.52205 0.39711 0.0
C352 C 0.03208 0.51941 0.38019 0.0
C353 C 0.07068 0.51236 0.33059 0.0
C354 C 0.05751 0.51466 0.34781 0.0
H355 H 0.99452 0.55769 0.42146 0.0
H356 H 0.01621 0.55316 0.39335 0.0
H357 H 0.01719 0.49305 0.36891 0.0
H358 H 0.09377 0.47724 0.30439 0.0
H359 H 0.07277 0.48107 0.33314 0.0
C360 C 0.79303 0.74658 0.81969 0.0
C361 C 0.79039 0.76677 0.82128 0.0
C362 C 0.79029 0.73472 0.83604 0.0
C363 C 0.76307 0.73159 0.88182 0.0
H364 H 0.80158 0.69477 0.89761 0.0
C365 C 0.75438 0.68861 0.9535 0.0
C366 C 0.76066 0.66938 0.95356 0.0
C367 C 0.7585 0.70054 0.93748 0.0
C368 C 0.79052 0.70474 0.89324 0.0
H369 H 0.78354 0.79036 0.84162 0.0
H370 H 0.77811 0.7695 0.86991 0.0
H371 H 0.80804 0.71531 0.86919 0.0
H372 H 0.77591 0.64743 0.93683 0.0
H373 H 0.78242 0.66795 0.90854 0.0
H374 H 0.74522 0.72076 0.90531 0.0
C375 C 0.78223 0.76293 0.85595 0.0
C376 C 0.7943 0.71655 0.87703 0.0
C377 C 0.78525 0.77483 0.8397 0.0
C378 C 0.771 0.66225 0.93724 0.0
C379 C 0.77485 0.67408 0.92107 0.0
C380 C 0.75915 0.71959 0.89782 0.0
C381 C 0.78461 0.74277 0.85422 0.0
C382 C 0.78065 0.73014 0.87127 0.0
C383 C 0.76871 0.69342 0.921 0.0
C384 C 0.77286 0.70607 0.90382 0.0
H385 H 0.79672 0.73983 0.8057 0.0
H386 H 0.79207 0.71917 0.83434 0.0
H387 H 0.75221 0.7418 0.87748 0.0
H388 H 0.74655 0.69456 0.96598 0.0
H389 H 0.75387 0.71545 0.93815 0.0
C390 C 0.00093 0.96643 0.41595 0.0
C391 C 0.00726 0.98251 0.42774 0.0
C392 C 0.98848 0.96887 0.39991 0.0
C393 C 0.95295 0.00267 0.37997 0.0
H394 H 0.95968 0.97237 0.3318 0.0
C395 C 0.90866 0.01485 0.30873 0.0
C396 C 0.9014 -0.00196 0.2986 0.0
C397 C 0.92165 0.01336 0.32453 0.0
C398 C 0.95752 0.9808 0.34522 0.0
H399 H 0.00561 0.0138 0.43181 0.0
H400 H 0.98423 0.01814 0.40347 0.0
H401 H 0.98276 0.96936 0.35893 0.0
H402 H 0.90192 0.96647 0.29723 0.0
H403 H 0.92457 0.96389 0.32482 0.0
H404 H 0.92774 0.01418 0.36613 0.0
C405 C 0.98867 0.00359 0.40684 0.0
C406 C 0.97073 0.97907 0.36077 0.0
C407 C 0.00109 0.00114 0.42293 0.0
C408 C 0.90726 0.97971 0.30471 0.0
C409 C 0.92033 0.97822 0.32042 0.0
C410 C 0.93979 0.00446 0.36436 0.0
C411 C 0.98213 0.98745 0.3952 0.0
C412 C 0.96852 0.98988 0.37839 0.0
C413 C 0.92773 0.99504 0.33044 0.0
C414 C 0.94187 0.99344 0.34688 0.0
H415 H 0.00563 0.95192 0.41907 0.0
H416 H 0.98357 0.95609 0.39141 0.0
H417 H 0.95065 0.01098 0.39343 0.0
H418 H 0.90442 0.0292 0.30439 0.0
H419 H 0.92723 0.02657 0.33188 0.0
C420 C 0.21828 0.28587 0.64535 0.0
C421 C 0.21327 0.27837 0.66387 0.0
C422 C 0.2227 0.27334 0.62965 0.0
C423 C 0.217 0.22189 0.6126 0.0
H424 H 0.26056 0.23591 0.57834 0.0
C425 C 0.24879 0.16755 0.55652 0.0
C426 C 0.25264 0.17453 0.53752 0.0
C427 C 0.24411 0.18038 0.57187 0.0
C428 C 0.24825 0.23189 0.58768 0.0
H429 H 0.20906 0.25192 0.68053 0.0
H430 H 0.21694 0.23005 0.65322 0.0
H431 H 0.25173 0.25805 0.60514 0.0
H432 H 0.25494 0.20051 0.51981 0.0
H433 H 0.24679 0.22289 0.54664 0.0
H434 H 0.21368 0.19564 0.59524 0.0
C435 C 0.21711 0.24557 0.65068 0.0
C436 C 0.24315 0.24458 0.603 0.0
C437 C 0.21261 0.25809 0.66634 0.0
C438 C 0.25205 0.19466 0.53428 0.0
C439 C 0.24747 0.2075 0.54966 0.0
C440 C 0.22216 0.20917 0.59735 0.0
C441 C 0.22228 0.25305 0.63217 0.0
C442 C 0.22749 0.23972 0.61566 0.0
C443 C 0.24329 0.20047 0.56857 0.0
C444 C 0.23785 0.21402 0.58475 0.0
H445 H 0.21866 0.30143 0.64296 0.0
H446 H 0.22631 0.27955 0.6155 0.0
H447 H 0.20465 0.21785 0.62188 0.0
H448 H 0.24915 0.15213 0.55952 0.0
H449 H 0.2412 0.17458 0.58636 0.0
C450 C 0.51545 0.52773 0.58897 0.0
C451 C 0.50767 0.53289 0.57068 0.0
C452 C 0.50335 0.52585 0.60544 0.0
C453 C 0.45649 0.5417 0.62564 0.0
H454 H 0.46323 0.49959 0.66206 0.0
C455 C 0.40472 0.52816 0.6918 0.0
C456 C 0.41351 0.52313 0.70966 0.0
C457 C 0.41573 0.52908 0.67447 0.0
C458 C 0.4613 0.51155 0.65213 0.0
H459 H 0.48097 0.53967 0.55524 0.0
H460 H 0.45981 0.53645 0.5841 0.0
H461 H 0.48317 0.5013 0.63231 0.0
H462 H 0.44083 0.51536 0.72338 0.0
H463 H 0.46006 0.51722 0.69323 0.0
H464 H 0.43475 0.55205 0.64557 0.0
C465 C 0.47535 0.5341 0.5857 0.0
C466 C 0.4727 0.51251 0.63508 0.0
C467 C 0.48746 0.53595 0.5692 0.0
C468 C 0.43358 0.51921 0.70985 0.0
C469 C 0.44458 0.52014 0.69254 0.0
C470 C 0.4451 0.54076 0.64272 0.0
C471 C 0.48319 0.52911 0.60402 0.0
C472 C 0.47052 0.52766 0.62172 0.0
C473 C 0.43577 0.52499 0.67464 0.0
C474 C 0.44748 0.52575 0.65623 0.0
H475 H 0.53102 0.5256 0.59068 0.0
H476 H 0.50989 0.52228 0.61942 0.0
H477 H 0.45465 0.5537 0.61575 0.0
H478 H 0.38926 0.5312 0.69114 0.0
H479 H 0.40846 0.53266 0.66088 0.0
C480 C 0.77699 0.25359 0.68506 0.0
C481 C 0.77617 0.23329 0.68203 0.0
C482 C 0.77411 0.26603 0.66934 0.0
C483 C 0.75356 0.26682 0.61877 0.0
H484 H 0.78565 0.31442 0.6149 0.0
C485 C 0.75676 0.31274 0.54856 0.0
C486 C 0.75577 0.33303 0.55108 0.0
C487 C 0.75891 0.30084 0.56482 0.0
C488 C 0.77646 0.30127 0.6159 0.0
H489 H 0.77201 0.21007 0.66019 0.0
H490 H 0.76728 0.23174 0.63267 0.0
H491 H 0.79012 0.29304 0.64273 0.0
H492 H 0.7564 0.35679 0.57264 0.0
H493 H 0.76027 0.33595 0.60107 0.0
H494 H 0.74015 0.27494 0.59174 0.0
C495 C 0.7697 0.23809 0.64725 0.0
C496 C 0.77898 0.28903 0.63186 0.0
C497 C 0.77245 0.22566 0.66299 0.0
C498 C 0.7571 0.3412 0.57021 0.0
C499 C 0.75942 0.3293 0.58648 0.0
C500 C 0.75115 0.27899 0.60276 0.0
C501 C 0.77047 0.25843 0.65024 0.0
C502 C 0.76759 0.27163 0.63345 0.0
C503 C 0.76027 0.309 0.58394 0.0
C504 C 0.76261 0.2963 0.60114 0.0
H505 H 0.77961 0.25985 0.69965 0.0
H506 H 0.77449 0.2816 0.67223 0.0
H507 H 0.74429 0.25372 0.61972 0.0
H508 H 0.75579 0.30598 0.53402 0.0
H509 H 0.75975 0.28526 0.56241 0.0
C510 C 0.49829 0.98858 0.56514 0.0
C511 C 0.49526 0.96992 0.55648 0.0
C512 C 0.50849 0.99101 0.58293 0.0
C513 C 0.54538 0.96979 0.61356 0.0
H514 H 0.52093 -0.00289 0.65701 0.0
C515 C 0.58002 0.97295 0.69109 0.0
C516 C 0.57832 0.99014 0.70238 0.0
C517 C 0.56965 0.97027 0.67342 0.0
C518 C 0.52815 0.98972 0.64497 0.0
H519 H 0.50068 0.93918 0.55992 0.0
H520 H 0.51919 0.94365 0.59056 0.0
H521 H 0.50381 0.99334 0.62552 0.0
H522 H 0.56461 0.01808 0.70402 0.0
H523 H 0.54713 0.01381 0.67287 0.0
H524 H 0.56999 0.96666 0.63258 0.0
C525 C 0.51353 0.95631 0.58351 0.0
C526 C 0.51827 0.9875 0.62698 0.0
C527 C 0.50303 0.95381 0.5659 0.0
C528 C 0.56607 0.0046 0.69569 0.0
C529 C 0.55595 0.00208 0.67786 0.0
C530 C 0.55543 0.97229 0.63143 0.0
C531 C 0.51618 0.9749 0.59224 0.0
C532 C 0.52678 0.97745 0.61117 0.0
C533 C 0.55759 0.98487 0.66648 0.0
C534 C 0.54691 0.98223 0.64741 0.0
H535 H 0.49286 0.00136 0.55814 0.0
H536 H 0.51056 0.00552 0.58931 0.0
H537 H 0.55229 0.96214 0.60147 0.0
H538 H 0.58925 0.96147 0.69598 0.0
H539 H 0.57098 0.95666 0.66532 0.0
C540 C 0.81877 0.23403 0.74889 0.0
C541 C 0.81483 0.21514 0.74123 0.0
C542 C 0.83462 0.23778 0.76163 0.0
C543 C 0.88228 0.2191 0.77557 0.0
H544 H 0.87647 0.25165 0.82237 0.0
C545 C 0.94417 0.22993 0.8331 0.0
C546 C 0.94746 0.24883 0.84101 0.0
C547 C 0.92764 0.22544 0.82148 0.0
C548 C 0.87839 0.24271 0.80924 0.0
H549 H 0.82441 0.18538 0.7408 0.0
H550 H 0.85207 0.19192 0.76317 0.0
H551 H 0.84822 0.24457 0.80096 0.0
H552 H 0.93595 0.27783 0.84299 0.0
H553 H 0.90729 0.27008 0.82246 0.0
H554 H 0.91248 0.21743 0.78363 0.0
C555 C 0.84293 0.20383 0.75926 0.0
C556 C 0.8622 0.23864 0.79702 0.0
C557 C 0.82702 0.20005 0.74661 0.0
C558 C 0.93381 0.26311 0.83717 0.0
C559 C 0.91731 0.25864 0.82549 0.0
C560 C 0.89848 0.22324 0.78774 0.0
C561 C 0.84691 0.22273 0.76687 0.0
C562 C 0.86399 0.22682 0.78004 0.0
C563 C 0.91407 0.23977 0.81746 0.0
C564 C 0.89674 0.23512 0.8047 0.0
H565 H 0.80952 0.24589 0.74512 0.0
H566 H 0.83744 0.25253 0.76714 0.0
H567 H 0.88416 0.21017 0.76243 0.0
H568 H 0.95436 0.21857 0.83588 0.0
H569 H 0.92542 0.21069 0.81577 0.0
C570 C 0.46675 0.92169 0.48485 0.0
C571 C 0.48196 0.93397 0.49253 0.0
C572 C 0.47095 0.90559 0.47297 0.0
C573 C 0.50964 0.88368 0.44256 0.0
H574 H 0.4803 0.83557 0.45325 0.0
C575 C 0.52979 0.80884 0.40895 0.0
C576 C 0.51407 0.79673 0.40209 0.0
C577 C 0.52627 0.82596 0.41964 0.0
C578 C 0.48849 0.84893 0.44995 0.0
H579 H 0.51349 0.93939 0.49309 0.0
H580 H 0.52087 0.911 0.47263 0.0
H581 H 0.47332 0.86504 0.47202 0.0
H582 H 0.48232 0.79316 0.40094 0.0
H583 H 0.47622 0.82298 0.41946 0.0
H584 H 0.52488 0.86742 0.42052 0.0
C585 C 0.50567 0.91393 0.4757 0.0
C586 C 0.48446 0.86583 0.46067 0.0
C587 C 0.50146 0.93007 0.48759 0.0
C588 C 0.49477 0.80211 0.40609 0.0
C589 C 0.49127 0.81916 0.41679 0.0
C590 C 0.51369 0.86673 0.43183 0.0
C591 C 0.49047 0.90133 0.46852 0.0
C592 C 0.49491 0.88343 0.45704 0.0
C593 C 0.50696 0.83125 0.42373 0.0
C594 C 0.50307 0.8492 0.43535 0.0
H595 H 0.45158 0.92417 0.48851 0.0
H596 H 0.45889 0.89634 0.46741 0.0
H597 H 0.51782 0.89705 0.4393 0.0
H598 H 0.54482 0.8051 0.40611 0.0
H599 H 0.53865 0.83491 0.42496 0.0
C600 C 0.16148 0.3103 0.73042 0.0
C601 C 0.17299 0.29529 0.72301 0.0
C602 C 0.14551 0.30608 0.7427 0.0
C603 C 0.12468 0.26804 0.77528 0.0
H604 H 0.07647 0.29529 0.76814 0.0
C605 C 0.05991 0.26078 0.82958 0.0
C606 C 0.04089 0.25963 0.82153 0.0
C607 C 0.0761 0.26518 0.81767 0.0
C608 C 0.08977 0.28744 0.77022 0.0
H609 H 0.17695 0.26409 0.72296 0.0
H610 H 0.14882 0.25668 0.74394 0.0
H611 H 0.10452 0.30268 0.74701 0.0
H612 H 0.02397 0.26202 0.79463 0.0
H613 H 0.05225 0.26939 0.7738 0.0
H614 H 0.10977 0.25244 0.79815 0.0
C615 C 0.15226 0.27175 0.74046 0.0
C616 C 0.10593 0.29186 0.75828 0.0
C617 C 0.16824 0.27597 0.72823 0.0
C618 C 0.03842 0.26287 0.8013 0.0
C619 C 0.05462 0.26722 0.78939 0.0
C620 C 0.10851 0.2636 0.7872 0.0
C621 C 0.14068 0.28674 0.74781 0.0
C622 C 0.12357 0.2822 0.76065 0.0
C623 C 0.07364 0.26847 0.79744 0.0
C624 C 0.09086 0.27323 0.7848 0.0
H625 H 0.16464 0.32532 0.72654 0.0
H626 H 0.13703 0.31799 0.74829 0.0
H627 H 0.13811 0.26049 0.77764 0.0
H628 H 0.0623 0.25845 0.84513 0.0
H629 H 0.09052 0.26629 0.82439 0.0
C630 C 0.52513 0.59007 0.52065 0.0
C631 C 0.52964 0.57186 0.51239 0.0
C632 C 0.5234 0.60626 0.50871 0.0
C633 C 0.51538 0.62003 0.45692 0.0
H634 H 0.53502 0.67079 0.47567 0.0
C635 C 0.51879 0.68758 0.40747 0.0
C636 C 0.51166 0.70479 0.41584 0.0
C637 C 0.52169 0.67138 0.41914 0.0
C638 C 0.52936 0.65673 0.47031 0.0
H639 H 0.53574 0.55638 0.48505 0.0
H640 H 0.53331 0.58475 0.46429 0.0
H641 H 0.5388 0.64237 0.49617 0.0
H642 H 0.50231 0.71864 0.44308 0.0
H643 H 0.50747 0.69037 0.46344 0.0
H644 H 0.5061 0.63444 0.43099 0.0
C645 C 0.5308 0.58646 0.47998 0.0
C646 C 0.53146 0.64045 0.48206 0.0
C647 C 0.53244 0.57024 0.49191 0.0
C648 C 0.5078 0.70558 0.43618 0.0
C649 C 0.51085 0.68944 0.44787 0.0
C650 C 0.5134 0.63629 0.44513 0.0
C651 C 0.52625 0.60466 0.48824 0.0
C652 C 0.52439 0.62192 0.47556 0.0
C653 C 0.51768 0.67214 0.43944 0.0
C654 C 0.52028 0.65482 0.45175 0.0
H655 H 0.52314 0.59191 0.5364 0.0
H656 H 0.51963 0.61999 0.51554 0.0
H657 H 0.50948 0.60604 0.45159 0.0
H658 H 0.52193 0.6865 0.39185 0.0
H659 H 0.52717 0.65829 0.4123 0.0
C660 C 0.83541 0.79959 0.75019 0.0
C661 C 0.82394 0.78408 0.75779 0.0
C662 C 0.84982 0.79611 0.73609 0.0
C663 C 0.86464 0.76043 0.69842 0.0
H664 H 0.91597 0.78608 0.70449 0.0
C665 C 0.93146 0.73909 0.6516 0.0
C666 C 0.94465 0.7541 0.64578 0.0
C667 C 0.91614 0.74302 0.66456 0.0
C668 C 0.90163 0.77902 0.7024 0.0
H669 H 0.81835 0.75279 0.75646 0.0
H670 H 0.84365 0.74668 0.73189 0.0
H671 H 0.8904 0.79245 0.72854 0.0
H672 H 0.95177 0.78509 0.64851 0.0
H673 H 0.92486 0.79199 0.67079 0.0
H674 H 0.87582 0.74704 0.67223 0.0
C675 C 0.84142 0.76154 0.73677 0.0
C676 C 0.88701 0.78264 0.71621 0.0
C677 C 0.8271 0.76501 0.75096 0.0
C678 C 0.94194 0.77318 0.65282 0.0
C679 C 0.92659 0.77711 0.6657 0.0
C680 C 0.87924 0.75687 0.68453 0.0
C681 C 0.85296 0.77705 0.72923 0.0
C682 C 0.86838 0.77335 0.7144 0.0
C683 C 0.91364 0.76204 0.67191 0.0
C684 C 0.89793 0.76609 0.68639 0.0
H685 H 0.8334 0.81442 0.7553 0.0
H686 H 0.85839 0.80836 0.73042 0.0
H687 H 0.85033 0.75325 0.69651 0.0
H688 H 0.93318 0.72423 0.64648 0.0
H689 H 0.90658 0.73103 0.66922 0.0
C690 C 0.0405 0.93275 0.49325 0.0
C691 C 0.02484 0.9436 0.48649 0.0
C692 C 0.03695 0.91634 0.50475 0.0
C693 C -0.00124 0.87917 0.51601 0.0
H694 H 0.03063 0.87031 0.56215 0.0
C695 C 0.97987 0.81764 0.57022 0.0
C696 C 0.9955 0.8074 0.57794 0.0
C697 C 0.98349 0.83433 0.55915 0.0
C698 C 0.02176 0.87244 0.54917 0.0
H699 H 0.99321 0.94601 0.48697 0.0
H700 H 0.98703 0.91722 0.50688 0.0
H701 H 0.03694 0.89944 0.54277 0.0
H702 H 0.02721 0.80654 0.57995 0.0
H703 H 0.03353 0.83544 0.56033 0.0
H704 H 0.98371 0.85211 0.52222 0.0
C705 C 0.00203 0.92131 0.50306 0.0
C706 C 0.02535 0.88914 0.5381 0.0
C707 C 0.00557 0.93777 0.49165 0.0
C708 C 0.01483 0.81415 0.57428 0.0
C709 C 0.01846 0.83079 0.56313 0.0
C710 C 0.99523 0.86242 0.52701 0.0
C711 C 0.01767 0.91038 0.50966 0.0
C712 C 0.01387 0.89269 0.52144 0.0
C713 C 0.00282 0.8411 0.55548 0.0
C714 C 0.00666 0.85887 0.54373 0.0
H715 H 0.05549 0.93669 0.48929 0.0
H716 H 0.04928 0.90806 0.50943 0.0
H717 H 0.98987 0.88137 0.50306 0.0
H718 H 0.9648 0.81288 0.57286 0.0
H719 H 0.97111 0.84208 0.55372 0.0
C720 C 0.15938 0.74241 0.76423 0.0
C721 C 0.16339 0.72365 0.77073 0.0
C722 C 0.14417 0.74513 0.7509 0.0
C723 C 0.09823 0.72172 0.73192 0.0
H724 H 0.10467 0.75951 0.69043 0.0
C725 C 0.03304 0.74614 0.68556 0.0
C726 C 0.03613 0.74868 0.66529 0.0
C727 C 0.04878 0.74288 0.69811 0.0
C728 C 0.10269 0.74878 0.70182 0.0
H729 H 0.15454 0.69303 0.7683 0.0
H730 H 0.12827 0.69773 0.74464 0.0
H731 H 0.13204 0.75373 0.71243 0.0
H732 H 0.05816 0.74975 0.64225 0.0
H733 H 0.08559 0.7438 0.66411 0.0
H734 H 0.06901 0.71648 0.72107 0.0
C735 C 0.13674 0.71037 0.75007 0.0
C736 C 0.1183 0.74563 0.71458 0.0
C737 C 0.15195 0.70765 0.76344 0.0
C738 C 0.0553 0.74794 0.65782 0.0
C739 C 0.07104 0.74462 0.67037 0.0
C740 C 0.08263 0.72484 0.71914 0.0
C741 C 0.13264 0.72915 0.7437 0.0
C742 C 0.11622 0.73214 0.72983 0.0
C743 C 0.06795 0.74202 0.69065 0.0
C744 C 0.08465 0.73847 0.704 0.0
H745 H 0.16808 0.75502 0.76939 0.0
H746 H 0.14126 0.75982 0.74646 0.0
H747 H 0.09607 0.71137 0.74363 0.0
H748 H 0.01846 0.74671 0.6918 0.0
H749 H 0.04594 0.74124 0.7137 0.0
C750 C 0.9789 0.58502 0.4818 0.0
C751 C 0.97588 0.56637 0.48964 0.0
C752 C 0.98192 0.60126 0.49427 0.0
C753 C 0.97463 0.61798 0.54587 0.0
H754 H 0.0115 0.65959 0.5313 0.0
C755 C -0.00226 0.68153 0.59889 0.0
C756 C -0.00233 0.7003 0.59099 0.0
C757 C 0.99539 0.66506 0.58661 0.0
C758 C 0.00106 0.64813 0.53547 0.0
H759 H 0.97411 0.54997 0.51658 0.0
H760 H 0.97978 0.57825 0.53841 0.0
H761 H 0.00711 0.63091 0.50977 0.0
H762 H 0.99526 0.71652 0.564 0.0
H763 H 0.9913 0.6877 0.54255 0.0
H764 H 0.96882 0.63517 0.57172 0.0
C765 C 0.97933 0.58044 0.52265 0.0
C766 C -0.00151 0.63172 0.52313 0.0
C767 C 0.97614 0.56423 0.51017 0.0
C768 C 0.99536 0.70225 0.57054 0.0
C769 C 0.9932 0.68577 0.55824 0.0
C770 C 0.97733 0.63431 0.55828 0.0
C771 C 0.98217 0.59917 0.51486 0.0
C772 C 0.98518 0.61648 0.52814 0.0
C773 C 0.99312 0.66702 0.56617 0.0
C774 C 0.99051 0.64957 0.55316 0.0
H775 H 0.97853 0.5871 0.46601 0.0
H776 H 0.98372 0.61549 0.48777 0.0
H777 H 0.964 0.60669 0.55003 0.0
H778 H -0.00052 0.67954 0.61459 0.0
H779 H 0.99555 0.65076 0.59308 0.0
C780 C 0.75178 0.83527 0.20062 0.0
C781 C 0.73139 0.83742 0.2017 0.0
C782 C 0.76474 0.85097 0.20497 0.0
C783 C 0.76726 0.90483 0.2093 0.0
H784 H 0.81644 0.89589 0.23585 0.0
C785 C 0.82059 0.96712 0.23659 0.0
C786 C 0.84043 0.96506 0.23168 0.0
C787 C 0.80696 0.95167 0.23349 0.0
C788 C 0.80281 0.89856 0.22833 0.0
H789 H 0.70866 0.8578 0.20834 0.0
H790 H 0.7313 0.88502 0.21664 0.0
H791 H 0.79303 0.86871 0.22992 0.0
H792 H 0.86158 0.94514 0.21984 0.0
H793 H 0.83777 0.91809 0.21462 0.0
H794 H 0.77705 0.93479 0.20801 0.0
C795 C 0.73727 0.87128 0.21202 0.0
C796 C 0.78941 0.883 0.22486 0.0
C797 C 0.72428 0.8556 0.20751 0.0
C798 C 0.84639 0.94719 0.22375 0.0
C799 C 0.83281 0.93168 0.22086 0.0
C800 C 0.78059 0.92043 0.21296 0.0
C801 C 0.75766 0.86917 0.21073 0.0
C802 C 0.77155 0.8859 0.21513 0.0
C803 C 0.81296 0.93379 0.22565 0.0
C804 C 0.79855 0.9174 0.22234 0.0
H805 H 0.75779 0.8214 0.19652 0.0
H806 H 0.78033 0.84886 0.20356 0.0
H807 H 0.7538 0.90755 0.20151 0.0
H808 H 0.81554 0.98072 0.24271 0.0
H809 H 0.79177 0.95363 0.23743 0.0
C810 C 0.72637 0.17147 0.31138 0.0
C811 C 0.72095 0.18215 0.2949 0.0
C812 C 0.73842 0.15558 0.30917 0.0
C813 C 0.75778 0.12112 0.27179 0.0
H814 H 0.79912 0.11554 0.31037 0.0
C815 C 0.82321 0.07183 0.25853 0.0
C816 C 0.82843 0.05984 0.27411 0.0
C817 C 0.80952 0.08622 0.26143 0.0
C818 C 0.78752 0.1168 0.29959 0.0
H819 H 0.72379 0.18455 0.26322 0.0
H820 H 0.74503 0.15702 0.25936 0.0
H821 H 0.77582 0.14132 0.31475 0.0
H822 H 0.82359 0.05372 0.30502 0.0
H823 H 0.79979 0.079 0.3101 0.0
H824 H 0.76982 0.09682 0.25643 0.0
C825 C 0.73968 0.16062 0.27395 0.0
C826 C 0.77412 0.13152 0.30212 0.0
C827 C 0.72753 0.17642 0.27614 0.0
C828 C 0.81987 0.06272 0.29272 0.0
C829 C 0.8063 0.07723 0.29566 0.0
C830 C 0.77127 0.10649 0.2692 0.0
C831 C 0.74541 0.15011 0.29046 0.0
C832 C 0.75915 0.13393 0.28819 0.0
C833 C 0.8009 0.08903 0.28001 0.0
C834 C 0.78633 0.10426 0.28302 0.0
H835 H 0.7213 0.17544 0.32598 0.0
H836 H 0.74226 0.14759 0.32215 0.0
H837 H 0.74622 0.12233 0.26096 0.0
H838 H 0.82953 0.06998 0.24401 0.0
H839 H 0.8058 0.09527 0.24917 0.0
C840 C 0.42504 -0.00052 0.96416 0.0
C841 C 0.43727 0.00779 0.97901 0.0
C842 C 0.40896 0.9873 0.96903 0.0
C843 C 0.37507 0.97688 0.00978 0.0
H844 H 0.36178 0.9297 0.97961 0.0
C845 C 0.31199 0.92373 0.03261 0.0
C846 C 0.29999 0.91569 0.01746 0.0
C847 C 0.32924 0.93434 0.02815 0.0
C848 C 0.36517 0.94294 0.98805 0.0
H849 H 0.44267 0.00921 0.01054 0.0
H850 H 0.41453 0.98809 0.01902 0.0
H851 H 0.39117 0.94916 0.97129 0.0
H852 H 0.29665 0.91251 0.98573 0.0
H853 H 0.32653 0.93129 0.97796 0.0
H854 H 0.34898 0.97088 0.02637 0.0
C855 C 0.41722 0.99123 0.00364 0.0
C856 C 0.38202 0.95406 0.9833 0.0
C857 C 0.43332 0.00333 -0.00122 0.0
C858 C 0.30561 0.91846 -0.00224 0.0
C859 C 0.32281 0.92912 0.9933 0.0
C860 C 0.35819 0.96581 0.01449 0.0
C861 C 0.40476 0.98324 0.98884 0.0
C862 C 0.38712 0.97116 0.9941 0.0
C863 C 0.33484 0.93719 0.00844 0.0
C864 C 0.35301 0.94874 0.00365 0.0
H865 H 0.42754 0.00282 0.94881 0.0
H866 H 0.3995 0.98153 0.95732 0.0
H867 H 0.37845 0.99015 0.01818 0.0
H868 H 0.30812 0.92177 0.04795 0.0
H869 H 0.3383 0.94014 0.04016 0.0
C870 C 0.26126 0.32303 0.29957 0.0
C871 C 0.26533 0.31193 0.28256 0.0
C872 C 0.24894 0.33877 0.29859 0.0
C873 C 0.20962 0.35854 0.26868 0.0
H874 H 0.22449 0.40756 0.2949 0.0
C875 C 0.16898 0.42892 0.2547 0.0
C876 C 0.16578 0.44149 0.27086 0.0
C877 C 0.18086 0.41296 0.25664 0.0
C878 C 0.21999 0.39389 0.28772 0.0
H879 H 0.25955 0.30845 0.25123 0.0
H880 H 0.23812 0.33605 0.24947 0.0
H881 H 0.24576 0.37993 0.29738 0.0
H882 H 0.1724 0.44707 0.30179 0.0
H883 H 0.19291 0.41899 0.30525 0.0
H884 H 0.18383 0.3724 0.25907 0.0
C885 C 0.24439 0.33252 0.26358 0.0
C886 C 0.23219 0.37809 0.28912 0.0
C887 C 0.2568 0.31685 0.26455 0.0
C888 C 0.17464 0.4377 0.28903 0.0
C889 C 0.18648 0.42167 0.29099 0.0
C890 C 0.19739 0.3743 0.26735 0.0
C891 C 0.24034 0.34364 0.28059 0.0
C892 C 0.22719 0.36029 0.27951 0.0
C893 C 0.18975 0.40913 0.2748 0.0
C894 C 0.20249 0.39221 0.27674 0.0
H895 H 0.26776 0.31965 0.31362 0.0
H896 H 0.24596 0.347 0.31196 0.0
H897 H 0.20524 0.3449 0.26138 0.0
H898 H 0.16245 0.43148 0.24046 0.0
H899 H 0.18332 0.40377 0.24379 0.0
C900 C 0.08353 0.99601 0.47457 0.0
C901 C 0.06525 0.00339 0.46967 0.0
C902 C 0.09963 0.00863 0.47851 0.0
C903 C 0.1186 0.05894 0.47057 0.0
H904 H 0.15472 0.04679 0.51241 0.0
C905 C 0.18304 0.11113 0.49487 0.0
C906 C 0.20121 0.1025 0.49743 0.0
C907 C 0.16591 0.09956 0.49222 0.0
C908 C 0.14483 0.0503 0.5006 0.0
H909 H 0.04945 0.02975 0.46521 0.0
H910 H 0.07757 0.05186 0.47228 0.0
H911 H 0.1257 0.0257 0.5064 0.0
H912 H 0.21564 0.07497 0.49943 0.0
H913 H 0.18576 0.05482 0.49482 0.0
H914 H 0.13778 0.08357 0.46482 0.0
C915 C 0.07952 0.0363 0.47277 0.0
C916 C 0.12822 0.03821 0.49712 0.0
C917 C 0.06342 0.02366 0.46875 0.0
C918 C 0.20187 0.08208 0.49751 0.0
C919 C 0.18474 0.07052 0.49498 0.0
C920 C 0.13517 0.07109 0.47411 0.0
C921 C 0.09781 0.02893 0.47773 0.0
C922 C 0.11501 0.04227 0.48193 0.0
C923 C 0.1666 0.07914 0.49222 0.0
C924 C 0.14855 0.06678 0.48904 0.0
H925 H 0.08546 0.98045 0.47508 0.0
H926 H 0.11359 0.00244 0.48189 0.0
H927 H 0.10886 0.06235 0.45859 0.0
H928 H 0.18204 0.12683 0.49475 0.0
H929 H 0.1521 0.10659 0.4903 0.0
C930 C 0.74981 0.16883 0.73872 0.0
C931 C 0.75631 0.17373 0.71974 0.0
C932 C 0.73681 0.15292 0.74142 0.0
C933 C 0.71783 0.10732 0.71734 0.0
H934 H 0.67526 0.11232 0.75471 0.0
C935 C 0.66781 0.04179 0.73967 0.0
C936 C 0.64768 0.045 0.74175 0.0
C937 C 0.68118 0.05742 0.73695 0.0
C938 C 0.68697 0.11074 0.7441 0.0
H939 H 0.7545 0.16558 0.68873 0.0
H940 H 0.73146 0.13805 0.69339 0.0
H941 H 0.69825 0.13978 0.74976 0.0
H942 H 0.62577 0.0671 0.74246 0.0
H943 H 0.64905 0.09432 0.73745 0.0
H944 H 0.70627 0.07843 0.71136 0.0
C945 C 0.73658 0.14639 0.70621 0.0
C946 C 0.7003 0.12639 0.74145 0.0
C947 C 0.74961 0.16229 0.70352 0.0
C948 C 0.64119 0.06414 0.741 0.0
C949 C 0.65455 0.07976 0.73823 0.0
C950 C 0.70449 0.09167 0.71998 0.0
C951 C 0.72998 0.14156 0.72519 0.0
C952 C 0.71588 0.12487 0.72804 0.0
C953 C 0.6747 0.07658 0.73621 0.0
C954 C 0.6889 0.0932 0.73339 0.0
H955 H 0.75453 0.17747 0.7515 0.0
H956 H 0.73218 0.14945 0.75625 0.0
H957 H 0.72979 0.10562 0.70704 0.0
H958 H 0.6733 0.02722 0.74026 0.0
H959 H 0.69662 0.0545 0.7357 0.0
C960 C 0.42096 0.97886 0.50648 0.0
C961 C 0.43834 0.98749 0.51438 0.0
C962 C 0.40425 0.98978 0.5043 0.0
C963 C 0.38793 0.04063 0.50248 0.0
H964 H 0.33711 0.01686 0.51508 0.0
C965 C 0.31832 0.08512 0.51082 0.0
C966 C 0.30135 0.0775 0.50123 0.0
C967 C 0.33493 0.07395 0.51235 0.0
C968 C 0.35119 0.02363 0.51136 0.0
H969 H 0.45188 0.01451 0.52575 0.0
H970 H 0.42261 0.03338 0.52255 0.0
H971 H 0.36645 -0.00221 0.51754 0.0
H972 H 0.28837 0.05207 0.48605 0.0
H973 H 0.31737 0.03252 0.48887 0.0
H974 H 0.37264 0.06657 0.49662 0.0
C975 C 0.42194 0.01824 0.51776 0.0
C976 C 0.368 0.0127 0.51269 0.0
C977 C 0.43867 0.00735 0.51984 0.0
C978 C 0.30122 0.05836 0.49351 0.0
C979 C 0.31778 0.04713 0.49519 0.0
C980 C 0.37115 0.05159 0.50129 0.0
C981 C 0.4045 0.00957 0.51005 0.0
C982 C 0.38658 0.02108 0.50829 0.0
C983 C 0.33485 0.05488 0.50447 0.0
C984 C 0.35262 0.0432 0.50573 0.0
H985 H 0.42013 0.96355 0.50232 0.0
H986 H 0.39114 0.98271 0.49806 0.0
H987 H 0.40195 0.04745 0.49864 0.0
H988 H 0.31889 0.09981 0.51694 0.0
H989 H 0.34781 0.0802 0.51979 0.0
C990 C 0.57045 0.50646 0.51137 0.0
C991 C 0.5652 0.51215 0.5306 0.0
C992 C 0.58613 0.49428 0.50821 0.0
C993 C 0.61654 0.45862 0.53262 0.0
H994 H 0.65419 0.47183 0.49177 0.0
C995 C 0.69034 0.42069 0.52496 0.0
C996 C 0.69689 0.41641 0.5058 0.0
C997 C 0.67396 0.43201 0.52791 0.0
C998 C 0.64368 0.46778 0.50306 0.0
H999 H 0.5724 0.50957 0.56159 0.0
H1000 H 0.59964 0.48816 0.55605 0.0
H1001 H 0.62594 0.49199 0.49691 0.0
H1002 H 0.69127 0.42047 0.47468 0.0
H1003 H 0.66256 0.43994 0.47981 0.0
H1004 H 0.63423 0.43436 0.53874 0.0
C1005 C 0.59148 0.49296 0.54344 0.0
C1006 C 0.62751 0.47935 0.50601 0.0
C1007 C 0.57586 0.50521 0.54661 0.0
C1008 C 0.68667 0.42359 0.48964 0.0
C1009 C 0.67026 0.43485 0.49258 0.0
C1010 C 0.63268 0.447 0.52962 0.0
C1011 C 0.59685 0.48746 0.52421 0.0
C1012 C 0.6138 0.47492 0.52085 0.0
C1013 C 0.66375 0.43925 0.51174 0.0
C1014 C 0.64647 0.45147 0.51484 0.0
H1015 H 0.56234 0.51131 0.49874 0.0
H1016 H 0.58977 0.49006 0.49323 0.0
H1017 H 0.60607 0.45471 0.544 0.0
H1018 H 0.69793 0.41542 0.53773 0.0
H1019 H 0.66948 0.43535 0.54286 0.0
C1020 C 0.71203 0.23985 0.34877 0.0
C1021 C 0.70937 0.24566 0.32926 0.0
C1022 C 0.71707 0.25359 0.36351 0.0
C1023 C 0.71708 0.30658 0.37494 0.0
H1024 H 0.75224 0.29258 0.41694 0.0
C1025 C 0.74678 0.36139 0.43483 0.0
C1026 C 0.74481 0.35496 0.4543 0.0
C1027 C 0.74326 0.34845 0.41895 0.0
C1028 C 0.74236 0.29664 0.40532 0.0
H1029 H 0.71014 0.27026 0.30972 0.0
H1030 H 0.71941 0.29428 0.33536 0.0
H1031 H 0.74481 0.26931 0.39016 0.0
H1032 H 0.73791 0.32991 0.47242 0.0
H1033 H 0.73204 0.30733 0.4447 0.0
H1034 H 0.71491 0.33406 0.39013 0.0
C1035 C 0.71716 0.27919 0.33942 0.0
C1036 C 0.73801 0.2833 0.39003 0.0
C1037 C 0.71191 0.26545 0.32471 0.0
C1038 C 0.7395 0.33532 0.45758 0.0
C1039 C 0.73625 0.32236 0.44174 0.0
C1040 C 0.72162 0.32001 0.39014 0.0
C1041 C 0.71977 0.27342 0.35901 0.0
C1042 C 0.72512 0.288 0.37478 0.0
C1043 C 0.73802 0.32882 0.42229 0.0
C1044 C 0.7341 0.31506 0.40559 0.0
H1045 H 0.7099 0.2247 0.3527 0.0
H1046 H 0.71855 0.24866 0.37849 0.0
H1047 H 0.70688 0.3106 0.36361 0.0
H1048 H 0.75083 0.37645 0.43185 0.0
H1049 H 0.74482 0.35374 0.40407 0.0
C1050 C 0.48589 0.01979 0.91756 0.0
C1051 C 0.49379 0.02756 0.93532 0.0
C1052 C 0.49799 0.0167 0.90127 0.0
C1053 C 0.54488 0.03336 0.87988 0.0
H1054 H 0.54102 0.98507 0.84934 0.0
C1055 C 0.60203 0.01452 0.82092 0.0
C1056 C 0.59532 0.00513 0.80349 0.0
C1057 C 0.58934 0.01709 0.83681 0.0
C1058 C 0.54211 -0.00125 0.85754 0.0
H1059 H 0.5207 0.03754 0.95005 0.0
H1060 H 0.54169 0.03242 0.92155 0.0
H1061 H 0.5192 0.98981 0.87737 0.0
H1062 H 0.57 0.99117 0.78897 0.0
H1063 H 0.54774 0.99602 0.81654 0.0
H1064 H 0.56757 0.04246 0.86002 0.0
C1065 C 0.52611 0.02897 0.92018 0.0
C1066 C 0.52964 0.00143 0.87361 0.0
C1067 C 0.51407 0.03193 0.93648 0.0
C1068 C 0.57564 -0.00162 0.80225 0.0
C1069 C 0.56291 0.00106 0.8181 0.0
C1070 C 0.55724 0.03075 0.86375 0.0
C1071 C 0.51819 0.02142 0.90238 0.0
C1072 C 0.53101 0.0187 0.88502 0.0
C1073 C 0.56961 0.01045 0.83558 0.0
C1074 C 0.55611 0.01336 0.85246 0.0
H1075 H 0.4703 0.01649 0.9161 0.0
H1076 H 0.49148 0.01101 0.88767 0.0
H1077 H 0.54604 0.04696 0.88823 0.0
H1078 H 0.61714 0.01978 0.82239 0.0
H1079 H 0.59509 0.02408 0.85016 0.0
C1080 C 0.28177 0.25824 0.33549 0.0
C1081 C 0.28619 0.25176 0.31629 0.0
C1082 C 0.27931 0.24499 0.35072 0.0
C1083 C 0.2692 0.19256 0.35994 0.0
H1084 H 0.28684 0.20725 0.41268 0.0
C1085 C 0.24711 0.14777 0.42806 0.0
C1086 C 0.26077 0.14666 0.44346 0.0
C1087 C 0.25098 0.15989 0.41211 0.0
C1088 C 0.28205 0.20277 0.39801 0.0
H1089 H 0.29146 0.22616 0.29809 0.0
H1090 H 0.28797 0.20316 0.32481 0.0
H1091 H 0.29278 0.22956 0.3858 0.0
H1092 H 0.2895 0.15682 0.45393 0.0
H1093 H 0.29653 0.17746 0.42585 0.0
H1094 H 0.25904 0.1655 0.37206 0.0
C1095 C 0.286 0.21846 0.32802 0.0
C1096 C 0.28518 0.21572 0.38262 0.0
C1097 C 0.28828 0.2317 0.31274 0.0
C1098 C 0.2786 0.15751 0.44236 0.0
C1099 C 0.28257 0.16945 0.42631 0.0
C1100 C 0.26623 0.17952 0.37531 0.0
C1101 C 0.28141 0.22494 0.34719 0.0
C1102 C 0.27865 0.21086 0.36343 0.0
C1103 C 0.2687 0.17099 0.41111 0.0
C1104 C 0.27248 0.18452 0.39457 0.0
H1105 H 0.28031 0.2736 0.33882 0.0
H1106 H 0.27552 0.2505 0.36523 0.0
H1107 H 0.26378 0.18839 0.3454 0.0
H1108 H 0.23319 0.13966 0.42855 0.0
H1109 H 0.23984 0.16092 0.40083 0.0
C1110 C 0.50097 0.46641 0.91558 0.0
C1111 C 0.50743 0.48239 0.92743 0.0
C1112 C 0.4881 0.46894 0.8999 0.0
C1113 C 0.46963 0.5056 0.86637 0.0
H1114 H 0.42579 0.46841 0.85975 0.0
C1115 C 0.40755 0.51627 0.80996 0.0
C1116 C 0.40079 0.49966 0.79919 0.0
C1117 C 0.42036 0.51453 0.82587 0.0
C1118 C 0.43807 0.4788 0.86125 0.0
H1119 H 0.50561 0.51362 0.93198 0.0
H1120 H 0.4832 0.51806 0.90444 0.0
H1121 H 0.44891 0.46472 0.88671 0.0
H1122 H 0.40216 0.4682 0.7967 0.0
H1123 H 0.42466 0.4652 0.82425 0.0
H1124 H 0.45887 0.51958 0.8408 0.0
C1125 C 0.48821 0.50359 0.90724 0.0
C1126 C 0.45131 0.47669 0.87671 0.0
C1127 C 0.50106 0.50105 0.92299 0.0
C1128 C 0.40702 0.48128 0.80474 0.0
C1129 C 0.41985 0.47955 0.82061 0.0
C1130 C 0.45641 0.50768 0.85085 0.0
C1131 C 0.48145 0.48752 0.89566 0.0
C1132 C 0.46728 0.49001 0.87938 0.0
C1133 C 0.4267 0.49615 0.83134 0.0
C1134 C 0.44052 0.49425 0.84807 0.0
H1135 H 0.50592 0.45191 0.91837 0.0
H1136 H 0.48344 0.45633 0.89101 0.0
H1137 H 0.48192 0.51597 0.86793 0.0
H1138 H 0.40298 0.53065 0.8061 0.0
H1139 H 0.42516 0.52758 0.834 0.0
C1140 C 0.71095 0.75782 0.16234 0.0
C1141 C 0.71415 0.77803 0.1602 0.0
C1142 C 0.71645 0.74481 0.14747 0.0
C1143 C 0.75104 0.73979 0.10705 0.0
H1144 H 0.71534 0.69829 0.08816 0.0
C1145 C 0.76923 0.69103 0.03985 0.0
C1146 C 0.76264 0.67142 0.03992 0.0
C1147 C 0.76353 0.70395 0.05473 0.0
C1148 C 0.72563 0.70958 0.09347 0.0
H1149 H 0.72508 0.80036 0.14034 0.0
H1150 H 0.73517 0.77755 0.11465 0.0
H1151 H 0.7046 0.72098 0.11365 0.0
H1152 H 0.74545 0.64977 0.05596 0.0
H1153 H 0.73608 0.6721 0.0823 0.0
H1154 H 0.77227 0.72824 0.08733 0.0
C1155 C 0.72848 0.77186 0.12793 0.0
C1156 C 0.71941 0.72263 0.10799 0.0
C1157 C 0.72276 0.7849 0.14269 0.0
C1158 C 0.75064 0.66486 0.05543 0.0
C1159 C 0.74515 0.67771 0.07045 0.0
C1160 C 0.75737 0.7266 0.09271 0.0
C1161 C 0.72547 0.75171 0.13024 0.0
C1162 C 0.73203 0.73788 0.11485 0.0
C1163 C 0.75131 0.69748 0.07016 0.0
C1164 C 0.74472 0.71136 0.08568 0.0
H1165 H 0.70466 0.75198 0.17574 0.0
H1166 H 0.71413 0.72931 0.14966 0.0
H1167 H 0.76114 0.7513 0.11229 0.0
H1168 H 0.77837 0.69655 0.028 0.0
H1169 H 0.76833 0.71912 0.05384 0.0
C1170 C 0.00734 0.0175 0.07922 0.0
C1171 C 0.0106 0.03582 0.0706 0.0
C1172 C 0.99565 0.01556 0.09601 0.0
C1173 C 0.95534 0.03676 0.12246 0.0
H1174 H 0.97647 0.01243 0.16861 0.0
C1175 C 0.91311 0.03501 0.19608 0.0
C1176 C 0.91469 0.0185 0.20779 0.0
C1177 C 0.92499 0.03747 0.17947 0.0
C1178 C 0.97017 0.01897 0.15578 0.0
H1179 H 0.0041 0.06651 0.07318 0.0
H1180 H 0.98304 0.06285 0.10197 0.0
H1181 H 0.99647 0.01552 0.13902 0.0
H1182 H 0.92963 0.99146 0.21117 0.0
H1183 H 0.94971 0.99527 0.18184 0.0
H1184 H 0.92881 0.03963 0.13876 0.0
C1185 C 0.98966 0.05007 0.09566 0.0
C1186 C 0.9817 0.02082 0.13889 0.0
C1187 C 0.00163 0.0521 0.07909 0.0
C1188 C 0.92824 0.00444 0.20253 0.0
C1189 C 0.93985 0.00672 0.18575 0.0
C1190 C 0.94365 0.0346 0.13923 0.0
C1191 C 0.98669 0.03182 0.10432 0.0
C1192 C 0.9744 0.02976 0.12212 0.0
C1193 C 0.93846 0.0233 0.17401 0.0
C1194 C 0.95092 0.0257 0.15615 0.0
H1195 H 0.01367 0.00457 0.07291 0.0
H1196 H 0.9934 0.00129 0.10235 0.0
H1197 H 0.94936 0.04357 0.10961 0.0
H1198 H 0.90287 0.04615 0.19988 0.0
H1199 H 0.92372 0.05061 0.17106 0.0
C1200 C 0.2993 0.73822 0.16983 0.0
C1201 C 0.28258 0.73208 0.18044 0.0
C1202 C 0.29778 0.75156 0.15467 0.0
C1203 C 0.2672 0.79034 0.13708 0.0
H1204 H 0.29269 0.7811 0.08689 0.0
C1205 C 0.25302 0.83708 0.06921 0.0
C1206 C 0.26883 0.84131 0.05655 0.0
C1207 C 0.25503 0.82407 0.08459 0.0
C1208 C 0.28573 0.78406 0.10091 0.0
H1209 H 0.25122 0.73504 0.1836 0.0
H1210 H 0.24855 0.75842 0.15706 0.0
H1211 H 0.29556 0.75761 0.11315 0.0
H1212 H 0.29929 0.83559 0.05035 0.0
H1213 H 0.30295 0.81326 0.07748 0.0
H1214 H 0.25758 0.8169 0.12503 0.0
C1215 C 0.26282 0.75294 0.16053 0.0
C1216 C 0.28732 0.77056 0.11591 0.0
C1217 C 0.26431 0.73946 0.17557 0.0
C1218 C 0.28679 0.83252 0.05978 0.0
C1219 C 0.28885 0.81962 0.07526 0.0
C1220 C 0.26574 0.80393 0.12214 0.0
C1221 C 0.27955 0.75913 0.14995 0.0
C1222 C 0.278 0.77353 0.1341 0.0
C1223 C 0.27295 0.81512 0.08776 0.0
C1224 C 0.27491 0.80091 0.10384 0.0
H1225 H 0.31354 0.73263 0.1732 0.0
H1226 H 0.31092 0.75618 0.14683 0.0
H1227 H 0.2601 0.79311 0.15107 0.0
H1228 H 0.23895 0.84354 0.06705 0.0
H1229 H 0.24239 0.82072 0.09373 0.0
C1230 C 0.98234 0.47273 0.08258 0.0
C1231 C 0.99182 0.46814 0.0648 0.0
C1232 C 0.99282 0.47393 0.10028 0.0
C1233 C 0.03816 0.45783 0.12357 0.0
H1234 H 0.02914 0.49986 0.16105 0.0
C1235 C 0.0889 0.47448 0.19025 0.0
C1236 C 0.08009 0.47963 0.20823 0.0
C1237 C 0.07773 0.47255 0.17302 0.0
C1238 C 0.03164 0.48789 0.15085 0.0
H1239 H 0.01982 0.4616 0.0516 0.0
H1240 H 0.03813 0.4637 0.08252 0.0
H1241 H 0.01044 0.49772 0.13037 0.0
H1242 H 0.05257 0.48654 0.22225 0.0
H1243 H 0.03304 0.48299 0.19217 0.0
H1244 H 0.05941 0.44804 0.14401 0.0
C1245 C 0.02252 0.46606 0.0828 0.0
C1246 C 0.02095 0.48668 0.13327 0.0
C1247 C 0.01204 0.46487 0.0651 0.0
C1248 C 0.05982 0.48262 0.20863 0.0
C1249 C 0.04865 0.48069 0.19138 0.0
C1250 C 0.04885 0.45904 0.14115 0.0
C1251 C 0.01302 0.47055 0.10059 0.0
C1252 C 0.02415 0.47168 0.1194 0.0
C1253 C 0.0575 0.47572 0.17337 0.0
C1254 C 0.04577 0.47413 0.15494 0.0
H1255 H 0.96672 0.47504 0.08286 0.0
H1256 H 0.98504 0.47717 0.11379 0.0
H1257 H 0.04073 0.44592 0.11332 0.0
H1258 H 0.1045 0.47213 0.18942 0.0
H1259 H 0.08504 0.46894 0.15934 0.0
C1260 C 0.32772 0.69566 0.2476 0.0
C1261 C 0.31667 0.7113 0.24141 0.0
C1262 C 0.34324 0.69881 0.26087 0.0
C1263 C 0.36403 0.73414 0.29778 0.0
H1264 H 0.41302 0.7097 0.28562 0.0
C1265 C 0.43759 0.75901 0.33383 0.0
C1266 C 0.45071 0.7446 0.33884 0.0
C1267 C 0.4205 0.75408 0.32322 0.0
C1268 C 0.39937 0.71641 0.2894 0.0
H1269 H 0.31279 0.74238 0.24477 0.0
H1270 H 0.34008 0.74794 0.26769 0.0
H1271 H 0.3843 0.70249 0.26498 0.0
H1272 H 0.45602 0.71366 0.33695 0.0
H1273 H 0.4261 0.70506 0.31857 0.0
H1274 H 0.37919 0.74823 0.32207 0.0
C1275 C 0.33667 0.73322 0.26239 0.0
C1276 C 0.38291 0.71227 0.27757 0.0
C1277 C 0.32119 0.73008 0.24909 0.0
C1278 C 0.44626 0.72512 0.33323 0.0
C1279 C 0.42916 0.7202 0.32263 0.0
C1280 C 0.38049 0.73826 0.30962 0.0
C1281 C 0.34799 0.71765 0.26827 0.0
C1282 C 0.36512 0.72123 0.28152 0.0
C1283 C 0.41615 0.73465 0.3174 0.0
C1284 C 0.39839 0.72957 0.30545 0.0
H1285 H 0.32465 0.68105 0.24183 0.0
H1286 H 0.35157 0.68649 0.26529 0.0
H1287 H 0.35043 0.74104 0.30136 0.0
H1288 H 0.44059 0.77415 0.33791 0.0
H1289 H 0.4109 0.76559 0.31921 0.0
C1290 C 0.97834 0.43596 0.98083 0.0
C1291 C 0.97637 0.43282 0.00115 0.0
C1292 C 0.98148 0.42036 0.96784 0.0
C1293 C 0.97449 0.36727 0.96286 0.0
H1294 H 0.01479 0.37179 0.92277 0.0
C1295 C -0.0024 0.30101 0.91645 0.0
C1296 C 0.00155 0.30386 0.89637 0.0
C1297 C 0.99472 0.31689 0.92912 0.0
C1298 C 0.00331 0.37037 0.93371 0.0
H1299 H 0.97583 0.41095 0.02379 0.0
H1300 H 0.98134 0.3837 0.00109 0.0
H1301 H 0.0091 0.39937 0.94495 0.0
H1302 H 0.00555 0.32562 0.87382 0.0
H1303 H 0.00012 0.35332 0.89583 0.0
H1304 H 0.96848 0.3384 0.95155 0.0
C1305 C 0.98045 0.3982 0.99522 0.0
C1306 C 8e-05 0.38616 0.94642 0.0
C1307 C 0.97748 0.4138 0.00821 0.0
C1308 C 0.00263 0.32294 0.88924 0.0
C1309 C -0.00038 0.33883 0.90188 0.0
C1310 C 0.97762 0.35153 0.95007 0.0
C1311 C 0.98251 0.40132 0.97491 0.0
C1312 C 0.98571 0.38473 0.96117 0.0
C1313 C 0.99557 0.33599 0.92197 0.0
C1314 C 0.99213 0.35285 0.9354 0.0
H1315 H 0.97767 0.4505 0.97502 0.0
H1316 H 0.98287 0.42316 0.95223 0.0
H1317 H 0.96312 0.36586 0.97392 0.0
H1318 H 0.99679 0.28649 0.92244 0.0
H1319 H 0.99198 0.3142 0.94456 0.0
C1320 C 0.66648 0.77804 0.22297 0.0
C1321 C 0.67063 0.79701 0.21636 0.0
C1322 C 0.65064 0.77426 0.23552 0.0
C1323 C 0.60371 0.79323 0.25229 0.0
H1324 H 0.61244 0.76185 0.29821 0.0
C1325 C 0.54697 0.78576 0.31502 0.0
C1326 C 0.54445 0.76746 0.32379 0.0
C1327 C 0.56205 0.78921 0.30148 0.0
C1328 C 0.60965 0.7704 0.28532 0.0
H1329 H 0.66123 0.82682 0.21731 0.0
H1330 H 0.63353 0.82021 0.23933 0.0
H1331 H 0.63914 0.76801 0.27508 0.0
H1332 H 0.55559 0.73833 0.325 0.0
H1333 H 0.58163 0.74421 0.30109 0.0
H1334 H 0.57418 0.79551 0.26242 0.0
C1335 C 0.64251 0.80827 0.23475 0.0
C1336 C 0.62497 0.77396 0.2721 0.0
C1337 C 0.65844 0.81208 0.2223 0.0
C1338 C 0.55722 0.75263 0.3186 0.0
C1339 C 0.57222 0.75604 0.30497 0.0
C1340 C 0.58833 0.78957 0.26546 0.0
C1341 C 0.63857 0.78935 0.24162 0.0
C1342 C 0.62217 0.78543 0.25547 0.0
C1343 C 0.57488 0.7744 0.29632 0.0
C1344 C 0.59113 0.77814 0.28216 0.0
H1345 H 0.67573 0.76617 0.21876 0.0
H1346 H 0.64784 0.75951 0.24044 0.0
H1347 H 0.60108 0.80194 0.23948 0.0
H1348 H 0.53743 0.79752 0.31878 0.0
H1349 H 0.56385 0.80359 0.29532 0.0
C1350 C 0.04309 0.08081 -0.0001 0.0
C1351 C 0.02759 0.06896 0.00717 0.0
C1352 C 0.03943 0.0957 0.98683 0.0
C1353 C 0.00224 0.11365 0.95249 0.0
H1354 H 0.03088 0.16301 0.96076 0.0
C1355 C 0.98226 0.18451 0.91353 0.0
C1356 C -0.00206 0.19617 0.90632 0.0
C1357 C 0.98582 0.16849 0.92523 0.0
C1358 C 0.02292 0.14925 0.95812 0.0
H1359 H 0.99613 0.06313 0.00596 0.0
H1360 H 0.98968 0.08949 0.98352 0.0
H1361 H 0.03714 0.13587 0.98217 0.0
H1362 H 0.02965 0.20005 0.90559 0.0
H1363 H 0.03583 0.17209 0.926 0.0
H1364 H 0.98786 0.12724 0.92855 0.0
C1365 C 0.0047 0.08711 0.98777 0.0
C1366 C 0.02652 0.13368 0.97037 0.0
C1367 C 0.00837 0.07215 0.00081 0.0
C1368 C 0.01724 0.1914 0.91095 0.0
C1369 C 0.02079 0.17544 0.92272 0.0
C1370 C -0.00142 0.12929 0.94027 0.0
C1371 C 0.02018 0.09919 0.98079 0.0
C1372 C 0.01628 0.11568 0.96767 0.0
C1373 C 0.00512 0.16387 0.93005 0.0
C1374 C 0.00892 0.14723 0.94295 0.0
H1375 H 0.05805 0.07889 0.00465 0.0
H1376 H 0.05173 0.10454 0.9815 0.0
H1377 H 0.99428 0.09991 0.94986 0.0
H1378 H 0.96721 0.18779 0.91022 0.0
H1379 H 0.97344 0.15993 0.93082 0.0
C1380 C 0.32322 0.25547 0.2464 0.0
C1381 C 0.32056 0.27396 0.25496 0.0
C1382 C 0.33774 0.25283 0.23221 0.0
C1383 C 0.37001 0.2798 0.19736 0.0
H1384 H 0.40082 0.23355 0.19955 0.0
C1385 C 0.44285 0.2716 0.15535 0.0
C1386 C 0.4461 0.25347 0.14623 0.0
C1387 C 0.42656 0.27401 0.16747 0.0
C1388 C 0.39217 0.24642 0.1986 0.0
H1389 H 0.33107 0.30414 0.25556 0.0
H1390 H 0.35662 0.29951 0.23099 0.0
H1391 H 0.37434 0.23795 0.22309 0.0
H1392 H 0.43463 0.22373 0.14238 0.0
H1393 H 0.40619 0.22798 0.16361 0.0
H1394 H 0.38819 0.28841 0.17308 0.0
C1395 C 0.34724 0.28712 0.23491 0.0
C1396 C 0.37699 0.24894 0.21207 0.0
C1397 C 0.33265 0.28977 0.24902 0.0
C1398 C 0.43256 0.23788 0.14923 0.0
C1399 C 0.41633 0.24027 0.16146 0.0
C1400 C 0.38528 0.27732 0.18396 0.0
C1401 C 0.34998 0.26861 0.22636 0.0
C1402 C 0.36578 0.2657 0.21167 0.0
C1403 C 0.41325 0.25832 0.17081 0.0
C1404 C 0.39656 0.26065 0.1845 0.0
H1405 H 0.31392 0.24308 0.25051 0.0
H1406 H 0.33924 0.23845 0.22569 0.0
H1407 H 0.36145 0.29272 0.19644 0.0
H1408 H 0.45299 0.28391 0.15332 0.0
H1409 H 0.42466 0.28805 0.17463 0.0
C1410 C 0.50596 0.4377 0.99143 0.0
C1411 C 0.5252 0.44344 0.9861 0.0
C1412 C 0.50248 0.42148 0.00322 0.0
C1413 C 0.52538 0.37657 0.01966 0.0
H1414 H 0.48547 0.37776 0.06029 0.0
C1415 C 0.51643 0.31708 0.0782 0.0
C1416 C 0.49719 0.31016 0.08208 0.0
C1417 C 0.51977 0.33338 0.06651 0.0
C1418 C 0.49654 0.37717 0.04888 0.0
H1419 H 0.55585 0.43655 0.98888 0.0
H1420 H 0.54983 0.40865 0.00994 0.0
H1421 H 0.49155 0.40628 0.03996 0.0
H1422 H 0.46637 0.31499 0.07683 0.0
H1423 H 0.47226 0.34351 0.05644 0.0
H1424 H 0.53049 0.34752 0.02877 0.0
C1425 C 0.5374 0.4165 0.00476 0.0
C1426 C 0.50001 0.39348 0.03721 0.0
C1427 C 0.54087 0.43265 0.99291 0.0
C1428 C 0.48137 0.31996 0.07412 0.0
C1429 C 0.48472 0.33635 0.06253 0.0
C1430 C 0.52199 0.36031 0.0314 0.0
C1431 C 0.51815 0.41068 0.01001 0.0
C1432 C 0.51446 0.39336 0.02245 0.0
C1433 C 0.50396 0.34318 0.05857 0.0
C1434 C 0.50754 0.36045 0.04612 0.0
H1435 H 0.49357 0.44582 0.98661 0.0
H1436 H 0.48746 0.41728 0.00681 0.0
H1437 H 0.53638 0.37586 0.0082 0.0
H1438 H 0.52894 0.30987 0.08413 0.0
H1439 H 0.53475 0.33846 0.06387 0.0
C1440 C 0.66597 0.24096 0.26207 0.0
C1441 C 0.66668 0.22361 0.27258 0.0
C1442 C 0.6503 0.24408 0.24937 0.0
C1443 C 0.60898 0.21782 0.22301 0.0
H1444 H 0.58994 0.26998 0.21767 0.0
C1445 C 0.53636 0.23439 0.1839 0.0
C1446 C 0.53793 0.24852 0.16922 0.0
C1447 C 0.55205 0.23153 0.19663 0.0
C1448 C 0.59521 0.25537 0.21898 0.0
H1449 H 0.65156 0.19607 0.27849 0.0
H1450 H 0.6238 0.20173 0.25694 0.0
H1451 H 0.6172 0.26453 0.23997 0.0
H1452 H 0.55693 0.27104 0.15661 0.0
H1453 H 0.58424 0.26631 0.17927 0.0
H1454 H 0.58646 0.20868 0.20243 0.0
C1455 C 0.63558 0.21272 0.2579 0.0
C1456 C 0.61089 0.25222 0.23166 0.0
C1457 C 0.65142 0.20948 0.27033 0.0
C1458 C 0.55534 0.26 0.16775 0.0
C1459 C 0.57091 0.25737 0.18074 0.0
C1460 C 0.5931 0.22093 0.21061 0.0
C1461 C 0.63484 0.23003 0.24718 0.0
C1462 C 0.61804 0.2334 0.23379 0.0
C1463 C 0.56944 0.24299 0.19515 0.0
C1464 C 0.58613 0.23973 0.20845 0.0
H1465 H 0.6777 0.25199 0.26346 0.0
H1466 H 0.65048 0.25742 0.2411 0.0
H1467 H 0.6143 0.2032 0.22392 0.0
H1468 H 0.52314 0.22529 0.18534 0.0
H1469 H 0.55056 0.22043 0.20773 0.0
C1470 C 0.47726 0.06822 0.01377 0.0
C1471 C 0.47624 0.06965 0.99317 0.0
C1472 C 0.48116 0.08481 0.02554 0.0
C1473 C 0.4778 0.13781 0.02643 0.0
H1474 H 0.51627 0.13615 0.06846 0.0
C1475 C 0.50039 0.2062 0.07298 0.0
C1476 C 0.50314 0.20365 0.09328 0.0
C1477 C 0.49797 0.19006 0.06023 0.0
C1478 C 0.50532 0.13681 0.05695 0.0
H1479 H 0.47821 0.08949 0.96872 0.0
H1480 H 0.48495 0.11858 0.98936 0.0
H1481 H 0.51005 0.10749 0.04732 0.0
H1482 H 0.50551 0.18221 0.11616 0.0
H1483 H 0.50082 0.15413 0.09406 0.0
H1484 H 0.47269 0.16693 0.03627 0.0
C1485 C 0.48276 0.10461 0.99636 0.0
C1486 C 0.50181 0.1204 0.04482 0.0
C1487 C 0.47905 0.08799 0.98456 0.0
C1488 C 0.50354 0.18466 0.10057 0.0
C1489 C 0.50096 0.16855 0.08786 0.0
C1490 C 0.48118 0.15418 0.03867 0.0
C1491 C 0.48393 0.10316 0.01695 0.0
C1492 C 0.48796 0.12072 0.0295 0.0
C1493 C 0.4981 0.17104 0.06755 0.0
C1494 C 0.49493 0.15384 0.05414 0.0
H1495 H 0.47529 0.05423 0.02075 0.0
H1496 H 0.4818 0.08331 0.04139 0.0
H1497 H 0.46689 0.13837 0.01485 0.0
H1498 H 0.50013 0.22066 0.06689 0.0
H1499 H 0.49611 0.19252 0.04463 0.0
C1500 C 0.22495 0.35496 0.71239 0.0
C1501 C 0.2321 0.33716 0.70545 0.0
C1502 C 0.23782 0.37086 0.7164 0.0
C1503 C 0.2904 0.38363 0.72585 0.0
H1504 H 0.27536 0.43556 0.71205 0.0
C1505 C 0.34519 0.44972 0.72466 0.0
C1506 C 0.33899 0.46706 0.73358 0.0
C1507 C 0.33199 0.43388 0.72175 0.0
C1508 C 0.27967 0.42115 0.71614 0.0
H1509 H 0.25847 0.32208 0.69762 0.0
H1510 H 0.28075 0.34995 0.70386 0.0
H1511 H 0.25258 0.40787 0.70593 0.0
H1512 H 0.31407 0.48143 0.74635 0.0
H1513 H 0.29101 0.45377 0.74109 0.0
H1514 H 0.31767 0.39696 0.73567 0.0
C1515 C 0.26524 0.35157 0.70654 0.0
C1516 C 0.26662 0.40529 0.7127 0.0
C1517 C 0.25241 0.33565 0.70267 0.0
C1518 C 0.31931 0.46826 0.73945 0.0
C1519 C 0.30607 0.45248 0.73636 0.0
C1520 C 0.30351 0.39947 0.72912 0.0
C1521 C 0.25812 0.36937 0.71347 0.0
C1522 C 0.27184 0.38632 0.71747 0.0
C1523 C 0.3123 0.43512 0.72752 0.0
C1524 C 0.29829 0.41837 0.72426 0.0
H1525 H 0.20938 0.35669 0.71452 0.0
H1526 H 0.23184 0.38428 0.72195 0.0
H1527 H 0.29477 0.36929 0.73006 0.0
H1528 H 0.36025 0.44834 0.71998 0.0
H1529 H 0.33713 0.42072 0.71474 0.0
C1530 C 0.22865 0.68213 0.77564 0.0
C1531 C 0.22046 0.68627 0.79417 0.0
C1532 C 0.24177 0.66713 0.77338 0.0
C1533 C 0.25733 0.62196 0.79591 0.0
H1534 H 0.30497 0.63131 0.76585 0.0
C1535 C 0.31895 0.56674 0.79314 0.0
C1536 C 0.32804 0.56361 0.77484 0.0
C1537 C 0.30609 0.58193 0.79574 0.0
C1538 C 0.29163 0.62838 0.7741 0.0
H1539 H 0.21929 0.67776 0.82477 0.0
H1540 H 0.24231 0.65157 0.82083 0.0
H1541 H 0.28165 0.65716 0.76968 0.0
H1542 H 0.33081 0.574 0.74493 0.0
H1543 H 0.30814 0.60027 0.74937 0.0
H1544 H 0.26716 0.59313 0.80017 0.0
C1545 C 0.23853 0.65989 0.80806 0.0
C1546 C 0.27829 0.6432 0.7763 0.0
C1547 C 0.2255 0.67498 0.81035 0.0
C1548 C 0.32411 0.57607 0.75924 0.0
C1549 C 0.31119 0.5912 0.76182 0.0
C1550 C 0.27063 0.6071 0.79363 0.0
C1551 C 0.24688 0.65589 0.78957 0.0
C1552 C 0.26101 0.64014 0.78722 0.0
C1553 C 0.30196 0.59427 0.78008 0.0
C1554 C 0.28793 0.61014 0.78269 0.0
H1555 H 0.22516 0.69071 0.76295 0.0
H1556 H 0.24784 0.66424 0.75892 0.0
H1557 H 0.24401 0.61911 0.80421 0.0
H1558 H 0.32174 0.55745 0.80548 0.0
H1559 H 0.29947 0.58407 0.81008 0.0
C1560 C 0.91815 0.51281 0.47728 0.0
C1561 C 0.93641 0.5058 0.47155 0.0
C1562 C 0.90244 0.49989 0.48128 0.0
C1563 C 0.88396 0.44939 0.47214 0.0
H1564 H 0.85044 0.46029 0.51683 0.0
C1565 C 0.82257 0.39535 0.4978 0.0
C1566 C 0.80452 0.4034 0.50267 0.0
C1567 C 0.83912 0.40743 0.49441 0.0
C1568 C 0.85957 0.45714 0.5042 0.0
H1569 H 0.95255 0.47975 0.46553 0.0
H1570 H 0.92508 0.45712 0.47257 0.0
H1571 H 0.87851 0.48211 0.51001 0.0
H1572 H 0.78971 0.43044 0.50787 0.0
H1573 H 0.81854 0.45146 0.50185 0.0
H1574 H 0.86494 0.42442 0.46632 0.0
C1575 C 0.92286 0.47263 0.47375 0.0
C1576 C 0.87564 0.46964 0.50028 0.0
C1577 C 0.93859 0.48558 0.46972 0.0
C1578 C 0.8034 0.42377 0.5042 0.0
C1579 C 0.81995 0.43582 0.50086 0.0
C1580 C 0.86789 0.43686 0.47608 0.0
C1581 C 0.90464 0.47965 0.47965 0.0
C1582 C 0.88793 0.46599 0.48412 0.0
C1583 C 0.83798 0.42779 0.49588 0.0
C1584 C 0.85544 0.44068 0.49207 0.0
H1585 H 0.91592 0.52832 0.47846 0.0
H1586 H 0.88849 0.50577 0.48542 0.0
H1587 H 0.89301 0.44631 0.45944 0.0
H1588 H 0.82392 0.37971 0.49654 0.0
H1589 H 0.85286 0.40081 0.49081 0.0
C1590 C 0.76438 0.83556 0.79848 0.0
C1591 C 0.7681 0.82307 0.7824 0.0
C1592 C 0.75153 0.85075 0.79653 0.0
C1593 C 0.70993 0.86615 0.76722 0.0
H1594 H 0.72391 0.9175 0.78882 0.0
C1595 C 0.66325 0.93302 0.75353 0.0
C1596 C 0.66123 0.94646 0.76921 0.0
C1597 C 0.67616 0.91781 0.75503 0.0
C1598 C 0.71966 0.90318 0.78294 0.0
H1599 H 0.76132 0.8166 0.75169 0.0
H1600 H 0.73883 0.84326 0.74825 0.0
H1601 H 0.74694 0.89138 0.79148 0.0
H1602 H 0.67082 0.95421 0.79893 0.0
H1603 H 0.69302 0.92744 0.80171 0.0
H1604 H 0.68255 0.87784 0.75891 0.0
C1605 C 0.74582 0.84123 0.76237 0.0
C1606 C 0.73289 0.88825 0.78441 0.0
C1607 C 0.7588 0.82611 0.76428 0.0
C1608 C 0.67214 0.94417 0.78653 0.0
C1609 C 0.68496 0.9289 0.78808 0.0
C1610 C 0.69664 0.88106 0.76585 0.0
C1611 C 0.74205 0.85368 0.77848 0.0
C1612 C 0.72814 0.86959 0.77659 0.0
C1613 C 0.68725 0.91563 0.77228 0.0
C1614 C 0.70134 0.89975 0.77372 0.0
H1615 H 0.77148 0.83363 0.81257 0.0
H1616 H 0.74878 0.86003 0.80924 0.0
H1617 H 0.7058 0.85183 0.76129 0.0
H1618 H 0.6551 0.93443 0.73994 0.0
H1619 H 0.67774 0.908 0.7425 0.0
C1620 C 0.57822 0.50917 0.95382 0.0
C1621 C 0.56575 0.50305 0.96917 0.0
C1622 C 0.59504 0.5208 0.95789 0.0
C1623 C 0.6298 0.53337 -0.00195 0.0
H1624 H 0.64604 0.57604 0.96442 0.0
C1625 C 0.69533 0.58588 0.0175 0.0
C1626 C 0.7079 0.59135 0.00201 0.0
C1627 C 0.6777 0.57549 0.01361 0.0
C1628 C 0.6418 0.56404 0.97384 0.0
H1629 H 0.56071 0.50498 0.00068 0.0
H1630 H 0.59007 0.52528 0.00778 0.0
H1631 H 0.61548 0.55761 0.95735 0.0
H1632 H 0.7119 0.59006 0.97028 0.0
H1633 H 0.68129 0.57172 0.96355 0.0
H1634 H 0.65616 0.53968 0.01445 0.0
C1635 C 0.58703 0.52079 0.99266 0.0
C1636 C 0.6243 0.5535 0.96979 0.0
C1637 C 0.57022 0.50919 0.98859 0.0
C1638 C 0.70252 0.58612 0.98256 0.0
C1639 C 0.68491 0.57572 0.97868 0.0
C1640 C 0.64731 0.54389 0.00208 0.0
C1641 C 0.59974 0.52655 0.97738 0.0
C1642 C 0.61812 0.53803 0.98184 0.0
C1643 C 0.67228 0.57033 0.99415 0.0
C1644 C 0.65354 0.55931 0.98999 0.0
H1645 H 0.5753 0.50448 0.93874 0.0
H1646 H 0.60466 0.52482 0.94583 0.0
H1647 H 0.62561 0.52132 0.00742 0.0
H1648 H 0.69901 0.58975 0.03265 0.0
H1649 H 0.66819 0.57174 0.02584 0.0
C1650 C 0.23889 0.67322 0.21031 0.0
C1651 C 0.25889 0.67168 0.21486 0.0
C1652 C 0.22599 0.657 0.21145 0.0
C1653 C 0.22491 0.603 0.21309 0.0
H1654 H 0.17265 0.60948 0.23408 0.0
C1655 C 0.17408 0.53848 0.23645 0.0
C1656 C 0.15435 0.53882 0.23051 0.0
C1657 C 0.18673 0.55465 0.23367 0.0
C1658 C 0.18714 0.6075 0.22801 0.0
H1659 H 0.28101 0.65177 0.22395 0.0
H1660 H 0.25841 0.62372 0.22666 0.0
H1661 H 0.19497 0.63784 0.23106 0.0
H1662 H 0.13241 0.55638 0.21696 0.0
H1663 H 0.15453 0.58469 0.21226 0.0
H1664 H 0.21713 0.57256 0.21047 0.0
C1665 C 0.25274 0.63737 0.22186 0.0
C1666 C 0.19992 0.62374 0.22622 0.0
C1667 C 0.26566 0.65354 0.22059 0.0
C1668 C 0.14754 0.55566 0.2217 0.0
C1669 C 0.16015 0.5719 0.21909 0.0
C1670 C 0.21218 0.58676 0.21503 0.0
C1671 C 0.23274 0.63889 0.21729 0.0
C1672 C 0.21899 0.62168 0.2188 0.0
C1673 C 0.17986 0.57155 0.22506 0.0
C1674 C 0.1932 0.58884 0.22256 0.0
H1675 H 0.23314 0.68701 0.20605 0.0
H1676 H 0.21073 0.65865 0.2076 0.0
H1677 H 0.23936 0.60093 0.20697 0.0
H1678 H 0.17979 0.52572 0.24326 0.0
H1679 H 0.20182 0.55406 0.23857 0.0
C1680 C 0.92754 0.49867 0.03497 0.0
C1681 C 0.94008 0.49247 0.01986 0.0
C1682 C 0.91265 0.51144 0.031 0.0
C1683 C 0.8819 0.52817 0.99074 0.0
H1684 H 0.87113 0.57057 0.02722 0.0
C1685 C 0.82382 0.58483 0.97448 0.0
C1686 C 0.81185 0.59043 0.99028 0.0
C1687 C 0.84008 0.57352 0.97772 0.0
C1688 C 0.87383 0.55868 0.01698 0.0
H1689 H 0.94706 0.49518 0.98882 0.0
H1690 H 0.9209 0.51739 0.98188 0.0
H1691 H 0.89857 0.54977 0.03355 0.0
H1692 H 0.80751 0.58849 0.02187 0.0
H1693 H 0.83566 0.56852 0.02747 0.0
H1694 H 0.85701 0.53686 0.97431 0.0
C1695 C 0.92251 0.51218 -0.00326 0.0
C1696 C 0.88956 0.5468 0.0206 0.0
C1697 C 0.93746 0.49945 0.00072 0.0
C1698 C 0.81647 0.58448 0.00938 0.0
C1699 C 0.83269 0.57314 0.01262 0.0
C1700 C 0.86613 0.54001 0.98715 0.0
C1701 C 0.90991 0.51825 0.01183 0.0
C1702 C 0.89369 0.53134 0.00758 0.0
C1703 C 0.84469 0.56753 -0.00317 0.0
C1704 C 0.86183 0.55532 0.0003 0.0
H1705 H 0.92893 0.49331 0.0498 0.0
H1706 H 0.90298 0.51563 0.04288 0.0
H1707 H 0.88457 0.51621 0.98058 0.0
H1708 H 0.82071 0.58924 0.95959 0.0
H1709 H 0.84917 0.56964 0.96528 0.0
C1710 C 0.07017 -0.00226 0.03783 0.0
C1711 C 0.07062 0.01751 0.03279 0.0
C1712 C 0.08701 0.98687 0.03608 0.0
C1713 C 0.13439 0.98571 0.01037 0.0
H1714 H 0.14824 0.95057 0.05181 0.0
C1715 C 0.20792 0.9469 0.01045 0.0
C1716 C 0.20742 0.92728 0.01602 0.0
C1717 C 0.19142 0.95814 0.0129 0.0
C1718 C 0.14446 0.96015 0.04001 0.0
H1719 H 0.08921 0.04146 0.02233 0.0
H1720 H 0.11854 0.02243 0.01911 0.0
H1721 H 0.11893 0.96962 0.0552 0.0
H1722 H 0.18921 0.9041 0.02859 0.0
H1723 H 0.16038 0.92362 0.03259 0.0
H1724 H 0.15978 0.97614 0.99507 0.0
C1725 C 0.10509 0.01529 0.02418 0.0
C1726 C 0.12768 0.97107 0.04196 0.0
C1727 C 0.08829 0.02618 0.026 0.0
C1728 C 0.19011 0.91919 0.02421 0.0
C1729 C 0.1736 0.93042 0.02661 0.0
C1730 C 0.15113 0.97474 0.00838 0.0
C1731 C 0.10463 0.99552 0.02919 0.0
C1732 C 0.12247 0.98396 0.02716 0.0
C1733 C 0.17404 0.95001 0.02093 0.0
C1734 C 0.15636 0.96183 0.02317 0.0
H1735 H 0.05672 0.99056 0.04285 0.0
H1736 H 0.08615 0.97159 0.03981 0.0
H1737 H 0.13059 0.99532 -0.00141 0.0
H1738 H 0.22106 0.9536 0.00418 0.0
H1739 H 0.19234 0.97327 0.00864 0.0
loop_
_geom_bond_atom_site_label_1
_geom_bond_atom_site_label_2
_geom_bond_distance
_geom_bond_site_symmetry_2
_ccdc_geom_bond_type
H0 C3 0.931 . S
H1 C6 0.928 . S
H2 C8 0.930 . S
C3 H0 0.931 . S
C3 C4 1.413 . S
C3 C5 1.360 . S
C4 C3 1.413 . S
C4 C8 1.429 . S
C5 C3 1.360 . S
C5 C6 1.372 . S
C6 H1 0.928 . S
C6 C5 1.372 . S
C6 C7 1.404 . S
C7 C6 1.404 . S
C7 C8 1.391 . S
C8 H2 0.930 . S
C8 C4 1.429 . S
C8 C7 1.391 . S
H9 C12 0.931 . S
H10 C15 0.928 . S
H11 C17 0.930 . S
C12 H9 0.931 . S
C12 C13 1.413 . S
C12 C14 1.360 . S
C13 C12 1.413 . S
C13 C17 1.429 . S
C14 C12 1.360 . S
C14 C15 1.372 . S
C15 H10 0.928 . S
C15 C14 1.372 . S
C15 C16 1.404 . S
C16 C15 1.404 . S
C16 C17 1.391 . S
C17 H11 0.930 . S
C17 C13 1.429 . S
C17 C16 1.391 . S
H18 C21 0.931 . S
H19 C24 0.928 . S
H20 C26 0.930 . S
C21 H18 0.931 . S
C21 C22 1.413 . S
C21 C23 1.360 . S
C22 C21 1.413 . S
C22 C26 1.429 . S
C23 C21 1.360 . S
C23 C24 1.372 . S
C24 H19 0.928 . S
C24 C23 1.372 . S
C24 C25 1.404 . S
C25 C24 1.404 . S
C25 C26 1.391 . S
C26 H20 0.930 . S
C26 C22 1.429 . S
C26 C25 1.391 . S
H27 C30 0.931 . S
H28 C33 0.928 . S
H29 C35 0.930 . S
C30 H27 0.931 . S
C30 C31 1.413 . S
C30 C32 1.360 . S
C31 C30 1.413 . S
C31 C35 1.429 . S
C32 C30 1.360 . S
C32 C33 1.372 . S
C33 H28 0.928 . S
C33 C32 1.372 . S
C33 C34 1.404 . S
C34 C33 1.404 . S
C34 C35 1.391 . S
C35 H29 0.930 . S
C35 C31 1.429 . S
C35 C34 1.391 . S
H36 C39 0.931 . S
H37 C42 0.928 . S
H38 C44 0.930 . S
C39 H36 0.931 . S
C39 C40 1.413 . S
C39 C41 1.360 . S
C40 C39 1.413 . S
C40 C44 1.429 . S
C41 C39 1.360 . S
C41 C42 1.372 . S
C42 H37 0.928 . S
C42 C41 1.372 . S
C42 C43 1.404 . S
C43 C42 1.404 . S
C43 C44 1.391 . S
C44 H38 0.930 . S
C44 C40 1.429 . S
C44 C43 1.391 . S
H45 C48 0.931 . S
H46 C51 0.928 . S
H47 C53 0.930 . S
C48 H45 0.931 . S
C48 C49 1.413 . S
C48 C50 1.360 . S
C49 C48 1.413 . S
C49 C53 1.429 . S
C50 C48 1.360 . S
C50 C51 1.372 . S
C51 H46 0.928 . S
C51 C50 1.372 . S
C51 C52 1.404 . S
C52 C51 1.404 . S
C52 C53 1.391 . S
C53 H47 0.930 . S
C53 C49 1.429 . S
C53 C52 1.391 . S
H54 C57 0.931 . S
H55 C60 0.928 . S
H56 C62 0.930 . S
C57 H54 0.931 . S
C57 C58 1.413 . S
C57 C59 1.360 . S
C58 C57 1.413 . S
C58 C62 1.429 . S
C59 C57 1.360 . S
C59 C60 1.372 . S
C60 H55 0.928 . S
C60 C59 1.372 . S
C60 C61 1.404 . S
C61 C60 1.404 . S
C61 C62 1.391 . S
C62 H56 0.930 . S
C62 C58 1.429 . S
C62 C61 1.391 . S
H63 C66 0.931 . S
H64 C69 0.928 . S
H65 C71 0.930 . S
C66 H63 0.931 . S
C66 C67 1.413 . S
C66 C68 1.360 . S
C67 C66 1.413 . S
C67 C71 1.429 . S
C68 C66 1.360 . S
C68 C69 1.372 . S
C69 H64 0.928 . S
C69 C68 1.372 . S
C69 C70 1.404 . S
C70 C69 1.404 . S
C70 C71 1.391 . S
C71 H65 0.930 . S
C71 C67 1.429 . S
C71 C70 1.391 . S
H72 C75 0.931 . S
H73 C78 0.928 . S
H74 C80 0.930 . S
C75 H72 0.931 . S
C75 C76 1.413 . S
C75 C77 1.360 . S
C76 C75 1.413 . S
C76 C80 1.429 . S
C77 C75 1.360 . S
C77 C78 1.372 . S
C78 H73 0.928 . S
C78 C77 1.372 . S
C78 C79 1.404 . S
C79 C78 1.404 . S
C79 C80 1.391 . S
C80 H74 0.930 . S
C80 C76 1.429 . S
C80 C79 1.391 . S
H81 C84 0.931 . S
H82 C87 0.928 . S
H83 C89 0.930 . S
C84 H81 0.931 . S
C84 C85 1.413 . S
C84 C86 1.360 . S
C85 C84 1.413 . S
C85 C89 1.429 . S
C86 C84 1.360 . S
C86 C87 1.372 . S
C87 H82 0.928 . S
C87 C86 1.372 . S
C87 C88 1.404 . S
C88 C87 1.404 . S
C88 C89 1.391 . S
C89 H83 0.930 . S
C89 C85 1.429 . S
C89 C88 1.391 . S
H90 C93 0.931 . S
H91 C96 0.928 . S
H92 C98 0.930 . S
C93 H90 0.931 . S
C93 C94 1.413 . S
C93 C95 1.360 . S
C94 C93 1.413 . S
C94 C98 1.429 . S
C95 C93 1.360 . S
C95 C96 1.372 . S
C96 H91 0.928 . S
C96 C95 1.372 . S
C96 C97 1.404 . S
C97 C96 1.404 . S
C97 C98 1.391 . S
C98 H92 0.930 . S
C98 C94 1.429 . S
C98 C97 1.391 . S
H99 C102 0.931 . S
H100 C105 0.928 . S
H101 C107 0.930 . S
C102 H99 0.931 . S
C102 C103 1.413 . S
C102 C104 1.360 . S
C103 C102 1.413 . S
C103 C107 1.429 . S
C104 C102 1.360 . S
C104 C105 1.372 . S
C105 H100 0.928 . S
C105 C104 1.372 . S
C105 C106 1.404 . S
C106 C105 1.404 . S
C106 C107 1.391 . S
C107 H101 0.930 . S
C107 C103 1.429 . S
C107 C106 1.391 . S
H108 C111 0.931 . S
H109 C114 0.928 . S
H110 C116 0.930 . S
C111 H108 0.931 . S
C111 C112 1.413 . S
C111 C113 1.360 . S
C112 C111 1.413 . S
C112 C116 1.429 . S
C113 C111 1.360 . S
C113 C114 1.372 . S
C114 H109 0.928 . S
C114 C113 1.372 . S
C114 C115 1.404 . S
C115 C114 1.404 . S
C115 C116 1.391 . S
C116 H110 0.930 . S
C116 C112 1.429 . S
C116 C115 1.391 . S
H117 C120 0.931 . S
H118 C123 0.928 . S
H119 C125 0.930 . S
C120 H117 0.931 . S
C120 C121 1.413 . S
C120 C122 1.360 . S
C121 C120 1.413 . S
C121 C125 1.429 . S
C122 C120 1.360 . S
C122 C123 1.372 . S
C123 H118 0.928 . S
C123 C122 1.372 . S
C123 C124 1.404 . S
C124 C123 1.404 . S
C124 C125 1.391 . S
C125 H119 0.930 . S
C125 C121 1.429 . S
C125 C124 1.391 . S
H126 C129 0.931 . S
H127 C132 0.928 . S
H128 C134 0.930 . S
C129 H126 0.931 . S
C129 C130 1.413 . S
C129 C131 1.360 . S
C130 C129 1.413 . S
C130 C134 1.429 . S
C131 C129 1.360 . S
C131 C132 1.372 . S
C132 H127 0.928 . S
C132 C131 1.372 . S
C132 C133 1.404 . S
C133 C132 1.404 . S
C133 C134 1.391 . S
C134 H128 0.930 . S
C134 C130 1.429 . S
C134 C133 1.391 . S
H135 C138 0.931 . S
H136 C141 0.928 . S
H137 C143 0.930 . S
C138 H135 0.931 . S
C138 C139 1.413 . S
C138 C140 1.360 . S
C139 C138 1.413 . S
C139 C143 1.429 . S
C140 C138 1.360 . S
C140 C141 1.372 . S
C141 H136 0.928 . S
C141 C140 1.372 . S
C141 C142 1.404 . S
C142 C141 1.404 . S
C142 C143 1.391 . S
C143 H137 0.930 . S
C143 C139 1.429 . S
C143 C142 1.391 . S
C144 O145 1.160 1_554 S
C144 O151 1.185 . S
O145 C144 1.160 1_556 S
O146 Zn147 1.899 1_556 S
O146 C154 1.284 . S
Zn147 O146 1.899 1_554 S
Zn147 O148 2.032 . S
Zn147 O151 2.086 . S
Zn147 O156 1.977 . S
O148 Zn147 2.032 . S
O148 C152 1.278 . S
C149 O150 1.203 . S
C149 O156 1.267 . S
O150 C149 1.203 . S
O151 C144 1.185 . S
O151 Zn147 2.086 . S
C152 O148 1.278 . S
C152 O153 1.211 . S
O153 C152 1.211 . S
C154 O146 1.284 . S
C154 O155 1.273 . S
O155 C154 1.273 . S
O156 Zn147 1.977 . S
O156 C149 1.267 . S
C157 O158 1.160 . S
C157 O164 1.185 . S
O158 C157 1.160 . S
O159 Zn160 1.899 . S
O159 C167 1.284 . S
Zn160 O159 1.899 . S
Zn160 O161 2.032 . S
Zn160 O164 2.086 . S
Zn160 O169 1.977 . S
O161 Zn160 2.032 . S
O161 C165 1.278 . S
C162 O163 1.203 . S
C162 O169 1.267 . S
O163 C162 1.203 . S
O164 C157 1.185 . S
O164 Zn160 2.086 . S
C165 O161 1.278 . S
C165 O166 1.211 . S
O166 C165 1.211 . S
C167 O159 1.284 . S
C167 O168 1.273 . S
O168 C167 1.273 . S
O169 Zn160 1.977 . S
O169 C162 1.267 . S
C170 O171 1.160 1_554 S
C170 O177 1.185 . S
O171 C170 1.160 1_556 S
O172 Zn173 1.899 1_556 S
O172 C180 1.284 . S
Zn173 O172 1.899 1_554 S
Zn173 O174 2.032 1_554 S
Zn173 O177 2.086 . S
Zn173 O182 1.977 . S
O174 Zn173 2.032 1_556 S
O174 C178 1.278 . S
C175 O176 1.203 . S
C175 O182 1.267 . S
O176 C175 1.203 . S
O177 C170 1.185 . S
O177 Zn173 2.086 . S
C178 O174 1.278 . S
C178 O179 1.211 1_556 S
O179 C178 1.211 1_554 S
C180 O172 1.284 . S
C180 O181 1.273 . S
O181 C180 1.273 . S
O182 Zn173 1.977 . S
O182 C175 1.267 . S
C183 O184 1.160 . S
C183 O190 1.185 . S
O184 C183 1.160 . S
O185 Zn186 1.899 . S
O185 C193 1.284 . S
Zn186 O185 1.899 . S
Zn186 O187 2.027 1_545 S
Zn186 O190 2.086 . S
Zn186 O195 1.977 . S
O187 Zn186 2.027 1_565 S
O187 C191 1.284 . S
C188 O189 1.203 . S
C188 O195 1.267 . S
O189 C188 1.203 . S
O190 C183 1.185 . S
O190 Zn186 2.086 . S
C191 O187 1.284 . S
C191 O192 1.211 . S
O192 C191 1.211 . S
C193 O185 1.284 . S
C193 O194 1.273 1_545 S
O194 C193 1.273 1_565 S
O195 Zn186 1.977 . S
O195 C188 1.267 . S
C196 O197 1.160 . S
C196 O203 1.185 . S
O197 C196 1.160 . S
O198 Zn199 1.899 . S
O198 C206 1.284 . S
Zn199 O198 1.899 . S
Zn199 O200 2.032 . S
Zn199 O203 2.086 . S
Zn199 O208 1.977 . S
O200 Zn199 2.032 . S
O200 C204 1.278 . S
C201 O202 1.203 . S
C201 O208 1.267 . S
O202 C201 1.203 . S
O203 C196 1.185 . S
O203 Zn199 2.086 . S
C204 O200 1.278 . S
C204 O205 1.211 . S
O205 C204 1.211 . S
C206 O198 1.284 . S
C206 O207 1.273 . S
O207 C206 1.273 . S
O208 Zn199 1.977 . S
O208 C201 1.267 . S
C209 O210 1.160 . S
C209 O216 1.185 . S
O210 C209 1.160 . S
O211 Zn212 1.899 . S
O211 C219 1.284 . S
Zn212 O211 1.899 . S
Zn212 O213 2.032 . S
Zn212 O216 2.086 . S
Zn212 O221 1.977 . S
O213 Zn212 2.032 . S
O213 C217 1.278 . S
C214 O215 1.203 . S
C214 O221 1.267 . S
O215 C214 1.203 . S
O216 C209 1.185 . S
O216 Zn212 2.086 . S
C217 O213 1.278 . S
C217 O218 1.211 . S
O218 C217 1.211 . S
C219 O211 1.284 . S
C219 O220 1.273 . S
O220 C219 1.273 . S
O221 Zn212 1.977 . S
O221 C214 1.267 . S
C222 O223 1.160 . S
C222 O229 1.185 . S
O223 C222 1.160 . S
O224 Zn225 1.899 . S
O224 C232 1.284 . S
Zn225 O224 1.899 . S
Zn225 O226 2.032 . S
Zn225 O229 2.086 . S
Zn225 O234 1.977 . S
O226 Zn225 2.032 . S
O226 C230 1.278 . S
C227 O228 1.203 . S
C227 O234 1.267 . S
O228 C227 1.203 . S
O229 C222 1.185 . S
O229 Zn225 2.086 . S
C230 O226 1.278 . S
C230 O231 1.211 . S
O231 C230 1.211 . S
C232 O224 1.284 . S
C232 O233 1.273 . S
O233 C232 1.273 . S
O234 Zn225 1.977 . S
O234 C227 1.267 . S
C235 O236 1.160 . S
C235 O242 1.185 . S
O236 C235 1.160 . S
O237 Zn238 1.899 . S
O237 C245 1.284 1_565 S
Zn238 O237 1.899 . S
Zn238 O239 2.032 1_565 S
Zn238 O242 2.086 . S
Zn238 O247 1.977 . S
O239 Zn238 2.032 1_545 S
O239 C243 1.278 . S
C240 O241 1.203 1_565 S
C240 O247 1.267 . S
O241 C240 1.203 1_545 S
O242 C235 1.185 . S
O242 Zn238 2.086 . S
C243 O239 1.278 . S
C243 O244 1.211 . S
O244 C243 1.211 . S
C245 O237 1.284 1_545 S
C245 O246 1.273 . S
O246 C245 1.273 . S
O247 Zn238 1.977 . S
O247 C240 1.267 . S
C248 O249 1.160 1_455 S
C248 O255 1.185 . S
O249 C248 1.160 1_655 S
O250 Zn251 1.899 1_655 S
O250 C258 1.284 . S
Zn251 O250 1.899 1_455 S
Zn251 O252 2.032 1_455 S
Zn251 O255 2.086 . S
Zn251 O260 1.977 . S
O252 Zn251 2.032 1_655 S
O252 C256 1.276 1_655 S
C253 O254 1.203 . S
C253 O260 1.267 . S
O254 C253 1.203 . S
O255 C248 1.185 . S
O255 Zn251 2.086 . S
C256 O252 1.276 1_455 S
C256 O257 1.221 . S
O257 C256 1.221 . S
C258 O250 1.284 . S
C258 O259 1.273 . S
O259 C258 1.273 . S
O260 Zn251 1.977 . S
O260 C253 1.267 . S
C261 O262 1.160 . S
C261 O268 1.185 . S
O262 C261 1.160 . S
O263 Zn264 1.899 . S
O263 C271 1.284 . S
Zn264 O263 1.899 . S
Zn264 O265 2.032 . S
Zn264 O268 2.086 . S
Zn264 O273 1.977 . S
O265 Zn264 2.032 . S
O265 C269 1.278 . S
C266 O267 1.203 . S
C266 O273 1.267 . S
O267 C266 1.203 . S
O268 C261 1.185 . S
O268 Zn264 2.086 . S
C269 O265 1.278 . S
C269 O270 1.211 . S
O270 C269 1.211 . S
C271 O263 1.284 . S
C271 O272 1.273 . S
O272 C271 1.273 . S
O273 Zn264 1.977 . S
O273 C266 1.267 . S
C274 O275 1.160 1_455 S
C274 O281 1.185 . S
O275 C274 1.160 1_655 S
O276 Zn277 1.899 1_655 S
O276 C284 1.284 . S
Zn277 O276 1.899 1_455 S
Zn277 O278 2.032 1_455 S
Zn277 O281 2.086 . S
Zn277 O286 1.977 . S
O278 Zn277 2.032 1_655 S
O278 C282 1.278 . S
C279 O280 1.203 . S
C279 O286 1.267 . S
O280 C279 1.203 . S
O281 C274 1.185 . S
O281 Zn277 2.086 . S
C282 O278 1.278 . S
C282 O283 1.209 1_655 S
O283 C282 1.209 1_455 S
C284 O276 1.284 . S
C284 O285 1.273 . S
O285 C284 1.273 . S
O286 Zn277 1.977 . S
O286 C279 1.267 . S
C287 O288 1.160 . S
C287 O294 1.185 . S
O288 C287 1.160 . S
O289 Zn290 1.899 . S
O289 C297 1.284 . S
Zn290 O289 1.899 . S
Zn290 O291 2.032 . S
Zn290 O294 2.086 . S
Zn290 O299 1.977 . S
O291 Zn290 2.032 . S
O291 C295 1.278 . S
C292 O293 1.203 . S
C292 O299 1.267 . S
O293 C292 1.203 . S
O294 C287 1.185 . S
O294 Zn290 2.086 . S
C295 O291 1.278 . S
C295 O296 1.211 . S
O296 C295 1.211 . S
C297 O289 1.284 . S
C297 O298 1.273 . S
O298 C297 1.273 . S
O299 Zn290 1.977 . S
O299 C292 1.267 . S
C300 C301 1.349 . S
C300 C302 1.327 . S
C300 H325 0.950 . S
C301 C300 1.349 . S
C301 C317 1.349 . S
C302 C300 1.327 . S
C302 C321 1.429 . S
C302 H326 0.950 . S
C303 C320 1.574 . S
C303 C322 1.368 . S
C303 H327 0.949 . S
H304 C308 0.949 . S
C305 C306 1.349 . S
C305 C307 1.327 . S
C305 H328 0.950 . S
C306 C305 1.349 . S
C306 C318 1.349 . S
C307 C305 1.327 . S
C307 C323 1.429 . S
C307 H329 0.950 . S
C308 H304 0.949 . S
C308 C316 1.574 . S
C308 C324 1.368 . S
H309 C317 0.950 . S
H310 C315 0.950 . S
H311 C316 0.949 . S
H312 C318 0.950 . S
H313 C319 0.950 . S
H314 C320 0.949 . S
C315 H310 0.950 . S
C315 C317 1.327 . S
C315 C321 1.429 . S
C316 C308 1.574 . S
C316 H311 0.949 . S
C316 C322 1.368 . S
C317 C301 1.349 . S
C317 H309 0.950 . S
C317 C315 1.327 . S
C318 C306 1.349 . S
C318 H312 0.950 . S
C318 C319 1.327 . S
C319 H313 0.950 . S
C319 C318 1.327 . S
C319 C323 1.429 . S
C320 C303 1.574 . S
C320 H314 0.949 . S
C320 C324 1.368 . S
C321 C302 1.429 . S
C321 C315 1.429 . S
C321 C322 1.523 . S
C322 C303 1.368 . S
C322 C316 1.368 . S
C322 C321 1.523 . S
C323 C307 1.429 . S
C323 C319 1.429 . S
C323 C324 1.523 . S
C324 C308 1.368 . S
C324 C320 1.368 . S
C324 C323 1.523 . S
H325 C300 0.950 . S
H326 C302 0.950 . S
H327 C303 0.949 . S
H328 C305 0.950 . S
H329 C307 0.950 . S
C330 C331 1.349 1_455 S
C330 C332 1.327 . S
C330 H355 0.950 . S
C331 C330 1.349 1_655 S
C331 C347 1.349 . S
C332 C330 1.327 . S
C332 C351 1.429 . S
C332 H356 0.950 . S
C333 C350 1.574 . S
C333 C352 1.368 . S
C333 H357 0.949 . S
H334 C338 0.949 . S
C335 C336 1.349 . S
C335 C337 1.327 . S
C335 H358 0.950 . S
C336 C335 1.349 . S
C336 C348 1.349 . S
C337 C335 1.327 . S
C337 C353 1.429 . S
C337 H359 0.950 . S
C338 H334 0.949 . S
C338 C346 1.574 . S
C338 C354 1.368 . S
H339 C347 0.950 . S
H340 C345 0.945 1_655 S
H341 C346 0.949 . S
H342 C348 0.950 . S
H343 C349 0.950 . S
H344 C350 0.949 . S
C345 H340 0.945 1_455 S
C345 C347 1.303 1_455 S
C345 C351 1.459 . S
C346 C338 1.574 . S
C346 H341 0.949 . S
C346 C352 1.368 . S
C347 C331 1.349 . S
C347 H339 0.950 . S
C347 C345 1.303 1_655 S
C348 C336 1.349 . S
C348 H342 0.950 . S
C348 C349 1.327 . S
C349 H343 0.950 . S
C349 C348 1.327 . S
C349 C353 1.429 . S
C350 C333 1.574 . S
C350 H344 0.949 . S
C350 C354 1.368 . S
C351 C332 1.429 . S
C351 C345 1.459 . S
C351 C352 1.523 . S
C352 C333 1.368 . S
C352 C346 1.368 . S
C352 C351 1.523 . S
C353 C337 1.429 . S
C353 C349 1.429 . S
C353 C354 1.523 . S
C354 C338 1.368 . S
C354 C350 1.368 . S
C354 C353 1.523 . S
H355 C330 0.950 . S
H356 C332 0.950 . S
H357 C333 0.949 . S
H358 C335 0.950 . S
H359 C337 0.950 . S
C360 C361 1.349 . S
C360 C362 1.327 . S
C360 H385 0.950 . S
C361 C360 1.349 . S
C361 C377 1.349 . S
C362 C360 1.327 . S
C362 C381 1.429 . S
C362 H386 0.950 . S
C363 C380 1.574 . S
C363 C382 1.368 . S
C363 H387 0.949 . S
H364 C368 0.949 . S
C365 C366 1.349 . S
C365 C367 1.327 . S
C365 H388 0.950 . S
C366 C365 1.349 . S
C366 C378 1.349 . S
C367 C365 1.327 . S
C367 C383 1.429 . S
C367 H389 0.950 . S
C368 H364 0.949 . S
C368 C376 1.574 . S
C368 C384 1.368 . S
H369 C377 0.950 . S
H370 C375 0.950 . S
H371 C376 0.949 . S
H372 C378 0.950 . S
H373 C379 0.950 . S
H374 C380 0.949 . S
C375 H370 0.950 . S
C375 C377 1.327 . S
C375 C381 1.429 . S
C376 C368 1.574 . S
C376 H371 0.949 . S
C376 C382 1.368 . S
C377 C361 1.349 . S
C377 H369 0.950 . S
C377 C375 1.327 . S
C378 C366 1.349 . S
C378 H372 0.950 . S
C378 C379 1.327 . S
C379 H373 0.950 . S
C379 C378 1.327 . S
C379 C383 1.429 . S
C380 C363 1.574 . S
C380 H374 0.949 . S
C380 C384 1.368 . S
C381 C362 1.429 . S
C381 C375 1.429 . S
C381 C382 1.523 . S
C382 C363 1.368 . S
C382 C376 1.368 . S
C382 C381 1.523 . S
C383 C367 1.429 . S
C383 C379 1.429 . S
C383 C384 1.523 . S
C384 C368 1.368 . S
C384 C380 1.368 . S
C384 C383 1.523 . S
H385 C360 0.950 . S
H386 C362 0.950 . S
H387 C363 0.949 . S
H388 C365 0.950 . S
H389 C367 0.950 . S
C390 C391 1.349 . S
C390 C392 1.311 1_455 S
C390 H415 0.950 . S
C391 C390 1.349 . S
C391 C407 1.349 . S
C392 C390 1.311 1_655 S
C392 C411 1.445 . S
C392 H416 0.951 . S
C393 C410 1.574 . S
C393 C412 1.368 1_545 S
C393 H417 0.949 . S
H394 C398 0.949 . S
C395 C396 1.349 . S
C395 C397 1.327 . S
C395 H418 0.950 . S
C396 C395 1.349 . S
C396 C408 1.349 1_545 S
C397 C395 1.327 . S
C397 C413 1.429 1_545 S
C397 H419 0.950 . S
C398 H394 0.949 . S
C398 C406 1.574 . S
C398 C414 1.368 . S
H399 C407 0.950 1_545 S
H400 C405 0.928 1_545 S
H401 C406 0.949 . S
H402 C408 0.950 . S
H403 C409 0.950 . S
H404 C410 0.949 . S
C405 H400 0.928 1_565 S
C405 C407 1.333 1_655 S
C405 C411 1.445 . S
C406 C398 1.574 . S
C406 H401 0.949 . S
C406 C412 1.368 . S
C407 C391 1.349 . S
C407 H399 0.950 1_565 S
C407 C405 1.333 1_455 S
C408 C396 1.349 1_565 S
C408 H402 0.950 . S
C408 C409 1.327 . S
C409 H403 0.950 . S
C409 C408 1.327 . S
C409 C413 1.429 . S
C410 C393 1.574 . S
C410 H404 0.949 . S
C410 C414 1.368 1_545 S
C411 C392 1.445 . S
C411 C405 1.445 . S
C411 C412 1.523 . S
C412 C393 1.368 1_565 S
C412 C406 1.368 . S
C412 C411 1.523 . S
C413 C397 1.429 1_565 S
C413 C409 1.429 . S
C413 C414 1.523 . S
C414 C398 1.368 . S
C414 C410 1.368 1_565 S
C414 C413 1.523 . S
H415 C390 0.950 . S
H416 C392 0.951 . S
H417 C393 0.949 . S
H418 C395 0.950 . S
H419 C397 0.950 . S
C420 C421 1.349 . S
C420 C422 1.327 . S
C420 H445 0.950 . S
C421 C420 1.349 . S
C421 C437 1.349 . S
C422 C420 1.327 . S
C422 C441 1.429 . S
C422 H446 0.950 . S
C423 C440 1.574 . S
C423 C442 1.368 . S
C423 H447 0.949 . S
H424 C428 0.949 . S
C425 C426 1.349 . S
C425 C427 1.327 . S
C425 H448 0.950 . S
C426 C425 1.349 . S
C426 C438 1.349 . S
C427 C425 1.327 . S
C427 C443 1.429 . S
C427 H449 0.950 . S
C428 H424 0.949 . S
C428 C436 1.574 . S
C428 C444 1.368 . S
H429 C437 0.950 . S
H430 C435 0.950 . S
H431 C436 0.949 . S
H432 C438 0.950 . S
H433 C439 0.950 . S
H434 C440 0.949 . S
C435 H430 0.950 . S
C435 C437 1.327 . S
C435 C441 1.429 . S
C436 C428 1.574 . S
C436 H431 0.949 . S
C436 C442 1.368 . S
C437 C421 1.349 . S
C437 H429 0.950 . S
C437 C435 1.327 . S
C438 C426 1.349 . S
C438 H432 0.950 . S
C438 C439 1.327 . S
C439 H433 0.950 . S
C439 C438 1.327 . S
C439 C443 1.429 . S
C440 C423 1.574 . S
C440 H434 0.949 . S
C440 C444 1.368 . S
C441 C422 1.429 . S
C441 C435 1.429 . S
C441 C442 1.523 . S
C442 C423 1.368 . S
C442 C436 1.368 . S
C442 C441 1.523 . S
C443 C427 1.429 . S
C443 C439 1.429 . S
C443 C444 1.523 . S
C444 C428 1.368 . S
C444 C440 1.368 . S
C444 C443 1.523 . S
H445 C420 0.950 . S
H446 C422 0.950 . S
H447 C423 0.949 . S
H448 C425 0.950 . S
H449 C427 0.950 . S
C450 C451 1.349 . S
C450 C452 1.327 . S
C450 H475 0.950 . S
C451 C450 1.349 . S
C451 C467 1.349 . S
C452 C450 1.327 . S
C452 C471 1.429 . S
C452 H476 0.950 . S
C453 C470 1.574 . S
C453 C472 1.368 . S
C453 H477 0.949 . S
H454 C458 0.949 . S
C455 C456 1.349 . S
C455 C457 1.327 . S
C455 H478 0.950 . S
C456 C455 1.349 . S
C456 C468 1.349 . S
C457 C455 1.327 . S
C457 C473 1.429 . S
C457 H479 0.950 . S
C458 H454 0.949 . S
C458 C466 1.574 . S
C458 C474 1.368 . S
H459 C467 0.950 . S
H460 C465 0.950 . S
H461 C466 0.949 . S
H462 C468 0.950 . S
H463 C469 0.950 . S
H464 C470 0.949 . S
C465 H460 0.950 . S
C465 C467 1.327 . S
C465 C471 1.429 . S
C466 C458 1.574 . S
C466 H461 0.949 . S
C466 C472 1.368 . S
C467 C451 1.349 . S
C467 H459 0.950 . S
C467 C465 1.327 . S
C468 C456 1.349 . S
C468 H462 0.950 . S
C468 C469 1.327 . S
C469 H463 0.950 . S
C469 C468 1.327 . S
C469 C473 1.429 . S
C470 C453 1.574 . S
C470 H464 0.949 . S
C470 C474 1.368 . S
C471 C452 1.429 . S
C471 C465 1.429 . S
C471 C472 1.523 . S
C472 C453 1.368 . S
C472 C466 1.368 . S
C472 C471 1.523 . S
C473 C457 1.429 . S
C473 C469 1.429 . S
C473 C474 1.523 . S
C474 C458 1.368 . S
C474 C470 1.368 . S
C474 C473 1.523 . S
H475 C450 0.950 . S
H476 C452 0.950 . S
H477 C453 0.949 . S
H478 C455 0.950 . S
H479 C457 0.950 . S
C480 C481 1.349 . S
C480 C482 1.327 . S
C480 H505 0.950 . S
C481 C480 1.349 . S
C481 C497 1.349 . S
C482 C480 1.327 . S
C482 C501 1.429 . S
C482 H506 0.950 . S
C483 C500 1.574 . S
C483 C502 1.368 . S
C483 H507 0.949 . S
H484 C488 0.949 . S
C485 C486 1.349 . S
C485 C487 1.327 . S
C485 H508 0.950 . S
C486 C485 1.349 . S
C486 C498 1.349 . S
C487 C485 1.327 . S
C487 C503 1.429 . S
C487 H509 0.950 . S
C488 H484 0.949 . S
C488 C496 1.574 . S
C488 C504 1.368 . S
H489 C497 0.950 . S
H490 C495 0.950 . S
H491 C496 0.949 . S
H492 C498 0.950 . S
H493 C499 0.950 . S
H494 C500 0.949 . S
C495 H490 0.950 . S
C495 C497 1.327 . S
C495 C501 1.429 . S
C496 C488 1.574 . S
C496 H491 0.949 . S
C496 C502 1.368 . S
C497 C481 1.349 . S
C497 H489 0.950 . S
C497 C495 1.327 . S
C498 C486 1.349 . S
C498 H492 0.950 . S
C498 C499 1.327 . S
C499 H493 0.950 . S
C499 C498 1.327 . S
C499 C503 1.429 . S
C500 C483 1.574 . S
C500 H494 0.949 . S
C500 C504 1.368 . S
C501 C482 1.429 . S
C501 C495 1.429 . S
C501 C502 1.523 . S
C502 C483 1.368 . S
C502 C496 1.368 . S
C502 C501 1.523 . S
C503 C487 1.429 . S
C503 C499 1.429 . S
C503 C504 1.523 . S
C504 C488 1.368 . S
C504 C500 1.368 . S
C504 C503 1.523 . S
H505 C480 0.950 . S
H506 C482 0.950 . S
H507 C483 0.949 . S
H508 C485 0.950 . S
H509 C487 0.950 . S
C510 C511 1.349 . S
C510 C512 1.327 . S
C510 H535 0.987 . S
C511 C510 1.349 . S
C511 C527 1.349 . S
C512 C510 1.327 . S
C512 C531 1.429 . S
C512 H536 0.950 1_565 S
C513 C530 1.574 . S
C513 C532 1.368 . S
C513 H537 0.949 . S
H514 C518 0.949 . S
C515 C516 1.349 . S
C515 C517 1.327 . S
C515 H538 0.950 . S
C516 C515 1.349 . S
C516 C528 1.349 1_565 S
C517 C515 1.327 . S
C517 C533 1.429 . S
C517 H539 0.950 . S
C518 H514 0.949 . S
C518 C526 1.574 1_545 S
C518 C534 1.368 1_545 S
H519 C527 0.950 . S
H520 C525 0.950 . S
H521 C526 0.949 1_545 S
H522 C528 0.950 . S
H523 C529 0.950 . S
H524 C530 0.949 . S
C525 H520 0.950 . S
C525 C527 1.327 . S
C525 C531 1.429 . S
C526 C518 1.574 1_565 S
C526 H521 0.949 1_565 S
C526 C532 1.368 . S
C527 C511 1.349 . S
C527 H519 0.950 . S
C527 C525 1.327 . S
C528 C516 1.349 1_545 S
C528 H522 0.950 . S
C528 C529 1.327 . S
C529 H523 0.950 . S
C529 C528 1.327 . S
C529 C533 1.429 1_545 S
C530 C513 1.574 . S
C530 H524 0.949 . S
C530 C534 1.368 . S
C531 C512 1.429 . S
C531 C525 1.429 . S
C531 C532 1.523 . S
C532 C513 1.368 . S
C532 C526 1.368 . S
C532 C531 1.523 . S
C533 C517 1.429 . S
C533 C529 1.429 1_565 S
C533 C534 1.523 . S
C534 C518 1.368 1_565 S
C534 C530 1.368 . S
C534 C533 1.523 . S
H535 C510 0.987 . S
H536 C512 0.950 1_545 S
H537 C513 0.949 . S
H538 C515 0.950 . S
H539 C517 0.950 . S
C540 C541 1.349 . S
C540 C542 1.327 . S
C540 H565 0.950 . S
C541 C540 1.349 . S
C541 C557 1.349 . S
C542 C540 1.327 . S
C542 C561 1.429 . S
C542 H566 0.950 . S
C543 C560 1.574 . S
C543 C562 1.368 . S
C543 H567 0.949 . S
H544 C548 0.949 . S
C545 C546 1.349 . S
C545 C547 1.327 . S
C545 H568 0.950 . S
C546 C545 1.349 . S
C546 C558 1.349 . S
C547 C545 1.327 . S
C547 C563 1.429 . S
C547 H569 0.950 . S
C548 H544 0.949 . S
C548 C556 1.574 . S
C548 C564 1.368 . S
H549 C557 0.950 . S
H550 C555 0.950 . S
H551 C556 0.949 . S
H552 C558 0.950 . S
H553 C559 0.950 . S
H554 C560 0.949 . S
C555 H550 0.950 . S
C555 C557 1.327 . S
C555 C561 1.429 . S
C556 C548 1.574 . S
C556 H551 0.949 . S
C556 C562 1.368 . S
C557 C541 1.349 . S
C557 H549 0.950 . S
C557 C555 1.327 . S
C558 C546 1.349 . S
C558 H552 0.950 . S
C558 C559 1.327 . S
C559 H553 0.950 . S
C559 C558 1.327 . S
C559 C563 1.429 . S
C560 C543 1.574 . S
C560 H554 0.949 . S
C560 C564 1.368 . S
C561 C542 1.429 . S
C561 C555 1.429 . S
C561 C562 1.523 . S
C562 C543 1.368 . S
C562 C556 1.368 . S
C562 C561 1.523 . S
C563 C547 1.429 . S
C563 C559 1.429 . S
C563 C564 1.523 . S
C564 C548 1.368 . S
C564 C560 1.368 . S
C564 C563 1.523 . S
H565 C540 0.950 . S
H566 C542 0.950 . S
H567 C543 0.949 . S
H568 C545 0.950 . S
H569 C547 0.950 . S
C570 C571 1.349 . S
C570 C572 1.327 . S
C570 H595 0.950 . S
C571 C570 1.349 . S
C571 C587 1.349 . S
C572 C570 1.327 . S
C572 C591 1.429 . S
C572 H596 0.950 . S
C573 C590 1.574 . S
C573 C592 1.368 . S
C573 H597 0.949 . S
H574 C578 0.949 . S
C575 C576 1.349 . S
C575 C577 1.327 . S
C575 H598 0.950 . S
C576 C575 1.349 . S
C576 C588 1.349 . S
C577 C575 1.327 . S
C577 C593 1.429 . S
C577 H599 0.950 . S
C578 H574 0.949 . S
C578 C586 1.574 . S
C578 C594 1.368 . S
H579 C587 0.950 . S
H580 C585 0.950 . S
H581 C586 0.949 . S
H582 C588 0.950 . S
H583 C589 0.950 . S
H584 C590 0.949 . S
C585 H580 0.950 . S
C585 C587 1.327 . S
C585 C591 1.429 . S
C586 C578 1.574 . S
C586 H581 0.949 . S
C586 C592 1.368 . S
C587 C571 1.349 . S
C587 H579 0.950 . S
C587 C585 1.327 . S
C588 C576 1.349 . S
C588 H582 0.950 . S
C588 C589 1.327 . S
C589 H583 0.950 . S
C589 C588 1.327 . S
C589 C593 1.429 . S
C590 C573 1.574 . S
C590 H584 0.949 . S
C590 C594 1.368 . S
C591 C572 1.429 . S
C591 C585 1.429 . S
C591 C592 1.523 . S
C592 C573 1.368 . S
C592 C586 1.368 . S
C592 C591 1.523 . S
C593 C577 1.429 . S
C593 C589 1.429 . S
C593 C594 1.523 . S
C594 C578 1.368 . S
C594 C590 1.368 . S
C594 C593 1.523 . S
H595 C570 0.950 . S
H596 C572 0.950 . S
H597 C573 0.949 . S
H598 C575 0.950 . S
H599 C577 0.950 . S
C600 C601 1.349 . S
C600 C602 1.327 . S
C600 H625 0.950 . S
C601 C600 1.349 . S
C601 C617 1.349 . S
C602 C600 1.327 . S
C602 C621 1.429 . S
C602 H626 0.950 . S
C603 C620 1.574 . S
C603 C622 1.368 . S
C603 H627 0.949 . S
H604 C608 0.949 . S
C605 C606 1.349 . S
C605 C607 1.327 . S
C605 H628 0.950 . S
C606 C605 1.349 . S
C606 C618 1.349 . S
C607 C605 1.327 . S
C607 C623 1.429 . S
C607 H629 0.950 . S
C608 H604 0.949 . S
C608 C616 1.574 . S
C608 C624 1.368 . S
H609 C617 0.950 . S
H610 C615 0.950 . S
H611 C616 0.949 . S
H612 C618 0.950 . S
H613 C619 0.950 . S
H614 C620 0.949 . S
C615 H610 0.950 . S
C615 C617 1.327 . S
C615 C621 1.429 . S
C616 C608 1.574 . S
C616 H611 0.949 . S
C616 C622 1.368 . S
C617 C601 1.349 . S
C617 H609 0.950 . S
C617 C615 1.327 . S
C618 C606 1.349 . S
C618 H612 0.950 . S
C618 C619 1.327 . S
C619 H613 0.950 . S
C619 C618 1.327 . S
C619 C623 1.429 . S
C620 C603 1.574 . S
C620 H614 0.949 . S
C620 C624 1.368 . S
C621 C602 1.429 . S
C621 C615 1.429 . S
C621 C622 1.523 . S
C622 C603 1.368 . S
C622 C616 1.368 . S
C622 C621 1.523 . S
C623 C607 1.429 . S
C623 C619 1.429 . S
C623 C624 1.523 . S
C624 C608 1.368 . S
C624 C620 1.368 . S
C624 C623 1.523 . S
H625 C600 0.950 . S
H626 C602 0.950 . S
H627 C603 0.949 . S
H628 C605 0.950 . S
H629 C607 0.950 . S
C630 C631 1.349 . S
C630 C632 1.327 . S
C630 H655 0.950 . S
C631 C630 1.349 . S
C631 C647 1.349 . S
C632 C630 1.327 . S
C632 C651 1.429 . S
C632 H656 0.950 . S
C633 C650 1.574 . S
C633 C652 1.368 . S
C633 H657 0.949 . S
H634 C638 0.949 . S
C635 C636 1.349 . S
C635 C637 1.327 . S
C635 H658 0.950 . S
C636 C635 1.349 . S
C636 C648 1.349 . S
C637 C635 1.327 . S
C637 C653 1.429 . S
C637 H659 0.950 . S
C638 H634 0.949 . S
C638 C646 1.574 . S
C638 C654 1.368 . S
H639 C647 0.950 . S
H640 C645 0.950 . S
H641 C646 0.949 . S
H642 C648 0.950 . S
H643 C649 0.950 . S
H644 C650 0.949 . S
C645 H640 0.950 . S
C645 C647 1.327 . S
C645 C651 1.429 . S
C646 C638 1.574 . S
C646 H641 0.949 . S
C646 C652 1.368 . S
C647 C631 1.349 . S
C647 H639 0.950 . S
C647 C645 1.327 . S
C648 C636 1.349 . S
C648 H642 0.950 . S
C648 C649 1.327 . S
C649 H643 0.950 . S
C649 C648 1.327 . S
C649 C653 1.429 . S
C650 C633 1.574 . S
C650 H644 0.949 . S
C650 C654 1.368 . S
C651 C632 1.429 . S
C651 C645 1.429 . S
C651 C652 1.523 . S
C652 C633 1.368 . S
C652 C646 1.368 . S
C652 C651 1.523 . S
C653 C637 1.429 . S
C653 C649 1.429 . S
C653 C654 1.523 . S
C654 C638 1.368 . S
C654 C650 1.368 . S
C654 C653 1.523 . S
H655 C630 0.950 . S
H656 C632 0.950 . S
H657 C633 0.949 . S
H658 C635 0.950 . S
H659 C637 0.950 . S
C660 C661 1.349 . S
C660 C662 1.327 . S
C660 H685 0.950 . S
C661 C660 1.349 . S
C661 C677 1.349 . S
C662 C660 1.327 . S
C662 C681 1.429 . S
C662 H686 0.950 . S
C663 C680 1.574 . S
C663 C682 1.368 . S
C663 H687 0.949 . S
H664 C668 0.949 . S
C665 C666 1.349 . S
C665 C667 1.327 . S
C665 H688 0.950 . S
C666 C665 1.349 . S
C666 C678 1.349 . S
C667 C665 1.327 . S
C667 C683 1.429 . S
C667 H689 0.950 . S
C668 H664 0.949 . S
C668 C676 1.574 . S
C668 C684 1.368 . S
H669 C677 0.950 . S
H670 C675 0.950 . S
H671 C676 0.949 . S
H672 C678 0.950 . S
H673 C679 0.950 . S
H674 C680 0.949 . S
C675 H670 0.950 . S
C675 C677 1.327 . S
C675 C681 1.429 . S
C676 C668 1.574 . S
C676 H671 0.949 . S
C676 C682 1.368 . S
C677 C661 1.349 . S
C677 H669 0.950 . S
C677 C675 1.327 . S
C678 C666 1.349 . S
C678 H672 0.950 . S
C678 C679 1.327 . S
C679 H673 0.950 . S
C679 C678 1.327 . S
C679 C683 1.429 . S
C680 C663 1.574 . S
C680 H674 0.949 . S
C680 C684 1.368 . S
C681 C662 1.429 . S
C681 C675 1.429 . S
C681 C682 1.523 . S
C682 C663 1.368 . S
C682 C676 1.368 . S
C682 C681 1.523 . S
C683 C667 1.429 . S
C683 C679 1.429 . S
C683 C684 1.523 . S
C684 C668 1.368 . S
C684 C680 1.368 . S
C684 C683 1.523 . S
H685 C660 0.950 . S
H686 C662 0.950 . S
H687 C663 0.949 . S
H688 C665 0.950 . S
H689 C667 0.950 . S
C690 C691 1.349 . S
C690 C692 1.327 . S
C690 H715 0.950 . S
C691 C690 1.349 . S
C691 C707 1.349 . S
C692 C690 1.327 . S
C692 C711 1.429 . S
C692 H716 0.950 . S
C693 C710 1.574 . S
C693 C712 1.368 . S
C693 H717 0.949 1_455 S
H694 C698 0.949 . S
C695 C696 1.349 1_655 S
C695 C697 1.327 . S
C695 H718 0.950 . S
C696 C695 1.349 1_455 S
C696 C708 1.349 . S
C697 C695 1.327 . S
C697 C713 1.429 1_655 S
C697 H719 0.950 . S
C698 H694 0.949 . S
C698 C706 1.574 . S
C698 C714 1.368 . S
H699 C707 0.950 . S
H700 C705 0.950 1_655 S
H701 C706 0.949 . S
H702 C708 0.950 . S
H703 C709 0.950 . S
H704 C710 0.949 1_655 S
C705 H700 0.950 1_455 S
C705 C707 1.327 . S
C705 C711 1.429 . S
C706 C698 1.574 . S
C706 H701 0.949 . S
C706 C712 1.368 . S
C707 C691 1.349 . S
C707 H699 0.950 . S
C707 C705 1.327 . S
C708 C696 1.349 . S
C708 H702 0.950 . S
C708 C709 1.327 . S
C709 H703 0.950 . S
C709 C708 1.327 . S
C709 C713 1.429 . S
C710 C693 1.574 . S
C710 H704 0.949 1_455 S
C710 C714 1.368 . S
C711 C692 1.429 . S
C711 C705 1.429 . S
C711 C712 1.523 . S
C712 C693 1.368 . S
C712 C706 1.368 . S
C712 C711 1.523 . S
C713 C697 1.429 1_455 S
C713 C709 1.429 . S
C713 C714 1.523 . S
C714 C698 1.368 . S
C714 C710 1.368 . S
C714 C713 1.523 . S
H715 C690 0.950 . S
H716 C692 0.950 . S
H717 C693 0.949 1_655 S
H718 C695 0.950 . S
H719 C697 0.950 . S
C720 C721 1.349 . S
C720 C722 1.327 . S
C720 H745 0.950 . S
C721 C720 1.349 . S
C721 C737 1.349 . S
C722 C720 1.327 . S
C722 C741 1.429 . S
C722 H746 0.950 . S
C723 C740 1.574 . S
C723 C742 1.368 . S
C723 H747 0.949 . S
H724 C728 0.949 . S
C725 C726 1.349 . S
C725 C727 1.327 . S
C725 H748 0.950 . S
C726 C725 1.349 . S
C726 C738 1.349 . S
C727 C725 1.327 . S
C727 C743 1.429 . S
C727 H749 0.950 . S
C728 H724 0.949 . S
C728 C736 1.574 . S
C728 C744 1.368 . S
H729 C737 0.950 . S
H730 C735 0.950 . S
H731 C736 0.949 . S
H732 C738 0.950 . S
H733 C739 0.950 . S
H734 C740 0.949 . S
C735 H730 0.950 . S
C735 C737 1.327 . S
C735 C741 1.429 . S
C736 C728 1.574 . S
C736 H731 0.949 . S
C736 C742 1.368 . S
C737 C721 1.349 . S
C737 H729 0.950 . S
C737 C735 1.327 . S
C738 C726 1.349 . S
C738 H732 0.950 . S
C738 C739 1.327 . S
C739 H733 0.950 . S
C739 C738 1.327 . S
C739 C743 1.429 . S
C740 C723 1.574 . S
C740 H734 0.949 . S
C740 C744 1.368 . S
C741 C722 1.429 . S
C741 C735 1.429 . S
C741 C742 1.523 . S
C742 C723 1.368 . S
C742 C736 1.368 . S
C742 C741 1.523 . S
C743 C727 1.429 . S
C743 C739 1.429 . S
C743 C744 1.523 . S
C744 C728 1.368 . S
C744 C740 1.368 . S
C744 C743 1.523 . S
H745 C720 0.950 . S
H746 C722 0.950 . S
H747 C723 0.949 . S
H748 C725 0.950 . S
H749 C727 0.950 . S
C750 C751 1.349 . S
C750 C752 1.327 . S
C750 H775 0.950 . S
C751 C750 1.349 . S
C751 C767 1.349 . S
C752 C750 1.327 . S
C752 C771 1.429 . S
C752 H776 0.950 . S
C753 C770 1.574 . S
C753 C772 1.368 . S
C753 H777 0.949 . S
H754 C758 0.949 . S
C755 C756 1.349 . S
C755 C757 1.327 . S
C755 H778 0.950 . S
C756 C755 1.349 . S
C756 C768 1.357 . S
C757 C755 1.327 . S
C757 C773 1.429 . S
C757 H779 0.950 . S
C758 H754 0.949 . S
C758 C766 1.574 . S
C758 C774 1.368 . S
H759 C767 0.950 . S
H760 C765 0.950 . S
H761 C766 0.949 . S
H762 C768 0.939 1_455 S
H763 C769 0.935 1_455 S
H764 C770 0.949 . S
C765 H760 0.950 . S
C765 C767 1.327 . S
C765 C771 1.429 . S
C766 C758 1.574 . S
C766 H761 0.949 . S
C766 C772 1.368 . S
C767 C751 1.349 . S
C767 H759 0.950 . S
C767 C765 1.327 . S
C768 C756 1.357 . S
C768 H762 0.939 1_655 S
C768 C769 1.330 . S
C769 H763 0.935 1_655 S
C769 C768 1.330 . S
C769 C773 1.429 . S
C770 C753 1.574 . S
C770 H764 0.949 . S
C770 C774 1.368 . S
C771 C752 1.429 . S
C771 C765 1.429 . S
C771 C772 1.523 . S
C772 C753 1.368 . S
C772 C766 1.368 . S
C772 C771 1.523 . S
C773 C757 1.429 . S
C773 C769 1.429 . S
C773 C774 1.523 . S
C774 C758 1.368 . S
C774 C770 1.368 . S
C774 C773 1.523 . S
H775 C750 0.950 . S
H776 C752 0.950 . S
H777 C753 0.949 . S
H778 C755 0.950 . S
H779 C757 0.950 . S
C780 C781 1.349 . S
C780 C782 1.327 . S
C780 H805 0.950 . S
C781 C780 1.349 . S
C781 C797 1.349 . S
C782 C780 1.327 . S
C782 C801 1.429 . S
C782 H806 0.950 . S
C783 C800 1.574 . S
C783 C802 1.368 . S
C783 H807 0.949 . S
H784 C788 0.949 . S
C785 C786 1.349 . S
C785 C787 1.327 . S
C785 H808 0.950 . S
C786 C785 1.349 . S
C786 C798 1.349 . S
C787 C785 1.327 . S
C787 C803 1.429 . S
C787 H809 0.950 . S
C788 H784 0.949 . S
C788 C796 1.574 . S
C788 C804 1.368 . S
H789 C797 0.950 . S
H790 C795 0.950 . S
H791 C796 0.949 . S
H792 C798 0.950 . S
H793 C799 0.950 . S
H794 C800 0.949 . S
C795 H790 0.950 . S
C795 C797 1.327 . S
C795 C801 1.429 . S
C796 C788 1.574 . S
C796 H791 0.949 . S
C796 C802 1.368 . S
C797 C781 1.349 . S
C797 H789 0.950 . S
C797 C795 1.327 . S
C798 C786 1.349 . S
C798 H792 0.950 . S
C798 C799 1.327 . S
C799 H793 0.950 . S
C799 C798 1.327 . S
C799 C803 1.429 . S
C800 C783 1.574 . S
C800 H794 0.949 . S
C800 C804 1.368 . S
C801 C782 1.429 . S
C801 C795 1.429 . S
C801 C802 1.523 . S
C802 C783 1.368 . S
C802 C796 1.368 . S
C802 C801 1.523 . S
C803 C787 1.429 . S
C803 C799 1.429 . S
C803 C804 1.523 . S
C804 C788 1.368 . S
C804 C800 1.368 . S
C804 C803 1.523 . S
H805 C780 0.950 . S
H806 C782 0.950 . S
H807 C783 0.949 . S
H808 C785 0.950 . S
H809 C787 0.950 . S
C810 C811 1.349 . S
C810 C812 1.327 . S
C810 H835 0.950 . S
C811 C810 1.349 . S
C811 C827 1.349 . S
C812 C810 1.327 . S
C812 C831 1.429 . S
C812 H836 0.950 . S
C813 C830 1.574 . S
C813 C832 1.368 . S
C813 H837 0.949 . S
H814 C818 0.949 . S
C815 C816 1.349 . S
C815 C817 1.327 . S
C815 H838 0.950 . S
C816 C815 1.349 . S
C816 C828 1.349 . S
C817 C815 1.327 . S
C817 C833 1.429 . S
C817 H839 0.950 . S
C818 H814 0.949 . S
C818 C826 1.574 . S
C818 C834 1.368 . S
H819 C827 0.950 . S
H820 C825 0.950 . S
H821 C826 0.949 . S
H822 C828 0.950 . S
H823 C829 0.950 . S
H824 C830 0.949 . S
C825 H820 0.950 . S
C825 C827 1.327 . S
C825 C831 1.429 . S
C826 C818 1.574 . S
C826 H821 0.949 . S
C826 C832 1.368 . S
C827 C811 1.349 . S
C827 H819 0.950 . S
C827 C825 1.327 . S
C828 C816 1.349 . S
C828 H822 0.950 . S
C828 C829 1.327 . S
C829 H823 0.950 . S
C829 C828 1.327 . S
C829 C833 1.429 . S
C830 C813 1.574 . S
C830 H824 0.949 . S
C830 C834 1.368 . S
C831 C812 1.429 . S
C831 C825 1.429 . S
C831 C832 1.523 . S
C832 C813 1.368 . S
C832 C826 1.368 . S
C832 C831 1.523 . S
C833 C817 1.429 . S
C833 C829 1.429 . S
C833 C834 1.523 . S
C834 C818 1.368 . S
C834 C830 1.368 . S
C834 C833 1.523 . S
H835 C810 0.950 . S
H836 C812 0.950 . S
H837 C813 0.949 . S
H838 C815 0.950 . S
H839 C817 0.950 . S
C840 C841 1.349 . S
C840 C842 1.327 1_545 S
C840 H865 0.950 . S
C841 C840 1.349 . S
C841 C857 1.349 . S
C842 C840 1.327 1_565 S
C842 C861 1.429 . S
C842 H866 0.950 . S
C843 C860 1.574 . S
C843 C862 1.368 1_554 S
C843 H867 0.949 . S
H844 C848 0.949 . S
C845 C846 1.341 1_554 S
C845 C847 1.327 . S
C845 H868 0.950 . S
C846 C845 1.341 1_556 S
C846 C858 1.358 . S
C847 C845 1.327 . S
C847 C863 1.429 1_554 S
C847 H869 0.950 . S
C848 H844 0.949 . S
C848 C856 1.574 . S
C848 C864 1.368 . S
H849 C857 0.950 1_554 S
H850 C855 0.950 1_554 S
H851 C856 0.949 . S
H852 C858 0.950 . S
H853 C859 0.950 . S
H854 C860 0.949 . S
C855 H850 0.950 1_556 S
C855 C857 1.327 . S
C855 C861 1.429 1_545 S
C856 C848 1.574 . S
C856 H851 0.949 . S
C856 C862 1.368 . S
C857 C841 1.349 . S
C857 H849 0.950 1_556 S
C857 C855 1.327 . S
C858 C846 1.358 . S
C858 H852 0.950 . S
C858 C859 1.327 . S
C859 H853 0.950 . S
C859 C858 1.327 . S
C859 C863 1.429 . S
C860 C843 1.574 . S
C860 H854 0.949 . S
C860 C864 1.368 1_554 S
C861 C842 1.429 . S
C861 C855 1.429 1_565 S
C861 C862 1.523 . S
C862 C843 1.368 1_556 S
C862 C856 1.368 . S
C862 C861 1.523 . S
C863 C847 1.429 1_556 S
C863 C859 1.429 . S
C863 C864 1.523 . S
C864 C848 1.368 . S
C864 C860 1.368 1_556 S
C864 C863 1.523 . S
H865 C840 0.950 . S
H866 C842 0.950 . S
H867 C843 0.949 . S
H868 C845 0.950 . S
H869 C847 0.950 . S
C870 C871 1.349 . S
C870 C872 1.327 . S
C870 H895 0.950 . S
C871 C870 1.349 . S
C871 C887 1.349 . S
C872 C870 1.327 . S
C872 C891 1.429 . S
C872 H896 0.950 . S
C873 C890 1.574 . S
C873 C892 1.368 . S
C873 H897 0.949 . S
H874 C878 0.949 . S
C875 C876 1.349 . S
C875 C877 1.327 . S
C875 H898 0.950 . S
C876 C875 1.349 . S
C876 C888 1.349 . S
C877 C875 1.327 . S
C877 C893 1.429 . S
C877 H899 0.950 . S
C878 H874 0.949 . S
C878 C886 1.574 . S
C878 C894 1.368 . S
H879 C887 0.950 . S
H880 C885 0.950 . S
H881 C886 0.949 . S
H882 C888 0.950 . S
H883 C889 0.950 . S
H884 C890 0.949 . S
C885 H880 0.950 . S
C885 C887 1.327 . S
C885 C891 1.429 . S
C886 C878 1.574 . S
C886 H881 0.949 . S
C886 C892 1.368 . S
C887 C871 1.349 . S
C887 H879 0.950 . S
C887 C885 1.327 . S
C888 C876 1.349 . S
C888 H882 0.950 . S
C888 C889 1.327 . S
C889 H883 0.950 . S
C889 C888 1.327 . S
C889 C893 1.429 . S
C890 C873 1.574 . S
C890 H884 0.949 . S
C890 C894 1.368 . S
C891 C872 1.429 . S
C891 C885 1.429 . S
C891 C892 1.523 . S
C892 C873 1.368 . S
C892 C886 1.368 . S
C892 C891 1.523 . S
C893 C877 1.429 . S
C893 C889 1.429 . S
C893 C894 1.523 . S
C894 C878 1.368 . S
C894 C890 1.368 . S
C894 C893 1.523 . S
H895 C870 0.950 . S
H896 C872 0.950 . S
H897 C873 0.949 . S
H898 C875 0.950 . S
H899 C877 0.950 . S
C900 C901 1.350 . S
C900 C902 1.327 1_565 S
C900 H925 0.950 . S
C901 C900 1.350 . S
C901 C917 1.346 1_565 S
C902 C900 1.327 1_545 S
C902 C921 1.429 . S
C902 H926 0.950 . S
C903 C920 1.574 . S
C903 C922 1.368 . S
C903 H927 0.949 . S
H904 C908 0.949 . S
C905 C906 1.349 . S
C905 C907 1.327 . S
C905 H928 0.950 . S
C906 C905 1.349 . S
C906 C918 1.349 . S
C907 C905 1.327 . S
C907 C923 1.429 . S
C907 H929 0.950 . S
C908 H904 0.949 . S
C908 C916 1.574 . S
C908 C924 1.368 . S
H909 C917 0.950 . S
H910 C915 0.950 . S
H911 C916 0.949 . S
H912 C918 0.950 . S
H913 C919 0.950 . S
H914 C920 0.949 . S
C915 H910 0.950 . S
C915 C917 1.327 . S
C915 C921 1.429 . S
C916 C908 1.574 . S
C916 H911 0.949 . S
C916 C922 1.368 . S
C917 C901 1.346 1_545 S
C917 H909 0.950 . S
C917 C915 1.327 . S
C918 C906 1.349 . S
C918 H912 0.950 . S
C918 C919 1.327 . S
C919 H913 0.950 . S
C919 C918 1.327 . S
C919 C923 1.429 . S
C920 C903 1.574 . S
C920 H914 0.949 . S
C920 C924 1.368 . S
C921 C902 1.429 . S
C921 C915 1.429 . S
C921 C922 1.523 . S
C922 C903 1.368 . S
C922 C916 1.368 . S
C922 C921 1.523 . S
C923 C907 1.429 . S
C923 C919 1.429 . S
C923 C924 1.523 . S
C924 C908 1.368 . S
C924 C920 1.368 . S
C924 C923 1.523 . S
H925 C900 0.950 . S
H926 C902 0.950 . S
H927 C903 0.949 . S
H928 C905 0.950 . S
H929 C907 0.950 . S
C930 C931 1.349 . S
C930 C932 1.327 . S
C930 H955 0.950 . S
C931 C930 1.349 . S
C931 C947 1.349 . S
C932 C930 1.327 . S
C932 C951 1.429 . S
C932 H956 0.950 . S
C933 C950 1.574 . S
C933 C952 1.368 . S
C933 H957 0.949 . S
H934 C938 0.949 . S
C935 C936 1.349 . S
C935 C937 1.327 . S
C935 H958 0.950 . S
C936 C935 1.349 . S
C936 C948 1.349 . S
C937 C935 1.327 . S
C937 C953 1.429 . S
C937 H959 0.950 . S
C938 H934 0.949 . S
C938 C946 1.574 . S
C938 C954 1.368 . S
H939 C947 0.950 . S
H940 C945 0.950 . S
H941 C946 0.949 . S
H942 C948 0.950 . S
H943 C949 0.950 . S
H944 C950 0.949 . S
C945 H940 0.950 . S
C945 C947 1.327 . S
C945 C951 1.429 . S
C946 C938 1.574 . S
C946 H941 0.949 . S
C946 C952 1.368 . S
C947 C931 1.349 . S
C947 H939 0.950 . S
C947 C945 1.327 . S
C948 C936 1.349 . S
C948 H942 0.950 . S
C948 C949 1.327 . S
C949 H943 0.950 . S
C949 C948 1.327 . S
C949 C953 1.429 . S
C950 C933 1.574 . S
C950 H944 0.949 . S
C950 C954 1.368 . S
C951 C932 1.429 . S
C951 C945 1.429 . S
C951 C952 1.523 . S
C952 C933 1.368 . S
C952 C946 1.368 . S
C952 C951 1.523 . S
C953 C937 1.429 . S
C953 C949 1.429 . S
C953 C954 1.523 . S
C954 C938 1.368 . S
C954 C950 1.368 . S
C954 C953 1.523 . S
H955 C930 0.950 . S
H956 C932 0.950 . S
H957 C933 0.949 . S
H958 C935 0.950 . S
H959 C937 0.950 . S
C960 C961 1.349 . S
C960 C962 1.327 . S
C960 H985 0.950 . S
C961 C960 1.349 . S
C961 C977 1.349 1_565 S
C962 C960 1.327 . S
C962 C981 1.429 1_565 S
C962 H986 0.950 . S
C963 C980 1.574 . S
C963 C982 1.368 . S
C963 H987 0.949 . S
H964 C968 0.949 . S
C965 C966 1.349 . S
C965 C967 1.327 . S
C965 H988 0.950 . S
C966 C965 1.349 . S
C966 C978 1.349 . S
C967 C965 1.327 . S
C967 C983 1.429 . S
C967 H989 0.950 . S
C968 H964 0.949 . S
C968 C976 1.574 . S
C968 C984 1.368 . S
H969 C977 0.950 . S
H970 C975 0.950 . S
H971 C976 0.949 . S
H972 C978 0.950 . S
H973 C979 0.950 . S
H974 C980 0.949 . S
C975 H970 0.950 . S
C975 C977 1.327 . S
C975 C981 1.429 . S
C976 C968 1.574 . S
C976 H971 0.949 . S
C976 C982 1.368 . S
C977 C961 1.349 1_545 S
C977 H969 0.950 . S
C977 C975 1.327 . S
C978 C966 1.349 . S
C978 H972 0.950 . S
C978 C979 1.327 . S
C979 H973 0.950 . S
C979 C978 1.327 . S
C979 C983 1.429 . S
C980 C963 1.574 . S
C980 H974 0.949 . S
C980 C984 1.368 . S
C981 C962 1.429 1_545 S
C981 C975 1.429 . S
C981 C982 1.523 . S
C982 C963 1.368 . S
C982 C976 1.368 . S
C982 C981 1.523 . S
C983 C967 1.429 . S
C983 C979 1.429 . S
C983 C984 1.523 . S
C984 C968 1.368 . S
C984 C980 1.368 . S
C984 C983 1.523 . S
H985 C960 0.950 . S
H986 C962 0.950 . S
H987 C963 0.949 . S
H988 C965 0.950 . S
H989 C967 0.950 . S
C990 C991 1.349 . S
C990 C992 1.327 . S
C990 H1015 0.950 . S
C991 C990 1.349 . S
C991 C1007 1.349 . S
C992 C990 1.327 . S
C992 C1011 1.429 . S
C992 H1016 0.950 . S
C993 C1010 1.574 . S
C993 C1012 1.368 . S
C993 H1017 0.949 . S
H994 C998 0.949 . S
C995 C996 1.349 . S
C995 C997 1.327 . S
C995 H1018 0.950 . S
C996 C995 1.349 . S
C996 C1008 1.349 . S
C997 C995 1.327 . S
C997 C1013 1.429 . S
C997 H1019 0.950 . S
C998 H994 0.949 . S
C998 C1006 1.574 . S
C998 C1014 1.368 . S
H999 C1007 0.950 . S
H1000 C1005 0.950 . S
H1001 C1006 0.949 . S
H1002 C1008 0.950 . S
H1003 C1009 0.950 . S
H1004 C1010 0.949 . S
C1005 H1000 0.950 . S
C1005 C1007 1.327 . S
C1005 C1011 1.429 . S
C1006 C998 1.574 . S
C1006 H1001 0.949 . S
C1006 C1012 1.368 . S
C1007 C991 1.349 . S
C1007 H999 0.950 . S
C1007 C1005 1.327 . S
C1008 C996 1.349 . S
C1008 H1002 0.950 . S
C1008 C1009 1.327 . S
C1009 H1003 0.950 . S
C1009 C1008 1.327 . S
C1009 C1013 1.429 . S
C1010 C993 1.574 . S
C1010 H1004 0.949 . S
C1010 C1014 1.368 . S
C1011 C992 1.429 . S
C1011 C1005 1.429 . S
C1011 C1012 1.523 . S
C1012 C993 1.368 . S
C1012 C1006 1.368 . S
C1012 C1011 1.523 . S
C1013 C997 1.429 . S
C1013 C1009 1.429 . S
C1013 C1014 1.523 . S
C1014 C998 1.368 . S
C1014 C1010 1.368 . S
C1014 C1013 1.523 . S
H1015 C990 0.950 . S
H1016 C992 0.950 . S
H1017 C993 0.949 . S
H1018 C995 0.950 . S
H1019 C997 0.950 . S
C1020 C1021 1.349 . S
C1020 C1022 1.327 . S
C1020 H1045 0.950 . S
C1021 C1020 1.349 . S
C1021 C1037 1.349 . S
C1022 C1020 1.327 . S
C1022 C1041 1.429 . S
C1022 H1046 0.950 . S
C1023 C1040 1.574 . S
C1023 C1042 1.368 . S
C1023 H1047 0.949 . S
H1024 C1028 0.949 . S
C1025 C1026 1.349 . S
C1025 C1027 1.327 . S
C1025 H1048 0.950 . S
C1026 C1025 1.349 . S
C1026 C1038 1.349 . S
C1027 C1025 1.327 . S
C1027 C1043 1.429 . S
C1027 H1049 0.950 . S
C1028 H1024 0.949 . S
C1028 C1036 1.574 . S
C1028 C1044 1.368 . S
H1029 C1037 0.950 . S
H1030 C1035 0.950 . S
H1031 C1036 0.949 . S
H1032 C1038 0.950 . S
H1033 C1039 0.950 . S
H1034 C1040 0.949 . S
C1035 H1030 0.950 . S
C1035 C1037 1.327 . S
C1035 C1041 1.429 . S
C1036 C1028 1.574 . S
C1036 H1031 0.949 . S
C1036 C1042 1.368 . S
C1037 C1021 1.349 . S
C1037 H1029 0.950 . S
C1037 C1035 1.327 . S
C1038 C1026 1.349 . S
C1038 H1032 0.950 . S
C1038 C1039 1.327 . S
C1039 H1033 0.950 . S
C1039 C1038 1.327 . S
C1039 C1043 1.429 . S
C1040 C1023 1.574 . S
C1040 H1034 0.949 . S
C1040 C1044 1.368 . S
C1041 C1022 1.429 . S
C1041 C1035 1.429 . S
C1041 C1042 1.523 . S
C1042 C1023 1.368 . S
C1042 C1036 1.368 . S
C1042 C1041 1.523 . S
C1043 C1027 1.429 . S
C1043 C1039 1.429 . S
C1043 C1044 1.523 . S
C1044 C1028 1.368 . S
C1044 C1040 1.368 . S
C1044 C1043 1.523 . S
H1045 C1020 0.950 . S
H1046 C1022 0.950 . S
H1047 C1023 0.949 . S
H1048 C1025 0.950 . S
H1049 C1027 0.950 . S
C1050 C1051 1.349 . S
C1050 C1052 1.327 . S
C1050 H1075 0.950 . S
C1051 C1050 1.349 . S
C1051 C1067 1.349 . S
C1052 C1050 1.327 . S
C1052 C1071 1.429 . S
C1052 H1076 0.950 . S
C1053 C1070 1.574 . S
C1053 C1072 1.368 . S
C1053 H1077 0.949 . S
H1054 C1058 0.949 1_565 S
C1055 C1056 1.349 . S
C1055 C1057 1.327 . S
C1055 H1078 0.950 . S
C1056 C1055 1.349 . S
C1056 C1068 1.325 1_545 S
C1057 C1055 1.327 . S
C1057 C1073 1.429 . S
C1057 H1079 0.950 . S
C1058 H1054 0.949 1_545 S
C1058 C1066 1.574 . S
C1058 C1074 1.368 . S
H1059 C1067 0.950 . S
H1060 C1065 0.950 . S
H1061 C1066 0.949 . S
H1062 C1068 0.983 . S
H1063 C1069 0.950 1_565 S
H1064 C1070 0.949 . S
C1065 H1060 0.950 . S
C1065 C1067 1.327 . S
C1065 C1071 1.429 . S
C1066 C1058 1.574 . S
C1066 H1061 0.949 . S
C1066 C1072 1.368 . S
C1067 C1051 1.349 . S
C1067 H1059 0.950 . S
C1067 C1065 1.327 . S
C1068 C1056 1.325 1_565 S
C1068 H1062 0.983 . S
C1068 C1069 1.321 1_565 S
C1069 H1063 0.950 1_545 S
C1069 C1068 1.321 1_545 S
C1069 C1073 1.429 . S
C1070 C1053 1.574 . S
C1070 H1064 0.949 . S
C1070 C1074 1.368 . S
C1071 C1052 1.429 . S
C1071 C1065 1.429 . S
C1071 C1072 1.523 . S
C1072 C1053 1.368 . S
C1072 C1066 1.368 . S
C1072 C1071 1.523 . S
C1073 C1057 1.429 . S
C1073 C1069 1.429 . S
C1073 C1074 1.523 . S
C1074 C1058 1.368 . S
C1074 C1070 1.368 . S
C1074 C1073 1.523 . S
H1075 C1050 0.950 . S
H1076 C1052 0.950 . S
H1077 C1053 0.949 . S
H1078 C1055 0.950 . S
H1079 C1057 0.950 . S
C1080 C1081 1.349 . S
C1080 C1082 1.327 . S
C1080 H1105 0.950 . S
C1081 C1080 1.349 . S
C1081 C1097 1.349 . S
C1082 C1080 1.327 . S
C1082 C1101 1.429 . S
C1082 H1106 0.950 . S
C1083 C1100 1.574 . S
C1083 C1102 1.368 . S
C1083 H1107 0.949 . S
H1084 C1088 0.949 . S
C1085 C1086 1.349 . S
C1085 C1087 1.327 . S
C1085 H1108 0.950 . S
C1086 C1085 1.349 . S
C1086 C1098 1.349 . S
C1087 C1085 1.327 . S
C1087 C1103 1.429 . S
C1087 H1109 0.950 . S
C1088 H1084 0.949 . S
C1088 C1096 1.574 . S
C1088 C1104 1.368 . S
H1089 C1097 0.950 . S
H1090 C1095 0.950 . S
H1091 C1096 0.949 . S
H1092 C1098 0.950 . S
H1093 C1099 0.950 . S
H1094 C1100 0.949 . S
C1095 H1090 0.950 . S
C1095 C1097 1.327 . S
C1095 C1101 1.429 . S
C1096 C1088 1.574 . S
C1096 H1091 0.949 . S
C1096 C1102 1.368 . S
C1097 C1081 1.349 . S
C1097 H1089 0.950 . S
C1097 C1095 1.327 . S
C1098 C1086 1.349 . S
C1098 H1092 0.950 . S
C1098 C1099 1.327 . S
C1099 H1093 0.950 . S
C1099 C1098 1.327 . S
C1099 C1103 1.429 . S
C1100 C1083 1.574 . S
C1100 H1094 0.949 . S
C1100 C1104 1.368 . S
C1101 C1082 1.429 . S
C1101 C1095 1.429 . S
C1101 C1102 1.523 . S
C1102 C1083 1.368 . S
C1102 C1096 1.368 . S
C1102 C1101 1.523 . S
C1103 C1087 1.429 . S
C1103 C1099 1.429 . S
C1103 C1104 1.523 . S
C1104 C1088 1.368 . S
C1104 C1100 1.368 . S
C1104 C1103 1.523 . S
H1105 C1080 0.950 . S
H1106 C1082 0.950 . S
H1107 C1083 0.949 . S
H1108 C1085 0.950 . S
H1109 C1087 0.950 . S
C1110 C1111 1.349 . S
C1110 C1112 1.327 . S
C1110 H1135 0.950 . S
C1111 C1110 1.349 . S
C1111 C1127 1.349 . S
C1112 C1110 1.327 . S
C1112 C1131 1.429 . S
C1112 H1136 0.950 . S
C1113 C1130 1.574 . S
C1113 C1132 1.368 . S
C1113 H1137 0.949 . S
H1114 C1118 0.949 . S
C1115 C1116 1.349 . S
C1115 C1117 1.327 . S
C1115 H1138 0.950 . S
C1116 C1115 1.349 . S
C1116 C1128 1.349 . S
C1117 C1115 1.327 . S
C1117 C1133 1.429 . S
C1117 H1139 0.950 . S
C1118 H1114 0.949 . S
C1118 C1126 1.574 . S
C1118 C1134 1.368 . S
H1119 C1127 0.950 . S
H1120 C1125 0.950 . S
H1121 C1126 0.949 . S
H1122 C1128 0.950 . S
H1123 C1129 0.950 . S
H1124 C1130 0.949 . S
C1125 H1120 0.950 . S
C1125 C1127 1.327 . S
C1125 C1131 1.429 . S
C1126 C1118 1.574 . S
C1126 H1121 0.949 . S
C1126 C1132 1.368 . S
C1127 C1111 1.349 . S
C1127 H1119 0.950 . S
C1127 C1125 1.327 . S
C1128 C1116 1.349 . S
C1128 H1122 0.950 . S
C1128 C1129 1.327 . S
C1129 H1123 0.950 . S
C1129 C1128 1.327 . S
C1129 C1133 1.429 . S
C1130 C1113 1.574 . S
C1130 H1124 0.949 . S
C1130 C1134 1.368 . S
C1131 C1112 1.429 . S
C1131 C1125 1.429 . S
C1131 C1132 1.523 . S
C1132 C1113 1.368 . S
C1132 C1126 1.368 . S
C1132 C1131 1.523 . S
C1133 C1117 1.429 . S
C1133 C1129 1.429 . S
C1133 C1134 1.523 . S
C1134 C1118 1.368 . S
C1134 C1130 1.368 . S
C1134 C1133 1.523 . S
H1135 C1110 0.950 . S
H1136 C1112 0.950 . S
H1137 C1113 0.949 . S
H1138 C1115 0.950 . S
H1139 C1117 0.950 . S
C1140 C1141 1.349 . S
C1140 C1142 1.327 . S
C1140 H1165 0.950 . S
C1141 C1140 1.349 . S
C1141 C1157 1.349 . S
C1142 C1140 1.327 . S
C1142 C1161 1.429 . S
C1142 H1166 0.950 . S
C1143 C1160 1.574 . S
C1143 C1162 1.368 . S
C1143 H1167 0.949 . S
H1144 C1148 0.949 . S
C1145 C1146 1.349 . S
C1145 C1147 1.327 . S
C1145 H1168 0.950 . S
C1146 C1145 1.349 . S
C1146 C1158 1.349 . S
C1147 C1145 1.327 . S
C1147 C1163 1.429 . S
C1147 H1169 0.950 . S
C1148 H1144 0.949 . S
C1148 C1156 1.574 . S
C1148 C1164 1.368 . S
H1149 C1157 0.950 . S
H1150 C1155 0.950 . S
H1151 C1156 0.949 . S
H1152 C1158 0.950 . S
H1153 C1159 0.950 . S
H1154 C1160 0.949 . S
C1155 H1150 0.950 . S
C1155 C1157 1.327 . S
C1155 C1161 1.429 . S
C1156 C1148 1.574 . S
C1156 H1151 0.949 . S
C1156 C1162 1.368 . S
C1157 C1141 1.349 . S
C1157 H1149 0.950 . S
C1157 C1155 1.327 . S
C1158 C1146 1.349 . S
C1158 H1152 0.950 . S
C1158 C1159 1.327 . S
C1159 H1153 0.950 . S
C1159 C1158 1.327 . S
C1159 C1163 1.429 . S
C1160 C1143 1.574 . S
C1160 H1154 0.949 . S
C1160 C1164 1.368 . S
C1161 C1142 1.429 . S
C1161 C1155 1.429 . S
C1161 C1162 1.523 . S
C1162 C1143 1.368 . S
C1162 C1156 1.368 . S
C1162 C1161 1.523 . S
C1163 C1147 1.429 . S
C1163 C1159 1.429 . S
C1163 C1164 1.523 . S
C1164 C1148 1.368 . S
C1164 C1160 1.368 . S
C1164 C1163 1.523 . S
H1165 C1140 0.950 . S
H1166 C1142 0.950 . S
H1167 C1143 0.949 . S
H1168 C1145 0.950 . S
H1169 C1147 0.950 . S
C1170 C1171 1.349 . S
C1170 C1172 1.327 . S
C1170 H1195 0.950 . S
C1171 C1170 1.349 . S
C1171 C1187 1.349 1_455 S
C1172 C1170 1.327 . S
C1172 C1191 1.429 1_455 S
C1172 H1196 0.950 . S
C1173 C1190 1.574 . S
C1173 C1192 1.368 . S
C1173 H1197 0.949 . S
H1174 C1178 0.949 . S
C1175 C1176 1.349 . S
C1175 C1177 1.327 . S
C1175 H1198 0.950 . S
C1176 C1175 1.349 . S
C1176 C1188 1.349 . S
C1177 C1175 1.327 . S
C1177 C1193 1.429 . S
C1177 H1199 0.950 . S
C1178 H1174 0.949 . S
C1178 C1186 1.574 . S
C1178 C1194 1.368 . S
H1179 C1187 0.950 . S
H1180 C1185 0.950 . S
H1181 C1186 0.949 . S
H1182 C1188 0.950 1_565 S
H1183 C1189 0.920 1_565 S
H1184 C1190 0.949 . S
C1185 H1180 0.950 . S
C1185 C1187 1.327 . S
C1185 C1191 1.429 . S
C1186 C1178 1.574 . S
C1186 H1181 0.949 . S
C1186 C1192 1.368 . S
C1187 C1171 1.349 1_655 S
C1187 H1179 0.950 . S
C1187 C1185 1.327 . S
C1188 C1176 1.349 . S
C1188 H1182 0.950 1_545 S
C1188 C1189 1.327 . S
C1189 H1183 0.920 1_545 S
C1189 C1188 1.327 . S
C1189 C1193 1.429 . S
C1190 C1173 1.574 . S
C1190 H1184 0.949 . S
C1190 C1194 1.368 . S
C1191 C1172 1.429 1_655 S
C1191 C1185 1.429 . S
C1191 C1192 1.523 . S
C1192 C1173 1.368 . S
C1192 C1186 1.368 . S
C1192 C1191 1.523 . S
C1193 C1177 1.429 . S
C1193 C1189 1.429 . S
C1193 C1194 1.523 . S
C1194 C1178 1.368 . S
C1194 C1190 1.368 . S
C1194 C1193 1.523 . S
H1195 C1170 0.950 . S
H1196 C1172 0.950 . S
H1197 C1173 0.949 . S
H1198 C1175 0.950 . S
H1199 C1177 0.950 . S
C1200 C1201 1.349 . S
C1200 C1202 1.327 . S
C1200 H1225 0.950 . S
C1201 C1200 1.349 . S
C1201 C1217 1.349 . S
C1202 C1200 1.327 . S
C1202 C1221 1.429 . S
C1202 H1226 0.950 . S
C1203 C1220 1.574 . S
C1203 C1222 1.368 . S
C1203 H1227 0.949 . S
H1204 C1208 0.949 . S
C1205 C1206 1.349 . S
C1205 C1207 1.327 . S
C1205 H1228 0.950 . S
C1206 C1205 1.349 . S
C1206 C1218 1.349 . S
C1207 C1205 1.327 . S
C1207 C1223 1.429 . S
C1207 H1229 0.950 . S
C1208 H1204 0.949 . S
C1208 C1216 1.574 . S
C1208 C1224 1.368 . S
H1209 C1217 0.950 . S
H1210 C1215 0.950 . S
H1211 C1216 0.949 . S
H1212 C1218 0.950 . S
H1213 C1219 0.950 . S
H1214 C1220 0.949 . S
C1215 H1210 0.950 . S
C1215 C1217 1.327 . S
C1215 C1221 1.429 . S
C1216 C1208 1.574 . S
C1216 H1211 0.949 . S
C1216 C1222 1.368 . S
C1217 C1201 1.349 . S
C1217 H1209 0.950 . S
C1217 C1215 1.327 . S
C1218 C1206 1.349 . S
C1218 H1212 0.950 . S
C1218 C1219 1.327 . S
C1219 H1213 0.950 . S
C1219 C1218 1.327 . S
C1219 C1223 1.429 . S
C1220 C1203 1.574 . S
C1220 H1214 0.949 . S
C1220 C1224 1.368 . S
C1221 C1202 1.429 . S
C1221 C1215 1.429 . S
C1221 C1222 1.523 . S
C1222 C1203 1.368 . S
C1222 C1216 1.368 . S
C1222 C1221 1.523 . S
C1223 C1207 1.429 . S
C1223 C1219 1.429 . S
C1223 C1224 1.523 . S
C1224 C1208 1.368 . S
C1224 C1220 1.368 . S
C1224 C1223 1.523 . S
H1225 C1200 0.950 . S
H1226 C1202 0.950 . S
H1227 C1203 0.949 . S
H1228 C1205 0.950 . S
H1229 C1207 0.950 . S
C1230 C1231 1.349 . S
C1230 C1232 1.356 . S
C1230 H1255 0.950 . S
C1231 C1230 1.349 . S
C1231 C1247 1.349 1_655 S
C1232 C1230 1.356 . S
C1232 C1251 1.388 1_655 S
C1232 H1256 0.964 . S
C1233 C1250 1.574 . S
C1233 C1252 1.368 . S
C1233 H1257 0.949 . S
H1234 C1238 0.949 . S
C1235 C1236 1.349 . S
C1235 C1237 1.327 . S
C1235 H1258 0.950 . S
C1236 C1235 1.349 . S
C1236 C1248 1.349 . S
C1237 C1235 1.327 . S
C1237 C1253 1.429 . S
C1237 H1259 0.950 . S
C1238 H1234 0.949 . S
C1238 C1246 1.574 . S
C1238 C1254 1.368 . S
H1239 C1247 0.950 . S
H1240 C1245 0.950 . S
H1241 C1246 0.949 . S
H1242 C1248 0.950 . S
H1243 C1249 0.950 . S
H1244 C1250 0.949 . S
C1245 H1240 0.950 . S
C1245 C1247 1.327 . S
C1245 C1251 1.429 . S
C1246 C1238 1.574 . S
C1246 H1241 0.949 . S
C1246 C1252 1.368 . S
C1247 C1231 1.349 1_455 S
C1247 H1239 0.950 . S
C1247 C1245 1.327 . S
C1248 C1236 1.349 . S
C1248 H1242 0.950 . S
C1248 C1249 1.327 . S
C1249 H1243 0.950 . S
C1249 C1248 1.327 . S
C1249 C1253 1.429 . S
C1250 C1233 1.574 . S
C1250 H1244 0.949 . S
C1250 C1254 1.368 . S
C1251 C1232 1.388 1_455 S
C1251 C1245 1.429 . S
C1251 C1252 1.523 . S
C1252 C1233 1.368 . S
C1252 C1246 1.368 . S
C1252 C1251 1.523 . S
C1253 C1237 1.429 . S
C1253 C1249 1.429 . S
C1253 C1254 1.523 . S
C1254 C1238 1.368 . S
C1254 C1250 1.368 . S
C1254 C1253 1.523 . S
H1255 C1230 0.950 . S
H1256 C1232 0.964 . S
H1257 C1233 0.949 . S
H1258 C1235 0.950 . S
H1259 C1237 0.950 . S
C1260 C1261 1.349 . S
C1260 C1262 1.327 . S
C1260 H1285 0.950 . S
C1261 C1260 1.349 . S
C1261 C1277 1.349 . S
C1262 C1260 1.327 . S
C1262 C1281 1.429 . S
C1262 H1286 0.950 . S
C1263 C1280 1.574 . S
C1263 C1282 1.368 . S
C1263 H1287 0.949 . S
H1264 C1268 0.949 . S
C1265 C1266 1.349 . S
C1265 C1267 1.327 . S
C1265 H1288 0.950 . S
C1266 C1265 1.349 . S
C1266 C1278 1.349 . S
C1267 C1265 1.327 . S
C1267 C1283 1.429 . S
C1267 H1289 0.950 . S
C1268 H1264 0.949 . S
C1268 C1276 1.574 . S
C1268 C1284 1.368 . S
H1269 C1277 0.950 . S
H1270 C1275 0.950 . S
H1271 C1276 0.949 . S
H1272 C1278 0.950 . S
H1273 C1279 0.950 . S
H1274 C1280 0.949 . S
C1275 H1270 0.950 . S
C1275 C1277 1.327 . S
C1275 C1281 1.429 . S
C1276 C1268 1.574 . S
C1276 H1271 0.949 . S
C1276 C1282 1.368 . S
C1277 C1261 1.349 . S
C1277 H1269 0.950 . S
C1277 C1275 1.327 . S
C1278 C1266 1.349 . S
C1278 H1272 0.950 . S
C1278 C1279 1.327 . S
C1279 H1273 0.950 . S
C1279 C1278 1.327 . S
C1279 C1283 1.429 . S
C1280 C1263 1.574 . S
C1280 H1274 0.949 . S
C1280 C1284 1.368 . S
C1281 C1262 1.429 . S
C1281 C1275 1.429 . S
C1281 C1282 1.523 . S
C1282 C1263 1.368 . S
C1282 C1276 1.368 . S
C1282 C1281 1.523 . S
C1283 C1267 1.429 . S
C1283 C1279 1.429 . S
C1283 C1284 1.523 . S
C1284 C1268 1.368 . S
C1284 C1280 1.368 . S
C1284 C1283 1.523 . S
H1285 C1260 0.950 . S
H1286 C1262 0.950 . S
H1287 C1263 0.949 . S
H1288 C1265 0.950 . S
H1289 C1267 0.950 . S
C1290 C1291 1.349 1_556 S
C1290 C1292 1.327 . S
C1290 H1315 0.950 . S
C1291 C1290 1.349 1_554 S
C1291 C1307 1.349 . S
C1292 C1290 1.327 . S
C1292 C1311 1.429 . S
C1292 H1316 0.950 . S
C1293 C1310 1.574 . S
C1293 C1312 1.368 . S
C1293 H1317 0.949 . S
H1294 C1298 0.949 . S
C1295 C1296 1.349 . S
C1295 C1297 1.327 . S
C1295 H1318 0.950 . S
C1296 C1295 1.349 . S
C1296 C1308 1.349 . S
C1297 C1295 1.327 . S
C1297 C1313 1.429 . S
C1297 H1319 0.950 . S
C1298 H1294 0.949 . S
C1298 C1306 1.574 . S
C1298 C1314 1.368 . S
H1299 C1307 0.950 . S
H1300 C1305 0.950 . S
H1301 C1306 0.949 . S
H1302 C1308 0.949 . S
H1303 C1309 0.950 . S
H1304 C1310 0.949 . S
C1305 H1300 0.950 . S
C1305 C1307 1.327 . S
C1305 C1311 1.429 1_554 S
C1306 C1298 1.574 . S
C1306 H1301 0.949 . S
C1306 C1312 1.368 . S
C1307 C1291 1.349 . S
C1307 H1299 0.950 . S
C1307 C1305 1.327 . S
C1308 C1296 1.349 . S
C1308 H1302 0.949 . S
C1308 C1309 1.327 . S
C1309 H1303 0.950 . S
C1309 C1308 1.327 . S
C1309 C1313 1.429 . S
C1310 C1293 1.574 . S
C1310 H1304 0.949 . S
C1310 C1314 1.368 . S
C1311 C1292 1.429 . S
C1311 C1305 1.429 1_556 S
C1311 C1312 1.523 . S
C1312 C1293 1.368 . S
C1312 C1306 1.368 . S
C1312 C1311 1.523 . S
C1313 C1297 1.429 . S
C1313 C1309 1.429 . S
C1313 C1314 1.523 . S
C1314 C1298 1.368 . S
C1314 C1310 1.368 . S
C1314 C1313 1.523 . S
H1315 C1290 0.950 . S
H1316 C1292 0.950 . S
H1317 C1293 0.949 . S
H1318 C1295 0.950 . S
H1319 C1297 0.950 . S
C1320 C1321 1.349 . S
C1320 C1322 1.327 . S
C1320 H1345 0.950 . S
C1321 C1320 1.349 . S
C1321 C1337 1.349 . S
C1322 C1320 1.327 . S
C1322 C1341 1.429 . S
C1322 H1346 0.950 . S
C1323 C1340 1.574 . S
C1323 C1342 1.368 . S
C1323 H1347 0.949 . S
H1324 C1328 0.949 . S
C1325 C1326 1.349 . S
C1325 C1327 1.327 . S
C1325 H1348 0.950 . S
C1326 C1325 1.349 . S
C1326 C1338 1.349 . S
C1327 C1325 1.327 . S
C1327 C1343 1.429 . S
C1327 H1349 0.950 . S
C1328 H1324 0.949 . S
C1328 C1336 1.574 . S
C1328 C1344 1.368 . S
H1329 C1337 0.950 . S
H1330 C1335 0.950 . S
H1331 C1336 0.949 . S
H1332 C1338 0.950 . S
H1333 C1339 0.950 . S
H1334 C1340 0.949 . S
C1335 H1330 0.950 . S
C1335 C1337 1.327 . S
C1335 C1341 1.429 . S
C1336 C1328 1.574 . S
C1336 H1331 0.949 . S
C1336 C1342 1.368 . S
C1337 C1321 1.349 . S
C1337 H1329 0.950 . S
C1337 C1335 1.327 . S
C1338 C1326 1.349 . S
C1338 H1332 0.950 . S
C1338 C1339 1.327 . S
C1339 H1333 0.950 . S
C1339 C1338 1.327 . S
C1339 C1343 1.429 . S
C1340 C1323 1.574 . S
C1340 H1334 0.949 . S
C1340 C1344 1.368 . S
C1341 C1322 1.429 . S
C1341 C1335 1.429 . S
C1341 C1342 1.523 . S
C1342 C1323 1.368 . S
C1342 C1336 1.368 . S
C1342 C1341 1.523 . S
C1343 C1327 1.429 . S
C1343 C1339 1.429 . S
C1343 C1344 1.523 . S
C1344 C1328 1.368 . S
C1344 C1340 1.368 . S
C1344 C1343 1.523 . S
H1345 C1320 0.950 . S
H1346 C1322 0.950 . S
H1347 C1323 0.949 . S
H1348 C1325 0.950 . S
H1349 C1327 0.950 . S
C1350 C1351 1.349 . S
C1350 C1352 1.327 . S
C1350 H1375 0.950 . S
C1351 C1350 1.349 . S
C1351 C1367 1.349 1_554 S
C1352 C1350 1.327 . S
C1352 C1371 1.429 1_554 S
C1352 H1376 0.950 . S
C1353 C1370 1.574 . S
C1353 C1372 1.368 . S
C1353 H1377 0.949 . S
H1354 C1358 0.949 . S
C1355 C1356 1.349 . S
C1355 C1357 1.327 . S
C1355 H1378 0.950 1_455 S
C1356 C1355 1.349 . S
C1356 C1368 1.349 . S
C1357 C1355 1.327 . S
C1357 C1373 1.429 . S
C1357 H1379 0.950 1_455 S
C1358 H1354 0.949 . S
C1358 C1366 1.574 . S
C1358 C1374 1.368 . S
H1359 C1367 0.950 . S
H1360 C1365 0.950 . S
H1361 C1366 0.949 . S
H1362 C1368 0.950 . S
H1363 C1369 0.950 . S
H1364 C1370 0.949 . S
C1365 H1360 0.950 . S
C1365 C1367 1.327 . S
C1365 C1371 1.429 . S
C1366 C1358 1.574 . S
C1366 H1361 0.949 . S
C1366 C1372 1.368 . S
C1367 C1351 1.349 1_556 S
C1367 H1359 0.950 . S
C1367 C1365 1.327 . S
C1368 C1356 1.349 . S
C1368 H1362 0.950 . S
C1368 C1369 1.327 . S
C1369 H1363 0.950 . S
C1369 C1368 1.327 . S
C1369 C1373 1.429 . S
C1370 C1353 1.574 . S
C1370 H1364 0.949 . S
C1370 C1374 1.368 . S
C1371 C1352 1.429 1_556 S
C1371 C1365 1.429 . S
C1371 C1372 1.523 . S
C1372 C1353 1.368 . S
C1372 C1366 1.368 . S
C1372 C1371 1.523 . S
C1373 C1357 1.429 . S
C1373 C1369 1.429 . S
C1373 C1374 1.523 . S
C1374 C1358 1.368 . S
C1374 C1370 1.368 . S
C1374 C1373 1.523 . S
H1375 C1350 0.950 . S
H1376 C1352 0.950 . S
H1377 C1353 0.949 . S
H1378 C1355 0.950 1_655 S
H1379 C1357 0.950 1_655 S
C1380 C1381 1.349 . S
C1380 C1382 1.327 . S
C1380 H1405 0.950 . S
C1381 C1380 1.349 . S
C1381 C1397 1.349 . S
C1382 C1380 1.327 . S
C1382 C1401 1.429 . S
C1382 H1406 0.950 . S
C1383 C1400 1.574 . S
C1383 C1402 1.368 . S
C1383 H1407 0.949 . S
H1384 C1388 0.949 . S
C1385 C1386 1.349 . S
C1385 C1387 1.327 . S
C1385 H1408 0.950 . S
C1386 C1385 1.349 . S
C1386 C1398 1.349 . S
C1387 C1385 1.327 . S
C1387 C1403 1.429 . S
C1387 H1409 0.950 . S
C1388 H1384 0.949 . S
C1388 C1396 1.574 . S
C1388 C1404 1.368 . S
H1389 C1397 0.950 . S
H1390 C1395 0.950 . S
H1391 C1396 0.949 . S
H1392 C1398 0.950 . S
H1393 C1399 0.950 . S
H1394 C1400 0.949 . S
C1395 H1390 0.950 . S
C1395 C1397 1.327 . S
C1395 C1401 1.429 . S
C1396 C1388 1.574 . S
C1396 H1391 0.949 . S
C1396 C1402 1.368 . S
C1397 C1381 1.349 . S
C1397 H1389 0.950 . S
C1397 C1395 1.327 . S
C1398 C1386 1.349 . S
C1398 H1392 0.950 . S
C1398 C1399 1.327 . S
C1399 H1393 0.950 . S
C1399 C1398 1.327 . S
C1399 C1403 1.429 . S
C1400 C1383 1.574 . S
C1400 H1394 0.949 . S
C1400 C1404 1.368 . S
C1401 C1382 1.429 . S
C1401 C1395 1.429 . S
C1401 C1402 1.523 . S
C1402 C1383 1.368 . S
C1402 C1396 1.368 . S
C1402 C1401 1.523 . S
C1403 C1387 1.429 . S
C1403 C1399 1.429 . S
C1403 C1404 1.523 . S
C1404 C1388 1.368 . S
C1404 C1400 1.368 . S
C1404 C1403 1.523 . S
H1405 C1380 0.950 . S
H1406 C1382 0.950 . S
H1407 C1383 0.949 . S
H1408 C1385 0.950 . S
H1409 C1387 0.950 . S
C1410 C1411 1.349 1_554 S
C1410 C1412 1.327 . S
C1410 H1435 0.950 . S
C1411 C1410 1.349 1_556 S
C1411 C1427 1.349 . S
C1412 C1410 1.327 . S
C1412 C1431 1.429 . S
C1412 H1436 0.950 . S
C1413 C1430 1.574 . S
C1413 C1432 1.368 . S
C1413 H1437 0.949 . S
H1414 C1418 0.949 . S
C1415 C1416 1.349 . S
C1415 C1417 1.327 . S
C1415 H1438 0.950 . S
C1416 C1415 1.349 . S
C1416 C1428 1.349 . S
C1417 C1415 1.327 . S
C1417 C1433 1.429 . S
C1417 H1439 0.950 . S
C1418 H1414 0.949 . S
C1418 C1426 1.574 . S
C1418 C1434 1.368 . S
H1419 C1427 0.950 . S
H1420 C1425 0.950 . S
H1421 C1426 0.949 . S
H1422 C1428 0.950 . S
H1423 C1429 0.950 . S
H1424 C1430 0.949 . S
C1425 H1420 0.950 . S
C1425 C1427 1.327 . S
C1425 C1431 1.429 1_556 S
C1426 C1418 1.574 . S
C1426 H1421 0.949 . S
C1426 C1432 1.368 . S
C1427 C1411 1.349 . S
C1427 H1419 0.950 . S
C1427 C1425 1.327 . S
C1428 C1416 1.349 . S
C1428 H1422 0.950 . S
C1428 C1429 1.327 . S
C1429 H1423 0.950 . S
C1429 C1428 1.327 . S
C1429 C1433 1.429 . S
C1430 C1413 1.574 . S
C1430 H1424 0.949 . S
C1430 C1434 1.368 . S
C1431 C1412 1.429 . S
C1431 C1425 1.429 1_554 S
C1431 C1432 1.523 . S
C1432 C1413 1.368 . S
C1432 C1426 1.368 . S
C1432 C1431 1.523 . S
C1433 C1417 1.429 . S
C1433 C1429 1.429 . S
C1433 C1434 1.523 . S
C1434 C1418 1.368 . S
C1434 C1430 1.368 . S
C1434 C1433 1.523 . S
H1435 C1410 0.950 . S
H1436 C1412 0.950 . S
H1437 C1413 0.949 . S
H1438 C1415 0.950 . S
H1439 C1417 0.950 . S
C1440 C1441 1.349 . S
C1440 C1442 1.327 . S
C1440 H1465 0.950 . S
C1441 C1440 1.349 . S
C1441 C1457 1.349 . S
C1442 C1440 1.327 . S
C1442 C1461 1.429 . S
C1442 H1466 0.950 . S
C1443 C1460 1.574 . S
C1443 C1462 1.368 . S
C1443 H1467 0.949 . S
H1444 C1448 0.949 . S
C1445 C1446 1.349 . S
C1445 C1447 1.327 . S
C1445 H1468 0.950 . S
C1446 C1445 1.349 . S
C1446 C1458 1.349 . S
C1447 C1445 1.327 . S
C1447 C1463 1.429 . S
C1447 H1469 0.950 . S
C1448 H1444 0.949 . S
C1448 C1456 1.574 . S
C1448 C1464 1.368 . S
H1449 C1457 0.950 . S
H1450 C1455 0.950 . S
H1451 C1456 0.949 . S
H1452 C1458 0.950 . S
H1453 C1459 0.950 . S
H1454 C1460 0.949 . S
C1455 H1450 0.950 . S
C1455 C1457 1.327 . S
C1455 C1461 1.429 . S
C1456 C1448 1.574 . S
C1456 H1451 0.949 . S
C1456 C1462 1.368 . S
C1457 C1441 1.349 . S
C1457 H1449 0.950 . S
C1457 C1455 1.327 . S
C1458 C1446 1.349 . S
C1458 H1452 0.950 . S
C1458 C1459 1.327 . S
C1459 H1453 0.950 . S
C1459 C1458 1.327 . S
C1459 C1463 1.429 . S
C1460 C1443 1.574 . S
C1460 H1454 0.949 . S
C1460 C1464 1.368 . S
C1461 C1442 1.429 . S
C1461 C1455 1.429 . S
C1461 C1462 1.523 . S
C1462 C1443 1.368 . S
C1462 C1456 1.368 . S
C1462 C1461 1.523 . S
C1463 C1447 1.429 . S
C1463 C1459 1.429 . S
C1463 C1464 1.523 . S
C1464 C1448 1.368 . S
C1464 C1460 1.368 . S
C1464 C1463 1.523 . S
H1465 C1440 0.950 . S
H1466 C1442 0.950 . S
H1467 C1443 0.949 . S
H1468 C1445 0.950 . S
H1469 C1447 0.950 . S
C1470 C1471 1.349 1_554 S
C1470 C1472 1.327 . S
C1470 H1495 0.950 . S
C1471 C1470 1.349 1_556 S
C1471 C1487 1.349 . S
C1472 C1470 1.327 . S
C1472 C1491 1.429 . S
C1472 H1496 0.950 . S
C1473 C1490 1.574 . S
C1473 C1492 1.368 . S
C1473 H1497 0.949 . S
H1474 C1478 0.949 . S
C1475 C1476 1.349 . S
C1475 C1477 1.327 . S
C1475 H1498 0.950 . S
C1476 C1475 1.349 . S
C1476 C1488 1.349 . S
C1477 C1475 1.327 . S
C1477 C1493 1.429 . S
C1477 H1499 0.950 . S
C1478 H1474 0.949 . S
C1478 C1486 1.574 . S
C1478 C1494 1.368 . S
H1479 C1487 0.950 . S
H1480 C1485 0.950 . S
H1481 C1486 0.949 . S
H1482 C1488 0.950 . S
H1483 C1489 0.950 . S
H1484 C1490 0.949 . S
C1485 H1480 0.950 . S
C1485 C1487 1.327 . S
C1485 C1491 1.429 1_556 S
C1486 C1478 1.574 . S
C1486 H1481 0.949 . S
C1486 C1492 1.368 . S
C1487 C1471 1.349 . S
C1487 H1479 0.950 . S
C1487 C1485 1.327 . S
C1488 C1476 1.349 . S
C1488 H1482 0.950 . S
C1488 C1489 1.327 . S
C1489 H1483 0.950 . S
C1489 C1488 1.327 . S
C1489 C1493 1.429 . S
C1490 C1473 1.574 . S
C1490 H1484 0.949 . S
C1490 C1494 1.368 . S
C1491 C1472 1.429 . S
C1491 C1485 1.429 1_554 S
C1491 C1492 1.523 . S
C1492 C1473 1.368 . S
C1492 C1486 1.368 . S
C1492 C1491 1.523 . S
C1493 C1477 1.429 . S
C1493 C1489 1.429 . S
C1493 C1494 1.523 . S
C1494 C1478 1.368 . S
C1494 C1490 1.368 . S
C1494 C1493 1.523 . S
H1495 C1470 0.950 . S
H1496 C1472 0.950 . S
H1497 C1473 0.949 . S
H1498 C1475 0.950 . S
H1499 C1477 0.950 . S
C1500 C1501 1.349 . S
C1500 C1502 1.327 . S
C1500 H1525 0.950 . S
C1501 C1500 1.349 . S
C1501 C1517 1.349 . S
C1502 C1500 1.327 . S
C1502 C1521 1.429 . S
C1502 H1526 0.950 . S
C1503 C1520 1.574 . S
C1503 C1522 1.368 . S
C1503 H1527 0.949 . S
H1504 C1508 0.949 . S
C1505 C1506 1.349 . S
C1505 C1507 1.327 . S
C1505 H1528 0.950 . S
C1506 C1505 1.349 . S
C1506 C1518 1.349 . S
C1507 C1505 1.327 . S
C1507 C1523 1.429 . S
C1507 H1529 0.950 . S
C1508 H1504 0.949 . S
C1508 C1516 1.574 . S
C1508 C1524 1.368 . S
H1509 C1517 0.950 . S
H1510 C1515 0.950 . S
H1511 C1516 0.949 . S
H1512 C1518 0.950 . S
H1513 C1519 0.950 . S
H1514 C1520 0.949 . S
C1515 H1510 0.950 . S
C1515 C1517 1.327 . S
C1515 C1521 1.429 . S
C1516 C1508 1.574 . S
C1516 H1511 0.949 . S
C1516 C1522 1.368 . S
C1517 C1501 1.349 . S
C1517 H1509 0.950 . S
C1517 C1515 1.327 . S
C1518 C1506 1.349 . S
C1518 H1512 0.950 . S
C1518 C1519 1.327 . S
C1519 H1513 0.950 . S
C1519 C1518 1.327 . S
C1519 C1523 1.429 . S
C1520 C1503 1.574 . S
C1520 H1514 0.949 . S
C1520 C1524 1.368 . S
C1521 C1502 1.429 . S
C1521 C1515 1.429 . S
C1521 C1522 1.523 . S
C1522 C1503 1.368 . S
C1522 C1516 1.368 . S
C1522 C1521 1.523 . S
C1523 C1507 1.429 . S
C1523 C1519 1.429 . S
C1523 C1524 1.523 . S
C1524 C1508 1.368 . S
C1524 C1520 1.368 . S
C1524 C1523 1.523 . S
H1525 C1500 0.950 . S
H1526 C1502 0.950 . S
H1527 C1503 0.949 . S
H1528 C1505 0.950 . S
H1529 C1507 0.950 . S
C1530 C1531 1.349 . S
C1530 C1532 1.327 . S
C1530 H1555 0.950 . S
C1531 C1530 1.349 . S
C1531 C1547 1.349 . S
C1532 C1530 1.327 . S
C1532 C1551 1.429 . S
C1532 H1556 0.950 . S
C1533 C1550 1.574 . S
C1533 C1552 1.368 . S
C1533 H1557 0.949 . S
H1534 C1538 0.949 . S
C1535 C1536 1.349 . S
C1535 C1537 1.327 . S
C1535 H1558 0.950 . S
C1536 C1535 1.349 . S
C1536 C1548 1.349 . S
C1537 C1535 1.327 . S
C1537 C1553 1.429 . S
C1537 H1559 0.950 . S
C1538 H1534 0.949 . S
C1538 C1546 1.574 . S
C1538 C1554 1.368 . S
H1539 C1547 0.950 . S
H1540 C1545 0.950 . S
H1541 C1546 0.949 . S
H1542 C1548 0.950 . S
H1543 C1549 0.950 . S
H1544 C1550 0.949 . S
C1545 H1540 0.950 . S
C1545 C1547 1.327 . S
C1545 C1551 1.429 . S
C1546 C1538 1.574 . S
C1546 H1541 0.949 . S
C1546 C1552 1.368 . S
C1547 C1531 1.349 . S
C1547 H1539 0.950 . S
C1547 C1545 1.327 . S
C1548 C1536 1.349 . S
C1548 H1542 0.950 . S
C1548 C1549 1.327 . S
C1549 H1543 0.950 . S
C1549 C1548 1.327 . S
C1549 C1553 1.429 . S
C1550 C1533 1.574 . S
C1550 H1544 0.949 . S
C1550 C1554 1.368 . S
C1551 C1532 1.429 . S
C1551 C1545 1.429 . S
C1551 C1552 1.523 . S
C1552 C1533 1.368 . S
C1552 C1546 1.368 . S
C1552 C1551 1.523 . S
C1553 C1537 1.429 . S
C1553 C1549 1.429 . S
C1553 C1554 1.523 . S
C1554 C1538 1.368 . S
C1554 C1550 1.368 . S
C1554 C1553 1.523 . S
H1555 C1530 0.950 . S
H1556 C1532 0.950 . S
H1557 C1533 0.949 . S
H1558 C1535 0.950 . S
H1559 C1537 0.950 . S
C1560 C1561 1.349 . S
C1560 C1562 1.327 . S
C1560 H1585 0.950 . S
C1561 C1560 1.349 . S
C1561 C1577 1.349 . S
C1562 C1560 1.327 . S
C1562 C1581 1.429 . S
C1562 H1586 0.950 . S
C1563 C1580 1.574 . S
C1563 C1582 1.368 . S
C1563 H1587 0.949 . S
H1564 C1568 0.949 . S
C1565 C1566 1.349 . S
C1565 C1567 1.327 . S
C1565 H1588 0.950 . S
C1566 C1565 1.349 . S
C1566 C1578 1.349 . S
C1567 C1565 1.327 . S
C1567 C1583 1.429 . S
C1567 H1589 0.950 . S
C1568 H1564 0.949 . S
C1568 C1576 1.574 . S
C1568 C1584 1.368 . S
H1569 C1577 0.950 . S
H1570 C1575 0.950 . S
H1571 C1576 0.949 . S
H1572 C1578 0.950 . S
H1573 C1579 0.950 . S
H1574 C1580 0.949 . S
C1575 H1570 0.950 . S
C1575 C1577 1.327 . S
C1575 C1581 1.429 . S
C1576 C1568 1.574 . S
C1576 H1571 0.949 . S
C1576 C1582 1.368 . S
C1577 C1561 1.349 . S
C1577 H1569 0.950 . S
C1577 C1575 1.327 . S
C1578 C1566 1.349 . S
C1578 H1572 0.950 . S
C1578 C1579 1.327 . S
C1579 H1573 0.950 . S
C1579 C1578 1.327 . S
C1579 C1583 1.429 . S
C1580 C1563 1.574 . S
C1580 H1574 0.949 . S
C1580 C1584 1.368 . S
C1581 C1562 1.429 . S
C1581 C1575 1.429 . S
C1581 C1582 1.523 . S
C1582 C1563 1.368 . S
C1582 C1576 1.368 . S
C1582 C1581 1.523 . S
C1583 C1567 1.429 . S
C1583 C1579 1.429 . S
C1583 C1584 1.523 . S
C1584 C1568 1.368 . S
C1584 C1580 1.368 . S
C1584 C1583 1.523 . S
H1585 C1560 0.950 . S
H1586 C1562 0.950 . S
H1587 C1563 0.949 . S
H1588 C1565 0.950 . S
H1589 C1567 0.950 . S
C1590 C1591 1.349 . S
C1590 C1592 1.327 . S
C1590 H1615 0.950 . S
C1591 C1590 1.349 . S
C1591 C1607 1.349 . S
C1592 C1590 1.327 . S
C1592 C1611 1.429 . S
C1592 H1616 0.950 . S
C1593 C1610 1.574 . S
C1593 C1612 1.368 . S
C1593 H1617 0.949 . S
H1594 C1598 0.949 . S
C1595 C1596 1.349 . S
C1595 C1597 1.327 . S
C1595 H1618 0.950 . S
C1596 C1595 1.349 . S
C1596 C1608 1.349 . S
C1597 C1595 1.327 . S
C1597 C1613 1.429 . S
C1597 H1619 0.950 . S
C1598 H1594 0.949 . S
C1598 C1606 1.574 . S
C1598 C1614 1.368 . S
H1599 C1607 0.950 . S
H1600 C1605 0.950 . S
H1601 C1606 0.949 . S
H1602 C1608 0.950 . S
H1603 C1609 0.950 . S
H1604 C1610 0.949 . S
C1605 H1600 0.950 . S
C1605 C1607 1.327 . S
C1605 C1611 1.429 . S
C1606 C1598 1.574 . S
C1606 H1601 0.949 . S
C1606 C1612 1.368 . S
C1607 C1591 1.349 . S
C1607 H1599 0.950 . S
C1607 C1605 1.327 . S
C1608 C1596 1.349 . S
C1608 H1602 0.950 . S
C1608 C1609 1.327 . S
C1609 H1603 0.950 . S
C1609 C1608 1.327 . S
C1609 C1613 1.429 . S
C1610 C1593 1.574 . S
C1610 H1604 0.949 . S
C1610 C1614 1.368 . S
C1611 C1592 1.429 . S
C1611 C1605 1.429 . S
C1611 C1612 1.523 . S
C1612 C1593 1.368 . S
C1612 C1606 1.368 . S
C1612 C1611 1.523 . S
C1613 C1597 1.429 . S
C1613 C1609 1.429 . S
C1613 C1614 1.523 . S
C1614 C1598 1.368 . S
C1614 C1610 1.368 . S
C1614 C1613 1.523 . S
H1615 C1590 0.950 . S
H1616 C1592 0.950 . S
H1617 C1593 0.949 . S
H1618 C1595 0.950 . S
H1619 C1597 0.950 . S
C1620 C1621 1.349 . S
C1620 C1622 1.327 . S
C1620 H1645 0.950 . S
C1621 C1620 1.349 . S
C1621 C1637 1.349 . S
C1622 C1620 1.327 . S
C1622 C1641 1.429 . S
C1622 H1646 0.950 . S
C1623 C1640 1.574 . S
C1623 C1642 1.368 . S
C1623 H1647 0.949 1_556 S
H1624 C1628 0.949 . S
C1625 C1626 1.349 1_554 S
C1625 C1627 1.327 . S
C1625 H1648 0.950 . S
C1626 C1625 1.349 1_556 S
C1626 C1638 1.349 . S
C1627 C1625 1.327 . S
C1627 C1643 1.429 1_554 S
C1627 H1649 0.950 . S
C1628 H1624 0.949 . S
C1628 C1636 1.574 . S
C1628 C1644 1.368 . S
H1629 C1637 0.950 . S
H1630 C1635 0.950 1_554 S
H1631 C1636 0.949 . S
H1632 C1638 0.950 . S
H1633 C1639 0.950 . S
H1634 C1640 0.949 1_554 S
C1635 H1630 0.950 1_556 S
C1635 C1637 1.327 . S
C1635 C1641 1.429 . S
C1636 C1628 1.574 . S
C1636 H1631 0.949 . S
C1636 C1642 1.368 . S
C1637 C1621 1.349 . S
C1637 H1629 0.950 . S
C1637 C1635 1.327 . S
C1638 C1626 1.349 . S
C1638 H1632 0.950 . S
C1638 C1639 1.327 . S
C1639 H1633 0.950 . S
C1639 C1638 1.327 . S
C1639 C1643 1.429 . S
C1640 C1623 1.574 . S
C1640 H1634 0.949 1_556 S
C1640 C1644 1.368 . S
C1641 C1622 1.429 . S
C1641 C1635 1.429 . S
C1641 C1642 1.523 . S
C1642 C1623 1.368 . S
C1642 C1636 1.368 . S
C1642 C1641 1.523 . S
C1643 C1627 1.429 1_556 S
C1643 C1639 1.429 . S
C1643 C1644 1.523 . S
C1644 C1628 1.368 . S
C1644 C1640 1.368 . S
C1644 C1643 1.523 . S
H1645 C1620 0.950 . S
H1646 C1622 0.950 . S
H1647 C1623 0.949 1_554 S
H1648 C1625 0.950 . S
H1649 C1627 0.950 . S
C1650 C1651 1.349 . S
C1650 C1652 1.327 . S
C1650 H1675 0.950 . S
C1651 C1650 1.349 . S
C1651 C1667 1.349 . S
C1652 C1650 1.327 . S
C1652 C1671 1.429 . S
C1652 H1676 0.950 . S
C1653 C1670 1.574 . S
C1653 C1672 1.368 . S
C1653 H1677 0.949 . S
H1654 C1658 0.949 . S
C1655 C1656 1.349 . S
C1655 C1657 1.327 . S
C1655 H1678 0.950 . S
C1656 C1655 1.349 . S
C1656 C1668 1.349 . S
C1657 C1655 1.327 . S
C1657 C1673 1.429 . S
C1657 H1679 0.950 . S
C1658 H1654 0.949 . S
C1658 C1666 1.574 . S
C1658 C1674 1.368 . S
H1659 C1667 0.950 . S
H1660 C1665 0.950 . S
H1661 C1666 0.949 . S
H1662 C1668 0.950 . S
H1663 C1669 0.950 . S
H1664 C1670 0.949 . S
C1665 H1660 0.950 . S
C1665 C1667 1.327 . S
C1665 C1671 1.429 . S
C1666 C1658 1.574 . S
C1666 H1661 0.949 . S
C1666 C1672 1.368 . S
C1667 C1651 1.349 . S
C1667 H1659 0.950 . S
C1667 C1665 1.327 . S
C1668 C1656 1.349 . S
C1668 H1662 0.950 . S
C1668 C1669 1.327 . S
C1669 H1663 0.950 . S
C1669 C1668 1.327 . S
C1669 C1673 1.429 . S
C1670 C1653 1.574 . S
C1670 H1664 0.949 . S
C1670 C1674 1.368 . S
C1671 C1652 1.429 . S
C1671 C1665 1.429 . S
C1671 C1672 1.523 . S
C1672 C1653 1.368 . S
C1672 C1666 1.368 . S
C1672 C1671 1.523 . S
C1673 C1657 1.429 . S
C1673 C1669 1.429 . S
C1673 C1674 1.523 . S
C1674 C1658 1.368 . S
C1674 C1670 1.368 . S
C1674 C1673 1.523 . S
H1675 C1650 0.950 . S
H1676 C1652 0.950 . S
H1677 C1653 0.949 . S
H1678 C1655 0.950 . S
H1679 C1657 0.950 . S
C1680 C1681 1.349 . S
C1680 C1682 1.327 . S
C1680 H1705 0.950 . S
C1681 C1680 1.349 . S
C1681 C1697 1.349 . S
C1682 C1680 1.327 . S
C1682 C1701 1.429 . S
C1682 H1706 0.950 . S
C1683 C1700 1.574 . S
C1683 C1702 1.368 . S
C1683 H1707 0.949 1_554 S
H1684 C1688 0.949 . S
C1685 C1686 1.349 1_556 S
C1685 C1687 1.327 . S
C1685 H1708 0.950 . S
C1686 C1685 1.349 1_554 S
C1686 C1698 1.349 . S
C1687 C1685 1.327 . S
C1687 C1703 1.429 1_556 S
C1687 H1709 0.950 . S
C1688 H1684 0.949 . S
C1688 C1696 1.574 . S
C1688 C1704 1.368 . S
H1689 C1697 0.950 . S
H1690 C1695 0.947 1_556 S
H1691 C1696 0.949 . S
H1692 C1698 0.950 . S
H1693 C1699 0.950 . S
H1694 C1700 0.949 1_556 S
C1695 H1690 0.947 1_554 S
C1695 C1697 1.327 . S
C1695 C1701 1.429 . S
C1696 C1688 1.574 . S
C1696 H1691 0.949 . S
C1696 C1702 1.368 . S
C1697 C1681 1.349 . S
C1697 H1689 0.950 . S
C1697 C1695 1.327 . S
C1698 C1686 1.349 . S
C1698 H1692 0.950 . S
C1698 C1699 1.327 . S
C1699 H1693 0.950 . S
C1699 C1698 1.327 . S
C1699 C1703 1.429 . S
C1700 C1683 1.574 . S
C1700 H1694 0.949 1_554 S
C1700 C1704 1.368 . S
C1701 C1682 1.429 . S
C1701 C1695 1.429 . S
C1701 C1702 1.523 . S
C1702 C1683 1.368 . S
C1702 C1696 1.368 . S
C1702 C1701 1.523 . S
C1703 C1687 1.429 1_554 S
C1703 C1699 1.429 . S
C1703 C1704 1.523 . S
C1704 C1688 1.368 . S
C1704 C1700 1.368 . S
C1704 C1703 1.523 . S
H1705 C1680 0.950 . S
H1706 C1682 0.950 . S
H1707 C1683 0.949 1_556 S
H1708 C1685 0.950 . S
H1709 C1687 0.950 . S
C1710 C1711 1.349 . S
C1710 C1712 1.327 1_545 S
C1710 H1735 0.963 . S
C1711 C1710 1.349 . S
C1711 C1727 1.349 . S
C1712 C1710 1.327 1_565 S
C1712 C1731 1.429 . S
C1712 H1736 0.950 . S
C1713 C1730 1.574 . S
C1713 C1732 1.368 . S
C1713 H1737 0.925 1_565 S
H1714 C1718 0.949 . S
C1715 C1716 1.349 . S
C1715 C1717 1.327 . S
C1715 H1738 0.950 1_554 S
C1716 C1715 1.349 . S
C1716 C1728 1.349 . S
C1717 C1715 1.327 . S
C1717 C1733 1.429 . S
C1717 H1739 0.950 1_554 S
C1718 H1714 0.949 . S
C1718 C1726 1.574 . S
C1718 C1734 1.368 . S
H1719 C1727 0.950 . S
H1720 C1725 0.950 . S
H1721 C1726 0.949 . S
H1722 C1728 0.950 . S
H1723 C1729 0.950 . S
H1724 C1730 0.949 . S
C1725 H1720 0.950 . S
C1725 C1727 1.327 . S
C1725 C1731 1.429 1_545 S
C1726 C1718 1.574 . S
C1726 H1721 0.949 . S
C1726 C1732 1.368 . S
C1727 C1711 1.349 . S
C1727 H1719 0.950 . S
C1727 C1725 1.327 . S
C1728 C1716 1.349 . S
C1728 H1722 0.950 . S
C1728 C1729 1.327 . S
C1729 H1723 0.950 . S
C1729 C1728 1.327 . S
C1729 C1733 1.429 . S
C1730 C1713 1.574 . S
C1730 H1724 0.949 . S
C1730 C1734 1.368 . S
C1731 C1712 1.429 . S
C1731 C1725 1.429 1_565 S
C1731 C1732 1.523 . S
C1732 C1713 1.368 . S
C1732 C1726 1.368 . S
C1732 C1731 1.523 . S
C1733 C1717 1.429 . S
C1733 C1729 1.429 . S
C1733 C1734 1.523 . S
C1734 C1718 1.368 . S
C1734 C1730 1.368 . S
C1734 C1733 1.523 . S
H1735 C1710 0.963 . S
H1736 C1712 0.950 . S
H1737 C1713 0.925 1_545 S
H1738 C1715 0.950 1_556 S
H1739 C1717 0.950 1_556 S
C306 C154 1.418 . S
C301 C50 1.427 . S
C336 C167 1.590 . S
C331 C61 1.603 . S
C361 C67 1.464 . S
C366 C180 1.451 . S
C396 C193 1.518 . S
C391 C41 1.530 . S
C426 C201 1.460 . S
C421 C95 1.486 . S
C456 C214 1.420 . S
C451 C113 1.439 . S
C481 C106 1.510 . S
C486 C227 1.483 . S
C516 C240 1.503 . S
C511 C86 1.522 . S
C541 C104 1.434 . S
C546 C258 1.422 . S
C576 C269 1.518 . S
C571 C88 1.545 . S
C601 C94 1.470 . S
C606 C253 1.448 . S
C636 C261 1.453 . S
C631 C112 1.478 . S
C661 C70 1.492 . S
C666 C284 1.481 . S
C691 C40 1.521 . S
C696 C274 1.492 . S
C721 C49 1.514 . S
C726 C279 1.488 . S
C751 C59 1.578 . S
C756 C282 1.549 . S
C781 C34 1.436 . S
C786 C191 1.412 . S
C811 C133 1.418 . S
C816 C183 1.399 . S
C846 C152 1.550 1_556 S
C841 C139 1.580 . S
C876 C157 1.501 . S
C871 C77 1.523 . S
C901 C43 1.533 . S
C906 C204 1.503 . S
C936 C243 1.509 . S
C931 C103 1.535 . S
C966 C196 1.500 . S
C961 C85 1.528 . S
C996 C222 1.435 . S
C991 C115 1.464 . S
C1026 C232 1.418 . S
C1021 C131 1.427 . S
C1051 C142 1.603 . S
C1056 C245 1.590 . S
C1081 C76 1.463 . S
C1086 C206 1.451 . S
C1116 C219 1.518 . S
C1111 C122 1.530 . S
C1141 C32 1.486 . S
C1146 C175 1.460 . S
C1176 C188 1.420 . S
C1171 C5 1.439 . S
C1206 C149 1.484 . S
C1201 C16 1.510 . S
C1236 C162 1.503 . S
C1231 C23 1.522 . S
C1261 C14 1.434 . S
C1266 C271 1.422 . S
C1291 C25 1.545 . S
C1296 C256 1.510 1_655 S
C1321 C31 1.470 . S
C1326 C266 1.447 . S
C1351 C4 1.478 . S
C1356 C248 1.453 . S
C1386 C297 1.481 . S
C1381 C79 1.491 . S
C1416 C287 1.492 . S
C1411 C121 1.521 . S
C1446 C292 1.488 . S
C1441 C130 1.514 . S
C1471 C140 1.578 . S
C1476 C295 1.547 . S
C1501 C97 1.436 . S
C1506 C217 1.412 . S
C1536 C209 1.399 . S
C1531 C52 1.418 . S
C1566 C230 1.553 . S
C1561 C58 1.580 . S
C1596 C235 1.501 . S
C1591 C68 1.525 . S
C1621 C124 1.531 . S
C1626 C178 1.503 . S
C1656 C165 1.509 . S
C1651 C13 1.537 . S
C1681 C22 1.528 . S
C1686 C170 1.500 . S
C1716 C144 1.435 . S
C1711 C7 1.464 . S
