# Generated by pormake.
# Topology anh, (6,3)-cn, num edge types: 1
# Building blocks:
#     Node 0, Type 0, BuildingBlock: CUKXOW_clean_sbu_0, # of connection points: 6
#     Node 1, Type 0, BuildingBlock: CUKXOW_clean_sbu_0, # of connection points: 6
#     Node 2, Type 0, BuildingBlock: CUKXOW_clean_sbu_0, # of connection points: 6
#     Node 3, Type 1, BuildingBlock: ESEHIV_clean_linker_0, # of connection points: 3
#     Node 4, Type 1, BuildingBlock: ESEHIV_clean_linker_0, # of connection points: 3
#     Node 5, Type 1, BuildingBlock: ESEHIV_clean_linker_0, # of connection points: 3
#     Node 6, Type 1, BuildingBlock: ESEHIV_clean_linker_0, # of connection points: 3
#     Node 7, Type 1, BuildingBlock: ESEHIV_clean_linker_0, # of connection points: 3
#     Node 8, Type 1, BuildingBlock: ESEHIV_clean_linker_0, # of connection points: 3
#     Edge 9, Type (0, 1), BuildingBlock: TEMPAE_clean_linker_10, # of connection points: 2
#     Edge 10, Type (0, 1), BuildingBlock: TEMPAE_clean_linker_10, # of connection points: 2
#     Edge 11, Type (0, 1), BuildingBlock: TEMPAE_clean_linker_10, # of connection points: 2
#     Edge 12, Type (0, 1), BuildingBlock: TEMPAE_clean_linker_10, # of connection points: 2
#     Edge 13, Type (0, 1), BuildingBlock: TEMPAE_clean_linker_10, # of connection points: 2
#     Edge 14, Type (0, 1), BuildingBlock: TEMPAE_clean_linker_10, # of connection points: 2
#     Edge 15, Type (0, 1), BuildingBlock: TEMPAE_clean_linker_10, # of connection points: 2
#     Edge 16, Type (0, 1), BuildingBlock: TEMPAE_clean_linker_10, # of connection points: 2
#     Edge 17, Type (0, 1), BuildingBlock: TEMPAE_clean_linker_10, # of connection points: 2
#     Edge 18, Type (0, 1), BuildingBlock: TEMPAE_clean_linker_10, # of connection points: 2
#     Edge 19, Type (0, 1), BuildingBlock: TEMPAE_clean_linker_10, # of connection points: 2
#     Edge 20, Type (0, 1), BuildingBlock: TEMPAE_clean_linker_10, # of connection points: 2
#     Edge 21, Type (0, 1), BuildingBlock: TEMPAE_clean_linker_10, # of connection points: 2
#     Edge 22, Type (0, 1), BuildingBlock: TEMPAE_clean_linker_10, # of connection points: 2
#     Edge 23, Type (0, 1), BuildingBlock: TEMPAE_clean_linker_10, # of connection points: 2
#     Edge 24, Type (0, 1), BuildingBlock: TEMPAE_clean_linker_10, # of connection points: 2
#     Edge 25, Type (0, 1), BuildingBlock: TEMPAE_clean_linker_10, # of connection points: 2
#     Edge 26, Type (0, 1), BuildingBlock: TEMPAE_clean_linker_10, # of connection points: 2
# Relax obj value: 0.137
# Max RMSD: 0.194
# Mean RMSD: 0.141
data_MOF--net-anh--node1-CUKXOW_clean_sbu_0--node2-ESEHIV_clean_linker_0--edge1-TEMPAE_clean_linker_10
_symmetry_space_group_name_H-M    P1
_symmetry_Int_Tables_number       1
_symmetry_cell_setting            triclinic
loop_
_symmetry_equiv_pos_as_xyz
'x, y, z'
_cell_length_a     26.909719
_cell_length_b     26.207031
_cell_length_c     50.890791
_cell_angle_alpha  94.947626
_cell_angle_beta   90.002878
_cell_angle_gamma 113.1238
loop_
_atom_site_label
_atom_site_type_symbol
_atom_site_fract_x
_atom_site_fract_y
_atom_site_fract_z
_atom_type_partial_charge
Tb0 Tb 0.10043 0.54495 0.15607 0.0
C1 C 0.06123 0.47196 0.20439 0.0
Tb2 Tb 0.02725 0.41742 0.1455 0.0
O3 O 0.03492 0.56506 0.1402 0.0
O4 O 1.01693 0.4922 0.1585 0.0
O5 O 0.0955 0.51918 0.19582 0.0
C6 C 0.93514 0.32764 0.13778 0.0
O7 O 0.0281 0.42884 0.18855 0.0
C8 C 0.13224 0.43598 0.14636 0.0
C9 C 0.07729 0.48901 0.09789 0.0
O10 O 0.97979 0.32845 0.14794 0.0
O11 O 0.94276 0.37716 0.13167 0.0
O12 O 0.09351 0.38649 0.14259 0.0
O13 O 0.10904 0.46942 0.14918 0.0
O14 O 0.03756 0.44388 0.10537 0.0
O15 O 0.11007 0.52999 0.11454 0.0
C16 C 0.18565 0.64077 0.16551 0.0
O17 O 0.18563 0.59614 0.15246 0.0
O18 O 0.13733 0.63157 0.17374 0.0
C19 C 0.9962 0.51902 0.14587 0.0
Tb20 Tb 0.47655 0.99197 0.49954 0.0
C21 C 0.54489 0.04069 0.45139 0.0
Tb22 Tb 0.59451 0.07347 0.50886 0.0
O23 O 0.45544 0.05739 0.48449 0.0
O24 O 0.51785 0.07726 0.51266 0.0
O25 O 0.50663 0.99587 0.45973 0.0
C26 C 0.68358 0.16561 0.51892 0.0
O27 O 0.57906 0.08113 0.46782 0.0
C28 C 0.57973 0.96923 0.4933 0.0
C29 C 0.52799 0.023 0.55814 0.0
O30 O 0.67989 0.11535 0.52155 0.0
O31 O 0.63712 0.16367 0.51092 0.0
O32 O 0.62312 0.01242 0.48928 0.0
O33 O 0.5507 0.98606 0.50807 0.0
O34 O 0.57364 0.05983 0.54963 0.0
O35 O 0.48613 0.99104 0.54215 0.0
C36 C 0.38514 0.90143 0.49445 0.0
O37 O 0.39074 0.94832 0.50757 0.0
O38 O 0.43065 0.90598 0.48425 0.0
C39 C 0.49464 0.09766 0.49777 0.0
Tb40 Tb 0.50896 0.5006 0.81964 0.0
C41 C 0.5699 0.50808 0.87467 0.0
Tb42 Tb 0.63378 0.54897 0.82488 0.0
O43 O 0.49195 0.41127 0.81226 0.0
O44 O 0.56998 0.47051 0.81826 0.0
O45 O 0.52611 0.50806 0.8624 0.0
C46 C 0.7402 0.59035 0.82122 0.0
O47 O 0.61538 0.51507 0.86251 0.0
C48 C 0.58593 0.61714 0.8396 0.0
C49 C 0.57707 0.53379 0.76902 0.0
O50 O 0.70905 0.61594 0.81673 0.0
O51 O 0.71129 0.54034 0.82754 0.0
O52 O 0.6302 0.61898 0.85045 0.0
O53 O 0.57254 0.58009 0.82051 0.0
O54 O 0.62026 0.53522 0.78215 0.0
O55 O 0.53129 0.52807 0.78063 0.0
C56 C 0.41063 0.50065 0.82021 0.0
O57 O 0.43412 0.49126 0.7992 0.0
O58 O 0.44225 0.50939 0.84082 0.0
C59 C 0.54266 0.41902 0.8143 0.0
H60 H 0.48433 0.97777 0.25569 0.0
H61 H 0.63371 0.11675 0.24926 0.0
H62 H 0.56083 0.99934 0.18116 0.0
C63 C 0.51708 1.00172 0.24367 0.0
C64 C 0.51704 0.98427 0.21688 0.0
C65 C 0.55981 0.0485 0.25538 0.0
C66 C 0.60207 0.0795 0.23991 0.0
C67 C 0.60347 0.06267 0.21289 0.0
C68 C 0.56027 0.01461 0.20156 0.0
H69 H 0.57515 0.63261 0.57279 0.0
H70 H 0.56655 0.46507 0.56418 0.0
H71 H 0.545 0.54059 0.49578 0.0
C72 C 0.57001 0.59519 0.56026 0.0
C73 C 0.56075 0.59319 0.53282 0.0
C74 C 0.57129 0.54902 0.57183 0.0
C75 C 0.56497 0.50088 0.55556 0.0
C76 C 0.55523 0.49733 0.52832 0.0
C77 C 0.55363 0.54372 0.51679 0.0
H78 H 0.08122 0.6947 0.93811 0.0
H79 H 0.21358 0.6494 0.91697 0.0
H80 H 0.1374 0.70414 0.85845 0.0
C81 C 0.10974 0.69208 0.92361 0.0
C82 C 0.10466 0.70398 0.89748 0.0
C83 C 0.14729 0.67002 0.93039 0.0
C84 C 0.18503 0.6673 0.912 0.0
C85 C 0.1821 0.6812 0.8863 0.0
C86 C 0.1419 0.69895 0.87907 0.0
H87 H 0.96346 0.4114 0.4063 0.0
H88 H 0.09815 0.56646 0.40155 0.0
H89 H 1.01831 0.5309 0.47492 0.0
C90 C 0.99029 0.45143 0.41581 0.0
C91 C 0.98569 0.46599 0.44275 0.0
C92 C 0.03027 0.48783 0.40091 0.0
C93 C 0.06681 0.53871 0.41307 0.0
C94 C 0.06293 0.55427 0.43982 0.0
C95 C 1.02214 0.51795 0.45449 0.0
H96 H 0.56244 0.08831 0.7561 0.0
H97 H 0.53316 0.91531 0.75627 0.0
H98 H 0.58786 0.025 0.82796 0.0
C99 C 0.56136 0.05369 0.76667 0.0
C100 C 0.5772 0.06314 0.79351 0.0
C101 C 0.54524 1.00068 0.75312 0.0
C102 C 0.54515 0.95645 0.76669 0.0
C103 C 0.56041 0.96476 0.79365 0.0
C104 C 0.5755 0.01813 0.80725 0.0
H105 H 0.49047 0.49045 0.07406 0.0
H106 H 0.64793 0.48753 0.07494 0.0
H107 H 0.55957 0.46881 0.14693 0.0
C108 C 0.52337 0.48721 0.08515 0.0
C109 C 0.51782 0.47811 0.11205 0.0
C110 C 0.56942 0.48961 0.07182 0.0
C111 C 0.61228 0.48529 0.08557 0.0
C112 C 0.61028 0.47874 0.11273 0.0
C113 C 0.5626 0.47552 0.12619 0.0
C114 C 0.22884 0.49353 0.13506 0.0
C115 C 0.19155 0.44824 0.14694 0.0
C116 C 0.28365 0.50066 0.13277 0.0
C117 C 0.30228 0.46225 0.14306 0.0
C118 C 0.26511 0.41818 0.1563 0.0
C119 C 0.21036 0.41118 0.15761 0.0
C120 C 0.32084 0.5476 0.11797 0.0
C121 C 0.28269 0.37702 0.16834 0.0
C122 C 0.41622 0.43377 0.10817 0.0
C123 C 0.4631 0.46842 0.12327 0.0
C124 C 0.36454 0.43176 0.1144 0.0
C125 C 0.35801 0.46363 0.13706 0.0
C126 C 0.40455 0.49608 0.15347 0.0
C127 C 0.45651 0.49853 0.14629 0.0
C128 C 0.31702 0.39687 0.09598 0.0
C129 C 0.39968 0.5294 0.17826 0.0
H130 H 0.21456 0.52163 0.1262 0.0
H131 H 0.18191 0.37606 0.16685 0.0
H132 H 0.35861 0.57192 0.12985 0.0
H133 H 0.33233 0.5301 0.09944 0.0
H134 H 0.30173 0.57631 0.1129 0.0
H135 H 0.2516 0.3504 0.18118 0.0
H136 H 0.29041 0.3496 0.15245 0.0
H137 H 0.32099 0.39919 0.18017 0.0
H138 H 0.42031 0.40951 0.09057 0.0
H139 H 0.49206 0.52563 0.15811 0.0
H140 H 0.29778 0.42359 0.08854 0.0
H141 H 0.28605 0.36477 0.10672 0.0
H142 H 0.32892 0.37559 0.0788 0.0
H143 H 0.38898 0.56411 0.173 0.0
H144 H 0.4379 0.54717 0.19046 0.0
H145 H 0.36676 0.5029 0.19029 0.0
C146 C 0.78117 0.20758 0.50998 0.0
C147 C 0.73419 0.21466 0.51762 0.0
C148 C 0.82544 0.25217 0.50151 0.0
C149 C 0.82296 0.30521 0.5016 0.0
C150 C 0.77764 0.31363 0.51196 0.0
C151 C 0.7332 0.26784 0.51939 0.0
C152 C 0.87232 0.24105 0.48996 0.0
C153 C 0.77425 0.36994 0.51334 0.0
C154 C 0.95256 0.42351 0.4853 0.0
C155 C 0.943 0.42694 0.45847 0.0
C156 C 0.913 0.38577 0.5 0.0
C157 C 0.86362 0.349 0.48731 0.0
C158 C 0.85348 0.35238 0.46036 0.0
C159 C 0.89271 0.39206 0.44648 0.0
C160 C 0.92431 0.38474 0.52896 0.0
C161 C 0.8016 0.3132 0.44594 0.0
H162 H 0.78158 0.16622 0.50843 0.0
H163 H 0.69671 0.27315 0.52541 0.0
H164 H 0.87145 0.24291 0.46826 0.0
H165 H 0.91139 0.27328 0.49798 0.0
H166 H 0.8708 0.19944 0.49394 0.0
H167 H 0.74241 0.3721 0.52675 0.0
H168 H 0.81358 0.40351 0.5202 0.0
H169 H 0.76436 0.37813 0.49339 0.0
H170 H 0.99132 0.44956 0.49483 0.0
H171 H 0.88388 0.39536 0.42608 0.0
H172 H 0.92836 0.34527 0.5323 0.0
H173 H 0.89007 0.38633 0.54067 0.0
H174 H 0.96197 0.4201 0.53651 0.0
H175 H 0.79603 0.26933 0.44756 0.0
H176 H 0.80106 0.3198 0.42469 0.0
H177 H 0.76653 0.31901 0.45505 0.0
C178 C 0.52825 0.66471 0.82474 0.0
C179 C 0.57037 0.66537 0.84112 0.0
C180 C 0.52085 0.71399 0.82157 0.0
C181 C 0.55673 0.76493 0.83496 0.0
C182 C 0.59592 0.76465 0.85344 0.0
C183 C 0.60213 0.71471 0.85638 0.0
C184 C 0.47776 0.71221 0.8021 0.0
C185 C 0.63479 0.81787 0.86823 0.0
C186 C 0.59406 0.8895 0.7952 0.0
C187 C 0.56328 0.91746 0.80652 0.0
C188 C 0.59299 0.8406 0.80474 0.0
C189 C 0.55987 0.81871 0.82606 0.0
C190 C 0.52962 0.84754 0.83806 0.0
C191 C 0.53205 0.89708 0.82825 0.0
C192 C 0.62632 0.8116 0.79148 0.0
C193 C 0.49393 0.82541 0.86078 0.0
H194 H 0.50308 0.62636 0.81322 0.0
H195 H 0.63435 0.7152 0.86933 0.0
H196 H 0.45594 0.73785 0.81026 0.0
H197 H 0.49698 0.72986 0.78384 0.0
H198 H 0.44801 0.66897 0.79671 0.0
H199 H 0.65623 0.80958 0.88495 0.0
H200 H 0.66541 0.84204 0.85454 0.0
H201 H 0.61338 0.84424 0.87593 0.0
H202 H 0.61836 0.90555 0.77845 0.0
H203 H 0.50801 0.91868 0.83685 0.0
H204 H 0.59932 0.76962 0.78253 0.0
H205 H 0.65353 0.80582 0.80625 0.0
H206 H 0.65132 0.83521 0.77575 0.0
H207 H 0.46647 0.78126 0.85565 0.0
H208 H 0.46926 0.84987 0.86634 0.0
H209 H 0.51922 0.82661 0.87822 0.0
C210 C 0.89906 0.47245 0.15973 0.0
C211 C 0.93709 0.50788 0.14351 0.0
C212 C 0.84386 0.46467 0.15843 0.0
C213 C 0.82552 0.49221 0.14016 0.0
C214 C 0.86387 0.52741 0.12354 0.0
C215 C 0.91884 0.53521 0.12561 0.0
C216 C 0.80566 0.4282 0.17725 0.0
C217 C 0.84676 0.55673 0.1033 0.0
C218 C 0.67856 0.43531 0.11354 0.0
C219 C 0.659 0.47413 0.12525 0.0
C220 C 0.73128 0.43902 0.11924 0.0
C221 C 0.76626 0.48264 0.13729 0.0
C222 C 0.74542 0.51953 0.1507 0.0
C223 C 0.69233 0.51508 0.14444 0.0
C224 C 0.75072 0.39829 0.10446 0.0
C225 C 0.78028 0.56563 0.17068 0.0
H226 H 0.91265 0.45164 0.17389 0.0
H227 H 0.94772 0.56264 0.11298 0.0
H228 H 0.79893 0.4551 0.19372 0.0
H229 H 0.76574 0.40256 0.16746 0.0
H230 H 0.82226 0.40022 0.18571 0.0
H231 H 0.88117 0.58256 0.0918 0.0
H232 H 0.81565 0.5256 0.08938 0.0
H233 H 0.82819 0.58399 0.11317 0.0
H234 H 0.65344 0.40367 0.09856 0.0
H235 H 0.67821 0.54575 0.15339 0.0
H236 H 0.77231 0.38242 0.11808 0.0
H237 H 0.77978 0.4199 0.08958 0.0
H238 H 0.71694 0.36229 0.09412 0.0
H239 H 0.79934 0.5488 0.18512 0.0
H240 H 0.75685 0.58687 0.18151 0.0
H241 H 0.81333 0.59698 0.16055 0.0
C242 C 0.28656 0.84989 0.50122 0.0
C243 C 0.33495 0.85105 0.4906 0.0
C244 C 0.23822 0.80254 0.49623 0.0
C245 C 0.23873 0.75585 0.48017 0.0
C246 C 0.28796 0.7565 0.47005 0.0
C247 C 0.33549 0.80411 0.47545 0.0
C248 C 0.18652 0.80295 0.50753 0.0
C249 C 0.29023 0.70757 0.45283 0.0
C250 C 0.12814 0.61084 0.47664 0.0
C251 C 0.10242 0.60819 0.4523 0.0
C252 C 0.17064 0.66002 0.48692 0.0
C253 C 0.18772 0.70732 0.47242 0.0
C254 C 0.15967 0.70584 0.44865 0.0
C255 C 0.11724 0.65628 0.43892 0.0
C256 C 0.19934 0.66025 0.51245 0.0
C257 C 0.17656 0.75549 0.43265 0.0
H258 H 0.28632 0.88622 0.51306 0.0
H259 H 0.37305 0.80491 0.46736 0.0
H260 H 0.15848 0.8018 0.4913 0.0
H261 H 0.16596 0.76531 0.51809 0.0
H262 H 0.19374 0.84054 0.52137 0.0
H263 H 0.33218 0.71391 0.44755 0.0
H264 H 0.27271 0.66902 0.46305 0.0
H265 H 0.26568 0.70082 0.43435 0.0
H266 H 0.11687 0.57369 0.48702 0.0
H267 H 0.09661 0.65466 0.42037 0.0
H268 H 0.20575 0.69852 0.52557 0.0
H269 H 0.23976 0.66019 0.5082 0.0
H270 H 0.1765 0.62329 0.52313 0.0
H271 H 0.1806 0.79359 0.44535 0.0
H272 H 0.14734 0.74935 0.41606 0.0
H273 H 0.21672 0.76286 0.42439 0.0
C274 C 0.53207 0.32343 0.79894 0.0
C275 C 0.56215 0.37381 0.81369 0.0
C276 C 0.54538 0.27709 0.79978 0.0
C277 C 0.58895 0.28066 0.81653 0.0
C278 C 0.61997 0.33182 0.83136 0.0
C279 C 0.60654 0.37825 0.82951 0.0
C280 C 0.51216 0.22401 0.78292 0.0
C281 C 0.66565 0.3369 0.84998 0.0
C282 C 0.56637 0.1329 0.82725 0.0
C283 C 0.59467 0.1208 0.80621 0.0
C284 C 0.56969 0.18755 0.83337 0.0
C285 C 0.60124 0.23024 0.81774 0.0
C286 C 0.63515 0.2193 0.79881 0.0
C287 C 0.63177 0.1647 0.79345 0.0
C288 C 0.53468 0.19814 0.85449 0.0
C289 C 0.66955 0.26333 0.78172 0.0
H290 H 0.49771 0.32019 0.78674 0.0
H291 H 0.62918 0.41714 0.84127 0.0
H292 H 0.5389 0.20997 0.77032 0.0
H293 H 0.49076 0.19043 0.79572 0.0
H294 H 0.48161 0.22925 0.76996 0.0
H295 H 0.69078 0.38103 0.8569 0.0
H296 H 0.64859 0.3142 0.86744 0.0
H297 H 0.692 0.31764 0.84049 0.0
H298 H 0.53799 0.09909 0.83728 0.0
H299 H 0.6544 0.15536 0.77744 0.0
H300 H 0.49758 0.19847 0.84512 0.0
H301 H 0.55617 0.23934 0.86575 0.0
H302 H 0.52235 0.16531 0.86842 0.0
H303 H 0.64326 0.26893 0.76638 0.0
H304 H 0.70063 0.25148 0.77166 0.0
H305 H 0.69004 0.30404 0.7935 0.0
C306 C 0.61936 0.90372 0.50683 0.0
C307 C 0.57863 0.91238 0.49317 0.0
C308 C 0.61554 0.84954 0.51002 0.0
C309 C 0.57021 0.80284 0.49892 0.0
C310 C 0.53038 0.81162 0.48388 0.0
C311 C 0.53493 0.86636 0.48136 0.0
C312 C 0.65858 0.84235 0.52651 0.0
C313 C 0.48185 0.76332 0.47133 0.0
C314 C 0.58312 0.66255 0.4985 0.0
C315 C 0.55735 0.64287 0.52175 0.0
C316 C 0.58555 0.71336 0.49006 0.0
C317 C 0.56222 0.74551 0.50535 0.0
C318 C 0.53397 0.72445 0.5281 0.0
C319 C 0.53136 0.67332 0.53579 0.0
C320 C 0.61482 0.73364 0.46531 0.0
C321 C 0.50848 0.75711 0.54508 0.0
H322 H 0.65306 0.9394 0.51607 0.0
H323 H 0.50412 0.87315 0.47028 0.0
H324 H 0.64069 0.82294 0.54465 0.0
H325 H 0.67455 0.814 0.51549 0.0
H326 H 0.69283 0.88262 0.53238 0.0
H327 H 0.45966 0.77676 0.45683 0.0
H328 H 0.49424 0.73117 0.46123 0.0
H329 H 0.45363 0.74349 0.48683 0.0
H330 H 0.60322 0.63942 0.48747 0.0
H331 H 0.50991 0.65777 0.55334 0.0
H332 H 0.65268 0.77068 0.47058 0.0
H333 H 0.58962 0.74667 0.45236 0.0
H334 H 0.62527 0.70121 0.45404 0.0
H335 H 0.54026 0.79722 0.55338 0.0
H336 H 0.48648 0.73412 0.56167 0.0
H337 H 0.47979 0.76714 0.53302 0.0
C338 C 0.81936 0.6753 0.83629 0.0
C339 C 0.79854 0.61927 0.82605 0.0
C340 C 0.87253 0.70125 0.84648 0.0
C341 C 0.9058 0.67082 0.84532 0.0
C342 C 0.88646 0.61605 0.83244 0.0
C343 C 0.83229 0.59025 0.82352 0.0
C344 C 0.89089 0.75884 0.86086 0.0
C345 C 0.92178 0.5833 0.8298 0.0
C346 C 0.05469 0.73492 0.86467 0.0
C347 C 0.05468 0.70924 0.88784 0.0
C348 C 1.00626 0.72493 0.85082 0.0
C349 C 0.95675 0.69163 0.86138 0.0
C350 C 0.95611 0.6725 0.88655 0.0
C351 C 1.00494 0.68018 0.89913 0.0
C352 C 1.00869 0.74543 0.82383 0.0
C353 C 0.90377 0.63953 0.89922 0.0
H354 H 0.79283 0.69754 0.83832 0.0
H355 H 0.81595 0.54705 0.81534 0.0
H356 H 0.88923 0.75522 0.88244 0.0
H357 H 0.93327 0.78487 0.85655 0.0
H358 H 0.86469 0.7806 0.85565 0.0
H359 H 0.90425 0.54617 0.81523 0.0
H360 H 0.96276 0.60989 0.82369 0.0
H361 H 0.92633 0.56888 0.84918 0.0
H362 H 0.09262 0.75966 0.85627 0.0
H363 H 1.00316 0.65952 0.91681 0.0
H364 H 0.97525 0.75888 0.82018 0.0
H365 H 1.00443 0.71077 0.80865 0.0
H366 H 0.0478 0.78057 0.82116 0.0
H367 H 0.87406 0.65879 0.89717 0.0
H368 H 0.91006 0.63659 0.92052 0.0
H369 H 0.88589 0.59663 0.88922 0.0
C370 C 0.2824 0.69689 0.15867 0.0
C371 C 0.23376 0.69308 0.17002 0.0
C372 C 0.32962 0.74518 0.16349 0.0
C373 C 0.32805 0.79052 0.18016 0.0
C374 C 0.2786 0.78747 0.19107 0.0
C375 C 0.23183 0.73861 0.18581 0.0
C376 C 0.38151 0.74689 0.15146 0.0
C377 C 0.27554 0.83503 0.20903 0.0
C378 C 0.45515 0.88514 0.21922 0.0
C379 C 0.47212 0.93301 0.20559 0.0
C380 C 0.40886 0.83816 0.21081 0.0
C381 C 0.37895 0.83901 0.18812 0.0
C382 C 0.39707 0.88638 0.17361 0.0
C383 C 0.44369 0.93301 0.18254 0.0
C384 C 0.39114 0.78822 0.22667 0.0
C385 C 0.36628 0.88845 0.14921 0.0
H386 H 0.2838 0.66169 0.14629 0.0
H387 H 0.1941 0.73563 0.19447 0.0
H388 H 0.40056 0.78506 0.14108 0.0
H389 H 0.41058 0.74849 0.16728 0.0
H390 H 0.3749 0.70994 0.13727 0.0
H391 H 0.2334 0.82762 0.21439 0.0
H392 H 0.30007 0.8409 0.22742 0.0
H393 H 0.29272 0.87441 0.19941 0.0
H394 H 0.47769 0.88488 0.23684 0.0
H395 H 0.45674 0.97016 0.17208 0.0
H396 H 0.38725 0.75034 0.21383 0.0
H397 H 0.35077 0.78078 0.23468 0.0
H398 H 0.41988 0.79375 0.24339 0.0
H399 H 0.35988 0.85168 0.13499 0.0
H400 H 0.3876 0.92687 0.13925 0.0
H401 H 0.32577 0.8868 0.15461 0.0
C402 C 0.48869 0.17728 0.47598 0.0
C403 C 0.507 0.15781 0.49723 0.0
C404 C 0.49815 0.23406 0.47587 0.0
C405 C 0.52548 0.27195 0.4978 0.0
C406 C 0.54535 0.25254 0.51896 0.0
C407 C 0.53614 0.19581 0.51833 0.0
C408 C 0.47771 0.25324 0.4526 0.0
C409 C 0.57449 0.29124 0.54282 0.0
C410 C 0.5824 0.43052 0.49985 0.0
C411 C 0.54229 0.44226 0.51344 0.0
C412 C 0.57602 0.37498 0.49283 0.0
C413 C 0.52889 0.33053 0.50007 0.0
C414 C 0.48692 0.34259 0.51227 0.0
C415 C 0.49411 0.39825 0.51869 0.0
C416 C 0.62131 0.36403 0.47939 0.0
C417 C 0.43631 0.29684 0.52067 0.0
H418 H 0.46671 0.14803 0.45948 0.0
H419 H 0.55027 0.18084 0.5348 0.0
H420 H 0.44391 0.2653 0.45863 0.0
H421 H 0.51017 0.29062 0.44574 0.0
H422 H 0.46312 0.22028 0.43584 0.0
H423 H 0.58894 0.26999 0.55717 0.0
H424 H 0.60976 0.32702 0.53668 0.0
H425 H 0.54702 0.3083 0.55296 0.0
H426 H 0.62013 0.46453 0.49629 0.0
H427 H 0.4636 0.40746 0.52967 0.0
H428 H 0.60506 0.32928 0.46354 0.0
H429 H 0.64415 0.35161 0.49394 0.0
H430 H 0.64998 0.40156 0.47075 0.0
H431 H 0.41774 0.26458 0.50399 0.0
H432 H 0.40578 0.31289 0.52798 0.0
H433 H 0.44686 0.27624 0.53668 0.0
C434 C 0.35782 0.54809 0.80117 0.0
C435 C 0.3639 0.51564 0.82039 0.0
C436 C 0.3237 0.57676 0.80521 0.0
C437 C 0.29458 0.57123 0.82865 0.0
C438 C 0.29651 0.53367 0.84667 0.0
C439 C 0.33203 0.50697 0.8425 0.0
C440 C 0.32263 0.61656 0.7857 0.0
C441 C 0.26483 0.52549 0.87159 0.0
C442 C 0.26916 0.68424 0.86891 0.0
C443 C 0.21297 0.66459 0.86598 0.0
C444 C 0.29756 0.65779 0.85416 0.0
C445 C 0.2685 0.60995 0.83672 0.0
C446 C 0.21244 0.5936 0.83177 0.0
C447 C 0.1852 0.62147 0.84649 0.0
C448 C 0.35773 0.67729 0.85944 0.0
C449 C 0.18005 0.54283 0.81342 0.0
H450 H 0.38322 0.55505 0.78419 0.0
H451 H 0.33708 0.48169 0.85724 0.0
H452 H 0.28056 0.61174 0.78135 0.0
H453 H 0.34519 0.66004 0.79437 0.0
H454 H 0.34138 0.61029 0.76691 0.0
H455 H 0.26556 0.48977 0.88162 0.0
H456 H 0.28232 0.56366 0.88551 0.0
H457 H 0.22212 0.5183 0.86713 0.0
H458 H 0.2903 0.71785 0.88396 0.0
H459 H 0.14151 0.60622 0.84443 0.0
H460 H 0.3789 0.67806 0.84069 0.0
H461 H 0.36576 0.64786 0.87152 0.0
H462 H 0.37511 0.71946 0.87029 0.0
H463 H 0.20323 0.53857 0.79595 0.0
H464 H 0.14142 0.54425 0.80661 0.0
H465 H 0.17028 0.50503 0.82406 0.0
C466 C 0.83669 0.29539 0.14424 0.0
C467 C 0.88178 0.28232 0.13952 0.0
C468 C 0.78812 0.25515 0.15196 0.0
C469 C 0.78428 0.20016 0.15408 0.0
C470 C 0.82792 0.18551 0.14642 0.0
C471 C 0.87684 0.22723 0.13989 0.0
C472 C 0.74357 0.27375 0.16035 0.0
C473 C 0.82409 0.12653 0.14662 0.0
C474 C 0.70186 0.12408 0.2094 0.0
C475 C 0.65055 0.09465 0.19703 0.0
C476 C 0.74532 0.15869 0.19564 0.0
C477 C 0.73883 0.16111 0.16826 0.0
C478 C 0.68854 0.12868 0.1551 0.0
C479 C 0.6446 0.09705 0.16974 0.0
C480 C 0.79775 0.19406 0.2107 0.0
C481 C 0.68073 0.12884 0.12575 0.0
H482 H 0.84057 0.33813 0.14397 0.0
H483 H 0.91165 0.2171 0.13587 0.0
H484 H 0.70305 0.23928 0.1588 0.0
H485 H 0.75163 0.29165 0.18125 0.0
H486 H 0.74266 0.30666 0.14826 0.0
H487 H 0.85577 0.11953 0.13466 0.0
H488 H 0.82933 0.11788 0.16716 0.0
H489 H 0.78377 0.09624 0.13887 0.0
H490 H 0.70837 0.12088 0.23007 0.0
H491 H 0.60547 0.07526 0.15974 0.0
H492 H 0.80953 0.23857 0.20739 0.0
H493 H 0.83064 0.18167 0.2035 0.0
H494 H 0.79482 0.19023 0.23227 0.0
H495 H 0.68135 0.1698 0.12134 0.0
H496 H 0.64179 0.0958 0.11793 0.0
H497 H 0.71432 0.12274 0.11514 0.0
C498 C 0.04219 0.48863 0.05254 0.0
C499 C 0.08574 0.49743 0.06985 0.0
C500 C 0.0512 0.51117 0.02805 0.0
C501 C 0.10488 0.54272 0.02101 0.0
C502 C 0.14893 0.54741 0.03756 0.0
C503 C 0.13876 0.5247 0.06181 0.0
C504 C 1.0033 0.5048 0.01067 0.0
C505 C 0.20676 0.58007 0.03066 0.0
C506 C 0.13643 0.58418 0.95154 0.0
C507 C 0.13952 0.63915 0.95413 0.0
C508 C 0.1244 0.55191 0.97303 0.0
C509 C 0.11525 0.57521 -0.00231 0.0
C510 C 0.11843 0.63072 0.00049 0.0
C511 C 0.13034 0.66202 0.97859 0.0
C512 C 0.12114 0.49286 0.9693 0.0
C513 C 0.10939 0.65708 0.02663 0.0
H514 H 1.00122 0.46793 0.05893 0.0
H515 H 0.17243 0.53108 0.07525 0.0
H516 H 0.99906 0.54532 0.01124 0.0
H517 H 1.00941 0.4928 0.98987 0.0
H518 H 0.96503 0.47313 0.01716 0.0
H519 H 0.23623 0.57473 0.0443 0.0
H520 H 0.21408 0.56709 0.0102 0.0
H521 H 0.21454 0.62505 0.03165 0.0
H522 H 0.14204 0.56578 0.93245 0.0
H523 H 0.13245 0.70435 0.98056 0.0
H524 H 0.08051 0.46344 0.97443 0.0
H525 H 0.15101 0.48792 0.98279 0.0
H526 H 0.12894 0.48087 0.94872 0.0
H527 H 0.06888 0.63177 0.0337 0.0
H528 H 0.11235 0.70029 0.02537 0.0
H529 H 0.13976 0.65809 0.04164 0.0
C530 C 0.57265 0.0999 0.41388 0.0
C531 C 0.54879 0.04677 0.42287 0.0
C532 C 0.57611 0.10655 0.38681 0.0
C533 C 0.5561 0.05885 0.3684 0.0
C534 C 0.53224 0.00509 0.37739 0.0
C535 C 0.52839 0.99974 0.40456 0.0
C536 C 0.60087 0.16453 0.37792 0.0
C537 C 0.51115 0.95317 0.3583 0.0
C538 C 0.51779 0.06401 0.2974 0.0
C539 C 0.56244 0.06093 0.28432 0.0
C540 C 0.51642 0.06649 0.32501 0.0
C541 C 0.56033 0.06472 0.33967 0.0
C542 C 0.60655 0.06414 0.32658 0.0
C543 C 0.60719 0.06267 0.299 0.0
C544 C 0.46695 0.0683 0.33835 0.0
C545 C 0.65386 0.06157 0.34153 0.0
H546 H 0.5879 0.13644 0.42802 0.0
H547 H 0.51016 0.95863 0.41148 0.0
H548 H 0.63673 0.16906 0.36609 0.0
H549 H 0.57143 0.17164 0.36501 0.0
H550 H 0.61346 0.19733 0.39479 0.0
H551 H 0.4946 0.91448 0.36854 0.0
H552 H 0.47883 0.95425 0.34511 0.0
H553 H 0.5441 0.95141 0.34562 0.0
H554 H 0.4833 0.06282 0.28595 0.0
H555 H 0.64143 0.0596 0.28879 0.0
H556 H 0.47888 0.1015 0.355 0.0
H557 H 0.44454 0.0281 0.34668 0.0
H558 H 0.43921 0.07583 0.32448 0.0
H559 H 0.6681 0.09505 0.35802 0.0
H560 H 0.6883 0.06563 0.32865 0.0
H561 H 0.64091 0.02119 0.35029 0.0
C562 C 0.61907 0.52865 0.72555 0.0
C563 C 0.58023 0.54016 0.74043 0.0
C564 C 0.62094 0.53258 0.6982 0.0
C565 C 0.58365 0.54931 0.68559 0.0
C566 C 0.54549 0.5627 0.70067 0.0
C567 C 0.54394 0.55749 0.72787 0.0
C568 C 0.66164 0.51713 0.68269 0.0
C569 C 0.50562 0.58153 0.688 0.0
C570 C 0.61052 0.59701 0.61659 0.0
C571 C 0.57583 0.54942 0.60102 0.0
C572 C 0.61373 0.59766 0.64419 0.0
C573 C 0.58207 0.54934 0.65641 0.0
C574 C 0.54752 0.50104 0.6408 0.0
C575 C 0.54438 0.50188 0.61339 0.0
C576 C 0.65054 0.65014 0.66028 0.0
C577 C 0.51335 0.44854 0.65308 0.0
H578 H 0.64715 0.51514 0.73516 0.0
H579 H 0.51426 0.56717 0.73933 0.0
H580 H 0.64018 0.48009 0.66856 0.0
H581 H 0.68596 0.55159 0.67094 0.0
H582 H 0.68948 0.50752 0.69561 0.0
H583 H 0.48121 0.59418 0.70277 0.0
H584 H 0.52722 0.61721 0.67637 0.0
H585 H 0.4777 0.54727 0.67411 0.0
H586 H 0.63538 0.63372 0.60722 0.0
H587 H 0.51647 0.46532 0.60167 0.0
H588 H 0.68052 0.64142 0.67205 0.0
H589 H 0.62657 0.6649 0.67442 0.0
H590 H 0.67256 0.68415 0.64777 0.0
H591 H 0.53927 0.43514 0.66537 0.0
H592 H 0.49061 0.4137 0.63804 0.0
H593 H 0.48397 0.45675 0.66627 0.0
C594 C 0.5642 0.054 0.60453 0.0
C595 C 0.52447 0.01599 0.5867 0.0
C596 C 0.56271 0.04706 0.63153 0.0
C597 C 0.52061 1.00083 0.64094 0.0
C598 C 0.4801 0.96249 0.62315 0.0
C599 C 0.48241 0.97062 0.5962 0.0
C600 C 0.60645 0.08911 0.64998 0.0
C601 C 0.43476 0.91263 0.63254 0.0
C602 C 0.55483 0.9646 0.70711 0.0
C603 C 0.53189 0.99311 0.72442 0.0
C604 C 0.54894 0.96413 0.6797 0.0
C605 C 0.51959 0.99301 0.66949 0.0
C606 C 0.49375 0.01912 0.68684 0.0
C607 C 0.50013 0.01873 0.71413 0.0
C608 C 0.57682 0.93557 0.66176 0.0
C609 C 0.46194 0.05013 0.67668 0.0
H610 H 0.59669 0.08934 0.59742 0.0
H611 H 0.45166 0.94088 0.58255 0.0
H612 H 0.58812 0.10789 0.66547 0.0
H613 H 0.62864 0.0681 0.66008 0.0
H614 H 0.63598 0.12311 0.63952 0.0
H615 H 0.4059 0.88723 0.61622 0.0
H616 H 0.45165 0.88578 0.64178 0.0
H617 H 0.41223 0.92646 0.64786 0.0
H618 H 0.5797 0.94506 0.71498 0.0
H619 H 0.4816 0.04002 0.7275 0.0
H620 H 0.61108 0.96738 0.6525 0.0
H621 H 0.54859 0.90857 0.64561 0.0
H622 H 0.59274 0.90978 0.67257 0.0
H623 H 0.48983 0.08787 0.66795 0.0
H624 H 0.43989 0.06327 0.69254 0.0
H625 H 0.43235 0.02384 0.66085 0.0
C626 C 0.52071 0.47853 0.9161 0.0
C627 C 0.56944 0.50388 0.90346 0.0
C628 C 0.5202 0.47533 0.94353 0.0
C629 C 0.56946 0.49925 0.95867 0.0
C630 C 0.61868 0.52533 0.94601 0.0
C631 C 0.61813 0.52676 0.91853 0.0
C632 C 0.46704 0.44617 0.95629 0.0
C633 C 0.6719 0.55236 0.96151 0.0
C634 C 0.56279 0.53666 0.03206 0.0
C635 C 0.57115 0.49327 0.04296 0.0
C636 C 0.56262 0.53943 0.00463 0.0
C637 C 0.56969 0.49703 0.98778 0.0
C638 C 0.57774 0.45289 -0.00123 0.0
C639 C 0.57896 0.45188 0.02628 0.0
C640 C 0.55517 0.58782 0.9937 0.0
C641 C 0.58442 0.4064 0.98145 0.0
H642 H 0.48302 0.46062 0.90451 0.0
H643 H 0.65589 0.54704 0.90892 0.0
H644 H 0.46891 0.41198 0.96714 0.0
H645 H 0.45915 0.47577 0.97091 0.0
H646 H 0.43253 0.42846 0.94166 0.0
H647 H 0.70645 0.57193 0.94872 0.0
H648 H 0.67015 0.58481 0.97657 0.0
H649 H 0.67972 0.52095 0.97218 0.0
H650 H 0.55686 0.56865 0.04506 0.0
H651 H 0.58474 0.41798 0.03478 0.0
H652 H 0.51841 0.57237 0.98053 0.0
H653 H 0.59005 0.61016 0.98163 0.0
H654 H 0.55136 0.61793 0.00951 0.0
H655 H 0.54887 0.38587 0.9676 0.0
H656 H 0.58891 0.37439 0.99309 0.0
H657 H 0.62054 0.42353 0.96935 0.0
C658 C 0.03827 0.41734 0.2439 0.0
C659 C 0.05755 0.46889 0.23321 0.0
C660 C 0.03359 0.41443 0.27128 0.0
C661 C 0.04725 0.46417 0.28819 0.0
C662 C 0.06657 0.51626 0.27745 0.0
C663 C 0.07206 0.518 0.25014 0.0
C664 C 1.01403 0.35828 0.28212 0.0
C665 C 0.08054 0.57021 0.29476 0.0
C666 C 0.98759 0.46398 0.35567 0.0
C667 C 0.03264 0.4743 0.37227 0.0
C668 C 0.99115 0.45848 0.32815 0.0
C669 C 0.04069 0.46232 0.31712 0.0
C670 C 0.08541 0.46961 0.33391 0.0
C671 C 0.08104 0.47624 0.36135 0.0
C672 C 0.94291 0.45184 0.31093 0.0
C673 C 0.13851 0.47272 0.32289 0.0
H674 H 0.02731 0.3793 0.23087 0.0
H675 H 0.08644 0.55795 0.24197 0.0
H676 H 0.04407 0.35777 0.29693 0.0
H677 H 0.9757 0.35043 0.29237 0.0
H678 H 1.0071 0.32376 0.26643 0.0
H679 H 0.09423 0.60712 0.28323 0.0
H680 H 0.04473 0.56916 0.30589 0.0
H681 H 0.11303 0.57545 0.30945 0.0
H682 H 0.95034 0.46298 0.36422 0.0
H683 H 0.11573 0.48393 0.3743 0.0
H684 H 0.93355 0.41594 0.29581 0.0
H685 H 0.95241 0.48963 0.3003 0.0
H686 H 0.90632 0.44559 0.32252 0.0
H687 H 0.13169 0.43755 0.30761 0.0
H688 H 0.167 0.47179 0.33846 0.0
H689 H 0.15783 0.51186 0.31326 0.0
loop_
_geom_bond_atom_site_label_1
_geom_bond_atom_site_label_2
_geom_bond_distance
_geom_bond_site_symmetry_2
_ccdc_geom_bond_type
Tb0 O3 2.453 1_455 S
Tb0 O4 2.596 1_455 S
Tb0 O5 2.374 . S
Tb0 O13 2.343 . S
Tb0 O15 2.353 . S
Tb0 O17 2.427 . S
Tb0 O18 2.513 . S
C1 O5 1.251 . S
C1 O7 1.263 . S
Tb2 O4 2.343 1_455 S
Tb2 O7 2.353 . S
Tb2 O10 2.427 1_455 S
Tb2 O11 2.513 1_455 S
Tb2 O12 2.453 . S
Tb2 O13 2.596 . S
Tb2 O14 2.374 . S
O3 Tb0 2.453 1_655 S
O3 C19 1.245 . S
O4 Tb0 2.596 1_655 S
O4 Tb2 2.343 1_655 S
O4 C19 1.259 . S
O5 Tb0 2.374 . S
O5 C1 1.251 . S
C6 O10 1.275 . S
C6 O11 1.246 . S
O7 C1 1.263 . S
O7 Tb2 2.353 . S
C8 O12 1.245 . S
C8 O13 1.259 . S
C9 O14 1.250 . S
C9 O15 1.263 . S
O10 Tb2 2.427 1_655 S
O10 C6 1.275 . S
O11 Tb2 2.513 1_655 S
O11 C6 1.246 . S
O12 Tb2 2.453 . S
O12 C8 1.245 . S
O13 Tb0 2.343 . S
O13 Tb2 2.596 . S
O13 C8 1.259 . S
O14 Tb2 2.374 . S
O14 C9 1.250 . S
O15 Tb0 2.353 . S
O15 C9 1.263 . S
C16 O17 1.275 . S
C16 O18 1.246 . S
O17 Tb0 2.427 . S
O17 C16 1.275 . S
O18 Tb0 2.513 . S
O18 C16 1.246 . S
C19 O3 1.245 . S
C19 O4 1.259 . S
Tb20 O23 2.453 . S
Tb20 O24 2.596 . S
Tb20 O25 2.374 . S
Tb20 O33 2.343 1_545 S
Tb20 O35 2.353 . S
Tb20 O37 2.427 1_545 S
Tb20 O38 2.513 1_545 S
C21 O25 1.251 . S
C21 O27 1.263 . S
Tb22 O24 2.343 . S
Tb22 O27 2.353 . S
Tb22 O30 2.427 . S
Tb22 O31 2.513 . S
Tb22 O32 2.453 1_545 S
Tb22 O33 2.596 1_545 S
Tb22 O34 2.374 . S
O23 Tb20 2.453 . S
O23 C39 1.245 . S
O24 Tb20 2.596 . S
O24 Tb22 2.343 . S
O24 C39 1.259 . S
O25 Tb20 2.374 . S
O25 C21 1.251 . S
C26 O30 1.275 . S
C26 O31 1.246 . S
O27 C21 1.263 . S
O27 Tb22 2.353 . S
C28 O32 1.245 . S
C28 O33 1.259 . S
C29 O34 1.250 . S
C29 O35 1.263 . S
O30 Tb22 2.427 . S
O30 C26 1.275 . S
O31 Tb22 2.513 . S
O31 C26 1.246 . S
O32 Tb22 2.453 1_565 S
O32 C28 1.245 . S
O33 Tb20 2.343 1_565 S
O33 Tb22 2.596 1_565 S
O33 C28 1.259 . S
O34 Tb22 2.374 . S
O34 C29 1.250 . S
O35 Tb20 2.353 . S
O35 C29 1.263 . S
C36 O37 1.275 . S
C36 O38 1.246 . S
O37 Tb20 2.427 1_565 S
O37 C36 1.275 . S
O38 Tb20 2.513 1_565 S
O38 C36 1.246 . S
C39 O23 1.245 . S
C39 O24 1.259 . S
Tb40 O43 2.453 . S
Tb40 O44 2.596 . S
Tb40 O45 2.374 . S
Tb40 O53 2.343 . S
Tb40 O55 2.353 . S
Tb40 O57 2.427 . S
Tb40 O58 2.513 . S
C41 O45 1.251 . S
C41 O47 1.263 . S
Tb42 O44 2.343 . S
Tb42 O47 2.353 . S
Tb42 O50 2.427 . S
Tb42 O51 2.513 . S
Tb42 O52 2.453 . S
Tb42 O53 2.596 . S
Tb42 O54 2.374 . S
O43 Tb40 2.453 . S
O43 C59 1.245 . S
O44 Tb40 2.596 . S
O44 Tb42 2.343 . S
O44 C59 1.259 . S
O45 Tb40 2.374 . S
O45 C41 1.251 . S
C46 O50 1.275 . S
C46 O51 1.246 . S
O47 C41 1.263 . S
O47 Tb42 2.353 . S
C48 O52 1.245 . S
C48 O53 1.259 . S
C49 O54 1.250 . S
C49 O55 1.263 . S
O50 Tb42 2.427 . S
O50 C46 1.275 . S
O51 Tb42 2.513 . S
O51 C46 1.246 . S
O52 Tb42 2.453 . S
O52 C48 1.245 . S
O53 Tb40 2.343 . S
O53 Tb42 2.596 . S
O53 C48 1.259 . S
O54 Tb42 2.374 . S
O54 C49 1.250 . S
O55 Tb40 2.353 . S
O55 C49 1.263 . S
C56 O57 1.275 . S
C56 O58 1.246 . S
O57 Tb40 2.427 . S
O57 C56 1.275 . S
O58 Tb40 2.513 . S
O58 C56 1.246 . S
C59 O43 1.245 . S
C59 O44 1.259 . S
H60 C63 0.931 1_565 S
H61 C66 0.928 . S
H62 C68 0.930 . S
C63 H60 0.931 1_545 S
C63 C64 1.413 1_545 S
C63 C65 1.360 . S
C64 C63 1.413 1_565 S
C64 C68 1.429 1_565 S
C65 C63 1.360 . S
C65 C66 1.372 . S
C66 H61 0.928 . S
C66 C65 1.372 . S
C66 C67 1.404 . S
C67 C66 1.404 . S
C67 C68 1.391 . S
C68 H62 0.930 . S
C68 C64 1.429 1_545 S
C68 C67 1.391 . S
H69 C72 0.931 . S
H70 C75 0.928 . S
H71 C77 0.930 . S
C72 H69 0.931 . S
C72 C73 1.413 . S
C72 C74 1.360 . S
C73 C72 1.413 . S
C73 C77 1.429 . S
C74 C72 1.360 . S
C74 C75 1.372 . S
C75 H70 0.928 . S
C75 C74 1.372 . S
C75 C76 1.404 . S
C76 C75 1.404 . S
C76 C77 1.391 . S
C77 H71 0.930 . S
C77 C73 1.429 . S
C77 C76 1.391 . S
H78 C81 0.931 1_655 S
H79 C84 0.928 . S
H80 C86 0.930 . S
C81 H78 0.931 1_455 S
C81 C82 1.413 . S
C81 C83 1.360 . S
C82 C81 1.413 . S
C82 C86 1.429 . S
C83 C81 1.360 . S
C83 C84 1.372 . S
C84 H79 0.928 . S
C84 C83 1.372 . S
C84 C85 1.404 . S
C85 C84 1.404 . S
C85 C86 1.391 . S
C86 H80 0.930 . S
C86 C82 1.429 . S
C86 C85 1.391 . S
H87 C90 0.931 . S
H88 C93 0.928 . S
H89 C95 0.930 . S
C90 H87 0.931 . S
C90 C91 1.413 . S
C90 C92 1.360 1_655 S
C91 C90 1.413 . S
C91 C95 1.429 1_655 S
C92 C90 1.360 1_455 S
C92 C93 1.372 . S
C93 H88 0.928 . S
C93 C92 1.372 . S
C93 C94 1.404 . S
C94 C93 1.404 . S
C94 C95 1.391 . S
C95 H89 0.930 . S
C95 C91 1.429 1_455 S
C95 C94 1.391 . S
H96 C99 0.931 . S
H97 C102 0.928 . S
H98 C104 0.930 . S
C99 H96 0.931 . S
C99 C100 1.413 . S
C99 C101 1.360 . S
C100 C99 1.413 . S
C100 C104 1.429 . S
C101 C99 1.360 . S
C101 C102 1.372 1_545 S
C102 H97 0.928 . S
C102 C101 1.372 1_565 S
C102 C103 1.404 . S
C103 C102 1.404 . S
C103 C104 1.391 1_565 S
C104 H98 0.930 . S
C104 C100 1.429 . S
C104 C103 1.391 1_545 S
H105 C108 0.931 . S
H106 C111 0.928 . S
H107 C113 0.930 . S
C108 H105 0.931 . S
C108 C109 1.413 . S
C108 C110 1.360 . S
C109 C108 1.413 . S
C109 C113 1.429 . S
C110 C108 1.360 . S
C110 C111 1.372 . S
C111 H106 0.928 . S
C111 C110 1.372 . S
C111 C112 1.404 . S
C112 C111 1.404 . S
C112 C113 1.391 . S
C113 H107 0.930 . S
C113 C109 1.429 . S
C113 C112 1.391 . S
C114 C115 1.391 . S
C114 C116 1.394 . S
C114 H130 0.931 . S
C115 C114 1.391 . S
C115 C119 1.376 . S
C116 C114 1.394 . S
C116 C117 1.369 . S
C116 C120 1.531 . S
C117 C116 1.369 . S
C117 C118 1.410 . S
C117 C125 1.503 . S
C118 C117 1.410 . S
C118 C119 1.392 . S
C118 C121 1.511 . S
C119 C115 1.376 . S
C119 C118 1.392 . S
C119 H131 0.929 . S
C120 C116 1.531 . S
C120 H132 0.960 . S
C120 H133 0.962 . S
C120 H134 0.960 . S
C121 C118 1.511 . S
C121 H135 0.961 . S
C121 H136 0.961 . S
C121 H137 0.961 . S
C122 C123 1.370 . S
C122 C124 1.363 . S
C122 H138 0.931 . S
C123 C122 1.370 . S
C123 C127 1.408 . S
C124 C122 1.363 . S
C124 C125 1.370 . S
C124 C128 1.524 . S
C125 C117 1.503 . S
C125 C124 1.370 . S
C125 C126 1.403 . S
C126 C125 1.403 . S
C126 C127 1.404 . S
C126 C129 1.539 . S
C127 C123 1.408 . S
C127 C126 1.404 . S
C127 H139 0.930 . S
C128 C124 1.524 . S
C128 H140 0.956 . S
C128 H141 0.961 . S
C128 H142 0.961 . S
C129 C126 1.539 . S
C129 H143 0.958 . S
C129 H144 0.961 . S
C129 H145 0.960 . S
H130 C114 0.931 . S
H131 C119 0.929 . S
H132 C120 0.960 . S
H133 C120 0.962 . S
H134 C120 0.960 . S
H135 C121 0.961 . S
H136 C121 0.961 . S
H137 C121 0.961 . S
H138 C122 0.931 . S
H139 C127 0.930 . S
H140 C128 0.956 . S
H141 C128 0.961 . S
H142 C128 0.961 . S
H143 C129 0.958 . S
H144 C129 0.961 . S
H145 C129 0.960 . S
C146 C147 1.391 . S
C146 C148 1.394 . S
C146 H162 0.931 . S
C147 C146 1.391 . S
C147 C151 1.376 . S
C148 C146 1.394 . S
C148 C149 1.369 . S
C148 C152 1.531 . S
C149 C148 1.369 . S
C149 C150 1.410 . S
C149 C157 1.503 . S
C150 C149 1.410 . S
C150 C151 1.392 . S
C150 C153 1.511 . S
C151 C147 1.376 . S
C151 C150 1.392 . S
C151 H163 0.929 . S
C152 C148 1.531 . S
C152 H164 0.960 . S
C152 H165 0.962 . S
C152 H166 0.960 . S
C153 C150 1.511 . S
C153 H167 0.961 . S
C153 H168 0.961 . S
C153 H169 0.961 . S
C154 C155 1.370 . S
C154 C156 1.363 . S
C154 H170 0.931 . S
C155 C154 1.370 . S
C155 C159 1.408 . S
C156 C154 1.363 . S
C156 C157 1.370 . S
C156 C160 1.524 . S
C157 C149 1.503 . S
C157 C156 1.370 . S
C157 C158 1.403 . S
C158 C157 1.403 . S
C158 C159 1.404 . S
C158 C161 1.539 . S
C159 C155 1.408 . S
C159 C158 1.404 . S
C159 H171 0.930 . S
C160 C156 1.524 . S
C160 H172 0.956 . S
C160 H173 0.961 . S
C160 H174 0.961 . S
C161 C158 1.539 . S
C161 H175 0.958 . S
C161 H176 0.961 . S
C161 H177 0.960 . S
H162 C146 0.931 . S
H163 C151 0.929 . S
H164 C152 0.960 . S
H165 C152 0.962 . S
H166 C152 0.960 . S
H167 C153 0.961 . S
H168 C153 0.961 . S
H169 C153 0.961 . S
H170 C154 0.931 . S
H171 C159 0.930 . S
H172 C160 0.956 . S
H173 C160 0.961 . S
H174 C160 0.961 . S
H175 C161 0.958 . S
H176 C161 0.961 . S
H177 C161 0.960 . S
C178 C179 1.391 . S
C178 C180 1.394 . S
C178 H194 0.931 . S
C179 C178 1.391 . S
C179 C183 1.376 . S
C180 C178 1.394 . S
C180 C181 1.369 . S
C180 C184 1.531 . S
C181 C180 1.369 . S
C181 C182 1.410 . S
C181 C189 1.503 . S
C182 C181 1.410 . S
C182 C183 1.392 . S
C182 C185 1.511 . S
C183 C179 1.376 . S
C183 C182 1.392 . S
C183 H195 0.929 . S
C184 C180 1.531 . S
C184 H196 0.960 . S
C184 H197 0.962 . S
C184 H198 0.960 . S
C185 C182 1.511 . S
C185 H199 0.961 . S
C185 H200 0.961 . S
C185 H201 0.961 . S
C186 C187 1.370 . S
C186 C188 1.363 . S
C186 H202 0.931 . S
C187 C186 1.370 . S
C187 C191 1.408 . S
C188 C186 1.363 . S
C188 C189 1.370 . S
C188 C192 1.524 . S
C189 C181 1.503 . S
C189 C188 1.370 . S
C189 C190 1.403 . S
C190 C189 1.403 . S
C190 C191 1.404 . S
C190 C193 1.539 . S
C191 C187 1.408 . S
C191 C190 1.404 . S
C191 H203 0.930 . S
C192 C188 1.524 . S
C192 H204 0.956 . S
C192 H205 0.961 . S
C192 H206 0.961 . S
C193 C190 1.539 . S
C193 H207 0.958 . S
C193 H208 0.961 . S
C193 H209 0.960 . S
H194 C178 0.931 . S
H195 C183 0.929 . S
H196 C184 0.960 . S
H197 C184 0.962 . S
H198 C184 0.960 . S
H199 C185 0.961 . S
H200 C185 0.961 . S
H201 C185 0.961 . S
H202 C186 0.931 . S
H203 C191 0.930 . S
H204 C192 0.956 . S
H205 C192 0.961 . S
H206 C192 0.961 . S
H207 C193 0.958 . S
H208 C193 0.961 . S
H209 C193 0.960 . S
C210 C211 1.391 . S
C210 C212 1.394 . S
C210 H226 0.931 . S
C211 C210 1.391 . S
C211 C215 1.376 . S
C212 C210 1.394 . S
C212 C213 1.369 . S
C212 C216 1.531 . S
C213 C212 1.369 . S
C213 C214 1.410 . S
C213 C221 1.503 . S
C214 C213 1.410 . S
C214 C215 1.392 . S
C214 C217 1.511 . S
C215 C211 1.376 . S
C215 C214 1.392 . S
C215 H227 0.929 . S
C216 C212 1.531 . S
C216 H228 0.960 . S
C216 H229 0.962 . S
C216 H230 0.960 . S
C217 C214 1.511 . S
C217 H231 0.961 . S
C217 H232 0.961 . S
C217 H233 0.961 . S
C218 C219 1.370 . S
C218 C220 1.363 . S
C218 H234 0.931 . S
C219 C218 1.370 . S
C219 C223 1.408 . S
C220 C218 1.363 . S
C220 C221 1.370 . S
C220 C224 1.524 . S
C221 C213 1.503 . S
C221 C220 1.370 . S
C221 C222 1.403 . S
C222 C221 1.403 . S
C222 C223 1.404 . S
C222 C225 1.539 . S
C223 C219 1.408 . S
C223 C222 1.404 . S
C223 H235 0.930 . S
C224 C220 1.524 . S
C224 H236 0.956 . S
C224 H237 0.961 . S
C224 H238 0.961 . S
C225 C222 1.539 . S
C225 H239 0.958 . S
C225 H240 0.961 . S
C225 H241 0.960 . S
H226 C210 0.931 . S
H227 C215 0.929 . S
H228 C216 0.960 . S
H229 C216 0.962 . S
H230 C216 0.960 . S
H231 C217 0.961 . S
H232 C217 0.961 . S
H233 C217 0.961 . S
H234 C218 0.931 . S
H235 C223 0.930 . S
H236 C224 0.956 . S
H237 C224 0.961 . S
H238 C224 0.961 . S
H239 C225 0.958 . S
H240 C225 0.961 . S
H241 C225 0.960 . S
C242 C243 1.391 . S
C242 C244 1.394 . S
C242 H258 0.931 . S
C243 C242 1.391 . S
C243 C247 1.376 . S
C244 C242 1.394 . S
C244 C245 1.369 . S
C244 C248 1.531 . S
C245 C244 1.369 . S
C245 C246 1.410 . S
C245 C253 1.503 . S
C246 C245 1.410 . S
C246 C247 1.392 . S
C246 C249 1.511 . S
C247 C243 1.376 . S
C247 C246 1.392 . S
C247 H259 0.929 . S
C248 C244 1.531 . S
C248 H260 0.960 . S
C248 H261 0.962 . S
C248 H262 0.960 . S
C249 C246 1.511 . S
C249 H263 0.961 . S
C249 H264 0.961 . S
C249 H265 0.961 . S
C250 C251 1.370 . S
C250 C252 1.363 . S
C250 H266 0.931 . S
C251 C250 1.370 . S
C251 C255 1.408 . S
C252 C250 1.363 . S
C252 C253 1.370 . S
C252 C256 1.524 . S
C253 C245 1.503 . S
C253 C252 1.370 . S
C253 C254 1.403 . S
C254 C253 1.403 . S
C254 C255 1.404 . S
C254 C257 1.539 . S
C255 C251 1.408 . S
C255 C254 1.404 . S
C255 H267 0.930 . S
C256 C252 1.524 . S
C256 H268 0.956 . S
C256 H269 0.961 . S
C256 H270 0.961 . S
C257 C254 1.539 . S
C257 H271 0.958 . S
C257 H272 0.961 . S
C257 H273 0.960 . S
H258 C242 0.931 . S
H259 C247 0.929 . S
H260 C248 0.960 . S
H261 C248 0.962 . S
H262 C248 0.960 . S
H263 C249 0.961 . S
H264 C249 0.961 . S
H265 C249 0.961 . S
H266 C250 0.931 . S
H267 C255 0.930 . S
H268 C256 0.956 . S
H269 C256 0.961 . S
H270 C256 0.961 . S
H271 C257 0.958 . S
H272 C257 0.961 . S
H273 C257 0.960 . S
C274 C275 1.391 . S
C274 C276 1.394 . S
C274 H290 0.931 . S
C275 C274 1.391 . S
C275 C279 1.376 . S
C276 C274 1.394 . S
C276 C277 1.369 . S
C276 C280 1.531 . S
C277 C276 1.369 . S
C277 C278 1.410 . S
C277 C285 1.503 . S
C278 C277 1.410 . S
C278 C279 1.392 . S
C278 C281 1.511 . S
C279 C275 1.376 . S
C279 C278 1.392 . S
C279 H291 0.929 . S
C280 C276 1.531 . S
C280 H292 0.960 . S
C280 H293 0.962 . S
C280 H294 0.960 . S
C281 C278 1.511 . S
C281 H295 0.961 . S
C281 H296 0.961 . S
C281 H297 0.961 . S
C282 C283 1.370 . S
C282 C284 1.363 . S
C282 H298 0.931 . S
C283 C282 1.370 . S
C283 C287 1.408 . S
C284 C282 1.363 . S
C284 C285 1.370 . S
C284 C288 1.524 . S
C285 C277 1.503 . S
C285 C284 1.370 . S
C285 C286 1.403 . S
C286 C285 1.403 . S
C286 C287 1.404 . S
C286 C289 1.539 . S
C287 C283 1.408 . S
C287 C286 1.404 . S
C287 H299 0.930 . S
C288 C284 1.524 . S
C288 H300 0.956 . S
C288 H301 0.961 . S
C288 H302 0.961 . S
C289 C286 1.539 . S
C289 H303 0.958 . S
C289 H304 0.961 . S
C289 H305 0.960 . S
H290 C274 0.931 . S
H291 C279 0.929 . S
H292 C280 0.960 . S
H293 C280 0.962 . S
H294 C280 0.960 . S
H295 C281 0.961 . S
H296 C281 0.961 . S
H297 C281 0.961 . S
H298 C282 0.931 . S
H299 C287 0.930 . S
H300 C288 0.956 . S
H301 C288 0.961 . S
H302 C288 0.961 . S
H303 C289 0.958 . S
H304 C289 0.961 . S
H305 C289 0.960 . S
C306 C307 1.391 . S
C306 C308 1.394 . S
C306 H322 0.931 . S
C307 C306 1.391 . S
C307 C311 1.376 . S
C308 C306 1.394 . S
C308 C309 1.369 . S
C308 C312 1.531 . S
C309 C308 1.369 . S
C309 C310 1.410 . S
C309 C317 1.503 . S
C310 C309 1.410 . S
C310 C311 1.392 . S
C310 C313 1.511 . S
C311 C307 1.376 . S
C311 C310 1.392 . S
C311 H323 0.929 . S
C312 C308 1.531 . S
C312 H324 0.960 . S
C312 H325 0.962 . S
C312 H326 0.960 . S
C313 C310 1.511 . S
C313 H327 0.961 . S
C313 H328 0.961 . S
C313 H329 0.961 . S
C314 C315 1.370 . S
C314 C316 1.363 . S
C314 H330 0.931 . S
C315 C314 1.370 . S
C315 C319 1.408 . S
C316 C314 1.363 . S
C316 C317 1.370 . S
C316 C320 1.524 . S
C317 C309 1.503 . S
C317 C316 1.370 . S
C317 C318 1.403 . S
C318 C317 1.403 . S
C318 C319 1.404 . S
C318 C321 1.539 . S
C319 C315 1.408 . S
C319 C318 1.404 . S
C319 H331 0.930 . S
C320 C316 1.524 . S
C320 H332 0.956 . S
C320 H333 0.961 . S
C320 H334 0.961 . S
C321 C318 1.539 . S
C321 H335 0.958 . S
C321 H336 0.961 . S
C321 H337 0.960 . S
H322 C306 0.931 . S
H323 C311 0.929 . S
H324 C312 0.960 . S
H325 C312 0.962 . S
H326 C312 0.960 . S
H327 C313 0.961 . S
H328 C313 0.961 . S
H329 C313 0.961 . S
H330 C314 0.931 . S
H331 C319 0.930 . S
H332 C320 0.956 . S
H333 C320 0.961 . S
H334 C320 0.961 . S
H335 C321 0.958 . S
H336 C321 0.961 . S
H337 C321 0.960 . S
C338 C339 1.391 . S
C338 C340 1.394 . S
C338 H354 0.931 . S
C339 C338 1.391 . S
C339 C343 1.376 . S
C340 C338 1.394 . S
C340 C341 1.369 . S
C340 C344 1.531 . S
C341 C340 1.369 . S
C341 C342 1.410 . S
C341 C349 1.503 . S
C342 C341 1.410 . S
C342 C343 1.392 . S
C342 C345 1.511 . S
C343 C339 1.376 . S
C343 C342 1.392 . S
C343 H355 0.929 . S
C344 C340 1.531 . S
C344 H356 0.960 . S
C344 H357 0.962 . S
C344 H358 0.960 . S
C345 C342 1.511 . S
C345 H359 0.961 . S
C345 H360 0.961 . S
C345 H361 0.961 . S
C346 C347 1.370 . S
C346 C348 1.363 . S
C346 H362 0.931 1_655 S
C347 C346 1.370 . S
C347 C351 1.408 . S
C348 C346 1.363 . S
C348 C349 1.370 . S
C348 C352 1.524 . S
C349 C341 1.503 . S
C349 C348 1.370 . S
C349 C350 1.403 . S
C350 C349 1.403 . S
C350 C351 1.404 . S
C350 C353 1.539 . S
C351 C347 1.408 . S
C351 C350 1.404 . S
C351 H363 0.930 . S
C352 C348 1.524 . S
C352 H364 0.956 . S
C352 H365 0.961 . S
C352 H366 0.961 . S
C353 C350 1.539 . S
C353 H367 0.958 . S
C353 H368 0.961 . S
C353 H369 0.960 . S
H354 C338 0.931 . S
H355 C343 0.929 . S
H356 C344 0.960 . S
H357 C344 0.962 . S
H358 C344 0.960 . S
H359 C345 0.961 . S
H360 C345 0.961 . S
H361 C345 0.961 . S
H362 C346 0.931 1_455 S
H363 C351 0.930 . S
H364 C352 0.956 . S
H365 C352 0.961 . S
H366 C352 0.961 . S
H367 C353 0.958 . S
H368 C353 0.961 . S
H369 C353 0.960 . S
C370 C371 1.391 . S
C370 C372 1.394 . S
C370 H386 0.931 . S
C371 C370 1.391 . S
C371 C375 1.376 . S
C372 C370 1.394 . S
C372 C373 1.369 . S
C372 C376 1.531 . S
C373 C372 1.369 . S
C373 C374 1.410 . S
C373 C381 1.503 . S
C374 C373 1.410 . S
C374 C375 1.392 . S
C374 C377 1.511 . S
C375 C371 1.376 . S
C375 C374 1.392 . S
C375 H387 0.929 . S
C376 C372 1.531 . S
C376 H388 0.960 . S
C376 H389 0.962 . S
C376 H390 0.960 . S
C377 C374 1.511 . S
C377 H391 0.961 . S
C377 H392 0.961 . S
C377 H393 0.961 . S
C378 C379 1.370 . S
C378 C380 1.363 . S
C378 H394 0.931 . S
C379 C378 1.370 . S
C379 C383 1.408 . S
C380 C378 1.363 . S
C380 C381 1.370 . S
C380 C384 1.524 . S
C381 C373 1.503 . S
C381 C380 1.370 . S
C381 C382 1.403 . S
C382 C381 1.403 . S
C382 C383 1.404 . S
C382 C385 1.539 . S
C383 C379 1.408 . S
C383 C382 1.404 . S
C383 H395 0.930 . S
C384 C380 1.524 . S
C384 H396 0.956 . S
C384 H397 0.961 . S
C384 H398 0.961 . S
C385 C382 1.539 . S
C385 H399 0.958 . S
C385 H400 0.961 . S
C385 H401 0.960 . S
H386 C370 0.931 . S
H387 C375 0.929 . S
H388 C376 0.960 . S
H389 C376 0.962 . S
H390 C376 0.960 . S
H391 C377 0.961 . S
H392 C377 0.961 . S
H393 C377 0.961 . S
H394 C378 0.931 . S
H395 C383 0.930 . S
H396 C384 0.956 . S
H397 C384 0.961 . S
H398 C384 0.961 . S
H399 C385 0.958 . S
H400 C385 0.961 . S
H401 C385 0.960 . S
C402 C403 1.391 . S
C402 C404 1.394 . S
C402 H418 0.931 . S
C403 C402 1.391 . S
C403 C407 1.376 . S
C404 C402 1.394 . S
C404 C405 1.369 . S
C404 C408 1.531 . S
C405 C404 1.369 . S
C405 C406 1.410 . S
C405 C413 1.503 . S
C406 C405 1.410 . S
C406 C407 1.392 . S
C406 C409 1.511 . S
C407 C403 1.376 . S
C407 C406 1.392 . S
C407 H419 0.929 . S
C408 C404 1.531 . S
C408 H420 0.960 . S
C408 H421 0.962 . S
C408 H422 0.960 . S
C409 C406 1.511 . S
C409 H423 0.961 . S
C409 H424 0.961 . S
C409 H425 0.961 . S
C410 C411 1.370 . S
C410 C412 1.363 . S
C410 H426 0.931 . S
C411 C410 1.370 . S
C411 C415 1.408 . S
C412 C410 1.363 . S
C412 C413 1.370 . S
C412 C416 1.524 . S
C413 C405 1.503 . S
C413 C412 1.370 . S
C413 C414 1.403 . S
C414 C413 1.403 . S
C414 C415 1.404 . S
C414 C417 1.539 . S
C415 C411 1.408 . S
C415 C414 1.404 . S
C415 H427 0.930 . S
C416 C412 1.524 . S
C416 H428 0.956 . S
C416 H429 0.961 . S
C416 H430 0.961 . S
C417 C414 1.539 . S
C417 H431 0.958 . S
C417 H432 0.961 . S
C417 H433 0.960 . S
H418 C402 0.931 . S
H419 C407 0.929 . S
H420 C408 0.960 . S
H421 C408 0.962 . S
H422 C408 0.960 . S
H423 C409 0.961 . S
H424 C409 0.961 . S
H425 C409 0.961 . S
H426 C410 0.931 . S
H427 C415 0.930 . S
H428 C416 0.956 . S
H429 C416 0.961 . S
H430 C416 0.961 . S
H431 C417 0.958 . S
H432 C417 0.961 . S
H433 C417 0.960 . S
C434 C435 1.391 . S
C434 C436 1.394 . S
C434 H450 0.931 . S
C435 C434 1.391 . S
C435 C439 1.376 . S
C436 C434 1.394 . S
C436 C437 1.369 . S
C436 C440 1.531 . S
C437 C436 1.369 . S
C437 C438 1.410 . S
C437 C445 1.503 . S
C438 C437 1.410 . S
C438 C439 1.392 . S
C438 C441 1.511 . S
C439 C435 1.376 . S
C439 C438 1.392 . S
C439 H451 0.929 . S
C440 C436 1.531 . S
C440 H452 0.960 . S
C440 H453 0.962 . S
C440 H454 0.960 . S
C441 C438 1.511 . S
C441 H455 0.961 . S
C441 H456 0.961 . S
C441 H457 0.961 . S
C442 C443 1.370 . S
C442 C444 1.363 . S
C442 H458 0.931 . S
C443 C442 1.370 . S
C443 C447 1.408 . S
C444 C442 1.363 . S
C444 C445 1.370 . S
C444 C448 1.524 . S
C445 C437 1.503 . S
C445 C444 1.370 . S
C445 C446 1.403 . S
C446 C445 1.403 . S
C446 C447 1.404 . S
C446 C449 1.539 . S
C447 C443 1.408 . S
C447 C446 1.404 . S
C447 H459 0.930 . S
C448 C444 1.524 . S
C448 H460 0.956 . S
C448 H461 0.961 . S
C448 H462 0.961 . S
C449 C446 1.539 . S
C449 H463 0.958 . S
C449 H464 0.961 . S
C449 H465 0.960 . S
H450 C434 0.931 . S
H451 C439 0.929 . S
H452 C440 0.960 . S
H453 C440 0.962 . S
H454 C440 0.960 . S
H455 C441 0.961 . S
H456 C441 0.961 . S
H457 C441 0.961 . S
H458 C442 0.931 . S
H459 C447 0.930 . S
H460 C448 0.956 . S
H461 C448 0.961 . S
H462 C448 0.961 . S
H463 C449 0.958 . S
H464 C449 0.961 . S
H465 C449 0.960 . S
C466 C467 1.391 . S
C466 C468 1.394 . S
C466 H482 0.931 . S
C467 C466 1.391 . S
C467 C471 1.376 . S
C468 C466 1.394 . S
C468 C469 1.369 . S
C468 C472 1.531 . S
C469 C468 1.369 . S
C469 C470 1.410 . S
C469 C477 1.503 . S
C470 C469 1.410 . S
C470 C471 1.392 . S
C470 C473 1.511 . S
C471 C467 1.376 . S
C471 C470 1.392 . S
C471 H483 0.929 . S
C472 C468 1.531 . S
C472 H484 0.960 . S
C472 H485 0.962 . S
C472 H486 0.960 . S
C473 C470 1.511 . S
C473 H487 0.961 . S
C473 H488 0.961 . S
C473 H489 0.961 . S
C474 C475 1.370 . S
C474 C476 1.363 . S
C474 H490 0.931 . S
C475 C474 1.370 . S
C475 C479 1.408 . S
C476 C474 1.363 . S
C476 C477 1.370 . S
C476 C480 1.524 . S
C477 C469 1.503 . S
C477 C476 1.370 . S
C477 C478 1.403 . S
C478 C477 1.403 . S
C478 C479 1.404 . S
C478 C481 1.539 . S
C479 C475 1.408 . S
C479 C478 1.404 . S
C479 H491 0.930 . S
C480 C476 1.524 . S
C480 H492 0.956 . S
C480 H493 0.961 . S
C480 H494 0.961 . S
C481 C478 1.539 . S
C481 H495 0.958 . S
C481 H496 0.961 . S
C481 H497 0.960 . S
H482 C466 0.931 . S
H483 C471 0.929 . S
H484 C472 0.960 . S
H485 C472 0.962 . S
H486 C472 0.960 . S
H487 C473 0.961 . S
H488 C473 0.961 . S
H489 C473 0.961 . S
H490 C474 0.931 . S
H491 C479 0.930 . S
H492 C480 0.956 . S
H493 C480 0.961 . S
H494 C480 0.961 . S
H495 C481 0.958 . S
H496 C481 0.961 . S
H497 C481 0.960 . S
C498 C499 1.391 . S
C498 C500 1.394 . S
C498 H514 0.931 1_455 S
C499 C498 1.391 . S
C499 C503 1.376 . S
C500 C498 1.394 . S
C500 C501 1.369 . S
C500 C504 1.531 1_455 S
C501 C500 1.369 . S
C501 C502 1.410 . S
C501 C509 1.501 1_554 S
C502 C501 1.410 . S
C502 C503 1.392 . S
C502 C505 1.511 . S
C503 C499 1.376 . S
C503 C502 1.392 . S
C503 H515 0.929 . S
C504 C500 1.531 1_655 S
C504 H516 0.960 . S
C504 H517 0.962 . S
C504 H518 0.960 . S
C505 C502 1.511 . S
C505 H519 0.961 . S
C505 H520 0.961 . S
C505 H521 0.961 . S
C506 C507 1.370 . S
C506 C508 1.363 . S
C506 H522 0.931 . S
C507 C506 1.370 . S
C507 C511 1.408 . S
C508 C506 1.363 . S
C508 C509 1.372 . S
C508 C512 1.524 . S
C509 C501 1.501 1_556 S
C509 C508 1.372 . S
C509 C510 1.404 . S
C510 C509 1.404 . S
C510 C511 1.404 . S
C510 C513 1.539 1_556 S
C511 C507 1.408 . S
C511 C510 1.404 . S
C511 H523 0.930 . S
C512 C508 1.524 . S
C512 H524 0.952 1_456 S
C512 H525 0.961 1_556 S
C512 H526 0.961 . S
C513 C510 1.539 1_554 S
C513 H527 0.958 . S
C513 H528 0.961 . S
C513 H529 0.960 . S
H514 C498 0.931 1_655 S
H515 C503 0.929 . S
H516 C504 0.960 . S
H517 C504 0.962 . S
H518 C504 0.960 . S
H519 C505 0.961 . S
H520 C505 0.961 . S
H521 C505 0.961 . S
H522 C506 0.931 . S
H523 C511 0.930 . S
H524 C512 0.952 1_654 S
H525 C512 0.961 1_554 S
H526 C512 0.961 . S
H527 C513 0.958 . S
H528 C513 0.961 . S
H529 C513 0.960 . S
C530 C531 1.391 . S
C530 C532 1.394 . S
C530 H546 0.931 . S
C531 C530 1.391 . S
C531 C535 1.376 . S
C532 C530 1.394 . S
C532 C533 1.369 . S
C532 C536 1.531 . S
C533 C532 1.369 . S
C533 C534 1.410 . S
C533 C541 1.503 . S
C534 C533 1.410 . S
C534 C535 1.392 . S
C534 C537 1.511 . S
C535 C531 1.376 . S
C535 C534 1.392 . S
C535 H547 0.929 . S
C536 C532 1.531 . S
C536 H548 0.960 . S
C536 H549 0.962 . S
C536 H550 0.960 . S
C537 C534 1.511 . S
C537 H551 0.961 1_545 S
C537 H552 0.961 1_545 S
C537 H553 0.961 . S
C538 C539 1.370 . S
C538 C540 1.363 . S
C538 H554 0.931 1_545 S
C539 C538 1.370 . S
C539 C543 1.408 . S
C540 C538 1.363 . S
C540 C541 1.370 . S
C540 C544 1.524 1_545 S
C541 C533 1.503 . S
C541 C540 1.370 . S
C541 C542 1.403 . S
C542 C541 1.403 . S
C542 C543 1.404 . S
C542 C545 1.539 . S
C543 C539 1.408 . S
C543 C542 1.404 . S
C543 H555 0.930 . S
C544 C540 1.524 1_565 S
C544 H556 0.956 . S
C544 H557 0.961 . S
C544 H558 0.961 . S
C545 C542 1.539 . S
C545 H559 0.958 . S
C545 H560 0.961 . S
C545 H561 0.960 . S
H546 C530 0.931 . S
H547 C535 0.929 . S
H548 C536 0.960 . S
H549 C536 0.962 . S
H550 C536 0.960 . S
H551 C537 0.961 1_565 S
H552 C537 0.961 1_565 S
H553 C537 0.961 . S
H554 C538 0.931 1_565 S
H555 C543 0.930 . S
H556 C544 0.956 . S
H557 C544 0.961 . S
H558 C544 0.961 . S
H559 C545 0.958 . S
H560 C545 0.961 . S
H561 C545 0.960 . S
C562 C563 1.391 . S
C562 C564 1.394 . S
C562 H578 0.931 . S
C563 C562 1.391 . S
C563 C567 1.376 . S
C564 C562 1.394 . S
C564 C565 1.369 . S
C564 C568 1.531 . S
C565 C564 1.369 . S
C565 C566 1.410 . S
C565 C573 1.503 . S
C566 C565 1.410 . S
C566 C567 1.392 . S
C566 C569 1.511 . S
C567 C563 1.376 . S
C567 C566 1.392 . S
C567 H579 0.929 . S
C568 C564 1.531 . S
C568 H580 0.960 . S
C568 H581 0.962 . S
C568 H582 0.960 . S
C569 C566 1.511 . S
C569 H583 0.961 . S
C569 H584 0.961 . S
C569 H585 0.961 . S
C570 C571 1.370 . S
C570 C572 1.363 . S
C570 H586 0.931 . S
C571 C570 1.370 . S
C571 C575 1.408 . S
C572 C570 1.363 . S
C572 C573 1.370 . S
C572 C576 1.524 . S
C573 C565 1.503 . S
C573 C572 1.370 . S
C573 C574 1.403 . S
C574 C573 1.403 . S
C574 C575 1.404 . S
C574 C577 1.539 . S
C575 C571 1.408 . S
C575 C574 1.404 . S
C575 H587 0.930 . S
C576 C572 1.524 . S
C576 H588 0.956 . S
C576 H589 0.961 . S
C576 H590 0.961 . S
C577 C574 1.539 . S
C577 H591 0.958 . S
C577 H592 0.961 . S
C577 H593 0.960 . S
H578 C562 0.931 . S
H579 C567 0.929 . S
H580 C568 0.960 . S
H581 C568 0.962 . S
H582 C568 0.960 . S
H583 C569 0.961 . S
H584 C569 0.961 . S
H585 C569 0.961 . S
H586 C570 0.931 . S
H587 C575 0.930 . S
H588 C576 0.956 . S
H589 C576 0.961 . S
H590 C576 0.961 . S
H591 C577 0.958 . S
H592 C577 0.961 . S
H593 C577 0.960 . S
C594 C595 1.391 . S
C594 C596 1.394 . S
C594 H610 0.931 . S
C595 C594 1.391 . S
C595 C599 1.376 . S
C596 C594 1.394 . S
C596 C597 1.369 . S
C596 C600 1.531 . S
C597 C596 1.369 . S
C597 C598 1.410 . S
C597 C605 1.503 . S
C598 C597 1.410 . S
C598 C599 1.392 . S
C598 C601 1.511 1_545 S
C599 C595 1.376 . S
C599 C598 1.392 . S
C599 H611 0.929 1_545 S
C600 C596 1.531 . S
C600 H612 0.960 . S
C600 H613 0.962 . S
C600 H614 0.960 . S
C601 C598 1.511 1_565 S
C601 H615 0.961 . S
C601 H616 0.961 . S
C601 H617 0.944 1_565 S
C602 C603 1.370 1_565 S
C602 C604 1.363 . S
C602 H618 0.931 . S
C603 C602 1.370 1_545 S
C603 C607 1.408 . S
C604 C602 1.363 . S
C604 C605 1.370 1_565 S
C604 C608 1.524 . S
C605 C597 1.503 . S
C605 C604 1.370 1_545 S
C605 C606 1.403 . S
C606 C605 1.403 . S
C606 C607 1.404 . S
C606 C609 1.539 . S
C607 C603 1.408 . S
C607 C606 1.404 . S
C607 H619 0.930 . S
C608 C604 1.524 . S
C608 H620 0.956 . S
C608 H621 0.961 . S
C608 H622 0.961 . S
C609 C606 1.539 . S
C609 H623 0.958 . S
C609 H624 0.961 . S
C609 H625 0.960 . S
H610 C594 0.931 . S
H611 C599 0.929 1_565 S
H612 C600 0.960 . S
H613 C600 0.962 . S
H614 C600 0.960 . S
H615 C601 0.961 . S
H616 C601 0.961 . S
H617 C601 0.944 1_545 S
H618 C602 0.931 . S
H619 C607 0.930 . S
H620 C608 0.956 . S
H621 C608 0.961 . S
H622 C608 0.961 . S
H623 C609 0.958 . S
H624 C609 0.961 . S
H625 C609 0.960 . S
C626 C627 1.391 . S
C626 C628 1.394 . S
C626 H642 0.931 . S
C627 C626 1.391 . S
C627 C631 1.376 . S
C628 C626 1.394 . S
C628 C629 1.369 . S
C628 C632 1.531 . S
C629 C628 1.369 . S
C629 C630 1.410 . S
C629 C637 1.503 . S
C630 C629 1.410 . S
C630 C631 1.392 . S
C630 C633 1.511 . S
C631 C627 1.376 . S
C631 C630 1.392 . S
C631 H643 0.929 . S
C632 C628 1.531 . S
C632 H644 0.960 . S
C632 H645 0.962 . S
C632 H646 0.960 . S
C633 C630 1.511 . S
C633 H647 0.961 . S
C633 H648 0.961 . S
C633 H649 0.961 . S
C634 C635 1.370 . S
C634 C636 1.363 . S
C634 H650 0.931 . S
C635 C634 1.370 . S
C635 C639 1.408 . S
C636 C634 1.363 . S
C636 C637 1.370 1_554 S
C636 C640 1.524 . S
C637 C629 1.503 . S
C637 C636 1.370 1_556 S
C637 C638 1.403 1_556 S
C638 C637 1.403 1_554 S
C638 C639 1.404 . S
C638 C641 1.539 1_554 S
C639 C635 1.408 . S
C639 C638 1.404 . S
C639 H651 0.930 . S
C640 C636 1.524 . S
C640 H652 0.956 1_554 S
C640 H653 0.961 1_554 S
C640 H654 0.961 . S
C641 C638 1.539 1_556 S
C641 H655 0.958 . S
C641 H656 0.962 . S
C641 H657 0.960 . S
H642 C626 0.931 . S
H643 C631 0.929 . S
H644 C632 0.960 . S
H645 C632 0.962 . S
H646 C632 0.960 . S
H647 C633 0.961 . S
H648 C633 0.961 . S
H649 C633 0.961 . S
H650 C634 0.931 . S
H651 C639 0.930 . S
H652 C640 0.956 1_556 S
H653 C640 0.961 1_556 S
H654 C640 0.961 . S
H655 C641 0.958 . S
H656 C641 0.962 . S
H657 C641 0.960 . S
C658 C659 1.391 1_655 S
C658 C660 1.394 . S
C658 H674 0.931 . S
C659 C658 1.391 1_455 S
C659 C663 1.376 . S
C660 C658 1.394 . S
C660 C661 1.369 1_655 S
C660 C664 1.531 . S
C661 C660 1.369 1_455 S
C661 C662 1.410 . S
C661 C669 1.503 . S
C662 C661 1.410 . S
C662 C663 1.392 . S
C662 C665 1.511 . S
C663 C659 1.376 . S
C663 C662 1.392 . S
C663 H675 0.929 . S
C664 C660 1.531 . S
C664 H676 0.960 . S
C664 H677 0.962 . S
C664 H678 0.960 . S
C665 C662 1.511 . S
C665 H679 0.961 . S
C665 H680 0.961 . S
C665 H681 0.961 . S
C666 C667 1.370 1_655 S
C666 C668 1.363 . S
C666 H682 0.931 . S
C667 C666 1.370 1_455 S
C667 C671 1.408 . S
C668 C666 1.363 . S
C668 C669 1.370 1_655 S
C668 C672 1.524 . S
C669 C661 1.503 . S
C669 C668 1.370 1_455 S
C669 C670 1.403 . S
C670 C669 1.403 . S
C670 C671 1.404 . S
C670 C673 1.539 . S
C671 C667 1.408 . S
C671 C670 1.404 . S
C671 H683 0.930 . S
C672 C668 1.524 . S
C672 H684 0.956 . S
C672 H685 0.961 . S
C672 H686 0.961 . S
C673 C670 1.539 . S
C673 H687 0.958 . S
C673 H688 0.961 . S
C673 H689 0.960 . S
H674 C658 0.931 . S
H675 C663 0.929 . S
H676 C664 0.960 . S
H677 C664 0.962 . S
H678 C664 0.960 . S
H679 C665 0.961 . S
H680 C665 0.961 . S
H681 C665 0.961 . S
H682 C666 0.931 . S
H683 C671 0.930 . S
H684 C672 0.956 . S
H685 C672 0.961 . S
H686 C672 0.961 . S
H687 C673 0.958 . S
H688 C673 0.961 . S
H689 C673 0.960 . S
C115 C8 1.880 . S
C123 C109 1.923 . S
C147 C26 1.295 . S
C155 C91 1.317 . S
C179 C48 1.418 . S
C187 C103 1.477 . S
C211 C19 1.699 . S
C219 C112 1.788 . S
C251 C94 1.400 . S
C243 C36 1.348 . S
C283 C100 1.614 . S
C275 C59 1.540 . S
C307 C28 1.467 . S
C315 C73 1.493 . S
C339 C46 1.134 . S
C347 C82 1.136 1_655 S
C371 C16 1.400 . S
C379 C64 1.462 . S
C411 C76 1.567 . S
C403 C39 1.455 . S
C443 C85 1.000 . S
C435 C56 0.950 . S
C467 C6 1.353 . S
C475 C67 1.353 . S
C507 C83 1.441 . S
C499 C9 1.395 . S
C531 C21 1.491 . S
C539 C65 1.505 . S
C563 C49 1.457 . S
C571 C74 1.485 . S
C603 C101 1.463 . S
C595 C29 1.428 . S
C635 C110 1.583 . S
C627 C41 1.576 . S
C659 C1 1.474 . S
C667 C92 1.506 . S
