# Generated by pormake.
# Topology tsx, (6,3)-cn, num edge types: 1
# Building blocks:
#     Node 0, Type 0, BuildingBlock: FUNLAD_clean_sbu_0, # of connection points: 6
#     Node 1, Type 0, BuildingBlock: FUNLAD_clean_sbu_0, # of connection points: 6
#     Node 2, Type 1, BuildingBlock: KAKCAD_clean_linker_0, # of connection points: 3
#     Node 3, Type 1, BuildingBlock: KAKCAD_clean_linker_0, # of connection points: 3
#     Node 4, Type 1, BuildingBlock: KAKCAD_clean_linker_0, # of connection points: 3
#     Node 5, Type 1, BuildingBlock: KAKCAD_clean_linker_0, # of connection points: 3
#     Edge 6, Type (0, 1), BuildingBlock: MIFKUJ_clean_linker_0, # of connection points: 2
#     Edge 7, Type (0, 1), BuildingBlock: MIFKUJ_clean_linker_0, # of connection points: 2
#     Edge 8, Type (0, 1), BuildingBlock: MIFKUJ_clean_linker_0, # of connection points: 2
#     Edge 9, Type (0, 1), BuildingBlock: MIFKUJ_clean_linker_0, # of connection points: 2
#     Edge 10, Type (0, 1), BuildingBlock: MIFKUJ_clean_linker_0, # of connection points: 2
#     Edge 11, Type (0, 1), BuildingBlock: MIFKUJ_clean_linker_0, # of connection points: 2
#     Edge 12, Type (0, 1), BuildingBlock: MIFKUJ_clean_linker_0, # of connection points: 2
#     Edge 13, Type (0, 1), BuildingBlock: MIFKUJ_clean_linker_0, # of connection points: 2
#     Edge 14, Type (0, 1), BuildingBlock: MIFKUJ_clean_linker_0, # of connection points: 2
#     Edge 15, Type (0, 1), BuildingBlock: MIFKUJ_clean_linker_0, # of connection points: 2
#     Edge 16, Type (0, 1), BuildingBlock: MIFKUJ_clean_linker_0, # of connection points: 2
#     Edge 17, Type (0, 1), BuildingBlock: MIFKUJ_clean_linker_0, # of connection points: 2
# Relax obj value: 0.165
# Max RMSD: 0.156
# Mean RMSD: 0.095
data_MOF--net-tsx--node1-FUNLAD_clean_sbu_0--node2-KAKCAD_clean_linker_0--edge1-MIFKUJ_clean_linker_0
_symmetry_space_group_name_H-M    P1
_symmetry_Int_Tables_number       1
_symmetry_cell_setting            triclinic
loop_
_symmetry_equiv_pos_as_xyz
'x, y, z'
_cell_length_a     28.991727
_cell_length_b     32.193548
_cell_length_c     60.576297
_cell_angle_alpha  91.316797
_cell_angle_beta   92.081594
_cell_angle_gamma 90.009532
loop_
_atom_site_label
_atom_site_type_symbol
_atom_site_fract_x
_atom_site_fract_y
_atom_site_fract_z
_atom_type_partial_charge
C0 C 0.93081 0.96902 0.00569 0.0
N1 N 0.00481 0.02272 0.05965 0.0
C2 C 0.96428 0.02152 0.07026 0.0
C3 C 0.96416 0.01659 0.09308 0.0
C4 C 0.00615 0.0129 0.10518 0.0
C5 C 0.04753 0.01507 0.09388 0.0
C6 C 0.04605 0.01991 0.07098 0.0
Zn7 Zn 0.00263 0.0264 0.02592 0.0
C8 C 0.06398 0.96553 0.00486 0.0
N9 N 0.99527 0.03212 0.95534 0.0
C10 C 0.95463 0.03187 0.94334 0.0
C11 C 0.03641 0.03149 0.94521 0.0
C12 C 0.03782 0.02962 0.92223 0.0
C13 C 0.99652 0.02822 0.90938 0.0
C14 C 0.95446 0.02999 0.92022 0.0
Zn15 Zn 0.99674 0.0299 0.98918 0.0
O16 O 0.94986 0.98123 0.02391 0.0
C17 C 0.93415 0.08995 0.01027 0.0
O18 O 0.94344 0.98466 0.9878 0.0
H19 H 0.06836 0.03166 0.95499 0.0
H20 H 0.93187 0.02391 0.06097 0.0
H21 H 0.9223 0.03224 0.95171 0.0
O22 O 0.95234 0.07406 0.02752 0.0
O23 O 0.94696 0.07765 0.99134 0.0
H24 H 0.07787 0.02077 0.06222 0.0
O25 O 0.05057 0.07469 0.99116 0.0
O26 O 0.05605 0.07109 0.0273 0.0
O27 O 0.046 0.98179 0.9877 0.0
O28 O 0.0523 0.97856 0.0238 0.0
C29 C 0.07 0.08601 0.00947 0.0
H30 H 0.93148 0.01574 0.10117 0.0
H31 H 0.08065 0.01202 0.10254 0.0
H32 H 0.07104 0.02908 0.9146 0.0
H33 H 0.92179 0.02869 0.91099 0.0
C34 C 0.44546 0.46643 0.50114 0.0
N35 N 0.51566 0.52922 0.55338 0.0
C36 C 0.47535 0.52534 0.56398 0.0
C37 C 0.47563 0.52128 0.58686 0.0
C38 C 0.51779 0.52126 0.59903 0.0
C39 C 0.55883 0.52641 0.58775 0.0
C40 C 0.55698 0.53025 0.56479 0.0
Zn41 Zn 0.51317 0.52988 0.5196 0.0
C42 C 0.57833 0.47055 0.50038 0.0
N43 N 0.50412 0.52811 0.44897 0.0
C44 C 0.46338 0.52544 0.43713 0.0
C45 C 0.5451 0.52844 0.43872 0.0
C46 C 0.54627 0.52537 0.41575 0.0
C47 C 0.50489 0.52167 0.40307 0.0
C48 C 0.46296 0.52222 0.41404 0.0
Zn49 Zn 0.50604 0.52907 0.48284 0.0
O50 O 0.46505 0.48052 0.51886 0.0
C51 C 0.43935 0.587 0.50257 0.0
O52 O 0.45531 0.4819 0.4828 0.0
H53 H 0.57713 0.53056 0.4484 0.0
H54 H 0.44286 0.52466 0.55463 0.0
H55 H 0.43118 0.5251 0.44561 0.0
O56 O 0.45867 0.57314 0.52006 0.0
O57 O 0.45332 0.5748 0.48383 0.0
H58 H 0.58862 0.53316 0.55603 0.0
O59 O 0.55724 0.57614 0.48338 0.0
O60 O 0.56179 0.57878 0.51964 0.0
O61 O 0.55811 0.48268 0.4827 0.0
O62 O 0.56703 0.48627 0.5188 0.0
C63 C 0.575 0.59164 0.50121 0.0
H64 H 0.44314 0.51805 0.59493 0.0
H65 H 0.5921 0.52626 0.59648 0.0
H66 H 0.57936 0.52587 0.40803 0.0
H67 H 0.43025 0.51913 0.40494 0.0
C68 C 0.97375 0.93071 0.35122 0.0
C69 C 0.98472 0.96748 0.34042 0.0
C70 C 0.96656 0.93128 0.37397 0.0
C71 C 0.96998 0.96868 0.38636 0.0
C72 C 0.9815 0.00528 0.37558 0.0
C73 C 0.98866 0.00471 0.35292 0.0
C74 C 0.96161 0.97004 0.41046 0.0
C75 C 0.97985 0.93949 0.42445 0.0
C76 C 0.97516 0.94291 0.44746 0.0
C77 C 0.95172 0.97714 0.45644 0.0
C78 C 0.93278 0.00771 0.44266 0.0
C79 C 0.93725 0.00342 0.4197 0.0
C80 C 0.90955 0.04488 0.45208 0.0
C81 C 0.88064 0.04166 0.47014 0.0
C82 C 0.91554 0.08397 0.44267 0.0
C83 C 0.89161 0.11855 0.4504 0.0
C84 C 0.86177 0.11501 0.46796 0.0
C85 C 0.99825 0.9125 0.46214 0.0
C86 C 0.99531 0.86976 0.45716 0.0
C87 C 0.0264 0.92629 0.48021 0.0
C88 C 0.05346 0.89814 0.49213 0.0
C89 C 0.05294 0.85568 0.48619 0.0
C90 C 0.02229 0.84158 0.46912 0.0
C91 C 0.85714 0.07655 0.47809 0.0
H92 H 0.97088 0.90143 0.3421 0.0
H93 H 0.95762 0.90259 0.38177 0.0
H94 H 0.98517 0.03452 0.38468 0.0
H95 H 0.99649 0.0337 0.34514 0.0
H96 H -0.00023 0.91415 0.41756 0.0
H97 H 0.92169 0.02626 0.40888 0.0
H98 H 0.94913 0.98033 0.4742 0.0
H99 H 0.87505 0.01201 0.47769 0.0
H100 H 0.93857 0.08789 0.42919 0.0
H101 H 0.89615 0.1481 0.44255 0.0
H102 H 0.97338 0.85831 0.44348 0.0
H103 H 0.02925 0.95908 0.48447 0.0
H104 H 0.83406 0.07316 0.49161 0.0
H105 H 0.02123 0.8091 0.46405 0.0
H106 H 0.07615 0.90981 0.50547 0.0
C107 C 0.03295 0.03063 0.6605 0.0
C108 C 0.03511 0.99435 0.67297 0.0
C109 C 0.03948 0.02889 0.63776 0.0
C110 C 0.04836 0.99081 0.62688 0.0
C111 C 0.05046 0.95448 0.63932 0.0
C112 C 0.044 0.95623 0.66211 0.0
C113 C 0.05474 0.98918 0.6026 0.0
C114 C 0.08005 0.02031 0.59252 0.0
C115 C 0.08388 0.02059 0.56946 0.0
C116 C 0.06245 0.98906 0.55642 0.0
C117 C 0.03724 0.95763 0.56617 0.0
C118 C 0.03385 0.95764 0.58927 0.0
C119 C 0.01137 0.92669 0.55215 0.0
C120 C 0.98289 0.93976 0.53438 0.0
C121 C 0.01274 0.88437 0.55721 0.0
C122 C 0.98457 0.8559 0.54534 0.0
C123 C 0.95415 0.86935 0.52837 0.0
C124 C 0.10868 0.05472 0.5589 0.0
C125 C 0.10237 0.09608 0.56604 0.0
C126 C 0.13818 0.04633 0.54143 0.0
C127 C 0.16122 0.07867 0.53145 0.0
C128 C 0.155 0.12002 0.53866 0.0
C129 C 0.12527 0.12836 0.55603 0.0
C130 C 0.95442 0.91138 0.52265 0.0
H131 H 0.02672 0.06056 0.66836 0.0
H132 H 0.037 0.0574 0.62864 0.0
H133 H 0.05751 0.9247 0.63148 0.0
H134 H 0.0455 0.92765 0.67119 0.0
H135 H 0.09708 0.04431 0.60267 0.0
H136 H 0.013 0.93422 0.59675 0.0
H137 H 0.06444 0.98945 0.53859 0.0
H138 H 0.98117 0.97223 0.53011 0.0
H139 H 0.03478 0.8735 0.5707 0.0
H140 H 0.98489 0.82375 0.55024 0.0
H141 H 0.0794 0.10357 0.57926 0.0
H142 H 0.1439 0.01472 0.53566 0.0
H143 H 0.93176 0.9225 0.50945 0.0
H144 H 0.1203 0.15984 0.56219 0.0
H145 H 0.18376 0.07132 0.51803 0.0
C146 C 0.49515 0.44701 0.8463 0.0
C147 C 0.50291 0.4837 0.83479 0.0
C148 C 0.48866 0.44846 0.86909 0.0
C149 C 0.48968 0.48663 0.88085 0.0
C150 C 0.49795 0.52318 0.86936 0.0
C151 C 0.50435 0.52175 0.84664 0.0
C152 C 0.48208 0.48874 0.90501 0.0
C153 C 0.5023 0.45953 0.91925 0.0
C154 C 0.4975 0.46334 0.94221 0.0
C155 C 0.47194 0.49643 0.95095 0.0
C156 C 0.45075 0.52545 0.93693 0.0
C157 C 0.45574 0.52114 0.91401 0.0
C158 C 0.4238 0.56059 0.9461 0.0
C159 C 0.39371 0.55458 0.96345 0.0
C160 C 0.42726 0.60033 0.93716 0.0
C161 C 0.40016 0.63297 0.94486 0.0
C162 C 0.36923 0.6267 0.96178 0.0
C163 C 0.5214 0.43399 0.95711 0.0
C164 C 0.51648 0.39098 0.95355 0.0
C165 C 0.55117 0.44892 0.9743 0.0
C166 C 0.57735 0.42128 0.98699 0.0
C167 C 0.57352 0.37822 0.98304 0.0
C168 C 0.54203 0.36331 0.96651 0.0
C169 C 0.36675 0.58738 0.97125 0.0
H170 H 0.49426 0.41713 0.8377 0.0
H171 H 0.48214 0.41976 0.87743 0.0
H172 H 0.49969 0.55306 0.87795 0.0
H173 H 0.50965 0.55067 0.8383 0.0
H174 H 0.52346 0.4348 0.9126 0.0
H175 H 0.4386 0.5429 0.90307 0.0
H176 H 0.469 0.49973 0.96869 0.0
H177 H 0.38998 0.52425 0.97055 0.0
H178 H 0.45089 0.60623 0.92415 0.0
H179 H 0.40329 0.66317 0.93752 0.0
H180 H 0.49348 0.37884 0.94045 0.0
H181 H 0.55557 0.482 0.97733 0.0
H182 H 0.34288 0.58165 0.98419 0.0
H183 H 0.53873 0.33032 0.96289 0.0
H184 H 0.60125 0.4336 0.99964 0.0
C185 C 0.53957 0.51631 0.15409 0.0
C186 C 0.54533 0.48103 0.16716 0.0
C187 C 0.54628 0.51389 0.13137 0.0
C188 C 0.55888 0.47613 0.12114 0.0
C189 C 0.56448 0.44078 0.13417 0.0
C190 C 0.55788 0.44323 0.15693 0.0
C191 C 0.56576 0.47369 0.09693 0.0
C192 C 0.58861 0.5058 0.08644 0.0
C193 C 0.59344 0.50472 0.06346 0.0
C194 C 0.57564 0.47088 0.05088 0.0
C195 C 0.55229 0.43859 0.06099 0.0
C196 C 0.54787 0.44013 0.08407 0.0
C197 C 0.52869 0.40529 0.04744 0.0
C198 C 0.50358 0.41503 0.02795 0.0
C199 C 0.52742 0.36435 0.05493 0.0
C200 C 0.49872 0.33476 0.04426 0.0
C201 C 0.471 0.34531 0.02567 0.0
C202 C 0.61532 0.53995 0.05253 0.0
C203 C 0.60249 0.58091 0.0579 0.0
C204 C 0.64908 0.53302 0.03679 0.0
C205 C 0.67053 0.56658 0.02706 0.0
C206 C 0.65801 0.60756 0.03266 0.0
C207 C 0.62348 0.61436 0.048 0.0
C208 C 0.47545 0.38526 0.01706 0.0
H209 H 0.5304 0.546 0.16146 0.0
H210 H 0.5411 0.54158 0.12177 0.0
H211 H 0.57444 0.4113 0.12682 0.0
H212 H 0.56217 0.41538 0.16649 0.0
H213 H 0.60295 0.53167 0.09619 0.0
H214 H 0.52838 0.41626 0.09195 0.0
H215 H 0.5788 0.47038 0.03312 0.0
H216 H 0.50368 0.44626 0.02168 0.0
H217 H 0.54709 0.35564 0.06965 0.0
H218 H 0.49623 0.30444 0.05148 0.0
H219 H 0.57615 0.58708 0.06978 0.0
H220 H 0.65958 0.50171 0.03238 0.0
H221 H 0.45561 0.39419 0.00244 0.0
H222 H 0.61354 0.64563 0.0528 0.0
H223 H 0.69699 0.56054 0.01524 0.0
H224 H 0.10645 0.12579 0.97468 0.0
H225 H 0.17621 0.16845 0.97501 0.0
H226 H 0.19573 0.15109 0.04515 0.0
H227 H 0.12551 0.10919 0.04506 0.0
H228 H 0.21203 0.22837 0.03601 0.0
H229 H 0.25926 0.09636 0.00758 0.0
H230 H 0.25578 0.03447 0.98283 0.0
H231 H 0.27824 0.11085 0.92703 0.0
H232 H 0.28112 0.17334 0.95141 0.0
H233 H 0.47202 0.25978 0.02191 0.0
H234 H 0.40499 0.21404 0.01622 0.0
H235 H 0.31823 0.3205 0.00414 0.0
H236 H 0.38392 0.36639 0.01105 0.0
H237 H 0.33836 0.19552 0.98526 0.0
H238 H 0.22048 0.31104 0.03154 0.0
H239 H 0.22782 0.36795 0.05945 0.0
H240 H 0.35369 0.31465 0.0854 0.0
H241 H 0.34671 0.25714 0.05788 0.0
C242 C 0.1254 0.13129 0.99021 0.0
C243 C 0.11044 0.11407 0.00985 0.0
C244 C 0.16546 0.15545 0.99034 0.0
C245 C 0.1916 0.16243 0.01004 0.0
C246 C 0.17616 0.14604 0.02974 0.0
C247 C 0.13598 0.1221 0.02966 0.0
C248 C 0.23492 0.187 0.01019 0.0
C249 C 0.23954 0.22118 0.02486 0.0
C250 C 0.27135 0.17712 0.996 0.0
C251 C 0.26997 0.13958 0.9813 0.0
C252 C 0.26312 0.10001 0.99001 0.0
C253 C 0.26131 0.06481 0.97605 0.0
C254 C 0.26669 0.06874 0.95337 0.0
C255 C 0.27402 0.10787 0.9446 0.0
C256 C 0.27578 0.14319 0.95848 0.0
C257 C 0.43872 0.27345 0.01791 0.0
C258 C 0.43338 0.3169 0.01738 0.0
C259 C 0.40053 0.24721 0.01443 0.0
C260 C 0.35647 0.26398 0.01027 0.0
C261 C 0.35181 0.30698 0.00775 0.0
C262 C 0.38971 0.3332 0.01146 0.0
C263 C 0.31483 0.23729 0.01074 0.0
C264 C 0.31063 0.20273 0.99627 0.0
C265 C 0.27927 0.24602 0.02559 0.0
C266 C 0.28327 0.28004 0.0425 0.0
C267 C 0.24959 0.31138 0.04327 0.0
C268 C 0.25371 0.34375 0.05901 0.0
C269 C 0.29127 0.34498 0.07414 0.0
C270 C 0.32469 0.31374 0.07363 0.0
C271 C 0.32068 0.28126 0.05796 0.0
H272 H 0.29444 0.37011 0.08628 0.0
H273 H 0.26527 0.04145 0.94259 0.0
H274 H 0.11147 0.925 0.03784 0.0
H275 H 0.16399 0.86593 0.03376 0.0
H276 H 0.14349 0.86901 0.96292 0.0
H277 H 0.09101 0.92768 0.96679 0.0
H278 H 0.1349 0.79087 0.97862 0.0
H279 H 0.24103 0.906 0.98699 0.0
H280 H 0.2756 0.96793 0.00572 0.0
H281 H 0.31239 0.89559 0.06237 0.0
H282 H 0.27746 0.8333 0.04407 0.0
H283 H 0.31849 0.67768 0.93528 0.0
H284 H 0.26656 0.73344 0.9464 0.0
H285 H 0.29727 0.70805 0.01498 0.0
H286 H 0.34989 0.65211 0.00391 0.0
H287 H 0.29896 0.79358 0.00502 0.0
H288 H 0.19865 0.67662 0.99458 0.0
H289 H 0.16484 0.61517 0.97508 0.0
H290 H 0.11718 0.6915 0.92172 0.0
H291 H 0.15137 0.75334 0.94073 0.0
C292 C 0.11831 0.91318 0.0214 0.0
C293 C 0.09707 0.93097 0.00263 0.0
C294 C 0.14837 0.87954 0.01911 0.0
C295 C 0.15763 0.86326 0.99804 0.0
C296 C 0.13664 0.88109 0.97932 0.0
C297 C 0.10679 0.91472 0.98158 0.0
C298 C 0.18856 0.82715 0.99532 0.0
C299 C 0.17086 0.79155 0.98425 0.0
C300 C 0.23505 0.82772 0.00328 0.0
C301 C 0.25614 0.86511 0.01427 0.0
C302 C 0.25612 0.90338 0.00352 0.0
C303 C 0.27585 0.93853 0.01404 0.0
C304 C 0.29603 0.93573 0.03525 0.0
C305 C 0.29666 0.89773 0.04596 0.0
C306 C 0.27692 0.86249 0.03552 0.0
C307 C 0.31448 0.68417 0.95273 0.0
C308 C 0.33823 0.66067 0.96875 0.0
C309 C 0.28459 0.71579 0.95905 0.0
C310 C 0.27788 0.72453 0.98149 0.0
C311 C 0.30199 0.70159 0.99758 0.0
C312 C 0.33171 0.6696 0.99125 0.0
C313 C 0.24549 0.75774 0.98788 0.0
C314 C 0.26285 0.79272 0.99966 0.0
C315 C 0.19866 0.75671 0.98051 0.0
C316 C 0.17793 0.71959 0.96902 0.0
C317 C 0.18131 0.68026 0.9786 0.0
C318 C 0.16201 0.64536 0.96765 0.0
C319 C 0.13896 0.64942 0.94715 0.0
C320 C 0.13508 0.6884 0.93759 0.0
C321 C 0.15438 0.7234 0.94846 0.0
H322 H 0.12402 0.62236 0.9387 0.0
H323 H 0.3113 0.96298 0.04337 0.0
H324 H 0.89976 0.92778 0.04099 0.0
H325 H 0.84785 0.86834 0.04063 0.0
H326 H 0.83057 0.87453 0.96973 0.0
H327 H 0.88359 0.93383 0.96987 0.0
H328 H 0.76097 0.85576 0.02876 0.0
H329 H 0.81979 0.77431 0.94889 0.0
H330 H 0.88801 0.77098 0.92568 0.0
H331 H 0.97609 0.80162 0.98224 0.0
H332 H 0.90849 0.80458 0.00581 0.0
H333 H 0.62044 0.67789 0.01517 0.0
H334 H 0.66137 0.74062 0.00474 0.0
H335 H 0.79161 0.68111 0.02016 0.0
H336 H 0.75086 0.61814 0.03011 0.0
H337 H 0.79997 0.7285 0.98557 0.0
H338 H 0.73793 0.74415 0.05813 0.0
H339 H 0.67638 0.74481 0.08519 0.0
H340 H 0.60636 0.84186 0.04992 0.0
H341 H 0.66724 0.84134 0.02246 0.0
C342 C 0.88476 0.91676 0.02529 0.0
C343 C 0.89613 0.93533 0.00542 0.0
C344 C 0.8549 0.88282 0.02513 0.0
C345 C 0.8357 0.86672 0.00514 0.0
C346 C 0.84555 0.88611 0.98531 0.0
C347 C 0.8757 0.92006 0.98544 0.0
C348 C 0.80691 0.82867 0.00527 0.0
C349 C 0.76921 0.82808 0.01913 0.0
C350 C 0.81807 0.79235 0.99296 0.0
C351 C 0.85902 0.79017 0.97902 0.0
C352 C 0.85374 0.78023 0.95636 0.0
C353 C 0.89229 0.77841 0.94315 0.0
C354 C 0.93633 0.78625 0.95247 0.0
C355 C 0.94195 0.79573 0.97503 0.0
C356 C 0.90352 0.79752 0.98831 0.0
C357 C 0.65782 0.67811 0.01604 0.0
C358 C 0.68253 0.64338 0.02363 0.0
C359 C 0.68115 0.71389 0.01008 0.0
C360 C 0.72952 0.7158 0.01205 0.0
C361 C 0.75428 0.68034 0.0185 0.0
C362 C 0.73099 0.64439 0.02419 0.0
C363 C 0.75428 0.75553 0.00921 0.0
C364 C 0.79116 0.75645 0.99484 0.0
C365 C 0.74329 0.79186 0.02157 0.0
C366 C 0.70682 0.79237 0.03812 0.0
C367 C 0.70923 0.76541 0.05607 0.0
C368 C 0.67449 0.76579 0.07148 0.0
C369 C 0.63741 0.79327 0.06924 0.0
C370 C 0.63505 0.82052 0.05161 0.0
C371 C 0.66966 0.82021 0.03612 0.0
H372 H 0.61055 0.79352 0.0812 0.0
H373 H 0.96612 0.78486 0.94221 0.0
H374 H 0.8911 0.11538 0.04771 0.0
H375 H 0.82437 0.16151 0.05031 0.0
H376 H 0.82567 0.18035 0.98005 0.0
H377 H 0.89161 0.13368 0.97721 0.0
H378 H 0.80771 0.2407 0.04173 0.0
H379 H 0.71884 0.18407 0.95844 0.0
H380 H 0.71249 0.11955 0.93578 0.0
H381 H 0.74091 0.04717 0.99335 0.0
H382 H 0.74672 0.11119 0.01642 0.0
H383 H 0.66583 0.38796 0.99085 0.0
H384 H 0.7208 0.33646 0.00418 0.0
H385 H 0.60931 0.25065 0.01385 0.0
H386 H 0.55375 0.30242 1.00029 0.0
H387 H 0.67244 0.21462 0.99073 0.0
H388 H 0.67434 0.29011 0.05795 0.0
H389 H 0.67652 0.35179 0.08281 0.0
H390 H 0.81348 0.38007 0.06297 0.0
H391 H 0.81183 0.31901 0.03764 0.0
C392 C 0.87735 0.12955 0.03282 0.0
C393 C 0.89643 0.12061 0.0122 0.0
C394 C 0.83924 0.15593 0.03436 0.0
C395 C 0.81953 0.17375 0.01533 0.0
C396 C 0.8397 0.16618 0.99489 0.0
C397 C 0.87756 0.13966 0.9933 0.0
C398 C 0.77744 0.19975 0.01658 0.0
C399 C 0.77797 0.23495 0.0307 0.0
C400 C 0.73785 0.19124 0.00285 0.0
C401 C 0.73351 0.1525 0.98913 0.0
C402 C 0.72343 0.15439 0.96629 0.0
C403 C 0.72 0.11789 0.95337 0.0
C404 C 0.7264 0.07929 0.96311 0.0
C405 C 0.73609 0.07709 0.98581 0.0
C406 C 0.7395 0.11348 0.99882 0.0
C407 C 0.65279 0.35861 0.99641 0.0
C408 C 0.60549 0.34916 0.99444 0.0
C409 C 0.68432 0.32913 0.00407 0.0
C410 C 0.66922 0.28973 0.01016 0.0
C411 C 0.62174 0.28084 0.0092 0.0
C412 C 0.59009 0.31035 0.00142 0.0
C413 C 0.70365 0.25681 0.01505 0.0
C414 C 0.70172 0.22014 0.00208 0.0
C415 C 0.74125 0.26345 0.0303 0.0
C416 C 0.74287 0.29995 0.04579 0.0
C417 C 0.70485 0.30958 0.05878 0.0
C418 C 0.70599 0.34446 0.07296 0.0
C419 C 0.74511 0.36984 0.07446 0.0
C420 C 0.78321 0.36035 0.0618 0.0
C421 C 0.78221 0.32556 0.04754 0.0
H422 H 0.74592 0.39685 0.08545 0.0
H423 H 0.72379 0.05109 0.95307 0.0
H424 H 0.62148 0.61502 0.46507 0.0
H425 H 0.68913 0.66019 0.46435 0.0
H426 H 0.6814 0.68316 0.53458 0.0
H427 H 0.61458 0.63711 0.53555 0.0
H428 H 0.70735 0.73869 0.47348 0.0
H429 H 0.78665 0.68867 0.55843 0.0
H430 H 0.788 0.62686 0.58178 0.0
H431 H 0.7619 0.54832 0.52443 0.0
H432 H 0.76108 0.60956 0.50071 0.0
H433 H 0.8628 0.88494 0.52108 0.0
H434 H 0.8023 0.83556 0.50998 0.0
H435 H 0.90431 0.73904 0.5027 0.0
H436 H 0.96527 0.78857 0.5142 0.0
H437 H 0.83827 0.7125 0.52637 0.0
H438 H 0.84324 0.77777 0.45754 0.0
H439 H 0.84583 0.83587 0.43182 0.0
H440 H 0.71172 0.87593 0.45129 0.0
H441 H 0.70865 0.81851 0.47745 0.0
C442 C 0.63397 0.62993 0.48035 0.0
C443 C 0.61293 0.6222 0.50042 0.0
C444 C 0.67262 0.65578 0.47989 0.0
C445 C 0.69085 0.67442 0.49946 0.0
C446 C 0.66856 0.6683 0.51934 0.0
C447 C 0.63022 0.64215 0.51986 0.0
C448 C 0.73385 0.69938 0.49929 0.0
C449 C 0.73607 0.73294 0.48497 0.0
C450 C 0.77203 0.69091 0.51372 0.0
C451 C 0.77346 0.65378 0.52782 0.0
C452 C 0.78148 0.65819 0.55079 0.0
C453 C 0.78209 0.62326 0.56409 0.0
C454 C 0.77492 0.5837 0.5546 0.0
C455 C 0.76731 0.57898 0.53177 0.0
C456 C 0.76674 0.6138 0.5184 0.0
C457 C 0.87256 0.85349 0.51654 0.0
C458 C 0.91881 0.84061 0.51848 0.0
C459 C 0.83787 0.82523 0.51019 0.0
C460 C 0.84873 0.78361 0.50532 0.0
C461 C 0.89513 0.77099 0.5064 0.0
C462 C 0.92989 0.79926 0.51295 0.0
C463 C 0.81113 0.75284 0.50114 0.0
C464 C 0.80988 0.71807 0.51465 0.0
C465 C 0.77452 0.75955 0.48552 0.0
C466 C 0.77583 0.79388 0.46957 0.0
C467 C 0.8144 0.7991 0.45645 0.0
C468 C 0.81595 0.83192 0.44178 0.0
C469 C 0.77898 0.8596 0.43994 0.0
C470 C 0.74034 0.85445 0.45273 0.0
C471 C 0.73864 0.82173 0.46747 0.0
H472 H 0.78026 0.885 0.42858 0.0
H473 H 0.77533 0.55671 0.56493 0.0
H474 H 0.59708 0.41984 0.46521 0.0
H475 H 0.64741 0.35907 0.46493 0.0
H476 H 0.68651 0.38286 0.53343 0.0
H477 H 0.63576 0.44377 0.53397 0.0
H478 H 0.76149 0.36013 0.50679 0.0
H479 H 0.61524 0.31044 0.5251 0.0
H480 H 0.53093 0.30034 0.52319 0.0
H481 H 0.53937 0.24428 0.45848 0.0
H482 H 0.62379 0.25466 0.45982 0.0
H483 H 0.85423 0.14946 0.50938 0.0
H484 H 0.80808 0.21062 0.51981 0.0
H485 H 0.7596 0.22148 0.45202 0.0
H486 H 0.80599 0.16119 0.44153 0.0
H487 H 0.68918 0.22453 0.48555 0.0
H488 H 0.83869 0.2831 0.46805 0.0
H489 H 0.92309 0.29028 0.47325 0.0
H490 H 0.90725 0.32689 0.54117 0.0
H491 H 0.82271 0.31931 0.53643 0.0
C492 C 0.6167 0.41246 0.48018 0.0
C493 C 0.61223 0.43641 0.49966 0.0
C494 C 0.64527 0.37765 0.48 0.0
C495 C 0.67011 0.36633 0.49924 0.0
C496 C 0.66739 0.39112 0.51847 0.0
C497 C 0.63836 0.42577 0.51874 0.0
C498 C 0.69763 0.32774 0.49916 0.0
C499 C 0.74566 0.33032 0.50256 0.0
C500 C 0.6768 0.28893 0.49377 0.0
C501 C 0.62587 0.28363 0.4925 0.0
C502 C 0.5991 0.29642 0.51034 0.0
C503 C 0.5513 0.29054 0.50939 0.0
C504 C 0.52986 0.27161 0.49075 0.0
C505 C 0.5561 0.25885 0.47293 0.0
C506 C 0.60394 0.26472 0.47377 0.0
C507 C 0.83357 0.165 0.49681 0.0
C508 C 0.83365 0.15099 0.47467 0.0
C509 C 0.80747 0.1998 0.50273 0.0
C510 C 0.78067 0.22037 0.48663 0.0
C511 C 0.78013 0.20589 0.46463 0.0
C512 C 0.80672 0.1717 0.45866 0.0
C513 C 0.75303 0.25724 0.49238 0.0
C514 C 0.70488 0.25425 0.4901 0.0
C515 C 0.77373 0.2954 0.49919 0.0
C516 C 0.82447 0.30011 0.50197 0.0
C517 C 0.85324 0.29227 0.48415 0.0
C518 C 0.90109 0.2965 0.487 0.0
C519 C 0.92054 0.30889 0.50755 0.0
C520 C 0.89215 0.3172 0.52528 0.0
C521 C 0.84427 0.31296 0.52252 0.0
H522 H 0.95759 0.31216 0.50972 0.0
H523 H 0.49294 0.26663 0.49019 0.0
H524 H 0.43351 0.41501 0.5354 0.0
H525 H 0.38049 0.35661 0.53699 0.0
H526 H 0.32848 0.38143 0.47093 0.0
H527 H 0.38301 0.43933 0.46892 0.0
H528 H 0.29127 0.35326 0.53579 0.0
H529 H 0.28937 0.28652 0.44674 0.0
H530 H 0.33797 0.28544 0.41415 0.0
H531 H 0.45938 0.30085 0.45618 0.0
H532 H 0.41166 0.30085 0.48913 0.0
H533 H 0.12235 0.19651 0.52717 0.0
H534 H 0.16714 0.25596 0.51542 0.0
H535 H 0.29027 0.18073 0.51617 0.0
H536 H 0.2458 0.12123 0.52804 0.0
H537 H 0.28725 0.23548 0.48144 0.0
H538 H 0.26753 0.23766 0.56047 0.0
H539 H 0.22182 0.23681 0.59402 0.0
H540 H 0.15168 0.34797 0.57395 0.0
H541 H 0.19655 0.3491 0.54011 0.0
C542 C 0.41083 0.40808 0.52118 0.0
C543 C 0.41245 0.43168 0.50202 0.0
C544 C 0.38046 0.37472 0.52213 0.0
C545 C 0.3507 0.36444 0.50404 0.0
C546 C 0.35166 0.38836 0.48495 0.0
C547 C 0.38266 0.42149 0.48386 0.0
C548 C 0.31873 0.32876 0.50556 0.0
C549 C 0.29027 0.32769 0.52379 0.0
C550 C 0.31738 0.29529 0.48993 0.0
C551 C 0.34682 0.29419 0.47038 0.0
C552 C 0.32647 0.28939 0.44905 0.0
C553 C 0.35387 0.28891 0.43053 0.0
C554 C 0.40173 0.29311 0.43312 0.0
C555 C 0.42232 0.29754 0.45425 0.0
C556 C 0.39511 0.29776 0.47285 0.0
C557 C 0.1589 0.19257 0.52466 0.0
C558 C 0.18071 0.15439 0.52882 0.0
C559 C 0.18434 0.22644 0.51782 0.0
C560 C 0.23206 0.22278 0.51519 0.0
C561 C 0.25343 0.1841 0.51805 0.0
C562 C 0.22798 0.15016 0.52485 0.0
C563 C 0.2605 0.26007 0.51174 0.0
C564 C 0.28803 0.26143 0.4932 0.0
C565 C 0.26167 0.29363 0.52723 0.0
C566 C 0.23501 0.29321 0.54766 0.0
C567 C 0.24212 0.26175 0.56315 0.0
C568 C 0.2164 0.26123 0.58222 0.0
C569 C 0.18377 0.29225 0.58608 0.0
C570 C 0.1769 0.32392 0.57091 0.0
C571 C 0.20247 0.32452 0.55179 0.0
H572 H 0.1639 0.29181 0.60086 0.0
H573 H 0.42288 0.29289 0.41876 0.0
H574 H 0.39329 0.60835 0.53962 0.0
H575 H 0.32338 0.65009 0.54212 0.0
H576 H 0.32475 0.6713 0.47206 0.0
H577 H 0.39402 0.62845 0.4693 0.0
H578 H 0.30264 0.7269 0.53523 0.0
H579 H 0.21737 0.67597 0.4502 0.0
H580 H 0.21451 0.61404 0.42544 0.0
H581 H 0.24694 0.53606 0.48042 0.0
H582 H 0.24931 0.59741 0.50556 0.0
H583 H 0.14428 0.87178 0.49361 0.0
H584 H 0.20515 0.82271 0.50298 0.0
H585 H 0.10383 0.72564 0.50858 0.0
H586 H 0.04236 0.77486 0.49881 0.0
H587 H 0.16867 0.69942 0.48367 0.0
H588 H 0.16743 0.76364 0.55433 0.0
H589 H 0.16597 0.82094 0.58199 0.0
H590 H 0.29814 0.86311 0.56182 0.0
H591 H 0.30009 0.80647 0.53377 0.0
C592 C 0.37886 0.62203 0.52473 0.0
C593 C 0.39909 0.61493 0.50421 0.0
C594 C 0.33888 0.64592 0.52622 0.0
C595 C 0.31837 0.66329 0.50725 0.0
C596 C 0.33938 0.65741 0.48685 0.0
C597 C 0.37915 0.63316 0.48531 0.0
C598 C 0.27497 0.68746 0.50874 0.0
C599 C 0.27326 0.72083 0.52403 0.0
C600 C 0.23594 0.67855 0.49471 0.0
C601 C 0.23389 0.64138 0.47973 0.0
C602 C 0.22365 0.64559 0.45703 0.0
C603 C 0.22216 0.61059 0.44292 0.0
C604 C 0.23066 0.57116 0.45134 0.0
C605 C 0.24051 0.56663 0.47391 0.0
C606 C 0.24198 0.60152 0.48809 0.0
C607 C 0.13468 0.84033 0.49749 0.0
C608 C 0.08842 0.82724 0.49554 0.0
C609 C 0.16963 0.81221 0.50284 0.0
C610 C 0.15912 0.7705 0.50667 0.0
C611 C 0.11276 0.75767 0.50566 0.0
C612 C 0.07769 0.7858 0.50012 0.0
C613 C 0.197 0.73991 0.50957 0.0
C614 C 0.19775 0.70524 0.4951 0.0
C615 C 0.23449 0.74687 0.52484 0.0
C616 C 0.23378 0.78086 0.54184 0.0
C617 C 0.19607 0.78527 0.55569 0.0
C618 C 0.19516 0.81763 0.57145 0.0
C619 C 0.23191 0.84567 0.57364 0.0
C620 C 0.2697 0.84135 0.5601 0.0
C621 C 0.27075 0.80908 0.54428 0.0
H622 H 0.23114 0.87072 0.58585 0.0
H623 H 0.22954 0.54411 0.44039 0.0
H624 H 0.95047 0.96141 0.12763 0.0
H625 H 0.94962 0.95139 0.16745 0.0
H626 H 0.06192 0.03854 0.17735 0.0
H627 H 0.06301 0.04871 0.13742 0.0
H628 H 0.0747 0.97155 0.20274 0.0
H629 H 0.95166 0.06736 0.1875 0.0
H630 H 0.88081 0.0926 0.16847 0.0
H631 H 0.80583 0.98733 0.19066 0.0
H632 H 0.87643 0.96114 0.20958 0.0
H633 H 0.04921 0.01 0.31783 0.0
H634 H 0.0552 0.0147 0.27787 0.0
H635 H 0.94128 0.92924 0.268 0.0
H636 H 0.93388 0.92566 0.308 0.0
H637 H 0.92999 0.99481 0.2425 0.0
H638 H 0.05374 0.8999 0.25858 0.0
H639 H 0.12499 0.87562 0.27765 0.0
H640 H 0.19903 0.98035 0.25418 0.0
H641 H 0.12806 0.00558 0.23521 0.0
C642 C 0.97478 0.9787 0.13829 0.0
C643 C 0.00653 0.00616 0.12938 0.0
C644 C 0.97432 0.97286 0.16105 0.0
C645 C 0.00527 0.99466 0.17542 0.0
C646 C 0.0377 0.02142 0.16656 0.0
C647 C 0.03832 0.02716 0.14375 0.0
C648 C 0.00335 0.98983 0.19969 0.0
C649 C 0.04323 0.97712 0.2115 0.0
C650 C 0.96203 0.99629 0.21103 0.0
C651 C 0.91945 0.01209 0.19978 0.0
C652 C 0.92015 0.04943 0.18819 0.0
C653 C 0.88002 0.06393 0.17744 0.0
C654 C 0.83887 0.04153 0.17831 0.0
C655 C 0.83774 0.00462 0.18998 0.0
C656 C 0.87779 0.98996 0.20073 0.0
C657 C 0.02535 0.99223 0.30717 0.0
C658 C 0.99092 0.96757 0.31614 0.0
C659 C 0.02916 0.9946 0.28431 0.0
C660 C -0.00105 0.97203 0.26991 0.0
C661 C 0.96505 0.94685 0.2788 0.0
C662 C 0.96112 0.94454 0.30168 0.0
C663 C 0.00128 0.97627 0.24561 0.0
C664 C 0.96145 0.98904 0.23377 0.0
C665 C 0.0427 0.97 0.23429 0.0
C666 C 0.08546 0.95482 0.24564 0.0
C667 C 0.08513 0.91793 0.25762 0.0
C668 C 0.12548 0.90396 0.26839 0.0
C669 C 0.16648 0.92648 0.26717 0.0
C670 C 0.16724 0.96296 0.25513 0.0
C671 C 0.12697 0.97708 0.24435 0.0
H672 H 0.19769 0.91561 0.27551 0.0
H673 H 0.80784 0.0528 0.16998 0.0
H674 H 0.94198 0.06728 0.87815 0.0
H675 H 0.94567 0.06078 0.83789 0.0
H676 H 0.05733 0.97302 0.84502 0.0
H677 H 0.05368 0.97913 0.88514 0.0
H678 H 0.07658 0.0303 0.81541 0.0
H679 H 0.94824 0.94135 0.82949 0.0
H680 H 0.8728 0.9237 0.84432 0.0
H681 H 0.8075 0.01761 0.80489 0.0
H682 H 0.88271 0.03622 0.79004 0.0
H683 H 0.08348 0.95314 0.70543 0.0
H684 H 0.07392 0.95824 0.74533 0.0
H685 H 0.96332 0.04622 0.73544 0.0
H686 H 0.97169 0.04029 0.69545 0.0
H687 H 0.94238 0.99062 0.76626 0.0
H688 H 0.07029 0.07923 0.75198 0.0
H689 H 0.14565 0.09724 0.73717 0.0
H690 H 0.21166 0.00449 0.77714 0.0
H691 H 0.13655 0.98551 0.79196 0.0
C692 C 0.96698 0.04627 0.87114 0.0
C693 C 0.99767 0.02388 0.88489 0.0
C694 C 0.96909 0.04262 0.84812 0.0
C695 C 0.00164 0.01624 0.83842 0.0
C696 C 0.0321 0.99372 0.85212 0.0
C697 C 0.03006 -0.00262 0.87507 0.0
C698 C 0.00485 0.01263 0.81402 0.0
C699 C 0.04737 0.02109 0.8047 0.0
C700 C 0.96645 0.00169 0.79997 0.0
C701 C 0.92118 0.99047 0.80883 0.0
C702 C 0.91785 0.95847 0.82412 0.0
C703 C 0.87512 0.94825 0.8325 0.0
C704 C 0.8354 0.9696 0.8256 0.0
C705 C 0.83831 0.00115 0.81024 0.0
C706 C 0.88097 0.01152 0.80183 0.0
C707 C 0.05673 0.97319 0.7117 0.0
C708 C 0.02852 0.99648 0.69723 0.0
C709 C 0.05159 0.97637 0.73454 0.0
C710 C 0.01832 0.00306 0.7434 0.0
C711 C 0.98936 0.02559 0.72899 0.0
C712 C 0.99448 0.02243 0.70614 0.0
C713 C 0.01422 0.00793 0.7677 0.0
C714 C 0.97156 -0.00018 0.77699 0.0
C715 C 0.05247 0.01925 0.78175 0.0
C716 C 0.09772 0.03068 0.77291 0.0
C717 C 0.10082 0.06245 0.75748 0.0
C718 C 0.1435 0.07287 0.7491 0.0
C719 C 0.1834 0.05195 0.75616 0.0
C720 C 0.18071 0.02063 0.77166 0.0
C721 C 0.1381 0.01005 0.78007 0.0
H722 H 0.21641 0.06006 0.74966 0.0
H723 H 0.80234 0.96164 0.83211 0.0
H724 H 0.46766 0.46559 0.62165 0.0
H725 H 0.46779 0.45598 0.66153 0.0
H726 H 0.5704 0.5524 0.6711 0.0
H727 H 0.57052 0.56215 0.63112 0.0
H728 H 0.59005 0.48667 0.69675 0.0
H729 H 0.45713 0.57168 0.68065 0.0
H730 H 0.38378 0.58978 0.66133 0.0
H731 H 0.32103 0.47899 0.68463 0.0
H732 H 0.39424 0.45994 0.70384 0.0
H733 H 0.56302 0.52894 0.81103 0.0
H734 H 0.56777 0.53142 0.77095 0.0
H735 H 0.46138 0.43794 0.76331 0.0
H736 H 0.45499 0.4366 0.80342 0.0
H737 H 0.44391 0.49996 0.73647 0.0
H738 H 0.57593 0.41584 0.75367 0.0
H739 H 0.64928 0.39745 0.77288 0.0
H740 H 0.71377 0.50574 0.74765 0.0
H741 H 0.64061 0.52511 0.72852 0.0
C742 C 0.49002 0.48498 0.63225 0.0
C743 C 0.51876 0.51493 0.62325 0.0
C744 C 0.49013 0.47937 0.65504 0.0
C745 C 0.51863 0.50387 0.66932 0.0
C746 C 0.54811 0.53318 0.66038 0.0
C747 C 0.54817 0.53869 0.63754 0.0
C748 C 0.5172 0.49924 0.69361 0.0
C749 C 0.55823 0.49006 0.7055 0.0
C750 C 0.47543 0.50263 0.70492 0.0
C751 C 0.43129 0.51419 0.6935 0.0
C752 C 0.42779 0.55103 0.68152 0.0
C753 C 0.38622 0.56149 0.67061 0.0
C754 C 0.3478 0.5355 0.67171 0.0
C755 C 0.35084 0.49907 0.68377 0.0
C756 C 0.39234 0.48844 0.69469 0.0
C757 C 0.54052 0.50896 0.80084 0.0
C758 C 0.50846 0.48269 0.81047 0.0
C759 C 0.54367 0.51006 0.77791 0.0
C760 C 0.51526 0.48457 0.7641 0.0
C761 C 0.48375 0.45781 0.77364 0.0
C762 C 0.48044 0.45681 0.79659 0.0
C763 C 0.51681 0.48738 0.7397 0.0
C764 C 0.47576 0.49633 0.72775 0.0
C765 C 0.55856 0.48374 0.72837 0.0
C766 C 0.60265 0.47212 0.73982 0.0
C767 C 0.60565 0.43592 0.75235 0.0
C768 C 0.64722 0.42528 0.7632 0.0
C769 C 0.68613 0.45046 0.76153 0.0
C770 C 0.68359 0.48629 0.74895 0.0
C771 C 0.64209 0.49708 0.73808 0.0
H772 H 0.71828 0.44217 0.76994 0.0
H773 H 0.31566 0.54365 0.66325 0.0
H774 H 0.56454 0.47463 0.37909 0.0
H775 H 0.56862 0.46831 0.33901 0.0
H776 H 0.45132 0.54975 0.33137 0.0
H777 H 0.44728 0.5567 0.37163 0.0
H778 H 0.44571 0.48234 0.30271 0.0
H779 H 0.55714 0.58683 0.32409 0.0
H780 H 0.62357 0.61677 0.34549 0.0
H781 H 0.71109 0.52009 0.32073 0.0
H782 H 0.64499 0.4892 0.29943 0.0
H783 H 0.47763 0.5227 0.189 0.0
H784 H 0.46843 0.52924 0.22889 0.0
H785 H 0.58801 0.45174 0.24002 0.0
H786 H 0.59824 0.44607 0.20016 0.0
H787 H 0.5909 0.51928 0.26687 0.0
H788 H 0.47926 0.41414 0.24591 0.0
H789 H 0.41274 0.3839 0.2247 0.0
H790 H 0.32563 0.48166 0.2486 0.0
H791 H 0.39181 0.51283 0.26972 0.0
C792 C 0.53981 0.49154 0.36893 0.0
C793 C 0.50591 0.51659 0.37861 0.0
C794 C 0.5421 0.48775 0.346 0.0
C795 C 0.51069 0.50902 0.3322 0.0
C796 C 0.47596 0.53313 0.34173 0.0
C797 C 0.47364 0.53698 0.36473 0.0
C798 C 0.51467 0.50636 0.30785 0.0
C799 C 0.47719 0.49099 0.29481 0.0
C800 C 0.5561 0.51686 0.29762 0.0
C801 C 0.596 0.53548 0.31033 0.0
C802 C 0.59047 0.57176 0.32335 0.0
C803 C 0.62808 0.58894 0.33543 0.0
C804 C 0.6715 0.57029 0.33451 0.0
C805 C 0.67742 0.53448 0.32145 0.0
C806 C 0.6399 0.51714 0.30935 0.0
C807 C 0.50212 0.50721 0.19994 0.0
C808 C 0.5387 0.48386 0.19138 0.0
C809 C 0.49655 0.51066 0.22273 0.0
C810 C 0.52727 0.49066 0.23744 0.0
C811 C 0.5638 0.46733 0.22897 0.0
C812 C 0.56938 0.46384 0.20618 0.0
C813 C 0.52208 0.49487 0.2617 0.0
C814 C 0.55936 0.51066 0.27473 0.0
C815 C 0.48047 0.48476 0.27189 0.0
C816 C 0.44061 0.46606 0.25921 0.0
C817 C 0.44601 0.4294 0.24649 0.0
C818 C 0.40835 0.41205 0.23452 0.0
C819 C 0.36502 0.43091 0.23525 0.0
C820 C 0.35923 0.46712 0.24801 0.0
C821 C 0.3968 0.48462 0.26001 0.0
H822 H 0.3359 0.41743 0.22597 0.0
H823 H 0.70058 0.58364 0.34388 0.0
loop_
_geom_bond_atom_site_label_1
_geom_bond_atom_site_label_2
_geom_bond_distance
_geom_bond_site_symmetry_2
_ccdc_geom_bond_type
C0 O16 1.251 . S
C0 O18 1.254 1_554 S
N1 C2 1.333 1_445 S
N1 C6 1.307 . S
N1 Zn7 2.020 . S
C2 N1 1.333 1_665 S
C2 C3 1.379 . S
C2 H20 0.952 . S
C3 C2 1.379 . S
C3 C4 1.390 1_665 S
C3 H30 0.949 . S
C4 C3 1.390 1_445 S
C4 C5 1.357 . S
C5 C4 1.357 . S
C5 C6 1.370 . S
C5 H31 0.950 . S
C6 N1 1.307 . S
C6 C5 1.370 . S
C6 H24 0.948 . S
Zn7 N1 2.020 . S
Zn7 O16 2.039 1_445 S
Zn7 O22 2.034 1_455 S
Zn7 O26 2.025 . S
Zn7 O28 2.024 1_545 S
C8 O27 1.246 1_554 S
C8 O28 1.249 . S
N9 C10 1.307 1_445 S
N9 C11 1.333 . S
N9 Zn15 2.020 . S
C10 N9 1.307 1_665 S
C10 C14 1.370 . S
C10 H21 0.948 . S
C11 N9 1.333 . S
C11 C12 1.379 . S
C11 H19 0.952 . S
C12 C11 1.379 . S
C12 C13 1.390 . S
C12 H32 0.949 . S
C13 C12 1.390 . S
C13 C14 1.357 1_445 S
C14 C10 1.370 . S
C14 C13 1.357 1_665 S
C14 H33 0.950 . S
Zn15 N9 2.020 . S
Zn15 O18 2.025 1_445 S
Zn15 O23 2.024 1_455 S
Zn15 O25 2.039 . S
Zn15 O27 2.034 1_545 S
O16 C0 1.251 . S
O16 Zn7 2.039 1_665 S
C17 O22 1.246 . S
C17 O23 1.249 1_554 S
O18 C0 1.254 1_556 S
O18 Zn15 2.025 1_665 S
H19 C11 0.952 . S
H20 C2 0.952 . S
H21 C10 0.948 . S
O22 Zn7 2.034 1_655 S
O22 C17 1.246 . S
O23 Zn15 2.024 1_655 S
O23 C17 1.249 1_556 S
H24 C6 0.948 . S
O25 Zn15 2.039 . S
O25 C29 1.251 1_556 S
O26 Zn7 2.025 . S
O26 C29 1.254 . S
O27 C8 1.246 1_556 S
O27 Zn15 2.034 1_565 S
O28 Zn7 2.024 1_565 S
O28 C8 1.249 . S
C29 O25 1.251 1_554 S
C29 O26 1.254 . S
H30 C3 0.949 . S
H31 C5 0.950 . S
H32 C12 0.949 . S
H33 C14 0.950 . S
C34 O50 1.251 . S
C34 O52 1.254 . S
N35 C36 1.333 . S
N35 C40 1.307 . S
N35 Zn41 2.020 . S
C36 N35 1.333 . S
C36 C37 1.379 . S
C36 H54 0.952 . S
C37 C36 1.379 . S
C37 C38 1.390 . S
C37 H64 0.949 . S
C38 C37 1.390 . S
C38 C39 1.357 . S
C39 C38 1.357 . S
C39 C40 1.370 . S
C39 H65 0.950 . S
C40 N35 1.307 . S
C40 C39 1.370 . S
C40 H58 0.948 . S
Zn41 N35 2.020 . S
Zn41 O50 2.039 . S
Zn41 O56 2.034 . S
Zn41 O60 2.025 . S
Zn41 O62 2.024 . S
C42 O61 1.246 . S
C42 O62 1.249 . S
N43 C44 1.307 . S
N43 C45 1.333 . S
N43 Zn49 2.020 . S
C44 N43 1.307 . S
C44 C48 1.370 . S
C44 H55 0.948 . S
C45 N43 1.333 . S
C45 C46 1.379 . S
C45 H53 0.952 . S
C46 C45 1.379 . S
C46 C47 1.390 . S
C46 H66 0.949 . S
C47 C46 1.390 . S
C47 C48 1.357 . S
C48 C44 1.370 . S
C48 C47 1.357 . S
C48 H67 0.950 . S
Zn49 N43 2.020 . S
Zn49 O52 2.025 . S
Zn49 O57 2.024 . S
Zn49 O59 2.039 . S
Zn49 O61 2.034 . S
O50 C34 1.251 . S
O50 Zn41 2.039 . S
C51 O56 1.246 . S
C51 O57 1.249 . S
O52 C34 1.254 . S
O52 Zn49 2.025 . S
H53 C45 0.952 . S
H54 C36 0.952 . S
H55 C44 0.948 . S
O56 Zn41 2.034 . S
O56 C51 1.246 . S
O57 Zn49 2.024 . S
O57 C51 1.249 . S
H58 C40 0.948 . S
O59 Zn49 2.039 . S
O59 C63 1.251 . S
O60 Zn41 2.025 . S
O60 C63 1.254 . S
O61 C42 1.246 . S
O61 Zn49 2.034 . S
O62 Zn41 2.024 . S
O62 C42 1.249 . S
C63 O59 1.251 . S
C63 O60 1.254 . S
H64 C37 0.949 . S
H65 C39 0.950 . S
H66 C46 0.949 . S
H67 C48 0.950 . S
C68 C69 1.362 1_565 S
C68 C70 1.397 . S
C68 H92 0.931 . S
C69 C68 1.362 1_545 S
C69 C73 1.420 1_655 S
C70 C68 1.397 . S
C70 C71 1.403 1_655 S
C70 H93 0.930 . S
C71 C70 1.403 1_455 S
C71 C72 1.358 1_565 S
C71 C74 1.481 . S
C72 C71 1.358 1_545 S
C72 C73 1.389 . S
C72 H94 0.929 . S
C73 C69 1.420 1_455 S
C73 C72 1.389 . S
C73 H95 0.931 . S
C74 C71 1.481 . S
C74 C75 1.388 . S
C74 C79 1.389 1_465 S
C75 C74 1.388 . S
C75 C76 1.401 . S
C75 H96 0.930 . S
C76 C75 1.401 . S
C76 C77 1.371 1_455 S
C76 C85 1.511 . S
C77 C76 1.371 1_655 S
C77 C78 1.397 1_565 S
C77 H98 0.932 . S
C78 C77 1.397 1_545 S
C78 C79 1.361 . S
C78 C80 1.500 . S
C79 C74 1.389 1_645 S
C79 C78 1.361 . S
C79 H97 0.931 . S
C80 C78 1.500 . S
C80 C81 1.371 . S
C80 C82 1.365 . S
C81 C80 1.371 . S
C81 C91 1.386 . S
C81 H99 0.931 . S
C82 C80 1.365 . S
C82 C83 1.409 . S
C82 H100 0.929 . S
C83 C82 1.409 . S
C83 C84 1.380 . S
C83 H101 0.930 . S
C84 C83 1.380 . S
C84 C91 1.357 . S
C85 C76 1.511 . S
C85 C86 1.341 . S
C85 C87 1.371 . S
C86 C85 1.341 . S
C86 C90 1.394 . S
C86 H102 0.930 . S
C87 C85 1.371 . S
C87 C88 1.392 . S
C87 H103 0.931 . S
C88 C87 1.392 . S
C88 C89 1.331 . S
C88 H106 0.932 . S
C89 C88 1.331 . S
C89 C90 1.336 . S
C90 C86 1.394 . S
C90 C89 1.336 . S
C90 H105 0.929 . S
C91 C81 1.386 . S
C91 C84 1.357 . S
C91 H104 0.928 . S
H92 C68 0.931 . S
H93 C70 0.930 . S
H94 C72 0.929 . S
H95 C73 0.931 . S
H96 C75 0.930 . S
H97 C79 0.931 . S
H98 C77 0.932 . S
H99 C81 0.931 . S
H100 C82 0.929 . S
H101 C83 0.930 . S
H102 C86 0.930 . S
H103 C87 0.931 . S
H104 C91 0.928 . S
H105 C90 0.929 . S
H106 C88 0.932 . S
C107 C108 1.386 . S
C107 C109 1.397 . S
C107 H131 0.931 . S
C108 C107 1.386 . S
C108 C112 1.397 1_545 S
C109 C107 1.397 . S
C109 C110 1.384 . S
C109 H132 0.930 . S
C110 C109 1.384 . S
C110 C111 1.377 1_545 S
C110 C113 1.481 . S
C111 C110 1.377 1_565 S
C111 C112 1.389 . S
C111 H133 0.929 . S
C112 C108 1.397 1_565 S
C112 C111 1.389 . S
C112 H134 0.931 . S
C113 C110 1.481 . S
C113 C114 1.387 . S
C113 C118 1.390 1_445 S
C114 C113 1.387 . S
C114 C115 1.401 . S
C114 H135 0.930 . S
C115 C114 1.401 . S
C115 C116 1.376 . S
C115 C124 1.511 . S
C116 C115 1.376 . S
C116 C117 1.392 1_445 S
C116 H137 0.931 . S
C117 C116 1.392 1_665 S
C117 C118 1.361 . S
C117 C119 1.500 . S
C118 C113 1.390 1_665 S
C118 C117 1.361 . S
C118 H136 0.931 . S
C119 C117 1.500 . S
C119 C120 1.371 . S
C119 C121 1.365 . S
C120 C119 1.371 . S
C120 C130 1.386 . S
C120 H138 0.931 . S
C121 C119 1.365 . S
C121 C122 1.409 . S
C121 H139 0.929 . S
C122 C121 1.409 . S
C122 C123 1.380 . S
C122 H140 0.930 . S
C123 C122 1.380 . S
C123 C130 1.357 . S
C124 C115 1.511 . S
C124 C125 1.341 . S
C124 C126 1.371 . S
C125 C124 1.341 . S
C125 C129 1.394 . S
C125 H141 0.930 . S
C126 C124 1.371 . S
C126 C127 1.392 . S
C126 H142 0.931 . S
C127 C126 1.392 . S
C127 C128 1.331 . S
C127 H145 0.932 . S
C128 C127 1.331 . S
C128 C129 1.336 . S
C129 C125 1.394 . S
C129 C128 1.336 . S
C129 H144 0.929 . S
C130 C120 1.386 . S
C130 C123 1.357 . S
C130 H143 0.928 . S
H131 C107 0.931 . S
H132 C109 0.930 . S
H133 C111 0.929 . S
H134 C112 0.931 . S
H135 C114 0.930 . S
H136 C118 0.931 . S
H137 C116 0.931 . S
H138 C120 0.931 . S
H139 C121 0.929 . S
H140 C122 0.930 . S
H141 C125 0.930 . S
H142 C126 0.931 . S
H143 C130 0.928 . S
H144 C129 0.929 . S
H145 C127 0.932 . S
C146 C147 1.386 . S
C146 C148 1.397 . S
C146 H170 0.931 . S
C147 C146 1.386 . S
C147 C151 1.397 . S
C148 C146 1.397 . S
C148 C149 1.384 . S
C148 H171 0.930 . S
C149 C148 1.384 . S
C149 C150 1.377 . S
C149 C152 1.481 . S
C150 C149 1.377 . S
C150 C151 1.389 . S
C150 H172 0.929 . S
C151 C147 1.397 . S
C151 C150 1.389 . S
C151 H173 0.931 . S
C152 C149 1.481 . S
C152 C153 1.387 . S
C152 C157 1.390 . S
C153 C152 1.387 . S
C153 C154 1.401 . S
C153 H174 0.930 . S
C154 C153 1.401 . S
C154 C155 1.376 . S
C154 C163 1.511 . S
C155 C154 1.376 . S
C155 C156 1.392 . S
C155 H176 0.931 . S
C156 C155 1.392 . S
C156 C157 1.361 . S
C156 C158 1.500 . S
C157 C152 1.390 . S
C157 C156 1.361 . S
C157 H175 0.931 . S
C158 C156 1.500 . S
C158 C159 1.371 . S
C158 C160 1.365 . S
C159 C158 1.371 . S
C159 C169 1.386 . S
C159 H177 0.931 . S
C160 C158 1.365 . S
C160 C161 1.409 . S
C160 H178 0.929 . S
C161 C160 1.409 . S
C161 C162 1.380 . S
C161 H179 0.930 . S
C162 C161 1.380 . S
C162 C169 1.357 . S
C163 C154 1.511 . S
C163 C164 1.341 . S
C163 C165 1.371 . S
C164 C163 1.341 . S
C164 C168 1.394 . S
C164 H180 0.930 . S
C165 C163 1.371 . S
C165 C166 1.392 . S
C165 H181 0.931 . S
C166 C165 1.392 . S
C166 C167 1.331 . S
C166 H184 0.932 1_556 S
C167 C166 1.331 . S
C167 C168 1.336 . S
C168 C164 1.394 . S
C168 C167 1.336 . S
C168 H183 0.929 . S
C169 C159 1.386 . S
C169 C162 1.357 . S
C169 H182 0.928 1_556 S
H170 C146 0.931 . S
H171 C148 0.930 . S
H172 C150 0.929 . S
H173 C151 0.931 . S
H174 C153 0.930 . S
H175 C157 0.931 . S
H176 C155 0.931 . S
H177 C159 0.931 . S
H178 C160 0.929 . S
H179 C161 0.930 . S
H180 C164 0.930 . S
H181 C165 0.931 . S
H182 C169 0.928 1_554 S
H183 C168 0.929 . S
H184 C166 0.932 1_554 S
C185 C186 1.386 . S
C185 C187 1.397 . S
C185 H209 0.931 . S
C186 C185 1.386 . S
C186 C190 1.397 . S
C187 C185 1.397 . S
C187 C188 1.384 . S
C187 H210 0.930 . S
C188 C187 1.384 . S
C188 C189 1.377 . S
C188 C191 1.481 . S
C189 C188 1.377 . S
C189 C190 1.389 . S
C189 H211 0.929 . S
C190 C186 1.397 . S
C190 C189 1.389 . S
C190 H212 0.931 . S
C191 C188 1.481 . S
C191 C192 1.387 . S
C191 C196 1.390 . S
C192 C191 1.387 . S
C192 C193 1.401 . S
C192 H213 0.930 . S
C193 C192 1.401 . S
C193 C194 1.376 . S
C193 C202 1.511 . S
C194 C193 1.376 . S
C194 C195 1.392 . S
C194 H215 0.931 . S
C195 C194 1.392 . S
C195 C196 1.361 . S
C195 C197 1.500 . S
C196 C191 1.390 . S
C196 C195 1.361 . S
C196 H214 0.931 . S
C197 C195 1.500 . S
C197 C198 1.371 . S
C197 C199 1.365 . S
C198 C197 1.371 . S
C198 C208 1.386 . S
C198 H216 0.931 . S
C199 C197 1.365 . S
C199 C200 1.409 . S
C199 H217 0.929 . S
C200 C199 1.409 . S
C200 C201 1.380 . S
C200 H218 0.930 . S
C201 C200 1.380 . S
C201 C208 1.357 . S
C202 C193 1.511 . S
C202 C203 1.341 . S
C202 C204 1.371 . S
C203 C202 1.341 . S
C203 C207 1.394 . S
C203 H219 0.930 . S
C204 C202 1.371 . S
C204 C205 1.392 . S
C204 H220 0.931 . S
C205 C204 1.392 . S
C205 C206 1.331 . S
C205 H223 0.932 . S
C206 C205 1.331 . S
C206 C207 1.336 . S
C207 C203 1.394 . S
C207 C206 1.336 . S
C207 H222 0.929 . S
C208 C198 1.386 . S
C208 C201 1.357 . S
C208 H221 0.928 . S
H209 C185 0.931 . S
H210 C187 0.930 . S
H211 C189 0.929 . S
H212 C190 0.931 . S
H213 C192 0.930 . S
H214 C196 0.931 . S
H215 C194 0.931 . S
H216 C198 0.931 . S
H217 C199 0.929 . S
H218 C200 0.930 . S
H219 C203 0.930 . S
H220 C204 0.931 . S
H221 C208 0.928 . S
H222 C207 0.929 . S
H223 C205 0.932 . S
H224 C242 0.951 . S
H225 C244 0.951 . S
H226 C246 0.950 . S
H227 C247 0.950 . S
H228 C249 0.950 . S
H229 C252 0.950 . S
H230 C253 0.950 . S
H231 C255 0.950 . S
H232 C256 0.950 . S
H233 C257 0.951 . S
H234 C259 0.951 . S
H235 C261 0.950 1_556 S
H236 C262 0.950 1_556 S
H237 C264 0.950 . S
H238 C267 0.950 . S
H239 C268 0.950 . S
H240 C270 0.950 . S
H241 C271 0.950 . S
C242 H224 0.951 . S
C242 C243 1.366 1_556 S
C242 C244 1.388 . S
C243 C242 1.366 1_554 S
C243 C247 1.385 . S
C244 H225 0.951 . S
C244 C242 1.388 . S
C244 C245 1.366 1_556 S
C245 C244 1.366 1_554 S
C245 C246 1.414 . S
C245 C248 1.499 . S
C246 H226 0.950 . S
C246 C245 1.414 . S
C246 C247 1.374 . S
C247 H227 0.950 . S
C247 C243 1.385 . S
C247 C246 1.374 . S
C248 C245 1.499 . S
C248 C249 1.373 . S
C248 C250 1.389 1_554 S
C249 H228 0.950 . S
C249 C248 1.373 . S
C249 C265 1.377 . S
C250 C248 1.389 1_556 S
C250 C251 1.524 . S
C250 C264 1.377 . S
C251 C250 1.524 . S
C251 C252 1.397 . S
C251 C256 1.363 . S
C252 H229 0.950 . S
C252 C251 1.397 . S
C252 C253 1.334 . S
C253 H230 0.950 . S
C253 C252 1.334 . S
C253 C254 1.287 . S
C254 C253 1.287 . S
C254 C255 1.524 . S
C254 H273 0.913 . S
C255 H231 0.950 . S
C255 C254 1.524 . S
C255 C256 1.415 . S
C256 H232 0.950 . S
C256 C251 1.363 . S
C256 C255 1.415 . S
C257 H233 0.951 . S
C257 C258 1.366 . S
C257 C259 1.388 . S
C258 C257 1.366 . S
C258 C262 1.385 . S
C259 H234 0.951 . S
C259 C257 1.388 . S
C259 C260 1.366 . S
C260 C259 1.366 . S
C260 C261 1.414 . S
C260 C263 1.499 . S
C261 H235 0.950 1_554 S
C261 C260 1.414 . S
C261 C262 1.374 . S
C262 H236 0.950 1_554 S
C262 C258 1.385 . S
C262 C261 1.374 . S
C263 C260 1.499 . S
C263 C264 1.373 1_554 S
C263 C265 1.389 . S
C264 H237 0.950 . S
C264 C250 1.377 . S
C264 C263 1.373 1_556 S
C265 C249 1.377 . S
C265 C263 1.389 . S
C265 C266 1.524 . S
C266 C265 1.524 . S
C266 C267 1.397 . S
C266 C271 1.363 . S
C267 H238 0.950 . S
C267 C266 1.397 . S
C267 C268 1.334 . S
C268 H239 0.950 . S
C268 C267 1.334 . S
C268 C269 1.287 . S
C269 C268 1.287 . S
C269 C270 1.524 . S
C269 H272 0.999 . S
C270 H240 0.950 . S
C270 C269 1.524 . S
C270 C271 1.415 . S
C271 H241 0.950 . S
C271 C266 1.363 . S
C271 C270 1.415 . S
H272 C269 0.999 . S
H273 C254 0.913 . S
H274 C292 0.951 . S
H275 C294 0.951 . S
H276 C296 0.950 . S
H277 C297 0.950 . S
H278 C299 0.950 . S
H279 C302 0.950 1_556 S
H280 C303 0.950 . S
H281 C305 0.950 . S
H282 C306 0.950 . S
H283 C307 0.951 . S
H284 C309 0.951 . S
H285 C311 0.950 . S
H286 C312 0.950 . S
H287 C314 0.950 . S
H288 C317 0.950 . S
H289 C318 0.950 . S
H290 C320 0.950 . S
H291 C321 0.950 . S
C292 H274 0.951 . S
C292 C293 1.366 . S
C292 C294 1.388 . S
C293 C292 1.366 . S
C293 C297 1.385 1_554 S
C294 H275 0.951 . S
C294 C292 1.388 . S
C294 C295 1.366 1_554 S
C295 C294 1.366 1_556 S
C295 C296 1.414 . S
C295 C298 1.499 . S
C296 H276 0.950 . S
C296 C295 1.414 . S
C296 C297 1.374 . S
C297 H277 0.950 . S
C297 C293 1.385 1_556 S
C297 C296 1.374 . S
C298 C295 1.499 . S
C298 C299 1.373 . S
C298 C300 1.389 1_556 S
C299 H278 0.950 . S
C299 C298 1.373 . S
C299 C315 1.377 . S
C300 C298 1.389 1_554 S
C300 C301 1.524 . S
C300 C314 1.377 . S
C301 C300 1.524 . S
C301 C302 1.397 . S
C301 C306 1.363 . S
C302 H279 0.950 1_554 S
C302 C301 1.397 . S
C302 C303 1.334 . S
C303 H280 0.950 . S
C303 C302 1.334 . S
C303 C304 1.287 . S
C304 C303 1.287 . S
C304 C305 1.524 . S
C304 H323 0.913 . S
C305 H281 0.950 . S
C305 C304 1.524 . S
C305 C306 1.415 . S
C306 H282 0.950 . S
C306 C301 1.363 . S
C306 C305 1.415 . S
C307 H283 0.951 . S
C307 C308 1.366 . S
C307 C309 1.388 . S
C308 C307 1.366 . S
C308 C312 1.385 1_556 S
C309 H284 0.951 . S
C309 C307 1.388 . S
C309 C310 1.366 . S
C310 C309 1.366 . S
C310 C311 1.414 1_556 S
C310 C313 1.499 . S
C311 H285 0.950 . S
C311 C310 1.414 1_554 S
C311 C312 1.374 . S
C312 H286 0.950 . S
C312 C308 1.385 1_554 S
C312 C311 1.374 . S
C313 C310 1.499 . S
C313 C314 1.373 1_556 S
C313 C315 1.389 . S
C314 H287 0.950 . S
C314 C300 1.377 . S
C314 C313 1.373 1_554 S
C315 C299 1.377 . S
C315 C313 1.389 . S
C315 C316 1.524 . S
C316 C315 1.524 . S
C316 C317 1.397 . S
C316 C321 1.363 . S
C317 H288 0.950 . S
C317 C316 1.397 . S
C317 C318 1.334 . S
C318 H289 0.950 . S
C318 C317 1.334 . S
C318 C319 1.287 . S
C319 C318 1.287 . S
C319 C320 1.524 . S
C319 H322 0.999 . S
C320 H290 0.950 . S
C320 C319 1.524 . S
C320 C321 1.415 . S
C321 H291 0.950 . S
C321 C316 1.363 . S
C321 C320 1.415 . S
H322 C319 0.999 . S
H323 C304 0.913 . S
H324 C342 0.951 . S
H325 C344 0.951 . S
H326 C346 0.950 . S
H327 C347 0.950 . S
H328 C349 0.950 . S
H329 C352 0.950 . S
H330 C353 0.950 . S
H331 C355 0.950 . S
H332 C356 0.950 . S
H333 C357 0.951 . S
H334 C359 0.951 . S
H335 C361 0.950 . S
H336 C362 0.950 . S
H337 C364 0.951 1_556 S
H338 C367 0.950 . S
H339 C368 0.950 . S
H340 C370 0.950 . S
H341 C371 0.950 . S
C342 H324 0.951 . S
C342 C343 1.366 . S
C342 C344 1.388 . S
C343 C342 1.366 . S
C343 C347 1.385 . S
C344 H325 0.951 . S
C344 C342 1.388 . S
C344 C345 1.366 . S
C345 C344 1.366 . S
C345 C346 1.414 . S
C345 C348 1.499 . S
C346 H326 0.950 . S
C346 C345 1.414 . S
C346 C347 1.374 . S
C347 H327 0.950 . S
C347 C343 1.385 . S
C347 C346 1.374 . S
C348 C345 1.499 . S
C348 C349 1.373 . S
C348 C350 1.389 1_554 S
C349 H328 0.950 . S
C349 C348 1.373 . S
C349 C365 1.377 . S
C350 C348 1.389 1_556 S
C350 C351 1.524 . S
C350 C364 1.377 1_556 S
C351 C350 1.524 . S
C351 C352 1.397 . S
C351 C356 1.363 . S
C352 H329 0.950 . S
C352 C351 1.397 . S
C352 C353 1.334 . S
C353 H330 0.950 . S
C353 C352 1.334 . S
C353 C354 1.287 . S
C354 C353 1.287 . S
C354 C355 1.524 . S
C354 H373 0.913 . S
C355 H331 0.950 . S
C355 C354 1.524 . S
C355 C356 1.415 . S
C356 H332 0.950 . S
C356 C351 1.363 . S
C356 C355 1.415 . S
C357 H333 0.951 . S
C357 C358 1.366 . S
C357 C359 1.388 . S
C358 C357 1.366 . S
C358 C362 1.385 . S
C359 H334 0.951 . S
C359 C357 1.388 . S
C359 C360 1.366 . S
C360 C359 1.366 . S
C360 C361 1.414 . S
C360 C363 1.499 . S
C361 H335 0.950 . S
C361 C360 1.414 . S
C361 C362 1.374 . S
C362 H336 0.950 . S
C362 C358 1.385 . S
C362 C361 1.374 . S
C363 C360 1.499 . S
C363 C364 1.372 . S
C363 C365 1.389 . S
C364 H337 0.951 1_554 S
C364 C350 1.377 1_554 S
C364 C363 1.372 . S
C365 C349 1.377 . S
C365 C363 1.389 . S
C365 C366 1.524 . S
C366 C365 1.524 . S
C366 C367 1.397 . S
C366 C371 1.363 . S
C367 H338 0.950 . S
C367 C366 1.397 . S
C367 C368 1.334 . S
C368 H339 0.950 . S
C368 C367 1.334 . S
C368 C369 1.287 . S
C369 C368 1.287 . S
C369 C370 1.524 . S
C369 H372 0.999 . S
C370 H340 0.950 . S
C370 C369 1.524 . S
C370 C371 1.415 . S
C371 H341 0.950 . S
C371 C366 1.363 . S
C371 C370 1.415 . S
H372 C369 0.999 . S
H373 C354 0.913 . S
H374 C392 0.951 . S
H375 C394 0.951 . S
H376 C396 0.950 . S
H377 C397 0.950 . S
H378 C399 0.950 . S
H379 C402 0.950 . S
H380 C403 0.950 . S
H381 C405 0.950 . S
H382 C406 0.950 . S
H383 C407 0.951 . S
H384 C409 0.951 . S
H385 C411 0.950 . S
H386 C412 0.950 . S
H387 C414 0.950 . S
H388 C417 0.950 . S
H389 C418 0.950 . S
H390 C420 0.950 . S
H391 C421 0.950 . S
C392 H374 0.951 . S
C392 C393 1.366 . S
C392 C394 1.388 . S
C393 C392 1.366 . S
C393 C397 1.385 1_554 S
C394 H375 0.951 . S
C394 C392 1.388 . S
C394 C395 1.366 1_554 S
C395 C394 1.366 1_556 S
C395 C396 1.414 . S
C395 C398 1.499 . S
C396 H376 0.950 . S
C396 C395 1.414 . S
C396 C397 1.374 . S
C397 H377 0.950 . S
C397 C393 1.385 1_556 S
C397 C396 1.374 . S
C398 C395 1.499 . S
C398 C399 1.373 1_556 S
C398 C400 1.389 . S
C399 H378 0.950 . S
C399 C398 1.373 1_554 S
C399 C415 1.377 . S
C400 C398 1.389 . S
C400 C401 1.524 . S
C400 C414 1.377 . S
C401 C400 1.524 . S
C401 C402 1.397 . S
C401 C406 1.363 . S
C402 H379 0.950 . S
C402 C401 1.397 . S
C402 C403 1.334 . S
C403 H380 0.950 . S
C403 C402 1.334 . S
C403 C404 1.287 . S
C404 C403 1.287 . S
C404 C405 1.524 . S
C404 H423 0.913 . S
C405 H381 0.950 . S
C405 C404 1.524 . S
C405 C406 1.415 . S
C406 H382 0.950 . S
C406 C401 1.363 . S
C406 C405 1.415 . S
C407 H383 0.951 . S
C407 C408 1.366 . S
C407 C409 1.388 . S
C408 C407 1.366 . S
C408 C412 1.385 . S
C409 H384 0.951 . S
C409 C407 1.388 . S
C409 C410 1.366 . S
C410 C409 1.366 . S
C410 C411 1.414 . S
C410 C413 1.499 . S
C411 H385 0.950 . S
C411 C410 1.414 . S
C411 C412 1.374 . S
C412 H386 0.950 . S
C412 C408 1.385 . S
C412 C411 1.374 . S
C413 C410 1.499 . S
C413 C414 1.373 . S
C413 C415 1.389 1_556 S
C414 H387 0.950 . S
C414 C400 1.377 . S
C414 C413 1.373 . S
C415 C399 1.377 . S
C415 C413 1.389 1_554 S
C415 C416 1.524 . S
C416 C415 1.524 . S
C416 C417 1.397 . S
C416 C421 1.363 . S
C417 H388 0.950 . S
C417 C416 1.397 . S
C417 C418 1.334 . S
C418 H389 0.950 . S
C418 C417 1.334 . S
C418 C419 1.287 . S
C419 C418 1.287 . S
C419 C420 1.524 . S
C419 H422 0.999 . S
C420 H390 0.950 . S
C420 C419 1.524 . S
C420 C421 1.415 . S
C421 H391 0.950 . S
C421 C416 1.363 . S
C421 C420 1.415 . S
H422 C419 0.999 . S
H423 C404 0.913 . S
H424 C442 0.951 . S
H425 C444 0.951 . S
H426 C446 0.950 . S
H427 C447 0.950 . S
H428 C449 0.950 . S
H429 C452 0.950 . S
H430 C453 0.950 . S
H431 C455 0.950 . S
H432 C456 0.950 . S
H433 C457 0.951 . S
H434 C459 0.951 . S
H435 C461 0.950 . S
H436 C462 0.950 . S
H437 C464 0.950 . S
H438 C467 0.950 . S
H439 C468 0.950 . S
H440 C470 0.950 . S
H441 C471 0.950 . S
C442 H424 0.951 . S
C442 C443 1.366 . S
C442 C444 1.388 . S
C443 C442 1.366 . S
C443 C447 1.385 . S
C444 H425 0.951 . S
C444 C442 1.388 . S
C444 C445 1.366 . S
C445 C444 1.366 . S
C445 C446 1.414 . S
C445 C448 1.499 . S
C446 H426 0.950 . S
C446 C445 1.414 . S
C446 C447 1.374 . S
C447 H427 0.950 . S
C447 C443 1.385 . S
C447 C446 1.374 . S
C448 C445 1.499 . S
C448 C449 1.373 . S
C448 C450 1.389 . S
C449 H428 0.950 . S
C449 C448 1.373 . S
C449 C465 1.377 . S
C450 C448 1.389 . S
C450 C451 1.524 . S
C450 C464 1.377 . S
C451 C450 1.524 . S
C451 C452 1.397 . S
C451 C456 1.363 . S
C452 H429 0.950 . S
C452 C451 1.397 . S
C452 C453 1.334 . S
C453 H430 0.950 . S
C453 C452 1.334 . S
C453 C454 1.287 . S
C454 C453 1.287 . S
C454 C455 1.524 . S
C454 H473 0.913 . S
C455 H431 0.950 . S
C455 C454 1.524 . S
C455 C456 1.415 . S
C456 H432 0.950 . S
C456 C451 1.363 . S
C456 C455 1.415 . S
C457 H433 0.951 . S
C457 C458 1.366 . S
C457 C459 1.388 . S
C458 C457 1.366 . S
C458 C462 1.385 . S
C459 H434 0.951 . S
C459 C457 1.388 . S
C459 C460 1.366 . S
C460 C459 1.366 . S
C460 C461 1.414 . S
C460 C463 1.499 . S
C461 H435 0.950 . S
C461 C460 1.414 . S
C461 C462 1.374 . S
C462 H436 0.950 . S
C462 C458 1.385 . S
C462 C461 1.374 . S
C463 C460 1.499 . S
C463 C464 1.373 . S
C463 C465 1.389 . S
C464 H437 0.950 . S
C464 C450 1.377 . S
C464 C463 1.373 . S
C465 C449 1.377 . S
C465 C463 1.389 . S
C465 C466 1.524 . S
C466 C465 1.524 . S
C466 C467 1.397 . S
C466 C471 1.363 . S
C467 H438 0.950 . S
C467 C466 1.397 . S
C467 C468 1.334 . S
C468 H439 0.950 . S
C468 C467 1.334 . S
C468 C469 1.287 . S
C469 C468 1.287 . S
C469 C470 1.524 . S
C469 H472 0.999 . S
C470 H440 0.950 . S
C470 C469 1.524 . S
C470 C471 1.415 . S
C471 H441 0.950 . S
C471 C466 1.363 . S
C471 C470 1.415 . S
H472 C469 0.999 . S
H473 C454 0.913 . S
H474 C492 0.951 . S
H475 C494 0.951 . S
H476 C496 0.950 . S
H477 C497 0.950 . S
H478 C499 0.950 . S
H479 C502 0.950 . S
H480 C503 0.950 . S
H481 C505 0.950 . S
H482 C506 0.950 . S
H483 C507 0.951 . S
H484 C509 0.951 . S
H485 C511 0.950 . S
H486 C512 0.950 . S
H487 C514 0.950 . S
H488 C517 0.950 . S
H489 C518 0.950 . S
H490 C520 0.950 . S
H491 C521 0.950 . S
C492 H474 0.951 . S
C492 C493 1.366 . S
C492 C494 1.388 . S
C493 C492 1.366 . S
C493 C497 1.385 . S
C494 H475 0.951 . S
C494 C492 1.388 . S
C494 C495 1.366 . S
C495 C494 1.366 . S
C495 C496 1.414 . S
C495 C498 1.499 . S
C496 H476 0.950 . S
C496 C495 1.414 . S
C496 C497 1.374 . S
C497 H477 0.950 . S
C497 C493 1.385 . S
C497 C496 1.374 . S
C498 C495 1.499 . S
C498 C499 1.373 . S
C498 C500 1.389 . S
C499 H478 0.950 . S
C499 C498 1.373 . S
C499 C515 1.377 . S
C500 C498 1.389 . S
C500 C501 1.524 . S
C500 C514 1.377 . S
C501 C500 1.524 . S
C501 C502 1.397 . S
C501 C506 1.363 . S
C502 H479 0.950 . S
C502 C501 1.397 . S
C502 C503 1.334 . S
C503 H480 0.950 . S
C503 C502 1.334 . S
C503 C504 1.287 . S
C504 C503 1.287 . S
C504 C505 1.524 . S
C504 H523 0.913 . S
C505 H481 0.950 . S
C505 C504 1.524 . S
C505 C506 1.415 . S
C506 H482 0.950 . S
C506 C501 1.363 . S
C506 C505 1.415 . S
C507 H483 0.951 . S
C507 C508 1.366 . S
C507 C509 1.388 . S
C508 C507 1.366 . S
C508 C512 1.385 . S
C509 H484 0.951 . S
C509 C507 1.388 . S
C509 C510 1.366 . S
C510 C509 1.366 . S
C510 C511 1.414 . S
C510 C513 1.499 . S
C511 H485 0.950 . S
C511 C510 1.414 . S
C511 C512 1.374 . S
C512 H486 0.950 . S
C512 C508 1.385 . S
C512 C511 1.374 . S
C513 C510 1.499 . S
C513 C514 1.373 . S
C513 C515 1.389 . S
C514 H487 0.950 . S
C514 C500 1.377 . S
C514 C513 1.373 . S
C515 C499 1.377 . S
C515 C513 1.389 . S
C515 C516 1.524 . S
C516 C515 1.524 . S
C516 C517 1.397 . S
C516 C521 1.363 . S
C517 H488 0.950 . S
C517 C516 1.397 . S
C517 C518 1.334 . S
C518 H489 0.950 . S
C518 C517 1.334 . S
C518 C519 1.287 . S
C519 C518 1.287 . S
C519 C520 1.524 . S
C519 H522 0.999 . S
C520 H490 0.950 . S
C520 C519 1.524 . S
C520 C521 1.415 . S
C521 H491 0.950 . S
C521 C516 1.363 . S
C521 C520 1.415 . S
H522 C519 0.999 . S
H523 C504 0.913 . S
H524 C542 0.951 . S
H525 C544 0.951 . S
H526 C546 0.950 . S
H527 C547 0.950 . S
H528 C549 0.950 . S
H529 C552 0.950 . S
H530 C553 0.950 . S
H531 C555 0.950 . S
H532 C556 0.950 . S
H533 C557 0.951 . S
H534 C559 0.951 . S
H535 C561 0.950 . S
H536 C562 0.950 . S
H537 C564 0.950 . S
H538 C567 0.950 . S
H539 C568 0.950 . S
H540 C570 0.950 . S
H541 C571 0.950 . S
C542 H524 0.951 . S
C542 C543 1.366 . S
C542 C544 1.388 . S
C543 C542 1.366 . S
C543 C547 1.385 . S
C544 H525 0.951 . S
C544 C542 1.388 . S
C544 C545 1.366 . S
C545 C544 1.366 . S
C545 C546 1.414 . S
C545 C548 1.499 . S
C546 H526 0.950 . S
C546 C545 1.414 . S
C546 C547 1.374 . S
C547 H527 0.950 . S
C547 C543 1.385 . S
C547 C546 1.374 . S
C548 C545 1.499 . S
C548 C549 1.373 . S
C548 C550 1.389 . S
C549 H528 0.950 . S
C549 C548 1.373 . S
C549 C565 1.377 . S
C550 C548 1.389 . S
C550 C551 1.524 . S
C550 C564 1.377 . S
C551 C550 1.524 . S
C551 C552 1.397 . S
C551 C556 1.363 . S
C552 H529 0.950 . S
C552 C551 1.397 . S
C552 C553 1.334 . S
C553 H530 0.950 . S
C553 C552 1.334 . S
C553 C554 1.287 . S
C554 C553 1.287 . S
C554 C555 1.524 . S
C554 H573 0.913 . S
C555 H531 0.950 . S
C555 C554 1.524 . S
C555 C556 1.415 . S
C556 H532 0.950 . S
C556 C551 1.363 . S
C556 C555 1.415 . S
C557 H533 0.951 . S
C557 C558 1.366 . S
C557 C559 1.388 . S
C558 C557 1.366 . S
C558 C562 1.385 . S
C559 H534 0.951 . S
C559 C557 1.388 . S
C559 C560 1.366 . S
C560 C559 1.366 . S
C560 C561 1.414 . S
C560 C563 1.499 . S
C561 H535 0.950 . S
C561 C560 1.414 . S
C561 C562 1.374 . S
C562 H536 0.950 . S
C562 C558 1.385 . S
C562 C561 1.374 . S
C563 C560 1.499 . S
C563 C564 1.373 . S
C563 C565 1.389 . S
C564 H537 0.950 . S
C564 C550 1.377 . S
C564 C563 1.373 . S
C565 C549 1.377 . S
C565 C563 1.389 . S
C565 C566 1.524 . S
C566 C565 1.524 . S
C566 C567 1.397 . S
C566 C571 1.363 . S
C567 H538 0.950 . S
C567 C566 1.397 . S
C567 C568 1.334 . S
C568 H539 0.950 . S
C568 C567 1.334 . S
C568 C569 1.287 . S
C569 C568 1.287 . S
C569 C570 1.524 . S
C569 H572 0.999 . S
C570 H540 0.950 . S
C570 C569 1.524 . S
C570 C571 1.415 . S
C571 H541 0.950 . S
C571 C566 1.363 . S
C571 C570 1.415 . S
H572 C569 0.999 . S
H573 C554 0.913 . S
H574 C592 0.951 . S
H575 C594 0.951 . S
H576 C596 0.950 . S
H577 C597 0.950 . S
H578 C599 0.950 . S
H579 C602 0.950 . S
H580 C603 0.950 . S
H581 C605 0.950 . S
H582 C606 0.950 . S
H583 C607 0.951 . S
H584 C609 0.951 . S
H585 C611 0.950 . S
H586 C612 0.950 . S
H587 C614 0.950 . S
H588 C617 0.950 . S
H589 C618 0.950 . S
H590 C620 0.950 . S
H591 C621 0.950 . S
C592 H574 0.951 . S
C592 C593 1.366 . S
C592 C594 1.388 . S
C593 C592 1.366 . S
C593 C597 1.385 . S
C594 H575 0.951 . S
C594 C592 1.388 . S
C594 C595 1.366 . S
C595 C594 1.366 . S
C595 C596 1.414 . S
C595 C598 1.499 . S
C596 H576 0.950 . S
C596 C595 1.414 . S
C596 C597 1.374 . S
C597 H577 0.950 . S
C597 C593 1.385 . S
C597 C596 1.374 . S
C598 C595 1.499 . S
C598 C599 1.373 . S
C598 C600 1.389 . S
C599 H578 0.950 . S
C599 C598 1.373 . S
C599 C615 1.377 . S
C600 C598 1.389 . S
C600 C601 1.524 . S
C600 C614 1.377 . S
C601 C600 1.524 . S
C601 C602 1.397 . S
C601 C606 1.363 . S
C602 H579 0.950 . S
C602 C601 1.397 . S
C602 C603 1.334 . S
C603 H580 0.950 . S
C603 C602 1.334 . S
C603 C604 1.287 . S
C604 C603 1.287 . S
C604 C605 1.524 . S
C604 H623 0.913 . S
C605 H581 0.950 . S
C605 C604 1.524 . S
C605 C606 1.415 . S
C606 H582 0.950 . S
C606 C601 1.363 . S
C606 C605 1.415 . S
C607 H583 0.951 . S
C607 C608 1.366 . S
C607 C609 1.388 . S
C608 C607 1.366 . S
C608 C612 1.385 . S
C609 H584 0.951 . S
C609 C607 1.388 . S
C609 C610 1.366 . S
C610 C609 1.366 . S
C610 C611 1.414 . S
C610 C613 1.499 . S
C611 H585 0.950 . S
C611 C610 1.414 . S
C611 C612 1.374 . S
C612 H586 0.950 . S
C612 C608 1.385 . S
C612 C611 1.374 . S
C613 C610 1.499 . S
C613 C614 1.373 . S
C613 C615 1.389 . S
C614 H587 0.950 . S
C614 C600 1.377 . S
C614 C613 1.373 . S
C615 C599 1.377 . S
C615 C613 1.389 . S
C615 C616 1.524 . S
C616 C615 1.524 . S
C616 C617 1.397 . S
C616 C621 1.363 . S
C617 H588 0.950 . S
C617 C616 1.397 . S
C617 C618 1.334 . S
C618 H589 0.950 . S
C618 C617 1.334 . S
C618 C619 1.287 . S
C619 C618 1.287 . S
C619 C620 1.524 . S
C619 H622 0.999 . S
C620 H590 0.950 . S
C620 C619 1.524 . S
C620 C621 1.415 . S
C621 H591 0.950 . S
C621 C616 1.363 . S
C621 C620 1.415 . S
H622 C619 0.999 . S
H623 C604 0.913 . S
H624 C642 0.951 . S
H625 C644 0.951 . S
H626 C646 0.950 . S
H627 C647 0.950 . S
H628 C649 0.950 . S
H629 C652 0.950 . S
H630 C653 0.950 . S
H631 C655 0.950 . S
H632 C656 0.950 . S
H633 C657 0.951 . S
H634 C659 0.951 . S
H635 C661 0.950 . S
H636 C662 0.950 . S
H637 C664 0.950 . S
H638 C667 0.950 . S
H639 C668 0.950 . S
H640 C670 0.950 . S
H641 C671 0.950 . S
C642 H624 0.951 . S
C642 C643 1.366 1_665 S
C642 C644 1.388 . S
C643 C642 1.366 1_445 S
C643 C647 1.385 . S
C644 H625 0.951 . S
C644 C642 1.388 . S
C644 C645 1.366 1_665 S
C645 C644 1.366 1_445 S
C645 C646 1.414 . S
C645 C648 1.499 . S
C646 H626 0.950 . S
C646 C645 1.414 . S
C646 C647 1.374 . S
C647 H627 0.950 . S
C647 C643 1.385 . S
C647 C646 1.374 . S
C648 C645 1.499 . S
C648 C649 1.373 . S
C648 C650 1.386 1_445 S
C649 H628 0.950 . S
C649 C648 1.373 . S
C649 C665 1.377 . S
C650 C648 1.386 1_665 S
C650 C651 1.525 . S
C650 C664 1.379 . S
C651 C650 1.525 . S
C651 C652 1.397 1_565 S
C651 C656 1.363 . S
C652 H629 0.950 . S
C652 C651 1.397 1_545 S
C652 C653 1.334 . S
C653 H630 0.950 . S
C653 C652 1.334 . S
C653 C654 1.287 . S
C654 C653 1.287 . S
C654 C655 1.524 1_545 S
C654 H673 0.913 . S
C655 H631 0.950 . S
C655 C654 1.524 1_565 S
C655 C656 1.415 . S
C656 H632 0.950 . S
C656 C651 1.363 . S
C656 C655 1.415 . S
C657 H633 0.951 . S
C657 C658 1.366 1_455 S
C657 C659 1.388 . S
C658 C657 1.366 1_655 S
C658 C662 1.385 1_545 S
C659 H634 0.951 . S
C659 C657 1.388 . S
C659 C660 1.366 . S
C660 C659 1.366 . S
C660 C661 1.414 1_445 S
C660 C663 1.499 . S
C661 H635 0.950 . S
C661 C660 1.414 1_665 S
C661 C662 1.374 . S
C662 H636 0.950 . S
C662 C658 1.385 1_565 S
C662 C661 1.374 . S
C663 C660 1.499 . S
C663 C664 1.371 1_445 S
C663 C665 1.394 . S
C664 H637 0.950 . S
C664 C650 1.379 . S
C664 C663 1.371 1_665 S
C665 C649 1.377 . S
C665 C663 1.394 . S
C665 C666 1.524 . S
C666 C665 1.524 . S
C666 C667 1.397 1_545 S
C666 C671 1.363 . S
C667 H638 0.950 . S
C667 C666 1.397 1_565 S
C667 C668 1.334 . S
C668 H639 0.950 . S
C668 C667 1.334 . S
C668 C669 1.287 1_565 S
C669 C668 1.287 1_545 S
C669 C670 1.524 . S
C669 H672 0.999 . S
C670 H640 0.950 . S
C670 C669 1.524 . S
C670 C671 1.415 . S
C671 H641 0.950 . S
C671 C666 1.363 . S
C671 C670 1.415 . S
H672 C669 0.999 . S
H673 C654 0.913 . S
H674 C692 0.951 . S
H675 C694 0.951 . S
H676 C696 0.950 . S
H677 C697 0.950 . S
H678 C699 0.950 . S
H679 C702 0.950 . S
H680 C703 0.950 . S
H681 C705 0.950 1_545 S
H682 C706 0.950 . S
H683 C707 0.951 . S
H684 C709 0.951 . S
H685 C711 0.950 . S
H686 C712 0.950 . S
H687 C714 0.950 1_565 S
H688 C717 0.950 . S
H689 C718 0.950 . S
H690 C720 0.950 . S
H691 C721 0.950 1_565 S
C692 H674 0.951 . S
C692 C693 1.366 1_655 S
C692 C694 1.388 . S
C693 C692 1.366 1_455 S
C693 C697 1.385 1_545 S
C694 H675 0.951 . S
C694 C692 1.388 . S
C694 C695 1.366 1_655 S
C695 C694 1.366 1_455 S
C695 C696 1.414 1_545 S
C695 C698 1.499 . S
C696 H676 0.950 . S
C696 C695 1.414 1_565 S
C696 C697 1.374 . S
C697 H677 0.950 . S
C697 C693 1.385 1_565 S
C697 C696 1.374 . S
C698 C695 1.499 . S
C698 C699 1.373 . S
C698 C700 1.389 1_455 S
C699 H678 0.950 . S
C699 C698 1.373 . S
C699 C715 1.377 . S
C700 C698 1.389 1_655 S
C700 C701 1.525 1_545 S
C700 C714 1.376 . S
C701 C700 1.525 1_565 S
C701 C702 1.397 . S
C701 C706 1.363 1_565 S
C702 H679 0.950 . S
C702 C701 1.397 . S
C702 C703 1.334 . S
C703 H680 0.950 . S
C703 C702 1.334 . S
C703 C704 1.287 . S
C704 C703 1.287 . S
C704 C705 1.524 . S
C704 H723 0.913 . S
C705 H681 0.950 1_565 S
C705 C704 1.524 . S
C705 C706 1.415 1_565 S
C706 H682 0.950 . S
C706 C701 1.363 1_545 S
C706 C705 1.415 1_545 S
C707 H683 0.951 . S
C707 C708 1.366 1_565 S
C707 C709 1.388 . S
C708 C707 1.366 1_545 S
C708 C712 1.385 1_455 S
C709 H684 0.951 . S
C709 C707 1.388 . S
C709 C710 1.366 1_565 S
C710 C709 1.366 1_545 S
C710 C711 1.414 1_455 S
C710 C713 1.499 . S
C711 H685 0.950 . S
C711 C710 1.414 1_655 S
C711 C712 1.374 . S
C712 H686 0.950 . S
C712 C708 1.385 1_655 S
C712 C711 1.374 . S
C713 C710 1.499 . S
C713 C714 1.373 1_455 S
C713 C715 1.389 . S
C714 H687 0.950 1_545 S
C714 C700 1.376 . S
C714 C713 1.373 1_655 S
C715 C699 1.377 . S
C715 C713 1.389 . S
C715 C716 1.524 . S
C716 C715 1.524 . S
C716 C717 1.397 . S
C716 C721 1.363 . S
C717 H688 0.950 . S
C717 C716 1.397 . S
C717 C718 1.334 . S
C718 H689 0.950 . S
C718 C717 1.334 . S
C718 C719 1.287 . S
C719 C718 1.287 . S
C719 C720 1.524 . S
C719 H722 0.999 . S
C720 H690 0.950 . S
C720 C719 1.524 . S
C720 C721 1.415 . S
C721 H691 0.950 1_545 S
C721 C716 1.363 . S
C721 C720 1.415 . S
H722 C719 0.999 . S
H723 C704 0.913 . S
H724 C742 0.951 . S
H725 C744 0.951 . S
H726 C746 0.950 . S
H727 C747 0.950 . S
H728 C749 0.950 . S
H729 C752 0.950 . S
H730 C753 0.950 . S
H731 C755 0.950 . S
H732 C756 0.950 . S
H733 C757 0.951 . S
H734 C759 0.951 . S
H735 C761 0.950 . S
H736 C762 0.950 . S
H737 C764 0.950 . S
H738 C767 0.950 . S
H739 C768 0.950 . S
H740 C770 0.950 . S
H741 C771 0.950 . S
C742 H724 0.951 . S
C742 C743 1.366 . S
C742 C744 1.388 . S
C743 C742 1.366 . S
C743 C747 1.385 . S
C744 H725 0.951 . S
C744 C742 1.388 . S
C744 C745 1.366 . S
C745 C744 1.366 . S
C745 C746 1.414 . S
C745 C748 1.499 . S
C746 H726 0.950 . S
C746 C745 1.414 . S
C746 C747 1.374 . S
C747 H727 0.950 . S
C747 C743 1.385 . S
C747 C746 1.374 . S
C748 C745 1.499 . S
C748 C749 1.373 . S
C748 C750 1.389 . S
C749 H728 0.950 . S
C749 C748 1.373 . S
C749 C765 1.377 . S
C750 C748 1.389 . S
C750 C751 1.524 . S
C750 C764 1.377 . S
C751 C750 1.524 . S
C751 C752 1.397 . S
C751 C756 1.363 . S
C752 H729 0.950 . S
C752 C751 1.397 . S
C752 C753 1.334 . S
C753 H730 0.950 . S
C753 C752 1.334 . S
C753 C754 1.287 . S
C754 C753 1.287 . S
C754 C755 1.524 . S
C754 H773 0.913 . S
C755 H731 0.950 . S
C755 C754 1.524 . S
C755 C756 1.415 . S
C756 H732 0.950 . S
C756 C751 1.363 . S
C756 C755 1.415 . S
C757 H733 0.951 . S
C757 C758 1.366 . S
C757 C759 1.388 . S
C758 C757 1.366 . S
C758 C762 1.385 . S
C759 H734 0.951 . S
C759 C757 1.388 . S
C759 C760 1.366 . S
C760 C759 1.366 . S
C760 C761 1.414 . S
C760 C763 1.499 . S
C761 H735 0.950 . S
C761 C760 1.414 . S
C761 C762 1.374 . S
C762 H736 0.950 . S
C762 C758 1.385 . S
C762 C761 1.374 . S
C763 C760 1.499 . S
C763 C764 1.373 . S
C763 C765 1.389 . S
C764 H737 0.950 . S
C764 C750 1.377 . S
C764 C763 1.373 . S
C765 C749 1.377 . S
C765 C763 1.389 . S
C765 C766 1.524 . S
C766 C765 1.524 . S
C766 C767 1.397 . S
C766 C771 1.363 . S
C767 H738 0.950 . S
C767 C766 1.397 . S
C767 C768 1.334 . S
C768 H739 0.950 . S
C768 C767 1.334 . S
C768 C769 1.287 . S
C769 C768 1.287 . S
C769 C770 1.524 . S
C769 H772 0.999 . S
C770 H740 0.950 . S
C770 C769 1.524 . S
C770 C771 1.415 . S
C771 H741 0.950 . S
C771 C766 1.363 . S
C771 C770 1.415 . S
H772 C769 0.999 . S
H773 C754 0.913 . S
H774 C792 0.951 . S
H775 C794 0.951 . S
H776 C796 0.950 . S
H777 C797 0.950 . S
H778 C799 0.950 . S
H779 C802 0.950 . S
H780 C803 0.950 . S
H781 C805 0.950 . S
H782 C806 0.950 . S
H783 C807 0.951 . S
H784 C809 0.951 . S
H785 C811 0.950 . S
H786 C812 0.950 . S
H787 C814 0.950 . S
H788 C817 0.950 . S
H789 C818 0.950 . S
H790 C820 0.950 . S
H791 C821 0.950 . S
C792 H774 0.951 . S
C792 C793 1.366 . S
C792 C794 1.388 . S
C793 C792 1.366 . S
C793 C797 1.385 . S
C794 H775 0.951 . S
C794 C792 1.388 . S
C794 C795 1.366 . S
C795 C794 1.366 . S
C795 C796 1.414 . S
C795 C798 1.499 . S
C796 H776 0.950 . S
C796 C795 1.414 . S
C796 C797 1.374 . S
C797 H777 0.950 . S
C797 C793 1.385 . S
C797 C796 1.374 . S
C798 C795 1.499 . S
C798 C799 1.373 . S
C798 C800 1.389 . S
C799 H778 0.950 . S
C799 C798 1.373 . S
C799 C815 1.377 . S
C800 C798 1.389 . S
C800 C801 1.524 . S
C800 C814 1.377 . S
C801 C800 1.524 . S
C801 C802 1.397 . S
C801 C806 1.363 . S
C802 H779 0.950 . S
C802 C801 1.397 . S
C802 C803 1.334 . S
C803 H780 0.950 . S
C803 C802 1.334 . S
C803 C804 1.287 . S
C804 C803 1.287 . S
C804 C805 1.524 . S
C804 H823 0.913 . S
C805 H781 0.950 . S
C805 C804 1.524 . S
C805 C806 1.415 . S
C806 H782 0.950 . S
C806 C801 1.363 . S
C806 C805 1.415 . S
C807 H783 0.951 . S
C807 C808 1.366 . S
C807 C809 1.388 . S
C808 C807 1.366 . S
C808 C812 1.385 . S
C809 H784 0.951 . S
C809 C807 1.388 . S
C809 C810 1.366 . S
C810 C809 1.366 . S
C810 C811 1.414 . S
C810 C813 1.499 . S
C811 H785 0.950 . S
C811 C810 1.414 . S
C811 C812 1.374 . S
C812 H786 0.950 . S
C812 C808 1.385 . S
C812 C811 1.374 . S
C813 C810 1.499 . S
C813 C814 1.373 . S
C813 C815 1.389 . S
C814 H787 0.950 . S
C814 C800 1.377 . S
C814 C813 1.373 . S
C815 C799 1.377 . S
C815 C813 1.389 . S
C815 C816 1.524 . S
C816 C815 1.524 . S
C816 C817 1.397 . S
C816 C821 1.363 . S
C817 H788 0.950 . S
C817 C816 1.397 . S
C817 C818 1.334 . S
C818 H789 0.950 . S
C818 C817 1.334 . S
C818 C819 1.287 . S
C819 C818 1.287 . S
C819 C820 1.524 . S
C819 H822 0.999 . S
C820 H790 0.950 . S
C820 C819 1.524 . S
C820 C821 1.415 . S
C821 H791 0.950 . S
C821 C816 1.363 . S
C821 C820 1.415 . S
H822 C819 0.999 . S
H823 C804 0.913 . S
C258 C201 1.378 . S
C243 C29 1.411 . S
C293 C8 1.400 . S
C308 C162 1.370 . S
C343 C0 1.394 . S
C358 C206 1.368 . S
C393 C17 1.405 . S
C408 C167 1.379 . S
C443 C63 1.411 . S
C458 C123 1.377 . S
C493 C42 1.400 . S
C508 C84 1.369 . S
C558 C128 1.368 . S
C543 C34 1.394 . S
C608 C89 1.379 . S
C593 C51 1.406 . S
C643 C4 1.480 . S
C658 C69 1.483 . S
C693 C13 1.478 . S
C708 C108 1.480 . S
C758 C147 1.482 . S
C743 C38 1.480 . S
C793 C47 1.478 . S
C808 C186 1.480 . S
