# Generated by pormake.
# Topology apo, (3,6)-cn, num edge types: 1
# Building blocks:
#     Node 0, Type 0, BuildingBlock: BETDIP_clean_linker_0, # of connection points: 3
#     Node 1, Type 0, BuildingBlock: BETDIP_clean_linker_0, # of connection points: 3
#     Node 2, Type 0, BuildingBlock: BETDIP_clean_linker_0, # of connection points: 3
#     Node 3, Type 0, BuildingBlock: BETDIP_clean_linker_0, # of connection points: 3
#     Node 4, Type 0, BuildingBlock: BETDIP_clean_linker_0, # of connection points: 3
#     Node 5, Type 0, BuildingBlock: BETDIP_clean_linker_0, # of connection points: 3
#     Node 6, Type 0, BuildingBlock: BETDIP_clean_linker_0, # of connection points: 3
#     Node 7, Type 0, BuildingBlock: BETDIP_clean_linker_0, # of connection points: 3
#     Node 8, Type 1, BuildingBlock: KUMJIN_clean_sbu_1, # of connection points: 6
#     Node 9, Type 1, BuildingBlock: KUMJIN_clean_sbu_1, # of connection points: 6
#     Node 10, Type 1, BuildingBlock: KUMJIN_clean_sbu_1, # of connection points: 6
#     Node 11, Type 1, BuildingBlock: KUMJIN_clean_sbu_1, # of connection points: 6
#     Edge 12, Type (0, 1), BuildingBlock: ZUJKAS_clean_linker_0, # of connection points: 2
#     Edge 13, Type (0, 1), BuildingBlock: ZUJKAS_clean_linker_0, # of connection points: 2
#     Edge 14, Type (0, 1), BuildingBlock: ZUJKAS_clean_linker_0, # of connection points: 2
#     Edge 15, Type (0, 1), BuildingBlock: ZUJKAS_clean_linker_0, # of connection points: 2
#     Edge 16, Type (0, 1), BuildingBlock: ZUJKAS_clean_linker_0, # of connection points: 2
#     Edge 17, Type (0, 1), BuildingBlock: ZUJKAS_clean_linker_0, # of connection points: 2
#     Edge 18, Type (0, 1), BuildingBlock: ZUJKAS_clean_linker_0, # of connection points: 2
#     Edge 19, Type (0, 1), BuildingBlock: ZUJKAS_clean_linker_0, # of connection points: 2
#     Edge 20, Type (0, 1), BuildingBlock: ZUJKAS_clean_linker_0, # of connection points: 2
#     Edge 21, Type (0, 1), BuildingBlock: ZUJKAS_clean_linker_0, # of connection points: 2
#     Edge 22, Type (0, 1), BuildingBlock: ZUJKAS_clean_linker_0, # of connection points: 2
#     Edge 23, Type (0, 1), BuildingBlock: ZUJKAS_clean_linker_0, # of connection points: 2
#     Edge 24, Type (0, 1), BuildingBlock: ZUJKAS_clean_linker_0, # of connection points: 2
#     Edge 25, Type (0, 1), BuildingBlock: ZUJKAS_clean_linker_0, # of connection points: 2
#     Edge 26, Type (0, 1), BuildingBlock: ZUJKAS_clean_linker_0, # of connection points: 2
#     Edge 27, Type (0, 1), BuildingBlock: ZUJKAS_clean_linker_0, # of connection points: 2
#     Edge 28, Type (0, 1), BuildingBlock: ZUJKAS_clean_linker_0, # of connection points: 2
#     Edge 29, Type (0, 1), BuildingBlock: ZUJKAS_clean_linker_0, # of connection points: 2
#     Edge 30, Type (0, 1), BuildingBlock: ZUJKAS_clean_linker_0, # of connection points: 2
#     Edge 31, Type (0, 1), BuildingBlock: ZUJKAS_clean_linker_0, # of connection points: 2
#     Edge 32, Type (0, 1), BuildingBlock: ZUJKAS_clean_linker_0, # of connection points: 2
#     Edge 33, Type (0, 1), BuildingBlock: ZUJKAS_clean_linker_0, # of connection points: 2
#     Edge 34, Type (0, 1), BuildingBlock: ZUJKAS_clean_linker_0, # of connection points: 2
#     Edge 35, Type (0, 1), BuildingBlock: ZUJKAS_clean_linker_0, # of connection points: 2
# Relax obj value: 0.038
# Max RMSD: 0.187
# Mean RMSD: 0.149
data_MOF--net-apo--node1-KUMJIN_clean_sbu_1--node2-BETDIP_clean_linker_0--edge1-ZUJKAS_clean_linker_0
_symmetry_space_group_name_H-M    P1
_symmetry_Int_Tables_number       1
_symmetry_cell_setting            triclinic
loop_
_symmetry_equiv_pos_as_xyz
'x, y, z'
_cell_length_a     35.358287
_cell_length_b     55.13657
_cell_length_c     64.777781
_cell_angle_alpha  90.013749
_cell_angle_beta   90.094912
_cell_angle_gamma 90.361393
loop_
_atom_site_label
_atom_site_type_symbol
_atom_site_fract_x
_atom_site_fract_y
_atom_site_fract_z
_atom_type_partial_charge
H0 H 0.28612 0.35181 0.4411 0.0
H1 H 0.29652 0.38159 0.37998 0.0
H2 H 0.35596 0.41479 0.43055 0.0
H3 H 0.23889 0.36484 0.37592 0.0
C4 C 0.24109 0.34769 0.38405 0.0
C5 C 0.29758 0.36543 0.43076 0.0
C6 C 0.32276 0.38319 0.43833 0.0
C7 C 0.28723 0.36498 0.40985 0.0
C8 C 0.30281 0.38237 0.39631 0.0
C9 C 0.32776 0.40039 0.40362 0.0
C10 C 0.3375 0.40062 0.42465 0.0
N11 N 0.26224 0.34638 0.40274 0.0
H12 H 0.2284 0.15957 0.94157 0.0
H13 H 0.21217 0.13184 0.88017 0.0
H14 H 0.16876 0.09213 0.93203 0.0
H15 H 0.21312 0.17204 0.87256 0.0
C16 C 0.23655 0.17843 0.88202 0.0
C17 C 0.21713 0.14572 0.93135 0.0
C18 C 0.1978 0.12551 0.93951 0.0
C19 C 0.22188 0.14836 0.90999 0.0
C20 C 0.20807 0.13019 0.89665 0.0
C21 C 0.18884 0.10981 0.90447 0.0
C22 C 0.18382 0.1077 0.9259 0.0
N23 N 0.24129 0.16919 0.90235 0.0
H24 H 0.77445 0.16418 0.57542 0.0
H25 H 0.79115 0.13218 0.63508 0.0
H26 H 0.84193 0.09969 0.58174 0.0
H27 H 0.73341 0.14873 0.64054 0.0
C28 C 0.73658 0.16645 0.63341 0.0
C29 C 0.78709 0.1502 0.58489 0.0
C30 C 0.80907 0.13189 0.57577 0.0
C31 C 0.77992 0.15021 0.60613 0.0
C32 C 0.79588 0.13208 0.61858 0.0
C33 C 0.81797 0.11365 0.60987 0.0
C34 C 0.82432 0.11363 0.58844 0.0
N35 N 0.75695 0.16882 0.6146 0.0
H36 H 0.72944 0.34144 0.07755 0.0
H37 H 0.72303 0.37783 0.13604 0.0
H38 H 0.66575 0.40747 0.08337 0.0
H39 H 0.78027 0.36045 0.14018 0.0
C40 C 0.77519 0.34231 0.13419 0.0
C41 C 0.719 0.35632 0.08682 0.0
C42 C 0.69658 0.37446 0.07774 0.0
C43 C 0.72928 0.35762 0.1077 0.0
C44 C 0.71593 0.37691 0.11981 0.0
C45 C 0.69327 0.39511 0.11114 0.0
C46 C 0.68388 0.39378 0.09007 0.0
N47 N 0.75247 0.3391 0.11622 0.0
H48 H 0.73583 0.65633 0.5752 0.0
H49 H 0.72222 0.62641 0.63607 0.0
H50 H 0.66606 0.59298 0.58461 0.0
H51 H 0.77859 0.64386 0.64115 0.0
C52 C 0.77642 0.66105 0.63308 0.0
C53 C 0.72352 0.64279 0.58533 0.0
C54 C 0.70026 0.6243 0.57717 0.0
C55 C 0.73217 0.6435 0.60648 0.0
C56 C 0.7164 0.62586 0.61969 0.0
C57 C 0.69299 0.60733 0.61187 0.0
C58 C 0.68499 0.60681 0.59063 0.0
N59 N 0.75624 0.66234 0.61407 0.0
H60 H 0.78845 0.84911 0.07445 0.0
H61 H 0.80244 0.88008 0.13484 0.0
H62 H 0.85292 0.91506 0.08241 0.0
H63 H 0.74624 0.86226 0.14041 0.0
C64 C 0.74801 0.84512 0.13222 0.0
C65 C 0.79976 0.86334 0.08426 0.0
C66 C 0.82216 0.88201 0.07574 0.0
C67 C 0.79153 0.86286 0.10542 0.0
C68 C 0.80695 0.88091 0.11835 0.0
C69 C 0.82932 0.89977 0.11021 0.0
C70 C 0.83671 0.90017 0.08889 0.0
N71 N 0.76823 0.84381 0.11327 0.0
H72 H 0.21744 0.83722 0.43724 0.0
H73 H 0.21995 0.87818 0.38083 0.0
H74 H 0.15842 0.90529 0.43282 0.0
H75 H 0.22522 0.84075 0.36703 0.0
C76 C 0.24439 0.83158 0.37753 0.0
C77 C 0.20934 0.85318 0.42858 0.0
C78 C 0.18663 0.87105 0.4378 0.0
C79 C 0.22068 0.85522 0.40794 0.0
C80 C 0.21043 0.87589 0.39658 0.0
C81 C 0.1876 0.89378 0.40543 0.0
C82 C 0.17556 0.89121 0.42596 0.0
N83 N 0.24251 0.83629 0.39909 0.0
H84 H 0.28128 0.66707 0.93837 0.0
H85 H 0.28759 0.62751 0.8812 0.0
H86 H 0.34715 0.60172 0.93439 0.0
H87 H 0.2713 0.66152 0.86688 0.0
C88 C 0.25542 0.67225 0.87785 0.0
C89 C 0.29176 0.65183 0.92954 0.0
C90 C 0.31512 0.63452 0.93907 0.0
C91 C 0.28251 0.65003 0.90854 0.0
C92 C 0.29551 0.62997 0.89719 0.0
C93 C 0.31917 0.61273 0.90639 0.0
C94 C 0.32931 0.61525 0.92723 0.0
N95 N 0.26003 0.66858 0.89946 0.0
Eu96 Eu 0.05232 0.12354 0.23919 0.0
C97 C 0.90806 0.07765 0.27295 0.0
N98 N 0.9149 0.10162 0.26975 0.0
C99 C 0.85603 0.10549 0.25171 0.0
C100 C 0.87541 0.06638 0.26481 0.0
C101 C 0.88904 0.11581 0.25989 0.0
C102 C 0.8494 0.0806 0.25396 0.0
C103 C 0.92718 0.03969 0.28849 0.0
C104 C 0.93376 0.06452 0.28454 0.0
C105 C 0.89548 0.0281 0.27973 0.0
C106 C 0.86962 0.04143 0.26794 0.0
Eu107 Eu 0.97176 0.1176 0.28342 0.0
N108 N 0.96403 0.07629 0.29289 0.0
C109 C 0.952 0.02744 0.30165 0.0
C110 C 0.98615 0.06497 0.30719 0.0
C111 C 0.98117 0.04027 0.31137 0.0
H112 H 0.89432 0.13501 0.25808 0.0
H113 H 0.99951 0.03125 0.3223 0.0
H114 H 0.11938 0.08338 0.2549 0.0
H115 H 0.07122 0.21877 0.21965 0.0
H116 H 0.00739 0.07498 0.31567 0.0
H117 H 0.94797 0.00836 0.30506 0.0
H118 H 0.03869 0.17878 0.2203 0.0
H119 H 0.83585 0.11668 0.2436 0.0
H120 H 0.8902 0.00898 0.28241 0.0
H121 H 0.84492 0.03236 0.26162 0.0
H122 H 0.18193 0.08441 0.27147 0.0
H123 H 0.82393 0.07262 0.24749 0.0
H124 H 0.13326 0.22382 0.23697 0.0
N125 N 0.11414 0.12186 0.25353 0.0
C126 C 0.13276 0.14344 0.2552 0.0
C127 C 0.16818 0.10119 0.26727 0.0
C128 C 0.16947 0.14477 0.26373 0.0
C129 C 0.13222 0.10074 0.25828 0.0
C130 C 0.18665 0.12334 0.27035 0.0
N131 N 0.08138 0.16206 0.23833 0.0
C132 C 0.0657 0.18104 0.22793 0.0
C133 C 0.13583 0.18638 0.24697 0.0
C134 C 0.1162 0.16405 0.24701 0.0
C135 C 0.11907 0.20635 0.23731 0.0
C136 C 0.08405 0.20358 0.22751 0.0
H137 H 0.21477 0.1236 0.27702 0.0
H138 H 0.21658 0.16858 0.27118 0.0
H139 H 0.18732 0.20492 0.25623 0.0
O140 O 0.03737 0.12504 0.20651 0.0
O141 O 0.04127 0.15463 0.26154 0.0
O142 O 0.028 0.13506 0.2917 0.0
O143 O 0.09316 0.11351 0.21542 0.0
O144 O 0.99486 0.1395 0.23154 0.0
O145 O 0.96609 0.15051 0.26245 0.0
O146 O 0.9508 0.1148 0.31505 0.0
O147 O 0.96245 0.10292 0.25078 0.0
O148 O 0.02037 0.08811 0.24223 0.0
O149 O 0.94098 0.14754 0.29768 0.0
O150 O 0.03136 0.10481 0.29101 0.0
O151 O 0.05355 0.0902 0.26001 0.0
C152 C 0.04368 0.15316 0.28169 0.0
C153 C 0.06799 0.09742 0.18461 0.0
C154 C 0.07946 0.08425 0.14918 0.0
C155 C 0.06481 0.06121 0.1543 0.0
C156 C 0.05367 0.07437 0.18945 0.0
C157 C 0.05194 0.05639 0.17429 0.0
C158 C 0.08068 0.10232 0.16454 0.0
C159 C 0.9709 0.15273 0.2423 0.0
C160 C 0.06966 0.11667 0.20022 0.0
C161 C 0.18847 0.1672 0.26458 0.0
C162 C 0.17181 0.18791 0.25607 0.0
C163 C 0.98341 0.08652 0.24172 0.0
C164 C 0.89654 0.13707 0.32388 0.0
C165 C 0.85678 0.1362 0.35477 0.0
C166 C 0.82471 0.13911 0.34212 0.0
C167 C 0.86423 0.14006 0.31158 0.0
C168 C 0.89265 0.13511 0.3454 0.0
C169 C 0.82851 0.141 0.32071 0.0
C170 C 0.0524 0.08977 0.28031 0.0
C171 C 0.93469 0.13589 0.31484 0.0
H172 H 0.06381 0.04678 0.14297 0.0
H173 H 0.04395 0.07034 0.20489 0.0
H174 H 0.0408 0.0386 0.17809 0.0
H175 H 0.09111 0.12035 0.1609 0.0
H176 H 0.79673 0.14036 0.34879 0.0
H177 H 0.86653 0.14179 0.29501 0.0
H178 H 0.91768 0.1325 0.35482 0.0
H179 H 0.80366 0.14337 0.31115 0.0
Eu180 Eu 0.45992 0.38608 0.74007 0.0
C181 C 0.6066 0.43164 0.77323 0.0
N182 N 0.60045 0.40785 0.76899 0.0
C183 C 0.65882 0.40592 0.75035 0.0
C184 C 0.6384 0.44393 0.76522 0.0
C185 C 0.62662 0.39458 0.7585 0.0
C186 C 0.66441 0.4308 0.75342 0.0
C187 C 0.58814 0.46778 0.79179 0.0
C188 C 0.5818 0.44333 0.78634 0.0
C189 C 0.61853 0.48057 0.78291 0.0
C190 C 0.64366 0.46865 0.76967 0.0
Eu191 Eu 0.54481 0.39016 0.78241 0.0
N192 N 0.55317 0.43029 0.79494 0.0
C193 C 0.56465 0.47834 0.80662 0.0
C194 C 0.53257 0.43983 0.81076 0.0
C195 C 0.53724 0.46414 0.81644 0.0
H196 H 0.62198 0.3754 0.75601 0.0
H197 H 0.51998 0.47182 0.82856 0.0
H198 H 0.3966 0.42754 0.75759 0.0
H199 H 0.43476 0.29095 0.72209 0.0
H200 H 0.51248 0.42873 0.81908 0.0
H201 H 0.56851 0.49709 0.81121 0.0
H202 H 0.46885 0.33041 0.72115 0.0
H203 H 0.67913 0.39553 0.74162 0.0
H204 H 0.62357 0.49946 0.78671 0.0
H205 H 0.66762 0.47854 0.76342 0.0
H206 H 0.3362 0.42781 0.77634 0.0
H207 H 0.68925 0.43957 0.74701 0.0
H208 H 0.37503 0.28711 0.74176 0.0
N209 N 0.40005 0.38897 0.75644 0.0
C210 C 0.38083 0.36774 0.75898 0.0
C211 C 0.3487 0.41074 0.77183 0.0
C212 C 0.34527 0.36714 0.76882 0.0
C213 C 0.38346 0.41046 0.76158 0.0
C214 C 0.32981 0.38894 0.7758 0.0
N215 N 0.4292 0.34807 0.74049 0.0
C216 C 0.44277 0.32869 0.72974 0.0
C217 C 0.37514 0.32473 0.75141 0.0
C218 C 0.3955 0.34676 0.75043 0.0
C219 C 0.38983 0.30436 0.74136 0.0
C220 C 0.42355 0.30645 0.73024 0.0
H221 H 0.30261 0.38924 0.78348 0.0
H222 H 0.29842 0.3442 0.77832 0.0
H223 H 0.32468 0.30703 0.76316 0.0
O224 O 0.4706 0.38414 0.70689 0.0
O225 O 0.47319 0.35488 0.76201 0.0
O226 O 0.48857 0.37409 0.79206 0.0
O227 O 0.41686 0.39706 0.71775 0.0
O228 O 0.51553 0.36945 0.73009 0.0
O229 O 0.54827 0.35858 0.75991 0.0
O230 O 0.57363 0.38938 0.81277 0.0
O231 O 0.55236 0.40514 0.74978 0.0
O232 O 0.49421 0.4207 0.74222 0.0
O233 O 0.57248 0.35728 0.79294 0.0
O234 O 0.48638 0.40388 0.7913 0.0
O235 O 0.46266 0.41942 0.76092 0.0
C236 C 0.47154 0.35636 0.78219 0.0
C237 C 0.43909 0.41249 0.68603 0.0
C238 C 0.42887 0.42516 0.65032 0.0
C239 C 0.44064 0.44876 0.65573 0.0
C240 C 0.45076 0.43609 0.69111 0.0
C241 C 0.45157 0.45412 0.67598 0.0
C242 C 0.42833 0.40706 0.66566 0.0
C243 C 0.5411 0.3565 0.73996 0.0
C244 C 0.43815 0.3933 0.70173 0.0
C245 C 0.32562 0.34502 0.77066 0.0
C246 C 0.34053 0.32386 0.76199 0.0
C247 C 0.53118 0.42164 0.74094 0.0
C248 C 0.60621 0.35298 0.8253 0.0
C249 C 0.62824 0.3454 0.86055 0.0
C250 C 0.64823 0.32513 0.85329 0.0
C251 C 0.62625 0.33255 0.81855 0.0
C252 C 0.60755 0.35951 0.84634 0.0
C253 C 0.64724 0.31883 0.83246 0.0
C254 C 0.46585 0.41977 0.78118 0.0
C255 C 0.58364 0.3669 0.81026 0.0
H256 H 0.44182 0.46302 0.64424 0.0
H257 H 0.45909 0.44053 0.70676 0.0
H258 H 0.46067 0.4723 0.67998 0.0
H259 H 0.41903 0.38882 0.66186 0.0
H260 H 0.66499 0.31421 0.86372 0.0
H261 H 0.62583 0.32721 0.80245 0.0
H262 H 0.59175 0.37507 0.8517 0.0
H263 H 0.66276 0.3032 0.82708 0.0
Eu264 Eu 0.04227 0.88854 0.73723 0.0
C265 C 0.88898 0.85055 0.76787 0.0
N266 N 0.89855 0.8741 0.76462 0.0
C267 C 0.84121 0.88041 0.74569 0.0
C268 C 0.85571 0.84063 0.75923 0.0
C269 C 0.87474 0.88936 0.7544 0.0
C270 C 0.83191 0.85585 0.74785 0.0
C271 C 0.90249 0.81225 0.78451 0.0
C272 C 0.91216 0.83661 0.7803 0.0
C273 C 0.87041 0.80186 0.77509 0.0
C274 C 0.84704 0.81603 0.7625 0.0
Eu275 Eu 0.95624 0.88773 0.77891 0.0
N276 N 0.94272 0.8473 0.78933 0.0
C277 C 0.92455 0.79935 0.79865 0.0
C278 C 0.96205 0.83549 0.80453 0.0
C279 C 0.95398 0.8112 0.80902 0.0
H280 H 0.88214 0.9083 0.75264 0.0
H281 H 0.97011 0.80174 0.8207 0.0
H282 H 0.10349 0.84621 0.75512 0.0
H283 H 0.07491 0.98262 0.71834 0.0
H284 H 0.98344 0.8448 0.81344 0.0
H285 H 0.9181 0.78061 0.80231 0.0
H286 H 0.03943 0.94371 0.71643 0.0
H287 H 0.82269 0.8924 0.73722 0.0
H288 H 0.86283 0.78309 0.77794 0.0
H289 H 0.8219 0.80795 0.75573 0.0
H290 H 0.16151 0.84485 0.77626 0.0
H291 H 0.80605 0.84892 0.74098 0.0
H292 H 0.13158 0.98597 0.74073 0.0
N293 N 0.10099 0.88472 0.75477 0.0
C294 C 0.12054 0.90566 0.75814 0.0
C295 C 0.14995 0.86213 0.77159 0.0
C296 C 0.15468 0.90577 0.76943 0.0
C297 C 0.11655 0.86299 0.76001 0.0
C298 C 0.16867 0.88368 0.77673 0.0
N299 N 0.07558 0.92576 0.73759 0.0
C300 C 0.06436 0.94514 0.72604 0.0
C301 C 0.12872 0.9485 0.7507 0.0
C302 C 0.10786 0.92674 0.74892 0.0
C303 C 0.11631 0.96891 0.73979 0.0
C304 C 0.08433 0.96709 0.72713 0.0
H305 H 0.19477 0.88297 0.7855 0.0
H306 H 0.20045 0.92822 0.78121 0.0
H307 H 0.17765 0.96567 0.76481 0.0
O308 O 0.0331 0.89035 0.70392 0.0
O309 O 0.03102 0.92064 0.7584 0.0
O310 O 0.01389 0.90184 0.78824 0.0
O311 O 0.08485 0.87526 0.71563 0.0
O312 O 0.98834 0.90714 0.72696 0.0
O313 O 0.9558 0.9196 0.7564 0.0
O314 O 0.92837 0.88796 0.80935 0.0
O315 O 0.94787 0.87356 0.74615 0.0
O316 O 0.00432 0.85542 0.73936 0.0
O317 O 0.93158 0.92109 0.79086 0.0
O318 O 0.01291 0.87153 0.78848 0.0
O319 O 0.03655 0.85554 0.75826 0.0
C320 C 0.03054 0.9198 0.7786 0.0
C321 C 0.06076 0.85923 0.68451 0.0
C322 C 0.06751 0.84395 0.64931 0.0
C323 C 0.05227 0.82155 0.6558 0.0
C324 C 0.04584 0.83676 0.69068 0.0
C325 C 0.0415 0.81806 0.67634 0.0
C326 C 0.07151 0.86278 0.66389 0.0
C327 C 0.96447 0.92158 0.73659 0.0
C328 C 0.06432 0.87928 0.69933 0.0
C329 C 0.17446 0.92771 0.77233 0.0
C330 C 0.16155 0.94903 0.76294 0.0
C331 C 0.96744 0.85617 0.73752 0.0
C332 C 0.89979 0.92448 0.824 0.0
C333 C 0.87954 0.92977 0.85984 0.0
C334 C 0.86256 0.95183 0.85424 0.0
C335 C 0.88277 0.94663 0.8189 0.0
C336 C 0.89778 0.91596 0.8445 0.0
C337 C 0.86413 0.96011 0.83393 0.0
C338 C 0.03313 0.8553 0.77851 0.0
C339 C 0.92035 0.91089 0.80792 0.0
H340 H 0.04918 0.80659 0.64509 0.0
H341 H 0.03759 0.83374 0.70654 0.0
H342 H 0.02989 0.80076 0.68117 0.0
H343 H 0.08246 0.88033 0.65918 0.0
H344 H 0.84776 0.96265 0.86557 0.0
H345 H 0.8838 0.95356 0.80326 0.0
H346 H 0.91131 0.89905 0.84862 0.0
H347 H 0.85095 0.97711 0.82983 0.0
Eu348 Eu 0.46922 0.62061 0.23445 0.0
C349 C 0.63404 0.64214 0.25541 0.0
N350 N 0.61497 0.62101 0.2587 0.0
C351 C 0.66531 0.5988 0.24279 0.0
C352 C 0.66888 0.64248 0.24483 0.0
C353 C 0.63119 0.59938 0.25366 0.0
C354 C 0.68391 0.62048 0.238 0.0
C355 C 0.64013 0.68533 0.26203 0.0
C356 C 0.61993 0.66332 0.26385 0.0
C357 C 0.67394 0.68595 0.2507 0.0
C358 C 0.68824 0.66458 0.24207 0.0
Eu359 Eu 0.55569 0.62437 0.27563 0.0
N360 N 0.58687 0.66225 0.27441 0.0
C361 C 0.62605 0.70594 0.27199 0.0
C362 C 0.57395 0.68188 0.28506 0.0
C363 C 0.5931 0.70411 0.28381 0.0
H364 H 0.6182 0.58243 0.25817 0.0
H365 H 0.58238 0.71982 0.29188 0.0
H366 H 0.39556 0.63892 0.26225 0.0
H367 H 0.48478 0.53616 0.19079 0.0
H368 H 0.54838 0.6804 0.29412 0.0
H369 H 0.64076 0.72319 0.27097 0.0
H370 H 0.49692 0.5792 0.19894 0.0
H371 H 0.67751 0.58161 0.23838 0.0
H372 H 0.68962 0.70275 0.24887 0.0
H373 H 0.71482 0.66522 0.23378 0.0
H374 H 0.33808 0.62132 0.27843 0.0
H375 H 0.71056 0.61997 0.22979 0.0
H376 H 0.43508 0.51346 0.20952 0.0
N377 N 0.41322 0.60539 0.2495 0.0
C378 C 0.40471 0.58173 0.24598 0.0
C379 C 0.35673 0.60995 0.26946 0.0
C380 C 0.37255 0.57085 0.25497 0.0
C381 C 0.38915 0.61987 0.26033 0.0
C382 C 0.34868 0.58525 0.26704 0.0
N383 N 0.45711 0.58024 0.22349 0.0
C384 C 0.47628 0.56923 0.20785 0.0
C385 C 0.41907 0.54422 0.22829 0.0
C386 C 0.42774 0.56865 0.23284 0.0
C387 C 0.44084 0.53221 0.2135 0.0
C388 C 0.46903 0.54494 0.20293 0.0
H389 H 0.32366 0.57758 0.2742 0.0
H390 H 0.34064 0.5374 0.25832 0.0
H391 H 0.38137 0.51405 0.2349 0.0
O392 O 0.43966 0.62098 0.20432 0.0
O393 O 0.46308 0.60605 0.2673 0.0
O394 O 0.52099 0.58986 0.27415 0.0
O395 O 0.44218 0.65355 0.22359 0.0
O396 O 0.52633 0.60555 0.22468 0.0
O397 O 0.55199 0.59082 0.25495 0.0
O398 O 0.54636 0.62754 0.30882 0.0
O399 O 0.54261 0.65521 0.25341 0.0
O400 O 0.52564 0.63572 0.22377 0.0
O401 O 0.5988 0.61279 0.29774 0.0
O402 O 0.5006 0.64159 0.28601 0.0
O403 O 0.46865 0.65293 0.25614 0.0
C404 C 0.48405 0.58907 0.27557 0.0
C405 C 0.40815 0.6575 0.19128 0.0
C406 C 0.38723 0.66491 0.1559 0.0
C407 C 0.36986 0.68641 0.16246 0.0
C408 C 0.39035 0.67902 0.19748 0.0
C409 C 0.37117 0.69327 0.18316 0.0
C410 C 0.40593 0.65024 0.17045 0.0
C411 C 0.54771 0.59004 0.23473 0.0
C412 C 0.4305 0.64368 0.20647 0.0
C413 C 0.36492 0.54619 0.25132 0.0
C414 C 0.38818 0.53289 0.23803 0.0
C415 C 0.54359 0.65337 0.23325 0.0
C416 C 0.57626 0.59884 0.32994 0.0
C417 C 0.58593 0.58701 0.36592 0.0
C418 C 0.57095 0.56392 0.36124 0.0
C419 C 0.5614 0.57577 0.3256 0.0
C420 C 0.58836 0.60442 0.35004 0.0
C421 C 0.55873 0.55842 0.34122 0.0
C422 C 0.4756 0.65494 0.27609 0.0
C423 C 0.57827 0.61756 0.31386 0.0
H424 H 0.35518 0.69788 0.15153 0.0
H425 H 0.39148 0.68496 0.21342 0.0
H426 H 0.35763 0.70985 0.18808 0.0
H427 H 0.41986 0.63382 0.16541 0.0
H428 H 0.56908 0.54997 0.37296 0.0
H429 H 0.55185 0.57124 0.31018 0.0
H430 H 0.59906 0.62248 0.35334 0.0
H431 H 0.54723 0.54062 0.33781 0.0
H432 H 0.23303 0.92559 0.38475 0.0
H433 H 0.21366 0.96038 0.36377 0.0
H434 H 0.09653 0.94331 0.3761 0.0
H435 H 0.11602 0.90932 0.39789 0.0
H436 H 0.17549 0.96343 0.32978 0.0
H437 H 0.09607 0.01338 0.38945 0.0
H438 H 0.12503 0.98759 0.39562 0.0
H439 H 0.07748 0.98333 0.38613 0.0
C440 C 0.20319 0.92951 0.3831 0.0
C441 C 0.17597 0.91504 0.39306 0.0
C442 C 0.19212 0.94932 0.3711 0.0
C443 C 0.15362 0.95484 0.36864 0.0
C444 C 0.12641 0.94001 0.37829 0.0
H445 H 0.06027 0.04244 0.26941 0.0
H446 H 0.0871 0.00985 0.29038 0.0
C447 C 0.13751 0.9205 0.39063 0.0
C448 C 0.14197 0.97561 0.35549 0.0
H449 H 0.08572 0.02567 0.35452 0.0
C450 C 0.15615 0.97718 0.33527 0.0
C451 C 0.11725 0.99385 0.3627 0.0
C452 C 0.10344 0.99462 0.38473 0.0
C453 C 0.14581 0.99616 0.32199 0.0
C454 C 0.11936 0.01358 0.32882 0.0
C455 C 0.10569 0.01222 0.34915 0.0
C456 C 0.10535 0.03343 0.31532 0.0
C457 C 0.16403 0.99755 0.30096 0.0
C458 C 0.10587 0.05751 0.32245 0.0
C459 C 0.08959 0.07597 0.31074 0.0
C460 C 0.073 0.07077 0.29155 0.0
C461 C 0.07353 0.04691 0.28403 0.0
C462 C 0.08902 0.02831 0.29598 0.0
H463 H 0.19201 0.98848 0.30088 0.0
H464 H 0.14575 0.98806 0.28956 0.0
H465 H 0.16798 0.01663 0.29589 0.0
H466 H 0.11824 0.06196 0.33729 0.0
H467 H 0.08946 0.09429 0.31681 0.0
H468 H 0.27737 0.57953 0.88505 0.0
H469 H 0.30041 0.54558 0.86426 0.0
H470 H 0.4155 0.5666 0.87816 0.0
H471 H 0.39232 0.59976 0.89981 0.0
H472 H 0.33978 0.54419 0.8308 0.0
H473 H 0.42161 0.49657 0.89106 0.0
H474 H 0.39038 0.52129 0.89704 0.0
H475 H 0.43772 0.52721 0.88796 0.0
C476 C 0.30756 0.57666 0.88379 0.0
C477 C 0.33314 0.59201 0.89413 0.0
C478 C 0.32073 0.55733 0.8719 0.0
C479 C 0.35973 0.55317 0.86991 0.0
C480 C 0.3853 0.56886 0.87997 0.0
H481 H 0.45869 0.46732 0.77088 0.0
H482 H 0.43192 0.49976 0.79205 0.0
C483 C 0.3721 0.58789 0.89222 0.0
C484 C 0.37353 0.53293 0.85678 0.0
H485 H 0.43316 0.48449 0.85625 0.0
C486 C 0.35996 0.53101 0.83644 0.0
C487 C 0.39939 0.51544 0.86418 0.0
C488 C 0.41277 0.51506 0.88632 0.0
C489 C 0.37182 0.51233 0.82325 0.0
C490 C 0.39923 0.49564 0.8303 0.0
C491 C 0.41246 0.49741 0.85071 0.0
C492 C 0.41437 0.476 0.81697 0.0
C493 C 0.35405 0.51041 0.8021 0.0
C494 C 0.41447 0.45193 0.8241 0.0
C495 C 0.43071 0.43357 0.81228 0.0
C496 C 0.44666 0.43888 0.79298 0.0
C497 C 0.44596 0.46279 0.78559 0.0
C498 C 0.43049 0.48128 0.79764 0.0
H499 H 0.32566 0.51894 0.80174 0.0
H500 H 0.37211 0.52012 0.79076 0.0
H501 H 0.35107 0.49122 0.79713 0.0
H502 H 0.40229 0.44737 0.83895 0.0
H503 H 0.43094 0.41521 0.81824 0.0
H504 H 0.66334 0.61301 0.65073 0.0
H505 H 0.63741 0.58155 0.67341 0.0
H506 H 0.65998 0.52739 0.62711 0.0
H507 H 0.68664 0.55858 0.60448 0.0
H508 H 0.58515 0.52591 0.64429 0.0
H509 H 0.69752 0.52797 0.70443 0.0
H510 H 0.67746 0.55686 0.69787 0.0
H511 H 0.70429 0.54056 0.67895 0.0
C512 C 0.66327 0.59437 0.64547 0.0
C513 C 0.67714 0.58833 0.62578 0.0
C514 C 0.64838 0.57643 0.65844 0.0
C515 C 0.64714 0.55214 0.652 0.0
C516 C 0.66073 0.54605 0.63236 0.0
H517 H 0.6001 0.42123 0.72196 0.0
H518 H 0.62863 0.45334 0.70089 0.0
C519 C 0.67574 0.56393 0.61941 0.0
C520 C 0.63081 0.53311 0.66549 0.0
H521 H 0.64361 0.50354 0.71128 0.0
C522 C 0.59791 0.52098 0.65893 0.0
C523 C 0.64778 0.52662 0.68447 0.0
C524 C 0.68389 0.53849 0.69186 0.0
C525 C 0.5812 0.50271 0.671 0.0
C526 C 0.59772 0.49657 0.69018 0.0
C527 C 0.63091 0.50845 0.69662 0.0
C528 C 0.5811 0.47765 0.70366 0.0
C529 C 0.54622 0.48993 0.66304 0.0
C530 C 0.54529 0.4809 0.71248 0.0
C531 C 0.52926 0.46275 0.72477 0.0
C532 C 0.54878 0.44104 0.72844 0.0
C533 C 0.58478 0.43794 0.71975 0.0
C534 C 0.60095 0.45618 0.70759 0.0
H535 H 0.54244 0.49257 0.64616 0.0
H536 H 0.54734 0.47017 0.6663 0.0
H537 H 0.52102 0.49738 0.67095 0.0
H538 H 0.52975 0.49748 0.70985 0.0
H539 H 0.50159 0.46574 0.73143 0.0
H540 H 0.89994 0.92072 0.10961 0.0
H541 H 0.92497 0.95226 0.13259 0.0
H542 H 0.81855 0.95423 0.16491 0.0
H543 H 0.7932 0.92287 0.14196 0.0
H544 H 0.89879 0.99929 0.1397 0.0
H545 H 0.89547 0.94443 0.21155 0.0
H546 H 0.89088 0.93108 0.18621 0.0
H547 H 0.8511 0.94565 0.19807 0.0
C548 C 0.88177 0.92796 0.12153 0.0
C549 C 0.84462 0.91913 0.12402 0.0
C550 C 0.89618 0.94591 0.1347 0.0
C551 C 0.87384 0.95531 0.15067 0.0
C552 C 0.83659 0.94683 0.153 0.0
H553 H 0.91521 0.0872 0.22181 0.0
H554 H 0.88749 0.05517 0.20014 0.0
C555 C 0.82216 0.92889 0.13986 0.0
C556 C 0.88933 0.97425 0.1647 0.0
H557 H 0.90962 0.98638 0.21529 0.0
C558 C 0.90118 0.99647 0.15622 0.0
C559 C 0.89281 0.97043 0.18623 0.0
C560 C 0.88224 0.94654 0.19609 0.0
C561 C 0.91594 0.01508 0.16874 0.0
C562 C 0.91849 0.01145 0.1903 0.0
C563 C 0.90715 0.98916 0.19877 0.0
C564 C 0.9341 0.03038 0.20421 0.0
C565 C 0.92936 0.03834 0.15883 0.0
C566 C 0.96896 0.02675 0.21406 0.0
C567 C 0.98467 0.04492 0.2265 0.0
C568 C 0.96567 0.06696 0.22941 0.0
C569 C 0.93031 0.07032 0.21996 0.0
C570 C 0.91463 0.05215 0.20745 0.0
H571 H 0.93179 0.03663 0.14179 0.0
H572 H 0.90895 0.05299 0.16228 0.0
H573 H 0.9573 0.04389 0.1652 0.0
H574 H 0.98434 0.01003 0.2118 0.0
H575 H 0.01185 0.04178 0.23374 0.0
H576 H 0.81849 0.06473 0.60275 0.0
H577 H 0.84231 0.0328 0.62556 0.0
H578 H 0.87635 0.08684 0.67011 0.0
H579 H 0.85327 0.11888 0.64724 0.0
H580 H 0.93175 0.05107 0.66196 0.0
H581 H 0.79163 0.01035 0.68004 0.0
H582 H 0.8013 0.01374 0.65295 0.0
H583 H 0.79688 0.04022 0.66892 0.0
C584 C 0.83135 0.06981 0.61733 0.0
C585 C 0.83383 0.09431 0.62325 0.0
C586 C 0.84455 0.05155 0.63043 0.0
C587 C 0.86048 0.05746 0.64966 0.0
C588 C 0.86382 0.0819 0.65541 0.0
H589 H 0.91419 0.95628 0.74956 0.0
H590 H 0.88854 0.98999 0.72933 0.0
C591 C 0.85048 0.10016 0.64237 0.0
C592 C 0.87425 0.03816 0.66365 0.0
H593 H 0.84574 0.98843 0.69111 0.0
C594 C 0.91295 0.03744 0.66841 0.0
C595 C 0.84953 0.02064 0.6723 0.0
C596 C 0.80745 0.0213 0.66849 0.0
C597 C 0.92779 0.01918 0.68111 0.0
C598 C 0.90331 1.00109 0.68907 0.0
C599 C 0.86444 1.00223 0.68483 0.0
C600 C 0.91786 0.98041 0.70123 0.0
C601 C 0.96955 0.01941 0.68595 0.0
C602 C 0.94214 0.96363 0.69199 0.0
C603 C 0.9567 0.94437 0.7034 0.0
C604 C 0.94727 0.94144 0.72437 0.0
C605 C 0.9222 0.95801 0.73349 0.0
C606 C 0.9075 0.97728 0.72197 0.0
H607 H 0.98249 0.03752 0.68312 0.0
H608 H 0.97475 0.01421 0.70227 0.0
H609 H 0.98402 0.00607 0.67591 0.0
H610 H 0.94993 0.96549 0.67589 0.0
H611 H 0.97568 0.93193 0.69576 0.0
H612 H 0.68979 0.44334 0.10112 0.0
H613 H 0.66767 0.47681 0.12273 0.0
H614 H 0.64399 0.4266 0.17212 0.0
H615 H 0.66545 0.39299 0.15057 0.0
H616 H 0.59505 0.4817 0.14113 0.0
H617 H 0.70949 0.47978 0.19995 0.0
H618 H 0.71375 0.46517 0.17511 0.0
H619 H 0.68642 0.45117 0.19525 0.0
C620 C 0.67965 0.43938 0.11653 0.0
C621 C 0.67955 0.41548 0.12414 0.0
C622 C 0.66727 0.45854 0.12889 0.0
C623 C 0.65484 0.45421 0.14912 0.0
C624 C 0.65433 0.43039 0.15671 0.0
H625 H 0.56394 0.544 0.24727 0.0
H626 H 0.59052 0.51117 0.22635 0.0
C627 C 0.6666 0.41121 0.14436 0.0
C628 C 0.64098 0.47449 0.16201 0.0
H629 H 0.65759 0.5056 0.20674 0.0
C630 C 0.6088 0.48705 0.15542 0.0
C631 C 0.6589 0.48126 0.18069 0.0
C632 C 0.69425 0.46881 0.18816 0.0
C633 C 0.59353 0.50594 0.16721 0.0
C634 C 0.61154 0.51288 0.18588 0.0
C635 C 0.64381 0.5003 0.19245 0.0
C636 C 0.59719 0.53306 0.19882 0.0
C637 C 0.55762 0.51777 0.15981 0.0
C638 C 0.59311 0.55641 0.1905 0.0
C639 C 0.57762 0.57503 0.20233 0.0
C640 C 0.56656 0.57077 0.22283 0.0
C641 C 0.57225 0.54773 0.23149 0.0
C642 C 0.58735 0.52899 0.21955 0.0
H643 H 0.54165 0.50586 0.149 0.0
H644 H 0.53897 0.52237 0.17295 0.0
H645 H 0.56483 0.53475 0.15146 0.0
H646 H 0.6016 0.56019 0.17477 0.0
H647 H 0.57405 0.59276 0.19541 0.0
H648 H 0.29094 0.4248 0.37274 0.0
H649 H 0.31656 0.45619 0.34991 0.0
H650 H 0.42533 0.45006 0.37956 0.0
H651 H 0.40011 0.41849 0.40231 0.0
H652 H 0.40032 0.49803 0.37533 0.0
H653 H 0.38989 0.44773 0.3012 0.0
H654 H 0.34677 0.44883 0.31579 0.0
H655 H 0.38682 0.43288 0.32599 0.0
C656 C 0.32047 0.42987 0.37421 0.0
C657 C 0.34349 0.41907 0.38935 0.0
C658 C 0.33505 0.44782 0.36115 0.0
C659 C 0.37296 0.45526 0.36288 0.0
C660 C 0.396 0.44456 0.37796 0.0
H661 H 0.51142 0.54371 0.28208 0.0
H662 H 0.48338 0.51135 0.3031 0.0
C663 C 0.38148 0.4266 0.39101 0.0
C664 C 0.38837 0.47471 0.34943 0.0
H665 H 0.4068 0.4894 0.29917 0.0
C666 C 0.40174 0.49615 0.35869 0.0
C667 C 0.39051 0.47211 0.32773 0.0
C668 C 0.37807 0.44908 0.31704 0.0
C669 C 0.41684 0.51516 0.34679 0.0
C670 C 0.41823 0.51274 0.32509 0.0
C671 C 0.40526 0.49124 0.31582 0.0
C672 C 0.43425 0.53211 0.31184 0.0
C673 C 0.43187 0.53755 0.3575 0.0
C674 C 0.41564 0.55437 0.30966 0.0
C675 C 0.43163 0.57289 0.2977 0.0
C676 C 0.46637 0.56937 0.28769 0.0
C677 C 0.48468 0.54695 0.28971 0.0
C678 C 0.46865 0.52843 0.30161 0.0
H679 H 0.4348 0.53484 0.37442 0.0
H680 H 0.45985 0.54283 0.35109 0.0
H681 H 0.41216 0.55282 0.35484 0.0
H682 H 0.38891 0.55747 0.31734 0.0
H683 H 0.4172 0.5901 0.29664 0.0
H684 H 0.22223 0.09069 0.86992 0.0
H685 H 0.19656 0.05979 0.84658 0.0
H686 H 0.0965 0.05408 0.8843 0.0
H687 H 0.12091 0.08581 0.90701 0.0
H688 H 0.1779 0.01316 0.85367 0.0
H689 H 0.05084 0.06287 0.82789 0.0
H690 H 0.08886 0.07741 0.8419 0.0
H691 H 0.05311 0.06036 0.85546 0.0
C692 C 0.19446 0.08317 0.87305 0.0
C693 C 0.17357 0.09086 0.8903 0.0
C694 C 0.17998 0.06536 0.85979 0.0
C695 C 0.14433 0.05491 0.8635 0.0
C696 C 0.12368 0.06228 0.88085 0.0
H697 H 0.05602 0.91824 0.81835 0.0
H698 H 0.08534 0.95123 0.83814 0.0
C699 C 0.13797 0.08019 0.89401 0.0
C700 C 0.12908 0.03585 0.84955 0.0
H701 H 0.05162 0.02028 0.82083 0.0
C702 C 0.15042 0.01479 0.84635 0.0
C703 C 0.09354 0.03818 0.83968 0.0
C704 C 0.07045 0.06104 0.84121 0.0
C705 C 0.13665 0.99568 0.83407 0.0
C706 C 0.10016 0.99744 0.82523 0.0
C707 C 0.07935 0.0188 0.82789 0.0
C708 C 0.08289 0.97734 0.81321 0.0
C709 C 0.16147 0.97391 0.83049 0.0
C710 C 0.07064 0.98129 0.79289 0.0
C711 C 0.05328 0.96263 0.78173 0.0
C712 C 0.04811 0.93963 0.79062 0.0
C713 C 0.05987 0.93576 0.81107 0.0
C714 C 0.07702 0.9545 0.82229 0.0
H715 H 0.19182 0.97837 0.83301 0.0
H716 H 0.15352 0.95937 0.84152 0.0
H717 H 0.15794 0.96674 0.81457 0.0
H718 H 0.07448 0.99885 0.78566 0.0
H719 H 0.04355 0.9663 0.7662 0.0
H720 H 0.20212 0.08448 0.9632 0.0
H721 H 0.18408 0.07962 0.99932 0.0
H722 H 0.16187 0.15629 1.00353 0.0
H723 H 0.17805 0.16112 0.96704 0.0
H724 H 0.21104 0.09851 0.0349 0.0
H725 H 0.06254 0.12743 0.02281 0.0
H726 H 0.09414 0.12123 1.00166 0.0
H727 H 0.0971 0.14966 0.01521 0.0
C728 C 0.19312 0.10031 0.97174 0.0
C729 C 0.19095 0.12313 0.96209 0.0
C730 C 0.18311 0.09753 0.99245 0.0
C731 C 0.17083 0.11749 1.00402 0.0
C732 C 0.17037 0.14052 0.99476 0.0
H733 H 0.1413 0.11152 0.13793 0.0
H734 H 0.16361 0.12063 0.10313 0.0
C735 C 0.18015 0.1433 0.97397 0.0
C736 C 0.15787 0.11391 0.0256 0.0
H737 H 0.08126 0.11967 0.05724 0.0
C738 C 0.18269 0.10318 0.03981 0.0
C739 C 0.12066 0.11966 0.03189 0.0
C740 C 0.09191 0.12992 0.01707 0.0
C741 C 0.17135 0.098 0.06011 0.0
C742 C 0.13443 0.10428 0.06653 0.0
C743 C 0.10963 0.11504 0.05234 0.0
C744 C 0.12052 0.0992 0.08773 0.0
C745 C 0.19866 0.08519 0.07427 0.0
C746 C 0.08812 0.08478 0.09066 0.0
C747 C 0.07477 0.07994 0.11055 0.0
C748 C 0.09356 0.08944 0.12796 0.0
C749 C 0.12587 0.10407 0.12492 0.0
C750 C 0.13903 0.10903 0.10501 0.0
H751 H 0.22117 0.07576 0.06547 0.0
H752 H 0.21255 0.09872 0.0845 0.0
H753 H 0.18379 0.07168 0.0841 0.0
H754 H 0.0732 0.07715 0.07753 0.0
H755 H 0.04945 0.06898 0.11226 0.0
H756 H 0.3935 0.38867 0.45463 0.0
H757 H 0.41108 0.39299 0.49098 0.0
H758 H 0.29402 0.38475 0.50847 0.0
H759 H 0.2764 0.37995 0.47208 0.0
H760 H 0.39056 0.42783 0.51697 0.0
H761 H 0.344 0.33919 0.54859 0.0
H762 H 0.34762 0.34484 0.52122 0.0
H763 H 0.30695 0.35501 0.53538 0.0
C764 C 0.37155 0.38757 0.46625 0.0
C765 C 0.33356 0.38397 0.46051 0.0
C766 C 0.38163 0.39 0.48702 0.0
C767 C 0.35398 0.38894 0.50253 0.0
C768 C 0.31603 0.38504 0.49687 0.0
H769 H 0.38337 0.45185 0.6249 0.0
H770 H 0.36482 0.4428 0.58932 0.0
C771 C 0.30595 0.38238 0.47606 0.0
C772 C 0.36476 0.39344 0.52443 0.0
H773 H 0.36044 0.36976 0.57313 0.0
C774 C 0.3841 0.41505 0.52923 0.0
C775 C 0.35676 0.37668 0.54042 0.0
C776 C 0.33803 0.35252 0.53615 0.0
C777 C 0.39529 0.4205 0.54952 0.0
C778 C 0.38603 0.40418 0.56563 0.0
C779 C 0.36715 0.3824 0.56082 0.0
C780 C 0.39619 0.40928 0.5875 0.0
C781 C 0.41766 0.44347 0.55339 0.0
C782 C 0.41895 0.39306 0.59861 0.0
C783 C 0.42933 0.39809 0.61903 0.0
C784 C 0.41716 0.41948 0.62877 0.0
C785 C 0.39381 0.43547 0.61772 0.0
C786 C 0.38322 0.43033 0.59736 0.0
H787 H 0.43162 0.45013 0.5391 0.0
H788 H 0.39826 0.45784 0.55884 0.0
H789 H 0.43968 0.44065 0.56538 0.0
H790 H 0.4292 0.37666 0.59135 0.0
H791 H 0.44752 0.38548 0.62707 0.0
H792 H 0.69584 0.41179 0.04982 0.0
H793 H 0.67893 0.4101 0.01319 0.0
H794 H 0.65914 0.3331 0.01825 0.0
H795 H 0.67495 0.33472 0.05501 0.0
H796 H 0.71327 0.38348 0.98205 0.0
H797 H 0.56259 0.35688 0.9901 0.0
H798 H 0.59022 0.36856 0.0114 0.0
H799 H 0.59442 0.33734 1.00376 0.0
C800 C 0.68737 0.39454 0.04321 0.0
C801 C 0.68655 0.3734 0.0554 0.0
C802 C 0.67792 0.3936 0.02225 0.0
C803 C 0.66718 0.37156 0.01305 0.0
C804 C 0.66661 0.35039 0.02511 0.0
H805 H 0.62161 0.31412 0.89301 0.0
H806 H 0.62933 0.32295 0.92971 0.0
C807 C 0.67611 0.3513 0.04607 0.0
C808 C 0.658 0.3705 0.99068 0.0
H809 H 0.58931 0.35335 0.95641 0.0
C810 C 0.68603 0.37717 0.97641 0.0
C811 C 0.62239 0.36234 0.98339 0.0
C812 C 0.59053 0.35609 0.99794 0.0
C813 C 0.67999 0.37492 0.95505 0.0
C814 C 0.6447 0.36616 0.94776 0.0
C815 C 0.61634 0.36007 0.96203 0.0
C816 C 0.63766 0.36153 0.92549 0.0
C817 C 0.71198 0.38097 0.94049 0.0
C818 C 0.63881 0.3804 0.91091 0.0
C819 C 0.6346 0.37537 0.88981 0.0
C820 C 0.62918 0.35138 0.88296 0.0
C821 C 0.6265 0.33273 0.89772 0.0
C822 C 0.63065 0.33776 0.91873 0.0
H823 H 0.73951 0.38262 0.94869 0.0
H824 H 0.71455 0.36689 0.92832 0.0
H825 H 0.70613 0.39855 0.93283 0.0
H826 H 0.64349 0.39895 0.91583 0.0
H827 H 0.63681 0.39013 0.87884 0.0
H828 H 0.82294 0.17067 0.55023 0.0
H829 H 0.83121 0.17035 0.51275 0.0
H830 H 0.81921 0.09252 0.51225 0.0
H831 H 0.80998 0.09263 0.54968 0.0
H832 H 0.88248 0.1122 0.48841 0.0
H833 H 0.74489 0.15555 0.47018 0.0
H834 H 0.77357 0.17098 0.48907 0.0
H835 H 0.75451 0.14148 0.4948 0.0
C836 C 0.82165 0.15348 0.54217 0.0
C837 C 0.81554 0.13168 0.55302 0.0
C838 C 0.82652 0.15335 0.52075 0.0
C839 C 0.82541 0.13145 0.50973 0.0
C840 C 0.82012 0.10962 0.52049 0.0
H841 H 0.80219 0.11216 0.37703 0.0
H842 H 0.79526 0.1103 0.41458 0.0
C843 C 0.81505 0.10973 0.54191 0.0
C844 C 0.82968 0.13133 0.48697 0.0
H845 H 0.78728 0.14993 0.44234 0.0
C846 C 0.86168 0.12039 0.47831 0.0
C847 C 0.80225 0.1418 0.47386 0.0
C848 C 0.76666 0.15297 0.48235 0.0
C849 C 0.86732 0.12006 0.45684 0.0
C850 C 0.84036 0.1311 0.44376 0.0
C851 C 0.80802 0.14163 0.45242 0.0
C852 C 0.84514 0.13193 0.42102 0.0
C853 C 0.90184 0.10766 0.44829 0.0
C854 C 0.87528 0.14491 0.41219 0.0
C855 C 0.87916 0.1462 0.39073 0.0
C856 C 0.85289 0.13456 0.37764 0.0
C857 C 0.82268 0.12159 0.3866 0.0
C858 C 0.81878 0.12038 0.40806 0.0
H859 H 0.91483 0.09525 0.45977 0.0
H860 H 0.89464 0.09714 0.43419 0.0
H861 H 0.92325 0.12158 0.44404 0.0
H862 H 0.89551 0.15438 0.4219 0.0
H863 H 0.90234 0.15673 0.3844 0.0
H864 H 0.88834 0.89391 0.05604 0.0
H865 H 0.89891 0.89856 0.01891 0.0
H866 H 0.78379 0.87642 1.00696 0.0
H867 H 0.77257 0.8725 0.04407 0.0
H868 H 0.89159 0.86581 0.98551 0.0
H869 H 0.79192 0.94293 0.97883 0.0
H870 H 0.80867 0.93191 1.0034 0.0
H871 H 0.77194 0.91583 0.9898 0.0
C872 C 0.86519 0.89014 0.04553 0.0
C873 C 0.82947 0.88308 0.05309 0.0
C874 C 0.87139 0.8926 0.0243 0.0
C875 C 0.842 0.88817 0.01019 0.0
C876 C 0.80672 0.88029 0.0176 0.0
H877 H 0.86341 0.8843 0.875 0.0
H878 H 0.85574 0.87244 0.9113 0.0
C879 C 0.80046 0.87783 0.03883 0.0
C880 C 0.84794 0.89271 0.98781 0.0
H881 H 0.81893 0.92857 0.94791 0.0
C882 C 0.87567 0.87947 0.97724 0.0
C883 C 0.82743 0.91075 0.97713 0.0
C884 C 0.79855 0.92636 0.98785 0.0
C885 C 0.88337 0.88379 0.95624 0.0
C886 C 0.86251 0.90163 0.94552 0.0
C887 C 0.83476 0.9148 0.95611 0.0
C888 C 0.86994 0.90788 0.92356 0.0
C889 C 0.91446 0.86971 0.94586 0.0
C890 C 0.88043 0.93169 0.91837 0.0
C891 C 0.88462 0.9385 0.89774 0.0
C892 C 0.87827 0.92167 0.88176 0.0
C893 C 0.86882 0.89761 0.88696 0.0
C894 C 0.86448 0.89081 0.90769 0.0
H895 H 0.93338 0.86085 0.95727 0.0
H896 H 0.90168 0.85533 0.93604 0.0
H897 H 0.93174 0.88172 0.9358 0.0
H898 H 0.88491 0.94515 0.93034 0.0
H899 H 0.89249 0.95707 0.89428 0.0
H900 H 0.68424 0.66151 0.55027 0.0
H901 H 0.66782 0.65834 0.51358 0.0
H902 H 0.67994 0.58065 0.51666 0.0
H903 H 0.69784 0.58373 0.55294 0.0
H904 H 0.71204 0.59945 0.48202 0.0
H905 H 0.56624 0.63465 0.49164 0.0
H906 H 0.60301 0.65474 0.50051 0.0
H907 H 0.59549 0.62618 0.51329 0.0
C908 C 0.68383 0.64379 0.54306 0.0
C909 C 0.69193 0.62284 0.55464 0.0
C910 C 0.674 0.64198 0.52215 0.0
C911 C 0.67187 0.6192 0.51247 0.0
C912 C 0.68105 0.59839 0.52383 0.0
H913 H 0.55321 0.57367 0.40264 0.0
H914 H 0.57555 0.58243 0.43758 0.0
C915 C 0.69099 0.60018 0.54464 0.0
C916 C 0.65993 0.61674 0.49055 0.0
H917 H 0.58566 0.62561 0.45764 0.0
C918 C 0.68447 0.60527 0.47665 0.0
C919 C 0.62375 0.62405 0.48364 0.0
C920 C 0.5954 0.6354 0.49805 0.0
C921 C 0.67375 0.60071 0.45612 0.0
C922 C 0.63776 0.6083 0.44913 0.0
C923 C 0.61333 0.61995 0.46298 0.0
C924 C 0.62427 0.60337 0.42779 0.0
C925 C 0.70058 0.58703 0.44232 0.0
C926 C 0.64396 0.61245 0.41062 0.0
C927 C 0.63156 0.60718 0.39058 0.0
C928 C 0.59892 0.59292 0.38727 0.0
C929 C 0.57884 0.5843 0.40455 0.0
C930 C 0.59137 0.58949 0.42457 0.0
H931 H 0.72232 0.57716 0.45137 0.0
H932 H 0.68509 0.57378 0.43249 0.0
H933 H 0.71544 0.60006 0.43206 0.0
H934 H 0.669 0.6236 0.41271 0.0
H935 H 0.64792 0.614 0.37769 0.0
H936 H 0.26667 0.64309 0.97097 0.0
H937 H 0.28169 0.64603 1.00777 0.0
H938 H 0.3994 0.63332 0.99441 0.0
H939 H 0.38432 0.62978 0.95759 0.0
H940 H 0.3771 0.60795 0.02776 0.0
H941 H 0.33051 0.70318 0.03577 0.0
H942 H 0.29368 0.6837 0.02616 0.0
H943 H 0.33563 0.6887 0.01098 0.0
C944 C 0.29578 0.6411 0.97588 0.0
C945 C 0.32437 0.63643 0.96139 0.0
C946 C 0.30436 0.64283 0.99691 0.0
C947 C 0.34181 0.6404 1.00384 0.0
C948 C 0.37033 0.63535 0.98943 0.0
H949 H 0.41374 0.69193 0.12409 0.0
H950 H 0.40638 0.68411 0.08713 0.0
C951 C 0.36169 0.63334 0.96841 0.0
C952 C 0.35122 0.64316 0.02611 0.0
H953 H 0.34305 0.68191 0.06691 0.0
C954 C 0.36987 0.62417 0.03632 0.0
C955 C 0.34233 0.66448 0.03721 0.0
C956 C 0.3248 0.68627 0.02693 0.0
C957 C 0.37938 0.6258 0.05737 0.0
C958 C 0.36906 0.64673 0.06866 0.0
C959 C 0.35076 0.66577 0.05835 0.0
C960 C 0.37733 0.64972 0.09107 0.0
C961 C 0.40112 0.6053 0.06713 0.0
C962 C 0.36419 0.63278 0.10568 0.0
C963 C 0.3691 0.63705 0.12685 0.0
C964 C 0.38642 0.65857 0.13371 0.0
C965 C 0.40024 0.67522 0.11913 0.0
C966 C 0.39595 0.67077 0.09804 0.0
H967 H 0.41678 0.59467 0.05538 0.0
H968 H 0.42159 0.61215 0.0788 0.0
H969 H 0.38099 0.5928 0.07491 0.0
H970 H 0.3489 0.61671 0.10078 0.0
H971 H 0.35783 0.62412 0.13786 0.0
H972 H 0.22808 0.855 0.47086 0.0
H973 H 0.2075 0.8506 0.50671 0.0
H974 H 0.0973 0.8776 0.49037 0.0
H975 H 0.11731 0.88165 0.45439 0.0
H976 H 0.1305 0.89918 0.52665 0.0
H977 H 0.13236 0.79841 0.52863 0.0
H978 H 0.17508 0.81263 0.51953 0.0
H979 H 0.13227 0.8154 0.50479 0.0
C980 C 0.19931 0.85973 0.47481 0.0
C981 C 0.17431 0.86858 0.45969 0.0
C982 C 0.18765 0.85726 0.49533 0.0
C983 C 0.15077 0.86353 0.50113 0.0
C984 C 0.12588 0.87265 0.48618 0.0
H985 H 0.03165 0.82799 0.61422 0.0
H986 H 0.0518 0.83333 0.57839 0.0
C987 C 0.13746 0.87506 0.46565 0.0
C988 C 0.13819 0.86075 0.52281 0.0
H989 H 0.12148 0.81855 0.56034 0.0
C990 C 0.12848 0.88157 0.53404 0.0
C991 C 0.13524 0.83772 0.53231 0.0
C992 C 0.14396 0.8147 0.5207 0.0
C993 C 0.11636 0.87999 0.55464 0.0
C994 C 0.11419 0.857 0.56427 0.0
C995 C 0.12342 0.83616 0.55295 0.0
C996 C 0.10197 0.85413 0.58602 0.0
C997 C 0.10542 0.90288 0.56586 0.0
C998 C 0.12371 0.86387 0.60218 0.0
C999 C 0.11246 0.86068 0.6227 0.0
C1000 C 0.07926 0.84762 0.62746 0.0
C1001 C 0.0576 0.83787 0.61116 0.0
C1002 C 0.06895 0.84102 0.59066 0.0
H1003 H 0.10044 0.91816 0.55503 0.0
H1004 H 0.07949 0.8999 0.5752 0.0
H1005 H 0.12862 0.90824 0.57651 0.0
H1006 H 0.14969 0.87366 0.59894 0.0
H1007 H 0.13018 0.86806 0.63485 0.0
H1008 H 0.20186 0.34574 0.34831 0.0
H1009 H 0.16938 0.31081 0.33288 0.0
H1010 H 0.2028 0.26642 0.38451 0.0
H1011 H 0.23537 0.3014 0.40008 0.0
H1012 H 0.20344 0.26504 0.32234 0.0
H1013 H 0.08637 0.25516 0.37913 0.0
H1014 H 0.11385 0.28275 0.37675 0.0
H1015 H 0.13362 0.2568 0.38941 0.0
C1016 C 0.20211 0.32856 0.35643 0.0
C1017 C 0.22103 0.32631 0.3754 0.0
C1018 C 0.18361 0.30863 0.34759 0.0
C1019 C 0.18338 0.2861 0.35764 0.0
C1020 C 0.20219 0.28375 0.37665 0.0
H1021 H 0.07695 0.14911 0.31963 0.0
H1022 H 0.11252 0.18037 0.33856 0.0
C1023 C 0.22091 0.30372 0.38548 0.0
C1024 C 0.16433 0.26503 0.34775 0.0
H1025 H 0.08849 0.22664 0.35201 0.0
C1026 C 0.17835 0.25661 0.32883 0.0
C1027 C 0.13181 0.25394 0.35637 0.0
C1028 C 0.11521 0.26263 0.37647 0.0
C1029 C 0.16057 0.23748 0.3182 0.0
C1030 C 0.12738 0.22686 0.32648 0.0
C1031 C 0.11384 0.23489 0.34565 0.0
C1032 C 0.10574 0.20793 0.3151 0.0
C1033 C 0.17777 0.2285 0.29836 0.0
C1034 C 0.08954 0.2132 0.29583 0.0
C1035 C 0.0691 0.19546 0.28507 0.0
C1036 C 0.06451 0.17209 0.29334 0.0
C1037 C 0.08009 0.16696 0.31284 0.0
C1038 C 0.10048 0.18476 0.32364 0.0
H1039 H 0.20769 0.23444 0.29669 0.0
H1040 H 0.17655 0.20839 0.29766 0.0
H1041 H 0.16157 0.23578 0.28508 0.0
H1042 H 0.09241 0.23113 0.28917 0.0
H1043 H 0.05653 0.20013 0.27038 0.0
H1044 H 0.23163 0.19942 0.84449 0.0
H1045 H 0.27354 0.23013 0.82939 0.0
H1046 H 0.34027 0.23105 0.88519 0.0
H1047 H 0.2986 0.2001 0.90032 0.0
H1048 H 0.29033 0.27693 0.84392 0.0
H1049 H 0.41895 0.21971 0.83935 0.0
H1050 H 0.37236 0.2071 0.84361 0.0
H1051 H 0.39742 0.22158 0.86441 0.0
C1052 C 0.25526 0.20618 0.85352 0.0
C1053 C 0.26193 0.19736 0.87351 0.0
C1054 C 0.27913 0.22371 0.8449 0.0
C1055 C 0.31025 0.23265 0.85607 0.0
C1056 C 0.31677 0.22408 0.87618 0.0
H1057 H 0.43695 0.36254 0.81936 0.0
H1058 H 0.39872 0.33288 0.83841 0.0
C1059 C 0.29283 0.20651 0.88484 0.0
C1060 C 0.33546 0.25111 0.8466 0.0
H1061 H 0.42554 0.26073 0.82938 0.0
C1062 C 0.31993 0.27345 0.84078 0.0
C1063 C 0.37394 0.24638 0.84237 0.0
C1064 C 0.39173 0.22234 0.84758 0.0
C1065 C 0.3418 0.2912 0.83076 0.0
C1066 C 0.38043 0.2866 0.82671 0.0
C1067 C 0.39599 0.26427 0.8326 0.0
C1068 C 0.40482 0.30436 0.81571 0.0
C1069 C 0.32303 0.31444 0.82415 0.0
C1070 C 0.42203 0.2979 0.797 0.0
C1071 C 0.4443 0.31469 0.78628 0.0
C1072 C 0.44953 0.33826 0.79399 0.0
C1073 C 0.43318 0.34451 0.813 0.0
C1074 C 0.41106 0.32768 0.82379 0.0
H1075 H 0.29184 0.3123 0.82295 0.0
H1076 H 0.32906 0.32875 0.83576 0.0
H1077 H 0.33405 0.32071 0.80904 0.0
H1078 H 0.41784 0.27995 0.79055 0.0
H1079 H 0.45739 0.30923 0.77193 0.0
H1080 H 0.69155 0.16553 0.66702 0.0
H1081 H 0.65904 0.19953 0.68344 0.0
H1082 H 0.70539 0.24837 0.63792 0.0
H1083 H 0.73817 0.2144 0.62144 0.0
H1084 H 0.71164 0.26487 0.67979 0.0
H1085 H 0.56573 0.23525 0.66001 0.0
H1086 H 0.59382 0.2123 0.67223 0.0
H1087 H 0.60699 0.22343 0.64716 0.0
C1088 C 0.69466 0.18352 0.66048 0.0
C1089 C 0.71711 0.18731 0.64291 0.0
C1090 C 0.67599 0.20287 0.66981 0.0
C1091 C 0.67941 0.22638 0.66171 0.0
C1092 C 0.70224 0.23032 0.6443 0.0
H1093 H 0.53568 0.34644 0.69863 0.0
H1094 H 0.57091 0.31632 0.67899 0.0
C1095 C 0.72085 0.2109 0.63489 0.0
C1096 C 0.65953 0.24682 0.67169 0.0
H1097 H 0.57168 0.26692 0.68477 0.0
C1098 C 0.68104 0.26546 0.68078 0.0
C1099 C 0.61962 0.24765 0.67271 0.0
C1100 C 0.59509 0.22872 0.66235 0.0
C1101 C 0.66365 0.28459 0.6914 0.0
C1102 C 0.62377 0.28484 0.69318 0.0
C1103 C 0.60226 0.26657 0.68356 0.0
C1104 C 0.60367 0.30378 0.70507 0.0
C1105 C 0.6881 0.30441 0.70051 0.0
C1106 C 0.61022 0.30661 0.72631 0.0
C1107 C 0.59016 0.32386 0.73763 0.0
C1108 C 0.56292 0.33849 0.72794 0.0
C1109 C 0.55644 0.33555 0.70663 0.0
C1110 C 0.57655 0.31832 0.69535 0.0
H1111 H 0.71634 0.30521 0.69302 0.0
H1112 H 0.67441 0.32239 0.69893 0.0
H1113 H 0.69247 0.30078 0.71719 0.0
H1114 H 0.63043 0.29521 0.73422 0.0
H1115 H 0.59583 0.32553 0.75401 0.0
H1116 H 0.82173 0.34458 0.1672 0.0
H1117 H 0.85333 0.31116 0.18497 0.0
H1118 H 0.80271 0.26017 0.14248 0.0
H1119 H 0.77069 0.2936 0.12469 0.0
H1120 H 0.79842 0.24612 0.18488 0.0
H1121 H 0.9441 0.273 0.16228 0.0
H1122 H 0.91739 0.29684 0.17412 0.0
H1123 H 0.90259 0.2848 0.1496 0.0
C1124 C 0.81745 0.32624 0.16161 0.0
C1125 C 0.79403 0.3217 0.1445 0.0
C1126 C 0.8356 0.3072 0.17172 0.0
C1127 C 0.83078 0.28324 0.16486 0.0
C1128 C 0.80693 0.27857 0.14794 0.0
H1129 H 0.9719 0.16237 0.20088 0.0
H1130 H 0.93605 0.19294 0.18218 0.0
C1131 C 0.78877 0.29767 0.13777 0.0
C1132 C 0.85057 0.26315 0.17549 0.0
H1133 H 0.93849 0.24244 0.18795 0.0
C1134 C 0.82904 0.2452 0.18548 0.0
C1135 C 0.8905 0.2619 0.17606 0.0
C1136 C 0.91508 0.28002 0.16479 0.0
C1137 C 0.84644 0.22628 0.19643 0.0
C1138 C 0.88638 0.22551 0.19758 0.0
C1139 C 0.90786 0.2432 0.18722 0.0
C1140 C 0.90667 0.2063 0.2091 0.0
C1141 C 0.82197 0.20711 0.20642 0.0
C1142 C 0.90218 0.20368 0.23052 0.0
C1143 C 0.9227 0.18614 0.24135 0.0
C1144 C 0.94828 0.17099 0.23095 0.0
C1145 C 0.95252 0.17367 0.20946 0.0
C1146 C 0.93203 0.19117 0.19869 0.0
H1147 H 0.79295 0.20682 0.19981 0.0
H1148 H 0.83457 0.18884 0.2046 0.0
H1149 H 0.81965 0.211 0.22318 0.0
H1150 H 0.88329 0.21548 0.23893 0.0
H1151 H 0.91877 0.18466 0.25788 0.0
H1152 H 0.81196 0.66328 0.66992 0.0
H1153 H 0.84298 0.69832 0.68605 0.0
H1154 H 0.81524 0.74221 0.63314 0.0
H1155 H 0.78394 0.70715 0.61689 0.0
H1156 H 0.89417 0.74535 0.64837 0.0
H1157 H 0.78645 0.75902 0.70958 0.0
H1158 H 0.80315 0.72845 0.70688 0.0
H1159 H 0.77676 0.74208 0.68626 0.0
C1160 C 0.81245 0.68042 0.66173 0.0
C1161 C 0.79545 0.68252 0.64221 0.0
C1162 C 0.83003 0.70041 0.67099 0.0
C1163 C 0.83101 0.72288 0.66088 0.0
C1164 C 0.81459 0.72501 0.64121 0.0
H1165 H 0.89927 0.85965 0.71802 0.0
H1166 H 0.86575 0.82802 0.6986 0.0
C1167 C 0.79671 0.705 0.63197 0.0
C1168 C 0.84953 0.74401 0.67091 0.0
H1169 H 0.84413 0.78096 0.71312 0.0
C1170 C 0.88314 0.75328 0.66244 0.0
C1171 C 0.83486 0.7544 0.68915 0.0
C1172 C 0.79815 0.74567 0.69847 0.0
C1173 C 0.9031 0.77227 0.67212 0.0
C1174 C 0.88911 0.78205 0.69077 0.0
C1175 C 0.85491 0.77327 0.69889 0.0
C1176 C 0.90973 0.80126 0.70226 0.0
C1177 C 0.93897 0.78174 0.66233 0.0
C1178 C 0.94533 0.79657 0.71095 0.0
C1179 C 0.96421 0.81448 0.72233 0.0
C1180 C 0.94778 0.83737 0.72522 0.0
C1181 C 0.91227 0.84205 0.71636 0.0
C1182 C 0.89325 0.82408 0.70514 0.0
H1183 H 0.94095 0.77653 0.6458 0.0
H1184 H 0.94076 0.80181 0.66355 0.0
H1185 H 0.96371 0.77403 0.67053 0.0
H1186 H 0.95824 0.77893 0.70919 0.0
H1187 H 0.99138 0.81028 0.72915 0.0
H1188 H 0.74209 0.79875 0.11638 0.0
H1189 H 0.70613 0.76459 0.13098 0.0
H1190 H 0.6711 0.80981 0.18171 0.0
H1191 H 0.70648 0.84397 0.16711 0.0
H1192 H 0.7134 0.74227 0.16969 0.0
H1193 H 0.57093 0.78213 0.16057 0.0
H1194 H 0.61203 0.79407 0.14745 0.0
H1195 H 0.60333 0.80174 0.17401 0.0
C1196 C 0.72656 0.80141 0.13059 0.0
C1197 C 0.7268 0.82406 0.14057 0.0
C1198 C 0.70608 0.78189 0.13891 0.0
C1199 C 0.68538 0.78478 0.15724 0.0
C1200 C 0.68612 0.80731 0.16732 0.0
H1201 H 0.55463 0.70087 0.24302 0.0
H1202 H 0.59021 0.73137 0.22353 0.0
C1203 C 0.70651 0.82676 0.15903 0.0
C1204 C 0.66366 0.76422 0.16622 0.0
H1205 H 0.57558 0.74787 0.18299 0.0
C1206 C 0.68319 0.74333 0.17237 0.0
C1207 C 0.62422 0.76562 0.16966 0.0
C1208 C 0.6013 0.78699 0.16239 0.0
C1209 C 0.66459 0.72425 0.18268 0.0
C1210 C 0.62537 0.72602 0.18667 0.0
C1211 C 0.6057 0.74663 0.18002 0.0
C1212 C 0.60441 0.70719 0.19843 0.0
C1213 C 0.68727 0.70277 0.1899 0.0
C1214 C 0.60029 0.68351 0.1907 0.0
C1215 C 0.58012 0.66601 0.20192 0.0
C1216 C 0.56388 0.67192 0.22104 0.0
C1217 C 0.56752 0.69571 0.22854 0.0
C1218 C 0.58761 0.71318 0.21735 0.0
H1219 H 0.71817 0.70655 0.18967 0.0
H1220 H 0.67898 0.69748 0.20578 0.0
H1221 H 0.68154 0.6871 0.17958 0.0
H1222 H 0.61246 0.67862 0.17596 0.0
H1223 H 0.57765 0.64779 0.19577 0.0
H1224 H 0.2503 0.81809 0.33762 0.0
H1225 H 0.29245 0.78775 0.32267 0.0
H1226 H 0.33915 0.77343 0.38297 0.0
H1227 H 0.29667 0.80358 0.39808 0.0
H1228 H 0.37168 0.78722 0.32362 0.0
H1229 H 0.31053 0.7055 0.36165 0.0
H1230 H 0.28613 0.73415 0.36079 0.0
H1231 H 0.32433 0.72974 0.37867 0.0
C1232 C 0.26945 0.80837 0.34769 0.0
C1233 C 0.2701 0.81308 0.36898 0.0
C1234 C 0.29351 0.7911 0.33914 0.0
C1235 C 0.31858 0.77814 0.35174 0.0
C1236 C 0.31951 0.78291 0.37303 0.0
H1237 H 0.47969 0.66499 0.31757 0.0
H1238 H 0.44386 0.69539 0.33679 0.0
C1239 C 0.29537 0.80022 0.38162 0.0
C1240 C 0.34422 0.76009 0.34233 0.0
H1241 H 0.36412 0.69958 0.34058 0.0
C1242 C 0.37011 0.76806 0.32736 0.0
C1243 C 0.34222 0.73514 0.34734 0.0
C1244 C 0.31415 0.72549 0.36287 0.0
C1245 C 0.39388 0.75173 0.31713 0.0
C1246 C 0.39122 0.72672 0.32175 0.0
C1247 C 0.36602 0.71878 0.33708 0.0
C1248 C 0.41313 0.70842 0.31015 0.0
C1249 C 0.42172 0.76141 0.30148 0.0
C1250 C 0.40732 0.70549 0.28888 0.0
C1251 C 0.42768 0.68819 0.27784 0.0
C1252 C 0.45416 0.67333 0.2879 0.0
C1253 C 0.45964 0.67616 0.3093 0.0
C1254 C 0.43918 0.6935 0.32033 0.0
H1255 H 0.42765 0.78102 0.30389 0.0
H1256 H 0.44882 0.75136 0.30219 0.0
H1257 H 0.40969 0.75914 0.28576 0.0
H1258 H 0.38679 0.7165 0.2808 0.0
H1259 H 0.42248 0.68647 0.26142 0.0
H1260 H 0.21722 0.70784 0.89913 0.0
H1261 H 0.17691 0.73962 0.8844 0.0
H1262 H 0.19729 0.71161 0.82332 0.0
H1263 H 0.23784 0.68002 0.83785 0.0
H1264 H 0.20232 0.7745 0.84844 0.0
H1265 H 0.07647 0.71599 0.83319 0.0
H1266 H 0.11076 0.70901 0.85302 0.0
H1267 H 0.12209 0.70407 0.82638 0.0
C1268 C 0.21302 0.70843 0.88258 0.0
C1269 C 0.23054 0.69144 0.86959 0.0
C1270 C 0.19009 0.72659 0.87421 0.0
C1271 C 0.18403 0.72778 0.85282 0.0
C1272 C 0.20146 0.71083 0.83988 0.0
H1273 H 0.0562 0.81089 0.76518 0.0
H1274 H 0.09264 0.78076 0.78436 0.0
C1275 C 0.22459 0.69286 0.84819 0.0
C1276 C 0.15995 0.74688 0.84379 0.0
H1277 H 0.07553 0.75567 0.8194 0.0
C1278 C 0.17442 0.77054 0.84227 0.0
C1279 C 0.12382 0.74146 0.83563 0.0
C1280 C 0.10705 0.71631 0.83717 0.0
C1281 C 0.15405 0.78888 0.83218 0.0
C1282 C 0.11786 0.78345 0.82391 0.0
C1283 C 0.10321 0.75981 0.82578 0.0
C1284 C 0.09531 0.80176 0.81257 0.0
C1285 C 0.17212 0.81359 0.82975 0.0
C1286 C 0.08418 0.82341 0.82215 0.0
C1287 C 0.0637 0.84076 0.81115 0.0
C1288 C 0.05364 0.83664 0.79043 0.0
C1289 C 0.06392 0.81467 0.78106 0.0
C1290 C 0.08459 0.79742 0.79202 0.0
H1291 H 0.20324 0.81296 0.83209 0.0
H1292 H 0.16631 0.82123 0.81421 0.0
H1293 H 0.16023 0.82609 0.84145 0.0
H1294 H 0.09137 0.8269 0.83814 0.0
H1295 H 0.05609 0.85751 0.81879 0.0
loop_
_geom_bond_atom_site_label_1
_geom_bond_atom_site_label_2
_geom_bond_distance
_geom_bond_site_symmetry_2
_ccdc_geom_bond_type
H0 C5 0.930 . S
H1 C8 0.930 . S
H2 C10 0.930 . S
H3 C4 1.016 . S
C4 H3 1.016 . S
C4 N11 1.286 . S
C5 H0 0.930 . S
C5 C6 1.397 . S
C5 C7 1.361 . S
C6 C5 1.397 . S
C6 C10 1.390 . S
C7 C5 1.361 . S
C7 C8 1.393 . S
C7 N11 1.413 . S
C8 H1 0.930 . S
C8 C7 1.393 . S
C8 C9 1.399 . S
C9 C8 1.399 . S
C9 C10 1.381 . S
C10 H2 0.930 . S
C10 C6 1.390 . S
C10 C9 1.381 . S
N11 C4 1.286 . S
N11 C7 1.413 . S
H12 C17 0.930 . S
H13 C20 0.930 . S
H14 C22 0.930 . S
H15 C16 1.016 . S
C16 H15 1.016 . S
C16 N23 1.286 . S
C17 H12 0.930 . S
C17 C18 1.397 . S
C17 C19 1.361 . S
C18 C17 1.397 . S
C18 C22 1.390 . S
C19 C17 1.361 . S
C19 C20 1.393 . S
C19 N23 1.413 . S
C20 H13 0.930 . S
C20 C19 1.393 . S
C20 C21 1.399 . S
C21 C20 1.399 . S
C21 C22 1.381 . S
C22 H14 0.930 . S
C22 C18 1.390 . S
C22 C21 1.381 . S
N23 C16 1.286 . S
N23 C19 1.413 . S
H24 C29 0.930 . S
H25 C32 0.930 . S
H26 C34 0.930 . S
H27 C28 1.016 . S
C28 H27 1.016 . S
C28 N35 1.286 . S
C29 H24 0.930 . S
C29 C30 1.397 . S
C29 C31 1.361 . S
C30 C29 1.397 . S
C30 C34 1.390 . S
C31 C29 1.361 . S
C31 C32 1.393 . S
C31 N35 1.413 . S
C32 H25 0.930 . S
C32 C31 1.393 . S
C32 C33 1.399 . S
C33 C32 1.399 . S
C33 C34 1.381 . S
C34 H26 0.930 . S
C34 C30 1.390 . S
C34 C33 1.381 . S
N35 C28 1.286 . S
N35 C31 1.413 . S
H36 C41 0.930 . S
H37 C44 0.930 . S
H38 C46 0.930 . S
H39 C40 1.016 . S
C40 H39 1.016 . S
C40 N47 1.286 . S
C41 H36 0.930 . S
C41 C42 1.397 . S
C41 C43 1.361 . S
C42 C41 1.397 . S
C42 C46 1.390 . S
C43 C41 1.361 . S
C43 C44 1.393 . S
C43 N47 1.413 . S
C44 H37 0.930 . S
C44 C43 1.393 . S
C44 C45 1.399 . S
C45 C44 1.399 . S
C45 C46 1.381 . S
C46 H38 0.930 . S
C46 C42 1.390 . S
C46 C45 1.381 . S
N47 C40 1.286 . S
N47 C43 1.413 . S
H48 C53 0.930 . S
H49 C56 0.930 . S
H50 C58 0.930 . S
H51 C52 1.016 . S
C52 H51 1.016 . S
C52 N59 1.286 . S
C53 H48 0.930 . S
C53 C54 1.397 . S
C53 C55 1.361 . S
C54 C53 1.397 . S
C54 C58 1.390 . S
C55 C53 1.361 . S
C55 C56 1.393 . S
C55 N59 1.413 . S
C56 H49 0.930 . S
C56 C55 1.393 . S
C56 C57 1.399 . S
C57 C56 1.399 . S
C57 C58 1.381 . S
C58 H50 0.930 . S
C58 C54 1.390 . S
C58 C57 1.381 . S
N59 C52 1.286 . S
N59 C55 1.413 . S
H60 C65 0.930 . S
H61 C68 0.930 . S
H62 C70 0.930 . S
H63 C64 1.016 . S
C64 H63 1.016 . S
C64 N71 1.286 . S
C65 H60 0.930 . S
C65 C66 1.397 . S
C65 C67 1.361 . S
C66 C65 1.397 . S
C66 C70 1.390 . S
C67 C65 1.361 . S
C67 C68 1.393 . S
C67 N71 1.413 . S
C68 H61 0.930 . S
C68 C67 1.393 . S
C68 C69 1.399 . S
C69 C68 1.399 . S
C69 C70 1.381 . S
C70 H62 0.930 . S
C70 C66 1.390 . S
C70 C69 1.381 . S
N71 C64 1.286 . S
N71 C67 1.413 . S
H72 C77 0.930 . S
H73 C80 0.930 . S
H74 C82 0.930 . S
H75 C76 1.016 . S
C76 H75 1.016 . S
C76 N83 1.286 . S
C77 H72 0.930 . S
C77 C78 1.397 . S
C77 C79 1.361 . S
C78 C77 1.397 . S
C78 C82 1.390 . S
C79 C77 1.361 . S
C79 C80 1.393 . S
C79 N83 1.413 . S
C80 H73 0.930 . S
C80 C79 1.393 . S
C80 C81 1.399 . S
C81 C80 1.399 . S
C81 C82 1.381 . S
C82 H74 0.930 . S
C82 C78 1.390 . S
C82 C81 1.381 . S
N83 C76 1.286 . S
N83 C79 1.413 . S
H84 C89 0.930 . S
H85 C92 0.930 . S
H86 C94 0.930 . S
H87 C88 1.016 . S
C88 H87 1.016 . S
C88 N95 1.286 . S
C89 H84 0.930 . S
C89 C90 1.397 . S
C89 C91 1.361 . S
C90 C89 1.397 . S
C90 C94 1.390 . S
C91 C89 1.361 . S
C91 C92 1.393 . S
C91 N95 1.413 . S
C92 H85 0.930 . S
C92 C91 1.393 . S
C92 C93 1.399 . S
C93 C92 1.399 . S
C93 C94 1.381 . S
C94 H86 0.930 . S
C94 C90 1.390 . S
C94 C93 1.381 . S
N95 C88 1.286 . S
N95 C91 1.413 . S
Eu96 N125 2.600 . S
Eu96 N131 2.562 . S
Eu96 O140 2.462 . S
Eu96 O141 2.373 . S
Eu96 O143 2.432 . S
Eu96 O144 2.308 . S
Eu96 O148 2.335 . S
Eu96 O151 2.372 . S
Eu96 C160 2.787 . S
C97 N98 1.365 . S
C97 C100 1.405 . S
C97 C104 1.448 . S
N98 C97 1.365 . S
N98 C101 1.319 . S
N98 Eu107 2.600 . S
C99 C101 1.397 . S
C99 C102 1.367 . S
C99 H119 0.931 . S
C100 C97 1.405 . S
C100 C102 1.403 . S
C100 C106 1.439 . S
C101 N98 1.319 . S
C101 C99 1.397 . S
C101 H112 0.930 . S
C102 C99 1.367 . S
C102 C100 1.403 . S
C102 H123 0.929 . S
C103 C104 1.430 . S
C103 C105 1.387 . S
C103 C109 1.404 . S
C104 C97 1.448 . S
C104 C103 1.430 . S
C104 N108 1.351 . S
C105 C103 1.387 . S
C105 C106 1.374 . S
C105 H120 0.931 . S
C106 C100 1.439 . S
C106 C105 1.374 . S
C106 H121 0.931 . S
Eu107 N98 2.600 . S
Eu107 N108 2.562 . S
Eu107 O142 2.314 1_655 S
Eu107 O145 2.372 . S
Eu107 O146 2.462 . S
Eu107 O147 2.373 . S
Eu107 O149 2.432 . S
Eu107 O150 2.291 1_655 S
Eu107 C171 2.787 . S
N108 C104 1.351 . S
N108 Eu107 2.562 . S
N108 C110 1.325 . S
C109 C103 1.404 . S
C109 C111 1.366 . S
C109 H117 0.930 . S
C110 N108 1.325 . S
C110 C111 1.416 . S
C110 H116 0.929 . S
C111 C109 1.366 . S
C111 C110 1.416 . S
C111 H113 0.930 . S
H112 C101 0.930 . S
H113 C111 0.930 . S
H114 C129 0.930 . S
H115 C136 0.930 . S
H116 C110 0.929 . S
H117 C109 0.930 . S
H118 C132 0.929 . S
H119 C99 0.931 . S
H120 C105 0.931 . S
H121 C106 0.931 . S
H122 C127 0.931 . S
H123 C102 0.929 . S
H124 C135 0.930 . S
N125 Eu96 2.600 . S
N125 C126 1.365 . S
N125 C129 1.319 . S
C126 N125 1.365 . S
C126 C128 1.405 . S
C126 C134 1.448 . S
C127 H122 0.931 . S
C127 C129 1.397 . S
C127 C130 1.367 . S
C128 C126 1.405 . S
C128 C130 1.403 . S
C128 C161 1.439 . S
C129 H114 0.930 . S
C129 N125 1.319 . S
C129 C127 1.397 . S
C130 C127 1.367 . S
C130 C128 1.403 . S
C130 H137 0.929 . S
N131 Eu96 2.562 . S
N131 C132 1.325 . S
N131 C134 1.351 . S
C132 H118 0.929 . S
C132 N131 1.325 . S
C132 C136 1.416 . S
C133 C134 1.430 . S
C133 C135 1.404 . S
C133 C162 1.387 . S
C134 C126 1.448 . S
C134 N131 1.351 . S
C134 C133 1.430 . S
C135 H124 0.930 . S
C135 C133 1.404 . S
C135 C136 1.366 . S
C136 H115 0.930 . S
C136 C132 1.416 . S
C136 C135 1.366 . S
H137 C130 0.929 . S
H138 C161 0.931 . S
H139 C162 0.931 . S
O140 Eu96 2.462 . S
O140 C160 1.252 . S
O141 Eu96 2.373 . S
O141 C152 1.249 . S
O142 Eu107 2.314 1_455 S
O142 C152 1.290 . S
O143 Eu96 2.432 . S
O143 C160 1.268 . S
O144 Eu96 2.308 . S
O144 C159 1.236 1_455 S
O145 Eu107 2.372 . S
O145 C159 1.257 . S
O146 Eu107 2.462 . S
O146 C171 1.252 . S
O147 Eu107 2.373 . S
O147 C163 1.249 . S
O148 Eu96 2.335 . S
O148 C163 1.264 1_455 S
O149 Eu107 2.432 . S
O149 C171 1.268 . S
O150 Eu107 2.291 1_455 S
O150 C170 1.255 . S
O151 Eu96 2.372 . S
O151 C170 1.257 . S
C152 O141 1.249 . S
C152 O142 1.290 . S
C153 C156 1.382 . S
C153 C158 1.390 . S
C153 C160 1.506 . S
C154 C155 1.398 . S
C154 C158 1.392 . S
C155 C154 1.398 . S
C155 C157 1.372 . S
C155 H172 0.931 . S
C156 C153 1.382 . S
C156 C157 1.390 . S
C156 H173 0.931 . S
C157 C155 1.372 . S
C157 C156 1.390 . S
C157 H174 0.929 . S
C158 C153 1.390 . S
C158 C154 1.392 . S
C158 H175 0.930 . S
C159 O144 1.236 1_655 S
C159 O145 1.257 . S
C160 Eu96 2.787 . S
C160 O140 1.252 . S
C160 O143 1.268 . S
C160 C153 1.506 . S
C161 C128 1.439 . S
C161 H138 0.931 . S
C161 C162 1.374 . S
C162 C133 1.387 . S
C162 H139 0.931 . S
C162 C161 1.374 . S
C163 O147 1.249 . S
C163 O148 1.264 1_655 S
C164 C167 1.382 . S
C164 C168 1.390 . S
C164 C171 1.506 . S
C165 C166 1.398 . S
C165 C168 1.392 . S
C166 C165 1.398 . S
C166 C169 1.372 . S
C166 H176 0.931 . S
C167 C164 1.382 . S
C167 C169 1.390 . S
C167 H177 0.931 . S
C168 C164 1.390 . S
C168 C165 1.392 . S
C168 H178 0.930 . S
C169 C166 1.372 . S
C169 C167 1.390 . S
C169 H179 0.929 . S
C170 O150 1.255 . S
C170 O151 1.257 . S
C171 Eu107 2.787 . S
C171 O146 1.252 . S
C171 O149 1.268 . S
C171 C164 1.506 . S
H172 C155 0.931 . S
H173 C156 0.931 . S
H174 C157 0.929 . S
H175 C158 0.930 . S
H176 C166 0.931 . S
H177 C167 0.931 . S
H178 C168 0.930 . S
H179 C169 0.929 . S
Eu180 N209 2.600 . S
Eu180 N215 2.562 . S
Eu180 O224 2.462 . S
Eu180 O225 2.373 . S
Eu180 O227 2.432 . S
Eu180 O228 2.291 . S
Eu180 O232 2.335 . S
Eu180 O235 2.372 . S
Eu180 C244 2.787 . S
C181 N182 1.365 . S
C181 C184 1.405 . S
C181 C188 1.448 . S
N182 C181 1.365 . S
N182 C185 1.319 . S
N182 Eu191 2.600 . S
C183 C185 1.397 . S
C183 C186 1.367 . S
C183 H203 0.931 . S
C184 C181 1.405 . S
C184 C186 1.403 . S
C184 C190 1.439 . S
C185 N182 1.319 . S
C185 C183 1.397 . S
C185 H196 0.930 . S
C186 C183 1.367 . S
C186 C184 1.403 . S
C186 H207 0.929 . S
C187 C188 1.430 . S
C187 C189 1.387 . S
C187 C193 1.404 . S
C188 C181 1.448 . S
C188 C187 1.430 . S
C188 N192 1.351 . S
C189 C187 1.387 . S
C189 C190 1.374 . S
C189 H204 0.931 . S
C190 C184 1.439 . S
C190 C189 1.374 . S
C190 H205 0.931 . S
Eu191 N182 2.600 . S
Eu191 N192 2.562 . S
Eu191 O226 2.335 . S
Eu191 O229 2.372 . S
Eu191 O230 2.462 . S
Eu191 O231 2.373 . S
Eu191 O233 2.432 . S
Eu191 O234 2.291 . S
Eu191 C255 2.787 . S
N192 C188 1.351 . S
N192 Eu191 2.562 . S
N192 C194 1.325 . S
C193 C187 1.404 . S
C193 C195 1.366 . S
C193 H201 0.930 . S
C194 N192 1.325 . S
C194 C195 1.416 . S
C194 H200 0.929 . S
C195 C193 1.366 . S
C195 C194 1.416 . S
C195 H197 0.930 . S
H196 C185 0.930 . S
H197 C195 0.930 . S
H198 C213 0.930 . S
H199 C220 0.930 . S
H200 C194 0.929 . S
H201 C193 0.930 . S
H202 C216 0.929 . S
H203 C183 0.931 . S
H204 C189 0.931 . S
H205 C190 0.931 . S
H206 C211 0.931 . S
H207 C186 0.929 . S
H208 C219 0.930 . S
N209 Eu180 2.600 . S
N209 C210 1.365 . S
N209 C213 1.319 . S
C210 N209 1.365 . S
C210 C212 1.405 . S
C210 C218 1.448 . S
C211 H206 0.931 . S
C211 C213 1.397 . S
C211 C214 1.367 . S
C212 C210 1.405 . S
C212 C214 1.403 . S
C212 C245 1.439 . S
C213 H198 0.930 . S
C213 N209 1.319 . S
C213 C211 1.397 . S
C214 C211 1.367 . S
C214 C212 1.403 . S
C214 H221 0.929 . S
N215 Eu180 2.562 . S
N215 C216 1.325 . S
N215 C218 1.351 . S
C216 H202 0.929 . S
C216 N215 1.325 . S
C216 C220 1.416 . S
C217 C218 1.430 . S
C217 C219 1.404 . S
C217 C246 1.387 . S
C218 C210 1.448 . S
C218 N215 1.351 . S
C218 C217 1.430 . S
C219 H208 0.930 . S
C219 C217 1.404 . S
C219 C220 1.366 . S
C220 H199 0.930 . S
C220 C216 1.416 . S
C220 C219 1.366 . S
H221 C214 0.929 . S
H222 C245 0.931 . S
H223 C246 0.931 . S
O224 Eu180 2.462 . S
O224 C244 1.252 . S
O225 Eu180 2.373 . S
O225 C236 1.249 . S
O226 Eu191 2.335 . S
O226 C236 1.264 . S
O227 Eu180 2.432 . S
O227 C244 1.268 . S
O228 Eu180 2.291 . S
O228 C243 1.255 . S
O229 Eu191 2.372 . S
O229 C243 1.257 . S
O230 Eu191 2.462 . S
O230 C255 1.252 . S
O231 Eu191 2.373 . S
O231 C247 1.249 . S
O232 Eu180 2.335 . S
O232 C247 1.264 . S
O233 Eu191 2.432 . S
O233 C255 1.268 . S
O234 Eu191 2.291 . S
O234 C254 1.255 . S
O235 Eu180 2.372 . S
O235 C254 1.257 . S
C236 O225 1.249 . S
C236 O226 1.264 . S
C237 C240 1.382 . S
C237 C242 1.390 . S
C237 C244 1.506 . S
C238 C239 1.398 . S
C238 C242 1.392 . S
C239 C238 1.398 . S
C239 C241 1.372 . S
C239 H256 0.931 . S
C240 C237 1.382 . S
C240 C241 1.390 . S
C240 H257 0.931 . S
C241 C239 1.372 . S
C241 C240 1.390 . S
C241 H258 0.929 . S
C242 C237 1.390 . S
C242 C238 1.392 . S
C242 H259 0.930 . S
C243 O228 1.255 . S
C243 O229 1.257 . S
C244 Eu180 2.787 . S
C244 O224 1.252 . S
C244 O227 1.268 . S
C244 C237 1.506 . S
C245 C212 1.439 . S
C245 H222 0.931 . S
C245 C246 1.374 . S
C246 C217 1.387 . S
C246 H223 0.931 . S
C246 C245 1.374 . S
C247 O231 1.249 . S
C247 O232 1.264 . S
C248 C251 1.382 . S
C248 C252 1.390 . S
C248 C255 1.506 . S
C249 C250 1.398 . S
C249 C252 1.392 . S
C250 C249 1.398 . S
C250 C253 1.372 . S
C250 H260 0.931 . S
C251 C248 1.382 . S
C251 C253 1.390 . S
C251 H261 0.931 . S
C252 C248 1.390 . S
C252 C249 1.392 . S
C252 H262 0.930 . S
C253 C250 1.372 . S
C253 C251 1.390 . S
C253 H263 0.929 . S
C254 O234 1.255 . S
C254 O235 1.257 . S
C255 Eu191 2.787 . S
C255 O230 1.252 . S
C255 O233 1.268 . S
C255 C248 1.506 . S
H256 C239 0.931 . S
H257 C240 0.931 . S
H258 C241 0.929 . S
H259 C242 0.930 . S
H260 C250 0.931 . S
H261 C251 0.931 . S
H262 C252 0.930 . S
H263 C253 0.929 . S
Eu264 N293 2.600 . S
Eu264 N299 2.562 . S
Eu264 O308 2.462 . S
Eu264 O309 2.373 . S
Eu264 O311 2.432 . S
Eu264 O312 2.291 . S
Eu264 O316 2.335 . S
Eu264 O319 2.372 . S
Eu264 C328 2.787 . S
C265 N266 1.365 . S
C265 C268 1.405 . S
C265 C272 1.448 . S
N266 C265 1.365 . S
N266 C269 1.319 . S
N266 Eu275 2.600 . S
C267 C269 1.397 . S
C267 C270 1.367 . S
C267 H287 0.931 . S
C268 C265 1.405 . S
C268 C270 1.403 . S
C268 C274 1.439 . S
C269 N266 1.319 . S
C269 C267 1.397 . S
C269 H280 0.930 . S
C270 C267 1.367 . S
C270 C268 1.403 . S
C270 H291 0.929 . S
C271 C272 1.430 . S
C271 C273 1.387 . S
C271 C277 1.404 . S
C272 C265 1.448 . S
C272 C271 1.430 . S
C272 N276 1.351 . S
C273 C271 1.387 . S
C273 C274 1.374 . S
C273 H288 0.931 . S
C274 C268 1.439 . S
C274 C273 1.374 . S
C274 H289 0.931 . S
Eu275 N266 2.600 . S
Eu275 N276 2.562 . S
Eu275 O310 2.335 1_655 S
Eu275 O313 2.372 . S
Eu275 O314 2.462 . S
Eu275 O315 2.373 . S
Eu275 O317 2.432 . S
Eu275 O318 2.291 1_655 S
Eu275 C339 2.787 . S
N276 C272 1.351 . S
N276 Eu275 2.562 . S
N276 C278 1.325 . S
C277 C271 1.404 . S
C277 C279 1.366 . S
C277 H285 0.930 . S
C278 N276 1.325 . S
C278 C279 1.416 . S
C278 H284 0.929 . S
C279 C277 1.366 . S
C279 C278 1.416 . S
C279 H281 0.930 . S
H280 C269 0.930 . S
H281 C279 0.930 . S
H282 C297 0.930 . S
H283 C304 0.930 . S
H284 C278 0.929 . S
H285 C277 0.930 . S
H286 C300 0.929 . S
H287 C267 0.931 . S
H288 C273 0.931 . S
H289 C274 0.931 . S
H290 C295 0.931 . S
H291 C270 0.929 . S
H292 C303 0.930 . S
N293 Eu264 2.600 . S
N293 C294 1.365 . S
N293 C297 1.319 . S
C294 N293 1.365 . S
C294 C296 1.405 . S
C294 C302 1.448 . S
C295 H290 0.931 . S
C295 C297 1.397 . S
C295 C298 1.367 . S
C296 C294 1.405 . S
C296 C298 1.403 . S
C296 C329 1.439 . S
C297 H282 0.930 . S
C297 N293 1.319 . S
C297 C295 1.397 . S
C298 C295 1.367 . S
C298 C296 1.403 . S
C298 H305 0.929 . S
N299 Eu264 2.562 . S
N299 C300 1.325 . S
N299 C302 1.351 . S
C300 H286 0.929 . S
C300 N299 1.325 . S
C300 C304 1.416 . S
C301 C302 1.430 . S
C301 C303 1.404 . S
C301 C330 1.387 . S
C302 C294 1.448 . S
C302 N299 1.351 . S
C302 C301 1.430 . S
C303 H292 0.930 . S
C303 C301 1.404 . S
C303 C304 1.366 . S
C304 H283 0.930 . S
C304 C300 1.416 . S
C304 C303 1.366 . S
H305 C298 0.929 . S
H306 C329 0.931 . S
H307 C330 0.931 . S
O308 Eu264 2.462 . S
O308 C328 1.252 . S
O309 Eu264 2.373 . S
O309 C320 1.249 . S
O310 Eu275 2.335 1_455 S
O310 C320 1.264 . S
O311 Eu264 2.432 . S
O311 C328 1.268 . S
O312 Eu264 2.291 . S
O312 C327 1.255 1_455 S
O313 Eu275 2.372 . S
O313 C327 1.257 . S
O314 Eu275 2.462 . S
O314 C339 1.252 . S
O315 Eu275 2.373 . S
O315 C331 1.249 . S
O316 Eu264 2.335 . S
O316 C331 1.264 1_455 S
O317 Eu275 2.432 . S
O317 C339 1.268 . S
O318 Eu275 2.291 1_455 S
O318 C338 1.255 . S
O319 Eu264 2.372 . S
O319 C338 1.257 . S
C320 O309 1.249 . S
C320 O310 1.264 . S
C321 C324 1.382 . S
C321 C326 1.390 . S
C321 C328 1.506 . S
C322 C323 1.398 . S
C322 C326 1.392 . S
C323 C322 1.398 . S
C323 C325 1.372 . S
C323 H340 0.931 . S
C324 C321 1.382 . S
C324 C325 1.390 . S
C324 H341 0.931 . S
C325 C323 1.372 . S
C325 C324 1.390 . S
C325 H342 0.929 . S
C326 C321 1.390 . S
C326 C322 1.392 . S
C326 H343 0.930 . S
C327 O312 1.255 1_655 S
C327 O313 1.257 . S
C328 Eu264 2.787 . S
C328 O308 1.252 . S
C328 O311 1.268 . S
C328 C321 1.506 . S
C329 C296 1.439 . S
C329 H306 0.931 . S
C329 C330 1.374 . S
C330 C301 1.387 . S
C330 H307 0.931 . S
C330 C329 1.374 . S
C331 O315 1.249 . S
C331 O316 1.264 1_655 S
C332 C335 1.382 . S
C332 C336 1.390 . S
C332 C339 1.506 . S
C333 C334 1.398 . S
C333 C336 1.392 . S
C334 C333 1.398 . S
C334 C337 1.372 . S
C334 H344 0.931 . S
C335 C332 1.382 . S
C335 C337 1.390 . S
C335 H345 0.931 . S
C336 C332 1.390 . S
C336 C333 1.392 . S
C336 H346 0.930 . S
C337 C334 1.372 . S
C337 C335 1.390 . S
C337 H347 0.929 . S
C338 O318 1.255 . S
C338 O319 1.257 . S
C339 Eu275 2.787 . S
C339 O314 1.252 . S
C339 O317 1.268 . S
C339 C332 1.506 . S
H340 C323 0.931 . S
H341 C324 0.931 . S
H342 C325 0.929 . S
H343 C326 0.930 . S
H344 C334 0.931 . S
H345 C335 0.931 . S
H346 C336 0.930 . S
H347 C337 0.929 . S
Eu348 N377 2.600 . S
Eu348 N383 2.562 . S
Eu348 O392 2.462 . S
Eu348 O393 2.373 . S
Eu348 O395 2.432 . S
Eu348 O396 2.291 . S
Eu348 O400 2.335 . S
Eu348 O403 2.372 . S
Eu348 C412 2.787 . S
C349 N350 1.365 . S
C349 C352 1.405 . S
C349 C356 1.448 . S
N350 C349 1.365 . S
N350 C353 1.319 . S
N350 Eu359 2.600 . S
C351 C353 1.397 . S
C351 C354 1.367 . S
C351 H371 0.931 . S
C352 C349 1.405 . S
C352 C354 1.403 . S
C352 C358 1.439 . S
C353 N350 1.319 . S
C353 C351 1.397 . S
C353 H364 0.930 . S
C354 C351 1.367 . S
C354 C352 1.403 . S
C354 H375 0.929 . S
C355 C356 1.430 . S
C355 C357 1.387 . S
C355 C361 1.404 . S
C356 C349 1.448 . S
C356 C355 1.430 . S
C356 N360 1.351 . S
C357 C355 1.387 . S
C357 C358 1.374 . S
C357 H372 0.931 . S
C358 C352 1.439 . S
C358 C357 1.374 . S
C358 H373 0.931 . S
Eu359 N350 2.600 . S
Eu359 N360 2.562 . S
Eu359 O394 2.335 . S
Eu359 O397 2.372 . S
Eu359 O398 2.462 . S
Eu359 O399 2.373 . S
Eu359 O401 2.432 . S
Eu359 O402 2.291 . S
Eu359 C423 2.787 . S
N360 C356 1.351 . S
N360 Eu359 2.562 . S
N360 C362 1.325 . S
C361 C355 1.404 . S
C361 C363 1.366 . S
C361 H369 0.930 . S
C362 N360 1.325 . S
C362 C363 1.416 . S
C362 H368 0.929 . S
C363 C361 1.366 . S
C363 C362 1.416 . S
C363 H365 0.930 . S
H364 C353 0.930 . S
H365 C363 0.930 . S
H366 C381 0.930 . S
H367 C388 0.930 . S
H368 C362 0.929 . S
H369 C361 0.930 . S
H370 C384 0.929 . S
H371 C351 0.931 . S
H372 C357 0.931 . S
H373 C358 0.931 . S
H374 C379 0.931 . S
H375 C354 0.929 . S
H376 C387 0.930 . S
N377 Eu348 2.600 . S
N377 C378 1.365 . S
N377 C381 1.319 . S
C378 N377 1.365 . S
C378 C380 1.405 . S
C378 C386 1.448 . S
C379 H374 0.931 . S
C379 C381 1.397 . S
C379 C382 1.367 . S
C380 C378 1.405 . S
C380 C382 1.403 . S
C380 C413 1.439 . S
C381 H366 0.930 . S
C381 N377 1.319 . S
C381 C379 1.397 . S
C382 C379 1.367 . S
C382 C380 1.403 . S
C382 H389 0.929 . S
N383 Eu348 2.562 . S
N383 C384 1.325 . S
N383 C386 1.351 . S
C384 H370 0.929 . S
C384 N383 1.325 . S
C384 C388 1.416 . S
C385 C386 1.430 . S
C385 C387 1.404 . S
C385 C414 1.387 . S
C386 C378 1.448 . S
C386 N383 1.351 . S
C386 C385 1.430 . S
C387 H376 0.930 . S
C387 C385 1.404 . S
C387 C388 1.366 . S
C388 H367 0.930 . S
C388 C384 1.416 . S
C388 C387 1.366 . S
H389 C382 0.929 . S
H390 C413 0.931 . S
H391 C414 0.931 . S
O392 Eu348 2.462 . S
O392 C412 1.252 . S
O393 Eu348 2.373 . S
O393 C404 1.249 . S
O394 Eu359 2.335 . S
O394 C404 1.264 . S
O395 Eu348 2.432 . S
O395 C412 1.268 . S
O396 Eu348 2.291 . S
O396 C411 1.255 . S
O397 Eu359 2.372 . S
O397 C411 1.257 . S
O398 Eu359 2.462 . S
O398 C423 1.252 . S
O399 Eu359 2.373 . S
O399 C415 1.249 . S
O400 Eu348 2.335 . S
O400 C415 1.264 . S
O401 Eu359 2.432 . S
O401 C423 1.268 . S
O402 Eu359 2.291 . S
O402 C422 1.255 . S
O403 Eu348 2.372 . S
O403 C422 1.257 . S
C404 O393 1.249 . S
C404 O394 1.264 . S
C405 C408 1.382 . S
C405 C410 1.390 . S
C405 C412 1.506 . S
C406 C407 1.398 . S
C406 C410 1.392 . S
C407 C406 1.398 . S
C407 C409 1.372 . S
C407 H424 0.931 . S
C408 C405 1.382 . S
C408 C409 1.390 . S
C408 H425 0.931 . S
C409 C407 1.372 . S
C409 C408 1.390 . S
C409 H426 0.929 . S
C410 C405 1.390 . S
C410 C406 1.392 . S
C410 H427 0.930 . S
C411 O396 1.255 . S
C411 O397 1.257 . S
C412 Eu348 2.787 . S
C412 O392 1.252 . S
C412 O395 1.268 . S
C412 C405 1.506 . S
C413 C380 1.439 . S
C413 H390 0.931 . S
C413 C414 1.374 . S
C414 C385 1.387 . S
C414 H391 0.931 . S
C414 C413 1.374 . S
C415 O399 1.249 . S
C415 O400 1.264 . S
C416 C419 1.382 . S
C416 C420 1.390 . S
C416 C423 1.506 . S
C417 C418 1.398 . S
C417 C420 1.392 . S
C418 C417 1.398 . S
C418 C421 1.372 . S
C418 H428 0.931 . S
C419 C416 1.382 . S
C419 C421 1.390 . S
C419 H429 0.931 . S
C420 C416 1.390 . S
C420 C417 1.392 . S
C420 H430 0.930 . S
C421 C418 1.372 . S
C421 C419 1.390 . S
C421 H431 0.929 . S
C422 O402 1.255 . S
C422 O403 1.257 . S
C423 Eu359 2.787 . S
C423 O398 1.252 . S
C423 O401 1.268 . S
C423 C416 1.506 . S
H424 C407 0.931 . S
H425 C408 0.931 . S
H426 C409 0.929 . S
H427 C410 0.930 . S
H428 C418 0.931 . S
H429 C419 0.931 . S
H430 C420 0.930 . S
H431 C421 0.929 . S
H432 C440 0.929 . S
H433 C442 0.930 . S
H434 C444 0.930 . S
H435 C447 0.929 . S
H436 C450 0.930 . S
H437 C452 0.960 . S
H438 C452 0.960 . S
H439 C452 0.960 . S
C440 H432 0.929 . S
C440 C441 1.377 . S
C440 C442 1.384 . S
C441 C440 1.377 . S
C441 C447 1.390 . S
C442 H433 0.930 . S
C442 C440 1.384 . S
C442 C443 1.372 . S
C443 C442 1.372 . S
C443 C444 1.400 . S
C443 C448 1.490 . S
C444 H434 0.930 . S
C444 C443 1.400 . S
C444 C447 1.386 . S
H445 C461 0.930 . S
H446 C462 0.931 1_565 S
C447 H435 0.929 . S
C447 C441 1.390 . S
C447 C444 1.386 . S
C448 C443 1.490 . S
C448 C450 1.395 . S
C448 C451 1.403 . S
H449 C455 0.930 . S
C450 H436 0.930 . S
C450 C448 1.395 . S
C450 C453 1.403 . S
C451 C448 1.403 . S
C451 C452 1.524 . S
C451 C455 1.400 . S
C452 H437 0.960 . S
C452 H438 0.960 . S
C452 H439 0.960 . S
C452 C451 1.524 . S
C453 C450 1.403 . S
C453 C454 1.392 . S
C453 C457 1.495 . S
C454 C453 1.392 . S
C454 C455 1.385 . S
C454 C456 1.478 1_565 S
C455 H449 0.930 . S
C455 C451 1.400 . S
C455 C454 1.385 . S
C456 C454 1.478 1_545 S
C456 C458 1.381 . S
C456 C462 1.383 . S
C457 C453 1.495 . S
C457 H463 0.959 . S
C457 H464 0.961 . S
C457 H465 0.960 1_565 S
C458 C456 1.381 . S
C458 C459 1.394 . S
C458 H466 0.930 . S
C459 C458 1.394 . S
C459 C460 1.383 . S
C459 H467 0.929 . S
C460 C459 1.383 . S
C460 C461 1.377 . S
C461 H445 0.930 . S
C461 C460 1.377 . S
C461 C462 1.379 . S
C462 H446 0.931 1_545 S
C462 C456 1.383 . S
C462 C461 1.379 . S
H463 C457 0.959 . S
H464 C457 0.961 . S
H465 C457 0.960 1_545 S
H466 C458 0.930 . S
H467 C459 0.929 . S
H468 C476 0.929 . S
H469 C478 0.930 . S
H470 C480 0.930 . S
H471 C483 0.929 . S
H472 C486 0.930 . S
H473 C488 0.960 . S
H474 C488 0.960 . S
H475 C488 0.960 . S
C476 H468 0.929 . S
C476 C477 1.377 . S
C476 C478 1.384 . S
C477 C476 1.377 . S
C477 C483 1.390 . S
C478 H469 0.930 . S
C478 C476 1.384 . S
C478 C479 1.372 . S
C479 C478 1.372 . S
C479 C480 1.400 . S
C479 C484 1.490 . S
C480 H470 0.930 . S
C480 C479 1.400 . S
C480 C483 1.386 . S
H481 C497 0.930 . S
H482 C498 0.931 . S
C483 H471 0.929 . S
C483 C477 1.390 . S
C483 C480 1.386 . S
C484 C479 1.490 . S
C484 C486 1.395 . S
C484 C487 1.403 . S
H485 C491 0.930 . S
C486 H472 0.930 . S
C486 C484 1.395 . S
C486 C489 1.403 . S
C487 C484 1.403 . S
C487 C488 1.524 . S
C487 C491 1.400 . S
C488 H473 0.960 . S
C488 H474 0.960 . S
C488 H475 0.960 . S
C488 C487 1.524 . S
C489 C486 1.403 . S
C489 C490 1.392 . S
C489 C493 1.495 . S
C490 C489 1.392 . S
C490 C491 1.385 . S
C490 C492 1.478 . S
C491 H485 0.930 . S
C491 C487 1.400 . S
C491 C490 1.385 . S
C492 C490 1.478 . S
C492 C494 1.381 . S
C492 C498 1.383 . S
C493 C489 1.495 . S
C493 H499 0.959 . S
C493 H500 0.961 . S
C493 H501 0.960 . S
C494 C492 1.381 . S
C494 C495 1.394 . S
C494 H502 0.930 . S
C495 C494 1.394 . S
C495 C496 1.383 . S
C495 H503 0.929 . S
C496 C495 1.383 . S
C496 C497 1.377 . S
C497 H481 0.930 . S
C497 C496 1.377 . S
C497 C498 1.379 . S
C498 H482 0.931 . S
C498 C492 1.383 . S
C498 C497 1.379 . S
H499 C493 0.959 . S
H500 C493 0.961 . S
H501 C493 0.960 . S
H502 C494 0.930 . S
H503 C495 0.929 . S
H504 C512 0.929 . S
H505 C514 0.930 . S
H506 C516 0.930 . S
H507 C519 0.929 . S
H508 C522 0.930 . S
H509 C524 0.960 . S
H510 C524 0.960 . S
H511 C524 0.960 . S
C512 H504 0.929 . S
C512 C513 1.377 . S
C512 C514 1.384 . S
C513 C512 1.377 . S
C513 C519 1.390 . S
C514 H505 0.930 . S
C514 C512 1.384 . S
C514 C515 1.372 . S
C515 C514 1.372 . S
C515 C516 1.400 . S
C515 C520 1.490 . S
C516 H506 0.930 . S
C516 C515 1.400 . S
C516 C519 1.386 . S
H517 C533 0.930 . S
H518 C534 0.931 . S
C519 H507 0.929 . S
C519 C513 1.390 . S
C519 C516 1.386 . S
C520 C515 1.490 . S
C520 C522 1.395 . S
C520 C523 1.403 . S
H521 C527 0.930 . S
C522 H508 0.930 . S
C522 C520 1.395 . S
C522 C525 1.403 . S
C523 C520 1.403 . S
C523 C524 1.524 . S
C523 C527 1.400 . S
C524 H509 0.960 . S
C524 H510 0.960 . S
C524 H511 0.960 . S
C524 C523 1.524 . S
C525 C522 1.403 . S
C525 C526 1.392 . S
C525 C529 1.495 . S
C526 C525 1.392 . S
C526 C527 1.385 . S
C526 C528 1.478 . S
C527 H521 0.930 . S
C527 C523 1.400 . S
C527 C526 1.385 . S
C528 C526 1.478 . S
C528 C530 1.381 . S
C528 C534 1.383 . S
C529 C525 1.495 . S
C529 H535 0.959 . S
C529 H536 0.961 . S
C529 H537 0.960 . S
C530 C528 1.381 . S
C530 C531 1.394 . S
C530 H538 0.930 . S
C531 C530 1.394 . S
C531 C532 1.383 . S
C531 H539 0.929 . S
C532 C531 1.383 . S
C532 C533 1.377 . S
C533 H517 0.930 . S
C533 C532 1.377 . S
C533 C534 1.379 . S
C534 H518 0.931 . S
C534 C528 1.383 . S
C534 C533 1.379 . S
H535 C529 0.959 . S
H536 C529 0.961 . S
H537 C529 0.960 . S
H538 C530 0.930 . S
H539 C531 0.929 . S
H540 C548 0.929 . S
H541 C550 0.930 . S
H542 C552 0.930 . S
H543 C555 0.929 . S
H544 C558 0.930 . S
H545 C560 0.960 . S
H546 C560 0.960 . S
H547 C560 0.960 . S
C548 H540 0.929 . S
C548 C549 1.377 . S
C548 C550 1.384 . S
C549 C548 1.377 . S
C549 C555 1.390 . S
C550 H541 0.930 . S
C550 C548 1.384 . S
C550 C551 1.372 . S
C551 C550 1.372 . S
C551 C552 1.400 . S
C551 C556 1.490 . S
C552 H542 0.930 . S
C552 C551 1.400 . S
C552 C555 1.386 . S
H553 C569 0.930 . S
H554 C570 0.931 . S
C555 H543 0.929 . S
C555 C549 1.390 . S
C555 C552 1.386 . S
C556 C551 1.490 . S
C556 C558 1.395 . S
C556 C559 1.403 . S
H557 C563 0.930 . S
C558 H544 0.930 . S
C558 C556 1.395 . S
C558 C561 1.403 . S
C559 C556 1.403 . S
C559 C560 1.524 . S
C559 C563 1.400 . S
C560 H545 0.960 . S
C560 H546 0.960 . S
C560 H547 0.960 . S
C560 C559 1.524 . S
C561 C558 1.403 . S
C561 C562 1.392 . S
C561 C565 1.495 1_565 S
C562 C561 1.392 . S
C562 C563 1.385 . S
C562 C564 1.478 1_565 S
C563 H557 0.930 . S
C563 C559 1.400 . S
C563 C562 1.385 . S
C564 C562 1.478 1_545 S
C564 C566 1.381 . S
C564 C570 1.383 . S
C565 C561 1.495 1_545 S
C565 H571 0.959 . S
C565 H572 0.961 . S
C565 H573 0.960 . S
C566 C564 1.381 . S
C566 C567 1.394 . S
C566 H574 0.930 . S
C567 C566 1.394 . S
C567 C568 1.383 . S
C567 H575 0.929 . S
C568 C567 1.383 . S
C568 C569 1.377 . S
C569 H553 0.930 . S
C569 C568 1.377 . S
C569 C570 1.379 . S
C570 H554 0.931 . S
C570 C564 1.383 . S
C570 C569 1.379 . S
H571 C565 0.959 . S
H572 C565 0.961 . S
H573 C565 0.960 . S
H574 C566 0.930 . S
H575 C567 0.929 . S
H576 C584 0.929 . S
H577 C586 0.930 . S
H578 C588 0.930 . S
H579 C591 0.929 . S
H580 C594 0.930 . S
H581 C596 0.960 . S
H582 C596 0.960 . S
H583 C596 0.960 . S
C584 H576 0.929 . S
C584 C585 1.377 . S
C584 C586 1.384 . S
C585 C584 1.377 . S
C585 C591 1.390 . S
C586 H577 0.930 . S
C586 C584 1.384 . S
C586 C587 1.372 . S
C587 C586 1.372 . S
C587 C588 1.400 . S
C587 C592 1.490 . S
C588 H578 0.930 . S
C588 C587 1.400 . S
C588 C591 1.386 . S
H589 C605 0.930 . S
H590 C606 0.931 1_545 S
C591 H579 0.929 . S
C591 C585 1.390 . S
C591 C588 1.386 . S
C592 C587 1.490 . S
C592 C594 1.395 . S
C592 C595 1.403 . S
H593 C599 0.930 . S
C594 H580 0.930 . S
C594 C592 1.395 . S
C594 C597 1.403 . S
C595 C592 1.403 . S
C595 C596 1.524 . S
C595 C599 1.400 . S
C596 H581 0.960 . S
C596 H582 0.960 . S
C596 H583 0.960 . S
C596 C595 1.524 . S
C597 C594 1.403 . S
C597 C598 1.392 . S
C597 C601 1.495 . S
C598 C597 1.392 . S
C598 C599 1.385 . S
C598 C600 1.478 1_545 S
C599 H593 0.930 . S
C599 C595 1.400 . S
C599 C598 1.385 . S
C600 C598 1.478 1_565 S
C600 C602 1.381 . S
C600 C606 1.383 . S
C601 C597 1.495 . S
C601 H607 0.959 . S
C601 H608 0.961 . S
C601 H609 0.960 1_545 S
C602 C600 1.381 . S
C602 C603 1.394 . S
C602 H610 0.930 . S
C603 C602 1.394 . S
C603 C604 1.383 . S
C603 H611 0.929 . S
C604 C603 1.383 . S
C604 C605 1.377 . S
C605 H589 0.930 . S
C605 C604 1.377 . S
C605 C606 1.379 . S
C606 H590 0.931 1_565 S
C606 C600 1.383 . S
C606 C605 1.379 . S
H607 C601 0.959 . S
H608 C601 0.961 . S
H609 C601 0.960 1_565 S
H610 C602 0.930 . S
H611 C603 0.929 . S
H612 C620 0.929 . S
H613 C622 0.930 . S
H614 C624 0.930 . S
H615 C627 0.929 . S
H616 C630 0.930 . S
H617 C632 0.960 . S
H618 C632 0.960 . S
H619 C632 0.960 . S
C620 H612 0.929 . S
C620 C621 1.377 . S
C620 C622 1.384 . S
C621 C620 1.377 . S
C621 C627 1.390 . S
C622 H613 0.930 . S
C622 C620 1.384 . S
C622 C623 1.372 . S
C623 C622 1.372 . S
C623 C624 1.400 . S
C623 C628 1.490 . S
C624 H614 0.930 . S
C624 C623 1.400 . S
C624 C627 1.386 . S
H625 C641 0.930 . S
H626 C642 0.931 . S
C627 H615 0.929 . S
C627 C621 1.390 . S
C627 C624 1.386 . S
C628 C623 1.490 . S
C628 C630 1.395 . S
C628 C631 1.403 . S
H629 C635 0.930 . S
C630 H616 0.930 . S
C630 C628 1.395 . S
C630 C633 1.403 . S
C631 C628 1.403 . S
C631 C632 1.524 . S
C631 C635 1.400 . S
C632 H617 0.960 . S
C632 H618 0.960 . S
C632 H619 0.960 . S
C632 C631 1.524 . S
C633 C630 1.403 . S
C633 C634 1.392 . S
C633 C637 1.495 . S
C634 C633 1.392 . S
C634 C635 1.385 . S
C634 C636 1.478 . S
C635 H629 0.930 . S
C635 C631 1.400 . S
C635 C634 1.385 . S
C636 C634 1.478 . S
C636 C638 1.381 . S
C636 C642 1.383 . S
C637 C633 1.495 . S
C637 H643 0.959 . S
C637 H644 0.961 . S
C637 H645 0.960 . S
C638 C636 1.381 . S
C638 C639 1.394 . S
C638 H646 0.930 . S
C639 C638 1.394 . S
C639 C640 1.383 . S
C639 H647 0.929 . S
C640 C639 1.383 . S
C640 C641 1.377 . S
C641 H625 0.930 . S
C641 C640 1.377 . S
C641 C642 1.379 . S
C642 H626 0.931 . S
C642 C636 1.383 . S
C642 C641 1.379 . S
H643 C637 0.959 . S
H644 C637 0.961 . S
H645 C637 0.960 . S
H646 C638 0.930 . S
H647 C639 0.929 . S
H648 C656 0.929 . S
H649 C658 0.930 . S
H650 C660 0.930 . S
H651 C663 0.929 . S
H652 C666 0.930 . S
H653 C668 0.960 . S
H654 C668 0.960 . S
H655 C668 0.960 . S
C656 H648 0.929 . S
C656 C657 1.377 . S
C656 C658 1.384 . S
C657 C656 1.377 . S
C657 C663 1.390 . S
C658 H649 0.930 . S
C658 C656 1.384 . S
C658 C659 1.372 . S
C659 C658 1.372 . S
C659 C660 1.400 . S
C659 C664 1.490 . S
C660 H650 0.930 . S
C660 C659 1.400 . S
C660 C663 1.386 . S
H661 C677 0.930 . S
H662 C678 0.931 . S
C663 H651 0.929 . S
C663 C657 1.390 . S
C663 C660 1.386 . S
C664 C659 1.490 . S
C664 C666 1.395 . S
C664 C667 1.403 . S
H665 C671 0.930 . S
C666 H652 0.930 . S
C666 C664 1.395 . S
C666 C669 1.403 . S
C667 C664 1.403 . S
C667 C668 1.524 . S
C667 C671 1.400 . S
C668 H653 0.960 . S
C668 H654 0.960 . S
C668 H655 0.960 . S
C668 C667 1.524 . S
C669 C666 1.403 . S
C669 C670 1.392 . S
C669 C673 1.495 . S
C670 C669 1.392 . S
C670 C671 1.385 . S
C670 C672 1.478 . S
C671 H665 0.930 . S
C671 C667 1.400 . S
C671 C670 1.385 . S
C672 C670 1.478 . S
C672 C674 1.381 . S
C672 C678 1.383 . S
C673 C669 1.495 . S
C673 H679 0.959 . S
C673 H680 0.961 . S
C673 H681 0.960 . S
C674 C672 1.381 . S
C674 C675 1.394 . S
C674 H682 0.930 . S
C675 C674 1.394 . S
C675 C676 1.383 . S
C675 H683 0.929 . S
C676 C675 1.383 . S
C676 C677 1.377 . S
C677 H661 0.930 . S
C677 C676 1.377 . S
C677 C678 1.379 . S
C678 H662 0.931 . S
C678 C672 1.383 . S
C678 C677 1.379 . S
H679 C673 0.959 . S
H680 C673 0.961 . S
H681 C673 0.960 . S
H682 C674 0.930 . S
H683 C675 0.929 . S
H684 C692 0.929 . S
H685 C694 0.930 . S
H686 C696 0.930 . S
H687 C699 0.929 . S
H688 C702 0.930 . S
H689 C704 0.960 . S
H690 C704 0.960 . S
H691 C704 0.960 . S
C692 H684 0.929 . S
C692 C693 1.377 . S
C692 C694 1.384 . S
C693 C692 1.377 . S
C693 C699 1.390 . S
C694 H685 0.930 . S
C694 C692 1.384 . S
C694 C695 1.372 . S
C695 C694 1.372 . S
C695 C696 1.400 . S
C695 C700 1.490 . S
C696 H686 0.930 . S
C696 C695 1.400 . S
C696 C699 1.386 . S
H697 C713 0.930 . S
H698 C714 0.931 . S
C699 H687 0.929 . S
C699 C693 1.390 . S
C699 C696 1.386 . S
C700 C695 1.490 . S
C700 C702 1.395 . S
C700 C703 1.403 . S
H701 C707 0.930 . S
C702 H688 0.930 . S
C702 C700 1.395 . S
C702 C705 1.403 . S
C703 C700 1.403 . S
C703 C704 1.524 . S
C703 C707 1.400 . S
C704 H689 0.960 . S
C704 H690 0.960 . S
C704 H691 0.960 . S
C704 C703 1.524 . S
C705 C702 1.403 . S
C705 C706 1.392 . S
C705 C709 1.495 1_545 S
C706 C705 1.392 . S
C706 C707 1.385 . S
C706 C708 1.478 1_545 S
C707 H701 0.930 . S
C707 C703 1.400 . S
C707 C706 1.385 . S
C708 C706 1.478 1_565 S
C708 C710 1.381 . S
C708 C714 1.383 . S
C709 C705 1.495 1_565 S
C709 H715 0.959 . S
C709 H716 0.961 . S
C709 H717 0.960 . S
C710 C708 1.381 . S
C710 C711 1.394 . S
C710 H718 0.930 . S
C711 C710 1.394 . S
C711 C712 1.383 . S
C711 H719 0.929 . S
C712 C711 1.383 . S
C712 C713 1.377 . S
C713 H697 0.930 . S
C713 C712 1.377 . S
C713 C714 1.379 . S
C714 H698 0.931 . S
C714 C708 1.383 . S
C714 C713 1.379 . S
H715 C709 0.959 . S
H716 C709 0.961 . S
H717 C709 0.960 . S
H718 C710 0.930 . S
H719 C711 0.929 . S
H720 C728 0.929 . S
H721 C730 0.930 . S
H722 C732 0.930 . S
H723 C735 0.929 . S
H724 C738 0.930 . S
H725 C740 0.960 . S
H726 C740 0.960 1_556 S
H727 C740 0.960 1_556 S
C728 H720 0.929 . S
C728 C729 1.377 . S
C728 C730 1.384 . S
C729 C728 1.377 . S
C729 C735 1.390 . S
C730 H721 0.930 . S
C730 C728 1.384 . S
C730 C731 1.372 . S
C731 C730 1.372 . S
C731 C732 1.400 . S
C731 C736 1.490 1_556 S
C732 H722 0.930 . S
C732 C731 1.400 . S
C732 C735 1.386 . S
H733 C749 0.930 . S
H734 C750 0.931 . S
C735 H723 0.929 . S
C735 C729 1.390 . S
C735 C732 1.386 . S
C736 C731 1.490 1_554 S
C736 C738 1.395 . S
C736 C739 1.403 . S
H737 C743 0.930 . S
C738 H724 0.930 . S
C738 C736 1.395 . S
C738 C741 1.403 . S
C739 C736 1.403 . S
C739 C740 1.524 . S
C739 C743 1.400 . S
C740 H725 0.960 . S
C740 H726 0.960 1_554 S
C740 H727 0.960 1_554 S
C740 C739 1.524 . S
C741 C738 1.403 . S
C741 C742 1.392 . S
C741 C745 1.495 . S
C742 C741 1.392 . S
C742 C743 1.385 . S
C742 C744 1.478 . S
C743 H737 0.930 . S
C743 C739 1.400 . S
C743 C742 1.385 . S
C744 C742 1.478 . S
C744 C746 1.381 . S
C744 C750 1.383 . S
C745 C741 1.495 . S
C745 H751 0.959 . S
C745 H752 0.961 . S
C745 H753 0.960 . S
C746 C744 1.381 . S
C746 C747 1.394 . S
C746 H754 0.930 . S
C747 C746 1.394 . S
C747 C748 1.383 . S
C747 H755 0.929 . S
C748 C747 1.383 . S
C748 C749 1.377 . S
C749 H733 0.930 . S
C749 C748 1.377 . S
C749 C750 1.379 . S
C750 H734 0.931 . S
C750 C744 1.383 . S
C750 C749 1.379 . S
H751 C745 0.959 . S
H752 C745 0.961 . S
H753 C745 0.960 . S
H754 C746 0.930 . S
H755 C747 0.929 . S
H756 C764 0.929 . S
H757 C766 0.930 . S
H758 C768 0.930 . S
H759 C771 0.929 . S
H760 C774 0.930 . S
H761 C776 0.960 . S
H762 C776 0.960 . S
H763 C776 0.960 . S
C764 H756 0.929 . S
C764 C765 1.377 . S
C764 C766 1.384 . S
C765 C764 1.377 . S
C765 C771 1.390 . S
C766 H757 0.930 . S
C766 C764 1.384 . S
C766 C767 1.372 . S
C767 C766 1.372 . S
C767 C768 1.400 . S
C767 C772 1.490 . S
C768 H758 0.930 . S
C768 C767 1.400 . S
C768 C771 1.386 . S
H769 C785 0.930 . S
H770 C786 0.931 . S
C771 H759 0.929 . S
C771 C765 1.390 . S
C771 C768 1.386 . S
C772 C767 1.490 . S
C772 C774 1.395 . S
C772 C775 1.403 . S
H773 C779 0.930 . S
C774 H760 0.930 . S
C774 C772 1.395 . S
C774 C777 1.403 . S
C775 C772 1.403 . S
C775 C776 1.524 . S
C775 C779 1.400 . S
C776 H761 0.960 . S
C776 H762 0.960 . S
C776 H763 0.960 . S
C776 C775 1.524 . S
C777 C774 1.403 . S
C777 C778 1.392 . S
C777 C781 1.495 . S
C778 C777 1.392 . S
C778 C779 1.385 . S
C778 C780 1.478 . S
C779 H773 0.930 . S
C779 C775 1.400 . S
C779 C778 1.385 . S
C780 C778 1.478 . S
C780 C782 1.381 . S
C780 C786 1.383 . S
C781 C777 1.495 . S
C781 H787 0.959 . S
C781 H788 0.961 . S
C781 H789 0.960 . S
C782 C780 1.381 . S
C782 C783 1.394 . S
C782 H790 0.930 . S
C783 C782 1.394 . S
C783 C784 1.383 . S
C783 H791 0.929 . S
C784 C783 1.383 . S
C784 C785 1.377 . S
C785 H769 0.930 . S
C785 C784 1.377 . S
C785 C786 1.379 . S
C786 H770 0.931 . S
C786 C780 1.383 . S
C786 C785 1.379 . S
H787 C781 0.959 . S
H788 C781 0.961 . S
H789 C781 0.960 . S
H790 C782 0.930 . S
H791 C783 0.929 . S
H792 C800 0.929 . S
H793 C802 0.930 . S
H794 C804 0.930 . S
H795 C807 0.929 . S
H796 C810 0.930 . S
H797 C812 0.983 . S
H798 C812 0.932 1_554 S
H799 C812 0.927 1_554 S
C800 H792 0.929 . S
C800 C801 1.377 . S
C800 C802 1.384 . S
C801 C800 1.377 . S
C801 C807 1.390 . S
C802 H793 0.930 . S
C802 C800 1.384 . S
C802 C803 1.372 . S
C803 C802 1.372 . S
C803 C804 1.400 . S
C803 C808 1.490 1_554 S
C804 H794 0.930 . S
C804 C803 1.400 . S
C804 C807 1.386 . S
H805 C821 0.930 . S
H806 C822 0.931 . S
C807 H795 0.929 . S
C807 C801 1.390 . S
C807 C804 1.386 . S
C808 C803 1.490 1_556 S
C808 C810 1.395 . S
C808 C811 1.403 . S
H809 C815 0.930 . S
C810 H796 0.930 . S
C810 C808 1.395 . S
C810 C813 1.403 . S
C811 C808 1.403 . S
C811 C812 1.565 . S
C811 C815 1.400 . S
C812 H797 0.983 . S
C812 H798 0.932 1_556 S
C812 H799 0.927 1_556 S
C812 C811 1.565 . S
C813 C810 1.403 . S
C813 C814 1.392 . S
C813 C817 1.495 . S
C814 C813 1.392 . S
C814 C815 1.385 . S
C814 C816 1.478 . S
C815 H809 0.930 . S
C815 C811 1.400 . S
C815 C814 1.385 . S
C816 C814 1.478 . S
C816 C818 1.381 . S
C816 C822 1.383 . S
C817 C813 1.495 . S
C817 H823 0.959 . S
C817 H824 0.961 . S
C817 H825 0.960 . S
C818 C816 1.381 . S
C818 C819 1.394 . S
C818 H826 0.930 . S
C819 C818 1.394 . S
C819 C820 1.383 . S
C819 H827 0.929 . S
C820 C819 1.383 . S
C820 C821 1.377 . S
C821 H805 0.930 . S
C821 C820 1.377 . S
C821 C822 1.379 . S
C822 H806 0.931 . S
C822 C816 1.383 . S
C822 C821 1.379 . S
H823 C817 0.959 . S
H824 C817 0.961 . S
H825 C817 0.960 . S
H826 C818 0.930 . S
H827 C819 0.929 . S
H828 C836 0.929 . S
H829 C838 0.930 . S
H830 C840 0.930 . S
H831 C843 0.929 . S
H832 C846 0.930 . S
H833 C848 0.960 . S
H834 C848 0.960 . S
H835 C848 0.960 . S
C836 H828 0.929 . S
C836 C837 1.377 . S
C836 C838 1.384 . S
C837 C836 1.377 . S
C837 C843 1.390 . S
C838 H829 0.930 . S
C838 C836 1.384 . S
C838 C839 1.372 . S
C839 C838 1.372 . S
C839 C840 1.400 . S
C839 C844 1.490 . S
C840 H830 0.930 . S
C840 C839 1.400 . S
C840 C843 1.386 . S
H841 C857 0.930 . S
H842 C858 0.931 . S
C843 H831 0.929 . S
C843 C837 1.390 . S
C843 C840 1.386 . S
C844 C839 1.490 . S
C844 C846 1.395 . S
C844 C847 1.403 . S
H845 C851 0.930 . S
C846 H832 0.930 . S
C846 C844 1.395 . S
C846 C849 1.403 . S
C847 C844 1.403 . S
C847 C848 1.524 . S
C847 C851 1.400 . S
C848 H833 0.960 . S
C848 H834 0.960 . S
C848 H835 0.960 . S
C848 C847 1.524 . S
C849 C846 1.403 . S
C849 C850 1.392 . S
C849 C853 1.495 . S
C850 C849 1.392 . S
C850 C851 1.385 . S
C850 C852 1.478 . S
C851 H845 0.930 . S
C851 C847 1.400 . S
C851 C850 1.385 . S
C852 C850 1.478 . S
C852 C854 1.381 . S
C852 C858 1.383 . S
C853 C849 1.495 . S
C853 H859 0.959 . S
C853 H860 0.961 . S
C853 H861 0.960 . S
C854 C852 1.381 . S
C854 C855 1.394 . S
C854 H862 0.930 . S
C855 C854 1.394 . S
C855 C856 1.383 . S
C855 H863 0.929 . S
C856 C855 1.383 . S
C856 C857 1.377 . S
C857 H841 0.930 . S
C857 C856 1.377 . S
C857 C858 1.379 . S
C858 H842 0.931 . S
C858 C852 1.383 . S
C858 C857 1.379 . S
H859 C853 0.959 . S
H860 C853 0.961 . S
H861 C853 0.960 . S
H862 C854 0.930 . S
H863 C855 0.929 . S
H864 C872 0.929 . S
H865 C874 0.930 . S
H866 C876 0.930 1_556 S
H867 C879 0.929 . S
H868 C882 0.930 . S
H869 C884 0.960 . S
H870 C884 0.990 . S
H871 C884 0.960 . S
C872 H864 0.929 . S
C872 C873 1.377 . S
C872 C874 1.384 . S
C873 C872 1.377 . S
C873 C879 1.390 . S
C874 H865 0.930 . S
C874 C872 1.384 . S
C874 C875 1.372 . S
C875 C874 1.372 . S
C875 C876 1.400 . S
C875 C880 1.490 1_554 S
C876 H866 0.930 1_554 S
C876 C875 1.400 . S
C876 C879 1.386 . S
H877 C893 0.930 . S
H878 C894 0.931 . S
C879 H867 0.929 . S
C879 C873 1.390 . S
C879 C876 1.386 . S
C880 C875 1.490 1_556 S
C880 C882 1.395 . S
C880 C883 1.403 . S
H881 C887 0.930 . S
C882 H868 0.930 . S
C882 C880 1.395 . S
C882 C885 1.403 . S
C883 C880 1.403 . S
C883 C884 1.524 . S
C883 C887 1.400 . S
C884 H869 0.960 . S
C884 H870 0.990 . S
C884 H871 0.960 . S
C884 C883 1.524 . S
C885 C882 1.403 . S
C885 C886 1.392 . S
C885 C889 1.495 . S
C886 C885 1.392 . S
C886 C887 1.385 . S
C886 C888 1.478 . S
C887 H881 0.930 . S
C887 C883 1.400 . S
C887 C886 1.385 . S
C888 C886 1.478 . S
C888 C890 1.381 . S
C888 C894 1.383 . S
C889 C885 1.495 . S
C889 H895 0.959 . S
C889 H896 0.961 . S
C889 H897 0.960 . S
C890 C888 1.381 . S
C890 C891 1.394 . S
C890 H898 0.930 . S
C891 C890 1.394 . S
C891 C892 1.383 . S
C891 H899 0.929 . S
C892 C891 1.383 . S
C892 C893 1.377 . S
C893 H877 0.930 . S
C893 C892 1.377 . S
C893 C894 1.379 . S
C894 H878 0.931 . S
C894 C888 1.383 . S
C894 C893 1.379 . S
H895 C889 0.959 . S
H896 C889 0.961 . S
H897 C889 0.960 . S
H898 C890 0.930 . S
H899 C891 0.929 . S
H900 C908 0.929 . S
H901 C910 0.930 . S
H902 C912 0.930 . S
H903 C915 0.929 . S
H904 C918 0.930 . S
H905 C920 0.960 . S
H906 C920 0.960 . S
H907 C920 0.960 . S
C908 H900 0.929 . S
C908 C909 1.377 . S
C908 C910 1.384 . S
C909 C908 1.377 . S
C909 C915 1.390 . S
C910 H901 0.930 . S
C910 C908 1.384 . S
C910 C911 1.372 . S
C911 C910 1.372 . S
C911 C912 1.400 . S
C911 C916 1.490 . S
C912 H902 0.930 . S
C912 C911 1.400 . S
C912 C915 1.386 . S
H913 C929 0.930 . S
H914 C930 0.931 . S
C915 H903 0.929 . S
C915 C909 1.390 . S
C915 C912 1.386 . S
C916 C911 1.490 . S
C916 C918 1.395 . S
C916 C919 1.403 . S
H917 C923 0.930 . S
C918 H904 0.930 . S
C918 C916 1.395 . S
C918 C921 1.403 . S
C919 C916 1.403 . S
C919 C920 1.524 . S
C919 C923 1.400 . S
C920 H905 0.960 . S
C920 H906 0.960 . S
C920 H907 0.960 . S
C920 C919 1.524 . S
C921 C918 1.403 . S
C921 C922 1.392 . S
C921 C925 1.495 . S
C922 C921 1.392 . S
C922 C923 1.385 . S
C922 C924 1.478 . S
C923 H917 0.930 . S
C923 C919 1.400 . S
C923 C922 1.385 . S
C924 C922 1.478 . S
C924 C926 1.381 . S
C924 C930 1.383 . S
C925 C921 1.495 . S
C925 H931 0.959 . S
C925 H932 0.961 . S
C925 H933 0.960 . S
C926 C924 1.381 . S
C926 C927 1.394 . S
C926 H934 0.930 . S
C927 C926 1.394 . S
C927 C928 1.383 . S
C927 H935 0.929 . S
C928 C927 1.383 . S
C928 C929 1.377 . S
C929 H913 0.930 . S
C929 C928 1.377 . S
C929 C930 1.379 . S
C930 H914 0.931 . S
C930 C924 1.383 . S
C930 C929 1.379 . S
H931 C925 0.959 . S
H932 C925 0.961 . S
H933 C925 0.960 . S
H934 C926 0.930 . S
H935 C927 0.929 . S
H936 C944 0.929 . S
H937 C946 0.930 . S
H938 C948 0.930 . S
H939 C951 0.929 . S
H940 C954 0.930 . S
H941 C956 0.960 . S
H942 C956 0.960 . S
H943 C956 0.960 . S
C944 H936 0.929 . S
C944 C945 1.377 . S
C944 C946 1.384 . S
C945 C944 1.377 . S
C945 C951 1.390 . S
C946 H937 0.930 . S
C946 C944 1.384 . S
C946 C947 1.372 . S
C947 C946 1.372 . S
C947 C948 1.400 . S
C947 C952 1.490 1_556 S
C948 H938 0.930 . S
C948 C947 1.400 . S
C948 C951 1.386 . S
H949 C965 0.930 . S
H950 C966 0.931 . S
C951 H939 0.929 . S
C951 C945 1.390 . S
C951 C948 1.386 . S
C952 C947 1.490 1_554 S
C952 C954 1.395 . S
C952 C955 1.403 . S
H953 C959 0.930 . S
C954 H940 0.930 . S
C954 C952 1.395 . S
C954 C957 1.403 . S
C955 C952 1.403 . S
C955 C956 1.524 . S
C955 C959 1.400 . S
C956 H941 0.960 . S
C956 H942 0.960 . S
C956 H943 0.960 . S
C956 C955 1.524 . S
C957 C954 1.403 . S
C957 C958 1.392 . S
C957 C961 1.495 . S
C958 C957 1.392 . S
C958 C959 1.385 . S
C958 C960 1.478 . S
C959 H953 0.930 . S
C959 C955 1.400 . S
C959 C958 1.385 . S
C960 C958 1.478 . S
C960 C962 1.381 . S
C960 C966 1.383 . S
C961 C957 1.495 . S
C961 H967 0.959 . S
C961 H968 0.961 . S
C961 H969 0.960 . S
C962 C960 1.381 . S
C962 C963 1.394 . S
C962 H970 0.930 . S
C963 C962 1.394 . S
C963 C964 1.383 . S
C963 H971 0.929 . S
C964 C963 1.383 . S
C964 C965 1.377 . S
C965 H949 0.930 . S
C965 C964 1.377 . S
C965 C966 1.379 . S
C966 H950 0.931 . S
C966 C960 1.383 . S
C966 C965 1.379 . S
H967 C961 0.959 . S
H968 C961 0.961 . S
H969 C961 0.960 . S
H970 C962 0.930 . S
H971 C963 0.929 . S
H972 C980 0.929 . S
H973 C982 0.930 . S
H974 C984 0.930 . S
H975 C987 0.929 . S
H976 C990 0.930 . S
H977 C992 0.960 . S
H978 C992 0.960 . S
H979 C992 0.960 . S
C980 H972 0.929 . S
C980 C981 1.377 . S
C980 C982 1.384 . S
C981 C980 1.377 . S
C981 C987 1.390 . S
C982 H973 0.930 . S
C982 C980 1.384 . S
C982 C983 1.372 . S
C983 C982 1.372 . S
C983 C984 1.400 . S
C983 C988 1.490 . S
C984 H974 0.930 . S
C984 C983 1.400 . S
C984 C987 1.386 . S
H985 C1001 0.930 . S
H986 C1002 0.931 . S
C987 H975 0.929 . S
C987 C981 1.390 . S
C987 C984 1.386 . S
C988 C983 1.490 . S
C988 C990 1.395 . S
C988 C991 1.403 . S
H989 C995 0.930 . S
C990 H976 0.930 . S
C990 C988 1.395 . S
C990 C993 1.403 . S
C991 C988 1.403 . S
C991 C992 1.524 . S
C991 C995 1.400 . S
C992 H977 0.960 . S
C992 H978 0.960 . S
C992 H979 0.960 . S
C992 C991 1.524 . S
C993 C990 1.403 . S
C993 C994 1.392 . S
C993 C997 1.495 . S
C994 C993 1.392 . S
C994 C995 1.385 . S
C994 C996 1.478 . S
C995 H989 0.930 . S
C995 C991 1.400 . S
C995 C994 1.385 . S
C996 C994 1.478 . S
C996 C998 1.381 . S
C996 C1002 1.383 . S
C997 C993 1.495 . S
C997 H1003 0.959 . S
C997 H1004 0.961 . S
C997 H1005 0.960 . S
C998 C996 1.381 . S
C998 C999 1.394 . S
C998 H1006 0.930 . S
C999 C998 1.394 . S
C999 C1000 1.383 . S
C999 H1007 0.929 . S
C1000 C999 1.383 . S
C1000 C1001 1.377 . S
C1001 H985 0.930 . S
C1001 C1000 1.377 . S
C1001 C1002 1.379 . S
C1002 H986 0.931 . S
C1002 C996 1.383 . S
C1002 C1001 1.379 . S
H1003 C997 0.959 . S
H1004 C997 0.961 . S
H1005 C997 0.960 . S
H1006 C998 0.930 . S
H1007 C999 0.929 . S
H1008 C1016 0.929 . S
H1009 C1018 0.930 . S
H1010 C1020 0.930 . S
H1011 C1023 0.929 . S
H1012 C1026 0.930 . S
H1013 C1028 0.960 . S
H1014 C1028 0.960 . S
H1015 C1028 0.960 . S
C1016 H1008 0.929 . S
C1016 C1017 1.377 . S
C1016 C1018 1.384 . S
C1017 C1016 1.377 . S
C1017 C1023 1.390 . S
C1018 H1009 0.930 . S
C1018 C1016 1.384 . S
C1018 C1019 1.372 . S
C1019 C1018 1.372 . S
C1019 C1020 1.400 . S
C1019 C1024 1.490 . S
C1020 H1010 0.930 . S
C1020 C1019 1.400 . S
C1020 C1023 1.386 . S
H1021 C1037 0.930 . S
H1022 C1038 0.931 . S
C1023 H1011 0.929 . S
C1023 C1017 1.390 . S
C1023 C1020 1.386 . S
C1024 C1019 1.490 . S
C1024 C1026 1.395 . S
C1024 C1027 1.403 . S
H1025 C1031 0.930 . S
C1026 H1012 0.930 . S
C1026 C1024 1.395 . S
C1026 C1029 1.403 . S
C1027 C1024 1.403 . S
C1027 C1028 1.524 . S
C1027 C1031 1.400 . S
C1028 H1013 0.960 . S
C1028 H1014 0.960 . S
C1028 H1015 0.960 . S
C1028 C1027 1.524 . S
C1029 C1026 1.403 . S
C1029 C1030 1.392 . S
C1029 C1033 1.495 . S
C1030 C1029 1.392 . S
C1030 C1031 1.385 . S
C1030 C1032 1.478 . S
C1031 H1025 0.930 . S
C1031 C1027 1.400 . S
C1031 C1030 1.385 . S
C1032 C1030 1.478 . S
C1032 C1034 1.381 . S
C1032 C1038 1.383 . S
C1033 C1029 1.495 . S
C1033 H1039 0.959 . S
C1033 H1040 0.961 . S
C1033 H1041 0.960 . S
C1034 C1032 1.381 . S
C1034 C1035 1.394 . S
C1034 H1042 0.930 . S
C1035 C1034 1.394 . S
C1035 C1036 1.383 . S
C1035 H1043 0.929 . S
C1036 C1035 1.383 . S
C1036 C1037 1.377 . S
C1037 H1021 0.930 . S
C1037 C1036 1.377 . S
C1037 C1038 1.379 . S
C1038 H1022 0.931 . S
C1038 C1032 1.383 . S
C1038 C1037 1.379 . S
H1039 C1033 0.959 . S
H1040 C1033 0.961 . S
H1041 C1033 0.960 . S
H1042 C1034 0.930 . S
H1043 C1035 0.929 . S
H1044 C1052 0.929 . S
H1045 C1054 0.930 . S
H1046 C1056 0.930 . S
H1047 C1059 0.929 . S
H1048 C1062 0.930 . S
H1049 C1064 0.960 . S
H1050 C1064 0.960 . S
H1051 C1064 0.960 . S
C1052 H1044 0.929 . S
C1052 C1053 1.377 . S
C1052 C1054 1.384 . S
C1053 C1052 1.377 . S
C1053 C1059 1.390 . S
C1054 H1045 0.930 . S
C1054 C1052 1.384 . S
C1054 C1055 1.372 . S
C1055 C1054 1.372 . S
C1055 C1056 1.400 . S
C1055 C1060 1.490 . S
C1056 H1046 0.930 . S
C1056 C1055 1.400 . S
C1056 C1059 1.386 . S
H1057 C1073 0.930 . S
H1058 C1074 0.931 . S
C1059 H1047 0.929 . S
C1059 C1053 1.390 . S
C1059 C1056 1.386 . S
C1060 C1055 1.490 . S
C1060 C1062 1.395 . S
C1060 C1063 1.403 . S
H1061 C1067 0.930 . S
C1062 H1048 0.930 . S
C1062 C1060 1.395 . S
C1062 C1065 1.403 . S
C1063 C1060 1.403 . S
C1063 C1064 1.524 . S
C1063 C1067 1.400 . S
C1064 H1049 0.960 . S
C1064 H1050 0.960 . S
C1064 H1051 0.960 . S
C1064 C1063 1.524 . S
C1065 C1062 1.403 . S
C1065 C1066 1.392 . S
C1065 C1069 1.495 . S
C1066 C1065 1.392 . S
C1066 C1067 1.385 . S
C1066 C1068 1.478 . S
C1067 H1061 0.930 . S
C1067 C1063 1.400 . S
C1067 C1066 1.385 . S
C1068 C1066 1.478 . S
C1068 C1070 1.381 . S
C1068 C1074 1.383 . S
C1069 C1065 1.495 . S
C1069 H1075 0.959 . S
C1069 H1076 0.961 . S
C1069 H1077 0.960 . S
C1070 C1068 1.381 . S
C1070 C1071 1.394 . S
C1070 H1078 0.930 . S
C1071 C1070 1.394 . S
C1071 C1072 1.383 . S
C1071 H1079 0.929 . S
C1072 C1071 1.383 . S
C1072 C1073 1.377 . S
C1073 H1057 0.930 . S
C1073 C1072 1.377 . S
C1073 C1074 1.379 . S
C1074 H1058 0.931 . S
C1074 C1068 1.383 . S
C1074 C1073 1.379 . S
H1075 C1069 0.959 . S
H1076 C1069 0.961 . S
H1077 C1069 0.960 . S
H1078 C1070 0.930 . S
H1079 C1071 0.929 . S
H1080 C1088 0.929 . S
H1081 C1090 0.930 . S
H1082 C1092 0.930 . S
H1083 C1095 0.929 . S
H1084 C1098 0.930 . S
H1085 C1100 0.960 . S
H1086 C1100 0.960 . S
H1087 C1100 0.960 . S
C1088 H1080 0.929 . S
C1088 C1089 1.377 . S
C1088 C1090 1.384 . S
C1089 C1088 1.377 . S
C1089 C1095 1.390 . S
C1090 H1081 0.930 . S
C1090 C1088 1.384 . S
C1090 C1091 1.372 . S
C1091 C1090 1.372 . S
C1091 C1092 1.400 . S
C1091 C1096 1.490 . S
C1092 H1082 0.930 . S
C1092 C1091 1.400 . S
C1092 C1095 1.386 . S
H1093 C1109 0.930 . S
H1094 C1110 0.931 . S
C1095 H1083 0.929 . S
C1095 C1089 1.390 . S
C1095 C1092 1.386 . S
C1096 C1091 1.490 . S
C1096 C1098 1.395 . S
C1096 C1099 1.403 . S
H1097 C1103 0.930 . S
C1098 H1084 0.930 . S
C1098 C1096 1.395 . S
C1098 C1101 1.403 . S
C1099 C1096 1.403 . S
C1099 C1100 1.524 . S
C1099 C1103 1.400 . S
C1100 H1085 0.960 . S
C1100 H1086 0.960 . S
C1100 H1087 0.960 . S
C1100 C1099 1.524 . S
C1101 C1098 1.403 . S
C1101 C1102 1.392 . S
C1101 C1105 1.495 . S
C1102 C1101 1.392 . S
C1102 C1103 1.385 . S
C1102 C1104 1.478 . S
C1103 H1097 0.930 . S
C1103 C1099 1.400 . S
C1103 C1102 1.385 . S
C1104 C1102 1.478 . S
C1104 C1106 1.381 . S
C1104 C1110 1.383 . S
C1105 C1101 1.495 . S
C1105 H1111 0.959 . S
C1105 H1112 0.961 . S
C1105 H1113 0.960 . S
C1106 C1104 1.381 . S
C1106 C1107 1.394 . S
C1106 H1114 0.930 . S
C1107 C1106 1.394 . S
C1107 C1108 1.383 . S
C1107 H1115 0.929 . S
C1108 C1107 1.383 . S
C1108 C1109 1.377 . S
C1109 H1093 0.930 . S
C1109 C1108 1.377 . S
C1109 C1110 1.379 . S
C1110 H1094 0.931 . S
C1110 C1104 1.383 . S
C1110 C1109 1.379 . S
H1111 C1105 0.959 . S
H1112 C1105 0.961 . S
H1113 C1105 0.960 . S
H1114 C1106 0.930 . S
H1115 C1107 0.929 . S
H1116 C1124 0.929 . S
H1117 C1126 0.930 . S
H1118 C1128 0.930 . S
H1119 C1131 0.929 . S
H1120 C1134 0.930 . S
H1121 C1136 0.960 . S
H1122 C1136 0.960 . S
H1123 C1136 0.960 . S
C1124 H1116 0.929 . S
C1124 C1125 1.377 . S
C1124 C1126 1.384 . S
C1125 C1124 1.377 . S
C1125 C1131 1.390 . S
C1126 H1117 0.930 . S
C1126 C1124 1.384 . S
C1126 C1127 1.372 . S
C1127 C1126 1.372 . S
C1127 C1128 1.400 . S
C1127 C1132 1.490 . S
C1128 H1118 0.930 . S
C1128 C1127 1.400 . S
C1128 C1131 1.386 . S
H1129 C1145 0.930 . S
H1130 C1146 0.931 . S
C1131 H1119 0.929 . S
C1131 C1125 1.390 . S
C1131 C1128 1.386 . S
C1132 C1127 1.490 . S
C1132 C1134 1.395 . S
C1132 C1135 1.403 . S
H1133 C1139 0.930 . S
C1134 H1120 0.930 . S
C1134 C1132 1.395 . S
C1134 C1137 1.403 . S
C1135 C1132 1.403 . S
C1135 C1136 1.524 . S
C1135 C1139 1.400 . S
C1136 H1121 0.960 . S
C1136 H1122 0.960 . S
C1136 H1123 0.960 . S
C1136 C1135 1.524 . S
C1137 C1134 1.403 . S
C1137 C1138 1.392 . S
C1137 C1141 1.495 . S
C1138 C1137 1.392 . S
C1138 C1139 1.385 . S
C1138 C1140 1.478 . S
C1139 H1133 0.930 . S
C1139 C1135 1.400 . S
C1139 C1138 1.385 . S
C1140 C1138 1.478 . S
C1140 C1142 1.381 . S
C1140 C1146 1.383 . S
C1141 C1137 1.495 . S
C1141 H1147 0.959 . S
C1141 H1148 0.961 . S
C1141 H1149 0.960 . S
C1142 C1140 1.381 . S
C1142 C1143 1.394 . S
C1142 H1150 0.930 . S
C1143 C1142 1.394 . S
C1143 C1144 1.383 . S
C1143 H1151 0.929 . S
C1144 C1143 1.383 . S
C1144 C1145 1.377 . S
C1145 H1129 0.930 . S
C1145 C1144 1.377 . S
C1145 C1146 1.379 . S
C1146 H1130 0.931 . S
C1146 C1140 1.383 . S
C1146 C1145 1.379 . S
H1147 C1141 0.959 . S
H1148 C1141 0.961 . S
H1149 C1141 0.960 . S
H1150 C1142 0.930 . S
H1151 C1143 0.929 . S
H1152 C1160 0.929 . S
H1153 C1162 0.930 . S
H1154 C1164 0.930 . S
H1155 C1167 0.929 . S
H1156 C1170 0.930 . S
H1157 C1172 0.960 . S
H1158 C1172 0.960 . S
H1159 C1172 0.960 . S
C1160 H1152 0.929 . S
C1160 C1161 1.377 . S
C1160 C1162 1.384 . S
C1161 C1160 1.377 . S
C1161 C1167 1.390 . S
C1162 H1153 0.930 . S
C1162 C1160 1.384 . S
C1162 C1163 1.372 . S
C1163 C1162 1.372 . S
C1163 C1164 1.400 . S
C1163 C1168 1.490 . S
C1164 H1154 0.930 . S
C1164 C1163 1.400 . S
C1164 C1167 1.386 . S
H1165 C1181 0.930 . S
H1166 C1182 0.931 . S
C1167 H1155 0.929 . S
C1167 C1161 1.390 . S
C1167 C1164 1.386 . S
C1168 C1163 1.490 . S
C1168 C1170 1.395 . S
C1168 C1171 1.403 . S
H1169 C1175 0.930 . S
C1170 H1156 0.930 . S
C1170 C1168 1.395 . S
C1170 C1173 1.403 . S
C1171 C1168 1.403 . S
C1171 C1172 1.524 . S
C1171 C1175 1.400 . S
C1172 H1157 0.960 . S
C1172 H1158 0.960 . S
C1172 H1159 0.960 . S
C1172 C1171 1.524 . S
C1173 C1170 1.403 . S
C1173 C1174 1.392 . S
C1173 C1177 1.495 . S
C1174 C1173 1.392 . S
C1174 C1175 1.385 . S
C1174 C1176 1.478 . S
C1175 H1169 0.930 . S
C1175 C1171 1.400 . S
C1175 C1174 1.385 . S
C1176 C1174 1.478 . S
C1176 C1178 1.381 . S
C1176 C1182 1.383 . S
C1177 C1173 1.495 . S
C1177 H1183 0.959 . S
C1177 H1184 0.961 . S
C1177 H1185 0.960 . S
C1178 C1176 1.381 . S
C1178 C1179 1.394 . S
C1178 H1186 0.930 . S
C1179 C1178 1.394 . S
C1179 C1180 1.383 . S
C1179 H1187 0.929 . S
C1180 C1179 1.383 . S
C1180 C1181 1.377 . S
C1181 H1165 0.930 . S
C1181 C1180 1.377 . S
C1181 C1182 1.379 . S
C1182 H1166 0.931 . S
C1182 C1176 1.383 . S
C1182 C1181 1.379 . S
H1183 C1177 0.959 . S
H1184 C1177 0.961 . S
H1185 C1177 0.960 . S
H1186 C1178 0.930 . S
H1187 C1179 0.929 . S
H1188 C1196 0.929 . S
H1189 C1198 0.930 . S
H1190 C1200 0.930 . S
H1191 C1203 0.929 . S
H1192 C1206 0.930 . S
H1193 C1208 0.960 . S
H1194 C1208 0.960 . S
H1195 C1208 0.960 . S
C1196 H1188 0.929 . S
C1196 C1197 1.377 . S
C1196 C1198 1.384 . S
C1197 C1196 1.377 . S
C1197 C1203 1.390 . S
C1198 H1189 0.930 . S
C1198 C1196 1.384 . S
C1198 C1199 1.372 . S
C1199 C1198 1.372 . S
C1199 C1200 1.400 . S
C1199 C1204 1.490 . S
C1200 H1190 0.930 . S
C1200 C1199 1.400 . S
C1200 C1203 1.386 . S
H1201 C1217 0.930 . S
H1202 C1218 0.931 . S
C1203 H1191 0.929 . S
C1203 C1197 1.390 . S
C1203 C1200 1.386 . S
C1204 C1199 1.490 . S
C1204 C1206 1.395 . S
C1204 C1207 1.403 . S
H1205 C1211 0.930 . S
C1206 H1192 0.930 . S
C1206 C1204 1.395 . S
C1206 C1209 1.403 . S
C1207 C1204 1.403 . S
C1207 C1208 1.524 . S
C1207 C1211 1.400 . S
C1208 H1193 0.960 . S
C1208 H1194 0.960 . S
C1208 H1195 0.960 . S
C1208 C1207 1.524 . S
C1209 C1206 1.403 . S
C1209 C1210 1.392 . S
C1209 C1213 1.495 . S
C1210 C1209 1.392 . S
C1210 C1211 1.385 . S
C1210 C1212 1.478 . S
C1211 H1205 0.930 . S
C1211 C1207 1.400 . S
C1211 C1210 1.385 . S
C1212 C1210 1.478 . S
C1212 C1214 1.381 . S
C1212 C1218 1.383 . S
C1213 C1209 1.495 . S
C1213 H1219 0.959 . S
C1213 H1220 0.961 . S
C1213 H1221 0.960 . S
C1214 C1212 1.381 . S
C1214 C1215 1.394 . S
C1214 H1222 0.930 . S
C1215 C1214 1.394 . S
C1215 C1216 1.383 . S
C1215 H1223 0.929 . S
C1216 C1215 1.383 . S
C1216 C1217 1.377 . S
C1217 H1201 0.930 . S
C1217 C1216 1.377 . S
C1217 C1218 1.379 . S
C1218 H1202 0.931 . S
C1218 C1212 1.383 . S
C1218 C1217 1.379 . S
H1219 C1213 0.959 . S
H1220 C1213 0.961 . S
H1221 C1213 0.960 . S
H1222 C1214 0.930 . S
H1223 C1215 0.929 . S
H1224 C1232 0.929 . S
H1225 C1234 0.930 . S
H1226 C1236 0.930 . S
H1227 C1239 0.929 . S
H1228 C1242 0.930 . S
H1229 C1244 0.960 . S
H1230 C1244 0.960 . S
H1231 C1244 0.960 . S
C1232 H1224 0.929 . S
C1232 C1233 1.377 . S
C1232 C1234 1.384 . S
C1233 C1232 1.377 . S
C1233 C1239 1.390 . S
C1234 H1225 0.930 . S
C1234 C1232 1.384 . S
C1234 C1235 1.372 . S
C1235 C1234 1.372 . S
C1235 C1236 1.400 . S
C1235 C1240 1.490 . S
C1236 H1226 0.930 . S
C1236 C1235 1.400 . S
C1236 C1239 1.386 . S
H1237 C1253 0.930 . S
H1238 C1254 0.931 . S
C1239 H1227 0.929 . S
C1239 C1233 1.390 . S
C1239 C1236 1.386 . S
C1240 C1235 1.490 . S
C1240 C1242 1.395 . S
C1240 C1243 1.403 . S
H1241 C1247 0.930 . S
C1242 H1228 0.930 . S
C1242 C1240 1.395 . S
C1242 C1245 1.403 . S
C1243 C1240 1.403 . S
C1243 C1244 1.524 . S
C1243 C1247 1.400 . S
C1244 H1229 0.960 . S
C1244 H1230 0.960 . S
C1244 H1231 0.960 . S
C1244 C1243 1.524 . S
C1245 C1242 1.403 . S
C1245 C1246 1.392 . S
C1245 C1249 1.495 . S
C1246 C1245 1.392 . S
C1246 C1247 1.385 . S
C1246 C1248 1.478 . S
C1247 H1241 0.930 . S
C1247 C1243 1.400 . S
C1247 C1246 1.385 . S
C1248 C1246 1.478 . S
C1248 C1250 1.381 . S
C1248 C1254 1.383 . S
C1249 C1245 1.495 . S
C1249 H1255 0.959 . S
C1249 H1256 0.961 . S
C1249 H1257 0.960 . S
C1250 C1248 1.381 . S
C1250 C1251 1.394 . S
C1250 H1258 0.930 . S
C1251 C1250 1.394 . S
C1251 C1252 1.383 . S
C1251 H1259 0.929 . S
C1252 C1251 1.383 . S
C1252 C1253 1.377 . S
C1253 H1237 0.930 . S
C1253 C1252 1.377 . S
C1253 C1254 1.379 . S
C1254 H1238 0.931 . S
C1254 C1248 1.383 . S
C1254 C1253 1.379 . S
H1255 C1249 0.959 . S
H1256 C1249 0.961 . S
H1257 C1249 0.960 . S
H1258 C1250 0.930 . S
H1259 C1251 0.929 . S
H1260 C1268 0.929 . S
H1261 C1270 0.930 . S
H1262 C1272 0.930 . S
H1263 C1275 0.929 . S
H1264 C1278 0.930 . S
H1265 C1280 0.960 . S
H1266 C1280 0.960 . S
H1267 C1280 0.960 . S
C1268 H1260 0.929 . S
C1268 C1269 1.377 . S
C1268 C1270 1.384 . S
C1269 C1268 1.377 . S
C1269 C1275 1.390 . S
C1270 H1261 0.930 . S
C1270 C1268 1.384 . S
C1270 C1271 1.372 . S
C1271 C1270 1.372 . S
C1271 C1272 1.400 . S
C1271 C1276 1.490 . S
C1272 H1262 0.930 . S
C1272 C1271 1.400 . S
C1272 C1275 1.386 . S
H1273 C1289 0.930 . S
H1274 C1290 0.931 . S
C1275 H1263 0.929 . S
C1275 C1269 1.390 . S
C1275 C1272 1.386 . S
C1276 C1271 1.490 . S
C1276 C1278 1.395 . S
C1276 C1279 1.403 . S
H1277 C1283 0.930 . S
C1278 H1264 0.930 . S
C1278 C1276 1.395 . S
C1278 C1281 1.403 . S
C1279 C1276 1.403 . S
C1279 C1280 1.524 . S
C1279 C1283 1.400 . S
C1280 H1265 0.960 . S
C1280 H1266 0.960 . S
C1280 H1267 0.960 . S
C1280 C1279 1.524 . S
C1281 C1278 1.403 . S
C1281 C1282 1.392 . S
C1281 C1285 1.495 . S
C1282 C1281 1.392 . S
C1282 C1283 1.385 . S
C1282 C1284 1.478 . S
C1283 H1277 0.930 . S
C1283 C1279 1.400 . S
C1283 C1282 1.385 . S
C1284 C1282 1.478 . S
C1284 C1286 1.381 . S
C1284 C1290 1.383 . S
C1285 C1281 1.495 . S
C1285 H1291 0.959 . S
C1285 H1292 0.961 . S
C1285 H1293 0.960 . S
C1286 C1284 1.381 . S
C1286 C1287 1.394 . S
C1286 H1294 0.930 . S
C1287 C1286 1.394 . S
C1287 C1288 1.383 . S
C1287 H1295 0.929 . S
C1288 C1287 1.383 . S
C1288 C1289 1.377 . S
C1289 H1273 0.930 . S
C1289 C1288 1.377 . S
C1289 C1290 1.379 . S
C1290 H1274 0.931 . S
C1290 C1284 1.383 . S
C1290 C1289 1.379 . S
H1291 C1285 0.959 . S
H1292 C1285 0.961 . S
H1293 C1285 0.960 . S
H1294 C1286 0.930 . S
H1295 C1287 0.929 . S
C441 C81 1.698 . S
C460 C170 1.663 . S
C496 C254 1.661 . S
C477 C93 1.699 . S
C532 C247 1.688 . S
C513 C57 1.692 . S
C549 C69 1.691 . S
C568 C163 1.680 . S
C604 C327 1.685 . S
C585 C33 1.696 . S
C640 C411 1.691 . S
C621 C45 1.697 . S
C657 C9 1.687 . S
C676 C404 1.676 . S
C693 C21 1.686 . S
C712 C320 1.678 . S
C748 C154 1.435 . S
C729 C18 1.627 . S
C784 C238 1.477 . S
C765 C6 1.627 . S
C820 C249 1.386 . S
C801 C42 1.639 . S
C856 C165 1.461 . S
C837 C30 1.640 . S
C892 C333 1.489 . S
C873 C66 1.634 . S
C909 C54 1.635 . S
C928 C417 1.455 . S
C964 C406 1.466 . S
C945 C90 1.646 . S
C981 C78 1.646 . S
C1000 C322 1.465 . S
C1036 C152 1.551 . S
C1017 C4 1.542 . S
C1072 C236 1.548 . S
C1053 C16 1.540 . S
C1089 C28 1.543 . S
C1108 C243 1.510 . S
C1144 C159 1.525 . S
C1125 C40 1.538 . S
C1180 C331 1.559 . S
C1161 C52 1.536 . S
C1197 C64 1.542 . S
C1216 C415 1.548 . S
C1233 C76 1.533 . S
C1252 C422 1.519 . S
C1269 C88 1.538 . S
C1288 C338 1.540 . S
