# Generated by pormake.
# Topology anh, (6,3)-cn, num edge types: 1
# Building blocks:
#     Node 0, Type 0, BuildingBlock: CUKXOW_clean_sbu_0, # of connection points: 6
#     Node 1, Type 0, BuildingBlock: CUKXOW_clean_sbu_0, # of connection points: 6
#     Node 2, Type 0, BuildingBlock: CUKXOW_clean_sbu_0, # of connection points: 6
#     Node 3, Type 1, BuildingBlock: BETDAH_clean_linker_0, # of connection points: 3
#     Node 4, Type 1, BuildingBlock: BETDAH_clean_linker_0, # of connection points: 3
#     Node 5, Type 1, BuildingBlock: BETDAH_clean_linker_0, # of connection points: 3
#     Node 6, Type 1, BuildingBlock: BETDAH_clean_linker_0, # of connection points: 3
#     Node 7, Type 1, BuildingBlock: BETDAH_clean_linker_0, # of connection points: 3
#     Node 8, Type 1, BuildingBlock: BETDAH_clean_linker_0, # of connection points: 3
#     Edge 9, Type (0, 1), BuildingBlock: KIFKEQ_clean_linker_1, # of connection points: 2
#     Edge 10, Type (0, 1), BuildingBlock: KIFKEQ_clean_linker_1, # of connection points: 2
#     Edge 11, Type (0, 1), BuildingBlock: KIFKEQ_clean_linker_1, # of connection points: 2
#     Edge 12, Type (0, 1), BuildingBlock: KIFKEQ_clean_linker_1, # of connection points: 2
#     Edge 13, Type (0, 1), BuildingBlock: KIFKEQ_clean_linker_1, # of connection points: 2
#     Edge 14, Type (0, 1), BuildingBlock: KIFKEQ_clean_linker_1, # of connection points: 2
#     Edge 15, Type (0, 1), BuildingBlock: KIFKEQ_clean_linker_1, # of connection points: 2
#     Edge 16, Type (0, 1), BuildingBlock: KIFKEQ_clean_linker_1, # of connection points: 2
#     Edge 17, Type (0, 1), BuildingBlock: KIFKEQ_clean_linker_1, # of connection points: 2
#     Edge 18, Type (0, 1), BuildingBlock: KIFKEQ_clean_linker_1, # of connection points: 2
#     Edge 19, Type (0, 1), BuildingBlock: KIFKEQ_clean_linker_1, # of connection points: 2
#     Edge 20, Type (0, 1), BuildingBlock: KIFKEQ_clean_linker_1, # of connection points: 2
#     Edge 21, Type (0, 1), BuildingBlock: KIFKEQ_clean_linker_1, # of connection points: 2
#     Edge 22, Type (0, 1), BuildingBlock: KIFKEQ_clean_linker_1, # of connection points: 2
#     Edge 23, Type (0, 1), BuildingBlock: KIFKEQ_clean_linker_1, # of connection points: 2
#     Edge 24, Type (0, 1), BuildingBlock: KIFKEQ_clean_linker_1, # of connection points: 2
#     Edge 25, Type (0, 1), BuildingBlock: KIFKEQ_clean_linker_1, # of connection points: 2
#     Edge 26, Type (0, 1), BuildingBlock: KIFKEQ_clean_linker_1, # of connection points: 2
# Relax obj value: 0.070
# Max RMSD: 0.140
# Mean RMSD: 0.087
data_MOF--net-anh--node1-CUKXOW_clean_sbu_0--node2-BETDAH_clean_linker_0--edge1-KIFKEQ_clean_linker_1
_symmetry_space_group_name_H-M    P1
_symmetry_Int_Tables_number       1
_symmetry_cell_setting            triclinic
loop_
_symmetry_equiv_pos_as_xyz
'x, y, z'
_cell_length_a     29.996646
_cell_length_b     29.17047
_cell_length_c     48.99498
_cell_angle_alpha  98.324388
_cell_angle_beta   92.940048
_cell_angle_gamma 113.89368
loop_
_atom_site_label
_atom_site_type_symbol
_atom_site_fract_x
_atom_site_fract_y
_atom_site_fract_z
_atom_type_partial_charge
Tb0 Tb 0.08139 0.56635 0.15637 0.0
C1 C 0.05209 0.52179 0.21114 0.0
Tb2 Tb 1.01502 0.44795 0.15252 0.0
O3 O 0.02093 0.59188 0.15609 0.0
O4 O 1.00612 0.51674 0.15394 0.0
O5 O 0.08325 0.55888 0.19982 0.0
C6 C 0.93575 0.36168 0.15149 0.0
O7 O 1.01864 0.47848 0.19634 0.0
C8 C 0.11097 0.46777 0.15254 0.0
C9 C 0.04982 0.49038 0.09827 0.0
O10 O 0.97484 0.37928 0.16942 0.0
O11 O 0.94185 0.39207 0.13369 0.0
O12 O 0.07555 0.42241 0.1505 0.0
O13 O 0.08987 0.49769 0.15467 0.0
O14 O 1.01588 0.45406 0.10889 0.0
O15 O 0.08241 0.53404 0.11347 0.0
C16 C 0.16014 0.65482 0.16394 0.0
O17 O 0.12696 0.63707 0.14236 0.0
O18 O 0.14889 0.62278 0.18095 0.0
C19 C 0.98528 0.54686 0.15426 0.0
Tb20 Tb 0.55079 0.04246 0.50745 0.0
C21 C 0.59552 0.07005 0.45304 0.0
Tb22 Tb 0.65694 0.11559 0.51329 0.0
O23 O 0.5274 0.09805 0.49352 0.0
O24 O 0.59101 0.12232 0.52136 0.0
O25 O 0.56018 0.03549 0.46369 0.0
C26 C 0.74205 0.19266 0.51011 0.0
O27 O 0.63399 0.10731 0.46888 0.0
C28 C 0.64098 0.02071 0.51473 0.0
C29 C 0.61205 0.08875 0.56766 0.0
O30 O 0.73456 0.14516 0.50716 0.0
O31 O 0.70187 0.19694 0.51532 0.0
O32 O 0.67858 0.05979 0.52854 0.0
O33 O 0.61666 0.03597 0.49945 0.0
O34 O 0.64728 0.12383 0.55714 0.0
O35 O 0.57367 0.05126 0.55183 0.0
C36 C 0.46859 0.95998 0.50777 0.0
O37 O 0.47197 0.00626 0.51115 0.0
O38 O 0.51116 0.96038 0.50421 0.0
C39 C 0.56563 0.13735 0.50666 0.0
Tb40 Tb 0.51317 0.59322 0.83277 0.0
C41 C 0.56896 0.60415 0.89026 0.0
Tb42 Tb 0.62071 0.61843 0.83496 0.0
O43 O 0.49885 0.51947 0.84474 0.0
O44 O 0.55565 0.55187 0.8214 0.0
O45 O 0.53056 0.60793 0.87777 0.0
C46 C 0.70559 0.6098 0.83677 0.0
O47 O 0.60546 0.60212 0.87661 0.0
C48 C 0.60079 0.69755 0.83336 0.0
C49 C 0.56481 0.61077 0.77805 0.0
O50 O 0.69665 0.64282 0.85369 0.0
O51 O 0.66703 0.58209 0.81921 0.0
O52 O 0.63969 0.69381 0.82486 0.0
O53 O 0.57855 0.66094 0.84568 0.0
O54 O 0.60287 0.60658 0.79041 0.0
O55 O 0.5284 0.61292 0.79167 0.0
C56 C 0.41972 0.57792 0.82263 0.0
O57 O 0.44103 0.55299 0.80886 0.0
O58 O 0.45127 0.6124 0.84232 0.0
C59 C 0.53596 0.51547 0.83408 0.0
H60 H 0.47134 0.96675 0.25169 0.0
H61 H 0.59083 0.09893 0.23424 0.0
H62 H 0.46759 0.01048 0.17183 0.0
C63 C 0.48825 0.99219 0.23746 0.0
C64 C 0.46403 0.9832 0.21068 0.0
C65 C 0.5338 0.03388 0.24627 0.0
C66 C 0.55577 0.06659 0.22765 0.0
C67 C 0.53186 0.05757 0.20061 0.0
C68 C 0.48602 0.01647 0.1925 0.0
N69 N 0.55204 0.08949 0.18109 0.0
C70 C 0.60186 0.11873 0.18124 0.0
H71 H 0.56017 0.4851 0.58001 0.0
H72 H 0.57633 0.62842 0.55917 0.0
H73 H 0.59429 0.51665 0.49849 0.0
C74 C 0.56741 0.51019 0.56492 0.0
C75 C 0.57782 0.49449 0.53842 0.0
C76 C 0.56729 0.55841 0.57259 0.0
C77 C 0.57645 0.59124 0.55321 0.0
C78 C 0.58531 0.57586 0.52622 0.0
C79 C 0.58609 0.52763 0.51905 0.0
N80 N 0.59411 0.608 0.50594 0.0
C81 C 0.59657 0.65741 0.51053 0.0
H82 H 0.96683 0.49429 0.90534 0.0
H83 H 0.04092 0.40255 0.87394 0.0
H84 H 0.94334 0.4304 0.81814 0.0
C85 C 0.97381 0.47137 0.88806 0.0
C86 C 0.95083 0.46506 0.86128 0.0
C87 C 1.00578 0.44848 0.89291 0.0
C88 C 1.01562 0.41971 0.87051 0.0
C89 C 0.99347 0.41387 0.84349 0.0
C90 C 0.96036 0.43546 0.83906 0.0
N91 N 1.00741 0.39015 0.82033 0.0
C92 C 0.05677 0.40714 0.81704 0.0
H93 H 0.16878 0.64858 0.41937 0.0
H94 H 0.07409 0.49485 0.42649 0.0
H95 H 0.1665 0.59984 0.4982 0.0
C96 C 0.15398 0.61951 0.43201 0.0
C97 C 0.17138 0.63061 0.46038 0.0
C98 C 0.1192 0.57061 0.41946 0.0
C99 C 0.10027 0.53297 0.43595 0.0
C100 C 0.118 0.54383 0.46437 0.0
C101 C 0.15337 0.59222 0.47628 0.0
N102 N 0.10334 0.50623 0.48132 0.0
C103 C 0.05617 0.46838 0.47875 0.0
H104 H 0.60297 0.20281 0.76878 0.0
H105 H 0.57302 0.05133 0.78232 0.0
H106 H 0.55117 0.15744 0.84508 0.0
C107 C 0.59254 0.17478 0.7823 0.0
C108 C 0.57806 0.18648 0.80821 0.0
C109 C 0.59026 0.12607 0.77275 0.0
C110 C 0.57499 0.08899 0.7898 0.0
C111 C 0.56158 0.10052 0.81621 0.0
C112 C 0.56243 0.14895 0.82499 0.0
N113 N 0.54597 0.06421 0.83417 0.0
C114 C 0.55045 0.01805 0.83033 0.0
H115 H 0.65524 0.53758 0.08257 0.0
H116 H 0.51444 0.53571 0.09779 0.0
H117 H 0.60184 0.50879 0.161 0.0
C118 C 0.62707 0.53291 0.09627 0.0
C119 C 0.63442 0.52211 0.12276 0.0
C120 C 0.58443 0.53844 0.08718 0.0
C121 C 0.54721 0.53145 0.10469 0.0
C122 C 0.55286 0.52066 0.13139 0.0
C123 C 0.59706 0.51681 0.14042 0.0
N124 N 0.51558 0.51424 0.14973 0.0
C125 C 0.46835 0.51313 0.14409 0.0
H126 H 0.14965 0.39821 0.14467 0.0
H127 H 0.19378 0.56041 0.15541 0.0
H128 H 0.23384 0.41015 0.14131 0.0
H129 H 0.27979 0.57307 0.15283 0.0
H130 H 0.42735 0.5732 0.12431 0.0
H131 H 0.34257 0.56516 0.12595 0.0
H132 H 0.30979 0.43519 0.16652 0.0
H133 H 0.39341 0.44283 0.1641 0.0
C134 C 0.1775 0.43678 0.14652 0.0
C135 C 0.1643 0.47825 0.15051 0.0
C136 C 0.22646 0.44377 0.1448 0.0
C137 C 0.26499 0.49276 0.14716 0.0
C138 C 0.25176 0.53458 0.15076 0.0
C139 C 0.20224 0.52744 0.15243 0.0
C140 C 0.40172 0.54265 0.13331 0.0
C141 C 0.41717 0.50818 0.14371 0.0
C142 C 0.35298 0.53823 0.13453 0.0
C143 C 0.31805 0.49915 0.14619 0.0
C144 C 0.33431 0.46515 0.15674 0.0
C145 C 0.38273 0.46958 0.15548 0.0
H146 H 0.75925 0.29207 0.51206 0.0
H147 H 0.8265 0.18636 0.49719 0.0
H148 H 0.83343 0.36026 0.50191 0.0
H149 H 0.90103 0.25457 0.48759 0.0
H150 H 1.00945 0.37551 0.44635 0.0
H151 H 0.93058 0.30857 0.45277 0.0
H152 H 0.91826 0.41017 0.52261 0.0
H153 H 0.99632 0.47687 0.51561 0.0
C154 C 0.79011 0.28363 0.50683 0.0
C155 C 0.78747 0.23423 0.50547 0.0
C156 C 0.83251 0.32257 0.50105 0.0
C157 C 0.87293 0.31266 0.49382 0.0
C158 C 0.87018 0.26315 0.49263 0.0
C159 C 0.82778 0.22426 0.4984 0.0
C160 C 0.98921 0.38335 0.46273 0.0
C161 C 1.00809 0.43073 0.48047 0.0
C162 C 0.94449 0.34517 0.46658 0.0
C163 C 0.91841 0.35408 0.48831 0.0
C164 C 0.93715 0.40234 0.50552 0.0
C165 C 0.98175 0.44038 0.50161 0.0
H166 H 0.53025 0.72192 0.85743 0.0
H167 H 0.64618 0.77385 0.80549 0.0
H168 H 0.51636 0.79896 0.85594 0.0
H169 H 0.63181 0.84952 0.80338 0.0
H170 H 0.63497 0.00649 0.83229 0.0
H171 H 0.645 0.92755 0.83297 0.0
H172 H 0.48731 0.84381 0.82618 0.0
H173 H 0.47786 0.92355 0.82617 0.0
C174 C 0.55246 0.7496 0.84557 0.0
C175 C 0.58964 0.74221 0.83186 0.0
C176 C 0.54442 0.79359 0.84457 0.0
C177 C 0.57335 0.83089 0.82977 0.0
C178 C 0.60958 0.8224 0.81551 0.0
C179 C 0.61765 0.77878 0.81659 0.0
C180 C 0.60259 0.97104 0.83075 0.0
C181 C 0.55573 0.97066 0.82896 0.0
C182 C 0.60818 0.92575 0.83104 0.0
C183 C 0.56692 0.87904 0.82952 0.0
C184 C 0.51989 0.879 0.82767 0.0
C185 C 0.51439 0.92446 0.8274 0.0
H186 H 0.90074 0.4561 0.13602 0.0
H187 H 0.94729 0.6158 0.16852 0.0
H188 H 0.81473 0.44526 0.13092 0.0
H189 H 0.86232 0.60529 0.16369 0.0
H190 H 0.70046 0.56823 0.17082 0.0
H191 H 0.78227 0.56979 0.18057 0.0
H192 H 0.75886 0.46827 0.10268 0.0
H193 H 0.67749 0.46684 0.09306 0.0
C194 C 0.89278 0.48874 0.14245 0.0
C195 C 0.9315 0.5368 0.1528 0.0
C196 C 0.84326 0.48271 0.13934 0.0
C197 C 0.83071 0.52437 0.14692 0.0
C198 C 0.86962 0.57197 0.1579 0.0
C199 C 0.91881 0.57807 0.16055 0.0
C200 C 0.71234 0.54548 0.15601 0.0
C201 C 0.68182 0.51751 0.13108 0.0
C202 C 0.75973 0.54675 0.16144 0.0
C203 C 0.77815 0.51943 0.14238 0.0
C204 C 0.74656 0.48964 0.11807 0.0
C205 C 0.69964 0.48902 0.11246 0.0
H206 H 0.46026 0.86324 0.49927 0.0
H207 H 0.37559 0.95237 0.51236 0.0
H208 H 0.38542 0.78525 0.4923 0.0
H209 H 0.30003 0.87373 0.50608 0.0
H210 H 0.18137 0.7246 0.45129 0.0
H211 H 0.25171 0.80605 0.46723 0.0
H212 H 0.31951 0.73243 0.51479 0.0
H213 H 0.25087 0.65074 0.49756 0.0
C214 C 0.42554 0.86602 0.50108 0.0
C215 C 0.42342 0.91357 0.50617 0.0
C216 C 0.38267 0.82134 0.49732 0.0
C217 C 0.33678 0.82332 0.49871 0.0
C218 C 0.33484 0.87107 0.50464 0.0
C219 C 0.37794 0.91595 0.50835 0.0
C220 C 0.21133 0.72588 0.46515 0.0
C221 C 0.21083 0.6811 0.47284 0.0
C222 C 0.25127 0.77265 0.47461 0.0
C223 C 0.29134 0.77554 0.49207 0.0
C224 C 0.28952 0.73125 0.50099 0.0
C225 C 0.24986 0.6845 0.49136 0.0
H226 H 0.59181 0.486 0.7993 0.0
H227 H 0.50583 0.4438 0.86684 0.0
H228 H 0.60512 0.40828 0.79578 0.0
H229 H 0.52054 0.36709 0.86426 0.0
H230 H 0.50278 0.20563 0.82812 0.0
H231 H 0.496 0.2868 0.83628 0.0
H232 H 0.64353 0.36268 0.81548 0.0
H233 H 0.64927 0.28087 0.80636 0.0
C234 C 0.57652 0.46046 0.81372 0.0
C235 C 0.54757 0.47069 0.83322 0.0
C236 C 0.58428 0.41593 0.81183 0.0
C237 C 0.56368 0.38087 0.82963 0.0
C238 C 0.5361 0.39235 0.84977 0.0
C239 C 0.5279 0.43653 0.8514 0.0
C240 C 0.534 0.23982 0.82573 0.0
C241 C 0.57647 0.23685 0.81653 0.0
C242 C 0.53023 0.28654 0.83045 0.0
C243 C 0.56913 0.33166 0.82642 0.0
C244 C 0.61238 0.32879 0.81823 0.0
C245 C 0.61587 0.28195 0.81319 0.0
H246 H 0.57794 0.93477 0.47843 0.0
H247 H 0.68348 0.98496 0.55167 0.0
H248 H 0.56531 0.84651 0.47864 0.0
H249 H 0.67069 0.89705 0.5522 0.0
H250 H 0.67937 0.74369 0.52551 0.0
H251 H 0.68852 0.83127 0.52699 0.0
H252 H 0.53238 0.77538 0.50274 0.0
H253 H 0.52392 0.68766 0.50076 0.0
C254 C 0.59796 0.92683 0.49478 0.0
C255 C 0.63161 0.96678 0.51507 0.0
C256 C 0.5907 0.8762 0.49496 0.0
C257 C 0.61711 0.86437 0.51539 0.0
C258 C 0.65029 0.90455 0.53586 0.0
C259 C 0.6575 0.95502 0.53565 0.0
C260 C 0.64707 0.75038 0.52073 0.0
C261 C 0.60098 0.7093 0.51316 0.0
C262 C 0.65216 0.80053 0.52167 0.0
C263 C 0.61118 0.81072 0.51501 0.0
C264 C 0.56486 0.76915 0.50767 0.0
C265 C 0.55986 0.71895 0.50675 0.0
H266 H 0.73232 0.55445 0.79739 0.0
H267 H 0.77695 0.64181 0.88082 0.0
H268 H 0.79766 0.52578 0.80276 0.0
H269 H 0.84238 0.61257 0.88632 0.0
H270 H 0.88317 0.47487 0.89409 0.0
H271 H 0.83197 0.52026 0.88787 0.0
H272 H 0.89195 0.55768 0.8117 0.0
H273 H 0.94484 0.51373 0.81833 0.0
C274 C 0.75682 0.56826 0.81668 0.0
C275 C 0.7497 0.59997 0.83879 0.0
C276 C 0.79425 0.55206 0.81968 0.0
C277 C 0.82465 0.56679 0.84499 0.0
C278 C 0.81904 0.60053 0.86668 0.0
C279 C 0.78195 0.61739 0.86351 0.0
C280 C 0.88613 0.49344 0.87623 0.0
C281 C 0.91818 0.49079 0.85673 0.0
C282 C 0.8569 0.51951 0.87275 0.0
C283 C 0.85859 0.54285 0.8495 0.0
C284 C 0.89017 0.53994 0.82981 0.0
C285 C 0.91996 0.51438 0.83348 0.0
H286 H 0.22447 0.69679 0.21073 0.0
H287 H 0.19279 0.72387 0.12912 0.0
H288 H 0.29557 0.77873 0.22053 0.0
H289 H 0.26451 0.80658 0.13899 0.0
H290 H 0.43353 0.91705 0.1608 0.0
H291 H 0.35759 0.83938 0.14797 0.0
H292 H 0.31092 0.87076 0.22776 0.0
H293 H 0.38625 0.94859 0.24046 0.0
C294 C 0.23276 0.7204 0.1949 0.0
C295 C 0.20323 0.70421 0.1692 0.0
C296 C 0.27326 0.76743 0.20058 0.0
C297 C 0.28528 0.79916 0.18061 0.0
C298 C 0.25606 0.78274 0.15471 0.0
C299 C 0.21509 0.73565 0.1491 0.0
C300 C 0.40663 0.90785 0.17538 0.0
C301 C 0.41615 0.9386 0.20179 0.0
C302 C 0.36321 0.8634 0.16803 0.0
C303 C 0.32871 0.84883 0.187 0.0
C304 C 0.33735 0.88063 0.21293 0.0
C305 C 0.38051 0.92509 0.22022 0.0
H306 H 0.50608 0.17229 0.48092 0.0
H307 H 0.63733 0.22325 0.53857 0.0
H308 H 0.51178 0.25893 0.48711 0.0
H309 H 0.64547 0.31062 0.54335 0.0
H310 H 0.61489 0.44852 0.57277 0.0
H311 H 0.61302 0.36407 0.56397 0.0
H312 H 0.55007 0.34207 0.47914 0.0
H313 H 0.54824 0.42566 0.48878 0.0
C314 C 0.53671 0.20227 0.49458 0.0
C315 C 0.57136 0.19087 0.50918 0.0
C316 C 0.54032 0.25226 0.49796 0.0
C317 C 0.57908 0.29247 0.51581 0.0
C318 C 0.61448 0.28095 0.52983 0.0
C319 C 0.61033 0.2308 0.52679 0.0
C320 C 0.59992 0.42558 0.5523 0.0
C321 C 0.5808 0.44402 0.53169 0.0
C322 C 0.59972 0.37708 0.54704 0.0
C323 C 0.58131 0.34547 0.52079 0.0
C324 C 0.56376 0.36458 0.49981 0.0
C325 C 0.56335 0.41305 0.50521 0.0
H326 H 0.36474 0.60841 0.85753 0.0
H327 H 0.35477 0.51103 0.78004 0.0
H328 H 0.27493 0.57027 0.8549 0.0
H329 H 0.26566 0.47254 0.77757 0.0
H330 H 0.10242 0.43685 0.77267 0.0
H331 H 0.19076 0.48649 0.77248 0.0
H332 H 0.21508 0.48489 0.86003 0.0
H333 H 0.12688 0.43605 0.86005 0.0
C334 C 0.34328 0.57961 0.83972 0.0
C335 C 0.3664 0.56234 0.81908 0.0
C336 C 0.29205 0.55747 0.83832 0.0
C337 C 0.26337 0.518 0.81619 0.0
C338 C 0.28667 0.50304 0.79478 0.0
C339 C 0.3377 0.52495 0.79625 0.0
C340 C 0.12701 0.44691 0.7917 0.0
C341 C 0.1087 0.43241 0.81627 0.0
C342 C 0.17732 0.47536 0.79167 0.0
C343 C 0.20976 0.48986 0.8163 0.0
C344 C 0.19093 0.47507 0.84087 0.0
C345 C 0.1407 0.44658 0.84083 0.0
H346 H 0.84969 0.32628 0.11758 0.0
H347 H 0.9163 0.30251 0.19134 0.0
H348 H 0.76984 0.26318 0.12482 0.0
H349 H 0.83645 0.23884 0.19848 0.0
H350 H 0.67533 0.18569 0.22019 0.0
H351 H 0.75879 0.24039 0.21202 0.0
H352 H 0.72333 0.17217 0.12485 0.0
H353 H 0.64002 0.11837 0.13318 0.0
C354 C 0.84733 0.30683 0.13505 0.0
C355 C 0.88903 0.31915 0.1539 0.0
C356 C 0.80166 0.27063 0.13919 0.0
C357 C 0.7968 0.24618 0.16231 0.0
C358 C 0.83893 0.2575 0.18068 0.0
C359 C 0.88465 0.29359 0.17648 0.0
C360 C 0.68587 0.18234 0.19942 0.0
C361 C 0.65191 0.14833 0.17725 0.0
C362 C 0.73351 0.21329 0.19472 0.0
C363 C 0.74759 0.21068 0.16774 0.0
C364 C 0.71345 0.17552 0.14576 0.0
C365 C 0.66599 0.14461 0.15051 0.0
H366 H 0.98567 0.411 0.05905 0.0
H367 H 0.1192 0.54937 0.06885 0.0
H368 H 0.98636 0.3993 0.00897 0.0
H369 H 0.12035 0.53689 0.0187 0.0
H370 H 0.05168 0.53618 0.93075 0.0
H371 H 0.07064 0.54401 0.98053 0.0
H372 H 0.02776 0.38144 0.96994 0.0
H373 H 1.00732 0.3736 0.91998 0.0
C374 C 1.01554 0.4386 0.05059 0.0
C375 C 0.05197 0.48152 0.06797 0.0
C376 C 1.01621 0.43157 0.02185 0.0
C377 C 0.05341 0.4672 0.00985 0.0
C378 C 0.09087 0.5091 0.02731 0.0
C379 C 0.09014 0.51623 0.05605 0.0
C380 C 0.04713 0.50228 0.93904 0.0
C381 C 0.02733 0.4542 0.92169 0.0
C382 C 0.05837 0.50677 0.96752 0.0
C383 C 0.05009 0.46322 0.97923 0.0
C384 C 0.03373 0.41555 0.96155 0.0
C385 C 0.02254 0.4111 0.93296 0.0
H386 H 0.65446 0.1388 0.42312 0.0
H387 H 0.52902 0.99335 0.41359 0.0
H388 H 0.64818 0.13258 0.37263 0.0
H389 H 0.52265 0.98755 0.36344 0.0
H390 H 0.54681 0.96555 0.27452 0.0
H391 H 0.56777 0.97609 0.32446 0.0
H392 H 0.59093 0.13395 0.33416 0.0
H393 H 0.57003 0.1233 0.28396 0.0
C394 C 0.62565 0.10547 0.41031 0.0
C395 C 0.59226 0.06652 0.42244 0.0
C396 C 0.62198 0.10206 0.38139 0.0
C397 C 0.58518 0.05942 0.36402 0.0
C398 C 0.55198 0.0205 0.3762 0.0
C399 C 0.55541 0.02404 0.40502 0.0
C400 C 0.55711 1.0027 0.28728 0.0
C401 C 0.55619 0.04344 0.27543 0.0
C402 C 0.56887 0.00868 0.31588 0.0
C403 C 0.58004 0.05557 0.33333 0.0
C404 C 0.58254 0.09736 0.32126 0.0
C405 C 0.57072 0.09134 0.29253 0.0
H406 H 0.48485 0.59271 0.74135 0.0
H407 H 0.64062 0.63175 0.74666 0.0
H408 H 0.48138 0.58789 0.6909 0.0
H409 H 0.63705 0.62695 0.69655 0.0
H410 H 0.62443 0.64711 0.60798 0.0
H411 H 0.62095 0.66796 0.65782 0.0
H412 H 0.4921 0.52681 0.65244 0.0
H413 H 0.49539 0.50628 0.60265 0.0
C414 C 0.51841 0.60091 0.73183 0.0
C415 C 0.56293 0.6122 0.74796 0.0
C416 C 0.51637 0.59798 0.70297 0.0
C417 C 0.55894 0.60708 0.6898 0.0
C418 C 0.60373 0.62033 0.70612 0.0
C419 C 0.60566 0.62262 0.73482 0.0
C420 C 0.59469 0.62123 0.61736 0.0
C421 C 0.5604 0.57492 0.60155 0.0
C422 C 0.59292 0.63294 0.64588 0.0
C423 C 0.5565 0.59881 0.65904 0.0
C424 C 0.52041 0.554 0.64286 0.0
C425 C 0.52249 0.54207 0.61442 0.0
H426 H 0.57199 0.01043 0.59568 0.0
H427 H 0.65781 0.17314 0.60824 0.0
H428 H 0.57289 0.01466 0.64567 0.0
H429 H 0.65645 0.17821 0.65821 0.0
H430 H 0.67246 0.17485 0.74877 0.0
H431 H 0.68313 0.16226 0.6996 0.0
H432 H 0.53729 0.03944 0.68237 0.0
H433 H 0.5284 0.05053 0.73169 0.0
C434 C 0.59083 0.04721 0.6092 0.0
C435 C 0.61459 0.09152 0.59809 0.0
C436 C 0.59115 0.04974 0.63791 0.0
C437 C 0.61437 0.09683 0.65624 0.0
C438 C 0.6389 0.14106 0.64497 0.0
C439 C 0.63941 0.13832 0.61625 0.0
C440 C 0.64331 0.14447 0.7344 0.0
C441 C 0.59972 0.11351 0.7439 0.0
C442 C 0.64906 0.13758 0.70618 0.0
C443 C 0.61085 0.10026 0.68672 0.0
C444 C 0.56794 0.06808 0.69658 0.0
C445 C 0.56265 0.07439 0.72488 0.0
H446 H 0.6436 0.60075 0.92303 0.0
H447 H 0.49757 0.595 0.925 0.0
H448 H 0.64519 0.58735 0.97073 0.0
H449 H 0.49962 0.58238 0.97328 0.0
H450 H 0.50376 0.49856 0.04746 0.0
H451 H 0.49879 0.51775 0.00068 0.0
H452 H 0.64955 0.62951 0.01754 0.0
H453 H 0.65449 0.61025 0.064 0.0
C454 C 0.61191 0.59712 0.93369 0.0
C455 C 0.57046 0.59906 0.92005 0.0
C456 C 0.61296 0.58969 0.96121 0.0
C457 C 0.57261 0.58394 0.97598 0.0
C458 C 0.53118 0.58623 0.96246 0.0
C459 C 0.53017 0.59385 0.93484 0.0
C460 C 0.53561 0.52765 0.04125 0.0
C461 C 0.57973 0.55234 0.05936 0.0
C462 C 0.53277 0.53872 0.01445 0.0
C463 C 0.57396 0.57479 0.00517 0.0
C464 C 0.61744 0.60069 0.0237 0.0
C465 C 0.62029 0.58962 0.05038 0.0
H466 H 0.11076 0.60698 0.24867 0.0
H467 H 1.003 0.45191 0.24337 0.0
H468 H 0.123 0.61635 0.29889 0.0
H469 H 1.01609 0.46129 0.29389 0.0
H470 H 0.02747 0.51972 0.38952 0.0
H471 H 1.00699 0.50693 0.339 0.0
H472 H 0.16136 0.58166 0.33035 0.0
H473 H 0.18151 0.59442 0.3803 0.0
C474 C 0.08952 0.57487 0.25817 0.0
C475 C 0.05625 0.5285 0.24188 0.0
C476 C 0.09674 0.5802 0.28701 0.0
C477 C 0.07106 0.5393 0.30034 0.0
C478 C 0.03633 0.49353 0.28423 0.0
C479 C 0.02901 0.48815 0.25527 0.0
C480 C 0.05686 0.53294 0.37669 0.0
C481 C 0.10599 0.55887 0.38886 0.0
C482 C 0.0452 0.52567 0.34784 0.0
C483 C 0.08253 0.54417 0.33076 0.0
C484 C 0.13165 0.56827 0.34297 0.0
C485 C 0.14321 0.57549 0.37161 0.0
loop_
_geom_bond_atom_site_label_1
_geom_bond_atom_site_label_2
_geom_bond_distance
_geom_bond_site_symmetry_2
_ccdc_geom_bond_type
Tb0 O3 2.453 1_455 S
Tb0 O4 2.596 1_455 S
Tb0 O5 2.374 . S
Tb0 O13 2.343 . S
Tb0 O15 2.353 . S
Tb0 O17 2.427 . S
Tb0 O18 2.513 . S
C1 O5 1.251 . S
C1 O7 1.263 . S
Tb2 O4 2.343 1_455 S
Tb2 O7 2.353 . S
Tb2 O10 2.427 1_455 S
Tb2 O11 2.513 1_455 S
Tb2 O12 2.453 . S
Tb2 O13 2.596 . S
Tb2 O14 2.374 . S
O3 Tb0 2.453 1_655 S
O3 C19 1.245 . S
O4 Tb0 2.596 1_655 S
O4 Tb2 2.343 1_655 S
O4 C19 1.259 . S
O5 Tb0 2.374 . S
O5 C1 1.251 . S
C6 O10 1.275 . S
C6 O11 1.246 . S
O7 C1 1.263 . S
O7 Tb2 2.353 . S
C8 O12 1.245 . S
C8 O13 1.259 . S
C9 O14 1.250 . S
C9 O15 1.263 . S
O10 Tb2 2.427 1_655 S
O10 C6 1.275 . S
O11 Tb2 2.513 1_655 S
O11 C6 1.246 . S
O12 Tb2 2.453 . S
O12 C8 1.245 . S
O13 Tb0 2.343 . S
O13 Tb2 2.596 . S
O13 C8 1.259 . S
O14 Tb2 2.374 . S
O14 C9 1.250 . S
O15 Tb0 2.353 . S
O15 C9 1.263 . S
C16 O17 1.275 . S
C16 O18 1.246 . S
O17 Tb0 2.427 . S
O17 C16 1.275 . S
O18 Tb0 2.513 . S
O18 C16 1.246 . S
C19 O3 1.245 . S
C19 O4 1.259 . S
Tb20 O23 2.453 . S
Tb20 O24 2.596 . S
Tb20 O25 2.374 . S
Tb20 O33 2.343 . S
Tb20 O35 2.353 . S
Tb20 O37 2.427 1_545 S
Tb20 O38 2.513 1_545 S
C21 O25 1.251 . S
C21 O27 1.263 . S
Tb22 O24 2.343 . S
Tb22 O27 2.353 . S
Tb22 O30 2.427 . S
Tb22 O31 2.513 . S
Tb22 O32 2.453 1_545 S
Tb22 O33 2.596 . S
Tb22 O34 2.374 . S
O23 Tb20 2.453 . S
O23 C39 1.245 . S
O24 Tb20 2.596 . S
O24 Tb22 2.343 . S
O24 C39 1.259 . S
O25 Tb20 2.374 . S
O25 C21 1.251 . S
C26 O30 1.275 . S
C26 O31 1.246 . S
O27 C21 1.263 . S
O27 Tb22 2.353 . S
C28 O32 1.245 . S
C28 O33 1.259 1_565 S
C29 O34 1.250 . S
C29 O35 1.263 . S
O30 Tb22 2.427 . S
O30 C26 1.275 . S
O31 Tb22 2.513 . S
O31 C26 1.246 . S
O32 Tb22 2.453 1_565 S
O32 C28 1.245 . S
O33 Tb20 2.343 . S
O33 Tb22 2.596 . S
O33 C28 1.259 1_545 S
O34 Tb22 2.374 . S
O34 C29 1.250 . S
O35 Tb20 2.353 . S
O35 C29 1.263 . S
C36 O37 1.275 . S
C36 O38 1.246 . S
O37 Tb20 2.427 1_565 S
O37 C36 1.275 . S
O38 Tb20 2.513 1_565 S
O38 C36 1.246 . S
C39 O23 1.245 . S
C39 O24 1.259 . S
Tb40 O43 2.453 . S
Tb40 O44 2.596 . S
Tb40 O45 2.374 . S
Tb40 O53 2.343 . S
Tb40 O55 2.353 . S
Tb40 O57 2.427 . S
Tb40 O58 2.513 . S
C41 O45 1.251 . S
C41 O47 1.263 . S
Tb42 O44 2.343 . S
Tb42 O47 2.353 . S
Tb42 O50 2.427 . S
Tb42 O51 2.513 . S
Tb42 O52 2.453 . S
Tb42 O53 2.596 . S
Tb42 O54 2.374 . S
O43 Tb40 2.453 . S
O43 C59 1.245 . S
O44 Tb40 2.596 . S
O44 Tb42 2.343 . S
O44 C59 1.259 . S
O45 Tb40 2.374 . S
O45 C41 1.251 . S
C46 O50 1.275 . S
C46 O51 1.246 . S
O47 C41 1.263 . S
O47 Tb42 2.353 . S
C48 O52 1.245 . S
C48 O53 1.259 . S
C49 O54 1.250 . S
C49 O55 1.263 . S
O50 Tb42 2.427 . S
O50 C46 1.275 . S
O51 Tb42 2.513 . S
O51 C46 1.246 . S
O52 Tb42 2.453 . S
O52 C48 1.245 . S
O53 Tb40 2.343 . S
O53 Tb42 2.596 . S
O53 C48 1.259 . S
O54 Tb42 2.374 . S
O54 C49 1.250 . S
O55 Tb40 2.353 . S
O55 C49 1.263 . S
C56 O57 1.275 . S
C56 O58 1.246 . S
O57 Tb40 2.427 . S
O57 C56 1.275 . S
O58 Tb40 2.513 . S
O58 C56 1.246 . S
C59 O43 1.245 . S
C59 O44 1.259 . S
H60 C63 0.929 . S
H61 C66 0.929 . S
H62 C68 0.930 . S
C63 H60 0.929 . S
C63 C64 1.398 . S
C63 C65 1.396 . S
C64 C63 1.398 . S
C64 C68 1.407 . S
C65 C63 1.396 . S
C65 C66 1.394 . S
C66 H61 0.929 . S
C66 C65 1.394 . S
C66 C67 1.382 . S
C67 C66 1.382 . S
C67 C68 1.392 . S
C67 N69 1.420 . S
C68 H62 0.930 . S
C68 C64 1.407 . S
C68 C67 1.392 . S
N69 C67 1.420 . S
N69 C70 1.244 . S
C70 N69 1.244 . S
H71 C74 0.929 . S
H72 C77 0.929 . S
H73 C79 0.930 . S
C74 H71 0.929 . S
C74 C75 1.398 . S
C74 C76 1.396 . S
C75 C74 1.398 . S
C75 C79 1.407 . S
C76 C74 1.396 . S
C76 C77 1.394 . S
C77 H72 0.929 . S
C77 C76 1.394 . S
C77 C78 1.382 . S
C78 C77 1.382 . S
C78 C79 1.392 . S
C78 N80 1.420 . S
C79 H73 0.930 . S
C79 C75 1.407 . S
C79 C78 1.392 . S
N80 C78 1.420 . S
N80 C81 1.244 . S
C81 N80 1.244 . S
H82 C85 0.929 . S
H83 C88 0.929 . S
H84 C90 0.930 . S
C85 H82 0.929 . S
C85 C86 1.398 . S
C85 C87 1.396 . S
C86 C85 1.398 . S
C86 C90 1.407 . S
C87 C85 1.396 . S
C87 C88 1.394 . S
C88 H83 0.929 . S
C88 C87 1.394 . S
C88 C89 1.382 . S
C89 C88 1.382 . S
C89 C90 1.392 . S
C89 N91 1.420 . S
C90 H84 0.930 . S
C90 C86 1.407 . S
C90 C89 1.392 . S
N91 C89 1.420 . S
N91 C92 1.244 . S
C92 N91 1.244 . S
H93 C96 0.929 . S
H94 C99 0.929 . S
H95 C101 0.930 . S
C96 H93 0.929 . S
C96 C97 1.398 . S
C96 C98 1.396 . S
C97 C96 1.398 . S
C97 C101 1.407 . S
C98 C96 1.396 . S
C98 C99 1.394 1_455 S
C99 H94 0.929 . S
C99 C98 1.394 1_655 S
C99 C100 1.382 . S
C100 C99 1.382 . S
C100 C101 1.392 1_655 S
C100 N102 1.420 . S
C101 H95 0.930 . S
C101 C97 1.407 . S
C101 C100 1.392 1_455 S
N102 C100 1.420 . S
N102 C103 1.244 . S
C103 N102 1.244 . S
H104 C107 0.929 . S
H105 C110 0.929 1_565 S
H106 C112 0.930 . S
C107 H104 0.929 . S
C107 C108 1.398 . S
C107 C109 1.396 . S
C108 C107 1.398 . S
C108 C112 1.407 . S
C109 C107 1.396 . S
C109 C110 1.394 . S
C110 H105 0.929 1_545 S
C110 C109 1.394 . S
C110 C111 1.382 . S
C111 C110 1.382 . S
C111 C112 1.392 . S
C111 N113 1.420 1_545 S
C112 H106 0.930 . S
C112 C108 1.407 . S
C112 C111 1.392 . S
N113 C111 1.420 1_565 S
N113 C114 1.244 . S
C114 N113 1.244 . S
H115 C118 0.929 . S
H116 C121 0.929 . S
H117 C123 0.930 . S
C118 H115 0.929 . S
C118 C119 1.398 . S
C118 C120 1.396 . S
C119 C118 1.398 . S
C119 C123 1.407 . S
C120 C118 1.396 . S
C120 C121 1.394 . S
C121 H116 0.929 . S
C121 C120 1.394 . S
C121 C122 1.382 . S
C122 C121 1.382 . S
C122 C123 1.392 . S
C122 N124 1.420 . S
C123 H117 0.930 . S
C123 C119 1.407 . S
C123 C122 1.392 . S
N124 C122 1.420 . S
N124 C125 1.244 . S
C125 N124 1.244 . S
H126 C134 0.950 . S
H127 C139 0.950 . S
H128 C136 0.950 . S
H129 C138 0.950 . S
H130 C140 0.950 . S
H131 C142 0.950 . S
H132 C144 0.950 . S
H133 C145 0.950 . S
C134 H126 0.950 . S
C134 C135 1.386 . S
C134 C136 1.391 . S
C135 C134 1.386 . S
C135 C139 1.393 . S
C136 H128 0.950 . S
C136 C134 1.391 . S
C136 C137 1.400 . S
C137 C136 1.400 . S
C137 C138 1.398 . S
C137 C143 1.491 . S
C138 H129 0.950 . S
C138 C137 1.398 . S
C138 C139 1.391 . S
C139 H127 0.950 . S
C139 C135 1.393 . S
C139 C138 1.391 . S
C140 H130 0.950 . S
C140 C141 1.386 . S
C140 C142 1.391 . S
C141 C140 1.386 . S
C141 C145 1.393 . S
C142 H131 0.950 . S
C142 C140 1.391 . S
C142 C143 1.400 . S
C143 C137 1.491 . S
C143 C142 1.400 . S
C143 C144 1.398 . S
C144 H132 0.950 . S
C144 C143 1.398 . S
C144 C145 1.391 . S
C145 H133 0.950 . S
C145 C141 1.393 . S
C145 C144 1.391 . S
H146 C154 0.950 . S
H147 C159 0.950 . S
H148 C156 0.950 . S
H149 C158 0.950 . S
H150 C160 0.950 . S
H151 C162 0.950 . S
H152 C164 0.950 . S
H153 C165 0.950 . S
C154 H146 0.950 . S
C154 C155 1.386 . S
C154 C156 1.391 . S
C155 C154 1.386 . S
C155 C159 1.393 . S
C156 H148 0.950 . S
C156 C154 1.391 . S
C156 C157 1.400 . S
C157 C156 1.400 . S
C157 C158 1.398 . S
C157 C163 1.491 . S
C158 H149 0.950 . S
C158 C157 1.398 . S
C158 C159 1.391 . S
C159 H147 0.950 . S
C159 C155 1.393 . S
C159 C158 1.391 . S
C160 H150 0.950 . S
C160 C161 1.386 . S
C160 C162 1.391 . S
C161 C160 1.386 . S
C161 C165 1.393 . S
C162 H151 0.950 . S
C162 C160 1.391 . S
C162 C163 1.400 . S
C163 C157 1.491 . S
C163 C162 1.400 . S
C163 C164 1.398 . S
C164 H152 0.950 . S
C164 C163 1.398 . S
C164 C165 1.391 . S
C165 H153 0.950 . S
C165 C161 1.393 . S
C165 C164 1.391 . S
H166 C174 0.950 . S
H167 C179 0.950 . S
H168 C176 0.950 . S
H169 C178 0.950 . S
H170 C180 0.950 . S
H171 C182 0.950 . S
H172 C184 0.950 . S
H173 C185 0.950 . S
C174 H166 0.950 . S
C174 C175 1.386 . S
C174 C176 1.391 . S
C175 C174 1.386 . S
C175 C179 1.393 . S
C176 H168 0.950 . S
C176 C174 1.391 . S
C176 C177 1.400 . S
C177 C176 1.400 . S
C177 C178 1.398 . S
C177 C183 1.491 . S
C178 H169 0.950 . S
C178 C177 1.398 . S
C178 C179 1.391 . S
C179 H167 0.950 . S
C179 C175 1.393 . S
C179 C178 1.391 . S
C180 H170 0.950 . S
C180 C181 1.386 . S
C180 C182 1.391 . S
C181 C180 1.386 . S
C181 C185 1.393 . S
C182 H171 0.950 . S
C182 C180 1.391 . S
C182 C183 1.400 . S
C183 C177 1.491 . S
C183 C182 1.400 . S
C183 C184 1.398 . S
C184 H172 0.950 . S
C184 C183 1.398 . S
C184 C185 1.391 . S
C185 H173 0.950 . S
C185 C181 1.393 . S
C185 C184 1.391 . S
H186 C194 0.950 . S
H187 C199 0.950 . S
H188 C196 0.950 . S
H189 C198 0.950 . S
H190 C200 0.950 . S
H191 C202 0.950 . S
H192 C204 0.950 . S
H193 C205 0.950 . S
C194 H186 0.950 . S
C194 C195 1.386 . S
C194 C196 1.391 . S
C195 C194 1.386 . S
C195 C199 1.393 . S
C196 H188 0.950 . S
C196 C194 1.391 . S
C196 C197 1.400 . S
C197 C196 1.400 . S
C197 C198 1.398 . S
C197 C203 1.491 . S
C198 H189 0.950 . S
C198 C197 1.398 . S
C198 C199 1.391 . S
C199 H187 0.950 . S
C199 C195 1.393 . S
C199 C198 1.391 . S
C200 H190 0.950 . S
C200 C201 1.386 . S
C200 C202 1.391 . S
C201 C200 1.386 . S
C201 C205 1.393 . S
C202 H191 0.950 . S
C202 C200 1.391 . S
C202 C203 1.400 . S
C203 C197 1.491 . S
C203 C202 1.400 . S
C203 C204 1.398 . S
C204 H192 0.950 . S
C204 C203 1.398 . S
C204 C205 1.391 . S
C205 H193 0.950 . S
C205 C201 1.393 . S
C205 C204 1.391 . S
H206 C214 0.950 . S
H207 C219 0.950 . S
H208 C216 0.950 . S
H209 C218 0.950 . S
H210 C220 0.950 . S
H211 C222 0.950 . S
H212 C224 0.950 . S
H213 C225 0.950 . S
C214 H206 0.950 . S
C214 C215 1.386 . S
C214 C216 1.391 . S
C215 C214 1.386 . S
C215 C219 1.393 . S
C216 H208 0.950 . S
C216 C214 1.391 . S
C216 C217 1.400 . S
C217 C216 1.400 . S
C217 C218 1.398 . S
C217 C223 1.491 . S
C218 H209 0.950 . S
C218 C217 1.398 . S
C218 C219 1.391 . S
C219 H207 0.950 . S
C219 C215 1.393 . S
C219 C218 1.391 . S
C220 H210 0.950 . S
C220 C221 1.386 . S
C220 C222 1.391 . S
C221 C220 1.386 . S
C221 C225 1.393 . S
C222 H211 0.950 . S
C222 C220 1.391 . S
C222 C223 1.400 . S
C223 C217 1.491 . S
C223 C222 1.400 . S
C223 C224 1.398 . S
C224 H212 0.950 . S
C224 C223 1.398 . S
C224 C225 1.391 . S
C225 H213 0.950 . S
C225 C221 1.393 . S
C225 C224 1.391 . S
H226 C234 0.950 . S
H227 C239 0.950 . S
H228 C236 0.950 . S
H229 C238 0.950 . S
H230 C240 0.950 . S
H231 C242 0.950 . S
H232 C244 0.950 . S
H233 C245 0.950 . S
C234 H226 0.950 . S
C234 C235 1.386 . S
C234 C236 1.391 . S
C235 C234 1.386 . S
C235 C239 1.393 . S
C236 H228 0.950 . S
C236 C234 1.391 . S
C236 C237 1.400 . S
C237 C236 1.400 . S
C237 C238 1.398 . S
C237 C243 1.491 . S
C238 H229 0.950 . S
C238 C237 1.398 . S
C238 C239 1.391 . S
C239 H227 0.950 . S
C239 C235 1.393 . S
C239 C238 1.391 . S
C240 H230 0.950 . S
C240 C241 1.386 . S
C240 C242 1.391 . S
C241 C240 1.386 . S
C241 C245 1.393 . S
C242 H231 0.950 . S
C242 C240 1.391 . S
C242 C243 1.400 . S
C243 C237 1.491 . S
C243 C242 1.400 . S
C243 C244 1.398 . S
C244 H232 0.950 . S
C244 C243 1.398 . S
C244 C245 1.391 . S
C245 H233 0.950 . S
C245 C241 1.393 . S
C245 C244 1.391 . S
H246 C254 0.950 . S
H247 C259 0.950 . S
H248 C256 0.950 . S
H249 C258 0.950 . S
H250 C260 0.950 . S
H251 C262 0.950 . S
H252 C264 0.950 . S
H253 C265 0.950 . S
C254 H246 0.950 . S
C254 C255 1.386 . S
C254 C256 1.391 . S
C255 C254 1.386 . S
C255 C259 1.393 . S
C256 H248 0.950 . S
C256 C254 1.391 . S
C256 C257 1.400 . S
C257 C256 1.400 . S
C257 C258 1.398 . S
C257 C263 1.491 . S
C258 H249 0.950 . S
C258 C257 1.398 . S
C258 C259 1.391 . S
C259 H247 0.950 . S
C259 C255 1.393 . S
C259 C258 1.391 . S
C260 H250 0.950 . S
C260 C261 1.386 . S
C260 C262 1.391 . S
C261 C260 1.386 . S
C261 C265 1.393 . S
C262 H251 0.950 . S
C262 C260 1.391 . S
C262 C263 1.400 . S
C263 C257 1.491 . S
C263 C262 1.400 . S
C263 C264 1.398 . S
C264 H252 0.950 . S
C264 C263 1.398 . S
C264 C265 1.391 . S
C265 H253 0.950 . S
C265 C261 1.393 . S
C265 C264 1.391 . S
H266 C274 0.950 . S
H267 C279 0.950 . S
H268 C276 0.950 . S
H269 C278 0.950 . S
H270 C280 0.950 . S
H271 C282 0.950 . S
H272 C284 0.950 . S
H273 C285 0.950 . S
C274 H266 0.950 . S
C274 C275 1.386 . S
C274 C276 1.391 . S
C275 C274 1.386 . S
C275 C279 1.393 . S
C276 H268 0.950 . S
C276 C274 1.391 . S
C276 C277 1.400 . S
C277 C276 1.400 . S
C277 C278 1.398 . S
C277 C283 1.491 . S
C278 H269 0.950 . S
C278 C277 1.398 . S
C278 C279 1.391 . S
C279 H267 0.950 . S
C279 C275 1.393 . S
C279 C278 1.391 . S
C280 H270 0.950 . S
C280 C281 1.386 . S
C280 C282 1.391 . S
C281 C280 1.386 . S
C281 C285 1.393 . S
C282 H271 0.950 . S
C282 C280 1.391 . S
C282 C283 1.400 . S
C283 C277 1.491 . S
C283 C282 1.400 . S
C283 C284 1.398 . S
C284 H272 0.950 . S
C284 C283 1.398 . S
C284 C285 1.391 . S
C285 H273 0.950 . S
C285 C281 1.393 . S
C285 C284 1.391 . S
H286 C294 0.950 . S
H287 C299 0.950 . S
H288 C296 0.950 . S
H289 C298 0.950 . S
H290 C300 0.950 . S
H291 C302 0.950 . S
H292 C304 0.950 . S
H293 C305 0.950 . S
C294 H286 0.950 . S
C294 C295 1.386 . S
C294 C296 1.391 . S
C295 C294 1.386 . S
C295 C299 1.393 . S
C296 H288 0.950 . S
C296 C294 1.391 . S
C296 C297 1.400 . S
C297 C296 1.400 . S
C297 C298 1.398 . S
C297 C303 1.491 . S
C298 H289 0.950 . S
C298 C297 1.398 . S
C298 C299 1.391 . S
C299 H287 0.950 . S
C299 C295 1.393 . S
C299 C298 1.391 . S
C300 H290 0.950 . S
C300 C301 1.386 . S
C300 C302 1.391 . S
C301 C300 1.386 . S
C301 C305 1.393 . S
C302 H291 0.950 . S
C302 C300 1.391 . S
C302 C303 1.400 . S
C303 C297 1.491 . S
C303 C302 1.400 . S
C303 C304 1.398 . S
C304 H292 0.950 . S
C304 C303 1.398 . S
C304 C305 1.391 . S
C305 H293 0.950 . S
C305 C301 1.393 . S
C305 C304 1.391 . S
H306 C314 0.950 . S
H307 C319 0.950 . S
H308 C316 0.950 . S
H309 C318 0.950 . S
H310 C320 0.950 . S
H311 C322 0.950 . S
H312 C324 0.950 . S
H313 C325 0.950 . S
C314 H306 0.950 . S
C314 C315 1.386 . S
C314 C316 1.391 . S
C315 C314 1.386 . S
C315 C319 1.393 . S
C316 H308 0.950 . S
C316 C314 1.391 . S
C316 C317 1.400 . S
C317 C316 1.400 . S
C317 C318 1.398 . S
C317 C323 1.491 . S
C318 H309 0.950 . S
C318 C317 1.398 . S
C318 C319 1.391 . S
C319 H307 0.950 . S
C319 C315 1.393 . S
C319 C318 1.391 . S
C320 H310 0.950 . S
C320 C321 1.386 . S
C320 C322 1.391 . S
C321 C320 1.386 . S
C321 C325 1.393 . S
C322 H311 0.950 . S
C322 C320 1.391 . S
C322 C323 1.400 . S
C323 C317 1.491 . S
C323 C322 1.400 . S
C323 C324 1.398 . S
C324 H312 0.950 . S
C324 C323 1.398 . S
C324 C325 1.391 . S
C325 H313 0.950 . S
C325 C321 1.393 . S
C325 C324 1.391 . S
H326 C334 0.950 . S
H327 C339 0.950 . S
H328 C336 0.950 . S
H329 C338 0.950 . S
H330 C340 0.950 . S
H331 C342 0.950 . S
H332 C344 0.950 . S
H333 C345 0.950 . S
C334 H326 0.950 . S
C334 C335 1.386 . S
C334 C336 1.391 . S
C335 C334 1.386 . S
C335 C339 1.393 . S
C336 H328 0.950 . S
C336 C334 1.391 . S
C336 C337 1.400 . S
C337 C336 1.400 . S
C337 C338 1.398 . S
C337 C343 1.491 . S
C338 H329 0.950 . S
C338 C337 1.398 . S
C338 C339 1.391 . S
C339 H327 0.950 . S
C339 C335 1.393 . S
C339 C338 1.391 . S
C340 H330 0.950 . S
C340 C341 1.386 . S
C340 C342 1.391 . S
C341 C340 1.386 . S
C341 C345 1.393 . S
C342 H331 0.950 . S
C342 C340 1.391 . S
C342 C343 1.400 . S
C343 C337 1.491 . S
C343 C342 1.400 . S
C343 C344 1.398 . S
C344 H332 0.950 . S
C344 C343 1.398 . S
C344 C345 1.391 . S
C345 H333 0.950 . S
C345 C341 1.393 . S
C345 C344 1.391 . S
H346 C354 0.950 . S
H347 C359 0.950 . S
H348 C356 0.950 . S
H349 C358 0.950 . S
H350 C360 0.950 . S
H351 C362 0.950 . S
H352 C364 0.950 . S
H353 C365 0.950 . S
C354 H346 0.950 . S
C354 C355 1.386 . S
C354 C356 1.391 . S
C355 C354 1.386 . S
C355 C359 1.393 . S
C356 H348 0.950 . S
C356 C354 1.391 . S
C356 C357 1.400 . S
C357 C356 1.400 . S
C357 C358 1.398 . S
C357 C363 1.491 . S
C358 H349 0.950 . S
C358 C357 1.398 . S
C358 C359 1.391 . S
C359 H347 0.950 . S
C359 C355 1.393 . S
C359 C358 1.391 . S
C360 H350 0.950 . S
C360 C361 1.386 . S
C360 C362 1.391 . S
C361 C360 1.386 . S
C361 C365 1.393 . S
C362 H351 0.950 . S
C362 C360 1.391 . S
C362 C363 1.400 . S
C363 C357 1.491 . S
C363 C362 1.400 . S
C363 C364 1.398 . S
C364 H352 0.950 . S
C364 C363 1.398 . S
C364 C365 1.391 . S
C365 H353 0.950 . S
C365 C361 1.393 . S
C365 C364 1.391 . S
H366 C374 0.950 1_655 S
H367 C379 0.950 . S
H368 C376 0.950 1_655 S
H369 C378 0.950 . S
H370 C380 0.950 . S
H371 C382 0.950 . S
H372 C384 0.950 1_655 S
H373 C385 0.950 . S
C374 H366 0.950 1_455 S
C374 C375 1.386 . S
C374 C376 1.391 . S
C375 C374 1.386 . S
C375 C379 1.393 . S
C376 H368 0.950 1_455 S
C376 C374 1.391 . S
C376 C377 1.400 . S
C377 C376 1.400 . S
C377 C378 1.398 . S
C377 C383 1.491 1_554 S
C378 H369 0.950 . S
C378 C377 1.398 . S
C378 C379 1.391 . S
C379 H367 0.950 . S
C379 C375 1.393 . S
C379 C378 1.391 . S
C380 H370 0.950 . S
C380 C381 1.386 . S
C380 C382 1.391 . S
C381 C380 1.386 . S
C381 C385 1.393 . S
C382 H371 0.950 . S
C382 C380 1.391 . S
C382 C383 1.400 . S
C383 C377 1.491 1_556 S
C383 C382 1.400 . S
C383 C384 1.398 . S
C384 H372 0.950 1_455 S
C384 C383 1.398 . S
C384 C385 1.391 . S
C385 H373 0.950 . S
C385 C381 1.393 . S
C385 C384 1.391 . S
H386 C394 0.950 . S
H387 C399 0.950 1_565 S
H388 C396 0.950 . S
H389 C398 0.940 1_565 S
H390 C400 0.950 . S
H391 C402 0.950 . S
H392 C404 0.950 . S
H393 C405 0.950 . S
C394 H386 0.950 . S
C394 C395 1.386 . S
C394 C396 1.391 . S
C395 C394 1.386 . S
C395 C399 1.393 . S
C396 H388 0.950 . S
C396 C394 1.391 . S
C396 C397 1.400 . S
C397 C396 1.400 . S
C397 C398 1.398 . S
C397 C403 1.491 . S
C398 H389 0.940 1_545 S
C398 C397 1.398 . S
C398 C399 1.391 . S
C399 H387 0.950 1_545 S
C399 C395 1.393 . S
C399 C398 1.391 . S
C400 H390 0.950 . S
C400 C401 1.386 . S
C400 C402 1.391 . S
C401 C400 1.386 . S
C401 C405 1.393 . S
C402 H391 0.950 . S
C402 C400 1.391 . S
C402 C403 1.400 . S
C403 C397 1.491 . S
C403 C402 1.400 . S
C403 C404 1.398 . S
C404 H392 0.950 . S
C404 C403 1.398 . S
C404 C405 1.391 . S
C405 H393 0.950 . S
C405 C401 1.393 . S
C405 C404 1.391 . S
H406 C414 0.950 . S
H407 C419 0.950 . S
H408 C416 0.950 . S
H409 C418 0.950 . S
H410 C420 0.950 . S
H411 C422 0.950 . S
H412 C424 0.950 . S
H413 C425 0.950 . S
C414 H406 0.950 . S
C414 C415 1.386 . S
C414 C416 1.391 . S
C415 C414 1.386 . S
C415 C419 1.393 . S
C416 H408 0.950 . S
C416 C414 1.391 . S
C416 C417 1.400 . S
C417 C416 1.400 . S
C417 C418 1.398 . S
C417 C423 1.491 . S
C418 H409 0.950 . S
C418 C417 1.398 . S
C418 C419 1.391 . S
C419 H407 0.950 . S
C419 C415 1.393 . S
C419 C418 1.391 . S
C420 H410 0.950 . S
C420 C421 1.386 . S
C420 C422 1.391 . S
C421 C420 1.386 . S
C421 C425 1.393 . S
C422 H411 0.950 . S
C422 C420 1.391 . S
C422 C423 1.400 . S
C423 C417 1.491 . S
C423 C422 1.400 . S
C423 C424 1.398 . S
C424 H412 0.950 . S
C424 C423 1.398 . S
C424 C425 1.391 . S
C425 H413 0.950 . S
C425 C421 1.393 . S
C425 C424 1.391 . S
H426 C434 0.950 1_565 S
H427 C439 0.950 . S
H428 C436 0.950 1_565 S
H429 C438 0.950 . S
H430 C440 0.950 . S
H431 C442 0.950 . S
H432 C444 0.950 1_565 S
H433 C445 0.950 . S
C434 H426 0.950 1_545 S
C434 C435 1.386 . S
C434 C436 1.391 . S
C435 C434 1.386 . S
C435 C439 1.393 . S
C436 H428 0.950 1_545 S
C436 C434 1.391 . S
C436 C437 1.400 . S
C437 C436 1.400 . S
C437 C438 1.398 . S
C437 C443 1.491 . S
C438 H429 0.950 . S
C438 C437 1.398 . S
C438 C439 1.391 . S
C439 H427 0.950 . S
C439 C435 1.393 . S
C439 C438 1.391 . S
C440 H430 0.950 . S
C440 C441 1.386 . S
C440 C442 1.391 . S
C441 C440 1.386 . S
C441 C445 1.393 1_545 S
C442 H431 0.950 . S
C442 C440 1.391 . S
C442 C443 1.400 . S
C443 C437 1.491 . S
C443 C442 1.400 . S
C443 C444 1.398 . S
C444 H432 0.950 1_545 S
C444 C443 1.398 . S
C444 C445 1.391 1_545 S
C445 H433 0.950 . S
C445 C441 1.393 1_565 S
C445 C444 1.391 1_565 S
H446 C454 0.950 . S
H447 C459 0.950 . S
H448 C456 0.950 . S
H449 C458 0.950 . S
H450 C460 0.950 . S
H451 C462 0.935 1_556 S
H452 C464 0.950 . S
H453 C465 0.950 . S
C454 H446 0.950 . S
C454 C455 1.386 . S
C454 C456 1.391 . S
C455 C454 1.386 . S
C455 C459 1.393 . S
C456 H448 0.950 . S
C456 C454 1.391 . S
C456 C457 1.400 . S
C457 C456 1.400 . S
C457 C458 1.398 . S
C457 C463 1.491 1_556 S
C458 H449 0.950 . S
C458 C457 1.398 . S
C458 C459 1.391 . S
C459 H447 0.950 . S
C459 C455 1.393 . S
C459 C458 1.391 . S
C460 H450 0.950 . S
C460 C461 1.386 . S
C460 C462 1.391 . S
C461 C460 1.386 . S
C461 C465 1.393 . S
C462 H451 0.935 1_554 S
C462 C460 1.391 . S
C462 C463 1.400 . S
C463 C457 1.491 1_554 S
C463 C462 1.400 . S
C463 C464 1.398 . S
C464 H452 0.950 . S
C464 C463 1.398 . S
C464 C465 1.391 . S
C465 H453 0.950 . S
C465 C461 1.393 . S
C465 C464 1.391 . S
H466 C474 0.950 . S
H467 C479 0.950 . S
H468 C476 0.950 . S
H469 C478 0.950 . S
H470 C480 0.950 . S
H471 C482 0.950 . S
H472 C484 0.950 . S
H473 C485 0.950 . S
C474 H466 0.950 . S
C474 C475 1.386 . S
C474 C476 1.391 . S
C475 C474 1.386 . S
C475 C479 1.393 1_455 S
C476 H468 0.950 . S
C476 C474 1.391 . S
C476 C477 1.400 . S
C477 C476 1.400 . S
C477 C478 1.398 1_455 S
C477 C483 1.491 . S
C478 H469 0.950 . S
C478 C477 1.398 1_655 S
C478 C479 1.391 . S
C479 H467 0.950 . S
C479 C475 1.393 1_655 S
C479 C478 1.391 . S
C480 H470 0.950 . S
C480 C481 1.386 1_655 S
C480 C482 1.391 . S
C481 C480 1.386 1_455 S
C481 C485 1.393 . S
C482 H471 0.950 . S
C482 C480 1.391 . S
C482 C483 1.400 1_655 S
C483 C477 1.491 . S
C483 C482 1.400 1_455 S
C483 C484 1.398 . S
C484 H472 0.950 . S
C484 C483 1.398 . S
C484 C485 1.391 . S
C485 H473 0.950 . S
C485 C481 1.393 . S
C485 C484 1.391 . S
C135 C8 2.023 . S
C141 C125 2.069 . S
C155 C26 1.380 . S
C161 C103 1.382 . S
C175 C48 1.546 . S
C181 C114 1.574 . S
C195 C19 1.713 . S
C201 C119 1.742 . S
C221 C97 1.342 . S
C215 C36 1.349 . S
C241 C108 1.552 . S
C235 C59 1.515 . S
C255 C28 1.553 . S
C261 C81 1.596 . S
C275 C46 1.086 . S
C281 C86 1.102 1_655 S
C295 C16 1.375 . S
C301 C64 1.365 1_565 S
C321 C75 1.551 . S
C315 C39 1.505 . S
C341 C92 1.072 . S
C335 C56 1.064 . S
C355 C6 1.401 . S
C361 C70 1.408 . S
C381 C87 1.450 . S
C375 C9 1.441 . S
C395 C21 1.515 . S
C401 C65 1.537 . S
C415 C49 1.513 . S
C421 C76 1.500 . S
C441 C109 1.494 . S
C435 C29 1.502 . S
C461 C120 1.608 . S
C455 C41 1.571 . S
C475 C1 1.504 . S
C481 C98 1.509 . S
