# Generated by pormake.
# Topology wbl, (4,4)-cn, num edge types: 1
# Building blocks:
#     Node 0, Type 0, BuildingBlock: MUDLON_clean_linker_0, # of connection points: 4
#     Node 1, Type 0, BuildingBlock: MUDLON_clean_linker_0, # of connection points: 4
#     Node 2, Type 0, BuildingBlock: MUDLON_clean_linker_0, # of connection points: 4
#     Node 3, Type 0, BuildingBlock: MUDLON_clean_linker_0, # of connection points: 4
#     Node 4, Type 0, BuildingBlock: MUDLON_clean_linker_0, # of connection points: 4
#     Node 5, Type 0, BuildingBlock: MUDLON_clean_linker_0, # of connection points: 4
#     Node 6, Type 0, BuildingBlock: MUDLON_clean_linker_0, # of connection points: 4
#     Node 7, Type 0, BuildingBlock: MUDLON_clean_linker_0, # of connection points: 4
#     Node 8, Type 1, BuildingBlock: QUQFOY_clean_sbu_3, # of connection points: 4
#     Node 9, Type 1, BuildingBlock: QUQFOY_clean_sbu_3, # of connection points: 4
#     Node 10, Type 1, BuildingBlock: QUQFOY_clean_sbu_3, # of connection points: 4
#     Node 11, Type 1, BuildingBlock: QUQFOY_clean_sbu_3, # of connection points: 4
#     Node 12, Type 1, BuildingBlock: QUQFOY_clean_sbu_3, # of connection points: 4
#     Node 13, Type 1, BuildingBlock: QUQFOY_clean_sbu_3, # of connection points: 4
#     Node 14, Type 1, BuildingBlock: QUQFOY_clean_sbu_3, # of connection points: 4
#     Node 15, Type 1, BuildingBlock: QUQFOY_clean_sbu_3, # of connection points: 4
#     Edge 16, Type (0, 1), BuildingBlock: EZIPEK_clean_linker_0, # of connection points: 2
#     Edge 17, Type (0, 1), BuildingBlock: EZIPEK_clean_linker_0, # of connection points: 2
#     Edge 18, Type (0, 1), BuildingBlock: EZIPEK_clean_linker_0, # of connection points: 2
#     Edge 19, Type (0, 1), BuildingBlock: EZIPEK_clean_linker_0, # of connection points: 2
#     Edge 20, Type (0, 1), BuildingBlock: EZIPEK_clean_linker_0, # of connection points: 2
#     Edge 21, Type (0, 1), BuildingBlock: EZIPEK_clean_linker_0, # of connection points: 2
#     Edge 22, Type (0, 1), BuildingBlock: EZIPEK_clean_linker_0, # of connection points: 2
#     Edge 23, Type (0, 1), BuildingBlock: EZIPEK_clean_linker_0, # of connection points: 2
#     Edge 24, Type (0, 1), BuildingBlock: EZIPEK_clean_linker_0, # of connection points: 2
#     Edge 25, Type (0, 1), BuildingBlock: EZIPEK_clean_linker_0, # of connection points: 2
#     Edge 26, Type (0, 1), BuildingBlock: EZIPEK_clean_linker_0, # of connection points: 2
#     Edge 27, Type (0, 1), BuildingBlock: EZIPEK_clean_linker_0, # of connection points: 2
#     Edge 28, Type (0, 1), BuildingBlock: EZIPEK_clean_linker_0, # of connection points: 2
#     Edge 29, Type (0, 1), BuildingBlock: EZIPEK_clean_linker_0, # of connection points: 2
#     Edge 30, Type (0, 1), BuildingBlock: EZIPEK_clean_linker_0, # of connection points: 2
#     Edge 31, Type (0, 1), BuildingBlock: EZIPEK_clean_linker_0, # of connection points: 2
#     Edge 32, Type (0, 1), BuildingBlock: EZIPEK_clean_linker_0, # of connection points: 2
#     Edge 33, Type (0, 1), BuildingBlock: EZIPEK_clean_linker_0, # of connection points: 2
#     Edge 34, Type (0, 1), BuildingBlock: EZIPEK_clean_linker_0, # of connection points: 2
#     Edge 35, Type (0, 1), BuildingBlock: EZIPEK_clean_linker_0, # of connection points: 2
#     Edge 36, Type (0, 1), BuildingBlock: EZIPEK_clean_linker_0, # of connection points: 2
#     Edge 37, Type (0, 1), BuildingBlock: EZIPEK_clean_linker_0, # of connection points: 2
#     Edge 38, Type (0, 1), BuildingBlock: EZIPEK_clean_linker_0, # of connection points: 2
#     Edge 39, Type (0, 1), BuildingBlock: EZIPEK_clean_linker_0, # of connection points: 2
#     Edge 40, Type (0, 1), BuildingBlock: EZIPEK_clean_linker_0, # of connection points: 2
#     Edge 41, Type (0, 1), BuildingBlock: EZIPEK_clean_linker_0, # of connection points: 2
#     Edge 42, Type (0, 1), BuildingBlock: EZIPEK_clean_linker_0, # of connection points: 2
#     Edge 43, Type (0, 1), BuildingBlock: EZIPEK_clean_linker_0, # of connection points: 2
#     Edge 44, Type (0, 1), BuildingBlock: EZIPEK_clean_linker_0, # of connection points: 2
#     Edge 45, Type (0, 1), BuildingBlock: EZIPEK_clean_linker_0, # of connection points: 2
#     Edge 46, Type (0, 1), BuildingBlock: EZIPEK_clean_linker_0, # of connection points: 2
#     Edge 47, Type (0, 1), BuildingBlock: EZIPEK_clean_linker_0, # of connection points: 2
# Relax obj value: 0.123
# Max RMSD: 0.152
# Mean RMSD: 0.137
data_MOF--net-wbl--node1-QUQFOY_clean_sbu_3--node2-MUDLON_clean_linker_0--edge1-EZIPEK_clean_linker_0
_symmetry_space_group_name_H-M    P1
_symmetry_Int_Tables_number       1
_symmetry_cell_setting            triclinic
loop_
_symmetry_equiv_pos_as_xyz
'x, y, z'
_cell_length_a     43.938282
_cell_length_b     44.9527
_cell_length_c     60.600076
_cell_angle_alpha  90.796782
_cell_angle_beta   90.027918
_cell_angle_gamma 90.147476
loop_
_atom_site_label
_atom_site_type_symbol
_atom_site_fract_x
_atom_site_fract_y
_atom_site_fract_z
_atom_type_partial_charge
H0 H 0.1331 0.90458 0.32981 0.0
N1 N 0.07752 0.90772 0.30794 0.0
H2 H 0.14092 0.89502 0.36853 0.0
H3 H 0.03585 0.89497 0.33849 0.0
H4 H 0.04406 0.88718 0.37817 0.0
H5 H 0.08707 0.85497 0.28886 0.0
H6 H 0.1352 0.83721 0.27284 0.0
H7 H 0.1246 0.94374 0.29355 0.0
H8 H 0.17238 0.92578 0.27836 0.0
H9 H 0.09784 0.9607 0.32537 0.0
H10 H 0.02649 0.92029 0.28633 0.0
H11 H 0.07128 0.00811 0.32481 0.0
H12 H -0.0013 0.96744 0.28667 0.0
H13 H 0.96389 0.14672 0.34126 0.0
H14 H 0.94577 0.15793 0.37899 0.0
H15 H 0.91068 0.06862 0.38379 0.0
H16 H 0.92926 0.05719 0.34661 0.0
H17 H 0.91297 0.05353 0.31036 0.0
H18 H 0.86312 0.06232 0.29368 0.0
H19 H 0.88965 0.15223 0.27891 0.0
H20 H 0.9396 0.1437 0.29611 0.0
H21 H -0.0021 0.07225 0.34715 0.0
H22 H 0.02848 0.02829 0.34222 0.0
H23 H -0.00435 0.01834 0.27533 0.0
N24 N 0.95693 0.09595 0.31835 0.0
H25 H 0.96374 0.06195 0.28048 0.0
C26 C 0.08356 0.90028 0.33079 0.0
C27 C 0.11327 0.90017 0.33974 0.0
C28 C 0.11791 0.89475 0.36207 0.0
C29 C 0.09311 0.89044 0.3762 0.0
C30 C 0.06352 0.89029 0.36747 0.0
C31 C 0.05886 0.89479 0.34491 0.0
C32 C 0.10205 0.90051 0.29283 0.0
C33 C 0.10512 0.8708 0.28572 0.0
C34 C 0.13253 0.86067 0.27667 0.0
C35 C 0.15736 0.88016 0.27489 0.0
C36 C 0.15345 0.91044 0.27982 0.0
C37 C 0.12593 0.92067 0.28852 0.0
C38 C 0.06421 0.9369 0.30567 0.0
C39 C 0.07663 0.96215 0.31636 0.0
C40 C 0.06114 -0.01078 0.31629 0.0
C41 C 0.03256 -0.0084 0.30597 0.0
C42 C 0.02076 0.96659 0.2946 0.0
C43 C 0.03652 0.93957 0.29443 0.0
C44 C 0.94789 0.10127 0.34105 0.0
C45 C 0.95258 0.12953 0.35057 0.0
C46 C 0.94224 0.13591 0.37195 0.0
C47 C 0.92683 0.11408 0.38395 0.0
C48 C 0.92242 0.08571 0.37464 0.0
C49 C 0.93289 0.07928 0.35339 0.0
C50 C 0.93012 0.09812 0.30458 0.0
C51 C 0.90839 0.07502 0.30329 0.0
C52 C 0.87996 0.07996 0.29373 0.0
C53 C 0.87282 0.10793 0.28525 0.0
C54 C 0.89491 0.13049 0.28537 0.0
C55 C 0.92334 0.12559 0.29504 0.0
C56 C 0.97586 0.06956 0.31496 0.0
C57 C -0.00374 0.06038 0.33153 0.0
C58 C 0.01452 0.03534 0.32853 0.0
C59 C 0.01421 0.01929 0.30848 0.0
C60 C -0.00431 0.02953 0.29127 0.0
C61 C 0.97715 0.05456 0.29433 0.0
H62 H 0.9473 0.38402 0.58359 0.0
N63 N 0.9221 0.43113 0.56212 0.0
H64 H 0.93844 0.37048 0.62206 0.0
H65 H 0.89128 0.46192 0.59253 0.0
H66 H 0.88228 0.44818 0.63121 0.0
H67 H 0.8649 0.41494 0.55516 0.0
H68 H 0.84696 0.36671 0.54084 0.0
H69 H 0.95685 0.39119 0.537 0.0
H70 H 0.93879 0.34346 0.52293 0.0
H71 H 0.98218 0.41427 0.56447 0.0
H72 H 0.92276 0.48735 0.54963 0.0
H73 H 0.02609 0.44556 0.55891 0.0
H74 H 0.96657 0.52033 0.54695 0.0
H75 H 0.15922 0.57198 0.57589 0.0
H76 H 0.17521 0.58527 0.61376 0.0
H77 H 0.08129 0.58748 0.63418 0.0
H78 H 0.06525 0.57466 0.59656 0.0
H79 H 0.07005 0.61787 0.57184 0.0
H80 H 0.07814 0.66743 0.55717 0.0
H81 H 0.13726 0.63075 0.50695 0.0
H82 H 0.1316 0.58117 0.52325 0.0
H83 H 0.09714 0.51334 0.57743 0.0
H84 H 0.05435 0.47978 0.57566 0.0
H85 H 0.00852 0.53948 0.53115 0.0
N86 N 0.10239 0.56769 0.56046 0.0
H87 H 0.05004 0.57451 0.53499 0.0
C88 C 0.91991 0.42413 0.58522 0.0
C89 C 0.93362 0.39854 0.59391 0.0
C90 C 0.92852 0.39074 0.61582 0.0
C91 C 0.90976 0.40838 0.62934 0.0
C92 C 0.89691 0.43442 0.62096 0.0
C93 C 0.90202 0.44223 0.59902 0.0
C94 C 0.91228 0.40689 0.54777 0.0
C95 C 0.88107 0.39993 0.54744 0.0
C96 C 0.87083 0.37242 0.53937 0.0
C97 C 0.89166 0.35155 0.53111 0.0
C98 C 0.92246 0.35937 0.52937 0.0
C99 C 0.93277 0.3868 0.53765 0.0
C100 C 0.94891 0.44814 0.55663 0.0
C101 C 0.97848 0.43699 0.55957 0.0
C102 C 0.00383 0.45542 0.557 0.0
C103 C 0.00039 0.48602 0.55282 0.0
C104 C 0.97066 0.49697 0.54969 0.0
C105 C 0.94538 0.47814 0.55134 0.0
C106 C 0.11118 0.57211 0.58335 0.0
C107 C 0.14217 0.57482 0.58863 0.0
C108 C 0.15124 0.58238 0.61011 0.0
C109 C 0.12935 0.58719 0.62661 0.0
C110 C 0.09842 0.58362 0.62162 0.0
C111 C 0.08934 0.57627 0.60017 0.0
C112 C 0.10123 0.59583 0.54915 0.0
C113 C 0.08493 0.62031 0.55779 0.0
C114 C 0.08936 0.64866 0.54928 0.0
C115 C 0.10891 0.65298 0.53127 0.0
C116 C 0.12259 0.62805 0.52115 0.0
C117 C 0.11922 0.5998 0.53031 0.0
C118 C 0.07682 0.54735 0.5573 0.0
C119 C 0.07768 0.5195 0.56753 0.0
C120 C 0.05313 0.49988 0.5661 0.0
C121 C 0.02734 0.5066 0.55331 0.0
C122 C 0.02727 0.53368 0.54181 0.0
C123 C 0.05148 0.55389 0.54391 0.0
H124 H 0.62045 0.41137 0.82777 0.0
N125 N 0.5653 0.39883 0.80798 0.0
H126 H 0.63288 0.4065 0.86669 0.0
H127 H 0.52793 0.38428 0.84091 0.0
H128 H 0.53984 0.38223 0.88053 0.0
H129 H 0.58658 0.34403 0.80232 0.0
H130 H 0.63654 0.33008 0.78748 0.0
H131 H 0.60105 0.43411 0.78044 0.0
H132 H 0.6503 0.41986 0.7656 0.0
H133 H 0.58369 0.45644 0.81476 0.0
H134 H 0.50914 0.40188 0.79174 0.0
H135 H 0.55247 0.50071 0.81131 0.0
H136 H 0.47674 0.44593 0.78969 0.0
H137 H 0.43496 0.63437 0.82428 0.0
H138 H 0.42009 0.6524 0.86127 0.0
H139 H 0.39898 0.56253 0.88008 0.0
H140 H 0.41363 0.54454 0.84326 0.0
H141 H 0.38432 0.53878 0.81058 0.0
H142 H 0.33195 0.54865 0.7987 0.0
H143 H 0.36179 0.62949 0.7679 0.0
H144 H 0.41408 0.62005 0.78027 0.0
H145 H 0.4807 0.56575 0.83333 0.0
H146 H 0.51351 0.52298 0.83068 0.0
H147 H 0.46377 0.49161 0.77334 0.0
N148 N 0.43155 0.57879 0.80848 0.0
H149 H 0.42956 0.53374 0.77676 0.0
C150 C 0.57328 0.39723 0.83116 0.0
C151 C 0.60276 0.40424 0.83892 0.0
C152 C 0.60986 0.40174 0.86124 0.0
C153 C 0.58736 0.39381 0.87651 0.0
C154 C 0.55764 0.38803 0.86899 0.0
C155 C 0.55083 0.38926 0.84647 0.0
C156 C 0.58996 0.39024 0.79326 0.0
C157 C 0.59985 0.36051 0.79367 0.0
C158 C 0.62835 0.35256 0.78529 0.0
C159 C 0.64714 0.37409 0.77578 0.0
C160 C 0.63607 0.40303 0.77305 0.0
C161 C 0.60778 0.41115 0.78177 0.0
C162 C 0.54885 0.42578 0.80313 0.0
C163 C 0.56066 0.45406 0.80862 0.0
C164 C 0.54251 0.47937 0.80698 0.0
C165 C 0.51176 0.47702 0.80057 0.0
C166 C 0.50033 0.4488 0.79443 0.0
C167 C 0.51877 0.42352 0.79563 0.0
C168 C 0.42561 0.58821 0.83101 0.0
C169 C 0.4275 0.61857 0.83649 0.0
C170 C 0.41895 0.62881 0.85745 0.0
C171 C 0.40846 0.60872 0.87325 0.0
C172 C 0.40702 0.57828 0.86802 0.0
C173 C 0.41539 0.56807 0.84704 0.0
C174 C 0.40315 0.57891 0.79642 0.0
C175 C 0.37982 0.5582 0.80077 0.0
C176 C 0.34997 0.56379 0.79401 0.0
C177 C 0.34316 0.58988 0.78261 0.0
C178 C 0.36675 0.60921 0.77665 0.0
C179 C 0.39652 0.60375 0.78355 0.0
C180 C 0.4508 0.55249 0.80636 0.0
C181 C 0.47605 0.54938 0.82049 0.0
C182 C 0.49545 0.52501 0.81864 0.0
C183 C 0.49131 0.50347 0.80188 0.0
C184 C 0.46719 0.50723 0.78688 0.0
C185 C 0.44737 0.53152 0.78894 0.0
H186 H 0.4464 0.88714 0.0877 0.0
N187 N 0.4204 0.93137 0.06313 0.0
H188 H 0.43531 0.87566 0.12599 0.0
H189 H 0.38301 0.96032 0.09058 0.0
H190 H 0.37153 0.94829 0.1293 0.0
H191 H 0.36722 0.91316 0.04713 0.0
H192 H 0.35556 0.86415 0.03065 0.0
H193 H 0.4627 0.89081 0.04769 0.0
H194 H 0.45092 0.84208 0.03163 0.0
H195 H 0.47989 0.92432 0.07661 0.0
H196 H 0.41997 0.98089 0.03965 0.0
H197 H 0.52159 0.95863 0.07088 0.0
H198 H 0.46231 0.0155 0.0334 0.0
H199 H 0.6542 0.07163 0.06703 0.0
H200 H 0.67448 0.08101 0.10439 0.0
H201 H 0.58313 0.08296 0.13019 0.0
H202 H 0.56286 0.07382 0.0933 0.0
H203 H 0.57463 0.12372 0.07279 0.0
H204 H 0.58267 0.17319 0.05815 0.0
H205 H 0.62032 0.13485 0.99854 0.0
H206 H 0.6144 0.08479 0.01406 0.0
H207 H 0.59802 0.01361 0.04501 0.0
H208 H 0.5555 0.97839 0.04336 0.0
H209 H 0.4927 0.05064 0.0554 0.0
N210 N 0.596 0.07125 0.05468 0.0
H211 H 0.5352 0.08566 0.05651 0.0
C212 C 0.41563 0.92491 0.08618 0.0
C213 C 0.43033 0.90101 0.09653 0.0
C214 C 0.42395 0.89431 0.11842 0.0
C215 C 0.4027 0.91117 0.13039 0.0
C216 C 0.38811 0.93514 0.12027 0.0
C217 C 0.39466 0.942 0.09831 0.0
C218 C 0.4157 0.90583 0.04879 0.0
C219 C 0.38571 0.89816 0.04305 0.0
C220 C 0.37905 0.87027 0.03377 0.0
C221 C 0.40241 0.84961 0.03015 0.0
C222 C 0.43266 0.85787 0.03435 0.0
C223 C 0.43934 0.88581 0.04351 0.0
C224 C 0.44646 0.95001 0.05859 0.0
C225 C 0.47562 0.94391 0.06701 0.0
C226 C 0.49972 0.96358 0.06356 0.0
C227 C 0.49537 -0.01016 0.05163 0.0
C228 C 0.46638 -0.00438 0.04283 0.0
C229 C 0.44224 0.97582 0.04626 0.0
C230 C 0.6071 0.07182 0.07718 0.0
C231 C 0.63862 0.07332 0.08083 0.0
C232 C 0.65015 0.07871 0.10204 0.0
C233 C 0.6302 0.08264 0.11988 0.0
C234 C 0.59878 0.07981 0.11655 0.0
C235 C 0.58727 0.07444 0.09541 0.0
C236 C 0.59483 0.10033 0.04477 0.0
C237 C 0.58468 0.12564 0.0566 0.0
C238 C 0.58911 0.15403 0.04818 0.0
C239 C 0.60271 0.15776 0.02745 0.0
C240 C 0.61028 0.13246 0.01474 0.0
C241 C 0.60676 0.10399 0.0235 0.0
C242 C 0.56996 0.05218 0.05089 0.0
C243 C 0.57501 0.02185 0.04683 0.0
C244 C 0.55071 0.00177 0.04609 0.0
C245 C 0.52071 0.01164 0.0495 0.0
C246 C 0.51548 0.04231 0.05251 0.0
C247 C 0.53984 0.06241 0.05319 0.0
H248 H 0.11786 0.55185 0.93012 0.0
N249 N 0.07691 0.57968 0.95764 0.0
H250 H 0.12889 0.56479 0.89193 0.0
H251 H 0.04891 0.61995 0.9332 0.0
H252 H 0.06018 0.63301 0.8947 0.0
H253 H 0.08935 0.63119 0.97739 0.0
H254 H 0.13855 0.64683 0.99302 0.0
H255 H 0.12369 0.54197 0.96884 0.0
H256 H 0.17277 0.55776 0.98391 0.0
H257 H 0.08584 0.52001 0.94897 0.0
H258 H 0.02246 0.58377 0.9761 0.0
H259 H 0.04831 0.48059 0.95311 0.0
H260 H 0.98432 0.54419 0.97989 0.0
H261 H 0.95188 0.37554 0.93204 0.0
H262 H 0.93868 0.36098 0.89388 0.0
H263 H 0.86953 0.42883 0.89294 0.0
H264 H 0.88208 0.44284 0.93098 0.0
H265 H 0.90285 0.36524 0.97208 0.0
H266 H 0.852 0.35626 0.98746 0.0
H267 H 0.83493 0.45059 0.9886 0.0
H268 H 0.88524 0.45969 0.97314 0.0
H269 H 0.97794 0.41289 0.97767 0.0
H270 H 0.0166 0.4522 0.98179 0.0
H271 H 0.95621 0.51399 0.95007 0.0
N272 N 0.92455 0.41624 0.95735 0.0
H273 H 0.9183 0.47493 0.94562 0.0
C274 C 0.08236 0.58496 0.93457 0.0
C275 C 0.10474 0.56926 0.92258 0.0
C276 C 0.11115 0.57666 0.90077 0.0
C277 C 0.09535 0.59981 0.89063 0.0
C278 C 0.07253 0.61504 0.90233 0.0
C279 C 0.0661 0.6076 0.92417 0.0
C280 C 0.10273 0.58556 0.97175 0.0
C281 C 0.10706 0.61478 0.97959 0.0
C282 C 0.13506 0.6237 0.98842 0.0
C283 C 0.1592 0.60345 0.98942 0.0
C284 C 0.15429 0.57364 0.98325 0.0
C285 C 0.12618 0.56467 0.97458 0.0
C286 C 0.05713 0.55502 0.96252 0.0
C287 C 0.06424 0.52554 0.95639 0.0
C288 C 0.04265 0.50289 0.95871 0.0
C289 C 0.0134 0.50934 0.9668 0.0
C290 C 0.00666 0.53862 0.97353 0.0
C291 C 0.02841 0.56116 0.97149 0.0
C292 C 0.91826 0.41035 0.93433 0.0
C293 C 0.93418 0.38749 0.92346 0.0
C294 C 0.92666 0.37921 0.90181 0.0
C295 C 0.90318 0.39391 0.8907 0.0
C296 C 0.88779 0.41737 0.90128 0.0
C297 C 0.89513 0.42545 0.92296 0.0
C298 C 0.89812 0.41301 0.97131 0.0
C299 C 0.88856 0.38405 0.97633 0.0
C300 C 0.8596 0.37891 0.98499 0.0
C301 C 0.83985 0.40279 0.98901 0.0
C302 C 0.85002 0.43195 0.98561 0.0
C303 C 0.87891 0.43708 0.97675 0.0
C304 C 0.94505 0.44082 0.96163 0.0
C305 C 0.97293 0.43507 0.97196 0.0
C306 C -0.00502 0.45744 0.97419 0.0
C307 C 0.98931 0.48616 0.96635 0.0
C308 C 0.96102 0.49218 0.95659 0.0
C309 C 0.93924 0.46972 0.95404 0.0
H310 H 0.51871 0.34039 0.16748 0.0
N311 N 0.52806 0.37711 0.20168 0.0
H312 H 0.54406 0.34131 0.13122 0.0
H313 H 0.56859 0.4192 0.18729 0.0
H314 H 0.59338 0.42018 0.15125 0.0
H315 H 0.58726 0.38495 0.21555 0.0
H316 H 0.61942 0.3463 0.23108 0.0
H317 H 0.50957 0.3263 0.21884 0.0
H318 H 0.54217 0.28724 0.234 0.0
H319 H 0.47257 0.39635 0.19312 0.0
H320 H 0.55401 0.41995 0.22911 0.0
H321 H 0.45328 0.44683 0.19852 0.0
H322 H 0.53489 0.47025 0.23458 0.0
H323 H 0.40941 0.55643 0.17886 0.0
H324 H 0.38973 0.56532 0.14162 0.0
H325 H 0.46598 0.62303 0.12867 0.0
H326 H 0.48582 0.61399 0.16592 0.0
H327 H 0.40101 0.58928 0.211 0.0
H328 H 0.38019 0.63439 0.22852 0.0
H329 H 0.47079 0.67065 0.23455 0.0
H330 H 0.49156 0.62565 0.21681 0.0
H331 H 0.42232 0.53992 0.2147 0.0
H332 H 0.43665 0.48856 0.22297 0.0
H333 H 0.52997 0.50882 0.20626 0.0
N334 N 0.45997 0.58242 0.19745 0.0
H335 H 0.51532 0.55981 0.19792 0.0
C336 C 0.54142 0.37976 0.18004 0.0
C337 C 0.5347 0.35805 0.1639 0.0
C338 C 0.54912 0.35853 0.14336 0.0
C339 C 0.57041 0.38086 0.13872 0.0
C340 C 0.57685 0.40289 0.15462 0.0
C341 C 0.56259 0.40233 0.17517 0.0
C342 C 0.54567 0.35865 0.21618 0.0
C343 C 0.57672 0.36435 0.22048 0.0
C344 C 0.59524 0.34218 0.22921 0.0
C345 C 0.58313 0.31395 0.23346 0.0
C346 C 0.55183 0.30896 0.23081 0.0
C347 C 0.53325 0.33123 0.2223 0.0
C348 C 0.51485 0.40424 0.21035 0.0
C349 C 0.48581 0.4121 0.20285 0.0
C350 C 0.47482 0.44098 0.20598 0.0
C351 C 0.49279 0.46267 0.21669 0.0
C352 C 0.52075 0.45411 0.22593 0.0
C353 C 0.53169 0.42515 0.22286 0.0
C354 C 0.44931 0.58445 0.17507 0.0
C355 C 0.42221 0.57057 0.16796 0.0
C356 C 0.4109 0.57568 0.14676 0.0
C357 C 0.42647 0.59481 0.13255 0.0
C358 C 0.45377 0.60815 0.13947 0.0
C359 C 0.4651 0.60295 0.16058 0.0
C360 C 0.44792 0.60427 0.21258 0.0
C361 C 0.41651 0.60642 0.21676 0.0
C362 C 0.4046 0.63215 0.2267 0.0
C363 C 0.42402 0.65576 0.23264 0.0
C364 C 0.45555 0.65256 0.2301 0.0
C365 C 0.46738 0.62695 0.2201 0.0
C366 C 0.46784 0.5535 0.20542 0.0
C367 C 0.44587 0.53336 0.21308 0.0
C368 C 0.4541 0.50404 0.21783 0.0
C369 C 0.48444 0.4946 0.21526 0.0
C370 C 0.50651 0.51541 0.20875 0.0
C371 C 0.49821 0.54449 0.20384 0.0
H372 H 0.37531 0.95253 0.42908 0.0
N373 N 0.41731 0.93141 0.45849 0.0
H374 H 0.36624 0.93392 0.39166 0.0
H375 H 0.4464 0.88764 0.43748 0.0
H376 H 0.43617 0.86789 0.40008 0.0
H377 H 0.40418 0.88197 0.47976 0.0
H378 H 0.35487 0.86841 0.49596 0.0
H379 H 0.37056 0.9706 0.46842 0.0
H380 H 0.32177 0.95693 0.48428 0.0
H381 H 0.40435 -0.01159 0.44486 0.0
H382 H 0.4722 0.9346 0.4766 0.0
H383 H 0.43824 0.03062 0.44596 0.0
H384 H 0.50765 0.97665 0.47618 0.0
H385 H 0.57085 0.14741 0.42111 0.0
H386 H 0.59121 0.15025 0.38331 0.0
H387 H 0.6043 0.05523 0.38222 0.0
H388 H 0.58386 0.05228 0.41971 0.0
H389 H 0.60863 0.0562 0.45395 0.0
H390 H 0.65876 0.06489 0.47053 0.0
H391 H 0.63348 0.15526 0.48638 0.0
H392 H 0.58336 0.14682 0.46921 0.0
H393 H 0.51732 0.08471 0.42091 0.0
H394 H 0.48044 0.04564 0.4264 0.0
H395 H 0.52228 0.02491 0.48886 0.0
N396 N 0.56583 0.09914 0.44601 0.0
H397 H 0.56029 0.06319 0.4829 0.0
C398 C 0.41211 0.92182 0.436 0.0
C399 C 0.38937 0.93465 0.42283 0.0
C400 C 0.38394 0.92384 0.4015 0.0
C401 C 0.40057 0.8996 0.39314 0.0
C402 C 0.42322 0.88672 0.40624 0.0
C403 C 0.42906 0.89794 0.42746 0.0
C404 C 0.39136 0.92718 0.47271 0.0
C405 C 0.38667 0.89876 0.48144 0.0
C406 C 0.35861 0.891 0.49057 0.0
C407 C 0.33482 0.91167 0.49112 0.0
C408 C 0.34001 0.94075 0.48396 0.0
C409 C 0.36807 0.94851 0.47484 0.0
C410 C 0.43542 0.95808 0.46106 0.0
C411 C 0.42629 0.98559 0.4525 0.0
C412 C 0.44614 0.00986 0.45273 0.0
C413 C 0.47601 0.00709 0.46081 0.0
C414 C 0.48477 0.97984 0.47003 0.0
C415 C 0.46459 0.9557 0.47021 0.0
C416 C 0.57576 0.09977 0.42324 0.0
C417 C 0.57781 0.12721 0.4126 0.0
C418 C 0.58943 0.12882 0.39118 0.0
C419 C 0.5992 0.10293 0.38016 0.0
C420 C 0.59685 0.07539 0.39057 0.0
C421 C 0.58527 0.07377 0.41195 0.0
C422 C 0.59222 0.10104 0.46023 0.0
C423 C 0.61354 0.07771 0.46132 0.0
C424 C 0.6421 0.08261 0.47082 0.0
C425 C 0.6497 0.11073 0.47948 0.0
C426 C 0.62785 0.13341 0.47978 0.0
C427 C 0.59933 0.12857 0.47013 0.0
C428 C 0.54341 0.07601 0.45053 0.0
C429 C 0.51917 0.07146 0.43564 0.0
C430 C 0.49753 0.0493 0.43903 0.0
C431 C 0.49846 0.0317 0.458 0.0
C432 C 0.5214 0.03738 0.47372 0.0
C433 C 0.54341 0.05941 0.47017 0.0
H434 H 0.04231 0.87362 0.68621 0.0
N435 N 0.06841 0.91749 0.7121 0.0
H436 H 0.05505 0.86146 0.64802 0.0
H437 H 0.10879 0.94449 0.68648 0.0
H438 H 0.12238 0.93142 0.64814 0.0
H439 H 0.12131 0.9058 0.73085 0.0
H440 H 0.13698 0.85815 0.74646 0.0
H441 H 0.02909 0.87344 0.72544 0.0
H442 H 0.0449 0.82573 0.74065 0.0
H443 H 0.00872 0.90781 0.69986 0.0
H444 H 0.06893 0.9696 0.73314 0.0
H445 H 0.96803 0.9439 0.70152 0.0
H446 H 0.0275 0.0058 0.73585 0.0
H447 H 0.84461 0.07189 0.68993 0.0
H448 H 0.83016 0.08721 0.65258 0.0
H449 H 0.92367 0.07991 0.6319 0.0
H450 H 0.93823 0.0648 0.66884 0.0
H451 H 0.9289 0.11595 0.6911 0.0
H452 H 0.9227 0.16563 0.70685 0.0
H453 H 0.87294 0.12919 0.76158 0.0
H454 H 0.87726 0.07913 0.74484 0.0
H455 H 0.89315 0.00851 0.71629 0.0
H456 H 0.93249 0.97117 0.72269 0.0
H457 H 0.0018 0.03767 0.71123 0.0
N458 N 0.90069 0.06504 0.70548 0.0
H459 H 0.96244 0.07485 0.70586 0.0
C460 C 0.07437 0.91042 0.68921 0.0
C461 C 0.05936 0.88687 0.67807 0.0
C462 C 0.06676 0.87971 0.65627 0.0
C463 C 0.08965 0.8955 0.64535 0.0
C464 C 0.1046 0.91903 0.65635 0.0
C465 C 0.09687 0.92649 0.6781 0.0
C466 C 0.07421 0.8932 0.72677 0.0
C467 C 0.10426 0.88889 0.73383 0.0
C468 C 0.11319 0.86176 0.74265 0.0
C469 C 0.09209 0.83852 0.74451 0.0
C470 C 0.06142 0.84355 0.73935 0.0
C471 C 0.05244 0.87082 0.73062 0.0
C472 C 0.04224 0.93606 0.71622 0.0
C473 C 0.01315 0.92886 0.708 0.0
C474 C 0.9896 0.94965 0.70911 0.0
C475 C -0.00556 0.978 0.71863 0.0
C476 C 0.02308 0.98445 0.72798 0.0
C477 C 0.0467 0.9637 0.72669 0.0
C478 C 0.89239 0.0671 0.68242 0.0
C479 C 0.86182 0.07265 0.67716 0.0
C480 C 0.85362 0.0815 0.65596 0.0
C481 C 0.87595 0.08481 0.63967 0.0
C482 C 0.9062 0.07741 0.64435 0.0
C483 C 0.91442 0.0686 0.66553 0.0
C484 C 0.90273 0.0937 0.71652 0.0
C485 C 0.91667 0.11835 0.70649 0.0
C486 C 0.91327 0.14682 0.71553 0.0
C487 C 0.89687 0.15116 0.73516 0.0
C488 C 0.88529 0.12631 0.74624 0.0
C489 C 0.88788 0.09784 0.7368 0.0
C490 C 0.92471 0.04435 0.7105 0.0
C491 C 0.91687 0.01499 0.71547 0.0
C492 C 0.93941 -0.00632 0.71897 0.0
C493 C 0.97042 0.00127 0.71733 0.0
C494 C 0.97823 0.03102 0.71297 0.0
C495 C 0.95566 0.05237 0.70971 0.0
C496 C 0.39373 0.63278 0.04557 0.0
O497 O 0.41743 0.63702 0.03408 0.0
Cd498 Cd 0.41728 0.65844 0.99823 0.0
O499 O 0.36739 0.63902 0.03814 0.0
Cd500 Cd 0.34606 0.65936 1.00329 0.0
C501 C 0.38342 0.72503 0.00986 0.0
O502 O 0.37911 0.63315 0.97683 0.0
O503 O 0.35069 0.66782 0.96358 0.0
O504 O 0.30397 0.62381 0.00601 0.0
C505 C 0.36903 0.64659 0.96011 0.0
O506 O 0.40725 0.7114 1.00347 0.0
C507 C 0.2832 0.64306 1.00364 0.0
O508 O 0.35835 0.71129 0.0126 0.0
O509 O 0.29143 0.67003 1.00196 0.0
C510 C 0.38845 0.86925 0.21924 0.0
O511 O 0.41338 0.8675 0.22969 0.0
Cd512 Cd 0.41647 0.84615 0.26549 0.0
O513 O 0.36367 0.86023 0.22782 0.0
Cd514 Cd 0.34737 0.83764 0.26319 0.0
C515 C 0.39008 0.77621 0.25484 0.0
O516 O 0.37797 0.86876 0.28856 0.0
O517 O 0.35643 0.83024 0.30268 0.0
O518 O 0.30143 0.86786 0.26041 0.0
C519 C 0.37089 0.85439 0.30567 0.0
O520 O 0.4128 0.79232 0.26022 0.0
C521 C 0.28306 0.84653 0.26355 0.0
O522 O 0.36353 0.78722 0.25341 0.0
O523 O 0.29437 0.82085 0.26611 0.0
C524 C 0.12001 0.88178 0.46955 0.0
O525 O 0.11635 0.90472 0.48165 0.0
Cd526 Cd 0.13673 0.90608 0.51793 0.0
O527 O 0.13125 0.85814 0.47755 0.0
Cd528 Cd 0.14702 0.84016 0.51473 0.0
C529 C 0.20966 0.88135 0.50965 0.0
O530 O 0.11227 0.86832 0.53926 0.0
O531 O 0.15332 0.85151 0.55404 0.0
O532 O 0.1182 0.79519 0.50411 0.0
C533 C 0.12734 0.86318 0.55664 0.0
O534 O 0.19231 0.90303 0.51467 0.0
C535 C 0.13508 0.77726 0.51445 0.0
O536 O 0.19916 0.85511 0.50724 0.0
O537 O 0.15815 0.7885 0.52407 0.0
C538 C 0.13085 0.63439 0.80273 0.0
O539 O 0.11168 0.63874 0.78762 0.0
Cd540 Cd 0.1521 0.64889 0.76086 0.0
O541 O 0.15858 0.63871 0.7981 0.0
Cd542 Cd 0.1626 0.66054 0.75848 0.0
C543 C 0.22089 0.63244 0.7682 0.0
O544 O 0.13356 0.62999 0.72876 0.0
O545 O 0.17914 0.64395 0.7208 0.0
O546 O 0.12238 0.69845 0.76358 0.0
C547 C 0.15463 0.63138 0.7146 0.0
O548 O 0.19742 0.61602 0.76723 0.0
C549 C 0.13903 0.71995 0.75755 0.0
O550 O 0.21726 0.66011 0.76576 0.0
O551 O 0.16645 0.71412 0.75253 0.0
C552 C 0.87389 0.12606 0.47052 0.0
O553 O 0.86972 0.10131 0.4799 0.0
Cd554 Cd 0.84424 0.0957 0.51461 0.0
O555 O 0.8654 0.1504 0.47955 0.0
Cd556 Cd 0.84076 0.16702 0.51448 0.0
C557 C 0.7758 0.12845 0.50326 0.0
O558 O 0.86556 0.13209 0.53927 0.0
O559 O 0.82899 0.15832 0.55338 0.0
O560 O 0.87616 0.20879 0.51748 0.0
C561 C 0.85002 0.13949 0.55607 0.0
O562 O 0.79027 0.1049 0.50799 0.0
C563 C 0.85584 0.22879 0.51731 0.0
O564 O 0.78893 0.15375 0.50301 0.0
O565 O 0.82834 0.22032 0.51562 0.0
C566 C 0.88126 0.36549 0.71645 0.0
O567 O 0.90233 0.356 0.72865 0.0
Cd568 Cd 0.8706 0.33829 0.7577 0.0
O569 O 0.85393 0.36333 0.72316 0.0
Cd570 Cd 0.83928 0.3398 0.7595 0.0
C571 C 0.87323 0.27482 0.75697 0.0
O572 O 0.86865 0.37263 0.78664 0.0
O573 O 0.85213 0.33127 0.79933 0.0
O574 O 0.79362 0.37088 0.75865 0.0
C575 C 0.86427 0.35646 0.80324 0.0
O576 O 0.88952 0.29073 0.76969 0.0
C577 C 0.77497 0.34975 0.76158 0.0
O578 O 0.85129 0.28736 0.7471 0.0
O579 O 0.78592 0.32381 0.76336 0.0
C580 C 0.62185 0.38732 0.96888 0.0
O581 O 0.61989 0.41052 0.98097 0.0
Cd582 Cd 0.64124 0.41318 0.01716 0.0
O583 O 0.63213 0.36313 0.97671 0.0
Cd584 Cd 0.64821 0.34291 0.01305 0.0
C585 C 0.71253 0.38287 0.00794 0.0
O586 O 0.61663 0.37451 0.03694 0.0
O587 O 0.65175 0.3502 0.05304 0.0
O588 O 0.61589 0.30036 1.00262 0.0
C589 C 0.62981 0.36826 0.05485 0.0
O590 O 0.69632 0.4056 0.01245 0.0
C591 C 0.6329 0.28095 0.01129 0.0
O592 O 0.70084 0.357 0.00619 0.0
O593 O 0.65764 0.29027 0.01978 0.0
C594 C 0.65209 0.10557 0.29302 0.0
O595 O 0.65824 0.08117 0.28326 0.0
Cd596 Cd 0.68253 0.0796 0.24777 0.0
O597 O 0.65766 0.13039 0.28404 0.0
Cd598 Cd 0.67822 0.14897 0.24885 0.0
C599 C 0.74723 0.1192 0.25929 0.0
O600 O 0.65519 0.11204 0.22366 0.0
O601 O 0.6891 0.14134 0.20971 0.0
O602 O 0.63656 0.18443 0.25036 0.0
C603 C 0.66889 0.12153 0.20673 0.0
O604 O 0.73534 0.09428 0.25399 0.0
C605 C 0.65291 0.20732 0.24749 0.0
O606 O 0.73142 0.1429 0.26011 0.0
O607 O 0.68146 0.20347 0.24575 0.0
C608 C 0.2048 0.85662 0.28928 0.0
C609 C 0.18853 0.8685 0.27115 0.0
C610 C 0.23296 0.86114 0.24719 0.0
C611 C 0.25 0.85195 0.26577 0.0
N612 N 0.25358 0.84313 0.30486 0.0
N613 N 0.18672 0.88377 0.23325 0.0
C614 C 0.23621 0.84989 0.28687 0.0
C615 C 0.20248 0.87113 0.25016 0.0
N616 N 0.19022 0.85191 0.30889 0.0
N617 N 0.24576 0.85948 0.22664 0.0
H618 H 0.16392 0.88996 0.23461 0.0
H619 H 0.19648 0.88958 0.21827 0.0
H620 H 0.26799 0.85215 0.22397 0.0
H621 H 0.23385 0.86307 0.21208 0.0
H622 H 0.19954 0.83983 0.32176 0.0
H623 H 0.16788 0.85844 0.31201 0.0
H624 H 0.24608 0.84515 0.32109 0.0
H625 H 0.27645 0.83723 0.30379 0.0
C626 C 0.09179 0.70343 0.51875 0.0
C627 C 0.11591 0.68386 0.52396 0.0
C628 C 0.15216 0.72392 0.51644 0.0
C629 C 0.12799 0.74483 0.51591 0.0
N630 N 0.07405 0.75396 0.52174 0.0
N631 N 0.16951 0.67815 0.53238 0.0
C632 C 0.09748 0.73452 0.51827 0.0
C633 C 0.14632 0.69473 0.52399 0.0
N634 N 0.06345 0.69241 0.51418 0.0
N635 N 0.18052 0.73148 0.50918 0.0
H636 H 0.16626 0.65742 0.53949 0.0
H637 H 0.19148 0.68656 0.53449 0.0
H638 H 0.1853 0.75193 0.50201 0.0
H639 H 0.19815 0.71609 0.50772 0.0
H640 H 0.04576 0.70568 0.50848 0.0
H641 H 0.05872 0.66965 0.51372 0.0
H642 H 0.05203 0.74692 0.52545 0.0
H643 H 0.07698 0.77681 0.52372 0.0
C644 C 0.29546 0.59073 0.75973 0.0
C645 C 0.31105 0.599 0.77936 0.0
C646 C 0.26587 0.62557 0.79286 0.0
C647 C 0.25139 0.61984 0.77232 0.0
N648 N 0.25264 0.59941 0.73532 0.0
N649 N 0.31269 0.626 0.81406 0.0
C650 C 0.26615 0.60286 0.75554 0.0
C651 C 0.29666 0.61684 0.79582 0.0
N652 N 0.30859 0.571 0.74526 0.0
N653 N 0.24978 0.63846 0.80977 0.0
H654 H 0.33485 0.61908 0.81737 0.0
H655 H 0.30484 0.64193 0.82531 0.0
H656 H 0.22717 0.64513 0.80818 0.0
H657 H 0.25783 0.64034 0.82588 0.0
H658 H 0.29726 0.56153 0.7318 0.0
H659 H 0.33033 0.56232 0.74762 0.0
H660 H 0.26351 0.5902 0.7216 0.0
H661 H 0.23106 0.60765 0.73174 0.0
C662 C 0.39619 0.8081 1.00225 0.0
C663 C 0.39501 0.81821 0.02452 0.0
C664 C 0.38427 0.76756 0.0369 0.0
C665 C 0.38545 0.75731 0.01471 0.0
N666 N 0.38747 0.76767 0.97585 0.0
N667 N 0.38706 0.80713 0.0633 0.0
C668 C 0.39005 0.77757 0.99723 0.0
C669 C 0.38852 0.79806 0.04176 0.0
N670 N 0.40402 0.82758 0.98605 0.0
N671 N 0.3797 0.74806 0.05371 0.0
H672 H 0.39016 0.82904 0.06879 0.0
H673 H 0.39016 0.82904 0.06879 0.0
H674 H 0.37704 0.72522 0.05119 0.0
H675 H 0.37883 0.75484 0.07024 0.0
H676 H 0.40866 0.82128 0.96982 0.0
H677 H 0.40749 0.85023 0.98911 0.0
H678 H 0.38768 0.78151 0.96224 0.0
H679 H 0.3828 0.74552 0.97169 0.0
C680 C 0.20767 0.62618 0.97586 0.0
C681 C 0.19061 0.61436 0.99362 0.0
C682 C 0.23394 0.62301 0.01864 0.0
C683 C 0.25105 0.63399 1.00059 0.0
N684 N 0.25455 0.64591 0.96185 0.0
N685 N 0.18749 0.59908 0.03146 0.0
C686 C 0.23795 0.63566 0.97928 0.0
C687 C 0.20375 0.61215 0.01496 0.0
N688 N 0.19592 0.62813 0.95509 0.0
N689 N 0.2463 0.62404 0.03936 0.0
H690 H 0.16506 0.59188 0.02942 0.0
H691 H 0.19641 0.59395 0.04684 0.0
H692 H 0.26828 0.63185 0.04249 0.0
H693 H 0.23444 0.61896 0.05367 0.0
H694 H 0.17402 0.62138 0.95057 0.0
H695 H 0.17402 0.62138 0.95057 0.0
H696 H 0.24562 0.64734 0.94593 0.0
H697 H 0.27719 0.65271 0.96316 0.0
C698 C 0.40969 0.69425 0.26113 0.0
C699 C 0.41148 0.68537 0.23865 0.0
C700 C 0.39355 0.73446 0.2272 0.0
C701 C 0.39504 0.74436 0.24952 0.0
N702 N 0.40495 0.73471 0.2879 0.0
N703 N 0.40746 0.69687 0.19998 0.0
C704 C 0.40312 0.72448 0.26657 0.0
C705 C 0.40369 0.70533 0.22159 0.0
N706 N 0.4138 0.67357 0.2772 0.0
N707 N 0.38261 0.75299 0.21135 0.0
H708 H 0.41406 0.67551 0.19509 0.0
H709 H 0.40597 0.7114 0.18681 0.0
H710 H 0.3766 0.77505 0.2145 0.0
H711 H 0.37749 0.74607 0.19531 0.0
H712 H 0.41005 0.67768 0.29391 0.0
H713 H 0.41887 0.65135 0.27363 0.0
H714 H 0.41409 0.72254 0.30077 0.0
H715 H 0.39847 0.75617 0.29266 0.0
C716 C 0.28411 0.8918 0.47908 0.0
C717 C 0.30344 0.90198 0.49642 0.0
C718 C 0.26185 0.89565 0.52303 0.0
C719 C 0.24222 0.88726 0.50536 0.0
N720 N 0.23432 0.87751 0.46641 0.0
N721 N 0.31081 0.91601 0.53454 0.0
C722 C 0.25331 0.88524 0.48345 0.0
C723 C 0.29237 0.90445 0.51836 0.0
N724 N 0.29424 0.88868 0.45791 0.0
N725 N 0.25152 0.89415 0.54427 0.0
H726 H 0.33351 0.92172 0.53176 0.0
H727 H 0.30338 0.92155 0.55036 0.0
H728 H 0.22935 0.88773 0.54819 0.0
H729 H 0.26527 0.89709 0.55811 0.0
H730 H 0.31652 0.89294 0.45284 0.0
H731 H 0.31652 0.89294 0.45284 0.0
H732 H 0.24176 0.87589 0.45007 0.0
H733 H 0.21115 0.87323 0.46845 0.0
C734 C 0.11244 0.79026 0.72977 0.0
C735 C 0.10313 0.80785 0.74821 0.0
C736 C 0.1175 0.7676 0.77318 0.0
C737 C 0.1263 0.75005 0.75458 0.0
N738 N 0.13055 0.74377 0.71498 0.0
N739 N 0.09306 0.81268 0.78712 0.0
C740 C 0.1233 0.76115 0.73292 0.0
C741 C 0.10458 0.79633 0.76987 0.0
N742 N 0.11094 0.80052 0.70872 0.0
N743 N 0.12272 0.75725 0.79396 0.0
H744 H 0.08417 0.83399 0.78521 0.0
H745 H 0.09053 0.80469 0.80303 0.0
H746 H 0.13199 0.73633 0.79689 0.0
H747 H 0.11973 0.76985 0.80831 0.0
H748 H 0.10312 0.82158 0.70444 0.0
H749 H 0.10312 0.82158 0.70444 0.0
H750 H 0.12872 0.75128 0.69881 0.0
H751 H 0.13764 0.72173 0.71617 0.0
C752 C 0.70138 0.3757 0.78839 0.0
C753 C 0.67983 0.36757 0.77186 0.0
C754 C 0.72089 0.3487 0.74805 0.0
C755 C 0.74217 0.35561 0.765 0.0
N756 N 0.75298 0.37182 0.80226 0.0
N757 N 0.66782 0.34363 0.73714 0.0
C758 C 0.7325 0.36816 0.78541 0.0
C759 C 0.68924 0.35323 0.75201 0.0
N760 N 0.69209 0.391 0.80687 0.0
N761 N 0.73112 0.33878 0.72796 0.0
H762 H 0.6446 0.34761 0.7392 0.0
H763 H 0.67266 0.33025 0.72345 0.0
H764 H 0.75409 0.33487 0.72467 0.0
H765 H 0.71734 0.33621 0.7141 0.0
H766 H 0.70694 0.40102 0.81812 0.0
H767 H 0.66933 0.39529 0.81049 0.0
H768 H 0.74698 0.37737 0.8184 0.0
H769 H 0.77609 0.36724 0.80053 0.0
C770 C 0.58631 0.20964 0.01834 0.0
C771 C 0.60995 0.18837 0.01983 0.0
C772 C 0.64664 0.22672 0.00925 0.0
C773 C 0.62406 0.24896 0.01228 0.0
N774 N 0.57278 0.26102 0.02433 0.0
N775 N 0.6641 0.17842 0.02055 0.0
C776 C 0.59383 0.24035 0.01785 0.0
C777 C 0.64057 0.19727 0.01619 0.0
N778 N 0.55665 0.20053 0.0174 0.0
N779 N 0.6736 0.23344 0.99925 0.0
H780 H 0.66103 0.1571 0.02671 0.0
H781 H 0.68681 0.18516 0.02021 0.0
H782 H 0.67824 0.25435 0.99278 0.0
H783 H 0.68969 0.21733 0.99505 0.0
H784 H 0.53871 0.21505 0.01436 0.0
H785 H 0.55041 0.17811 0.01726 0.0
H786 H 0.55148 0.25522 0.03051 0.0
H787 H 0.57752 0.28362 0.0261 0.0
C788 C 0.81956 0.124 0.29371 0.0
C789 C 0.84128 0.1141 0.27793 0.0
C790 C 0.80211 0.11358 0.24912 0.0
C791 C 0.77981 0.12004 0.26541 0.0
N792 N 0.76629 0.1285 0.30357 0.0
N793 N 0.85371 0.09757 0.24106 0.0
C794 C 0.78827 0.12482 0.28779 0.0
C795 C 0.83273 0.10852 0.25569 0.0
N796 N 0.82892 0.13275 0.31434 0.0
N797 N 0.79404 0.11305 0.22732 0.0
H798 H 0.87657 0.09462 0.24514 0.0
H799 H 0.84824 0.08973 0.2253 0.0
H800 H 0.77182 0.11686 0.22198 0.0
H801 H 0.80961 0.11137 0.21443 0.0
H802 H 0.81478 0.14329 0.32579 0.0
H803 H 0.85152 0.13163 0.31952 0.0
H804 H 0.77069 0.12841 0.32045 0.0
H805 H 0.74312 0.12951 0.29993 0.0
C806 C 0.87057 0.31094 0.50644 0.0
C807 C 0.88195 0.32024 0.52734 0.0
C808 C 0.87291 0.27042 0.54207 0.0
C809 C 0.86391 0.26049 0.52073 0.0
N810 N 0.85676 0.26973 0.48201 0.0
N811 N 0.89704 0.30874 0.56458 0.0
C812 C 0.86329 0.28036 0.50274 0.0
C813 C 0.88399 0.29993 0.54503 0.0
N814 N 0.86632 0.33148 0.4903 0.0
N815 N 0.86976 0.25191 0.55967 0.0
H816 H 0.90423 0.33049 0.56785 0.0
H817 H 0.90266 0.29415 0.57712 0.0
H818 H 0.86171 0.23012 0.55815 0.0
H819 H 0.87266 0.25872 0.57602 0.0
H820 H 0.85512 0.32695 0.4755 0.0
H821 H 0.87231 0.35384 0.49231 0.0
H822 H 0.85907 0.2822 0.46777 0.0
H823 H 0.85086 0.24759 0.47882 0.0
C824 C 0.6913 0.11138 0.50793 0.0
C825 C 0.68155 0.11716 0.48611 0.0
C826 C 0.73362 0.13057 0.4755 0.0
C827 C 0.74313 0.12607 0.49757 0.0
N828 N 0.73083 0.1172 0.53568 0.0
N829 N 0.69174 0.13638 0.44985 0.0
C830 C 0.72189 0.11786 0.51407 0.0
C831 C 0.70221 0.12812 0.47013 0.0
N832 N 0.67144 0.09907 0.52261 0.0
N833 N 0.7548 0.13571 0.45945 0.0
H834 H 0.66913 0.1338 0.44492 0.0
H835 H 0.70488 0.14775 0.43842 0.0
H836 H 0.77799 0.13788 0.46274 0.0
H837 H 0.74986 0.13564 0.44265 0.0
H838 H 0.67791 0.0911 0.53795 0.0
H839 H 0.64859 0.09508 0.51889 0.0
H840 H 0.71588 0.11437 0.5488 0.0
H841 H 0.75305 0.12194 0.54074 0.0
C842 C 0.86036 0.19275 0.74448 0.0
C843 C 0.89069 0.18198 0.74323 0.0
C844 C 0.90986 0.23247 0.74988 0.0
C845 C 0.87959 0.24263 0.75343 0.0
N846 N 0.82703 0.22982 0.76049 0.0
N847 N 0.94399 0.19034 0.75066 0.0
C848 C 0.85511 0.22197 0.7527 0.0
C849 C 0.91536 0.20145 0.74791 0.0
N850 N 0.83662 0.17586 0.73677 0.0
N851 N 0.93315 0.25221 0.74688 0.0
H852 H 0.9487 0.16761 0.74983 0.0
H853 H 0.96226 0.20337 0.75606 0.0
H854 H 0.93011 0.27517 0.74651 0.0
H855 H 0.95496 0.24563 0.74218 0.0
H856 H 0.81456 0.18411 0.73537 0.0
H857 H 0.83937 0.15482 0.72962 0.0
H858 H 0.80923 0.21461 0.76202 0.0
H859 H 0.82258 0.25046 0.76784 0.0
C860 C 0.79772 0.39441 0.01631 0.0
C861 C 0.80735 0.39704 0.99409 0.0
C862 C 0.75528 0.38756 0.98103 0.0
C863 C 0.74528 0.38701 1.00328 0.0
N864 N 0.75558 0.39215 0.04221 0.0
N865 N 0.79572 0.39898 0.95521 0.0
C866 C 0.76613 0.39107 0.02098 0.0
C867 C 0.78623 0.39432 0.97641 0.0
N868 N 0.81892 0.39451 0.03285 0.0
N869 N 0.73516 0.38129 0.96434 0.0
H870 H 0.81839 0.40278 0.95099 0.0
H871 H 0.78103 0.40095 0.94184 0.0
H872 H 0.712 0.37765 0.96696 0.0
H873 H 0.74153 0.37784 0.94797 0.0
H874 H 0.81401 0.38955 0.04918 0.0
H875 H 0.8421 0.39772 0.02999 0.0
H876 H 0.76887 0.39825 0.05575 0.0
H877 H 0.73281 0.38851 0.04626 0.0
C878 C 0.60731 0.2778 0.25947 0.0
C879 C 0.60363 0.28847 0.2377 0.0
C880 C 0.63682 0.24892 0.22331 0.0
C881 C 0.63868 0.23683 0.24473 0.0
N882 N 0.62531 0.23837 0.28327 0.0
N883 N 0.61556 0.28383 0.19856 0.0
C884 C 0.62392 0.251 0.26289 0.0
C885 C 0.61866 0.27423 0.21969 0.0
N886 N 0.59551 0.29377 0.27682 0.0
N887 N 0.65141 0.23556 0.20589 0.0
H888 H 0.60225 0.30187 0.19389 0.0
H889 H 0.60225 0.30187 0.19389 0.0
H890 H 0.66489 0.21665 0.20741 0.0
H891 H 0.65022 0.24369 0.18986 0.0
H892 H 0.59954 0.28899 0.2933 0.0
H893 H 0.58314 0.31331 0.27474 0.0
H894 H 0.61243 0.24538 0.29676 0.0
H895 H 0.63869 0.21981 0.28655 0.0
C896 C 0.11254 0.91227 0.41175 0.0
C897 C 0.09844 0.88817 0.40035 0.0
C898 C 0.09502 0.86095 0.43505 0.0
C899 C 0.11285 0.88338 0.44566 0.0
N900 N 0.14545 0.92652 0.44195 0.0
N901 N 0.08128 0.83709 0.40036 0.0
C902 C 0.12354 0.90801 0.43343 0.0
C903 C 0.09105 0.86175 0.41177 0.0
N904 N 0.11478 0.93951 0.40214 0.0
N905 N 0.08084 0.83962 0.44721 0.0
H906 H 0.07857 0.83661 0.38327 0.0
H907 H 0.0786 0.81637 0.40763 0.0
H908 H 0.08221 0.83884 0.46436 0.0
H909 H 0.06523 0.82455 0.44047 0.0
H910 H 0.12236 0.95844 0.41064 0.0
H911 H 0.106 0.94392 0.38653 0.0
H912 H 0.15591 0.94308 0.43275 0.0
H913 H 0.15581 0.92314 0.4572 0.0
C914 C 0.14293 0.57776 0.66609 0.0
C915 C 0.13844 0.59823 0.64881 0.0
C916 C 0.14875 0.64009 0.67413 0.0
C917 C 0.15052 0.61979 0.69183 0.0
N918 N 0.14834 0.56968 0.70545 0.0
N919 N 0.13446 0.64863 0.63605 0.0
C920 C 0.14737 0.58869 0.68803 0.0
C921 C 0.14089 0.62935 0.6527 0.0
N922 N 0.14354 0.54793 0.66135 0.0
N923 N 0.15451 0.66968 0.67781 0.0
H924 H 0.12961 0.64167 0.61993 0.0
H925 H 0.13204 0.67149 0.63834 0.0
H926 H 0.15843 0.67885 0.69344 0.0
H927 H 0.15726 0.68506 0.66529 0.0
H928 H 0.14967 0.53178 0.67264 0.0
H929 H 0.13989 0.53927 0.64551 0.0
H930 H 0.14267 0.54723 0.70434 0.0
H931 H 0.15357 0.57664 0.72151 0.0
C932 C 0.41998 0.62933 0.91104 0.0
C933 C 0.39823 0.61959 0.89522 0.0
C934 C 0.3573 0.62649 0.92224 0.0
C935 C 0.37881 0.63827 0.93751 0.0
N936 N 0.42915 0.6576 0.94467 0.0
N937 N 0.34574 0.61444 0.88403 0.0
C938 C 0.40978 0.64158 0.93143 0.0
C939 C 0.3667 0.61983 0.9003 0.0
N940 N 0.45037 0.62608 0.90687 0.0
N941 N 0.32823 0.62053 0.92892 0.0
H942 H 0.35178 0.60958 0.86773 0.0
H943 H 0.32243 0.61738 0.88622 0.0
H944 H 0.32053 0.62486 0.94492 0.0
H945 H 0.31248 0.60897 0.91921 0.0
H946 H 0.46715 0.62978 0.91875 0.0
H947 H 0.45877 0.61724 0.89208 0.0
H948 H 0.45125 0.6632 0.94009 0.0
H949 H 0.42205 0.66809 0.95921 0.0
C950 C 0.40693 0.9197 0.17138 0.0
C951 C 0.39533 0.90272 0.15335 0.0
C952 C 0.37814 0.86399 0.17853 0.0
C953 C 0.38851 0.88158 0.19669 0.0
N954 N 0.40574 0.92915 0.21083 0.0
N955 N 0.36358 0.86257 0.13995 0.0
C956 C 0.40077 0.91039 0.19324 0.0
C957 C 0.37883 0.8761 0.15702 0.0
N958 N 0.4249 0.94399 0.16765 0.0
N959 N 0.36939 0.83512 0.18155 0.0
H960 H 0.36357 0.87093 0.12397 0.0
H961 H 0.34866 0.8448 0.14205 0.0
H962 H 0.36911 0.82502 0.19692 0.0
H963 H 0.36498 0.8203 0.16856 0.0
H964 H 0.43689 0.95515 0.18008 0.0
H965 H 0.42974 0.95169 0.15188 0.0
H966 H 0.41182 0.95142 0.20918 0.0
H967 H 0.40082 0.92331 0.22705 0.0
C968 C 0.09383 0.59182 0.84957 0.0
C969 C 0.10378 0.60897 0.86803 0.0
C970 C 0.12859 0.64439 0.84346 0.0
C971 C 0.12128 0.62567 0.82515 0.0
N972 N 0.10118 0.57921 0.81093 0.0
N973 N 0.13463 0.64883 0.8831 0.0
C974 C 0.10492 0.59876 0.82821 0.0
C975 C 0.12231 0.6345 0.86514 0.0
N976 N 0.07329 0.56931 0.85242 0.0
N977 N 0.14029 0.6722 0.84011 0.0
H978 H 0.13035 0.64246 0.8993 0.0
H979 H 0.15108 0.66545 0.88193 0.0
H980 H 0.14462 0.6806 0.82446 0.0
H981 H 0.14299 0.68802 0.85268 0.0
H982 H 0.06263 0.55811 0.83938 0.0
H983 H 0.06494 0.56342 0.86788 0.0
H984 H 0.09236 0.55785 0.81266 0.0
H985 H 0.10937 0.58326 0.7951 0.0
C986 C 0.42076 0.58391 0.09202 0.0
C987 C 0.41378 0.60211 0.11062 0.0
C988 C 0.39054 0.6393 0.08675 0.0
C989 C 0.39729 0.62099 0.06811 0.0
N990 N 0.41205 0.57325 0.05315 0.0
N991 N 0.38641 0.64348 0.1266 0.0
C992 C 0.41032 0.59242 0.07082 0.0
C993 C 0.39674 0.62862 0.10825 0.0
N994 N 0.43826 0.55909 0.09454 0.0
N995 N 0.3799 0.66755 0.08388 0.0
H996 H 0.391 0.63651 0.14262 0.0
H997 H 0.37121 0.66117 0.12603 0.0
H998 H 0.37477 0.67617 0.06845 0.0
H999 H 0.37813 0.68324 0.0966 0.0
H1000 H 0.44722 0.54683 0.08138 0.0
H1001 H 0.44546 0.55167 0.10992 0.0
H1002 H 0.41859 0.55109 0.05438 0.0
H1003 H 0.4042 0.57874 0.03747 0.0
C1004 C 0.41528 0.88887 0.35368 0.0
C1005 C 0.39347 0.88721 0.37087 0.0
C1006 C 0.35602 0.86702 0.34474 0.0
C1007 C 0.37883 0.86544 0.32816 0.0
N1008 N 0.43217 0.86847 0.3187 0.0
N1009 N 0.3453 0.8683 0.38387 0.0
C1010 C 0.40906 0.8746 0.33311 0.0
C1011 C 0.36449 0.87431 0.36675 0.0
N1012 N 0.44149 0.90485 0.3567 0.0
N1013 N 0.32606 0.86317 0.33935 0.0
H1014 H 0.35094 0.87268 0.40033 0.0
H1015 H 0.32518 0.85624 0.38191 0.0
H1016 H 0.31862 0.85951 0.32321 0.0
H1017 H 0.30837 0.86695 0.35048 0.0
H1018 H 0.45664 0.9093 0.34392 0.0
H1019 H 0.4467 0.91606 0.3714 0.0
H1020 H 0.45502 0.87215 0.32248 0.0
H1021 H 0.42889 0.85663 0.304 0.0
C1022 C 0.11239 0.85912 0.61822 0.0
C1023 C 0.09834 0.88699 0.62247 0.0
C1024 C 0.10472 0.90028 0.58372 0.0
C1025 C 0.11598 0.87125 0.57901 0.0
N1026 N 0.12315 0.8207 0.59106 0.0
N1027 N 0.07481 0.9313 0.60839 0.0
C1028 C 0.11769 0.84996 0.59606 0.0
C1029 C 0.09253 0.90672 0.60494 0.0
N1030 N 0.12165 0.84182 0.63533 0.0
N1031 N 0.1072 0.92228 0.56851 0.0
H1032 H 0.0652 0.93663 0.62367 0.0
H1033 H 0.06725 0.94473 0.59564 0.0
H1034 H 0.11724 0.9191 0.55315 0.0
H1035 H 0.10225 0.9445 0.57204 0.0
H1036 H 0.13485 0.82278 0.63312 0.0
H1037 H 0.11872 0.84795 0.65185 0.0
H1038 H 0.1217 0.80387 0.60266 0.0
H1039 H 0.12577 0.81273 0.57493 0.0
C1040 C 0.60798 0.41727 0.91137 0.0
C1041 C 0.59506 0.39217 0.90042 0.0
C1042 C 0.59545 0.36533 0.93532 0.0
C1043 C 0.61269 0.38872 0.94528 0.0
N1044 N 0.64256 0.43346 0.94 0.0
N1045 N 0.58317 0.33961 0.90118 0.0
C1046 C 0.621 0.41378 0.93255 0.0
C1047 C 0.59068 0.36535 0.91214 0.0
N1048 N 0.60717 0.44465 0.90189 0.0
N1049 N 0.58241 0.34381 0.94794 0.0
H1050 H 0.58076 0.33828 0.88408 0.0
H1051 H 0.58257 0.31901 0.90885 0.0
H1052 H 0.58356 0.34389 0.96511 0.0
H1053 H 0.56746 0.32788 0.94148 0.0
H1054 H 0.61402 0.464 0.9102 0.0
H1055 H 0.59653 0.44848 0.8868 0.0
H1056 H 0.65104 0.45057 0.93031 0.0
H1057 H 0.65469 0.43058 0.9546 0.0
C1058 C 0.64031 0.12317 0.14759 0.0
C1059 C 0.64179 0.09254 0.14175 0.0
C1060 C 0.66446 0.08146 0.17766 0.0
C1061 C 0.66004 0.11155 0.18428 0.0
N1062 N 0.63919 0.16009 0.17705 0.0
N1063 N 0.65187 0.04178 0.15163 0.0
C1064 C 0.64686 0.13223 0.16962 0.0
C1065 C 0.65297 0.07143 0.15689 0.0
N1066 N 0.63312 0.14367 0.13196 0.0
N1067 N 0.6806 0.0628 0.19087 0.0
H1068 H 0.64427 0.03374 0.13636 0.0
H1069 H 0.65643 0.02506 0.16287 0.0
H1070 H 0.68966 0.06952 0.20605 0.0
H1071 H 0.68731 0.0415 0.18601 0.0
H1072 H 0.63496 0.16654 0.13459 0.0
H1073 H 0.62777 0.13788 0.11568 0.0
H1074 H 0.62651 0.17503 0.16785 0.0
H1075 H 0.64303 0.16744 0.19321 0.0
C1076 C 0.93223 0.11403 0.42514 0.0
C1077 C 0.9146 0.12075 0.40625 0.0
C1078 C 0.87059 0.13255 0.42958 0.0
C1079 C 0.88839 0.12636 0.44851 0.0
N1080 N 0.93729 0.1171 0.465 0.0
N1081 N 0.86926 0.14133 0.39015 0.0
C1082 C 0.91961 0.11884 0.44649 0.0
C1083 C 0.88448 0.13169 0.40839 0.0
N1084 N 0.9607 0.10225 0.42261 0.0
N1085 N 0.84008 0.13775 0.43176 0.0
H1086 H 0.87842 0.14022 0.37428 0.0
H1087 H 0.84855 0.15249 0.39084 0.0
H1088 H 0.82917 0.13893 0.44701 0.0
H1089 H 0.82508 0.13889 0.4185 0.0
H1090 H 0.97333 0.0935 0.43551 0.0
H1091 H 0.97117 0.09961 0.40726 0.0
H1092 H 0.96084 0.11468 0.46464 0.0
H1093 H 0.92873 0.1206 0.48088 0.0
C1094 C 0.91617 0.41139 0.67054 0.0
C1095 C 0.90183 0.3983 0.6518 0.0
C1096 C 0.87569 0.36255 0.67535 0.0
C1097 C 0.88806 0.37715 0.69427 0.0
N1098 N 0.91584 0.41847 0.71028 0.0
N1099 N 0.86371 0.3653 0.63643 0.0
C1100 C 0.9072 0.40241 0.69199 0.0
C1101 C 0.88028 0.37504 0.65424 0.0
N1102 N 0.93893 0.4318 0.66778 0.0
N1103 N 0.86087 0.33593 0.6774 0.0
H1104 H 0.86654 0.37375 0.62061 0.0
H1105 H 0.84532 0.35075 0.63767 0.0
H1106 H 0.85758 0.32555 0.6925 0.0
H1107 H 0.85436 0.32269 0.66396 0.0
H1108 H 0.95258 0.4397 0.68064 0.0
H1109 H 0.94577 0.43921 0.65231 0.0
H1110 H 0.9271 0.43883 0.70956 0.0
H1111 H 0.90939 0.41276 0.72624 0.0
C1112 C 0.64483 0.10365 0.35544 0.0
C1113 C 0.61271 0.10458 0.35782 0.0
C1114 C 0.60664 0.1088 0.31778 0.0
C1115 C 0.63853 0.10526 0.31529 0.0
N1116 N 0.68803 0.09637 0.33103 0.0
N1117 N 0.56257 0.10448 0.34166 0.0
C1118 C 0.65767 0.10181 0.33394 0.0
C1119 C 0.59345 0.10629 0.33909 0.0
N1120 N 0.66301 0.10543 0.37375 0.0
N1121 N 0.58906 0.11495 0.29978 0.0
H1122 H 0.55209 0.10309 0.35705 0.0
H1123 H 0.54737 0.10222 0.32856 0.0
H1124 H 0.59778 0.11587 0.28379 0.0
H1125 H 0.56629 0.12114 0.30079 0.0
H1126 H 0.68652 0.10809 0.37313 0.0
H1127 H 0.65438 0.1066 0.38978 0.0
H1128 H 0.70263 0.09034 0.34373 0.0
H1129 H 0.69844 0.09594 0.31556 0.0
C1130 C 0.85443 0.08194 0.60127 0.0
C1131 C 0.86829 0.09893 0.61842 0.0
C1132 C 0.87098 0.14233 0.59441 0.0
C1133 C 0.85551 0.12584 0.57773 0.0
N1134 N 0.82715 0.08224 0.56647 0.0
N1135 N 0.88491 0.14649 0.63304 0.0
C1136 C 0.84571 0.09625 0.58148 0.0
C1137 C 0.87516 0.12952 0.61549 0.0
N1138 N 0.85034 0.052 0.60371 0.0
N1139 N 0.88254 0.16985 0.58985 0.0
H1140 H 0.88848 0.13789 0.64873 0.0
H1141 H 0.8871 0.16953 0.63259 0.0
H1142 H 0.87953 0.18013 0.57468 0.0
H1143 H 0.89703 0.18158 0.60044 0.0
H1144 H 0.84348 0.0378 0.59093 0.0
H1145 H 0.85602 0.04091 0.61814 0.0
H1146 H 0.81674 0.0618 0.56922 0.0
H1147 H 0.81985 0.09234 0.55201 0.0
C1148 C 0.86507 0.36938 0.86553 0.0
C1149 C 0.89359 0.38379 0.86834 0.0
C1150 C 0.90454 0.37641 0.82904 0.0
C1151 C 0.87446 0.36553 0.82571 0.0
N1152 N 0.82416 0.35661 0.84045 0.0
N1153 N 0.93847 0.40562 0.85227 0.0
C1154 C 0.85418 0.36327 0.84387 0.0
C1155 C 0.91278 0.38866 0.84994 0.0
N1156 N 0.84875 0.36072 0.88355 0.0
N1157 N 0.92578 0.37364 0.81266 0.0
H1158 H 0.94525 0.41503 0.86733 0.0
H1159 H 0.95151 0.41255 0.83893 0.0
H1160 H 0.92125 0.3634 0.79747 0.0
H1161 H 0.94876 0.37853 0.815 0.0
H1162 H 0.82942 0.34731 0.88246 0.0
H1163 H 0.85608 0.3645 0.89973 0.0
H1164 H 0.80777 0.35796 0.85283 0.0
H1165 H 0.81497 0.35253 0.82486 0.0
C1166 C 0.61675 0.36846 0.11649 0.0
C1167 C 0.58707 0.38071 0.1175 0.0
C1168 C 0.59084 0.39523 0.07877 0.0
C1169 C 0.6184 0.37889 0.07694 0.0
N1170 N 0.66424 0.36596 0.09644 0.0
N1171 N 0.54507 0.40535 0.09991 0.0
C1172 C 0.63344 0.37005 0.09651 0.0
C1173 C 0.57394 0.39417 0.09875 0.0
N1174 N 0.62858 0.35435 0.1344 0.0
N1175 N 0.58246 0.41407 0.06236 0.0
H1176 H 0.53247 0.40605 0.1145 0.0
H1177 H 0.53279 0.41202 0.08615 0.0
H1178 H 0.59688 0.41923 0.04931 0.0
H1179 H 0.56371 0.42812 0.06333 0.0
H1180 H 0.64852 0.34188 0.13377 0.0
H1181 H 0.61726 0.35304 0.14948 0.0
H1182 H 0.67688 0.36171 0.11059 0.0
H1183 H 0.67776 0.37142 0.08295 0.0
loop_
_geom_bond_atom_site_label_1
_geom_bond_atom_site_label_2
_geom_bond_distance
_geom_bond_site_symmetry_2
_ccdc_geom_bond_type
H0 C27 0.929 . S
N1 C26 1.433 . S
N1 C32 1.435 . S
N1 C38 1.423 . S
H2 C28 0.930 . S
H3 C31 0.931 . S
H4 C30 0.929 . S
H5 C33 0.930 . S
H6 C34 0.932 . S
H7 C37 0.929 . S
H8 C36 0.931 . S
H9 C39 0.926 1_545 S
H10 C43 0.932 . S
H11 C40 0.931 . S
H12 C42 0.929 . S
H13 C45 0.929 . S
H14 C46 0.930 . S
H15 C48 0.929 . S
H16 C49 0.931 . S
H17 C51 0.930 . S
H18 C52 0.932 . S
H19 C54 0.931 . S
H20 C55 0.929 . S
H21 C57 0.929 . S
H22 C58 0.931 . S
H23 C60 0.929 . S
N24 C44 1.433 . S
N24 C50 1.435 . S
N24 C56 1.423 . S
H25 C61 0.932 . S
C26 N1 1.433 . S
C26 C27 1.363 . S
C26 C31 1.370 . S
C27 H0 0.929 . S
C27 C26 1.363 . S
C27 C28 1.385 . S
C28 H2 0.930 . S
C28 C27 1.385 . S
C28 C29 1.357 . S
C29 C28 1.357 . S
C29 C30 1.406 . S
C30 H4 0.929 . S
C30 C29 1.406 . S
C30 C31 1.391 . S
C31 H3 0.931 . S
C31 C26 1.370 . S
C31 C30 1.391 . S
C32 N1 1.435 . S
C32 C33 1.358 . S
C32 C37 1.371 . S
C33 H5 0.930 . S
C33 C32 1.358 . S
C33 C34 1.405 . S
C34 H6 0.932 . S
C34 C33 1.405 . S
C34 C35 1.383 . S
C35 C34 1.383 . S
C35 C36 1.393 . S
C36 H8 0.931 . S
C36 C35 1.393 . S
C36 C37 1.382 . S
C37 H7 0.929 . S
C37 C32 1.371 . S
C37 C36 1.382 . S
C38 N1 1.423 . S
C38 C39 1.383 . S
C38 C43 1.388 . S
C39 H9 0.926 1_565 S
C39 C38 1.383 . S
C39 C40 1.359 1_565 S
C40 H11 0.931 . S
C40 C39 1.359 1_545 S
C40 C41 1.396 . S
C41 C40 1.396 . S
C41 C42 1.348 1_545 S
C41 C59 1.472 . S
C42 H12 0.929 . S
C42 C41 1.348 1_565 S
C42 C43 1.443 . S
C43 H10 0.932 . S
C43 C38 1.388 . S
C43 C42 1.443 . S
C44 N24 1.433 . S
C44 C45 1.363 . S
C44 C49 1.370 . S
C45 H13 0.929 . S
C45 C44 1.363 . S
C45 C46 1.385 . S
C46 H14 0.930 . S
C46 C45 1.385 . S
C46 C47 1.357 . S
C47 C46 1.357 . S
C47 C48 1.406 . S
C48 H15 0.929 . S
C48 C47 1.406 . S
C48 C49 1.391 . S
C49 H16 0.931 . S
C49 C44 1.370 . S
C49 C48 1.391 . S
C50 N24 1.435 . S
C50 C51 1.358 . S
C50 C55 1.371 . S
C51 H17 0.930 . S
C51 C50 1.358 . S
C51 C52 1.405 . S
C52 H18 0.932 . S
C52 C51 1.405 . S
C52 C53 1.383 . S
C53 C52 1.383 . S
C53 C54 1.393 . S
C54 H19 0.931 . S
C54 C53 1.393 . S
C54 C55 1.382 . S
C55 H20 0.929 . S
C55 C50 1.371 . S
C55 C54 1.382 . S
C56 N24 1.423 . S
C56 C57 1.362 . S
C56 C61 1.388 . S
C57 H21 0.929 . S
C57 C56 1.362 . S
C57 C58 1.376 1_655 S
C58 H22 0.931 . S
C58 C57 1.376 1_455 S
C58 C59 1.396 . S
C59 C41 1.472 . S
C59 C58 1.396 . S
C59 C60 1.348 1_455 S
C60 H23 0.929 . S
C60 C59 1.348 1_655 S
C60 C61 1.443 . S
C61 H25 0.932 . S
C61 C56 1.388 . S
C61 C60 1.443 . S
H62 C89 0.929 . S
N63 C88 1.433 . S
N63 C94 1.435 . S
N63 C100 1.423 . S
H64 C90 0.930 . S
H65 C93 0.931 . S
H66 C92 0.929 . S
H67 C95 0.930 . S
H68 C96 0.932 . S
H69 C99 0.929 . S
H70 C98 0.931 . S
H71 C101 0.929 . S
H72 C105 0.932 . S
H73 C102 0.931 . S
H74 C104 0.929 . S
H75 C107 0.929 . S
H76 C108 0.930 . S
H77 C110 0.929 . S
H78 C111 0.931 . S
H79 C113 0.930 . S
H80 C114 0.932 . S
H81 C116 0.931 . S
H82 C117 0.929 . S
H83 C119 0.929 . S
H84 C120 0.931 . S
H85 C122 0.929 . S
N86 C106 1.433 . S
N86 C112 1.435 . S
N86 C118 1.423 . S
H87 C123 0.932 . S
C88 N63 1.433 . S
C88 C89 1.363 . S
C88 C93 1.370 . S
C89 H62 0.929 . S
C89 C88 1.363 . S
C89 C90 1.385 . S
C90 H64 0.930 . S
C90 C89 1.385 . S
C90 C91 1.357 . S
C91 C90 1.357 . S
C91 C92 1.406 . S
C92 H66 0.929 . S
C92 C91 1.406 . S
C92 C93 1.391 . S
C93 H65 0.931 . S
C93 C88 1.370 . S
C93 C92 1.391 . S
C94 N63 1.435 . S
C94 C95 1.358 . S
C94 C99 1.371 . S
C95 H67 0.930 . S
C95 C94 1.358 . S
C95 C96 1.405 . S
C96 H68 0.932 . S
C96 C95 1.405 . S
C96 C97 1.383 . S
C97 C96 1.383 . S
C97 C98 1.393 . S
C98 H70 0.931 . S
C98 C97 1.393 . S
C98 C99 1.382 . S
C99 H69 0.929 . S
C99 C94 1.371 . S
C99 C98 1.382 . S
C100 N63 1.423 . S
C100 C101 1.362 1_655 S
C100 C105 1.388 . S
C101 H71 0.929 . S
C101 C100 1.362 1_455 S
C101 C102 1.376 . S
C102 H73 0.931 . S
C102 C101 1.376 . S
C102 C103 1.396 . S
C103 C102 1.396 . S
C103 C104 1.348 1_455 S
C103 C121 1.472 . S
C104 H74 0.929 . S
C104 C103 1.348 1_655 S
C104 C105 1.443 . S
C105 H72 0.932 . S
C105 C100 1.388 . S
C105 C104 1.443 . S
C106 N86 1.433 . S
C106 C107 1.363 . S
C106 C111 1.370 . S
C107 H75 0.929 . S
C107 C106 1.363 . S
C107 C108 1.385 . S
C108 H76 0.930 . S
C108 C107 1.385 . S
C108 C109 1.357 . S
C109 C108 1.357 . S
C109 C110 1.406 . S
C110 H77 0.929 . S
C110 C109 1.406 . S
C110 C111 1.391 . S
C111 H78 0.931 . S
C111 C106 1.370 . S
C111 C110 1.391 . S
C112 N86 1.435 . S
C112 C113 1.358 . S
C112 C117 1.371 . S
C113 H79 0.930 . S
C113 C112 1.358 . S
C113 C114 1.405 . S
C114 H80 0.932 . S
C114 C113 1.405 . S
C114 C115 1.383 . S
C115 C114 1.383 . S
C115 C116 1.393 . S
C116 H81 0.931 . S
C116 C115 1.393 . S
C116 C117 1.382 . S
C117 H82 0.929 . S
C117 C112 1.371 . S
C117 C116 1.382 . S
C118 N86 1.423 . S
C118 C119 1.362 . S
C118 C123 1.388 . S
C119 H83 0.929 . S
C119 C118 1.362 . S
C119 C120 1.376 . S
C120 H84 0.931 . S
C120 C119 1.376 . S
C120 C121 1.396 . S
C121 C103 1.472 . S
C121 C120 1.396 . S
C121 C122 1.348 . S
C122 H85 0.929 . S
C122 C121 1.348 . S
C122 C123 1.443 . S
C123 H87 0.932 . S
C123 C118 1.388 . S
C123 C122 1.443 . S
H124 C151 0.929 . S
N125 C150 1.433 . S
N125 C156 1.435 . S
N125 C162 1.423 . S
H126 C152 0.930 . S
H127 C155 0.931 . S
H128 C154 0.929 . S
H129 C157 0.930 . S
H130 C158 0.932 . S
H131 C161 0.929 . S
H132 C160 0.931 . S
H133 C163 0.929 . S
H134 C167 0.932 . S
H135 C164 0.931 . S
H136 C166 0.929 . S
H137 C169 0.929 . S
H138 C170 0.930 . S
H139 C172 0.929 . S
H140 C173 0.931 . S
H141 C175 0.930 . S
H142 C176 0.932 . S
H143 C178 0.931 . S
H144 C179 0.929 . S
H145 C181 0.929 . S
H146 C182 0.931 . S
H147 C184 0.929 . S
N148 C168 1.433 . S
N148 C174 1.435 . S
N148 C180 1.423 . S
H149 C185 0.932 . S
C150 N125 1.433 . S
C150 C151 1.363 . S
C150 C155 1.370 . S
C151 H124 0.929 . S
C151 C150 1.363 . S
C151 C152 1.385 . S
C152 H126 0.930 . S
C152 C151 1.385 . S
C152 C153 1.357 . S
C153 C152 1.357 . S
C153 C154 1.406 . S
C154 H128 0.929 . S
C154 C153 1.406 . S
C154 C155 1.391 . S
C155 H127 0.931 . S
C155 C150 1.370 . S
C155 C154 1.391 . S
C156 N125 1.435 . S
C156 C157 1.358 . S
C156 C161 1.371 . S
C157 H129 0.930 . S
C157 C156 1.358 . S
C157 C158 1.405 . S
C158 H130 0.932 . S
C158 C157 1.405 . S
C158 C159 1.383 . S
C159 C158 1.383 . S
C159 C160 1.393 . S
C160 H132 0.931 . S
C160 C159 1.393 . S
C160 C161 1.382 . S
C161 H131 0.929 . S
C161 C156 1.371 . S
C161 C160 1.382 . S
C162 N125 1.423 . S
C162 C163 1.362 . S
C162 C167 1.388 . S
C163 H133 0.929 . S
C163 C162 1.362 . S
C163 C164 1.376 . S
C164 H135 0.931 . S
C164 C163 1.376 . S
C164 C165 1.396 . S
C165 C164 1.396 . S
C165 C166 1.348 . S
C165 C183 1.472 . S
C166 H136 0.929 . S
C166 C165 1.348 . S
C166 C167 1.443 . S
C167 H134 0.932 . S
C167 C162 1.388 . S
C167 C166 1.443 . S
C168 N148 1.433 . S
C168 C169 1.363 . S
C168 C173 1.370 . S
C169 H137 0.929 . S
C169 C168 1.363 . S
C169 C170 1.385 . S
C170 H138 0.930 . S
C170 C169 1.385 . S
C170 C171 1.357 . S
C171 C170 1.357 . S
C171 C172 1.406 . S
C172 H139 0.929 . S
C172 C171 1.406 . S
C172 C173 1.391 . S
C173 H140 0.931 . S
C173 C168 1.370 . S
C173 C172 1.391 . S
C174 N148 1.435 . S
C174 C175 1.358 . S
C174 C179 1.371 . S
C175 H141 0.930 . S
C175 C174 1.358 . S
C175 C176 1.405 . S
C176 H142 0.932 . S
C176 C175 1.405 . S
C176 C177 1.383 . S
C177 C176 1.383 . S
C177 C178 1.393 . S
C178 H143 0.931 . S
C178 C177 1.393 . S
C178 C179 1.382 . S
C179 H144 0.929 . S
C179 C174 1.371 . S
C179 C178 1.382 . S
C180 N148 1.423 . S
C180 C181 1.362 . S
C180 C185 1.388 . S
C181 H145 0.929 . S
C181 C180 1.362 . S
C181 C182 1.376 . S
C182 H146 0.931 . S
C182 C181 1.376 . S
C182 C183 1.396 . S
C183 C165 1.472 . S
C183 C182 1.396 . S
C183 C184 1.348 . S
C184 H147 0.929 . S
C184 C183 1.348 . S
C184 C185 1.443 . S
C185 H149 0.932 . S
C185 C180 1.388 . S
C185 C184 1.443 . S
H186 C213 0.929 . S
N187 C212 1.433 . S
N187 C218 1.435 . S
N187 C224 1.423 . S
H188 C214 0.930 . S
H189 C217 0.931 . S
H190 C216 0.929 . S
H191 C219 0.930 . S
H192 C220 0.932 . S
H193 C223 0.929 . S
H194 C222 0.931 1_556 S
H195 C225 0.929 . S
H196 C229 0.932 . S
H197 C226 0.931 . S
H198 C228 0.929 . S
H199 C231 0.929 . S
H200 C232 0.930 . S
H201 C234 0.929 . S
H202 C235 0.931 . S
H203 C237 0.930 . S
H204 C238 0.932 . S
H205 C240 0.931 1_556 S
H206 C241 0.929 . S
H207 C243 0.929 . S
H208 C244 0.931 1_565 S
H209 C246 0.929 . S
N210 C230 1.433 . S
N210 C236 1.435 . S
N210 C242 1.423 . S
H211 C247 0.932 . S
C212 N187 1.433 . S
C212 C213 1.363 . S
C212 C217 1.370 . S
C213 H186 0.929 . S
C213 C212 1.363 . S
C213 C214 1.385 . S
C214 H188 0.930 . S
C214 C213 1.385 . S
C214 C215 1.357 . S
C215 C214 1.357 . S
C215 C216 1.406 . S
C216 H190 0.929 . S
C216 C215 1.406 . S
C216 C217 1.391 . S
C217 H189 0.931 . S
C217 C212 1.370 . S
C217 C216 1.391 . S
C218 N187 1.435 . S
C218 C219 1.358 . S
C218 C223 1.371 . S
C219 H191 0.930 . S
C219 C218 1.358 . S
C219 C220 1.405 . S
C220 H192 0.932 . S
C220 C219 1.405 . S
C220 C221 1.383 . S
C221 C220 1.383 . S
C221 C222 1.393 . S
C222 H194 0.931 1_554 S
C222 C221 1.393 . S
C222 C223 1.382 . S
C223 H193 0.929 . S
C223 C218 1.371 . S
C223 C222 1.382 . S
C224 N187 1.423 . S
C224 C225 1.362 . S
C224 C229 1.388 . S
C225 H195 0.929 . S
C225 C224 1.362 . S
C225 C226 1.376 . S
C226 H197 0.931 . S
C226 C225 1.376 . S
C226 C227 1.396 . S
C227 C226 1.396 . S
C227 C228 1.348 . S
C227 C245 1.472 1_565 S
C228 H198 0.929 . S
C228 C227 1.348 . S
C228 C229 1.443 . S
C229 H196 0.932 . S
C229 C224 1.388 . S
C229 C228 1.443 . S
C230 N210 1.433 . S
C230 C231 1.363 . S
C230 C235 1.370 . S
C231 H199 0.929 . S
C231 C230 1.363 . S
C231 C232 1.385 . S
C232 H200 0.930 . S
C232 C231 1.385 . S
C232 C233 1.357 . S
C233 C232 1.357 . S
C233 C234 1.406 . S
C234 H201 0.929 . S
C234 C233 1.406 . S
C234 C235 1.391 . S
C235 H202 0.931 . S
C235 C230 1.370 . S
C235 C234 1.391 . S
C236 N210 1.435 . S
C236 C237 1.358 . S
C236 C241 1.371 . S
C237 H203 0.930 . S
C237 C236 1.358 . S
C237 C238 1.405 . S
C238 H204 0.932 . S
C238 C237 1.405 . S
C238 C239 1.383 . S
C239 C238 1.383 . S
C239 C240 1.393 . S
C240 H205 0.931 1_554 S
C240 C239 1.393 . S
C240 C241 1.382 . S
C241 H206 0.929 . S
C241 C236 1.371 . S
C241 C240 1.382 . S
C242 N210 1.423 . S
C242 C243 1.362 . S
C242 C247 1.388 . S
C243 H207 0.929 . S
C243 C242 1.362 . S
C243 C244 1.376 . S
C244 H208 0.931 1_545 S
C244 C243 1.376 . S
C244 C245 1.396 . S
C245 C227 1.472 1_545 S
C245 C244 1.396 . S
C245 C246 1.348 . S
C246 H209 0.929 . S
C246 C245 1.348 . S
C246 C247 1.443 . S
C247 H211 0.932 . S
C247 C242 1.388 . S
C247 C246 1.443 . S
H248 C275 0.929 . S
N249 C274 1.433 . S
N249 C280 1.435 . S
N249 C286 1.423 . S
H250 C276 0.930 . S
H251 C279 0.931 . S
H252 C278 0.929 . S
H253 C281 0.930 . S
H254 C282 0.932 . S
H255 C285 0.929 . S
H256 C284 0.921 1_554 S
H257 C287 0.929 . S
H258 C291 0.932 . S
H259 C288 0.931 . S
H260 C290 0.929 . S
H261 C293 0.929 . S
H262 C294 0.930 . S
H263 C296 0.929 . S
H264 C297 0.931 . S
H265 C299 0.930 . S
H266 C300 0.932 . S
H267 C302 0.931 1_554 S
H268 C303 0.929 . S
H269 C305 0.929 . S
H270 C306 0.906 1_455 S
H271 C308 0.929 . S
N272 C292 1.433 . S
N272 C298 1.435 . S
N272 C304 1.423 . S
H273 C309 0.932 . S
C274 N249 1.433 . S
C274 C275 1.363 . S
C274 C279 1.370 . S
C275 H248 0.929 . S
C275 C274 1.363 . S
C275 C276 1.385 . S
C276 H250 0.930 . S
C276 C275 1.385 . S
C276 C277 1.357 . S
C277 C276 1.357 . S
C277 C278 1.406 . S
C278 H252 0.929 . S
C278 C277 1.406 . S
C278 C279 1.391 . S
C279 H251 0.931 . S
C279 C274 1.370 . S
C279 C278 1.391 . S
C280 N249 1.435 . S
C280 C281 1.358 . S
C280 C285 1.371 . S
C281 H253 0.930 . S
C281 C280 1.358 . S
C281 C282 1.405 . S
C282 H254 0.932 . S
C282 C281 1.405 . S
C282 C283 1.403 . S
C283 C282 1.403 . S
C283 C284 1.393 . S
C284 H256 0.921 1_556 S
C284 C283 1.393 . S
C284 C285 1.391 . S
C285 H255 0.929 . S
C285 C280 1.371 . S
C285 C284 1.391 . S
C286 N249 1.423 . S
C286 C287 1.362 . S
C286 C291 1.388 . S
C287 H257 0.929 . S
C287 C286 1.362 . S
C287 C288 1.376 . S
C288 H259 0.931 . S
C288 C287 1.376 . S
C288 C289 1.396 . S
C289 C288 1.396 . S
C289 C290 1.348 . S
C289 C307 1.472 . S
C290 H260 0.929 . S
C290 C289 1.348 . S
C290 C291 1.443 . S
C291 H258 0.932 . S
C291 C286 1.388 . S
C291 C290 1.443 . S
C292 N272 1.433 . S
C292 C293 1.363 . S
C292 C297 1.370 . S
C293 H261 0.929 . S
C293 C292 1.363 . S
C293 C294 1.385 . S
C294 H262 0.930 . S
C294 C293 1.385 . S
C294 C295 1.357 . S
C295 C294 1.357 . S
C295 C296 1.406 . S
C296 H263 0.929 . S
C296 C295 1.406 . S
C296 C297 1.391 . S
C297 H264 0.931 . S
C297 C292 1.370 . S
C297 C296 1.391 . S
C298 N272 1.435 . S
C298 C299 1.358 . S
C298 C303 1.371 . S
C299 H265 0.930 . S
C299 C298 1.358 . S
C299 C300 1.405 . S
C300 H266 0.932 . S
C300 C299 1.405 . S
C300 C301 1.383 . S
C301 C300 1.383 . S
C301 C302 1.393 . S
C302 H267 0.931 1_556 S
C302 C301 1.393 . S
C302 C303 1.382 . S
C303 H268 0.929 . S
C303 C298 1.371 . S
C303 C302 1.382 . S
C304 N272 1.423 . S
C304 C305 1.362 . S
C304 C309 1.388 . S
C305 H269 0.929 . S
C305 C304 1.362 . S
C305 C306 1.405 . S
C306 H270 0.906 1_655 S
C306 C305 1.405 . S
C306 C307 1.393 1_655 S
C307 C289 1.472 . S
C307 C306 1.393 1_455 S
C307 C308 1.348 1_455 S
C308 H271 0.929 . S
C308 C307 1.348 1_655 S
C308 C309 1.443 . S
C309 H273 0.932 . S
C309 C304 1.388 . S
C309 C308 1.443 . S
H310 C337 0.929 . S
N311 C336 1.433 . S
N311 C342 1.435 . S
N311 C348 1.423 . S
H312 C338 0.930 . S
H313 C341 0.931 . S
H314 C340 0.929 . S
H315 C343 0.930 . S
H316 C344 0.932 . S
H317 C347 0.929 . S
H318 C346 0.931 . S
H319 C349 0.929 . S
H320 C353 0.932 . S
H321 C350 0.931 . S
H322 C352 0.929 . S
H323 C355 0.929 . S
H324 C356 0.930 . S
H325 C358 0.929 . S
H326 C359 0.931 . S
H327 C361 0.930 . S
H328 C362 0.932 . S
H329 C364 0.931 . S
H330 C365 0.929 . S
H331 C367 0.929 . S
H332 C368 0.931 . S
H333 C370 0.929 . S
N334 C354 1.433 . S
N334 C360 1.435 . S
N334 C366 1.423 . S
H335 C371 0.932 . S
C336 N311 1.433 . S
C336 C337 1.363 . S
C336 C341 1.370 . S
C337 H310 0.929 . S
C337 C336 1.363 . S
C337 C338 1.385 . S
C338 H312 0.930 . S
C338 C337 1.385 . S
C338 C339 1.357 . S
C339 C338 1.357 . S
C339 C340 1.406 . S
C340 H314 0.929 . S
C340 C339 1.406 . S
C340 C341 1.391 . S
C341 H313 0.931 . S
C341 C336 1.370 . S
C341 C340 1.391 . S
C342 N311 1.435 . S
C342 C343 1.358 . S
C342 C347 1.371 . S
C343 H315 0.930 . S
C343 C342 1.358 . S
C343 C344 1.405 . S
C344 H316 0.932 . S
C344 C343 1.405 . S
C344 C345 1.383 . S
C345 C344 1.383 . S
C345 C346 1.393 . S
C346 H318 0.931 . S
C346 C345 1.393 . S
C346 C347 1.382 . S
C347 H317 0.929 . S
C347 C342 1.371 . S
C347 C346 1.382 . S
C348 N311 1.423 . S
C348 C349 1.362 . S
C348 C353 1.388 . S
C349 H319 0.929 . S
C349 C348 1.362 . S
C349 C350 1.376 . S
C350 H321 0.931 . S
C350 C349 1.376 . S
C350 C351 1.396 . S
C351 C350 1.396 . S
C351 C352 1.348 . S
C351 C369 1.472 . S
C352 H322 0.929 . S
C352 C351 1.348 . S
C352 C353 1.443 . S
C353 H320 0.932 . S
C353 C348 1.388 . S
C353 C352 1.443 . S
C354 N334 1.433 . S
C354 C355 1.363 . S
C354 C359 1.370 . S
C355 H323 0.929 . S
C355 C354 1.363 . S
C355 C356 1.385 . S
C356 H324 0.930 . S
C356 C355 1.385 . S
C356 C357 1.357 . S
C357 C356 1.357 . S
C357 C358 1.406 . S
C358 H325 0.929 . S
C358 C357 1.406 . S
C358 C359 1.391 . S
C359 H326 0.931 . S
C359 C354 1.370 . S
C359 C358 1.391 . S
C360 N334 1.435 . S
C360 C361 1.358 . S
C360 C365 1.371 . S
C361 H327 0.930 . S
C361 C360 1.358 . S
C361 C362 1.405 . S
C362 H328 0.932 . S
C362 C361 1.405 . S
C362 C363 1.383 . S
C363 C362 1.383 . S
C363 C364 1.393 . S
C364 H329 0.931 . S
C364 C363 1.393 . S
C364 C365 1.382 . S
C365 H330 0.929 . S
C365 C360 1.371 . S
C365 C364 1.382 . S
C366 N334 1.423 . S
C366 C367 1.362 . S
C366 C371 1.388 . S
C367 H331 0.929 . S
C367 C366 1.362 . S
C367 C368 1.376 . S
C368 H332 0.931 . S
C368 C367 1.376 . S
C368 C369 1.396 . S
C369 C351 1.472 . S
C369 C368 1.396 . S
C369 C370 1.348 . S
C370 H333 0.929 . S
C370 C369 1.348 . S
C370 C371 1.443 . S
C371 H335 0.932 . S
C371 C366 1.388 . S
C371 C370 1.443 . S
H372 C399 0.929 . S
N373 C398 1.433 . S
N373 C404 1.435 . S
N373 C410 1.423 . S
H374 C400 0.930 . S
H375 C403 0.931 . S
H376 C402 0.929 . S
H377 C405 0.930 . S
H378 C406 0.932 . S
H379 C409 0.929 . S
H380 C408 0.931 . S
H381 C411 0.929 1_545 S
H382 C415 0.932 . S
H383 C412 0.931 . S
H384 C414 0.929 . S
H385 C417 0.929 . S
H386 C418 0.930 . S
H387 C420 0.929 . S
H388 C421 0.931 . S
H389 C423 0.930 . S
H390 C424 0.932 . S
H391 C426 0.931 . S
H392 C427 0.929 . S
H393 C429 0.929 . S
H394 C430 0.931 . S
H395 C432 0.929 . S
N396 C416 1.433 . S
N396 C422 1.435 . S
N396 C428 1.423 . S
H397 C433 0.932 . S
C398 N373 1.433 . S
C398 C399 1.363 . S
C398 C403 1.370 . S
C399 H372 0.929 . S
C399 C398 1.363 . S
C399 C400 1.385 . S
C400 H374 0.930 . S
C400 C399 1.385 . S
C400 C401 1.357 . S
C401 C400 1.357 . S
C401 C402 1.406 . S
C402 H376 0.929 . S
C402 C401 1.406 . S
C402 C403 1.391 . S
C403 H375 0.931 . S
C403 C398 1.370 . S
C403 C402 1.391 . S
C404 N373 1.435 . S
C404 C405 1.358 . S
C404 C409 1.371 . S
C405 H377 0.930 . S
C405 C404 1.358 . S
C405 C406 1.405 . S
C406 H378 0.932 . S
C406 C405 1.405 . S
C406 C407 1.383 . S
C407 C406 1.383 . S
C407 C408 1.393 . S
C408 H380 0.931 . S
C408 C407 1.393 . S
C408 C409 1.382 . S
C409 H379 0.929 . S
C409 C404 1.371 . S
C409 C408 1.382 . S
C410 N373 1.423 . S
C410 C411 1.364 . S
C410 C415 1.388 . S
C411 H381 0.929 1_565 S
C411 C410 1.364 . S
C411 C412 1.375 1_565 S
C412 H383 0.931 . S
C412 C411 1.375 1_545 S
C412 C413 1.396 . S
C413 C412 1.396 . S
C413 C414 1.348 1_545 S
C413 C431 1.472 . S
C414 H384 0.929 . S
C414 C413 1.348 1_565 S
C414 C415 1.443 . S
C415 H382 0.932 . S
C415 C410 1.388 . S
C415 C414 1.443 . S
C416 N396 1.433 . S
C416 C417 1.363 . S
C416 C421 1.370 . S
C417 H385 0.929 . S
C417 C416 1.363 . S
C417 C418 1.385 . S
C418 H386 0.930 . S
C418 C417 1.385 . S
C418 C419 1.357 . S
C419 C418 1.357 . S
C419 C420 1.406 . S
C420 H387 0.929 . S
C420 C419 1.406 . S
C420 C421 1.391 . S
C421 H388 0.931 . S
C421 C416 1.370 . S
C421 C420 1.391 . S
C422 N396 1.435 . S
C422 C423 1.358 . S
C422 C427 1.371 . S
C423 H389 0.930 . S
C423 C422 1.358 . S
C423 C424 1.405 . S
C424 H390 0.932 . S
C424 C423 1.405 . S
C424 C425 1.383 . S
C425 C424 1.383 . S
C425 C426 1.393 . S
C426 H391 0.931 . S
C426 C425 1.393 . S
C426 C427 1.382 . S
C427 H392 0.929 . S
C427 C422 1.371 . S
C427 C426 1.382 . S
C428 N396 1.423 . S
C428 C429 1.362 . S
C428 C433 1.388 . S
C429 H393 0.929 . S
C429 C428 1.362 . S
C429 C430 1.376 . S
C430 H394 0.931 . S
C430 C429 1.376 . S
C430 C431 1.396 . S
C431 C413 1.472 . S
C431 C430 1.396 . S
C431 C432 1.348 . S
C432 H395 0.929 . S
C432 C431 1.348 . S
C432 C433 1.443 . S
C433 H397 0.932 . S
C433 C428 1.388 . S
C433 C432 1.443 . S
H434 C461 0.929 . S
N435 C460 1.433 . S
N435 C466 1.435 . S
N435 C472 1.423 . S
H436 C462 0.930 . S
H437 C465 0.931 . S
H438 C464 0.929 . S
H439 C467 0.930 . S
H440 C468 0.932 . S
H441 C471 0.929 . S
H442 C470 0.931 . S
H443 C473 0.929 . S
H444 C477 0.932 . S
H445 C474 0.931 1_655 S
H446 C476 0.929 1_545 S
H447 C479 0.929 . S
H448 C480 0.930 . S
H449 C482 0.929 . S
H450 C483 0.931 . S
H451 C485 0.930 . S
H452 C486 0.932 . S
H453 C488 0.931 . S
H454 C489 0.929 . S
H455 C491 0.929 . S
H456 C492 0.931 . S
H457 C494 0.929 1_455 S
N458 C478 1.433 . S
N458 C484 1.435 . S
N458 C490 1.423 . S
H459 C495 0.932 . S
C460 N435 1.433 . S
C460 C461 1.363 . S
C460 C465 1.370 . S
C461 H434 0.929 . S
C461 C460 1.363 . S
C461 C462 1.385 . S
C462 H436 0.930 . S
C462 C461 1.385 . S
C462 C463 1.357 . S
C463 C462 1.357 . S
C463 C464 1.406 . S
C464 H438 0.929 . S
C464 C463 1.406 . S
C464 C465 1.391 . S
C465 H437 0.931 . S
C465 C460 1.370 . S
C465 C464 1.391 . S
C466 N435 1.435 . S
C466 C467 1.358 . S
C466 C471 1.371 . S
C467 H439 0.930 . S
C467 C466 1.358 . S
C467 C468 1.405 . S
C468 H440 0.932 . S
C468 C467 1.405 . S
C468 C469 1.383 . S
C469 C468 1.383 . S
C469 C470 1.393 . S
C470 H442 0.931 . S
C470 C469 1.393 . S
C470 C471 1.382 . S
C471 H441 0.929 . S
C471 C466 1.371 . S
C471 C470 1.382 . S
C472 N435 1.423 . S
C472 C473 1.362 . S
C472 C477 1.388 . S
C473 H443 0.929 . S
C473 C472 1.362 . S
C473 C474 1.376 . S
C474 H445 0.931 1_455 S
C474 C473 1.376 . S
C474 C475 1.396 . S
C475 C474 1.396 . S
C475 C476 1.348 . S
C475 C493 1.472 1_465 S
C476 H446 0.929 1_565 S
C476 C475 1.348 . S
C476 C477 1.443 . S
C477 H444 0.932 . S
C477 C472 1.388 . S
C477 C476 1.443 . S
C478 N458 1.433 . S
C478 C479 1.363 . S
C478 C483 1.370 . S
C479 H447 0.929 . S
C479 C478 1.363 . S
C479 C480 1.385 . S
C480 H448 0.930 . S
C480 C479 1.385 . S
C480 C481 1.357 . S
C481 C480 1.357 . S
C481 C482 1.406 . S
C482 H449 0.929 . S
C482 C481 1.406 . S
C482 C483 1.391 . S
C483 H450 0.931 . S
C483 C478 1.370 . S
C483 C482 1.391 . S
C484 N458 1.435 . S
C484 C485 1.358 . S
C484 C489 1.371 . S
C485 H451 0.930 . S
C485 C484 1.358 . S
C485 C486 1.405 . S
C486 H452 0.932 . S
C486 C485 1.405 . S
C486 C487 1.383 . S
C487 C486 1.383 . S
C487 C488 1.393 . S
C488 H453 0.931 . S
C488 C487 1.393 . S
C488 C489 1.382 . S
C489 H454 0.929 . S
C489 C484 1.371 . S
C489 C488 1.382 . S
C490 N458 1.423 . S
C490 C491 1.362 . S
C490 C495 1.388 . S
C491 H455 0.929 . S
C491 C490 1.362 . S
C491 C492 1.376 . S
C492 H456 0.931 . S
C492 C491 1.376 . S
C492 C493 1.396 . S
C493 C475 1.472 1_645 S
C493 C492 1.396 . S
C493 C494 1.348 . S
C494 H457 0.929 1_655 S
C494 C493 1.348 . S
C494 C495 1.443 . S
C495 H459 0.932 . S
C495 C490 1.388 . S
C495 C494 1.443 . S
C496 O497 1.306 . S
C496 O499 1.160 . S
O497 C496 1.306 . S
O497 Cd498 2.228 . S
Cd498 O497 2.228 . S
Cd498 O502 2.273 1_554 S
Cd498 O506 2.277 . S
O499 C496 1.160 . S
O499 Cd500 2.203 . S
Cd500 O499 2.203 . S
Cd500 O502 2.411 1_554 S
Cd500 O503 2.333 1_554 S
Cd500 O504 2.352 . S
Cd500 O508 2.277 . S
Cd500 O509 2.356 1_554 S
C501 O506 1.209 . S
C501 O508 1.226 . S
O502 Cd498 2.273 1_556 S
O502 Cd500 2.411 1_556 S
O502 C505 1.320 . S
O503 Cd500 2.333 1_556 S
O503 C505 1.214 . S
O504 Cd500 2.352 . S
O504 C507 1.258 1_554 S
C505 O502 1.320 . S
C505 O503 1.214 . S
O506 Cd498 2.277 . S
O506 C501 1.209 . S
C507 O504 1.258 1_556 S
C507 O509 1.283 . S
O508 Cd500 2.277 . S
O508 C501 1.226 . S
O509 Cd500 2.356 1_556 S
O509 C507 1.283 . S
C510 O511 1.306 . S
C510 O513 1.160 . S
O511 C510 1.306 . S
O511 Cd512 2.228 . S
Cd512 O511 2.228 . S
Cd512 O516 2.273 . S
Cd512 O520 2.277 . S
O513 C510 1.160 . S
O513 Cd514 2.203 . S
Cd514 O513 2.203 . S
Cd514 O516 2.411 . S
Cd514 O517 2.333 . S
Cd514 O518 2.352 . S
Cd514 O522 2.277 . S
Cd514 O523 2.356 . S
C515 O520 1.209 . S
C515 O522 1.226 . S
O516 Cd512 2.273 . S
O516 Cd514 2.411 . S
O516 C519 1.320 . S
O517 Cd514 2.333 . S
O517 C519 1.214 . S
O518 Cd514 2.352 . S
O518 C521 1.258 . S
C519 O516 1.320 . S
C519 O517 1.214 . S
O520 Cd512 2.277 . S
O520 C515 1.209 . S
C521 O518 1.258 . S
C521 O523 1.282 . S
O522 Cd514 2.277 . S
O522 C515 1.226 . S
O523 Cd514 2.356 . S
O523 C521 1.282 . S
C524 O525 1.306 . S
C524 O527 1.160 . S
O525 C524 1.306 . S
O525 Cd526 2.228 . S
Cd526 O525 2.228 . S
Cd526 O530 2.273 . S
Cd526 O534 2.277 . S
O527 C524 1.160 . S
O527 Cd528 2.203 . S
Cd528 O527 2.203 . S
Cd528 O530 2.411 . S
Cd528 O531 2.333 . S
Cd528 O532 2.352 . S
Cd528 O536 2.277 . S
Cd528 O537 2.356 . S
C529 O534 1.209 . S
C529 O536 1.226 . S
O530 Cd526 2.273 . S
O530 Cd528 2.411 . S
O530 C533 1.320 . S
O531 Cd528 2.333 . S
O531 C533 1.214 . S
O532 Cd528 2.352 . S
O532 C535 1.258 . S
C533 O530 1.320 . S
C533 O531 1.214 . S
O534 Cd526 2.277 . S
O534 C529 1.209 . S
C535 O532 1.258 . S
C535 O537 1.282 . S
O536 Cd528 2.277 . S
O536 C529 1.226 . S
O537 Cd528 2.356 . S
O537 C535 1.282 . S
C538 O539 1.306 . S
C538 O541 1.160 . S
O539 C538 1.306 . S
O539 Cd540 2.228 . S
Cd540 O539 2.228 . S
Cd540 O544 2.273 . S
Cd540 O548 2.277 . S
O541 C538 1.160 . S
O541 Cd542 2.203 . S
Cd542 O541 2.203 . S
Cd542 O544 2.411 . S
Cd542 O545 2.333 . S
Cd542 O546 2.352 . S
Cd542 O550 2.277 . S
Cd542 O551 2.356 . S
C543 O548 1.209 . S
C543 O550 1.226 . S
O544 Cd540 2.273 . S
O544 Cd542 2.411 . S
O544 C547 1.320 . S
O545 Cd542 2.333 . S
O545 C547 1.214 . S
O546 Cd542 2.352 . S
O546 C549 1.258 . S
C547 O544 1.320 . S
C547 O545 1.214 . S
O548 Cd540 2.277 . S
O548 C543 1.209 . S
C549 O546 1.258 . S
C549 O551 1.282 . S
O550 Cd542 2.277 . S
O550 C543 1.226 . S
O551 Cd542 2.356 . S
O551 C549 1.282 . S
C552 O553 1.306 . S
C552 O555 1.160 . S
O553 C552 1.306 . S
O553 Cd554 2.228 . S
Cd554 O553 2.228 . S
Cd554 O558 2.273 . S
Cd554 O562 2.277 . S
O555 C552 1.160 . S
O555 Cd556 2.203 . S
Cd556 O555 2.203 . S
Cd556 O558 2.411 . S
Cd556 O559 2.333 . S
Cd556 O560 2.352 . S
Cd556 O564 2.277 . S
Cd556 O565 2.356 . S
C557 O562 1.209 . S
C557 O564 1.226 . S
O558 Cd554 2.273 . S
O558 Cd556 2.411 . S
O558 C561 1.320 . S
O559 Cd556 2.333 . S
O559 C561 1.214 . S
O560 Cd556 2.352 . S
O560 C563 1.258 . S
C561 O558 1.320 . S
C561 O559 1.214 . S
O562 Cd554 2.277 . S
O562 C557 1.209 . S
C563 O560 1.258 . S
C563 O565 1.282 . S
O564 Cd556 2.277 . S
O564 C557 1.226 . S
O565 Cd556 2.356 . S
O565 C563 1.282 . S
C566 O567 1.306 . S
C566 O569 1.160 . S
O567 C566 1.306 . S
O567 Cd568 2.228 . S
Cd568 O567 2.228 . S
Cd568 O572 2.273 . S
Cd568 O576 2.277 . S
O569 C566 1.160 . S
O569 Cd570 2.203 . S
Cd570 O569 2.203 . S
Cd570 O572 2.411 . S
Cd570 O573 2.333 . S
Cd570 O574 2.352 . S
Cd570 O578 2.277 . S
Cd570 O579 2.356 . S
C571 O576 1.209 . S
C571 O578 1.226 . S
O572 Cd568 2.273 . S
O572 Cd570 2.411 . S
O572 C575 1.320 . S
O573 Cd570 2.333 . S
O573 C575 1.214 . S
O574 Cd570 2.352 . S
O574 C577 1.258 . S
C575 O572 1.320 . S
C575 O573 1.214 . S
O576 Cd568 2.277 . S
O576 C571 1.209 . S
C577 O574 1.258 . S
C577 O579 1.282 . S
O578 Cd570 2.277 . S
O578 C571 1.226 . S
O579 Cd570 2.356 . S
O579 C577 1.282 . S
C580 O581 1.306 . S
C580 O583 1.160 . S
O581 C580 1.306 . S
O581 Cd582 2.197 1_556 S
Cd582 O581 2.197 1_554 S
Cd582 O586 2.297 . S
Cd582 O590 2.274 1_554 S
O583 C580 1.160 . S
O583 Cd584 2.203 1_556 S
Cd584 O583 2.203 1_554 S
Cd584 O586 2.411 . S
Cd584 O587 2.333 . S
Cd584 O588 2.352 . S
Cd584 O592 2.277 1_554 S
Cd584 O593 2.356 . S
C585 O590 1.209 . S
C585 O592 1.226 . S
O586 Cd582 2.297 . S
O586 Cd584 2.411 . S
O586 C589 1.320 . S
O587 Cd584 2.333 . S
O587 C589 1.214 . S
O588 Cd584 2.352 . S
O588 C591 1.258 . S
C589 O586 1.320 . S
C589 O587 1.214 . S
O590 Cd582 2.274 1_556 S
O590 C585 1.209 . S
C591 O588 1.258 . S
C591 O593 1.282 . S
O592 Cd584 2.277 1_556 S
O592 C585 1.226 . S
O593 Cd584 2.356 . S
O593 C591 1.282 . S
C594 O595 1.306 . S
C594 O597 1.160 . S
O595 C594 1.306 . S
O595 Cd596 2.228 . S
Cd596 O595 2.228 . S
Cd596 O600 2.273 . S
Cd596 O604 2.277 . S
O597 C594 1.160 . S
O597 Cd598 2.203 . S
Cd598 O597 2.203 . S
Cd598 O600 2.411 . S
Cd598 O601 2.333 . S
Cd598 O602 2.352 . S
Cd598 O606 2.277 . S
Cd598 O607 2.356 . S
C599 O604 1.209 . S
C599 O606 1.226 . S
O600 Cd596 2.273 . S
O600 Cd598 2.411 . S
O600 C603 1.320 . S
O601 Cd598 2.333 . S
O601 C603 1.214 . S
O602 Cd598 2.352 . S
O602 C605 1.258 . S
C603 O600 1.320 . S
C603 O601 1.214 . S
O604 Cd596 2.277 . S
O604 C599 1.209 . S
C605 O602 1.258 . S
C605 O607 1.282 . S
O606 Cd598 2.277 . S
O606 C599 1.226 . S
O607 Cd598 2.356 . S
O607 C605 1.282 . S
C608 C609 1.363 . S
C608 C614 1.379 . S
C608 N616 1.356 . S
C609 C608 1.363 . S
C609 C615 1.363 . S
C610 C611 1.363 . S
C610 C615 1.379 . S
C610 N617 1.356 . S
C611 C610 1.363 . S
C611 C614 1.363 . S
N612 C614 1.356 . S
N612 H624 0.984 . S
N612 H625 0.985 . S
N613 C615 1.356 . S
N613 H618 0.984 . S
N613 H619 0.985 . S
C614 C608 1.379 . S
C614 C611 1.363 . S
C614 N612 1.356 . S
C615 C609 1.363 . S
C615 C610 1.379 . S
C615 N613 1.356 . S
N616 C608 1.356 . S
N616 H622 0.984 . S
N616 H623 0.984 . S
N617 C610 1.356 . S
N617 H620 0.984 . S
N617 H621 0.985 . S
H618 N613 0.984 . S
H619 N613 0.985 . S
H620 N617 0.984 . S
H621 N617 0.985 . S
H622 N616 0.984 . S
H623 N616 0.984 . S
H624 N612 0.984 . S
H625 N612 0.985 . S
C626 C627 1.363 . S
C626 C632 1.379 . S
C626 N634 1.356 . S
C627 C626 1.363 . S
C627 C633 1.363 . S
C628 C629 1.363 . S
C628 C633 1.379 . S
C628 N635 1.356 . S
C629 C628 1.363 . S
C629 C632 1.363 . S
N630 C632 1.356 . S
N630 H642 0.984 . S
N630 H643 0.985 . S
N631 C633 1.356 . S
N631 H636 0.984 . S
N631 H637 0.985 . S
C632 C626 1.379 . S
C632 C629 1.363 . S
C632 N630 1.356 . S
C633 C627 1.363 . S
C633 C628 1.379 . S
C633 N631 1.356 . S
N634 C626 1.356 . S
N634 H640 0.984 . S
N634 H641 0.984 . S
N635 C628 1.356 . S
N635 H638 0.984 . S
N635 H639 0.985 . S
H636 N631 0.984 . S
H637 N631 0.985 . S
H638 N635 0.984 . S
H639 N635 0.985 . S
H640 N634 0.984 . S
H641 N634 0.984 . S
H642 N630 0.984 . S
H643 N630 0.985 . S
C644 C645 1.363 . S
C644 C650 1.379 . S
C644 N652 1.356 . S
C645 C644 1.363 . S
C645 C651 1.363 . S
C646 C647 1.363 . S
C646 C651 1.379 . S
C646 N653 1.356 . S
C647 C646 1.363 . S
C647 C650 1.363 . S
N648 C650 1.356 . S
N648 H660 0.984 . S
N648 H661 0.985 . S
N649 C651 1.356 . S
N649 H654 0.984 . S
N649 H655 0.985 . S
C650 C644 1.379 . S
C650 C647 1.363 . S
C650 N648 1.356 . S
C651 C645 1.363 . S
C651 C646 1.379 . S
C651 N649 1.356 . S
N652 C644 1.356 . S
N652 H658 0.984 . S
N652 H659 0.984 . S
N653 C646 1.356 . S
N653 H656 0.984 . S
N653 H657 0.985 . S
H654 N649 0.984 . S
H655 N649 0.985 . S
H656 N653 0.984 . S
H657 N653 0.985 . S
H658 N652 0.984 . S
H659 N652 0.984 . S
H660 N648 0.984 . S
H661 N648 0.985 . S
C662 C663 1.363 1_556 S
C662 C668 1.379 . S
C662 N670 1.356 . S
C663 C662 1.363 1_554 S
C663 C669 1.363 . S
C664 C665 1.363 . S
C664 C669 1.379 . S
C664 N671 1.356 . S
C665 C664 1.363 . S
C665 C668 1.363 1_554 S
N666 C668 1.356 . S
N666 H678 0.984 . S
N666 H679 0.985 . S
N667 C669 1.356 . S
N667 H672 0.984 . S
N667 H673 0.985 . S
C668 C662 1.379 . S
C668 C665 1.363 1_556 S
C668 N666 1.356 . S
C669 C663 1.363 . S
C669 C664 1.379 . S
C669 N667 1.356 . S
N670 C662 1.356 . S
N670 H676 0.984 . S
N670 H677 0.984 . S
N671 C664 1.356 . S
N671 H674 0.984 . S
N671 H675 0.985 . S
H672 N667 0.984 . S
H673 N667 0.985 . S
H674 N671 0.984 . S
H675 N671 0.985 . S
H676 N670 0.984 . S
H677 N670 0.984 . S
H678 N666 0.984 . S
H679 N666 0.985 . S
C680 C681 1.363 1_556 S
C680 C686 1.379 . S
C680 N688 1.356 . S
C681 C680 1.363 1_554 S
C681 C687 1.363 . S
C682 C683 1.402 . S
C682 C687 1.379 . S
C682 N689 1.356 . S
C683 C682 1.402 . S
C683 C686 1.333 1_554 S
N684 C686 1.356 . S
N684 H696 0.984 . S
N684 H697 0.985 . S
N685 C687 1.356 . S
N685 H690 0.984 . S
N685 H691 0.985 . S
C686 C680 1.379 . S
C686 C683 1.333 1_556 S
C686 N684 1.356 . S
C687 C681 1.363 . S
C687 C682 1.379 . S
C687 N685 1.356 . S
N688 C680 1.356 . S
N688 H694 0.984 . S
N688 H695 0.984 . S
N689 C682 1.356 . S
N689 H692 0.984 . S
N689 H693 0.985 . S
H690 N685 0.984 . S
H691 N685 0.985 . S
H692 N689 0.984 . S
H693 N689 0.985 . S
H694 N688 0.984 . S
H695 N688 0.984 . S
H696 N684 0.984 . S
H697 N684 0.985 . S
C698 C699 1.363 . S
C698 C704 1.379 . S
C698 N706 1.356 . S
C699 C698 1.363 . S
C699 C705 1.363 . S
C700 C701 1.363 . S
C700 C705 1.379 . S
C700 N707 1.356 . S
C701 C700 1.363 . S
C701 C704 1.363 . S
N702 C704 1.356 . S
N702 H714 0.984 . S
N702 H715 0.985 . S
N703 C705 1.356 . S
N703 H708 0.984 . S
N703 H709 0.985 . S
C704 C698 1.379 . S
C704 C701 1.363 . S
C704 N702 1.356 . S
C705 C699 1.363 . S
C705 C700 1.379 . S
C705 N703 1.356 . S
N706 C698 1.356 . S
N706 H712 0.984 . S
N706 H713 0.984 . S
N707 C700 1.356 . S
N707 H710 0.984 . S
N707 H711 0.985 . S
H708 N703 0.984 . S
H709 N703 0.985 . S
H710 N707 0.984 . S
H711 N707 0.985 . S
H712 N706 0.984 . S
H713 N706 0.984 . S
H714 N702 0.984 . S
H715 N702 0.985 . S
C716 C717 1.363 . S
C716 C722 1.379 . S
C716 N724 1.356 . S
C717 C716 1.363 . S
C717 C723 1.363 . S
C718 C719 1.363 . S
C718 C723 1.379 . S
C718 N725 1.356 . S
C719 C718 1.363 . S
C719 C722 1.363 . S
N720 C722 1.356 . S
N720 H732 0.984 . S
N720 H733 0.985 . S
N721 C723 1.356 . S
N721 H726 0.984 . S
N721 H727 0.985 . S
C722 C716 1.379 . S
C722 C719 1.363 . S
C722 N720 1.356 . S
C723 C717 1.363 . S
C723 C718 1.379 . S
C723 N721 1.356 . S
N724 C716 1.356 . S
N724 H730 0.984 . S
N724 H731 0.984 . S
N725 C718 1.356 . S
N725 H728 0.984 . S
N725 H729 0.985 . S
H726 N721 0.984 . S
H727 N721 0.985 . S
H728 N725 0.984 . S
H729 N725 0.985 . S
H730 N724 0.984 . S
H731 N724 0.984 . S
H732 N720 0.984 . S
H733 N720 0.985 . S
C734 C735 1.363 . S
C734 C740 1.379 . S
C734 N742 1.356 . S
C735 C734 1.363 . S
C735 C741 1.363 . S
C736 C737 1.363 . S
C736 C741 1.379 . S
C736 N743 1.356 . S
C737 C736 1.363 . S
C737 C740 1.363 . S
N738 C740 1.356 . S
N738 H750 0.984 . S
N738 H751 0.985 . S
N739 C741 1.356 . S
N739 H744 0.984 . S
N739 H745 0.985 . S
C740 C734 1.379 . S
C740 C737 1.363 . S
C740 N738 1.356 . S
C741 C735 1.363 . S
C741 C736 1.379 . S
C741 N739 1.356 . S
N742 C734 1.356 . S
N742 H748 0.984 . S
N742 H749 0.984 . S
N743 C736 1.356 . S
N743 H746 0.984 . S
N743 H747 0.985 . S
H744 N739 0.984 . S
H745 N739 0.985 . S
H746 N743 0.984 . S
H747 N743 0.985 . S
H748 N742 0.984 . S
H749 N742 0.984 . S
H750 N738 0.984 . S
H751 N738 0.985 . S
C752 C753 1.363 . S
C752 C758 1.379 . S
C752 N760 1.356 . S
C753 C752 1.363 . S
C753 C759 1.363 . S
C754 C755 1.363 . S
C754 C759 1.379 . S
C754 N761 1.356 . S
C755 C754 1.363 . S
C755 C758 1.363 . S
N756 C758 1.356 . S
N756 H768 0.984 . S
N756 H769 0.985 . S
N757 C759 1.356 . S
N757 H762 0.984 . S
N757 H763 0.985 . S
C758 C752 1.379 . S
C758 C755 1.363 . S
C758 N756 1.356 . S
C759 C753 1.363 . S
C759 C754 1.379 . S
C759 N757 1.356 . S
N760 C752 1.356 . S
N760 H766 0.984 . S
N760 H767 0.984 . S
N761 C754 1.356 . S
N761 H764 0.984 . S
N761 H765 0.985 . S
H762 N757 0.984 . S
H763 N757 0.985 . S
H764 N761 0.984 . S
H765 N761 0.985 . S
H766 N760 0.984 . S
H767 N760 0.984 . S
H768 N756 0.984 . S
H769 N756 0.985 . S
C770 C771 1.363 . S
C770 C776 1.379 . S
C770 N778 1.356 . S
C771 C770 1.363 . S
C771 C777 1.363 1_554 S
C772 C773 1.363 1_556 S
C772 C777 1.379 . S
C772 N779 1.356 . S
C773 C772 1.363 1_554 S
C773 C776 1.363 . S
N774 C776 1.356 . S
N774 H786 0.984 . S
N774 H787 0.985 . S
N775 C777 1.356 . S
N775 H780 0.984 . S
N775 H781 0.985 . S
C776 C770 1.379 . S
C776 C773 1.363 . S
C776 N774 1.356 . S
C777 C771 1.363 1_556 S
C777 C772 1.379 . S
C777 N775 1.356 . S
N778 C770 1.356 . S
N778 H784 0.984 . S
N778 H785 0.984 . S
N779 C772 1.356 . S
N779 H782 0.984 . S
N779 H783 0.985 . S
H780 N775 0.984 . S
H781 N775 0.985 . S
H782 N779 0.984 . S
H783 N779 0.985 . S
H784 N778 0.984 . S
H785 N778 0.984 . S
H786 N774 0.984 . S
H787 N774 0.985 . S
C788 C789 1.363 . S
C788 C794 1.379 . S
C788 N796 1.356 . S
C789 C788 1.363 . S
C789 C795 1.363 . S
C790 C791 1.363 . S
C790 C795 1.379 . S
C790 N797 1.356 . S
C791 C790 1.363 . S
C791 C794 1.363 . S
N792 C794 1.356 . S
N792 H804 0.984 . S
N792 H805 0.985 . S
N793 C795 1.356 . S
N793 H798 0.984 . S
N793 H799 0.985 . S
C794 C788 1.379 . S
C794 C791 1.363 . S
C794 N792 1.356 . S
C795 C789 1.363 . S
C795 C790 1.379 . S
C795 N793 1.356 . S
N796 C788 1.356 . S
N796 H802 0.984 . S
N796 H803 0.984 . S
N797 C790 1.356 . S
N797 H800 0.984 . S
N797 H801 0.985 . S
H798 N793 0.984 . S
H799 N793 0.985 . S
H800 N797 0.984 . S
H801 N797 0.985 . S
H802 N796 0.984 . S
H803 N796 0.984 . S
H804 N792 0.984 . S
H805 N792 0.985 . S
C806 C807 1.363 . S
C806 C812 1.379 . S
C806 N814 1.356 . S
C807 C806 1.363 . S
C807 C813 1.363 . S
C808 C809 1.363 . S
C808 C813 1.379 . S
C808 N815 1.356 . S
C809 C808 1.363 . S
C809 C812 1.363 . S
N810 C812 1.356 . S
N810 H822 0.984 . S
N810 H823 0.985 . S
N811 C813 1.356 . S
N811 H816 0.984 . S
N811 H817 0.985 . S
C812 C806 1.379 . S
C812 C809 1.363 . S
C812 N810 1.356 . S
C813 C807 1.363 . S
C813 C808 1.379 . S
C813 N811 1.356 . S
N814 C806 1.356 . S
N814 H820 0.984 . S
N814 H821 0.984 . S
N815 C808 1.356 . S
N815 H818 0.984 . S
N815 H819 0.985 . S
H816 N811 0.984 . S
H817 N811 0.985 . S
H818 N815 0.984 . S
H819 N815 0.985 . S
H820 N814 0.984 . S
H821 N814 0.984 . S
H822 N810 0.984 . S
H823 N810 0.985 . S
C824 C825 1.363 . S
C824 C830 1.379 . S
C824 N832 1.356 . S
C825 C824 1.363 . S
C825 C831 1.363 . S
C826 C827 1.363 . S
C826 C831 1.379 . S
C826 N833 1.356 . S
C827 C826 1.363 . S
C827 C830 1.363 . S
N828 C830 1.356 . S
N828 H840 0.984 . S
N828 H841 0.985 . S
N829 C831 1.356 . S
N829 H834 0.984 . S
N829 H835 0.985 . S
C830 C824 1.379 . S
C830 C827 1.363 . S
C830 N828 1.356 . S
C831 C825 1.363 . S
C831 C826 1.379 . S
C831 N829 1.356 . S
N832 C824 1.356 . S
N832 H838 0.984 . S
N832 H839 0.984 . S
N833 C826 1.356 . S
N833 H836 0.984 . S
N833 H837 0.985 . S
H834 N829 0.984 . S
H835 N829 0.985 . S
H836 N833 0.984 . S
H837 N833 0.985 . S
H838 N832 0.984 . S
H839 N832 0.984 . S
H840 N828 0.984 . S
H841 N828 0.985 . S
C842 C843 1.363 . S
C842 C848 1.379 . S
C842 N850 1.356 . S
C843 C842 1.363 . S
C843 C849 1.363 . S
C844 C845 1.363 . S
C844 C849 1.379 . S
C844 N851 1.356 . S
C845 C844 1.363 . S
C845 C848 1.363 . S
N846 C848 1.356 . S
N846 H858 0.984 . S
N846 H859 0.985 . S
N847 C849 1.356 . S
N847 H852 0.984 . S
N847 H853 0.985 . S
C848 C842 1.379 . S
C848 C845 1.363 . S
C848 N846 1.356 . S
C849 C843 1.363 . S
C849 C844 1.379 . S
C849 N847 1.356 . S
N850 C842 1.356 . S
N850 H856 0.984 . S
N850 H857 0.984 . S
N851 C844 1.356 . S
N851 H854 0.984 . S
N851 H855 0.985 . S
H852 N847 0.984 . S
H853 N847 0.985 . S
H854 N851 0.984 . S
H855 N851 0.985 . S
H856 N850 0.984 . S
H857 N850 0.984 . S
H858 N846 0.984 . S
H859 N846 0.985 . S
C860 C861 1.363 . S
C860 C866 1.379 . S
C860 N868 1.356 . S
C861 C860 1.363 . S
C861 C867 1.363 1_554 S
C862 C863 1.363 . S
C862 C867 1.379 . S
C862 N869 1.356 . S
C863 C862 1.363 . S
C863 C866 1.363 1_556 S
N864 C866 1.356 . S
N864 H876 0.984 . S
N864 H877 0.985 . S
N865 C867 1.356 . S
N865 H870 0.984 . S
N865 H871 0.985 . S
C866 C860 1.379 . S
C866 C863 1.363 1_554 S
C866 N864 1.356 . S
C867 C861 1.363 1_556 S
C867 C862 1.379 . S
C867 N865 1.356 . S
N868 C860 1.356 . S
N868 H874 0.984 . S
N868 H875 0.984 . S
N869 C862 1.356 . S
N869 H872 0.984 . S
N869 H873 0.985 . S
H870 N865 0.984 . S
H871 N865 0.985 . S
H872 N869 0.984 . S
H873 N869 0.985 . S
H874 N868 0.984 . S
H875 N868 0.984 . S
H876 N864 0.984 . S
H877 N864 0.985 . S
C878 C879 1.363 . S
C878 C884 1.379 . S
C878 N886 1.356 . S
C879 C878 1.363 . S
C879 C885 1.363 . S
C880 C881 1.363 . S
C880 C885 1.379 . S
C880 N887 1.356 . S
C881 C880 1.363 . S
C881 C884 1.363 . S
N882 C884 1.356 . S
N882 H894 0.984 . S
N882 H895 0.985 . S
N883 C885 1.356 . S
N883 H888 0.984 . S
N883 H889 0.985 . S
C884 C878 1.379 . S
C884 C881 1.363 . S
C884 N882 1.356 . S
C885 C879 1.363 . S
C885 C880 1.379 . S
C885 N883 1.356 . S
N886 C878 1.356 . S
N886 H892 0.984 . S
N886 H893 0.984 . S
N887 C880 1.356 . S
N887 H890 0.984 . S
N887 H891 0.985 . S
H888 N883 0.984 . S
H889 N883 0.985 . S
H890 N887 0.984 . S
H891 N887 0.985 . S
H892 N886 0.984 . S
H893 N886 0.984 . S
H894 N882 0.984 . S
H895 N882 0.985 . S
C896 C897 1.363 . S
C896 C902 1.379 . S
C896 N904 1.356 . S
C897 C896 1.363 . S
C897 C903 1.363 . S
C898 C899 1.363 . S
C898 C903 1.379 . S
C898 N905 1.356 . S
C899 C898 1.363 . S
C899 C902 1.363 . S
N900 C902 1.356 . S
N900 H912 0.984 . S
N900 H913 0.985 . S
N901 C903 1.356 . S
N901 H906 0.984 . S
N901 H907 0.985 . S
C902 C896 1.379 . S
C902 C899 1.363 . S
C902 N900 1.356 . S
C903 C897 1.363 . S
C903 C898 1.379 . S
C903 N901 1.356 . S
N904 C896 1.356 . S
N904 H910 0.984 . S
N904 H911 0.984 . S
N905 C898 1.356 . S
N905 H908 0.984 . S
N905 H909 0.985 . S
H906 N901 0.984 . S
H907 N901 0.985 . S
H908 N905 0.984 . S
H909 N905 0.985 . S
H910 N904 0.984 . S
H911 N904 0.984 . S
H912 N900 0.984 . S
H913 N900 0.985 . S
C914 C915 1.363 . S
C914 C920 1.379 . S
C914 N922 1.356 . S
C915 C914 1.363 . S
C915 C921 1.363 . S
C916 C917 1.363 . S
C916 C921 1.379 . S
C916 N923 1.356 . S
C917 C916 1.363 . S
C917 C920 1.363 . S
N918 C920 1.356 . S
N918 H930 0.984 . S
N918 H931 0.985 . S
N919 C921 1.356 . S
N919 H924 0.984 . S
N919 H925 0.985 . S
C920 C914 1.379 . S
C920 C917 1.363 . S
C920 N918 1.356 . S
C921 C915 1.363 . S
C921 C916 1.379 . S
C921 N919 1.356 . S
N922 C914 1.356 . S
N922 H928 0.984 . S
N922 H929 0.984 . S
N923 C916 1.356 . S
N923 H926 0.984 . S
N923 H927 0.985 . S
H924 N919 0.984 . S
H925 N919 0.985 . S
H926 N923 0.984 . S
H927 N923 0.985 . S
H928 N922 0.984 . S
H929 N922 0.984 . S
H930 N918 0.984 . S
H931 N918 0.985 . S
C932 C933 1.363 . S
C932 C938 1.379 . S
C932 N940 1.356 . S
C933 C932 1.363 . S
C933 C939 1.363 . S
C934 C935 1.363 . S
C934 C939 1.379 . S
C934 N941 1.356 . S
C935 C934 1.363 . S
C935 C938 1.363 . S
N936 C938 1.356 . S
N936 H948 0.984 . S
N936 H949 0.985 . S
N937 C939 1.356 . S
N937 H942 0.984 . S
N937 H943 0.985 . S
C938 C932 1.379 . S
C938 C935 1.363 . S
C938 N936 1.356 . S
C939 C933 1.363 . S
C939 C934 1.379 . S
C939 N937 1.356 . S
N940 C932 1.356 . S
N940 H946 0.984 . S
N940 H947 0.984 . S
N941 C934 1.356 . S
N941 H944 0.984 . S
N941 H945 0.985 . S
H942 N937 0.984 . S
H943 N937 0.985 . S
H944 N941 0.984 . S
H945 N941 0.985 . S
H946 N940 0.984 . S
H947 N940 0.984 . S
H948 N936 0.984 . S
H949 N936 0.985 . S
C950 C951 1.363 . S
C950 C956 1.379 . S
C950 N958 1.356 . S
C951 C950 1.363 . S
C951 C957 1.363 . S
C952 C953 1.363 . S
C952 C957 1.379 . S
C952 N959 1.356 . S
C953 C952 1.363 . S
C953 C956 1.363 . S
N954 C956 1.356 . S
N954 H966 0.984 . S
N954 H967 0.985 . S
N955 C957 1.356 . S
N955 H960 0.984 . S
N955 H961 0.985 . S
C956 C950 1.379 . S
C956 C953 1.363 . S
C956 N954 1.356 . S
C957 C951 1.363 . S
C957 C952 1.379 . S
C957 N955 1.356 . S
N958 C950 1.356 . S
N958 H964 0.984 . S
N958 H965 0.984 . S
N959 C952 1.356 . S
N959 H962 0.984 . S
N959 H963 0.985 . S
H960 N955 0.984 . S
H961 N955 0.985 . S
H962 N959 0.984 . S
H963 N959 0.985 . S
H964 N958 0.984 . S
H965 N958 0.984 . S
H966 N954 0.984 . S
H967 N954 0.985 . S
C968 C969 1.363 . S
C968 C974 1.379 . S
C968 N976 1.356 . S
C969 C968 1.363 . S
C969 C975 1.363 . S
C970 C971 1.363 . S
C970 C975 1.379 . S
C970 N977 1.356 . S
C971 C970 1.363 . S
C971 C974 1.363 . S
N972 C974 1.356 . S
N972 H984 0.984 . S
N972 H985 0.985 . S
N973 C975 1.356 . S
N973 H978 0.984 . S
N973 H979 0.985 . S
C974 C968 1.379 . S
C974 C971 1.363 . S
C974 N972 1.356 . S
C975 C969 1.363 . S
C975 C970 1.379 . S
C975 N973 1.356 . S
N976 C968 1.356 . S
N976 H982 0.984 . S
N976 H983 0.984 . S
N977 C970 1.356 . S
N977 H980 0.984 . S
N977 H981 0.985 . S
H978 N973 0.984 . S
H979 N973 0.985 . S
H980 N977 0.984 . S
H981 N977 0.985 . S
H982 N976 0.984 . S
H983 N976 0.984 . S
H984 N972 0.984 . S
H985 N972 0.985 . S
C986 C987 1.363 . S
C986 C992 1.379 . S
C986 N994 1.356 . S
C987 C986 1.363 . S
C987 C993 1.363 . S
C988 C989 1.363 . S
C988 C993 1.379 . S
C988 N995 1.356 . S
C989 C988 1.363 . S
C989 C992 1.363 . S
N990 C992 1.356 . S
N990 H1002 0.984 . S
N990 H1003 0.985 . S
N991 C993 1.356 . S
N991 H996 0.984 . S
N991 H997 0.985 . S
C992 C986 1.379 . S
C992 C989 1.363 . S
C992 N990 1.356 . S
C993 C987 1.363 . S
C993 C988 1.379 . S
C993 N991 1.356 . S
N994 C986 1.356 . S
N994 H1000 0.984 . S
N994 H1001 0.984 . S
N995 C988 1.356 . S
N995 H998 0.984 . S
N995 H999 0.985 . S
H996 N991 0.984 . S
H997 N991 0.985 . S
H998 N995 0.984 . S
H999 N995 0.985 . S
H1000 N994 0.984 . S
H1001 N994 0.984 . S
H1002 N990 0.984 . S
H1003 N990 0.985 . S
C1004 C1005 1.363 . S
C1004 C1010 1.379 . S
C1004 N1012 1.356 . S
C1005 C1004 1.363 . S
C1005 C1011 1.363 . S
C1006 C1007 1.363 . S
C1006 C1011 1.379 . S
C1006 N1013 1.356 . S
C1007 C1006 1.363 . S
C1007 C1010 1.363 . S
N1008 C1010 1.356 . S
N1008 H1020 0.984 . S
N1008 H1021 0.985 . S
N1009 C1011 1.356 . S
N1009 H1014 0.984 . S
N1009 H1015 0.985 . S
C1010 C1004 1.379 . S
C1010 C1007 1.363 . S
C1010 N1008 1.356 . S
C1011 C1005 1.363 . S
C1011 C1006 1.379 . S
C1011 N1009 1.356 . S
N1012 C1004 1.356 . S
N1012 H1018 0.984 . S
N1012 H1019 0.984 . S
N1013 C1006 1.356 . S
N1013 H1016 0.984 . S
N1013 H1017 0.985 . S
H1014 N1009 0.984 . S
H1015 N1009 0.985 . S
H1016 N1013 0.984 . S
H1017 N1013 0.985 . S
H1018 N1012 0.984 . S
H1019 N1012 0.984 . S
H1020 N1008 0.984 . S
H1021 N1008 0.985 . S
C1022 C1023 1.363 . S
C1022 C1028 1.379 . S
C1022 N1030 1.356 . S
C1023 C1022 1.363 . S
C1023 C1029 1.363 . S
C1024 C1025 1.363 . S
C1024 C1029 1.379 . S
C1024 N1031 1.356 . S
C1025 C1024 1.363 . S
C1025 C1028 1.363 . S
N1026 C1028 1.356 . S
N1026 H1038 0.984 . S
N1026 H1039 0.985 . S
N1027 C1029 1.356 . S
N1027 H1032 0.984 . S
N1027 H1033 0.985 . S
C1028 C1022 1.379 . S
C1028 C1025 1.363 . S
C1028 N1026 1.356 . S
C1029 C1023 1.363 . S
C1029 C1024 1.379 . S
C1029 N1027 1.356 . S
N1030 C1022 1.356 . S
N1030 H1036 0.984 . S
N1030 H1037 0.984 . S
N1031 C1024 1.356 . S
N1031 H1034 0.984 . S
N1031 H1035 0.985 . S
H1032 N1027 0.984 . S
H1033 N1027 0.985 . S
H1034 N1031 0.984 . S
H1035 N1031 0.985 . S
H1036 N1030 0.984 . S
H1037 N1030 0.984 . S
H1038 N1026 0.984 . S
H1039 N1026 0.985 . S
C1040 C1041 1.363 . S
C1040 C1046 1.379 . S
C1040 N1048 1.356 . S
C1041 C1040 1.363 . S
C1041 C1047 1.363 . S
C1042 C1043 1.363 . S
C1042 C1047 1.379 . S
C1042 N1049 1.356 . S
C1043 C1042 1.363 . S
C1043 C1046 1.363 . S
N1044 C1046 1.356 . S
N1044 H1056 0.984 . S
N1044 H1057 0.985 . S
N1045 C1047 1.356 . S
N1045 H1050 0.984 . S
N1045 H1051 0.985 . S
C1046 C1040 1.379 . S
C1046 C1043 1.363 . S
C1046 N1044 1.356 . S
C1047 C1041 1.363 . S
C1047 C1042 1.379 . S
C1047 N1045 1.356 . S
N1048 C1040 1.356 . S
N1048 H1054 0.984 . S
N1048 H1055 0.984 . S
N1049 C1042 1.356 . S
N1049 H1052 0.984 . S
N1049 H1053 0.985 . S
H1050 N1045 0.984 . S
H1051 N1045 0.985 . S
H1052 N1049 0.984 . S
H1053 N1049 0.985 . S
H1054 N1048 0.984 . S
H1055 N1048 0.984 . S
H1056 N1044 0.984 . S
H1057 N1044 0.985 . S
C1058 C1059 1.363 . S
C1058 C1064 1.379 . S
C1058 N1066 1.356 . S
C1059 C1058 1.363 . S
C1059 C1065 1.363 . S
C1060 C1061 1.363 . S
C1060 C1065 1.379 . S
C1060 N1067 1.356 . S
C1061 C1060 1.363 . S
C1061 C1064 1.363 . S
N1062 C1064 1.356 . S
N1062 H1074 0.984 . S
N1062 H1075 0.985 . S
N1063 C1065 1.356 . S
N1063 H1068 0.984 . S
N1063 H1069 0.985 . S
C1064 C1058 1.379 . S
C1064 C1061 1.363 . S
C1064 N1062 1.356 . S
C1065 C1059 1.363 . S
C1065 C1060 1.379 . S
C1065 N1063 1.356 . S
N1066 C1058 1.356 . S
N1066 H1072 0.984 . S
N1066 H1073 0.984 . S
N1067 C1060 1.356 . S
N1067 H1070 0.984 . S
N1067 H1071 0.985 . S
H1068 N1063 0.984 . S
H1069 N1063 0.985 . S
H1070 N1067 0.984 . S
H1071 N1067 0.985 . S
H1072 N1066 0.984 . S
H1073 N1066 0.984 . S
H1074 N1062 0.984 . S
H1075 N1062 0.985 . S
C1076 C1077 1.363 . S
C1076 C1082 1.379 . S
C1076 N1084 1.356 . S
C1077 C1076 1.363 . S
C1077 C1083 1.363 . S
C1078 C1079 1.363 . S
C1078 C1083 1.379 . S
C1078 N1085 1.356 . S
C1079 C1078 1.363 . S
C1079 C1082 1.363 . S
N1080 C1082 1.356 . S
N1080 H1092 0.984 . S
N1080 H1093 0.985 . S
N1081 C1083 1.356 . S
N1081 H1086 0.984 . S
N1081 H1087 0.985 . S
C1082 C1076 1.379 . S
C1082 C1079 1.363 . S
C1082 N1080 1.356 . S
C1083 C1077 1.363 . S
C1083 C1078 1.379 . S
C1083 N1081 1.356 . S
N1084 C1076 1.356 . S
N1084 H1090 0.984 . S
N1084 H1091 0.984 . S
N1085 C1078 1.356 . S
N1085 H1088 0.984 . S
N1085 H1089 0.985 . S
H1086 N1081 0.984 . S
H1087 N1081 0.985 . S
H1088 N1085 0.984 . S
H1089 N1085 0.985 . S
H1090 N1084 0.984 . S
H1091 N1084 0.984 . S
H1092 N1080 0.984 . S
H1093 N1080 0.985 . S
C1094 C1095 1.363 . S
C1094 C1100 1.379 . S
C1094 N1102 1.356 . S
C1095 C1094 1.363 . S
C1095 C1101 1.363 . S
C1096 C1097 1.363 . S
C1096 C1101 1.379 . S
C1096 N1103 1.356 . S
C1097 C1096 1.363 . S
C1097 C1100 1.363 . S
N1098 C1100 1.356 . S
N1098 H1110 0.984 . S
N1098 H1111 0.985 . S
N1099 C1101 1.356 . S
N1099 H1104 0.984 . S
N1099 H1105 0.985 . S
C1100 C1094 1.379 . S
C1100 C1097 1.363 . S
C1100 N1098 1.356 . S
C1101 C1095 1.363 . S
C1101 C1096 1.379 . S
C1101 N1099 1.356 . S
N1102 C1094 1.356 . S
N1102 H1108 0.984 . S
N1102 H1109 0.984 . S
N1103 C1096 1.356 . S
N1103 H1106 0.984 . S
N1103 H1107 0.985 . S
H1104 N1099 0.984 . S
H1105 N1099 0.985 . S
H1106 N1103 0.984 . S
H1107 N1103 0.985 . S
H1108 N1102 0.984 . S
H1109 N1102 0.984 . S
H1110 N1098 0.984 . S
H1111 N1098 0.985 . S
C1112 C1113 1.363 . S
C1112 C1118 1.379 . S
C1112 N1120 1.356 . S
C1113 C1112 1.363 . S
C1113 C1119 1.363 . S
C1114 C1115 1.363 . S
C1114 C1119 1.379 . S
C1114 N1121 1.356 . S
C1115 C1114 1.363 . S
C1115 C1118 1.363 . S
N1116 C1118 1.356 . S
N1116 H1128 0.984 . S
N1116 H1129 0.985 . S
N1117 C1119 1.356 . S
N1117 H1122 0.984 . S
N1117 H1123 0.985 . S
C1118 C1112 1.379 . S
C1118 C1115 1.363 . S
C1118 N1116 1.356 . S
C1119 C1113 1.363 . S
C1119 C1114 1.379 . S
C1119 N1117 1.356 . S
N1120 C1112 1.356 . S
N1120 H1126 0.984 . S
N1120 H1127 0.984 . S
N1121 C1114 1.356 . S
N1121 H1124 0.984 . S
N1121 H1125 0.985 . S
H1122 N1117 0.984 . S
H1123 N1117 0.985 . S
H1124 N1121 0.984 . S
H1125 N1121 0.985 . S
H1126 N1120 0.984 . S
H1127 N1120 0.984 . S
H1128 N1116 0.984 . S
H1129 N1116 0.985 . S
C1130 C1131 1.363 . S
C1130 C1136 1.379 . S
C1130 N1138 1.356 . S
C1131 C1130 1.363 . S
C1131 C1137 1.363 . S
C1132 C1133 1.363 . S
C1132 C1137 1.379 . S
C1132 N1139 1.356 . S
C1133 C1132 1.363 . S
C1133 C1136 1.363 . S
N1134 C1136 1.356 . S
N1134 H1146 0.984 . S
N1134 H1147 0.985 . S
N1135 C1137 1.356 . S
N1135 H1140 0.984 . S
N1135 H1141 0.985 . S
C1136 C1130 1.379 . S
C1136 C1133 1.363 . S
C1136 N1134 1.356 . S
C1137 C1131 1.363 . S
C1137 C1132 1.379 . S
C1137 N1135 1.356 . S
N1138 C1130 1.356 . S
N1138 H1144 0.984 . S
N1138 H1145 0.984 . S
N1139 C1132 1.356 . S
N1139 H1142 0.984 . S
N1139 H1143 0.985 . S
H1140 N1135 0.984 . S
H1141 N1135 0.985 . S
H1142 N1139 0.984 . S
H1143 N1139 0.985 . S
H1144 N1138 0.984 . S
H1145 N1138 0.984 . S
H1146 N1134 0.984 . S
H1147 N1134 0.985 . S
C1148 C1149 1.363 . S
C1148 C1154 1.379 . S
C1148 N1156 1.356 . S
C1149 C1148 1.363 . S
C1149 C1155 1.363 . S
C1150 C1151 1.363 . S
C1150 C1155 1.379 . S
C1150 N1157 1.356 . S
C1151 C1150 1.363 . S
C1151 C1154 1.363 . S
N1152 C1154 1.356 . S
N1152 H1164 0.984 . S
N1152 H1165 0.985 . S
N1153 C1155 1.356 . S
N1153 H1158 0.984 . S
N1153 H1159 0.985 . S
C1154 C1148 1.379 . S
C1154 C1151 1.363 . S
C1154 N1152 1.356 . S
C1155 C1149 1.363 . S
C1155 C1150 1.379 . S
C1155 N1153 1.356 . S
N1156 C1148 1.356 . S
N1156 H1162 0.984 . S
N1156 H1163 0.984 . S
N1157 C1150 1.356 . S
N1157 H1160 0.984 . S
N1157 H1161 0.985 . S
H1158 N1153 0.984 . S
H1159 N1153 0.985 . S
H1160 N1157 0.984 . S
H1161 N1157 0.985 . S
H1162 N1156 0.984 . S
H1163 N1156 0.984 . S
H1164 N1152 0.984 . S
H1165 N1152 0.985 . S
C1166 C1167 1.363 . S
C1166 C1172 1.379 . S
C1166 N1174 1.356 . S
C1167 C1166 1.363 . S
C1167 C1173 1.363 . S
C1168 C1169 1.363 . S
C1168 C1173 1.379 . S
C1168 N1175 1.356 . S
C1169 C1168 1.363 . S
C1169 C1172 1.363 . S
N1170 C1172 1.356 . S
N1170 H1182 0.984 . S
N1170 H1183 0.985 . S
N1171 C1173 1.356 . S
N1171 H1176 0.984 . S
N1171 H1177 0.985 . S
C1172 C1166 1.379 . S
C1172 C1169 1.363 . S
C1172 N1170 1.356 . S
C1173 C1167 1.363 . S
C1173 C1168 1.379 . S
C1173 N1171 1.356 . S
N1174 C1166 1.356 . S
N1174 H1180 0.984 . S
N1174 H1181 0.984 . S
N1175 C1168 1.356 . S
N1175 H1178 0.984 . S
N1175 H1179 0.985 . S
H1176 N1171 0.984 . S
H1177 N1171 0.985 . S
H1178 N1175 0.984 . S
H1179 N1175 0.985 . S
H1180 N1174 0.984 . S
H1181 N1174 0.984 . S
H1182 N1170 0.984 . S
H1183 N1170 0.985 . S
C611 C521 1.614 . S
C609 C35 1.363 . S
C629 C535 1.585 . S
C627 C115 1.374 . S
C647 C543 1.616 . S
C645 C177 1.398 . S
C663 C221 1.360 . S
C665 C501 1.598 . S
C681 C283 1.335 1_554 S
C683 C507 1.585 1_554 S
C699 C363 1.373 . S
C701 C515 1.598 . S
C719 C529 1.687 . S
C717 C407 1.434 . S
C737 C549 1.624 . S
C735 C469 1.387 . S
C753 C159 1.346 . S
C755 C577 1.590 . S
C773 C591 1.662 . S
C771 C239 1.439 . S
C789 C53 1.382 . S
C791 C599 1.611 . S
C809 C563 1.550 . S
C807 C97 1.314 . S
C825 C425 1.399 . S
C827 C557 1.629 . S
C843 C487 1.390 . S
C845 C571 1.605 . S
C863 C585 1.612 . S
C861 C301 1.397 1_554 S
C879 C345 1.401 . S
C881 C605 1.646 . S
C899 C524 1.842 . S
C897 C29 1.887 . S
C917 C547 1.883 . S
C915 C109 1.852 . S
C933 C171 1.865 . S
C935 C505 1.900 . S
C951 C215 1.929 . S
C953 C510 1.877 . S
C969 C277 1.884 . S
C971 C538 1.833 . S
C989 C496 1.858 . S
C987 C357 1.851 . S
C1007 C519 1.887 . S
C1005 C401 1.915 . S
C1025 C533 1.884 . S
C1023 C463 1.908 . S
C1043 C580 1.836 . S
C1041 C153 1.885 . S
C1061 C603 1.871 . S
C1059 C233 1.848 . S
C1077 C47 1.837 . S
C1079 C552 1.844 . S
C1097 C566 1.829 . S
C1095 C91 1.881 . S
C1115 C594 1.876 . S
C1113 C419 1.870 . S
C1131 C481 1.879 . S
C1133 C561 1.918 . S
C1151 C575 1.906 . S
C1149 C295 1.872 . S
C1169 C589 1.888 . S
C1167 C339 1.909 . S
