# Generated by pormake.
# Topology pth, (4,4)-cn, num edge types: 1
# Building blocks:
#     Node 0, Type 0, BuildingBlock: CEKHIL_clean_sbu_0, # of connection points: 4
#     Node 1, Type 0, BuildingBlock: CEKHIL_clean_sbu_0, # of connection points: 4
#     Node 2, Type 0, BuildingBlock: CEKHIL_clean_sbu_0, # of connection points: 4
#     Node 3, Type 1, BuildingBlock: NAHDIM_clean_linker_0, # of connection points: 4
#     Node 4, Type 1, BuildingBlock: NAHDIM_clean_linker_0, # of connection points: 4
#     Node 5, Type 1, BuildingBlock: NAHDIM_clean_linker_0, # of connection points: 4
#     Edge 6, Type (0, 1), BuildingBlock: OJICUG_clean_linker_0, # of connection points: 2
#     Edge 7, Type (0, 1), BuildingBlock: OJICUG_clean_linker_0, # of connection points: 2
#     Edge 8, Type (0, 1), BuildingBlock: OJICUG_clean_linker_0, # of connection points: 2
#     Edge 9, Type (0, 1), BuildingBlock: OJICUG_clean_linker_0, # of connection points: 2
#     Edge 10, Type (0, 1), BuildingBlock: OJICUG_clean_linker_0, # of connection points: 2
#     Edge 11, Type (0, 1), BuildingBlock: OJICUG_clean_linker_0, # of connection points: 2
#     Edge 12, Type (0, 1), BuildingBlock: OJICUG_clean_linker_0, # of connection points: 2
#     Edge 13, Type (0, 1), BuildingBlock: OJICUG_clean_linker_0, # of connection points: 2
#     Edge 14, Type (0, 1), BuildingBlock: OJICUG_clean_linker_0, # of connection points: 2
#     Edge 15, Type (0, 1), BuildingBlock: OJICUG_clean_linker_0, # of connection points: 2
#     Edge 16, Type (0, 1), BuildingBlock: OJICUG_clean_linker_0, # of connection points: 2
#     Edge 17, Type (0, 1), BuildingBlock: OJICUG_clean_linker_0, # of connection points: 2
# Relax obj value: 0.007
# Max RMSD: 0.047
# Mean RMSD: 0.045
data_MOF--net-pth--node1-CEKHIL_clean_sbu_0--node2-NAHDIM_clean_linker_0--edge1-OJICUG_clean_linker_0
_symmetry_space_group_name_H-M    P1
_symmetry_Int_Tables_number       1
_symmetry_cell_setting            triclinic
loop_
_symmetry_equiv_pos_as_xyz
'x, y, z'
_cell_length_a     25.400308
_cell_length_b     25.484351
_cell_length_c     66.184808
_cell_angle_alpha  90.570649
_cell_angle_beta   90.664744
_cell_angle_gamma 120.38788
loop_
_atom_site_label
_atom_site_type_symbol
_atom_site_fract_x
_atom_site_fract_y
_atom_site_fract_z
_atom_type_partial_charge
Co0 Co 0.00811 0.03492 0.0735 0.0
O1 O 0.9737 0.97214 0.09323 0.0
O2 O 0.04794 0.98749 0.07252 0.0
C3 C 0.02055 0.11015 0.09445 0.0
O4 O 0.05712 0.09595 0.05194 0.0
Co5 Co 0.94278 0.10159 0.05976 0.0
O6 O 0.02007 0.15789 0.0463 0.0
C7 C 0.90485 0.98136 0.04192 0.0
C8 C 0.01297 0.95717 0.08737 0.0
C9 C 0.06014 0.14271 0.04357 0.0
O10 O 0.94609 0.97969 0.05279 0.0
O11 O 0.89413 0.02529 0.04286 0.0
O12 O 0.06065 0.09304 0.09377 0.0
O13 O 0.97103 0.0782 0.08366 0.0
Co14 Co 0.02203 0.05149 0.39643 0.0
O15 O 0.98712 0.07725 0.37548 0.0
O16 O 0.072 0.13781 0.39296 0.0
C17 C 0.01423 0.97087 0.37947 0.0
O18 O 0.07486 0.04337 0.41791 0.0
Co19 Co 0.95197 0.92706 0.41738 0.0
O20 O 0.03317 0.94758 0.42867 0.0
C21 C 0.93386 0.02817 0.43063 0.0
C22 C 0.03428 0.13134 0.37842 0.0
C23 C 0.07745 0.00224 0.42821 0.0
O24 O 0.97351 0.06387 0.41791 0.0
O25 O 0.91664 0.97159 0.43184 0.0
O26 O 0.05894 0.02539 0.3761 0.0
O27 O 0.97279 0.96716 0.39152 0.0
Co28 Co 0.03415 0.03264 0.72314 0.0
O29 O 0.10508 0.07043 0.7065 0.0
O30 O 0.08654 0.00032 0.72933 0.0
C31 C 0.96684 0.01398 0.69806 0.0
O32 O 0.9656 0.98066 0.74233 0.0
Co33 Co 0.94969 0.08552 0.72904 0.0
O34 O 0.89176 0.00405 0.73965 0.0
C35 C 0.07163 0.14579 0.74873 0.0
C36 C 0.12195 0.03605 0.71544 0.0
C37 C 0.91113 0.96947 0.74573 0.0
O38 O 0.07759 0.10006 0.74388 0.0
O39 O 0.02573 0.15041 0.74313 0.0
O40 O 0.98652 0.97657 0.70118 0.0
O41 O 0.99075 0.06284 0.70918 0.0
C42 C -0.0025 0.70816 0.37034 0.0
C43 C 0.02118 0.75609 0.35381 0.0
C44 C 0.00015 0.70258 0.32142 0.0
C45 C 0.05975 0.72558 0.31446 0.0
C46 C 0.07292 0.69218 0.30052 0.0
C47 C 0.02535 0.63511 0.29329 0.0
C48 C 0.9646 0.61391 0.29921 0.0
C49 C 0.95272 0.64835 0.31312 0.0
C50 C 0.13788 0.71689 0.29399 0.0
C51 C 0.91269 0.55377 0.29144 0.0
C52 C 0.17247 0.30205 0.30681 0.0
C53 C 0.1198 0.30805 0.31515 0.0
C54 C 0.12178 0.40423 0.31312 0.0
C55 C 0.0598 0.38212 0.30872 0.0
C56 C 0.04103 0.4191 0.29925 0.0
C57 C 0.08526 0.47914 0.29409 0.0
C58 C 0.14734 0.50248 0.29951 0.0
C59 C 0.1647 0.46472 0.3092 0.0
C60 C 0.97427 0.39357 0.29423 0.0
C61 C 0.19554 0.56658 0.29444 0.0
C62 C 0.08225 0.36591 0.16861 0.0
C63 C 0.02355 0.35802 0.17011 0.0
C64 C 0.01533 0.40399 0.17852 0.0
C65 C 0.06693 0.45944 0.18498 0.0
C66 C 0.12629 0.46943 0.18186 0.0
C67 C 0.13312 0.42225 0.17373 0.0
C68 C 0.95145 0.39271 0.18104 0.0
C69 C 0.18234 0.52901 0.18782 0.0
C70 C 0.08561 0.86536 0.16307 0.0
C71 C 0.07105 0.824 0.14429 0.0
C72 C 0.03043 0.72355 0.15953 0.0
C73 C 0.97746 0.66823 0.16324 0.0
C74 C 0.9794 0.62373 0.17504 0.0
C75 C 0.03588 0.63522 0.18333 0.0
C76 C 0.08981 0.69067 0.17944 0.0
C77 C 0.08662 0.73416 0.16756 0.0
C78 C 0.92129 0.56455 0.1787 0.0
C79 C 0.15097 0.70396 0.18785 0.0
C80 C 0.03988 0.59485 0.28129 0.0
C81 C 0.05456 0.55679 0.29197 0.0
C82 C 0.06735 0.51632 0.28191 0.0
C83 C 0.06438 0.51254 0.26058 0.0
C84 C 0.07488 0.47067 0.25001 0.0
C85 C 0.07186 0.46725 0.22904 0.0
C86 C 0.05998 0.50678 0.21778 0.0
C87 C 0.05853 0.50479 0.19642 0.0
C88 C 0.04875 0.54597 0.18566 0.0
C89 C 0.03942 0.58899 0.1957 0.0
C90 C 0.03832 0.59029 0.21706 0.0
C91 C 0.02699 0.63164 0.22763 0.0
C92 C 0.02681 0.6329 0.24868 0.0
C93 C 0.03896 0.59354 0.25992 0.0
C94 C 0.05079 0.55177 0.24955 0.0
C95 C 0.04949 0.54948 0.22812 0.0
C96 C 0.08191 0.23611 0.18033 0.0
C97 C 0.0534 0.25882 0.16472 0.0
O98 O 0.98703 0.73133 0.33617 0.0
O99 O 0.02516 0.76525 0.14834 0.0
O100 O 0.09185 0.32074 0.16222 0.0
O101 O 0.14161 0.36812 0.32089 0.0
H102 H 0.06973 0.76951 0.3517 0.0
H103 H 0.00585 0.67076 0.36606 0.0
H104 H 0.94767 0.68815 0.37238 0.0
H105 H 0.02182 0.72861 0.38492 0.0
H106 H 0.09613 0.76935 0.31995 0.0
H107 H 0.90666 0.63177 0.31826 0.0
H108 H 0.15518 0.68772 0.29993 0.0
H109 H 0.16865 0.76432 0.29951 0.0
H110 H 0.13967 0.71567 0.27725 0.0
H111 H 0.86764 0.54524 0.29664 0.0
H112 H 0.91948 0.51633 0.2967 0.0
H113 H 0.91224 0.55257 0.27466 0.0
H114 H 0.08537 0.29385 0.3026 0.0
H115 H 0.15615 0.25412 0.30216 0.0
H116 H 0.20976 0.31676 0.31831 0.0
H117 H 0.19126 0.33107 0.29335 0.0
H118 H 0.02623 0.33588 0.31252 0.0
H119 H 0.21228 0.48151 0.31301 0.0
H120 H 0.95924 0.42494 0.29994 0.0
H121 H 0.94505 0.34798 0.30079 0.0
H122 H 0.96731 0.38968 0.27757 0.0
H123 H 0.24177 0.57802 0.29986 0.0
H124 H 0.18408 0.59935 0.30134 0.0
H125 H 0.19654 0.5724 0.27781 0.0
H126 H 0.00861 0.24812 0.17085 0.0
H127 H 0.98395 0.31621 0.16483 0.0
H128 H 0.17829 0.42849 0.17195 0.0
H129 H 0.94338 0.39719 0.19726 0.0
H130 H 0.91603 0.34685 0.17541 0.0
H131 H 0.94623 0.42748 0.17273 0.0
H132 H 0.22478 0.53241 0.18199 0.0
H133 H 0.18622 0.53346 0.20455 0.0
H134 H 0.17838 0.56767 0.18206 0.0
H135 H 0.11289 0.82371 0.1397 0.0
H136 H 0.121 0.91284 0.1596 0.0
H137 H 0.10333 0.84997 0.17568 0.0
H138 H 0.04399 0.86498 0.16829 0.0
H139 H 0.93437 0.66014 0.15692 0.0
H140 H 0.12837 0.77623 0.16475 0.0
H141 H 0.91405 0.55761 0.1952 0.0
H142 H 0.92536 0.52615 0.17248 0.0
H143 H 0.88073 0.56318 0.17162 0.0
H144 H 0.18891 0.7489 0.18315 0.0
H145 H 0.16063 0.66812 0.18269 0.0
H146 H 0.14989 0.70318 0.20461 0.0
H147 H 0.0562 0.55881 0.30837 0.0
H148 H 0.08516 0.43971 0.25782 0.0
H149 H 0.07976 0.43365 0.22179 0.0
H150 H 0.04931 0.54512 0.16927 0.0
H151 H 0.01781 0.66325 0.21972 0.0
H152 H 0.01764 0.66548 0.25606 0.0
H153 H 0.05264 0.18615 0.18213 0.0
H154 H 0.08609 0.25865 0.1952 0.0
H155 H 0.12819 0.24668 0.17578 0.0
C156 C 0.35981 0.00024 0.70047 0.0
C157 C 0.33508 0.0317 0.68689 0.0
C158 C 0.35659 0.01467 0.65246 0.0
C159 C 0.39958 0.07437 0.64713 0.0
C160 C 0.44302 0.08534 0.63238 0.0
C161 C 0.44294 0.03558 0.62269 0.0
C162 C 0.39641 0.9755 0.62682 0.0
C163 C 0.35336 0.96584 0.64159 0.0
C164 C 0.49098 0.15004 0.62789 0.0
C165 C 0.39438 0.92148 0.61647 0.0
C166 C 0.8187 0.98508 0.67714 0.0
C167 C 0.76465 0.9725 0.66456 0.0
C168 C 0.71643 0.02804 0.65176 0.0
C169 C 0.67809 0.98294 0.63759 0.0
C170 C 0.6404 0.99257 0.62439 0.0
C171 C 0.64187 0.04882 0.62514 0.0
C172 C 0.68139 0.09481 0.63909 0.0
C173 C 0.71789 0.08355 0.65234 0.0
C174 C 0.59772 0.94189 0.61003 0.0
C175 C 0.68425 0.15536 0.64021 0.0
C176 C 0.79435 0.15108 0.50109 0.0
C177 C 0.75178 0.08924 0.50386 0.0
C178 C 0.69467 0.07116 0.51224 0.0
C179 C 0.6802 0.11592 0.51805 0.0
C180 C 0.72206 0.17804 0.51447 0.0
C181 C 0.77842 0.1947 0.50579 0.0
C182 C 0.65026 0.0044 0.51523 0.0
C183 C 0.70788 0.22691 0.52027 0.0
C184 C 0.26007 0.08256 0.50401 0.0
C185 C 0.285 0.08136 0.4831 0.0
C186 C 0.36246 0.05473 0.49236 0.0
C187 C 0.37295 0.00622 0.49428 0.0
C188 C 0.42441 0.01328 0.50486 0.0
C189 C 0.46669 0.07066 0.51352 0.0
C190 C 0.45802 0.12073 0.51084 0.0
C191 C 0.40591 0.11228 0.50037 0.0
C192 C 0.43278 0.95912 0.50728 0.0
C193 C 0.50307 0.18283 0.51952 0.0
C194 C 0.49693 0.04604 0.61112 0.0
C195 C 0.54437 0.04654 0.6221 0.0
C196 C 0.59756 0.05679 0.61275 0.0
C197 C 0.60502 0.06912 0.5919 0.0
C198 C 0.65957 0.08341 0.58227 0.0
C199 C 0.66583 0.09401 0.56161 0.0
C200 C 0.61723 0.08931 0.54974 0.0
C201 C 0.62244 0.09822 0.52862 0.0
C202 C 0.57267 0.09156 0.51722 0.0
C203 C 0.5179 0.07743 0.52643 0.0
C204 C 0.51238 0.07025 0.54761 0.0
C205 C 0.45849 0.05789 0.55744 0.0
C206 C 0.45357 0.05091 0.5783 0.0
C207 C 0.50178 0.05459 0.59002 0.0
C208 C 0.55636 0.06666 0.58041 0.0
C209 C 0.56203 0.07549 0.55924 0.0
C210 C 0.94909 0.19177 0.50586 0.0
C211 C 0.88563 0.14318 0.49812 0.0
O212 O 0.31829 0.00267 0.66812 0.0
O213 O 0.30964 0.04368 0.48306 0.0
O214 O 0.85119 0.17021 0.4941 0.0
O215 O 0.75236 0.01968 0.66513 0.0
H216 H 0.37292 0.07957 0.68569 0.0
H217 H 0.40439 0.00888 0.69472 0.0
H218 H 0.3283 0.95022 0.70041 0.0
H219 H 0.36703 0.0185 0.7162 0.0
H220 H 0.39997 0.11249 0.65463 0.0
H221 H 0.31895 0.91995 0.64546 0.0
H222 H 0.53599 0.15913 0.63379 0.0
H223 H 0.48072 0.18361 0.63488 0.0
H224 H 0.49482 0.15682 0.6113 0.0
H225 H 0.35174 0.87826 0.61967 0.0
H226 H 0.43392 0.91759 0.62173 0.0
H227 H 0.39812 0.92798 0.59988 0.0
H228 H 0.72335 0.92684 0.66655 0.0
H229 H 0.80022 0.94936 0.68913 0.0
H230 H 0.82785 0.0235 0.68789 0.0
H231 H 0.88262 0.99148 0.6559 0.0
H232 H 0.67644 0.93968 0.63704 0.0
H233 H 0.74781 0.11812 0.66328 0.0
H234 H 0.61031 0.95645 0.59421 0.0
H235 H 0.55011 0.93168 0.61204 0.0
H236 H 0.59913 0.89949 0.6123 0.0
H237 H 0.72306 0.18905 0.64986 0.0
H238 H 0.64121 0.14899 0.6466 0.0
H239 H 0.68862 0.17404 0.62484 0.0
H240 H 0.8654 0.11025 0.51064 0.0
H241 H 0.76309 0.05508 0.49953 0.0
H242 H 0.81129 0.24221 0.50329 0.0
H243 H 0.64453 0.99501 0.53165 0.0
H244 H 0.6659 0.97503 0.50817 0.0
H245 H 0.60482 0.99187 0.50871 0.0
H246 H 0.74612 0.2733 0.51706 0.0
H247 H 0.69781 0.22433 0.53664 0.0
H248 H 0.66656 0.21941 0.51182 0.0
H249 H 0.32076 0.1283 0.47918 0.0
H250 H 0.23858 0.11123 0.50382 0.0
H251 H 0.29744 0.10207 0.51557 0.0
H252 H 0.22559 0.03583 0.50859 0.0
H253 H 0.33965 0.96218 0.4879 0.0
H254 H 0.39942 0.1508 0.49882 0.0
H255 H 0.43246 0.949 0.52358 0.0
H256 H 0.4778 0.96981 0.50136 0.0
H257 H 0.39647 0.91786 0.49926 0.0
H258 H 0.49231 0.21816 0.51483 0.0
H259 H 0.54991 0.19651 0.51463 0.0
H260 H 0.50291 0.18109 0.53627 0.0
H261 H 0.53933 0.03765 0.63819 0.0
H262 H 0.6981 0.08684 0.59065 0.0
H263 H 0.709 0.10512 0.55503 0.0
H264 H 0.57675 0.09786 0.50101 0.0
H265 H 0.41955 0.05373 0.54914 0.0
H266 H 0.41125 0.04174 0.58511 0.0
H267 H 0.97787 0.17116 0.50881 0.0
H268 H 0.94494 0.21214 0.52024 0.0
H269 H 0.97212 0.22873 0.49478 0.0
C270 C 0.74275 0.6897 0.7704 0.0
C271 C 0.74216 0.74017 0.78297 0.0
C272 C 0.71434 0.71033 0.81747 0.0
C273 C 0.67335 0.73046 0.82148 0.0
C274 C 0.62625 0.69999 0.83528 0.0
C275 C 0.61983 0.64794 0.84505 0.0
C276 C 0.66284 0.62912 0.8416 0.0
C277 C 0.71035 0.66142 0.82807 0.0
C278 C 0.58227 0.72229 0.83896 0.0
C279 C 0.65717 0.57343 0.85151 0.0
C280 C 0.29175 0.41253 0.76849 0.0
C281 C 0.27694 0.36312 0.78407 0.0
C282 C 0.30895 0.41353 0.81686 0.0
C283 C 0.35048 0.3959 0.82324 0.0
C284 C 0.39814 0.43237 0.83688 0.0
C285 C 0.40391 0.48727 0.84435 0.0
C286 C 0.36011 0.50346 0.83879 0.0
C287 C 0.31261 0.46585 0.8252 0.0
C288 C 0.44326 0.41308 0.84291 0.0
C289 C 0.36469 0.56137 0.8467 0.0
C290 C 0.3155 0.37521 0.97359 0.0
C291 C 0.35888 0.36467 0.96425 0.0
C292 C 0.40864 0.41145 0.95427 0.0
C293 C 0.41504 0.46984 0.95346 0.0
C294 C 0.37216 0.48096 0.9631 0.0
C295 C 0.32301 0.43341 0.9731 0.0
C296 C 0.45406 0.39824 0.94435 0.0
C297 C 0.37783 0.54276 0.96253 0.0
C298 C 0.90054 0.8373 0.96503 0.0
C299 C 0.83741 0.82067 0.97263 0.0
C300 C 0.74561 0.7203 0.97042 0.0
C301 C 0.72747 0.65957 0.96639 0.0
C302 C 0.66931 0.61917 0.95825 0.0
C303 C 0.62827 0.64023 0.95442 0.0
C304 C 0.6446 0.70034 0.96004 0.0
C305 C 0.70327 0.73992 0.968 0.0
C306 C 0.65269 0.55482 0.95291 0.0
C307 C 0.60098 0.72343 0.95682 0.0
C308 C 0.56492 0.60976 0.85719 0.0
C309 C 0.51088 0.57019 0.84667 0.0
C310 C 0.45814 0.5296 0.85682 0.0
C311 C 0.45889 0.52791 0.87813 0.0
C312 C 0.40703 0.48652 0.88879 0.0
C313 C 0.40893 0.48387 0.90975 0.0
C314 C 0.46274 0.52263 0.92085 0.0
C315 C 0.46594 0.51862 0.94209 0.0
C316 C 0.51979 0.55841 0.9527 0.0
C317 C 0.57133 0.6016 0.94258 0.0
C318 C 0.5695 0.60556 0.9213 0.0
C319 C 0.62112 0.64764 0.91062 0.0
C320 C 0.61948 0.64981 0.88964 0.0
C321 C 0.56633 0.60979 0.87854 0.0
C322 C 0.51326 0.56817 0.88903 0.0
C323 C 0.515 0.56582 0.91042 0.0
C324 C 0.21675 0.23802 0.96339 0.0
C325 C 0.24649 0.26939 0.98367 0.0
O326 O 0.75668 0.73623 0.80294 0.0
O327 O 0.80449 0.75879 0.97616 0.0
O328 O 0.26572 0.33088 0.98302 0.0
O329 O 0.2655 0.38127 0.80252 0.0
H330 H 0.69499 0.73255 0.78161 0.0
H331 H 0.70752 0.64457 0.77597 0.0
H332 H 0.7879 0.69276 0.77159 0.0
H333 H 0.73225 0.69285 0.75427 0.0
H334 H 0.67778 0.76946 0.81355 0.0
H335 H 0.74279 0.64677 0.82494 0.0
H336 H 0.53756 0.69024 0.83164 0.0
H337 H 0.59888 0.76829 0.83276 0.0
H338 H 0.57473 0.72362 0.85541 0.0
H339 H 0.69152 0.5622 0.84599 0.0
H340 H 0.61086 0.53363 0.8486 0.0
H341 H 0.66339 0.58111 0.86811 0.0
H342 H 0.31734 0.35716 0.78521 0.0
H343 H 0.29992 0.39814 0.75351 0.0
H344 H 0.3337 0.45524 0.77331 0.0
H345 H 0.25378 0.42207 0.76699 0.0
H346 H 0.34591 0.35386 0.81746 0.0
H347 H 0.27956 0.47838 0.82041 0.0
H348 H 0.44751 0.41343 0.85963 0.0
H349 H 0.48894 0.44603 0.83705 0.0
H350 H 0.42982 0.36696 0.83697 0.0
H351 H 0.32603 0.56666 0.84135 0.0
H352 H 0.40808 0.6011 0.84173 0.0
H353 H 0.36564 0.56189 0.86347 0.0
H354 H 0.28614 0.26341 0.98702 0.0
H355 H 0.3543 0.32016 0.9645 0.0
H356 H 0.28955 0.44127 0.9804 0.0
H357 H 0.4516 0.40211 0.92772 0.0
H358 H 0.44549 0.35198 0.94773 0.0
H359 H 0.50115 0.4322 0.94949 0.0
H360 H 0.33997 0.54375 0.97044 0.0
H361 H 0.37816 0.55616 0.9466 0.0
H362 H 0.42182 0.57716 0.96974 0.0
H363 H 0.81532 0.83282 0.96035 0.0
H364 H 0.92797 0.88685 0.9621 0.0
H365 H 0.8957 0.81214 0.95067 0.0
H366 H 0.92536 0.82519 0.97625 0.0
H367 H 0.76012 0.64464 0.96877 0.0
H368 H 0.7162 0.78628 0.97199 0.0
H369 H 0.64289 0.54638 0.93642 0.0
H370 H 0.61062 0.52232 0.96087 0.0
H371 H 0.68962 0.54541 0.95702 0.0
H372 H 0.61752 0.76853 0.96425 0.0
H373 H 0.55541 0.69052 0.96278 0.0
H374 H 0.59522 0.72767 0.94037 0.0
H375 H 0.5102 0.57006 0.83026 0.0
H376 H 0.36455 0.45531 0.88101 0.0
H377 H 0.36775 0.4508 0.91715 0.0
H378 H 0.52214 0.55466 0.96896 0.0
H379 H 0.66364 0.67909 0.9183 0.0
H380 H 0.66059 0.68287 0.88221 0.0
H381 H 0.20055 0.1886 0.96404 0.0
H382 H 0.25003 0.25746 0.95103 0.0
H383 H 0.17737 0.24405 0.95968 0.0
C384 C 0.97659 0.14967 0.11986 0.0
C385 C 0.02744 0.15544 0.10975 0.0
H386 H 0.94506 0.17745 0.14549 0.0
C387 C 0.08633 0.19947 0.11644 0.0
H388 H 0.93075 0.11564 0.11504 0.0
C389 C 0.09451 0.23487 0.13365 0.0
C390 C 0.04392 0.22625 0.14467 0.0
H391 H 0.12624 0.20485 0.1088 0.0
H392 H 0.1405 0.26724 0.13885 0.0
C393 C 0.9848 0.18458 0.13732 0.0
C394 C 0.88321 0.0216 0.46351 0.0
C395 C 0.91244 0.05495 0.44623 0.0
H396 H 0.85243 0.02342 0.49333 0.0
C397 C 0.92691 0.11593 0.44522 0.0
H398 H 0.87124 0.97453 0.46485 0.0
C399 C 0.91542 0.14372 0.46156 0.0
C400 C 0.8901 0.11137 0.47934 0.0
H401 H 0.94904 0.14285 0.4321 0.0
H402 H 0.92858 0.19121 0.46064 0.0
C403 C 0.87254 0.04961 0.4799 0.0
C404 C 0.89056 0.87914 0.76644 0.0
C405 C 0.86889 0.91346 0.75663 0.0
H406 H 0.86775 0.79825 0.78276 0.0
C407 C 0.80588 0.89222 0.75653 0.0
H408 H 0.93883 0.89429 0.76689 0.0
C409 C 0.76533 0.83706 0.76544 0.0
C410 C 0.78684 0.80213 0.77483 0.0
H411 H 0.78753 0.91733 0.74907 0.0
H412 H 0.71691 0.82115 0.76465 0.0
C413 C 0.84998 0.82421 0.77554 0.0
C414 C 0.07796 0.91419 0.09787 0.0
C415 C 0.02255 0.91364 0.09904 0.0
H416 H 0.13681 0.88651 0.11141 0.0
C417 C 0.97988 0.8773 0.1135 0.0
H418 H 0.11183 0.94211 0.08695 0.0
C419 C 0.99396 0.84512 0.12737 0.0
C420 C 0.05108 0.8489 0.12708 0.0
H421 H 0.93671 0.87594 0.1147 0.0
H422 H 0.96147 0.81975 0.13898 0.0
C423 C 0.09231 0.8825 0.11188 0.0
C424 C 0.1382 0.97827 0.45287 0.0
C425 C 0.13267 0.02067 0.44093 0.0
H426 H 0.19083 0.9641 0.47546 0.0
C427 C 0.17932 0.08211 0.44202 0.0
H428 H 0.10317 0.93062 0.4524 0.0
C429 C 0.22917 0.10107 0.45518 0.0
C430 C 0.23411 0.05905 0.46742 0.0
H431 H 0.1767 0.11614 0.4331 0.0
H432 H 0.26333 0.149 0.45612 0.0
C433 C 0.1884 -0.00268 0.46601 0.0
C434 C 0.18011 0.20347 0.76134 0.0
C435 C 0.12207 0.1976 0.76004 0.0
H436 H 0.27431 0.26039 0.76982 0.0
C437 C 0.11413 0.24434 0.76814 0.0
H438 H 0.18794 0.16852 0.75517 0.0
C439 C 0.16362 0.29678 0.77663 0.0
C440 C 0.2221 0.30368 0.77713 0.0
H441 H 0.06998 0.24117 0.76747 0.0
H442 H 0.15661 0.33282 0.78225 0.0
C443 C 0.22966 0.25614 0.76969 0.0
C444 C 0.86902 0.92589 0.67391 0.0
C445 C 0.92144 0.00283 0.68241 0.0
H446 H 0.77602 0.86441 0.65123 0.0
C447 C 0.92182 0.06756 0.67148 0.0
H448 H 0.87176 0.88854 0.68039 0.0
C449 C 0.86622 0.05728 0.65247 0.0
C450 C 0.80311 0.97716 0.64875 0.0
H451 H 0.95563 0.11306 0.67647 0.0
H452 H 0.863 0.09543 0.64697 0.0
C453 C 0.81121 0.91054 0.65503 0.0
C454 C 0.87692 0.88015 0.02689 0.0
C455 C 0.87478 0.93414 0.02588 0.0
H456 H 0.86638 0.80187 0.01091 0.0
C457 C 0.8526 0.94649 0.00808 0.0
H458 H 0.89353 0.86919 0.04043 0.0
C459 C 0.8375 0.90803 0.99112 0.0
C460 C 0.84345 0.85619 0.99178 0.0
H461 H 0.8508 0.98788 0.00677 0.0
H462 H 0.82385 0.92029 0.97721 0.0
C463 C 0.86141 0.84158 0.01002 0.0
C464 C 0.06916 0.92161 0.36498 0.0
C465 C 0.01496 0.91648 0.37213 0.0
H466 H 0.11353 0.87501 0.35384 0.0
C467 C 0.96203 0.85885 0.37268 0.0
H468 H 0.11063 0.96554 0.36435 0.0
C469 C 0.96349 0.80709 0.3664 0.0
C470 C 0.01838 0.81188 0.36002 0.0
H471 H 0.91947 0.85378 0.37791 0.0
H472 H 0.92184 0.76331 0.36674 0.0
C473 C 0.07089 0.8698 0.35905 0.0
C474 C 0.22193 0.08403 0.69807 0.0
C475 C 0.17752 0.03594 0.70933 0.0
H476 H 0.3063 0.12009 0.68247 0.0
C477 C 0.18513 0.98639 0.71373 0.0
H478 H 0.217 0.12265 0.69434 0.0
C479 C 0.23581 0.98449 0.70668 0.0
C480 C 0.28099 0.03318 0.69566 0.0
H481 H 0.15101 0.94822 0.7221 0.0
H482 H 0.239 0.9446 0.70977 0.0
C483 C 0.27309 0.08266 0.69133 0.0
C484 C 0.11118 0.22517 0.01812 0.0
C485 C 0.11004 0.17798 0.02932 0.0
H486 H 0.15464 0.29061 0.9949 0.0
C487 C 0.15542 0.16285 0.02604 0.0
H488 H 0.07674 0.23778 0.02014 0.0
C489 C 0.2002 0.19344 0.01166 0.0
C490 C 0.20094 0.24012 0.00034 0.0
H491 H 0.15586 0.12662 0.03432 0.0
H492 H 0.23378 0.17991 0.00913 0.0
C493 C 0.15588 0.25561 0.00369 0.0
C494 C 0.10292 0.23757 0.36691 0.0
C495 C 0.04949 0.18073 0.36402 0.0
H496 H 0.1668 0.32251 0.35377 0.0
C497 C 0.01553 0.16893 0.34593 0.0
H498 H 0.13009 0.24803 0.38069 0.0
C499 C 0.03679 0.21147 0.3305 0.0
C500 C 0.09203 0.26683 0.33295 0.0
H501 H 0.97425 0.12553 0.34323 0.0
H502 H 0.01133 0.20002 0.31633 0.0
C503 C 0.124 0.28021 0.35152 0.0
loop_
_geom_bond_atom_site_label_1
_geom_bond_atom_site_label_2
_geom_bond_distance
_geom_bond_site_symmetry_2
_ccdc_geom_bond_type
Co0 O1 2.216 1_445 S
Co0 O2 2.091 1_545 S
Co0 O4 2.004 . S
Co0 O10 2.021 1_445 S
Co0 O12 2.137 . S
Co0 O13 2.244 1_455 S
O1 Co0 2.216 1_665 S
O1 C8 1.247 1_655 S
O2 Co0 2.091 1_565 S
O2 C8 1.261 . S
C3 O12 1.247 . S
C3 O13 1.272 1_455 S
O4 Co0 2.004 . S
O4 C9 1.259 . S
Co5 O6 2.061 1_655 S
Co5 O11 2.052 . S
Co5 O13 2.135 . S
O6 Co5 2.061 1_455 S
O6 C9 1.235 . S
C7 O10 1.238 . S
C7 O11 1.241 1_565 S
C8 O1 1.247 1_455 S
C8 O2 1.261 . S
C9 O4 1.259 . S
C9 O6 1.235 . S
O10 Co0 2.021 1_665 S
O10 C7 1.238 . S
O11 Co5 2.052 . S
O11 C7 1.241 1_545 S
O12 Co0 2.137 . S
O12 C3 1.247 . S
O13 Co0 2.244 1_655 S
O13 C3 1.272 1_655 S
O13 Co5 2.135 . S
Co14 O15 2.216 . S
Co14 O16 2.091 . S
Co14 O18 2.004 . S
Co14 O24 2.021 . S
Co14 O26 2.137 . S
Co14 O27 2.244 1_545 S
O15 Co14 2.216 . S
O15 C22 1.247 . S
O16 Co14 2.091 . S
O16 C22 1.261 . S
C17 O26 1.247 1_565 S
C17 O27 1.272 . S
O18 Co14 2.004 . S
O18 C23 1.259 . S
Co19 O20 2.061 1_565 S
Co19 O25 2.052 1_455 S
Co19 O27 2.135 . S
O20 Co19 2.061 1_545 S
O20 C23 1.235 . S
C21 O24 1.238 1_655 S
C21 O25 1.241 1_545 S
C22 O15 1.247 . S
C22 O16 1.261 . S
C23 O18 1.259 . S
C23 O20 1.235 . S
O24 Co14 2.021 . S
O24 C21 1.238 1_455 S
O25 Co19 2.052 1_655 S
O25 C21 1.241 1_565 S
O26 Co14 2.137 . S
O26 C17 1.247 1_545 S
O27 Co14 2.244 1_565 S
O27 C17 1.272 . S
O27 Co19 2.135 . S
Co28 O29 2.216 . S
Co28 O30 2.091 1_545 S
Co28 O32 2.004 1_445 S
Co28 O38 2.021 . S
Co28 O40 2.135 1_455 S
Co28 O41 2.244 1_455 S
O29 Co28 2.216 . S
O29 C36 1.247 . S
O30 Co28 2.091 1_565 S
O30 C36 1.261 1_565 S
C31 O40 1.267 . S
C31 O41 1.272 . S
O32 Co28 2.004 1_665 S
O32 C37 1.259 . S
Co33 O34 2.061 . S
Co33 O39 2.052 1_655 S
Co33 O41 2.135 . S
O34 Co33 2.061 . S
O34 C37 1.235 1_545 S
C35 O38 1.238 . S
C35 O39 1.241 . S
C36 O29 1.247 . S
C36 O30 1.261 1_545 S
C37 O32 1.259 . S
C37 O34 1.235 1_565 S
O38 Co28 2.021 . S
O38 C35 1.238 . S
O39 Co33 2.052 1_455 S
O39 C35 1.241 . S
O40 Co28 2.135 1_655 S
O40 C31 1.267 . S
O41 Co28 2.244 1_655 S
O41 C31 1.272 . S
O41 Co33 2.135 . S
C42 C43 1.560 1_655 S
C42 H103 0.959 . S
C42 H104 0.959 . S
C42 H105 0.960 . S
C43 C42 1.560 1_455 S
C43 O98 1.426 1_455 S
C43 H102 0.980 . S
C44 C45 1.407 . S
C44 C49 1.418 1_455 S
C44 O98 1.334 1_455 S
C45 C44 1.407 . S
C45 C46 1.360 . S
C45 H106 0.929 . S
C46 C45 1.360 . S
C46 C47 1.401 . S
C46 C50 1.527 . S
C47 C46 1.401 . S
C47 C48 1.405 1_455 S
C47 C80 1.587 . S
C48 C47 1.405 1_655 S
C48 C49 1.332 . S
C48 C51 1.496 . S
C49 C44 1.418 1_655 S
C49 C48 1.332 . S
C49 H107 0.929 . S
C50 C46 1.527 . S
C50 H108 0.959 . S
C50 H109 0.961 . S
C50 H110 0.961 . S
C51 C48 1.496 . S
C51 H111 0.960 . S
C51 H112 0.960 . S
C51 H113 0.961 . S
C52 C53 1.517 . S
C52 H115 0.961 . S
C52 H116 0.960 . S
C52 H117 0.959 . S
C53 C52 1.517 . S
C53 O101 1.468 . S
C53 H114 0.980 . S
C54 C55 1.349 . S
C54 C59 1.367 . S
C54 O101 1.408 . S
C55 C54 1.349 . S
C55 C56 1.407 . S
C55 H118 0.930 . S
C56 C55 1.407 . S
C56 C57 1.449 . S
C56 C60 1.535 1_455 S
C57 C56 1.449 . S
C57 C58 1.384 . S
C57 C82 1.553 . S
C58 C57 1.384 . S
C58 C59 1.364 . S
C58 C61 1.450 . S
C59 C54 1.367 . S
C59 C58 1.364 . S
C59 H119 0.931 . S
C60 C56 1.535 1_655 S
C60 H120 0.959 . S
C60 H121 0.961 . S
C60 H122 0.959 . S
C61 C58 1.450 . S
C61 H123 0.960 . S
C61 H124 0.960 . S
C61 H125 0.960 . S
C62 C63 1.309 . S
C62 C67 1.304 . S
C62 O100 1.435 . S
C63 C62 1.309 . S
C63 C64 1.476 . S
C63 H127 0.930 1_455 S
C64 C63 1.476 . S
C64 C65 1.400 . S
C64 C68 1.567 1_455 S
C65 C64 1.400 . S
C65 C66 1.373 . S
C65 C87 1.432 . S
C66 C65 1.373 . S
C66 C67 1.339 . S
C66 C69 1.530 . S
C67 C62 1.304 . S
C67 C66 1.339 . S
C67 H128 0.930 . S
C68 C64 1.567 1_655 S
C68 H129 0.961 . S
C68 H130 0.960 . S
C68 H131 0.958 . S
C69 C66 1.530 . S
C69 H132 0.961 . S
C69 H133 0.960 . S
C69 H134 0.960 . S
C70 C71 1.530 1_655 S
C70 H136 0.961 . S
C70 H137 0.961 . S
C70 H138 0.959 . S
C71 C70 1.530 1_455 S
C71 O99 1.412 1_455 S
C71 H135 0.980 . S
C72 C73 1.288 . S
C72 C77 1.377 1_655 S
C72 O99 1.393 . S
C73 C72 1.288 . S
C73 C74 1.369 . S
C73 H139 0.932 . S
C74 C73 1.369 . S
C74 C75 1.398 1_655 S
C74 C78 1.527 . S
C75 C74 1.398 1_455 S
C75 C76 1.380 . S
C75 C89 1.497 . S
C76 C75 1.380 . S
C76 C77 1.383 . S
C76 C79 1.603 . S
C77 C72 1.377 1_455 S
C77 C76 1.383 . S
C77 H140 0.929 . S
C78 C74 1.527 . S
C78 H141 0.961 . S
C78 H142 0.959 . S
C78 H143 0.959 . S
C79 C76 1.603 . S
C79 H144 0.960 . S
C79 H145 0.962 . S
C79 H146 0.961 . S
C80 C47 1.587 . S
C80 C81 1.360 . S
C80 C93 1.412 . S
C81 C80 1.360 . S
C81 C82 1.365 . S
C81 H147 0.929 . S
C82 C57 1.553 . S
C82 C81 1.365 . S
C82 C83 1.404 . S
C83 C82 1.404 . S
C83 C84 1.395 . S
C83 C94 1.451 . S
C84 C83 1.395 . S
C84 C85 1.322 . S
C84 H148 0.930 . S
C85 C84 1.322 . S
C85 C86 1.459 . S
C85 H149 0.929 . S
C86 C85 1.459 . S
C86 C87 1.445 . S
C86 C95 1.395 . S
C87 C65 1.432 . S
C87 C86 1.445 . S
C87 C88 1.370 . S
C88 C87 1.370 . S
C88 C89 1.438 . S
C88 H150 0.930 . S
C89 C75 1.497 . S
C89 C88 1.438 . S
C89 C90 1.360 . S
C90 C89 1.360 . S
C90 C91 1.401 . S
C90 C95 1.446 . S
C91 C90 1.401 . S
C91 C92 1.347 . S
C91 H151 0.929 . S
C92 C91 1.347 . S
C92 C93 1.455 . S
C92 H152 0.930 . S
C93 C80 1.412 . S
C93 C92 1.455 . S
C93 C94 1.331 . S
C94 C83 1.451 . S
C94 C93 1.331 . S
C94 C95 1.497 . S
C95 C86 1.395 . S
C95 C90 1.446 . S
C95 C94 1.497 . S
C96 C97 1.582 . S
C96 H153 0.962 . S
C96 H154 0.959 . S
C96 H155 0.958 . S
C97 C96 1.582 . S
C97 O100 1.458 . S
C97 H126 0.980 . S
O98 C43 1.426 1_655 S
O98 C44 1.334 1_655 S
O99 C71 1.412 1_655 S
O99 C72 1.393 . S
O100 C62 1.435 . S
O100 C97 1.458 . S
O101 C53 1.468 . S
O101 C54 1.408 . S
H102 C43 0.980 . S
H103 C42 0.959 . S
H104 C42 0.959 . S
H105 C42 0.960 . S
H106 C45 0.929 . S
H107 C49 0.929 . S
H108 C50 0.959 . S
H109 C50 0.961 . S
H110 C50 0.961 . S
H111 C51 0.960 . S
H112 C51 0.960 . S
H113 C51 0.961 . S
H114 C53 0.980 . S
H115 C52 0.961 . S
H116 C52 0.960 . S
H117 C52 0.959 . S
H118 C55 0.930 . S
H119 C59 0.931 . S
H120 C60 0.959 . S
H121 C60 0.961 . S
H122 C60 0.959 . S
H123 C61 0.960 . S
H124 C61 0.960 . S
H125 C61 0.960 . S
H126 C97 0.980 . S
H127 C63 0.930 1_655 S
H128 C67 0.930 . S
H129 C68 0.961 . S
H130 C68 0.960 . S
H131 C68 0.958 . S
H132 C69 0.961 . S
H133 C69 0.960 . S
H134 C69 0.960 . S
H135 C71 0.980 . S
H136 C70 0.961 . S
H137 C70 0.961 . S
H138 C70 0.959 . S
H139 C73 0.932 . S
H140 C77 0.929 . S
H141 C78 0.961 . S
H142 C78 0.959 . S
H143 C78 0.959 . S
H144 C79 0.960 . S
H145 C79 0.962 . S
H146 C79 0.961 . S
H147 C81 0.929 . S
H148 C84 0.930 . S
H149 C85 0.929 . S
H150 C88 0.930 . S
H151 C91 0.929 . S
H152 C92 0.930 . S
H153 C96 0.962 . S
H154 C96 0.959 . S
H155 C96 0.958 . S
C156 C157 1.560 1_565 S
C156 H217 0.959 . S
C156 H218 0.959 . S
C156 H219 0.960 . S
C157 C156 1.560 1_545 S
C157 O212 1.426 1_545 S
C157 H216 0.980 . S
C158 C159 1.407 . S
C158 C163 1.418 1_545 S
C158 O212 1.334 1_545 S
C159 C158 1.407 . S
C159 C160 1.360 . S
C159 H220 0.929 . S
C160 C159 1.360 . S
C160 C161 1.401 . S
C160 C164 1.527 . S
C161 C160 1.401 . S
C161 C162 1.405 1_545 S
C161 C194 1.587 . S
C162 C161 1.405 1_565 S
C162 C163 1.332 . S
C162 C165 1.496 . S
C163 C158 1.418 1_565 S
C163 C162 1.332 . S
C163 H221 0.929 . S
C164 C160 1.527 . S
C164 H222 0.959 . S
C164 H223 0.961 . S
C164 H224 0.961 . S
C165 C162 1.496 . S
C165 H225 0.960 . S
C165 H226 0.960 . S
C165 H227 0.961 . S
C166 C167 1.517 . S
C166 H229 0.961 . S
C166 H230 0.960 . S
C166 H231 0.959 . S
C167 C166 1.517 . S
C167 O215 1.468 . S
C167 H228 0.980 . S
C168 C169 1.349 . S
C168 C173 1.367 . S
C168 O215 1.408 . S
C169 C168 1.349 . S
C169 C170 1.407 . S
C169 H232 0.930 . S
C170 C169 1.407 . S
C170 C171 1.449 . S
C170 C174 1.535 1_545 S
C171 C170 1.449 . S
C171 C172 1.384 . S
C171 C196 1.553 . S
C172 C171 1.384 . S
C172 C173 1.364 . S
C172 C175 1.450 . S
C173 C168 1.367 . S
C173 C172 1.364 . S
C173 H233 0.931 . S
C174 C170 1.535 1_565 S
C174 H234 0.959 . S
C174 H235 0.961 . S
C174 H236 0.959 . S
C175 C172 1.450 . S
C175 H237 0.960 . S
C175 H238 0.960 . S
C175 H239 0.960 . S
C176 C177 1.309 . S
C176 C181 1.304 . S
C176 O214 1.435 . S
C177 C176 1.309 . S
C177 C178 1.476 . S
C177 H241 0.930 . S
C178 C177 1.476 . S
C178 C179 1.400 . S
C178 C182 1.567 1_545 S
C179 C178 1.400 . S
C179 C180 1.373 . S
C179 C201 1.432 . S
C180 C179 1.373 . S
C180 C181 1.339 . S
C180 C183 1.530 . S
C181 C176 1.304 . S
C181 C180 1.339 . S
C181 H242 0.930 . S
C182 C178 1.567 1_565 S
C182 H243 0.961 . S
C182 H244 0.960 . S
C182 H245 0.958 . S
C183 C180 1.530 . S
C183 H246 0.961 . S
C183 H247 0.960 . S
C183 H248 0.960 . S
C184 C185 1.530 . S
C184 H250 0.961 . S
C184 H251 0.961 1_545 S
C184 H252 0.959 1_545 S
C185 C184 1.530 . S
C185 O213 1.412 . S
C185 H249 0.980 . S
C186 C187 1.288 1_545 S
C186 C191 1.377 . S
C186 O213 1.393 . S
C187 C186 1.288 1_565 S
C187 C188 1.369 . S
C187 H253 0.932 . S
C188 C187 1.369 . S
C188 C189 1.398 1_565 S
C188 C192 1.527 . S
C189 C188 1.398 1_545 S
C189 C190 1.380 . S
C189 C203 1.497 . S
C190 C189 1.380 . S
C190 C191 1.383 . S
C190 C193 1.603 . S
C191 C186 1.377 . S
C191 C190 1.383 . S
C191 H254 0.929 . S
C192 C188 1.527 . S
C192 H255 0.961 . S
C192 H256 0.959 . S
C192 H257 0.959 . S
C193 C190 1.603 . S
C193 H258 0.960 . S
C193 H259 0.962 . S
C193 H260 0.961 . S
C194 C161 1.587 . S
C194 C195 1.360 . S
C194 C207 1.412 . S
C195 C194 1.360 . S
C195 C196 1.365 . S
C195 H261 0.929 . S
C196 C171 1.553 . S
C196 C195 1.365 . S
C196 C197 1.404 . S
C197 C196 1.404 . S
C197 C198 1.395 . S
C197 C208 1.451 . S
C198 C197 1.395 . S
C198 C199 1.322 . S
C198 H262 0.930 . S
C199 C198 1.322 . S
C199 C200 1.459 . S
C199 H263 0.929 . S
C200 C199 1.459 . S
C200 C201 1.445 . S
C200 C209 1.395 . S
C201 C179 1.432 . S
C201 C200 1.445 . S
C201 C202 1.370 . S
C202 C201 1.370 . S
C202 C203 1.438 . S
C202 H264 0.930 . S
C203 C189 1.497 . S
C203 C202 1.438 . S
C203 C204 1.360 . S
C204 C203 1.360 . S
C204 C205 1.401 . S
C204 C209 1.446 . S
C205 C204 1.401 . S
C205 C206 1.347 . S
C205 H265 0.929 . S
C206 C205 1.347 . S
C206 C207 1.455 . S
C206 H266 0.930 . S
C207 C194 1.412 . S
C207 C206 1.455 . S
C207 C208 1.331 . S
C208 C197 1.451 . S
C208 C207 1.331 . S
C208 C209 1.497 . S
C209 C200 1.395 . S
C209 C204 1.446 . S
C209 C208 1.497 . S
C210 C211 1.582 . S
C210 H267 0.962 . S
C210 H268 0.959 . S
C210 H269 0.958 . S
C211 C210 1.582 . S
C211 O214 1.458 . S
C211 H240 0.980 . S
O212 C157 1.426 1_565 S
O212 C158 1.334 1_565 S
O213 C185 1.412 . S
O213 C186 1.393 . S
O214 C176 1.435 . S
O214 C211 1.458 . S
O215 C167 1.468 . S
O215 C168 1.408 . S
H216 C157 0.980 . S
H217 C156 0.959 . S
H218 C156 0.959 . S
H219 C156 0.960 . S
H220 C159 0.929 . S
H221 C163 0.929 . S
H222 C164 0.959 . S
H223 C164 0.961 . S
H224 C164 0.961 . S
H225 C165 0.960 . S
H226 C165 0.960 . S
H227 C165 0.961 . S
H228 C167 0.980 . S
H229 C166 0.961 . S
H230 C166 0.960 . S
H231 C166 0.959 . S
H232 C169 0.930 . S
H233 C173 0.931 . S
H234 C174 0.959 . S
H235 C174 0.961 . S
H236 C174 0.959 . S
H237 C175 0.960 . S
H238 C175 0.960 . S
H239 C175 0.960 . S
H240 C211 0.980 . S
H241 C177 0.930 . S
H242 C181 0.930 . S
H243 C182 0.961 . S
H244 C182 0.960 . S
H245 C182 0.958 . S
H246 C183 0.961 . S
H247 C183 0.960 . S
H248 C183 0.960 . S
H249 C185 0.980 . S
H250 C184 0.961 . S
H251 C184 0.961 1_565 S
H252 C184 0.959 1_565 S
H253 C187 0.932 . S
H254 C191 0.929 . S
H255 C192 0.961 . S
H256 C192 0.959 . S
H257 C192 0.959 . S
H258 C193 0.960 . S
H259 C193 0.962 . S
H260 C193 0.961 . S
H261 C195 0.929 . S
H262 C198 0.930 . S
H263 C199 0.929 . S
H264 C202 0.930 . S
H265 C205 0.929 . S
H266 C206 0.930 . S
H267 C210 0.962 . S
H268 C210 0.959 . S
H269 C210 0.958 . S
C270 C271 1.560 . S
C270 H331 0.959 . S
C270 H332 0.959 . S
C270 H333 0.960 . S
C271 C270 1.560 . S
C271 O326 1.426 . S
C271 H330 0.980 . S
C272 C273 1.407 . S
C272 C277 1.418 . S
C272 O326 1.334 . S
C273 C272 1.407 . S
C273 C274 1.360 . S
C273 H334 0.929 . S
C274 C273 1.360 . S
C274 C275 1.401 . S
C274 C278 1.527 . S
C275 C274 1.401 . S
C275 C276 1.405 . S
C275 C308 1.587 . S
C276 C275 1.405 . S
C276 C277 1.332 . S
C276 C279 1.496 . S
C277 C272 1.418 . S
C277 C276 1.332 . S
C277 H335 0.929 . S
C278 C274 1.527 . S
C278 H336 0.959 . S
C278 H337 0.961 . S
C278 H338 0.961 . S
C279 C276 1.496 . S
C279 H339 0.960 . S
C279 H340 0.960 . S
C279 H341 0.961 . S
C280 C281 1.517 . S
C280 H343 0.961 . S
C280 H344 0.960 . S
C280 H345 0.959 . S
C281 C280 1.517 . S
C281 O329 1.468 . S
C281 H342 0.980 . S
C282 C283 1.349 . S
C282 C287 1.367 . S
C282 O329 1.408 . S
C283 C282 1.349 . S
C283 C284 1.407 . S
C283 H346 0.930 . S
C284 C283 1.407 . S
C284 C285 1.449 . S
C284 C288 1.535 . S
C285 C284 1.449 . S
C285 C286 1.384 . S
C285 C310 1.553 . S
C286 C285 1.384 . S
C286 C287 1.364 . S
C286 C289 1.450 . S
C287 C282 1.367 . S
C287 C286 1.364 . S
C287 H347 0.931 . S
C288 C284 1.535 . S
C288 H348 0.959 . S
C288 H349 0.961 . S
C288 H350 0.959 . S
C289 C286 1.450 . S
C289 H351 0.960 . S
C289 H352 0.960 . S
C289 H353 0.960 . S
C290 C291 1.309 . S
C290 C295 1.304 . S
C290 O328 1.435 . S
C291 C290 1.309 . S
C291 C292 1.476 . S
C291 H355 0.930 . S
C292 C291 1.476 . S
C292 C293 1.400 . S
C292 C296 1.567 . S
C293 C292 1.400 . S
C293 C294 1.373 . S
C293 C315 1.432 . S
C294 C293 1.373 . S
C294 C295 1.339 . S
C294 C297 1.530 . S
C295 C290 1.304 . S
C295 C294 1.339 . S
C295 H356 0.930 . S
C296 C292 1.567 . S
C296 H357 0.961 . S
C296 H358 0.960 . S
C296 H359 0.958 . S
C297 C294 1.530 . S
C297 H360 0.961 . S
C297 H361 0.960 . S
C297 H362 0.960 . S
C298 C299 1.530 1_554 S
C298 H364 0.961 . S
C298 H365 0.961 1_554 S
C298 H366 0.959 . S
C299 C298 1.530 1_556 S
C299 O327 1.412 . S
C299 H363 0.980 . S
C300 C301 1.288 . S
C300 C305 1.377 . S
C300 O327 1.393 . S
C301 C300 1.288 . S
C301 C302 1.369 . S
C301 H367 0.932 . S
C302 C301 1.369 . S
C302 C303 1.398 . S
C302 C306 1.527 . S
C303 C302 1.398 . S
C303 C304 1.380 . S
C303 C317 1.497 . S
C304 C303 1.380 . S
C304 C305 1.383 . S
C304 C307 1.603 . S
C305 C300 1.377 . S
C305 C304 1.383 . S
C305 H368 0.929 . S
C306 C302 1.527 . S
C306 H369 0.961 . S
C306 H370 0.959 . S
C306 H371 0.959 . S
C307 C304 1.603 . S
C307 H372 0.960 . S
C307 H373 0.962 . S
C307 H374 0.961 . S
C308 C275 1.587 . S
C308 C309 1.360 . S
C308 C321 1.412 . S
C309 C308 1.360 . S
C309 C310 1.365 . S
C309 H375 0.929 . S
C310 C285 1.553 . S
C310 C309 1.365 . S
C310 C311 1.404 . S
C311 C310 1.404 . S
C311 C312 1.395 . S
C311 C322 1.451 . S
C312 C311 1.395 . S
C312 C313 1.322 . S
C312 H376 0.930 . S
C313 C312 1.322 . S
C313 C314 1.459 . S
C313 H377 0.929 . S
C314 C313 1.459 . S
C314 C315 1.445 . S
C314 C323 1.395 . S
C315 C293 1.432 . S
C315 C314 1.445 . S
C315 C316 1.370 . S
C316 C315 1.370 . S
C316 C317 1.438 . S
C316 H378 0.930 . S
C317 C303 1.497 . S
C317 C316 1.438 . S
C317 C318 1.360 . S
C318 C317 1.360 . S
C318 C319 1.401 . S
C318 C323 1.446 . S
C319 C318 1.401 . S
C319 C320 1.347 . S
C319 H379 0.929 . S
C320 C319 1.347 . S
C320 C321 1.455 . S
C320 H380 0.930 . S
C321 C308 1.412 . S
C321 C320 1.455 . S
C321 C322 1.331 . S
C322 C311 1.451 . S
C322 C321 1.331 . S
C322 C323 1.497 . S
C323 C314 1.395 . S
C323 C318 1.446 . S
C323 C322 1.497 . S
C324 C325 1.582 . S
C324 H381 0.962 1_556 S
C324 H382 0.959 . S
C324 H383 0.958 1_556 S
C325 C324 1.582 . S
C325 O328 1.458 . S
C325 H354 0.980 . S
O326 C271 1.426 . S
O326 C272 1.334 . S
O327 C299 1.412 . S
O327 C300 1.393 . S
O328 C290 1.435 . S
O328 C325 1.458 . S
O329 C281 1.468 . S
O329 C282 1.408 . S
H330 C271 0.980 . S
H331 C270 0.959 . S
H332 C270 0.959 . S
H333 C270 0.960 . S
H334 C273 0.929 . S
H335 C277 0.929 . S
H336 C278 0.959 . S
H337 C278 0.961 . S
H338 C278 0.961 . S
H339 C279 0.960 . S
H340 C279 0.960 . S
H341 C279 0.961 . S
H342 C281 0.980 . S
H343 C280 0.961 . S
H344 C280 0.960 . S
H345 C280 0.959 . S
H346 C283 0.930 . S
H347 C287 0.931 . S
H348 C288 0.959 . S
H349 C288 0.961 . S
H350 C288 0.959 . S
H351 C289 0.960 . S
H352 C289 0.960 . S
H353 C289 0.960 . S
H354 C325 0.980 . S
H355 C291 0.930 . S
H356 C295 0.930 . S
H357 C296 0.961 . S
H358 C296 0.960 . S
H359 C296 0.958 . S
H360 C297 0.961 . S
H361 C297 0.960 . S
H362 C297 0.960 . S
H363 C299 0.980 . S
H364 C298 0.961 . S
H365 C298 0.961 1_556 S
H366 C298 0.959 . S
H367 C301 0.932 . S
H368 C305 0.929 . S
H369 C306 0.961 . S
H370 C306 0.959 . S
H371 C306 0.959 . S
H372 C307 0.960 . S
H373 C307 0.962 . S
H374 C307 0.961 . S
H375 C309 0.929 . S
H376 C312 0.930 . S
H377 C313 0.929 . S
H378 C316 0.930 . S
H379 C319 0.929 . S
H380 C320 0.930 . S
H381 C324 0.962 1_554 S
H382 C324 0.959 . S
H383 C324 0.958 1_554 S
C384 C385 1.387 1_655 S
C384 H388 0.950 . S
C384 C393 1.390 . S
C385 C384 1.387 1_455 S
C385 C387 1.387 . S
H386 C393 0.950 . S
C387 C385 1.387 . S
C387 C389 1.390 . S
C387 H391 0.950 . S
H388 C384 0.950 . S
C389 C387 1.390 . S
C389 C390 1.387 . S
C389 H392 0.950 . S
C390 C389 1.387 . S
C390 C393 1.387 1_455 S
H391 C387 0.950 . S
H392 C389 0.950 . S
C393 C384 1.390 . S
C393 H386 0.950 . S
C393 C390 1.387 1_655 S
C394 C395 1.387 1_565 S
C394 H398 0.950 . S
C394 C403 1.390 . S
C395 C394 1.387 1_545 S
C395 C397 1.387 . S
H396 C403 0.950 . S
C397 C395 1.387 . S
C397 C399 1.390 . S
C397 H401 0.950 . S
H398 C394 0.950 . S
C399 C397 1.390 . S
C399 C400 1.387 . S
C399 H402 0.950 . S
C400 C399 1.387 . S
C400 C403 1.387 1_545 S
H401 C397 0.950 . S
H402 C399 0.950 . S
C403 C394 1.390 . S
C403 H396 0.950 . S
C403 C400 1.387 1_565 S
C404 C405 1.387 . S
C404 H408 0.950 . S
C404 C413 1.390 . S
C405 C404 1.387 . S
C405 C407 1.387 . S
H406 C413 0.950 . S
C407 C405 1.387 . S
C407 C409 1.390 . S
C407 H411 0.950 . S
H408 C404 0.950 . S
C409 C407 1.390 . S
C409 C410 1.387 . S
C409 H412 0.950 . S
C410 C409 1.387 . S
C410 C413 1.387 . S
H411 C407 0.950 . S
H412 C409 0.950 . S
C413 C404 1.390 . S
C413 H406 0.950 . S
C413 C410 1.387 . S
C414 C415 1.387 . S
C414 H418 0.950 . S
C414 C423 1.390 . S
C415 C414 1.387 . S
C415 C417 1.387 1_455 S
H416 C423 0.950 . S
C417 C415 1.387 1_655 S
C417 C419 1.390 . S
C417 H421 0.950 . S
H418 C414 0.950 . S
C419 C417 1.390 . S
C419 C420 1.387 1_655 S
C419 H422 0.950 . S
C420 C419 1.387 1_455 S
C420 C423 1.387 . S
H421 C417 0.950 . S
H422 C419 0.950 . S
C423 C414 1.390 . S
C423 H416 0.950 . S
C423 C420 1.387 . S
C424 C425 1.387 . S
C424 H428 0.950 1_545 S
C424 C433 1.390 . S
C425 C424 1.387 . S
C425 C427 1.387 . S
H426 C433 0.950 1_565 S
C427 C425 1.387 . S
C427 C429 1.390 . S
C427 H431 0.950 . S
H428 C424 0.950 1_565 S
C429 C427 1.390 . S
C429 C430 1.387 . S
C429 H432 0.950 . S
C430 C429 1.387 . S
C430 C433 1.387 . S
H431 C427 0.950 . S
H432 C429 0.950 . S
C433 C424 1.390 . S
C433 H426 0.950 1_545 S
C433 C430 1.387 . S
C434 C435 1.387 . S
C434 H438 0.950 . S
C434 C443 1.390 . S
C435 C434 1.387 . S
C435 C437 1.387 . S
H436 C443 0.950 . S
C437 C435 1.387 . S
C437 C439 1.390 . S
C437 H441 0.950 . S
H438 C434 0.950 . S
C439 C437 1.390 . S
C439 C440 1.387 . S
C439 H442 0.950 . S
C440 C439 1.387 . S
C440 C443 1.387 . S
H441 C437 0.950 . S
H442 C439 0.950 . S
C443 C434 1.390 . S
C443 H436 0.950 . S
C443 C440 1.387 . S
C444 C445 1.387 1_565 S
C444 H448 0.950 . S
C444 C453 1.390 . S
C445 C444 1.387 1_545 S
C445 C447 1.387 . S
H446 C453 0.950 . S
C447 C445 1.387 . S
C447 C449 1.390 . S
C447 H451 0.950 . S
H448 C444 0.950 . S
C449 C447 1.390 . S
C449 C450 1.387 . S
C449 H452 0.950 . S
C450 C449 1.387 . S
C450 C453 1.387 1_545 S
H451 C447 0.950 . S
H452 C449 0.950 . S
C453 C444 1.390 . S
C453 H446 0.950 . S
C453 C450 1.387 1_565 S
C454 C455 1.387 . S
C454 H458 0.950 . S
C454 C463 1.390 . S
C455 C454 1.387 . S
C455 C457 1.387 . S
H456 C463 0.950 . S
C457 C455 1.387 . S
C457 C459 1.400 . S
C457 H461 0.950 . S
H458 C454 0.950 . S
C459 C457 1.400 . S
C459 C460 1.395 . S
C459 H462 0.932 1_554 S
C460 C459 1.395 . S
C460 C463 1.387 . S
H461 C457 0.950 . S
H462 C459 0.932 1_556 S
C463 C454 1.390 . S
C463 H456 0.950 . S
C463 C460 1.387 . S
C464 C465 1.387 . S
C464 H468 0.950 . S
C464 C473 1.390 . S
C465 C464 1.387 . S
C465 C467 1.387 1_455 S
H466 C473 0.950 . S
C467 C465 1.387 1_655 S
C467 C469 1.390 . S
C467 H471 0.950 . S
H468 C464 0.950 . S
C469 C467 1.390 . S
C469 C470 1.387 1_655 S
C469 H472 0.950 . S
C470 C469 1.387 1_455 S
C470 C473 1.387 . S
H471 C467 0.950 . S
H472 C469 0.950 . S
C473 C464 1.390 . S
C473 H466 0.950 . S
C473 C470 1.387 . S
C474 C475 1.387 . S
C474 H478 0.950 . S
C474 C483 1.390 . S
C475 C474 1.387 . S
C475 C477 1.387 1_545 S
H476 C483 0.950 . S
C477 C475 1.387 1_565 S
C477 C479 1.390 . S
C477 H481 0.950 . S
H478 C474 0.950 . S
C479 C477 1.390 . S
C479 C480 1.387 1_565 S
C479 H482 0.950 . S
C480 C479 1.387 1_545 S
C480 C483 1.387 . S
H481 C477 0.950 . S
H482 C479 0.950 . S
C483 C474 1.390 . S
C483 H476 0.950 . S
C483 C480 1.387 . S
C484 C485 1.387 . S
C484 H488 0.950 . S
C484 C493 1.390 . S
C485 C484 1.387 . S
C485 C487 1.387 . S
H486 C493 0.950 . S
C487 C485 1.387 . S
C487 C489 1.390 . S
C487 H491 0.950 . S
H488 C484 0.950 . S
C489 C487 1.390 . S
C489 C490 1.405 . S
C489 H492 0.950 . S
C490 C489 1.405 . S
C490 C493 1.402 . S
H491 C487 0.950 . S
H492 C489 0.950 . S
C493 C484 1.390 . S
C493 H486 0.950 . S
C493 C490 1.402 . S
C494 C495 1.387 . S
C494 H498 0.950 . S
C494 C503 1.390 . S
C495 C494 1.387 . S
C495 C497 1.387 . S
H496 C503 0.950 . S
C497 C495 1.387 . S
C497 C499 1.390 . S
C497 H501 0.950 1_455 S
H498 C494 0.950 . S
C499 C497 1.390 . S
C499 C500 1.387 . S
C499 H502 0.950 1_455 S
C500 C499 1.387 . S
C500 C503 1.387 . S
H501 C497 0.950 1_655 S
H502 C499 0.950 1_655 S
C503 C494 1.390 . S
C503 H496 0.950 . S
C503 C500 1.387 . S
C390 C97 1.133 . S
C385 C3 1.575 . S
C395 C21 1.581 . S
C400 C211 1.185 . S
C405 C37 1.359 . S
C410 C271 1.080 . S
C415 C8 1.451 . S
C420 C71 1.145 . S
C430 C185 1.146 . S
C425 C23 1.457 . S
C435 C35 1.487 . S
C440 C281 0.960 . S
C450 C167 0.888 . S
C445 C31 1.505 . S
C455 C7 1.455 . S
C460 C299 1.122 1_554 S
C470 C43 1.117 . S
C465 C17 1.378 . S
C480 C157 1.083 . S
C475 C36 1.348 . S
C490 C325 1.175 1_554 S
C485 C9 1.554 . S
C495 C22 1.497 . S
C500 C53 0.869 . S
