# Generated by pormake.
# Topology anh, (6,3)-cn, num edge types: 1
# Building blocks:
#     Node 0, Type 0, BuildingBlock: NUHQIS_clean_sbu_0, # of connection points: 6
#     Node 1, Type 0, BuildingBlock: NUHQIS_clean_sbu_0, # of connection points: 6
#     Node 2, Type 0, BuildingBlock: NUHQIS_clean_sbu_0, # of connection points: 6
#     Node 3, Type 1, BuildingBlock: PAMTOO_clean_linker_0, # of connection points: 3
#     Node 4, Type 1, BuildingBlock: PAMTOO_clean_linker_0, # of connection points: 3
#     Node 5, Type 1, BuildingBlock: PAMTOO_clean_linker_0, # of connection points: 3
#     Node 6, Type 1, BuildingBlock: PAMTOO_clean_linker_0, # of connection points: 3
#     Node 7, Type 1, BuildingBlock: PAMTOO_clean_linker_0, # of connection points: 3
#     Node 8, Type 1, BuildingBlock: PAMTOO_clean_linker_0, # of connection points: 3
#     Edge 9, Type (0, 1), BuildingBlock: XUDNAN_clean_linker_2, # of connection points: 2
#     Edge 10, Type (0, 1), BuildingBlock: XUDNAN_clean_linker_2, # of connection points: 2
#     Edge 11, Type (0, 1), BuildingBlock: XUDNAN_clean_linker_2, # of connection points: 2
#     Edge 12, Type (0, 1), BuildingBlock: XUDNAN_clean_linker_2, # of connection points: 2
#     Edge 13, Type (0, 1), BuildingBlock: XUDNAN_clean_linker_2, # of connection points: 2
#     Edge 14, Type (0, 1), BuildingBlock: XUDNAN_clean_linker_2, # of connection points: 2
#     Edge 15, Type (0, 1), BuildingBlock: XUDNAN_clean_linker_2, # of connection points: 2
#     Edge 16, Type (0, 1), BuildingBlock: XUDNAN_clean_linker_2, # of connection points: 2
#     Edge 17, Type (0, 1), BuildingBlock: XUDNAN_clean_linker_2, # of connection points: 2
#     Edge 18, Type (0, 1), BuildingBlock: XUDNAN_clean_linker_2, # of connection points: 2
#     Edge 19, Type (0, 1), BuildingBlock: XUDNAN_clean_linker_2, # of connection points: 2
#     Edge 20, Type (0, 1), BuildingBlock: XUDNAN_clean_linker_2, # of connection points: 2
#     Edge 21, Type (0, 1), BuildingBlock: XUDNAN_clean_linker_2, # of connection points: 2
#     Edge 22, Type (0, 1), BuildingBlock: XUDNAN_clean_linker_2, # of connection points: 2
#     Edge 23, Type (0, 1), BuildingBlock: XUDNAN_clean_linker_2, # of connection points: 2
#     Edge 24, Type (0, 1), BuildingBlock: XUDNAN_clean_linker_2, # of connection points: 2
#     Edge 25, Type (0, 1), BuildingBlock: XUDNAN_clean_linker_2, # of connection points: 2
#     Edge 26, Type (0, 1), BuildingBlock: XUDNAN_clean_linker_2, # of connection points: 2
# Relax obj value: 0.252
# Max RMSD: 0.145
# Mean RMSD: 0.118
data_MOF--net-anh--node1-NUHQIS_clean_sbu_0--node2-PAMTOO_clean_linker_0--edge1-XUDNAN_clean_linker_2
_symmetry_space_group_name_H-M    P1
_symmetry_Int_Tables_number       1
_symmetry_cell_setting            triclinic
loop_
_symmetry_equiv_pos_as_xyz
'x, y, z'
_cell_length_a     30.668817
_cell_length_b     30.670733
_cell_length_c     49.387169
_cell_angle_alpha  85.617385
_cell_angle_beta   94.379135
_cell_angle_gamma 119.74521
loop_
_atom_site_label
_atom_site_type_symbol
_atom_site_fract_x
_atom_site_fract_y
_atom_site_fract_z
_atom_type_partial_charge
Tb0 Tb 0.24038 0.62515 0.17075 0.0
Eu1 Eu 0.1786 0.6843 0.16008 0.0
C2 C 0.20777 0.65697 0.21962 0.0
C3 C 1.11774 0.56046 0.16759 0.0
C4 C 0.27933 0.52926 0.16724 0.0
C5 C 0.3101 0.471 0.16397 0.0
C6 C 0.31436 0.51359 0.17492 0.0
C7 C 0.23878 0.50098 0.14921 0.0
C8 C 0.23442 0.45822 0.13821 0.0
C9 C 0.27055 0.44323 0.14514 0.0
C10 C 0.28718 0.57664 0.17695 0.0
O11 O 0.21184 0.61371 0.12868 0.0
O12 O 0.20957 0.68627 0.11961 0.0
O13 O 0.25897 0.7487 0.16767 0.0
O14 O 0.3029 0.70602 0.16746 0.0
C15 C 0.21147 0.64782 0.11114 0.0
O16 O 0.13068 0.70418 0.13335 0.0
O17 O 0.14998 0.73074 0.17427 0.0
O18 O 0.17137 0.65768 0.20429 0.0
O19 O 0.24537 0.65691 0.20898 0.0
O20 O 0.16067 0.56338 0.17751 0.0
O21 O 1.11831 0.60132 0.15647 0.0
C22 C 0.30246 0.74915 0.16849 0.0
O23 O 0.2965 0.61215 0.15822 0.0
O24 O 0.25481 0.57298 0.19388 0.0
C25 C 1.06553 0.69808 0.15768 0.0
C26 C 0.96183 0.6307 0.16032 0.0
C27 C 0.98091 0.66427 0.13772 0.0
C28 C 1.03237 0.69788 0.13647 0.0
C29 C 1.04604 0.6666 0.18104 0.0
C30 C 0.99444 0.63343 0.18243 0.0
C31 C 1.11961 0.7228 0.15289 0.0
H32 H 0.33924 0.4613 0.16932 0.0
H33 H 0.34596 0.53522 0.18873 0.0
H34 H 0.21135 0.51275 0.14313 0.0
H35 H 0.20348 0.43755 0.12387 0.0
H36 H 0.95622 0.66303 0.12053 0.0
H37 H 1.04661 0.72136 0.11818 0.0
H38 H 1.07083 0.66533 0.19754 0.0
H39 H 0.9805 0.60772 0.19999 0.0
Tb40 Tb 0.73475 0.1552 0.5011 0.0
Eu41 Eu 0.61788 0.10655 0.48501 0.0
C42 C 0.65704 0.11889 0.54621 0.0
C43 C 0.67185 1.0353 0.49567 0.0
C44 C 0.86271 0.2437 0.52727 0.0
C45 C 0.88696 0.32889 0.53804 0.0
C46 C 0.85027 0.28151 0.52961 0.0
C47 C 0.91072 0.25214 0.53579 0.0
C48 C 0.9473 0.29932 0.54452 0.0
C49 C 0.93633 0.33874 0.54455 0.0
C50 C 0.82741 0.1972 0.51389 0.0
O51 O 0.72481 0.13861 0.45789 0.0
O52 O 0.66183 0.15642 0.45004 0.0
O53 O 0.63698 0.18618 0.49592 0.0
O54 O 0.72304 0.22221 0.49613 0.0
C55 C 0.69877 0.1529 0.44101 0.0
O56 O 0.56059 1.07513 0.45242 0.0
O57 O 0.53859 1.07669 0.49286 0.0
O58 O 0.62253 0.08748 0.52947 0.0
O59 O 0.69935 0.15576 0.53728 0.0
O60 O 0.71027 1.07364 0.50771 0.0
O61 O 0.63659 1.04242 0.48218 0.0
C62 C 0.68212 0.22677 0.49711 0.0
O63 O 0.79296 0.16226 0.52899 0.0
O64 O 0.80895 0.20317 0.4901 0.0
C65 C 0.48961 1.00352 0.46785 0.0
C66 C 0.44624 0.90034 0.45921 0.0
C67 C 0.43925 0.93229 0.43961 0.0
C68 C 0.4607 0.98354 0.44394 0.0
C69 C 0.49376 0.97102 0.48821 0.0
C70 C 0.47197 0.9198 0.48398 0.0
C71 C 0.52363 1.05802 0.46881 0.0
H72 H 0.87765 0.35869 0.53784 0.0
H73 H 0.81304 0.27525 0.52348 0.0
H74 H 0.92074 0.22317 0.53427 0.0
H75 H 0.98522 0.30605 0.54903 0.0
H76 H 0.41925 0.91807 0.42042 0.0
H77 H 0.45763 1.0081 0.42787 0.0
H78 H 0.51671 0.98562 0.50661 0.0
H79 H 0.47847 0.89618 0.49931 0.0
Tb80 Tb 0.75083 0.70995 0.82808 0.0
Eu81 Eu 0.69452 0.58966 0.83621 0.0
C82 C 0.72892 0.65514 0.8845 0.0
C83 C 0.81835 0.65272 0.83307 0.0
C84 C 0.77371 0.83455 0.84104 0.0
C85 C 0.78417 0.9154 0.85124 0.0
C86 C 0.80428 0.88655 0.84302 0.0
C87 C 0.72379 0.81134 0.84874 0.0
C88 C 0.70342 0.83999 0.8564 0.0
C89 C 0.73291 0.89264 0.85712 0.0
C90 C 0.79249 0.80409 0.83013 0.0
O91 O 0.74503 0.68758 0.78622 0.0
O92 O 0.68379 0.60486 0.79167 0.0
O93 O 0.6318 0.61023 0.84088 0.0
O94 O 0.6708 0.69061 0.82225 0.0
C95 C 0.71127 0.6445 0.77598 0.0
O96 O 0.64636 0.52498 0.86224 0.0
O97 O 0.67473 0.51427 0.82568 0.0
O98 O 0.74034 0.62537 0.87345 0.0
O99 O 0.71884 0.68488 0.86823 0.0
O100 O 0.81525 0.69461 0.8311 0.0
O101 O 0.77699 0.60821 0.83412 0.0
C102 C 0.6299 0.6512 0.83184 0.0
O103 O 0.80138 0.7757 0.84809 0.0
O104 O 0.76716 0.77939 0.80877 0.0
C105 C 0.5945 0.44969 0.83954 0.0
C106 C 0.50351 0.3609 0.82843 0.0
C107 C 0.5309 0.3944 0.80712 0.0
C108 C 0.57587 0.43843 0.81261 0.0
C109 C 0.56602 0.41777 0.86088 0.0
C110 C 0.52083 0.3739 0.85541 0.0
C111 C 0.64455 0.49272 0.84577 0.0
H112 H 0.8084 0.95567 0.85212 0.0
H113 H 0.84322 0.90495 0.83757 0.0
H114 H 0.69985 0.77109 0.84785 0.0
H115 H 0.66373 0.82075 0.86023 0.0
H116 H 0.51919 0.38536 0.7861 0.0
H117 H 0.59685 0.46261 0.79573 0.0
H118 H 0.57952 0.42598 0.88181 0.0
H119 H 0.50033 0.34929 0.87229 0.0
H120 H 0.82035 0.25675 0.24205 0.0
H121 H 0.67826 0.12035 0.2397 0.0
H122 H 0.75381 0.18912 0.1651 0.0
H123 H 0.66646 1.0479 0.20716 0.0
C124 C 0.65302 1.05874 0.18764 0.0
O125 O 0.66799 0.11059 0.18748 0.0
H126 H 0.67267 1.05347 0.17127 0.0
C127 C 0.79133 0.22659 0.23023 0.0
C128 C 0.79496 0.22864 0.20183 0.0
C129 C 0.74987 0.18805 0.24385 0.0
C130 C 0.71065 0.14903 0.22913 0.0
C131 C 0.71101 0.14757 0.20079 0.0
C132 C 0.75352 0.18833 0.18703 0.0
H133 H 0.68263 0.72768 0.57395 0.0
H134 H 0.69326 0.59419 0.56791 0.0
H135 H 0.68034 0.67389 0.4949 0.0
H136 H 0.62987 0.53979 0.49452 0.0
C137 C 0.65363 0.54201 0.51307 0.0
O138 O 0.69098 0.59304 0.51576 0.0
H139 H 0.62865 0.52963 0.53054 0.0
C140 C 0.68494 0.7016 0.56132 0.0
C141 C 0.68255 0.70849 0.53266 0.0
C142 C 0.68725 0.65997 0.57411 0.0
C143 C 0.6895 0.62509 0.55811 0.0
C144 C 0.68624 0.62827 0.5297 0.0
C145 C 0.68217 0.67025 0.51687 0.0
H146 H 1.12129 0.63702 0.90912 0.0
H147 H 0.26449 0.64471 0.90514 0.0
H148 H 0.18635 0.65686 0.8312 0.0
H149 H 0.26674 0.60169 0.83026 0.0
C150 C 0.286 0.6206 0.84935 0.0
O151 O 0.27246 0.65761 0.85311 0.0
H152 H 0.27117 0.59136 0.86613 0.0
C153 C 0.15074 0.64028 0.8969 0.0
C154 C 0.14659 0.64629 0.86833 0.0
C155 C 0.1926 0.63929 0.91022 0.0
C156 C 0.23178 0.64428 0.89484 0.0
C157 C 0.23041 0.64959 0.86642 0.0
C158 C 0.18751 0.65119 0.85308 0.0
H159 H 0.19624 0.60085 0.43319 0.0
H160 H 0.30448 0.56947 0.40155 0.0
H161 H 0.25603 0.51841 0.48219 0.0
H162 H 0.38716 0.53587 0.44804 0.0
C163 C 0.36341 0.54793 0.45755 0.0
O164 O 0.31522 0.52324 0.44566 0.0
H165 H 0.36196 0.5361 0.47946 0.0
C166 C 0.22124 0.58531 0.43584 0.0
C167 C 0.22325 0.56059 0.46076 0.0
C168 C 0.24901 0.58749 0.41386 0.0
C169 C 0.28127 0.567 0.4177 0.0
C170 C 0.28387 0.54272 0.44237 0.0
C171 C 0.25465 0.53904 0.46365 0.0
H172 H 0.5886 1.03185 0.751 0.0
H173 H 0.48248 1.07693 0.71841 0.0
H174 H 0.4904 1.04412 0.80409 0.0
H175 H 0.39065 1.0135 0.78397 0.0
C176 C 0.39744 1.04505 0.76901 0.0
O177 O 0.44815 1.07522 0.76528 0.0
H178 H 0.37743 1.0293 0.74938 0.0
C179 C 0.55848 1.03954 0.75413 0.0
C180 C 0.54206 1.03563 0.78044 0.0
C181 C 0.53801 1.05519 0.73174 0.0
C182 C 0.49768 1.06321 0.73534 0.0
C183 C 0.48027 1.05856 0.76138 0.0
C184 C 0.50253 1.04506 0.78391 0.0
H185 H 0.67413 0.48813 0.06583 0.0
H186 H 0.51572 0.41995 0.04518 0.0
H187 H 0.56743 0.37328 0.11901 0.0
H188 H 0.46213 0.28807 0.09448 0.0
C189 C 0.45613 0.31589 0.08134 0.0
O190 O 0.48866 0.36369 0.08989 0.0
H191 H 0.46248 0.31225 0.05992 0.0
C192 C 0.63569 0.45997 0.0699 0.0
C193 C 0.62582 0.42989 0.094 0.0
C194 C 0.59659 0.45669 0.05192 0.0
C195 C 0.54672 0.42264 0.05843 0.0
C196 C 0.53648 0.39217 0.08238 0.0
C197 C 0.57588 0.39576 0.10012 0.0
H198 H 0.29358 0.37194 0.16675 0.0
H199 H 0.25142 0.42509 0.09091 0.0
H200 H 0.27331 0.37307 0.06568 0.0
H201 H 0.39994 0.38896 0.14746 0.0
H202 H 0.39991 0.3351 0.16489 0.0
H203 H 0.3641 0.3603 0.17737 0.0
H204 H 0.28345 0.2733 0.17429 0.0
H205 H 0.31936 0.24764 0.16174 0.0
H206 H 0.26449 0.24198 0.14258 0.0
H207 H 0.3228 0.33907 0.04851 0.0
H208 H 0.39397 0.32569 0.04142 0.0
H209 H 0.4057 0.29373 0.1276 0.0
C210 C 0.28714 0.37101 0.14489 0.0
C211 C 0.27081 0.40253 0.13083 0.0
C212 C 0.26303 0.40063 0.10222 0.0
C213 C 0.27544 0.3711 0.08768 0.0
C214 C 0.29498 0.34319 0.10203 0.0
C215 C 0.29997 0.3422 0.13013 0.0
C216 C 0.33054 0.31743 0.1405 0.0
C217 C 0.37631 0.35257 0.15857 0.0
C218 C 0.29747 0.26708 0.15567 0.0
C219 C 0.34619 0.30924 0.11386 0.0
C220 C 0.32377 0.32258 0.09186 0.0
C221 C 0.33896 0.32646 0.06543 0.0
C222 C 0.37937 0.31872 0.06153 0.0
C223 C 0.40395 0.30712 0.08392 0.0
C224 C 0.38577 0.3003 0.11014 0.0
H225 H 0.95249 0.41245 0.50695 0.0
H226 H 1.01654 0.37985 0.58148 0.0
H227 H 1.09781 0.45623 0.57287 0.0
H228 H 1.03978 0.43028 0.46983 0.0
H229 H 1.04203 0.48006 0.44698 0.0
H230 H 0.98564 0.43883 0.46402 0.0
H231 H 0.98662 0.51466 0.48439 0.0
H232 H 1.04328 0.55666 0.46699 0.0
H233 H 1.04174 0.55908 0.50323 0.0
H234 H 0.17513 0.51889 0.55051 0.0
H235 H 0.24 0.55659 0.51639 0.0
H236 H 0.12612 0.5416 0.45424 0.0
C237 C 0.98277 0.42339 0.5223 0.0
C238 C 0.97829 0.39105 0.54506 0.0
C239 C 1.01923 0.40478 0.56414 0.0
C240 C 1.06543 0.44823 0.55941 0.0
C241 C 1.06998 0.47732 0.53549 0.0
C242 C 1.02933 0.46567 0.51734 0.0
C243 C 1.04586 0.49437 0.49033 0.0
C244 C 1.02729 0.45874 0.46645 0.0
C245 C 1.02834 0.53353 0.48599 0.0
C246 C 1.10228 0.5196 0.49506 0.0
C247 C 1.11552 0.51169 0.52163 0.0
C248 C 0.1652 0.52614 0.52982 0.0
C249 C 0.20174 0.54692 0.51018 0.0
C250 C 0.18815 0.55149 0.48246 0.0
C251 C 0.13819 0.53983 0.47525 0.0
H252 H 0.75571 0.98344 0.8317 0.0
H253 H 0.65259 0.87041 0.88834 0.0
H254 H 0.59758 0.9079 0.88179 0.0
H255 H 0.72973 0.0892 0.85063 0.0
H256 H 0.73707 0.11245 0.81569 0.0
H257 H 0.7743 0.08536 0.83056 0.0
H258 H 0.74245 1.02338 0.79159 0.0
H259 H 0.70439 1.04909 0.77695 0.0
H260 H 0.67575 0.98278 0.78581 0.0
H261 H 0.54364 0.94103 0.85889 0.0
H262 H 0.50067 0.9725 0.82523 0.0
H263 H 0.64278 1.0709 0.78807 0.0
C264 C 0.72319 0.96812 0.84402 0.0
C265 C 0.70826 0.92332 0.86013 0.0
C266 C 0.6644 0.90397 0.87526 0.0
C267 C 0.6331 0.9254 0.87195 0.0
C268 C 0.64711 0.96737 0.85427 0.0
C269 C 0.69214 0.98966 0.84131 0.0
C270 C 0.69581 1.03042 0.82079 0.0
C271 C 0.73664 0.08244 0.82998 0.0
C272 C 0.70509 1.02076 0.79213 0.0
C273 C 0.64398 1.02417 0.82231 0.0
C274 C 0.61662 0.98841 0.8421 0.0
C275 C 0.56521 0.9705 0.84405 0.0
C276 C 0.54102 0.98851 0.82483 0.0
C277 C 0.56831 1.0238 0.8039 0.0
C278 C 0.62081 1.04355 0.80369 0.0
H279 H 0.91442 0.56429 0.12077 0.0
H280 H 0.89081 0.60598 0.1979 0.0
H281 H 0.80035 0.54217 0.19373 0.0
H282 H 0.81052 0.55424 0.08693 0.0
H283 H 0.79691 0.50107 0.06757 0.0
H284 H 0.86017 0.54215 0.07958 0.0
H285 H 0.86399 0.466 0.10405 0.0
H286 H 0.80027 0.42463 0.09215 0.0
H287 H 0.81716 0.42624 0.12797 0.0
H288 H 0.71139 0.48633 0.17678 0.0
H289 H 0.63289 0.44659 0.1482 0.0
H290 H 0.71524 0.43828 0.08317 0.0
C291 C 0.89023 0.55918 0.137 0.0
C292 C 0.90899 0.58998 0.15952 0.0
C293 C 0.87677 0.58245 0.18051 0.0
C294 C 0.82558 0.54617 0.17837 0.0
C295 C 0.80783 0.51713 0.15544 0.0
C296 C 0.83947 0.52292 0.13529 0.0
C297 C 0.81074 0.49137 0.11134 0.0
C298 C 0.82012 0.52417 0.08482 0.0
C299 C 0.82381 0.44958 0.10873 0.0
C300 C 0.75754 0.46988 0.12015 0.0
C301 C 0.75651 0.48393 0.14597 0.0
C302 C 0.71164 0.47387 0.15691 0.0
C303 C 0.66715 0.45106 0.14059 0.0
C304 C 0.66821 0.43924 0.1136 0.0
C305 C 0.7135 0.44648 0.10389 0.0
H306 H 0.39896 0.81404 0.49134 0.0
H307 H 0.4651 0.87085 0.41289 0.0
H308 H 0.45322 0.78732 0.40422 0.0
H309 H 0.45382 0.73886 0.50913 0.0
H310 H 0.39952 0.68771 0.52477 0.0
H311 H 0.40901 0.75061 0.52409 0.0
H312 H 0.32109 0.72072 0.5 0.0
H313 H 0.31098 0.65753 0.50121 0.0
H314 H 0.30543 0.68704 0.46918 0.0
H315 H 0.43812 0.69892 0.40512 0.0
H316 H 0.41411 0.60933 0.41418 0.0
H317 H 0.35995 0.61138 0.49229 0.0
C318 C 0.41027 0.80861 0.4722 0.0
C319 C 0.43267 0.84869 0.45271 0.0
C320 C 0.44707 0.84034 0.42788 0.0
C321 C 0.44088 0.7932 0.42288 0.0
C322 C 0.41992 0.75484 0.44283 0.0
C323 C 0.40405 0.76174 0.4668 0.0
C324 C 0.38312 0.71445 0.48501 0.0
C325 C 0.41318 0.72348 0.51236 0.0
C326 C 0.32683 0.69373 0.48908 0.0
C327 C 0.39121 0.68047 0.46791 0.0
C328 C 0.41214 0.70428 0.44357 0.0
C329 C 0.42196 0.67993 0.42417 0.0
C330 C 0.40883 0.62944 0.42956 0.0
C331 C 0.3866 0.60431 0.45418 0.0
C332 C 0.37829 0.63038 0.47367 0.0
H333 H 0.4846 0.27214 0.85444 0.0
H334 H 0.42958 0.33443 0.78758 0.0
H335 H 0.37457 0.24925 0.77106 0.0
H336 H 0.50137 0.1966 0.82015 0.0
H337 H 0.48184 0.14445 0.84469 0.0
H338 H 0.50394 0.20636 0.85593 0.0
H339 H 0.42089 0.17537 0.88017 0.0
H340 H 0.39843 0.11278 0.86902 0.0
H341 H 0.36155 0.1435 0.86132 0.0
H342 H 0.34653 0.16482 0.75488 0.0
H343 H 0.3474 0.08948 0.74131 0.0
H344 H 0.41536 1.07908 0.81972 0.0
C345 C 0.45891 0.26766 0.83722 0.0
C346 C 0.4614 0.30997 0.82234 0.0
C347 C 0.42858 0.30259 0.79923 0.0
C348 C 0.39677 0.25422 0.78986 0.0
C349 C 0.39743 0.21348 0.80412 0.0
C350 C 0.42699 0.21965 0.8277 0.0
C351 C 0.42771 0.17172 0.83674 0.0
C352 C 0.48189 0.18034 0.83949 0.0
C353 C 0.40051 0.14953 0.86339 0.0
C354 C 0.398 0.13913 0.81323 0.0
C355 C 0.37945 0.16325 0.79501 0.0
C356 C 0.35882 0.14454 0.76947 0.0
C357 C 0.35929 0.10163 0.7619 0.0
C358 C 0.38 1.07787 0.77989 0.0
C359 C 0.39726 0.09548 0.80624 0.0
H360 H 0.72427 0.99564 0.52989 0.0
H361 H 0.6103 0.9536 0.4644 0.0
H362 H 0.60321 0.86963 0.46495 0.0
H363 H 0.78448 0.92706 0.50922 0.0
H364 H 0.79446 0.90734 0.54334 0.0
H365 H 0.79196 0.96479 0.53732 0.0
H366 H 0.72101 0.93283 0.57116 0.0
H367 H 0.72346 0.87539 0.57734 0.0
H368 H 0.66495 0.87305 0.56635 0.0
H369 H 0.61014 0.78669 0.47215 0.0
H370 H 0.6242 0.71567 0.48798 0.0
H371 H 0.73028 0.80812 0.55041 0.0
C372 C 0.69791 0.96901 0.51551 0.0
C373 C 0.66823 0.98296 0.49681 0.0
C374 C 0.63391 0.9454 0.47887 0.0
C375 C 0.62964 0.89699 0.47901 0.0
C376 C 0.65941 0.8847 0.49748 0.0
C377 C 0.69253 0.91969 0.51567 0.0
C378 C 0.71872 0.89625 0.53425 0.0
C379 C 0.7758 0.92562 0.53083 0.0
C380 C 0.7063 0.89427 0.56404 0.0
C381 C 0.69561 0.843 0.5237 0.0
C382 C 0.6618 0.83718 0.50225 0.0
C383 C 0.63652 0.79139 0.48904 0.0
C384 C 0.64509 0.75084 0.49811 0.0
C385 C 0.67836 0.75471 0.52067 0.0
C386 C 0.70413 0.80247 0.53327 0.0
H387 H 0.85459 0.59121 0.86083 0.0
H388 H 0.90321 0.72459 0.80764 0.0
H389 H 0.9883 0.73424 0.80818 0.0
H390 H 0.9714 0.64122 0.90246 0.0
H391 H 0.97016 0.58184 0.90785 0.0
H392 H 0.9122 0.58334 0.90191 0.0
H393 H 0.88833 0.52543 0.86162 0.0
H394 H 0.94636 0.52398 0.86738 0.0
H395 H 0.93098 0.54372 0.83445 0.0
H396 H 1.07152 0.72854 0.81395 0.0
H397 H 0.14276 0.71412 0.8286 0.0
H398 H 1.04421 0.58862 0.88098 0.0
C399 C 0.88292 0.62223 0.84904 0.0
C400 C 0.87068 0.65676 0.83378 0.0
C401 C 0.9103 0.69727 0.81938 0.0
C402 C 0.95927 0.70303 0.81952 0.0
C403 C 0.97002 0.66865 0.83466 0.0
C404 C 0.93295 0.62938 0.84954 0.0
C405 C 0.95535 0.59953 0.86552 0.0
C406 C 0.95207 0.6016 0.89626 0.0
C407 C 0.92865 0.54491 0.85672 0.0
C408 C 1.01037 0.62768 0.85724 0.0
C409 C 1.01793 0.66707 0.83907 0.0
C410 C 1.06552 0.69779 0.82829 0.0
C411 C 1.10617 0.68901 0.8366 0.0
C412 C 1.1005 0.65014 0.85606 0.0
C413 C 1.051 0.61892 0.86614 0.0
H414 H 0.40687 0.7751 0.17215 0.0
H415 H 0.31188 0.84311 0.17033 0.0
H416 H 0.38696 0.92657 0.1745 0.0
H417 H 0.50166 0.85859 0.22137 0.0
H418 H 0.55422 0.86223 0.20526 0.0
H419 H 0.49303 0.80723 0.20194 0.0
H420 H 0.49673 0.81828 0.14964 0.0
H421 H 0.55793 0.87332 0.15281 0.0
H422 H 0.50788 0.87722 0.13317 0.0
H423 H 0.47637 1.00731 0.1796 0.0
H424 H 0.56678 1.07186 0.18448 0.0
H425 H 0.60633 0.95484 0.18281 0.0
C426 C 0.4016 0.8074 0.17256 0.0
C427 C 0.35164 0.8007 0.17078 0.0
C428 C 0.34835 0.84539 0.17155 0.0
C429 C 0.39143 0.89379 0.17396 0.0
C430 C 0.43956 0.89901 0.17568 0.0
C431 C 0.44488 0.8568 0.17498 0.0
C432 C 0.50118 0.8731 0.17725 0.0
C433 C 0.51323 0.84883 0.20298 0.0
C434 C 0.51685 0.85967 0.1517 0.0
C435 C 0.52646 0.93053 0.17931 0.0
C436 C 0.49022 0.94484 0.1784 0.0
C437 C 0.50469 0.99597 0.1802 0.0
C438 C 0.55668 1.03292 0.18295 0.0
C439 C 0.5951 1.01969 0.18383 0.0
C440 C 0.57871 0.96715 0.182 0.0
H441 H 0.60818 0.2564 0.50081 0.0
H442 H 0.7695 0.31932 0.49878 0.0
H443 H 0.78121 0.4043 0.50281 0.0
H444 H 0.60209 0.3591 0.46146 0.0
H445 H 0.5536 0.35675 0.48099 0.0
H446 H 0.55787 0.30079 0.47808 0.0
H447 H 0.56323 0.29021 0.53044 0.0
H448 H 0.55902 0.34617 0.53349 0.0
H449 H 0.61116 0.34125 0.54974 0.0
H450 H 0.77531 0.48722 0.50716 0.0
H451 H 0.75171 0.55327 0.51102 0.0
H452 H 0.5949 0.43826 0.51025 0.0
C453 C 0.64611 0.2879 0.50119 0.0
C454 C 0.68786 0.27952 0.49944 0.0
C455 C 0.73648 0.32311 0.50009 0.0
C456 C 0.74362 0.37225 0.50239 0.0
C457 C 0.70194 0.37905 0.50408 0.0
C458 C 0.65399 0.33774 0.50348 0.0
C459 C 0.61538 0.35521 0.50558 0.0
C460 C 0.58014 0.34218 0.48001 0.0
C461 C 0.58541 0.33181 0.53134 0.0
C462 C 0.6487 0.41241 0.50745 0.0
C463 C 0.69868 0.42566 0.50655 0.0
C464 C 0.73608 0.47662 0.50789 0.0
C465 C 0.72234 0.5144 0.51013 0.0
C466 C 0.67127 0.50205 0.51114 0.0
C467 C 0.6344 0.44977 0.5097 0.0
H468 H 0.53238 0.58022 0.85083 0.0
H469 H 0.61607 0.73185 0.81584 0.0
H470 H 0.54178 0.74232 0.81777 0.0
H471 H 0.41206 0.54988 0.8155 0.0
H472 H 0.37476 0.51406 0.84392 0.0
H473 H 0.43472 0.5183 0.84005 0.0
H474 H 0.46369 0.55191 0.8883 0.0
H475 H 0.40389 0.54801 0.89227 0.0
H476 H 0.46126 0.60677 0.89682 0.0
H477 H 0.45413 0.73635 0.8228 0.0
H478 H 0.36579 0.71342 0.83011 0.0
H479 H 0.33696 0.56659 0.8621 0.0
C480 C 0.53526 0.61567 0.84348 0.0
C481 C 0.58162 0.65509 0.83303 0.0
C482 C 0.5822 0.70061 0.82387 0.0
C483 C 0.53962 0.70708 0.82492 0.0
C484 C 0.49496 0.66786 0.83524 0.0
C485 C 0.4925 0.62287 0.84434 0.0
C486 C 0.43963 0.58654 0.85436 0.0
C487 C 0.41377 0.53939 0.83745 0.0
C488 C 0.44229 0.57247 0.88474 0.0
C489 C 0.41288 0.61783 0.84947 0.0
C490 C 0.44549 0.66478 0.83844 0.0
C491 C 0.4288 0.6997 0.83172 0.0
C492 C 0.37818 0.68649 0.83613 0.0
C493 C 0.3436 0.63869 0.84761 0.0
C494 C 0.36208 0.60411 0.85408 0.0
H495 H 1.08373 0.4698 0.20155 0.0
H496 H 1.03285 0.53644 0.13493 0.0
H497 H 0.9496 0.45999 0.13429 0.0
H498 H 1.01256 0.33905 0.18039 0.0
H499 H 0.99659 0.31208 0.21435 0.0
H500 H 1.05344 0.37106 0.20898 0.0
H501 H 1.02525 0.41297 0.24187 0.0
H502 H 0.96845 0.35408 0.24741 0.0
H503 H 0.96488 0.40948 0.23591 0.0
H504 H 0.86787 0.37185 0.14039 0.0
H505 H 0.79799 0.28919 0.15586 0.0
H506 H 0.89736 0.27888 0.22009 0.0
C507 C 1.05538 0.46828 0.18659 0.0
C508 C 1.06674 0.51055 0.16797 0.0
C509 C 1.02682 0.50578 0.14938 0.0
C510 C 0.97871 0.46183 0.14879 0.0
C511 C 0.96886 0.42125 0.16719 0.0
C512 C 1.00608 0.42436 0.18603 0.0
C513 C 0.98452 0.37622 0.20452 0.0
C514 C 1.01352 0.34793 0.20191 0.0
C515 C 0.98587 0.38895 0.23419 0.0
C516 C 0.92993 0.34569 0.19317 0.0
C517 C 0.92179 0.37212 0.17137 0.0
C518 C 0.87438 0.35128 0.15752 0.0
C519 C 0.83448 0.30348 0.16633 0.0
C520 C 0.84065 0.27578 0.18928 0.0
C521 C 0.89008 0.29797 0.20248 0.0
H522 H 0.18986 0.69658 0.06668 0.0
H523 H 0.23274 0.58264 0.08847 0.0
H524 H 0.23144 0.56802 0.04006 0.0
H525 H 1.10448 0.63164 0.01038 0.0
H526 H 1.12111 0.68793 0.98939 0.0
H527 H 0.12612 0.69072 0.02588 0.0
H528 H 0.21976 0.75927 0.02345 0.0
H529 H 0.21498 0.75684 0.98695 0.0
H530 H 0.26213 0.74721 0.00614 0.0
H531 H 0.22657 0.5656 0.9895 0.0
H532 H 0.21741 0.57514 0.93966 0.0
H533 H 0.17573 0.68897 0.94933 0.0
C534 C 0.19921 0.66876 0.06124 0.0
C535 C 0.21151 0.64087 0.08157 0.0
C536 C 0.22309 0.6045 0.07347 0.0
C537 C 0.2225 0.59587 0.04593 0.0
C538 C 0.20995 0.62361 0.02648 0.0
C539 C 0.19838 0.65925 0.03367 0.0
C540 C 0.18559 0.68327 0.00848 0.0
C541 C 0.13108 0.67275 0.00855 0.0
C542 C 0.22284 0.74001 0.00612 0.0
C543 C 0.19206 0.65571 0.98612 0.0
C544 C 0.20626 0.62157 -0.00293 0.0
C545 C 0.21541 0.59218 0.98069 0.0
C546 C 0.21027 0.59798 0.95237 0.0
C547 C 0.19588 0.63276 0.9405 0.0
C548 C 0.18628 0.66169 0.95775 0.0
H549 H 0.71291 0.1005 0.40263 0.0
H550 H 0.71216 0.23868 0.4145 0.0
H551 H 0.72862 0.26378 0.36597 0.0
H552 H 0.80862 0.14981 0.35128 0.0
H553 H 0.77636 0.09458 0.33146 0.0
H554 H 0.76921 0.08932 0.36764 0.0
H555 H 0.67258 1.04676 0.35966 0.0
H556 H 0.67944 1.0521 0.32346 0.0
H557 H 0.64583 1.07833 0.338 0.0
H558 H 0.74443 0.27398 0.31642 0.0
H559 H 0.75291 0.26621 0.26793 0.0
H560 H 0.73657 0.11842 0.28621 0.0
C561 C 0.71721 0.13641 0.395 0.0
C562 C 0.71222 0.16823 0.41233 0.0
C563 C 0.71639 0.21415 0.40155 0.0
C564 C 0.72576 0.22869 0.37405 0.0
C565 C 0.72991 0.19642 0.35734 0.0
C566 C 0.72532 0.15098 0.36726 0.0
C567 C 0.72776 0.12187 0.34435 0.0
C568 C 0.7732 0.11341 0.34896 0.0
C569 C 0.67846 1.0718 0.34119 0.0
C570 C 0.73448 0.15807 0.32012 0.0
C571 C 0.73629 0.20109 0.32824 0.0
C572 C 0.74299 0.24043 0.3098 0.0
C573 C 0.74788 0.23576 0.28232 0.0
C574 C 0.7454 0.1918 0.27332 0.0
C575 C 0.73838 0.15234 0.29253 0.0
H576 H 0.75354 0.71761 0.73388 0.0
H577 H 0.64888 0.55885 0.74951 0.0
H578 H 0.63157 0.54746 0.70055 0.0
H579 H 0.68172 0.73541 0.67644 0.0
H580 H 0.73592 0.77746 0.65728 0.0
H581 H 0.74116 0.77441 0.69389 0.0
H582 H 0.81357 0.75447 0.69209 0.0
H583 H 0.80867 0.75763 0.65549 0.0
H584 H 0.80377 0.70195 0.67331 0.0
H585 H 0.62436 0.5515 0.65042 0.0
H586 H 0.62889 0.57093 0.60114 0.0
H587 H 0.73795 0.72687 0.6156 0.0
C588 C 0.72708 0.68047 0.72699 0.0
C589 C 0.70264 0.6392 0.74589 0.0
C590 C 0.6682 0.59128 0.73579 0.0
C591 C 0.65797 0.58427 0.70786 0.0
C592 C 0.68229 0.62545 0.6899 0.0
C593 C 0.7162 0.67266 0.69888 0.0
C594 C 0.73697 0.7102 0.67479 0.0
C595 C 0.72311 0.75184 0.67566 0.0
C596 C 0.79414 0.73237 0.67387 0.0
C597 C 0.70944 0.67651 0.65104 0.0
C598 C 0.67813 0.62781 0.66044 0.0
C599 C 0.6489 0.58947 0.64279 0.0
C600 C 0.65196 0.60088 0.61476 0.0
C601 C 0.68413 0.65029 0.6043 0.0
C602 C 0.71287 0.68877 0.62286 0.0
H603 H 0.56721 1.06351 0.57138 0.0
H604 H 0.72687 0.16371 0.58715 0.0
H605 H 0.713 0.15742 0.63607 0.0
H606 H 0.52502 0.11315 0.62066 0.0
H607 H 0.47305 1.05303 0.63066 0.0
H608 H 0.49526 1.0639 0.59674 0.0
H609 H 0.50834 0.98647 0.60336 0.0
H610 H 0.48605 0.97526 0.63728 0.0
H611 H 0.54688 0.98268 0.63187 0.0
H612 H 0.68299 0.14068 0.68271 0.0
H613 H 0.63771 0.11576 0.72521 0.0
H614 H 0.49664 1.02799 0.67998 0.0
C615 C 0.59925 0.08388 0.58517 0.0
C616 C 0.64815 0.11404 0.57549 0.0
C617 C 0.68906 0.14052 0.5941 0.0
C618 C 0.68162 0.13712 0.62193 0.0
C619 C 0.63301 0.10736 0.63079 0.0
C620 C 0.59242 0.08132 0.61307 0.0
C621 C 0.54395 1.05292 0.62805 0.0
C622 C 0.50716 1.0719 0.61845 0.0
C623 C 0.5199 0.99595 0.62496 0.0
C624 C 0.56379 1.06712 0.65695 0.0
C625 C 0.61533 0.09834 0.65796 0.0
C626 C 0.64265 0.11621 0.68224 0.0
C627 C 0.61664 0.10169 0.70624 0.0
C628 C 0.56383 1.06972 0.7058 0.0
C629 C 0.537 1.05255 0.68079 0.0
H630 H 0.75656 0.60663 0.92413 0.0
H631 H 0.65726 0.66896 0.9066 0.0
H632 H 0.61336 0.62722 0.94897 0.0
H633 H 0.66697 0.48949 0.94587 0.0
H634 H 0.70557 0.47996 0.97239 0.0
H635 H 0.73429 0.52109 0.94338 0.0
H636 H 0.79078 0.59442 0.97478 0.0
H637 H 0.76312 0.55321 0.00403 0.0
H638 H 0.76229 0.61166 -0.00053 0.0
H639 H 0.57419 0.56957 0.99074 0.0
H640 H 0.54883 0.50839 0.03015 0.0
H641 H 0.6726 0.48242 0.01791 0.0
C642 C 0.72659 0.6128 0.92964 0.0
C643 C 0.71047 0.6412 0.91227 0.0
C644 C 0.6707 0.64796 0.9199 0.0
C645 C 0.64532 0.62407 0.9438 0.0
C646 C 0.66068 0.59419 0.95983 0.0
C647 C 0.70106 0.58935 0.95325 0.0
C648 C 0.70843 0.55278 0.97265 0.0
C649 C 0.70349 0.50821 0.95767 0.0
C650 C 0.75916 0.57963 0.98868 0.0
C651 C 0.66502 0.53652 0.99077 0.0
C652 C 0.63801 0.56093 0.98331 0.0
C653 C 0.59544 0.55066 -0.0031 0.0
C654 C 0.58096 0.51542 0.01904 0.0
C655 C 0.60887 0.49077 0.02721 0.0
C656 C 0.65095 0.50121 0.01251 0.0
H657 H 0.22663 0.59363 0.25236 0.0
H658 H 0.18473 0.70912 0.25352 0.0
H659 H 0.19102 0.70515 0.30412 0.0
H660 H 0.15613 0.52024 0.31119 0.0
H661 H 0.20258 0.50225 0.32227 0.0
H662 H 0.19334 0.5144 0.28665 0.0
H663 H 0.28814 0.58015 0.28444 0.0
H664 H 0.29753 0.56884 0.32013 0.0
H665 H 0.31538 0.63165 0.30699 0.0
H666 H 0.21019 0.69259 0.35488 0.0
H667 H 0.22927 0.66579 0.4006 0.0
H668 H 0.24993 0.55282 0.36446 0.0
C669 C 0.21838 0.6178 0.26332 0.0
C670 C 0.20563 0.65195 0.24935 0.0
C671 C 0.19444 0.68264 0.26411 0.0
C672 C 0.1982 0.68077 0.29273 0.0
C673 C 0.21206 0.64724 0.30595 0.0
C674 C 0.22082 0.61556 0.29162 0.0
C675 C 0.23406 0.5821 0.31025 0.0
C676 C 0.19414 0.52646 0.30743 0.0
C677 C 0.28691 0.59127 0.30514 0.0
C678 C 0.23268 0.60057 0.33744 0.0
C679 C 0.22034 0.63837 0.33471 0.0
C680 C 0.21897 0.66238 0.35722 0.0
C681 C 0.22969 0.64669 0.38316 0.0
C682 C 0.24102 0.60691 0.38639 0.0
C683 C 0.24242 0.58389 0.36301 0.0
loop_
_geom_bond_atom_site_label_1
_geom_bond_atom_site_label_2
_geom_bond_distance
_geom_bond_site_symmetry_2
_ccdc_geom_bond_type
Tb0 C10 2.825 . S
Tb0 O11 2.347 . S
Tb0 O14 2.366 . S
Tb0 O19 2.418 . S
Tb0 O20 2.384 1_455 S
Tb0 O23 2.479 . S
Tb0 O24 2.471 . S
Eu1 O12 2.418 . S
Eu1 O13 2.384 1_655 S
Eu1 O16 2.479 . S
Eu1 O17 2.471 . S
Eu1 O18 2.343 1_655 S
Eu1 O21 2.366 . S
Eu1 C31 2.825 . S
C2 O18 1.263 . S
C2 O19 1.265 . S
C3 O20 1.255 . S
C3 O21 1.265 . S
C4 C6 1.380 . S
C4 C7 1.374 . S
C4 C10 1.507 . S
C5 C6 1.384 . S
C5 C9 1.387 . S
C5 H32 0.930 . S
C6 C4 1.380 . S
C6 C5 1.384 . S
C6 H33 0.931 . S
C7 C4 1.374 . S
C7 C8 1.390 . S
C7 H34 0.930 . S
C8 C7 1.390 . S
C8 C9 1.391 . S
C8 H35 0.930 . S
C9 C5 1.387 . S
C9 C8 1.391 . S
C10 Tb0 2.825 . S
C10 C4 1.507 . S
C10 O23 1.238 . S
C10 O24 1.247 . S
O11 Tb0 2.347 . S
O11 C15 1.259 . S
O12 Eu1 2.418 . S
O12 C15 1.265 1_655 S
O13 Eu1 2.384 1_455 S
O13 C22 1.255 . S
O14 Tb0 2.366 . S
O14 C22 1.265 . S
C15 O11 1.259 . S
C15 O12 1.265 1_455 S
O16 Eu1 2.479 . S
O16 C31 1.238 . S
O17 Eu1 2.471 . S
O17 C31 1.247 . S
O18 Eu1 2.343 1_455 S
O18 C2 1.263 . S
O19 Tb0 2.418 . S
O19 C2 1.265 . S
O20 Tb0 2.384 1_655 S
O20 C3 1.255 . S
O21 Eu1 2.366 . S
O21 C3 1.265 . S
C22 O13 1.255 . S
C22 O14 1.265 . S
O23 Tb0 2.479 . S
O23 C10 1.238 . S
O24 Tb0 2.471 . S
O24 C10 1.247 . S
C25 C28 1.380 . S
C25 C29 1.374 . S
C25 C31 1.507 . S
C26 C27 1.387 . S
C26 C30 1.391 . S
C27 C26 1.387 . S
C27 C28 1.384 . S
C27 H36 0.930 . S
C28 C25 1.380 . S
C28 C27 1.384 . S
C28 H37 0.931 . S
C29 C25 1.374 . S
C29 C30 1.390 . S
C29 H38 0.930 . S
C30 C26 1.391 . S
C30 C29 1.390 . S
C30 H39 0.930 . S
C31 Eu1 2.825 . S
C31 O16 1.238 . S
C31 O17 1.247 . S
C31 C25 1.507 . S
H32 C5 0.930 . S
H33 C6 0.931 . S
H34 C7 0.930 . S
H35 C8 0.930 . S
H36 C27 0.930 . S
H37 C28 0.931 . S
H38 C29 0.930 . S
H39 C30 0.930 . S
Tb40 C50 2.825 . S
Tb40 O51 2.347 . S
Tb40 O54 2.366 . S
Tb40 O59 2.418 . S
Tb40 O60 2.384 1_545 S
Tb40 O63 2.479 . S
Tb40 O64 2.471 . S
Eu41 O52 2.418 . S
Eu41 O53 2.384 . S
Eu41 O56 2.479 1_545 S
Eu41 O57 2.471 1_545 S
Eu41 O58 2.347 . S
Eu41 O61 2.366 1_545 S
Eu41 C71 2.825 1_545 S
C42 O58 1.259 . S
C42 O59 1.265 . S
C43 O60 1.255 . S
C43 O61 1.265 . S
C44 C46 1.380 . S
C44 C47 1.374 . S
C44 C50 1.507 . S
C45 C46 1.384 . S
C45 C49 1.387 . S
C45 H72 0.930 . S
C46 C44 1.380 . S
C46 C45 1.384 . S
C46 H73 0.931 . S
C47 C44 1.374 . S
C47 C48 1.390 . S
C47 H74 0.930 . S
C48 C47 1.390 . S
C48 C49 1.391 . S
C48 H75 0.930 . S
C49 C45 1.387 . S
C49 C48 1.391 . S
C50 Tb40 2.825 . S
C50 C44 1.507 . S
C50 O63 1.238 . S
C50 O64 1.247 . S
O51 Tb40 2.347 . S
O51 C55 1.259 . S
O52 Eu41 2.418 . S
O52 C55 1.265 . S
O53 Eu41 2.384 . S
O53 C62 1.255 . S
O54 Tb40 2.366 . S
O54 C62 1.265 . S
C55 O51 1.259 . S
C55 O52 1.265 . S
O56 Eu41 2.479 1_565 S
O56 C71 1.238 . S
O57 Eu41 2.471 1_565 S
O57 C71 1.247 . S
O58 Eu41 2.347 . S
O58 C42 1.259 . S
O59 Tb40 2.418 . S
O59 C42 1.265 . S
O60 Tb40 2.384 1_565 S
O60 C43 1.255 . S
O61 Eu41 2.366 1_565 S
O61 C43 1.265 . S
C62 O53 1.255 . S
C62 O54 1.265 . S
O63 Tb40 2.479 . S
O63 C50 1.238 . S
O64 Tb40 2.471 . S
O64 C50 1.247 . S
C65 C68 1.380 . S
C65 C69 1.374 . S
C65 C71 1.507 . S
C66 C67 1.387 . S
C66 C70 1.391 . S
C67 C66 1.387 . S
C67 C68 1.384 . S
C67 H76 0.930 . S
C68 C65 1.380 . S
C68 C67 1.384 . S
C68 H77 0.931 . S
C69 C65 1.374 . S
C69 C70 1.390 . S
C69 H78 0.930 . S
C70 C66 1.391 . S
C70 C69 1.390 . S
C70 H79 0.930 . S
C71 Eu41 2.825 1_565 S
C71 O56 1.238 . S
C71 O57 1.247 . S
C71 C65 1.507 . S
H72 C45 0.930 . S
H73 C46 0.931 . S
H74 C47 0.930 . S
H75 C48 0.930 . S
H76 C67 0.930 . S
H77 C68 0.931 . S
H78 C69 0.930 . S
H79 C70 0.930 . S
Tb80 C90 2.825 . S
Tb80 O91 2.347 . S
Tb80 O94 2.366 . S
Tb80 O99 2.418 . S
Tb80 O100 2.384 . S
Tb80 O103 2.479 . S
Tb80 O104 2.471 . S
Eu81 O92 2.418 . S
Eu81 O93 2.384 . S
Eu81 O96 2.479 . S
Eu81 O97 2.471 . S
Eu81 O98 2.347 . S
Eu81 O101 2.366 . S
Eu81 C111 2.825 . S
C82 O98 1.259 . S
C82 O99 1.265 . S
C83 O100 1.255 . S
C83 O101 1.265 . S
C84 C86 1.380 . S
C84 C87 1.374 . S
C84 C90 1.507 . S
C85 C86 1.384 . S
C85 C89 1.387 . S
C85 H112 0.930 . S
C86 C84 1.380 . S
C86 C85 1.384 . S
C86 H113 0.931 . S
C87 C84 1.374 . S
C87 C88 1.390 . S
C87 H114 0.930 . S
C88 C87 1.390 . S
C88 C89 1.391 . S
C88 H115 0.930 . S
C89 C85 1.387 . S
C89 C88 1.391 . S
C90 Tb80 2.825 . S
C90 C84 1.507 . S
C90 O103 1.238 . S
C90 O104 1.247 . S
O91 Tb80 2.347 . S
O91 C95 1.259 . S
O92 Eu81 2.418 . S
O92 C95 1.265 . S
O93 Eu81 2.384 . S
O93 C102 1.255 . S
O94 Tb80 2.366 . S
O94 C102 1.265 . S
C95 O91 1.259 . S
C95 O92 1.265 . S
O96 Eu81 2.479 . S
O96 C111 1.238 . S
O97 Eu81 2.471 . S
O97 C111 1.247 . S
O98 Eu81 2.347 . S
O98 C82 1.259 . S
O99 Tb80 2.418 . S
O99 C82 1.265 . S
O100 Tb80 2.384 . S
O100 C83 1.255 . S
O101 Eu81 2.366 . S
O101 C83 1.265 . S
C102 O93 1.255 . S
C102 O94 1.265 . S
O103 Tb80 2.479 . S
O103 C90 1.238 . S
O104 Tb80 2.471 . S
O104 C90 1.247 . S
C105 C108 1.380 . S
C105 C109 1.374 . S
C105 C111 1.507 . S
C106 C107 1.387 . S
C106 C110 1.391 . S
C107 C106 1.387 . S
C107 C108 1.384 . S
C107 H116 0.930 . S
C108 C105 1.380 . S
C108 C107 1.384 . S
C108 H117 0.931 . S
C109 C105 1.374 . S
C109 C110 1.390 . S
C109 H118 0.930 . S
C110 C106 1.391 . S
C110 C109 1.390 . S
C110 H119 0.930 . S
C111 Eu81 2.825 . S
C111 O96 1.238 . S
C111 O97 1.247 . S
C111 C105 1.507 . S
H112 C85 0.930 . S
H113 C86 0.931 . S
H114 C87 0.930 . S
H115 C88 0.930 . S
H116 C107 0.930 . S
H117 C108 0.931 . S
H118 C109 0.930 . S
H119 C110 0.930 . S
H120 C127 0.929 . S
H121 C130 0.930 . S
H122 C132 0.929 . S
H123 C124 0.969 . S
C124 H123 0.969 . S
C124 O125 1.550 . S
C124 H126 0.973 . S
O125 C124 1.550 . S
O125 C131 1.433 . S
H126 C124 0.973 . S
C127 H120 0.929 . S
C127 C128 1.400 . S
C127 C129 1.364 . S
C128 C127 1.400 . S
C128 C132 1.377 . S
C129 C127 1.364 . S
C129 C130 1.374 1_545 S
C130 H121 0.930 . S
C130 C129 1.374 1_565 S
C130 C131 1.384 . S
C131 O125 1.433 . S
C131 C130 1.384 . S
C131 C132 1.382 1_565 S
C132 H122 0.929 . S
C132 C128 1.377 . S
C132 C131 1.382 1_545 S
H133 C140 0.929 . S
H134 C143 0.930 . S
H135 C145 0.929 . S
H136 C137 0.969 . S
C137 H136 0.969 . S
C137 O138 1.550 . S
C137 H139 0.973 . S
O138 C137 1.550 . S
O138 C144 1.412 . S
H139 C137 0.973 . S
C140 H133 0.929 . S
C140 C141 1.400 . S
C140 C142 1.364 . S
C141 C140 1.400 . S
C141 C145 1.377 . S
C142 C140 1.364 . S
C142 C143 1.374 . S
C143 H134 0.930 . S
C143 C142 1.374 . S
C143 C144 1.383 . S
C144 O138 1.412 . S
C144 C143 1.383 . S
C144 C145 1.394 . S
C145 H135 0.929 . S
C145 C141 1.377 . S
C145 C144 1.394 . S
H146 C153 0.929 1_655 S
H147 C156 0.930 . S
H148 C158 0.929 . S
H149 C150 0.969 . S
C150 H149 0.969 . S
C150 O151 1.550 . S
C150 H152 0.973 . S
O151 C150 1.550 . S
O151 C157 1.412 . S
H152 C150 0.973 . S
C153 H146 0.929 1_455 S
C153 C154 1.400 . S
C153 C155 1.364 . S
C154 C153 1.400 . S
C154 C158 1.377 . S
C155 C153 1.364 . S
C155 C156 1.374 . S
C156 H147 0.930 . S
C156 C155 1.374 . S
C156 C157 1.383 . S
C157 O151 1.412 . S
C157 C156 1.383 . S
C157 C158 1.394 . S
C158 H148 0.929 . S
C158 C154 1.377 . S
C158 C157 1.394 . S
H159 C166 0.929 . S
H160 C169 0.930 . S
H161 C171 0.929 . S
H162 C163 0.969 . S
C163 H162 0.969 . S
C163 O164 1.550 . S
C163 H165 0.973 . S
O164 C163 1.550 . S
O164 C170 1.412 . S
H165 C163 0.973 . S
C166 H159 0.929 . S
C166 C167 1.400 . S
C166 C168 1.364 1_655 S
C167 C166 1.400 . S
C167 C171 1.377 1_655 S
C168 C166 1.364 1_455 S
C168 C169 1.374 . S
C169 H160 0.930 . S
C169 C168 1.374 . S
C169 C170 1.383 . S
C170 O164 1.412 . S
C170 C169 1.383 . S
C170 C171 1.394 . S
C171 H161 0.929 . S
C171 C167 1.377 1_455 S
C171 C170 1.394 . S
H172 C179 0.929 . S
H173 C182 0.930 . S
H174 C184 0.929 . S
H175 C176 0.969 . S
C176 H175 0.969 . S
C176 O177 1.550 . S
C176 H178 0.973 . S
O177 C176 1.550 . S
O177 C183 1.412 . S
H178 C176 0.973 . S
C179 H172 0.929 . S
C179 C180 1.400 . S
C179 C181 1.364 1_565 S
C180 C179 1.400 . S
C180 C184 1.377 . S
C181 C179 1.364 1_545 S
C181 C182 1.374 . S
C182 H173 0.930 . S
C182 C181 1.374 . S
C182 C183 1.383 . S
C183 O177 1.412 . S
C183 C182 1.383 . S
C183 C184 1.394 1_545 S
C184 H174 0.929 . S
C184 C180 1.377 . S
C184 C183 1.394 1_565 S
H185 C192 0.929 . S
H186 C195 0.930 . S
H187 C197 0.929 . S
H188 C189 0.969 . S
C189 H188 0.969 . S
C189 O190 1.550 . S
C189 H191 0.973 . S
O190 C189 1.550 . S
O190 C196 1.412 . S
H191 C189 0.973 . S
C192 H185 0.929 . S
C192 C193 1.400 . S
C192 C194 1.364 . S
C193 C192 1.400 . S
C193 C197 1.377 . S
C194 C192 1.364 . S
C194 C195 1.374 . S
C195 H186 0.930 . S
C195 C194 1.374 . S
C195 C196 1.383 . S
C196 O190 1.412 . S
C196 C195 1.383 . S
C196 C197 1.394 . S
C197 H187 0.929 . S
C197 C193 1.377 . S
C197 C196 1.394 . S
H198 C210 0.930 . S
H199 C212 0.930 . S
H200 C213 0.930 . S
H201 C217 0.959 . S
H202 C217 0.959 . S
H203 C217 0.961 . S
H204 C218 0.960 . S
H205 C218 0.961 . S
H206 C218 0.959 . S
H207 C221 0.929 . S
H208 C222 0.931 . S
H209 C224 0.930 . S
C210 H198 0.930 . S
C210 C211 1.399 . S
C210 C215 1.399 . S
C211 C210 1.399 . S
C211 C212 1.376 . S
C212 H199 0.930 . S
C212 C211 1.376 . S
C212 C213 1.388 . S
C213 H200 0.930 . S
C213 C212 1.388 . S
C213 C214 1.390 . S
C214 C213 1.390 . S
C214 C215 1.394 . S
C214 C220 1.465 . S
C215 C210 1.399 . S
C215 C214 1.394 . S
C215 C216 1.516 . S
C216 C215 1.516 . S
C216 C217 1.502 . S
C216 C218 1.561 . S
C216 C219 1.526 . S
C217 H201 0.959 . S
C217 H202 0.959 . S
C217 H203 0.961 . S
C217 C216 1.502 . S
C218 H204 0.960 . S
C218 H205 0.961 . S
C218 H206 0.959 . S
C218 C216 1.561 . S
C219 C216 1.526 . S
C219 C220 1.396 . S
C219 C224 1.390 . S
C220 C214 1.465 . S
C220 C219 1.396 . S
C220 C221 1.399 . S
C221 H207 0.929 . S
C221 C220 1.399 . S
C221 C222 1.385 . S
C222 H208 0.931 . S
C222 C221 1.385 . S
C222 C223 1.389 . S
C223 C222 1.389 . S
C223 C224 1.387 . S
C224 H209 0.930 . S
C224 C219 1.390 . S
C224 C223 1.387 . S
H225 C237 0.930 . S
H226 C239 0.930 . S
H227 C240 0.930 . S
H228 C244 0.959 . S
H229 C244 0.959 . S
H230 C244 0.961 . S
H231 C245 0.960 . S
H232 C245 0.961 . S
H233 C245 0.959 . S
H234 C248 0.929 . S
H235 C249 0.931 . S
H236 C251 0.930 . S
C237 H225 0.930 . S
C237 C238 1.399 . S
C237 C242 1.399 . S
C238 C237 1.399 . S
C238 C239 1.376 . S
C239 H226 0.930 . S
C239 C238 1.376 . S
C239 C240 1.388 . S
C240 H227 0.930 . S
C240 C239 1.388 . S
C240 C241 1.390 . S
C241 C240 1.390 . S
C241 C242 1.394 . S
C241 C247 1.465 . S
C242 C237 1.399 . S
C242 C241 1.394 . S
C242 C243 1.516 . S
C243 C242 1.516 . S
C243 C244 1.502 . S
C243 C245 1.561 . S
C243 C246 1.526 . S
C244 H228 0.959 . S
C244 H229 0.959 . S
C244 H230 0.961 . S
C244 C243 1.502 . S
C245 H231 0.960 . S
C245 H232 0.961 . S
C245 H233 0.959 . S
C245 C243 1.561 . S
C246 C243 1.526 . S
C246 C247 1.396 . S
C246 C251 1.390 . S
C247 C241 1.465 . S
C247 C246 1.396 . S
C247 C248 1.399 . S
C248 H234 0.929 . S
C248 C247 1.399 . S
C248 C249 1.385 1_655 S
C249 H235 0.931 . S
C249 C248 1.385 1_455 S
C249 C250 1.389 1_455 S
C250 C249 1.389 1_655 S
C250 C251 1.387 . S
C251 H236 0.930 . S
C251 C246 1.390 . S
C251 C250 1.387 . S
H252 C264 0.930 . S
H253 C266 0.930 . S
H254 C267 0.930 . S
H255 C271 0.959 . S
H256 C271 0.959 . S
H257 C271 0.961 . S
H258 C272 0.960 . S
H259 C272 0.961 . S
H260 C272 0.959 . S
H261 C275 0.929 . S
H262 C276 0.931 . S
H263 C278 0.930 . S
C264 H252 0.930 . S
C264 C265 1.399 . S
C264 C269 1.399 . S
C265 C264 1.399 . S
C265 C266 1.376 . S
C266 H253 0.930 . S
C266 C265 1.376 . S
C266 C267 1.388 . S
C267 H254 0.930 . S
C267 C266 1.388 . S
C267 C268 1.390 . S
C268 C267 1.390 . S
C268 C269 1.394 . S
C268 C274 1.465 . S
C269 C264 1.399 . S
C269 C268 1.394 . S
C269 C270 1.516 . S
C270 C269 1.516 . S
C270 C271 1.502 . S
C270 C272 1.561 . S
C270 C273 1.526 . S
C271 H255 0.959 . S
C271 H256 0.959 . S
C271 H257 0.961 . S
C271 C270 1.502 . S
C272 H258 0.960 . S
C272 H259 0.961 . S
C272 H260 0.959 . S
C272 C270 1.561 . S
C273 C270 1.526 . S
C273 C274 1.396 . S
C273 C278 1.390 . S
C274 C268 1.465 . S
C274 C273 1.396 . S
C274 C275 1.399 . S
C275 H261 0.929 . S
C275 C274 1.399 . S
C275 C276 1.385 . S
C276 H262 0.931 . S
C276 C275 1.385 . S
C276 C277 1.389 . S
C277 C276 1.389 . S
C277 C278 1.387 . S
C278 H263 0.930 . S
C278 C273 1.390 . S
C278 C277 1.387 . S
H279 C291 0.930 . S
H280 C293 0.930 . S
H281 C294 0.930 . S
H282 C298 0.959 . S
H283 C298 0.959 . S
H284 C298 0.961 . S
H285 C299 0.960 . S
H286 C299 0.961 . S
H287 C299 0.959 . S
H288 C302 0.929 . S
H289 C303 0.931 . S
H290 C305 0.930 . S
C291 H279 0.930 . S
C291 C292 1.399 . S
C291 C296 1.399 . S
C292 C291 1.399 . S
C292 C293 1.376 . S
C293 H280 0.930 . S
C293 C292 1.376 . S
C293 C294 1.388 . S
C294 H281 0.930 . S
C294 C293 1.388 . S
C294 C295 1.390 . S
C295 C294 1.390 . S
C295 C296 1.394 . S
C295 C301 1.465 . S
C296 C291 1.399 . S
C296 C295 1.394 . S
C296 C297 1.516 . S
C297 C296 1.516 . S
C297 C298 1.502 . S
C297 C299 1.561 . S
C297 C300 1.526 . S
C298 H282 0.959 . S
C298 H283 0.959 . S
C298 H284 0.961 . S
C298 C297 1.502 . S
C299 H285 0.960 . S
C299 H286 0.961 . S
C299 H287 0.959 . S
C299 C297 1.561 . S
C300 C297 1.526 . S
C300 C301 1.396 . S
C300 C305 1.390 . S
C301 C295 1.465 . S
C301 C300 1.396 . S
C301 C302 1.399 . S
C302 H288 0.929 . S
C302 C301 1.399 . S
C302 C303 1.385 . S
C303 H289 0.931 . S
C303 C302 1.385 . S
C303 C304 1.389 . S
C304 C303 1.389 . S
C304 C305 1.387 . S
C305 H290 0.930 . S
C305 C300 1.390 . S
C305 C304 1.387 . S
H306 C318 0.930 . S
H307 C320 0.930 . S
H308 C321 0.930 . S
H309 C325 0.959 . S
H310 C325 0.959 . S
H311 C325 0.961 . S
H312 C326 0.960 . S
H313 C326 0.961 . S
H314 C326 0.959 . S
H315 C329 0.929 . S
H316 C330 0.931 . S
H317 C332 0.930 . S
C318 H306 0.930 . S
C318 C319 1.399 . S
C318 C323 1.399 . S
C319 C318 1.399 . S
C319 C320 1.376 . S
C320 H307 0.930 . S
C320 C319 1.376 . S
C320 C321 1.388 . S
C321 H308 0.930 . S
C321 C320 1.388 . S
C321 C322 1.390 . S
C322 C321 1.390 . S
C322 C323 1.394 . S
C322 C328 1.465 . S
C323 C318 1.399 . S
C323 C322 1.394 . S
C323 C324 1.516 . S
C324 C323 1.516 . S
C324 C325 1.502 . S
C324 C326 1.561 . S
C324 C327 1.526 . S
C325 H309 0.959 . S
C325 H310 0.959 . S
C325 H311 0.961 . S
C325 C324 1.502 . S
C326 H312 0.960 . S
C326 H313 0.961 . S
C326 H314 0.959 . S
C326 C324 1.561 . S
C327 C324 1.526 . S
C327 C328 1.396 . S
C327 C332 1.390 . S
C328 C322 1.465 . S
C328 C327 1.396 . S
C328 C329 1.399 . S
C329 H315 0.929 . S
C329 C328 1.399 . S
C329 C330 1.385 . S
C330 H316 0.931 . S
C330 C329 1.385 . S
C330 C331 1.389 . S
C331 C330 1.389 . S
C331 C332 1.387 . S
C332 H317 0.930 . S
C332 C327 1.390 . S
C332 C331 1.387 . S
H333 C345 0.930 . S
H334 C347 0.930 . S
H335 C348 0.930 . S
H336 C352 0.959 . S
H337 C352 0.959 . S
H338 C352 0.961 . S
H339 C353 0.960 . S
H340 C353 0.961 . S
H341 C353 0.959 . S
H342 C356 0.929 . S
H343 C357 0.931 . S
H344 C359 0.930 . S
C345 H333 0.930 . S
C345 C346 1.399 . S
C345 C350 1.399 . S
C346 C345 1.399 . S
C346 C347 1.376 . S
C347 H334 0.930 . S
C347 C346 1.376 . S
C347 C348 1.388 . S
C348 H335 0.930 . S
C348 C347 1.388 . S
C348 C349 1.390 . S
C349 C348 1.390 . S
C349 C350 1.394 . S
C349 C355 1.465 . S
C350 C345 1.399 . S
C350 C349 1.394 . S
C350 C351 1.516 . S
C351 C350 1.516 . S
C351 C352 1.502 . S
C351 C353 1.561 . S
C351 C354 1.526 . S
C352 H336 0.959 . S
C352 H337 0.959 . S
C352 H338 0.961 . S
C352 C351 1.502 . S
C353 H339 0.960 . S
C353 H340 0.961 . S
C353 H341 0.959 . S
C353 C351 1.561 . S
C354 C351 1.526 . S
C354 C355 1.396 . S
C354 C359 1.390 . S
C355 C349 1.465 . S
C355 C354 1.396 . S
C355 C356 1.399 . S
C356 H342 0.929 . S
C356 C355 1.399 . S
C356 C357 1.385 . S
C357 H343 0.931 . S
C357 C356 1.385 . S
C357 C358 1.389 . S
C358 C357 1.389 . S
C358 C359 1.387 . S
C359 H344 0.930 . S
C359 C354 1.390 . S
C359 C358 1.387 . S
H360 C372 0.930 . S
H361 C374 0.930 . S
H362 C375 0.930 . S
H363 C379 0.959 . S
H364 C379 0.959 . S
H365 C379 0.961 . S
H366 C380 0.960 . S
H367 C380 0.961 . S
H368 C380 0.959 . S
H369 C383 0.929 . S
H370 C384 0.931 . S
H371 C386 0.930 . S
C372 H360 0.930 . S
C372 C373 1.399 . S
C372 C377 1.399 . S
C373 C372 1.399 . S
C373 C374 1.376 . S
C374 H361 0.930 . S
C374 C373 1.376 . S
C374 C375 1.388 . S
C375 H362 0.930 . S
C375 C374 1.388 . S
C375 C376 1.390 . S
C376 C375 1.390 . S
C376 C377 1.394 . S
C376 C382 1.465 . S
C377 C372 1.399 . S
C377 C376 1.394 . S
C377 C378 1.516 . S
C378 C377 1.516 . S
C378 C379 1.502 . S
C378 C380 1.561 . S
C378 C381 1.526 . S
C379 H363 0.959 . S
C379 H364 0.959 . S
C379 H365 0.961 . S
C379 C378 1.502 . S
C380 H366 0.960 . S
C380 H367 0.961 . S
C380 H368 0.959 . S
C380 C378 1.561 . S
C381 C378 1.526 . S
C381 C382 1.396 . S
C381 C386 1.390 . S
C382 C376 1.465 . S
C382 C381 1.396 . S
C382 C383 1.399 . S
C383 H369 0.929 . S
C383 C382 1.399 . S
C383 C384 1.385 . S
C384 H370 0.931 . S
C384 C383 1.385 . S
C384 C385 1.389 . S
C385 C384 1.389 . S
C385 C386 1.387 . S
C386 H371 0.930 . S
C386 C381 1.390 . S
C386 C385 1.387 . S
H387 C399 0.930 . S
H388 C401 0.930 . S
H389 C402 0.930 . S
H390 C406 0.959 . S
H391 C406 0.959 . S
H392 C406 0.961 . S
H393 C407 0.960 . S
H394 C407 0.961 . S
H395 C407 0.959 . S
H396 C410 0.929 . S
H397 C411 0.931 . S
H398 C413 0.930 . S
C399 H387 0.930 . S
C399 C400 1.399 . S
C399 C404 1.399 . S
C400 C399 1.399 . S
C400 C401 1.376 . S
C401 H388 0.930 . S
C401 C400 1.376 . S
C401 C402 1.388 . S
C402 H389 0.930 . S
C402 C401 1.388 . S
C402 C403 1.390 . S
C403 C402 1.390 . S
C403 C404 1.394 . S
C403 C409 1.465 . S
C404 C399 1.399 . S
C404 C403 1.394 . S
C404 C405 1.516 . S
C405 C404 1.516 . S
C405 C406 1.502 . S
C405 C407 1.561 . S
C405 C408 1.526 . S
C406 H390 0.959 . S
C406 H391 0.959 . S
C406 H392 0.961 . S
C406 C405 1.502 . S
C407 H393 0.960 . S
C407 H394 0.961 . S
C407 H395 0.959 . S
C407 C405 1.561 . S
C408 C405 1.526 . S
C408 C409 1.396 . S
C408 C413 1.390 . S
C409 C403 1.465 . S
C409 C408 1.396 . S
C409 C410 1.399 . S
C410 H396 0.929 . S
C410 C409 1.399 . S
C410 C411 1.385 . S
C411 H397 0.931 . S
C411 C410 1.385 . S
C411 C412 1.389 . S
C412 C411 1.389 . S
C412 C413 1.387 . S
C413 H398 0.930 . S
C413 C408 1.390 . S
C413 C412 1.387 . S
H414 C426 0.930 . S
H415 C428 0.930 . S
H416 C429 0.930 . S
H417 C433 0.959 . S
H418 C433 0.959 . S
H419 C433 0.961 . S
H420 C434 0.960 . S
H421 C434 0.961 . S
H422 C434 0.959 . S
H423 C437 0.929 . S
H424 C438 0.931 . S
H425 C440 0.930 . S
C426 H414 0.930 . S
C426 C427 1.399 . S
C426 C431 1.399 . S
C427 C426 1.399 . S
C427 C428 1.376 . S
C428 H415 0.930 . S
C428 C427 1.376 . S
C428 C429 1.388 . S
C429 H416 0.930 . S
C429 C428 1.388 . S
C429 C430 1.390 . S
C430 C429 1.390 . S
C430 C431 1.394 . S
C430 C436 1.465 . S
C431 C426 1.399 . S
C431 C430 1.394 . S
C431 C432 1.516 . S
C432 C431 1.516 . S
C432 C433 1.502 . S
C432 C434 1.561 . S
C432 C435 1.526 . S
C433 H417 0.959 . S
C433 H418 0.959 . S
C433 H419 0.961 . S
C433 C432 1.502 . S
C434 H420 0.960 . S
C434 H421 0.961 . S
C434 H422 0.959 . S
C434 C432 1.561 . S
C435 C432 1.526 . S
C435 C436 1.396 . S
C435 C440 1.390 . S
C436 C430 1.465 . S
C436 C435 1.396 . S
C436 C437 1.399 . S
C437 H423 0.929 . S
C437 C436 1.399 . S
C437 C438 1.385 . S
C438 H424 0.931 . S
C438 C437 1.385 . S
C438 C439 1.389 . S
C439 C438 1.389 . S
C439 C440 1.387 . S
C440 H425 0.930 . S
C440 C435 1.390 . S
C440 C439 1.387 . S
H441 C453 0.930 . S
H442 C455 0.930 . S
H443 C456 0.930 . S
H444 C460 0.959 . S
H445 C460 0.959 . S
H446 C460 0.961 . S
H447 C461 0.960 . S
H448 C461 0.961 . S
H449 C461 0.959 . S
H450 C464 0.929 . S
H451 C465 0.931 . S
H452 C467 0.930 . S
C453 H441 0.930 . S
C453 C454 1.399 . S
C453 C458 1.399 . S
C454 C453 1.399 . S
C454 C455 1.376 . S
C455 H442 0.930 . S
C455 C454 1.376 . S
C455 C456 1.388 . S
C456 H443 0.930 . S
C456 C455 1.388 . S
C456 C457 1.390 . S
C457 C456 1.390 . S
C457 C458 1.394 . S
C457 C463 1.465 . S
C458 C453 1.399 . S
C458 C457 1.394 . S
C458 C459 1.516 . S
C459 C458 1.516 . S
C459 C460 1.502 . S
C459 C461 1.561 . S
C459 C462 1.526 . S
C460 H444 0.959 . S
C460 H445 0.959 . S
C460 H446 0.961 . S
C460 C459 1.502 . S
C461 H447 0.960 . S
C461 H448 0.961 . S
C461 H449 0.959 . S
C461 C459 1.561 . S
C462 C459 1.526 . S
C462 C463 1.396 . S
C462 C467 1.390 . S
C463 C457 1.465 . S
C463 C462 1.396 . S
C463 C464 1.399 . S
C464 H450 0.929 . S
C464 C463 1.399 . S
C464 C465 1.385 . S
C465 H451 0.931 . S
C465 C464 1.385 . S
C465 C466 1.389 . S
C466 C465 1.389 . S
C466 C467 1.387 . S
C467 H452 0.930 . S
C467 C462 1.390 . S
C467 C466 1.387 . S
H468 C480 0.930 . S
H469 C482 0.930 . S
H470 C483 0.930 . S
H471 C487 0.959 . S
H472 C487 0.959 . S
H473 C487 0.961 . S
H474 C488 0.960 . S
H475 C488 0.961 . S
H476 C488 0.959 . S
H477 C491 0.929 . S
H478 C492 0.931 . S
H479 C494 0.930 . S
C480 H468 0.930 . S
C480 C481 1.399 . S
C480 C485 1.399 . S
C481 C480 1.399 . S
C481 C482 1.376 . S
C482 H469 0.930 . S
C482 C481 1.376 . S
C482 C483 1.388 . S
C483 H470 0.930 . S
C483 C482 1.388 . S
C483 C484 1.390 . S
C484 C483 1.390 . S
C484 C485 1.394 . S
C484 C490 1.465 . S
C485 C480 1.399 . S
C485 C484 1.394 . S
C485 C486 1.516 . S
C486 C485 1.516 . S
C486 C487 1.502 . S
C486 C488 1.561 . S
C486 C489 1.526 . S
C487 H471 0.959 . S
C487 H472 0.959 . S
C487 H473 0.961 . S
C487 C486 1.502 . S
C488 H474 0.960 . S
C488 H475 0.961 . S
C488 H476 0.959 . S
C488 C486 1.561 . S
C489 C486 1.526 . S
C489 C490 1.396 . S
C489 C494 1.390 . S
C490 C484 1.465 . S
C490 C489 1.396 . S
C490 C491 1.399 . S
C491 H477 0.929 . S
C491 C490 1.399 . S
C491 C492 1.385 . S
C492 H478 0.931 . S
C492 C491 1.385 . S
C492 C493 1.389 . S
C493 C492 1.389 . S
C493 C494 1.387 . S
C494 H479 0.930 . S
C494 C489 1.390 . S
C494 C493 1.387 . S
H495 C507 0.930 . S
H496 C509 0.930 . S
H497 C510 0.930 . S
H498 C514 0.959 . S
H499 C514 0.959 . S
H500 C514 0.961 . S
H501 C515 0.960 . S
H502 C515 0.961 . S
H503 C515 0.959 . S
H504 C518 0.929 . S
H505 C519 0.931 . S
H506 C521 0.930 . S
C507 H495 0.930 . S
C507 C508 1.399 . S
C507 C512 1.399 . S
C508 C507 1.399 . S
C508 C509 1.376 . S
C509 H496 0.930 . S
C509 C508 1.376 . S
C509 C510 1.388 . S
C510 H497 0.930 . S
C510 C509 1.388 . S
C510 C511 1.390 . S
C511 C510 1.390 . S
C511 C512 1.394 . S
C511 C517 1.465 . S
C512 C507 1.399 . S
C512 C511 1.394 . S
C512 C513 1.516 . S
C513 C512 1.516 . S
C513 C514 1.502 . S
C513 C515 1.561 . S
C513 C516 1.526 . S
C514 H498 0.959 . S
C514 H499 0.959 . S
C514 H500 0.961 . S
C514 C513 1.502 . S
C515 H501 0.960 . S
C515 H502 0.961 . S
C515 H503 0.959 . S
C515 C513 1.561 . S
C516 C513 1.526 . S
C516 C517 1.396 . S
C516 C521 1.390 . S
C517 C511 1.465 . S
C517 C516 1.396 . S
C517 C518 1.399 . S
C518 H504 0.929 . S
C518 C517 1.399 . S
C518 C519 1.385 . S
C519 H505 0.931 . S
C519 C518 1.385 . S
C519 C520 1.389 . S
C520 C519 1.389 . S
C520 C521 1.387 . S
C521 H506 0.930 . S
C521 C516 1.390 . S
C521 C520 1.387 . S
H522 C534 0.930 . S
H523 C536 0.930 . S
H524 C537 0.930 . S
H525 C541 0.959 1_655 S
H526 C541 0.959 1_556 S
H527 C541 0.961 . S
H528 C542 0.960 . S
H529 C542 0.961 . S
H530 C542 0.959 . S
H531 C545 0.929 . S
H532 C546 0.931 . S
H533 C548 0.930 . S
C534 H522 0.930 . S
C534 C535 1.399 . S
C534 C539 1.399 . S
C535 C534 1.399 . S
C535 C536 1.376 . S
C536 H523 0.930 . S
C536 C535 1.376 . S
C536 C537 1.388 . S
C537 H524 0.930 . S
C537 C536 1.388 . S
C537 C538 1.390 . S
C538 C537 1.390 . S
C538 C539 1.394 . S
C538 C544 1.465 1_554 S
C539 C534 1.399 . S
C539 C538 1.394 . S
C539 C540 1.516 . S
C540 C539 1.516 . S
C540 C541 1.502 . S
C540 C542 1.561 . S
C540 C543 1.526 1_554 S
C541 H525 0.959 1_455 S
C541 H526 0.959 1_554 S
C541 H527 0.961 . S
C541 C540 1.502 . S
C542 H528 0.960 . S
C542 H529 0.961 . S
C542 H530 0.959 . S
C542 C540 1.561 . S
C543 C540 1.526 1_556 S
C543 C544 1.396 . S
C543 C548 1.390 . S
C544 C538 1.465 1_556 S
C544 C543 1.396 . S
C544 C545 1.399 . S
C545 H531 0.929 . S
C545 C544 1.399 . S
C545 C546 1.385 . S
C546 H532 0.931 . S
C546 C545 1.385 . S
C546 C547 1.389 . S
C547 C546 1.389 . S
C547 C548 1.387 . S
C548 H533 0.930 . S
C548 C543 1.390 . S
C548 C547 1.387 . S
H549 C561 0.930 1_565 S
H550 C563 0.930 . S
H551 C564 0.930 . S
H552 C568 0.959 1_545 S
H553 C568 0.959 . S
H554 C568 0.961 . S
H555 C569 0.960 . S
H556 C569 0.961 . S
H557 C569 0.959 . S
H558 C572 0.929 . S
H559 C573 0.931 . S
H560 C575 0.930 1_565 S
C561 H549 0.930 1_545 S
C561 C562 1.399 . S
C561 C566 1.399 . S
C562 C561 1.399 . S
C562 C563 1.376 . S
C563 H550 0.930 . S
C563 C562 1.376 . S
C563 C564 1.388 . S
C564 H551 0.930 . S
C564 C563 1.388 . S
C564 C565 1.390 . S
C565 C564 1.390 . S
C565 C566 1.394 . S
C565 C571 1.465 . S
C566 C561 1.399 . S
C566 C565 1.394 . S
C566 C567 1.516 1_545 S
C567 C566 1.516 1_565 S
C567 C568 1.502 . S
C567 C569 1.561 . S
C567 C570 1.526 1_565 S
C568 H552 0.959 1_565 S
C568 H553 0.959 . S
C568 H554 0.961 . S
C568 C567 1.502 . S
C569 H555 0.960 . S
C569 H556 0.961 . S
C569 H557 0.959 . S
C569 C567 1.561 . S
C570 C567 1.526 1_545 S
C570 C571 1.396 . S
C570 C575 1.390 . S
C571 C565 1.465 . S
C571 C570 1.396 . S
C571 C572 1.399 . S
C572 H558 0.929 . S
C572 C571 1.399 . S
C572 C573 1.385 . S
C573 H559 0.931 . S
C573 C572 1.385 . S
C573 C574 1.389 . S
C574 C573 1.389 . S
C574 C575 1.387 . S
C575 H560 0.930 1_545 S
C575 C570 1.390 . S
C575 C574 1.387 . S
H576 C588 0.930 . S
H577 C590 0.930 . S
H578 C591 0.930 . S
H579 C595 0.959 . S
H580 C595 0.959 . S
H581 C595 0.961 . S
H582 C596 0.960 . S
H583 C596 0.961 . S
H584 C596 0.959 . S
H585 C599 0.929 . S
H586 C600 0.931 . S
H587 C602 0.930 . S
C588 H576 0.930 . S
C588 C589 1.399 . S
C588 C593 1.399 . S
C589 C588 1.399 . S
C589 C590 1.376 . S
C590 H577 0.930 . S
C590 C589 1.376 . S
C590 C591 1.388 . S
C591 H578 0.930 . S
C591 C590 1.388 . S
C591 C592 1.390 . S
C592 C591 1.390 . S
C592 C593 1.394 . S
C592 C598 1.465 . S
C593 C588 1.399 . S
C593 C592 1.394 . S
C593 C594 1.516 . S
C594 C593 1.516 . S
C594 C595 1.502 . S
C594 C596 1.561 . S
C594 C597 1.526 . S
C595 H579 0.959 . S
C595 H580 0.959 . S
C595 H581 0.961 . S
C595 C594 1.502 . S
C596 H582 0.960 . S
C596 H583 0.961 . S
C596 H584 0.959 . S
C596 C594 1.561 . S
C597 C594 1.526 . S
C597 C598 1.396 . S
C597 C602 1.390 . S
C598 C592 1.465 . S
C598 C597 1.396 . S
C598 C599 1.399 . S
C599 H585 0.929 . S
C599 C598 1.399 . S
C599 C600 1.385 . S
C600 H586 0.931 . S
C600 C599 1.385 . S
C600 C601 1.389 . S
C601 C600 1.389 . S
C601 C602 1.387 . S
C602 H587 0.930 . S
C602 C597 1.390 . S
C602 C601 1.387 . S
H603 C615 0.930 . S
H604 C617 0.930 . S
H605 C618 0.930 . S
H606 C622 0.959 . S
H607 C622 0.959 . S
H608 C622 0.961 . S
H609 C623 0.960 . S
H610 C623 0.961 . S
H611 C623 0.959 . S
H612 C626 0.929 . S
H613 C627 0.931 . S
H614 C629 0.930 . S
C615 H603 0.930 . S
C615 C616 1.399 . S
C615 C620 1.399 . S
C616 C615 1.399 . S
C616 C617 1.376 1_545 S
C617 H604 0.930 . S
C617 C616 1.376 1_565 S
C617 C618 1.388 . S
C618 H605 0.930 . S
C618 C617 1.388 . S
C618 C619 1.390 . S
C619 C618 1.390 . S
C619 C620 1.394 1_565 S
C619 C625 1.465 . S
C620 C615 1.399 . S
C620 C619 1.394 1_545 S
C620 C621 1.516 . S
C621 C620 1.516 . S
C621 C622 1.502 . S
C621 C623 1.561 . S
C621 C624 1.526 . S
C622 H606 0.959 . S
C622 H607 0.959 . S
C622 H608 0.961 . S
C622 C621 1.502 . S
C623 H609 0.960 . S
C623 H610 0.961 . S
C623 H611 0.959 . S
C623 C621 1.561 . S
C624 C621 1.526 . S
C624 C625 1.396 1_545 S
C624 C629 1.390 . S
C625 C619 1.465 . S
C625 C624 1.396 1_565 S
C625 C626 1.399 . S
C626 H612 0.929 . S
C626 C625 1.399 . S
C626 C627 1.385 . S
C627 H613 0.931 . S
C627 C626 1.385 . S
C627 C628 1.389 1_565 S
C628 C627 1.389 1_545 S
C628 C629 1.387 . S
C629 H614 0.930 . S
C629 C624 1.390 . S
C629 C628 1.387 . S
H630 C642 0.930 . S
H631 C644 0.930 . S
H632 C645 0.930 . S
H633 C649 0.959 . S
H634 C649 0.959 1_554 S
H635 C649 0.961 . S
H636 C650 0.960 . S
H637 C650 0.961 1_554 S
H638 C650 0.959 . S
H639 C653 0.929 1_556 S
H640 C654 0.931 . S
H641 C656 0.930 . S
C642 H630 0.930 . S
C642 C643 1.399 . S
C642 C647 1.399 . S
C643 C642 1.399 . S
C643 C644 1.376 . S
C644 H631 0.930 . S
C644 C643 1.376 . S
C644 C645 1.388 . S
C645 H632 0.930 . S
C645 C644 1.388 . S
C645 C646 1.390 . S
C646 C645 1.390 . S
C646 C647 1.394 . S
C646 C652 1.465 . S
C647 C642 1.399 . S
C647 C646 1.394 . S
C647 C648 1.516 . S
C648 C647 1.516 . S
C648 C649 1.502 . S
C648 C650 1.561 . S
C648 C651 1.526 1_556 S
C649 H633 0.959 . S
C649 H634 0.959 1_556 S
C649 H635 0.961 . S
C649 C648 1.502 . S
C650 H636 0.960 . S
C650 H637 0.961 1_556 S
C650 H638 0.959 . S
C650 C648 1.561 . S
C651 C648 1.526 1_554 S
C651 C652 1.396 1_554 S
C651 C656 1.390 . S
C652 C646 1.465 . S
C652 C651 1.396 1_556 S
C652 C653 1.399 1_556 S
C653 H639 0.929 1_554 S
C653 C652 1.399 1_554 S
C653 C654 1.385 . S
C654 H640 0.931 . S
C654 C653 1.385 . S
C654 C655 1.389 . S
C655 C654 1.389 . S
C655 C656 1.387 . S
C656 H641 0.930 . S
C656 C651 1.390 . S
C656 C655 1.387 . S
H657 C669 0.930 . S
H658 C671 0.930 . S
H659 C672 0.930 . S
H660 C676 0.959 . S
H661 C676 0.959 . S
H662 C676 0.961 . S
H663 C677 0.960 . S
H664 C677 0.961 . S
H665 C677 0.959 1_455 S
H666 C680 0.929 . S
H667 C681 0.931 . S
H668 C683 0.930 . S
C669 H657 0.930 . S
C669 C670 1.399 1_655 S
C669 C674 1.399 . S
C670 C669 1.399 1_455 S
C670 C671 1.376 . S
C671 H658 0.930 . S
C671 C670 1.376 . S
C671 C672 1.388 . S
C672 H659 0.930 . S
C672 C671 1.388 . S
C672 C673 1.390 . S
C673 C672 1.390 . S
C673 C674 1.385 1_455 S
C673 C679 1.465 . S
C674 C669 1.399 . S
C674 C673 1.385 1_655 S
C674 C675 1.524 . S
C675 C674 1.524 . S
C675 C676 1.502 . S
C675 C677 1.561 . S
C675 C678 1.526 1_655 S
C676 H660 0.959 . S
C676 H661 0.959 . S
C676 H662 0.961 . S
C676 C675 1.502 . S
C677 H663 0.960 . S
C677 H664 0.961 . S
C677 H665 0.959 1_655 S
C677 C675 1.561 . S
C678 C675 1.526 1_455 S
C678 C679 1.396 . S
C678 C683 1.390 1_455 S
C679 C673 1.465 . S
C679 C678 1.396 . S
C679 C680 1.399 . S
C680 H666 0.929 . S
C680 C679 1.399 . S
C680 C681 1.385 . S
C681 H667 0.931 . S
C681 C680 1.385 . S
C681 C682 1.389 . S
C682 C681 1.389 . S
C682 C683 1.387 1_455 S
C683 H668 0.930 . S
C683 C678 1.390 1_655 S
C683 C682 1.387 1_655 S
C211 C9 0.537 . S
C223 C189 0.454 . S
C238 C49 0.323 . S
C250 C167 0.288 . S
C265 C89 0.298 . S
C277 C180 0.373 . S
C292 C26 0.467 . S
C304 C193 0.228 . S
C331 C163 0.478 . S
C319 C66 0.471 . S
C358 C176 0.501 . S
C346 C106 0.489 . S
C373 C43 2.899 . S
C385 C141 2.866 . S
C400 C83 2.989 . S
C412 C154 2.955 1_655 S
C427 C22 3.157 . S
C439 C124 2.963 . S
C466 C137 2.931 . S
C454 C62 3.162 . S
C493 C150 2.869 . S
C481 C102 3.068 . S
C508 C3 2.907 . S
C520 C128 2.876 . S
C547 C155 1.744 . S
C535 C15 1.728 . S
C562 C55 1.678 . S
C574 C129 1.771 . S
C589 C95 1.668 . S
C601 C142 1.782 . S
C628 C181 1.235 . S
C616 C42 1.257 . S
C655 C194 1.275 . S
C643 C82 1.251 . S
C670 C2 1.199 . S
C682 C168 1.246 . S
