# Generated by pormake.
# Topology pyr, (3,6)-cn, num edge types: 1
# Building blocks:
#     Node 0, Type 0, BuildingBlock: BETDAH_clean_linker_0, # of connection points: 3
#     Node 1, Type 0, BuildingBlock: BETDAH_clean_linker_0, # of connection points: 3
#     Node 2, Type 0, BuildingBlock: BETDAH_clean_linker_0, # of connection points: 3
#     Node 3, Type 0, BuildingBlock: BETDAH_clean_linker_0, # of connection points: 3
#     Node 4, Type 0, BuildingBlock: BETDAH_clean_linker_0, # of connection points: 3
#     Node 5, Type 0, BuildingBlock: BETDAH_clean_linker_0, # of connection points: 3
#     Node 6, Type 0, BuildingBlock: BETDAH_clean_linker_0, # of connection points: 3
#     Node 7, Type 0, BuildingBlock: BETDAH_clean_linker_0, # of connection points: 3
#     Node 8, Type 1, BuildingBlock: MIFKUJ_clean_sbu_0, # of connection points: 6
#     Node 9, Type 1, BuildingBlock: MIFKUJ_clean_sbu_0, # of connection points: 6
#     Node 10, Type 1, BuildingBlock: MIFKUJ_clean_sbu_0, # of connection points: 6
#     Node 11, Type 1, BuildingBlock: MIFKUJ_clean_sbu_0, # of connection points: 6
#     Edge 12, Type (0, 1), BuildingBlock: XUDNAN_clean_linker_2, # of connection points: 2
#     Edge 13, Type (0, 1), BuildingBlock: XUDNAN_clean_linker_2, # of connection points: 2
#     Edge 14, Type (0, 1), BuildingBlock: XUDNAN_clean_linker_2, # of connection points: 2
#     Edge 15, Type (0, 1), BuildingBlock: XUDNAN_clean_linker_2, # of connection points: 2
#     Edge 16, Type (0, 1), BuildingBlock: XUDNAN_clean_linker_2, # of connection points: 2
#     Edge 17, Type (0, 1), BuildingBlock: XUDNAN_clean_linker_2, # of connection points: 2
#     Edge 18, Type (0, 1), BuildingBlock: XUDNAN_clean_linker_2, # of connection points: 2
#     Edge 19, Type (0, 1), BuildingBlock: XUDNAN_clean_linker_2, # of connection points: 2
#     Edge 20, Type (0, 1), BuildingBlock: XUDNAN_clean_linker_2, # of connection points: 2
#     Edge 21, Type (0, 1), BuildingBlock: XUDNAN_clean_linker_2, # of connection points: 2
#     Edge 22, Type (0, 1), BuildingBlock: XUDNAN_clean_linker_2, # of connection points: 2
#     Edge 23, Type (0, 1), BuildingBlock: XUDNAN_clean_linker_2, # of connection points: 2
#     Edge 24, Type (0, 1), BuildingBlock: XUDNAN_clean_linker_2, # of connection points: 2
#     Edge 25, Type (0, 1), BuildingBlock: XUDNAN_clean_linker_2, # of connection points: 2
#     Edge 26, Type (0, 1), BuildingBlock: XUDNAN_clean_linker_2, # of connection points: 2
#     Edge 27, Type (0, 1), BuildingBlock: XUDNAN_clean_linker_2, # of connection points: 2
#     Edge 28, Type (0, 1), BuildingBlock: XUDNAN_clean_linker_2, # of connection points: 2
#     Edge 29, Type (0, 1), BuildingBlock: XUDNAN_clean_linker_2, # of connection points: 2
#     Edge 30, Type (0, 1), BuildingBlock: XUDNAN_clean_linker_2, # of connection points: 2
#     Edge 31, Type (0, 1), BuildingBlock: XUDNAN_clean_linker_2, # of connection points: 2
#     Edge 32, Type (0, 1), BuildingBlock: XUDNAN_clean_linker_2, # of connection points: 2
#     Edge 33, Type (0, 1), BuildingBlock: XUDNAN_clean_linker_2, # of connection points: 2
#     Edge 34, Type (0, 1), BuildingBlock: XUDNAN_clean_linker_2, # of connection points: 2
#     Edge 35, Type (0, 1), BuildingBlock: XUDNAN_clean_linker_2, # of connection points: 2
# Relax obj value: 0.056
# Max RMSD: 0.192
# Mean RMSD: 0.126
data_MOF--net-pyr--node1-MIFKUJ_clean_sbu_0--node2-BETDAH_clean_linker_0--edge1-XUDNAN_clean_linker_2
_symmetry_space_group_name_H-M    P1
_symmetry_Int_Tables_number       1
_symmetry_cell_setting            triclinic
loop_
_symmetry_equiv_pos_as_xyz
'x, y, z'
_cell_length_a     38.332075
_cell_length_b     34.790254
_cell_length_c     38.715168
_cell_angle_alpha  85.871643
_cell_angle_beta   88.639545
_cell_angle_gamma 103.64581
loop_
_atom_site_label
_atom_site_type_symbol
_atom_site_fract_x
_atom_site_fract_y
_atom_site_fract_z
_atom_type_partial_charge
H0 H 0.20936 0.13439 0.23181 0.0
H1 H 0.20069 0.17653 0.1258 0.0
H2 H 0.12863 0.1979 0.20418 0.0
C3 C 0.19645 0.14986 0.21258 0.0
C4 C 0.16733 0.16553 0.22264 0.0
C5 C 0.20861 0.1534 0.17765 0.0
C6 C 0.19155 0.17318 0.1528 0.0
C7 C 0.16358 0.19015 0.16245 0.0
C8 C 0.15145 0.18626 0.19728 0.0
N9 N 0.1474 0.2099 0.13632 0.0
C10 C 0.13489 0.2435 0.14154 0.0
H11 H 0.42696 0.85944 0.74513 0.0
H12 H 0.32572 0.89074 0.75869 0.0
H13 H 0.33706 0.80863 0.68455 0.0
C14 C 0.39939 0.85666 0.73795 0.0
C15 C 0.38517 0.83148 0.71223 0.0
C16 C 0.37815 0.87778 0.75526 0.0
C17 C 0.34283 0.87555 0.74508 0.0
C18 C 0.32854 0.85134 0.71896 0.0
C19 C 0.34943 0.82904 0.70306 0.0
N20 N 0.29158 0.84465 0.71231 0.0
C21 C 0.27813 0.86969 0.68951 0.0
H22 H 0.69196 0.32985 0.92396 0.0
H23 H 0.7305 0.42363 0.84394 0.0
H24 H 0.63204 0.33726 0.83187 0.0
C25 C 0.68841 0.34518 0.89938 0.0
C26 C 0.65858 0.32986 0.87977 0.0
C27 C 0.71476 0.3787 0.88656 0.0
C28 C 0.71063 0.39737 0.85411 0.0
C29 C 0.68086 0.38316 0.83456 0.0
C30 C 0.65474 0.34911 0.84727 0.0
N31 N 0.67927 0.40331 0.80169 0.0
C32 C 0.64847 0.40186 0.78322 0.0
H33 H 0.81998 0.70829 0.3994 0.0
H34 H 0.87695 0.69785 0.30469 0.0
H35 H 0.77084 0.62513 0.32749 0.0
C36 C 0.82112 0.6944 0.37542 0.0
C37 C 0.79159 0.66465 0.36687 0.0
C38 C 0.85188 0.70708 0.35305 0.0
C39 C 0.85332 0.68869 0.32195 0.0
C40 C 0.8241 0.65861 0.31319 0.0
C41 C 0.79347 0.64732 0.33539 0.0
N42 N 0.82392 0.63915 0.28215 0.0
C43 C 0.85246 0.64493 0.258 0.0
H44 H 0.89701 0.84461 0.7952 0.0
H45 H 0.7937 0.82915 0.84791 0.0
H46 H 0.81652 0.89803 0.75021 0.0
C47 C 0.87029 0.84991 0.79628 0.0
C48 C 0.85985 0.87334 0.76915 0.0
C49 C 0.84675 0.83357 0.82489 0.0
C50 C 0.81243 0.84171 0.82637 0.0
C51 C 0.80162 0.86475 0.79922 0.0
C52 C 0.82509 0.8798 0.77064 0.0
N53 N 0.76701 0.87267 0.79935 0.0
C54 C 0.74851 0.87867 0.82901 0.0
H55 H 0.71092 0.13676 0.32678 0.0
H56 H 0.7328 0.17988 0.42738 0.0
H57 H 0.65884 0.2241 0.36327 0.0
C58 C 0.70627 0.1554 0.34682 0.0
C59 C 0.68266 0.18052 0.34116 0.0
C60 C 0.72478 0.15512 0.37774 0.0
C61 C 0.71925 0.18016 0.40313 0.0
C62 C 0.6956 0.20492 0.39821 0.0
C63 C 0.67736 0.20515 0.36714 0.0
N64 N 0.69086 0.2289 0.42528 0.0
C65 C 0.66628 0.25254 0.42569 0.0
H66 H 0.32519 0.74505 0.17258 0.0
H67 H 0.28951 0.62562 0.21854 0.0
H68 H 0.39432 0.69559 0.23959 0.0
C69 C 0.33006 0.7205 0.18914 0.0
C70 C 0.36307 0.72418 0.20502 0.0
C71 C 0.30344 0.6852 0.19415 0.0
C72 C 0.31 0.65318 0.21482 0.0
C73 C 0.34224 0.65686 0.23193 0.0
C74 C 0.36887 0.6927 0.22722 0.0
N75 N 0.34706 0.62363 0.25301 0.0
C76 C 0.37003 0.62604 0.28036 0.0
H77 H 0.18847 0.37083 0.64308 0.0
H78 H 0.16234 0.43974 0.72366 0.0
H79 H 0.08106 0.34509 0.68756 0.0
C80 C 0.16893 0.37781 0.66079 0.0
C81 C 0.13356 0.35477 0.66236 0.0
C82 C 0.17972 0.40848 0.68278 0.0
C83 C 0.15438 0.41594 0.7068 0.0
C84 C 0.11862 0.39313 0.70843 0.0
C85 C 0.10855 0.36265 0.68623 0.0
N86 N 0.09192 0.40005 0.73169 0.0
C87 C 0.09855 0.42475 0.75871 0.0
Zn88 Zn 0.06971 0.03344 0.51629 0.0
Zn89 Zn 0.98066 0.0217 0.47852 0.0
C90 C 0.07923 0.10003 0.5577 0.0
O91 O 0.06958 0.07141 0.58255 0.0
C92 C 0.97486 0.93912 0.46343 0.0
O93 O 0.96773 0.93161 0.49692 0.0
O94 O 0.11207 0.01104 0.53166 0.0
O95 O 0.02681 0.0074 0.54749 0.0
O96 O 0.97182 0.00354 0.52949 0.0
C97 C 0.1084 0.98507 0.55725 0.0
O98 O 0.07648 0.97113 0.57241 0.0
O99 O 0.08169 0.09109 0.5266 0.0
C100 C 0.90907 0.01606 0.45341 0.0
O101 O 0.90846 0.97806 0.45542 0.0
O102 O 0.93687 0.0405 0.46264 0.0
O103 O 0.02372 0.06697 0.46389 0.0
O104 O 0.06515 0.03256 0.46437 0.0
O105 O 0.98262 0.97497 0.45063 0.0
C106 C 0.99299 0.99776 0.55301 0.0
C107 C 0.05128 0.05903 0.44989 0.0
Zn108 Zn 0.53563 0.0045 0.02001 0.0
Zn109 Zn 0.50135 0.06715 0.09272 0.0
C110 C 0.48991 0.96598 0.97071 0.0
O111 O 0.50158 0.93651 0.9856 0.0
C112 C 0.54499 0.12952 0.13089 0.0
O113 O 0.53525 0.15361 0.10735 0.0
O114 O 0.57524 0.98007 1.0026 0.0
O115 O 0.55839 0.06177 0.02651 0.0
O116 O 0.51953 0.09423 0.04551 0.0
C117 C 0.58695 0.9877 0.97123 0.0
O118 O 0.57382 0.01235 0.95106 0.0
O119 O 0.49963 1.00006 0.9822 0.0
C120 C 0.43979 0.08749 0.12837 0.0
O121 O 0.46103 0.09477 0.15446 0.0
O122 O 0.45153 0.07616 0.10078 0.0
O123 O 0.4961 0.00815 0.10073 0.0
O124 O 0.51326 0.97057 0.06273 0.0
O125 O 0.53398 0.09226 0.12935 0.0
C126 C 0.5424 0.0898 0.02273 0.0
C127 C 0.49942 0.97462 0.092 0.0
Zn128 Zn 0.5004 0.49548 0.5281 0.0
Zn129 Zn 0.48941 0.56358 0.57175 0.0
C130 C 0.56066 0.53759 0.48736 0.0
O131 O 0.54225 0.51495 0.4651 0.0
C132 C 0.43398 0.53006 0.62153 0.0
O133 O 0.46064 0.54457 0.64118 0.0
O134 O 0.50728 0.44712 0.50502 0.0
O135 O 0.49231 0.47781 0.57868 0.0
O136 O 0.52494 0.53459 0.593 0.0
C137 C 0.53581 0.43672 0.51344 0.0
O138 O 0.55558 0.45575 0.537 0.0
O139 O 0.54786 0.53612 0.51819 0.0
C140 C 0.47393 0.63701 0.58616 0.0
O141 O 0.45182 0.62729 0.56108 0.0
O142 O 0.49501 0.61492 0.59452 0.0
O143 O 0.4894 0.57727 0.51983 0.0
O144 O 0.46297 0.51797 0.50439 0.0
O145 O 0.4397 0.53305 0.58881 0.0
C146 C 0.514 0.49719 0.59899 0.0
C147 C 0.47052 0.55554 0.49873 0.0
Zn148 Zn 0.993 0.59628 0.98522 0.0
Zn149 Zn 0.03509 0.5431 0.04277 0.0
C150 C 0.94186 0.53347 0.96153 0.0
O151 O 0.96106 0.54811 0.93297 0.0
C152 C 0.07375 0.59942 0.08777 0.0
O153 O 0.04507 0.58563 0.10827 0.0
O154 O 0.97397 0.63911 0.95894 0.0
O155 O 0.00466 0.61548 0.03237 0.0
O156 O 0.98828 0.55557 0.05847 0.0
C157 C 0.94988 0.65144 0.97499 0.0
O158 O 0.93979 0.63647 0.00678 0.0
O159 O 0.95099 0.54887 0.98971 0.0
C160 C 0.07378 0.49156 0.07545 0.0
O161 O 0.10011 0.5209 0.06271 0.0
O162 O 0.04147 0.49301 0.06996 0.0
O163 O 0.04616 0.53622 0.99251 0.0
O164 O 0.03151 0.58168 0.95615 0.0
O165 O 0.07505 0.58683 0.05786 0.0
C166 C 0.98849 0.59226 0.05759 0.0
C167 C 0.04671 0.55324 0.9622 0.0
H168 H 0.15978 0.09851 0.26747 0.0
H169 H 0.14023 0.21681 0.26047 0.0
H170 H 0.10983 0.20296 0.3184 0.0
H171 H 0.07839 0.04836 0.30974 0.0
H172 H 0.09728 0.01544 0.33759 0.0
H173 H 0.11902 0.03506 0.29619 0.0
H174 H 0.17828 0.06358 0.32612 0.0
H175 H 0.15682 0.0437 0.36764 0.0
H176 H 0.17807 0.09583 0.36051 0.0
H177 H 0.07698 0.17424 0.37482 0.0
H178 H 0.04841 0.13456 0.42795 0.0
H179 H 0.0932 0.03692 0.40024 0.0
C180 C 0.14994 0.12195 0.27834 0.0
C181 C 0.15227 0.15872 0.25907 0.0
C182 C 0.13824 0.18813 0.27426 0.0
C183 C 0.12112 0.18066 0.30731 0.0
C184 C 0.11868 0.14386 0.32519 0.0
C185 C 0.13317 0.11521 0.31148 0.0
C186 C 0.12643 0.07787 0.33586 0.0
C187 C 0.10394 0.04208 0.31882 0.0
C188 C 0.16202 0.06978 0.34827 0.0
C189 C 0.10527 0.08975 0.36513 0.0
C190 C 0.10097 0.12788 0.35839 0.0
C191 C 0.08062 0.14458 0.38064 0.0
C192 C 0.06436 0.12175 0.41064 0.0
C193 C 0.06886 0.08283 0.41832 0.0
C194 C 0.08979 0.06683 0.3953 0.0
H195 H 0.41351 0.85045 0.80838 0.0
H196 H 0.37308 0.95195 0.77221 0.0
H197 H 0.39582 0.98572 0.82436 0.0
H198 H 0.39195 0.85268 0.89864 0.0
H199 H 0.4317 0.83787 0.91261 0.0
H200 H 0.41223 0.82225 0.87255 0.0
H201 H 0.47312 0.85314 0.8394 0.0
H202 H 0.49282 0.86865 0.87938 0.0
H203 H 0.49458 0.90461 0.84308 0.0
H204 H 0.42526 0.00885 0.88038 0.0
H205 H 0.45721 0.01844 0.93517 0.0
H206 H 0.47632 0.90045 0.93391 0.0
C207 C 0.40974 0.87997 0.8112 0.0
C208 C 0.39188 0.8988 0.78608 0.0
C209 C 0.3867 0.93702 0.79118 0.0
C210 C 0.39958 0.95641 0.82064 0.0
C211 C 0.41723 0.93695 0.84485 0.0
C212 C 0.42213 0.89948 0.8404 0.0
C213 C 0.44167 0.88465 0.87007 0.0
C214 C 0.41796 0.84715 0.88962 0.0
C215 C 0.47768 0.87735 0.85721 0.0
C216 C 0.44733 0.9197 0.89194 0.0
C217 C 0.43317 0.94969 0.87706 0.0
C218 C 0.43621 0.98541 0.89233 0.0
C219 C 0.45436 0.99059 0.92344 0.0
C220 C 0.46904 0.96011 0.93899 0.0
C221 C 0.46511 0.92421 0.92298 0.0
H222 H 0.64177 0.47172 0.75424 0.0
H223 H 0.59498 0.34527 0.7593 0.0
H224 H 0.55212 0.35635 0.71458 0.0
H225 H 0.55826 0.50451 0.73949 0.0
H226 H 0.58062 0.54608 0.71014 0.0
H227 H 0.60482 0.52815 0.74466 0.0
H228 H 0.65308 0.51934 0.69983 0.0
H229 H 0.62895 0.53697 0.66521 0.0
H230 H 0.63952 0.48924 0.66424 0.0
H231 H 0.51794 0.38137 0.66632 0.0
H232 H 0.49425 0.41767 0.61885 0.0
H233 H 0.56406 0.52818 0.64553 0.0
C234 C 0.6219 0.44655 0.74637 0.0
C235 C 0.62097 0.40776 0.76017 0.0
C236 C 0.59547 0.37522 0.74907 0.0
C237 C 0.5712 0.38129 0.72376 0.0
C238 C 0.57305 0.42006 0.71013 0.0
C239 C 0.59766 0.45215 0.72121 0.0
C240 C 0.59558 0.49052 0.7012 0.0
C241 C 0.58413 0.51899 0.72532 0.0
C242 C 0.63141 0.51015 0.68145 0.0
C243 C 0.5664 0.47504 0.67661 0.0
C244 C 0.55359 0.43438 0.6823 0.0
C245 C 0.52752 0.41324 0.66189 0.0
C246 C 0.51429 0.43417 0.63492 0.0
C247 C 0.52721 0.47584 0.62849 0.0
C248 C 0.55343 0.49642 0.64988 0.0
H249 H 0.87074 0.58215 0.23261 0.0
H250 H 0.89084 0.71027 0.21998 0.0
H251 H 0.93032 0.71122 0.16793 0.0
H252 H 0.961 0.57472 0.20383 0.0
H253 H 0.9438 0.53046 0.18208 0.0
H254 H 0.91971 0.54058 0.21958 0.0
H255 H 0.86257 0.53505 0.18396 0.0
H256 H 0.88654 0.52527 0.14632 0.0
H257 H 0.86469 0.56587 0.14412 0.0
H258 H 0.96401 0.69724 0.11516 0.0
H259 H 0.99112 0.67022 0.0668 0.0
H260 H 0.94888 0.55079 0.11432 0.0
C261 C 0.88413 0.61038 0.21918 0.0
C262 C 0.87843 0.64622 0.23014 0.0
C263 C 0.8955 0.68266 0.2119 0.0
C264 C 0.9178 0.68339 0.18239 0.0
C265 C 0.92257 0.64738 0.17177 0.0
C266 C 0.90642 0.61156 0.18977 0.0
C267 C 0.91466 0.57698 0.17224 0.0
C268 C 0.93607 0.55436 0.19584 0.0
C269 C 0.88005 0.54917 0.161 0.0
C270 C 0.93753 0.5988 0.14123 0.0
C271 C 0.94188 0.63938 0.14147 0.0
C272 C 0.96103 0.66555 0.1149 0.0
C273 C 0.97625 0.64987 0.08747 0.0
C274 C 0.97223 0.60836 0.08675 0.0
C275 C 0.95262 0.58265 0.11414 0.0
H276 H 0.27309 0.15788 0.20901 0.0
H277 H 0.21311 0.11148 0.12127 0.0
H278 H 0.26513 0.08816 0.10013 0.0
H279 H 0.35718 0.19314 0.16393 0.0
H280 H 0.38341 0.17958 0.19876 0.0
H281 H 0.34085 0.19078 0.20827 0.0
H282 H 0.31869 0.1223 0.24274 0.0
H283 H 0.36131 0.11098 0.23354 0.0
H284 H 0.32026 0.07786 0.22213 0.0
H285 H 0.32441 0.07321 0.08666 0.0
H286 H 0.38663 0.06539 0.08278 0.0
H287 H 0.40821 0.12015 0.17983 0.0
C288 C 0.27069 0.14217 0.1857 0.0
C289 C 0.23905 0.13664 0.16671 0.0
C290 C 0.23721 0.1165 0.13601 0.0
C291 C 0.26655 0.10297 0.12388 0.0
C292 C 0.29754 0.10956 0.14282 0.0
C293 C 0.29978 0.12841 0.1732 0.0
C294 C 0.33666 0.13269 0.18801 0.0
C295 C 0.35564 0.17666 0.18984 0.0
C296 C 0.33407 0.10957 0.22372 0.0
C297 C 0.35487 0.11373 0.16098 0.0
C298 C 0.33177 0.10055 0.13518 0.0
C299 C 0.34268 0.08311 0.10685 0.0
C300 C 0.37815 0.07892 0.10483 0.0
C301 C 0.40234 0.09203 0.13103 0.0
C302 C 0.39035 0.10956 0.1595 0.0
H303 H 0.20865 0.87183 0.69435 0.0
H304 H 0.30714 0.91707 0.63219 0.0
H305 H 0.27469 0.95268 0.59079 0.0
H306 H 0.14994 0.8544 0.62437 0.0
H307 H 0.11362 0.86917 0.64602 0.0
H308 H 0.14506 0.84895 0.67102 0.0
H309 H 0.15932 0.91163 0.70545 0.0
H310 H 0.12775 0.93193 0.68068 0.0
H311 H 0.17361 0.95992 0.68233 0.0
H312 H 0.23021 0.98228 0.55583 0.0
H313 H 0.17826 0.00351 0.5307 0.0
H314 H 0.10941 0.9373 0.61618 0.0
C315 C 0.22333 0.88958 0.67214 0.0
C316 C 0.26021 0.89223 0.66626 0.0
C317 C 0.2788 0.91518 0.63697 0.0
C318 C 0.26059 0.93534 0.61342 0.0
C319 C 0.22392 0.93199 0.61974 0.0
C320 C 0.20558 0.90973 0.64849 0.0
C321 C 0.16622 0.91022 0.64924 0.0
C322 C 0.14232 0.86819 0.64755 0.0
C323 C 0.15615 0.92959 0.68132 0.0
C324 C 0.16509 0.93596 0.61629 0.0
C325 C 0.19857 0.94844 0.59963 0.0
C326 C 0.20389 0.97267 0.5687 0.0
C327 C 0.17423 0.98454 0.55459 0.0
C328 C 0.13971 0.97198 0.57135 0.0
C329 C 0.13533 0.9473 0.60254 0.0
H330 H 0.78427 0.40457 0.86152 0.0
H331 H 0.71805 0.38819 0.95636 0.0
H332 H 0.77137 0.41924 0.98813 0.0
H333 H 0.8673 0.38975 0.9011 0.0
H334 H 0.89539 0.42771 0.87176 0.0
H335 H 0.85317 0.39928 0.85788 0.0
H336 H 0.83327 0.46433 0.8418 0.0
H337 H 0.87533 0.49286 0.85557 0.0
H338 H 0.83368 0.49919 0.87415 0.0
H339 H 0.83073 0.4588 0.00784 0.0
H340 H 0.89037 0.50392 0.01352 0.0
H341 H 0.91655 0.49467 0.9052 0.0
C342 C 0.78099 0.40717 0.88905 0.0
C343 C 0.74702 0.39407 0.90648 0.0
C344 C 0.74393 0.39765 0.94258 0.0
C345 C 0.77404 0.41528 0.9608 0.0
C346 C 0.807 0.42878 0.94257 0.0
C347 C 0.81062 0.42467 0.9075 0.0
C348 C 0.84814 0.44426 0.89322 0.0
C349 C 0.86712 0.4134 0.88024 0.0
C350 C 0.84754 0.47711 0.86451 0.0
C351 C 0.86481 0.46129 0.92545 0.0
C352 C 0.84093 0.45161 0.95381 0.0
C353 C 0.8498 0.4661 0.98592 0.0
C354 C 0.88372 0.49171 0.9889 0.0
C355 C 0.9081 0.50278 0.95981 0.0
C356 C 0.89863 0.48662 0.92798 0.0
H357 H 0.7453 0.59039 0.37743 0.0
H358 H 0.76206 0.71048 0.40937 0.0
H359 H 0.70779 0.68953 0.44777 0.0
H360 H 0.65096 0.57675 0.37044 0.0
H361 H 0.64093 0.52471 0.38474 0.0
H362 H 0.68349 0.548 0.363 0.0
H363 H 0.71653 0.52417 0.41504 0.0
H364 H 0.674 0.50102 0.437 0.0
H365 H 0.70678 0.53688 0.45796 0.0
H366 H 0.65044 0.65523 0.48263 0.0
H367 H 0.59191 0.61235 0.50539 0.0
H368 H 0.60989 0.51812 0.44499 0.0
C369 C 0.73769 0.61259 0.39221 0.0
C370 C 0.75867 0.65212 0.3904 0.0
C371 C 0.74742 0.67971 0.4108 0.0
C372 C 0.71635 0.66818 0.43262 0.0
C373 C 0.69635 0.62909 0.43349 0.0
C374 C 0.70636 0.60189 0.41344 0.0
C375 C 0.6788 0.56258 0.41682 0.0
C376 C 0.66259 0.55244 0.38167 0.0
C377 C 0.695 0.5292 0.43265 0.0
C378 C 0.65153 0.57205 0.44167 0.0
C379 C 0.6624 0.61025 0.45163 0.0
C380 C 0.6416 0.62532 0.47488 0.0
C381 C 0.60856 0.60084 0.48776 0.0
C382 C 0.59652 0.56229 0.47662 0.0
C383 C 0.61843 0.54773 0.45358 0.0
H384 H 0.07731 0.2652 0.11423 0.0
H385 H 0.17311 0.30666 0.17106 0.0
H386 H 0.16315 0.3746 0.16646 0.0
H387 H 0.09005 0.34547 0.05423 0.0
H388 H 0.04361 0.34749 0.05179 0.0
H389 H 0.05482 0.30122 0.06421 0.0
H390 H 0.01607 0.29399 0.12111 0.0
H391 H 0.00449 0.34023 0.10873 0.0
H392 H 0.02437 0.33347 0.14978 0.0
H393 H 0.14858 0.4386 0.14771 0.0
H394 H 0.12854 0.49471 0.11879 0.0
H395 H 0.04012 0.41242 0.07601 0.0
C396 C 0.09538 0.28848 0.12664 0.0
C397 C 0.12565 0.28112 0.14344 0.0
C398 C 0.14951 0.31203 0.15858 0.0
C399 C 0.14403 0.35057 0.15607 0.0
C400 C 0.11436 0.35734 0.13862 0.0
C401 C 0.0901 0.3271 0.12454 0.0
C402 C 0.06209 0.343 0.10476 0.0
C403 C 0.06271 0.33375 0.06649 0.0
C404 C 0.02453 0.3267 0.12214 0.0
C405 C 0.07533 0.38707 0.10857 0.0
C406 C 0.10536 0.39458 0.12846 0.0
C407 C 0.12459 0.43308 0.13285 0.0
C408 C 0.11311 0.46473 0.11621 0.0
C409 C 0.08253 0.45776 0.09568 0.0
C410 C 0.06299 0.41847 0.09238 0.0
H411 H 0.62459 0.31096 0.94374 0.0
H412 H 0.63779 0.26305 0.84528 0.0
H413 H 0.60505 0.19639 0.87012 0.0
H414 H 0.63991 0.23305 0.99642 0.0
H415 H 0.60682 0.23384 0.03006 0.0
H416 H 0.62693 0.27851 0.00349 0.0
H417 H 0.56397 0.28621 0.98597 0.0
H418 H 0.54356 0.24176 0.0129 0.0
H419 H 0.53355 0.24572 0.96771 0.0
H420 H 0.57961 0.13383 0.90826 0.0
H421 H 0.55674 0.08094 0.95515 0.0
H422 H 0.55721 0.16998 0.02791 0.0
C423 C 0.6197 0.28656 0.92722 0.0
C424 C 0.63347 0.292 0.89258 0.0
C425 C 0.62695 0.25949 0.87172 0.0
C426 C 0.60859 0.22155 0.88568 0.0
C427 C 0.59642 0.2169 0.92032 0.0
C428 C 0.60103 0.24869 0.94061 0.0
C429 C 0.58689 0.23549 0.97749 0.0
C430 C 0.61693 0.24584 0.00337 0.0
C431 C 0.55509 0.25335 0.98654 0.0
C432 C 0.57477 0.19113 0.97514 0.0
C433 C 0.58054 0.18097 0.94195 0.0
C434 C 0.57429 0.14149 0.93414 0.0
C435 C 0.56166 0.11167 0.96091 0.0
C436 C 0.55512 0.12153 0.99487 0.0
C437 C 0.5614 0.16175 1.00194 0.0
H438 H 0.8792 0.72305 0.4169 0.0
H439 H 0.88972 0.76919 0.30901 0.0
H440 H 0.93086 0.8307 0.32494 0.0
H441 H 0.87048 0.80922 0.44965 0.0
H442 H 0.89461 0.80392 0.48841 0.0
H443 H 0.87243 0.76062 0.46782 0.0
H444 H 0.93239 0.73872 0.46324 0.0
H445 H 0.9548 0.78202 0.48401 0.0
H446 H 0.97148 0.77241 0.44236 0.0
H447 H 0.9631 0.89095 0.35367 0.0
H448 H 0.98315 0.94444 0.39248 0.0
H449 H 0.94958 0.85966 0.48179 0.0
C450 C 0.89063 0.74576 0.39647 0.0
C451 C 0.88117 0.74114 0.36165 0.0
C452 C 0.89696 0.7716 0.33577 0.0
C453 C 0.92029 0.80678 0.34461 0.0
C454 C 0.92779 0.81098 0.3794 0.0
C455 C 0.9136 0.78111 0.40489 0.0
C456 C 0.92241 0.79448 0.4407 0.0
C457 C 0.88794 0.79192 0.46293 0.0
C458 C 0.94672 0.77048 0.45863 0.0
C459 C 0.94249 0.8371 0.43152 0.0
C460 C 0.94593 0.84588 0.39602 0.0
C461 C 0.96111 0.88421 0.38148 0.0
C462 C 0.97238 0.91444 0.40377 0.0
C463 C 0.96807 0.90628 0.44023 0.0
C464 C 0.9537 0.86685 0.45409 0.0
H465 H 0.38375 0.80662 0.64585 0.0
H466 H 0.43439 0.79612 0.74426 0.0
H467 H 0.46784 0.75143 0.72007 0.0
H468 H 0.36881 0.70509 0.63198 0.0
H469 H 0.37643 0.71306 0.58562 0.0
H470 H 0.36013 0.74859 0.609 0.0
H471 H 0.4137 0.80443 0.58335 0.0
H472 H 0.43027 0.76895 0.55998 0.0
H473 H 0.45896 0.79917 0.58888 0.0
H474 H 0.49304 0.70427 0.68671 0.0
H475 H 0.5047 0.65493 0.64799 0.0
H476 H 0.43472 0.69251 0.57282 0.0
C477 C 0.40193 0.79515 0.6624 0.0
C478 C 0.40665 0.80571 0.69693 0.0
C479 C 0.43092 0.78978 0.71743 0.0
C480 C 0.44997 0.76402 0.70399 0.0
C481 C 0.44437 0.75404 0.67006 0.0
C482 C 0.42076 0.76888 0.6496 0.0
C483 C 0.41731 0.75084 0.61501 0.0
C484 C 0.37837 0.72804 0.61014 0.0
C485 C 0.43088 0.78276 0.58503 0.0
C486 C 0.44212 0.72296 0.61951 0.0
C487 C 0.45794 0.72575 0.65122 0.0
C488 C 0.48101 0.702 0.66171 0.0
C489 C 0.48753 0.67411 0.63949 0.0
C490 C 0.47067 0.66986 0.60735 0.0
C491 C 0.44815 0.69514 0.59713 0.0
H492 H 0.84651 0.88337 0.69962 0.0
H493 H 0.93164 0.9074 0.77286 0.0
H494 H 0.97448 0.94029 0.72534 0.0
H495 H 0.90059 0.86524 0.62764 0.0
H496 H 0.87826 0.88973 0.59549 0.0
H497 H 0.85426 0.86645 0.63501 0.0
H498 H 0.83864 0.93273 0.64759 0.0
H499 H 0.86262 0.95622 0.60814 0.0
H500 H 0.8743 0.97684 0.6489 0.0
H501 H 0.0079 0.9713 0.67082 0.0
H502 H 0.03025 0.99943 0.61225 0.0
H503 H 0.92347 0.95799 0.57367 0.0
C504 C 0.87412 0.89566 0.70573 0.0
C505 C 0.88569 0.89238 0.74007 0.0
C506 C 0.92219 0.90865 0.74677 0.0
C507 C 0.94672 0.9277 0.71997 0.0
C508 C 0.93438 0.9305 0.68657 0.0
C509 C 0.89899 0.91504 0.67928 0.0
C510 C 0.89273 0.92287 0.64112 0.0
C511 C 0.88076 0.88374 0.6238 0.0
C512 C 0.86546 0.94871 0.63616 0.0
C513 C 0.93015 0.94534 0.6282 0.0
C514 C 0.9537 0.94916 0.65492 0.0
C515 C 0.98975 0.96847 0.64965 0.0
C516 C 0.0022 0.98427 0.61616 0.0
C517 C 0.97869 0.98088 0.5882 0.0
C518 C 0.94209 0.96122 0.59446 0.0
H519 H 0.64943 0.11696 0.30596 0.0
H520 H 0.67294 0.24554 0.30167 0.0
H521 H 0.64106 0.2467 0.24701 0.0
H522 H 0.66059 0.10925 0.21391 0.0
H523 H 0.62428 0.06563 0.21342 0.0
H524 H 0.64926 0.07506 0.25199 0.0
H525 H 0.59012 0.07106 0.28743 0.0
H526 H 0.56498 0.06164 0.24898 0.0
H527 H 0.56105 0.10257 0.2736 0.0
H528 H 0.60644 0.23371 0.1927 0.0
H529 H 0.5706 0.20749 0.14367 0.0
H530 H 0.56988 0.08741 0.18362 0.0
C531 C 0.64817 0.14539 0.29336 0.0
C532 C 0.66369 0.18118 0.30812 0.0
C533 C 0.66093 0.21772 0.29107 0.0
C534 C 0.64306 0.2187 0.2599 0.0
C535 C 0.62805 0.18287 0.24611 0.0
C536 C 0.63036 0.1469 0.26232 0.0
C537 C 0.61139 0.11261 0.24242 0.0
C538 C 0.63797 0.08927 0.22968 0.0
C539 C 0.58002 0.08538 0.26442 0.0
C540 C 0.598 0.13491 0.21251 0.0
C541 C 0.60797 0.17541 0.21502 0.0
C542 C 0.5985 0.20204 0.19045 0.0
C543 C 0.57814 0.18685 0.16268 0.0
C544 C 0.56737 0.1454 0.15974 0.0
C545 C 0.57766 0.11925 0.18503 0.0
H546 H 0.376 0.55986 0.3174 0.0
H547 H 0.40819 0.68817 0.31245 0.0
H548 H 0.43902 0.68436 0.36791 0.0
H549 H 0.35668 0.54424 0.40791 0.0
H550 H 0.37343 0.50003 0.41343 0.0
H551 H 0.35599 0.51303 0.3726 0.0
H552 H 0.4159 0.51138 0.3409 0.0
H553 H 0.43344 0.49809 0.38164 0.0
H554 H 0.45756 0.54109 0.35482 0.0
H555 H 0.46385 0.66593 0.42505 0.0
H556 H 0.48214 0.63491 0.47881 0.0
H557 H 0.43311 0.51828 0.44601 0.0
C558 C 0.39004 0.58705 0.32788 0.0
C559 C 0.3903 0.6243 0.31097 0.0
C560 C 0.40824 0.65943 0.32524 0.0
C561 C 0.42565 0.65749 0.35662 0.0
C562 C 0.42467 0.62016 0.37306 0.0
C563 C 0.40746 0.58557 0.35908 0.0
C564 C 0.40941 0.54925 0.38225 0.0
C565 C 0.37163 0.52524 0.39479 0.0
C566 C 0.43033 0.52344 0.3638 0.0
C567 C 0.43009 0.56873 0.41169 0.0
C568 C 0.43874 0.60961 0.40589 0.0
C569 C 0.45738 0.63395 0.42976 0.0
C570 C 0.4676 0.61601 0.46026 0.0
C571 C 0.4591 0.57412 0.46667 0.0
C572 C 0.44005 0.55035 0.44195 0.0
H573 H 0.05946 0.47702 0.77411 0.0
H574 H 0.14278 0.42149 0.81141 0.0
H575 H 0.14254 0.4538 0.86646 0.0
H576 H 0.09049 0.57179 0.81541 0.0
H577 H 0.04524 0.57545 0.82528 0.0
H578 H 0.0548 0.55141 0.78766 0.0
H579 H 0.00654 0.48822 0.80966 0.0
H580 H 0.99699 0.51195 0.84736 0.0
H581 H 0.0095 0.46513 0.85235 0.0
H582 H 0.12799 0.48548 0.9195 0.0
H583 H 0.10226 0.51663 0.96609 0.0
H584 H 0.02975 0.55397 0.89369 0.0
C585 C 0.07823 0.47262 0.79363 0.0
C586 C 0.1015 0.44739 0.78875 0.0
C587 C 0.12516 0.44125 0.81483 0.0
C588 C 0.12514 0.45942 0.84606 0.0
C589 C 0.10142 0.48374 0.8505 0.0
C590 C 0.07862 0.4907 0.82487 0.0
C591 C 0.05431 0.51616 0.83695 0.0
C592 C 0.06166 0.55608 0.81502 0.0
C593 C 0.01449 0.49404 0.83656 0.0
C594 C 0.06634 0.52165 0.87365 0.0
C595 C 0.09359 0.50277 0.88091 0.0
C596 C 0.10715 0.50101 0.91391 0.0
C597 C 0.0923 0.51868 0.94023 0.0
C598 C 0.06435 0.53816 0.93339 0.0
C599 C 0.05167 0.54012 0.89948 0.0
H600 H 0.70858 0.93205 0.82188 0.0
H601 H 0.74098 0.85006 0.8968 0.0
H602 H 0.7037 0.86983 0.94273 0.0
H603 H 0.7085 0.00954 0.87888 0.0
H604 H 0.66981 0.02268 0.8603 0.0
H605 H 0.69923 0.00213 0.83409 0.0
H606 H 0.64513 0.94632 0.81911 0.0
H607 H 0.61557 0.96674 0.84523 0.0
H608 H 0.61742 0.91565 0.85368 0.0
H609 H 0.66169 0.89872 0.97991 0.0
H610 H 0.61883 0.93342 0.00502 0.0
H611 H 0.61498 0.99636 0.90475 0.0
C612 C 0.70778 0.91839 0.84803 0.0
C613 C 0.72734 0.88968 0.85619 0.0
C614 C 0.72595 0.87218 0.8904 0.0
C615 C 0.70495 0.88325 0.91649 0.0
C616 C 0.68576 0.91182 0.90766 0.0
C617 C 0.68707 0.92911 0.8742 0.0
C618 C 0.66387 0.95874 0.87113 0.0
C619 C 0.68672 0.00076 0.86048 0.0
C620 C 0.63371 0.94609 0.84579 0.0
C621 C 0.64906 0.95542 0.90805 0.0
C622 C 0.66196 0.9283 0.92882 0.0
C623 C 0.65153 0.92007 0.96386 0.0
C624 C 0.6272 0.93995 0.97789 0.0
C625 C 0.61357 0.96769 0.9569 0.0
C626 C 0.62492 0.97547 0.92159 0.0
H627 H 0.79133 0.17258 0.40582 0.0
H628 H 0.71358 0.07684 0.36458 0.0
H629 H 0.75278 0.03117 0.37848 0.0
H630 H 0.8712 0.14363 0.37575 0.0
H631 H 0.89541 0.1577 0.41399 0.0
H632 H 0.86187 0.18306 0.39948 0.0
H633 H 0.8288 0.16616 0.45979 0.0
H634 H 0.86213 0.14061 0.47445 0.0
H635 H 0.81527 0.11514 0.47718 0.0
H636 H 0.79898 0.99522 0.39972 0.0
H637 H 0.85012 0.9722 0.42396 0.0
H638 H 0.89802 0.09163 0.4511 0.0
C639 C 0.78255 0.14201 0.39967 0.0
C640 C 0.74935 0.12826 0.38411 0.0
C641 C 0.73906 0.08815 0.37612 0.0
C642 C 0.76105 0.06194 0.38411 0.0
C643 C 0.79334 0.07637 0.3999 0.0
C644 C 0.80421 0.11554 0.40734 0.0
C645 C 0.83999 0.12347 0.42464 0.0
C646 C 0.86882 0.15376 0.40211 0.0
C647 C 0.83631 0.13714 0.46118 0.0
C648 C 0.84739 0.08251 0.42614 0.0
C649 C 0.82013 0.05577 0.41177 0.0
C650 C 0.82058 0.01595 0.41084 0.0
C651 C 0.84974 0.00315 0.42479 0.0
C652 C 0.87818 0.03009 0.4394 0.0
C653 C 0.87683 0.07031 0.44 0.0
H654 H 0.27543 0.63779 0.14373 0.0
H655 H 0.2531 0.72529 0.20966 0.0
H656 H 0.19249 0.71715 0.18594 0.0
H657 H 0.22788 0.66796 0.06857 0.0
H658 H 0.21198 0.61769 0.05709 0.0
H659 H 0.25402 0.63198 0.0781 0.0
H660 H 0.23135 0.57556 0.12667 0.0
H661 H 0.18938 0.56111 0.10576 0.0
H662 H 0.18966 0.57305 0.15029 0.0
H663 H 0.13215 0.69296 0.16042 0.0
H664 H 0.07804 0.65843 0.13128 0.0
H665 H 0.14213 0.59214 0.07768 0.0
C666 C 0.25778 0.65546 0.15275 0.0
C667 C 0.26844 0.68204 0.17841 0.0
C668 C 0.24507 0.70488 0.18985 0.0
C669 C 0.21076 0.70045 0.17655 0.0
C670 C 0.20078 0.67369 0.15138 0.0
C671 C 0.22381 0.65203 0.1392 0.0
C672 C 0.20637 0.62478 0.11252 0.0
C673 C 0.22625 0.63631 0.07696 0.0
C674 C 0.20405 0.58105 0.12454 0.0
C675 C 0.1696 0.63366 0.11229 0.0
C676 C 0.16679 0.66178 0.13501 0.0
C677 C 0.13425 0.67169 0.14188 0.0
C678 C 0.10373 0.65199 0.12532 0.0
C679 C 0.1063 0.62344 0.10179 0.0
C680 C 0.13976 0.61478 0.09476 0.0
H681 H 0.22273 0.4363 0.62439 0.0
H682 H 0.22304 0.43188 0.73671 0.0
H683 H 0.28798 0.46412 0.73321 0.0
H684 H 0.30599 0.41132 0.61208 0.0
H685 H 0.31931 0.44359 0.57309 0.0
H686 H 0.27238 0.42341 0.5843 0.0
H687 H 0.26158 0.49434 0.58159 0.0
H688 H 0.30845 0.51474 0.57005 0.0
H689 H 0.28816 0.5309 0.60712 0.0
H690 H 0.3536 0.4929 0.71735 0.0
H691 H 0.4144 0.51896 0.69055 0.0
H692 H 0.37118 0.50279 0.5885 0.0
C693 C 0.23638 0.44226 0.64829 0.0
C694 C 0.21778 0.43151 0.68086 0.0
C695 C 0.23659 0.44029 0.71148 0.0
C696 C 0.27352 0.45833 0.70974 0.0
C697 C 0.29116 0.46749 0.6772 0.0
C698 C 0.27314 0.46003 0.64703 0.0
C699 C 0.29844 0.47156 0.61536 0.0
C700 C 0.29906 0.43531 0.59502 0.0
C701 C 0.28857 0.50487 0.59217 0.0
C702 C 0.33369 0.48627 0.63241 0.0
C703 C 0.3289 0.4838 0.66809 0.0
C704 C 0.35763 0.49518 0.68945 0.0
C705 C 0.39209 0.50985 0.67394 0.0
C706 C 0.3976 0.51293 0.6374 0.0
C707 C 0.36791 0.50077 0.61648 0.0
H708 H 0.88761 0.77879 0.81847 0.0
H709 H 0.8324 0.83094 0.89517 0.0
H710 H 0.85256 0.78983 0.94161 0.0
H711 H 0.87032 0.68055 0.86049 0.0
H712 H 0.91393 0.67321 0.84875 0.0
H713 H 0.89414 0.70576 0.82147 0.0
H714 H 0.95058 0.763 0.82611 0.0
H715 H 0.97053 0.73064 0.85344 0.0
H716 H 0.96531 0.77698 0.86829 0.0
H717 H 0.87878 0.74309 0.97971 0.0
H718 H 0.90958 0.69462 0.00685 0.0
H719 H 0.95047 0.67561 0.90555 0.0
C720 C 0.87997 0.78197 0.84502 0.0
C721 C 0.85831 0.80825 0.85302 0.0
C722 C 0.84846 0.81069 0.88819 0.0
C723 C 0.86002 0.78765 0.91481 0.0
C724 C 0.88158 0.76244 0.90593 0.0
C725 C 0.89153 0.75953 0.8719 0.0
C726 C 0.91529 0.73055 0.86932 0.0
C727 C 0.89734 0.69544 0.8488 0.0
C728 C 0.95264 0.75156 0.85335 0.0
C729 C 0.91719 0.71758 0.90728 0.0
C730 C 0.8974 0.7362 0.92793 0.0
C731 C 0.89445 0.72845 0.9638 0.0
C732 C 0.91204 0.70082 0.97897 0.0
C733 C 0.93257 0.68144 0.95835 0.0
C734 C 0.93528 0.69021 0.92203 0.0
H735 H 0.39501 0.75152 0.1421 0.0
H736 H 0.39304 0.77953 0.24919 0.0
H737 H 0.4329 0.84606 0.23274 0.0
H738 H 0.49006 0.80652 0.12033 0.0
H739 H 0.47921 0.82171 0.07721 0.0
H740 H 0.45453 0.77511 0.09848 0.0
H741 H 0.39495 0.79657 0.08882 0.0
H742 H 0.41938 0.8433 0.06791 0.0
H743 H 0.38946 0.84231 0.10477 0.0
H744 H 0.46491 0.91245 0.20271 0.0
H745 H 0.49138 0.97139 0.16269 0.0
H746 H 0.4749 0.8981 0.07571 0.0
C747 C 0.40389 0.77137 0.16215 0.0
C748 C 0.39141 0.76074 0.19686 0.0
C749 C 0.40289 0.78729 0.22254 0.0
C750 C 0.42534 0.82502 0.21338 0.0
C751 C 0.43641 0.83513 0.1786 0.0
C752 C 0.42661 0.80872 0.15351 0.0
C753 C 0.44036 0.82734 0.11776 0.0
C754 C 0.46767 0.80643 0.10256 0.0
C755 C 0.40918 0.82738 0.09341 0.0
C756 C 0.45835 0.86887 0.12636 0.0
C757 C 0.45586 0.87285 0.16157 0.0
C758 C 0.46775 0.90945 0.17522 0.0
C759 C 0.48254 0.94277 0.1523 0.0
C760 C 0.48556 0.93915 0.11619 0.0
C761 C 0.47367 0.90158 0.10326 0.0
H762 H 0.09995 0.27732 0.68137 0.0
H763 H 0.14582 0.35773 0.59236 0.0
H764 H 0.13412 0.30165 0.55502 0.0
H765 H 0.13782 0.19902 0.65948 0.0
H766 H 0.09963 0.15994 0.67484 0.0
H767 H 0.1083 0.20679 0.69387 0.0
H768 H 0.04433 0.21416 0.67977 0.0
H769 H 0.03535 0.16714 0.66089 0.0
H770 H 0.02994 0.21092 0.63585 0.0
H771 H 0.12014 0.23634 0.52806 0.0
H772 H 0.10574 0.16645 0.51359 0.0
H773 H 0.07059 0.12857 0.6207 0.0
C774 C 0.10675 0.28316 0.65387 0.0
C775 C 0.12347 0.32179 0.63959 0.0
C776 C 0.13292 0.32827 0.60369 0.0
C777 C 0.1263 0.29667 0.58232 0.0
C778 C 0.11036 0.25877 0.59731 0.0
C779 C 0.10068 0.25188 0.63225 0.0
C780 C 0.08599 0.20803 0.64228 0.0
C781 C 0.10934 0.19255 0.6692 0.0
C782 C 0.04656 0.19958 0.65547 0.0
C783 C 0.0893 0.19133 0.60762 0.0
C784 C 0.1031 0.22108 0.58194 0.0
C785 C 0.10915 0.21279 0.54792 0.0
C786 C 0.10094 0.173 0.53997 0.0
C787 C 0.08712 0.14201 0.566 0.0
C788 C 0.08115 0.15152 0.60019 0.0
H789 H 0.67963 0.31692 0.46177 0.0
H790 H 0.59882 0.24428 0.40244 0.0
H791 H 0.55611 0.28536 0.4164 0.0
H792 H 0.62208 0.32812 0.52996 0.0
H793 H 0.64458 0.37874 0.53589 0.0
H794 H 0.66931 0.346 0.51855 0.0
H795 H 0.68938 0.3955 0.46438 0.0
H796 H 0.66494 0.42858 0.48176 0.0
H797 H 0.65591 0.41191 0.43917 0.0
H798 H 0.52167 0.33335 0.43972 0.0
H799 H 0.49869 0.38332 0.47014 0.0
H800 H 0.6026 0.4224 0.51493 0.0
C801 C 0.6531 0.31022 0.45128 0.0
C802 C 0.64226 0.27801 0.43088 0.0
C803 C 0.60739 0.26931 0.41791 0.0
C804 C 0.5831 0.29241 0.42572 0.0
C805 C 0.59438 0.3239 0.44646 0.0
C806 C 0.62868 0.33288 0.45888 0.0
C807 C 0.63389 0.367 0.48181 0.0
C808 C 0.64298 0.35418 0.51873 0.0
C809 C 0.66273 0.40286 0.46582 0.0
C810 C 0.59694 0.37529 0.48112 0.0
C811 C 0.57456 0.35057 0.46031 0.0
C812 C 0.53904 0.35291 0.456 0.0
C813 C 0.5262 0.38128 0.47341 0.0
C814 C 0.54874 0.40651 0.49512 0.0
C815 C 0.58453 0.40333 0.49881 0.0
loop_
_geom_bond_atom_site_label_1
_geom_bond_atom_site_label_2
_geom_bond_distance
_geom_bond_site_symmetry_2
_ccdc_geom_bond_type
H0 C3 0.929 . S
H1 C6 0.929 . S
H2 C8 0.930 . S
C3 H0 0.929 . S
C3 C4 1.398 . S
C3 C5 1.396 . S
C4 C3 1.398 . S
C4 C8 1.407 . S
C5 C3 1.396 . S
C5 C6 1.394 . S
C6 H1 0.929 . S
C6 C5 1.394 . S
C6 C7 1.382 . S
C7 C6 1.382 . S
C7 C8 1.392 . S
C7 N9 1.420 . S
C8 H2 0.930 . S
C8 C4 1.407 . S
C8 C7 1.392 . S
N9 C7 1.420 . S
N9 C10 1.244 . S
C10 N9 1.244 . S
H11 C14 0.929 . S
H12 C17 0.929 . S
H13 C19 0.930 . S
C14 H11 0.929 . S
C14 C15 1.398 . S
C14 C16 1.396 . S
C15 C14 1.398 . S
C15 C19 1.407 . S
C16 C14 1.396 . S
C16 C17 1.394 . S
C17 H12 0.929 . S
C17 C16 1.394 . S
C17 C18 1.382 . S
C18 C17 1.382 . S
C18 C19 1.392 . S
C18 N20 1.420 . S
C19 H13 0.930 . S
C19 C15 1.407 . S
C19 C18 1.392 . S
N20 C18 1.420 . S
N20 C21 1.244 . S
C21 N20 1.244 . S
H22 C25 0.929 . S
H23 C28 0.929 . S
H24 C30 0.930 . S
C25 H22 0.929 . S
C25 C26 1.398 . S
C25 C27 1.396 . S
C26 C25 1.398 . S
C26 C30 1.407 . S
C27 C25 1.396 . S
C27 C28 1.394 . S
C28 H23 0.929 . S
C28 C27 1.394 . S
C28 C29 1.382 . S
C29 C28 1.382 . S
C29 C30 1.392 . S
C29 N31 1.420 . S
C30 H24 0.930 . S
C30 C26 1.407 . S
C30 C29 1.392 . S
N31 C29 1.420 . S
N31 C32 1.244 . S
C32 N31 1.244 . S
H33 C36 0.929 . S
H34 C39 0.929 . S
H35 C41 0.930 . S
C36 H33 0.929 . S
C36 C37 1.398 . S
C36 C38 1.396 . S
C37 C36 1.398 . S
C37 C41 1.407 . S
C38 C36 1.396 . S
C38 C39 1.394 . S
C39 H34 0.929 . S
C39 C38 1.394 . S
C39 C40 1.382 . S
C40 C39 1.382 . S
C40 C41 1.392 . S
C40 N42 1.420 . S
C41 H35 0.930 . S
C41 C37 1.407 . S
C41 C40 1.392 . S
N42 C40 1.420 . S
N42 C43 1.244 . S
C43 N42 1.244 . S
H44 C47 0.929 . S
H45 C50 0.929 . S
H46 C52 0.930 . S
C47 H44 0.929 . S
C47 C48 1.398 . S
C47 C49 1.396 . S
C48 C47 1.398 . S
C48 C52 1.407 . S
C49 C47 1.396 . S
C49 C50 1.394 . S
C50 H45 0.929 . S
C50 C49 1.394 . S
C50 C51 1.382 . S
C51 C50 1.382 . S
C51 C52 1.392 . S
C51 N53 1.420 . S
C52 H46 0.930 . S
C52 C48 1.407 . S
C52 C51 1.392 . S
N53 C51 1.420 . S
N53 C54 1.244 . S
C54 N53 1.244 . S
H55 C58 0.929 . S
H56 C61 0.929 . S
H57 C63 0.930 . S
C58 H55 0.929 . S
C58 C59 1.398 . S
C58 C60 1.396 . S
C59 C58 1.398 . S
C59 C63 1.407 . S
C60 C58 1.396 . S
C60 C61 1.394 . S
C61 H56 0.929 . S
C61 C60 1.394 . S
C61 C62 1.382 . S
C62 C61 1.382 . S
C62 C63 1.392 . S
C62 N64 1.420 . S
C63 H57 0.930 . S
C63 C59 1.407 . S
C63 C62 1.392 . S
N64 C62 1.420 . S
N64 C65 1.244 . S
C65 N64 1.244 . S
H66 C69 0.929 . S
H67 C72 0.929 . S
H68 C74 0.930 . S
C69 H66 0.929 . S
C69 C70 1.398 . S
C69 C71 1.396 . S
C70 C69 1.398 . S
C70 C74 1.407 . S
C71 C69 1.396 . S
C71 C72 1.394 . S
C72 H67 0.929 . S
C72 C71 1.394 . S
C72 C73 1.382 . S
C73 C72 1.382 . S
C73 C74 1.392 . S
C73 N75 1.420 . S
C74 H68 0.930 . S
C74 C70 1.407 . S
C74 C73 1.392 . S
N75 C73 1.420 . S
N75 C76 1.244 . S
C76 N75 1.244 . S
H77 C80 0.929 . S
H78 C83 0.929 . S
H79 C85 0.930 . S
C80 H77 0.929 . S
C80 C81 1.398 . S
C80 C82 1.396 . S
C81 C80 1.398 . S
C81 C85 1.407 . S
C82 C80 1.396 . S
C82 C83 1.394 . S
C83 H78 0.929 . S
C83 C82 1.394 . S
C83 C84 1.382 . S
C84 C83 1.382 . S
C84 C85 1.392 . S
C84 N86 1.420 . S
C85 H79 0.930 . S
C85 C81 1.407 . S
C85 C84 1.392 . S
N86 C84 1.420 . S
N86 C87 1.244 . S
C87 N86 1.244 . S
Zn88 O94 1.987 . S
Zn88 O95 1.965 1_545 S
Zn88 O99 2.024 . S
Zn88 O104 1.969 . S
Zn89 O96 1.969 1_545 S
Zn89 O102 1.969 . S
Zn89 O103 1.965 1_655 S
Zn89 O105 2.024 1_545 S
C90 O91 1.229 . S
C90 O99 1.058 . S
O91 C90 1.229 . S
C92 O93 1.229 . S
C92 O105 1.058 . S
O93 C92 1.229 . S
O94 Zn88 1.987 . S
O94 C97 1.260 1_545 S
O95 Zn88 1.965 1_565 S
O95 C106 1.260 1_455 S
O96 Zn89 1.969 1_565 S
O96 C106 1.258 . S
C97 O94 1.260 1_565 S
C97 O98 1.228 . S
O98 C97 1.228 . S
O99 Zn88 2.024 . S
O99 C90 1.058 . S
C100 O101 1.228 . S
C100 O102 1.267 . S
O101 C100 1.228 . S
O102 Zn89 1.969 . S
O102 C100 1.267 . S
O103 Zn89 1.965 1_455 S
O103 C107 1.260 . S
O104 Zn88 1.969 . S
O104 C107 1.258 . S
O105 Zn89 2.024 1_565 S
O105 C92 1.058 . S
C106 O95 1.260 1_655 S
C106 O96 1.258 . S
C107 O103 1.260 . S
C107 O104 1.258 . S
Zn108 O114 1.969 . S
Zn108 O115 1.961 1_566 S
Zn108 O119 2.030 . S
Zn108 O124 1.963 1_556 S
Zn109 O116 1.969 . S
Zn109 O122 1.969 . S
Zn109 O123 1.954 1_545 S
Zn109 O125 2.024 . S
C110 O111 1.229 . S
C110 O119 1.058 . S
O111 C110 1.229 . S
C112 O113 1.229 . S
C112 O125 1.058 . S
O113 C112 1.229 . S
O114 Zn108 1.969 . S
O114 C117 1.267 . S
O115 Zn108 1.961 1_544 S
O115 C126 1.260 . S
O116 Zn109 1.969 . S
O116 C126 1.258 . S
C117 O114 1.267 . S
C117 O118 1.228 . S
O118 C117 1.228 . S
O119 Zn108 2.030 . S
O119 C110 1.058 . S
C120 O121 1.228 . S
C120 O122 1.267 . S
O121 C120 1.228 . S
O122 Zn109 1.969 . S
O122 C120 1.267 . S
O123 Zn109 1.954 1_565 S
O123 C127 1.272 . S
O124 Zn108 1.963 1_554 S
O124 C127 1.258 . S
O125 Zn109 2.024 . S
O125 C112 1.058 . S
C126 O115 1.260 . S
C126 O116 1.258 . S
C127 O123 1.272 . S
C127 O124 1.258 . S
Zn128 O134 1.969 . S
Zn128 O135 1.965 . S
Zn128 O139 2.024 . S
Zn128 O144 1.969 . S
Zn129 O136 1.969 . S
Zn129 O142 1.969 . S
Zn129 O143 1.965 . S
Zn129 O145 2.024 . S
C130 O131 1.229 . S
C130 O139 1.058 . S
O131 C130 1.229 . S
C132 O133 1.229 . S
C132 O145 1.058 . S
O133 C132 1.229 . S
O134 Zn128 1.969 . S
O134 C137 1.267 . S
O135 Zn128 1.965 . S
O135 C146 1.260 . S
O136 Zn129 1.969 . S
O136 C146 1.258 . S
C137 O134 1.267 . S
C137 O138 1.228 . S
O138 C137 1.228 . S
O139 Zn128 2.024 . S
O139 C130 1.058 . S
C140 O141 1.228 . S
C140 O142 1.267 . S
O141 C140 1.228 . S
O142 Zn129 1.969 . S
O142 C140 1.267 . S
O143 Zn129 1.965 . S
O143 C147 1.260 . S
O144 Zn128 1.969 . S
O144 C147 1.258 . S
O145 Zn129 2.024 . S
O145 C132 1.058 . S
C146 O135 1.260 . S
C146 O136 1.258 . S
C147 O143 1.260 . S
C147 O144 1.258 . S
Zn148 O154 1.969 . S
Zn148 O155 1.965 1_556 S
Zn148 O159 2.024 . S
Zn148 O164 1.969 1_655 S
Zn149 O156 1.969 . S
Zn149 O162 1.969 . S
Zn149 O163 1.965 1_554 S
Zn149 O165 2.024 . S
C150 O151 1.229 . S
C150 O159 1.058 . S
O151 C150 1.229 . S
C152 O153 1.229 . S
C152 O165 1.058 . S
O153 C152 1.229 . S
O154 Zn148 1.969 . S
O154 C157 1.267 . S
O155 Zn148 1.965 1_554 S
O155 C166 1.260 . S
O156 Zn149 1.969 . S
O156 C166 1.258 1_455 S
C157 O154 1.267 . S
C157 O158 1.228 . S
O158 C157 1.228 . S
O159 Zn148 2.024 . S
O159 C150 1.058 . S
C160 O161 1.228 . S
C160 O162 1.267 . S
O161 C160 1.228 . S
O162 Zn149 1.969 . S
O162 C160 1.267 . S
O163 Zn149 1.965 1_556 S
O163 C167 1.260 . S
O164 Zn148 1.969 1_455 S
O164 C167 1.258 . S
O165 Zn149 2.024 . S
O165 C152 1.058 . S
C166 O155 1.260 . S
C166 O156 1.258 1_655 S
C167 O163 1.260 . S
C167 O164 1.258 . S
H168 C180 0.930 . S
H169 C182 0.930 . S
H170 C183 0.930 . S
H171 C187 0.959 . S
H172 C187 0.959 . S
H173 C187 0.961 . S
H174 C188 0.960 . S
H175 C188 0.961 . S
H176 C188 0.959 . S
H177 C191 0.929 . S
H178 C192 0.931 . S
H179 C194 0.930 . S
C180 H168 0.930 . S
C180 C181 1.399 . S
C180 C185 1.399 . S
C181 C180 1.399 . S
C181 C182 1.376 . S
C182 H169 0.930 . S
C182 C181 1.376 . S
C182 C183 1.388 . S
C183 H170 0.930 . S
C183 C182 1.388 . S
C183 C184 1.390 . S
C184 C183 1.390 . S
C184 C185 1.394 . S
C184 C190 1.465 . S
C185 C180 1.399 . S
C185 C184 1.394 . S
C185 C186 1.516 . S
C186 C185 1.516 . S
C186 C187 1.502 . S
C186 C188 1.561 . S
C186 C189 1.526 . S
C187 H171 0.959 . S
C187 H172 0.959 . S
C187 H173 0.961 . S
C187 C186 1.502 . S
C188 H174 0.960 . S
C188 H175 0.961 . S
C188 H176 0.959 . S
C188 C186 1.561 . S
C189 C186 1.526 . S
C189 C190 1.396 . S
C189 C194 1.390 . S
C190 C184 1.465 . S
C190 C189 1.396 . S
C190 C191 1.399 . S
C191 H177 0.929 . S
C191 C190 1.399 . S
C191 C192 1.385 . S
C192 H178 0.931 . S
C192 C191 1.385 . S
C192 C193 1.389 . S
C193 C192 1.389 . S
C193 C194 1.387 . S
C194 H179 0.930 . S
C194 C189 1.390 . S
C194 C193 1.387 . S
H195 C207 0.930 . S
H196 C209 0.930 . S
H197 C210 0.930 . S
H198 C214 0.959 . S
H199 C214 0.959 . S
H200 C214 0.961 . S
H201 C215 0.960 . S
H202 C215 0.961 . S
H203 C215 0.959 . S
H204 C218 0.929 1_545 S
H205 C219 0.931 1_545 S
H206 C221 0.930 . S
C207 H195 0.930 . S
C207 C208 1.399 . S
C207 C212 1.399 . S
C208 C207 1.399 . S
C208 C209 1.376 . S
C209 H196 0.930 . S
C209 C208 1.376 . S
C209 C210 1.388 . S
C210 H197 0.930 . S
C210 C209 1.388 . S
C210 C211 1.390 . S
C211 C210 1.390 . S
C211 C212 1.394 . S
C211 C217 1.465 . S
C212 C207 1.399 . S
C212 C211 1.394 . S
C212 C213 1.516 . S
C213 C212 1.516 . S
C213 C214 1.502 . S
C213 C215 1.561 . S
C213 C216 1.526 . S
C214 H198 0.959 . S
C214 H199 0.959 . S
C214 H200 0.961 . S
C214 C213 1.502 . S
C215 H201 0.960 . S
C215 H202 0.961 . S
C215 H203 0.959 . S
C215 C213 1.561 . S
C216 C213 1.526 . S
C216 C217 1.396 . S
C216 C221 1.390 . S
C217 C211 1.465 . S
C217 C216 1.396 . S
C217 C218 1.399 . S
C218 H204 0.929 1_565 S
C218 C217 1.399 . S
C218 C219 1.385 . S
C219 H205 0.931 1_565 S
C219 C218 1.385 . S
C219 C220 1.389 . S
C220 C219 1.389 . S
C220 C221 1.387 . S
C221 H206 0.930 . S
C221 C216 1.390 . S
C221 C220 1.387 . S
H222 C234 0.930 . S
H223 C236 0.930 . S
H224 C237 0.930 . S
H225 C241 0.959 . S
H226 C241 0.959 . S
H227 C241 0.961 . S
H228 C242 0.960 . S
H229 C242 0.961 . S
H230 C242 0.959 . S
H231 C245 0.929 . S
H232 C246 0.931 . S
H233 C248 0.930 . S
C234 H222 0.930 . S
C234 C235 1.399 . S
C234 C239 1.399 . S
C235 C234 1.399 . S
C235 C236 1.376 . S
C236 H223 0.930 . S
C236 C235 1.376 . S
C236 C237 1.388 . S
C237 H224 0.930 . S
C237 C236 1.388 . S
C237 C238 1.390 . S
C238 C237 1.390 . S
C238 C239 1.394 . S
C238 C244 1.465 . S
C239 C234 1.399 . S
C239 C238 1.394 . S
C239 C240 1.516 . S
C240 C239 1.516 . S
C240 C241 1.502 . S
C240 C242 1.561 . S
C240 C243 1.526 . S
C241 H225 0.959 . S
C241 H226 0.959 . S
C241 H227 0.961 . S
C241 C240 1.502 . S
C242 H228 0.960 . S
C242 H229 0.961 . S
C242 H230 0.959 . S
C242 C240 1.561 . S
C243 C240 1.526 . S
C243 C244 1.396 . S
C243 C248 1.390 . S
C244 C238 1.465 . S
C244 C243 1.396 . S
C244 C245 1.399 . S
C245 H231 0.929 . S
C245 C244 1.399 . S
C245 C246 1.385 . S
C246 H232 0.931 . S
C246 C245 1.385 . S
C246 C247 1.389 . S
C247 C246 1.389 . S
C247 C248 1.387 . S
C248 H233 0.930 . S
C248 C243 1.390 . S
C248 C247 1.387 . S
H249 C261 0.930 . S
H250 C263 0.930 . S
H251 C264 0.930 . S
H252 C268 0.959 . S
H253 C268 0.959 . S
H254 C268 0.961 . S
H255 C269 0.960 . S
H256 C269 0.961 . S
H257 C269 0.959 . S
H258 C272 0.929 . S
H259 C273 0.931 1_455 S
H260 C275 0.930 . S
C261 H249 0.930 . S
C261 C262 1.399 . S
C261 C266 1.399 . S
C262 C261 1.399 . S
C262 C263 1.376 . S
C263 H250 0.930 . S
C263 C262 1.376 . S
C263 C264 1.388 . S
C264 H251 0.930 . S
C264 C263 1.388 . S
C264 C265 1.390 . S
C265 C264 1.390 . S
C265 C266 1.394 . S
C265 C271 1.465 . S
C266 C261 1.399 . S
C266 C265 1.394 . S
C266 C267 1.516 . S
C267 C266 1.516 . S
C267 C268 1.502 . S
C267 C269 1.561 . S
C267 C270 1.526 . S
C268 H252 0.959 . S
C268 H253 0.959 . S
C268 H254 0.961 . S
C268 C267 1.502 . S
C269 H255 0.960 . S
C269 H256 0.961 . S
C269 H257 0.959 . S
C269 C267 1.561 . S
C270 C267 1.526 . S
C270 C271 1.396 . S
C270 C275 1.390 . S
C271 C265 1.465 . S
C271 C270 1.396 . S
C271 C272 1.399 . S
C272 H258 0.929 . S
C272 C271 1.399 . S
C272 C273 1.385 . S
C273 H259 0.931 1_655 S
C273 C272 1.385 . S
C273 C274 1.389 . S
C274 C273 1.389 . S
C274 C275 1.387 . S
C275 H260 0.930 . S
C275 C270 1.390 . S
C275 C274 1.387 . S
H276 C288 0.930 . S
H277 C290 0.930 . S
H278 C291 0.930 . S
H279 C295 0.959 . S
H280 C295 0.959 . S
H281 C295 0.961 . S
H282 C296 0.960 . S
H283 C296 0.961 . S
H284 C296 0.959 . S
H285 C299 0.929 . S
H286 C300 0.931 . S
H287 C302 0.930 . S
C288 H276 0.930 . S
C288 C289 1.399 . S
C288 C293 1.399 . S
C289 C288 1.399 . S
C289 C290 1.376 . S
C290 H277 0.930 . S
C290 C289 1.376 . S
C290 C291 1.388 . S
C291 H278 0.930 . S
C291 C290 1.388 . S
C291 C292 1.390 . S
C292 C291 1.390 . S
C292 C293 1.394 . S
C292 C298 1.465 . S
C293 C288 1.399 . S
C293 C292 1.394 . S
C293 C294 1.516 . S
C294 C293 1.516 . S
C294 C295 1.502 . S
C294 C296 1.561 . S
C294 C297 1.526 . S
C295 H279 0.959 . S
C295 H280 0.959 . S
C295 H281 0.961 . S
C295 C294 1.502 . S
C296 H282 0.960 . S
C296 H283 0.961 . S
C296 H284 0.959 . S
C296 C294 1.561 . S
C297 C294 1.526 . S
C297 C298 1.396 . S
C297 C302 1.390 . S
C298 C292 1.465 . S
C298 C297 1.396 . S
C298 C299 1.399 . S
C299 H285 0.929 . S
C299 C298 1.399 . S
C299 C300 1.385 . S
C300 H286 0.931 . S
C300 C299 1.385 . S
C300 C301 1.389 . S
C301 C300 1.389 . S
C301 C302 1.387 . S
C302 H287 0.930 . S
C302 C297 1.390 . S
C302 C301 1.387 . S
H303 C315 0.930 . S
H304 C317 0.930 . S
H305 C318 0.930 . S
H306 C322 0.959 . S
H307 C322 0.959 . S
H308 C322 0.961 . S
H309 C323 0.960 . S
H310 C323 0.961 . S
H311 C323 0.959 . S
H312 C326 0.929 . S
H313 C327 0.931 . S
H314 C329 0.930 . S
C315 H303 0.930 . S
C315 C316 1.399 . S
C315 C320 1.399 . S
C316 C315 1.399 . S
C316 C317 1.376 . S
C317 H304 0.930 . S
C317 C316 1.376 . S
C317 C318 1.388 . S
C318 H305 0.930 . S
C318 C317 1.388 . S
C318 C319 1.390 . S
C319 C318 1.390 . S
C319 C320 1.394 . S
C319 C325 1.465 . S
C320 C315 1.399 . S
C320 C319 1.394 . S
C320 C321 1.516 . S
C321 C320 1.516 . S
C321 C322 1.502 . S
C321 C323 1.561 . S
C321 C324 1.526 . S
C322 H306 0.959 . S
C322 H307 0.959 . S
C322 H308 0.961 . S
C322 C321 1.502 . S
C323 H309 0.960 . S
C323 H310 0.961 . S
C323 H311 0.959 . S
C323 C321 1.561 . S
C324 C321 1.526 . S
C324 C325 1.396 . S
C324 C329 1.390 . S
C325 C319 1.465 . S
C325 C324 1.396 . S
C325 C326 1.399 . S
C326 H312 0.929 . S
C326 C325 1.399 . S
C326 C327 1.385 . S
C327 H313 0.931 . S
C327 C326 1.385 . S
C327 C328 1.389 . S
C328 C327 1.389 . S
C328 C329 1.387 . S
C329 H314 0.930 . S
C329 C324 1.390 . S
C329 C328 1.387 . S
H330 C342 0.930 . S
H331 C344 0.930 . S
H332 C345 0.930 . S
H333 C349 0.959 . S
H334 C349 0.959 . S
H335 C349 0.961 . S
H336 C350 0.960 . S
H337 C350 0.961 . S
H338 C350 0.959 . S
H339 C353 0.929 . S
H340 C354 0.931 . S
H341 C356 0.930 . S
C342 H330 0.930 . S
C342 C343 1.399 . S
C342 C347 1.399 . S
C343 C342 1.399 . S
C343 C344 1.376 . S
C344 H331 0.930 . S
C344 C343 1.376 . S
C344 C345 1.388 . S
C345 H332 0.930 . S
C345 C344 1.388 . S
C345 C346 1.390 . S
C346 C345 1.390 . S
C346 C347 1.394 . S
C346 C352 1.465 . S
C347 C342 1.399 . S
C347 C346 1.394 . S
C347 C348 1.516 . S
C348 C347 1.516 . S
C348 C349 1.502 . S
C348 C350 1.561 . S
C348 C351 1.526 . S
C349 H333 0.959 . S
C349 H334 0.959 . S
C349 H335 0.961 . S
C349 C348 1.502 . S
C350 H336 0.960 . S
C350 H337 0.961 . S
C350 H338 0.959 . S
C350 C348 1.561 . S
C351 C348 1.526 . S
C351 C352 1.396 . S
C351 C356 1.390 . S
C352 C346 1.465 . S
C352 C351 1.396 . S
C352 C353 1.399 . S
C353 H339 0.929 . S
C353 C352 1.399 . S
C353 C354 1.385 . S
C354 H340 0.931 . S
C354 C353 1.385 . S
C354 C355 1.389 . S
C355 C354 1.389 . S
C355 C356 1.387 . S
C356 H341 0.930 . S
C356 C351 1.390 . S
C356 C355 1.387 . S
H357 C369 0.930 . S
H358 C371 0.930 . S
H359 C372 0.930 . S
H360 C376 0.959 . S
H361 C376 0.959 . S
H362 C376 0.961 . S
H363 C377 0.960 . S
H364 C377 0.961 . S
H365 C377 0.959 . S
H366 C380 0.929 . S
H367 C381 0.931 . S
H368 C383 0.930 . S
C369 H357 0.930 . S
C369 C370 1.399 . S
C369 C374 1.399 . S
C370 C369 1.399 . S
C370 C371 1.376 . S
C371 H358 0.930 . S
C371 C370 1.376 . S
C371 C372 1.388 . S
C372 H359 0.930 . S
C372 C371 1.388 . S
C372 C373 1.390 . S
C373 C372 1.390 . S
C373 C374 1.394 . S
C373 C379 1.465 . S
C374 C369 1.399 . S
C374 C373 1.394 . S
C374 C375 1.516 . S
C375 C374 1.516 . S
C375 C376 1.502 . S
C375 C377 1.561 . S
C375 C378 1.526 . S
C376 H360 0.959 . S
C376 H361 0.959 . S
C376 H362 0.961 . S
C376 C375 1.502 . S
C377 H363 0.960 . S
C377 H364 0.961 . S
C377 H365 0.959 . S
C377 C375 1.561 . S
C378 C375 1.526 . S
C378 C379 1.396 . S
C378 C383 1.390 . S
C379 C373 1.465 . S
C379 C378 1.396 . S
C379 C380 1.399 . S
C380 H366 0.929 . S
C380 C379 1.399 . S
C380 C381 1.385 . S
C381 H367 0.931 . S
C381 C380 1.385 . S
C381 C382 1.389 . S
C382 C381 1.389 . S
C382 C383 1.387 . S
C383 H368 0.930 . S
C383 C378 1.390 . S
C383 C382 1.387 . S
H384 C396 0.930 . S
H385 C398 0.930 . S
H386 C399 0.930 . S
H387 C403 0.959 . S
H388 C403 0.959 . S
H389 C403 0.961 . S
H390 C404 0.960 . S
H391 C404 0.961 . S
H392 C404 0.959 . S
H393 C407 0.929 . S
H394 C408 0.931 . S
H395 C410 0.930 . S
C396 H384 0.930 . S
C396 C397 1.399 . S
C396 C401 1.399 . S
C397 C396 1.399 . S
C397 C398 1.376 . S
C398 H385 0.930 . S
C398 C397 1.376 . S
C398 C399 1.388 . S
C399 H386 0.930 . S
C399 C398 1.388 . S
C399 C400 1.390 . S
C400 C399 1.390 . S
C400 C401 1.394 . S
C400 C406 1.465 . S
C401 C396 1.399 . S
C401 C400 1.394 . S
C401 C402 1.516 . S
C402 C401 1.516 . S
C402 C403 1.502 . S
C402 C404 1.561 . S
C402 C405 1.526 . S
C403 H387 0.959 . S
C403 H388 0.959 . S
C403 H389 0.961 . S
C403 C402 1.502 . S
C404 H390 0.960 . S
C404 H391 0.961 . S
C404 H392 0.959 . S
C404 C402 1.561 . S
C405 C402 1.526 . S
C405 C406 1.396 . S
C405 C410 1.390 . S
C406 C400 1.465 . S
C406 C405 1.396 . S
C406 C407 1.399 . S
C407 H393 0.929 . S
C407 C406 1.399 . S
C407 C408 1.385 . S
C408 H394 0.931 . S
C408 C407 1.385 . S
C408 C409 1.389 . S
C409 C408 1.389 . S
C409 C410 1.387 . S
C410 H395 0.930 . S
C410 C405 1.390 . S
C410 C409 1.387 . S
H411 C423 0.930 . S
H412 C425 0.930 . S
H413 C426 0.930 . S
H414 C430 0.959 . S
H415 C430 0.959 1_554 S
H416 C430 0.961 . S
H417 C431 0.960 . S
H418 C431 0.961 1_554 S
H419 C431 0.959 . S
H420 C434 0.929 . S
H421 C435 0.931 . S
H422 C437 0.930 1_554 S
C423 H411 0.930 . S
C423 C424 1.399 . S
C423 C428 1.399 . S
C424 C423 1.399 . S
C424 C425 1.376 . S
C425 H412 0.930 . S
C425 C424 1.376 . S
C425 C426 1.388 . S
C426 H413 0.930 . S
C426 C425 1.388 . S
C426 C427 1.390 . S
C427 C426 1.390 . S
C427 C428 1.394 . S
C427 C433 1.465 . S
C428 C423 1.399 . S
C428 C427 1.394 . S
C428 C429 1.516 . S
C429 C428 1.516 . S
C429 C430 1.502 . S
C429 C431 1.561 . S
C429 C432 1.526 . S
C430 H414 0.959 . S
C430 H415 0.959 1_556 S
C430 H416 0.961 . S
C430 C429 1.502 . S
C431 H417 0.960 . S
C431 H418 0.961 1_556 S
C431 H419 0.959 . S
C431 C429 1.561 . S
C432 C429 1.526 . S
C432 C433 1.396 . S
C432 C437 1.390 . S
C433 C427 1.465 . S
C433 C432 1.396 . S
C433 C434 1.399 . S
C434 H420 0.929 . S
C434 C433 1.399 . S
C434 C435 1.385 . S
C435 H421 0.931 . S
C435 C434 1.385 . S
C435 C436 1.389 . S
C436 C435 1.389 . S
C436 C437 1.387 . S
C437 H422 0.930 1_556 S
C437 C432 1.390 . S
C437 C436 1.387 . S
H438 C450 0.930 . S
H439 C452 0.930 . S
H440 C453 0.930 . S
H441 C457 0.959 . S
H442 C457 0.959 . S
H443 C457 0.961 . S
H444 C458 0.960 . S
H445 C458 0.961 . S
H446 C458 0.959 . S
H447 C461 0.929 . S
H448 C462 0.931 . S
H449 C464 0.930 . S
C450 H438 0.930 . S
C450 C451 1.399 . S
C450 C455 1.399 . S
C451 C450 1.399 . S
C451 C452 1.376 . S
C452 H439 0.930 . S
C452 C451 1.376 . S
C452 C453 1.388 . S
C453 H440 0.930 . S
C453 C452 1.388 . S
C453 C454 1.390 . S
C454 C453 1.390 . S
C454 C455 1.394 . S
C454 C460 1.465 . S
C455 C450 1.399 . S
C455 C454 1.394 . S
C455 C456 1.516 . S
C456 C455 1.516 . S
C456 C457 1.502 . S
C456 C458 1.561 . S
C456 C459 1.526 . S
C457 H441 0.959 . S
C457 H442 0.959 . S
C457 H443 0.961 . S
C457 C456 1.502 . S
C458 H444 0.960 . S
C458 H445 0.961 . S
C458 H446 0.959 . S
C458 C456 1.561 . S
C459 C456 1.526 . S
C459 C460 1.396 . S
C459 C464 1.390 . S
C460 C454 1.465 . S
C460 C459 1.396 . S
C460 C461 1.399 . S
C461 H447 0.929 . S
C461 C460 1.399 . S
C461 C462 1.385 . S
C462 H448 0.931 . S
C462 C461 1.385 . S
C462 C463 1.389 . S
C463 C462 1.389 . S
C463 C464 1.387 . S
C464 H449 0.930 . S
C464 C459 1.390 . S
C464 C463 1.387 . S
H465 C477 0.930 . S
H466 C479 0.930 . S
H467 C480 0.930 . S
H468 C484 0.959 . S
H469 C484 0.959 . S
H470 C484 0.961 . S
H471 C485 0.960 . S
H472 C485 0.961 . S
H473 C485 0.959 . S
H474 C488 0.929 . S
H475 C489 0.931 . S
H476 C491 0.930 . S
C477 H465 0.930 . S
C477 C478 1.399 . S
C477 C482 1.399 . S
C478 C477 1.399 . S
C478 C479 1.376 . S
C479 H466 0.930 . S
C479 C478 1.376 . S
C479 C480 1.388 . S
C480 H467 0.930 . S
C480 C479 1.388 . S
C480 C481 1.390 . S
C481 C480 1.390 . S
C481 C482 1.394 . S
C481 C487 1.465 . S
C482 C477 1.399 . S
C482 C481 1.394 . S
C482 C483 1.516 . S
C483 C482 1.516 . S
C483 C484 1.502 . S
C483 C485 1.561 . S
C483 C486 1.526 . S
C484 H468 0.959 . S
C484 H469 0.959 . S
C484 H470 0.961 . S
C484 C483 1.502 . S
C485 H471 0.960 . S
C485 H472 0.961 . S
C485 H473 0.959 . S
C485 C483 1.561 . S
C486 C483 1.526 . S
C486 C487 1.396 . S
C486 C491 1.390 . S
C487 C481 1.465 . S
C487 C486 1.396 . S
C487 C488 1.399 . S
C488 H474 0.929 . S
C488 C487 1.399 . S
C488 C489 1.385 . S
C489 H475 0.931 . S
C489 C488 1.385 . S
C489 C490 1.389 . S
C490 C489 1.389 . S
C490 C491 1.387 . S
C491 H476 0.930 . S
C491 C486 1.390 . S
C491 C490 1.387 . S
H492 C504 0.930 . S
H493 C506 0.930 . S
H494 C507 0.930 . S
H495 C511 0.959 . S
H496 C511 0.959 . S
H497 C511 0.961 . S
H498 C512 0.960 . S
H499 C512 0.961 . S
H500 C512 0.959 . S
H501 C515 0.929 . S
H502 C516 0.931 1_545 S
H503 C518 0.930 . S
C504 H492 0.930 . S
C504 C505 1.399 . S
C504 C509 1.399 . S
C505 C504 1.399 . S
C505 C506 1.376 . S
C506 H493 0.930 . S
C506 C505 1.376 . S
C506 C507 1.388 . S
C507 H494 0.930 . S
C507 C506 1.388 . S
C507 C508 1.390 . S
C508 C507 1.390 . S
C508 C509 1.394 . S
C508 C514 1.465 . S
C509 C504 1.399 . S
C509 C508 1.394 . S
C509 C510 1.516 . S
C510 C509 1.516 . S
C510 C511 1.502 . S
C510 C512 1.561 . S
C510 C513 1.526 . S
C511 H495 0.959 . S
C511 H496 0.959 . S
C511 H497 0.961 . S
C511 C510 1.502 . S
C512 H498 0.960 . S
C512 H499 0.961 . S
C512 H500 0.959 . S
C512 C510 1.561 . S
C513 C510 1.526 . S
C513 C514 1.396 . S
C513 C518 1.390 . S
C514 C508 1.465 . S
C514 C513 1.396 . S
C514 C515 1.399 . S
C515 H501 0.929 . S
C515 C514 1.399 . S
C515 C516 1.385 . S
C516 H502 0.931 1_565 S
C516 C515 1.385 . S
C516 C517 1.389 . S
C517 C516 1.389 . S
C517 C518 1.387 . S
C518 H503 0.930 . S
C518 C513 1.390 . S
C518 C517 1.387 . S
H519 C531 0.930 . S
H520 C533 0.930 . S
H521 C534 0.930 . S
H522 C538 0.959 . S
H523 C538 0.959 . S
H524 C538 0.961 . S
H525 C539 0.960 . S
H526 C539 0.961 . S
H527 C539 0.959 . S
H528 C542 0.929 . S
H529 C543 0.931 . S
H530 C545 0.930 . S
C531 H519 0.930 . S
C531 C532 1.399 . S
C531 C536 1.399 . S
C532 C531 1.399 . S
C532 C533 1.376 . S
C533 H520 0.930 . S
C533 C532 1.376 . S
C533 C534 1.388 . S
C534 H521 0.930 . S
C534 C533 1.388 . S
C534 C535 1.390 . S
C535 C534 1.390 . S
C535 C536 1.394 . S
C535 C541 1.465 . S
C536 C531 1.399 . S
C536 C535 1.394 . S
C536 C537 1.516 . S
C537 C536 1.516 . S
C537 C538 1.502 . S
C537 C539 1.561 . S
C537 C540 1.526 . S
C538 H522 0.959 . S
C538 H523 0.959 . S
C538 H524 0.961 . S
C538 C537 1.502 . S
C539 H525 0.960 . S
C539 H526 0.961 . S
C539 H527 0.959 . S
C539 C537 1.561 . S
C540 C537 1.526 . S
C540 C541 1.396 . S
C540 C545 1.390 . S
C541 C535 1.465 . S
C541 C540 1.396 . S
C541 C542 1.399 . S
C542 H528 0.929 . S
C542 C541 1.399 . S
C542 C543 1.385 . S
C543 H529 0.931 . S
C543 C542 1.385 . S
C543 C544 1.389 . S
C544 C543 1.389 . S
C544 C545 1.387 . S
C545 H530 0.930 . S
C545 C540 1.390 . S
C545 C544 1.387 . S
H546 C558 0.930 . S
H547 C560 0.930 . S
H548 C561 0.930 . S
H549 C565 0.959 . S
H550 C565 0.959 . S
H551 C565 0.961 . S
H552 C566 0.960 . S
H553 C566 0.961 . S
H554 C566 0.959 . S
H555 C569 0.929 . S
H556 C570 0.931 . S
H557 C572 0.930 . S
C558 H546 0.930 . S
C558 C559 1.399 . S
C558 C563 1.399 . S
C559 C558 1.399 . S
C559 C560 1.376 . S
C560 H547 0.930 . S
C560 C559 1.376 . S
C560 C561 1.388 . S
C561 H548 0.930 . S
C561 C560 1.388 . S
C561 C562 1.390 . S
C562 C561 1.390 . S
C562 C563 1.394 . S
C562 C568 1.465 . S
C563 C558 1.399 . S
C563 C562 1.394 . S
C563 C564 1.516 . S
C564 C563 1.516 . S
C564 C565 1.502 . S
C564 C566 1.561 . S
C564 C567 1.526 . S
C565 H549 0.959 . S
C565 H550 0.959 . S
C565 H551 0.961 . S
C565 C564 1.502 . S
C566 H552 0.960 . S
C566 H553 0.961 . S
C566 H554 0.959 . S
C566 C564 1.561 . S
C567 C564 1.526 . S
C567 C568 1.396 . S
C567 C572 1.390 . S
C568 C562 1.465 . S
C568 C567 1.396 . S
C568 C569 1.399 . S
C569 H555 0.929 . S
C569 C568 1.399 . S
C569 C570 1.385 . S
C570 H556 0.931 . S
C570 C569 1.385 . S
C570 C571 1.389 . S
C571 C570 1.389 . S
C571 C572 1.387 . S
C572 H557 0.930 . S
C572 C567 1.390 . S
C572 C571 1.387 . S
H573 C585 0.930 . S
H574 C587 0.930 . S
H575 C588 0.930 . S
H576 C592 0.959 . S
H577 C592 0.959 . S
H578 C592 0.961 . S
H579 C593 0.960 . S
H580 C593 0.961 . S
H581 C593 0.959 . S
H582 C596 0.929 . S
H583 C597 0.931 . S
H584 C599 0.930 . S
C585 H573 0.930 . S
C585 C586 1.399 . S
C585 C590 1.399 . S
C586 C585 1.399 . S
C586 C587 1.376 . S
C587 H574 0.930 . S
C587 C586 1.376 . S
C587 C588 1.388 . S
C588 H575 0.930 . S
C588 C587 1.388 . S
C588 C589 1.390 . S
C589 C588 1.390 . S
C589 C590 1.394 . S
C589 C595 1.465 . S
C590 C585 1.399 . S
C590 C589 1.394 . S
C590 C591 1.516 . S
C591 C590 1.516 . S
C591 C592 1.502 . S
C591 C593 1.561 . S
C591 C594 1.526 . S
C592 H576 0.959 . S
C592 H577 0.959 . S
C592 H578 0.961 . S
C592 C591 1.502 . S
C593 H579 0.960 . S
C593 H580 0.961 . S
C593 H581 0.959 . S
C593 C591 1.561 . S
C594 C591 1.526 . S
C594 C595 1.396 . S
C594 C599 1.390 . S
C595 C589 1.465 . S
C595 C594 1.396 . S
C595 C596 1.399 . S
C596 H582 0.929 . S
C596 C595 1.399 . S
C596 C597 1.385 . S
C597 H583 0.931 . S
C597 C596 1.385 . S
C597 C598 1.389 . S
C598 C597 1.389 . S
C598 C599 1.387 . S
C599 H584 0.930 . S
C599 C594 1.390 . S
C599 C598 1.387 . S
H600 C612 0.930 . S
H601 C614 0.930 . S
H602 C615 0.930 . S
H603 C619 0.959 . S
H604 C619 0.959 1_545 S
H605 C619 0.961 . S
H606 C620 0.960 . S
H607 C620 0.961 . S
H608 C620 0.959 . S
H609 C623 0.929 . S
H610 C624 0.931 . S
H611 C626 0.930 . S
C612 H600 0.930 . S
C612 C613 1.399 . S
C612 C617 1.399 . S
C613 C612 1.399 . S
C613 C614 1.376 . S
C614 H601 0.930 . S
C614 C613 1.376 . S
C614 C615 1.388 . S
C615 H602 0.930 . S
C615 C614 1.388 . S
C615 C616 1.390 . S
C616 C615 1.390 . S
C616 C617 1.394 . S
C616 C622 1.465 . S
C617 C612 1.399 . S
C617 C616 1.394 . S
C617 C618 1.516 . S
C618 C617 1.516 . S
C618 C619 1.502 . S
C618 C620 1.561 . S
C618 C621 1.526 . S
C619 H603 0.959 . S
C619 H604 0.959 1_565 S
C619 H605 0.961 . S
C619 C618 1.502 . S
C620 H606 0.960 . S
C620 H607 0.961 . S
C620 H608 0.959 . S
C620 C618 1.561 . S
C621 C618 1.526 . S
C621 C622 1.396 . S
C621 C626 1.390 . S
C622 C616 1.465 . S
C622 C621 1.396 . S
C622 C623 1.399 . S
C623 H609 0.929 . S
C623 C622 1.399 . S
C623 C624 1.385 . S
C624 H610 0.931 . S
C624 C623 1.385 . S
C624 C625 1.389 . S
C625 C624 1.389 . S
C625 C626 1.387 . S
C626 H611 0.930 . S
C626 C621 1.390 . S
C626 C625 1.387 . S
H627 C639 0.930 . S
H628 C641 0.930 . S
H629 C642 0.930 . S
H630 C646 0.959 . S
H631 C646 0.959 . S
H632 C646 0.961 . S
H633 C647 0.960 . S
H634 C647 0.961 . S
H635 C647 0.959 . S
H636 C650 0.929 . S
H637 C651 0.931 . S
H638 C653 0.930 . S
C639 H627 0.930 . S
C639 C640 1.399 . S
C639 C644 1.399 . S
C640 C639 1.399 . S
C640 C641 1.376 . S
C641 H628 0.930 . S
C641 C640 1.376 . S
C641 C642 1.388 . S
C642 H629 0.930 . S
C642 C641 1.388 . S
C642 C643 1.390 . S
C643 C642 1.390 . S
C643 C644 1.394 . S
C643 C649 1.465 . S
C644 C639 1.399 . S
C644 C643 1.394 . S
C644 C645 1.516 . S
C645 C644 1.516 . S
C645 C646 1.502 . S
C645 C647 1.561 . S
C645 C648 1.526 . S
C646 H630 0.959 . S
C646 H631 0.959 . S
C646 H632 0.961 . S
C646 C645 1.502 . S
C647 H633 0.960 . S
C647 H634 0.961 . S
C647 H635 0.959 . S
C647 C645 1.561 . S
C648 C645 1.526 . S
C648 C649 1.396 . S
C648 C653 1.390 . S
C649 C643 1.465 . S
C649 C648 1.396 . S
C649 C650 1.399 . S
C650 H636 0.929 . S
C650 C649 1.399 . S
C650 C651 1.385 . S
C651 H637 0.931 . S
C651 C650 1.385 . S
C651 C652 1.389 . S
C652 C651 1.389 . S
C652 C653 1.387 . S
C653 H638 0.930 . S
C653 C648 1.390 . S
C653 C652 1.387 . S
H654 C666 0.930 . S
H655 C668 0.930 . S
H656 C669 0.930 . S
H657 C673 0.959 . S
H658 C673 0.959 . S
H659 C673 0.961 . S
H660 C674 0.960 . S
H661 C674 0.961 . S
H662 C674 0.959 . S
H663 C677 0.929 . S
H664 C678 0.931 . S
H665 C680 0.930 . S
C666 H654 0.930 . S
C666 C667 1.399 . S
C666 C671 1.399 . S
C667 C666 1.399 . S
C667 C668 1.376 . S
C668 H655 0.930 . S
C668 C667 1.376 . S
C668 C669 1.388 . S
C669 H656 0.930 . S
C669 C668 1.388 . S
C669 C670 1.390 . S
C670 C669 1.390 . S
C670 C671 1.394 . S
C670 C676 1.465 . S
C671 C666 1.399 . S
C671 C670 1.394 . S
C671 C672 1.516 . S
C672 C671 1.516 . S
C672 C673 1.502 . S
C672 C674 1.561 . S
C672 C675 1.526 . S
C673 H657 0.959 . S
C673 H658 0.959 . S
C673 H659 0.961 . S
C673 C672 1.502 . S
C674 H660 0.960 . S
C674 H661 0.961 . S
C674 H662 0.959 . S
C674 C672 1.561 . S
C675 C672 1.526 . S
C675 C676 1.396 . S
C675 C680 1.390 . S
C676 C670 1.465 . S
C676 C675 1.396 . S
C676 C677 1.399 . S
C677 H663 0.929 . S
C677 C676 1.399 . S
C677 C678 1.385 . S
C678 H664 0.931 . S
C678 C677 1.385 . S
C678 C679 1.389 . S
C679 C678 1.389 . S
C679 C680 1.387 . S
C680 H665 0.930 . S
C680 C675 1.390 . S
C680 C679 1.387 . S
H681 C693 0.930 . S
H682 C695 0.930 . S
H683 C696 0.930 . S
H684 C700 0.959 . S
H685 C700 0.959 . S
H686 C700 0.961 . S
H687 C701 0.960 . S
H688 C701 0.961 . S
H689 C701 0.959 . S
H690 C704 0.929 . S
H691 C705 0.931 . S
H692 C707 0.930 . S
C693 H681 0.930 . S
C693 C694 1.399 . S
C693 C698 1.399 . S
C694 C693 1.399 . S
C694 C695 1.376 . S
C695 H682 0.930 . S
C695 C694 1.376 . S
C695 C696 1.388 . S
C696 H683 0.930 . S
C696 C695 1.388 . S
C696 C697 1.390 . S
C697 C696 1.390 . S
C697 C698 1.394 . S
C697 C703 1.465 . S
C698 C693 1.399 . S
C698 C697 1.394 . S
C698 C699 1.516 . S
C699 C698 1.516 . S
C699 C700 1.502 . S
C699 C701 1.561 . S
C699 C702 1.526 . S
C700 H684 0.959 . S
C700 H685 0.959 . S
C700 H686 0.961 . S
C700 C699 1.502 . S
C701 H687 0.960 . S
C701 H688 0.961 . S
C701 H689 0.959 . S
C701 C699 1.561 . S
C702 C699 1.526 . S
C702 C703 1.396 . S
C702 C707 1.390 . S
C703 C697 1.465 . S
C703 C702 1.396 . S
C703 C704 1.399 . S
C704 H690 0.929 . S
C704 C703 1.399 . S
C704 C705 1.385 . S
C705 H691 0.931 . S
C705 C704 1.385 . S
C705 C706 1.389 . S
C706 C705 1.389 . S
C706 C707 1.387 . S
C707 H692 0.930 . S
C707 C702 1.390 . S
C707 C706 1.387 . S
H708 C720 0.930 . S
H709 C722 0.930 . S
H710 C723 0.930 . S
H711 C727 0.959 . S
H712 C727 0.959 . S
H713 C727 0.961 . S
H714 C728 0.960 . S
H715 C728 0.961 . S
H716 C728 0.959 . S
H717 C731 0.929 . S
H718 C732 0.931 . S
H719 C734 0.930 . S
C720 H708 0.930 . S
C720 C721 1.399 . S
C720 C725 1.399 . S
C721 C720 1.399 . S
C721 C722 1.376 . S
C722 H709 0.930 . S
C722 C721 1.376 . S
C722 C723 1.388 . S
C723 H710 0.930 . S
C723 C722 1.388 . S
C723 C724 1.390 . S
C724 C723 1.390 . S
C724 C725 1.394 . S
C724 C730 1.465 . S
C725 C720 1.399 . S
C725 C724 1.394 . S
C725 C726 1.516 . S
C726 C725 1.516 . S
C726 C727 1.502 . S
C726 C728 1.561 . S
C726 C729 1.526 . S
C727 H711 0.959 . S
C727 H712 0.959 . S
C727 H713 0.961 . S
C727 C726 1.502 . S
C728 H714 0.960 . S
C728 H715 0.961 . S
C728 H716 0.959 . S
C728 C726 1.561 . S
C729 C726 1.526 . S
C729 C730 1.396 . S
C729 C734 1.390 . S
C730 C724 1.465 . S
C730 C729 1.396 . S
C730 C731 1.399 . S
C731 H717 0.929 . S
C731 C730 1.399 . S
C731 C732 1.385 . S
C732 H718 0.931 . S
C732 C731 1.385 . S
C732 C733 1.389 . S
C733 C732 1.389 . S
C733 C734 1.387 . S
C734 H719 0.930 . S
C734 C729 1.390 . S
C734 C733 1.387 . S
H735 C747 0.930 . S
H736 C749 0.930 . S
H737 C750 0.930 . S
H738 C754 0.959 . S
H739 C754 0.959 . S
H740 C754 0.961 . S
H741 C755 0.960 . S
H742 C755 0.961 . S
H743 C755 0.959 . S
H744 C758 0.929 . S
H745 C759 0.931 . S
H746 C761 0.930 . S
C747 H735 0.930 . S
C747 C748 1.399 . S
C747 C752 1.399 . S
C748 C747 1.399 . S
C748 C749 1.376 . S
C749 H736 0.930 . S
C749 C748 1.376 . S
C749 C750 1.388 . S
C750 H737 0.930 . S
C750 C749 1.388 . S
C750 C751 1.390 . S
C751 C750 1.390 . S
C751 C752 1.394 . S
C751 C757 1.465 . S
C752 C747 1.399 . S
C752 C751 1.394 . S
C752 C753 1.516 . S
C753 C752 1.516 . S
C753 C754 1.502 . S
C753 C755 1.561 . S
C753 C756 1.526 . S
C754 H738 0.959 . S
C754 H739 0.959 . S
C754 H740 0.961 . S
C754 C753 1.502 . S
C755 H741 0.960 . S
C755 H742 0.961 . S
C755 H743 0.959 . S
C755 C753 1.561 . S
C756 C753 1.526 . S
C756 C757 1.396 . S
C756 C761 1.390 . S
C757 C751 1.465 . S
C757 C756 1.396 . S
C757 C758 1.399 . S
C758 H744 0.929 . S
C758 C757 1.399 . S
C758 C759 1.385 . S
C759 H745 0.931 . S
C759 C758 1.385 . S
C759 C760 1.389 . S
C760 C759 1.389 . S
C760 C761 1.387 . S
C761 H746 0.930 . S
C761 C756 1.390 . S
C761 C760 1.387 . S
H762 C774 0.930 . S
H763 C776 0.930 . S
H764 C777 0.930 . S
H765 C781 0.959 . S
H766 C781 0.959 . S
H767 C781 0.961 . S
H768 C782 0.960 . S
H769 C782 0.961 . S
H770 C782 0.959 . S
H771 C785 0.929 . S
H772 C786 0.931 . S
H773 C788 0.930 . S
C774 H762 0.930 . S
C774 C775 1.399 . S
C774 C779 1.399 . S
C775 C774 1.399 . S
C775 C776 1.376 . S
C776 H763 0.930 . S
C776 C775 1.376 . S
C776 C777 1.388 . S
C777 H764 0.930 . S
C777 C776 1.388 . S
C777 C778 1.390 . S
C778 C777 1.390 . S
C778 C779 1.394 . S
C778 C784 1.465 . S
C779 C774 1.399 . S
C779 C778 1.394 . S
C779 C780 1.516 . S
C780 C779 1.516 . S
C780 C781 1.502 . S
C780 C782 1.561 . S
C780 C783 1.526 . S
C781 H765 0.959 . S
C781 H766 0.959 . S
C781 H767 0.961 . S
C781 C780 1.502 . S
C782 H768 0.960 . S
C782 H769 0.961 . S
C782 H770 0.959 . S
C782 C780 1.561 . S
C783 C780 1.526 . S
C783 C784 1.396 . S
C783 C788 1.390 . S
C784 C778 1.465 . S
C784 C783 1.396 . S
C784 C785 1.399 . S
C785 H771 0.929 . S
C785 C784 1.399 . S
C785 C786 1.385 . S
C786 H772 0.931 . S
C786 C785 1.385 . S
C786 C787 1.389 . S
C787 C786 1.389 . S
C787 C788 1.387 . S
C788 H773 0.930 . S
C788 C783 1.390 . S
C788 C787 1.387 . S
H789 C801 0.930 . S
H790 C803 0.930 . S
H791 C804 0.930 . S
H792 C808 0.959 . S
H793 C808 0.959 . S
H794 C808 0.961 . S
H795 C809 0.960 . S
H796 C809 0.961 . S
H797 C809 0.959 . S
H798 C812 0.929 . S
H799 C813 0.931 . S
H800 C815 0.930 . S
C801 H789 0.930 . S
C801 C802 1.399 . S
C801 C806 1.399 . S
C802 C801 1.399 . S
C802 C803 1.376 . S
C803 H790 0.930 . S
C803 C802 1.376 . S
C803 C804 1.388 . S
C804 H791 0.930 . S
C804 C803 1.388 . S
C804 C805 1.390 . S
C805 C804 1.390 . S
C805 C806 1.394 . S
C805 C811 1.465 . S
C806 C801 1.399 . S
C806 C805 1.394 . S
C806 C807 1.516 . S
C807 C806 1.516 . S
C807 C808 1.502 . S
C807 C809 1.561 . S
C807 C810 1.526 . S
C808 H792 0.959 . S
C808 H793 0.959 . S
C808 H794 0.961 . S
C808 C807 1.502 . S
C809 H795 0.960 . S
C809 H796 0.961 . S
C809 H797 0.959 . S
C809 C807 1.561 . S
C810 C807 1.526 . S
C810 C811 1.396 . S
C810 C815 1.390 . S
C811 C805 1.465 . S
C811 C810 1.396 . S
C811 C812 1.399 . S
C812 H798 0.929 . S
C812 C811 1.399 . S
C812 C813 1.385 . S
C813 H799 0.931 . S
C813 C812 1.385 . S
C813 C814 1.389 . S
C814 C813 1.389 . S
C814 C815 1.387 . S
C815 H800 0.930 . S
C815 C810 1.390 . S
C815 C814 1.387 . S
C181 C4 1.609 . S
C193 C107 1.598 . S
C208 C16 1.519 . S
C220 C110 1.484 . S
C247 C146 1.326 . S
C235 C32 1.387 . S
C262 C43 1.524 . S
C274 C166 1.507 . S
C301 C120 2.089 . S
C289 C5 2.086 . S
C328 C97 1.291 . S
C316 C21 1.299 . S
C355 C150 1.442 . S
C343 C27 1.474 . S
C382 C130 1.322 . S
C370 C37 1.333 . S
C397 C10 1.371 . S
C409 C160 1.295 . S
C436 C126 1.781 1_556 S
C424 C26 1.786 . S
C451 C38 1.462 . S
C463 C92 1.383 . S
C478 C15 1.470 . S
C490 C140 1.444 . S
C517 C106 1.704 . S
C505 C48 1.675 . S
C532 C59 1.323 . S
C544 C112 1.249 . S
C559 C76 1.668 . S
C571 C147 1.648 . S
C586 C87 1.399 . S
C598 C167 1.329 . S
C613 C54 1.526 . S
C625 C117 1.495 . S
C652 C100 1.917 . S
C640 C60 1.920 . S
C679 C152 1.409 . S
C667 C71 1.558 . S
C706 C132 1.220 . S
C694 C82 1.319 . S
C721 C49 1.582 . S
C733 C157 1.554 . S
C760 C127 1.387 . S
C748 C70 1.405 . S
C787 C90 1.717 . S
C775 C81 1.737 . S
C802 C65 1.308 . S
C814 C137 1.307 . S
