# Generated by pormake.
# Topology zzz, (3,6)-cn, num edge types: 1
# Building blocks:
#     Node 0, Type 0, BuildingBlock: BETDAH_clean_linker_0, # of connection points: 3
#     Node 1, Type 0, BuildingBlock: BETDAH_clean_linker_0, # of connection points: 3
#     Node 2, Type 0, BuildingBlock: BETDAH_clean_linker_0, # of connection points: 3
#     Node 3, Type 0, BuildingBlock: BETDAH_clean_linker_0, # of connection points: 3
#     Node 4, Type 0, BuildingBlock: BETDAH_clean_linker_0, # of connection points: 3
#     Node 5, Type 0, BuildingBlock: BETDAH_clean_linker_0, # of connection points: 3
#     Node 6, Type 0, BuildingBlock: BETDAH_clean_linker_0, # of connection points: 3
#     Node 7, Type 0, BuildingBlock: BETDAH_clean_linker_0, # of connection points: 3
#     Node 8, Type 1, BuildingBlock: MIFKUJ_clean_sbu_0, # of connection points: 6
#     Node 9, Type 1, BuildingBlock: MIFKUJ_clean_sbu_0, # of connection points: 6
#     Node 10, Type 1, BuildingBlock: MIFKUJ_clean_sbu_0, # of connection points: 6
#     Node 11, Type 1, BuildingBlock: MIFKUJ_clean_sbu_0, # of connection points: 6
#     Edge 12, Type (0, 1), BuildingBlock: XUDNAN_clean_linker_2, # of connection points: 2
#     Edge 13, Type (0, 1), BuildingBlock: XUDNAN_clean_linker_2, # of connection points: 2
#     Edge 14, Type (0, 1), BuildingBlock: XUDNAN_clean_linker_2, # of connection points: 2
#     Edge 15, Type (0, 1), BuildingBlock: XUDNAN_clean_linker_2, # of connection points: 2
#     Edge 16, Type (0, 1), BuildingBlock: XUDNAN_clean_linker_2, # of connection points: 2
#     Edge 17, Type (0, 1), BuildingBlock: XUDNAN_clean_linker_2, # of connection points: 2
#     Edge 18, Type (0, 1), BuildingBlock: XUDNAN_clean_linker_2, # of connection points: 2
#     Edge 19, Type (0, 1), BuildingBlock: XUDNAN_clean_linker_2, # of connection points: 2
#     Edge 20, Type (0, 1), BuildingBlock: XUDNAN_clean_linker_2, # of connection points: 2
#     Edge 21, Type (0, 1), BuildingBlock: XUDNAN_clean_linker_2, # of connection points: 2
#     Edge 22, Type (0, 1), BuildingBlock: XUDNAN_clean_linker_2, # of connection points: 2
#     Edge 23, Type (0, 1), BuildingBlock: XUDNAN_clean_linker_2, # of connection points: 2
#     Edge 24, Type (0, 1), BuildingBlock: XUDNAN_clean_linker_2, # of connection points: 2
#     Edge 25, Type (0, 1), BuildingBlock: XUDNAN_clean_linker_2, # of connection points: 2
#     Edge 26, Type (0, 1), BuildingBlock: XUDNAN_clean_linker_2, # of connection points: 2
#     Edge 27, Type (0, 1), BuildingBlock: XUDNAN_clean_linker_2, # of connection points: 2
#     Edge 28, Type (0, 1), BuildingBlock: XUDNAN_clean_linker_2, # of connection points: 2
#     Edge 29, Type (0, 1), BuildingBlock: XUDNAN_clean_linker_2, # of connection points: 2
#     Edge 30, Type (0, 1), BuildingBlock: XUDNAN_clean_linker_2, # of connection points: 2
#     Edge 31, Type (0, 1), BuildingBlock: XUDNAN_clean_linker_2, # of connection points: 2
#     Edge 32, Type (0, 1), BuildingBlock: XUDNAN_clean_linker_2, # of connection points: 2
#     Edge 33, Type (0, 1), BuildingBlock: XUDNAN_clean_linker_2, # of connection points: 2
#     Edge 34, Type (0, 1), BuildingBlock: XUDNAN_clean_linker_2, # of connection points: 2
#     Edge 35, Type (0, 1), BuildingBlock: XUDNAN_clean_linker_2, # of connection points: 2
# Relax obj value: 0.118
# Max RMSD: 0.119
# Mean RMSD: 0.086
data_MOF--net-zzz--node1-MIFKUJ_clean_sbu_0--node2-BETDAH_clean_linker_0--edge1-XUDNAN_clean_linker_2
_symmetry_space_group_name_H-M    P1
_symmetry_Int_Tables_number       1
_symmetry_cell_setting            triclinic
loop_
_symmetry_equiv_pos_as_xyz
'x, y, z'
_cell_length_a     50.829976
_cell_length_b     50.622293
_cell_length_c     16.012831
_cell_angle_alpha  90.162898
_cell_angle_beta   90.072763
_cell_angle_gamma 89.914613
loop_
_atom_site_label
_atom_site_type_symbol
_atom_site_fract_x
_atom_site_fract_y
_atom_site_fract_z
_atom_type_partial_charge
H0 H 0.81743 0.46509 0.09682 0.0
H1 H 0.74735 0.47772 0.95332 0.0
H2 H 0.75323 0.50866 0.20421 0.0
C3 C 0.79727 0.47213 0.09334 0.0
C4 C 0.78687 0.48658 0.1602 0.0
C5 C 0.78326 0.46904 0.01872 0.0
C6 C 0.75786 0.47968 0.01186 0.0
C7 C 0.74661 0.4935 0.0797 0.0
C8 C 0.76143 0.49724 0.15314 0.0
N9 N 0.72096 0.50466 0.07514 0.0
C10 C 0.70444 0.50245 0.00604 0.0
H11 H 0.01947 0.80019 0.16385 0.0
H12 H 0.00322 0.73024 0.02226 0.0
H13 H 0.97635 0.73687 0.27743 0.0
C14 C 0.0118 0.7802 0.16121 0.0
C15 C 0.9983 0.77008 0.23004 0.0
C16 C 0.01339 0.76607 0.08636 0.0
C17 C 1.00222 0.74084 0.08094 0.0
C18 C 0.98934 0.72981 0.15076 0.0
C19 C 0.98701 0.74481 0.22464 0.0
N20 N 0.97796 0.70414 0.14792 0.0
C21 C 0.97933 0.68753 0.07859 0.0
H22 H 0.69167 0.01219 0.13553 0.0
H23 H 0.76726 0.00506 0.01947 0.0
H24 H 0.75913 0.99332 0.28527 0.0
C25 C 0.71279 0.0094 0.14064 0.0
C26 C 0.72354 0.00337 0.21858 0.0
C27 C 0.72837 0.01009 0.06874 0.0
C28 C 0.7554 0.00496 0.07541 0.0
C29 C 0.76682 0.99934 0.15378 0.0
C30 C 0.75063 0.99815 0.22511 0.0
N31 N 0.7943 0.9945 0.16244 0.0
C32 C 0.81222 0.9965 0.09689 0.0
H33 H 0.55226 0.67625 0.93381 0.0
H34 H 0.54336 0.7572 0.85868 0.0
H35 H 0.56983 0.73824 0.10806 0.0
C36 C 0.55354 0.69719 0.94814 0.0
C37 C 0.56201 0.70504 0.02723 0.0
C38 C 0.5464 0.71578 0.88765 0.0
C39 C 0.54842 0.74282 0.90605 0.0
C40 C 0.55695 0.75102 0.98601 0.0
C41 C 0.5636 0.73201 0.04632 0.0
N42 N 0.55912 0.7781 0.00797 0.0
C43 C 0.54713 0.79854 0.96432 0.0
H44 H 0.19639 0.54403 0.08653 0.0
H45 H 0.26876 0.52974 0.21613 0.0
H46 H 0.25738 0.49899 0.96685 0.0
C47 C 0.21637 0.53645 0.08606 0.0
C48 C 0.22512 0.52179 0.01727 0.0
C49 C 0.2319 0.53928 0.15768 0.0
C50 C 0.25709 0.52798 0.15978 0.0
C51 C 0.26667 0.51387 0.08997 0.0
C52 C 0.2504 0.51052 0.01949 0.0
N53 N 0.29211 0.50215 0.08962 0.0
C54 C 0.30997 0.50409 0.15538 0.0
H55 H 0.99195 0.19194 0.14129 0.0
H56 H 0.0145 0.26474 0.25927 0.0
H57 H 0.04173 0.24634 0.01077 0.0
C58 C 1.00141 0.21111 0.13753 0.0
C59 C 0.0162 0.21735 0.06677 0.0
C60 C 1.00088 0.22788 0.20717 0.0
C61 C 0.01431 0.25208 0.20461 0.0
C62 C 0.02857 0.25908 0.13254 0.0
C63 C 0.02998 0.24134 0.06489 0.0
N64 N 0.04292 0.28304 0.12752 0.0
C65 C 0.03763 0.30561 0.17442 0.0
H66 H 0.30915 0.98812 0.10447 0.0
H67 H 0.23464 0.98643 0.22898 0.0
H68 H 0.23814 0.99806 0.96228 0.0
C69 C 0.28786 0.9892 0.10174 0.0
C70 C 0.2756 0.9937 0.02486 0.0
C71 C 0.27328 0.98623 0.1752 0.0
C72 C 0.24578 0.98823 0.17187 0.0
C73 C 0.23289 0.99239 0.09492 0.0
C74 C 0.24795 0.99486 0.0215 0.0
N75 N 0.20499 0.99431 0.08942 0.0
C76 C 0.18816 0.9928 0.15795 0.0
H77 H 0.48804 0.31972 0.13161 0.0
H78 H 0.49008 0.24581 0.26136 0.0
H79 H 0.47647 0.24746 0.99532 0.0
C80 C 0.48659 0.29835 0.13059 0.0
C81 C 0.48154 0.28545 0.0549 0.0
C82 C 0.49001 0.28426 0.20487 0.0
C83 C 0.48779 0.25665 0.20366 0.0
C84 C 0.48295 0.24322 0.12781 0.0
C85 C 0.48003 0.25776 0.05368 0.0
N86 N 0.48104 0.21524 0.12383 0.0
C87 C 0.48439 0.19875 0.19238 0.0
Zn88 Zn 0.99402 0.02323 0.59329 0.0
Zn89 Zn 0.01067 0.9698 0.67961 0.0
C90 C 0.99356 0.05829 0.72715 0.0
O91 O 0.9688 0.05781 0.70342 0.0
C92 C 0.01303 0.93083 0.55721 0.0
O93 O 0.03765 0.93307 0.58137 0.0
O94 O 0.98177 0.0544 0.52541 0.0
O95 O 0.02247 0.00506 0.52624 0.0
O96 O 0.04245 0.98998 0.63814 0.0
C97 C 0.9987 0.07275 0.5187 0.0
O98 O 0.02273 0.06851 0.54604 0.0
O99 O 0.00954 0.04205 0.69366 0.0
C100 C 0.0079 0.9227 0.76805 0.0
O101 O 0.9837 0.92539 0.74031 0.0
O102 O 0.02421 0.94133 0.75597 0.0
O103 O 0.98088 0.9878 0.7417 0.0
O104 O 0.96162 0.00323 0.62895 0.0
O105 O 0.99629 0.9474 0.58492 0.0
C106 C 0.04333 0.99714 0.56214 0.0
C107 C 0.9602 0.99555 0.7043 0.0
Zn108 Zn 0.47321 0.9956 0.58466 0.0
Zn109 Zn 0.5268 0.01278 0.66923 0.0
C110 C 0.43432 0.98075 0.69288 0.0
O111 O 0.44077 0.9591 0.65228 0.0
C112 C 0.56069 0.01725 0.53421 0.0
O113 O 0.55949 0.04155 0.56307 0.0
O114 O 0.4447 0.98623 0.50171 0.0
O115 O 0.48804 0.02989 0.53928 0.0
O116 O 0.50848 0.04719 0.64764 0.0
C117 C 0.42738 0.00444 0.50409 0.0
O118 O 0.43297 0.02659 0.54327 0.0
O119 O 0.4491 1.00095 0.68549 0.0
C120 C 0.5749 0.99974 0.73531 0.0
O121 O 0.56692 0.97768 0.70013 0.0
O122 O 0.55913 0.01927 0.73886 0.0
O123 O 0.50681 0.98388 0.72685 0.0
O124 O 0.49678 0.96399 0.60909 0.0
O125 O 0.54463 1.00025 0.56285 0.0
C126 C 0.49729 0.04991 0.5773 0.0
C127 C 0.50265 0.96276 0.68614 0.0
Zn128 Zn 0.50074 0.48372 0.63088 0.0
Zn129 Zn 0.52275 0.51725 0.4884 0.0
C130 C 0.50996 0.44239 0.73457 0.0
O131 O 0.53251 0.44697 0.69736 0.0
C132 C 0.52221 0.54996 0.35124 0.0
O133 O 0.49899 0.55402 0.38503 0.0
O134 O 0.50721 0.45526 0.54391 0.0
O135 O 0.4696 0.50492 0.59095 0.0
O136 O 0.48642 0.50234 0.46446 0.0
C137 C 0.48741 0.43984 0.54323 0.0
O138 O 0.46594 0.44714 0.58271 0.0
O139 O 0.4916 0.45941 0.72727 0.0
C140 C 0.53824 0.56712 0.54398 0.0
O141 O 0.55949 0.55858 0.50578 0.0
O142 O 0.51885 0.55148 0.55287 0.0
O143 O 0.5522 0.49652 0.54407 0.0
O144 O 0.53358 0.50292 0.66577 0.0
O145 O 0.53627 0.53108 0.37868 0.0
C146 C 0.46652 0.50497 0.51205 0.0
C147 C 0.55425 0.49954 0.62267 0.0
Zn148 Zn 0.03081 0.52203 0.54564 0.0
Zn149 Zn 0.984 0.49305 0.62183 0.0
C150 C 0.06483 0.52516 0.68132 0.0
O151 O 0.06034 0.55003 0.66266 0.0
C152 C 0.94618 0.48804 0.49667 0.0
O153 O 0.95168 0.4634 0.51569 0.0
O154 O 0.05963 0.54086 0.48352 0.0
O155 O 0.01837 0.49331 0.46913 0.0
O156 O 0.00895 0.46584 0.57044 0.0
C157 C 0.08011 0.52665 0.47488 0.0
O158 O 0.07912 0.50171 0.49718 0.0
O159 O 0.05137 0.50745 0.6443 0.0
C160 C 0.93725 0.48748 0.70648 0.0
O161 O 0.9374 0.5125 0.6848 0.0
O162 O 0.95763 0.47356 0.69242 0.0
O163 O 0.9963 0.52431 0.69314 0.0
O164 O 0.00465 0.54903 0.58423 0.0
O165 O 0.96005 0.5063 0.52921 0.0
C166 C 0.01568 0.4698 0.49501 0.0
C167 C 0.99781 0.54709 0.66011 0.0
H168 H 0.13804 0.01099 0.16472 0.0
H169 H 0.19825 0.971 0.30876 0.0
H170 H 0.16802 0.96864 0.42962 0.0
H171 H 0.11093 0.04986 0.33401 0.0
H172 H 0.0774 0.04658 0.29882 0.0
H173 H 0.10393 0.04557 0.22441 0.0
H174 H 0.08759 1.00013 0.17056 0.0
H175 H 0.06098 0.00104 0.24469 0.0
H176 H 0.08335 0.97338 0.24342 0.0
H177 H 0.13111 0.97059 0.53442 0.0
H178 H 0.08996 0.97552 0.61463 0.0
H179 H 0.05327 0.01366 0.40153 0.0
C180 C 0.14476 0.00182 0.22196 0.0
C181 C 0.17041 0.99134 0.22829 0.0
C182 C 0.17869 0.97933 0.30337 0.0
C183 C 0.16165 0.97787 0.37216 0.0
C184 C 0.13641 0.98845 0.36436 0.0
C185 C 0.12794 1.00012 0.29109 0.0
C186 C 0.0997 0.00953 0.29864 0.0
C187 C 0.0979 0.03967 0.28837 0.0
C188 C 0.08186 0.99515 0.23559 0.0
C189 C 0.0936 0.00131 0.38749 0.0
C190 C 0.11507 0.98928 0.42439 0.0
C191 C 0.11418 0.97999 0.50616 0.0
C192 C 0.0907 0.98293 0.55131 0.0
C193 C 0.06832 0.995 0.5146 0.0
C194 C 0.06997 0.00434 0.43155 0.0
H195 H 0.46533 0.14926 0.20494 0.0
H196 H 0.51168 0.2083 0.33448 0.0
H197 H 0.51854 0.17725 0.45216 0.0
H198 H 0.43368 0.1214 0.38864 0.0
H199 H 0.43498 0.08806 0.34908 0.0
H200 H 0.4328 0.11541 0.27763 0.0
H201 H 0.47494 0.0991 0.20225 0.0
H202 H 0.47721 0.07172 0.27335 0.0
H203 H 0.50462 0.09395 0.26183 0.0
H204 H 0.52136 0.13887 0.55332 0.0
H205 H 0.5207 0.09623 0.62838 0.0
H206 H 0.47257 0.06254 0.43087 0.0
C207 C 0.47673 0.15561 0.25858 0.0
C208 C 0.48788 0.18101 0.26178 0.0
C209 C 0.50288 0.18884 0.33188 0.0
C210 C 0.50684 0.17137 0.39874 0.0
C211 C 0.49564 0.14626 0.39394 0.0
C212 C 0.48088 0.13841 0.32558 0.0
C213 C 0.4717 0.11014 0.33435 0.0
C214 C 0.44149 0.10868 0.33764 0.0
C215 C 0.48279 0.09271 0.26376 0.0
C216 C 0.48382 0.10318 0.41779 0.0
C217 C 0.49741 0.12427 0.45156 0.0
C218 C 0.51065 0.12226 0.52763 0.0
C219 C 0.51015 0.09797 0.56988 0.0
C220 C 0.49659 0.07601 0.53567 0.0
C221 C 0.48311 0.0789 0.45893 0.0
H222 H 0.36267 0.50659 0.1374 0.0
H223 H 0.30043 0.50443 0.32164 0.0
H224 H 0.33372 0.50566 0.43528 0.0
H225 H 0.40765 0.46475 0.24588 0.0
H226 H 0.4365 0.48283 0.21453 0.0
H227 H 0.40773 0.48275 0.14888 0.0
H228 H 0.40678 0.53396 0.15204 0.0
H229 H 0.43557 0.53417 0.21775 0.0
H230 H 0.40609 0.55094 0.25114 0.0
H231 H 0.37439 0.50607 0.52832 0.0
H232 H 0.41868 0.50536 0.59277 0.0
H233 H 0.4539 0.50719 0.34598 0.0
C234 C 0.35616 0.50655 0.20181 0.0
C235 C 0.32921 0.50552 0.22162 0.0
C236 C 0.32114 0.50532 0.30598 0.0
C237 C 0.33987 0.50601 0.37062 0.0
C238 C 0.36648 0.50693 0.34932 0.0
C239 C 0.37459 0.50723 0.26685 0.0
C240 C 0.40429 0.50774 0.2604 0.0
C241 C 0.41464 0.48305 0.21474 0.0
C242 C 0.41373 0.53322 0.21782 0.0
C243 C 0.41169 0.50742 0.35197 0.0
C244 C 0.38967 0.50707 0.40244 0.0
C245 C 0.39176 0.50643 0.48932 0.0
C246 C 0.417 0.50604 0.5254 0.0
C247 C 0.43981 0.5062 0.47461 0.0
C248 C 0.43692 0.50703 0.38679 0.0
H249 H 0.02489 0.31889 0.33571 0.0
H250 H 0.04288 0.3508 0.0915 0.0
H251 H 0.03879 0.39616 0.14749 0.0
H252 H 0.97664 0.36931 0.39379 0.0
H253 H 0.98666 0.37048 0.50175 0.0
H254 H 0.99044 0.34038 0.4426 0.0
H255 H 0.04008 0.33942 0.47927 0.0
H256 H 0.03645 0.36955 0.53828 0.0
H257 H 0.06025 0.36764 0.45512 0.0
H258 H 0.03409 0.43747 0.22858 0.0
H259 H 0.02792 0.47339 0.32998 0.0
H260 H 0.01229 0.41586 0.52464 0.0
C261 C 0.02778 0.33555 0.29443 0.0
C262 C 0.03412 0.33168 0.20943 0.0
C263 C 0.03793 0.35363 0.15675 0.0
C264 C 0.03568 0.37938 0.18798 0.0
C265 C 0.02955 0.38275 0.27209 0.0
C266 C 0.02553 0.36155 0.32478 0.0
C267 C 0.01934 0.37099 0.41281 0.0
C268 C 0.99162 0.36227 0.43927 0.0
C269 C 0.04029 0.36132 0.47503 0.0
C270 C 0.02072 0.40074 0.40119 0.0
C271 C 0.02664 0.40694 0.31939 0.0
C272 C 0.02934 0.43291 0.2928 0.0
C273 C 0.02581 0.45321 0.35117 0.0
C274 C 0.01957 0.44756 0.43556 0.0
C275 C 0.017 0.42087 0.46071 0.0
H276 H 0.86186 0.97679 0.09064 0.0
H277 H 0.80432 0.02182 0.95048 0.0
H278 H 0.83556 0.02546 0.83278 0.0
H279 H 0.91835 0.01418 0.02393 0.0
H280 H 0.93989 0.9859 0.01888 0.0
H281 H 0.91271 0.9862 0.09095 0.0
H282 H 0.89548 0.94244 0.0269 0.0
H283 H 0.92258 0.94206 0.95449 0.0
H284 H 0.88926 0.94054 0.91618 0.0
H285 H 0.87301 0.02405 0.73036 0.0
H286 H 0.91461 0.01937 0.65237 0.0
H287 H 0.94854 0.97624 0.86046 0.0
C288 C 0.85593 0.98733 0.0349 0.0
C289 C 0.8307 0.99879 0.02868 0.0
C290 C 0.82349 0.01264 0.95567 0.0
C291 C 0.84112 0.01485 0.88867 0.0
C292 C 0.8659 0.00322 0.89621 0.0
C293 C 0.87339 0.98986 0.96763 0.0
C294 C 0.90139 0.97973 0.96039 0.0
C295 C 0.91913 0.99226 0.02752 0.0
C296 C 0.90221 0.94939 0.96473 0.0
C297 C 0.90847 0.98949 0.87385 0.0
C298 C 0.88766 0.00287 0.83778 0.0
C299 C 0.88944 0.01363 0.758 0.0
C300 C 0.91316 0.0108 0.71408 0.0
C301 C 0.9349 0.99745 0.75014 0.0
C302 C 0.93235 0.98661 0.8311 0.0
H303 H 0.55477 0.81959 0.80993 0.0
H304 H 0.51138 0.82885 0.04086 0.0
H305 H 0.49166 0.87028 0.98785 0.0
H306 H 0.5707 0.88642 0.78382 0.0
H307 H 0.56703 0.88684 0.67186 0.0
H308 H 0.57565 0.85659 0.72403 0.0
H309 H 0.53546 0.83332 0.65682 0.0
H310 H 0.52673 0.86355 0.60427 0.0
H311 H 0.50308 0.84728 0.67021 0.0
H312 H 0.48098 0.91262 0.91815 0.0
H313 H 0.47841 0.95313 0.83289 0.0
H314 H 0.52686 0.91628 0.64278 0.0
C315 C 0.54069 0.83018 0.8482 0.0
C316 C 0.53425 0.82125 0.92893 0.0
C317 C 0.51622 0.83553 0.97851 0.0
C318 C 0.50496 0.85897 0.9489 0.0
C319 C 0.51187 0.86762 0.86935 0.0
C320 C 0.52913 0.85362 0.81921 0.0
C321 C 0.53429 0.86815 0.7381 0.0
C322 C 0.56366 0.8749 0.72897 0.0
C323 C 0.52428 0.85211 0.6629 0.0
C324 C 0.51782 0.89281 0.75161 0.0
C325 C 0.50501 0.89198 0.82772 0.0
C326 C 0.49044 0.9133 0.8577 0.0
C327 C 0.48916 0.93621 0.80912 0.0
C328 C 0.50209 0.93749 0.73112 0.0
C329 C 0.51623 0.9154 0.70128 0.0
H330 H 0.65147 0.50122 0.01484 0.0
H331 H 0.71685 0.50039 0.84172 0.0
H332 H 0.68555 0.49869 0.72255 0.0
H333 H 0.60932 0.4566 0.89816 0.0
H334 H 0.5796 0.47416 0.9247 0.0
H335 H 0.60723 0.47459 0.99526 0.0
H336 H 0.60711 0.5258 0.99314 0.0
H337 H 0.57952 0.52551 0.92256 0.0
H338 H 0.60919 0.54279 0.89457 0.0
H339 H 0.64651 0.49775 0.62256 0.0
H340 H 0.60337 0.49801 0.55046 0.0
H341 H 0.56397 0.4998 0.79078 0.0
C342 C 0.65909 0.50054 0.9517 0.0
C343 C 0.68636 0.50082 0.93659 0.0
C344 C 0.69588 0.50007 0.85379 0.0
C345 C 0.67828 0.49911 0.78604 0.0
C346 C 0.65132 0.49893 0.8027 0.0
C347 C 0.6418 0.4996 0.88361 0.0
C348 C 0.61202 0.49964 0.88492 0.0
C349 C 0.60143 0.47476 0.92832 0.0
C350 C 0.60134 0.52494 0.92623 0.0
C351 C 0.60622 0.49912 0.7922 0.0
C352 C 0.62908 0.49859 0.74563 0.0
C353 C 0.62849 0.49812 0.6585 0.0
C354 C 0.60391 0.49825 0.61806 0.0
C355 C 0.58026 0.49896 0.6648 0.0
C356 C 0.58163 0.49934 0.75301 0.0
H357 H 0.98314 0.63407 0.07679 0.0
H358 H 0.97885 0.70304 0.91772 0.0
H359 H 0.98228 0.67438 0.7925 0.0
H360 H 0.03004 0.59785 0.95393 0.0
H361 H 0.01506 0.56613 0.97202 0.0
H362 H 0.0119 0.59201 0.04877 0.0
H363 H 0.96113 0.58779 0.04235 0.0
H364 H 0.96415 0.5619 0.96549 0.0
H365 H 0.94457 0.59075 0.94317 0.0
H366 H 0.98738 0.63845 0.68559 0.0
H367 H 0.99311 0.59768 0.60296 0.0
H368 H 0.99311 0.55152 0.83114 0.0
C369 C 0.98285 0.64299 0.01538 0.0
C370 C 0.98084 0.67061 0.00603 0.0
C371 C 0.9805 0.68184 0.92546 0.0
C372 C 0.98238 0.66574 0.85424 0.0
C373 C 0.98445 0.63848 0.86514 0.0
C374 C 0.98461 0.62715 0.94362 0.0
C375 C 0.98718 0.59733 0.93782 0.0
C376 C 0.01255 0.58778 0.98067 0.0
C377 C 0.9628 0.58364 0.97437 0.0
C378 C 0.9886 0.5937 0.84392 0.0
C379 C 0.98702 0.6177 0.80329 0.0
C380 C 0.98851 0.61952 0.71668 0.0
C381 C 0.9918 0.59623 0.67029 0.0
C382 C 0.99348 0.57135 0.71042 0.0
C383 C 0.99169 0.57017 0.79849 0.0
H384 H 0.02951 0.21337 0.34011 0.0
H385 H 0.9504 0.2137 0.24118 0.0
H386 H 0.93846 0.17712 0.33525 0.0
H387 H 0.03827 0.15101 0.32804 0.0
H388 H 0.05716 0.14511 0.42151 0.0
H389 H 0.05737 0.17721 0.37464 0.0
H390 H 0.04126 0.19888 0.51192 0.0
H391 H 0.042 0.16689 0.56114 0.0
H392 H 0.01228 0.18635 0.56298 0.0
H393 H 0.93902 0.13339 0.40554 0.0
H394 H 0.95057 0.08914 0.45947 0.0
H395 H 0.03005 0.11625 0.50858 0.0
C396 C 0.0092 0.20704 0.34334 0.0
C397 C 0.99066 0.21662 0.2854 0.0
C398 C 0.96457 0.20701 0.28713 0.0
C399 C 0.95773 0.18607 0.33987 0.0
C400 C 0.97721 0.1752 0.39078 0.0
C401 C 1.0023 0.18584 0.39471 0.0
C402 C 0.02089 0.16784 0.44196 0.0
C403 C 0.0448 0.15983 0.38828 0.0
C404 C 0.02961 0.18076 0.52441 0.0
C405 C 1.00299 0.14459 0.45783 0.0
C406 C 0.97771 0.1494 0.42991 0.0
C407 C 0.95854 0.12969 0.42993 0.0
C408 C 0.96534 0.10453 0.45979 0.0
C409 C 0.99122 0.09923 0.48804 0.0
C410 C 0.01006 0.1197 0.48784 0.0
H411 H 0.31501 0.95379 0.20554 0.0
H412 H 0.26513 0.01282 0.32187 0.0
H413 H 0.29706 0.01719 0.43714 0.0
H414 H 0.34719 0.92672 0.40577 0.0
H415 H 0.3783 0.9239 0.3526 0.0
H416 H 0.34803 0.91877 0.29598 0.0
H417 H 0.36228 0.95439 0.1895 0.0
H418 H 0.39214 0.96023 0.24649 0.0
H419 H 0.36989 0.98722 0.22606 0.0
H420 H 0.33806 0.02369 0.51663 0.0
H421 H 0.38392 0.02981 0.56127 0.0
H422 H 0.40895 0.96808 0.39026 0.0
C423 C 0.31035 0.96682 0.25721 0.0
C424 C 0.28768 0.98301 0.25498 0.0
C425 C 0.28218 0.99997 0.32303 0.0
C426 C 0.3003 0.00264 0.38858 0.0
C427 C 0.32358 0.98801 0.38521 0.0
C428 C 0.32845 0.97003 0.32197 0.0
C429 C 0.35663 0.96017 0.32441 0.0
C430 C 0.35759 0.93064 0.34601 0.0
C431 C 0.37106 0.96587 0.24175 0.0
C432 C 0.36737 0.97679 0.39518 0.0
C433 C 0.34781 0.99221 0.43066 0.0
C434 C 0.35339 0.01128 0.49075 0.0
C435 C 0.37959 0.01485 0.51477 0.0
C436 C 0.39997 0.99951 0.47855 0.0
C437 C 0.39368 0.97986 0.41937 0.0
H438 H 0.52382 0.32536 0.22823 0.0
H439 H 0.46527 0.27804 0.35519 0.0
H440 H 0.46429 0.3105 0.47055 0.0
H441 H 0.5564 0.35527 0.42152 0.0
H442 H 0.55985 0.38657 0.3693 0.0
H443 H 0.56174 0.35624 0.31028 0.0
H444 H 0.52471 0.37326 0.21292 0.0
H445 H 0.52219 0.40328 0.27237 0.0
H446 H 0.49354 0.38286 0.25733 0.0
H447 H 0.46191 0.35184 0.55274 0.0
H448 H 0.46031 0.39783 0.6022 0.0
H449 H 0.51945 0.41973 0.42003 0.0
C450 C 0.51152 0.32137 0.28192 0.0
C451 C 0.49459 0.29925 0.28305 0.0
C452 C 0.47865 0.29466 0.35377 0.0
C453 C 0.47791 0.31307 0.41934 0.0
C454 C 0.49344 0.3357 0.41328 0.0
C455 C 0.51032 0.33972 0.34696 0.0
C456 C 0.52189 0.3673 0.34851 0.0
C457 C 0.55175 0.36628 0.36332 0.0
C458 C 0.51516 0.38255 0.26805 0.0
C459 C 0.50773 0.37873 0.42331 0.0
C460 C 0.4918 0.36 0.46061 0.0
C461 C 0.47471 0.36648 0.52525 0.0
C462 C 0.47371 0.39276 0.55209 0.0
C463 C 0.48968 0.41229 0.51438 0.0
C464 C 0.50729 0.40508 0.45037 0.0
H465 H 0.22238 0.51269 0.29945 0.0
H466 H 0.2098 0.58791 0.17876 0.0
H467 H 0.17299 0.59739 0.27449 0.0
H468 H 0.16273 0.4944 0.29908 0.0
H469 H 0.16057 0.47792 0.39849 0.0
H470 H 0.19183 0.48106 0.34806 0.0
H471 H 0.21142 0.50471 0.47736 0.0
H472 H 0.18035 0.50085 0.53019 0.0
H473 H 0.19491 0.53314 0.52071 0.0
H474 H 0.13066 0.59264 0.34958 0.0
H475 H 0.08884 0.57576 0.40722 0.0
H476 H 0.12804 0.50282 0.47601 0.0
C477 C 0.21307 0.53193 0.29773 0.0
C478 C 0.21906 0.5498 0.23332 0.0
C479 C 0.20574 0.5743 0.22922 0.0
C480 C 0.18473 0.57976 0.28314 0.0
C481 C 0.17754 0.56059 0.34114 0.0
C482 C 0.19179 0.53739 0.35041 0.0
C483 C 0.1773 0.51787 0.40507 0.0
C484 C 0.17284 0.49129 0.35989 0.0
C485 C 0.19186 0.51392 0.48828 0.0
C486 C 0.15175 0.53261 0.41815 0.0
C487 C 0.15251 0.55754 0.38334 0.0
C488 C 0.13011 0.57349 0.37936 0.0
C489 C 0.10638 0.56366 0.41148 0.0
C490 C 0.1052 0.53794 0.44557 0.0
C491 C 0.12834 0.52259 0.4504 0.0
H492 H 0.98435 0.78094 0.95398 0.0
H493 H 0.06234 0.78616 0.06069 0.0
H494 H 0.07229 0.82413 0.96957 0.0
H495 H 1.00168 0.80887 0.73454 0.0
H496 H 0.97073 0.82627 0.73236 0.0
H497 H 0.9731 0.79463 0.78334 0.0
H498 H 0.95428 0.81577 0.91808 0.0
H499 H 0.95272 0.84757 0.86919 0.0
H500 H 0.97104 0.84352 0.96477 0.0
H501 H 0.06969 0.86736 0.89589 0.0
H502 H 0.05611 0.91015 0.83529 0.0
H503 H 0.97899 0.87761 0.78121 0.0
C504 C 0.00408 0.78898 0.95357 0.0
C505 C 0.02285 0.78038 0.01228 0.0
C506 C 0.04805 0.79216 0.01417 0.0
C507 C 0.05376 0.81382 0.96303 0.0
C508 C 0.03407 0.82328 0.91029 0.0
C509 C 0.00987 0.81085 0.90372 0.0
C510 C 0.99063 0.82731 0.85364 0.0
C511 C 0.98363 0.81344 0.77105 0.0
C512 C 0.96573 0.83392 0.90452 0.0
C513 C 0.00711 0.85165 0.83839 0.0
C514 C 0.03229 0.84876 0.8696 0.0
C515 C 0.05023 0.86959 0.86926 0.0
C516 C 0.04228 0.8939 0.83552 0.0
C517 C 0.01648 0.89724 0.80385 0.0
C518 C 0.99887 0.87569 0.80478 0.0
H519 H 0.69048 0.04593 0.02811 0.0
H520 H 0.73502 0.97997 0.92847 0.0
H521 H 0.70331 0.97594 0.81255 0.0
H522 H 0.63285 0.01777 0.01178 0.0
H523 H 0.61338 0.04617 0.98349 0.0
H524 H 0.64343 0.05053 0.04076 0.0
H525 H 0.66148 0.08183 0.92686 0.0
H526 H 0.63107 0.07826 0.86981 0.0
H527 H 0.66198 0.07116 0.81937 0.0
H528 H 0.66195 0.97121 0.73299 0.0
H529 H 0.61581 0.96861 0.68694 0.0
H530 H 0.59655 0.03656 0.84105 0.0
C531 C 0.69416 0.03146 0.97956 0.0
C532 C 0.71514 0.01328 0.98696 0.0
C533 C 0.71931 0.99436 0.92321 0.0
C534 C 0.70128 0.99185 0.85735 0.0
C535 C 0.67947 0.00861 0.85596 0.0
C536 C 0.67611 0.02847 0.91448 0.0
C537 C 0.64904 0.04089 0.90797 0.0
C538 C 0.6338 0.03868 0.99088 0.0
C539 C 0.65102 0.06975 0.87926 0.0
C540 C 0.63702 0.02368 0.84075 0.0
C541 C 0.65509 0.0056 0.81027 0.0
C542 C 0.64784 0.98571 0.75469 0.0
C543 C 0.6215 0.98419 0.72978 0.0
C544 C 0.60265 0.00237 0.76079 0.0
C545 C 0.61065 0.02264 0.8157 0.0
H546 H 0.50689 0.68159 0.85715 0.0
H547 H 0.56922 0.72522 0.7367 0.0
H548 H 0.56661 0.69525 0.61492 0.0
H549 H 0.53114 0.62397 0.823 0.0
H550 H 0.50145 0.60544 0.8041 0.0
H551 H 0.50016 0.63513 0.8652 0.0
H552 H 0.46533 0.6553 0.76602 0.0
H553 H 0.46571 0.6252 0.70546 0.0
H554 H 0.4716 0.65647 0.65531 0.0
H555 H 0.56674 0.65433 0.5303 0.0
H556 H 0.56702 0.60801 0.48275 0.0
H557 H 0.50552 0.58937 0.66043 0.0
C558 C 0.51877 0.6857 0.8026 0.0
C559 C 0.53803 0.70572 0.80524 0.0
C560 C 0.55398 0.71029 0.73469 0.0
C561 C 0.55269 0.69323 0.66558 0.0
C562 C 0.53514 0.67203 0.66816 0.0
C563 C 0.51796 0.66857 0.73419 0.0
C564 C 0.50466 0.64181 0.7303 0.0
C565 C 0.50969 0.62566 0.81034 0.0
C566 C 0.47507 0.64489 0.71322 0.0
C567 C 0.5186 0.62987 0.65591 0.0
C568 C 0.53557 0.64784 0.61957 0.0
C569 C 0.553 0.64036 0.55672 0.0
C570 C 0.55326 0.61391 0.53095 0.0
C571 C 0.53635 0.59516 0.56843 0.0
C572 C 0.51837 0.60343 0.63009 0.0
H573 H 0.79356 0.4961 0.87819 0.0
H574 H 0.8084 0.42169 0.00152 0.0
H575 H 0.84674 0.41396 0.91022 0.0
H576 H 0.82363 0.47676 0.66084 0.0
H577 H 0.83683 0.50964 0.65172 0.0
H578 H 0.80564 0.5045 0.70274 0.0
H579 H 0.82345 0.52913 0.8329 0.0
H580 H 0.85485 0.53355 0.78426 0.0
H581 H 0.85279 0.51712 0.88377 0.0
H582 H 0.88938 0.4203 0.83651 0.0
H583 H 0.93054 0.43851 0.77767 0.0
H584 H 0.8886 0.5097 0.70679 0.0
C585 C 0.8038 0.47735 0.88151 0.0
C586 C 0.7979 0.45925 0.94535 0.0
C587 C 0.81242 0.43547 0.9515 0.0
C588 C 0.83429 0.43101 0.90013 0.0
C589 C 0.84114 0.45043 0.84257 0.0
C590 C 0.82589 0.47289 0.83141 0.0
C591 C 0.83986 0.49292 0.77729 0.0
C592 C 0.82565 0.49613 0.69315 0.0
C593 C 0.84292 0.51972 0.82232 0.0
C594 C 0.86608 0.47928 0.76606 0.0
C595 C 0.86626 0.45447 0.80174 0.0
C596 C 0.88924 0.43939 0.80628 0.0
C597 C 0.91257 0.44996 0.77348 0.0
C598 C 0.91277 0.47557 0.7383 0.0
C599 C 0.88909 0.49008 0.73346 0.0
H600 H 0.97653 0.19034 0.9908 0.0
H601 H 0.06142 0.19788 0.99621 0.0
H602 H 0.06544 0.15783 0.90751 0.0
H603 H 0.97424 0.12247 0.01294 0.0
H604 H 0.94657 0.1173 0.9443 0.0
H605 H 0.95024 0.14831 -0.00179 0.0
H606 H 0.94886 0.17359 0.85761 0.0
H607 H 0.94451 0.14269 0.80332 0.0
H608 H 0.97118 0.16431 0.77513 0.0
H609 H 0.05975 0.11391 0.83014 0.0
H610 H 0.0448 0.07311 0.7587 0.0
H611 H 0.9637 0.09485 0.80875 0.0
C612 C 0.99594 0.18393 0.9715 0.0
C613 C 0.01867 0.19721 -0.00022 0.0
C614 C 0.04376 0.18818 0.97396 0.0
C615 C 0.04621 0.16534 0.92433 0.0
C616 C 0.02336 0.15198 0.90073 0.0
C617 C 0.99869 0.16128 0.92233 0.0
C618 C 0.9772 0.1429 0.89261 0.0
C619 C 0.96113 0.13212 0.96642 0.0
C620 C 0.95939 0.1567 0.82833 0.0
C621 C 0.99357 0.12145 0.85238 0.0
C622 C 0.02014 0.12695 0.8573 0.0
C623 C 0.03896 0.10955 0.8254 0.0
C624 C 0.03031 0.08631 0.78563 0.0
C625 C 1.00308 0.08073 0.77831 0.0
C626 C 0.98465 0.09847 0.81327 0.0
H627 H 0.32036 0.02301 0.00707 0.0
H628 H 0.26993 0.9678 0.8755 0.0
H629 H 0.30395 0.96265 0.76629 0.0
H630 H 0.35388 0.05215 0.818 0.0
H631 H 0.38488 0.05393 0.87252 0.0
H632 H 0.35448 0.05771 0.92925 0.0
H633 H 0.36859 0.01979 0.02797 0.0
H634 H 0.39871 0.01545 0.97075 0.0
H635 H 0.37668 0.98793 0.98442 0.0
H636 H 0.34593 0.95711 0.68775 0.0
H637 H 0.3915 0.95422 0.63727 0.0
H638 H 0.41565 0.01283 0.82011 0.0
C639 C 0.31614 0.01051 0.95371 0.0
C640 C 0.29248 0.99582 0.94947 0.0
C641 C 0.2877 0.97952 0.87925 0.0
C642 C 0.30701 0.97637 0.81731 0.0
C643 C 0.33079 0.9899 0.82623 0.0
C644 C 0.33525 0.00704 0.89191 0.0
C645 C 0.3634 0.01703 0.89207 0.0
C646 C 0.3642 0.04699 0.87704 0.0
C647 C 0.37767 0.00959 0.97362 0.0
C648 C 0.37447 0.00198 0.81817 0.0
C649 C 0.35521 0.98665 0.78073 0.0
C650 C 0.36102 0.96936 0.71568 0.0
C651 C 0.38708 0.96765 0.68816 0.0
C652 C 0.40716 0.98321 0.72521 0.0
C653 C 0.40066 1.00088 0.79031 0.0
H654 H 0.45391 0.33114 0.03195 0.0
H655 H 0.50733 0.27711 0.90748 0.0
H656 H 0.51503 0.31035 0.7977 0.0
H657 H 0.42933 0.36717 0.83684 0.0
H658 H 0.42902 0.39815 0.89263 0.0
H659 H 0.42198 0.36781 0.94695 0.0
H660 H 0.4589 0.3787 0.05312 0.0
H661 H 0.46661 0.4086 -0.00172 0.0
H662 H 0.49189 0.38423 0.01592 0.0
H663 H 0.52487 0.35186 0.72282 0.0
H664 H 0.53315 0.39753 0.67857 0.0
H665 H 0.47394 0.42587 0.85219 0.0
C666 C 0.46639 0.32596 0.97962 0.0
C667 C 0.48001 0.30157 0.97789 0.0
C668 C 0.4964 0.29548 0.90922 0.0
C669 C 0.50099 0.31434 0.84689 0.0
C670 C 0.48877 0.33896 0.8539 0.0
C671 C 0.47134 0.34465 0.91762 0.0
C672 C 0.46361 0.37361 0.91766 0.0
C673 C 0.43423 0.37687 0.89727 0.0
C674 C 0.47069 0.38705 0.00117 0.0
C675 C 0.48061 0.38369 0.84713 0.0
C676 C 0.49462 0.36326 0.81045 0.0
C677 C 0.51359 0.36789 0.74978 0.0
C678 C 0.51839 0.39398 0.72596 0.0
C679 C 0.50427 0.41524 0.7625 0.0
C680 C 0.48482 0.40996 0.82285 0.0
H681 H 0.19496 0.55796 0.93584 0.0
H682 H 0.21136 0.47406 0.94825 0.0
H683 H 0.1724 0.46515 0.85916 0.0
H684 H 0.12804 0.55327 0.95997 0.0
H685 H 0.11956 0.57977 0.88993 0.0
H686 H 0.15089 0.57986 0.94226 0.0
H687 H 0.17519 0.58277 0.80023 0.0
H688 H 0.14388 0.58342 0.74744 0.0
H689 H 0.16807 0.55887 0.71965 0.0
H690 H 0.12815 0.46563 0.78174 0.0
H691 H 0.08564 0.47574 0.71266 0.0
H692 H 0.09847 0.55929 0.75832 0.0
C693 C 0.19079 0.53776 0.91768 0.0
C694 C 0.20623 0.5167 0.9483 0.0
C695 C 0.20004 0.4905 0.92414 0.0
C696 C 0.17781 0.48527 0.87429 0.0
C697 C 0.16217 0.50649 0.84884 0.0
C698 C 0.16873 0.53226 0.86866 0.0
C699 C 0.14805 0.55152 0.83869 0.0
C700 C 0.13593 0.567 0.91209 0.0
C701 C 0.15948 0.57024 0.77256 0.0
C702 C 0.12843 0.53261 0.80062 0.0
C703 C 0.13686 0.50672 0.80634 0.0
C704 C 0.12152 0.48588 0.77639 0.0
C705 C 0.09729 0.49178 0.73794 0.0
C706 C 0.08863 0.51829 0.73033 0.0
C707 C 0.1044 0.53879 0.76318 0.0
H708 H 0.03615 0.795 0.3198 0.0
H709 H 0.95169 0.78701 0.29644 0.0
H710 H 0.94556 0.82664 0.38574 0.0
H711 H 0.037 0.82282 0.5387 0.0
H712 H 0.06401 0.84431 0.51285 0.0
H713 H 0.061 0.81261 0.46228 0.0
H714 H 0.06243 0.83596 0.31845 0.0
H715 H 0.06455 0.86775 0.36827 0.0
H716 H 0.03845 0.86114 0.29486 0.0
H717 H 0.94935 0.87143 0.45875 0.0
H718 H 0.96255 0.9141 0.52236 0.0
H719 H 0.04464 0.89239 0.49263 0.0
C720 C 0.01638 0.80094 0.33674 0.0
C721 C 0.99437 0.78783 0.30258 0.0
C722 C 0.96875 0.79648 0.3238 0.0
C723 C 0.96514 0.81912 0.37368 0.0
C724 C 0.98737 0.8326 0.40225 0.0
C725 C 0.0125 0.82342 0.38598 0.0
C726 C 0.0332 0.84246 0.41726 0.0
C727 C 0.04977 0.8298 0.48693 0.0
C728 C 0.05067 0.8524 0.34542 0.0
C729 C 0.01589 0.86427 0.45109 0.0
C730 C 0.98951 0.85826 0.44268 0.0
C731 C 0.96997 0.87612 0.46669 0.0
C732 C 0.97764 0.90042 0.50194 0.0
C733 C 0.00463 0.90665 0.51232 0.0
C734 C 0.02384 0.8883 0.48576 0.0
H735 H 0.69223 0.0422 0.27916 0.0
H736 H 0.71163 0.95954 0.31046 0.0
H737 H 0.67162 0.95356 0.39712 0.0
H738 H 0.66206 0.05295 0.48939 0.0
H739 H 0.63758 0.07483 0.4463 0.0
H740 H 0.66971 0.07278 0.39931 0.0
H741 H 0.64772 0.06194 0.25712 0.0
H742 H 0.6156 0.063 0.30406 0.0
H743 H 0.6262 0.03378 0.24892 0.0
H744 H 0.62594 0.95586 0.46396 0.0
H745 H 0.58231 0.9675 0.52226 0.0
H746 H 0.59346 0.0487 0.44426 0.0
C747 C 0.68861 0.02313 0.30744 0.0
C748 C 0.70515 0.00142 0.28981 0.0
C749 C 0.69949 0.97652 0.32528 0.0
C750 C 0.67665 0.97292 0.37356 0.0
C751 C 0.65992 0.9945 0.38593 0.0
C752 C 0.66601 0.01927 0.35537 0.0
C753 C 0.64423 0.03893 0.37256 0.0
C754 C 0.65398 0.06118 0.43035 0.0
C755 C 0.63277 0.05005 0.29081 0.0
C756 C 0.62463 0.02134 0.41631 0.0
C757 C 0.6339 0.99575 0.4234 0.0
C758 C 0.61867 0.97591 0.45946 0.0
C759 C 0.59377 0.98262 0.49145 0.0
C760 C 0.58444 0.00899 0.48747 0.0
C761 C 0.60002 0.02837 0.44819 0.0
H762 H 0.53282 0.69447 0.16433 0.0
H763 H 0.60019 0.66747 0.02283 0.0
H764 H 0.59996 0.6253 0.10053 0.0
H765 H 0.54914 0.65803 0.3665 0.0
H766 H 0.51488 0.65093 0.38418 0.0
H767 H 0.5243 0.68108 0.33259 0.0
H768 H 0.49413 0.66895 0.20786 0.0
H769 H 0.48497 0.63853 0.25748 0.0
H770 H 0.49901 0.63797 0.15416 0.0
H771 H 0.58791 0.58369 0.17717 0.0
H772 H 0.56654 0.54698 0.25338 0.0
H773 H 0.50567 0.60093 0.33812 0.0
C774 C 0.54835 0.68021 0.15334 0.0
C775 C 0.56696 0.68429 0.08964 0.0
C776 C 0.58625 0.66479 0.07321 0.0
C777 C 0.58615 0.64078 0.11664 0.0
C778 C 0.56661 0.63669 0.17615 0.0
C779 C 0.54831 0.65606 0.1956 0.0
C780 C 0.5275 0.64566 0.25441 0.0
C781 C 0.52905 0.65976 0.33946 0.0
C782 C 0.49978 0.64791 0.21612 0.0
C783 C 0.53614 0.61716 0.26139 0.0
C784 C 0.55901 0.61243 0.2174 0.0
C785 C 0.57016 0.58725 0.21275 0.0
C786 C 0.5578 0.5665 0.25548 0.0
C787 C 0.53429 0.57102 0.30062 0.0
C788 C 0.52342 0.5967 0.30316 0.0
H789 H 0.8155 0.45142 0.25073 0.0
H790 H 0.79941 0.53505 0.22538 0.0
H791 H 0.83752 0.54516 0.31676 0.0
H792 H 0.84143 0.45381 0.47072 0.0
H793 H 0.86562 0.42881 0.44726 0.0
H794 H 0.83437 0.42865 0.39398 0.0
H795 H 0.8589 0.42915 0.25208 0.0
H796 H 0.89015 0.4301 0.30468 0.0
H797 H 0.88178 0.45542 0.23028 0.0
H798 H 0.88157 0.54583 0.39421 0.0
H799 H 0.92461 0.53685 0.46151 0.0
H800 H 0.91158 0.45269 0.43014 0.0
C801 C 0.81943 0.47181 0.2671 0.0
C802 C 0.80443 0.49246 0.2319 0.0
C803 C 0.81038 0.51895 0.25319 0.0
C804 C 0.83213 0.52485 0.30437 0.0
C805 C 0.84747 0.504 0.3342 0.0
C806 C 0.841 0.47797 0.3176 0.0
C807 C 0.86162 0.45917 0.3509 0.0
C808 C 0.85007 0.44158 0.41982 0.0
C809 C 0.87382 0.4425 0.28026 0.0
C810 C 0.88122 0.47864 0.38622 0.0
C811 C 0.87272 0.5044 0.37698 0.0
C812 C 0.88821 0.52569 0.40264 0.0
C813 C 0.91273 0.52042 0.4401 0.0
C814 C 0.92155 0.49407 0.45086 0.0
C815 C 0.90552 0.47307 0.4229 0.0
loop_
_geom_bond_atom_site_label_1
_geom_bond_atom_site_label_2
_geom_bond_distance
_geom_bond_site_symmetry_2
_ccdc_geom_bond_type
H0 C3 0.929 . S
H1 C6 0.929 . S
H2 C8 0.930 . S
C3 H0 0.929 . S
C3 C4 1.398 . S
C3 C5 1.396 1_554 S
C4 C3 1.398 . S
C4 C8 1.407 . S
C5 C3 1.396 1_556 S
C5 C6 1.394 . S
C6 H1 0.929 . S
C6 C5 1.394 . S
C6 C7 1.382 1_556 S
C7 C6 1.382 1_554 S
C7 C8 1.392 . S
C7 N9 1.420 . S
C8 H2 0.930 . S
C8 C4 1.407 . S
C8 C7 1.392 . S
N9 C7 1.420 . S
N9 C10 1.244 1_554 S
C10 N9 1.244 1_556 S
H11 C14 0.929 . S
H12 C17 0.929 . S
H13 C19 0.930 . S
C14 H11 0.929 . S
C14 C15 1.398 . S
C14 C16 1.396 1_554 S
C15 C14 1.398 . S
C15 C19 1.407 . S
C16 C14 1.396 1_556 S
C16 C17 1.394 . S
C17 H12 0.929 . S
C17 C16 1.394 . S
C17 C18 1.382 1_556 S
C18 C17 1.382 1_554 S
C18 C19 1.392 . S
C18 N20 1.420 . S
C19 H13 0.930 . S
C19 C15 1.407 . S
C19 C18 1.392 . S
N20 C18 1.420 . S
N20 C21 1.244 1_554 S
C21 N20 1.244 1_556 S
H22 C25 0.929 . S
H23 C28 0.929 . S
H24 C30 0.930 . S
C25 H22 0.929 . S
C25 C26 1.395 1_565 S
C25 C27 1.394 1_564 S
C26 C25 1.395 1_545 S
C26 C30 1.414 . S
C27 C25 1.394 1_546 S
C27 C28 1.397 . S
C28 H23 0.929 . S
C28 C27 1.397 . S
C28 C29 1.382 1_556 S
C29 C28 1.382 1_554 S
C29 C30 1.392 . S
C29 N31 1.420 . S
C30 H24 0.930 . S
C30 C26 1.414 . S
C30 C29 1.392 . S
N31 C29 1.420 . S
N31 C32 1.232 1_544 S
C32 N31 1.232 1_566 S
H33 C36 0.929 . S
H34 C39 0.929 . S
H35 C41 0.930 . S
C36 H33 0.929 . S
C36 C37 1.398 . S
C36 C38 1.396 1_554 S
C37 C36 1.398 . S
C37 C41 1.407 . S
C38 C36 1.396 1_556 S
C38 C39 1.394 . S
C39 H34 0.929 . S
C39 C38 1.394 . S
C39 C40 1.382 1_556 S
C40 C39 1.382 1_554 S
C40 C41 1.392 . S
C40 N42 1.420 . S
C41 H35 0.930 . S
C41 C37 1.407 . S
C41 C40 1.392 . S
N42 C40 1.420 . S
N42 C43 1.244 1_554 S
C43 N42 1.244 1_556 S
H44 C47 0.929 . S
H45 C50 0.929 . S
H46 C52 0.930 . S
C47 H44 0.929 . S
C47 C48 1.398 . S
C47 C49 1.396 . S
C48 C47 1.398 . S
C48 C52 1.407 . S
C49 C47 1.396 . S
C49 C50 1.394 . S
C50 H45 0.929 . S
C50 C49 1.394 . S
C50 C51 1.382 . S
C51 C50 1.382 . S
C51 C52 1.392 . S
C51 N53 1.420 . S
C52 H46 0.930 . S
C52 C48 1.407 . S
C52 C51 1.392 . S
N53 C51 1.420 . S
N53 C54 1.244 . S
C54 N53 1.244 . S
H55 C58 0.929 . S
H56 C61 0.929 . S
H57 C63 0.930 . S
C58 H55 0.929 . S
C58 C59 1.398 . S
C58 C60 1.396 . S
C59 C58 1.398 . S
C59 C63 1.407 . S
C60 C58 1.396 . S
C60 C61 1.394 . S
C61 H56 0.929 . S
C61 C60 1.394 . S
C61 C62 1.382 . S
C62 C61 1.382 . S
C62 C63 1.392 . S
C62 N64 1.420 . S
C63 H57 0.930 . S
C63 C59 1.407 . S
C63 C62 1.392 . S
N64 C62 1.420 . S
N64 C65 1.244 . S
C65 N64 1.244 . S
H66 C69 0.929 . S
H67 C72 0.929 . S
H68 C74 0.930 . S
C69 H66 0.929 . S
C69 C70 1.395 1_565 S
C69 C71 1.394 1_565 S
C70 C69 1.395 1_545 S
C70 C74 1.416 . S
C71 C69 1.394 1_545 S
C71 C72 1.398 . S
C72 H67 0.929 . S
C72 C71 1.398 . S
C72 C73 1.382 . S
C73 C72 1.382 . S
C73 C74 1.392 . S
C73 N75 1.420 . S
C74 H68 0.930 . S
C74 C70 1.416 . S
C74 C73 1.392 . S
N75 C73 1.420 . S
N75 C76 1.236 1_545 S
C76 N75 1.236 1_565 S
H77 C80 0.929 . S
H78 C83 0.929 . S
H79 C85 0.930 . S
C80 H77 0.929 . S
C80 C81 1.398 . S
C80 C82 1.396 . S
C81 C80 1.398 . S
C81 C85 1.407 . S
C82 C80 1.396 . S
C82 C83 1.394 . S
C83 H78 0.929 . S
C83 C82 1.394 . S
C83 C84 1.382 . S
C84 C83 1.382 . S
C84 C85 1.392 . S
C84 N86 1.420 . S
C85 H79 0.930 . S
C85 C81 1.407 . S
C85 C84 1.392 . S
N86 C84 1.420 . S
N86 C87 1.244 . S
C87 N86 1.244 . S
Zn88 O94 1.969 1_455 S
Zn88 O95 1.965 . S
Zn88 O99 2.024 . S
Zn88 O104 1.969 1_455 S
Zn89 O96 1.973 . S
Zn89 O102 1.971 . S
Zn89 O103 1.963 1_455 S
Zn89 O105 2.021 1_455 S
C90 O91 1.229 . S
C90 O99 1.058 . S
O91 C90 1.229 . S
C92 O93 1.229 1_655 S
C92 O105 1.058 . S
O93 C92 1.229 1_455 S
O94 Zn88 1.969 1_655 S
O94 C97 1.267 1_655 S
O95 Zn88 1.965 . S
O95 C106 1.260 1_545 S
O96 Zn89 1.973 . S
O96 C106 1.258 . S
C97 O94 1.267 1_455 S
C97 O98 1.228 . S
O98 C97 1.228 . S
O99 Zn88 2.024 . S
O99 C90 1.058 . S
C100 O101 1.228 . S
C100 O102 1.267 1_655 S
O101 C100 1.228 . S
O102 Zn89 1.971 . S
O102 C100 1.267 1_455 S
O103 Zn89 1.963 1_655 S
O103 C107 1.260 1_565 S
O104 Zn88 1.969 1_655 S
O104 C107 1.258 . S
O105 Zn89 2.021 1_655 S
O105 C92 1.058 . S
C106 O95 1.260 1_565 S
C106 O96 1.258 . S
C107 O103 1.260 1_545 S
C107 O104 1.258 . S
Zn108 O114 1.969 . S
Zn108 O115 1.965 1_565 S
Zn108 O119 2.024 1_565 S
Zn108 O124 1.969 . S
Zn109 O116 1.969 . S
Zn109 O122 1.969 . S
Zn109 O123 1.965 1_545 S
Zn109 O125 2.024 1_545 S
C110 O111 1.229 1_545 S
C110 O119 1.058 . S
O111 C110 1.229 1_565 S
C112 O113 1.229 1_565 S
C112 O125 1.058 . S
O113 C112 1.229 1_545 S
O114 Zn108 1.969 . S
O114 C117 1.267 . S
O115 Zn108 1.965 1_545 S
O115 C126 1.260 . S
O116 Zn109 1.969 . S
O116 C126 1.258 . S
C117 O114 1.267 . S
C117 O118 1.228 1_565 S
O118 C117 1.228 1_545 S
O119 Zn108 2.024 1_545 S
O119 C110 1.058 . S
C120 O121 1.228 1_545 S
C120 O122 1.267 . S
O121 C120 1.228 1_565 S
O122 Zn109 1.969 . S
O122 C120 1.267 . S
O123 Zn109 1.965 1_565 S
O123 C127 1.260 . S
O124 Zn108 1.969 . S
O124 C127 1.258 . S
O125 Zn109 2.024 1_565 S
O125 C112 1.058 . S
C126 O115 1.260 . S
C126 O116 1.258 . S
C127 O123 1.260 . S
C127 O124 1.258 . S
Zn128 O134 1.969 . S
Zn128 O135 1.965 . S
Zn128 O139 2.024 . S
Zn128 O144 1.969 . S
Zn129 O136 1.969 . S
Zn129 O142 1.969 . S
Zn129 O143 1.965 . S
Zn129 O145 2.024 . S
C130 O131 1.229 . S
C130 O139 1.058 . S
O131 C130 1.229 . S
C132 O133 1.229 . S
C132 O145 1.058 . S
O133 C132 1.229 . S
O134 Zn128 1.969 . S
O134 C137 1.267 . S
O135 Zn128 1.965 . S
O135 C146 1.260 . S
O136 Zn129 1.969 . S
O136 C146 1.258 . S
C137 O134 1.267 . S
C137 O138 1.228 . S
O138 C137 1.228 . S
O139 Zn128 2.024 . S
O139 C130 1.058 . S
C140 O141 1.228 . S
C140 O142 1.267 . S
O141 C140 1.228 . S
O142 Zn129 1.969 . S
O142 C140 1.267 . S
O143 Zn129 1.965 . S
O143 C147 1.260 . S
O144 Zn128 1.969 . S
O144 C147 1.258 . S
O145 Zn129 2.024 . S
O145 C132 1.058 . S
C146 O135 1.260 . S
C146 O136 1.258 . S
C147 O143 1.260 . S
C147 O144 1.258 . S
Zn148 O154 1.969 . S
Zn148 O155 1.965 . S
Zn148 O159 2.024 . S
Zn148 O164 1.969 . S
Zn149 O156 1.969 . S
Zn149 O162 1.969 . S
Zn149 O163 1.965 . S
Zn149 O165 2.024 . S
C150 O151 1.229 . S
C150 O159 1.058 . S
O151 C150 1.229 . S
C152 O153 1.229 . S
C152 O165 1.058 . S
O153 C152 1.229 . S
O154 Zn148 1.969 . S
O154 C157 1.267 . S
O155 Zn148 1.965 . S
O155 C166 1.260 . S
O156 Zn149 1.969 . S
O156 C166 1.258 1_655 S
C157 O154 1.267 . S
C157 O158 1.228 . S
O158 C157 1.228 . S
O159 Zn148 2.024 . S
O159 C150 1.058 . S
C160 O161 1.228 . S
C160 O162 1.267 . S
O161 C160 1.228 . S
O162 Zn149 1.969 . S
O162 C160 1.267 . S
O163 Zn149 1.965 . S
O163 C167 1.260 1_655 S
O164 Zn148 1.969 . S
O164 C167 1.258 . S
O165 Zn149 2.024 . S
O165 C152 1.058 . S
C166 O155 1.260 . S
C166 O156 1.258 1_455 S
C167 O163 1.260 1_455 S
C167 O164 1.258 . S
H168 C180 0.930 . S
H169 C182 0.930 . S
H170 C183 0.930 . S
H171 C187 0.959 . S
H172 C187 0.959 . S
H173 C187 0.961 . S
H174 C188 0.960 . S
H175 C188 0.961 . S
H176 C188 0.959 . S
H177 C191 0.929 . S
H178 C192 0.931 . S
H179 C194 0.930 . S
C180 H168 0.930 . S
C180 C181 1.399 1_545 S
C180 C185 1.399 . S
C181 C180 1.399 1_565 S
C181 C182 1.376 . S
C182 H169 0.930 . S
C182 C181 1.376 . S
C182 C183 1.388 . S
C183 H170 0.930 . S
C183 C182 1.388 . S
C183 C184 1.390 . S
C184 C183 1.390 . S
C184 C185 1.394 1_565 S
C184 C190 1.465 . S
C185 C180 1.399 . S
C185 C184 1.394 1_545 S
C185 C186 1.516 . S
C186 C185 1.516 . S
C186 C187 1.502 . S
C186 C188 1.561 . S
C186 C189 1.526 . S
C187 H171 0.959 . S
C187 H172 0.959 . S
C187 H173 0.961 . S
C187 C186 1.502 . S
C188 H174 0.960 . S
C188 H175 0.961 . S
C188 H176 0.959 . S
C188 C186 1.561 . S
C189 C186 1.526 . S
C189 C190 1.396 1_545 S
C189 C194 1.390 . S
C190 C184 1.465 . S
C190 C189 1.396 1_565 S
C190 C191 1.399 . S
C191 H177 0.929 . S
C191 C190 1.399 . S
C191 C192 1.385 . S
C192 H178 0.931 . S
C192 C191 1.385 . S
C192 C193 1.389 . S
C193 C192 1.389 . S
C193 C194 1.387 1_565 S
C194 H179 0.930 . S
C194 C189 1.390 . S
C194 C193 1.387 1_545 S
H195 C207 0.930 . S
H196 C209 0.930 . S
H197 C210 0.930 . S
H198 C214 0.959 . S
H199 C214 0.959 . S
H200 C214 0.961 . S
H201 C215 0.960 . S
H202 C215 0.961 . S
H203 C215 0.959 . S
H204 C218 0.929 . S
H205 C219 0.931 . S
H206 C221 0.930 . S
C207 H195 0.930 . S
C207 C208 1.399 . S
C207 C212 1.399 . S
C208 C207 1.399 . S
C208 C209 1.376 . S
C209 H196 0.930 . S
C209 C208 1.376 . S
C209 C210 1.388 . S
C210 H197 0.930 . S
C210 C209 1.388 . S
C210 C211 1.390 . S
C211 C210 1.390 . S
C211 C212 1.394 . S
C211 C217 1.465 . S
C212 C207 1.399 . S
C212 C211 1.394 . S
C212 C213 1.516 . S
C213 C212 1.516 . S
C213 C214 1.502 . S
C213 C215 1.561 . S
C213 C216 1.526 . S
C214 H198 0.959 . S
C214 H199 0.959 . S
C214 H200 0.961 . S
C214 C213 1.502 . S
C215 H201 0.960 . S
C215 H202 0.961 . S
C215 H203 0.959 . S
C215 C213 1.561 . S
C216 C213 1.526 . S
C216 C217 1.396 . S
C216 C221 1.390 . S
C217 C211 1.465 . S
C217 C216 1.396 . S
C217 C218 1.399 . S
C218 H204 0.929 . S
C218 C217 1.399 . S
C218 C219 1.385 . S
C219 H205 0.931 . S
C219 C218 1.385 . S
C219 C220 1.389 . S
C220 C219 1.389 . S
C220 C221 1.387 . S
C221 H206 0.930 . S
C221 C216 1.390 . S
C221 C220 1.387 . S
H222 C234 0.930 . S
H223 C236 0.930 . S
H224 C237 0.930 . S
H225 C241 0.959 . S
H226 C241 0.959 . S
H227 C241 0.961 . S
H228 C242 0.960 . S
H229 C242 0.961 . S
H230 C242 0.959 . S
H231 C245 0.929 . S
H232 C246 0.931 . S
H233 C248 0.930 . S
C234 H222 0.930 . S
C234 C235 1.399 . S
C234 C239 1.399 . S
C235 C234 1.399 . S
C235 C236 1.376 . S
C236 H223 0.930 . S
C236 C235 1.376 . S
C236 C237 1.388 . S
C237 H224 0.930 . S
C237 C236 1.388 . S
C237 C238 1.390 . S
C238 C237 1.390 . S
C238 C239 1.394 . S
C238 C244 1.465 . S
C239 C234 1.399 . S
C239 C238 1.394 . S
C239 C240 1.516 . S
C240 C239 1.516 . S
C240 C241 1.502 . S
C240 C242 1.561 . S
C240 C243 1.526 . S
C241 H225 0.959 . S
C241 H226 0.959 . S
C241 H227 0.961 . S
C241 C240 1.502 . S
C242 H228 0.960 . S
C242 H229 0.961 . S
C242 H230 0.959 . S
C242 C240 1.561 . S
C243 C240 1.526 . S
C243 C244 1.396 . S
C243 C248 1.390 . S
C244 C238 1.465 . S
C244 C243 1.396 . S
C244 C245 1.399 . S
C245 H231 0.929 . S
C245 C244 1.399 . S
C245 C246 1.385 . S
C246 H232 0.931 . S
C246 C245 1.385 . S
C246 C247 1.389 . S
C247 C246 1.389 . S
C247 C248 1.387 . S
C248 H233 0.930 . S
C248 C243 1.390 . S
C248 C247 1.387 . S
H249 C261 0.930 . S
H250 C263 0.930 . S
H251 C264 0.930 . S
H252 C268 0.959 1_655 S
H253 C268 0.959 1_655 S
H254 C268 0.961 . S
H255 C269 0.960 . S
H256 C269 0.961 . S
H257 C269 0.959 . S
H258 C272 0.929 . S
H259 C273 0.931 . S
H260 C275 0.930 . S
C261 H249 0.930 . S
C261 C262 1.399 . S
C261 C266 1.399 . S
C262 C261 1.399 . S
C262 C263 1.376 . S
C263 H250 0.930 . S
C263 C262 1.376 . S
C263 C264 1.388 . S
C264 H251 0.930 . S
C264 C263 1.388 . S
C264 C265 1.390 . S
C265 C264 1.390 . S
C265 C266 1.394 . S
C265 C271 1.465 . S
C266 C261 1.399 . S
C266 C265 1.394 . S
C266 C267 1.516 . S
C267 C266 1.516 . S
C267 C268 1.502 . S
C267 C269 1.561 . S
C267 C270 1.526 . S
C268 H252 0.959 1_455 S
C268 H253 0.959 1_455 S
C268 H254 0.961 . S
C268 C267 1.502 . S
C269 H255 0.960 . S
C269 H256 0.961 . S
C269 H257 0.959 . S
C269 C267 1.561 . S
C270 C267 1.526 . S
C270 C271 1.396 . S
C270 C275 1.390 . S
C271 C265 1.465 . S
C271 C270 1.396 . S
C271 C272 1.399 . S
C272 H258 0.929 . S
C272 C271 1.399 . S
C272 C273 1.385 . S
C273 H259 0.931 . S
C273 C272 1.385 . S
C273 C274 1.389 . S
C274 C273 1.389 . S
C274 C275 1.387 . S
C275 H260 0.930 . S
C275 C270 1.390 . S
C275 C274 1.387 . S
H276 C288 0.930 . S
H277 C290 0.930 . S
H278 C291 0.930 . S
H279 C295 0.959 . S
H280 C295 0.959 . S
H281 C295 0.961 . S
H282 C296 0.960 . S
H283 C296 0.961 . S
H284 C296 0.959 . S
H285 C299 0.929 . S
H286 C300 0.931 . S
H287 C302 0.930 . S
C288 H276 0.930 . S
C288 C289 1.399 1_565 S
C288 C293 1.399 . S
C289 C288 1.399 1_545 S
C289 C290 1.376 . S
C290 H277 0.930 . S
C290 C289 1.376 . S
C290 C291 1.388 . S
C291 H278 0.930 . S
C291 C290 1.388 . S
C291 C292 1.390 . S
C292 C291 1.390 . S
C292 C293 1.394 1_545 S
C292 C298 1.465 . S
C293 C288 1.399 . S
C293 C292 1.394 1_565 S
C293 C294 1.516 . S
C294 C293 1.516 . S
C294 C295 1.502 . S
C294 C296 1.561 . S
C294 C297 1.526 . S
C295 H279 0.959 . S
C295 H280 0.959 . S
C295 H281 0.961 . S
C295 C294 1.502 . S
C296 H282 0.960 . S
C296 H283 0.961 . S
C296 H284 0.959 . S
C296 C294 1.561 . S
C297 C294 1.526 . S
C297 C298 1.396 1_565 S
C297 C302 1.390 . S
C298 C292 1.465 . S
C298 C297 1.396 1_545 S
C298 C299 1.399 . S
C299 H285 0.929 . S
C299 C298 1.399 . S
C299 C300 1.385 . S
C300 H286 0.931 . S
C300 C299 1.385 . S
C300 C301 1.389 . S
C301 C300 1.389 . S
C301 C302 1.387 1_545 S
C302 H287 0.930 . S
C302 C297 1.390 . S
C302 C301 1.387 1_565 S
H303 C315 0.930 . S
H304 C317 0.930 1_554 S
H305 C318 0.930 . S
H306 C322 0.959 . S
H307 C322 0.959 . S
H308 C322 0.961 . S
H309 C323 0.960 . S
H310 C323 0.961 . S
H311 C323 0.959 . S
H312 C326 0.929 . S
H313 C327 0.931 . S
H314 C329 0.930 . S
C315 H303 0.930 . S
C315 C316 1.399 . S
C315 C320 1.399 . S
C316 C315 1.399 . S
C316 C317 1.376 . S
C317 H304 0.930 1_556 S
C317 C316 1.376 . S
C317 C318 1.388 . S
C318 H305 0.930 . S
C318 C317 1.388 . S
C318 C319 1.390 . S
C319 C318 1.390 . S
C319 C320 1.394 . S
C319 C325 1.465 . S
C320 C315 1.399 . S
C320 C319 1.394 . S
C320 C321 1.516 . S
C321 C320 1.516 . S
C321 C322 1.502 . S
C321 C323 1.561 . S
C321 C324 1.526 . S
C322 H306 0.959 . S
C322 H307 0.959 . S
C322 H308 0.961 . S
C322 C321 1.502 . S
C323 H309 0.960 . S
C323 H310 0.961 . S
C323 H311 0.959 . S
C323 C321 1.561 . S
C324 C321 1.526 . S
C324 C325 1.396 . S
C324 C329 1.390 . S
C325 C319 1.465 . S
C325 C324 1.396 . S
C325 C326 1.399 . S
C326 H312 0.929 . S
C326 C325 1.399 . S
C326 C327 1.385 . S
C327 H313 0.931 . S
C327 C326 1.385 . S
C327 C328 1.389 . S
C328 C327 1.389 . S
C328 C329 1.387 . S
C329 H314 0.930 . S
C329 C324 1.390 . S
C329 C328 1.387 . S
H330 C342 0.930 . S
H331 C344 0.930 1_554 S
H332 C345 0.930 . S
H333 C349 0.959 . S
H334 C349 0.959 . S
H335 C349 0.961 . S
H336 C350 0.960 . S
H337 C350 0.961 . S
H338 C350 0.959 . S
H339 C353 0.929 . S
H340 C354 0.931 . S
H341 C356 0.930 . S
C342 H330 0.930 . S
C342 C343 1.399 . S
C342 C347 1.399 . S
C343 C342 1.399 . S
C343 C344 1.376 . S
C344 H331 0.930 1_556 S
C344 C343 1.376 . S
C344 C345 1.388 . S
C345 H332 0.930 . S
C345 C344 1.388 . S
C345 C346 1.390 . S
C346 C345 1.390 . S
C346 C347 1.394 . S
C346 C352 1.465 . S
C347 C342 1.399 . S
C347 C346 1.394 . S
C347 C348 1.516 . S
C348 C347 1.516 . S
C348 C349 1.502 . S
C348 C350 1.561 . S
C348 C351 1.526 . S
C349 H333 0.959 . S
C349 H334 0.959 . S
C349 H335 0.961 . S
C349 C348 1.502 . S
C350 H336 0.960 . S
C350 H337 0.961 . S
C350 H338 0.959 . S
C350 C348 1.561 . S
C351 C348 1.526 . S
C351 C352 1.396 . S
C351 C356 1.390 . S
C352 C346 1.465 . S
C352 C351 1.396 . S
C352 C353 1.399 . S
C353 H339 0.929 . S
C353 C352 1.399 . S
C353 C354 1.385 . S
C354 H340 0.931 . S
C354 C353 1.385 . S
C354 C355 1.389 . S
C355 C354 1.389 . S
C355 C356 1.387 . S
C356 H341 0.930 . S
C356 C351 1.390 . S
C356 C355 1.387 . S
H357 C369 0.930 1_554 S
H358 C371 0.930 . S
H359 C372 0.930 . S
H360 C376 0.959 . S
H361 C376 0.959 . S
H362 C376 0.961 . S
H363 C377 0.960 1_554 S
H364 C377 0.961 . S
H365 C377 0.959 . S
H366 C380 0.929 . S
H367 C381 0.931 . S
H368 C383 0.930 1_455 S
C369 H357 0.930 1_556 S
C369 C370 1.399 . S
C369 C374 1.399 . S
C370 C369 1.399 . S
C370 C371 1.376 . S
C371 H358 0.930 . S
C371 C370 1.376 . S
C371 C372 1.388 . S
C372 H359 0.930 . S
C372 C371 1.388 . S
C372 C373 1.390 . S
C373 C372 1.390 . S
C373 C374 1.394 . S
C373 C379 1.465 . S
C374 C369 1.399 . S
C374 C373 1.394 . S
C374 C375 1.516 . S
C375 C374 1.516 . S
C375 C376 1.502 1_655 S
C375 C377 1.561 . S
C375 C378 1.526 . S
C376 H360 0.959 . S
C376 H361 0.959 . S
C376 H362 0.961 . S
C376 C375 1.502 1_455 S
C377 H363 0.960 1_556 S
C377 H364 0.961 . S
C377 H365 0.959 . S
C377 C375 1.561 . S
C378 C375 1.526 . S
C378 C379 1.396 . S
C378 C383 1.390 . S
C379 C373 1.465 . S
C379 C378 1.396 . S
C379 C380 1.399 . S
C380 H366 0.929 . S
C380 C379 1.399 . S
C380 C381 1.385 . S
C381 H367 0.931 . S
C381 C380 1.385 . S
C381 C382 1.389 . S
C382 C381 1.389 . S
C382 C383 1.387 . S
C383 H368 0.930 1_655 S
C383 C378 1.390 . S
C383 C382 1.387 . S
H384 C396 0.930 . S
H385 C398 0.930 . S
H386 C399 0.930 . S
H387 C403 0.959 1_655 S
H388 C403 0.962 . S
H389 C403 0.961 . S
H390 C404 0.960 . S
H391 C404 0.961 . S
H392 C404 0.959 . S
H393 C407 0.929 . S
H394 C408 0.931 . S
H395 C410 0.930 . S
C396 H384 0.930 . S
C396 C397 1.399 . S
C396 C401 1.399 . S
C397 C396 1.399 . S
C397 C398 1.376 . S
C398 H385 0.930 . S
C398 C397 1.376 . S
C398 C399 1.388 . S
C399 H386 0.930 . S
C399 C398 1.388 . S
C399 C400 1.390 . S
C400 C399 1.390 . S
C400 C401 1.394 . S
C400 C406 1.465 . S
C401 C396 1.399 . S
C401 C400 1.394 . S
C401 C402 1.516 . S
C402 C401 1.516 . S
C402 C403 1.502 . S
C402 C404 1.561 . S
C402 C405 1.526 . S
C403 H387 0.959 1_455 S
C403 H388 0.962 . S
C403 H389 0.961 . S
C403 C402 1.502 . S
C404 H390 0.960 . S
C404 H391 0.961 . S
C404 H392 0.959 . S
C404 C402 1.561 . S
C405 C402 1.526 . S
C405 C406 1.396 . S
C405 C410 1.390 . S
C406 C400 1.465 . S
C406 C405 1.396 . S
C406 C407 1.399 . S
C407 H393 0.929 . S
C407 C406 1.399 . S
C407 C408 1.385 . S
C408 H394 0.931 . S
C408 C407 1.385 . S
C408 C409 1.389 . S
C409 C408 1.389 . S
C409 C410 1.387 . S
C410 H395 0.930 . S
C410 C405 1.390 . S
C410 C409 1.387 . S
H411 C423 0.930 . S
H412 C425 0.930 . S
H413 C426 0.930 . S
H414 C430 0.959 . S
H415 C430 0.959 . S
H416 C430 0.961 . S
H417 C431 0.960 . S
H418 C431 0.961 . S
H419 C431 0.959 . S
H420 C434 0.929 . S
H421 C435 0.931 . S
H422 C437 0.930 . S
C423 H411 0.930 . S
C423 C424 1.399 1_565 S
C423 C428 1.399 . S
C424 C423 1.399 1_545 S
C424 C425 1.376 . S
C425 H412 0.930 . S
C425 C424 1.376 . S
C425 C426 1.388 . S
C426 H413 0.930 . S
C426 C425 1.388 . S
C426 C427 1.390 . S
C427 C426 1.390 . S
C427 C428 1.394 1_545 S
C427 C433 1.465 . S
C428 C423 1.399 . S
C428 C427 1.394 1_565 S
C428 C429 1.516 . S
C429 C428 1.516 . S
C429 C430 1.502 . S
C429 C431 1.561 . S
C429 C432 1.526 . S
C430 H414 0.959 . S
C430 H415 0.959 . S
C430 H416 0.961 . S
C430 C429 1.502 . S
C431 H417 0.960 . S
C431 H418 0.961 . S
C431 H419 0.959 . S
C431 C429 1.561 . S
C432 C429 1.526 . S
C432 C433 1.396 1_565 S
C432 C437 1.390 . S
C433 C427 1.465 . S
C433 C432 1.396 1_545 S
C433 C434 1.399 . S
C434 H420 0.929 . S
C434 C433 1.399 . S
C434 C435 1.385 . S
C435 H421 0.931 . S
C435 C434 1.385 . S
C435 C436 1.389 1_545 S
C436 C435 1.389 1_565 S
C436 C437 1.387 . S
C437 H422 0.930 . S
C437 C432 1.390 . S
C437 C436 1.387 . S
H438 C450 0.930 . S
H439 C452 0.930 . S
H440 C453 0.930 . S
H441 C457 0.959 . S
H442 C457 0.959 . S
H443 C457 0.961 . S
H444 C458 0.960 . S
H445 C458 0.961 . S
H446 C458 0.959 . S
H447 C461 0.929 . S
H448 C462 0.931 . S
H449 C464 0.930 . S
C450 H438 0.930 . S
C450 C451 1.399 . S
C450 C455 1.399 . S
C451 C450 1.399 . S
C451 C452 1.376 . S
C452 H439 0.930 . S
C452 C451 1.376 . S
C452 C453 1.388 . S
C453 H440 0.930 . S
C453 C452 1.388 . S
C453 C454 1.390 . S
C454 C453 1.390 . S
C454 C455 1.394 . S
C454 C460 1.465 . S
C455 C450 1.399 . S
C455 C454 1.394 . S
C455 C456 1.516 . S
C456 C455 1.516 . S
C456 C457 1.502 . S
C456 C458 1.561 . S
C456 C459 1.526 . S
C457 H441 0.959 . S
C457 H442 0.959 . S
C457 H443 0.961 . S
C457 C456 1.502 . S
C458 H444 0.960 . S
C458 H445 0.961 . S
C458 H446 0.959 . S
C458 C456 1.561 . S
C459 C456 1.526 . S
C459 C460 1.396 . S
C459 C464 1.390 . S
C460 C454 1.465 . S
C460 C459 1.396 . S
C460 C461 1.399 . S
C461 H447 0.929 . S
C461 C460 1.399 . S
C461 C462 1.385 . S
C462 H448 0.931 . S
C462 C461 1.385 . S
C462 C463 1.389 . S
C463 C462 1.389 . S
C463 C464 1.387 . S
C464 H449 0.930 . S
C464 C459 1.390 . S
C464 C463 1.387 . S
H465 C477 0.930 . S
H466 C479 0.930 . S
H467 C480 0.930 . S
H468 C484 0.959 . S
H469 C484 0.959 . S
H470 C484 0.961 . S
H471 C485 0.960 . S
H472 C485 0.961 . S
H473 C485 0.959 . S
H474 C488 0.929 . S
H475 C489 0.931 . S
H476 C491 0.930 . S
C477 H465 0.930 . S
C477 C478 1.399 . S
C477 C482 1.399 . S
C478 C477 1.399 . S
C478 C479 1.376 . S
C479 H466 0.930 . S
C479 C478 1.376 . S
C479 C480 1.388 . S
C480 H467 0.930 . S
C480 C479 1.388 . S
C480 C481 1.390 . S
C481 C480 1.390 . S
C481 C482 1.394 . S
C481 C487 1.465 . S
C482 C477 1.399 . S
C482 C481 1.394 . S
C482 C483 1.516 . S
C483 C482 1.516 . S
C483 C484 1.502 . S
C483 C485 1.561 . S
C483 C486 1.526 . S
C484 H468 0.959 . S
C484 H469 0.959 . S
C484 H470 0.961 . S
C484 C483 1.502 . S
C485 H471 0.960 . S
C485 H472 0.961 . S
C485 H473 0.959 . S
C485 C483 1.561 . S
C486 C483 1.526 . S
C486 C487 1.396 . S
C486 C491 1.390 . S
C487 C481 1.465 . S
C487 C486 1.396 . S
C487 C488 1.399 . S
C488 H474 0.929 . S
C488 C487 1.399 . S
C488 C489 1.385 . S
C489 H475 0.931 . S
C489 C488 1.385 . S
C489 C490 1.389 . S
C490 C489 1.389 . S
C490 C491 1.387 . S
C491 H476 0.930 . S
C491 C486 1.390 . S
C491 C490 1.387 . S
H492 C504 0.930 . S
H493 C506 0.930 . S
H494 C507 0.930 1_554 S
H495 C511 0.984 . S
H496 C511 0.959 . S
H497 C511 0.961 . S
H498 C512 0.960 . S
H499 C512 0.961 . S
H500 C512 0.959 . S
H501 C515 0.929 . S
H502 C516 0.931 . S
H503 C518 0.930 . S
C504 H492 0.930 . S
C504 C505 1.399 . S
C504 C509 1.399 . S
C505 C504 1.399 . S
C505 C506 1.376 1_556 S
C506 H493 0.930 . S
C506 C505 1.376 1_554 S
C506 C507 1.388 1_554 S
C507 H494 0.930 1_556 S
C507 C506 1.388 1_556 S
C507 C508 1.390 . S
C508 C507 1.390 . S
C508 C509 1.394 . S
C508 C514 1.465 . S
C509 C504 1.399 . S
C509 C508 1.394 . S
C509 C510 1.516 . S
C510 C509 1.516 . S
C510 C511 1.502 . S
C510 C512 1.561 . S
C510 C513 1.526 . S
C511 H495 0.984 . S
C511 H496 0.959 . S
C511 H497 0.961 . S
C511 C510 1.502 . S
C512 H498 0.960 . S
C512 H499 0.961 . S
C512 H500 0.959 . S
C512 C510 1.561 . S
C513 C510 1.526 . S
C513 C514 1.396 . S
C513 C518 1.390 . S
C514 C508 1.465 . S
C514 C513 1.396 . S
C514 C515 1.399 . S
C515 H501 0.929 . S
C515 C514 1.399 . S
C515 C516 1.385 1_655 S
C516 H502 0.931 . S
C516 C515 1.385 1_455 S
C516 C517 1.389 1_455 S
C517 C516 1.389 1_655 S
C517 C518 1.387 . S
C518 H503 0.930 . S
C518 C513 1.390 . S
C518 C517 1.387 . S
H519 C531 0.930 1_554 S
H520 C533 0.929 1_565 S
H521 C534 0.930 . S
H522 C538 0.959 1_556 S
H523 C538 0.959 . S
H524 C538 0.961 . S
H525 C539 0.960 1_554 S
H526 C539 0.961 . S
H527 C539 0.959 . S
H528 C542 0.929 . S
H529 C543 0.931 . S
H530 C545 0.930 . S
C531 H519 0.930 1_556 S
C531 C532 1.399 . S
C531 C536 1.399 . S
C532 C531 1.399 . S
C532 C533 1.376 . S
C533 H520 0.929 1_545 S
C533 C532 1.376 . S
C533 C534 1.388 . S
C534 H521 0.930 . S
C534 C533 1.388 . S
C534 C535 1.390 . S
C535 C534 1.390 . S
C535 C536 1.394 . S
C535 C541 1.465 . S
C536 C531 1.399 . S
C536 C535 1.394 . S
C536 C537 1.516 . S
C537 C536 1.516 . S
C537 C538 1.502 1_546 S
C537 C539 1.561 . S
C537 C540 1.526 . S
C538 H522 0.959 1_554 S
C538 H523 0.959 . S
C538 H524 0.961 . S
C538 C537 1.502 1_564 S
C539 H525 0.960 1_556 S
C539 H526 0.961 . S
C539 H527 0.959 . S
C539 C537 1.561 . S
C540 C537 1.526 . S
C540 C541 1.396 . S
C540 C545 1.390 . S
C541 C535 1.465 . S
C541 C540 1.396 . S
C541 C542 1.399 . S
C542 H528 0.929 . S
C542 C541 1.399 . S
C542 C543 1.385 . S
C543 H529 0.931 . S
C543 C542 1.385 . S
C543 C544 1.389 . S
C544 C543 1.389 . S
C544 C545 1.387 . S
C545 H530 0.930 . S
C545 C540 1.390 . S
C545 C544 1.387 . S
H546 C558 0.930 1_554 S
H547 C560 0.930 . S
H548 C561 0.930 . S
H549 C565 0.959 1_556 S
H550 C565 0.959 . S
H551 C565 0.961 . S
H552 C566 0.960 1_554 S
H553 C566 0.961 . S
H554 C566 0.959 . S
H555 C569 0.929 . S
H556 C570 0.931 . S
H557 C572 0.930 . S
C558 H546 0.930 1_556 S
C558 C559 1.399 . S
C558 C563 1.399 . S
C559 C558 1.399 . S
C559 C560 1.376 . S
C560 H547 0.930 . S
C560 C559 1.376 . S
C560 C561 1.388 . S
C561 H548 0.930 . S
C561 C560 1.388 . S
C561 C562 1.390 . S
C562 C561 1.390 . S
C562 C563 1.394 . S
C562 C568 1.465 . S
C563 C558 1.399 . S
C563 C562 1.394 . S
C563 C564 1.516 . S
C564 C563 1.516 . S
C564 C565 1.502 1_556 S
C564 C566 1.561 . S
C564 C567 1.526 . S
C565 H549 0.959 1_554 S
C565 H550 0.959 . S
C565 H551 0.961 . S
C565 C564 1.502 1_554 S
C566 H552 0.960 1_556 S
C566 H553 0.961 . S
C566 H554 0.959 . S
C566 C564 1.561 . S
C567 C564 1.526 . S
C567 C568 1.396 . S
C567 C572 1.390 . S
C568 C562 1.465 . S
C568 C567 1.396 . S
C568 C569 1.399 . S
C569 H555 0.929 . S
C569 C568 1.399 . S
C569 C570 1.385 . S
C570 H556 0.931 . S
C570 C569 1.385 . S
C570 C571 1.389 . S
C571 C570 1.389 . S
C571 C572 1.387 . S
C572 H557 0.930 . S
C572 C567 1.390 . S
C572 C571 1.387 . S
H573 C585 0.930 . S
H574 C587 0.930 . S
H575 C588 0.930 1_554 S
H576 C592 0.959 . S
H577 C592 0.959 . S
H578 C592 0.961 . S
H579 C593 0.960 . S
H580 C593 0.961 . S
H581 C593 0.959 . S
H582 C596 0.929 . S
H583 C597 0.931 . S
H584 C599 0.930 . S
C585 H573 0.930 . S
C585 C586 1.399 . S
C585 C590 1.399 . S
C586 C585 1.399 . S
C586 C587 1.376 1_556 S
C587 H574 0.930 . S
C587 C586 1.376 1_554 S
C587 C588 1.388 1_554 S
C588 H575 0.930 1_556 S
C588 C587 1.388 1_556 S
C588 C589 1.390 . S
C589 C588 1.390 . S
C589 C590 1.394 . S
C589 C595 1.465 . S
C590 C585 1.399 . S
C590 C589 1.394 . S
C590 C591 1.516 . S
C591 C590 1.516 . S
C591 C592 1.502 . S
C591 C593 1.561 . S
C591 C594 1.526 . S
C592 H576 0.959 . S
C592 H577 0.959 . S
C592 H578 0.961 . S
C592 C591 1.502 . S
C593 H579 0.960 . S
C593 H580 0.961 . S
C593 H581 0.959 . S
C593 C591 1.561 . S
C594 C591 1.526 . S
C594 C595 1.396 . S
C594 C599 1.390 . S
C595 C589 1.465 . S
C595 C594 1.396 . S
C595 C596 1.399 . S
C596 H582 0.929 . S
C596 C595 1.399 . S
C596 C597 1.385 . S
C597 H583 0.931 . S
C597 C596 1.385 . S
C597 C598 1.389 . S
C598 C597 1.389 . S
C598 C599 1.387 . S
C599 H584 0.930 . S
C599 C594 1.390 . S
C599 C598 1.387 . S
H600 C612 0.930 . S
H601 C614 0.930 . S
H602 C615 0.930 . S
H603 C619 0.959 . S
H604 C619 0.959 . S
H605 C619 0.961 . S
H606 C620 0.960 . S
H607 C620 0.961 . S
H608 C620 0.959 . S
H609 C623 0.929 . S
H610 C624 0.931 . S
H611 C626 0.930 . S
C612 H600 0.930 . S
C612 C613 1.399 1_556 S
C612 C617 1.399 . S
C613 C612 1.399 1_554 S
C613 C614 1.376 . S
C614 H601 0.930 . S
C614 C613 1.376 . S
C614 C615 1.388 . S
C615 H602 0.930 . S
C615 C614 1.388 . S
C615 C616 1.390 1_554 S
C616 C615 1.390 1_556 S
C616 C617 1.394 . S
C616 C622 1.465 . S
C617 C612 1.399 . S
C617 C616 1.394 . S
C617 C618 1.516 . S
C618 C617 1.516 . S
C618 C619 1.502 1_455 S
C618 C620 1.561 . S
C618 C621 1.526 . S
C619 H603 0.959 . S
C619 H604 0.959 . S
C619 H605 0.961 . S
C619 C618 1.502 1_655 S
C620 H606 0.960 . S
C620 H607 0.961 . S
C620 H608 0.959 . S
C620 C618 1.561 . S
C621 C618 1.526 . S
C621 C622 1.396 . S
C621 C626 1.390 . S
C622 C616 1.465 . S
C622 C621 1.396 . S
C622 C623 1.399 . S
C623 H609 0.929 . S
C623 C622 1.399 . S
C623 C624 1.385 . S
C624 H610 0.931 . S
C624 C623 1.385 . S
C624 C625 1.389 . S
C625 C624 1.389 . S
C625 C626 1.387 . S
C626 H611 0.930 . S
C626 C621 1.390 . S
C626 C625 1.387 . S
H627 C639 0.930 . S
H628 C641 0.930 . S
H629 C642 0.930 . S
H630 C646 0.959 . S
H631 C646 0.959 . S
H632 C646 0.961 . S
H633 C647 0.960 . S
H634 C647 0.961 . S
H635 C647 0.959 1_554 S
H636 C650 0.929 . S
H637 C651 0.931 . S
H638 C653 0.930 . S
C639 H627 0.930 . S
C639 C640 1.399 1_546 S
C639 C644 1.399 . S
C640 C639 1.399 1_564 S
C640 C641 1.376 . S
C641 H628 0.930 . S
C641 C640 1.376 . S
C641 C642 1.388 1_554 S
C642 H629 0.930 . S
C642 C641 1.388 1_556 S
C642 C643 1.390 . S
C643 C642 1.390 . S
C643 C644 1.394 1_565 S
C643 C649 1.465 . S
C644 C639 1.399 . S
C644 C643 1.394 1_545 S
C644 C645 1.516 . S
C645 C644 1.516 . S
C645 C646 1.502 . S
C645 C647 1.561 . S
C645 C648 1.526 . S
C646 H630 0.959 . S
C646 H631 0.959 . S
C646 H632 0.961 . S
C646 C645 1.502 . S
C647 H633 0.960 . S
C647 H634 0.961 . S
C647 H635 0.959 1_556 S
C647 C645 1.561 . S
C648 C645 1.526 . S
C648 C649 1.396 1_545 S
C648 C653 1.390 . S
C649 C643 1.465 . S
C649 C648 1.396 1_565 S
C649 C650 1.399 . S
C650 H636 0.929 . S
C650 C649 1.399 . S
C650 C651 1.385 . S
C651 H637 0.931 . S
C651 C650 1.385 . S
C651 C652 1.389 1_565 S
C652 C651 1.389 1_545 S
C652 C653 1.387 . S
C653 H638 0.930 . S
C653 C648 1.390 . S
C653 C652 1.387 . S
H654 C666 0.930 . S
H655 C668 0.930 . S
H656 C669 0.930 . S
H657 C673 0.959 . S
H658 C673 0.959 . S
H659 C673 0.961 . S
H660 C674 0.960 . S
H661 C674 0.961 . S
H662 C674 0.959 . S
H663 C677 0.929 . S
H664 C678 0.931 . S
H665 C680 0.930 . S
C666 H654 0.930 . S
C666 C667 1.399 1_556 S
C666 C671 1.399 . S
C667 C666 1.399 1_554 S
C667 C668 1.376 . S
C668 H655 0.930 . S
C668 C667 1.376 . S
C668 C669 1.388 . S
C669 H656 0.930 . S
C669 C668 1.388 . S
C669 C670 1.390 1_554 S
C670 C669 1.390 1_556 S
C670 C671 1.394 . S
C670 C676 1.465 . S
C671 C666 1.399 . S
C671 C670 1.394 . S
C671 C672 1.516 . S
C672 C671 1.516 . S
C672 C673 1.502 . S
C672 C674 1.561 . S
C672 C675 1.526 . S
C673 H657 0.959 . S
C673 H658 0.959 . S
C673 H659 0.961 . S
C673 C672 1.502 . S
C674 H660 0.960 . S
C674 H661 0.961 . S
C674 H662 0.959 . S
C674 C672 1.561 . S
C675 C672 1.526 . S
C675 C676 1.396 . S
C675 C680 1.390 . S
C676 C670 1.465 . S
C676 C675 1.396 . S
C676 C677 1.399 . S
C677 H663 0.929 . S
C677 C676 1.399 . S
C677 C678 1.385 . S
C678 H664 0.931 . S
C678 C677 1.385 . S
C678 C679 1.389 . S
C679 C678 1.389 . S
C679 C680 1.387 . S
C680 H665 0.930 . S
C680 C675 1.390 . S
C680 C679 1.387 . S
H681 C693 0.930 . S
H682 C695 0.930 . S
H683 C696 0.930 . S
H684 C700 0.959 . S
H685 C700 0.959 . S
H686 C700 0.961 . S
H687 C701 0.960 . S
H688 C701 0.961 . S
H689 C701 0.959 . S
H690 C704 0.929 . S
H691 C705 0.931 . S
H692 C707 0.930 . S
C693 H681 0.930 . S
C693 C694 1.399 1_556 S
C693 C698 1.399 . S
C694 C693 1.399 1_554 S
C694 C695 1.376 . S
C695 H682 0.930 . S
C695 C694 1.376 . S
C695 C696 1.388 . S
C696 H683 0.930 . S
C696 C695 1.388 . S
C696 C697 1.390 1_554 S
C697 C696 1.390 1_556 S
C697 C698 1.394 . S
C697 C703 1.465 . S
C698 C693 1.399 . S
C698 C697 1.394 . S
C698 C699 1.516 . S
C699 C698 1.516 . S
C699 C700 1.502 . S
C699 C701 1.561 . S
C699 C702 1.526 . S
C700 H684 0.959 . S
C700 H685 0.959 . S
C700 H686 0.961 . S
C700 C699 1.502 . S
C701 H687 0.960 . S
C701 H688 0.961 . S
C701 H689 0.959 . S
C701 C699 1.561 . S
C702 C699 1.526 . S
C702 C703 1.396 . S
C702 C707 1.390 . S
C703 C697 1.465 . S
C703 C702 1.396 . S
C703 C704 1.399 . S
C704 H690 0.929 . S
C704 C703 1.399 . S
C704 C705 1.385 . S
C705 H691 0.931 . S
C705 C704 1.385 . S
C705 C706 1.389 . S
C706 C705 1.389 . S
C706 C707 1.387 . S
C707 H692 0.930 . S
C707 C702 1.390 . S
C707 C706 1.387 . S
H708 C720 0.930 . S
H709 C722 0.930 . S
H710 C723 0.930 . S
H711 C727 0.959 1_455 S
H712 C727 0.959 . S
H713 C727 0.961 . S
H714 C728 0.960 . S
H715 C728 0.961 . S
H716 C728 0.959 . S
H717 C731 0.929 . S
H718 C732 0.931 . S
H719 C734 0.930 . S
C720 H708 0.930 . S
C720 C721 1.399 . S
C720 C725 1.399 . S
C721 C720 1.399 . S
C721 C722 1.376 . S
C722 H709 0.930 . S
C722 C721 1.376 . S
C722 C723 1.388 . S
C723 H710 0.930 . S
C723 C722 1.388 . S
C723 C724 1.390 . S
C724 C723 1.390 . S
C724 C725 1.394 . S
C724 C730 1.465 . S
C725 C720 1.399 . S
C725 C724 1.394 . S
C725 C726 1.516 . S
C726 C725 1.516 . S
C726 C727 1.502 . S
C726 C728 1.561 . S
C726 C729 1.526 . S
C727 H711 0.959 1_655 S
C727 H712 0.959 . S
C727 H713 0.961 . S
C727 C726 1.502 . S
C728 H714 0.960 . S
C728 H715 0.961 . S
C728 H716 0.959 . S
C728 C726 1.561 . S
C729 C726 1.526 . S
C729 C730 1.396 . S
C729 C734 1.390 . S
C730 C724 1.465 . S
C730 C729 1.396 . S
C730 C731 1.399 . S
C731 H717 0.929 . S
C731 C730 1.399 . S
C731 C732 1.385 . S
C732 H718 0.931 . S
C732 C731 1.385 . S
C732 C733 1.389 . S
C733 C732 1.389 . S
C733 C734 1.387 . S
C734 H719 0.930 . S
C734 C729 1.390 . S
C734 C733 1.387 . S
H735 C747 0.930 . S
H736 C749 0.930 . S
H737 C750 0.930 . S
H738 C754 0.959 . S
H739 C754 0.959 . S
H740 C754 0.961 . S
H741 C755 0.960 . S
H742 C755 0.961 . S
H743 C755 0.959 . S
H744 C758 0.929 . S
H745 C759 0.931 . S
H746 C761 0.930 . S
C747 H735 0.930 . S
C747 C748 1.399 1_545 S
C747 C752 1.399 . S
C748 C747 1.399 1_565 S
C748 C749 1.376 . S
C749 H736 0.930 . S
C749 C748 1.376 . S
C749 C750 1.388 . S
C750 H737 0.930 . S
C750 C749 1.388 . S
C750 C751 1.390 . S
C751 C750 1.390 . S
C751 C752 1.394 1_565 S
C751 C757 1.465 . S
C752 C747 1.399 . S
C752 C751 1.394 1_545 S
C752 C753 1.516 . S
C753 C752 1.516 . S
C753 C754 1.502 . S
C753 C755 1.561 . S
C753 C756 1.526 . S
C754 H738 0.959 . S
C754 H739 0.959 . S
C754 H740 0.961 . S
C754 C753 1.502 . S
C755 H741 0.960 . S
C755 H742 0.961 . S
C755 H743 0.959 . S
C755 C753 1.561 . S
C756 C753 1.526 . S
C756 C757 1.396 1_545 S
C756 C761 1.390 . S
C757 C751 1.465 . S
C757 C756 1.396 1_565 S
C757 C758 1.399 . S
C758 H744 0.929 . S
C758 C757 1.399 . S
C758 C759 1.385 . S
C759 H745 0.931 . S
C759 C758 1.385 . S
C759 C760 1.389 . S
C760 C759 1.389 . S
C760 C761 1.387 1_565 S
C761 H746 0.930 . S
C761 C756 1.390 . S
C761 C760 1.387 1_545 S
H762 C774 0.930 . S
H763 C776 0.930 . S
H764 C777 0.930 . S
H765 C781 0.959 . S
H766 C781 0.959 . S
H767 C781 0.961 . S
H768 C782 0.960 . S
H769 C782 0.961 . S
H770 C782 0.959 . S
H771 C785 0.929 . S
H772 C786 0.931 . S
H773 C788 0.930 . S
C774 H762 0.930 . S
C774 C775 1.399 . S
C774 C779 1.399 . S
C775 C774 1.399 . S
C775 C776 1.376 . S
C776 H763 0.930 . S
C776 C775 1.376 . S
C776 C777 1.388 . S
C777 H764 0.930 . S
C777 C776 1.388 . S
C777 C778 1.390 . S
C778 C777 1.390 . S
C778 C779 1.394 . S
C778 C784 1.465 . S
C779 C774 1.399 . S
C779 C778 1.394 . S
C779 C780 1.516 . S
C780 C779 1.516 . S
C780 C781 1.502 . S
C780 C782 1.561 . S
C780 C783 1.526 . S
C781 H765 0.959 . S
C781 H766 0.959 . S
C781 H767 0.961 . S
C781 C780 1.502 . S
C782 H768 0.960 . S
C782 H769 0.961 . S
C782 H770 0.959 . S
C782 C780 1.561 . S
C783 C780 1.526 . S
C783 C784 1.396 . S
C783 C788 1.390 . S
C784 C778 1.465 . S
C784 C783 1.396 . S
C784 C785 1.399 . S
C785 H771 0.929 . S
C785 C784 1.399 . S
C785 C786 1.385 . S
C786 H772 0.931 . S
C786 C785 1.385 . S
C786 C787 1.389 . S
C787 C786 1.389 . S
C787 C788 1.387 . S
C788 H773 0.930 . S
C788 C783 1.390 . S
C788 C787 1.387 . S
H789 C801 0.930 . S
H790 C803 0.930 . S
H791 C804 0.930 . S
H792 C808 0.959 . S
H793 C808 0.959 . S
H794 C808 0.961 . S
H795 C809 0.960 . S
H796 C809 0.961 . S
H797 C809 0.959 . S
H798 C812 0.929 . S
H799 C813 0.931 . S
H800 C815 0.930 . S
C801 H789 0.930 . S
C801 C802 1.399 . S
C801 C806 1.399 . S
C802 C801 1.399 . S
C802 C803 1.376 . S
C803 H790 0.930 . S
C803 C802 1.376 . S
C803 C804 1.388 . S
C804 H791 0.930 . S
C804 C803 1.388 . S
C804 C805 1.390 . S
C805 C804 1.390 . S
C805 C806 1.394 . S
C805 C811 1.465 . S
C806 C801 1.399 . S
C806 C805 1.394 . S
C806 C807 1.516 . S
C807 C806 1.516 . S
C807 C808 1.502 . S
C807 C809 1.561 . S
C807 C810 1.526 . S
C808 H792 0.959 . S
C808 H793 0.959 . S
C808 H794 0.961 . S
C808 C807 1.502 . S
C809 H795 0.960 . S
C809 H796 0.961 . S
C809 H797 0.959 . S
C809 C807 1.561 . S
C810 C807 1.526 . S
C810 C811 1.396 . S
C810 C815 1.390 . S
C811 C805 1.465 . S
C811 C810 1.396 . S
C811 C812 1.399 . S
C812 H798 0.929 . S
C812 C811 1.399 . S
C812 C813 1.385 . S
C813 H799 0.931 . S
C813 C812 1.385 . S
C813 C814 1.389 . S
C814 C813 1.389 . S
C814 C815 1.387 . S
C815 H800 0.930 . S
C815 C810 1.390 . S
C815 C814 1.387 . S
C181 C76 1.479 . S
C193 C106 1.445 . S
C220 C126 1.576 . S
C208 C87 1.484 . S
C247 C146 1.495 . S
C235 C54 1.433 . S
C274 C166 1.524 . S
C262 C65 1.564 . S
C301 C107 1.472 . S
C289 C32 1.434 1_545 S
C316 C43 1.539 . S
C328 C127 1.523 . S
C343 C10 1.488 . S
C355 C147 1.461 . S
C370 C21 1.524 . S
C382 C167 1.577 1_655 S
C409 C97 0.790 . S
C397 C60 0.926 . S
C436 C117 0.813 . S
C424 C71 0.807 . S
C463 C137 0.825 . S
C451 C82 0.849 . S
C478 C49 0.881 . S
C490 C157 0.875 . S
C505 C16 0.807 . S
C517 C100 0.914 . S
C544 C120 0.784 . S
C532 C27 0.897 . S
C571 C140 0.803 . S
C559 C38 0.918 . S
C586 C5 0.784 . S
C598 C160 0.909 . S
C613 C59 1.526 . S
C625 C90 1.543 . S
C640 C70 1.473 1_565 S
C652 C110 1.433 . S
C679 C130 1.511 . S
C667 C81 1.495 . S
C706 C150 1.497 . S
C694 C48 1.450 . S
C721 C15 1.581 . S
C733 C92 1.458 . S
C760 C112 1.496 . S
C748 C26 1.460 1_565 S
C787 C132 1.538 . S
C775 C37 1.485 . S
C802 C4 1.462 . S
C814 C152 1.489 . S
