# Generated by pormake.
# Topology the, (3,8)-cn, num edge types: 1
# Building blocks:
#     Node 0, Type 0, BuildingBlock: MIDCAF_clean_linker_0, # of connection points: 3
#     Node 1, Type 0, BuildingBlock: MIDCAF_clean_linker_0, # of connection points: 3
#     Node 2, Type 0, BuildingBlock: MIDCAF_clean_linker_0, # of connection points: 3
#     Node 3, Type 0, BuildingBlock: MIDCAF_clean_linker_0, # of connection points: 3
#     Node 4, Type 0, BuildingBlock: MIDCAF_clean_linker_0, # of connection points: 3
#     Node 5, Type 0, BuildingBlock: MIDCAF_clean_linker_0, # of connection points: 3
#     Node 6, Type 0, BuildingBlock: MIDCAF_clean_linker_0, # of connection points: 3
#     Node 7, Type 0, BuildingBlock: MIDCAF_clean_linker_0, # of connection points: 3
#     Node 8, Type 1, BuildingBlock: GIZVER_clean_sbu_0, # of connection points: 8
#     Node 9, Type 1, BuildingBlock: GIZVER_clean_sbu_0, # of connection points: 8
#     Node 10, Type 1, BuildingBlock: GIZVER_clean_sbu_0, # of connection points: 8
#     Edge 11, Type (0, 1), BuildingBlock: CIFDUS_clean_linker_0, # of connection points: 2
#     Edge 12, Type (0, 1), BuildingBlock: CIFDUS_clean_linker_0, # of connection points: 2
#     Edge 13, Type (0, 1), BuildingBlock: CIFDUS_clean_linker_0, # of connection points: 2
#     Edge 14, Type (0, 1), BuildingBlock: CIFDUS_clean_linker_0, # of connection points: 2
#     Edge 15, Type (0, 1), BuildingBlock: CIFDUS_clean_linker_0, # of connection points: 2
#     Edge 16, Type (0, 1), BuildingBlock: CIFDUS_clean_linker_0, # of connection points: 2
#     Edge 17, Type (0, 1), BuildingBlock: CIFDUS_clean_linker_0, # of connection points: 2
#     Edge 18, Type (0, 1), BuildingBlock: CIFDUS_clean_linker_0, # of connection points: 2
#     Edge 19, Type (0, 1), BuildingBlock: CIFDUS_clean_linker_0, # of connection points: 2
#     Edge 20, Type (0, 1), BuildingBlock: CIFDUS_clean_linker_0, # of connection points: 2
#     Edge 21, Type (0, 1), BuildingBlock: CIFDUS_clean_linker_0, # of connection points: 2
#     Edge 22, Type (0, 1), BuildingBlock: CIFDUS_clean_linker_0, # of connection points: 2
#     Edge 23, Type (0, 1), BuildingBlock: CIFDUS_clean_linker_0, # of connection points: 2
#     Edge 24, Type (0, 1), BuildingBlock: CIFDUS_clean_linker_0, # of connection points: 2
#     Edge 25, Type (0, 1), BuildingBlock: CIFDUS_clean_linker_0, # of connection points: 2
#     Edge 26, Type (0, 1), BuildingBlock: CIFDUS_clean_linker_0, # of connection points: 2
#     Edge 27, Type (0, 1), BuildingBlock: CIFDUS_clean_linker_0, # of connection points: 2
#     Edge 28, Type (0, 1), BuildingBlock: CIFDUS_clean_linker_0, # of connection points: 2
#     Edge 29, Type (0, 1), BuildingBlock: CIFDUS_clean_linker_0, # of connection points: 2
#     Edge 30, Type (0, 1), BuildingBlock: CIFDUS_clean_linker_0, # of connection points: 2
#     Edge 31, Type (0, 1), BuildingBlock: CIFDUS_clean_linker_0, # of connection points: 2
#     Edge 32, Type (0, 1), BuildingBlock: CIFDUS_clean_linker_0, # of connection points: 2
#     Edge 33, Type (0, 1), BuildingBlock: CIFDUS_clean_linker_0, # of connection points: 2
#     Edge 34, Type (0, 1), BuildingBlock: CIFDUS_clean_linker_0, # of connection points: 2
# Relax obj value: 0.047
# Max RMSD: 0.138
# Mean RMSD: 0.070
data_MOF--net-the--node1-GIZVER_clean_sbu_0--node2-MIDCAF_clean_linker_0--edge1-CIFDUS_clean_linker_0
_symmetry_space_group_name_H-M    P1
_symmetry_Int_Tables_number       1
_symmetry_cell_setting            triclinic
loop_
_symmetry_equiv_pos_as_xyz
'x, y, z'
_cell_length_a     45.201625
_cell_length_b     42.723747
_cell_length_c     39.316093
_cell_angle_alpha  86.415103
_cell_angle_beta   95.250795
_cell_angle_gamma 102.65822
loop_
_atom_site_label
_atom_site_type_symbol
_atom_site_fract_x
_atom_site_fract_y
_atom_site_fract_z
_atom_type_partial_charge
C0 C 0.20602 0.3621 0.40612 0.0
C1 C 0.18907 0.34045 0.42906 0.0
C2 C 0.19569 0.31005 0.43618 0.0
C3 C 0.21959 0.30176 0.42114 0.0
H4 H 0.27541 0.23636 0.42848 0.0
H5 H 0.29776 0.19194 0.45263 0.0
H6 H 0.37791 0.22923 0.39853 0.0
H7 H 0.35584 0.27363 0.37441 0.0
H8 H 0.35683 0.33582 0.32233 0.0
H9 H 0.37711 0.36647 0.27192 0.0
H10 H 0.29054 0.39214 0.24466 0.0
H11 H 0.27019 0.36185 0.29533 0.0
H12 H 0.24232 0.37115 0.37344 0.0
H13 H 0.20097 0.38555 0.39993 0.0
H14 H 0.18276 0.29303 0.45377 0.0
H15 H 0.22458 0.2783 0.42734 0.0
N16 N 0.27539 0.29137 0.39704 0.0
N17 N 0.31213 0.30307 0.35703 0.0
N18 N 0.27469 0.33338 0.35593 0.0
C19 C 0.30015 0.28497 0.38414 0.0
C20 C 0.29935 0.3272 0.34268 0.0
C21 C 0.26267 0.31566 0.38318 0.0
C22 C 0.31383 0.25848 0.39943 0.0
C23 C 0.29788 0.23521 0.42187 0.0
C24 C 0.31055 0.20973 0.43562 0.0
C25 C 0.33952 0.20733 0.42751 0.0
C26 C 0.35565 0.23079 0.4055 0.0
C27 C 0.34289 0.25606 0.39149 0.0
C28 C 0.31191 0.34637 0.31273 0.0
C29 C 0.34215 0.34809 0.30569 0.0
C30 C 0.35381 0.36579 0.27703 0.0
C31 C 0.33533 0.38164 0.25462 0.0
C32 C 0.30516 0.38004 0.26162 0.0
C33 C 0.29362 0.36281 0.29063 0.0
C34 C 0.23677 0.32361 0.39835 0.0
C35 C 0.22953 0.35373 0.39078 0.0
C36 C 0.66147 0.22602 0.39391 0.0
C37 C 0.64067 0.20353 0.37388 0.0
C38 C 0.63549 0.21127 0.33879 0.0
C39 C 0.64966 0.24095 0.32452 0.0
H40 H 0.61861 0.32872 0.28217 0.0
H41 H 0.58672 0.34755 0.23613 0.0
H42 H 0.66677 0.39673 0.18689 0.0
H43 H 0.69897 0.37891 0.23459 0.0
H44 H 0.7556 0.40209 0.30987 0.0
H45 H 0.80482 0.43073 0.33489 0.0
H46 H 0.81144 0.34812 0.40191 0.0
H47 H 0.7623 0.31982 0.37761 0.0
H48 H 0.69166 0.27239 0.39562 0.0
H49 H 0.6658 0.2214 0.42109 0.0
H50 H 0.62041 0.19445 0.32216 0.0
H51 H 0.64473 0.24623 0.29755 0.0
N52 N 0.66819 0.30876 0.30363 0.0
N53 N 0.70817 0.35425 0.30136 0.0
N54 N 0.71154 0.31178 0.34168 0.0
C55 C 0.68 0.33812 0.28943 0.0
C56 C 0.7241 0.34114 0.32767 0.0
C57 C 0.68374 0.29538 0.32959 0.0
C58 C 0.66136 0.35204 0.26191 0.0
C59 C 0.6295 0.34365 0.26161 0.0
C60 C 0.61113 0.35427 0.23488 0.0
C61 C 0.62395 0.37311 0.20706 0.0
C62 C 0.65596 0.38235 0.2078 0.0
C63 C 0.67447 0.3721 0.2351 0.0
C64 C 0.75467 0.35861 0.34173 0.0
C65 C 0.76756 0.38997 0.32987 0.0
C66 C 0.79593 0.40636 0.34411 0.0
C67 C 0.81216 0.39184 0.37059 0.0
C68 C 0.79946 0.36033 0.38201 0.0
C69 C 0.77119 0.34399 0.36784 0.0
C70 C 0.67003 0.26343 0.34468 0.0
C71 C 0.67622 0.25545 0.37939 0.0
C72 C 0.68494 0.67325 0.19684 0.0
C73 C 0.65434 0.67443 0.1884 0.0
C74 C 0.64071 0.69329 0.20751 0.0
C75 C 0.65695 0.70968 0.23538 0.0
H76 H 0.65012 0.7712 0.30546 0.0
H77 H 0.62443 0.80392 0.33562 0.0
H78 H 0.69852 0.81847 0.41432 0.0
H79 H 0.72469 0.78526 0.38407 0.0
H80 H 0.77215 0.73491 0.38632 0.0
H81 H 0.80925 0.70659 0.41647 0.0
H82 H 0.80176 0.64667 0.33046 0.0
H83 H 0.76527 0.67464 0.30027 0.0
H84 H 0.72433 0.68692 0.2318 0.0
H85 H 0.69585 0.65865 0.18262 0.0
H86 H 0.61711 0.69454 0.20148 0.0
H87 H 0.64534 0.72318 0.25011 0.0
N88 N 0.69123 0.74227 0.29369 0.0
N89 N 0.72843 0.74255 0.33953 0.0
N90 N 0.72725 0.71062 0.29267 0.0
C91 C 0.70392 0.75337 0.32454 0.0
C92 C 0.74028 0.72114 0.32364 0.0
C93 C 0.70279 0.72107 0.27746 0.0
C94 C 0.68951 0.77525 0.34237 0.0
C95 C 0.66125 0.78141 0.32905 0.0
C96 C 0.64637 0.80013 0.34641 0.0
C97 C 0.65933 0.81354 0.37745 0.0
C98 C 0.68804 0.80848 0.39036 0.0
C99 C 0.70292 0.78933 0.3731 0.0
C100 C 0.76531 0.70689 0.34093 0.0
C101 C 0.77872 0.716 0.37363 0.0
C102 C 0.80005 0.69991 0.39089 0.0
C103 C 0.80809 0.67426 0.3759 0.0
C104 C 0.7957 0.66613 0.34277 0.0
C105 C 0.77475 0.68228 0.32546 0.0
C106 C 0.68708 0.70712 0.24519 0.0
C107 C 0.70111 0.68926 0.22514 0.0
C108 C 0.20239 0.65847 0.37114 0.0
C109 C 0.19238 0.62555 0.36488 0.0
C110 C 0.21205 0.61012 0.34972 0.0
C111 C 0.24066 0.627 0.34096 0.0
H112 H 0.29976 0.64516 0.25279 0.0
H113 H 0.32618 0.62318 0.21173 0.0
H114 H 0.41199 0.66063 0.26851 0.0
H115 H 0.38566 0.68431 0.30778 0.0
H116 H 0.3726 0.76599 0.32838 0.0
H117 H 0.40136 0.81158 0.36054 0.0
H118 H 0.34299 0.78338 0.443 0.0
H119 H 0.3138 0.73802 0.41071 0.0
H120 H 0.23832 0.7005 0.3682 0.0
H121 H 0.18785 0.67146 0.38222 0.0
H122 H 0.20573 0.5847 0.34521 0.0
H123 H 0.25515 0.61413 0.3296 0.0
N124 N 0.2961 0.66546 0.31552 0.0
N125 N 0.33891 0.70721 0.32483 0.0
N126 N 0.29607 0.70405 0.35552 0.0
C127 C 0.32471 0.68035 0.30823 0.0
C128 C 0.32473 0.71933 0.3484 0.0
C129 C 0.2816 0.6771 0.33912 0.0
C130 C 0.34066 0.66673 0.28334 0.0
C131 C 0.32431 0.6488 0.25626 0.0
C132 C 0.33952 0.63595 0.23284 0.0
C133 C 0.37143 0.64009 0.23637 0.0
C134 C 0.38757 0.65758 0.26404 0.0
C135 C 0.37244 0.67106 0.28686 0.0
C136 C 0.34095 0.7482 0.36701 0.0
C137 C 0.36568 0.76963 0.35323 0.0
C138 C 0.38204 0.7959 0.37151 0.0
C139 C 0.37442 0.80101 0.40426 0.0
C140 C 0.34941 0.77995 0.41784 0.0
C141 C 0.33266 0.75404 0.39928 0.0
C142 C 0.25077 0.6597 0.34768 0.0
C143 C 0.23132 0.67525 0.36292 0.0
C144 C 0.23011 0.62755 0.68342 0.0
C145 C 0.22291 0.63617 0.64903 0.0
C146 C 0.24214 0.66234 0.63339 0.0
C147 C 0.26814 0.67933 0.65142 0.0
H148 H 0.33833 0.75737 0.63983 0.0
H149 H 0.36596 0.80708 0.61392 0.0
H150 H 0.40988 0.83525 0.71306 0.0
H151 H 0.38338 0.78466 0.73855 0.0
H152 H 0.38358 0.72787 0.79625 0.0
H153 H 0.41487 0.70742 0.84204 0.0
H154 H 0.36998 0.61026 0.81858 0.0
H155 H 0.33791 0.63091 0.77267 0.0
H156 H 0.26171 0.63698 0.7278 0.0
H157 H 0.21577 0.6073 0.696 0.0
H158 H 0.23713 0.66959 0.60696 0.0
H159 H 0.28239 0.69921 0.6382 0.0
N160 N 0.31774 0.71807 0.69077 0.0
N161 N 0.35565 0.72349 0.73593 0.0
N162 N 0.31686 0.67675 0.73337 0.0
C163 C 0.34341 0.7356 0.70659 0.0
C164 C 0.34276 0.69413 0.74949 0.0
C165 C 0.30407 0.68884 0.70401 0.0
C166 C 0.35873 0.76693 0.69125 0.0
C167 C 0.35377 0.77426 0.65613 0.0
C168 C 0.36954 0.80298 0.64128 0.0
C169 C 0.39035 0.82545 0.66125 0.0
C170 C 0.39463 0.81839 0.69661 0.0
C171 C 0.37924 0.7894 0.71134 0.0
C172 C 0.35845 0.68105 0.78034 0.0
C173 C 0.38004 0.70211 0.80094 0.0
C174 C 0.39814 0.69036 0.82721 0.0
C175 C 0.39543 0.65716 0.83362 0.0
C176 C 0.37266 0.63598 0.81438 0.0
C177 C 0.3543 0.64782 0.78802 0.0
C178 C 0.27594 0.67045 0.6856 0.0
C179 C 0.25653 0.64437 0.70147 0.0
C180 C 0.23469 0.36075 0.66499 0.0
C181 C 0.21495 0.34193 0.64067 0.0
C182 C 0.2215 0.31257 0.63276 0.0
C183 C 0.24702 0.30238 0.64878 0.0
H184 H 0.31122 0.24509 0.63473 0.0
H185 H 0.33788 0.21044 0.60746 0.0
H186 H 0.41025 0.22714 0.68806 0.0
H187 H 0.38408 0.26151 0.71523 0.0
H188 H 0.3806 0.30161 0.77687 0.0
H189 H 0.40621 0.32835 0.82772 0.0
H190 H 0.34176 0.39007 0.82068 0.0
H191 H 0.31627 0.36368 0.76946 0.0
H192 H 0.27445 0.36568 0.69976 0.0
H193 H 0.2311 0.3839 0.67117 0.0
H194 H 0.20674 0.2972 0.61448 0.0
H195 H 0.25131 0.27963 0.64218 0.0
N196 N 0.3056 0.28821 0.67716 0.0
N197 N 0.34363 0.29306 0.72255 0.0
N198 N 0.30664 0.32396 0.72053 0.0
C199 C 0.33086 0.2794 0.69285 0.0
C200 C 0.33167 0.31525 0.73668 0.0
C201 C 0.29337 0.31055 0.69088 0.0
C202 C 0.34554 0.25645 0.6771 0.0
C203 C 0.33271 0.2412 0.64678 0.0
C204 C 0.34788 0.22121 0.6312 0.0
C205 C 0.37629 0.21633 0.64544 0.0
C206 C 0.3886 0.2308 0.67619 0.0
C207 C 0.37345 0.25048 0.69184 0.0
C208 C 0.34639 0.33053 0.76876 0.0
C209 C 0.37171 0.32077 0.78616 0.0
C210 C 0.38631 0.33595 0.81556 0.0
C211 C 0.37607 0.36139 0.82833 0.0
C212 C 0.35044 0.37079 0.81134 0.0
C213 C 0.33575 0.35553 0.78199 0.0
C214 C 0.2664 0.3211 0.6734 0.0
C215 C 0.25984 0.35038 0.68129 0.0
C216 C 0.68275 0.22387 0.64223 0.0
C217 C 0.65657 0.20506 0.65588 0.0
C218 C 0.64601 0.21566 0.68471 0.0
C219 C 0.66092 0.24455 0.69923 0.0
H220 H 0.64409 0.31388 0.75836 0.0
H221 H 0.61628 0.34025 0.79375 0.0
H222 H 0.69368 0.41966 0.8048 0.0
H223 H 0.72183 0.39313 0.76982 0.0
H224 H 0.78526 0.38326 0.74238 0.0
H225 H 0.83344 0.41516 0.72548 0.0
H226 H 0.81965 0.36753 0.62968 0.0
H227 H 0.77184 0.33447 0.64744 0.0
H228 H 0.71788 0.26661 0.64569 0.0
H229 H 0.69155 0.21628 0.62013 0.0
H230 H 0.6257 0.20199 0.6956 0.0
H231 H 0.65185 0.25199 0.72122 0.0
N232 N 0.6881 0.30781 0.72344 0.0
N233 N 0.7296 0.35145 0.72861 0.0
N234 N 0.73027 0.31046 0.69176 0.0
C235 C 0.70154 0.33627 0.73746 0.0
C236 C 0.74416 0.3388 0.70588 0.0
C237 C 0.70228 0.29464 0.70068 0.0
C238 C 0.68522 0.35138 0.7609 0.0
C239 C 0.65536 0.33684 0.76847 0.0
C240 C 0.6393 0.35207 0.78866 0.0
C241 C 0.65264 0.38223 0.80189 0.0
C242 C 0.68279 0.39635 0.79524 0.0
C243 C 0.69887 0.38116 0.77496 0.0
C244 C 0.77451 0.3565 0.69613 0.0
C245 C 0.79256 0.37939 0.71779 0.0
C246 C 0.8202 0.39786 0.70797 0.0
C247 C 0.8304 0.3944 0.67593 0.0
C248 C 0.81278 0.37074 0.65467 0.0
C249 C 0.78523 0.35186 0.66476 0.0
C250 C 0.687 0.26355 0.68551 0.0
C251 C 0.6979 0.25267 0.65699 0.0
C252 C 0.66595 0.6507 0.75455 0.0
C253 C 0.6821 0.62918 0.77178 0.0
C254 C 0.70776 0.62321 0.75805 0.0
C255 C 0.71693 0.63838 0.72701 0.0
H256 H 0.74191 0.61636 0.62837 0.0
H257 H 0.77698 0.59525 0.59734 0.0
H258 H 0.80329 0.68718 0.54386 0.0
H259 H 0.76814 0.70849 0.57471 0.0
H260 H 0.70904 0.74878 0.57408 0.0
H261 H 0.69481 0.79984 0.55724 0.0
H262 H 0.68703 0.81615 0.66296 0.0
H263 H 0.70081 0.76486 0.68002 0.0
H264 H 0.66254 0.68291 0.71127 0.0
H265 H 0.6461 0.65559 0.76492 0.0
H266 H 0.72044 0.60662 0.77114 0.0
H267 H 0.73675 0.63337 0.71672 0.0
N268 N 0.72601 0.66315 0.65648 0.0
N269 N 0.72801 0.70727 0.61754 0.0
N270 N 0.70407 0.70582 0.66817 0.0
C271 C 0.73466 0.67827 0.62641 0.0
C272 C 0.71279 0.7212 0.6383 0.0
C273 C 0.7106 0.67678 0.67738 0.0
C274 C 0.75264 0.66422 0.60444 0.0
C275 C 0.75477 0.63194 0.6096 0.0
C276 C 0.77457 0.61975 0.59157 0.0
C277 C 0.79278 0.6397 0.56834 0.0
C278 C 0.78947 0.67143 0.56174 0.0
C279 C 0.76938 0.68354 0.57945 0.0
C280 C 0.70577 0.75274 0.62835 0.0
C281 C 0.70458 0.76337 0.59378 0.0
C282 C 0.69648 0.7925 0.58411 0.0
C283 C 0.69004 0.81174 0.60888 0.0
C284 C 0.69224 0.80174 0.64351 0.0
C285 C 0.69981 0.77232 0.65317 0.0
C286 C 0.7009 0.66024 0.70984 0.0
C287 C 0.67543 0.66635 0.724 0.0
Co288 Co 0.06711 0.47191 0.54513 0.0
Co289 Co 0.03936 0.46436 0.48334 0.0
Co290 Co 0.01082 0.51188 0.52138 0.0
O291 O 0.02669 0.47167 0.52555 0.0
H292 H 0.01191 0.4533 0.53335 0.0
O293 O 0.99472 0.55197 0.51676 0.0
Co294 Co 0.95387 0.55072 0.49733 0.0
Co295 Co 0.98255 0.56032 0.55897 0.0
H296 H 0.00921 0.57026 0.50827 0.0
O297 O 0.04579 0.42444 0.47319 0.0
O298 O 0.07895 0.46409 0.50004 0.0
O299 O 0.04364 0.49899 0.44876 0.0
O300 O 0.03985 0.53399 0.48664 0.0
O301 O 0.97992 0.49148 0.48441 0.0
O302 O 0.91738 0.55323 0.47853 0.0
O303 O 0.95899 0.59316 0.48424 0.0
O304 O 0.94269 0.50624 0.50718 0.0
O305 O 0.98196 0.48993 0.55657 0.0
O306 O 0.9792 0.52616 0.5937 0.0
O307 O 0.94268 0.559 0.54237 0.0
O308 O 0.97435 0.60021 0.568 0.0
C309 C 0.08945 0.43889 0.56956 0.0
C310 C 0.07027 0.53448 0.55568 0.0
C311 C 0.04882 0.52756 0.4585 0.0
C312 C 0.07311 0.43649 0.48601 0.0
C313 C 0.93036 0.58327 0.47356 0.0
C314 C 0.95158 0.48813 0.48782 0.0
C315 C 0.97374 0.49728 0.5848 0.0
C316 C 0.94747 0.58725 0.55469 0.0
O317 O 0.10335 0.46863 0.56468 0.0
O318 O 0.06116 0.42933 0.5576 0.0
O319 O 0.04188 0.53213 0.55836 0.0
O320 O 0.07865 0.51634 0.53588 0.0
Co321 Co 0.55169 0.95344 0.49403 0.0
Co322 Co 0.56789 0.97909 0.55378 0.0
Co323 Co 0.51756 0.01207 0.5159 0.0
O324 O 0.5546 0.99509 0.51133 0.0
H325 H 0.57078 0.01115 0.50206 0.0
O326 O 0.48054 0.02906 0.5204 0.0
Co327 Co 0.48363 0.07143 0.53593 0.0
Co328 Co 0.46694 0.04344 0.47709 0.0
H329 H 0.46456 0.01334 0.53034 0.0
O330 O 0.60677 0.97144 0.56338 0.0
O331 O 0.56557 0.93789 0.53983 0.0
O332 O 0.54114 0.9744 0.59 0.0
O333 O 0.50185 0.97956 0.55354 0.0
O334 O 0.54204 0.04278 0.54999 0.0
O335 O 0.48288 0.10934 0.55145 0.0
O336 O 0.44517 0.06512 0.54916 0.0
O337 O 0.52467 0.08381 0.52541 0.0
O338 O 0.53311 0.0445 0.47823 0.0
O339 O 0.4938 0.04728 0.44092 0.0
O340 O 0.47007 0.08522 0.48951 0.0
O341 O 0.4281 0.05191 0.46759 0.0
C342 C 0.58013 0.93115 0.47093 0.0
C343 C 0.4905 0.95135 0.48604 0.0
C344 C 0.5127 0.96955 0.58236 0.0
C345 C 0.59364 0.9432 0.55278 0.0
C346 C 0.45522 0.09499 0.55738 0.0
C347 C 0.54484 0.073 0.5443 0.0
C348 C 0.52221 0.05358 0.44904 0.0
C349 C 0.44183 0.08023 0.4774 0.0
O350 O 0.55252 0.91639 0.4766 0.0
O351 O 0.59011 0.96062 0.48049 0.0
O352 O 0.49314 0.98165 0.48163 0.0
O353 O 0.51062 0.94025 0.5047 0.0
Co354 Co 0.47398 0.52493 0.0846 0.0
Co355 Co 0.46349 0.46662 0.06389 0.0
Co356 Co 0.51067 0.51263 0.01699 0.0
O357 O 0.4727 0.5067 0.04135 0.0
H358 H 0.45551 0.51011 0.0262 0.0
O359 O 0.54826 0.51799 0.99232 0.0
Co360 Co 0.54604 0.49848 0.94935 0.0
Co361 Co 0.55838 0.55744 0.96893 0.0
H362 H 0.56547 0.51443 1.00737 0.0
O363 O 0.42432 0.44893 0.07624 0.0
O364 O 0.46167 0.48183 0.10659 0.0
O365 O 0.49502 0.44224 0.06988 0.0
O366 O 0.52996 0.48203 0.04882 0.0
O367 O 0.48846 0.47672 0.98724 0.0
O368 O 0.54731 0.47956 0.9108 0.0
O369 O 0.58454 0.49186 0.95296 0.0
O370 O 0.5053 0.50194 0.93997 0.0
O371 O 0.49155 0.54365 0.98522 0.0
O372 O 0.52719 0.58192 0.96275 0.0
O373 O 0.55902 0.54089 0.92663 0.0
O374 O 0.59762 0.57379 0.95499 0.0
C375 C 0.44486 0.54321 0.11082 0.0
C376 C 0.53386 0.54472 0.07964 0.0
C377 C 0.52259 0.45534 0.06586 0.0
C378 C 0.43466 0.46338 0.10435 0.0
C379 C 0.57472 0.47884 0.92368 0.0
C380 C 0.48528 0.48166 0.95492 0.0
C381 C 0.49952 0.56994 0.96755 0.0
C382 C 0.5864 0.5584 0.9277 0.0
O383 O 0.47239 0.54307 0.12352 0.0
O384 O 0.43498 0.53031 0.08151 0.0
O385 O 0.53277 0.5486 0.04709 0.0
O386 O 0.5147 0.52228 0.09306 0.0
H387 H 0.19368 0.39366 0.46374 0.0
H388 H 0.12975 0.30894 0.42962 0.0
H389 H 0.08759 0.33027 0.4471 0.0
H390 H 0.06895 0.37589 0.46577 0.0
H391 H 0.13363 0.46101 0.49855 0.0
H392 H 0.17556 0.4366 0.48797 0.0
C393 C 0.17049 0.37977 0.46059 0.0
C394 C 0.16452 0.35016 0.44506 0.0
C395 C 0.1466 0.39242 0.47001 0.0
C396 C 0.13465 0.3319 0.44153 0.0
C397 C 0.11063 0.34419 0.45124 0.0
C398 C 0.09222 0.38899 0.47074 0.0
C399 C 0.09817 0.42038 0.48231 0.0
C400 C 0.1163 0.3749 0.46443 0.0
C401 C 0.12842 0.43692 0.48925 0.0
C402 C 0.15245 0.42301 0.48326 0.0
H403 H 0.58254 0.171 0.35612 0.0
H404 H 0.66023 0.16626 0.42746 0.0
H405 H 0.63114 0.11836 0.45557 0.0
H406 H 0.58292 0.07922 0.4616 0.0
H407 H 0.5063 0.08293 0.38837 0.0
H408 H 0.5364 0.12893 0.35844 0.0
C409 C 0.59357 0.15922 0.37725 0.0
C410 C 0.62367 0.17276 0.38962 0.0
C411 C 0.57697 0.13118 0.39288 0.0
C412 C 0.63696 0.15712 0.41767 0.0
C413 C 0.62042 0.12942 0.43363 0.0
C414 C 0.5729 0.08967 0.43874 0.0
C415 C 0.54221 0.07758 0.4275 0.0
C416 C 0.59028 0.11645 0.4217 0.0
C417 C 0.52977 0.09161 0.39777 0.0
C418 C 0.54694 0.11812 0.38069 0.0
H419 H 0.8648 0.6931 0.40933 0.0
H420 H 0.79409 0.60983 0.3859 0.0
H421 H 0.82542 0.57481 0.41456 0.0
H422 H 0.87305 0.56743 0.44423 0.0
H423 H 0.94534 0.64943 0.46726 0.0
H424 H 0.91335 0.68537 0.4408 0.0
C425 C 0.85631 0.66731 0.4108 0.0
C426 C 0.82727 0.65401 0.3953 0.0
C427 C 0.87476 0.64711 0.42696 0.0
C428 C 0.81649 0.62056 0.39726 0.0
C429 C 0.83436 0.60053 0.41368 0.0
C430 C 0.88197 0.59317 0.44353 0.0
C431 C 0.91172 0.60566 0.45745 0.0
C432 C 0.86362 0.61349 0.42821 0.0
C433 C 0.92267 0.63912 0.45638 0.0
C434 C 0.90432 0.65968 0.44137 0.0
H435 H 0.39317 0.86466 0.38607 0.0
H436 H 0.39938 0.79502 0.46919 0.0
H437 H 0.4346 0.83578 0.5025 0.0
H438 H 0.46597 0.89031 0.50673 0.0
H439 H 0.45856 0.96108 0.42509 0.0
H440 H 0.4213 0.92101 0.39262 0.0
C441 C 0.40215 0.85856 0.41156 0.0
C442 C 0.39383 0.82682 0.42509 0.0
C443 C 0.42219 0.88229 0.43078 0.0
C444 C 0.40532 0.81928 0.45829 0.0
C445 C 0.42556 0.84255 0.47729 0.0
C446 C 0.45602 0.89703 0.48193 0.0
C447 C 0.46525 0.92852 0.46816 0.0
C448 C 0.43448 0.87399 0.46362 0.0
C449 C 0.45182 0.93701 0.43625 0.0
C450 C 0.43064 0.91405 0.41761 0.0
H451 H 0.1628 0.61906 0.66297 0.0
H452 H 0.22453 0.61046 0.58836 0.0
H453 H 0.18259 0.57992 0.5525 0.0
H454 H 0.12897 0.55502 0.54246 0.0
H455 H 0.06568 0.56341 0.61532 0.0
H456 H 0.10743 0.59513 0.65144 0.0
C457 C 0.16694 0.61032 0.63893 0.0
C458 C 0.19676 0.61694 0.62836 0.0
C459 C 0.14245 0.59301 0.61802 0.0
C460 C 0.20181 0.60581 0.59697 0.0
C461 C 0.17784 0.58834 0.57645 0.0
C462 C 0.12416 0.56383 0.5662 0.0
C463 C 0.09423 0.55663 0.57627 0.0
C464 C 0.14814 0.5818 0.5867 0.0
C465 C 0.08847 0.56867 0.6069 0.0
C466 C 0.1124 0.58662 0.62766 0.0
H467 H 0.35686 0.15712 0.6178 0.0
H468 H 0.43586 0.23399 0.63328 0.0
H469 H 0.46673 0.20348 0.60708 0.0
H470 H 0.47191 0.15483 0.58132 0.0
H471 H 0.39394 0.0768 0.56593 0.0
H472 H 0.36206 0.10789 0.59036 0.0
C473 C 0.38077 0.1672 0.61515 0.0
C474 C 0.39409 0.19769 0.62778 0.0
C475 C 0.39861 0.14929 0.60024 0.0
C476 C 0.42515 0.2104 0.62429 0.0
C477 C 0.44282 0.19302 0.6092 0.0
C478 C 0.44793 0.14449 0.58324 0.0
C479 C 0.43543 0.11337 0.57202 0.0
C480 C 0.42989 0.16236 0.59742 0.0
C481 C 0.40425 0.10057 0.57465 0.0
C482 C 0.38599 0.11839 0.58855 0.0
H483 H 0.87374 0.38112 0.6375 0.0
H484 H 0.8498 0.45839 0.68732 0.0
H485 H 0.89411 0.49565 0.66733 0.0
H486 H 0.93752 0.50754 0.6326 0.0
H487 H 0.95986 0.43195 0.57861 0.0
H488 H 0.91841 0.39301 0.6033 0.0
C489 C 0.87812 0.40611 0.6439 0.0
C490 C 0.85832 0.41666 0.66418 0.0
C491 C 0.90344 0.42785 0.63157 0.0
C492 C 0.86477 0.44919 0.67246 0.0
C493 C 0.89008 0.47071 0.66078 0.0
C494 C 0.93379 0.48246 0.62665 0.0
C495 C 0.95198 0.47276 0.60385 0.0
C496 C 0.90937 0.46041 0.64006 0.0
C497 C 0.94635 0.44014 0.59618 0.0
C498 C 0.9225 0.41786 0.61015 0.0
H499 H 0.64158 0.81509 0.56518 0.0
H500 H 0.71192 0.87254 0.6303 0.0
H501 H 0.68949 0.91954 0.61625 0.0
H502 H 0.64809 0.94297 0.58817 0.0
H503 H 0.57502 0.8832 0.52796 0.0
H504 H 0.6006 0.83856 0.53673 0.0
C505 C 0.65219 0.83808 0.5758 0.0
C506 C 0.67833 0.84069 0.59846 0.0
C507 C 0.63867 0.86446 0.56849 0.0
C508 C 0.69171 0.87025 0.61275 0.0
C509 C 0.67891 0.89698 0.60475 0.0
C510 C 0.63788 0.92026 0.57673 0.0
C511 C 0.60987 0.91662 0.55706 0.0
C512 C 0.65209 0.8942 0.58309 0.0
C513 C 0.59676 0.88689 0.5428 0.0
C514 C 0.61128 0.86122 0.54796 0.0
H515 H 0.39628 0.20942 0.45692 0.0
H516 H 0.31209 0.14384 0.42755 0.0
H517 H 0.33584 0.09814 0.443 0.0
H518 H 0.38178 0.07731 0.4598 0.0
H519 H 0.46619 0.14336 0.48812 0.0
H520 H 0.44105 0.1884 0.47833 0.0
C521 C 0.38316 0.18507 0.45413 0.0
C522 C 0.3527 0.17986 0.44078 0.0
C523 C 0.39702 0.15908 0.46262 0.0
C524 C 0.33562 0.14832 0.43785 0.0
C525 C 0.34922 0.12225 0.44645 0.0
C526 C 0.39463 0.10154 0.46397 0.0
C527 C 0.42588 0.10701 0.4741 0.0
C528 C 0.38011 0.1274 0.45804 0.0
C529 C 0.44214 0.13849 0.47998 0.0
C530 C 0.42781 0.1643 0.47437 0.0
H531 H 0.83176 0.39204 0.43831 0.0
H532 H 0.8593 0.43194 0.33971 0.0
H533 H 0.90684 0.46251 0.36684 0.0
H534 H 0.93946 0.48049 0.41933 0.0
H535 H 0.91018 0.44203 0.51755 0.0
H536 H 0.86511 0.40756 0.4899 0.0
C537 C 0.84834 0.40697 0.42261 0.0
C538 C 0.84178 0.40962 0.38693 0.0
C539 C 0.87558 0.42457 0.4384 0.0
C540 C 0.86344 0.4297 0.36723 0.0
C541 C 0.89078 0.44705 0.38272 0.0
C542 C 0.92356 0.46386 0.43446 0.0
C543 C 0.92829 0.46326 0.47034 0.0
C544 C 0.89701 0.44496 0.41835 0.0
C545 C 0.90713 0.44246 0.48987 0.0
C546 C 0.88125 0.42298 0.47408 0.0
H547 H 0.67835 0.87273 0.40516 0.0
H548 H 0.60083 0.79375 0.39291 0.0
H549 H 0.57 0.8229 0.42113 0.0
H550 H 0.56433 0.87108 0.44743 0.0
H551 H 0.64073 0.95131 0.45946 0.0
H552 H 0.67271 0.92148 0.43328 0.0
C553 C 0.65479 0.8619 0.409 0.0
C554 C 0.64182 0.8312 0.39673 0.0
C555 C 0.63694 0.87908 0.42497 0.0
C556 C 0.61122 0.81748 0.40171 0.0
C557 C 0.59358 0.83411 0.41791 0.0
C558 C 0.58798 0.88219 0.44438 0.0
C559 C 0.59999 0.91356 0.45518 0.0
C560 C 0.60608 0.86503 0.42924 0.0
C561 C 0.63078 0.92732 0.45113 0.0
C562 C 0.6491 0.91022 0.43623 0.0
H563 H 0.16218 0.63369 0.42007 0.0
H564 H 0.15372 0.57535 0.33234 0.0
H565 H 0.1074 0.54127 0.35209 0.0
H566 H 0.0712 0.52555 0.39644 0.0
H567 H 0.07843 0.58574 0.4824 0.0
H568 H 0.12247 0.62207 0.46028 0.0
C569 C 0.14997 0.61404 0.40469 0.0
C570 C 0.1621 0.60696 0.375 0.0
C571 C 0.12286 0.59477 0.4158 0.0
C572 C 0.14572 0.58099 0.35587 0.0
C573 C 0.11895 0.56156 0.36696 0.0
C574 C 0.08204 0.54692 0.41003 0.0
C575 C 0.07149 0.55261 0.44121 0.0
C576 C 0.10763 0.56781 0.39727 0.0
C577 C 0.08585 0.58061 0.45831 0.0
C578 C 0.11129 0.60137 0.44582 0.0
H579 H 0.44908 0.85633 0.67863 0.0
H580 H 0.37195 0.86263 0.60707 0.0
H581 H 0.40232 0.90894 0.57777 0.0
H582 H 0.45153 0.94595 0.57051 0.0
H583 H 0.52791 0.94057 0.64353 0.0
H584 H 0.49656 0.89647 0.67484 0.0
C585 C 0.43854 0.86814 0.65713 0.0
C586 C 0.40818 0.85549 0.64505 0.0
C587 C 0.45598 0.89518 0.64065 0.0
C588 C 0.3954 0.87112 0.61663 0.0
C589 C 0.41269 0.89788 0.59995 0.0
C590 C 0.46125 0.93555 0.5936 0.0
C591 C 0.49221 0.94659 0.60439 0.0
C592 C 0.44314 0.90986 0.61144 0.0
C593 C 0.50425 0.93265 0.63443 0.0
C594 C 0.48635 0.90724 0.65233 0.0
H595 H 0.17858 0.37551 0.6681 0.0
H596 H 0.19057 0.33436 0.57404 0.0
H597 H 0.14909 0.35645 0.54503 0.0
H598 H 0.11235 0.39162 0.54513 0.0
H599 H 0.10573 0.43845 0.63706 0.0
H600 H 0.14187 0.40984 0.6683 0.0
C601 C 0.17239 0.37149 0.64119 0.0
C602 C 0.18811 0.35343 0.62339 0.0
C603 C 0.14925 0.38524 0.6243 0.0
C604 C 0.17888 0.34782 0.58869 0.0
C605 C 0.15522 0.36067 0.57192 0.0
C606 C 0.1186 0.39519 0.57202 0.0
C607 C 0.10634 0.41685 0.58892 0.0
C608 C 0.14061 0.37992 0.58931 0.0
C609 C 0.11467 0.4215 0.62377 0.0
C610 C 0.1355 0.40538 0.64151 0.0
H611 H 0.64133 0.19621 0.58805 0.0
H612 H 0.63289 0.1469 0.68692 0.0
H613 H 0.60049 0.09962 0.66055 0.0
H614 H 0.57073 0.07402 0.60973 0.0
H615 H 0.57704 0.12519 0.51176 0.0
H616 H 0.61458 0.16946 0.53708 0.0
C617 C 0.63288 0.1749 0.60375 0.0
C618 C 0.63943 0.1752 0.63943 0.0
C619 C 0.61382 0.14802 0.58848 0.0
C620 C 0.62789 0.14748 0.65944 0.0
C621 C 0.60944 0.12038 0.64436 0.0
C622 C 0.58093 0.09457 0.59392 0.0
C623 C 0.57129 0.09638 0.55897 0.0
C624 C 0.60171 0.12058 0.60896 0.0
C625 C 0.58417 0.12335 0.53876 0.0
C626 C 0.60552 0.14873 0.55324 0.0
H627 H 0.8516 0.67032 0.57196 0.0
H628 H 0.79054 0.58398 0.53694 0.0
H629 H 0.83393 0.5612 0.52654 0.0
H630 H 0.88841 0.56327 0.5349 0.0
H631 H 0.94968 0.64878 0.57211 0.0
H632 H 0.90674 0.6746 0.57439 0.0
C633 C 0.84785 0.64688 0.56115 0.0
C634 C 0.81811 0.62869 0.55529 0.0
C635 C 0.87279 0.63363 0.55642 0.0
C636 C 0.81337 0.5982 0.54177 0.0
C637 C 0.83809 0.58519 0.53602 0.0
C638 C 0.89251 0.58772 0.54309 0.0
C639 C 0.92213 0.60396 0.55375 0.0
C640 C 0.86782 0.60223 0.54452 0.0
C641 C 0.92702 0.63563 0.56421 0.0
C642 C 0.90252 0.65043 0.56539 0.0
H643 H 0.3871 0.42697 0.24992 0.0
H644 H 0.31029 0.37391 0.18934 0.0
H645 H 0.33308 0.39704 0.13681 0.0
H646 H 0.37707 0.42822 0.10851 0.0
H647 H 0.45377 0.48166 0.16937 0.0
H648 H 0.42859 0.46291 0.22138 0.0
C649 C 0.37532 0.42078 0.22515 0.0
C650 C 0.34735 0.3986 0.22328 0.0
C651 C 0.38856 0.4341 0.1952 0.0
C652 C 0.3319 0.39101 0.19123 0.0
C653 C 0.34497 0.40408 0.16127 0.0
C654 C 0.38815 0.43602 0.13312 0.0
C655 C 0.41751 0.45572 0.1351 0.0
C656 C 0.37363 0.42503 0.16298 0.0
C657 C 0.43132 0.46614 0.16712 0.0
C658 C 0.41699 0.45538 0.19693 0.0
H659 H 0.3853 0.60665 0.88128 0.0
H660 H 0.45657 0.68051 0.84145 0.0
H661 H 0.49425 0.66187 0.88105 0.0
H662 H 0.50766 0.62365 0.9253 0.0
H663 H 0.4374 0.54838 0.96478 0.0
H664 H 0.39889 0.56863 0.92732 0.0
C665 C 0.40908 0.61859 0.88125 0.0
C666 C 0.41791 0.64516 0.85847 0.0
C667 C 0.43092 0.60758 0.90416 0.0
C668 C 0.44889 0.66043 0.85902 0.0
C669 C 0.47058 0.64967 0.88158 0.0
C670 C 0.48391 0.61178 0.92612 0.0
C671 C 0.47562 0.58449 0.94803 0.0
C672 C 0.46191 0.62322 0.90416 0.0
C673 C 0.4446 0.56953 0.94841 0.0
C674 C 0.42251 0.58099 0.92679 0.0
H675 H 0.39053 0.42594 0.83566 0.0
H676 H 0.40026 0.33651 0.8879 0.0
H677 H 0.43207 0.36585 0.93433 0.0
H678 H 0.46079 0.41731 0.95775 0.0
H679 H 0.45257 0.50615 0.90335 0.0
H680 H 0.41588 0.47682 0.86078 0.0
C681 C 0.39907 0.41281 0.85751 0.0
C682 C 0.39307 0.37905 0.85814 0.0
C683 C 0.41764 0.42982 0.88388 0.0
C684 C 0.40484 0.36251 0.88648 0.0
C685 C 0.42294 0.37927 0.91315 0.0
C686 C 0.45032 0.43014 0.93701 0.0
C687 C 0.45919 0.46377 0.93366 0.0
C688 C 0.42999 0.41298 0.91184 0.0
C689 C 0.44601 0.48021 0.90635 0.0
C690 C 0.42516 0.46347 0.88194 0.0
H691 H 0.67081 0.41616 0.85997 0.0
H692 H 0.59383 0.38735 0.78676 0.0
H693 H 0.56353 0.41495 0.81764 0.0
H694 H 0.55849 0.44678 0.86526 0.0
H695 H 0.63473 0.47607 0.93919 0.0
H696 H 0.6658 0.44915 0.90792 0.0
C697 C 0.64747 0.41611 0.85068 0.0
C698 C 0.6346 0.39941 0.82117 0.0
C699 C 0.63004 0.43217 0.86861 0.0
C700 C 0.6042 0.39943 0.80969 0.0
C701 C 0.58688 0.41542 0.8272 0.0
C702 C 0.58194 0.44743 0.87461 0.0
C703 C 0.5942 0.46342 0.90464 0.0
C704 C 0.5995 0.43175 0.85671 0.0
C705 C 0.62465 0.46389 0.91623 0.0
C706 C 0.64243 0.44848 0.89834 0.0
H707 H 0.63047 0.58536 0.7798 0.0
H708 H 0.71039 0.63819 0.83549 0.0
H709 H 0.68882 0.61848 0.88986 0.0
H710 H 0.64473 0.59088 0.92078 0.0
H711 H 0.56513 0.53752 0.86423 0.0
H712 H 0.58925 0.55225 0.81099 0.0
C713 C 0.64327 0.59197 0.80396 0.0
C714 C 0.6717 0.61318 0.80406 0.0
C715 C 0.63071 0.58068 0.83482 0.0
C716 C 0.68841 0.62174 0.83517 0.0
C717 C 0.67602 0.61064 0.86611 0.0
C718 C 0.63282 0.5822 0.89685 0.0
C719 C 0.60294 0.56374 0.89643 0.0
C720 C 0.6468 0.59083 0.86618 0.0
C721 C 0.588 0.55215 0.86529 0.0
C722 C 0.60173 0.56058 0.83475 0.0
H723 H 0.60433 0.62953 0.19928 0.0
H724 H 0.66269 0.67115 0.12029 0.0
H725 H 0.63032 0.63529 0.0786 0.0
H726 H 0.58466 0.59158 0.06505 0.0
H727 H 0.52999 0.54866 0.14743 0.0
H728 H 0.56139 0.58544 0.18693 0.0
C729 C 0.60983 0.63085 0.17285 0.0
C730 C 0.63547 0.65311 0.16265 0.0
C731 C 0.59167 0.60986 0.14953 0.0
C732 C 0.64286 0.6542 0.12858 0.0
C733 C 0.62436 0.63374 0.10482 0.0
C734 C 0.57968 0.59039 0.09161 0.0
C735 C 0.55457 0.56752 0.10286 0.0
C736 C 0.59857 0.61139 0.11499 0.0
C737 C 0.54878 0.56607 0.13761 0.0
C738 C 0.56682 0.58713 0.1605 0.0
H739 H 0.3522 0.58467 0.20049 0.0
H740 H 0.42823 0.66537 0.21496 0.0
H741 H 0.4571 0.64223 0.17804 0.0
H742 H 0.46175 0.59871 0.14265 0.0
H743 H 0.38497 0.52059 0.1228 0.0
H744 H 0.35511 0.54356 0.16004 0.0
C745 C 0.37485 0.59761 0.19521 0.0
C746 C 0.38803 0.62657 0.21148 0.0
C747 C 0.39122 0.58468 0.17278 0.0
C748 C 0.41763 0.64255 0.20412 0.0
C749 C 0.43418 0.62952 0.18258 0.0
C750 C 0.43836 0.58689 0.14629 0.0
C751 C 0.42549 0.55806 0.13021 0.0
C752 C 0.42136 0.60049 0.1671 0.0
C753 C 0.39517 0.543 0.13478 0.0
C754 C 0.37823 0.55603 0.1562 0.0
H755 H 0.63206 0.42931 0.16721 0.0
H756 H 0.56993 0.33761 0.17967 0.0
H757 H 0.53402 0.35411 0.13614 0.0
H758 H 0.51848 0.39567 0.0969 0.0
H759 H 0.58146 0.48627 0.08188 0.0
H760 H 0.61889 0.46861 0.12299 0.0
C761 C 0.61095 0.41264 0.16007 0.0
C762 C 0.60363 0.38249 0.17765 0.0
C763 C 0.5904 0.42202 0.13428 0.0
C764 C 0.57596 0.36141 0.16771 0.0
C765 C 0.55539 0.37068 0.14245 0.0
C766 C 0.54055 0.4114 0.10222 0.0
C767 C 0.54692 0.44234 0.08636 0.0
C768 C 0.56208 0.40115 0.12602 0.0
C769 C 0.57582 0.46227 0.0935 0.0
C770 C 0.59725 0.45228 0.11727 0.0
loop_
_geom_bond_atom_site_label_1
_geom_bond_atom_site_label_2
_geom_bond_distance
_geom_bond_site_symmetry_2
_ccdc_geom_bond_type
C0 C1 1.384 . S
C0 H13 0.947 . S
C0 C35 1.382 . S
C1 C0 1.384 . S
C1 C2 1.378 . S
C2 C1 1.378 . S
C2 C3 1.378 . S
C2 H14 0.952 . S
C3 C2 1.378 . S
C3 H15 0.950 . S
C3 C34 1.383 . S
H4 C23 0.947 . S
H5 C24 0.946 . S
H6 C26 0.953 . S
H7 C27 0.945 . S
H8 C29 0.952 . S
H9 C30 0.949 . S
H10 C32 0.950 . S
H11 C33 0.948 . S
H12 C35 0.951 . S
H13 C0 0.947 . S
H14 C2 0.952 . S
H15 C3 0.950 . S
N16 C19 1.382 . S
N16 C21 1.363 . S
N17 C19 1.371 . S
N17 C20 1.372 . S
N18 C20 1.361 . S
N18 C21 1.377 . S
C19 N16 1.382 . S
C19 N17 1.371 . S
C19 C22 1.480 . S
C20 N17 1.372 . S
C20 N18 1.361 . S
C20 C28 1.457 . S
C21 N16 1.363 . S
C21 N18 1.377 . S
C21 C34 1.479 . S
C22 C19 1.480 . S
C22 C23 1.383 . S
C22 C27 1.385 . S
C23 H4 0.947 . S
C23 C22 1.383 . S
C23 C24 1.388 . S
C24 H5 0.946 . S
C24 C23 1.388 . S
C24 C25 1.384 . S
C25 C24 1.384 . S
C25 C26 1.377 . S
C26 H6 0.953 . S
C26 C25 1.377 . S
C26 C27 1.369 . S
C27 H7 0.945 . S
C27 C22 1.385 . S
C27 C26 1.369 . S
C28 C20 1.457 . S
C28 C29 1.372 . S
C28 C33 1.364 . S
C29 H8 0.952 . S
C29 C28 1.372 . S
C29 C30 1.389 . S
C30 H9 0.949 . S
C30 C29 1.389 . S
C30 C31 1.387 . S
C31 C30 1.387 . S
C31 C32 1.372 . S
C32 H10 0.950 . S
C32 C31 1.372 . S
C32 C33 1.379 . S
C33 H11 0.948 . S
C33 C28 1.364 . S
C33 C32 1.379 . S
C34 C3 1.383 . S
C34 C21 1.479 . S
C34 C35 1.398 . S
C35 C0 1.382 . S
C35 H12 0.951 . S
C35 C34 1.398 . S
C36 C37 1.384 . S
C36 H49 0.947 . S
C36 C71 1.382 . S
C37 C36 1.384 . S
C37 C38 1.378 . S
C38 C37 1.378 . S
C38 C39 1.378 . S
C38 H50 0.952 . S
C39 C38 1.378 . S
C39 H51 0.950 . S
C39 C70 1.383 . S
H40 C59 0.947 . S
H41 C60 0.946 . S
H42 C62 0.953 . S
H43 C63 0.945 . S
H44 C65 0.952 . S
H45 C66 0.949 . S
H46 C68 0.950 . S
H47 C69 0.948 . S
H48 C71 0.951 . S
H49 C36 0.947 . S
H50 C38 0.952 . S
H51 C39 0.950 . S
N52 C55 1.382 . S
N52 C57 1.363 . S
N53 C55 1.371 . S
N53 C56 1.372 . S
N54 C56 1.361 . S
N54 C57 1.377 . S
C55 N52 1.382 . S
C55 N53 1.371 . S
C55 C58 1.480 . S
C56 N53 1.372 . S
C56 N54 1.361 . S
C56 C64 1.457 . S
C57 N52 1.363 . S
C57 N54 1.377 . S
C57 C70 1.479 . S
C58 C55 1.480 . S
C58 C59 1.383 . S
C58 C63 1.385 . S
C59 H40 0.947 . S
C59 C58 1.383 . S
C59 C60 1.388 . S
C60 H41 0.946 . S
C60 C59 1.388 . S
C60 C61 1.384 . S
C61 C60 1.384 . S
C61 C62 1.377 . S
C62 H42 0.953 . S
C62 C61 1.377 . S
C62 C63 1.369 . S
C63 H43 0.945 . S
C63 C58 1.385 . S
C63 C62 1.369 . S
C64 C56 1.457 . S
C64 C65 1.372 . S
C64 C69 1.364 . S
C65 H44 0.952 . S
C65 C64 1.372 . S
C65 C66 1.389 . S
C66 H45 0.949 . S
C66 C65 1.389 . S
C66 C67 1.387 . S
C67 C66 1.387 . S
C67 C68 1.372 . S
C68 H46 0.950 . S
C68 C67 1.372 . S
C68 C69 1.379 . S
C69 H47 0.948 . S
C69 C64 1.364 . S
C69 C68 1.379 . S
C70 C39 1.383 . S
C70 C57 1.479 . S
C70 C71 1.398 . S
C71 C36 1.382 . S
C71 H48 0.951 . S
C71 C70 1.398 . S
C72 C73 1.384 . S
C72 H85 0.947 . S
C72 C107 1.382 . S
C73 C72 1.384 . S
C73 C74 1.378 . S
C74 C73 1.378 . S
C74 C75 1.378 . S
C74 H86 0.952 . S
C75 C74 1.378 . S
C75 H87 0.950 . S
C75 C106 1.383 . S
H76 C95 0.947 . S
H77 C96 0.946 . S
H78 C98 0.953 . S
H79 C99 0.945 . S
H80 C101 0.952 . S
H81 C102 0.949 . S
H82 C104 0.950 . S
H83 C105 0.948 . S
H84 C107 0.951 . S
H85 C72 0.947 . S
H86 C74 0.952 . S
H87 C75 0.950 . S
N88 C91 1.382 . S
N88 C93 1.363 . S
N89 C91 1.371 . S
N89 C92 1.372 . S
N90 C92 1.361 . S
N90 C93 1.377 . S
C91 N88 1.382 . S
C91 N89 1.371 . S
C91 C94 1.480 . S
C92 N89 1.372 . S
C92 N90 1.361 . S
C92 C100 1.457 . S
C93 N88 1.363 . S
C93 N90 1.377 . S
C93 C106 1.479 . S
C94 C91 1.480 . S
C94 C95 1.383 . S
C94 C99 1.385 . S
C95 H76 0.947 . S
C95 C94 1.383 . S
C95 C96 1.388 . S
C96 H77 0.946 . S
C96 C95 1.388 . S
C96 C97 1.384 . S
C97 C96 1.384 . S
C97 C98 1.377 . S
C98 H78 0.953 . S
C98 C97 1.377 . S
C98 C99 1.369 . S
C99 H79 0.945 . S
C99 C94 1.385 . S
C99 C98 1.369 . S
C100 C92 1.457 . S
C100 C101 1.372 . S
C100 C105 1.364 . S
C101 H80 0.952 . S
C101 C100 1.372 . S
C101 C102 1.389 . S
C102 H81 0.949 . S
C102 C101 1.389 . S
C102 C103 1.387 . S
C103 C102 1.387 . S
C103 C104 1.372 . S
C104 H82 0.950 . S
C104 C103 1.372 . S
C104 C105 1.379 . S
C105 H83 0.948 . S
C105 C100 1.364 . S
C105 C104 1.379 . S
C106 C75 1.383 . S
C106 C93 1.479 . S
C106 C107 1.398 . S
C107 C72 1.382 . S
C107 H84 0.951 . S
C107 C106 1.398 . S
C108 C109 1.384 . S
C108 H121 0.947 . S
C108 C143 1.382 . S
C109 C108 1.384 . S
C109 C110 1.378 . S
C110 C109 1.378 . S
C110 C111 1.378 . S
C110 H122 0.952 . S
C111 C110 1.378 . S
C111 H123 0.950 . S
C111 C142 1.383 . S
H112 C131 0.947 . S
H113 C132 0.946 . S
H114 C134 0.953 . S
H115 C135 0.945 . S
H116 C137 0.952 . S
H117 C138 0.949 . S
H118 C140 0.950 . S
H119 C141 0.948 . S
H120 C143 0.951 . S
H121 C108 0.947 . S
H122 C110 0.952 . S
H123 C111 0.950 . S
N124 C127 1.382 . S
N124 C129 1.363 . S
N125 C127 1.371 . S
N125 C128 1.372 . S
N126 C128 1.361 . S
N126 C129 1.377 . S
C127 N124 1.382 . S
C127 N125 1.371 . S
C127 C130 1.480 . S
C128 N125 1.372 . S
C128 N126 1.361 . S
C128 C136 1.457 . S
C129 N124 1.363 . S
C129 N126 1.377 . S
C129 C142 1.479 . S
C130 C127 1.480 . S
C130 C131 1.383 . S
C130 C135 1.385 . S
C131 H112 0.947 . S
C131 C130 1.383 . S
C131 C132 1.388 . S
C132 H113 0.946 . S
C132 C131 1.388 . S
C132 C133 1.384 . S
C133 C132 1.384 . S
C133 C134 1.377 . S
C134 H114 0.953 . S
C134 C133 1.377 . S
C134 C135 1.369 . S
C135 H115 0.945 . S
C135 C130 1.385 . S
C135 C134 1.369 . S
C136 C128 1.457 . S
C136 C137 1.372 . S
C136 C141 1.364 . S
C137 H116 0.952 . S
C137 C136 1.372 . S
C137 C138 1.389 . S
C138 H117 0.949 . S
C138 C137 1.389 . S
C138 C139 1.387 . S
C139 C138 1.387 . S
C139 C140 1.372 . S
C140 H118 0.950 . S
C140 C139 1.372 . S
C140 C141 1.379 . S
C141 H119 0.948 . S
C141 C136 1.364 . S
C141 C140 1.379 . S
C142 C111 1.383 . S
C142 C129 1.479 . S
C142 C143 1.398 . S
C143 C108 1.382 . S
C143 H120 0.951 . S
C143 C142 1.398 . S
C144 C145 1.384 . S
C144 H157 0.947 . S
C144 C179 1.382 . S
C145 C144 1.384 . S
C145 C146 1.378 . S
C146 C145 1.378 . S
C146 C147 1.378 . S
C146 H158 0.952 . S
C147 C146 1.378 . S
C147 H159 0.950 . S
C147 C178 1.383 . S
H148 C167 0.947 . S
H149 C168 0.946 . S
H150 C170 0.953 . S
H151 C171 0.945 . S
H152 C173 0.952 . S
H153 C174 0.949 . S
H154 C176 0.950 . S
H155 C177 0.948 . S
H156 C179 0.951 . S
H157 C144 0.947 . S
H158 C146 0.952 . S
H159 C147 0.950 . S
N160 C163 1.382 . S
N160 C165 1.363 . S
N161 C163 1.371 . S
N161 C164 1.372 . S
N162 C164 1.361 . S
N162 C165 1.377 . S
C163 N160 1.382 . S
C163 N161 1.371 . S
C163 C166 1.480 . S
C164 N161 1.372 . S
C164 N162 1.361 . S
C164 C172 1.457 . S
C165 N160 1.363 . S
C165 N162 1.377 . S
C165 C178 1.479 . S
C166 C163 1.480 . S
C166 C167 1.383 . S
C166 C171 1.385 . S
C167 H148 0.947 . S
C167 C166 1.383 . S
C167 C168 1.388 . S
C168 H149 0.946 . S
C168 C167 1.388 . S
C168 C169 1.384 . S
C169 C168 1.384 . S
C169 C170 1.377 . S
C170 H150 0.953 . S
C170 C169 1.377 . S
C170 C171 1.369 . S
C171 H151 0.945 . S
C171 C166 1.385 . S
C171 C170 1.369 . S
C172 C164 1.457 . S
C172 C173 1.372 . S
C172 C177 1.364 . S
C173 H152 0.952 . S
C173 C172 1.372 . S
C173 C174 1.389 . S
C174 H153 0.949 . S
C174 C173 1.389 . S
C174 C175 1.387 . S
C175 C174 1.387 . S
C175 C176 1.372 . S
C176 H154 0.950 . S
C176 C175 1.372 . S
C176 C177 1.379 . S
C177 H155 0.948 . S
C177 C172 1.364 . S
C177 C176 1.379 . S
C178 C147 1.383 . S
C178 C165 1.479 . S
C178 C179 1.398 . S
C179 C144 1.382 . S
C179 H156 0.951 . S
C179 C178 1.398 . S
C180 C181 1.384 . S
C180 H193 0.947 . S
C180 C215 1.382 . S
C181 C180 1.384 . S
C181 C182 1.378 . S
C182 C181 1.378 . S
C182 C183 1.378 . S
C182 H194 0.952 . S
C183 C182 1.378 . S
C183 H195 0.950 . S
C183 C214 1.383 . S
H184 C203 0.947 . S
H185 C204 0.946 . S
H186 C206 0.953 . S
H187 C207 0.945 . S
H188 C209 0.952 . S
H189 C210 0.949 . S
H190 C212 0.950 . S
H191 C213 0.948 . S
H192 C215 0.951 . S
H193 C180 0.947 . S
H194 C182 0.952 . S
H195 C183 0.950 . S
N196 C199 1.382 . S
N196 C201 1.363 . S
N197 C199 1.371 . S
N197 C200 1.372 . S
N198 C200 1.361 . S
N198 C201 1.377 . S
C199 N196 1.382 . S
C199 N197 1.371 . S
C199 C202 1.480 . S
C200 N197 1.372 . S
C200 N198 1.361 . S
C200 C208 1.457 . S
C201 N196 1.363 . S
C201 N198 1.377 . S
C201 C214 1.479 . S
C202 C199 1.480 . S
C202 C203 1.383 . S
C202 C207 1.385 . S
C203 H184 0.947 . S
C203 C202 1.383 . S
C203 C204 1.388 . S
C204 H185 0.946 . S
C204 C203 1.388 . S
C204 C205 1.384 . S
C205 C204 1.384 . S
C205 C206 1.377 . S
C206 H186 0.953 . S
C206 C205 1.377 . S
C206 C207 1.369 . S
C207 H187 0.945 . S
C207 C202 1.385 . S
C207 C206 1.369 . S
C208 C200 1.457 . S
C208 C209 1.372 . S
C208 C213 1.364 . S
C209 H188 0.952 . S
C209 C208 1.372 . S
C209 C210 1.389 . S
C210 H189 0.949 . S
C210 C209 1.389 . S
C210 C211 1.387 . S
C211 C210 1.387 . S
C211 C212 1.372 . S
C212 H190 0.950 . S
C212 C211 1.372 . S
C212 C213 1.379 . S
C213 H191 0.948 . S
C213 C208 1.364 . S
C213 C212 1.379 . S
C214 C183 1.383 . S
C214 C201 1.479 . S
C214 C215 1.398 . S
C215 C180 1.382 . S
C215 H192 0.951 . S
C215 C214 1.398 . S
C216 C217 1.384 . S
C216 H229 0.947 . S
C216 C251 1.382 . S
C217 C216 1.384 . S
C217 C218 1.378 . S
C218 C217 1.378 . S
C218 C219 1.378 . S
C218 H230 0.952 . S
C219 C218 1.378 . S
C219 H231 0.950 . S
C219 C250 1.383 . S
H220 C239 0.947 . S
H221 C240 0.946 . S
H222 C242 0.953 . S
H223 C243 0.945 . S
H224 C245 0.952 . S
H225 C246 0.949 . S
H226 C248 0.950 . S
H227 C249 0.948 . S
H228 C251 0.951 . S
H229 C216 0.947 . S
H230 C218 0.952 . S
H231 C219 0.950 . S
N232 C235 1.382 . S
N232 C237 1.363 . S
N233 C235 1.371 . S
N233 C236 1.372 . S
N234 C236 1.361 . S
N234 C237 1.377 . S
C235 N232 1.382 . S
C235 N233 1.371 . S
C235 C238 1.480 . S
C236 N233 1.372 . S
C236 N234 1.361 . S
C236 C244 1.457 . S
C237 N232 1.363 . S
C237 N234 1.377 . S
C237 C250 1.479 . S
C238 C235 1.480 . S
C238 C239 1.383 . S
C238 C243 1.385 . S
C239 H220 0.947 . S
C239 C238 1.383 . S
C239 C240 1.388 . S
C240 H221 0.946 . S
C240 C239 1.388 . S
C240 C241 1.384 . S
C241 C240 1.384 . S
C241 C242 1.377 . S
C242 H222 0.953 . S
C242 C241 1.377 . S
C242 C243 1.369 . S
C243 H223 0.945 . S
C243 C238 1.385 . S
C243 C242 1.369 . S
C244 C236 1.457 . S
C244 C245 1.372 . S
C244 C249 1.364 . S
C245 H224 0.952 . S
C245 C244 1.372 . S
C245 C246 1.389 . S
C246 H225 0.949 . S
C246 C245 1.389 . S
C246 C247 1.387 . S
C247 C246 1.387 . S
C247 C248 1.372 . S
C248 H226 0.950 . S
C248 C247 1.372 . S
C248 C249 1.379 . S
C249 H227 0.948 . S
C249 C244 1.364 . S
C249 C248 1.379 . S
C250 C219 1.383 . S
C250 C237 1.479 . S
C250 C251 1.398 . S
C251 C216 1.382 . S
C251 H228 0.951 . S
C251 C250 1.398 . S
C252 C253 1.384 . S
C252 H265 0.947 . S
C252 C287 1.382 . S
C253 C252 1.384 . S
C253 C254 1.378 . S
C254 C253 1.378 . S
C254 C255 1.378 . S
C254 H266 0.952 . S
C255 C254 1.378 . S
C255 H267 0.950 . S
C255 C286 1.383 . S
H256 C275 0.947 . S
H257 C276 0.946 . S
H258 C278 0.953 . S
H259 C279 0.945 . S
H260 C281 0.952 . S
H261 C282 0.949 . S
H262 C284 0.950 . S
H263 C285 0.948 . S
H264 C287 0.951 . S
H265 C252 0.947 . S
H266 C254 0.952 . S
H267 C255 0.950 . S
N268 C271 1.382 . S
N268 C273 1.363 . S
N269 C271 1.371 . S
N269 C272 1.372 . S
N270 C272 1.361 . S
N270 C273 1.377 . S
C271 N268 1.382 . S
C271 N269 1.371 . S
C271 C274 1.480 . S
C272 N269 1.372 . S
C272 N270 1.361 . S
C272 C280 1.457 . S
C273 N268 1.363 . S
C273 N270 1.377 . S
C273 C286 1.479 . S
C274 C271 1.480 . S
C274 C275 1.383 . S
C274 C279 1.385 . S
C275 H256 0.947 . S
C275 C274 1.383 . S
C275 C276 1.388 . S
C276 H257 0.946 . S
C276 C275 1.388 . S
C276 C277 1.384 . S
C277 C276 1.384 . S
C277 C278 1.377 . S
C278 H258 0.953 . S
C278 C277 1.377 . S
C278 C279 1.369 . S
C279 H259 0.945 . S
C279 C274 1.385 . S
C279 C278 1.369 . S
C280 C272 1.457 . S
C280 C281 1.372 . S
C280 C285 1.364 . S
C281 H260 0.952 . S
C281 C280 1.372 . S
C281 C282 1.389 . S
C282 H261 0.949 . S
C282 C281 1.389 . S
C282 C283 1.387 . S
C283 C282 1.387 . S
C283 C284 1.372 . S
C284 H262 0.950 . S
C284 C283 1.372 . S
C284 C285 1.379 . S
C285 H263 0.948 . S
C285 C280 1.364 . S
C285 C284 1.379 . S
C286 C255 1.383 . S
C286 C273 1.479 . S
C286 C287 1.398 . S
C287 C252 1.382 . S
C287 H264 0.951 . S
C287 C286 1.398 . S
Co288 O291 2.042 . S
Co288 O298 2.264 . S
Co288 O317 2.286 . S
Co288 O318 2.069 . S
Co288 O320 2.015 . S
Co289 O291 2.122 . S
Co289 O297 2.073 . S
Co289 O298 2.327 . S
Co289 O299 1.976 . S
Co290 O291 2.087 . S
Co290 O293 2.087 1_455 S
Co290 O300 2.111 . S
Co290 O301 2.143 1_455 S
Co290 O305 2.111 1_455 S
Co290 O319 2.143 . S
O291 Co288 2.042 . S
O291 Co289 2.122 . S
O291 Co290 2.087 . S
O291 H292 0.980 . S
H292 O291 0.980 . S
O293 Co290 2.087 1_655 S
O293 Co294 2.042 . S
O293 Co295 2.122 . S
O293 H296 0.980 . S
Co294 O293 2.042 . S
Co294 O302 2.286 . S
Co294 O303 2.069 . S
Co294 O304 2.015 . S
Co294 O307 2.264 . S
Co295 O293 2.122 . S
Co295 O306 1.976 . S
Co295 O307 2.327 . S
Co295 O308 2.073 . S
H296 O293 0.980 . S
O297 Co289 2.073 . S
O297 C312 1.245 . S
O298 Co288 2.264 . S
O298 Co289 2.327 . S
O298 C312 1.257 . S
O299 Co289 1.976 . S
O299 C311 1.251 . S
O300 Co290 2.111 . S
O300 C311 1.274 . S
O301 Co290 2.143 1_655 S
O301 C314 1.246 . S
O302 Co294 2.286 . S
O302 C313 1.259 . S
O303 Co294 2.069 . S
O303 C313 1.289 . S
O304 Co294 2.015 . S
O304 C314 1.257 . S
O305 Co290 2.111 1_655 S
O305 C315 1.274 . S
O306 Co295 1.976 . S
O306 C315 1.251 . S
O307 Co294 2.264 . S
O307 Co295 2.327 . S
O307 C316 1.257 . S
O308 Co295 2.073 . S
O308 C316 1.245 . S
C309 O317 1.259 . S
C309 O318 1.289 . S
C310 O319 1.246 . S
C310 O320 1.257 . S
C311 O299 1.251 . S
C311 O300 1.274 . S
C312 O297 1.245 . S
C312 O298 1.257 . S
C313 O302 1.259 . S
C313 O303 1.289 . S
C314 O301 1.246 . S
C314 O304 1.257 . S
C315 O305 1.274 . S
C315 O306 1.251 . S
C316 O307 1.257 . S
C316 O308 1.245 . S
O317 Co288 2.286 . S
O317 C309 1.259 . S
O318 Co288 2.069 . S
O318 C309 1.289 . S
O319 Co290 2.143 . S
O319 C310 1.246 . S
O320 Co288 2.015 . S
O320 C310 1.257 . S
Co321 O324 2.042 . S
Co321 O331 2.264 . S
Co321 O350 2.286 . S
Co321 O351 2.069 . S
Co321 O353 2.015 . S
Co322 O324 2.122 . S
Co322 O330 2.073 . S
Co322 O331 2.327 . S
Co322 O332 1.976 . S
Co323 O324 2.087 1_545 S
Co323 O326 2.087 . S
Co323 O333 2.111 1_545 S
Co323 O334 2.143 . S
Co323 O338 2.111 . S
Co323 O352 2.143 1_545 S
O324 Co321 2.042 . S
O324 Co322 2.122 . S
O324 Co323 2.087 1_565 S
O324 H325 0.980 . S
H325 O324 0.980 . S
O326 Co323 2.087 . S
O326 Co327 2.042 . S
O326 Co328 2.122 . S
O326 H329 0.980 . S
Co327 O326 2.042 . S
Co327 O335 2.286 . S
Co327 O336 2.069 . S
Co327 O337 2.015 . S
Co327 O340 2.264 . S
Co328 O326 2.122 . S
Co328 O339 1.976 . S
Co328 O340 2.327 . S
Co328 O341 2.073 . S
H329 O326 0.980 . S
O330 Co322 2.073 . S
O330 C345 1.245 . S
O331 Co321 2.264 . S
O331 Co322 2.327 . S
O331 C345 1.257 . S
O332 Co322 1.976 . S
O332 C344 1.251 . S
O333 Co323 2.111 1_565 S
O333 C344 1.274 . S
O334 Co323 2.143 . S
O334 C347 1.246 . S
O335 Co327 2.286 . S
O335 C346 1.259 . S
O336 Co327 2.069 . S
O336 C346 1.289 . S
O337 Co327 2.015 . S
O337 C347 1.257 . S
O338 Co323 2.111 . S
O338 C348 1.274 . S
O339 Co328 1.976 . S
O339 C348 1.251 . S
O340 Co327 2.264 . S
O340 Co328 2.327 . S
O340 C349 1.257 . S
O341 Co328 2.073 . S
O341 C349 1.245 . S
C342 O350 1.259 . S
C342 O351 1.289 . S
C343 O352 1.246 . S
C343 O353 1.257 . S
C344 O332 1.251 . S
C344 O333 1.274 . S
C345 O330 1.245 . S
C345 O331 1.257 . S
C346 O335 1.259 . S
C346 O336 1.289 . S
C347 O334 1.246 . S
C347 O337 1.257 . S
C348 O338 1.274 . S
C348 O339 1.251 . S
C349 O340 1.257 . S
C349 O341 1.245 . S
O350 Co321 2.286 . S
O350 C342 1.259 . S
O351 Co321 2.069 . S
O351 C342 1.289 . S
O352 Co323 2.143 1_565 S
O352 C343 1.246 . S
O353 Co321 2.015 . S
O353 C343 1.257 . S
Co354 O357 2.042 . S
Co354 O364 2.264 . S
Co354 O383 2.286 . S
Co354 O384 2.069 . S
Co354 O386 2.015 . S
Co355 O357 2.122 . S
Co355 O363 2.073 . S
Co355 O364 2.327 . S
Co355 O365 1.976 . S
Co356 O357 2.087 . S
Co356 O359 2.087 1_554 S
Co356 O366 2.111 . S
Co356 O367 2.143 1_554 S
Co356 O371 2.111 1_554 S
Co356 O385 2.143 . S
O357 Co354 2.042 . S
O357 Co355 2.122 . S
O357 Co356 2.087 . S
O357 H358 0.980 . S
H358 O357 0.980 . S
O359 Co356 2.087 1_556 S
O359 Co360 2.042 . S
O359 Co361 2.122 . S
O359 H362 0.980 . S
Co360 O359 2.042 . S
Co360 O368 2.286 . S
Co360 O369 2.069 . S
Co360 O370 2.015 . S
Co360 O373 2.264 . S
Co361 O359 2.122 . S
Co361 O372 1.976 . S
Co361 O373 2.327 . S
Co361 O374 2.073 . S
H362 O359 0.980 . S
O363 Co355 2.073 . S
O363 C378 1.245 . S
O364 Co354 2.264 . S
O364 Co355 2.327 . S
O364 C378 1.257 . S
O365 Co355 1.976 . S
O365 C377 1.251 . S
O366 Co356 2.111 . S
O366 C377 1.274 . S
O367 Co356 2.143 1_556 S
O367 C380 1.246 . S
O368 Co360 2.286 . S
O368 C379 1.259 . S
O369 Co360 2.069 . S
O369 C379 1.289 . S
O370 Co360 2.015 . S
O370 C380 1.257 . S
O371 Co356 2.111 1_556 S
O371 C381 1.274 . S
O372 Co361 1.976 . S
O372 C381 1.251 . S
O373 Co360 2.264 . S
O373 Co361 2.327 . S
O373 C382 1.257 . S
O374 Co361 2.073 . S
O374 C382 1.245 . S
C375 O383 1.259 . S
C375 O384 1.289 . S
C376 O385 1.246 . S
C376 O386 1.257 . S
C377 O365 1.251 . S
C377 O366 1.274 . S
C378 O363 1.245 . S
C378 O364 1.257 . S
C379 O368 1.259 . S
C379 O369 1.289 . S
C380 O367 1.246 . S
C380 O370 1.257 . S
C381 O371 1.274 . S
C381 O372 1.251 . S
C382 O373 1.257 . S
C382 O374 1.245 . S
O383 Co354 2.286 . S
O383 C375 1.259 . S
O384 Co354 2.069 . S
O384 C375 1.289 . S
O385 Co356 2.143 . S
O385 C376 1.246 . S
O386 Co354 2.015 . S
O386 C376 1.257 . S
H387 C393 0.930 . S
H388 C396 0.930 . S
H389 C397 0.930 . S
H390 C398 0.930 . S
H391 C401 0.930 . S
H392 C402 0.930 . S
C393 H387 0.930 . S
C393 C394 1.355 . S
C393 C395 1.415 . S
C394 C393 1.355 . S
C394 C396 1.419 . S
C395 C393 1.415 . S
C395 C400 1.425 . S
C395 C402 1.409 . S
C396 H388 0.930 . S
C396 C394 1.419 . S
C396 C397 1.362 . S
C397 H389 0.930 . S
C397 C396 1.362 . S
C397 C400 1.409 . S
C398 H390 0.930 . S
C398 C399 1.355 . S
C398 C400 1.415 . S
C399 C398 1.355 . S
C399 C401 1.419 . S
C400 C395 1.425 . S
C400 C397 1.409 . S
C400 C398 1.415 . S
C401 H391 0.930 . S
C401 C399 1.419 . S
C401 C402 1.362 . S
C402 H392 0.930 . S
C402 C395 1.409 . S
C402 C401 1.362 . S
H403 C409 0.930 . S
H404 C412 0.930 . S
H405 C413 0.930 . S
H406 C414 0.930 . S
H407 C417 0.930 . S
H408 C418 0.930 . S
C409 H403 0.930 . S
C409 C410 1.355 . S
C409 C411 1.415 . S
C410 C409 1.355 . S
C410 C412 1.419 . S
C411 C409 1.415 . S
C411 C416 1.425 . S
C411 C418 1.409 . S
C412 H404 0.930 . S
C412 C410 1.419 . S
C412 C413 1.362 . S
C413 H405 0.930 . S
C413 C412 1.362 . S
C413 C416 1.409 . S
C414 H406 0.930 . S
C414 C415 1.355 . S
C414 C416 1.415 . S
C415 C414 1.355 . S
C415 C417 1.419 . S
C416 C411 1.425 . S
C416 C413 1.409 . S
C416 C414 1.415 . S
C417 H407 0.930 . S
C417 C415 1.419 . S
C417 C418 1.362 . S
C418 H408 0.930 . S
C418 C411 1.409 . S
C418 C417 1.362 . S
H419 C425 0.930 . S
H420 C428 0.930 . S
H421 C429 0.930 . S
H422 C430 0.930 . S
H423 C433 0.930 . S
H424 C434 0.930 . S
C425 H419 0.930 . S
C425 C426 1.355 . S
C425 C427 1.415 . S
C426 C425 1.355 . S
C426 C428 1.419 . S
C427 C425 1.415 . S
C427 C432 1.425 . S
C427 C434 1.409 . S
C428 H420 0.930 . S
C428 C426 1.419 . S
C428 C429 1.362 . S
C429 H421 0.930 . S
C429 C428 1.362 . S
C429 C432 1.409 . S
C430 H422 0.930 . S
C430 C431 1.355 . S
C430 C432 1.415 . S
C431 C430 1.355 . S
C431 C433 1.419 . S
C432 C427 1.425 . S
C432 C429 1.409 . S
C432 C430 1.415 . S
C433 H423 0.930 . S
C433 C431 1.419 . S
C433 C434 1.362 . S
C434 H424 0.930 . S
C434 C427 1.409 . S
C434 C433 1.362 . S
H435 C441 0.930 . S
H436 C444 0.930 . S
H437 C445 0.930 . S
H438 C446 0.930 . S
H439 C449 0.930 . S
H440 C450 0.930 . S
C441 H435 0.930 . S
C441 C442 1.355 . S
C441 C443 1.415 . S
C442 C441 1.355 . S
C442 C444 1.419 . S
C443 C441 1.415 . S
C443 C448 1.425 . S
C443 C450 1.409 . S
C444 H436 0.930 . S
C444 C442 1.419 . S
C444 C445 1.362 . S
C445 H437 0.930 . S
C445 C444 1.362 . S
C445 C448 1.409 . S
C446 H438 0.930 . S
C446 C447 1.355 . S
C446 C448 1.415 . S
C447 C446 1.355 . S
C447 C449 1.419 . S
C448 C443 1.425 . S
C448 C445 1.409 . S
C448 C446 1.415 . S
C449 H439 0.930 . S
C449 C447 1.419 . S
C449 C450 1.362 . S
C450 H440 0.930 . S
C450 C443 1.409 . S
C450 C449 1.362 . S
H451 C457 0.930 . S
H452 C460 0.930 . S
H453 C461 0.930 . S
H454 C462 0.930 . S
H455 C465 0.930 . S
H456 C466 0.930 . S
C457 H451 0.930 . S
C457 C458 1.355 . S
C457 C459 1.415 . S
C458 C457 1.355 . S
C458 C460 1.419 . S
C459 C457 1.415 . S
C459 C464 1.425 . S
C459 C466 1.409 . S
C460 H452 0.930 . S
C460 C458 1.419 . S
C460 C461 1.362 . S
C461 H453 0.930 . S
C461 C460 1.362 . S
C461 C464 1.409 . S
C462 H454 0.930 . S
C462 C463 1.355 . S
C462 C464 1.415 . S
C463 C462 1.355 . S
C463 C465 1.419 . S
C464 C459 1.425 . S
C464 C461 1.409 . S
C464 C462 1.415 . S
C465 H455 0.930 . S
C465 C463 1.419 . S
C465 C466 1.362 . S
C466 H456 0.930 . S
C466 C459 1.409 . S
C466 C465 1.362 . S
H467 C473 0.930 . S
H468 C476 0.930 . S
H469 C477 0.930 . S
H470 C478 0.930 . S
H471 C481 0.930 . S
H472 C482 0.930 . S
C473 H467 0.930 . S
C473 C474 1.355 . S
C473 C475 1.415 . S
C474 C473 1.355 . S
C474 C476 1.419 . S
C475 C473 1.415 . S
C475 C480 1.425 . S
C475 C482 1.409 . S
C476 H468 0.930 . S
C476 C474 1.419 . S
C476 C477 1.362 . S
C477 H469 0.930 . S
C477 C476 1.362 . S
C477 C480 1.409 . S
C478 H470 0.930 . S
C478 C479 1.355 . S
C478 C480 1.415 . S
C479 C478 1.355 . S
C479 C481 1.419 . S
C480 C475 1.425 . S
C480 C477 1.409 . S
C480 C478 1.415 . S
C481 H471 0.930 . S
C481 C479 1.419 . S
C481 C482 1.362 . S
C482 H472 0.930 . S
C482 C475 1.409 . S
C482 C481 1.362 . S
H483 C489 0.930 . S
H484 C492 0.930 . S
H485 C493 0.930 . S
H486 C494 0.930 . S
H487 C497 0.930 . S
H488 C498 0.930 . S
C489 H483 0.930 . S
C489 C490 1.355 . S
C489 C491 1.415 . S
C490 C489 1.355 . S
C490 C492 1.419 . S
C491 C489 1.415 . S
C491 C496 1.425 . S
C491 C498 1.409 . S
C492 H484 0.930 . S
C492 C490 1.419 . S
C492 C493 1.362 . S
C493 H485 0.930 . S
C493 C492 1.362 . S
C493 C496 1.409 . S
C494 H486 0.930 . S
C494 C495 1.355 . S
C494 C496 1.415 . S
C495 C494 1.355 . S
C495 C497 1.419 . S
C496 C491 1.425 . S
C496 C493 1.409 . S
C496 C494 1.415 . S
C497 H487 0.930 . S
C497 C495 1.419 . S
C497 C498 1.362 . S
C498 H488 0.930 . S
C498 C491 1.409 . S
C498 C497 1.362 . S
H499 C505 0.930 . S
H500 C508 0.930 . S
H501 C509 0.930 . S
H502 C510 0.930 . S
H503 C513 0.930 . S
H504 C514 0.930 . S
C505 H499 0.930 . S
C505 C506 1.355 . S
C505 C507 1.415 . S
C506 C505 1.355 . S
C506 C508 1.419 . S
C507 C505 1.415 . S
C507 C512 1.425 . S
C507 C514 1.409 . S
C508 H500 0.930 . S
C508 C506 1.419 . S
C508 C509 1.362 . S
C509 H501 0.930 . S
C509 C508 1.362 . S
C509 C512 1.409 . S
C510 H502 0.930 . S
C510 C511 1.355 . S
C510 C512 1.415 . S
C511 C510 1.355 . S
C511 C513 1.419 . S
C512 C507 1.425 . S
C512 C509 1.409 . S
C512 C510 1.415 . S
C513 H503 0.930 . S
C513 C511 1.419 . S
C513 C514 1.362 . S
C514 H504 0.930 . S
C514 C507 1.409 . S
C514 C513 1.362 . S
H515 C521 0.930 . S
H516 C524 0.930 . S
H517 C525 0.930 . S
H518 C526 0.930 . S
H519 C529 0.930 . S
H520 C530 0.930 . S
C521 H515 0.930 . S
C521 C522 1.355 . S
C521 C523 1.415 . S
C522 C521 1.355 . S
C522 C524 1.419 . S
C523 C521 1.415 . S
C523 C528 1.425 . S
C523 C530 1.409 . S
C524 H516 0.930 . S
C524 C522 1.419 . S
C524 C525 1.362 . S
C525 H517 0.930 . S
C525 C524 1.362 . S
C525 C528 1.409 . S
C526 H518 0.930 . S
C526 C527 1.355 . S
C526 C528 1.415 . S
C527 C526 1.355 . S
C527 C529 1.419 . S
C528 C523 1.425 . S
C528 C525 1.409 . S
C528 C526 1.415 . S
C529 H519 0.930 . S
C529 C527 1.419 . S
C529 C530 1.362 . S
C530 H520 0.930 . S
C530 C523 1.409 . S
C530 C529 1.362 . S
H531 C537 0.930 . S
H532 C540 0.930 . S
H533 C541 0.930 . S
H534 C542 0.930 . S
H535 C545 0.930 . S
H536 C546 0.930 . S
C537 H531 0.930 . S
C537 C538 1.355 . S
C537 C539 1.415 . S
C538 C537 1.355 . S
C538 C540 1.419 . S
C539 C537 1.415 . S
C539 C544 1.425 . S
C539 C546 1.409 . S
C540 H532 0.930 . S
C540 C538 1.419 . S
C540 C541 1.362 . S
C541 H533 0.930 . S
C541 C540 1.362 . S
C541 C544 1.409 . S
C542 H534 0.930 . S
C542 C543 1.355 . S
C542 C544 1.415 . S
C543 C542 1.355 . S
C543 C545 1.419 . S
C544 C539 1.425 . S
C544 C541 1.409 . S
C544 C542 1.415 . S
C545 H535 0.930 . S
C545 C543 1.419 . S
C545 C546 1.362 . S
C546 H536 0.930 . S
C546 C539 1.409 . S
C546 C545 1.362 . S
H547 C553 0.930 . S
H548 C556 0.930 . S
H549 C557 0.930 . S
H550 C558 0.930 . S
H551 C561 0.930 . S
H552 C562 0.930 . S
C553 H547 0.930 . S
C553 C554 1.355 . S
C553 C555 1.415 . S
C554 C553 1.355 . S
C554 C556 1.419 . S
C555 C553 1.415 . S
C555 C560 1.425 . S
C555 C562 1.409 . S
C556 H548 0.930 . S
C556 C554 1.419 . S
C556 C557 1.362 . S
C557 H549 0.930 . S
C557 C556 1.362 . S
C557 C560 1.409 . S
C558 H550 0.930 . S
C558 C559 1.355 . S
C558 C560 1.415 . S
C559 C558 1.355 . S
C559 C561 1.419 . S
C560 C555 1.425 . S
C560 C557 1.409 . S
C560 C558 1.415 . S
C561 H551 0.930 . S
C561 C559 1.419 . S
C561 C562 1.362 . S
C562 H552 0.930 . S
C562 C555 1.409 . S
C562 C561 1.362 . S
H563 C569 0.930 . S
H564 C572 0.930 . S
H565 C573 0.930 . S
H566 C574 0.930 . S
H567 C577 0.930 . S
H568 C578 0.930 . S
C569 H563 0.930 . S
C569 C570 1.355 . S
C569 C571 1.415 . S
C570 C569 1.355 . S
C570 C572 1.419 . S
C571 C569 1.415 . S
C571 C576 1.425 . S
C571 C578 1.409 . S
C572 H564 0.930 . S
C572 C570 1.419 . S
C572 C573 1.362 . S
C573 H565 0.930 . S
C573 C572 1.362 . S
C573 C576 1.409 . S
C574 H566 0.930 . S
C574 C575 1.355 . S
C574 C576 1.415 . S
C575 C574 1.355 . S
C575 C577 1.419 . S
C576 C571 1.425 . S
C576 C573 1.409 . S
C576 C574 1.415 . S
C577 H567 0.930 . S
C577 C575 1.419 . S
C577 C578 1.362 . S
C578 H568 0.930 . S
C578 C571 1.409 . S
C578 C577 1.362 . S
H579 C585 0.930 . S
H580 C588 0.930 . S
H581 C589 0.930 . S
H582 C590 0.930 . S
H583 C593 0.930 . S
H584 C594 0.930 . S
C585 H579 0.930 . S
C585 C586 1.355 . S
C585 C587 1.415 . S
C586 C585 1.355 . S
C586 C588 1.419 . S
C587 C585 1.415 . S
C587 C592 1.425 . S
C587 C594 1.409 . S
C588 H580 0.930 . S
C588 C586 1.419 . S
C588 C589 1.362 . S
C589 H581 0.930 . S
C589 C588 1.362 . S
C589 C592 1.409 . S
C590 H582 0.930 . S
C590 C591 1.355 . S
C590 C592 1.415 . S
C591 C590 1.355 . S
C591 C593 1.419 . S
C592 C587 1.425 . S
C592 C589 1.409 . S
C592 C590 1.415 . S
C593 H583 0.930 . S
C593 C591 1.419 . S
C593 C594 1.362 . S
C594 H584 0.930 . S
C594 C587 1.409 . S
C594 C593 1.362 . S
H595 C601 0.930 . S
H596 C604 0.930 . S
H597 C605 0.930 . S
H598 C606 0.930 . S
H599 C609 0.930 . S
H600 C610 0.930 . S
C601 H595 0.930 . S
C601 C602 1.355 . S
C601 C603 1.415 . S
C602 C601 1.355 . S
C602 C604 1.419 . S
C603 C601 1.415 . S
C603 C608 1.425 . S
C603 C610 1.409 . S
C604 H596 0.930 . S
C604 C602 1.419 . S
C604 C605 1.362 . S
C605 H597 0.930 . S
C605 C604 1.362 . S
C605 C608 1.409 . S
C606 H598 0.930 . S
C606 C607 1.355 . S
C606 C608 1.415 . S
C607 C606 1.355 . S
C607 C609 1.419 . S
C608 C603 1.425 . S
C608 C605 1.409 . S
C608 C606 1.415 . S
C609 H599 0.930 . S
C609 C607 1.419 . S
C609 C610 1.362 . S
C610 H600 0.930 . S
C610 C603 1.409 . S
C610 C609 1.362 . S
H611 C617 0.930 . S
H612 C620 0.930 . S
H613 C621 0.930 . S
H614 C622 0.930 . S
H615 C625 0.930 . S
H616 C626 0.930 . S
C617 H611 0.930 . S
C617 C618 1.355 . S
C617 C619 1.415 . S
C618 C617 1.355 . S
C618 C620 1.419 . S
C619 C617 1.415 . S
C619 C624 1.425 . S
C619 C626 1.409 . S
C620 H612 0.930 . S
C620 C618 1.419 . S
C620 C621 1.362 . S
C621 H613 0.930 . S
C621 C620 1.362 . S
C621 C624 1.409 . S
C622 H614 0.930 . S
C622 C623 1.355 . S
C622 C624 1.415 . S
C623 C622 1.355 . S
C623 C625 1.419 . S
C624 C619 1.425 . S
C624 C621 1.409 . S
C624 C622 1.415 . S
C625 H615 0.930 . S
C625 C623 1.419 . S
C625 C626 1.362 . S
C626 H616 0.930 . S
C626 C619 1.409 . S
C626 C625 1.362 . S
H627 C633 0.930 . S
H628 C636 0.930 . S
H629 C637 0.930 . S
H630 C638 0.930 . S
H631 C641 0.930 . S
H632 C642 0.930 . S
C633 H627 0.930 . S
C633 C634 1.355 . S
C633 C635 1.415 . S
C634 C633 1.355 . S
C634 C636 1.419 . S
C635 C633 1.415 . S
C635 C640 1.425 . S
C635 C642 1.409 . S
C636 H628 0.930 . S
C636 C634 1.419 . S
C636 C637 1.362 . S
C637 H629 0.930 . S
C637 C636 1.362 . S
C637 C640 1.409 . S
C638 H630 0.930 . S
C638 C639 1.355 . S
C638 C640 1.415 . S
C639 C638 1.355 . S
C639 C641 1.419 . S
C640 C635 1.425 . S
C640 C637 1.409 . S
C640 C638 1.415 . S
C641 H631 0.930 . S
C641 C639 1.419 . S
C641 C642 1.362 . S
C642 H632 0.930 . S
C642 C635 1.409 . S
C642 C641 1.362 . S
H643 C649 0.930 . S
H644 C652 0.930 . S
H645 C653 0.930 . S
H646 C654 0.930 . S
H647 C657 0.930 . S
H648 C658 0.930 . S
C649 H643 0.930 . S
C649 C650 1.355 . S
C649 C651 1.415 . S
C650 C649 1.355 . S
C650 C652 1.419 . S
C651 C649 1.415 . S
C651 C656 1.425 . S
C651 C658 1.409 . S
C652 H644 0.930 . S
C652 C650 1.419 . S
C652 C653 1.362 . S
C653 H645 0.930 . S
C653 C652 1.362 . S
C653 C656 1.409 . S
C654 H646 0.930 . S
C654 C655 1.355 . S
C654 C656 1.415 . S
C655 C654 1.355 . S
C655 C657 1.419 . S
C656 C651 1.425 . S
C656 C653 1.409 . S
C656 C654 1.415 . S
C657 H647 0.930 . S
C657 C655 1.419 . S
C657 C658 1.362 . S
C658 H648 0.930 . S
C658 C651 1.409 . S
C658 C657 1.362 . S
H659 C665 0.930 . S
H660 C668 0.930 . S
H661 C669 0.930 . S
H662 C670 0.930 . S
H663 C673 0.930 . S
H664 C674 0.930 . S
C665 H659 0.930 . S
C665 C666 1.355 . S
C665 C667 1.415 . S
C666 C665 1.355 . S
C666 C668 1.419 . S
C667 C665 1.415 . S
C667 C672 1.425 . S
C667 C674 1.409 . S
C668 H660 0.930 . S
C668 C666 1.419 . S
C668 C669 1.362 . S
C669 H661 0.930 . S
C669 C668 1.362 . S
C669 C672 1.409 . S
C670 H662 0.930 . S
C670 C671 1.355 . S
C670 C672 1.415 . S
C671 C670 1.355 . S
C671 C673 1.419 . S
C672 C667 1.425 . S
C672 C669 1.409 . S
C672 C670 1.415 . S
C673 H663 0.930 . S
C673 C671 1.419 . S
C673 C674 1.362 . S
C674 H664 0.930 . S
C674 C667 1.409 . S
C674 C673 1.362 . S
H675 C681 0.930 . S
H676 C684 0.930 . S
H677 C685 0.930 . S
H678 C686 0.930 . S
H679 C689 0.930 . S
H680 C690 0.930 . S
C681 H675 0.930 . S
C681 C682 1.355 . S
C681 C683 1.415 . S
C682 C681 1.355 . S
C682 C684 1.419 . S
C683 C681 1.415 . S
C683 C688 1.425 . S
C683 C690 1.409 . S
C684 H676 0.930 . S
C684 C682 1.419 . S
C684 C685 1.362 . S
C685 H677 0.930 . S
C685 C684 1.362 . S
C685 C688 1.409 . S
C686 H678 0.930 . S
C686 C687 1.355 . S
C686 C688 1.415 . S
C687 C686 1.355 . S
C687 C689 1.419 . S
C688 C683 1.425 . S
C688 C685 1.409 . S
C688 C686 1.415 . S
C689 H679 0.930 . S
C689 C687 1.419 . S
C689 C690 1.362 . S
C690 H680 0.930 . S
C690 C683 1.409 . S
C690 C689 1.362 . S
H691 C697 0.930 . S
H692 C700 0.930 . S
H693 C701 0.930 . S
H694 C702 0.930 . S
H695 C705 0.930 . S
H696 C706 0.930 . S
C697 H691 0.930 . S
C697 C698 1.355 . S
C697 C699 1.415 . S
C698 C697 1.355 . S
C698 C700 1.419 . S
C699 C697 1.415 . S
C699 C704 1.425 . S
C699 C706 1.409 . S
C700 H692 0.930 . S
C700 C698 1.419 . S
C700 C701 1.362 . S
C701 H693 0.930 . S
C701 C700 1.362 . S
C701 C704 1.409 . S
C702 H694 0.930 . S
C702 C703 1.355 . S
C702 C704 1.415 . S
C703 C702 1.355 . S
C703 C705 1.419 . S
C704 C699 1.425 . S
C704 C701 1.409 . S
C704 C702 1.415 . S
C705 H695 0.930 . S
C705 C703 1.419 . S
C705 C706 1.362 . S
C706 H696 0.930 . S
C706 C699 1.409 . S
C706 C705 1.362 . S
H707 C713 0.930 . S
H708 C716 0.930 . S
H709 C717 0.930 . S
H710 C718 0.930 . S
H711 C721 0.930 . S
H712 C722 0.930 . S
C713 H707 0.930 . S
C713 C714 1.355 . S
C713 C715 1.415 . S
C714 C713 1.355 . S
C714 C716 1.419 . S
C715 C713 1.415 . S
C715 C720 1.425 . S
C715 C722 1.409 . S
C716 H708 0.930 . S
C716 C714 1.419 . S
C716 C717 1.362 . S
C717 H709 0.930 . S
C717 C716 1.362 . S
C717 C720 1.409 . S
C718 H710 0.930 . S
C718 C719 1.355 . S
C718 C720 1.415 . S
C719 C718 1.355 . S
C719 C721 1.419 . S
C720 C715 1.425 . S
C720 C717 1.409 . S
C720 C718 1.415 . S
C721 H711 0.930 . S
C721 C719 1.419 . S
C721 C722 1.362 . S
C722 H712 0.930 . S
C722 C715 1.409 . S
C722 C721 1.362 . S
H723 C729 0.930 . S
H724 C732 0.930 . S
H725 C733 0.930 . S
H726 C734 0.930 . S
H727 C737 0.930 . S
H728 C738 0.930 . S
C729 H723 0.930 . S
C729 C730 1.355 . S
C729 C731 1.415 . S
C730 C729 1.355 . S
C730 C732 1.419 . S
C731 C729 1.415 . S
C731 C736 1.425 . S
C731 C738 1.409 . S
C732 H724 0.930 . S
C732 C730 1.419 . S
C732 C733 1.362 . S
C733 H725 0.930 . S
C733 C732 1.362 . S
C733 C736 1.409 . S
C734 H726 0.930 . S
C734 C735 1.355 . S
C734 C736 1.415 . S
C735 C734 1.355 . S
C735 C737 1.419 . S
C736 C731 1.425 . S
C736 C733 1.409 . S
C736 C734 1.415 . S
C737 H727 0.930 . S
C737 C735 1.419 . S
C737 C738 1.362 . S
C738 H728 0.930 . S
C738 C731 1.409 . S
C738 C737 1.362 . S
H739 C745 0.930 . S
H740 C748 0.930 . S
H741 C749 0.930 . S
H742 C750 0.930 . S
H743 C753 0.930 . S
H744 C754 0.930 . S
C745 H739 0.930 . S
C745 C746 1.355 . S
C745 C747 1.415 . S
C746 C745 1.355 . S
C746 C748 1.419 . S
C747 C745 1.415 . S
C747 C752 1.425 . S
C747 C754 1.409 . S
C748 H740 0.930 . S
C748 C746 1.419 . S
C748 C749 1.362 . S
C749 H741 0.930 . S
C749 C748 1.362 . S
C749 C752 1.409 . S
C750 H742 0.930 . S
C750 C751 1.355 . S
C750 C752 1.415 . S
C751 C750 1.355 . S
C751 C753 1.419 . S
C752 C747 1.425 . S
C752 C749 1.409 . S
C752 C750 1.415 . S
C753 H743 0.930 . S
C753 C751 1.419 . S
C753 C754 1.362 . S
C754 H744 0.930 . S
C754 C747 1.409 . S
C754 C753 1.362 . S
H755 C761 0.930 . S
H756 C764 0.930 . S
H757 C765 0.930 . S
H758 C766 0.930 . S
H759 C769 0.930 . S
H760 C770 0.930 . S
C761 H755 0.930 . S
C761 C762 1.355 . S
C761 C763 1.415 . S
C762 C761 1.355 . S
C762 C764 1.419 . S
C763 C761 1.415 . S
C763 C768 1.425 . S
C763 C770 1.409 . S
C764 H756 0.930 . S
C764 C762 1.419 . S
C764 C765 1.362 . S
C765 H757 0.930 . S
C765 C764 1.362 . S
C765 C768 1.409 . S
C766 H758 0.930 . S
C766 C767 1.355 . S
C766 C768 1.415 . S
C767 C766 1.355 . S
C767 C769 1.419 . S
C768 C763 1.425 . S
C768 C765 1.409 . S
C768 C766 1.415 . S
C769 H759 0.930 . S
C769 C767 1.419 . S
C769 C770 1.362 . S
C770 H760 0.930 . S
C770 C763 1.409 . S
C770 C769 1.362 . S
C399 C312 1.097 . S
C394 C1 1.191 . S
C415 C348 1.619 . S
C410 C37 1.773 . S
C431 C313 1.435 . S
C426 C103 1.423 . S
C447 C343 1.567 . S
C442 C139 1.547 . S
C463 C310 1.508 . S
C458 C145 1.492 . S
C474 C205 1.689 . S
C479 C346 1.719 . S
C490 C247 1.259 . S
C495 C315 1.220 . S
C511 C345 1.499 . S
C506 C283 1.443 . S
C527 C349 1.459 . S
C522 C25 1.488 . S
C543 C314 1.499 . S
C538 C67 1.581 . S
C559 C342 1.688 . S
C554 C97 1.685 . S
C575 C311 1.213 . S
C570 C109 1.227 . S
C591 C344 1.648 . S
C586 C169 1.744 . S
C602 C181 1.419 . S
C607 C309 1.397 . S
C618 C217 1.542 . S
C623 C347 1.564 . S
C639 C316 1.109 . S
C634 C277 1.165 . S
C655 C378 1.601 . S
C650 C31 1.732 . S
C666 C175 1.980 . S
C671 C381 1.932 . S
C687 C380 1.730 . S
C682 C211 1.759 . S
C698 C241 1.985 . S
C703 C379 2.031 . S
C719 C382 1.624 . S
C714 C253 1.723 . S
C730 C73 1.752 . S
C735 C376 1.658 . S
C751 C375 2.046 . S
C746 C133 1.996 . S
C762 C61 2.022 . S
C767 C377 1.926 . S
