# Generated by pormake.
# Topology ptr, (4,4)-cn, num edge types: 1
# Building blocks:
#     Node 0, Type 0, BuildingBlock: AZAVOO_clean_sbu_0, # of connection points: 4
#     Node 1, Type 0, BuildingBlock: AZAVOO_clean_sbu_0, # of connection points: 4
#     Node 2, Type 0, BuildingBlock: AZAVOO_clean_sbu_0, # of connection points: 4
#     Node 3, Type 0, BuildingBlock: AZAVOO_clean_sbu_0, # of connection points: 4
#     Node 4, Type 0, BuildingBlock: AZAVOO_clean_sbu_0, # of connection points: 4
#     Node 5, Type 0, BuildingBlock: AZAVOO_clean_sbu_0, # of connection points: 4
#     Node 6, Type 0, BuildingBlock: AZAVOO_clean_sbu_0, # of connection points: 4
#     Node 7, Type 0, BuildingBlock: AZAVOO_clean_sbu_0, # of connection points: 4
#     Node 8, Type 0, BuildingBlock: AZAVOO_clean_sbu_0, # of connection points: 4
#     Node 9, Type 0, BuildingBlock: AZAVOO_clean_sbu_0, # of connection points: 4
#     Node 10, Type 0, BuildingBlock: AZAVOO_clean_sbu_0, # of connection points: 4
#     Node 11, Type 0, BuildingBlock: AZAVOO_clean_sbu_0, # of connection points: 4
#     Node 12, Type 0, BuildingBlock: AZAVOO_clean_sbu_0, # of connection points: 4
#     Node 13, Type 0, BuildingBlock: AZAVOO_clean_sbu_0, # of connection points: 4
#     Node 14, Type 0, BuildingBlock: AZAVOO_clean_sbu_0, # of connection points: 4
#     Node 15, Type 0, BuildingBlock: AZAVOO_clean_sbu_0, # of connection points: 4
#     Node 16, Type 0, BuildingBlock: AZAVOO_clean_sbu_0, # of connection points: 4
#     Node 17, Type 0, BuildingBlock: AZAVOO_clean_sbu_0, # of connection points: 4
#     Node 18, Type 1, BuildingBlock: MIFKUJ_clean_linker_1, # of connection points: 4
#     Node 19, Type 1, BuildingBlock: MIFKUJ_clean_linker_1, # of connection points: 4
#     Node 20, Type 1, BuildingBlock: MIFKUJ_clean_linker_1, # of connection points: 4
#     Node 21, Type 1, BuildingBlock: MIFKUJ_clean_linker_1, # of connection points: 4
#     Node 22, Type 1, BuildingBlock: MIFKUJ_clean_linker_1, # of connection points: 4
#     Node 23, Type 1, BuildingBlock: MIFKUJ_clean_linker_1, # of connection points: 4
#     Node 24, Type 1, BuildingBlock: MIFKUJ_clean_linker_1, # of connection points: 4
#     Node 25, Type 1, BuildingBlock: MIFKUJ_clean_linker_1, # of connection points: 4
#     Node 26, Type 1, BuildingBlock: MIFKUJ_clean_linker_1, # of connection points: 4
#     Node 27, Type 1, BuildingBlock: MIFKUJ_clean_linker_1, # of connection points: 4
#     Node 28, Type 1, BuildingBlock: MIFKUJ_clean_linker_1, # of connection points: 4
#     Node 29, Type 1, BuildingBlock: MIFKUJ_clean_linker_1, # of connection points: 4
#     Node 30, Type 1, BuildingBlock: MIFKUJ_clean_linker_1, # of connection points: 4
#     Node 31, Type 1, BuildingBlock: MIFKUJ_clean_linker_1, # of connection points: 4
#     Node 32, Type 1, BuildingBlock: MIFKUJ_clean_linker_1, # of connection points: 4
#     Node 33, Type 1, BuildingBlock: MIFKUJ_clean_linker_1, # of connection points: 4
#     Node 34, Type 1, BuildingBlock: MIFKUJ_clean_linker_1, # of connection points: 4
#     Node 35, Type 1, BuildingBlock: MIFKUJ_clean_linker_1, # of connection points: 4
#     Edge 36, Type (0, 1), BuildingBlock: UVAHIK_clean_linker_0, # of connection points: 2
#     Edge 37, Type (0, 1), BuildingBlock: UVAHIK_clean_linker_0, # of connection points: 2
#     Edge 38, Type (0, 1), BuildingBlock: UVAHIK_clean_linker_0, # of connection points: 2
#     Edge 39, Type (0, 1), BuildingBlock: UVAHIK_clean_linker_0, # of connection points: 2
#     Edge 40, Type (0, 1), BuildingBlock: UVAHIK_clean_linker_0, # of connection points: 2
#     Edge 41, Type (0, 1), BuildingBlock: UVAHIK_clean_linker_0, # of connection points: 2
#     Edge 42, Type (0, 1), BuildingBlock: UVAHIK_clean_linker_0, # of connection points: 2
#     Edge 43, Type (0, 1), BuildingBlock: UVAHIK_clean_linker_0, # of connection points: 2
#     Edge 44, Type (0, 1), BuildingBlock: UVAHIK_clean_linker_0, # of connection points: 2
#     Edge 45, Type (0, 1), BuildingBlock: UVAHIK_clean_linker_0, # of connection points: 2
#     Edge 46, Type (0, 1), BuildingBlock: UVAHIK_clean_linker_0, # of connection points: 2
#     Edge 47, Type (0, 1), BuildingBlock: UVAHIK_clean_linker_0, # of connection points: 2
#     Edge 48, Type (0, 1), BuildingBlock: UVAHIK_clean_linker_0, # of connection points: 2
#     Edge 49, Type (0, 1), BuildingBlock: UVAHIK_clean_linker_0, # of connection points: 2
#     Edge 50, Type (0, 1), BuildingBlock: UVAHIK_clean_linker_0, # of connection points: 2
#     Edge 51, Type (0, 1), BuildingBlock: UVAHIK_clean_linker_0, # of connection points: 2
#     Edge 52, Type (0, 1), BuildingBlock: UVAHIK_clean_linker_0, # of connection points: 2
#     Edge 53, Type (0, 1), BuildingBlock: UVAHIK_clean_linker_0, # of connection points: 2
#     Edge 54, Type (0, 1), BuildingBlock: UVAHIK_clean_linker_0, # of connection points: 2
#     Edge 55, Type (0, 1), BuildingBlock: UVAHIK_clean_linker_0, # of connection points: 2
#     Edge 56, Type (0, 1), BuildingBlock: UVAHIK_clean_linker_0, # of connection points: 2
#     Edge 57, Type (0, 1), BuildingBlock: UVAHIK_clean_linker_0, # of connection points: 2
#     Edge 58, Type (0, 1), BuildingBlock: UVAHIK_clean_linker_0, # of connection points: 2
#     Edge 59, Type (0, 1), BuildingBlock: UVAHIK_clean_linker_0, # of connection points: 2
#     Edge 60, Type (0, 1), BuildingBlock: UVAHIK_clean_linker_0, # of connection points: 2
#     Edge 61, Type (0, 1), BuildingBlock: UVAHIK_clean_linker_0, # of connection points: 2
#     Edge 62, Type (0, 1), BuildingBlock: UVAHIK_clean_linker_0, # of connection points: 2
#     Edge 63, Type (0, 1), BuildingBlock: UVAHIK_clean_linker_0, # of connection points: 2
#     Edge 64, Type (0, 1), BuildingBlock: UVAHIK_clean_linker_0, # of connection points: 2
#     Edge 65, Type (0, 1), BuildingBlock: UVAHIK_clean_linker_0, # of connection points: 2
#     Edge 66, Type (0, 1), BuildingBlock: UVAHIK_clean_linker_0, # of connection points: 2
#     Edge 67, Type (0, 1), BuildingBlock: UVAHIK_clean_linker_0, # of connection points: 2
#     Edge 68, Type (0, 1), BuildingBlock: UVAHIK_clean_linker_0, # of connection points: 2
#     Edge 69, Type (0, 1), BuildingBlock: UVAHIK_clean_linker_0, # of connection points: 2
#     Edge 70, Type (0, 1), BuildingBlock: UVAHIK_clean_linker_0, # of connection points: 2
#     Edge 71, Type (0, 1), BuildingBlock: UVAHIK_clean_linker_0, # of connection points: 2
#     Edge 72, Type (0, 1), BuildingBlock: UVAHIK_clean_linker_0, # of connection points: 2
#     Edge 73, Type (0, 1), BuildingBlock: UVAHIK_clean_linker_0, # of connection points: 2
#     Edge 74, Type (0, 1), BuildingBlock: UVAHIK_clean_linker_0, # of connection points: 2
#     Edge 75, Type (0, 1), BuildingBlock: UVAHIK_clean_linker_0, # of connection points: 2
#     Edge 76, Type (0, 1), BuildingBlock: UVAHIK_clean_linker_0, # of connection points: 2
#     Edge 77, Type (0, 1), BuildingBlock: UVAHIK_clean_linker_0, # of connection points: 2
#     Edge 78, Type (0, 1), BuildingBlock: UVAHIK_clean_linker_0, # of connection points: 2
#     Edge 79, Type (0, 1), BuildingBlock: UVAHIK_clean_linker_0, # of connection points: 2
#     Edge 80, Type (0, 1), BuildingBlock: UVAHIK_clean_linker_0, # of connection points: 2
#     Edge 81, Type (0, 1), BuildingBlock: UVAHIK_clean_linker_0, # of connection points: 2
#     Edge 82, Type (0, 1), BuildingBlock: UVAHIK_clean_linker_0, # of connection points: 2
#     Edge 83, Type (0, 1), BuildingBlock: UVAHIK_clean_linker_0, # of connection points: 2
#     Edge 84, Type (0, 1), BuildingBlock: UVAHIK_clean_linker_0, # of connection points: 2
#     Edge 85, Type (0, 1), BuildingBlock: UVAHIK_clean_linker_0, # of connection points: 2
#     Edge 86, Type (0, 1), BuildingBlock: UVAHIK_clean_linker_0, # of connection points: 2
#     Edge 87, Type (0, 1), BuildingBlock: UVAHIK_clean_linker_0, # of connection points: 2
#     Edge 88, Type (0, 1), BuildingBlock: UVAHIK_clean_linker_0, # of connection points: 2
#     Edge 89, Type (0, 1), BuildingBlock: UVAHIK_clean_linker_0, # of connection points: 2
#     Edge 90, Type (0, 1), BuildingBlock: UVAHIK_clean_linker_0, # of connection points: 2
#     Edge 91, Type (0, 1), BuildingBlock: UVAHIK_clean_linker_0, # of connection points: 2
#     Edge 92, Type (0, 1), BuildingBlock: UVAHIK_clean_linker_0, # of connection points: 2
#     Edge 93, Type (0, 1), BuildingBlock: UVAHIK_clean_linker_0, # of connection points: 2
#     Edge 94, Type (0, 1), BuildingBlock: UVAHIK_clean_linker_0, # of connection points: 2
#     Edge 95, Type (0, 1), BuildingBlock: UVAHIK_clean_linker_0, # of connection points: 2
#     Edge 96, Type (0, 1), BuildingBlock: UVAHIK_clean_linker_0, # of connection points: 2
#     Edge 97, Type (0, 1), BuildingBlock: UVAHIK_clean_linker_0, # of connection points: 2
#     Edge 98, Type (0, 1), BuildingBlock: UVAHIK_clean_linker_0, # of connection points: 2
#     Edge 99, Type (0, 1), BuildingBlock: UVAHIK_clean_linker_0, # of connection points: 2
#     Edge 100, Type (0, 1), BuildingBlock: UVAHIK_clean_linker_0, # of connection points: 2
#     Edge 101, Type (0, 1), BuildingBlock: UVAHIK_clean_linker_0, # of connection points: 2
#     Edge 102, Type (0, 1), BuildingBlock: UVAHIK_clean_linker_0, # of connection points: 2
#     Edge 103, Type (0, 1), BuildingBlock: UVAHIK_clean_linker_0, # of connection points: 2
#     Edge 104, Type (0, 1), BuildingBlock: UVAHIK_clean_linker_0, # of connection points: 2
#     Edge 105, Type (0, 1), BuildingBlock: UVAHIK_clean_linker_0, # of connection points: 2
#     Edge 106, Type (0, 1), BuildingBlock: UVAHIK_clean_linker_0, # of connection points: 2
#     Edge 107, Type (0, 1), BuildingBlock: UVAHIK_clean_linker_0, # of connection points: 2
# Relax obj value: 0.079
# Max RMSD: 0.276
# Mean RMSD: 0.120
data_MOF--net-ptr--node1-AZAVOO_clean_sbu_0--node2-MIFKUJ_clean_linker_1--edge1-UVAHIK_clean_linker_0
_symmetry_space_group_name_H-M    P1
_symmetry_Int_Tables_number       1
_symmetry_cell_setting            triclinic
loop_
_symmetry_equiv_pos_as_xyz
'x, y, z'
_cell_length_a     112.62257
_cell_length_b     110.83638
_cell_length_c     73.733961
_cell_angle_alpha  91.125268
_cell_angle_beta   90.796515
_cell_angle_gamma 120.07777
loop_
_atom_site_label
_atom_site_type_symbol
_atom_site_fract_x
_atom_site_fract_y
_atom_site_fract_z
_atom_type_partial_charge
Mg0 Mg 0.01011 0.342 0.9905 0.0
O1 O -0.00015 0.34742 0.01363 0.0
O2 O 0.98102 0.34651 0.00178 0.0
Mg3 Mg 0.97952 0.34114 0.97146 0.0
C4 C 0.98917 0.34856 0.0152 0.0
C5 C 0.03105 0.33422 0.00396 0.0
O6 O 0.03136 0.3332 0.98621 0.0
O7 O 0.99367 0.31903 0.99013 0.0
O8 O 0.97553 0.31913 0.97758 0.0
O9 O 0.02215 0.3646 0.98437 0.0
O10 O 0.00194 0.34976 0.97169 0.0
C11 C 0.98124 0.31267 0.98423 0.0
C12 C 0.01195 0.36239 0.97374 0.0
O13 O 0.02313 0.33806 0.0108 0.0
Mg14 Mg 0.65519 0.65105 0.03417 0.0
O15 O 0.63871 0.6443 0.01149 0.0
O16 O 0.61996 0.64258 0.02397 0.0
Mg17 Mg 0.62397 0.64681 0.05456 0.0
C18 C 0.62636 0.64183 0.01022 0.0
C19 C 0.67422 0.64877 0.00546 0.0
O20 O 0.66665 0.63551 0.00915 0.0
O21 O 0.65833 0.67297 0.03567 0.0
O22 O 0.63976 0.66986 0.05013 0.0
O23 O 0.64822 0.62881 0.03958 0.0
O24 O 0.64 0.64094 0.05307 0.0
C25 C 0.65134 0.6778 0.04308 0.0
C26 C 0.63958 0.62919 0.05065 0.0
O27 O 0.67183 0.65762 0.01327 0.0
Mg28 Mg 0.34266 0.98948 0.99056 0.0
O29 O 0.35709 0.99787 0.01556 0.0
O30 O 0.37704 0.01586 0.0072 0.0
Mg31 Mg 0.37576 0.01798 0.97651 0.0
C32 C 0.3693 0.00771 0.01927 0.0
C33 C 0.31244 0.97328 0.00182 0.0
O34 O 0.31091 0.97345 0.98414 0.0
O35 O 0.34008 0.00845 0.99073 0.0
O36 O 0.35985 0.02506 0.97992 0.0
O37 O 0.34976 0.97434 0.98444 0.0
O38 O 0.35948 0.99586 0.97441 0.0
C39 C 0.34771 0.02083 0.98539 0.0
C40 C 0.3596 0.98437 0.97584 0.0
O41 O 0.32447 0.97864 0.00877 0.0
Mg42 Mg 0.99264 0.6571 0.0296 0.0
O43 O 0.00076 0.65016 0.00537 0.0
O44 O 0.01835 0.64815 0.01614 0.0
Mg45 Mg 0.02052 0.65222 0.04681 0.0
C46 C 0.01048 0.64753 0.00307 0.0
C47 C 0.97043 0.65571 0.00198 0.0
O48 O 0.96563 0.64227 0.00352 0.0
O49 O 0.01147 0.67894 0.0305 0.0
O50 O 0.0275 0.67532 0.04313 0.0
O51 O 0.97772 0.6348 0.0351 0.0
O52 O -0.00128 0.64647 0.04701 0.0
C53 C 0.02359 0.68351 0.03699 0.0
C54 C 0.98736 0.63482 0.04489 0.0
O55 O 0.98141 0.66429 0.0106 0.0
Mg56 Mg 0.34608 0.34869 0.98468 0.0
O57 O 0.36249 0.35593 0.00753 0.0
O58 O 0.38148 0.35798 0.99542 0.0
Mg59 Mg 0.37763 0.35345 0.96484 0.0
C60 C 0.37491 0.35866 0.00901 0.0
C61 C 0.32819 0.35088 0.01519 0.0
O62 O 0.33698 0.36423 0.01358 0.0
O63 O 0.34345 0.327 0.98376 0.0
O64 O 0.36225 0.33033 0.96969 0.0
O65 O 0.35255 0.37073 0.97889 0.0
O66 O 0.36125 0.35886 0.96585 0.0
C67 C 0.35068 0.3223 0.97673 0.0
C68 C 0.36135 0.37048 0.968 0.0
O69 O 0.32941 0.34203 0.00541 0.0
Mg70 Mg 0.65767 0.01145 0.03218 0.0
O71 O 0.64227 0.00185 0.00822 0.0
O72 O 0.62332 0.98347 0.01818 0.0
Mg73 Mg 0.62629 0.98182 0.04861 0.0
C74 C 0.63015 0.99154 0.00549 0.0
C75 C 0.68635 0.02421 0.01653 0.0
O76 O 0.68762 0.01861 0.03145 0.0
O77 O 0.66181 0.99338 0.03134 0.0
O78 O 0.64296 0.9761 0.04324 0.0
O79 O 0.64889 0.02509 0.03923 0.0
O80 O 0.64179 0.00419 0.05014 0.0
C81 C 0.65496 0.98095 0.03689 0.0
C82 C 0.64036 0.01495 0.04906 0.0
O83 O 0.67493 0.02342 0.01276 0.0
Mg84 Mg 0.67551 0.67976 0.32244 0.0
O85 O 0.6662 0.68605 0.34595 0.0
O86 O 0.64909 0.68823 0.33375 0.0
Mg87 Mg 0.64828 0.68478 0.30301 0.0
C88 C 0.65633 0.68857 0.34744 0.0
C89 C 0.69165 0.66593 0.33493 0.0
O90 O 0.69025 0.66354 0.31728 0.0
O91 O 0.65681 0.65783 0.32032 0.0
O92 O 0.64124 0.66161 0.30653 0.0
O93 O 0.69055 0.70217 0.31777 0.0
O94 O 0.67004 0.6905 0.3044 0.0
C95 C 0.64493 0.65335 0.31302 0.0
C96 C 0.68133 0.70215 0.30704 0.0
O97 O 0.68638 0.67261 0.34212 0.0
Mg98 Mg 0.31332 0.98274 0.37154 0.0
O99 O 0.29627 0.97643 0.34975 0.0
O100 O 0.27805 0.97476 0.36382 0.0
Mg101 Mg 0.2828 0.97809 0.39438 0.0
C102 C 0.28399 0.97422 0.34945 0.0
C103 C 0.32878 0.98064 0.33811 0.0
O104 O 0.31824 0.96788 0.3378 0.0
O105 O 0.31648 0.00463 0.37423 0.0
O106 O 0.29846 0.00125 0.39033 0.0
O107 O 0.30671 0.96049 0.37594 0.0
O108 O 0.29871 0.97226 0.39092 0.0
C109 C 0.30977 0.00932 0.38272 0.0
C110 C 0.2984 0.96062 0.3878 0.0
O111 O 0.32943 0.98941 0.35002 0.0
Mg112 Mg 0.01344 0.31795 0.3237 0.0
O113 O 0.03044 0.32782 0.34592 0.0
O114 O 0.0499 0.34228 0.33216 0.0
Mg115 Mg 0.04567 0.34073 0.30163 0.0
C116 C 0.04326 0.3368 0.34645 0.0
C117 C 0.98518 0.30767 0.33787 0.0
O118 O 0.98374 0.3078 0.32017 0.0
O119 O 0.01369 0.33834 0.32086 0.0
O120 O 0.03312 0.35167 0.30633 0.0
O121 O 0.01715 0.30015 0.31946 0.0
O122 O 0.02754 0.31987 0.30475 0.0
C123 C 0.02206 0.34973 0.31353 0.0
C124 C 0.02606 0.30777 0.30767 0.0
O125 O 0.99697 0.31128 0.34463 0.0
Mg126 Mg 0.65892 0.98337 0.36061 0.0
O127 O 0.6686 0.97661 0.33818 0.0
O128 O 0.68631 0.97587 0.35107 0.0
Mg129 Mg 0.68727 0.98093 0.38143 0.0
C130 C 0.67878 0.97455 0.33722 0.0
C131 C 0.63862 0.97913 0.32854 0.0
O132 O 0.63709 0.96658 0.32872 0.0
O133 O 0.67696 0.00564 0.3609 0.0
O134 O 0.69341 0.00358 0.37532 0.0
O135 O 0.64472 0.96118 0.36694 0.0
O136 O 0.66523 0.97414 0.37997 0.0
C137 C 0.68907 0.01101 0.36783 0.0
C138 C 0.65424 0.96213 0.37794 0.0
O139 O 0.6472 0.98849 0.33961 0.0
Mg140 Mg 0.01711 0.6868 0.31938 0.0
O141 O 0.03503 0.69529 0.34021 0.0
O142 O 0.05391 0.69989 0.32523 0.0
Mg143 Mg 0.04831 0.69555 0.29491 0.0
C144 C 0.04784 0.69942 0.33992 0.0
C145 C 0.0002 0.68697 0.35231 0.0
O146 O 0.0082 0.70045 0.35047 0.0
O147 O 0.01687 0.66617 0.31657 0.0
O148 O 0.03546 0.67211 0.30017 0.0
O149 O 0.02127 0.70843 0.31496 0.0
O150 O 0.0304 0.69813 0.29913 0.0
C151 C 0.02479 0.66298 0.30811 0.0
C152 C 0.02954 0.7091 0.30249 0.0
O153 O 0.00169 0.67856 0.34193 0.0
Mg154 Mg 0.32196 0.34858 0.36143 0.0
O155 O 0.30455 0.33617 0.34037 0.0
O156 O 0.28655 0.32036 0.35544 0.0
Mg157 Mg 0.2922 0.32288 0.38569 0.0
C158 C 0.29219 0.32605 0.34068 0.0
C159 C 0.34986 0.36154 0.34548 0.0
O160 O 0.35191 0.36153 0.36307 0.0
O161 O 0.32533 0.33022 0.36416 0.0
O162 O 0.30756 0.31534 0.38035 0.0
O163 O 0.31487 0.36399 0.36613 0.0
O164 O 0.30792 0.34473 0.38138 0.0
C165 C 0.31876 0.31876 0.37234 0.0
C166 C 0.30714 0.35572 0.37846 0.0
O167 O 0.33769 0.35694 0.3394 0.0
Mg168 Mg 0.34251 0.01499 0.65558 0.0
O169 O 0.33277 0.02184 0.67785 0.0
O170 O 0.31588 0.02376 0.66441 0.0
Mg171 Mg 0.31559 0.01951 0.63393 0.0
C172 C 0.3229 0.0244 0.67852 0.0
C173 C 0.36302 0.01795 0.68652 0.0
O174 O 0.3665 0.03108 0.68467 0.0
O175 O 0.3238 0.99303 0.654 0.0
O176 O 0.30847 0.99649 0.63895 0.0
O177 O 0.35761 0.03724 0.6503 0.0
O178 O 0.33736 0.02533 0.63632 0.0
C179 C 0.312 0.98839 0.64633 0.0
C180 C 0.34858 0.03705 0.63906 0.0
O181 O 0.3531 0.00862 0.67685 0.0
Mg182 Mg 0.98148 0.30921 0.69671 0.0
O183 O 0.96395 0.3006 0.67508 0.0
O184 O 0.94461 0.29406 0.68999 0.0
Mg185 Mg 0.94945 0.29784 0.72042 0.0
C186 C 0.95095 0.29553 0.67525 0.0
C187 C 0.00929 0.32877 0.68104 0.0
O188 O 0.01093 0.33253 0.69832 0.0
O189 O 0.98022 0.32896 0.70039 0.0
O190 O 0.96119 0.32152 0.71635 0.0
O191 O 0.97891 0.28806 0.70025 0.0
O192 O 0.96802 0.29649 0.71601 0.0
C193 C 0.97173 0.33127 0.70889 0.0
C194 C 0.97002 0.28624 0.71241 0.0
O195 O 0.99759 0.31914 0.67526 0.0
Mg196 Mg 0.67839 0.65116 0.65408 0.0
O197 O 0.695 0.66131 0.67661 0.0
O198 O 0.71396 0.6779 0.66396 0.0
Mg199 Mg 0.70998 0.67719 0.63336 0.0
C200 C 0.70746 0.67122 0.67779 0.0
C201 C 0.65097 0.6428 0.67141 0.0
O202 O 0.64991 0.64786 0.65589 0.0
O203 O 0.67668 0.67063 0.65292 0.0
O204 O 0.69524 0.68557 0.63803 0.0
O205 O 0.68429 0.63503 0.64833 0.0
O206 O 0.69317 0.65537 0.63511 0.0
C207 C 0.6839 0.68234 0.64554 0.0
C208 C 0.693 0.64377 0.63716 0.0
O209 O 0.66177 0.64228 0.675 0.0
Mg210 Mg 0.32372 0.32047 0.6943 0.0
O211 O 0.33453 0.31413 0.67279 0.0
O212 O 0.35021 0.31128 0.68804 0.0
Mg213 Mg 0.34946 0.31535 0.71831 0.0
C214 C 0.34413 0.31115 0.67322 0.0
C215 C 0.30255 0.31969 0.66558 0.0
O216 O 0.29609 0.30655 0.6701 0.0
O217 O 0.34243 0.34227 0.69739 0.0
O218 O 0.35721 0.33852 0.71332 0.0
O219 O 0.30827 0.29805 0.69833 0.0
O220 O 0.32787 0.30961 0.71387 0.0
C221 C 0.35398 0.34675 0.70564 0.0
C222 C 0.31677 0.29796 0.71025 0.0
O223 O 0.31438 0.3279 0.67259 0.0
Mg224 Mg 0.68473 0.01575 0.64593 0.0
O225 O 0.70114 0.02232 0.6687 0.0
O226 O 0.71947 0.02291 0.65647 0.0
Mg227 Mg 0.71527 0.01801 0.62598 0.0
C228 C 0.7133 0.02427 0.67007 0.0
C229 C 0.66267 0.01835 0.66659 0.0
O230 O 0.66713 0.0287 0.65537 0.0
O231 O 0.68058 0.99351 0.64558 0.0
O232 O 0.6988 0.9953 0.63148 0.0
O233 O 0.69257 0.03793 0.63985 0.0
O234 O 0.70001 0.02493 0.62679 0.0
C235 C 0.68714 0.98799 0.63872 0.0
C236 C 0.70091 0.03694 0.62882 0.0
O237 O 0.6681 0.01068 0.66652 0.0
Mg238 Mg 0.98646 0.68155 0.69399 0.0
O239 O 0.96806 0.67191 0.67392 0.0
O240 O 0.94911 0.65968 0.68975 0.0
Mg241 Mg 0.9553 0.66176 0.71979 0.0
C242 C 0.95507 0.66406 0.67471 0.0
C243 C 0.00114 0.69376 0.65751 0.0
O244 O 0.99223 0.6981 0.65679 0.0
O245 O 0.98471 0.66035 0.69691 0.0
O246 O 0.96618 0.64932 0.71394 0.0
O247 O 0.98435 0.70047 0.6989 0.0
O248 O 0.97427 0.68133 0.71471 0.0
C249 C 0.97624 0.64971 0.7056 0.0
C250 C 0.97626 0.69359 0.71184 0.0
O251 O 0.00106 0.68662 0.67082 0.0
H252 H 0.14267 0.29955 0.18982 0.0
H253 H 0.12352 0.29565 0.20854 0.0
H254 H 0.09561 0.26201 0.17193 0.0
H255 H 0.11499 0.26612 0.15298 0.0
H256 H 0.15202 0.28243 0.18264 0.0
H257 H 0.1348 0.30702 0.14957 0.0
H258 H 0.11857 0.31137 0.13276 0.0
H259 H 0.1125 0.27953 0.09287 0.0
H260 H 0.12893 0.27537 0.10972 0.0
H261 H 0.17038 0.28023 0.11056 0.0
H262 H 0.19193 0.28785 0.0949 0.0
H263 H 0.21305 0.32176 0.13439 0.0
H264 H 0.19149 0.31411 0.14993 0.0
H265 H 0.15634 0.2942 0.11765 0.0
H266 H 0.18113 0.27645 0.15289 0.0
H267 H 0.19992 0.27804 0.17211 0.0
H268 H 0.1935 0.30344 0.21137 0.0
H269 H 0.1753 0.30246 0.19197 0.0
C270 C 0.13025 0.2831 0.17006 0.0
C271 C 0.13244 0.2913 0.18583 0.0
C272 C 0.12148 0.28899 0.19659 0.0
C273 C 0.10808 0.27837 0.19187 0.0
C274 C 0.10583 0.27028 0.17588 0.0
C275 C 0.11686 0.27262 0.16506 0.0
C276 C 0.1422 0.28542 0.15935 0.0
C277 C 0.15302 0.28508 0.16843 0.0
C278 C 0.14334 0.28867 0.1408 0.0
C279 C 0.13294 0.29075 0.13101 0.0
C280 C 0.12981 0.30083 0.13735 0.0
C281 C 0.12051 0.3033 0.12772 0.0
C282 C 0.11419 0.29578 0.11147 0.0
C283 C 0.1173 0.28562 0.10522 0.0
C284 C 0.12663 0.28317 0.11486 0.0
C285 C 0.1794 0.29648 0.13154 0.0
C286 C 0.17966 0.28933 0.11578 0.0
C287 C 0.19195 0.29371 0.10685 0.0
C288 C 0.20418 0.30536 0.1135 0.0
C289 C 0.20384 0.31261 0.12914 0.0
C290 C 0.19154 0.30827 0.13801 0.0
C291 C 0.16642 0.29169 0.14116 0.0
C292 C 0.1553 0.29137 0.13179 0.0
C293 C 0.16527 0.28851 0.15977 0.0
C294 C 0.17679 0.28937 0.17093 0.0
C295 C 0.18391 0.28255 0.16549 0.0
C296 C 0.19458 0.2834 0.17646 0.0
C297 C 0.19801 0.29078 0.1932 0.0
C298 C 0.19092 0.29758 0.19859 0.0
C299 C 0.1805 0.29697 0.18753 0.0
H300 H 0.72912 0.8913 0.19344 0.0
H301 H 0.72448 0.90691 0.21177 0.0
H302 H 0.69157 0.8997 0.17417 0.0
H303 H 0.6956 0.88327 0.15675 0.0
H304 H 0.71338 0.86464 0.18794 0.0
H305 H 0.7325 0.90396 0.14739 0.0
H306 H 0.73106 0.92144 0.12903 0.0
H307 H 0.69773 0.88842 0.09711 0.0
H308 H 0.69906 0.87113 0.11548 0.0
H309 H 0.69688 0.83867 0.11808 0.0
H310 H 0.69344 0.81797 0.10137 0.0
H311 H 0.7267 0.81886 0.13245 0.0
H312 H 0.7302 0.83981 0.14918 0.0
H313 H 0.7171 0.86414 0.12109 0.0
H314 H 0.69391 0.82598 0.16086 0.0
H315 H 0.69025 0.80658 0.17955 0.0
H316 H 0.72547 0.83472 0.2134 0.0
H317 H 0.72958 0.85389 0.19387 0.0
C318 C 0.71286 0.88622 0.17355 0.0
C319 C 0.72093 0.89312 0.18911 0.0
C320 C 0.71834 0.90219 0.1995 0.0
C321 C 0.70764 0.90466 0.1945 0.0
C322 C 0.69976 0.89795 0.17864 0.0
C323 C 0.70222 0.8887 0.16844 0.0
C324 C 0.71487 0.87563 0.16352 0.0
C325 C 0.71451 0.86471 0.17335 0.0
C326 C 0.71593 0.87545 0.14441 0.0
C327 C 0.71582 0.88623 0.13291 0.0
C328 C 0.72491 0.90052 0.13641 0.0
C329 C 0.72411 0.91048 0.1259 0.0
C330 C 0.71434 0.90629 0.11157 0.0
C331 C 0.70554 0.89198 0.10781 0.0
C332 C 0.70626 0.88208 0.11838 0.0
C333 C 0.71375 0.84077 0.13496 0.0
C334 C 0.70359 0.83456 0.12115 0.0
C335 C 0.70166 0.82274 0.11154 0.0
C336 C 0.70984 0.81682 0.11553 0.0
C337 C 0.72018 0.82315 0.12917 0.0
C338 C 0.72218 0.83509 0.13874 0.0
C339 C 0.71512 0.85299 0.14543 0.0
C340 C 0.71628 0.86427 0.13573 0.0
C341 C 0.71432 0.85325 0.16457 0.0
C342 C 0.7122 0.84135 0.17572 0.0
C343 C 0.70102 0.82791 0.17206 0.0
C344 C 0.69881 0.81685 0.18297 0.0
C345 C 0.70754 0.81904 0.19806 0.0
C346 C 0.71867 0.83256 0.20174 0.0
C347 C 0.72098 0.84358 0.19067 0.0
H348 H 0.1166 0.85952 0.17995 0.0
H349 H 0.0999 0.84026 0.19787 0.0
H350 H 0.11625 0.81457 0.17837 0.0
H351 H 0.13245 0.83367 0.16008 0.0
H352 H 0.14593 0.87142 0.18302 0.0
H353 H 0.10884 0.84693 0.13846 0.0
H354 H 0.09216 0.82587 0.12128 0.0
H355 H 0.1254 0.82267 0.09766 0.0
H356 H 0.14197 0.84349 0.11502 0.0
H357 H 0.17327 0.87503 0.11659 0.0
H358 H 0.19281 0.89123 0.09912 0.0
H359 H 0.19191 0.92597 0.12514 0.0
H360 H 0.17185 0.90964 0.14226 0.0
H361 H 0.14867 0.86928 0.11612 0.0
H362 H 0.18506 0.88847 0.16078 0.0
H363 H 0.20308 0.90415 0.18261 0.0
H364 H 0.1744 0.91354 0.20849 0.0
H365 H 0.15652 0.8983 0.18626 0.0
C366 C 0.12562 0.84793 0.16859 0.0
C367 C 0.11643 0.84966 0.17946 0.0
C368 C 0.10698 0.83868 0.18977 0.0
C369 C 0.1067 0.82583 0.18958 0.0
C370 C 0.11594 0.82418 0.17858 0.0
C371 C 0.12527 0.83511 0.16817 0.0
C372 C 0.13612 0.85971 0.15841 0.0
C373 C 0.14644 0.8712 0.16833 0.0
C374 C 0.13692 0.85898 0.13935 0.0
C375 C 0.12667 0.84674 0.1282 0.0
C376 C 0.11253 0.84167 0.12962 0.0
C377 C 0.10302 0.82967 0.11977 0.0
C378 C 0.10749 0.82264 0.10811 0.0
C379 C 0.12164 0.82797 0.10633 0.0
C380 C 0.13113 0.83986 0.11628 0.0
C381 C 0.17105 0.89109 0.13075 0.0
C382 C 0.17714 0.88612 0.11845 0.0
C383 C 0.18831 0.89536 0.10848 0.0
C384 C 0.19375 0.90979 0.11074 0.0
C385 C 0.18786 0.91486 0.12323 0.0
C386 C 0.17647 0.90556 0.13304 0.0
C387 C 0.15889 0.88093 0.14076 0.0
C388 C 0.14814 0.86977 0.13078 0.0
C389 C 0.15803 0.88167 0.15986 0.0
C390 C 0.16943 0.89232 0.17169 0.0
C391 C 0.18274 0.89424 0.17076 0.0
C392 C 0.19302 0.90314 0.18329 0.0
C393 C 0.19009 0.90999 0.19722 0.0
C394 C 0.17689 0.90831 0.19792 0.0
C395 C 0.16669 0.89961 0.18522 0.0
H396 H 0.27195 0.14616 0.82286 0.0
H397 H 0.27467 0.16463 0.8029 0.0
H398 H 0.31212 0.19372 0.83228 0.0
H399 H 0.30984 0.17497 0.85121 0.0
H400 H 0.2885 0.13543 0.82685 0.0
H401 H 0.27527 0.16283 0.86868 0.0
H402 H 0.28113 0.18458 0.88548 0.0
H403 H 0.31613 0.18466 0.9104 0.0
H404 H 0.31054 0.1634 0.89333 0.0
H405 H 0.30663 0.13122 0.89822 0.0
H406 H 0.30848 0.11457 0.91731 0.0
H407 H 0.27373 0.08064 0.88852 0.0
H408 H 0.27173 0.0975 0.86946 0.0
H409 H 0.2888 0.13827 0.89399 0.0
H410 H 0.30795 0.11782 0.85729 0.0
H411 H 0.31147 0.10108 0.83992 0.0
H412 H 0.27745 0.09305 0.80394 0.0
H413 H 0.27324 0.10891 0.82243 0.0
C414 C 0.29054 0.15921 0.83877 0.0
C415 C 0.28075 0.15653 0.82496 0.0
C416 C 0.28227 0.16716 0.81366 0.0
C417 C 0.29359 0.18075 0.81597 0.0
C418 C 0.30336 0.18338 0.82989 0.0
C419 C 0.30195 0.1727 0.84098 0.0
C420 C 0.28913 0.14771 0.8502 0.0
C421 C 0.28825 0.13587 0.84154 0.0
C422 C 0.28962 0.14868 0.86939 0.0
C423 C 0.29252 0.16155 0.87967 0.0
C424 C 0.28422 0.1676 0.87773 0.0
C425 C 0.28752 0.17994 0.88741 0.0
C426 C 0.29916 0.18638 0.89914 0.0
C427 C 0.30725 0.18011 0.90123 0.0
C428 C 0.30398 0.16787 0.89161 0.0
C429 C 0.28906 0.11563 0.88237 0.0
C430 C 0.29924 0.12022 0.89616 0.0
C431 C 0.30027 0.11069 0.90712 0.0
C432 C 0.29117 0.09632 0.9045 0.0
C433 C 0.28089 0.09167 0.89079 0.0
C434 C 0.27977 0.10127 0.87988 0.0
C435 C 0.2884 0.12605 0.8707 0.0
C436 C 0.2887 0.1376 0.87928 0.0
C437 C 0.28843 0.12526 0.8515 0.0
C438 C 0.29012 0.11445 0.84146 0.0
C439 C 0.30095 0.11213 0.84603 0.0
C440 C 0.30313 0.1027 0.8358 0.0
C441 C 0.29482 0.09569 0.82036 0.0
C442 C 0.28393 0.09801 0.81588 0.0
C443 C 0.28158 0.10722 0.82635 0.0
H444 H 0.84097 0.10422 0.83055 0.0
H445 H 0.82256 0.08962 0.8088 0.0
H446 H 0.79627 0.10258 0.83452 0.0
H447 H 0.81513 0.11816 0.85487 0.0
H448 H 0.85471 0.1307 0.83452 0.0
H449 H 0.82661 0.0947 0.87703 0.0
H450 H 0.80526 0.0793 0.89247 0.0
H451 H 0.80273 0.11521 0.91067 0.0
H452 H 0.82395 0.13049 0.89523 0.0
H453 H 0.86057 0.16339 0.89613 0.0
H454 H 0.87788 0.18284 0.91462 0.0
H455 H 0.90628 0.16784 0.90598 0.0
H456 H 0.88899 0.14879 0.88648 0.0
H457 H 0.84937 0.13458 0.90064 0.0
H458 H 0.87565 0.17029 0.86007 0.0
H459 H 0.89462 0.18726 0.84246 0.0
H460 H 0.89908 0.15415 0.81783 0.0
H461 H 0.88045 0.13713 0.83627 0.0
C462 C 0.82945 0.11216 0.84463 0.0
C463 C 0.83124 0.10392 0.83147 0.0
C464 C 0.82059 0.09542 0.81914 0.0
C465 C 0.8078 0.09481 0.81981 0.0
C466 C 0.80598 0.10288 0.83327 0.0
C467 C 0.81673 0.11162 0.84528 0.0
C468 C 0.84112 0.122 0.85685 0.0
C469 C 0.85368 0.13126 0.84907 0.0
C470 C 0.83966 0.12313 0.87574 0.0
C471 C 0.82682 0.11371 0.88499 0.0
C472 C 0.82141 0.09921 0.88431 0.0
C473 C 0.80928 0.09046 0.89316 0.0
C474 C 0.80234 0.09608 0.90266 0.0
C475 C 0.80778 0.11059 0.90325 0.0
C476 C 0.81995 0.11933 0.89458 0.0
C477 C 0.87352 0.15469 0.88994 0.0
C478 C 0.87053 0.16429 0.89828 0.0
C479 C 0.88045 0.17537 0.90901 0.0
C480 C 0.89353 0.17693 0.91204 0.0
C481 C 0.89643 0.16713 0.9038 0.0
C482 C 0.88653 0.15617 0.89274 0.0
C483 C 0.86289 0.14321 0.87828 0.0
C484 C 0.85055 0.13368 0.88618 0.0
C485 C 0.86453 0.14198 0.85947 0.0
C486 C 0.8768 0.15243 0.84988 0.0
C487 C 0.88101 0.16667 0.85147 0.0
C488 C 0.89181 0.17638 0.84129 0.0
C489 C 0.89834 0.17199 0.82892 0.0
C490 C 0.89421 0.15777 0.82734 0.0
C491 C 0.88358 0.14807 0.83784 0.0
H492 H 0.8224 0.68641 0.83578 0.0
H493 H 0.80298 0.6816 0.81597 0.0
H494 H 0.80381 0.7186 0.83763 0.0
H495 H 0.82292 0.72287 0.85824 0.0
H496 H 0.8489 0.71253 0.83648 0.0
H497 H 0.8108 0.68231 0.87312 0.0
H498 H 0.78937 0.67549 0.88841 0.0
H499 H 0.80991 0.71312 0.92215 0.0
H500 H 0.83125 0.72015 0.90618 0.0
H501 H 0.87365 0.72227 0.9105 0.0
H502 H 0.88925 0.71667 0.92711 0.0
H503 H 0.88137 0.68467 0.8865 0.0
H504 H 0.86556 0.68994 0.8705 0.0
H505 H 0.84586 0.70497 0.90276 0.0
H506 H 0.88589 0.7332 0.86554 0.0
H507 H 0.90603 0.73715 0.84824 0.0
H508 H 0.88041 0.69983 0.81576 0.0
H509 H 0.86035 0.69608 0.83268 0.0
C510 C 0.82411 0.70503 0.84832 0.0
C511 C 0.81834 0.69344 0.83629 0.0
C512 C 0.80729 0.69078 0.82488 0.0
C513 C 0.80193 0.69985 0.82492 0.0
C514 C 0.80759 0.71134 0.8373 0.0
C515 C 0.81856 0.71387 0.849 0.0
C516 C 0.83616 0.70781 0.85973 0.0
C517 C 0.84831 0.71106 0.85102 0.0
C518 C 0.83541 0.70608 0.87869 0.0
C519 C 0.82253 0.70186 0.8883 0.0
C520 C 0.81064 0.68918 0.88365 0.0
C521 C 0.79844 0.68521 0.89256 0.0
C522 C 0.79792 0.69377 0.90649 0.0
C523 C 0.80992 0.7064 0.9113 0.0
C524 C 0.82213 0.71038 0.9023 0.0
C525 C 0.86861 0.70669 0.8891 0.0
C526 C 0.87536 0.7141 0.90519 0.0
C527 C 0.88432 0.71094 0.91459 0.0
C528 C 0.88652 0.70019 0.90814 0.0
C529 C 0.87979 0.69289 0.89197 0.0
C530 C 0.87088 0.69603 0.88265 0.0
C531 C 0.85854 0.70932 0.87939 0.0
C532 C 0.84673 0.7071 0.88839 0.0
C533 C 0.85949 0.71181 0.86059 0.0
C534 C 0.87168 0.71435 0.85035 0.0
C535 C 0.88465 0.72593 0.85464 0.0
C536 C 0.89608 0.7282 0.84477 0.0
C537 C 0.89467 0.71877 0.83078 0.0
C538 C 0.8817 0.7072 0.82655 0.0
C539 C 0.87027 0.70509 0.83614 0.0
H540 H 0.81214 0.64279 0.50762 0.0
H541 H 0.79394 0.64264 0.52529 0.0
H542 H 0.76403 0.60456 0.49716 0.0
H543 H 0.78249 0.60481 0.47929 0.0
H544 H 0.81901 0.62181 0.507 0.0
H545 H 0.80669 0.64762 0.46731 0.0
H546 H 0.78976 0.65114 0.45092 0.0
H547 H 0.7771 0.61317 0.41928 0.0
H548 H 0.79432 0.60986 0.43567 0.0
H549 H 0.83907 0.6154 0.43733 0.0
H550 H 0.86116 0.62235 0.42349 0.0
H551 H 0.88107 0.65747 0.46155 0.0
H552 H 0.85896 0.65082 0.47468 0.0
H553 H 0.82475 0.62982 0.44096 0.0
H554 H 0.84789 0.61293 0.48181 0.0
H555 H 0.86574 0.6149 0.5033 0.0
H556 H 0.85969 0.64351 0.53704 0.0
H557 H 0.84239 0.64201 0.51545 0.0
C558 C 0.79862 0.6238 0.49223 0.0
C559 C 0.80166 0.63444 0.50518 0.0
C560 C 0.79125 0.63439 0.51516 0.0
C561 C 0.77759 0.62362 0.51249 0.0
C562 C 0.7745 0.61296 0.49945 0.0
C563 C 0.78497 0.61311 0.48925 0.0
C564 C 0.81001 0.62397 0.48234 0.0
C565 C 0.8203 0.62349 0.49254 0.0
C566 C 0.81151 0.6261 0.46352 0.0
C567 C 0.80164 0.6284 0.45281 0.0
C568 C 0.80026 0.64005 0.45684 0.0
C569 C 0.79051 0.642 0.44753 0.0
C570 C 0.78195 0.63235 0.43392 0.0
C571 C 0.78358 0.62084 0.42961 0.0
C572 C 0.79339 0.61891 0.43896 0.0
C573 C 0.84742 0.63247 0.45719 0.0
C574 C 0.84821 0.62463 0.44257 0.0
C575 C 0.86085 0.62855 0.43481 0.0
C576 C 0.8729 0.64043 0.44148 0.0
C577 C 0.87199 0.64836 0.45594 0.0
C578 C 0.85937 0.64448 0.4636 0.0
C579 C 0.83416 0.62818 0.46582 0.0
C580 C 0.82339 0.62774 0.45532 0.0
C581 C 0.83256 0.62598 0.48471 0.0
C582 C 0.84373 0.62727 0.49703 0.0
C583 C 0.85056 0.61978 0.49369 0.0
C584 C 0.86071 0.62088 0.50595 0.0
C585 C 0.86392 0.62924 0.52185 0.0
C586 C 0.85724 0.63685 0.52499 0.0
C587 C 0.84733 0.63595 0.51268 0.0
H588 H 0.39501 0.22998 0.52097 0.0
H589 H 0.39306 0.24752 0.53925 0.0
H590 H 0.35165 0.23133 0.51802 0.0
H591 H 0.35397 0.21427 0.49927 0.0
H592 H 0.37667 0.20018 0.52321 0.0
H593 H 0.39132 0.23678 0.47857 0.0
H594 H 0.38874 0.25305 0.45908 0.0
H595 H 0.35144 0.21871 0.43543 0.0
H596 H 0.35404 0.20261 0.45485 0.0
H597 H 0.35403 0.17033 0.45577 0.0
H598 H 0.35026 0.14935 0.43947 0.0
H599 H 0.3864 0.15292 0.46597 0.0
H600 H 0.3902 0.17413 0.4823 0.0
H601 H 0.37325 0.19601 0.45603 0.0
H602 H 0.3546 0.16018 0.49839 0.0
H603 H 0.35227 0.14132 0.51707 0.0
H604 H 0.38941 0.17029 0.54713 0.0
H605 H 0.39221 0.18892 0.52738 0.0
C606 C 0.37467 0.2209 0.50874 0.0
C607 C 0.38559 0.23036 0.52015 0.0
C608 C 0.3844 0.24031 0.53068 0.0
C609 C 0.37215 0.24082 0.53027 0.0
C610 C 0.36131 0.23144 0.51853 0.0
C611 C 0.36259 0.22161 0.50784 0.0
C612 C 0.37554 0.20972 0.4986 0.0
C613 C 0.37623 0.19938 0.50849 0.0
C614 C 0.37436 0.20842 0.47948 0.0
C615 C 0.37284 0.21849 0.46819 0.0
C616 C 0.38254 0.23281 0.46928 0.0
C617 C 0.38108 0.24207 0.45812 0.0
C618 C 0.36996 0.23712 0.44561 0.0
C619 C 0.36027 0.2228 0.44465 0.0
C620 C 0.3617 0.2136 0.45581 0.0
C621 C 0.37236 0.17378 0.47034 0.0
C622 C 0.36127 0.16673 0.45792 0.0
C623 C 0.35915 0.15475 0.44854 0.0
C624 C 0.36807 0.14951 0.45137 0.0
C625 C 0.3793 0.15667 0.46362 0.0
C626 C 0.38148 0.16876 0.47296 0.0
C627 C 0.3741 0.18625 0.48058 0.0
C628 C 0.37397 0.19688 0.47074 0.0
C629 C 0.37512 0.18744 0.49978 0.0
C630 C 0.37376 0.17593 0.51117 0.0
C631 C 0.36242 0.16242 0.50872 0.0
C632 C 0.36098 0.15166 0.51967 0.0
C633 C 0.37063 0.15423 0.53371 0.0
C634 C 0.3819 0.16783 0.53628 0.0
C635 C 0.38345 0.17854 0.5251 0.0
H636 H 0.79034 0.18436 0.50793 0.0
H637 H 0.77595 0.16426 0.52607 0.0
H638 H 0.78539 0.13843 0.49134 0.0
H639 H 0.80057 0.1588 0.47419 0.0
H640 H 0.8168 0.19615 0.50511 0.0
H641 H 0.77873 0.17458 0.46138 0.0
H642 H 0.76151 0.15434 0.44344 0.0
H643 H 0.7939 0.15192 0.41586 0.0
H644 H 0.81099 0.17215 0.43367 0.0
H645 H 0.84286 0.20564 0.43634 0.0
H646 H 0.86271 0.22386 0.42124 0.0
H647 H 0.86042 0.2553 0.454 0.0
H648 H 0.84007 0.23703 0.46863 0.0
H649 H 0.81771 0.19834 0.43802 0.0
H650 H 0.8542 0.2134 0.48402 0.0
H651 H 0.87226 0.22847 0.50612 0.0
H652 H 0.84495 0.24097 0.52962 0.0
H653 H 0.82684 0.22549 0.50787 0.0
C654 C 0.79642 0.17309 0.48955 0.0
C655 C 0.78924 0.17434 0.50418 0.0
C656 C 0.7809 0.16278 0.51445 0.0
C657 C 0.77948 0.14968 0.51021 0.0
C658 C 0.78639 0.14839 0.4952 0.0
C659 C 0.7949 0.16 0.48514 0.0
C660 C 0.80643 0.18568 0.47998 0.0
C661 C 0.81679 0.19678 0.49044 0.0
C662 C 0.80669 0.18631 0.46081 0.0
C663 C 0.79615 0.17481 0.44897 0.0
C664 C 0.7821 0.16973 0.45138 0.0
C665 C 0.77227 0.15814 0.44116 0.0
C666 C 0.77632 0.15147 0.42826 0.0
C667 C 0.79041 0.15691 0.42547 0.0
C668 C 0.80021 0.16847 0.43569 0.0
C669 C 0.84002 0.21992 0.45377 0.0
C670 C 0.84645 0.21645 0.44011 0.0
C671 C 0.8578 0.22685 0.4315 0.0
C672 C 0.86304 0.24093 0.43651 0.0
C673 C 0.85659 0.24448 0.45004 0.0
C674 C 0.84503 0.23406 0.45844 0.0
C675 C 0.82824 0.20864 0.46318 0.0
C676 C 0.81752 0.19785 0.4527 0.0
C677 C 0.82781 0.20809 0.48232 0.0
C678 C 0.83921 0.21836 0.49433 0.0
C679 C 0.8522 0.21954 0.4938 0.0
C680 C 0.86253 0.22821 0.50642 0.0
C681 C 0.86005 0.23588 0.51978 0.0
C682 C 0.84714 0.23501 0.51979 0.0
C683 C 0.8368 0.22625 0.50729 0.0
H684 H 0.95902 0.48785 0.15825 0.0
H685 H 0.95854 0.50491 0.13827 0.0
H686 H -0.00162 0.5363 0.1599 0.0
H687 H -0.00081 0.51897 0.17879 0.0
H688 H 0.97524 0.47743 0.15874 0.0
H689 H 0.96594 0.50485 0.20277 0.0
H690 H 0.97011 0.52585 0.21991 0.0
H691 H 0.00948 0.53226 0.23855 0.0
H692 H 0.00549 0.51169 0.22092 0.0
H693 H 0.00629 0.47624 0.21738 0.0
H694 H 0.00977 0.46092 0.23721 0.0
H695 H 0.96643 0.43043 0.23207 0.0
H696 H 0.9633 0.44562 0.21126 0.0
H697 H 0.98693 0.48571 0.22457 0.0
H698 H -0.00203 0.46046 0.18197 0.0
H699 H 0.99674 0.44111 0.16397 0.0
H700 H 0.95722 0.43165 0.14179 0.0
H701 H 0.95822 0.45071 0.16038 0.0
C702 C 0.97905 0.50215 0.17023 0.0
C703 C 0.96766 0.49841 0.15863 0.0
C704 C 0.96735 0.50823 0.14733 0.0
C705 C 0.97841 0.52203 0.14746 0.0
C706 C 0.98975 0.52575 0.15921 0.0
C707 C 0.99014 0.51588 0.17029 0.0
C708 C 0.97959 0.49154 0.18166 0.0
C709 C 0.97749 0.4791 0.17323 0.0
C710 C 0.98303 0.49394 0.20044 0.0
C711 C 0.98545 0.50676 0.21044 0.0
C712 C 0.97552 0.51089 0.21038 0.0
C713 C 0.97786 0.5228 0.22033 0.0
C714 C 0.99014 0.53075 0.23057 0.0
C715 C 1e-05 0.52652 0.2306 0.0
C716 C -0.00231 0.51468 0.22065 0.0
C717 C 0.98458 0.46198 0.21285 0.0
C718 C 0.99759 0.46619 0.22044 0.0
C719 C -0.0005 0.45746 0.23196 0.0
C720 C 0.98835 0.44447 0.23651 0.0
C721 C 0.97529 0.44027 0.22874 0.0
C722 C 0.97345 0.44893 0.21689 0.0
C723 C 0.9826 0.47174 0.20163 0.0
C724 C 0.98441 0.48396 0.21014 0.0
C725 C 0.97914 0.46921 0.18291 0.0
C726 C 0.97806 0.45692 0.17285 0.0
C727 C 0.98883 0.45398 0.17371 0.0
C728 C 0.98817 0.44296 0.16332 0.0
C729 C 0.97688 0.43489 0.15152 0.0
C730 C 0.96607 0.43777 0.15072 0.0
C731 C 0.96664 0.44864 0.16134 0.0
H732 H 0.50326 0.4426 0.16312 0.0
H733 H 0.48397 0.42728 0.14299 0.0
H734 H 0.45676 0.43409 0.17705 0.0
H735 H 0.47634 0.4503 0.19627 0.0
H736 H 0.51377 0.46924 0.16937 0.0
H737 H 0.49107 0.42866 0.20687 0.0
H738 H 0.47102 0.41098 0.22271 0.0
H739 H 0.47124 0.4434 0.25636 0.0
H740 H 0.49078 0.46102 0.24014 0.0
H741 H 0.5228 0.49364 0.24078 0.0
H742 H 0.54066 0.51389 0.25774 0.0
H743 H 0.57171 0.51069 0.22773 0.0
H744 H 0.55371 0.49029 0.21079 0.0
H745 H 0.51553 0.4674 0.23641 0.0
H746 H 0.53299 0.50695 0.19897 0.0
H747 H 0.5491 0.52663 0.18142 0.0
H748 H 0.55571 0.4986 0.14699 0.0
H749 H 0.5403 0.47911 0.16544 0.0
C750 C 0.49127 0.44749 0.18137 0.0
C751 C 0.49313 0.44079 0.16625 0.0
C752 C 0.48201 0.43187 0.15484 0.0
C753 C 0.4687 0.42931 0.15837 0.0
C754 C 0.46684 0.4359 0.1737 0.0
C755 C 0.47803 0.44503 0.18492 0.0
C756 C 0.50333 0.45764 0.19273 0.0
C757 C 0.51429 0.46865 0.18401 0.0
C758 C 0.50379 0.45717 0.2119 0.0
C759 C 0.49235 0.4462 0.22217 0.0
C760 C 0.48676 0.43196 0.2176 0.0
C761 C 0.47536 0.42188 0.22665 0.0
C762 C 0.46966 0.42588 0.24073 0.0
C763 C 0.47555 0.44006 0.24567 0.0
C764 C 0.48673 0.45012 0.23643 0.0
C765 C 0.53689 0.49052 0.22436 0.0
C766 C 0.53346 0.49712 0.23806 0.0
C767 C 0.54369 0.5087 0.24779 0.0
C768 C 0.55761 0.51393 0.24404 0.0
C769 C 0.56107 0.507 0.23077 0.0
C770 C 0.5508 0.49535 0.22109 0.0
C771 C 0.52583 0.47905 0.21303 0.0
C772 C 0.51512 0.46779 0.22173 0.0
C773 C 0.52537 0.47949 0.19387 0.0
C774 C 0.53562 0.49158 0.18373 0.0
C775 C 0.53817 0.50509 0.18793 0.0
C776 C 0.54724 0.51632 0.17767 0.0
C777 C 0.55369 0.51423 0.1627 0.0
C778 C 0.55112 0.50066 0.15858 0.0
C779 C 0.54221 0.48947 0.16901 0.0
H780 H 0.52689 0.0364 0.18099 0.0
H781 H 0.54458 0.03784 0.16082 0.0
H782 H 0.52977 0.9939 0.16767 0.0
H783 H 0.51257 0.99279 0.18842 0.0
H784 H 0.4975 0.01719 0.17558 0.0
H785 H 0.53462 0.02864 0.21903 0.0
H786 H 0.5524 0.02462 0.23197 0.0
H787 H 0.52119 0.9835 0.24744 0.0
H788 H 0.5035 0.98744 0.23393 0.0
H789 H 0.46855 0.98899 0.23942 0.0
H790 H 0.44867 0.98616 0.25595 0.0
H791 H 0.45738 0.02699 0.23961 0.0
H792 H 0.47746 0.02991 0.22361 0.0
H793 H 0.49564 0.00671 0.24095 0.0
H794 H 0.45853 0.99426 0.20017 0.0
H795 H 0.43996 0.9944 0.18321 0.0
H796 H 0.46939 0.03276 0.15845 0.0
H797 H 0.48768 0.03325 0.17693 0.0
C798 C 0.51855 0.01452 0.18624 0.0
C799 C 0.52758 0.02713 0.1782 0.0
C800 C 0.5376 0.0279 0.16658 0.0
C801 C 0.5386 0.01598 0.16255 0.0
C802 C 0.52949 0.00335 0.1707 0.0
C803 C 0.5196 0.00266 0.18249 0.0
C804 C 0.50764 0.01362 0.19796 0.0
C805 C 0.49719 0.01523 0.18998 0.0
C806 C 0.50702 0.01034 0.21646 0.0
C807 C 0.51775 0.00828 0.22534 0.0
C808 C 0.53162 0.01874 0.22515 0.0
C809 C 0.54176 0.01647 0.23269 0.0
C810 C 0.53822 0.00371 0.24067 0.0
C811 C 0.52428 0.99336 0.24116 0.0
C812 C 0.51415 0.99564 0.23361 0.0
C813 C 0.47438 0.00959 0.23014 0.0
C814 C 0.4663 0.99741 0.23967 0.0
C815 C 0.45486 0.99575 0.24893 0.0
C816 C 0.45137 0.00629 0.24891 0.0
C817 C 0.45983 0.01871 0.23998 0.0
C818 C 0.47126 0.02037 0.23073 0.0
C819 C 0.48556 0.0107 0.21869 0.0
C820 C 0.49599 0.00896 0.22665 0.0
C821 C 0.48599 0.01355 0.19998 0.0
C822 C 0.47454 0.01388 0.19013 0.0
C823 C 0.46094 0.00295 0.19155 0.0
C824 C 0.45032 0.00291 0.18151 0.0
C825 C 0.45308 0.01354 0.16927 0.0
C826 C 0.46672 0.02451 0.16795 0.0
C827 C 0.47728 0.02472 0.17835 0.0
H828 H 0.49553 0.009 0.85216 0.0
H829 H 0.47793 0.00707 0.87273 0.0
H830 H 0.45065 0.965 0.85197 0.0
H831 H 0.46809 0.96747 0.83065 0.0
H832 H 0.5063 0.98991 0.85063 0.0
H833 H 0.48458 0.00862 0.81511 0.0
H834 H 0.46555 0.00975 0.80068 0.0
H835 H 0.4561 0.97352 0.76707 0.0
H836 H 0.47509 0.97227 0.78184 0.0
H837 H 0.51339 0.97186 0.78025 0.0
H838 H 0.53211 0.9741 0.76131 0.0
H839 H 0.55954 0.01409 0.78739 0.0
H840 H 0.54083 0.01183 0.80616 0.0
H841 H 0.50221 0.98993 0.78352 0.0
H842 H 0.52422 0.97127 0.82164 0.0
H843 H 0.54235 0.97027 0.83914 0.0
H844 H 0.55162 0.00839 0.86812 0.0
H845 H 0.53364 0.00942 0.85045 0.0
C846 C 0.48304 0.9884 0.83992 0.0
C847 C 0.48569 -0.00058 0.85201 0.0
C848 C 0.47564 0.99822 0.86388 0.0
C849 C 0.46285 0.98581 0.86421 0.0
C850 C 0.46026 0.97479 0.85196 0.0
C851 C 0.47024 0.97613 0.83982 0.0
C852 C 0.49389 0.98952 0.82793 0.0
C853 C 0.5055 0.99007 0.83596 0.0
C854 C 0.49263 0.9895 0.80882 0.0
C855 C 0.48111 0.99018 0.79984 0.0
C856 C 0.47828 0.00075 0.80487 0.0
C857 C 0.46741 0.00142 0.79658 0.0
C858 C 0.45926 0.99165 0.78285 0.0
C859 C 0.46224 0.98121 0.77757 0.0
C860 C 0.47307 0.98048 0.786 0.0
C861 C 0.52578 0.99165 0.79462 0.0
C862 C 0.52344 0.98111 0.78181 0.0
C863 C 0.53413 0.98235 0.77113 0.0
C864 C 0.54725 0.99426 0.77292 0.0
C865 C 0.5495 0.00486 0.78564 0.0
C866 C 0.53886 0.00355 0.79641 0.0
C867 C 0.51462 0.99026 0.80627 0.0
C868 C 0.50296 0.98967 0.79818 0.0
C869 C 0.51588 0.99042 0.82538 0.0
C870 C 0.52762 0.99044 0.83473 0.0
C871 C 0.53033 0.97954 0.83153 0.0
C872 C 0.54062 0.97893 0.84161 0.0
C873 C 0.54839 0.98925 0.85501 0.0
C874 C 0.54592 0.00038 0.85775 0.0
C875 C 0.53559 0.00093 0.84777 0.0
H876 H 0.03253 0.54193 0.85828 0.0
H877 H 0.03316 0.56106 0.87596 0.0
H878 H 0.99584 0.55364 0.84837 0.0
H879 H 0.99477 0.5339 0.83171 0.0
H880 H 0.0154 0.51553 0.8582 0.0
H881 H 0.02997 0.54978 0.81204 0.0
H882 H 0.02889 0.56712 0.79308 0.0
H883 H 0.98919 0.53544 0.77159 0.0
H884 H 0.99029 0.51822 0.79057 0.0
H885 H 0.98653 0.48188 0.79558 0.0
H886 H 0.98242 0.46105 0.77835 0.0
H887 H 0.02129 0.46692 0.79832 0.0
H888 H 0.02553 0.48805 0.81513 0.0
H889 H 0.00672 0.50825 0.79168 0.0
H890 H 0.99035 0.47565 0.84115 0.0
H891 H 0.99039 0.45793 0.8605 0.0
H892 H 0.03313 0.486 0.87464 0.0
H893 H 0.03302 0.5037 0.85531 0.0
C894 C 0.0137 0.53653 0.84348 0.0
C895 C 0.02447 0.54441 0.85605 0.0
C896 C 0.0249 0.55549 0.86602 0.0
C897 C 0.01459 0.55901 0.86358 0.0
C898 C 0.00388 0.55117 0.85081 0.0
C899 C 0.00337 0.53998 0.84103 0.0
C900 C 0.01292 0.52432 0.83356 0.0
C901 C 0.01375 0.5141 0.8436 0.0
C902 C 0.01054 0.52223 0.81454 0.0
C903 C 0.01014 0.53275 0.80286 0.0
C904 C 0.02102 0.5466 0.80328 0.0
C905 C 0.02041 0.55647 0.79242 0.0
C906 C 0.00897 0.55261 0.78083 0.0
C907 C -0.00176 0.53867 0.78016 0.0
C908 C -0.00118 0.52884 0.79107 0.0
C909 C 0.00628 0.48646 0.80674 0.0
C910 C 0.99416 0.47867 0.79627 0.0
C911 C 0.99178 0.46671 0.78653 0.0
C912 C 0.00152 0.46231 0.787 0.0
C913 C 0.01365 0.47011 0.79756 0.0
C914 C 0.01602 0.48209 0.80733 0.0
C915 C 0.00888 0.49945 0.81638 0.0
C916 C 0.0085 0.50981 0.80626 0.0
C917 C 0.01166 0.50168 0.83526 0.0
C918 C 0.0117 0.49092 0.84676 0.0
C919 C -0.00027 0.47795 0.84838 0.0
C920 C -0.00026 0.46789 0.8595 0.0
C921 C 0.01177 0.47062 0.86904 0.0
C922 C 0.02376 0.4836 0.86731 0.0
C923 C 0.02369 0.49372 0.85638 0.0
H924 H 0.45962 0.51962 0.8509 0.0
H925 H 0.44374 0.5002 0.86909 0.0
H926 H 0.45176 0.47218 0.83678 0.0
H927 H 0.46833 0.49179 0.8196 0.0
H928 H 0.4862 0.5297 0.84907 0.0
H929 H 0.44841 0.50892 0.80433 0.0
H930 H 0.43094 0.48902 0.78611 0.0
H931 H 0.46284 0.48435 0.76074 0.0
H932 H 0.48016 0.50421 0.77883 0.0
H933 H 0.51449 0.53685 0.78426 0.0
H934 H 0.53535 0.55434 0.77 0.0
H935 H 0.53014 0.58711 0.79429 0.0
H936 H 0.50915 0.56948 0.80862 0.0
H937 H 0.48793 0.53071 0.78193 0.0
H938 H 0.5248 0.5478 0.82496 0.0
H939 H 0.5438 0.56407 0.84474 0.0
H940 H 0.51584 0.57179 0.87582 0.0
H941 H 0.49712 0.55647 0.85486 0.0
C942 C 0.46505 0.50716 0.83373 0.0
C943 C 0.4579 0.50927 0.84771 0.0
C944 C 0.44872 0.49812 0.858 0.0
C945 C 0.44646 0.48459 0.85444 0.0
C946 C 0.45339 0.48247 0.8401 0.0
C947 C 0.46272 0.49366 0.83003 0.0
C948 C 0.47574 0.51922 0.824 0.0
C949 C 0.48639 0.53014 0.83438 0.0
C950 C 0.47625 0.51944 0.80482 0.0
C951 C 0.46559 0.508 0.79304 0.0
C952 C 0.45162 0.50362 0.79478 0.0
C953 C 0.44165 0.49224 0.78439 0.0
C954 C 0.44549 0.48507 0.77198 0.0
C955 C 0.45952 0.48974 0.76995 0.0
C956 C 0.46945 0.50109 0.78033 0.0
C957 C 0.51034 0.55189 0.79752 0.0
C958 C 0.51776 0.54779 0.78637 0.0
C959 C 0.52972 0.55778 0.7784 0.0
C960 C 0.53439 0.57204 0.78124 0.0
C961 C 0.52672 0.57616 0.79193 0.0
C962 C 0.51479 0.56614 0.8001 0.0
C963 C 0.49832 0.54117 0.80703 0.0
C964 C 0.48749 0.5305 0.79662 0.0
C965 C 0.49784 0.54097 0.8262 0.0
C966 C 0.50954 0.55114 0.83808 0.0
C967 C 0.52282 0.55333 0.83567 0.0
C968 C 0.53368 0.56247 0.84729 0.0
C969 C 0.53145 0.5693 0.86203 0.0
C970 C 0.51809 0.567 0.86446 0.0
C971 C 0.5073 0.55809 0.85258 0.0
H972 H 0.61026 0.81219 0.49212 0.0
H973 H 0.61414 0.83139 0.47279 0.0
H974 H 0.64958 0.85954 0.50633 0.0
H975 H 0.64618 0.84011 0.52473 0.0
H976 H 0.62625 0.80131 0.49756 0.0
H977 H 0.60993 0.82612 0.53757 0.0
H978 H 0.61324 0.84669 0.55512 0.0
H979 H 0.64749 0.8481 0.58429 0.0
H980 H 0.64415 0.82772 0.56687 0.0
H981 H 0.64212 0.79518 0.56886 0.0
H982 H 0.64381 0.77804 0.58709 0.0
H983 H 0.60906 0.74485 0.55731 0.0
H984 H 0.60738 0.76221 0.53897 0.0
H985 H 0.62365 0.80209 0.56457 0.0
H986 H 0.64422 0.78244 0.52803 0.0
H987 H 0.64756 0.76556 0.51062 0.0
H988 H 0.61427 0.75859 0.4739 0.0
H989 H 0.61028 0.77464 0.49231 0.0
C990 C 0.62778 0.82473 0.51007 0.0
C991 C 0.61887 0.82251 0.49528 0.0
C992 C 0.62104 0.83355 0.48433 0.0
C993 C 0.63215 0.84708 0.48801 0.0
C994 C 0.64102 0.84926 0.50291 0.0
C995 C 0.63896 0.83818 0.51367 0.0
C996 C 0.62577 0.81283 0.52111 0.0
C997 C 0.62536 0.8013 0.5122 0.0
C998 C 0.62527 0.81316 0.54027 0.0
C999 C 0.62681 0.8254 0.55088 0.0
C1000 C 0.61814 0.83089 0.54775 0.0
C1001 C 0.62004 0.84262 0.55778 0.0
C1002 C 0.63056 0.84895 0.57119 0.0
C1003 C 0.63911 0.84332 0.57434 0.0
C1004 C 0.63725 0.83168 0.56432 0.0
C1005 C 0.62468 0.77997 0.55248 0.0
C1006 C 0.63471 0.78423 0.56641 0.0
C1007 C 0.63562 0.77441 0.5769 0.0
C1008 C 0.62651 0.76009 0.57371 0.0
C1009 C 0.61626 0.75582 0.55999 0.0
C1010 C 0.61531 0.7657 0.5495 0.0
C1011 C 0.62435 0.79066 0.54107 0.0
C1012 C 0.6242 0.8019 0.54989 0.0
C1013 C 0.62508 0.79038 0.52192 0.0
C1014 C 0.62679 0.77964 0.51175 0.0
C1015 C 0.63736 0.77698 0.51655 0.0
C1016 C 0.63943 0.76746 0.50633 0.0
C1017 C 0.63123 0.76066 0.49073 0.0
C1018 C 0.62064 0.76336 0.48598 0.0
C1019 C 0.61842 0.77269 0.49641 0.0
H1020 H 0.17226 0.77474 0.50614 0.0
H1021 H 0.15457 0.7604 0.48347 0.0
H1022 H 0.12641 0.77057 0.5097 0.0
H1023 H 0.14459 0.78594 0.53117 0.0
H1024 H 0.18381 0.80206 0.51121 0.0
H1025 H 0.15575 0.76211 0.55059 0.0
H1026 H 0.13238 0.7465 0.56088 0.0
H1027 H 0.13105 0.78204 0.5835 0.0
H1028 H 0.1542 0.79752 0.5731 0.0
H1029 H 0.18869 0.82704 0.58206 0.0
H1030 H 0.20629 0.84739 0.59918 0.0
H1031 H 0.23776 0.8418 0.57421 0.0
H1032 H 0.22005 0.82137 0.55708 0.0
H1033 H 0.17943 0.80066 0.57806 0.0
H1034 H 0.20077 0.83942 0.5421 0.0
H1035 H 0.21685 0.85929 0.52497 0.0
H1036 H 0.22542 0.83209 0.49175 0.0
H1037 H 0.21012 0.8124 0.51 0.0
C1038 C 0.15973 0.78124 0.52063 0.0
C1039 C 0.16225 0.77385 0.50701 0.0
C1040 C 0.15202 0.7655 0.49413 0.0
C1041 C 0.13892 0.76417 0.49469 0.0
C1042 C 0.13637 0.77142 0.50858 0.0
C1043 C 0.14672 0.78004 0.52118 0.0
C1044 C 0.17104 0.79096 0.53334 0.0
C1045 C 0.18307 0.80149 0.52586 0.0
C1046 C 0.16969 0.79074 0.55241 0.0
C1047 C 0.15664 0.78097 0.56096 0.0
C1048 C 0.15047 0.76647 0.55801 0.0
C1049 C 0.13717 0.75759 0.56389 0.0
C1050 C 0.12988 0.76312 0.5727 0.0
C1051 C 0.13637 0.77755 0.57645 0.0
C1052 C 0.14964 0.78637 0.5707 0.0
C1053 C 0.20304 0.82276 0.56811 0.0
C1054 C 0.19935 0.82998 0.58058 0.0
C1055 C 0.20944 0.84163 0.59039 0.0
C1056 C 0.22343 0.84629 0.58795 0.0
C1057 C 0.22707 0.8386 0.57618 0.0
C1058 C 0.21697 0.82691 0.56641 0.0
C1059 C 0.19238 0.81166 0.5559 0.0
C1060 C 0.18049 0.8009 0.56345 0.0
C1061 C 0.19352 0.81212 0.53678 0.0
C1062 C 0.20439 0.82441 0.52757 0.0
C1063 C 0.20648 0.83779 0.53157 0.0
C1064 C 0.2155 0.84913 0.52149 0.0
C1065 C 0.22233 0.8473 0.50678 0.0
C1066 C 0.22049 0.83395 0.50309 0.0
C1067 C 0.21165 0.82264 0.51343 0.0
H1068 H 0.1475 0.34938 0.51142 0.0
H1069 H 0.12795 0.34674 0.49334 0.0
H1070 H 0.13479 0.38623 0.51523 0.0
H1071 H 0.15441 0.38877 0.53349 0.0
H1072 H 0.17508 0.37261 0.50871 0.0
H1073 H 0.14036 0.34756 0.55298 0.0
H1074 H 0.12013 0.34432 0.56884 0.0
H1075 H 0.14377 0.38604 0.59237 0.0
H1076 H 0.16409 0.38907 0.57661 0.0
H1077 H 0.20574 0.38736 0.57846 0.0
H1078 H 0.2235 0.38361 0.59253 0.0
H1079 H 0.21032 0.34704 0.55775 0.0
H1080 H 0.19271 0.35078 0.54393 0.0
H1081 H 0.17717 0.37051 0.57581 0.0
H1082 H 0.21417 0.39249 0.53266 0.0
H1083 H 0.23217 0.39343 0.51326 0.0
H1084 H 0.20214 0.3552 0.48562 0.0
H1085 H 0.18424 0.35435 0.50488 0.0
C1086 C 0.15239 0.36928 0.52368 0.0
C1087 C 0.1447 0.3574 0.51246 0.0
C1088 C 0.13347 0.35585 0.50227 0.0
C1089 C 0.12984 0.36626 0.50294 0.0
C1090 C 0.13741 0.37807 0.51446 0.0
C1091 C 0.14856 0.37952 0.52488 0.0
C1092 C 0.1647 0.37105 0.53355 0.0
C1093 C 0.1756 0.37224 0.52339 0.0
C1094 C 0.16542 0.3708 0.55265 0.0
C1095 C 0.15364 0.36857 0.56358 0.0
C1096 C 0.14118 0.35596 0.56167 0.0
C1097 C 0.12962 0.35418 0.57062 0.0
C1098 C 0.13029 0.365 0.58168 0.0
C1099 C 0.14293 0.37749 0.58403 0.0
C1100 C 0.15454 0.37925 0.57505 0.0
C1101 C 0.19809 0.36952 0.5599 0.0
C1102 C 0.2067 0.37854 0.57393 0.0
C1103 C 0.21682 0.37638 0.58195 0.0
C1104 C 0.21844 0.36514 0.57607 0.0
C1105 C 0.20958 0.35598 0.56228 0.0
C1106 C 0.19948 0.3581 0.55438 0.0
C1107 C 0.18753 0.37178 0.55089 0.0
C1108 C 0.17693 0.37137 0.5612 0.0
C1109 C 0.18699 0.37262 0.5318 0.0
C1110 C 0.19792 0.37333 0.52019 0.0
C1111 C 0.21151 0.38434 0.52241 0.0
C1112 C 0.22173 0.38491 0.5113 0.0
C1113 C 0.21849 0.37437 0.49803 0.0
C1114 C 0.20489 0.36339 0.49586 0.0
C1115 C 0.19467 0.36293 0.50676 0.0
C1116 C -0.00209 0.36306 0.04394 0.0
C1117 C 0.98679 0.35381 0.03257 0.0
C1118 C 0.99589 0.36985 0.05876 0.0
C1119 C 0.97063 0.37971 0.07474 0.0
H1120 H 0.99512 0.39363 0.11701 0.0
C1121 C 0.97384 0.42374 0.12071 0.0
C1122 C 0.97676 0.42402 0.13933 0.0
C1123 C 0.9743 0.41396 0.10896 0.0
C1124 C 0.98803 0.38967 0.10546 0.0
H1125 H 0.96472 0.34358 0.02858 0.0
H1126 H 0.96106 0.35477 0.05493 0.0
H1127 H 0.99689 0.3778 0.09538 0.0
H1128 H 0.98218 0.41414 0.16035 0.0
H1129 H 0.98251 0.39667 0.13995 0.0
H1130 H 0.96143 0.39112 0.08509 0.0
C1131 C 0.97145 0.35734 0.05202 0.0
C1132 C 0.98919 0.38073 0.09285 0.0
C1133 C 0.97351 0.35079 0.03699 0.0
C1134 C 0.97997 0.41419 0.14602 0.0
C1135 C 0.98023 0.40424 0.13429 0.0
C1136 C 0.96933 0.38845 0.08746 0.0
C1137 C 0.98265 0.36734 0.06276 0.0
C1138 C 0.98067 0.37581 0.07713 0.0
C1139 C 0.97748 0.40404 0.11555 0.0
C1140 C 0.97819 0.3938 0.10281 0.0
H1141 H 0.00829 0.36568 0.04078 0.0
H1142 H 0.00482 0.37757 0.0665 0.0
H1143 H 0.96398 0.37638 0.06274 0.0
H1144 H 0.97156 0.43135 0.11514 0.0
H1145 H 0.97245 0.41442 0.09461 0.0
C1146 C 0.6194 0.61675 0.0706 0.0
C1147 C 0.62979 0.61667 0.06038 0.0
C1148 C 0.61079 0.60531 0.08085 0.0
C1149 C 0.59957 0.56797 0.08791 0.0
H1150 H 0.58949 0.57586 0.13491 0.0
C1151 C 0.57437 0.52686 0.14328 0.0
C1152 C 0.56265 0.52603 0.15106 0.0
C1153 C 0.58251 0.53774 0.1319 0.0
C1154 C 0.59216 0.57351 0.12177 0.0
H1155 H 0.63919 0.60444 0.05271 0.0
H1156 H 0.62446 0.58464 0.07107 0.0
H1157 H 0.60365 0.59503 0.11535 0.0
H1158 H 0.55027 0.536 0.15271 0.0
H1159 H 0.56476 0.5552 0.13335 0.0
H1160 H 0.58832 0.54641 0.09474 0.0
C1161 C 0.62272 0.5934 0.07084 0.0
C1162 C 0.60021 0.58447 0.11049 0.0
C1163 C 0.63122 0.60479 0.06037 0.0
C1164 C 0.55937 0.53644 0.1473 0.0
C1165 C 0.56761 0.5474 0.13613 0.0
C1166 C 0.59166 0.55701 0.09933 0.0
C1167 C 0.6125 0.59359 0.08139 0.0
C1168 C 0.60395 0.58185 0.09336 0.0
C1169 C 0.57921 0.54812 0.12827 0.0
C1170 C 0.58783 0.5597 0.11631 0.0
H1171 H 0.61798 0.6257 0.0709 0.0
H1172 H 0.60283 0.60571 0.08847 0.0
H1173 H 0.60208 0.56553 0.07473 0.0
H1174 H 0.57734 0.51917 0.1461 0.0
H1175 H 0.5915 0.53817 0.12615 0.0
C1176 C 0.36948 0.99738 0.04906 0.0
C1177 C 0.37511 0.00894 0.03778 0.0
C1178 C 0.37602 0.99787 0.06552 0.0
C1179 C 0.40047 0.02044 0.10095 0.0
H1180 H 0.41122 0.99229 0.10315 0.0
C1181 C 0.44238 0.02502 0.15136 0.0
C1182 C 0.44198 0.0128 0.15717 0.0
C1183 C 0.43273 0.02432 0.13861 0.0
C1184 C 0.40806 5e-05 0.10311 0.0
H1185 H 0.39153 0.03035 0.03544 0.0
H1186 H 0.40276 0.03127 0.06449 0.0
H1187 H 0.39657 0.99157 0.07819 0.0
H1188 H 0.43056 0.99017 0.15445 0.0
H1189 H 0.41331 0.98894 0.13343 0.0
H1190 H 0.41173 0.02883 0.12601 0.0
C1191 C 0.39337 0.02182 0.06043 0.0
C1192 C 0.39972 -0.00035 0.08868 0.0
C1193 C 0.38698 0.02126 0.04379 0.0
C1194 C 0.43122 -0.00016 0.15055 0.0
C1195 C 0.42141 -0.00086 0.13813 0.0
C1196 C 0.40861 0.02069 0.11563 0.0
C1197 C 0.38814 0.01001 0.07118 0.0
C1198 C 0.39601 0.00994 0.08735 0.0
C1199 C 0.42223 0.01136 0.13158 0.0
C1200 C 0.4127 0.0106 0.11677 0.0
H1201 H 0.36037 0.98773 0.04481 0.0
H1202 H 0.37178 0.98866 0.07365 0.0
H1203 H 0.39767 0.02846 0.10021 0.0
H1204 H 0.45028 0.0352 0.15642 0.0
H1205 H 0.43383 0.034 0.13386 0.0
C1206 C 0.36772 0.97098 0.95753 0.0
C1207 C 0.37072 0.98287 0.96806 0.0
C1208 C 0.37809 0.97041 0.94802 0.0
C1209 C 0.41295 0.99433 0.93093 0.0
H1210 H 0.41168 0.95966 0.91765 0.0
C1211 C 0.4564 0.99083 0.8948 0.0
C1212 C 0.45237 0.98436 0.87742 0.0
C1213 C 0.44663 0.98994 0.90696 0.0
C1214 C 0.41211 0.96938 0.92133 0.0
H1215 H 0.38688 0.00298 0.9783 0.0
H1216 H 0.40514 0.00173 0.96269 0.0
H1217 H 0.39467 0.95935 0.93817 0.0
H1218 H 0.43474 0.97167 0.85945 0.0
H1219 H 0.4177 0.96965 0.88116 0.0
H1220 H 0.43069 0.00432 0.91448 0.0
C1221 C 0.39474 0.99312 0.96084 0.0
C1222 C 0.40234 0.96924 0.93296 0.0
C1223 C 0.38432 0.99382 0.96991 0.0
C1224 C 0.43826 0.97661 0.87277 0.0
C1225 C 0.42848 0.97548 0.88512 0.0
C1226 C 0.42286 0.99448 0.91967 0.0
C1227 C 0.39171 0.98161 0.94926 0.0
C1228 C 0.40254 0.98171 0.93778 0.0
C1229 C 0.43263 0.98229 0.90219 0.0
C1230 C 0.42242 0.98201 0.91466 0.0
H1231 H 0.35725 0.96244 0.95588 0.0
H1232 H 0.37527 0.96144 0.93913 0.0
H1233 H 0.41329 0.00411 0.93385 0.0
H1234 H 0.4671 0.99658 0.8991 0.0
H1235 H 0.45 0.9952 0.92015 0.0
C1236 C 0.02097 0.3879 0.96952 0.0
C1237 C 0.01156 0.37394 0.9646 0.0
C1238 C 0.02079 0.39876 0.96041 0.0
C1239 C -0.00095 0.40622 0.92927 0.0
H1240 H 0.03374 0.43909 0.91908 0.0
C1241 C 0.00134 0.45307 0.8933 0.0
C1242 C 0.01179 0.45997 0.88083 0.0
C1243 C 0.00138 0.44304 0.90447 0.0
C1244 C 0.02396 0.42993 0.92165 0.0
H1245 H 0.99463 0.36039 0.94625 0.0
H1246 H 0.99455 0.37923 0.93005 0.0
H1247 H 0.03356 0.42061 0.93651 0.0
H1248 H 0.03035 0.46171 0.87003 0.0
H1249 H 0.03023 0.44392 0.88908 0.0
H1250 H 0.98948 0.4152 0.91365 0.0
C1251 C 0.00184 0.38188 0.94124 0.0
C1252 C 0.02384 0.41941 0.93192 0.0
C1253 C 0.00193 0.37105 0.95047 0.0
C1254 C 0.02226 0.45664 0.87968 0.0
C1255 C 0.02221 0.4465 0.89068 0.0
C1256 C -0.00082 0.41666 0.91884 0.0
C1257 C 0.01129 0.39588 0.94604 0.0
C1258 C 0.01139 0.40737 0.93578 0.0
C1259 C 0.01178 0.43957 0.90324 0.0
C1260 C 0.01164 0.42863 0.9148 0.0
H1261 H 0.02847 0.39044 0.98043 0.0
H1262 H 0.02807 0.4094 0.96468 0.0
H1263 H 0.98925 0.39722 0.93219 0.0
H1264 H 0.99325 0.45557 0.8946 0.0
H1265 H 0.99332 0.43813 0.91419 0.0
C1266 C 0.60712 0.63814 0.98912 0.0
C1267 C 0.61883 0.63699 0.99255 0.0
C1268 C 0.59922 0.63237 0.97318 0.0
C1269 C 0.58872 0.60343 0.94155 0.0
H1270 H 0.57627 0.6228 0.91025 0.0
C1271 C 0.55315 0.57514 0.87955 0.0
C1272 C 0.54286 0.57835 0.87517 0.0
C1273 C 0.56355 0.58327 0.89234 0.0
C1274 C 0.57948 0.61716 0.91897 0.0
H1275 H 0.63161 0.6292 0.98174 0.0
H1276 H 0.61755 0.6188 0.95406 0.0
H1277 H 0.59241 0.6355 0.93541 0.0
H1278 H 0.53584 0.59305 0.88063 0.0
H1279 H 0.55337 0.60662 0.90369 0.0
H1280 H 0.57536 0.58494 0.926 0.0
C1281 C 0.61462 0.62429 0.96368 0.0
C1282 C 0.58881 0.62449 0.93328 0.0
C1283 C 0.62268 0.63029 0.97946 0.0
C1284 C 0.54339 0.59004 0.88383 0.0
C1285 C 0.55365 0.59803 0.89689 0.0
C1286 C 0.57921 0.59604 0.92749 0.0
C1287 C 0.60273 0.62513 0.96052 0.0
C1288 C 0.59348 0.61767 0.94472 0.0
C1289 C 0.56384 0.5947 0.90143 0.0
C1290 C 0.5744 0.60277 0.91601 0.0
H1291 H 0.60392 0.64329 0.99892 0.0
H1292 H 0.59005 0.63309 0.97109 0.0
H1293 H 0.59201 0.59789 0.95036 0.0
H1294 H 0.55306 0.56614 0.87343 0.0
H1295 H 0.57133 0.5805 0.89514 0.0
C1296 C 0.02472 0.64398 0.98026 0.0
C1297 C 0.01198 0.64226 0.98517 0.0
C1298 C 0.02582 0.63727 0.96468 0.0
C1299 C 0.00648 0.61602 0.92308 0.0
H1300 H 0.03086 0.60105 0.92905 0.0
C1301 C 0.00244 0.56924 0.88102 0.0
C1302 C 0.01475 0.57044 0.87481 0.0
C1303 C 0.00265 0.57957 0.89244 0.0
C1304 C 0.02413 0.60531 0.92708 0.0
H1305 H 0.99047 0.63262 0.97725 0.0
H1306 H 0.99221 0.62042 0.95047 0.0
H1307 H 0.03026 0.61635 0.95259 0.0
H1308 H 0.03691 0.5839 0.87521 0.0
H1309 H 0.03723 0.60164 0.89564 0.0
H1310 H -0.0001 0.60423 0.89786 0.0
C1311 C 0.00148 0.62724 0.95831 0.0
C1312 C 0.02383 0.61417 0.94054 0.0
C1313 C 0.00045 0.63421 0.97373 0.0
C1314 C 0.02724 0.58243 0.88001 0.0
C1315 C 0.02744 0.59265 0.89163 0.0
C1316 C 0.00664 0.60695 0.90972 0.0
C1317 C 0.01413 0.62839 0.95384 0.0
C1318 C 0.01495 0.61962 0.93881 0.0
C1319 C 0.01516 0.59125 0.89811 0.0
C1320 C 0.01543 0.60147 0.91164 0.0
H1321 H 0.03382 0.65027 0.98871 0.0
H1322 H 0.03581 0.63879 0.96141 0.0
H1323 H -0.00033 0.62015 0.92109 0.0
H1324 H 0.99263 0.56009 0.87758 0.0
H1325 H 0.99303 0.57815 0.8974 0.0
C1326 C 0.38159 0.38315 0.94822 0.0
C1327 C 0.37093 0.38298 0.95808 0.0
C1328 C 0.38998 0.39453 0.93774 0.0
C1329 C 0.40007 0.4314 0.92937 0.0
H1330 H 0.41097 0.42326 0.88312 0.0
C1331 C 0.42539 0.47187 0.8732 0.0
C1332 C 0.43739 0.47288 0.86613 0.0
C1333 C 0.41717 0.46107 0.88464 0.0
C1334 C 0.40805 0.42568 0.89604 0.0
H1335 H 0.36085 0.3947 0.96491 0.0
H1336 H 0.37521 0.41438 0.94615 0.0
H1337 H 0.39699 0.40426 0.903 0.0
H1338 H 0.4502 0.46334 0.86586 0.0
H1339 H 0.43558 0.44429 0.88529 0.0
H1340 H 0.41093 0.45286 0.922 0.0
C1341 C 0.37731 0.40587 0.94683 0.0
C1342 C 0.40011 0.41482 0.90751 0.0
C1343 C 0.36903 0.39456 0.95753 0.0
C1344 C 0.44088 0.46275 0.87067 0.0
C1345 C 0.43257 0.45187 0.8819 0.0
C1346 C 0.40787 0.44226 0.91776 0.0
C1347 C 0.38779 0.40591 0.93661 0.0
C1348 C 0.39612 0.41754 0.92439 0.0
C1349 C 0.42068 0.45097 0.88904 0.0
C1350 C 0.41201 0.43948 0.90107 0.0
H1351 H 0.38338 0.37444 0.94838 0.0
H1352 H 0.39815 0.39433 0.93041 0.0
H1353 H 0.39735 0.43392 0.94235 0.0
H1354 H 0.42228 0.47935 0.86978 0.0
H1355 H 0.40796 0.4605 0.88986 0.0
C1356 C 0.6112 0.97697 0.98288 0.0
C1357 C 0.62339 0.98945 0.9874 0.0
C1358 C 0.60407 0.97552 0.96658 0.0
C1359 C 0.60665 0.99189 0.9219 0.0
H1360 H 0.56712 0.97398 0.92564 0.0
C1361 C 0.57112 -0.00035 0.87178 0.0
C1362 C 0.55834 0.98794 0.86703 0.0
C1363 C 0.57984 -0.00132 0.88461 0.0
C1364 C 0.57813 0.97883 0.92428 0.0
H1365 H 0.63789 0.01003 0.97802 0.0
H1366 H 0.62527 0.00766 0.94988 0.0
H1367 H 0.5809 0.97434 0.9515 0.0
H1368 H 0.54484 0.96594 0.87163 0.0
H1369 H 0.56009 0.96425 0.89399 0.0
H1370 H 0.60377 0.99684 0.89479 0.0
C1371 C 0.62133 -0.00114 0.95872 0.0
C1372 C 0.58606 0.97901 0.9391 0.0
C1373 C 0.62855 0.00025 0.97494 0.0
C1374 C 0.55467 0.97512 0.8749 0.0
C1375 C 0.56334 0.97418 0.88782 0.0
C1376 C 0.5987 0.99182 0.90709 0.0
C1377 C 0.60885 0.98657 0.95449 0.0
C1378 C 0.60044 0.98563 0.93818 0.0
C1379 C 0.5759 0.98601 0.89305 0.0
C1380 C 0.58436 0.98537 0.90819 0.0
H1381 H 0.60703 0.96838 0.99208 0.0
H1382 H 0.59467 0.96578 0.96359 0.0
H1383 H 0.61767 0.99691 0.92059 0.0
H1384 H 0.57426 0.00963 0.86583 0.0
H1385 H 0.58942 0.00799 0.88845 0.0
C1386 C 0.62564 0.02565 0.05497 0.0
C1387 C 0.62912 0.01538 0.05853 0.0
C1388 C 0.61509 0.02597 0.06441 0.0
C1389 C 0.58539 0.004 0.0932 0.0
H1390 H 0.59025 0.03945 0.11081 0.0
C1391 C 0.55541 0.00875 0.1525 0.0
C1392 C 0.54893 0.01662 0.14966 0.0
C1393 C 0.56469 0.0089 0.14005 0.0
C1394 C 0.58873 0.0295 0.10581 0.0
H1395 H 0.62448 0.99758 0.07495 0.0
H1396 H 0.60648 -0.00167 0.09157 0.0
H1397 H 0.60731 0.03907 0.09099 0.0
H1398 H 0.54727 0.03092 0.13144 0.0
H1399 H 0.5639 0.03152 0.11004 0.0
H1400 H 0.56711 0.99445 0.10864 0.0
C1401 C 0.61151 0.00589 0.08117 0.0
C1402 C 0.59843 0.02927 0.0944 0.0
C1403 C 0.62191 0.0055 0.07168 0.0
C1404 C 0.55221 0.0249 0.13423 0.0
C1405 C 0.56167 0.0252 0.12191 0.0
C1406 C 0.57582 0.00424 0.10476 0.0
C1407 C 0.60792 0.01609 0.07764 0.0
C1408 C 0.597 0.01649 0.08824 0.0
C1409 C 0.56785 0.01708 0.12463 0.0
C1410 C 0.57752 0.01697 0.11139 0.0
H1411 H 0.63103 0.03339 0.04488 0.0
H1412 H 0.61251 0.0339 0.06126 0.0
H1413 H 0.58376 0.99399 0.08833 0.0
H1414 H 0.55338 0.00251 0.16441 0.0
H1415 H 0.5695 0.00271 0.14256 0.0
C1416 C 0.99675 0.62127 0.0602 0.0
C1417 C 0.98545 0.62189 0.05303 0.0
C1418 C 0.99492 0.60925 0.06843 0.0
C1419 C 0.97067 0.58001 0.09395 0.0
H1420 H 0.99331 0.56391 0.08188 0.0
C1421 C 0.96599 0.53251 0.13135 0.0
C1422 C 0.97824 0.53247 0.13519 0.0
C1423 C 0.96591 0.54237 0.11988 0.0
C1424 C 0.98701 0.56837 0.08559 0.0
H1425 H 0.96333 0.61034 0.04893 0.0
H1426 H 0.9601 0.58938 0.06384 0.0
H1427 H 0.99499 0.58313 0.0644 0.0
H1428 H -2e-05 0.54267 0.12957 0.0
H1429 H -2e-05 0.56022 0.11048 0.0
H1430 H 0.96315 0.5658 0.11568 0.0
C1431 C 0.97039 0.59821 0.06282 0.0
C1432 C 0.98792 0.5793 0.07547 0.0
C1433 C 0.97225 0.61017 0.05425 0.0
C1434 C 0.99038 0.5425 0.12721 0.0
C1435 C 0.99034 0.55245 0.11594 0.0
C1436 C 0.96991 0.56921 0.10427 0.0
C1437 C 0.98172 0.59767 0.06999 0.0
C1438 C 0.97988 0.58532 0.07969 0.0
C1439 C 0.9781 0.55252 0.1121 0.0
C1440 C 0.97821 0.56337 0.10038 0.0
H1441 H 0.00704 0.63006 0.0596 0.0
H1442 H 0.00381 0.60914 0.07403 0.0
H1443 H 0.96446 0.58459 0.09757 0.0
H1444 H 0.95646 0.52505 0.13739 0.0
H1445 H 0.95626 0.54198 0.11708 0.0
C1446 C 0.394 0.36253 0.03049 0.0
C1447 C 0.38224 0.36351 0.02681 0.0
C1448 C 0.40156 0.36808 0.04672 0.0
C1449 C 0.411 0.39613 0.07957 0.0
H1450 H 0.42334 0.37619 0.10996 0.0
C1451 C 0.4465 0.42334 0.14208 0.0
C1452 C 0.45696 0.42023 0.1457 0.0
C1453 C 0.43595 0.41533 0.1294 0.0
C1454 C 0.42014 0.38199 0.10153 0.0
H1455 H 0.36904 0.37086 0.03741 0.0
H1456 H 0.38251 0.3809 0.06561 0.0
H1457 H 0.4076 0.36404 0.08427 0.0
H1458 H 0.46406 0.40575 0.13919 0.0
H1459 H 0.44625 0.39238 0.1164 0.0
H1460 H 0.42401 0.41426 0.09597 0.0
C1461 C 0.38575 0.3757 0.05596 0.0
C1462 C 0.41105 0.37498 0.08689 0.0
C1463 C 0.37803 0.3699 0.03988 0.0
C1464 C 0.45638 0.40868 0.13655 0.0
C1465 C 0.44597 0.40081 0.12364 0.0
C1466 C 0.42028 0.40322 0.09398 0.0
C1467 C 0.39765 0.37494 0.05943 0.0
C1468 C 0.40648 0.38202 0.07572 0.0
C1469 C 0.43567 0.40411 0.11973 0.0
C1470 C 0.42509 0.39629 0.10508 0.0
H1471 H 0.39747 0.35762 0.02072 0.0
H1472 H 0.41075 0.36744 0.04903 0.0
H1473 H 0.40776 0.40184 0.07099 0.0
H1474 H 0.44661 0.43222 0.14866 0.0
H1475 H 0.42808 0.41805 0.12707 0.0
C1476 C 0.64081 0.69158 0.36867 0.0
C1477 C 0.65369 0.69296 0.36531 0.0
C1478 C 0.63866 0.69709 0.38467 0.0
C1479 C 0.65694 0.72579 0.41699 0.0
H1480 H 0.6245 0.70652 0.4459 0.0
C1481 C 0.64762 0.75423 0.47651 0.0
C1482 C 0.63407 0.7513 0.47901 0.0
C1483 C 0.65037 0.74594 0.46474 0.0
C1484 C 0.63354 0.71212 0.43787 0.0
H1485 H 0.6743 0.70086 0.37636 0.0
H1486 H 0.67061 0.7108 0.40422 0.0
H1487 H 0.62851 0.69386 0.42153 0.0
H1488 H 0.61275 0.73687 0.47145 0.0
H1489 H 0.61758 0.72296 0.45025 0.0
H1490 H 0.66169 0.74421 0.43246 0.0
C1491 C 0.66217 0.70534 0.39446 0.0
C1492 C 0.63587 0.70482 0.424 0.0
C1493 C 0.66426 0.69958 0.37858 0.0
C1494 C 0.62334 0.73965 0.46967 0.0
C1495 C 0.62611 0.73149 0.45769 0.0
C1496 C 0.65452 0.73315 0.43065 0.0
C1497 C 0.64941 0.70431 0.39752 0.0
C1498 C 0.64753 0.71162 0.41332 0.0
C1499 C 0.63968 0.7346 0.45489 0.0
C1500 C 0.6427 0.72647 0.44117 0.0
H1501 H 0.63245 0.68648 0.35874 0.0
H1502 H 0.62876 0.69624 0.38662 0.0
H1503 H 0.66591 0.73134 0.40878 0.0
H1504 H 0.65622 0.76317 0.48324 0.0
H1505 H 0.66094 0.74854 0.46327 0.0
C1506 C 0.27903 0.94762 0.40879 0.0
C1507 C 0.28937 0.94804 0.39797 0.0
C1508 C 0.27141 0.93628 0.41976 0.0
C1509 C 0.26318 0.89993 0.42847 0.0
H1510 H 0.25433 0.90839 0.47597 0.0
C1511 C 0.24248 0.86053 0.4866 0.0
C1512 C 0.23058 0.85905 0.49467 0.0
C1513 C 0.24979 0.87124 0.47459 0.0
C1514 C 0.2567 0.90589 0.46272 0.0
H1515 H 0.29965 0.93676 0.38981 0.0
H1516 H 0.28668 0.9172 0.40936 0.0
H1517 H 0.26648 0.92712 0.45493 0.0
H1518 H 0.21701 0.86768 0.49611 0.0
H1519 H 0.23007 0.8866 0.47576 0.0
H1520 H 0.25364 0.87868 0.43665 0.0
C1521 C 0.2842 0.92545 0.40911 0.0
C1522 C 0.26356 0.91658 0.45059 0.0
C1523 C 0.29169 0.93671 0.39794 0.0
C1524 C 0.2263 0.86866 0.49057 0.0
C1525 C 0.23371 0.87946 0.4788 0.0
C1526 C 0.25647 0.88925 0.44073 0.0
C1527 C 0.27411 0.9252 0.42038 0.0
C1528 C 0.2668 0.91373 0.43324 0.0
C1529 C 0.24547 0.8808 0.47062 0.0
C1530 C 0.25308 0.89214 0.4579 0.0
H1531 H 0.27692 0.95612 0.40905 0.0
H1532 H 0.26348 0.93629 0.42789 0.0
H1533 H 0.26534 0.8973 0.41516 0.0
H1534 H 0.24619 0.85345 0.48961 0.0
H1535 H 0.25891 0.87216 0.46855 0.0
C1536 C 0.06307 0.35395 0.36608 0.0
C1537 C 0.05077 0.34111 0.36415 0.0
C1538 C 0.07052 0.35793 0.3825 0.0
C1539 C 0.06864 0.34928 0.43145 0.0
H1540 H 0.10824 0.36813 0.42791 0.0
C1541 C 0.10648 0.35252 0.48808 0.0
C1542 C 0.11891 0.36519 0.49045 0.0
C1543 C 0.09708 0.35084 0.4743 0.0
C1544 C 0.0972 0.36306 0.42915 0.0
H1545 H 0.03652 0.32248 0.37804 0.0
H1546 H 0.04982 0.32915 0.40656 0.0
H1547 H 0.09405 0.36248 0.40051 0.0
H1548 H 0.13099 0.38622 0.48087 0.0
H1549 H 0.11457 0.38326 0.45672 0.0
H1550 H 0.07198 0.34935 0.4602 0.0
C1551 C 0.05354 0.33633 0.39552 0.0
C1552 C 0.08903 0.35983 0.41342 0.0
C1553 C 0.04595 0.33245 0.37913 0.0
C1554 C 0.12145 0.37637 0.47942 0.0
C1555 C 0.11212 0.37465 0.46552 0.0
C1556 C 0.07685 0.35236 0.44721 0.0
C1557 C 0.06602 0.34907 0.39735 0.0
C1558 C 0.07463 0.35286 0.41432 0.0
C1559 C 0.10002 0.36175 0.46253 0.0
C1560 C 0.09121 0.35925 0.44618 0.0
H1561 H 0.06694 0.36097 0.35487 0.0
H1562 H 0.07987 0.36797 0.3835 0.0
H1563 H 0.05761 0.34409 0.43272 0.0
H1564 H 0.10425 0.34376 0.4965 0.0
H1565 H 0.08786 0.34077 0.47225 0.0
C1566 C 0.03081 0.28872 0.29857 0.0
C1567 C 0.03377 0.30258 0.29721 0.0
C1568 C 0.03709 0.28345 0.28716 0.0
C1569 C 0.05457 0.29049 0.24329 0.0
H1570 H 0.06834 0.26691 0.26068 0.0
C1571 C 0.09839 0.27706 0.22257 0.0
C1572 C 0.09659 0.2761 0.20359 0.0
C1573 C 0.08846 0.27699 0.23369 0.0
C1574 C 0.06453 0.27347 0.25561 0.0
H1575 H 0.04597 0.3219 0.28326 0.0
H1576 H 0.05717 0.31292 0.26392 0.0
H1577 H 0.05618 0.27422 0.28125 0.0
H1578 H 0.08248 0.27329 0.18144 0.0
H1579 H 0.06488 0.27275 0.20091 0.0
H1580 H 0.06354 0.29046 0.21802 0.0
C1581 C 0.04974 0.30597 0.2734 0.0
C1582 C 0.05746 0.27755 0.26736 0.0
C1583 C 0.04344 0.31118 0.28468 0.0
C1584 C 0.08418 0.27407 0.19602 0.0
C1585 C 0.07417 0.27391 0.20717 0.0
C1586 C 0.0617 0.28649 0.23161 0.0
C1587 C 0.04644 0.29197 0.27423 0.0
C1588 C 0.05272 0.28641 0.26144 0.0
C1589 C 0.0764 0.27584 0.2261 0.0
C1590 C 0.06705 0.27821 0.23774 0.0
H1591 H 0.02336 0.28181 0.30805 0.0
H1592 H 0.03431 0.27261 0.2881 0.0
H1593 H 0.05077 0.29706 0.23818 0.0
H1594 H 0.10773 0.27834 0.22883 0.0
H1595 H 0.0906 0.2786 0.24817 0.0
C1596 C 0.6731 0.71521 0.28818 0.0
C1597 C 0.68376 0.71495 0.29793 0.0
C1598 C 0.6756 0.72691 0.27848 0.0
C1599 C 0.70132 0.76438 0.27224 0.0
H1600 H 0.68209 0.7575 0.22578 0.0
C1601 C 0.71584 0.80636 0.2179 0.0
C1602 C 0.7049 0.80734 0.21007 0.0
C1603 C 0.71332 0.7954 0.22925 0.0
C1604 C 0.68745 0.75958 0.23879 0.0
H1605 H 0.70543 0.72689 0.30534 0.0
H1606 H 0.70992 0.74715 0.28794 0.0
H1607 H 0.67765 0.73793 0.24455 0.0
H1608 H 0.68269 0.79764 0.20846 0.0
H1609 H 0.67834 0.77835 0.22779 0.0
H1610 H 0.71141 0.78607 0.26604 0.0
C1611 C 0.69952 0.73844 0.28812 0.0
C1612 C 0.68487 0.74838 0.24963 0.0
C1613 C 0.69696 0.72678 0.29804 0.0
C1614 C 0.69138 0.79708 0.21389 0.0
C1615 C 0.68886 0.78606 0.22505 0.0
C1616 C 0.70403 0.77558 0.26127 0.0
C1617 C 0.6889 0.73859 0.27801 0.0
C1618 C 0.69171 0.75061 0.26655 0.0
C1619 C 0.6998 0.78511 0.23284 0.0
C1620 C 0.69707 0.77328 0.24447 0.0
H1621 H 0.66281 0.70632 0.28781 0.0
H1622 H 0.66709 0.72674 0.27123 0.0
H1623 H 0.70664 0.76654 0.28528 0.0
H1624 H 0.72638 0.81392 0.21505 0.0
H1625 H 0.72193 0.79483 0.23493 0.0
C1626 C 0.27849 0.96276 0.31847 0.0
C1627 C 0.27606 0.97024 0.33208 0.0
C1628 C 0.27001 0.95774 0.30285 0.0
C1629 C 0.23532 0.94974 0.28628 0.0
H1630 H 0.24793 0.94317 0.24051 0.0
C1631 C 0.19695 0.91503 0.23001 0.0
C1632 C 0.20041 0.91803 0.2118 0.0
C1633 C 0.20663 0.92227 0.24393 0.0
C1634 C 0.24424 0.94511 0.25309 0.0
H1635 H 0.26346 0.97913 0.33954 0.0
H1636 H 0.24918 0.97112 0.31198 0.0
H1637 H 0.26435 0.95517 0.26543 0.0
H1638 H 0.21664 0.93098 0.19377 0.0
H1639 H 0.23351 0.94414 0.21812 0.0
H1640 H 0.21536 0.94032 0.27378 0.0
C1641 C 0.25718 0.96849 0.31361 0.0
C1642 C 0.25366 0.95181 0.26754 0.0
C1643 C 0.26544 0.97321 0.32938 0.0
C1644 C 0.21376 0.92847 0.20774 0.0
C1645 C 0.22342 0.93592 0.22171 0.0
C1646 C 0.22598 0.94329 0.27177 0.0
C1647 C 0.25909 0.96036 0.30032 0.0
C1648 C 0.2493 0.95405 0.28444 0.0
C1649 C 0.21999 0.9329 0.24002 0.0
C1650 C 0.23023 0.94064 0.25506 0.0
H1651 H 0.28657 0.96025 0.32024 0.0
H1652 H 0.27175 0.95138 0.29314 0.0
H1653 H 0.23143 0.95102 0.29908 0.0
H1654 H 0.18679 0.90685 0.23348 0.0
H1655 H 0.20366 0.91932 0.25775 0.0
C1656 C 0.69464 0.97146 0.31673 0.0
C1657 C 0.68161 0.96979 0.31975 0.0
C1658 C 0.69708 0.96597 0.30094 0.0
C1659 C 0.67975 0.93727 0.26832 0.0
H1660 H 0.7123 0.95763 0.2399 0.0
C1661 C 0.69065 0.91032 0.2085 0.0
C1662 C 0.70435 0.91367 0.20623 0.0
C1663 C 0.68748 0.91824 0.22034 0.0
C1664 C 0.70323 0.95172 0.24779 0.0
H1665 H 0.66099 0.96132 0.30837 0.0
H1666 H 0.66523 0.95142 0.28088 0.0
H1667 H 0.7076 0.96969 0.26434 0.0
H1668 H 0.72548 0.92843 0.21427 0.0
H1669 H 0.71993 0.94171 0.23559 0.0
H1670 H 0.67566 0.91915 0.25261 0.0
C1671 C 0.67354 0.95709 0.29074 0.0
C1672 C 0.70051 0.95868 0.2617 0.0
C1673 C 0.67115 0.9628 0.30641 0.0
C1674 C 0.71479 0.92535 0.21587 0.0
C1675 C 0.71161 0.93314 0.22792 0.0
C1676 C 0.68257 0.93025 0.25461 0.0
C1677 C 0.6865 0.9585 0.28796 0.0
C1678 C 0.68881 0.95149 0.27221 0.0
C1679 C 0.69789 0.92961 0.23049 0.0
C1680 C 0.69443 0.93734 0.24427 0.0
H1681 H 0.70292 0.97684 0.32672 0.0
H1682 H 0.70713 0.96712 0.29921 0.0
H1683 H 0.67075 0.93143 0.27638 0.0
H1684 H 0.68228 0.90133 0.20152 0.0
H1685 H 0.67681 0.91532 0.22166 0.0
C1686 C 0.04348 0.7212 0.27583 0.0
C1687 C 0.03759 0.72187 0.29221 0.0
C1688 C 0.05024 0.73295 0.26528 0.0
C1689 C 0.06899 0.77067 0.26652 0.0
H1690 H 0.05802 0.76679 0.21567 0.0
C1691 C 0.09441 0.81717 0.21886 0.0
C1692 C 0.09719 0.81433 0.20124 0.0
C1693 C 0.08612 0.80631 0.23018 0.0
C1694 C 0.06134 0.76804 0.22978 0.0
H1695 H 0.03451 0.73546 0.31071 0.0
H1696 H 0.04674 0.75622 0.29236 0.0
H1697 H 0.04606 0.74705 0.23538 0.0
H1698 H 0.09296 0.79776 0.18153 0.0
H1699 H 0.07914 0.77889 0.20147 0.0
H1700 H 0.08466 0.79142 0.26088 0.0
C1701 C 0.04594 0.7465 0.28767 0.0
C1702 C 0.05443 0.75675 0.24106 0.0
C1703 C 0.03894 0.73465 0.29811 0.0
C1704 C 0.09124 0.80036 0.19511 0.0
C1705 C 0.08311 0.7895 0.20649 0.0
C1706 C 0.07606 0.78192 0.25518 0.0
C1707 C 0.05144 0.74567 0.27104 0.0
C1708 C 0.05829 0.75792 0.25946 0.0
C1709 C 0.08052 0.79232 0.22423 0.0
C1710 C 0.07243 0.7807 0.2366 0.0
H1711 H 0.04257 0.71149 0.27089 0.0
H1712 H 0.05454 0.73211 0.25259 0.0
H1713 H 0.07219 0.77177 0.28068 0.0
H1714 H 0.09891 0.8278 0.22412 0.0
H1715 H 0.08419 0.80889 0.24364 0.0
C1716 C 0.29007 0.32572 0.30663 0.0
C1717 C 0.28402 0.3208 0.32346 0.0
C1718 C 0.28219 0.3209 0.29049 0.0
C1719 C 0.24847 0.29269 0.27167 0.0
H1720 H 0.25335 0.32002 0.2361 0.0
C1721 C 0.20564 0.28715 0.2234 0.0
C1722 C 0.20876 0.2913 0.20542 0.0
C1723 C 0.21597 0.28899 0.23571 0.0
C1724 C 0.25203 0.31221 0.24573 0.0
H1725 H 0.26492 0.30686 0.33644 0.0
H1726 H 0.25121 0.29877 0.30853 0.0
H1727 H 0.26947 0.32687 0.26187 0.0
H1728 H 0.22494 0.30025 0.18594 0.0
H1729 H 0.24322 0.30377 0.20772 0.0
H1730 H 0.2306 0.27825 0.25596 0.0
C1731 C 0.26209 0.3061 0.30767 0.0
C1732 C 0.26127 0.31612 0.2605 0.0
C1733 C 0.26996 0.31085 0.32374 0.0
C1734 C 0.22233 0.29693 0.19975 0.0
C1735 C 0.23274 0.29899 0.21219 0.0
C1736 C 0.23918 0.28883 0.257 0.0
C1737 C 0.26807 0.31109 0.29084 0.0
C1738 C 0.25938 0.3065 0.27392 0.0
C1739 C 0.22966 0.2952 0.23034 0.0
C1740 C 0.24067 0.29864 0.24415 0.0
H1741 H 0.3009 0.33332 0.30589 0.0
H1742 H 0.28716 0.32486 0.27775 0.0
H1743 H 0.2469 0.28493 0.28149 0.0
H1744 H 0.19523 0.28277 0.22804 0.0
H1745 H 0.21331 0.28611 0.24965 0.0
C1746 C 0.28999 0.34963 0.40266 0.0
C1747 C 0.29807 0.35889 0.38937 0.0
C1748 C 0.28236 0.35301 0.41423 0.0
C1749 C 0.26751 0.3757 0.42059 0.0
H1750 H 0.26673 0.3653 0.4707 0.0
C1751 C 0.23808 0.38654 0.477 0.0
C1752 C 0.22925 0.3746 0.48655 0.0
C1753 C 0.24773 0.38637 0.4654 0.0
C1754 C 0.26687 0.36827 0.45676 0.0
H1755 H 0.30425 0.37888 0.37751 0.0
H1756 H 0.29095 0.3849 0.39803 0.0
H1757 H 0.28114 0.3618 0.4494 0.0
H1758 H 0.22377 0.35332 0.492 0.0
H1759 H 0.2407 0.35306 0.47197 0.0
H1760 H 0.2531 0.38209 0.42812 0.0
C1761 C 0.29046 0.37494 0.39931 0.0
C1762 C 0.27506 0.36622 0.44453 0.0
C1763 C 0.29808 0.3715 0.3876 0.0
C1764 C 0.23042 0.36262 0.48468 0.0
C1765 C 0.24015 0.36251 0.47334 0.0
C1766 C 0.25936 0.37785 0.43291 0.0
C1767 C 0.28273 0.36581 0.41298 0.0
C1768 C 0.27517 0.36952 0.4262 0.0
C1769 C 0.24883 0.37434 0.46349 0.0
C1770 C 0.25871 0.37381 0.45098 0.0
H1771 H 0.28974 0.33985 0.40449 0.0
H1772 H 0.27625 0.34559 0.42431 0.0
H1773 H 0.26736 0.37832 0.40655 0.0
H1774 H 0.23729 0.39588 0.47818 0.0
H1775 H 0.25434 0.39563 0.45799 0.0
C1776 C 0.66345 0.95041 0.39779 0.0
C1777 C 0.65248 0.94986 0.38777 0.0
C1778 C 0.66155 0.93902 0.40777 0.0
C1779 C 0.63721 0.90115 0.41395 0.0
H1780 H 0.65637 0.90873 0.46058 0.0
C1781 C 0.62353 0.85966 0.46854 0.0
C1782 C 0.6346 0.8588 0.47617 0.0
C1783 C 0.62586 0.87057 0.45725 0.0
C1784 C 0.65104 0.90647 0.44752 0.0
H1785 H 0.6309 0.93688 0.38034 0.0
H1786 H 0.62745 0.91723 0.39823 0.0
H1787 H 0.66013 0.92807 0.44171 0.0
H1788 H 0.65685 0.86877 0.47759 0.0
H1789 H 0.66084 0.88804 0.45841 0.0
H1790 H 0.62779 0.87951 0.42021 0.0
C1791 C 0.63764 0.92629 0.39801 0.0
C1792 C 0.65323 0.91754 0.43664 0.0
C1793 C 0.6396 0.93761 0.38782 0.0
C1794 C 0.64806 0.86921 0.47229 0.0
C1795 C 0.65038 0.88022 0.46122 0.0
C1796 C 0.63487 0.89009 0.42498 0.0
C1797 C 0.64857 0.92687 0.40823 0.0
C1798 C 0.64636 0.91503 0.41968 0.0
C1799 C 0.6393 0.88098 0.45356 0.0
C1800 C 0.64178 0.89266 0.44184 0.0
H1801 H 0.6735 0.95965 0.39806 0.0
H1802 H 0.67028 0.93977 0.41515 0.0
H1803 H 0.63192 0.89878 0.40087 0.0
H1804 H 0.61304 0.852 0.47146 0.0
H1805 H 0.61714 0.87102 0.45166 0.0
C1806 C 0.05246 0.71036 0.37114 0.0
C1807 C 0.05605 0.70419 0.35706 0.0
C1808 C 0.06077 0.71572 0.38685 0.0
C1809 C 0.09624 0.72673 0.40417 0.0
H1810 H 0.0811 0.72849 0.45041 0.0
C1811 C 0.12752 0.74384 0.47217 0.0
C1812 C 0.12821 0.75576 0.4804 0.0
C1813 C 0.11814 0.73656 0.45791 0.0
C1814 C 0.08541 0.72802 0.43755 0.0
H1815 H 0.07076 0.69817 0.34868 0.0
H1816 H 0.08482 0.70674 0.3764 0.0
H1817 H 0.06571 0.71709 0.42415 0.0
H1818 H 0.11918 0.76911 0.48001 0.0
H1819 H 0.10239 0.75594 0.45579 0.0
H1820 H 0.11591 0.73729 0.41794 0.0
C1821 C 0.07597 0.70808 0.37511 0.0
C1822 C 0.07665 0.7216 0.42244 0.0
C1823 C 0.06784 0.70304 0.35923 0.0
C1824 C 0.11887 0.75987 0.47437 0.0
C1825 C 0.10928 0.75239 0.46039 0.0
C1826 C 0.10495 0.73284 0.41938 0.0
C1827 C 0.07271 0.71474 0.38904 0.0
C1828 C 0.08194 0.72099 0.40545 0.0
C1829 C 0.10899 0.74083 0.45187 0.0
C1830 C 0.09962 0.73366 0.43612 0.0
H1831 H 0.04347 0.71147 0.36976 0.0
H1832 H 0.05799 0.72096 0.39703 0.0
H1833 H 0.10083 0.72683 0.39134 0.0
H1834 H 0.13427 0.7401 0.47666 0.0
H1835 H 0.118 0.72759 0.45159 0.0
C1836 C 0.33022 0.03585 0.7095 0.0
C1837 C 0.31991 0.02906 0.69594 0.0
C1838 C 0.32778 0.04166 0.72503 0.0
C1839 C 0.3009 0.04077 0.75348 0.0
H1840 H 0.326 0.08033 0.76184 0.0
C1841 C 0.28729 0.07479 0.79917 0.0
C1842 C 0.29789 0.08656 0.8085 0.0
C1843 C 0.29027 0.06684 0.78711 0.0
C1844 C 0.31902 0.06923 0.76006 0.0
H1845 H 0.29876 0.02239 0.68846 0.0
H1846 H 0.29443 0.03224 0.71578 0.0
H1847 H 0.33076 0.06768 0.73845 0.0
H1848 H 0.32003 0.0989 0.81255 0.0
H1849 H 0.32513 0.08462 0.79252 0.0
H1850 H 0.28922 0.04218 0.77518 0.0
C1851 C 0.30442 0.03318 0.7143 0.0
C1852 C 0.32175 0.062 0.74656 0.0
C1853 C 0.30693 0.02762 0.69863 0.0
C1854 C 0.31153 0.08985 0.80586 0.0
C1855 C 0.31449 0.08175 0.79405 0.0
C1856 C 0.29828 0.04794 0.76722 0.0
C1857 C 0.3149 0.04052 0.72745 0.0
C1858 C 0.31262 0.04776 0.74296 0.0
C1859 C 0.30393 0.07028 0.78423 0.0
C1860 C 0.30718 0.06234 0.77051 0.0
H1861 H 0.34034 0.03716 0.70778 0.0
H1862 H 0.33601 0.04723 0.73504 0.0
H1863 H 0.29375 0.02975 0.75103 0.0
H1864 H 0.27664 0.07174 0.80105 0.0
H1865 H 0.28183 0.0582 0.7797 0.0
C1866 C 0.96698 0.26313 0.72119 0.0
C1867 C 0.96277 0.2731 0.7223 0.0
C1868 C 0.9611 0.25146 0.73214 0.0
C1869 C 0.94219 0.23986 0.77484 0.0
H1870 H 0.93449 0.20311 0.7586 0.0
C1871 C 0.91945 0.19484 0.82375 0.0
C1872 C 0.9086 0.18218 0.81671 0.0
C1873 C 0.92795 0.20531 0.8121 0.0
C1874 C 0.93653 0.2133 0.76333 0.0
H1875 H 0.94862 0.27826 0.73519 0.0
H1876 H 0.93805 0.25781 0.7536 0.0
H1877 H 0.94461 0.2224 0.73779 0.0
H1878 H 0.89842 0.17022 0.79211 0.0
H1879 H 0.91294 0.18863 0.77172 0.0
H1880 H 0.93352 0.23078 0.79997 0.0
C1881 C 0.9462 0.25918 0.74475 0.0
C1882 C 0.94247 0.22439 0.75145 0.0
C1883 C 0.95218 0.27087 0.734 0.0
C1884 C 0.9068 0.17988 0.79784 0.0
C1885 C 0.91517 0.19043 0.78617 0.0
C1886 C 0.93617 0.2288 0.78661 0.0
C1887 C 0.95082 0.24951 0.74431 0.0
C1888 C 0.94516 0.23776 0.757 0.0
C1889 C 0.92561 0.20343 0.79318 0.0
C1890 C 0.93312 0.21534 0.78098 0.0
H1891 H 0.97517 0.26458 0.71234 0.0
H1892 H 0.96494 0.24426 0.73151 0.0
H1893 H 0.9444 0.25008 0.77974 0.0
H1894 H 0.92111 0.19677 0.83828 0.0
H1895 H 0.93612 0.21503 0.81798 0.0
C1896 C 0.70986 0.66537 0.70983 0.0
C1897 C 0.71483 0.67479 0.69561 0.0
C1898 C 0.71746 0.66825 0.72609 0.0
C1899 C 0.74549 0.69616 0.75415 0.0
H1900 H 0.75347 0.6673 0.7679 0.0
C1901 C 0.78028 0.70017 0.81636 0.0
C1902 C 0.79078 0.6974 0.81167 0.0
C1903 C 0.76971 0.69748 0.80383 0.0
C1904 C 0.75122 0.6754 0.7643 0.0
H1905 H 0.73132 0.69497 0.68769 0.0
H1906 H 0.7445 0.70003 0.71613 0.0
H1907 H 0.73681 0.6626 0.74332 0.0
H1908 H 0.79864 0.69022 0.78973 0.0
H1909 H 0.78 0.68508 0.76833 0.0
H1910 H 0.7602 0.70904 0.77497 0.0
C1911 C 0.73475 0.6904 0.71466 0.0
C1912 C 0.74164 0.67269 0.75035 0.0
C1913 C 0.72725 0.68744 0.69832 0.0
C1914 C 0.79054 0.69209 0.79408 0.0
C1915 C 0.7799 0.6892 0.78174 0.0
C1916 C 0.75495 0.69881 0.76833 0.0
C1917 C 0.73007 0.68072 0.72855 0.0
C1918 C 0.73891 0.68314 0.74486 0.0
C1919 C 0.76936 0.69179 0.78651 0.0
C1920 C 0.75813 0.68855 0.7732 0.0
H1921 H 0.70031 0.65554 0.7082 0.0
H1922 H 0.7136 0.66065 0.73665 0.0
H1923 H 0.74351 0.70437 0.75022 0.0
H1924 H 0.78007 0.70415 0.8298 0.0
H1925 H 0.76166 0.69956 0.80778 0.0
C1926 C 0.70112 0.62734 0.62741 0.0
C1927 C 0.70226 0.64056 0.6268 0.0
C1928 C 0.7092 0.62409 0.61636 0.0
C1929 C 0.74083 0.64045 0.59021 0.0
H1930 H 0.72303 0.60701 0.55926 0.0
C1931 C 0.76652 0.63589 0.52682 0.0
C1932 C 0.76687 0.62353 0.52393 0.0
C1933 C 0.758 0.6366 0.53978 0.0
C1934 C 0.72816 0.61629 0.56799 0.0
H1935 H 0.71286 0.66071 0.61422 0.0
H1936 H 0.72698 0.65514 0.59537 0.0
H1937 H 0.70992 0.6108 0.58272 0.0
H1938 H 0.75808 0.60198 0.53151 0.0
H1939 H 0.74304 0.60321 0.5543 0.0
H1940 H 0.75896 0.64612 0.57541 0.0
C1941 C 0.71995 0.64732 0.60443 0.0
C1942 C 0.72069 0.61843 0.58142 0.0
C1943 C 0.71182 0.65051 0.61527 0.0
C1944 C 0.75793 0.61161 0.53346 0.0
C1945 C 0.74938 0.61233 0.54651 0.0
C1946 C 0.74826 0.63832 0.57685 0.0
C1947 C 0.71866 0.63406 0.60474 0.0
C1948 C 0.72689 0.63072 0.59233 0.0
C1949 C 0.74967 0.62497 0.55016 0.0
C1950 C 0.74192 0.62642 0.56528 0.0
H1951 H 0.69379 0.61943 0.6361 0.0
H1952 H 0.70805 0.61379 0.61688 0.0
H1953 H 0.74593 0.64989 0.59866 0.0
H1954 H 0.77315 0.64515 0.51942 0.0
H1955 H 0.75816 0.64637 0.54196 0.0
C1956 C 0.3642 0.06176 0.63051 0.0
C1957 C 0.35104 0.04985 0.62995 0.0
C1958 C 0.36675 0.07366 0.62118 0.0
C1959 C 0.35031 0.09214 0.60275 0.0
H1960 H 0.38003 0.10736 0.56885 0.0
C1961 C 0.35561 0.1325 0.55073 0.0
C1962 C 0.36881 0.14281 0.54575 0.0
C1963 C 0.35383 0.12166 0.56178 0.0
C1964 C 0.37185 0.10345 0.57849 0.0
H1965 H 0.3302 0.04121 0.61931 0.0
H1966 H 0.33457 0.06208 0.60349 0.0
H1967 H 0.37635 0.08781 0.58728 0.0
H1968 H 0.39051 0.14971 0.54867 0.0
H1969 H 0.38747 0.13124 0.56865 0.0
H1970 H 0.34592 0.10787 0.59438 0.0
C1971 C 0.34291 0.06216 0.61109 0.0
C1972 C 0.36972 0.0922 0.58898 0.0
C1973 C 0.34042 0.05019 0.62015 0.0
C1974 C 0.3802 0.14207 0.55236 0.0
C1975 C 0.37843 0.13132 0.56362 0.0
C1976 C 0.35256 0.10353 0.59249 0.0
C1977 C 0.35612 0.07395 0.61138 0.0
C1978 C 0.35884 0.08635 0.60104 0.0
C1979 C 0.36522 0.12092 0.56841 0.0
C1980 C 0.36325 0.10923 0.58003 0.0
H1981 H 0.37262 0.06183 0.63788 0.0
H1982 H 0.37701 0.08265 0.62166 0.0
H1983 H 0.34194 0.0879 0.61212 0.0
H1984 H 0.34658 0.13281 0.54621 0.0
H1985 H 0.34348 0.11375 0.56489 0.0
C1986 C 0.94919 0.29257 0.64114 0.0
C1987 C 0.94284 0.2911 0.65791 0.0
C1988 C 0.94135 0.28825 0.62492 0.0
C1989 C 0.90724 0.27964 0.60577 0.0
H1990 H 0.91407 0.25831 0.56931 0.0
C1991 C 0.86651 0.24421 0.55223 0.0
C1992 C 0.87055 0.24408 0.53429 0.0
C1993 C 0.87626 0.25148 0.56606 0.0
C1994 C 0.91216 0.26443 0.57924 0.0
H1995 H 0.92322 0.28389 0.67065 0.0
H1996 H 0.90968 0.27626 0.64259 0.0
H1997 H 0.92953 0.26824 0.59586 0.0
H1998 H 0.88812 0.25172 0.51689 0.0
H1999 H 0.9052 0.26425 0.54125 0.0
H2000 H 0.88967 0.27552 0.58944 0.0
C2001 C 0.92071 0.28096 0.64188 0.0
C2002 C 0.92103 0.27013 0.59444 0.0
C2003 C 0.92851 0.28525 0.65803 0.0
C2004 C 0.88464 0.25145 0.53057 0.0
C2005 C 0.89443 0.25866 0.5445 0.0
C2006 C 0.89837 0.27391 0.59066 0.0
C2007 C 0.92701 0.28242 0.62512 0.0
C2008 C 0.91849 0.27755 0.60807 0.0
C2009 C 0.89033 0.25874 0.56239 0.0
C2010 C 0.90057 0.266 0.57741 0.0
H2011 H 0.9602 0.29704 0.64053 0.0
H2012 H 0.94653 0.2896 0.61222 0.0
H2013 H 0.90517 0.28557 0.6158 0.0
H2014 H 0.85581 0.2384 0.55573 0.0
H2015 H 0.87279 0.25112 0.57977 0.0
C2016 C 0.35837 0.30313 0.65682 0.0
C2017 C 0.34807 0.30676 0.65624 0.0
C2018 C 0.36165 0.29816 0.64127 0.0
C2019 C 0.34723 0.28091 0.59671 0.0
H2020 H 0.38458 0.289 0.58981 0.0
C2021 C 0.36264 0.25671 0.5373 0.0
C2022 C 0.37042 0.25059 0.54271 0.0
C2023 C 0.36044 0.26523 0.54942 0.0
C2024 C 0.3741 0.28665 0.59156 0.0
H2025 H 0.33335 0.30831 0.63857 0.0
H2026 H 0.33923 0.29977 0.61124 0.0
H2027 H 0.37986 0.30132 0.61382 0.0
H2028 H 0.38194 0.24871 0.56528 0.0
H2029 H 0.37841 0.26383 0.5861 0.0
H2030 H 0.34153 0.26613 0.57445 0.0
C2031 C 0.34464 0.30061 0.62389 0.0
C2032 C 0.37137 0.29367 0.60534 0.0
C2033 C 0.34132 0.30559 0.63953 0.0
C2034 C 0.37615 0.25345 0.56043 0.0
C2035 C 0.37409 0.26209 0.57243 0.0
C2036 C 0.34999 0.27396 0.58279 0.0
C2037 C 0.35478 0.29674 0.62461 0.0
C2038 C 0.35786 0.29062 0.60843 0.0
C2039 C 0.36612 0.26798 0.56713 0.0
C2040 C 0.36341 0.27651 0.58038 0.0
H2041 H 0.36379 0.30385 0.66941 0.0
H2042 H 0.36932 0.29504 0.64248 0.0
H2043 H 0.33669 0.27819 0.59878 0.0
H2044 H 0.35824 0.25493 0.52369 0.0
H2045 H 0.35434 0.26973 0.54493 0.0
C2046 C 0.70923 0.06101 0.61814 0.0
C2047 C 0.71054 0.04904 0.61834 0.0
C2048 C 0.71722 0.07191 0.60677 0.0
C2049 C 0.74881 0.08874 0.58185 0.0
H2050 H 0.72872 0.09983 0.54957 0.0
C2051 C 0.77575 0.12802 0.52551 0.0
C2052 C 0.77133 0.13759 0.52187 0.0
C2053 C 0.76841 0.11697 0.53701 0.0
C2054 C 0.73454 0.09704 0.55866 0.0
H2055 H 0.72165 0.0394 0.60731 0.0
H2056 H 0.7359 0.05872 0.58771 0.0
H2057 H 0.71632 0.08152 0.57107 0.0
H2058 H 0.75549 0.14277 0.5273 0.0
H2059 H 0.74311 0.12398 0.54801 0.0
H2060 H 0.76708 0.10452 0.56995 0.0
C2061 C 0.72857 0.05951 0.59629 0.0
C2062 C 0.72741 0.0865 0.5709 0.0
C2063 C 0.72042 0.04847 0.60748 0.0
C2064 C 0.75932 0.13574 0.52996 0.0
C2065 C 0.75209 0.1248 0.54165 0.0
C2066 C 0.75599 0.09945 0.5698 0.0
C2067 C 0.72681 0.07117 0.59557 0.0
C2068 C 0.73448 0.08228 0.58261 0.0
C2069 C 0.75655 0.11528 0.54537 0.0
C2070 C 0.74894 0.10375 0.55805 0.0
H2071 H 0.70172 0.06178 0.62634 0.0
H2072 H 0.71579 0.08087 0.60657 0.0
H2073 H 0.75447 0.08569 0.59086 0.0
H2074 H 0.78506 0.1292 0.51978 0.0
H2075 H 0.77204 0.10973 0.5393 0.0
C2076 C 0.95285 0.66278 0.64065 0.0
C2077 C 0.94664 0.65958 0.65766 0.0
C2078 C 0.94484 0.65817 0.62461 0.0
C2079 C 0.90982 0.63231 0.60721 0.0
H2080 H 0.91856 0.65749 0.56737 0.0
C2081 C 0.8701 0.62733 0.55376 0.0
C2082 C 0.87392 0.6299 0.53559 0.0
C2083 C 0.87974 0.62926 0.56725 0.0
C2084 C 0.91613 0.65025 0.57825 0.0
H2085 H 0.9271 0.64919 0.67107 0.0
H2086 H 0.9132 0.64147 0.64324 0.0
H2087 H 0.93408 0.66457 0.59388 0.0
H2088 H 0.89063 0.63614 0.51709 0.0
H2089 H 0.90771 0.63975 0.54089 0.0
H2090 H 0.89159 0.61824 0.59187 0.0
C2091 C 0.92426 0.64724 0.64224 0.0
C2092 C 0.92501 0.6543 0.59344 0.0
C2093 C 0.93225 0.65179 0.65823 0.0
C2094 C 0.88747 0.63404 0.53103 0.0
C2095 C 0.89721 0.63618 0.54461 0.0
C2096 C 0.90091 0.62831 0.5921 0.0
C2097 C 0.93044 0.6503 0.62523 0.0
C2098 C 0.92179 0.6455 0.60829 0.0
C2099 C 0.89345 0.63396 0.56288 0.0
C2100 C 0.90382 0.63736 0.57764 0.0
H2101 H 0.96392 0.66872 0.63969 0.0
H2102 H 0.94993 0.66063 0.61174 0.0
H2103 H 0.90719 0.62513 0.6182 0.0
H2104 H 0.85969 0.62408 0.55758 0.0
H2105 H 0.87658 0.62761 0.58122 0.0
C2106 C 0.97107 0.7126 0.72018 0.0
C2107 C 0.96979 0.69955 0.7235 0.0
C2108 C 0.96558 0.71837 0.73222 0.0
C2109 C 0.95487 0.716 0.77969 0.0
H2110 H 0.92984 0.72803 0.76268 0.0
C2111 C 0.9098 0.7099 0.82025 0.0
C2112 C 0.90665 0.72063 0.82071 0.0
C2113 C 0.92033 0.71093 0.80952 0.0
C2114 C 0.93705 0.72501 0.76763 0.0
H2115 H 0.96171 0.68233 0.74196 0.0
H2116 H 0.95212 0.69223 0.76256 0.0
H2117 H 0.9431 0.72307 0.74075 0.0
H2118 H 0.91205 0.74095 0.81073 0.0
H2119 H 0.93046 0.74264 0.79144 0.0
H2120 H 0.94829 0.71717 0.80641 0.0
C2121 C 0.95747 0.69812 0.75087 0.0
C2122 C 0.94462 0.72217 0.75509 0.0
C2123 C 0.96282 0.69235 0.73889 0.0
C2124 C 0.9144 0.73259 0.8106 0.0
C2125 C 0.92483 0.73353 0.79956 0.0
C2126 C 0.9473 0.71877 0.79215 0.0
C2127 C 0.95892 0.71124 0.74783 0.0
C2128 C 0.95315 0.71706 0.76098 0.0
C2129 C 0.9278 0.72264 0.79885 0.0
C2130 C 0.93792 0.72276 0.78617 0.0
H2131 H 0.97641 0.71839 0.70844 0.0
H2132 H 0.96678 0.72849 0.72954 0.0
H2133 H 0.96161 0.71237 0.78462 0.0
H2134 H 0.90393 0.7006 0.82796 0.0
H2135 H 0.92228 0.7023 0.80904 0.0
C2136 C 0.30065 0.27317 0.71817 0.0
C2137 C 0.31392 0.28493 0.71909 0.0
C2138 C 0.29777 0.26108 0.72728 0.0
C2139 C 0.31352 0.2419 0.74559 0.0
H2140 H 0.28403 0.22727 0.77984 0.0
C2141 C 0.30849 0.20224 0.79847 0.0
C2142 C 0.29534 0.19205 0.80376 0.0
C2143 C 0.31018 0.21292 0.78715 0.0
C2144 C 0.29214 0.23101 0.7701 0.0
H2145 H 0.33458 0.29305 0.7301 0.0
H2146 H 0.32964 0.27188 0.74549 0.0
H2147 H 0.28782 0.24675 0.76117 0.0
H2148 H 0.27362 0.18521 0.80116 0.0
H2149 H 0.27652 0.20338 0.78073 0.0
H2150 H 0.31777 0.22611 0.75413 0.0
C2151 C 0.32148 0.27207 0.7378 0.0
C2152 C 0.29432 0.24221 0.75946 0.0
C2153 C 0.32429 0.28423 0.729 0.0
C2154 C 0.2839 0.19275 0.79723 0.0
C2155 C 0.28558 0.20333 0.78569 0.0
C2156 C 0.31122 0.23056 0.756 0.0
C2157 C 0.30817 0.26045 0.73717 0.0
C2158 C 0.30516 0.24788 0.74733 0.0
C2159 C 0.29875 0.2136 0.78055 0.0
C2160 C 0.30064 0.22511 0.76863 0.0
H2161 H 0.29241 0.2734 0.7107 0.0
H2162 H 0.28743 0.25222 0.72656 0.0
H2163 H 0.32186 0.24601 0.73617 0.0
H2164 H 0.31754 0.20195 0.80294 0.0
H2165 H 0.32051 0.22074 0.78378 0.0
C2166 C 0.71779 0.03687 0.70018 0.0
C2167 C 0.72091 0.02919 0.68767 0.0
C2168 C 0.72597 0.04287 0.71587 0.0
C2169 C 0.75002 0.04111 0.74768 0.0
H2170 H 0.76703 0.08134 0.75228 0.0
C2171 C 0.79503 0.07371 0.79868 0.0
C2172 C 0.79662 0.08624 0.80613 0.0
C2173 C 0.78498 0.0661 0.78521 0.0
C2174 C 0.76218 0.07008 0.75154 0.0
H2175 H 0.73462 0.0212 0.68223 0.0
H2176 H 0.74867 0.03137 0.70997 0.0
H2177 H 0.75036 0.06877 0.72779 0.0
H2178 H 0.78854 0.1004 0.80513 0.0
H2179 H 0.77056 0.08673 0.78282 0.0
H2180 H 0.76148 0.04227 0.77166 0.0
C2181 C 0.73999 0.03285 0.70747 0.0
C2182 C 0.75268 0.06291 0.73739 0.0
C2183 C 0.732 0.0271 0.69159 0.0
C2184 C 0.7876 0.09072 0.80003 0.0
C2185 C 0.77738 0.08297 0.78687 0.0
C2186 C 0.75932 0.04825 0.7621 0.0
C2187 C 0.73723 0.04104 0.71953 0.0
C2188 C 0.74661 0.04839 0.73524 0.0
C2189 C 0.77604 0.07066 0.77903 0.0
C2190 C 0.76566 0.06288 0.76414 0.0
H2191 H 0.70935 0.03871 0.6975 0.0
H2192 H 0.72363 0.04911 0.72503 0.0
H2193 H 0.7454 0.02989 0.74631 0.0
H2194 H 0.80157 0.06973 0.80318 0.0
H2195 H 0.78445 0.05679 0.77942 0.0
C2196 C 0.04838 0.32659 0.00777 0.0
C2197 C 0.03944 0.33046 0.01564 0.0
C2198 C 0.05603 0.32261 0.01859 0.0
C2199 C 0.06916 0.32486 0.0655 0.0
H2200 H 0.07341 0.29387 0.04874 0.0
C2201 C 0.09544 0.3018 0.10961 0.0
C2202 C 0.10477 0.29888 0.10083 0.0
C2203 C 0.08697 0.30525 0.09961 0.0
C2204 C 0.07241 0.30261 0.05354 0.0
H2205 H 0.0316 0.33329 0.04111 0.0
H2206 H 0.04488 0.32619 0.06003 0.0
H2207 H 0.05965 0.3008 0.0307 0.0
H2208 H 0.11252 0.29738 0.07461 0.0
H2209 H 0.09768 0.30326 0.0572 0.0
H2210 H 0.08196 0.32665 0.08835 0.0
C2211 C 0.04608 0.32638 0.04547 0.0
C2212 C 0.06454 0.3066 0.04319 0.0
C2213 C 0.03843 0.3304 0.03462 0.0
C2214 C 0.10529 0.29933 0.0818 0.0
C2215 C 0.0968 0.30272 0.07181 0.0
C2216 C 0.07702 0.32084 0.07588 0.0
C2217 C 0.05491 0.32236 0.03756 0.0
C2218 C 0.06291 0.31785 0.04895 0.0
C2219 C 0.08759 0.30579 0.0806 0.0
C2220 C 0.07882 0.30974 0.06994 0.0
H2221 H 0.04948 0.32659 0.9932 0.0
H2222 H 0.06292 0.31982 0.01207 0.0
H2223 H 0.06826 0.33367 0.07023 0.0
H2224 H 0.09462 0.30135 0.12423 0.0
H2225 H 0.07984 0.30736 0.10677 0.0
C2226 C 0.64994 0.69865 0.05358 0.0
C2227 C 0.65751 0.6931 0.0456 0.0
C2228 C 0.65634 0.71271 0.05894 0.0
C2229 C 0.67452 0.73827 0.08226 0.0
H2230 H 0.70195 0.76922 0.05542 0.0
C2231 C 0.70625 0.79261 0.11599 0.0
C2232 C 0.70693 0.80363 0.10609 0.0
C2233 C 0.70167 0.77956 0.10756 0.0
C2234 C 0.69429 0.76067 0.06305 0.0
H2235 H 0.67757 0.69827 0.03581 0.0
H2236 H 0.68873 0.72283 0.04527 0.0
H2237 H 0.69014 0.74573 0.04143 0.0
H2238 H 0.70426 0.8099 0.07937 0.0
H2239 H 0.69609 0.78706 0.06472 0.0
H2240 H 0.67843 0.75311 0.10374 0.0
C2241 C 0.67783 0.71627 0.04737 0.0
C2242 C 0.6876 0.74723 0.05508 0.0
C2243 C 0.67143 0.70217 0.04197 0.0
C2244 C 0.70366 0.80154 0.0874 0.0
C2245 C 0.6991 0.7885 0.07897 0.0
C2246 C 0.68123 0.75164 0.09022 0.0
C2247 C 0.67045 0.72156 0.05645 0.0
C2248 C 0.67757 0.73591 0.06458 0.0
C2249 C 0.69771 0.77727 0.08907 0.0
C2250 C 0.69116 0.763 0.08072 0.0
H2251 H 0.63917 0.69202 0.05637 0.0
H2252 H 0.6503 0.71657 0.06552 0.0
H2253 H 0.66702 0.72974 0.09006 0.0
H2254 H 0.70864 0.79387 0.13042 0.0
H2255 H 0.7009 0.77115 0.11565 0.0
C2256 C 0.28707 0.96028 0.00603 0.0
C2257 C 0.30043 0.96782 0.01357 0.0
C2258 C 0.27571 0.95554 0.0171 0.0
C2259 C 0.26552 0.94818 0.06496 0.0
H2260 H 0.23269 0.94762 0.04706 0.0
C2261 C 0.21766 0.92992 0.10857 0.0
C2262 C 0.2056 0.91936 0.09998 0.0
C2263 C 0.22942 0.93773 0.09852 0.0
C2264 C 0.24181 0.94775 0.05222 0.0
H2265 H 0.3124 0.97639 0.03863 0.0
H2266 H 0.29261 0.9684 0.05787 0.0
H2267 H 0.25307 0.95738 0.02856 0.0
H2268 H 0.19601 0.90914 0.07422 0.0
H2269 H 0.21647 0.9229 0.05661 0.0
H2270 H 0.25419 0.93852 0.08862 0.0
C2271 C 0.29087 0.96588 0.04346 0.0
C2272 C 0.25345 0.95324 0.0416 0.0
C2273 C 0.30222 0.9705 0.03241 0.0
C2274 C 0.20524 0.9172 0.08112 0.0
C2275 C 0.2169 0.92512 0.07106 0.0
C2276 C 0.25392 0.94282 0.07565 0.0
C2277 C 0.27747 0.95835 0.03594 0.0
C2278 C 0.26537 0.9533 0.0477 0.0
C2279 C 0.22919 0.93524 0.07971 0.0
C2280 C 0.24189 0.94235 0.06925 0.0
H2281 H 0.28536 0.958 0.99157 0.0
H2282 H 0.26555 0.94953 0.01088 0.0
H2283 H 0.27444 0.94787 0.06999 0.0
H2284 H 0.21816 0.9317 0.12313 0.0
H2285 H 0.23876 0.94554 0.10547 0.0
C2286 C 0.34945 0.04316 0.9757 0.0
C2287 C 0.34167 0.0299 0.98308 0.0
C2288 C 0.34312 0.05056 0.97003 0.0
C2289 C 0.32519 0.05603 0.94479 0.0
H2290 H 0.29692 0.05984 0.96925 0.0
C2291 C 0.29349 0.07511 0.9068 0.0
C2292 C 0.29317 0.08636 0.91538 0.0
C2293 C 0.29768 0.06714 0.91649 0.0
C2294 C 0.3048 0.05882 0.96229 0.0
H2295 H 0.32134 0.01462 0.9918 0.0
H2296 H 0.31034 0.02758 0.98182 0.0
H2297 H 0.30879 0.04944 0.98503 0.0
H2298 H 0.29592 0.09741 0.94109 0.0
H2299 H 0.30335 0.08352 0.95801 0.0
H2300 H 0.32136 0.06543 0.92215 0.0
C2301 C 0.32131 0.03219 0.98038 0.0
C2302 C 0.31154 0.05286 0.97128 0.0
C2303 C 0.32763 0.02476 0.98605 0.0
C2304 C 0.29624 0.08889 0.9341 0.0
C2305 C 0.30038 0.08088 0.94381 0.0
C2306 C 0.3184 0.06185 0.9358 0.0
C2307 C 0.32891 0.04489 0.97166 0.0
C2308 C 0.32188 0.0515 0.96263 0.0
C2309 C 0.30158 0.07023 0.93495 0.0
C2310 C 0.30815 0.06333 0.94443 0.0
H2311 H 0.36031 0.04753 0.97342 0.0
H2312 H 0.34928 0.06048 0.96369 0.0
H2313 H 0.33294 0.0549 0.93766 0.0
H2314 H 0.29123 0.07295 0.89238 0.0
H2315 H 0.29834 0.05885 0.90939 0.0
C2316 C 0.98052 0.28987 0.97994 0.0
C2317 C 0.97357 0.29726 0.98314 0.0
C2318 C 0.97315 0.27557 0.97566 0.0
C2319 C 0.94044 0.24342 0.97796 0.0
H2320 H 0.94611 0.23556 0.92838 0.0
C2321 C 0.90018 0.19436 0.93809 0.0
C2322 C 0.9041 0.18894 0.92341 0.0
C2323 C 0.90982 0.20643 0.94764 0.0
C2324 C 0.94457 0.23735 0.94241 0.0
H2325 H 0.95356 0.29536 0.98565 0.0
H2326 H 0.94069 0.27023 0.97883 0.0
H2327 H 0.96104 0.25854 0.94217 0.0
H2328 H 0.92156 0.19174 0.90802 0.0
H2329 H 0.93845 0.21213 0.92543 0.0
H2330 H 0.92414 0.22226 0.97849 0.0
C2331 C 0.95181 0.27557 0.97937 0.0
C2332 C 0.95312 0.25059 0.95025 0.0
C2333 C 0.95916 0.28992 0.9832 0.0
C2334 C 0.91809 0.1955 0.91926 0.0
C2335 C 0.92779 0.20741 0.92909 0.0
C2336 C 0.93208 0.23005 0.97029 0.0
C2337 C 0.95874 0.26838 0.97502 0.0
C2338 C 0.95091 0.25382 0.96791 0.0
C2339 C 0.92375 0.21328 0.94313 0.0
C2340 C 0.93376 0.22692 0.9522 0.0
H2341 H 0.99162 0.29528 0.97968 0.0
H2342 H 0.97868 0.2702 0.97231 0.0
H2343 H 0.93862 0.2457 0.99166 0.0
H2344 H 0.88959 0.18944 0.94209 0.0
H2345 H 0.90616 0.2106 0.95816 0.0
C2346 C 0.69392 0.66761 0.98905 0.0
C2347 C 0.68599 0.65347 0.99331 0.0
C2348 C 0.70552 0.6722 0.97849 0.0
C2349 C 0.72275 0.65985 0.94683 0.0
H2350 H 0.75549 0.69424 0.96225 0.0
C2351 C 0.77634 0.67546 0.92047 0.0
C2352 C 0.78491 0.68947 0.916 0.0
C2353 C 0.764 0.67133 0.92916 0.0
C2354 C 0.74639 0.68471 0.95764 0.0
H2355 H 0.68387 0.63302 0.98952 0.0
H2356 H 0.70422 0.64105 0.97134 0.0
H2357 H 0.73426 0.68649 0.97842 0.0
H2358 H 0.78717 0.71009 0.91705 0.0
H2359 H 0.76567 0.70288 0.93241 0.0
H2360 H 0.73498 0.65797 0.92622 0.0
C2361 C 0.70137 0.64857 0.97594 0.0
C2362 C 0.73421 0.68027 0.96688 0.0
C2363 C 0.68974 0.64397 0.98645 0.0
C2364 C 0.7809 0.69926 0.92053 0.0
C2365 C 0.76857 0.69513 0.92929 0.0
C2366 C 0.73494 0.66426 0.93763 0.0
C2367 C 0.70949 0.66276 0.97199 0.0
C2368 C 0.72227 0.66775 0.96166 0.0
C2369 C 0.75998 0.68111 0.93364 0.0
C2370 C 0.74691 0.67669 0.94301 0.0
H2371 H 0.69125 0.67519 0.99403 0.0
H2372 H 0.71141 0.68316 0.97545 0.0
H2373 H 0.71368 0.65027 0.94227 0.0
H2374 H 0.77924 0.6677 0.91746 0.0
H2375 H 0.75772 0.6605 0.93262 0.0
C2376 C 0.95015 0.65134 0.98252 0.0
C2377 C 0.96272 0.66081 0.99121 0.0
C2378 C 0.94254 0.65614 0.97309 0.0
C2379 C 0.93772 0.68663 0.96997 0.0
H2380 H 0.91853 0.66832 0.92478 0.0
C2381 C 0.90822 0.70653 0.92596 0.0
C2382 C 0.89553 0.69629 0.91831 0.0
C2383 C 0.91687 0.7027 0.9348 0.0
C2384 C 0.92373 0.67346 0.93747 0.0
H2385 H 0.97728 0.68277 0.9965 0.0
H2386 H 0.96407 0.69112 0.97987 0.0
H2387 H 0.93295 0.66073 0.93985 0.0
H2388 H 0.88171 0.67399 0.91467 0.0
H2389 H 0.89675 0.66736 0.93001 0.0
H2390 H 0.92842 0.69933 0.96759 0.0
C2391 C 0.96 0.67998 0.98058 0.0
C2392 C 0.93199 0.66911 0.94611 0.0
C2393 C 0.96761 0.67519 0.99001 0.0
C2394 C 0.89155 0.68216 0.92005 0.0
C2395 C 0.90018 0.67834 0.92883 0.0
C2396 C 0.92945 0.691 0.96131 0.0
C2397 C 0.94733 0.67051 0.97211 0.0
C2398 C 0.93899 0.67555 0.96255 0.0
C2399 C 0.913 0.68856 0.93615 0.0
C2400 C 0.92225 0.68437 0.94505 0.0
H2401 H 0.94606 0.6402 0.98321 0.0
H2402 H 0.93275 0.64855 0.96691 0.0
H2403 H 0.94283 0.6917 0.98273 0.0
H2404 H 0.91162 0.7175 0.92472 0.0
H2405 H 0.92673 0.71083 0.94019 0.0
C2406 C 0.33094 0.29778 0.97816 0.0
C2407 C 0.34488 0.30702 0.97488 0.0
C2408 C 0.32499 0.28357 0.97362 0.0
C2409 C 0.33298 0.25593 0.9608 0.0
H2410 H 0.29959 0.24087 0.93112 0.0
C2411 C 0.31701 0.21016 0.91051 0.0
C2412 C 0.30313 0.19968 0.90912 0.0
C2413 C 0.32104 0.22235 0.92079 0.0
C2414 C 0.30877 0.24482 0.93963 0.0
H2415 H 0.36367 0.30839 0.9654 0.0
H2416 H 0.3533 0.28372 0.95751 0.0
H2417 H 0.30868 0.26363 0.94646 0.0
H2418 H 0.28254 0.1939 0.91712 0.0
H2419 H 0.28962 0.2154 0.93506 0.0
H2420 H 0.3333 0.23731 0.95356 0.0
C2421 C 0.34696 0.28741 0.96359 0.0
C2422 C 0.31397 0.25784 0.94846 0.0
C2423 C 0.3529 0.3016 0.96802 0.0
C2424 C 0.2933 0.20184 0.91785 0.0
C2425 C 0.29735 0.21411 0.92816 0.0
C2426 C 0.32779 0.24293 0.95199 0.0
C2427 C 0.33286 0.2783 0.96588 0.0
C2428 C 0.32632 0.26369 0.95876 0.0
C2429 C 0.3113 0.2244 0.92991 0.0
C2430 C 0.31583 0.2374 0.94092 0.0
H2431 H 0.32447 0.30158 0.98348 0.0
H2432 H 0.31413 0.27676 0.97576 0.0
H2433 H 0.34238 0.26005 0.9689 0.0
H2434 H 0.3248 0.20896 0.90361 0.0
H2435 H 0.33182 0.23024 0.92147 0.0
C2436 C 0.70947 0.02934 0.00654 0.0
C2437 C 0.69794 0.03091 0.00412 0.0
C2438 C 0.7204 0.0355 0.99476 0.0
C2439 C 0.72978 0.05107 0.94942 0.0
H2440 H 0.76687 0.06739 0.96941 0.0
C2441 C 0.77827 0.0889 0.91092 0.0
C2442 C 0.78965 0.08697 0.91239 0.0
C2443 C 0.76665 0.08101 0.92112 0.0
C2444 C 0.75656 0.06272 0.9636 0.0
H2445 H 0.68881 0.04022 0.98749 0.0
H2446 H 0.70808 0.05134 0.96721 0.0
H2447 H 0.7475 0.05605 0.9894 0.0
H2448 H 0.79776 0.07513 0.92538 0.0
H2449 H 0.77742 0.06134 0.94331 0.0
H2450 H 0.73898 0.05815 0.92366 0.0
C2451 C 0.70856 0.04507 0.97797 0.0
C2452 C 0.74545 0.0562 0.97504 0.0
C2453 C 0.69755 0.03879 0.98967 0.0
C2454 C 0.78908 0.07677 0.92392 0.0
C2455 C 0.77752 0.06897 0.93427 0.0
C2456 C 0.74091 0.05771 0.938 0.0
C2457 C 0.72012 0.04351 0.98038 0.0
C2458 C 0.73192 0.05031 0.96811 0.0
C2459 C 0.76626 0.07114 0.93312 0.0
C2460 C 0.75441 0.06361 0.945 0.0
H2461 H 0.71002 0.02321 0.01745 0.0
H2462 H 0.72902 0.03386 0.99684 0.0
H2463 H 0.71949 0.04643 0.94356 0.0
H2464 H 0.77841 0.09663 0.90201 0.0
H2465 H 0.75815 0.08295 0.92006 0.0
C2466 C 0.67593 0.97851 0.03563 0.0
C2467 C 0.66175 0.9725 0.03835 0.0
C2468 C 0.68282 0.97148 0.04066 0.0
C2469 C 0.69384 0.95147 0.04818 0.0
H2470 H 0.68367 0.93682 0.09638 0.0
C2471 C 0.70978 0.91485 0.08253 0.0
C2472 C 0.71244 0.91661 0.10137 0.0
C2473 C 0.70565 0.92312 0.07342 0.0
C2474 C 0.68674 0.94099 0.083 0.0
H2475 H 0.64349 0.95382 0.04675 0.0
H2476 H 0.65551 0.9416 0.05537 0.0
H2477 H 0.67167 0.94727 0.08179 0.0
H2478 H 0.71372 0.92899 0.12524 0.0
H2479 H 0.70666 0.94354 0.1093 0.0
H2480 H 0.70896 0.94509 0.04953 0.0
C2481 C 0.66133 0.95187 0.04976 0.0
C2482 C 0.67972 0.94678 0.07453 0.0
C2483 C 0.65445 0.95886 0.04474 0.0
C2484 C 0.71178 0.92742 0.11072 0.0
C2485 C 0.70761 0.93565 0.10162 0.0
C2486 C 0.70082 0.94553 0.05664 0.0
C2487 C 0.67565 0.95834 0.04847 0.0
C2488 C 0.68313 0.95201 0.05701 0.0
C2489 C 0.70406 0.93327 0.08302 0.0
C2490 C 0.69733 0.94025 0.07416 0.0
H2491 H 0.68186 0.98897 0.03063 0.0
H2492 H 0.69387 0.9767 0.0395 0.0
H2493 H 0.69668 0.95545 0.03467 0.0
H2494 H 0.71038 0.90671 0.07495 0.0
H2495 H 0.70296 0.92103 0.05909 0.0
C2496 C 0.02847 0.70826 0.03577 0.0
C2497 C 0.03299 0.69876 0.03943 0.0
C2498 C 0.03661 0.72237 0.04089 0.0
C2499 C 0.06245 0.74385 0.07558 0.0
H2500 H 0.06819 0.77541 0.04736 0.0
C2501 C 0.08653 0.79888 0.10788 0.0
C2502 C 0.0975 0.8094 0.09853 0.0
C2503 C 0.07795 0.78586 0.09947 0.0
C2504 C 0.06666 0.76668 0.05537 0.0
H2505 H 0.05007 0.69693 0.05013 0.0
H2506 H 0.06416 0.72145 0.05898 0.0
H2507 H 0.05529 0.75174 0.03385 0.0
H2508 H 0.10768 0.81477 0.07275 0.0
H2509 H 0.09268 0.79196 0.05805 0.0
H2510 H 0.0738 0.75864 0.09705 0.0
C2511 C 0.05424 0.71793 0.05245 0.0
C2512 C 0.05924 0.75316 0.04768 0.0
C2513 C 0.04616 0.70388 0.04728 0.0
C2514 C 0.09938 0.80681 0.08034 0.0
C2515 C 0.09073 0.79381 0.07188 0.0
C2516 C 0.06972 0.75729 0.0833 0.0
C2517 C 0.04938 0.72723 0.04983 0.0
C2518 C 0.05717 0.74163 0.05769 0.0
C2519 C 0.08012 0.78311 0.0815 0.0
C2520 C 0.07194 0.76885 0.07328 0.0
H2521 H 0.0184 0.7047 0.02969 0.0
H2522 H 0.03262 0.72933 0.03871 0.0
H2523 H 0.06086 0.73515 0.08372 0.0
H2524 H 0.08488 0.80053 0.12193 0.0
H2525 H 0.06976 0.77785 0.10715 0.0
C2526 C 0.31371 0.35589 0.03606 0.0
C2527 C 0.31643 0.34619 0.02732 0.0
C2528 C 0.30203 0.35136 0.04647 0.0
C2529 C 0.26763 0.32077 0.05164 0.0
H2530 H 0.26779 0.34021 0.09603 0.0
C2531 C 0.21766 0.31043 0.08512 0.0
C2532 C 0.21726 0.30995 0.10413 0.0
C2533 C 0.22998 0.31479 0.07629 0.0
C2534 C 0.2676 0.33459 0.08374 0.0
H2535 H 0.30933 0.32413 0.02325 0.0
H2536 H 0.28912 0.31625 0.04163 0.0
H2537 H 0.2892 0.34773 0.08031 0.0
H2538 H 0.22941 0.31345 0.12881 0.0
H2539 H 0.25093 0.32097 0.11338 0.0
H2540 H 0.2461 0.30748 0.0552 0.0
C2541 C 0.29583 0.32735 0.04012 0.0
C2542 C 0.27984 0.339 0.07463 0.0
C2543 C 0.30747 0.33188 0.02967 0.0
C2544 C 0.22944 0.3139 0.11414 0.0
C2545 C 0.24176 0.31822 0.10531 0.0
C2546 C 0.25541 0.31636 0.06075 0.0
C2547 C 0.29286 0.33703 0.04841 0.0
C2548 C 0.27998 0.33216 0.05844 0.0
C2549 C 0.24217 0.3187 0.08628 0.0
C2550 C 0.25524 0.32326 0.07685 0.0
H2551 H 0.32041 0.36699 0.03451 0.0
H2552 H 0.29997 0.35908 0.05254 0.0
H2553 H 0.26733 0.31538 0.03908 0.0
H2554 H 0.20848 0.30765 0.07707 0.0
H2555 H 0.22999 0.31527 0.06164 0.0
C2556 C 0.70606 0.65466 0.33754 0.0
C2557 C 0.69965 0.6613 0.34597 0.0
C2558 C 0.714 0.65067 0.34772 0.0
C2559 C 0.73343 0.65828 0.39122 0.0
H2560 H 0.7332 0.62394 0.37918 0.0
C2561 C 0.76383 0.63925 0.43397 0.0
C2562 C 0.77138 0.63439 0.42435 0.0
C2563 C 0.75433 0.64177 0.42495 0.0
C2564 C 0.73345 0.63361 0.38262 0.0
H2565 H 0.69636 0.66872 0.3718 0.0
H2566 H 0.71009 0.66156 0.38963 0.0
H2567 H 0.71779 0.62963 0.36272 0.0
H2568 H 0.77472 0.6282 0.39768 0.0
H2569 H 0.75805 0.63252 0.38194 0.0
H2570 H 0.74912 0.66227 0.41108 0.0
C2571 C 0.70914 0.65965 0.37508 0.0
C2572 C 0.72463 0.63689 0.37318 0.0
C2573 C 0.70121 0.66368 0.36488 0.0
C2574 C 0.76897 0.6318 0.40554 0.0
C2575 C 0.75942 0.63428 0.39651 0.0
C2576 C 0.74221 0.65498 0.40069 0.0
C2577 C 0.71571 0.65316 0.3666 0.0
C2578 C 0.72459 0.64932 0.37726 0.0
C2579 C 0.75209 0.63942 0.4061 0.0
C2580 C 0.7424 0.64266 0.39641 0.0
H2581 H 0.70511 0.6527 0.323 0.0
H2582 H 0.71906 0.6459 0.34069 0.0
H2583 H 0.73384 0.66805 0.39453 0.0
H2584 H 0.76521 0.64108 0.44853 0.0
H2585 H 0.74867 0.6455 0.43277 0.0
C2586 C 0.32946 0.03384 0.38055 0.0
C2587 C 0.31589 0.0246 0.38554 0.0
C2588 C 0.33589 0.04798 0.38574 0.0
C2589 C 0.34507 0.07888 0.39297 0.0
H2590 H 0.3389 0.08558 0.44287 0.0
C2591 C 0.36052 0.13338 0.42395 0.0
C2592 C 0.36511 0.13622 0.44219 0.0
C2593 C 0.35606 0.12022 0.41595 0.0
C2594 C 0.34087 0.08389 0.42898 0.0
H2595 H 0.29815 0.0232 0.39876 0.0
H2596 H 0.30932 0.0478 0.40759 0.0
H2597 H 0.32752 0.06187 0.43026 0.0
H2598 H 0.36922 0.12769 0.46611 0.0
H2599 H 0.36163 0.10476 0.45208 0.0
H2600 H 0.35852 0.101 0.39182 0.0
C2601 C 0.31508 0.04406 0.40004 0.0
C2602 C 0.33418 0.07031 0.42166 0.0
C2603 C 0.30866 0.02997 0.39487 0.0
C2604 C 0.3658 0.12584 0.45201 0.0
C2605 C 0.36131 0.11267 0.44403 0.0
C2606 C 0.35174 0.09252 0.40029 0.0
C2607 C 0.32889 0.05313 0.39601 0.0
C2608 C 0.33612 0.06766 0.40355 0.0
C2609 C 0.35607 0.10961 0.42606 0.0
C2610 C 0.34967 0.09516 0.41838 0.0
H2611 H 0.33533 0.03007 0.37333 0.0
H2612 H 0.34655 0.05472 0.38246 0.0
H2613 H 0.34675 0.07714 0.37897 0.0
H2614 H 0.36005 0.14124 0.41597 0.0
H2615 H 0.35204 0.11818 0.40212 0.0
C2616 C 0.96004 0.29773 0.34174 0.0
C2617 C 0.97329 0.30352 0.34956 0.0
C2618 C 0.94872 0.29369 0.35263 0.0
C2619 C 0.93728 0.28367 0.3993 0.0
H2620 H 0.90604 0.28638 0.38193 0.0
C2621 C 0.88697 0.26123 0.43855 0.0
C2622 C 0.8755 0.25174 0.42789 0.0
C2623 C 0.89934 0.27024 0.43037 0.0
C2624 C 0.91472 0.28563 0.38697 0.0
H2625 H 0.9851 0.30989 0.37492 0.0
H2626 H 0.9653 0.30306 0.39399 0.0
H2627 H 0.92728 0.29728 0.36516 0.0
H2628 H 0.8676 0.24467 0.40045 0.0
H2629 H 0.88913 0.26053 0.3861 0.0
H2630 H 0.92459 0.27187 0.421 0.0
C2631 C 0.96365 0.30141 0.37943 0.0
C2632 C 0.92685 0.29179 0.37734 0.0
C2633 C 0.975 0.30536 0.36851 0.0
C2634 C 0.87635 0.25187 0.40892 0.0
C2635 C 0.88862 0.261 0.40074 0.0
C2636 C 0.92518 0.27765 0.40903 0.0
C2637 C 0.95036 0.29547 0.37161 0.0
C2638 C 0.93814 0.29053 0.3831 0.0
C2639 C 0.90032 0.27004 0.4114 0.0
C2640 C 0.91369 0.27825 0.40268 0.0
H2641 H 0.95837 0.29613 0.32718 0.0
H2642 H 0.93862 0.28888 0.34615 0.0
H2643 H 0.9457 0.28237 0.40403 0.0
H2644 H 0.88655 0.26124 0.45322 0.0
H2645 H 0.90821 0.27716 0.43885 0.0
C2646 C 0.00455 0.35695 0.30939 0.0
C2647 C 0.01834 0.36065 0.31198 0.0
C2648 C 0.0011 0.36708 0.30535 0.0
C2649 C 0.0171 0.40256 0.28669 0.0
H2650 H 0.98105 0.39778 0.29481 0.0
C2651 C 0.00024 0.44133 0.26359 0.0
C2652 C 0.99046 0.4354 0.2492 0.0
C2653 C 0.00317 0.43295 0.27448 0.0
C2654 C 0.99117 0.39924 0.29261 0.0
H2655 H 0.03926 0.37787 0.31391 0.0
H2656 H 0.03324 0.39572 0.30804 0.0
H2657 H 0.98769 0.38235 0.30944 0.0
H2658 H 0.97569 0.41584 0.23561 0.0
H2659 H 0.98048 0.40121 0.25524 0.0
H2660 H 0.02057 0.41965 0.27017 0.0
C2661 C 0.02509 0.38494 0.30816 0.0
C2662 C 0.99497 0.39037 0.30082 0.0
C2663 C 0.02856 0.37475 0.31168 0.0
C2664 C 0.98315 0.42079 0.24665 0.0
C2665 C 0.9859 0.4124 0.25782 0.0
C2666 C 0.01341 0.4116 0.27889 0.0
C2667 C 0.01136 0.38119 0.30428 0.0
C2668 C 0.00788 0.39168 0.2976 0.0
C2669 C 0.99612 0.41847 0.27152 0.0
C2670 C 0.00034 0.40981 0.28148 0.0
H2671 H 0.99648 0.34612 0.30946 0.0
H2672 H 0.99045 0.36367 0.30221 0.0
H2673 H 0.02699 0.40379 0.28348 0.0
H2674 H 0.0058 0.45248 0.26633 0.0
H2675 H 0.01108 0.43778 0.28506 0.0
C2676 C 0.64003 0.62856 0.31367 0.0
C2677 C 0.63554 0.63811 0.31028 0.0
C2678 C 0.6318 0.61446 0.30849 0.0
C2679 C 0.60913 0.58372 0.30207 0.0
H2680 H 0.59279 0.57789 0.25372 0.0
C2681 C 0.5676 0.52983 0.27166 0.0
C2682 C 0.56831 0.52711 0.25311 0.0
C2683 C 0.57676 0.54286 0.27966 0.0
C2684 C 0.59738 0.57933 0.26717 0.0
H2685 H 0.61845 0.64007 0.29995 0.0
H2686 H 0.60417 0.61559 0.2911 0.0
H2687 H 0.60636 0.60146 0.2665 0.0
H2688 H 0.57951 0.5358 0.22859 0.0
H2689 H 0.59559 0.55846 0.24259 0.0
H2690 H 0.6001 0.56147 0.30261 0.0
C2691 C 0.61416 0.61904 0.2974 0.0
C2692 C 0.60501 0.59283 0.2746 0.0
C2693 C 0.62233 0.63308 0.30257 0.0
C2694 C 0.57874 0.53751 0.24293 0.0
C2695 C 0.58786 0.55055 0.25091 0.0
C2696 C 0.60138 0.57014 0.29466 0.0
C2697 C 0.61895 0.60966 0.29981 0.0
C2698 C 0.61091 0.59519 0.29215 0.0
C2699 C 0.58678 0.55347 0.26926 0.0
C2700 C 0.59543 0.56782 0.27711 0.0
H2701 H 0.65013 0.63207 0.3196 0.0
H2702 H 0.63577 0.60746 0.31051 0.0
H2703 H 0.61354 0.58523 0.31565 0.0
H2704 H 0.55976 0.52196 0.27991 0.0
H2705 H 0.57563 0.54481 0.29381 0.0
C2706 C 0.35209 0.99781 0.32727 0.0
C2707 C 0.34052 0.98434 0.32623 0.0
C2708 C 0.36378 0.00091 0.31756 0.0
C2709 C 0.37672 0.98851 0.27991 0.0
H2710 H 0.41132 0.00871 0.307 0.0
C2711 C 0.42642 0.99128 0.25545 0.0
C2712 C 0.43868 0.00414 0.2576 0.0
C2713 C 0.41435 0.98934 0.26315 0.0
C2714 C 0.40177 0.00322 0.29915 0.0
H2715 H 0.33194 0.96373 0.31354 0.0
H2716 H 0.3524 0.96911 0.29669 0.0
H2717 H 0.39025 0.00473 0.32098 0.0
H2718 H 0.44792 0.025 0.26967 0.0
H2719 H 0.4268 0.02167 0.28292 0.0
H2720 H 0.38828 0.98689 0.25814 0.0
C2721 C 0.35239 0.9773 0.30493 0.0
C2722 C 0.3897 0.00096 0.30715 0.0
C2723 C 0.34069 0.9742 0.31466 0.0
C2724 C 0.43862 0.015 0.26767 0.0
C2725 C 0.42655 0.01305 0.27539 0.0
C2726 C 0.38882 0.99078 0.27189 0.0
C2727 C 0.36417 0.99061 0.30658 0.0
C2728 C 0.37703 0.99352 0.29766 0.0
C2729 C 0.41428 0.00021 0.27318 0.0
C2730 C 0.40147 0.9981 0.28147 0.0
H2731 H 0.35226 0.0059 0.33595 0.0
H2732 H 0.37261 0.01133 0.31884 0.0
H2733 H 0.36714 0.98288 0.27217 0.0
H2734 H 0.42609 0.98276 0.24757 0.0
H2735 H 0.4051 0.97926 0.26139 0.0
C2736 C 0.61939 0.97138 0.30552 0.0
C2737 C 0.62957 0.98199 0.31683 0.0
C2738 C 0.6101 0.97375 0.29563 0.0
C2739 C 0.60412 0.00168 0.27898 0.0
H2740 H 0.56578 0.97287 0.27964 0.0
C2741 C 0.56024 0.01172 0.25844 0.0
C2742 C 0.54902 0.00118 0.24834 0.0
C2743 C 0.57039 0.00932 0.26566 0.0
C2744 C 0.57646 0.98094 0.2791 0.0
H2745 H 0.63825 0.00354 0.32616 0.0
H2746 H 0.62201 0.0076 0.30905 0.0
H2747 H 0.58311 0.96884 0.29377 0.0
H2748 H 0.53984 0.97994 0.23758 0.0
H2749 H 0.55753 0.97574 0.25023 0.0
H2750 H 0.59743 0.01384 0.26448 0.0
C2751 C 0.62126 0.99749 0.30769 0.0
C2752 C 0.5864 0.97863 0.28719 0.0
C2753 C 0.63053 0.99513 0.31758 0.0
C2754 C 0.54822 0.9882 0.24556 0.0
C2755 C 0.55837 0.9858 0.25279 0.0
C2756 C 0.59417 0.00399 0.27089 0.0
C2757 C 0.6108 0.98677 0.2968 0.0
C2758 C 0.60034 0.989 0.28735 0.0
C2759 C 0.56956 0.99632 0.26296 0.0
C2760 C 0.58021 0.99369 0.27098 0.0
H2761 H 0.6184 0.96116 0.30456 0.0
H2762 H 0.60231 0.96533 0.28715 0.0
H2763 H 0.61479 0.0098 0.27863 0.0
H2764 H 0.56107 0.02177 0.26104 0.0
H2765 H 0.57875 0.01757 0.27368 0.0
C2766 C 0.00778 0.63738 0.31012 0.0
C2767 C 0.02102 0.64815 0.30606 0.0
C2768 C 0.00373 0.62347 0.30578 0.0
C2769 C 0.01697 0.60004 0.2921 0.0
H2770 H 0.98246 0.57963 0.26486 0.0
C2771 C 0.00589 0.55531 0.24187 0.0
C2772 C 0.99274 0.54338 0.24126 0.0
C2773 C 0.00856 0.56705 0.25235 0.0
C2774 C 0.99201 0.58508 0.27269 0.0
H2775 H 0.04062 0.65264 0.29529 0.0
H2776 H 0.03355 0.62853 0.28771 0.0
H2777 H 0.98865 0.60192 0.27979 0.0
H2778 H 0.97207 0.53448 0.25121 0.0
H2779 H 0.97672 0.55516 0.2694 0.0
H2780 H 0.02053 0.58341 0.2845 0.0
C2781 C 0.02629 0.63077 0.29428 0.0
C2782 C 0.99554 0.59784 0.2813 0.0
C2783 C 0.03032 0.64464 0.29851 0.0
C2784 C 0.98226 0.54356 0.25122 0.0
C2785 C 0.98493 0.55537 0.26168 0.0
C2786 C 0.01345 0.58731 0.28348 0.0
C2787 C 0.01286 0.62006 0.29746 0.0
C2788 C 0.00822 0.60562 0.2907 0.0
C2789 C -0.00186 0.5672 0.26245 0.0
C2790 C 0.0011 0.57987 0.2733 0.0
H2791 H 0.00037 0.63972 0.31598 0.0
H2792 H 0.99335 0.61542 0.30859 0.0
H2793 H 0.02669 0.60567 0.29952 0.0
H2794 H 0.01412 0.55563 0.23408 0.0
H2795 H 0.01876 0.57612 0.25232 0.0
C2796 C 0.37494 0.37241 0.3403 0.0
C2797 C 0.36147 0.36622 0.33313 0.0
C2798 C 0.38598 0.37652 0.32885 0.0
C2799 C 0.3963 0.38572 0.28165 0.0
H2800 H 0.42746 0.38234 0.29757 0.0
C2801 C 0.44535 0.40625 0.23986 0.0
C2802 C 0.45729 0.41548 0.24995 0.0
C2803 C 0.43312 0.39775 0.24867 0.0
C2804 C 0.4188 0.38329 0.29293 0.0
H2805 H 0.34899 0.35943 0.30832 0.0
H2806 H 0.36833 0.36646 0.28826 0.0
H2807 H 0.40674 0.37221 0.31539 0.0
H2808 H 0.46611 0.42261 0.27702 0.0
H2809 H 0.44481 0.40764 0.29244 0.0
H2810 H 0.4085 0.39697 0.2593 0.0
C2811 C 0.37034 0.3683 0.30275 0.0
C2812 C 0.40697 0.37758 0.30317 0.0
C2813 C 0.35927 0.36425 0.31423 0.0
C2814 C 0.457 0.41559 0.26897 0.0
C2815 C 0.44485 0.40698 0.27777 0.0
C2816 C 0.4081 0.39134 0.27133 0.0
C2817 C 0.38383 0.37444 0.30995 0.0
C2818 C 0.39572 0.37906 0.29792 0.0
C2819 C 0.43273 0.39821 0.2677 0.0
C2820 C 0.41959 0.39049 0.27713 0.0
H2821 H 0.377 0.37415 0.35479 0.0
H2822 H 0.39625 0.38151 0.33484 0.0
H2823 H 0.38788 0.38716 0.2773 0.0
H2824 H 0.44533 0.40607 0.22516 0.0
H2825 H 0.42392 0.39103 0.24062 0.0
C2826 C 0.31745 0.29658 0.38177 0.0
C2827 C 0.32482 0.30966 0.37384 0.0
C2828 C 0.32371 0.28869 0.3852 0.0
C2829 C 0.3575 0.29338 0.39544 0.0
H2830 H 0.33794 0.25297 0.39201 0.0
C2831 C 0.36375 0.24305 0.41565 0.0
C2832 C 0.36811 0.2468 0.43389 0.0
C2833 C 0.36048 0.25137 0.40515 0.0
C2834 C 0.34365 0.26426 0.3928 0.0
H2835 H 0.34436 0.3244 0.36243 0.0
H2836 H 0.35526 0.31057 0.36847 0.0
H2837 H 0.32786 0.26568 0.37821 0.0
H2838 H 0.37302 0.26249 0.45518 0.0
H2839 H 0.36728 0.27702 0.43685 0.0
H2840 H 0.37315 0.29193 0.41038 0.0
C2841 C 0.34468 0.30651 0.37216 0.0
C2842 C 0.33781 0.27153 0.38505 0.0
C2843 C 0.3384 0.31439 0.36863 0.0
C2844 C 0.3698 0.25939 0.44113 0.0
C2845 C 0.36652 0.26772 0.43061 0.0
C2846 C 0.36332 0.28611 0.40325 0.0
C2847 C 0.33748 0.29372 0.38082 0.0
C2848 C 0.34452 0.28614 0.38667 0.0
C2849 C 0.36152 0.26362 0.41264 0.0
C2850 C 0.35631 0.27146 0.40238 0.0
H2851 H 0.30697 0.29259 0.38587 0.0
H2852 H 0.31793 0.27893 0.39204 0.0
H2853 H 0.36286 0.30464 0.39703 0.0
H2854 H 0.36261 0.23353 0.40961 0.0
H2855 H 0.35687 0.24807 0.39125 0.0
C2856 C 0.71181 0.03243 0.37468 0.0
C2857 C 0.69807 0.02639 0.36852 0.0
C2858 C 0.71991 0.04685 0.3774 0.0
C2859 C 0.71667 0.07733 0.38857 0.0
H2860 H 0.75569 0.09755 0.37966 0.0
C2861 C 0.76764 0.13597 0.40012 0.0
C2862 C 0.766 0.13845 0.41845 0.0
C2863 C 0.75862 0.12319 0.39142 0.0
C2864 C 0.74477 0.09213 0.38202 0.0
H2865 H 0.68228 0.03089 0.35963 0.0
H2866 H 0.69648 0.05613 0.36439 0.0
H2867 H 0.74164 0.0736 0.36805 0.0
H2868 H 0.75339 0.12949 0.44187 0.0
H2869 H 0.73764 0.10726 0.42669 0.0
H2870 H 0.71985 0.0958 0.40277 0.0
C2871 C 0.70091 0.04964 0.36726 0.0
C2872 C 0.73675 0.07836 0.37551 0.0
C2873 C 0.69281 0.03519 0.36442 0.0
C2874 C 0.75484 0.12802 0.42768 0.0
C2875 C 0.74581 0.11526 0.41897 0.0
C2876 C 0.7247 0.09109 0.39513 0.0
C2877 C 0.71447 0.0556 0.3741 0.0
C2878 C 0.72266 0.07071 0.37903 0.0
C2879 C 0.74772 0.11261 0.40083 0.0
C2880 C 0.7389 0.09855 0.39223 0.0
H2881 H 0.71623 0.02599 0.37791 0.0
H2882 H 0.73026 0.05109 0.38285 0.0
H2883 H 0.70586 0.0717 0.39163 0.0
H2884 H 0.776 0.14387 0.39254 0.0
H2885 H 0.76025 0.12154 0.37736 0.0
C2886 C 0.98528 0.69087 0.37366 0.0
C2887 C 0.98857 0.68163 0.36477 0.0
C2888 C 0.97344 0.68577 0.38384 0.0
C2889 C 0.93944 0.65432 0.38754 0.0
H2890 H 0.93745 0.67371 0.43071 0.0
C2891 C 0.88988 0.63444 0.42841 0.0
C2892 C 0.88641 0.64456 0.43348 0.0
C2893 C 0.90268 0.6384 0.42116 0.0
C2894 C 0.93785 0.66823 0.41861 0.0
H2895 H 0.9824 0.65983 0.36039 0.0
H2896 H 0.96188 0.65095 0.37846 0.0
H2897 H 0.95957 0.68154 0.41677 0.0
H2898 H 0.8936 0.66676 0.43455 0.0
H2899 H 0.91595 0.67364 0.4221 0.0
H2900 H 0.9177 0.64107 0.38935 0.0
C2901 C 0.96828 0.66213 0.3772 0.0
C2902 C 0.95051 0.67271 0.41062 0.0
C2903 C 0.98009 0.66722 0.36694 0.0
C2904 C 0.89602 0.65871 0.4311 0.0
C2905 C 0.90884 0.66266 0.42397 0.0
C2906 C 0.9268 0.64979 0.39559 0.0
C2907 C 0.96466 0.67133 0.38546 0.0
C2908 C 0.95143 0.66593 0.39484 0.0
C2909 C 0.91231 0.65256 0.41893 0.0
C2910 C 0.92584 0.65682 0.41106 0.0
H2911 H 0.99159 0.70203 0.37225 0.0
H2912 H 0.9709 0.69316 0.38984 0.0
H2913 H 0.93972 0.64899 0.37522 0.0
H2914 H 0.8828 0.62347 0.43031 0.0
H2915 H 0.90513 0.63039 0.41754 0.0
C2916 C 0.38333 0.02477 0.70726 0.0
C2917 C 0.37128 0.01425 0.69854 0.0
C2918 C 0.39171 0.0214 0.71754 0.0
C2919 C 0.39991 0.99326 0.72312 0.0
H2920 H 0.41963 0.01517 0.76623 0.0
C2921 C 0.44607 0.99132 0.75493 0.0
C2922 C 0.44787 0.9926 0.7739 0.0
C2923 C 0.43581 0.99298 0.74646 0.0
C2924 C 0.41409 0.00881 0.75435 0.0
H2925 H 0.35836 0.99188 0.69428 0.0
H2926 H 0.37286 0.98597 0.71252 0.0
H2927 H 0.40304 0.0197 0.75094 0.0
H2928 H 0.44 0.99607 0.79892 0.0
H2929 H 0.42197 -0.00124 0.7842 0.0
H2930 H 0.41078 0.98221 0.72672 0.0
C2931 C 0.37598 0.99686 0.7111 0.0
C2932 C 0.40469 0.01155 0.74543 0.0
C2933 C 0.36762 0.00024 0.70074 0.0
C2934 C 0.43899 0.99524 0.78425 0.0
C2935 C 0.42868 0.99682 0.7758 0.0
C2936 C 0.40926 0.99049 0.73209 0.0
C2937 C 0.38823 0.0074 0.71945 0.0
C2938 C 0.3976 0.00392 0.72958 0.0
C2939 C 0.42706 0.99587 0.75678 0.0
C2940 C 0.41658 -0.00168 0.74772 0.0
H2941 H 0.38649 0.03567 0.70581 0.0
H2942 H 0.40115 0.02981 0.72355 0.0
H2943 H 0.39475 0.98727 0.71085 0.0
H2944 H 0.45285 0.98944 0.74658 0.0
H2945 H 0.43501 0.99239 0.73178 0.0
C2946 C 0.98759 0.35715 0.70752 0.0
C2947 C 0.97466 0.3458 0.71151 0.0
C2948 C 0.99089 0.37078 0.71225 0.0
C2949 C 0.97592 0.39247 0.72672 0.0
H2950 H 0.01043 0.41422 0.75356 0.0
C2951 C 0.98591 0.43772 0.77571 0.0
C2952 C -0.00099 0.4497 0.77638 0.0
C2953 C 0.98343 0.42591 0.76549 0.0
C2954 C 0.00086 0.4084 0.74584 0.0
H2955 H 0.95481 0.33998 0.72263 0.0
H2956 H 0.96058 0.36367 0.73088 0.0
H2957 H 0.00513 0.39218 0.73871 0.0
H2958 H 0.01975 0.45873 0.76666 0.0
H2959 H 0.01542 0.43805 0.74883 0.0
H2960 H 0.97152 0.40854 0.7342 0.0
C2961 C 0.96816 0.36207 0.72407 0.0
C2962 C -0.00217 0.39578 0.73729 0.0
C2963 C 0.96489 0.34846 0.71945 0.0
C2964 C 0.00959 0.44959 0.76662 0.0
C2965 C 0.00711 0.43776 0.75638 0.0
C2966 C 0.97895 0.4051 0.73524 0.0
C2967 C 0.9813 0.37335 0.72092 0.0
C2968 C 0.9852 0.38753 0.72796 0.0
C2969 C 0.99399 0.4258 0.75568 0.0
C2970 C 0.99133 0.41306 0.74522 0.0
H2971 H 0.99535 0.35548 0.70137 0.0
H2972 H 0.00104 0.3793 0.70945 0.0
H2973 H 0.9662 0.38645 0.71939 0.0
H2974 H 0.97759 0.43738 0.7833 0.0
H2975 H 0.97328 0.41676 0.76555 0.0
C2976 C 0.62919 0.64098 0.68198 0.0
C2977 C 0.6398 0.63795 0.68447 0.0
C2978 C 0.61845 0.63621 0.69409 0.0
C2979 C 0.60797 0.62136 0.73975 0.0
H2980 H 0.57123 0.60604 0.71892 0.0
C2981 C 0.55906 0.58123 0.77462 0.0
C2982 C 0.54728 0.58248 0.77305 0.0
C2983 C 0.57094 0.59028 0.76562 0.0
C2984 C 0.58144 0.6105 0.72499 0.0
H2985 H 0.6476 0.62772 0.70172 0.0
H2986 H 0.62865 0.61902 0.72257 0.0
H2987 H 0.59091 0.61734 0.69946 0.0
H2988 H 0.53876 0.59439 0.76142 0.0
H2989 H 0.55961 0.61023 0.74544 0.0
H2990 H 0.59834 0.61392 0.76518 0.0
C2991 C 0.62876 0.62535 0.71149 0.0
C2992 C 0.59273 0.61699 0.71384 0.0
C2993 C 0.63957 0.63023 0.69947 0.0
C2994 C 0.54774 0.59325 0.76285 0.0
C2995 C 0.5596 0.60223 0.75365 0.0
C2996 C 0.59665 0.61476 0.75087 0.0
C2997 C 0.61802 0.6282 0.70887 0.0
C2998 C 0.60613 0.62231 0.72104 0.0
C2999 C 0.57123 0.60068 0.75475 0.0
C3000 C 0.58328 0.60908 0.74353 0.0
H3001 H 0.62917 0.64706 0.67067 0.0
H3002 H 0.61048 0.63881 0.69184 0.0
H3003 H 0.61816 0.62558 0.74579 0.0
H3004 H 0.55898 0.57307 0.78257 0.0
H3005 H 0.57971 0.58877 0.76658 0.0
C3006 C 0.66459 0.68726 0.64856 0.0
C3007 C 0.67817 0.6917 0.64365 0.0
C3008 C 0.65831 0.6949 0.64367 0.0
C3009 C 0.66054 0.71815 0.60788 0.0
H3010 H 0.63441 0.72319 0.63599 0.0
C3011 C 0.63218 0.75208 0.60241 0.0
C3012 C 0.62854 0.74982 0.58382 0.0
C3013 C 0.63651 0.74385 0.6112 0.0
C3014 C 0.6417 0.72186 0.62801 0.0
H3015 H 0.6962 0.70832 0.63129 0.0
H3016 H 0.68529 0.7217 0.62304 0.0
H3017 H 0.64675 0.71261 0.64988 0.0
H3018 H 0.62566 0.73658 0.56019 0.0
H3019 H 0.6329 0.72201 0.57564 0.0
H3020 H 0.65576 0.72756 0.58614 0.0
C3021 C 0.67939 0.71212 0.63022 0.0
C3022 C 0.64871 0.71576 0.63593 0.0
C3023 C 0.68566 0.70449 0.63504 0.0
C3024 C 0.62836 0.73855 0.57452 0.0
C3025 C 0.63267 0.73032 0.58332 0.0
C3026 C 0.65354 0.72418 0.59999 0.0
C3027 C 0.6655 0.70713 0.63386 0.0
C3028 C 0.65826 0.71393 0.62595 0.0
C3029 C 0.63725 0.73321 0.60157 0.0
C3030 C 0.64404 0.7261 0.60993 0.0
H3031 H 0.65854 0.67751 0.65531 0.0
H3032 H 0.64759 0.69079 0.64666 0.0
H3033 H 0.66765 0.71665 0.59972 0.0
H3034 H 0.63221 0.76057 0.60998 0.0
H3035 H 0.63999 0.74634 0.62526 0.0
C3036 C 0.30657 0.96357 0.64973 0.0
C3037 C 0.30247 0.97311 0.64449 0.0
C3038 C 0.29816 0.94928 0.64572 0.0
C3039 C 0.27488 0.91853 0.64154 0.0
H3040 H 0.25976 0.91026 0.5923 0.0
C3041 C 0.23288 0.86358 0.61433 0.0
C3042 C 0.2341 0.85976 0.59645 0.0
C3043 C 0.24209 0.87692 0.62149 0.0
C3044 C 0.264 0.91238 0.60604 0.0
H3045 H 0.28589 0.97493 0.63196 0.0
H3046 H 0.27133 0.95014 0.62509 0.0
H3047 H 0.27365 0.93441 0.60296 0.0
H3048 H 0.24623 0.86683 0.57227 0.0
H3049 H 0.26237 0.88999 0.58483 0.0
H3050 H 0.26514 0.89637 0.6445 0.0
C3051 C 0.28114 0.95372 0.63199 0.0
C3052 C 0.27182 0.92621 0.61222 0.0
C3053 C 0.28948 0.96794 0.63602 0.0
C3054 C 0.24506 0.86938 0.58615 0.0
C3055 C 0.25422 0.88271 0.59327 0.0
C3056 C 0.26692 0.90461 0.63537 0.0
C3057 C 0.28553 0.94428 0.63636 0.0
C3058 C 0.27729 0.92946 0.63005 0.0
C3059 C 0.25266 0.88674 0.61086 0.0
C3060 C 0.26142 0.90141 0.61753 0.0
H3061 H 0.31649 0.96717 0.65631 0.0
H3062 H 0.30182 0.94223 0.64924 0.0
H3063 H 0.27895 0.92073 0.65536 0.0
H3064 H 0.22462 0.85635 0.62266 0.0
H3065 H 0.2406 0.87974 0.63507 0.0
C3066 C 0.01964 0.33063 0.65059 0.0
C3067 C 0.0212 0.33476 0.66902 0.0
C3068 C 0.03111 0.33541 0.6397 0.0
C3069 C 0.06826 0.36186 0.63774 0.0
H3070 H 0.06933 0.33397 0.60632 0.0
C3071 C 0.11831 0.36794 0.60849 0.0
C3072 C 0.11775 0.36322 0.59049 0.0
C3073 C 0.10635 0.36565 0.61695 0.0
C3074 C 0.06912 0.34194 0.61483 0.0
H3075 H 0.03596 0.34753 0.69029 0.0
H3076 H 0.05592 0.35562 0.67143 0.0
H3077 H 0.04863 0.32799 0.62285 0.0
H3078 H 0.1043 0.35301 0.56699 0.0
H3079 H 0.08345 0.34891 0.58182 0.0
H3080 H 0.08895 0.37569 0.63003 0.0
C3081 C 0.04586 0.34886 0.66529 0.0
C3082 C 0.05724 0.33853 0.62428 0.0
C3083 C 0.0344 0.34414 0.67615 0.0
C3084 C 0.10504 0.35649 0.581 0.0
C3085 C 0.0931 0.35418 0.58947 0.0
C3086 C 0.08019 0.36526 0.62835 0.0
C3087 C 0.04438 0.34437 0.64701 0.0
C3088 C 0.0567 0.3484 0.63598 0.0
C3089 C 0.0936 0.35859 0.60759 0.0
C3090 C 0.08077 0.35529 0.61691 0.0
H3091 H 0.00959 0.3235 0.64465 0.0
H3092 H 0.02959 0.33194 0.62559 0.0
H3093 H 0.06812 0.36978 0.64644 0.0
H3094 H 0.12792 0.37304 0.61622 0.0
H3095 H 0.10703 0.36904 0.63099 0.0
C3096 C 0.28227 0.31612 0.64681 0.0
C3097 C 0.29556 0.32514 0.65396 0.0
C3098 C 0.27518 0.32135 0.63711 0.0
C3099 C 0.27364 0.35349 0.63166 0.0
H3100 H 0.25024 0.3332 0.58994 0.0
C3101 C 0.2314 0.36374 0.60323 0.0
C3102 C 0.22913 0.36269 0.58433 0.0
C3103 C 0.24069 0.36031 0.61101 0.0
C3104 C 0.25683 0.33909 0.60145 0.0
H3105 H 0.31199 0.34672 0.65603 0.0
H3106 H 0.29962 0.35584 0.63895 0.0
H3107 H 0.26444 0.32496 0.60405 0.0
H3108 H 0.23539 0.35798 0.55872 0.0
H3109 H 0.2516 0.35205 0.57226 0.0
H3110 H 0.26604 0.36766 0.629 0.0
C3111 C 0.29462 0.34473 0.64108 0.0
C3112 C 0.26486 0.33427 0.60966 0.0
C3113 C 0.30174 0.33948 0.65075 0.0
C3114 C 0.23671 0.35862 0.57335 0.0
C3115 C 0.24599 0.35521 0.58111 0.0
C3116 C 0.26558 0.35831 0.62346 0.0
C3117 C 0.28119 0.33574 0.63433 0.0
C3118 C 0.27327 0.34134 0.62496 0.0
C3119 C 0.24793 0.35579 0.60005 0.0
C3120 C 0.257 0.3511 0.60834 0.0
H3121 H 0.2772 0.30502 0.64903 0.0
H3122 H 0.2648 0.31416 0.63227 0.0
H3123 H 0.2799 0.35911 0.64354 0.0
H3124 H 0.22564 0.36672 0.61206 0.0
H3125 H 0.24183 0.36073 0.62565 0.0
C3126 C 0.66649 0.96415 0.64122 0.0
C3127 C 0.68049 0.97258 0.63747 0.0
C3128 C 0.65975 0.94977 0.63755 0.0
C3129 C 0.6653 0.92015 0.62744 0.0
H3130 H 0.63146 0.90545 0.5988 0.0
C3131 C 0.63295 0.87272 0.57258 0.0
C3132 C 0.6331 0.86171 0.58149 0.0
C3133 C 0.63693 0.88535 0.58187 0.0
C3134 C 0.64087 0.9094 0.60683 0.0
H3135 H 0.69854 0.97237 0.62795 0.0
H3136 H 0.68678 0.94734 0.62162 0.0
H3137 H 0.64242 0.92928 0.61139 0.0
H3138 H 0.63666 0.85498 0.60743 0.0
H3139 H 0.64367 0.87705 0.62359 0.0
H3140 H 0.66404 0.90048 0.62232 0.0
C3141 C 0.68102 0.95183 0.62738 0.0
C3142 C 0.64708 0.92298 0.6142 0.0
C3143 C 0.68774 0.9662 0.63093 0.0
C3144 C 0.6367 0.86337 0.60009 0.0
C3145 C 0.6407 0.87599 0.60935 0.0
C3146 C 0.65906 0.90655 0.62016 0.0
C3147 C 0.66688 0.94351 0.63022 0.0
C3148 C 0.6595 0.92859 0.62428 0.0
C3149 C 0.64115 0.88722 0.60025 0.0
C3150 C 0.64692 0.90112 0.60948 0.0
H3151 H 0.66059 0.9687 0.64631 0.0
H3152 H 0.64888 0.94358 0.64008 0.0
H3153 H 0.6748 0.92416 0.63527 0.0
H3154 H 0.63037 0.87181 0.55822 0.0
H3155 H 0.6373 0.89385 0.57442 0.0
C3156 C 0.01381 0.7081 0.63111 0.0
C3157 C 0.0121 0.69829 0.64411 0.0
C3158 C 0.02514 0.71358 0.61991 0.0
C3159 C 0.05367 0.70889 0.60375 0.0
H3160 H 0.07341 0.74929 0.60299 0.0
C3161 C 0.11107 0.74166 0.58657 0.0
C3162 C 0.11535 0.75409 0.57737 0.0
C3163 C 0.09749 0.73375 0.59201 0.0
C3164 C 0.06794 0.73799 0.60274 0.0
H3165 H 0.02049 0.68592 0.65479 0.0
H3166 H 0.04026 0.69555 0.63536 0.0
H3167 H 0.05106 0.73718 0.61665 0.0
H3168 H 0.10868 0.76753 0.56557 0.0
H3169 H 0.08497 0.75366 0.57479 0.0
H3170 H 0.07074 0.70977 0.59011 0.0
C3171 C 0.03284 0.69898 0.63376 0.0
C3172 C 0.05509 0.73105 0.61057 0.0
C3173 C 0.02155 0.69353 0.645 0.0
C3174 C 0.1057 0.75814 0.57301 0.0
C3175 C 0.09214 0.7502 0.5783 0.0
C3176 C 0.06653 0.71585 0.59584 0.0
C3177 C 0.03494 0.70931 0.62142 0.0
C3178 C 0.0479 0.71644 0.61139 0.0
C3179 C 0.08793 0.73808 0.5882 0.0
C3180 C 0.07388 0.7305 0.59545 0.0
H3181 H 0.00666 0.71191 0.63 0.0
H3182 H 0.0264 0.7214 0.61033 0.0
H3183 H 0.04829 0.69761 0.60404 0.0
H3184 H 0.11834 0.73834 0.59011 0.0
H3185 H 0.09462 0.72453 0.59977 0.0
C3186 C 0.99149 0.63931 0.70301 0.0
C3187 C 0.97883 0.63797 0.70771 0.0
C3188 C 0.99478 0.6292 0.70799 0.0
C3189 C 0.99697 0.60317 0.71596 0.0
H3190 H 0.98871 0.59361 0.76636 0.0
C3191 C 0.00262 0.56012 0.75217 0.0
C3192 C 0.0078 0.56316 0.77016 0.0
C3193 C 0.00012 0.56951 0.74283 0.0
C3194 C 0.99118 0.59626 0.75231 0.0
H3195 H 0.95921 0.62435 0.71976 0.0
H3196 H 0.96493 0.60675 0.72828 0.0
H3197 H 0.98148 0.60857 0.75218 0.0
H3198 H 0.01489 0.57861 0.79224 0.0
H3199 H 0.01064 0.59504 0.77588 0.0
H3200 H 0.0068 0.59085 0.71629 0.0
C3201 C 0.97242 0.61575 0.72115 0.0
C3202 C 0.98687 0.60466 0.74412 0.0
C3203 C 0.96914 0.62583 0.71621 0.0
C3204 C 0.01097 0.57601 0.77836 0.0
C3205 C 0.00842 0.58535 0.76906 0.0
C3206 C 0.00121 0.59463 0.72417 0.0
C3207 C 0.98545 0.6176 0.71771 0.0
C3208 C 0.98971 0.60821 0.72588 0.0
C3209 C 0.00267 0.58205 0.75137 0.0
C3210 C -0.00158 0.59118 0.74247 0.0
H3211 H -0.00084 0.64851 0.69638 0.0
H3212 H 0.0049 0.63087 0.70518 0.0
H3213 H -0.00072 0.60576 0.70188 0.0
H3214 H 0.00023 0.55035 0.74546 0.0
H3215 H 0.99565 0.56668 0.72923 0.0
C3216 C 0.37693 0.36707 0.71489 0.0
C3217 C 0.36362 0.36199 0.70752 0.0
C3218 C 0.38559 0.38132 0.71845 0.0
C3219 C 0.38427 0.41291 0.72948 0.0
H3220 H 0.42359 0.43114 0.72311 0.0
C3221 C 0.43697 0.46983 0.74363 0.0
C3222 C 0.43497 0.47238 0.76178 0.0
C3223 C 0.42769 0.45731 0.73458 0.0
C3224 C 0.41261 0.42629 0.72477 0.0
H3225 H 0.34921 0.36804 0.69747 0.0
H3226 H 0.3644 0.39298 0.70374 0.0
H3227 H 0.40881 0.40755 0.71071 0.0
H3228 H 0.42145 0.46385 0.7845 0.0
H3229 H 0.40526 0.44206 0.7687 0.0
H3230 H 0.3881 0.43159 0.74377 0.0
C3231 C 0.36804 0.38586 0.70687 0.0
C3232 C 0.40416 0.41272 0.71782 0.0
C3233 C 0.35938 0.37158 0.70318 0.0
C3234 C 0.42321 0.46232 0.77045 0.0
C3235 C 0.41392 0.44981 0.76139 0.0
C3236 C 0.39273 0.42647 0.7365 0.0
C3237 C 0.38116 0.39085 0.71481 0.0
C3238 C 0.38993 0.40579 0.72038 0.0
C3239 C 0.41618 0.44706 0.74345 0.0
C3240 C 0.40702 0.43322 0.7345 0.0
H3241 H 0.38057 0.36 0.71834 0.0
H3242 H 0.39558 0.3848 0.72474 0.0
H3243 H 0.37336 0.40782 0.7318 0.0
H3244 H 0.44579 0.47747 0.73646 0.0
H3245 H 0.42961 0.45559 0.72068 0.0
C3246 C 0.64624 0.02482 0.67964 0.0
C3247 C 0.65105 0.01535 0.67836 0.0
C3248 C 0.63483 0.02181 0.68992 0.0
C3249 C 0.61305 -0.00056 0.7262 0.0
H3250 H 0.58733 0.00983 0.70683 0.0
C3251 C 0.56128 0.98472 0.7594 0.0
C3252 C 0.55859 0.99575 0.76152 0.0
C3253 C 0.57225 0.98633 0.74901 0.0
C3254 C 0.59446 0.00693 0.71244 0.0
H3255 H 0.64781 0.99537 0.68709 0.0
H3256 H 0.62767 0.98998 0.70485 0.0
H3257 H 0.60717 0.01405 0.68934 0.0
H3258 H 0.56502 0.01696 0.7542 0.0
H3259 H 0.58413 0.01976 0.73601 0.0
H3260 H 0.60018 0.99224 0.74928 0.0
C3261 C 0.63285 -0.00017 0.69808 0.0
C3262 C 0.60585 0.00939 0.70247 0.0
C3263 C 0.64435 0.00289 0.68786 0.0
C3264 C 0.56693 0.00833 0.75289 0.0
C3265 C 0.57779 0.00989 0.74237 0.0
C3266 C 0.60157 0.99689 0.73613 0.0
C3267 C 0.62787 0.0092 0.69905 0.0
C3268 C 0.6154 0.00587 0.70934 0.0
C3269 C 0.58059 -0.00107 0.74038 0.0
C3270 C 0.59228 0.00079 0.72944 0.0
H3271 H 0.65125 0.03458 0.67263 0.0
H3272 H 0.63148 0.02941 0.69071 0.0
H3273 H 0.62026 0.99671 0.73196 0.0
H3274 H 0.55504 0.97494 0.76602 0.0
H3275 H 0.57414 0.9777 0.7476 0.0
loop_
_geom_bond_atom_site_label_1
_geom_bond_atom_site_label_2
_geom_bond_distance
_geom_bond_site_symmetry_2
_ccdc_geom_bond_type
Mg0 O1 2.028 1_556 S
Mg0 O7 1.986 1_455 S
Mg0 O9 2.114 . S
Mg0 O10 2.236 1_455 S
Mg0 O13 2.010 1_556 S
O1 Mg0 2.028 1_554 S
O1 C4 1.250 1_455 S
O2 Mg3 2.028 1_554 S
O2 C4 1.248 . S
Mg3 O2 2.028 1_556 S
Mg3 O8 2.032 . S
Mg3 O10 2.098 . S
C4 O1 1.250 1_655 S
C4 O2 1.248 . S
C5 O6 1.264 . S
C5 O13 1.249 . S
O6 C5 1.264 . S
O7 Mg0 1.986 1_655 S
O7 C11 1.246 . S
O8 Mg3 2.032 . S
O8 C11 1.259 . S
O9 Mg0 2.114 . S
O9 C12 1.252 . S
O10 Mg0 2.236 1_655 S
O10 Mg3 2.098 . S
O10 C12 1.258 1_655 S
C11 O7 1.246 . S
C11 O8 1.259 . S
C12 O9 1.252 . S
C12 O10 1.258 1_455 S
O13 Mg0 2.010 1_554 S
O13 C5 1.249 . S
Mg14 O15 2.028 1_554 S
Mg14 O21 1.986 . S
Mg14 O23 2.114 . S
Mg14 O24 2.251 . S
Mg14 O27 2.010 . S
O15 Mg14 2.028 1_556 S
O15 C18 1.250 . S
O16 Mg17 2.028 . S
O16 C18 1.248 1_554 S
Mg17 O16 2.028 . S
Mg17 O22 2.032 . S
Mg17 O24 2.079 . S
C18 O15 1.250 . S
C18 O16 1.248 1_556 S
C19 O20 1.264 . S
C19 O27 1.249 . S
O20 C19 1.264 . S
O21 Mg14 1.986 . S
O21 C25 1.246 . S
O22 Mg17 2.032 . S
O22 C25 1.259 . S
O23 Mg14 2.114 . S
O23 C26 1.252 . S
O24 Mg14 2.251 . S
O24 Mg17 2.079 . S
O24 C26 1.273 . S
C25 O21 1.246 . S
C25 O22 1.259 . S
C26 O23 1.252 . S
C26 O24 1.273 . S
O27 Mg14 2.010 . S
O27 C19 1.249 . S
Mg28 O29 2.032 1_566 S
Mg28 O35 1.986 1_565 S
Mg28 O37 2.114 . S
Mg28 O38 2.251 1_565 S
Mg28 O41 2.010 1_556 S
O29 Mg28 2.032 1_544 S
O29 C32 1.257 . S
O30 Mg31 2.028 1_554 S
O30 C32 1.248 . S
Mg31 O30 2.028 1_556 S
Mg31 O36 2.032 . S
Mg31 O38 2.079 . S
C32 O29 1.257 . S
C32 O30 1.248 . S
C33 O34 1.264 . S
C33 O41 1.249 . S
O34 C33 1.264 . S
O35 Mg28 1.986 1_545 S
O35 C39 1.247 . S
O36 Mg31 2.032 . S
O36 C39 1.259 . S
O37 Mg28 2.114 . S
O37 C40 1.252 . S
O38 Mg28 2.251 1_545 S
O38 Mg31 2.079 . S
O38 C40 1.273 1_545 S
C39 O35 1.247 . S
C39 O36 1.259 . S
C40 O37 1.252 . S
C40 O38 1.273 1_565 S
O41 Mg28 2.010 1_554 S
O41 C33 1.249 . S
Mg42 O43 2.028 1_654 S
Mg42 O49 1.986 1_655 S
Mg42 O51 2.114 . S
Mg42 O52 2.251 1_655 S
Mg42 O55 2.010 . S
O43 Mg42 2.028 1_456 S
O43 C46 1.251 . S
O44 Mg45 2.040 . S
O44 C46 1.241 1_554 S
Mg45 O44 2.040 . S
Mg45 O50 2.032 . S
Mg45 O52 2.079 . S
C46 O43 1.251 . S
C46 O44 1.241 1_556 S
C47 O48 1.264 . S
C47 O55 1.249 . S
O48 C47 1.264 . S
O49 Mg42 1.986 1_455 S
O49 C53 1.246 . S
O50 Mg45 2.032 . S
O50 C53 1.259 . S
O51 Mg42 2.114 . S
O51 C54 1.252 . S
O52 Mg42 2.251 1_455 S
O52 Mg45 2.079 . S
O52 C54 1.273 1_455 S
C53 O49 1.246 . S
C53 O50 1.259 . S
C54 O51 1.252 . S
C54 O52 1.273 1_655 S
O55 Mg42 2.010 . S
O55 C47 1.249 . S
Mg56 O57 2.030 . S
Mg56 O63 1.986 1_554 S
Mg56 O65 2.113 1_554 S
Mg56 O66 2.250 1_554 S
Mg56 O69 2.011 . S
O57 Mg56 2.030 . S
O57 C60 1.250 . S
O58 Mg59 2.028 1_554 S
O58 C60 1.248 . S
Mg59 O58 2.028 1_556 S
Mg59 O64 2.032 . S
Mg59 O66 2.079 . S
C60 O57 1.250 . S
C60 O58 1.248 . S
C61 O62 1.264 . S
C61 O69 1.249 . S
O62 C61 1.264 . S
O63 Mg56 1.986 1_556 S
O63 C67 1.261 . S
O64 Mg59 2.032 . S
O64 C67 1.259 . S
O65 Mg56 2.113 1_556 S
O65 C68 1.252 . S
O66 Mg56 2.250 1_556 S
O66 Mg59 2.079 . S
O66 C68 1.273 . S
C67 O63 1.261 . S
C67 O64 1.259 . S
C68 O65 1.252 . S
C68 O66 1.273 . S
O69 Mg56 2.011 . S
O69 C61 1.249 . S
Mg70 O71 2.028 1_554 S
Mg70 O77 1.986 1_545 S
Mg70 O79 2.114 . S
Mg70 O80 2.251 1_545 S
Mg70 O83 2.010 . S
O71 Mg70 2.028 1_556 S
O71 C74 1.250 1_545 S
O72 Mg73 2.028 . S
O72 C74 1.248 1_554 S
Mg73 O72 2.028 . S
Mg73 O78 2.032 . S
Mg73 O80 2.079 . S
C74 O71 1.250 1_565 S
C74 O72 1.248 1_556 S
C75 O76 1.264 . S
C75 O83 1.249 . S
O76 C75 1.264 . S
O77 Mg70 1.986 1_565 S
O77 C81 1.246 . S
O78 Mg73 2.032 . S
O78 C81 1.259 . S
O79 Mg70 2.114 . S
O79 C82 1.252 . S
O80 Mg70 2.251 1_565 S
O80 Mg73 2.079 . S
O80 C82 1.273 1_565 S
C81 O77 1.246 . S
C81 O78 1.259 . S
C82 O79 1.252 . S
C82 O80 1.273 1_545 S
O83 Mg70 2.010 . S
O83 C75 1.249 . S
Mg84 O85 2.028 . S
Mg84 O91 1.986 . S
Mg84 O93 2.114 . S
Mg84 O94 2.251 . S
Mg84 O97 2.010 . S
O85 Mg84 2.028 . S
O85 C88 1.250 . S
O86 Mg87 2.028 . S
O86 C88 1.248 . S
Mg87 O86 2.028 . S
Mg87 O92 2.032 . S
Mg87 O94 2.079 . S
C88 O85 1.250 . S
C88 O86 1.248 . S
C89 O90 1.264 . S
C89 O97 1.249 . S
O90 C89 1.264 . S
O91 Mg84 1.986 . S
O91 C95 1.246 . S
O92 Mg87 2.032 . S
O92 C95 1.259 . S
O93 Mg84 2.114 . S
O93 C96 1.252 . S
O94 Mg84 2.251 . S
O94 Mg87 2.079 . S
O94 C96 1.273 . S
C95 O91 1.246 . S
C95 O92 1.259 . S
C96 O93 1.252 . S
C96 O94 1.273 . S
O97 Mg84 2.010 . S
O97 C89 1.249 . S
Mg98 O99 2.028 . S
Mg98 O105 1.986 1_565 S
Mg98 O107 2.114 . S
Mg98 O108 2.251 . S
Mg98 O111 2.010 . S
O99 Mg98 2.028 . S
O99 C102 1.250 . S
O100 Mg101 2.028 . S
O100 C102 1.248 . S
Mg101 O100 2.028 . S
Mg101 O106 2.032 1_565 S
Mg101 O108 2.079 . S
C102 O99 1.250 . S
C102 O100 1.248 . S
C103 O104 1.264 . S
C103 O111 1.249 . S
O104 C103 1.264 . S
O105 Mg98 1.986 1_545 S
O105 C109 1.246 . S
O106 Mg101 2.032 1_545 S
O106 C109 1.259 . S
O107 Mg98 2.114 . S
O107 C110 1.252 . S
O108 Mg98 2.251 . S
O108 Mg101 2.079 . S
O108 C110 1.273 . S
C109 O105 1.246 . S
C109 O106 1.259 . S
C110 O107 1.252 . S
C110 O108 1.273 . S
O111 Mg98 2.010 . S
O111 C103 1.249 . S
Mg112 O113 2.028 . S
Mg112 O119 1.986 . S
Mg112 O121 2.114 . S
Mg112 O122 2.251 . S
Mg112 O125 2.010 1_455 S
O113 Mg112 2.028 . S
O113 C116 1.250 . S
O114 Mg115 2.028 . S
O114 C116 1.248 . S
Mg115 O114 2.028 . S
Mg115 O120 2.032 . S
Mg115 O122 2.079 . S
C116 O113 1.250 . S
C116 O114 1.248 . S
C117 O118 1.264 . S
C117 O125 1.249 . S
O118 C117 1.264 . S
O119 Mg112 1.986 . S
O119 C123 1.246 . S
O120 Mg115 2.032 . S
O120 C123 1.259 . S
O121 Mg112 2.114 . S
O121 C124 1.252 . S
O122 Mg112 2.251 . S
O122 Mg115 2.079 . S
O122 C124 1.273 . S
C123 O119 1.246 . S
C123 O120 1.259 . S
C124 O121 1.252 . S
C124 O122 1.273 . S
O125 Mg112 2.010 1_655 S
O125 C117 1.249 . S
Mg126 O127 2.028 . S
Mg126 O133 1.986 1_565 S
Mg126 O135 2.114 . S
Mg126 O136 2.251 . S
Mg126 O139 2.010 . S
O127 Mg126 2.028 . S
O127 C130 1.250 . S
O128 Mg129 2.028 . S
O128 C130 1.248 . S
Mg129 O128 2.028 . S
Mg129 O134 2.044 . S
Mg129 O136 2.079 . S
C130 O127 1.250 . S
C130 O128 1.248 . S
C131 O132 1.264 . S
C131 O139 1.249 . S
O132 C131 1.264 . S
O133 Mg126 1.986 1_545 S
O133 C137 1.246 . S
O134 Mg129 2.044 . S
O134 C137 1.249 1_565 S
O135 Mg126 2.114 . S
O135 C138 1.252 . S
O136 Mg126 2.251 . S
O136 Mg129 2.079 . S
O136 C138 1.273 . S
C137 O133 1.246 . S
C137 O134 1.249 1_545 S
C138 O135 1.252 . S
C138 O136 1.273 . S
O139 Mg126 2.010 . S
O139 C131 1.249 . S
Mg140 O141 2.028 . S
Mg140 O147 1.986 . S
Mg140 O149 2.114 . S
Mg140 O150 2.251 . S
Mg140 O153 2.010 1_455 S
O141 Mg140 2.028 . S
O141 C144 1.250 . S
O142 Mg143 2.028 . S
O142 C144 1.248 . S
Mg143 O142 2.028 . S
Mg143 O148 2.032 . S
Mg143 O150 2.079 . S
C144 O141 1.250 . S
C144 O142 1.248 . S
C145 O146 1.264 . S
C145 O153 1.249 . S
O146 C145 1.264 . S
O147 Mg140 1.986 . S
O147 C151 1.246 . S
O148 Mg143 2.032 . S
O148 C151 1.259 . S
O149 Mg140 2.114 . S
O149 C152 1.252 . S
O150 Mg140 2.251 . S
O150 Mg143 2.079 . S
O150 C152 1.273 . S
C151 O147 1.246 . S
C151 O148 1.259 . S
C152 O149 1.252 . S
C152 O150 1.273 . S
O153 Mg140 2.010 1_655 S
O153 C145 1.249 . S
Mg154 O155 2.028 . S
Mg154 O161 1.986 . S
Mg154 O163 2.114 . S
Mg154 O164 2.251 . S
Mg154 O167 2.010 . S
O155 Mg154 2.028 . S
O155 C158 1.250 . S
O156 Mg157 2.028 . S
O156 C158 1.248 . S
Mg157 O156 2.028 . S
Mg157 O162 2.032 . S
Mg157 O164 2.079 . S
C158 O155 1.250 . S
C158 O156 1.248 . S
C159 O160 1.264 . S
C159 O167 1.249 . S
O160 C159 1.264 . S
O161 Mg154 1.986 . S
O161 C165 1.246 . S
O162 Mg157 2.032 . S
O162 C165 1.259 . S
O163 Mg154 2.114 . S
O163 C166 1.252 . S
O164 Mg154 2.251 . S
O164 Mg157 2.079 . S
O164 C166 1.273 . S
C165 O161 1.246 . S
C165 O162 1.259 . S
C166 O163 1.252 . S
C166 O164 1.273 . S
O167 Mg154 2.010 . S
O167 C159 1.249 . S
Mg168 O169 2.028 . S
Mg168 O175 1.985 1_545 S
Mg168 O177 2.114 . S
Mg168 O178 2.251 . S
Mg168 O181 2.010 . S
O169 Mg168 2.028 . S
O169 C172 1.250 . S
O170 Mg171 2.028 . S
O170 C172 1.248 . S
Mg171 O170 2.028 . S
Mg171 O176 2.032 . S
Mg171 O178 2.079 . S
C172 O169 1.250 . S
C172 O170 1.248 . S
C173 O174 1.264 . S
C173 O181 1.249 . S
O174 C173 1.264 . S
O175 Mg168 1.985 1_565 S
O175 C179 1.246 . S
O176 Mg171 2.032 . S
O176 C179 1.259 1_545 S
O177 Mg168 2.114 . S
O177 C180 1.252 . S
O178 Mg168 2.251 . S
O178 Mg171 2.079 . S
O178 C180 1.273 . S
C179 O175 1.246 . S
C179 O176 1.259 1_565 S
C180 O177 1.252 . S
C180 O178 1.273 . S
O181 Mg168 2.010 . S
O181 C173 1.249 . S
Mg182 O183 2.028 . S
Mg182 O189 1.986 . S
Mg182 O191 2.114 . S
Mg182 O192 2.251 . S
Mg182 O195 2.010 1_655 S
O183 Mg182 2.028 . S
O183 C186 1.250 . S
O184 Mg185 2.028 . S
O184 C186 1.248 . S
Mg185 O184 2.028 . S
Mg185 O190 2.032 . S
Mg185 O192 2.079 . S
C186 O183 1.250 . S
C186 O184 1.248 . S
C187 O188 1.264 . S
C187 O195 1.249 . S
O188 C187 1.264 . S
O189 Mg182 1.986 . S
O189 C193 1.246 . S
O190 Mg185 2.032 . S
O190 C193 1.259 . S
O191 Mg182 2.114 . S
O191 C194 1.252 . S
O192 Mg182 2.251 . S
O192 Mg185 2.079 . S
O192 C194 1.273 . S
C193 O189 1.246 . S
C193 O190 1.259 . S
C194 O191 1.252 . S
C194 O192 1.273 . S
O195 Mg182 2.010 1_455 S
O195 C187 1.249 . S
Mg196 O197 2.028 . S
Mg196 O203 1.986 . S
Mg196 O205 2.114 . S
Mg196 O206 2.251 . S
Mg196 O209 2.010 . S
O197 Mg196 2.028 . S
O197 C200 1.250 . S
O198 Mg199 2.028 . S
O198 C200 1.248 . S
Mg199 O198 2.028 . S
Mg199 O204 2.032 . S
Mg199 O206 2.079 . S
C200 O197 1.250 . S
C200 O198 1.248 . S
C201 O202 1.264 . S
C201 O209 1.249 . S
O202 C201 1.264 . S
O203 Mg196 1.986 . S
O203 C207 1.246 . S
O204 Mg199 2.032 . S
O204 C207 1.259 . S
O205 Mg196 2.114 . S
O205 C208 1.252 . S
O206 Mg196 2.251 . S
O206 Mg199 2.079 . S
O206 C208 1.273 . S
C207 O203 1.246 . S
C207 O204 1.259 . S
C208 O205 1.252 . S
C208 O206 1.273 . S
O209 Mg196 2.010 . S
O209 C201 1.249 . S
Mg210 O211 2.028 . S
Mg210 O217 1.986 . S
Mg210 O219 2.114 . S
Mg210 O220 2.251 . S
Mg210 O223 2.010 . S
O211 Mg210 2.028 . S
O211 C214 1.250 . S
O212 Mg213 2.028 . S
O212 C214 1.248 . S
Mg213 O212 2.028 . S
Mg213 O218 2.032 . S
Mg213 O220 2.079 . S
C214 O211 1.250 . S
C214 O212 1.248 . S
C215 O216 1.264 . S
C215 O223 1.249 . S
O216 C215 1.264 . S
O217 Mg210 1.986 . S
O217 C221 1.246 . S
O218 Mg213 2.032 . S
O218 C221 1.259 . S
O219 Mg210 2.114 . S
O219 C222 1.252 . S
O220 Mg210 2.251 . S
O220 Mg213 2.079 . S
O220 C222 1.273 . S
C221 O217 1.246 . S
C221 O218 1.259 . S
C222 O219 1.252 . S
C222 O220 1.273 . S
O223 Mg210 2.010 . S
O223 C215 1.249 . S
Mg224 O225 2.028 . S
Mg224 O231 1.986 1_545 S
Mg224 O233 2.114 . S
Mg224 O234 2.251 . S
Mg224 O237 2.010 . S
O225 Mg224 2.028 . S
O225 C228 1.250 . S
O226 Mg227 2.028 . S
O226 C228 1.248 . S
Mg227 O226 2.028 . S
Mg227 O232 1.992 1_545 S
Mg227 O234 2.079 . S
C228 O225 1.250 . S
C228 O226 1.248 . S
C229 O230 1.264 . S
C229 O237 1.249 . S
O230 C229 1.264 . S
O231 Mg224 1.986 1_565 S
O231 C235 1.246 . S
O232 Mg227 1.992 1_565 S
O232 C235 1.264 . S
O233 Mg224 2.114 . S
O233 C236 1.252 . S
O234 Mg224 2.251 . S
O234 Mg227 2.079 . S
O234 C236 1.273 . S
C235 O231 1.246 . S
C235 O232 1.264 . S
C236 O233 1.252 . S
C236 O234 1.273 . S
O237 Mg224 2.010 . S
O237 C229 1.249 . S
Mg238 O239 2.028 . S
Mg238 O245 1.986 . S
Mg238 O247 2.114 . S
Mg238 O248 2.251 . S
Mg238 O251 2.010 1_655 S
O239 Mg238 2.028 . S
O239 C242 1.250 . S
O240 Mg241 2.028 . S
O240 C242 1.248 . S
Mg241 O240 2.028 . S
Mg241 O246 2.032 . S
Mg241 O248 2.079 . S
C242 O239 1.250 . S
C242 O240 1.248 . S
C243 O244 1.264 . S
C243 O251 1.249 . S
O244 C243 1.264 . S
O245 Mg238 1.986 . S
O245 C249 1.246 . S
O246 Mg241 2.032 . S
O246 C249 1.259 . S
O247 Mg238 2.114 . S
O247 C250 1.252 . S
O248 Mg238 2.251 . S
O248 Mg241 2.079 . S
O248 C250 1.273 . S
C249 O245 1.246 . S
C249 O246 1.259 . S
C250 O247 1.252 . S
C250 O248 1.273 . S
O251 Mg238 2.010 1_455 S
O251 C243 1.249 . S
H252 C271 0.949 . S
H253 C272 0.950 . S
H254 C274 0.950 . S
H255 C275 0.950 . S
H256 C277 0.950 . S
H257 C280 0.950 . S
H258 C281 0.950 . S
H259 C283 0.951 . S
H260 C284 0.949 . S
H261 C286 0.949 . S
H262 C287 0.950 . S
H263 C289 0.950 . S
H264 C290 0.950 . S
H265 C292 0.950 . S
H266 C295 0.950 . S
H267 C296 0.950 . S
H268 C298 0.951 . S
H269 C299 0.949 . S
C270 C271 1.376 . S
C270 C275 1.386 . S
C270 C276 1.483 . S
C271 H252 0.949 . S
C271 C270 1.376 . S
C271 C272 1.397 . S
C272 H253 0.950 . S
C272 C271 1.397 . S
C272 C273 1.391 . S
C273 C272 1.391 . S
C273 C274 1.405 . S
C274 H254 0.950 . S
C274 C273 1.405 . S
C274 C275 1.367 . S
C275 H255 0.950 . S
C275 C270 1.386 . S
C275 C274 1.367 . S
C276 C270 1.483 . S
C276 C277 1.382 . S
C276 C278 1.403 . S
C277 H256 0.950 . S
C277 C276 1.382 . S
C277 C293 1.411 . S
C278 C276 1.403 . S
C278 C279 1.489 . S
C278 C292 1.411 . S
C279 C278 1.489 . S
C279 C280 1.383 . S
C279 C284 1.382 . S
C280 H257 0.950 . S
C280 C279 1.383 . S
C280 C281 1.395 . S
C281 H258 0.950 . S
C281 C280 1.395 . S
C281 C282 1.288 . S
C282 C281 1.288 . S
C282 C283 1.392 . S
C283 H259 0.951 . S
C283 C282 1.392 . S
C283 C284 1.392 . S
C284 H260 0.949 . S
C284 C279 1.382 . S
C284 C283 1.392 . S
C285 C286 1.376 . S
C285 C290 1.386 . S
C285 C291 1.483 . S
C286 H261 0.949 . S
C286 C285 1.376 . S
C286 C287 1.397 . S
C287 H262 0.950 . S
C287 C286 1.397 . S
C287 C288 1.391 . S
C288 C287 1.391 . S
C288 C289 1.405 . S
C289 H263 0.950 . S
C289 C288 1.405 . S
C289 C290 1.367 . S
C290 H264 0.950 . S
C290 C285 1.386 . S
C290 C289 1.367 . S
C291 C285 1.483 . S
C291 C292 1.382 . S
C291 C293 1.403 . S
C292 H265 0.950 . S
C292 C278 1.411 . S
C292 C291 1.382 . S
C293 C277 1.411 . S
C293 C291 1.403 . S
C293 C294 1.489 . S
C294 C293 1.489 . S
C294 C295 1.383 . S
C294 C299 1.382 . S
C295 H266 0.950 . S
C295 C294 1.383 . S
C295 C296 1.395 . S
C296 H267 0.950 . S
C296 C295 1.395 . S
C296 C297 1.288 . S
C297 C296 1.288 . S
C297 C298 1.392 . S
C298 H268 0.951 . S
C298 C297 1.392 . S
C298 C299 1.392 . S
C299 H269 0.949 . S
C299 C294 1.382 . S
C299 C298 1.392 . S
H300 C319 0.949 . S
H301 C320 0.950 . S
H302 C322 0.950 . S
H303 C323 0.950 . S
H304 C325 0.950 . S
H305 C328 0.950 . S
H306 C329 0.950 . S
H307 C331 0.951 . S
H308 C332 0.949 . S
H309 C334 0.949 . S
H310 C335 0.950 . S
H311 C337 0.950 . S
H312 C338 0.950 . S
H313 C340 0.950 . S
H314 C343 0.950 . S
H315 C344 0.950 . S
H316 C346 0.951 . S
H317 C347 0.949 . S
C318 C319 1.376 . S
C318 C323 1.386 . S
C318 C324 1.483 . S
C319 H300 0.949 . S
C319 C318 1.376 . S
C319 C320 1.397 . S
C320 H301 0.950 . S
C320 C319 1.397 . S
C320 C321 1.391 . S
C321 C320 1.391 . S
C321 C322 1.405 . S
C322 H302 0.950 . S
C322 C321 1.405 . S
C322 C323 1.367 . S
C323 H303 0.950 . S
C323 C318 1.386 . S
C323 C322 1.367 . S
C324 C318 1.483 . S
C324 C325 1.382 . S
C324 C326 1.403 . S
C325 H304 0.950 . S
C325 C324 1.382 . S
C325 C341 1.411 . S
C326 C324 1.403 . S
C326 C327 1.489 . S
C326 C340 1.411 . S
C327 C326 1.489 . S
C327 C328 1.383 . S
C327 C332 1.382 . S
C328 H305 0.950 . S
C328 C327 1.383 . S
C328 C329 1.395 . S
C329 H306 0.950 . S
C329 C328 1.395 . S
C329 C330 1.288 . S
C330 C329 1.288 . S
C330 C331 1.392 . S
C331 H307 0.951 . S
C331 C330 1.392 . S
C331 C332 1.392 . S
C332 H308 0.949 . S
C332 C327 1.382 . S
C332 C331 1.392 . S
C333 C334 1.376 . S
C333 C338 1.386 . S
C333 C339 1.483 . S
C334 H309 0.949 . S
C334 C333 1.376 . S
C334 C335 1.397 . S
C335 H310 0.950 . S
C335 C334 1.397 . S
C335 C336 1.391 . S
C336 C335 1.391 . S
C336 C337 1.405 . S
C337 H311 0.950 . S
C337 C336 1.405 . S
C337 C338 1.367 . S
C338 H312 0.950 . S
C338 C333 1.386 . S
C338 C337 1.367 . S
C339 C333 1.483 . S
C339 C340 1.382 . S
C339 C341 1.403 . S
C340 H313 0.950 . S
C340 C326 1.411 . S
C340 C339 1.382 . S
C341 C325 1.411 . S
C341 C339 1.403 . S
C341 C342 1.489 . S
C342 C341 1.489 . S
C342 C343 1.383 . S
C342 C347 1.382 . S
C343 H314 0.950 . S
C343 C342 1.383 . S
C343 C344 1.395 . S
C344 H315 0.950 . S
C344 C343 1.395 . S
C344 C345 1.288 . S
C345 C344 1.288 . S
C345 C346 1.392 . S
C346 H316 0.951 . S
C346 C345 1.392 . S
C346 C347 1.392 . S
C347 H317 0.949 . S
C347 C342 1.382 . S
C347 C346 1.392 . S
H348 C367 0.949 . S
H349 C368 0.950 . S
H350 C370 0.950 . S
H351 C371 0.950 . S
H352 C373 0.950 . S
H353 C376 0.950 . S
H354 C377 0.950 . S
H355 C379 0.951 . S
H356 C380 0.949 . S
H357 C382 0.949 . S
H358 C383 0.950 . S
H359 C385 0.950 . S
H360 C386 0.950 . S
H361 C388 0.950 . S
H362 C391 0.950 . S
H363 C392 0.950 . S
H364 C394 0.951 . S
H365 C395 0.949 . S
C366 C367 1.376 . S
C366 C371 1.386 . S
C366 C372 1.483 . S
C367 H348 0.949 . S
C367 C366 1.376 . S
C367 C368 1.397 . S
C368 H349 0.950 . S
C368 C367 1.397 . S
C368 C369 1.391 . S
C369 C368 1.391 . S
C369 C370 1.405 . S
C370 H350 0.950 . S
C370 C369 1.405 . S
C370 C371 1.367 . S
C371 H351 0.950 . S
C371 C366 1.386 . S
C371 C370 1.367 . S
C372 C366 1.483 . S
C372 C373 1.382 . S
C372 C374 1.403 . S
C373 H352 0.950 . S
C373 C372 1.382 . S
C373 C389 1.411 . S
C374 C372 1.403 . S
C374 C375 1.489 . S
C374 C388 1.411 . S
C375 C374 1.489 . S
C375 C376 1.383 . S
C375 C380 1.382 . S
C376 H353 0.950 . S
C376 C375 1.383 . S
C376 C377 1.395 . S
C377 H354 0.950 . S
C377 C376 1.395 . S
C377 C378 1.288 . S
C378 C377 1.288 . S
C378 C379 1.392 . S
C379 H355 0.951 . S
C379 C378 1.392 . S
C379 C380 1.392 . S
C380 H356 0.949 . S
C380 C375 1.382 . S
C380 C379 1.392 . S
C381 C382 1.376 . S
C381 C386 1.386 . S
C381 C387 1.483 . S
C382 H357 0.949 . S
C382 C381 1.376 . S
C382 C383 1.397 . S
C383 H358 0.950 . S
C383 C382 1.397 . S
C383 C384 1.391 . S
C384 C383 1.391 . S
C384 C385 1.405 . S
C385 H359 0.950 . S
C385 C384 1.405 . S
C385 C386 1.367 . S
C386 H360 0.950 . S
C386 C381 1.386 . S
C386 C385 1.367 . S
C387 C381 1.483 . S
C387 C388 1.382 . S
C387 C389 1.403 . S
C388 H361 0.950 . S
C388 C374 1.411 . S
C388 C387 1.382 . S
C389 C373 1.411 . S
C389 C387 1.403 . S
C389 C390 1.489 . S
C390 C389 1.489 . S
C390 C391 1.383 . S
C390 C395 1.382 . S
C391 H362 0.950 . S
C391 C390 1.383 . S
C391 C392 1.395 . S
C392 H363 0.950 . S
C392 C391 1.395 . S
C392 C393 1.288 . S
C393 C392 1.288 . S
C393 C394 1.392 . S
C394 H364 0.951 . S
C394 C393 1.392 . S
C394 C395 1.392 . S
C395 H365 0.949 . S
C395 C390 1.382 . S
C395 C394 1.392 . S
H396 C415 0.949 . S
H397 C416 0.950 . S
H398 C418 0.950 . S
H399 C419 0.950 . S
H400 C421 0.950 . S
H401 C424 0.950 . S
H402 C425 0.950 . S
H403 C427 0.951 . S
H404 C428 0.949 . S
H405 C430 0.949 . S
H406 C431 0.950 . S
H407 C433 0.950 . S
H408 C434 0.950 . S
H409 C436 0.950 . S
H410 C439 0.950 . S
H411 C440 0.950 . S
H412 C442 0.951 . S
H413 C443 0.949 . S
C414 C415 1.376 . S
C414 C419 1.386 . S
C414 C420 1.483 . S
C415 H396 0.949 . S
C415 C414 1.376 . S
C415 C416 1.397 . S
C416 H397 0.950 . S
C416 C415 1.397 . S
C416 C417 1.391 . S
C417 C416 1.391 . S
C417 C418 1.405 . S
C418 H398 0.950 . S
C418 C417 1.405 . S
C418 C419 1.367 . S
C419 H399 0.950 . S
C419 C414 1.386 . S
C419 C418 1.367 . S
C420 C414 1.483 . S
C420 C421 1.382 . S
C420 C422 1.403 . S
C421 H400 0.950 . S
C421 C420 1.382 . S
C421 C437 1.411 . S
C422 C420 1.403 . S
C422 C423 1.489 . S
C422 C436 1.411 . S
C423 C422 1.489 . S
C423 C424 1.383 . S
C423 C428 1.382 . S
C424 H401 0.950 . S
C424 C423 1.383 . S
C424 C425 1.395 . S
C425 H402 0.950 . S
C425 C424 1.395 . S
C425 C426 1.288 . S
C426 C425 1.288 . S
C426 C427 1.392 . S
C427 H403 0.951 . S
C427 C426 1.392 . S
C427 C428 1.392 . S
C428 H404 0.949 . S
C428 C423 1.382 . S
C428 C427 1.392 . S
C429 C430 1.376 . S
C429 C434 1.386 . S
C429 C435 1.483 . S
C430 H405 0.949 . S
C430 C429 1.376 . S
C430 C431 1.397 . S
C431 H406 0.950 . S
C431 C430 1.397 . S
C431 C432 1.391 . S
C432 C431 1.391 . S
C432 C433 1.405 . S
C433 H407 0.950 . S
C433 C432 1.405 . S
C433 C434 1.367 . S
C434 H408 0.950 . S
C434 C429 1.386 . S
C434 C433 1.367 . S
C435 C429 1.483 . S
C435 C436 1.382 . S
C435 C437 1.403 . S
C436 H409 0.950 . S
C436 C422 1.411 . S
C436 C435 1.382 . S
C437 C421 1.411 . S
C437 C435 1.403 . S
C437 C438 1.489 . S
C438 C437 1.489 . S
C438 C439 1.383 . S
C438 C443 1.382 . S
C439 H410 0.950 . S
C439 C438 1.383 . S
C439 C440 1.395 . S
C440 H411 0.950 . S
C440 C439 1.395 . S
C440 C441 1.288 . S
C441 C440 1.288 . S
C441 C442 1.392 . S
C442 H412 0.951 . S
C442 C441 1.392 . S
C442 C443 1.392 . S
C443 H413 0.949 . S
C443 C438 1.382 . S
C443 C442 1.392 . S
H444 C463 0.949 . S
H445 C464 0.950 . S
H446 C466 0.950 . S
H447 C467 0.950 . S
H448 C469 0.950 . S
H449 C472 0.950 . S
H450 C473 0.950 . S
H451 C475 0.951 . S
H452 C476 0.949 . S
H453 C478 0.949 . S
H454 C479 0.950 . S
H455 C481 0.950 . S
H456 C482 0.950 . S
H457 C484 0.950 . S
H458 C487 0.950 . S
H459 C488 0.950 . S
H460 C490 0.951 . S
H461 C491 0.949 . S
C462 C463 1.376 . S
C462 C467 1.386 . S
C462 C468 1.483 . S
C463 H444 0.949 . S
C463 C462 1.376 . S
C463 C464 1.397 . S
C464 H445 0.950 . S
C464 C463 1.397 . S
C464 C465 1.391 . S
C465 C464 1.391 . S
C465 C466 1.405 . S
C466 H446 0.950 . S
C466 C465 1.405 . S
C466 C467 1.367 . S
C467 H447 0.950 . S
C467 C462 1.386 . S
C467 C466 1.367 . S
C468 C462 1.483 . S
C468 C469 1.382 . S
C468 C470 1.403 . S
C469 H448 0.950 . S
C469 C468 1.382 . S
C469 C485 1.411 . S
C470 C468 1.403 . S
C470 C471 1.489 . S
C470 C484 1.411 . S
C471 C470 1.489 . S
C471 C472 1.383 . S
C471 C476 1.382 . S
C472 H449 0.950 . S
C472 C471 1.383 . S
C472 C473 1.395 . S
C473 H450 0.950 . S
C473 C472 1.395 . S
C473 C474 1.288 . S
C474 C473 1.288 . S
C474 C475 1.392 . S
C475 H451 0.951 . S
C475 C474 1.392 . S
C475 C476 1.392 . S
C476 H452 0.949 . S
C476 C471 1.382 . S
C476 C475 1.392 . S
C477 C478 1.376 . S
C477 C482 1.386 . S
C477 C483 1.483 . S
C478 H453 0.949 . S
C478 C477 1.376 . S
C478 C479 1.397 . S
C479 H454 0.950 . S
C479 C478 1.397 . S
C479 C480 1.391 . S
C480 C479 1.391 . S
C480 C481 1.405 . S
C481 H455 0.950 . S
C481 C480 1.405 . S
C481 C482 1.367 . S
C482 H456 0.950 . S
C482 C477 1.386 . S
C482 C481 1.367 . S
C483 C477 1.483 . S
C483 C484 1.382 . S
C483 C485 1.403 . S
C484 H457 0.950 . S
C484 C470 1.411 . S
C484 C483 1.382 . S
C485 C469 1.411 . S
C485 C483 1.403 . S
C485 C486 1.489 . S
C486 C485 1.489 . S
C486 C487 1.383 . S
C486 C491 1.382 . S
C487 H458 0.950 . S
C487 C486 1.383 . S
C487 C488 1.395 . S
C488 H459 0.950 . S
C488 C487 1.395 . S
C488 C489 1.288 . S
C489 C488 1.288 . S
C489 C490 1.392 . S
C490 H460 0.951 . S
C490 C489 1.392 . S
C490 C491 1.392 . S
C491 H461 0.949 . S
C491 C486 1.382 . S
C491 C490 1.392 . S
H492 C511 0.949 . S
H493 C512 0.950 . S
H494 C514 0.950 . S
H495 C515 0.950 . S
H496 C517 0.950 . S
H497 C520 0.950 . S
H498 C521 0.950 . S
H499 C523 0.951 . S
H500 C524 0.949 . S
H501 C526 0.949 . S
H502 C527 0.950 . S
H503 C529 0.950 . S
H504 C530 0.950 . S
H505 C532 0.950 . S
H506 C535 0.950 . S
H507 C536 0.950 . S
H508 C538 0.951 . S
H509 C539 0.949 . S
C510 C511 1.376 . S
C510 C515 1.386 . S
C510 C516 1.483 . S
C511 H492 0.949 . S
C511 C510 1.376 . S
C511 C512 1.397 . S
C512 H493 0.950 . S
C512 C511 1.397 . S
C512 C513 1.391 . S
C513 C512 1.391 . S
C513 C514 1.405 . S
C514 H494 0.950 . S
C514 C513 1.405 . S
C514 C515 1.367 . S
C515 H495 0.950 . S
C515 C510 1.386 . S
C515 C514 1.367 . S
C516 C510 1.483 . S
C516 C517 1.382 . S
C516 C518 1.403 . S
C517 H496 0.950 . S
C517 C516 1.382 . S
C517 C533 1.411 . S
C518 C516 1.403 . S
C518 C519 1.489 . S
C518 C532 1.411 . S
C519 C518 1.489 . S
C519 C520 1.383 . S
C519 C524 1.382 . S
C520 H497 0.950 . S
C520 C519 1.383 . S
C520 C521 1.395 . S
C521 H498 0.950 . S
C521 C520 1.395 . S
C521 C522 1.288 . S
C522 C521 1.288 . S
C522 C523 1.392 . S
C523 H499 0.951 . S
C523 C522 1.392 . S
C523 C524 1.392 . S
C524 H500 0.949 . S
C524 C519 1.382 . S
C524 C523 1.392 . S
C525 C526 1.376 . S
C525 C530 1.386 . S
C525 C531 1.483 . S
C526 H501 0.949 . S
C526 C525 1.376 . S
C526 C527 1.397 . S
C527 H502 0.950 . S
C527 C526 1.397 . S
C527 C528 1.391 . S
C528 C527 1.391 . S
C528 C529 1.405 . S
C529 H503 0.950 . S
C529 C528 1.405 . S
C529 C530 1.367 . S
C530 H504 0.950 . S
C530 C525 1.386 . S
C530 C529 1.367 . S
C531 C525 1.483 . S
C531 C532 1.382 . S
C531 C533 1.403 . S
C532 H505 0.950 . S
C532 C518 1.411 . S
C532 C531 1.382 . S
C533 C517 1.411 . S
C533 C531 1.403 . S
C533 C534 1.489 . S
C534 C533 1.489 . S
C534 C535 1.383 . S
C534 C539 1.382 . S
C535 H506 0.950 . S
C535 C534 1.383 . S
C535 C536 1.395 . S
C536 H507 0.950 . S
C536 C535 1.395 . S
C536 C537 1.288 . S
C537 C536 1.288 . S
C537 C538 1.392 . S
C538 H508 0.951 . S
C538 C537 1.392 . S
C538 C539 1.392 . S
C539 H509 0.949 . S
C539 C534 1.382 . S
C539 C538 1.392 . S
H540 C559 0.949 . S
H541 C560 0.950 . S
H542 C562 0.950 . S
H543 C563 0.950 . S
H544 C565 0.950 . S
H545 C568 0.950 . S
H546 C569 0.950 . S
H547 C571 0.951 . S
H548 C572 0.949 . S
H549 C574 0.949 . S
H550 C575 0.950 . S
H551 C577 0.950 . S
H552 C578 0.950 . S
H553 C580 0.950 . S
H554 C583 0.950 . S
H555 C584 0.950 . S
H556 C586 0.951 . S
H557 C587 0.949 . S
C558 C559 1.376 . S
C558 C563 1.386 . S
C558 C564 1.483 . S
C559 H540 0.949 . S
C559 C558 1.376 . S
C559 C560 1.397 . S
C560 H541 0.950 . S
C560 C559 1.397 . S
C560 C561 1.391 . S
C561 C560 1.391 . S
C561 C562 1.405 . S
C562 H542 0.950 . S
C562 C561 1.405 . S
C562 C563 1.367 . S
C563 H543 0.950 . S
C563 C558 1.386 . S
C563 C562 1.367 . S
C564 C558 1.483 . S
C564 C565 1.382 . S
C564 C566 1.403 . S
C565 H544 0.950 . S
C565 C564 1.382 . S
C565 C581 1.411 . S
C566 C564 1.403 . S
C566 C567 1.489 . S
C566 C580 1.411 . S
C567 C566 1.489 . S
C567 C568 1.383 . S
C567 C572 1.382 . S
C568 H545 0.950 . S
C568 C567 1.383 . S
C568 C569 1.395 . S
C569 H546 0.950 . S
C569 C568 1.395 . S
C569 C570 1.288 . S
C570 C569 1.288 . S
C570 C571 1.392 . S
C571 H547 0.951 . S
C571 C570 1.392 . S
C571 C572 1.392 . S
C572 H548 0.949 . S
C572 C567 1.382 . S
C572 C571 1.392 . S
C573 C574 1.376 . S
C573 C578 1.386 . S
C573 C579 1.483 . S
C574 H549 0.949 . S
C574 C573 1.376 . S
C574 C575 1.397 . S
C575 H550 0.950 . S
C575 C574 1.397 . S
C575 C576 1.391 . S
C576 C575 1.391 . S
C576 C577 1.405 . S
C577 H551 0.950 . S
C577 C576 1.405 . S
C577 C578 1.367 . S
C578 H552 0.950 . S
C578 C573 1.386 . S
C578 C577 1.367 . S
C579 C573 1.483 . S
C579 C580 1.382 . S
C579 C581 1.403 . S
C580 H553 0.950 . S
C580 C566 1.411 . S
C580 C579 1.382 . S
C581 C565 1.411 . S
C581 C579 1.403 . S
C581 C582 1.489 . S
C582 C581 1.489 . S
C582 C583 1.383 . S
C582 C587 1.382 . S
C583 H554 0.950 . S
C583 C582 1.383 . S
C583 C584 1.395 . S
C584 H555 0.950 . S
C584 C583 1.395 . S
C584 C585 1.288 . S
C585 C584 1.288 . S
C585 C586 1.392 . S
C586 H556 0.951 . S
C586 C585 1.392 . S
C586 C587 1.392 . S
C587 H557 0.949 . S
C587 C582 1.382 . S
C587 C586 1.392 . S
H588 C607 0.949 . S
H589 C608 0.950 . S
H590 C610 0.950 . S
H591 C611 0.950 . S
H592 C613 0.950 . S
H593 C616 0.950 . S
H594 C617 0.950 . S
H595 C619 0.951 . S
H596 C620 0.949 . S
H597 C622 0.949 . S
H598 C623 0.950 . S
H599 C625 0.950 . S
H600 C626 0.950 . S
H601 C628 0.950 . S
H602 C631 0.950 . S
H603 C632 0.950 . S
H604 C634 0.951 . S
H605 C635 0.949 . S
C606 C607 1.376 . S
C606 C611 1.386 . S
C606 C612 1.483 . S
C607 H588 0.949 . S
C607 C606 1.376 . S
C607 C608 1.397 . S
C608 H589 0.950 . S
C608 C607 1.397 . S
C608 C609 1.391 . S
C609 C608 1.391 . S
C609 C610 1.405 . S
C610 H590 0.950 . S
C610 C609 1.405 . S
C610 C611 1.367 . S
C611 H591 0.950 . S
C611 C606 1.386 . S
C611 C610 1.367 . S
C612 C606 1.483 . S
C612 C613 1.382 . S
C612 C614 1.403 . S
C613 H592 0.950 . S
C613 C612 1.382 . S
C613 C629 1.411 . S
C614 C612 1.403 . S
C614 C615 1.489 . S
C614 C628 1.411 . S
C615 C614 1.489 . S
C615 C616 1.383 . S
C615 C620 1.382 . S
C616 H593 0.950 . S
C616 C615 1.383 . S
C616 C617 1.395 . S
C617 H594 0.950 . S
C617 C616 1.395 . S
C617 C618 1.288 . S
C618 C617 1.288 . S
C618 C619 1.392 . S
C619 H595 0.951 . S
C619 C618 1.392 . S
C619 C620 1.392 . S
C620 H596 0.949 . S
C620 C615 1.382 . S
C620 C619 1.392 . S
C621 C622 1.376 . S
C621 C626 1.386 . S
C621 C627 1.483 . S
C622 H597 0.949 . S
C622 C621 1.376 . S
C622 C623 1.397 . S
C623 H598 0.950 . S
C623 C622 1.397 . S
C623 C624 1.391 . S
C624 C623 1.391 . S
C624 C625 1.405 . S
C625 H599 0.950 . S
C625 C624 1.405 . S
C625 C626 1.367 . S
C626 H600 0.950 . S
C626 C621 1.386 . S
C626 C625 1.367 . S
C627 C621 1.483 . S
C627 C628 1.382 . S
C627 C629 1.403 . S
C628 H601 0.950 . S
C628 C614 1.411 . S
C628 C627 1.382 . S
C629 C613 1.411 . S
C629 C627 1.403 . S
C629 C630 1.489 . S
C630 C629 1.489 . S
C630 C631 1.383 . S
C630 C635 1.382 . S
C631 H602 0.950 . S
C631 C630 1.383 . S
C631 C632 1.395 . S
C632 H603 0.950 . S
C632 C631 1.395 . S
C632 C633 1.288 . S
C633 C632 1.288 . S
C633 C634 1.392 . S
C634 H604 0.951 . S
C634 C633 1.392 . S
C634 C635 1.392 . S
C635 H605 0.949 . S
C635 C630 1.382 . S
C635 C634 1.392 . S
H636 C655 0.949 . S
H637 C656 0.950 . S
H638 C658 0.950 . S
H639 C659 0.950 . S
H640 C661 0.950 . S
H641 C664 0.950 . S
H642 C665 0.950 . S
H643 C667 0.951 . S
H644 C668 0.949 . S
H645 C670 0.949 . S
H646 C671 0.950 . S
H647 C673 0.950 . S
H648 C674 0.950 . S
H649 C676 0.950 . S
H650 C679 0.950 . S
H651 C680 0.950 . S
H652 C682 0.951 . S
H653 C683 0.949 . S
C654 C655 1.376 . S
C654 C659 1.386 . S
C654 C660 1.483 . S
C655 H636 0.949 . S
C655 C654 1.376 . S
C655 C656 1.397 . S
C656 H637 0.950 . S
C656 C655 1.397 . S
C656 C657 1.391 . S
C657 C656 1.391 . S
C657 C658 1.405 . S
C658 H638 0.950 . S
C658 C657 1.405 . S
C658 C659 1.367 . S
C659 H639 0.950 . S
C659 C654 1.386 . S
C659 C658 1.367 . S
C660 C654 1.483 . S
C660 C661 1.382 . S
C660 C662 1.403 . S
C661 H640 0.950 . S
C661 C660 1.382 . S
C661 C677 1.411 . S
C662 C660 1.403 . S
C662 C663 1.489 . S
C662 C676 1.411 . S
C663 C662 1.489 . S
C663 C664 1.383 . S
C663 C668 1.382 . S
C664 H641 0.950 . S
C664 C663 1.383 . S
C664 C665 1.395 . S
C665 H642 0.950 . S
C665 C664 1.395 . S
C665 C666 1.288 . S
C666 C665 1.288 . S
C666 C667 1.392 . S
C667 H643 0.951 . S
C667 C666 1.392 . S
C667 C668 1.392 . S
C668 H644 0.949 . S
C668 C663 1.382 . S
C668 C667 1.392 . S
C669 C670 1.376 . S
C669 C674 1.386 . S
C669 C675 1.483 . S
C670 H645 0.949 . S
C670 C669 1.376 . S
C670 C671 1.397 . S
C671 H646 0.950 . S
C671 C670 1.397 . S
C671 C672 1.391 . S
C672 C671 1.391 . S
C672 C673 1.405 . S
C673 H647 0.950 . S
C673 C672 1.405 . S
C673 C674 1.367 . S
C674 H648 0.950 . S
C674 C669 1.386 . S
C674 C673 1.367 . S
C675 C669 1.483 . S
C675 C676 1.382 . S
C675 C677 1.403 . S
C676 H649 0.950 . S
C676 C662 1.411 . S
C676 C675 1.382 . S
C677 C661 1.411 . S
C677 C675 1.403 . S
C677 C678 1.489 . S
C678 C677 1.489 . S
C678 C679 1.383 . S
C678 C683 1.382 . S
C679 H650 0.950 . S
C679 C678 1.383 . S
C679 C680 1.395 . S
C680 H651 0.950 . S
C680 C679 1.395 . S
C680 C681 1.288 . S
C681 C680 1.288 . S
C681 C682 1.392 . S
C682 H652 0.951 . S
C682 C681 1.392 . S
C682 C683 1.392 . S
C683 H653 0.949 . S
C683 C678 1.382 . S
C683 C682 1.392 . S
H684 C703 0.949 . S
H685 C704 0.950 . S
H686 C706 0.950 . S
H687 C707 0.950 . S
H688 C709 0.950 . S
H689 C712 0.950 . S
H690 C713 0.950 . S
H691 C715 0.951 . S
H692 C716 0.949 . S
H693 C718 0.949 . S
H694 C719 0.950 . S
H695 C721 0.950 . S
H696 C722 0.950 . S
H697 C724 0.950 . S
H698 C727 0.950 . S
H699 C728 0.950 . S
H700 C730 0.951 . S
H701 C731 0.949 . S
C702 C703 1.376 . S
C702 C707 1.386 1_655 S
C702 C708 1.483 . S
C703 H684 0.949 . S
C703 C702 1.376 . S
C703 C704 1.397 . S
C704 H685 0.950 . S
C704 C703 1.397 . S
C704 C705 1.391 . S
C705 C704 1.391 . S
C705 C706 1.405 1_655 S
C706 H686 0.950 . S
C706 C705 1.405 1_455 S
C706 C707 1.367 . S
C707 H687 0.950 . S
C707 C702 1.386 1_455 S
C707 C706 1.367 . S
C708 C702 1.483 . S
C708 C709 1.382 . S
C708 C710 1.403 1_655 S
C709 H688 0.950 . S
C709 C708 1.382 . S
C709 C725 1.411 . S
C710 C708 1.403 1_455 S
C710 C711 1.489 . S
C710 C724 1.411 . S
C711 C710 1.489 . S
C711 C712 1.383 1_455 S
C711 C716 1.382 . S
C712 H689 0.950 . S
C712 C711 1.383 1_655 S
C712 C713 1.395 . S
C713 H690 0.950 . S
C713 C712 1.395 . S
C713 C714 1.288 1_655 S
C714 C713 1.288 1_455 S
C714 C715 1.392 . S
C715 H691 0.951 . S
C715 C714 1.392 . S
C715 C716 1.392 . S
C716 H692 0.949 . S
C716 C711 1.382 . S
C716 C715 1.392 . S
C717 C718 1.376 . S
C717 C722 1.386 1_455 S
C717 C723 1.483 . S
C718 H693 0.949 . S
C718 C717 1.376 . S
C718 C719 1.397 . S
C719 H694 0.950 . S
C719 C718 1.397 . S
C719 C720 1.391 . S
C720 C719 1.391 . S
C720 C721 1.405 1_455 S
C721 H695 0.950 . S
C721 C720 1.405 1_655 S
C721 C722 1.367 . S
C722 H696 0.950 . S
C722 C717 1.386 1_655 S
C722 C721 1.367 . S
C723 C717 1.483 . S
C723 C724 1.382 . S
C723 C725 1.403 1_455 S
C724 H697 0.950 . S
C724 C710 1.411 . S
C724 C723 1.382 . S
C725 C709 1.411 . S
C725 C723 1.403 1_655 S
C725 C726 1.489 . S
C726 C725 1.489 . S
C726 C727 1.383 1_655 S
C726 C731 1.382 . S
C727 H698 0.950 . S
C727 C726 1.383 1_455 S
C727 C728 1.395 . S
C728 H699 0.950 . S
C728 C727 1.395 . S
C728 C729 1.288 1_455 S
C729 C728 1.288 1_655 S
C729 C730 1.392 . S
C730 H700 0.951 . S
C730 C729 1.392 . S
C730 C731 1.392 . S
C731 H701 0.949 . S
C731 C726 1.382 . S
C731 C730 1.392 . S
H732 C751 0.949 . S
H733 C752 0.950 . S
H734 C754 0.950 . S
H735 C755 0.950 . S
H736 C757 0.950 . S
H737 C760 0.950 . S
H738 C761 0.950 . S
H739 C763 0.951 . S
H740 C764 0.949 . S
H741 C766 0.949 . S
H742 C767 0.950 . S
H743 C769 0.950 . S
H744 C770 0.950 . S
H745 C772 0.950 . S
H746 C775 0.950 . S
H747 C776 0.950 . S
H748 C778 0.951 . S
H749 C779 0.949 . S
C750 C751 1.376 . S
C750 C755 1.386 . S
C750 C756 1.483 . S
C751 H732 0.949 . S
C751 C750 1.376 . S
C751 C752 1.397 . S
C752 H733 0.950 . S
C752 C751 1.397 . S
C752 C753 1.391 . S
C753 C752 1.391 . S
C753 C754 1.405 . S
C754 H734 0.950 . S
C754 C753 1.405 . S
C754 C755 1.367 . S
C755 H735 0.950 . S
C755 C750 1.386 . S
C755 C754 1.367 . S
C756 C750 1.483 . S
C756 C757 1.382 . S
C756 C758 1.403 . S
C757 H736 0.950 . S
C757 C756 1.382 . S
C757 C773 1.411 . S
C758 C756 1.403 . S
C758 C759 1.489 . S
C758 C772 1.411 . S
C759 C758 1.489 . S
C759 C760 1.383 . S
C759 C764 1.382 . S
C760 H737 0.950 . S
C760 C759 1.383 . S
C760 C761 1.395 . S
C761 H738 0.950 . S
C761 C760 1.395 . S
C761 C762 1.288 . S
C762 C761 1.288 . S
C762 C763 1.392 . S
C763 H739 0.951 . S
C763 C762 1.392 . S
C763 C764 1.392 . S
C764 H740 0.949 . S
C764 C759 1.382 . S
C764 C763 1.392 . S
C765 C766 1.376 . S
C765 C770 1.386 . S
C765 C771 1.483 . S
C766 H741 0.949 . S
C766 C765 1.376 . S
C766 C767 1.397 . S
C767 H742 0.950 . S
C767 C766 1.397 . S
C767 C768 1.391 . S
C768 C767 1.391 . S
C768 C769 1.405 . S
C769 H743 0.950 . S
C769 C768 1.405 . S
C769 C770 1.367 . S
C770 H744 0.950 . S
C770 C765 1.386 . S
C770 C769 1.367 . S
C771 C765 1.483 . S
C771 C772 1.382 . S
C771 C773 1.403 . S
C772 H745 0.950 . S
C772 C758 1.411 . S
C772 C771 1.382 . S
C773 C757 1.411 . S
C773 C771 1.403 . S
C773 C774 1.489 . S
C774 C773 1.489 . S
C774 C775 1.383 . S
C774 C779 1.382 . S
C775 H746 0.950 . S
C775 C774 1.383 . S
C775 C776 1.395 . S
C776 H747 0.950 . S
C776 C775 1.395 . S
C776 C777 1.288 . S
C777 C776 1.288 . S
C777 C778 1.392 . S
C778 H748 0.951 . S
C778 C777 1.392 . S
C778 C779 1.392 . S
C779 H749 0.949 . S
C779 C774 1.382 . S
C779 C778 1.392 . S
H780 C799 0.949 . S
H781 C800 0.950 . S
H782 C802 0.950 . S
H783 C803 0.950 . S
H784 C805 0.950 . S
H785 C808 0.950 . S
H786 C809 0.950 . S
H787 C811 0.951 . S
H788 C812 0.949 . S
H789 C814 0.949 . S
H790 C815 0.950 . S
H791 C817 0.950 . S
H792 C818 0.950 . S
H793 C820 0.950 . S
H794 C823 0.950 . S
H795 C824 0.950 . S
H796 C826 0.951 . S
H797 C827 0.949 . S
C798 C799 1.376 . S
C798 C803 1.386 1_545 S
C798 C804 1.483 . S
C799 H780 0.949 . S
C799 C798 1.376 . S
C799 C800 1.397 . S
C800 H781 0.950 . S
C800 C799 1.397 . S
C800 C801 1.391 . S
C801 C800 1.391 . S
C801 C802 1.405 1_545 S
C802 H782 0.950 . S
C802 C801 1.405 1_565 S
C802 C803 1.367 . S
C803 H783 0.950 . S
C803 C798 1.386 1_565 S
C803 C802 1.367 . S
C804 C798 1.483 . S
C804 C805 1.382 . S
C804 C806 1.403 1_545 S
C805 H784 0.950 . S
C805 C804 1.382 . S
C805 C821 1.411 . S
C806 C804 1.403 1_565 S
C806 C807 1.489 . S
C806 C820 1.411 . S
C807 C806 1.489 . S
C807 C808 1.383 1_565 S
C807 C812 1.382 . S
C808 H785 0.950 . S
C808 C807 1.383 1_545 S
C808 C809 1.395 . S
C809 H786 0.950 . S
C809 C808 1.395 . S
C809 C810 1.288 1_545 S
C810 C809 1.288 1_565 S
C810 C811 1.392 . S
C811 H787 0.951 . S
C811 C810 1.392 . S
C811 C812 1.392 . S
C812 H788 0.949 . S
C812 C807 1.382 . S
C812 C811 1.392 . S
C813 C814 1.376 . S
C813 C818 1.386 1_565 S
C813 C819 1.483 . S
C814 H789 0.949 . S
C814 C813 1.376 . S
C814 C815 1.397 . S
C815 H790 0.950 . S
C815 C814 1.397 . S
C815 C816 1.391 . S
C816 C815 1.391 . S
C816 C817 1.405 1_565 S
C817 H791 0.950 . S
C817 C816 1.405 1_545 S
C817 C818 1.367 . S
C818 H792 0.950 . S
C818 C813 1.386 1_545 S
C818 C817 1.367 . S
C819 C813 1.483 . S
C819 C820 1.382 . S
C819 C821 1.403 1_565 S
C820 H793 0.950 . S
C820 C806 1.411 . S
C820 C819 1.382 . S
C821 C805 1.411 . S
C821 C819 1.403 1_545 S
C821 C822 1.489 . S
C822 C821 1.489 . S
C822 C823 1.383 1_545 S
C822 C827 1.382 . S
C823 H794 0.950 . S
C823 C822 1.383 1_565 S
C823 C824 1.395 . S
C824 H795 0.950 . S
C824 C823 1.395 . S
C824 C825 1.288 1_565 S
C825 C824 1.288 1_545 S
C825 C826 1.392 . S
C826 H796 0.951 . S
C826 C825 1.392 . S
C826 C827 1.392 . S
C827 H797 0.949 . S
C827 C822 1.382 . S
C827 C826 1.392 . S
H828 C847 0.949 . S
H829 C848 0.950 . S
H830 C850 0.950 . S
H831 C851 0.950 . S
H832 C853 0.950 . S
H833 C856 0.950 . S
H834 C857 0.950 . S
H835 C859 0.951 . S
H836 C860 0.949 . S
H837 C862 0.949 . S
H838 C863 0.950 . S
H839 C865 0.950 . S
H840 C866 0.950 . S
H841 C868 0.950 . S
H842 C871 0.950 . S
H843 C872 0.950 . S
H844 C874 0.951 . S
H845 C875 0.949 . S
C846 C847 1.377 . S
C846 C851 1.386 1_545 S
C846 C852 1.506 . S
C847 H828 0.949 . S
C847 C846 1.377 . S
C847 C848 1.397 . S
C848 H829 0.950 . S
C848 C847 1.397 . S
C848 C849 1.391 1_545 S
C849 C848 1.391 1_565 S
C849 C850 1.405 . S
C850 H830 0.950 . S
C850 C849 1.405 . S
C850 C851 1.367 . S
C851 H831 0.950 . S
C851 C846 1.386 1_565 S
C851 C850 1.367 . S
C852 C846 1.506 . S
C852 C853 1.360 . S
C852 C854 1.400 1_545 S
C853 H832 0.950 . S
C853 C852 1.360 . S
C853 C869 1.447 . S
C854 C852 1.400 1_565 S
C854 C855 1.486 . S
C854 C868 1.435 . S
C855 C854 1.486 . S
C855 C856 1.343 1_565 S
C855 C860 1.403 . S
C856 H833 0.950 . S
C856 C855 1.343 1_545 S
C856 C857 1.395 . S
C857 H834 0.950 . S
C857 C856 1.395 . S
C857 C858 1.330 . S
C858 C857 1.330 . S
C858 C859 1.310 1_545 S
C859 H835 0.951 . S
C859 C858 1.310 1_565 S
C859 C860 1.392 . S
C860 H836 0.949 . S
C860 C855 1.403 . S
C860 C859 1.392 . S
C861 C862 1.377 1_545 S
C861 C866 1.386 . S
C861 C867 1.497 1_545 S
C862 H837 0.949 . S
C862 C861 1.377 1_565 S
C862 C863 1.397 . S
C863 H838 0.950 . S
C863 C862 1.397 . S
C863 C864 1.391 1_565 S
C864 C863 1.391 1_545 S
C864 C865 1.405 . S
C865 H839 0.950 . S
C865 C864 1.405 . S
C865 C866 1.367 . S
C866 H840 0.950 . S
C866 C861 1.386 . S
C866 C865 1.367 . S
C867 C861 1.497 1_565 S
C867 C868 1.368 . S
C867 C869 1.400 1_565 S
C868 H841 0.950 . S
C868 C854 1.435 . S
C868 C867 1.368 . S
C869 C853 1.447 . S
C869 C867 1.400 1_545 S
C869 C870 1.486 . S
C870 C869 1.486 . S
C870 C871 1.322 1_545 S
C870 C875 1.415 . S
C871 H842 0.950 . S
C871 C870 1.322 1_565 S
C871 C872 1.395 . S
C872 H843 0.950 . S
C872 C871 1.395 . S
C872 C873 1.319 . S
C873 C872 1.319 . S
C873 C874 1.331 1_565 S
C874 H844 0.951 . S
C874 C873 1.331 1_545 S
C874 C875 1.392 . S
C875 H845 0.949 . S
C875 C870 1.415 . S
C875 C874 1.392 . S
H876 C895 0.949 . S
H877 C896 0.950 . S
H878 C898 0.950 . S
H879 C899 0.950 . S
H880 C901 0.950 . S
H881 C904 0.950 . S
H882 C905 0.950 . S
H883 C907 0.951 . S
H884 C908 0.949 . S
H885 C910 0.949 . S
H886 C911 0.950 . S
H887 C913 0.950 . S
H888 C914 0.950 . S
H889 C916 0.950 . S
H890 C919 0.950 . S
H891 C920 0.950 . S
H892 C922 0.951 . S
H893 C923 0.949 . S
C894 C895 1.376 . S
C894 C899 1.386 1_455 S
C894 C900 1.483 . S
C895 H876 0.949 . S
C895 C894 1.376 . S
C895 C896 1.397 . S
C896 H877 0.950 . S
C896 C895 1.397 . S
C896 C897 1.391 . S
C897 C896 1.391 . S
C897 C898 1.405 1_455 S
C898 H878 0.950 . S
C898 C897 1.405 1_655 S
C898 C899 1.367 . S
C899 H879 0.950 . S
C899 C894 1.386 1_655 S
C899 C898 1.367 . S
C900 C894 1.483 . S
C900 C901 1.382 . S
C900 C902 1.403 1_455 S
C901 H880 0.950 . S
C901 C900 1.382 . S
C901 C917 1.411 . S
C902 C900 1.403 1_655 S
C902 C903 1.489 . S
C902 C916 1.411 . S
C903 C902 1.489 . S
C903 C904 1.383 1_655 S
C903 C908 1.382 . S
C904 H881 0.950 . S
C904 C903 1.383 1_455 S
C904 C905 1.395 . S
C905 H882 0.950 . S
C905 C904 1.395 . S
C905 C906 1.288 1_455 S
C906 C905 1.288 1_655 S
C906 C907 1.392 . S
C907 H883 0.951 . S
C907 C906 1.392 . S
C907 C908 1.392 . S
C908 H884 0.949 . S
C908 C903 1.382 . S
C908 C907 1.392 . S
C909 C910 1.376 . S
C909 C914 1.386 1_655 S
C909 C915 1.483 . S
C910 H885 0.949 . S
C910 C909 1.376 . S
C910 C911 1.397 . S
C911 H886 0.950 . S
C911 C910 1.397 . S
C911 C912 1.391 . S
C912 C911 1.391 . S
C912 C913 1.405 1_655 S
C913 H887 0.950 . S
C913 C912 1.405 1_455 S
C913 C914 1.367 . S
C914 H888 0.950 . S
C914 C909 1.386 1_455 S
C914 C913 1.367 . S
C915 C909 1.483 . S
C915 C916 1.382 . S
C915 C917 1.403 1_655 S
C916 H889 0.950 . S
C916 C902 1.411 . S
C916 C915 1.382 . S
C917 C901 1.411 . S
C917 C915 1.403 1_455 S
C917 C918 1.489 . S
C918 C917 1.489 . S
C918 C919 1.383 1_455 S
C918 C923 1.382 . S
C919 H890 0.950 . S
C919 C918 1.383 1_655 S
C919 C920 1.395 . S
C920 H891 0.950 . S
C920 C919 1.395 . S
C920 C921 1.288 1_655 S
C921 C920 1.288 1_455 S
C921 C922 1.392 . S
C922 H892 0.951 . S
C922 C921 1.392 . S
C922 C923 1.392 . S
C923 H893 0.949 . S
C923 C918 1.382 . S
C923 C922 1.392 . S
H924 C943 0.949 . S
H925 C944 0.950 . S
H926 C946 0.950 . S
H927 C947 0.950 . S
H928 C949 0.950 . S
H929 C952 0.950 . S
H930 C953 0.950 . S
H931 C955 0.951 . S
H932 C956 0.949 . S
H933 C958 0.949 . S
H934 C959 0.950 . S
H935 C961 0.950 . S
H936 C962 0.950 . S
H937 C964 0.950 . S
H938 C967 0.950 . S
H939 C968 0.950 . S
H940 C970 0.951 . S
H941 C971 0.949 . S
C942 C943 1.376 . S
C942 C947 1.386 . S
C942 C948 1.483 . S
C943 H924 0.949 . S
C943 C942 1.376 . S
C943 C944 1.397 . S
C944 H925 0.950 . S
C944 C943 1.397 . S
C944 C945 1.391 . S
C945 C944 1.391 . S
C945 C946 1.405 . S
C946 H926 0.950 . S
C946 C945 1.405 . S
C946 C947 1.367 . S
C947 H927 0.950 . S
C947 C942 1.386 . S
C947 C946 1.367 . S
C948 C942 1.483 . S
C948 C949 1.382 . S
C948 C950 1.403 . S
C949 H928 0.950 . S
C949 C948 1.382 . S
C949 C965 1.411 . S
C950 C948 1.403 . S
C950 C951 1.489 . S
C950 C964 1.411 . S
C951 C950 1.489 . S
C951 C952 1.383 . S
C951 C956 1.382 . S
C952 H929 0.950 . S
C952 C951 1.383 . S
C952 C953 1.395 . S
C953 H930 0.950 . S
C953 C952 1.395 . S
C953 C954 1.288 . S
C954 C953 1.288 . S
C954 C955 1.392 . S
C955 H931 0.951 . S
C955 C954 1.392 . S
C955 C956 1.392 . S
C956 H932 0.949 . S
C956 C951 1.382 . S
C956 C955 1.392 . S
C957 C958 1.376 . S
C957 C962 1.386 . S
C957 C963 1.483 . S
C958 H933 0.949 . S
C958 C957 1.376 . S
C958 C959 1.397 . S
C959 H934 0.950 . S
C959 C958 1.397 . S
C959 C960 1.391 . S
C960 C959 1.391 . S
C960 C961 1.405 . S
C961 H935 0.950 . S
C961 C960 1.405 . S
C961 C962 1.367 . S
C962 H936 0.950 . S
C962 C957 1.386 . S
C962 C961 1.367 . S
C963 C957 1.483 . S
C963 C964 1.382 . S
C963 C965 1.403 . S
C964 H937 0.950 . S
C964 C950 1.411 . S
C964 C963 1.382 . S
C965 C949 1.411 . S
C965 C963 1.403 . S
C965 C966 1.489 . S
C966 C965 1.489 . S
C966 C967 1.383 . S
C966 C971 1.382 . S
C967 H938 0.950 . S
C967 C966 1.383 . S
C967 C968 1.395 . S
C968 H939 0.950 . S
C968 C967 1.395 . S
C968 C969 1.288 . S
C969 C968 1.288 . S
C969 C970 1.392 . S
C970 H940 0.951 . S
C970 C969 1.392 . S
C970 C971 1.392 . S
C971 H941 0.949 . S
C971 C966 1.382 . S
C971 C970 1.392 . S
H972 C991 0.949 . S
H973 C992 0.950 . S
H974 C994 0.950 . S
H975 C995 0.950 . S
H976 C997 0.950 . S
H977 C1000 0.950 . S
H978 C1001 0.950 . S
H979 C1003 0.951 . S
H980 C1004 0.949 . S
H981 C1006 0.949 . S
H982 C1007 0.950 . S
H983 C1009 0.950 . S
H984 C1010 0.950 . S
H985 C1012 0.950 . S
H986 C1015 0.950 . S
H987 C1016 0.950 . S
H988 C1018 0.951 . S
H989 C1019 0.949 . S
C990 C991 1.376 . S
C990 C995 1.386 . S
C990 C996 1.483 . S
C991 H972 0.949 . S
C991 C990 1.376 . S
C991 C992 1.397 . S
C992 H973 0.950 . S
C992 C991 1.397 . S
C992 C993 1.391 . S
C993 C992 1.391 . S
C993 C994 1.405 . S
C994 H974 0.950 . S
C994 C993 1.405 . S
C994 C995 1.367 . S
C995 H975 0.950 . S
C995 C990 1.386 . S
C995 C994 1.367 . S
C996 C990 1.483 . S
C996 C997 1.382 . S
C996 C998 1.403 . S
C997 H976 0.950 . S
C997 C996 1.382 . S
C997 C1013 1.411 . S
C998 C996 1.403 . S
C998 C999 1.489 . S
C998 C1012 1.411 . S
C999 C998 1.489 . S
C999 C1000 1.383 . S
C999 C1004 1.382 . S
C1000 H977 0.950 . S
C1000 C999 1.383 . S
C1000 C1001 1.395 . S
C1001 H978 0.950 . S
C1001 C1000 1.395 . S
C1001 C1002 1.288 . S
C1002 C1001 1.288 . S
C1002 C1003 1.392 . S
C1003 H979 0.951 . S
C1003 C1002 1.392 . S
C1003 C1004 1.392 . S
C1004 H980 0.949 . S
C1004 C999 1.382 . S
C1004 C1003 1.392 . S
C1005 C1006 1.376 . S
C1005 C1010 1.386 . S
C1005 C1011 1.483 . S
C1006 H981 0.949 . S
C1006 C1005 1.376 . S
C1006 C1007 1.397 . S
C1007 H982 0.950 . S
C1007 C1006 1.397 . S
C1007 C1008 1.391 . S
C1008 C1007 1.391 . S
C1008 C1009 1.405 . S
C1009 H983 0.950 . S
C1009 C1008 1.405 . S
C1009 C1010 1.367 . S
C1010 H984 0.950 . S
C1010 C1005 1.386 . S
C1010 C1009 1.367 . S
C1011 C1005 1.483 . S
C1011 C1012 1.382 . S
C1011 C1013 1.403 . S
C1012 H985 0.950 . S
C1012 C998 1.411 . S
C1012 C1011 1.382 . S
C1013 C997 1.411 . S
C1013 C1011 1.403 . S
C1013 C1014 1.489 . S
C1014 C1013 1.489 . S
C1014 C1015 1.383 . S
C1014 C1019 1.382 . S
C1015 H986 0.950 . S
C1015 C1014 1.383 . S
C1015 C1016 1.395 . S
C1016 H987 0.950 . S
C1016 C1015 1.395 . S
C1016 C1017 1.288 . S
C1017 C1016 1.288 . S
C1017 C1018 1.392 . S
C1018 H988 0.951 . S
C1018 C1017 1.392 . S
C1018 C1019 1.392 . S
C1019 H989 0.949 . S
C1019 C1014 1.382 . S
C1019 C1018 1.392 . S
H1020 C1039 0.949 . S
H1021 C1040 0.950 . S
H1022 C1042 0.950 . S
H1023 C1043 0.950 . S
H1024 C1045 0.950 . S
H1025 C1048 0.950 . S
H1026 C1049 0.950 . S
H1027 C1051 0.951 . S
H1028 C1052 0.949 . S
H1029 C1054 0.949 . S
H1030 C1055 0.950 . S
H1031 C1057 0.950 . S
H1032 C1058 0.950 . S
H1033 C1060 0.950 . S
H1034 C1063 0.950 . S
H1035 C1064 0.950 . S
H1036 C1066 0.951 . S
H1037 C1067 0.949 . S
C1038 C1039 1.376 . S
C1038 C1043 1.386 . S
C1038 C1044 1.483 . S
C1039 H1020 0.949 . S
C1039 C1038 1.376 . S
C1039 C1040 1.397 . S
C1040 H1021 0.950 . S
C1040 C1039 1.397 . S
C1040 C1041 1.391 . S
C1041 C1040 1.391 . S
C1041 C1042 1.405 . S
C1042 H1022 0.950 . S
C1042 C1041 1.405 . S
C1042 C1043 1.367 . S
C1043 H1023 0.950 . S
C1043 C1038 1.386 . S
C1043 C1042 1.367 . S
C1044 C1038 1.483 . S
C1044 C1045 1.382 . S
C1044 C1046 1.403 . S
C1045 H1024 0.950 . S
C1045 C1044 1.382 . S
C1045 C1061 1.411 . S
C1046 C1044 1.403 . S
C1046 C1047 1.489 . S
C1046 C1060 1.411 . S
C1047 C1046 1.489 . S
C1047 C1048 1.383 . S
C1047 C1052 1.382 . S
C1048 H1025 0.950 . S
C1048 C1047 1.383 . S
C1048 C1049 1.395 . S
C1049 H1026 0.950 . S
C1049 C1048 1.395 . S
C1049 C1050 1.288 . S
C1050 C1049 1.288 . S
C1050 C1051 1.392 . S
C1051 H1027 0.951 . S
C1051 C1050 1.392 . S
C1051 C1052 1.392 . S
C1052 H1028 0.949 . S
C1052 C1047 1.382 . S
C1052 C1051 1.392 . S
C1053 C1054 1.376 . S
C1053 C1058 1.386 . S
C1053 C1059 1.483 . S
C1054 H1029 0.949 . S
C1054 C1053 1.376 . S
C1054 C1055 1.397 . S
C1055 H1030 0.950 . S
C1055 C1054 1.397 . S
C1055 C1056 1.391 . S
C1056 C1055 1.391 . S
C1056 C1057 1.405 . S
C1057 H1031 0.950 . S
C1057 C1056 1.405 . S
C1057 C1058 1.367 . S
C1058 H1032 0.950 . S
C1058 C1053 1.386 . S
C1058 C1057 1.367 . S
C1059 C1053 1.483 . S
C1059 C1060 1.382 . S
C1059 C1061 1.403 . S
C1060 H1033 0.950 . S
C1060 C1046 1.411 . S
C1060 C1059 1.382 . S
C1061 C1045 1.411 . S
C1061 C1059 1.403 . S
C1061 C1062 1.489 . S
C1062 C1061 1.489 . S
C1062 C1063 1.383 . S
C1062 C1067 1.382 . S
C1063 H1034 0.950 . S
C1063 C1062 1.383 . S
C1063 C1064 1.395 . S
C1064 H1035 0.950 . S
C1064 C1063 1.395 . S
C1064 C1065 1.288 . S
C1065 C1064 1.288 . S
C1065 C1066 1.392 . S
C1066 H1036 0.951 . S
C1066 C1065 1.392 . S
C1066 C1067 1.392 . S
C1067 H1037 0.949 . S
C1067 C1062 1.382 . S
C1067 C1066 1.392 . S
H1068 C1087 0.949 . S
H1069 C1088 0.950 . S
H1070 C1090 0.950 . S
H1071 C1091 0.950 . S
H1072 C1093 0.950 . S
H1073 C1096 0.950 . S
H1074 C1097 0.950 . S
H1075 C1099 0.951 . S
H1076 C1100 0.949 . S
H1077 C1102 0.949 . S
H1078 C1103 0.950 . S
H1079 C1105 0.950 . S
H1080 C1106 0.950 . S
H1081 C1108 0.950 . S
H1082 C1111 0.950 . S
H1083 C1112 0.950 . S
H1084 C1114 0.951 . S
H1085 C1115 0.949 . S
C1086 C1087 1.376 . S
C1086 C1091 1.386 . S
C1086 C1092 1.483 . S
C1087 H1068 0.949 . S
C1087 C1086 1.376 . S
C1087 C1088 1.397 . S
C1088 H1069 0.950 . S
C1088 C1087 1.397 . S
C1088 C1089 1.391 . S
C1089 C1088 1.391 . S
C1089 C1090 1.405 . S
C1090 H1070 0.950 . S
C1090 C1089 1.405 . S
C1090 C1091 1.367 . S
C1091 H1071 0.950 . S
C1091 C1086 1.386 . S
C1091 C1090 1.367 . S
C1092 C1086 1.483 . S
C1092 C1093 1.382 . S
C1092 C1094 1.403 . S
C1093 H1072 0.950 . S
C1093 C1092 1.382 . S
C1093 C1109 1.411 . S
C1094 C1092 1.403 . S
C1094 C1095 1.489 . S
C1094 C1108 1.411 . S
C1095 C1094 1.489 . S
C1095 C1096 1.383 . S
C1095 C1100 1.382 . S
C1096 H1073 0.950 . S
C1096 C1095 1.383 . S
C1096 C1097 1.395 . S
C1097 H1074 0.950 . S
C1097 C1096 1.395 . S
C1097 C1098 1.288 . S
C1098 C1097 1.288 . S
C1098 C1099 1.392 . S
C1099 H1075 0.951 . S
C1099 C1098 1.392 . S
C1099 C1100 1.392 . S
C1100 H1076 0.949 . S
C1100 C1095 1.382 . S
C1100 C1099 1.392 . S
C1101 C1102 1.376 . S
C1101 C1106 1.386 . S
C1101 C1107 1.483 . S
C1102 H1077 0.949 . S
C1102 C1101 1.376 . S
C1102 C1103 1.397 . S
C1103 H1078 0.950 . S
C1103 C1102 1.397 . S
C1103 C1104 1.391 . S
C1104 C1103 1.391 . S
C1104 C1105 1.405 . S
C1105 H1079 0.950 . S
C1105 C1104 1.405 . S
C1105 C1106 1.367 . S
C1106 H1080 0.950 . S
C1106 C1101 1.386 . S
C1106 C1105 1.367 . S
C1107 C1101 1.483 . S
C1107 C1108 1.382 . S
C1107 C1109 1.403 . S
C1108 H1081 0.950 . S
C1108 C1094 1.411 . S
C1108 C1107 1.382 . S
C1109 C1093 1.411 . S
C1109 C1107 1.403 . S
C1109 C1110 1.489 . S
C1110 C1109 1.489 . S
C1110 C1111 1.383 . S
C1110 C1115 1.382 . S
C1111 H1082 0.950 . S
C1111 C1110 1.383 . S
C1111 C1112 1.395 . S
C1112 H1083 0.950 . S
C1112 C1111 1.395 . S
C1112 C1113 1.288 . S
C1113 C1112 1.288 . S
C1113 C1114 1.392 . S
C1114 H1084 0.951 . S
C1114 C1113 1.392 . S
C1114 C1115 1.392 . S
C1115 H1085 0.949 . S
C1115 C1110 1.382 . S
C1115 C1114 1.392 . S
C1116 C1117 1.349 1_455 S
C1116 C1118 1.327 . S
C1116 H1141 0.950 . S
C1117 C1116 1.349 1_655 S
C1117 C1133 1.349 . S
C1118 C1116 1.327 . S
C1118 C1137 1.429 1_455 S
C1118 H1142 0.950 . S
C1119 C1136 1.574 . S
C1119 C1138 1.368 . S
C1119 H1143 0.949 . S
H1120 C1124 0.949 . S
C1121 C1122 1.349 . S
C1121 C1123 1.327 . S
C1121 H1144 0.950 . S
C1122 C1121 1.349 . S
C1122 C1134 1.349 1_655 S
C1123 C1121 1.327 . S
C1123 C1139 1.429 . S
C1123 H1145 0.950 . S
C1124 H1120 0.949 . S
C1124 C1132 1.574 . S
C1124 C1140 1.368 1_455 S
H1125 C1133 0.950 . S
H1126 C1131 0.950 . S
H1127 C1132 0.949 . S
H1128 C1134 0.950 . S
H1129 C1135 0.950 . S
H1130 C1136 0.949 . S
C1131 H1126 0.950 . S
C1131 C1133 1.327 . S
C1131 C1137 1.429 . S
C1132 C1124 1.574 . S
C1132 H1127 0.949 . S
C1132 C1138 1.368 1_455 S
C1133 C1117 1.349 . S
C1133 H1125 0.950 . S
C1133 C1131 1.327 . S
C1134 C1122 1.349 1_455 S
C1134 H1128 0.950 . S
C1134 C1135 1.327 . S
C1135 H1129 0.950 . S
C1135 C1134 1.327 . S
C1135 C1139 1.429 1_455 S
C1136 C1119 1.574 . S
C1136 H1130 0.949 . S
C1136 C1140 1.368 . S
C1137 C1118 1.429 1_655 S
C1137 C1131 1.429 . S
C1137 C1138 1.523 . S
C1138 C1119 1.368 . S
C1138 C1132 1.368 1_655 S
C1138 C1137 1.523 . S
C1139 C1123 1.429 . S
C1139 C1135 1.429 1_655 S
C1139 C1140 1.523 . S
C1140 C1124 1.368 1_655 S
C1140 C1136 1.368 . S
C1140 C1139 1.523 . S
H1141 C1116 0.950 . S
H1142 C1118 0.950 . S
H1143 C1119 0.949 . S
H1144 C1121 0.950 . S
H1145 C1123 0.950 . S
C1146 C1147 1.349 . S
C1146 C1148 1.327 . S
C1146 H1171 0.950 . S
C1147 C1146 1.349 . S
C1147 C1163 1.349 . S
C1148 C1146 1.327 . S
C1148 C1167 1.429 . S
C1148 H1172 0.950 . S
C1149 C1166 1.574 . S
C1149 C1168 1.368 . S
C1149 H1173 0.949 . S
H1150 C1154 0.949 . S
C1151 C1152 1.349 . S
C1151 C1153 1.327 . S
C1151 H1174 0.950 . S
C1152 C1151 1.349 . S
C1152 C1164 1.349 . S
C1153 C1151 1.327 . S
C1153 C1169 1.429 . S
C1153 H1175 0.950 . S
C1154 H1150 0.949 . S
C1154 C1162 1.574 . S
C1154 C1170 1.368 . S
H1155 C1163 0.950 . S
H1156 C1161 0.950 . S
H1157 C1162 0.949 . S
H1158 C1164 0.950 . S
H1159 C1165 0.950 . S
H1160 C1166 0.949 . S
C1161 H1156 0.950 . S
C1161 C1163 1.327 . S
C1161 C1167 1.429 . S
C1162 C1154 1.574 . S
C1162 H1157 0.949 . S
C1162 C1168 1.368 . S
C1163 C1147 1.349 . S
C1163 H1155 0.950 . S
C1163 C1161 1.327 . S
C1164 C1152 1.349 . S
C1164 H1158 0.950 . S
C1164 C1165 1.327 . S
C1165 H1159 0.950 . S
C1165 C1164 1.327 . S
C1165 C1169 1.429 . S
C1166 C1149 1.574 . S
C1166 H1160 0.949 . S
C1166 C1170 1.368 . S
C1167 C1148 1.429 . S
C1167 C1161 1.429 . S
C1167 C1168 1.523 . S
C1168 C1149 1.368 . S
C1168 C1162 1.368 . S
C1168 C1167 1.523 . S
C1169 C1153 1.429 . S
C1169 C1165 1.429 . S
C1169 C1170 1.523 . S
C1170 C1154 1.368 . S
C1170 C1166 1.368 . S
C1170 C1169 1.523 . S
H1171 C1146 0.950 . S
H1172 C1148 0.950 . S
H1173 C1149 0.949 . S
H1174 C1151 0.950 . S
H1175 C1153 0.950 . S
C1176 C1177 1.349 1_565 S
C1176 C1178 1.327 . S
C1176 H1201 0.950 . S
C1177 C1176 1.349 1_545 S
C1177 C1193 1.349 . S
C1178 C1176 1.327 . S
C1178 C1197 1.429 1_565 S
C1178 H1202 0.950 . S
C1179 C1196 1.574 . S
C1179 C1198 1.368 . S
C1179 H1203 0.949 . S
H1180 C1184 0.949 . S
C1181 C1182 1.349 . S
C1181 C1183 1.327 . S
C1181 H1204 0.950 . S
C1182 C1181 1.349 . S
C1182 C1194 1.349 1_545 S
C1183 C1181 1.327 . S
C1183 C1199 1.429 . S
C1183 H1205 0.950 . S
C1184 H1180 0.949 . S
C1184 C1192 1.574 . S
C1184 C1200 1.368 1_565 S
H1185 C1193 0.950 . S
H1186 C1191 0.950 . S
H1187 C1192 0.949 . S
H1188 C1194 0.950 . S
H1189 C1195 0.950 . S
H1190 C1196 0.949 . S
C1191 H1186 0.950 . S
C1191 C1193 1.327 . S
C1191 C1197 1.429 . S
C1192 C1184 1.574 . S
C1192 H1187 0.949 . S
C1192 C1198 1.368 1_565 S
C1193 C1177 1.349 . S
C1193 H1185 0.950 . S
C1193 C1191 1.327 . S
C1194 C1182 1.349 1_565 S
C1194 H1188 0.950 . S
C1194 C1195 1.327 . S
C1195 H1189 0.950 . S
C1195 C1194 1.327 . S
C1195 C1199 1.429 1_565 S
C1196 C1179 1.574 . S
C1196 H1190 0.949 . S
C1196 C1200 1.368 . S
C1197 C1178 1.429 1_545 S
C1197 C1191 1.429 . S
C1197 C1198 1.523 . S
C1198 C1179 1.368 . S
C1198 C1192 1.368 1_545 S
C1198 C1197 1.523 . S
C1199 C1183 1.429 . S
C1199 C1195 1.429 1_545 S
C1199 C1200 1.523 . S
C1200 C1184 1.368 1_545 S
C1200 C1196 1.368 . S
C1200 C1199 1.523 . S
H1201 C1176 0.950 . S
H1202 C1178 0.950 . S
H1203 C1179 0.949 . S
H1204 C1181 0.950 . S
H1205 C1183 0.950 . S
C1206 C1207 1.349 . S
C1206 C1208 1.327 . S
C1206 H1231 0.950 . S
C1207 C1206 1.349 . S
C1207 C1223 1.349 1_565 S
C1208 C1206 1.327 . S
C1208 C1227 1.429 . S
C1208 H1232 0.950 . S
C1209 C1226 1.574 . S
C1209 C1228 1.368 1_545 S
C1209 H1233 0.949 . S
H1210 C1214 0.949 . S
C1211 C1212 1.349 1_545 S
C1211 C1213 1.327 . S
C1211 H1234 0.950 . S
C1212 C1211 1.349 1_565 S
C1212 C1224 1.349 . S
C1213 C1211 1.327 . S
C1213 C1229 1.429 1_545 S
C1213 H1235 0.950 . S
C1214 H1210 0.949 . S
C1214 C1222 1.574 . S
C1214 C1230 1.368 . S
H1215 C1223 0.950 . S
H1216 C1221 0.950 . S
H1217 C1222 0.949 . S
H1218 C1224 0.950 . S
H1219 C1225 0.950 . S
H1220 C1226 0.949 . S
C1221 H1216 0.950 . S
C1221 C1223 1.327 . S
C1221 C1227 1.429 1_545 S
C1222 C1214 1.574 . S
C1222 H1217 0.949 . S
C1222 C1228 1.368 . S
C1223 C1207 1.349 1_545 S
C1223 H1215 0.950 . S
C1223 C1221 1.327 . S
C1224 C1212 1.349 . S
C1224 H1218 0.950 . S
C1224 C1225 1.327 . S
C1225 H1219 0.950 . S
C1225 C1224 1.327 . S
C1225 C1229 1.429 . S
C1226 C1209 1.574 . S
C1226 H1220 0.949 . S
C1226 C1230 1.368 1_545 S
C1227 C1208 1.429 . S
C1227 C1221 1.429 1_565 S
C1227 C1228 1.523 . S
C1228 C1209 1.368 1_565 S
C1228 C1222 1.368 . S
C1228 C1227 1.523 . S
C1229 C1213 1.429 1_565 S
C1229 C1225 1.429 . S
C1229 C1230 1.523 . S
C1230 C1214 1.368 . S
C1230 C1226 1.368 1_565 S
C1230 C1229 1.523 . S
H1231 C1206 0.950 . S
H1232 C1208 0.950 . S
H1233 C1209 0.949 . S
H1234 C1211 0.950 . S
H1235 C1213 0.950 . S
C1236 C1237 1.349 . S
C1236 C1238 1.327 . S
C1236 H1261 0.950 . S
C1237 C1236 1.349 . S
C1237 C1253 1.395 . S
C1238 C1236 1.327 . S
C1238 C1257 1.429 . S
C1238 H1262 0.950 . S
C1239 C1256 1.574 . S
C1239 C1258 1.368 1_655 S
C1239 H1263 0.949 . S
H1240 C1244 0.949 . S
C1241 C1242 1.349 1_655 S
C1241 C1243 1.327 . S
C1241 H1264 0.950 . S
C1242 C1241 1.349 1_455 S
C1242 C1254 1.349 . S
C1243 C1241 1.327 . S
C1243 C1259 1.429 1_655 S
C1243 H1265 0.950 . S
C1244 H1240 0.949 . S
C1244 C1252 1.574 . S
C1244 C1260 1.368 . S
H1245 C1253 0.929 1_655 S
H1246 C1251 1.023 . S
H1247 C1252 0.949 . S
H1248 C1254 0.950 . S
H1249 C1255 0.950 . S
H1250 C1256 0.949 . S
C1251 H1246 1.023 . S
C1251 C1253 1.269 1_655 S
C1251 C1257 1.399 1_655 S
C1252 C1244 1.574 . S
C1252 H1247 0.949 . S
C1252 C1258 1.368 . S
C1253 C1237 1.395 . S
C1253 H1245 0.929 1_455 S
C1253 C1251 1.269 1_455 S
C1254 C1242 1.349 . S
C1254 H1248 0.950 . S
C1254 C1255 1.327 . S
C1255 H1249 0.950 . S
C1255 C1254 1.327 . S
C1255 C1259 1.429 . S
C1256 C1239 1.574 . S
C1256 H1250 0.949 . S
C1256 C1260 1.368 1_655 S
C1257 C1238 1.429 . S
C1257 C1251 1.399 1_455 S
C1257 C1258 1.523 . S
C1258 C1239 1.368 1_455 S
C1258 C1252 1.368 . S
C1258 C1257 1.523 . S
C1259 C1243 1.429 1_455 S
C1259 C1255 1.429 . S
C1259 C1260 1.523 . S
C1260 C1244 1.368 . S
C1260 C1256 1.368 1_455 S
C1260 C1259 1.523 . S
H1261 C1236 0.950 . S
H1262 C1238 0.950 . S
H1263 C1239 0.949 . S
H1264 C1241 0.950 . S
H1265 C1243 0.950 . S
C1266 C1267 1.349 . S
C1266 C1268 1.327 . S
C1266 H1291 0.950 . S
C1267 C1266 1.349 . S
C1267 C1283 1.349 . S
C1268 C1266 1.327 . S
C1268 C1287 1.429 . S
C1268 H1292 0.950 . S
C1269 C1286 1.574 . S
C1269 C1288 1.368 . S
C1269 H1293 0.949 . S
H1270 C1274 0.949 . S
C1271 C1272 1.349 . S
C1271 C1273 1.327 . S
C1271 H1294 0.950 . S
C1272 C1271 1.349 . S
C1272 C1284 1.349 . S
C1273 C1271 1.327 . S
C1273 C1289 1.429 . S
C1273 H1295 0.950 . S
C1274 H1270 0.949 . S
C1274 C1282 1.574 . S
C1274 C1290 1.368 . S
H1275 C1283 0.950 . S
H1276 C1281 0.950 . S
H1277 C1282 0.949 . S
H1278 C1284 0.950 . S
H1279 C1285 0.950 . S
H1280 C1286 0.949 . S
C1281 H1276 0.950 . S
C1281 C1283 1.327 . S
C1281 C1287 1.429 . S
C1282 C1274 1.574 . S
C1282 H1277 0.949 . S
C1282 C1288 1.368 . S
C1283 C1267 1.349 . S
C1283 H1275 0.950 . S
C1283 C1281 1.327 . S
C1284 C1272 1.349 . S
C1284 H1278 0.950 . S
C1284 C1285 1.327 . S
C1285 H1279 0.950 . S
C1285 C1284 1.327 . S
C1285 C1289 1.429 . S
C1286 C1269 1.574 . S
C1286 H1280 0.949 . S
C1286 C1290 1.368 . S
C1287 C1268 1.429 . S
C1287 C1281 1.429 . S
C1287 C1288 1.523 . S
C1288 C1269 1.368 . S
C1288 C1282 1.368 . S
C1288 C1287 1.523 . S
C1289 C1273 1.429 . S
C1289 C1285 1.429 . S
C1289 C1290 1.523 . S
C1290 C1274 1.368 . S
C1290 C1286 1.368 . S
C1290 C1289 1.523 . S
H1291 C1266 0.950 . S
H1292 C1268 0.950 . S
H1293 C1269 0.949 . S
H1294 C1271 0.950 . S
H1295 C1273 0.950 . S
C1296 C1297 1.349 . S
C1296 C1298 1.327 . S
C1296 H1321 0.950 . S
C1297 C1296 1.349 . S
C1297 C1313 1.349 1_455 S
C1298 C1296 1.327 . S
C1298 C1317 1.429 . S
C1298 H1322 0.950 . S
C1299 C1316 1.574 . S
C1299 C1318 1.368 1_655 S
C1299 H1323 0.949 . S
H1300 C1304 0.949 . S
C1301 C1302 1.349 1_655 S
C1301 C1303 1.327 . S
C1301 H1324 0.950 . S
C1302 C1301 1.349 1_455 S
C1302 C1314 1.349 . S
C1303 C1301 1.327 . S
C1303 C1319 1.429 1_655 S
C1303 H1325 0.950 . S
C1304 H1300 0.949 . S
C1304 C1312 1.574 . S
C1304 C1320 1.368 . S
H1305 C1313 0.950 . S
H1306 C1311 0.950 . S
H1307 C1312 0.949 . S
H1308 C1314 0.950 . S
H1309 C1315 0.950 . S
H1310 C1316 0.949 . S
C1311 H1306 0.950 . S
C1311 C1313 1.327 . S
C1311 C1317 1.429 1_655 S
C1312 C1304 1.574 . S
C1312 H1307 0.949 . S
C1312 C1318 1.368 . S
C1313 C1297 1.349 1_655 S
C1313 H1305 0.950 . S
C1313 C1311 1.327 . S
C1314 C1302 1.349 . S
C1314 H1308 0.950 . S
C1314 C1315 1.327 . S
C1315 H1309 0.950 . S
C1315 C1314 1.327 . S
C1315 C1319 1.429 . S
C1316 C1299 1.574 . S
C1316 H1310 0.949 . S
C1316 C1320 1.368 1_655 S
C1317 C1298 1.429 . S
C1317 C1311 1.429 1_455 S
C1317 C1318 1.523 . S
C1318 C1299 1.368 1_455 S
C1318 C1312 1.368 . S
C1318 C1317 1.523 . S
C1319 C1303 1.429 1_455 S
C1319 C1315 1.429 . S
C1319 C1320 1.523 . S
C1320 C1304 1.368 . S
C1320 C1316 1.368 1_455 S
C1320 C1319 1.523 . S
H1321 C1296 0.950 . S
H1322 C1298 0.950 . S
H1323 C1299 0.949 . S
H1324 C1301 0.950 . S
H1325 C1303 0.950 . S
C1326 C1327 1.349 . S
C1326 C1328 1.327 . S
C1326 H1351 0.950 . S
C1327 C1326 1.349 . S
C1327 C1343 1.349 . S
C1328 C1326 1.327 . S
C1328 C1347 1.429 . S
C1328 H1352 0.950 . S
C1329 C1346 1.574 . S
C1329 C1348 1.368 . S
C1329 H1353 0.949 . S
H1330 C1334 0.949 . S
C1331 C1332 1.349 . S
C1331 C1333 1.327 . S
C1331 H1354 0.950 . S
C1332 C1331 1.349 . S
C1332 C1344 1.349 . S
C1333 C1331 1.327 . S
C1333 C1349 1.429 . S
C1333 H1355 0.950 . S
C1334 H1330 0.949 . S
C1334 C1342 1.574 . S
C1334 C1350 1.368 . S
H1335 C1343 0.950 . S
H1336 C1341 0.950 . S
H1337 C1342 0.949 . S
H1338 C1344 0.950 . S
H1339 C1345 0.950 . S
H1340 C1346 0.949 . S
C1341 H1336 0.950 . S
C1341 C1343 1.327 . S
C1341 C1347 1.429 . S
C1342 C1334 1.574 . S
C1342 H1337 0.949 . S
C1342 C1348 1.368 . S
C1343 C1327 1.349 . S
C1343 H1335 0.950 . S
C1343 C1341 1.327 . S
C1344 C1332 1.349 . S
C1344 H1338 0.950 . S
C1344 C1345 1.327 . S
C1345 H1339 0.950 . S
C1345 C1344 1.327 . S
C1345 C1349 1.429 . S
C1346 C1329 1.574 . S
C1346 H1340 0.949 . S
C1346 C1350 1.368 . S
C1347 C1328 1.429 . S
C1347 C1341 1.429 . S
C1347 C1348 1.523 . S
C1348 C1329 1.368 . S
C1348 C1342 1.368 . S
C1348 C1347 1.523 . S
C1349 C1333 1.429 . S
C1349 C1345 1.429 . S
C1349 C1350 1.523 . S
C1350 C1334 1.368 . S
C1350 C1346 1.368 . S
C1350 C1349 1.523 . S
H1351 C1326 0.950 . S
H1352 C1328 0.950 . S
H1353 C1329 0.949 . S
H1354 C1331 0.950 . S
H1355 C1333 0.950 . S
C1356 C1357 1.349 . S
C1356 C1358 1.327 . S
C1356 H1381 0.950 . S
C1357 C1356 1.349 . S
C1357 C1373 1.349 1_565 S
C1358 C1356 1.327 . S
C1358 C1377 1.429 . S
C1358 H1382 0.950 . S
C1359 C1376 1.574 . S
C1359 C1378 1.368 1_545 S
C1359 H1383 0.949 . S
H1360 C1364 0.949 . S
C1361 C1362 1.349 1_545 S
C1361 C1363 1.327 . S
C1361 H1384 0.950 . S
C1362 C1361 1.349 1_565 S
C1362 C1374 1.349 . S
C1363 C1361 1.327 . S
C1363 C1379 1.429 1_545 S
C1363 H1385 0.950 . S
C1364 H1360 0.949 . S
C1364 C1372 1.574 . S
C1364 C1380 1.368 . S
H1365 C1373 0.950 . S
H1366 C1371 0.950 . S
H1367 C1372 0.949 . S
H1368 C1374 0.950 . S
H1369 C1375 0.950 . S
H1370 C1376 0.949 . S
C1371 H1366 0.950 . S
C1371 C1373 1.327 . S
C1371 C1377 1.429 1_545 S
C1372 C1364 1.574 . S
C1372 H1367 0.949 . S
C1372 C1378 1.368 . S
C1373 C1357 1.349 1_545 S
C1373 H1365 0.950 . S
C1373 C1371 1.327 . S
C1374 C1362 1.349 . S
C1374 H1368 0.950 . S
C1374 C1375 1.327 . S
C1375 H1369 0.950 . S
C1375 C1374 1.327 . S
C1375 C1379 1.429 . S
C1376 C1359 1.574 . S
C1376 H1370 0.949 . S
C1376 C1380 1.368 1_545 S
C1377 C1358 1.429 . S
C1377 C1371 1.429 1_565 S
C1377 C1378 1.523 . S
C1378 C1359 1.368 1_565 S
C1378 C1372 1.368 . S
C1378 C1377 1.523 . S
C1379 C1363 1.429 1_565 S
C1379 C1375 1.429 . S
C1379 C1380 1.523 . S
C1380 C1364 1.368 . S
C1380 C1376 1.368 1_565 S
C1380 C1379 1.523 . S
H1381 C1356 0.950 . S
H1382 C1358 0.950 . S
H1383 C1359 0.949 . S
H1384 C1361 0.950 . S
H1385 C1363 0.950 . S
C1386 C1387 1.349 . S
C1386 C1388 1.327 . S
C1386 H1411 0.950 . S
C1387 C1386 1.349 . S
C1387 C1403 1.349 . S
C1388 C1386 1.327 . S
C1388 C1407 1.429 . S
C1388 H1412 0.950 . S
C1389 C1406 1.574 . S
C1389 C1408 1.368 1_565 S
C1389 H1413 0.949 . S
H1390 C1394 0.949 . S
C1391 C1392 1.349 1_565 S
C1391 C1393 1.327 . S
C1391 H1414 0.950 . S
C1392 C1391 1.349 1_545 S
C1392 C1404 1.349 . S
C1393 C1391 1.327 . S
C1393 C1409 1.429 1_565 S
C1393 H1415 0.950 . S
C1394 H1390 0.949 . S
C1394 C1402 1.574 . S
C1394 C1410 1.368 . S
H1395 C1403 0.950 1_565 S
H1396 C1401 0.954 . S
H1397 C1402 0.949 . S
H1398 C1404 0.950 . S
H1399 C1405 0.950 . S
H1400 C1406 0.949 . S
C1401 H1396 0.954 . S
C1401 C1403 1.329 1_565 S
C1401 C1407 1.423 1_565 S
C1402 C1394 1.574 . S
C1402 H1397 0.949 . S
C1402 C1408 1.368 . S
C1403 C1387 1.349 . S
C1403 H1395 0.950 1_545 S
C1403 C1401 1.329 1_545 S
C1404 C1392 1.349 . S
C1404 H1398 0.950 . S
C1404 C1405 1.327 . S
C1405 H1399 0.950 . S
C1405 C1404 1.327 . S
C1405 C1409 1.429 . S
C1406 C1389 1.574 . S
C1406 H1400 0.949 . S
C1406 C1410 1.368 1_565 S
C1407 C1388 1.429 . S
C1407 C1401 1.423 1_545 S
C1407 C1408 1.523 . S
C1408 C1389 1.368 1_545 S
C1408 C1402 1.368 . S
C1408 C1407 1.523 . S
C1409 C1393 1.429 1_545 S
C1409 C1405 1.429 . S
C1409 C1410 1.523 . S
C1410 C1394 1.368 . S
C1410 C1406 1.368 1_545 S
C1410 C1409 1.523 . S
H1411 C1386 0.950 . S
H1412 C1388 0.950 . S
H1413 C1389 0.949 . S
H1414 C1391 0.950 . S
H1415 C1393 0.950 . S
C1416 C1417 1.358 . S
C1416 C1418 1.304 1_655 S
C1416 H1441 0.945 1_655 S
C1417 C1416 1.358 . S
C1417 C1433 1.349 . S
C1418 C1416 1.304 1_455 S
C1418 C1437 1.411 1_455 S
C1418 H1442 0.988 . S
C1419 C1436 1.574 . S
C1419 C1438 1.368 . S
C1419 H1443 0.949 . S
H1420 C1424 0.949 . S
C1421 C1422 1.349 . S
C1421 C1423 1.327 . S
C1421 H1444 0.950 . S
C1422 C1421 1.349 . S
C1422 C1434 1.349 1_655 S
C1423 C1421 1.327 . S
C1423 C1439 1.429 . S
C1423 H1445 0.950 . S
C1424 H1420 0.949 . S
C1424 C1432 1.574 . S
C1424 C1440 1.368 1_455 S
H1425 C1433 0.950 . S
H1426 C1431 0.950 . S
H1427 C1432 0.949 . S
H1428 C1434 0.950 . S
H1429 C1435 0.950 . S
H1430 C1436 0.949 . S
C1431 H1426 0.950 . S
C1431 C1433 1.327 . S
C1431 C1437 1.429 . S
C1432 C1424 1.574 . S
C1432 H1427 0.949 . S
C1432 C1438 1.368 1_455 S
C1433 C1417 1.349 . S
C1433 H1425 0.950 . S
C1433 C1431 1.327 . S
C1434 C1422 1.349 1_455 S
C1434 H1428 0.950 . S
C1434 C1435 1.327 . S
C1435 H1429 0.950 . S
C1435 C1434 1.327 . S
C1435 C1439 1.429 1_455 S
C1436 C1419 1.574 . S
C1436 H1430 0.949 . S
C1436 C1440 1.368 . S
C1437 C1418 1.411 1_655 S
C1437 C1431 1.429 . S
C1437 C1438 1.523 . S
C1438 C1419 1.368 . S
C1438 C1432 1.368 1_655 S
C1438 C1437 1.523 . S
C1439 C1423 1.429 . S
C1439 C1435 1.429 1_655 S
C1439 C1440 1.523 . S
C1440 C1424 1.368 1_655 S
C1440 C1436 1.368 . S
C1440 C1439 1.523 . S
H1441 C1416 0.945 1_455 S
H1442 C1418 0.988 . S
H1443 C1419 0.949 . S
H1444 C1421 0.950 . S
H1445 C1423 0.950 . S
C1446 C1447 1.349 . S
C1446 C1448 1.327 . S
C1446 H1471 0.950 . S
C1447 C1446 1.349 . S
C1447 C1463 1.349 . S
C1448 C1446 1.327 . S
C1448 C1467 1.429 . S
C1448 H1472 0.950 . S
C1449 C1466 1.574 . S
C1449 C1468 1.368 . S
C1449 H1473 0.949 . S
H1450 C1454 0.949 . S
C1451 C1452 1.349 . S
C1451 C1453 1.327 . S
C1451 H1474 0.950 . S
C1452 C1451 1.349 . S
C1452 C1464 1.349 . S
C1453 C1451 1.327 . S
C1453 C1469 1.429 . S
C1453 H1475 0.950 . S
C1454 H1450 0.949 . S
C1454 C1462 1.574 . S
C1454 C1470 1.368 . S
H1455 C1463 0.950 . S
H1456 C1461 0.950 . S
H1457 C1462 0.949 . S
H1458 C1464 0.950 . S
H1459 C1465 0.950 . S
H1460 C1466 0.949 . S
C1461 H1456 0.950 . S
C1461 C1463 1.327 . S
C1461 C1467 1.429 . S
C1462 C1454 1.574 . S
C1462 H1457 0.949 . S
C1462 C1468 1.368 . S
C1463 C1447 1.349 . S
C1463 H1455 0.950 . S
C1463 C1461 1.327 . S
C1464 C1452 1.349 . S
C1464 H1458 0.950 . S
C1464 C1465 1.327 . S
C1465 H1459 0.950 . S
C1465 C1464 1.327 . S
C1465 C1469 1.429 . S
C1466 C1449 1.574 . S
C1466 H1460 0.949 . S
C1466 C1470 1.368 . S
C1467 C1448 1.429 . S
C1467 C1461 1.429 . S
C1467 C1468 1.523 . S
C1468 C1449 1.368 . S
C1468 C1462 1.368 . S
C1468 C1467 1.523 . S
C1469 C1453 1.429 . S
C1469 C1465 1.429 . S
C1469 C1470 1.523 . S
C1470 C1454 1.368 . S
C1470 C1466 1.368 . S
C1470 C1469 1.523 . S
H1471 C1446 0.950 . S
H1472 C1448 0.950 . S
H1473 C1449 0.949 . S
H1474 C1451 0.950 . S
H1475 C1453 0.950 . S
C1476 C1477 1.349 . S
C1476 C1478 1.327 . S
C1476 H1501 0.950 . S
C1477 C1476 1.349 . S
C1477 C1493 1.349 . S
C1478 C1476 1.327 . S
C1478 C1497 1.429 . S
C1478 H1502 0.950 . S
C1479 C1496 1.574 . S
C1479 C1498 1.368 . S
C1479 H1503 0.949 . S
H1480 C1484 0.949 . S
C1481 C1482 1.349 . S
C1481 C1483 1.327 . S
C1481 H1504 0.950 . S
C1482 C1481 1.349 . S
C1482 C1494 1.349 . S
C1483 C1481 1.327 . S
C1483 C1499 1.429 . S
C1483 H1505 0.950 . S
C1484 H1480 0.949 . S
C1484 C1492 1.574 . S
C1484 C1500 1.368 . S
H1485 C1493 0.950 . S
H1486 C1491 0.950 . S
H1487 C1492 0.949 . S
H1488 C1494 0.950 . S
H1489 C1495 0.950 . S
H1490 C1496 0.949 . S
C1491 H1486 0.950 . S
C1491 C1493 1.327 . S
C1491 C1497 1.429 . S
C1492 C1484 1.574 . S
C1492 H1487 0.949 . S
C1492 C1498 1.368 . S
C1493 C1477 1.349 . S
C1493 H1485 0.950 . S
C1493 C1491 1.327 . S
C1494 C1482 1.349 . S
C1494 H1488 0.950 . S
C1494 C1495 1.327 . S
C1495 H1489 0.950 . S
C1495 C1494 1.327 . S
C1495 C1499 1.429 . S
C1496 C1479 1.574 . S
C1496 H1490 0.949 . S
C1496 C1500 1.368 . S
C1497 C1478 1.429 . S
C1497 C1491 1.429 . S
C1497 C1498 1.523 . S
C1498 C1479 1.368 . S
C1498 C1492 1.368 . S
C1498 C1497 1.523 . S
C1499 C1483 1.429 . S
C1499 C1495 1.429 . S
C1499 C1500 1.523 . S
C1500 C1484 1.368 . S
C1500 C1496 1.368 . S
C1500 C1499 1.523 . S
H1501 C1476 0.950 . S
H1502 C1478 0.950 . S
H1503 C1479 0.949 . S
H1504 C1481 0.950 . S
H1505 C1483 0.950 . S
C1506 C1507 1.349 . S
C1506 C1508 1.327 . S
C1506 H1531 0.950 . S
C1507 C1506 1.349 . S
C1507 C1523 1.349 . S
C1508 C1506 1.327 . S
C1508 C1527 1.429 . S
C1508 H1532 0.950 . S
C1509 C1526 1.574 . S
C1509 C1528 1.368 . S
C1509 H1533 0.949 . S
H1510 C1514 0.949 . S
C1511 C1512 1.349 . S
C1511 C1513 1.327 . S
C1511 H1534 0.950 . S
C1512 C1511 1.349 . S
C1512 C1524 1.349 . S
C1513 C1511 1.327 . S
C1513 C1529 1.429 . S
C1513 H1535 0.950 . S
C1514 H1510 0.949 . S
C1514 C1522 1.574 . S
C1514 C1530 1.368 . S
H1515 C1523 0.950 . S
H1516 C1521 0.950 . S
H1517 C1522 0.949 . S
H1518 C1524 0.950 . S
H1519 C1525 0.950 . S
H1520 C1526 0.949 . S
C1521 H1516 0.950 . S
C1521 C1523 1.327 . S
C1521 C1527 1.429 . S
C1522 C1514 1.574 . S
C1522 H1517 0.949 . S
C1522 C1528 1.368 . S
C1523 C1507 1.349 . S
C1523 H1515 0.950 . S
C1523 C1521 1.327 . S
C1524 C1512 1.349 . S
C1524 H1518 0.950 . S
C1524 C1525 1.327 . S
C1525 H1519 0.950 . S
C1525 C1524 1.327 . S
C1525 C1529 1.429 . S
C1526 C1509 1.574 . S
C1526 H1520 0.949 . S
C1526 C1530 1.368 . S
C1527 C1508 1.429 . S
C1527 C1521 1.429 . S
C1527 C1528 1.523 . S
C1528 C1509 1.368 . S
C1528 C1522 1.368 . S
C1528 C1527 1.523 . S
C1529 C1513 1.429 . S
C1529 C1525 1.429 . S
C1529 C1530 1.523 . S
C1530 C1514 1.368 . S
C1530 C1526 1.368 . S
C1530 C1529 1.523 . S
H1531 C1506 0.950 . S
H1532 C1508 0.950 . S
H1533 C1509 0.949 . S
H1534 C1511 0.950 . S
H1535 C1513 0.950 . S
C1536 C1537 1.349 . S
C1536 C1538 1.327 . S
C1536 H1561 0.950 . S
C1537 C1536 1.349 . S
C1537 C1553 1.349 . S
C1538 C1536 1.327 . S
C1538 C1557 1.429 . S
C1538 H1562 0.950 . S
C1539 C1556 1.574 . S
C1539 C1558 1.368 . S
C1539 H1563 0.949 . S
H1540 C1544 0.949 . S
C1541 C1542 1.349 . S
C1541 C1543 1.327 . S
C1541 H1564 0.950 . S
C1542 C1541 1.349 . S
C1542 C1554 1.349 . S
C1543 C1541 1.327 . S
C1543 C1559 1.429 . S
C1543 H1565 0.950 . S
C1544 H1540 0.949 . S
C1544 C1552 1.574 . S
C1544 C1560 1.368 . S
H1545 C1553 0.950 . S
H1546 C1551 0.950 . S
H1547 C1552 0.949 . S
H1548 C1554 0.950 . S
H1549 C1555 0.950 . S
H1550 C1556 0.949 . S
C1551 H1546 0.950 . S
C1551 C1553 1.327 . S
C1551 C1557 1.429 . S
C1552 C1544 1.574 . S
C1552 H1547 0.949 . S
C1552 C1558 1.368 . S
C1553 C1537 1.349 . S
C1553 H1545 0.950 . S
C1553 C1551 1.327 . S
C1554 C1542 1.349 . S
C1554 H1548 0.950 . S
C1554 C1555 1.327 . S
C1555 H1549 0.950 . S
C1555 C1554 1.327 . S
C1555 C1559 1.429 . S
C1556 C1539 1.574 . S
C1556 H1550 0.949 . S
C1556 C1560 1.368 . S
C1557 C1538 1.429 . S
C1557 C1551 1.429 . S
C1557 C1558 1.523 . S
C1558 C1539 1.368 . S
C1558 C1552 1.368 . S
C1558 C1557 1.523 . S
C1559 C1543 1.429 . S
C1559 C1555 1.429 . S
C1559 C1560 1.523 . S
C1560 C1544 1.368 . S
C1560 C1556 1.368 . S
C1560 C1559 1.523 . S
H1561 C1536 0.950 . S
H1562 C1538 0.950 . S
H1563 C1539 0.949 . S
H1564 C1541 0.950 . S
H1565 C1543 0.950 . S
C1566 C1567 1.349 . S
C1566 C1568 1.327 . S
C1566 H1591 0.950 . S
C1567 C1566 1.349 . S
C1567 C1583 1.349 . S
C1568 C1566 1.327 . S
C1568 C1587 1.429 . S
C1568 H1592 0.950 . S
C1569 C1586 1.574 . S
C1569 C1588 1.368 . S
C1569 H1593 0.949 . S
H1570 C1574 0.949 . S
C1571 C1572 1.349 . S
C1571 C1573 1.327 . S
C1571 H1594 0.950 . S
C1572 C1571 1.349 . S
C1572 C1584 1.349 . S
C1573 C1571 1.327 . S
C1573 C1589 1.429 . S
C1573 H1595 0.950 . S
C1574 H1570 0.949 . S
C1574 C1582 1.574 . S
C1574 C1590 1.368 . S
H1575 C1583 0.950 . S
H1576 C1581 0.950 . S
H1577 C1582 0.949 . S
H1578 C1584 0.950 . S
H1579 C1585 0.950 . S
H1580 C1586 0.949 . S
C1581 H1576 0.950 . S
C1581 C1583 1.327 . S
C1581 C1587 1.429 . S
C1582 C1574 1.574 . S
C1582 H1577 0.949 . S
C1582 C1588 1.368 . S
C1583 C1567 1.349 . S
C1583 H1575 0.950 . S
C1583 C1581 1.327 . S
C1584 C1572 1.349 . S
C1584 H1578 0.950 . S
C1584 C1585 1.327 . S
C1585 H1579 0.950 . S
C1585 C1584 1.327 . S
C1585 C1589 1.429 . S
C1586 C1569 1.574 . S
C1586 H1580 0.949 . S
C1586 C1590 1.368 . S
C1587 C1568 1.429 . S
C1587 C1581 1.429 . S
C1587 C1588 1.523 . S
C1588 C1569 1.368 . S
C1588 C1582 1.368 . S
C1588 C1587 1.523 . S
C1589 C1573 1.429 . S
C1589 C1585 1.429 . S
C1589 C1590 1.523 . S
C1590 C1574 1.368 . S
C1590 C1586 1.368 . S
C1590 C1589 1.523 . S
H1591 C1566 0.950 . S
H1592 C1568 0.950 . S
H1593 C1569 0.949 . S
H1594 C1571 0.950 . S
H1595 C1573 0.950 . S
C1596 C1597 1.349 . S
C1596 C1598 1.327 . S
C1596 H1621 0.950 . S
C1597 C1596 1.349 . S
C1597 C1613 1.349 . S
C1598 C1596 1.327 . S
C1598 C1617 1.429 . S
C1598 H1622 0.950 . S
C1599 C1616 1.574 . S
C1599 C1618 1.368 . S
C1599 H1623 0.949 . S
H1600 C1604 0.949 . S
C1601 C1602 1.349 . S
C1601 C1603 1.327 . S
C1601 H1624 0.950 . S
C1602 C1601 1.349 . S
C1602 C1614 1.349 . S
C1603 C1601 1.327 . S
C1603 C1619 1.429 . S
C1603 H1625 0.950 . S
C1604 H1600 0.949 . S
C1604 C1612 1.574 . S
C1604 C1620 1.368 . S
H1605 C1613 0.950 . S
H1606 C1611 0.950 . S
H1607 C1612 0.949 . S
H1608 C1614 0.950 . S
H1609 C1615 0.950 . S
H1610 C1616 0.949 . S
C1611 H1606 0.950 . S
C1611 C1613 1.327 . S
C1611 C1617 1.429 . S
C1612 C1604 1.574 . S
C1612 H1607 0.949 . S
C1612 C1618 1.368 . S
C1613 C1597 1.349 . S
C1613 H1605 0.950 . S
C1613 C1611 1.327 . S
C1614 C1602 1.349 . S
C1614 H1608 0.950 . S
C1614 C1615 1.327 . S
C1615 H1609 0.950 . S
C1615 C1614 1.327 . S
C1615 C1619 1.429 . S
C1616 C1599 1.574 . S
C1616 H1610 0.949 . S
C1616 C1620 1.368 . S
C1617 C1598 1.429 . S
C1617 C1611 1.429 . S
C1617 C1618 1.523 . S
C1618 C1599 1.368 . S
C1618 C1612 1.368 . S
C1618 C1617 1.523 . S
C1619 C1603 1.429 . S
C1619 C1615 1.429 . S
C1619 C1620 1.523 . S
C1620 C1604 1.368 . S
C1620 C1616 1.368 . S
C1620 C1619 1.523 . S
H1621 C1596 0.950 . S
H1622 C1598 0.950 . S
H1623 C1599 0.949 . S
H1624 C1601 0.950 . S
H1625 C1603 0.950 . S
C1626 C1627 1.349 . S
C1626 C1628 1.327 . S
C1626 H1651 0.950 . S
C1627 C1626 1.349 . S
C1627 C1643 1.349 . S
C1628 C1626 1.327 . S
C1628 C1647 1.429 . S
C1628 H1652 0.950 . S
C1629 C1646 1.574 . S
C1629 C1648 1.368 . S
C1629 H1653 0.949 . S
H1630 C1634 0.949 . S
C1631 C1632 1.349 . S
C1631 C1633 1.327 . S
C1631 H1654 0.950 . S
C1632 C1631 1.349 . S
C1632 C1644 1.349 . S
C1633 C1631 1.327 . S
C1633 C1649 1.429 . S
C1633 H1655 0.950 . S
C1634 H1630 0.949 . S
C1634 C1642 1.574 . S
C1634 C1650 1.368 . S
H1635 C1643 0.950 . S
H1636 C1641 0.950 . S
H1637 C1642 0.949 . S
H1638 C1644 0.950 . S
H1639 C1645 0.950 . S
H1640 C1646 0.949 . S
C1641 H1636 0.950 . S
C1641 C1643 1.327 . S
C1641 C1647 1.429 . S
C1642 C1634 1.574 . S
C1642 H1637 0.949 . S
C1642 C1648 1.368 . S
C1643 C1627 1.349 . S
C1643 H1635 0.950 . S
C1643 C1641 1.327 . S
C1644 C1632 1.349 . S
C1644 H1638 0.950 . S
C1644 C1645 1.327 . S
C1645 H1639 0.950 . S
C1645 C1644 1.327 . S
C1645 C1649 1.429 . S
C1646 C1629 1.574 . S
C1646 H1640 0.949 . S
C1646 C1650 1.368 . S
C1647 C1628 1.429 . S
C1647 C1641 1.429 . S
C1647 C1648 1.523 . S
C1648 C1629 1.368 . S
C1648 C1642 1.368 . S
C1648 C1647 1.523 . S
C1649 C1633 1.429 . S
C1649 C1645 1.429 . S
C1649 C1650 1.523 . S
C1650 C1634 1.368 . S
C1650 C1646 1.368 . S
C1650 C1649 1.523 . S
H1651 C1626 0.950 . S
H1652 C1628 0.950 . S
H1653 C1629 0.949 . S
H1654 C1631 0.950 . S
H1655 C1633 0.950 . S
C1656 C1657 1.349 . S
C1656 C1658 1.327 . S
C1656 H1681 0.950 . S
C1657 C1656 1.349 . S
C1657 C1673 1.349 . S
C1658 C1656 1.327 . S
C1658 C1677 1.429 . S
C1658 H1682 0.950 . S
C1659 C1676 1.574 . S
C1659 C1678 1.368 . S
C1659 H1683 0.949 . S
H1660 C1664 0.949 . S
C1661 C1662 1.349 . S
C1661 C1663 1.327 . S
C1661 H1684 0.950 . S
C1662 C1661 1.349 . S
C1662 C1674 1.349 . S
C1663 C1661 1.327 . S
C1663 C1679 1.429 . S
C1663 H1685 0.950 . S
C1664 H1660 0.949 . S
C1664 C1672 1.574 . S
C1664 C1680 1.368 . S
H1665 C1673 0.950 . S
H1666 C1671 0.950 . S
H1667 C1672 0.949 . S
H1668 C1674 0.950 . S
H1669 C1675 0.950 . S
H1670 C1676 0.949 . S
C1671 H1666 0.950 . S
C1671 C1673 1.327 . S
C1671 C1677 1.429 . S
C1672 C1664 1.574 . S
C1672 H1667 0.949 . S
C1672 C1678 1.368 . S
C1673 C1657 1.349 . S
C1673 H1665 0.950 . S
C1673 C1671 1.327 . S
C1674 C1662 1.349 . S
C1674 H1668 0.950 . S
C1674 C1675 1.327 . S
C1675 H1669 0.950 . S
C1675 C1674 1.327 . S
C1675 C1679 1.429 . S
C1676 C1659 1.574 . S
C1676 H1670 0.949 . S
C1676 C1680 1.368 . S
C1677 C1658 1.429 . S
C1677 C1671 1.429 . S
C1677 C1678 1.523 . S
C1678 C1659 1.368 . S
C1678 C1672 1.368 . S
C1678 C1677 1.523 . S
C1679 C1663 1.429 . S
C1679 C1675 1.429 . S
C1679 C1680 1.523 . S
C1680 C1664 1.368 . S
C1680 C1676 1.368 . S
C1680 C1679 1.523 . S
H1681 C1656 0.950 . S
H1682 C1658 0.950 . S
H1683 C1659 0.949 . S
H1684 C1661 0.950 . S
H1685 C1663 0.950 . S
C1686 C1687 1.349 . S
C1686 C1688 1.327 . S
C1686 H1711 0.950 . S
C1687 C1686 1.349 . S
C1687 C1703 1.349 . S
C1688 C1686 1.327 . S
C1688 C1707 1.429 . S
C1688 H1712 0.950 . S
C1689 C1706 1.574 . S
C1689 C1708 1.368 . S
C1689 H1713 0.949 . S
H1690 C1694 0.949 . S
C1691 C1692 1.349 . S
C1691 C1693 1.327 . S
C1691 H1714 0.950 . S
C1692 C1691 1.349 . S
C1692 C1704 1.349 . S
C1693 C1691 1.327 . S
C1693 C1709 1.429 . S
C1693 H1715 0.950 . S
C1694 H1690 0.949 . S
C1694 C1702 1.574 . S
C1694 C1710 1.368 . S
H1695 C1703 0.950 . S
H1696 C1701 0.950 . S
H1697 C1702 0.949 . S
H1698 C1704 0.950 . S
H1699 C1705 0.950 . S
H1700 C1706 0.949 . S
C1701 H1696 0.950 . S
C1701 C1703 1.327 . S
C1701 C1707 1.429 . S
C1702 C1694 1.574 . S
C1702 H1697 0.949 . S
C1702 C1708 1.368 . S
C1703 C1687 1.349 . S
C1703 H1695 0.950 . S
C1703 C1701 1.327 . S
C1704 C1692 1.349 . S
C1704 H1698 0.950 . S
C1704 C1705 1.327 . S
C1705 H1699 0.950 . S
C1705 C1704 1.327 . S
C1705 C1709 1.429 . S
C1706 C1689 1.574 . S
C1706 H1700 0.949 . S
C1706 C1710 1.368 . S
C1707 C1688 1.429 . S
C1707 C1701 1.429 . S
C1707 C1708 1.523 . S
C1708 C1689 1.368 . S
C1708 C1702 1.368 . S
C1708 C1707 1.523 . S
C1709 C1693 1.429 . S
C1709 C1705 1.429 . S
C1709 C1710 1.523 . S
C1710 C1694 1.368 . S
C1710 C1706 1.368 . S
C1710 C1709 1.523 . S
H1711 C1686 0.950 . S
H1712 C1688 0.950 . S
H1713 C1689 0.949 . S
H1714 C1691 0.950 . S
H1715 C1693 0.950 . S
C1716 C1717 1.349 . S
C1716 C1718 1.327 . S
C1716 H1741 0.950 . S
C1717 C1716 1.349 . S
C1717 C1733 1.349 . S
C1718 C1716 1.327 . S
C1718 C1737 1.429 . S
C1718 H1742 0.950 . S
C1719 C1736 1.574 . S
C1719 C1738 1.368 . S
C1719 H1743 0.949 . S
H1720 C1724 0.949 . S
C1721 C1722 1.349 . S
C1721 C1723 1.327 . S
C1721 H1744 0.950 . S
C1722 C1721 1.349 . S
C1722 C1734 1.349 . S
C1723 C1721 1.327 . S
C1723 C1739 1.429 . S
C1723 H1745 0.950 . S
C1724 H1720 0.949 . S
C1724 C1732 1.574 . S
C1724 C1740 1.368 . S
H1725 C1733 0.950 . S
H1726 C1731 0.950 . S
H1727 C1732 0.949 . S
H1728 C1734 0.950 . S
H1729 C1735 0.950 . S
H1730 C1736 0.949 . S
C1731 H1726 0.950 . S
C1731 C1733 1.327 . S
C1731 C1737 1.429 . S
C1732 C1724 1.574 . S
C1732 H1727 0.949 . S
C1732 C1738 1.368 . S
C1733 C1717 1.349 . S
C1733 H1725 0.950 . S
C1733 C1731 1.327 . S
C1734 C1722 1.349 . S
C1734 H1728 0.950 . S
C1734 C1735 1.327 . S
C1735 H1729 0.950 . S
C1735 C1734 1.327 . S
C1735 C1739 1.429 . S
C1736 C1719 1.574 . S
C1736 H1730 0.949 . S
C1736 C1740 1.368 . S
C1737 C1718 1.429 . S
C1737 C1731 1.429 . S
C1737 C1738 1.523 . S
C1738 C1719 1.368 . S
C1738 C1732 1.368 . S
C1738 C1737 1.523 . S
C1739 C1723 1.429 . S
C1739 C1735 1.429 . S
C1739 C1740 1.523 . S
C1740 C1724 1.368 . S
C1740 C1736 1.368 . S
C1740 C1739 1.523 . S
H1741 C1716 0.950 . S
H1742 C1718 0.950 . S
H1743 C1719 0.949 . S
H1744 C1721 0.950 . S
H1745 C1723 0.950 . S
C1746 C1747 1.349 . S
C1746 C1748 1.327 . S
C1746 H1771 0.950 . S
C1747 C1746 1.349 . S
C1747 C1763 1.349 . S
C1748 C1746 1.327 . S
C1748 C1767 1.429 . S
C1748 H1772 0.950 . S
C1749 C1766 1.574 . S
C1749 C1768 1.368 . S
C1749 H1773 0.949 . S
H1750 C1754 0.949 . S
C1751 C1752 1.349 . S
C1751 C1753 1.327 . S
C1751 H1774 0.950 . S
C1752 C1751 1.349 . S
C1752 C1764 1.349 . S
C1753 C1751 1.327 . S
C1753 C1769 1.429 . S
C1753 H1775 0.950 . S
C1754 H1750 0.949 . S
C1754 C1762 1.574 . S
C1754 C1770 1.368 . S
H1755 C1763 0.950 . S
H1756 C1761 0.950 . S
H1757 C1762 0.949 . S
H1758 C1764 0.950 . S
H1759 C1765 0.950 . S
H1760 C1766 0.949 . S
C1761 H1756 0.950 . S
C1761 C1763 1.327 . S
C1761 C1767 1.429 . S
C1762 C1754 1.574 . S
C1762 H1757 0.949 . S
C1762 C1768 1.368 . S
C1763 C1747 1.349 . S
C1763 H1755 0.950 . S
C1763 C1761 1.327 . S
C1764 C1752 1.349 . S
C1764 H1758 0.950 . S
C1764 C1765 1.327 . S
C1765 H1759 0.950 . S
C1765 C1764 1.327 . S
C1765 C1769 1.429 . S
C1766 C1749 1.574 . S
C1766 H1760 0.949 . S
C1766 C1770 1.368 . S
C1767 C1748 1.429 . S
C1767 C1761 1.429 . S
C1767 C1768 1.523 . S
C1768 C1749 1.368 . S
C1768 C1762 1.368 . S
C1768 C1767 1.523 . S
C1769 C1753 1.429 . S
C1769 C1765 1.429 . S
C1769 C1770 1.523 . S
C1770 C1754 1.368 . S
C1770 C1766 1.368 . S
C1770 C1769 1.523 . S
H1771 C1746 0.950 . S
H1772 C1748 0.950 . S
H1773 C1749 0.949 . S
H1774 C1751 0.950 . S
H1775 C1753 0.950 . S
C1776 C1777 1.349 . S
C1776 C1778 1.327 . S
C1776 H1801 0.950 . S
C1777 C1776 1.349 . S
C1777 C1793 1.349 . S
C1778 C1776 1.327 . S
C1778 C1797 1.429 . S
C1778 H1802 0.950 . S
C1779 C1796 1.574 . S
C1779 C1798 1.368 . S
C1779 H1803 0.949 . S
H1780 C1784 0.949 . S
C1781 C1782 1.349 . S
C1781 C1783 1.327 . S
C1781 H1804 0.950 . S
C1782 C1781 1.349 . S
C1782 C1794 1.349 . S
C1783 C1781 1.327 . S
C1783 C1799 1.429 . S
C1783 H1805 0.950 . S
C1784 H1780 0.949 . S
C1784 C1792 1.574 . S
C1784 C1800 1.368 . S
H1785 C1793 0.950 . S
H1786 C1791 0.950 . S
H1787 C1792 0.949 . S
H1788 C1794 0.950 . S
H1789 C1795 0.950 . S
H1790 C1796 0.949 . S
C1791 H1786 0.950 . S
C1791 C1793 1.327 . S
C1791 C1797 1.429 . S
C1792 C1784 1.574 . S
C1792 H1787 0.949 . S
C1792 C1798 1.368 . S
C1793 C1777 1.349 . S
C1793 H1785 0.950 . S
C1793 C1791 1.327 . S
C1794 C1782 1.349 . S
C1794 H1788 0.950 . S
C1794 C1795 1.327 . S
C1795 H1789 0.950 . S
C1795 C1794 1.327 . S
C1795 C1799 1.429 . S
C1796 C1779 1.574 . S
C1796 H1790 0.949 . S
C1796 C1800 1.368 . S
C1797 C1778 1.429 . S
C1797 C1791 1.429 . S
C1797 C1798 1.523 . S
C1798 C1779 1.368 . S
C1798 C1792 1.368 . S
C1798 C1797 1.523 . S
C1799 C1783 1.429 . S
C1799 C1795 1.429 . S
C1799 C1800 1.523 . S
C1800 C1784 1.368 . S
C1800 C1796 1.368 . S
C1800 C1799 1.523 . S
H1801 C1776 0.950 . S
H1802 C1778 0.950 . S
H1803 C1779 0.949 . S
H1804 C1781 0.950 . S
H1805 C1783 0.950 . S
C1806 C1807 1.349 . S
C1806 C1808 1.327 . S
C1806 H1831 0.950 . S
C1807 C1806 1.349 . S
C1807 C1823 1.349 . S
C1808 C1806 1.327 . S
C1808 C1827 1.429 . S
C1808 H1832 0.950 . S
C1809 C1826 1.574 . S
C1809 C1828 1.368 . S
C1809 H1833 0.949 . S
H1810 C1814 0.949 . S
C1811 C1812 1.349 . S
C1811 C1813 1.327 . S
C1811 H1834 0.950 . S
C1812 C1811 1.349 . S
C1812 C1824 1.349 . S
C1813 C1811 1.327 . S
C1813 C1829 1.429 . S
C1813 H1835 0.950 . S
C1814 H1810 0.949 . S
C1814 C1822 1.574 . S
C1814 C1830 1.368 . S
H1815 C1823 0.950 . S
H1816 C1821 0.950 . S
H1817 C1822 0.949 . S
H1818 C1824 0.950 . S
H1819 C1825 0.950 . S
H1820 C1826 0.949 . S
C1821 H1816 0.950 . S
C1821 C1823 1.327 . S
C1821 C1827 1.429 . S
C1822 C1814 1.574 . S
C1822 H1817 0.949 . S
C1822 C1828 1.368 . S
C1823 C1807 1.349 . S
C1823 H1815 0.950 . S
C1823 C1821 1.327 . S
C1824 C1812 1.349 . S
C1824 H1818 0.950 . S
C1824 C1825 1.327 . S
C1825 H1819 0.950 . S
C1825 C1824 1.327 . S
C1825 C1829 1.429 . S
C1826 C1809 1.574 . S
C1826 H1820 0.949 . S
C1826 C1830 1.368 . S
C1827 C1808 1.429 . S
C1827 C1821 1.429 . S
C1827 C1828 1.523 . S
C1828 C1809 1.368 . S
C1828 C1822 1.368 . S
C1828 C1827 1.523 . S
C1829 C1813 1.429 . S
C1829 C1825 1.429 . S
C1829 C1830 1.523 . S
C1830 C1814 1.368 . S
C1830 C1826 1.368 . S
C1830 C1829 1.523 . S
H1831 C1806 0.950 . S
H1832 C1808 0.950 . S
H1833 C1809 0.949 . S
H1834 C1811 0.950 . S
H1835 C1813 0.950 . S
C1836 C1837 1.349 . S
C1836 C1838 1.327 . S
C1836 H1861 0.950 . S
C1837 C1836 1.349 . S
C1837 C1853 1.349 . S
C1838 C1836 1.327 . S
C1838 C1857 1.429 . S
C1838 H1862 0.950 . S
C1839 C1856 1.574 . S
C1839 C1858 1.368 . S
C1839 H1863 0.949 . S
H1840 C1844 0.949 . S
C1841 C1842 1.349 . S
C1841 C1843 1.327 . S
C1841 H1864 0.950 . S
C1842 C1841 1.349 . S
C1842 C1854 1.349 . S
C1843 C1841 1.327 . S
C1843 C1859 1.429 . S
C1843 H1865 0.950 . S
C1844 H1840 0.949 . S
C1844 C1852 1.574 . S
C1844 C1860 1.368 . S
H1845 C1853 0.950 . S
H1846 C1851 0.950 . S
H1847 C1852 0.949 . S
H1848 C1854 0.950 . S
H1849 C1855 0.950 . S
H1850 C1856 0.949 . S
C1851 H1846 0.950 . S
C1851 C1853 1.327 . S
C1851 C1857 1.429 . S
C1852 C1844 1.574 . S
C1852 H1847 0.949 . S
C1852 C1858 1.368 . S
C1853 C1837 1.349 . S
C1853 H1845 0.950 . S
C1853 C1851 1.327 . S
C1854 C1842 1.349 . S
C1854 H1848 0.950 . S
C1854 C1855 1.327 . S
C1855 H1849 0.950 . S
C1855 C1854 1.327 . S
C1855 C1859 1.429 . S
C1856 C1839 1.574 . S
C1856 H1850 0.949 . S
C1856 C1860 1.368 . S
C1857 C1838 1.429 . S
C1857 C1851 1.429 . S
C1857 C1858 1.523 . S
C1858 C1839 1.368 . S
C1858 C1852 1.368 . S
C1858 C1857 1.523 . S
C1859 C1843 1.429 . S
C1859 C1855 1.429 . S
C1859 C1860 1.523 . S
C1860 C1844 1.368 . S
C1860 C1856 1.368 . S
C1860 C1859 1.523 . S
H1861 C1836 0.950 . S
H1862 C1838 0.950 . S
H1863 C1839 0.949 . S
H1864 C1841 0.950 . S
H1865 C1843 0.950 . S
C1866 C1867 1.349 . S
C1866 C1868 1.327 . S
C1866 H1891 0.950 . S
C1867 C1866 1.349 . S
C1867 C1883 1.349 . S
C1868 C1866 1.327 . S
C1868 C1887 1.429 . S
C1868 H1892 0.950 . S
C1869 C1886 1.574 . S
C1869 C1888 1.368 . S
C1869 H1893 0.949 . S
H1870 C1874 0.949 . S
C1871 C1872 1.349 . S
C1871 C1873 1.327 . S
C1871 H1894 0.950 . S
C1872 C1871 1.349 . S
C1872 C1884 1.349 . S
C1873 C1871 1.327 . S
C1873 C1889 1.429 . S
C1873 H1895 0.950 . S
C1874 H1870 0.949 . S
C1874 C1882 1.574 . S
C1874 C1890 1.368 . S
H1875 C1883 0.950 . S
H1876 C1881 0.950 . S
H1877 C1882 0.949 . S
H1878 C1884 0.950 . S
H1879 C1885 0.950 . S
H1880 C1886 0.949 . S
C1881 H1876 0.950 . S
C1881 C1883 1.327 . S
C1881 C1887 1.429 . S
C1882 C1874 1.574 . S
C1882 H1877 0.949 . S
C1882 C1888 1.368 . S
C1883 C1867 1.349 . S
C1883 H1875 0.950 . S
C1883 C1881 1.327 . S
C1884 C1872 1.349 . S
C1884 H1878 0.950 . S
C1884 C1885 1.327 . S
C1885 H1879 0.950 . S
C1885 C1884 1.327 . S
C1885 C1889 1.429 . S
C1886 C1869 1.574 . S
C1886 H1880 0.949 . S
C1886 C1890 1.368 . S
C1887 C1868 1.429 . S
C1887 C1881 1.429 . S
C1887 C1888 1.523 . S
C1888 C1869 1.368 . S
C1888 C1882 1.368 . S
C1888 C1887 1.523 . S
C1889 C1873 1.429 . S
C1889 C1885 1.429 . S
C1889 C1890 1.523 . S
C1890 C1874 1.368 . S
C1890 C1886 1.368 . S
C1890 C1889 1.523 . S
H1891 C1866 0.950 . S
H1892 C1868 0.950 . S
H1893 C1869 0.949 . S
H1894 C1871 0.950 . S
H1895 C1873 0.950 . S
C1896 C1897 1.349 . S
C1896 C1898 1.327 . S
C1896 H1921 0.950 . S
C1897 C1896 1.349 . S
C1897 C1913 1.349 . S
C1898 C1896 1.327 . S
C1898 C1917 1.429 . S
C1898 H1922 0.950 . S
C1899 C1916 1.574 . S
C1899 C1918 1.368 . S
C1899 H1923 0.949 . S
H1900 C1904 0.949 . S
C1901 C1902 1.349 . S
C1901 C1903 1.327 . S
C1901 H1924 0.950 . S
C1902 C1901 1.349 . S
C1902 C1914 1.349 . S
C1903 C1901 1.327 . S
C1903 C1919 1.429 . S
C1903 H1925 0.950 . S
C1904 H1900 0.949 . S
C1904 C1912 1.574 . S
C1904 C1920 1.368 . S
H1905 C1913 0.950 . S
H1906 C1911 0.950 . S
H1907 C1912 0.949 . S
H1908 C1914 0.950 . S
H1909 C1915 0.950 . S
H1910 C1916 0.949 . S
C1911 H1906 0.950 . S
C1911 C1913 1.327 . S
C1911 C1917 1.429 . S
C1912 C1904 1.574 . S
C1912 H1907 0.949 . S
C1912 C1918 1.368 . S
C1913 C1897 1.349 . S
C1913 H1905 0.950 . S
C1913 C1911 1.327 . S
C1914 C1902 1.349 . S
C1914 H1908 0.950 . S
C1914 C1915 1.327 . S
C1915 H1909 0.950 . S
C1915 C1914 1.327 . S
C1915 C1919 1.429 . S
C1916 C1899 1.574 . S
C1916 H1910 0.949 . S
C1916 C1920 1.368 . S
C1917 C1898 1.429 . S
C1917 C1911 1.429 . S
C1917 C1918 1.523 . S
C1918 C1899 1.368 . S
C1918 C1912 1.368 . S
C1918 C1917 1.523 . S
C1919 C1903 1.429 . S
C1919 C1915 1.429 . S
C1919 C1920 1.523 . S
C1920 C1904 1.368 . S
C1920 C1916 1.368 . S
C1920 C1919 1.523 . S
H1921 C1896 0.950 . S
H1922 C1898 0.950 . S
H1923 C1899 0.949 . S
H1924 C1901 0.950 . S
H1925 C1903 0.950 . S
C1926 C1927 1.349 . S
C1926 C1928 1.327 . S
C1926 H1951 0.950 . S
C1927 C1926 1.349 . S
C1927 C1943 1.349 . S
C1928 C1926 1.327 . S
C1928 C1947 1.429 . S
C1928 H1952 0.950 . S
C1929 C1946 1.574 . S
C1929 C1948 1.368 . S
C1929 H1953 0.949 . S
H1930 C1934 0.949 . S
C1931 C1932 1.349 . S
C1931 C1933 1.327 . S
C1931 H1954 0.950 . S
C1932 C1931 1.349 . S
C1932 C1944 1.349 . S
C1933 C1931 1.327 . S
C1933 C1949 1.429 . S
C1933 H1955 0.950 . S
C1934 H1930 0.949 . S
C1934 C1942 1.574 . S
C1934 C1950 1.368 . S
H1935 C1943 0.950 . S
H1936 C1941 0.950 . S
H1937 C1942 0.949 . S
H1938 C1944 0.950 . S
H1939 C1945 0.950 . S
H1940 C1946 0.949 . S
C1941 H1936 0.950 . S
C1941 C1943 1.327 . S
C1941 C1947 1.429 . S
C1942 C1934 1.574 . S
C1942 H1937 0.949 . S
C1942 C1948 1.368 . S
C1943 C1927 1.349 . S
C1943 H1935 0.950 . S
C1943 C1941 1.327 . S
C1944 C1932 1.349 . S
C1944 H1938 0.950 . S
C1944 C1945 1.327 . S
C1945 H1939 0.950 . S
C1945 C1944 1.327 . S
C1945 C1949 1.429 . S
C1946 C1929 1.574 . S
C1946 H1940 0.949 . S
C1946 C1950 1.368 . S
C1947 C1928 1.429 . S
C1947 C1941 1.429 . S
C1947 C1948 1.523 . S
C1948 C1929 1.368 . S
C1948 C1942 1.368 . S
C1948 C1947 1.523 . S
C1949 C1933 1.429 . S
C1949 C1945 1.429 . S
C1949 C1950 1.523 . S
C1950 C1934 1.368 . S
C1950 C1946 1.368 . S
C1950 C1949 1.523 . S
H1951 C1926 0.950 . S
H1952 C1928 0.950 . S
H1953 C1929 0.949 . S
H1954 C1931 0.950 . S
H1955 C1933 0.950 . S
C1956 C1957 1.349 . S
C1956 C1958 1.327 . S
C1956 H1981 0.950 . S
C1957 C1956 1.349 . S
C1957 C1973 1.349 . S
C1958 C1956 1.327 . S
C1958 C1977 1.429 . S
C1958 H1982 0.950 . S
C1959 C1976 1.574 . S
C1959 C1978 1.368 . S
C1959 H1983 0.949 . S
H1960 C1964 0.949 . S
C1961 C1962 1.349 . S
C1961 C1963 1.327 . S
C1961 H1984 0.950 . S
C1962 C1961 1.349 . S
C1962 C1974 1.349 . S
C1963 C1961 1.327 . S
C1963 C1979 1.429 . S
C1963 H1985 0.950 . S
C1964 H1960 0.949 . S
C1964 C1972 1.574 . S
C1964 C1980 1.368 . S
H1965 C1973 0.950 . S
H1966 C1971 0.950 . S
H1967 C1972 0.949 . S
H1968 C1974 0.950 . S
H1969 C1975 0.950 . S
H1970 C1976 0.949 . S
C1971 H1966 0.950 . S
C1971 C1973 1.327 . S
C1971 C1977 1.429 . S
C1972 C1964 1.574 . S
C1972 H1967 0.949 . S
C1972 C1978 1.368 . S
C1973 C1957 1.349 . S
C1973 H1965 0.950 . S
C1973 C1971 1.327 . S
C1974 C1962 1.349 . S
C1974 H1968 0.950 . S
C1974 C1975 1.327 . S
C1975 H1969 0.950 . S
C1975 C1974 1.327 . S
C1975 C1979 1.429 . S
C1976 C1959 1.574 . S
C1976 H1970 0.949 . S
C1976 C1980 1.368 . S
C1977 C1958 1.429 . S
C1977 C1971 1.429 . S
C1977 C1978 1.523 . S
C1978 C1959 1.368 . S
C1978 C1972 1.368 . S
C1978 C1977 1.523 . S
C1979 C1963 1.429 . S
C1979 C1975 1.429 . S
C1979 C1980 1.523 . S
C1980 C1964 1.368 . S
C1980 C1976 1.368 . S
C1980 C1979 1.523 . S
H1981 C1956 0.950 . S
H1982 C1958 0.950 . S
H1983 C1959 0.949 . S
H1984 C1961 0.950 . S
H1985 C1963 0.950 . S
C1986 C1987 1.349 . S
C1986 C1988 1.327 . S
C1986 H2011 0.950 . S
C1987 C1986 1.349 . S
C1987 C2003 1.349 . S
C1988 C1986 1.327 . S
C1988 C2007 1.429 . S
C1988 H2012 0.950 . S
C1989 C2006 1.574 . S
C1989 C2008 1.368 . S
C1989 H2013 0.949 . S
H1990 C1994 0.949 . S
C1991 C1992 1.349 . S
C1991 C1993 1.327 . S
C1991 H2014 0.950 . S
C1992 C1991 1.349 . S
C1992 C2004 1.349 . S
C1993 C1991 1.327 . S
C1993 C2009 1.429 . S
C1993 H2015 0.950 . S
C1994 H1990 0.949 . S
C1994 C2002 1.574 . S
C1994 C2010 1.368 . S
H1995 C2003 0.950 . S
H1996 C2001 0.950 . S
H1997 C2002 0.949 . S
H1998 C2004 0.950 . S
H1999 C2005 0.950 . S
H2000 C2006 0.949 . S
C2001 H1996 0.950 . S
C2001 C2003 1.327 . S
C2001 C2007 1.429 . S
C2002 C1994 1.574 . S
C2002 H1997 0.949 . S
C2002 C2008 1.368 . S
C2003 C1987 1.349 . S
C2003 H1995 0.950 . S
C2003 C2001 1.327 . S
C2004 C1992 1.349 . S
C2004 H1998 0.950 . S
C2004 C2005 1.327 . S
C2005 H1999 0.950 . S
C2005 C2004 1.327 . S
C2005 C2009 1.429 . S
C2006 C1989 1.574 . S
C2006 H2000 0.949 . S
C2006 C2010 1.368 . S
C2007 C1988 1.429 . S
C2007 C2001 1.429 . S
C2007 C2008 1.523 . S
C2008 C1989 1.368 . S
C2008 C2002 1.368 . S
C2008 C2007 1.523 . S
C2009 C1993 1.429 . S
C2009 C2005 1.429 . S
C2009 C2010 1.523 . S
C2010 C1994 1.368 . S
C2010 C2006 1.368 . S
C2010 C2009 1.523 . S
H2011 C1986 0.950 . S
H2012 C1988 0.950 . S
H2013 C1989 0.949 . S
H2014 C1991 0.950 . S
H2015 C1993 0.950 . S
C2016 C2017 1.349 . S
C2016 C2018 1.327 . S
C2016 H2041 0.950 . S
C2017 C2016 1.349 . S
C2017 C2033 1.349 . S
C2018 C2016 1.327 . S
C2018 C2037 1.429 . S
C2018 H2042 0.950 . S
C2019 C2036 1.574 . S
C2019 C2038 1.368 . S
C2019 H2043 0.949 . S
H2020 C2024 0.949 . S
C2021 C2022 1.349 . S
C2021 C2023 1.327 . S
C2021 H2044 0.950 . S
C2022 C2021 1.349 . S
C2022 C2034 1.349 . S
C2023 C2021 1.327 . S
C2023 C2039 1.429 . S
C2023 H2045 0.950 . S
C2024 H2020 0.949 . S
C2024 C2032 1.574 . S
C2024 C2040 1.368 . S
H2025 C2033 0.950 . S
H2026 C2031 0.950 . S
H2027 C2032 0.949 . S
H2028 C2034 0.950 . S
H2029 C2035 0.950 . S
H2030 C2036 0.949 . S
C2031 H2026 0.950 . S
C2031 C2033 1.327 . S
C2031 C2037 1.429 . S
C2032 C2024 1.574 . S
C2032 H2027 0.949 . S
C2032 C2038 1.368 . S
C2033 C2017 1.349 . S
C2033 H2025 0.950 . S
C2033 C2031 1.327 . S
C2034 C2022 1.349 . S
C2034 H2028 0.950 . S
C2034 C2035 1.327 . S
C2035 H2029 0.950 . S
C2035 C2034 1.327 . S
C2035 C2039 1.429 . S
C2036 C2019 1.574 . S
C2036 H2030 0.949 . S
C2036 C2040 1.368 . S
C2037 C2018 1.429 . S
C2037 C2031 1.429 . S
C2037 C2038 1.523 . S
C2038 C2019 1.368 . S
C2038 C2032 1.368 . S
C2038 C2037 1.523 . S
C2039 C2023 1.429 . S
C2039 C2035 1.429 . S
C2039 C2040 1.523 . S
C2040 C2024 1.368 . S
C2040 C2036 1.368 . S
C2040 C2039 1.523 . S
H2041 C2016 0.950 . S
H2042 C2018 0.950 . S
H2043 C2019 0.949 . S
H2044 C2021 0.950 . S
H2045 C2023 0.950 . S
C2046 C2047 1.349 . S
C2046 C2048 1.327 . S
C2046 H2071 0.950 . S
C2047 C2046 1.349 . S
C2047 C2063 1.349 . S
C2048 C2046 1.327 . S
C2048 C2067 1.429 . S
C2048 H2072 0.950 . S
C2049 C2066 1.574 . S
C2049 C2068 1.368 . S
C2049 H2073 0.949 . S
H2050 C2054 0.949 . S
C2051 C2052 1.349 . S
C2051 C2053 1.327 . S
C2051 H2074 0.950 . S
C2052 C2051 1.349 . S
C2052 C2064 1.349 . S
C2053 C2051 1.327 . S
C2053 C2069 1.429 . S
C2053 H2075 0.950 . S
C2054 H2050 0.949 . S
C2054 C2062 1.574 . S
C2054 C2070 1.368 . S
H2055 C2063 0.950 . S
H2056 C2061 0.950 . S
H2057 C2062 0.949 . S
H2058 C2064 0.950 . S
H2059 C2065 0.950 . S
H2060 C2066 0.949 . S
C2061 H2056 0.950 . S
C2061 C2063 1.327 . S
C2061 C2067 1.429 . S
C2062 C2054 1.574 . S
C2062 H2057 0.949 . S
C2062 C2068 1.368 . S
C2063 C2047 1.349 . S
C2063 H2055 0.950 . S
C2063 C2061 1.327 . S
C2064 C2052 1.349 . S
C2064 H2058 0.950 . S
C2064 C2065 1.327 . S
C2065 H2059 0.950 . S
C2065 C2064 1.327 . S
C2065 C2069 1.429 . S
C2066 C2049 1.574 . S
C2066 H2060 0.949 . S
C2066 C2070 1.368 . S
C2067 C2048 1.429 . S
C2067 C2061 1.429 . S
C2067 C2068 1.523 . S
C2068 C2049 1.368 . S
C2068 C2062 1.368 . S
C2068 C2067 1.523 . S
C2069 C2053 1.429 . S
C2069 C2065 1.429 . S
C2069 C2070 1.523 . S
C2070 C2054 1.368 . S
C2070 C2066 1.368 . S
C2070 C2069 1.523 . S
H2071 C2046 0.950 . S
H2072 C2048 0.950 . S
H2073 C2049 0.949 . S
H2074 C2051 0.950 . S
H2075 C2053 0.950 . S
C2076 C2077 1.349 . S
C2076 C2078 1.327 . S
C2076 H2101 0.950 . S
C2077 C2076 1.349 . S
C2077 C2093 1.349 . S
C2078 C2076 1.327 . S
C2078 C2097 1.429 . S
C2078 H2102 0.950 . S
C2079 C2096 1.574 . S
C2079 C2098 1.368 . S
C2079 H2103 0.949 . S
H2080 C2084 0.949 . S
C2081 C2082 1.349 . S
C2081 C2083 1.327 . S
C2081 H2104 0.950 . S
C2082 C2081 1.349 . S
C2082 C2094 1.349 . S
C2083 C2081 1.327 . S
C2083 C2099 1.429 . S
C2083 H2105 0.950 . S
C2084 H2080 0.949 . S
C2084 C2092 1.574 . S
C2084 C2100 1.368 . S
H2085 C2093 0.950 . S
H2086 C2091 0.950 . S
H2087 C2092 0.949 . S
H2088 C2094 0.950 . S
H2089 C2095 0.950 . S
H2090 C2096 0.949 . S
C2091 H2086 0.950 . S
C2091 C2093 1.327 . S
C2091 C2097 1.429 . S
C2092 C2084 1.574 . S
C2092 H2087 0.949 . S
C2092 C2098 1.368 . S
C2093 C2077 1.349 . S
C2093 H2085 0.950 . S
C2093 C2091 1.327 . S
C2094 C2082 1.349 . S
C2094 H2088 0.950 . S
C2094 C2095 1.327 . S
C2095 H2089 0.950 . S
C2095 C2094 1.327 . S
C2095 C2099 1.429 . S
C2096 C2079 1.574 . S
C2096 H2090 0.949 . S
C2096 C2100 1.368 . S
C2097 C2078 1.429 . S
C2097 C2091 1.429 . S
C2097 C2098 1.523 . S
C2098 C2079 1.368 . S
C2098 C2092 1.368 . S
C2098 C2097 1.523 . S
C2099 C2083 1.429 . S
C2099 C2095 1.429 . S
C2099 C2100 1.523 . S
C2100 C2084 1.368 . S
C2100 C2096 1.368 . S
C2100 C2099 1.523 . S
H2101 C2076 0.950 . S
H2102 C2078 0.950 . S
H2103 C2079 0.949 . S
H2104 C2081 0.950 . S
H2105 C2083 0.950 . S
C2106 C2107 1.349 . S
C2106 C2108 1.327 . S
C2106 H2131 0.950 . S
C2107 C2106 1.349 . S
C2107 C2123 1.349 . S
C2108 C2106 1.327 . S
C2108 C2127 1.429 . S
C2108 H2132 0.950 . S
C2109 C2126 1.574 . S
C2109 C2128 1.368 . S
C2109 H2133 0.949 . S
H2110 C2114 0.949 . S
C2111 C2112 1.349 . S
C2111 C2113 1.327 . S
C2111 H2134 0.950 . S
C2112 C2111 1.349 . S
C2112 C2124 1.349 . S
C2113 C2111 1.327 . S
C2113 C2129 1.429 . S
C2113 H2135 0.950 . S
C2114 H2110 0.949 . S
C2114 C2122 1.574 . S
C2114 C2130 1.368 . S
H2115 C2123 0.950 . S
H2116 C2121 0.950 . S
H2117 C2122 0.949 . S
H2118 C2124 0.950 . S
H2119 C2125 0.950 . S
H2120 C2126 0.949 . S
C2121 H2116 0.950 . S
C2121 C2123 1.327 . S
C2121 C2127 1.429 . S
C2122 C2114 1.574 . S
C2122 H2117 0.949 . S
C2122 C2128 1.368 . S
C2123 C2107 1.349 . S
C2123 H2115 0.950 . S
C2123 C2121 1.327 . S
C2124 C2112 1.349 . S
C2124 H2118 0.950 . S
C2124 C2125 1.327 . S
C2125 H2119 0.950 . S
C2125 C2124 1.327 . S
C2125 C2129 1.429 . S
C2126 C2109 1.574 . S
C2126 H2120 0.949 . S
C2126 C2130 1.368 . S
C2127 C2108 1.429 . S
C2127 C2121 1.429 . S
C2127 C2128 1.523 . S
C2128 C2109 1.368 . S
C2128 C2122 1.368 . S
C2128 C2127 1.523 . S
C2129 C2113 1.429 . S
C2129 C2125 1.429 . S
C2129 C2130 1.523 . S
C2130 C2114 1.368 . S
C2130 C2126 1.368 . S
C2130 C2129 1.523 . S
H2131 C2106 0.950 . S
H2132 C2108 0.950 . S
H2133 C2109 0.949 . S
H2134 C2111 0.950 . S
H2135 C2113 0.950 . S
C2136 C2137 1.349 . S
C2136 C2138 1.327 . S
C2136 H2161 0.950 . S
C2137 C2136 1.349 . S
C2137 C2153 1.349 . S
C2138 C2136 1.327 . S
C2138 C2157 1.429 . S
C2138 H2162 0.950 . S
C2139 C2156 1.574 . S
C2139 C2158 1.368 . S
C2139 H2163 0.949 . S
H2140 C2144 0.949 . S
C2141 C2142 1.349 . S
C2141 C2143 1.327 . S
C2141 H2164 0.950 . S
C2142 C2141 1.349 . S
C2142 C2154 1.349 . S
C2143 C2141 1.327 . S
C2143 C2159 1.429 . S
C2143 H2165 0.950 . S
C2144 H2140 0.949 . S
C2144 C2152 1.574 . S
C2144 C2160 1.368 . S
H2145 C2153 0.950 . S
H2146 C2151 0.950 . S
H2147 C2152 0.949 . S
H2148 C2154 0.950 . S
H2149 C2155 0.950 . S
H2150 C2156 0.949 . S
C2151 H2146 0.950 . S
C2151 C2153 1.327 . S
C2151 C2157 1.429 . S
C2152 C2144 1.574 . S
C2152 H2147 0.949 . S
C2152 C2158 1.368 . S
C2153 C2137 1.349 . S
C2153 H2145 0.950 . S
C2153 C2151 1.327 . S
C2154 C2142 1.349 . S
C2154 H2148 0.950 . S
C2154 C2155 1.327 . S
C2155 H2149 0.950 . S
C2155 C2154 1.327 . S
C2155 C2159 1.429 . S
C2156 C2139 1.574 . S
C2156 H2150 0.949 . S
C2156 C2160 1.368 . S
C2157 C2138 1.429 . S
C2157 C2151 1.429 . S
C2157 C2158 1.523 . S
C2158 C2139 1.368 . S
C2158 C2152 1.368 . S
C2158 C2157 1.523 . S
C2159 C2143 1.429 . S
C2159 C2155 1.429 . S
C2159 C2160 1.523 . S
C2160 C2144 1.368 . S
C2160 C2156 1.368 . S
C2160 C2159 1.523 . S
H2161 C2136 0.950 . S
H2162 C2138 0.950 . S
H2163 C2139 0.949 . S
H2164 C2141 0.950 . S
H2165 C2143 0.950 . S
C2166 C2167 1.349 . S
C2166 C2168 1.327 . S
C2166 H2191 0.950 . S
C2167 C2166 1.349 . S
C2167 C2183 1.349 . S
C2168 C2166 1.327 . S
C2168 C2187 1.429 . S
C2168 H2192 0.950 . S
C2169 C2186 1.574 . S
C2169 C2188 1.368 . S
C2169 H2193 0.949 . S
H2170 C2174 0.949 . S
C2171 C2172 1.349 . S
C2171 C2173 1.327 . S
C2171 H2194 0.950 . S
C2172 C2171 1.349 . S
C2172 C2184 1.349 . S
C2173 C2171 1.327 . S
C2173 C2189 1.429 . S
C2173 H2195 0.950 . S
C2174 H2170 0.949 . S
C2174 C2182 1.574 . S
C2174 C2190 1.368 . S
H2175 C2183 0.950 . S
H2176 C2181 0.950 . S
H2177 C2182 0.949 . S
H2178 C2184 0.950 . S
H2179 C2185 0.950 . S
H2180 C2186 0.949 . S
C2181 H2176 0.950 . S
C2181 C2183 1.327 . S
C2181 C2187 1.429 . S
C2182 C2174 1.574 . S
C2182 H2177 0.949 . S
C2182 C2188 1.368 . S
C2183 C2167 1.349 . S
C2183 H2175 0.950 . S
C2183 C2181 1.327 . S
C2184 C2172 1.349 . S
C2184 H2178 0.950 . S
C2184 C2185 1.327 . S
C2185 H2179 0.950 . S
C2185 C2184 1.327 . S
C2185 C2189 1.429 . S
C2186 C2169 1.574 . S
C2186 H2180 0.949 . S
C2186 C2190 1.368 . S
C2187 C2168 1.429 . S
C2187 C2181 1.429 . S
C2187 C2188 1.523 . S
C2188 C2169 1.368 . S
C2188 C2182 1.368 . S
C2188 C2187 1.523 . S
C2189 C2173 1.429 . S
C2189 C2185 1.429 . S
C2189 C2190 1.523 . S
C2190 C2174 1.368 . S
C2190 C2186 1.368 . S
C2190 C2189 1.523 . S
H2191 C2166 0.950 . S
H2192 C2168 0.950 . S
H2193 C2169 0.949 . S
H2194 C2171 0.950 . S
H2195 C2173 0.950 . S
C2196 C2197 1.349 . S
C2196 C2198 1.327 . S
C2196 H2221 0.950 . S
C2197 C2196 1.349 . S
C2197 C2213 1.349 . S
C2198 C2196 1.327 . S
C2198 C2217 1.429 . S
C2198 H2222 0.950 . S
C2199 C2216 1.574 . S
C2199 C2218 1.368 . S
C2199 H2223 0.949 . S
H2200 C2204 0.949 . S
C2201 C2202 1.349 . S
C2201 C2203 1.327 . S
C2201 H2224 0.950 . S
C2202 C2201 1.349 . S
C2202 C2214 1.349 . S
C2203 C2201 1.327 . S
C2203 C2219 1.429 . S
C2203 H2225 0.950 . S
C2204 H2200 0.949 . S
C2204 C2212 1.574 . S
C2204 C2220 1.368 . S
H2205 C2213 0.950 . S
H2206 C2211 0.950 . S
H2207 C2212 0.949 . S
H2208 C2214 0.950 . S
H2209 C2215 0.950 . S
H2210 C2216 0.949 . S
C2211 H2206 0.950 . S
C2211 C2213 1.327 . S
C2211 C2217 1.429 . S
C2212 C2204 1.574 . S
C2212 H2207 0.949 . S
C2212 C2218 1.368 . S
C2213 C2197 1.349 . S
C2213 H2205 0.950 . S
C2213 C2211 1.327 . S
C2214 C2202 1.349 . S
C2214 H2208 0.950 . S
C2214 C2215 1.327 . S
C2215 H2209 0.950 . S
C2215 C2214 1.327 . S
C2215 C2219 1.429 . S
C2216 C2199 1.574 . S
C2216 H2210 0.949 . S
C2216 C2220 1.368 . S
C2217 C2198 1.429 . S
C2217 C2211 1.429 . S
C2217 C2218 1.523 . S
C2218 C2199 1.368 . S
C2218 C2212 1.368 . S
C2218 C2217 1.523 . S
C2219 C2203 1.429 . S
C2219 C2215 1.429 . S
C2219 C2220 1.523 . S
C2220 C2204 1.368 . S
C2220 C2216 1.368 . S
C2220 C2219 1.523 . S
H2221 C2196 0.950 . S
H2222 C2198 0.950 . S
H2223 C2199 0.949 . S
H2224 C2201 0.950 . S
H2225 C2203 0.950 . S
C2226 C2227 1.349 . S
C2226 C2228 1.327 . S
C2226 H2251 0.950 . S
C2227 C2226 1.349 . S
C2227 C2243 1.349 . S
C2228 C2226 1.327 . S
C2228 C2247 1.429 . S
C2228 H2252 0.950 . S
C2229 C2246 1.574 . S
C2229 C2248 1.368 . S
C2229 H2253 0.949 . S
H2230 C2234 0.949 . S
C2231 C2232 1.349 . S
C2231 C2233 1.327 . S
C2231 H2254 0.950 . S
C2232 C2231 1.349 . S
C2232 C2244 1.349 . S
C2233 C2231 1.327 . S
C2233 C2249 1.429 . S
C2233 H2255 0.950 . S
C2234 H2230 0.949 . S
C2234 C2242 1.574 . S
C2234 C2250 1.368 . S
H2235 C2243 0.950 . S
H2236 C2241 0.950 . S
H2237 C2242 0.949 . S
H2238 C2244 0.950 . S
H2239 C2245 0.950 . S
H2240 C2246 0.949 . S
C2241 H2236 0.950 . S
C2241 C2243 1.327 . S
C2241 C2247 1.429 . S
C2242 C2234 1.574 . S
C2242 H2237 0.949 . S
C2242 C2248 1.368 . S
C2243 C2227 1.349 . S
C2243 H2235 0.950 . S
C2243 C2241 1.327 . S
C2244 C2232 1.349 . S
C2244 H2238 0.950 . S
C2244 C2245 1.327 . S
C2245 H2239 0.950 . S
C2245 C2244 1.327 . S
C2245 C2249 1.429 . S
C2246 C2229 1.574 . S
C2246 H2240 0.949 . S
C2246 C2250 1.368 . S
C2247 C2228 1.429 . S
C2247 C2241 1.429 . S
C2247 C2248 1.523 . S
C2248 C2229 1.368 . S
C2248 C2242 1.368 . S
C2248 C2247 1.523 . S
C2249 C2233 1.429 . S
C2249 C2245 1.429 . S
C2249 C2250 1.523 . S
C2250 C2234 1.368 . S
C2250 C2246 1.368 . S
C2250 C2249 1.523 . S
H2251 C2226 0.950 . S
H2252 C2228 0.950 . S
H2253 C2229 0.949 . S
H2254 C2231 0.950 . S
H2255 C2233 0.950 . S
C2256 C2257 1.349 . S
C2256 C2258 1.327 . S
C2256 H2281 0.950 . S
C2257 C2256 1.349 . S
C2257 C2273 1.349 . S
C2258 C2256 1.327 . S
C2258 C2277 1.429 . S
C2258 H2282 0.950 . S
C2259 C2276 1.574 . S
C2259 C2278 1.368 . S
C2259 H2283 0.949 . S
H2260 C2264 0.949 . S
C2261 C2262 1.349 . S
C2261 C2263 1.327 . S
C2261 H2284 0.950 . S
C2262 C2261 1.349 . S
C2262 C2274 1.349 . S
C2263 C2261 1.327 . S
C2263 C2279 1.429 . S
C2263 H2285 0.950 . S
C2264 H2260 0.949 . S
C2264 C2272 1.574 . S
C2264 C2280 1.368 . S
H2265 C2273 0.950 . S
H2266 C2271 0.950 . S
H2267 C2272 0.949 . S
H2268 C2274 0.950 . S
H2269 C2275 0.950 . S
H2270 C2276 0.949 . S
C2271 H2266 0.950 . S
C2271 C2273 1.327 . S
C2271 C2277 1.429 . S
C2272 C2264 1.574 . S
C2272 H2267 0.949 . S
C2272 C2278 1.368 . S
C2273 C2257 1.349 . S
C2273 H2265 0.950 . S
C2273 C2271 1.327 . S
C2274 C2262 1.349 . S
C2274 H2268 0.950 . S
C2274 C2275 1.327 . S
C2275 H2269 0.950 . S
C2275 C2274 1.327 . S
C2275 C2279 1.429 . S
C2276 C2259 1.574 . S
C2276 H2270 0.949 . S
C2276 C2280 1.368 . S
C2277 C2258 1.429 . S
C2277 C2271 1.429 . S
C2277 C2278 1.523 . S
C2278 C2259 1.368 . S
C2278 C2272 1.368 . S
C2278 C2277 1.523 . S
C2279 C2263 1.429 . S
C2279 C2275 1.429 . S
C2279 C2280 1.523 . S
C2280 C2264 1.368 . S
C2280 C2276 1.368 . S
C2280 C2279 1.523 . S
H2281 C2256 0.950 . S
H2282 C2258 0.950 . S
H2283 C2259 0.949 . S
H2284 C2261 0.950 . S
H2285 C2263 0.950 . S
C2286 C2287 1.373 . S
C2286 C2288 1.350 . S
C2286 H2311 0.904 1_556 S
C2287 C2286 1.373 . S
C2287 C2303 1.349 . S
C2288 C2286 1.350 . S
C2288 C2307 1.429 . S
C2288 H2312 0.950 . S
C2289 C2306 1.574 . S
C2289 C2308 1.368 . S
C2289 H2313 0.949 . S
H2290 C2294 0.949 . S
C2291 C2292 1.349 . S
C2291 C2293 1.327 . S
C2291 H2314 0.950 . S
C2292 C2291 1.349 . S
C2292 C2304 1.349 . S
C2293 C2291 1.327 . S
C2293 C2309 1.429 . S
C2293 H2315 0.950 . S
C2294 H2290 0.949 . S
C2294 C2302 1.574 . S
C2294 C2310 1.368 . S
H2295 C2303 0.950 . S
H2296 C2301 0.950 . S
H2297 C2302 0.949 . S
H2298 C2304 0.950 . S
H2299 C2305 0.950 . S
H2300 C2306 0.949 . S
C2301 H2296 0.950 . S
C2301 C2303 1.327 . S
C2301 C2307 1.429 . S
C2302 C2294 1.574 . S
C2302 H2297 0.949 . S
C2302 C2308 1.368 . S
C2303 C2287 1.349 . S
C2303 H2295 0.950 . S
C2303 C2301 1.327 . S
C2304 C2292 1.349 . S
C2304 H2298 0.950 . S
C2304 C2305 1.327 . S
C2305 H2299 0.950 . S
C2305 C2304 1.327 . S
C2305 C2309 1.429 . S
C2306 C2289 1.574 . S
C2306 H2300 0.949 . S
C2306 C2310 1.368 . S
C2307 C2288 1.429 . S
C2307 C2301 1.429 . S
C2307 C2308 1.523 . S
C2308 C2289 1.368 . S
C2308 C2302 1.368 . S
C2308 C2307 1.523 . S
C2309 C2293 1.429 . S
C2309 C2305 1.429 . S
C2309 C2310 1.523 . S
C2310 C2294 1.368 . S
C2310 C2306 1.368 . S
C2310 C2309 1.523 . S
H2311 C2286 0.904 1_554 S
H2312 C2288 0.950 . S
H2313 C2289 0.949 . S
H2314 C2291 0.950 . S
H2315 C2293 0.950 . S
C2316 C2317 1.349 . S
C2316 C2318 1.327 . S
C2316 H2341 0.950 . S
C2317 C2316 1.349 . S
C2317 C2333 1.349 . S
C2318 C2316 1.327 . S
C2318 C2337 1.429 . S
C2318 H2342 0.950 . S
C2319 C2336 1.574 . S
C2319 C2338 1.368 . S
C2319 H2343 0.949 . S
H2320 C2324 0.949 . S
C2321 C2322 1.349 . S
C2321 C2323 1.327 . S
C2321 H2344 0.950 . S
C2322 C2321 1.349 . S
C2322 C2334 1.349 . S
C2323 C2321 1.327 . S
C2323 C2339 1.429 . S
C2323 H2345 0.950 . S
C2324 H2320 0.949 . S
C2324 C2332 1.574 . S
C2324 C2340 1.368 . S
H2325 C2333 0.950 1_554 S
H2326 C2331 0.950 . S
H2327 C2332 0.949 . S
H2328 C2334 0.950 . S
H2329 C2335 0.950 . S
H2330 C2336 0.949 . S
C2331 H2326 0.950 . S
C2331 C2333 1.327 . S
C2331 C2337 1.429 . S
C2332 C2324 1.574 . S
C2332 H2327 0.949 . S
C2332 C2338 1.368 . S
C2333 C2317 1.349 . S
C2333 H2325 0.950 1_556 S
C2333 C2331 1.327 . S
C2334 C2322 1.349 . S
C2334 H2328 0.950 . S
C2334 C2335 1.327 . S
C2335 H2329 0.950 . S
C2335 C2334 1.327 . S
C2335 C2339 1.429 . S
C2336 C2319 1.574 . S
C2336 H2330 0.949 . S
C2336 C2340 1.368 . S
C2337 C2318 1.429 . S
C2337 C2331 1.429 . S
C2337 C2338 1.523 . S
C2338 C2319 1.368 . S
C2338 C2332 1.368 . S
C2338 C2337 1.523 . S
C2339 C2323 1.429 . S
C2339 C2335 1.429 . S
C2339 C2340 1.523 . S
C2340 C2324 1.368 . S
C2340 C2336 1.368 . S
C2340 C2339 1.523 . S
H2341 C2316 0.950 . S
H2342 C2318 0.950 . S
H2343 C2319 0.949 . S
H2344 C2321 0.950 . S
H2345 C2323 0.950 . S
C2346 C2347 1.349 . S
C2346 C2348 1.327 . S
C2346 H2371 0.950 . S
C2347 C2346 1.349 . S
C2347 C2363 1.349 . S
C2348 C2346 1.327 . S
C2348 C2367 1.429 . S
C2348 H2372 0.950 . S
C2349 C2366 1.574 . S
C2349 C2368 1.368 . S
C2349 H2373 0.949 . S
H2350 C2354 0.949 . S
C2351 C2352 1.349 . S
C2351 C2353 1.327 . S
C2351 H2374 0.950 . S
C2352 C2351 1.349 . S
C2352 C2364 1.349 . S
C2353 C2351 1.327 . S
C2353 C2369 1.429 . S
C2353 H2375 0.950 . S
C2354 H2350 0.949 . S
C2354 C2362 1.574 . S
C2354 C2370 1.368 . S
H2355 C2363 0.950 . S
H2356 C2361 0.950 . S
H2357 C2362 0.949 . S
H2358 C2364 0.950 . S
H2359 C2365 0.950 . S
H2360 C2366 0.949 . S
C2361 H2356 0.950 . S
C2361 C2363 1.327 . S
C2361 C2367 1.429 . S
C2362 C2354 1.574 . S
C2362 H2357 0.949 . S
C2362 C2368 1.368 . S
C2363 C2347 1.349 . S
C2363 H2355 0.950 . S
C2363 C2361 1.327 . S
C2364 C2352 1.349 . S
C2364 H2358 0.950 . S
C2364 C2365 1.327 . S
C2365 H2359 0.950 . S
C2365 C2364 1.327 . S
C2365 C2369 1.429 . S
C2366 C2349 1.574 . S
C2366 H2360 0.949 . S
C2366 C2370 1.368 . S
C2367 C2348 1.429 . S
C2367 C2361 1.429 . S
C2367 C2368 1.523 . S
C2368 C2349 1.368 . S
C2368 C2362 1.368 . S
C2368 C2367 1.523 . S
C2369 C2353 1.429 . S
C2369 C2365 1.429 . S
C2369 C2370 1.523 . S
C2370 C2354 1.368 . S
C2370 C2366 1.368 . S
C2370 C2369 1.523 . S
H2371 C2346 0.950 . S
H2372 C2348 0.950 . S
H2373 C2349 0.949 . S
H2374 C2351 0.950 . S
H2375 C2353 0.950 . S
C2376 C2377 1.349 . S
C2376 C2378 1.327 . S
C2376 H2401 0.950 . S
C2377 C2376 1.349 . S
C2377 C2393 1.349 . S
C2378 C2376 1.327 . S
C2378 C2397 1.429 . S
C2378 H2402 0.950 . S
C2379 C2396 1.574 . S
C2379 C2398 1.368 . S
C2379 H2403 0.949 . S
H2380 C2384 0.949 . S
C2381 C2382 1.349 . S
C2381 C2383 1.327 . S
C2381 H2404 0.950 . S
C2382 C2381 1.349 . S
C2382 C2394 1.349 . S
C2383 C2381 1.327 . S
C2383 C2399 1.429 . S
C2383 H2405 0.950 . S
C2384 H2380 0.949 . S
C2384 C2392 1.574 . S
C2384 C2400 1.368 . S
H2385 C2393 0.950 1_554 S
H2386 C2391 0.950 . S
H2387 C2392 0.949 . S
H2388 C2394 0.950 . S
H2389 C2395 0.950 . S
H2390 C2396 0.949 . S
C2391 H2386 0.950 . S
C2391 C2393 1.327 . S
C2391 C2397 1.429 . S
C2392 C2384 1.574 . S
C2392 H2387 0.949 . S
C2392 C2398 1.368 . S
C2393 C2377 1.349 . S
C2393 H2385 0.950 1_556 S
C2393 C2391 1.327 . S
C2394 C2382 1.349 . S
C2394 H2388 0.950 . S
C2394 C2395 1.327 . S
C2395 H2389 0.950 . S
C2395 C2394 1.327 . S
C2395 C2399 1.429 . S
C2396 C2379 1.574 . S
C2396 H2390 0.949 . S
C2396 C2400 1.368 . S
C2397 C2378 1.429 . S
C2397 C2391 1.429 . S
C2397 C2398 1.523 . S
C2398 C2379 1.368 . S
C2398 C2392 1.368 . S
C2398 C2397 1.523 . S
C2399 C2383 1.429 . S
C2399 C2395 1.429 . S
C2399 C2400 1.523 . S
C2400 C2384 1.368 . S
C2400 C2396 1.368 . S
C2400 C2399 1.523 . S
H2401 C2376 0.950 . S
H2402 C2378 0.950 . S
H2403 C2379 0.949 . S
H2404 C2381 0.950 . S
H2405 C2383 0.950 . S
C2406 C2407 1.349 . S
C2406 C2408 1.327 . S
C2406 H2431 0.950 . S
C2407 C2406 1.349 . S
C2407 C2423 1.349 . S
C2408 C2406 1.327 . S
C2408 C2427 1.429 . S
C2408 H2432 0.950 . S
C2409 C2426 1.574 . S
C2409 C2428 1.368 . S
C2409 H2433 0.949 . S
H2410 C2414 0.949 . S
C2411 C2412 1.349 . S
C2411 C2413 1.327 . S
C2411 H2434 0.950 . S
C2412 C2411 1.349 . S
C2412 C2424 1.349 . S
C2413 C2411 1.327 . S
C2413 C2429 1.429 . S
C2413 H2435 0.950 . S
C2414 H2410 0.949 . S
C2414 C2422 1.574 . S
C2414 C2430 1.368 . S
H2415 C2423 0.950 . S
H2416 C2421 0.950 . S
H2417 C2422 0.949 . S
H2418 C2424 0.950 . S
H2419 C2425 0.950 . S
H2420 C2426 0.949 . S
C2421 H2416 0.950 . S
C2421 C2423 1.327 . S
C2421 C2427 1.429 . S
C2422 C2414 1.574 . S
C2422 H2417 0.949 . S
C2422 C2428 1.368 . S
C2423 C2407 1.349 . S
C2423 H2415 0.950 . S
C2423 C2421 1.327 . S
C2424 C2412 1.349 . S
C2424 H2418 0.950 . S
C2424 C2425 1.327 . S
C2425 H2419 0.950 . S
C2425 C2424 1.327 . S
C2425 C2429 1.429 . S
C2426 C2409 1.574 . S
C2426 H2420 0.949 . S
C2426 C2430 1.368 . S
C2427 C2408 1.429 . S
C2427 C2421 1.429 . S
C2427 C2428 1.523 . S
C2428 C2409 1.368 . S
C2428 C2422 1.368 . S
C2428 C2427 1.523 . S
C2429 C2413 1.429 . S
C2429 C2425 1.429 . S
C2429 C2430 1.523 . S
C2430 C2414 1.368 . S
C2430 C2426 1.368 . S
C2430 C2429 1.523 . S
H2431 C2406 0.950 . S
H2432 C2408 0.950 . S
H2433 C2409 0.949 . S
H2434 C2411 0.950 . S
H2435 C2413 0.950 . S
C2436 C2437 1.349 1_554 S
C2436 C2438 1.327 1_554 S
C2436 H2461 0.950 . S
C2437 C2436 1.349 1_556 S
C2437 C2453 1.349 . S
C2438 C2436 1.327 1_556 S
C2438 C2457 1.429 . S
C2438 H2462 0.950 1_556 S
C2439 C2456 1.574 . S
C2439 C2458 1.368 . S
C2439 H2463 0.949 . S
H2440 C2444 0.949 . S
C2441 C2442 1.349 . S
C2441 C2443 1.327 . S
C2441 H2464 0.950 . S
C2442 C2441 1.349 . S
C2442 C2454 1.349 . S
C2443 C2441 1.327 . S
C2443 C2459 1.429 . S
C2443 H2465 0.950 . S
C2444 H2440 0.949 . S
C2444 C2452 1.574 . S
C2444 C2460 1.368 . S
H2445 C2453 0.950 . S
H2446 C2451 0.950 . S
H2447 C2452 0.949 . S
H2448 C2454 0.950 . S
H2449 C2455 0.950 . S
H2450 C2456 0.949 . S
C2451 H2446 0.950 . S
C2451 C2453 1.327 . S
C2451 C2457 1.429 . S
C2452 C2444 1.574 . S
C2452 H2447 0.949 . S
C2452 C2458 1.368 . S
C2453 C2437 1.349 . S
C2453 H2445 0.950 . S
C2453 C2451 1.327 . S
C2454 C2442 1.349 . S
C2454 H2448 0.950 . S
C2454 C2455 1.327 . S
C2455 H2449 0.950 . S
C2455 C2454 1.327 . S
C2455 C2459 1.429 . S
C2456 C2439 1.574 . S
C2456 H2450 0.949 . S
C2456 C2460 1.368 . S
C2457 C2438 1.429 . S
C2457 C2451 1.429 . S
C2457 C2458 1.523 . S
C2458 C2439 1.368 . S
C2458 C2452 1.368 . S
C2458 C2457 1.523 . S
C2459 C2443 1.429 . S
C2459 C2455 1.429 . S
C2459 C2460 1.523 . S
C2460 C2444 1.368 . S
C2460 C2456 1.368 . S
C2460 C2459 1.523 . S
H2461 C2436 0.950 . S
H2462 C2438 0.950 1_554 S
H2463 C2439 0.949 . S
H2464 C2441 0.950 . S
H2465 C2443 0.950 . S
C2466 C2467 1.349 . S
C2466 C2468 1.327 . S
C2466 H2491 0.950 . S
C2467 C2466 1.349 . S
C2467 C2483 1.349 . S
C2468 C2466 1.327 . S
C2468 C2487 1.429 . S
C2468 H2492 0.950 . S
C2469 C2486 1.574 . S
C2469 C2488 1.368 . S
C2469 H2493 0.949 . S
H2470 C2474 0.949 . S
C2471 C2472 1.349 . S
C2471 C2473 1.327 . S
C2471 H2494 0.950 . S
C2472 C2471 1.349 . S
C2472 C2484 1.349 . S
C2473 C2471 1.327 . S
C2473 C2489 1.429 . S
C2473 H2495 0.950 . S
C2474 H2470 0.949 . S
C2474 C2482 1.574 . S
C2474 C2490 1.368 . S
H2475 C2483 0.950 . S
H2476 C2481 0.950 . S
H2477 C2482 0.949 . S
H2478 C2484 0.950 . S
H2479 C2485 0.950 . S
H2480 C2486 0.949 . S
C2481 H2476 0.950 . S
C2481 C2483 1.327 . S
C2481 C2487 1.429 . S
C2482 C2474 1.574 . S
C2482 H2477 0.949 . S
C2482 C2488 1.368 . S
C2483 C2467 1.349 . S
C2483 H2475 0.950 . S
C2483 C2481 1.327 . S
C2484 C2472 1.349 . S
C2484 H2478 0.950 . S
C2484 C2485 1.327 . S
C2485 H2479 0.950 . S
C2485 C2484 1.327 . S
C2485 C2489 1.429 . S
C2486 C2469 1.574 . S
C2486 H2480 0.949 . S
C2486 C2490 1.368 . S
C2487 C2468 1.429 . S
C2487 C2481 1.429 . S
C2487 C2488 1.523 . S
C2488 C2469 1.368 . S
C2488 C2482 1.368 . S
C2488 C2487 1.523 . S
C2489 C2473 1.429 . S
C2489 C2485 1.429 . S
C2489 C2490 1.523 . S
C2490 C2474 1.368 . S
C2490 C2486 1.368 . S
C2490 C2489 1.523 . S
H2491 C2466 0.950 . S
H2492 C2468 0.950 . S
H2493 C2469 0.949 . S
H2494 C2471 0.950 . S
H2495 C2473 0.950 . S
C2496 C2497 1.349 . S
C2496 C2498 1.327 . S
C2496 H2521 0.950 . S
C2497 C2496 1.349 . S
C2497 C2513 1.349 . S
C2498 C2496 1.327 . S
C2498 C2517 1.429 . S
C2498 H2522 0.950 . S
C2499 C2516 1.574 . S
C2499 C2518 1.368 . S
C2499 H2523 0.949 . S
H2500 C2504 0.949 . S
C2501 C2502 1.349 . S
C2501 C2503 1.327 . S
C2501 H2524 0.950 . S
C2502 C2501 1.349 . S
C2502 C2514 1.349 . S
C2503 C2501 1.327 . S
C2503 C2519 1.429 . S
C2503 H2525 0.950 . S
C2504 H2500 0.949 . S
C2504 C2512 1.574 . S
C2504 C2520 1.368 . S
H2505 C2513 0.950 . S
H2506 C2511 0.950 . S
H2507 C2512 0.949 . S
H2508 C2514 0.950 . S
H2509 C2515 0.950 . S
H2510 C2516 0.949 . S
C2511 H2506 0.950 . S
C2511 C2513 1.327 . S
C2511 C2517 1.429 . S
C2512 C2504 1.574 . S
C2512 H2507 0.949 . S
C2512 C2518 1.368 . S
C2513 C2497 1.349 . S
C2513 H2505 0.950 . S
C2513 C2511 1.327 . S
C2514 C2502 1.349 . S
C2514 H2508 0.950 . S
C2514 C2515 1.327 . S
C2515 H2509 0.950 . S
C2515 C2514 1.327 . S
C2515 C2519 1.429 . S
C2516 C2499 1.574 . S
C2516 H2510 0.949 . S
C2516 C2520 1.368 . S
C2517 C2498 1.429 . S
C2517 C2511 1.429 . S
C2517 C2518 1.523 . S
C2518 C2499 1.368 . S
C2518 C2512 1.368 . S
C2518 C2517 1.523 . S
C2519 C2503 1.429 . S
C2519 C2515 1.429 . S
C2519 C2520 1.523 . S
C2520 C2504 1.368 . S
C2520 C2516 1.368 . S
C2520 C2519 1.523 . S
H2521 C2496 0.950 . S
H2522 C2498 0.950 . S
H2523 C2499 0.949 . S
H2524 C2501 0.950 . S
H2525 C2503 0.950 . S
C2526 C2527 1.349 . S
C2526 C2528 1.327 . S
C2526 H2551 0.950 . S
C2527 C2526 1.349 . S
C2527 C2543 1.349 . S
C2528 C2526 1.327 . S
C2528 C2547 1.429 . S
C2528 H2552 0.950 . S
C2529 C2546 1.574 . S
C2529 C2548 1.368 . S
C2529 H2553 0.949 . S
H2530 C2534 0.949 . S
C2531 C2532 1.349 . S
C2531 C2533 1.327 . S
C2531 H2554 0.950 . S
C2532 C2531 1.349 . S
C2532 C2544 1.349 . S
C2533 C2531 1.327 . S
C2533 C2549 1.429 . S
C2533 H2555 0.950 . S
C2534 H2530 0.949 . S
C2534 C2542 1.574 . S
C2534 C2550 1.368 . S
H2535 C2543 0.950 . S
H2536 C2541 0.950 . S
H2537 C2542 0.949 . S
H2538 C2544 0.950 . S
H2539 C2545 0.950 . S
H2540 C2546 0.949 . S
C2541 H2536 0.950 . S
C2541 C2543 1.327 . S
C2541 C2547 1.429 . S
C2542 C2534 1.574 . S
C2542 H2537 0.949 . S
C2542 C2548 1.368 . S
C2543 C2527 1.349 . S
C2543 H2535 0.950 . S
C2543 C2541 1.327 . S
C2544 C2532 1.349 . S
C2544 H2538 0.950 . S
C2544 C2545 1.327 . S
C2545 H2539 0.950 . S
C2545 C2544 1.327 . S
C2545 C2549 1.429 . S
C2546 C2529 1.574 . S
C2546 H2540 0.949 . S
C2546 C2550 1.368 . S
C2547 C2528 1.429 . S
C2547 C2541 1.429 . S
C2547 C2548 1.523 . S
C2548 C2529 1.368 . S
C2548 C2542 1.368 . S
C2548 C2547 1.523 . S
C2549 C2533 1.429 . S
C2549 C2545 1.429 . S
C2549 C2550 1.523 . S
C2550 C2534 1.368 . S
C2550 C2546 1.368 . S
C2550 C2549 1.523 . S
H2551 C2526 0.950 . S
H2552 C2528 0.950 . S
H2553 C2529 0.949 . S
H2554 C2531 0.950 . S
H2555 C2533 0.950 . S
C2556 C2557 1.349 . S
C2556 C2558 1.327 . S
C2556 H2581 0.950 . S
C2557 C2556 1.349 . S
C2557 C2573 1.349 . S
C2558 C2556 1.327 . S
C2558 C2577 1.429 . S
C2558 H2582 0.950 . S
C2559 C2576 1.574 . S
C2559 C2578 1.368 . S
C2559 H2583 0.949 . S
H2560 C2564 0.949 . S
C2561 C2562 1.349 . S
C2561 C2563 1.327 . S
C2561 H2584 0.950 . S
C2562 C2561 1.349 . S
C2562 C2574 1.349 . S
C2563 C2561 1.327 . S
C2563 C2579 1.429 . S
C2563 H2585 0.950 . S
C2564 H2560 0.949 . S
C2564 C2572 1.574 . S
C2564 C2580 1.368 . S
H2565 C2573 0.950 . S
H2566 C2571 0.950 . S
H2567 C2572 0.949 . S
H2568 C2574 0.950 . S
H2569 C2575 0.950 . S
H2570 C2576 0.949 . S
C2571 H2566 0.950 . S
C2571 C2573 1.327 . S
C2571 C2577 1.429 . S
C2572 C2564 1.574 . S
C2572 H2567 0.949 . S
C2572 C2578 1.368 . S
C2573 C2557 1.349 . S
C2573 H2565 0.950 . S
C2573 C2571 1.327 . S
C2574 C2562 1.349 . S
C2574 H2568 0.950 . S
C2574 C2575 1.327 . S
C2575 H2569 0.950 . S
C2575 C2574 1.327 . S
C2575 C2579 1.429 . S
C2576 C2559 1.574 . S
C2576 H2570 0.949 . S
C2576 C2580 1.368 . S
C2577 C2558 1.429 . S
C2577 C2571 1.429 . S
C2577 C2578 1.523 . S
C2578 C2559 1.368 . S
C2578 C2572 1.368 . S
C2578 C2577 1.523 . S
C2579 C2563 1.429 . S
C2579 C2575 1.429 . S
C2579 C2580 1.523 . S
C2580 C2564 1.368 . S
C2580 C2576 1.368 . S
C2580 C2579 1.523 . S
H2581 C2556 0.950 . S
H2582 C2558 0.950 . S
H2583 C2559 0.949 . S
H2584 C2561 0.950 . S
H2585 C2563 0.950 . S
C2586 C2587 1.349 . S
C2586 C2588 1.327 . S
C2586 H2611 0.950 . S
C2587 C2586 1.349 . S
C2587 C2603 1.349 . S
C2588 C2586 1.327 . S
C2588 C2607 1.429 . S
C2588 H2612 0.950 . S
C2589 C2606 1.574 . S
C2589 C2608 1.368 . S
C2589 H2613 0.949 . S
H2590 C2594 0.949 . S
C2591 C2592 1.349 . S
C2591 C2593 1.327 . S
C2591 H2614 0.950 . S
C2592 C2591 1.349 . S
C2592 C2604 1.349 . S
C2593 C2591 1.327 . S
C2593 C2609 1.429 . S
C2593 H2615 0.950 . S
C2594 H2590 0.949 . S
C2594 C2602 1.574 . S
C2594 C2610 1.368 . S
H2595 C2603 0.950 . S
H2596 C2601 0.950 . S
H2597 C2602 0.949 . S
H2598 C2604 0.950 . S
H2599 C2605 0.950 . S
H2600 C2606 0.949 . S
C2601 H2596 0.950 . S
C2601 C2603 1.327 . S
C2601 C2607 1.429 . S
C2602 C2594 1.574 . S
C2602 H2597 0.949 . S
C2602 C2608 1.368 . S
C2603 C2587 1.349 . S
C2603 H2595 0.950 . S
C2603 C2601 1.327 . S
C2604 C2592 1.349 . S
C2604 H2598 0.950 . S
C2604 C2605 1.327 . S
C2605 H2599 0.950 . S
C2605 C2604 1.327 . S
C2605 C2609 1.429 . S
C2606 C2589 1.574 . S
C2606 H2600 0.949 . S
C2606 C2610 1.368 . S
C2607 C2588 1.429 . S
C2607 C2601 1.429 . S
C2607 C2608 1.523 . S
C2608 C2589 1.368 . S
C2608 C2602 1.368 . S
C2608 C2607 1.523 . S
C2609 C2593 1.429 . S
C2609 C2605 1.429 . S
C2609 C2610 1.523 . S
C2610 C2594 1.368 . S
C2610 C2606 1.368 . S
C2610 C2609 1.523 . S
H2611 C2586 0.950 . S
H2612 C2588 0.950 . S
H2613 C2589 0.949 . S
H2614 C2591 0.950 . S
H2615 C2593 0.950 . S
C2616 C2617 1.349 . S
C2616 C2618 1.327 . S
C2616 H2641 0.950 . S
C2617 C2616 1.349 . S
C2617 C2633 1.349 . S
C2618 C2616 1.327 . S
C2618 C2637 1.429 . S
C2618 H2642 0.950 . S
C2619 C2636 1.574 . S
C2619 C2638 1.368 . S
C2619 H2643 0.949 . S
H2620 C2624 0.949 . S
C2621 C2622 1.349 . S
C2621 C2623 1.327 . S
C2621 H2644 0.950 . S
C2622 C2621 1.349 . S
C2622 C2634 1.349 . S
C2623 C2621 1.327 . S
C2623 C2639 1.429 . S
C2623 H2645 0.950 . S
C2624 H2620 0.949 . S
C2624 C2632 1.574 . S
C2624 C2640 1.368 . S
H2625 C2633 0.950 . S
H2626 C2631 0.950 . S
H2627 C2632 0.949 . S
H2628 C2634 0.950 . S
H2629 C2635 0.950 . S
H2630 C2636 0.949 . S
C2631 H2626 0.950 . S
C2631 C2633 1.327 . S
C2631 C2637 1.429 . S
C2632 C2624 1.574 . S
C2632 H2627 0.949 . S
C2632 C2638 1.368 . S
C2633 C2617 1.349 . S
C2633 H2625 0.950 . S
C2633 C2631 1.327 . S
C2634 C2622 1.349 . S
C2634 H2628 0.950 . S
C2634 C2635 1.327 . S
C2635 H2629 0.950 . S
C2635 C2634 1.327 . S
C2635 C2639 1.429 . S
C2636 C2619 1.574 . S
C2636 H2630 0.949 . S
C2636 C2640 1.368 . S
C2637 C2618 1.429 . S
C2637 C2631 1.429 . S
C2637 C2638 1.523 . S
C2638 C2619 1.368 . S
C2638 C2632 1.368 . S
C2638 C2637 1.523 . S
C2639 C2623 1.429 . S
C2639 C2635 1.429 . S
C2639 C2640 1.523 . S
C2640 C2624 1.368 . S
C2640 C2636 1.368 . S
C2640 C2639 1.523 . S
H2641 C2616 0.950 . S
H2642 C2618 0.950 . S
H2643 C2619 0.949 . S
H2644 C2621 0.950 . S
H2645 C2623 0.950 . S
C2646 C2647 1.349 . S
C2646 C2648 1.327 . S
C2646 H2671 0.950 . S
C2647 C2646 1.349 . S
C2647 C2663 1.349 . S
C2648 C2646 1.327 . S
C2648 C2667 1.429 . S
C2648 H2672 0.940 1_455 S
C2649 C2666 1.574 . S
C2649 C2668 1.368 . S
C2649 H2673 0.949 . S
H2650 C2654 0.934 1_655 S
C2651 C2652 1.349 . S
C2651 C2653 1.327 . S
C2651 H2674 0.950 . S
C2652 C2651 1.349 . S
C2652 C2664 1.349 1_455 S
C2653 C2651 1.327 . S
C2653 C2669 1.429 . S
C2653 H2675 0.950 . S
C2654 H2650 0.934 1_455 S
C2654 C2662 1.588 . S
C2654 C2670 1.371 . S
H2655 C2663 0.950 . S
H2656 C2661 0.950 . S
H2657 C2662 0.949 1_655 S
H2658 C2664 0.950 . S
H2659 C2665 0.950 . S
H2660 C2666 0.949 . S
C2661 H2656 0.950 . S
C2661 C2663 1.327 . S
C2661 C2667 1.429 . S
C2662 C2654 1.588 . S
C2662 H2657 0.949 1_455 S
C2662 C2668 1.368 . S
C2663 C2647 1.349 . S
C2663 H2655 0.950 . S
C2663 C2661 1.327 . S
C2664 C2652 1.349 1_655 S
C2664 H2658 0.950 . S
C2664 C2665 1.327 . S
C2665 H2659 0.950 . S
C2665 C2664 1.327 . S
C2665 C2669 1.429 1_655 S
C2666 C2649 1.574 . S
C2666 H2660 0.949 . S
C2666 C2670 1.368 . S
C2667 C2648 1.429 . S
C2667 C2661 1.429 . S
C2667 C2668 1.523 . S
C2668 C2649 1.368 . S
C2668 C2662 1.368 . S
C2668 C2667 1.523 . S
C2669 C2653 1.429 . S
C2669 C2665 1.429 1_455 S
C2669 C2670 1.523 . S
C2670 C2654 1.371 . S
C2670 C2666 1.368 . S
C2670 C2669 1.523 . S
H2671 C2646 0.950 . S
H2672 C2648 0.940 1_655 S
H2673 C2649 0.949 . S
H2674 C2651 0.950 . S
H2675 C2653 0.950 . S
C2676 C2677 1.349 . S
C2676 C2678 1.327 . S
C2676 H2701 0.950 . S
C2677 C2676 1.349 . S
C2677 C2693 1.349 . S
C2678 C2676 1.327 . S
C2678 C2697 1.429 . S
C2678 H2702 0.950 . S
C2679 C2696 1.574 . S
C2679 C2698 1.368 . S
C2679 H2703 0.949 . S
H2680 C2684 0.949 . S
C2681 C2682 1.349 . S
C2681 C2683 1.327 . S
C2681 H2704 0.950 . S
C2682 C2681 1.349 . S
C2682 C2694 1.349 . S
C2683 C2681 1.327 . S
C2683 C2699 1.429 . S
C2683 H2705 0.950 . S
C2684 H2680 0.949 . S
C2684 C2692 1.574 . S
C2684 C2700 1.368 . S
H2685 C2693 0.950 . S
H2686 C2691 0.950 . S
H2687 C2692 0.949 . S
H2688 C2694 0.950 . S
H2689 C2695 0.950 . S
H2690 C2696 0.949 . S
C2691 H2686 0.950 . S
C2691 C2693 1.327 . S
C2691 C2697 1.429 . S
C2692 C2684 1.574 . S
C2692 H2687 0.949 . S
C2692 C2698 1.368 . S
C2693 C2677 1.349 . S
C2693 H2685 0.950 . S
C2693 C2691 1.327 . S
C2694 C2682 1.349 . S
C2694 H2688 0.950 . S
C2694 C2695 1.327 . S
C2695 H2689 0.950 . S
C2695 C2694 1.327 . S
C2695 C2699 1.429 . S
C2696 C2679 1.574 . S
C2696 H2690 0.949 . S
C2696 C2700 1.368 . S
C2697 C2678 1.429 . S
C2697 C2691 1.429 . S
C2697 C2698 1.523 . S
C2698 C2679 1.368 . S
C2698 C2692 1.368 . S
C2698 C2697 1.523 . S
C2699 C2683 1.429 . S
C2699 C2695 1.429 . S
C2699 C2700 1.523 . S
C2700 C2684 1.368 . S
C2700 C2696 1.368 . S
C2700 C2699 1.523 . S
H2701 C2676 0.950 . S
H2702 C2678 0.950 . S
H2703 C2679 0.949 . S
H2704 C2681 0.950 . S
H2705 C2683 0.950 . S
C2706 C2707 1.349 . S
C2706 C2708 1.327 . S
C2706 H2731 0.950 1_565 S
C2707 C2706 1.349 . S
C2707 C2723 1.349 . S
C2708 C2706 1.327 . S
C2708 C2727 1.429 . S
C2708 H2732 0.950 1_565 S
C2709 C2726 1.574 . S
C2709 C2728 1.368 . S
C2709 H2733 0.949 . S
H2710 C2714 0.949 . S
C2711 C2712 1.349 . S
C2711 C2713 1.327 . S
C2711 H2734 0.950 . S
C2712 C2711 1.349 . S
C2712 C2724 1.349 1_565 S
C2713 C2711 1.327 . S
C2713 C2729 1.429 . S
C2713 H2735 0.950 . S
C2714 H2710 0.949 . S
C2714 C2722 1.574 . S
C2714 C2730 1.368 1_545 S
H2715 C2723 0.950 . S
H2716 C2721 0.950 . S
H2717 C2722 0.949 . S
H2718 C2724 0.950 . S
H2719 C2725 0.950 . S
H2720 C2726 0.949 . S
C2721 H2716 0.950 . S
C2721 C2723 1.327 . S
C2721 C2727 1.429 . S
C2722 C2714 1.574 . S
C2722 H2717 0.949 . S
C2722 C2728 1.368 1_545 S
C2723 C2707 1.349 . S
C2723 H2715 0.950 . S
C2723 C2721 1.327 . S
C2724 C2712 1.349 1_545 S
C2724 H2718 0.950 . S
C2724 C2725 1.327 . S
C2725 H2719 0.950 . S
C2725 C2724 1.327 . S
C2725 C2729 1.429 1_545 S
C2726 C2709 1.574 . S
C2726 H2720 0.949 . S
C2726 C2730 1.368 . S
C2727 C2708 1.429 . S
C2727 C2721 1.429 . S
C2727 C2728 1.523 . S
C2728 C2709 1.368 . S
C2728 C2722 1.368 1_565 S
C2728 C2727 1.523 . S
C2729 C2713 1.429 . S
C2729 C2725 1.429 1_565 S
C2729 C2730 1.523 . S
C2730 C2714 1.368 1_565 S
C2730 C2726 1.368 . S
C2730 C2729 1.523 . S
H2731 C2706 0.950 1_545 S
H2732 C2708 0.950 1_545 S
H2733 C2709 0.949 . S
H2734 C2711 0.950 . S
H2735 C2713 0.950 . S
C2736 C2737 1.349 . S
C2736 C2738 1.327 . S
C2736 H2761 0.950 . S
C2737 C2736 1.349 . S
C2737 C2753 1.349 . S
C2738 C2736 1.327 . S
C2738 C2757 1.429 . S
C2738 H2762 0.950 . S
C2739 C2756 1.574 . S
C2739 C2758 1.368 1_545 S
C2739 H2763 0.949 . S
H2740 C2744 0.949 . S
C2741 C2742 1.349 1_545 S
C2741 C2743 1.327 . S
C2741 H2764 0.950 . S
C2742 C2741 1.349 1_565 S
C2742 C2754 1.349 . S
C2743 C2741 1.327 . S
C2743 C2759 1.429 1_545 S
C2743 H2765 0.950 . S
C2744 H2740 0.949 . S
C2744 C2752 1.574 . S
C2744 C2760 1.368 . S
H2745 C2753 0.950 1_545 S
H2746 C2751 0.950 1_545 S
H2747 C2752 0.949 . S
H2748 C2754 0.950 . S
H2749 C2755 0.950 . S
H2750 C2756 0.949 . S
C2751 H2746 0.950 1_565 S
C2751 C2753 1.327 . S
C2751 C2757 1.429 . S
C2752 C2744 1.574 . S
C2752 H2747 0.949 . S
C2752 C2758 1.368 . S
C2753 C2737 1.349 . S
C2753 H2745 0.950 1_565 S
C2753 C2751 1.327 . S
C2754 C2742 1.349 . S
C2754 H2748 0.950 . S
C2754 C2755 1.327 . S
C2755 H2749 0.950 . S
C2755 C2754 1.327 . S
C2755 C2759 1.429 . S
C2756 C2739 1.574 . S
C2756 H2750 0.949 . S
C2756 C2760 1.368 1_545 S
C2757 C2738 1.429 . S
C2757 C2751 1.429 . S
C2757 C2758 1.523 . S
C2758 C2739 1.368 1_565 S
C2758 C2752 1.368 . S
C2758 C2757 1.523 . S
C2759 C2743 1.429 1_565 S
C2759 C2755 1.429 . S
C2759 C2760 1.523 . S
C2760 C2744 1.368 . S
C2760 C2756 1.368 1_565 S
C2760 C2759 1.523 . S
H2761 C2736 0.950 . S
H2762 C2738 0.950 . S
H2763 C2739 0.949 . S
H2764 C2741 0.950 . S
H2765 C2743 0.950 . S
C2766 C2767 1.349 . S
C2766 C2768 1.327 . S
C2766 H2791 0.950 . S
C2767 C2766 1.349 . S
C2767 C2783 1.349 . S
C2768 C2766 1.327 . S
C2768 C2787 1.429 . S
C2768 H2792 0.924 1_455 S
C2769 C2786 1.574 . S
C2769 C2788 1.368 . S
C2769 H2793 0.949 . S
H2770 C2774 0.960 . S
C2771 C2772 1.349 . S
C2771 C2773 1.327 . S
C2771 H2794 0.950 . S
C2772 C2771 1.349 . S
C2772 C2784 1.349 1_455 S
C2773 C2771 1.327 . S
C2773 C2789 1.429 . S
C2773 H2795 0.950 . S
C2774 H2770 0.960 . S
C2774 C2782 1.588 1_655 S
C2774 C2790 1.343 1_655 S
H2775 C2783 0.950 . S
H2776 C2781 0.950 . S
H2777 C2782 0.949 1_655 S
H2778 C2784 0.950 . S
H2779 C2785 0.950 . S
H2780 C2786 0.949 . S
C2781 H2776 0.950 . S
C2781 C2783 1.327 . S
C2781 C2787 1.429 . S
C2782 C2774 1.588 1_455 S
C2782 H2777 0.949 1_455 S
C2782 C2788 1.368 . S
C2783 C2767 1.349 . S
C2783 H2775 0.950 . S
C2783 C2781 1.327 . S
C2784 C2772 1.349 1_655 S
C2784 H2778 0.950 . S
C2784 C2785 1.327 . S
C2785 H2779 0.950 . S
C2785 C2784 1.327 . S
C2785 C2789 1.429 1_655 S
C2786 C2769 1.574 . S
C2786 H2780 0.949 . S
C2786 C2790 1.368 . S
C2787 C2768 1.429 . S
C2787 C2781 1.429 . S
C2787 C2788 1.523 . S
C2788 C2769 1.368 . S
C2788 C2782 1.368 . S
C2788 C2787 1.523 . S
C2789 C2773 1.429 . S
C2789 C2785 1.429 1_455 S
C2789 C2790 1.523 . S
C2790 C2774 1.343 1_455 S
C2790 C2786 1.368 . S
C2790 C2789 1.523 . S
H2791 C2766 0.950 . S
H2792 C2768 0.924 1_655 S
H2793 C2769 0.949 . S
H2794 C2771 0.950 . S
H2795 C2773 0.950 . S
C2796 C2797 1.349 . S
C2796 C2798 1.327 . S
C2796 H2821 0.950 . S
C2797 C2796 1.349 . S
C2797 C2813 1.349 . S
C2798 C2796 1.327 . S
C2798 C2817 1.429 . S
C2798 H2822 0.950 . S
C2799 C2816 1.574 . S
C2799 C2818 1.368 . S
C2799 H2823 0.949 . S
H2800 C2804 0.949 . S
C2801 C2802 1.349 . S
C2801 C2803 1.327 . S
C2801 H2824 0.950 . S
C2802 C2801 1.349 . S
C2802 C2814 1.349 . S
C2803 C2801 1.327 . S
C2803 C2819 1.429 . S
C2803 H2825 0.950 . S
C2804 H2800 0.949 . S
C2804 C2812 1.574 . S
C2804 C2820 1.368 . S
H2805 C2813 0.950 . S
H2806 C2811 0.950 . S
H2807 C2812 0.949 . S
H2808 C2814 0.950 . S
H2809 C2815 0.950 . S
H2810 C2816 0.949 . S
C2811 H2806 0.950 . S
C2811 C2813 1.327 . S
C2811 C2817 1.429 . S
C2812 C2804 1.574 . S
C2812 H2807 0.949 . S
C2812 C2818 1.368 . S
C2813 C2797 1.349 . S
C2813 H2805 0.950 . S
C2813 C2811 1.327 . S
C2814 C2802 1.349 . S
C2814 H2808 0.950 . S
C2814 C2815 1.327 . S
C2815 H2809 0.950 . S
C2815 C2814 1.327 . S
C2815 C2819 1.429 . S
C2816 C2799 1.574 . S
C2816 H2810 0.949 . S
C2816 C2820 1.368 . S
C2817 C2798 1.429 . S
C2817 C2811 1.429 . S
C2817 C2818 1.523 . S
C2818 C2799 1.368 . S
C2818 C2812 1.368 . S
C2818 C2817 1.523 . S
C2819 C2803 1.429 . S
C2819 C2815 1.429 . S
C2819 C2820 1.523 . S
C2820 C2804 1.368 . S
C2820 C2816 1.368 . S
C2820 C2819 1.523 . S
H2821 C2796 0.950 . S
H2822 C2798 0.950 . S
H2823 C2799 0.949 . S
H2824 C2801 0.950 . S
H2825 C2803 0.950 . S
C2826 C2827 1.349 . S
C2826 C2828 1.327 . S
C2826 H2851 0.950 . S
C2827 C2826 1.349 . S
C2827 C2843 1.349 . S
C2828 C2826 1.327 . S
C2828 C2847 1.429 . S
C2828 H2852 0.950 . S
C2829 C2846 1.574 . S
C2829 C2848 1.368 . S
C2829 H2853 0.949 . S
H2830 C2834 0.949 . S
C2831 C2832 1.349 . S
C2831 C2833 1.327 . S
C2831 H2854 0.950 . S
C2832 C2831 1.349 . S
C2832 C2844 1.349 . S
C2833 C2831 1.327 . S
C2833 C2849 1.429 . S
C2833 H2855 0.950 . S
C2834 H2830 0.949 . S
C2834 C2842 1.574 . S
C2834 C2850 1.368 . S
H2835 C2843 0.950 . S
H2836 C2841 0.950 . S
H2837 C2842 0.949 . S
H2838 C2844 0.950 . S
H2839 C2845 0.950 . S
H2840 C2846 0.949 . S
C2841 H2836 0.950 . S
C2841 C2843 1.327 . S
C2841 C2847 1.429 . S
C2842 C2834 1.574 . S
C2842 H2837 0.949 . S
C2842 C2848 1.368 . S
C2843 C2827 1.349 . S
C2843 H2835 0.950 . S
C2843 C2841 1.327 . S
C2844 C2832 1.349 . S
C2844 H2838 0.950 . S
C2844 C2845 1.327 . S
C2845 H2839 0.950 . S
C2845 C2844 1.327 . S
C2845 C2849 1.429 . S
C2846 C2829 1.574 . S
C2846 H2840 0.949 . S
C2846 C2850 1.368 . S
C2847 C2828 1.429 . S
C2847 C2841 1.429 . S
C2847 C2848 1.523 . S
C2848 C2829 1.368 . S
C2848 C2842 1.368 . S
C2848 C2847 1.523 . S
C2849 C2833 1.429 . S
C2849 C2845 1.429 . S
C2849 C2850 1.523 . S
C2850 C2834 1.368 . S
C2850 C2846 1.368 . S
C2850 C2849 1.523 . S
H2851 C2826 0.950 . S
H2852 C2828 0.950 . S
H2853 C2829 0.949 . S
H2854 C2831 0.950 . S
H2855 C2833 0.950 . S
C2856 C2857 1.349 . S
C2856 C2858 1.327 . S
C2856 H2881 0.950 . S
C2857 C2856 1.349 . S
C2857 C2873 1.349 . S
C2858 C2856 1.327 . S
C2858 C2877 1.429 . S
C2858 H2882 0.950 . S
C2859 C2876 1.574 . S
C2859 C2878 1.368 . S
C2859 H2883 0.949 . S
H2860 C2864 0.949 . S
C2861 C2862 1.349 . S
C2861 C2863 1.327 . S
C2861 H2884 0.950 . S
C2862 C2861 1.349 . S
C2862 C2874 1.349 . S
C2863 C2861 1.327 . S
C2863 C2879 1.429 . S
C2863 H2885 0.950 . S
C2864 H2860 0.949 . S
C2864 C2872 1.574 . S
C2864 C2880 1.368 . S
H2865 C2873 0.950 . S
H2866 C2871 0.950 . S
H2867 C2872 0.949 . S
H2868 C2874 0.950 . S
H2869 C2875 0.950 . S
H2870 C2876 0.949 . S
C2871 H2866 0.950 . S
C2871 C2873 1.327 . S
C2871 C2877 1.429 . S
C2872 C2864 1.574 . S
C2872 H2867 0.949 . S
C2872 C2878 1.368 . S
C2873 C2857 1.349 . S
C2873 H2865 0.950 . S
C2873 C2871 1.327 . S
C2874 C2862 1.349 . S
C2874 H2868 0.950 . S
C2874 C2875 1.327 . S
C2875 H2869 0.950 . S
C2875 C2874 1.327 . S
C2875 C2879 1.429 . S
C2876 C2859 1.574 . S
C2876 H2870 0.949 . S
C2876 C2880 1.368 . S
C2877 C2858 1.429 . S
C2877 C2871 1.429 . S
C2877 C2878 1.523 . S
C2878 C2859 1.368 . S
C2878 C2872 1.368 . S
C2878 C2877 1.523 . S
C2879 C2863 1.429 . S
C2879 C2875 1.429 . S
C2879 C2880 1.523 . S
C2880 C2864 1.368 . S
C2880 C2876 1.368 . S
C2880 C2879 1.523 . S
H2881 C2856 0.950 . S
H2882 C2858 0.950 . S
H2883 C2859 0.949 . S
H2884 C2861 0.950 . S
H2885 C2863 0.950 . S
C2886 C2887 1.349 . S
C2886 C2888 1.327 . S
C2886 H2911 0.950 . S
C2887 C2886 1.349 . S
C2887 C2903 1.349 . S
C2888 C2886 1.327 . S
C2888 C2907 1.429 . S
C2888 H2912 0.950 . S
C2889 C2906 1.574 . S
C2889 C2908 1.368 . S
C2889 H2913 0.949 . S
H2890 C2894 0.949 . S
C2891 C2892 1.349 . S
C2891 C2893 1.327 . S
C2891 H2914 0.950 . S
C2892 C2891 1.349 . S
C2892 C2904 1.349 . S
C2893 C2891 1.327 . S
C2893 C2909 1.429 . S
C2893 H2915 0.950 . S
C2894 H2890 0.949 . S
C2894 C2902 1.574 . S
C2894 C2910 1.368 . S
H2895 C2903 0.950 . S
H2896 C2901 0.950 . S
H2897 C2902 0.949 . S
H2898 C2904 0.950 . S
H2899 C2905 0.950 . S
H2900 C2906 0.949 . S
C2901 H2896 0.950 . S
C2901 C2903 1.327 . S
C2901 C2907 1.429 . S
C2902 C2894 1.574 . S
C2902 H2897 0.949 . S
C2902 C2908 1.368 . S
C2903 C2887 1.349 . S
C2903 H2895 0.950 . S
C2903 C2901 1.327 . S
C2904 C2892 1.349 . S
C2904 H2898 0.950 . S
C2904 C2905 1.327 . S
C2905 H2899 0.950 . S
C2905 C2904 1.327 . S
C2905 C2909 1.429 . S
C2906 C2889 1.574 . S
C2906 H2900 0.949 . S
C2906 C2910 1.368 . S
C2907 C2888 1.429 . S
C2907 C2901 1.429 . S
C2907 C2908 1.523 . S
C2908 C2889 1.368 . S
C2908 C2902 1.368 . S
C2908 C2907 1.523 . S
C2909 C2893 1.429 . S
C2909 C2905 1.429 . S
C2909 C2910 1.523 . S
C2910 C2894 1.368 . S
C2910 C2906 1.368 . S
C2910 C2909 1.523 . S
H2911 C2886 0.950 . S
H2912 C2888 0.950 . S
H2913 C2889 0.949 . S
H2914 C2891 0.950 . S
H2915 C2893 0.950 . S
C2916 C2917 1.349 . S
C2916 C2918 1.327 . S
C2916 H2941 0.950 . S
C2917 C2916 1.349 . S
C2917 C2933 1.349 . S
C2918 C2916 1.327 . S
C2918 C2937 1.429 . S
C2918 H2942 0.950 . S
C2919 C2936 1.574 . S
C2919 C2938 1.368 . S
C2919 H2943 0.949 1_545 S
H2920 C2924 0.949 . S
C2921 C2922 1.349 1_565 S
C2921 C2923 1.327 . S
C2921 H2944 0.950 . S
C2922 C2921 1.349 1_545 S
C2922 C2934 1.349 . S
C2923 C2921 1.327 . S
C2923 C2939 1.429 1_565 S
C2923 H2945 0.950 . S
C2924 H2920 0.949 . S
C2924 C2932 1.574 . S
C2924 C2940 1.368 . S
H2925 C2933 0.950 . S
H2926 C2931 0.950 . S
H2927 C2932 0.949 . S
H2928 C2934 0.950 . S
H2929 C2935 0.950 . S
H2930 C2936 0.949 1_565 S
C2931 H2926 0.950 . S
C2931 C2933 1.327 . S
C2931 C2937 1.429 . S
C2932 C2924 1.574 . S
C2932 H2927 0.949 . S
C2932 C2938 1.368 . S
C2933 C2917 1.349 . S
C2933 H2925 0.950 . S
C2933 C2931 1.327 . S
C2934 C2922 1.349 . S
C2934 H2928 0.950 . S
C2934 C2935 1.327 . S
C2935 H2929 0.950 . S
C2935 C2934 1.327 . S
C2935 C2939 1.429 . S
C2936 C2919 1.574 . S
C2936 H2930 0.949 1_545 S
C2936 C2940 1.368 . S
C2937 C2918 1.429 . S
C2937 C2931 1.429 . S
C2937 C2938 1.523 . S
C2938 C2919 1.368 . S
C2938 C2932 1.368 . S
C2938 C2937 1.523 . S
C2939 C2923 1.429 1_545 S
C2939 C2935 1.429 . S
C2939 C2940 1.523 . S
C2940 C2924 1.368 . S
C2940 C2936 1.368 . S
C2940 C2939 1.523 . S
H2941 C2916 0.950 . S
H2942 C2918 0.950 . S
H2943 C2919 0.949 1_565 S
H2944 C2921 0.950 . S
H2945 C2923 0.950 . S
C2946 C2947 1.349 . S
C2946 C2948 1.327 . S
C2946 H2971 0.950 . S
C2947 C2946 1.349 . S
C2947 C2963 1.349 . S
C2948 C2946 1.327 . S
C2948 C2967 1.429 . S
C2948 H2972 0.950 1_655 S
C2949 C2966 1.574 . S
C2949 C2968 1.368 . S
C2949 H2973 0.949 . S
H2950 C2954 0.955 . S
C2951 C2952 1.349 . S
C2951 C2953 1.327 . S
C2951 H2974 0.950 . S
C2952 C2951 1.349 . S
C2952 C2964 1.349 1_655 S
C2953 C2951 1.327 . S
C2953 C2969 1.429 . S
C2953 H2975 0.950 . S
C2954 H2950 0.955 . S
C2954 C2962 1.589 1_455 S
C2954 C2970 1.348 1_455 S
H2955 C2963 0.950 . S
H2956 C2961 0.950 . S
H2957 C2962 0.949 1_455 S
H2958 C2964 0.950 . S
H2959 C2965 0.950 . S
H2960 C2966 0.949 . S
C2961 H2956 0.950 . S
C2961 C2963 1.327 . S
C2961 C2967 1.429 . S
C2962 C2954 1.589 1_655 S
C2962 H2957 0.949 1_655 S
C2962 C2968 1.368 . S
C2963 C2947 1.349 . S
C2963 H2955 0.950 . S
C2963 C2961 1.327 . S
C2964 C2952 1.349 1_455 S
C2964 H2958 0.950 . S
C2964 C2965 1.327 . S
C2965 H2959 0.950 . S
C2965 C2964 1.327 . S
C2965 C2969 1.429 1_455 S
C2966 C2949 1.574 . S
C2966 H2960 0.949 . S
C2966 C2970 1.368 . S
C2967 C2948 1.429 . S
C2967 C2961 1.429 . S
C2967 C2968 1.523 . S
C2968 C2949 1.368 . S
C2968 C2962 1.368 . S
C2968 C2967 1.523 . S
C2969 C2953 1.429 . S
C2969 C2965 1.429 1_655 S
C2969 C2970 1.523 . S
C2970 C2954 1.348 1_655 S
C2970 C2966 1.368 . S
C2970 C2969 1.523 . S
H2971 C2946 0.950 . S
H2972 C2948 0.950 1_455 S
H2973 C2949 0.949 . S
H2974 C2951 0.950 . S
H2975 C2953 0.950 . S
C2976 C2977 1.349 . S
C2976 C2978 1.327 . S
C2976 H3001 0.950 . S
C2977 C2976 1.349 . S
C2977 C2993 1.349 . S
C2978 C2976 1.327 . S
C2978 C2997 1.429 . S
C2978 H3002 0.950 . S
C2979 C2996 1.574 . S
C2979 C2998 1.368 . S
C2979 H3003 0.949 . S
H2980 C2984 0.949 . S
C2981 C2982 1.349 . S
C2981 C2983 1.327 . S
C2981 H3004 0.950 . S
C2982 C2981 1.349 . S
C2982 C2994 1.349 . S
C2983 C2981 1.327 . S
C2983 C2999 1.429 . S
C2983 H3005 0.950 . S
C2984 H2980 0.949 . S
C2984 C2992 1.574 . S
C2984 C3000 1.368 . S
H2985 C2993 0.950 . S
H2986 C2991 0.950 . S
H2987 C2992 0.949 . S
H2988 C2994 0.950 . S
H2989 C2995 0.950 . S
H2990 C2996 0.949 . S
C2991 H2986 0.950 . S
C2991 C2993 1.327 . S
C2991 C2997 1.429 . S
C2992 C2984 1.574 . S
C2992 H2987 0.949 . S
C2992 C2998 1.368 . S
C2993 C2977 1.349 . S
C2993 H2985 0.950 . S
C2993 C2991 1.327 . S
C2994 C2982 1.349 . S
C2994 H2988 0.950 . S
C2994 C2995 1.327 . S
C2995 H2989 0.950 . S
C2995 C2994 1.327 . S
C2995 C2999 1.429 . S
C2996 C2979 1.574 . S
C2996 H2990 0.949 . S
C2996 C3000 1.368 . S
C2997 C2978 1.429 . S
C2997 C2991 1.429 . S
C2997 C2998 1.523 . S
C2998 C2979 1.368 . S
C2998 C2992 1.368 . S
C2998 C2997 1.523 . S
C2999 C2983 1.429 . S
C2999 C2995 1.429 . S
C2999 C3000 1.523 . S
C3000 C2984 1.368 . S
C3000 C2996 1.368 . S
C3000 C2999 1.523 . S
H3001 C2976 0.950 . S
H3002 C2978 0.950 . S
H3003 C2979 0.949 . S
H3004 C2981 0.950 . S
H3005 C2983 0.950 . S
C3006 C3007 1.349 . S
C3006 C3008 1.327 . S
C3006 H3031 0.950 . S
C3007 C3006 1.349 . S
C3007 C3023 1.349 . S
C3008 C3006 1.327 . S
C3008 C3027 1.429 . S
C3008 H3032 0.950 . S
C3009 C3026 1.574 . S
C3009 C3028 1.368 . S
C3009 H3033 0.949 . S
H3010 C3014 0.949 . S
C3011 C3012 1.349 . S
C3011 C3013 1.327 . S
C3011 H3034 0.950 . S
C3012 C3011 1.349 . S
C3012 C3024 1.349 . S
C3013 C3011 1.327 . S
C3013 C3029 1.429 . S
C3013 H3035 0.950 . S
C3014 H3010 0.949 . S
C3014 C3022 1.574 . S
C3014 C3030 1.368 . S
H3015 C3023 0.950 . S
H3016 C3021 0.950 . S
H3017 C3022 0.949 . S
H3018 C3024 0.950 . S
H3019 C3025 0.950 . S
H3020 C3026 0.949 . S
C3021 H3016 0.950 . S
C3021 C3023 1.327 . S
C3021 C3027 1.429 . S
C3022 C3014 1.574 . S
C3022 H3017 0.949 . S
C3022 C3028 1.368 . S
C3023 C3007 1.349 . S
C3023 H3015 0.950 . S
C3023 C3021 1.327 . S
C3024 C3012 1.349 . S
C3024 H3018 0.950 . S
C3024 C3025 1.327 . S
C3025 H3019 0.950 . S
C3025 C3024 1.327 . S
C3025 C3029 1.429 . S
C3026 C3009 1.574 . S
C3026 H3020 0.949 . S
C3026 C3030 1.368 . S
C3027 C3008 1.429 . S
C3027 C3021 1.429 . S
C3027 C3028 1.523 . S
C3028 C3009 1.368 . S
C3028 C3022 1.368 . S
C3028 C3027 1.523 . S
C3029 C3013 1.429 . S
C3029 C3025 1.429 . S
C3029 C3030 1.523 . S
C3030 C3014 1.368 . S
C3030 C3026 1.368 . S
C3030 C3029 1.523 . S
H3031 C3006 0.950 . S
H3032 C3008 0.950 . S
H3033 C3009 0.949 . S
H3034 C3011 0.950 . S
H3035 C3013 0.950 . S
C3036 C3037 1.349 . S
C3036 C3038 1.327 . S
C3036 H3061 0.950 . S
C3037 C3036 1.349 . S
C3037 C3053 1.349 . S
C3038 C3036 1.327 . S
C3038 C3057 1.429 . S
C3038 H3062 0.950 . S
C3039 C3056 1.574 . S
C3039 C3058 1.368 . S
C3039 H3063 0.949 . S
H3040 C3044 0.949 . S
C3041 C3042 1.349 . S
C3041 C3043 1.327 . S
C3041 H3064 0.950 . S
C3042 C3041 1.349 . S
C3042 C3054 1.349 . S
C3043 C3041 1.327 . S
C3043 C3059 1.429 . S
C3043 H3065 0.950 . S
C3044 H3040 0.949 . S
C3044 C3052 1.574 . S
C3044 C3060 1.368 . S
H3045 C3053 0.950 . S
H3046 C3051 0.950 . S
H3047 C3052 0.949 . S
H3048 C3054 0.950 . S
H3049 C3055 0.950 . S
H3050 C3056 0.949 . S
C3051 H3046 0.950 . S
C3051 C3053 1.327 . S
C3051 C3057 1.429 . S
C3052 C3044 1.574 . S
C3052 H3047 0.949 . S
C3052 C3058 1.368 . S
C3053 C3037 1.349 . S
C3053 H3045 0.950 . S
C3053 C3051 1.327 . S
C3054 C3042 1.349 . S
C3054 H3048 0.950 . S
C3054 C3055 1.327 . S
C3055 H3049 0.950 . S
C3055 C3054 1.327 . S
C3055 C3059 1.429 . S
C3056 C3039 1.574 . S
C3056 H3050 0.949 . S
C3056 C3060 1.368 . S
C3057 C3038 1.429 . S
C3057 C3051 1.429 . S
C3057 C3058 1.523 . S
C3058 C3039 1.368 . S
C3058 C3052 1.368 . S
C3058 C3057 1.523 . S
C3059 C3043 1.429 . S
C3059 C3055 1.429 . S
C3059 C3060 1.523 . S
C3060 C3044 1.368 . S
C3060 C3056 1.368 . S
C3060 C3059 1.523 . S
H3061 C3036 0.950 . S
H3062 C3038 0.950 . S
H3063 C3039 0.949 . S
H3064 C3041 0.950 . S
H3065 C3043 0.950 . S
C3066 C3067 1.349 . S
C3066 C3068 1.327 . S
C3066 H3091 0.950 . S
C3067 C3066 1.349 . S
C3067 C3083 1.349 . S
C3068 C3066 1.327 . S
C3068 C3087 1.429 . S
C3068 H3092 0.950 . S
C3069 C3086 1.574 . S
C3069 C3088 1.368 . S
C3069 H3093 0.949 . S
H3070 C3074 0.949 . S
C3071 C3072 1.349 . S
C3071 C3073 1.327 . S
C3071 H3094 0.950 . S
C3072 C3071 1.349 . S
C3072 C3084 1.349 . S
C3073 C3071 1.327 . S
C3073 C3089 1.429 . S
C3073 H3095 0.950 . S
C3074 H3070 0.949 . S
C3074 C3082 1.574 . S
C3074 C3090 1.368 . S
H3075 C3083 0.950 . S
H3076 C3081 0.950 . S
H3077 C3082 0.949 . S
H3078 C3084 0.950 . S
H3079 C3085 0.950 . S
H3080 C3086 0.949 . S
C3081 H3076 0.950 . S
C3081 C3083 1.327 . S
C3081 C3087 1.429 . S
C3082 C3074 1.574 . S
C3082 H3077 0.949 . S
C3082 C3088 1.368 . S
C3083 C3067 1.349 . S
C3083 H3075 0.950 . S
C3083 C3081 1.327 . S
C3084 C3072 1.349 . S
C3084 H3078 0.950 . S
C3084 C3085 1.327 . S
C3085 H3079 0.950 . S
C3085 C3084 1.327 . S
C3085 C3089 1.429 . S
C3086 C3069 1.574 . S
C3086 H3080 0.949 . S
C3086 C3090 1.368 . S
C3087 C3068 1.429 . S
C3087 C3081 1.429 . S
C3087 C3088 1.523 . S
C3088 C3069 1.368 . S
C3088 C3082 1.368 . S
C3088 C3087 1.523 . S
C3089 C3073 1.429 . S
C3089 C3085 1.429 . S
C3089 C3090 1.523 . S
C3090 C3074 1.368 . S
C3090 C3086 1.368 . S
C3090 C3089 1.523 . S
H3091 C3066 0.950 . S
H3092 C3068 0.950 . S
H3093 C3069 0.949 . S
H3094 C3071 0.950 . S
H3095 C3073 0.950 . S
C3096 C3097 1.349 . S
C3096 C3098 1.327 . S
C3096 H3121 0.950 . S
C3097 C3096 1.349 . S
C3097 C3113 1.349 . S
C3098 C3096 1.327 . S
C3098 C3117 1.429 . S
C3098 H3122 0.950 . S
C3099 C3116 1.574 . S
C3099 C3118 1.368 . S
C3099 H3123 0.949 . S
H3100 C3104 0.949 . S
C3101 C3102 1.349 . S
C3101 C3103 1.327 . S
C3101 H3124 0.950 . S
C3102 C3101 1.349 . S
C3102 C3114 1.349 . S
C3103 C3101 1.327 . S
C3103 C3119 1.429 . S
C3103 H3125 0.950 . S
C3104 H3100 0.949 . S
C3104 C3112 1.574 . S
C3104 C3120 1.368 . S
H3105 C3113 0.950 . S
H3106 C3111 0.950 . S
H3107 C3112 0.949 . S
H3108 C3114 0.950 . S
H3109 C3115 0.950 . S
H3110 C3116 0.949 . S
C3111 H3106 0.950 . S
C3111 C3113 1.327 . S
C3111 C3117 1.429 . S
C3112 C3104 1.574 . S
C3112 H3107 0.949 . S
C3112 C3118 1.368 . S
C3113 C3097 1.349 . S
C3113 H3105 0.950 . S
C3113 C3111 1.327 . S
C3114 C3102 1.349 . S
C3114 H3108 0.950 . S
C3114 C3115 1.327 . S
C3115 H3109 0.950 . S
C3115 C3114 1.327 . S
C3115 C3119 1.429 . S
C3116 C3099 1.574 . S
C3116 H3110 0.949 . S
C3116 C3120 1.368 . S
C3117 C3098 1.429 . S
C3117 C3111 1.429 . S
C3117 C3118 1.523 . S
C3118 C3099 1.368 . S
C3118 C3112 1.368 . S
C3118 C3117 1.523 . S
C3119 C3103 1.429 . S
C3119 C3115 1.429 . S
C3119 C3120 1.523 . S
C3120 C3104 1.368 . S
C3120 C3116 1.368 . S
C3120 C3119 1.523 . S
H3121 C3096 0.950 . S
H3122 C3098 0.950 . S
H3123 C3099 0.949 . S
H3124 C3101 0.950 . S
H3125 C3103 0.950 . S
C3126 C3127 1.349 . S
C3126 C3128 1.327 . S
C3126 H3151 0.950 . S
C3127 C3126 1.349 . S
C3127 C3143 1.349 . S
C3128 C3126 1.327 . S
C3128 C3147 1.429 . S
C3128 H3152 0.950 . S
C3129 C3146 1.574 . S
C3129 C3148 1.368 . S
C3129 H3153 0.949 . S
H3130 C3134 0.949 . S
C3131 C3132 1.349 . S
C3131 C3133 1.327 . S
C3131 H3154 0.950 . S
C3132 C3131 1.349 . S
C3132 C3144 1.349 . S
C3133 C3131 1.327 . S
C3133 C3149 1.429 . S
C3133 H3155 0.950 . S
C3134 H3130 0.949 . S
C3134 C3142 1.574 . S
C3134 C3150 1.368 . S
H3135 C3143 0.950 . S
H3136 C3141 0.950 . S
H3137 C3142 0.949 . S
H3138 C3144 0.950 . S
H3139 C3145 0.950 . S
H3140 C3146 0.949 . S
C3141 H3136 0.950 . S
C3141 C3143 1.327 . S
C3141 C3147 1.429 . S
C3142 C3134 1.574 . S
C3142 H3137 0.949 . S
C3142 C3148 1.368 . S
C3143 C3127 1.349 . S
C3143 H3135 0.950 . S
C3143 C3141 1.327 . S
C3144 C3132 1.349 . S
C3144 H3138 0.950 . S
C3144 C3145 1.327 . S
C3145 H3139 0.950 . S
C3145 C3144 1.327 . S
C3145 C3149 1.429 . S
C3146 C3129 1.574 . S
C3146 H3140 0.949 . S
C3146 C3150 1.368 . S
C3147 C3128 1.429 . S
C3147 C3141 1.429 . S
C3147 C3148 1.523 . S
C3148 C3129 1.368 . S
C3148 C3142 1.368 . S
C3148 C3147 1.523 . S
C3149 C3133 1.429 . S
C3149 C3145 1.429 . S
C3149 C3150 1.523 . S
C3150 C3134 1.368 . S
C3150 C3146 1.368 . S
C3150 C3149 1.523 . S
H3151 C3126 0.950 . S
H3152 C3128 0.950 . S
H3153 C3129 0.949 . S
H3154 C3131 0.950 . S
H3155 C3133 0.950 . S
C3156 C3157 1.349 . S
C3156 C3158 1.327 . S
C3156 H3181 0.950 . S
C3157 C3156 1.349 . S
C3157 C3173 1.349 . S
C3158 C3156 1.327 . S
C3158 C3177 1.429 . S
C3158 H3182 0.950 . S
C3159 C3176 1.574 . S
C3159 C3178 1.368 . S
C3159 H3183 0.949 . S
H3160 C3164 0.949 . S
C3161 C3162 1.349 . S
C3161 C3163 1.327 . S
C3161 H3184 0.950 . S
C3162 C3161 1.349 . S
C3162 C3174 1.349 . S
C3163 C3161 1.327 . S
C3163 C3179 1.429 . S
C3163 H3185 0.950 . S
C3164 H3160 0.949 . S
C3164 C3172 1.574 . S
C3164 C3180 1.368 . S
H3165 C3173 0.950 . S
H3166 C3171 0.950 . S
H3167 C3172 0.949 . S
H3168 C3174 0.950 . S
H3169 C3175 0.950 . S
H3170 C3176 0.949 . S
C3171 H3166 0.950 . S
C3171 C3173 1.327 . S
C3171 C3177 1.429 . S
C3172 C3164 1.574 . S
C3172 H3167 0.949 . S
C3172 C3178 1.368 . S
C3173 C3157 1.349 . S
C3173 H3165 0.950 . S
C3173 C3171 1.327 . S
C3174 C3162 1.349 . S
C3174 H3168 0.950 . S
C3174 C3175 1.327 . S
C3175 H3169 0.950 . S
C3175 C3174 1.327 . S
C3175 C3179 1.429 . S
C3176 C3159 1.574 . S
C3176 H3170 0.949 . S
C3176 C3180 1.368 . S
C3177 C3158 1.429 . S
C3177 C3171 1.429 . S
C3177 C3178 1.523 . S
C3178 C3159 1.368 . S
C3178 C3172 1.368 . S
C3178 C3177 1.523 . S
C3179 C3163 1.429 . S
C3179 C3175 1.429 . S
C3179 C3180 1.523 . S
C3180 C3164 1.368 . S
C3180 C3176 1.368 . S
C3180 C3179 1.523 . S
H3181 C3156 0.950 . S
H3182 C3158 0.950 . S
H3183 C3159 0.949 . S
H3184 C3161 0.950 . S
H3185 C3163 0.950 . S
C3186 C3187 1.349 . S
C3186 C3188 1.327 . S
C3186 H3211 0.950 . S
C3187 C3186 1.349 . S
C3187 C3203 1.349 . S
C3188 C3186 1.327 . S
C3188 C3207 1.429 . S
C3188 H3212 0.950 . S
C3189 C3206 1.574 . S
C3189 C3208 1.368 . S
C3189 H3213 0.949 . S
H3190 C3194 0.949 . S
C3191 C3192 1.349 . S
C3191 C3193 1.327 . S
C3191 H3214 0.950 . S
C3192 C3191 1.349 . S
C3192 C3204 1.349 . S
C3193 C3191 1.327 . S
C3193 C3209 1.429 . S
C3193 H3215 0.950 . S
C3194 H3190 0.949 . S
C3194 C3202 1.574 . S
C3194 C3210 1.368 . S
H3195 C3203 0.950 . S
H3196 C3201 0.950 . S
H3197 C3202 0.949 . S
H3198 C3204 0.950 . S
H3199 C3205 0.950 . S
H3200 C3206 0.949 . S
C3201 H3196 0.950 . S
C3201 C3203 1.327 . S
C3201 C3207 1.429 . S
C3202 C3194 1.574 . S
C3202 H3197 0.949 . S
C3202 C3208 1.368 . S
C3203 C3187 1.349 . S
C3203 H3195 0.950 . S
C3203 C3201 1.327 . S
C3204 C3192 1.349 . S
C3204 H3198 0.950 . S
C3204 C3205 1.327 . S
C3205 H3199 0.950 . S
C3205 C3204 1.327 . S
C3205 C3209 1.429 . S
C3206 C3189 1.574 . S
C3206 H3200 0.949 . S
C3206 C3210 1.368 . S
C3207 C3188 1.429 . S
C3207 C3201 1.429 . S
C3207 C3208 1.523 . S
C3208 C3189 1.368 . S
C3208 C3202 1.368 . S
C3208 C3207 1.523 . S
C3209 C3193 1.429 . S
C3209 C3205 1.429 . S
C3209 C3210 1.523 . S
C3210 C3194 1.368 . S
C3210 C3206 1.368 . S
C3210 C3209 1.523 . S
H3211 C3186 0.950 . S
H3212 C3188 0.950 . S
H3213 C3189 0.949 . S
H3214 C3191 0.950 . S
H3215 C3193 0.950 . S
C3216 C3217 1.349 . S
C3216 C3218 1.327 . S
C3216 H3241 0.950 . S
C3217 C3216 1.349 . S
C3217 C3233 1.349 . S
C3218 C3216 1.327 . S
C3218 C3237 1.429 . S
C3218 H3242 0.950 . S
C3219 C3236 1.574 . S
C3219 C3238 1.368 . S
C3219 H3243 0.949 . S
H3220 C3224 0.949 . S
C3221 C3222 1.349 . S
C3221 C3223 1.327 . S
C3221 H3244 0.950 . S
C3222 C3221 1.349 . S
C3222 C3234 1.349 . S
C3223 C3221 1.327 . S
C3223 C3239 1.429 . S
C3223 H3245 0.950 . S
C3224 H3220 0.949 . S
C3224 C3232 1.574 . S
C3224 C3240 1.368 . S
H3225 C3233 0.950 . S
H3226 C3231 0.950 . S
H3227 C3232 0.949 . S
H3228 C3234 0.950 . S
H3229 C3235 0.950 . S
H3230 C3236 0.949 . S
C3231 H3226 0.950 . S
C3231 C3233 1.327 . S
C3231 C3237 1.429 . S
C3232 C3224 1.574 . S
C3232 H3227 0.949 . S
C3232 C3238 1.368 . S
C3233 C3217 1.349 . S
C3233 H3225 0.950 . S
C3233 C3231 1.327 . S
C3234 C3222 1.349 . S
C3234 H3228 0.950 . S
C3234 C3235 1.327 . S
C3235 H3229 0.950 . S
C3235 C3234 1.327 . S
C3235 C3239 1.429 . S
C3236 C3219 1.574 . S
C3236 H3230 0.949 . S
C3236 C3240 1.368 . S
C3237 C3218 1.429 . S
C3237 C3231 1.429 . S
C3237 C3238 1.523 . S
C3238 C3219 1.368 . S
C3238 C3232 1.368 . S
C3238 C3237 1.523 . S
C3239 C3223 1.429 . S
C3239 C3235 1.429 . S
C3239 C3240 1.523 . S
C3240 C3224 1.368 . S
C3240 C3236 1.368 . S
C3240 C3239 1.523 . S
H3241 C3216 0.950 . S
H3242 C3218 0.950 . S
H3243 C3219 0.949 . S
H3244 C3221 0.950 . S
H3245 C3223 0.950 . S
C3246 C3247 1.349 . S
C3246 C3248 1.327 . S
C3246 H3271 0.950 . S
C3247 C3246 1.349 . S
C3247 C3263 1.349 . S
C3248 C3246 1.327 . S
C3248 C3267 1.429 . S
C3248 H3272 0.950 . S
C3249 C3266 1.574 . S
C3249 C3268 1.368 1_565 S
C3249 H3273 0.949 . S
H3250 C3254 0.949 . S
C3251 C3252 1.349 1_565 S
C3251 C3253 1.327 . S
C3251 H3274 0.950 . S
C3252 C3251 1.349 1_545 S
C3252 C3264 1.349 . S
C3253 C3251 1.327 . S
C3253 C3269 1.429 1_565 S
C3253 H3275 0.950 . S
C3254 H3250 0.949 . S
C3254 C3262 1.574 . S
C3254 C3270 1.368 . S
H3255 C3263 0.950 1_565 S
H3256 C3261 0.950 1_565 S
H3257 C3262 0.949 . S
H3258 C3264 0.950 . S
H3259 C3265 0.950 . S
H3260 C3266 0.949 . S
C3261 H3256 0.950 1_545 S
C3261 C3263 1.327 . S
C3261 C3267 1.429 . S
C3262 C3254 1.574 . S
C3262 H3257 0.949 . S
C3262 C3268 1.368 . S
C3263 C3247 1.349 . S
C3263 H3255 0.950 1_545 S
C3263 C3261 1.327 . S
C3264 C3252 1.349 . S
C3264 H3258 0.950 . S
C3264 C3265 1.327 . S
C3265 H3259 0.950 . S
C3265 C3264 1.327 . S
C3265 C3269 1.429 . S
C3266 C3249 1.574 . S
C3266 H3260 0.949 . S
C3266 C3270 1.368 1_565 S
C3267 C3248 1.429 . S
C3267 C3261 1.429 . S
C3267 C3268 1.523 . S
C3268 C3249 1.368 1_545 S
C3268 C3262 1.368 . S
C3268 C3267 1.523 . S
C3269 C3253 1.429 1_545 S
C3269 C3265 1.429 . S
C3269 C3270 1.523 . S
C3270 C3254 1.368 . S
C3270 C3266 1.368 1_545 S
C3270 C3269 1.523 . S
H3271 C3246 0.950 . S
H3272 C3248 0.950 . S
H3273 C3249 0.949 . S
H3274 C3251 0.950 . S
H3275 C3253 0.950 . S
C1117 C4 1.440 . S
C1122 C729 1.477 . S
C1147 C26 1.537 . S
C1152 C777 1.542 . S
C1182 C825 1.417 . S
C1177 C32 1.382 . S
C1207 C40 1.401 . S
C1212 C849 1.420 . S
C1237 C12 1.453 . S
C1242 C921 1.467 . S
C1267 C18 1.463 . S
C1272 C969 1.510 . S
C1297 C46 1.423 . S
C1302 C897 1.461 . S
C1332 C945 1.540 . S
C1327 C68 1.536 . S
C1362 C873 1.466 . S
C1357 C74 1.396 . S
C1387 C82 1.388 . S
C1392 C801 1.404 . S
C1422 C705 1.491 . S
C1417 C54 1.476 . S
C1447 C60 1.462 . S
C1452 C753 1.510 . S
C1477 C88 1.590 . S
C1482 C1017 1.638 . S
C1507 C110 1.611 . S
C1512 C1065 1.610 . S
C1542 C1089 1.589 . S
C1537 C116 1.549 . S
C1567 C124 1.470 . S
C1572 C273 1.467 . S
C1597 C96 1.541 . S
C1602 C345 1.544 . S
C1627 C102 1.505 . S
C1632 C393 1.545 . S
C1657 C130 1.512 . S
C1662 C321 1.555 . S
C1687 C152 1.608 . S
C1692 C369 1.608 . S
C1722 C297 1.564 . S
C1717 C158 1.545 . S
C1752 C1113 1.522 . S
C1747 C166 1.542 . S
C1782 C993 1.529 . S
C1777 C138 1.527 . S
C1812 C1041 1.592 . S
C1807 C144 1.546 . S
C1837 C172 1.521 . S
C1842 C441 1.564 . S
C1867 C194 1.599 . S
C1872 C489 1.600 . S
C1897 C200 1.553 . S
C1902 C513 1.590 . S
C1927 C208 1.535 . S
C1932 C561 1.530 . S
C1962 C633 1.538 . S
C1957 C180 1.537 . S
C1992 C681 1.579 . S
C1987 C186 1.533 . S
C2022 C609 1.650 . S
C2017 C214 1.600 . S
C2052 C657 1.612 . S
C2047 C236 1.614 . S
C2077 C242 1.527 . S
C2082 C585 1.549 . S
C2112 C537 1.439 . S
C2107 C250 1.457 . S
C2137 C222 1.548 . S
C2142 C417 1.553 . S
C2172 C465 1.558 . S
C2167 C228 1.517 . S
C2202 C282 1.448 . S
C2197 C5 1.242 . S
C2227 C25 1.335 . S
C2232 C336 1.315 . S
C2262 C384 1.445 . S
C2257 C33 1.266 . S
C2292 C432 1.307 . S
C2287 C39 1.303 . S
C2322 C480 1.372 . S
C2317 C11 1.388 . S
C2352 C522 1.350 . S
C2347 C19 1.144 1_556 S
C2377 C47 1.266 1_556 S
C2382 C528 1.477 . S
C2407 C67 1.335 . S
C2412 C426 1.307 . S
C2437 C75 1.256 1_556 S
C2442 C474 1.421 . S
C2467 C81 1.327 . S
C2472 C330 1.312 . S
C2502 C378 1.337 . S
C2497 C53 1.361 . S
C2527 C61 1.141 . S
C2532 C288 1.337 . S
C2562 C570 1.404 . S
C2557 C89 1.185 . S
C2587 C109 1.447 . S
C2592 C624 1.431 . S
C2617 C117 1.251 . S
C2622 C672 1.449 . S
C2652 C720 1.174 . S
C2647 C123 1.158 . S
C2677 C95 1.330 . S
C2682 C768 1.318 . S
C2707 C103 1.047 . S
C2712 C816 1.200 . S
C2737 C131 1.049 . S
C2742 C810 1.193 . S
C2767 C151 1.189 . S
C2772 C714 1.197 . S
C2802 C762 1.342 . S
C2797 C159 1.165 . S
C2827 C165 1.311 . S
C2832 C618 1.292 . S
C2857 C137 1.431 . S
C2862 C666 1.406 . S
C2892 C576 1.441 . S
C2887 C145 1.230 . S
C2922 C858 1.277 . S
C2917 C173 1.061 . S
C2947 C193 1.167 . S
C2952 C912 1.180 . S
C2977 C201 1.161 . S
C2982 C960 1.347 . S
C3012 C1008 1.287 . S
C3007 C207 1.298 . S
C3042 C1056 1.431 . S
C3037 C179 1.448 . S
C3067 C187 1.233 . S
C3072 C1098 1.453 . S
C3097 C215 1.206 . S
C3102 C1104 1.417 . S
C3127 C235 1.443 . S
C3132 C1002 1.418 . S
C3162 C1050 1.425 . S
C3157 C243 1.240 . S
C3192 C906 1.148 . S
C3187 C249 1.130 . S
C3222 C954 1.320 . S
C3217 C221 1.340 . S
C3247 C229 1.054 . S
C3252 C864 1.213 . S
