# Generated by pormake.
# Topology rtl, (3,6)-cn, num edge types: 1
# Building blocks:
#     Node 0, Type 0, BuildingBlock: VETTIZ_charged_linker_0, # of connection points: 3
#     Node 1, Type 0, BuildingBlock: VETTIZ_charged_linker_0, # of connection points: 3
#     Node 2, Type 0, BuildingBlock: VETTIZ_charged_linker_0, # of connection points: 3
#     Node 3, Type 0, BuildingBlock: VETTIZ_charged_linker_0, # of connection points: 3
#     Node 4, Type 1, BuildingBlock: KUMBUR_clean_sbu_1, # of connection points: 6
#     Node 5, Type 1, BuildingBlock: KUMBUR_clean_sbu_1, # of connection points: 6
#     Edge 6, Type (0, 1), BuildingBlock: CIFDUS_clean_linker_0, # of connection points: 2
#     Edge 7, Type (0, 1), BuildingBlock: CIFDUS_clean_linker_0, # of connection points: 2
#     Edge 8, Type (0, 1), BuildingBlock: CIFDUS_clean_linker_0, # of connection points: 2
#     Edge 9, Type (0, 1), BuildingBlock: CIFDUS_clean_linker_0, # of connection points: 2
#     Edge 10, Type (0, 1), BuildingBlock: CIFDUS_clean_linker_0, # of connection points: 2
#     Edge 11, Type (0, 1), BuildingBlock: CIFDUS_clean_linker_0, # of connection points: 2
#     Edge 12, Type (0, 1), BuildingBlock: CIFDUS_clean_linker_0, # of connection points: 2
#     Edge 13, Type (0, 1), BuildingBlock: CIFDUS_clean_linker_0, # of connection points: 2
#     Edge 14, Type (0, 1), BuildingBlock: CIFDUS_clean_linker_0, # of connection points: 2
#     Edge 15, Type (0, 1), BuildingBlock: CIFDUS_clean_linker_0, # of connection points: 2
#     Edge 16, Type (0, 1), BuildingBlock: CIFDUS_clean_linker_0, # of connection points: 2
#     Edge 17, Type (0, 1), BuildingBlock: CIFDUS_clean_linker_0, # of connection points: 2
# Relax obj value: 0.018
# Max RMSD: 0.103
# Mean RMSD: 0.061
data_MOF--net-rtl--node1-KUMBUR_clean_sbu_1--node2-VETTIZ_charged_linker_0--edge1-CIFDUS_clean_linker_0
_symmetry_space_group_name_H-M    P1
_symmetry_Int_Tables_number       1
_symmetry_cell_setting            triclinic
loop_
_symmetry_equiv_pos_as_xyz
'x, y, z'
_cell_length_a     35.417217
_cell_length_b     36.238771
_cell_length_c     31.949429
_cell_angle_alpha  78.815665
_cell_angle_beta   99.089619
_cell_angle_gamma 90.857716
loop_
_atom_site_label
_atom_site_type_symbol
_atom_site_fract_x
_atom_site_fract_y
_atom_site_fract_z
_atom_type_partial_charge
C0 C 0.17506 0.90407 0.85847 0.0
C1 C 0.14899 0.93421 0.85172 0.0
C2 C 0.14066 0.94819 0.88744 0.0
C3 C 0.18116 0.89943 0.93596 0.0
C4 C 0.19073 0.88716 0.90063 0.0
C5 C 0.21761 0.85378 0.91325 0.0
H6 H 0.29723 0.70913 0.06529 0.0
C7 C 0.1995 0.87336 0.97519 0.0
C8 C 0.22083 0.8466 0.96214 0.0
H9 H 0.31352 0.74056 0.93127 0.0
H10 H 0.27477 0.79548 0.92261 0.0
H11 H 0.31476 0.79489 0.08068 0.0
H12 H 0.20845 0.73701 0.0562 0.0
H13 H 0.2072 0.76079 0.09921 0.0
H14 H 0.24213 0.72381 0.10508 0.0
H15 H 0.29923 0.75877 0.12099 0.0
H16 H 0.28357 0.80707 0.11361 0.0
C17 C 0.25626 0.86578 0.89795 0.0
C18 C 0.19806 0.82098 0.89387 0.0
C19 C 0.17376 0.89023 0.12167 0.0
C20 C 0.18397 0.86956 0.16384 0.0
C21 C 0.20479 0.83553 0.17029 0.0
C22 C 0.21621 0.82295 0.13514 0.0
C23 C 0.20646 0.84455 0.09319 0.0
C24 C 0.18517 0.87735 0.08713 0.0
C25 C 0.17597 0.89619 0.0405 0.0
C26 C 0.19662 0.87025 0.01949 0.0
C27 C 0.21443 0.83993 0.05034 0.0
C28 C 0.19342 0.93598 0.03518 0.0
C29 C 0.13195 0.89577 0.02678 0.0
C30 C 0.29267 0.72773 0.03401 0.0
C31 C 0.30754 0.71896 0.99848 0.0
C32 C 0.30106 0.74491 0.95878 0.0
C33 C 0.27887 0.77741 0.95378 0.0
C34 C 0.26326 0.78494 0.9889 0.0
C35 C 0.2713 0.76116 0.02863 0.0
C36 C 0.25568 0.77654 0.06322 0.0
C37 C 0.23581 0.81259 0.03703 0.0
C38 C 0.23976 0.81667 0.99336 0.0
C39 C 0.28986 0.7846 0.09672 0.0
C40 C 0.22696 0.7481 0.08233 0.0
H41 H 0.14851 0.94218 0.95563 0.0
H42 H 0.18243 0.89331 0.83138 0.0
H43 H 0.1679 0.81832 0.89971 0.0
H44 H 0.21177 0.79337 0.9082 0.0
H45 H 0.19781 0.82587 0.85841 0.0
H46 H 0.25936 0.89689 0.89129 0.0
H47 H 0.25911 0.85587 0.86778 0.0
H48 H 0.28113 0.85526 0.92298 0.0
H49 H 0.1569 0.91597 0.11555 0.0
H50 H 0.21278 0.81906 0.20256 0.0
H51 H 0.23221 0.79698 0.14194 0.0
H52 H 0.22186 0.93548 0.0559 0.0
H53 H 0.17474 0.95625 0.04469 0.0
H54 H 0.19878 0.94709 1.00197 0.0
H55 H 0.11919 0.87081 0.04536 0.0
H56 H 0.12342 0.89338 0.99265 0.0
H57 H 0.1181 0.92124 0.03252 0.0
H58 H 0.12066 0.9715 0.88279 0.0
C59 C 0.1566 0.9309 0.92961 0.0
C60 C 0.64958 0.66503 0.77131 0.0
C61 C 0.61866 0.64041 0.77609 0.0
C62 C 0.5978 0.62967 0.73919 0.0
C63 C 0.63966 0.66566 0.69413 0.0
C64 C 0.6592 0.67776 0.72988 0.0
C65 C 0.69018 0.70512 0.71792 0.0
H66 H 0.78382 0.79939 0.55985 0.0
C67 C 0.65771 0.68206 0.6563 0.0
C68 C 0.68711 0.70575 0.66967 0.0
H69 H 0.8019 0.80826 0.69465 0.0
H70 H 0.7531 0.762 0.70838 0.0
H71 H 0.78494 0.7136 0.57815 0.0
H72 H 0.69174 0.79351 0.54506 0.0
H73 H 0.68248 0.75917 0.51258 0.0
H74 H 0.72481 0.78692 0.5098 0.0
H75 H 0.76625 0.73287 0.52292 0.0
H76 H 0.74741 0.69043 0.55163 0.0
C77 C 0.72906 0.68869 0.74317 0.0
C78 C 0.67964 0.74372 0.72715 0.0
C79 C 0.61703 0.63777 0.51446 0.0
C80 C 0.63242 0.64312 0.47565 0.0
C81 C 0.66285 0.6685 0.47078 0.0
C82 C 0.6776 0.68777 0.50357 0.0
C83 C 0.66265 0.68117 0.54243 0.0
C84 C 0.63302 0.65638 0.54749 0.0
C85 C 0.6228 0.65065 0.59224 0.0
C86 C 0.65139 0.676 0.61315 0.0
C87 C 0.6742 0.69415 0.5836 0.0
C88 C 0.62996 0.60854 0.61333 0.0
C89 C 0.58101 0.66464 0.58854 0.0
C90 C 0.77779 0.79134 0.59253 0.0
C91 C 0.79698 0.80795 0.62603 0.0
C92 C 0.78728 0.79661 0.66788 0.0
C93 C 0.75898 0.76957 0.67589 0.0
C94 C 0.74013 0.75343 0.64181 0.0
C95 C 0.75008 0.76422 0.60112 0.0
C96 C 0.72879 0.74317 0.56896 0.0
C97 C 0.70282 0.71932 0.59633 0.0
C98 C 0.70944 0.72518 0.63912 0.0
C99 C 0.75814 0.71888 0.55429 0.0
C100 C 0.7058 0.77201 0.53187 0.0
H101 H 0.59133 0.63242 0.67179 0.0
H102 H 0.66569 0.67421 0.79909 0.0
H103 H 0.64826 0.74921 0.71865 0.0
H104 H 0.69268 0.76749 0.70758 0.0
H105 H 0.68803 0.74472 0.76191 0.0
H106 H 0.73127 0.65816 0.74284 0.0
H107 H 0.73242 0.69194 0.77743 0.0
H108 H 0.75362 0.70172 0.72892 0.0
H109 H 0.59344 0.61902 0.51965 0.0
H110 H 0.67636 0.6728 0.44216 0.0
H111 H 0.70064 0.70656 0.49761 0.0
H112 H 0.65627 0.59773 0.60448 0.0
H113 H 0.60572 0.59111 0.60233 0.0
H114 H 0.63498 0.60325 0.64893 0.0
H115 H 0.5734 0.68778 0.56003 0.0
H116 H 0.57632 0.67693 0.61645 0.0
H117 H 0.56041 0.64164 0.58491 0.0
H118 H 0.57401 0.61068 0.74211 0.0
C119 C 0.6081 0.64211 0.69839 0.0
C120 C 0.85657 0.12563 0.20614 0.0
C121 C 0.88725 0.09984 0.21634 0.0
C122 C 0.89953 0.0852 0.18281 0.0
C123 C 0.8517 0.12367 0.12985 0.0
C124 C 0.83938 0.13702 0.1632 0.0
C125 C 0.80674 0.16458 0.14791 0.0
H126 H 0.69439 0.2775 0.98595 0.0
C127 C 0.82808 0.14257 0.08883 0.0
C128 C 0.80181 0.16651 0.0996 0.0
H129 H 0.69448 0.26278 0.12382 0.0
H130 H 0.7423 0.21439 0.13687 0.0
H131 H 0.78643 0.26648 0.98776 0.0
H132 H 0.69147 0.19147 0.98613 0.0
H133 H 0.72465 0.17221 0.96064 0.0
H134 H 0.70394 0.21828 0.93708 0.0
H135 H 0.7481 0.26842 0.9432 0.0
H136 H 0.78932 0.23839 0.94895 0.0
C137 C 0.81996 0.20253 0.1605 0.0
C138 C 0.77138 0.14743 0.16739 0.0
C139 C 0.84865 0.1151 0.94286 0.0
C140 C 0.82935 0.12799 0.90057 0.0
C141 C 0.80047 0.15581 0.89346 0.0
C142 C 0.79033 0.17022 0.92777 0.0
C143 C 0.80896 0.15649 0.96997 0.0
C144 C 0.8377 0.12948 0.97716 0.0
C145 C 0.85316 0.11754 0.02468 0.0
C146 C 0.82839 0.14122 0.04458 0.0
C147 C 0.80281 0.16424 0.01212 0.0
C148 C 0.89571 0.1285 0.03195 0.0
C149 C 0.84625 0.07497 0.03843 0.0
C150 C 0.70454 0.26374 0.01896 0.0
C151 C 0.69131 0.27521 0.05394 0.0
C152 C 0.70509 0.25588 0.09625 0.0
C153 C 0.73273 0.22731 0.10386 0.0
C154 C 0.74678 0.21727 0.06889 0.0
C155 C 0.73196 0.23452 0.02722 0.0
C156 C 0.74848 0.21778 0.99422 0.0
C157 C 0.77675 0.18884 0.02324 0.0
C158 C 0.77587 0.18927 0.06679 0.0
C159 C 0.76907 0.24929 0.96673 0.0
C160 C 0.71562 0.19912 0.96782 0.0
H161 H 0.89279 0.08537 0.11531 0.0
H162 H 0.84593 0.13676 0.23126 0.0
H163 H 0.77325 0.11616 0.17555 0.0
H164 H 0.74439 0.15363 0.14434 0.0
H165 H 0.76864 0.15748 0.1975 0.0
H166 H 0.85007 0.20818 0.15553 0.0
H167 H 0.81853 0.20216 0.19506 0.0
H168 H 0.8034 0.22706 0.14069 0.0
H169 H 0.87073 0.09349 0.9492 0.0
H170 H 0.78546 0.16625 0.86111 0.0
H171 H 0.76803 0.19124 0.92012 0.0
H172 H 0.89993 0.15683 0.01256 0.0
H173 H 0.91395 0.1081 0.02202 0.0
H174 H 0.90645 0.1305 0.06575 0.0
H175 H 0.81765 0.06736 0.02274 0.0
H176 H 0.84613 0.06619 0.07346 0.0
H177 H 0.86811 0.05797 0.02889 0.0
H178 H 0.92314 0.06513 0.18999 0.0
C179 C 0.88201 0.09712 0.13954 0.0
C180 C 0.36063 0.34171 0.3217 0.0
C181 C 0.38935 0.36878 0.31529 0.0
C182 C 0.40504 0.38606 0.34983 0.0
C183 C 0.36367 0.35045 0.3957 0.0
C184 C 0.3484 0.3328 0.36233 0.0
C185 C 0.31878 0.30431 0.37589 0.0
H186 H 0.21412 0.22675 0.53183 0.0
C187 C 0.34441 0.33628 0.43321 0.0
C188 C 0.31787 0.30915 0.4221 0.0
H189 H 0.21473 0.19354 0.40898 0.0
H190 H 0.26029 0.2424 0.39077 0.0
H191 H 0.3017 0.22802 0.55413 0.0
H192 H 0.21839 0.31624 0.49961 0.0
H193 H 0.25181 0.33362 0.53756 0.0
H194 H 0.22437 0.29283 0.5552 0.0
H195 H 0.27298 0.247 0.58662 0.0
H196 H 0.31829 0.26705 0.5761 0.0
C197 C 0.33372 0.2648 0.37433 0.0
C198 C 0.28024 0.3156 0.34625 0.0
C199 C 0.38048 0.38961 0.56978 0.0
C200 C 0.36735 0.38284 0.60983 0.0
C201 C 0.33746 0.35725 0.61624 0.0
C202 C 0.32123 0.33843 0.58354 0.0
C203 C 0.33506 0.34506 0.5439 0.0
C204 C 0.36403 0.37046 0.53749 0.0
C205 C 0.37497 0.37411 0.49331 0.0
C206 C 0.34809 0.34632 0.47444 0.0
C207 C 0.3249 0.32944 0.50418 0.0
C208 C 0.41746 0.36151 0.49895 0.0
C209 C 0.36618 0.41521 0.46895 0.0
C210 C 0.22413 0.22942 0.50108 0.0
C211 C 0.21082 0.20563 0.47219 0.0
C212 C 0.22416 0.21142 0.43197 0.0
C213 C 0.25098 0.23957 0.4216 0.0
C214 C 0.265 0.262 0.45187 0.0
C215 C 0.2514 0.25648 0.49082 0.0
C216 C 0.27063 0.28075 0.52061 0.0
C217 C 0.29808 0.30205 0.49331 0.0
C218 C 0.29462 0.29152 0.4527 0.0
C219 C 0.29186 0.25465 0.56173 0.0
C220 C 0.23989 0.30719 0.52915 0.0
H221 H 0.40552 0.39162 0.41435 0.0
H222 H 0.3482 0.32774 0.29585 0.0
H223 H 0.27437 0.34621 0.34277 0.0
H224 H 0.25576 0.30103 0.35916 0.0
H225 H 0.28067 0.30968 0.31348 0.0
H226 H 0.36513 0.26222 0.38543 0.0
H227 H 0.32801 0.25927 0.34092 0.0
H228 H 0.3213 0.24211 0.3961 0.0
H229 H 0.40362 0.40884 0.5639 0.0
H230 H 0.32644 0.35193 0.64657 0.0
H231 H 0.29862 0.31933 0.59053 0.0
H232 H 0.42469 0.3384 0.52758 0.0
H233 H 0.43699 0.38512 0.50375 0.0
H234 H 0.42419 0.3497 0.47156 0.0
H235 H 0.3413 0.42725 0.47938 0.0
H236 H 0.35781 0.41752 0.43371 0.0
H237 H 0.39096 0.43363 0.47516 0.0
H238 H 0.42663 0.40739 0.3457 0.0
C239 C 0.39244 0.37709 0.38975 0.0
Tb240 Tb 0.04443 0.95567 0.51769 0.0
C241 C 0.95792 0.11362 0.5005 0.0
N242 N 0.98838 0.09768 0.52931 0.0
C243 C 0.01988 0.15712 0.52268 0.0
C244 C 0.9574 0.15203 0.48111 0.0
C245 C 0.01892 0.11891 0.54125 0.0
C246 C 0.98906 0.17374 0.49232 0.0
C247 C 0.89475 0.10651 0.46099 0.0
C248 C 0.92708 0.09122 0.49051 0.0
C249 C 0.89412 0.14474 0.44131 0.0
C250 C 0.92539 0.16744 0.4513 0.0
Tb251 Tb 0.9844 0.03482 0.55568 0.0
N252 N 0.92935 0.05405 0.50908 0.0
C253 C 0.86415 0.08285 0.45213 0.0
C254 C 0.89902 0.03112 0.50177 0.0
C255 C 0.86619 0.04509 0.47289 0.0
H256 H 0.04242 0.10642 0.56546 0.0
H257 H 0.84244 0.02673 0.46668 0.0
H258 H 0.00679 0.87174 0.54027 0.0
H259 H 0.18016 0.01234 0.57973 0.0
H260 H 0.90005 0.00205 0.51787 0.0
H261 H 0.83875 0.0935 0.42963 0.0
H262 H 0.12165 0.01115 0.52782 0.0
H263 H 0.0443 0.17375 0.53194 0.0
H264 H 0.86959 0.15702 0.41835 0.0
H265 H 0.92448 0.19689 0.43592 0.0
H266 H 0.02254 0.81234 0.5929 0.0
H267 H 0.98985 0.20336 0.47806 0.0
H268 H 0.19777 0.95777 0.6392 0.0
N269 N 0.05667 0.8994 0.56375 0.0
C270 C 0.09 0.89661 0.59193 0.0
C271 C 0.04168 0.83589 0.59307 0.0
C272 C 0.10009 0.86339 0.62266 0.0
C273 C 0.03271 0.8696 0.56347 0.0
C274 C 0.07544 0.83279 0.62292 0.0
N275 N 0.10194 0.95975 0.56127 0.0
C276 C 0.12679 0.98879 0.55548 0.0
C277 C 0.1475 0.92642 0.62045 0.0
C278 C 0.1131 0.92796 0.59107 0.0
C279 C 0.17109 0.95779 0.6173 0.0
C280 C 0.16106 0.98879 0.58406 0.0
H281 H 0.08215 0.80675 0.64604 0.0
H282 H 0.14209 0.83683 0.67657 0.0
H283 H 0.18376 0.8919 0.67445 0.0
O284 O 0.08758 0.95325 0.48019 0.0
O285 O 0.0346 0.94903 0.58481 0.0
O286 O 0.03821 0.01003 0.59158 0.0
O287 O 0.04123 0.91489 0.47818 0.0
O288 O 0.05396 0.01553 0.49255 0.0
O289 O 0.04482 0.0409 0.55023 0.0
O290 O 0.95494 0.01556 0.60795 0.0
O291 O 0.97566 0.03583 0.48563 0.0
O292 O 0.99356 0.97791 0.4723 0.0
O293 O 0.97947 0.07043 0.59948 0.0
O294 O 0.96083 0.97767 0.56317 0.0
O295 O 0.98438 0.94086 0.51958 0.0
C296 C 0.04037 0.97432 0.60923 0.0
C297 C 0.065 0.93787 0.41335 0.0
C298 C 0.08055 0.92941 0.34413 0.0
C299 C 0.0578 0.96125 0.32352 0.0
C300 C 0.04347 0.97024 0.3922 0.0
C301 C 0.03932 0.98144 0.34748 0.0
C302 C 0.08344 0.91731 0.38917 0.0
C303 C 0.05627 0.04408 0.51262 0.0
C304 C 0.07072 0.92776 0.46079 0.0
C305 C 0.13394 0.86203 0.65251 0.0
C306 C 0.15757 0.89347 0.65143 0.0
C307 C 0.97633 0.01108 0.46041 0.0
C308 C 0.92423 0.0629 0.63261 0.0
C309 C 0.88954 0.08198 0.68574 0.0
C310 C 0.8588 0.09417 0.65232 0.0
C311 C 0.89308 0.07511 0.60015 0.0
C312 C 0.92243 0.06643 0.67543 0.0
C313 C 0.86061 0.09064 0.60999 0.0
C314 C 0.95983 0.94797 0.54449 0.0
C315 C 0.95886 0.04701 0.62209 0.0
H316 H 0.05476 0.9708 0.28883 0.0
H317 H 0.03068 0.98743 0.41036 0.0
H318 H 0.02245 0.00632 0.33148 0.0
H319 H 0.1012 0.89305 0.40549 0.0
H320 H 0.83346 0.10705 0.65871 0.0
H321 H 0.8938 0.07286 0.56717 0.0
H322 H 0.94642 0.0568 0.7006 0.0
H323 H 0.83681 0.10022 0.58462 0.0
Tb324 Tb 0.47105 0.47494 0.01045 0.0
C325 C 0.60559 0.57869 0.03068 0.0
N326 N 0.60246 0.54276 0.05208 0.0
C327 C 0.66446 0.52723 0.03861 0.0
C328 C 0.6382 0.59011 0.01159 0.0
C329 C 0.63143 0.51711 0.05671 0.0
C330 C 0.66785 0.56385 0.01589 0.0
C331 C 0.57697 0.64076 1.00347 0.0
C332 C 0.5751 0.60352 0.02636 0.0
C333 C 0.60918 0.65215 0.98389 0.0
C334 C 0.63974 0.62692 0.98801 0.0
Tb335 Tb 0.54803 0.53006 0.08161 0.0
N336 N 0.54407 0.5914 0.04529 0.0
C337 C 0.54683 0.66574 1.00186 0.0
C338 C 0.51679 0.61686 0.04756 0.0
C339 C 0.517 0.65392 0.02479 0.0
H340 H 0.62928 0.48902 0.07483 0.0
H341 H 0.4947 0.67363 0.02596 0.0
H342 H 0.39488 0.52745 0.96261 0.0
H343 H 0.48598 0.33582 0.11036 0.0
H344 H 0.49579 0.60954 0.0684 0.0
H345 H 0.54716 0.69458 0.98464 0.0
H346 H 0.50846 0.39344 0.0672 0.0
H347 H 0.6873 0.50679 0.04225 0.0
H348 H 0.61094 0.68057 0.96592 0.0
H349 H 0.6644 0.63612 0.97275 0.0
H350 H 0.32536 0.52668 0.96469 0.0
H351 H 0.69334 0.5715 1.00159 0.0
H352 H 0.41739 0.32932 0.117 0.0
N353 N 0.40621 0.47576 0.00709 0.0
C354 C 0.39115 0.44526 0.03021 0.0
C355 C 0.34359 0.50373 0.9836 0.0
C356 C 0.35161 0.44302 0.03161 0.0
C357 C 0.38302 0.5045 0.98311 0.0
C358 C 0.32782 0.47297 0.00823 0.0
N359 N 0.45365 0.42006 0.05101 0.0
C360 C 0.47867 0.39118 0.07021 0.0
C361 C 0.40135 0.38364 0.07645 0.0
C362 C 0.41559 0.41606 0.05229 0.0
C363 C 0.42715 0.35469 0.098 0.0
C364 C 0.46592 0.35834 0.09447 0.0
H365 H 0.29726 0.47237 0.00847 0.0
H366 H 0.30691 0.40877 0.05776 0.0
H367 H 0.3505 0.35676 0.09706 0.0
O368 O 0.4929 0.4405 0.97402 0.0
O369 O 0.46586 0.46746 0.07919 0.0
O370 O 0.52426 0.47997 0.11848 0.0
O371 O 0.43856 0.46894 0.9509 0.0
O372 O 0.53159 0.45684 0.0239 0.0
O373 O 0.56111 0.47044 0.08919 0.0
O374 O 0.54649 0.55924 0.13252 0.0
O375 O 0.55205 0.52676 0.01418 0.0
O376 O 0.49049 0.52935 0.97921 0.0
O377 O 0.59723 0.52988 0.12769 0.0
O378 O 0.48687 0.54256 0.07807 0.0
O379 O 0.45888 0.53398 0.01033 0.0
C380 C 0.48976 0.46538 0.11562 0.0
C381 C 0.47549 0.45899 0.89874 0.0
C382 C 0.46626 0.4524 0.82323 0.0
C383 C 0.49652 0.47731 0.81628 0.0
C384 C 0.50613 0.48305 0.89141 0.0
C385 C 0.51625 0.49255 0.85023 0.0
C386 C 0.45562 0.44382 0.86464 0.0
C387 C 0.55728 0.4497 0.05924 0.0
C388 C 0.46472 0.44828 0.94199 0.0
C389 C 0.3372 0.41098 0.05609 0.0
C390 C 0.36201 0.38133 0.07842 0.0
C391 C 0.5264 0.53903 0.9801 0.0
C392 C 0.58556 0.53139 0.19771 0.0
C393 C 0.59467 0.54054 0.27254 0.0
C394 C 0.60091 0.50141 0.28645 0.0
C395 C 0.59157 0.49254 0.21244 0.0
C396 C 0.58629 0.55506 0.22773 0.0
C397 C 0.59883 0.47768 0.2566 0.0
C398 C 0.45873 0.54852 0.04506 0.0
C399 C 0.58075 0.54793 0.15129 0.0
H400 H 0.50565 0.4842 0.78493 0.0
H401 H 0.52257 0.49392 0.91763 0.0
H402 H 0.53988 0.51123 0.84482 0.0
H403 H 0.43202 0.42514 0.8705 0.0
H404 H 0.60848 0.48896 0.32034 0.0
H405 H 0.59136 0.47378 0.18983 0.0
H406 H 0.58078 0.58486 0.21582 0.0
H407 H 0.60382 0.44773 0.26774 0.0
H408 H 0.15176 0.17627 0.42181 0.0
H409 H 0.21136 0.16294 0.55293 0.0
H410 H 0.16697 0.11493 0.57702 0.0
H411 H 0.11171 0.07572 0.56162 0.0
H412 H 0.05606 0.08245 0.43035 0.0
H413 H 0.09838 0.13365 0.40558 0.0
C414 C 0.15535 0.16265 0.45556 0.0
C415 C 0.18457 0.17426 0.48548 0.0
C416 C 0.13026 0.13382 0.46932 0.0
C417 C 0.1885 0.15593 0.52915 0.0
C418 C 0.16325 0.12806 0.54309 0.0
C419 C 0.1087 0.08868 0.52764 0.0
C420 C 0.08068 0.07583 0.49784 0.0
C421 C 0.13393 0.11694 0.51359 0.0
C422 C 0.07749 0.09213 0.4538 0.0
C423 C 0.10168 0.1213 0.4397 0.0
H424 H 0.3535 0.67863 0.07017 0.0
H425 H 0.31259 0.67827 0.93524 0.0
H426 H 0.35607 0.62671 0.93762 0.0
H427 H 0.40905 0.58504 0.97616 0.0
H428 H 0.44186 0.57664 0.11362 0.0
H429 H 0.39796 0.62846 0.1119 0.0
C430 C 0.35319 0.66693 0.0414 0.0
C431 C 0.33047 0.68379 1.00216 0.0
C432 C 0.37704 0.63576 0.04328 0.0
C433 C 0.33094 0.66759 0.9655 0.0
C434 C 0.35553 0.63759 0.96683 0.0
C435 C 0.4056 0.59327 0.00613 0.0
C436 C 0.42872 0.5767 0.04491 0.0
C437 C 0.37923 0.62197 0.0053 0.0
C438 C 0.42462 0.58903 0.08315 0.0
C439 C 0.3995 0.61868 0.08223 0.0
H440 H 0.84798 0.81085 0.56943 0.0
H441 H 0.81316 0.87082 0.66175 0.0
H442 H 0.86022 0.91908 0.64483 0.0
H443 H 0.9105 0.9449 0.60294 0.0
H444 H 0.94129 0.88699 0.50673 0.0
H445 H 0.89567 0.83798 0.52534 0.0
C446 C 0.85007 0.83469 0.58552 0.0
C447 C 0.82667 0.83695 0.61684 0.0
C448 C 0.8764 0.86297 0.57474 0.0
C449 C 0.83098 0.86776 0.63802 0.0
C450 C 0.85769 0.89568 0.62802 0.0
C451 C 0.90718 0.92171 0.58579 0.0
C452 C 0.92995 0.91957 0.55383 0.0
C453 C 0.88042 0.89367 0.59628 0.0
C454 C 0.92485 0.88924 0.53198 0.0
C455 C 0.89862 0.86114 0.54252 0.0
H456 H 0.68947 0.32725 0.10464 0.0
H457 H 0.63102 0.29589 0.98774 0.0
H458 H 0.58532 0.34782 0.97833 0.0
H459 H 0.56094 0.4009 0.00453 0.0
H460 H 0.61667 0.42796 0.12504 0.0
H461 H 0.6638 0.37805 0.13226 0.0
C462 C 0.66641 0.33118 0.07741 0.0
C463 C 0.66372 0.3073 0.04716 0.0
C464 C 0.63955 0.36024 0.07293 0.0
C465 C 0.63423 0.31394 0.01136 0.0
C466 C 0.60782 0.34346 0.00614 0.0
C467 C 0.58334 0.39595 0.03242 0.0
C468 C 0.58534 0.4186 0.06392 0.0
C469 C 0.61008 0.36664 0.0369 0.0
C470 C 0.61447 0.41135 0.10001 0.0
C471 C 0.64151 0.38274 0.10425 0.0
H472 H 0.15014 0.83163 0.23047 0.0
H473 H 0.19225 0.94058 0.17867 0.0
H474 H 0.16602 0.96802 0.23199 0.0
H475 H 0.12678 0.96235 0.28913 0.0
H476 H 0.08369 0.85432 0.34172 0.0
H477 H 0.11516 0.82495 0.29293 0.0
C478 C 0.15413 0.86119 0.2315 0.0
C479 C 0.17262 0.88418 0.20035 0.0
C480 C 0.13859 0.87695 0.26213 0.0
C481 C 0.17754 0.92248 0.20187 0.0
C482 C 0.16261 0.93819 0.23235 0.0
C483 C 0.12445 0.93233 0.28999 0.0
C484 C 0.10258 0.91055 0.31835 0.0
C485 C 0.14228 0.91592 0.26184 0.0
C486 C 0.10036 0.87159 0.31996 0.0
C487 C 0.11819 0.85489 0.29198 0.0
H488 H 0.5488 0.63966 0.80092 0.0
H489 H 0.66597 0.60383 0.84723 0.0
H490 H 0.6478 0.56881 0.91457 0.0
H491 H 0.59751 0.54427 0.95724 0.0
H492 H 0.48119 0.58404 0.91334 0.0
H493 H 0.49971 0.62036 0.84713 0.0
C494 C 0.57037 0.62453 0.82605 0.0
C495 C 0.60862 0.62415 0.81918 0.0
C496 C 0.55971 0.60462 0.8646 0.0
C497 C 0.63641 0.60471 0.85199 0.0
C498 C 0.62596 0.58444 0.89026 0.0
C499 C 0.57649 0.56192 0.93394 0.0
C500 C 0.53821 0.56204 0.94075 0.0
C501 C 0.58758 0.58369 0.89658 0.0
C502 C 0.5109 0.58353 0.90905 0.0
C503 C 0.52149 0.60445 0.87125 0.0
H504 H 0.9047 0.02924 0.26308 0.0
H505 H 0.91116 0.14642 0.27211 0.0
H506 H 0.93757 0.12942 0.34879 0.0
H507 H 0.95928 0.08138 0.41314 0.0
H508 H 0.95196 0.96396 0.40485 0.0
H509 H 0.92574 0.9809 0.32818 0.0
C510 C 0.91235 0.05097 0.28179 0.0
C511 C 0.90606 0.08898 0.26198 0.0
C512 C 0.92717 0.04098 0.32607 0.0
C513 C 0.91558 0.11692 0.28673 0.0
C514 C 0.93066 0.10725 0.33056 0.0
C515 C 0.95138 0.05946 0.39479 0.0
C516 C 0.95746 0.02147 0.41485 0.0
C517 C 0.93637 0.06937 0.35064 0.0
C518 C 0.94764 0.99347 0.39026 0.0
C519 C 0.9327 0.00311 0.34633 0.0
H520 H 0.38744 0.35162 0.69473 0.0
H521 H 0.38758 0.4566 0.60391 0.0
H522 H 0.41801 0.48749 0.66185 0.0
H523 H 0.4443 0.48464 0.73844 0.0
H524 H 0.44478 0.37918 0.82873 0.0
H525 H 0.41346 0.3488 0.77104 0.0
C526 C 0.39373 0.38136 0.6877 0.0
C527 C 0.38519 0.40179 0.64511 0.0
C528 C 0.41114 0.39891 0.7211 0.0
C529 C 0.3942 0.44015 0.63637 0.0
C530 C 0.41143 0.45787 0.6695 0.0
C531 C 0.43778 0.45495 0.74543 0.0
C532 C 0.44675 0.43431 0.78791 0.0
C533 C 0.42012 0.43749 0.71198 0.0
C534 C 0.43764 0.39594 0.79649 0.0
C535 C 0.41997 0.37844 0.76346 0.0
H536 H 0.63072 0.66388 0.38802 0.0
H537 H 0.60301 0.57156 0.48569 0.0
H538 H 0.58435 0.53412 0.43075 0.0
H539 H 0.57997 0.52565 0.35607 0.0
H540 H 0.61969 0.61369 0.26172 0.0
H541 H 0.62938 0.65433 0.31434 0.0
C542 C 0.62122 0.6354 0.39776 0.0
C543 C 0.61861 0.62093 0.44146 0.0
C544 C 0.61259 0.61298 0.3664 0.0
C545 C 0.60479 0.5842 0.4525 0.0
C546 C 0.59449 0.56238 0.42106 0.0
C547 C 0.59129 0.55347 0.34688 0.0
C548 C 0.59893 0.56615 0.30448 0.0
C549 C 0.59899 0.57622 0.37806 0.0
C550 C 0.61252 0.60297 0.29347 0.0
C551 C 0.61861 0.6263 0.32383 0.0
H552 H 0.89695 0.12599 0.86969 0.0
H553 H 0.77876 0.09418 0.84825 0.0
H554 H 0.78796 0.07381 0.78199 0.0
H555 H 0.82798 0.06943 0.7275 0.0
H556 H 0.9453 0.10475 0.7453 0.0
H557 H 0.93846 0.11843 0.81586 0.0
C558 C 0.87351 0.11402 0.85074 0.0
C559 C 0.8372 0.11165 0.86362 0.0
C560 C 0.87882 0.10315 0.81194 0.0
C561 C 0.80688 0.09641 0.83874 0.0
C562 C 0.81212 0.08483 0.80087 0.0
C563 C 0.85211 0.08019 0.74671 0.0
C564 C 0.88696 0.08647 0.73071 0.0
C565 C 0.84769 0.08887 0.78664 0.0
C566 C 0.91816 0.09946 0.75675 0.0
C567 C 0.91418 0.10758 0.79702 0.0
H568 H 0.46242 0.37909 0.29985 0.0
H569 H 0.3455 0.38629 0.23525 0.0
H570 H 0.36643 0.41591 0.16724 0.0
H571 H 0.41721 0.44539 0.12841 0.0
H572 H 0.53428 0.43675 0.19287 0.0
H573 H 0.51381 0.40354 0.25929 0.0
C574 C 0.44152 0.38694 0.2708 0.0
C575 C 0.4024 0.38086 0.27273 0.0
C576 C 0.45368 0.40453 0.23215 0.0
C577 C 0.37576 0.39048 0.23463 0.0
C578 C 0.38769 0.40779 0.19587 0.0
C579 C 0.43842 0.43563 0.15665 0.0
C580 C 0.47733 0.44392 0.15554 0.0
C581 C 0.42648 0.41578 0.19454 0.0
C582 C 0.50415 0.43155 0.19289 0.0
C583 C 0.49248 0.41218 0.23083 0.0
H584 H 0.11066 0.89368 0.79729 0.0
H585 H 0.14114 0.00734 0.80838 0.0
H586 H 0.10883 0.03039 0.73418 0.0
H587 H 0.07404 0.01738 0.66543 0.0
H588 H 0.04136 0.90347 0.65688 0.0
H589 H 0.07279 0.88122 0.73078 0.0
C590 C 0.11028 0.92349 0.78332 0.0
C591 C 0.12853 0.94881 0.80774 0.0
C592 C 0.09148 0.93637 0.74117 0.0
C593 C 0.12726 0.98743 0.7899 0.0
C594 C 0.10891 1.00052 0.74758 0.0
C595 C 0.07352 0.98776 0.6799 0.0
C596 C 0.05617 0.96198 0.65536 0.0
C597 C 0.09116 0.97517 0.72281 0.0
C598 C 0.05536 0.92376 0.6747 0.0
C599 C 0.07315 0.911 0.71705 0.0
loop_
_geom_bond_atom_site_label_1
_geom_bond_atom_site_label_2
_geom_bond_distance
_geom_bond_site_symmetry_2
_ccdc_geom_bond_type
C0 C1 1.391 . S
C0 C4 1.391 . S
C0 H42 0.948 . S
C1 C0 1.391 . S
C1 C2 1.391 . S
C2 C1 1.391 . S
C2 H58 0.947 . S
C2 C59 1.392 . S
C3 C4 1.391 . S
C3 C7 1.397 . S
C3 C59 1.419 . S
C4 C0 1.391 . S
C4 C3 1.391 . S
C4 C5 1.399 . S
C5 C4 1.399 . S
C5 C8 1.396 . S
C5 C17 1.453 . S
C5 C18 1.684 . S
H6 C30 0.948 . S
C7 C3 1.397 . S
C7 C8 1.394 . S
C7 C26 1.723 1_556 S
C8 C5 1.396 . S
C8 C7 1.394 . S
C8 C38 1.723 1_556 S
H9 C32 0.947 . S
H10 C33 0.948 . S
H11 C39 0.982 . S
H12 C40 0.979 . S
H13 C40 0.980 . S
H14 C40 0.983 . S
H15 C39 0.979 . S
H16 C39 0.977 . S
C17 C5 1.453 . S
C17 H46 0.982 . S
C17 H47 0.979 . S
C17 H48 0.977 . S
C18 C5 1.684 . S
C18 H43 0.979 . S
C18 H44 0.980 . S
C18 H45 0.983 . S
C19 C20 1.391 . S
C19 C24 1.391 . S
C19 H49 0.948 . S
C20 C19 1.391 . S
C20 C21 1.391 . S
C21 C20 1.391 . S
C21 C22 1.392 . S
C21 H50 0.947 . S
C22 C21 1.392 . S
C22 C23 1.419 . S
C22 H51 0.948 . S
C23 C22 1.419 . S
C23 C24 1.391 . S
C23 C27 1.397 . S
C24 C19 1.391 . S
C24 C23 1.391 . S
C24 C25 1.399 . S
C25 C24 1.399 . S
C25 C26 1.396 . S
C25 C28 1.453 . S
C25 C29 1.684 . S
C26 C7 1.723 1_554 S
C26 C25 1.396 . S
C26 C27 1.394 . S
C27 C23 1.397 . S
C27 C26 1.394 . S
C27 C37 1.723 . S
C28 C25 1.453 . S
C28 H52 0.982 . S
C28 H53 0.979 . S
C28 H54 0.977 1_554 S
C29 C25 1.684 . S
C29 H55 0.979 . S
C29 H56 0.980 1_554 S
C29 H57 0.983 . S
C30 H6 0.948 . S
C30 C31 1.391 . S
C30 C35 1.391 . S
C31 C30 1.391 . S
C31 C32 1.391 1_554 S
C32 H9 0.947 . S
C32 C31 1.391 1_556 S
C32 C33 1.392 . S
C33 H10 0.948 . S
C33 C32 1.392 . S
C33 C34 1.419 1_556 S
C34 C33 1.419 1_554 S
C34 C35 1.391 . S
C34 C38 1.397 . S
C35 C30 1.391 . S
C35 C34 1.391 . S
C35 C36 1.399 . S
C36 C35 1.399 . S
C36 C37 1.396 . S
C36 C39 1.453 . S
C36 C40 1.684 . S
C37 C27 1.723 . S
C37 C36 1.396 . S
C37 C38 1.394 . S
C38 C8 1.723 1_554 S
C38 C34 1.397 . S
C38 C37 1.394 . S
C39 H11 0.982 . S
C39 H15 0.979 . S
C39 H16 0.977 . S
C39 C36 1.453 . S
C40 H12 0.979 . S
C40 H13 0.980 . S
C40 H14 0.983 . S
C40 C36 1.684 . S
H41 C59 0.948 . S
H42 C0 0.948 . S
H43 C18 0.979 . S
H44 C18 0.980 . S
H45 C18 0.983 . S
H46 C17 0.982 . S
H47 C17 0.979 . S
H48 C17 0.977 . S
H49 C19 0.948 . S
H50 C21 0.947 . S
H51 C22 0.948 . S
H52 C28 0.982 . S
H53 C28 0.979 . S
H54 C28 0.977 1_556 S
H55 C29 0.979 . S
H56 C29 0.980 1_556 S
H57 C29 0.983 . S
H58 C2 0.947 . S
C59 C2 1.392 . S
C59 C3 1.419 . S
C59 H41 0.948 . S
C60 C61 1.391 . S
C60 C64 1.391 . S
C60 H102 0.948 . S
C61 C60 1.391 . S
C61 C62 1.391 . S
C62 C61 1.391 . S
C62 H118 0.947 . S
C62 C119 1.392 . S
C63 C64 1.391 . S
C63 C67 1.397 . S
C63 C119 1.419 . S
C64 C60 1.391 . S
C64 C63 1.391 . S
C64 C65 1.399 . S
C65 C64 1.399 . S
C65 C68 1.396 . S
C65 C77 1.453 . S
C65 C78 1.684 . S
H66 C90 0.948 . S
C67 C63 1.397 . S
C67 C68 1.394 . S
C67 C86 1.723 . S
C68 C65 1.396 . S
C68 C67 1.394 . S
C68 C98 1.723 . S
H69 C92 0.947 . S
H70 C93 0.948 . S
H71 C99 0.982 . S
H72 C100 0.979 . S
H73 C100 0.980 . S
H74 C100 0.983 . S
H75 C99 0.979 . S
H76 C99 0.977 . S
C77 C65 1.453 . S
C77 H106 0.982 . S
C77 H107 0.979 . S
C77 H108 0.977 . S
C78 C65 1.684 . S
C78 H103 0.979 . S
C78 H104 0.980 . S
C78 H105 0.983 . S
C79 C80 1.391 . S
C79 C84 1.391 . S
C79 H109 0.948 . S
C80 C79 1.391 . S
C80 C81 1.391 . S
C81 C80 1.391 . S
C81 C82 1.392 . S
C81 H110 0.947 . S
C82 C81 1.392 . S
C82 C83 1.419 . S
C82 H111 0.948 . S
C83 C82 1.419 . S
C83 C84 1.391 . S
C83 C87 1.397 . S
C84 C79 1.391 . S
C84 C83 1.391 . S
C84 C85 1.399 . S
C85 C84 1.399 . S
C85 C86 1.396 . S
C85 C88 1.453 . S
C85 C89 1.684 . S
C86 C67 1.723 . S
C86 C85 1.396 . S
C86 C87 1.394 . S
C87 C83 1.397 . S
C87 C86 1.394 . S
C87 C97 1.723 . S
C88 C85 1.453 . S
C88 H112 0.982 . S
C88 H113 0.979 . S
C88 H114 0.977 . S
C89 C85 1.684 . S
C89 H115 0.979 . S
C89 H116 0.980 . S
C89 H117 0.983 . S
C90 H66 0.948 . S
C90 C91 1.391 . S
C90 C95 1.391 . S
C91 C90 1.391 . S
C91 C92 1.391 . S
C92 H69 0.947 . S
C92 C91 1.391 . S
C92 C93 1.392 . S
C93 H70 0.948 . S
C93 C92 1.392 . S
C93 C94 1.419 . S
C94 C93 1.419 . S
C94 C95 1.391 . S
C94 C98 1.397 . S
C95 C90 1.391 . S
C95 C94 1.391 . S
C95 C96 1.399 . S
C96 C95 1.399 . S
C96 C97 1.396 . S
C96 C99 1.453 . S
C96 C100 1.684 . S
C97 C87 1.723 . S
C97 C96 1.396 . S
C97 C98 1.394 . S
C98 C68 1.723 . S
C98 C94 1.397 . S
C98 C97 1.394 . S
C99 H71 0.982 . S
C99 H75 0.979 . S
C99 H76 0.977 . S
C99 C96 1.453 . S
C100 H72 0.979 . S
C100 H73 0.980 . S
C100 H74 0.983 . S
C100 C96 1.684 . S
H101 C119 0.948 . S
H102 C60 0.948 . S
H103 C78 0.979 . S
H104 C78 0.980 . S
H105 C78 0.983 . S
H106 C77 0.982 . S
H107 C77 0.979 . S
H108 C77 0.977 . S
H109 C79 0.948 . S
H110 C81 0.947 . S
H111 C82 0.948 . S
H112 C88 0.982 . S
H113 C88 0.979 . S
H114 C88 0.977 . S
H115 C89 0.979 . S
H116 C89 0.980 . S
H117 C89 0.983 . S
H118 C62 0.947 . S
C119 C62 1.392 . S
C119 C63 1.419 . S
C119 H101 0.948 . S
C120 C121 1.391 . S
C120 C124 1.391 . S
C120 H162 0.948 . S
C121 C120 1.391 . S
C121 C122 1.391 . S
C122 C121 1.391 . S
C122 H178 0.947 . S
C122 C179 1.392 . S
C123 C124 1.391 . S
C123 C127 1.397 . S
C123 C179 1.419 . S
C124 C120 1.391 . S
C124 C123 1.391 . S
C124 C125 1.399 . S
C125 C124 1.399 . S
C125 C128 1.396 . S
C125 C137 1.453 . S
C125 C138 1.684 . S
H126 C150 0.948 1_556 S
C127 C123 1.397 . S
C127 C128 1.394 . S
C127 C146 1.723 . S
C128 C125 1.396 . S
C128 C127 1.394 . S
C128 C158 1.723 . S
H129 C152 0.947 . S
H130 C153 0.948 . S
H131 C159 0.982 . S
H132 C160 0.979 . S
H133 C160 0.980 . S
H134 C160 0.983 . S
H135 C159 0.979 . S
H136 C159 0.977 . S
C137 C125 1.453 . S
C137 H166 0.982 . S
C137 H167 0.979 . S
C137 H168 0.977 . S
C138 C125 1.684 . S
C138 H163 0.979 . S
C138 H164 0.980 . S
C138 H165 0.983 . S
C139 C140 1.391 . S
C139 C144 1.391 . S
C139 H169 0.948 . S
C140 C139 1.391 . S
C140 C141 1.391 . S
C141 C140 1.391 . S
C141 C142 1.392 . S
C141 H170 0.947 . S
C142 C141 1.392 . S
C142 C143 1.419 . S
C142 H171 0.948 . S
C143 C142 1.419 . S
C143 C144 1.391 . S
C143 C147 1.397 1_556 S
C144 C139 1.391 . S
C144 C143 1.391 . S
C144 C145 1.399 1_556 S
C145 C144 1.399 1_554 S
C145 C146 1.396 . S
C145 C148 1.453 . S
C145 C149 1.684 . S
C146 C127 1.723 . S
C146 C145 1.396 . S
C146 C147 1.394 . S
C147 C143 1.397 1_554 S
C147 C146 1.394 . S
C147 C157 1.723 . S
C148 C145 1.453 . S
C148 H172 0.982 . S
C148 H173 0.979 . S
C148 H174 0.977 . S
C149 C145 1.684 . S
C149 H175 0.979 . S
C149 H176 0.980 . S
C149 H177 0.983 . S
C150 H126 0.948 1_554 S
C150 C151 1.391 . S
C150 C155 1.391 . S
C151 C150 1.391 . S
C151 C152 1.391 . S
C152 H129 0.947 . S
C152 C151 1.391 . S
C152 C153 1.392 . S
C153 H130 0.948 . S
C153 C152 1.392 . S
C153 C154 1.419 . S
C154 C153 1.419 . S
C154 C155 1.391 . S
C154 C158 1.397 . S
C155 C150 1.391 . S
C155 C154 1.391 . S
C155 C156 1.399 1_554 S
C156 C155 1.399 1_556 S
C156 C157 1.396 1_556 S
C156 C159 1.453 . S
C156 C160 1.684 . S
C157 C147 1.723 . S
C157 C156 1.396 1_554 S
C157 C158 1.394 . S
C158 C128 1.723 . S
C158 C154 1.397 . S
C158 C157 1.394 . S
C159 H131 0.982 . S
C159 H135 0.979 . S
C159 H136 0.977 . S
C159 C156 1.453 . S
C160 H132 0.979 . S
C160 H133 0.980 . S
C160 H134 0.983 . S
C160 C156 1.684 . S
H161 C179 0.948 . S
H162 C120 0.948 . S
H163 C138 0.979 . S
H164 C138 0.980 . S
H165 C138 0.983 . S
H166 C137 0.982 . S
H167 C137 0.979 . S
H168 C137 0.977 . S
H169 C139 0.948 . S
H170 C141 0.947 . S
H171 C142 0.948 . S
H172 C148 0.982 . S
H173 C148 0.979 . S
H174 C148 0.977 . S
H175 C149 0.979 . S
H176 C149 0.980 . S
H177 C149 0.983 . S
H178 C122 0.947 . S
C179 C122 1.392 . S
C179 C123 1.419 . S
C179 H161 0.948 . S
C180 C181 1.391 . S
C180 C184 1.391 . S
C180 H222 0.948 . S
C181 C180 1.391 . S
C181 C182 1.391 . S
C182 C181 1.391 . S
C182 H238 0.947 . S
C182 C239 1.392 . S
C183 C184 1.391 . S
C183 C187 1.397 . S
C183 C239 1.419 . S
C184 C180 1.391 . S
C184 C183 1.391 . S
C184 C185 1.399 . S
C185 C184 1.399 . S
C185 C188 1.396 . S
C185 C197 1.453 . S
C185 C198 1.684 . S
H186 C210 0.948 . S
C187 C183 1.397 . S
C187 C188 1.394 . S
C187 C206 1.723 . S
C188 C185 1.396 . S
C188 C187 1.394 . S
C188 C218 1.723 . S
H189 C212 0.947 . S
H190 C213 0.948 . S
H191 C219 0.982 . S
H192 C220 0.979 . S
H193 C220 0.980 . S
H194 C220 0.983 . S
H195 C219 0.979 . S
H196 C219 0.977 . S
C197 C185 1.453 . S
C197 H226 0.982 . S
C197 H227 0.979 . S
C197 H228 0.977 . S
C198 C185 1.684 . S
C198 H223 0.979 . S
C198 H224 0.980 . S
C198 H225 0.983 . S
C199 C200 1.391 . S
C199 C204 1.391 . S
C199 H229 0.948 . S
C200 C199 1.391 . S
C200 C201 1.391 . S
C201 C200 1.391 . S
C201 C202 1.392 . S
C201 H230 0.947 . S
C202 C201 1.392 . S
C202 C203 1.419 . S
C202 H231 0.948 . S
C203 C202 1.419 . S
C203 C204 1.391 . S
C203 C207 1.397 . S
C204 C199 1.391 . S
C204 C203 1.391 . S
C204 C205 1.399 . S
C205 C204 1.399 . S
C205 C206 1.396 . S
C205 C208 1.453 . S
C205 C209 1.684 . S
C206 C187 1.723 . S
C206 C205 1.396 . S
C206 C207 1.394 . S
C207 C203 1.397 . S
C207 C206 1.394 . S
C207 C217 1.723 . S
C208 C205 1.453 . S
C208 H232 0.982 . S
C208 H233 0.979 . S
C208 H234 0.977 . S
C209 C205 1.684 . S
C209 H235 0.979 . S
C209 H236 0.980 . S
C209 H237 0.983 . S
C210 H186 0.948 . S
C210 C211 1.391 . S
C210 C215 1.391 . S
C211 C210 1.391 . S
C211 C212 1.391 . S
C212 H189 0.947 . S
C212 C211 1.391 . S
C212 C213 1.392 . S
C213 H190 0.948 . S
C213 C212 1.392 . S
C213 C214 1.419 . S
C214 C213 1.419 . S
C214 C215 1.391 . S
C214 C218 1.397 . S
C215 C210 1.391 . S
C215 C214 1.391 . S
C215 C216 1.399 . S
C216 C215 1.399 . S
C216 C217 1.396 . S
C216 C219 1.453 . S
C216 C220 1.684 . S
C217 C207 1.723 . S
C217 C216 1.396 . S
C217 C218 1.394 . S
C218 C188 1.723 . S
C218 C214 1.397 . S
C218 C217 1.394 . S
C219 H191 0.982 . S
C219 H195 0.979 . S
C219 H196 0.977 . S
C219 C216 1.453 . S
C220 H192 0.979 . S
C220 H193 0.980 . S
C220 H194 0.983 . S
C220 C216 1.684 . S
H221 C239 0.948 . S
H222 C180 0.948 . S
H223 C198 0.979 . S
H224 C198 0.980 . S
H225 C198 0.983 . S
H226 C197 0.982 . S
H227 C197 0.979 . S
H228 C197 0.977 . S
H229 C199 0.948 . S
H230 C201 0.947 . S
H231 C202 0.948 . S
H232 C208 0.982 . S
H233 C208 0.979 . S
H234 C208 0.977 . S
H235 C209 0.979 . S
H236 C209 0.980 . S
H237 C209 0.983 . S
H238 C182 0.947 . S
C239 C182 1.392 . S
C239 C183 1.419 . S
C239 H221 0.948 . S
Tb240 N269 2.617 . S
Tb240 N275 2.572 . S
Tb240 O284 2.465 . S
Tb240 O285 2.387 . S
Tb240 O287 2.428 . S
Tb240 O288 2.308 1_565 S
Tb240 O292 2.356 1_455 S
Tb240 O295 2.393 1_455 S
Tb240 C304 2.802 . S
C241 N242 1.379 . S
C241 C244 1.416 . S
C241 C248 1.424 . S
N242 C241 1.379 . S
N242 C245 1.333 1_655 S
N242 Tb251 2.617 . S
C243 C245 1.390 1_655 S
C243 C246 1.339 . S
C243 H263 0.930 1_655 S
C244 C241 1.416 . S
C244 C246 1.416 . S
C244 C250 1.448 . S
C245 N242 1.333 1_455 S
C245 C243 1.390 1_455 S
C245 H256 0.931 . S
C246 C243 1.339 . S
C246 C244 1.416 . S
C246 H267 0.930 . S
C247 C248 1.413 . S
C247 C249 1.427 . S
C247 C253 1.416 . S
C248 C241 1.424 . S
C248 C247 1.413 . S
C248 N252 1.361 . S
C249 C247 1.427 . S
C249 C250 1.328 . S
C249 H264 0.929 . S
C250 C244 1.448 . S
C250 C249 1.328 . S
C250 H265 0.930 . S
Tb251 N242 2.617 . S
Tb251 N252 2.572 . S
Tb251 O286 2.349 1_655 S
Tb251 O289 2.393 1_655 S
Tb251 O290 2.465 . S
Tb251 O291 2.387 . S
Tb251 O293 2.428 . S
Tb251 O294 2.308 1_545 S
Tb251 C315 2.802 . S
N252 C248 1.361 . S
N252 Tb251 2.572 . S
N252 C254 1.340 . S
C253 C247 1.416 . S
C253 C255 1.332 . S
C253 H261 0.931 . S
C254 N252 1.340 . S
C254 C255 1.407 . S
C254 H260 0.930 . S
C255 C253 1.332 . S
C255 C254 1.407 . S
C255 H257 0.929 . S
H256 C245 0.931 . S
H257 C255 0.929 . S
H258 C273 0.930 1_655 S
H259 C280 0.929 . S
H260 C254 0.930 . S
H261 C253 0.931 . S
H262 C276 0.930 . S
H263 C243 0.930 1_455 S
H264 C249 0.929 . S
H265 C250 0.930 . S
H266 C271 0.930 1_655 S
H267 C246 0.930 . S
H268 C279 0.931 . S
N269 Tb240 2.617 . S
N269 C270 1.379 . S
N269 C273 1.334 . S
C270 N269 1.379 . S
C270 C272 1.416 . S
C270 C278 1.424 . S
C271 H266 0.930 1_455 S
C271 C273 1.390 . S
C271 C274 1.339 . S
C272 C270 1.416 . S
C272 C274 1.416 . S
C272 C305 1.448 . S
C273 H258 0.930 1_455 S
C273 N269 1.334 . S
C273 C271 1.390 . S
C274 C271 1.339 . S
C274 C272 1.416 . S
C274 H281 0.930 . S
N275 Tb240 2.572 . S
N275 C276 1.340 . S
N275 C278 1.361 . S
C276 H262 0.930 . S
C276 N275 1.340 . S
C276 C280 1.407 . S
C277 C278 1.413 . S
C277 C279 1.416 . S
C277 C306 1.427 . S
C278 C270 1.424 . S
C278 N275 1.361 . S
C278 C277 1.413 . S
C279 H268 0.931 . S
C279 C277 1.416 . S
C279 C280 1.332 . S
C280 H259 0.929 . S
C280 C276 1.407 . S
C280 C279 1.332 . S
H281 C274 0.930 . S
H282 C305 0.930 . S
H283 C306 0.929 . S
O284 Tb240 2.465 . S
O284 C304 1.264 . S
O285 Tb240 2.387 . S
O285 C296 1.264 . S
O286 Tb251 2.349 1_455 S
O286 C296 1.243 1_545 S
O287 Tb240 2.428 . S
O287 C304 1.256 . S
O288 Tb240 2.308 1_545 S
O288 C303 1.266 . S
O289 Tb251 2.393 1_455 S
O289 C303 1.248 . S
O290 Tb251 2.465 . S
O290 C315 1.264 . S
O291 Tb251 2.387 . S
O291 C307 1.264 . S
O292 Tb240 2.356 1_655 S
O292 C307 1.232 1_565 S
O293 Tb251 2.428 . S
O293 C315 1.256 . S
O294 Tb251 2.308 1_565 S
O294 C314 1.266 . S
O295 Tb240 2.393 1_655 S
O295 C314 1.248 . S
C296 O285 1.264 . S
C296 O286 1.243 1_565 S
C297 C300 1.399 . S
C297 C302 1.383 . S
C297 C304 1.496 . S
C298 C299 1.399 . S
C298 C302 1.389 . S
C299 C298 1.399 . S
C299 C301 1.380 . S
C299 H316 0.929 . S
C300 C297 1.399 . S
C300 C301 1.392 . S
C300 H317 0.929 . S
C301 C299 1.380 . S
C301 C300 1.392 . S
C301 H318 0.929 . S
C302 C297 1.383 . S
C302 C298 1.389 . S
C302 H319 0.931 . S
C303 O288 1.266 . S
C303 O289 1.248 . S
C304 Tb240 2.802 . S
C304 O284 1.264 . S
C304 O287 1.256 . S
C304 C297 1.496 . S
C305 C272 1.448 . S
C305 H282 0.930 . S
C305 C306 1.328 . S
C306 C277 1.427 . S
C306 H283 0.929 . S
C306 C305 1.328 . S
C307 O291 1.264 . S
C307 O292 1.232 1_545 S
C308 C311 1.399 . S
C308 C312 1.383 . S
C308 C315 1.496 . S
C309 C310 1.399 . S
C309 C312 1.389 . S
C310 C309 1.399 . S
C310 C313 1.380 . S
C310 H320 0.929 . S
C311 C308 1.399 . S
C311 C313 1.392 . S
C311 H321 0.929 . S
C312 C308 1.383 . S
C312 C309 1.389 . S
C312 H322 0.931 . S
C313 C310 1.380 . S
C313 C311 1.392 . S
C313 H323 0.929 . S
C314 O294 1.266 . S
C314 O295 1.248 . S
C315 Tb251 2.802 . S
C315 O290 1.264 . S
C315 O293 1.256 . S
C315 C308 1.496 . S
H316 C299 0.929 . S
H317 C300 0.929 . S
H318 C301 0.929 . S
H319 C302 0.931 . S
H320 C310 0.929 . S
H321 C311 0.929 . S
H322 C312 0.931 . S
H323 C313 0.929 . S
Tb324 N353 2.617 . S
Tb324 N359 2.572 1_556 S
Tb324 O368 2.465 . S
Tb324 O369 2.387 1_556 S
Tb324 O371 2.428 . S
Tb324 O372 2.308 1_556 S
Tb324 O376 2.349 . S
Tb324 O379 2.393 1_556 S
Tb324 C388 2.802 . S
C325 N326 1.379 . S
C325 C328 1.416 . S
C325 C332 1.424 . S
N326 C325 1.379 . S
N326 C329 1.334 . S
N326 Tb335 2.617 . S
C327 C329 1.390 . S
C327 C330 1.339 . S
C327 H347 0.930 . S
C328 C325 1.416 . S
C328 C330 1.416 . S
C328 C334 1.448 . S
C329 N326 1.334 . S
C329 C327 1.390 . S
C329 H340 0.930 . S
C330 C327 1.339 . S
C330 C328 1.416 . S
C330 H351 0.930 . S
C331 C332 1.413 . S
C331 C333 1.427 . S
C331 C337 1.416 . S
C332 C325 1.424 . S
C332 C331 1.413 . S
C332 N336 1.361 . S
C333 C331 1.427 . S
C333 C334 1.328 . S
C333 H348 0.929 . S
C334 C328 1.448 . S
C334 C333 1.328 . S
C334 H349 0.930 . S
Tb335 N326 2.617 . S
Tb335 N336 2.572 . S
Tb335 O370 2.349 . S
Tb335 O373 2.393 . S
Tb335 O374 2.465 . S
Tb335 O375 2.374 1_554 S
Tb335 O377 2.428 . S
Tb335 O378 2.308 . S
Tb335 C399 2.802 . S
N336 C332 1.361 . S
N336 Tb335 2.572 . S
N336 C338 1.340 . S
C337 C331 1.416 . S
C337 C339 1.332 . S
C337 H345 0.931 . S
C338 N336 1.340 . S
C338 C339 1.407 . S
C338 H344 0.930 . S
C339 C337 1.332 . S
C339 C338 1.407 . S
C339 H341 0.929 . S
H340 C329 0.930 . S
H341 C339 0.929 . S
H342 C357 0.930 . S
H343 C364 0.929 . S
H344 C338 0.930 . S
H345 C337 0.931 . S
H346 C360 0.930 . S
H347 C327 0.930 . S
H348 C333 0.929 . S
H349 C334 0.930 . S
H350 C355 0.930 . S
H351 C330 0.930 . S
H352 C363 0.931 . S
N353 Tb324 2.617 . S
N353 C354 1.379 1_556 S
N353 C357 1.334 . S
C354 N353 1.379 1_554 S
C354 C356 1.416 . S
C354 C362 1.424 . S
C355 H350 0.930 . S
C355 C357 1.390 . S
C355 C358 1.339 1_556 S
C356 C354 1.416 . S
C356 C358 1.416 . S
C356 C389 1.448 . S
C357 H342 0.930 . S
C357 N353 1.334 . S
C357 C355 1.390 . S
C358 C355 1.339 1_554 S
C358 C356 1.416 . S
C358 H365 0.930 . S
N359 Tb324 2.572 1_554 S
N359 C360 1.340 . S
N359 C362 1.361 . S
C360 H346 0.930 . S
C360 N359 1.340 . S
C360 C364 1.407 . S
C361 C362 1.413 . S
C361 C363 1.416 . S
C361 C390 1.427 . S
C362 C354 1.424 . S
C362 N359 1.361 . S
C362 C361 1.413 . S
C363 H352 0.931 . S
C363 C361 1.416 . S
C363 C364 1.332 . S
C364 H343 0.929 . S
C364 C360 1.407 . S
C364 C363 1.332 . S
H365 C358 0.930 . S
H366 C389 0.930 . S
H367 C390 0.929 . S
O368 Tb324 2.465 . S
O368 C388 1.264 . S
O369 Tb324 2.387 1_554 S
O369 C380 1.264 . S
O370 Tb335 2.349 . S
O370 C380 1.243 . S
O371 Tb324 2.428 . S
O371 C388 1.256 . S
O372 Tb324 2.308 1_554 S
O372 C387 1.266 . S
O373 Tb335 2.393 . S
O373 C387 1.248 . S
O374 Tb335 2.465 . S
O374 C399 1.264 . S
O375 Tb335 2.374 1_556 S
O375 C391 1.273 . S
O376 Tb324 2.349 . S
O376 C391 1.243 . S
O377 Tb335 2.428 . S
O377 C399 1.256 . S
O378 Tb335 2.308 . S
O378 C398 1.266 . S
O379 Tb324 2.393 1_554 S
O379 C398 1.248 . S
C380 O369 1.264 . S
C380 O370 1.243 . S
C381 C384 1.399 . S
C381 C386 1.383 . S
C381 C388 1.496 . S
C382 C383 1.399 . S
C382 C386 1.389 . S
C383 C382 1.399 . S
C383 C385 1.380 . S
C383 H400 0.929 . S
C384 C381 1.399 . S
C384 C385 1.392 . S
C384 H401 0.929 . S
C385 C383 1.380 . S
C385 C384 1.392 . S
C385 H402 0.929 . S
C386 C381 1.383 . S
C386 C382 1.389 . S
C386 H403 0.931 . S
C387 O372 1.266 . S
C387 O373 1.248 . S
C388 Tb324 2.802 . S
C388 O368 1.264 . S
C388 O371 1.256 . S
C388 C381 1.496 . S
C389 C356 1.448 . S
C389 H366 0.930 . S
C389 C390 1.328 . S
C390 C361 1.427 . S
C390 H367 0.929 . S
C390 C389 1.328 . S
C391 O375 1.273 . S
C391 O376 1.243 . S
C392 C395 1.399 . S
C392 C396 1.383 . S
C392 C399 1.496 . S
C393 C394 1.399 . S
C393 C396 1.389 . S
C394 C393 1.399 . S
C394 C397 1.380 . S
C394 H404 0.929 . S
C395 C392 1.399 . S
C395 C397 1.392 . S
C395 H405 0.929 . S
C396 C392 1.383 . S
C396 C393 1.389 . S
C396 H406 0.931 . S
C397 C394 1.380 . S
C397 C395 1.392 . S
C397 H407 0.929 . S
C398 O378 1.266 . S
C398 O379 1.248 . S
C399 Tb335 2.802 . S
C399 O374 1.264 . S
C399 O377 1.256 . S
C399 C392 1.496 . S
H400 C383 0.929 . S
H401 C384 0.929 . S
H402 C385 0.929 . S
H403 C386 0.931 . S
H404 C394 0.929 . S
H405 C395 0.929 . S
H406 C396 0.931 . S
H407 C397 0.929 . S
H408 C414 0.930 . S
H409 C417 0.930 . S
H410 C418 0.930 . S
H411 C419 0.930 . S
H412 C422 0.930 . S
H413 C423 0.930 . S
C414 H408 0.930 . S
C414 C415 1.355 . S
C414 C416 1.415 . S
C415 C414 1.355 . S
C415 C417 1.419 . S
C416 C414 1.415 . S
C416 C421 1.425 . S
C416 C423 1.409 . S
C417 H409 0.930 . S
C417 C415 1.419 . S
C417 C418 1.362 . S
C418 H410 0.930 . S
C418 C417 1.362 . S
C418 C421 1.409 . S
C419 H411 0.930 . S
C419 C420 1.355 . S
C419 C421 1.415 . S
C420 C419 1.355 . S
C420 C422 1.419 . S
C421 C416 1.425 . S
C421 C418 1.409 . S
C421 C419 1.415 . S
C422 H412 0.930 . S
C422 C420 1.419 . S
C422 C423 1.362 . S
C423 H413 0.930 . S
C423 C416 1.409 . S
C423 C422 1.362 . S
H424 C430 0.930 . S
H425 C433 0.930 . S
H426 C434 0.930 . S
H427 C435 0.930 . S
H428 C438 0.930 . S
H429 C439 0.930 . S
C430 H424 0.930 . S
C430 C431 1.355 . S
C430 C432 1.415 . S
C431 C430 1.355 . S
C431 C433 1.419 . S
C432 C430 1.415 . S
C432 C437 1.425 . S
C432 C439 1.409 . S
C433 H425 0.930 . S
C433 C431 1.419 . S
C433 C434 1.362 . S
C434 H426 0.930 . S
C434 C433 1.362 . S
C434 C437 1.409 . S
C435 H427 0.930 . S
C435 C436 1.355 . S
C435 C437 1.415 . S
C436 C435 1.355 . S
C436 C438 1.419 . S
C437 C432 1.425 . S
C437 C434 1.409 . S
C437 C435 1.415 . S
C438 H428 0.930 . S
C438 C436 1.419 . S
C438 C439 1.362 . S
C439 H429 0.930 . S
C439 C432 1.409 . S
C439 C438 1.362 . S
H440 C446 0.930 . S
H441 C449 0.930 . S
H442 C450 0.930 . S
H443 C451 0.930 . S
H444 C454 0.930 . S
H445 C455 0.930 . S
C446 H440 0.930 . S
C446 C447 1.355 . S
C446 C448 1.415 . S
C447 C446 1.355 . S
C447 C449 1.419 . S
C448 C446 1.415 . S
C448 C453 1.425 . S
C448 C455 1.409 . S
C449 H441 0.930 . S
C449 C447 1.419 . S
C449 C450 1.362 . S
C450 H442 0.930 . S
C450 C449 1.362 . S
C450 C453 1.409 . S
C451 H443 0.930 . S
C451 C452 1.355 . S
C451 C453 1.415 . S
C452 C451 1.355 . S
C452 C454 1.419 . S
C453 C448 1.425 . S
C453 C450 1.409 . S
C453 C451 1.415 . S
C454 H444 0.930 . S
C454 C452 1.419 . S
C454 C455 1.362 . S
C455 H445 0.930 . S
C455 C448 1.409 . S
C455 C454 1.362 . S
H456 C462 0.930 . S
H457 C465 0.930 . S
H458 C466 0.930 . S
H459 C467 0.930 1_556 S
H460 C470 0.930 . S
H461 C471 0.930 . S
C462 H456 0.930 . S
C462 C463 1.355 . S
C462 C464 1.415 . S
C463 C462 1.355 . S
C463 C465 1.419 1_554 S
C464 C462 1.415 . S
C464 C469 1.425 . S
C464 C471 1.409 . S
C465 H457 0.930 . S
C465 C463 1.419 1_556 S
C465 C466 1.362 . S
C466 H458 0.930 . S
C466 C465 1.362 . S
C466 C469 1.409 1_556 S
C467 H459 0.930 1_554 S
C467 C468 1.355 . S
C467 C469 1.415 . S
C468 C467 1.355 . S
C468 C470 1.419 . S
C469 C464 1.425 . S
C469 C466 1.409 1_554 S
C469 C467 1.415 . S
C470 H460 0.930 . S
C470 C468 1.419 . S
C470 C471 1.362 . S
C471 H461 0.930 . S
C471 C464 1.409 . S
C471 C470 1.362 . S
H472 C478 0.930 . S
H473 C481 0.930 . S
H474 C482 0.917 1_545 S
H475 C483 0.930 . S
H476 C486 0.930 . S
H477 C487 0.930 . S
C478 H472 0.930 . S
C478 C479 1.355 . S
C478 C480 1.415 . S
C479 C478 1.355 . S
C479 C481 1.419 . S
C480 C478 1.415 . S
C480 C485 1.425 . S
C480 C487 1.409 . S
C481 H473 0.930 . S
C481 C479 1.419 . S
C481 C482 1.362 . S
C482 H474 0.917 1_565 S
C482 C481 1.362 . S
C482 C485 1.409 . S
C483 H475 0.930 . S
C483 C484 1.355 . S
C483 C485 1.415 . S
C484 C483 1.355 . S
C484 C486 1.419 . S
C485 C480 1.425 . S
C485 C482 1.409 . S
C485 C483 1.415 . S
C486 H476 0.930 . S
C486 C484 1.419 . S
C486 C487 1.362 . S
C487 H477 0.930 . S
C487 C480 1.409 . S
C487 C486 1.362 . S
H488 C494 0.930 . S
H489 C497 0.930 . S
H490 C498 0.930 . S
H491 C499 0.930 . S
H492 C502 0.930 . S
H493 C503 0.930 . S
C494 H488 0.930 . S
C494 C495 1.355 . S
C494 C496 1.415 . S
C495 C494 1.355 . S
C495 C497 1.419 . S
C496 C494 1.415 . S
C496 C501 1.425 . S
C496 C503 1.409 . S
C497 H489 0.930 . S
C497 C495 1.419 . S
C497 C498 1.362 . S
C498 H490 0.930 . S
C498 C497 1.362 . S
C498 C501 1.409 . S
C499 H491 0.930 . S
C499 C500 1.355 . S
C499 C501 1.415 . S
C500 C499 1.355 . S
C500 C502 1.419 . S
C501 C496 1.425 . S
C501 C498 1.409 . S
C501 C499 1.415 . S
C502 H492 0.930 . S
C502 C500 1.419 . S
C502 C503 1.362 . S
C503 H493 0.930 . S
C503 C496 1.409 . S
C503 C502 1.362 . S
H504 C510 0.930 . S
H505 C513 0.930 . S
H506 C514 0.930 . S
H507 C515 0.930 . S
H508 C518 0.930 1_565 S
H509 C519 0.930 1_565 S
C510 H504 0.930 . S
C510 C511 1.355 . S
C510 C512 1.415 . S
C511 C510 1.355 . S
C511 C513 1.419 . S
C512 C510 1.415 . S
C512 C517 1.425 . S
C512 C519 1.409 . S
C513 H505 0.930 . S
C513 C511 1.419 . S
C513 C514 1.362 . S
C514 H506 0.930 . S
C514 C513 1.362 . S
C514 C517 1.409 . S
C515 H507 0.930 . S
C515 C516 1.355 . S
C515 C517 1.415 . S
C516 C515 1.355 . S
C516 C518 1.419 . S
C517 C512 1.425 . S
C517 C514 1.409 . S
C517 C515 1.415 . S
C518 H508 0.930 1_545 S
C518 C516 1.419 . S
C518 C519 1.362 . S
C519 H509 0.930 1_545 S
C519 C512 1.409 . S
C519 C518 1.362 . S
H520 C526 0.930 . S
H521 C529 0.930 . S
H522 C530 0.930 . S
H523 C531 0.930 . S
H524 C534 0.930 . S
H525 C535 0.930 . S
C526 H520 0.930 . S
C526 C527 1.355 . S
C526 C528 1.415 . S
C527 C526 1.355 . S
C527 C529 1.419 . S
C528 C526 1.415 . S
C528 C533 1.425 . S
C528 C535 1.409 . S
C529 H521 0.930 . S
C529 C527 1.419 . S
C529 C530 1.362 . S
C530 H522 0.930 . S
C530 C529 1.362 . S
C530 C533 1.409 . S
C531 H523 0.930 . S
C531 C532 1.355 . S
C531 C533 1.415 . S
C532 C531 1.355 . S
C532 C534 1.419 . S
C533 C528 1.425 . S
C533 C530 1.409 . S
C533 C531 1.415 . S
C534 H524 0.930 . S
C534 C532 1.419 . S
C534 C535 1.362 . S
C535 H525 0.930 . S
C535 C528 1.409 . S
C535 C534 1.362 . S
H536 C542 0.930 . S
H537 C545 0.930 . S
H538 C546 0.930 . S
H539 C547 0.930 . S
H540 C550 0.930 . S
H541 C551 0.930 . S
C542 H536 0.930 . S
C542 C543 1.355 . S
C542 C544 1.415 . S
C543 C542 1.355 . S
C543 C545 1.419 . S
C544 C542 1.415 . S
C544 C549 1.425 . S
C544 C551 1.409 . S
C545 H537 0.930 . S
C545 C543 1.419 . S
C545 C546 1.362 . S
C546 H538 0.930 . S
C546 C545 1.362 . S
C546 C549 1.409 . S
C547 H539 0.930 . S
C547 C548 1.355 . S
C547 C549 1.415 . S
C548 C547 1.355 . S
C548 C550 1.419 . S
C549 C544 1.425 . S
C549 C546 1.409 . S
C549 C547 1.415 . S
C550 H540 0.930 . S
C550 C548 1.419 . S
C550 C551 1.362 . S
C551 H541 0.930 . S
C551 C544 1.409 . S
C551 C550 1.362 . S
H552 C558 0.930 . S
H553 C561 0.930 . S
H554 C562 0.930 . S
H555 C563 0.930 . S
H556 C566 0.930 . S
H557 C567 0.930 . S
C558 H552 0.930 . S
C558 C559 1.355 . S
C558 C560 1.415 . S
C559 C558 1.355 . S
C559 C561 1.419 . S
C560 C558 1.415 . S
C560 C565 1.425 . S
C560 C567 1.409 . S
C561 H553 0.930 . S
C561 C559 1.419 . S
C561 C562 1.362 . S
C562 H554 0.930 . S
C562 C561 1.362 . S
C562 C565 1.409 . S
C563 H555 0.930 . S
C563 C564 1.355 . S
C563 C565 1.415 . S
C564 C563 1.355 . S
C564 C566 1.419 . S
C565 C560 1.425 . S
C565 C562 1.409 . S
C565 C563 1.415 . S
C566 H556 0.930 . S
C566 C564 1.419 . S
C566 C567 1.362 . S
C567 H557 0.930 . S
C567 C560 1.409 . S
C567 C566 1.362 . S
H568 C574 0.930 . S
H569 C577 0.930 . S
H570 C578 0.930 . S
H571 C579 0.930 . S
H572 C582 0.930 . S
H573 C583 0.930 . S
C574 H568 0.930 . S
C574 C575 1.355 . S
C574 C576 1.415 . S
C575 C574 1.355 . S
C575 C577 1.419 . S
C576 C574 1.415 . S
C576 C581 1.425 . S
C576 C583 1.409 . S
C577 H569 0.930 . S
C577 C575 1.419 . S
C577 C578 1.362 . S
C578 H570 0.930 . S
C578 C577 1.362 . S
C578 C581 1.409 . S
C579 H571 0.930 . S
C579 C580 1.355 . S
C579 C581 1.415 . S
C580 C579 1.355 . S
C580 C582 1.419 . S
C581 C576 1.425 . S
C581 C578 1.409 . S
C581 C579 1.415 . S
C582 H572 0.930 . S
C582 C580 1.419 . S
C582 C583 1.362 . S
C583 H573 0.930 . S
C583 C576 1.409 . S
C583 C582 1.362 . S
H584 C590 0.930 . S
H585 C593 0.930 . S
H586 C594 0.930 1_545 S
H587 C595 0.930 1_545 S
H588 C598 0.930 . S
H589 C599 0.930 . S
C590 H584 0.930 . S
C590 C591 1.355 . S
C590 C592 1.415 . S
C591 C590 1.355 . S
C591 C593 1.419 . S
C592 C590 1.415 . S
C592 C597 1.425 . S
C592 C599 1.409 . S
C593 H585 0.930 . S
C593 C591 1.419 . S
C593 C594 1.362 . S
C594 H586 0.930 1_565 S
C594 C593 1.362 . S
C594 C597 1.409 . S
C595 H587 0.930 1_565 S
C595 C596 1.355 . S
C595 C597 1.415 . S
C596 C595 1.355 . S
C596 C598 1.419 . S
C597 C592 1.425 . S
C597 C594 1.409 . S
C597 C595 1.415 . S
C598 H588 0.930 . S
C598 C596 1.419 . S
C598 C599 1.362 . S
C599 H589 0.930 . S
C599 C592 1.409 . S
C599 C598 1.362 . S
C420 C303 1.647 . S
C415 C211 1.639 . S
C431 C31 1.501 . S
C436 C398 1.632 . S
C447 C91 1.650 . S
C452 C314 1.618 . S
C463 C151 1.626 . S
C468 C387 1.616 . S
C484 C298 1.402 . S
C479 C20 1.531 . S
C500 C391 1.609 . S
C495 C61 1.555 . S
C511 C121 1.606 . S
C516 C307 1.622 . S
C527 C200 1.451 . S
C532 C382 1.448 . S
C548 C393 1.403 . S
C543 C80 1.528 . S
C564 C309 1.415 . S
C559 C140 1.529 . S
C580 C380 1.612 . S
C575 C181 1.545 . S
C591 C1 1.596 . S
C596 C296 1.630 . S
