# Generated by pormake.
# Topology bwt, (3,3)-cn, num edge types: 1
# Building blocks:
#     Node 0, Type 0, BuildingBlock: WUSLED_clean_sbu_0, # of connection points: 3
#     Node 1, Type 0, BuildingBlock: WUSLED_clean_sbu_0, # of connection points: 3
#     Node 2, Type 0, BuildingBlock: WUSLED_clean_sbu_0, # of connection points: 3
#     Node 3, Type 0, BuildingBlock: WUSLED_clean_sbu_0, # of connection points: 3
#     Node 4, Type 0, BuildingBlock: WUSLED_clean_sbu_0, # of connection points: 3
#     Node 5, Type 0, BuildingBlock: WUSLED_clean_sbu_0, # of connection points: 3
#     Node 6, Type 0, BuildingBlock: WUSLED_clean_sbu_0, # of connection points: 3
#     Node 7, Type 0, BuildingBlock: WUSLED_clean_sbu_0, # of connection points: 3
#     Node 8, Type 0, BuildingBlock: WUSLED_clean_sbu_0, # of connection points: 3
#     Node 9, Type 0, BuildingBlock: WUSLED_clean_sbu_0, # of connection points: 3
#     Node 10, Type 0, BuildingBlock: WUSLED_clean_sbu_0, # of connection points: 3
#     Node 11, Type 0, BuildingBlock: WUSLED_clean_sbu_0, # of connection points: 3
#     Node 12, Type 0, BuildingBlock: WUSLED_clean_sbu_0, # of connection points: 3
#     Node 13, Type 0, BuildingBlock: WUSLED_clean_sbu_0, # of connection points: 3
#     Node 14, Type 0, BuildingBlock: WUSLED_clean_sbu_0, # of connection points: 3
#     Node 15, Type 0, BuildingBlock: WUSLED_clean_sbu_0, # of connection points: 3
#     Node 16, Type 0, BuildingBlock: WUSLED_clean_sbu_0, # of connection points: 3
#     Node 17, Type 0, BuildingBlock: WUSLED_clean_sbu_0, # of connection points: 3
#     Node 18, Type 0, BuildingBlock: WUSLED_clean_sbu_0, # of connection points: 3
#     Node 19, Type 0, BuildingBlock: WUSLED_clean_sbu_0, # of connection points: 3
#     Node 20, Type 0, BuildingBlock: WUSLED_clean_sbu_0, # of connection points: 3
#     Node 21, Type 0, BuildingBlock: WUSLED_clean_sbu_0, # of connection points: 3
#     Node 22, Type 0, BuildingBlock: WUSLED_clean_sbu_0, # of connection points: 3
#     Node 23, Type 0, BuildingBlock: WUSLED_clean_sbu_0, # of connection points: 3
#     Node 24, Type 1, BuildingBlock: QEWDON_clean_linker_0, # of connection points: 3
#     Node 25, Type 1, BuildingBlock: QEWDON_clean_linker_0, # of connection points: 3
#     Node 26, Type 1, BuildingBlock: QEWDON_clean_linker_0, # of connection points: 3
#     Node 27, Type 1, BuildingBlock: QEWDON_clean_linker_0, # of connection points: 3
#     Node 28, Type 1, BuildingBlock: QEWDON_clean_linker_0, # of connection points: 3
#     Node 29, Type 1, BuildingBlock: QEWDON_clean_linker_0, # of connection points: 3
#     Node 30, Type 1, BuildingBlock: QEWDON_clean_linker_0, # of connection points: 3
#     Node 31, Type 1, BuildingBlock: QEWDON_clean_linker_0, # of connection points: 3
#     Node 32, Type 1, BuildingBlock: QEWDON_clean_linker_0, # of connection points: 3
#     Node 33, Type 1, BuildingBlock: QEWDON_clean_linker_0, # of connection points: 3
#     Node 34, Type 1, BuildingBlock: QEWDON_clean_linker_0, # of connection points: 3
#     Node 35, Type 1, BuildingBlock: QEWDON_clean_linker_0, # of connection points: 3
#     Node 36, Type 1, BuildingBlock: QEWDON_clean_linker_0, # of connection points: 3
#     Node 37, Type 1, BuildingBlock: QEWDON_clean_linker_0, # of connection points: 3
#     Node 38, Type 1, BuildingBlock: QEWDON_clean_linker_0, # of connection points: 3
#     Node 39, Type 1, BuildingBlock: QEWDON_clean_linker_0, # of connection points: 3
#     Node 40, Type 1, BuildingBlock: QEWDON_clean_linker_0, # of connection points: 3
#     Node 41, Type 1, BuildingBlock: QEWDON_clean_linker_0, # of connection points: 3
#     Node 42, Type 1, BuildingBlock: QEWDON_clean_linker_0, # of connection points: 3
#     Node 43, Type 1, BuildingBlock: QEWDON_clean_linker_0, # of connection points: 3
#     Node 44, Type 1, BuildingBlock: QEWDON_clean_linker_0, # of connection points: 3
#     Node 45, Type 1, BuildingBlock: QEWDON_clean_linker_0, # of connection points: 3
#     Node 46, Type 1, BuildingBlock: QEWDON_clean_linker_0, # of connection points: 3
#     Node 47, Type 1, BuildingBlock: QEWDON_clean_linker_0, # of connection points: 3
#     Edge 48, Type (0, 1), BuildingBlock: UVAHIK_clean_linker_0, # of connection points: 2
#     Edge 49, Type (0, 1), BuildingBlock: UVAHIK_clean_linker_0, # of connection points: 2
#     Edge 50, Type (0, 1), BuildingBlock: UVAHIK_clean_linker_0, # of connection points: 2
#     Edge 51, Type (0, 1), BuildingBlock: UVAHIK_clean_linker_0, # of connection points: 2
#     Edge 52, Type (0, 1), BuildingBlock: UVAHIK_clean_linker_0, # of connection points: 2
#     Edge 53, Type (0, 1), BuildingBlock: UVAHIK_clean_linker_0, # of connection points: 2
#     Edge 54, Type (0, 1), BuildingBlock: UVAHIK_clean_linker_0, # of connection points: 2
#     Edge 55, Type (0, 1), BuildingBlock: UVAHIK_clean_linker_0, # of connection points: 2
#     Edge 56, Type (0, 1), BuildingBlock: UVAHIK_clean_linker_0, # of connection points: 2
#     Edge 57, Type (0, 1), BuildingBlock: UVAHIK_clean_linker_0, # of connection points: 2
#     Edge 58, Type (0, 1), BuildingBlock: UVAHIK_clean_linker_0, # of connection points: 2
#     Edge 59, Type (0, 1), BuildingBlock: UVAHIK_clean_linker_0, # of connection points: 2
#     Edge 60, Type (0, 1), BuildingBlock: UVAHIK_clean_linker_0, # of connection points: 2
#     Edge 61, Type (0, 1), BuildingBlock: UVAHIK_clean_linker_0, # of connection points: 2
#     Edge 62, Type (0, 1), BuildingBlock: UVAHIK_clean_linker_0, # of connection points: 2
#     Edge 63, Type (0, 1), BuildingBlock: UVAHIK_clean_linker_0, # of connection points: 2
#     Edge 64, Type (0, 1), BuildingBlock: UVAHIK_clean_linker_0, # of connection points: 2
#     Edge 65, Type (0, 1), BuildingBlock: UVAHIK_clean_linker_0, # of connection points: 2
#     Edge 66, Type (0, 1), BuildingBlock: UVAHIK_clean_linker_0, # of connection points: 2
#     Edge 67, Type (0, 1), BuildingBlock: UVAHIK_clean_linker_0, # of connection points: 2
#     Edge 68, Type (0, 1), BuildingBlock: UVAHIK_clean_linker_0, # of connection points: 2
#     Edge 69, Type (0, 1), BuildingBlock: UVAHIK_clean_linker_0, # of connection points: 2
#     Edge 70, Type (0, 1), BuildingBlock: UVAHIK_clean_linker_0, # of connection points: 2
#     Edge 71, Type (0, 1), BuildingBlock: UVAHIK_clean_linker_0, # of connection points: 2
#     Edge 72, Type (0, 1), BuildingBlock: UVAHIK_clean_linker_0, # of connection points: 2
#     Edge 73, Type (0, 1), BuildingBlock: UVAHIK_clean_linker_0, # of connection points: 2
#     Edge 74, Type (0, 1), BuildingBlock: UVAHIK_clean_linker_0, # of connection points: 2
#     Edge 75, Type (0, 1), BuildingBlock: UVAHIK_clean_linker_0, # of connection points: 2
#     Edge 76, Type (0, 1), BuildingBlock: UVAHIK_clean_linker_0, # of connection points: 2
#     Edge 77, Type (0, 1), BuildingBlock: UVAHIK_clean_linker_0, # of connection points: 2
#     Edge 78, Type (0, 1), BuildingBlock: UVAHIK_clean_linker_0, # of connection points: 2
#     Edge 79, Type (0, 1), BuildingBlock: UVAHIK_clean_linker_0, # of connection points: 2
#     Edge 80, Type (0, 1), BuildingBlock: UVAHIK_clean_linker_0, # of connection points: 2
#     Edge 81, Type (0, 1), BuildingBlock: UVAHIK_clean_linker_0, # of connection points: 2
#     Edge 82, Type (0, 1), BuildingBlock: UVAHIK_clean_linker_0, # of connection points: 2
#     Edge 83, Type (0, 1), BuildingBlock: UVAHIK_clean_linker_0, # of connection points: 2
#     Edge 84, Type (0, 1), BuildingBlock: UVAHIK_clean_linker_0, # of connection points: 2
#     Edge 85, Type (0, 1), BuildingBlock: UVAHIK_clean_linker_0, # of connection points: 2
#     Edge 86, Type (0, 1), BuildingBlock: UVAHIK_clean_linker_0, # of connection points: 2
#     Edge 87, Type (0, 1), BuildingBlock: UVAHIK_clean_linker_0, # of connection points: 2
#     Edge 88, Type (0, 1), BuildingBlock: UVAHIK_clean_linker_0, # of connection points: 2
#     Edge 89, Type (0, 1), BuildingBlock: UVAHIK_clean_linker_0, # of connection points: 2
#     Edge 90, Type (0, 1), BuildingBlock: UVAHIK_clean_linker_0, # of connection points: 2
#     Edge 91, Type (0, 1), BuildingBlock: UVAHIK_clean_linker_0, # of connection points: 2
#     Edge 92, Type (0, 1), BuildingBlock: UVAHIK_clean_linker_0, # of connection points: 2
#     Edge 93, Type (0, 1), BuildingBlock: UVAHIK_clean_linker_0, # of connection points: 2
#     Edge 94, Type (0, 1), BuildingBlock: UVAHIK_clean_linker_0, # of connection points: 2
#     Edge 95, Type (0, 1), BuildingBlock: UVAHIK_clean_linker_0, # of connection points: 2
#     Edge 96, Type (0, 1), BuildingBlock: UVAHIK_clean_linker_0, # of connection points: 2
#     Edge 97, Type (0, 1), BuildingBlock: UVAHIK_clean_linker_0, # of connection points: 2
#     Edge 98, Type (0, 1), BuildingBlock: UVAHIK_clean_linker_0, # of connection points: 2
#     Edge 99, Type (0, 1), BuildingBlock: UVAHIK_clean_linker_0, # of connection points: 2
#     Edge 100, Type (0, 1), BuildingBlock: UVAHIK_clean_linker_0, # of connection points: 2
#     Edge 101, Type (0, 1), BuildingBlock: UVAHIK_clean_linker_0, # of connection points: 2
#     Edge 102, Type (0, 1), BuildingBlock: UVAHIK_clean_linker_0, # of connection points: 2
#     Edge 103, Type (0, 1), BuildingBlock: UVAHIK_clean_linker_0, # of connection points: 2
#     Edge 104, Type (0, 1), BuildingBlock: UVAHIK_clean_linker_0, # of connection points: 2
#     Edge 105, Type (0, 1), BuildingBlock: UVAHIK_clean_linker_0, # of connection points: 2
#     Edge 106, Type (0, 1), BuildingBlock: UVAHIK_clean_linker_0, # of connection points: 2
#     Edge 107, Type (0, 1), BuildingBlock: UVAHIK_clean_linker_0, # of connection points: 2
#     Edge 108, Type (0, 1), BuildingBlock: UVAHIK_clean_linker_0, # of connection points: 2
#     Edge 109, Type (0, 1), BuildingBlock: UVAHIK_clean_linker_0, # of connection points: 2
#     Edge 110, Type (0, 1), BuildingBlock: UVAHIK_clean_linker_0, # of connection points: 2
#     Edge 111, Type (0, 1), BuildingBlock: UVAHIK_clean_linker_0, # of connection points: 2
#     Edge 112, Type (0, 1), BuildingBlock: UVAHIK_clean_linker_0, # of connection points: 2
#     Edge 113, Type (0, 1), BuildingBlock: UVAHIK_clean_linker_0, # of connection points: 2
#     Edge 114, Type (0, 1), BuildingBlock: UVAHIK_clean_linker_0, # of connection points: 2
#     Edge 115, Type (0, 1), BuildingBlock: UVAHIK_clean_linker_0, # of connection points: 2
#     Edge 116, Type (0, 1), BuildingBlock: UVAHIK_clean_linker_0, # of connection points: 2
#     Edge 117, Type (0, 1), BuildingBlock: UVAHIK_clean_linker_0, # of connection points: 2
#     Edge 118, Type (0, 1), BuildingBlock: UVAHIK_clean_linker_0, # of connection points: 2
#     Edge 119, Type (0, 1), BuildingBlock: UVAHIK_clean_linker_0, # of connection points: 2
# Relax obj value: 0.074
# Max RMSD: 0.183
# Mean RMSD: 0.072
data_MOF--net-bwt--node1-WUSLED_clean_sbu_0--node2-QEWDON_clean_linker_0--edge1-UVAHIK_clean_linker_0
_symmetry_space_group_name_H-M    P1
_symmetry_Int_Tables_number       1
_symmetry_cell_setting            triclinic
loop_
_symmetry_equiv_pos_as_xyz
'x, y, z'
_cell_length_a     86.123358
_cell_length_b     86.146954
_cell_length_c     86.141722
_cell_angle_alpha  95.682982
_cell_angle_beta   95.68552
_cell_angle_gamma 95.691967
loop_
_atom_site_label
_atom_site_type_symbol
_atom_site_fract_x
_atom_site_fract_y
_atom_site_fract_z
_atom_type_partial_charge
C0 C 0.25074 0.59197 0.33194 0.0
C1 C 0.26348 0.58508 0.33873 0.0
C2 C 0.27907 0.59248 0.31799 0.0
C3 C 0.2775 0.58534 0.33183 0.0
C4 C 0.26624 0.59941 0.31125 0.0
C5 C 0.25219 0.59915 0.31819 0.0
U6 U 0.22754 0.57891 0.36398 0.0
O7 O 0.21142 0.59068 0.37825 0.0
O8 O 0.20313 0.56841 0.36373 0.0
C9 C 0.19942 0.58018 0.37304 0.0
C10 C 0.23595 0.59146 0.33916 0.0
C11 C 0.18443 0.58619 0.36832 0.0
C12 C 0.16913 0.60513 0.35648 0.0
C13 C 0.18367 0.59966 0.36044 0.0
C14 C 0.15608 0.58364 0.36811 0.0
C15 C 0.15516 0.59713 0.36024 0.0
C16 C 0.17055 0.57826 0.37209 0.0
C17 C 0.24878 0.55563 0.39409 0.0
C18 C 0.25801 0.55479 0.4216 0.0
C19 C 0.24473 0.53135 0.40619 0.0
C20 C 0.24301 0.53965 0.39308 0.0
C21 C 0.25235 0.53879 0.42059 0.0
C22 C 0.25631 0.56308 0.4085 0.0
C23 C 0.24798 0.56429 0.38004 0.0
O24 O 0.22823 0.57741 0.33842 0.0
O25 O 0.23682 0.59944 0.3531 0.0
O26 O 0.24717 0.57949 0.38252 0.0
O27 O 0.2388 0.55754 0.36759 0.0
H28 H 0.26252 0.57942 0.34934 0.0
H29 H 0.28704 0.5797 0.33721 0.0
H30 H 0.26711 0.60516 0.3007 0.0
H31 H 0.24248 0.60454 0.31281 0.0
H32 H 0.1688 0.61547 0.35032 0.0
H33 H 0.19427 0.60593 0.35738 0.0
H34 H 0.1456 0.57735 0.3714 0.0
H35 H 0.17091 0.56789 0.37824 0.0
H36 H 0.26375 0.56095 0.43256 0.0
H37 H 0.24042 0.519 0.40494 0.0
H38 H 0.23735 0.53346 0.38211 0.0
H39 H 0.26105 0.57531 0.40964 0.0
C40 C 0.25924 0.40084 0.79204 0.0
C41 C 0.24612 0.4017 0.80045 0.0
C42 C 0.22871 0.39173 0.77681 0.0
C43 C 0.23099 0.39709 0.79291 0.0
C44 C 0.24186 0.39093 0.76844 0.0
C45 C 0.25699 0.39539 0.77601 0.0
U46 U 0.28842 0.42936 0.81992 0.0
O47 O 0.30861 0.42497 0.8361 0.0
O48 O 0.31217 0.43969 0.81706 0.0
C49 C 0.31879 0.43243 0.82826 0.0
C50 C 0.27529 0.40593 0.7996 0.0
C51 C 0.33243 0.42418 0.82452 0.0
C52 C 0.35008 0.41519 0.80601 0.0
C53 C 0.3363 0.42168 0.80906 0.0
C54 C 0.35601 0.41292 0.8337 0.0
C55 C 0.36026 0.41097 0.81832 0.0
C56 C 0.34229 0.41952 0.83676 0.0
C57 C 0.27492 0.46491 0.84218 0.0
C58 C 0.29334 0.48706 0.85408 0.0
C59 C 0.26633 0.48516 0.86002 0.0
C60 C 0.26308 0.47106 0.85013 0.0
C61 C 0.28148 0.49337 0.86199 0.0
C62 C 0.29011 0.47292 0.84432 0.0
C63 C 0.27133 0.45031 0.8315 0.0
O64 O 0.2819 0.41907 0.79544 0.0
O65 O 0.27771 0.40491 0.81477 0.0
O66 O 0.27351 0.43732 0.83784 0.0
O67 O 0.2768 0.45072 0.81782 0.0
H68 H 0.24754 0.40604 0.8128 0.0
H69 H 0.22105 0.39799 0.79961 0.0
H70 H 0.24046 0.38672 0.75605 0.0
H71 H 0.26696 0.39467 0.76931 0.0
H72 H 0.35303 0.41408 0.79405 0.0
H73 H 0.32892 0.42511 0.79934 0.0
H74 H 0.36342 0.40957 0.84344 0.0
H75 H 0.33954 0.42129 0.84877 0.0
H76 H 0.30517 0.49299 0.85557 0.0
H77 H 0.25695 0.48977 0.86591 0.0
H78 H 0.2513 0.46501 0.84862 0.0
H79 H 0.29945 0.46828 0.83838 0.0
C80 C 0.6418 0.99741 0.62347 0.0
C81 C 0.65466 0.99587 0.61481 0.0
C82 C 0.67202 0.99584 0.63892 0.0
C83 C 0.66959 0.99501 0.62245 0.0
C84 C 0.65918 0.99775 0.64757 0.0
C85 C 0.64419 0.99847 0.6399 0.0
U86 U 0.61543 0.00686 0.58854 0.0
O87 O 0.59455 0.99335 0.57498 0.0
O88 O 0.59295 0.01694 0.58663 0.0
C89 C 0.58543 0.00429 0.57833 0.0
C90 C 0.62593 0.99785 0.61547 0.0
C91 C 0.56973 0.99893 0.58242 0.0
C92 C 0.55013 0.99743 0.60085 0.0
C93 C 0.56569 0.00109 0.59783 0.0
C94 C 0.54269 0.98888 0.57323 0.0
C95 C 0.53839 0.99162 0.5885 0.0
C96 C 0.55819 0.99252 0.57024 0.0
C97 C 0.63355 0.02419 0.55491 0.0
C98 C 0.61772 0.03456 0.53419 0.0
C99 C 0.64379 0.02782 0.53012 0.0
C100 C 0.64567 0.02329 0.54527 0.0
C101 C 0.62975 0.03338 0.52437 0.0
C102 C 0.61956 0.02989 0.54931 0.0
C103 C 0.63536 0.01848 0.57045 0.0
O104 O 0.62164 0.01193 0.61414 0.0
O105 O 0.62226 0.98817 0.60253 0.0
O106 O 0.63151 0.00334 0.57048 0.0
O107 O 0.63 0.02702 0.58183 0.0
H108 H 0.65312 0.99523 0.60212 0.0
H109 H 0.67928 0.99375 0.61548 0.0
H110 H 0.66066 0.99833 0.66026 0.0
H111 H 0.63443 0.99972 0.64679 0.0
H112 H 0.54717 0.99975 0.61272 0.0
H113 H 0.57443 0.00602 0.60742 0.0
H114 H 0.534 0.98418 0.56351 0.0
H115 H 0.56109 0.99073 0.55828 0.0
H116 H 0.60673 0.03865 0.53001 0.0
H117 H 0.65332 0.02694 0.52288 0.0
H118 H 0.65651 0.01888 0.54939 0.0
H119 H 0.60999 0.03052 0.55653 0.0
C120 C 0.84229 0.99844 0.25618 0.0
C121 C 0.82741 0.99203 0.24895 0.0
C122 C 0.8158 0.99916 0.27292 0.0
C123 C 0.81428 0.9924 0.25723 0.0
C124 C 0.83075 0.00573 0.28006 0.0
C125 C 0.84389 0.00537 0.27174 0.0
U126 U 0.859 0.98344 0.21976 0.0
O127 O 0.87648 0.99444 0.20597 0.0
O128 O 0.88042 0.97245 0.21591 0.0
C129 C 0.88638 0.98411 0.20879 0.0
C130 C 0.8561 0.99746 0.24756 0.0
C131 C 0.90265 0.99058 0.21461 0.0
C132 C 0.92454 0.99505 0.23523 0.0
C133 C 0.90875 0.98992 0.23025 0.0
C134 C 0.92816 0.00228 0.20925 0.0
C135 C 0.93445 0.00111 0.22473 0.0
C136 C 0.9124 0.997 0.20423 0.0
C137 C 0.82893 0.9588 0.1885 0.0
C138 C 0.83516 0.94482 0.1644 0.0
C139 C 0.80808 0.94474 0.16988 0.0
C140 C 0.81297 0.95403 0.18406 0.0
C141 C 0.8191 0.94007 0.15985 0.0
C142 C 0.84005 0.95416 0.17864 0.0
C143 C 0.83359 0.96838 0.20359 0.0
O144 O 0.86055 0.98332 0.24538 0.0
O145 O 0.85574 0.00475 0.23484 0.0
O146 O 0.83804 0.98331 0.20289 0.0
O147 O 0.84253 0.96204 0.2139 0.0
H148 H 0.82599 0.98656 0.23694 0.0
H149 H 0.80301 0.98705 0.25145 0.0
H150 H 0.83228 0.01117 0.29208 0.0
H151 H 0.8553 0.01038 0.27748 0.0
H152 H 0.92903 0.99418 0.24727 0.0
H153 H 0.90142 0.98518 0.23855 0.0
H154 H 0.93555 0.00679 0.20088 0.0
H155 H 0.90791 0.99763 0.19213 0.0
H156 H 0.84391 0.94152 0.15686 0.0
H157 H 0.79566 0.94109 0.16686 0.0
H158 H 0.80426 0.95744 0.19161 0.0
H159 H 0.85244 0.95776 0.18194 0.0
C160 C 0.3334 0.25044 0.59099 0.0
C161 C 0.34036 0.26352 0.58474 0.0
C162 C 0.31939 0.27874 0.59225 0.0
C163 C 0.33344 0.27754 0.58538 0.0
C164 C 0.31248 0.26557 0.59853 0.0
C165 C 0.31944 0.25154 0.5979 0.0
U166 U 0.36492 0.22733 0.5765 0.0
O167 O 0.37955 0.2111 0.58763 0.0
O168 O 0.3643 0.20296 0.56576 0.0
C169 C 0.37386 0.19912 0.57728 0.0
C170 C 0.34059 0.23564 0.59002 0.0
C171 C 0.36899 0.18429 0.58352 0.0
C172 C 0.35769 0.16958 0.60318 0.0
C173 C 0.36195 0.18395 0.59753 0.0
C174 C 0.36731 0.15583 0.58079 0.0
C175 C 0.36028 0.15535 0.59482 0.0
C176 C 0.37162 0.17014 0.57522 0.0
C177 C 0.39381 0.24886 0.55258 0.0
C178 C 0.41523 0.237 0.54143 0.0
C179 C 0.41155 0.26407 0.53819 0.0
C180 C 0.39852 0.26291 0.54662 0.0
C181 C 0.42013 0.25117 0.53556 0.0
C182 C 0.40218 0.23587 0.5499 0.0
C183 C 0.38022 0.24808 0.56161 0.0
O184 O 0.3394 0.22808 0.57586 0.0
O185 O 0.35474 0.23642 0.59755 0.0
O186 O 0.38336 0.24696 0.57667 0.0
O187 O 0.36787 0.23868 0.55505 0.0
H188 H 0.35111 0.26283 0.57927 0.0
H189 H 0.33895 0.28735 0.58023 0.0
H190 H 0.30175 0.26615 0.60405 0.0
H191 H 0.31392 0.24155 0.60279 0.0
H192 H 0.35219 0.1696 0.61395 0.0
H193 H 0.35974 0.19475 0.60409 0.0
H194 H 0.36968 0.14512 0.57418 0.0
H195 H 0.37708 0.17017 0.56442 0.0
H196 H 0.42168 0.22691 0.53976 0.0
H197 H 0.41486 0.27507 0.53366 0.0
H198 H 0.39212 0.27303 0.54854 0.0
H199 H 0.39868 0.22492 0.55445 0.0
C200 C 0.2577 0.84357 0.0032 0.0
C201 C 0.25037 0.82873 0.9968 0.0
C202 C 0.27411 0.81688 0.0042 0.0
C203 C 0.25847 0.81551 0.99732 0.0
C204 C 0.28137 0.83178 0.01076 0.0
C205 C 0.27321 0.84503 0.01026 0.0
U206 U 0.22252 0.86008 0.98549 0.0
O207 O 0.20709 0.87671 0.99497 0.0
O208 O 0.21944 0.88175 0.97461 0.0
C209 C 0.2106 0.88695 0.98515 0.0
C210 C 0.24925 0.85745 0.00181 0.0
C211 C 0.21519 0.9032 0.99217 0.0
C212 C 0.23313 0.92284 0.00901 0.0
C213 C 0.22858 0.90715 0.00304 0.0
C214 C 0.21083 0.93066 0.9934 0.0
C215 C 0.22436 0.93481 0.00417 0.0
C216 C 0.20631 0.91501 0.98749 0.0
C217 C 0.19376 0.8295 0.95819 0.0
C218 C 0.16625 0.83091 0.94965 0.0
C219 C 0.17991 0.81037 0.93767 0.0
C220 C 0.19366 0.81637 0.9472 0.0
C221 C 0.16596 0.81736 0.93899 0.0
C222 C 0.18007 0.83695 0.95919 0.0
C223 C 0.2081 0.83461 0.96891 0.0
O224 O 0.24833 0.86227 0.98777 0.0
O225 O 0.23581 0.85684 0.00787 0.0
O226 O 0.20616 0.83858 0.98367 0.0
O227 O 0.21878 0.84404 0.96358 0.0
H228 H 0.23842 0.82741 0.99116 0.0
H229 H 0.25261 0.80428 0.99194 0.0
H230 H 0.29337 0.8332 0.01627 0.0
H231 H 0.27905 0.85641 0.01522 0.0
H232 H 0.24351 0.92559 0.01738 0.0
H233 H 0.23559 0.89814 0.00676 0.0
H234 H 0.20396 0.93956 0.98919 0.0
H235 H 0.19598 0.91215 0.97903 0.0
H236 H 0.15567 0.8365 0.95103 0.0
H237 H 0.18015 0.80009 0.9294 0.0
H238 H 0.20416 0.81054 0.94622 0.0
H239 H 0.17995 0.84716 0.96759 0.0
C240 C 0.79632 0.26314 0.40127 0.0
C241 C 0.78811 0.25526 0.41204 0.0
C242 C 0.78161 0.23228 0.39284 0.0
C243 C 0.78077 0.24002 0.40782 0.0
C244 C 0.78962 0.24024 0.38201 0.0
C245 C 0.79684 0.25555 0.38617 0.0
U246 U 0.8271 0.29018 0.4283 0.0
O247 O 0.84463 0.30894 0.42323 0.0
O248 O 0.82722 0.31423 0.43943 0.0
C249 C 0.83838 0.31987 0.4315 0.0
C250 C 0.80497 0.27889 0.40581 0.0
C251 C 0.83529 0.33391 0.4237 0.0
C252 C 0.81719 0.35117 0.41317 0.0
C253 C 0.8199 0.33708 0.41918 0.0
C254 C 0.84522 0.35875 0.41527 0.0
C255 C 0.82981 0.36233 0.4114 0.0
C256 C 0.84792 0.34471 0.42142 0.0
C257 C 0.84908 0.27283 0.46197 0.0
C258 C 0.86468 0.28888 0.48389 0.0
C259 C 0.86543 0.2607 0.48084 0.0
C260 C 0.85483 0.25942 0.46728 0.0
C261 C 0.87039 0.27543 0.48935 0.0
C262 C 0.85415 0.2876 0.47027 0.0
C263 C 0.83762 0.27123 0.44795 0.0
O264 O 0.80213 0.28629 0.41916 0.0
O265 O 0.81998 0.28001 0.40385 0.0
O266 O 0.84348 0.27317 0.43467 0.0
O267 O 0.825 0.2784 0.44957 0.0
H268 H 0.78758 0.26073 0.42382 0.0
H269 H 0.77482 0.23412 0.41646 0.0
H270 H 0.79033 0.23459 0.37033 0.0
H271 H 0.80307 0.26139 0.37767 0.0
H272 H 0.80516 0.35356 0.4105 0.0
H273 H 0.80994 0.32888 0.42072 0.0
H274 H 0.85523 0.36691 0.41379 0.0
H275 H 0.85988 0.34243 0.42472 0.0
H276 H 0.86848 0.30042 0.49006 0.0
H277 H 0.86954 0.25013 0.48482 0.0
H278 H 0.85101 0.24793 0.46099 0.0
H279 H 0.8499 0.2981 0.46627 0.0
C280 C 0.62573 0.65267 0.00251 0.0
C281 C 0.61758 0.66592 0.00452 0.0
C282 C 0.6408 0.68286 1.00025 0.0
C283 C 0.62503 0.68087 0.00334 0.0
C284 C 0.64902 0.66957 0.99861 0.0
C285 C 0.64152 0.65458 0.99969 0.0
U286 U 0.59092 0.62694 0.01281 0.0
O287 O 0.57681 0.60618 0.99966 0.0
O288 O 0.58887 0.60459 0.02309 0.0
C289 C 0.58014 0.59714 0.01068 0.0
C290 C 0.61769 0.63687 0.00309 0.0
C291 C 0.58366 0.58123 0.00544 0.0
C292 C 0.60169 0.56138 0.00274 0.0
C293 C 0.59906 0.57709 0.00613 0.0
C294 C 0.57364 0.55399 0.99738 0.0
C295 C 0.58896 0.54961 0.99871 0.0
C296 C 0.57103 0.56963 0.00071 0.0
C297 C 0.55796 0.64515 0.03086 0.0
C298 C 0.53788 0.62908 0.04187 0.0
C299 C 0.53269 0.6545 0.03407 0.0
C300 C 0.5478 0.65678 0.02948 0.0
C301 C 0.52752 0.64057 0.04018 0.0
C302 C 0.55294 0.6313 0.03715 0.0
C303 C 0.57335 0.64713 0.02483 0.0
O304 O 0.6166 0.63267 0.01724 0.0
O305 O 0.60452 0.63345 0.99372 0.0
O306 O 0.57306 0.64328 0.00965 0.0
O307 O 0.58493 0.64182 0.03312 0.0
H308 H 0.60541 0.66468 0.00683 0.0
H309 H 0.61844 0.69089 0.00488 0.0
H310 H 0.66113 0.6707 0.9961 0.0
H311 H 0.64798 0.64448 0.99813 0.0
H312 H 0.61363 0.55834 0.00394 0.0
H313 H 0.60897 0.5859 0.00975 0.0
H314 H 0.56361 0.54524 0.99407 0.0
H315 H 0.55907 0.57262 1.00007 0.0
H316 H 0.53416 0.61817 0.04638 0.0
H317 H 0.525 0.66362 0.03276 0.0
H318 H 0.55144 0.66749 0.02459 0.0
H319 H 0.56055 0.62207 0.03812 0.0
C320 C 0.5937 0.33126 0.24918 0.0
C321 C 0.58649 0.33768 0.26186 0.0
C322 C 0.59504 0.31748 0.2776 0.0
C323 C 0.58716 0.33087 0.27594 0.0
C324 C 0.60228 0.31111 0.26482 0.0
C325 C 0.6016 0.31796 0.25072 0.0
U326 U 0.57834 0.36198 0.22556 0.0
O327 O 0.58952 0.37743 0.21003 0.0
O328 O 0.56865 0.36114 0.20086 0.0
C329 C 0.57986 0.37145 0.19764 0.0
C330 C 0.59286 0.33844 0.23438 0.0
C331 C 0.5872 0.36725 0.18333 0.0
C332 C 0.60249 0.3505 0.16795 0.0
C333 C 0.59579 0.35427 0.18184 0.0
C334 C 0.59208 0.3727 0.15704 0.0
C335 C 0.60072 0.3597 0.15538 0.0
C336 C 0.58542 0.37642 0.17088 0.0
C337 C 0.55236 0.38943 0.246 0.0
C338 C 0.53961 0.40945 0.23323 0.0
C339 C 0.53792 0.40738 0.26089 0.0
C340 C 0.54691 0.39475 0.26014 0.0
C341 C 0.5342 0.41492 0.24746 0.0
C342 C 0.54866 0.39681 0.23252 0.0
C343 C 0.56196 0.37627 0.24562 0.0
O344 O 0.5789 0.33658 0.22631 0.0
O345 O 0.59974 0.35288 0.2354 0.0
O346 O 0.57706 0.38005 0.24517 0.0
O347 O 0.5562 0.36379 0.23597 0.0
H348 H 0.58036 0.34799 0.26087 0.0
H349 H 0.58165 0.33621 0.28559 0.0
H350 H 0.60827 0.3007 0.26563 0.0
H351 H 0.60718 0.31283 0.24102 0.0
H352 H 0.60915 0.34049 0.1671 0.0
H353 H 0.5973 0.34707 0.19139 0.0
H354 H 0.59022 0.37987 0.14753 0.0
H355 H 0.57876 0.38644 0.17181 0.0
H356 H 0.53711 0.41512 0.22273 0.0
H357 H 0.53377 0.41116 0.27196 0.0
H358 H 0.54964 0.38913 0.27064 0.0
H359 H 0.55284 0.39286 0.2215 0.0
C360 C 0.0055 0.25749 0.84682 0.0
C361 C 0.00458 0.24955 0.83166 0.0
C362 C 0.00711 0.27445 0.82049 0.0
C363 C 0.00548 0.25793 0.81865 0.0
C364 C 0.00822 0.28235 0.83574 0.0
C365 C 0.00743 0.27393 0.84879 0.0
U366 U 0.98723 0.22177 0.86271 0.0
O367 O 0.99651 0.20647 0.87956 0.0
O368 O 0.97596 0.21869 0.88417 0.0
C369 C 0.98639 0.20982 0.88952 0.0
C370 C 0.00342 0.24867 0.8604 0.0
C371 C 0.993 0.21404 0.90594 0.0
C372 C 0.00816 0.23218 0.92663 0.0
C373 C 0.00237 0.22829 0.9108 0.0
C374 C 0.99537 0.20753 0.93276 0.0
C375 C 0.00467 0.22185 0.93782 0.0
C376 C 0.98962 0.20368 0.91698 0.0
C377 C 0.96075 0.19176 0.83277 0.0
C378 C 0.93487 0.17689 0.83031 0.0
C379 C 0.95634 0.16528 0.81922 0.0
C380 C 0.96634 0.17895 0.8245 0.0
C381 C 0.94046 0.16414 0.82194 0.0
C382 C 0.9449 0.19056 0.83567 0.0
C383 C 0.97124 0.20655 0.83728 0.0
O384 O 0.98913 0.24759 0.86462 0.0
O385 O 0.00965 0.23532 0.8601 0.0
O386 O 0.98611 0.20514 0.84141 0.0
O387 O 0.96579 0.21764 0.84611 0.0
H388 H 0.00294 0.23684 0.82984 0.0
H389 H 0.00485 0.25144 0.80714 0.0
H390 H 0.00926 0.29505 0.83759 0.0
H391 H 0.00799 0.28026 0.86038 0.0
H392 H 0.01538 0.24324 0.93011 0.0
H393 H 0.00511 0.23641 0.90237 0.0
H394 H 0.99221 0.19943 0.94107 0.0
H395 H 0.98235 0.19265 0.91342 0.0
H396 H 0.92272 0.17632 0.83268 0.0
H397 H 0.96095 0.15576 0.81258 0.0
H398 H 0.97841 0.17961 0.82185 0.0
H399 H 0.94014 0.20024 0.84188 0.0
C400 C 0.39741 0.79911 0.26383 0.0
C401 C 0.4049 0.80581 0.25197 0.0
C402 C 0.39011 0.78625 0.23227 0.0
C403 C 0.40124 0.79948 0.23632 0.0
C404 C 0.38264 0.77957 0.24423 0.0
C405 C 0.38625 0.78598 0.2599 0.0
U406 U 0.42551 0.82496 0.29406 0.0
O407 O 0.42174 0.84113 0.3144 0.0
O408 O 0.43547 0.82132 0.31777 0.0
C409 C 0.42888 0.83297 0.3245 0.0
C410 C 0.40169 0.80549 0.28032 0.0
C411 C 0.42045 0.82928 0.33792 0.0
C412 C 0.39682 0.8199 0.34897 0.0
C413 C 0.40444 0.82365 0.33598 0.0
C414 C 0.42116 0.82733 0.36588 0.0
C415 C 0.40512 0.82164 0.36408 0.0
C416 C 0.42872 0.83113 0.35293 0.0
C417 C 0.46128 0.8467 0.28003 0.0
C418 C 0.48261 0.8606 0.29826 0.0
C419 C 0.48228 0.86268 0.27037 0.0
C420 C 0.46822 0.85273 0.26754 0.0
C421 C 0.48965 0.86669 0.28576 0.0
C422 C 0.46851 0.85071 0.29541 0.0
C423 C 0.44657 0.83619 0.27687 0.0
O424 O 0.41455 0.8008 0.28697 0.0
O425 O 0.40101 0.82066 0.28333 0.0
O426 O 0.43376 0.84279 0.27923 0.0
O427 O 0.4469 0.82259 0.28251 0.0
H428 H 0.41369 0.81586 0.25483 0.0
H429 H 0.40737 0.80475 0.22743 0.0
H430 H 0.37392 0.76945 0.24145 0.0
H431 H 0.38042 0.78063 0.26894 0.0
H432 H 0.38444 0.81567 0.34717 0.0
H433 H 0.39787 0.82209 0.32444 0.0
H434 H 0.42803 0.8285 0.37724 0.0
H435 H 0.44111 0.83536 0.35462 0.0
H436 H 0.48787 0.86366 0.31026 0.0
H437 H 0.48748 0.86709 0.2605 0.0
H438 H 0.46278 0.84972 0.25559 0.0
H439 H 0.46324 0.84621 0.30521 0.0
C440 C 0.99337 0.642 0.64311 0.0
C441 C 0.99242 0.63377 0.65631 0.0
C442 C 0.99118 0.65816 0.67287 0.0
C443 C 0.99125 0.64174 0.67101 0.0
C444 C 0.99221 0.66636 0.65958 0.0
C445 C 0.99329 0.65833 0.64483 0.0
U446 U 0.00476 0.60646 0.61964 0.0
O447 O 0.99327 0.59189 0.59845 0.0
O448 O 0.01711 0.60367 0.5985 0.0
C449 C 0.005 0.59519 0.59021 0.0
C450 C 0.99484 0.6336 0.62767 0.0
C451 C 0.00103 0.59907 0.57404 0.0
C452 C 0.98192 0.60234 0.5521 0.0
C453 C 0.98549 0.60036 0.56796 0.0
C454 C 0.00937 0.60212 0.54825 0.0
C455 C 0.9938 0.60301 0.542 0.0
C456 C 0.01291 0.60011 0.56404 0.0
C457 C 0.02069 0.5745 0.64202 0.0
C458 C 0.03259 0.5529 0.62931 0.0
C459 C 0.02378 0.55109 0.655 0.0
C460 C 0.01892 0.56608 0.65494 0.0
C461 C 0.03054 0.54429 0.64213 0.0
C462 C 0.02761 0.56786 0.62921 0.0
C463 C 0.01466 0.58985 0.6418 0.0
O464 O 0.00932 0.63218 0.62461 0.0
O465 O 0.98537 0.62054 0.62389 0.0
O466 O 0.99981 0.58935 0.63634 0.0
O467 O 0.02374 0.60084 0.63647 0.0
H468 H 0.99257 0.62115 0.65525 0.0
H469 H 0.99022 0.63499 0.68088 0.0
H470 H 0.99243 0.67901 0.66059 0.0
H471 H 0.99415 0.66489 0.63479 0.0
H472 H 0.9698 0.60287 0.54767 0.0
H473 H 0.97602 0.59949 0.57533 0.0
H474 H 0.01886 0.60292 0.5409 0.0
H475 H 0.02496 0.59905 0.5684 0.0
H476 H 0.0376 0.54788 0.61917 0.0
H477 H 0.02218 0.54477 0.6651 0.0
H478 H 0.01358 0.57102 0.66491 0.0
H479 H 0.02894 0.57415 0.61905 0.0
C480 C 0.74153 0.40681 0.66343 0.0
C481 C 0.72954 0.41546 0.65798 0.0
C482 C 0.71254 0.4046 0.67611 0.0
C483 C 0.71519 0.41439 0.66427 0.0
C484 C 0.72466 0.39603 0.6816 0.0
C485 C 0.73905 0.39714 0.67529 0.0
U486 U 0.76556 0.42144 0.63258 0.0
O487 O 0.7903 0.43085 0.63341 0.0
O488 O 0.78118 0.40955 0.61771 0.0
C489 C 0.79362 0.41907 0.62384 0.0
C490 C 0.75637 0.40755 0.65637 0.0
C491 C 0.80749 0.41146 0.62911 0.0
C492 C 0.82516 0.40337 0.64986 0.0
C493 C 0.81148 0.40991 0.64505 0.0
C494 C 0.8307 0.39933 0.62281 0.0
C495 C 0.83499 0.39813 0.63879 0.0
C496 C 0.8171 0.40598 0.61803 0.0
C497 C 0.7462 0.44706 0.60415 0.0
C498 C 0.75779 0.455 0.58121 0.0
C499 C 0.73411 0.46547 0.5885 0.0
C500 C 0.73432 0.45675 0.60134 0.0
C501 C 0.74579 0.46464 0.57821 0.0
C502 C 0.75801 0.4463 0.59409 0.0
C503 C 0.74601 0.43779 0.61755 0.0
O504 O 0.75539 0.40041 0.64204 0.0
O505 O 0.76446 0.4215 0.65799 0.0
O506 O 0.75549 0.44369 0.63009 0.0
O507 O 0.74623 0.4226 0.61419 0.0
H508 H 0.73124 0.42291 0.64873 0.0
H509 H 0.70604 0.42095 0.65961 0.0
H510 H 0.72305 0.38851 0.6908 0.0
H511 H 0.7482 0.39038 0.67961 0.0
H512 H 0.82806 0.40244 0.66223 0.0
H513 H 0.80413 0.41393 0.6538 0.0
H514 H 0.83811 0.39554 0.61403 0.0
H515 H 0.8142 0.40707 0.60568 0.0
H516 H 0.76686 0.45393 0.57343 0.0
H517 H 0.72485 0.47294 0.58669 0.0
H518 H 0.72517 0.45752 0.60907 0.0
H519 H 0.76729 0.43888 0.59613 0.0
C520 C 0.7449 0.60136 0.22608 0.0
C521 C 0.75716 0.59474 0.21919 0.0
C522 C 0.77613 0.60839 0.2402 0.0
C523 C 0.77264 0.59826 0.22616 0.0
C524 C 0.76375 0.61501 0.24701 0.0
C525 C 0.74827 0.61151 0.23999 0.0
U526 U 0.71484 0.57508 0.1977 0.0
O527 O 0.69115 0.56452 0.20047 0.0
O528 O 0.69446 0.58048 0.18243 0.0
C529 C 0.68438 0.57228 0.18978 0.0
C530 C 0.72856 0.59729 0.21909 0.0
C531 C 0.67099 0.58019 0.19452 0.0
C532 C 0.65951 0.59797 0.21268 0.0
C533 C 0.67269 0.59156 0.20758 0.0
C534 C 0.64295 0.58205 0.1914 0.0
C535 C 0.64444 0.59311 0.20478 0.0
C536 C 0.6561 0.57566 0.18634 0.0
C537 C 0.72819 0.54086 0.17308 0.0
C538 C 0.70957 0.52332 0.15477 0.0
C539 C 0.73634 0.51724 0.15999 0.0
C540 C 0.73982 0.53096 0.17039 0.0
C541 C 0.72114 0.51321 0.15212 0.0
C542 C 0.71305 0.53701 0.16518 0.0
C543 C 0.73176 0.55481 0.1846 0.0
O544 O 0.72585 0.5993 0.20417 0.0
O545 O 0.72183 0.58388 0.22251 0.0
O546 O 0.72623 0.55338 0.19811 0.0
O547 O 0.72954 0.56828 0.17922 0.0
H548 H 0.75474 0.5868 0.20846 0.0
H549 H 0.78187 0.59312 0.22048 0.0
H550 H 0.76596 0.62266 0.25793 0.0
H551 H 0.73892 0.61662 0.24553 0.0
H552 H 0.66109 0.60658 0.22292 0.0
H553 H 0.68414 0.59522 0.21401 0.0
H554 H 0.63152 0.57785 0.18517 0.0
H555 H 0.65459 0.56684 0.17626 0.0
H556 H 0.69781 0.5207 0.14873 0.0
H557 H 0.74547 0.50964 0.15837 0.0
H558 H 0.75153 0.53373 0.1765 0.0
H559 H 0.70392 0.54454 0.16717 0.0
C560 C 0.35586 0.00517 0.35852 0.0
C561 C 0.34343 0.99394 0.36044 0.0
C562 C 0.32586 0.00572 0.34222 0.0
C563 C 0.32859 0.99415 0.3523 0.0
C564 C 0.33839 0.01686 0.34023 0.0
C565 C 0.35327 0.01656 0.34829 0.0
U566 U 0.37974 0.99674 0.39534 0.0
O567 O 0.40249 0.98761 0.39959 0.0
O568 O 0.39918 0.01106 0.41047 0.0
C569 C 0.40903 0.00058 0.40808 0.0
C570 C 0.37123 0.00567 0.36783 0.0
C571 C 0.425 0.00651 0.40508 0.0
C572 C 0.44731 0.0053 0.38995 0.0
C573 C 0.4314 0.00133 0.39136 0.0
C574 C 0.45045 0.02037 0.41555 0.0
C575 C 0.45709 0.01455 0.4022 0.0
C576 C 0.43457 0.01633 0.41698 0.0
C577 C 0.35944 0.97807 0.42679 0.0
C578 C 0.37476 0.96915 0.44877 0.0
C579 C 0.34772 0.97395 0.45073 0.0
C580 C 0.34649 0.97812 0.43542 0.0
C581 C 0.36193 0.96962 0.45763 0.0
C582 C 0.37356 0.97345 0.4335 0.0
C583 C 0.35848 0.98387 0.41129 0.0
O584 O 0.37308 0.01523 0.3809 0.0
O585 O 0.37634 0.99198 0.36959 0.0
O586 O 0.36516 0.97585 0.40051 0.0
O587 O 0.36176 0.99913 0.4116 0.0
H588 H 0.34511 0.98517 0.36846 0.0
H589 H 0.31913 0.98555 0.35426 0.0
H590 H 0.33668 0.02584 0.33246 0.0
H591 H 0.3627 0.02538 0.34673 0.0
H592 H 0.45205 0.00082 0.37943 0.0
H593 H 0.42427 0.99379 0.38195 0.0
H594 H 0.45768 0.0274 0.42523 0.0
H595 H 0.4299 0.02039 0.42771 0.0
H596 H 0.38589 0.96606 0.45385 0.0
H597 H 0.33761 0.9743 0.45725 0.0
H598 H 0.33554 0.98172 0.43044 0.0
H599 H 0.38376 0.97352 0.42708 0.0
C600 C 0.15581 0.01178 0.73843 0.0
C601 C 0.16942 0.01685 0.74872 0.0
C602 C 0.18568 0.01202 0.72759 0.0
C603 C 0.18419 0.01693 0.74339 0.0
C604 C 0.17197 0.00696 0.71727 0.0
C605 C 0.15714 0.00685 0.72267 0.0
U606 U 0.13362 0.02256 0.7721 0.0
O607 O 0.11146 0.03282 0.77418 0.0
O608 O 0.11443 0.00985 0.78245 0.0
C609 C 0.10479 0.02042 0.7797 0.0
C610 C 0.1404 0.01176 0.74437 0.0
C611 C 0.08896 0.01427 0.77225 0.0
C612 C 0.06945 0.00885 0.74944 0.0
C613 C 0.08484 0.01399 0.75603 0.0
C614 C 0.06231 0.00373 0.77511 0.0
C615 C 0.05797 0.00379 0.75894 0.0
C616 C 0.07765 0.00895 0.78169 0.0
C617 C 0.16019 0.04305 0.80876 0.0
C618 C 0.15522 0.0622 0.8299 0.0
C619 C 0.17708 0.04675 0.83342 0.0
C620 C 0.17308 0.03917 0.81827 0.0
C621 C 0.1683 0.05845 0.83937 0.0
C622 C 0.15116 0.05452 0.81473 0.0
C623 C 0.15711 0.03555 0.79248 0.0
O624 O 0.13845 0.00284 0.75571 0.0
O625 O 0.13581 0.02575 0.74733 0.0
O626 O 0.14961 0.04331 0.78225 0.0
O627 O 0.15252 0.02041 0.79069 0.0
H628 H 0.16861 0.02067 0.76096 0.0
H629 H 0.19446 0.02062 0.75173 0.0
H630 H 0.17271 0.00324 0.70501 0.0
H631 H 0.14673 0.00296 0.71456 0.0
H632 H 0.06651 0.00887 0.73692 0.0
H633 H 0.09346 0.01793 0.74851 0.0
H634 H 0.05372 1.00011 0.78278 0.0
H635 H 0.08061 0.00908 0.79422 0.0
H636 H 0.14816 0.07106 0.83423 0.0
H637 H 0.18734 0.04374 0.84032 0.0
H638 H 0.18026 0.03044 0.81385 0.0
H639 H 0.14111 0.05769 0.80762 0.0
C640 C 0.66401 0.73801 0.41255 0.0
C641 C 0.65778 0.72519 0.41967 0.0
C642 C 0.67692 0.7092 0.4092 0.0
C643 C 0.66418 0.71092 0.41802 0.0
C644 C 0.68315 0.72214 0.40212 0.0
C645 C 0.67674 0.73644 0.40379 0.0
U646 U 0.63278 0.76117 0.42773 0.0
O647 O 0.63355 0.78542 0.43868 0.0
O648 O 0.61835 0.77765 0.41672 0.0
C649 C 0.62392 0.78943 0.42733 0.0
C650 C 0.657 0.75287 0.41404 0.0
C651 C 0.62871 0.80434 0.42136 0.0
C652 C 0.64639 0.8209 0.40803 0.0
C653 C 0.64177 0.80625 0.41292 0.0
C654 C 0.62478 0.83164 0.4198 0.0
C655 C 0.63804 0.8338 0.41163 0.0
C656 C 0.62018 0.81705 0.42461 0.0
C657 C 0.60282 0.74164 0.45088 0.0
C658 C 0.5814 0.75575 0.4589 0.0
C659 C 0.58372 0.72955 0.46621 0.0
C660 C 0.59725 0.72892 0.4585 0.0
C661 C 0.57555 0.74291 0.46634 0.0
C662 C 0.59492 0.75512 0.45126 0.0
C663 C 0.61671 0.74081 0.44237 0.0
O664 O 0.64287 0.75236 0.40654 0.0
O665 O 0.65824 0.76005 0.42837 0.0
O666 O 0.62938 0.74966 0.44903 0.0
O667 O 0.61414 0.74168 0.4272 0.0
H668 H 0.64788 0.7262 0.42641 0.0
H669 H 0.65893 0.70114 0.42342 0.0
H670 H 0.69306 0.72125 0.39538 0.0
H671 H 0.68167 0.74624 0.39822 0.0
H672 H 0.65669 0.82223 0.40182 0.0
H673 H 0.64849 0.79651 0.41033 0.0
H674 H 0.61794 0.84126 0.4225 0.0
H675 H 0.61002 0.81574 0.43106 0.0
H676 H 0.57551 0.76629 0.45898 0.0
H677 H 0.57943 0.71943 0.47172 0.0
H678 H 0.60324 0.71843 0.45832 0.0
H679 H 0.59914 0.7651 0.44551 0.0
C680 C 0.73646 0.16194 0.01255 0.0
C681 C 0.74668 0.1759 0.01491 0.0
C682 C 0.72454 0.19133 0.01264 0.0
C683 C 0.74081 0.19041 0.01485 0.0
C684 C 0.7143 0.17728 0.01012 0.0
C685 C 0.72023 0.1627 0.0101 0.0
U686 U 0.76981 0.14148 0.02784 0.0
O687 O 0.7714 0.11964 0.0389 0.0
O688 O 0.78266 0.12297 0.01749 0.0
C689 C 0.77912 0.11337 0.02788 0.0
C690 C 0.74288 0.14683 0.01367 0.0
C691 C 0.77353 0.0971 0.02153 0.0
C692 C 0.75538 0.07775 0.00453 0.0
C693 C 0.76004 0.09338 0.01074 0.0
C694 C 0.77756 0.06955 0.02001 0.0
C695 C 0.76419 0.06568 0.009 0.0
C696 C 0.78217 0.0851 0.02618 0.0
C697 C 0.80332 0.16972 0.05158 0.0
C698 C 0.82511 0.16259 0.06858 0.0
C699 C 0.82525 0.18916 0.06157 0.0
C700 C 0.81077 0.18503 0.0526 0.0
C701 C 0.83256 0.17804 0.06978 0.0
C702 C 0.81059 0.15845 0.05953 0.0
C703 C 0.7879 0.166 0.04234 0.0
O704 O 0.75535 0.14512 0.00627 0.0
O705 O 0.74436 0.14252 0.02791 0.0
O706 O 0.77705 0.15804 0.04898 0.0
O707 O 0.78806 0.16118 0.02741 0.0
H708 H 0.75926 0.1756 0.01695 0.0
H709 H 0.74906 0.20092 0.01652 0.0
H710 H 0.70171 0.17757 0.00851 0.0
H711 H 0.71216 0.15204 0.00843 0.0
H712 H 0.74508 0.07517 0.99603 0.0
H713 H 0.75324 0.10255 0.00702 0.0
H714 H 0.78443 0.06053 0.02395 0.0
H715 H 0.79258 0.08778 0.03455 0.0
H716 H 0.83038 0.15376 0.07481 0.0
H717 H 0.8308 0.20105 0.06193 0.0
H718 H 0.80536 0.19385 0.04645 0.0
H719 H 0.80499 0.14654 0.05882 0.0
C720 C 0.22356 0.74382 0.59739 0.0
C721 C 0.21675 0.75554 0.58975 0.0
C722 C 0.23598 0.77559 0.60466 0.0
C723 C 0.22287 0.77128 0.59338 0.0
C724 C 0.24272 0.76374 0.61226 0.0
C725 C 0.23655 0.74801 0.60866 0.0
U726 U 0.19893 0.71127 0.57002 0.0
O727 O 0.20419 0.68767 0.56161 0.0
O728 O 0.18418 0.69042 0.57518 0.0
C729 C 0.19295 0.68064 0.56852 0.0
C730 C 0.21756 0.72719 0.59338 0.0
C731 C 0.19753 0.66797 0.57762 0.0
C732 C 0.21476 0.65805 0.59752 0.0
C733 C 0.2098 0.67062 0.58988 0.0
C734 C 0.19487 0.64024 0.58101 0.0
C735 C 0.20749 0.64267 0.593 0.0
C736 C 0.18996 0.65278 0.57341 0.0
C737 C 0.17617 0.72046 0.53245 0.0
C738 C 0.17018 0.7038 0.50764 0.0
C739 C 0.15244 0.72256 0.51532 0.0
C740 C 0.16234 0.72743 0.52919 0.0
C741 C 0.15624 0.71068 0.50435 0.0
C742 C 0.17999 0.70856 0.52156 0.0
C743 C 0.18637 0.72564 0.54726 0.0
O744 O 0.2024 0.72374 0.59386 0.0
O745 O 0.22271 0.72028 0.5809 0.0
O746 O 0.20073 0.72159 0.54789 0.0
O747 O 0.17983 0.72391 0.56023 0.0
H748 H 0.20673 0.75248 0.58095 0.0
H749 H 0.21726 0.78009 0.58743 0.0
H750 H 0.25296 0.76656 0.62081 0.0
H751 H 0.24204 0.73909 0.61458 0.0
H752 H 0.2244 0.66035 0.6068 0.0
H753 H 0.21575 0.68232 0.59331 0.0
H754 H 0.18916 0.62855 0.57704 0.0
H755 H 0.18049 0.65054 0.56393 0.0
H756 H 0.17362 0.69479 0.4994 0.0
H757 H 0.14169 0.72795 0.51334 0.0
H758 H 0.15913 0.73658 0.53744 0.0
H759 H 0.19055 0.70291 0.52374 0.0
C760 C 0.35958 0.35407 0.00137 0.0
C761 C 0.36054 0.34164 0.98977 0.0
C762 C 0.34272 0.32441 0.00235 0.0
C763 C 0.35211 0.32699 0.9902 0.0
C764 C 0.34165 0.33694 0.01385 0.0
C765 C 0.34998 0.35165 0.01333 0.0
U766 U 0.39736 0.37634 0.99325 0.0
O767 O 0.40273 0.39853 0.98341 0.0
O768 O 0.41277 0.39576 0.00731 0.0
C769 C 0.41091 0.40531 0.99644 0.0
C770 C 0.36936 0.36917 0.0017 0.0
C771 C 0.40769 0.42136 0.0018 0.0
C772 C 0.39159 0.44293 0.00055 0.0
C773 C 0.39352 0.4271 0.99688 0.0
C774 C 0.41762 0.44731 0.01478 0.0
C775 C 0.40374 0.45327 0.00927 0.0
C776 C 0.41959 0.43151 0.01101 0.0
C777 C 0.42786 0.35302 0.97576 0.0
C778 C 0.45277 0.36591 0.97022 0.0
C779 C 0.44785 0.33751 0.9667 0.0
C780 C 0.43289 0.33841 0.97145 0.0
C781 C 0.45803 0.35124 0.9662 0.0
C782 C 0.4378 0.36678 0.97501 0.0
C783 C 0.41242 0.35372 0.98146 0.0
O784 O 0.38221 0.37088 0.01157 0.0
O785 O 0.37166 0.37385 0.98794 0.0
O786 O 0.40242 0.36084 0.97294 0.0
O787 O 0.41276 0.35779 0.99661 0.0
H788 H 0.36807 0.34315 0.98055 0.0
H789 H 0.35337 0.31752 0.98131 0.0
H790 H 0.33444 0.33533 0.0233 0.0
H791 H 0.34917 0.36106 0.02244 0.0
H792 H 0.38068 0.44715 0.99632 0.0
H793 H 0.3841 0.41949 0.98985 0.0
H794 H 0.42723 0.455 0.02141 0.0
H795 H 0.43063 0.42733 0.01488 0.0
H796 H 0.46039 0.37667 0.97011 0.0
H797 H 0.45148 0.32605 0.96348 0.0
H798 H 0.42532 0.32768 0.97193 0.0
H799 H 0.43407 0.37817 0.97836 0.0
C800 C 0.41017 0.66131 0.73857 0.0
C801 C 0.41681 0.65373 0.72608 0.0
C802 C 0.40584 0.6711 0.70831 0.0
C803 C 0.41466 0.65857 0.7111 0.0
C804 C 0.39939 0.67882 0.72093 0.0
C805 C 0.40151 0.67392 0.73596 0.0
U806 U 0.42817 0.63367 0.76412 0.0
O807 O 0.43962 0.6367 0.78836 0.0
O808 O 0.41879 0.61956 0.78171 0.0
C809 C 0.42924 0.62646 0.79308 0.0
C810 C 0.41226 0.65584 0.75418 0.0
C811 C 0.42322 0.63116 0.808 0.0
C812 C 0.40932 0.6483 0.82453 0.0
C813 C 0.41446 0.64398 0.80992 0.0
C814 C 0.42149 0.62689 0.8352 0.0
C815 C 0.41295 0.63989 0.83738 0.0
C816 C 0.42658 0.6226 0.82067 0.0
C817 C 0.45351 0.60485 0.74505 0.0
C818 C 0.47519 0.59276 0.75743 0.0
C819 C 0.4593 0.57913 0.73441 0.0
C820 C 0.45029 0.59172 0.73379 0.0
C821 C 0.47186 0.57946 0.74626 0.0
C822 C 0.46607 0.60529 0.75688 0.0
C823 C 0.44356 0.61781 0.74431 0.0
O824 O 0.40585 0.64146 0.75491 0.0
O825 O 0.42664 0.65861 0.76131 0.0
O826 O 0.44935 0.63134 0.75219 0.0
O827 O 0.42864 0.61407 0.74575 0.0
H828 H 0.42361 0.64401 0.72793 0.0
H829 H 0.42 0.65253 0.70171 0.0
H830 H 0.39244 0.68842 0.71912 0.0
H831 H 0.39632 0.67989 0.74549 0.0
H832 H 0.40281 0.65839 0.82586 0.0
H833 H 0.41176 0.65069 0.8002 0.0
H834 H 0.42423 0.61998 0.84475 0.0
H835 H 0.43324 0.61261 0.81935 0.0
H836 H 0.48488 0.59353 0.76659 0.0
H837 H 0.45619 0.56899 0.72578 0.0
H838 H 0.44063 0.59112 0.72459 0.0
H839 H 0.46883 0.61526 0.76576 0.0
C840 C 0.0079 0.74125 0.15572 0.0
C841 C 0.01549 0.75017 0.16935 0.0
C842 C 0.00552 0.73055 0.18535 0.0
C843 C 0.0143 0.74489 0.18401 0.0
C844 C 0.99824 0.72139 0.17162 0.0
C845 C 0.99937 0.72676 0.15688 0.0
U846 U 0.02344 0.7742 0.13507 0.0
O847 O 0.03332 0.77588 0.11266 0.0
O848 O 0.01253 0.78773 0.11738 0.0
C849 C 0.02212 0.7838 0.10706 0.0
C850 C 0.00864 0.74761 0.14058 0.0
C851 C 0.01469 0.77831 0.09106 0.0
C852 C 0.00674 0.75773 0.0695 0.0
C853 C 0.01296 0.76239 0.0851 0.0
C854 C 0.0034 0.78477 0.06586 0.0
C855 C 0.00211 0.76891 0.05962 0.0
C856 C 0.00966 0.7894 0.0814 0.0
C857 C 0.04923 0.80653 0.16334 0.0
C858 C 0.0667 0.82815 0.15657 0.0
C859 C 0.06015 0.8277 0.18326 0.0
C860 C 0.05073 0.81353 0.17885 0.0
C861 C 0.06834 0.83516 0.17222 0.0
C862 C 0.0572 0.81392 0.15216 0.0
C863 C 0.03947 0.79143 0.15936 0.0
O864 O 0.00174 0.76047 0.13953 0.0
O865 O 0.02262 0.74862 0.13561 0.0
O866 O 0.0454 0.78056 0.15068 0.0
O867 O 0.02448 0.79218 0.15527 0.0
H868 H 0.02218 0.76137 0.16867 0.0
H869 H 0.02024 0.75209 0.19433 0.0
H870 H 0.99135 0.71031 0.17233 0.0
H871 H 0.99344 0.71974 0.14646 0.0
H872 H 0.00603 0.74544 0.06506 0.0
H873 H 0.01668 0.7536 0.0924 0.0
H874 H 0.99967 0.79365 0.0587 0.0
H875 H 0.01079 0.80173 0.08581 0.0
H876 H 0.0729 0.83355 0.1478 0.0
H877 H 0.06084 0.83292 0.19531 0.0
H878 H 0.04459 0.808 0.18761 0.0
H879 H 0.05614 0.80867 0.14009 0.0
C880 C 0.60118 0.2155 0.74308 0.0
C881 C 0.59448 0.207 0.7543 0.0
C882 C 0.60864 0.22552 0.77535 0.0
C883 C 0.59824 0.21192 0.7703 0.0
C884 C 0.61532 0.234 0.76405 0.0
C885 C 0.61163 0.229 0.74804 0.0
U886 U 0.57261 0.19371 0.71003 0.0
O887 O 0.56416 0.20033 0.68698 0.0
O888 O 0.57658 0.17936 0.68846 0.0
C889 C 0.57038 0.18897 0.6793 0.0
C890 C 0.59688 0.21071 0.72622 0.0
C891 C 0.57949 0.1935 0.66658 0.0
C892 C 0.59699 0.21218 0.65537 0.0
C893 C 0.58943 0.20763 0.66812 0.0
C894 C 0.58525 0.18822 0.63968 0.0
C895 C 0.59481 0.20261 0.64093 0.0
C896 C 0.57766 0.18374 0.65238 0.0
C897 C 0.53465 0.17177 0.71959 0.0
C898 C 0.50902 0.16736 0.70423 0.0
C899 C 0.51724 0.14805 0.72099 0.0
C900 C 0.53146 0.15742 0.72568 0.0
C901 C 0.50583 0.15289 0.71019 0.0
C902 C 0.52328 0.17666 0.70882 0.0
C903 C 0.54984 0.18138 0.72456 0.0
O904 O 0.59669 0.19564 0.72175 0.0
O905 O 0.58466 0.2168 0.71997 0.0
O906 O 0.55088 0.19592 0.72103 0.0
O907 O 0.56243 0.1744 0.72214 0.0
H908 H 0.58622 0.19664 0.75067 0.0
H909 H 0.59276 0.20527 0.77871 0.0
H910 H 0.62346 0.24444 0.76759 0.0
H911 H 0.61685 0.23573 0.73953 0.0
H912 H 0.6044 0.22326 0.65675 0.0
H913 H 0.59108 0.21528 0.67906 0.0
H914 H 0.58314 0.18068 0.62868 0.0
H915 H 0.57003 0.17279 0.65098 0.0
H916 H 0.50044 0.1716 0.69608 0.0
H917 H 0.51533 0.13687 0.72564 0.0
H918 H 0.54004 0.15339 0.73398 0.0
H919 H 0.52537 0.18767 0.70389 0.0
C920 C 0.00242 0.35893 0.35666 0.0
C921 C 0.98995 0.36081 0.34546 0.0
C922 C 0.00184 0.34582 0.32519 0.0
C923 C 0.98961 0.35424 0.32993 0.0
C924 C 0.01408 0.34355 0.33657 0.0
C925 C 0.01436 0.35007 0.35216 0.0
U926 U 0.99475 0.39447 0.38249 0.0
O927 O 0.98714 0.39803 0.40604 0.0
O928 O 0.00984 0.40963 0.40134 0.0
C929 C 1.00017 0.40684 0.41187 0.0
C930 C 0.00379 0.36744 0.37252 0.0
C931 C 0.00731 0.4035 0.42723 0.0
C932 C 0.01277 0.38551 0.44658 0.0
C933 C 0.00734 0.38812 0.43129 0.0
C934 C 0.01877 0.41355 0.45363 0.0
C935 C 0.01826 0.39823 0.45801 0.0
C936 C 0.01333 0.41614 0.43839 0.0
C937 C 0.97431 0.42586 0.36361 0.0
C938 C 0.96608 0.44784 0.3795 0.0
C939 C 0.96955 0.4498 0.35216 0.0
C940 C 0.97368 0.43448 0.35065 0.0
C941 C 0.96595 0.45672 0.36666 0.0
C942 C 0.97033 0.43256 0.37802 0.0
C943 C 0.98029 0.41046 0.36227 0.0
O944 O 0.01314 0.38065 0.37437 0.0
O945 O 0.99052 0.36869 0.37868 0.0
O946 O 0.97294 0.39957 0.36938 0.0
O947 O 0.99564 0.41098 0.36462 0.0
H948 H 0.98067 0.36773 0.34862 0.0
H949 H 0.97987 0.356 0.32157 0.0
H950 H 0.02377 0.33729 0.33331 0.0
H951 H 0.02417 0.34863 0.3606 0.0
H952 H 0.01209 0.37357 0.44959 0.0
H953 H 0.00276 0.37819 0.42281 0.0
H954 H 0.02316 0.42358 0.46206 0.0
H955 H 0.01345 0.42809 0.43543 0.0
H956 H 0.96353 0.45294 0.39085 0.0
H957 H 0.96944 0.45634 0.34204 0.0
H958 H 0.97677 0.42952 0.33946 0.0
H959 H 0.97093 0.42614 0.38822 0.0
H960 H 0.25084 0.45234 0.56548 0.0
C961 C 0.25137 0.46329 0.573 0.0
C962 C 0.2564 0.47744 0.56731 0.0
C963 C 0.24648 0.46331 0.58814 0.0
H964 H 0.25993 0.5026 0.57224 0.0
C965 C 0.25667 0.49162 0.57688 0.0
C966 C 0.25142 0.49193 0.59176 0.0
C967 C 0.24638 0.47775 0.59738 0.0
C968 C 0.24071 0.44835 0.594 0.0
H969 H 0.24234 0.47802 0.60892 0.0
C970 C 0.24873 0.43493 0.59191 0.0
C971 C 0.24319 0.42077 0.59745 0.0
C972 C 0.22703 0.44743 0.60167 0.0
H973 H 0.22048 0.45746 0.60325 0.0
C974 C 0.2215 0.43346 0.60717 0.0
H975 H 0.25927 0.43551 0.58599 0.0
C976 C 0.2295 0.42023 0.60512 0.0
H977 H 0.22505 0.40961 0.60973 0.0
H978 H 0.21097 0.43289 0.61308 0.0
H979 H 0.34722 0.63592 0.97545 0.0
C980 C 0.35278 0.62784 0.98248 0.0
C981 C 0.34747 0.61177 0.97975 0.0
C982 C 0.36556 0.63336 0.99382 0.0
H983 H 0.35094 0.58883 0.98642 0.0
C984 C 0.35476 0.6013 0.98874 0.0
C985 C 0.36771 0.6065 0.99982 0.0
C986 C 0.37335 0.62249 0.00204 0.0
C987 C 0.37088 0.65037 0.99666 0.0
H988 H 0.38358 0.62633 0.01035 0.0
C989 C 0.35704 0.66427 0.99381 0.0
C990 C 0.36372 0.68498 0.99503 0.0
C991 C 0.3914 0.65719 0.00222 0.0
H992 H 0.39987 0.64891 0.0041 0.0
C993 C 0.39787 0.67789 0.00444 0.0
H994 H 0.34471 0.66024 0.99083 0.0
C995 C 0.38435 0.69155 1.0002 0.0
H996 H 0.38855 0.7039 0.00141 0.0
H997 H 0.41011 0.68199 0.00794 0.0
H998 H 0.67684 0.05946 0.37283 0.0
C999 C 0.67649 0.04706 0.37421 0.0
C1000 C 0.66388 0.04003 0.38082 0.0
C1001 C 0.6886 0.03869 0.36948 0.0
H1002 H 0.6683 0.01592 0.38049 0.0
C1003 C 0.66204 0.02409 0.38239 0.0
C1004 C 0.67436 0.01261 0.37854 0.0
C1005 C 0.68898 0.02291 0.37223 0.0
C1006 C 0.70119 0.04653 0.36133 0.0
H1007 H 0.70006 0.01865 0.37011 0.0
C1008 C 0.7078 0.06206 0.36632 0.0
C1009 C 0.71914 0.0696 0.35804 0.0
C1010 C 0.70625 0.03855 0.34803 0.0
H1011 H 0.70115 0.02676 0.34368 0.0
C1012 C 0.71764 0.04582 0.33994 0.0
H1013 H 0.70423 0.06821 0.37674 0.0
C1014 C 0.724 0.06125 0.34482 0.0
H1015 H 0.73247 0.06674 0.338 0.0
H1016 H 0.72136 0.03955 0.32967 0.0
H1017 H 0.747 0.85816 0.00134 0.0
C1018 C 0.74604 0.86991 0.99817 0.0
C1019 C 0.75448 0.88276 0.00775 0.0
C1020 C 0.73691 0.87222 0.98423 0.0
H1021 H 0.75988 0.90793 0.0109 0.0
C1022 C 0.75366 0.89793 0.00338 0.0
C1023 C 0.74443 0.90051 0.98978 0.0
C1024 C 0.73592 0.88767 0.98034 0.0
C1025 C 0.72894 0.85859 0.97334 0.0
H1026 H 0.72871 0.88974 0.96987 0.0
C1027 C 0.72154 0.84524 0.97901 0.0
C1028 C 0.71382 0.83262 0.96848 0.0
C1029 C 0.72879 0.85891 0.95702 0.0
H1030 H 0.7347 0.86876 0.95225 0.0
C1031 C 0.72124 0.84641 0.94661 0.0
H1032 H 0.72139 0.84482 0.99153 0.0
C1033 C 0.71375 0.83339 0.95226 0.0
H1034 H 0.70807 0.82377 0.94391 0.0
H1035 H 0.72125 0.8468 0.93409 0.0
H1036 H 0.56641 0.24757 0.45012 0.0
C1037 C 0.57368 0.2475 0.46113 0.0
C1038 C 0.5677 0.25179 0.47533 0.0
C1039 C 0.58878 0.24256 0.46118 0.0
H1040 H 0.57192 0.25374 0.50049 0.0
C1041 C 0.57691 0.25117 0.48957 0.0
C1042 C 0.59186 0.246 0.48989 0.0
C1043 C 0.59778 0.24184 0.47563 0.0
C1044 C 0.59488 0.23718 0.44626 0.0
H1045 H 0.60935 0.2379 0.47578 0.0
C1046 C 0.59404 0.24609 0.4334 0.0
C1047 C 0.60038 0.24111 0.4195 0.0
C1048 C 0.60179 0.22307 0.44495 0.0
H1049 H 0.60239 0.21587 0.45458 0.0
C1050 C 0.60785 0.21798 0.43115 0.0
H1051 H 0.58894 0.25711 0.43439 0.0
C1052 C 0.6072 0.22692 0.41853 0.0
H1053 H 0.61192 0.22264 0.40791 0.0
H1054 H 0.61307 0.20705 0.43024 0.0
H1055 H 0.00574 0.74928 0.85611 0.0
C1056 C 0.00155 0.74621 0.86698 0.0
C1057 C 0.01225 0.74712 0.88048 0.0
C1058 C 0.98548 0.74158 0.86758 0.0
H1059 H 0.01517 0.74491 0.90518 0.0
C1060 C 0.00689 0.74357 0.89467 0.0
C1061 C 0.99091 0.73935 0.89567 0.0
C1062 C 0.98025 0.73829 0.88206 0.0
C1063 C 0.97413 0.74046 0.8532 0.0
H1064 H 0.96793 0.73477 0.88276 0.0
C1065 C 0.978 0.73401 0.83857 0.0
C1066 C 0.96721 0.73283 0.82496 0.0
C1067 C 0.95931 0.74583 0.85404 0.0
H1068 H 0.95605 0.75109 0.86503 0.0
C1069 C 0.94858 0.74468 0.84064 0.0
H1070 H 0.9894 0.72988 0.8378 0.0
C1071 C 0.95244 0.73821 0.82622 0.0
H1072 H 0.94374 0.73722 0.81609 0.0
H1073 H 0.93718 0.74881 0.84143 0.0
H1074 H 0.97779 0.3333 0.6348 0.0
C1075 C 0.98539 0.33903 0.62735 0.0
C1076 C 0.98552 0.33227 0.61186 0.0
C1077 C 0.99438 0.35342 0.63275 0.0
H1078 H 0.9955 0.33442 0.59012 0.0
C1079 C 0.99565 0.33936 0.60222 0.0
C1080 C 0.0049 0.35356 0.6075 0.0
C1081 C 0.00399 0.36074 0.62268 0.0
C1082 C 0.99379 0.36112 0.64872 0.0
H1083 H 0.01094 0.37186 0.62668 0.0
C1084 C 0.99599 0.35021 0.66549 0.0
C1085 C 0.99872 0.36043 0.68513 0.0
C1086 C 0.99349 0.38186 0.65158 0.0
H1087 H 0.99205 0.38842 0.64154 0.0
C1088 C 0.99702 0.39216 0.67111 0.0
H1089 H 0.9962 0.33762 0.66374 0.0
C1090 C 1.00004 0.38132 0.68779 0.0
H1091 H 0.00207 0.38757 0.69946 0.0
H1092 H 0.99738 0.40482 0.67278 0.0
H1093 H 0.37213 0.67756 0.06295 0.0
C1094 C 0.37245 0.6762 0.05035 0.0
C1095 C 0.37854 0.66344 0.04342 0.0
C1096 C 0.36717 0.68725 0.04113 0.0
H1097 H 0.38005 0.64907 0.02381 0.0
C1098 C 0.37746 0.66081 0.02696 0.0
C1099 C 0.37493 0.67243 0.01528 0.0
C1100 C 0.36961 0.68604 0.02508 0.0
C1101 C 0.3597 0.70077 0.04833 0.0
H1102 H 0.36774 0.69714 0.02081 0.0
C1103 C 0.36497 0.70803 0.0636 0.0
C1104 C 0.35745 0.72039 0.07041 0.0
C1105 C 0.34684 0.70623 0.03995 0.0
H1106 H 0.3422 0.70065 0.02842 0.0
C1107 C 0.33962 0.71872 0.04646 0.0
H1108 H 0.37502 0.70422 0.07017 0.0
C1109 C 0.34483 0.72575 0.0616 0.0
H1110 H 0.33872 0.73513 0.06656 0.0
H1111 H 0.32975 0.72278 0.03984 0.0
H1112 H 0.45097 0.56242 0.24666 0.0
C1113 C 0.46222 0.56944 0.24728 0.0
C1114 C 0.47605 0.56269 0.25135 0.0
C1115 C 0.46294 0.585 0.24345 0.0
H1116 H 0.50133 0.56631 0.25426 0.0
C1117 C 0.4906 0.57167 0.25176 0.0
C1118 C 0.49158 0.58704 0.24766 0.0
C1119 C 0.47773 0.59368 0.24354 0.0
C1120 C 0.44832 0.59192 0.23852 0.0
H1121 H 0.47852 0.60558 0.24038 0.0
C1122 C 0.43492 0.5898 0.2466 0.0
C1123 C 0.42105 0.59625 0.24175 0.0
C1124 C 0.44765 0.60059 0.22552 0.0
H1125 H 0.45765 0.60223 0.21892 0.0
C1126 C 0.43398 0.60703 0.2207 0.0
H1127 H 0.43529 0.58312 0.25662 0.0
C1128 C 0.42078 0.6049 0.22872 0.0
H1129 H 0.4104 0.61021 0.22484 0.0
H1130 H 0.43362 0.61369 0.21068 0.0
H1131 H 0.85274 0.0129 0.73801 0.0
C1132 C 0.86404 0.00951 0.7353 0.0
C1133 C 0.87736 0.02062 0.73828 0.0
C1134 C 0.86537 0.99398 0.72916 0.0
H1135 H 0.90238 0.02455 0.73795 0.0
C1136 C 0.89202 0.01613 0.73507 0.0
C1137 C 0.89366 0.00069 0.7292 0.0
C1138 C 0.88028 0.98967 0.72624 0.0
C1139 C 0.85135 0.98211 0.72626 0.0
H1140 H 0.88148 0.97775 0.72155 0.0
C1141 C 0.83699 0.98572 0.71885 0.0
C1142 C 0.82396 0.97419 0.7156 0.0
C1143 C 0.85236 0.96694 0.73071 0.0
H1144 H 0.86313 0.96389 0.73666 0.0
C1145 C 0.83942 0.95557 0.72769 0.0
H1146 H 0.83612 0.99729 0.71515 0.0
C1147 C 0.82534 0.95911 0.72013 0.0
H1148 H 0.81546 0.95007 0.71794 0.0
H1149 H 0.84033 0.94394 0.73121 0.0
H1150 H 0.63621 0.97335 0.35119 0.0
C1151 C 0.62891 0.98125 0.35683 0.0
C1152 C 0.61292 0.98037 0.35142 0.0
C1153 C 0.63535 0.99207 0.3697 0.0
H1154 H 0.59105 0.9896 0.35478 0.0
C1155 C 0.6035 0.99056 0.35874 0.0
C1156 C 0.60966 0.00116 0.37181 0.0
C1157 C 0.62557 0.00167 0.37745 0.0
C1158 C 0.65231 0.99351 0.37482 0.0
H1159 H 0.63032 0.00982 0.38758 0.0
C1160 C 0.66588 0.99127 0.36051 0.0
C1161 C 0.6868 0.99276 0.36661 0.0
C1162 C 0.65947 0.99867 0.39526 0.0
H1163 H 0.65136 0.00044 0.40394 0.0
C1164 C 0.68035 0.00135 0.4012 0.0
H1165 H 0.66155 0.98863 0.34822 0.0
C1166 C 0.69383 0.99771 0.38721 0.0
H1167 H 0.70626 0.99909 0.39112 0.0
H1168 H 0.68469 0.00476 0.4134 0.0
H1169 H 0.06124 0.37776 0.66504 0.0
C1170 C 0.04869 0.37633 0.66577 0.0
C1171 C 0.0396 0.3873 0.66047 0.0
C1172 C 0.04163 0.36345 0.67173 0.0
H1173 H 0.01872 0.39571 0.65671 0.0
C1174 C 0.02335 0.38564 0.66132 0.0
C1175 C 0.01343 0.37269 0.66747 0.0
C1176 C 0.02522 0.36176 0.67243 0.0
C1177 C 0.05159 0.35156 0.67758 0.0
H1178 H 0.02214 0.35114 0.67765 0.0
C1179 C 0.06599 0.35634 0.68686 0.0
C1180 C 0.07542 0.34523 0.69248 0.0
C1181 C 0.04676 0.33541 0.67394 0.0
H1182 H 0.03591 0.33133 0.66657 0.0
C1183 C 0.056 0.32434 0.67963 0.0
H1184 H 0.06974 0.36874 0.68998 0.0
C1185 C 0.07023 0.32918 0.68887 0.0
H1186 H 0.07731 0.32037 0.69294 0.0
H1187 H 0.05217 0.31195 0.67675 0.0
H1188 H 0.73604 0.53281 0.42242 0.0
C1189 C 0.74463 0.52548 0.41826 0.0
C1190 C 0.75386 0.5181 0.42907 0.0
C1191 C 0.74613 0.52305 0.40208 0.0
H1192 H 0.77141 0.50213 0.43179 0.0
C1193 C 0.76472 0.50838 0.42359 0.0
C1194 C 0.7662 0.50559 0.40753 0.0
C1195 C 0.75689 0.51295 0.39681 0.0
C1196 C 0.73607 0.53059 0.39064 0.0
H1197 H 0.75811 0.51082 0.3844 0.0
C1198 C 0.73319 0.54634 0.39385 0.0
C1199 C 0.72359 0.55348 0.38308 0.0
C1200 C 0.72919 0.52202 0.37647 0.0
H1201 H 0.73096 0.50982 0.37376 0.0
C1202 C 0.71968 0.52903 0.36575 0.0
H1203 H 0.7387 0.55315 0.40458 0.0
C1204 C 0.71688 0.54463 0.369 0.0
H1205 H 0.70924 0.54968 0.36057 0.0
H1206 H 0.71437 0.52229 0.35493 0.0
H1207 H 0.67404 0.37744 0.02494 0.0
C1208 C 0.66399 0.38319 0.02097 0.0
C1209 C 0.65958 0.39556 0.03087 0.0
C1210 C 0.65585 0.3787 0.00589 0.0
H1211 H 0.64428 0.41379 0.0328 0.0
C1212 C 0.64712 0.40365 0.02557 0.0
C1213 C 0.63932 0.39985 0.01045 0.0
C1214 C 0.64344 0.38719 0.00078 0.0
C1215 C 0.66073 0.36567 0.99526 0.0
H1216 H 0.637 0.3842 0.98926 0.0
C1217 C 0.66738 0.35289 0.00137 0.0
C1218 C 0.67237 0.3409 0.99135 0.0
C1219 C 0.65898 0.36603 0.97886 0.0
H1220 H 0.65441 0.37578 0.97361 0.0
C1221 C 0.6634 0.3539 0.96889 0.0
H1222 H 0.66875 0.35224 0.0139 0.0
C1223 C 0.67003 0.34142 0.97504 0.0
H1224 H 0.67323 0.33211 0.96698 0.0
H1225 H 0.6618 0.35425 0.95631 0.0
H1226 H 0.33869 0.95025 0.62265 0.0
C1227 C 0.33868 0.96287 0.62369 0.0
C1228 C 0.34825 0.97154 0.61461 0.0
C1229 C 0.3291 0.9704 0.63378 0.0
H1230 H 0.3558 0.99465 0.60877 0.0
C1231 C 0.34871 0.98792 0.61603 0.0
C1232 C 0.33928 0.99569 0.62584 0.0
C1233 C 0.32954 0.98695 0.63471 0.0
C1234 C 0.31838 0.96103 0.64297 0.0
H1235 H 0.32179 0.9931 0.64166 0.0
C1236 C 0.31212 0.94539 0.63759 0.0
C1237 C 0.30246 0.93661 0.64664 0.0
C1238 C 0.31437 0.96771 0.65738 0.0
H1239 H 0.31889 0.97952 0.66193 0.0
C1240 C 0.30463 0.95922 0.66625 0.0
H1241 H 0.31475 0.93994 0.62644 0.0
C1242 C 0.29873 0.94377 0.66097 0.0
H1243 H 0.29111 0.93747 0.66806 0.0
H1244 H 0.30171 0.96464 0.67732 0.0
H1245 H 0.26451 0.13576 0.98517 0.0
C1246 C 0.26251 0.12573 0.99166 0.0
C1247 C 0.2494 0.11467 0.98676 0.0
C1248 C 0.27325 0.12357 0.00451 0.0
H1249 H 0.23756 0.09231 0.99024 0.0
C1250 C 0.24717 0.10127 0.99464 0.0
C1251 C 0.25789 0.09865 0.00718 0.0
C1252 C 0.2707 0.11001 0.01226 0.0
C1253 C 0.28755 0.13494 0.00933 0.0
H1254 H 0.27878 0.10813 0.02219 0.0
C1255 C 0.28713 0.15123 0.0088 0.0
C1256 C 0.3007 0.16183 0.01354 0.0
C1257 C 0.30188 0.12947 0.01442 0.0
H1258 H 0.30283 0.11705 0.01454 0.0
C1259 C 0.31529 0.13995 0.01919 0.0
H1260 H 0.27623 0.15573 0.00505 0.0
C1261 C 0.31473 0.15601 0.01881 0.0
H1262 H 0.32537 0.16388 0.02235 0.0
H1263 H 0.32621 0.13557 0.02306 0.0
H1264 H 0.41761 0.72635 0.52557 0.0
C1265 C 0.41183 0.7349 0.51937 0.0
C1266 C 0.42058 0.74512 0.51091 0.0
C1267 C 0.39541 0.73485 0.51878 0.0
H1268 H 0.4195 0.76376 0.49602 0.0
C1269 C 0.41284 0.75584 0.50258 0.0
C1270 C 0.3965 0.75573 0.50157 0.0
C1271 C 0.38785 0.74525 0.50975 0.0
C1272 C 0.38595 0.72303 0.5264 0.0
H1273 H 0.37518 0.74505 0.50889 0.0
C1274 C 0.39034 0.72007 0.54194 0.0
C1275 C 0.3813 0.70873 0.54897 0.0
C1276 C 0.37246 0.71448 0.51796 0.0
H1277 H 0.36893 0.71635 0.50592 0.0
C1278 C 0.3635 0.70326 0.52486 0.0
H1279 H 0.40074 0.72657 0.54852 0.0
C1280 C 0.36785 0.70038 0.54025 0.0
H1281 H 0.36054 0.69175 0.5454 0.0
H1282 H 0.35313 0.69676 0.51826 0.0
H1283 H 0.9831 0.26833 0.13743 0.0
C1284 C 0.98963 0.2652 0.12769 0.0
C1285 C 0.9846 0.25128 0.11774 0.0
C1286 C 0.00257 0.27538 0.12467 0.0
H1287 H 0.9883 0.23737 0.09649 0.0
C1288 C 0.99267 0.24758 0.10472 0.0
C1289 C 0.0054 0.25764 0.10135 0.0
C1290 C 0.01046 0.27135 0.11151 0.0
C1291 C 0.00707 0.29078 0.13442 0.0
H1292 H 0.02043 0.27898 0.10894 0.0
C1293 C 0.00605 0.29244 0.15076 0.0
C1294 C 0.00973 0.3072 0.15969 0.0
C1295 C 0.01195 0.30416 0.12723 0.0
H1296 H 0.01245 0.30351 0.11468 0.0
C1297 C 0.01595 0.31869 0.13608 0.0
H1298 H 0.00222 0.28232 0.15649 0.0
C1299 C 0.01487 0.32023 0.15217 0.0
H1300 H 0.0181 0.33167 0.15874 0.0
H1301 H 0.01976 0.32884 0.1304 0.0
H1302 H 0.0269 0.6796 0.37256 0.0
C1303 C 0.0208 0.66995 0.3775 0.0
C1304 C 0.02929 0.66138 0.38778 0.0
C1305 C 0.0044 0.66674 0.3743 0.0
H1306 H 0.02758 0.64369 0.40362 0.0
C1307 C 0.0212 0.64944 0.39477 0.0
C1308 C 0.0048 0.64622 0.39199 0.0
C1309 C 0.99655 0.65461 0.38135 0.0
C1310 C 0.99531 0.67711 0.365 0.0
H1311 H 0.9839 0.65211 0.37904 0.0
C1312 C 1.00051 0.68234 0.35121 0.0
C1313 C 0.99184 0.69227 0.34255 0.0
C1314 C 0.9815 0.6822 0.3702 0.0
H1315 H 0.97736 0.67867 0.38093 0.0
C1316 C 0.973 0.69216 0.36179 0.0
H1317 H 0.0111 0.67846 0.34705 0.0
C1318 C 0.97807 0.69715 0.34806 0.0
H1319 H 0.9709 0.70443 0.3415 0.0
H1320 H 0.96234 0.69594 0.36588 0.0
H1321 H 0.62377 0.31893 0.95008 0.0
C1322 C 0.62499 0.32015 0.96276 0.0
C1323 C 0.61581 0.33036 0.97057 0.0
C1324 C 0.63531 0.31141 0.97117 0.0
H1325 H 0.61121 0.34075 0.99328 0.0
C1326 C 0.61829 0.3331 0.987 0.0
C1327 C 0.62889 0.32509 0.99566 0.0
C1328 C 0.63683 0.3138 0.98776 0.0
C1329 C 0.64421 0.29969 0.96267 0.0
H1330 H 0.64408 0.30689 0.99466 0.0
C1331 C 0.6386 0.29253 0.94739 0.0
C1332 C 0.64726 0.28205 0.93918 0.0
C1333 C 0.65851 0.29559 0.96967 0.0
H1334 H 0.66341 0.30068 0.98122 0.0
C1335 C 0.66695 0.28493 0.96174 0.0
H1336 H 0.62736 0.29479 0.94182 0.0
C1337 C 0.66143 0.27824 0.94657 0.0
H1338 H 0.66842 0.27032 0.9405 0.0
H1339 H 0.67795 0.28202 0.96733 0.0
H1340 H 0.5357 0.42284 0.73325 0.0
C1341 C 0.52773 0.41799 0.74095 0.0
C1342 C 0.52074 0.42819 0.75122 0.0
C1343 C 0.5241 0.4016 0.7403 0.0
H1344 H 0.50423 0.42971 0.76836 0.0
C1345 C 0.51016 0.42188 0.76091 0.0
C1346 C 0.50614 0.40565 0.7602 0.0
C1347 C 0.51315 0.39554 0.7499 0.0
C1348 C 0.53131 0.39085 0.72921 0.0
H1349 H 0.51008 0.38299 0.74943 0.0
C1350 C 0.54735 0.39354 0.72718 0.0
C1351 C 0.5542 0.38338 0.71667 0.0
C1352 C 0.52216 0.37784 0.72054 0.0
H1353 H 0.50974 0.37559 0.72164 0.0
C1354 C 0.52887 0.36774 0.71012 0.0
H1355 H 0.55458 0.40334 0.73404 0.0
C1356 C 0.54476 0.37045 0.70817 0.0
H1357 H 0.5496 0.36255 0.69982 0.0
H1358 H 0.52169 0.35781 0.70344 0.0
H1359 H 0.13817 0.98648 0.26291 0.0
C1360 C 0.12779 0.99236 0.26047 0.0
C1361 C 0.11673 0.98616 0.24774 0.0
C1362 C 0.12525 0.00578 0.27025 0.0
H1363 H 0.0939 0.9877 0.23587 0.0
C1364 C 0.10285 0.99318 0.24505 0.0
C1365 C 0.09989 0.00641 0.2547 0.0
C1366 C 0.11135 0.01286 0.26702 0.0
C1367 C 0.13659 0.01195 0.28428 0.0
H1368 H 0.10932 0.02337 0.27418 0.0
C1369 C 0.15291 0.01133 0.28414 0.0
C1370 C 0.16344 0.01711 0.29751 0.0
C1371 C 0.13105 0.01829 0.29814 0.0
H1372 H 0.11862 0.01851 0.29896 0.0
C1373 C 0.14147 0.02416 0.31131 0.0
H1374 H 0.1575 0.00665 0.2736 0.0
C1375 C 0.15754 0.02362 0.31102 0.0
H1376 H 0.16535 0.02798 0.32152 0.0
H1377 H 0.13703 0.02898 0.32187 0.0
H1378 H 0.37206 0.02556 0.67643 0.0
C1379 C 0.3768 0.01986 0.66645 0.0
C1380 C 0.38712 0.0288 0.65829 0.0
C1381 C 0.37324 0.00356 0.66229 0.0
H1382 H 0.40258 0.02797 0.64014 0.0
C1383 C 0.39384 0.02133 0.64582 0.0
C1384 C 0.39092 0.00507 0.64182 0.0
C1385 C 0.38037 0.99628 0.64985 0.0
C1386 C 0.36299 0.99404 0.67164 0.0
H1387 H 0.37806 0.98373 0.64657 0.0
C1388 C 0.35002 1.00011 0.67787 0.0
C1389 C 0.34027 0.99113 0.68662 0.0
C1390 C 0.36627 0.97886 0.67462 0.0
H1391 H 0.37636 0.97391 0.67043 0.0
C1392 C 0.35674 0.96993 0.68335 0.0
H1393 H 0.34738 0.0118 0.67583 0.0
C1394 C 0.34381 0.97594 0.68926 0.0
H1395 H 0.33633 0.96848 0.6955 0.0
H1396 H 0.35932 0.95823 0.68545 0.0
H1397 H 0.94933 0.6232 0.34691 0.0
C1398 C 0.96193 0.62421 0.34669 0.0
C1399 C 0.97073 0.61476 0.35569 0.0
C1400 C 0.96932 0.63473 0.33744 0.0
H1401 H 0.99388 0.60871 0.3626 0.0
C1402 C 0.98709 0.61617 0.35583 0.0
C1403 C 0.99472 0.62626 0.34651 0.0
C1404 C 0.98581 0.63558 0.33743 0.0
C1405 C 0.95986 0.64453 0.32756 0.0
H1406 H 0.99173 0.6429 0.32982 0.0
C1407 C 0.94433 0.63924 0.32095 0.0
C1408 C 0.93548 0.64882 0.312 0.0
C1409 C 0.96638 0.65946 0.32474 0.0
H1410 H 0.97811 0.66394 0.32968 0.0
C1411 C 0.95782 0.66887 0.31569 0.0
H1412 H 0.93904 0.62773 0.32277 0.0
C1413 C 0.94248 0.66364 0.30937 0.0
H1414 H 0.93613 0.67117 0.3023 0.0
H1415 H 0.96309 0.68032 0.31361 0.0
C1416 C 0.13742 0.61865 0.35837 0.0
C1417 C 0.1396 0.60265 0.35603 0.0
C1418 C 0.12247 0.62355 0.35535 0.0
C1419 C 0.08264 0.61004 0.33471 0.0
H1420 H 0.06831 0.63948 0.36577 0.0
C1421 C 0.01787 0.61134 0.34339 0.0
C1422 C 0.01179 0.62586 0.34538 0.0
C1423 C 0.03392 0.61065 0.34296 0.0
C1424 C 0.07223 0.63144 0.35687 0.0
H1425 H 0.12789 0.57936 0.3481 0.0
H1426 H 0.10195 0.58777 0.34315 0.0
H1427 H 0.09583 0.63429 0.36812 0.0
H1428 H 0.01773 0.65104 0.34789 0.0
H1429 H 0.04612 0.64986 0.34774 0.0
H1430 H 0.05892 0.60667 0.32387 0.0
C1431 C 0.11173 0.59662 0.34718 0.0
C1432 C 0.08799 0.62848 0.35819 0.0
C1433 C 0.1266 0.59174 0.35021 0.0
C1434 C 0.02213 0.63972 0.34659 0.0
C1435 C 0.03833 0.63903 0.34649 0.0
C1436 C 0.06692 0.61291 0.33347 0.0
C1437 C 0.10941 0.61256 0.34982 0.0
C1438 C 0.09328 0.61739 0.34735 0.0
C1439 C 0.04436 0.62445 0.34464 0.0
C1440 C 0.06145 0.62331 0.34476 0.0
H1441 H 0.14719 0.62733 0.36293 0.0
H1442 H 0.12113 0.63593 0.3574 0.0
H1443 H 0.08638 0.60174 0.32593 0.0
H1444 H 0.01017 0.60045 0.34214 0.0
H1445 H 0.03822 0.59924 0.34164 0.0
C1446 C 0.38922 0.41098 0.82572 0.0
C1447 C 0.37573 0.40567 0.81524 0.0
C1448 C 0.40402 0.40749 0.8221 0.0
C1449 C 0.42506 0.38295 0.79481 0.0
H1450 H 0.45647 0.41911 0.80225 0.0
C1451 C 0.48002 0.39059 0.76146 0.0
C1452 C 0.49347 0.39974 0.76922 0.0
C1453 C 0.46655 0.38811 0.76913 0.0
C1454 C 0.448 0.40875 0.80037 0.0
H1455 H 0.36722 0.39168 0.79314 0.0
H1456 H 0.39312 0.38604 0.78657 0.0
H1457 H 0.43114 0.42084 0.81182 0.0
H1458 H 0.50399 0.41218 0.79142 0.0
H1459 H 0.48067 0.40751 0.80498 0.0
H1460 H 0.44194 0.37107 0.78286 0.0
C1461 C 0.39222 0.39277 0.79769 0.0
C1462 C 0.43341 0.40975 0.80587 0.0
C1463 C 0.37738 0.39619 0.80136 0.0
C1464 C 0.49369 0.40522 0.78515 0.0
C1465 C 0.48031 0.40264 0.79285 0.0
C1466 C 0.43972 0.38194 0.78928 0.0
C1467 C 0.40576 0.39871 0.80784 0.0
C1468 C 0.42168 0.39695 0.80302 0.0
C1469 C 0.46635 0.39467 0.78473 0.0
C1470 C 0.45131 0.39491 0.79185 0.0
H1471 H 0.38848 0.41841 0.83646 0.0
H1472 H 0.41418 0.41203 0.83031 0.0
H1473 H 0.41633 0.37281 0.79257 0.0
H1474 H 0.47953 0.38633 0.74914 0.0
H1475 H 0.456 0.38199 0.7625 0.0
C1476 C 0.51687 0.98258 0.60447 0.0
C1477 C 0.52157 0.9894 0.59127 0.0
C1478 C 0.50108 0.98124 0.60728 0.0
C1479 C 0.46547 1.0003 0.59943 0.0
H1480 H 0.44414 0.96372 0.6142 0.0
C1481 C 0.40363 0.00295 0.61692 0.0
C1482 C 0.40117 0.99735 0.63133 0.0
C1483 C 0.41627 0.99875 0.60902 0.0
C1484 C 0.44993 0.97406 0.61015 0.0
H1485 H 0.51332 1.00008 0.57065 0.0
H1486 H 0.48586 0.9977 0.57554 0.0
H1487 H 0.47081 0.96298 0.60689 0.0
H1488 H 0.40924 0.98213 0.64825 0.0
H1489 H 0.43153 0.97516 0.63482 0.0
H1490 H 0.44513 0.01173 0.60331 0.0
C1491 C 0.49437 0.99338 0.5837 0.0
C1492 C 0.46521 0.97362 0.60597 0.0
C1493 C 0.51009 0.99461 0.58084 0.0
C1494 C 0.41079 0.9865 0.63707 0.0
C1495 C 0.42361 0.98251 0.62933 0.0
C1496 C 0.45031 0.00081 0.60375 0.0
C1497 C 0.48969 0.98684 0.59704 0.0
C1498 C 0.47319 0.9868 0.6007 0.0
C1499 C 0.42694 0.98917 0.61558 0.0
C1500 C 0.44236 0.98777 0.60933 0.0
H1501 H 0.52542 0.97835 0.61265 0.0
H1502 H 0.49785 0.97626 0.61772 0.0
H1503 H 0.47138 0.01074 0.59565 0.0
H1504 H 0.39626 0.01124 0.6122 0.0
H1505 H 0.41814 0.0037 0.5982 0.0
C1506 C 0.95937 0.01929 0.22585 0.0
C1507 C 0.95148 0.00534 0.22967 0.0
C1508 C 0.97556 0.02285 0.23001 0.0
C1509 C 0.00922 0.01087 0.2553 0.0
H1510 H 0.03407 0.02934 0.22532 0.0
C1511 C 0.07649 0.01673 0.26582 0.0
C1512 C 0.0842 0.01234 0.25268 0.0
C1513 C 0.06077 0.01967 0.26398 0.0
C1514 C 0.02733 0.02411 0.23381 0.0
H1515 H 0.95437 0.98411 0.24067 0.0
H1516 H 0.98252 0.99 0.24753 0.0
H1517 H 0.00559 0.0263 0.22034 0.0
H1518 H 0.08172 0.009 0.22723 0.0
H1519 H 0.05425 0.01331 0.22405 0.0
H1520 H 0.03088 0.00763 0.26821 0.0
C1521 C 0.97625 0.99852 0.24179 0.0
C1522 C 0.01094 0.02257 0.23106 0.0
C1523 C 0.96008 0.99508 0.2378 0.0
C1524 C 0.07608 0.012 0.23764 0.0
C1525 C 0.06031 0.01471 0.23581 0.0
C1526 C 0.02559 0.01221 0.25794 0.0
C1527 C 0.98426 0.01243 0.23792 0.0
C1528 C 0.00165 0.01561 0.2416 0.0
C1529 C 0.05228 0.01811 0.24898 0.0
C1530 C 0.0349 0.01856 0.24708 0.0
H1531 H 0.953 0.02749 0.21969 0.0
H1532 H 0.98125 0.03377 0.22703 0.0
H1533 H 0.0025 0.00578 0.26389 0.0
H1534 H 0.08231 0.01709 0.27761 0.0
H1535 H 0.05513 0.02266 0.2744 0.0
C1536 C 0.35885 0.13773 0.61646 0.0
C1537 C 0.35569 0.13998 0.60055 0.0
C1538 C 0.3553 0.12295 0.62154 0.0
C1539 C 0.33161 0.08438 0.60946 0.0
H1540 H 0.36317 0.06799 0.63672 0.0
C1541 C 0.33537 0.01859 0.61091 0.0
C1542 C 0.33862 0.01277 0.62539 0.0
C1543 C 0.33577 0.0347 0.61003 0.0
C1544 C 0.35413 0.0725 0.62932 0.0
H1545 H 0.34581 0.12861 0.57763 0.0
H1546 H 0.33987 0.10292 0.58636 0.0
H1547 H 0.36699 0.09534 0.63119 0.0
H1548 H 0.34455 0.01912 0.65031 0.0
H1549 H 0.34568 0.04756 0.64881 0.0
H1550 H 0.31904 0.06141 0.60712 0.0
C1551 C 0.34498 0.11254 0.59499 0.0
C1552 C 0.3563 0.08817 0.62616 0.0
C1553 C 0.34857 0.12724 0.58993 0.0
C1554 C 0.34202 0.02336 0.63905 0.0
C1555 C 0.34272 0.03958 0.63816 0.0
C1556 C 0.32949 0.06875 0.61256 0.0
C1557 C 0.3484 0.11015 0.61083 0.0
C1558 C 0.34525 0.09417 0.61584 0.0
C1559 C 0.33962 0.0454 0.62359 0.0
C1560 C 0.3409 0.06252 0.62219 0.0
H1561 H 0.36442 0.14729 0.62492 0.0
H1562 H 0.35798 0.12154 0.63383 0.0
H1563 H 0.32269 0.08871 0.60177 0.0
H1564 H 0.33265 0.01065 0.6002 0.0
H1565 H 0.33351 0.0388 0.59862 0.0
C1566 C 0.21851 0.96216 0.01289 0.0
C1567 C 0.22956 0.95162 0.00971 0.0
C1568 C 0.22322 0.97821 0.01657 0.0
C1569 C 0.255 0.00804 0.01036 0.0
H1570 H 0.23397 0.03519 0.03807 0.0
C1571 C 0.26966 0.0749 0.01554 0.0
C1572 C 0.25649 0.08324 0.01361 0.0
C1573 C 0.26791 0.05926 0.01874 0.0
C1574 C 0.23995 0.02775 0.03029 0.0
H1575 H 0.25436 0.94971 0.00854 0.0
H1576 H 0.26261 0.97764 0.01536 0.0
H1577 H 0.22813 0.00672 0.03686 0.0
H1578 H 0.23138 0.08209 0.01475 0.0
H1579 H 0.2283 0.05477 0.02014 0.0
H1580 H 0.26652 0.02899 0.00349 0.0
C1581 C 0.25025 0.97351 0.01472 0.0
C1582 C 0.23659 0.01144 0.02957 0.0
C1583 C 0.24553 0.95746 0.01099 0.0
C1584 C 0.24172 0.07592 0.016 0.0
C1585 C 0.23998 0.06029 0.01922 0.0
C1586 C 0.25839 0.02431 0.01112 0.0
C1587 C 0.23912 0.98414 0.01723 0.0
C1588 C 0.24386 0.00139 0.01937 0.0
C1589 C 0.25298 0.05162 0.02011 0.0
C1590 C 0.2507 0.03437 0.02087 0.0
H1591 H 0.20615 0.95805 0.01226 0.0
H1592 H 0.2143 0.98603 0.01829 0.0
H1593 H 0.26064 0.00071 0.00217 0.0
H1594 H 0.28119 0.08015 0.01368 0.0
H1595 H 0.2782 0.05297 0.01958 0.0
C1596 C 0.81403 0.37976 0.39574 0.0
C1597 C 0.82683 0.37805 0.40669 0.0
C1598 C 0.81017 0.39468 0.39282 0.0
C1599 C 0.81448 0.43478 0.4129 0.0
H1600 H 0.79587 0.44544 0.37302 0.0
C1601 C 0.79186 0.49434 0.40958 0.0
C1602 C 0.77649 0.49381 0.40223 0.0
C1603 C 0.80045 0.48157 0.40723 0.0
C1604 C 0.80105 0.44262 0.38423 0.0
H1605 H 0.84603 0.39084 0.4226 0.0
H1606 H 0.83964 0.41671 0.41711 0.0
H1607 H 0.80651 0.42022 0.37435 0.0
H1608 H 0.75843 0.48002 0.38585 0.0
H1609 H 0.77334 0.45752 0.38191 0.0
H1610 H 0.80868 0.45681 0.42293 0.0
C1611 C 0.83236 0.40652 0.41102 0.0
C1612 C 0.80711 0.42818 0.385 0.0
C1613 C 0.83616 0.39163 0.41401 0.0
C1614 C 0.77031 0.48075 0.39157 0.0
C1615 C 0.77887 0.46787 0.38932 0.0
C1616 C 0.80846 0.44915 0.41213 0.0
C1617 C 0.81906 0.40824 0.40074 0.0
C1618 C 0.81375 0.42402 0.3994 0.0
C1619 C 0.79379 0.4679 0.39764 0.0
C1620 C 0.80151 0.45321 0.39784 0.0
H1621 H 0.80675 0.36957 0.38967 0.0
H1622 H 0.79981 0.39556 0.38489 0.0
H1623 H 0.81915 0.43186 0.42426 0.0
H1624 H 0.79693 0.50437 0.41773 0.0
H1625 H 0.81207 0.48212 0.41351 0.0
C1626 C 0.60342 0.52732 0.98862 0.0
C1627 C 0.59147 0.53274 0.99702 0.0
C1628 C 0.606 0.51147 0.98769 0.0
C1629 C 0.60141 0.47771 0.00985 0.0
H1630 H 0.60869 0.45311 0.9716 0.0
C1631 C 0.61617 0.41492 0.01253 0.0
C1632 C 0.62866 0.41077 0.00429 0.0
C1633 C 0.60865 0.42805 0.00923 0.0
C1634 C 0.60678 0.45983 0.98241 0.0
H1635 H 0.57288 0.5258 0.011 0.0
H1636 H 0.57743 0.49826 0.00941 0.0
H1637 H 0.60211 0.48001 0.97067 0.0
H1638 H 0.64254 0.4164 0.9856 0.0
H1639 H 0.62983 0.4396 0.98011 0.0
H1640 H 0.60673 0.45809 0.02182 0.0
C1641 C 0.58474 0.50622 0.0035 0.0
C1642 C 0.603 0.47523 0.98185 0.0
C1643 C 0.58207 0.52197 0.0043 0.0
C1644 C 0.63279 0.41929 0.99197 0.0
C1645 C 0.62547 0.4326 0.98885 0.0
C1646 C 0.60536 0.46246 0.01046 0.0
C1647 C 0.59682 0.50082 0.99532 0.0
C1648 C 0.60035 0.48433 0.99559 0.0
C1649 C 0.61374 0.43754 0.9979 0.0
C1650 C 0.60818 0.45329 0.99678 0.0
H1651 H 0.61078 0.53534 0.98283 0.0
H1652 H 0.61548 0.50764 0.9814 0.0
H1653 H 0.59966 0.48453 0.02068 0.0
H1654 H 0.61278 0.40848 0.02207 0.0
H1655 H 0.59933 0.43118 0.01611 0.0
C1656 C 0.60666 0.34009 0.13363 0.0
C1657 C 0.6075 0.35574 0.14041 0.0
C1658 C 0.61174 0.33659 0.11885 0.0
C1659 C 0.61651 0.35468 0.08263 0.0
H1660 H 0.63921 0.31934 0.07117 0.0
C1661 C 0.63295 0.34378 0.02015 0.0
C1662 C 0.63079 0.32822 0.01304 0.0
C1663 C 0.63283 0.34707 0.03631 0.0
C1664 C 0.63276 0.32918 0.07414 0.0
H1665 H 0.61532 0.37987 0.13739 0.0
H1666 H 0.62401 0.37378 0.11164 0.0
H1667 H 0.63377 0.32504 0.09838 0.0
H1668 H 0.62743 0.30385 0.01735 0.0
H1669 H 0.62661 0.30955 0.04562 0.0
H1670 H 0.61494 0.35863 0.05851 0.0
C1671 C 0.61917 0.36424 0.11761 0.0
C1672 C 0.62967 0.33245 0.08974 0.0
C1673 C 0.61415 0.36772 0.13236 0.0
C1674 C 0.62919 0.31595 0.02255 0.0
C1675 C 0.62878 0.31925 0.03876 0.0
C1676 C 0.61946 0.35136 0.06708 0.0
C1677 C 0.61772 0.34867 0.11053 0.0
C1678 C 0.62151 0.34526 0.09414 0.0
C1679 C 0.63015 0.33488 0.04578 0.0
C1680 C 0.62764 0.33857 0.06259 0.0
H1681 H 0.6015 0.33058 0.13945 0.0
H1682 H 0.61037 0.32449 0.11367 0.0
H1683 H 0.6099 0.36443 0.08555 0.0
H1684 H 0.63431 0.35345 0.0131 0.0
H1685 H 0.63441 0.35924 0.04131 0.0
C1686 C 0.01502 0.21466 0.96416 0.0
C1687 C 0.0101 0.22611 0.95479 0.0
C1688 C 0.01849 0.21819 0.98039 0.0
C1689 C 0.02696 0.25066 0.01266 0.0
H1690 H 0.00602 0.22083 0.03672 0.0
C1691 C 0.013 0.26651 0.0761 0.0
C1692 C 0.01194 0.25468 0.08617 0.0
C1693 C 0.01634 0.26306 0.06066 0.0
C1694 C 0.01228 0.22915 0.0303 0.0
H1695 H 0.00559 0.25047 0.95513 0.0
H1696 H 0.01175 0.25665 0.98346 0.0
H1697 H 0.00542 0.2148 0.00854 0.0
H1698 H 0.01469 0.23027 0.08842 0.0
H1699 H 0.021 0.22428 0.06161 0.0
H1700 H 0.03363 0.26512 0.03446 0.0
C1701 C 0.01301 0.24495 0.97821 0.0
C1702 C 0.01188 0.22569 0.01408 0.0
C1703 C 0.00947 0.2414 0.96196 0.0
C1704 C 0.01528 0.23957 0.08083 0.0
C1705 C 0.01878 0.23614 0.06544 0.0
C1706 C 0.02746 0.25408 0.02895 0.0
C1707 C 0.01719 0.23328 0.98764 0.0
C1708 C 0.01899 0.2365 0.00504 0.0
C1709 C 0.01881 0.2477 0.05498 0.0
C1710 C 0.01989 0.24348 0.03795 0.0
H1711 H 0.01595 0.20286 0.95898 0.0
H1712 H 0.02195 0.20902 0.98732 0.0
H1713 H 0.0327 0.25914 0.00602 0.0
H1714 H 0.0103 0.27823 0.07984 0.0
H1715 H 0.01608 0.27224 0.05294 0.0
C1716 C 0.38671 0.80331 0.37658 0.0
C1717 C 0.39739 0.81696 0.37789 0.0
C1718 C 0.38084 0.79798 0.3899 0.0
C1719 C 0.37894 0.80882 0.43284 0.0
H1720 H 0.38086 0.76428 0.43468 0.0
C1721 C 0.39468 0.78064 0.48912 0.0
C1722 C 0.3887 0.76504 0.49012 0.0
C1723 C 0.3903 0.78809 0.47594 0.0
C1724 C 0.37987 0.77667 0.43431 0.0
H1725 H 0.40933 0.83629 0.39416 0.0
H1726 H 0.39968 0.82668 0.41738 0.0
H1727 H 0.38352 0.7752 0.4101 0.0
H1728 H 0.37238 0.74549 0.4788 0.0
H1729 H 0.36458 0.75857 0.45582 0.0
H1730 H 0.37621 0.8103 0.45741 0.0
C1731 C 0.39564 0.82016 0.40606 0.0
C1732 C 0.3814 0.78297 0.42015 0.0
C1733 C 0.4014 0.82555 0.39274 0.0
C1734 C 0.37715 0.75754 0.47838 0.0
C1735 C 0.37281 0.76497 0.46515 0.0
C1736 C 0.37751 0.80252 0.44706 0.0
C1737 C 0.38559 0.80609 0.40488 0.0
C1738 C 0.38141 0.7992 0.41932 0.0
C1739 C 0.37988 0.78006 0.46347 0.0
C1740 C 0.37839 0.78643 0.44804 0.0
H1741 H 0.38338 0.79635 0.36535 0.0
H1742 H 0.37291 0.78724 0.3885 0.0
H1743 H 0.37857 0.82132 0.43256 0.0
H1744 H 0.40353 0.78671 0.49807 0.0
H1745 H 0.39602 0.79969 0.47502 0.0
C1746 C 0.97903 0.61434 0.51982 0.0
C1747 C 0.99005 0.60443 0.52497 0.0
C1748 C 0.97619 0.61623 0.50388 0.0
C1749 C 0.98296 0.59953 0.4637 0.0
H1750 H 0.9822 0.6426 0.45454 0.0
C1751 C 0.00276 0.6231 0.40767 0.0
C1752 C 0.99642 0.63636 0.40248 0.0
C1753 C 0.99754 0.61646 0.42065 0.0
C1754 C 0.98201 0.63044 0.45678 0.0
H1755 H 0.00608 0.58812 0.51723 0.0
H1756 H 0.00153 0.59181 0.4896 0.0
H1757 H 0.98172 0.63654 0.48138 0.0
H1758 H 0.9784 0.65192 0.40587 0.0
H1759 H 0.96904 0.64006 0.42815 0.0
H1760 H 0.98392 0.59361 0.43905 0.0
C1761 C 0.99494 0.59801 0.49782 0.0
C1762 C 0.98176 0.62696 0.47224 0.0
C1763 C 0.99775 0.59608 0.51373 0.0
C1764 C 0.98359 0.64173 0.40951 0.0
C1765 C 0.97835 0.63506 0.42245 0.0
C1766 C 0.98325 0.60303 0.44819 0.0
C1767 C 0.98429 0.60828 0.4927 0.0
C1768 C 0.98259 0.61152 0.47597 0.0
C1769 C 0.98583 0.62291 0.42869 0.0
C1770 C 0.98311 0.61859 0.44459 0.0
H1771 H 0.97292 0.62099 0.52815 0.0
H1772 H 0.96777 0.6241 0.50033 0.0
H1773 H 0.98334 0.58747 0.46612 0.0
H1774 H 0.01243 0.61847 0.40229 0.0
H1775 H 0.00353 0.60706 0.42508 0.0
C1776 C 0.86005 0.39999 0.65669 0.0
C1777 C 0.85 0.39205 0.64391 0.0
C1778 C 0.87468 0.39497 0.66087 0.0
C1779 C 0.90445 0.37217 0.64414 0.0
H1780 H 0.92338 0.37719 0.68736 0.0
C1781 C 0.96727 0.3571 0.66104 0.0
C1782 C 0.97962 0.36967 0.66915 0.0
C1783 C 0.951 0.35752 0.65922 0.0
C1784 C 0.91824 0.37573 0.67524 0.0
H1785 H 0.8471 0.37223 0.62591 0.0
H1786 H 0.87254 0.36327 0.63337 0.0
H1787 H 0.89613 0.38218 0.68148 0.0
H1788 H 0.97506 0.39049 0.68651 0.0
H1789 H 0.94894 0.39031 0.68283 0.0
H1790 H 0.92663 0.36583 0.63792 0.0
C1791 C 0.86929 0.37361 0.63994 0.0
C1792 C 0.90265 0.37864 0.67185 0.0
C1793 C 0.8547 0.37871 0.63568 0.0
C1794 C 0.97016 0.38061 0.6781 0.0
C1795 C 0.95388 0.38082 0.67646 0.0
C1796 C 0.92 0.36913 0.64755 0.0
C1797 C 0.87958 0.38181 0.65245 0.0
C1798 C 0.89565 0.37722 0.65623 0.0
C1799 C 0.94419 0.36972 0.66641 0.0
C1800 C 0.92716 0.37119 0.6631 0.0
H1801 H 0.85685 0.41043 0.66312 0.0
H1802 H 0.88237 0.40176 0.67038 0.0
H1803 H 0.89957 0.37115 0.63196 0.0
H1804 H 0.96959 0.34629 0.65479 0.0
H1805 H 0.94363 0.34802 0.652 0.0
C1806 C 0.61735 0.60166 0.20079 0.0
C1807 C 0.63018 0.59859 0.21102 0.0
C1808 C 0.60323 0.60486 0.20652 0.0
C1809 C 0.58091 0.59597 0.23914 0.0
H1810 H 0.55279 0.62416 0.22229 0.0
C1811 C 0.51942 0.59587 0.2584 0.0
C1812 C 0.50723 0.59521 0.24618 0.0
C1813 C 0.53493 0.60039 0.2559 0.0
C1814 C 0.56049 0.6162 0.22709 0.0
H1815 H 0.63841 0.5972 0.23542 0.0
H1816 H 0.61391 0.60304 0.24542 0.0
H1817 H 0.57933 0.62443 0.2144 0.0
H1818 H 0.50149 0.59962 0.2221 0.0
H1819 H 0.5286 0.60718 0.21755 0.0
H1820 H 0.56208 0.58723 0.25129 0.0
C1821 C 0.6147 0.60278 0.23293 0.0
C1822 C 0.57569 0.61637 0.22258 0.0
C1823 C 0.62881 0.59959 0.22721 0.0
C1824 C 0.51068 0.60018 0.23175 0.0
C1825 C 0.52624 0.60451 0.22917 0.0
C1826 C 0.56575 0.59574 0.24358 0.0
C1827 C 0.60161 0.60503 0.22262 0.0
C1828 C 0.586 0.6061 0.22841 0.0
C1829 C 0.53861 0.60408 0.24105 0.0
C1830 C 0.55525 0.6057 0.23747 0.0
H1831 H 0.61808 0.6012 0.18827 0.0
H1832 H 0.59336 0.60646 0.19824 0.0
H1833 H 0.58841 0.58768 0.24363 0.0
H1834 H 0.51702 0.59221 0.26968 0.0
H1835 H 0.5441 0.60032 0.26544 0.0
C1836 C 0.48243 0.00439 0.3967 0.0
C1837 C 0.47433 0.01704 0.40163 0.0
C1838 C 0.49874 0.0063 0.39695 0.0
C1839 C 0.53241 0.03534 0.39579 0.0
H1840 H 0.5556 0.00169 0.40899 0.0
C1841 C 0.59727 0.00989 0.39582 0.0
C1842 C 0.59886 0.01074 0.37986 0.0
C1843 C 0.58426 0.01531 0.40231 0.0
C1844 C 0.54945 0.0114 0.40559 0.0
H1845 H 0.477 0.04171 0.41049 0.0
H1846 H 0.50564 0.04509 0.41082 0.0
H1847 H 0.52797 0.00131 0.41277 0.0
H1848 H 0.58931 0.01954 0.35866 0.0
H1849 H 0.56664 0.02885 0.36983 0.0
H1850 H 0.55384 0.04517 0.38814 0.0
C1851 C 0.49929 0.03368 0.40681 0.0
C1852 C 0.53353 0.01105 0.40755 0.0
C1853 C 0.48293 0.03173 0.40668 0.0
C1854 C 0.58822 0.0186 0.37097 0.0
C1855 C 0.57528 0.02403 0.37743 0.0
C1856 C 0.54837 0.03567 0.39376 0.0
C1857 C 0.50737 0.02093 0.4021 0.0
C1858 C 0.52471 0.02271 0.40218 0.0
C1859 C 0.5727 0.0217 0.39293 0.0
C1860 C 0.55695 0.02342 0.39816 0.0
H1861 H 0.4762 0.99287 0.39294 0.0
H1862 H 0.50459 0.9963 0.39301 0.0
H1863 H 0.52593 0.04452 0.39157 0.0
H1864 H 0.60536 0.00394 0.40294 0.0
H1865 H 0.58276 0.01363 0.41439 0.0
C1866 C 0.03401 0.00847 0.7417 0.0
C1867 C 0.04135 0.99932 0.75226 0.0
C1868 C 0.01798 0.00523 0.7366 0.0
C1869 C 0.98161 0.98668 0.74919 0.0
H1870 H 0.96363 0.99431 0.70793 0.0
C1871 C 0.91466 0.98293 0.73386 0.0
C1872 C 0.90961 0.99612 0.72733 0.0
C1873 C 0.93045 0.98018 0.73447 0.0
C1874 C 0.96848 0.99212 0.7195 0.0
H1875 H 0.03781 0.97903 0.76503 0.0
H1876 H 0.00986 0.97328 0.75604 0.0
H1877 H 0.99209 0.99527 0.7136 0.0
H1878 H 0.91683 0.01613 0.71533 0.0
H1879 H 0.94433 0.01142 0.71645 0.0
H1880 H 0.95807 0.98393 0.75523 0.0
C1881 C 0.01641 0.98318 0.75196 0.0
C1882 C 0.98478 0.99271 0.72277 0.0
C1883 C 0.03243 0.98646 0.7571 0.0
C1884 C 0.92043 0.00594 0.72055 0.0
C1885 C 0.93617 0.00316 0.72108 0.0
C1886 C 0.96532 0.98605 0.74591 0.0
C1887 C 0.00892 0.99271 0.74189 0.0
C1888 C 0.99157 0.99034 0.73777 0.0
C1889 C 0.94147 0.99052 0.72846 0.0
C1890 C 0.95858 0.98909 0.73114 0.0
H1891 H 0.0405 0.01857 0.73789 0.0
H1892 H 0.01258 0.01296 0.72904 0.0
H1893 H 0.98639 0.98502 0.76094 0.0
H1894 H 0.9066 0.9752 0.73924 0.0
H1895 H 0.93414 0.97023 0.74006 0.0
C1896 C 0.64783 0.85175 0.39241 0.0
C1897 C 0.64324 0.84964 0.40735 0.0
C1898 C 0.65181 0.86687 0.38831 0.0
C1899 C 0.64536 0.90804 0.39964 0.0
H1900 H 0.68099 0.91886 0.37705 0.0
C1901 C 0.66962 0.97175 0.39782 0.0
C1902 C 0.67224 0.97932 0.38307 0.0
C1903 C 0.66661 0.95582 0.39942 0.0
C1904 C 0.6709 0.91595 0.3832 0.0
H1905 H 0.64009 0.86166 0.42997 0.0
H1906 H 0.64706 0.88786 0.4229 0.0
H1907 H 0.67462 0.89161 0.38227 0.0
H1908 H 0.67575 0.96619 0.35918 0.0
H1909 H 0.67069 0.94081 0.36296 0.0
H1910 H 0.64174 0.93229 0.40084 0.0
C1911 C 0.64719 0.87793 0.41417 0.0
C1912 C 0.66725 0.90037 0.38618 0.0
C1913 C 0.64321 0.8629 0.41824 0.0
C1914 C 0.67324 0.96542 0.37117 0.0
C1915 C 0.67031 0.94943 0.37295 0.0
C1916 C 0.64903 0.92353 0.39673 0.0
C1917 C 0.65127 0.88014 0.39908 0.0
C1918 C 0.65462 0.89632 0.39472 0.0
C1919 C 0.66641 0.94451 0.38694 0.0
C1920 C 0.662 0.92773 0.38876 0.0
H1921 H 0.64791 0.84175 0.38376 0.0
H1922 H 0.65486 0.86819 0.37657 0.0
H1923 H 0.6353 0.90526 0.40588 0.0
H1924 H 0.66911 0.97797 0.40929 0.0
H1925 H 0.66437 0.95235 0.41084 0.0
C1926 C 0.77123 0.03946 0.99828 0.0
C1927 C 0.75964 0.04906 0.00231 0.0
C1928 C 0.76725 0.02356 0.9931 0.0
C1929 C 0.7369 0.99098 0.99562 0.0
H1930 H 0.76058 0.96892 0.96618 0.0
C1931 C 0.72954 0.9232 0.98376 0.0
C1932 C 0.74387 0.91678 0.98575 0.0
C1933 C 0.72934 0.93925 0.98231 0.0
C1934 C 0.75382 0.97492 0.97437 0.0
H1935 H 0.73466 0.04953 0.00352 0.0
H1936 H 0.72766 0.02174 0.9942 0.0
H1937 H 0.76393 0.99755 0.96997 0.0
H1938 H 0.76912 0.92174 0.9869 0.0
H1939 H 0.76883 0.94961 0.98419 0.0
H1940 H 0.72707 0.96829 1.00027 0.0
C1941 C 0.73988 0.02651 0.99527 0.0
C1942 C 0.75578 0.99132 0.9766 0.0
C1943 C 0.74387 0.04247 0.00047 0.0
C1944 C 0.75793 0.92644 0.98541 0.0
C1945 C 0.75773 0.94237 0.98376 0.0
C1946 C 0.73487 0.97456 0.99331 0.0
C1947 C 0.75156 0.01681 0.99173 0.0
C1948 C 0.74771 0.99955 0.98761 0.0
C1949 C 0.74348 0.94905 0.98258 0.0
C1950 C 0.74366 0.96635 0.98301 0.0
H1951 H 0.78346 0.0442 0.9993 0.0
H1952 H 0.77661 0.01646 0.99068 0.0
H1953 H 0.7306 0.99688 0.0043 0.0
H1954 H 0.71856 0.91599 0.98407 0.0
H1955 H 0.71818 0.94407 0.98132 0.0
C1956 C 0.20339 0.6161 0.60269 0.0
C1957 C 0.21366 0.629 0.59983 0.0
C1958 C 0.20921 0.60235 0.60692 0.0
C1959 C 0.24313 0.58086 0.60125 0.0
H1960 H 0.22399 0.55251 0.62795 0.0
C1961 C 0.26204 0.51943 0.60224 0.0
C1962 C 0.24962 0.50731 0.60034 0.0
C1963 C 0.25941 0.53486 0.60688 0.0
C1964 C 0.22945 0.56029 0.62044 0.0
H1965 H 0.23819 0.6378 0.60008 0.0
H1966 H 0.24833 0.61395 0.60778 0.0
H1967 H 0.21597 0.57893 0.6274 0.0
H1968 H 0.225 0.50157 0.60276 0.0
H1969 H 0.22027 0.52855 0.61053 0.0
H1970 H 0.2561 0.56221 0.59372 0.0
C1971 C 0.23575 0.61439 0.60649 0.0
C1972 C 0.22486 0.57543 0.62014 0.0
C1973 C 0.22993 0.62814 0.60224 0.0
C1974 C 0.2348 0.5107 0.60428 0.0
C1975 C 0.23211 0.52618 0.60874 0.0
C1976 C 0.24766 0.56578 0.60151 0.0
C1977 C 0.22544 0.60117 0.60841 0.0
C1978 C 0.23147 0.58579 0.61032 0.0
C1979 C 0.24425 0.53854 0.60946 0.0
C1980 C 0.24071 0.55518 0.61089 0.0
H1981 H 0.1908 0.61646 0.60118 0.0
H1982 H 0.20093 0.59237 0.60823 0.0
H1983 H 0.24825 0.58839 0.59331 0.0
H1984 H 0.27361 0.51706 0.59938 0.0
H1985 H 0.26912 0.54402 0.60771 0.0
C1986 C 0.40726 0.47915 0.0263 0.0
C1987 C 0.40238 0.47037 0.01168 0.0
C1988 C 0.40643 0.49538 0.02824 0.0
C1989 C 0.40478 0.52951 0.00571 0.0
H1990 H 0.3846 0.54828 0.04008 0.0
C1991 C 0.36671 0.58323 0.01492 0.0
C1992 C 0.37567 0.59471 0.0081 0.0
C1993 C 0.37323 0.56996 0.01943 0.0
C1994 C 0.39041 0.54324 0.03051 0.0
H1995 H 0.39302 0.47173 0.9876 0.0
H1996 H 0.3915 0.49993 0.99099 0.0
H1997 H 0.38937 0.52068 0.03914 0.0
H1998 H 0.39882 0.60207 0.00191 0.0
H1999 H 0.41033 0.57878 0.00986 0.0
H2000 H 0.40519 0.55174 0.99665 0.0
C2001 C 0.39601 0.49432 0.00095 0.0
C2002 C 0.39321 0.52747 0.03001 0.0
C2003 C 0.39669 0.47813 0.99906 0.0
C2004 C 0.39166 0.59336 0.00713 0.0
C2005 C 0.39819 0.57999 0.01156 0.0
C2006 C 0.40209 0.54526 0.00625 0.0
C2007 C 0.40093 0.50314 0.01552 0.0
C2008 C 0.39996 0.52033 0.01733 0.0
C2009 C 0.38885 0.56785 0.01715 0.0
C2010 C 0.39443 0.55219 0.0184 0.0
H2011 H 0.41165 0.47346 0.03625 0.0
H2012 H 0.4103 0.50189 0.0396 0.0
H2013 H 0.41022 0.52437 0.99591 0.0
H2014 H 0.35436 0.58408 0.01588 0.0
H2015 H 0.36567 0.56083 0.0236 0.0
C2016 C 0.3931 0.64889 0.85499 0.0
C2017 C 0.40822 0.64463 0.85315 0.0
C2018 C 0.38852 0.6523 0.87002 0.0
C2019 C 0.39865 0.64444 0.91092 0.0
H2020 H 0.37574 0.67966 0.92234 0.0
C2021 C 0.39483 0.66635 0.97501 0.0
C2022 C 0.38004 0.66963 0.98217 0.0
C2023 C 0.39687 0.66359 0.95916 0.0
C2024 C 0.38196 0.66966 0.91925 0.0
H2025 H 0.43066 0.64155 0.86561 0.0
H2026 H 0.42273 0.64748 0.89165 0.0
H2027 H 0.38179 0.67436 0.89522 0.0
H2028 H 0.35654 0.67355 0.96852 0.0
H2029 H 0.36102 0.66888 0.94331 0.0
H2030 H 0.39904 0.6398 0.93486 0.0
C2031 C 0.41425 0.64779 0.88155 0.0
C2032 C 0.38543 0.66664 0.90375 0.0
C2033 C 0.4188 0.64441 0.86661 0.0
C2034 C 0.36851 0.67085 0.96805 0.0
C2035 C 0.37073 0.66814 0.95214 0.0
C2036 C 0.39522 0.64746 0.92634 0.0
C2037 C 0.39898 0.65151 0.88346 0.0
C2038 C 0.3941 0.65418 0.89951 0.0
C2039 C 0.3848 0.66408 0.94755 0.0
C2040 C 0.38713 0.66028 0.93078 0.0
H2041 H 0.38466 0.6491 0.84484 0.0
H2042 H 0.37666 0.65509 0.87111 0.0
H2043 H 0.405 0.63451 0.90796 0.0
H2044 H 0.40604 0.66532 0.98153 0.0
H2045 H 0.40832 0.66107 0.956 0.0
C2046 C 0.00159 0.77377 0.03136 0.0
C2047 C 0.99667 0.76426 0.04269 0.0
C2048 C 0.99691 0.7694 0.01542 0.0
C2049 C 0.98364 0.73499 0.98687 0.0
H2050 H 0.97567 0.76695 0.95932 0.0
C2051 C 0.99425 0.72926 0.92196 0.0
C2052 C 0.98558 0.73733 0.91131 0.0
C2053 C 0.99145 0.73011 0.93769 0.0
C2054 C 0.97753 0.75777 0.9668 0.0
H2055 H 0.98274 0.74271 0.04608 0.0
H2056 H 0.97462 0.73499 0.01812 0.0
H2057 H 0.97852 0.77378 0.98759 0.0
H2058 H 0.96634 0.75158 0.90853 0.0
H2059 H 0.96119 0.7528 0.936 0.0
H2060 H 0.98284 0.71902 0.96602 0.0
C2061 C 0.9822 0.74582 0.02165 0.0
C2062 C 0.9794 0.76176 0.98304 0.0
C2063 C 0.98688 0.75023 0.03765 0.0
C2064 C 0.9732 0.74522 0.91645 0.0
C2065 C 0.97038 0.74607 0.93223 0.0
C2066 C 0.98175 0.73098 0.97059 0.0
C2067 C 0.98719 0.75536 0.01035 0.0
C2068 C 0.98296 0.75054 0.99326 0.0
C2069 C 0.97988 0.73902 0.94316 0.0
C2070 C 0.97913 0.74244 0.96035 0.0
H2071 H 0.00942 0.78447 0.03475 0.0
H2072 H 0.00129 0.77685 0.00704 0.0
H2073 H 0.98639 0.72606 0.9944 0.0
H2074 H 0.00375 0.72293 0.91827 0.0
H2075 H 0.99907 0.7246 0.94573 0.0
C2076 C 0.60762 0.19735 0.61625 0.0
C2077 C 0.60151 0.20797 0.62687 0.0
C2078 C 0.61196 0.20187 0.602 0.0
C2079 C 0.61911 0.23627 0.57955 0.0
H2080 H 0.6014 0.2066 0.54392 0.0
C2081 C 0.60011 0.25409 0.51855 0.0
C2082 C 0.60026 0.24336 0.50517 0.0
C2083 C 0.60509 0.2502 0.53346 0.0
C2084 C 0.60678 0.21492 0.55367 0.0
H2085 H 0.59582 0.23187 0.63114 0.0
H2086 H 0.60328 0.23973 0.60629 0.0
H2087 H 0.60128 0.19889 0.57023 0.0
H2088 H 0.60692 0.22063 0.49687 0.0
H2089 H 0.616 0.214 0.52287 0.0
H2090 H 0.62406 0.25249 0.5629 0.0
C2091 C 0.60494 0.22796 0.60903 0.0
C2092 C 0.6067 0.21049 0.56882 0.0
C2093 C 0.60063 0.22345 0.62329 0.0
C2094 C 0.60668 0.22918 0.50692 0.0
C2095 C 0.61171 0.2253 0.52185 0.0
C2096 C 0.61922 0.24071 0.56436 0.0
C2097 C 0.61026 0.2171 0.59803 0.0
C2098 C 0.61249 0.22122 0.58197 0.0
C2099 C 0.6104 0.23551 0.53534 0.0
C2100 C 0.61268 0.2302 0.55126 0.0
H2101 H 0.60871 0.18542 0.61879 0.0
H2102 H 0.61629 0.1933 0.59391 0.0
H2103 H 0.62389 0.24474 0.58942 0.0
H2104 H 0.59543 0.26521 0.51755 0.0
H2105 H 0.60384 0.25834 0.54356 0.0
C2106 C 0.03072 0.38301 0.47847 0.0
C2107 C 0.02244 0.39562 0.47465 0.0
C2108 C 0.03354 0.37995 0.49409 0.0
C2109 C 0.03246 0.39674 0.53553 0.0
H2110 H 0.02245 0.35321 0.54214 0.0
C2111 C 0.01126 0.37634 0.59249 0.0
C2112 C 0.01412 0.36133 0.59626 0.0
C2113 C 0.01677 0.382 0.57913 0.0
C2114 C 0.02567 0.36539 0.5406 0.0
H2115 H 0.01084 0.41504 0.48431 0.0
H2116 H 0.01567 0.40966 0.51143 0.0
H2117 H 0.02361 0.36016 0.51568 0.0
H2118 H 0.02631 0.34116 0.59018 0.0
H2119 H 0.03636 0.35119 0.56718 0.0
H2120 H 0.03397 0.40196 0.56053 0.0
C2121 C 0.02027 0.4023 0.50243 0.0
C2122 C 0.02631 0.36938 0.52535 0.0
C2123 C 0.01747 0.40537 0.48684 0.0
C2124 C 0.02382 0.35272 0.58738 0.0
C2125 C 0.02945 0.35841 0.57416 0.0
C2126 C 0.03183 0.39273 0.55083 0.0
C2127 C 0.0281 0.3894 0.50623 0.0
C2128 C 0.02939 0.38513 0.52259 0.0
C2129 C 0.02533 0.37276 0.56942 0.0
C2130 C 0.02813 0.37703 0.55352 0.0
H2131 H 0.03491 0.37542 0.46937 0.0
H2132 H 0.03981 0.37004 0.49664 0.0
H2133 H 0.03509 0.40897 0.5338 0.0
H2134 H 0.00374 0.38316 0.59912 0.0
H2135 H 0.01333 0.39307 0.57583 0.0
C2136 C 0.26873 0.5325 0.44446 0.0
C2137 C 0.25458 0.52991 0.43446 0.0
C2138 C 0.27069 0.52458 0.45779 0.0
C2139 C 0.25498 0.49034 0.47648 0.0
H2140 H 0.27238 0.51587 0.51502 0.0
C2141 C 0.24796 0.47208 0.53853 0.0
C2142 C 0.25962 0.47804 0.55081 0.0
C2143 C 0.24924 0.47603 0.5233 0.0
C2144 C 0.26782 0.50843 0.50434 0.0
H2145 H 0.23147 0.51673 0.43054 0.0
H2146 H 0.23493 0.50288 0.45382 0.0
H2147 H 0.27079 0.52755 0.49049 0.0
H2148 H 0.28235 0.49158 0.55667 0.0
H2149 H 0.28493 0.49801 0.53002 0.0
H2150 H 0.25182 0.47125 0.49045 0.0
C2151 C 0.24456 0.51094 0.45124 0.0
C2152 C 0.26685 0.51518 0.49026 0.0
C2153 C 0.24258 0.5189 0.43791 0.0
C2154 C 0.27317 0.48692 0.54739 0.0
C2155 C 0.27454 0.49072 0.53216 0.0
C2156 C 0.25602 0.48354 0.49061 0.0
C2157 C 0.25858 0.51383 0.46142 0.0
C2158 C 0.26029 0.50627 0.47618 0.0
C2159 C 0.26228 0.48592 0.52008 0.0
C2160 C 0.26233 0.49255 0.50475 0.0
H2161 H 0.27835 0.54064 0.44198 0.0
H2162 H 0.28173 0.52689 0.46527 0.0
H2163 H 0.25003 0.48312 0.46578 0.0
H2164 H 0.23732 0.46535 0.54092 0.0
H2165 H 0.23953 0.47218 0.51434 0.0
C2166 C 0.27978 0.50998 0.88729 0.0
C2167 C 0.285 0.50842 0.87233 0.0
C2168 C 0.28391 0.52385 0.89736 0.0
C2169 C 0.31429 0.55787 0.90445 0.0
H2170 H 0.28719 0.57331 0.93447 0.0
C2171 C 0.33741 0.60892 0.95125 0.0
C2172 C 0.33548 0.60534 0.96654 0.0
C2173 C 0.32854 0.60001 0.93833 0.0
C2174 C 0.29487 0.56917 0.92612 0.0
H2175 H 0.29795 0.52042 0.85588 0.0
H2176 H 0.30498 0.5447 0.87333 0.0
H2177 H 0.27698 0.55173 0.91434 0.0
H2178 H 0.32181 0.59069 0.98042 0.0
H2179 H 0.30635 0.57515 0.95794 0.0
H2180 H 0.33227 0.57499 0.91641 0.0
C2181 C 0.29802 0.53509 0.87746 0.0
C2182 C 0.28905 0.55676 0.91463 0.0
C2183 C 0.29399 0.52119 0.86745 0.0
C2184 C 0.32359 0.59362 0.96873 0.0
C2185 C 0.31468 0.58478 0.95585 0.0
C2186 C 0.32007 0.5703 0.91586 0.0
C2187 C 0.29325 0.53652 0.89265 0.0
C2188 C 0.2988 0.55074 0.90386 0.0
C2189 C 0.31753 0.58743 0.94049 0.0
C2190 C 0.31053 0.57588 0.92703 0.0
H2191 H 0.27294 0.50029 0.89142 0.0
H2192 H 0.28022 0.52442 0.90904 0.0
H2193 H 0.32224 0.55341 0.89654 0.0
H2194 H 0.34654 0.61784 0.94922 0.0
H2195 H 0.33084 0.60247 0.92663 0.0
C2196 C 0.62122 0.05124 0.50445 0.0
C2197 C 0.62752 0.03738 0.50798 0.0
C2198 C 0.61965 0.05508 0.48898 0.0
C2199 C 0.61885 0.03777 0.4477 0.0
H2200 H 0.63768 0.07878 0.44034 0.0
C2201 C 0.6372 0.04459 0.38802 0.0
C2202 C 0.65339 0.04949 0.3894 0.0
C2203 C 0.62847 0.0482 0.40048 0.0
C2204 C 0.6322 0.06733 0.44215 0.0
H2205 H 0.63657 0.01645 0.49805 0.0
H2206 H 0.63397 0.02316 0.47122 0.0
H2207 H 0.63327 0.07353 0.46699 0.0
H2208 H 0.67254 0.06397 0.40373 0.0
H2209 H 0.65753 0.07016 0.42539 0.0
H2210 H 0.61887 0.03105 0.42324 0.0
C2211 C 0.63015 0.03105 0.48031 0.0
C2212 C 0.62957 0.06436 0.45743 0.0
C2213 C 0.63185 0.02729 0.49572 0.0
C2214 C 0.66008 0.06006 0.40233 0.0
C2215 C 0.6514 0.06356 0.41484 0.0
C2216 C 0.62149 0.0407 0.43249 0.0
C2217 C 0.62414 0.04502 0.47675 0.0
C2218 C 0.62359 0.0493 0.46043 0.0
C2219 C 0.63584 0.05665 0.41455 0.0
C2220 C 0.62892 0.05529 0.42961 0.0
H2221 H 0.61783 0.05926 0.51369 0.0
H2222 H 0.61498 0.06593 0.48659 0.0
H2223 H 0.6139 0.02614 0.44961 0.0
H2224 H 0.63172 0.03665 0.37801 0.0
H2225 H 0.61635 0.04314 0.39965 0.0
C2226 C 0.82157 0.91773 0.13934 0.0
C2227 C 0.81368 0.93045 0.14464 0.0
C2228 C 0.81605 0.90849 0.1252 0.0
C2229 C 0.78039 0.89866 0.09663 0.0
H2230 H 0.80956 0.88777 0.06688 0.0
C2231 C 0.757 0.87268 0.03411 0.0
C2232 C 0.7638 0.88085 0.02272 0.0
C2233 C 0.76442 0.87402 0.04947 0.0
C2234 C 0.80126 0.89064 0.07509 0.0
H2235 H 0.79416 0.94373 0.13897 0.0
H2236 H 0.78465 0.92776 0.1144 0.0
H2237 H 0.81959 0.90029 0.09311 0.0
H2238 H 0.78437 0.89545 0.01795 0.0
H2239 H 0.79716 0.89804 0.04464 0.0
H2240 H 0.76206 0.88997 0.07843 0.0
C2241 C 0.79483 0.92463 0.12132 0.0
C2242 C 0.80702 0.8977 0.09017 0.0
C2243 C 0.80032 0.93383 0.1354 0.0
C2244 C 0.77878 0.88919 0.02658 0.0
C2245 C 0.78617 0.89055 0.04188 0.0
C2246 C 0.77465 0.89167 0.08158 0.0
C2247 C 0.80255 0.91178 0.11609 0.0
C2248 C 0.79662 0.90226 0.10093 0.0
C2249 C 0.77878 0.88354 0.05368 0.0
C2250 C 0.78499 0.88802 0.07045 0.0
H2251 H 0.83182 0.91475 0.14627 0.0
H2252 H 0.82222 0.89864 0.12152 0.0
H2253 H 0.77208 0.90173 0.10476 0.0
H2254 H 0.74547 0.86615 0.03143 0.0
H2255 H 0.75855 0.86824 0.05823 0.0
C2256 C 0.44507 0.26628 0.53011 0.0
C2257 C 0.43433 0.25266 0.52708 0.0
C2258 C 0.4586 0.26765 0.52245 0.0
C2259 C 0.47687 0.25154 0.4881 0.0
H2260 H 0.51568 0.26742 0.51397 0.0
C2261 C 0.53886 0.24378 0.46965 0.0
C2262 C 0.55126 0.25522 0.47586 0.0
C2263 C 0.52364 0.24515 0.47363 0.0
C2264 C 0.50494 0.26326 0.50645 0.0
H2265 H 0.42926 0.22991 0.51332 0.0
H2266 H 0.45309 0.2322 0.50008 0.0
H2267 H 0.49111 0.26624 0.52558 0.0
H2268 H 0.55739 0.27764 0.4899 0.0
H2269 H 0.53077 0.28039 0.49637 0.0
H2270 H 0.49083 0.24839 0.46899 0.0
C2271 C 0.45093 0.24188 0.50831 0.0
C2272 C 0.49083 0.26254 0.51315 0.0
C2273 C 0.43738 0.2405 0.51603 0.0
C2274 C 0.54799 0.26865 0.48502 0.0
C2275 C 0.53279 0.27011 0.48886 0.0
C2276 C 0.49103 0.25233 0.48135 0.0
C2277 C 0.46176 0.25543 0.51155 0.0
C2278 C 0.47663 0.25659 0.5041 0.0
C2279 C 0.52057 0.25804 0.48381 0.0
C2280 C 0.50526 0.25814 0.49047 0.0
H2281 H 0.44317 0.27581 0.53866 0.0
H2282 H 0.46664 0.27829 0.52509 0.0
H2283 H 0.46609 0.24705 0.48078 0.0
H2284 H 0.54114 0.23323 0.46271 0.0
H2285 H 0.51456 0.2356 0.46958 0.0
C2286 C 0.1474 0.79353 0.92867 0.0
C2287 C 0.15101 0.80992 0.93001 0.0
C2288 C 0.1331 0.78642 0.92092 0.0
C2289 C 0.09939 0.79202 0.89292 0.0
H2290 H 0.07756 0.76066 0.91464 0.0
C2291 C 0.03355 0.76818 0.87761 0.0
C2292 C 0.02901 0.75272 0.88046 0.0
C2293 C 0.04921 0.77465 0.88117 0.0
C2294 C 0.08359 0.76915 0.90822 0.0
H2295 H 0.14256 0.83165 0.92389 0.0
H2296 H 0.11736 0.81916 0.91045 0.0
H2297 H 0.10323 0.77316 0.92586 0.0
H2298 H 0.03722 0.73147 0.88803 0.0
H2299 H 0.06465 0.74246 0.89364 0.0
H2300 H 0.07958 0.78801 0.8753 0.0
C2301 C 0.12572 0.81185 0.91533 0.0
C2302 C 0.09831 0.77637 0.91471 0.0
C2303 C 0.14006 0.81901 0.92316 0.0
C2304 C 0.04049 0.74345 0.88579 0.0
C2305 C 0.05614 0.74982 0.88916 0.0
C2306 C 0.08462 0.7847 0.88635 0.0
C2307 C 0.12202 0.79549 0.91433 0.0
C2308 C 0.1064 0.78787 0.90715 0.0
C2309 C 0.06058 0.76569 0.88755 0.0
C2310 C 0.07656 0.77315 0.89393 0.0
H2311 H 0.15547 0.78619 0.93397 0.0
H2312 H 0.13066 0.77377 0.92021 0.0
H2313 H 0.10541 0.80078 0.88679 0.0
H2314 H 0.02482 0.77557 0.87366 0.0
H2315 H 0.0522 0.78692 0.87985 0.0
C2316 C 0.89479 0.26854 0.5044 0.0
C2317 C 0.88151 0.27682 0.50386 0.0
C2318 C 0.90561 0.2704 0.51784 0.0
C2319 C 0.91115 0.28477 0.56022 0.0
H2320 H 0.95465 0.29416 0.55316 0.0
C2321 C 0.95749 0.32129 0.60542 0.0
C2322 C 0.97342 0.31947 0.60465 0.0
C2323 C 0.94593 0.31189 0.59516 0.0
C2324 C 0.94265 0.29117 0.55545 0.0
H2325 H 0.86885 0.29306 0.51721 0.0
H2326 H 0.88781 0.29644 0.54062 0.0
H2327 H 0.935 0.28584 0.53095 0.0
H2328 H 0.9897 0.30536 0.59383 0.0
H2329 H 0.9695 0.28855 0.57624 0.0
H2330 H 0.91877 0.29046 0.58474 0.0
C2331 C 0.88982 0.28844 0.53068 0.0
C2332 C 0.93135 0.28645 0.54265 0.0
C2333 C 0.87907 0.28667 0.51721 0.0
C2334 C 0.97749 0.30708 0.59454 0.0
C2335 C 0.96592 0.29757 0.58438 0.0
C2336 C 0.92248 0.28939 0.57307 0.0
C2337 C 0.90331 0.28049 0.53108 0.0
C2338 C 0.91542 0.28358 0.54486 0.0
C2339 C 0.95008 0.3004 0.584 0.0
C2340 C 0.93834 0.29303 0.57081 0.0
H2341 H 0.89703 0.26093 0.49427 0.0
H2342 H 0.91585 0.26405 0.51784 0.0
H2343 H 0.89898 0.2824 0.5623 0.0
H2344 H 0.95403 0.33086 0.613 0.0
H2345 H 0.93389 0.31451 0.59518 0.0
C2346 C 0.50787 0.63184 0.05819 0.0
C2347 C 0.51116 0.63779 0.04409 0.0
C2348 C 0.49237 0.62951 0.06184 0.0
C2349 C 0.45113 0.62521 0.04376 0.0
H2350 H 0.44185 0.64496 0.08371 0.0
C2351 C 0.40179 0.66286 0.06279 0.0
C2352 C 0.38907 0.65444 0.05301 0.0
C2353 C 0.41525 0.65573 0.06684 0.0
C2354 C 0.44423 0.63917 0.07258 0.0
H2355 H 0.50082 0.64546 0.02259 0.0
H2356 H 0.4739 0.6415 0.02894 0.0
H2357 H 0.46909 0.64243 0.07918 0.0
H2358 H 0.37931 0.63122 0.04231 0.0
H2359 H 0.40288 0.61873 0.04936 0.0
H2360 H 0.42651 0.62296 0.03664 0.0
C2361 C 0.48322 0.63856 0.03717 0.0
C2362 C 0.45983 0.63765 0.07003 0.0
C2363 C 0.49866 0.64104 0.03361 0.0
C2364 C 0.38912 0.63814 0.04948 0.0
C2365 C 0.40264 0.63099 0.05348 0.0
C2366 C 0.43557 0.62671 0.0463 0.0
C2367 C 0.47989 0.63285 0.05134 0.0
C2368 C 0.46346 0.63133 0.05531 0.0
C2369 C 0.41624 0.64001 0.06123 0.0
C2370 C 0.43198 0.63439 0.06048 0.0
H2371 H 0.51729 0.62927 0.0665 0.0
H2372 H 0.49014 0.6251 0.07285 0.0
H2373 H 0.45356 0.62001 0.0324 0.0
H2374 H 0.40214 0.67542 0.06576 0.0
H2375 H 0.42543 0.66308 0.07285 0.0
C2376 C 0.52803 0.44021 0.26132 0.0
C2377 C 0.52495 0.4286 0.24841 0.0
C2378 C 0.51953 0.4532 0.26221 0.0
C2379 C 0.49602 0.47665 0.23735 0.0
H2380 H 0.48557 0.49509 0.27739 0.0
C2381 C 0.46776 0.53435 0.24197 0.0
C2382 C 0.47579 0.5458 0.25351 0.0
C2383 C 0.47032 0.51858 0.24213 0.0
C2384 C 0.48839 0.49006 0.26612 0.0
H2385 H 0.51028 0.42138 0.22646 0.0
H2386 H 0.49537 0.44407 0.22801 0.0
H2387 H 0.49699 0.47022 0.27584 0.0
H2388 H 0.49177 0.54964 0.27491 0.0
H2389 H 0.49624 0.52217 0.27524 0.0
H2390 H 0.48778 0.49665 0.22769 0.0
C2391 C 0.50453 0.44322 0.23735 0.0
C2392 C 0.49499 0.47585 0.26524 0.0
C2393 C 0.51307 0.43023 0.23645 0.0
C2394 C 0.48548 0.54104 0.26585 0.0
C2395 C 0.48797 0.52529 0.26606 0.0
C2396 C 0.48939 0.49083 0.23823 0.0
C2397 C 0.50769 0.4549 0.25022 0.0
C2398 C 0.49921 0.46915 0.2509 0.0
C2399 C 0.48087 0.51396 0.2539 0.0
C2400 C 0.4858 0.49787 0.25268 0.0
H2401 H 0.53727 0.43944 0.27061 0.0
H2402 H 0.52252 0.46211 0.27212 0.0
H2403 H 0.49929 0.47194 0.22615 0.0
H2404 H 0.4603 0.53771 0.23227 0.0
H2405 H 0.46452 0.51008 0.23272 0.0
C2406 C 0.93461 0.1349 0.81624 0.0
C2407 C 0.9297 0.14991 0.81551 0.0
C2408 C 0.92497 0.12157 0.80917 0.0
C2409 C 0.89372 0.10947 0.77702 0.0
H2410 H 0.89256 0.06975 0.79471 0.0
C2411 C 0.87037 0.03889 0.76033 0.0
C2412 C 0.87659 0.03666 0.74591 0.0
C2413 C 0.87273 0.05363 0.76918 0.0
C2414 C 0.89248 0.08079 0.78969 0.0
H2415 H 0.91066 0.16267 0.80709 0.0
H2416 H 0.89375 0.13934 0.79483 0.0
H2417 H 0.90475 0.09364 0.81061 0.0
H2418 H 0.88904 0.04819 0.72885 0.0
H2419 H 0.89313 0.07385 0.74418 0.0
H2420 H 0.88178 0.09654 0.75597 0.0
C2421 C 0.90511 0.13791 0.80081 0.0
C2422 C 0.89965 0.09445 0.79875 0.0
C2423 C 0.91473 0.15125 0.80795 0.0
C2424 C 0.88417 0.04962 0.73996 0.0
C2425 C 0.88642 0.06433 0.74872 0.0
C2426 C 0.88659 0.09579 0.76794 0.0
C2427 C 0.91021 0.12294 0.80116 0.0
C2428 C 0.90073 0.10887 0.79237 0.0
C2429 C 0.88122 0.06638 0.76368 0.0
C2430 C 0.88627 0.08123 0.77404 0.0
H2431 H 0.946 0.13346 0.82213 0.0
H2432 H 0.92933 0.11023 0.80952 0.0
H2433 H 0.89442 0.12037 0.77172 0.0
H2434 H 0.86457 0.02905 0.76521 0.0
H2435 H 0.86844 0.05489 0.78059 0.0
C2436 C 0.51675 0.87431 0.29972 0.0
C2437 C 0.50448 0.87742 0.28883 0.0
C2438 C 0.5304 0.8848 0.30316 0.0
C2439 C 0.54375 0.92643 0.30358 0.0
H2440 H 0.58537 0.91321 0.31079 0.0
C2441 C 0.59563 0.97196 0.32642 0.0
C2442 C 0.60535 0.96798 0.33914 0.0
C2443 C 0.58549 0.96039 0.31692 0.0
C2444 C 0.57382 0.91709 0.30887 0.0
H2445 H 0.49703 0.89384 0.27283 0.0
H2446 H 0.5209 0.91212 0.27881 0.0
H2447 H 0.56307 0.89378 0.3008 0.0
H2448 H 0.61292 0.94882 0.35138 0.0
H2449 H 0.59496 0.9286 0.33506 0.0
H2450 H 0.55417 0.94955 0.31222 0.0
C2451 C 0.51992 0.90159 0.28471 0.0
C2452 C 0.56106 0.90596 0.30314 0.0
C2453 C 0.50631 0.89107 0.2812 0.0
C2454 C 0.60562 0.95213 0.34153 0.0
C2455 C 0.59531 0.94056 0.33215 0.0
C2456 C 0.55644 0.93751 0.30938 0.0
C2457 C 0.53204 0.89867 0.29586 0.0
C2458 C 0.54586 0.9105 0.30064 0.0
C2459 C 0.58466 0.94465 0.32014 0.0
C2460 C 0.57162 0.93298 0.31231 0.0
H2461 H 0.51575 0.8638 0.30565 0.0
H2462 H 0.53946 0.88228 0.31191 0.0
H2463 H 0.53215 0.93028 0.30202 0.0
H2464 H 0.59531 0.98412 0.32433 0.0
H2465 H 0.57777 0.96391 0.30751 0.0
C2466 C 0.02411 0.51615 0.64618 0.0
C2467 C 0.0347 0.52797 0.6418 0.0
C2468 C 0.0277 0.50069 0.64559 0.0
C2469 C 0.06003 0.47634 0.64693 0.0
H2470 H 0.02691 0.44335 0.63034 0.0
C2471 C 0.05504 0.41366 0.66513 0.0
C2472 C 0.04687 0.40151 0.6545 0.0
C2473 C 0.05752 0.42882 0.6607 0.0
C2474 C 0.03644 0.45235 0.63473 0.0
H2475 H 0.05746 0.53291 0.63355 0.0
H2476 H 0.06383 0.50571 0.63264 0.0
H2477 H 0.02279 0.47057 0.62821 0.0
H2478 H 0.03618 0.39507 0.63064 0.0
H2479 H 0.04093 0.42144 0.6227 0.0
H2480 H 0.07351 0.45802 0.65384 0.0
C2481 C 0.05273 0.5085 0.63648 0.0
C2482 C 0.03398 0.46798 0.63369 0.0
C2483 C 0.04905 0.524 0.63691 0.0
C2484 C 0.04258 0.40432 0.63898 0.0
C2485 C 0.04515 0.41942 0.63452 0.0
C2486 C 0.06248 0.46063 0.64805 0.0
C2487 C 0.04201 0.49668 0.6407 0.0
C2488 C 0.04556 0.48015 0.64013 0.0
C2489 C 0.05185 0.43201 0.64558 0.0
C2490 C 0.05057 0.44848 0.64226 0.0
H2491 H 0.0129 0.51881 0.64984 0.0
H2492 H 0.0193 0.49186 0.6491 0.0
H2493 H 0.06916 0.4855 0.652 0.0
H2494 H 0.05825 0.41174 0.67721 0.0
H2495 H 0.06264 0.43824 0.66954 0.0
C2496 C 0.7591 0.48078 0.55953 0.0
C2497 C 0.74525 0.47351 0.56424 0.0
C2498 C 0.75862 0.48862 0.54607 0.0
C2499 C 0.73426 0.48956 0.50863 0.0
H2500 H 0.76207 0.52722 0.50589 0.0
C2501 C 0.73611 0.51621 0.45033 0.0
C2502 C 0.75131 0.51907 0.44591 0.0
C2503 C 0.73394 0.51387 0.46585 0.0
C2504 C 0.75423 0.51671 0.50648 0.0
H2505 H 0.72 0.46893 0.55849 0.0
H2506 H 0.71913 0.48286 0.53521 0.0
H2507 H 0.76107 0.51654 0.53106 0.0
H2508 H 0.77605 0.52305 0.45445 0.0
H2509 H 0.77233 0.51884 0.48144 0.0
H2510 H 0.72771 0.48945 0.48404 0.0
C2511 C 0.73039 0.48236 0.54185 0.0
C2512 C 0.75369 0.51056 0.52088 0.0
C2513 C 0.73088 0.47452 0.5553 0.0
C2514 C 0.76421 0.52071 0.45752 0.0
C2515 C 0.76205 0.51841 0.47301 0.0
C2516 C 0.73478 0.49571 0.49427 0.0
C2517 C 0.74427 0.48938 0.53697 0.0
C2518 C 0.7439 0.49675 0.52206 0.0
C2519 C 0.74693 0.51441 0.47724 0.0
C2520 C 0.74498 0.50919 0.49295 0.0
H2521 H 0.77035 0.4804 0.56625 0.0
H2522 H 0.76955 0.49374 0.54256 0.0
H2523 H 0.72675 0.47879 0.50905 0.0
H2524 H 0.72595 0.51481 0.44163 0.0
H2525 H 0.72213 0.51104 0.4688 0.0
C2526 C 0.72798 0.49352 0.13101 0.0
C2527 C 0.71731 0.49845 0.14131 0.0
C2528 C 0.72417 0.47984 0.1206 0.0
C2529 C 0.69639 0.44333 0.11248 0.0
H2530 H 0.70506 0.44588 0.06944 0.0
C2531 C 0.66139 0.40556 0.0593 0.0
C2532 C 0.66897 0.40158 0.046 0.0
C2533 C 0.66966 0.41448 0.07251 0.0
C2534 C 0.70284 0.4448 0.08147 0.0
H2535 H 0.69446 0.49258 0.14907 0.0
H2536 H 0.68765 0.46902 0.13066 0.0
H2537 H 0.71493 0.46751 0.08939 0.0
H2538 H 0.69135 0.40281 0.03645 0.0
H2539 H 0.7059 0.41826 0.05965 0.0
H2540 H 0.68378 0.42082 0.10435 0.0
C2541 C 0.69905 0.47559 0.13073 0.0
C2542 C 0.70849 0.45724 0.09292 0.0
C2543 C 0.70286 0.48924 0.14114 0.0
C2544 C 0.68523 0.40565 0.04659 0.0
C2545 C 0.69351 0.41464 0.05979 0.0
C2546 C 0.69071 0.43089 0.101 0.0
C2547 C 0.70961 0.47078 0.12025 0.0
C2548 C 0.70504 0.45681 0.1085 0.0
C2549 C 0.68568 0.41964 0.07265 0.0
C2550 C 0.69359 0.43163 0.0853 0.0
H2551 H 0.73917 0.50039 0.13075 0.0
H2552 H 0.73263 0.4764 0.11278 0.0
H2553 H 0.69379 0.44249 0.12443 0.0
H2554 H 0.64886 0.40249 0.05915 0.0
H2555 H 0.66324 0.41818 0.08216 0.0
C2556 C 0.35824 0.97693 0.4857 0.0
C2557 C 0.36366 0.96661 0.47433 0.0
C2558 C 0.36037 0.97463 0.50153 0.0
C2559 C 0.36559 0.9451 0.52844 0.0
H2560 H 0.37834 0.98176 0.55856 0.0
C2561 C 0.37106 0.96936 0.59901 0.0
C2562 C 0.35581 0.96374 0.60172 0.0
C2563 C 0.37634 0.96583 0.58439 0.0
C2564 C 0.37512 0.97128 0.55039 0.0
H2565 H 0.37537 0.94562 0.47056 0.0
H2566 H 0.37894 0.94148 0.49842 0.0
H2567 H 0.37893 0.98396 0.53074 0.0
H2568 H 0.33479 0.94864 0.59199 0.0
H2569 H 0.34387 0.94255 0.56648 0.0
H2570 H 0.36124 0.93255 0.54815 0.0
C2571 C 0.37312 0.95139 0.49499 0.0
C2572 C 0.37526 0.97262 0.53441 0.0
C2573 C 0.37113 0.9538 0.47911 0.0
C2574 C 0.34663 0.95307 0.59024 0.0
C2575 C 0.35186 0.94959 0.57558 0.0
C2576 C 0.36537 0.94376 0.54449 0.0
C2577 C 0.36789 0.9619 0.50636 0.0
C2578 C 0.37 0.9597 0.52326 0.0
C2579 C 0.36639 0.95669 0.5722 0.0
C2580 C 0.36969 0.95697 0.55561 0.0
H2581 H 0.35259 0.987 0.4824 0.0
H2582 H 0.35602 0.9828 0.51001 0.0
H2583 H 0.3615 0.93494 0.52007 0.0
H2584 H 0.37841 0.97743 0.60779 0.0
H2585 H 0.38775 0.97118 0.58228 0.0
C2586 C 0.17811 0.05866 0.86776 0.0
C2587 C 0.17314 0.06692 0.85524 0.0
C2588 C 0.18388 0.06666 0.8824 0.0
C2589 C 0.20287 0.105 0.90079 0.0
H2590 H 0.19518 0.08672 0.93902 0.0
C2591 C 0.22248 0.11322 0.97254 0.0
C2592 C 0.23881 0.11585 0.9724 0.0
C2593 C 0.21254 0.11088 0.9585 0.0
C2594 C 0.19727 0.09221 0.92854 0.0
H2595 H 0.17002 0.09004 0.84836 0.0
H2596 H 0.17997 0.10405 0.87407 0.0
H2597 H 0.18067 0.07526 0.91427 0.0
H2598 H 0.25753 0.11909 0.95762 0.0
H2599 H 0.24024 0.11475 0.93303 0.0
H2600 H 0.21959 0.12191 0.91511 0.0
C2601 C 0.1795 0.09138 0.87248 0.0
C2602 C 0.18909 0.08548 0.91429 0.0
C2603 C 0.17366 0.08335 0.85781 0.0
C2604 C 0.24496 0.11722 0.95804 0.0
C2605 C 0.23502 0.11473 0.94396 0.0
C2606 C 0.21107 0.11178 0.91508 0.0
C2607 C 0.18484 0.08313 0.88489 0.0
C2608 C 0.19207 0.09154 0.90019 0.0
C2609 C 0.21874 0.11093 0.944 0.0
C2610 C 0.20862 0.10525 0.92909 0.0
H2611 H 0.17771 0.04599 0.8662 0.0
H2612 H 0.18806 0.05994 0.89163 0.0
H2613 H 0.20551 0.10992 0.89013 0.0
H2614 H 0.21746 0.11225 0.9835 0.0
H2615 H 0.20003 0.10836 0.95898 0.0
C2616 C 0.55908 0.7377 0.48827 0.0
C2617 C 0.56066 0.74332 0.47365 0.0
C2618 C 0.54497 0.73824 0.49503 0.0
C2619 C 0.50843 0.75784 0.49244 0.0
H2620 H 0.49034 0.72209 0.5112 0.0
C2621 C 0.44291 0.7449 0.49449 0.0
C2622 C 0.43745 0.74378 0.50924 0.0
C2623 C 0.4588 0.74496 0.49276 0.0
C2624 C 0.49541 0.73224 0.50624 0.0
H2625 H 0.54853 0.75338 0.45445 0.0
H2626 H 0.52403 0.75417 0.46606 0.0
H2627 H 0.51685 0.72223 0.50304 0.0
H2628 H 0.44439 0.74082 0.53358 0.0
H2629 H 0.47247 0.74047 0.53035 0.0
H2630 H 0.48671 0.76746 0.49487 0.0
C2631 C 0.53376 0.74977 0.47257 0.0
C2632 C 0.51056 0.73235 0.50157 0.0
C2633 C 0.54782 0.74929 0.46588 0.0
C2634 C 0.44824 0.74179 0.52209 0.0
C2635 C 0.46426 0.74162 0.52027 0.0
C2636 C 0.49332 0.75765 0.49694 0.0
C2637 C 0.53217 0.74436 0.48728 0.0
C2638 C 0.51704 0.74497 0.49418 0.0
C2639 C 0.46965 0.74359 0.50564 0.0
C2640 C 0.48652 0.74468 0.50348 0.0
H2641 H 0.56882 0.73312 0.49458 0.0
H2642 H 0.54416 0.73406 0.5064 0.0
H2643 H 0.51321 0.76793 0.4872 0.0
H2644 H 0.4349 0.74586 0.48421 0.0
H2645 H 0.46264 0.74614 0.48129 0.0
C2646 C 0.85994 0.17268 0.07915 0.0
C2647 C 0.84798 0.18265 0.07934 0.0
C2648 C 0.87486 0.17768 0.08704 0.0
C2649 C 0.89723 0.20907 0.11615 0.0
H2650 H 0.93174 0.2008 0.09199 0.0
C2651 C 0.95615 0.24844 0.12217 0.0
C2652 C 0.96987 0.24144 0.11959 0.0
C2653 C 0.94165 0.23929 0.12088 0.0
C2654 C 0.92231 0.20298 0.09908 0.0
H2655 H 0.84206 0.20534 0.0888 0.0
H2656 H 0.8681 0.21424 0.10206 0.0
H2657 H 0.90553 0.1882 0.08278 0.0
H2658 H 0.97933 0.21924 0.115 0.0
H2659 H 0.95398 0.20326 0.11272 0.0
H2660 H 0.91404 0.22446 0.13206 0.0
C2661 C 0.86599 0.20249 0.09598 0.0
C2662 C 0.90724 0.19572 0.09379 0.0
C2663 C 0.85109 0.19746 0.08816 0.0
C2664 C 0.96892 0.22499 0.1168 0.0
C2665 C 0.95442 0.21585 0.11547 0.0
C2666 C 0.91232 0.21641 0.12139 0.0
C2667 C 0.87816 0.19278 0.09528 0.0
C2668 C 0.89443 0.19894 0.10207 0.0
C2669 C 0.94056 0.22295 0.11696 0.0
C2670 C 0.92497 0.21368 0.11273 0.0
H2671 H 0.85796 0.16121 0.07244 0.0
H2672 H 0.88389 0.16981 0.08644 0.0
H2673 H 0.88769 0.21159 0.12297 0.0
H2674 H 0.95645 0.26109 0.12417 0.0
H2675 H 0.93118 0.24514 0.12197 0.0
C2676 C 0.14326 0.68935 0.48372 0.0
C2677 C 0.1456 0.70531 0.48967 0.0
C2678 C 0.13303 0.68424 0.47015 0.0
C2679 C 0.11101 0.69833 0.43574 0.0
H2680 H 0.08392 0.65969 0.43617 0.0
C2681 C 0.05101 0.68232 0.39854 0.0
C2682 C 0.04604 0.66642 0.3935 0.0
C2683 C 0.06557 0.68674 0.40734 0.0
C2684 C 0.09159 0.67034 0.43569 0.0
H2685 H 0.13923 0.72845 0.48568 0.0
H2686 H 0.12092 0.71946 0.46244 0.0
H2687 H 0.1043 0.66803 0.45775 0.0
H2688 H 0.05306 0.6429 0.39234 0.0
H2689 H 0.07855 0.65063 0.40772 0.0
H2690 H 0.0977 0.70088 0.41391 0.0
C2691 C 0.12723 0.71091 0.46808 0.0
C2692 C 0.10331 0.67515 0.4481 0.0
C2693 C 0.13756 0.71604 0.48159 0.0
C2694 C 0.05649 0.65521 0.39629 0.0
C2695 C 0.07104 0.65962 0.40512 0.0
C2696 C 0.09918 0.69356 0.42335 0.0
C2697 C 0.12475 0.69492 0.46224 0.0
C2698 C 0.11304 0.68932 0.44841 0.0
C2699 C 0.07545 0.67535 0.41129 0.0
C2700 C 0.08922 0.67961 0.4233 0.0
H2701 H 0.14909 0.6807 0.4897 0.0
H2702 H 0.13158 0.67187 0.46591 0.0
H2703 H 0.11846 0.70916 0.43544 0.0
H2704 H 0.04318 0.69122 0.39674 0.0
H2705 H 0.06858 0.69893 0.41199 0.0
C2706 C 0.48319 0.33901 0.96852 0.0
C2707 C 0.47431 0.35017 0.96221 0.0
C2708 C 0.49857 0.33801 0.96509 0.0
C2709 C 0.53253 0.36057 0.95195 0.0
H2710 H 0.5475 0.31955 0.9486 0.0
C2711 C 0.59687 0.35064 0.96753 0.0
C2712 C 0.60209 0.33633 0.96204 0.0
C2713 C 0.58171 0.354 0.9627 0.0
C2714 C 0.54358 0.33112 0.94911 0.0
H2715 H 0.47457 0.36899 0.94726 0.0
H2716 H 0.50154 0.36717 0.94115 0.0
H2717 H 0.51981 0.32156 0.94952 0.0
H2718 H 0.59613 0.31543 0.9454 0.0
H2719 H 0.57026 0.32181 0.93625 0.0
H2720 H 0.55639 0.37012 0.95148 0.0
C2721 C 0.49661 0.3593 0.94889 0.0
C2722 C 0.52765 0.33227 0.94993 0.0
C2723 C 0.48118 0.36034 0.95238 0.0
C2724 C 0.59256 0.32651 0.95003 0.0
C2725 C 0.57754 0.33004 0.94496 0.0
C2726 C 0.54852 0.35942 0.95098 0.0
C2727 C 0.50547 0.34808 0.95519 0.0
C2728 C 0.522 0.347 0.95194 0.0
C2729 C 0.57154 0.3433 0.95199 0.0
C2730 C 0.55434 0.34468 0.95005 0.0
H2731 H 0.47838 0.33124 0.9764 0.0
H2732 H 0.50516 0.32951 0.97049 0.0
H2733 H 0.52857 0.37211 0.95347 0.0
H2734 H 0.6041 0.35877 0.97639 0.0
H2735 H 0.57764 0.36441 0.96834 0.0
C2736 C 0.48451 0.55703 0.73358 0.0
C2737 C 0.48107 0.56577 0.74726 0.0
C2738 C 0.49224 0.54358 0.73452 0.0
C2739 C 0.4993 0.51352 0.76132 0.0
H2740 H 0.52784 0.50033 0.73173 0.0
C2741 C 0.52508 0.45542 0.76507 0.0
C2742 C 0.52297 0.44544 0.75093 0.0
C2743 C 0.5236 0.47141 0.76505 0.0
C2744 C 0.51989 0.50389 0.74007 0.0
H2745 H 0.4835 0.56731 0.7727 0.0
H2746 H 0.49745 0.54426 0.77435 0.0
H2747 H 0.51811 0.52603 0.73105 0.0
H2748 H 0.51884 0.44453 0.72562 0.0
H2749 H 0.51624 0.47251 0.72555 0.0
H2750 H 0.50085 0.49139 0.77019 0.0
C2751 C 0.49388 0.54762 0.76286 0.0
C2752 C 0.51427 0.51857 0.73965 0.0
C2753 C 0.48604 0.56099 0.76191 0.0
C2754 C 0.52063 0.45197 0.73668 0.0
C2755 C 0.51912 0.468 0.73666 0.0
C2756 C 0.50498 0.49895 0.76179 0.0
C2757 C 0.49682 0.53856 0.74917 0.0
C2758 C 0.50376 0.52349 0.75017 0.0
C2759 C 0.51994 0.47774 0.75088 0.0
C2760 C 0.51521 0.49388 0.75108 0.0
H2761 H 0.4811 0.5605 0.72209 0.0
H2762 H 0.49418 0.53684 0.72372 0.0
H2763 H 0.49097 0.51672 0.76937 0.0
H2764 H 0.5271 0.45071 0.77621 0.0
H2765 H 0.52464 0.47869 0.77618 0.0
C2766 C 0.0872 0.853 0.19184 0.0
C2767 C 0.07819 0.85037 0.1771 0.0
C2768 C 0.09511 0.86778 0.19724 0.0
C2769 C 0.09252 0.90925 0.19192 0.0
H2770 H 0.13116 0.91579 0.22013 0.0
C2771 C 0.11528 0.97063 0.22145 0.0
C2772 C 0.11868 0.97155 0.23783 0.0
C2773 C 0.11397 0.95619 0.21225 0.0
C2774 C 0.12037 0.91414 0.21226 0.0
H2775 H 0.07114 0.86106 0.15613 0.0
H2776 H 0.0853 0.88676 0.16537 0.0
H2777 H 0.12208 0.8896 0.2068 0.0
H2778 H 0.12443 0.95831 0.25732 0.0
H2779 H 0.12206 0.933 0.24124 0.0
H2780 H 0.09055 0.93361 0.19762 0.0
C2781 C 0.08597 0.87745 0.17291 0.0
C2782 C 0.11514 0.89914 0.20464 0.0
C2783 C 0.07798 0.86266 0.16753 0.0
C2784 C 0.12189 0.95794 0.2447 0.0
C2785 C 0.12053 0.94345 0.23548 0.0
C2786 C 0.09776 0.92421 0.19946 0.0
C2787 C 0.09431 0.88029 0.18799 0.0
C2788 C 0.10098 0.89646 0.19462 0.0
C2789 C 0.11597 0.94235 0.21923 0.0
C2790 C 0.11159 0.92678 0.20993 0.0
H2791 H 0.08787 0.8437 0.19939 0.0
H2792 H 0.1013 0.86953 0.20895 0.0
H2793 H 0.08142 0.90762 0.18455 0.0
H2794 H 0.11295 0.981 0.21584 0.0
H2795 H 0.11077 0.95578 0.19972 0.0
C2796 C 0.48413 0.14154 0.68923 0.0
C2797 C 0.49082 0.14276 0.70493 0.0
C2798 C 0.47032 0.13166 0.68414 0.0
C2799 C 0.43663 0.10858 0.69833 0.0
H2800 H 0.43543 0.08378 0.65806 0.0
C2801 C 0.39858 0.04935 0.68008 0.0
C2802 C 0.39304 0.04532 0.66414 0.0
C2803 C 0.40759 0.0637 0.68506 0.0
C2804 C 0.43539 0.09082 0.66919 0.0
H2805 H 0.48787 0.13482 0.7277 0.0
H2806 H 0.46417 0.11713 0.7187 0.0
H2807 H 0.45728 0.10378 0.6667 0.0
H2808 H 0.39122 0.05374 0.64123 0.0
H2809 H 0.40692 0.07888 0.64994 0.0
H2810 H 0.41497 0.09503 0.701 0.0
C2811 C 0.46944 0.12403 0.71035 0.0
C2812 C 0.44796 0.10231 0.67417 0.0
C2813 C 0.4832 0.13401 0.71547 0.0
C2814 C 0.39554 0.05646 0.65354 0.0
C2815 C 0.40457 0.07081 0.65851 0.0
C2816 C 0.42408 0.09698 0.69337 0.0
C2817 C 0.4629 0.12262 0.69459 0.0
C2818 C 0.44887 0.11121 0.6889 0.0
C2819 C 0.41123 0.07429 0.6742 0.0
C2820 C 0.42343 0.08785 0.67882 0.0
H2821 H 0.48973 0.14796 0.68072 0.0
H2822 H 0.46552 0.13104 0.67197 0.0
H2823 H 0.43681 0.11539 0.70962 0.0
H2824 H 0.39699 0.04095 0.6885 0.0
H2825 H 0.41262 0.06598 0.6972 0.0
C2826 C 0.97349 0.48472 0.36293 0.0
C2827 C 0.96324 0.47349 0.36866 0.0
C2828 C 0.97154 0.50061 0.3653 0.0
C2829 C 0.943 0.52824 0.37173 0.0
H2830 H 0.98043 0.55742 0.38415 0.0
C2831 C 0.95205 0.59047 0.35379 0.0
C2832 C 0.96302 0.60164 0.36302 0.0
C2833 C 0.9484 0.5757 0.35872 0.0
C2834 C 0.96975 0.54952 0.38103 0.0
H2835 H 0.94275 0.47005 0.38116 0.0
H2836 H 0.93918 0.49806 0.38513 0.0
H2837 H 0.98195 0.52944 0.38427 0.0
H2838 H 0.97716 0.60699 0.38547 0.0
H2839 H 0.97059 0.5813 0.39429 0.0
H2840 H 0.93092 0.54838 0.36791 0.0
C2841 C 0.94877 0.49445 0.37888 0.0
C2842 C 0.97069 0.53345 0.3809 0.0
C2843 C 0.95085 0.47849 0.37668 0.0
C2844 C 0.96884 0.59847 0.37806 0.0
C2845 C 0.96513 0.58375 0.38305 0.0
C2846 C 0.94206 0.54438 0.37176 0.0
C2847 C 0.95923 0.50566 0.37336 0.0
C2848 C 0.95747 0.52264 0.37577 0.0
C2849 C 0.95562 0.57189 0.37302 0.0
C2850 C 0.95555 0.55517 0.37597 0.0
H2851 H 0.98324 0.48124 0.35687 0.0
H2852 H 0.97965 0.50898 0.36072 0.0
H2853 H 0.93262 0.52013 0.36774 0.0
H2854 H 0.94745 0.59257 0.3421 0.0
H2855 H 0.94108 0.56686 0.35067 0.0
C2856 C 0.29371 0.58976 0.29416 0.0
C2857 C 0.29397 0.59254 0.31055 0.0
C2858 C 0.30769 0.58951 0.28721 0.0
C2859 C 0.35025 0.6027 0.29447 0.0
H2860 H 0.35275 0.57157 0.25933 0.0
C2861 C 0.40812 0.59598 0.2667 0.0
C2862 C 0.40687 0.59416 0.25021 0.0
C2863 C 0.39464 0.59495 0.27456 0.0
C2864 C 0.35221 0.58042 0.26906 0.0
H2865 H 0.30923 0.59749 0.33245 0.0
H2866 H 0.3336 0.59678 0.32034 0.0
H2867 H 0.32867 0.57167 0.272 0.0
H2868 H 0.3905 0.58926 0.22907 0.0
H2869 H 0.36705 0.58767 0.24272 0.0
H2870 H 0.37378 0.61151 0.29145 0.0
C2871 C 0.32257 0.59491 0.31285 0.0
C2872 C 0.33839 0.5805 0.27631 0.0
C2873 C 0.30858 0.59515 0.3198 0.0
C2874 C 0.39187 0.5909 0.24178 0.0
C2875 C 0.37842 0.58982 0.24962 0.0
C2876 C 0.36409 0.60262 0.28722 0.0
C2877 C 0.32231 0.59204 0.29646 0.0
C2878 C 0.33719 0.59171 0.28903 0.0
C2879 C 0.37962 0.59198 0.26611 0.0
C2880 C 0.36519 0.59156 0.27434 0.0
H2881 H 0.28267 0.58755 0.28669 0.0
H2882 H 0.30705 0.58746 0.27454 0.0
H2883 H 0.34968 0.61163 0.30411 0.0
H2884 H 0.41949 0.5986 0.27354 0.0
H2885 H 0.39598 0.5965 0.28727 0.0
C2886 C 0.20824 0.39242 0.75414 0.0
C2887 C 0.21265 0.38717 0.7687 0.0
C2888 C 0.19312 0.38817 0.74649 0.0
C2889 C 0.15948 0.35805 0.74344 0.0
H2890 H 0.13629 0.38942 0.72525 0.0
C2891 C 0.09522 0.3435 0.71551 0.0
C2892 C 0.09079 0.35039 0.70187 0.0
C2893 C 0.1098 0.34824 0.72421 0.0
C2894 C 0.14267 0.38046 0.73008 0.0
H2895 H 0.20473 0.37323 0.78661 0.0
H2896 H 0.17828 0.3657 0.77316 0.0
H2897 H 0.16235 0.39714 0.73926 0.0
H2898 H 0.09822 0.36748 0.68651 0.0
H2899 H 0.12376 0.37553 0.70144 0.0
H2900 H 0.14003 0.34129 0.73399 0.0
C2901 C 0.18655 0.37313 0.7677 0.0
C2902 C 0.15758 0.38491 0.73815 0.0
C2903 C 0.20162 0.37754 0.77544 0.0
C2904 C 0.10123 0.36211 0.6971 0.0
C2905 C 0.11585 0.36675 0.7057 0.0
C2906 C 0.14463 0.35357 0.73525 0.0
C2907 C 0.18213 0.37843 0.75316 0.0
C2908 C 0.16616 0.37375 0.74488 0.0
C2909 C 0.12035 0.35988 0.71937 0.0
C2910 C 0.13603 0.3647 0.72841 0.0
H2911 H 0.21645 0.39997 0.74873 0.0
H2912 H 0.19009 0.39232 0.73523 0.0
H2913 H 0.16591 0.34917 0.74835 0.0
H2914 H 0.08732 0.33456 0.71957 0.0
H2915 H 0.11272 0.34287 0.73481 0.0
C2916 C 0.69672 0.98267 0.64125 0.0
C2917 C 0.68781 0.99437 0.64696 0.0
C2918 C 0.71148 0.98106 0.64886 0.0
C2919 C 0.74459 0.00228 0.67526 0.0
H2920 H 0.7545 0.96055 0.68274 0.0
C2921 C 0.80203 0.99119 0.71196 0.0
C2922 C 0.80894 0.97763 0.70729 0.0
C2923 C 0.78735 0.99379 0.70471 0.0
C2924 C 0.75206 0.97228 0.68055 0.0
H2925 H 0.68752 0.01369 0.66503 0.0
H2926 H 0.71342 0.01091 0.67834 0.0
H2927 H 0.72881 0.96401 0.66991 0.0
H2928 H 0.80631 0.95657 0.69086 0.0
H2929 H 0.78103 0.96124 0.67796 0.0
H2930 H 0.76795 0.01054 0.68565 0.0
C2931 C 0.70894 0.00299 0.66795 0.0
C2932 C 0.73728 0.97425 0.67324 0.0
C2933 C 0.69407 0.0045 0.66042 0.0
C2934 C 0.80114 0.96699 0.69491 0.0
C2935 C 0.78659 0.96964 0.68757 0.0
C2936 C 0.75947 1.0003 0.68247 0.0
C2937 C 0.71776 0.99118 0.6623 0.0
C2938 C 0.73339 0.98925 0.67044 0.0
C2939 C 0.77936 0.98294 0.69252 0.0
C2940 C 0.76344 0.98524 0.68512 0.0
H2941 H 0.69218 0.9746 0.63099 0.0
H2942 H 0.71805 0.97193 0.64415 0.0
H2943 H 0.74197 0.01398 0.67314 0.0
H2944 H 0.80774 0.99955 0.72155 0.0
H2945 H 0.78211 0.00409 0.70895 0.0
C2946 C 0.7872 0.00181 0.27489 0.0
C2947 C 0.80193 0.99889 0.28192 0.0
C2948 C 0.77407 0.00106 0.28326 0.0
C2949 C 0.76298 0.00239 0.32372 0.0
H2950 H 0.7228 0.98188 0.30375 0.0
C2951 C 0.71315 0.9863 0.36014 0.0
C2952 C 0.6983 0.99049 0.35511 0.0
C2953 C 0.72503 0.98669 0.35028 0.0
C2954 C 0.73391 0.98777 0.30943 0.0
H2955 H 0.81432 0.99268 0.30319 0.0
H2956 H 0.7915 0.99138 0.31775 0.0
H2957 H 0.74523 0.98446 0.28846 0.0
H2958 H 0.68388 0.99735 0.33541 0.0
H2959 H 0.70471 0.99793 0.31803 0.0
H2960 H 0.75177 0.00561 0.34468 0.0
C2961 C 0.79013 0.99452 0.30586 0.0
C2962 C 0.74675 0.98928 0.30068 0.0
C2963 C 0.80323 0.99528 0.29752 0.0
C2964 C 0.69519 0.99398 0.33959 0.0
C2965 C 0.70714 0.99439 0.32967 0.0
C2966 C 0.7502 0.00085 0.33244 0.0
C2967 C 0.77538 0.99738 0.29884 0.0
C2968 C 0.76148 0.99644 0.3078 0.0
C2969 C 0.72233 0.99123 0.33511 0.0
C2970 C 0.73559 0.99333 0.32546 0.0
H2971 H 0.78584 0.00481 0.26295 0.0
H2972 H 0.76294 0.00353 0.27757 0.0
H2973 H 0.77404 0.00828 0.32948 0.0
H2974 H 0.71576 0.98299 0.37182 0.0
H2975 H 0.73647 0.98371 0.35464 0.0
C2976 C 0.29556 0.29333 0.5894 0.0
C2977 C 0.31191 0.29361 0.59266 0.0
C2978 C 0.28857 0.30731 0.58941 0.0
C2979 C 0.2953 0.34948 0.60421 0.0
H2980 H 0.2615 0.35307 0.57195 0.0
C2981 C 0.26812 0.40773 0.59822 0.0
C2982 C 0.25166 0.40658 0.59547 0.0
C2983 C 0.27594 0.39423 0.59719 0.0
C2984 C 0.27083 0.35222 0.58112 0.0
H2985 H 0.33371 0.30886 0.59878 0.0
H2986 H 0.32155 0.33325 0.5986 0.0
H2987 H 0.27412 0.32895 0.57179 0.0
H2988 H 0.23057 0.39037 0.58894 0.0
H2989 H 0.24414 0.36688 0.58739 0.0
H2990 H 0.29192 0.37271 0.61361 0.0
C2991 C 0.31411 0.3222 0.59611 0.0
C2992 C 0.27806 0.33838 0.58104 0.0
C2993 C 0.32109 0.30822 0.59606 0.0
C2994 C 0.24324 0.39166 0.59132 0.0
C2995 C 0.25105 0.3782 0.59026 0.0
C2996 C 0.28806 0.36333 0.6043 0.0
C2997 C 0.29776 0.32192 0.59273 0.0
C2998 C 0.29031 0.3368 0.59264 0.0
C2999 C 0.26749 0.37929 0.59331 0.0
C3000 C 0.27566 0.36483 0.59281 0.0
H3001 H 0.28815 0.2823 0.58658 0.0
H3002 H 0.27593 0.30666 0.58694 0.0
H3003 H 0.30457 0.34859 0.61343 0.0
H3004 H 0.27495 0.41903 0.60155 0.0
H3005 H 0.28863 0.3955 0.59944 0.0
C3006 C 0.29849 0.80392 1.00028 0.0
C3007 C 0.28292 0.80287 0.00395 0.0
C3008 C 0.30652 0.7906 0.99921 0.0
C3009 C 0.30005 0.74727 0.99289 0.0
H3010 H 0.34417 0.75063 0.00853 0.0
C3011 C 0.33701 0.69416 0.99609 0.0
C3012 C 0.35259 0.6968 0.99263 0.0
C3013 C 0.32753 0.70648 0.99669 0.0
C3014 C 0.33189 0.74953 0.00395 0.0
H3015 H 0.2637 0.78705 0.00981 0.0
H3016 H 0.27775 0.76379 0.008 0.0
H3017 H 0.3298 0.77343 0.01202 0.0
H3018 H 0.36981 0.71384 0.98521 0.0
H3019 H 0.35341 0.73518 0.98627 0.0
H3020 H 0.30224 0.72328 0.98486 0.0
C3021 C 0.28366 0.77488 0.00568 0.0
C3022 C 0.32365 0.76261 0.00596 0.0
C3023 C 0.27562 0.78821 0.00675 0.0
C3024 C 0.35808 0.71156 0.98854 0.0
C3025 C 0.34866 0.72382 0.98912 0.0
C3026 C 0.30832 0.73414 0.9909 0.0
C3027 C 0.29918 0.7759 0.00181 0.0
C3028 C 0.30768 0.76171 1.0003 0.0
C3029 C 0.33349 0.72158 0.99374 0.0
C3030 C 0.32438 0.73521 0.99622 0.0
H3031 H 0.30437 0.81496 0.9978 0.0
H3032 H 0.31838 0.79176 0.99596 0.0
H3033 H 0.28779 0.74622 0.98827 0.0
H3034 H 0.33246 0.68294 0.99939 0.0
H3035 H 0.31588 0.70439 1.00028 0.0
C3036 C 0.75953 0.21089 0.39253 0.0
C3037 C 0.77462 0.21576 0.38876 0.0
C3038 C 0.75321 0.19519 0.38918 0.0
C3039 C 0.75833 0.15803 0.36528 0.0
H3040 H 0.73361 0.13899 0.3951 0.0
C3041 C 0.74144 0.09126 0.36156 0.0
C3042 C 0.7256 0.08625 0.36282 0.0
C3043 C 0.74727 0.10707 0.36504 0.0
C3044 C 0.7404 0.1442 0.38662 0.0
H3045 H 0.795 0.20803 0.3787 0.0
H3046 H 0.78415 0.18061 0.37312 0.0
H3047 H 0.74402 0.16662 0.40029 0.0
H3048 H 0.70356 0.09403 0.36898 0.0
H3049 H 0.7139 0.12158 0.3754 0.0
H3050 H 0.75494 0.13548 0.35179 0.0
C3051 C 0.77699 0.18893 0.3783 0.0
C3052 C 0.74632 0.16004 0.38954 0.0
C3053 C 0.78324 0.20465 0.38152 0.0
C3054 C 0.71586 0.09741 0.36809 0.0
C3055 C 0.72175 0.11321 0.37171 0.0
C3056 C 0.75255 0.14217 0.36244 0.0
C3057 C 0.76191 0.18398 0.38212 0.0
C3058 C 0.75538 0.16717 0.37891 0.0
C3059 C 0.73746 0.11823 0.37001 0.0
C3060 C 0.74354 0.13508 0.37309 0.0
H3061 H 0.75257 0.21925 0.39798 0.0
H3062 H 0.74146 0.19188 0.39203 0.0
H3063 H 0.76499 0.16317 0.35667 0.0
H3064 H 0.74936 0.08297 0.35786 0.0
H3065 H 0.7595 0.11057 0.36388 0.0
C3066 C 0.66387 0.7038 0.00502 0.0
C3067 C 0.64844 0.69869 0.99824 0.0
C3068 C 0.67104 0.71864 0.00287 0.0
C3069 C 0.66921 0.74896 0.97575 0.0
H3070 H 0.69259 0.77676 0.01018 0.0
C3071 C 0.69069 0.81238 0.96735 0.0
C3072 C 0.70583 0.81852 0.97415 0.0
C3073 C 0.68367 0.79823 0.97136 0.0
C3074 C 0.68626 0.76908 0.0004 0.0
H3075 H 0.62852 0.70512 0.98379 0.0
H3076 H 0.64099 0.73095 0.98007 0.0
H3077 H 0.68067 0.75094 0.01498 0.0
H3078 H 0.72529 0.81494 0.99086 0.0
H3079 H 0.71312 0.78999 0.99772 0.0
H3080 H 0.67491 0.7668 0.96109 0.0
C3081 C 0.64755 0.7235 0.98704 0.0
C3082 C 0.67942 0.75429 0.00316 0.0
C3083 C 0.64036 0.70875 0.9893 0.0
C3084 C 0.71357 0.8105 0.9855 0.0
C3085 C 0.70658 0.79622 0.98943 0.0
C3086 C 0.67611 0.76364 0.97297 0.0
C3087 C 0.66299 0.7286 0.99374 0.0
C3088 C 0.67069 0.74413 0.99088 0.0
C3089 C 0.69165 0.78975 0.98216 0.0
C3090 C 0.6846 0.77398 0.98527 0.0
H3091 H 0.67036 0.69637 0.01207 0.0
H3092 H 0.68298 0.72221 0.0081 0.0
H3093 H 0.66283 0.74129 0.96598 0.0
H3094 H 0.68435 0.81844 0.95875 0.0
H3095 H 0.67199 0.79387 0.96584 0.0
C3096 C 0.58242 0.3089 0.30093 0.0
C3097 C 0.59565 0.31019 0.29259 0.0
C3098 C 0.583 0.30208 0.31502 0.0
C3099 C 0.60492 0.27525 0.33731 0.0
H3100 H 0.58546 0.29328 0.37258 0.0
C3101 C 0.61334 0.25262 0.3978 0.0
C3102 C 0.60009 0.25062 0.406 0.0
C3103 C 0.61288 0.26061 0.38446 0.0
C3104 C 0.59081 0.28801 0.36279 0.0
H3105 H 0.61996 0.30556 0.29274 0.0
H3106 H 0.62094 0.29362 0.31728 0.0
H3107 H 0.58449 0.30571 0.34827 0.0
H3108 H 0.57605 0.25579 0.40681 0.0
H3109 H 0.57518 0.26972 0.38339 0.0
H3110 H 0.61116 0.25752 0.35172 0.0
C3111 C 0.61005 0.29769 0.31279 0.0
C3112 C 0.59026 0.29513 0.34885 0.0
C3113 C 0.60948 0.30452 0.29872 0.0
C3114 C 0.58648 0.25723 0.4008 0.0
C3115 C 0.586 0.26521 0.38739 0.0
C3116 C 0.60545 0.26814 0.35121 0.0
C3117 C 0.5968 0.29636 0.32111 0.0
C3118 C 0.59735 0.28885 0.33596 0.0
C3119 C 0.59913 0.26679 0.37893 0.0
C3120 C 0.59845 0.27444 0.36415 0.0
H3121 H 0.57151 0.31293 0.29644 0.0
H3122 H 0.57252 0.30103 0.321 0.0
H3123 H 0.61025 0.26993 0.32752 0.0
H3124 H 0.62411 0.24795 0.40169 0.0
H3125 H 0.62333 0.26192 0.37846 0.0
C3126 C 0.01689 0.29749 0.80684 0.0
C3127 C 0.00715 0.28331 0.80649 0.0
C3128 C 0.01672 0.30584 0.7937 0.0
C3129 C 0.00631 0.30123 0.75082 0.0
H3130 H 0.00419 0.34615 0.75625 0.0
C3131 C 0.99266 0.33635 0.69832 0.0
C3132 C 1.00036 0.35155 0.6989 0.0
C3133 C 0.99409 0.32799 0.71141 0.0
C3134 C 0.00502 0.33365 0.75452 0.0
H3135 H 0.98938 0.26701 0.79203 0.0
H3136 H 0.9893 0.28143 0.76913 0.0
H3137 H 0.00588 0.33169 0.77918 0.0
H3138 H 0.01611 0.36973 0.71332 0.0
H3139 H 0.01876 0.35515 0.73607 0.0
H3140 H 0.00556 0.30315 0.7262 0.0
C3141 C 0.9972 0.28598 0.77951 0.0
C3142 C 0.00596 0.32537 0.76768 0.0
C3143 C 0.99728 0.2777 0.79265 0.0
C3144 C 0.00971 0.35818 0.71267 0.0
C3145 C 0.01125 0.34979 0.72572 0.0
C3146 C 0.00548 0.30952 0.73767 0.0
C3147 C 0.00688 0.30015 0.77989 0.0
C3148 C 0.0065 0.30905 0.76597 0.0
C3149 C 0.00338 0.33462 0.7253 0.0
C3150 C 0.00471 0.32583 0.73933 0.0
H3151 H 0.0248 0.30206 0.8172 0.0
H3152 H 0.02443 0.31665 0.79429 0.0
H3153 H 0.00693 0.28868 0.74915 0.0
H3154 H 0.98524 0.33102 0.6879 0.0
H3155 H 0.98766 0.31644 0.71072 0.0
C3156 C 0.38473 0.78915 0.20359 0.0
C3157 C 0.38652 0.77938 0.21564 0.0
C3158 C 0.38179 0.78275 0.1879 0.0
C3159 C 0.38612 0.74748 0.16151 0.0
H3160 H 0.35523 0.76369 0.13337 0.0
C3161 C 0.36537 0.71759 0.09874 0.0
C3162 C 0.36231 0.72731 0.08687 0.0
C3163 C 0.36887 0.72399 0.1144 0.0
C3164 C 0.36406 0.75917 0.141 0.0
H3165 H 0.38667 0.75522 0.22065 0.0
H3166 H 0.38138 0.74401 0.19323 0.0
H3167 H 0.35992 0.77467 0.16081 0.0
H3168 H 0.36115 0.75141 0.08205 0.0
H3169 H 0.36742 0.76261 0.10934 0.0
H3170 H 0.39031 0.73203 0.14169 0.0
C3171 C 0.38235 0.75664 0.19594 0.0
C3172 C 0.36671 0.76544 0.15675 0.0
C3173 C 0.38521 0.76305 0.21165 0.0
C3174 C 0.36321 0.7436 0.09096 0.0
C3175 C 0.36677 0.75 0.10661 0.0
C3176 C 0.3835 0.74124 0.14574 0.0
C3177 C 0.38065 0.76643 0.18389 0.0
C3178 C 0.37777 0.75967 0.16718 0.0
C3179 C 0.36945 0.74026 0.11855 0.0
C3180 C 0.37243 0.74701 0.13529 0.0
H3181 H 0.38553 0.80177 0.2063 0.0
H3182 H 0.38067 0.79061 0.17889 0.0
H3183 H 0.39488 0.74293 0.1692 0.0
H3184 H 0.36456 0.70497 0.09599 0.0
H3185 H 0.37067 0.71612 0.12331 0.0
C3186 C 0.99757 0.66179 0.70227 0.0
C3187 C 0.98997 0.6666 0.68861 0.0
C3188 C 0.99603 0.66934 0.71707 0.0
C3189 C 0.986 0.70614 0.73727 0.0
H3190 H 0.97673 0.68049 0.77044 0.0
C3191 C 0.96628 0.73213 0.7956 0.0
C3192 C 0.97121 0.72587 0.80951 0.0
C3193 C 0.96941 0.72525 0.78102 0.0
C3194 C 0.97957 0.68787 0.76142 0.0
H3195 H 0.97481 0.68327 0.67996 0.0
H3196 H 0.97236 0.69659 0.7058 0.0
H3197 H 0.98075 0.66796 0.74475 0.0
H3198 H 0.98351 0.70745 0.81888 0.0
H3199 H 0.98946 0.69579 0.79353 0.0
H3200 H 0.98498 0.72606 0.75392 0.0
C3201 C 0.97958 0.687 0.70498 0.0
C3202 C 0.98183 0.68066 0.74666 0.0
C3203 C 0.98102 0.67937 0.69016 0.0
C3204 C 0.97965 0.7127 0.80845 0.0
C3205 C 0.98288 0.70587 0.79386 0.0
C3206 C 0.98388 0.71336 0.75207 0.0
C3207 C 0.98696 0.68198 0.71861 0.0
C3208 C 0.98497 0.68971 0.73439 0.0
C3209 C 0.97768 0.71197 0.77993 0.0
C3210 C 0.98053 0.70432 0.76432 0.0
H3211 H 0.00483 0.65224 0.70153 0.0
H3212 H 0.00205 0.66536 0.72734 0.0
H3213 H 0.98862 0.71343 0.72811 0.0
H3214 H 0.95995 0.7424 0.79595 0.0
H3215 H 0.96506 0.73019 0.77057 0.0
C3216 C 0.68994 0.38835 0.68507 0.0
C3217 C 0.69704 0.4031 0.68237 0.0
C3218 C 0.675 0.38683 0.69018 0.0
C3219 C 0.63898 0.40662 0.69049 0.0
H3220 H 0.62841 0.37809 0.72089 0.0
C3221 C 0.57807 0.40154 0.71336 0.0
C3222 C 0.5711 0.38627 0.71443 0.0
C3223 C 0.5938 0.40415 0.71061 0.0
C3224 C 0.63114 0.38601 0.7123 0.0
H3225 H 0.69424 0.42792 0.68349 0.0
H3226 H 0.66819 0.42527 0.6924 0.0
H3227 H 0.65527 0.38162 0.71406 0.0
H3228 H 0.57536 0.36184 0.71392 0.0
H3229 H 0.60268 0.36634 0.70883 0.0
H3230 H 0.61485 0.41088 0.68857 0.0
C3231 C 0.67406 0.41483 0.6903 0.0
C3232 C 0.64654 0.38804 0.70838 0.0
C3233 C 0.68899 0.41634 0.6852 0.0
C3234 C 0.58031 0.37372 0.71297 0.0
C3235 C 0.59603 0.37633 0.71023 0.0
C3236 C 0.6236 0.4046 0.6944 0.0
C3237 C 0.66682 0.40003 0.6927 0.0
C3238 C 0.65061 0.39829 0.69735 0.0
C3239 C 0.60294 0.39155 0.70889 0.0
C3240 C 0.61947 0.39419 0.70527 0.0
H3241 H 0.69573 0.37788 0.6828 0.0
H3242 H 0.66969 0.37523 0.6917 0.0
H3243 H 0.64166 0.41442 0.68177 0.0
H3244 H 0.57128 0.41145 0.71432 0.0
H3245 H 0.59881 0.41604 0.70981 0.0
C3246 C 0.79821 0.62712 0.25485 0.0
C3247 C 0.79257 0.61192 0.24778 0.0
C3248 C 0.81358 0.63039 0.26216 0.0
C3249 C 0.85266 0.6163 0.26336 0.0
H3250 H 0.86037 0.64227 0.30334 0.0
C3251 C 0.91436 0.62812 0.29859 0.0
C3252 C 0.91892 0.64359 0.30551 0.0
C3253 C 0.89885 0.62351 0.29203 0.0
C3254 C 0.85845 0.63513 0.2921 0.0
H3255 H 0.79872 0.58822 0.24301 0.0
H3256 H 0.8256 0.59401 0.25561 0.0
H3257 H 0.83359 0.63586 0.29073 0.0
H3258 H 0.91062 0.66619 0.31135 0.0
H3259 H 0.88381 0.65829 0.29963 0.0
H3260 H 0.87756 0.61575 0.26462 0.0
C3261 C 0.81814 0.60341 0.25536 0.0
C3262 C 0.84309 0.63145 0.28488 0.0
C3263 C 0.80274 0.60011 0.24811 0.0
C3264 C 0.90757 0.65424 0.30593 0.0
C3265 C 0.89212 0.64965 0.29938 0.0
C3266 C 0.86805 0.62003 0.27056 0.0
C3267 C 0.82371 0.61857 0.26252 0.0
C3268 C 0.84003 0.62209 0.27037 0.0
C3269 C 0.88756 0.63425 0.29228 0.0
C3270 C 0.87115 0.6296 0.28496 0.0
H3271 H 0.79081 0.63657 0.25459 0.0
H3272 H 0.81761 0.64226 0.26734 0.0
H3273 H 0.8507 0.60919 0.2521 0.0
H3274 H 0.92283 0.61966 0.29797 0.0
H3275 H 0.8957 0.61151 0.2868 0.0
C3276 C 0.30047 0.99279 0.32745 0.0
C3277 C 0.30983 0.0065 0.33435 0.0
C3278 C 0.2851 0.99348 0.32078 0.0
C3279 C 0.25747 0.02134 0.30713 0.0
H3280 H 0.22565 0.98884 0.315 0.0
C3281 C 0.19143 0.02883 0.30405 0.0
C3282 C 0.18055 0.01596 0.29775 0.0
C3283 C 0.20749 0.02732 0.30592 0.0
C3284 C 0.23442 0.99788 0.31248 0.0
H3285 H 0.31039 0.03169 0.33966 0.0
H3286 H 0.28356 0.03289 0.32832 0.0
H3287 H 0.25315 0.98684 0.32336 0.0
H3288 H 0.17799 0.99155 0.28804 0.0
H3289 H 0.20615 0.98888 0.29137 0.0
H3290 H 0.23857 0.03264 0.29676 0.0
C3291 C 0.28816 0.02162 0.32768 0.0
C3292 C 0.25022 0.99673 0.31725 0.0
C3293 C 0.30356 0.02094 0.33423 0.0
C3294 C 0.18612 0.00169 0.29285 0.0
C3295 C 0.2022 1.00012 0.29488 0.0
C3296 C 0.24165 0.02254 0.30247 0.0
C3297 C 0.27866 0.00789 0.32098 0.0
C3298 C 0.26195 0.00856 0.31484 0.0
C3299 C 0.21304 0.01287 0.30167 0.0
C3300 C 0.22993 0.01093 0.30527 0.0
H3301 H 0.30505 0.98151 0.32718 0.0
H3302 H 0.27825 0.9827 0.31549 0.0
H3303 H 0.26619 0.03051 0.30478 0.0
H3304 H 0.18747 0.04 0.30783 0.0
H3305 H 0.21551 0.03732 0.3113 0.0
C3306 C 0.20509 0.99944 0.71182 0.0
C3307 C 0.20153 0.01197 0.72214 0.0
C3308 C 0.22031 0.99892 0.70759 0.0
C3309 C 0.26132 0.01344 0.72177 0.0
H3310 H 0.26914 0.99939 0.67937 0.0
C3311 C 0.32029 0.99296 0.70601 0.0
C3312 C 0.32569 0.99695 0.69188 0.0
C3313 C 0.30561 0.9966 0.70991 0.0
C3314 C 0.26716 0.00349 0.69123 0.0
H3315 H 0.21106 0.03415 0.73547 0.0
H3316 H 0.2376 0.03315 0.72818 0.0
H3317 H 0.24231 0.00226 0.68513 0.0
H3318 H 0.32 0.00863 0.67113 0.0
H3319 H 0.29455 0.01512 0.67808 0.0
H3320 H 0.28616 0.0146 0.72789 0.0
C3321 C 0.22867 0.02361 0.72358 0.0
C3322 C 0.25178 0.00497 0.69456 0.0
C3323 C 0.21346 0.02416 0.72776 0.0
C3324 C 0.31635 0.00542 0.68216 0.0
C3325 C 0.30163 0.00897 0.68602 0.0
C3326 C 0.27669 0.01188 0.71847 0.0
C3327 C 0.23231 0.0109 0.7136 0.0
C3328 C 0.24868 0.00988 0.70989 0.0
C3329 C 0.29596 0.00432 0.69978 0.0
C3330 C 0.27977 0.0068 0.70318 0.0
H3331 H 0.19624 0.98977 0.70742 0.0
H3332 H 0.22279 0.98889 0.7 0.0
H3333 H 0.2593 0.0171 0.73373 0.0
H3334 H 0.32727 0.98671 0.71393 0.0
H3335 H 0.30156 0.99283 0.72059 0.0
C3336 C 0.68517 0.6848 0.41985 0.0
C3337 C 0.68345 0.69386 0.40721 0.0
C3338 C 0.69063 0.67007 0.41783 0.0
C3339 C 0.7119 0.64515 0.39164 0.0
H3340 H 0.69038 0.61103 0.41012 0.0
C3341 C 0.72005 0.58012 0.37461 0.0
C3342 C 0.72043 0.57007 0.38652 0.0
C3343 C 0.71649 0.59553 0.37767 0.0
C3344 C 0.69668 0.62046 0.40506 0.0
H3345 H 0.68623 0.69455 0.38253 0.0
H3346 H 0.69578 0.66885 0.37901 0.0
H3347 H 0.68253 0.63737 0.41447 0.0
H3348 H 0.71749 0.56843 0.41104 0.0
H3349 H 0.71158 0.59542 0.41646 0.0
H3350 H 0.72599 0.62819 0.38215 0.0
C3351 C 0.69308 0.67323 0.39054 0.0
C3352 C 0.69216 0.63557 0.40755 0.0
C3353 C 0.68761 0.68796 0.39256 0.0
C3354 C 0.71742 0.57589 0.40163 0.0
C3355 C 0.71385 0.59131 0.40469 0.0
C3356 C 0.71643 0.63003 0.38916 0.0
C3357 C 0.69452 0.66404 0.40312 0.0
C3358 C 0.69967 0.64808 0.40081 0.0
C3359 C 0.71323 0.60128 0.39272 0.0
C3360 C 0.70882 0.61748 0.39578 0.0
H3361 H 0.68234 0.68911 0.43136 0.0
H3362 H 0.69186 0.66341 0.42783 0.0
H3363 H 0.71808 0.65457 0.38647 0.0
H3364 H 0.7225 0.57608 0.36289 0.0
H3365 H 0.71597 0.60283 0.36814 0.0
C3366 C 0.72573 0.21953 0.02386 0.0
C3367 C 0.71845 0.20694 0.01308 0.0
C3368 C 0.72077 0.23446 0.02369 0.0
C3369 C 0.68789 0.25597 0.0104 0.0
H3370 H 0.72035 0.29074 0.01112 0.0
C3371 C 0.67369 0.32013 0.00993 0.0
C3372 C 0.67977 0.32762 0.99769 0.0
C3373 C 0.67901 0.30608 0.01401 0.0
C3374 C 0.71117 0.28115 0.01099 0.0
H3375 H 0.69994 0.20018 0.99394 0.0
H3376 H 0.69115 0.22628 0.99379 0.0
H3377 H 0.7277 0.26436 0.01359 0.0
H3378 H 0.69744 0.3272 0.98142 0.0
H3379 H 0.70683 0.30287 0.98867 0.0
H3380 H 0.67136 0.27279 0.00745 0.0
C3381 C 0.70069 0.22452 0.00239 0.0
C3382 C 0.71536 0.26607 0.01249 0.0
C3383 C 0.70572 0.20956 0.00249 0.0
C3384 C 0.69223 0.32151 0.99062 0.0
C3385 C 0.69771 0.30764 0.99486 0.0
C3386 C 0.68369 0.2711 0.00905 0.0
C3387 C 0.70832 0.23718 0.01284 0.0
C3388 C 0.70377 0.25329 0.01204 0.0
C3389 C 0.69082 0.29953 0.00624 0.0
C3390 C 0.6953 0.28381 0.00915 0.0
H3391 H 0.73532 0.21787 0.03244 0.0
H3392 H 0.72671 0.24392 0.03206 0.0
H3393 H 0.6787 0.24637 0.01011 0.0
H3394 H 0.66419 0.32457 0.01573 0.0
H3395 H 0.67364 0.30016 0.02298 0.0
C3396 C 0.24834 0.79838 0.6239 0.0
C3397 C 0.24271 0.79231 0.60838 0.0
C3398 C 0.25504 0.81395 0.62736 0.0
C3399 C 0.25686 0.85268 0.61246 0.0
H3400 H 0.29484 0.8616 0.64147 0.0
C3401 C 0.29063 0.91504 0.6256 0.0
C3402 C 0.29638 0.91993 0.64136 0.0
C3403 C 0.28452 0.89942 0.6209 0.0
C3404 C 0.28415 0.85935 0.63347 0.0
H3405 H 0.23978 0.79795 0.58434 0.0
H3406 H 0.25132 0.82517 0.59045 0.0
H3407 H 0.28304 0.83459 0.63473 0.0
H3408 H 0.30058 0.91209 0.66443 0.0
H3409 H 0.2896 0.88509 0.65635 0.0
H3410 H 0.25785 0.87748 0.61137 0.0
C3411 C 0.25043 0.81788 0.59994 0.0
C3412 C 0.27739 0.84385 0.6296 0.0
C3413 C 0.24378 0.80228 0.59645 0.0
C3414 C 0.29606 0.90879 0.65224 0.0
C3415 C 0.28994 0.89323 0.64755 0.0
C3416 C 0.26359 0.86822 0.61639 0.0
C3417 C 0.25623 0.82386 0.61542 0.0
C3418 C 0.26361 0.84034 0.61915 0.0
C3419 C 0.28404 0.88833 0.63184 0.0
C3420 C 0.27725 0.87176 0.62704 0.0
H3421 H 0.24744 0.79115 0.63343 0.0
H3422 H 0.25915 0.81827 0.63946 0.0
H3423 H 0.24616 0.85037 0.60448 0.0
H3424 H 0.2906 0.92334 0.61694 0.0
H3425 H 0.28022 0.89602 0.60867 0.0
C3426 C 0.32691 0.29938 0.98993 0.0
C3427 C 0.33472 0.30851 0.00339 0.0
C3428 C 0.32029 0.28403 0.99076 0.0
C3429 C 0.30885 0.25587 0.01904 0.0
H3430 H 0.3147 0.22459 0.98516 0.0
C3431 C 0.30761 0.18972 0.02534 0.0
C3432 C 0.30054 0.17894 0.0127 0.0
C3433 C 0.30902 0.20582 0.02403 0.0
C3434 C 0.31274 0.2332 0.9946 0.0
H3435 H 0.34162 0.3087 0.0283 0.0
H3436 H 0.33038 0.28189 0.02973 0.0
H3437 H 0.32249 0.2522 0.98315 0.0
H3438 H 0.28899 0.17656 0.98895 0.0
H3439 H 0.29153 0.2048 0.9866 0.0
H3440 H 0.29967 0.23668 0.03072 0.0
C3441 C 0.329 0.28666 0.01857 0.0
C3442 C 0.31719 0.24907 0.99345 0.0
C3443 C 0.33549 0.30205 0.01776 0.0
C3444 C 0.29442 0.18462 0.9989 0.0
C3445 C 0.29599 0.20075 0.99751 0.0
C3446 C 0.30453 0.23998 0.02024 0.0
C3447 C 0.32145 0.27737 0.00505 0.0
C3448 C 0.31552 0.26061 0.00576 0.0
C3449 C 0.30352 0.2115 0.00999 0.0
C3450 C 0.30663 0.22846 0.00812 0.0
H3451 H 0.32596 0.30412 0.97873 0.0
H3452 H 0.31433 0.27735 0.98016 0.0
H3453 H 0.30709 0.26442 0.02861 0.0
H3454 H 0.31234 0.18567 0.03616 0.0
H3455 H 0.31499 0.21378 0.0338 0.0
C3456 C 0.40437 0.69174 0.68961 0.0
C3457 C 0.40322 0.67582 0.6922 0.0
C3458 C 0.40222 0.69604 0.67435 0.0
C3459 C 0.38437 0.68081 0.63428 0.0
H3460 H 0.41281 0.7135 0.62106 0.0
C3461 C 0.38462 0.69012 0.56932 0.0
C3462 C 0.38559 0.70561 0.56542 0.0
C3463 C 0.3873 0.68708 0.58492 0.0
C3464 C 0.40467 0.70447 0.62462 0.0
H3465 H 0.39858 0.65196 0.68082 0.0
H3466 H 0.39503 0.65943 0.65429 0.0
H3467 H 0.41599 0.70726 0.6482 0.0
H3468 H 0.39057 0.73008 0.57481 0.0
H3469 H 0.39523 0.72479 0.60217 0.0
H3470 H 0.37303 0.67798 0.61081 0.0
C3471 C 0.39751 0.66861 0.66402 0.0
C3472 C 0.40648 0.7009 0.64017 0.0
C3473 C 0.39972 0.66432 0.67922 0.0
C3474 C 0.38985 0.71801 0.57744 0.0
C3475 C 0.39251 0.71498 0.59311 0.0
C3476 C 0.38255 0.68438 0.61879 0.0
C3477 C 0.39875 0.68451 0.66138 0.0
C3478 C 0.39645 0.68891 0.64512 0.0
C3479 C 0.39099 0.69947 0.59705 0.0
C3480 C 0.39277 0.69613 0.61371 0.0
H3481 H 0.40717 0.70086 0.69936 0.0
H3482 H 0.40313 0.70838 0.67271 0.0
H3483 H 0.37625 0.67173 0.63779 0.0
H3484 H 0.38165 0.68029 0.56029 0.0
H3485 H 0.38642 0.67499 0.58749 0.0
C3486 C 1.00045 0.73647 0.21328 0.0
C3487 C 0.00371 0.72555 0.20113 0.0
C3488 C 0.99938 0.73217 0.22835 0.0
C3489 C 0.01202 0.70389 0.25486 0.0
H3490 H 0.97937 0.71852 0.27866 0.0
C3491 C 0.00087 0.68508 0.31614 0.0
C3492 C 0.99616 0.69644 0.32706 0.0
C3493 C 0.00261 0.68834 0.30077 0.0
C3494 C 0.98869 0.71451 0.27226 0.0
H3495 H 0.00824 0.70151 0.19521 0.0
H3496 H 0.00629 0.69391 0.2217 0.0
H3497 H 0.98002 0.72419 0.25161 0.0
H3498 H 0.99086 0.72052 0.33076 0.0
H3499 H 0.99411 0.72627 0.30409 0.0
H3500 H 0.02075 0.69431 0.27563 0.0
C3501 C 0.00468 0.70585 0.21951 0.0
C3502 C 0.98902 0.71771 0.25673 0.0
C3503 C 0.00565 0.71014 0.20434 0.0
C3504 C 0.99415 0.7114 0.32254 0.0
C3505 C 0.99595 0.71468 0.30723 0.0
C3506 C 0.01171 0.70071 0.27046 0.0
C3507 C 0.00157 0.71685 0.23168 0.0
C3508 C 0.00077 0.71258 0.24789 0.0
C3509 C 0.99978 0.70306 0.29604 0.0
C3510 C 1.00013 0.70614 0.27939 0.0
H3511 H 0.99873 0.74839 0.21113 0.0
H3512 H 0.99712 0.74097 0.2375 0.0
H3513 H 0.02131 0.69991 0.24839 0.0
H3514 H 0.00246 0.6734 0.31918 0.0
H3515 H 0.00551 0.6791 0.29244 0.0
C3516 C 0.61549 0.22026 0.80322 0.0
C3517 C 0.6123 0.23097 0.79234 0.0
C3518 C 0.6188 0.22539 0.81923 0.0
C3519 C 0.61322 0.25746 0.849 0.0
H3520 H 0.64815 0.24281 0.87324 0.0
C3521 C 0.63636 0.28537 0.91177 0.0
C3522 C 0.64184 0.27555 0.92271 0.0
C3523 C 0.63211 0.27952 0.89604 0.0
C3524 C 0.6382 0.24684 0.86672 0.0
H3525 H 0.60991 0.25542 0.78973 0.0
H3526 H 0.61574 0.26439 0.81769 0.0
H3527 H 0.64208 0.23336 0.84547 0.0
H3528 H 0.64667 0.25178 0.92584 0.0
H3529 H 0.639 0.24146 0.89844 0.0
H3530 H 0.60924 0.27085 0.87022 0.0
C3531 C 0.61564 0.25202 0.81384 0.0
C3532 C 0.63475 0.24145 0.85078 0.0
C3533 C 0.61246 0.24691 0.79782 0.0
C3534 C 0.64268 0.25967 0.91764 0.0
C3535 C 0.63833 0.25379 0.90192 0.0
C3536 C 0.6166 0.26277 0.86496 0.0
C3537 C 0.61885 0.24131 0.82472 0.0
C3538 C 0.62229 0.24677 0.84173 0.0
C3539 C 0.63315 0.26367 0.89089 0.0
C3540 C 0.62919 0.25761 0.87401 0.0
H3541 H 0.61557 0.20792 0.79934 0.0
H3542 H 0.62112 0.21685 0.82735 0.0
H3543 H 0.6034 0.26159 0.84237 0.0
H3544 H 0.63579 0.29771 0.91528 0.0
H3545 H 0.62842 0.28754 0.88785 0.0
C3546 C 0.00754 0.32585 0.30358 0.0
C3547 C 0.0023 0.34036 0.3083 0.0
C3548 C 0.00844 0.32115 0.28767 0.0
C3549 C 0.01105 0.33773 0.24987 0.0
H3550 H 0.9979 0.29508 0.23103 0.0
C3551 C 0.00173 0.32262 0.18322 0.0
C3552 C 0.00804 0.3093 0.17677 0.0
C3553 C 0.00106 0.32537 0.19935 0.0
C3554 C 0.00176 0.30699 0.23618 0.0
H3555 H 0.99398 0.36133 0.2999 0.0
H3556 H 0.99512 0.353 0.27234 0.0
H3557 H 0.9968 0.30187 0.25917 0.0
H3558 H 0.01811 0.28814 0.18224 0.0
H3559 H 0.01683 0.29293 0.21059 0.0
H3560 H 0.01586 0.34294 0.22696 0.0
C3561 C 0.99873 0.3453 0.28089 0.0
C3562 C 0.00115 0.31088 0.25228 0.0
C3563 C 0.99786 0.34998 0.29673 0.0
C3564 C 0.01312 0.29847 0.18683 0.0
C3565 C 0.01241 0.30122 0.20305 0.0
C3566 C 0.0116 0.33387 0.23383 0.0
C3567 C 0.00418 0.33091 0.27616 0.0
C3568 C 0.00558 0.32637 0.25926 0.0
C3569 C 0.00663 0.31486 0.2095 0.0
C3570 C 0.00676 0.31853 0.22675 0.0
H3571 H 0.01093 0.3181 0.31217 0.0
H3572 H 0.01276 0.31003 0.28443 0.0
H3573 H 0.01494 0.34967 0.25491 0.0
H3574 H 0.99734 0.331 0.17577 0.0
H3575 H 0.9962 0.3358 0.20391 0.0
loop_
_geom_bond_atom_site_label_1
_geom_bond_atom_site_label_2
_geom_bond_distance
_geom_bond_site_symmetry_2
_ccdc_geom_bond_type
C0 C1 1.264 . S
C0 C5 1.479 . S
C0 C10 1.465 . S
C1 C0 1.264 . S
C1 C3 1.339 . S
C1 H28 0.931 . S
C2 C3 1.395 . S
C2 C4 1.320 . S
C3 C1 1.339 . S
C3 C2 1.395 . S
C3 H29 0.929 . S
C4 C2 1.320 . S
C4 C5 1.405 . S
C4 H30 0.930 . S
C5 C0 1.479 . S
C5 C4 1.405 . S
C5 H31 0.931 . S
U6 O7 2.454 . S
U6 O8 2.458 . S
U6 C9 2.984 . S
U6 C10 2.847 . S
U6 C23 2.882 . S
U6 O24 2.441 . S
U6 O25 2.420 . S
U6 O26 2.455 . S
U6 O27 2.449 . S
O7 U6 2.454 . S
O7 C9 1.353 . S
O8 U6 2.458 . S
O8 C9 1.286 . S
C9 U6 2.984 . S
C9 O7 1.353 . S
C9 O8 1.286 . S
C9 C11 1.363 . S
C10 C0 1.465 . S
C10 U6 2.847 . S
C10 O24 1.249 . S
C10 O25 1.202 . S
C11 C9 1.363 . S
C11 C13 1.408 . S
C11 C16 1.342 . S
C12 C13 1.310 . S
C12 C15 1.461 . S
C12 H32 0.932 . S
C13 C11 1.408 . S
C13 C12 1.310 . S
C13 H33 0.930 . S
C14 C15 1.474 . S
C14 C16 1.285 . S
C14 H34 0.929 . S
C15 C12 1.461 . S
C15 C14 1.474 . S
C16 C11 1.342 . S
C16 C14 1.285 . S
C16 H35 0.930 . S
C17 C20 1.424 . S
C17 C22 1.245 . S
C17 C23 1.428 . S
C18 C21 1.260 . S
C18 C22 1.477 . S
C18 H36 0.932 . S
C19 C20 1.384 . S
C19 C21 1.479 . S
C19 H37 0.929 . S
C20 C17 1.424 . S
C20 C19 1.384 . S
C20 H38 0.928 . S
C21 C18 1.260 . S
C21 C19 1.479 . S
C22 C17 1.245 . S
C22 C18 1.477 . S
C22 H39 0.932 . S
C23 U6 2.882 . S
C23 C17 1.428 . S
C23 O26 1.301 . S
C23 O27 1.282 . S
O24 U6 2.441 . S
O24 C10 1.249 . S
O25 U6 2.420 . S
O25 C10 1.202 . S
O26 U6 2.455 . S
O26 C23 1.301 . S
O27 U6 2.449 . S
O27 C23 1.282 . S
H28 C1 0.931 . S
H29 C3 0.929 . S
H30 C4 0.930 . S
H31 C5 0.931 . S
H32 C12 0.932 . S
H33 C13 0.930 . S
H34 C14 0.929 . S
H35 C16 0.930 . S
H36 C18 0.932 . S
H37 C19 0.929 . S
H38 C20 0.928 . S
H39 C22 0.932 . S
C40 C41 1.264 . S
C40 C45 1.479 . S
C40 C50 1.465 . S
C41 C40 1.264 . S
C41 C43 1.339 . S
C41 H68 0.931 . S
C42 C43 1.395 . S
C42 C44 1.320 . S
C43 C41 1.339 . S
C43 C42 1.395 . S
C43 H69 0.929 . S
C44 C42 1.320 . S
C44 C45 1.405 . S
C44 H70 0.930 . S
C45 C40 1.479 . S
C45 C44 1.405 . S
C45 H71 0.931 . S
U46 O47 2.454 . S
U46 O48 2.458 . S
U46 C49 2.984 . S
U46 C50 2.847 . S
U46 C63 2.882 . S
U46 O64 2.441 . S
U46 O65 2.420 . S
U46 O66 2.455 . S
U46 O67 2.449 . S
O47 U46 2.454 . S
O47 C49 1.353 . S
O48 U46 2.458 . S
O48 C49 1.286 . S
C49 U46 2.984 . S
C49 O47 1.353 . S
C49 O48 1.286 . S
C49 C51 1.363 . S
C50 C40 1.465 . S
C50 U46 2.847 . S
C50 O64 1.249 . S
C50 O65 1.202 . S
C51 C49 1.363 . S
C51 C53 1.408 . S
C51 C56 1.342 . S
C52 C53 1.310 . S
C52 C55 1.461 . S
C52 H72 0.932 . S
C53 C51 1.408 . S
C53 C52 1.310 . S
C53 H73 0.930 . S
C54 C55 1.474 . S
C54 C56 1.285 . S
C54 H74 0.929 . S
C55 C52 1.461 . S
C55 C54 1.474 . S
C56 C51 1.342 . S
C56 C54 1.285 . S
C56 H75 0.930 . S
C57 C60 1.424 . S
C57 C62 1.245 . S
C57 C63 1.428 . S
C58 C61 1.260 . S
C58 C62 1.477 . S
C58 H76 0.932 . S
C59 C60 1.384 . S
C59 C61 1.479 . S
C59 H77 0.929 . S
C60 C57 1.424 . S
C60 C59 1.384 . S
C60 H78 0.928 . S
C61 C58 1.260 . S
C61 C59 1.479 . S
C62 C57 1.245 . S
C62 C58 1.477 . S
C62 H79 0.932 . S
C63 U46 2.882 . S
C63 C57 1.428 . S
C63 O66 1.301 . S
C63 O67 1.282 . S
O64 U46 2.441 . S
O64 C50 1.249 . S
O65 U46 2.420 . S
O65 C50 1.202 . S
O66 U46 2.455 . S
O66 C63 1.301 . S
O67 U46 2.449 . S
O67 C63 1.282 . S
H68 C41 0.931 . S
H69 C43 0.929 . S
H70 C44 0.930 . S
H71 C45 0.931 . S
H72 C52 0.932 . S
H73 C53 0.930 . S
H74 C54 0.929 . S
H75 C56 0.930 . S
H76 C58 0.932 . S
H77 C59 0.929 . S
H78 C60 0.928 . S
H79 C62 0.932 . S
C80 C81 1.264 . S
C80 C85 1.479 . S
C80 C90 1.465 . S
C81 C80 1.264 . S
C81 C83 1.339 . S
C81 H108 0.931 . S
C82 C83 1.395 . S
C82 C84 1.320 . S
C83 C81 1.339 . S
C83 C82 1.395 . S
C83 H109 0.929 . S
C84 C82 1.320 . S
C84 C85 1.405 . S
C84 H110 0.930 . S
C85 C80 1.479 . S
C85 C84 1.405 . S
C85 H111 0.931 . S
U86 O87 2.454 . S
U86 O88 2.458 . S
U86 C89 2.984 . S
U86 C90 2.847 . S
U86 C103 2.882 . S
U86 O104 2.441 . S
U86 O105 2.420 . S
U86 O106 2.455 . S
U86 O107 2.449 . S
O87 U86 2.454 . S
O87 C89 1.353 . S
O88 U86 2.458 . S
O88 C89 1.286 . S
C89 U86 2.984 . S
C89 O87 1.353 . S
C89 O88 1.286 . S
C89 C91 1.363 . S
C90 C80 1.465 . S
C90 U86 2.847 . S
C90 O104 1.249 . S
C90 O105 1.202 . S
C91 C89 1.363 . S
C91 C93 1.408 . S
C91 C96 1.342 . S
C92 C93 1.310 . S
C92 C95 1.461 . S
C92 H112 0.932 . S
C93 C91 1.408 . S
C93 C92 1.310 . S
C93 H113 0.930 . S
C94 C95 1.474 . S
C94 C96 1.285 . S
C94 H114 0.929 . S
C95 C92 1.461 . S
C95 C94 1.474 . S
C96 C91 1.342 . S
C96 C94 1.285 . S
C96 H115 0.930 . S
C97 C100 1.424 1_565 S
C97 C102 1.245 1_565 S
C97 C103 1.428 . S
C98 C101 1.260 . S
C98 C102 1.477 . S
C98 H116 0.932 . S
C99 C100 1.384 . S
C99 C101 1.479 . S
C99 H117 0.929 . S
C100 C97 1.424 1_545 S
C100 C99 1.384 . S
C100 H118 0.928 . S
C101 C98 1.260 . S
C101 C99 1.479 . S
C102 C97 1.245 1_545 S
C102 C98 1.477 . S
C102 H119 0.932 . S
C103 U86 2.882 . S
C103 C97 1.428 . S
C103 O106 1.301 . S
C103 O107 1.282 . S
O104 U86 2.441 . S
O104 C90 1.249 . S
O105 U86 2.420 . S
O105 C90 1.202 . S
O106 U86 2.455 . S
O106 C103 1.301 . S
O107 U86 2.449 . S
O107 C103 1.282 . S
H108 C81 0.931 . S
H109 C83 0.929 . S
H110 C84 0.930 . S
H111 C85 0.931 . S
H112 C92 0.932 . S
H113 C93 0.930 . S
H114 C94 0.929 . S
H115 C96 0.930 . S
H116 C98 0.932 . S
H117 C99 0.929 . S
H118 C100 0.928 . S
H119 C102 0.932 . S
C120 C121 1.264 . S
C120 C125 1.479 . S
C120 C130 1.465 . S
C121 C120 1.264 . S
C121 C123 1.339 . S
C121 H148 0.931 . S
C122 C123 1.395 . S
C122 C124 1.320 . S
C123 C121 1.339 . S
C123 C122 1.395 . S
C123 H149 0.929 . S
C124 C122 1.320 . S
C124 C125 1.405 . S
C124 H150 0.930 . S
C125 C120 1.479 . S
C125 C124 1.405 . S
C125 H151 0.931 . S
U126 O127 2.454 . S
U126 O128 2.458 . S
U126 C129 2.984 . S
U126 C130 2.847 . S
U126 C143 2.882 1_545 S
U126 O144 2.441 . S
U126 O145 2.420 . S
U126 O146 2.447 1_545 S
U126 O147 2.449 . S
O127 U126 2.454 . S
O127 C129 1.353 . S
O128 U126 2.458 . S
O128 C129 1.286 . S
C129 U126 2.984 . S
C129 O127 1.353 . S
C129 O128 1.286 . S
C129 C131 1.363 . S
C130 C120 1.465 . S
C130 U126 2.847 . S
C130 O144 1.249 . S
C130 O145 1.202 . S
C131 C129 1.363 . S
C131 C133 1.408 . S
C131 C136 1.342 . S
C132 C133 1.310 . S
C132 C135 1.461 . S
C132 H152 0.932 . S
C133 C131 1.408 . S
C133 C132 1.310 . S
C133 H153 0.930 . S
C134 C135 1.474 . S
C134 C136 1.285 . S
C134 H154 0.929 . S
C135 C132 1.461 . S
C135 C134 1.474 . S
C136 C131 1.342 . S
C136 C134 1.285 . S
C136 H155 0.930 . S
C137 C140 1.424 . S
C137 C142 1.245 . S
C137 C143 1.428 . S
C138 C141 1.260 . S
C138 C142 1.477 . S
C138 H156 0.932 . S
C139 C140 1.384 . S
C139 C141 1.479 . S
C139 H157 0.929 . S
C140 C137 1.424 . S
C140 C139 1.384 . S
C140 H158 0.928 . S
C141 C138 1.260 . S
C141 C139 1.479 . S
C142 C137 1.245 . S
C142 C138 1.477 . S
C142 H159 0.932 . S
C143 U126 2.882 1_565 S
C143 C137 1.428 . S
C143 O146 1.305 . S
C143 O147 1.282 1_565 S
O144 U126 2.441 . S
O144 C130 1.249 . S
O145 U126 2.420 . S
O145 C130 1.202 . S
O146 U126 2.447 1_565 S
O146 C143 1.305 . S
O147 U126 2.449 . S
O147 C143 1.282 1_545 S
H148 C121 0.931 . S
H149 C123 0.929 . S
H150 C124 0.930 . S
H151 C125 0.931 . S
H152 C132 0.932 . S
H153 C133 0.930 . S
H154 C134 0.929 . S
H155 C136 0.930 . S
H156 C138 0.932 . S
H157 C139 0.929 . S
H158 C140 0.928 . S
H159 C142 0.932 . S
C160 C161 1.264 . S
C160 C165 1.479 . S
C160 C170 1.465 . S
C161 C160 1.264 . S
C161 C163 1.339 . S
C161 H188 0.931 . S
C162 C163 1.395 . S
C162 C164 1.320 . S
C163 C161 1.339 . S
C163 C162 1.395 . S
C163 H189 0.929 . S
C164 C162 1.320 . S
C164 C165 1.405 . S
C164 H190 0.930 . S
C165 C160 1.479 . S
C165 C164 1.405 . S
C165 H191 0.931 . S
U166 O167 2.454 . S
U166 O168 2.458 . S
U166 C169 2.984 . S
U166 C170 2.847 . S
U166 C183 2.882 . S
U166 O184 2.441 . S
U166 O185 2.420 . S
U166 O186 2.455 . S
U166 O187 2.449 . S
O167 U166 2.454 . S
O167 C169 1.353 . S
O168 U166 2.458 . S
O168 C169 1.286 . S
C169 U166 2.984 . S
C169 O167 1.353 . S
C169 O168 1.286 . S
C169 C171 1.363 . S
C170 C160 1.465 . S
C170 U166 2.847 . S
C170 O184 1.249 . S
C170 O185 1.202 . S
C171 C169 1.363 . S
C171 C173 1.408 . S
C171 C176 1.342 . S
C172 C173 1.310 . S
C172 C175 1.461 . S
C172 H192 0.932 . S
C173 C171 1.408 . S
C173 C172 1.310 . S
C173 H193 0.930 . S
C174 C175 1.474 . S
C174 C176 1.285 . S
C174 H194 0.929 . S
C175 C172 1.461 . S
C175 C174 1.474 . S
C176 C171 1.342 . S
C176 C174 1.285 . S
C176 H195 0.930 . S
C177 C180 1.424 . S
C177 C182 1.245 . S
C177 C183 1.428 . S
C178 C181 1.260 . S
C178 C182 1.477 . S
C178 H196 0.932 . S
C179 C180 1.384 . S
C179 C181 1.479 . S
C179 H197 0.929 . S
C180 C177 1.424 . S
C180 C179 1.384 . S
C180 H198 0.928 . S
C181 C178 1.260 . S
C181 C179 1.479 . S
C182 C177 1.245 . S
C182 C178 1.477 . S
C182 H199 0.932 . S
C183 U166 2.882 . S
C183 C177 1.428 . S
C183 O186 1.301 . S
C183 O187 1.282 . S
O184 U166 2.441 . S
O184 C170 1.249 . S
O185 U166 2.420 . S
O185 C170 1.202 . S
O186 U166 2.455 . S
O186 C183 1.301 . S
O187 U166 2.449 . S
O187 C183 1.282 . S
H188 C161 0.931 . S
H189 C163 0.929 . S
H190 C164 0.930 . S
H191 C165 0.931 . S
H192 C172 0.932 . S
H193 C173 0.930 . S
H194 C174 0.929 . S
H195 C176 0.930 . S
H196 C178 0.932 . S
H197 C179 0.929 . S
H198 C180 0.928 . S
H199 C182 0.932 . S
C200 C201 1.264 . S
C200 C205 1.479 . S
C200 C210 1.465 . S
C201 C200 1.264 . S
C201 C203 1.339 . S
C201 H228 0.931 . S
C202 C203 1.395 . S
C202 C204 1.320 . S
C203 C201 1.339 . S
C203 C202 1.395 . S
C203 H229 0.929 . S
C204 C202 1.320 . S
C204 C205 1.405 . S
C204 H230 0.930 . S
C205 C200 1.479 . S
C205 C204 1.405 . S
C205 H231 0.931 . S
U206 O207 2.454 . S
U206 O208 2.458 . S
U206 C209 2.984 . S
U206 C210 2.847 . S
U206 C223 2.882 1_554 S
U206 O224 2.441 . S
U206 O225 2.420 . S
U206 O226 2.447 1_554 S
U206 O227 2.449 . S
O207 U206 2.454 . S
O207 C209 1.353 . S
O208 U206 2.458 . S
O208 C209 1.286 . S
C209 U206 2.984 . S
C209 O207 1.353 . S
C209 O208 1.286 . S
C209 C211 1.363 . S
C210 C200 1.465 . S
C210 U206 2.847 . S
C210 O224 1.249 . S
C210 O225 1.202 . S
C211 C209 1.363 . S
C211 C213 1.408 . S
C211 C216 1.342 . S
C212 C213 1.310 . S
C212 C215 1.461 . S
C212 H232 0.932 . S
C213 C211 1.408 . S
C213 C212 1.310 . S
C213 H233 0.930 . S
C214 C215 1.474 . S
C214 C216 1.285 . S
C214 H234 0.929 . S
C215 C212 1.461 . S
C215 C214 1.474 . S
C216 C211 1.342 . S
C216 C214 1.285 . S
C216 H235 0.930 . S
C217 C220 1.424 . S
C217 C222 1.245 . S
C217 C223 1.428 . S
C218 C221 1.260 . S
C218 C222 1.477 . S
C218 H236 0.932 . S
C219 C220 1.384 . S
C219 C221 1.479 . S
C219 H237 0.929 . S
C220 C217 1.424 . S
C220 C219 1.384 . S
C220 H238 0.928 . S
C221 C218 1.260 . S
C221 C219 1.479 . S
C222 C217 1.245 . S
C222 C218 1.477 . S
C222 H239 0.932 . S
C223 U206 2.882 1_556 S
C223 C217 1.428 . S
C223 O226 1.305 . S
C223 O227 1.282 1_556 S
O224 U206 2.441 . S
O224 C210 1.249 . S
O225 U206 2.420 . S
O225 C210 1.202 . S
O226 U206 2.447 1_556 S
O226 C223 1.305 . S
O227 U206 2.449 . S
O227 C223 1.282 1_554 S
H228 C201 0.931 . S
H229 C203 0.929 . S
H230 C204 0.930 . S
H231 C205 0.931 . S
H232 C212 0.932 . S
H233 C213 0.930 . S
H234 C214 0.929 . S
H235 C216 0.930 . S
H236 C218 0.932 . S
H237 C219 0.929 . S
H238 C220 0.928 . S
H239 C222 0.932 . S
C240 C241 1.264 . S
C240 C245 1.479 . S
C240 C250 1.465 . S
C241 C240 1.264 . S
C241 C243 1.339 . S
C241 H268 0.931 . S
C242 C243 1.395 . S
C242 C244 1.320 . S
C243 C241 1.339 . S
C243 C242 1.395 . S
C243 H269 0.929 . S
C244 C242 1.320 . S
C244 C245 1.405 . S
C244 H270 0.930 . S
C245 C240 1.479 . S
C245 C244 1.405 . S
C245 H271 0.931 . S
U246 O247 2.454 . S
U246 O248 2.458 . S
U246 C249 2.984 . S
U246 C250 2.847 . S
U246 C263 2.882 . S
U246 O264 2.441 . S
U246 O265 2.420 . S
U246 O266 2.455 . S
U246 O267 2.449 . S
O247 U246 2.454 . S
O247 C249 1.353 . S
O248 U246 2.458 . S
O248 C249 1.286 . S
C249 U246 2.984 . S
C249 O247 1.353 . S
C249 O248 1.286 . S
C249 C251 1.363 . S
C250 C240 1.465 . S
C250 U246 2.847 . S
C250 O264 1.249 . S
C250 O265 1.202 . S
C251 C249 1.363 . S
C251 C253 1.408 . S
C251 C256 1.342 . S
C252 C253 1.310 . S
C252 C255 1.461 . S
C252 H272 0.932 . S
C253 C251 1.408 . S
C253 C252 1.310 . S
C253 H273 0.930 . S
C254 C255 1.474 . S
C254 C256 1.285 . S
C254 H274 0.929 . S
C255 C252 1.461 . S
C255 C254 1.474 . S
C256 C251 1.342 . S
C256 C254 1.285 . S
C256 H275 0.930 . S
C257 C260 1.424 . S
C257 C262 1.245 . S
C257 C263 1.428 . S
C258 C261 1.260 . S
C258 C262 1.477 . S
C258 H276 0.932 . S
C259 C260 1.384 . S
C259 C261 1.479 . S
C259 H277 0.929 . S
C260 C257 1.424 . S
C260 C259 1.384 . S
C260 H278 0.928 . S
C261 C258 1.260 . S
C261 C259 1.479 . S
C262 C257 1.245 . S
C262 C258 1.477 . S
C262 H279 0.932 . S
C263 U246 2.882 . S
C263 C257 1.428 . S
C263 O266 1.301 . S
C263 O267 1.282 . S
O264 U246 2.441 . S
O264 C250 1.249 . S
O265 U246 2.420 . S
O265 C250 1.202 . S
O266 U246 2.455 . S
O266 C263 1.301 . S
O267 U246 2.449 . S
O267 C263 1.282 . S
H268 C241 0.931 . S
H269 C243 0.929 . S
H270 C244 0.930 . S
H271 C245 0.931 . S
H272 C252 0.932 . S
H273 C253 0.930 . S
H274 C254 0.929 . S
H275 C256 0.930 . S
H276 C258 0.932 . S
H277 C259 0.929 . S
H278 C260 0.928 . S
H279 C262 0.932 . S
C280 C281 1.264 . S
C280 C285 1.479 . S
C280 C290 1.465 . S
C281 C280 1.264 . S
C281 C283 1.339 . S
C281 H308 0.931 . S
C282 C283 1.395 . S
C282 C284 1.320 . S
C283 C281 1.339 . S
C283 C282 1.395 . S
C283 H309 0.929 . S
C284 C282 1.320 . S
C284 C285 1.405 . S
C284 H310 0.930 . S
C285 C280 1.479 . S
C285 C284 1.405 . S
C285 H311 0.931 . S
U286 O287 2.454 . S
U286 O288 2.458 . S
U286 C289 2.984 . S
U286 C290 2.847 . S
U286 C303 2.882 . S
U286 O304 2.441 . S
U286 O305 2.420 . S
U286 O306 2.455 . S
U286 O307 2.449 . S
O287 U286 2.454 . S
O287 C289 1.353 . S
O288 U286 2.458 . S
O288 C289 1.286 . S
C289 U286 2.984 . S
C289 O287 1.353 . S
C289 O288 1.286 . S
C289 C291 1.363 . S
C290 C280 1.465 . S
C290 U286 2.847 . S
C290 O304 1.249 . S
C290 O305 1.202 . S
C291 C289 1.363 . S
C291 C293 1.408 . S
C291 C296 1.342 . S
C292 C293 1.310 . S
C292 C295 1.461 . S
C292 H312 0.932 . S
C293 C291 1.408 . S
C293 C292 1.310 . S
C293 H313 0.930 . S
C294 C295 1.474 . S
C294 C296 1.285 . S
C294 H314 0.929 . S
C295 C292 1.461 . S
C295 C294 1.474 . S
C296 C291 1.342 . S
C296 C294 1.285 . S
C296 H315 0.930 . S
C297 C300 1.424 1_556 S
C297 C302 1.245 1_556 S
C297 C303 1.428 . S
C298 C301 1.260 . S
C298 C302 1.477 . S
C298 H316 0.932 . S
C299 C300 1.384 . S
C299 C301 1.479 . S
C299 H317 0.929 . S
C300 C297 1.424 1_554 S
C300 C299 1.384 . S
C300 H318 0.928 . S
C301 C298 1.260 . S
C301 C299 1.479 . S
C302 C297 1.245 1_554 S
C302 C298 1.477 . S
C302 H319 0.932 . S
C303 U286 2.882 . S
C303 C297 1.428 . S
C303 O306 1.301 . S
C303 O307 1.282 . S
O304 U286 2.441 . S
O304 C290 1.249 . S
O305 U286 2.420 . S
O305 C290 1.202 . S
O306 U286 2.455 . S
O306 C303 1.301 . S
O307 U286 2.449 . S
O307 C303 1.282 . S
H308 C281 0.931 . S
H309 C283 0.929 . S
H310 C284 0.930 . S
H311 C285 0.931 . S
H312 C292 0.932 . S
H313 C293 0.930 . S
H314 C294 0.929 . S
H315 C296 0.930 . S
H316 C298 0.932 . S
H317 C299 0.929 . S
H318 C300 0.928 . S
H319 C302 0.932 . S
C320 C321 1.264 . S
C320 C325 1.479 . S
C320 C330 1.465 . S
C321 C320 1.264 . S
C321 C323 1.339 . S
C321 H348 0.931 . S
C322 C323 1.395 . S
C322 C324 1.320 . S
C323 C321 1.339 . S
C323 C322 1.395 . S
C323 H349 0.929 . S
C324 C322 1.320 . S
C324 C325 1.405 . S
C324 H350 0.930 . S
C325 C320 1.479 . S
C325 C324 1.405 . S
C325 H351 0.931 . S
U326 O327 2.454 . S
U326 O328 2.458 . S
U326 C329 2.984 . S
U326 C330 2.847 . S
U326 C343 2.882 . S
U326 O344 2.441 . S
U326 O345 2.420 . S
U326 O346 2.455 . S
U326 O347 2.449 . S
O327 U326 2.454 . S
O327 C329 1.353 . S
O328 U326 2.458 . S
O328 C329 1.286 . S
C329 U326 2.984 . S
C329 O327 1.353 . S
C329 O328 1.286 . S
C329 C331 1.363 . S
C330 C320 1.465 . S
C330 U326 2.847 . S
C330 O344 1.249 . S
C330 O345 1.202 . S
C331 C329 1.363 . S
C331 C333 1.408 . S
C331 C336 1.342 . S
C332 C333 1.310 . S
C332 C335 1.461 . S
C332 H352 0.932 . S
C333 C331 1.408 . S
C333 C332 1.310 . S
C333 H353 0.930 . S
C334 C335 1.474 . S
C334 C336 1.285 . S
C334 H354 0.929 . S
C335 C332 1.461 . S
C335 C334 1.474 . S
C336 C331 1.342 . S
C336 C334 1.285 . S
C336 H355 0.930 . S
C337 C340 1.424 . S
C337 C342 1.245 . S
C337 C343 1.428 . S
C338 C341 1.260 . S
C338 C342 1.477 . S
C338 H356 0.932 . S
C339 C340 1.384 . S
C339 C341 1.479 . S
C339 H357 0.929 . S
C340 C337 1.424 . S
C340 C339 1.384 . S
C340 H358 0.928 . S
C341 C338 1.260 . S
C341 C339 1.479 . S
C342 C337 1.245 . S
C342 C338 1.477 . S
C342 H359 0.932 . S
C343 U326 2.882 . S
C343 C337 1.428 . S
C343 O346 1.301 . S
C343 O347 1.282 . S
O344 U326 2.441 . S
O344 C330 1.249 . S
O345 U326 2.420 . S
O345 C330 1.202 . S
O346 U326 2.455 . S
O346 C343 1.301 . S
O347 U326 2.449 . S
O347 C343 1.282 . S
H348 C321 0.931 . S
H349 C323 0.929 . S
H350 C324 0.930 . S
H351 C325 0.931 . S
H352 C332 0.932 . S
H353 C333 0.930 . S
H354 C334 0.929 . S
H355 C336 0.930 . S
H356 C338 0.932 . S
H357 C339 0.929 . S
H358 C340 0.928 . S
H359 C342 0.932 . S
C360 C361 1.264 . S
C360 C365 1.479 . S
C360 C370 1.465 . S
C361 C360 1.264 . S
C361 C363 1.339 . S
C361 H388 0.931 . S
C362 C363 1.395 . S
C362 C364 1.320 . S
C363 C361 1.339 . S
C363 C362 1.395 . S
C363 H389 0.929 . S
C364 C362 1.320 . S
C364 C365 1.405 . S
C364 H390 0.930 . S
C365 C360 1.479 . S
C365 C364 1.405 . S
C365 H391 0.931 . S
U366 O367 2.454 . S
U366 O368 2.458 . S
U366 C369 2.984 . S
U366 C370 2.847 . S
U366 C383 2.882 1_455 S
U366 O384 2.441 . S
U366 O385 2.420 . S
U366 O386 2.447 1_455 S
U366 O387 2.449 . S
O367 U366 2.454 . S
O367 C369 1.353 . S
O368 U366 2.458 . S
O368 C369 1.286 . S
C369 U366 2.984 . S
C369 O367 1.353 . S
C369 O368 1.286 . S
C369 C371 1.363 . S
C370 C360 1.465 . S
C370 U366 2.847 . S
C370 O384 1.249 . S
C370 O385 1.202 . S
C371 C369 1.363 . S
C371 C373 1.408 . S
C371 C376 1.342 . S
C372 C373 1.310 . S
C372 C375 1.461 . S
C372 H392 0.932 . S
C373 C371 1.408 . S
C373 C372 1.310 . S
C373 H393 0.930 . S
C374 C375 1.474 . S
C374 C376 1.285 . S
C374 H394 0.929 . S
C375 C372 1.461 . S
C375 C374 1.474 . S
C376 C371 1.342 . S
C376 C374 1.285 . S
C376 H395 0.930 . S
C377 C380 1.424 . S
C377 C382 1.245 . S
C377 C383 1.428 . S
C378 C381 1.260 . S
C378 C382 1.477 . S
C378 H396 0.932 . S
C379 C380 1.384 . S
C379 C381 1.479 . S
C379 H397 0.929 . S
C380 C377 1.424 . S
C380 C379 1.384 . S
C380 H398 0.928 . S
C381 C378 1.260 . S
C381 C379 1.479 . S
C382 C377 1.245 . S
C382 C378 1.477 . S
C382 H399 0.932 . S
C383 U366 2.882 1_655 S
C383 C377 1.428 . S
C383 O386 1.305 . S
C383 O387 1.282 1_655 S
O384 U366 2.441 . S
O384 C370 1.249 . S
O385 U366 2.420 . S
O385 C370 1.202 . S
O386 U366 2.447 1_655 S
O386 C383 1.305 . S
O387 U366 2.449 . S
O387 C383 1.282 1_455 S
H388 C361 0.931 . S
H389 C363 0.929 . S
H390 C364 0.930 . S
H391 C365 0.931 . S
H392 C372 0.932 . S
H393 C373 0.930 . S
H394 C374 0.929 . S
H395 C376 0.930 . S
H396 C378 0.932 . S
H397 C379 0.929 . S
H398 C380 0.928 . S
H399 C382 0.932 . S
C400 C401 1.264 . S
C400 C405 1.479 . S
C400 C410 1.465 . S
C401 C400 1.264 . S
C401 C403 1.339 . S
C401 H428 0.931 . S
C402 C403 1.395 . S
C402 C404 1.320 . S
C403 C401 1.339 . S
C403 C402 1.395 . S
C403 H429 0.929 . S
C404 C402 1.320 . S
C404 C405 1.405 . S
C404 H430 0.930 . S
C405 C400 1.479 . S
C405 C404 1.405 . S
C405 H431 0.931 . S
U406 O407 2.454 . S
U406 O408 2.458 . S
U406 C409 2.984 . S
U406 C410 2.847 . S
U406 C423 2.882 . S
U406 O424 2.441 . S
U406 O425 2.420 . S
U406 O426 2.455 . S
U406 O427 2.449 . S
O407 U406 2.454 . S
O407 C409 1.353 . S
O408 U406 2.458 . S
O408 C409 1.286 . S
C409 U406 2.984 . S
C409 O407 1.353 . S
C409 O408 1.286 . S
C409 C411 1.363 . S
C410 C400 1.465 . S
C410 U406 2.847 . S
C410 O424 1.249 . S
C410 O425 1.202 . S
C411 C409 1.363 . S
C411 C413 1.408 . S
C411 C416 1.342 . S
C412 C413 1.310 . S
C412 C415 1.461 . S
C412 H432 0.932 . S
C413 C411 1.408 . S
C413 C412 1.310 . S
C413 H433 0.930 . S
C414 C415 1.474 . S
C414 C416 1.285 . S
C414 H434 0.929 . S
C415 C412 1.461 . S
C415 C414 1.474 . S
C416 C411 1.342 . S
C416 C414 1.285 . S
C416 H435 0.930 . S
C417 C420 1.424 . S
C417 C422 1.245 . S
C417 C423 1.428 . S
C418 C421 1.260 . S
C418 C422 1.477 . S
C418 H436 0.932 . S
C419 C420 1.384 . S
C419 C421 1.479 . S
C419 H437 0.929 . S
C420 C417 1.424 . S
C420 C419 1.384 . S
C420 H438 0.928 . S
C421 C418 1.260 . S
C421 C419 1.479 . S
C422 C417 1.245 . S
C422 C418 1.477 . S
C422 H439 0.932 . S
C423 U406 2.882 . S
C423 C417 1.428 . S
C423 O426 1.301 . S
C423 O427 1.282 . S
O424 U406 2.441 . S
O424 C410 1.249 . S
O425 U406 2.420 . S
O425 C410 1.202 . S
O426 U406 2.455 . S
O426 C423 1.301 . S
O427 U406 2.449 . S
O427 C423 1.282 . S
H428 C401 0.931 . S
H429 C403 0.929 . S
H430 C404 0.930 . S
H431 C405 0.931 . S
H432 C412 0.932 . S
H433 C413 0.930 . S
H434 C414 0.929 . S
H435 C416 0.930 . S
H436 C418 0.932 . S
H437 C419 0.929 . S
H438 C420 0.928 . S
H439 C422 0.932 . S
C440 C441 1.264 . S
C440 C445 1.479 . S
C440 C450 1.465 . S
C441 C440 1.264 . S
C441 C443 1.339 . S
C441 H468 0.931 . S
C442 C443 1.395 . S
C442 C444 1.320 . S
C443 C441 1.339 . S
C443 C442 1.395 . S
C443 H469 0.929 . S
C444 C442 1.320 . S
C444 C445 1.405 . S
C444 H470 0.930 . S
C445 C440 1.479 . S
C445 C444 1.405 . S
C445 H471 0.931 . S
U446 O447 2.454 . S
U446 O448 2.458 . S
U446 C449 2.984 . S
U446 C450 2.847 . S
U446 C463 2.882 . S
U446 O464 2.441 . S
U446 O465 2.420 . S
U446 O466 2.455 . S
U446 O467 2.449 . S
O447 U446 2.454 . S
O447 C449 1.353 . S
O448 U446 2.458 . S
O448 C449 1.286 . S
C449 U446 2.984 . S
C449 O447 1.353 . S
C449 O448 1.286 . S
C449 C451 1.363 . S
C450 C440 1.465 . S
C450 U446 2.847 . S
C450 O464 1.249 . S
C450 O465 1.202 . S
C451 C449 1.363 . S
C451 C453 1.408 . S
C451 C456 1.342 . S
C452 C453 1.310 . S
C452 C455 1.461 . S
C452 H472 0.932 . S
C453 C451 1.408 . S
C453 C452 1.310 . S
C453 H473 0.930 . S
C454 C455 1.474 . S
C454 C456 1.285 . S
C454 H474 0.929 . S
C455 C452 1.461 . S
C455 C454 1.474 . S
C456 C451 1.342 . S
C456 C454 1.285 . S
C456 H475 0.930 . S
C457 C460 1.424 1_655 S
C457 C462 1.245 1_655 S
C457 C463 1.428 . S
C458 C461 1.260 . S
C458 C462 1.477 . S
C458 H476 0.932 . S
C459 C460 1.384 . S
C459 C461 1.479 . S
C459 H477 0.929 . S
C460 C457 1.424 1_455 S
C460 C459 1.384 . S
C460 H478 0.928 . S
C461 C458 1.260 . S
C461 C459 1.479 . S
C462 C457 1.245 1_455 S
C462 C458 1.477 . S
C462 H479 0.932 . S
C463 U446 2.882 . S
C463 C457 1.428 . S
C463 O466 1.301 . S
C463 O467 1.282 . S
O464 U446 2.441 . S
O464 C450 1.249 . S
O465 U446 2.420 . S
O465 C450 1.202 . S
O466 U446 2.455 . S
O466 C463 1.301 . S
O467 U446 2.449 . S
O467 C463 1.282 . S
H468 C441 0.931 . S
H469 C443 0.929 . S
H470 C444 0.930 . S
H471 C445 0.931 . S
H472 C452 0.932 . S
H473 C453 0.930 . S
H474 C454 0.929 . S
H475 C456 0.930 . S
H476 C458 0.932 . S
H477 C459 0.929 . S
H478 C460 0.928 . S
H479 C462 0.932 . S
C480 C481 1.264 . S
C480 C485 1.479 . S
C480 C490 1.465 . S
C481 C480 1.264 . S
C481 C483 1.339 . S
C481 H508 0.931 . S
C482 C483 1.395 . S
C482 C484 1.320 . S
C483 C481 1.339 . S
C483 C482 1.395 . S
C483 H509 0.929 . S
C484 C482 1.320 . S
C484 C485 1.405 . S
C484 H510 0.930 . S
C485 C480 1.479 . S
C485 C484 1.405 . S
C485 H511 0.931 . S
U486 O487 2.454 . S
U486 O488 2.458 . S
U486 C489 2.984 . S
U486 C490 2.847 . S
U486 C503 2.882 . S
U486 O504 2.441 . S
U486 O505 2.420 . S
U486 O506 2.455 . S
U486 O507 2.449 . S
O487 U486 2.454 . S
O487 C489 1.353 . S
O488 U486 2.458 . S
O488 C489 1.286 . S
C489 U486 2.984 . S
C489 O487 1.353 . S
C489 O488 1.286 . S
C489 C491 1.363 . S
C490 C480 1.465 . S
C490 U486 2.847 . S
C490 O504 1.249 . S
C490 O505 1.202 . S
C491 C489 1.363 . S
C491 C493 1.408 . S
C491 C496 1.342 . S
C492 C493 1.310 . S
C492 C495 1.461 . S
C492 H512 0.932 . S
C493 C491 1.408 . S
C493 C492 1.310 . S
C493 H513 0.930 . S
C494 C495 1.474 . S
C494 C496 1.285 . S
C494 H514 0.929 . S
C495 C492 1.461 . S
C495 C494 1.474 . S
C496 C491 1.342 . S
C496 C494 1.285 . S
C496 H515 0.930 . S
C497 C500 1.424 . S
C497 C502 1.245 . S
C497 C503 1.428 . S
C498 C501 1.260 . S
C498 C502 1.477 . S
C498 H516 0.932 . S
C499 C500 1.384 . S
C499 C501 1.479 . S
C499 H517 0.929 . S
C500 C497 1.424 . S
C500 C499 1.384 . S
C500 H518 0.928 . S
C501 C498 1.260 . S
C501 C499 1.479 . S
C502 C497 1.245 . S
C502 C498 1.477 . S
C502 H519 0.932 . S
C503 U486 2.882 . S
C503 C497 1.428 . S
C503 O506 1.301 . S
C503 O507 1.282 . S
O504 U486 2.441 . S
O504 C490 1.249 . S
O505 U486 2.420 . S
O505 C490 1.202 . S
O506 U486 2.455 . S
O506 C503 1.301 . S
O507 U486 2.449 . S
O507 C503 1.282 . S
H508 C481 0.931 . S
H509 C483 0.929 . S
H510 C484 0.930 . S
H511 C485 0.931 . S
H512 C492 0.932 . S
H513 C493 0.930 . S
H514 C494 0.929 . S
H515 C496 0.930 . S
H516 C498 0.932 . S
H517 C499 0.929 . S
H518 C500 0.928 . S
H519 C502 0.932 . S
C520 C521 1.264 . S
C520 C525 1.479 . S
C520 C530 1.465 . S
C521 C520 1.264 . S
C521 C523 1.339 . S
C521 H548 0.931 . S
C522 C523 1.395 . S
C522 C524 1.320 . S
C523 C521 1.339 . S
C523 C522 1.395 . S
C523 H549 0.929 . S
C524 C522 1.320 . S
C524 C525 1.405 . S
C524 H550 0.930 . S
C525 C520 1.479 . S
C525 C524 1.405 . S
C525 H551 0.931 . S
U526 O527 2.454 . S
U526 O528 2.458 . S
U526 C529 2.984 . S
U526 C530 2.847 . S
U526 C543 2.882 . S
U526 O544 2.441 . S
U526 O545 2.420 . S
U526 O546 2.455 . S
U526 O547 2.449 . S
O527 U526 2.454 . S
O527 C529 1.353 . S
O528 U526 2.458 . S
O528 C529 1.286 . S
C529 U526 2.984 . S
C529 O527 1.353 . S
C529 O528 1.286 . S
C529 C531 1.363 . S
C530 C520 1.465 . S
C530 U526 2.847 . S
C530 O544 1.249 . S
C530 O545 1.202 . S
C531 C529 1.363 . S
C531 C533 1.408 . S
C531 C536 1.342 . S
C532 C533 1.310 . S
C532 C535 1.461 . S
C532 H552 0.932 . S
C533 C531 1.408 . S
C533 C532 1.310 . S
C533 H553 0.930 . S
C534 C535 1.474 . S
C534 C536 1.285 . S
C534 H554 0.929 . S
C535 C532 1.461 . S
C535 C534 1.474 . S
C536 C531 1.342 . S
C536 C534 1.285 . S
C536 H555 0.930 . S
C537 C540 1.424 . S
C537 C542 1.245 . S
C537 C543 1.428 . S
C538 C541 1.260 . S
C538 C542 1.477 . S
C538 H556 0.932 . S
C539 C540 1.384 . S
C539 C541 1.479 . S
C539 H557 0.929 . S
C540 C537 1.424 . S
C540 C539 1.384 . S
C540 H558 0.928 . S
C541 C538 1.260 . S
C541 C539 1.479 . S
C542 C537 1.245 . S
C542 C538 1.477 . S
C542 H559 0.932 . S
C543 U526 2.882 . S
C543 C537 1.428 . S
C543 O546 1.301 . S
C543 O547 1.282 . S
O544 U526 2.441 . S
O544 C530 1.249 . S
O545 U526 2.420 . S
O545 C530 1.202 . S
O546 U526 2.455 . S
O546 C543 1.301 . S
O547 U526 2.449 . S
O547 C543 1.282 . S
H548 C521 0.931 . S
H549 C523 0.929 . S
H550 C524 0.930 . S
H551 C525 0.931 . S
H552 C532 0.932 . S
H553 C533 0.930 . S
H554 C534 0.929 . S
H555 C536 0.930 . S
H556 C538 0.932 . S
H557 C539 0.929 . S
H558 C540 0.928 . S
H559 C542 0.932 . S
C560 C561 1.264 . S
C560 C565 1.457 1_565 S
C560 C570 1.465 . S
C561 C560 1.264 . S
C561 C563 1.339 . S
C561 H588 0.931 . S
C562 C563 1.395 1_545 S
C562 C564 1.320 . S
C563 C561 1.339 . S
C563 C562 1.395 1_565 S
C563 H589 0.929 . S
C564 C562 1.320 . S
C564 C565 1.434 . S
C564 H590 0.930 . S
C565 C560 1.457 1_545 S
C565 C564 1.434 . S
C565 H591 0.931 . S
U566 O567 2.454 . S
U566 O568 2.458 . S
U566 C569 2.984 . S
U566 C570 2.847 . S
U566 C583 2.882 . S
U566 O584 2.441 . S
U566 O585 2.420 . S
U566 O586 2.455 . S
U566 O587 2.449 . S
O567 U566 2.454 . S
O567 C569 1.353 . S
O568 U566 2.458 . S
O568 C569 1.286 . S
C569 U566 2.984 . S
C569 O567 1.353 . S
C569 O568 1.286 . S
C569 C571 1.360 1_565 S
C570 C560 1.465 . S
C570 U566 2.847 . S
C570 O584 1.249 . S
C570 O585 1.202 . S
C571 C569 1.360 1_545 S
C571 C573 1.418 . S
C571 C576 1.338 . S
C572 C573 1.310 . S
C572 C575 1.461 . S
C572 H592 0.932 . S
C573 C571 1.418 . S
C573 C572 1.310 . S
C573 H593 0.930 . S
C574 C575 1.474 . S
C574 C576 1.285 . S
C574 H594 0.929 . S
C575 C572 1.461 . S
C575 C574 1.474 . S
C576 C571 1.338 . S
C576 C574 1.285 . S
C576 H595 0.930 . S
C577 C580 1.424 . S
C577 C582 1.245 . S
C577 C583 1.428 . S
C578 C581 1.260 . S
C578 C582 1.477 . S
C578 H596 0.932 . S
C579 C580 1.384 . S
C579 C581 1.479 . S
C579 H597 0.929 . S
C580 C577 1.424 . S
C580 C579 1.384 . S
C580 H598 0.928 . S
C581 C578 1.260 . S
C581 C579 1.479 . S
C582 C577 1.245 . S
C582 C578 1.477 . S
C582 H599 0.932 . S
C583 U566 2.882 . S
C583 C577 1.428 . S
C583 O586 1.301 . S
C583 O587 1.282 . S
O584 U566 2.441 . S
O584 C570 1.249 . S
O585 U566 2.420 . S
O585 C570 1.202 . S
O586 U566 2.455 . S
O586 C583 1.301 . S
O587 U566 2.449 . S
O587 C583 1.282 . S
H588 C561 0.931 . S
H589 C563 0.929 . S
H590 C564 0.930 . S
H591 C565 0.931 . S
H592 C572 0.932 . S
H593 C573 0.930 . S
H594 C574 0.929 . S
H595 C576 0.930 . S
H596 C578 0.932 . S
H597 C579 0.929 . S
H598 C580 0.928 . S
H599 C582 0.932 . S
C600 C601 1.264 . S
C600 C605 1.479 . S
C600 C610 1.457 1_565 S
C601 C600 1.264 . S
C601 C603 1.339 . S
C601 H628 0.931 1_565 S
C602 C603 1.395 . S
C602 C604 1.320 . S
C603 C601 1.339 . S
C603 C602 1.395 . S
C603 H629 0.929 . S
C604 C602 1.320 . S
C604 C605 1.405 . S
C604 H630 0.930 . S
C605 C600 1.479 . S
C605 C604 1.405 . S
C605 H631 0.931 . S
U606 O607 2.454 1_545 S
U606 O608 2.458 . S
U606 C609 2.984 1_545 S
U606 C610 2.852 . S
U606 C623 2.882 . S
U606 O624 2.441 1_545 S
U606 O625 2.420 . S
U606 O626 2.455 . S
U606 O627 2.449 . S
O607 U606 2.454 1_565 S
O607 C609 1.353 . S
O608 U606 2.458 . S
O608 C609 1.286 1_545 S
C609 U606 2.984 1_565 S
C609 O607 1.353 . S
C609 O608 1.286 1_565 S
C609 C611 1.363 . S
C610 C600 1.457 1_545 S
C610 U606 2.852 . S
C610 O624 1.245 1_545 S
C610 O625 1.214 . S
C611 C609 1.363 . S
C611 C613 1.408 . S
C611 C616 1.342 . S
C612 C613 1.310 . S
C612 C615 1.461 . S
C612 H632 0.932 . S
C613 C611 1.408 . S
C613 C612 1.310 . S
C613 H633 0.930 . S
C614 C615 1.474 . S
C614 C616 1.285 . S
C614 H634 0.929 . S
C615 C612 1.461 . S
C615 C614 1.474 . S
C616 C611 1.342 . S
C616 C614 1.285 . S
C616 H635 0.930 . S
C617 C620 1.424 . S
C617 C622 1.245 . S
C617 C623 1.428 . S
C618 C621 1.260 . S
C618 C622 1.477 . S
C618 H636 0.932 . S
C619 C620 1.384 . S
C619 C621 1.479 . S
C619 H637 0.929 . S
C620 C617 1.424 . S
C620 C619 1.384 . S
C620 H638 0.928 . S
C621 C618 1.260 . S
C621 C619 1.479 . S
C622 C617 1.245 . S
C622 C618 1.477 . S
C622 H639 0.932 . S
C623 U606 2.882 . S
C623 C617 1.428 . S
C623 O626 1.301 . S
C623 O627 1.282 . S
O624 U606 2.441 1_565 S
O624 C610 1.245 1_565 S
O625 U606 2.420 . S
O625 C610 1.214 . S
O626 U606 2.455 . S
O626 C623 1.301 . S
O627 U606 2.449 . S
O627 C623 1.282 . S
H628 C601 0.931 1_545 S
H629 C603 0.929 . S
H630 C604 0.930 . S
H631 C605 0.931 . S
H632 C612 0.932 . S
H633 C613 0.930 . S
H634 C614 0.929 . S
H635 C616 0.930 . S
H636 C618 0.932 . S
H637 C619 0.929 . S
H638 C620 0.928 . S
H639 C622 0.932 . S
C640 C641 1.264 . S
C640 C645 1.479 . S
C640 C650 1.465 . S
C641 C640 1.264 . S
C641 C643 1.339 . S
C641 H668 0.931 . S
C642 C643 1.395 . S
C642 C644 1.320 . S
C643 C641 1.339 . S
C643 C642 1.395 . S
C643 H669 0.929 . S
C644 C642 1.320 . S
C644 C645 1.405 . S
C644 H670 0.930 . S
C645 C640 1.479 . S
C645 C644 1.405 . S
C645 H671 0.931 . S
U646 O647 2.454 . S
U646 O648 2.458 . S
U646 C649 2.984 . S
U646 C650 2.847 . S
U646 C663 2.882 . S
U646 O664 2.441 . S
U646 O665 2.420 . S
U646 O666 2.455 . S
U646 O667 2.449 . S
O647 U646 2.454 . S
O647 C649 1.353 . S
O648 U646 2.458 . S
O648 C649 1.286 . S
C649 U646 2.984 . S
C649 O647 1.353 . S
C649 O648 1.286 . S
C649 C651 1.363 . S
C650 C640 1.465 . S
C650 U646 2.847 . S
C650 O664 1.249 . S
C650 O665 1.202 . S
C651 C649 1.363 . S
C651 C653 1.408 . S
C651 C656 1.342 . S
C652 C653 1.310 . S
C652 C655 1.461 . S
C652 H672 0.932 . S
C653 C651 1.408 . S
C653 C652 1.310 . S
C653 H673 0.930 . S
C654 C655 1.474 . S
C654 C656 1.285 . S
C654 H674 0.929 . S
C655 C652 1.461 . S
C655 C654 1.474 . S
C656 C651 1.342 . S
C656 C654 1.285 . S
C656 H675 0.930 . S
C657 C660 1.424 . S
C657 C662 1.245 . S
C657 C663 1.428 . S
C658 C661 1.260 . S
C658 C662 1.477 . S
C658 H676 0.932 . S
C659 C660 1.384 . S
C659 C661 1.479 . S
C659 H677 0.929 . S
C660 C657 1.424 . S
C660 C659 1.384 . S
C660 H678 0.928 . S
C661 C658 1.260 . S
C661 C659 1.479 . S
C662 C657 1.245 . S
C662 C658 1.477 . S
C662 H679 0.932 . S
C663 U646 2.882 . S
C663 C657 1.428 . S
C663 O666 1.301 . S
C663 O667 1.282 . S
O664 U646 2.441 . S
O664 C650 1.249 . S
O665 U646 2.420 . S
O665 C650 1.202 . S
O666 U646 2.455 . S
O666 C663 1.301 . S
O667 U646 2.449 . S
O667 C663 1.282 . S
H668 C641 0.931 . S
H669 C643 0.929 . S
H670 C644 0.930 . S
H671 C645 0.931 . S
H672 C652 0.932 . S
H673 C653 0.930 . S
H674 C654 0.929 . S
H675 C656 0.930 . S
H676 C658 0.932 . S
H677 C659 0.929 . S
H678 C660 0.928 . S
H679 C662 0.932 . S
C680 C681 1.264 . S
C680 C685 1.479 . S
C680 C690 1.457 1_556 S
C681 C680 1.264 . S
C681 C683 1.339 . S
C681 H708 0.931 1_556 S
C682 C683 1.395 . S
C682 C684 1.320 . S
C683 C681 1.339 . S
C683 C682 1.395 . S
C683 H709 0.929 . S
C684 C682 1.320 . S
C684 C685 1.405 . S
C684 H710 0.930 . S
C685 C680 1.479 . S
C685 C684 1.405 . S
C685 H711 0.931 . S
U686 O687 2.454 1_554 S
U686 O688 2.458 . S
U686 C689 2.984 1_554 S
U686 C690 2.852 . S
U686 C703 2.882 . S
U686 O704 2.441 1_554 S
U686 O705 2.420 . S
U686 O706 2.455 . S
U686 O707 2.449 . S
O687 U686 2.454 1_556 S
O687 C689 1.353 . S
O688 U686 2.458 . S
O688 C689 1.286 1_554 S
C689 U686 2.984 1_556 S
C689 O687 1.353 . S
C689 O688 1.286 1_556 S
C689 C691 1.363 . S
C690 C680 1.457 1_554 S
C690 U686 2.852 . S
C690 O704 1.245 1_554 S
C690 O705 1.214 . S
C691 C689 1.363 . S
C691 C693 1.408 . S
C691 C696 1.342 . S
C692 C693 1.310 . S
C692 C695 1.461 . S
C692 H712 0.932 . S
C693 C691 1.408 . S
C693 C692 1.310 . S
C693 H713 0.930 . S
C694 C695 1.474 . S
C694 C696 1.285 . S
C694 H714 0.929 . S
C695 C692 1.461 . S
C695 C694 1.474 . S
C696 C691 1.342 . S
C696 C694 1.285 . S
C696 H715 0.930 . S
C697 C700 1.424 . S
C697 C702 1.245 . S
C697 C703 1.428 . S
C698 C701 1.260 . S
C698 C702 1.477 . S
C698 H716 0.932 . S
C699 C700 1.384 . S
C699 C701 1.479 . S
C699 H717 0.929 . S
C700 C697 1.424 . S
C700 C699 1.384 . S
C700 H718 0.928 . S
C701 C698 1.260 . S
C701 C699 1.479 . S
C702 C697 1.245 . S
C702 C698 1.477 . S
C702 H719 0.932 . S
C703 U686 2.882 . S
C703 C697 1.428 . S
C703 O706 1.301 . S
C703 O707 1.282 . S
O704 U686 2.441 1_556 S
O704 C690 1.245 1_556 S
O705 U686 2.420 . S
O705 C690 1.214 . S
O706 U686 2.455 . S
O706 C703 1.301 . S
O707 U686 2.449 . S
O707 C703 1.282 . S
H708 C681 0.931 1_554 S
H709 C683 0.929 . S
H710 C684 0.930 . S
H711 C685 0.931 . S
H712 C692 0.932 . S
H713 C693 0.930 . S
H714 C694 0.929 . S
H715 C696 0.930 . S
H716 C698 0.932 . S
H717 C699 0.929 . S
H718 C700 0.928 . S
H719 C702 0.932 . S
C720 C721 1.264 . S
C720 C725 1.479 . S
C720 C730 1.465 . S
C721 C720 1.264 . S
C721 C723 1.339 . S
C721 H748 0.931 . S
C722 C723 1.395 . S
C722 C724 1.320 . S
C723 C721 1.339 . S
C723 C722 1.395 . S
C723 H749 0.929 . S
C724 C722 1.320 . S
C724 C725 1.405 . S
C724 H750 0.930 . S
C725 C720 1.479 . S
C725 C724 1.405 . S
C725 H751 0.931 . S
U726 O727 2.454 . S
U726 O728 2.458 . S
U726 C729 2.984 . S
U726 C730 2.847 . S
U726 C743 2.882 . S
U726 O744 2.441 . S
U726 O745 2.420 . S
U726 O746 2.455 . S
U726 O747 2.449 . S
O727 U726 2.454 . S
O727 C729 1.353 . S
O728 U726 2.458 . S
O728 C729 1.286 . S
C729 U726 2.984 . S
C729 O727 1.353 . S
C729 O728 1.286 . S
C729 C731 1.363 . S
C730 C720 1.465 . S
C730 U726 2.847 . S
C730 O744 1.249 . S
C730 O745 1.202 . S
C731 C729 1.363 . S
C731 C733 1.408 . S
C731 C736 1.342 . S
C732 C733 1.310 . S
C732 C735 1.461 . S
C732 H752 0.932 . S
C733 C731 1.408 . S
C733 C732 1.310 . S
C733 H753 0.930 . S
C734 C735 1.474 . S
C734 C736 1.285 . S
C734 H754 0.929 . S
C735 C732 1.461 . S
C735 C734 1.474 . S
C736 C731 1.342 . S
C736 C734 1.285 . S
C736 H755 0.930 . S
C737 C740 1.424 . S
C737 C742 1.245 . S
C737 C743 1.428 . S
C738 C741 1.260 . S
C738 C742 1.477 . S
C738 H756 0.932 . S
C739 C740 1.384 . S
C739 C741 1.479 . S
C739 H757 0.929 . S
C740 C737 1.424 . S
C740 C739 1.384 . S
C740 H758 0.928 . S
C741 C738 1.260 . S
C741 C739 1.479 . S
C742 C737 1.245 . S
C742 C738 1.477 . S
C742 H759 0.932 . S
C743 U726 2.882 . S
C743 C737 1.428 . S
C743 O746 1.301 . S
C743 O747 1.282 . S
O744 U726 2.441 . S
O744 C730 1.249 . S
O745 U726 2.420 . S
O745 C730 1.202 . S
O746 U726 2.455 . S
O746 C743 1.301 . S
O747 U726 2.449 . S
O747 C743 1.282 . S
H748 C721 0.931 . S
H749 C723 0.929 . S
H750 C724 0.930 . S
H751 C725 0.931 . S
H752 C732 0.932 . S
H753 C733 0.930 . S
H754 C734 0.929 . S
H755 C736 0.930 . S
H756 C738 0.932 . S
H757 C739 0.929 . S
H758 C740 0.928 . S
H759 C742 0.932 . S
C760 C761 1.264 . S
C760 C765 1.457 1_556 S
C760 C770 1.465 . S
C761 C760 1.264 . S
C761 C763 1.339 . S
C761 H788 0.931 . S
C762 C763 1.395 1_554 S
C762 C764 1.320 . S
C763 C761 1.339 . S
C763 C762 1.395 1_556 S
C763 H789 0.929 . S
C764 C762 1.320 . S
C764 C765 1.434 . S
C764 H790 0.930 . S
C765 C760 1.457 1_554 S
C765 C764 1.434 . S
C765 H791 0.931 . S
U766 O767 2.454 . S
U766 O768 2.458 . S
U766 C769 2.984 . S
U766 C770 2.847 . S
U766 C783 2.882 . S
U766 O784 2.441 . S
U766 O785 2.420 . S
U766 O786 2.455 . S
U766 O787 2.449 . S
O767 U766 2.454 . S
O767 C769 1.353 . S
O768 U766 2.458 . S
O768 C769 1.286 . S
C769 U766 2.984 . S
C769 O767 1.353 . S
C769 O768 1.286 . S
C769 C771 1.360 1_556 S
C770 C760 1.465 . S
C770 U766 2.847 . S
C770 O784 1.249 . S
C770 O785 1.202 . S
C771 C769 1.360 1_554 S
C771 C773 1.418 . S
C771 C776 1.338 . S
C772 C773 1.310 . S
C772 C775 1.461 . S
C772 H792 0.932 . S
C773 C771 1.418 . S
C773 C772 1.310 . S
C773 H793 0.930 . S
C774 C775 1.474 . S
C774 C776 1.285 . S
C774 H794 0.929 . S
C775 C772 1.461 . S
C775 C774 1.474 . S
C776 C771 1.338 . S
C776 C774 1.285 . S
C776 H795 0.930 . S
C777 C780 1.424 . S
C777 C782 1.245 . S
C777 C783 1.428 . S
C778 C781 1.260 . S
C778 C782 1.477 . S
C778 H796 0.932 . S
C779 C780 1.384 . S
C779 C781 1.479 . S
C779 H797 0.929 . S
C780 C777 1.424 . S
C780 C779 1.384 . S
C780 H798 0.928 . S
C781 C778 1.260 . S
C781 C779 1.479 . S
C782 C777 1.245 . S
C782 C778 1.477 . S
C782 H799 0.932 . S
C783 U766 2.882 . S
C783 C777 1.428 . S
C783 O786 1.301 . S
C783 O787 1.282 . S
O784 U766 2.441 . S
O784 C770 1.249 . S
O785 U766 2.420 . S
O785 C770 1.202 . S
O786 U766 2.455 . S
O786 C783 1.301 . S
O787 U766 2.449 . S
O787 C783 1.282 . S
H788 C761 0.931 . S
H789 C763 0.929 . S
H790 C764 0.930 . S
H791 C765 0.931 . S
H792 C772 0.932 . S
H793 C773 0.930 . S
H794 C774 0.929 . S
H795 C776 0.930 . S
H796 C778 0.932 . S
H797 C779 0.929 . S
H798 C780 0.928 . S
H799 C782 0.932 . S
C800 C801 1.264 . S
C800 C805 1.479 . S
C800 C810 1.465 . S
C801 C800 1.264 . S
C801 C803 1.339 . S
C801 H828 0.931 . S
C802 C803 1.395 . S
C802 C804 1.320 . S
C803 C801 1.339 . S
C803 C802 1.395 . S
C803 H829 0.929 . S
C804 C802 1.320 . S
C804 C805 1.405 . S
C804 H830 0.930 . S
C805 C800 1.479 . S
C805 C804 1.405 . S
C805 H831 0.931 . S
U806 O807 2.454 . S
U806 O808 2.458 . S
U806 C809 2.984 . S
U806 C810 2.847 . S
U806 C823 2.882 . S
U806 O824 2.441 . S
U806 O825 2.420 . S
U806 O826 2.455 . S
U806 O827 2.449 . S
O807 U806 2.454 . S
O807 C809 1.353 . S
O808 U806 2.458 . S
O808 C809 1.286 . S
C809 U806 2.984 . S
C809 O807 1.353 . S
C809 O808 1.286 . S
C809 C811 1.363 . S
C810 C800 1.465 . S
C810 U806 2.847 . S
C810 O824 1.249 . S
C810 O825 1.202 . S
C811 C809 1.363 . S
C811 C813 1.408 . S
C811 C816 1.342 . S
C812 C813 1.310 . S
C812 C815 1.461 . S
C812 H832 0.932 . S
C813 C811 1.408 . S
C813 C812 1.310 . S
C813 H833 0.930 . S
C814 C815 1.474 . S
C814 C816 1.285 . S
C814 H834 0.929 . S
C815 C812 1.461 . S
C815 C814 1.474 . S
C816 C811 1.342 . S
C816 C814 1.285 . S
C816 H835 0.930 . S
C817 C820 1.424 . S
C817 C822 1.245 . S
C817 C823 1.428 . S
C818 C821 1.260 . S
C818 C822 1.477 . S
C818 H836 0.932 . S
C819 C820 1.384 . S
C819 C821 1.479 . S
C819 H837 0.929 . S
C820 C817 1.424 . S
C820 C819 1.384 . S
C820 H838 0.928 . S
C821 C818 1.260 . S
C821 C819 1.479 . S
C822 C817 1.245 . S
C822 C818 1.477 . S
C822 H839 0.932 . S
C823 U806 2.882 . S
C823 C817 1.428 . S
C823 O826 1.301 . S
C823 O827 1.282 . S
O824 U806 2.441 . S
O824 C810 1.249 . S
O825 U806 2.420 . S
O825 C810 1.202 . S
O826 U806 2.455 . S
O826 C823 1.301 . S
O827 U806 2.449 . S
O827 C823 1.282 . S
H828 C801 0.931 . S
H829 C803 0.929 . S
H830 C804 0.930 . S
H831 C805 0.931 . S
H832 C812 0.932 . S
H833 C813 0.930 . S
H834 C814 0.929 . S
H835 C816 0.930 . S
H836 C818 0.932 . S
H837 C819 0.929 . S
H838 C820 0.928 . S
H839 C822 0.932 . S
C840 C841 1.264 . S
C840 C845 1.479 . S
C840 C850 1.457 1_655 S
C841 C840 1.264 . S
C841 C843 1.339 . S
C841 H868 0.931 1_655 S
C842 C843 1.395 . S
C842 C844 1.320 . S
C843 C841 1.339 . S
C843 C842 1.395 . S
C843 H869 0.929 . S
C844 C842 1.320 . S
C844 C845 1.405 . S
C844 H870 0.930 . S
C845 C840 1.479 . S
C845 C844 1.405 . S
C845 H871 0.931 . S
U846 O847 2.454 1_455 S
U846 O848 2.458 . S
U846 C849 2.984 1_455 S
U846 C850 2.852 . S
U846 C863 2.882 . S
U846 O864 2.441 1_455 S
U846 O865 2.420 . S
U846 O866 2.455 . S
U846 O867 2.449 . S
O847 U846 2.454 1_655 S
O847 C849 1.353 . S
O848 U846 2.458 . S
O848 C849 1.286 1_455 S
C849 U846 2.984 1_655 S
C849 O847 1.353 . S
C849 O848 1.286 1_655 S
C849 C851 1.363 . S
C850 C840 1.457 1_455 S
C850 U846 2.852 . S
C850 O864 1.245 1_455 S
C850 O865 1.214 . S
C851 C849 1.363 . S
C851 C853 1.408 . S
C851 C856 1.342 . S
C852 C853 1.310 . S
C852 C855 1.461 . S
C852 H872 0.932 . S
C853 C851 1.408 . S
C853 C852 1.310 . S
C853 H873 0.930 . S
C854 C855 1.474 . S
C854 C856 1.285 . S
C854 H874 0.929 . S
C855 C852 1.461 . S
C855 C854 1.474 . S
C856 C851 1.342 . S
C856 C854 1.285 . S
C856 H875 0.930 . S
C857 C860 1.424 . S
C857 C862 1.245 . S
C857 C863 1.428 . S
C858 C861 1.260 . S
C858 C862 1.477 . S
C858 H876 0.932 . S
C859 C860 1.384 . S
C859 C861 1.479 . S
C859 H877 0.929 . S
C860 C857 1.424 . S
C860 C859 1.384 . S
C860 H878 0.928 . S
C861 C858 1.260 . S
C861 C859 1.479 . S
C862 C857 1.245 . S
C862 C858 1.477 . S
C862 H879 0.932 . S
C863 U846 2.882 . S
C863 C857 1.428 . S
C863 O866 1.301 . S
C863 O867 1.282 . S
O864 U846 2.441 1_655 S
O864 C850 1.245 1_655 S
O865 U846 2.420 . S
O865 C850 1.214 . S
O866 U846 2.455 . S
O866 C863 1.301 . S
O867 U846 2.449 . S
O867 C863 1.282 . S
H868 C841 0.931 1_455 S
H869 C843 0.929 . S
H870 C844 0.930 . S
H871 C845 0.931 . S
H872 C852 0.932 . S
H873 C853 0.930 . S
H874 C854 0.929 . S
H875 C856 0.930 . S
H876 C858 0.932 . S
H877 C859 0.929 . S
H878 C860 0.928 . S
H879 C862 0.932 . S
C880 C881 1.264 . S
C880 C885 1.479 . S
C880 C890 1.465 . S
C881 C880 1.264 . S
C881 C883 1.339 . S
C881 H908 0.931 . S
C882 C883 1.395 . S
C882 C884 1.320 . S
C883 C881 1.339 . S
C883 C882 1.395 . S
C883 H909 0.929 . S
C884 C882 1.320 . S
C884 C885 1.405 . S
C884 H910 0.930 . S
C885 C880 1.479 . S
C885 C884 1.405 . S
C885 H911 0.931 . S
U886 O887 2.454 . S
U886 O888 2.458 . S
U886 C889 2.984 . S
U886 C890 2.847 . S
U886 C903 2.882 . S
U886 O904 2.441 . S
U886 O905 2.420 . S
U886 O906 2.455 . S
U886 O907 2.449 . S
O887 U886 2.454 . S
O887 C889 1.353 . S
O888 U886 2.458 . S
O888 C889 1.286 . S
C889 U886 2.984 . S
C889 O887 1.353 . S
C889 O888 1.286 . S
C889 C891 1.363 . S
C890 C880 1.465 . S
C890 U886 2.847 . S
C890 O904 1.249 . S
C890 O905 1.202 . S
C891 C889 1.363 . S
C891 C893 1.408 . S
C891 C896 1.342 . S
C892 C893 1.310 . S
C892 C895 1.461 . S
C892 H912 0.932 . S
C893 C891 1.408 . S
C893 C892 1.310 . S
C893 H913 0.930 . S
C894 C895 1.474 . S
C894 C896 1.285 . S
C894 H914 0.929 . S
C895 C892 1.461 . S
C895 C894 1.474 . S
C896 C891 1.342 . S
C896 C894 1.285 . S
C896 H915 0.930 . S
C897 C900 1.424 . S
C897 C902 1.245 . S
C897 C903 1.428 . S
C898 C901 1.260 . S
C898 C902 1.477 . S
C898 H916 0.932 . S
C899 C900 1.384 . S
C899 C901 1.479 . S
C899 H917 0.929 . S
C900 C897 1.424 . S
C900 C899 1.384 . S
C900 H918 0.928 . S
C901 C898 1.260 . S
C901 C899 1.479 . S
C902 C897 1.245 . S
C902 C898 1.477 . S
C902 H919 0.932 . S
C903 U886 2.882 . S
C903 C897 1.428 . S
C903 O906 1.301 . S
C903 O907 1.282 . S
O904 U886 2.441 . S
O904 C890 1.249 . S
O905 U886 2.420 . S
O905 C890 1.202 . S
O906 U886 2.455 . S
O906 C903 1.301 . S
O907 U886 2.449 . S
O907 C903 1.282 . S
H908 C881 0.931 . S
H909 C883 0.929 . S
H910 C884 0.930 . S
H911 C885 0.931 . S
H912 C892 0.932 . S
H913 C893 0.930 . S
H914 C894 0.929 . S
H915 C896 0.930 . S
H916 C898 0.932 . S
H917 C899 0.929 . S
H918 C900 0.928 . S
H919 C902 0.932 . S
C920 C921 1.264 . S
C920 C925 1.457 1_655 S
C920 C930 1.465 . S
C921 C920 1.264 . S
C921 C923 1.339 . S
C921 H948 0.931 . S
C922 C923 1.395 1_455 S
C922 C924 1.320 . S
C923 C921 1.339 . S
C923 C922 1.395 1_655 S
C923 H949 0.929 . S
C924 C922 1.320 . S
C924 C925 1.434 . S
C924 H950 0.930 . S
C925 C920 1.457 1_455 S
C925 C924 1.434 . S
C925 H951 0.931 . S
U926 O927 2.454 . S
U926 O928 2.458 . S
U926 C929 2.984 . S
U926 C930 2.847 . S
U926 C943 2.882 . S
U926 O944 2.441 . S
U926 O945 2.420 . S
U926 O946 2.455 . S
U926 O947 2.449 . S
O927 U926 2.454 . S
O927 C929 1.353 . S
O928 U926 2.458 . S
O928 C929 1.286 . S
C929 U926 2.984 . S
C929 O927 1.353 . S
C929 O928 1.286 . S
C929 C931 1.360 1_655 S
C930 C920 1.465 . S
C930 U926 2.847 . S
C930 O944 1.249 . S
C930 O945 1.202 . S
C931 C929 1.360 1_455 S
C931 C933 1.418 . S
C931 C936 1.338 . S
C932 C933 1.310 . S
C932 C935 1.461 . S
C932 H952 0.932 . S
C933 C931 1.418 . S
C933 C932 1.310 . S
C933 H953 0.930 . S
C934 C935 1.474 . S
C934 C936 1.285 . S
C934 H954 0.929 . S
C935 C932 1.461 . S
C935 C934 1.474 . S
C936 C931 1.338 . S
C936 C934 1.285 . S
C936 H955 0.930 . S
C937 C940 1.424 . S
C937 C942 1.245 . S
C937 C943 1.428 . S
C938 C941 1.260 . S
C938 C942 1.477 . S
C938 H956 0.932 . S
C939 C940 1.384 . S
C939 C941 1.479 . S
C939 H957 0.929 . S
C940 C937 1.424 . S
C940 C939 1.384 . S
C940 H958 0.928 . S
C941 C938 1.260 . S
C941 C939 1.479 . S
C942 C937 1.245 . S
C942 C938 1.477 . S
C942 H959 0.932 . S
C943 U926 2.882 . S
C943 C937 1.428 . S
C943 O946 1.301 . S
C943 O947 1.282 . S
O944 U926 2.441 . S
O944 C930 1.249 . S
O945 U926 2.420 . S
O945 C930 1.202 . S
O946 U926 2.455 . S
O946 C943 1.301 . S
O947 U926 2.449 . S
O947 C943 1.282 . S
H948 C921 0.931 . S
H949 C923 0.929 . S
H950 C924 0.930 . S
H951 C925 0.931 . S
H952 C932 0.932 . S
H953 C933 0.930 . S
H954 C934 0.929 . S
H955 C936 0.930 . S
H956 C938 0.932 . S
H957 C939 0.929 . S
H958 C940 0.928 . S
H959 C942 0.932 . S
H960 C961 0.949 . S
C961 H960 0.949 . S
C961 C962 1.395 . S
C961 C963 1.391 . S
C962 C961 1.395 . S
C962 C965 1.390 . S
C963 C961 1.391 . S
C963 C967 1.387 . S
C963 C968 1.491 . S
H964 C965 0.950 . S
C965 C962 1.390 . S
C965 H964 0.950 . S
C965 C966 1.378 . S
C966 C965 1.378 . S
C966 C967 1.409 . S
C967 C963 1.387 . S
C967 C966 1.409 . S
C967 H969 0.951 . S
C968 C963 1.491 . S
C968 C970 1.382 . S
C968 C972 1.404 . S
H969 C967 0.951 . S
C970 C968 1.382 . S
C970 C971 1.390 . S
C970 H975 0.949 . S
C971 C970 1.390 . S
C971 C976 1.399 . S
C972 C968 1.404 . S
C972 H973 0.950 . S
C972 C974 1.375 . S
H973 C972 0.950 . S
C974 C972 1.375 . S
C974 C976 1.382 . S
C974 H978 0.950 . S
H975 C970 0.949 . S
C976 C971 1.399 . S
C976 C974 1.382 . S
C976 H977 0.952 . S
H977 C976 0.952 . S
H978 C974 0.950 . S
H979 C980 0.949 . S
C980 H979 0.949 . S
C980 C981 1.395 . S
C980 C982 1.391 1_556 S
C981 C980 1.395 . S
C981 C984 1.390 . S
C982 C980 1.391 1_554 S
C982 C986 1.387 . S
C982 C987 1.491 . S
H983 C984 0.950 . S
C984 C981 1.390 . S
C984 H983 0.950 . S
C984 C985 1.378 1_556 S
C985 C984 1.378 1_554 S
C985 C986 1.409 . S
C986 C982 1.387 . S
C986 C985 1.409 . S
C986 H988 0.951 . S
C987 C982 1.491 . S
C987 C989 1.382 . S
C987 C991 1.404 . S
H988 C986 0.951 . S
C989 C987 1.382 . S
C989 C990 1.390 . S
C989 H994 0.946 1_554 S
C990 C989 1.390 . S
C990 C995 1.399 . S
C991 C987 1.404 . S
C991 H992 0.950 . S
C991 C993 1.375 . S
H992 C991 0.950 . S
C993 C991 1.375 . S
C993 C995 1.382 . S
C993 H997 0.950 . S
H994 C989 0.946 1_556 S
C995 C990 1.399 . S
C995 C993 1.382 . S
C995 H996 0.952 . S
H996 C995 0.952 . S
H997 C993 0.950 . S
H998 C999 0.949 . S
C999 H998 0.949 . S
C999 C1000 1.395 . S
C999 C1001 1.391 . S
C1000 C999 1.395 . S
C1000 C1003 1.390 . S
C1001 C999 1.391 . S
C1001 C1005 1.387 . S
C1001 C1006 1.491 . S
H1002 C1003 0.950 . S
C1003 C1000 1.390 . S
C1003 H1002 0.950 . S
C1003 C1004 1.378 . S
C1004 C1003 1.378 . S
C1004 C1005 1.409 . S
C1005 C1001 1.387 . S
C1005 C1004 1.409 . S
C1005 H1007 0.951 . S
C1006 C1001 1.491 . S
C1006 C1008 1.382 . S
C1006 C1010 1.404 . S
H1007 C1005 0.951 . S
C1008 C1006 1.382 . S
C1008 C1009 1.390 . S
C1008 H1013 0.949 . S
C1009 C1008 1.390 . S
C1009 C1014 1.399 . S
C1010 C1006 1.404 . S
C1010 H1011 0.950 . S
C1010 C1012 1.375 . S
H1011 C1010 0.950 . S
C1012 C1010 1.375 . S
C1012 C1014 1.382 . S
C1012 H1016 0.950 . S
H1013 C1008 0.949 . S
C1014 C1009 1.399 . S
C1014 C1012 1.382 . S
C1014 H1015 0.952 . S
H1015 C1014 0.952 . S
H1016 C1012 0.950 . S
H1017 C1018 0.949 . S
C1018 H1017 0.949 . S
C1018 C1019 1.395 . S
C1018 C1020 1.391 1_554 S
C1019 C1018 1.395 . S
C1019 C1022 1.390 . S
C1020 C1018 1.391 1_556 S
C1020 C1024 1.387 . S
C1020 C1025 1.491 . S
H1021 C1022 0.950 . S
C1022 C1019 1.390 . S
C1022 H1021 0.950 . S
C1022 C1023 1.378 1_554 S
C1023 C1022 1.378 1_556 S
C1023 C1024 1.409 . S
C1024 C1020 1.387 . S
C1024 C1023 1.409 . S
C1024 H1026 0.951 . S
C1025 C1020 1.491 . S
C1025 C1027 1.382 . S
C1025 C1029 1.404 . S
H1026 C1024 0.951 . S
C1027 C1025 1.382 . S
C1027 C1028 1.390 . S
C1027 H1032 0.949 1_556 S
C1028 C1027 1.390 . S
C1028 C1033 1.399 . S
C1029 C1025 1.404 . S
C1029 H1030 0.950 . S
C1029 C1031 1.375 . S
H1030 C1029 0.950 . S
C1031 C1029 1.375 . S
C1031 C1033 1.382 . S
C1031 H1035 0.950 . S
H1032 C1027 0.949 1_554 S
C1033 C1028 1.399 . S
C1033 C1031 1.382 . S
C1033 H1034 0.952 . S
H1034 C1033 0.952 . S
H1035 C1031 0.950 . S
H1036 C1037 0.949 . S
C1037 H1036 0.949 . S
C1037 C1038 1.395 . S
C1037 C1039 1.391 . S
C1038 C1037 1.395 . S
C1038 C1041 1.390 . S
C1039 C1037 1.391 . S
C1039 C1043 1.387 . S
C1039 C1044 1.491 . S
H1040 C1041 0.950 . S
C1041 C1038 1.390 . S
C1041 H1040 0.950 . S
C1041 C1042 1.378 . S
C1042 C1041 1.378 . S
C1042 C1043 1.409 . S
C1043 C1039 1.387 . S
C1043 C1042 1.409 . S
C1043 H1045 0.951 . S
C1044 C1039 1.491 . S
C1044 C1046 1.382 . S
C1044 C1048 1.404 . S
H1045 C1043 0.951 . S
C1046 C1044 1.382 . S
C1046 C1047 1.390 . S
C1046 H1051 0.949 . S
C1047 C1046 1.390 . S
C1047 C1052 1.399 . S
C1048 C1044 1.404 . S
C1048 H1049 0.950 . S
C1048 C1050 1.375 . S
H1049 C1048 0.950 . S
C1050 C1048 1.375 . S
C1050 C1052 1.382 . S
C1050 H1054 0.950 . S
H1051 C1046 0.949 . S
C1052 C1047 1.399 . S
C1052 C1050 1.382 . S
C1052 H1053 0.952 . S
H1053 C1052 0.952 . S
H1054 C1050 0.950 . S
H1055 C1056 0.949 . S
C1056 H1055 0.949 . S
C1056 C1057 1.395 . S
C1056 C1058 1.391 1_455 S
C1057 C1056 1.395 . S
C1057 C1060 1.390 . S
C1058 C1056 1.391 1_655 S
C1058 C1062 1.387 . S
C1058 C1063 1.491 . S
H1059 C1060 0.950 . S
C1060 C1057 1.390 . S
C1060 H1059 0.950 . S
C1060 C1061 1.378 1_455 S
C1061 C1060 1.378 1_655 S
C1061 C1062 1.409 . S
C1062 C1058 1.387 . S
C1062 C1061 1.409 . S
C1062 H1064 0.951 . S
C1063 C1058 1.491 . S
C1063 C1065 1.382 . S
C1063 C1067 1.404 . S
H1064 C1062 0.951 . S
C1065 C1063 1.382 . S
C1065 C1066 1.390 . S
C1065 H1070 0.949 1_655 S
C1066 C1065 1.390 . S
C1066 C1071 1.399 . S
C1067 C1063 1.404 . S
C1067 H1068 0.950 . S
C1067 C1069 1.375 . S
H1068 C1067 0.950 . S
C1069 C1067 1.375 . S
C1069 C1071 1.382 . S
C1069 H1073 0.950 . S
H1070 C1065 0.949 1_455 S
C1071 C1066 1.399 . S
C1071 C1069 1.382 . S
C1071 H1072 0.952 . S
H1072 C1071 0.952 . S
H1073 C1069 0.950 . S
H1074 C1075 0.949 . S
C1075 H1074 0.949 . S
C1075 C1076 1.395 . S
C1075 C1077 1.391 1_655 S
C1076 C1075 1.395 . S
C1076 C1079 1.390 . S
C1077 C1075 1.391 1_455 S
C1077 C1081 1.387 . S
C1077 C1082 1.491 . S
H1078 C1079 0.950 . S
C1079 C1076 1.390 . S
C1079 H1078 0.950 . S
C1079 C1080 1.378 1_655 S
C1080 C1079 1.378 1_455 S
C1080 C1081 1.409 . S
C1081 C1077 1.387 . S
C1081 C1080 1.409 . S
C1081 H1083 0.951 . S
C1082 C1077 1.491 . S
C1082 C1084 1.382 . S
C1082 C1086 1.404 . S
H1083 C1081 0.951 . S
C1084 C1082 1.382 . S
C1084 C1085 1.390 . S
C1084 H1089 0.946 1_455 S
C1085 C1084 1.390 . S
C1085 C1090 1.399 . S
C1086 C1082 1.404 . S
C1086 H1087 0.950 . S
C1086 C1088 1.375 . S
H1087 C1086 0.950 . S
C1088 C1086 1.375 . S
C1088 C1090 1.382 . S
C1088 H1092 0.950 . S
H1089 C1084 0.946 1_655 S
C1090 C1085 1.399 . S
C1090 C1088 1.382 . S
C1090 H1091 0.952 . S
H1091 C1090 0.952 . S
H1092 C1088 0.950 . S
H1093 C1094 0.949 . S
C1094 H1093 0.949 . S
C1094 C1095 1.395 . S
C1094 C1096 1.391 . S
C1095 C1094 1.395 . S
C1095 C1098 1.390 . S
C1096 C1094 1.391 . S
C1096 C1100 1.387 . S
C1096 C1101 1.491 . S
H1097 C1098 0.950 . S
C1098 C1095 1.390 . S
C1098 H1097 0.950 . S
C1098 C1099 1.378 . S
C1099 C1098 1.378 . S
C1099 C1100 1.409 . S
C1100 C1096 1.387 . S
C1100 C1099 1.409 . S
C1100 H1102 0.951 . S
C1101 C1096 1.491 . S
C1101 C1103 1.382 . S
C1101 C1105 1.404 . S
H1102 C1100 0.951 . S
C1103 C1101 1.382 . S
C1103 C1104 1.390 . S
C1103 H1108 0.949 . S
C1104 C1103 1.390 . S
C1104 C1109 1.399 . S
C1105 C1101 1.404 . S
C1105 H1106 0.950 . S
C1105 C1107 1.375 . S
H1106 C1105 0.950 . S
C1107 C1105 1.375 . S
C1107 C1109 1.382 . S
C1107 H1111 0.950 . S
H1108 C1103 0.949 . S
C1109 C1104 1.399 . S
C1109 C1107 1.382 . S
C1109 H1110 0.952 . S
H1110 C1109 0.952 . S
H1111 C1107 0.950 . S
H1112 C1113 0.949 . S
C1113 H1112 0.949 . S
C1113 C1114 1.395 . S
C1113 C1115 1.391 . S
C1114 C1113 1.395 . S
C1114 C1117 1.390 . S
C1115 C1113 1.391 . S
C1115 C1119 1.387 . S
C1115 C1120 1.491 . S
H1116 C1117 0.950 . S
C1117 C1114 1.390 . S
C1117 H1116 0.950 . S
C1117 C1118 1.378 . S
C1118 C1117 1.378 . S
C1118 C1119 1.409 . S
C1119 C1115 1.387 . S
C1119 C1118 1.409 . S
C1119 H1121 0.951 . S
C1120 C1115 1.491 . S
C1120 C1122 1.382 . S
C1120 C1124 1.404 . S
H1121 C1119 0.951 . S
C1122 C1120 1.382 . S
C1122 C1123 1.390 . S
C1122 H1127 0.949 . S
C1123 C1122 1.390 . S
C1123 C1128 1.399 . S
C1124 C1120 1.404 . S
C1124 H1125 0.950 . S
C1124 C1126 1.375 . S
H1125 C1124 0.950 . S
C1126 C1124 1.375 . S
C1126 C1128 1.382 . S
C1126 H1130 0.950 . S
H1127 C1122 0.949 . S
C1128 C1123 1.399 . S
C1128 C1126 1.382 . S
C1128 H1129 0.952 . S
H1129 C1128 0.952 . S
H1130 C1126 0.950 . S
H1131 C1132 0.949 . S
C1132 H1131 0.949 . S
C1132 C1133 1.395 . S
C1132 C1134 1.391 1_545 S
C1133 C1132 1.395 . S
C1133 C1136 1.390 . S
C1134 C1132 1.391 1_565 S
C1134 C1138 1.387 . S
C1134 C1139 1.491 . S
H1135 C1136 0.950 . S
C1136 C1133 1.390 . S
C1136 H1135 0.950 . S
C1136 C1137 1.378 1_545 S
C1137 C1136 1.378 1_565 S
C1137 C1138 1.409 . S
C1138 C1134 1.387 . S
C1138 C1137 1.409 . S
C1138 H1140 0.951 . S
C1139 C1134 1.491 . S
C1139 C1141 1.382 . S
C1139 C1143 1.404 . S
H1140 C1138 0.951 . S
C1141 C1139 1.382 . S
C1141 C1142 1.390 . S
C1141 H1146 0.949 1_565 S
C1142 C1141 1.390 . S
C1142 C1147 1.399 . S
C1143 C1139 1.404 . S
C1143 H1144 0.950 . S
C1143 C1145 1.375 . S
H1144 C1143 0.950 . S
C1145 C1143 1.375 . S
C1145 C1147 1.382 . S
C1145 H1149 0.950 . S
H1146 C1141 0.949 1_545 S
C1147 C1142 1.399 . S
C1147 C1145 1.382 . S
C1147 H1148 0.952 . S
H1148 C1147 0.952 . S
H1149 C1145 0.950 . S
H1150 C1151 0.949 . S
C1151 H1150 0.949 . S
C1151 C1152 1.395 . S
C1151 C1153 1.391 1_565 S
C1152 C1151 1.395 . S
C1152 C1155 1.390 . S
C1153 C1151 1.391 1_545 S
C1153 C1157 1.387 . S
C1153 C1158 1.491 . S
H1154 C1155 0.950 . S
C1155 C1152 1.390 . S
C1155 H1154 0.950 . S
C1155 C1156 1.378 1_565 S
C1156 C1155 1.378 1_545 S
C1156 C1157 1.409 . S
C1157 C1153 1.387 . S
C1157 C1156 1.409 . S
C1157 H1159 0.951 . S
C1158 C1153 1.491 . S
C1158 C1160 1.382 . S
C1158 C1162 1.404 . S
H1159 C1157 0.951 . S
C1160 C1158 1.382 . S
C1160 C1161 1.390 . S
C1160 H1165 0.946 1_545 S
C1161 C1160 1.390 . S
C1161 C1166 1.399 . S
C1162 C1158 1.404 . S
C1162 H1163 0.950 . S
C1162 C1164 1.375 . S
H1163 C1162 0.950 . S
C1164 C1162 1.375 . S
C1164 C1166 1.382 . S
C1164 H1168 0.950 . S
H1165 C1160 0.946 1_565 S
C1166 C1161 1.399 . S
C1166 C1164 1.382 . S
C1166 H1167 0.952 . S
H1167 C1166 0.952 . S
H1168 C1164 0.950 . S
H1169 C1170 0.949 . S
C1170 H1169 0.949 . S
C1170 C1171 1.395 . S
C1170 C1172 1.391 . S
C1171 C1170 1.395 . S
C1171 C1174 1.390 . S
C1172 C1170 1.391 . S
C1172 C1176 1.387 . S
C1172 C1177 1.491 . S
H1173 C1174 0.950 . S
C1174 C1171 1.390 . S
C1174 H1173 0.950 . S
C1174 C1175 1.378 . S
C1175 C1174 1.378 . S
C1175 C1176 1.409 . S
C1176 C1172 1.387 . S
C1176 C1175 1.409 . S
C1176 H1178 0.951 . S
C1177 C1172 1.491 . S
C1177 C1179 1.382 . S
C1177 C1181 1.404 . S
H1178 C1176 0.951 . S
C1179 C1177 1.382 . S
C1179 C1180 1.390 . S
C1179 H1184 0.949 . S
C1180 C1179 1.390 . S
C1180 C1185 1.399 . S
C1181 C1177 1.404 . S
C1181 H1182 0.950 . S
C1181 C1183 1.375 . S
H1182 C1181 0.950 . S
C1183 C1181 1.375 . S
C1183 C1185 1.382 . S
C1183 H1187 0.950 . S
H1184 C1179 0.949 . S
C1185 C1180 1.399 . S
C1185 C1183 1.382 . S
C1185 H1186 0.952 . S
H1186 C1185 0.952 . S
H1187 C1183 0.950 . S
H1188 C1189 0.949 . S
C1189 H1188 0.949 . S
C1189 C1190 1.395 . S
C1189 C1191 1.391 . S
C1190 C1189 1.395 . S
C1190 C1193 1.390 . S
C1191 C1189 1.391 . S
C1191 C1195 1.387 . S
C1191 C1196 1.491 . S
H1192 C1193 0.950 . S
C1193 C1190 1.390 . S
C1193 H1192 0.950 . S
C1193 C1194 1.378 . S
C1194 C1193 1.378 . S
C1194 C1195 1.409 . S
C1195 C1191 1.387 . S
C1195 C1194 1.409 . S
C1195 H1197 0.951 . S
C1196 C1191 1.491 . S
C1196 C1198 1.382 . S
C1196 C1200 1.404 . S
H1197 C1195 0.951 . S
C1198 C1196 1.382 . S
C1198 C1199 1.390 . S
C1198 H1203 0.949 . S
C1199 C1198 1.390 . S
C1199 C1204 1.399 . S
C1200 C1196 1.404 . S
C1200 H1201 0.950 . S
C1200 C1202 1.375 . S
H1201 C1200 0.950 . S
C1202 C1200 1.375 . S
C1202 C1204 1.382 . S
C1202 H1206 0.950 . S
H1203 C1198 0.949 . S
C1204 C1199 1.399 . S
C1204 C1202 1.382 . S
C1204 H1205 0.952 . S
H1205 C1204 0.952 . S
H1206 C1202 0.950 . S
H1207 C1208 0.949 . S
C1208 H1207 0.949 . S
C1208 C1209 1.395 . S
C1208 C1210 1.391 1_554 S
C1209 C1208 1.395 . S
C1209 C1212 1.390 . S
C1210 C1208 1.391 1_556 S
C1210 C1214 1.387 . S
C1210 C1215 1.491 . S
H1211 C1212 0.950 . S
C1212 C1209 1.390 . S
C1212 H1211 0.950 . S
C1212 C1213 1.378 1_554 S
C1213 C1212 1.378 1_556 S
C1213 C1214 1.409 . S
C1214 C1210 1.387 . S
C1214 C1213 1.409 . S
C1214 H1216 0.951 . S
C1215 C1210 1.491 . S
C1215 C1217 1.382 . S
C1215 C1219 1.404 . S
H1216 C1214 0.951 . S
C1217 C1215 1.382 . S
C1217 C1218 1.390 . S
C1217 H1222 0.949 1_556 S
C1218 C1217 1.390 . S
C1218 C1223 1.399 . S
C1219 C1215 1.404 . S
C1219 H1220 0.950 . S
C1219 C1221 1.375 . S
H1220 C1219 0.950 . S
C1221 C1219 1.375 . S
C1221 C1223 1.382 . S
C1221 H1225 0.950 . S
H1222 C1217 0.949 1_554 S
C1223 C1218 1.399 . S
C1223 C1221 1.382 . S
C1223 H1224 0.952 . S
H1224 C1223 0.952 . S
H1225 C1221 0.950 . S
H1226 C1227 0.949 . S
C1227 H1226 0.949 . S
C1227 C1228 1.395 . S
C1227 C1229 1.391 . S
C1228 C1227 1.395 . S
C1228 C1231 1.390 . S
C1229 C1227 1.391 . S
C1229 C1233 1.387 . S
C1229 C1234 1.491 . S
H1230 C1231 0.950 . S
C1231 C1228 1.390 . S
C1231 H1230 0.950 . S
C1231 C1232 1.378 . S
C1232 C1231 1.378 . S
C1232 C1233 1.409 . S
C1233 C1229 1.387 . S
C1233 C1232 1.409 . S
C1233 H1235 0.951 . S
C1234 C1229 1.491 . S
C1234 C1236 1.382 . S
C1234 C1238 1.404 . S
H1235 C1233 0.951 . S
C1236 C1234 1.382 . S
C1236 C1237 1.390 . S
C1236 H1241 0.949 . S
C1237 C1236 1.390 . S
C1237 C1242 1.399 . S
C1238 C1234 1.404 . S
C1238 H1239 0.950 . S
C1238 C1240 1.375 . S
H1239 C1238 0.950 . S
C1240 C1238 1.375 . S
C1240 C1242 1.382 . S
C1240 H1244 0.950 . S
H1241 C1236 0.949 . S
C1242 C1237 1.399 . S
C1242 C1240 1.382 . S
C1242 H1243 0.952 . S
H1243 C1242 0.952 . S
H1244 C1240 0.950 . S
H1245 C1246 0.949 . S
C1246 H1245 0.949 . S
C1246 C1247 1.395 . S
C1246 C1248 1.391 1_556 S
C1247 C1246 1.395 . S
C1247 C1250 1.390 . S
C1248 C1246 1.391 1_554 S
C1248 C1252 1.387 . S
C1248 C1253 1.491 . S
H1249 C1250 0.950 . S
C1250 C1247 1.390 . S
C1250 H1249 0.950 . S
C1250 C1251 1.378 1_556 S
C1251 C1250 1.378 1_554 S
C1251 C1252 1.409 . S
C1252 C1248 1.387 . S
C1252 C1251 1.409 . S
C1252 H1254 0.951 . S
C1253 C1248 1.491 . S
C1253 C1255 1.382 . S
C1253 C1257 1.404 . S
H1254 C1252 0.951 . S
C1255 C1253 1.382 . S
C1255 C1256 1.390 . S
C1255 H1260 0.949 . S
C1256 C1255 1.390 . S
C1256 C1261 1.399 . S
C1257 C1253 1.404 . S
C1257 H1258 0.950 . S
C1257 C1259 1.375 . S
H1258 C1257 0.950 . S
C1259 C1257 1.375 . S
C1259 C1261 1.382 . S
C1259 H1263 0.950 . S
H1260 C1255 0.949 . S
C1261 C1256 1.399 . S
C1261 C1259 1.382 . S
C1261 H1262 0.952 . S
H1262 C1261 0.952 . S
H1263 C1259 0.950 . S
H1264 C1265 0.949 . S
C1265 H1264 0.949 . S
C1265 C1266 1.395 . S
C1265 C1267 1.391 . S
C1266 C1265 1.395 . S
C1266 C1269 1.390 . S
C1267 C1265 1.391 . S
C1267 C1271 1.387 . S
C1267 C1272 1.491 . S
H1268 C1269 0.950 . S
C1269 C1266 1.390 . S
C1269 H1268 0.950 . S
C1269 C1270 1.378 . S
C1270 C1269 1.378 . S
C1270 C1271 1.409 . S
C1271 C1267 1.387 . S
C1271 C1270 1.409 . S
C1271 H1273 0.951 . S
C1272 C1267 1.491 . S
C1272 C1274 1.382 . S
C1272 C1276 1.404 . S
H1273 C1271 0.951 . S
C1274 C1272 1.382 . S
C1274 C1275 1.390 . S
C1274 H1279 0.949 . S
C1275 C1274 1.390 . S
C1275 C1280 1.399 . S
C1276 C1272 1.404 . S
C1276 H1277 0.950 . S
C1276 C1278 1.375 . S
H1277 C1276 0.950 . S
C1278 C1276 1.375 . S
C1278 C1280 1.382 . S
C1278 H1282 0.950 . S
H1279 C1274 0.949 . S
C1280 C1275 1.399 . S
C1280 C1278 1.382 . S
C1280 H1281 0.952 . S
H1281 C1280 0.952 . S
H1282 C1278 0.950 . S
H1283 C1284 0.949 . S
C1284 H1283 0.949 . S
C1284 C1285 1.395 . S
C1284 C1286 1.391 1_655 S
C1285 C1284 1.395 . S
C1285 C1288 1.390 . S
C1286 C1284 1.391 1_455 S
C1286 C1290 1.387 . S
C1286 C1291 1.491 . S
H1287 C1288 0.950 . S
C1288 C1285 1.390 . S
C1288 H1287 0.950 . S
C1288 C1289 1.378 1_655 S
C1289 C1288 1.378 1_455 S
C1289 C1290 1.409 . S
C1290 C1286 1.387 . S
C1290 C1289 1.409 . S
C1290 H1292 0.951 . S
C1291 C1286 1.491 . S
C1291 C1293 1.382 . S
C1291 C1295 1.404 . S
H1292 C1290 0.951 . S
C1293 C1291 1.382 . S
C1293 C1294 1.390 . S
C1293 H1298 0.949 . S
C1294 C1293 1.390 . S
C1294 C1299 1.399 . S
C1295 C1291 1.404 . S
C1295 H1296 0.950 . S
C1295 C1297 1.375 . S
H1296 C1295 0.950 . S
C1297 C1295 1.375 . S
C1297 C1299 1.382 . S
C1297 H1301 0.950 . S
H1298 C1293 0.949 . S
C1299 C1294 1.399 . S
C1299 C1297 1.382 . S
C1299 H1300 0.952 . S
H1300 C1299 0.952 . S
H1301 C1297 0.950 . S
H1302 C1303 0.949 . S
C1303 H1302 0.949 . S
C1303 C1304 1.395 . S
C1303 C1305 1.391 1_455 S
C1304 C1303 1.395 . S
C1304 C1307 1.390 . S
C1305 C1303 1.391 1_655 S
C1305 C1309 1.387 . S
C1305 C1310 1.491 . S
H1306 C1307 0.950 . S
C1307 C1304 1.390 . S
C1307 H1306 0.950 . S
C1307 C1308 1.378 1_455 S
C1308 C1307 1.378 1_655 S
C1308 C1309 1.409 . S
C1309 C1305 1.387 . S
C1309 C1308 1.409 . S
C1309 H1311 0.951 . S
C1310 C1305 1.491 . S
C1310 C1312 1.382 . S
C1310 C1314 1.404 . S
H1311 C1309 0.951 . S
C1312 C1310 1.382 . S
C1312 C1313 1.390 . S
C1312 H1317 0.949 1_655 S
C1313 C1312 1.390 . S
C1313 C1318 1.399 . S
C1314 C1310 1.404 . S
C1314 H1315 0.950 . S
C1314 C1316 1.375 . S
H1315 C1314 0.950 . S
C1316 C1314 1.375 . S
C1316 C1318 1.382 . S
C1316 H1320 0.950 . S
H1317 C1312 0.949 1_455 S
C1318 C1313 1.399 . S
C1318 C1316 1.382 . S
C1318 H1319 0.952 . S
H1319 C1318 0.952 . S
H1320 C1316 0.950 . S
H1321 C1322 0.949 . S
C1322 H1321 0.949 . S
C1322 C1323 1.395 . S
C1322 C1324 1.391 . S
C1323 C1322 1.395 . S
C1323 C1326 1.390 . S
C1324 C1322 1.391 . S
C1324 C1328 1.387 . S
C1324 C1329 1.491 . S
H1325 C1326 0.950 . S
C1326 C1323 1.390 . S
C1326 H1325 0.950 . S
C1326 C1327 1.378 . S
C1327 C1326 1.378 . S
C1327 C1328 1.409 . S
C1328 C1324 1.387 . S
C1328 C1327 1.409 . S
C1328 H1330 0.951 . S
C1329 C1324 1.491 . S
C1329 C1331 1.382 . S
C1329 C1333 1.404 . S
H1330 C1328 0.951 . S
C1331 C1329 1.382 . S
C1331 C1332 1.390 . S
C1331 H1336 0.949 . S
C1332 C1331 1.390 . S
C1332 C1337 1.399 . S
C1333 C1329 1.404 . S
C1333 H1334 0.950 . S
C1333 C1335 1.375 . S
H1334 C1333 0.950 . S
C1335 C1333 1.375 . S
C1335 C1337 1.382 . S
C1335 H1339 0.950 . S
H1336 C1331 0.949 . S
C1337 C1332 1.399 . S
C1337 C1335 1.382 . S
C1337 H1338 0.952 . S
H1338 C1337 0.952 . S
H1339 C1335 0.950 . S
H1340 C1341 0.949 . S
C1341 H1340 0.949 . S
C1341 C1342 1.395 . S
C1341 C1343 1.391 . S
C1342 C1341 1.395 . S
C1342 C1345 1.390 . S
C1343 C1341 1.391 . S
C1343 C1347 1.387 . S
C1343 C1348 1.491 . S
H1344 C1345 0.950 . S
C1345 C1342 1.390 . S
C1345 H1344 0.950 . S
C1345 C1346 1.378 . S
C1346 C1345 1.378 . S
C1346 C1347 1.409 . S
C1347 C1343 1.387 . S
C1347 C1346 1.409 . S
C1347 H1349 0.951 . S
C1348 C1343 1.491 . S
C1348 C1350 1.382 . S
C1348 C1352 1.404 . S
H1349 C1347 0.951 . S
C1350 C1348 1.382 . S
C1350 C1351 1.390 . S
C1350 H1355 0.949 . S
C1351 C1350 1.390 . S
C1351 C1356 1.399 . S
C1352 C1348 1.404 . S
C1352 H1353 0.950 . S
C1352 C1354 1.375 . S
H1353 C1352 0.950 . S
C1354 C1352 1.375 . S
C1354 C1356 1.382 . S
C1354 H1358 0.950 . S
H1355 C1350 0.949 . S
C1356 C1351 1.399 . S
C1356 C1354 1.382 . S
C1356 H1357 0.952 . S
H1357 C1356 0.952 . S
H1358 C1354 0.950 . S
H1359 C1360 0.949 . S
C1360 H1359 0.949 . S
C1360 C1361 1.395 . S
C1360 C1362 1.391 1_565 S
C1361 C1360 1.395 . S
C1361 C1364 1.390 . S
C1362 C1360 1.391 1_545 S
C1362 C1366 1.387 . S
C1362 C1367 1.491 . S
H1363 C1364 0.950 . S
C1364 C1361 1.390 . S
C1364 H1363 0.950 . S
C1364 C1365 1.378 1_565 S
C1365 C1364 1.378 1_545 S
C1365 C1366 1.409 . S
C1366 C1362 1.387 . S
C1366 C1365 1.409 . S
C1366 H1368 0.951 . S
C1367 C1362 1.491 . S
C1367 C1369 1.382 . S
C1367 C1371 1.404 . S
H1368 C1366 0.951 . S
C1369 C1367 1.382 . S
C1369 C1370 1.390 . S
C1369 H1374 0.949 . S
C1370 C1369 1.390 . S
C1370 C1375 1.399 . S
C1371 C1367 1.404 . S
C1371 H1372 0.950 . S
C1371 C1373 1.375 . S
H1372 C1371 0.950 . S
C1373 C1371 1.375 . S
C1373 C1375 1.382 . S
C1373 H1377 0.950 . S
H1374 C1369 0.949 . S
C1375 C1370 1.399 . S
C1375 C1373 1.382 . S
C1375 H1376 0.952 . S
H1376 C1375 0.952 . S
H1377 C1373 0.950 . S
H1378 C1379 0.949 . S
C1379 H1378 0.949 . S
C1379 C1380 1.395 . S
C1379 C1381 1.391 1_545 S
C1380 C1379 1.395 . S
C1380 C1383 1.390 . S
C1381 C1379 1.391 1_565 S
C1381 C1385 1.387 . S
C1381 C1386 1.491 . S
H1382 C1383 0.950 . S
C1383 C1380 1.390 . S
C1383 H1382 0.950 . S
C1383 C1384 1.378 1_545 S
C1384 C1383 1.378 1_565 S
C1384 C1385 1.409 . S
C1385 C1381 1.387 . S
C1385 C1384 1.409 . S
C1385 H1387 0.951 . S
C1386 C1381 1.491 . S
C1386 C1388 1.382 . S
C1386 C1390 1.404 . S
H1387 C1385 0.951 . S
C1388 C1386 1.382 . S
C1388 C1389 1.390 . S
C1388 H1393 0.949 1_565 S
C1389 C1388 1.390 . S
C1389 C1394 1.399 . S
C1390 C1386 1.404 . S
C1390 H1391 0.950 . S
C1390 C1392 1.375 . S
H1391 C1390 0.950 . S
C1392 C1390 1.375 . S
C1392 C1394 1.382 . S
C1392 H1396 0.950 . S
H1393 C1388 0.949 1_545 S
C1394 C1389 1.399 . S
C1394 C1392 1.382 . S
C1394 H1395 0.952 . S
H1395 C1394 0.952 . S
H1396 C1392 0.950 . S
H1397 C1398 0.949 . S
C1398 H1397 0.949 . S
C1398 C1399 1.395 . S
C1398 C1400 1.391 . S
C1399 C1398 1.395 . S
C1399 C1402 1.390 . S
C1400 C1398 1.391 . S
C1400 C1404 1.387 . S
C1400 C1405 1.491 . S
H1401 C1402 0.950 . S
C1402 C1399 1.390 . S
C1402 H1401 0.950 . S
C1402 C1403 1.378 . S
C1403 C1402 1.378 . S
C1403 C1404 1.409 . S
C1404 C1400 1.387 . S
C1404 C1403 1.409 . S
C1404 H1406 0.951 . S
C1405 C1400 1.491 . S
C1405 C1407 1.382 . S
C1405 C1409 1.404 . S
H1406 C1404 0.951 . S
C1407 C1405 1.382 . S
C1407 C1408 1.390 . S
C1407 H1412 0.949 . S
C1408 C1407 1.390 . S
C1408 C1413 1.399 . S
C1409 C1405 1.404 . S
C1409 H1410 0.950 . S
C1409 C1411 1.375 . S
H1410 C1409 0.950 . S
C1411 C1409 1.375 . S
C1411 C1413 1.382 . S
C1411 H1415 0.950 . S
H1412 C1407 0.949 . S
C1413 C1408 1.399 . S
C1413 C1411 1.382 . S
C1413 H1414 0.952 . S
H1414 C1413 0.952 . S
H1415 C1411 0.950 . S
C1416 C1417 1.349 . S
C1416 C1418 1.327 . S
C1416 H1441 0.950 . S
C1417 C1416 1.349 . S
C1417 C1433 1.349 . S
C1418 C1416 1.327 . S
C1418 C1437 1.429 . S
C1418 H1442 0.950 . S
C1419 C1436 1.574 . S
C1419 C1438 1.368 . S
C1419 H1443 0.949 . S
H1420 C1424 0.949 . S
C1421 C1422 1.349 1_455 S
C1421 C1423 1.326 . S
C1421 H1444 0.951 1_455 S
C1422 C1421 1.349 1_655 S
C1422 C1434 1.349 1_655 S
C1423 C1421 1.326 . S
C1423 C1439 1.429 . S
C1423 H1445 0.950 . S
C1424 H1420 0.949 . S
C1424 C1432 1.574 . S
C1424 C1440 1.368 . S
H1425 C1433 0.950 . S
H1426 C1431 0.950 . S
H1427 C1432 0.949 . S
H1428 C1434 0.950 . S
H1429 C1435 0.950 . S
H1430 C1436 0.949 . S
C1431 H1426 0.950 . S
C1431 C1433 1.327 . S
C1431 C1437 1.429 . S
C1432 C1424 1.574 . S
C1432 H1427 0.949 . S
C1432 C1438 1.368 . S
C1433 C1417 1.349 . S
C1433 H1425 0.950 . S
C1433 C1431 1.327 . S
C1434 C1422 1.349 1_455 S
C1434 H1428 0.950 . S
C1434 C1435 1.327 . S
C1435 H1429 0.950 . S
C1435 C1434 1.327 . S
C1435 C1439 1.429 . S
C1436 C1419 1.574 . S
C1436 H1430 0.949 . S
C1436 C1440 1.368 . S
C1437 C1418 1.429 . S
C1437 C1431 1.429 . S
C1437 C1438 1.523 . S
C1438 C1419 1.368 . S
C1438 C1432 1.368 . S
C1438 C1437 1.523 . S
C1439 C1423 1.429 . S
C1439 C1435 1.429 . S
C1439 C1440 1.523 . S
C1440 C1424 1.368 . S
C1440 C1436 1.368 . S
C1440 C1439 1.523 . S
H1441 C1416 0.950 . S
H1442 C1418 0.950 . S
H1443 C1419 0.949 . S
H1444 C1421 0.951 1_655 S
H1445 C1423 0.950 . S
C1446 C1447 1.349 . S
C1446 C1448 1.327 . S
C1446 H1471 0.950 . S
C1447 C1446 1.349 . S
C1447 C1463 1.349 . S
C1448 C1446 1.327 . S
C1448 C1467 1.429 . S
C1448 H1472 0.950 . S
C1449 C1466 1.574 . S
C1449 C1468 1.368 . S
C1449 H1473 0.949 . S
H1450 C1454 0.949 . S
C1451 C1452 1.349 . S
C1451 C1453 1.327 . S
C1451 H1474 0.950 . S
C1452 C1451 1.349 . S
C1452 C1464 1.349 . S
C1453 C1451 1.327 . S
C1453 C1469 1.429 . S
C1453 H1475 0.950 . S
C1454 H1450 0.949 . S
C1454 C1462 1.574 . S
C1454 C1470 1.368 . S
H1455 C1463 0.950 . S
H1456 C1461 0.950 . S
H1457 C1462 0.949 . S
H1458 C1464 0.950 . S
H1459 C1465 0.950 . S
H1460 C1466 0.949 . S
C1461 H1456 0.950 . S
C1461 C1463 1.327 . S
C1461 C1467 1.429 . S
C1462 C1454 1.574 . S
C1462 H1457 0.949 . S
C1462 C1468 1.368 . S
C1463 C1447 1.349 . S
C1463 H1455 0.950 . S
C1463 C1461 1.327 . S
C1464 C1452 1.349 . S
C1464 H1458 0.950 . S
C1464 C1465 1.327 . S
C1465 H1459 0.950 . S
C1465 C1464 1.327 . S
C1465 C1469 1.429 . S
C1466 C1449 1.574 . S
C1466 H1460 0.949 . S
C1466 C1470 1.368 . S
C1467 C1448 1.429 . S
C1467 C1461 1.429 . S
C1467 C1468 1.523 . S
C1468 C1449 1.368 . S
C1468 C1462 1.368 . S
C1468 C1467 1.523 . S
C1469 C1453 1.429 . S
C1469 C1465 1.429 . S
C1469 C1470 1.523 . S
C1470 C1454 1.368 . S
C1470 C1466 1.368 . S
C1470 C1469 1.523 . S
H1471 C1446 0.950 . S
H1472 C1448 0.950 . S
H1473 C1449 0.949 . S
H1474 C1451 0.950 . S
H1475 C1453 0.950 . S
C1476 C1477 1.349 . S
C1476 C1478 1.327 . S
C1476 H1501 0.950 . S
C1477 C1476 1.349 . S
C1477 C1493 1.349 1_565 S
C1478 C1476 1.327 . S
C1478 C1497 1.429 . S
C1478 H1502 0.950 . S
C1479 C1496 1.574 . S
C1479 C1498 1.368 1_545 S
C1479 H1503 0.949 . S
H1480 C1484 0.949 . S
C1481 C1482 1.349 . S
C1481 C1483 1.327 1_565 S
C1481 H1504 0.950 1_565 S
C1482 C1481 1.349 . S
C1482 C1494 1.349 . S
C1483 C1481 1.327 1_545 S
C1483 C1499 1.420 1_545 S
C1483 H1505 0.958 . S
C1484 H1480 0.949 . S
C1484 C1492 1.574 . S
C1484 C1500 1.368 . S
H1485 C1493 0.950 . S
H1486 C1491 0.950 . S
H1487 C1492 0.949 . S
H1488 C1494 0.950 . S
H1489 C1495 0.950 . S
H1490 C1496 0.949 . S
C1491 H1486 0.950 . S
C1491 C1493 1.327 . S
C1491 C1497 1.429 1_545 S
C1492 C1484 1.574 . S
C1492 H1487 0.949 . S
C1492 C1498 1.368 . S
C1493 C1477 1.349 1_545 S
C1493 H1485 0.950 . S
C1493 C1491 1.327 . S
C1494 C1482 1.349 . S
C1494 H1488 0.950 . S
C1494 C1495 1.327 . S
C1495 H1489 0.950 . S
C1495 C1494 1.327 . S
C1495 C1499 1.429 . S
C1496 C1479 1.574 . S
C1496 H1490 0.949 . S
C1496 C1500 1.368 1_545 S
C1497 C1478 1.429 . S
C1497 C1491 1.429 1_565 S
C1497 C1498 1.523 . S
C1498 C1479 1.368 1_565 S
C1498 C1492 1.368 . S
C1498 C1497 1.523 . S
C1499 C1483 1.420 1_565 S
C1499 C1495 1.429 . S
C1499 C1500 1.523 . S
C1500 C1484 1.368 . S
C1500 C1496 1.368 1_565 S
C1500 C1499 1.523 . S
H1501 C1476 0.950 . S
H1502 C1478 0.950 . S
H1503 C1479 0.949 . S
H1504 C1481 0.950 1_545 S
H1505 C1483 0.958 . S
C1506 C1507 1.349 . S
C1506 C1508 1.327 . S
C1506 H1531 0.950 . S
C1507 C1506 1.349 . S
C1507 C1523 1.349 . S
C1508 C1506 1.327 . S
C1508 C1527 1.429 . S
C1508 H1532 0.950 . S
C1509 C1526 1.574 . S
C1509 C1528 1.368 . S
C1509 H1533 0.949 . S
H1510 C1514 0.949 . S
C1511 C1512 1.349 . S
C1511 C1513 1.327 . S
C1511 H1534 0.986 . S
C1512 C1511 1.349 . S
C1512 C1524 1.349 . S
C1513 C1511 1.327 . S
C1513 C1529 1.429 . S
C1513 H1535 0.950 . S
C1514 H1510 0.949 . S
C1514 C1522 1.574 . S
C1514 C1530 1.368 . S
H1515 C1523 0.950 . S
H1516 C1521 0.950 . S
H1517 C1522 0.949 . S
H1518 C1524 0.950 . S
H1519 C1525 0.950 . S
H1520 C1526 0.949 . S
C1521 H1516 0.950 . S
C1521 C1523 1.327 . S
C1521 C1527 1.429 . S
C1522 C1514 1.574 . S
C1522 H1517 0.949 . S
C1522 C1528 1.368 . S
C1523 C1507 1.349 . S
C1523 H1515 0.950 . S
C1523 C1521 1.327 . S
C1524 C1512 1.349 . S
C1524 H1518 0.950 . S
C1524 C1525 1.327 . S
C1525 H1519 0.950 . S
C1525 C1524 1.327 . S
C1525 C1529 1.429 . S
C1526 C1509 1.574 . S
C1526 H1520 0.949 . S
C1526 C1530 1.368 . S
C1527 C1508 1.429 . S
C1527 C1521 1.429 . S
C1527 C1528 1.523 1_655 S
C1528 C1509 1.368 . S
C1528 C1522 1.368 . S
C1528 C1527 1.523 1_455 S
C1529 C1513 1.429 . S
C1529 C1525 1.429 . S
C1529 C1530 1.523 . S
C1530 C1514 1.368 . S
C1530 C1526 1.368 . S
C1530 C1529 1.523 . S
H1531 C1506 0.950 . S
H1532 C1508 0.950 . S
H1533 C1509 0.949 . S
H1534 C1511 0.986 . S
H1535 C1513 0.950 . S
C1536 C1537 1.349 . S
C1536 C1538 1.327 . S
C1536 H1561 0.950 . S
C1537 C1536 1.349 . S
C1537 C1553 1.349 . S
C1538 C1536 1.327 . S
C1538 C1557 1.429 . S
C1538 H1562 0.950 . S
C1539 C1556 1.574 . S
C1539 C1558 1.368 . S
C1539 H1563 0.949 . S
H1540 C1544 0.949 . S
C1541 C1542 1.361 . S
C1541 C1543 1.293 1_565 S
C1541 H1564 0.973 . S
C1542 C1541 1.361 . S
C1542 C1554 1.349 1_565 S
C1543 C1541 1.293 1_545 S
C1543 C1559 1.429 . S
C1543 H1565 0.950 . S
C1544 H1540 0.949 . S
C1544 C1552 1.574 . S
C1544 C1560 1.368 . S
H1545 C1553 0.950 . S
H1546 C1551 0.950 . S
H1547 C1552 0.949 . S
H1548 C1554 0.950 . S
H1549 C1555 0.950 . S
H1550 C1556 0.949 . S
C1551 H1546 0.950 . S
C1551 C1553 1.327 . S
C1551 C1557 1.429 . S
C1552 C1544 1.574 . S
C1552 H1547 0.949 . S
C1552 C1558 1.368 . S
C1553 C1537 1.349 . S
C1553 H1545 0.950 . S
C1553 C1551 1.327 . S
C1554 C1542 1.349 1_545 S
C1554 H1548 0.950 . S
C1554 C1555 1.327 . S
C1555 H1549 0.950 . S
C1555 C1554 1.327 . S
C1555 C1559 1.429 . S
C1556 C1539 1.574 . S
C1556 H1550 0.949 . S
C1556 C1560 1.368 . S
C1557 C1538 1.429 . S
C1557 C1551 1.429 . S
C1557 C1558 1.523 . S
C1558 C1539 1.368 . S
C1558 C1552 1.368 . S
C1558 C1557 1.523 . S
C1559 C1543 1.429 . S
C1559 C1555 1.429 . S
C1559 C1560 1.523 . S
C1560 C1544 1.368 . S
C1560 C1556 1.368 . S
C1560 C1559 1.523 . S
H1561 C1536 0.950 . S
H1562 C1538 0.950 . S
H1563 C1539 0.949 . S
H1564 C1541 0.973 . S
H1565 C1543 0.950 . S
C1566 C1567 1.349 . S
C1566 C1568 1.327 . S
C1566 H1591 0.950 . S
C1567 C1566 1.349 . S
C1567 C1583 1.349 . S
C1568 C1566 1.327 . S
C1568 C1587 1.429 . S
C1568 H1592 0.950 . S
C1569 C1586 1.576 . S
C1569 C1588 1.368 . S
C1569 H1593 0.949 1_554 S
H1570 C1574 0.949 . S
C1571 C1572 1.349 1_556 S
C1571 C1573 1.333 . S
C1571 H1594 0.950 . S
C1572 C1571 1.349 1_554 S
C1572 C1584 1.349 . S
C1573 C1571 1.333 . S
C1573 C1589 1.390 1_556 S
C1573 H1595 0.984 . S
C1574 H1570 0.949 . S
C1574 C1582 1.574 . S
C1574 C1590 1.368 . S
H1575 C1583 0.950 1_556 S
H1576 C1581 0.950 1_556 S
H1577 C1582 0.949 . S
H1578 C1584 0.950 . S
H1579 C1585 0.950 . S
H1580 C1586 0.933 1_556 S
C1581 H1576 0.950 1_554 S
C1581 C1583 1.327 . S
C1581 C1587 1.429 . S
C1582 C1574 1.574 . S
C1582 H1577 0.949 . S
C1582 C1588 1.368 . S
C1583 C1567 1.349 . S
C1583 H1575 0.950 1_554 S
C1583 C1581 1.327 . S
C1584 C1572 1.349 . S
C1584 H1578 0.950 . S
C1584 C1585 1.327 . S
C1585 H1579 0.950 . S
C1585 C1584 1.327 . S
C1585 C1589 1.429 . S
C1586 C1569 1.576 . S
C1586 H1580 0.933 1_554 S
C1586 C1590 1.383 . S
C1587 C1568 1.429 . S
C1587 C1581 1.429 . S
C1587 C1588 1.523 1_565 S
C1588 C1569 1.368 . S
C1588 C1582 1.368 . S
C1588 C1587 1.523 1_545 S
C1589 C1573 1.390 1_554 S
C1589 C1585 1.429 . S
C1589 C1590 1.523 . S
C1590 C1574 1.368 . S
C1590 C1586 1.383 . S
C1590 C1589 1.523 . S
H1591 C1566 0.950 . S
H1592 C1568 0.950 . S
H1593 C1569 0.949 1_556 S
H1594 C1571 0.950 . S
H1595 C1573 0.984 . S
C1596 C1597 1.349 . S
C1596 C1598 1.327 . S
C1596 H1621 0.950 . S
C1597 C1596 1.349 . S
C1597 C1613 1.349 . S
C1598 C1596 1.327 . S
C1598 C1617 1.429 . S
C1598 H1622 0.950 . S
C1599 C1616 1.574 . S
C1599 C1618 1.368 . S
C1599 H1623 0.949 . S
H1600 C1604 0.949 . S
C1601 C1602 1.349 . S
C1601 C1603 1.327 . S
C1601 H1624 0.950 . S
C1602 C1601 1.349 . S
C1602 C1614 1.349 . S
C1603 C1601 1.327 . S
C1603 C1619 1.429 . S
C1603 H1625 0.950 . S
C1604 H1600 0.949 . S
C1604 C1612 1.574 . S
C1604 C1620 1.368 . S
H1605 C1613 0.950 . S
H1606 C1611 0.950 . S
H1607 C1612 0.949 . S
H1608 C1614 0.950 . S
H1609 C1615 0.950 . S
H1610 C1616 0.949 . S
C1611 H1606 0.950 . S
C1611 C1613 1.327 . S
C1611 C1617 1.429 . S
C1612 C1604 1.574 . S
C1612 H1607 0.949 . S
C1612 C1618 1.368 . S
C1613 C1597 1.349 . S
C1613 H1605 0.950 . S
C1613 C1611 1.327 . S
C1614 C1602 1.349 . S
C1614 H1608 0.950 . S
C1614 C1615 1.327 . S
C1615 H1609 0.950 . S
C1615 C1614 1.327 . S
C1615 C1619 1.429 . S
C1616 C1599 1.574 . S
C1616 H1610 0.949 . S
C1616 C1620 1.368 . S
C1617 C1598 1.429 . S
C1617 C1611 1.429 . S
C1617 C1618 1.523 . S
C1618 C1599 1.368 . S
C1618 C1612 1.368 . S
C1618 C1617 1.523 . S
C1619 C1603 1.429 . S
C1619 C1615 1.429 . S
C1619 C1620 1.523 . S
C1620 C1604 1.368 . S
C1620 C1616 1.368 . S
C1620 C1619 1.523 . S
H1621 C1596 0.950 . S
H1622 C1598 0.950 . S
H1623 C1599 0.949 . S
H1624 C1601 0.950 . S
H1625 C1603 0.950 . S
C1626 C1627 1.349 . S
C1626 C1628 1.327 . S
C1626 H1651 0.950 . S
C1627 C1626 1.349 . S
C1627 C1643 1.349 1_556 S
C1628 C1626 1.327 . S
C1628 C1647 1.429 . S
C1628 H1652 0.950 . S
C1629 C1646 1.574 . S
C1629 C1648 1.368 1_554 S
C1629 H1653 0.949 . S
H1630 C1634 0.949 . S
C1631 C1632 1.349 . S
C1631 C1633 1.327 . S
C1631 H1654 0.950 1_556 S
C1632 C1631 1.349 . S
C1632 C1644 1.349 . S
C1633 C1631 1.327 . S
C1633 C1649 1.429 . S
C1633 H1655 0.950 1_556 S
C1634 H1630 0.949 . S
C1634 C1642 1.574 . S
C1634 C1650 1.368 . S
H1635 C1643 0.950 . S
H1636 C1641 0.950 . S
H1637 C1642 0.949 . S
H1638 C1644 0.950 . S
H1639 C1645 0.950 . S
H1640 C1646 0.955 . S
C1641 H1636 0.950 . S
C1641 C1643 1.327 . S
C1641 C1647 1.429 1_554 S
C1642 C1634 1.574 . S
C1642 H1637 0.949 . S
C1642 C1648 1.368 . S
C1643 C1627 1.349 1_554 S
C1643 H1635 0.950 . S
C1643 C1641 1.327 . S
C1644 C1632 1.349 . S
C1644 H1638 0.950 . S
C1644 C1645 1.327 . S
C1645 H1639 0.950 . S
C1645 C1644 1.327 . S
C1645 C1649 1.429 . S
C1646 C1629 1.574 . S
C1646 H1640 0.955 . S
C1646 C1650 1.362 1_554 S
C1647 C1628 1.429 . S
C1647 C1641 1.429 1_556 S
C1647 C1648 1.523 . S
C1648 C1629 1.368 1_556 S
C1648 C1642 1.368 . S
C1648 C1647 1.523 . S
C1649 C1633 1.429 . S
C1649 C1645 1.429 . S
C1649 C1650 1.523 . S
C1650 C1634 1.368 . S
C1650 C1646 1.362 1_556 S
C1650 C1649 1.523 . S
H1651 C1626 0.950 . S
H1652 C1628 0.950 . S
H1653 C1629 0.949 . S
H1654 C1631 0.950 1_554 S
H1655 C1633 0.950 1_554 S
C1656 C1657 1.349 . S
C1656 C1658 1.327 . S
C1656 H1681 0.950 . S
C1657 C1656 1.349 . S
C1657 C1673 1.349 . S
C1658 C1656 1.327 . S
C1658 C1677 1.429 . S
C1658 H1682 0.950 . S
C1659 C1676 1.574 . S
C1659 C1678 1.368 . S
C1659 H1683 0.949 . S
H1660 C1664 0.949 . S
C1661 C1662 1.349 1_554 S
C1661 C1663 1.327 . S
C1661 H1684 0.982 . S
C1662 C1661 1.349 1_556 S
C1662 C1674 1.349 1_556 S
C1663 C1661 1.327 . S
C1663 C1679 1.429 . S
C1663 H1685 0.950 . S
C1664 H1660 0.949 . S
C1664 C1672 1.574 . S
C1664 C1680 1.368 . S
H1665 C1673 0.950 . S
H1666 C1671 0.950 . S
H1667 C1672 0.949 . S
H1668 C1674 0.950 1_556 S
H1669 C1675 0.950 . S
H1670 C1676 0.949 . S
C1671 H1666 0.950 . S
C1671 C1673 1.327 . S
C1671 C1677 1.429 . S
C1672 C1664 1.574 . S
C1672 H1667 0.949 . S
C1672 C1678 1.368 . S
C1673 C1657 1.349 . S
C1673 H1665 0.950 . S
C1673 C1671 1.327 . S
C1674 C1662 1.349 1_554 S
C1674 H1668 0.950 1_554 S
C1674 C1675 1.327 . S
C1675 H1669 0.950 . S
C1675 C1674 1.327 . S
C1675 C1679 1.429 . S
C1676 C1659 1.574 . S
C1676 H1670 0.949 . S
C1676 C1680 1.368 . S
C1677 C1658 1.429 . S
C1677 C1671 1.429 . S
C1677 C1678 1.523 . S
C1678 C1659 1.368 . S
C1678 C1672 1.368 . S
C1678 C1677 1.523 . S
C1679 C1663 1.429 . S
C1679 C1675 1.429 . S
C1679 C1680 1.523 . S
C1680 C1664 1.368 . S
C1680 C1676 1.368 . S
C1680 C1679 1.523 . S
H1681 C1656 0.950 . S
H1682 C1658 0.950 . S
H1683 C1659 0.949 . S
H1684 C1661 0.982 . S
H1685 C1663 0.950 . S
C1686 C1687 1.349 . S
C1686 C1688 1.327 . S
C1686 H1711 0.950 . S
C1687 C1686 1.349 . S
C1687 C1703 1.349 . S
C1688 C1686 1.327 . S
C1688 C1707 1.429 . S
C1688 H1712 0.950 . S
C1689 C1706 1.574 . S
C1689 C1708 1.368 . S
C1689 H1713 0.949 . S
H1690 C1694 0.949 . S
C1691 C1692 1.349 . S
C1691 C1693 1.327 . S
C1691 H1714 0.950 . S
C1692 C1691 1.349 . S
C1692 C1704 1.349 . S
C1693 C1691 1.327 . S
C1693 C1709 1.429 . S
C1693 H1715 0.950 . S
C1694 H1690 0.949 . S
C1694 C1702 1.574 . S
C1694 C1710 1.368 . S
H1695 C1703 0.950 . S
H1696 C1701 0.950 . S
H1697 C1702 0.949 . S
H1698 C1704 0.950 . S
H1699 C1705 0.950 . S
H1700 C1706 0.949 . S
C1701 H1696 0.950 . S
C1701 C1703 1.327 . S
C1701 C1707 1.429 . S
C1702 C1694 1.574 . S
C1702 H1697 0.949 . S
C1702 C1708 1.368 . S
C1703 C1687 1.349 . S
C1703 H1695 0.950 . S
C1703 C1701 1.327 . S
C1704 C1692 1.349 . S
C1704 H1698 0.950 . S
C1704 C1705 1.327 . S
C1705 H1699 0.950 . S
C1705 C1704 1.327 . S
C1705 C1709 1.429 . S
C1706 C1689 1.574 . S
C1706 H1700 0.949 . S
C1706 C1710 1.368 . S
C1707 C1688 1.429 . S
C1707 C1701 1.429 . S
C1707 C1708 1.523 1_556 S
C1708 C1689 1.368 . S
C1708 C1702 1.368 . S
C1708 C1707 1.523 1_554 S
C1709 C1693 1.429 . S
C1709 C1705 1.429 . S
C1709 C1710 1.523 . S
C1710 C1694 1.368 . S
C1710 C1706 1.368 . S
C1710 C1709 1.523 . S
H1711 C1686 0.950 . S
H1712 C1688 0.950 . S
H1713 C1689 0.949 . S
H1714 C1691 0.950 . S
H1715 C1693 0.950 . S
C1716 C1717 1.349 . S
C1716 C1718 1.327 . S
C1716 H1741 0.950 . S
C1717 C1716 1.349 . S
C1717 C1733 1.349 . S
C1718 C1716 1.327 . S
C1718 C1737 1.429 . S
C1718 H1742 0.950 . S
C1719 C1736 1.574 . S
C1719 C1738 1.368 . S
C1719 H1743 0.949 . S
H1720 C1724 0.949 . S
C1721 C1722 1.349 . S
C1721 C1723 1.327 . S
C1721 H1744 0.950 . S
C1722 C1721 1.349 . S
C1722 C1734 1.349 . S
C1723 C1721 1.327 . S
C1723 C1739 1.429 . S
C1723 H1745 0.950 . S
C1724 H1720 0.949 . S
C1724 C1732 1.574 . S
C1724 C1740 1.368 . S
H1725 C1733 0.950 . S
H1726 C1731 0.950 . S
H1727 C1732 0.949 . S
H1728 C1734 0.950 . S
H1729 C1735 0.950 . S
H1730 C1736 0.949 . S
C1731 H1726 0.950 . S
C1731 C1733 1.327 . S
C1731 C1737 1.429 . S
C1732 C1724 1.574 . S
C1732 H1727 0.949 . S
C1732 C1738 1.368 . S
C1733 C1717 1.349 . S
C1733 H1725 0.950 . S
C1733 C1731 1.327 . S
C1734 C1722 1.349 . S
C1734 H1728 0.950 . S
C1734 C1735 1.327 . S
C1735 H1729 0.950 . S
C1735 C1734 1.327 . S
C1735 C1739 1.429 . S
C1736 C1719 1.574 . S
C1736 H1730 0.949 . S
C1736 C1740 1.368 . S
C1737 C1718 1.429 . S
C1737 C1731 1.429 . S
C1737 C1738 1.523 . S
C1738 C1719 1.368 . S
C1738 C1732 1.368 . S
C1738 C1737 1.523 . S
C1739 C1723 1.429 . S
C1739 C1735 1.429 . S
C1739 C1740 1.523 . S
C1740 C1724 1.368 . S
C1740 C1736 1.368 . S
C1740 C1739 1.523 . S
H1741 C1716 0.950 . S
H1742 C1718 0.950 . S
H1743 C1719 0.949 . S
H1744 C1721 0.950 . S
H1745 C1723 0.950 . S
C1746 C1747 1.349 1_455 S
C1746 C1748 1.327 . S
C1746 H1771 0.950 . S
C1747 C1746 1.349 1_655 S
C1747 C1763 1.349 . S
C1748 C1746 1.327 . S
C1748 C1767 1.414 1_455 S
C1748 H1772 0.966 . S
C1749 C1766 1.574 . S
C1749 C1768 1.368 . S
C1749 H1773 0.949 . S
H1750 C1754 0.949 1_455 S
C1751 C1752 1.349 . S
C1751 C1753 1.327 . S
C1751 H1774 0.950 . S
C1752 C1751 1.349 . S
C1752 C1764 1.349 . S
C1753 C1751 1.327 . S
C1753 C1769 1.429 . S
C1753 H1775 0.950 . S
C1754 H1750 0.949 1_655 S
C1754 C1762 1.574 . S
C1754 C1770 1.368 . S
H1755 C1763 0.950 . S
H1756 C1761 0.950 . S
H1757 C1762 0.949 1_455 S
H1758 C1764 0.950 . S
H1759 C1765 0.920 1_455 S
H1760 C1766 0.949 . S
C1761 H1756 0.950 . S
C1761 C1763 1.327 . S
C1761 C1767 1.429 . S
C1762 C1754 1.574 . S
C1762 H1757 0.949 1_655 S
C1762 C1768 1.368 . S
C1763 C1747 1.349 . S
C1763 H1755 0.950 . S
C1763 C1761 1.327 . S
C1764 C1752 1.349 . S
C1764 H1758 0.950 . S
C1764 C1765 1.327 . S
C1765 H1759 0.920 1_655 S
C1765 C1764 1.327 . S
C1765 C1769 1.429 . S
C1766 C1749 1.574 . S
C1766 H1760 0.949 . S
C1766 C1770 1.368 . S
C1767 C1748 1.414 1_655 S
C1767 C1761 1.429 . S
C1767 C1768 1.523 . S
C1768 C1749 1.368 . S
C1768 C1762 1.368 . S
C1768 C1767 1.523 . S
C1769 C1753 1.429 . S
C1769 C1765 1.429 . S
C1769 C1770 1.523 . S
C1770 C1754 1.368 . S
C1770 C1766 1.368 . S
C1770 C1769 1.523 . S
H1771 C1746 0.950 . S
H1772 C1748 0.966 . S
H1773 C1749 0.949 . S
H1774 C1751 0.950 . S
H1775 C1753 0.950 . S
C1776 C1777 1.349 . S
C1776 C1778 1.327 . S
C1776 H1801 0.950 . S
C1777 C1776 1.349 . S
C1777 C1793 1.349 . S
C1778 C1776 1.327 . S
C1778 C1797 1.429 . S
C1778 H1802 0.950 . S
C1779 C1796 1.574 . S
C1779 C1798 1.368 . S
C1779 H1803 0.949 . S
H1780 C1784 0.949 . S
C1781 C1782 1.349 1_655 S
C1781 C1783 1.327 . S
C1781 H1804 0.950 1_655 S
C1782 C1781 1.349 1_455 S
C1782 C1794 1.349 1_455 S
C1783 C1781 1.327 . S
C1783 C1799 1.429 . S
C1783 H1805 0.950 . S
C1784 H1780 0.949 . S
C1784 C1792 1.574 . S
C1784 C1800 1.368 . S
H1785 C1793 0.950 . S
H1786 C1791 0.950 . S
H1787 C1792 0.949 . S
H1788 C1794 0.950 . S
H1789 C1795 0.950 . S
H1790 C1796 0.949 . S
C1791 H1786 0.950 . S
C1791 C1793 1.327 . S
C1791 C1797 1.429 . S
C1792 C1784 1.574 . S
C1792 H1787 0.949 . S
C1792 C1798 1.368 . S
C1793 C1777 1.349 . S
C1793 H1785 0.950 . S
C1793 C1791 1.327 . S
C1794 C1782 1.349 1_655 S
C1794 H1788 0.950 . S
C1794 C1795 1.327 . S
C1795 H1789 0.950 . S
C1795 C1794 1.327 . S
C1795 C1799 1.429 . S
C1796 C1779 1.574 . S
C1796 H1790 0.949 . S
C1796 C1800 1.368 . S
C1797 C1778 1.429 . S
C1797 C1791 1.429 . S
C1797 C1798 1.523 . S
C1798 C1779 1.368 . S
C1798 C1792 1.368 . S
C1798 C1797 1.523 . S
C1799 C1783 1.429 . S
C1799 C1795 1.429 . S
C1799 C1800 1.523 . S
C1800 C1784 1.368 . S
C1800 C1796 1.368 . S
C1800 C1799 1.523 . S
H1801 C1776 0.950 . S
H1802 C1778 0.950 . S
H1803 C1779 0.949 . S
H1804 C1781 0.950 1_455 S
H1805 C1783 0.950 . S
C1806 C1807 1.349 . S
C1806 C1808 1.327 . S
C1806 H1831 0.950 . S
C1807 C1806 1.349 . S
C1807 C1823 1.349 . S
C1808 C1806 1.327 . S
C1808 C1827 1.429 . S
C1808 H1832 0.950 . S
C1809 C1826 1.574 . S
C1809 C1828 1.368 . S
C1809 H1833 0.949 . S
H1810 C1814 0.949 . S
C1811 C1812 1.349 . S
C1811 C1813 1.327 . S
C1811 H1834 0.950 . S
C1812 C1811 1.349 . S
C1812 C1824 1.349 . S
C1813 C1811 1.327 . S
C1813 C1829 1.429 . S
C1813 H1835 0.950 . S
C1814 H1810 0.949 . S
C1814 C1822 1.574 . S
C1814 C1830 1.368 . S
H1815 C1823 0.950 . S
H1816 C1821 0.950 . S
H1817 C1822 0.949 . S
H1818 C1824 0.950 . S
H1819 C1825 0.950 . S
H1820 C1826 0.949 . S
C1821 H1816 0.950 . S
C1821 C1823 1.327 . S
C1821 C1827 1.429 . S
C1822 C1814 1.574 . S
C1822 H1817 0.949 . S
C1822 C1828 1.368 . S
C1823 C1807 1.349 . S
C1823 H1815 0.950 . S
C1823 C1821 1.327 . S
C1824 C1812 1.349 . S
C1824 H1818 0.950 . S
C1824 C1825 1.327 . S
C1825 H1819 0.950 . S
C1825 C1824 1.327 . S
C1825 C1829 1.429 . S
C1826 C1809 1.574 . S
C1826 H1820 0.949 . S
C1826 C1830 1.368 . S
C1827 C1808 1.429 . S
C1827 C1821 1.429 . S
C1827 C1828 1.523 . S
C1828 C1809 1.368 . S
C1828 C1822 1.368 . S
C1828 C1827 1.523 . S
C1829 C1813 1.429 . S
C1829 C1825 1.429 . S
C1829 C1830 1.523 . S
C1830 C1814 1.368 . S
C1830 C1826 1.368 . S
C1830 C1829 1.523 . S
H1831 C1806 0.950 . S
H1832 C1808 0.950 . S
H1833 C1809 0.949 . S
H1834 C1811 0.950 . S
H1835 C1813 0.950 . S
C1836 C1837 1.349 1_565 S
C1836 C1838 1.327 . S
C1836 H1861 0.950 . S
C1837 C1836 1.349 1_545 S
C1837 C1853 1.349 . S
C1838 C1836 1.327 . S
C1838 C1857 1.429 1_565 S
C1838 H1862 0.950 . S
C1839 C1856 1.574 . S
C1839 C1858 1.368 . S
C1839 H1863 0.949 . S
H1840 C1844 0.949 . S
C1841 C1842 1.349 . S
C1841 C1843 1.327 . S
C1841 H1864 0.950 . S
C1842 C1841 1.349 . S
C1842 C1854 1.349 . S
C1843 C1841 1.327 . S
C1843 C1859 1.429 . S
C1843 H1865 0.950 . S
C1844 H1840 0.949 . S
C1844 C1852 1.574 . S
C1844 C1860 1.368 1_565 S
H1845 C1853 0.950 . S
H1846 C1851 0.950 . S
H1847 C1852 0.949 . S
H1848 C1854 0.950 1_565 S
H1849 C1855 0.950 1_565 S
H1850 C1856 0.949 . S
C1851 H1846 0.950 . S
C1851 C1853 1.327 . S
C1851 C1857 1.429 . S
C1852 C1844 1.574 . S
C1852 H1847 0.949 . S
C1852 C1858 1.368 1_565 S
C1853 C1837 1.349 . S
C1853 H1845 0.950 . S
C1853 C1851 1.327 . S
C1854 C1842 1.349 . S
C1854 H1848 0.950 1_545 S
C1854 C1855 1.327 . S
C1855 H1849 0.950 1_545 S
C1855 C1854 1.327 . S
C1855 C1859 1.429 . S
C1856 C1839 1.574 . S
C1856 H1850 0.949 . S
C1856 C1860 1.368 . S
C1857 C1838 1.429 1_545 S
C1857 C1851 1.429 . S
C1857 C1858 1.523 . S
C1858 C1839 1.368 . S
C1858 C1852 1.368 1_545 S
C1858 C1857 1.523 . S
C1859 C1843 1.429 . S
C1859 C1855 1.429 . S
C1859 C1860 1.523 . S
C1860 C1844 1.368 1_545 S
C1860 C1856 1.368 . S
C1860 C1859 1.523 . S
H1861 C1836 0.950 . S
H1862 C1838 0.950 . S
H1863 C1839 0.949 . S
H1864 C1841 0.950 . S
H1865 C1843 0.950 . S
C1866 C1867 1.349 . S
C1866 C1868 1.327 . S
C1866 H1891 0.950 . S
C1867 C1866 1.349 . S
C1867 C1883 1.349 . S
C1868 C1866 1.327 . S
C1868 C1887 1.429 . S
C1868 H1892 0.950 . S
C1869 C1886 1.574 . S
C1869 C1888 1.368 . S
C1869 H1893 0.949 . S
H1870 C1874 0.949 . S
C1871 C1872 1.349 . S
C1871 C1873 1.327 . S
C1871 H1894 0.950 . S
C1872 C1871 1.349 . S
C1872 C1884 1.349 . S
C1873 C1871 1.327 . S
C1873 C1889 1.429 . S
C1873 H1895 0.950 . S
C1874 H1870 0.949 . S
C1874 C1882 1.574 . S
C1874 C1890 1.368 . S
H1875 C1883 0.950 . S
H1876 C1881 0.950 . S
H1877 C1882 0.949 . S
H1878 C1884 0.950 . S
H1879 C1885 0.950 . S
H1880 C1886 0.949 . S
C1881 H1876 0.950 . S
C1881 C1883 1.327 . S
C1881 C1887 1.429 . S
C1882 C1874 1.574 . S
C1882 H1877 0.949 . S
C1882 C1888 1.368 . S
C1883 C1867 1.349 . S
C1883 H1875 0.950 . S
C1883 C1881 1.327 . S
C1884 C1872 1.349 . S
C1884 H1878 0.950 . S
C1884 C1885 1.327 . S
C1885 H1879 0.950 . S
C1885 C1884 1.327 . S
C1885 C1889 1.429 . S
C1886 C1869 1.574 . S
C1886 H1880 0.949 . S
C1886 C1890 1.368 . S
C1887 C1868 1.429 . S
C1887 C1881 1.429 . S
C1887 C1888 1.523 1_455 S
C1888 C1869 1.368 . S
C1888 C1882 1.368 . S
C1888 C1887 1.523 1_655 S
C1889 C1873 1.429 . S
C1889 C1885 1.429 . S
C1889 C1890 1.523 . S
C1890 C1874 1.368 . S
C1890 C1886 1.368 . S
C1890 C1889 1.523 . S
H1891 C1866 0.950 . S
H1892 C1868 0.950 . S
H1893 C1869 0.949 . S
H1894 C1871 0.950 . S
H1895 C1873 0.950 . S
C1896 C1897 1.349 . S
C1896 C1898 1.327 . S
C1896 H1921 0.950 . S
C1897 C1896 1.349 . S
C1897 C1913 1.349 . S
C1898 C1896 1.327 . S
C1898 C1917 1.429 . S
C1898 H1922 0.950 . S
C1899 C1916 1.574 . S
C1899 C1918 1.368 . S
C1899 H1923 0.949 . S
H1900 C1904 0.949 . S
C1901 C1902 1.364 . S
C1901 C1903 1.280 1_545 S
C1901 H1924 0.983 . S
C1902 C1901 1.364 . S
C1902 C1914 1.349 1_545 S
C1903 C1901 1.280 1_565 S
C1903 C1919 1.429 . S
C1903 H1925 0.950 . S
C1904 H1900 0.949 . S
C1904 C1912 1.574 . S
C1904 C1920 1.368 . S
H1905 C1913 0.950 . S
H1906 C1911 0.950 . S
H1907 C1912 0.949 . S
H1908 C1914 0.950 . S
H1909 C1915 0.950 . S
H1910 C1916 0.949 . S
C1911 H1906 0.950 . S
C1911 C1913 1.327 . S
C1911 C1917 1.429 . S
C1912 C1904 1.574 . S
C1912 H1907 0.949 . S
C1912 C1918 1.368 . S
C1913 C1897 1.349 . S
C1913 H1905 0.950 . S
C1913 C1911 1.327 . S
C1914 C1902 1.349 1_565 S
C1914 H1908 0.950 . S
C1914 C1915 1.327 . S
C1915 H1909 0.950 . S
C1915 C1914 1.327 . S
C1915 C1919 1.429 . S
C1916 C1899 1.574 . S
C1916 H1910 0.949 . S
C1916 C1920 1.368 . S
C1917 C1898 1.429 . S
C1917 C1911 1.429 . S
C1917 C1918 1.523 . S
C1918 C1899 1.368 . S
C1918 C1912 1.368 . S
C1918 C1917 1.523 . S
C1919 C1903 1.429 . S
C1919 C1915 1.429 . S
C1919 C1920 1.523 . S
C1920 C1904 1.368 . S
C1920 C1916 1.368 . S
C1920 C1919 1.523 . S
H1921 C1896 0.950 . S
H1922 C1898 0.950 . S
H1923 C1899 0.949 . S
H1924 C1901 0.983 . S
H1925 C1903 0.950 . S
C1926 C1927 1.349 . S
C1926 C1928 1.327 . S
C1926 H1951 0.950 . S
C1927 C1926 1.349 . S
C1927 C1943 1.349 . S
C1928 C1926 1.327 . S
C1928 C1947 1.429 . S
C1928 H1952 0.950 . S
C1929 C1946 1.574 . S
C1929 C1948 1.368 . S
C1929 H1953 0.949 . S
H1930 C1934 0.949 . S
C1931 C1932 1.349 . S
C1931 C1933 1.327 . S
C1931 H1954 0.950 1_556 S
C1932 C1931 1.349 . S
C1932 C1944 1.349 . S
C1933 C1931 1.327 . S
C1933 C1949 1.429 . S
C1933 H1955 0.925 1_556 S
C1934 H1930 0.949 . S
C1934 C1942 1.574 . S
C1934 C1950 1.368 . S
H1935 C1943 0.950 . S
H1936 C1941 0.950 . S
H1937 C1942 0.949 . S
H1938 C1944 0.950 . S
H1939 C1945 0.950 . S
H1940 C1946 0.958 . S
C1941 H1936 0.950 . S
C1941 C1943 1.327 . S
C1941 C1947 1.429 . S
C1942 C1934 1.574 . S
C1942 H1937 0.949 . S
C1942 C1948 1.368 . S
C1943 C1927 1.349 . S
C1943 H1935 0.950 . S
C1943 C1941 1.327 . S
C1944 C1932 1.349 . S
C1944 H1938 0.950 . S
C1944 C1945 1.327 . S
C1945 H1939 0.950 . S
C1945 C1944 1.327 . S
C1945 C1949 1.429 . S
C1946 C1929 1.574 . S
C1946 H1940 0.958 . S
C1946 C1950 1.368 . S
C1947 C1928 1.429 . S
C1947 C1941 1.429 . S
C1947 C1948 1.523 1_545 S
C1948 C1929 1.368 . S
C1948 C1942 1.368 . S
C1948 C1947 1.523 1_565 S
C1949 C1933 1.429 . S
C1949 C1945 1.429 . S
C1949 C1950 1.523 . S
C1950 C1934 1.368 . S
C1950 C1946 1.368 . S
C1950 C1949 1.523 . S
H1951 C1926 0.950 . S
H1952 C1928 0.950 . S
H1953 C1929 0.949 . S
H1954 C1931 0.950 1_554 S
H1955 C1933 0.925 1_554 S
C1956 C1957 1.349 . S
C1956 C1958 1.327 . S
C1956 H1981 0.950 . S
C1957 C1956 1.349 . S
C1957 C1973 1.349 . S
C1958 C1956 1.327 . S
C1958 C1977 1.429 . S
C1958 H1982 0.950 . S
C1959 C1976 1.574 . S
C1959 C1978 1.368 . S
C1959 H1983 0.949 . S
H1960 C1964 0.949 . S
C1961 C1962 1.349 . S
C1961 C1963 1.327 . S
C1961 H1984 0.950 . S
C1962 C1961 1.349 . S
C1962 C1974 1.349 . S
C1963 C1961 1.327 . S
C1963 C1979 1.429 . S
C1963 H1985 0.950 . S
C1964 H1960 0.949 . S
C1964 C1972 1.574 . S
C1964 C1980 1.368 . S
H1965 C1973 0.950 . S
H1966 C1971 0.950 . S
H1967 C1972 0.949 . S
H1968 C1974 0.950 . S
H1969 C1975 0.950 . S
H1970 C1976 0.949 . S
C1971 H1966 0.950 . S
C1971 C1973 1.327 . S
C1971 C1977 1.429 . S
C1972 C1964 1.574 . S
C1972 H1967 0.949 . S
C1972 C1978 1.368 . S
C1973 C1957 1.349 . S
C1973 H1965 0.950 . S
C1973 C1971 1.327 . S
C1974 C1962 1.349 . S
C1974 H1968 0.950 . S
C1974 C1975 1.327 . S
C1975 H1969 0.950 . S
C1975 C1974 1.327 . S
C1975 C1979 1.429 . S
C1976 C1959 1.574 . S
C1976 H1970 0.949 . S
C1976 C1980 1.368 . S
C1977 C1958 1.429 . S
C1977 C1971 1.429 . S
C1977 C1978 1.523 . S
C1978 C1959 1.368 . S
C1978 C1972 1.368 . S
C1978 C1977 1.523 . S
C1979 C1963 1.429 . S
C1979 C1975 1.429 . S
C1979 C1980 1.523 . S
C1980 C1964 1.368 . S
C1980 C1976 1.368 . S
C1980 C1979 1.523 . S
H1981 C1956 0.950 . S
H1982 C1958 0.950 . S
H1983 C1959 0.949 . S
H1984 C1961 0.950 . S
H1985 C1963 0.950 . S
C1986 C1987 1.349 . S
C1986 C1988 1.327 . S
C1986 H2011 0.950 . S
C1987 C1986 1.349 . S
C1987 C2003 1.349 1_554 S
C1988 C1986 1.327 . S
C1988 C2007 1.429 . S
C1988 H2012 0.950 . S
C1989 C2006 1.574 . S
C1989 C2008 1.368 1_556 S
C1989 H2013 0.949 . S
H1990 C1994 0.949 . S
C1991 C1992 1.349 . S
C1991 C1993 1.327 . S
C1991 H2014 0.950 1_554 S
C1992 C1991 1.349 . S
C1992 C2004 1.349 . S
C1993 C1991 1.327 . S
C1993 C2009 1.429 . S
C1993 H2015 0.950 1_554 S
C1994 H1990 0.949 . S
C1994 C2002 1.574 . S
C1994 C2010 1.368 . S
H1995 C2003 0.950 . S
H1996 C2001 0.950 . S
H1997 C2002 0.949 . S
H1998 C2004 0.950 . S
H1999 C2005 0.950 . S
H2000 C2006 0.949 . S
C2001 H1996 0.950 . S
C2001 C2003 1.327 . S
C2001 C2007 1.429 1_556 S
C2002 C1994 1.574 . S
C2002 H1997 0.949 . S
C2002 C2008 1.368 . S
C2003 C1987 1.349 1_556 S
C2003 H1995 0.950 . S
C2003 C2001 1.327 . S
C2004 C1992 1.349 . S
C2004 H1998 0.950 . S
C2004 C2005 1.327 . S
C2005 H1999 0.950 . S
C2005 C2004 1.327 . S
C2005 C2009 1.429 . S
C2006 C1989 1.574 . S
C2006 H2000 0.949 . S
C2006 C2010 1.368 1_556 S
C2007 C1988 1.429 . S
C2007 C2001 1.429 1_554 S
C2007 C2008 1.523 . S
C2008 C1989 1.368 1_554 S
C2008 C2002 1.368 . S
C2008 C2007 1.523 . S
C2009 C1993 1.429 . S
C2009 C2005 1.429 . S
C2009 C2010 1.523 . S
C2010 C1994 1.368 . S
C2010 C2006 1.368 1_554 S
C2010 C2009 1.523 . S
H2011 C1986 0.950 . S
H2012 C1988 0.950 . S
H2013 C1989 0.949 . S
H2014 C1991 0.950 1_556 S
H2015 C1993 0.950 1_556 S
C2016 C2017 1.349 . S
C2016 C2018 1.327 . S
C2016 H2041 0.950 . S
C2017 C2016 1.349 . S
C2017 C2033 1.349 . S
C2018 C2016 1.327 . S
C2018 C2037 1.429 . S
C2018 H2042 0.950 . S
C2019 C2036 1.574 . S
C2019 C2038 1.368 . S
C2019 H2043 0.949 . S
H2020 C2024 0.949 . S
C2021 C2022 1.357 . S
C2021 C2023 1.291 1_554 S
C2021 H2044 0.979 . S
C2022 C2021 1.357 . S
C2022 C2034 1.349 1_554 S
C2023 C2021 1.291 1_556 S
C2023 C2039 1.429 . S
C2023 H2045 0.950 . S
C2024 H2020 0.949 . S
C2024 C2032 1.574 . S
C2024 C2040 1.368 . S
H2025 C2033 0.950 . S
H2026 C2031 0.950 . S
H2027 C2032 0.949 . S
H2028 C2034 0.950 . S
H2029 C2035 0.950 . S
H2030 C2036 0.949 . S
C2031 H2026 0.950 . S
C2031 C2033 1.327 . S
C2031 C2037 1.429 . S
C2032 C2024 1.574 . S
C2032 H2027 0.949 . S
C2032 C2038 1.368 . S
C2033 C2017 1.349 . S
C2033 H2025 0.950 . S
C2033 C2031 1.327 . S
C2034 C2022 1.349 1_556 S
C2034 H2028 0.950 . S
C2034 C2035 1.327 . S
C2035 H2029 0.950 . S
C2035 C2034 1.327 . S
C2035 C2039 1.429 . S
C2036 C2019 1.574 . S
C2036 H2030 0.949 . S
C2036 C2040 1.368 . S
C2037 C2018 1.429 . S
C2037 C2031 1.429 . S
C2037 C2038 1.523 . S
C2038 C2019 1.368 . S
C2038 C2032 1.368 . S
C2038 C2037 1.523 . S
C2039 C2023 1.429 . S
C2039 C2035 1.429 . S
C2039 C2040 1.523 . S
C2040 C2024 1.368 . S
C2040 C2036 1.368 . S
C2040 C2039 1.523 . S
H2041 C2016 0.950 . S
H2042 C2018 0.950 . S
H2043 C2019 0.949 . S
H2044 C2021 0.979 . S
H2045 C2023 0.950 . S
C2046 C2047 1.349 . S
C2046 C2048 1.327 . S
C2046 H2071 0.950 . S
C2047 C2046 1.349 . S
C2047 C2063 1.349 . S
C2048 C2046 1.327 . S
C2048 C2067 1.429 . S
C2048 H2072 0.950 . S
C2049 C2066 1.574 . S
C2049 C2068 1.368 . S
C2049 H2073 0.949 . S
H2050 C2054 0.949 . S
C2051 C2052 1.349 . S
C2051 C2053 1.327 . S
C2051 H2074 0.950 . S
C2052 C2051 1.349 . S
C2052 C2064 1.349 . S
C2053 C2051 1.327 . S
C2053 C2069 1.429 . S
C2053 H2075 0.950 . S
C2054 H2050 0.949 . S
C2054 C2062 1.574 . S
C2054 C2070 1.368 . S
H2055 C2063 0.950 . S
H2056 C2061 0.950 . S
H2057 C2062 0.949 . S
H2058 C2064 0.971 . S
H2059 C2065 0.950 . S
H2060 C2066 0.949 . S
C2061 H2056 0.950 . S
C2061 C2063 1.327 . S
C2061 C2067 1.429 . S
C2062 C2054 1.574 . S
C2062 H2057 0.949 . S
C2062 C2068 1.368 . S
C2063 C2047 1.349 . S
C2063 H2055 0.950 . S
C2063 C2061 1.327 . S
C2064 C2052 1.349 . S
C2064 H2058 0.971 . S
C2064 C2065 1.327 . S
C2065 H2059 0.950 . S
C2065 C2064 1.327 . S
C2065 C2069 1.429 . S
C2066 C2049 1.574 . S
C2066 H2060 0.949 . S
C2066 C2070 1.368 . S
C2067 C2048 1.429 . S
C2067 C2061 1.429 . S
C2067 C2068 1.523 1_554 S
C2068 C2049 1.368 . S
C2068 C2062 1.368 . S
C2068 C2067 1.523 1_556 S
C2069 C2053 1.429 . S
C2069 C2065 1.429 . S
C2069 C2070 1.523 . S
C2070 C2054 1.368 . S
C2070 C2066 1.368 . S
C2070 C2069 1.523 . S
H2071 C2046 0.950 . S
H2072 C2048 0.950 . S
H2073 C2049 0.949 . S
H2074 C2051 0.950 . S
H2075 C2053 0.950 . S
C2076 C2077 1.349 . S
C2076 C2078 1.327 . S
C2076 H2101 0.950 . S
C2077 C2076 1.349 . S
C2077 C2093 1.349 . S
C2078 C2076 1.327 . S
C2078 C2097 1.429 . S
C2078 H2102 0.950 . S
C2079 C2096 1.574 . S
C2079 C2098 1.368 . S
C2079 H2103 0.949 . S
H2080 C2084 0.949 . S
C2081 C2082 1.349 . S
C2081 C2083 1.327 . S
C2081 H2104 0.950 . S
C2082 C2081 1.349 . S
C2082 C2094 1.349 . S
C2083 C2081 1.327 . S
C2083 C2099 1.429 . S
C2083 H2105 0.950 . S
C2084 H2080 0.949 . S
C2084 C2092 1.574 . S
C2084 C2100 1.368 . S
H2085 C2093 0.950 . S
H2086 C2091 0.950 . S
H2087 C2092 0.949 . S
H2088 C2094 0.950 . S
H2089 C2095 0.950 . S
H2090 C2096 0.949 . S
C2091 H2086 0.950 . S
C2091 C2093 1.327 . S
C2091 C2097 1.429 . S
C2092 C2084 1.574 . S
C2092 H2087 0.949 . S
C2092 C2098 1.368 . S
C2093 C2077 1.349 . S
C2093 H2085 0.950 . S
C2093 C2091 1.327 . S
C2094 C2082 1.349 . S
C2094 H2088 0.950 . S
C2094 C2095 1.327 . S
C2095 H2089 0.950 . S
C2095 C2094 1.327 . S
C2095 C2099 1.429 . S
C2096 C2079 1.574 . S
C2096 H2090 0.949 . S
C2096 C2100 1.368 . S
C2097 C2078 1.429 . S
C2097 C2091 1.429 . S
C2097 C2098 1.523 . S
C2098 C2079 1.368 . S
C2098 C2092 1.368 . S
C2098 C2097 1.523 . S
C2099 C2083 1.429 . S
C2099 C2095 1.429 . S
C2099 C2100 1.523 . S
C2100 C2084 1.368 . S
C2100 C2096 1.368 . S
C2100 C2099 1.523 . S
H2101 C2076 0.950 . S
H2102 C2078 0.950 . S
H2103 C2079 0.949 . S
H2104 C2081 0.950 . S
H2105 C2083 0.950 . S
C2106 C2107 1.349 . S
C2106 C2108 1.327 . S
C2106 H2131 0.950 . S
C2107 C2106 1.349 . S
C2107 C2123 1.333 1_455 S
C2108 C2106 1.327 . S
C2108 C2127 1.429 . S
C2108 H2132 0.950 . S
C2109 C2126 1.574 . S
C2109 C2128 1.368 . S
C2109 H2133 0.949 1_455 S
H2110 C2114 0.949 . S
C2111 C2112 1.349 . S
C2111 C2113 1.327 . S
C2111 H2134 0.950 . S
C2112 C2111 1.349 . S
C2112 C2124 1.349 . S
C2113 C2111 1.327 . S
C2113 C2129 1.429 . S
C2113 H2135 0.977 . S
C2114 H2110 0.949 . S
C2114 C2122 1.574 . S
C2114 C2130 1.368 . S
H2115 C2123 0.966 . S
H2116 C2121 0.934 1_655 S
H2117 C2122 0.949 . S
H2118 C2124 0.950 . S
H2119 C2125 0.950 . S
H2120 C2126 0.914 1_655 S
C2121 H2116 0.934 1_455 S
C2121 C2123 1.330 1_455 S
C2121 C2127 1.444 . S
C2122 C2114 1.574 . S
C2122 H2117 0.949 . S
C2122 C2128 1.368 . S
C2123 C2107 1.333 1_655 S
C2123 H2115 0.966 . S
C2123 C2121 1.330 1_655 S
C2124 C2112 1.349 . S
C2124 H2118 0.950 . S
C2124 C2125 1.327 . S
C2125 H2119 0.950 . S
C2125 C2124 1.327 . S
C2125 C2129 1.429 . S
C2126 C2109 1.574 . S
C2126 H2120 0.914 1_455 S
C2126 C2130 1.368 . S
C2127 C2108 1.429 . S
C2127 C2121 1.444 . S
C2127 C2128 1.523 . S
C2128 C2109 1.368 . S
C2128 C2122 1.368 . S
C2128 C2127 1.523 . S
C2129 C2113 1.429 . S
C2129 C2125 1.429 . S
C2129 C2130 1.523 . S
C2130 C2114 1.368 . S
C2130 C2126 1.368 . S
C2130 C2129 1.523 . S
H2131 C2106 0.950 . S
H2132 C2108 0.950 . S
H2133 C2109 0.949 1_655 S
H2134 C2111 0.950 . S
H2135 C2113 0.977 . S
C2136 C2137 1.349 . S
C2136 C2138 1.327 . S
C2136 H2161 0.950 . S
C2137 C2136 1.349 . S
C2137 C2153 1.349 . S
C2138 C2136 1.327 . S
C2138 C2157 1.429 . S
C2138 H2162 0.950 . S
C2139 C2156 1.574 . S
C2139 C2158 1.368 . S
C2139 H2163 0.949 . S
H2140 C2144 0.949 . S
C2141 C2142 1.349 . S
C2141 C2143 1.327 . S
C2141 H2164 0.950 . S
C2142 C2141 1.349 . S
C2142 C2154 1.349 . S
C2143 C2141 1.327 . S
C2143 C2159 1.429 . S
C2143 H2165 0.950 . S
C2144 H2140 0.949 . S
C2144 C2152 1.574 . S
C2144 C2160 1.368 . S
H2145 C2153 0.950 . S
H2146 C2151 0.950 . S
H2147 C2152 0.949 . S
H2148 C2154 0.950 . S
H2149 C2155 0.950 . S
H2150 C2156 0.949 . S
C2151 H2146 0.950 . S
C2151 C2153 1.327 . S
C2151 C2157 1.429 . S
C2152 C2144 1.574 . S
C2152 H2147 0.949 . S
C2152 C2158 1.368 . S
C2153 C2137 1.349 . S
C2153 H2145 0.950 . S
C2153 C2151 1.327 . S
C2154 C2142 1.349 . S
C2154 H2148 0.950 . S
C2154 C2155 1.327 . S
C2155 H2149 0.950 . S
C2155 C2154 1.327 . S
C2155 C2159 1.429 . S
C2156 C2139 1.574 . S
C2156 H2150 0.949 . S
C2156 C2160 1.368 . S
C2157 C2138 1.429 . S
C2157 C2151 1.429 . S
C2157 C2158 1.523 . S
C2158 C2139 1.368 . S
C2158 C2152 1.368 . S
C2158 C2157 1.523 . S
C2159 C2143 1.429 . S
C2159 C2155 1.429 . S
C2159 C2160 1.523 . S
C2160 C2144 1.368 . S
C2160 C2156 1.368 . S
C2160 C2159 1.523 . S
H2161 C2136 0.950 . S
H2162 C2138 0.950 . S
H2163 C2139 0.949 . S
H2164 C2141 0.950 . S
H2165 C2143 0.950 . S
C2166 C2167 1.349 . S
C2166 C2168 1.327 . S
C2166 H2191 0.950 . S
C2167 C2166 1.349 . S
C2167 C2183 1.349 . S
C2168 C2166 1.327 . S
C2168 C2187 1.429 . S
C2168 H2192 0.950 . S
C2169 C2186 1.574 . S
C2169 C2188 1.368 . S
C2169 H2193 0.949 . S
H2170 C2174 0.949 . S
C2171 C2172 1.349 . S
C2171 C2173 1.327 . S
C2171 H2194 0.950 . S
C2172 C2171 1.349 . S
C2172 C2184 1.349 . S
C2173 C2171 1.327 . S
C2173 C2189 1.429 . S
C2173 H2195 0.950 . S
C2174 H2170 0.949 . S
C2174 C2182 1.574 . S
C2174 C2190 1.368 . S
H2175 C2183 0.950 . S
H2176 C2181 0.950 . S
H2177 C2182 0.949 . S
H2178 C2184 0.950 . S
H2179 C2185 0.950 . S
H2180 C2186 0.949 . S
C2181 H2176 0.950 . S
C2181 C2183 1.327 . S
C2181 C2187 1.429 . S
C2182 C2174 1.574 . S
C2182 H2177 0.949 . S
C2182 C2188 1.368 . S
C2183 C2167 1.349 . S
C2183 H2175 0.950 . S
C2183 C2181 1.327 . S
C2184 C2172 1.349 . S
C2184 H2178 0.950 . S
C2184 C2185 1.327 . S
C2185 H2179 0.950 . S
C2185 C2184 1.327 . S
C2185 C2189 1.429 . S
C2186 C2169 1.574 . S
C2186 H2180 0.949 . S
C2186 C2190 1.368 . S
C2187 C2168 1.429 . S
C2187 C2181 1.429 . S
C2187 C2188 1.523 . S
C2188 C2169 1.368 . S
C2188 C2182 1.368 . S
C2188 C2187 1.523 . S
C2189 C2173 1.429 . S
C2189 C2185 1.429 . S
C2189 C2190 1.523 . S
C2190 C2174 1.368 . S
C2190 C2186 1.368 . S
C2190 C2189 1.523 . S
H2191 C2166 0.950 . S
H2192 C2168 0.950 . S
H2193 C2169 0.949 . S
H2194 C2171 0.950 . S
H2195 C2173 0.950 . S
C2196 C2197 1.349 . S
C2196 C2198 1.327 . S
C2196 H2221 0.950 . S
C2197 C2196 1.349 . S
C2197 C2213 1.349 . S
C2198 C2196 1.327 . S
C2198 C2217 1.429 . S
C2198 H2222 0.950 . S
C2199 C2216 1.574 . S
C2199 C2218 1.368 . S
C2199 H2223 0.949 . S
H2200 C2204 0.949 . S
C2201 C2202 1.349 . S
C2201 C2203 1.327 . S
C2201 H2224 0.950 . S
C2202 C2201 1.349 . S
C2202 C2214 1.349 . S
C2203 C2201 1.327 . S
C2203 C2219 1.429 . S
C2203 H2225 0.950 . S
C2204 H2200 0.949 . S
C2204 C2212 1.574 . S
C2204 C2220 1.368 . S
H2205 C2213 0.950 1_565 S
H2206 C2211 0.950 . S
H2207 C2212 0.949 . S
H2208 C2214 0.950 . S
H2209 C2215 0.950 . S
H2210 C2216 0.949 . S
C2211 H2206 0.950 . S
C2211 C2213 1.327 . S
C2211 C2217 1.429 . S
C2212 C2204 1.574 . S
C2212 H2207 0.949 . S
C2212 C2218 1.368 . S
C2213 C2197 1.349 . S
C2213 H2205 0.950 1_545 S
C2213 C2211 1.327 . S
C2214 C2202 1.349 . S
C2214 H2208 0.950 . S
C2214 C2215 1.327 . S
C2215 H2209 0.950 . S
C2215 C2214 1.327 . S
C2215 C2219 1.429 . S
C2216 C2199 1.574 . S
C2216 H2210 0.949 . S
C2216 C2220 1.368 . S
C2217 C2198 1.429 . S
C2217 C2211 1.429 . S
C2217 C2218 1.523 . S
C2218 C2199 1.368 . S
C2218 C2212 1.368 . S
C2218 C2217 1.523 . S
C2219 C2203 1.429 . S
C2219 C2215 1.429 . S
C2219 C2220 1.523 . S
C2220 C2204 1.368 . S
C2220 C2216 1.368 . S
C2220 C2219 1.523 . S
H2221 C2196 0.950 . S
H2222 C2198 0.950 . S
H2223 C2199 0.949 . S
H2224 C2201 0.950 . S
H2225 C2203 0.950 . S
C2226 C2227 1.349 . S
C2226 C2228 1.327 . S
C2226 H2251 0.950 . S
C2227 C2226 1.349 . S
C2227 C2243 1.349 . S
C2228 C2226 1.327 . S
C2228 C2247 1.429 . S
C2228 H2252 0.950 . S
C2229 C2246 1.574 . S
C2229 C2248 1.368 . S
C2229 H2253 0.949 . S
H2230 C2234 0.949 . S
C2231 C2232 1.349 . S
C2231 C2233 1.327 . S
C2231 H2254 0.950 . S
C2232 C2231 1.349 . S
C2232 C2244 1.349 . S
C2233 C2231 1.327 . S
C2233 C2249 1.429 . S
C2233 H2255 0.950 . S
C2234 H2230 0.949 . S
C2234 C2242 1.574 . S
C2234 C2250 1.368 . S
H2235 C2243 0.950 . S
H2236 C2241 0.950 . S
H2237 C2242 0.949 . S
H2238 C2244 0.950 . S
H2239 C2245 0.950 . S
H2240 C2246 0.949 . S
C2241 H2236 0.950 . S
C2241 C2243 1.327 . S
C2241 C2247 1.429 . S
C2242 C2234 1.574 . S
C2242 H2237 0.949 . S
C2242 C2248 1.368 . S
C2243 C2227 1.349 . S
C2243 H2235 0.950 . S
C2243 C2241 1.327 . S
C2244 C2232 1.349 . S
C2244 H2238 0.950 . S
C2244 C2245 1.327 . S
C2245 H2239 0.950 . S
C2245 C2244 1.327 . S
C2245 C2249 1.429 . S
C2246 C2229 1.574 . S
C2246 H2240 0.949 . S
C2246 C2250 1.368 . S
C2247 C2228 1.429 . S
C2247 C2241 1.429 . S
C2247 C2248 1.523 . S
C2248 C2229 1.368 . S
C2248 C2242 1.368 . S
C2248 C2247 1.523 . S
C2249 C2233 1.429 . S
C2249 C2245 1.429 . S
C2249 C2250 1.523 . S
C2250 C2234 1.368 . S
C2250 C2246 1.368 . S
C2250 C2249 1.523 . S
H2251 C2226 0.950 . S
H2252 C2228 0.950 . S
H2253 C2229 0.949 . S
H2254 C2231 0.950 . S
H2255 C2233 0.950 . S
C2256 C2257 1.349 . S
C2256 C2258 1.327 . S
C2256 H2281 0.950 . S
C2257 C2256 1.349 . S
C2257 C2273 1.349 . S
C2258 C2256 1.327 . S
C2258 C2277 1.429 . S
C2258 H2282 0.950 . S
C2259 C2276 1.574 . S
C2259 C2278 1.368 . S
C2259 H2283 0.949 . S
H2260 C2264 0.949 . S
C2261 C2262 1.349 . S
C2261 C2263 1.327 . S
C2261 H2284 0.950 . S
C2262 C2261 1.349 . S
C2262 C2274 1.349 . S
C2263 C2261 1.327 . S
C2263 C2279 1.429 . S
C2263 H2285 0.950 . S
C2264 H2260 0.949 . S
C2264 C2272 1.574 . S
C2264 C2280 1.368 . S
H2265 C2273 0.950 . S
H2266 C2271 0.950 . S
H2267 C2272 0.949 . S
H2268 C2274 0.950 . S
H2269 C2275 0.950 . S
H2270 C2276 0.949 . S
C2271 H2266 0.950 . S
C2271 C2273 1.327 . S
C2271 C2277 1.429 . S
C2272 C2264 1.574 . S
C2272 H2267 0.949 . S
C2272 C2278 1.368 . S
C2273 C2257 1.349 . S
C2273 H2265 0.950 . S
C2273 C2271 1.327 . S
C2274 C2262 1.349 . S
C2274 H2268 0.950 . S
C2274 C2275 1.327 . S
C2275 H2269 0.950 . S
C2275 C2274 1.327 . S
C2275 C2279 1.429 . S
C2276 C2259 1.574 . S
C2276 H2270 0.949 . S
C2276 C2280 1.368 . S
C2277 C2258 1.429 . S
C2277 C2271 1.429 . S
C2277 C2278 1.523 . S
C2278 C2259 1.368 . S
C2278 C2272 1.368 . S
C2278 C2277 1.523 . S
C2279 C2263 1.429 . S
C2279 C2275 1.429 . S
C2279 C2280 1.523 . S
C2280 C2264 1.368 . S
C2280 C2276 1.368 . S
C2280 C2279 1.523 . S
H2281 C2256 0.950 . S
H2282 C2258 0.950 . S
H2283 C2259 0.949 . S
H2284 C2261 0.950 . S
H2285 C2263 0.950 . S
C2286 C2287 1.349 . S
C2286 C2288 1.327 . S
C2286 H2311 0.950 . S
C2287 C2286 1.349 . S
C2287 C2303 1.349 . S
C2288 C2286 1.327 . S
C2288 C2307 1.429 . S
C2288 H2312 0.950 . S
C2289 C2306 1.574 . S
C2289 C2308 1.368 . S
C2289 H2313 0.949 . S
H2290 C2294 0.949 . S
C2291 C2292 1.349 . S
C2291 C2293 1.327 . S
C2291 H2314 0.950 . S
C2292 C2291 1.349 . S
C2292 C2304 1.349 . S
C2293 C2291 1.327 . S
C2293 C2309 1.429 . S
C2293 H2315 0.950 . S
C2294 H2290 0.949 . S
C2294 C2302 1.574 . S
C2294 C2310 1.368 . S
H2295 C2303 0.950 . S
H2296 C2301 0.950 . S
H2297 C2302 0.949 . S
H2298 C2304 0.950 . S
H2299 C2305 0.950 . S
H2300 C2306 0.949 . S
C2301 H2296 0.950 . S
C2301 C2303 1.327 . S
C2301 C2307 1.429 . S
C2302 C2294 1.574 . S
C2302 H2297 0.949 . S
C2302 C2308 1.368 . S
C2303 C2287 1.349 . S
C2303 H2295 0.950 . S
C2303 C2301 1.327 . S
C2304 C2292 1.349 . S
C2304 H2298 0.950 . S
C2304 C2305 1.327 . S
C2305 H2299 0.950 . S
C2305 C2304 1.327 . S
C2305 C2309 1.429 . S
C2306 C2289 1.574 . S
C2306 H2300 0.949 . S
C2306 C2310 1.368 . S
C2307 C2288 1.429 . S
C2307 C2301 1.429 . S
C2307 C2308 1.523 . S
C2308 C2289 1.368 . S
C2308 C2302 1.368 . S
C2308 C2307 1.523 . S
C2309 C2293 1.429 . S
C2309 C2305 1.429 . S
C2309 C2310 1.523 . S
C2310 C2294 1.368 . S
C2310 C2306 1.368 . S
C2310 C2309 1.523 . S
H2311 C2286 0.950 . S
H2312 C2288 0.950 . S
H2313 C2289 0.949 . S
H2314 C2291 0.950 . S
H2315 C2293 0.950 . S
C2316 C2317 1.349 . S
C2316 C2318 1.327 . S
C2316 H2341 0.950 . S
C2317 C2316 1.349 . S
C2317 C2333 1.349 . S
C2318 C2316 1.327 . S
C2318 C2337 1.429 . S
C2318 H2342 0.950 . S
C2319 C2336 1.574 . S
C2319 C2338 1.368 . S
C2319 H2343 0.949 . S
H2320 C2324 0.949 . S
C2321 C2322 1.349 . S
C2321 C2323 1.327 . S
C2321 H2344 0.950 . S
C2322 C2321 1.349 . S
C2322 C2334 1.349 . S
C2323 C2321 1.327 . S
C2323 C2339 1.429 . S
C2323 H2345 0.950 . S
C2324 H2320 0.949 . S
C2324 C2332 1.574 . S
C2324 C2340 1.368 . S
H2325 C2333 0.950 . S
H2326 C2331 0.950 . S
H2327 C2332 0.949 . S
H2328 C2334 0.950 . S
H2329 C2335 0.950 . S
H2330 C2336 0.949 . S
C2331 H2326 0.950 . S
C2331 C2333 1.327 . S
C2331 C2337 1.429 . S
C2332 C2324 1.574 . S
C2332 H2327 0.949 . S
C2332 C2338 1.368 . S
C2333 C2317 1.349 . S
C2333 H2325 0.950 . S
C2333 C2331 1.327 . S
C2334 C2322 1.349 . S
C2334 H2328 0.950 . S
C2334 C2335 1.327 . S
C2335 H2329 0.950 . S
C2335 C2334 1.327 . S
C2335 C2339 1.429 . S
C2336 C2319 1.574 . S
C2336 H2330 0.949 . S
C2336 C2340 1.368 . S
C2337 C2318 1.429 . S
C2337 C2331 1.429 . S
C2337 C2338 1.523 . S
C2338 C2319 1.368 . S
C2338 C2332 1.368 . S
C2338 C2337 1.523 . S
C2339 C2323 1.429 . S
C2339 C2335 1.429 . S
C2339 C2340 1.523 . S
C2340 C2324 1.368 . S
C2340 C2336 1.368 . S
C2340 C2339 1.523 . S
H2341 C2316 0.950 . S
H2342 C2318 0.950 . S
H2343 C2319 0.949 . S
H2344 C2321 0.950 . S
H2345 C2323 0.950 . S
C2346 C2347 1.349 . S
C2346 C2348 1.327 . S
C2346 H2371 0.950 . S
C2347 C2346 1.349 . S
C2347 C2363 1.349 . S
C2348 C2346 1.327 . S
C2348 C2367 1.429 . S
C2348 H2372 0.950 . S
C2349 C2366 1.574 . S
C2349 C2368 1.368 . S
C2349 H2373 0.949 . S
H2350 C2354 0.949 . S
C2351 C2352 1.349 . S
C2351 C2353 1.327 . S
C2351 H2374 0.950 . S
C2352 C2351 1.349 . S
C2352 C2364 1.349 . S
C2353 C2351 1.327 . S
C2353 C2369 1.429 . S
C2353 H2375 0.950 . S
C2354 H2350 0.949 . S
C2354 C2362 1.574 . S
C2354 C2370 1.368 . S
H2355 C2363 0.950 1_556 S
H2356 C2361 0.950 1_556 S
H2357 C2362 0.949 . S
H2358 C2364 0.950 . S
H2359 C2365 0.950 . S
H2360 C2366 0.949 . S
C2361 H2356 0.950 1_554 S
C2361 C2363 1.327 . S
C2361 C2367 1.429 . S
C2362 C2354 1.574 . S
C2362 H2357 0.949 . S
C2362 C2368 1.368 . S
C2363 C2347 1.349 . S
C2363 H2355 0.950 1_554 S
C2363 C2361 1.327 . S
C2364 C2352 1.349 . S
C2364 H2358 0.950 . S
C2364 C2365 1.327 . S
C2365 H2359 0.950 . S
C2365 C2364 1.327 . S
C2365 C2369 1.429 . S
C2366 C2349 1.574 . S
C2366 H2360 0.949 . S
C2366 C2370 1.368 . S
C2367 C2348 1.429 . S
C2367 C2361 1.429 . S
C2367 C2368 1.523 . S
C2368 C2349 1.368 . S
C2368 C2362 1.368 . S
C2368 C2367 1.523 . S
C2369 C2353 1.429 . S
C2369 C2365 1.429 . S
C2369 C2370 1.523 . S
C2370 C2354 1.368 . S
C2370 C2366 1.368 . S
C2370 C2369 1.523 . S
H2371 C2346 0.950 . S
H2372 C2348 0.950 . S
H2373 C2349 0.949 . S
H2374 C2351 0.950 . S
H2375 C2353 0.950 . S
C2376 C2377 1.349 . S
C2376 C2378 1.327 . S
C2376 H2401 0.950 . S
C2377 C2376 1.349 . S
C2377 C2393 1.349 . S
C2378 C2376 1.327 . S
C2378 C2397 1.429 . S
C2378 H2402 0.950 . S
C2379 C2396 1.574 . S
C2379 C2398 1.368 . S
C2379 H2403 0.949 . S
H2380 C2384 0.949 . S
C2381 C2382 1.349 . S
C2381 C2383 1.327 . S
C2381 H2404 0.950 . S
C2382 C2381 1.349 . S
C2382 C2394 1.349 . S
C2383 C2381 1.327 . S
C2383 C2399 1.429 . S
C2383 H2405 0.950 . S
C2384 H2380 0.949 . S
C2384 C2392 1.574 . S
C2384 C2400 1.368 . S
H2385 C2393 0.950 . S
H2386 C2391 0.950 . S
H2387 C2392 0.949 . S
H2388 C2394 0.950 . S
H2389 C2395 0.950 . S
H2390 C2396 0.949 . S
C2391 H2386 0.950 . S
C2391 C2393 1.327 . S
C2391 C2397 1.429 . S
C2392 C2384 1.574 . S
C2392 H2387 0.949 . S
C2392 C2398 1.368 . S
C2393 C2377 1.349 . S
C2393 H2385 0.950 . S
C2393 C2391 1.327 . S
C2394 C2382 1.349 . S
C2394 H2388 0.950 . S
C2394 C2395 1.327 . S
C2395 H2389 0.950 . S
C2395 C2394 1.327 . S
C2395 C2399 1.429 . S
C2396 C2379 1.574 . S
C2396 H2390 0.949 . S
C2396 C2400 1.368 . S
C2397 C2378 1.429 . S
C2397 C2391 1.429 . S
C2397 C2398 1.523 . S
C2398 C2379 1.368 . S
C2398 C2392 1.368 . S
C2398 C2397 1.523 . S
C2399 C2383 1.429 . S
C2399 C2395 1.429 . S
C2399 C2400 1.523 . S
C2400 C2384 1.368 . S
C2400 C2396 1.368 . S
C2400 C2399 1.523 . S
H2401 C2376 0.950 . S
H2402 C2378 0.950 . S
H2403 C2379 0.949 . S
H2404 C2381 0.950 . S
H2405 C2383 0.950 . S
C2406 C2407 1.349 . S
C2406 C2408 1.327 . S
C2406 H2431 0.950 . S
C2407 C2406 1.349 . S
C2407 C2423 1.349 . S
C2408 C2406 1.327 . S
C2408 C2427 1.429 . S
C2408 H2432 0.950 . S
C2409 C2426 1.574 . S
C2409 C2428 1.368 . S
C2409 H2433 0.949 . S
H2410 C2414 0.949 . S
C2411 C2412 1.349 . S
C2411 C2413 1.327 . S
C2411 H2434 0.950 . S
C2412 C2411 1.349 . S
C2412 C2424 1.349 . S
C2413 C2411 1.327 . S
C2413 C2429 1.429 . S
C2413 H2435 0.950 . S
C2414 H2410 0.949 . S
C2414 C2422 1.574 . S
C2414 C2430 1.368 . S
H2415 C2423 0.950 . S
H2416 C2421 0.950 . S
H2417 C2422 0.949 . S
H2418 C2424 0.950 . S
H2419 C2425 0.950 . S
H2420 C2426 0.949 . S
C2421 H2416 0.950 . S
C2421 C2423 1.327 . S
C2421 C2427 1.429 . S
C2422 C2414 1.574 . S
C2422 H2417 0.949 . S
C2422 C2428 1.368 . S
C2423 C2407 1.349 . S
C2423 H2415 0.950 . S
C2423 C2421 1.327 . S
C2424 C2412 1.349 . S
C2424 H2418 0.950 . S
C2424 C2425 1.327 . S
C2425 H2419 0.950 . S
C2425 C2424 1.327 . S
C2425 C2429 1.429 . S
C2426 C2409 1.574 . S
C2426 H2420 0.949 . S
C2426 C2430 1.368 . S
C2427 C2408 1.429 . S
C2427 C2421 1.429 . S
C2427 C2428 1.523 . S
C2428 C2409 1.368 . S
C2428 C2422 1.368 . S
C2428 C2427 1.523 . S
C2429 C2413 1.429 . S
C2429 C2425 1.429 . S
C2429 C2430 1.523 . S
C2430 C2414 1.368 . S
C2430 C2426 1.368 . S
C2430 C2429 1.523 . S
H2431 C2406 0.950 . S
H2432 C2408 0.950 . S
H2433 C2409 0.949 . S
H2434 C2411 0.950 . S
H2435 C2413 0.950 . S
C2436 C2437 1.349 . S
C2436 C2438 1.327 . S
C2436 H2461 0.950 . S
C2437 C2436 1.349 . S
C2437 C2453 1.349 . S
C2438 C2436 1.327 . S
C2438 C2457 1.429 . S
C2438 H2462 0.950 . S
C2439 C2456 1.574 . S
C2439 C2458 1.368 . S
C2439 H2463 0.949 . S
H2440 C2444 0.949 . S
C2441 C2442 1.349 . S
C2441 C2443 1.327 . S
C2441 H2464 0.950 . S
C2442 C2441 1.349 . S
C2442 C2454 1.349 . S
C2443 C2441 1.327 . S
C2443 C2459 1.429 . S
C2443 H2465 0.950 . S
C2444 H2440 0.949 . S
C2444 C2452 1.574 . S
C2444 C2460 1.368 . S
H2445 C2453 0.950 . S
H2446 C2451 0.950 . S
H2447 C2452 0.949 . S
H2448 C2454 0.950 . S
H2449 C2455 0.950 . S
H2450 C2456 0.949 . S
C2451 H2446 0.950 . S
C2451 C2453 1.327 . S
C2451 C2457 1.429 . S
C2452 C2444 1.574 . S
C2452 H2447 0.949 . S
C2452 C2458 1.368 . S
C2453 C2437 1.349 . S
C2453 H2445 0.950 . S
C2453 C2451 1.327 . S
C2454 C2442 1.349 . S
C2454 H2448 0.950 . S
C2454 C2455 1.327 . S
C2455 H2449 0.950 . S
C2455 C2454 1.327 . S
C2455 C2459 1.429 . S
C2456 C2439 1.574 . S
C2456 H2450 0.949 . S
C2456 C2460 1.368 . S
C2457 C2438 1.429 . S
C2457 C2451 1.429 . S
C2457 C2458 1.523 . S
C2458 C2439 1.368 . S
C2458 C2452 1.368 . S
C2458 C2457 1.523 . S
C2459 C2443 1.429 . S
C2459 C2455 1.429 . S
C2459 C2460 1.523 . S
C2460 C2444 1.368 . S
C2460 C2456 1.368 . S
C2460 C2459 1.523 . S
H2461 C2436 0.950 . S
H2462 C2438 0.950 . S
H2463 C2439 0.949 . S
H2464 C2441 0.950 . S
H2465 C2443 0.950 . S
C2466 C2467 1.349 . S
C2466 C2468 1.327 . S
C2466 H2491 0.950 . S
C2467 C2466 1.349 . S
C2467 C2483 1.349 . S
C2468 C2466 1.327 . S
C2468 C2487 1.429 . S
C2468 H2492 0.950 . S
C2469 C2486 1.574 . S
C2469 C2488 1.368 . S
C2469 H2493 0.949 . S
H2470 C2474 0.949 . S
C2471 C2472 1.349 . S
C2471 C2473 1.327 . S
C2471 H2494 0.950 . S
C2472 C2471 1.349 . S
C2472 C2484 1.349 . S
C2473 C2471 1.327 . S
C2473 C2489 1.429 . S
C2473 H2495 0.950 . S
C2474 H2470 0.949 . S
C2474 C2482 1.574 . S
C2474 C2490 1.368 . S
H2475 C2483 0.950 . S
H2476 C2481 0.950 . S
H2477 C2482 0.949 . S
H2478 C2484 0.950 . S
H2479 C2485 0.950 . S
H2480 C2486 0.949 . S
C2481 H2476 0.950 . S
C2481 C2483 1.327 . S
C2481 C2487 1.429 . S
C2482 C2474 1.574 . S
C2482 H2477 0.949 . S
C2482 C2488 1.368 . S
C2483 C2467 1.349 . S
C2483 H2475 0.950 . S
C2483 C2481 1.327 . S
C2484 C2472 1.349 . S
C2484 H2478 0.950 . S
C2484 C2485 1.327 . S
C2485 H2479 0.950 . S
C2485 C2484 1.327 . S
C2485 C2489 1.429 . S
C2486 C2469 1.574 . S
C2486 H2480 0.949 . S
C2486 C2490 1.368 . S
C2487 C2468 1.429 . S
C2487 C2481 1.429 . S
C2487 C2488 1.523 . S
C2488 C2469 1.368 . S
C2488 C2482 1.368 . S
C2488 C2487 1.523 . S
C2489 C2473 1.429 . S
C2489 C2485 1.429 . S
C2489 C2490 1.523 . S
C2490 C2474 1.368 . S
C2490 C2486 1.368 . S
C2490 C2489 1.523 . S
H2491 C2466 0.950 . S
H2492 C2468 0.950 . S
H2493 C2469 0.949 . S
H2494 C2471 0.950 . S
H2495 C2473 0.950 . S
C2496 C2497 1.349 . S
C2496 C2498 1.327 . S
C2496 H2521 0.950 . S
C2497 C2496 1.349 . S
C2497 C2513 1.349 . S
C2498 C2496 1.327 . S
C2498 C2517 1.429 . S
C2498 H2522 0.950 . S
C2499 C2516 1.574 . S
C2499 C2518 1.368 . S
C2499 H2523 0.949 . S
H2500 C2504 0.949 . S
C2501 C2502 1.349 . S
C2501 C2503 1.327 . S
C2501 H2524 0.950 . S
C2502 C2501 1.349 . S
C2502 C2514 1.349 . S
C2503 C2501 1.327 . S
C2503 C2519 1.429 . S
C2503 H2525 0.950 . S
C2504 H2500 0.949 . S
C2504 C2512 1.574 . S
C2504 C2520 1.368 . S
H2505 C2513 0.950 . S
H2506 C2511 0.950 . S
H2507 C2512 0.949 . S
H2508 C2514 0.950 . S
H2509 C2515 0.950 . S
H2510 C2516 0.949 . S
C2511 H2506 0.950 . S
C2511 C2513 1.327 . S
C2511 C2517 1.429 . S
C2512 C2504 1.574 . S
C2512 H2507 0.949 . S
C2512 C2518 1.368 . S
C2513 C2497 1.349 . S
C2513 H2505 0.950 . S
C2513 C2511 1.327 . S
C2514 C2502 1.349 . S
C2514 H2508 0.950 . S
C2514 C2515 1.327 . S
C2515 H2509 0.950 . S
C2515 C2514 1.327 . S
C2515 C2519 1.429 . S
C2516 C2499 1.574 . S
C2516 H2510 0.949 . S
C2516 C2520 1.368 . S
C2517 C2498 1.429 . S
C2517 C2511 1.429 . S
C2517 C2518 1.523 . S
C2518 C2499 1.368 . S
C2518 C2512 1.368 . S
C2518 C2517 1.523 . S
C2519 C2503 1.429 . S
C2519 C2515 1.429 . S
C2519 C2520 1.523 . S
C2520 C2504 1.368 . S
C2520 C2516 1.368 . S
C2520 C2519 1.523 . S
H2521 C2496 0.950 . S
H2522 C2498 0.950 . S
H2523 C2499 0.949 . S
H2524 C2501 0.950 . S
H2525 C2503 0.950 . S
C2526 C2527 1.349 . S
C2526 C2528 1.327 . S
C2526 H2551 0.950 . S
C2527 C2526 1.349 . S
C2527 C2543 1.349 . S
C2528 C2526 1.327 . S
C2528 C2547 1.429 . S
C2528 H2552 0.950 . S
C2529 C2546 1.574 . S
C2529 C2548 1.368 . S
C2529 H2553 0.949 . S
H2530 C2534 0.949 . S
C2531 C2532 1.349 . S
C2531 C2533 1.327 . S
C2531 H2554 0.950 . S
C2532 C2531 1.349 . S
C2532 C2544 1.349 . S
C2533 C2531 1.327 . S
C2533 C2549 1.429 . S
C2533 H2555 0.950 . S
C2534 H2530 0.949 . S
C2534 C2542 1.574 . S
C2534 C2550 1.368 . S
H2535 C2543 0.950 . S
H2536 C2541 0.950 . S
H2537 C2542 0.949 . S
H2538 C2544 0.950 . S
H2539 C2545 0.950 . S
H2540 C2546 0.949 . S
C2541 H2536 0.950 . S
C2541 C2543 1.327 . S
C2541 C2547 1.429 . S
C2542 C2534 1.574 . S
C2542 H2537 0.949 . S
C2542 C2548 1.368 . S
C2543 C2527 1.349 . S
C2543 H2535 0.950 . S
C2543 C2541 1.327 . S
C2544 C2532 1.349 . S
C2544 H2538 0.950 . S
C2544 C2545 1.327 . S
C2545 H2539 0.950 . S
C2545 C2544 1.327 . S
C2545 C2549 1.429 . S
C2546 C2529 1.574 . S
C2546 H2540 0.949 . S
C2546 C2550 1.368 . S
C2547 C2528 1.429 . S
C2547 C2541 1.429 . S
C2547 C2548 1.523 . S
C2548 C2529 1.368 . S
C2548 C2542 1.368 . S
C2548 C2547 1.523 . S
C2549 C2533 1.429 . S
C2549 C2545 1.429 . S
C2549 C2550 1.523 . S
C2550 C2534 1.368 . S
C2550 C2546 1.368 . S
C2550 C2549 1.523 . S
H2551 C2526 0.950 . S
H2552 C2528 0.950 . S
H2553 C2529 0.949 . S
H2554 C2531 0.950 . S
H2555 C2533 0.950 . S
C2556 C2557 1.349 . S
C2556 C2558 1.327 . S
C2556 H2581 0.950 1_565 S
C2557 C2556 1.349 . S
C2557 C2573 1.349 . S
C2558 C2556 1.327 . S
C2558 C2577 1.429 . S
C2558 H2582 0.950 . S
C2559 C2576 1.574 . S
C2559 C2578 1.368 . S
C2559 H2583 0.949 . S
H2560 C2564 0.949 . S
C2561 C2562 1.349 . S
C2561 C2563 1.327 . S
C2561 H2584 0.950 . S
C2562 C2561 1.349 . S
C2562 C2574 1.349 . S
C2563 C2561 1.327 . S
C2563 C2579 1.429 . S
C2563 H2585 0.950 . S
C2564 H2560 0.949 . S
C2564 C2572 1.574 . S
C2564 C2580 1.368 . S
H2565 C2573 0.950 . S
H2566 C2571 0.950 . S
H2567 C2572 0.949 . S
H2568 C2574 0.950 . S
H2569 C2575 0.950 . S
H2570 C2576 0.949 . S
C2571 H2566 0.950 . S
C2571 C2573 1.327 . S
C2571 C2577 1.429 . S
C2572 C2564 1.574 . S
C2572 H2567 0.949 . S
C2572 C2578 1.368 . S
C2573 C2557 1.349 . S
C2573 H2565 0.950 . S
C2573 C2571 1.327 . S
C2574 C2562 1.349 . S
C2574 H2568 0.950 . S
C2574 C2575 1.327 . S
C2575 H2569 0.950 . S
C2575 C2574 1.327 . S
C2575 C2579 1.429 . S
C2576 C2559 1.574 . S
C2576 H2570 0.949 . S
C2576 C2580 1.368 . S
C2577 C2558 1.429 . S
C2577 C2571 1.429 . S
C2577 C2578 1.523 . S
C2578 C2559 1.368 . S
C2578 C2572 1.368 . S
C2578 C2577 1.523 . S
C2579 C2563 1.429 . S
C2579 C2575 1.429 . S
C2579 C2580 1.523 . S
C2580 C2564 1.368 . S
C2580 C2576 1.368 . S
C2580 C2579 1.523 . S
H2581 C2556 0.950 1_545 S
H2582 C2558 0.950 . S
H2583 C2559 0.949 . S
H2584 C2561 0.950 . S
H2585 C2563 0.950 . S
C2586 C2587 1.349 . S
C2586 C2588 1.327 . S
C2586 H2611 0.950 . S
C2587 C2586 1.349 . S
C2587 C2603 1.349 . S
C2588 C2586 1.327 . S
C2588 C2607 1.429 . S
C2588 H2612 0.950 . S
C2589 C2606 1.574 . S
C2589 C2608 1.368 . S
C2589 H2613 0.949 . S
H2590 C2594 0.949 . S
C2591 C2592 1.349 . S
C2591 C2593 1.327 . S
C2591 H2614 0.950 . S
C2592 C2591 1.349 . S
C2592 C2604 1.349 . S
C2593 C2591 1.327 . S
C2593 C2609 1.429 . S
C2593 H2615 0.950 . S
C2594 H2590 0.949 . S
C2594 C2602 1.574 . S
C2594 C2610 1.368 . S
H2595 C2603 0.950 . S
H2596 C2601 0.950 . S
H2597 C2602 0.949 . S
H2598 C2604 0.950 . S
H2599 C2605 0.950 . S
H2600 C2606 0.949 . S
C2601 H2596 0.950 . S
C2601 C2603 1.327 . S
C2601 C2607 1.429 . S
C2602 C2594 1.574 . S
C2602 H2597 0.949 . S
C2602 C2608 1.368 . S
C2603 C2587 1.349 . S
C2603 H2595 0.950 . S
C2603 C2601 1.327 . S
C2604 C2592 1.349 . S
C2604 H2598 0.950 . S
C2604 C2605 1.327 . S
C2605 H2599 0.950 . S
C2605 C2604 1.327 . S
C2605 C2609 1.429 . S
C2606 C2589 1.574 . S
C2606 H2600 0.949 . S
C2606 C2610 1.368 . S
C2607 C2588 1.429 . S
C2607 C2601 1.429 . S
C2607 C2608 1.523 . S
C2608 C2589 1.368 . S
C2608 C2602 1.368 . S
C2608 C2607 1.523 . S
C2609 C2593 1.429 . S
C2609 C2605 1.429 . S
C2609 C2610 1.523 . S
C2610 C2594 1.368 . S
C2610 C2606 1.368 . S
C2610 C2609 1.523 . S
H2611 C2586 0.950 . S
H2612 C2588 0.950 . S
H2613 C2589 0.949 . S
H2614 C2591 0.950 . S
H2615 C2593 0.950 . S
C2616 C2617 1.349 . S
C2616 C2618 1.327 . S
C2616 H2641 0.950 . S
C2617 C2616 1.349 . S
C2617 C2633 1.349 . S
C2618 C2616 1.327 . S
C2618 C2637 1.429 . S
C2618 H2642 0.950 . S
C2619 C2636 1.574 . S
C2619 C2638 1.368 . S
C2619 H2643 0.949 . S
H2620 C2624 0.949 . S
C2621 C2622 1.349 . S
C2621 C2623 1.327 . S
C2621 H2644 0.950 . S
C2622 C2621 1.349 . S
C2622 C2634 1.349 . S
C2623 C2621 1.327 . S
C2623 C2639 1.429 . S
C2623 H2645 0.950 . S
C2624 H2620 0.949 . S
C2624 C2632 1.574 . S
C2624 C2640 1.368 . S
H2625 C2633 0.950 . S
H2626 C2631 0.950 . S
H2627 C2632 0.949 . S
H2628 C2634 0.950 . S
H2629 C2635 0.950 . S
H2630 C2636 0.949 . S
C2631 H2626 0.950 . S
C2631 C2633 1.327 . S
C2631 C2637 1.429 . S
C2632 C2624 1.574 . S
C2632 H2627 0.949 . S
C2632 C2638 1.368 . S
C2633 C2617 1.349 . S
C2633 H2625 0.950 . S
C2633 C2631 1.327 . S
C2634 C2622 1.349 . S
C2634 H2628 0.950 . S
C2634 C2635 1.327 . S
C2635 H2629 0.950 . S
C2635 C2634 1.327 . S
C2635 C2639 1.429 . S
C2636 C2619 1.574 . S
C2636 H2630 0.949 . S
C2636 C2640 1.368 . S
C2637 C2618 1.429 . S
C2637 C2631 1.429 . S
C2637 C2638 1.523 . S
C2638 C2619 1.368 . S
C2638 C2632 1.368 . S
C2638 C2637 1.523 . S
C2639 C2623 1.429 . S
C2639 C2635 1.429 . S
C2639 C2640 1.523 . S
C2640 C2624 1.368 . S
C2640 C2636 1.368 . S
C2640 C2639 1.523 . S
H2641 C2616 0.950 . S
H2642 C2618 0.950 . S
H2643 C2619 0.949 . S
H2644 C2621 0.950 . S
H2645 C2623 0.950 . S
C2646 C2647 1.349 . S
C2646 C2648 1.327 . S
C2646 H2671 0.950 . S
C2647 C2646 1.349 . S
C2647 C2663 1.349 . S
C2648 C2646 1.327 . S
C2648 C2667 1.429 . S
C2648 H2672 0.950 . S
C2649 C2666 1.574 . S
C2649 C2668 1.368 . S
C2649 H2673 0.949 . S
H2650 C2654 0.949 . S
C2651 C2652 1.349 . S
C2651 C2653 1.327 . S
C2651 H2674 0.950 . S
C2652 C2651 1.349 . S
C2652 C2664 1.349 . S
C2653 C2651 1.327 . S
C2653 C2669 1.429 . S
C2653 H2675 0.950 . S
C2654 H2650 0.949 . S
C2654 C2662 1.574 . S
C2654 C2670 1.368 . S
H2655 C2663 0.950 . S
H2656 C2661 0.950 . S
H2657 C2662 0.949 . S
H2658 C2664 0.950 . S
H2659 C2665 0.950 . S
H2660 C2666 0.949 . S
C2661 H2656 0.950 . S
C2661 C2663 1.327 . S
C2661 C2667 1.429 . S
C2662 C2654 1.574 . S
C2662 H2657 0.949 . S
C2662 C2668 1.368 . S
C2663 C2647 1.349 . S
C2663 H2655 0.950 . S
C2663 C2661 1.327 . S
C2664 C2652 1.349 . S
C2664 H2658 0.950 . S
C2664 C2665 1.327 . S
C2665 H2659 0.950 . S
C2665 C2664 1.327 . S
C2665 C2669 1.429 . S
C2666 C2649 1.574 . S
C2666 H2660 0.949 . S
C2666 C2670 1.368 . S
C2667 C2648 1.429 . S
C2667 C2661 1.429 . S
C2667 C2668 1.523 . S
C2668 C2649 1.368 . S
C2668 C2662 1.368 . S
C2668 C2667 1.523 . S
C2669 C2653 1.429 . S
C2669 C2665 1.429 . S
C2669 C2670 1.523 . S
C2670 C2654 1.368 . S
C2670 C2666 1.368 . S
C2670 C2669 1.523 . S
H2671 C2646 0.950 . S
H2672 C2648 0.950 . S
H2673 C2649 0.949 . S
H2674 C2651 0.950 . S
H2675 C2653 0.950 . S
C2676 C2677 1.349 . S
C2676 C2678 1.327 . S
C2676 H2701 0.950 . S
C2677 C2676 1.349 . S
C2677 C2693 1.349 . S
C2678 C2676 1.327 . S
C2678 C2697 1.429 . S
C2678 H2702 0.950 . S
C2679 C2696 1.574 . S
C2679 C2698 1.368 . S
C2679 H2703 0.949 . S
H2680 C2684 0.949 . S
C2681 C2682 1.349 . S
C2681 C2683 1.327 . S
C2681 H2704 0.950 . S
C2682 C2681 1.349 . S
C2682 C2694 1.349 . S
C2683 C2681 1.327 . S
C2683 C2699 1.429 . S
C2683 H2705 0.950 . S
C2684 H2680 0.949 . S
C2684 C2692 1.574 . S
C2684 C2700 1.368 . S
H2685 C2693 0.950 . S
H2686 C2691 0.950 . S
H2687 C2692 0.949 . S
H2688 C2694 0.950 . S
H2689 C2695 0.950 . S
H2690 C2696 0.949 . S
C2691 H2686 0.950 . S
C2691 C2693 1.327 . S
C2691 C2697 1.429 . S
C2692 C2684 1.574 . S
C2692 H2687 0.949 . S
C2692 C2698 1.368 . S
C2693 C2677 1.349 . S
C2693 H2685 0.950 . S
C2693 C2691 1.327 . S
C2694 C2682 1.349 . S
C2694 H2688 0.950 . S
C2694 C2695 1.327 . S
C2695 H2689 0.950 . S
C2695 C2694 1.327 . S
C2695 C2699 1.429 . S
C2696 C2679 1.574 . S
C2696 H2690 0.949 . S
C2696 C2700 1.368 . S
C2697 C2678 1.429 . S
C2697 C2691 1.429 . S
C2697 C2698 1.523 . S
C2698 C2679 1.368 . S
C2698 C2692 1.368 . S
C2698 C2697 1.523 . S
C2699 C2683 1.429 . S
C2699 C2695 1.429 . S
C2699 C2700 1.523 . S
C2700 C2684 1.368 . S
C2700 C2696 1.368 . S
C2700 C2699 1.523 . S
H2701 C2676 0.950 . S
H2702 C2678 0.950 . S
H2703 C2679 0.949 . S
H2704 C2681 0.950 . S
H2705 C2683 0.950 . S
C2706 C2707 1.349 . S
C2706 C2708 1.327 . S
C2706 H2731 0.950 . S
C2707 C2706 1.349 . S
C2707 C2723 1.349 . S
C2708 C2706 1.327 . S
C2708 C2727 1.429 . S
C2708 H2732 0.950 . S
C2709 C2726 1.574 . S
C2709 C2728 1.368 . S
C2709 H2733 0.949 . S
H2710 C2714 0.949 . S
C2711 C2712 1.349 . S
C2711 C2713 1.327 . S
C2711 H2734 0.950 . S
C2712 C2711 1.349 . S
C2712 C2724 1.349 . S
C2713 C2711 1.327 . S
C2713 C2729 1.429 . S
C2713 H2735 0.950 . S
C2714 H2710 0.949 . S
C2714 C2722 1.574 . S
C2714 C2730 1.368 . S
H2715 C2723 0.950 . S
H2716 C2721 0.950 . S
H2717 C2722 0.949 . S
H2718 C2724 0.950 . S
H2719 C2725 0.950 . S
H2720 C2726 0.949 . S
C2721 H2716 0.950 . S
C2721 C2723 1.327 . S
C2721 C2727 1.429 . S
C2722 C2714 1.574 . S
C2722 H2717 0.949 . S
C2722 C2728 1.368 . S
C2723 C2707 1.349 . S
C2723 H2715 0.950 . S
C2723 C2721 1.327 . S
C2724 C2712 1.349 . S
C2724 H2718 0.950 . S
C2724 C2725 1.327 . S
C2725 H2719 0.950 . S
C2725 C2724 1.327 . S
C2725 C2729 1.429 . S
C2726 C2709 1.574 . S
C2726 H2720 0.949 . S
C2726 C2730 1.368 . S
C2727 C2708 1.429 . S
C2727 C2721 1.429 . S
C2727 C2728 1.523 . S
C2728 C2709 1.368 . S
C2728 C2722 1.368 . S
C2728 C2727 1.523 . S
C2729 C2713 1.429 . S
C2729 C2725 1.429 . S
C2729 C2730 1.523 . S
C2730 C2714 1.368 . S
C2730 C2726 1.368 . S
C2730 C2729 1.523 . S
H2731 C2706 0.950 . S
H2732 C2708 0.950 . S
H2733 C2709 0.949 . S
H2734 C2711 0.950 . S
H2735 C2713 0.950 . S
C2736 C2737 1.349 . S
C2736 C2738 1.327 . S
C2736 H2761 0.950 . S
C2737 C2736 1.349 . S
C2737 C2753 1.349 . S
C2738 C2736 1.327 . S
C2738 C2757 1.429 . S
C2738 H2762 0.950 . S
C2739 C2756 1.574 . S
C2739 C2758 1.368 . S
C2739 H2763 0.949 . S
H2740 C2744 0.949 . S
C2741 C2742 1.349 . S
C2741 C2743 1.327 . S
C2741 H2764 0.950 . S
C2742 C2741 1.349 . S
C2742 C2754 1.349 . S
C2743 C2741 1.327 . S
C2743 C2759 1.429 . S
C2743 H2765 0.950 . S
C2744 H2740 0.949 . S
C2744 C2752 1.574 . S
C2744 C2760 1.368 . S
H2745 C2753 0.950 . S
H2746 C2751 0.950 . S
H2747 C2752 0.949 . S
H2748 C2754 0.950 . S
H2749 C2755 0.950 . S
H2750 C2756 0.949 . S
C2751 H2746 0.950 . S
C2751 C2753 1.327 . S
C2751 C2757 1.429 . S
C2752 C2744 1.574 . S
C2752 H2747 0.949 . S
C2752 C2758 1.368 . S
C2753 C2737 1.349 . S
C2753 H2745 0.950 . S
C2753 C2751 1.327 . S
C2754 C2742 1.349 . S
C2754 H2748 0.950 . S
C2754 C2755 1.327 . S
C2755 H2749 0.950 . S
C2755 C2754 1.327 . S
C2755 C2759 1.429 . S
C2756 C2739 1.574 . S
C2756 H2750 0.949 . S
C2756 C2760 1.368 . S
C2757 C2738 1.429 . S
C2757 C2751 1.429 . S
C2757 C2758 1.523 . S
C2758 C2739 1.368 . S
C2758 C2752 1.368 . S
C2758 C2757 1.523 . S
C2759 C2743 1.429 . S
C2759 C2755 1.429 . S
C2759 C2760 1.523 . S
C2760 C2744 1.368 . S
C2760 C2756 1.368 . S
C2760 C2759 1.523 . S
H2761 C2736 0.950 . S
H2762 C2738 0.950 . S
H2763 C2739 0.949 . S
H2764 C2741 0.950 . S
H2765 C2743 0.950 . S
C2766 C2767 1.349 . S
C2766 C2768 1.327 . S
C2766 H2791 0.950 . S
C2767 C2766 1.349 . S
C2767 C2783 1.349 . S
C2768 C2766 1.327 . S
C2768 C2787 1.429 . S
C2768 H2792 0.950 . S
C2769 C2786 1.574 . S
C2769 C2788 1.368 . S
C2769 H2793 0.949 . S
H2770 C2774 0.949 . S
C2771 C2772 1.349 . S
C2771 C2773 1.327 . S
C2771 H2794 0.950 . S
C2772 C2771 1.349 . S
C2772 C2784 1.349 . S
C2773 C2771 1.327 . S
C2773 C2789 1.429 . S
C2773 H2795 0.950 . S
C2774 H2770 0.949 . S
C2774 C2782 1.574 . S
C2774 C2790 1.368 . S
H2775 C2783 0.950 . S
H2776 C2781 0.950 . S
H2777 C2782 0.949 . S
H2778 C2784 0.950 . S
H2779 C2785 0.950 . S
H2780 C2786 0.949 . S
C2781 H2776 0.950 . S
C2781 C2783 1.327 . S
C2781 C2787 1.429 . S
C2782 C2774 1.574 . S
C2782 H2777 0.949 . S
C2782 C2788 1.368 . S
C2783 C2767 1.349 . S
C2783 H2775 0.950 . S
C2783 C2781 1.327 . S
C2784 C2772 1.349 . S
C2784 H2778 0.950 . S
C2784 C2785 1.327 . S
C2785 H2779 0.950 . S
C2785 C2784 1.327 . S
C2785 C2789 1.429 . S
C2786 C2769 1.574 . S
C2786 H2780 0.949 . S
C2786 C2790 1.368 . S
C2787 C2768 1.429 . S
C2787 C2781 1.429 . S
C2787 C2788 1.523 . S
C2788 C2769 1.368 . S
C2788 C2782 1.368 . S
C2788 C2787 1.523 . S
C2789 C2773 1.429 . S
C2789 C2785 1.429 . S
C2789 C2790 1.523 . S
C2790 C2774 1.368 . S
C2790 C2786 1.368 . S
C2790 C2789 1.523 . S
H2791 C2766 0.950 . S
H2792 C2768 0.950 . S
H2793 C2769 0.949 . S
H2794 C2771 0.950 . S
H2795 C2773 0.950 . S
C2796 C2797 1.349 . S
C2796 C2798 1.327 . S
C2796 H2821 0.950 . S
C2797 C2796 1.349 . S
C2797 C2813 1.349 . S
C2798 C2796 1.327 . S
C2798 C2817 1.429 . S
C2798 H2822 0.950 . S
C2799 C2816 1.574 . S
C2799 C2818 1.368 . S
C2799 H2823 0.949 . S
H2800 C2804 0.949 . S
C2801 C2802 1.349 . S
C2801 C2803 1.327 . S
C2801 H2824 0.950 . S
C2802 C2801 1.349 . S
C2802 C2814 1.349 . S
C2803 C2801 1.327 . S
C2803 C2819 1.429 . S
C2803 H2825 0.950 . S
C2804 H2800 0.949 . S
C2804 C2812 1.574 . S
C2804 C2820 1.368 . S
H2805 C2813 0.950 . S
H2806 C2811 0.950 . S
H2807 C2812 0.949 . S
H2808 C2814 0.950 . S
H2809 C2815 0.950 . S
H2810 C2816 0.949 . S
C2811 H2806 0.950 . S
C2811 C2813 1.327 . S
C2811 C2817 1.429 . S
C2812 C2804 1.574 . S
C2812 H2807 0.949 . S
C2812 C2818 1.368 . S
C2813 C2797 1.349 . S
C2813 H2805 0.950 . S
C2813 C2811 1.327 . S
C2814 C2802 1.349 . S
C2814 H2808 0.950 . S
C2814 C2815 1.327 . S
C2815 H2809 0.950 . S
C2815 C2814 1.327 . S
C2815 C2819 1.429 . S
C2816 C2799 1.574 . S
C2816 H2810 0.949 . S
C2816 C2820 1.368 . S
C2817 C2798 1.429 . S
C2817 C2811 1.429 . S
C2817 C2818 1.523 . S
C2818 C2799 1.368 . S
C2818 C2812 1.368 . S
C2818 C2817 1.523 . S
C2819 C2803 1.429 . S
C2819 C2815 1.429 . S
C2819 C2820 1.523 . S
C2820 C2804 1.368 . S
C2820 C2816 1.368 . S
C2820 C2819 1.523 . S
H2821 C2796 0.950 . S
H2822 C2798 0.950 . S
H2823 C2799 0.949 . S
H2824 C2801 0.950 . S
H2825 C2803 0.950 . S
C2826 C2827 1.349 . S
C2826 C2828 1.327 . S
C2826 H2851 0.950 1_655 S
C2827 C2826 1.349 . S
C2827 C2843 1.349 . S
C2828 C2826 1.327 . S
C2828 C2847 1.429 . S
C2828 H2852 0.950 . S
C2829 C2846 1.574 . S
C2829 C2848 1.368 . S
C2829 H2853 0.949 . S
H2830 C2834 0.949 . S
C2831 C2832 1.349 . S
C2831 C2833 1.327 . S
C2831 H2854 0.950 . S
C2832 C2831 1.349 . S
C2832 C2844 1.349 . S
C2833 C2831 1.327 . S
C2833 C2849 1.429 . S
C2833 H2855 0.950 . S
C2834 H2830 0.949 . S
C2834 C2842 1.574 . S
C2834 C2850 1.368 . S
H2835 C2843 0.950 . S
H2836 C2841 0.950 . S
H2837 C2842 0.949 . S
H2838 C2844 0.950 . S
H2839 C2845 0.950 . S
H2840 C2846 0.949 . S
C2841 H2836 0.950 . S
C2841 C2843 1.327 . S
C2841 C2847 1.429 . S
C2842 C2834 1.574 . S
C2842 H2837 0.949 . S
C2842 C2848 1.368 . S
C2843 C2827 1.349 . S
C2843 H2835 0.950 . S
C2843 C2841 1.327 . S
C2844 C2832 1.349 . S
C2844 H2838 0.950 . S
C2844 C2845 1.327 . S
C2845 H2839 0.950 . S
C2845 C2844 1.327 . S
C2845 C2849 1.429 . S
C2846 C2829 1.574 . S
C2846 H2840 0.949 . S
C2846 C2850 1.368 . S
C2847 C2828 1.429 . S
C2847 C2841 1.429 . S
C2847 C2848 1.523 . S
C2848 C2829 1.368 . S
C2848 C2842 1.368 . S
C2848 C2847 1.523 . S
C2849 C2833 1.429 . S
C2849 C2845 1.429 . S
C2849 C2850 1.523 . S
C2850 C2834 1.368 . S
C2850 C2846 1.368 . S
C2850 C2849 1.523 . S
H2851 C2826 0.950 1_455 S
H2852 C2828 0.950 . S
H2853 C2829 0.949 . S
H2854 C2831 0.950 . S
H2855 C2833 0.950 . S
C2856 C2857 1.349 . S
C2856 C2858 1.327 . S
C2856 H2881 0.950 . S
C2857 C2856 1.349 . S
C2857 C2873 1.349 . S
C2858 C2856 1.327 . S
C2858 C2877 1.429 . S
C2858 H2882 0.950 . S
C2859 C2876 1.574 . S
C2859 C2878 1.368 . S
C2859 H2883 0.949 . S
H2860 C2864 0.949 . S
C2861 C2862 1.349 . S
C2861 C2863 1.327 . S
C2861 H2884 0.950 . S
C2862 C2861 1.349 . S
C2862 C2874 1.349 . S
C2863 C2861 1.327 . S
C2863 C2879 1.429 . S
C2863 H2885 0.950 . S
C2864 H2860 0.949 . S
C2864 C2872 1.574 . S
C2864 C2880 1.368 . S
H2865 C2873 0.950 . S
H2866 C2871 0.950 . S
H2867 C2872 0.949 . S
H2868 C2874 0.950 . S
H2869 C2875 0.950 . S
H2870 C2876 0.949 . S
C2871 H2866 0.950 . S
C2871 C2873 1.327 . S
C2871 C2877 1.429 . S
C2872 C2864 1.574 . S
C2872 H2867 0.949 . S
C2872 C2878 1.368 . S
C2873 C2857 1.349 . S
C2873 H2865 0.950 . S
C2873 C2871 1.327 . S
C2874 C2862 1.349 . S
C2874 H2868 0.950 . S
C2874 C2875 1.327 . S
C2875 H2869 0.950 . S
C2875 C2874 1.327 . S
C2875 C2879 1.429 . S
C2876 C2859 1.574 . S
C2876 H2870 0.949 . S
C2876 C2880 1.368 . S
C2877 C2858 1.429 . S
C2877 C2871 1.429 . S
C2877 C2878 1.523 . S
C2878 C2859 1.368 . S
C2878 C2872 1.368 . S
C2878 C2877 1.523 . S
C2879 C2863 1.429 . S
C2879 C2875 1.429 . S
C2879 C2880 1.523 . S
C2880 C2864 1.368 . S
C2880 C2876 1.368 . S
C2880 C2879 1.523 . S
H2881 C2856 0.950 . S
H2882 C2858 0.950 . S
H2883 C2859 0.949 . S
H2884 C2861 0.950 . S
H2885 C2863 0.950 . S
C2886 C2887 1.349 . S
C2886 C2888 1.327 . S
C2886 H2911 0.950 . S
C2887 C2886 1.349 . S
C2887 C2903 1.349 . S
C2888 C2886 1.327 . S
C2888 C2907 1.429 . S
C2888 H2912 0.950 . S
C2889 C2906 1.574 . S
C2889 C2908 1.368 . S
C2889 H2913 0.949 . S
H2890 C2894 0.949 . S
C2891 C2892 1.349 . S
C2891 C2893 1.327 . S
C2891 H2914 0.950 . S
C2892 C2891 1.349 . S
C2892 C2904 1.349 . S
C2893 C2891 1.327 . S
C2893 C2909 1.429 . S
C2893 H2915 0.950 . S
C2894 H2890 0.949 . S
C2894 C2902 1.574 . S
C2894 C2910 1.368 . S
H2895 C2903 0.950 . S
H2896 C2901 0.950 . S
H2897 C2902 0.949 . S
H2898 C2904 0.950 . S
H2899 C2905 0.950 . S
H2900 C2906 0.949 . S
C2901 H2896 0.950 . S
C2901 C2903 1.327 . S
C2901 C2907 1.429 . S
C2902 C2894 1.574 . S
C2902 H2897 0.949 . S
C2902 C2908 1.368 . S
C2903 C2887 1.349 . S
C2903 H2895 0.950 . S
C2903 C2901 1.327 . S
C2904 C2892 1.349 . S
C2904 H2898 0.950 . S
C2904 C2905 1.327 . S
C2905 H2899 0.950 . S
C2905 C2904 1.327 . S
C2905 C2909 1.429 . S
C2906 C2889 1.574 . S
C2906 H2900 0.949 . S
C2906 C2910 1.368 . S
C2907 C2888 1.429 . S
C2907 C2901 1.429 . S
C2907 C2908 1.523 . S
C2908 C2889 1.368 . S
C2908 C2902 1.368 . S
C2908 C2907 1.523 . S
C2909 C2893 1.429 . S
C2909 C2905 1.429 . S
C2909 C2910 1.523 . S
C2910 C2894 1.368 . S
C2910 C2906 1.368 . S
C2910 C2909 1.523 . S
H2911 C2886 0.950 . S
H2912 C2888 0.950 . S
H2913 C2889 0.949 . S
H2914 C2891 0.950 . S
H2915 C2893 0.950 . S
C2916 C2917 1.349 . S
C2916 C2918 1.327 . S
C2916 H2941 0.950 . S
C2917 C2916 1.349 . S
C2917 C2933 1.349 1_565 S
C2918 C2916 1.327 . S
C2918 C2937 1.429 . S
C2918 H2942 0.950 . S
C2919 C2936 1.574 . S
C2919 C2938 1.368 1_545 S
C2919 H2943 0.949 . S
H2920 C2924 0.949 . S
C2921 C2922 1.351 . S
C2921 C2923 1.318 1_565 S
C2921 H2944 0.949 1_565 S
C2922 C2921 1.351 . S
C2922 C2934 1.349 . S
C2923 C2921 1.318 1_545 S
C2923 C2939 1.402 1_545 S
C2923 H2945 0.987 . S
C2924 H2920 0.949 . S
C2924 C2932 1.574 . S
C2924 C2940 1.368 . S
H2925 C2933 0.950 . S
H2926 C2931 0.950 . S
H2927 C2932 0.949 . S
H2928 C2934 0.950 . S
H2929 C2935 0.950 . S
H2930 C2936 0.949 . S
C2931 H2926 0.950 . S
C2931 C2933 1.327 . S
C2931 C2937 1.429 1_545 S
C2932 C2924 1.574 . S
C2932 H2927 0.949 . S
C2932 C2938 1.368 . S
C2933 C2917 1.349 1_545 S
C2933 H2925 0.950 . S
C2933 C2931 1.327 . S
C2934 C2922 1.349 . S
C2934 H2928 0.950 . S
C2934 C2935 1.327 . S
C2935 H2929 0.950 . S
C2935 C2934 1.327 . S
C2935 C2939 1.429 . S
C2936 C2919 1.574 . S
C2936 H2930 0.949 . S
C2936 C2940 1.368 1_545 S
C2937 C2918 1.429 . S
C2937 C2931 1.429 1_565 S
C2937 C2938 1.523 . S
C2938 C2919 1.368 1_565 S
C2938 C2932 1.368 . S
C2938 C2937 1.523 . S
C2939 C2923 1.402 1_565 S
C2939 C2935 1.429 . S
C2939 C2940 1.523 . S
C2940 C2924 1.368 . S
C2940 C2936 1.368 1_565 S
C2940 C2939 1.523 . S
H2941 C2916 0.950 . S
H2942 C2918 0.950 . S
H2943 C2919 0.949 . S
H2944 C2921 0.949 1_545 S
H2945 C2923 0.987 . S
C2946 C2947 1.349 . S
C2946 C2948 1.327 . S
C2946 H2971 0.950 . S
C2947 C2946 1.349 . S
C2947 C2963 1.349 . S
C2948 C2946 1.327 . S
C2948 C2967 1.429 . S
C2948 H2972 0.950 . S
C2949 C2966 1.574 . S
C2949 C2968 1.368 . S
C2949 H2973 0.949 . S
H2950 C2954 0.949 . S
C2951 C2952 1.349 . S
C2951 C2953 1.327 . S
C2951 H2974 0.950 . S
C2952 C2951 1.349 . S
C2952 C2964 1.349 . S
C2953 C2951 1.327 . S
C2953 C2969 1.429 . S
C2953 H2975 0.950 . S
C2954 H2950 0.949 . S
C2954 C2962 1.574 . S
C2954 C2970 1.368 . S
H2955 C2963 0.950 . S
H2956 C2961 0.950 . S
H2957 C2962 0.949 . S
H2958 C2964 0.950 . S
H2959 C2965 0.950 . S
H2960 C2966 0.949 . S
C2961 H2956 0.950 . S
C2961 C2963 1.327 . S
C2961 C2967 1.429 . S
C2962 C2954 1.574 . S
C2962 H2957 0.949 . S
C2962 C2968 1.368 . S
C2963 C2947 1.349 . S
C2963 H2955 0.950 . S
C2963 C2961 1.327 . S
C2964 C2952 1.349 . S
C2964 H2958 0.950 . S
C2964 C2965 1.327 . S
C2965 H2959 0.950 . S
C2965 C2964 1.327 . S
C2965 C2969 1.429 . S
C2966 C2949 1.574 . S
C2966 H2960 0.949 . S
C2966 C2970 1.368 . S
C2967 C2948 1.429 . S
C2967 C2961 1.429 . S
C2967 C2968 1.523 . S
C2968 C2949 1.368 . S
C2968 C2962 1.368 . S
C2968 C2967 1.523 . S
C2969 C2953 1.429 . S
C2969 C2965 1.429 . S
C2969 C2970 1.523 . S
C2970 C2954 1.368 . S
C2970 C2966 1.368 . S
C2970 C2969 1.523 . S
H2971 C2946 0.950 . S
H2972 C2948 0.950 . S
H2973 C2949 0.949 . S
H2974 C2951 0.950 . S
H2975 C2953 0.950 . S
C2976 C2977 1.349 . S
C2976 C2978 1.327 . S
C2976 H3001 0.950 . S
C2977 C2976 1.349 . S
C2977 C2993 1.349 . S
C2978 C2976 1.327 . S
C2978 C2997 1.429 . S
C2978 H3002 0.950 . S
C2979 C2996 1.574 . S
C2979 C2998 1.368 . S
C2979 H3003 0.949 . S
H2980 C2984 0.949 . S
C2981 C2982 1.349 . S
C2981 C2983 1.327 . S
C2981 H3004 0.950 . S
C2982 C2981 1.349 . S
C2982 C2994 1.349 . S
C2983 C2981 1.327 . S
C2983 C2999 1.429 . S
C2983 H3005 0.950 . S
C2984 H2980 0.949 . S
C2984 C2992 1.574 . S
C2984 C3000 1.368 . S
H2985 C2993 0.950 . S
H2986 C2991 0.950 . S
H2987 C2992 0.949 . S
H2988 C2994 0.950 . S
H2989 C2995 0.950 . S
H2990 C2996 0.949 . S
C2991 H2986 0.950 . S
C2991 C2993 1.327 . S
C2991 C2997 1.429 . S
C2992 C2984 1.574 . S
C2992 H2987 0.949 . S
C2992 C2998 1.368 . S
C2993 C2977 1.349 . S
C2993 H2985 0.950 . S
C2993 C2991 1.327 . S
C2994 C2982 1.349 . S
C2994 H2988 0.950 . S
C2994 C2995 1.327 . S
C2995 H2989 0.950 . S
C2995 C2994 1.327 . S
C2995 C2999 1.429 . S
C2996 C2979 1.574 . S
C2996 H2990 0.949 . S
C2996 C3000 1.368 . S
C2997 C2978 1.429 . S
C2997 C2991 1.429 . S
C2997 C2998 1.523 . S
C2998 C2979 1.368 . S
C2998 C2992 1.368 . S
C2998 C2997 1.523 . S
C2999 C2983 1.429 . S
C2999 C2995 1.429 . S
C2999 C3000 1.523 . S
C3000 C2984 1.368 . S
C3000 C2996 1.368 . S
C3000 C2999 1.523 . S
H3001 C2976 0.950 . S
H3002 C2978 0.950 . S
H3003 C2979 0.949 . S
H3004 C2981 0.950 . S
H3005 C2983 0.950 . S
C3006 C3007 1.349 . S
C3006 C3008 1.327 . S
C3006 H3031 0.950 . S
C3007 C3006 1.349 . S
C3007 C3023 1.349 . S
C3008 C3006 1.327 . S
C3008 C3027 1.429 . S
C3008 H3032 0.950 . S
C3009 C3026 1.574 . S
C3009 C3028 1.368 . S
C3009 H3033 0.949 . S
H3010 C3014 0.949 . S
C3011 C3012 1.349 . S
C3011 C3013 1.327 . S
C3011 H3034 0.950 . S
C3012 C3011 1.349 . S
C3012 C3024 1.349 . S
C3013 C3011 1.327 . S
C3013 C3029 1.429 . S
C3013 H3035 0.950 . S
C3014 H3010 0.949 . S
C3014 C3022 1.574 . S
C3014 C3030 1.368 . S
H3015 C3023 0.950 . S
H3016 C3021 0.950 . S
H3017 C3022 0.949 . S
H3018 C3024 0.950 1_556 S
H3019 C3025 0.950 . S
H3020 C3026 0.949 . S
C3021 H3016 0.950 . S
C3021 C3023 1.327 . S
C3021 C3027 1.429 . S
C3022 C3014 1.574 . S
C3022 H3017 0.949 . S
C3022 C3028 1.368 . S
C3023 C3007 1.349 . S
C3023 H3015 0.950 . S
C3023 C3021 1.327 . S
C3024 C3012 1.349 . S
C3024 H3018 0.950 1_554 S
C3024 C3025 1.327 . S
C3025 H3019 0.950 . S
C3025 C3024 1.327 . S
C3025 C3029 1.429 . S
C3026 C3009 1.574 . S
C3026 H3020 0.949 . S
C3026 C3030 1.368 . S
C3027 C3008 1.429 . S
C3027 C3021 1.429 . S
C3027 C3028 1.523 . S
C3028 C3009 1.368 . S
C3028 C3022 1.368 . S
C3028 C3027 1.523 . S
C3029 C3013 1.429 . S
C3029 C3025 1.429 . S
C3029 C3030 1.523 . S
C3030 C3014 1.368 . S
C3030 C3026 1.368 . S
C3030 C3029 1.523 . S
H3031 C3006 0.950 . S
H3032 C3008 0.950 . S
H3033 C3009 0.949 . S
H3034 C3011 0.950 . S
H3035 C3013 0.950 . S
C3036 C3037 1.349 . S
C3036 C3038 1.327 . S
C3036 H3061 0.950 . S
C3037 C3036 1.349 . S
C3037 C3053 1.349 . S
C3038 C3036 1.327 . S
C3038 C3057 1.429 . S
C3038 H3062 0.950 . S
C3039 C3056 1.574 . S
C3039 C3058 1.368 . S
C3039 H3063 0.949 . S
H3040 C3044 0.949 . S
C3041 C3042 1.349 . S
C3041 C3043 1.327 . S
C3041 H3064 0.950 . S
C3042 C3041 1.349 . S
C3042 C3054 1.349 . S
C3043 C3041 1.327 . S
C3043 C3059 1.429 . S
C3043 H3065 0.950 . S
C3044 H3040 0.949 . S
C3044 C3052 1.574 . S
C3044 C3060 1.368 . S
H3045 C3053 0.950 . S
H3046 C3051 0.950 . S
H3047 C3052 0.949 . S
H3048 C3054 0.950 . S
H3049 C3055 0.950 . S
H3050 C3056 0.949 . S
C3051 H3046 0.950 . S
C3051 C3053 1.327 . S
C3051 C3057 1.429 . S
C3052 C3044 1.574 . S
C3052 H3047 0.949 . S
C3052 C3058 1.368 . S
C3053 C3037 1.349 . S
C3053 H3045 0.950 . S
C3053 C3051 1.327 . S
C3054 C3042 1.349 . S
C3054 H3048 0.950 . S
C3054 C3055 1.327 . S
C3055 H3049 0.950 . S
C3055 C3054 1.327 . S
C3055 C3059 1.429 . S
C3056 C3039 1.574 . S
C3056 H3050 0.949 . S
C3056 C3060 1.368 . S
C3057 C3038 1.429 . S
C3057 C3051 1.429 . S
C3057 C3058 1.523 . S
C3058 C3039 1.368 . S
C3058 C3052 1.368 . S
C3058 C3057 1.523 . S
C3059 C3043 1.429 . S
C3059 C3055 1.429 . S
C3059 C3060 1.523 . S
C3060 C3044 1.368 . S
C3060 C3056 1.368 . S
C3060 C3059 1.523 . S
H3061 C3036 0.950 . S
H3062 C3038 0.950 . S
H3063 C3039 0.949 . S
H3064 C3041 0.950 . S
H3065 C3043 0.950 . S
C3066 C3067 1.349 1_554 S
C3066 C3068 1.327 . S
C3066 H3091 0.950 . S
C3067 C3066 1.349 1_556 S
C3067 C3083 1.349 . S
C3068 C3066 1.327 . S
C3068 C3087 1.429 1_554 S
C3068 H3092 0.950 . S
C3069 C3086 1.574 . S
C3069 C3088 1.368 . S
C3069 H3093 0.949 . S
H3070 C3074 0.949 . S
C3071 C3072 1.349 . S
C3071 C3073 1.327 . S
C3071 H3094 0.950 . S
C3072 C3071 1.349 . S
C3072 C3084 1.315 1_556 S
C3073 C3071 1.327 . S
C3073 C3089 1.429 . S
C3073 H3095 0.950 . S
C3074 H3070 0.949 . S
C3074 C3082 1.574 . S
C3074 C3090 1.368 1_554 S
H3075 C3083 0.950 . S
H3076 C3081 0.950 . S
H3077 C3082 0.949 . S
H3078 C3084 0.976 . S
H3079 C3085 0.950 . S
H3080 C3086 0.949 . S
C3081 H3076 0.950 . S
C3081 C3083 1.327 . S
C3081 C3087 1.429 . S
C3082 C3074 1.574 . S
C3082 H3077 0.949 . S
C3082 C3088 1.368 1_554 S
C3083 C3067 1.349 . S
C3083 H3075 0.950 . S
C3083 C3081 1.327 . S
C3084 C3072 1.315 1_554 S
C3084 H3078 0.976 . S
C3084 C3085 1.336 . S
C3085 H3079 0.950 . S
C3085 C3084 1.336 . S
C3085 C3089 1.429 1_554 S
C3086 C3069 1.574 . S
C3086 H3080 0.949 . S
C3086 C3090 1.368 . S
C3087 C3068 1.429 1_556 S
C3087 C3081 1.429 . S
C3087 C3088 1.523 . S
C3088 C3069 1.368 . S
C3088 C3082 1.368 1_556 S
C3088 C3087 1.523 . S
C3089 C3073 1.429 . S
C3089 C3085 1.429 1_556 S
C3089 C3090 1.523 . S
C3090 C3074 1.368 1_556 S
C3090 C3086 1.368 . S
C3090 C3089 1.523 . S
H3091 C3066 0.950 . S
H3092 C3068 0.950 . S
H3093 C3069 0.949 . S
H3094 C3071 0.950 . S
H3095 C3073 0.950 . S
C3096 C3097 1.349 . S
C3096 C3098 1.327 . S
C3096 H3121 0.950 . S
C3097 C3096 1.349 . S
C3097 C3113 1.349 . S
C3098 C3096 1.327 . S
C3098 C3117 1.429 . S
C3098 H3122 0.950 . S
C3099 C3116 1.574 . S
C3099 C3118 1.368 . S
C3099 H3123 0.949 . S
H3100 C3104 0.949 . S
C3101 C3102 1.349 . S
C3101 C3103 1.327 . S
C3101 H3124 0.950 . S
C3102 C3101 1.349 . S
C3102 C3114 1.349 . S
C3103 C3101 1.327 . S
C3103 C3119 1.429 . S
C3103 H3125 0.950 . S
C3104 H3100 0.949 . S
C3104 C3112 1.574 . S
C3104 C3120 1.368 . S
H3105 C3113 0.950 . S
H3106 C3111 0.950 . S
H3107 C3112 0.949 . S
H3108 C3114 0.950 . S
H3109 C3115 0.950 . S
H3110 C3116 0.949 . S
C3111 H3106 0.950 . S
C3111 C3113 1.327 . S
C3111 C3117 1.429 . S
C3112 C3104 1.574 . S
C3112 H3107 0.949 . S
C3112 C3118 1.368 . S
C3113 C3097 1.349 . S
C3113 H3105 0.950 . S
C3113 C3111 1.327 . S
C3114 C3102 1.349 . S
C3114 H3108 0.950 . S
C3114 C3115 1.327 . S
C3115 H3109 0.950 . S
C3115 C3114 1.327 . S
C3115 C3119 1.429 . S
C3116 C3099 1.574 . S
C3116 H3110 0.949 . S
C3116 C3120 1.368 . S
C3117 C3098 1.429 . S
C3117 C3111 1.429 . S
C3117 C3118 1.523 . S
C3118 C3099 1.368 . S
C3118 C3112 1.368 . S
C3118 C3117 1.523 . S
C3119 C3103 1.429 . S
C3119 C3115 1.429 . S
C3119 C3120 1.523 . S
C3120 C3104 1.368 . S
C3120 C3116 1.368 . S
C3120 C3119 1.523 . S
H3121 C3096 0.950 . S
H3122 C3098 0.950 . S
H3123 C3099 0.949 . S
H3124 C3101 0.950 . S
H3125 C3103 0.950 . S
C3126 C3127 1.349 . S
C3126 C3128 1.327 . S
C3126 H3151 0.950 . S
C3127 C3126 1.349 . S
C3127 C3143 1.349 . S
C3128 C3126 1.327 . S
C3128 C3147 1.429 . S
C3128 H3152 0.950 . S
C3129 C3146 1.573 1_455 S
C3129 C3148 1.372 . S
C3129 H3153 0.946 1_455 S
H3130 C3134 0.949 . S
C3131 C3132 1.349 1_655 S
C3131 C3133 1.327 . S
C3131 H3154 0.950 . S
C3132 C3131 1.349 1_455 S
C3132 C3144 1.349 . S
C3133 C3131 1.327 . S
C3133 C3149 1.429 1_655 S
C3133 H3155 0.950 . S
C3134 H3130 0.949 . S
C3134 C3142 1.574 . S
C3134 C3150 1.368 . S
H3135 C3143 0.950 1_655 S
H3136 C3141 0.950 1_655 S
H3137 C3142 0.949 . S
H3138 C3144 0.950 . S
H3139 C3145 0.950 . S
H3140 C3146 0.949 . S
C3141 H3136 0.950 1_455 S
C3141 C3143 1.327 . S
C3141 C3147 1.429 . S
C3142 C3134 1.574 . S
C3142 H3137 0.949 . S
C3142 C3148 1.368 . S
C3143 C3127 1.349 . S
C3143 H3135 0.950 1_455 S
C3143 C3141 1.327 . S
C3144 C3132 1.349 . S
C3144 H3138 0.950 . S
C3144 C3145 1.327 . S
C3145 H3139 0.950 . S
C3145 C3144 1.327 . S
C3145 C3149 1.429 . S
C3146 C3129 1.573 1_655 S
C3146 H3140 0.949 . S
C3146 C3150 1.368 1_655 S
C3147 C3128 1.429 . S
C3147 C3141 1.429 . S
C3147 C3148 1.523 . S
C3148 C3129 1.372 . S
C3148 C3142 1.368 . S
C3148 C3147 1.523 . S
C3149 C3133 1.429 1_455 S
C3149 C3145 1.429 . S
C3149 C3150 1.523 . S
C3150 C3134 1.368 . S
C3150 C3146 1.368 1_455 S
C3150 C3149 1.523 . S
H3151 C3126 0.950 . S
H3152 C3128 0.950 . S
H3153 C3129 0.946 1_655 S
H3154 C3131 0.950 . S
H3155 C3133 0.950 . S
C3156 C3157 1.349 . S
C3156 C3158 1.327 . S
C3156 H3181 0.950 . S
C3157 C3156 1.349 . S
C3157 C3173 1.349 . S
C3158 C3156 1.327 . S
C3158 C3177 1.429 . S
C3158 H3182 0.950 . S
C3159 C3176 1.574 . S
C3159 C3178 1.368 . S
C3159 H3183 0.949 . S
H3160 C3164 0.949 . S
C3161 C3162 1.349 . S
C3161 C3163 1.327 . S
C3161 H3184 0.950 . S
C3162 C3161 1.349 . S
C3162 C3174 1.349 . S
C3163 C3161 1.327 . S
C3163 C3179 1.429 . S
C3163 H3185 0.950 . S
C3164 H3160 0.949 . S
C3164 C3172 1.574 . S
C3164 C3180 1.368 . S
H3165 C3173 0.950 . S
H3166 C3171 0.950 . S
H3167 C3172 0.949 . S
H3168 C3174 0.950 . S
H3169 C3175 0.950 . S
H3170 C3176 0.949 . S
C3171 H3166 0.950 . S
C3171 C3173 1.327 . S
C3171 C3177 1.429 . S
C3172 C3164 1.574 . S
C3172 H3167 0.949 . S
C3172 C3178 1.368 . S
C3173 C3157 1.349 . S
C3173 H3165 0.950 . S
C3173 C3171 1.327 . S
C3174 C3162 1.349 . S
C3174 H3168 0.950 . S
C3174 C3175 1.327 . S
C3175 H3169 0.950 . S
C3175 C3174 1.327 . S
C3175 C3179 1.429 . S
C3176 C3159 1.574 . S
C3176 H3170 0.949 . S
C3176 C3180 1.368 . S
C3177 C3158 1.429 . S
C3177 C3171 1.429 . S
C3177 C3178 1.523 . S
C3178 C3159 1.368 . S
C3178 C3172 1.368 . S
C3178 C3177 1.523 . S
C3179 C3163 1.429 . S
C3179 C3175 1.429 . S
C3179 C3180 1.523 . S
C3180 C3164 1.368 . S
C3180 C3176 1.368 . S
C3180 C3179 1.523 . S
H3181 C3156 0.950 . S
H3182 C3158 0.950 . S
H3183 C3159 0.949 . S
H3184 C3161 0.950 . S
H3185 C3163 0.950 . S
C3186 C3187 1.349 . S
C3186 C3188 1.327 . S
C3186 H3211 0.958 . S
C3187 C3186 1.349 . S
C3187 C3203 1.349 . S
C3188 C3186 1.327 . S
C3188 C3207 1.429 . S
C3188 H3212 0.950 . S
C3189 C3206 1.574 . S
C3189 C3208 1.368 . S
C3189 H3213 0.949 . S
H3190 C3194 0.949 . S
C3191 C3192 1.349 . S
C3191 C3193 1.327 . S
C3191 H3214 0.950 . S
C3192 C3191 1.349 . S
C3192 C3204 1.349 . S
C3193 C3191 1.327 . S
C3193 C3209 1.429 . S
C3193 H3215 0.950 . S
C3194 H3190 0.949 . S
C3194 C3202 1.574 . S
C3194 C3210 1.368 . S
H3195 C3203 0.950 . S
H3196 C3201 0.950 . S
H3197 C3202 0.949 . S
H3198 C3204 0.950 . S
H3199 C3205 0.950 . S
H3200 C3206 0.949 . S
C3201 H3196 0.950 . S
C3201 C3203 1.327 . S
C3201 C3207 1.429 . S
C3202 C3194 1.574 . S
C3202 H3197 0.949 . S
C3202 C3208 1.368 . S
C3203 C3187 1.349 . S
C3203 H3195 0.950 . S
C3203 C3201 1.327 . S
C3204 C3192 1.349 . S
C3204 H3198 0.950 . S
C3204 C3205 1.327 . S
C3205 H3199 0.950 . S
C3205 C3204 1.327 . S
C3205 C3209 1.429 . S
C3206 C3189 1.574 . S
C3206 H3200 0.949 . S
C3206 C3210 1.368 . S
C3207 C3188 1.429 . S
C3207 C3201 1.429 . S
C3207 C3208 1.523 . S
C3208 C3189 1.368 . S
C3208 C3202 1.368 . S
C3208 C3207 1.523 . S
C3209 C3193 1.429 . S
C3209 C3205 1.429 . S
C3209 C3210 1.523 . S
C3210 C3194 1.368 . S
C3210 C3206 1.368 . S
C3210 C3209 1.523 . S
H3211 C3186 0.958 . S
H3212 C3188 0.950 . S
H3213 C3189 0.949 . S
H3214 C3191 0.950 . S
H3215 C3193 0.950 . S
C3216 C3217 1.349 . S
C3216 C3218 1.327 . S
C3216 H3241 0.950 . S
C3217 C3216 1.349 . S
C3217 C3233 1.349 . S
C3218 C3216 1.327 . S
C3218 C3237 1.429 . S
C3218 H3242 0.950 . S
C3219 C3236 1.574 . S
C3219 C3238 1.368 . S
C3219 H3243 0.949 . S
H3220 C3224 0.949 . S
C3221 C3222 1.349 . S
C3221 C3223 1.327 . S
C3221 H3244 0.950 . S
C3222 C3221 1.349 . S
C3222 C3234 1.349 . S
C3223 C3221 1.327 . S
C3223 C3239 1.429 . S
C3223 H3245 0.950 . S
C3224 H3220 0.949 . S
C3224 C3232 1.574 . S
C3224 C3240 1.368 . S
H3225 C3233 0.950 . S
H3226 C3231 0.950 . S
H3227 C3232 0.949 . S
H3228 C3234 0.950 . S
H3229 C3235 0.950 . S
H3230 C3236 0.949 . S
C3231 H3226 0.950 . S
C3231 C3233 1.327 . S
C3231 C3237 1.429 . S
C3232 C3224 1.574 . S
C3232 H3227 0.949 . S
C3232 C3238 1.368 . S
C3233 C3217 1.349 . S
C3233 H3225 0.950 . S
C3233 C3231 1.327 . S
C3234 C3222 1.349 . S
C3234 H3228 0.950 . S
C3234 C3235 1.327 . S
C3235 H3229 0.950 . S
C3235 C3234 1.327 . S
C3235 C3239 1.429 . S
C3236 C3219 1.574 . S
C3236 H3230 0.949 . S
C3236 C3240 1.368 . S
C3237 C3218 1.429 . S
C3237 C3231 1.429 . S
C3237 C3238 1.523 . S
C3238 C3219 1.368 . S
C3238 C3232 1.368 . S
C3238 C3237 1.523 . S
C3239 C3223 1.429 . S
C3239 C3235 1.429 . S
C3239 C3240 1.523 . S
C3240 C3224 1.368 . S
C3240 C3236 1.368 . S
C3240 C3239 1.523 . S
H3241 C3216 0.950 . S
H3242 C3218 0.950 . S
H3243 C3219 0.949 . S
H3244 C3221 0.950 . S
H3245 C3223 0.950 . S
C3246 C3247 1.349 . S
C3246 C3248 1.327 . S
C3246 H3271 0.950 . S
C3247 C3246 1.349 . S
C3247 C3263 1.349 . S
C3248 C3246 1.327 . S
C3248 C3267 1.429 . S
C3248 H3272 0.950 . S
C3249 C3266 1.574 . S
C3249 C3268 1.368 . S
C3249 H3273 0.949 . S
H3250 C3254 0.949 . S
C3251 C3252 1.349 . S
C3251 C3253 1.327 . S
C3251 H3274 0.950 . S
C3252 C3251 1.349 . S
C3252 C3264 1.349 . S
C3253 C3251 1.327 . S
C3253 C3269 1.429 . S
C3253 H3275 0.950 . S
C3254 H3250 0.949 . S
C3254 C3262 1.574 . S
C3254 C3270 1.368 . S
H3255 C3263 0.950 . S
H3256 C3261 0.950 . S
H3257 C3262 0.949 . S
H3258 C3264 0.950 . S
H3259 C3265 0.950 . S
H3260 C3266 0.949 . S
C3261 H3256 0.950 . S
C3261 C3263 1.327 . S
C3261 C3267 1.429 . S
C3262 C3254 1.574 . S
C3262 H3257 0.949 . S
C3262 C3268 1.368 . S
C3263 C3247 1.349 . S
C3263 H3255 0.950 . S
C3263 C3261 1.327 . S
C3264 C3252 1.349 . S
C3264 H3258 0.950 . S
C3264 C3265 1.327 . S
C3265 H3259 0.950 . S
C3265 C3264 1.327 . S
C3265 C3269 1.429 . S
C3266 C3249 1.574 . S
C3266 H3260 0.949 . S
C3266 C3270 1.368 . S
C3267 C3248 1.429 . S
C3267 C3261 1.429 . S
C3267 C3268 1.523 . S
C3268 C3249 1.368 . S
C3268 C3262 1.368 . S
C3268 C3267 1.523 . S
C3269 C3253 1.429 . S
C3269 C3265 1.429 . S
C3269 C3270 1.523 . S
C3270 C3254 1.368 . S
C3270 C3266 1.368 . S
C3270 C3269 1.523 . S
H3271 C3246 0.950 . S
H3272 C3248 0.950 . S
H3273 C3249 0.949 . S
H3274 C3251 0.950 . S
H3275 C3253 0.950 . S
C3276 C3277 1.349 1_565 S
C3276 C3278 1.327 . S
C3276 H3301 0.950 . S
C3277 C3276 1.349 1_545 S
C3277 C3293 1.349 . S
C3278 C3276 1.327 . S
C3278 C3297 1.429 1_565 S
C3278 H3302 0.950 . S
C3279 C3296 1.574 . S
C3279 C3298 1.368 . S
C3279 H3303 0.949 . S
H3280 C3284 0.949 . S
C3281 C3282 1.349 . S
C3281 C3283 1.327 . S
C3281 H3304 0.950 . S
C3282 C3281 1.349 . S
C3282 C3294 1.306 1_545 S
C3283 C3281 1.327 . S
C3283 C3299 1.429 . S
C3283 H3305 0.950 . S
C3284 H3280 0.949 . S
C3284 C3292 1.574 . S
C3284 C3300 1.368 1_565 S
H3285 C3293 0.950 . S
H3286 C3291 0.950 . S
H3287 C3292 0.949 . S
H3288 C3294 0.984 . S
H3289 C3295 0.950 . S
H3290 C3296 0.949 . S
C3291 H3286 0.950 . S
C3291 C3293 1.327 . S
C3291 C3297 1.429 . S
C3292 C3284 1.574 . S
C3292 H3287 0.949 . S
C3292 C3298 1.368 1_565 S
C3293 C3277 1.349 . S
C3293 H3285 0.950 . S
C3293 C3291 1.327 . S
C3294 C3282 1.306 1_565 S
C3294 H3288 0.984 . S
C3294 C3295 1.338 . S
C3295 H3289 0.950 . S
C3295 C3294 1.338 . S
C3295 C3299 1.429 1_565 S
C3296 C3279 1.574 . S
C3296 H3290 0.949 . S
C3296 C3300 1.368 . S
C3297 C3278 1.429 1_545 S
C3297 C3291 1.429 . S
C3297 C3298 1.523 . S
C3298 C3279 1.368 . S
C3298 C3292 1.368 1_545 S
C3298 C3297 1.523 . S
C3299 C3283 1.429 . S
C3299 C3295 1.429 1_545 S
C3299 C3300 1.523 . S
C3300 C3284 1.368 1_545 S
C3300 C3296 1.368 . S
C3300 C3299 1.523 . S
H3301 C3276 0.950 . S
H3302 C3278 0.950 . S
H3303 C3279 0.949 . S
H3304 C3281 0.950 . S
H3305 C3283 0.950 . S
C3306 C3307 1.349 . S
C3306 C3308 1.327 . S
C3306 H3331 0.950 . S
C3307 C3306 1.349 . S
C3307 C3323 1.349 . S
C3308 C3306 1.327 . S
C3308 C3327 1.429 . S
C3308 H3332 0.950 . S
C3309 C3326 1.577 . S
C3309 C3328 1.368 . S
C3309 H3333 0.949 1_565 S
H3310 C3314 0.949 . S
C3311 C3312 1.349 1_545 S
C3311 C3313 1.327 . S
C3311 H3334 0.950 . S
C3312 C3311 1.349 1_565 S
C3312 C3324 1.349 . S
C3313 C3311 1.327 . S
C3313 C3329 1.429 1_545 S
C3313 H3335 0.950 . S
C3314 H3310 0.949 . S
C3314 C3322 1.574 . S
C3314 C3330 1.368 . S
H3315 C3323 0.985 . S
H3316 C3321 0.950 1_545 S
H3317 C3322 0.949 . S
H3318 C3324 0.950 . S
H3319 C3325 0.950 . S
H3320 C3326 0.919 1_545 S
C3321 H3316 0.950 1_565 S
C3321 C3323 1.327 . S
C3321 C3327 1.429 . S
C3322 C3314 1.574 . S
C3322 H3317 0.949 . S
C3322 C3328 1.368 . S
C3323 C3307 1.349 . S
C3323 H3315 0.985 . S
C3323 C3321 1.327 . S
C3324 C3312 1.349 . S
C3324 H3318 0.950 . S
C3324 C3325 1.327 . S
C3325 H3319 0.950 . S
C3325 C3324 1.327 . S
C3325 C3329 1.429 . S
C3326 C3309 1.577 . S
C3326 H3320 0.919 1_565 S
C3326 C3330 1.401 . S
C3327 C3308 1.429 . S
C3327 C3321 1.429 . S
C3327 C3328 1.523 . S
C3328 C3309 1.368 . S
C3328 C3322 1.368 . S
C3328 C3327 1.523 . S
C3329 C3313 1.429 1_565 S
C3329 C3325 1.429 . S
C3329 C3330 1.523 . S
C3330 C3314 1.368 . S
C3330 C3326 1.401 . S
C3330 C3329 1.523 . S
H3331 C3306 0.950 . S
H3332 C3308 0.950 . S
H3333 C3309 0.949 1_545 S
H3334 C3311 0.950 . S
H3335 C3313 0.950 . S
C3336 C3337 1.349 . S
C3336 C3338 1.327 . S
C3336 H3361 0.950 . S
C3337 C3336 1.349 . S
C3337 C3353 1.349 . S
C3338 C3336 1.327 . S
C3338 C3357 1.429 . S
C3338 H3362 0.950 . S
C3339 C3356 1.574 . S
C3339 C3358 1.368 . S
C3339 H3363 0.949 . S
H3340 C3344 0.949 . S
C3341 C3342 1.349 . S
C3341 C3343 1.327 . S
C3341 H3364 0.950 . S
C3342 C3341 1.349 . S
C3342 C3354 1.349 . S
C3343 C3341 1.327 . S
C3343 C3359 1.429 . S
C3343 H3365 0.950 . S
C3344 H3340 0.949 . S
C3344 C3352 1.574 . S
C3344 C3360 1.368 . S
H3345 C3353 0.950 . S
H3346 C3351 0.950 . S
H3347 C3352 0.949 . S
H3348 C3354 0.950 . S
H3349 C3355 0.950 . S
H3350 C3356 0.949 . S
C3351 H3346 0.950 . S
C3351 C3353 1.327 . S
C3351 C3357 1.429 . S
C3352 C3344 1.574 . S
C3352 H3347 0.949 . S
C3352 C3358 1.368 . S
C3353 C3337 1.349 . S
C3353 H3345 0.950 . S
C3353 C3351 1.327 . S
C3354 C3342 1.349 . S
C3354 H3348 0.950 . S
C3354 C3355 1.327 . S
C3355 H3349 0.950 . S
C3355 C3354 1.327 . S
C3355 C3359 1.429 . S
C3356 C3339 1.574 . S
C3356 H3350 0.949 . S
C3356 C3360 1.368 . S
C3357 C3338 1.429 . S
C3357 C3351 1.429 . S
C3357 C3358 1.523 . S
C3358 C3339 1.368 . S
C3358 C3352 1.368 . S
C3358 C3357 1.523 . S
C3359 C3343 1.429 . S
C3359 C3355 1.429 . S
C3359 C3360 1.523 . S
C3360 C3344 1.368 . S
C3360 C3356 1.368 . S
C3360 C3359 1.523 . S
H3361 C3336 0.950 . S
H3362 C3338 0.950 . S
H3363 C3339 0.949 . S
H3364 C3341 0.950 . S
H3365 C3343 0.950 . S
C3366 C3367 1.349 . S
C3366 C3368 1.327 . S
C3366 H3391 0.967 . S
C3367 C3366 1.349 . S
C3367 C3383 1.349 . S
C3368 C3366 1.327 . S
C3368 C3387 1.429 . S
C3368 H3392 0.950 1_556 S
C3369 C3386 1.574 . S
C3369 C3388 1.368 . S
C3369 H3393 0.949 . S
H3370 C3374 0.929 1_554 S
C3371 C3372 1.349 . S
C3371 C3373 1.327 . S
C3371 H3394 0.950 . S
C3372 C3371 1.349 . S
C3372 C3384 1.349 1_556 S
C3373 C3371 1.327 . S
C3373 C3389 1.429 . S
C3373 H3395 0.950 . S
C3374 H3370 0.929 1_556 S
C3374 C3382 1.576 . S
C3374 C3390 1.390 . S
H3375 C3383 0.950 . S
H3376 C3381 0.950 . S
H3377 C3382 0.949 1_554 S
H3378 C3384 0.950 . S
H3379 C3385 0.950 . S
H3380 C3386 0.949 . S
C3381 H3376 0.950 . S
C3381 C3383 1.327 . S
C3381 C3387 1.429 . S
C3382 C3374 1.576 . S
C3382 H3377 0.949 1_556 S
C3382 C3388 1.368 . S
C3383 C3367 1.349 . S
C3383 H3375 0.950 . S
C3383 C3381 1.327 . S
C3384 C3372 1.349 1_554 S
C3384 H3378 0.950 . S
C3384 C3385 1.327 . S
C3385 H3379 0.950 . S
C3385 C3384 1.327 . S
C3385 C3389 1.429 1_554 S
C3386 C3369 1.574 . S
C3386 H3380 0.949 . S
C3386 C3390 1.368 . S
C3387 C3368 1.429 . S
C3387 C3381 1.429 . S
C3387 C3388 1.523 . S
C3388 C3369 1.368 . S
C3388 C3382 1.368 . S
C3388 C3387 1.523 . S
C3389 C3373 1.429 . S
C3389 C3385 1.429 1_556 S
C3389 C3390 1.523 . S
C3390 C3374 1.390 . S
C3390 C3386 1.368 . S
C3390 C3389 1.523 . S
H3391 C3366 0.967 . S
H3392 C3368 0.950 1_554 S
H3393 C3369 0.949 . S
H3394 C3371 0.950 . S
H3395 C3373 0.950 . S
C3396 C3397 1.349 . S
C3396 C3398 1.327 . S
C3396 H3421 0.950 . S
C3397 C3396 1.349 . S
C3397 C3413 1.349 . S
C3398 C3396 1.327 . S
C3398 C3417 1.429 . S
C3398 H3422 0.950 . S
C3399 C3416 1.574 . S
C3399 C3418 1.368 . S
C3399 H3423 0.949 . S
H3400 C3404 0.949 . S
C3401 C3402 1.349 . S
C3401 C3403 1.327 . S
C3401 H3424 0.950 . S
C3402 C3401 1.349 . S
C3402 C3414 1.349 . S
C3403 C3401 1.327 . S
C3403 C3419 1.429 . S
C3403 H3425 0.950 . S
C3404 H3400 0.949 . S
C3404 C3412 1.574 . S
C3404 C3420 1.368 . S
H3405 C3413 0.950 . S
H3406 C3411 0.950 . S
H3407 C3412 0.949 . S
H3408 C3414 0.950 . S
H3409 C3415 0.950 . S
H3410 C3416 0.949 . S
C3411 H3406 0.950 . S
C3411 C3413 1.327 . S
C3411 C3417 1.429 . S
C3412 C3404 1.574 . S
C3412 H3407 0.949 . S
C3412 C3418 1.368 . S
C3413 C3397 1.349 . S
C3413 H3405 0.950 . S
C3413 C3411 1.327 . S
C3414 C3402 1.349 . S
C3414 H3408 0.950 . S
C3414 C3415 1.327 . S
C3415 H3409 0.950 . S
C3415 C3414 1.327 . S
C3415 C3419 1.429 . S
C3416 C3399 1.574 . S
C3416 H3410 0.949 . S
C3416 C3420 1.368 . S
C3417 C3398 1.429 . S
C3417 C3411 1.429 . S
C3417 C3418 1.523 . S
C3418 C3399 1.368 . S
C3418 C3412 1.368 . S
C3418 C3417 1.523 . S
C3419 C3403 1.429 . S
C3419 C3415 1.429 . S
C3419 C3420 1.523 . S
C3420 C3404 1.368 . S
C3420 C3416 1.368 . S
C3420 C3419 1.523 . S
H3421 C3396 0.950 . S
H3422 C3398 0.950 . S
H3423 C3399 0.949 . S
H3424 C3401 0.950 . S
H3425 C3403 0.950 . S
C3426 C3427 1.349 1_556 S
C3426 C3428 1.327 . S
C3426 H3451 0.950 . S
C3427 C3426 1.349 1_554 S
C3427 C3443 1.349 . S
C3428 C3426 1.327 . S
C3428 C3447 1.429 1_556 S
C3428 H3452 0.950 . S
C3429 C3446 1.574 . S
C3429 C3448 1.368 . S
C3429 H3453 0.949 . S
H3430 C3434 0.949 . S
C3431 C3432 1.349 . S
C3431 C3433 1.327 . S
C3431 H3454 0.950 . S
C3432 C3431 1.349 . S
C3432 C3444 1.379 . S
C3433 C3431 1.327 . S
C3433 C3449 1.429 . S
C3433 H3455 0.950 . S
C3434 H3430 0.949 . S
C3434 C3442 1.574 . S
C3434 C3450 1.368 1_556 S
H3435 C3443 0.950 . S
H3436 C3441 0.950 . S
H3437 C3442 0.949 . S
H3438 C3444 0.928 1_556 S
H3439 C3445 0.958 . S
H3440 C3446 0.949 . S
C3441 H3436 0.950 . S
C3441 C3443 1.327 . S
C3441 C3447 1.429 . S
C3442 C3434 1.574 . S
C3442 H3437 0.949 . S
C3442 C3448 1.368 1_556 S
C3443 C3427 1.349 . S
C3443 H3435 0.950 . S
C3443 C3441 1.327 . S
C3444 C3432 1.379 . S
C3444 H3438 0.928 1_554 S
C3444 C3445 1.318 1_554 S
C3445 H3439 0.958 . S
C3445 C3444 1.318 1_556 S
C3445 C3449 1.422 1_556 S
C3446 C3429 1.574 . S
C3446 H3440 0.949 . S
C3446 C3450 1.368 . S
C3447 C3428 1.429 1_554 S
C3447 C3441 1.429 . S
C3447 C3448 1.523 . S
C3448 C3429 1.368 . S
C3448 C3442 1.368 1_554 S
C3448 C3447 1.523 . S
C3449 C3433 1.429 . S
C3449 C3445 1.422 1_554 S
C3449 C3450 1.523 . S
C3450 C3434 1.368 1_554 S
C3450 C3446 1.368 . S
C3450 C3449 1.523 . S
H3451 C3426 0.950 . S
H3452 C3428 0.950 . S
H3453 C3429 0.949 . S
H3454 C3431 0.950 . S
H3455 C3433 0.950 . S
C3456 C3457 1.349 . S
C3456 C3458 1.327 . S
C3456 H3481 0.950 . S
C3457 C3456 1.349 . S
C3457 C3473 1.349 . S
C3458 C3456 1.327 . S
C3458 C3477 1.429 . S
C3458 H3482 0.950 . S
C3459 C3476 1.574 . S
C3459 C3478 1.368 . S
C3459 H3483 0.949 . S
H3460 C3464 0.949 . S
C3461 C3462 1.349 . S
C3461 C3463 1.327 . S
C3461 H3484 0.950 . S
C3462 C3461 1.349 . S
C3462 C3474 1.349 . S
C3463 C3461 1.327 . S
C3463 C3479 1.429 . S
C3463 H3485 0.950 . S
C3464 H3460 0.949 . S
C3464 C3472 1.574 . S
C3464 C3480 1.368 . S
H3465 C3473 0.950 . S
H3466 C3471 0.950 . S
H3467 C3472 0.949 . S
H3468 C3474 0.950 . S
H3469 C3475 0.950 . S
H3470 C3476 0.949 . S
C3471 H3466 0.950 . S
C3471 C3473 1.327 . S
C3471 C3477 1.429 . S
C3472 C3464 1.574 . S
C3472 H3467 0.949 . S
C3472 C3478 1.368 . S
C3473 C3457 1.349 . S
C3473 H3465 0.950 . S
C3473 C3471 1.327 . S
C3474 C3462 1.349 . S
C3474 H3468 0.950 . S
C3474 C3475 1.327 . S
C3475 H3469 0.950 . S
C3475 C3474 1.327 . S
C3475 C3479 1.429 . S
C3476 C3459 1.574 . S
C3476 H3470 0.949 . S
C3476 C3480 1.368 . S
C3477 C3458 1.429 . S
C3477 C3471 1.429 . S
C3477 C3478 1.523 . S
C3478 C3459 1.368 . S
C3478 C3472 1.368 . S
C3478 C3477 1.523 . S
C3479 C3463 1.429 . S
C3479 C3475 1.429 . S
C3479 C3480 1.523 . S
C3480 C3464 1.368 . S
C3480 C3476 1.368 . S
C3480 C3479 1.523 . S
H3481 C3456 0.950 . S
H3482 C3458 0.950 . S
H3483 C3459 0.949 . S
H3484 C3461 0.950 . S
H3485 C3463 0.950 . S
C3486 C3487 1.349 . S
C3486 C3488 1.327 . S
C3486 H3511 0.950 . S
C3487 C3486 1.349 . S
C3487 C3503 1.349 . S
C3488 C3486 1.327 . S
C3488 C3507 1.429 . S
C3488 H3512 0.950 . S
C3489 C3506 1.574 . S
C3489 C3508 1.368 . S
C3489 H3513 0.949 . S
H3490 C3494 0.949 . S
C3491 C3492 1.349 . S
C3491 C3493 1.327 . S
C3491 H3514 0.950 . S
C3492 C3491 1.349 . S
C3492 C3504 1.349 . S
C3493 C3491 1.327 . S
C3493 C3509 1.429 . S
C3493 H3515 0.950 . S
C3494 H3490 0.949 . S
C3494 C3502 1.574 . S
C3494 C3510 1.368 . S
H3495 C3503 0.950 . S
H3496 C3501 0.950 . S
H3497 C3502 0.949 . S
H3498 C3504 0.950 . S
H3499 C3505 0.950 . S
H3500 C3506 0.949 . S
C3501 H3496 0.950 . S
C3501 C3503 1.327 . S
C3501 C3507 1.429 . S
C3502 C3494 1.574 . S
C3502 H3497 0.949 . S
C3502 C3508 1.368 . S
C3503 C3487 1.349 . S
C3503 H3495 0.950 . S
C3503 C3501 1.327 . S
C3504 C3492 1.349 . S
C3504 H3498 0.950 . S
C3504 C3505 1.327 . S
C3505 H3499 0.950 . S
C3505 C3504 1.327 . S
C3505 C3509 1.429 . S
C3506 C3489 1.574 . S
C3506 H3500 0.949 . S
C3506 C3510 1.368 . S
C3507 C3488 1.429 . S
C3507 C3501 1.429 . S
C3507 C3508 1.523 . S
C3508 C3489 1.368 . S
C3508 C3502 1.368 . S
C3508 C3507 1.523 . S
C3509 C3493 1.429 . S
C3509 C3505 1.429 . S
C3509 C3510 1.523 . S
C3510 C3494 1.368 . S
C3510 C3506 1.368 . S
C3510 C3509 1.523 . S
H3511 C3486 0.950 . S
H3512 C3488 0.950 . S
H3513 C3489 0.949 . S
H3514 C3491 0.950 . S
H3515 C3493 0.950 . S
C3516 C3517 1.349 . S
C3516 C3518 1.327 . S
C3516 H3541 0.950 . S
C3517 C3516 1.349 . S
C3517 C3533 1.349 . S
C3518 C3516 1.327 . S
C3518 C3537 1.429 . S
C3518 H3542 0.950 . S
C3519 C3536 1.574 . S
C3519 C3538 1.368 . S
C3519 H3543 0.949 . S
H3520 C3524 0.949 . S
C3521 C3522 1.349 . S
C3521 C3523 1.327 . S
C3521 H3544 0.950 . S
C3522 C3521 1.349 . S
C3522 C3534 1.349 . S
C3523 C3521 1.327 . S
C3523 C3539 1.429 . S
C3523 H3545 0.950 . S
C3524 H3520 0.949 . S
C3524 C3532 1.574 . S
C3524 C3540 1.368 . S
H3525 C3533 0.950 . S
H3526 C3531 0.950 . S
H3527 C3532 0.949 . S
H3528 C3534 0.950 . S
H3529 C3535 0.950 . S
H3530 C3536 0.949 . S
C3531 H3526 0.950 . S
C3531 C3533 1.327 . S
C3531 C3537 1.429 . S
C3532 C3524 1.574 . S
C3532 H3527 0.949 . S
C3532 C3538 1.368 . S
C3533 C3517 1.349 . S
C3533 H3525 0.950 . S
C3533 C3531 1.327 . S
C3534 C3522 1.349 . S
C3534 H3528 0.950 . S
C3534 C3535 1.327 . S
C3535 H3529 0.950 . S
C3535 C3534 1.327 . S
C3535 C3539 1.429 . S
C3536 C3519 1.574 . S
C3536 H3530 0.949 . S
C3536 C3540 1.368 . S
C3537 C3518 1.429 . S
C3537 C3531 1.429 . S
C3537 C3538 1.523 . S
C3538 C3519 1.368 . S
C3538 C3532 1.368 . S
C3538 C3537 1.523 . S
C3539 C3523 1.429 . S
C3539 C3535 1.429 . S
C3539 C3540 1.523 . S
C3540 C3524 1.368 . S
C3540 C3536 1.368 . S
C3540 C3539 1.523 . S
H3541 C3516 0.950 . S
H3542 C3518 0.950 . S
H3543 C3519 0.949 . S
H3544 C3521 0.950 . S
H3545 C3523 0.950 . S
C3546 C3547 1.349 . S
C3546 C3548 1.327 . S
C3546 H3571 0.950 1_455 S
C3547 C3546 1.349 . S
C3547 C3563 1.349 . S
C3548 C3546 1.327 . S
C3548 C3567 1.429 . S
C3548 H3572 0.946 1_455 S
C3549 C3566 1.574 . S
C3549 C3568 1.368 . S
C3549 H3573 0.949 . S
H3550 C3554 0.949 . S
C3551 C3552 1.349 . S
C3551 C3553 1.327 . S
C3551 H3574 0.950 . S
C3552 C3551 1.349 . S
C3552 C3564 1.349 . S
C3553 C3551 1.327 . S
C3553 C3569 1.429 . S
C3553 H3575 0.950 . S
C3554 H3550 0.949 . S
C3554 C3562 1.574 . S
C3554 C3570 1.368 . S
H3555 C3563 0.950 . S
H3556 C3561 0.950 . S
H3557 C3562 0.956 . S
H3558 C3564 0.950 . S
H3559 C3565 0.950 . S
H3560 C3566 0.949 . S
C3561 H3556 0.950 . S
C3561 C3563 1.327 . S
C3561 C3567 1.429 . S
C3562 C3554 1.574 . S
C3562 H3557 0.956 . S
C3562 C3568 1.368 . S
C3563 C3547 1.349 . S
C3563 H3555 0.950 . S
C3563 C3561 1.327 . S
C3564 C3552 1.349 . S
C3564 H3558 0.950 . S
C3564 C3565 1.327 . S
C3565 H3559 0.950 . S
C3565 C3564 1.327 . S
C3565 C3569 1.429 . S
C3566 C3549 1.574 . S
C3566 H3560 0.949 . S
C3566 C3570 1.368 . S
C3567 C3548 1.429 . S
C3567 C3561 1.429 . S
C3567 C3568 1.523 . S
C3568 C3549 1.368 . S
C3568 C3562 1.368 . S
C3568 C3567 1.523 . S
C3569 C3553 1.429 . S
C3569 C3565 1.429 . S
C3569 C3570 1.523 . S
C3570 C3554 1.368 . S
C3570 C3566 1.368 . S
C3570 C3569 1.523 . S
H3571 C3546 0.950 1_655 S
H3572 C3548 0.946 1_655 S
H3573 C3549 0.949 . S
H3574 C3551 0.950 . S
H3575 C3553 0.950 . S
C1422 C1403 1.684 . S
C1417 C15 1.775 . S
C1452 C1346 1.276 . S
C1447 C55 1.302 . S
C1482 C1384 0.870 . S
C1477 C95 0.925 . S
C1512 C1365 1.505 . S
C1507 C135 1.529 . S
C1542 C1232 1.684 . S
C1537 C175 1.775 . S
C1567 C215 1.529 . S
C1572 C1251 1.505 . S
C1602 C1194 1.275 . S
C1597 C255 1.301 . S
C1627 C295 0.925 . S
C1632 C1213 0.870 . S
C1662 C1327 1.684 . S
C1657 C335 1.775 . S
C1687 C375 1.529 . S
C1692 C1289 1.505 . S
C1717 C415 1.302 . S
C1722 C1270 1.276 . S
C1752 C1308 0.870 . S
C1747 C455 0.925 . S
C1782 C1175 1.689 . S
C1777 C495 1.773 . S
C1807 C535 1.296 . S
C1812 C1118 1.277 . S
C1842 C1156 0.872 . S
C1837 C575 0.925 . S
C1867 C615 1.527 . S
C1872 C1137 1.511 . S
C1902 C1004 1.689 . S
C1897 C655 1.773 . S
C1932 C1023 1.511 . S
C1927 C695 1.527 . S
C1957 C735 1.296 . S
C1962 C966 1.277 . S
C1987 C775 0.925 . S
C1992 C985 0.872 . S
C2017 C815 1.773 . S
C2022 C1099 1.689 . S
C2047 C855 1.527 . S
C2052 C1061 1.511 . S
C2082 C1042 1.277 . S
C2077 C895 1.296 . S
C2107 C935 0.925 . S
C2112 C1080 0.872 . S
C2142 C962 1.556 . S
C2137 C21 1.624 . S
C2172 C981 1.544 . S
C2167 C61 1.663 . S
C2197 C101 0.851 . S
C2202 C1000 0.844 . S
C2227 C141 0.977 . S
C2232 C1019 0.930 . S
C2262 C1038 1.556 . S
C2257 C181 1.624 . S
C2287 C221 0.977 . S
C2292 C1057 0.930 . S
C2322 C1076 1.544 . S
C2317 C261 1.663 . S
C2352 C1095 0.842 . S
C2347 C301 0.847 . S
C2382 C1114 1.556 . S
C2377 C341 1.624 . S
C2407 C381 0.977 . S
C2412 C1133 0.930 . S
C2437 C421 1.666 . S
C2442 C1152 1.540 . S
C2467 C461 0.851 . S
C2472 C1171 0.844 . S
C2497 C501 1.587 . S
C2502 C1190 1.555 . S
C2527 C541 1.561 . S
C2532 C1209 1.537 . S
C2557 C581 0.846 . S
C2562 C1228 0.843 . S
C2587 C621 0.955 . S
C2592 C1247 0.929 . S
C2617 C661 1.587 . S
C2622 C1266 1.555 . S
C2652 C1285 0.936 . S
C2647 C701 0.946 . S
C2682 C1304 1.542 . S
C2677 C741 1.556 . S
C2712 C1323 0.842 . S
C2707 C781 0.846 . S
C2742 C1342 1.555 . S
C2737 C821 1.587 . S
C2767 C861 0.955 . S
C2772 C1361 0.929 . S
C2797 C901 1.561 . S
C2802 C1380 1.537 . S
C2827 C941 0.846 . S
C2832 C1399 0.843 . S
C2857 C2 1.690 . S
C2862 C1123 1.629 . S
C2892 C1180 1.948 . S
C2887 C42 1.977 . S
C2917 C82 1.628 . S
C2922 C1142 1.589 . S
C2952 C1161 1.506 . S
C2947 C122 1.573 . S
C2977 C162 1.690 . S
C2982 C971 1.629 . S
C3007 C202 1.573 . S
C3012 C990 1.506 . S
C3037 C242 1.978 . S
C3042 C1009 1.948 . S
C3067 C282 1.628 . S
C3072 C1028 1.589 . S
C3102 C1047 1.629 . S
C3097 C322 1.690 . S
C3132 C1085 1.506 . S
C3127 C362 1.573 . S
C3157 C402 1.978 . S
C3162 C1104 1.948 . S
C3187 C442 1.628 . S
C3192 C1066 1.589 . S
C3222 C1351 1.603 . S
C3217 C482 1.669 . S
C3252 C1408 1.839 . S
C3247 C522 1.908 . S
C3277 C562 1.624 . S
C3282 C1370 1.496 . S
C3312 C1389 1.457 . S
C3307 C602 1.538 . S
C3337 C642 1.670 . S
C3342 C1199 1.603 . S
C3367 C682 1.538 . S
C3372 C1218 1.457 . S
C3397 C722 1.908 . S
C3402 C1237 1.839 . S
C3432 C1256 1.496 . S
C3427 C762 1.624 . S
C3462 C1275 1.603 . S
C3457 C802 1.669 . S
C3492 C1313 1.458 . S
C3487 C842 1.538 . S
C3517 C882 1.908 . S
C3522 C1332 1.839 . S
C3552 C1294 1.496 . S
C3547 C922 1.624 . S
