# Generated by pormake.
# Topology pth, (4,4)-cn, num edge types: 1
# Building blocks:
#     Node 0, Type 0, BuildingBlock: QUQFOY_clean_sbu_3, # of connection points: 4
#     Node 1, Type 0, BuildingBlock: QUQFOY_clean_sbu_3, # of connection points: 4
#     Node 2, Type 0, BuildingBlock: QUQFOY_clean_sbu_3, # of connection points: 4
#     Node 3, Type 1, BuildingBlock: NAHDIM_clean_linker_0, # of connection points: 4
#     Node 4, Type 1, BuildingBlock: NAHDIM_clean_linker_0, # of connection points: 4
#     Node 5, Type 1, BuildingBlock: NAHDIM_clean_linker_0, # of connection points: 4
#     Edge 6, Type (0, 1), BuildingBlock: TEMPAE_clean_linker_10, # of connection points: 2
#     Edge 7, Type (0, 1), BuildingBlock: TEMPAE_clean_linker_10, # of connection points: 2
#     Edge 8, Type (0, 1), BuildingBlock: TEMPAE_clean_linker_10, # of connection points: 2
#     Edge 9, Type (0, 1), BuildingBlock: TEMPAE_clean_linker_10, # of connection points: 2
#     Edge 10, Type (0, 1), BuildingBlock: TEMPAE_clean_linker_10, # of connection points: 2
#     Edge 11, Type (0, 1), BuildingBlock: TEMPAE_clean_linker_10, # of connection points: 2
#     Edge 12, Type (0, 1), BuildingBlock: TEMPAE_clean_linker_10, # of connection points: 2
#     Edge 13, Type (0, 1), BuildingBlock: TEMPAE_clean_linker_10, # of connection points: 2
#     Edge 14, Type (0, 1), BuildingBlock: TEMPAE_clean_linker_10, # of connection points: 2
#     Edge 15, Type (0, 1), BuildingBlock: TEMPAE_clean_linker_10, # of connection points: 2
#     Edge 16, Type (0, 1), BuildingBlock: TEMPAE_clean_linker_10, # of connection points: 2
#     Edge 17, Type (0, 1), BuildingBlock: TEMPAE_clean_linker_10, # of connection points: 2
# Relax obj value: 0.008
# Max RMSD: 0.056
# Mean RMSD: 0.049
data_MOF--net-pth--node1-QUQFOY_clean_sbu_3--node2-NAHDIM_clean_linker_0--edge1-TEMPAE_clean_linker_10
_symmetry_space_group_name_H-M    P1
_symmetry_Int_Tables_number       1
_symmetry_cell_setting            triclinic
loop_
_symmetry_equiv_pos_as_xyz
'x, y, z'
_cell_length_a     32.231722
_cell_length_b     31.951563
_cell_length_c     83.743972
_cell_angle_alpha  89.765789
_cell_angle_beta   91.438725
_cell_angle_gamma 120.75074
loop_
_atom_site_label
_atom_site_type_symbol
_atom_site_fract_x
_atom_site_fract_y
_atom_site_fract_z
_atom_type_partial_charge
C0 C 0.97931 0.12603 0.08257 0.0
O1 O 0.94605 0.1202 0.07278 0.0
Cd2 Cd 0.93816 0.07698 0.04804 0.0
O3 O 0.00256 0.10455 0.08007 0.0
Cd4 Cd 0.00513 0.04565 0.06229 0.0
C5 C 0.05666 0.13524 0.03624 0.0
O6 O 0.92311 0.99495 0.04993 0.0
O7 O 0.98441 -0.00206 0.03859 0.0
O8 O 0.98756 0.99605 0.08546 0.0
C9 C 0.93901 0.9791 0.03914 0.0
O10 O 0.01361 0.12666 0.03451 0.0
C11 C 0.02412 0.99107 0.08511 0.0
O12 O 0.06696 0.1126 0.04669 0.0
O13 O 0.05362 0.01251 0.07394 0.0
C14 C 0.1537 0.08388 0.41331 0.0
O15 O 0.17977 0.10847 0.40182 0.0
Cd16 Cd 0.141 0.11148 0.37713 0.0
O17 O 0.1082 0.06547 0.41235 0.0
Cd18 Cd 0.04445 0.06222 0.39486 0.0
C19 C 0.05998 0.98904 0.37054 0.0
O20 O 0.08534 0.13958 0.3805 0.0
O21 O 0.0202 0.08011 0.36952 0.0
O22 O 0.02031 0.0928 0.41691 0.0
C23 C 0.05293 0.12472 0.36948 0.0
O24 O 0.09758 0.02824 0.36637 0.0
C25 C 0.97673 0.05818 0.41712 0.0
O26 O 0.03433 0.98925 0.38186 0.0
O27 O 0.96392 0.02424 0.40684 0.0
C28 C 0.96269 0.10169 0.70891 0.0
O29 O 0.95587 0.11726 0.72192 0.0
Cd30 Cd -0.00412 0.1218 0.74682 0.0
O31 O 0.99171 0.0857 0.7084 0.0
Cd32 Cd 0.04399 0.07164 0.72752 0.0
C33 C 0.95281 0.0005 0.75259 0.0
O34 O 0.07861 0.15003 0.74091 0.0
O35 O 0.09398 0.09852 0.75226 0.0
O36 O 0.10701 0.09126 0.70816 0.0
C37 C 0.10145 0.14147 0.75168 0.0
O38 O 0.95324 0.03888 0.7569 0.0
C39 C 0.10127 0.0489 0.70777 0.0
O40 O 0.98044 0.00192 0.74173 0.0
O41 O 0.06885 0.01706 0.71654 0.0
C42 C 0.92269 0.63265 0.32184 0.0
C43 C 0.96895 0.67256 0.31435 0.0
C44 C 0.982 0.65915 0.28703 0.0
C45 C 0.03215 0.67956 0.28693 0.0
C46 C 0.05291 0.66127 0.27661 0.0
C47 C 0.02266 0.62125 0.26643 0.0
C48 C 0.9721 0.60223 0.266 0.0
C49 C 0.95254 0.62224 0.27613 0.0
C50 C 0.10697 0.6833 0.27711 0.0
C51 C 0.93842 0.55905 0.25554 0.0
C52 C 0.03602 0.31365 0.31378 0.0
C53 C 0.02501 0.34464 0.3034 0.0
C54 C 0.06462 0.42385 0.2906 0.0
C55 C 0.02451 0.41341 0.28069 0.0
C56 C 0.02523 0.449 0.27071 0.0
C57 C 0.06693 0.49602 0.27059 0.0
C58 C 0.10758 0.50663 0.28037 0.0
C59 C 0.10593 0.4702 0.29024 0.0
C60 C 0.98113 0.43644 0.26042 0.0
C61 C 0.1525 0.55646 0.28045 0.0
C62 C 0.13391 0.44254 0.17469 0.0
C63 C 0.08513 0.4251 0.17776 0.0
C64 C 0.07029 0.45668 0.18328 0.0
C65 C 0.10502 0.50655 0.18585 0.0
C66 C 0.15369 0.5246 0.18193 0.0
C67 C 0.1674 0.4923 0.17625 0.0
C68 C 0.01777 0.43651 0.18684 0.0
C69 C 0.19147 0.57765 0.18433 0.0
C70 C 0.95206 0.73504 0.17116 0.0
C71 C -0.00036 0.74494 0.16419 0.0
C72 C 0.0126 0.67656 0.16446 0.0
C73 C 0.98284 0.62642 0.16631 0.0
C74 C -0.00024 0.59943 0.17447 0.0
C75 C 0.04799 0.62334 0.18049 0.0
C76 C 0.07936 0.67342 0.17748 0.0
C77 C 0.0612 0.69966 0.16953 0.0
C78 C 0.9656 0.54585 0.1772 0.0
C79 C 0.13143 0.6995 0.18322 0.0
C80 C 0.04292 0.59489 0.25816 0.0
C81 C 0.05123 0.56327 0.2674 0.0
C82 C 0.06683 0.53418 0.26053 0.0
C83 C 0.07587 0.53741 0.24405 0.0
C84 C 0.09263 0.50931 0.23688 0.0
C85 C 0.09877 0.51058 0.22048 0.0
C86 C 0.08775 0.53951 0.2106 0.0
C87 C 0.09112 0.53883 0.1938 0.0
C88 C 0.07927 0.56748 0.18431 0.0
C89 C 0.06399 0.59696 0.19118 0.0
C90 C 0.06091 0.5986 0.20797 0.0
C91 C 0.04588 0.62812 0.21528 0.0
C92 C 0.04134 0.62812 0.23177 0.0
C93 C 0.05046 0.59772 0.24153 0.0
C94 C 0.06677 0.5686 0.23445 0.0
C95 C 0.07229 0.56929 0.21768 0.0
C96 C 0.16879 0.35262 0.17839 0.0
C97 C 0.12897 0.3636 0.17407 0.0
O98 O 0.96122 0.67316 0.29801 0.0
O99 O 0.99335 0.7019 0.15794 0.0
O100 O 0.15009 0.41254 0.17039 0.0
O101 O 0.06459 0.39035 0.30066 0.0
H102 H -0.00261 0.66325 0.31695 0.0
H103 H 0.91291 0.59666 0.31669 0.0
H104 H 0.89223 0.63892 0.31945 0.0
H105 H 0.92815 0.63166 0.33496 0.0
H106 H 0.05483 0.70905 0.29518 0.0
H107 H 0.91385 0.60723 0.27626 0.0
H108 H 0.11603 0.65844 0.28355 0.0
H109 H 0.12584 0.71924 0.28334 0.0
H110 H 0.12072 0.68781 0.26482 0.0
H111 H 0.89984 0.54649 0.25752 0.0
H112 H 0.94443 0.5283 0.25789 0.0
H113 H 0.94597 0.5689 0.24279 0.0
H114 H 0.99236 0.34599 0.3067 0.0
H115 H 0.01476 0.30808 0.32486 0.0
H116 H 0.07216 0.33859 0.3198 0.0
H117 H 0.02355 0.25602 0.29864 0.0
H118 H 0.99235 0.37761 0.2807 0.0
H119 H 0.13674 0.4779 0.29787 0.0
H120 H 0.99059 0.44053 0.24762 0.0
H121 H 0.96837 0.46197 0.26306 0.0
H122 H 0.95099 0.39862 0.2623 0.0
H123 H 0.18192 0.55828 0.28818 0.0
H124 H 0.14381 0.58382 0.2848 0.0
H125 H 0.16562 0.56657 0.2681 0.0
H126 H 0.10665 0.35521 0.18488 0.0
H127 H 0.05863 0.38686 0.17599 0.0
H128 H 0.2048 0.50547 0.17357 0.0
H129 H 0.01366 0.43713 0.19994 0.0
H130 H 0.9945 0.39847 0.18242 0.0
H131 H 0.00485 0.45956 0.18129 0.0
H132 H 0.22771 0.58606 0.18054 0.0
H133 H 0.19388 0.58771 0.19714 0.0
H134 H 0.18084 0.6006 0.17743 0.0
H135 H 0.02706 0.75896 0.17417 0.0
H136 H 0.95623 0.76903 0.1763 0.0
H137 H 0.94131 0.70778 0.18083 0.0
H138 H 0.92283 0.72055 0.16181 0.0
H139 H 0.94563 0.60894 0.16202 0.0
H140 H 0.08468 0.73824 0.16746 0.0
H141 H 0.96222 0.53848 0.19022 0.0
H142 H 0.98034 0.52449 0.17192 0.0
H143 H 0.92905 0.53286 0.17187 0.0
H144 H 0.15255 0.73664 0.17817 0.0
H145 H 0.14854 0.67826 0.17991 0.0
H146 H 0.13314 0.70267 0.19644 0.0
H147 H 0.04351 0.55975 0.28004 0.0
H148 H 0.10091 0.48579 0.24387 0.0
H149 H 0.11154 0.48796 0.21564 0.0
H150 H 0.08099 0.56604 0.17141 0.0
H151 H 0.0372 0.65143 0.20835 0.0
H152 H 0.02962 0.65148 0.23675 0.0
H153 H 0.19332 0.36095 0.16823 0.0
H154 H 0.15282 0.31364 0.18156 0.0
H155 H 0.19041 0.37521 0.18885 0.0
C156 C 0.2758 0.92676 0.62778 0.0
C157 C 0.30722 0.97187 0.63837 0.0
C158 C 0.3774 0.02475 0.62193 0.0
C159 C 0.40088 0.0691 0.61393 0.0
C160 C 0.44346 0.08363 0.60568 0.0
C161 C 0.46242 0.05234 0.60514 0.0
C162 C 0.43958 0.00789 0.61353 0.0
C163 C 0.3976 0.99475 0.62199 0.0
C164 C 0.46744 0.13186 0.5972 0.0
C165 C 0.45885 0.97365 0.61322 0.0
C166 C 0.85111 0.18565 0.59841 0.0
C167 C 0.81028 0.15177 0.60938 0.0
C168 C 0.73548 0.15365 0.61035 0.0
C169 C 0.70279 0.10319 0.61054 0.0
C170 C 0.65424 0.08396 0.60583 0.0
C171 C 0.63812 0.11589 0.60102 0.0
C172 C 0.67005 0.16684 0.60212 0.0
C173 C 0.71842 0.18508 0.60687 0.0
C174 C 0.6207 0.02946 0.60527 0.0
C175 C 0.6537 0.20187 0.59742 0.0
C176 C 0.68778 0.08326 0.49908 0.0
C177 C 0.66049 0.03947 0.50726 0.0
C178 C 0.61986 0.03063 0.51576 0.0
C179 C 0.60648 0.06648 0.51609 0.0
C180 C 0.6329 0.10988 0.50733 0.0
C181 C 0.67302 0.11745 0.49876 0.0
C182 C 0.59159 0.98327 0.52456 0.0
C183 C 0.61944 0.14868 0.50737 0.0
C184 C 0.20792 0.9181 0.51129 0.0
C185 C 0.25778 0.9609 0.50734 0.0
C186 C 0.33592 0.96579 0.50857 0.0
C187 C 0.35653 0.93696 0.51096 0.0
C188 C 0.40429 0.95734 0.51673 0.0
C189 C 0.43222 0.00804 0.5198 0.0
C190 C 0.41264 0.03795 0.51628 0.0
C191 C 0.36452 0.01646 0.51078 0.0
C192 C 0.42428 0.9245 0.52012 0.0
C193 C 0.44204 0.09239 0.51885 0.0
C194 C 0.50395 0.06438 0.59486 0.0
C195 C 0.55006 0.08467 0.60199 0.0
C196 C 0.59021 0.09605 0.59287 0.0
C197 C 0.58461 0.08765 0.57616 0.0
C198 C 0.62433 0.099 0.56663 0.0
C199 C 0.61843 0.09002 0.55026 0.0
C200 C 0.57257 0.06933 0.54274 0.0
C201 C 0.56605 0.05918 0.52613 0.0
C202 C 0.52018 0.03983 0.51895 0.0
C203 C 0.48014 0.0291 0.52801 0.0
C204 C 0.48569 0.03751 0.54472 0.0
C205 C 0.44583 0.02528 0.55427 0.0
C206 C 0.45165 0.03382 0.57067 0.0
C207 C 0.49761 0.05516 0.57818 0.0
C208 C 0.53815 0.06715 0.56881 0.0
C209 C 0.53216 0.05816 0.55207 0.0
C210 C 0.80194 0.13642 0.50634 0.0
C211 C 0.7657 0.08883 0.49777 0.0
O212 O 0.33519 0.0123 0.6291 0.0
O213 O 0.2883 0.94337 0.50439 0.0
O214 O 0.72808 0.09315 0.49124 0.0
O215 O 0.78362 0.17319 0.61318 0.0
H216 H 0.33099 0.96432 0.64621 0.0
H217 H 0.29858 0.91645 0.62111 0.0
H218 H 0.25388 0.93374 0.61892 0.0
H219 H 0.25123 0.89533 0.63526 0.0
H220 H 0.38538 0.09224 0.61404 0.0
H221 H 0.3805 0.96063 0.6283 0.0
H222 H 0.50692 0.15214 0.5999 0.0
H223 H 0.45236 0.15487 0.60064 0.0
H224 H 0.46219 0.12538 0.5841 0.0
H225 H 0.43571 0.93939 0.61975 0.0
H226 H 0.49574 0.99191 0.61873 0.0
H227 H 0.46157 0.96437 0.60068 0.0
H228 H 0.78799 0.11754 0.60235 0.0
H229 H 0.87386 0.16984 0.59564 0.0
H230 H 0.8742 0.2222 0.60397 0.0
H231 H 0.83555 0.19023 0.58701 0.0
H232 H 0.71522 0.07872 0.61408 0.0
H233 H 0.74369 0.22402 0.60715 0.0
H234 H 0.58708 0.0194 0.61163 0.0
H235 H 0.63752 0.00971 0.6107 0.0
H236 H 0.61036 0.01721 0.59265 0.0
H237 H 0.68146 0.24024 0.60038 0.0
H238 H 0.61987 0.19238 0.60355 0.0
H239 H 0.64573 0.19882 0.58436 0.0
H240 H 0.75209 0.0592 0.50673 0.0
H241 H 0.67066 0.01202 0.50693 0.0
H242 H 0.69398 0.1508 0.49217 0.0
H243 H 0.59564 0.99064 0.53762 0.0
H244 H 0.60391 0.95737 0.52192 0.0
H245 H 0.55256 0.96578 0.52132 0.0
H246 H 0.64415 0.18077 0.50016 0.0
H247 H 0.62024 0.16093 0.51983 0.0
H248 H 0.58201 0.13332 0.50252 0.0
H249 H 0.27095 0.98514 0.5181 0.0
H250 H 0.1828 0.93127 0.51383 0.0
H251 H 0.21079 0.8992 0.52205 0.0
H252 H 0.19269 0.89149 0.50121 0.0
H253 H 0.33436 0.89801 0.50892 0.0
H254 H 0.34931 0.03929 0.50839 0.0
H255 H 0.43585 0.92795 0.53289 0.0
H256 H 0.45663 0.93586 0.51285 0.0
H257 H 0.3975 0.88565 0.51741 0.0
H258 H 0.4243 0.11114 0.51334 0.0
H259 H 0.47844 0.10744 0.51379 0.0
H260 H 0.44701 0.10061 0.53186 0.0
H261 H 0.55468 0.0913 0.61479 0.0
H262 H 0.66055 0.11489 0.5717 0.0
H263 H 0.65035 0.09955 0.54357 0.0
H264 H 0.51547 0.03238 0.50619 0.0
H265 H 0.40954 0.00877 0.54921 0.0
H266 H 0.41955 0.02342 0.57736 0.0
H267 H 0.81654 0.16737 0.49789 0.0
H268 H 0.83233 0.13362 0.51169 0.0
H269 H 0.78392 0.14403 0.5161 0.0
C270 C 0.76255 0.67691 0.82416 0.0
C271 C 0.73485 0.69623 0.81445 0.0
C272 C 0.66737 0.68282 0.83126 0.0
C273 C 0.64761 0.70656 0.83926 0.0
C274 C 0.60388 0.6803 0.8472 0.0
C275 C 0.58018 0.62887 0.8476 0.0
C276 C 0.59924 0.60442 0.83917 0.0
C277 C 0.64229 0.63161 0.83088 0.0
C278 C 0.58375 0.70769 0.85551 0.0
C279 C 0.57482 0.54958 0.83926 0.0
C280 C 0.18287 0.3808 0.84965 0.0
C281 C 0.22799 0.38598 0.84208 0.0
C282 C 0.30561 0.46169 0.84062 0.0
C283 C 0.33535 0.4416 0.84229 0.0
C284 C 0.38375 0.4705 0.84741 0.0
C285 C 0.40269 0.52044 0.85089 0.0
C286 C 0.37382 0.54147 0.84807 0.0
C287 C 0.32559 0.51175 0.84282 0.0
C288 C 0.41402 0.44722 0.84983 0.0
C289 C 0.39317 0.59474 0.85144 0.0
C290 C 0.34079 0.451 0.95289 0.0
C291 C 0.36671 0.43091 0.94653 0.0
C292 C 0.40938 0.46013 0.93833 0.0
C293 C 0.42641 0.51038 0.93656 0.0
C294 C 0.40161 0.53111 0.94366 0.0
C295 C 0.35919 0.50106 0.95189 0.0
C296 C 0.43579 0.4372 0.93126 0.0
C297 C 0.41917 0.58466 0.94212 0.0
C298 C 0.82505 0.73737 0.94696 0.0
C299 C 0.77839 0.73641 0.95072 0.0
C300 C 0.69666 0.66632 0.94762 0.0
C301 C 0.67269 0.61614 0.9449 0.0
C302 C 0.62635 0.59138 0.93776 0.0
C303 C 0.60319 0.61757 0.93361 0.0
C304 C 0.62618 0.66796 0.93718 0.0
C305 C 0.67286 0.69192 0.94411 0.0
C306 C 0.6026 0.53751 0.93432 0.0
C307 C 0.60171 0.69656 0.93345 0.0
C308 C 0.5375 0.60096 0.85774 0.0
C309 C 0.49159 0.57598 0.85035 0.0
C310 C 0.45028 0.5488 0.85933 0.0
C311 C 0.45449 0.54722 0.87615 0.0
C312 C 0.41352 0.52093 0.88555 0.0
C313 C 0.41801 0.51888 0.90204 0.0
C314 C 0.46363 0.54305 0.90981 0.0
C315 C 0.46862 0.54055 0.92655 0.0
C316 C 0.51432 0.56563 0.93397 0.0
C317 C 0.55569 0.59259 0.92503 0.0
C318 C 0.55161 0.59464 0.90822 0.0
C319 C 0.59263 0.62008 0.89881 0.0
C320 C 0.58817 0.62195 0.8823 0.0
C321 C 0.54248 0.59873 0.87452 0.0
C322 C 0.50075 0.57219 0.88375 0.0
C323 C 0.50533 0.57011 0.90061 0.0
C324 C 0.21938 0.3821 0.94841 0.0
C325 C 0.26158 0.37763 0.95505 0.0
O326 O 0.71096 0.71087 0.82446 0.0
O327 O 0.74268 0.68873 0.95355 0.0
O328 O 0.29823 0.42324 0.96018 0.0
O329 O 0.25748 0.43374 0.83729 0.0
H330 H 0.70835 0.66658 0.80632 0.0
H331 H 0.73719 0.6425 0.83019 0.0
H332 H 0.78628 0.70346 0.83353 0.0
H333 H 0.78494 0.6693 0.81616 0.0
H334 H 0.66685 0.74603 0.83934 0.0
H335 H 0.65644 0.61249 0.8245 0.0
H336 H 0.5442 0.68981 0.85315 0.0
H337 H 0.60126 0.74619 0.85162 0.0
H338 H 0.58983 0.70742 0.8686 0.0
H339 H 0.59621 0.53628 0.83318 0.0
H340 H 0.53891 0.53349 0.83313 0.0
H341 H 0.56888 0.53624 0.85174 0.0
H342 H 0.24624 0.37655 0.8517 0.0
H343 H 0.15807 0.3424 0.85313 0.0
H344 H 0.16338 0.39239 0.84131 0.0
H345 H 0.19346 0.40406 0.86056 0.0
H346 H 0.32063 0.40321 0.83991 0.0
H347 H 0.30257 0.52707 0.84118 0.0
H348 H 0.44934 0.4693 0.84403 0.0
H349 H 0.39583 0.4095 0.84492 0.0
H350 H 0.42137 0.44606 0.8628 0.0
H351 H 0.36731 0.60628 0.84759 0.0
H352 H 0.42765 0.61725 0.84521 0.0
H353 H 0.40094 0.60203 0.86445 0.0
H354 H 0.27352 0.36333 0.94519 0.0
H355 H 0.35373 0.3925 0.94799 0.0
H356 H 0.33927 0.51624 0.95713 0.0
H357 H 0.43498 0.4396 0.91804 0.0
H358 H 0.41962 0.39831 0.93458 0.0
H359 H 0.47424 0.45739 0.93536 0.0
H360 H 0.39624 0.59531 0.94859 0.0
H361 H 0.4194 0.59387 0.92931 0.0
H362 H 0.45685 0.6065 0.9469 0.0
H363 H 0.76874 0.7506 0.93995 0.0
H364 H 0.85427 0.77514 0.9444 0.0
H365 H 0.81911 0.7143 0.93627 0.0
H366 H 0.8368 0.72318 0.95717 0.0
H367 H 0.69115 0.59666 0.94792 0.0
H368 H 0.69062 0.73053 0.94678 0.0
H369 H 0.59203 0.53006 0.92146 0.0
H370 H 0.56917 0.51751 0.94127 0.0
H371 H 0.62659 0.52305 0.93746 0.0
H372 H 0.62213 0.73409 0.93851 0.0
H373 H 0.5647 0.6776 0.93823 0.0
H374 H 0.59828 0.69895 0.9203 0.0
H375 H 0.48802 0.57725 0.83747 0.0
H376 H 0.37742 0.50155 0.88028 0.0
H377 H 0.38518 0.49805 0.90861 0.0
H378 H 0.51777 0.56363 0.94683 0.0
H379 H 0.62872 0.63875 0.9041 0.0
H380 H 0.62111 0.64188 0.87572 0.0
H381 H 0.20537 0.39586 0.95777 0.0
H382 H 0.18964 0.34617 0.94397 0.0
H383 H 0.23157 0.40791 0.93828 0.0
C384 C 0.02839 0.16228 0.10758 0.0
C385 C 0.99333 0.15922 0.09658 0.0
C386 C 0.0457 0.19607 0.12021 0.0
C387 C 0.02747 0.22769 0.12198 0.0
C388 C 0.99097 0.2239 0.11126 0.0
C389 C 0.97428 0.18965 0.09865 0.0
C390 C 0.08457 0.19878 0.1314 0.0
C391 C 0.97054 0.25688 0.11288 0.0
C392 C 0.05567 0.28797 0.16286 0.0
C393 C 0.09856 0.33193 0.1601 0.0
C394 C 0.03028 0.25484 0.15035 0.0
C395 C 0.04852 0.26581 0.13472 0.0
C396 C 0.09067 0.31111 0.13174 0.0
C397 C 0.11535 0.34351 0.14449 0.0
C398 C 0.98557 0.2069 0.15402 0.0
C399 C 0.11138 0.32416 0.11527 0.0
H400 H 0.04319 0.13878 0.10618 0.0
H401 H 0.94719 0.18753 0.09022 0.0
H402 H 0.11786 0.23505 0.13052 0.0
H403 H 0.07281 0.19445 0.14393 0.0
H404 H 0.09365 0.17042 0.1287 0.0
H405 H 0.94019 0.24726 0.10424 0.0
H406 H 0.95761 0.25501 0.12516 0.0
H407 H -0.00071 0.29517 0.11087 0.0
H408 H 0.04292 0.27875 0.17495 0.0
H409 H 0.14882 0.37719 0.14235 0.0
H410 H 0.99358 0.17711 0.15312 0.0
H411 H 0.95607 0.19884 0.14521 0.0
H412 H 0.9726 0.2066 0.16621 0.0
H413 H 0.12586 0.30053 0.11199 0.0
H414 H 0.141 0.36277 0.11459 0.0
H415 H 0.08281 0.31771 0.10627 0.0
C416 C 0.89397 0.02173 0.42845 0.0
C417 C 0.94289 0.05834 0.42873 0.0
C418 C 0.8618 0.02279 0.43926 0.0
C419 C 0.87909 0.06129 0.4506 0.0
C420 C 0.92853 0.09799 0.45103 0.0
C421 C 0.95974 0.09609 0.4401 0.0
C422 C 0.8093 0.98306 0.43848 0.0
C423 C 0.94848 0.13953 0.46299 0.0
C424 C 0.79666 0.09812 0.46962 0.0
C425 C 0.79063 0.0775 0.48483 0.0
C426 C 0.82351 0.09117 0.45809 0.0
C427 C 0.84575 0.06388 0.46198 0.0
C428 C 0.83931 0.0425 0.47724 0.0
C429 C 0.8119 0.04965 0.48848 0.0
C430 C 0.8295 0.11451 0.44194 0.0
C431 C 0.86297 0.01372 0.48193 0.0
H432 H 0.88071 0.99246 0.41971 0.0
H433 H -0.00249 0.12449 0.44044 0.0
H434 H 0.79845 0.96474 0.45019 0.0
H435 H 0.78641 -0.00089 0.4359 0.0
H436 H 0.80172 0.95524 0.42915 0.0
H437 H 0.988 0.16465 0.46193 0.0
H438 H 0.93018 0.16072 0.46125 0.0
H439 H 0.94124 0.1251 0.47531 0.0
H440 H 0.78117 0.12053 0.46684 0.0
H441 H 0.80806 0.03446 0.50033 0.0
H442 H 0.82027 0.08719 0.4323 0.0
H443 H 0.86778 0.14347 0.44054 0.0
H444 H 0.80653 0.13093 0.44032 0.0
H445 H 0.85435 0.98496 0.47287 0.0
H446 H 0.85138 0.99636 0.49378 0.0
H447 H 0.90278 0.03816 0.48237 0.0
C448 C 0.9314 0.91693 0.76129 0.0
C449 C 0.92026 0.95398 0.76054 0.0
C450 C 0.90205 0.87373 0.76959 0.0
C451 C 0.86005 0.86707 0.77696 0.0
C452 C 0.84794 0.90379 0.77584 0.0
C453 C 0.87851 0.94704 0.7678 0.0
C454 C 0.91665 0.83581 0.77083 0.0
C455 C 0.80295 0.89764 0.78327 0.0
C456 C 0.76133 0.7395 0.78797 0.0
C457 C 0.76902 0.7396 0.80454 0.0
C458 C 0.79099 0.78055 0.77879 0.0
C459 C 0.82955 0.82248 0.78634 0.0
C460 C 0.83791 0.8226 0.80302 0.0
C461 C 0.80709 0.78149 0.81194 0.0
C462 C 0.78034 0.77949 0.76109 0.0
C463 C 0.87899 0.86642 0.81149 0.0
H464 H 0.96384 0.9223 0.75579 0.0
H465 H 0.86955 0.97543 0.76714 0.0
H466 H 0.92318 0.8306 0.78356 0.0
H467 H 0.88705 0.80026 0.76616 0.0
H468 H 0.94985 0.84611 0.76415 0.0
H469 H 0.7972 0.92836 0.7805 0.0
H470 H 0.7708 0.86326 0.77896 0.0
H471 H 0.80549 0.89506 0.79644 0.0
H472 H 0.73154 0.70754 0.78222 0.0
H473 H 0.81253 0.7823 0.82478 0.0
H474 H 0.81262 0.78753 0.75427 0.0
H475 H 0.77174 0.80817 0.75817 0.0
H476 H 0.74957 0.74373 0.75699 0.0
H477 H 0.91356 0.87726 0.80565 0.0
H478 H 0.88253 0.85941 0.82431 0.0
H479 H 0.8732 0.89773 0.81065 0.0
C480 C 0.06633 0.9483 0.09559 0.0
C481 C 0.03005 0.95989 0.09693 0.0
C482 C 0.06899 0.91542 0.10619 0.0
C483 C 0.03453 0.89383 0.1183 0.0
C484 C -0.0011 0.90672 0.11999 0.0
C485 C -0.00283 0.93957 0.10932 0.0
C486 C 0.10764 0.90268 0.10414 0.0
C487 C 0.96154 0.88465 0.13279 0.0
C488 C 0.994 0.77025 0.13595 0.0
C489 C 0.0152 0.78296 0.15132 0.0
C490 C 0.00307 0.80609 0.1246 0.0
C491 C 0.03344 0.85582 0.12882 0.0
C492 C 0.0568 0.86875 0.14406 0.0
C493 C 0.04719 0.83211 0.15516 0.0
C494 C 0.9775 0.79082 0.10847 0.0
C495 C 0.08933 0.92135 0.14902 0.0
H496 H 0.09189 0.96398 0.08605 0.0
H497 H 0.96921 0.94858 0.11052 0.0
H498 H 0.12702 0.90662 0.11569 0.0
H499 H 0.09073 0.86405 0.1003 0.0
H500 H 0.13432 0.9259 0.09514 0.0
H501 H 0.93752 0.9001 0.13288 0.0
H502 H 0.93886 0.8447 0.13086 0.0
H503 H 0.97948 0.89075 0.14473 0.0
H504 H 0.96877 0.73232 0.13301 0.0
H505 H 0.06322 0.84201 0.1671 0.0
H506 H 0.00312 0.81031 0.09879 0.0
H507 H 0.94906 0.8006 0.10771 0.0
H508 H 0.96025 0.75098 0.10632 0.0
H509 H 0.11486 0.94215 0.13945 0.0
H510 H 0.11032 0.92508 0.16019 0.0
H511 H 0.06713 0.93821 0.15104 0.0
C512 C 0.14488 0.04031 0.4389 0.0
C513 C 0.17523 0.07376 0.42757 0.0
C514 C 0.16373 0.02689 0.45185 0.0
C515 C 0.2143 0.0478 0.45366 0.0
C516 C 0.24538 0.08286 0.44262 0.0
C517 C 0.22544 0.09526 0.42961 0.0
C518 C 0.12929 0.98918 0.46333 0.0
C519 C 0.29951 0.10639 0.44434 0.0
C520 C 0.25206 0.03022 0.49515 0.0
C521 C 0.25395 0.98776 0.49298 0.0
C522 C 0.24239 0.05227 0.48221 0.0
C523 C 0.23381 0.03089 0.46681 0.0
C524 C 0.2379 0.9893 0.46443 0.0
C525 C 0.24776 0.96812 0.47757 0.0
C526 C 0.23861 0.09675 0.48521 0.0
C527 C 0.22891 0.96536 0.4482 0.0
H528 H 0.10605 0.02346 0.43746 0.0
H529 H 0.24914 0.1213 0.42095 0.0
H530 H 0.13327 0.95668 0.46304 0.0
H531 H 0.138 0.0039 0.47572 0.0
H532 H 0.09099 0.97738 0.46045 0.0
H533 H 0.31876 0.13577 0.43552 0.0
H534 H 0.31192 0.12191 0.45654 0.0
H535 H 0.30988 0.07853 0.44267 0.0
H536 H 0.25659 0.04529 0.50708 0.0
H537 H 0.24884 0.93507 0.4759 0.0
H538 H 0.2002 0.08667 0.48419 0.0
H539 H 0.2586 0.12493 0.47612 0.0
H540 H 0.25286 0.11278 0.49727 0.0
H541 H 0.19013 0.94855 0.44473 0.0
H542 H 0.2386 0.93662 0.44803 0.0
H543 H 0.24996 0.99281 0.43904 0.0
C544 C 0.16986 0.21792 0.76322 0.0
C545 C 0.12494 0.17566 0.76507 0.0
C546 C 0.19084 0.25268 0.77561 0.0
C547 C 0.16536 0.24536 0.78988 0.0
C548 C 0.12002 0.20228 0.79176 0.0
C549 C 0.10056 0.16762 0.77935 0.0
C550 C 0.23976 0.29754 0.77332 0.0
C551 C 0.09129 0.19357 0.80665 0.0
C552 C 0.22656 0.31501 0.82823 0.0
C553 C 0.21471 0.35158 0.82796 0.0
C554 C 0.21236 0.28127 0.81561 0.0
C555 C 0.18482 0.28359 0.80258 0.0
C556 C 0.17375 0.32114 0.80205 0.0
C557 C 0.18946 0.35512 0.81464 0.0
C558 C 0.22596 0.24255 0.81639 0.0
C559 C 0.14392 0.32448 0.78846 0.0
H560 H 0.18836 0.22384 0.75206 0.0
H561 H 0.06546 0.13496 0.78057 0.0
H562 H 0.23624 0.3303 0.77295 0.0
H563 H 0.2644 0.30235 0.78356 0.0
H564 H 0.25653 0.29573 0.76212 0.0
H565 H 0.05698 0.15785 0.80632 0.0
H566 H 0.11294 0.19494 0.81735 0.0
H567 H 0.08266 0.2228 0.80807 0.0
H568 H 0.24654 0.31249 0.83843 0.0
H569 H 0.18095 0.38383 0.81428 0.0
H570 H 0.2433 0.24198 0.80517 0.0
H571 H 0.19299 0.2062 0.81757 0.0
H572 H 0.25101 0.24834 0.82662 0.0
H573 H 0.16117 0.32712 0.77691 0.0
H574 H 0.1392 0.35639 0.78972 0.0
H575 H 0.10771 0.29092 0.78793 0.0
C576 C 0.89295 0.10132 0.69516 0.0
C577 C 0.93734 0.10338 0.6942 0.0
C578 C 0.86956 0.10559 0.68144 0.0
C579 C 0.89175 0.11343 0.66648 0.0
C580 C 0.9362 0.11475 0.6654 0.0
C581 C 0.95819 0.10907 0.67927 0.0
C582 C 0.82156 0.10265 0.68301 0.0
C583 C 0.96138 0.12391 0.64971 0.0
C584 C 0.81871 0.09385 0.62801 0.0
C585 C 0.83003 0.14146 0.62452 0.0
C586 C 0.83793 0.08398 0.64177 0.0
C587 C 0.86974 0.12277 0.65212 0.0
C588 C 0.88082 0.17082 0.64875 0.0
C589 C 0.86035 0.17947 0.63509 0.0
C590 C 0.82438 0.03213 0.64519 0.0
C591 C 0.91486 0.21322 0.65944 0.0
H592 H 0.87648 0.09638 0.70667 0.0
H593 H 0.99262 0.11091 0.67851 0.0
H594 H 0.82547 0.1384 0.68014 0.0
H595 H 0.79461 0.07558 0.67437 0.0
H596 H 0.80729 0.09236 0.69524 0.0
H597 H 0.99504 0.12247 0.6508 0.0
H598 H 0.937 0.09661 0.64063 0.0
H599 H 0.97061 0.1603 0.64519 0.0
H600 H 0.79489 0.06431 0.61995 0.0
H601 H 0.86857 0.21618 0.63254 0.0
H602 H 0.80904 0.02167 0.65726 0.0
H603 H 0.85705 0.02893 0.64513 0.0
H604 H 0.79762 0.0059 0.6363 0.0
H605 H 0.9006 0.2075 0.67167 0.0
H606 H 0.92031 0.24844 0.65498 0.0
H607 H 0.95047 0.21572 0.66035 0.0
C608 C 0.92736 0.92193 0.01713 0.0
C609 C 0.90707 0.94063 0.02748 0.0
C610 C 0.89913 0.8868 0.00552 0.0
C611 C 0.84912 0.86973 0.00414 0.0
C612 C 0.82802 0.88773 0.01469 0.0
C613 C 0.85733 0.92308 0.02629 0.0
C614 C 0.92315 0.86847 0.99457 0.0
C615 C 0.77478 0.87017 0.01355 0.0
C616 C 0.80195 0.81788 0.96281 0.0
C617 C 0.78667 0.76865 0.96508 0.0
C618 C 0.81854 0.85076 0.97572 0.0
C619 C 0.82007 0.83396 0.99128 0.0
C620 C 0.80147 0.78367 0.9938 0.0
C621 C 0.78545 0.75165 0.98063 0.0
C622 C 0.83828 0.90412 0.9725 0.0
C623 C 0.80216 0.76424 0.0102 0.0
H624 H 0.9657 0.935 0.01801 0.0
H625 H 0.84148 0.9374 0.03427 0.0
H626 H 0.90572 0.82834 -0.00452 0.0
H627 H 0.91876 0.87683 0.98198 0.0
H628 H 0.96234 0.88501 -0.0026 0.0
H629 H 0.76348 0.88584 0.02316 0.0
H630 H 0.7659 0.88033 0.00182 0.0
H631 H 0.75334 0.82987 0.01426 0.0
H632 H 0.8033 0.83114 0.95078 0.0
H633 H 0.77415 0.71371 0.98244 0.0
H634 H 0.8783 0.92395 0.97354 0.0
H635 H 0.82542 0.92016 0.98143 0.0
H636 H 0.8278 0.9102 0.96036 0.0
H637 H 0.83964 0.77412 0.01354 0.0
H638 H 0.77877 0.72397 0.01062 0.0
H639 H 0.79011 0.78066 0.01927 0.0
C640 C 0.06794 0.94416 0.34756 0.0
C641 C 0.04612 0.94305 0.36199 0.0
C642 C 0.05551 0.90111 0.33927 0.0
C643 C 0.02076 0.85577 0.34562 0.0
C644 C -0.00153 0.85431 0.36014 0.0
C645 C 0.01124 0.89801 0.36811 0.0
C646 C 0.07973 0.90414 0.32374 0.0
C647 C 0.96151 0.80654 0.36733 0.0
C648 C 0.95817 0.745 0.31814 0.0
C649 C 0.98403 0.72161 0.32172 0.0
C650 C 0.96995 0.78894 0.32573 0.0
C651 C 0.00839 0.80979 0.33721 0.0
C652 C 0.03488 0.78655 0.34078 0.0
C653 C 0.02224 0.74261 0.33303 0.0
C654 C 0.94093 0.81272 0.32162 0.0
C655 C 0.0762 0.80777 0.35292 0.0
H656 H 0.09466 0.97882 0.34267 0.0
H657 H 0.99431 0.89683 0.37926 0.0
H658 H 0.10008 0.88481 0.32485 0.0
H659 H 0.05213 0.88584 0.31403 0.0
H660 H 0.10507 0.94234 0.32021 0.0
H661 H 0.94705 0.81169 0.37858 0.0
H662 H 0.93097 0.7858 0.3587 0.0
H663 H 0.97795 0.78396 0.36988 0.0
H664 H 0.92829 0.7285 0.30952 0.0
H665 H 0.04197 0.72435 0.33594 0.0
H666 H 0.96516 0.85045 0.31748 0.0
H667 H 0.92301 0.81514 0.33243 0.0
H668 H 0.91285 0.79235 0.31217 0.0
H669 H 0.1039 0.84524 0.34947 0.0
H670 H 0.09366 0.78558 0.35412 0.0
H671 H 0.06297 0.81038 0.36476 0.0
C672 C 0.17485 0.07465 0.6918 0.0
C673 C 0.13101 0.03726 0.69762 0.0
C674 C 0.20379 0.06414 0.68233 0.0
C675 C 0.18796 0.01513 0.67831 0.0
C676 C 0.14342 0.97725 0.684 0.0
C677 C 0.11572 0.98875 0.69374 0.0
C678 C 0.25147 0.10546 0.67674 0.0
C679 C 0.12486 0.92463 0.67968 0.0
C680 C 0.24242 0.99351 0.6418 0.0
C681 C 0.27585 0.98264 0.64876 0.0
C682 C 0.21297 0.00326 0.65128 0.0
C683 C 0.21802 0.00355 0.66812 0.0
C684 C 0.25222 0.9934 0.67523 0.0
C685 C 0.28048 0.98273 0.66546 0.0
C686 C 0.17643 0.01319 0.64325 0.0
C687 C 0.25927 0.99425 0.69314 0.0
H688 H 0.18694 0.11219 0.69485 0.0
H689 H 0.08169 0.95974 0.69813 0.0
H690 H 0.28125 0.0998 0.68082 0.0
H691 H 0.25157 0.10623 0.6635 0.0
H692 H 0.2591 0.14144 0.68124 0.0
H693 H 0.0891 0.89959 0.68484 0.0
H694 H 0.12161 0.9199 0.6665 0.0
H695 H 0.15083 0.91384 0.68402 0.0
H696 H 0.23922 0.99425 0.62891 0.0
H697 H 0.30653 0.9748 0.67091 0.0
H698 H 0.18481 0.05051 0.64632 0.0
H699 H 0.13981 0.98747 0.64765 0.0
H700 H 0.1757 0.00968 0.63004 0.0
H701 H 0.26927 0.03058 0.698 0.0
H702 H 0.2878 0.98614 0.69677 0.0
H703 H 0.22501 0.96716 0.69869 0.0
C704 C 0.08161 0.19679 0.01471 0.0
C705 C 0.09406 0.17136 0.02564 0.0
C706 C 0.11518 0.22997 0.00409 0.0
C707 C 0.16272 0.23828 0.00439 0.0
C708 C 0.17595 0.21324 0.01547 0.0
C709 C 0.14136 0.17992 0.02599 0.0
C710 C 0.09952 0.2559 0.99246 0.0
C711 C 0.22641 0.22142 0.0161 0.0
C712 C 0.22273 0.29199 0.96538 0.0
C713 C 0.24489 0.34196 0.96871 0.0
C714 C 0.19916 0.25743 0.97731 0.0
C715 C 0.19777 0.27333 0.99293 0.0
C716 C 0.22308 0.32373 -0.00336 0.0
C717 C 0.24574 0.35749 0.98443 0.0
C718 C 0.17229 0.20403 0.97283 0.0
C719 C 0.22294 0.34213 0.0132 0.0
H720 H 0.04526 0.19063 0.01432 0.0
H721 H 0.15125 0.16037 0.03438 0.0
H722 H 0.12217 0.29587 0.99431 0.0
H723 H 0.10457 0.24786 0.98002 0.0
H724 H 0.06107 0.24505 0.99374 0.0
H725 H 0.23134 0.20016 0.02571 0.0
H726 H 0.2345 0.2109 0.0045 0.0
H727 H 0.25315 0.26064 0.0181 0.0
H728 H 0.22164 0.27993 0.95321 0.0
H729 H 0.2623 0.39602 0.98709 0.0
H730 H 0.13294 0.19029 0.97221 0.0
H731 H 0.17853 0.18256 0.982 0.0
H732 H 0.18315 0.19742 0.96105 0.0
H733 H 0.18715 0.33795 0.01529 0.0
H734 H 0.25101 0.38117 0.01483 0.0
H735 H 0.22902 0.3206 0.0224 0.0
C736 C 0.06933 0.20522 0.35948 0.0
C737 C 0.05469 0.15648 0.35645 0.0
C738 C 0.06615 0.23408 0.34737 0.0
C739 C 0.04939 0.21388 0.3319 0.0
C740 C 0.03751 0.16563 0.3286 0.0
C741 C 0.03939 0.13711 0.34101 0.0
C742 C 0.07842 0.28522 0.35133 0.0
C743 C 0.02228 0.14393 0.312 0.0
C744 C 0.96461 0.2576 0.30072 0.0
C745 C 0.01798 0.31013 0.29169 0.0
C746 C 0.97879 0.22697 0.31607 0.0
C747 C 0.0403 0.24124 0.31956 0.0
C748 C 0.08919 0.28355 0.30722 0.0
C749 C 0.0786 0.31615 0.29157 0.0
C750 C 0.93938 0.19034 0.32616 0.0
C751 C 0.13854 0.29125 0.30982 0.0
H752 H 0.08107 0.22002 0.37146 0.0
H753 H 0.02884 0.09955 0.33864 0.0
H754 H 0.10517 0.31127 0.34287 0.0
H755 H 0.04538 0.28768 0.35003 0.0
H756 H 0.09334 0.29637 0.3637 0.0
H757 H 0.02076 0.10852 0.31096 0.0
H758 H 0.98602 0.13804 0.30889 0.0
H759 H 0.04779 0.16946 0.30313 0.0
H760 H 0.92886 0.25262 0.29948 0.0
H761 H 0.10798 0.34416 0.28485 0.0
H762 H 0.95279 0.19323 0.33867 0.0
H763 H 0.92766 0.15328 0.32161 0.0
H764 H 0.90801 0.19575 0.32563 0.0
H765 H 0.15603 0.31567 0.32031 0.0
H766 H 0.16072 0.30834 0.29919 0.0
H767 H 0.13613 0.25601 0.31242 0.0
loop_
_geom_bond_atom_site_label_1
_geom_bond_atom_site_label_2
_geom_bond_distance
_geom_bond_site_symmetry_2
_ccdc_geom_bond_type
C0 O1 1.306 1_455 S
C0 O3 1.160 . S
O1 C0 1.306 1_655 S
O1 Cd2 2.228 . S
Cd2 O1 2.228 . S
Cd2 O6 2.273 . S
Cd2 O10 2.277 1_655 S
O3 C0 1.160 . S
O3 Cd4 2.203 . S
Cd4 O3 2.203 . S
Cd4 O6 2.411 1_455 S
Cd4 O7 2.333 1_545 S
Cd4 O8 2.352 1_545 S
Cd4 O12 2.277 . S
Cd4 O13 2.356 1_545 S
C5 O10 1.209 . S
C5 O12 1.226 . S
O6 Cd2 2.273 . S
O6 Cd4 2.411 1_655 S
O6 C9 1.320 1_545 S
O7 Cd4 2.333 1_565 S
O7 C9 1.214 1_455 S
O8 Cd4 2.352 1_565 S
O8 C11 1.258 . S
C9 O6 1.320 1_565 S
C9 O7 1.214 1_655 S
O10 Cd2 2.277 1_455 S
O10 C5 1.209 . S
C11 O8 1.258 . S
C11 O13 1.282 . S
O12 Cd4 2.277 . S
O12 C5 1.226 . S
O13 Cd4 2.356 1_565 S
O13 C11 1.282 . S
C14 O15 1.306 . S
C14 O17 1.160 . S
O15 C14 1.306 . S
O15 Cd16 2.228 . S
Cd16 O15 2.228 . S
Cd16 O20 2.273 . S
Cd16 O24 2.277 . S
O17 C14 1.160 . S
O17 Cd18 2.203 . S
Cd18 O17 2.203 . S
Cd18 O20 2.411 . S
Cd18 O21 2.333 1_455 S
Cd18 O22 2.352 1_455 S
Cd18 O26 2.277 1_445 S
Cd18 O27 2.356 1_455 S
C19 O24 1.209 1_565 S
C19 O26 1.226 1_455 S
O20 Cd16 2.273 . S
O20 Cd18 2.411 . S
O20 C23 1.320 . S
O21 Cd18 2.333 1_655 S
O21 C23 1.214 1_655 S
O22 Cd18 2.352 1_655 S
O22 C25 1.258 . S
C23 O20 1.320 . S
C23 O21 1.214 1_455 S
O24 Cd16 2.277 . S
O24 C19 1.209 1_545 S
C25 O22 1.258 . S
C25 O27 1.282 . S
O26 Cd18 2.277 1_665 S
O26 C19 1.226 1_655 S
O27 Cd18 2.356 1_655 S
O27 C25 1.282 . S
C28 O29 1.306 . S
C28 O31 1.160 . S
O29 C28 1.306 . S
O29 Cd30 2.228 . S
Cd30 O29 2.228 . S
Cd30 O34 2.273 1_655 S
Cd30 O38 2.277 . S
O31 C28 1.160 . S
O31 Cd32 2.203 1_655 S
Cd32 O31 2.203 1_455 S
Cd32 O34 2.411 . S
Cd32 O35 2.333 . S
Cd32 O36 2.352 . S
Cd32 O40 2.277 1_445 S
Cd32 O41 2.356 . S
C33 O38 1.209 1_565 S
C33 O40 1.226 . S
O34 Cd30 2.273 1_455 S
O34 Cd32 2.411 . S
O34 C37 1.320 . S
O35 Cd32 2.333 . S
O35 C37 1.214 . S
O36 Cd32 2.352 . S
O36 C39 1.258 . S
C37 O34 1.320 . S
C37 O35 1.214 . S
O38 Cd30 2.277 . S
O38 C33 1.209 1_545 S
C39 O36 1.258 . S
C39 O41 1.282 . S
O40 Cd32 2.277 1_665 S
O40 C33 1.226 . S
O41 Cd32 2.356 . S
O41 C39 1.282 . S
C42 C43 1.560 1_655 S
C42 H103 0.959 . S
C42 H104 0.959 . S
C42 H105 0.960 . S
C43 C42 1.560 1_455 S
C43 O98 1.426 1_455 S
C43 H102 0.980 . S
C44 C45 1.407 . S
C44 C49 1.418 1_455 S
C44 O98 1.334 1_455 S
C45 C44 1.407 . S
C45 C46 1.360 . S
C45 H106 0.929 . S
C46 C45 1.360 . S
C46 C47 1.401 . S
C46 C50 1.527 . S
C47 C46 1.401 . S
C47 C48 1.405 1_455 S
C47 C80 1.587 . S
C48 C47 1.405 1_655 S
C48 C49 1.332 . S
C48 C51 1.496 . S
C49 C44 1.418 1_655 S
C49 C48 1.332 . S
C49 H107 0.929 . S
C50 C46 1.527 . S
C50 H108 0.959 . S
C50 H109 0.961 . S
C50 H110 0.961 . S
C51 C48 1.496 . S
C51 H111 0.960 . S
C51 H112 0.960 . S
C51 H113 0.961 . S
C52 C53 1.517 . S
C52 H115 0.961 . S
C52 H116 0.960 . S
C52 H117 0.959 . S
C53 C52 1.517 . S
C53 O101 1.468 . S
C53 H114 0.980 . S
C54 C55 1.349 . S
C54 C59 1.367 . S
C54 O101 1.408 . S
C55 C54 1.349 . S
C55 C56 1.407 . S
C55 H118 0.930 . S
C56 C55 1.407 . S
C56 C57 1.449 . S
C56 C60 1.535 1_455 S
C57 C56 1.449 . S
C57 C58 1.384 . S
C57 C82 1.553 . S
C58 C57 1.384 . S
C58 C59 1.364 . S
C58 C61 1.450 . S
C59 C54 1.367 . S
C59 C58 1.364 . S
C59 H119 0.931 . S
C60 C56 1.535 1_655 S
C60 H120 0.959 . S
C60 H121 0.961 . S
C60 H122 0.959 . S
C61 C58 1.450 . S
C61 H123 0.960 . S
C61 H124 0.960 . S
C61 H125 0.960 . S
C62 C63 1.309 . S
C62 C67 1.304 . S
C62 O100 1.435 . S
C63 C62 1.309 . S
C63 C64 1.476 . S
C63 H127 0.930 . S
C64 C63 1.476 . S
C64 C65 1.400 . S
C64 C68 1.567 1_455 S
C65 C64 1.400 . S
C65 C66 1.373 . S
C65 C87 1.432 . S
C66 C65 1.373 . S
C66 C67 1.339 . S
C66 C69 1.530 . S
C67 C62 1.304 . S
C67 C66 1.339 . S
C67 H128 0.930 . S
C68 C64 1.567 1_655 S
C68 H129 0.961 . S
C68 H130 0.960 . S
C68 H131 0.958 . S
C69 C66 1.530 . S
C69 H132 0.961 . S
C69 H133 0.960 . S
C69 H134 0.960 . S
C70 C71 1.555 . S
C70 H136 0.963 . S
C70 H137 0.943 1_455 S
C70 H138 0.950 1_455 S
C71 C70 1.555 . S
C71 O99 1.412 . S
C71 H135 0.980 . S
C72 C73 1.288 1_455 S
C72 C77 1.377 . S
C72 O99 1.393 . S
C73 C72 1.288 1_655 S
C73 C74 1.369 . S
C73 H139 0.932 . S
C74 C73 1.369 . S
C74 C75 1.398 1_655 S
C74 C78 1.527 . S
C75 C74 1.398 1_455 S
C75 C76 1.380 . S
C75 C89 1.497 . S
C76 C75 1.380 . S
C76 C77 1.383 . S
C76 C79 1.603 . S
C77 C72 1.377 . S
C77 C76 1.383 . S
C77 H140 0.929 . S
C78 C74 1.527 . S
C78 H141 0.961 . S
C78 H142 0.959 . S
C78 H143 0.959 . S
C79 C76 1.603 . S
C79 H144 0.960 . S
C79 H145 0.962 . S
C79 H146 0.961 . S
C80 C47 1.587 . S
C80 C81 1.360 . S
C80 C93 1.412 . S
C81 C80 1.360 . S
C81 C82 1.365 . S
C81 H147 0.929 . S
C82 C57 1.553 . S
C82 C81 1.365 . S
C82 C83 1.404 . S
C83 C82 1.404 . S
C83 C84 1.395 . S
C83 C94 1.451 . S
C84 C83 1.395 . S
C84 C85 1.322 . S
C84 H148 0.930 . S
C85 C84 1.322 . S
C85 C86 1.459 . S
C85 H149 0.929 . S
C86 C85 1.459 . S
C86 C87 1.445 . S
C86 C95 1.395 . S
C87 C65 1.432 . S
C87 C86 1.445 . S
C87 C88 1.370 . S
C88 C87 1.370 . S
C88 C89 1.438 . S
C88 H150 0.930 . S
C89 C75 1.497 . S
C89 C88 1.438 . S
C89 C90 1.360 . S
C90 C89 1.360 . S
C90 C91 1.401 . S
C90 C95 1.446 . S
C91 C90 1.401 . S
C91 C92 1.347 . S
C91 H151 0.929 . S
C92 C91 1.347 . S
C92 C93 1.455 . S
C92 H152 0.930 . S
C93 C80 1.412 . S
C93 C92 1.455 . S
C93 C94 1.331 . S
C94 C83 1.451 . S
C94 C93 1.331 . S
C94 C95 1.497 . S
C95 C86 1.395 . S
C95 C90 1.446 . S
C95 C94 1.497 . S
C96 C97 1.582 . S
C96 H153 0.962 . S
C96 H154 0.959 . S
C96 H155 0.958 . S
C97 C96 1.582 . S
C97 O100 1.458 . S
C97 H126 0.980 . S
O98 C43 1.426 1_655 S
O98 C44 1.334 1_655 S
O99 C71 1.412 . S
O99 C72 1.393 . S
O100 C62 1.435 . S
O100 C97 1.458 . S
O101 C53 1.468 . S
O101 C54 1.408 . S
H102 C43 0.980 . S
H103 C42 0.959 . S
H104 C42 0.959 . S
H105 C42 0.960 . S
H106 C45 0.929 . S
H107 C49 0.929 . S
H108 C50 0.959 . S
H109 C50 0.961 . S
H110 C50 0.961 . S
H111 C51 0.960 . S
H112 C51 0.960 . S
H113 C51 0.961 . S
H114 C53 0.980 . S
H115 C52 0.961 . S
H116 C52 0.960 . S
H117 C52 0.959 . S
H118 C55 0.930 . S
H119 C59 0.931 . S
H120 C60 0.959 . S
H121 C60 0.961 . S
H122 C60 0.959 . S
H123 C61 0.960 . S
H124 C61 0.960 . S
H125 C61 0.960 . S
H126 C97 0.980 . S
H127 C63 0.930 . S
H128 C67 0.930 . S
H129 C68 0.961 . S
H130 C68 0.960 . S
H131 C68 0.958 . S
H132 C69 0.961 . S
H133 C69 0.960 . S
H134 C69 0.960 . S
H135 C71 0.980 . S
H136 C70 0.963 . S
H137 C70 0.943 1_655 S
H138 C70 0.950 1_655 S
H139 C73 0.932 . S
H140 C77 0.929 . S
H141 C78 0.961 . S
H142 C78 0.959 . S
H143 C78 0.959 . S
H144 C79 0.960 . S
H145 C79 0.962 . S
H146 C79 0.961 . S
H147 C81 0.929 . S
H148 C84 0.930 . S
H149 C85 0.929 . S
H150 C88 0.930 . S
H151 C91 0.929 . S
H152 C92 0.930 . S
H153 C96 0.962 . S
H154 C96 0.959 . S
H155 C96 0.958 . S
C156 C157 1.560 1_565 S
C156 H217 0.959 . S
C156 H218 0.959 . S
C156 H219 0.960 1_565 S
C157 C156 1.560 1_545 S
C157 O212 1.426 . S
C157 H216 0.980 . S
C158 C159 1.407 . S
C158 C163 1.418 1_545 S
C158 O212 1.334 . S
C159 C158 1.407 . S
C159 C160 1.360 . S
C159 H220 0.929 . S
C160 C159 1.360 . S
C160 C161 1.401 . S
C160 C164 1.527 . S
C161 C160 1.401 . S
C161 C162 1.405 . S
C161 C194 1.587 . S
C162 C161 1.405 . S
C162 C163 1.332 1_545 S
C162 C165 1.496 1_545 S
C163 C158 1.418 1_565 S
C163 C162 1.332 1_565 S
C163 H221 0.929 . S
C164 C160 1.527 . S
C164 H222 0.959 . S
C164 H223 0.961 . S
C164 H224 0.961 . S
C165 C162 1.496 1_565 S
C165 H225 0.960 . S
C165 H226 0.960 . S
C165 H227 0.961 . S
C166 C167 1.517 . S
C166 H229 0.961 . S
C166 H230 0.960 . S
C166 H231 0.959 . S
C167 C166 1.517 . S
C167 O215 1.468 . S
C167 H228 0.980 . S
C168 C169 1.349 . S
C168 C173 1.367 . S
C168 O215 1.408 . S
C169 C168 1.349 . S
C169 C170 1.407 . S
C169 H232 0.930 . S
C170 C169 1.407 . S
C170 C171 1.449 . S
C170 C174 1.535 . S
C171 C170 1.449 . S
C171 C172 1.384 . S
C171 C196 1.553 . S
C172 C171 1.384 . S
C172 C173 1.364 . S
C172 C175 1.450 . S
C173 C168 1.367 . S
C173 C172 1.364 . S
C173 H233 0.931 . S
C174 C170 1.535 . S
C174 H234 0.959 . S
C174 H235 0.961 1_545 S
C174 H236 0.959 1_545 S
C175 C172 1.450 . S
C175 H237 0.960 . S
C175 H238 0.960 . S
C175 H239 0.960 . S
C176 C177 1.309 . S
C176 C181 1.304 . S
C176 O214 1.435 . S
C177 C176 1.309 . S
C177 C178 1.476 . S
C177 H241 0.930 . S
C178 C177 1.476 . S
C178 C179 1.400 . S
C178 C182 1.567 1_545 S
C179 C178 1.400 . S
C179 C180 1.373 . S
C179 C201 1.432 . S
C180 C179 1.373 . S
C180 C181 1.339 . S
C180 C183 1.530 . S
C181 C176 1.304 . S
C181 C180 1.339 . S
C181 H242 0.930 . S
C182 C178 1.567 1_565 S
C182 H243 0.963 . S
C182 H244 0.960 . S
C182 H245 0.958 . S
C183 C180 1.530 . S
C183 H246 0.961 . S
C183 H247 0.960 . S
C183 H248 0.960 . S
C184 C185 1.530 . S
C184 H250 0.961 . S
C184 H251 0.961 1_545 S
C184 H252 0.959 1_545 S
C185 C184 1.530 . S
C185 O213 1.412 . S
C185 H249 0.980 . S
C186 C187 1.288 1_545 S
C186 C191 1.377 . S
C186 O213 1.393 . S
C187 C186 1.288 1_565 S
C187 C188 1.369 1_565 S
C187 H253 0.932 . S
C188 C187 1.369 1_545 S
C188 C189 1.398 . S
C188 C192 1.527 1_545 S
C189 C188 1.398 . S
C189 C190 1.380 . S
C189 C203 1.497 . S
C190 C189 1.380 . S
C190 C191 1.383 . S
C190 C193 1.603 . S
C191 C186 1.377 . S
C191 C190 1.383 . S
C191 H254 0.929 . S
C192 C188 1.527 1_565 S
C192 H255 0.961 . S
C192 H256 0.959 . S
C192 H257 0.959 . S
C193 C190 1.603 . S
C193 H258 0.960 . S
C193 H259 0.962 . S
C193 H260 0.961 . S
C194 C161 1.587 . S
C194 C195 1.360 . S
C194 C207 1.412 . S
C195 C194 1.360 . S
C195 C196 1.365 . S
C195 H261 0.929 . S
C196 C171 1.553 . S
C196 C195 1.365 . S
C196 C197 1.404 . S
C197 C196 1.404 . S
C197 C198 1.395 . S
C197 C208 1.451 . S
C198 C197 1.395 . S
C198 C199 1.322 . S
C198 H262 0.930 . S
C199 C198 1.322 . S
C199 C200 1.459 . S
C199 H263 0.929 . S
C200 C199 1.459 . S
C200 C201 1.445 . S
C200 C209 1.395 . S
C201 C179 1.432 . S
C201 C200 1.445 . S
C201 C202 1.370 . S
C202 C201 1.370 . S
C202 C203 1.438 . S
C202 H264 0.930 . S
C203 C189 1.497 . S
C203 C202 1.438 . S
C203 C204 1.360 . S
C204 C203 1.360 . S
C204 C205 1.401 . S
C204 C209 1.446 . S
C205 C204 1.401 . S
C205 C206 1.347 . S
C205 H265 0.929 . S
C206 C205 1.347 . S
C206 C207 1.455 . S
C206 H266 0.930 . S
C207 C194 1.412 . S
C207 C206 1.455 . S
C207 C208 1.331 . S
C208 C197 1.451 . S
C208 C207 1.331 . S
C208 C209 1.497 . S
C209 C200 1.395 . S
C209 C204 1.446 . S
C209 C208 1.497 . S
C210 C211 1.582 . S
C210 H267 0.962 . S
C210 H268 0.959 . S
C210 H269 0.958 . S
C211 C210 1.582 . S
C211 O214 1.458 . S
C211 H240 0.980 . S
O212 C157 1.426 . S
O212 C158 1.334 . S
O213 C185 1.412 . S
O213 C186 1.393 . S
O214 C176 1.435 . S
O214 C211 1.458 . S
O215 C167 1.468 . S
O215 C168 1.408 . S
H216 C157 0.980 . S
H217 C156 0.959 . S
H218 C156 0.959 . S
H219 C156 0.960 1_545 S
H220 C159 0.929 . S
H221 C163 0.929 . S
H222 C164 0.959 . S
H223 C164 0.961 . S
H224 C164 0.961 . S
H225 C165 0.960 . S
H226 C165 0.960 . S
H227 C165 0.961 . S
H228 C167 0.980 . S
H229 C166 0.961 . S
H230 C166 0.960 . S
H231 C166 0.959 . S
H232 C169 0.930 . S
H233 C173 0.931 . S
H234 C174 0.959 . S
H235 C174 0.961 1_565 S
H236 C174 0.959 1_565 S
H237 C175 0.960 . S
H238 C175 0.960 . S
H239 C175 0.960 . S
H240 C211 0.980 . S
H241 C177 0.930 . S
H242 C181 0.930 . S
H243 C182 0.963 . S
H244 C182 0.960 . S
H245 C182 0.958 . S
H246 C183 0.961 . S
H247 C183 0.960 . S
H248 C183 0.960 . S
H249 C185 0.980 . S
H250 C184 0.961 . S
H251 C184 0.961 1_565 S
H252 C184 0.959 1_565 S
H253 C187 0.932 . S
H254 C191 0.929 . S
H255 C192 0.961 . S
H256 C192 0.959 . S
H257 C192 0.959 . S
H258 C193 0.960 . S
H259 C193 0.962 . S
H260 C193 0.961 . S
H261 C195 0.929 . S
H262 C198 0.930 . S
H263 C199 0.929 . S
H264 C202 0.930 . S
H265 C205 0.929 . S
H266 C206 0.930 . S
H267 C210 0.962 . S
H268 C210 0.959 . S
H269 C210 0.958 . S
C270 C271 1.560 . S
C270 H331 0.959 . S
C270 H332 0.959 . S
C270 H333 0.960 . S
C271 C270 1.560 . S
C271 O326 1.426 . S
C271 H330 0.980 . S
C272 C273 1.407 . S
C272 C277 1.418 . S
C272 O326 1.334 . S
C273 C272 1.407 . S
C273 C274 1.360 . S
C273 H334 0.929 . S
C274 C273 1.360 . S
C274 C275 1.401 . S
C274 C278 1.527 . S
C275 C274 1.401 . S
C275 C276 1.405 . S
C275 C308 1.587 . S
C276 C275 1.405 . S
C276 C277 1.332 . S
C276 C279 1.496 . S
C277 C272 1.418 . S
C277 C276 1.332 . S
C277 H335 0.929 . S
C278 C274 1.527 . S
C278 H336 0.959 . S
C278 H337 0.961 . S
C278 H338 0.961 . S
C279 C276 1.496 . S
C279 H339 0.960 . S
C279 H340 0.960 . S
C279 H341 0.961 . S
C280 C281 1.517 . S
C280 H343 0.961 . S
C280 H344 0.960 . S
C280 H345 0.959 . S
C281 C280 1.517 . S
C281 O329 1.468 . S
C281 H342 0.980 . S
C282 C283 1.349 . S
C282 C287 1.367 . S
C282 O329 1.408 . S
C283 C282 1.349 . S
C283 C284 1.407 . S
C283 H346 0.930 . S
C284 C283 1.407 . S
C284 C285 1.449 . S
C284 C288 1.535 . S
C285 C284 1.449 . S
C285 C286 1.384 . S
C285 C310 1.553 . S
C286 C285 1.384 . S
C286 C287 1.364 . S
C286 C289 1.450 . S
C287 C282 1.367 . S
C287 C286 1.364 . S
C287 H347 0.931 . S
C288 C284 1.535 . S
C288 H348 0.959 . S
C288 H349 0.961 . S
C288 H350 0.959 . S
C289 C286 1.450 . S
C289 H351 0.960 . S
C289 H352 0.960 . S
C289 H353 0.960 . S
C290 C291 1.309 . S
C290 C295 1.304 . S
C290 O328 1.435 . S
C291 C290 1.309 . S
C291 C292 1.476 . S
C291 H355 0.930 . S
C292 C291 1.476 . S
C292 C293 1.400 . S
C292 C296 1.567 . S
C293 C292 1.400 . S
C293 C294 1.373 . S
C293 C315 1.432 . S
C294 C293 1.373 . S
C294 C295 1.339 . S
C294 C297 1.530 . S
C295 C290 1.304 . S
C295 C294 1.339 . S
C295 H356 0.930 . S
C296 C292 1.567 . S
C296 H357 0.961 . S
C296 H358 0.960 . S
C296 H359 0.958 . S
C297 C294 1.530 . S
C297 H360 0.961 . S
C297 H361 0.960 . S
C297 H362 0.960 . S
C298 C299 1.530 . S
C298 H364 0.961 . S
C298 H365 0.961 . S
C298 H366 0.959 . S
C299 C298 1.530 . S
C299 O327 1.412 . S
C299 H363 0.980 . S
C300 C301 1.288 . S
C300 C305 1.377 . S
C300 O327 1.393 . S
C301 C300 1.288 . S
C301 C302 1.369 . S
C301 H367 0.932 . S
C302 C301 1.369 . S
C302 C303 1.398 . S
C302 C306 1.527 . S
C303 C302 1.398 . S
C303 C304 1.380 . S
C303 C317 1.497 . S
C304 C303 1.380 . S
C304 C305 1.383 . S
C304 C307 1.603 . S
C305 C300 1.377 . S
C305 C304 1.383 . S
C305 H368 0.929 . S
C306 C302 1.527 . S
C306 H369 0.961 . S
C306 H370 0.959 . S
C306 H371 0.959 . S
C307 C304 1.603 . S
C307 H372 0.960 . S
C307 H373 0.962 . S
C307 H374 0.961 . S
C308 C275 1.587 . S
C308 C309 1.360 . S
C308 C321 1.412 . S
C309 C308 1.360 . S
C309 C310 1.365 . S
C309 H375 0.929 . S
C310 C285 1.553 . S
C310 C309 1.365 . S
C310 C311 1.404 . S
C311 C310 1.404 . S
C311 C312 1.395 . S
C311 C322 1.451 . S
C312 C311 1.395 . S
C312 C313 1.322 . S
C312 H376 0.930 . S
C313 C312 1.322 . S
C313 C314 1.459 . S
C313 H377 0.929 . S
C314 C313 1.459 . S
C314 C315 1.445 . S
C314 C323 1.395 . S
C315 C293 1.432 . S
C315 C314 1.445 . S
C315 C316 1.370 . S
C316 C315 1.370 . S
C316 C317 1.438 . S
C316 H378 0.930 . S
C317 C303 1.497 . S
C317 C316 1.438 . S
C317 C318 1.360 . S
C318 C317 1.360 . S
C318 C319 1.401 . S
C318 C323 1.446 . S
C319 C318 1.401 . S
C319 C320 1.347 . S
C319 H379 0.929 . S
C320 C319 1.347 . S
C320 C321 1.455 . S
C320 H380 0.930 . S
C321 C308 1.412 . S
C321 C320 1.455 . S
C321 C322 1.331 . S
C322 C311 1.451 . S
C322 C321 1.331 . S
C322 C323 1.497 . S
C323 C314 1.395 . S
C323 C318 1.446 . S
C323 C322 1.497 . S
C324 C325 1.582 . S
C324 H381 0.962 . S
C324 H382 0.959 . S
C324 H383 0.958 . S
C325 C324 1.582 . S
C325 O328 1.458 . S
C325 H354 0.980 . S
O326 C271 1.426 . S
O326 C272 1.334 . S
O327 C299 1.412 . S
O327 C300 1.393 . S
O328 C290 1.435 . S
O328 C325 1.458 . S
O329 C281 1.468 . S
O329 C282 1.408 . S
H330 C271 0.980 . S
H331 C270 0.959 . S
H332 C270 0.959 . S
H333 C270 0.960 . S
H334 C273 0.929 . S
H335 C277 0.929 . S
H336 C278 0.959 . S
H337 C278 0.961 . S
H338 C278 0.961 . S
H339 C279 0.960 . S
H340 C279 0.960 . S
H341 C279 0.961 . S
H342 C281 0.980 . S
H343 C280 0.961 . S
H344 C280 0.960 . S
H345 C280 0.959 . S
H346 C283 0.930 . S
H347 C287 0.931 . S
H348 C288 0.959 . S
H349 C288 0.961 . S
H350 C288 0.959 . S
H351 C289 0.960 . S
H352 C289 0.960 . S
H353 C289 0.960 . S
H354 C325 0.980 . S
H355 C291 0.930 . S
H356 C295 0.930 . S
H357 C296 0.961 . S
H358 C296 0.960 . S
H359 C296 0.958 . S
H360 C297 0.961 . S
H361 C297 0.960 . S
H362 C297 0.960 . S
H363 C299 0.980 . S
H364 C298 0.961 . S
H365 C298 0.961 . S
H366 C298 0.959 . S
H367 C301 0.932 . S
H368 C305 0.929 . S
H369 C306 0.961 . S
H370 C306 0.959 . S
H371 C306 0.959 . S
H372 C307 0.960 . S
H373 C307 0.962 . S
H374 C307 0.961 . S
H375 C309 0.929 . S
H376 C312 0.930 . S
H377 C313 0.929 . S
H378 C316 0.930 . S
H379 C319 0.929 . S
H380 C320 0.930 . S
H381 C324 0.962 . S
H382 C324 0.959 . S
H383 C324 0.958 . S
C384 C385 1.391 . S
C384 C386 1.394 . S
C384 H400 0.931 . S
C385 C384 1.391 . S
C385 C389 1.376 1_455 S
C386 C384 1.394 . S
C386 C387 1.369 . S
C386 C390 1.531 . S
C387 C386 1.369 . S
C387 C388 1.410 1_455 S
C387 C395 1.503 . S
C388 C387 1.410 1_655 S
C388 C389 1.392 . S
C388 C391 1.511 . S
C389 C385 1.376 1_655 S
C389 C388 1.392 . S
C389 H401 0.929 . S
C390 C386 1.531 . S
C390 H402 0.960 . S
C390 H403 0.962 . S
C390 H404 0.960 . S
C391 C388 1.511 . S
C391 H405 0.961 . S
C391 H406 0.961 . S
C391 H407 0.961 . S
C392 C393 1.370 . S
C392 C394 1.363 . S
C392 H408 0.931 . S
C393 C392 1.370 . S
C393 C397 1.408 . S
C394 C392 1.363 . S
C394 C395 1.370 . S
C394 C398 1.524 . S
C395 C387 1.503 . S
C395 C394 1.370 . S
C395 C396 1.403 . S
C396 C395 1.403 . S
C396 C397 1.404 . S
C396 C399 1.539 . S
C397 C393 1.408 . S
C397 C396 1.404 . S
C397 H409 0.930 . S
C398 C394 1.524 . S
C398 H410 0.956 . S
C398 H411 0.961 1_455 S
C398 H412 0.961 . S
C399 C396 1.539 . S
C399 H413 0.958 . S
C399 H414 0.961 . S
C399 H415 0.960 . S
H400 C384 0.931 . S
H401 C389 0.929 . S
H402 C390 0.960 . S
H403 C390 0.962 . S
H404 C390 0.960 . S
H405 C391 0.961 . S
H406 C391 0.961 . S
H407 C391 0.961 . S
H408 C392 0.931 . S
H409 C397 0.930 . S
H410 C398 0.956 . S
H411 C398 0.961 1_655 S
H412 C398 0.961 . S
H413 C399 0.958 . S
H414 C399 0.961 . S
H415 C399 0.960 . S
C416 C417 1.391 . S
C416 C418 1.394 . S
C416 H432 0.931 1_545 S
C417 C416 1.391 . S
C417 C421 1.376 . S
C418 C416 1.394 . S
C418 C419 1.369 . S
C418 C422 1.531 1_545 S
C419 C418 1.369 . S
C419 C420 1.410 . S
C419 C427 1.503 . S
C420 C419 1.410 . S
C420 C421 1.392 . S
C420 C423 1.511 . S
C421 C417 1.376 . S
C421 C420 1.392 . S
C421 H433 0.929 . S
C422 C418 1.531 1_565 S
C422 H434 0.960 . S
C422 H435 0.962 . S
C422 H436 0.960 . S
C423 C420 1.511 . S
C423 H437 0.961 . S
C423 H438 0.961 . S
C423 H439 0.961 . S
C424 C425 1.370 . S
C424 C426 1.363 . S
C424 H440 0.931 . S
C425 C424 1.370 . S
C425 C429 1.408 . S
C426 C424 1.363 . S
C426 C427 1.370 . S
C426 C430 1.524 . S
C427 C419 1.503 . S
C427 C426 1.370 . S
C427 C428 1.403 . S
C428 C427 1.403 . S
C428 C429 1.404 . S
C428 C431 1.539 . S
C429 C425 1.408 . S
C429 C428 1.404 . S
C429 H441 0.930 . S
C430 C426 1.524 . S
C430 H442 0.956 1_545 S
C430 H443 0.961 . S
C430 H444 0.961 . S
C431 C428 1.539 . S
C431 H445 0.958 . S
C431 H446 0.961 . S
C431 H447 0.960 . S
H432 C416 0.931 1_565 S
H433 C421 0.929 . S
H434 C422 0.960 . S
H435 C422 0.962 . S
H436 C422 0.960 . S
H437 C423 0.961 . S
H438 C423 0.961 . S
H439 C423 0.961 . S
H440 C424 0.931 . S
H441 C429 0.930 . S
H442 C430 0.956 1_565 S
H443 C430 0.961 . S
H444 C430 0.961 . S
H445 C431 0.958 . S
H446 C431 0.961 . S
H447 C431 0.960 . S
C448 C449 1.391 . S
C448 C450 1.394 . S
C448 H464 0.931 . S
C449 C448 1.391 . S
C449 C453 1.376 . S
C450 C448 1.394 . S
C450 C451 1.369 . S
C450 C454 1.531 . S
C451 C450 1.369 . S
C451 C452 1.410 . S
C451 C459 1.503 . S
C452 C451 1.410 . S
C452 C453 1.392 . S
C452 C455 1.511 . S
C453 C449 1.376 . S
C453 C452 1.392 . S
C453 H465 0.929 . S
C454 C450 1.531 . S
C454 H466 0.960 . S
C454 H467 0.962 . S
C454 H468 0.960 . S
C455 C452 1.511 . S
C455 H469 0.961 . S
C455 H470 0.961 . S
C455 H471 0.961 . S
C456 C457 1.370 . S
C456 C458 1.363 . S
C456 H472 0.931 . S
C457 C456 1.370 . S
C457 C461 1.408 . S
C458 C456 1.363 . S
C458 C459 1.370 . S
C458 C462 1.524 . S
C459 C451 1.503 . S
C459 C458 1.370 . S
C459 C460 1.403 . S
C460 C459 1.403 . S
C460 C461 1.404 . S
C460 C463 1.539 . S
C461 C457 1.408 . S
C461 C460 1.404 . S
C461 H473 0.930 . S
C462 C458 1.524 . S
C462 H474 0.956 . S
C462 H475 0.961 . S
C462 H476 0.961 . S
C463 C460 1.539 . S
C463 H477 0.958 . S
C463 H478 0.961 . S
C463 H479 0.960 . S
H464 C448 0.931 . S
H465 C453 0.929 . S
H466 C454 0.960 . S
H467 C454 0.962 . S
H468 C454 0.960 . S
H469 C455 0.961 . S
H470 C455 0.961 . S
H471 C455 0.961 . S
H472 C456 0.931 . S
H473 C461 0.930 . S
H474 C462 0.956 . S
H475 C462 0.961 . S
H476 C462 0.961 . S
H477 C463 0.958 . S
H478 C463 0.961 . S
H479 C463 0.960 . S
C480 C481 1.391 . S
C480 C482 1.394 . S
C480 H496 0.931 . S
C481 C480 1.391 . S
C481 C485 1.376 1_455 S
C482 C480 1.394 . S
C482 C483 1.369 . S
C482 C486 1.531 . S
C483 C482 1.369 . S
C483 C484 1.385 1_455 S
C483 C491 1.503 . S
C484 C483 1.385 1_655 S
C484 C485 1.403 . S
C484 C487 1.525 . S
C485 C481 1.376 1_655 S
C485 C484 1.403 . S
C485 H497 0.929 . S
C486 C482 1.531 . S
C486 H498 0.960 . S
C486 H499 0.962 . S
C486 H500 0.960 . S
C487 C484 1.525 . S
C487 H501 0.961 . S
C487 H502 0.961 . S
C487 H503 0.961 . S
C488 C489 1.370 . S
C488 C490 1.363 . S
C488 H504 0.931 . S
C489 C488 1.370 . S
C489 C493 1.408 . S
C490 C488 1.363 . S
C490 C491 1.370 . S
C490 C494 1.524 . S
C491 C483 1.503 . S
C491 C490 1.370 . S
C491 C492 1.403 . S
C492 C491 1.403 . S
C492 C493 1.404 . S
C492 C495 1.539 . S
C493 C489 1.408 . S
C493 C492 1.404 . S
C493 H505 0.930 . S
C494 C490 1.524 . S
C494 H506 0.956 . S
C494 H507 0.961 . S
C494 H508 0.961 . S
C495 C492 1.539 . S
C495 H509 0.958 . S
C495 H510 0.961 . S
C495 H511 0.960 . S
H496 C480 0.931 . S
H497 C485 0.929 . S
H498 C486 0.960 . S
H499 C486 0.962 . S
H500 C486 0.960 . S
H501 C487 0.961 . S
H502 C487 0.961 . S
H503 C487 0.961 . S
H504 C488 0.931 . S
H505 C493 0.930 . S
H506 C494 0.956 . S
H507 C494 0.961 . S
H508 C494 0.961 . S
H509 C495 0.958 . S
H510 C495 0.961 . S
H511 C495 0.960 . S
C512 C513 1.391 . S
C512 C514 1.394 . S
C512 H528 0.931 1_545 S
C513 C512 1.391 . S
C513 C517 1.376 . S
C514 C512 1.394 . S
C514 C515 1.369 . S
C514 C518 1.531 1_545 S
C515 C514 1.369 . S
C515 C516 1.410 . S
C515 C523 1.503 . S
C516 C515 1.410 . S
C516 C517 1.392 . S
C516 C519 1.511 . S
C517 C513 1.376 . S
C517 C516 1.392 . S
C517 H529 0.929 . S
C518 C514 1.531 1_565 S
C518 H530 0.960 . S
C518 H531 0.962 . S
C518 H532 0.960 . S
C519 C516 1.511 . S
C519 H533 0.961 . S
C519 H534 0.961 . S
C519 H535 0.961 . S
C520 C521 1.370 . S
C520 C522 1.363 . S
C520 H536 0.931 . S
C521 C520 1.370 . S
C521 C525 1.408 . S
C522 C520 1.363 . S
C522 C523 1.370 . S
C522 C526 1.524 . S
C523 C515 1.503 . S
C523 C522 1.370 . S
C523 C524 1.403 . S
C524 C523 1.403 . S
C524 C525 1.404 . S
C524 C527 1.539 . S
C525 C521 1.408 . S
C525 C524 1.404 . S
C525 H537 0.930 . S
C526 C522 1.524 . S
C526 H538 0.956 . S
C526 H539 0.961 . S
C526 H540 0.961 . S
C527 C524 1.539 . S
C527 H541 0.958 . S
C527 H542 0.961 . S
C527 H543 0.960 . S
H528 C512 0.931 1_565 S
H529 C517 0.929 . S
H530 C518 0.960 . S
H531 C518 0.962 . S
H532 C518 0.960 . S
H533 C519 0.961 . S
H534 C519 0.961 . S
H535 C519 0.961 . S
H536 C520 0.931 . S
H537 C525 0.930 . S
H538 C526 0.956 . S
H539 C526 0.961 . S
H540 C526 0.961 . S
H541 C527 0.958 . S
H542 C527 0.961 . S
H543 C527 0.960 . S
C544 C545 1.391 . S
C544 C546 1.394 . S
C544 H560 0.931 . S
C545 C544 1.391 . S
C545 C549 1.376 . S
C546 C544 1.394 . S
C546 C547 1.369 . S
C546 C550 1.531 . S
C547 C546 1.369 . S
C547 C548 1.410 . S
C547 C555 1.503 . S
C548 C547 1.410 . S
C548 C549 1.392 . S
C548 C551 1.511 . S
C549 C545 1.376 . S
C549 C548 1.392 . S
C549 H561 0.929 . S
C550 C546 1.531 . S
C550 H562 0.960 . S
C550 H563 0.962 . S
C550 H564 0.960 . S
C551 C548 1.511 . S
C551 H565 0.961 . S
C551 H566 0.961 . S
C551 H567 0.961 . S
C552 C553 1.370 . S
C552 C554 1.363 . S
C552 H568 0.931 . S
C553 C552 1.370 . S
C553 C557 1.408 . S
C554 C552 1.363 . S
C554 C555 1.370 . S
C554 C558 1.524 . S
C555 C547 1.503 . S
C555 C554 1.370 . S
C555 C556 1.403 . S
C556 C555 1.403 . S
C556 C557 1.404 . S
C556 C559 1.539 . S
C557 C553 1.408 . S
C557 C556 1.404 . S
C557 H569 0.930 . S
C558 C554 1.524 . S
C558 H570 0.956 . S
C558 H571 0.961 . S
C558 H572 0.961 . S
C559 C556 1.539 . S
C559 H573 0.958 . S
C559 H574 0.961 . S
C559 H575 0.960 . S
H560 C544 0.931 . S
H561 C549 0.929 . S
H562 C550 0.960 . S
H563 C550 0.962 . S
H564 C550 0.960 . S
H565 C551 0.961 . S
H566 C551 0.961 . S
H567 C551 0.961 . S
H568 C552 0.931 . S
H569 C557 0.930 . S
H570 C558 0.956 . S
H571 C558 0.961 . S
H572 C558 0.961 . S
H573 C559 0.958 . S
H574 C559 0.961 . S
H575 C559 0.960 . S
C576 C577 1.391 . S
C576 C578 1.394 . S
C576 H592 0.931 . S
C577 C576 1.391 . S
C577 C581 1.376 . S
C578 C576 1.394 . S
C578 C579 1.369 . S
C578 C582 1.531 . S
C579 C578 1.369 . S
C579 C580 1.410 . S
C579 C587 1.503 . S
C580 C579 1.410 . S
C580 C581 1.392 . S
C580 C583 1.511 . S
C581 C577 1.376 . S
C581 C580 1.392 . S
C581 H593 0.929 . S
C582 C578 1.531 . S
C582 H594 0.960 . S
C582 H595 0.962 1_545 S
C582 H596 0.959 1_545 S
C583 C580 1.511 . S
C583 H597 0.961 . S
C583 H598 0.961 . S
C583 H599 0.961 . S
C584 C585 1.370 . S
C584 C586 1.363 . S
C584 H600 0.931 . S
C585 C584 1.370 . S
C585 C589 1.408 . S
C586 C584 1.363 . S
C586 C587 1.370 . S
C586 C590 1.524 . S
C587 C579 1.503 . S
C587 C586 1.370 . S
C587 C588 1.403 . S
C588 C587 1.403 . S
C588 C589 1.404 . S
C588 C591 1.539 . S
C589 C585 1.408 . S
C589 C588 1.404 . S
C589 H601 0.930 . S
C590 C586 1.524 . S
C590 H602 0.956 1_545 S
C590 H603 0.961 . S
C590 H604 0.961 1_545 S
C591 C588 1.539 . S
C591 H605 0.958 . S
C591 H606 0.961 . S
C591 H607 0.960 . S
H592 C576 0.931 . S
H593 C581 0.929 . S
H594 C582 0.960 . S
H595 C582 0.962 1_565 S
H596 C582 0.959 1_565 S
H597 C583 0.961 . S
H598 C583 0.961 . S
H599 C583 0.961 . S
H600 C584 0.931 . S
H601 C589 0.930 . S
H602 C590 0.956 1_565 S
H603 C590 0.961 . S
H604 C590 0.961 1_565 S
H605 C591 0.958 . S
H606 C591 0.961 . S
H607 C591 0.960 . S
C608 C609 1.391 . S
C608 C610 1.394 . S
C608 H624 0.931 . S
C609 C608 1.391 . S
C609 C613 1.376 . S
C610 C608 1.394 . S
C610 C611 1.369 . S
C610 C614 1.531 . S
C611 C610 1.369 . S
C611 C612 1.410 . S
C611 C619 1.503 . S
C612 C611 1.410 . S
C612 C613 1.392 . S
C612 C615 1.511 . S
C613 C609 1.376 . S
C613 C612 1.392 . S
C613 H625 0.929 . S
C614 C610 1.531 . S
C614 H626 0.960 . S
C614 H627 0.962 . S
C614 H628 0.960 . S
C615 C612 1.511 . S
C615 H629 0.961 . S
C615 H630 0.961 . S
C615 H631 0.961 . S
C616 C617 1.370 . S
C616 C618 1.363 . S
C616 H632 0.931 . S
C617 C616 1.370 . S
C617 C621 1.408 . S
C618 C616 1.363 . S
C618 C619 1.370 1_556 S
C618 C622 1.524 . S
C619 C611 1.503 . S
C619 C618 1.370 1_554 S
C619 C620 1.403 . S
C620 C619 1.403 . S
C620 C621 1.404 1_554 S
C620 C623 1.539 . S
C621 C617 1.408 . S
C621 C620 1.404 1_556 S
C621 H633 0.930 1_556 S
C622 C618 1.524 . S
C622 H634 0.956 . S
C622 H635 0.961 . S
C622 H636 0.961 . S
C623 C620 1.539 . S
C623 H637 0.958 . S
C623 H638 0.961 . S
C623 H639 0.960 . S
H624 C608 0.931 . S
H625 C613 0.929 . S
H626 C614 0.960 . S
H627 C614 0.962 . S
H628 C614 0.960 . S
H629 C615 0.961 . S
H630 C615 0.961 . S
H631 C615 0.961 . S
H632 C616 0.931 . S
H633 C621 0.930 1_554 S
H634 C622 0.956 . S
H635 C622 0.961 . S
H636 C622 0.961 . S
H637 C623 0.958 . S
H638 C623 0.961 . S
H639 C623 0.960 . S
C640 C641 1.391 . S
C640 C642 1.394 . S
C640 H656 0.931 . S
C641 C640 1.391 . S
C641 C645 1.376 . S
C642 C640 1.394 . S
C642 C643 1.369 . S
C642 C646 1.531 . S
C643 C642 1.369 . S
C643 C644 1.410 . S
C643 C651 1.503 . S
C644 C643 1.410 . S
C644 C645 1.392 . S
C644 C647 1.511 . S
C645 C641 1.376 . S
C645 C644 1.392 . S
C645 H657 0.929 . S
C646 C642 1.531 . S
C646 H658 0.960 . S
C646 H659 0.962 1_455 S
C646 H660 0.960 . S
C647 C644 1.511 . S
C647 H661 0.961 . S
C647 H662 0.961 . S
C647 H663 0.961 . S
C648 C649 1.370 1_655 S
C648 C650 1.363 . S
C648 H664 0.931 . S
C649 C648 1.370 1_455 S
C649 C653 1.408 . S
C650 C648 1.363 . S
C650 C651 1.370 1_655 S
C650 C654 1.524 . S
C651 C643 1.503 . S
C651 C650 1.370 1_455 S
C651 C652 1.403 . S
C652 C651 1.403 . S
C652 C653 1.404 . S
C652 C655 1.539 . S
C653 C649 1.408 . S
C653 C652 1.404 . S
C653 H665 0.930 . S
C654 C650 1.524 . S
C654 H666 0.956 . S
C654 H667 0.961 . S
C654 H668 0.961 . S
C655 C652 1.539 . S
C655 H669 0.958 . S
C655 H670 0.961 . S
C655 H671 0.960 . S
H656 C640 0.931 . S
H657 C645 0.929 . S
H658 C646 0.960 . S
H659 C646 0.962 1_655 S
H660 C646 0.960 . S
H661 C647 0.961 . S
H662 C647 0.961 . S
H663 C647 0.961 . S
H664 C648 0.931 . S
H665 C653 0.930 . S
H666 C654 0.956 . S
H667 C654 0.961 . S
H668 C654 0.961 . S
H669 C655 0.958 . S
H670 C655 0.961 . S
H671 C655 0.960 . S
C672 C673 1.391 . S
C672 C674 1.394 . S
C672 H688 0.931 . S
C673 C672 1.391 . S
C673 C677 1.376 . S
C674 C672 1.394 . S
C674 C675 1.369 . S
C674 C678 1.531 . S
C675 C674 1.369 . S
C675 C676 1.410 . S
C675 C683 1.503 . S
C676 C675 1.410 . S
C676 C677 1.392 . S
C676 C679 1.511 1_545 S
C677 C673 1.376 . S
C677 C676 1.392 . S
C677 H689 0.929 1_545 S
C678 C674 1.531 . S
C678 H690 0.960 . S
C678 H691 0.962 . S
C678 H692 0.960 . S
C679 C676 1.511 1_565 S
C679 H693 0.961 . S
C679 H694 0.961 . S
C679 H695 0.961 . S
C680 C681 1.370 . S
C680 C682 1.363 . S
C680 H696 0.931 . S
C681 C680 1.370 . S
C681 C685 1.408 . S
C682 C680 1.363 . S
C682 C683 1.370 . S
C682 C686 1.524 . S
C683 C675 1.503 . S
C683 C682 1.370 . S
C683 C684 1.403 . S
C684 C683 1.403 . S
C684 C685 1.404 . S
C684 C687 1.553 . S
C685 C681 1.408 . S
C685 C684 1.404 . S
C685 H697 0.930 . S
C686 C682 1.524 . S
C686 H698 0.956 . S
C686 H699 0.961 . S
C686 H700 0.961 . S
C687 C684 1.553 . S
C687 H701 0.970 . S
C687 H702 0.934 1_545 S
C687 H703 0.963 1_545 S
H688 C672 0.931 . S
H689 C677 0.929 1_565 S
H690 C678 0.960 . S
H691 C678 0.962 . S
H692 C678 0.960 . S
H693 C679 0.961 . S
H694 C679 0.961 . S
H695 C679 0.961 . S
H696 C680 0.931 . S
H697 C685 0.930 . S
H698 C686 0.956 . S
H699 C686 0.961 . S
H700 C686 0.961 . S
H701 C687 0.970 . S
H702 C687 0.934 1_565 S
H703 C687 0.963 1_565 S
C704 C705 1.391 . S
C704 C706 1.394 . S
C704 H720 0.931 . S
C705 C704 1.391 . S
C705 C709 1.376 . S
C706 C704 1.394 . S
C706 C707 1.369 . S
C706 C710 1.531 . S
C707 C706 1.369 . S
C707 C708 1.410 . S
C707 C715 1.508 1_554 S
C708 C707 1.410 . S
C708 C709 1.392 . S
C708 C711 1.511 . S
C709 C705 1.376 . S
C709 C708 1.392 . S
C709 H721 0.929 . S
C710 C706 1.531 . S
C710 H722 0.960 . S
C710 H723 0.962 . S
C710 H724 0.960 . S
C711 C708 1.511 . S
C711 H725 0.961 . S
C711 H726 0.961 1_554 S
C711 H727 0.961 . S
C712 C713 1.370 . S
C712 C714 1.363 . S
C712 H728 0.931 . S
C713 C712 1.370 . S
C713 C717 1.408 . S
C714 C712 1.363 . S
C714 C715 1.364 . S
C714 C718 1.524 . S
C715 C707 1.508 1_556 S
C715 C714 1.364 . S
C715 C716 1.404 1_556 S
C716 C715 1.404 1_554 S
C716 C717 1.404 1_554 S
C716 C719 1.539 . S
C717 C713 1.408 . S
C717 C716 1.404 1_556 S
C717 H729 0.930 . S
C718 C714 1.524 . S
C718 H730 0.956 . S
C718 H731 0.961 . S
C718 H732 0.961 . S
C719 C716 1.539 . S
C719 H733 0.958 . S
C719 H734 0.961 . S
C719 H735 0.960 . S
H720 C704 0.931 . S
H721 C709 0.929 . S
H722 C710 0.960 . S
H723 C710 0.962 . S
H724 C710 0.960 . S
H725 C711 0.961 . S
H726 C711 0.961 1_556 S
H727 C711 0.961 . S
H728 C712 0.931 . S
H729 C717 0.930 . S
H730 C718 0.956 . S
H731 C718 0.961 . S
H732 C718 0.961 . S
H733 C719 0.958 . S
H734 C719 0.961 . S
H735 C719 0.960 . S
C736 C737 1.391 . S
C736 C738 1.394 . S
C736 H752 0.931 . S
C737 C736 1.391 . S
C737 C741 1.376 . S
C738 C736 1.394 . S
C738 C739 1.369 . S
C738 C742 1.531 . S
C739 C738 1.369 . S
C739 C740 1.410 . S
C739 C747 1.503 . S
C740 C739 1.410 . S
C740 C741 1.392 . S
C740 C743 1.511 . S
C741 C737 1.376 . S
C741 C740 1.392 . S
C741 H753 0.929 . S
C742 C738 1.531 . S
C742 H754 0.960 . S
C742 H755 0.962 1_455 S
C742 H756 0.960 . S
C743 C740 1.511 . S
C743 H757 0.961 . S
C743 H758 0.961 . S
C743 H759 0.961 . S
C744 C745 1.370 . S
C744 C746 1.363 . S
C744 H760 0.931 1_455 S
C745 C744 1.370 . S
C745 C749 1.408 . S
C746 C744 1.363 . S
C746 C747 1.370 . S
C746 C750 1.524 1_455 S
C747 C739 1.503 . S
C747 C746 1.370 . S
C747 C748 1.403 . S
C748 C747 1.403 . S
C748 C749 1.404 . S
C748 C751 1.539 . S
C749 C745 1.408 . S
C749 C748 1.404 . S
C749 H761 0.930 . S
C750 C746 1.524 1_655 S
C750 H762 0.956 . S
C750 H763 0.961 . S
C750 H764 0.961 . S
C751 C748 1.539 . S
C751 H765 0.958 . S
C751 H766 0.961 . S
C751 H767 0.960 . S
H752 C736 0.931 . S
H753 C741 0.929 . S
H754 C742 0.960 . S
H755 C742 0.962 1_655 S
H756 C742 0.960 . S
H757 C743 0.961 . S
H758 C743 0.961 . S
H759 C743 0.961 . S
H760 C744 0.931 1_655 S
H761 C749 0.930 . S
H762 C750 0.956 . S
H763 C750 0.961 . S
H764 C750 0.961 . S
H765 C751 0.958 . S
H766 C751 0.961 . S
H767 C751 0.960 . S
C393 C97 1.168 . S
C385 C0 1.523 . S
C417 C25 1.567 . S
C425 C211 1.135 . S
C449 C33 1.348 . S
C457 C271 1.084 . S
C481 C11 1.365 . S
C489 C71 1.053 . S
C521 C185 1.160 . S
C513 C14 1.403 . S
C545 C37 1.528 . S
C553 C281 0.923 . S
C585 C167 0.874 . S
C577 C28 1.483 . S
C609 C9 1.443 . S
C617 C299 1.163 . S
C649 C43 1.104 . S
C641 C19 1.369 . S
C681 C157 1.018 . S
C673 C39 1.326 . S
C713 C325 1.234 . S
C705 C5 1.584 . S
C737 C23 1.561 . S
C745 C53 0.928 . S
