# Generated by pormake.
# Topology dag, (6,3)-cn, num edge types: 1
# Building blocks:
#     Node 0, Type 0, BuildingBlock: IZENUY_clean_sbu_0, # of connection points: 6
#     Node 1, Type 0, BuildingBlock: IZENUY_clean_sbu_0, # of connection points: 6
#     Node 2, Type 0, BuildingBlock: IZENUY_clean_sbu_0, # of connection points: 6
#     Node 3, Type 0, BuildingBlock: IZENUY_clean_sbu_0, # of connection points: 6
#     Node 4, Type 1, BuildingBlock: PAMTOO_clean_linker_0, # of connection points: 3
#     Node 5, Type 1, BuildingBlock: PAMTOO_clean_linker_0, # of connection points: 3
#     Node 6, Type 1, BuildingBlock: PAMTOO_clean_linker_0, # of connection points: 3
#     Node 7, Type 1, BuildingBlock: PAMTOO_clean_linker_0, # of connection points: 3
#     Node 8, Type 1, BuildingBlock: PAMTOO_clean_linker_0, # of connection points: 3
#     Node 9, Type 1, BuildingBlock: PAMTOO_clean_linker_0, # of connection points: 3
#     Node 10, Type 1, BuildingBlock: PAMTOO_clean_linker_0, # of connection points: 3
#     Node 11, Type 1, BuildingBlock: PAMTOO_clean_linker_0, # of connection points: 3
#     Edge 12, Type (0, 1), BuildingBlock: AJUNOK_clean_linker_0, # of connection points: 2
#     Edge 13, Type (0, 1), BuildingBlock: AJUNOK_clean_linker_0, # of connection points: 2
#     Edge 14, Type (0, 1), BuildingBlock: AJUNOK_clean_linker_0, # of connection points: 2
#     Edge 15, Type (0, 1), BuildingBlock: AJUNOK_clean_linker_0, # of connection points: 2
#     Edge 16, Type (0, 1), BuildingBlock: AJUNOK_clean_linker_0, # of connection points: 2
#     Edge 17, Type (0, 1), BuildingBlock: AJUNOK_clean_linker_0, # of connection points: 2
#     Edge 18, Type (0, 1), BuildingBlock: AJUNOK_clean_linker_0, # of connection points: 2
#     Edge 19, Type (0, 1), BuildingBlock: AJUNOK_clean_linker_0, # of connection points: 2
#     Edge 20, Type (0, 1), BuildingBlock: AJUNOK_clean_linker_0, # of connection points: 2
#     Edge 21, Type (0, 1), BuildingBlock: AJUNOK_clean_linker_0, # of connection points: 2
#     Edge 22, Type (0, 1), BuildingBlock: AJUNOK_clean_linker_0, # of connection points: 2
#     Edge 23, Type (0, 1), BuildingBlock: AJUNOK_clean_linker_0, # of connection points: 2
#     Edge 24, Type (0, 1), BuildingBlock: AJUNOK_clean_linker_0, # of connection points: 2
#     Edge 25, Type (0, 1), BuildingBlock: AJUNOK_clean_linker_0, # of connection points: 2
#     Edge 26, Type (0, 1), BuildingBlock: AJUNOK_clean_linker_0, # of connection points: 2
#     Edge 27, Type (0, 1), BuildingBlock: AJUNOK_clean_linker_0, # of connection points: 2
#     Edge 28, Type (0, 1), BuildingBlock: AJUNOK_clean_linker_0, # of connection points: 2
#     Edge 29, Type (0, 1), BuildingBlock: AJUNOK_clean_linker_0, # of connection points: 2
#     Edge 30, Type (0, 1), BuildingBlock: AJUNOK_clean_linker_0, # of connection points: 2
#     Edge 31, Type (0, 1), BuildingBlock: AJUNOK_clean_linker_0, # of connection points: 2
#     Edge 32, Type (0, 1), BuildingBlock: AJUNOK_clean_linker_0, # of connection points: 2
#     Edge 33, Type (0, 1), BuildingBlock: AJUNOK_clean_linker_0, # of connection points: 2
#     Edge 34, Type (0, 1), BuildingBlock: AJUNOK_clean_linker_0, # of connection points: 2
#     Edge 35, Type (0, 1), BuildingBlock: AJUNOK_clean_linker_0, # of connection points: 2
# Relax obj value: 0.092
# Max RMSD: 0.115
# Mean RMSD: 0.093
data_MOF--net-dag--node1-IZENUY_clean_sbu_0--node2-PAMTOO_clean_linker_0--edge1-AJUNOK_clean_linker_0
_symmetry_space_group_name_H-M    P1
_symmetry_Int_Tables_number       1
_symmetry_cell_setting            triclinic
loop_
_symmetry_equiv_pos_as_xyz
'x, y, z'
_cell_length_a     28.917016
_cell_length_b     29.855887
_cell_length_c     26.37853
_cell_angle_alpha  89.921686
_cell_angle_beta   93.763649
_cell_angle_gamma 90.048579
loop_
_atom_site_label
_atom_site_type_symbol
_atom_site_fract_x
_atom_site_fract_y
_atom_site_fract_z
_atom_type_partial_charge
Fe0 Fe 0.20393 0.8622 0.01167 0.0
Fe1 Fe 0.10353 0.89341 0.00391 0.0
O2 O 0.14402 0.84933 0.00516 0.0
Fe3 Fe 0.12415 0.79322 0.99989 0.0
O4 O 0.15405 0.77796 0.05975 0.0
O5 O 0.22027 0.81122 0.04787 0.0
O6 O 0.19831 0.89056 0.07239 0.0
C7 C 0.17226 0.92406 0.0763 0.0
C8 C 0.20297 0.79555 0.94013 0.0
O9 O 0.13997 0.93172 0.04293 0.0
C10 C 0.06167 0.83351 0.93273 0.0
O11 O 0.19812 0.91526 0.97543 0.0
O12 O 0.12517 0.91517 0.94608 0.0
O13 O 0.17292 0.77412 0.96358 0.0
O14 O 0.21373 0.83524 0.95214 0.0
C15 C 0.06435 0.83448 0.06728 0.0
O16 O 0.05859 0.8644 0.96479 0.0
O17 O 0.09232 0.80375 0.93899 0.0
C18 C 0.16639 0.92842 0.94318 0.0
O19 O 0.08066 0.87326 0.06164 0.0
O20 O 0.07231 0.80323 0.03622 0.0
C21 C 0.19677 0.78282 0.07105 0.0
Fe22 Fe 0.70695 0.64498 0.5197 0.0
Fe23 Fe 0.62449 0.70946 0.49742 0.0
O24 O 0.64648 0.65491 0.5103 0.0
Fe25 Fe 0.60761 0.60968 0.51373 0.0
O26 O 0.62643 0.59986 0.57947 0.0
O27 O 0.70085 0.59954 0.56677 0.0
O28 O 0.71179 0.68335 0.57276 0.0
C29 C 0.69832 0.72351 0.5724 0.0
C30 C 0.68107 0.57125 0.46434 0.0
O31 O 0.66995 0.73802 0.53745 0.0
C32 C 0.56822 0.65318 0.4313 0.0
O33 O 0.72346 0.6885 0.47463 0.0
O34 O 0.65694 0.71427 0.4414 0.0
O35 O 0.64729 0.56735 0.49188 0.0
O36 O 0.70639 0.6056 0.46688 0.0
C37 C 0.55913 0.67967 0.55904 0.0
O38 O 0.5752 0.68996 0.45483 0.0
O39 O 0.58711 0.61758 0.44815 0.0
C40 C 0.69998 0.70883 0.43939 0.0
O41 O 0.58973 0.70887 0.55282 0.0
O42 O 0.55983 0.64271 0.536 0.0
C43 C 0.66758 0.58992 0.59411 0.0
Fe44 Fe 0.88304 0.21176 0.05266 0.0
Fe45 Fe 0.90279 0.1114 0.05095 0.0
O46 O 0.86259 0.15576 0.04861 0.0
Fe47 Fe 0.80257 0.14329 0.04157 0.0
O48 O 0.78719 0.19313 1.00268 0.0
O49 O 0.85404 0.2258 0.99217 0.0
O50 O 0.93497 0.20059 0.01699 0.0
C51 C 0.94237 0.16896 0.98626 0.0
C52 C 0.8031 0.21196 0.11097 0.0
O53 O 0.92579 0.13036 0.99265 0.0
C54 C 0.83963 0.07788 0.11226 0.0
O55 O 0.91453 0.2022 0.11399 0.0
O56 O 0.94777 0.14103 0.08907 0.0
O57 O 0.7918 0.17217 0.09984 0.0
O58 O 0.83422 0.23214 0.08787 0.0
C59 C 0.83469 0.07978 0.97904 0.0
O60 O 0.88094 0.09089 0.10924 0.0
O61 O 0.80787 0.09105 0.07987 0.0
C62 C 0.94554 0.17276 0.12022 0.0
O63 O 0.86637 0.07236 0.01307 0.0
O64 O 0.80875 0.1134 0.98195 0.0
C65 C 0.81198 0.21973 0.97851 0.0
Fe66 Fe 0.39658 0.39419 0.53986 0.0
Fe67 Fe 0.29728 0.35963 0.54046 0.0
O68 O 0.3578 0.34905 0.54405 0.0
Fe69 Fe 0.37954 0.29379 0.55223 0.0
O70 O 0.41264 0.30797 0.61085 0.0
O71 O 0.44297 0.36925 0.5811 0.0
O72 O 0.37581 0.4196 0.59615 0.0
C73 C 0.33449 0.43168 0.60009 0.0
C74 C 0.4383 0.3331 0.48137 0.0
O75 O 0.30221 0.41554 0.57066 0.0
C76 C 0.30474 0.27774 0.48628 0.0
O77 O 0.3576 0.42782 0.49757 0.0
O78 O 0.29852 0.3836 0.47701 0.0
O79 O 0.43029 0.30291 0.51377 0.0
O80 O 0.4195 0.37106 0.48357 0.0
C81 C 0.30522 0.2981 0.61763 0.0
O82 O 0.28138 0.3057 0.51017 0.0
O83 O 0.34808 0.27523 0.49459 0.0
C84 C 0.3241 0.41629 0.46718 0.0
O85 O 0.29237 0.33673 0.60331 0.0
O86 O 0.33288 0.27553 0.59222 0.0
C87 C 0.44181 0.33921 0.6147 0.0
H88 H 0.10399 0.08335 0.16831 0.0
H89 H 0.1357 0.18009 0.286 0.0
H90 H 0.22898 0.07025 0.26503 0.0
H91 H 0.23032 0.10187 0.37676 0.0
C92 C 0.21243 0.13416 0.36778 0.0
O93 O 0.21495 0.14359 0.3169 0.0
H94 H 0.17574 0.1303 0.37754 0.0
C95 C 0.12654 0.09509 0.20005 0.0
C96 C 0.16751 0.07171 0.2138 0.0
C97 C 0.11465 0.13391 0.22598 0.0
C98 C 0.14398 0.14953 0.26643 0.0
C99 C 0.18508 0.1264 0.28057 0.0
C100 C 0.19666 0.08728 0.25465 0.0
H101 H 0.39648 0.60471 0.6292 0.0
H102 H 0.29094 0.62054 0.73489 0.0
H103 H 0.38482 0.72926 0.70938 0.0
H104 H 0.36213 0.71683 0.8182 0.0
C105 C 0.32743 0.70104 0.81132 0.0
O106 O 0.31407 0.70281 0.7602 0.0
H107 H 0.33037 0.66553 0.82414 0.0
C108 C 0.37901 0.62557 0.65566 0.0
C109 C 0.39458 0.6694 0.66526 0.0
C110 C 0.34185 0.60781 0.68045 0.0
C111 C 0.31956 0.63415 0.71523 0.0
C112 C 0.33521 0.67789 0.72584 0.0
C113 C 0.37289 0.69549 0.70106 0.0
H114 H 0.90773 0.91066 0.1516 0.0
H115 H 0.79667 0.88766 0.24916 0.0
H116 H 0.89901 0.78512 0.23042 0.0
H117 H 0.81043 0.74535 0.24578 0.0
C118 C 0.79239 0.77414 0.26252 0.0
O119 O 0.8244 0.80677 0.27681 0.0
H120 H 0.76682 0.78719 0.23273 0.0
C121 C 0.88982 0.88868 0.17666 0.0
C122 C 0.90773 0.84604 0.18782 0.0
C123 C 0.84998 0.90398 0.19846 0.0
C124 C 0.82708 0.87587 0.23134 0.0
C125 C 0.84471 0.83284 0.2427 0.0
C126 C 0.88502 0.81793 0.22082 0.0
H127 H 0.59251 0.43818 0.68923 0.0
H128 H 0.62725 0.32474 0.78446 0.0
H129 H 0.72417 0.4336 0.77534 0.0
H130 H 0.76776 0.33991 0.78403 0.0
C131 C 0.73878 0.32335 0.80255 0.0
O132 O 0.70844 0.35552 0.81772 0.0
H133 H 0.72113 0.30041 0.77417 0.0
C134 C 0.6164 0.42161 0.71663 0.0
C135 C 0.65933 0.44146 0.73041 0.0
C136 C 0.60479 0.37957 0.73553 0.0
C137 C 0.63591 0.35738 0.76973 0.0
C138 C 0.6788 0.37703 0.78434 0.0
C139 C 0.69077 0.41886 0.76434 0.0
H140 H 0.60769 0.40832 0.41741 0.0
H141 H 0.61443 0.28612 0.33196 0.0
H142 H 0.722 0.38544 0.32443 0.0
H143 H 0.68295 0.34788 0.2281 0.0
C144 C 0.68174 0.31191 0.23916 0.0
O145 O 0.69221 0.3072 0.2907 0.0
H146 H 0.64576 0.29994 0.22963 0.0
C147 C 0.62567 0.38681 0.39203 0.0
C148 C 0.66733 0.40135 0.37336 0.0
C149 C 0.6063 0.34541 0.37746 0.0
C150 C 0.62938 0.31792 0.34414 0.0
C151 C 0.67109 0.3325 0.32484 0.0
C152 C 0.69012 0.37414 0.33972 0.0
H153 H 0.09393 0.09141 0.89444 0.0
H154 H 0.10887 0.2204 0.82459 0.0
H155 H 0.20921 0.11645 0.80355 0.0
H156 H 0.24718 0.20465 0.82004 0.0
C157 C 0.22165 0.22485 0.79632 0.0
O158 O 0.18444 0.19871 0.77954 0.0
H159 H 0.20946 0.25248 0.82036 0.0
C160 C 0.11281 0.1139 0.87084 0.0
C161 C 0.15336 0.09896 0.85029 0.0
C162 C 0.09637 0.1574 0.86184 0.0
C163 C 0.12134 0.18669 0.83215 0.0
C164 C 0.16193 0.17172 0.81084 0.0
C165 C 0.17801 0.12788 0.82012 0.0
H166 H 0.40195 0.55429 0.36698 0.0
H167 H 0.37913 0.66874 0.26891 0.0
H168 H 0.26925 0.57405 0.28715 0.0
H169 H 0.27057 0.60888 0.18216 0.0
C170 C 0.29021 0.64043 0.19018 0.0
O171 O 0.29316 0.6483 0.24176 0.0
H172 H 0.32538 0.63583 0.17613 0.0
C173 C 0.37988 0.57339 0.34004 0.0
C174 C 0.3343 0.55896 0.3286 0.0
C175 C 0.39649 0.61319 0.31942 0.0
C176 C 0.36693 0.63823 0.28588 0.0
C177 C 0.32128 0.62389 0.27397 0.0
C178 C 0.30476 0.58457 0.29582 0.0
H179 H 0.90838 0.92476 0.87886 0.0
H180 H 0.87531 0.83125 0.75814 0.0
H181 H 0.7826 0.94053 0.78406 0.0
H182 H 0.72873 0.86584 0.74702 0.0
C183 C 0.7581 0.8434 0.73924 0.0
O184 O 0.79595 0.86924 0.72875 0.0
H185 H 0.7656 0.82274 0.77403 0.0
C186 C 0.88548 0.9139 0.84697 0.0
C187 C 0.84426 0.93737 0.8348 0.0
C188 C 0.89714 0.87597 0.81943 0.0
C189 C 0.86716 0.86114 0.77901 0.0
C190 C 0.82598 0.88469 0.7661 0.0
C191 C 0.81494 0.92319 0.79347 0.0
C192 C 0.18432 0.00416 0.09609 0.0
C193 C 0.18339 0.95973 0.1137 0.0
C194 C 0.18294 0.04025 0.1296 0.0
C195 C 0.18022 0.03333 0.18201 0.0
H196 H 0.1835 0.01109 0.05569 0.0
H197 H 0.18127 0.07389 0.11406 0.0
S198 S 0.18077 0.92356 0.24778 0.0
N199 N 0.18319 0.9106 0.18709 0.0
N200 N 0.18012 0.97888 0.25056 0.0
C201 C 0.18247 0.98918 0.20064 0.0
C202 C 0.18415 0.95219 0.16629 0.0
C203 C 0.51821 0.69698 0.63755 0.0
C204 C 0.5168 0.69062 0.58466 0.0
C205 C 0.47734 0.69456 0.66378 0.0
C206 C 0.43422 0.6859 0.63762 0.0
H207 H 0.55125 0.70018 0.6591 0.0
H208 H 0.48 0.69585 0.70491 0.0
S209 S 0.41187 0.67335 0.49844 0.0
N210 N 0.46854 0.68009 0.50678 0.0
N211 N 0.39211 0.67646 0.55565 0.0
C212 C 0.43221 0.6836 0.58438 0.0
C213 C 0.47348 0.68565 0.55798 0.0
C214 C 0.80137 0.00401 0.12654 0.0
C215 C 0.83215 0.03803 0.14431 0.0
C216 C 0.80355 0.9609 0.14809 0.0
C217 C 0.83597 0.95086 0.1885 0.0
H218 H 0.77842 0.00943 0.09297 0.0
H219 H 0.78253 0.93445 0.1304 0.0
S220 S 0.91873 0.0295 0.25405 0.0
N221 N 0.89182 0.05991 0.20884 0.0
N222 N 0.89548 0.97905 0.24915 0.0
C223 C 0.86361 0.98555 0.20963 0.0
C224 C 0.86175 0.02917 0.18763 0.0
C225 C 0.47851 0.36878 0.69489 0.0
C226 C 0.47944 0.33828 0.6546 0.0
C227 C 0.5189 0.37895 0.72487 0.0
C228 C 0.56127 0.3586 0.71545 0.0
H229 H 0.44714 0.38708 0.70099 0.0
H230 H 0.51772 0.40516 0.75313 0.0
S231 S 0.58084 0.27398 0.61664 0.0
N232 N 0.52501 0.28575 0.60866 0.0
N233 N 0.60119 0.30446 0.66541 0.0
C234 C 0.56185 0.32555 0.6777 0.0
C235 C 0.52075 0.31547 0.64702 0.0
C236 C 0.7116 0.49429 0.45902 0.0
C237 C 0.69264 0.53226 0.43392 0.0
C238 C 0.70776 0.4518 0.43654 0.0
C239 C 0.68472 0.44614 0.38842 0.0
H240 H 0.72594 0.4969 0.4979 0.0
H241 H 0.71942 0.42281 0.45858 0.0
S242 S 0.63165 0.53534 0.30619 0.0
N243 N 0.65258 0.56203 0.35755 0.0
N244 N 0.64525 0.48203 0.3152 0.0
C245 C 0.66855 0.48424 0.36157 0.0
C246 C 0.67254 0.52745 0.38441 0.0
C247 C 0.0161 0.20177 0.95708 0.0
C248 C 0.9769 0.17421 0.94768 0.0
C249 C 0.05366 0.19964 0.92587 0.0
C250 C 0.05275 0.1703 0.88417 0.0
H251 H 0.01925 0.22262 0.99071 0.0
H252 H 0.08483 0.21846 0.93659 0.0
S253 S 0.95513 0.09732 0.83831 0.0
N254 N 0.93714 0.12133 0.88982 0.0
N255 N 0.00751 0.11758 0.83143 0.0
C256 C 0.01215 0.14576 0.87189 0.0
C257 C 0.97424 0.14765 0.9036 0.0
C258 C 0.33576 0.44124 0.37956 0.0
C259 C 0.31217 0.44615 0.42403 0.0
C260 C 0.33895 0.47701 0.34542 0.0
C261 C 0.31821 0.51856 0.35463 0.0
H262 H 0.35495 0.41086 0.37325 0.0
H263 H 0.36065 0.47327 0.31373 0.0
S264 S 0.24891 0.54673 0.4633 0.0
N265 N 0.26484 0.49418 0.47357 0.0
N266 N 0.27028 0.56138 0.4091 0.0
C267 C 0.2913 0.52257 0.39674 0.0
C268 C 0.28842 0.48629 0.43163 0.0
C269 C 0.98104 0.81233 0.90655 0.0
C270 C 0.02379 0.82958 0.89308 0.0
C271 C 0.93975 0.82327 0.87834 0.0
C272 C 0.94006 0.85188 0.836 0.0
H273 H 0.97903 0.79379 0.94169 0.0
H274 H 0.90709 0.81268 0.8924 0.0
S275 S 0.04338 0.90204 0.78257 0.0
N276 N 0.06444 0.87324 0.83242 0.0
N277 N 0.98671 0.89406 0.77952 0.0
C278 C 0.98288 0.86626 0.81984 0.0
C279 C 0.02488 0.85503 0.84845 0.0
C280 C 0.82773 0.99982 0.95615 0.0
C281 C 0.82541 0.04478 0.94039 0.0
C282 C 0.83041 0.96513 0.92103 0.0
C283 C 0.83126 0.97407 0.8688 0.0
H284 H 0.82984 0.9915 0.99626 0.0
H285 H 0.83429 0.93112 0.93509 0.0
S286 S 0.82188 0.08582 0.80766 0.0
N287 N 0.82041 0.09642 0.86904 0.0
N288 N 0.82599 0.0308 0.8025 0.0
C289 C 0.82577 0.01861 0.8521 0.0
C290 C 0.82272 0.05415 0.8881 0.0
C291 C 0.51525 0.30054 0.46117 0.0
C292 C 0.47696 0.32821 0.44729 0.0
C293 C 0.55646 0.30343 0.43568 0.0
C294 C 0.56036 0.33367 0.39528 0.0
H295 H 0.51462 0.27884 0.49404 0.0
H296 H 0.58629 0.28406 0.44969 0.0
S297 S 0.46848 0.40848 0.33936 0.0
N298 N 0.44438 0.38297 0.38655 0.0
N299 N 0.52159 0.38823 0.33925 0.0
C300 C 0.52137 0.35883 0.37865 0.0
C301 C 0.47968 0.35607 0.40444 0.0
C302 C 0.14249 0.97546 0.86818 0.0
C303 C 0.17394 0.96757 0.91023 0.0
C304 C 0.13973 0.01736 0.84449 0.0
C305 C 0.16849 0.05277 0.86189 0.0
H306 H 0.11745 0.95013 0.85588 0.0
H307 H 0.11231 0.02323 0.81523 0.0
S308 S 0.26106 0.04814 0.96549 0.0
N309 N 0.23834 0.99734 0.96416 0.0
N310 N 0.23258 0.07644 0.91953 0.0
C311 C 0.20309 0.04429 0.90044 0.0
C312 C 0.20605 1.00148 0.92463 0.0
C313 C 0.5224 0.6076 0.36659 0.0
C314 C 0.52939 0.64885 0.3918 0.0
C315 C 0.48052 0.59781 0.33935 0.0
C316 C 0.44383 0.62877 0.33624 0.0
H317 H 0.54836 0.58146 0.37046 0.0
H318 H 0.47581 0.56465 0.32314 0.0
S319 S 0.44747 0.74477 0.38661 0.0
N320 N 0.49874 0.7237 0.40456 0.0
N321 N 0.41932 0.70458 0.35461 0.0
C322 C 0.45191 0.67175 0.35673 0.0
C323 C 0.49491 0.68198 0.38416 0.0
C324 C 0.29555 0.50555 0.61113 0.0
C325 C 0.32674 0.47245 0.63018 0.0
C326 C 0.2973 0.54922 0.63094 0.0
C327 C 0.3295 0.56056 0.67108 0.0
H328 H 0.27238 0.49881 0.57813 0.0
H329 H 0.27583 0.57494 0.61242 0.0
S330 S 0.41241 0.48431 0.74027 0.0
N331 N 0.38604 0.45266 0.69592 0.0
N332 N 0.38895 0.53453 0.73319 0.0
C333 C 0.35749 0.52681 0.69358 0.0
C334 C 0.3561 0.48269 0.67321 0.0
C335 C 0.9899 0.80167 0.09445 0.0
C336 C 0.02914 0.82892 0.10506 0.0
C337 C 0.95153 0.80409 0.12447 0.0
C338 C 0.95165 0.83341 0.16612 0.0
H339 H 0.9874 0.78091 0.06072 0.0
H340 H 0.92047 0.78541 0.11294 0.0
S341 S 0.04853 0.90606 0.21461 0.0
N342 N 0.06778 0.88173 0.16391 0.0
N343 N 0.99577 0.88613 0.2199 0.0
C344 C 0.99207 0.8578 0.17953 0.0
C345 C 0.03085 0.85555 0.1491 0.0
C346 C 0.64076 0.55624 0.6735 0.0
C347 C 0.67432 0.55812 0.63724 0.0
C348 C 0.63897 0.52016 0.70724 0.0
C349 C 0.67063 0.48453 0.70606 0.0
H350 H 0.61389 0.5815 0.67382 0.0
H351 H 0.61067 0.51861 0.73216 0.0
S352 S 0.76858 0.47569 0.62287 0.0
N353 N 0.74302 0.52336 0.60593 0.0
N354 N 0.73911 0.45519 0.66921 0.0
C355 C 0.70674 0.48774 0.67313 0.0
C356 C 0.70874 0.52468 0.63874 0.0
C357 C 0.02888 0.18801 0.13268 0.0
C358 C 0.98671 0.18008 0.15476 0.0
C359 C 0.07118 0.17734 0.1586 0.0
C360 C 0.07261 0.15851 0.20749 0.0
H361 H 0.02895 0.19841 0.09329 0.0
H362 H 0.10265 0.18019 0.13866 0.0
S363 S 0.97242 0.13805 0.28482 0.0
N364 N 0.94908 0.15751 0.23028 0.0
N365 N 0.02907 0.13771 0.27953 0.0
C366 C 0.03112 0.15472 0.23196 0.0
C367 C 0.98789 0.16547 0.20538 0.0
C368 C 0.19606 0.712 0.12215 0.0
C369 C 0.22059 0.74976 0.10603 0.0
C370 C 0.21851 0.67747 0.15005 0.0
C371 C 0.26637 0.67919 0.16283 0.0
H372 H 0.15937 0.70826 0.11194 0.0
H373 H 0.19846 0.64867 0.16068 0.0
S374 S 0.3457 0.7726 0.13625 0.0
N375 N 0.29505 0.78831 0.10949 0.0
N376 N 0.3369 0.7232 0.16217 0.0
C377 C 0.29092 0.71761 0.14966 0.0
C378 C 0.26817 0.75286 0.1211 0.0
C379 C 0.6951 0.79654 0.61892 0.0
C380 C 0.71624 0.75446 0.61327 0.0
C381 C 0.70926 0.82532 0.65896 0.0
C382 C 0.74496 0.81308 0.69501 0.0
H383 H 0.6667 0.8071 0.59283 0.0
H384 H 0.69158 0.85705 0.66229 0.0
S385 S 0.81468 0.70905 0.69546 0.0
N386 N 0.77712 0.7036 0.64593 0.0
N387 N 0.80344 0.75801 0.72091 0.0
C388 C 0.76763 0.77211 0.68891 0.0
C389 C 0.75325 0.74267 0.64827 0.0
C390 C 0.73356 0.21805 0.16268 0.0
C391 C 0.77525 0.23678 0.14733 0.0
C392 C 0.70435 0.24196 0.19324 0.0
C393 C 0.71549 0.2856 0.20965 0.0
H394 H 0.72259 0.185 0.14994 0.0
H395 H 0.67219 0.22658 0.2031 0.0
S396 S 0.82271 0.34818 0.18602 0.0
N397 N 0.82784 0.30056 0.1551 0.0
N398 N 0.77271 0.34519 0.21271 0.0
C399 C 0.75798 0.30395 0.19702 0.0
C400 C 0.7878 0.27971 0.16571 0.0
C401 C 0.25625 0.30482 0.69221 0.0
C402 C 0.28496 0.27833 0.66307 0.0
C403 C 0.23634 0.28756 0.73514 0.0
C404 C 0.24463 0.24324 0.75103 0.0
H405 H 0.2489 0.33934 0.68188 0.0
H406 H 0.21424 0.30908 0.75604 0.0
S407 S 0.31565 0.15914 0.68827 0.0
N408 N 0.31973 0.20475 0.65334 0.0
N409 N 0.28212 0.17265 0.7342 0.0
C410 C 0.27281 0.21618 0.72238 0.0
C411 C 0.29314 0.23365 0.67852 0.0
C412 C 0.76728 0.71093 0.38394 0.0
C413 C 0.72353 0.72736 0.39546 0.0
C414 C 0.7892 0.72627 0.34125 0.0
C415 C 0.76824 0.75858 0.30843 0.0
H416 H 0.78445 0.6854 0.40754 0.0
H417 H 0.82264 0.71245 0.33351 0.0
S418 S 0.65617 0.81554 0.32368 0.0
N419 N 0.66145 0.78 0.37172 0.0
N420 N 0.70306 0.80887 0.29201 0.0
C421 C 0.72538 0.77644 0.32031 0.0
C422 C 0.70286 0.7607 0.36354 0.0
C423 C 0.81915 0.27815 0.91124 0.0
C424 C 0.79163 0.24597 0.9345 0.0
C425 C 0.80191 0.30296 0.86908 0.0
C426 C 0.75659 0.29639 0.84804 0.0
H427 H 0.85452 0.28439 0.92558 0.0
H428 H 0.82436 0.32731 0.85263 0.0
S429 S 0.66955 0.21772 0.89434 0.0
N430 N 0.71596 0.20986 0.93323 0.0
N431 N 0.68388 0.2567 0.85373 0.0
C432 C 0.72838 0.26497 0.87095 0.0
C433 C 0.74582 0.23966 0.9141 0.0
C434 C 0.30512 0.20463 0.43976 0.0
C435 C 0.28064 0.24295 0.45405 0.0
C436 C 0.28285 0.16974 0.41234 0.0
C437 C 0.23522 0.17163 0.39833 0.0
H438 H 0.34174 0.20105 0.45046 0.0
H439 H 0.303 0.14089 0.40227 0.0
S440 S 0.15591 0.26575 0.42163 0.0
N441 N 0.20631 0.2816 0.4489 0.0
N442 N 0.16479 0.21589 0.39706 0.0
C443 C 0.21055 0.21019 0.41064 0.0
C444 C 0.23313 0.24577 0.43872 0.0
C445 C 0.23288 0.72491 0.90253 0.0
C446 C 0.23095 0.77205 0.90306 0.0
C447 C 0.26323 0.70215 0.87213 0.0
C448 C 0.29277 0.72568 0.84118 0.0
H449 H 0.21195 0.70537 0.92702 0.0
H450 H 0.26436 0.66591 0.87377 0.0
S451 S 0.29758 0.84867 0.82382 0.0
N452 N 0.25863 0.84118 0.8661 0.0
N453 N 0.31568 0.79809 0.80946 0.0
C454 C 0.28968 0.77253 0.83942 0.0
C455 C 0.25885 0.79578 0.87026 0.0
loop_
_geom_bond_atom_site_label_1
_geom_bond_atom_site_label_2
_geom_bond_distance
_geom_bond_site_symmetry_2
_ccdc_geom_bond_type
Fe0 O2 1.918 1_554 S
Fe0 O5 1.997 . S
Fe0 O6 2.002 . S
Fe0 O11 1.976 1_554 S
Fe0 O14 1.996 1_554 S
Fe1 O2 1.918 1_554 S
Fe1 O9 1.997 . S
Fe1 O12 1.996 1_554 S
Fe1 O16 1.976 1_554 S
Fe1 O19 2.002 . S
O2 Fe0 1.918 1_556 S
O2 Fe1 1.918 1_556 S
O2 Fe3 1.918 . S
Fe3 O2 1.918 . S
Fe3 O4 2.002 1_556 S
Fe3 O13 1.976 . S
Fe3 O17 1.996 . S
Fe3 O20 1.997 1_556 S
O4 Fe3 2.002 1_554 S
O4 C21 1.295 . S
O5 Fe0 1.997 . S
O5 C21 1.235 . S
O6 Fe0 2.002 . S
O6 C7 1.295 . S
C7 O6 1.295 . S
C7 O9 1.235 . S
C8 O13 1.287 . S
C8 O14 1.255 . S
O9 Fe1 1.997 . S
O9 C7 1.235 . S
C10 O16 1.287 . S
C10 O17 1.255 . S
O11 Fe0 1.976 1_556 S
O11 C18 1.287 . S
O12 Fe1 1.996 1_556 S
O12 C18 1.255 . S
O13 Fe3 1.976 . S
O13 C8 1.287 . S
O14 Fe0 1.996 1_556 S
O14 C8 1.255 . S
C15 O19 1.295 . S
C15 O20 1.235 . S
O16 Fe1 1.976 1_556 S
O16 C10 1.287 . S
O17 Fe3 1.996 . S
O17 C10 1.255 . S
C18 O11 1.287 . S
C18 O12 1.255 . S
O19 Fe1 2.002 . S
O19 C15 1.295 . S
O20 Fe3 1.997 1_554 S
O20 C15 1.235 . S
C21 O4 1.295 . S
C21 O5 1.235 . S
Fe22 O24 1.918 . S
Fe22 O27 1.997 . S
Fe22 O28 2.002 . S
Fe22 O33 1.976 . S
Fe22 O36 1.996 . S
Fe23 O24 1.918 . S
Fe23 O31 1.997 . S
Fe23 O34 1.996 . S
Fe23 O38 1.976 . S
Fe23 O41 2.002 . S
O24 Fe22 1.918 . S
O24 Fe23 1.918 . S
O24 Fe25 1.918 . S
Fe25 O24 1.918 . S
Fe25 O26 2.002 . S
Fe25 O35 1.976 . S
Fe25 O39 1.996 . S
Fe25 O42 1.997 . S
O26 Fe25 2.002 . S
O26 C43 1.295 . S
O27 Fe22 1.997 . S
O27 C43 1.235 . S
O28 Fe22 2.002 . S
O28 C29 1.295 . S
C29 O28 1.295 . S
C29 O31 1.235 . S
C30 O35 1.287 . S
C30 O36 1.255 . S
O31 Fe23 1.997 . S
O31 C29 1.235 . S
C32 O38 1.287 . S
C32 O39 1.255 . S
O33 Fe22 1.976 . S
O33 C40 1.287 . S
O34 Fe23 1.996 . S
O34 C40 1.255 . S
O35 Fe25 1.976 . S
O35 C30 1.287 . S
O36 Fe22 1.996 . S
O36 C30 1.255 . S
C37 O41 1.295 . S
C37 O42 1.235 . S
O38 Fe23 1.976 . S
O38 C32 1.287 . S
O39 Fe25 1.996 . S
O39 C32 1.255 . S
C40 O33 1.287 . S
C40 O34 1.255 . S
O41 Fe23 2.002 . S
O41 C37 1.295 . S
O42 Fe25 1.997 . S
O42 C37 1.235 . S
C43 O26 1.295 . S
C43 O27 1.235 . S
Fe44 O46 1.918 . S
Fe44 O49 1.997 . S
Fe44 O50 2.002 . S
Fe44 O55 1.976 . S
Fe44 O58 1.996 . S
Fe45 O46 1.918 . S
Fe45 O53 1.996 . S
Fe45 O56 1.996 . S
Fe45 O60 1.976 . S
Fe45 O63 2.002 1_554 S
O46 Fe44 1.918 . S
O46 Fe45 1.918 . S
O46 Fe47 1.918 . S
Fe47 O46 1.918 . S
Fe47 O48 2.002 1_554 S
Fe47 O57 1.976 . S
Fe47 O61 1.996 . S
Fe47 O64 1.997 1_554 S
O48 Fe47 2.002 1_556 S
O48 C65 1.295 . S
O49 Fe44 1.997 . S
O49 C65 1.235 1_554 S
O50 Fe44 2.002 . S
O50 C51 1.295 1_554 S
C51 O50 1.295 1_556 S
C51 O53 1.236 1_556 S
C52 O57 1.287 . S
C52 O58 1.255 . S
O53 Fe45 1.996 . S
O53 C51 1.236 1_554 S
C54 O60 1.287 . S
C54 O61 1.255 . S
O55 Fe44 1.976 . S
O55 C62 1.287 . S
O56 Fe45 1.996 . S
O56 C62 1.255 . S
O57 Fe47 1.976 . S
O57 C52 1.287 . S
O58 Fe44 1.996 . S
O58 C52 1.255 . S
C59 O63 1.295 . S
C59 O64 1.235 . S
O60 Fe45 1.976 . S
O60 C54 1.287 . S
O61 Fe47 1.996 . S
O61 C54 1.255 . S
C62 O55 1.287 . S
C62 O56 1.255 . S
O63 Fe45 2.002 1_556 S
O63 C59 1.295 . S
O64 Fe47 1.997 1_556 S
O64 C59 1.235 . S
C65 O48 1.295 . S
C65 O49 1.235 1_556 S
Fe66 O68 1.918 . S
Fe66 O71 1.997 . S
Fe66 O72 2.002 . S
Fe66 O77 1.976 . S
Fe66 O80 1.996 . S
Fe67 O68 1.918 . S
Fe67 O75 1.997 . S
Fe67 O78 1.996 . S
Fe67 O82 1.976 . S
Fe67 O85 2.002 . S
O68 Fe66 1.918 . S
O68 Fe67 1.918 . S
O68 Fe69 1.918 . S
Fe69 O68 1.918 . S
Fe69 O70 2.002 . S
Fe69 O79 1.976 . S
Fe69 O83 1.996 . S
Fe69 O86 1.997 . S
O70 Fe69 2.002 . S
O70 C87 1.295 . S
O71 Fe66 1.997 . S
O71 C87 1.235 . S
O72 Fe66 2.002 . S
O72 C73 1.295 . S
C73 O72 1.295 . S
C73 O75 1.235 . S
C74 O79 1.287 . S
C74 O80 1.255 . S
O75 Fe67 1.997 . S
O75 C73 1.235 . S
C76 O82 1.287 . S
C76 O83 1.255 . S
O77 Fe66 1.976 . S
O77 C84 1.287 . S
O78 Fe67 1.996 . S
O78 C84 1.255 . S
O79 Fe69 1.976 . S
O79 C74 1.287 . S
O80 Fe66 1.996 . S
O80 C74 1.255 . S
C81 O85 1.295 . S
C81 O86 1.235 . S
O82 Fe67 1.976 . S
O82 C76 1.287 . S
O83 Fe69 1.996 . S
O83 C76 1.255 . S
C84 O77 1.287 . S
C84 O78 1.255 . S
O85 Fe67 2.002 . S
O85 C81 1.295 . S
O86 Fe69 1.997 . S
O86 C81 1.235 . S
C87 O70 1.295 . S
C87 O71 1.235 . S
H88 C95 0.929 . S
H89 C98 0.930 . S
H90 C100 0.929 . S
H91 C92 0.969 . S
C92 H91 0.969 . S
C92 O93 1.550 . S
C92 H94 0.973 . S
O93 C92 1.550 . S
O93 C99 1.412 . S
H94 C92 0.973 . S
C95 H88 0.929 . S
C95 C96 1.400 . S
C95 C97 1.364 . S
C96 C95 1.400 . S
C96 C100 1.377 . S
C97 C95 1.364 . S
C97 C98 1.374 . S
C98 H89 0.930 . S
C98 C97 1.374 . S
C98 C99 1.383 . S
C99 O93 1.412 . S
C99 C98 1.383 . S
C99 C100 1.394 . S
C100 H90 0.929 . S
C100 C96 1.377 . S
C100 C99 1.394 . S
H101 C108 0.929 . S
H102 C111 0.930 . S
H103 C113 0.929 . S
H104 C105 0.969 . S
C105 H104 0.969 . S
C105 O106 1.550 . S
C105 H107 0.973 . S
O106 C105 1.550 . S
O106 C112 1.412 . S
H107 C105 0.973 . S
C108 H101 0.929 . S
C108 C109 1.400 . S
C108 C110 1.364 . S
C109 C108 1.400 . S
C109 C113 1.377 . S
C110 C108 1.364 . S
C110 C111 1.374 . S
C111 H102 0.930 . S
C111 C110 1.374 . S
C111 C112 1.383 . S
C112 O106 1.412 . S
C112 C111 1.383 . S
C112 C113 1.394 . S
C113 H103 0.929 . S
C113 C109 1.377 . S
C113 C112 1.394 . S
H114 C121 0.929 . S
H115 C124 0.930 . S
H116 C126 0.929 . S
H117 C118 0.969 . S
C118 H117 0.969 . S
C118 O119 1.550 . S
C118 H120 0.973 . S
O119 C118 1.550 . S
O119 C125 1.412 . S
H120 C118 0.973 . S
C121 H114 0.929 . S
C121 C122 1.400 . S
C121 C123 1.364 . S
C122 C121 1.400 . S
C122 C126 1.377 . S
C123 C121 1.364 . S
C123 C124 1.374 . S
C124 H115 0.930 . S
C124 C123 1.374 . S
C124 C125 1.383 . S
C125 O119 1.412 . S
C125 C124 1.383 . S
C125 C126 1.394 . S
C126 H116 0.929 . S
C126 C122 1.377 . S
C126 C125 1.394 . S
H127 C134 0.929 . S
H128 C137 0.930 . S
H129 C139 0.929 . S
H130 C131 0.969 . S
C131 H130 0.969 . S
C131 O132 1.550 . S
C131 H133 0.973 . S
O132 C131 1.550 . S
O132 C138 1.412 . S
H133 C131 0.973 . S
C134 H127 0.929 . S
C134 C135 1.400 . S
C134 C136 1.364 . S
C135 C134 1.400 . S
C135 C139 1.377 . S
C136 C134 1.364 . S
C136 C137 1.374 . S
C137 H128 0.930 . S
C137 C136 1.374 . S
C137 C138 1.383 . S
C138 O132 1.412 . S
C138 C137 1.383 . S
C138 C139 1.394 . S
C139 H129 0.929 . S
C139 C135 1.377 . S
C139 C138 1.394 . S
H140 C147 0.929 . S
H141 C150 0.930 . S
H142 C152 0.929 . S
H143 C144 0.969 . S
C144 H143 0.969 . S
C144 O145 1.550 . S
C144 H146 0.973 . S
O145 C144 1.550 . S
O145 C151 1.412 . S
H146 C144 0.973 . S
C147 H140 0.929 . S
C147 C148 1.400 . S
C147 C149 1.364 . S
C148 C147 1.400 . S
C148 C152 1.377 . S
C149 C147 1.364 . S
C149 C150 1.374 . S
C150 H141 0.930 . S
C150 C149 1.374 . S
C150 C151 1.383 . S
C151 O145 1.412 . S
C151 C150 1.383 . S
C151 C152 1.394 . S
C152 H142 0.929 . S
C152 C148 1.377 . S
C152 C151 1.394 . S
H153 C160 0.929 . S
H154 C163 0.930 . S
H155 C165 0.929 . S
H156 C157 0.969 . S
C157 H156 0.969 . S
C157 O158 1.550 . S
C157 H159 0.973 . S
O158 C157 1.550 . S
O158 C164 1.412 . S
H159 C157 0.973 . S
C160 H153 0.929 . S
C160 C161 1.400 . S
C160 C162 1.364 . S
C161 C160 1.400 . S
C161 C165 1.377 . S
C162 C160 1.364 . S
C162 C163 1.374 . S
C163 H154 0.930 . S
C163 C162 1.374 . S
C163 C164 1.383 . S
C164 O158 1.412 . S
C164 C163 1.383 . S
C164 C165 1.394 . S
C165 H155 0.929 . S
C165 C161 1.377 . S
C165 C164 1.394 . S
H166 C173 0.929 . S
H167 C176 0.930 . S
H168 C178 0.929 . S
H169 C170 0.969 . S
C170 H169 0.969 . S
C170 O171 1.550 . S
C170 H172 0.973 . S
O171 C170 1.550 . S
O171 C177 1.412 . S
H172 C170 0.973 . S
C173 H166 0.929 . S
C173 C174 1.400 . S
C173 C175 1.364 . S
C174 C173 1.400 . S
C174 C178 1.377 . S
C175 C173 1.364 . S
C175 C176 1.374 . S
C176 H167 0.930 . S
C176 C175 1.374 . S
C176 C177 1.383 . S
C177 O171 1.412 . S
C177 C176 1.383 . S
C177 C178 1.394 . S
C178 H168 0.929 . S
C178 C174 1.377 . S
C178 C177 1.394 . S
H179 C186 0.929 . S
H180 C189 0.930 . S
H181 C191 0.929 . S
H182 C183 0.969 . S
C183 H182 0.969 . S
C183 O184 1.550 . S
C183 H185 0.973 . S
O184 C183 1.550 . S
O184 C190 1.412 . S
H185 C183 0.973 . S
C186 H179 0.929 . S
C186 C187 1.400 . S
C186 C188 1.364 . S
C187 C186 1.400 . S
C187 C191 1.377 . S
C188 C186 1.364 . S
C188 C189 1.374 . S
C189 H180 0.930 . S
C189 C188 1.374 . S
C189 C190 1.383 . S
C190 O184 1.412 . S
C190 C189 1.383 . S
C190 C191 1.394 . S
C191 H181 0.929 . S
C191 C187 1.377 . S
C191 C190 1.394 . S
C192 C193 1.369 . S
C192 C194 1.419 1_565 S
C192 H196 0.930 1_565 S
C193 C192 1.369 . S
C193 C202 1.429 . S
C194 C192 1.419 1_545 S
C194 C195 1.363 . S
C194 H197 0.929 . S
C195 C194 1.363 . S
C195 C201 1.428 1_545 S
H196 C192 0.930 1_545 S
H197 C194 0.929 . S
S198 N199 1.613 . S
S198 N200 1.610 . S
N199 S198 1.613 . S
N199 C202 1.350 . S
N200 S198 1.610 . S
N200 C201 1.351 . S
C201 C195 1.428 1_565 S
C201 N200 1.351 . S
C201 C202 1.434 . S
C202 C193 1.429 . S
C202 N199 1.350 . S
C202 C201 1.434 . S
C203 C204 1.369 . S
C203 C205 1.419 . S
C203 H207 0.930 . S
C204 C203 1.369 . S
C204 C213 1.429 . S
C205 C203 1.419 . S
C205 C206 1.363 . S
C205 H208 0.929 . S
C206 C205 1.363 . S
C206 C212 1.428 . S
H207 C203 0.930 . S
H208 C205 0.929 . S
S209 N210 1.613 . S
S209 N211 1.610 . S
N210 S209 1.613 . S
N210 C213 1.350 . S
N211 S209 1.610 . S
N211 C212 1.351 . S
C212 C206 1.428 . S
C212 N211 1.351 . S
C212 C213 1.434 . S
C213 C204 1.429 . S
C213 N210 1.350 . S
C213 C212 1.434 . S
C214 C215 1.369 . S
C214 C216 1.419 . S
C214 H218 0.930 1_565 S
C215 C214 1.369 . S
C215 C224 1.429 . S
C216 C214 1.419 . S
C216 C217 1.363 . S
C216 H219 0.929 . S
C217 C216 1.363 . S
C217 C223 1.428 . S
H218 C214 0.930 1_545 S
H219 C216 0.929 . S
S220 N221 1.613 . S
S220 N222 1.610 . S
N221 S220 1.613 . S
N221 C224 1.350 . S
N222 S220 1.610 . S
N222 C223 1.351 . S
C223 C217 1.428 . S
C223 N222 1.351 . S
C223 C224 1.434 . S
C224 C215 1.429 . S
C224 N221 1.350 . S
C224 C223 1.434 . S
C225 C226 1.369 . S
C225 C227 1.419 . S
C225 H229 0.930 . S
C226 C225 1.369 . S
C226 C235 1.429 . S
C227 C225 1.419 . S
C227 C228 1.363 . S
C227 H230 0.929 . S
C228 C227 1.363 . S
C228 C234 1.428 . S
H229 C225 0.930 . S
H230 C227 0.929 . S
S231 N232 1.613 . S
S231 N233 1.610 . S
N232 S231 1.613 . S
N232 C235 1.350 . S
N233 S231 1.610 . S
N233 C234 1.351 . S
C234 C228 1.428 . S
C234 N233 1.351 . S
C234 C235 1.434 . S
C235 C226 1.429 . S
C235 N232 1.350 . S
C235 C234 1.434 . S
C236 C237 1.369 . S
C236 C238 1.419 . S
C236 H240 0.930 . S
C237 C236 1.369 . S
C237 C246 1.429 . S
C238 C236 1.419 . S
C238 C239 1.363 . S
C238 H241 0.929 . S
C239 C238 1.363 . S
C239 C245 1.428 . S
H240 C236 0.930 . S
H241 C238 0.929 . S
S242 N243 1.613 . S
S242 N244 1.610 . S
N243 S242 1.613 . S
N243 C246 1.350 . S
N244 S242 1.610 . S
N244 C245 1.351 . S
C245 C239 1.428 . S
C245 N244 1.351 . S
C245 C246 1.434 . S
C246 C237 1.429 . S
C246 N243 1.350 . S
C246 C245 1.434 . S
C247 C248 1.369 . S
C247 C249 1.419 . S
C247 H251 0.930 1_556 S
C248 C247 1.369 . S
C248 C257 1.429 . S
C249 C247 1.419 . S
C249 C250 1.363 . S
C249 H252 0.929 . S
C250 C249 1.363 . S
C250 C256 1.428 . S
H251 C247 0.930 1_554 S
H252 C249 0.929 . S
S253 N254 1.613 . S
S253 N255 1.610 1_655 S
N254 S253 1.613 . S
N254 C257 1.350 1_655 S
N255 S253 1.610 1_455 S
N255 C256 1.351 . S
C256 C250 1.428 . S
C256 N255 1.351 . S
C256 C257 1.434 . S
C257 C248 1.429 . S
C257 N254 1.350 1_455 S
C257 C256 1.434 . S
C258 C259 1.369 . S
C258 C260 1.419 . S
C258 H262 0.930 . S
C259 C258 1.369 . S
C259 C268 1.429 . S
C260 C258 1.419 . S
C260 C261 1.363 . S
C260 H263 0.929 . S
C261 C260 1.363 . S
C261 C267 1.428 . S
H262 C258 0.930 . S
H263 C260 0.929 . S
S264 N265 1.613 . S
S264 N266 1.610 . S
N265 S264 1.613 . S
N265 C268 1.350 . S
N266 S264 1.610 . S
N266 C267 1.351 . S
C267 C261 1.428 . S
C267 N266 1.351 . S
C267 C268 1.434 . S
C268 C259 1.429 . S
C268 N265 1.350 . S
C268 C267 1.434 . S
C269 C270 1.369 1_655 S
C269 C271 1.419 . S
C269 H273 0.930 . S
C270 C269 1.369 1_455 S
C270 C279 1.429 . S
C271 C269 1.419 . S
C271 C272 1.363 . S
C271 H274 0.929 . S
C272 C271 1.363 . S
C272 C278 1.428 . S
H273 C269 0.930 . S
H274 C271 0.929 . S
S275 N276 1.613 . S
S275 N277 1.610 1_455 S
N276 S275 1.613 . S
N276 C279 1.350 . S
N277 S275 1.610 1_655 S
N277 C278 1.351 . S
C278 C272 1.428 . S
C278 N277 1.351 . S
C278 C279 1.434 1_655 S
C279 C270 1.429 . S
C279 N276 1.350 . S
C279 C278 1.434 1_455 S
C280 C281 1.396 . S
C280 C282 1.403 1_545 S
C280 H284 0.918 1_545 S
C281 C280 1.396 . S
C281 C290 1.429 . S
C282 C280 1.403 1_565 S
C282 C283 1.363 . S
C282 H285 0.929 . S
C283 C282 1.363 . S
C283 C289 1.428 1_565 S
H284 C280 0.918 1_565 S
H285 C282 0.929 . S
S286 N287 1.613 . S
S286 N288 1.610 . S
N287 S286 1.613 . S
N287 C290 1.350 . S
N288 S286 1.610 . S
N288 C289 1.351 . S
C289 C283 1.428 1_545 S
C289 N288 1.351 . S
C289 C290 1.434 . S
C290 C281 1.429 . S
C290 N287 1.350 . S
C290 C289 1.434 . S
C291 C292 1.369 . S
C291 C293 1.419 . S
C291 H295 0.930 . S
C292 C291 1.369 . S
C292 C301 1.429 . S
C293 C291 1.419 . S
C293 C294 1.363 . S
C293 H296 0.929 . S
C294 C293 1.363 . S
C294 C300 1.428 . S
H295 C291 0.930 . S
H296 C293 0.929 . S
S297 N298 1.613 . S
S297 N299 1.610 . S
N298 S297 1.613 . S
N298 C301 1.350 . S
N299 S297 1.610 . S
N299 C300 1.351 . S
C300 C294 1.428 . S
C300 N299 1.351 . S
C300 C301 1.434 . S
C301 C292 1.429 . S
C301 N298 1.350 . S
C301 C300 1.434 . S
C302 C303 1.369 1_545 S
C302 C304 1.419 . S
C302 H306 0.930 . S
C303 C302 1.369 1_565 S
C303 C312 1.429 1_565 S
C304 C302 1.419 . S
C304 C305 1.363 . S
C304 H307 0.929 . S
C305 C304 1.363 . S
C305 C311 1.428 . S
H306 C302 0.930 . S
H307 C304 0.929 . S
S308 N309 1.613 . S
S308 N310 1.610 . S
N309 S308 1.613 . S
N309 C312 1.350 . S
N310 S308 1.610 . S
N310 C311 1.351 . S
C311 C305 1.428 . S
C311 N310 1.351 . S
C311 C312 1.434 . S
C312 C303 1.429 1_545 S
C312 N309 1.350 . S
C312 C311 1.434 . S
C313 C314 1.369 . S
C313 C315 1.419 . S
C313 H317 0.930 . S
C314 C313 1.369 . S
C314 C323 1.429 . S
C315 C313 1.419 . S
C315 C316 1.363 . S
C315 H318 0.929 . S
C316 C315 1.363 . S
C316 C322 1.428 . S
H317 C313 0.930 . S
H318 C315 0.929 . S
S319 N320 1.613 . S
S319 N321 1.610 . S
N320 S319 1.613 . S
N320 C323 1.350 . S
N321 S319 1.610 . S
N321 C322 1.351 . S
C322 C316 1.428 . S
C322 N321 1.351 . S
C322 C323 1.434 . S
C323 C314 1.429 . S
C323 N320 1.350 . S
C323 C322 1.434 . S
C324 C325 1.369 . S
C324 C326 1.419 . S
C324 H328 0.930 . S
C325 C324 1.369 . S
C325 C334 1.429 . S
C326 C324 1.419 . S
C326 C327 1.363 . S
C326 H329 0.929 . S
C327 C326 1.363 . S
C327 C333 1.428 . S
H328 C324 0.930 . S
H329 C326 0.929 . S
S330 N331 1.613 . S
S330 N332 1.610 . S
N331 S330 1.613 . S
N331 C334 1.350 . S
N332 S330 1.610 . S
N332 C333 1.351 . S
C333 C327 1.428 . S
C333 N332 1.351 . S
C333 C334 1.434 . S
C334 C325 1.429 . S
C334 N331 1.350 . S
C334 C333 1.434 . S
C335 C336 1.369 1_655 S
C335 C337 1.419 . S
C335 H339 0.930 . S
C336 C335 1.369 1_455 S
C336 C345 1.426 1_455 S
C337 C335 1.419 . S
C337 C338 1.363 . S
C337 H340 0.929 . S
C338 C337 1.363 . S
C338 C344 1.428 . S
H339 C335 0.930 . S
H340 C337 0.929 . S
S341 N342 1.613 . S
S341 N343 1.610 1_455 S
N342 S341 1.613 . S
N342 C345 1.333 1_455 S
N343 S341 1.610 1_655 S
N343 C344 1.351 . S
C344 C338 1.428 . S
C344 N343 1.351 . S
C344 C345 1.455 . S
C345 C336 1.426 1_655 S
C345 N342 1.333 1_655 S
C345 C344 1.455 . S
C346 C347 1.369 . S
C346 C348 1.419 . S
C346 H350 0.930 . S
C347 C346 1.369 . S
C347 C356 1.429 . S
C348 C346 1.419 . S
C348 C349 1.363 . S
C348 H351 0.929 . S
C349 C348 1.363 . S
C349 C355 1.428 . S
H350 C346 0.930 . S
H351 C348 0.929 . S
S352 N353 1.613 . S
S352 N354 1.610 . S
N353 S352 1.613 . S
N353 C356 1.350 . S
N354 S352 1.610 . S
N354 C355 1.351 . S
C355 C349 1.428 . S
C355 N354 1.351 . S
C355 C356 1.434 . S
C356 C347 1.429 . S
C356 N353 1.350 . S
C356 C355 1.434 . S
C357 C358 1.361 1_455 S
C357 C359 1.419 . S
C357 H361 0.930 . S
C358 C357 1.361 1_655 S
C358 C367 1.428 1_655 S
C359 C357 1.419 . S
C359 C360 1.363 . S
C359 H362 0.929 . S
C360 C359 1.363 . S
C360 C366 1.428 . S
H361 C357 0.930 . S
H362 C359 0.929 . S
S363 N364 1.613 . S
S363 N365 1.610 1_655 S
N364 S363 1.613 . S
N364 C367 1.350 1_655 S
N365 S363 1.610 1_455 S
N365 C366 1.351 . S
C366 C360 1.428 . S
C366 N365 1.351 . S
C366 C367 1.434 . S
C367 C358 1.428 1_455 S
C367 N364 1.350 1_455 S
C367 C366 1.434 . S
C368 C369 1.369 . S
C368 C370 1.419 . S
C368 H372 0.930 . S
C369 C368 1.369 . S
C369 C378 1.429 . S
C370 C368 1.419 . S
C370 C371 1.363 . S
C370 H373 0.929 . S
C371 C370 1.363 . S
C371 C377 1.428 . S
H372 C368 0.930 . S
H373 C370 0.929 . S
S374 N375 1.613 . S
S374 N376 1.610 . S
N375 S374 1.613 . S
N375 C378 1.350 . S
N376 S374 1.610 . S
N376 C377 1.351 . S
C377 C371 1.428 . S
C377 N376 1.351 . S
C377 C378 1.434 . S
C378 C369 1.429 . S
C378 N375 1.350 . S
C378 C377 1.434 . S
C379 C380 1.369 . S
C379 C381 1.419 . S
C379 H383 0.930 . S
C380 C379 1.369 . S
C380 C389 1.429 . S
C381 C379 1.419 . S
C381 C382 1.363 . S
C381 H384 0.929 . S
C382 C381 1.363 . S
C382 C388 1.428 . S
H383 C379 0.930 . S
H384 C381 0.929 . S
S385 N386 1.613 . S
S385 N387 1.610 . S
N386 S385 1.613 . S
N386 C389 1.350 . S
N387 S385 1.610 . S
N387 C388 1.351 . S
C388 C382 1.428 . S
C388 N387 1.351 . S
C388 C389 1.434 . S
C389 C380 1.429 . S
C389 N386 1.350 . S
C389 C388 1.434 . S
C390 C391 1.369 . S
C390 C392 1.419 . S
C390 H394 0.930 . S
C391 C390 1.369 . S
C391 C400 1.429 . S
C392 C390 1.419 . S
C392 C393 1.363 . S
C392 H395 0.929 . S
C393 C392 1.363 . S
C393 C399 1.428 . S
H394 C390 0.930 . S
H395 C392 0.929 . S
S396 N397 1.613 . S
S396 N398 1.610 . S
N397 S396 1.613 . S
N397 C400 1.350 . S
N398 S396 1.610 . S
N398 C399 1.351 . S
C399 C393 1.428 . S
C399 N398 1.351 . S
C399 C400 1.434 . S
C400 C391 1.429 . S
C400 N397 1.350 . S
C400 C399 1.434 . S
C401 C402 1.369 . S
C401 C403 1.419 . S
C401 H405 0.930 . S
C402 C401 1.369 . S
C402 C411 1.429 . S
C403 C401 1.419 . S
C403 C404 1.363 . S
C403 H406 0.929 . S
C404 C403 1.363 . S
C404 C410 1.428 . S
H405 C401 0.930 . S
H406 C403 0.929 . S
S407 N408 1.613 . S
S407 N409 1.610 . S
N408 S407 1.613 . S
N408 C411 1.350 . S
N409 S407 1.610 . S
N409 C410 1.351 . S
C410 C404 1.428 . S
C410 N409 1.351 . S
C410 C411 1.434 . S
C411 C402 1.429 . S
C411 N408 1.350 . S
C411 C410 1.434 . S
C412 C413 1.369 . S
C412 C414 1.419 . S
C412 H416 0.930 . S
C413 C412 1.369 . S
C413 C422 1.429 . S
C414 C412 1.419 . S
C414 C415 1.363 . S
C414 H417 0.929 . S
C415 C414 1.363 . S
C415 C421 1.428 . S
H416 C412 0.930 . S
H417 C414 0.929 . S
S418 N419 1.613 . S
S418 N420 1.610 . S
N419 S418 1.613 . S
N419 C422 1.350 . S
N420 S418 1.610 . S
N420 C421 1.351 . S
C421 C415 1.428 . S
C421 N420 1.351 . S
C421 C422 1.434 . S
C422 C413 1.429 . S
C422 N419 1.350 . S
C422 C421 1.434 . S
C423 C424 1.369 . S
C423 C425 1.419 . S
C423 H427 0.930 . S
C424 C423 1.369 . S
C424 C433 1.429 . S
C425 C423 1.419 . S
C425 C426 1.363 . S
C425 H428 0.929 . S
C426 C425 1.363 . S
C426 C432 1.428 . S
H427 C423 0.930 . S
H428 C425 0.929 . S
S429 N430 1.613 . S
S429 N431 1.610 1_554 S
N430 S429 1.613 . S
N430 C433 1.350 1_554 S
N431 S429 1.610 1_556 S
N431 C432 1.351 . S
C432 C426 1.428 . S
C432 N431 1.351 . S
C432 C433 1.434 . S
C433 C424 1.429 . S
C433 N430 1.350 1_556 S
C433 C432 1.434 . S
C434 C435 1.369 . S
C434 C436 1.419 . S
C434 H438 0.930 . S
C435 C434 1.369 . S
C435 C444 1.429 . S
C436 C434 1.419 . S
C436 C437 1.363 . S
C436 H439 0.929 . S
C437 C436 1.363 . S
C437 C443 1.428 . S
H438 C434 0.930 . S
H439 C436 0.929 . S
S440 N441 1.613 . S
S440 N442 1.610 . S
N441 S440 1.613 . S
N441 C444 1.350 . S
N442 S440 1.610 . S
N442 C443 1.351 . S
C443 C437 1.428 . S
C443 N442 1.351 . S
C443 C444 1.434 . S
C444 C435 1.429 . S
C444 N441 1.350 . S
C444 C443 1.434 . S
C445 C446 1.369 . S
C445 C447 1.419 . S
C445 H449 0.930 . S
C446 C445 1.369 . S
C446 C455 1.429 . S
C447 C445 1.419 . S
C447 C448 1.363 . S
C447 H450 0.929 . S
C448 C447 1.363 . S
C448 C454 1.428 . S
H449 C445 0.930 . S
H450 C447 0.929 . S
S451 N452 1.613 . S
S451 N453 1.610 . S
N452 S451 1.613 . S
N452 C455 1.350 . S
N453 S451 1.610 . S
N453 C454 1.351 . S
C454 C448 1.428 . S
C454 N453 1.351 . S
C454 C455 1.434 . S
C455 C446 1.429 . S
C455 N452 1.350 . S
C455 C454 1.434 . S
C193 C7 1.414 . S
C195 C96 1.356 . S
C204 C37 1.280 . S
C206 C109 1.258 . S
C215 C54 1.465 1_565 S
C217 C123 1.417 . S
C228 C136 1.403 . S
C226 C87 1.441 . S
C239 C148 1.307 . S
C237 C30 1.325 . S
C248 C51 1.515 1_455 S
C250 C162 1.434 . S
C259 C84 1.352 . S
C261 C174 1.294 . S
C270 C10 1.423 . S
C272 C188 1.383 . S
C281 C59 1.388 . S
C283 C187 1.331 . S
C294 C149 1.395 . S
C292 C74 1.486 . S
C305 C161 1.336 . S
C303 C18 1.339 . S
C314 C32 1.425 . S
C316 C175 1.388 . S
C327 C110 1.457 . S
C325 C73 1.490 . S
C336 C15 1.310 . S
C338 C122 1.286 . S
C349 C135 1.356 . S
C347 C43 1.416 . S
C360 C97 1.384 . S
C358 C62 1.430 . S
C371 C170 1.341 . S
C369 C21 1.391 . S
C382 C183 1.311 . S
C380 C29 1.421 . S
C391 C52 1.473 . S
C393 C144 1.409 . S
C404 C157 1.489 . S
C402 C81 1.499 . S
C415 C118 1.386 . S
C413 C40 1.423 . S
C424 C65 1.455 . S
C426 C131 1.354 . S
C437 C92 1.385 . S
C435 C76 1.448 . S
C448 C105 1.331 . S
C446 C8 1.418 . S
