# Generated by pormake.
# Topology nom, (4,4)-cn, num edge types: 1
# Building blocks:
#     Node 0, Type 0, BuildingBlock: AZAVOO_clean_linker_0, # of connection points: 4
#     Node 1, Type 0, BuildingBlock: AZAVOO_clean_linker_0, # of connection points: 4
#     Node 2, Type 0, BuildingBlock: AZAVOO_clean_linker_0, # of connection points: 4
#     Node 3, Type 0, BuildingBlock: AZAVOO_clean_linker_0, # of connection points: 4
#     Node 4, Type 0, BuildingBlock: AZAVOO_clean_linker_0, # of connection points: 4
#     Node 5, Type 0, BuildingBlock: AZAVOO_clean_linker_0, # of connection points: 4
#     Node 6, Type 1, BuildingBlock: KUFVIS_clean_sbu_0, # of connection points: 4
#     Node 7, Type 1, BuildingBlock: KUFVIS_clean_sbu_0, # of connection points: 4
#     Node 8, Type 1, BuildingBlock: KUFVIS_clean_sbu_0, # of connection points: 4
#     Node 9, Type 1, BuildingBlock: KUFVIS_clean_sbu_0, # of connection points: 4
#     Node 10, Type 1, BuildingBlock: KUFVIS_clean_sbu_0, # of connection points: 4
#     Node 11, Type 1, BuildingBlock: KUFVIS_clean_sbu_0, # of connection points: 4
#     Edge 12, Type (0, 1), None
#     Edge 13, Type (0, 1), None
#     Edge 14, Type (0, 1), None
#     Edge 15, Type (0, 1), None
#     Edge 16, Type (0, 1), None
#     Edge 17, Type (0, 1), None
#     Edge 18, Type (0, 1), None
#     Edge 19, Type (0, 1), None
#     Edge 20, Type (0, 1), None
#     Edge 21, Type (0, 1), None
#     Edge 22, Type (0, 1), None
#     Edge 23, Type (0, 1), None
#     Edge 24, Type (0, 1), None
#     Edge 25, Type (0, 1), None
#     Edge 26, Type (0, 1), None
#     Edge 27, Type (0, 1), None
#     Edge 28, Type (0, 1), None
#     Edge 29, Type (0, 1), None
#     Edge 30, Type (0, 1), None
#     Edge 31, Type (0, 1), None
#     Edge 32, Type (0, 1), None
#     Edge 33, Type (0, 1), None
#     Edge 34, Type (0, 1), None
#     Edge 35, Type (0, 1), None
# Relax obj value: 0.188
# Max RMSD: 0.232
# Mean RMSD: 0.148
data_MOF--net-nom--node1-KUFVIS_clean_sbu_0--node2-AZAVOO_clean_linker_0--edge1-none
_symmetry_space_group_name_H-M    P1
_symmetry_Int_Tables_number       1
_symmetry_cell_setting            triclinic
loop_
_symmetry_equiv_pos_as_xyz
'x, y, z'
_cell_length_a     25.606873
_cell_length_b     27.139039
_cell_length_c     31.491966
_cell_angle_alpha  90.987148
_cell_angle_beta   91.045502
_cell_angle_gamma 121.85087
loop_
_atom_site_label
_atom_site_type_symbol
_atom_site_fract_x
_atom_site_fract_y
_atom_site_fract_z
_atom_type_partial_charge
H0 H 0.24025 0.64735 0.02587 0.0
H1 H 0.36974 0.89233 0.43587 0.0
H2 H 0.99267 0.43434 0.23711 0.0
H3 H 0.9441 0.38686 0.16849 0.0
H4 H 0.94103 0.53755 0.13283 0.0
H5 H 0.97556 0.57848 0.20419 0.0
H6 H 0.15367 0.54077 0.19008 0.0
H7 H 0.1979 0.57622 0.1207 0.0
H8 H 0.11342 0.67775 0.11568 0.0
H9 H 0.07834 0.65 0.18777 0.0
H10 H 0.2316 0.58404 0.27096 0.0
H11 H 0.3407 0.64107 0.2529 0.0
H12 H 0.31453 0.77517 0.20536 0.0
H13 H 0.2073 0.72044 0.22667 0.0
H14 H 0.2479 0.62997 0.34321 0.0
H15 H 0.33272 0.71181 0.38342 0.0
H16 H 0.23389 0.80082 0.38048 0.0
H17 H 0.14995 0.71923 0.33945 0.0
H18 H 0.13756 0.52652 0.3544 0.0
H19 H 0.20415 0.55721 0.41698 0.0
H20 H 0.10957 0.6331 0.47186 0.0
H21 H 0.05538 0.61858 0.40297 0.0
H22 H 0.92089 0.44416 0.30793 0.0
H23 H 0.82445 0.4293 0.33653 0.0
H24 H 0.91403 0.61461 0.35898 0.0
H25 H 0.00792 0.62851 0.33098 0.0
O26 O 0.22175 0.63357 0.05307 0.0
O27 O 0.17154 0.67984 0.04976 0.0
O28 O 0.39055 0.81606 0.4147 0.0
O29 O 0.33623 0.85804 0.42146 0.0
C30 C 0.03997 0.54912 0.25657 0.0
C31 C 0.09956 0.58356 0.23988 0.0
C32 C 0.15025 0.6184 0.26727 0.0
C33 C 0.14258 0.62172 0.31069 0.0
C34 C 0.08558 0.58311 0.32847 0.0
C35 C 0.03216 0.55015 0.30144 0.0
C36 C 0.98925 0.51094 0.22558 0.0
C37 C 0.97879 0.45585 0.21504 0.0
C38 C 0.95484 0.43008 0.17461 0.0
C39 C 0.94595 0.46069 0.14272 0.0
C40 C 0.9507 0.5133 0.15519 0.0
C41 C 0.96937 0.53661 0.19657 0.0
C42 C 0.11007 0.59052 0.19338 0.0
C43 C 0.14322 0.56933 0.17348 0.0
C44 C 0.16821 0.58937 0.13376 0.0
C45 C 0.15692 0.62762 0.11184 0.0
C46 C 0.12183 0.64717 0.1312 0.0
C47 C 0.10032 0.63017 0.17205 0.0
C48 C 0.21276 0.64922 0.25095 0.0
C49 C 0.24972 0.62571 0.25647 0.0
C50 C 0.31129 0.65767 0.2459 0.0
C51 C 0.33492 0.71174 0.2277 0.0
C52 C 0.29648 0.73298 0.21899 0.0
C53 C 0.23574 0.70224 0.23129 0.0
C54 C 0.19323 0.66915 0.33758 0.0
C55 C 0.24491 0.66742 0.35073 0.0
C56 C 0.29317 0.71408 0.374 0.0
C57 C 0.29029 0.76308 0.38476 0.0
C58 C 0.23768 0.76387 0.37256 0.0
C59 C 0.18966 0.71733 0.34913 0.0
C60 C 0.09001 0.56915 0.37354 0.0
C61 C 0.12815 0.54704 0.38049 0.0
C62 C 0.16591 0.5634 0.41696 0.0
C63 C 0.15848 0.59217 0.45122 0.0
C64 C 0.1149 0.6087 0.44657 0.0
C65 C 0.0822 0.59878 0.40758 0.0
C66 C 0.97219 0.53741 0.31802 0.0
C67 C 0.91933 0.48131 0.31909 0.0
C68 C 0.86418 0.47295 0.33531 0.0
C69 C 0.86104 0.52066 0.35037 0.0
C70 C 0.91407 0.57651 0.34821 0.0
C71 C 0.96835 0.58465 0.33224 0.0
C72 C 0.1836 0.64859 0.06966 0.0
C73 C 0.34211 0.81374 0.40804 0.0
H74 H 0.534 0.10041 0.18484 0.0
H75 H 0.73647 0.3801 0.62687 0.0
H76 H 0.58776 0.96375 0.42051 0.0
H77 H 0.58331 0.90779 0.35726 0.0
H78 H 0.4348 0.92032 0.30532 0.0
H79 H 0.42506 0.95716 0.37328 0.0
H80 H 0.60234 0.06884 0.35594 0.0
H81 H 0.58865 0.08197 0.28042 0.0
H82 H 0.43429 0.098 0.31051 0.0
H83 H 0.4476 0.08352 0.38551 0.0
H84 H 0.65126 0.18235 0.39859 0.0
H85 H 0.68625 0.28199 0.37753 0.0
H86 H 0.5423 0.27734 0.44945 0.0
H87 H 0.50642 0.17758 0.46961 0.0
H88 H 0.68681 0.16413 0.49551 0.0
H89 H 0.75791 0.25158 0.53783 0.0
H90 H 0.60355 0.25176 0.59075 0.0
H91 H 0.5325 0.16157 0.55039 0.0
H92 H 0.64584 0.07481 0.54652 0.0
H93 H 0.67777 0.12988 0.61241 0.0
H94 H 0.4908 0.0528 0.64878 0.0
H95 H 0.45868 0.01697 0.57504 0.0
H96 H 0.54409 0.91222 0.47742 0.0
H97 H 0.47939 0.80943 0.49432 0.0
H98 H 0.34297 0.84073 0.54276 0.0
H99 H 0.40441 0.94191 0.52137 0.0
O100 O 0.53885 0.09591 0.21481 0.0
O101 O 0.46157 0.10677 0.23205 0.0
O102 O 0.78435 0.32982 0.59547 0.0
O103 O 0.70905 0.34438 0.61093 0.0
C104 C 0.51524 0.00814 0.43561 0.0
C105 C 0.53228 0.06451 0.42147 0.0
C106 C 0.55556 0.112 0.45042 0.0
C107 C 0.56294 0.10346 0.49349 0.0
C108 C 0.53887 0.04633 0.50907 0.0
C109 C 0.51302 0.99733 0.48016 0.0
C110 C 0.50568 0.96385 0.40251 0.0
C111 C 0.55131 0.95055 0.39679 0.0
C112 C 0.55289 0.92343 0.35898 0.0
C113 C 0.51552 0.91726 0.32386 0.0
C114 C 0.46742 0.9273 0.33063 0.0
C115 C 0.46099 0.94775 0.36996 0.0
C116 C 0.52573 0.07469 0.37596 0.0
C117 C 0.56579 0.07527 0.34599 0.0
C118 C 0.5579 0.08283 0.30306 0.0
C119 C 0.51048 0.091 0.28949 0.0
C120 C 0.47121 0.09167 0.31985 0.0
C121 C 0.47877 0.08353 0.36269 0.0
C122 C 0.57583 0.172 0.4356 0.0
C123 C 0.62648 0.20232 0.40922 0.0
C124 C 0.64653 0.25924 0.39721 0.0
C125 C 0.61674 0.28715 0.41172 0.0
C126 C 0.56599 0.25679 0.43778 0.0
C127 C 0.54556 0.19981 0.44937 0.0
C128 C 0.60456 0.15606 0.52044 0.0
C129 C 0.6684 0.18259 0.51685 0.0
C130 C 0.70891 0.23251 0.54104 0.0
C131 C 0.68636 0.25826 0.56811 0.0
C132 C 0.62229 0.23237 0.57083 0.0
C133 C 0.58163 0.18106 0.54771 0.0
C134 C 0.54972 0.04185 0.55514 0.0
C135 C 0.61104 0.06711 0.5691 0.0
C136 C 0.63016 0.09661 0.60833 0.0
C137 C 0.58803 0.09059 0.63862 0.0
C138 C 0.52496 0.05678 0.62698 0.0
C139 C 0.50613 0.03466 0.58499 0.0
C140 C 0.47888 0.93574 0.49625 0.0
C141 C 0.49956 0.89715 0.49025 0.0
C142 C 0.46284 0.83811 0.50081 0.0
C143 C 0.40559 0.81639 0.51971 0.0
C144 C 0.3868 0.85575 0.52836 0.0
C145 C 0.42239 0.9141 0.51635 0.0
C146 C 0.50199 0.09845 0.24379 0.0
C147 C 0.72965 0.31278 0.59244 0.0
H148 H 0.45642 0.34668 0.89858 0.0
H149 H 0.72094 0.33509 0.48855 0.0
H150 H 0.58688 0.5974 0.6945 0.0
H151 H 0.59281 0.62649 0.76928 0.0
H152 H 0.4033 0.48893 0.78211 0.0
H153 H 0.39725 0.4612 0.70708 0.0
H154 H 0.57542 0.48569 0.75057 0.0
H155 H 0.5423 0.43802 0.81849 0.0
H156 H 0.36859 0.30704 0.75938 0.0
H157 H 0.40348 0.35353 0.69105 0.0
H158 H 0.63268 0.45521 0.70561 0.0
H159 H 0.66941 0.39141 0.72599 0.0
H160 H 0.53525 0.25782 0.63917 0.0
H161 H 0.49659 0.32072 0.6202 0.0
H162 H 0.68231 0.50545 0.62049 0.0
H163 H 0.75058 0.48196 0.58442 0.0
H164 H 0.59685 0.35282 0.50601 0.0
H165 H 0.52915 0.37844 0.54119 0.0
H166 H 0.65847 0.57366 0.5742 0.0
H167 H 0.69938 0.5499 0.51428 0.0
H168 H 0.52343 0.46679 0.44901 0.0
H169 H 0.47769 0.46895 0.51577 0.0
H170 H 0.5255 0.62283 0.62615 0.0
H171 H 0.45218 0.65076 0.60192 0.0
H172 H 0.33272 0.47676 0.54929 0.0
H173 H 0.40431 0.45036 0.57331 0.0
O174 O 0.46913 0.36395 0.87113 0.0
O175 O 0.38053 0.29782 0.8391 0.0
O176 O 0.77558 0.43183 0.52477 0.0
O177 O 0.69529 0.3469 0.50183 0.0
C178 C 0.4998 0.4934 0.66136 0.0
C179 C 0.51195 0.45045 0.6743 0.0
C180 C 0.54217 0.43254 0.64739 0.0
C181 C 0.55983 0.45694 0.60736 0.0
C182 C 0.54203 0.49552 0.59229 0.0
C183 C 0.5092 0.51216 0.61894 0.0
C184 C 0.4918 0.52668 0.69548 0.0
C185 C 0.5456 0.57562 0.71283 0.0
C186 C 0.54948 0.59132 0.7558 0.0
C187 C 0.49964 0.55791 0.78181 0.0
C188 C 0.44332 0.51388 0.76302 0.0
C189 C 0.43914 0.49898 0.7199 0.0
C190 C 0.49184 0.42291 0.71599 0.0
C191 C 0.53039 0.44654 0.75234 0.0
C192 C 0.51111 0.41955 0.79122 0.0
C193 C 0.45247 0.36923 0.79461 0.0
C194 C 0.41395 0.34585 0.75797 0.0
C195 C 0.4337 0.37229 0.71895 0.0
C196 C 0.56091 0.39208 0.66223 0.0
C197 C 0.61018 0.4117 0.69176 0.0
C198 C 0.63183 0.37579 0.70277 0.0
C199 C 0.60592 0.32061 0.68329 0.0
C200 C 0.55689 0.30096 0.65364 0.0
C201 C 0.53423 0.33634 0.64337 0.0
C202 C 0.60098 0.4442 0.58302 0.0
C203 C 0.66361 0.47268 0.59505 0.0
C204 C 0.70248 0.45921 0.57445 0.0
C205 C 0.67902 0.41552 0.54237 0.0
C206 C 0.61616 0.38669 0.53057 0.0
C207 C 0.5775 0.40133 0.55047 0.0
C208 C 0.56466 0.52129 0.55033 0.0
C209 C 0.62872 0.55283 0.54631 0.0
C210 C 0.65353 0.54161 0.51111 0.0
C211 C 0.61689 0.51162 0.4752 0.0
C212 C 0.55361 0.49121 0.47596 0.0
C213 C 0.52724 0.49403 0.51384 0.0
C214 C 0.47118 0.53455 0.60084 0.0
C215 C 0.48378 0.59126 0.60874 0.0
C216 C 0.4416 0.60714 0.59506 0.0
C217 C 0.38561 0.56627 0.5738 0.0
C218 C 0.37454 0.51006 0.5657 0.0
C219 C 0.41616 0.49464 0.57906 0.0
C220 C 0.43169 0.34135 0.83618 0.0
C221 C 0.71971 0.39898 0.52227 0.0
H222 H 0.26603 0.51328 0.04683 0.0
H223 H 0.44988 0.62255 0.6876 0.0
H224 H 0.99285 0.51855 0.87331 0.0
H225 H 0.94636 0.48752 0.94258 0.0
H226 H 0.93071 0.32259 0.92183 0.0
H227 H 0.97392 0.3527 0.85123 0.0
H228 H 0.14469 0.56612 0.91233 0.0
H229 H 0.19158 0.55754 0.97801 0.0
H230 H 0.12522 0.37869 0.94371 0.0
H231 H 0.08074 0.38834 0.87769 0.0
H232 H 0.24644 0.61782 0.8481 0.0
H233 H 0.3453 0.63594 0.87594 0.0
H234 H 0.27996 0.45373 0.8581 0.0
H235 H 0.18214 0.43642 0.82879 0.0
H236 H 0.21806 0.63828 0.76128 0.0
H237 H 0.31876 0.6857 0.7286 0.0
H238 H 0.29679 0.51812 0.70567 0.0
H239 H 0.19562 0.47122 0.73756 0.0
H240 H 0.10567 0.59582 0.71554 0.0
H241 H 0.15849 0.62464 0.64794 0.0
H242 H 0.11845 0.45013 0.62733 0.0
H243 H 0.06937 0.42304 0.69504 0.0
H244 H 0.9235 0.46944 0.78122 0.0
H245 H 0.81938 0.38622 0.76307 0.0
H246 H 0.89852 0.28535 0.72701 0.0
H247 H 0.99992 0.36682 0.74593 0.0
O248 O 0.24197 0.51409 0.0231 0.0
O249 O 0.19048 0.41821 0.01282 0.0
O250 O 0.40709 0.68557 0.69053 0.0
O251 O 0.4074 0.60405 0.69554 0.0
C252 C 0.03858 0.46563 0.82753 0.0
C253 C 0.09789 0.4879 0.84554 0.0
C254 C 0.14889 0.51458 0.8197 0.0
C255 C 0.14284 0.52346 0.77673 0.0
C256 C 0.08373 0.50007 0.75752 0.0
C257 C 0.03061 0.46808 0.78281 0.0
C258 C 0.98681 0.43796 0.85708 0.0
C259 C 0.97613 0.4745 0.88257 0.0
C260 C 0.95089 0.45719 0.92257 0.0
C261 C 0.93724 0.40355 0.93811 0.0
C262 C 0.94245 0.36481 0.91099 0.0
C263 C 0.96574 0.38143 0.8703 0.0
C264 C 0.10809 0.47755 0.89051 0.0
C265 C 0.13835 0.52453 0.91982 0.0
C266 C 0.16585 0.51974 0.95702 0.0
C267 C 0.16299 0.46772 0.9657 0.0
C268 C 0.12844 0.41942 0.93793 0.0
C269 C 0.10185 0.42451 0.90049 0.0
C270 C 0.20812 0.52608 0.83659 0.0
C271 C 0.25382 0.58212 0.8502 0.0
C272 C 0.30953 0.59211 0.86622 0.0
C273 C 0.31913 0.54586 0.86923 0.0
C274 C 0.2727 0.48955 0.85652 0.0
C275 C 0.21754 0.47985 0.83961 0.0
C276 C 0.19938 0.55137 0.75128 0.0
C277 C 0.23446 0.61187 0.74821 0.0
C278 C 0.292 0.63879 0.72972 0.0
C279 C 0.31587 0.60562 0.71486 0.0
C280 C 0.2798 0.54486 0.71701 0.0
C281 C 0.22191 0.51796 0.73492 0.0
C282 C 0.08211 0.50668 0.71057 0.0
C283 C 0.10532 0.56294 0.69532 0.0
C284 C 0.13723 0.57995 0.65715 0.0
C285 C 0.14467 0.54038 0.63267 0.0
C286 C 0.11465 0.48232 0.64546 0.0
C287 C 0.08431 0.46586 0.68395 0.0
C288 C 0.96975 0.42508 0.76319 0.0
C289 C 0.91805 0.4298 0.76805 0.0
C290 C 0.85862 0.38202 0.75817 0.0
C291 C 0.85021 0.32869 0.74394 0.0
C292 C 0.90261 0.32531 0.73802 0.0
C293 C 0.96127 0.37258 0.74782 0.0
C294 C 0.19895 0.4649 0.00204 0.0
C295 C 0.37931 0.63425 0.69919 0.0
H296 H 0.31376 0.90983 0.73412 0.0
H297 H 0.47199 0.66902 0.10797 0.0
H298 H 0.52572 0.09342 0.90237 0.0
H299 H 0.56608 0.14191 0.83539 0.0
H300 H 0.71324 0.10847 0.84586 0.0
H301 H 0.67278 0.06061 0.91271 0.0
H302 H 0.3985 0.94252 0.91211 0.0
H303 H 0.3466 0.92504 0.84249 0.0
H304 H 0.5131 0.96235 0.78175 0.0
H305 H 0.56433 0.97938 0.85114 0.0
H306 H 0.40386 0.81265 0.96085 0.0
H307 H 0.40652 0.72626 0.93996 0.0
H308 H 0.57616 0.83462 0.87573 0.0
H309 H 0.57667 0.92005 0.89976 0.0
H310 H 0.42646 0.87957 0.05022 0.0
H311 H 0.39572 0.79316 0.0916 0.0
H312 H 0.55013 0.78758 0.04435 0.0
H313 H 0.58025 0.87389 0.00328 0.0
H314 H 0.51847 0.01016 0.08331 0.0
H315 H 0.53175 0.98732 0.156 0.0
H316 H 0.67424 0.95893 0.11587 0.0
H317 H 0.66015 0.98098 0.04293 0.0
H318 H 0.58424 0.13363 0.00251 0.0
H319 H 0.67066 0.23008 0.02339 0.0
H320 H 0.79261 0.16459 0.02172 0.0
H321 H 0.70576 0.06871 1.00011 0.0
O322 O 0.33505 0.9168 0.76135 0.0
O323 O 0.42244 0.93786 0.73177 0.0
O324 O 0.40388 0.70745 0.11508 0.0
O325 O 0.48437 0.70449 0.09338 0.0
C326 C 0.56301 0.02912 0.94434 0.0
C327 C 0.51574 0.97335 0.92981 0.0
C328 C 0.50149 0.92532 0.95438 0.0
C329 C 0.52228 0.93356 0.99725 0.0
C330 C 0.56482 0.98996 0.01343 0.0
C331 C 0.58739 0.03722 0.98627 0.0
C332 C 0.59639 0.0737 0.91237 0.0
C333 C 0.56802 0.09873 0.89099 0.0
C334 C 0.59085 0.12579 0.85251 0.0
C335 C 0.64201 0.12766 0.83484 0.0
C336 C 0.67319 0.10683 0.85826 0.0
C337 C 0.65075 0.08039 0.89686 0.0
C338 C 0.48553 0.9632 0.88693 0.0
C339 C 0.42377 0.94707 0.88372 0.0
C340 C 0.39423 0.9371 0.84391 0.0
C341 C 0.42589 0.94272 0.80652 0.0
C342 C 0.48758 0.95814 0.80987 0.0
C343 C 0.51703 0.96807 0.84964 0.0
C344 C 0.48973 0.8725 0.93152 0.0
C345 C 0.4405 0.81737 0.9413 0.0
C346 C 0.44231 0.7685 0.92965 0.0
C347 C 0.49199 0.7748 0.90679 0.0
C348 C 0.53744 0.82916 0.89318 0.0
C349 C 0.53707 0.87784 0.90631 0.0
C350 C 0.50533 0.88269 0.0237 0.0
C351 C 0.45365 0.8597 0.04906 0.0
C352 C 0.43622 0.81036 0.07259 0.0
C353 C 0.4703 0.78326 0.07109 0.0
C354 C 0.52279 0.80724 0.04617 0.0
C355 C 0.54015 0.85654 0.02272 0.0
C356 C 0.5884 0.99739 0.05792 0.0
C357 C 0.55476 0.00205 0.09056 0.0
C358 C 0.5624 0.98899 0.13199 0.0
C359 C 0.60412 0.97157 0.14128 0.0
C360 C 0.64274 0.97337 0.10958 0.0
C361 C 0.63464 0.98591 0.06794 0.0
C362 C 0.63896 0.09448 0.00065 0.0
C363 C 0.62965 0.14033 0.00696 0.0
C364 C 0.67909 0.19525 0.01873 0.0
C365 C 0.73851 0.20489 0.02426 0.0
C366 C 0.7474 0.15848 0.01801 0.0
C367 C 0.69791 0.10368 0.006 0.0
C368 C 0.39459 0.93236 0.76424 0.0
C369 C 0.45078 0.72962 0.0947 0.0
H370 H 0.7534 0.55198 0.90813 0.0
H371 H 0.71191 0.35542 0.30707 0.0
H372 H 0.53738 0.5797 0.08482 0.0
H373 H 0.49793 0.58235 0.01451 0.0
H374 H 0.68238 0.69615 0.97341 0.0
H375 H 0.72175 0.70163 0.04593 0.0
H376 H 0.63548 0.5468 0.01664 0.0
H377 H 0.69294 0.56459 0.95158 0.0
H378 H 0.86366 0.66153 0.02469 0.0
H379 H 0.80579 0.64714 0.08909 0.0
H380 H 0.62256 0.45824 0.07155 0.0
H381 H 0.65671 0.39245 0.04859 0.0
H382 H 0.81343 0.4835 0.1359 0.0
H383 H 0.78241 0.55183 0.15483 0.0
H384 H 0.56733 0.4327 0.17089 0.0
H385 H 0.56749 0.35817 0.21348 0.0
H386 H 0.74408 0.48796 0.27001 0.0
H387 H 0.74301 0.56212 0.22748 0.0
H388 H 0.54468 0.50938 0.22827 0.0
H389 H 0.56805 0.48616 0.29815 0.0
H390 H 0.74109 0.65073 0.30356 0.0
H391 H 0.71897 0.67177 0.23321 0.0
H392 H 0.52827 0.60715 0.17061 0.0
H393 H 0.50709 0.6814 0.19383 0.0
H394 H 0.69847 0.81408 0.18012 0.0
H395 H 0.71879 0.7395 0.15578 0.0
O396 O 0.79355 0.58727 0.90889 0.0
O397 O 0.87158 0.66335 0.94295 0.0
O398 O 0.61352 0.32182 0.26822 0.0
O399 O 0.70951 0.38451 0.29132 0.0
C400 C 0.65608 0.62101 0.10656 0.0
C401 C 0.68267 0.58805 0.09705 0.0
C402 C 0.68036 0.54909 0.12656 0.0
C403 C 0.65723 0.5462 0.16693 0.0
C404 C 0.63939 0.58553 0.17911 0.0
C405 C 0.6387 0.62322 0.14873 0.0
C406 C 0.63286 0.63925 0.07042 0.0
C407 C 0.56938 0.60679 0.06112 0.0
C408 C 0.54688 0.60517 0.02014 0.0
C409 C 0.58731 0.63312 0.98714 0.0
C410 C 0.65023 0.67092 0.99761 0.0
C411 C 0.67264 0.67518 0.03925 0.0
C412 C 0.71645 0.59604 0.05737 0.0
C413 C 0.68522 0.57145 0.01845 0.0
C414 C 0.71816 0.5809 0.98145 0.0
C415 C 0.78284 0.61288 0.98298 0.0
C416 C 0.81387 0.63659 0.02232 0.0
C417 C 0.78095 0.62829 0.05913 0.0
C418 C 0.70008 0.50907 0.11445 0.0
C419 C 0.6642 0.4635 0.08516 0.0
C420 C 0.68297 0.42586 0.07289 0.0
C421 C 0.73625 0.43243 0.09168 0.0
C422 C 0.77096 0.47688 0.12219 0.0
C423 C 0.75373 0.51597 0.13277 0.0
C424 C 0.65475 0.50283 0.19652 0.0
C425 C 0.60546 0.44505 0.19304 0.0
C426 C 0.60583 0.40259 0.21725 0.0
C427 C 0.65599 0.41709 0.24497 0.0
C428 C 0.70489 0.47529 0.24885 0.0
C429 C 0.7042 0.51781 0.22485 0.0
C430 C 0.63131 0.59116 0.22497 0.0
C431 C 0.58597 0.54189 0.24566 0.0
C432 C 0.60011 0.52787 0.28505 0.0
C433 C 0.65795 0.56508 0.30494 0.0
C434 C 0.69703 0.62015 0.2882 0.0
C435 C 0.68373 0.63311 0.24832 0.0
C436 C 0.62495 0.66795 0.16146 0.0
C437 C 0.56541 0.65227 0.17226 0.0
C438 C 0.55349 0.69483 0.18537 0.0
C439 C 0.60119 0.75373 0.18871 0.0
C440 C 0.66084 0.76919 0.17787 0.0
C441 C 0.67243 0.7267 0.16389 0.0
C442 C 0.81835 0.62267 0.9438 0.0
C443 C 0.65808 0.37151 0.2689 0.0
Mn444 Mn 0.67194 0.44681 0.39251 0.0
Mn445 Mn 0.76594 0.59065 0.41799 0.0
C446 C 0.64025 0.49029 0.44136 0.0
C447 C 0.64071 0.34897 0.40274 0.0
C448 C 0.67988 0.54623 0.34118 0.0
O449 O 0.75411 0.46516 0.36832 0.0
O450 O 0.80991 0.55972 0.38665 0.0
C451 C 0.84577 0.57658 0.47935 0.0
N452 N 0.81133 0.59974 0.46934 0.0
C453 C 0.83667 0.65136 0.53679 0.0
C454 C 0.87316 0.62873 0.54764 0.0
C455 C 0.87746 0.59095 0.51887 0.0
C456 C 0.80665 0.63595 0.4968 0.0
H457 H 0.84884 0.54728 0.45738 0.0
C458 C 0.80458 0.51424 0.36928 0.0
O459 O 0.62901 0.3652 0.36716 0.0
O460 O 0.6713 0.38933 0.43156 0.0
N461 N 0.73353 0.62978 0.44829 0.0
C462 C 0.69035 0.64158 0.43516 0.0
C463 C 0.67761 0.67617 0.4613 0.0
C464 C 0.70979 0.69873 0.5004 0.0
C465 C 0.75451 0.68653 0.51303 0.0
C466 C 0.76607 0.6527 0.48531 0.0
H467 H 0.66564 0.62448 0.40508 0.0
O468 O 0.60171 0.4412 0.42213 0.0
O469 O 0.69848 0.51216 0.43357 0.0
O470 O 0.65937 0.49209 0.34531 0.0
O471 O 0.72071 0.58623 0.36594 0.0
C472 C 0.78626 0.70461 0.55273 0.0
C473 C 0.82715 0.68689 0.56466 0.0
H474 H 0.89717 0.63923 0.57826 0.0
H475 H 0.90495 0.57278 0.52721 0.0
H476 H 0.643 0.68536 0.45138 0.0
H477 H 0.69916 0.72467 0.52074 0.0
H478 H 0.77829 0.73082 0.57482 0.0
H479 H 0.84997 0.69975 0.59574 0.0
Mn480 Mn 0.28468 0.65357 0.53935 0.0
Mn481 Mn 0.20678 0.50805 0.51521 0.0
C482 C 0.20229 0.61177 0.48855 0.0
C483 C 0.36389 0.75298 0.52869 0.0
C484 C 0.18366 0.55804 0.59436 0.0
O485 O 0.34527 0.62978 0.56259 0.0
O486 O 0.28798 0.53525 0.54291 0.0
C487 C 0.28943 0.5073 0.45096 0.0
N488 N 0.23199 0.49186 0.46282 0.0
C489 C 0.18656 0.4361 0.39774 0.0
C490 C 0.24521 0.45103 0.38496 0.0
C491 C 0.29687 0.48692 0.41163 0.0
C492 C 0.18188 0.457 0.43754 0.0
H493 H 0.3292 0.53485 0.4714 0.0
C494 C 0.33718 0.57879 0.55947 0.0
O495 O 0.33537 0.73576 0.56406 0.0
O496 O 0.34909 0.71225 0.50014 0.0
N497 N 0.12746 0.47435 0.48783 0.0
C498 C 0.07572 0.47054 0.50241 0.0
C499 C 0.02056 0.43947 0.47813 0.0
C500 C 0.01904 0.4122 0.4394 0.0
C501 C 0.07282 0.41644 0.42517 0.0
C502 C 0.12632 0.44753 0.4509 0.0
H503 H 0.07668 0.49135 0.53222 0.0
O504 O 0.21986 0.66075 0.50813 0.0
O505 O 0.23375 0.58809 0.49856 0.0
O506 O 0.22393 0.61156 0.58829 0.0
O507 O 0.17529 0.51715 0.56917 0.0
C508 C 0.07605 0.39311 0.38569 0.0
C509 C 0.13288 0.40297 0.37197 0.0
H510 H 0.25124 0.43594 0.35444 0.0
H511 H 0.3423 0.49892 0.40185 0.0
H512 H 0.97931 0.4366 0.48922 0.0
H513 H 0.97657 0.38887 0.42053 0.0
H514 H 0.03543 0.36883 0.36511 0.0
H515 H 0.13504 0.38606 0.34108 0.0
Mn516 Mn 0.65172 0.21547 0.71828 0.0
Mn517 Mn 0.72787 0.14472 0.71432 0.0
C518 C 0.61022 0.12932 0.67751 0.0
C519 C 0.62647 0.28188 0.69668 0.0
C520 C 0.66038 0.14801 0.79127 0.0
O521 O 0.74026 0.27943 0.73555 0.0
O522 O 0.78622 0.22821 0.72847 0.0
C523 C 0.80797 0.19925 0.6413 0.0
N524 N 0.76517 0.15073 0.66114 0.0
C525 C 0.76464 0.08874 0.60533 0.0
C526 C 0.8092 0.13805 0.58453 0.0
C527 C 0.83079 0.19352 0.60254 0.0
C528 C 0.74446 0.09704 0.64432 0.0
H529 H 0.82422 0.24198 0.65481 0.0
C530 C 0.78814 0.27579 0.73582 0.0
O531 O 0.62002 0.26533 0.73546 0.0
O532 O 0.64921 0.26116 0.6704 0.0
N533 N 0.67625 0.0639 0.69979 0.0
C534 C 0.62679 0.02203 0.72042 0.0
C535 C 0.59605 0.96442 0.70462 0.0
C536 C 0.61643 0.95058 0.66777 0.0
C537 C 0.66728 0.99454 0.64695 0.0
C538 C 0.69663 0.05102 0.66453 0.0
H539 H 0.61085 0.03271 0.74857 0.0
O540 O 0.57521 0.1458 0.69352 0.0
O541 O 0.6687 0.16233 0.68777 0.0
O542 O 0.64012 0.17702 0.77468 0.0
O543 O 0.69353 0.13371 0.77149 0.0
C544 C 0.6886 0.98489 0.60865 0.0
C545 C 0.73724 0.03195 0.58785 0.0
H546 H 0.82613 0.13389 0.55425 0.0
H547 H 0.8646 0.23178 0.58641 0.0
H548 H 0.55655 0.93079 0.72065 0.0
H549 H 0.5921 0.90621 0.65537 0.0
H550 H 0.66684 0.94166 0.59432 0.0
H551 H 0.75195 0.0242 0.55777 0.0
Mn552 Mn 0.51153 0.64909 0.89194 0.0
Mn553 Mn 0.45483 0.51159 0.91287 0.0
C554 C 0.5636 0.63175 0.9437 0.0
C555 C 0.50039 0.72633 0.90098 0.0
C556 C 0.50528 0.56805 0.82828 0.0
O557 O 0.42506 0.60412 0.86773 0.0
O558 O 0.38454 0.52184 0.90429 0.0
C559 C 0.38903 0.48709 0.99331 0.0
N560 N 0.43498 0.48976 0.97033 0.0
C561 C 0.45731 0.4413 0.02431 0.0
C562 C 0.41158 0.43967 0.04919 0.0
C563 C 0.37743 0.46287 0.03368 0.0
C564 C 0.46832 0.46791 0.98505 0.0
H565 H 0.36159 0.50344 0.98093 0.0
C566 C 0.37964 0.55794 0.88157 0.0
O567 O 0.52374 0.71995 0.86656 0.0
O568 O 0.48662 0.68962 0.93096 0.0
N569 N 0.51996 0.49773 0.92165 0.0
C570 C 0.5626 0.50309 0.89383 0.0
C571 C 0.59842 0.47931 0.90349 0.0
C572 C 0.58991 0.45022 0.9416 0.0
C573 C 0.54652 0.44626 0.97009 0.0
C574 C 0.51277 0.47144 0.959 0.0
H575 H 0.56813 0.52393 0.86398 0.0
O576 O 0.59072 0.68029 0.92375 0.0
O577 O 0.50685 0.59415 0.93117 0.0
O578 O 0.53948 0.61922 0.84355 0.0
O579 O 0.47027 0.52557 0.85139 0.0
C580 C 0.53455 0.41726 0.00867 0.0
C581 C 0.49099 0.41588 0.03623 0.0
H582 H 0.40161 0.41988 0.07994 0.0
H583 H 0.3415 0.46109 0.05243 0.0
H584 H 0.63197 0.48278 0.88137 0.0
H585 H 0.61722 0.43145 0.94878 0.0
H586 H 0.55846 0.39564 0.0173 0.0
H587 H 0.48281 0.39406 0.06608 0.0
Mn588 Mn 0.83957 0.38815 0.05317 0.0
Mn589 Mn 0.92797 0.33266 0.06254 0.0
C590 C 0.9245 0.43688 0.09811 0.0
C591 C 0.7635 0.40165 0.07468 0.0
C592 C 0.91831 0.3888 0.98249 0.0
O593 O 0.78147 0.30482 0.03572 0.0
O594 O 0.84267 0.26936 0.0461 0.0
C595 C 0.87398 0.25552 0.13531 0.0
N596 N 0.92353 0.30033 0.11672 0.0
C597 C 0.99111 0.30946 0.17455 0.0
C598 C 0.94086 0.26324 0.19427 0.0
C599 C 0.88202 0.23627 0.17461 0.0
C600 C 0.98037 0.32634 0.13522 0.0
H601 H 0.82874 0.23462 0.12023 0.0
C602 C 0.79077 0.26323 0.03602 0.0
O603 O 0.77974 0.40884 0.0354 0.0
O604 O 0.78781 0.38203 0.10052 0.0
N605 N 0.01095 0.38917 0.07893 0.0
C606 C 0.05254 0.43703 0.05805 0.0
C607 C 0.11308 0.47059 0.07438 0.0
C608 C 0.13038 0.45426 0.11166 0.0
C609 C 0.0862 0.40581 0.13327 0.0
C610 C 0.0266 0.37383 0.11537 0.0
H611 H 0.03958 0.44931 0.02913 0.0
O612 O 0.90464 0.46414 0.07621 0.0
O613 O 0.89878 0.38138 0.08803 0.0
O614 O 0.8832 0.40378 0.99756 0.0
O615 O 0.93828 0.36255 0.00411 0.0
C616 C 0.09865 0.38859 0.1722 0.0
C617 C 0.05106 0.34055 0.19293 0.0
H618 H 0.94676 0.2486 0.22476 0.0
H619 H 0.84297 0.20076 0.18972 0.0
H620 H 0.14623 0.50907 0.05828 0.0
H621 H 0.17741 0.47986 0.12392 0.0
H622 H 0.14438 0.41263 0.18686 0.0
H623 H 0.06085 0.32847 0.22329 0.0
Mn624 Mn 0.49766 0.8311 0.22486 0.0
Mn625 Mn 0.64579 0.91375 0.25773 0.0
C626 C 0.52 0.89512 0.28114 0.0
C627 C 0.40068 0.75071 0.22372 0.0
C628 C 0.5942 0.93686 0.17892 0.0
O629 O 0.53398 0.78685 0.20067 0.0
O630 O 0.63168 0.84328 0.22508 0.0
C631 C 0.65089 0.83325 0.3176 0.0
N632 N 0.66096 0.88664 0.30931 0.0
C633 C 0.7068 0.92356 0.37902 0.0
C634 C 0.69738 0.8691 0.3882 0.0
C635 C 0.66911 0.82371 0.35739 0.0
C636 C 0.68822 0.93064 0.33867 0.0
H637 H 0.62916 0.79825 0.29401 0.0
C638 C 0.58855 0.79788 0.20507 0.0
O639 O 0.42132 0.78322 0.19105 0.0
O640 O 0.43778 0.7626 0.25632 0.0
N641 N 0.66816 0.98281 0.29007 0.0
C642 C 0.67035 0.03148 0.27711 0.0
C643 C 0.69683 0.08087 0.30437 0.0
C644 C 0.71965 0.07938 0.34491 0.0
C645 C 0.717 0.02886 0.35751 0.0
C646 C 0.69215 0.98171 0.32842 0.0
H647 H 0.65287 0.03291 0.24599 0.0
O648 O 0.47313 0.87818 0.25543 0.0
O649 O 0.55647 0.87593 0.27191 0.0
O650 O 0.54005 0.89436 0.18292 0.0
O651 O 0.63868 0.9481 0.20427 0.0
C652 C 0.73764 0.02328 0.39788 0.0
C653 C 0.7323 0.97059 0.4087 0.0
H654 H 0.71091 0.86143 0.41897 0.0
H655 H 0.66135 0.78146 0.36434 0.0
H656 H 0.69939 0.11998 0.29428 0.0
H657 H 0.73893 0.11722 0.36611 0.0
H658 H 0.75692 0.05898 0.42108 0.0
H659 H 0.74724 0.96647 0.44013 0.0
loop_
_geom_bond_atom_site_label_1
_geom_bond_atom_site_label_2
_geom_bond_distance
_geom_bond_site_symmetry_2
_ccdc_geom_bond_type
H0 O26 0.856 . S
H1 O29 0.854 . S
H2 C37 0.930 1_455 S
H3 C38 0.930 . S
H4 C40 0.930 . S
H5 C41 0.930 . S
H6 C43 0.931 . S
H7 C44 0.930 . S
H8 C46 0.930 . S
H9 C47 0.929 . S
H10 C49 0.930 . S
H11 C50 0.931 . S
H12 C52 0.930 . S
H13 C53 0.929 . S
H14 C55 0.931 . S
H15 C56 0.930 . S
H16 C58 0.930 . S
H17 C59 0.932 . S
H18 C61 0.930 . S
H19 C62 0.929 . S
H20 C64 0.931 . S
H21 C65 0.930 . S
H22 C67 0.929 . S
H23 C68 0.931 . S
H24 C70 0.930 . S
H25 C71 0.929 . S
O26 H0 0.856 . S
O26 C72 1.300 . S
O27 C72 1.209 . S
O28 C73 1.199 . S
O29 H1 0.854 . S
O29 C73 1.297 . S
C30 C31 1.404 . S
C30 C35 1.397 . S
C30 C36 1.492 . S
C31 C30 1.404 . S
C31 C32 1.396 . S
C31 C42 1.492 . S
C32 C31 1.396 . S
C32 C33 1.397 . S
C32 C48 1.509 . S
C33 C32 1.397 . S
C33 C34 1.412 . S
C33 C54 1.485 . S
C34 C33 1.412 . S
C34 C35 1.388 . S
C34 C60 1.490 . S
C35 C30 1.397 . S
C35 C34 1.388 . S
C35 C66 1.519 1_455 S
C36 C30 1.492 . S
C36 C37 1.363 1_455 S
C36 C41 1.390 1_455 S
C37 H2 0.930 1_655 S
C37 C36 1.363 1_655 S
C37 C38 1.372 . S
C38 H3 0.930 . S
C38 C37 1.372 . S
C38 C39 1.383 . S
C39 C38 1.383 . S
C39 C40 1.395 . S
C40 H4 0.930 . S
C40 C39 1.395 . S
C40 C41 1.362 . S
C41 H5 0.930 . S
C41 C36 1.390 1_655 S
C41 C40 1.362 . S
C42 C31 1.492 . S
C42 C43 1.377 . S
C42 C47 1.397 . S
C43 H6 0.931 . S
C43 C42 1.377 . S
C43 C44 1.376 . S
C44 H7 0.930 . S
C44 C43 1.376 . S
C44 C45 1.376 . S
C45 C44 1.376 . S
C45 C46 1.378 . S
C45 C72 1.486 . S
C46 H8 0.930 . S
C46 C45 1.378 . S
C46 C47 1.376 . S
C47 H9 0.929 . S
C47 C42 1.397 . S
C47 C46 1.376 . S
C48 C32 1.509 . S
C48 C49 1.391 . S
C48 C53 1.386 . S
C49 H10 0.930 . S
C49 C48 1.391 . S
C49 C50 1.375 . S
C50 H11 0.931 . S
C50 C49 1.375 . S
C50 C51 1.375 . S
C51 C50 1.375 . S
C51 C52 1.361 . S
C52 H12 0.930 . S
C52 C51 1.361 . S
C52 C53 1.399 . S
C53 H13 0.929 . S
C53 C48 1.386 . S
C53 C52 1.399 . S
C54 C33 1.485 . S
C54 C55 1.394 . S
C54 C59 1.360 . S
C55 H14 0.931 . S
C55 C54 1.394 . S
C55 C56 1.372 . S
C56 H15 0.930 . S
C56 C55 1.372 . S
C56 C57 1.397 . S
C57 C56 1.397 . S
C57 C58 1.390 . S
C57 C73 1.476 . S
C58 H16 0.930 . S
C58 C57 1.390 . S
C58 C59 1.366 . S
C59 H17 0.932 . S
C59 C54 1.360 . S
C59 C58 1.366 . S
C60 C34 1.490 . S
C60 C61 1.380 . S
C60 C65 1.386 . S
C61 H18 0.930 . S
C61 C60 1.380 . S
C61 C62 1.381 . S
C62 H19 0.929 . S
C62 C61 1.381 . S
C62 C63 1.371 . S
C63 C62 1.371 . S
C63 C64 1.380 . S
C64 H20 0.931 . S
C64 C63 1.380 . S
C64 C65 1.387 . S
C65 H21 0.930 . S
C65 C60 1.386 . S
C65 C64 1.387 . S
C66 C35 1.519 1_655 S
C66 C67 1.377 . S
C66 C71 1.361 . S
C67 H22 0.929 . S
C67 C66 1.377 . S
C67 C68 1.386 . S
C68 H23 0.931 . S
C68 C67 1.386 . S
C68 C69 1.363 . S
C69 C68 1.363 . S
C69 C70 1.385 . S
C70 H24 0.930 . S
C70 C69 1.385 . S
C70 C71 1.396 . S
C71 H25 0.929 . S
C71 C66 1.361 . S
C71 C70 1.396 . S
C72 O26 1.300 . S
C72 O27 1.209 . S
C72 C45 1.486 . S
C73 O28 1.199 . S
C73 O29 1.297 . S
C73 C57 1.476 . S
H74 O100 0.856 . S
H75 O103 0.854 . S
H76 C111 0.930 1_545 S
H77 C112 0.930 . S
H78 C114 0.930 . S
H79 C115 0.930 . S
H80 C117 0.931 . S
H81 C118 0.930 . S
H82 C120 0.930 . S
H83 C121 0.929 . S
H84 C123 0.930 . S
H85 C124 0.931 . S
H86 C126 0.930 . S
H87 C127 0.929 . S
H88 C129 0.931 . S
H89 C130 0.930 . S
H90 C132 0.930 . S
H91 C133 0.932 . S
H92 C135 0.930 . S
H93 C136 0.929 . S
H94 C138 0.931 . S
H95 C139 0.930 . S
H96 C141 0.929 . S
H97 C142 0.931 . S
H98 C144 0.930 . S
H99 C145 0.929 . S
O100 H74 0.856 . S
O100 C146 1.300 . S
O101 C146 1.209 . S
O102 C147 1.199 . S
O103 H75 0.854 . S
O103 C147 1.297 . S
C104 C105 1.404 . S
C104 C109 1.397 . S
C104 C110 1.492 1_545 S
C105 C104 1.404 . S
C105 C106 1.396 . S
C105 C116 1.492 . S
C106 C105 1.396 . S
C106 C107 1.397 . S
C106 C122 1.509 . S
C107 C106 1.397 . S
C107 C108 1.412 . S
C107 C128 1.485 . S
C108 C107 1.412 . S
C108 C109 1.388 . S
C108 C134 1.490 . S
C109 C104 1.397 . S
C109 C108 1.388 . S
C109 C140 1.519 1_545 S
C110 C104 1.492 1_565 S
C110 C111 1.363 . S
C110 C115 1.390 . S
C111 H76 0.930 1_565 S
C111 C110 1.363 . S
C111 C112 1.372 . S
C112 H77 0.930 . S
C112 C111 1.372 . S
C112 C113 1.383 . S
C113 C112 1.383 . S
C113 C114 1.395 . S
C114 H78 0.930 . S
C114 C113 1.395 . S
C114 C115 1.362 . S
C115 H79 0.930 . S
C115 C110 1.390 . S
C115 C114 1.362 . S
C116 C105 1.492 . S
C116 C117 1.377 . S
C116 C121 1.397 . S
C117 H80 0.931 . S
C117 C116 1.377 . S
C117 C118 1.376 . S
C118 H81 0.930 . S
C118 C117 1.376 . S
C118 C119 1.376 . S
C119 C118 1.376 . S
C119 C120 1.378 . S
C119 C146 1.486 . S
C120 H82 0.930 . S
C120 C119 1.378 . S
C120 C121 1.376 . S
C121 H83 0.929 . S
C121 C116 1.397 . S
C121 C120 1.376 . S
C122 C106 1.509 . S
C122 C123 1.391 . S
C122 C127 1.386 . S
C123 H84 0.930 . S
C123 C122 1.391 . S
C123 C124 1.375 . S
C124 H85 0.931 . S
C124 C123 1.375 . S
C124 C125 1.375 . S
C125 C124 1.375 . S
C125 C126 1.361 . S
C126 H86 0.930 . S
C126 C125 1.361 . S
C126 C127 1.399 . S
C127 H87 0.929 . S
C127 C122 1.386 . S
C127 C126 1.399 . S
C128 C107 1.485 . S
C128 C129 1.394 . S
C128 C133 1.360 . S
C129 H88 0.931 . S
C129 C128 1.394 . S
C129 C130 1.372 . S
C130 H89 0.930 . S
C130 C129 1.372 . S
C130 C131 1.397 . S
C131 C130 1.397 . S
C131 C132 1.390 . S
C131 C147 1.476 . S
C132 H90 0.930 . S
C132 C131 1.390 . S
C132 C133 1.366 . S
C133 H91 0.932 . S
C133 C128 1.360 . S
C133 C132 1.366 . S
C134 C108 1.490 . S
C134 C135 1.380 . S
C134 C139 1.386 . S
C135 H92 0.930 . S
C135 C134 1.380 . S
C135 C136 1.381 . S
C136 H93 0.929 . S
C136 C135 1.381 . S
C136 C137 1.371 . S
C137 C136 1.371 . S
C137 C138 1.380 . S
C138 H94 0.931 . S
C138 C137 1.380 . S
C138 C139 1.387 . S
C139 H95 0.930 . S
C139 C134 1.386 . S
C139 C138 1.387 . S
C140 C109 1.519 1_565 S
C140 C141 1.377 . S
C140 C145 1.361 . S
C141 H96 0.929 . S
C141 C140 1.377 . S
C141 C142 1.386 . S
C142 H97 0.931 . S
C142 C141 1.386 . S
C142 C143 1.363 . S
C143 C142 1.363 . S
C143 C144 1.385 . S
C144 H98 0.930 . S
C144 C143 1.385 . S
C144 C145 1.396 . S
C145 H99 0.929 . S
C145 C140 1.361 . S
C145 C144 1.396 . S
C146 O100 1.300 . S
C146 O101 1.209 . S
C146 C119 1.486 . S
C147 O102 1.199 . S
C147 O103 1.297 . S
C147 C131 1.476 . S
H148 O174 0.856 . S
H149 O177 0.854 . S
H150 C185 0.930 . S
H151 C186 0.930 . S
H152 C188 0.930 . S
H153 C189 0.930 . S
H154 C191 0.931 . S
H155 C192 0.930 . S
H156 C194 0.930 . S
H157 C195 0.929 . S
H158 C197 0.930 . S
H159 C198 0.931 . S
H160 C200 0.930 . S
H161 C201 0.929 . S
H162 C203 0.931 . S
H163 C204 0.930 . S
H164 C206 0.930 . S
H165 C207 0.932 . S
H166 C209 0.930 . S
H167 C210 0.929 . S
H168 C212 0.931 . S
H169 C213 0.930 . S
H170 C215 0.929 . S
H171 C216 0.931 . S
H172 C218 0.930 . S
H173 C219 0.929 . S
O174 H148 0.856 . S
O174 C220 1.300 . S
O175 C220 1.209 . S
O176 C221 1.199 . S
O177 H149 0.854 . S
O177 C221 1.297 . S
C178 C179 1.404 . S
C178 C183 1.397 . S
C178 C184 1.492 . S
C179 C178 1.404 . S
C179 C180 1.396 . S
C179 C190 1.492 . S
C180 C179 1.396 . S
C180 C181 1.397 . S
C180 C196 1.509 . S
C181 C180 1.397 . S
C181 C182 1.412 . S
C181 C202 1.485 . S
C182 C181 1.412 . S
C182 C183 1.388 . S
C182 C208 1.490 . S
C183 C178 1.397 . S
C183 C182 1.388 . S
C183 C214 1.519 . S
C184 C178 1.492 . S
C184 C185 1.363 . S
C184 C189 1.390 . S
C185 H150 0.930 . S
C185 C184 1.363 . S
C185 C186 1.372 . S
C186 H151 0.930 . S
C186 C185 1.372 . S
C186 C187 1.383 . S
C187 C186 1.383 . S
C187 C188 1.395 . S
C188 H152 0.930 . S
C188 C187 1.395 . S
C188 C189 1.362 . S
C189 H153 0.930 . S
C189 C184 1.390 . S
C189 C188 1.362 . S
C190 C179 1.492 . S
C190 C191 1.377 . S
C190 C195 1.397 . S
C191 H154 0.931 . S
C191 C190 1.377 . S
C191 C192 1.376 . S
C192 H155 0.930 . S
C192 C191 1.376 . S
C192 C193 1.376 . S
C193 C192 1.376 . S
C193 C194 1.378 . S
C193 C220 1.486 . S
C194 H156 0.930 . S
C194 C193 1.378 . S
C194 C195 1.376 . S
C195 H157 0.929 . S
C195 C190 1.397 . S
C195 C194 1.376 . S
C196 C180 1.509 . S
C196 C197 1.391 . S
C196 C201 1.386 . S
C197 H158 0.930 . S
C197 C196 1.391 . S
C197 C198 1.375 . S
C198 H159 0.931 . S
C198 C197 1.375 . S
C198 C199 1.375 . S
C199 C198 1.375 . S
C199 C200 1.361 . S
C200 H160 0.930 . S
C200 C199 1.361 . S
C200 C201 1.399 . S
C201 H161 0.929 . S
C201 C196 1.386 . S
C201 C200 1.399 . S
C202 C181 1.485 . S
C202 C203 1.394 . S
C202 C207 1.360 . S
C203 H162 0.931 . S
C203 C202 1.394 . S
C203 C204 1.372 . S
C204 H163 0.930 . S
C204 C203 1.372 . S
C204 C205 1.397 . S
C205 C204 1.397 . S
C205 C206 1.390 . S
C205 C221 1.476 . S
C206 H164 0.930 . S
C206 C205 1.390 . S
C206 C207 1.366 . S
C207 H165 0.932 . S
C207 C202 1.360 . S
C207 C206 1.366 . S
C208 C182 1.490 . S
C208 C209 1.380 . S
C208 C213 1.386 . S
C209 H166 0.930 . S
C209 C208 1.380 . S
C209 C210 1.381 . S
C210 H167 0.929 . S
C210 C209 1.381 . S
C210 C211 1.371 . S
C211 C210 1.371 . S
C211 C212 1.380 . S
C212 H168 0.931 . S
C212 C211 1.380 . S
C212 C213 1.387 . S
C213 H169 0.930 . S
C213 C208 1.386 . S
C213 C212 1.387 . S
C214 C183 1.519 . S
C214 C215 1.377 . S
C214 C219 1.361 . S
C215 H170 0.929 . S
C215 C214 1.377 . S
C215 C216 1.386 . S
C216 H171 0.931 . S
C216 C215 1.386 . S
C216 C217 1.363 . S
C217 C216 1.363 . S
C217 C218 1.385 . S
C218 H172 0.930 . S
C218 C217 1.385 . S
C218 C219 1.396 . S
C219 H173 0.929 . S
C219 C214 1.361 . S
C219 C218 1.396 . S
C220 O174 1.300 . S
C220 O175 1.209 . S
C220 C193 1.486 . S
C221 O176 1.199 . S
C221 O177 1.297 . S
C221 C205 1.476 . S
H222 O248 0.856 . S
H223 O251 0.854 . S
H224 C259 0.930 1_455 S
H225 C260 0.930 . S
H226 C262 0.930 . S
H227 C263 0.930 . S
H228 C265 0.931 . S
H229 C266 0.930 . S
H230 C268 0.930 . S
H231 C269 0.929 . S
H232 C271 0.930 . S
H233 C272 0.931 . S
H234 C274 0.930 . S
H235 C275 0.929 . S
H236 C277 0.931 . S
H237 C278 0.930 . S
H238 C280 0.930 . S
H239 C281 0.932 . S
H240 C283 0.930 . S
H241 C284 0.929 . S
H242 C286 0.931 . S
H243 C287 0.930 . S
H244 C289 0.929 . S
H245 C290 0.931 . S
H246 C292 0.930 . S
H247 C293 0.929 . S
O248 H222 0.856 . S
O248 C294 1.300 . S
O249 C294 1.209 . S
O250 C295 1.199 . S
O251 H223 0.854 . S
O251 C295 1.297 . S
C252 C253 1.404 . S
C252 C257 1.397 . S
C252 C258 1.492 . S
C253 C252 1.404 . S
C253 C254 1.396 . S
C253 C264 1.492 . S
C254 C253 1.396 . S
C254 C255 1.397 . S
C254 C270 1.509 . S
C255 C254 1.397 . S
C255 C256 1.412 . S
C255 C276 1.485 . S
C256 C255 1.412 . S
C256 C257 1.388 . S
C256 C282 1.490 . S
C257 C252 1.397 . S
C257 C256 1.388 . S
C257 C288 1.519 1_455 S
C258 C252 1.492 . S
C258 C259 1.363 1_455 S
C258 C263 1.390 1_455 S
C259 H224 0.930 1_655 S
C259 C258 1.363 1_655 S
C259 C260 1.372 . S
C260 H225 0.930 . S
C260 C259 1.372 . S
C260 C261 1.383 . S
C261 C260 1.383 . S
C261 C262 1.395 . S
C262 H226 0.930 . S
C262 C261 1.395 . S
C262 C263 1.362 . S
C263 H227 0.930 . S
C263 C258 1.390 1_655 S
C263 C262 1.362 . S
C264 C253 1.492 . S
C264 C265 1.377 . S
C264 C269 1.397 . S
C265 H228 0.931 . S
C265 C264 1.377 . S
C265 C266 1.376 . S
C266 H229 0.930 . S
C266 C265 1.376 . S
C266 C267 1.376 . S
C267 C266 1.376 . S
C267 C268 1.378 . S
C267 C294 1.486 1_556 S
C268 H230 0.930 . S
C268 C267 1.378 . S
C268 C269 1.376 . S
C269 H231 0.929 . S
C269 C264 1.397 . S
C269 C268 1.376 . S
C270 C254 1.509 . S
C270 C271 1.391 . S
C270 C275 1.386 . S
C271 H232 0.930 . S
C271 C270 1.391 . S
C271 C272 1.375 . S
C272 H233 0.931 . S
C272 C271 1.375 . S
C272 C273 1.375 . S
C273 C272 1.375 . S
C273 C274 1.361 . S
C274 H234 0.930 . S
C274 C273 1.361 . S
C274 C275 1.399 . S
C275 H235 0.929 . S
C275 C270 1.386 . S
C275 C274 1.399 . S
C276 C255 1.485 . S
C276 C277 1.394 . S
C276 C281 1.360 . S
C277 H236 0.931 . S
C277 C276 1.394 . S
C277 C278 1.372 . S
C278 H237 0.930 . S
C278 C277 1.372 . S
C278 C279 1.397 . S
C279 C278 1.397 . S
C279 C280 1.390 . S
C279 C295 1.476 . S
C280 H238 0.930 . S
C280 C279 1.390 . S
C280 C281 1.366 . S
C281 H239 0.932 . S
C281 C276 1.360 . S
C281 C280 1.366 . S
C282 C256 1.490 . S
C282 C283 1.380 . S
C282 C287 1.386 . S
C283 H240 0.930 . S
C283 C282 1.380 . S
C283 C284 1.381 . S
C284 H241 0.929 . S
C284 C283 1.381 . S
C284 C285 1.371 . S
C285 C284 1.371 . S
C285 C286 1.380 . S
C286 H242 0.931 . S
C286 C285 1.380 . S
C286 C287 1.387 . S
C287 H243 0.930 . S
C287 C282 1.386 . S
C287 C286 1.387 . S
C288 C257 1.519 1_655 S
C288 C289 1.377 . S
C288 C293 1.361 . S
C289 H244 0.929 . S
C289 C288 1.377 . S
C289 C290 1.386 . S
C290 H245 0.931 . S
C290 C289 1.386 . S
C290 C291 1.363 . S
C291 C290 1.363 . S
C291 C292 1.385 . S
C292 H246 0.930 . S
C292 C291 1.385 . S
C292 C293 1.396 . S
C293 H247 0.929 . S
C293 C288 1.361 . S
C293 C292 1.396 . S
C294 O248 1.300 . S
C294 O249 1.209 . S
C294 C267 1.486 1_554 S
C295 O250 1.199 . S
C295 O251 1.297 . S
C295 C279 1.476 . S
H296 O322 0.856 . S
H297 O325 0.854 . S
H298 C333 0.930 . S
H299 C334 0.930 . S
H300 C336 0.930 . S
H301 C337 0.930 . S
H302 C339 0.931 . S
H303 C340 0.930 . S
H304 C342 0.930 1_545 S
H305 C343 0.929 1_545 S
H306 C345 0.930 . S
H307 C346 0.931 . S
H308 C348 0.930 . S
H309 C349 0.929 . S
H310 C351 0.931 . S
H311 C352 0.930 . S
H312 C354 0.930 . S
H313 C355 0.932 . S
H314 C357 0.930 . S
H315 C358 0.929 . S
H316 C360 0.920 1_565 S
H317 C361 0.930 . S
H318 C363 0.929 1_556 S
H319 C364 0.931 . S
H320 C366 0.930 . S
H321 C367 0.929 . S
O322 H296 0.856 . S
O322 C368 1.300 . S
O323 C368 1.209 . S
O324 C369 1.199 . S
O325 H297 0.854 . S
O325 C369 1.297 . S
C326 C327 1.404 1_545 S
C326 C331 1.397 . S
C326 C332 1.492 . S
C327 C326 1.404 1_565 S
C327 C328 1.396 . S
C327 C338 1.492 . S
C328 C327 1.396 . S
C328 C329 1.397 . S
C328 C344 1.509 . S
C329 C328 1.397 . S
C329 C330 1.412 1_556 S
C329 C350 1.485 1_556 S
C330 C329 1.412 1_554 S
C330 C331 1.388 1_564 S
C330 C356 1.494 . S
C331 C326 1.397 . S
C331 C330 1.388 1_546 S
C331 C362 1.519 1_556 S
C332 C326 1.492 . S
C332 C333 1.363 . S
C332 C337 1.390 . S
C333 H298 0.930 . S
C333 C332 1.363 . S
C333 C334 1.372 . S
C334 H299 0.930 . S
C334 C333 1.372 . S
C334 C335 1.383 . S
C335 C334 1.383 . S
C335 C336 1.395 . S
C336 H300 0.930 . S
C336 C335 1.395 . S
C336 C337 1.362 . S
C337 H301 0.930 . S
C337 C332 1.390 . S
C337 C336 1.362 . S
C338 C327 1.492 . S
C338 C339 1.377 . S
C338 C343 1.397 . S
C339 H302 0.931 . S
C339 C338 1.377 . S
C339 C340 1.376 . S
C340 H303 0.930 . S
C340 C339 1.376 . S
C340 C341 1.376 . S
C341 C340 1.376 . S
C341 C342 1.378 . S
C341 C368 1.486 . S
C342 H304 0.930 1_565 S
C342 C341 1.378 . S
C342 C343 1.376 . S
C343 H305 0.929 1_565 S
C343 C338 1.397 . S
C343 C342 1.376 . S
C344 C328 1.509 . S
C344 C345 1.391 . S
C344 C349 1.386 . S
C345 H306 0.930 . S
C345 C344 1.391 . S
C345 C346 1.375 . S
C346 H307 0.931 . S
C346 C345 1.375 . S
C346 C347 1.375 . S
C347 C346 1.375 . S
C347 C348 1.361 . S
C348 H308 0.930 . S
C348 C347 1.361 . S
C348 C349 1.399 . S
C349 H309 0.929 . S
C349 C344 1.386 . S
C349 C348 1.399 . S
C350 C329 1.485 1_554 S
C350 C351 1.394 . S
C350 C355 1.360 . S
C351 H310 0.931 . S
C351 C350 1.394 . S
C351 C352 1.372 . S
C352 H311 0.930 . S
C352 C351 1.372 . S
C352 C353 1.397 . S
C353 C352 1.397 . S
C353 C354 1.390 . S
C353 C369 1.476 . S
C354 H312 0.930 . S
C354 C353 1.390 . S
C354 C355 1.366 . S
C355 H313 0.932 . S
C355 C350 1.360 . S
C355 C354 1.366 . S
C356 C330 1.494 . S
C356 C357 1.368 1_565 S
C356 C361 1.395 . S
C357 H314 0.930 . S
C357 C356 1.368 1_545 S
C357 C358 1.381 . S
C358 H315 0.929 . S
C358 C357 1.381 . S
C358 C359 1.371 . S
C359 C358 1.371 . S
C359 C360 1.394 . S
C360 H316 0.920 1_545 S
C360 C359 1.394 . S
C360 C361 1.384 1_545 S
C361 H317 0.930 . S
C361 C356 1.395 . S
C361 C360 1.384 1_565 S
C362 C331 1.519 1_554 S
C362 C363 1.377 . S
C362 C367 1.361 . S
C363 H318 0.929 1_554 S
C363 C362 1.377 . S
C363 C364 1.386 . S
C364 H319 0.931 . S
C364 C363 1.386 . S
C364 C365 1.363 . S
C365 C364 1.363 . S
C365 C366 1.385 . S
C366 H320 0.930 . S
C366 C365 1.385 . S
C366 C367 1.396 . S
C367 H321 0.929 . S
C367 C362 1.361 . S
C367 C366 1.396 . S
C368 O322 1.300 . S
C368 O323 1.209 . S
C368 C341 1.486 . S
C369 O324 1.199 . S
C369 O325 1.297 . S
C369 C353 1.476 . S
H370 O396 0.856 . S
H371 O399 0.854 . S
H372 C407 0.930 . S
H373 C408 0.930 . S
H374 C410 0.930 . S
H375 C411 0.930 . S
H376 C413 0.931 . S
H377 C414 0.930 . S
H378 C416 0.930 . S
H379 C417 0.929 . S
H380 C419 0.930 . S
H381 C420 0.931 . S
H382 C422 0.930 . S
H383 C423 0.929 . S
H384 C425 0.931 . S
H385 C426 0.930 . S
H386 C428 0.930 . S
H387 C429 0.932 . S
H388 C431 0.930 . S
H389 C432 0.929 . S
H390 C434 0.931 . S
H391 C435 0.930 . S
H392 C437 0.929 . S
H393 C438 0.931 . S
H394 C440 0.930 . S
H395 C441 0.929 . S
O396 H370 0.856 . S
O396 C442 1.300 . S
O397 C442 1.209 . S
O398 C443 1.199 . S
O399 H371 0.854 . S
O399 C443 1.297 . S
C400 C401 1.404 . S
C400 C405 1.397 . S
C400 C406 1.492 . S
C401 C400 1.404 . S
C401 C402 1.396 . S
C401 C412 1.492 . S
C402 C401 1.396 . S
C402 C403 1.397 . S
C402 C418 1.509 . S
C403 C402 1.397 . S
C403 C404 1.412 . S
C403 C424 1.485 . S
C404 C403 1.412 . S
C404 C405 1.388 . S
C404 C430 1.490 . S
C405 C400 1.397 . S
C405 C404 1.388 . S
C405 C436 1.519 . S
C406 C400 1.492 . S
C406 C407 1.363 . S
C406 C411 1.390 . S
C407 H372 0.930 . S
C407 C406 1.363 . S
C407 C408 1.372 . S
C408 H373 0.930 . S
C408 C407 1.372 . S
C408 C409 1.383 . S
C409 C408 1.383 . S
C409 C410 1.395 . S
C410 H374 0.930 . S
C410 C409 1.395 . S
C410 C411 1.362 . S
C411 H375 0.930 . S
C411 C406 1.390 . S
C411 C410 1.362 . S
C412 C401 1.492 . S
C412 C413 1.377 . S
C412 C417 1.397 . S
C413 H376 0.931 . S
C413 C412 1.377 . S
C413 C414 1.376 1_554 S
C414 H377 0.930 . S
C414 C413 1.376 1_556 S
C414 C415 1.376 . S
C415 C414 1.376 . S
C415 C416 1.378 . S
C415 C442 1.486 . S
C416 H378 0.930 . S
C416 C415 1.378 . S
C416 C417 1.376 1_556 S
C417 H379 0.929 . S
C417 C412 1.397 . S
C417 C416 1.376 1_554 S
C418 C402 1.509 . S
C418 C419 1.391 . S
C418 C423 1.386 . S
C419 H380 0.930 . S
C419 C418 1.391 . S
C419 C420 1.375 . S
C420 H381 0.931 . S
C420 C419 1.375 . S
C420 C421 1.375 . S
C421 C420 1.375 . S
C421 C422 1.361 . S
C422 H382 0.930 . S
C422 C421 1.361 . S
C422 C423 1.399 . S
C423 H383 0.929 . S
C423 C418 1.386 . S
C423 C422 1.399 . S
C424 C403 1.485 . S
C424 C425 1.394 . S
C424 C429 1.360 . S
C425 H384 0.931 . S
C425 C424 1.394 . S
C425 C426 1.372 . S
C426 H385 0.930 . S
C426 C425 1.372 . S
C426 C427 1.397 . S
C427 C426 1.397 . S
C427 C428 1.390 . S
C427 C443 1.476 . S
C428 H386 0.930 . S
C428 C427 1.390 . S
C428 C429 1.366 . S
C429 H387 0.932 . S
C429 C424 1.360 . S
C429 C428 1.366 . S
C430 C404 1.490 . S
C430 C431 1.380 . S
C430 C435 1.386 . S
C431 H388 0.930 . S
C431 C430 1.380 . S
C431 C432 1.381 . S
C432 H389 0.929 . S
C432 C431 1.381 . S
C432 C433 1.371 . S
C433 C432 1.371 . S
C433 C434 1.380 . S
C434 H390 0.931 . S
C434 C433 1.380 . S
C434 C435 1.387 . S
C435 H391 0.930 . S
C435 C430 1.386 . S
C435 C434 1.387 . S
C436 C405 1.519 . S
C436 C437 1.377 . S
C436 C441 1.361 . S
C437 H392 0.929 . S
C437 C436 1.377 . S
C437 C438 1.386 . S
C438 H393 0.931 . S
C438 C437 1.386 . S
C438 C439 1.363 . S
C439 C438 1.363 . S
C439 C440 1.385 . S
C440 H394 0.930 . S
C440 C439 1.385 . S
C440 C441 1.396 . S
C441 H395 0.929 . S
C441 C436 1.361 . S
C441 C440 1.396 . S
C442 O396 1.300 . S
C442 O397 1.209 . S
C442 C415 1.486 . S
C443 O398 1.199 . S
C443 O399 1.297 . S
C443 C427 1.476 . S
Mn444 O449 2.095 . S
Mn444 O459 2.162 . S
Mn444 O460 2.297 . S
Mn444 O468 2.385 . S
Mn444 O469 2.209 . S
Mn444 O470 2.094 . S
Mn445 O450 2.121 . S
Mn445 N452 2.257 . S
Mn445 N461 2.282 . S
Mn445 O469 2.215 . S
Mn445 O471 2.117 . S
C446 O468 1.234 . S
C446 O469 1.283 . S
C447 O459 1.281 . S
C447 O460 1.236 . S
C448 O470 1.240 . S
C448 O471 1.264 . S
O449 Mn444 2.095 . S
O449 C458 1.250 . S
O450 Mn445 2.121 . S
O450 C458 1.258 . S
C451 N452 1.326 . S
C451 C455 1.460 . S
C451 H457 0.929 . S
N452 Mn445 2.257 . S
N452 C451 1.326 . S
N452 C456 1.362 . S
C453 C454 1.258 . S
C453 C456 1.431 . S
C453 C473 1.449 . S
C454 C453 1.258 . S
C454 C455 1.477 . S
C454 H474 0.931 . S
C455 C451 1.460 . S
C455 C454 1.477 . S
C455 H475 0.930 . S
C456 N452 1.362 . S
C456 C453 1.431 . S
C456 C466 1.476 . S
H457 C451 0.929 . S
C458 O449 1.250 . S
C458 O450 1.258 . S
O459 Mn444 2.162 . S
O459 C447 1.281 . S
O460 Mn444 2.297 . S
O460 C447 1.236 . S
N461 Mn445 2.282 . S
N461 C462 1.328 . S
N461 C466 1.318 . S
C462 N461 1.328 . S
C462 C463 1.457 . S
C462 H467 0.929 . S
C463 C462 1.457 . S
C463 C464 1.291 . S
C463 H476 0.931 . S
C464 C463 1.291 . S
C464 C465 1.373 . S
C464 H477 0.929 . S
C465 C464 1.373 . S
C465 C466 1.396 . S
C465 C472 1.403 . S
C466 C456 1.476 . S
C466 N461 1.318 . S
C466 C465 1.396 . S
H467 C462 0.929 . S
O468 Mn444 2.385 . S
O468 C446 1.234 . S
O469 Mn444 2.209 . S
O469 Mn445 2.215 . S
O469 C446 1.283 . S
O470 Mn444 2.094 . S
O470 C448 1.240 . S
O471 Mn445 2.117 . S
O471 C448 1.264 . S
C472 C465 1.403 . S
C472 C473 1.399 . S
C472 H478 0.929 . S
C473 C453 1.449 . S
C473 C472 1.399 . S
C473 H479 0.930 . S
H474 C454 0.931 . S
H475 C455 0.930 . S
H476 C463 0.931 . S
H477 C464 0.929 . S
H478 C472 0.929 . S
H479 C473 0.930 . S
Mn480 O485 2.095 . S
Mn480 O495 2.162 . S
Mn480 O496 2.297 . S
Mn480 O504 2.385 . S
Mn480 O505 2.209 . S
Mn480 O506 2.094 . S
Mn481 O486 2.121 . S
Mn481 N488 2.257 . S
Mn481 N497 2.282 . S
Mn481 O505 2.215 . S
Mn481 O507 2.117 . S
C482 O504 1.234 . S
C482 O505 1.283 . S
C483 O495 1.281 . S
C483 O496 1.236 . S
C484 O506 1.240 . S
C484 O507 1.264 . S
O485 Mn480 2.095 . S
O485 C494 1.250 . S
O486 Mn481 2.121 . S
O486 C494 1.258 . S
C487 N488 1.326 . S
C487 C491 1.460 . S
C487 H493 0.929 . S
N488 Mn481 2.257 . S
N488 C487 1.326 . S
N488 C492 1.362 . S
C489 C490 1.258 . S
C489 C492 1.431 . S
C489 C509 1.449 . S
C490 C489 1.258 . S
C490 C491 1.477 . S
C490 H510 0.931 . S
C491 C487 1.460 . S
C491 C490 1.477 . S
C491 H511 0.930 . S
C492 N488 1.362 . S
C492 C489 1.431 . S
C492 C502 1.476 . S
H493 C487 0.929 . S
C494 O485 1.250 . S
C494 O486 1.258 . S
O495 Mn480 2.162 . S
O495 C483 1.281 . S
O496 Mn480 2.297 . S
O496 C483 1.236 . S
N497 Mn481 2.282 . S
N497 C498 1.328 . S
N497 C502 1.318 . S
C498 N497 1.328 . S
C498 C499 1.457 1_455 S
C498 H503 0.929 . S
C499 C498 1.457 1_655 S
C499 C500 1.291 . S
C499 H512 0.931 . S
C500 C499 1.291 . S
C500 C501 1.373 1_655 S
C500 H513 0.929 . S
C501 C500 1.373 1_455 S
C501 C502 1.396 . S
C501 C508 1.403 . S
C502 C492 1.476 . S
C502 N497 1.318 . S
C502 C501 1.396 . S
H503 C498 0.929 . S
O504 Mn480 2.385 . S
O504 C482 1.234 . S
O505 Mn480 2.209 . S
O505 Mn481 2.215 . S
O505 C482 1.283 . S
O506 Mn480 2.094 . S
O506 C484 1.240 . S
O507 Mn481 2.117 . S
O507 C484 1.264 . S
C508 C501 1.403 . S
C508 C509 1.399 . S
C508 H514 0.929 1_455 S
C509 C489 1.449 . S
C509 C508 1.399 . S
C509 H515 0.930 . S
H510 C490 0.931 . S
H511 C491 0.930 . S
H512 C499 0.931 . S
H513 C500 0.929 . S
H514 C508 0.929 1_655 S
H515 C509 0.930 . S
Mn516 O521 2.095 . S
Mn516 O531 2.162 . S
Mn516 O532 2.297 . S
Mn516 O540 2.385 . S
Mn516 O541 2.209 . S
Mn516 O542 2.094 . S
Mn517 O522 2.121 . S
Mn517 N524 2.257 . S
Mn517 N533 2.282 . S
Mn517 O541 2.215 . S
Mn517 O543 2.117 . S
C518 O540 1.234 . S
C518 O541 1.283 . S
C519 O531 1.281 . S
C519 O532 1.236 . S
C520 O542 1.240 . S
C520 O543 1.264 . S
O521 Mn516 2.095 . S
O521 C530 1.250 . S
O522 Mn517 2.121 . S
O522 C530 1.258 . S
C523 N524 1.326 . S
C523 C527 1.460 . S
C523 H529 0.929 . S
N524 Mn517 2.257 . S
N524 C523 1.326 . S
N524 C528 1.362 . S
C525 C526 1.258 . S
C525 C528 1.431 . S
C525 C545 1.449 1_545 S
C526 C525 1.258 . S
C526 C527 1.477 . S
C526 H546 0.931 . S
C527 C523 1.460 . S
C527 C526 1.477 . S
C527 H547 0.930 . S
C528 N524 1.362 . S
C528 C525 1.431 . S
C528 C538 1.476 . S
H529 C523 0.929 . S
C530 O521 1.250 . S
C530 O522 1.258 . S
O531 Mn516 2.162 . S
O531 C519 1.281 . S
O532 Mn516 2.297 . S
O532 C519 1.236 . S
N533 Mn517 2.282 . S
N533 C534 1.328 . S
N533 C538 1.318 . S
C534 N533 1.328 . S
C534 C535 1.457 1_545 S
C534 H539 0.929 . S
C535 C534 1.457 1_565 S
C535 C536 1.291 . S
C535 H548 0.931 . S
C536 C535 1.291 . S
C536 C537 1.373 . S
C536 H549 0.929 . S
C537 C536 1.373 . S
C537 C538 1.396 1_565 S
C537 C544 1.403 . S
C538 C528 1.476 . S
C538 N533 1.318 . S
C538 C537 1.396 1_545 S
H539 C534 0.929 . S
O540 Mn516 2.385 . S
O540 C518 1.234 . S
O541 Mn516 2.209 . S
O541 Mn517 2.215 . S
O541 C518 1.283 . S
O542 Mn516 2.094 . S
O542 C520 1.240 . S
O543 Mn517 2.117 . S
O543 C520 1.264 . S
C544 C537 1.403 . S
C544 C545 1.399 . S
C544 H550 0.929 . S
C545 C525 1.449 1_565 S
C545 C544 1.399 . S
C545 H551 0.930 . S
H546 C526 0.931 . S
H547 C527 0.930 . S
H548 C535 0.931 . S
H549 C536 0.929 . S
H550 C544 0.929 . S
H551 C545 0.930 . S
Mn552 O557 2.095 . S
Mn552 O567 2.162 . S
Mn552 O568 2.297 . S
Mn552 O576 2.385 . S
Mn552 O577 2.209 . S
Mn552 O578 2.094 . S
Mn553 O558 2.121 . S
Mn553 N560 2.257 . S
Mn553 N569 2.282 . S
Mn553 O577 2.215 . S
Mn553 O579 2.117 . S
C554 O576 1.234 . S
C554 O577 1.283 . S
C555 O567 1.281 . S
C555 O568 1.236 . S
C556 O578 1.240 . S
C556 O579 1.264 . S
O557 Mn552 2.095 . S
O557 C566 1.250 . S
O558 Mn553 2.121 . S
O558 C566 1.258 . S
C559 N560 1.326 . S
C559 C563 1.460 . S
C559 H565 0.929 . S
N560 Mn553 2.257 . S
N560 C559 1.326 . S
N560 C564 1.362 . S
C561 C562 1.258 1_556 S
C561 C564 1.431 . S
C561 C581 1.449 1_556 S
C562 C561 1.258 1_554 S
C562 C563 1.477 1_554 S
C562 H582 0.931 . S
C563 C559 1.460 . S
C563 C562 1.477 1_556 S
C563 H583 0.930 . S
C564 N560 1.362 . S
C564 C561 1.431 . S
C564 C574 1.476 . S
H565 C559 0.929 . S
C566 O557 1.250 . S
C566 O558 1.258 . S
O567 Mn552 2.162 . S
O567 C555 1.281 . S
O568 Mn552 2.297 . S
O568 C555 1.236 . S
N569 Mn553 2.282 . S
N569 C570 1.328 . S
N569 C574 1.318 . S
C570 N569 1.328 . S
C570 C571 1.457 . S
C570 H575 0.929 . S
C571 C570 1.457 . S
C571 C572 1.291 . S
C571 H584 0.931 . S
C572 C571 1.291 . S
C572 C573 1.373 . S
C572 H585 0.929 . S
C573 C572 1.373 . S
C573 C574 1.396 . S
C573 C580 1.403 . S
C574 C564 1.476 . S
C574 N569 1.318 . S
C574 C573 1.396 . S
H575 C570 0.929 . S
O576 Mn552 2.385 . S
O576 C554 1.234 . S
O577 Mn552 2.209 . S
O577 Mn553 2.215 . S
O577 C554 1.283 . S
O578 Mn552 2.094 . S
O578 C556 1.240 . S
O579 Mn553 2.117 . S
O579 C556 1.264 . S
C580 C573 1.403 . S
C580 C581 1.399 1_556 S
C580 H586 0.929 1_556 S
C581 C561 1.449 1_554 S
C581 C580 1.399 1_554 S
C581 H587 0.930 . S
H582 C562 0.931 . S
H583 C563 0.930 . S
H584 C571 0.931 . S
H585 C572 0.929 . S
H586 C580 0.929 1_554 S
H587 C581 0.930 . S
Mn588 O593 2.095 . S
Mn588 O603 2.162 . S
Mn588 O604 2.297 . S
Mn588 O612 2.385 . S
Mn588 O613 2.209 . S
Mn588 O614 2.094 1_554 S
Mn589 O594 2.121 . S
Mn589 N596 2.257 . S
Mn589 N605 2.282 1_655 S
Mn589 O613 2.215 . S
Mn589 O615 2.117 . S
C590 O612 1.234 . S
C590 O613 1.283 . S
C591 O603 1.281 . S
C591 O604 1.236 . S
C592 O614 1.240 . S
C592 O615 1.264 1_556 S
O593 Mn588 2.095 . S
O593 C602 1.250 . S
O594 Mn589 2.121 . S
O594 C602 1.258 . S
C595 N596 1.326 . S
C595 C599 1.460 . S
C595 H601 0.929 . S
N596 Mn589 2.257 . S
N596 C595 1.326 . S
N596 C600 1.362 . S
C597 C598 1.258 . S
C597 C600 1.431 . S
C597 C617 1.449 1_655 S
C598 C597 1.258 . S
C598 C599 1.477 . S
C598 H618 0.931 . S
C599 C595 1.460 . S
C599 C598 1.477 . S
C599 H619 0.930 . S
C600 N596 1.362 . S
C600 C597 1.431 . S
C600 C610 1.476 1_655 S
H601 C595 0.929 . S
C602 O593 1.250 . S
C602 O594 1.258 . S
O603 Mn588 2.162 . S
O603 C591 1.281 . S
O604 Mn588 2.297 . S
O604 C591 1.236 . S
N605 Mn589 2.282 1_455 S
N605 C606 1.328 . S
N605 C610 1.318 . S
C606 N605 1.328 . S
C606 C607 1.457 . S
C606 H611 0.929 . S
C607 C606 1.457 . S
C607 C608 1.291 . S
C607 H620 0.931 . S
C608 C607 1.291 . S
C608 C609 1.373 . S
C608 H621 0.929 . S
C609 C608 1.373 . S
C609 C610 1.396 . S
C609 C616 1.403 . S
C610 C600 1.476 1_455 S
C610 N605 1.318 . S
C610 C609 1.396 . S
H611 C606 0.929 . S
O612 Mn588 2.385 . S
O612 C590 1.234 . S
O613 Mn588 2.209 . S
O613 Mn589 2.215 . S
O613 C590 1.283 . S
O614 Mn588 2.094 1_556 S
O614 C592 1.240 . S
O615 Mn589 2.117 . S
O615 C592 1.264 1_554 S
C616 C609 1.403 . S
C616 C617 1.399 . S
C616 H622 0.929 . S
C617 C597 1.449 1_455 S
C617 C616 1.399 . S
C617 H623 0.930 . S
H618 C598 0.931 . S
H619 C599 0.930 . S
H620 C607 0.931 . S
H621 C608 0.929 . S
H622 C616 0.929 . S
H623 C617 0.930 . S
Mn624 O629 2.095 . S
Mn624 O639 2.162 . S
Mn624 O640 2.297 . S
Mn624 O648 2.385 . S
Mn624 O649 2.209 . S
Mn624 O650 2.094 . S
Mn625 O630 2.121 . S
Mn625 N632 2.257 . S
Mn625 N641 2.282 1_565 S
Mn625 O649 2.215 . S
Mn625 O651 2.117 . S
C626 O648 1.234 . S
C626 O649 1.283 . S
C627 O639 1.281 . S
C627 O640 1.236 . S
C628 O650 1.240 . S
C628 O651 1.264 . S
O629 Mn624 2.095 . S
O629 C638 1.250 . S
O630 Mn625 2.121 . S
O630 C638 1.258 . S
C631 N632 1.326 . S
C631 C635 1.460 . S
C631 H637 0.929 . S
N632 Mn625 2.257 . S
N632 C631 1.326 . S
N632 C636 1.362 . S
C633 C634 1.258 1_545 S
C633 C636 1.431 1_545 S
C633 C653 1.449 . S
C634 C633 1.258 1_565 S
C634 C635 1.477 . S
C634 H654 0.931 . S
C635 C631 1.460 . S
C635 C634 1.477 . S
C635 H655 0.930 . S
C636 N632 1.362 . S
C636 C633 1.431 1_565 S
C636 C646 1.476 1_565 S
H637 C631 0.929 . S
C638 O629 1.250 . S
C638 O630 1.258 . S
O639 Mn624 2.162 . S
O639 C627 1.281 . S
O640 Mn624 2.297 . S
O640 C627 1.236 . S
N641 Mn625 2.282 1_545 S
N641 C642 1.328 . S
N641 C646 1.318 . S
C642 N641 1.328 . S
C642 C643 1.457 . S
C642 H647 0.929 . S
C643 C642 1.457 . S
C643 C644 1.291 . S
C643 H656 0.931 . S
C644 C643 1.291 . S
C644 C645 1.373 . S
C644 H657 0.929 . S
C645 C644 1.373 . S
C645 C646 1.396 . S
C645 C652 1.403 . S
C646 C636 1.476 1_545 S
C646 N641 1.318 . S
C646 C645 1.396 . S
H647 C642 0.929 . S
O648 Mn624 2.385 . S
O648 C626 1.234 . S
O649 Mn624 2.209 . S
O649 Mn625 2.215 . S
O649 C626 1.283 . S
O650 Mn624 2.094 . S
O650 C628 1.240 . S
O651 Mn625 2.117 . S
O651 C628 1.264 . S
C652 C645 1.403 . S
C652 C653 1.399 . S
C652 H658 0.929 . S
C653 C633 1.449 . S
C653 C652 1.399 . S
C653 H659 0.930 . S
H654 C634 0.931 . S
H655 C635 0.930 . S
H656 C643 0.931 . S
H657 C644 0.929 . S
H658 C652 0.929 . S
H659 C653 0.930 . S
C627 C51 1.877 . S
C125 C447 1.741 . S
C217 C494 3.453 . S
C291 C530 1.998 . S
C555 C347 1.353 . S
C421 C591 1.168 . S
C143 C483 2.981 . S
C199 C519 1.715 . S
C273 C566 0.851 . S
C602 C365 2.193 . S
C638 C439 2.602 . S
C458 C69 3.589 . S
C63 C482 2.261 . S
C137 C518 2.139 . S
C556 C187 2.225 . S
C261 C592 2.037 . S
C628 C359 2.487 1_565 S
C448 C433 1.746 . S
C626 C113 2.304 . S
C211 C446 1.859 . S
C484 C285 2.347 . S
C335 C520 2.329 . S
C409 C554 2.198 1_554 S
C39 C590 2.168 . S
