# Generated by pormake.
# Topology eea, (3,6)-cn, num edge types: 1
# Building blocks:
#     Node 0, Type 0, BuildingBlock: BETDIP_clean_linker_0, # of connection points: 3
#     Node 1, Type 0, BuildingBlock: BETDIP_clean_linker_0, # of connection points: 3
#     Node 2, Type 0, BuildingBlock: BETDIP_clean_linker_0, # of connection points: 3
#     Node 3, Type 0, BuildingBlock: BETDIP_clean_linker_0, # of connection points: 3
#     Node 4, Type 0, BuildingBlock: BETDIP_clean_linker_0, # of connection points: 3
#     Node 5, Type 0, BuildingBlock: BETDIP_clean_linker_0, # of connection points: 3
#     Node 6, Type 0, BuildingBlock: BETDIP_clean_linker_0, # of connection points: 3
#     Node 7, Type 0, BuildingBlock: BETDIP_clean_linker_0, # of connection points: 3
#     Node 8, Type 0, BuildingBlock: BETDIP_clean_linker_0, # of connection points: 3
#     Node 9, Type 0, BuildingBlock: BETDIP_clean_linker_0, # of connection points: 3
#     Node 10, Type 0, BuildingBlock: BETDIP_clean_linker_0, # of connection points: 3
#     Node 11, Type 0, BuildingBlock: BETDIP_clean_linker_0, # of connection points: 3
#     Node 12, Type 0, BuildingBlock: BETDIP_clean_linker_0, # of connection points: 3
#     Node 13, Type 0, BuildingBlock: BETDIP_clean_linker_0, # of connection points: 3
#     Node 14, Type 0, BuildingBlock: BETDIP_clean_linker_0, # of connection points: 3
#     Node 15, Type 0, BuildingBlock: BETDIP_clean_linker_0, # of connection points: 3
#     Node 16, Type 0, BuildingBlock: BETDIP_clean_linker_0, # of connection points: 3
#     Node 17, Type 0, BuildingBlock: BETDIP_clean_linker_0, # of connection points: 3
#     Node 18, Type 1, BuildingBlock: KUMBOL_clean_sbu_0, # of connection points: 6
#     Node 19, Type 1, BuildingBlock: KUMBOL_clean_sbu_0, # of connection points: 6
#     Node 20, Type 1, BuildingBlock: KUMBOL_clean_sbu_0, # of connection points: 6
#     Node 21, Type 1, BuildingBlock: KUMBOL_clean_sbu_0, # of connection points: 6
#     Node 22, Type 1, BuildingBlock: KUMBOL_clean_sbu_0, # of connection points: 6
#     Node 23, Type 1, BuildingBlock: KUMBOL_clean_sbu_0, # of connection points: 6
#     Node 24, Type 1, BuildingBlock: KUMBOL_clean_sbu_0, # of connection points: 6
#     Node 25, Type 1, BuildingBlock: KUMBOL_clean_sbu_0, # of connection points: 6
#     Node 26, Type 1, BuildingBlock: KUMBOL_clean_sbu_0, # of connection points: 6
#     Edge 27, Type (0, 1), BuildingBlock: TEMPAE_clean_linker_10, # of connection points: 2
#     Edge 28, Type (0, 1), BuildingBlock: TEMPAE_clean_linker_10, # of connection points: 2
#     Edge 29, Type (0, 1), BuildingBlock: TEMPAE_clean_linker_10, # of connection points: 2
#     Edge 30, Type (0, 1), BuildingBlock: TEMPAE_clean_linker_10, # of connection points: 2
#     Edge 31, Type (0, 1), BuildingBlock: TEMPAE_clean_linker_10, # of connection points: 2
#     Edge 32, Type (0, 1), BuildingBlock: TEMPAE_clean_linker_10, # of connection points: 2
#     Edge 33, Type (0, 1), BuildingBlock: TEMPAE_clean_linker_10, # of connection points: 2
#     Edge 34, Type (0, 1), BuildingBlock: TEMPAE_clean_linker_10, # of connection points: 2
#     Edge 35, Type (0, 1), BuildingBlock: TEMPAE_clean_linker_10, # of connection points: 2
#     Edge 36, Type (0, 1), BuildingBlock: TEMPAE_clean_linker_10, # of connection points: 2
#     Edge 37, Type (0, 1), BuildingBlock: TEMPAE_clean_linker_10, # of connection points: 2
#     Edge 38, Type (0, 1), BuildingBlock: TEMPAE_clean_linker_10, # of connection points: 2
#     Edge 39, Type (0, 1), BuildingBlock: TEMPAE_clean_linker_10, # of connection points: 2
#     Edge 40, Type (0, 1), BuildingBlock: TEMPAE_clean_linker_10, # of connection points: 2
#     Edge 41, Type (0, 1), BuildingBlock: TEMPAE_clean_linker_10, # of connection points: 2
#     Edge 42, Type (0, 1), BuildingBlock: TEMPAE_clean_linker_10, # of connection points: 2
#     Edge 43, Type (0, 1), BuildingBlock: TEMPAE_clean_linker_10, # of connection points: 2
#     Edge 44, Type (0, 1), BuildingBlock: TEMPAE_clean_linker_10, # of connection points: 2
#     Edge 45, Type (0, 1), BuildingBlock: TEMPAE_clean_linker_10, # of connection points: 2
#     Edge 46, Type (0, 1), BuildingBlock: TEMPAE_clean_linker_10, # of connection points: 2
#     Edge 47, Type (0, 1), BuildingBlock: TEMPAE_clean_linker_10, # of connection points: 2
#     Edge 48, Type (0, 1), BuildingBlock: TEMPAE_clean_linker_10, # of connection points: 2
#     Edge 49, Type (0, 1), BuildingBlock: TEMPAE_clean_linker_10, # of connection points: 2
#     Edge 50, Type (0, 1), BuildingBlock: TEMPAE_clean_linker_10, # of connection points: 2
#     Edge 51, Type (0, 1), BuildingBlock: TEMPAE_clean_linker_10, # of connection points: 2
#     Edge 52, Type (0, 1), BuildingBlock: TEMPAE_clean_linker_10, # of connection points: 2
#     Edge 53, Type (0, 1), BuildingBlock: TEMPAE_clean_linker_10, # of connection points: 2
#     Edge 54, Type (0, 1), BuildingBlock: TEMPAE_clean_linker_10, # of connection points: 2
#     Edge 55, Type (0, 1), BuildingBlock: TEMPAE_clean_linker_10, # of connection points: 2
#     Edge 56, Type (0, 1), BuildingBlock: TEMPAE_clean_linker_10, # of connection points: 2
#     Edge 57, Type (0, 1), BuildingBlock: TEMPAE_clean_linker_10, # of connection points: 2
#     Edge 58, Type (0, 1), BuildingBlock: TEMPAE_clean_linker_10, # of connection points: 2
#     Edge 59, Type (0, 1), BuildingBlock: TEMPAE_clean_linker_10, # of connection points: 2
#     Edge 60, Type (0, 1), BuildingBlock: TEMPAE_clean_linker_10, # of connection points: 2
#     Edge 61, Type (0, 1), BuildingBlock: TEMPAE_clean_linker_10, # of connection points: 2
#     Edge 62, Type (0, 1), BuildingBlock: TEMPAE_clean_linker_10, # of connection points: 2
#     Edge 63, Type (0, 1), BuildingBlock: TEMPAE_clean_linker_10, # of connection points: 2
#     Edge 64, Type (0, 1), BuildingBlock: TEMPAE_clean_linker_10, # of connection points: 2
#     Edge 65, Type (0, 1), BuildingBlock: TEMPAE_clean_linker_10, # of connection points: 2
#     Edge 66, Type (0, 1), BuildingBlock: TEMPAE_clean_linker_10, # of connection points: 2
#     Edge 67, Type (0, 1), BuildingBlock: TEMPAE_clean_linker_10, # of connection points: 2
#     Edge 68, Type (0, 1), BuildingBlock: TEMPAE_clean_linker_10, # of connection points: 2
#     Edge 69, Type (0, 1), BuildingBlock: TEMPAE_clean_linker_10, # of connection points: 2
#     Edge 70, Type (0, 1), BuildingBlock: TEMPAE_clean_linker_10, # of connection points: 2
#     Edge 71, Type (0, 1), BuildingBlock: TEMPAE_clean_linker_10, # of connection points: 2
#     Edge 72, Type (0, 1), BuildingBlock: TEMPAE_clean_linker_10, # of connection points: 2
#     Edge 73, Type (0, 1), BuildingBlock: TEMPAE_clean_linker_10, # of connection points: 2
#     Edge 74, Type (0, 1), BuildingBlock: TEMPAE_clean_linker_10, # of connection points: 2
#     Edge 75, Type (0, 1), BuildingBlock: TEMPAE_clean_linker_10, # of connection points: 2
#     Edge 76, Type (0, 1), BuildingBlock: TEMPAE_clean_linker_10, # of connection points: 2
#     Edge 77, Type (0, 1), BuildingBlock: TEMPAE_clean_linker_10, # of connection points: 2
#     Edge 78, Type (0, 1), BuildingBlock: TEMPAE_clean_linker_10, # of connection points: 2
#     Edge 79, Type (0, 1), BuildingBlock: TEMPAE_clean_linker_10, # of connection points: 2
#     Edge 80, Type (0, 1), BuildingBlock: TEMPAE_clean_linker_10, # of connection points: 2
# Relax obj value: 0.025
# Max RMSD: 0.165
# Mean RMSD: 0.120
data_MOF--net-eea--node1-KUMBOL_clean_sbu_0--node2-BETDIP_clean_linker_0--edge1-TEMPAE_clean_linker_10
_symmetry_space_group_name_H-M    P1
_symmetry_Int_Tables_number       1
_symmetry_cell_setting            triclinic
loop_
_symmetry_equiv_pos_as_xyz
'x, y, z'
_cell_length_a     55.027029
_cell_length_b     56.51111
_cell_length_c     67.567108
_cell_angle_alpha  89.965893
_cell_angle_beta   90.094181
_cell_angle_gamma 119.86794
loop_
_atom_site_label
_atom_site_type_symbol
_atom_site_fract_x
_atom_site_fract_y
_atom_site_fract_z
_atom_type_partial_charge
H0 H 0.22492 0.09559 0.37848 0.0
H1 H 0.25285 0.15072 0.42799 0.0
H2 H 0.25875 0.07773 0.43018 0.0
H3 H 0.2094 0.14985 0.41624 0.0
C4 C 0.21767 0.15576 0.40134 0.0
C5 C 0.2339 0.10093 0.3932 0.0
C6 C 0.24132 0.08374 0.4033 0.0
C7 C 0.23759 0.12482 0.40215 0.0
C8 C 0.2495 0.13199 0.42115 0.0
C9 C 0.2572 0.11508 0.43131 0.0
C10 C 0.25297 0.09095 0.42233 0.0
N11 N 0.22954 0.14159 0.39172 0.0
H12 H 0.92371 0.12385 0.38174 0.0
H13 H 0.87374 0.09573 0.43416 0.0
H14 H 0.94496 0.17628 0.43308 0.0
H15 H 0.87501 0.05605 0.42419 0.0
C16 C 0.86813 0.05608 0.4091 0.0
C17 C 0.92023 0.12772 0.39686 0.0
C18 C 0.93801 0.15314 0.40598 0.0
C19 C 0.89781 0.10669 0.40723 0.0
C20 C 0.89166 0.11162 0.4264 0.0
C21 C 0.90813 0.13699 0.43556 0.0
C22 C 0.93174 0.15723 0.42554 0.0
N23 N 0.88121 0.0808 0.39806 0.0
H24 H 0.89397 0.80736 0.38827 0.0
H25 H 0.91924 0.77424 0.43613 0.0
H26 H 0.83923 0.77025 0.43817 0.0
H27 H 0.96257 0.81042 0.42739 0.0
C28 C 0.96159 0.80781 0.41142 0.0
C29 C 0.88955 0.79717 0.40249 0.0
C30 C 0.86383 0.78934 0.41209 0.0
C31 C 0.9101 0.79272 0.41138 0.0
C32 C 0.90426 0.77919 0.42978 0.0
C33 C 0.87872 0.77092 0.43965 0.0
C34 C 0.85888 0.77639 0.4307 0.0
N35 N 0.93612 0.80126 0.40138 0.0
H36 H 0.08666 0.19562 0.64127 0.0
H37 H 0.14193 0.22341 0.59103 0.0
H38 H 0.06896 0.23235 0.59141 0.0
H39 H 0.14715 0.18694 0.60073 0.0
C40 C 0.15093 0.19154 0.61643 0.0
C41 C 0.09198 0.20499 0.62676 0.0
C42 C 0.07424 0.21303 0.61737 0.0
C43 C 0.11617 0.20812 0.6172 0.0
C44 C 0.12309 0.22033 0.59834 0.0
C45 C 0.10605 0.22892 0.58884 0.0
C46 C 0.08172 0.22509 0.59846 0.0
N47 N 0.13363 0.19954 0.6269 0.0
H48 H 0.81392 0.89182 0.64469 0.0
H49 H 0.79713 0.92326 0.59183 0.0
H50 H 0.76606 0.83688 0.59813 0.0
H51 H 0.83815 0.96205 0.60224 0.0
C52 C 0.83125 0.96139 0.6174 0.0
C53 C 0.8043 0.88833 0.63018 0.0
C54 C 0.79072 0.86206 0.62206 0.0
C55 C 0.80662 0.91039 0.61929 0.0
C56 C 0.79483 0.906 0.60022 0.0
C57 C 0.77979 0.8795 0.59219 0.0
C58 C 0.77783 0.85765 0.60348 0.0
N59 N 0.81976 0.9366 0.62822 0.0
H60 H 0.11906 0.91704 0.64122 0.0
H61 H 0.09644 0.8593 0.59363 0.0
H62 H 0.17755 0.93173 0.59428 0.0
H63 H 0.05288 0.85386 0.60044 0.0
C64 C 0.05293 0.85274 0.61649 0.0
C65 C 0.12427 0.91089 0.62741 0.0
C66 C 0.1509 0.92699 0.61897 0.0
C67 C 0.10426 0.88681 0.61811 0.0
C68 C 0.11126 0.87852 0.60038 0.0
C69 C 0.13775 0.89449 0.59166 0.0
C70 C 0.15734 0.91877 0.60108 0.0
N71 N 0.07758 0.87087 0.62717 0.0
H72 H 0.88178 0.42869 0.71602 0.0
H73 H 0.91739 0.48467 0.76466 0.0
H74 H 0.91453 0.40723 0.76646 0.0
H75 H 0.87954 0.49124 0.7557 0.0
C76 C 0.88351 0.49379 0.73987 0.0
C77 C 0.8918 0.43369 0.73043 0.0
C78 C 0.8975 0.41508 0.74021 0.0
C79 C 0.89785 0.45827 0.73954 0.0
C80 C 0.91125 0.465 0.75811 0.0
C81 C 0.91773 0.44686 0.76788 0.0
C82 C 0.91023 0.4217 0.75894 0.0
N83 N 0.8906 0.47609 0.72967 0.0
H84 H 0.59335 0.46126 0.71404 0.0
H85 H 0.54357 0.42927 0.76617 0.0
H86 H 0.61463 0.50974 0.76755 0.0
H87 H 0.54578 0.39065 0.75433 0.0
C88 C 0.53867 0.39157 0.73947 0.0
C89 C 0.59001 0.46405 0.72943 0.0
C90 C 0.60777 0.48881 0.73938 0.0
C91 C 0.56774 0.44222 0.73929 0.0
C92 C 0.5615 0.44572 0.75881 0.0
C93 C 0.57784 0.47041 0.76879 0.0
C94 C 0.60149 0.49135 0.75929 0.0
N95 N 0.55136 0.41698 0.7293 0.0
H96 H 0.56196 0.14598 0.71779 0.0
H97 H 0.58672 0.11473 0.76732 0.0
H98 H 0.50715 0.11126 0.76806 0.0
H99 H 0.63003 0.14997 0.75779 0.0
C100 C 0.629 0.14626 0.74195 0.0
C101 C 0.55748 0.13645 0.73225 0.0
C102 C 0.53199 0.12963 0.74186 0.0
C103 C 0.57776 0.13183 0.7415 0.0
C104 C 0.57181 0.11923 0.76026 0.0
C105 C 0.54655 0.11213 0.77 0.0
C106 C 0.52694 0.1175 0.76074 0.0
N107 N 0.60367 0.13949 0.73163 0.0
H108 H 0.7544 0.52544 0.97489 0.0
H109 H 0.8104 0.55369 0.92509 0.0
H110 H 0.73685 0.56163 0.92456 0.0
H111 H 0.81577 0.51727 0.93481 0.0
C112 C 0.81922 0.52173 0.95054 0.0
C113 C 0.75983 0.53479 0.96038 0.0
C114 C 0.74219 0.54289 0.95088 0.0
C115 C 0.78408 0.53787 0.95096 0.0
C116 C 0.79114 0.55 0.93208 0.0
C117 C 0.77421 0.55858 0.92242 0.0
C118 C 0.74985 0.55492 0.93195 0.0
N119 N 0.80156 0.52945 0.96084 0.0
H120 H 0.4851 0.22442 0.97063 0.0
H121 H 0.45538 0.24918 0.92028 0.0
H122 H 0.44504 0.16867 0.92226 0.0
H123 H 0.49611 0.29116 0.92904 0.0
C124 C 0.4906 0.29023 0.94457 0.0
C125 C 0.475 0.21987 0.95625 0.0
C126 C 0.4657 0.19425 0.94751 0.0
C127 C 0.4722 0.24004 0.94621 0.0
C128 C 0.45888 0.23412 0.92766 0.0
C129 C 0.44874 0.20831 0.91903 0.0
C130 C 0.45256 0.18857 0.92892 0.0
N131 N 0.48188 0.26576 0.95539 0.0
H132 H 0.78487 0.24829 0.97757 0.0
H133 H 0.76032 0.19435 0.92727 0.0
H134 H 0.84102 0.26696 0.92828 0.0
H135 H 0.71691 0.18748 0.93671 0.0
C136 C 0.71803 0.18475 0.95254 0.0
C137 C 0.7894 0.24331 0.96305 0.0
C138 C 0.81545 0.26045 0.95409 0.0
C139 C 0.76915 0.21963 0.95338 0.0
C140 C 0.77536 0.21292 0.93469 0.0
C141 C 0.80114 0.23006 0.9255 0.0
C142 C 0.82101 0.25375 0.93528 0.0
N143 N 0.74312 0.20247 0.96297 0.0
H144 H 0.53711 0.74933 0.05631 0.0
H145 H 0.56919 0.80557 0.10517 0.0
H146 H 0.58172 0.7364 0.1036 0.0
H147 H 0.5273 0.8067 0.09715 0.0
C148 C 0.53164 0.81025 0.08141 0.0
C149 C 0.54807 0.75546 0.07036 0.0
C150 C 0.55902 0.74007 0.07885 0.0
C151 C 0.55123 0.77881 0.07989 0.0
C152 C 0.56598 0.78714 0.09791 0.0
C153 C 0.57689 0.77181 0.10653 0.0
C154 C 0.57328 0.74828 0.09697 0.0
N155 N 0.54038 0.79419 0.0707 0.0
H156 H 0.26482 0.79244 0.04996 0.0
H157 H 0.20608 0.76776 0.09798 0.0
H158 H 0.28103 0.84603 0.0998 0.0
H159 H 0.17602 0.75115 0.06916 0.0
C160 C 0.18569 0.73977 0.06353 0.0
C161 C 0.2588 0.79681 0.06416 0.0
C162 C 0.2763 0.82175 0.07381 0.0
C163 C 0.23321 0.77755 0.0726 0.0
C164 C 0.22558 0.78278 0.09122 0.0
C165 C 0.24283 0.80736 0.10117 0.0
C166 C 0.26797 0.82682 0.09229 0.0
N167 N 0.21541 0.75291 0.06229 0.0
H168 H 0.22976 0.4765 0.05371 0.0
H169 H 0.2538 0.44173 0.10115 0.0
H170 H 0.17467 0.4396 0.10345 0.0
H171 H 0.29747 0.4786 0.09297 0.0
C172 C 0.29665 0.47576 0.07702 0.0
C173 C 0.22514 0.46612 0.06785 0.0
C174 C 0.19952 0.45866 0.07748 0.0
C175 C 0.24533 0.46106 0.07666 0.0
C176 C 0.23913 0.44719 0.09492 0.0
C177 C 0.21366 0.43923 0.10478 0.0
C178 C 0.19425 0.44543 0.09598 0.0
N179 N 0.27136 0.46936 0.06677 0.0
H180 H 0.41992 0.85875 0.31052 0.0
H181 H 0.4779 0.88913 0.26182 0.0
H182 H 0.40497 0.89806 0.26096 0.0
H183 H 0.48193 0.85152 0.27067 0.0
C184 C 0.48514 0.85542 0.28648 0.0
C185 C 0.42603 0.86886 0.29628 0.0
C186 C 0.40896 0.87766 0.2868 0.0
C187 C 0.45058 0.8722 0.28714 0.0
C188 C 0.45847 0.88532 0.26862 0.0
C189 C 0.44215 0.8947 0.2591 0.0
C190 C 0.41751 0.89075 0.26829 0.0
N191 N 0.46749 0.86302 0.29691 0.0
H192 H 0.12467 0.54782 0.31556 0.0
H193 H 0.10255 0.57478 0.26266 0.0
H194 H 0.08133 0.49096 0.26828 0.0
H195 H 0.14609 0.61383 0.27089 0.0
C196 C 0.14056 0.6149 0.28617 0.0
C197 C 0.1151 0.54328 0.301 0.0
C198 C 0.10314 0.51675 0.29324 0.0
C199 C 0.11545 0.56431 0.28989 0.0
C200 C 0.1027 0.55861 0.27116 0.0
C201 C 0.09004 0.53211 0.26335 0.0
C202 C 0.09054 0.51133 0.27442 0.0
N203 N 0.12826 0.59097 0.29799 0.0
H204 H 0.44858 0.5833 0.30644 0.0
H205 H 0.42398 0.52757 0.25724 0.0
H206 H 0.50627 0.59798 0.25877 0.0
H207 H 0.38105 0.52264 0.26501 0.0
C208 C 0.38118 0.52082 0.28102 0.0
C209 C 0.45337 0.57752 0.29231 0.0
C210 C 0.48003 0.59349 0.2838 0.0
C211 C 0.43279 0.55398 0.28269 0.0
C212 C 0.43929 0.54609 0.26458 0.0
C213 C 0.46569 0.56202 0.25583 0.0
C214 C 0.48584 0.58568 0.26549 0.0
N215 N 0.40607 0.53818 0.29177 0.0
Gd216 Gd 0.51051 0.01765 0.03983 0.0
Gd217 Gd 0.48769 0.98791 0.98948 0.0
C218 C 0.4019 0.91298 0.97836 0.0
C219 C 0.41423 0.87838 0.97028 0.0
C220 C 0.45065 0.92488 0.97745 0.0
C221 C 0.43055 0.93225 0.98078 0.0
C222 C 0.44279 0.898 0.97179 0.0
C223 C 0.39381 0.88588 0.9735 0.0
C224 C 0.38229 0.92171 0.98039 0.0
C225 C 0.39146 0.94906 0.98457 0.0
N226 N 0.43911 0.95858 0.98552 0.0
C227 C 0.42011 0.96737 0.9869 0.0
H228 H 0.42679 0.9884 0.99015 0.0
C229 C 0.49863 0.93901 0.97327 0.0
N230 N 0.47799 0.94444 0.97877 0.0
C231 C 0.49191 0.91257 0.96779 0.0
C232 C 0.46387 0.89188 0.96729 0.0
H233 H 0.52034 0.95493 0.97378 0.0
H234 H 0.37187 0.87071 0.97183 0.0
H235 H 0.57144 0.01728 0.0393 0.0
H236 H 0.36013 0.90767 0.97832 0.0
H237 H 0.37648 0.95606 0.98599 0.0
H238 H 0.40774 0.85754 0.96614 0.0
H239 H 0.47782 0.05053 0.05572 0.0
H240 H 0.63813 0.09849 0.0498 0.0
H241 H 0.62183 0.04991 0.04286 0.0
H242 H 0.5903 0.14842 0.06204 0.0
H243 H 0.50835 0.90817 0.96397 0.0
H244 H 0.45871 0.87144 0.96295 0.0
H245 H 0.62624 0.13539 0.05617 0.0
H246 H 0.48975 0.09739 0.06522 0.0
N247 N 0.55907 0.04711 0.04362 0.0
C248 C 0.61593 0.0843 0.04807 0.0
C249 C 0.6068 0.05685 0.04428 0.0
C250 C 0.59627 0.09293 0.05017 0.0
C251 C 0.56759 0.07352 0.04808 0.0
C252 C 0.57812 0.03838 0.0423 0.0
N253 N 0.52014 0.06115 0.05042 0.0
C254 C 0.54747 0.08082 0.05149 0.0
C255 C 0.50618 0.09303 0.06133 0.0
C256 C 0.53419 0.11383 0.06152 0.0
C257 C 0.49951 0.06653 0.05603 0.0
C258 C 0.55529 0.10776 0.05693 0.0
H259 H 0.53932 0.13431 0.0657 0.0
O260 O 0.48818 0.00663 0.06783 0.0
O261 O 0.477 0.98585 0.02125 0.0
O262 O 0.47549 0.02001 0.9967 0.0
O263 O 0.507 0.04833 0.0208 0.0
O264 O 0.46395 0.00221 0.04308 0.0
O265 O 0.52393 0.00091 0.06368 0.0
O266 O 0.51004 0.99901 0.96149 0.0
O267 O 0.52119 0.01962 0.00808 0.0
O268 O 0.52254 0.98539 0.03274 0.0
O269 O 0.49112 0.95717 0.00854 0.0
O270 O 0.53423 0.00323 0.98629 0.0
O271 O 0.47453 0.00506 0.96573 0.0
C272 C 0.45553 0.98416 0.02922 0.0
C273 C 0.58384 0.12753 0.05809 0.0
C274 C 0.6043 0.12011 0.05476 0.0
C275 C 0.50512 -0.00037 0.07605 0.0
C276 C 0.51498 0.01035 0.0961 0.0
C277 C 0.53455 0.03801 0.09893 0.0
C278 C 0.50441 0.9929 0.1126 0.0
C279 C 0.51329 0.00304 0.13194 0.0
C280 C 0.54336 0.04824 0.11797 0.0
C281 C 0.53281 0.03099 0.13436 0.0
C282 C 0.48897 0.04357 0.00632 0.0
C283 C 0.54266 0.02126 1.00016 0.0
C284 C 0.49328 0.0063 0.95333 0.0
C285 C 0.48338 0.99579 0.93323 0.0
C286 C 0.4645 0.96799 0.93023 0.0
C287 C 0.4932 0.01355 0.91685 0.0
C288 C 0.48429 0.00357 0.89746 0.0
C289 C 0.45568 0.95792 0.91117 0.0
C290 C 0.46553 0.97545 0.89491 0.0
C291 C 0.50897 0.96181 0.02314 0.0
H292 H 0.54292 0.0517 0.08646 0.0
H293 H 0.48951 0.97146 0.11031 0.0
H294 H 0.55833 0.06967 0.12006 0.0
H295 H 0.53968 0.03969 0.14896 0.0
H296 H 0.4567 0.95406 0.9426 0.0
H297 H 0.50753 0.0351 0.91926 0.0
H298 H 0.44127 0.93637 0.90897 0.0
H299 H 0.45868 0.96684 0.88028 0.0
Gd300 Gd 0.99422 0.48861 0.03878 0.0
Gd301 Gd 0.02692 0.49751 0.9896 0.0
C302 C 0.10234 0.48488 0.9828 0.0
C303 C 0.13921 0.5302 0.97343 0.0
C304 C 0.09195 0.52158 0.97957 0.0
C305 C 0.08334 0.49473 0.98416 0.0
C306 C 0.11976 0.53941 0.97353 0.0
C307 C 0.13048 0.50293 0.97798 0.0
C308 C 0.09223 0.45699 0.98553 0.0
C309 C 0.06382 0.43963 0.98927 0.0
N310 N 0.05591 0.47777 0.98847 0.0
C311 C 0.0458 0.45035 0.99045 0.0
H312 H 0.02393 0.43655 0.99332 0.0
C313 C 0.07849 0.55389 0.97082 0.0
N314 N 0.0724 0.52947 0.97909 0.0
C315 C 0.10589 0.57254 0.96504 0.0
C316 C 0.12677 0.56546 0.96675 0.0
H317 H 0.06227 0.55927 0.96935 0.0
H318 H 0.14544 0.49581 0.97708 0.0
H319 H 0.9958 0.54897 0.03575 0.0
H320 H 0.10598 0.44851 0.98416 0.0
H321 H 0.05573 0.41796 0.99114 0.0
H322 H 0.16075 0.54367 0.96906 0.0
H323 H 0.95977 0.42636 0.05849 0.0
H324 H 0.91297 0.53505 0.04467 0.0
H325 H 0.96313 0.56654 0.03808 0.0
H326 H 0.85976 0.43952 0.05888 0.0
H327 H 0.11084 0.59226 0.95917 0.0
H328 H 0.14791 0.57978 0.96202 0.0
H329 H 0.87411 0.48726 0.05117 0.0
H330 H 0.91139 0.39258 0.06852 0.0
N331 N 0.96437 0.50739 0.04003 0.0
C332 C 0.92709 0.52701 0.04317 0.0
C333 C 0.95545 0.5449 0.03968 0.0
C334 C 0.9175 0.49916 0.04558 0.0
C335 C 0.93697 0.4899 0.04414 0.0
C336 C 0.97396 0.53476 0.03839 0.0
N337 N 0.94895 0.45585 0.04916 0.0
C338 C 0.92894 0.46316 0.04867 0.0
C339 C 0.91598 0.41229 0.06284 0.0
C340 C 0.89471 0.41882 0.06116 0.0
C341 C 0.9433 0.43142 0.05719 0.0
C342 C 0.9012 0.4448 0.05455 0.0
H343 H 0.87363 0.4041 0.06577 0.0
O344 O 1.00273 0.4772 0.06761 0.0
O345 O 0.02964 0.49037 0.02171 0.0
O346 O 0.99214 0.4536 0.9942 0.0
O347 O 0.96452 0.45154 0.02121 0.0
O348 O 0.01152 0.46001 0.04267 0.0
O349 O 0.00878 0.51772 0.06294 0.0
O350 O 0.01766 0.5092 0.96116 0.0
O351 O 0.99176 0.49596 0.00676 0.0
O352 O 0.02827 0.53272 0.03384 0.0
O353 O 0.05612 0.5352 0.00683 0.0
O354 O 0.00977 0.52629 0.98578 0.0
O355 O 0.01286 0.46903 0.965 0.0
C356 C 0.03154 0.47126 0.02994 0.0
C357 C 0.88126 0.45341 0.05463 0.0
C358 C 0.88944 0.4806 0.05025 0.0
C359 C 0.00831 0.50025 0.07576 0.0
C360 C 0.99415 0.49829 0.0946 0.0
C361 C 0.96687 0.49428 0.09497 0.0
C362 C 0.00807 0.5004 0.11245 0.0
C363 C 0.99478 0.49837 0.13065 0.0
C364 C 0.95346 0.49195 0.11296 0.0
C365 C 0.96727 0.49393 0.13073 0.0
C366 C 0.96935 0.44086 0.00533 0.0
C367 C 0.98984 0.51508 0.9986 0.0
C368 C 0.01228 0.48645 0.95262 0.0
C369 C 0.02558 0.48908 0.93331 0.0
C370 C 0.0537 0.49571 0.93192 0.0
C371 C 0.01002 0.48539 0.916 0.0
C372 C 0.02254 0.48868 0.89732 0.0
C373 C 0.06631 0.49917 0.91344 0.0
C374 C 0.0509 0.4958 0.89619 0.0
C375 C 0.0509 0.54582 0.02259 0.0
H376 H 0.956 0.49314 0.08145 0.0
H377 H 0.02916 0.5035 0.11217 0.0
H378 H 0.93239 0.48885 0.11311 0.0
H379 H 0.95667 0.49258 0.14454 0.0
H380 H 0.06588 0.49816 0.94505 0.0
H381 H 0.98827 0.48025 0.91706 0.0
H382 H 0.08804 0.50436 0.91247 0.0
H383 H 0.06096 0.49825 0.88198 0.0
Gd384 Gd 0.50928 0.51721 0.98907 0.0
Gd385 Gd 0.53134 0.50684 0.03842 0.0
C386 C 0.61721 0.51451 0.04707 0.0
C387 C 0.60494 0.4676 0.05386 0.0
C388 C 0.56843 0.47914 0.04822 0.0
C389 C 0.58851 0.50616 0.04527 0.0
C390 C 0.57637 0.45964 0.05295 0.0
C391 C 0.62533 0.495 0.05097 0.0
C392 C 0.63685 0.54229 0.04533 0.0
C393 C 0.62768 0.56098 0.04211 0.0
N394 N 0.57995 0.52446 0.04146 0.0
C395 C 0.59899 0.55171 0.0404 0.0
H396 H 0.59226 0.5664 0.03785 0.0
C397 C 0.52052 0.4466 0.05276 0.0
N398 N 0.54104 0.47221 0.04747 0.0
C399 C 0.52733 0.42646 0.05733 0.0
C400 C 0.55536 0.43291 0.05717 0.0
H401 H 0.49882 0.44156 0.05275 0.0
H402 H 0.64729 0.50099 0.05216 0.0
H403 H 0.44706 0.45892 0.99064 0.0
H404 H 0.65906 0.54959 0.04688 0.0
H405 H 0.6427 0.58254 0.04094 0.0
H406 H 0.61148 0.45287 0.05727 0.0
H407 H 0.54282 0.57942 0.96937 0.0
H408 H 0.38216 0.47802 0.9803 0.0
H409 H 0.39699 0.4442 0.98754 0.0
H410 H 0.43257 0.57341 0.96508 0.0
H411 H 0.51098 0.40599 0.06096 0.0
H412 H 0.5606 0.4173 0.0608 0.0
H413 H 0.39556 0.52662 0.97301 0.0
H414 H 0.53236 0.61496 0.95785 0.0
N415 N 0.46078 0.50106 0.98618 0.0
C416 C 0.40422 0.48473 0.98204 0.0
C417 C 0.41253 0.46555 0.98593 0.0
C418 C 0.42454 0.51215 0.97952 0.0
C419 C 0.45302 0.5197 0.98148 0.0
C420 C 0.44105 0.47404 0.98766 0.0
N421 N 0.50069 0.55156 0.97741 0.0
C422 C 0.47371 0.54589 0.977 0.0
C423 C 0.51567 0.59568 0.96332 0.0
C424 C 0.48819 0.59083 0.96403 0.0
C425 C 0.52152 0.57552 0.96981 0.0
C426 C 0.46668 0.56544 0.9705 0.0
H427 H 0.48368 0.60641 0.95891 0.0
O428 O 0.53166 0.52644 0.96114 0.0
O429 O 0.54261 0.51607 0.00683 0.0
O430 O 0.54291 0.55108 0.0337 0.0
O431 O 0.51642 0.55341 0.00729 0.0
O432 O 0.55608 0.54615 0.98587 0.0
O433 O 0.49373 0.48759 0.96518 0.0
O434 O 0.50916 0.49424 0.06637 0.0
O435 O 0.49811 0.50874 0.02092 0.0
O436 O 0.49573 0.47266 0.99534 0.0
O437 O 0.52762 0.47368 0.01842 0.0
O438 O 0.4847 0.47755 0.0412 0.0
O439 O 0.54607 0.53434 0.06361 0.0
C440 C 0.56437 0.53524 0.99907 0.0
C441 C 0.4384 0.55858 0.96979 0.0
C442 C 0.41734 0.53194 0.97429 0.0
C443 C 0.51312 0.50377 0.95285 0.0
C444 C 0.50373 0.50639 0.93304 0.0
C445 C 0.48281 0.51343 0.93061 0.0
C446 C 0.51642 0.50247 0.91634 0.0
C447 C 0.50847 0.50579 0.8972 0.0
C448 C 0.47485 0.5168 0.91167 0.0
C449 C 0.48762 0.51309 0.89503 0.0
C450 C 0.53245 0.56379 0.02317 0.0
C451 C 0.47647 0.48917 0.02853 0.0
C452 C 0.52688 0.51666 0.07544 0.0
C453 C 0.53627 0.51325 0.09505 0.0
C454 C 0.55511 0.50353 0.09707 0.0
C455 C 0.52561 0.5192 0.112 0.0
C456 C 0.53339 0.51515 0.13105 0.0
C457 C 0.56296 0.49946 0.11584 0.0
C458 C 0.55212 0.50508 0.13274 0.0
C459 C 0.50936 0.46163 0.00399 0.0
H460 H 0.47267 0.51633 0.94328 0.0
H461 H 0.53274 0.49722 0.91826 0.0
H462 H 0.4587 0.52225 0.90987 0.0
H463 H 0.4809 0.51552 0.88047 0.0
H464 H 0.56365 0.49899 0.0842 0.0
H465 H 0.51144 0.52718 0.11029 0.0
H466 H 0.57737 0.49175 0.11731 0.0
H467 H 0.55819 0.50123 0.1471 0.0
Gd468 Gd 0.17062 0.34693 0.36736 0.0
Gd469 Gd 0.15115 0.32195 0.31616 0.0
C470 C 0.06843 0.29602 0.28413 0.0
C471 C 0.04005 0.24863 0.29411 0.0
C472 C 0.08776 0.27603 0.30638 0.0
C473 C 0.09051 0.29829 0.29611 0.0
C474 C 0.06262 0.25076 0.30525 0.0
C475 C 0.04293 0.27125 0.28358 0.0
C476 C 0.0731 0.31831 0.27238 0.0
C477 C 0.09973 0.34146 0.27197 0.0
N478 N 0.11555 0.32167 0.29671 0.0
C479 C 0.12103 0.34242 0.28386 0.0
H480 H 0.14194 0.35976 0.28288 0.0
C481 C 0.10875 0.2568 0.32631 0.0
N482 N 0.11003 0.27883 0.31692 0.0
C483 C 0.08429 0.23133 0.32566 0.0
C484 C 0.0611 0.22829 0.3151 0.0
H485 H 0.12622 0.2588 0.33482 0.0
H486 H 0.02562 0.26916 0.27462 0.0
H487 H 0.23455 0.354 0.36312 0.0
H488 H 0.0567 0.3174 0.26296 0.0
H489 H 0.10399 0.35835 0.26228 0.0
H490 H 0.02048 0.22947 0.29326 0.0
H491 H 0.13436 0.37235 0.38926 0.0
H492 H 0.29579 0.43679 0.37551 0.0
H493 H 0.2839 0.38982 0.36659 0.0
H494 H 0.24048 0.47759 0.39274 0.0
H495 H 0.08336 0.21408 0.33333 0.0
H496 H 0.04229 0.2085 0.31442 0.0
H497 H 0.27944 0.46996 0.38386 0.0
H498 H 0.1417 0.41686 0.40118 0.0
N499 N 0.21837 0.38037 0.36964 0.0
C500 C 0.27406 0.42123 0.3737 0.0
C501 C 0.2674 0.39466 0.3689 0.0
C502 C 0.25254 0.42715 0.37687 0.0
C503 C 0.22456 0.40589 0.37499 0.0
C504 C 0.2393 0.37434 0.36701 0.0
N505 N 0.1765 0.38843 0.37978 0.0
C506 C 0.20281 0.41014 0.38002 0.0
C507 C 0.15906 0.41534 0.3951 0.0
C508 C 0.18572 0.43839 0.3941 0.0
C509 C 0.15496 0.39022 0.38833 0.0
C510 C 0.20819 0.43581 0.38703 0.0
H511 H 0.18895 0.45777 0.39957 0.0
O512 O 0.14688 0.32955 0.3945 0.0
O513 O 0.13981 0.31306 0.348 0.0
O514 O 0.13185 0.34818 0.32342 0.0
O515 O 0.15703 0.37368 0.35135 0.0
O516 O 0.12404 0.32843 0.36912 0.0
O517 O 0.18854 0.33576 0.39189 0.0
O518 O 0.15747 0.2953 0.29622 0.0
O519 O 0.18604 0.34929 0.33662 0.0
O520 O 0.18635 0.31776 0.36106 0.0
O521 O 0.17083 0.29899 0.32965 0.0
O522 O 0.18148 0.36609 0.31034 0.0
O523 O 0.1759 0.33797 0.28926 0.0
C524 C 0.11741 0.3105 0.35536 0.0
C525 C 0.23591 0.45761 0.38765 0.0
C526 C 0.25808 0.45326 0.38263 0.0
C527 C 0.16724 0.32869 0.40354 0.0
C528 C 0.17359 0.33995 0.42378 0.0
C529 C 0.19158 0.36796 0.4268 0.0
C530 C 0.16151 0.32268 0.44024 0.0
C531 C 0.16724 0.3334 0.45965 0.0
C532 C 0.19733 0.37869 0.4459 0.0
C533 C 0.1853 0.36162 0.46221 0.0
C534 C 0.13987 0.36872 0.33612 0.0
C535 C 0.19613 0.3708 0.32621 0.0
C536 C 0.16967 0.31403 0.28272 0.0
C537 C 0.1584 0.30731 0.26223 0.0
C538 C 0.13589 0.28124 0.25771 0.0
C539 C 0.17004 0.327 0.24697 0.0
C540 C 0.15965 0.32046 0.22745 0.0
C541 C 0.12549 0.27481 0.23844 0.0
C542 C 0.13733 0.29416 0.2234 0.0
C543 C 0.18356 0.30081 0.34664 0.0
H544 H 0.20131 0.38152 0.41441 0.0
H545 H 0.14748 0.30104 0.43792 0.0
H546 H 0.21131 0.40033 0.44809 0.0
H547 H 0.19054 0.37049 0.47688 0.0
H548 H 0.12624 0.26573 0.26904 0.0
H549 H 0.18736 0.3472 0.2502 0.0
H550 H 0.10815 0.25469 0.23515 0.0
H551 H 0.12881 0.28868 0.20857 0.0
Gd552 Gd 0.6576 0.81744 0.37314 0.0
Gd553 Gd 0.69209 0.82893 0.32453 0.0
C554 C 0.77 0.82082 0.31708 0.0
C555 C 0.80609 0.86773 0.31077 0.0
C556 C 0.7578 0.85649 0.31597 0.0
C557 C 0.75 0.82937 0.31882 0.0
C558 C 0.78581 0.87588 0.31151 0.0
C559 C 0.79817 0.84022 0.31347 0.0
C560 C 0.76093 0.79295 0.31845 0.0
C561 C 0.73257 0.77437 0.3214 0.0
N562 N 0.72259 0.81113 0.32225 0.0
C563 C 0.71353 0.78383 0.32308 0.0
H564 H 0.69169 0.7692 0.32534 0.0
C565 C 0.74351 0.88921 0.31094 0.0
N566 N 0.73759 0.86355 0.31634 0.0
C567 C 0.77107 0.90928 0.30671 0.0
C568 C 0.79239 0.90268 0.30725 0.0
H569 H 0.72704 0.89435 0.31062 0.0
H570 H 0.81389 0.83408 0.31232 0.0
H571 H 0.65434 0.87531 0.37162 0.0
H572 H 0.77552 0.78549 0.31679 0.0
H573 H 0.72534 0.75274 0.32231 0.0
H574 H 0.82778 0.88237 0.30755 0.0
H575 H 0.62695 0.75397 0.39093 0.0
H576 H 0.5697 0.85534 0.38195 0.0
H577 H 0.61904 0.88961 0.37508 0.0
H578 H 0.5224 0.75918 0.39415 0.0
H579 H 0.77585 0.92979 0.30302 0.0
H580 H 0.8137 0.91821 0.30383 0.0
H581 H 0.53335 0.80635 0.38766 0.0
H582 H 0.57968 0.71759 0.40087 0.0
N583 N 0.62516 0.833 0.37549 0.0
C584 C 0.58498 0.84881 0.37993 0.0
C585 C 0.61287 0.86824 0.37628 0.0
C586 C 0.57734 0.82132 0.38175 0.0
C587 C 0.59827 0.81401 0.37971 0.0
C588 C 0.63286 0.86 0.37433 0.0
N589 N 0.61336 0.78194 0.38297 0.0
C590 C 0.59211 0.78755 0.38337 0.0
C591 C 0.58282 0.73709 0.39581 0.0
C592 C 0.56027 0.74187 0.39492 0.0
C593 C 0.60952 0.75768 0.39015 0.0
C594 C 0.56488 0.76758 0.38916 0.0
H595 H 0.53965 0.72597 0.39947 0.0
O596 O 0.67138 0.80866 0.40084 0.0
O597 O 0.69319 0.81958 0.35622 0.0
O598 O 0.65792 0.78451 0.32813 0.0
O599 O 0.62855 0.78147 0.35431 0.0
O600 O 0.67509 0.78881 0.37672 0.0
O601 O 0.66747 0.84479 0.39834 0.0
O602 O 0.68515 0.84251 0.29613 0.0
O603 O 0.65635 0.82662 0.34132 0.0
O604 O 0.68988 0.86238 0.36778 0.0
O605 O 0.7214 0.86219 0.34495 0.0
O606 O 0.6749 0.85782 0.32113 0.0
O607 O 0.679 0.80161 0.29929 0.0
C608 C 0.69511 0.80025 0.36399 0.0
C609 C 0.54354 0.77432 0.38997 0.0
C610 C 0.54978 0.80118 0.38632 0.0
C611 C 0.67252 0.82942 0.41003 0.0
C612 C 0.65956 0.82359 0.42973 0.0
C613 C 0.63101 0.80492 0.43218 0.0
C614 C 0.67657 0.83513 0.44642 0.0
C615 C 0.66575 0.82671 0.46571 0.0
C616 C 0.61988 0.79663 0.45105 0.0
C617 C 0.63712 0.80689 0.46765 0.0
C618 C 0.63435 0.77142 0.33847 0.0
C619 C 0.65458 0.84603 0.33358 0.0
C620 C 0.67959 0.8199 0.28719 0.0
C621 C 0.69355 0.82291 0.26812 0.0
C622 C 0.72214 0.83128 0.2671 0.0
C623 C 0.67796 0.81756 0.25063 0.0
C624 C 0.69083 0.82083 0.23206 0.0
C625 C 0.73511 0.8346 0.24878 0.0
C626 C 0.71964 0.82952 0.23134 0.0
C627 C 0.71486 0.87406 0.35915 0.0
H628 H 0.61741 0.79627 0.41961 0.0
H629 H 0.69827 0.8504 0.4441 0.0
H630 H 0.59792 0.78165 0.4528 0.0
H631 H 0.62782 0.79868 0.4819 0.0
H632 H 0.73443 0.83526 0.28038 0.0
H633 H 0.65572 0.81055 0.25156 0.0
H634 H 0.75724 0.84123 0.24809 0.0
H635 H 0.7303 0.83265 0.2173 0.0
Gd636 Gd 0.17448 0.85209 0.32144 0.0
Gd637 Gd 0.19645 0.84134 0.37082 0.0
C638 C 0.28173 0.84794 0.38034 0.0
C639 C 0.26883 0.80084 0.38699 0.0
C640 C 0.2328 0.81288 0.3808 0.0
C641 C 0.25316 0.83986 0.37806 0.0
C642 C 0.24036 0.79314 0.38567 0.0
C643 C 0.28948 0.82821 0.3844 0.0
C644 C 0.3016 0.8757 0.37897 0.0
C645 C 0.2928 0.89461 0.37549 0.0
N646 N 0.24495 0.8584 0.37413 0.0
C647 C 0.26424 0.8856 0.37327 0.0
H648 H 0.25784 0.90051 0.3706 0.0
C649 C 0.1847 0.78069 0.38492 0.0
N650 N 0.20551 0.80625 0.3798 0.0
C651 C 0.19113 0.7603 0.38955 0.0
C652 C 0.21907 0.76646 0.38968 0.0
H653 H 0.16307 0.77586 0.38473 0.0
H654 H 0.31135 0.834 0.38596 0.0
H655 H 0.11241 0.79357 0.32251 0.0
H656 H 0.32369 0.8828 0.38102 0.0
H657 H 0.30801 0.91614 0.37456 0.0
H658 H 0.27508 0.78593 0.39053 0.0
H659 H 0.20727 0.91455 0.30202 0.0
H660 H 0.04711 0.81257 0.31407 0.0
H661 H 0.06227 0.7787 0.31997 0.0
H662 H 0.09688 0.9085 0.30068 0.0
H663 H 0.17456 0.73987 0.39302 0.0
H664 H 0.22401 0.75067 0.39339 0.0
H665 H 0.06016 0.86137 0.30803 0.0
H666 H 0.19651 0.95052 0.29207 0.0
N667 N 0.12589 0.83581 0.319 0.0
C668 C 0.06921 0.81933 0.31555 0.0
C669 C 0.07771 0.80013 0.31868 0.0
C670 C 0.08938 0.84688 0.31344 0.0
C671 C 0.11793 0.8545 0.31501 0.0
C672 C 0.10628 0.80871 0.32009 0.0
N673 N 0.16545 0.88658 0.31065 0.0
C674 C 0.13845 0.88086 0.31082 0.0
C675 C 0.17999 0.93108 0.29745 0.0
C676 C 0.15252 0.92615 0.2988 0.0
C677 C 0.186 0.91071 0.30305 0.0
C678 C 0.1312 0.90053 0.30505 0.0
H679 H 0.14784 0.94186 0.29427 0.0
O680 O 0.19613 0.86204 0.29317 0.0
O681 O 0.20759 0.85056 0.33921 0.0
O682 O 0.20894 0.88578 0.3662 0.0
O683 O 0.18339 0.88892 0.33946 0.0
O684 O 0.22144 0.88019 0.31787 0.0
O685 O 0.15896 0.8227 0.29737 0.0
O686 O 0.17406 0.82867 0.3987 0.0
O687 O 0.16333 0.84371 0.35336 0.0
O688 O 0.16098 0.80753 0.32752 0.0
O689 O 0.19264 0.80825 0.35071 0.0
O690 O 0.14985 0.81218 0.37342 0.0
O691 O 0.21105 0.8687 0.3961 0.0
C692 C 0.22947 0.86935 0.3313 0.0
C693 C 0.10288 0.89358 0.30482 0.0
C694 C 0.08198 0.86675 0.30898 0.0
C695 C 0.17776 0.8393 0.28487 0.0
C696 C 0.16749 0.84186 0.26535 0.0
C697 C 0.14694 0.84951 0.26367 0.0
C698 C 0.17874 0.8371 0.24817 0.0
C699 C 0.1697 0.84014 0.22928 0.0
C700 C 0.13796 0.8527 0.24506 0.0
C701 C 0.14928 0.84816 0.22797 0.0
C702 C 0.19962 0.89909 0.35524 0.0
C703 C 0.14168 0.82401 0.3609 0.0
C704 C 0.19184 0.85095 0.40789 0.0
C705 C 0.20127 0.84722 0.4274 0.0
C706 C 0.22041 0.83779 0.42912 0.0
C707 C 0.19032 0.85238 0.44455 0.0
C708 C 0.19808 0.84773 0.46339 0.0
C709 C 0.22821 0.83315 0.44775 0.0
C710 C 0.21704 0.83795 0.46482 0.0
C711 C 0.17429 0.79627 0.33632 0.0
H712 H 0.13789 0.85306 0.27669 0.0
H713 H 0.19429 0.83076 0.24958 0.0
H714 H 0.12224 0.85881 0.24388 0.0
H715 H 0.14223 0.85124 0.21373 0.0
H716 H 0.22924 0.83393 0.41614 0.0
H717 H 0.17542 0.85958 0.44324 0.0
H718 H 0.24295 0.82582 0.44897 0.0
H719 H 0.22353 0.83442 0.47914 0.0
Gd720 Gd 0.84272 0.68454 0.70369 0.0
Gd721 Gd 0.81781 0.66107 0.65261 0.0
C722 C 0.74133 0.65609 0.62163 0.0
C723 C 0.70569 0.60886 0.62724 0.0
C724 C 0.7529 0.62633 0.64014 0.0
C725 C 0.76069 0.65171 0.63244 0.0
C726 C 0.72544 0.60441 0.63725 0.0
C727 C 0.71361 0.63469 0.61947 0.0
C728 C 0.75067 0.68152 0.6127 0.0
C729 C 0.77894 0.70138 0.61397 0.0
N730 N 0.78769 0.67176 0.63462 0.0
C731 C 0.79737 0.69596 0.62471 0.0
H732 H 0.8192 0.71143 0.62553 0.0
C733 C 0.76639 0.59737 0.6559 0.0
N734 N 0.77253 0.62278 0.6497 0.0
C735 C 0.7395 0.57498 0.65335 0.0
C736 C 0.71885 0.57854 0.64412 0.0
H737 H 0.78203 0.59419 0.66303 0.0
H738 H 0.69836 0.63771 0.61136 0.0
H739 H 0.90857 0.69636 0.70033 0.0
H740 H 0.73646 0.68572 0.60429 0.0
H741 H 0.78657 0.72081 0.60661 0.0
H742 H 0.68442 0.59234 0.62508 0.0
H743 H 0.80208 0.70567 0.72581 0.0
H744 H 0.96502 0.78019 0.7138 0.0
H745 H 0.95677 0.73459 0.70405 0.0
H746 H 0.90396 0.81397 0.73241 0.0
H747 H 0.73477 0.555 0.65849 0.0
H748 H 0.69805 0.56116 0.6421 0.0
H749 H 0.94515 0.81011 0.72323 0.0
H750 H 0.80609 0.7483 0.73863 0.0
N751 N 0.88946 0.72012 0.7072 0.0
C752 C 0.94379 0.76356 0.71184 0.0
C753 C 0.93919 0.7378 0.70654 0.0
C754 C 0.9209 0.7673 0.71537 0.0
C755 C 0.89366 0.74478 0.71317 0.0
C756 C 0.91175 0.71614 0.70443 0.0
N757 N 0.84509 0.72408 0.71761 0.0
C758 C 0.87067 0.74687 0.71852 0.0
C759 C 0.82441 0.74823 0.7329 0.0
C760 C 0.85035 0.77225 0.73275 0.0
C761 C 0.82224 0.72408 0.72564 0.0
C762 C 0.87402 0.77164 0.72594 0.0
H763 H 0.85201 0.79089 0.7385 0.0
O764 O 0.82089 0.66273 0.73045 0.0
O765 O 0.80972 0.652 0.68459 0.0
O766 O 0.79988 0.68705 0.6638 0.0
O767 O 0.83193 0.71373 0.68846 0.0
O768 O 0.7962 0.66509 0.70841 0.0
O769 O 0.86351 0.67277 0.72584 0.0
O770 O 0.82008 0.63147 0.63331 0.0
O771 O 0.85469 0.68611 0.67222 0.0
O772 O 0.86198 0.66062 0.69088 0.0
O773 O 0.82818 0.6318 0.66867 0.0
O774 O 0.85194 0.70395 0.6461 0.0
O775 O 0.84311 0.67406 0.62574 0.0
C776 C 0.78814 0.64877 0.69353 0.0
C777 C 0.90096 0.79466 0.72697 0.0
C778 C 0.92439 0.79247 0.72174 0.0
C779 C 0.84269 0.6632 0.7382 0.0
C780 C 0.84938 0.6733 0.75875 0.0
C781 C 0.86635 0.70133 0.76238 0.0
C782 C 0.83844 0.65511 0.77487 0.0
C783 C 0.84467 0.66491 0.79453 0.0
C784 C 0.87236 0.71116 0.78171 0.0
C785 C 0.86163 0.69319 0.79766 0.0
C786 C 0.812 0.70894 0.67537 0.0
C787 C 0.86645 0.70752 0.66184 0.0
C788 C 0.83417 0.64931 0.61963 0.0
C789 C 0.8232 0.64285 0.59903 0.0
C790 C 0.80088 0.61673 0.59437 0.0
C791 C 0.83523 0.66249 0.58375 0.0
C792 C 0.82535 0.65583 0.5641 0.0
C793 C 0.79095 0.61022 0.575 0.0
C794 C 0.80313 0.62951 0.55996 0.0
C795 C 0.84902 0.63734 0.68105 0.0
H796 H 0.87495 0.71564 0.75027 0.0
H797 H 0.82544 0.63343 0.77209 0.0
H798 H 0.88534 0.73285 0.78435 0.0
H799 H 0.86637 0.70152 0.8125 0.0
H800 H 0.79107 0.60119 0.60566 0.0
H801 H 0.85251 0.68269 0.58703 0.0
H802 H 0.77375 0.59006 0.57161 0.0
H803 H 0.79501 0.62394 0.54504 0.0
Gd804 Gd 0.32573 0.15739 0.70309 0.0
Gd805 Gd 0.35875 0.16607 0.65414 0.0
C806 C 0.43654 0.15773 0.64689 0.0
C807 C 0.47247 0.20436 0.63958 0.0
C808 C 0.42432 0.19335 0.64512 0.0
C809 C 0.41659 0.16636 0.64856 0.0
C810 C 0.45221 0.21254 0.64017 0.0
C811 C 0.46462 0.17697 0.64284 0.0
C812 C 0.42748 0.1299 0.64873 0.0
C813 C 0.39919 0.11145 0.65211 0.0
N814 N 0.38924 0.14824 0.65234 0.0
C815 C 0.3802 0.12098 0.65369 0.0
H816 H 0.35841 0.10644 0.65624 0.0
C817 C 0.40984 0.22576 0.63914 0.0
N818 N 0.40408 0.2004 0.64525 0.0
C819 C 0.43729 0.24563 0.63445 0.0
C820 C 0.45866 0.23911 0.63522 0.0
H821 H 0.39332 0.23082 0.63861 0.0
H822 H 0.4803 0.17077 0.64173 0.0
H823 H 0.32381 0.21595 0.69983 0.0
H824 H 0.442 0.12236 0.64707 0.0
H825 H 0.39197 0.08986 0.65339 0.0
H826 H 0.49407 0.21885 0.63599 0.0
H827 H 0.2948 0.09558 0.72345 0.0
H828 H 0.24021 0.19851 0.71102 0.0
H829 H 0.28953 0.23148 0.70296 0.0
H830 H 0.19167 0.10332 0.72674 0.0
H831 H 0.44195 0.26594 0.6302 0.0
H832 H 0.47987 0.25448 0.63142 0.0
H833 H 0.20329 0.15023 0.71844 0.0
H834 H 0.24772 0.06062 0.73492 0.0
N835 N 0.29409 0.17406 0.705 0.0
C836 C 0.25502 0.19137 0.7091 0.0
C837 C 0.28291 0.21009 0.70479 0.0
C838 C 0.24683 0.16387 0.71179 0.0
C839 C 0.26721 0.15582 0.70989 0.0
C840 C 0.30234 0.20112 0.70305 0.0
N841 N 0.28167 0.12357 0.71465 0.0
C842 C 0.26073 0.12961 0.71472 0.0
C843 C 0.25103 0.07987 0.72915 0.0
C844 C 0.22878 0.0851 0.72814 0.0
C845 C 0.27763 0.09969 0.72268 0.0
C846 C 0.23363 0.11049 0.72135 0.0
H847 H 0.20825 0.06983 0.73334 0.0
O848 O 0.33741 0.14859 0.73172 0.0
O849 O 0.36049 0.15813 0.68602 0.0
O850 O 0.32472 0.12193 0.65911 0.0
O851 O 0.29616 0.12021 0.68547 0.0
O852 O 0.34322 0.12887 0.70758 0.0
O853 O 0.34068 0.18788 0.72636 0.0
O854 O 0.3509 0.17817 0.62542 0.0
O855 O 0.32335 0.16449 0.67098 0.0
O856 O 0.35796 0.20182 0.69637 0.0
O857 O 0.38879 0.20017 0.67368 0.0
O858 O 0.34144 0.19473 0.65 0.0
O859 O 0.34565 0.13776 0.62947 0.0
C860 C 0.36267 0.13931 0.69439 0.0
C861 C 0.21271 0.11781 0.72191 0.0
C862 C 0.21933 0.14452 0.71721 0.0
C863 C 0.34244 0.17174 0.73936 0.0
C864 C 0.32979 0.17015 0.75876 0.0
C865 C 0.30196 0.16432 0.76044 0.0
C866 C 0.34575 0.1741 0.77588 0.0
C867 C 0.33402 0.17203 0.79473 0.0
C868 C 0.29011 0.16216 0.77906 0.0
C869 C 0.30596 0.1659 0.79613 0.0
C870 C 0.30152 0.10934 0.66989 0.0
C871 C 0.32141 0.18352 0.66273 0.0
C872 C 0.34583 0.15543 0.61693 0.0
C873 C 0.36013 0.15822 0.59801 0.0
C874 C 0.38861 0.16605 0.59743 0.0
C875 C 0.34517 0.15342 0.58026 0.0
C876 C 0.35862 0.15676 0.56191 0.0
C877 C 0.40217 0.16957 0.57936 0.0
C878 C 0.38737 0.16511 0.56168 0.0
C879 C 0.38277 0.21281 0.6876 0.0
H880 H 0.28942 0.16147 0.74743 0.0
H881 H 0.36742 0.17909 0.77445 0.0
H882 H 0.26855 0.15749 0.78026 0.0
H883 H 0.29617 0.16376 0.81042 0.0
H884 H 0.40039 0.16948 0.61087 0.0
H885 H 0.32299 0.14679 0.58082 0.0
H886 H 0.42424 0.17586 0.57905 0.0
H887 H 0.39852 0.16841 0.54785 0.0
Gd888 Gd 0.84163 0.18722 0.65574 0.0
Gd889 Gd 0.86495 0.17934 0.70536 0.0
C890 C 0.95066 0.18652 0.71417 0.0
C891 C 0.93808 0.13986 0.72222 0.0
C892 C 0.90179 0.1516 0.71617 0.0
C893 C 0.92199 0.17834 0.71248 0.0
C894 C 0.90956 0.13215 0.72147 0.0
C895 C 0.9586 0.16703 0.71863 0.0
C896 C 0.97044 0.21417 0.71184 0.0
C897 C 0.96144 0.23288 0.70813 0.0
N898 N 0.91357 0.19662 0.70819 0.0
C899 C 0.93277 0.22375 0.70654 0.0
H900 H 0.92619 0.23847 0.70362 0.0
C901 C 0.85389 0.1197 0.72147 0.0
N902 N 0.87448 0.14495 0.71556 0.0
C903 C 0.86052 0.0996 0.72663 0.0
C904 C 0.88846 0.10574 0.72639 0.0
H905 H 0.83226 0.11484 0.72153 0.0
H906 H 0.98053 0.17287 0.71974 0.0
H907 H 0.78051 0.12794 0.65664 0.0
H908 H 0.99264 0.22136 0.71333 0.0
H909 H 0.97658 0.25434 0.7065 0.0
H910 H 0.94448 0.12516 0.72607 0.0
H911 H 0.87462 0.25193 0.64005 0.0
H912 H 0.71416 0.14489 0.64582 0.0
H913 H 0.73017 0.11193 0.65295 0.0
H914 H 0.76237 0.24122 0.63369 0.0
H915 H 0.8441 0.0794 0.73078 0.0
H916 H 0.89355 0.09017 0.73047 0.0
H917 H 0.72626 0.19338 0.63955 0.0
H918 H 0.86289 0.28736 0.63055 0.0
N919 N 0.79309 0.16983 0.65229 0.0
C920 C 0.73631 0.15213 0.64769 0.0
C921 C 0.74529 0.13344 0.65156 0.0
C922 C 0.75608 0.17982 0.64565 0.0
C923 C 0.78471 0.18809 0.64781 0.0
C924 C 0.77393 0.14264 0.65362 0.0
N925 N 0.83227 0.22164 0.64538 0.0
C926 C 0.80495 0.21489 0.64434 0.0
C927 C 0.8464 0.26708 0.63446 0.0
C928 C 0.81842 0.26083 0.63425 0.0
C929 C 0.85297 0.24699 0.63976 0.0
C930 C 0.79724 0.23433 0.63887 0.0
H931 H 0.81338 0.27639 0.63006 0.0
O932 O 0.86349 0.19806 0.62762 0.0
O933 O 0.87553 0.18728 0.67355 0.0
O934 O 0.87708 0.22343 0.69856 0.0
O935 O 0.84506 0.22108 0.67492 0.0
O936 O 0.88831 0.21669 0.65214 0.0
O937 O 0.82714 0.15789 0.63166 0.0
O938 O 0.84341 0.16887 0.73362 0.0
O939 O 0.83093 0.17909 0.68754 0.0
O940 O 0.8296 0.14308 0.6623 0.0
O941 O 0.86122 0.14536 0.68627 0.0
O942 O 0.81836 0.14965 0.70899 0.0
O943 O 0.8801 0.20871 0.72945 0.0
C944 C 0.89702 0.20631 0.66546 0.0
C945 C 0.76873 0.22652 0.63768 0.0
C946 C 0.74818 0.19929 0.641 0.0
C947 C 0.84593 0.17494 0.6193 0.0
C948 C 0.836 0.17686 0.59951 0.0
C949 C 0.81489 0.18364 0.5971 0.0
C950 C 0.84845 0.17266 0.58278 0.0
C951 C 0.84009 0.17545 0.56363 0.0
C952 C 0.80645 0.1864 0.57817 0.0
C953 C 0.81898 0.18242 0.56151 0.0
C954 C 0.86349 0.23398 0.68914 0.0
C955 C 0.80956 0.15976 0.69553 0.0
C956 C 0.86143 0.19181 0.74193 0.0
C957 C 0.87172 0.18948 0.76151 0.0
C958 C 0.89184 0.1813 0.76333 0.0
C959 C 0.86068 0.1947 0.7786 0.0
C960 C 0.86942 0.19149 0.79756 0.0
C961 C 0.90056 0.17798 0.782 0.0
C962 C 0.88938 0.18288 0.799 0.0
C963 C 0.84339 0.13271 0.67168 0.0
H964 H 0.80502 0.18687 0.6098 0.0
H965 H 0.86496 0.16766 0.58467 0.0
H966 H 0.79013 0.19163 0.57639 0.0
H967 H 0.81191 0.18442 0.54695 0.0
H968 H 0.90069 0.17735 0.75039 0.0
H969 H 0.84548 0.20146 0.77706 0.0
H970 H 0.91592 0.17142 0.78329 0.0
H971 H 0.89616 0.1796 0.81329 0.0
C972 C 0.32695 0.85793 0.0762 0.0
C973 C 0.30288 0.84297 0.06457 0.0
C974 C 0.35146 0.87962 0.06819 0.0
C975 C 0.35208 0.88653 0.04797 0.0
C976 C 0.32822 0.87089 0.03595 0.0
C977 C 0.30392 0.84929 0.04438 0.0
C978 C 0.37644 0.89567 0.08154 0.0
C979 C 0.32824 0.87722 0.01426 0.0
C980 C 0.40467 0.96068 0.03698 0.0
C981 C 0.42796 0.95898 0.03067 0.0
C982 C 0.37928 0.93708 0.04159 0.0
C983 C 0.3772 0.91113 0.03994 0.0
C984 C 0.40029 0.90925 0.03263 0.0
C985 C 0.42552 0.93322 0.02841 0.0
C986 C 0.35517 0.94004 0.04923 0.0
C987 C 0.39895 0.88207 0.03028 0.0
H988 H 0.32655 0.85283 0.09171 0.0
H989 H 0.2854 0.83793 0.03528 0.0
H990 H 0.39522 0.89595 0.07531 0.0
H991 H 0.38114 0.91715 0.08248 0.0
H992 H 0.37291 0.88712 0.09676 0.0
H993 H 0.30749 0.86424 0.0072 0.0
H994 H 0.33429 0.89895 0.01224 0.0
H995 H 0.34399 0.87387 0.00647 0.0
H996 H 0.40662 0.9806 0.03893 0.0
H997 H 0.44357 0.93172 0.02404 0.0
H998 H 0.35125 0.93371 0.06499 0.0
H999 H 0.33575 0.92649 0.04087 0.0
H1000 H 0.35933 0.96135 0.04809 0.0
H1001 H 0.39947 0.87385 0.04509 0.0
H1002 H 0.4168 0.8838 0.02146 0.0
H1003 H 0.3791 0.86711 0.02298 0.0
C1004 C 0.16274 0.47284 0.08003 0.0
C1005 C 0.17782 0.46402 0.06832 0.0
C1006 C 0.14058 0.47562 0.07213 0.0
C1007 C 0.13308 0.46951 0.05192 0.0
C1008 C 0.14886 0.46155 0.03985 0.0
C1009 C 0.171 0.45897 0.04814 0.0
C1010 C 0.12457 0.48429 0.08562 0.0
C1011 C 0.14192 0.45508 0.01826 0.0
C1012 C 0.05653 0.44651 0.0402 0.0
C1013 C 0.05799 0.47051 0.03311 0.0
C1014 C 0.08082 0.44569 0.0456 0.0
C1015 C 0.10749 0.46954 0.044 0.0
C1016 C 0.10916 0.49368 0.03627 0.0
C1017 C 0.08441 0.49398 0.0312 0.0
C1018 C 0.07781 0.41946 0.05369 0.0
C1019 C 0.13701 0.51948 0.03394 0.0
H1020 H 0.16811 0.47735 0.09554 0.0
H1021 H 0.18233 0.45203 0.03894 0.0
H1022 H 0.12414 0.50219 0.0793 0.0
H1023 H 0.10253 0.46752 0.08689 0.0
H1024 H 0.13383 0.48962 0.10071 0.0
H1025 H 0.15636 0.44957 0.01074 0.0
H1026 H 0.12017 0.43787 0.01667 0.0
H1027 H 0.14309 0.473 0.01067 0.0
H1028 H 0.03616 0.42837 0.04189 0.0
H1029 H 0.08571 0.51278 0.02613 0.0
H1030 H 0.08477 0.42243 0.06937 0.0
H1031 H 0.0914 0.41366 0.04535 0.0
H1032 H 0.05586 0.40233 0.05293 0.0
H1033 H 0.1457 0.52791 0.04876 0.0
H1034 H 0.13513 0.53527 0.02535 0.0
H1035 H 0.15223 0.51512 0.02639 0.0
C1036 C 0.52881 0.69416 0.06386 0.0
C1037 C 0.55556 0.71528 0.06896 0.0
C1038 C 0.52511 0.66971 0.05578 0.0
C1039 C 0.54881 0.66667 0.05245 0.0
C1040 C 0.57596 0.68834 0.05701 0.0
C1041 C 0.57898 0.71233 0.06541 0.0
C1042 C 0.49581 0.64687 0.05136 0.0
C1043 C 0.60175 0.68602 0.0533 0.0
C1044 C 0.53884 0.5953 0.05089 0.0
C1045 C 0.5377 0.59049 0.03049 0.0
C1046 C 0.54231 0.61999 0.05825 0.0
C1047 C 0.54515 0.64047 0.04483 0.0
C1048 C 0.54451 0.63588 0.0242 0.0
C1049 C 0.54065 0.61085 0.0173 0.0
C1050 C 0.54251 0.62399 0.08036 0.0
C1051 C 0.54795 0.65741 0.00944 0.0
H1052 H 0.51073 0.69646 0.06677 0.0
H1053 H 0.59968 0.72884 0.06925 0.0
H1054 H 0.49412 0.64064 0.03563 0.0
H1055 H 0.49114 0.62876 0.0605 0.0
H1056 H 0.47968 0.65274 0.0544 0.0
H1057 H 0.62141 0.70532 0.05662 0.0
H1058 H 0.60111 0.66956 0.06263 0.0
H1059 H 0.60228 0.68042 0.03764 0.0
H1060 H 0.53629 0.57947 0.06115 0.0
H1061 H 0.54042 0.60743 1.0016 0.0
H1062 H 0.52544 0.62807 0.08452 0.0
H1063 H 0.56257 0.642 0.08495 0.0
H1064 H 0.53978 0.60592 0.08877 0.0
H1065 H 0.5312 0.66266 0.01154 0.0
H1066 H 0.54715 0.65065 0.99389 0.0
H1067 H 0.56828 0.67633 0.01191 0.0
C1068 C 0.8309 0.30538 0.97071 0.0
C1069 C 0.83713 0.28553 0.96406 0.0
C1070 C 0.85207 0.33045 0.97824 0.0
C1071 C 0.87999 0.33551 0.9794 0.0
C1072 C 0.88612 0.31505 0.9734 0.0
C1073 C 0.86466 0.29041 0.96566 0.0
C1074 C 0.84478 0.35187 0.98429 0.0
C1075 C 0.91548 0.31943 0.97473 0.0
C1076 C 0.94043 0.40869 0.97862 0.0
C1077 C 0.94714 0.41367 0.99876 0.0
C1078 C 0.91839 0.38344 0.97215 0.0
C1079 C 0.90302 0.36257 0.98615 0.0
C1080 C 0.91006 0.36741 0.00648 0.0
C1081 C 0.932 0.39296 0.01252 0.0
C1082 C 0.91139 0.37922 0.95036 0.0
C1083 C 0.89457 0.34556 0.02183 0.0
H1084 H 0.80966 0.3017 0.96932 0.0
H1085 H 0.86943 0.27495 0.96065 0.0
H1086 H 0.85164 0.35852 0.99973 0.0
H1087 H 0.85608 0.37011 0.9747 0.0
H1088 H 0.82194 0.34439 0.98318 0.0
H1089 H 0.91639 0.30085 0.97065 0.0
H1090 H 0.92955 0.33626 0.96471 0.0
H1091 H 0.92376 0.32554 0.98998 0.0
H1092 H 0.95202 0.42478 0.96796 0.0
H1093 H 0.93768 0.3965 0.02799 0.0
H1094 H 0.88921 0.37368 0.94803 0.0
H1095 H 0.91375 0.36204 0.94474 0.0
H1096 H 0.92498 0.3977 0.94146 0.0
H1097 H 0.87187 0.33874 0.02131 0.0
H1098 H 0.9024 0.35274 0.03706 0.0
H1099 H 0.89682 0.32751 0.01855 0.0
C1100 C 0.71487 0.54415 0.9807 0.0
C1101 C 0.7158 0.53904 0.96043 0.0
C1102 C 0.69071 0.54253 0.98932 0.0
C1103 C 0.66678 0.53564 0.97747 0.0
C1104 C 0.66731 0.52961 0.95717 0.0
C1105 C 0.6916 0.53124 0.94899 0.0
C1106 C 0.69092 0.54852 0.01108 0.0
C1107 C 0.64238 0.5221 0.94391 0.0
C1108 C 0.59346 0.51204 0.99799 0.0
C1109 C 0.59158 0.53585 0.99651 0.0
C1110 C 0.61831 0.51199 0.99305 0.0
C1111 C 0.64171 0.53614 0.98579 0.0
C1112 C 0.64009 0.56039 0.98471 0.0
C1113 C 0.61512 0.55992 0.99004 0.0
C1114 C 0.61902 0.48572 0.99484 0.0
C1115 C 0.66436 0.58663 0.97707 0.0
H1116 H 0.73333 0.55023 0.98974 0.0
H1117 H 0.69167 0.52655 0.93345 0.0
H1118 H 0.68593 0.56509 0.01329 0.0
H1119 H 0.67448 0.53011 0.01871 0.0
H1120 H 0.71144 0.55459 0.01816 0.0
H1121 H 0.64579 0.51727 0.92858 0.0
H1122 H 0.62347 0.50416 0.95001 0.0
H1123 H 0.63799 0.53924 0.94331 0.0
H1124 H 0.57526 0.49317 0.00243 0.0
H1125 H 0.61372 0.57832 0.98863 0.0
H1126 H 0.63868 0.48941 1.00212 0.0
H1127 H 0.61849 0.47747 0.97985 0.0
H1128 H 0.60093 0.47003 0.00342 0.0
H1129 H 0.68378 0.59158 0.98529 0.0
H1130 H 0.66054 0.60411 0.9784 0.0
H1131 H 0.66805 0.58416 0.96125 0.0
C1132 C 0.4603 0.16546 0.97707 0.0
C1133 C 0.46981 0.17336 0.95766 0.0
C1134 C 0.46304 0.14475 0.98646 0.0
C1135 C 0.47603 0.13213 0.97626 0.0
C1136 C 0.4863 0.14059 0.95683 0.0
C1137 C 0.48283 0.16096 0.94769 0.0
C1138 C 0.45147 0.13594 0.00708 0.0
C1139 C 0.50072 0.12793 0.94562 0.0
C1140 C 0.5047 0.09318 0.00428 0.0
C1141 C 0.48446 0.06609 1.00005 0.0
C1142 C 0.50192 0.11496 0.99704 0.0
C1143 C 0.47814 0.10943 0.98555 0.0
C1144 C 0.45711 0.08211 0.98191 0.0
C1145 C 0.46065 0.06073 0.98906 0.0
C1146 C 0.525 0.14381 1.001 0.0
C1147 C 0.43121 0.07544 0.97001 0.0
H1148 H 0.45008 0.17501 0.98468 0.0
H1149 H 0.49042 0.16734 0.93274 0.0
H1150 H 0.43472 0.1142 0.00689 0.0
H1151 H 0.46814 0.13759 0.0172 0.0
H1152 H 0.44266 0.14834 0.01316 0.0
H1153 H 0.50873 0.13778 0.93102 0.0
H1154 H 0.51854 0.12955 0.95442 0.0
H1155 H 0.4859 0.1059 0.94319 0.0
H1156 H 0.52325 0.09746 0.01268 0.0
H1157 H 0.44484 0.03982 0.9859 0.0
H1158 H 0.51621 0.15609 0.00727 0.0
H1159 H 0.53542 0.15358 0.98687 0.0
H1160 H 0.54109 0.1446 0.01137 0.0
H1161 H 0.42088 0.08643 0.97611 0.0
H1162 H 0.41583 0.05322 0.96988 0.0
H1163 H 0.43716 0.08237 0.95451 0.0
C1164 C 0.66913 0.14615 0.95127 0.0
C1165 C 0.69307 0.16263 0.96256 0.0
C1166 C 0.64537 0.12422 0.95982 0.0
C1167 C 0.64551 0.11854 0.98023 0.0
C1168 C 0.66949 0.13542 0.99182 0.0
C1169 C 0.69303 0.15733 0.98285 0.0
C1170 C 0.62026 0.10681 0.94689 0.0
C1171 C 0.67029 0.13026 0.01365 0.0
C1172 C 0.57247 0.07219 1.00045 0.0
C1173 C 0.5702 0.04646 0.99864 0.0
C1174 C 0.59762 0.09612 0.99599 0.0
C1175 C 0.62081 0.09421 0.98897 0.0
C1176 C 0.61896 0.06831 0.98792 0.0
C1177 C 0.59362 0.04474 0.99267 0.0
C1178 C 0.59867 0.12325 0.99764 0.0
C1179 C 0.64321 0.06531 0.98064 0.0
H1180 H 0.66911 0.15024 0.93559 0.0
H1181 H 0.71146 0.17008 0.99168 0.0
H1182 H 0.61616 0.08549 0.94671 0.0
H1183 H 0.60134 0.10637 0.95299 0.0
H1184 H 0.62326 0.11436 0.9314 0.0
H1185 H 0.69109 0.14414 0.02035 0.0
H1186 H 0.65426 0.13323 0.02142 0.0
H1187 H 0.66511 0.10886 0.0162 0.0
H1188 H 0.55432 0.07368 0.00458 0.0
H1189 H 0.59179 0.02482 0.99109 0.0
H1190 H 0.5978 0.13073 0.98261 0.0
H1191 H 0.61856 0.13868 0.00463 0.0
H1192 H 0.58087 0.12171 0.00642 0.0
H1193 H 0.64661 0.07042 0.96465 0.0
H1194 H 0.63948 0.04425 0.9827 0.0
H1195 H 0.66275 0.07973 0.98853 0.0
C1196 C 0.84888 0.52511 0.98035 0.0
C1197 C 0.84231 0.51938 0.96023 0.0
C1198 C 0.87166 0.5238 0.98886 0.0
C1199 C 0.88827 0.51659 0.977 0.0
C1200 C 0.8813 0.51036 0.95675 0.0
C1201 C 0.85851 0.51182 0.94867 0.0
C1202 C 0.87804 0.5303 0.0105 0.0
C1203 C 0.89832 0.50271 0.94342 0.0
C1204 C 0.96477 0.53999 0.98898 0.0
C1205 C 0.96341 0.51585 0.99561 0.0
C1206 C 0.94039 0.54081 0.98385 0.0
C1207 C 0.91381 0.51682 0.98522 0.0
C1208 C 0.91226 0.49254 0.99252 0.0
C1209 C 0.93707 0.49224 0.99732 0.0
C1210 C 0.94325 0.56715 0.97613 0.0
C1211 C 0.8845 0.46658 0.99459 0.0
H1212 H 0.83644 0.53089 0.98942 0.0
H1213 H 0.85353 0.50735 0.9331 0.0
H1214 H 0.87599 0.51212 0.01828 0.0
H1215 H 0.89996 0.54707 0.01239 0.0
H1216 H 0.86378 0.53637 0.0176 0.0
H1217 H 0.88976 0.49777 0.92814 0.0
H1218 H 0.92026 0.5198 0.9427 0.0
H1219 H 0.89892 0.48479 0.94956 0.0
H1220 H 0.9851 0.55822 0.98745 0.0
H1221 H 0.93586 0.47335 1.00201 0.0
H1222 H 0.92914 0.57239 0.98437 0.0
H1223 H 0.93687 0.56464 0.96034 0.0
H1224 H 0.96505 0.58445 0.97737 0.0
H1225 H 0.86914 0.47065 0.00226 0.0
H1226 H 0.88646 0.45067 0.00296 0.0
H1227 H 0.87593 0.45844 0.97969 0.0
C1228 C 0.50673 0.33978 0.94423 0.0
C1229 C 0.49324 0.3148 0.95423 0.0
C1230 C 0.50912 0.36343 0.9528 0.0
C1231 C 0.49728 0.36183 0.97168 0.0
C1232 C 0.48349 0.33658 0.98182 0.0
C1233 C 0.48178 0.31333 0.97301 0.0
C1234 C 0.52434 0.39011 0.94169 0.0
C1235 C 0.47034 0.33411 1.00187 0.0
C1236 C 0.52504 0.42737 1.00098 0.0
C1237 C 0.50517 0.4353 0.99661 0.0
C1238 C 0.52255 0.40334 0.99316 0.0
C1239 C 0.49947 0.38668 0.98082 0.0
C1240 C 0.47897 0.3942 0.97673 0.0
C1241 C 0.48218 0.41858 0.98457 0.0
C1242 C 0.54504 0.39621 0.99767 0.0
C1243 C 0.45387 0.3767 0.96384 0.0
H1244 H 0.51554 0.34083 0.92969 0.0
H1245 H 0.47109 0.29396 0.98071 0.0
H1246 H 0.50995 0.39817 0.93883 0.0
H1247 H 0.54194 0.4055 0.95078 0.0
H1248 H 0.53281 0.38795 0.92731 0.0
H1249 H 0.46018 0.31293 0.00772 0.0
H1250 H 0.48649 0.34784 0.01262 0.0
H1251 H 0.45438 0.34061 1.00091 0.0
H1252 H 0.54304 0.44033 0.01012 0.0
H1253 H 0.46673 0.42456 0.98121 0.0
H1254 H 0.55566 0.39608 0.98376 0.0
H1255 H 0.53557 0.37544 0.00412 0.0
H1256 H 0.56107 0.41087 0.00813 0.0
H1257 H 0.46089 0.37563 0.94865 0.0
H1258 H 0.43911 0.3847 0.96295 0.0
H1259 H 0.44245 0.35555 0.96969 0.0
C1260 C 0.13848 0.70162 0.05484 0.0
C1261 C 0.16729 0.71141 0.05666 0.0
C1262 C 0.12007 0.67464 0.04898 0.0
C1263 C 0.1307 0.65686 0.04517 0.0
C1264 C 0.15985 0.66665 0.047 0.0
C1265 C 0.17787 0.69393 0.0526 0.0
C1266 C 0.08922 0.66516 0.04693 0.0
C1267 C 0.1719 0.6482 0.04327 0.0
C1268 C 0.07775 0.58099 0.04833 0.0
C1269 C 0.07176 0.57401 0.02831 0.0
C1270 C 0.09749 0.60772 0.05402 0.0
C1271 C 0.11117 0.62803 0.03934 0.0
C1272 C 0.10514 0.62102 0.0191 0.0
C1273 C 0.08554 0.59408 0.01386 0.0
C1274 C 0.10354 0.61428 0.07575 0.0
C1275 C 0.11884 0.64211 0.00299 0.0
H1276 H 0.1303 0.71515 0.05799 0.0
H1277 H 0.20013 0.70137 0.05415 0.0
H1278 H 0.08195 0.65724 0.03176 0.0
H1279 H 0.07697 0.64815 0.05737 0.0
H1280 H 0.08445 0.68175 0.04991 0.0
H1281 H 0.19499 0.65891 0.04533 0.0
H1282 H 0.16219 0.6305 0.05349 0.0
H1283 H 0.16692 0.64001 0.02798 0.0
H1284 H 0.06718 0.56546 0.05955 0.0
H1285 H 0.08033 0.589 0.99846 0.0
H1286 H 0.09732 0.62941 0.08021 0.0
H1287 H 0.12636 0.62362 0.07859 0.0
H1288 H 0.09221 0.5959 0.08524 0.0
H1289 H 0.11271 0.65799 0.00454 0.0
H1290 H 0.11285 0.63306 0.98794 0.0
H1291 H 0.14197 0.65245 0.0044 0.0
C1292 C 0.32346 0.47514 0.04663 0.0
C1293 C 0.3225 0.47955 0.06698 0.0
C1294 C 0.34791 0.47758 0.03782 0.0
C1295 C 0.37202 0.48476 0.0496 0.0
C1296 C 0.3712 0.48983 0.07006 0.0
C1297 C 0.34656 0.48711 0.07843 0.0
C1298 C 0.34787 0.47236 0.01595 0.0
C1299 C 0.39621 0.49751 0.08328 0.0
C1300 C 0.42568 0.46311 0.03711 0.0
C1301 C 0.44888 0.48771 0.03104 0.0
C1302 C 0.4001 0.46157 0.04206 0.0
C1303 C 0.39756 0.48532 0.04113 0.0
C1304 C 0.42064 0.51003 0.03422 0.0
C1305 C 0.4461 0.51101 0.02948 0.0
C1306 C 0.37615 0.43472 0.04914 0.0
C1307 C 0.41889 0.53575 0.03262 0.0
H1308 H 0.30503 0.46941 0.03763 0.0
H1309 H 0.346 0.49062 0.09416 0.0
H1310 H 0.3626 0.49172 0.00842 0.0
H1311 H 0.35522 0.4576 0.01317 0.0
H1312 H 0.32678 0.46435 0.00922 0.0
H1313 H 0.39265 0.5019 0.09869 0.0
H1314 H 0.40101 0.48063 0.08362 0.0
H1315 H 0.41494 0.51577 0.07732 0.0
H1316 H 0.42776 0.44507 0.03842 0.0
H1317 H 0.46406 0.53021 0.02511 0.0
H1318 H 0.35675 0.42962 0.04082 0.0
H1319 H 0.37202 0.43639 0.06501 0.0
H1320 H 0.3806 0.41769 0.04744 0.0
H1321 H 0.39942 0.5316 0.02479 0.0
H1322 H 0.43714 0.55219 0.02463 0.0
H1323 H 0.4181 0.54319 0.04767 0.0
C1324 C 0.53748 0.83994 0.05219 0.0
C1325 C 0.52724 0.83101 0.07135 0.0
C1326 C 0.53457 0.86074 0.04311 0.0
C1327 C 0.52078 0.87251 0.05336 0.0
C1328 C 0.50982 0.86306 0.07252 0.0
C1329 C 0.51343 0.84256 0.08135 0.0
C1330 C 0.54683 0.87057 0.02278 0.0
C1331 C 0.49462 0.87486 0.08378 0.0
C1332 C 0.53631 0.94422 0.04127 0.0
C1333 C 0.51307 0.93911 0.02966 0.0
C1334 C 0.53949 0.92269 0.04857 0.0
C1335 C 0.51868 0.89544 0.04443 0.0
C1336 C 0.49541 0.89016 0.03242 0.0
C1337 C 0.49298 0.91209 0.02507 0.0
C1338 C 0.56484 0.92912 0.06105 0.0
C1339 C 0.4726 0.86139 0.02788 0.0
H1340 H 0.54836 0.83117 0.04446 0.0
H1341 H 0.50549 0.83558 0.09615 0.0
H1342 H 0.53042 0.86908 0.01246 0.0
H1343 H 0.56331 0.89239 0.02351 0.0
H1344 H 0.55619 0.85872 0.01656 0.0
H1345 H 0.48608 0.86425 0.09808 0.0
H1346 H 0.50912 0.89681 0.08683 0.0
H1347 H 0.4771 0.87345 0.07474 0.0
H1348 H 0.552 0.96506 0.04475 0.0
H1349 H 0.47484 0.90798 0.01622 0.0
H1350 H 0.57579 0.91874 0.05493 0.0
H1351 H 0.55815 0.92131 0.0763 0.0
H1352 H 0.57993 0.95138 0.06187 0.0
H1353 H 0.48173 0.84953 0.0214 0.0
H1354 H 0.45667 0.86083 0.01746 0.0
H1355 H 0.46192 0.85101 0.0418 0.0
C1356 C 0.97717 0.16884 0.38071 0.0
C1357 C 0.9632 0.17521 0.3954 0.0
C1358 C 1.0014 0.18929 0.37135 0.0
C1359 C 0.01284 0.21681 0.37732 0.0
C1360 C 0.99899 0.22349 0.39206 0.0
C1361 C 0.974 0.20286 0.40036 0.0
C1362 C 0.0143 0.1813 0.35482 0.0
C1363 C 0.01104 0.25238 0.39958 0.0
C1364 C 0.09096 0.26573 0.37183 0.0
C1365 C 0.09139 0.28433 0.35796 0.0
C1366 C 0.06558 0.24316 0.37782 0.0
C1367 C 0.04009 0.2386 0.3692 0.0
C1368 C 0.0407 0.25658 0.35431 0.0
C1369 C 0.06628 0.27991 0.34946 0.0
C1370 C 0.06593 0.22509 0.39416 0.0
C1371 C 0.01433 0.25133 0.3437 0.0
H1372 H 0.96961 0.1478 0.37662 0.0
H1373 H 0.96316 0.20866 0.41093 0.0
H1374 H 0.00821 0.18651 0.34051 0.0
H1375 H 0.0375 0.19256 0.35564 0.0
H1376 H 0.00686 0.15906 0.35482 0.0
H1377 H 0.99873 0.25386 0.41205 0.0
H1378 H 0.03294 0.26026 0.40466 0.0
H1379 H 0.01159 0.26591 0.3875 0.0
H1380 H 0.11043 0.26971 0.37877 0.0
H1381 H 0.06667 0.29473 0.33908 0.0
H1382 H 0.05609 0.20366 0.38897 0.0
H1383 H 0.05346 0.22553 0.40691 0.0
H1384 H 0.0875 0.23153 0.39937 0.0
H1385 H 1.0035 0.23029 0.33762 0.0
H1386 H 0.01873 0.26597 0.33139 0.0
H1387 H 0.99972 0.25288 0.35419 0.0
C1388 C 0.83549 0.78957 0.38255 0.0
C1389 C 0.84175 0.7941 0.40284 0.0
C1390 C 0.81321 0.79179 0.37413 0.0
C1391 C 0.79662 0.79875 0.38621 0.0
C1392 C 0.80344 0.80422 0.40655 0.0
C1393 C 0.82585 0.80196 0.41455 0.0
C1394 C 0.80716 0.78631 0.35235 0.0
C1395 C 0.78651 0.81175 0.42007 0.0
C1396 C 0.74794 0.82331 0.36589 0.0
C1397 C 0.72161 0.79954 0.367 0.0
C1398 C 0.7727 0.8231 0.371 0.0
C1399 C 0.77113 0.79872 0.37806 0.0
C1400 C 0.7446 0.77457 0.37886 0.0
C1401 C 0.72028 0.77531 0.37337 0.0
C1402 C 0.80041 0.84925 0.36948 0.0
C1403 C 0.74173 0.7481 0.38628 0.0
H1404 H 0.84745 0.78341 0.37331 0.0
H1405 H 0.83078 0.80616 0.43014 0.0
H1406 H 0.7851 0.77004 0.35005 0.0
H1407 H 0.80993 0.80503 0.34498 0.0
H1408 H 0.82116 0.78003 0.34509 0.0
H1409 H 0.79503 0.8163 0.43538 0.0
H1410 H 0.78606 0.82987 0.4142 0.0
H1411 H 0.76453 0.79473 0.42066 0.0
H1412 H 0.74921 0.8423 0.36152 0.0
H1413 H 0.69998 0.75694 0.37449 0.0
H1414 H 0.81601 0.8456 0.36175 0.0
H1415 H 0.80864 0.85683 0.38455 0.0
H1416 H 0.7985 0.86542 0.36144 0.0
H1417 H 0.75583 0.74302 0.37787 0.0
H1418 H 0.71993 0.73081 0.38496 0.0
H1419 H 0.74814 0.75032 0.40206 0.0
C1420 C 0.25767 0.05124 0.394 0.0
C1421 C 0.23626 0.05781 0.39437 0.0
C1422 C 0.25266 0.02594 0.38681 0.0
C1423 C 0.22547 0.00668 0.38013 0.0
C1424 C 0.20388 0.0134 0.38016 0.0
C1425 C 0.20961 0.03903 0.38717 0.0
C1426 C 0.2763 0.01965 0.38667 0.0
C1427 C 0.17456 0.99324 0.37335 0.0
C1428 C 0.21567 0.9478 0.34773 0.0
C1429 C 0.20705 0.92674 0.36158 0.0
C1430 C 0.22194 0.97404 0.35355 0.0
C1431 C 0.21936 0.97915 0.37372 0.0
C1432 C 0.21092 0.95793 0.38782 0.0
C1433 C 0.20508 0.93197 0.38158 0.0
C1434 C 0.23138 0.99627 0.33816 0.0
C1435 C 0.20765 0.96255 0.40943 0.0
H1436 H 0.27834 0.06592 0.39945 0.0
H1437 H 0.19301 0.04407 0.38764 0.0
H1438 H 0.27133 0.00237 0.3968 0.0
H1439 H 0.27881 0.0133 0.37162 0.0
H1440 H 0.29656 0.03741 0.39133 0.0
H1441 H 0.16036 0.00192 0.37382 0.0
H1442 H 0.175 0.98651 0.358 0.0
H1443 H 0.16569 0.97482 0.38289 0.0
H1444 H 0.21811 0.94393 0.33242 0.0
H1445 H 0.19834 0.91555 0.39226 0.0
H1446 H 0.25239 0.01344 0.3421 0.0
H1447 H 0.21678 0.00445 0.33777 0.0
H1448 H 0.23241 0.9889 0.32311 0.0
H1449 H 0.22783 0.97892 0.41546 0.0
H1450 H 0.20075 0.94383 0.41846 0.0
H1451 H 0.19208 0.96943 0.4111 0.0
C1452 C 0.52947 0.62297 0.29525 0.0
C1453 C 0.50206 0.61847 0.29373 0.0
C1454 C 0.55115 0.64735 0.30314 0.0
C1455 C 0.54534 0.66786 0.30956 0.0
C1456 C 0.51757 0.66321 0.30848 0.0
C1457 C 0.4962 0.63847 0.30067 0.0
C1458 C 0.58037 0.65135 0.3043 0.0
C1459 C 0.5106 0.68464 0.31511 0.0
C1460 C 0.59715 0.72305 0.34415 0.0
C1461 C 0.61248 0.74461 0.33105 0.0
C1462 C 0.57519 0.69797 0.33741 0.0
C1463 C 0.56848 0.69439 0.31699 0.0
C1464 C 0.58422 0.71604 0.30362 0.0
C1465 C 0.60617 0.74086 0.31081 0.0
C1466 C 0.55924 0.67531 0.35212 0.0
C1467 C 0.57767 0.71308 0.28175 0.0
H1468 H 0.53399 0.6074 0.29011 0.0
H1469 H 0.47508 0.63513 0.29937 0.0
H1470 H 0.59475 0.6688 0.29483 0.0
H1471 H 0.5884 0.65637 0.31969 0.0
H1472 H 0.58116 0.63296 0.29945 0.0
H1473 H 0.48786 0.67757 0.31382 0.0
H1474 H 0.51713 0.69042 0.33072 0.0
H1475 H 0.52238 0.70333 0.30602 0.0
H1476 H 0.60266 0.72556 0.35963 0.0
H1477 H 0.61797 0.75759 0.30065 0.0
H1478 H 0.56112 0.65724 0.34816 0.0
H1479 H 0.53664 0.66892 0.35164 0.0
H1480 H 0.56695 0.6815 0.36751 0.0
H1481 H 0.57967 0.69594 0.2756 0.0
H1482 H 0.59176 0.73191 0.27335 0.0
H1483 H 0.55568 0.70816 0.27936 0.0
C1484 C 0.35849 0.86599 0.28396 0.0
C1485 C 0.38219 0.87345 0.29589 0.0
C1486 C 0.33393 0.86427 0.29167 0.0
C1487 C 0.33264 0.86991 0.31195 0.0
C1488 C 0.35608 0.87647 0.32427 0.0
C1489 C 0.3805 0.87811 0.31612 0.0
C1490 C 0.30956 0.85711 0.27792 0.0
C1491 C 0.35551 0.8821 0.346 0.0
C1492 C 0.28056 0.89411 0.3233 0.0
C1493 C 0.25675 0.86996 0.32931 0.0
C1494 C 0.30575 0.89464 0.31858 0.0
C1495 C 0.30729 0.87036 0.31976 0.0
C1496 C 0.28357 0.8461 0.32655 0.0
C1497 C 0.25852 0.8461 0.33091 0.0
C1498 C 0.33037 0.921 0.31144 0.0
C1499 C 0.28416 0.81979 0.32842 0.0
H1500 H 0.35922 0.8617 0.26841 0.0
H1501 H 0.39859 0.88391 0.32551 0.0
H1502 H 0.29035 0.83916 0.28367 0.0
H1503 H 0.30535 0.87436 0.27719 0.0
H1504 H 0.3135 0.85247 0.26268 0.0
H1505 H 0.37586 0.88835 0.3534 0.0
H1506 H 0.35014 0.89842 0.34812 0.0
H1507 H 0.33904 0.86344 0.35336 0.0
H1508 H 0.27924 0.91254 0.3218 0.0
H1509 H 0.24013 0.82717 0.33498 0.0
H1510 H 0.33471 0.91884 0.29571 0.0
H1511 H 0.34943 0.92572 0.32007 0.0
H1512 H 0.32656 0.93849 0.3127 0.0
H1513 H 0.28458 0.81193 0.31345 0.0
H1514 H 0.26558 0.80387 0.33646 0.0
H1515 H 0.30337 0.8233 0.33631 0.0
C1516 C 0.13076 0.50089 0.31305 0.0
C1517 C 0.10538 0.49506 0.30406 0.0
C1518 C 0.13456 0.47999 0.32088 0.0
C1519 C 0.11253 0.45263 0.3195 0.0
C1520 C 0.08631 0.44677 0.31155 0.0
C1521 C 0.08301 0.46811 0.304 0.0
C1522 C 0.16277 0.48704 0.32942 0.0
C1523 C 0.06235 0.41782 0.30983 0.0
C1524 C 0.13574 0.40047 0.31305 0.0
C1525 C 0.13124 0.38894 0.33191 0.0
C1526 C 0.12902 0.42072 0.30873 0.0
C1527 C 0.11815 0.43011 0.32387 0.0
C1528 C 0.11359 0.41854 0.34304 0.0
C1529 C 0.12007 0.39787 0.3468 0.0
C1530 C 0.1342 0.4325 0.28807 0.0
C1531 C 0.10232 0.42827 0.35957 0.0
H1532 H 0.14823 0.52162 0.31303 0.0
H1533 H 0.06315 0.46356 0.29745 0.0
H1534 H 0.16021 0.4763 0.34367 0.0
H1535 H 0.17371 0.48022 0.3191 0.0
H1536 H 0.17629 0.50933 0.33189 0.0
H1537 H 0.04245 0.41697 0.30549 0.0
H1538 H 0.0675 0.40679 0.2985 0.0
H1539 H 0.0591 0.40682 0.32404 0.0
H1540 H 0.14548 0.39437 0.30183 0.0
H1541 H 0.11629 0.38864 0.36132 0.0
H1542 H 0.15043 0.45441 0.28851 0.0
H1543 H 0.11479 0.43113 0.28202 0.0
H1544 H 0.14127 0.42181 0.27778 0.0
H1545 H 0.11684 0.45027 0.3624 0.0
H1546 H 0.09959 0.41683 0.37354 0.0
H1547 H 0.08184 0.42606 0.35523 0.0
C1548 C 0.33116 0.48464 0.2794 0.0
C1549 C 0.35497 0.5006 0.29096 0.0
C1550 C 0.30612 0.46455 0.28799 0.0
C1551 C 0.30481 0.46022 0.30871 0.0
C1552 C 0.3287 0.47661 0.32053 0.0
C1553 C 0.35357 0.49661 0.3115 0.0
C1554 C 0.28117 0.44765 0.27479 0.0
C1555 C 0.32819 0.47268 0.34261 0.0
C1556 C 0.22983 0.42045 0.32716 0.0
C1557 C 0.22502 0.39372 0.32667 0.0
C1558 C 0.25649 0.44268 0.32301 0.0
C1559 C 0.27854 0.43787 0.31759 0.0
C1560 C 0.27395 0.41086 0.31796 0.0
C1561 C 0.24712 0.38906 0.32226 0.0
C1562 C 0.26046 0.47109 0.32306 0.0
C1563 C 0.29683 0.40475 0.31245 0.0
H1564 H 0.33221 0.48772 0.26351 0.0
H1565 H 0.37193 0.50888 0.32053 0.0
H1566 H 0.27519 0.42582 0.2758 0.0
H1567 H 0.26291 0.44937 0.27978 0.0
H1568 H 0.28543 0.45403 0.25904 0.0
H1569 H 0.34759 0.48857 0.34991 0.0
H1570 H 0.30993 0.47307 0.34918 0.0
H1571 H 0.32589 0.45242 0.34585 0.0
H1572 H 0.21244 0.42387 0.3301 0.0
H1573 H 0.24306 0.36824 0.32132 0.0
H1574 H 0.26168 0.47815 0.30758 0.0
H1575 H 0.28038 0.48557 0.33052 0.0
H1576 H 0.24291 0.47182 0.33059 0.0
H1577 H 0.30093 0.40794 0.29632 0.0
H1578 H 0.29108 0.38341 0.31606 0.0
H1579 H 0.3166 0.41882 0.32024 0.0
C1580 C 0.51434 0.85763 0.31628 0.0
C1581 C 0.50804 0.85264 0.29607 0.0
C1582 C 0.53698 0.85599 0.32469 0.0
C1583 C 0.55366 0.84906 0.31265 0.0
C1584 C 0.54696 0.84357 0.29229 0.0
C1585 C 0.52434 0.84542 0.28432 0.0
C1586 C 0.54289 0.86151 0.34647 0.0
C1587 C 0.56407 0.83628 0.27877 0.0
C1588 C 0.62991 0.87158 0.32471 0.0
C1589 C 0.62831 0.84712 0.33078 0.0
C1590 C 0.60568 0.87276 0.31977 0.0
C1591 C 0.579 0.84883 0.32077 0.0
C1592 C 0.5772 0.82424 0.32758 0.0
C1593 C 0.60186 0.82359 0.33221 0.0
C1594 C 0.60874 0.89946 0.31272 0.0
C1595 C 0.5493 0.79836 0.32933 0.0
H1596 H 0.50177 0.86308 0.3255 0.0
H1597 H 0.51958 0.84152 0.26868 0.0
H1598 H 0.53711 0.84205 0.35412 0.0
H1599 H 0.56554 0.87569 0.34908 0.0
H1600 H 0.53076 0.87034 0.3532 0.0
H1601 H 0.55571 0.8319 0.26342 0.0
H1602 H 0.58605 0.85333 0.27832 0.0
H1603 H 0.56449 0.8181 0.28455 0.0
H1604 H 0.65032 0.88978 0.32344 0.0
H1605 H 0.60046 0.80448 0.33652 0.0
H1606 H 0.59479 0.90453 0.32134 0.0
H1607 H 0.60229 0.89759 0.29697 0.0
H1608 H 0.63062 0.9166 0.31409 0.0
H1609 H 0.53428 0.80229 0.33762 0.0
H1610 H 0.55112 0.78188 0.33695 0.0
H1611 H 0.54041 0.7911 0.31435 0.0
C1612 C 0.136 0.64302 0.31294 0.0
C1613 C 0.14626 0.64137 0.29433 0.0
C1614 C 0.14041 0.66807 0.32026 0.0
C1615 C 0.15564 0.69193 0.30872 0.0
C1616 C 0.1664 0.6904 0.29005 0.0
C1617 C 0.16141 0.66503 0.28302 0.0
C1618 C 0.12848 0.66897 0.34018 0.0
C1619 C 0.18302 0.71551 0.27747 0.0
C1620 C 0.14551 0.75262 0.31794 0.0
C1621 C 0.16903 0.76933 0.32955 0.0
C1622 C 0.14072 0.72718 0.31123 0.0
C1623 C 0.16009 0.71849 0.3161 0.0
C1624 C 0.18387 0.73529 0.3278 0.0
C1625 C 0.18802 0.7605 0.33442 0.0
C1626 C 0.11499 0.70963 0.2989 0.0
C1627 C 0.20512 0.72683 0.33315 0.0
H1628 H 0.12412 0.6247 0.32169 0.0
H1629 H 0.16932 0.66367 0.26863 0.0
H1630 H 0.14549 0.6833 0.35016 0.0
H1631 H 0.11359 0.67669 0.33844 0.0
H1632 H 0.11737 0.64861 0.34737 0.0
H1633 H 0.19055 0.71091 0.26354 0.0
H1634 H 0.16992 0.72472 0.27365 0.0
H1635 H 0.2014 0.73104 0.28589 0.0
H1636 H 0.13075 0.75934 0.31417 0.0
H1637 H 0.20648 0.77348 0.34315 0.0
H1638 H 0.10225 0.68943 0.30604 0.0
H1639 H 0.12129 0.70599 0.28413 0.0
H1640 H 0.10167 0.71911 0.29682 0.0
H1641 H 0.19473 0.70704 0.34111 0.0
H1642 H 0.22227 0.74216 0.34262 0.0
H1643 H 0.21445 0.72387 0.31949 0.0
C1644 C 0.83601 0.00614 0.41181 0.0
C1645 C 0.8458 0.03009 0.40068 0.0
C1646 C 0.81447 0.98109 0.40472 0.0
C1647 C 0.80219 0.98 0.38607 0.0
C1648 C 0.81194 0.00417 0.37474 0.0
C1649 C 0.83375 0.02898 0.38216 0.0
C1650 C 0.80491 0.95576 0.41716 0.0
C1651 C 0.79926 0.00381 0.35484 0.0
C1652 C 0.76498 0.91083 0.36083 0.0
C1653 C 0.73685 0.90148 0.36571 0.0
C1654 C 0.78634 0.93655 0.36699 0.0
C1655 C 0.77948 0.9534 0.37838 0.0
C1656 C 0.7511 0.94423 0.38322 0.0
C1657 C 0.73011 0.9183 0.3769 0.0
C1658 C 0.81631 0.94539 0.36164 0.0
C1659 C 0.74297 0.96168 0.39528 0.0
H1660 H 0.84531 0.007 0.42616 0.0
H1661 H 0.84114 0.04749 0.37355 0.0
H1662 H 0.78227 0.94654 0.42058 0.0
H1663 H 0.80762 0.94035 0.4088 0.0
H1664 H 0.81668 0.96008 0.43131 0.0
H1665 H 0.809 0.02438 0.34796 0.0
H1666 H 0.80179 0.9898 0.34465 0.0
H1667 H 0.77644 0.99595 0.35645 0.0
H1668 H 0.7705 0.89784 0.35246 0.0
H1669 H 0.70843 0.91125 0.38069 0.0
H1670 H 0.82866 0.94815 0.37531 0.0
H1671 H 0.82604 0.96533 0.35389 0.0
H1672 H 0.81796 0.93033 0.35199 0.0
H1673 H 0.75254 0.96517 0.41022 0.0
H1674 H 0.71989 0.95217 0.39696 0.0
H1675 H 0.75111 0.98195 0.3882 0.0
C1676 C 0.98835 0.80846 0.38062 0.0
C1677 C 0.98747 0.81217 0.40109 0.0
C1678 C 0.01285 0.81148 0.3715 0.0
C1679 C 0.03709 0.81848 0.38307 0.0
C1680 C 0.03635 0.82283 0.40367 0.0
C1681 C 0.01166 0.81959 0.41235 0.0
C1682 C 0.01274 0.807 0.34951 0.0
C1683 C 0.06148 0.83025 0.41669 0.0
C1684 C 0.0909 0.79755 0.36932 0.0
C1685 C 0.11404 0.82239 0.36355 0.0
C1686 C 0.06529 0.79573 0.37456 0.0
C1687 C 0.06265 0.81944 0.37425 0.0
C1688 C 0.08565 0.84442 0.36763 0.0
C1689 C 0.11117 0.84568 0.36259 0.0
C1690 C 0.04145 0.76861 0.38133 0.0
C1691 C 0.08378 0.87012 0.36667 0.0
H1692 H 0.96983 0.80285 0.37176 0.0
H1693 H 0.01116 0.82255 0.42817 0.0
H1694 H 0.02782 0.82648 0.34227 0.0
H1695 H 0.0196 0.79197 0.34631 0.0
H1696 H 0.99173 0.79964 0.34281 0.0
H1697 H 0.05797 0.83412 0.43226 0.0
H1698 H 0.06642 0.81346 0.41656 0.0
H1699 H 0.08009 0.84877 0.4109 0.0
H1700 H 0.09307 0.77952 0.37019 0.0
H1701 H 0.1291 0.86505 0.35847 0.0
H1702 H 0.02196 0.76371 0.3732 0.0
H1703 H 0.03743 0.76974 0.3973 0.0
H1704 H 0.04596 0.7517 0.37912 0.0
H1705 H 0.06414 0.86611 0.35918 0.0
H1706 H 0.10185 0.88678 0.35868 0.0
H1707 H 0.0833 0.87719 0.38191 0.0
C1708 C 0.23046 0.1904 0.3744 0.0
C1709 C 0.21393 0.17659 0.39083 0.0
C1710 C 0.22777 0.21121 0.3651 0.0
C1711 C 0.20767 0.21779 0.37219 0.0
C1712 C 0.19047 0.20335 0.38849 0.0
C1713 C 0.19411 0.18317 0.39778 0.0
C1714 C 0.24691 0.22664 0.34809 0.0
C1715 C 0.16841 0.20943 0.39625 0.0
C1716 C 0.21319 0.28673 0.3656 0.0
C1717 C 0.19336 0.28123 0.35066 0.0
C1718 C 0.21949 0.26674 0.37182 0.0
C1719 C 0.2051 0.24043 0.36321 0.0
C1720 C 0.18617 0.23519 0.3474 0.0
C1721 C 0.18083 0.25583 0.3411 0.0
C1722 C 0.24041 0.27335 0.38836 0.0
C1723 C 0.1701 0.20727 0.33805 0.0
H1724 H 0.24603 0.18548 0.36915 0.0
H1725 H 0.18133 0.17239 0.41048 0.0
H1726 H 0.23443 0.22584 0.33494 0.0
H1727 H 0.26017 0.24845 0.35217 0.0
H1728 H 0.26079 0.2184 0.34393 0.0
H1729 H 0.15561 0.19516 0.40821 0.0
H1730 H 0.17855 0.23054 0.40215 0.0
H1731 H 0.15423 0.20811 0.38407 0.0
H1732 H 0.22324 0.30644 0.37288 0.0
H1733 H 0.1656 0.25148 0.32947 0.0
H1734 H 0.25532 0.26621 0.3846 0.0
H1735 H 0.22924 0.26258 0.40203 0.0
H1736 H 0.25249 0.29558 0.39155 0.0
H1737 H 0.18445 0.19961 0.33395 0.0
H1738 H 0.15839 0.2073 0.32464 0.0
H1739 H 0.15489 0.19272 0.34892 0.0
C1740 C 0.64444 0.53882 0.73607 0.0
C1741 C 0.63291 0.51174 0.72931 0.0
C1742 C 0.66959 0.55995 0.72839 0.0
C1743 C 0.6826 0.55465 0.71229 0.0
C1744 C 0.67024 0.52799 0.70436 0.0
C1745 C 0.64615 0.50677 0.7133 0.0
C1746 C 0.6827 0.58778 0.73802 0.0
C1747 C 0.68238 0.52187 0.68635 0.0
C1748 C 0.73678 0.62048 0.68779 0.0
C1749 C 0.76173 0.62285 0.69499 0.0
C1750 C 0.7109 0.59708 0.69182 0.0
C1751 C 0.70995 0.57682 0.7047 0.0
C1752 C 0.73529 0.57937 0.71207 0.0
C1753 C 0.76092 0.6021 0.70674 0.0
C1754 C 0.68459 0.59427 0.68259 0.0
C1755 C 0.7353 0.55921 0.72677 0.0
H1756 H 0.63417 0.54382 0.7476 0.0
H1757 H 0.63818 0.48626 0.70779 0.0
H1758 H 0.70481 0.5947 0.74207 0.0
H1759 H 0.68285 0.60292 0.72753 0.0
H1760 H 0.67134 0.58783 0.75158 0.0
H1761 H 0.67084 0.49989 0.68234 0.0
H1762 H 0.68148 0.53381 0.67363 0.0
H1763 H 0.70471 0.52816 0.68879 0.0
H1764 H 0.73754 0.63696 0.67909 0.0
H1765 H 0.78033 0.60453 0.71276 0.0
H1766 H 0.67102 0.59557 0.69413 0.0
H1767 H 0.67246 0.57397 0.67544 0.0
H1768 H 0.68926 0.61034 0.67136 0.0
H1769 H 0.72419 0.55937 0.74043 0.0
H1770 H 0.75684 0.56397 0.73084 0.0
H1771 H 0.72391 0.53823 0.72068 0.0
C1772 C 0.50337 0.12906 0.71226 0.0
C1773 C 0.51013 0.1345 0.73242 0.0
C1774 C 0.48093 0.13101 0.70385 0.0
C1775 C 0.46472 0.13858 0.7158 0.0
C1776 C 0.47212 0.14504 0.73598 0.0
C1777 C 0.49469 0.14309 0.74395 0.0
C1778 C 0.47431 0.12456 0.68222 0.0
C1779 C 0.45557 0.1532 0.74937 0.0
C1780 C 0.41548 0.16235 0.6955 0.0
C1781 C 0.38919 0.13865 0.69721 0.0
C1782 C 0.44039 0.16229 0.70033 0.0
C1783 C 0.43902 0.13819 0.70777 0.0
C1784 C 0.41252 0.1141 0.70924 0.0
C1785 C 0.38803 0.11465 0.70397 0.0
C1786 C 0.46805 0.18835 0.69811 0.0
C1787 C 0.40988 0.08794 0.71716 0.0
H1788 H 0.51501 0.12236 0.70317 0.0
H1789 H 0.50004 0.14799 0.75943 0.0
H1790 H 0.45214 0.10833 0.68033 0.0
H1791 H 0.47708 0.14301 0.67443 0.0
H1792 H 0.488 0.11779 0.67509 0.0
H1793 H 0.4645 0.15842 0.76455 0.0
H1794 H 0.45498 0.17105 0.74312 0.0
H1795 H 0.43361 0.13622 0.7504 0.0
H1796 H 0.41663 0.18119 0.69086 0.0
H1797 H 0.36777 0.09637 0.70558 0.0
H1798 H 0.48341 0.18433 0.6904 0.0
H1799 H 0.47674 0.19664 0.71296 0.0
H1800 H 0.4659 0.20414 0.68972 0.0
H1801 H 0.42371 0.0825 0.70876 0.0
H1802 H 0.38804 0.07062 0.7163 0.0
H1803 H 0.41677 0.09082 0.73285 0.0
C1804 C 0.87531 0.36443 0.74186 0.0
C1805 C 0.89035 0.38862 0.73104 0.0
C1806 C 0.87008 0.33936 0.73405 0.0
C1807 C 0.88052 0.33858 0.71507 0.0
C1808 C 0.8952 0.36288 0.70389 0.0
C1809 C 0.89978 0.38766 0.71198 0.0
C1810 C 0.85392 0.3138 0.74629 0.0
C1811 C 0.90684 0.36283 0.68368 0.0
C1812 C 0.89237 0.27883 0.70611 0.0
C1813 C 0.8686 0.26126 0.69502 0.0
C1814 C 0.89689 0.30442 0.71225 0.0
C1815 C 0.87698 0.31243 0.70737 0.0
C1816 C 0.85313 0.29491 0.69596 0.0
C1817 C 0.84926 0.26956 0.68987 0.0
C1818 C 0.92276 0.32271 0.72422 0.0
C1819 C 0.83127 0.30258 0.69063 0.0
H1820 H 0.86778 0.36519 0.75654 0.0
H1821 H 0.91159 0.40644 0.70369 0.0
H1822 H 0.83594 0.29808 0.73767 0.0
H1823 H 0.86761 0.3052 0.75003 0.0
H1824 H 0.84589 0.3177 0.76026 0.0
H1825 H 0.91658 0.38322 0.67651 0.0
H1826 H 0.92287 0.35647 0.685 0.0
H1827 H 0.89 0.34784 0.67389 0.0
H1828 H 0.90746 0.2726 0.71004 0.0
H1829 H 0.83067 0.25597 0.68147 0.0
H1830 H 0.9166 0.32578 0.73921 0.0
H1831 H 0.93452 0.34309 0.71715 0.0
H1832 H 0.93696 0.31413 0.7258 0.0
H1833 H 0.82114 0.30433 0.70431 0.0
H1834 H 0.81478 0.28732 0.68071 0.0
H1835 H 0.84121 0.32277 0.68322 0.0
C1836 C 0.19955 0.95767 0.63131 0.0
C1837 C 0.17215 0.95269 0.62851 0.0
C1838 C 0.22053 0.98264 0.63896 0.0
C1839 C 0.21404 0.00328 0.64364 0.0
C1840 C 0.18625 0.99817 0.64118 0.0
C1841 C 0.16555 0.97281 0.63377 0.0
C1842 C 0.24977 0.98711 0.64169 0.0
C1843 C 0.1786 0.01978 0.64581 0.0
C1844 C 0.26355 0.06167 0.67706 0.0
C1845 C 0.27965 0.08201 0.66329 0.0
C1846 C 0.24211 0.03594 0.67092 0.0
C1847 C 0.23656 0.03051 0.65046 0.0
C1848 C 0.25286 0.05099 0.63645 0.0
C1849 C 0.27437 0.07644 0.64305 0.0
C1850 C 0.22557 0.01451 0.68631 0.0
C1851 C 0.24742 0.04612 0.61451 0.0
H1852 H 0.20459 0.942 0.62738 0.0
H1853 H 0.14441 0.96903 0.63145 0.0
H1854 H 0.26453 0.00374 0.6318 0.0
H1855 H 0.25696 0.99357 0.65712 0.0
H1856 H 0.25098 0.96846 0.63841 0.0
H1857 H 0.15589 0.0123 0.64366 0.0
H1858 H 0.18426 0.02682 0.66132 0.0
H1859 H 0.19068 0.03777 0.63612 0.0
H1860 H 0.26811 0.06564 0.69263 0.0
H1861 H 0.28669 0.09222 0.63235 0.0
H1862 H 0.22804 0.99639 0.68395 0.0
H1863 H 0.20294 0.00764 0.68483 0.0
H1864 H 0.23233 0.02212 0.70163 0.0
H1865 H 0.25019 0.02881 0.6098 0.0
H1866 H 0.26162 0.06434 0.60559 0.0
H1867 H 0.22543 0.04046 0.61116 0.0
C1868 C 0.04735 0.21491 0.6472 0.0
C1869 C 0.04797 0.20923 0.62702 0.0
C1870 C 0.02334 0.21358 0.65582 0.0
C1871 C 0.99925 0.20634 0.64406 0.0
C1872 C 0.99945 0.19967 0.62387 0.0
C1873 C 0.02363 0.20109 0.61567 0.0
C1874 C 0.02388 0.22026 0.67747 0.0
C1875 C 0.97431 0.19169 0.61072 0.0
C1876 C 0.92627 0.18332 0.66488 0.0
C1877 C 0.92425 0.207 0.66286 0.0
C1878 C 0.95109 0.18317 0.66002 0.0
C1879 C 0.97431 0.20709 0.65233 0.0
C1880 C 0.97258 0.23125 0.65074 0.0
C1881 C 0.94762 0.23087 0.65597 0.0
C1882 C 0.95189 0.15701 0.66232 0.0
C1883 C 0.99671 0.25725 0.64267 0.0
H1884 H 0.06595 0.22124 0.65614 0.0
H1885 H 0.02354 0.19603 0.60019 0.0
H1886 H 0.01847 0.23658 0.67944 0.0
H1887 H 0.00789 0.20194 0.68544 0.0
H1888 H 0.04464 0.22697 0.68437 0.0
H1889 H 0.97746 0.18629 0.5955 0.0
H1890 H 0.9555 0.17399 0.61715 0.0
H1891 H 0.96993 0.20882 0.60977 0.0
H1892 H 0.90821 0.16459 0.66968 0.0
H1893 H 0.94611 0.24916 0.65417 0.0
H1894 H 0.97178 0.161 0.6694 0.0
H1895 H 0.95089 0.14811 0.6475 0.0
H1896 H 0.93409 0.14169 0.67132 0.0
H1897 H 0.01625 0.26248 0.65085 0.0
H1898 H 0.99286 0.27474 0.64368 0.0
H1899 H 1.0002 0.25428 0.62692 0.0
C1900 C 0.80299 0.82543 0.62221 0.0
C1901 C 0.79161 0.83936 0.63216 0.0
C1902 C 0.80458 0.80401 0.63132 0.0
C1903 C 0.79399 0.79601 0.65073 0.0
C1904 C 0.78218 0.80985 0.66082 0.0
C1905 C 0.78143 0.83169 0.65146 0.0
C1906 C 0.81786 0.79015 0.62021 0.0
C1907 C 0.77028 0.80149 0.68138 0.0
C1908 C 0.78002 0.7249 0.66255 0.0
C1909 C 0.80501 0.73065 0.67206 0.0
C1910 C 0.7752 0.74601 0.65668 0.0
C1911 C 0.79597 0.77344 0.66037 0.0
C1912 C 0.82041 0.77922 0.67112 0.0
C1913 C 0.82456 0.75771 0.67692 0.0
C1914 C 0.74871 0.73901 0.64546 0.0
C1915 C 0.84325 0.80816 0.67516 0.0
H1916 H 0.81109 0.83165 0.60734 0.0
H1917 H 0.77254 0.84251 0.65905 0.0
H1918 H 0.83579 0.79166 0.6288 0.0
H1919 H 0.80247 0.76816 0.61837 0.0
H1920 H 0.82548 0.79918 0.60534 0.0
H1921 H 0.76134 0.81399 0.68703 0.0
H1922 H 0.75362 0.77971 0.68141 0.0
H1923 H 0.78686 0.80349 0.69175 0.0
H1924 H 0.76461 0.70394 0.6591 0.0
H1925 H 0.84394 0.76233 0.68428 0.0
H1926 H 0.75375 0.74422 0.62961 0.0
H1927 H 0.73929 0.75107 0.6511 0.0
H1928 H 0.73293 0.71695 0.64652 0.0
H1929 H 0.85417 0.81774 0.66112 0.0
H1930 H 0.859 0.80906 0.68591 0.0
H1931 H 0.83428 0.82052 0.68098 0.0
C1932 C 1.00273 0.81702 0.61527 0.0
C1933 C 0.02673 0.83297 0.62664 0.0
C1934 C 0.97763 0.79751 0.62411 0.0
C1935 C 0.97649 0.79372 0.6449 0.0
C1936 C 1.00066 0.80994 0.6565 0.0
C1937 C 0.02553 0.82947 0.64724 0.0
C1938 C 0.95237 0.78074 0.61114 0.0
C1939 C 1.00027 0.80658 0.67865 0.0
C1940 C 0.90158 0.75662 0.66339 0.0
C1941 C 0.89567 0.72953 0.66295 0.0
C1942 C 0.92865 0.77814 0.6593 0.0
C1943 C 0.95 0.77223 0.65408 0.0
C1944 C 0.94438 0.74488 0.65473 0.0
C1945 C 0.91712 0.72379 0.65894 0.0
C1946 C 0.93369 0.80693 0.659 0.0
C1947 C 0.96654 0.73765 0.64952 0.0
H1948 H 1.00365 0.81972 0.59934 0.0
H1949 H 0.04405 0.84176 0.65611 0.0
H1950 H 0.94576 0.75878 0.61251 0.0
H1951 H 0.93453 0.78323 0.61604 0.0
H1952 H 0.95658 0.7866 0.59529 0.0
H1953 H 0.02112 0.8199 0.68547 0.0
H1954 H 0.98497 0.81162 0.68526 0.0
H1955 H 0.99341 0.78505 0.68243 0.0
H1956 H 0.88469 0.76087 0.66604 0.0
H1957 H 0.91223 0.70269 0.65812 0.0
H1958 H 0.93478 0.81364 0.64343 0.0
H1959 H 0.95394 0.82116 0.66617 0.0
H1960 H 0.91667 0.80854 0.6666 0.0
H1961 H 0.9705 0.74014 0.63334 0.0
H1962 H 0.96012 0.71627 0.65357 0.0
H1963 H 0.98656 0.75154 0.65711 0.0
C1964 C 0.18109 0.19507 0.64595 0.0
C1965 C 0.17403 0.18902 0.62591 0.0
C1966 C 0.20393 0.19368 0.65425 0.0
C1967 C 0.22002 0.18594 0.64229 0.0
C1968 C 0.21253 0.17935 0.62214 0.0
C1969 C 0.18974 0.18099 0.61425 0.0
C1970 C 0.21075 0.20045 0.67582 0.0
C1971 C 0.22898 0.17112 0.60872 0.0
C1972 C 0.29663 0.20873 0.65323 0.0
C1973 C 0.29512 0.18459 0.66001 0.0
C1974 C 0.27228 0.20978 0.64841 0.0
C1975 C 0.24559 0.18602 0.65025 0.0
C1976 C 0.24392 0.16179 0.65777 0.0
C1977 C 0.26868 0.16126 0.66227 0.0
C1978 C 0.27523 0.2361 0.64059 0.0
C1979 C 0.21603 0.13612 0.66038 0.0
H1980 H 0.169 0.20117 0.6551 0.0
H1981 H 0.18437 0.17626 0.59876 0.0
H1982 H 0.2059 0.18156 0.68396 0.0
H1983 H 0.2334 0.21521 0.67778 0.0
H1984 H 0.19849 0.20916 0.68252 0.0
H1985 H 0.21999 0.16587 0.59356 0.0
H1986 H 0.25097 0.18804 0.60764 0.0
H1987 H 0.22952 0.15324 0.61499 0.0
H1988 H 0.31702 0.22677 0.65134 0.0
H1989 H 0.26735 0.14238 0.66715 0.0
H1990 H 0.26164 0.24176 0.6491 0.0
H1991 H 0.26822 0.23334 0.62493 0.0
H1992 H 0.29718 0.25323 0.64138 0.0
H1993 H 0.20131 0.14063 0.6685 0.0
H1994 H 0.21804 0.12011 0.66858 0.0
H1995 H 0.20667 0.12791 0.64566 0.0
C1996 C 0.84746 0.01097 0.61608 0.0
C1997 C 0.83334 0.98618 0.62628 0.0
C1998 C 0.84891 0.03469 0.62377 0.0
C1999 C 0.83556 0.03336 0.64197 0.0
C2000 C 0.82127 0.00835 0.65235 0.0
C2001 C 0.82045 0.98503 0.64442 0.0
C2002 C 0.86466 0.06112 0.61243 0.0
C2003 C 0.80665 0.00618 0.67172 0.0
C2004 C 0.86024 0.0992 0.67033 0.0
C2005 C 0.84027 0.10654 0.66482 0.0
C2006 C 0.85881 0.07534 0.66314 0.0
C2007 C 0.83677 0.05825 0.6502 0.0
C2008 C 0.81623 0.06523 0.64484 0.0
C2009 C 0.81831 0.08943 0.65213 0.0
C2010 C 0.88129 0.06877 0.66905 0.0
C2011 C 0.79224 0.0473 0.63122 0.0
H2012 H 0.85736 0.01179 0.60203 0.0
H2013 H 0.8093 0.96583 0.6523 0.0
H2014 H 0.85028 0.06883 0.60843 0.0
H2015 H 0.88147 0.07687 0.62184 0.0
H2016 H 0.87426 0.05876 0.59866 0.0
H2017 H 0.79633 0.98517 0.67788 0.0
H2018 H 0.82192 0.02033 0.68276 0.0
H2019 H 0.79056 0.01233 0.6696 0.0
H2020 H 0.8775 0.11246 0.67992 0.0
H2021 H 0.80281 0.09496 0.64784 0.0
H2022 H 0.89293 0.06854 0.65572 0.0
H2023 H 0.87168 0.04816 0.67579 0.0
H2024 H 0.8965 0.08379 0.67976 0.0
H2025 H 0.8005 0.04596 0.61655 0.0
H2026 H 0.77744 0.05508 0.62911 0.0
H2027 H 0.78051 0.02628 0.63728 0.0
C2028 C 0.50596 0.34169 0.74105 0.0
C2029 C 0.51612 0.36618 0.73055 0.0
C2030 C 0.48409 0.31719 0.7335 0.0
C2031 C 0.47196 0.31724 0.71502 0.0
C2032 C 0.48217 0.34195 0.7043 0.0
C2033 C 0.50423 0.36619 0.71219 0.0
C2034 C 0.47397 0.29125 0.74531 0.0
C2035 C 0.46968 0.34275 0.68457 0.0
C2036 C 0.43316 0.249 0.68873 0.0
C2037 C 0.40522 0.24012 0.69391 0.0
C2038 C 0.45498 0.27436 0.69504 0.0
C2039 C 0.44878 0.29128 0.70693 0.0
C2040 C 0.4206 0.28264 0.712 0.0
C2041 C 0.39914 0.2571 0.70547 0.0
C2042 C 0.48473 0.28267 0.68942 0.0
C2043 C 0.41319 0.30017 0.72462 0.0
H2044 H 0.51514 0.34171 0.75527 0.0
H2045 H 0.51195 0.38513 0.70407 0.0
H2046 H 0.4514 0.28239 0.74883 0.0
H2047 H 0.47616 0.27591 0.73643 0.0
H2048 H 0.48574 0.2947 0.75938 0.0
H2049 H 0.47994 0.36359 0.67812 0.0
H2050 H 0.47169 0.32883 0.67398 0.0
H2051 H 0.44698 0.33543 0.6863 0.0
H2052 H 0.43816 0.23587 0.68007 0.0
H2053 H 0.37762 0.2504 0.70952 0.0
H2054 H 0.49696 0.28431 0.70293 0.0
H2055 H 0.49499 0.30303 0.68226 0.0
H2056 H 0.48581 0.26784 0.67917 0.0
H2057 H 0.42264 0.30274 0.73954 0.0
H2058 H 0.39018 0.29121 0.72631 0.0
H2059 H 0.42195 0.3208 0.71802 0.0
C2060 C 0.65559 0.14436 0.71183 0.0
C2061 C 0.65469 0.14935 0.73209 0.0
C2062 C 0.67997 0.14642 0.7032 0.0
C2063 C 0.70403 0.15375 0.71507 0.0
C2064 C 0.70322 0.15926 0.73544 0.0
C2065 C 0.67866 0.15696 0.74363 0.0
C2066 C 0.67995 0.14072 0.68142 0.0
C2067 C 0.72818 0.16711 0.74875 0.0
C2068 C 0.75853 0.13289 0.70338 0.0
C2069 C 0.78158 0.15763 0.69735 0.0
C2070 C 0.73266 0.13097 0.70797 0.0
C2071 C 0.72971 0.15447 0.70674 0.0
C2072 C 0.75263 0.17928 0.69983 0.0
C2073 C 0.77835 0.18063 0.69548 0.0
C2074 C 0.70889 0.10405 0.7151 0.0
C2075 C 0.75049 0.20478 0.69794 0.0
H2076 H 0.63721 0.13857 0.70276 0.0
H2077 H 0.67813 0.16088 0.75929 0.0
H2078 H 0.69477 0.15988 0.6737 0.0
H2079 H 0.6872 0.12582 0.67893 0.0
H2080 H 0.65888 0.13266 0.67463 0.0
H2081 H 0.7245 0.17153 0.76413 0.0
H2082 H 0.73313 0.15033 0.74919 0.0
H2083 H 0.74687 0.18542 0.7428 0.0
H2084 H 0.76098 0.1151 0.705 0.0
H2085 H 0.79616 0.19998 0.69126 0.0
H2086 H 0.68942 0.09872 0.70678 0.0
H2087 H 0.70474 0.10574 0.73096 0.0
H2088 H 0.71357 0.08717 0.71345 0.0
H2089 H 0.73101 0.20029 0.68998 0.0
H2090 H 0.7687 0.22127 0.68993 0.0
H2091 H 0.74949 0.21233 0.7129 0.0
C2092 C 0.88716 0.52089 0.70944 0.0
C2093 C 0.87882 0.51398 0.72919 0.0
C2094 C 0.88326 0.54068 0.69963 0.0
C2095 C 0.87044 0.55351 0.70978 0.0
C2096 C 0.86166 0.54627 0.72963 0.0
C2097 C 0.86618 0.52674 0.73914 0.0
C2098 C 0.89321 0.54817 0.67855 0.0
C2099 C 0.84761 0.55927 0.74089 0.0
C2100 C 0.88149 0.62298 0.69536 0.0
C2101 C 0.85617 0.61601 0.6858 0.0
C2102 C 0.88705 0.60277 0.70232 0.0
C2103 C 0.86659 0.57494 0.69992 0.0
C2104 C 0.84149 0.56777 0.68954 0.0
C2105 C 0.83667 0.58843 0.68245 0.0
C2106 C 0.91428 0.61124 0.71303 0.0
C2107 C 0.81903 0.53833 0.68688 0.0
H2108 H 0.89713 0.51117 0.70174 0.0
H2109 H 0.85971 0.52135 0.7544 0.0
H2110 H 0.87551 0.54492 0.66886 0.0
H2111 H 0.9092 0.57014 0.67769 0.0
H2112 H 0.90245 0.53604 0.67267 0.0
H2113 H 0.84117 0.55066 0.75601 0.0
H2114 H 0.86208 0.58157 0.74219 0.0
H2115 H 0.82878 0.55632 0.73273 0.0
H2116 H 0.89675 0.64429 0.69784 0.0
H2117 H 0.81701 0.58288 0.67515 0.0
H2118 H 0.92448 0.60007 0.70704 0.0
H2119 H 0.91003 0.60593 0.72894 0.0
H2120 H 0.92915 0.63351 0.7118 0.0
H2121 H 0.8281 0.52628 0.68066 0.0
H2122 H 0.80185 0.53612 0.67701 0.0
H2123 H 0.80993 0.52938 0.70151 0.0
C2124 C 0.45044 0.93321 0.23633 0.0
C2125 C 0.45112 0.90903 0.23966 0.0
C2126 C 0.45965 0.9474 0.21832 0.0
C2127 C 0.46966 0.93713 0.20317 0.0
C2128 C 0.46991 0.91247 0.20631 0.0
C2129 C 0.46076 0.89879 0.22452 0.0
C2130 C 0.45926 0.97374 0.21567 0.0
C2131 C 0.48013 0.90067 0.19049 0.0
C2132 C 0.47382 0.96478 0.15098 0.0
C2133 C 0.50223 0.98488 0.14966 0.0
C2134 C 0.46302 0.94868 0.16811 0.0
C2135 C 0.48096 0.95286 0.18441 0.0
C2136 C 0.50973 0.97271 0.18302 0.0
C2137 C 0.52 0.98831 0.16569 0.0
C2138 C 0.43227 0.92758 0.16892 0.0
C2139 C 0.52962 0.97785 0.20002 0.0
H2140 H 0.44331 0.94141 0.24801 0.0
H2141 H 0.46102 0.87995 0.2269 0.0
H2142 H 0.48093 0.99084 0.21345 0.0
H2143 H 0.44704 0.97258 0.20227 0.0
H2144 H 0.45003 0.97853 0.22861 0.0
H2145 H 0.47788 0.88073 0.19491 0.0
H2146 H 0.46829 0.89784 0.17656 0.0
H2147 H 0.50253 0.91506 0.18726 0.0
H2148 H 0.45981 0.96208 0.13881 0.0
H2149 H 0.54208 0.00334 0.16472 0.0
H2150 H 0.42185 0.93313 0.1806 0.0
H2151 H 0.42959 0.90736 0.1729 0.0
H2152 H 0.42145 0.92569 0.15462 0.0
H2153 H 0.52267 0.98451 0.21325 0.0
H2154 H 0.55148 0.99371 0.19649 0.0
H2155 H 0.52944 0.95873 0.20402 0.0
C2156 C 0.08046 0.50971 0.23001 0.0
C2157 C 0.07646 0.52623 0.24359 0.0
C2158 C 0.06774 0.50411 0.21128 0.0
C2159 C 0.05079 0.51545 0.20601 0.0
C2160 C 0.04671 0.53217 0.21963 0.0
C2161 C 0.0595 0.53726 0.23828 0.0
C2162 C 0.0725 0.48614 0.19712 0.0
C2163 C 0.02878 0.54465 0.2145 0.0
C2164 C 0.03728 0.52322 0.15201 0.0
C2165 C 0.0098 0.50163 0.14955 0.0
C2166 C 0.05115 0.5276 0.17022 0.0
C2167 C 0.0372 0.50988 0.18626 0.0
C2168 C 0.00974 0.4876 0.1837 0.0
C2169 C 0.99632 0.48379 0.16536 0.0
C2170 C 0.08039 0.55167 0.17245 0.0
C2171 C 0.99433 0.46813 0.20043 0.0
H2172 H 0.09385 0.50143 0.23393 0.0
H2173 H 0.056 0.54971 0.24882 0.0
H2174 H 0.05212 0.46833 0.19279 0.0
H2175 H 0.08257 0.49763 0.1834 0.0
H2176 H 0.08593 0.47859 0.20362 0.0
H2177 H 0.02804 0.55748 0.22668 0.0
H2178 H 0.03703 0.55745 0.20104 0.0
H2179 H 0.00708 0.52833 0.21115 0.0
H2180 H 0.04764 0.5372 0.13986 0.0
H2181 H 0.9752 0.46688 0.1634 0.0
H2182 H 0.0948 0.54483 0.17813 0.0
H2183 H 0.08027 0.56621 0.18343 0.0
H2184 H 0.08882 0.56267 0.15826 0.0
H2185 H 0.00709 0.45955 0.20646 0.0
H2186 H 0.97367 0.45102 0.19571 0.0
H2187 H 0.99093 0.47925 0.21266 0.0
C2188 C 0.48469 0.57306 0.22141 0.0
C2189 C 0.47265 0.55394 0.23673 0.0
C2190 C 0.49307 0.56632 0.20369 0.0
C2191 C 0.48967 0.53993 0.20137 0.0
C2192 C 0.47698 0.52036 0.21664 0.0
C2193 C 0.46844 0.52756 0.23411 0.0
C2194 C 0.50609 0.58761 0.18764 0.0
C2195 C 0.4733 0.49214 0.2148 0.0
C2196 C 0.49407 0.51557 0.14973 0.0
C2197 C 0.52203 0.5214 0.14908 0.0
C2198 C 0.48324 0.52156 0.16661 0.0
C2199 C 0.50065 0.53329 0.18336 0.0
C2200 C 0.52879 0.53903 0.18288 0.0
C2201 C 0.53918 0.53321 0.16572 0.0
C2202 C 0.4532 0.51539 0.1665 0.0
C2203 C 0.54799 0.55143 0.20048 0.0
H2204 H 0.48768 0.59338 0.22336 0.0
H2205 H 0.45933 0.51284 0.24602 0.0
H2206 H 0.5282 0.59294 0.18536 0.0
H2207 H 0.49491 0.57939 0.17342 0.0
H2208 H 0.50562 0.60655 0.19126 0.0
H2209 H 0.46194 0.47894 0.22762 0.0
H2210 H 0.4616 0.48214 0.20107 0.0
H2211 H 0.49413 0.49362 0.2137 0.0
H2212 H 0.48049 0.50606 0.1371 0.0
H2213 H 0.56092 0.53825 0.16529 0.0
H2214 H 0.45241 0.53431 0.16946 0.0
H2215 H 0.44131 0.50073 0.17848 0.0
H2216 H 0.44255 0.50667 0.15218 0.0
H2217 H 0.55052 0.57175 0.20386 0.0
H2218 H 0.56907 0.55388 0.19794 0.0
H2219 H 0.53865 0.53843 0.21374 0.0
C2220 C 0.92633 0.46795 0.80178 0.0
C2221 C 0.93275 0.45424 0.78719 0.0
C2222 C 0.94034 0.47478 0.82007 0.0
C2223 C 0.961 0.46742 0.82394 0.0
C2224 C 0.96761 0.45364 0.8093 0.0
C2225 C 0.9536 0.44744 0.79107 0.0
C2226 C 0.93297 0.48973 0.83528 0.0
C2227 C 0.98942 0.44531 0.81292 0.0
C2228 C 0.01656 0.50308 0.8635 0.0
C2229 C 0.00596 0.48412 0.87901 0.0
C2230 C 1.00163 0.49836 0.84572 0.0
C2231 C 0.97573 0.47392 0.84333 0.0
C2232 C 0.96469 0.45494 0.8591 0.0
C2233 C 0.97988 0.46037 0.87681 0.0
C2234 C 0.01385 0.51926 0.82935 0.0
C2235 C 0.93732 0.42849 0.85701 0.0
H2236 H 0.91006 0.47302 0.79901 0.0
H2237 H 0.95915 0.43738 0.77976 0.0
H2238 H 0.92469 0.47709 0.84881 0.0
H2239 H 0.95203 0.50894 0.83966 0.0
H2240 H 0.91706 0.49477 0.82973 0.0
H2241 H 0.99174 0.43429 0.8001 0.0
H2242 H 0.01003 0.46361 0.81599 0.0
H2243 H 0.98369 0.43193 0.82613 0.0
H2244 H 0.03658 0.5216 0.8653 0.0
H2245 H 0.97179 0.4456 0.88875 0.0
H2246 H 0.99829 0.52502 0.82433 0.0
H2247 H 0.01893 0.5104 0.81644 0.0
H2248 H 0.03322 0.53801 0.83406 0.0
H2249 H 0.92038 0.43259 0.85247 0.0
H2250 H 0.931 0.41652 0.87097 0.0
H2251 H 0.93924 0.41584 0.84523 0.0
C2252 C 0.54097 0.46582 0.79262 0.0
C2253 C 0.56929 0.47475 0.78875 0.0
C2254 C 0.53238 0.4706 0.81097 0.0
C2255 C 0.55262 0.485 0.8258 0.0
C2256 C 0.58122 0.49385 0.82214 0.0
C2257 C 0.58921 0.48853 0.80367 0.0
C2258 C 0.50165 0.46072 0.81432 0.0
C2259 C 0.60339 0.50934 0.8376 0.0
C2260 C 0.53055 0.52003 0.86377 0.0
C2261 C 0.52165 0.5014 0.8795 0.0
C2262 C 0.54169 0.51544 0.84649 0.0
C2263 C 0.54373 0.49151 0.84484 0.0
C2264 C 0.53545 0.47297 0.86088 0.0
C2265 C 0.52459 0.4782 0.87807 0.0
C2266 C 0.5506 0.53585 0.82979 0.0
C2267 C 0.53708 0.44712 0.85962 0.0
H2268 H 0.52548 0.4556 0.78109 0.0
H2269 H 0.61108 0.49519 0.8009 0.0
H2270 H 0.49427 0.44787 0.82782 0.0
H2271 H 0.49848 0.47841 0.81673 0.0
H2272 H 0.48843 0.44867 0.80162 0.0
H2273 H 0.62461 0.51418 0.83262 0.0
H2274 H 0.60383 0.5287 0.84119 0.0
H2275 H 0.5983 0.49727 0.85146 0.0
H2276 H 0.52869 0.53819 0.86496 0.0
H2277 H 0.51754 0.46366 0.89016 0.0
H2278 H 0.53689 0.52626 0.81674 0.0
H2279 H 0.57237 0.54225 0.82521 0.0
H2280 H 0.54948 0.5543 0.83394 0.0
H2281 H 0.52239 0.43355 0.84807 0.0
H2282 H 0.53171 0.43584 0.87387 0.0
H2283 H 0.55845 0.45189 0.8552 0.0
C2284 C 0.54323 0.07562 0.79293 0.0
C2285 C 0.54015 0.09851 0.78972 0.0
C2286 C 0.53544 0.06147 0.81104 0.0
C2287 C 0.52467 0.07063 0.82644 0.0
C2288 C 0.5224 0.09428 0.82348 0.0
C2289 C 0.52994 0.10779 0.80512 0.0
C2290 C 0.53787 0.03617 0.81346 0.0
C2291 C 0.51147 0.10502 0.83958 0.0
C2292 C 0.47632 0.01789 0.86392 0.0
C2293 C 0.4945 0.02202 0.87983 0.0
C2294 C 0.48584 0.03367 0.84661 0.0
C2295 C 0.51422 0.05452 0.84515 0.0
C2296 C 0.53253 0.05945 0.86135 0.0
C2297 C 0.52251 0.04308 0.87844 0.0
C2298 C 0.46556 0.02767 0.82971 0.0
C2299 C 0.56284 0.08169 0.8605 0.0
H2300 H 0.55087 0.06823 0.78103 0.0
H2301 H 0.52781 0.12565 0.80278 0.0
H2302 H 0.55043 0.03797 0.82681 0.0
H2303 H 0.51672 0.01816 0.81562 0.0
H2304 H 0.54773 0.03238 0.80042 0.0
H2305 H 0.51289 0.12471 0.83546 0.0
H2306 H 0.48923 0.08994 0.84271 0.0
H2307 H 0.52341 0.10794 0.85348 0.0
H2308 H 0.4545 0.00215 0.86494 0.0
H2309 H 0.53685 0.04636 0.8905 0.0
H2310 H 0.47314 0.02197 0.81632 0.0
H2311 H 0.46435 0.04618 0.826 0.0
H2312 H 0.44414 0.01085 0.83322 0.0
H2313 H 0.57384 0.07702 0.84871 0.0
H2314 H 0.57394 0.08405 0.87474 0.0
H2315 H 0.56432 0.10146 0.85665 0.0
C2316 C 0.09353 0.23581 0.55424 0.0
C2317 C 0.11391 0.24236 0.569 0.0
C2318 C 0.10058 0.24884 0.53568 0.0
C2319 C 0.12869 0.26898 0.53174 0.0
C2320 C 0.14941 0.27543 0.54649 0.0
C2321 C 0.14179 0.26209 0.56489 0.0
C2322 C 0.07786 0.24129 0.52038 0.0
C2323 C 0.1796 0.29685 0.54296 0.0
C2324 C 0.15467 0.29058 0.47887 0.0
C2325 C 0.155 0.31551 0.47735 0.0
C2326 C 0.1455 0.27484 0.49628 0.0
C2327 C 0.13636 0.2842 0.51256 0.0
C2328 C 0.13575 0.30887 0.51084 0.0
C2329 C 0.14503 0.32416 0.4933 0.0
C2330 C 0.14644 0.24864 0.49749 0.0
C2331 C 0.12597 0.31951 0.52774 0.0
H2332 H 0.07202 0.22034 0.55716 0.0
H2333 H 0.15763 0.26758 0.57626 0.0
H2334 H 0.07578 0.25936 0.51681 0.0
H2335 H 0.08355 0.23481 0.50647 0.0
H2336 H 0.05721 0.22458 0.52548 0.0
H2337 H 0.19337 0.29875 0.55562 0.0
H2338 H 0.18759 0.29181 0.52947 0.0
H2339 H 0.18115 0.31695 0.54042 0.0
H2340 H 0.16252 0.28382 0.46669 0.0
H2341 H 0.14474 0.34315 0.49214 0.0
H2342 H 0.12577 0.23159 0.50215 0.0
H2343 H 0.16196 0.25068 0.50884 0.0
H2344 H 0.15225 0.24322 0.48314 0.0
H2345 H 0.10465 0.30379 0.53248 0.0
H2346 H 0.12553 0.33837 0.52373 0.0
H2347 H 0.14011 0.32403 0.54064 0.0
C2348 C 0.75683 0.89205 0.56479 0.0
C2349 C 0.76579 0.87445 0.57235 0.0
C2350 C 0.74314 0.8871 0.54646 0.0
C2351 C 0.73613 0.86278 0.53606 0.0
C2352 C 0.74488 0.84483 0.54354 0.0
C2353 C 0.76059 0.85149 0.56105 0.0
C2354 C 0.73599 0.90796 0.53868 0.0
C2355 C 0.73744 0.81826 0.53333 0.0
C2356 C 0.67283 0.83719 0.50231 0.0
C2357 C 0.68427 0.83763 0.48361 0.0
C2358 C 0.68934 0.84478 0.51947 0.0
C2359 C 0.71861 0.8554 0.51788 0.0
C2360 C 0.73074 0.85782 0.49901 0.0
C2361 C 0.71337 0.84794 0.4823 0.0
C2362 C 0.6751 0.84092 0.53928 0.0
C2363 C 0.76198 0.87037 0.49612 0.0
H2364 H 0.75999 0.90967 0.57317 0.0
H2365 H 0.76839 0.83824 0.56589 0.0
H2366 H 0.73257 0.90652 0.52244 0.0
H2367 H 0.71675 0.9051 0.54611 0.0
H2368 H 0.75301 0.92893 0.54227 0.0
H2369 H 0.73881 0.80362 0.54362 0.0
H2370 H 0.71594 0.8084 0.52705 0.0
H2371 H 0.75235 0.8223 0.52106 0.0
H2372 H 0.6508 0.8306 0.5038 0.0
H2373 H 0.72298 0.84811 0.46831 0.0
H2374 H 0.67729 0.86061 0.54417 0.0
H2375 H 0.68464 0.83398 0.55074 0.0
H2376 H 0.65235 0.82582 0.53839 0.0
H2377 H 0.77433 0.88371 0.50861 0.0
H2378 H 0.76863 0.88264 0.48229 0.0
H2379 H 0.7672 0.8539 0.4944 0.0
C2380 C 0.17219 0.89028 0.5697 0.0
C2381 C 0.14507 0.88604 0.57271 0.0
C2382 C 0.17983 0.88357 0.55166 0.0
C2383 C 0.15974 0.87183 0.53632 0.0
C2384 C 0.13216 0.86692 0.53936 0.0
C2385 C 0.12521 0.87427 0.55745 0.0
C2386 C 0.20952 0.88928 0.54896 0.0
C2387 C 0.11007 0.85413 0.52343 0.0
C2388 C 0.18762 0.87834 0.484 0.0
C2389 C 0.18671 0.85328 0.48157 0.0
C2390 C 0.17848 0.88449 0.50164 0.0
C2391 C 0.16781 0.86494 0.51707 0.0
C2392 C 0.16604 0.83928 0.51443 0.0
C2393 C 0.17573 0.83384 0.49676 0.0
C2394 C 0.18104 0.91221 0.50399 0.0
C2395 C 0.15434 0.81773 0.53039 0.0
H2396 H 0.18754 0.89884 0.58149 0.0
H2397 H 0.10431 0.87121 0.5595 0.0
H2398 H 0.20949 0.87003 0.54571 0.0
H2399 H 0.2193 0.90307 0.53613 0.0
H2400 H 0.22272 0.89884 0.56226 0.0
H2401 H 0.0893 0.8506 0.52842 0.0
H2402 H 0.11651 0.86753 0.5102 0.0
H2403 H 0.10788 0.83434 0.51876 0.0
H2404 H 0.1963 0.89346 0.47232 0.0
H2405 H 0.17472 0.81433 0.49479 0.0
H2406 H 0.19565 0.92339 0.51632 0.0
H2407 H 0.16042 0.90997 0.50787 0.0
H2408 H 0.18886 0.92474 0.49034 0.0
H2409 H 0.16789 0.82514 0.54372 0.0
H2410 H 0.15283 0.79826 0.52554 0.0
H2411 H 0.13318 0.81364 0.53482 0.0
C2412 C 0.5843 0.76222 0.14133 0.0
C2413 C 0.59247 0.78044 0.1254 0.0
C2414 C 0.59969 0.76955 0.15902 0.0
C2415 C 0.62412 0.7955 0.16058 0.0
C2416 C 0.63226 0.81409 0.14457 0.0
C2417 C 0.61613 0.8064 0.12719 0.0
C2418 C 0.59004 0.74939 0.17591 0.0
C2419 C 0.65844 0.84174 0.14558 0.0
C2420 C 0.65339 0.82238 0.21175 0.0
C2421 C 0.67416 0.81498 0.21354 0.0
C2422 C 0.63697 0.81625 0.19458 0.0
C2423 C 0.6417 0.80273 0.1787 0.0
C2424 C 0.6629 0.79559 0.18026 0.0
C2425 C 0.67874 0.80163 0.1977 0.0
C2426 C 0.61439 0.82397 0.1935 0.0
C2427 C 0.66866 0.7813 0.16356 0.0
H2428 H 0.56584 0.7422 0.13991 0.0
H2429 H 0.62248 0.82034 0.11475 0.0
H2430 H 0.60598 0.74329 0.17897 0.0
H2431 H 0.58777 0.75899 0.18958 0.0
H2432 H 0.56973 0.73073 0.17271 0.0
H2433 H 0.66137 0.85411 0.13208 0.0
H2434 H 0.65764 0.85323 0.15863 0.0
H2435 H 0.67704 0.83918 0.14743 0.0
H2436 H 0.65001 0.83309 0.22377 0.0
H2437 H 0.69443 0.79546 0.19904 0.0
H2438 H 0.59369 0.80544 0.19113 0.0
H2439 H 0.61819 0.83769 0.1807 0.0
H2440 H 0.61336 0.83438 0.20715 0.0
H2441 H 0.64987 0.76111 0.16078 0.0
H2442 H 0.68666 0.77817 0.1668 0.0
H2443 H 0.67312 0.79335 0.14973 0.0
C2444 C 0.23487 0.83757 0.12418 0.0
C2445 C 0.2342 0.81281 0.12066 0.0
C2446 C 0.22544 0.84243 0.1422 0.0
C2447 C 0.21537 0.82213 0.15712 0.0
C2448 C 0.21531 0.79736 0.15383 0.0
C2449 C 0.22459 0.79294 0.13559 0.0
C2450 C 0.22557 0.86899 0.14507 0.0
C2451 C 0.20508 0.77538 0.16946 0.0
C2452 C 0.21009 0.84342 0.20963 0.0
C2453 C 0.18145 0.83502 0.21098 0.0
C2454 C 0.2214 0.8391 0.19229 0.0
C2455 C 0.20372 0.82633 0.17581 0.0
C2456 C 0.17481 0.8177 0.17709 0.0
C2457 C 0.16402 0.82198 0.19467 0.0
C2458 C 0.25229 0.84839 0.19153 0.0
C2459 C 0.15527 0.80405 0.15983 0.0
H2460 H 0.24205 0.85286 0.11259 0.0
H2461 H 0.22437 0.7739 0.13299 0.0
H2462 H 0.20379 0.86485 0.14709 0.0
H2463 H 0.23743 0.87941 0.15865 0.0
H2464 H 0.23501 0.88305 0.13231 0.0
H2465 H 0.20773 0.75789 0.16496 0.0
H2466 H 0.2166 0.78389 0.18352 0.0
H2467 H 0.18256 0.76768 0.17248 0.0
H2468 H 0.22382 0.85382 0.22203 0.0
H2469 H 0.1418 0.81495 0.19566 0.0
H2470 H 0.26254 0.86407 0.17983 0.0
H2471 H 0.25537 0.83099 0.18762 0.0
H2472 H 0.263 0.85712 0.20584 0.0
H2473 H 0.16258 0.81772 0.14675 0.0
H2474 H 0.13337 0.79875 0.16317 0.0
H2475 H 0.15541 0.78512 0.15571 0.0
C2476 C 0.22821 0.42953 0.13802 0.0
C2477 C 0.20707 0.42386 0.124 0.0
C2478 C 0.22245 0.41446 0.15571 0.0
C2479 C 0.19475 0.39346 0.15977 0.0
C2480 C 0.17319 0.38807 0.14597 0.0
C2481 C 0.17962 0.40306 0.12824 0.0
C2482 C 0.24614 0.42067 0.16987 0.0
C2483 C 0.1433 0.36606 0.14975 0.0
C2484 C 0.18011 0.33376 0.19348 0.0
C2485 C 0.17163 0.34068 0.21106 0.0
C2486 C 0.18876 0.35126 0.17701 0.0
C2487 C 0.18841 0.37614 0.17793 0.0
C2488 C 0.18053 0.38357 0.19585 0.0
C2489 C 0.17248 0.36585 0.21227 0.0
C2490 C 0.19753 0.34273 0.1584 0.0
C2491 C 0.17946 0.40967 0.19742 0.0
H2492 H 0.24939 0.44581 0.1352 0.0
H2493 H 0.16311 0.39799 0.1175 0.0
H2494 H 0.24133 0.42564 0.18472 0.0
H2495 H 0.24852 0.4024 0.17158 0.0
H2496 H 0.26641 0.43798 0.16477 0.0
H2497 H 0.12864 0.36565 0.13825 0.0
H2498 H 0.14198 0.34582 0.15008 0.0
H2499 H 0.13628 0.36919 0.16441 0.0
H2500 H 0.17962 0.31437 0.19255 0.0
H2501 H 0.16568 0.37113 0.22579 0.0
H2502 H 0.21828 0.35928 0.15337 0.0
H2503 H 0.18228 0.33902 0.14638 0.0
H2504 H 0.19877 0.32387 0.16057 0.0
H2505 H 0.19975 0.42733 0.19282 0.0
H2506 H 0.17459 0.41333 0.21268 0.0
H2507 H 0.16316 0.40874 0.18723 0.0
C2508 C 0.79268 0.56163 0.88786 0.0
C2509 C 0.78237 0.57189 0.90254 0.0
C2510 C 0.80158 0.57464 0.86938 0.0
C2511 C 0.80026 0.5986 0.86544 0.0
C2512 C 0.78931 0.60872 0.88004 0.0
C2513 C 0.78051 0.59528 0.89836 0.0
C2514 C 0.81294 0.56305 0.85423 0.0
C2515 C 0.78764 0.63426 0.87652 0.0
C2516 C 0.85087 0.65047 0.82844 0.0
C2517 C 0.83361 0.64617 0.81193 0.0
C2518 C 0.8404 0.6348 0.84572 0.0
C2519 C 0.81191 0.61408 0.84661 0.0
C2520 C 0.79455 0.60894 0.82977 0.0
C2521 C 0.80559 0.62503 0.81264 0.0
C2522 C 0.85973 0.64091 0.86324 0.0
C2523 C 0.76411 0.58695 0.83006 0.0
H2524 H 0.79382 0.54335 0.89082 0.0
H2525 H 0.77289 0.60357 0.90966 0.0
H2526 H 0.80159 0.55966 0.83999 0.0
H2527 H 0.83535 0.57784 0.85136 0.0
H2528 H 0.81111 0.54345 0.85911 0.0
H2529 H 0.77724 0.63868 0.88891 0.0
H2530 H 0.80906 0.65196 0.87466 0.0
H2531 H 0.77592 0.63228 0.86267 0.0
H2532 H 0.87267 0.66639 0.82793 0.0
H2533 H 0.79204 0.62165 0.80003 0.0
H2534 H 0.86 0.62221 0.86786 0.0
H2535 H 0.85193 0.6476 0.87598 0.0
H2536 H 0.88155 0.6571 0.85996 0.0
H2537 H 0.7621 0.56721 0.83465 0.0
H2538 H 0.75389 0.58427 0.81539 0.0
H2539 H 0.75262 0.5922 0.84108 0.0
C2540 C 0.40731 0.17756 0.89824 0.0
C2541 C 0.43313 0.2017 0.90009 0.0
C2542 C 0.39134 0.17184 0.88088 0.0
C2543 C 0.40159 0.19064 0.865 0.0
C2544 C 0.428 0.21471 0.86659 0.0
C2545 C 0.44341 0.22001 0.88419 0.0
C2546 C 0.36317 0.14607 0.87977 0.0
C2547 C 0.43973 0.23506 0.84985 0.0
C2548 C 0.36963 0.1662 0.81409 0.0
C2549 C 0.35112 0.17647 0.81284 0.0
C2550 C 0.38631 0.17074 0.83095 0.0
C2551 C 0.38418 0.18565 0.84701 0.0
C2552 C 0.36538 0.19587 0.84593 0.0
C2553 C 0.34918 0.19127 0.82882 0.0
C2554 C 0.40621 0.15963 0.83156 0.0
C2555 C 0.36248 0.21179 0.86282 0.0
H2556 H 0.39919 0.16353 0.91062 0.0
H2557 H 0.46351 0.23856 0.88555 0.0
H2558 H 0.34638 0.15139 0.8782 0.0
H2559 H 0.36215 0.134 0.86654 0.0
H2560 H 0.35875 0.13306 0.89311 0.0
H2561 H 0.46115 0.2521 0.85311 0.0
H2562 H 0.44044 0.22477 0.83606 0.0
H2563 H 0.42585 0.2437 0.84698 0.0
H2564 H 0.37094 0.15439 0.80193 0.0
H2565 H 0.33526 0.19963 0.82785 0.0
H2566 H 0.40086 0.14527 0.84415 0.0
H2567 H 0.42795 0.17651 0.834 0.0
H2568 H 0.40567 0.14882 0.8177 0.0
H2569 H 0.35653 0.19938 0.87655 0.0
H2570 H 0.3465 0.21787 0.85978 0.0
H2571 H 0.38287 0.23047 0.86567 0.0
C2572 C 0.81826 0.24286 0.89075 0.0
C2573 C 0.80779 0.22319 0.90581 0.0
C2574 C 0.82647 0.23737 0.87247 0.0
C2575 C 0.82459 0.21174 0.8693 0.0
C2576 C 0.81341 0.19157 0.88431 0.0
C2577 C 0.80495 0.19749 0.90236 0.0
C2578 C 0.83781 0.25923 0.85672 0.0
C2579 C 0.8114 0.16413 0.88159 0.0
C2580 C 0.82944 0.18971 0.81692 0.0
C2581 C 0.85783 0.19702 0.8158 0.0
C2582 C 0.81834 0.19457 0.83416 0.0
C2583 C 0.83592 0.20667 0.85078 0.0
C2584 C 0.86453 0.21407 0.84977 0.0
C2585 C 0.87517 0.20939 0.83227 0.0
C2586 C 0.78779 0.1867 0.8346 0.0
C2587 C 0.88395 0.2269 0.86722 0.0
H2588 H 0.82018 0.26265 0.89336 0.0
H2589 H 0.79705 0.18235 0.91406 0.0
H2590 H 0.86024 0.26611 0.85403 0.0
H2591 H 0.8265 0.25093 0.84256 0.0
H2592 H 0.83591 0.27724 0.86095 0.0
H2593 H 0.8009 0.15022 0.89427 0.0
H2594 H 0.79965 0.15423 0.86786 0.0
H2595 H 0.83273 0.16692 0.87996 0.0
H2596 H 0.81574 0.1798 0.80441 0.0
H2597 H 0.89722 0.21563 0.83148 0.0
H2598 H 0.78575 0.20475 0.83833 0.0
H2599 H 0.77675 0.17122 0.8463 0.0
H2600 H 0.77713 0.17825 0.82023 0.0
H2601 H 0.8851 0.24649 0.87115 0.0
H2602 H 0.9055 0.23088 0.86419 0.0
H2603 H 0.87565 0.21334 0.88032 0.0
C2604 C 0.29348 0.14837 0.4545 0.0
C2605 C 0.27004 0.12261 0.4512 0.0
C2606 C 0.30727 0.15494 0.47285 0.0
C2607 C 0.29706 0.13538 0.48827 0.0
C2608 C 0.27272 0.10972 0.48523 0.0
C2609 C 0.25961 0.10356 0.46665 0.0
C2610 C 0.33337 0.18237 0.47548 0.0
C2611 C 0.26095 0.08852 0.50142 0.0
C2612 C 0.34811 0.13847 0.52729 0.0
C2613 C 0.34274 0.15136 0.54305 0.0
C2614 C 0.33358 0.13344 0.50933 0.0
C2615 C 0.31282 0.14106 0.50716 0.0
C2616 C 0.30705 0.15385 0.52303 0.0
C2617 C 0.32223 0.15903 0.54074 0.0
C2618 C 0.34041 0.11989 0.49268 0.0
C2619 C 0.28484 0.162 0.52129 0.0
H2620 H 0.30163 0.163 0.44247 0.0
H2621 H 0.24127 0.08375 0.46412 0.0
H2622 H 0.3314 0.19286 0.48873 0.0
H2623 H 0.35168 0.17949 0.47792 0.0
H2624 H 0.33766 0.19582 0.46241 0.0
H2625 H 0.24071 0.07043 0.49713 0.0
H2626 H 0.27609 0.0816 0.50504 0.0
H2627 H 0.25771 0.09746 0.5151 0.0
H2628 H 0.36351 0.13201 0.52904 0.0
H2629 H 0.31821 0.16935 0.55273 0.0
H2630 H 0.34652 0.13293 0.47927 0.0
H2631 H 0.32161 0.10018 0.48881 0.0
H2632 H 0.35771 0.11595 0.49657 0.0
H2633 H 0.29011 0.17684 0.50904 0.0
H2634 H 0.28254 0.17129 0.53514 0.0
H2635 H 0.26434 0.14387 0.51764 0.0
C2636 C 0.87158 0.13366 0.45924 0.0
C2637 C 0.89988 0.14256 0.45525 0.0
C2638 C 0.8632 0.13904 0.47748 0.0
C2639 C 0.88362 0.15403 0.49207 0.0
C2640 C 0.91222 0.16306 0.48823 0.0
C2641 C 0.92001 0.15713 0.46988 0.0
C2642 C 0.83247 0.12897 0.48101 0.0
C2643 C 0.93459 0.17919 0.50342 0.0
C2644 C 0.86148 0.18921 0.52993 0.0
C2645 C 0.85312 0.17093 0.54587 0.0
C2646 C 0.87246 0.18448 0.51261 0.0
C2647 C 0.87488 0.16074 0.51112 0.0
C2648 C 0.86713 0.14256 0.52737 0.0
C2649 C 0.85644 0.14793 0.54459 0.0
C2650 C 0.88078 0.20453 0.49571 0.0
C2651 C 0.86917 0.11692 0.52629 0.0
H2652 H 0.85592 0.12285 0.44793 0.0
H2653 H 0.94186 0.1638 0.46704 0.0
H2654 H 0.82538 0.11629 0.4946 0.0
H2655 H 0.82914 0.14657 0.48336 0.0
H2656 H 0.81914 0.11668 0.46843 0.0
H2657 H 0.95585 0.18447 0.49823 0.0
H2658 H 0.93456 0.19835 0.50696 0.0
H2659 H 0.93009 0.16737 0.51736 0.0
H2660 H 0.85933 0.20722 0.53099 0.0
H2661 H 0.84982 0.13365 0.55683 0.0
H2662 H 0.86689 0.19454 0.48282 0.0
H2663 H 0.90253 0.21111 0.49096 0.0
H2664 H 0.87944 0.2229 0.49973 0.0
H2665 H 0.85446 0.10304 0.51487 0.0
H2666 H 0.86411 0.10587 0.54064 0.0
H2667 H 0.89058 0.1219 0.52178 0.0
C2668 C 0.89376 0.7626 0.47318 0.0
C2669 C 0.8725 0.75606 0.45907 0.0
C2670 C 0.88828 0.7482 0.49117 0.0
C2671 C 0.86077 0.72697 0.49544 0.0
C2672 C 0.83911 0.72064 0.4815 0.0
C2673 C 0.84526 0.73499 0.46349 0.0
C2674 C 0.91207 0.75541 0.50547 0.0
C2675 C 0.80941 0.69833 0.48545 0.0
C2676 C 0.84687 0.6687 0.53042 0.0
C2677 C 0.83779 0.67584 0.54763 0.0
C2678 C 0.85558 0.68575 0.5137 0.0
C2679 C 0.8547 0.71038 0.51397 0.0
C2680 C 0.84636 0.71812 0.53155 0.0
C2681 C 0.83823 0.70085 0.54824 0.0
C2682 C 0.86484 0.6769 0.49549 0.0
C2683 C 0.84475 0.74398 0.53242 0.0
H2684 H 0.91479 0.77908 0.47021 0.0
H2685 H 0.82868 0.72923 0.45269 0.0
H2686 H 0.90708 0.76081 0.5201 0.0
H2687 H 0.91488 0.73746 0.50773 0.0
H2688 H 0.93218 0.77275 0.50017 0.0
H2689 H 0.79462 0.69709 0.47375 0.0
H2690 H 0.80859 0.67834 0.48635 0.0
H2691 H 0.80216 0.70183 0.4999 0.0
H2692 H 0.84668 0.64943 0.52996 0.0
H2693 H 0.83097 0.70629 0.56146 0.0
H2694 H 0.88541 0.6936 0.49031 0.0
H2695 H 0.84954 0.67236 0.48334 0.0
H2696 H 0.86664 0.65844 0.49822 0.0
H2697 H 0.86485 0.76168 0.52758 0.0
H2698 H 0.83981 0.7481 0.54753 0.0
H2699 H 0.82826 0.74233 0.52211 0.0
loop_
_geom_bond_atom_site_label_1
_geom_bond_atom_site_label_2
_geom_bond_distance
_geom_bond_site_symmetry_2
_ccdc_geom_bond_type
H0 C5 0.930 . S
H1 C8 0.930 . S
H2 C10 0.930 . S
H3 C4 1.016 . S
C4 H3 1.016 . S
C4 N11 1.286 . S
C5 H0 0.930 . S
C5 C6 1.397 . S
C5 C7 1.361 . S
C6 C5 1.397 . S
C6 C10 1.390 . S
C7 C5 1.361 . S
C7 C8 1.393 . S
C7 N11 1.413 . S
C8 H1 0.930 . S
C8 C7 1.393 . S
C8 C9 1.399 . S
C9 C8 1.399 . S
C9 C10 1.381 . S
C10 H2 0.930 . S
C10 C6 1.390 . S
C10 C9 1.381 . S
N11 C4 1.286 . S
N11 C7 1.413 . S
H12 C17 0.930 . S
H13 C20 0.930 . S
H14 C22 0.930 . S
H15 C16 1.016 . S
C16 H15 1.016 . S
C16 N23 1.286 . S
C17 H12 0.930 . S
C17 C18 1.397 . S
C17 C19 1.361 . S
C18 C17 1.397 . S
C18 C22 1.390 . S
C19 C17 1.361 . S
C19 C20 1.393 . S
C19 N23 1.413 . S
C20 H13 0.930 . S
C20 C19 1.393 . S
C20 C21 1.399 . S
C21 C20 1.399 . S
C21 C22 1.381 . S
C22 H14 0.930 . S
C22 C18 1.390 . S
C22 C21 1.381 . S
N23 C16 1.286 . S
N23 C19 1.413 . S
H24 C29 0.930 . S
H25 C32 0.930 . S
H26 C34 0.930 . S
H27 C28 1.016 . S
C28 H27 1.016 . S
C28 N35 1.286 . S
C29 H24 0.930 . S
C29 C30 1.397 . S
C29 C31 1.361 . S
C30 C29 1.397 . S
C30 C34 1.390 . S
C31 C29 1.361 . S
C31 C32 1.393 . S
C31 N35 1.413 . S
C32 H25 0.930 . S
C32 C31 1.393 . S
C32 C33 1.399 . S
C33 C32 1.399 . S
C33 C34 1.381 . S
C34 H26 0.930 . S
C34 C30 1.390 . S
C34 C33 1.381 . S
N35 C28 1.286 . S
N35 C31 1.413 . S
H36 C41 0.930 . S
H37 C44 0.930 . S
H38 C46 0.930 . S
H39 C40 1.016 . S
C40 H39 1.016 . S
C40 N47 1.286 . S
C41 H36 0.930 . S
C41 C42 1.397 . S
C41 C43 1.361 . S
C42 C41 1.397 . S
C42 C46 1.390 . S
C43 C41 1.361 . S
C43 C44 1.393 . S
C43 N47 1.413 . S
C44 H37 0.930 . S
C44 C43 1.393 . S
C44 C45 1.399 . S
C45 C44 1.399 . S
C45 C46 1.381 . S
C46 H38 0.930 . S
C46 C42 1.390 . S
C46 C45 1.381 . S
N47 C40 1.286 . S
N47 C43 1.413 . S
H48 C53 0.930 . S
H49 C56 0.930 . S
H50 C58 0.930 . S
H51 C52 1.016 . S
C52 H51 1.016 . S
C52 N59 1.286 . S
C53 H48 0.930 . S
C53 C54 1.397 . S
C53 C55 1.361 . S
C54 C53 1.397 . S
C54 C58 1.390 . S
C55 C53 1.361 . S
C55 C56 1.393 . S
C55 N59 1.413 . S
C56 H49 0.930 . S
C56 C55 1.393 . S
C56 C57 1.399 . S
C57 C56 1.399 . S
C57 C58 1.381 . S
C58 H50 0.930 . S
C58 C54 1.390 . S
C58 C57 1.381 . S
N59 C52 1.286 . S
N59 C55 1.413 . S
H60 C65 0.930 . S
H61 C68 0.930 . S
H62 C70 0.930 . S
H63 C64 1.016 . S
C64 H63 1.016 . S
C64 N71 1.286 . S
C65 H60 0.930 . S
C65 C66 1.397 . S
C65 C67 1.361 . S
C66 C65 1.397 . S
C66 C70 1.390 . S
C67 C65 1.361 . S
C67 C68 1.393 . S
C67 N71 1.413 . S
C68 H61 0.930 . S
C68 C67 1.393 . S
C68 C69 1.399 . S
C69 C68 1.399 . S
C69 C70 1.381 . S
C70 H62 0.930 . S
C70 C66 1.390 . S
C70 C69 1.381 . S
N71 C64 1.286 . S
N71 C67 1.413 . S
H72 C77 0.930 . S
H73 C80 0.930 . S
H74 C82 0.930 . S
H75 C76 1.016 . S
C76 H75 1.016 . S
C76 N83 1.286 . S
C77 H72 0.930 . S
C77 C78 1.397 . S
C77 C79 1.361 . S
C78 C77 1.397 . S
C78 C82 1.390 . S
C79 C77 1.361 . S
C79 C80 1.393 . S
C79 N83 1.413 . S
C80 H73 0.930 . S
C80 C79 1.393 . S
C80 C81 1.399 . S
C81 C80 1.399 . S
C81 C82 1.381 . S
C82 H74 0.930 . S
C82 C78 1.390 . S
C82 C81 1.381 . S
N83 C76 1.286 . S
N83 C79 1.413 . S
H84 C89 0.930 . S
H85 C92 0.930 . S
H86 C94 0.930 . S
H87 C88 1.016 . S
C88 H87 1.016 . S
C88 N95 1.286 . S
C89 H84 0.930 . S
C89 C90 1.397 . S
C89 C91 1.361 . S
C90 C89 1.397 . S
C90 C94 1.390 . S
C91 C89 1.361 . S
C91 C92 1.393 . S
C91 N95 1.413 . S
C92 H85 0.930 . S
C92 C91 1.393 . S
C92 C93 1.399 . S
C93 C92 1.399 . S
C93 C94 1.381 . S
C94 H86 0.930 . S
C94 C90 1.390 . S
C94 C93 1.381 . S
N95 C88 1.286 . S
N95 C91 1.413 . S
H96 C101 0.930 . S
H97 C104 0.930 . S
H98 C106 0.930 . S
H99 C100 1.016 . S
C100 H99 1.016 . S
C100 N107 1.286 . S
C101 H96 0.930 . S
C101 C102 1.397 . S
C101 C103 1.361 . S
C102 C101 1.397 . S
C102 C106 1.390 . S
C103 C101 1.361 . S
C103 C104 1.393 . S
C103 N107 1.413 . S
C104 H97 0.930 . S
C104 C103 1.393 . S
C104 C105 1.399 . S
C105 C104 1.399 . S
C105 C106 1.381 . S
C106 H98 0.930 . S
C106 C102 1.390 . S
C106 C105 1.381 . S
N107 C100 1.286 . S
N107 C103 1.413 . S
H108 C113 0.930 . S
H109 C116 0.930 . S
H110 C118 0.930 . S
H111 C112 1.016 . S
C112 H111 1.016 . S
C112 N119 1.286 . S
C113 H108 0.930 . S
C113 C114 1.397 . S
C113 C115 1.361 . S
C114 C113 1.397 . S
C114 C118 1.390 . S
C115 C113 1.361 . S
C115 C116 1.393 . S
C115 N119 1.413 . S
C116 H109 0.930 . S
C116 C115 1.393 . S
C116 C117 1.399 . S
C117 C116 1.399 . S
C117 C118 1.381 . S
C118 H110 0.930 . S
C118 C114 1.390 . S
C118 C117 1.381 . S
N119 C112 1.286 . S
N119 C115 1.413 . S
H120 C125 0.930 . S
H121 C128 0.930 . S
H122 C130 0.930 . S
H123 C124 1.016 . S
C124 H123 1.016 . S
C124 N131 1.286 . S
C125 H120 0.930 . S
C125 C126 1.397 . S
C125 C127 1.361 . S
C126 C125 1.397 . S
C126 C130 1.390 . S
C127 C125 1.361 . S
C127 C128 1.393 . S
C127 N131 1.413 . S
C128 H121 0.930 . S
C128 C127 1.393 . S
C128 C129 1.399 . S
C129 C128 1.399 . S
C129 C130 1.381 . S
C130 H122 0.930 . S
C130 C126 1.390 . S
C130 C129 1.381 . S
N131 C124 1.286 . S
N131 C127 1.413 . S
H132 C137 0.930 . S
H133 C140 0.930 . S
H134 C142 0.930 . S
H135 C136 1.016 . S
C136 H135 1.016 . S
C136 N143 1.286 . S
C137 H132 0.930 . S
C137 C138 1.397 . S
C137 C139 1.361 . S
C138 C137 1.397 . S
C138 C142 1.390 . S
C139 C137 1.361 . S
C139 C140 1.393 . S
C139 N143 1.413 . S
C140 H133 0.930 . S
C140 C139 1.393 . S
C140 C141 1.399 . S
C141 C140 1.399 . S
C141 C142 1.381 . S
C142 H134 0.930 . S
C142 C138 1.390 . S
C142 C141 1.381 . S
N143 C136 1.286 . S
N143 C139 1.413 . S
H144 C149 0.930 . S
H145 C152 0.930 . S
H146 C154 0.930 . S
H147 C148 1.016 . S
C148 H147 1.016 . S
C148 N155 1.286 . S
C149 H144 0.930 . S
C149 C150 1.397 . S
C149 C151 1.361 . S
C150 C149 1.397 . S
C150 C154 1.390 . S
C151 C149 1.361 . S
C151 C152 1.393 . S
C151 N155 1.413 . S
C152 H145 0.930 . S
C152 C151 1.393 . S
C152 C153 1.399 . S
C153 C152 1.399 . S
C153 C154 1.381 . S
C154 H146 0.930 . S
C154 C150 1.390 . S
C154 C153 1.381 . S
N155 C148 1.286 . S
N155 C151 1.413 . S
H156 C161 0.930 . S
H157 C164 0.930 . S
H158 C166 0.930 . S
H159 C160 1.016 . S
C160 H159 1.016 . S
C160 N167 1.286 . S
C161 H156 0.930 . S
C161 C162 1.397 . S
C161 C163 1.361 . S
C162 C161 1.397 . S
C162 C166 1.390 . S
C163 C161 1.361 . S
C163 C164 1.393 . S
C163 N167 1.413 . S
C164 H157 0.930 . S
C164 C163 1.393 . S
C164 C165 1.399 . S
C165 C164 1.399 . S
C165 C166 1.381 . S
C166 H158 0.930 . S
C166 C162 1.390 . S
C166 C165 1.381 . S
N167 C160 1.286 . S
N167 C163 1.413 . S
H168 C173 0.930 . S
H169 C176 0.930 . S
H170 C178 0.930 . S
H171 C172 1.016 . S
C172 H171 1.016 . S
C172 N179 1.286 . S
C173 H168 0.930 . S
C173 C174 1.397 . S
C173 C175 1.361 . S
C174 C173 1.397 . S
C174 C178 1.390 . S
C175 C173 1.361 . S
C175 C176 1.393 . S
C175 N179 1.413 . S
C176 H169 0.930 . S
C176 C175 1.393 . S
C176 C177 1.399 . S
C177 C176 1.399 . S
C177 C178 1.381 . S
C178 H170 0.930 . S
C178 C174 1.390 . S
C178 C177 1.381 . S
N179 C172 1.286 . S
N179 C175 1.413 . S
H180 C185 0.930 . S
H181 C188 0.930 . S
H182 C190 0.930 . S
H183 C184 1.016 . S
C184 H183 1.016 . S
C184 N191 1.286 . S
C185 H180 0.930 . S
C185 C186 1.397 . S
C185 C187 1.361 . S
C186 C185 1.397 . S
C186 C190 1.390 . S
C187 C185 1.361 . S
C187 C188 1.393 . S
C187 N191 1.413 . S
C188 H181 0.930 . S
C188 C187 1.393 . S
C188 C189 1.399 . S
C189 C188 1.399 . S
C189 C190 1.381 . S
C190 H182 0.930 . S
C190 C186 1.390 . S
C190 C189 1.381 . S
N191 C184 1.286 . S
N191 C187 1.413 . S
H192 C197 0.930 . S
H193 C200 0.930 . S
H194 C202 0.930 . S
H195 C196 1.016 . S
C196 H195 1.016 . S
C196 N203 1.286 . S
C197 H192 0.930 . S
C197 C198 1.397 . S
C197 C199 1.361 . S
C198 C197 1.397 . S
C198 C202 1.390 . S
C199 C197 1.361 . S
C199 C200 1.393 . S
C199 N203 1.413 . S
C200 H193 0.930 . S
C200 C199 1.393 . S
C200 C201 1.399 . S
C201 C200 1.399 . S
C201 C202 1.381 . S
C202 H194 0.930 . S
C202 C198 1.390 . S
C202 C201 1.381 . S
N203 C196 1.286 . S
N203 C199 1.413 . S
H204 C209 0.930 . S
H205 C212 0.930 . S
H206 C214 0.930 . S
H207 C208 1.016 . S
C208 H207 1.016 . S
C208 N215 1.286 . S
C209 H204 0.930 . S
C209 C210 1.397 . S
C209 C211 1.361 . S
C210 C209 1.397 . S
C210 C214 1.390 . S
C211 C209 1.361 . S
C211 C212 1.393 . S
C211 N215 1.413 . S
C212 H205 0.930 . S
C212 C211 1.393 . S
C212 C213 1.399 . S
C213 C212 1.399 . S
C213 C214 1.381 . S
C214 H206 0.930 . S
C214 C210 1.390 . S
C214 C213 1.381 . S
N215 C208 1.286 . S
N215 C211 1.413 . S
Gd216 N247 2.661 . S
Gd216 N253 2.601 . S
Gd216 O260 2.545 . S
Gd216 O261 2.606 1_545 S
Gd216 O263 2.429 . S
Gd216 O264 2.545 1_545 S
Gd216 O265 2.412 1_545 S
Gd216 O267 2.362 . S
Gd216 O268 2.324 1_545 S
Gd216 C275 2.828 . S
Gd217 N226 2.661 . S
Gd217 N230 2.601 . S
Gd217 O261 2.362 1_556 S
Gd217 O262 2.324 1_565 S
Gd217 O266 2.545 . S
Gd217 O267 2.606 1_566 S
Gd217 O269 2.431 . S
Gd217 O270 2.545 1_565 S
Gd217 O271 2.412 1_565 S
Gd217 C284 2.828 1_565 S
C218 C221 1.417 . S
C218 C223 1.431 . S
C218 C224 1.412 . S
C219 C222 1.437 . S
C219 C223 1.317 . S
C219 H238 0.929 . S
C220 C221 1.426 . S
C220 C222 1.413 . S
C220 N230 1.359 . S
C221 C218 1.417 . S
C221 C220 1.426 . S
C221 N226 1.350 . S
C222 C219 1.437 . S
C222 C220 1.413 . S
C222 C232 1.391 . S
C223 C218 1.431 . S
C223 C219 1.317 . S
C223 H234 0.930 . S
C224 C218 1.412 . S
C224 C225 1.355 . S
C224 H236 0.930 . S
C225 C224 1.355 . S
C225 C227 1.402 . S
C225 H237 0.930 . S
N226 Gd217 2.661 . S
N226 C221 1.350 . S
N226 C227 1.307 . S
C227 C225 1.402 . S
C227 N226 1.307 . S
C227 H228 0.930 . S
H228 C227 0.930 . S
C229 N230 1.334 . S
C229 C231 1.394 . S
C229 H233 0.930 . S
N230 Gd217 2.601 . S
N230 C220 1.359 . S
N230 C229 1.334 . S
C231 C229 1.394 . S
C231 C232 1.359 . S
C231 H243 0.930 . S
C232 C222 1.391 . S
C232 C231 1.359 . S
C232 H244 0.929 . S
H233 C229 0.930 . S
H234 C223 0.930 . S
H235 C252 0.930 . S
H236 C224 0.930 . S
H237 C225 0.930 . S
H238 C219 0.929 . S
H239 C257 0.930 . S
H240 C248 0.930 . S
H241 C249 0.930 . S
H242 C273 0.929 . S
H243 C231 0.930 . S
H244 C232 0.929 . S
H245 C274 0.930 . S
H246 C255 0.930 . S
N247 Gd216 2.661 . S
N247 C251 1.350 . S
N247 C252 1.307 . S
C248 H240 0.930 . S
C248 C249 1.355 . S
C248 C250 1.412 . S
C249 H241 0.930 . S
C249 C248 1.355 . S
C249 C252 1.402 . S
C250 C248 1.412 . S
C250 C251 1.417 . S
C250 C274 1.431 . S
C251 N247 1.350 . S
C251 C250 1.417 . S
C251 C254 1.426 . S
C252 H235 0.930 . S
C252 N247 1.307 . S
C252 C249 1.402 . S
N253 Gd216 2.601 . S
N253 C254 1.359 . S
N253 C257 1.334 . S
C254 C251 1.426 . S
C254 N253 1.359 . S
C254 C258 1.413 . S
C255 H246 0.930 . S
C255 C256 1.359 . S
C255 C257 1.394 . S
C256 C255 1.359 . S
C256 C258 1.391 . S
C256 H259 0.929 . S
C257 H239 0.930 . S
C257 N253 1.334 . S
C257 C255 1.394 . S
C258 C254 1.413 . S
C258 C256 1.391 . S
C258 C273 1.437 . S
H259 C256 0.929 . S
O260 Gd216 2.545 . S
O260 C275 1.258 . S
O261 Gd216 2.606 1_565 S
O261 Gd217 2.362 1_554 S
O261 C272 1.284 . S
O262 Gd217 2.324 1_545 S
O262 C282 1.254 1_556 S
O263 Gd216 2.429 . S
O263 C282 1.268 . S
O264 Gd216 2.545 1_565 S
O264 C272 1.250 . S
O265 Gd216 2.412 1_565 S
O265 C275 1.252 1_565 S
O266 Gd217 2.545 . S
O266 C284 1.248 1_565 S
O267 Gd216 2.362 . S
O267 Gd217 2.606 1_544 S
O267 C283 1.284 1_554 S
O268 Gd216 2.324 1_565 S
O268 C291 1.254 . S
O269 Gd217 2.431 . S
O269 C291 1.264 1_556 S
O270 Gd217 2.545 1_545 S
O270 C283 1.250 . S
O271 Gd217 2.412 1_545 S
O271 C284 1.260 . S
C272 O261 1.284 . S
C272 O264 1.250 . S
C273 H242 0.929 . S
C273 C258 1.437 . S
C273 C274 1.317 . S
C274 H245 0.930 . S
C274 C250 1.431 . S
C274 C273 1.317 . S
C275 Gd216 2.828 . S
C275 O260 1.258 . S
C275 O265 1.252 1_545 S
C275 C276 1.497 . S
C276 C275 1.497 . S
C276 C277 1.395 . S
C276 C278 1.380 1_545 S
C277 C276 1.395 . S
C277 C280 1.398 . S
C277 H292 0.930 . S
C278 C276 1.380 1_565 S
C278 C279 1.391 . S
C278 H293 0.930 . S
C279 C278 1.391 . S
C279 C281 1.387 . S
C280 C277 1.398 . S
C280 C281 1.380 1_545 S
C280 H294 0.930 . S
C281 C279 1.387 . S
C281 C280 1.380 1_565 S
C281 H295 0.930 . S
C282 O262 1.254 1_554 S
C282 O263 1.268 . S
C283 O267 1.284 1_556 S
C283 O270 1.250 . S
C284 Gd217 2.828 1_545 S
C284 O266 1.248 1_545 S
C284 O271 1.260 . S
C284 C285 1.499 . S
C285 C284 1.499 . S
C285 C286 1.395 1_545 S
C285 C287 1.380 . S
C286 C285 1.395 1_565 S
C286 C289 1.398 . S
C286 H296 0.930 . S
C287 C285 1.380 . S
C287 C288 1.391 . S
C287 H297 0.930 . S
C288 C287 1.391 . S
C288 C290 1.387 . S
C289 C286 1.398 . S
C289 C290 1.380 1_565 S
C289 H298 0.930 . S
C290 C288 1.387 . S
C290 C289 1.380 1_545 S
C290 H299 0.930 . S
C291 O268 1.254 . S
C291 O269 1.264 1_554 S
H292 C277 0.930 . S
H293 C278 0.930 . S
H294 C280 0.930 . S
H295 C281 0.930 . S
H296 C286 0.930 . S
H297 C287 0.930 . S
H298 C289 0.930 . S
H299 C290 0.930 . S
Gd300 N331 2.661 . S
Gd300 N337 2.601 . S
Gd300 O344 2.545 . S
Gd300 O345 2.606 1_655 S
Gd300 O347 2.429 . S
Gd300 O348 2.545 1_655 S
Gd300 O349 2.412 1_655 S
Gd300 O351 2.362 . S
Gd300 O352 2.324 1_655 S
Gd300 C359 2.828 . S
Gd301 N310 2.661 . S
Gd301 N314 2.601 . S
Gd301 O345 2.362 1_556 S
Gd301 O346 2.324 1_455 S
Gd301 O350 2.545 . S
Gd301 O351 2.606 1_456 S
Gd301 O353 2.407 1_556 S
Gd301 O354 2.545 1_455 S
Gd301 O355 2.416 . S
Gd301 C368 2.828 . S
C302 C305 1.417 . S
C302 C307 1.431 . S
C302 C308 1.412 . S
C303 C306 1.437 . S
C303 C307 1.317 . S
C303 H322 0.929 . S
C304 C305 1.426 . S
C304 C306 1.413 . S
C304 N314 1.359 . S
C305 C302 1.417 . S
C305 C304 1.426 . S
C305 N310 1.350 . S
C306 C303 1.437 . S
C306 C304 1.413 . S
C306 C316 1.391 . S
C307 C302 1.431 . S
C307 C303 1.317 . S
C307 H318 0.930 . S
C308 C302 1.412 . S
C308 C309 1.355 . S
C308 H320 0.930 . S
C309 C308 1.355 . S
C309 C311 1.402 . S
C309 H321 0.930 . S
N310 Gd301 2.661 . S
N310 C305 1.350 . S
N310 C311 1.307 . S
C311 C309 1.402 . S
C311 N310 1.307 . S
C311 H312 0.930 . S
H312 C311 0.930 . S
C313 N314 1.334 . S
C313 C315 1.394 . S
C313 H317 0.930 . S
N314 Gd301 2.601 . S
N314 C304 1.359 . S
N314 C313 1.334 . S
C315 C313 1.394 . S
C315 C316 1.359 . S
C315 H327 0.930 . S
C316 C306 1.391 . S
C316 C315 1.359 . S
C316 H328 0.929 . S
H317 C313 0.930 . S
H318 C307 0.930 . S
H319 C336 0.930 . S
H320 C308 0.930 . S
H321 C309 0.930 . S
H322 C303 0.929 . S
H323 C341 0.930 . S
H324 C332 0.930 . S
H325 C333 0.930 . S
H326 C357 0.929 . S
H327 C315 0.930 . S
H328 C316 0.929 . S
H329 C358 0.930 . S
H330 C339 0.930 . S
N331 Gd300 2.661 . S
N331 C335 1.350 . S
N331 C336 1.307 . S
C332 H324 0.930 . S
C332 C333 1.355 . S
C332 C334 1.412 . S
C333 H325 0.930 . S
C333 C332 1.355 . S
C333 C336 1.402 . S
C334 C332 1.412 . S
C334 C335 1.417 . S
C334 C358 1.431 . S
C335 N331 1.350 . S
C335 C334 1.417 . S
C335 C338 1.426 . S
C336 H319 0.930 . S
C336 N331 1.307 . S
C336 C333 1.402 . S
N337 Gd300 2.601 . S
N337 C338 1.359 . S
N337 C341 1.334 . S
C338 C335 1.426 . S
C338 N337 1.359 . S
C338 C342 1.413 . S
C339 H330 0.930 . S
C339 C340 1.359 . S
C339 C341 1.394 . S
C340 C339 1.359 . S
C340 C342 1.391 . S
C340 H343 0.929 . S
C341 H323 0.930 . S
C341 N337 1.334 . S
C341 C339 1.394 . S
C342 C338 1.413 . S
C342 C340 1.391 . S
C342 C357 1.437 . S
H343 C340 0.929 . S
O344 Gd300 2.545 . S
O344 C359 1.258 . S
O345 Gd300 2.606 1_455 S
O345 Gd301 2.362 1_554 S
O345 C356 1.284 . S
O346 Gd301 2.324 1_655 S
O346 C366 1.254 1_556 S
O347 Gd300 2.429 . S
O347 C366 1.268 . S
O348 Gd300 2.545 1_455 S
O348 C356 1.250 . S
O349 Gd300 2.412 1_455 S
O349 C359 1.252 1_455 S
O350 Gd301 2.545 . S
O350 C368 1.258 . S
O351 Gd300 2.362 . S
O351 Gd301 2.606 1_654 S
O351 C367 1.284 1_554 S
O352 Gd300 2.324 1_455 S
O352 C375 1.254 . S
O353 Gd301 2.407 1_554 S
O353 C375 1.313 . S
O354 Gd301 2.545 1_655 S
O354 C367 1.250 . S
O355 Gd301 2.416 . S
O355 C368 1.251 . S
C356 O345 1.284 . S
C356 O348 1.250 . S
C357 H326 0.929 . S
C357 C342 1.437 . S
C357 C358 1.317 . S
C358 H329 0.930 . S
C358 C334 1.431 . S
C358 C357 1.317 . S
C359 Gd300 2.828 . S
C359 O344 1.258 . S
C359 O349 1.252 1_655 S
C359 C360 1.497 1_655 S
C360 C359 1.497 1_455 S
C360 C361 1.395 1_455 S
C360 C362 1.380 . S
C361 C360 1.395 1_655 S
C361 C364 1.398 . S
C361 H376 0.930 . S
C362 C360 1.380 . S
C362 C363 1.391 . S
C362 H377 0.930 . S
C363 C362 1.391 . S
C363 C365 1.387 . S
C364 C361 1.398 . S
C364 C365 1.380 1_655 S
C364 H378 0.930 . S
C365 C363 1.387 . S
C365 C364 1.380 1_455 S
C365 H379 0.930 . S
C366 O346 1.254 1_554 S
C366 O347 1.268 . S
C367 O351 1.284 1_556 S
C367 O354 1.250 . S
C368 Gd301 2.828 . S
C368 O350 1.258 . S
C368 O355 1.251 . S
C368 C369 1.497 . S
C369 C368 1.497 . S
C369 C370 1.395 . S
C369 C371 1.380 1_455 S
C370 C369 1.395 . S
C370 C373 1.398 . S
C370 H380 0.930 . S
C371 C369 1.380 1_655 S
C371 C372 1.391 . S
C371 H381 0.930 . S
C372 C371 1.391 . S
C372 C374 1.387 . S
C373 C370 1.398 . S
C373 C374 1.380 1_455 S
C373 H382 0.930 . S
C374 C372 1.387 . S
C374 C373 1.380 1_655 S
C374 H383 0.930 . S
C375 O352 1.254 . S
C375 O353 1.313 . S
H376 C361 0.930 . S
H377 C362 0.930 . S
H378 C364 0.930 . S
H379 C365 0.930 . S
H380 C370 0.930 . S
H381 C371 0.930 . S
H382 C373 0.930 . S
H383 C374 0.930 . S
Gd384 N415 2.661 . S
Gd384 N421 2.601 . S
Gd384 O428 2.545 . S
Gd384 O429 2.606 1_556 S
Gd384 O431 2.429 1_556 S
Gd384 O432 2.545 . S
Gd384 O433 2.412 . S
Gd384 O435 2.362 1_556 S
Gd384 O436 2.324 . S
Gd384 C443 2.828 . S
Gd385 N394 2.661 . S
Gd385 N398 2.601 . S
Gd385 O429 2.362 . S
Gd385 O430 2.324 . S
Gd385 O434 2.545 . S
Gd385 O435 2.606 . S
Gd385 O437 2.429 . S
Gd385 O438 2.545 . S
Gd385 O439 2.412 . S
Gd385 C452 2.828 . S
C386 C389 1.417 . S
C386 C391 1.431 . S
C386 C392 1.412 . S
C387 C390 1.437 . S
C387 C391 1.317 . S
C387 H406 0.929 . S
C388 C389 1.426 . S
C388 C390 1.413 . S
C388 N398 1.359 . S
C389 C386 1.417 . S
C389 C388 1.426 . S
C389 N394 1.350 . S
C390 C387 1.437 . S
C390 C388 1.413 . S
C390 C400 1.391 . S
C391 C386 1.431 . S
C391 C387 1.317 . S
C391 H402 0.930 . S
C392 C386 1.412 . S
C392 C393 1.355 . S
C392 H404 0.930 . S
C393 C392 1.355 . S
C393 C395 1.402 . S
C393 H405 0.930 . S
N394 Gd385 2.661 . S
N394 C389 1.350 . S
N394 C395 1.307 . S
C395 C393 1.402 . S
C395 N394 1.307 . S
C395 H396 0.930 . S
H396 C395 0.930 . S
C397 N398 1.334 . S
C397 C399 1.394 . S
C397 H401 0.930 . S
N398 Gd385 2.601 . S
N398 C388 1.359 . S
N398 C397 1.334 . S
C399 C397 1.394 . S
C399 C400 1.359 . S
C399 H411 0.930 . S
C400 C390 1.391 . S
C400 C399 1.359 . S
C400 H412 0.929 . S
H401 C397 0.930 . S
H402 C391 0.930 . S
H403 C420 0.930 . S
H404 C392 0.930 . S
H405 C393 0.930 . S
H406 C387 0.929 . S
H407 C425 0.930 . S
H408 C416 0.930 . S
H409 C417 0.930 . S
H410 C441 0.929 . S
H411 C399 0.930 . S
H412 C400 0.929 . S
H413 C442 0.930 . S
H414 C423 0.930 . S
N415 Gd384 2.661 . S
N415 C419 1.350 . S
N415 C420 1.307 . S
C416 H408 0.930 . S
C416 C417 1.355 . S
C416 C418 1.412 . S
C417 H409 0.930 . S
C417 C416 1.355 . S
C417 C420 1.402 . S
C418 C416 1.412 . S
C418 C419 1.417 . S
C418 C442 1.431 . S
C419 N415 1.350 . S
C419 C418 1.417 . S
C419 C422 1.426 . S
C420 H403 0.930 . S
C420 N415 1.307 . S
C420 C417 1.402 . S
N421 Gd384 2.601 . S
N421 C422 1.359 . S
N421 C425 1.334 . S
C422 C419 1.426 . S
C422 N421 1.359 . S
C422 C426 1.413 . S
C423 H414 0.930 . S
C423 C424 1.359 . S
C423 C425 1.394 . S
C424 C423 1.359 . S
C424 C426 1.391 . S
C424 H427 0.929 . S
C425 H407 0.930 . S
C425 N421 1.334 . S
C425 C423 1.394 . S
C426 C422 1.413 . S
C426 C424 1.391 . S
C426 C441 1.437 . S
H427 C424 0.929 . S
O428 Gd384 2.545 . S
O428 C443 1.258 . S
O429 Gd384 2.606 1_554 S
O429 Gd385 2.362 . S
O429 C440 1.284 1_554 S
O430 Gd385 2.324 . S
O430 C450 1.254 . S
O431 Gd384 2.429 1_554 S
O431 C450 1.268 . S
O432 Gd384 2.545 . S
O432 C440 1.250 . S
O433 Gd384 2.412 . S
O433 C443 1.252 . S
O434 Gd385 2.545 . S
O434 C452 1.258 . S
O435 Gd384 2.362 1_554 S
O435 Gd385 2.606 . S
O435 C451 1.284 . S
O436 Gd384 2.324 . S
O436 C459 1.254 1_556 S
O437 Gd385 2.429 . S
O437 C459 1.268 . S
O438 Gd385 2.545 . S
O438 C451 1.250 . S
O439 Gd385 2.412 . S
O439 C452 1.252 . S
C440 O429 1.284 1_556 S
C440 O432 1.250 . S
C441 H410 0.929 . S
C441 C426 1.437 . S
C441 C442 1.317 . S
C442 H413 0.930 . S
C442 C418 1.431 . S
C442 C441 1.317 . S
C443 Gd384 2.828 . S
C443 O428 1.258 . S
C443 O433 1.252 . S
C443 C444 1.497 . S
C444 C443 1.497 . S
C444 C445 1.395 . S
C444 C446 1.380 . S
C445 C444 1.395 . S
C445 C448 1.398 . S
C445 H460 0.930 . S
C446 C444 1.380 . S
C446 C447 1.391 . S
C446 H461 0.930 . S
C447 C446 1.391 . S
C447 C449 1.387 . S
C448 C445 1.398 . S
C448 C449 1.380 . S
C448 H462 0.930 . S
C449 C447 1.387 . S
C449 C448 1.380 . S
C449 H463 0.930 . S
C450 O430 1.254 . S
C450 O431 1.268 . S
C451 O435 1.284 . S
C451 O438 1.250 . S
C452 Gd385 2.828 . S
C452 O434 1.258 . S
C452 O439 1.252 . S
C452 C453 1.497 . S
C453 C452 1.497 . S
C453 C454 1.395 . S
C453 C455 1.380 . S
C454 C453 1.395 . S
C454 C457 1.398 . S
C454 H464 0.930 . S
C455 C453 1.380 . S
C455 C456 1.391 . S
C455 H465 0.930 . S
C456 C455 1.391 . S
C456 C458 1.387 . S
C457 C454 1.398 . S
C457 C458 1.380 . S
C457 H466 0.930 . S
C458 C456 1.387 . S
C458 C457 1.380 . S
C458 H467 0.930 . S
C459 O436 1.254 1_554 S
C459 O437 1.268 . S
H460 C445 0.930 . S
H461 C446 0.930 . S
H462 C448 0.930 . S
H463 C449 0.930 . S
H464 C454 0.930 . S
H465 C455 0.930 . S
H466 C457 0.930 . S
H467 C458 0.930 . S
Gd468 N499 2.661 . S
Gd468 N505 2.601 . S
Gd468 O512 2.545 . S
Gd468 O513 2.606 . S
Gd468 O515 2.429 . S
Gd468 O516 2.545 . S
Gd468 O517 2.412 . S
Gd468 O519 2.362 . S
Gd468 O520 2.324 . S
Gd468 C527 2.828 . S
Gd469 N478 2.661 . S
Gd469 N482 2.601 . S
Gd469 O513 2.362 . S
Gd469 O514 2.324 . S
Gd469 O518 2.545 . S
Gd469 O519 2.606 . S
Gd469 O521 2.429 . S
Gd469 O522 2.545 . S
Gd469 O523 2.412 . S
Gd469 C536 2.828 . S
C470 C473 1.417 . S
C470 C475 1.431 . S
C470 C476 1.412 . S
C471 C474 1.437 . S
C471 C475 1.317 . S
C471 H490 0.929 . S
C472 C473 1.426 . S
C472 C474 1.413 . S
C472 N482 1.359 . S
C473 C470 1.417 . S
C473 C472 1.426 . S
C473 N478 1.350 . S
C474 C471 1.437 . S
C474 C472 1.413 . S
C474 C484 1.391 . S
C475 C470 1.431 . S
C475 C471 1.317 . S
C475 H486 0.930 . S
C476 C470 1.412 . S
C476 C477 1.355 . S
C476 H488 0.941 . S
C477 C476 1.355 . S
C477 C479 1.402 . S
C477 H489 0.930 . S
N478 Gd469 2.661 . S
N478 C473 1.350 . S
N478 C479 1.307 . S
C479 C477 1.402 . S
C479 N478 1.307 . S
C479 H480 0.930 . S
H480 C479 0.930 . S
C481 N482 1.334 . S
C481 C483 1.394 . S
C481 H485 0.930 . S
N482 Gd469 2.601 . S
N482 C472 1.359 . S
N482 C481 1.334 . S
C483 C481 1.394 . S
C483 C484 1.359 . S
C483 H495 0.930 . S
C484 C474 1.391 . S
C484 C483 1.359 . S
C484 H496 0.929 . S
H485 C481 0.930 . S
H486 C475 0.930 . S
H487 C504 0.930 . S
H488 C476 0.941 . S
H489 C477 0.930 . S
H490 C471 0.929 . S
H491 C509 0.930 . S
H492 C500 0.930 . S
H493 C501 0.930 . S
H494 C525 0.929 . S
H495 C483 0.930 . S
H496 C484 0.929 . S
H497 C526 0.930 . S
H498 C507 0.930 . S
N499 Gd468 2.661 . S
N499 C503 1.350 . S
N499 C504 1.307 . S
C500 H492 0.930 . S
C500 C501 1.355 . S
C500 C502 1.412 . S
C501 H493 0.930 . S
C501 C500 1.355 . S
C501 C504 1.402 . S
C502 C500 1.412 . S
C502 C503 1.417 . S
C502 C526 1.431 . S
C503 N499 1.350 . S
C503 C502 1.417 . S
C503 C506 1.426 . S
C504 H487 0.930 . S
C504 N499 1.307 . S
C504 C501 1.402 . S
N505 Gd468 2.601 . S
N505 C506 1.359 . S
N505 C509 1.334 . S
C506 C503 1.426 . S
C506 N505 1.359 . S
C506 C510 1.413 . S
C507 H498 0.930 . S
C507 C508 1.359 . S
C507 C509 1.394 . S
C508 C507 1.359 . S
C508 C510 1.391 . S
C508 H511 0.929 . S
C509 H491 0.930 . S
C509 N505 1.334 . S
C509 C507 1.394 . S
C510 C506 1.413 . S
C510 C508 1.391 . S
C510 C525 1.437 . S
H511 C508 0.929 . S
O512 Gd468 2.545 . S
O512 C527 1.258 . S
O513 Gd468 2.606 . S
O513 Gd469 2.362 . S
O513 C524 1.284 . S
O514 Gd469 2.324 . S
O514 C534 1.254 . S
O515 Gd468 2.429 . S
O515 C534 1.268 . S
O516 Gd468 2.545 . S
O516 C524 1.250 . S
O517 Gd468 2.412 . S
O517 C527 1.252 . S
O518 Gd469 2.545 . S
O518 C536 1.258 . S
O519 Gd468 2.362 . S
O519 Gd469 2.606 . S
O519 C535 1.284 . S
O520 Gd468 2.324 . S
O520 C543 1.254 . S
O521 Gd469 2.429 . S
O521 C543 1.268 . S
O522 Gd469 2.545 . S
O522 C535 1.250 . S
O523 Gd469 2.412 . S
O523 C536 1.252 . S
C524 O513 1.284 . S
C524 O516 1.250 . S
C525 H494 0.929 . S
C525 C510 1.437 . S
C525 C526 1.317 . S
C526 H497 0.930 . S
C526 C502 1.431 . S
C526 C525 1.317 . S
C527 Gd468 2.828 . S
C527 O512 1.258 . S
C527 O517 1.252 . S
C527 C528 1.497 . S
C528 C527 1.497 . S
C528 C529 1.395 . S
C528 C530 1.380 . S
C529 C528 1.395 . S
C529 C532 1.398 . S
C529 H544 0.930 . S
C530 C528 1.380 . S
C530 C531 1.391 . S
C530 H545 0.930 . S
C531 C530 1.391 . S
C531 C533 1.387 . S
C532 C529 1.398 . S
C532 C533 1.380 . S
C532 H546 0.930 . S
C533 C531 1.387 . S
C533 C532 1.380 . S
C533 H547 0.930 . S
C534 O514 1.254 . S
C534 O515 1.268 . S
C535 O519 1.284 . S
C535 O522 1.250 . S
C536 Gd469 2.828 . S
C536 O518 1.258 . S
C536 O523 1.252 . S
C536 C537 1.497 . S
C537 C536 1.497 . S
C537 C538 1.395 . S
C537 C539 1.380 . S
C538 C537 1.395 . S
C538 C541 1.398 . S
C538 H548 0.930 . S
C539 C537 1.380 . S
C539 C540 1.391 . S
C539 H549 0.930 . S
C540 C539 1.391 . S
C540 C542 1.387 . S
C541 C538 1.398 . S
C541 C542 1.380 . S
C541 H550 0.930 . S
C542 C540 1.387 . S
C542 C541 1.380 . S
C542 H551 0.930 . S
C543 O520 1.254 . S
C543 O521 1.268 . S
H544 C529 0.930 . S
H545 C530 0.930 . S
H546 C532 0.930 . S
H547 C533 0.930 . S
H548 C538 0.930 . S
H549 C539 0.930 . S
H550 C541 0.930 . S
H551 C542 0.930 . S
Gd552 N583 2.661 . S
Gd552 N589 2.601 . S
Gd552 O596 2.545 . S
Gd552 O597 2.606 . S
Gd552 O599 2.429 . S
Gd552 O600 2.545 . S
Gd552 O601 2.412 . S
Gd552 O603 2.362 . S
Gd552 O604 2.324 . S
Gd552 C611 2.828 . S
Gd553 N562 2.661 . S
Gd553 N566 2.601 . S
Gd553 O597 2.362 . S
Gd553 O598 2.324 . S
Gd553 O602 2.545 . S
Gd553 O603 2.606 . S
Gd553 O605 2.429 . S
Gd553 O606 2.545 . S
Gd553 O607 2.412 . S
Gd553 C620 2.828 . S
C554 C557 1.417 . S
C554 C559 1.431 . S
C554 C560 1.412 . S
C555 C558 1.437 . S
C555 C559 1.317 . S
C555 H574 0.929 . S
C556 C557 1.426 . S
C556 C558 1.413 . S
C556 N566 1.359 . S
C557 C554 1.417 . S
C557 C556 1.426 . S
C557 N562 1.350 . S
C558 C555 1.437 . S
C558 C556 1.413 . S
C558 C568 1.391 . S
C559 C554 1.431 . S
C559 C555 1.317 . S
C559 H570 0.930 . S
C560 C554 1.412 . S
C560 C561 1.355 . S
C560 H572 0.930 . S
C561 C560 1.355 . S
C561 C563 1.402 . S
C561 H573 0.930 . S
N562 Gd553 2.661 . S
N562 C557 1.350 . S
N562 C563 1.307 . S
C563 C561 1.402 . S
C563 N562 1.307 . S
C563 H564 0.930 . S
H564 C563 0.930 . S
C565 N566 1.334 . S
C565 C567 1.394 . S
C565 H569 0.930 . S
N566 Gd553 2.601 . S
N566 C556 1.359 . S
N566 C565 1.334 . S
C567 C565 1.394 . S
C567 C568 1.359 . S
C567 H579 0.930 . S
C568 C558 1.391 . S
C568 C567 1.359 . S
C568 H580 0.929 . S
H569 C565 0.930 . S
H570 C559 0.930 . S
H571 C588 0.930 . S
H572 C560 0.930 . S
H573 C561 0.930 . S
H574 C555 0.929 . S
H575 C593 0.930 . S
H576 C584 0.930 . S
H577 C585 0.930 . S
H578 C609 0.929 . S
H579 C567 0.930 . S
H580 C568 0.929 . S
H581 C610 0.930 . S
H582 C591 0.930 . S
N583 Gd552 2.661 . S
N583 C587 1.350 . S
N583 C588 1.307 . S
C584 H576 0.930 . S
C584 C585 1.355 . S
C584 C586 1.412 . S
C585 H577 0.930 . S
C585 C584 1.355 . S
C585 C588 1.402 . S
C586 C584 1.412 . S
C586 C587 1.417 . S
C586 C610 1.431 . S
C587 N583 1.350 . S
C587 C586 1.417 . S
C587 C590 1.426 . S
C588 H571 0.930 . S
C588 N583 1.307 . S
C588 C585 1.402 . S
N589 Gd552 2.601 . S
N589 C590 1.359 . S
N589 C593 1.334 . S
C590 C587 1.426 . S
C590 N589 1.359 . S
C590 C594 1.413 . S
C591 H582 0.930 . S
C591 C592 1.359 . S
C591 C593 1.394 . S
C592 C591 1.359 . S
C592 C594 1.391 . S
C592 H595 0.929 . S
C593 H575 0.930 . S
C593 N589 1.334 . S
C593 C591 1.394 . S
C594 C590 1.413 . S
C594 C592 1.391 . S
C594 C609 1.437 . S
H595 C592 0.929 . S
O596 Gd552 2.545 . S
O596 C611 1.258 . S
O597 Gd552 2.606 . S
O597 Gd553 2.362 . S
O597 C608 1.284 . S
O598 Gd553 2.324 . S
O598 C618 1.254 . S
O599 Gd552 2.429 . S
O599 C618 1.268 . S
O600 Gd552 2.545 . S
O600 C608 1.250 . S
O601 Gd552 2.412 . S
O601 C611 1.252 . S
O602 Gd553 2.545 . S
O602 C620 1.258 . S
O603 Gd552 2.362 . S
O603 Gd553 2.606 . S
O603 C619 1.284 . S
O604 Gd552 2.324 . S
O604 C627 1.254 . S
O605 Gd553 2.429 . S
O605 C627 1.268 . S
O606 Gd553 2.545 . S
O606 C619 1.250 . S
O607 Gd553 2.412 . S
O607 C620 1.252 . S
C608 O597 1.284 . S
C608 O600 1.250 . S
C609 H578 0.929 . S
C609 C594 1.437 . S
C609 C610 1.317 . S
C610 H581 0.930 . S
C610 C586 1.431 . S
C610 C609 1.317 . S
C611 Gd552 2.828 . S
C611 O596 1.258 . S
C611 O601 1.252 . S
C611 C612 1.497 . S
C612 C611 1.497 . S
C612 C613 1.395 . S
C612 C614 1.380 . S
C613 C612 1.395 . S
C613 C616 1.398 . S
C613 H628 0.930 . S
C614 C612 1.380 . S
C614 C615 1.391 . S
C614 H629 0.930 . S
C615 C614 1.391 . S
C615 C617 1.387 . S
C616 C613 1.398 . S
C616 C617 1.380 . S
C616 H630 0.930 . S
C617 C615 1.387 . S
C617 C616 1.380 . S
C617 H631 0.930 . S
C618 O598 1.254 . S
C618 O599 1.268 . S
C619 O603 1.284 . S
C619 O606 1.250 . S
C620 Gd553 2.828 . S
C620 O602 1.258 . S
C620 O607 1.252 . S
C620 C621 1.497 . S
C621 C620 1.497 . S
C621 C622 1.395 . S
C621 C623 1.380 . S
C622 C621 1.395 . S
C622 C625 1.398 . S
C622 H632 0.930 . S
C623 C621 1.380 . S
C623 C624 1.391 . S
C623 H633 0.930 . S
C624 C623 1.391 . S
C624 C626 1.387 . S
C625 C622 1.398 . S
C625 C626 1.380 . S
C625 H634 0.930 . S
C626 C624 1.387 . S
C626 C625 1.380 . S
C626 H635 0.930 . S
C627 O604 1.254 . S
C627 O605 1.268 . S
H628 C613 0.930 . S
H629 C614 0.930 . S
H630 C616 0.930 . S
H631 C617 0.930 . S
H632 C622 0.930 . S
H633 C623 0.930 . S
H634 C625 0.930 . S
H635 C626 0.930 . S
Gd636 N667 2.661 . S
Gd636 N673 2.601 . S
Gd636 O680 2.545 . S
Gd636 O681 2.606 . S
Gd636 O683 2.429 . S
Gd636 O684 2.545 . S
Gd636 O685 2.412 . S
Gd636 O687 2.362 . S
Gd636 O688 2.324 . S
Gd636 C695 2.828 . S
Gd637 N646 2.661 . S
Gd637 N650 2.601 . S
Gd637 O681 2.362 . S
Gd637 O682 2.324 . S
Gd637 O686 2.545 . S
Gd637 O687 2.606 . S
Gd637 O689 2.429 . S
Gd637 O690 2.545 . S
Gd637 O691 2.412 . S
Gd637 C704 2.828 . S
C638 C641 1.417 . S
C638 C643 1.431 . S
C638 C644 1.412 . S
C639 C642 1.437 . S
C639 C643 1.317 . S
C639 H658 0.929 . S
C640 C641 1.426 . S
C640 C642 1.413 . S
C640 N650 1.359 . S
C641 C638 1.417 . S
C641 C640 1.426 . S
C641 N646 1.350 . S
C642 C639 1.437 . S
C642 C640 1.413 . S
C642 C652 1.391 . S
C643 C638 1.431 . S
C643 C639 1.317 . S
C643 H654 0.930 . S
C644 C638 1.412 . S
C644 C645 1.355 . S
C644 H656 0.930 . S
C645 C644 1.355 . S
C645 C647 1.402 . S
C645 H657 0.930 . S
N646 Gd637 2.661 . S
N646 C641 1.350 . S
N646 C647 1.307 . S
C647 C645 1.402 . S
C647 N646 1.307 . S
C647 H648 0.930 . S
H648 C647 0.930 . S
C649 N650 1.334 . S
C649 C651 1.394 . S
C649 H653 0.930 . S
N650 Gd637 2.601 . S
N650 C640 1.359 . S
N650 C649 1.334 . S
C651 C649 1.394 . S
C651 C652 1.359 . S
C651 H663 0.930 . S
C652 C642 1.391 . S
C652 C651 1.359 . S
C652 H664 0.929 . S
H653 C649 0.930 . S
H654 C643 0.930 . S
H655 C672 0.930 . S
H656 C644 0.930 . S
H657 C645 0.930 . S
H658 C639 0.929 . S
H659 C677 0.930 . S
H660 C668 0.930 . S
H661 C669 0.930 . S
H662 C693 0.929 . S
H663 C651 0.930 . S
H664 C652 0.929 . S
H665 C694 0.930 . S
H666 C675 0.930 . S
N667 Gd636 2.661 . S
N667 C671 1.350 . S
N667 C672 1.307 . S
C668 H660 0.930 . S
C668 C669 1.355 . S
C668 C670 1.412 . S
C669 H661 0.930 . S
C669 C668 1.355 . S
C669 C672 1.402 . S
C670 C668 1.412 . S
C670 C671 1.417 . S
C670 C694 1.431 . S
C671 N667 1.350 . S
C671 C670 1.417 . S
C671 C674 1.426 . S
C672 H655 0.930 . S
C672 N667 1.307 . S
C672 C669 1.402 . S
N673 Gd636 2.601 . S
N673 C674 1.359 . S
N673 C677 1.334 . S
C674 C671 1.426 . S
C674 N673 1.359 . S
C674 C678 1.413 . S
C675 H666 0.930 . S
C675 C676 1.359 . S
C675 C677 1.394 . S
C676 C675 1.359 . S
C676 C678 1.391 . S
C676 H679 0.929 . S
C677 H659 0.930 . S
C677 N673 1.334 . S
C677 C675 1.394 . S
C678 C674 1.413 . S
C678 C676 1.391 . S
C678 C693 1.437 . S
H679 C676 0.929 . S
O680 Gd636 2.545 . S
O680 C695 1.258 . S
O681 Gd636 2.606 . S
O681 Gd637 2.362 . S
O681 C692 1.284 . S
O682 Gd637 2.324 . S
O682 C702 1.254 . S
O683 Gd636 2.429 . S
O683 C702 1.268 . S
O684 Gd636 2.545 . S
O684 C692 1.250 . S
O685 Gd636 2.412 . S
O685 C695 1.252 . S
O686 Gd637 2.545 . S
O686 C704 1.258 . S
O687 Gd636 2.362 . S
O687 Gd637 2.606 . S
O687 C703 1.284 . S
O688 Gd636 2.324 . S
O688 C711 1.254 . S
O689 Gd637 2.429 . S
O689 C711 1.268 . S
O690 Gd637 2.545 . S
O690 C703 1.250 . S
O691 Gd637 2.412 . S
O691 C704 1.252 . S
C692 O681 1.284 . S
C692 O684 1.250 . S
C693 H662 0.929 . S
C693 C678 1.437 . S
C693 C694 1.317 . S
C694 H665 0.930 . S
C694 C670 1.431 . S
C694 C693 1.317 . S
C695 Gd636 2.828 . S
C695 O680 1.258 . S
C695 O685 1.252 . S
C695 C696 1.497 . S
C696 C695 1.497 . S
C696 C697 1.395 . S
C696 C698 1.380 . S
C697 C696 1.395 . S
C697 C700 1.398 . S
C697 H712 0.930 . S
C698 C696 1.380 . S
C698 C699 1.391 . S
C698 H713 0.930 . S
C699 C698 1.391 . S
C699 C701 1.387 . S
C700 C697 1.398 . S
C700 C701 1.380 . S
C700 H714 0.930 . S
C701 C699 1.387 . S
C701 C700 1.380 . S
C701 H715 0.930 . S
C702 O682 1.254 . S
C702 O683 1.268 . S
C703 O687 1.284 . S
C703 O690 1.250 . S
C704 Gd637 2.828 . S
C704 O686 1.258 . S
C704 O691 1.252 . S
C704 C705 1.497 . S
C705 C704 1.497 . S
C705 C706 1.395 . S
C705 C707 1.380 . S
C706 C705 1.395 . S
C706 C709 1.398 . S
C706 H716 0.930 . S
C707 C705 1.380 . S
C707 C708 1.391 . S
C707 H717 0.930 . S
C708 C707 1.391 . S
C708 C710 1.387 . S
C709 C706 1.398 . S
C709 C710 1.380 . S
C709 H718 0.930 . S
C710 C708 1.387 . S
C710 C709 1.380 . S
C710 H719 0.930 . S
C711 O688 1.254 . S
C711 O689 1.268 . S
H712 C697 0.930 . S
H713 C698 0.930 . S
H714 C700 0.930 . S
H715 C701 0.930 . S
H716 C706 0.930 . S
H717 C707 0.930 . S
H718 C709 0.930 . S
H719 C710 0.930 . S
Gd720 N751 2.661 . S
Gd720 N757 2.601 . S
Gd720 O764 2.545 . S
Gd720 O765 2.606 . S
Gd720 O767 2.429 . S
Gd720 O768 2.545 . S
Gd720 O769 2.412 . S
Gd720 O771 2.362 . S
Gd720 O772 2.324 . S
Gd720 C779 2.828 . S
Gd721 N730 2.661 . S
Gd721 N734 2.601 . S
Gd721 O765 2.362 . S
Gd721 O766 2.324 . S
Gd721 O770 2.545 . S
Gd721 O771 2.606 . S
Gd721 O773 2.429 . S
Gd721 O774 2.545 . S
Gd721 O775 2.412 . S
Gd721 C788 2.828 . S
C722 C725 1.417 . S
C722 C727 1.431 . S
C722 C728 1.412 . S
C723 C726 1.437 . S
C723 C727 1.317 . S
C723 H742 0.929 . S
C724 C725 1.426 . S
C724 C726 1.413 . S
C724 N734 1.359 . S
C725 C722 1.417 . S
C725 C724 1.426 . S
C725 N730 1.350 . S
C726 C723 1.437 . S
C726 C724 1.413 . S
C726 C736 1.391 . S
C727 C722 1.431 . S
C727 C723 1.317 . S
C727 H738 0.930 . S
C728 C722 1.412 . S
C728 C729 1.355 . S
C728 H740 0.930 . S
C729 C728 1.355 . S
C729 C731 1.402 . S
C729 H741 0.930 . S
N730 Gd721 2.661 . S
N730 C725 1.350 . S
N730 C731 1.307 . S
C731 C729 1.402 . S
C731 N730 1.307 . S
C731 H732 0.930 . S
H732 C731 0.930 . S
C733 N734 1.334 . S
C733 C735 1.394 . S
C733 H737 0.930 . S
N734 Gd721 2.601 . S
N734 C724 1.359 . S
N734 C733 1.334 . S
C735 C733 1.394 . S
C735 C736 1.359 . S
C735 H747 0.930 . S
C736 C726 1.391 . S
C736 C735 1.359 . S
C736 H748 0.929 . S
H737 C733 0.930 . S
H738 C727 0.930 . S
H739 C756 0.930 . S
H740 C728 0.930 . S
H741 C729 0.930 . S
H742 C723 0.929 . S
H743 C761 0.930 . S
H744 C752 0.930 . S
H745 C753 0.930 . S
H746 C777 0.929 . S
H747 C735 0.930 . S
H748 C736 0.929 . S
H749 C778 0.930 . S
H750 C759 0.930 . S
N751 Gd720 2.661 . S
N751 C755 1.350 . S
N751 C756 1.307 . S
C752 H744 0.930 . S
C752 C753 1.355 . S
C752 C754 1.412 . S
C753 H745 0.930 . S
C753 C752 1.355 . S
C753 C756 1.402 . S
C754 C752 1.412 . S
C754 C755 1.417 . S
C754 C778 1.431 . S
C755 N751 1.350 . S
C755 C754 1.417 . S
C755 C758 1.426 . S
C756 H739 0.930 . S
C756 N751 1.307 . S
C756 C753 1.402 . S
N757 Gd720 2.601 . S
N757 C758 1.359 . S
N757 C761 1.334 . S
C758 C755 1.426 . S
C758 N757 1.359 . S
C758 C762 1.413 . S
C759 H750 0.930 . S
C759 C760 1.359 . S
C759 C761 1.394 . S
C760 C759 1.359 . S
C760 C762 1.391 . S
C760 H763 0.929 . S
C761 H743 0.930 . S
C761 N757 1.334 . S
C761 C759 1.394 . S
C762 C758 1.413 . S
C762 C760 1.391 . S
C762 C777 1.437 . S
H763 C760 0.929 . S
O764 Gd720 2.545 . S
O764 C779 1.258 . S
O765 Gd720 2.606 . S
O765 Gd721 2.362 . S
O765 C776 1.284 . S
O766 Gd721 2.324 . S
O766 C786 1.254 . S
O767 Gd720 2.429 . S
O767 C786 1.268 . S
O768 Gd720 2.545 . S
O768 C776 1.250 . S
O769 Gd720 2.412 . S
O769 C779 1.252 . S
O770 Gd721 2.545 . S
O770 C788 1.258 . S
O771 Gd720 2.362 . S
O771 Gd721 2.606 . S
O771 C787 1.284 . S
O772 Gd720 2.324 . S
O772 C795 1.254 . S
O773 Gd721 2.429 . S
O773 C795 1.268 . S
O774 Gd721 2.545 . S
O774 C787 1.250 . S
O775 Gd721 2.412 . S
O775 C788 1.252 . S
C776 O765 1.284 . S
C776 O768 1.250 . S
C777 H746 0.929 . S
C777 C762 1.437 . S
C777 C778 1.317 . S
C778 H749 0.930 . S
C778 C754 1.431 . S
C778 C777 1.317 . S
C779 Gd720 2.828 . S
C779 O764 1.258 . S
C779 O769 1.252 . S
C779 C780 1.497 . S
C780 C779 1.497 . S
C780 C781 1.395 . S
C780 C782 1.380 . S
C781 C780 1.395 . S
C781 C784 1.398 . S
C781 H796 0.930 . S
C782 C780 1.380 . S
C782 C783 1.391 . S
C782 H797 0.930 . S
C783 C782 1.391 . S
C783 C785 1.387 . S
C784 C781 1.398 . S
C784 C785 1.380 . S
C784 H798 0.930 . S
C785 C783 1.387 . S
C785 C784 1.380 . S
C785 H799 0.930 . S
C786 O766 1.254 . S
C786 O767 1.268 . S
C787 O771 1.284 . S
C787 O774 1.250 . S
C788 Gd721 2.828 . S
C788 O770 1.258 . S
C788 O775 1.252 . S
C788 C789 1.497 . S
C789 C788 1.497 . S
C789 C790 1.395 . S
C789 C791 1.380 . S
C790 C789 1.395 . S
C790 C793 1.398 . S
C790 H800 0.930 . S
C791 C789 1.380 . S
C791 C792 1.391 . S
C791 H801 0.930 . S
C792 C791 1.391 . S
C792 C794 1.387 . S
C793 C790 1.398 . S
C793 C794 1.380 . S
C793 H802 0.930 . S
C794 C792 1.387 . S
C794 C793 1.380 . S
C794 H803 0.930 . S
C795 O772 1.254 . S
C795 O773 1.268 . S
H796 C781 0.930 . S
H797 C782 0.930 . S
H798 C784 0.930 . S
H799 C785 0.930 . S
H800 C790 0.930 . S
H801 C791 0.930 . S
H802 C793 0.930 . S
H803 C794 0.930 . S
Gd804 N835 2.661 . S
Gd804 N841 2.601 . S
Gd804 O848 2.545 . S
Gd804 O849 2.606 . S
Gd804 O851 2.429 . S
Gd804 O852 2.545 . S
Gd804 O853 2.412 . S
Gd804 O855 2.362 . S
Gd804 O856 2.324 . S
Gd804 C863 2.828 . S
Gd805 N814 2.661 . S
Gd805 N818 2.601 . S
Gd805 O849 2.362 . S
Gd805 O850 2.324 . S
Gd805 O854 2.545 . S
Gd805 O855 2.606 . S
Gd805 O857 2.429 . S
Gd805 O858 2.545 . S
Gd805 O859 2.412 . S
Gd805 C872 2.828 . S
C806 C809 1.417 . S
C806 C811 1.431 . S
C806 C812 1.412 . S
C807 C810 1.437 . S
C807 C811 1.317 . S
C807 H826 0.929 . S
C808 C809 1.426 . S
C808 C810 1.413 . S
C808 N818 1.359 . S
C809 C806 1.417 . S
C809 C808 1.426 . S
C809 N814 1.350 . S
C810 C807 1.437 . S
C810 C808 1.413 . S
C810 C820 1.391 . S
C811 C806 1.431 . S
C811 C807 1.317 . S
C811 H822 0.930 . S
C812 C806 1.412 . S
C812 C813 1.355 . S
C812 H824 0.930 . S
C813 C812 1.355 . S
C813 C815 1.402 . S
C813 H825 0.930 . S
N814 Gd805 2.661 . S
N814 C809 1.350 . S
N814 C815 1.307 . S
C815 C813 1.402 . S
C815 N814 1.307 . S
C815 H816 0.930 . S
H816 C815 0.930 . S
C817 N818 1.334 . S
C817 C819 1.394 . S
C817 H821 0.930 . S
N818 Gd805 2.601 . S
N818 C808 1.359 . S
N818 C817 1.334 . S
C819 C817 1.394 . S
C819 C820 1.359 . S
C819 H831 0.930 . S
C820 C810 1.391 . S
C820 C819 1.359 . S
C820 H832 0.929 . S
H821 C817 0.930 . S
H822 C811 0.930 . S
H823 C840 0.930 . S
H824 C812 0.930 . S
H825 C813 0.930 . S
H826 C807 0.929 . S
H827 C845 0.930 . S
H828 C836 0.930 . S
H829 C837 0.930 . S
H830 C861 0.929 . S
H831 C819 0.930 . S
H832 C820 0.929 . S
H833 C862 0.930 . S
H834 C843 0.930 . S
N835 Gd804 2.661 . S
N835 C839 1.350 . S
N835 C840 1.307 . S
C836 H828 0.930 . S
C836 C837 1.355 . S
C836 C838 1.412 . S
C837 H829 0.930 . S
C837 C836 1.355 . S
C837 C840 1.402 . S
C838 C836 1.412 . S
C838 C839 1.417 . S
C838 C862 1.431 . S
C839 N835 1.350 . S
C839 C838 1.417 . S
C839 C842 1.426 . S
C840 H823 0.930 . S
C840 N835 1.307 . S
C840 C837 1.402 . S
N841 Gd804 2.601 . S
N841 C842 1.359 . S
N841 C845 1.334 . S
C842 C839 1.426 . S
C842 N841 1.359 . S
C842 C846 1.413 . S
C843 H834 0.930 . S
C843 C844 1.359 . S
C843 C845 1.394 . S
C844 C843 1.359 . S
C844 C846 1.391 . S
C844 H847 0.929 . S
C845 H827 0.930 . S
C845 N841 1.334 . S
C845 C843 1.394 . S
C846 C842 1.413 . S
C846 C844 1.391 . S
C846 C861 1.437 . S
H847 C844 0.929 . S
O848 Gd804 2.545 . S
O848 C863 1.258 . S
O849 Gd804 2.606 . S
O849 Gd805 2.362 . S
O849 C860 1.284 . S
O850 Gd805 2.324 . S
O850 C870 1.254 . S
O851 Gd804 2.429 . S
O851 C870 1.268 . S
O852 Gd804 2.545 . S
O852 C860 1.250 . S
O853 Gd804 2.412 . S
O853 C863 1.252 . S
O854 Gd805 2.545 . S
O854 C872 1.258 . S
O855 Gd804 2.362 . S
O855 Gd805 2.606 . S
O855 C871 1.284 . S
O856 Gd804 2.324 . S
O856 C879 1.254 . S
O857 Gd805 2.429 . S
O857 C879 1.268 . S
O858 Gd805 2.545 . S
O858 C871 1.250 . S
O859 Gd805 2.412 . S
O859 C872 1.252 . S
C860 O849 1.284 . S
C860 O852 1.250 . S
C861 H830 0.929 . S
C861 C846 1.437 . S
C861 C862 1.317 . S
C862 H833 0.930 . S
C862 C838 1.431 . S
C862 C861 1.317 . S
C863 Gd804 2.828 . S
C863 O848 1.258 . S
C863 O853 1.252 . S
C863 C864 1.497 . S
C864 C863 1.497 . S
C864 C865 1.395 . S
C864 C866 1.380 . S
C865 C864 1.395 . S
C865 C868 1.398 . S
C865 H880 0.930 . S
C866 C864 1.380 . S
C866 C867 1.391 . S
C866 H881 0.930 . S
C867 C866 1.391 . S
C867 C869 1.387 . S
C868 C865 1.398 . S
C868 C869 1.380 . S
C868 H882 0.930 . S
C869 C867 1.387 . S
C869 C868 1.380 . S
C869 H883 0.930 . S
C870 O850 1.254 . S
C870 O851 1.268 . S
C871 O855 1.284 . S
C871 O858 1.250 . S
C872 Gd805 2.828 . S
C872 O854 1.258 . S
C872 O859 1.252 . S
C872 C873 1.497 . S
C873 C872 1.497 . S
C873 C874 1.395 . S
C873 C875 1.380 . S
C874 C873 1.395 . S
C874 C877 1.398 . S
C874 H884 0.930 . S
C875 C873 1.380 . S
C875 C876 1.391 . S
C875 H885 0.930 . S
C876 C875 1.391 . S
C876 C878 1.387 . S
C877 C874 1.398 . S
C877 C878 1.380 . S
C877 H886 0.930 . S
C878 C876 1.387 . S
C878 C877 1.380 . S
C878 H887 0.930 . S
C879 O856 1.254 . S
C879 O857 1.268 . S
H880 C865 0.930 . S
H881 C866 0.930 . S
H882 C868 0.930 . S
H883 C869 0.930 . S
H884 C874 0.930 . S
H885 C875 0.930 . S
H886 C877 0.930 . S
H887 C878 0.930 . S
Gd888 N919 2.661 . S
Gd888 N925 2.601 . S
Gd888 O932 2.545 . S
Gd888 O933 2.606 . S
Gd888 O935 2.429 . S
Gd888 O936 2.545 . S
Gd888 O937 2.412 . S
Gd888 O939 2.362 . S
Gd888 O940 2.324 . S
Gd888 C947 2.828 . S
Gd889 N898 2.661 . S
Gd889 N902 2.601 . S
Gd889 O933 2.362 . S
Gd889 O934 2.324 . S
Gd889 O938 2.545 . S
Gd889 O939 2.606 . S
Gd889 O941 2.429 . S
Gd889 O942 2.545 . S
Gd889 O943 2.412 . S
Gd889 C956 2.828 . S
C890 C893 1.417 . S
C890 C895 1.431 . S
C890 C896 1.412 . S
C891 C894 1.437 . S
C891 C895 1.317 . S
C891 H910 0.929 . S
C892 C893 1.426 . S
C892 C894 1.413 . S
C892 N902 1.359 . S
C893 C890 1.417 . S
C893 C892 1.426 . S
C893 N898 1.350 . S
C894 C891 1.437 . S
C894 C892 1.413 . S
C894 C904 1.391 . S
C895 C890 1.431 . S
C895 C891 1.317 . S
C895 H906 0.930 1_655 S
C896 C890 1.412 . S
C896 C897 1.355 . S
C896 H908 0.930 1_655 S
C897 C896 1.355 . S
C897 C899 1.402 . S
C897 H909 0.930 . S
N898 Gd889 2.661 . S
N898 C893 1.350 . S
N898 C899 1.307 . S
C899 C897 1.402 . S
C899 N898 1.307 . S
C899 H900 0.930 . S
H900 C899 0.930 . S
C901 N902 1.334 . S
C901 C903 1.394 . S
C901 H905 0.930 . S
N902 Gd889 2.601 . S
N902 C892 1.359 . S
N902 C901 1.334 . S
C903 C901 1.394 . S
C903 C904 1.359 . S
C903 H915 0.930 . S
C904 C894 1.391 . S
C904 C903 1.359 . S
C904 H916 0.929 . S
H905 C901 0.930 . S
H906 C895 0.930 1_455 S
H907 C924 0.930 . S
H908 C896 0.930 1_455 S
H909 C897 0.930 . S
H910 C891 0.929 . S
H911 C929 0.930 . S
H912 C920 0.930 . S
H913 C921 0.930 . S
H914 C945 0.929 . S
H915 C903 0.930 . S
H916 C904 0.929 . S
H917 C946 0.930 . S
H918 C927 0.930 . S
N919 Gd888 2.661 . S
N919 C923 1.350 . S
N919 C924 1.307 . S
C920 H912 0.930 . S
C920 C921 1.355 . S
C920 C922 1.412 . S
C921 H913 0.930 . S
C921 C920 1.355 . S
C921 C924 1.402 . S
C922 C920 1.412 . S
C922 C923 1.417 . S
C922 C946 1.431 . S
C923 N919 1.350 . S
C923 C922 1.417 . S
C923 C926 1.426 . S
C924 H907 0.930 . S
C924 N919 1.307 . S
C924 C921 1.402 . S
N925 Gd888 2.601 . S
N925 C926 1.359 . S
N925 C929 1.334 . S
C926 C923 1.426 . S
C926 N925 1.359 . S
C926 C930 1.413 . S
C927 H918 0.930 . S
C927 C928 1.359 . S
C927 C929 1.394 . S
C928 C927 1.359 . S
C928 C930 1.391 . S
C928 H931 0.929 . S
C929 H911 0.930 . S
C929 N925 1.334 . S
C929 C927 1.394 . S
C930 C926 1.413 . S
C930 C928 1.391 . S
C930 C945 1.437 . S
H931 C928 0.929 . S
O932 Gd888 2.545 . S
O932 C947 1.258 . S
O933 Gd888 2.606 . S
O933 Gd889 2.362 . S
O933 C944 1.284 . S
O934 Gd889 2.324 . S
O934 C954 1.254 . S
O935 Gd888 2.429 . S
O935 C954 1.268 . S
O936 Gd888 2.545 . S
O936 C944 1.250 . S
O937 Gd888 2.412 . S
O937 C947 1.252 . S
O938 Gd889 2.545 . S
O938 C956 1.258 . S
O939 Gd888 2.362 . S
O939 Gd889 2.606 . S
O939 C955 1.284 . S
O940 Gd888 2.324 . S
O940 C963 1.254 . S
O941 Gd889 2.429 . S
O941 C963 1.268 . S
O942 Gd889 2.545 . S
O942 C955 1.250 . S
O943 Gd889 2.412 . S
O943 C956 1.252 . S
C944 O933 1.284 . S
C944 O936 1.250 . S
C945 H914 0.929 . S
C945 C930 1.437 . S
C945 C946 1.317 . S
C946 H917 0.930 . S
C946 C922 1.431 . S
C946 C945 1.317 . S
C947 Gd888 2.828 . S
C947 O932 1.258 . S
C947 O937 1.252 . S
C947 C948 1.497 . S
C948 C947 1.497 . S
C948 C949 1.395 . S
C948 C950 1.380 . S
C949 C948 1.395 . S
C949 C952 1.398 . S
C949 H964 0.930 . S
C950 C948 1.380 . S
C950 C951 1.391 . S
C950 H965 0.930 . S
C951 C950 1.391 . S
C951 C953 1.387 . S
C952 C949 1.398 . S
C952 C953 1.380 . S
C952 H966 0.930 . S
C953 C951 1.387 . S
C953 C952 1.380 . S
C953 H967 0.930 . S
C954 O934 1.254 . S
C954 O935 1.268 . S
C955 O939 1.284 . S
C955 O942 1.250 . S
C956 Gd889 2.828 . S
C956 O938 1.258 . S
C956 O943 1.252 . S
C956 C957 1.497 . S
C957 C956 1.497 . S
C957 C958 1.395 . S
C957 C959 1.380 . S
C958 C957 1.395 . S
C958 C961 1.398 . S
C958 H968 0.930 . S
C959 C957 1.380 . S
C959 C960 1.391 . S
C959 H969 0.930 . S
C960 C959 1.391 . S
C960 C962 1.387 . S
C961 C958 1.398 . S
C961 C962 1.380 . S
C961 H970 0.930 . S
C962 C960 1.387 . S
C962 C961 1.380 . S
C962 H971 0.930 . S
C963 O940 1.254 . S
C963 O941 1.268 . S
H964 C949 0.930 . S
H965 C950 0.930 . S
H966 C952 0.930 . S
H967 C953 0.930 . S
H968 C958 0.930 . S
H969 C959 0.930 . S
H970 C961 0.930 . S
H971 C962 0.930 . S
C972 C973 1.391 . S
C972 C974 1.394 . S
C972 H988 0.931 . S
C973 C972 1.391 . S
C973 C977 1.376 . S
C974 C972 1.394 . S
C974 C975 1.369 . S
C974 C978 1.531 . S
C975 C974 1.369 . S
C975 C976 1.410 . S
C975 C983 1.503 . S
C976 C975 1.410 . S
C976 C977 1.392 . S
C976 C979 1.511 . S
C977 C973 1.376 . S
C977 C976 1.392 . S
C977 H989 0.929 . S
C978 C974 1.531 . S
C978 H990 0.960 . S
C978 H991 0.962 . S
C978 H992 0.960 . S
C979 C976 1.511 . S
C979 H993 0.961 . S
C979 H994 0.961 . S
C979 H995 0.961 . S
C980 C981 1.370 . S
C980 C982 1.363 . S
C980 H996 0.931 . S
C981 C980 1.370 . S
C981 C985 1.408 . S
C982 C980 1.363 . S
C982 C983 1.370 . S
C982 C986 1.524 . S
C983 C975 1.503 . S
C983 C982 1.370 . S
C983 C984 1.403 . S
C984 C983 1.403 . S
C984 C985 1.404 . S
C984 C987 1.539 . S
C985 C981 1.408 . S
C985 C984 1.404 . S
C985 H997 0.930 . S
C986 C982 1.524 . S
C986 H998 0.956 . S
C986 H999 0.961 . S
C986 H1000 1.005 . S
C987 C984 1.539 . S
C987 H1001 0.958 . S
C987 H1002 0.961 . S
C987 H1003 0.960 . S
H988 C972 0.931 . S
H989 C977 0.929 . S
H990 C978 0.960 . S
H991 C978 0.962 . S
H992 C978 0.960 . S
H993 C979 0.961 . S
H994 C979 0.961 . S
H995 C979 0.961 . S
H996 C980 0.931 . S
H997 C985 0.930 . S
H998 C986 0.956 . S
H999 C986 0.961 . S
H1000 C986 1.005 . S
H1001 C987 0.958 . S
H1002 C987 0.961 . S
H1003 C987 0.960 . S
C1004 C1005 1.391 . S
C1004 C1006 1.394 . S
C1004 H1020 0.931 . S
C1005 C1004 1.391 . S
C1005 C1009 1.376 . S
C1006 C1004 1.394 . S
C1006 C1007 1.369 . S
C1006 C1010 1.531 . S
C1007 C1006 1.369 . S
C1007 C1008 1.410 . S
C1007 C1015 1.503 . S
C1008 C1007 1.410 . S
C1008 C1009 1.392 . S
C1008 C1011 1.511 . S
C1009 C1005 1.376 . S
C1009 C1008 1.392 . S
C1009 H1021 0.929 . S
C1010 C1006 1.531 . S
C1010 H1022 0.960 . S
C1010 H1023 0.962 . S
C1010 H1024 0.960 . S
C1011 C1008 1.511 . S
C1011 H1025 0.961 . S
C1011 H1026 0.961 . S
C1011 H1027 0.961 . S
C1012 C1013 1.370 . S
C1012 C1014 1.363 . S
C1012 H1028 0.931 . S
C1013 C1012 1.370 . S
C1013 C1017 1.408 . S
C1014 C1012 1.363 . S
C1014 C1015 1.370 . S
C1014 C1018 1.524 . S
C1015 C1007 1.503 . S
C1015 C1014 1.370 . S
C1015 C1016 1.403 . S
C1016 C1015 1.403 . S
C1016 C1017 1.404 . S
C1016 C1019 1.539 . S
C1017 C1013 1.408 . S
C1017 C1016 1.404 . S
C1017 H1029 0.930 . S
C1018 C1014 1.524 . S
C1018 H1030 0.956 . S
C1018 H1031 0.961 . S
C1018 H1032 0.961 . S
C1019 C1016 1.539 . S
C1019 H1033 0.958 . S
C1019 H1034 0.961 . S
C1019 H1035 0.960 . S
H1020 C1004 0.931 . S
H1021 C1009 0.929 . S
H1022 C1010 0.960 . S
H1023 C1010 0.962 . S
H1024 C1010 0.960 . S
H1025 C1011 0.961 . S
H1026 C1011 0.961 . S
H1027 C1011 0.961 . S
H1028 C1012 0.931 . S
H1029 C1017 0.930 . S
H1030 C1018 0.956 . S
H1031 C1018 0.961 . S
H1032 C1018 0.961 . S
H1033 C1019 0.958 . S
H1034 C1019 0.961 . S
H1035 C1019 0.960 . S
C1036 C1037 1.391 . S
C1036 C1038 1.394 . S
C1036 H1052 0.931 . S
C1037 C1036 1.391 . S
C1037 C1041 1.376 . S
C1038 C1036 1.394 . S
C1038 C1039 1.369 . S
C1038 C1042 1.531 . S
C1039 C1038 1.369 . S
C1039 C1040 1.410 . S
C1039 C1047 1.503 . S
C1040 C1039 1.410 . S
C1040 C1041 1.392 . S
C1040 C1043 1.511 . S
C1041 C1037 1.376 . S
C1041 C1040 1.392 . S
C1041 H1053 0.929 . S
C1042 C1038 1.531 . S
C1042 H1054 0.960 . S
C1042 H1055 0.962 . S
C1042 H1056 0.960 . S
C1043 C1040 1.511 . S
C1043 H1057 0.961 . S
C1043 H1058 0.961 . S
C1043 H1059 0.961 . S
C1044 C1045 1.370 . S
C1044 C1046 1.363 . S
C1044 H1060 0.931 . S
C1045 C1044 1.370 . S
C1045 C1049 1.408 . S
C1046 C1044 1.363 . S
C1046 C1047 1.370 . S
C1046 C1050 1.524 . S
C1047 C1039 1.503 . S
C1047 C1046 1.370 . S
C1047 C1048 1.403 . S
C1048 C1047 1.403 . S
C1048 C1049 1.404 . S
C1048 C1051 1.539 . S
C1049 C1045 1.408 . S
C1049 C1048 1.404 . S
C1049 H1061 0.925 . S
C1050 C1046 1.524 . S
C1050 H1062 0.956 . S
C1050 H1063 0.961 . S
C1050 H1064 0.961 . S
C1051 C1048 1.539 . S
C1051 H1065 0.958 1_554 S
C1051 H1066 0.961 1_554 S
C1051 H1067 0.960 . S
H1052 C1036 0.931 . S
H1053 C1041 0.929 . S
H1054 C1042 0.960 . S
H1055 C1042 0.962 . S
H1056 C1042 0.960 . S
H1057 C1043 0.961 . S
H1058 C1043 0.961 . S
H1059 C1043 0.961 . S
H1060 C1044 0.931 . S
H1061 C1049 0.925 . S
H1062 C1050 0.956 . S
H1063 C1050 0.961 . S
H1064 C1050 0.961 . S
H1065 C1051 0.958 1_556 S
H1066 C1051 0.961 1_556 S
H1067 C1051 0.960 . S
C1068 C1069 1.391 . S
C1068 C1070 1.394 . S
C1068 H1084 0.931 . S
C1069 C1068 1.391 . S
C1069 C1073 1.376 . S
C1070 C1068 1.394 . S
C1070 C1071 1.369 . S
C1070 C1074 1.531 . S
C1071 C1070 1.369 . S
C1071 C1072 1.410 . S
C1071 C1079 1.503 . S
C1072 C1071 1.410 . S
C1072 C1073 1.392 . S
C1072 C1075 1.511 . S
C1073 C1069 1.376 . S
C1073 C1072 1.392 . S
C1073 H1085 0.929 . S
C1074 C1070 1.531 . S
C1074 H1086 0.960 . S
C1074 H1087 0.962 . S
C1074 H1088 0.960 . S
C1075 C1072 1.511 . S
C1075 H1089 0.961 . S
C1075 H1090 0.961 . S
C1075 H1091 0.961 . S
C1076 C1077 1.370 . S
C1076 C1078 1.363 . S
C1076 H1092 0.931 . S
C1077 C1076 1.370 . S
C1077 C1081 1.408 1_556 S
C1078 C1076 1.363 . S
C1078 C1079 1.370 . S
C1078 C1082 1.524 . S
C1079 C1071 1.503 . S
C1079 C1078 1.370 . S
C1079 C1080 1.403 1_556 S
C1080 C1079 1.403 1_554 S
C1080 C1081 1.404 . S
C1080 C1083 1.539 . S
C1081 C1077 1.408 1_554 S
C1081 C1080 1.404 . S
C1081 H1093 0.930 . S
C1082 C1078 1.524 . S
C1082 H1094 0.956 . S
C1082 H1095 0.961 . S
C1082 H1096 0.961 . S
C1083 C1080 1.539 . S
C1083 H1097 0.958 . S
C1083 H1098 0.961 . S
C1083 H1099 0.960 . S
H1084 C1068 0.931 . S
H1085 C1073 0.929 . S
H1086 C1074 0.960 . S
H1087 C1074 0.962 . S
H1088 C1074 0.960 . S
H1089 C1075 0.961 . S
H1090 C1075 0.961 . S
H1091 C1075 0.961 . S
H1092 C1076 0.931 . S
H1093 C1081 0.930 . S
H1094 C1082 0.956 . S
H1095 C1082 0.961 . S
H1096 C1082 0.961 . S
H1097 C1083 0.958 . S
H1098 C1083 0.961 . S
H1099 C1083 0.960 . S
C1100 C1101 1.391 . S
C1100 C1102 1.394 . S
C1100 H1116 0.931 . S
C1101 C1100 1.391 . S
C1101 C1105 1.376 . S
C1102 C1100 1.394 . S
C1102 C1103 1.369 . S
C1102 C1106 1.531 . S
C1103 C1102 1.369 . S
C1103 C1104 1.410 . S
C1103 C1111 1.503 . S
C1104 C1103 1.410 . S
C1104 C1105 1.392 . S
C1104 C1107 1.511 . S
C1105 C1101 1.376 . S
C1105 C1104 1.392 . S
C1105 H1117 0.929 . S
C1106 C1102 1.531 . S
C1106 H1118 0.960 . S
C1106 H1119 1.010 . S
C1106 H1120 0.960 . S
C1107 C1104 1.511 . S
C1107 H1121 0.961 . S
C1107 H1122 0.961 . S
C1107 H1123 0.961 . S
C1108 C1109 1.370 1_554 S
C1108 C1110 1.363 1_554 S
C1108 H1124 0.931 . S
C1109 C1108 1.370 1_556 S
C1109 C1113 1.408 . S
C1110 C1108 1.363 1_556 S
C1110 C1111 1.370 . S
C1110 C1114 1.524 1_556 S
C1111 C1103 1.503 . S
C1111 C1110 1.370 . S
C1111 C1112 1.403 . S
C1112 C1111 1.403 . S
C1112 C1113 1.404 . S
C1112 C1115 1.539 . S
C1113 C1109 1.408 . S
C1113 C1112 1.404 . S
C1113 H1125 0.930 . S
C1114 C1110 1.524 1_554 S
C1114 H1126 0.956 . S
C1114 H1127 0.985 . S
C1114 H1128 0.961 . S
C1115 C1112 1.539 . S
C1115 H1129 0.958 . S
C1115 H1130 0.961 . S
C1115 H1131 0.960 . S
H1116 C1100 0.931 . S
H1117 C1105 0.929 . S
H1118 C1106 0.960 . S
H1119 C1106 1.010 . S
H1120 C1106 0.960 . S
H1121 C1107 0.961 . S
H1122 C1107 0.961 . S
H1123 C1107 0.961 . S
H1124 C1108 0.931 . S
H1125 C1113 0.930 . S
H1126 C1114 0.956 . S
H1127 C1114 0.985 . S
H1128 C1114 0.961 . S
H1129 C1115 0.958 . S
H1130 C1115 0.961 . S
H1131 C1115 0.960 . S
C1132 C1133 1.391 . S
C1132 C1134 1.394 . S
C1132 H1148 0.931 . S
C1133 C1132 1.391 . S
C1133 C1137 1.376 . S
C1134 C1132 1.394 . S
C1134 C1135 1.369 . S
C1134 C1138 1.531 1_556 S
C1135 C1134 1.369 . S
C1135 C1136 1.410 . S
C1135 C1143 1.503 . S
C1136 C1135 1.410 . S
C1136 C1137 1.392 . S
C1136 C1139 1.511 . S
C1137 C1133 1.376 . S
C1137 C1136 1.392 . S
C1137 H1149 0.929 . S
C1138 C1134 1.531 1_554 S
C1138 H1150 0.960 . S
C1138 H1151 0.962 . S
C1138 H1152 0.960 . S
C1139 C1136 1.511 . S
C1139 H1153 0.961 . S
C1139 H1154 0.961 . S
C1139 H1155 0.961 . S
C1140 C1141 1.370 . S
C1140 C1142 1.363 . S
C1140 H1156 0.931 1_556 S
C1141 C1140 1.370 . S
C1141 C1145 1.408 . S
C1142 C1140 1.363 . S
C1142 C1143 1.370 . S
C1142 C1146 1.524 . S
C1143 C1135 1.503 . S
C1143 C1142 1.370 . S
C1143 C1144 1.403 . S
C1144 C1143 1.403 . S
C1144 C1145 1.404 . S
C1144 C1147 1.539 . S
C1145 C1141 1.408 . S
C1145 C1144 1.404 . S
C1145 H1157 0.930 . S
C1146 C1142 1.524 . S
C1146 H1158 0.956 1_556 S
C1146 H1159 0.961 . S
C1146 H1160 0.961 1_556 S
C1147 C1144 1.539 . S
C1147 H1161 0.958 . S
C1147 H1162 0.961 . S
C1147 H1163 0.960 . S
H1148 C1132 0.931 . S
H1149 C1137 0.929 . S
H1150 C1138 0.960 . S
H1151 C1138 0.962 . S
H1152 C1138 0.960 . S
H1153 C1139 0.961 . S
H1154 C1139 0.961 . S
H1155 C1139 0.961 . S
H1156 C1140 0.931 1_554 S
H1157 C1145 0.930 . S
H1158 C1146 0.956 1_554 S
H1159 C1146 0.961 . S
H1160 C1146 0.961 1_554 S
H1161 C1147 0.958 . S
H1162 C1147 0.961 . S
H1163 C1147 0.960 . S
C1164 C1165 1.391 . S
C1164 C1166 1.394 . S
C1164 H1180 0.931 . S
C1165 C1164 1.391 . S
C1165 C1169 1.376 . S
C1166 C1164 1.394 . S
C1166 C1167 1.369 . S
C1166 C1170 1.531 . S
C1167 C1166 1.369 . S
C1167 C1168 1.410 . S
C1167 C1175 1.503 . S
C1168 C1167 1.410 . S
C1168 C1169 1.392 . S
C1168 C1171 1.511 . S
C1169 C1165 1.376 . S
C1169 C1168 1.392 . S
C1169 H1181 0.929 . S
C1170 C1166 1.531 . S
C1170 H1182 0.960 . S
C1170 H1183 0.962 . S
C1170 H1184 0.960 . S
C1171 C1168 1.511 . S
C1171 H1185 0.961 . S
C1171 H1186 0.961 . S
C1171 H1187 0.961 . S
C1172 C1173 1.370 1_554 S
C1172 C1174 1.363 . S
C1172 H1188 0.931 . S
C1173 C1172 1.370 1_556 S
C1173 C1177 1.408 . S
C1174 C1172 1.363 . S
C1174 C1175 1.370 1_554 S
C1174 C1178 1.524 . S
C1175 C1167 1.503 . S
C1175 C1174 1.370 1_556 S
C1175 C1176 1.403 . S
C1176 C1175 1.403 . S
C1176 C1177 1.404 . S
C1176 C1179 1.539 . S
C1177 C1173 1.408 . S
C1177 C1176 1.404 . S
C1177 H1189 0.930 . S
C1178 C1174 1.524 . S
C1178 H1190 0.956 . S
C1178 H1191 0.961 . S
C1178 H1192 0.961 . S
C1179 C1176 1.539 . S
C1179 H1193 0.958 . S
C1179 H1194 0.961 . S
C1179 H1195 0.960 . S
H1180 C1164 0.931 . S
H1181 C1169 0.929 . S
H1182 C1170 0.960 . S
H1183 C1170 0.962 . S
H1184 C1170 0.960 . S
H1185 C1171 0.961 . S
H1186 C1171 0.961 . S
H1187 C1171 0.961 . S
H1188 C1172 0.931 . S
H1189 C1177 0.930 . S
H1190 C1178 0.956 . S
H1191 C1178 0.961 . S
H1192 C1178 0.961 . S
H1193 C1179 0.958 . S
H1194 C1179 0.961 . S
H1195 C1179 0.960 . S
C1196 C1197 1.391 . S
C1196 C1198 1.394 . S
C1196 H1212 0.931 . S
C1197 C1196 1.391 . S
C1197 C1201 1.376 . S
C1198 C1196 1.394 . S
C1198 C1199 1.369 . S
C1198 C1202 1.531 1_556 S
C1199 C1198 1.369 . S
C1199 C1200 1.410 . S
C1199 C1207 1.503 . S
C1200 C1199 1.410 . S
C1200 C1201 1.392 . S
C1200 C1203 1.511 . S
C1201 C1197 1.376 . S
C1201 C1200 1.392 . S
C1201 H1213 0.929 . S
C1202 C1198 1.531 1_554 S
C1202 H1214 0.960 . S
C1202 H1215 0.962 . S
C1202 H1216 0.960 . S
C1203 C1200 1.511 . S
C1203 H1217 0.961 . S
C1203 H1218 0.961 . S
C1203 H1219 0.961 . S
C1204 C1205 1.370 . S
C1204 C1206 1.363 . S
C1204 H1220 0.931 . S
C1205 C1204 1.370 . S
C1205 C1209 1.408 . S
C1206 C1204 1.363 . S
C1206 C1207 1.370 . S
C1206 C1210 1.524 . S
C1207 C1199 1.503 . S
C1207 C1206 1.370 . S
C1207 C1208 1.403 . S
C1208 C1207 1.403 . S
C1208 C1209 1.404 . S
C1208 C1211 1.539 . S
C1209 C1205 1.408 . S
C1209 C1208 1.404 . S
C1209 H1221 0.930 . S
C1210 C1206 1.524 . S
C1210 H1222 0.956 . S
C1210 H1223 0.961 . S
C1210 H1224 0.961 . S
C1211 C1208 1.539 . S
C1211 H1225 0.958 1_556 S
C1211 H1226 0.961 . S
C1211 H1227 0.960 . S
H1212 C1196 0.931 . S
H1213 C1201 0.929 . S
H1214 C1202 0.960 . S
H1215 C1202 0.962 . S
H1216 C1202 0.960 . S
H1217 C1203 0.961 . S
H1218 C1203 0.961 . S
H1219 C1203 0.961 . S
H1220 C1204 0.931 . S
H1221 C1209 0.930 . S
H1222 C1210 0.956 . S
H1223 C1210 0.961 . S
H1224 C1210 0.961 . S
H1225 C1211 0.958 1_554 S
H1226 C1211 0.961 . S
H1227 C1211 0.960 . S
C1228 C1229 1.391 . S
C1228 C1230 1.394 . S
C1228 H1244 0.931 . S
C1229 C1228 1.391 . S
C1229 C1233 1.376 . S
C1230 C1228 1.394 . S
C1230 C1231 1.369 . S
C1230 C1234 1.531 . S
C1231 C1230 1.369 . S
C1231 C1232 1.410 . S
C1231 C1239 1.503 . S
C1232 C1231 1.410 . S
C1232 C1233 1.392 . S
C1232 C1235 1.511 1_556 S
C1233 C1229 1.376 . S
C1233 C1232 1.392 . S
C1233 H1245 0.929 1_556 S
C1234 C1230 1.531 . S
C1234 H1246 0.960 . S
C1234 H1247 0.962 . S
C1234 H1248 0.960 . S
C1235 C1232 1.511 1_554 S
C1235 H1249 0.961 . S
C1235 H1250 0.961 . S
C1235 H1251 0.961 . S
C1236 C1237 1.370 . S
C1236 C1238 1.363 . S
C1236 H1252 0.931 . S
C1237 C1236 1.370 . S
C1237 C1241 1.400 1_556 S
C1238 C1236 1.363 . S
C1238 C1239 1.370 . S
C1238 C1242 1.524 . S
C1239 C1231 1.503 . S
C1239 C1238 1.370 . S
C1239 C1240 1.403 . S
C1240 C1239 1.403 . S
C1240 C1241 1.395 1_556 S
C1240 C1243 1.539 1_556 S
C1241 C1237 1.400 1_554 S
C1241 C1240 1.395 1_554 S
C1241 H1253 0.949 . S
C1242 C1238 1.524 . S
C1242 H1254 0.956 . S
C1242 H1255 0.961 . S
C1242 H1256 0.961 . S
C1243 C1240 1.539 1_554 S
C1243 H1257 0.958 1_554 S
C1243 H1258 0.961 . S
C1243 H1259 0.960 . S
H1244 C1228 0.931 . S
H1245 C1233 0.929 1_554 S
H1246 C1234 0.960 . S
H1247 C1234 0.962 . S
H1248 C1234 0.960 . S
H1249 C1235 0.961 . S
H1250 C1235 0.961 . S
H1251 C1235 0.961 . S
H1252 C1236 0.931 . S
H1253 C1241 0.949 . S
H1254 C1242 0.956 . S
H1255 C1242 0.961 . S
H1256 C1242 0.961 . S
H1257 C1243 0.958 1_556 S
H1258 C1243 0.961 . S
H1259 C1243 0.960 . S
C1260 C1261 1.391 . S
C1260 C1262 1.394 . S
C1260 H1276 0.931 . S
C1261 C1260 1.391 . S
C1261 C1265 1.376 . S
C1262 C1260 1.394 . S
C1262 C1263 1.369 . S
C1262 C1266 1.531 . S
C1263 C1262 1.369 . S
C1263 C1264 1.410 . S
C1263 C1271 1.503 . S
C1264 C1263 1.410 . S
C1264 C1265 1.392 . S
C1264 C1267 1.511 . S
C1265 C1261 1.376 . S
C1265 C1264 1.392 . S
C1265 H1277 0.929 . S
C1266 C1262 1.531 . S
C1266 H1278 0.960 . S
C1266 H1279 0.962 . S
C1266 H1280 0.960 . S
C1267 C1264 1.511 . S
C1267 H1281 0.961 . S
C1267 H1282 0.961 . S
C1267 H1283 0.961 1_554 S
C1268 C1269 1.370 . S
C1268 C1270 1.363 . S
C1268 H1284 0.931 . S
C1269 C1268 1.370 . S
C1269 C1273 1.408 . S
C1270 C1268 1.363 . S
C1270 C1271 1.370 . S
C1270 C1274 1.524 . S
C1271 C1263 1.503 . S
C1271 C1270 1.370 . S
C1271 C1272 1.403 . S
C1272 C1271 1.403 . S
C1272 C1273 1.404 . S
C1272 C1275 1.539 . S
C1273 C1269 1.408 . S
C1273 C1272 1.404 . S
C1273 H1285 0.930 . S
C1274 C1270 1.524 . S
C1274 H1286 0.956 . S
C1274 H1287 0.961 . S
C1274 H1288 0.961 . S
C1275 C1272 1.539 . S
C1275 H1289 0.958 . S
C1275 H1290 0.961 1_554 S
C1275 H1291 0.960 . S
H1276 C1260 0.931 . S
H1277 C1265 0.929 . S
H1278 C1266 0.960 . S
H1279 C1266 0.962 . S
H1280 C1266 0.960 . S
H1281 C1267 0.961 . S
H1282 C1267 0.961 . S
H1283 C1267 0.961 1_556 S
H1284 C1268 0.931 . S
H1285 C1273 0.930 . S
H1286 C1274 0.956 . S
H1287 C1274 0.961 . S
H1288 C1274 0.961 . S
H1289 C1275 0.958 . S
H1290 C1275 0.961 1_556 S
H1291 C1275 0.960 . S
C1292 C1293 1.391 . S
C1292 C1294 1.394 . S
C1292 H1308 0.931 . S
C1293 C1292 1.391 . S
C1293 C1297 1.376 . S
C1294 C1292 1.394 . S
C1294 C1295 1.369 . S
C1294 C1298 1.531 . S
C1295 C1294 1.369 . S
C1295 C1296 1.410 . S
C1295 C1303 1.503 . S
C1296 C1295 1.410 . S
C1296 C1297 1.392 . S
C1296 C1299 1.511 . S
C1297 C1293 1.376 . S
C1297 C1296 1.392 . S
C1297 H1309 0.929 . S
C1298 C1294 1.531 . S
C1298 H1310 0.960 . S
C1298 H1311 0.962 . S
C1298 H1312 0.960 . S
C1299 C1296 1.511 . S
C1299 H1313 0.961 . S
C1299 H1314 0.961 . S
C1299 H1315 0.961 . S
C1300 C1301 1.370 . S
C1300 C1302 1.363 . S
C1300 H1316 0.931 . S
C1301 C1300 1.370 . S
C1301 C1305 1.408 . S
C1302 C1300 1.363 . S
C1302 C1303 1.370 . S
C1302 C1306 1.524 . S
C1303 C1295 1.503 . S
C1303 C1302 1.370 . S
C1303 C1304 1.403 . S
C1304 C1303 1.403 . S
C1304 C1305 1.404 . S
C1304 C1307 1.539 . S
C1305 C1301 1.408 . S
C1305 C1304 1.404 . S
C1305 H1317 0.930 . S
C1306 C1302 1.524 . S
C1306 H1318 0.956 . S
C1306 H1319 0.961 . S
C1306 H1320 0.961 1_554 S
C1307 C1304 1.539 . S
C1307 H1321 0.958 . S
C1307 H1322 0.961 . S
C1307 H1323 0.960 . S
H1308 C1292 0.931 . S
H1309 C1297 0.929 . S
H1310 C1298 0.960 . S
H1311 C1298 0.962 . S
H1312 C1298 0.960 . S
H1313 C1299 0.961 . S
H1314 C1299 0.961 . S
H1315 C1299 0.961 . S
H1316 C1300 0.931 . S
H1317 C1305 0.930 . S
H1318 C1306 0.956 . S
H1319 C1306 0.961 . S
H1320 C1306 0.961 1_556 S
H1321 C1307 0.958 . S
H1322 C1307 0.961 . S
H1323 C1307 0.960 . S
C1324 C1325 1.391 . S
C1324 C1326 1.394 . S
C1324 H1340 0.931 . S
C1325 C1324 1.391 . S
C1325 C1329 1.376 . S
C1326 C1324 1.394 . S
C1326 C1327 1.369 . S
C1326 C1330 1.531 . S
C1327 C1326 1.369 . S
C1327 C1328 1.410 . S
C1327 C1335 1.503 . S
C1328 C1327 1.410 . S
C1328 C1329 1.392 . S
C1328 C1331 1.511 . S
C1329 C1325 1.376 . S
C1329 C1328 1.392 . S
C1329 H1341 0.929 . S
C1330 C1326 1.531 . S
C1330 H1342 0.960 . S
C1330 H1343 0.962 1_554 S
C1330 H1344 0.960 1_554 S
C1331 C1328 1.511 . S
C1331 H1345 0.961 . S
C1331 H1346 0.961 . S
C1331 H1347 0.961 . S
C1332 C1333 1.370 . S
C1332 C1334 1.363 . S
C1332 H1348 0.931 . S
C1333 C1332 1.370 . S
C1333 C1337 1.408 . S
C1334 C1332 1.363 . S
C1334 C1335 1.370 . S
C1334 C1338 1.524 . S
C1335 C1327 1.503 . S
C1335 C1334 1.370 . S
C1335 C1336 1.403 . S
C1336 C1335 1.403 . S
C1336 C1337 1.404 . S
C1336 C1339 1.539 . S
C1337 C1333 1.408 . S
C1337 C1336 1.404 . S
C1337 H1349 0.930 . S
C1338 C1334 1.524 . S
C1338 H1350 0.956 . S
C1338 H1351 0.961 . S
C1338 H1352 0.961 . S
C1339 C1336 1.539 . S
C1339 H1353 0.958 . S
C1339 H1354 0.961 . S
C1339 H1355 0.960 . S
H1340 C1324 0.931 . S
H1341 C1329 0.929 . S
H1342 C1330 0.960 . S
H1343 C1330 0.962 1_556 S
H1344 C1330 0.960 1_556 S
H1345 C1331 0.961 . S
H1346 C1331 0.961 . S
H1347 C1331 0.961 . S
H1348 C1332 0.931 . S
H1349 C1337 0.930 . S
H1350 C1338 0.956 . S
H1351 C1338 0.961 . S
H1352 C1338 0.961 . S
H1353 C1339 0.958 . S
H1354 C1339 0.961 . S
H1355 C1339 0.960 . S
C1356 C1357 1.391 . S
C1356 C1358 1.394 . S
C1356 H1372 0.931 . S
C1357 C1356 1.391 . S
C1357 C1361 1.376 . S
C1358 C1356 1.394 . S
C1358 C1359 1.369 . S
C1358 C1362 1.531 1_655 S
C1359 C1358 1.369 . S
C1359 C1360 1.410 . S
C1359 C1367 1.503 1_655 S
C1360 C1359 1.410 . S
C1360 C1361 1.392 . S
C1360 C1363 1.511 . S
C1361 C1357 1.376 . S
C1361 C1360 1.392 . S
C1361 H1373 0.929 . S
C1362 C1358 1.531 1_455 S
C1362 H1374 0.960 . S
C1362 H1375 0.962 . S
C1362 H1376 0.960 1_455 S
C1363 C1360 1.511 . S
C1363 H1377 0.961 . S
C1363 H1378 0.961 . S
C1363 H1379 0.961 . S
C1364 C1365 1.370 . S
C1364 C1366 1.363 . S
C1364 H1380 0.931 . S
C1365 C1364 1.370 . S
C1365 C1369 1.408 . S
C1366 C1364 1.363 . S
C1366 C1367 1.370 . S
C1366 C1370 1.524 . S
C1367 C1359 1.503 1_455 S
C1367 C1366 1.370 . S
C1367 C1368 1.403 . S
C1368 C1367 1.403 . S
C1368 C1369 1.404 . S
C1368 C1371 1.539 1_455 S
C1369 C1365 1.408 . S
C1369 C1368 1.404 . S
C1369 H1381 0.930 . S
C1370 C1366 1.524 . S
C1370 H1382 0.956 . S
C1370 H1383 0.961 . S
C1370 H1384 0.961 . S
C1371 C1368 1.539 1_655 S
C1371 H1385 0.958 . S
C1371 H1386 0.961 . S
C1371 H1387 0.960 . S
H1372 C1356 0.931 . S
H1373 C1361 0.929 . S
H1374 C1362 0.960 . S
H1375 C1362 0.962 . S
H1376 C1362 0.960 1_655 S
H1377 C1363 0.961 . S
H1378 C1363 0.961 . S
H1379 C1363 0.961 . S
H1380 C1364 0.931 . S
H1381 C1369 0.930 . S
H1382 C1370 0.956 . S
H1383 C1370 0.961 . S
H1384 C1370 0.961 . S
H1385 C1371 0.958 . S
H1386 C1371 0.961 . S
H1387 C1371 0.960 . S
C1388 C1389 1.391 . S
C1388 C1390 1.394 . S
C1388 H1404 0.931 . S
C1389 C1388 1.391 . S
C1389 C1393 1.376 . S
C1390 C1388 1.394 . S
C1390 C1391 1.369 . S
C1390 C1394 1.531 . S
C1391 C1390 1.369 . S
C1391 C1392 1.410 . S
C1391 C1399 1.503 . S
C1392 C1391 1.410 . S
C1392 C1393 1.392 . S
C1392 C1395 1.511 . S
C1393 C1389 1.376 . S
C1393 C1392 1.392 . S
C1393 H1405 0.929 . S
C1394 C1390 1.531 . S
C1394 H1406 0.960 . S
C1394 H1407 0.962 . S
C1394 H1408 0.960 . S
C1395 C1392 1.511 . S
C1395 H1409 0.961 . S
C1395 H1410 0.961 . S
C1395 H1411 0.961 . S
C1396 C1397 1.370 . S
C1396 C1398 1.363 . S
C1396 H1412 0.931 . S
C1397 C1396 1.370 . S
C1397 C1401 1.408 . S
C1398 C1396 1.363 . S
C1398 C1399 1.370 . S
C1398 C1402 1.524 . S
C1399 C1391 1.503 . S
C1399 C1398 1.370 . S
C1399 C1400 1.403 . S
C1400 C1399 1.403 . S
C1400 C1401 1.404 . S
C1400 C1403 1.539 . S
C1401 C1397 1.408 . S
C1401 C1400 1.404 . S
C1401 H1413 0.930 . S
C1402 C1398 1.524 . S
C1402 H1414 0.956 . S
C1402 H1415 0.961 . S
C1402 H1416 0.961 . S
C1403 C1400 1.539 . S
C1403 H1417 0.958 . S
C1403 H1418 0.961 . S
C1403 H1419 0.960 . S
H1404 C1388 0.931 . S
H1405 C1393 0.929 . S
H1406 C1394 0.960 . S
H1407 C1394 0.962 . S
H1408 C1394 0.960 . S
H1409 C1395 0.961 . S
H1410 C1395 0.961 . S
H1411 C1395 0.961 . S
H1412 C1396 0.931 . S
H1413 C1401 0.930 . S
H1414 C1402 0.956 . S
H1415 C1402 0.961 . S
H1416 C1402 0.961 . S
H1417 C1403 0.958 . S
H1418 C1403 0.961 . S
H1419 C1403 0.960 . S
C1420 C1421 1.391 . S
C1420 C1422 1.394 . S
C1420 H1436 0.931 . S
C1421 C1420 1.391 . S
C1421 C1425 1.376 . S
C1422 C1420 1.394 . S
C1422 C1423 1.369 . S
C1422 C1426 1.531 . S
C1423 C1422 1.369 . S
C1423 C1424 1.410 . S
C1423 C1431 1.503 1_545 S
C1424 C1423 1.410 . S
C1424 C1425 1.392 . S
C1424 C1427 1.511 1_545 S
C1425 C1421 1.376 . S
C1425 C1424 1.392 . S
C1425 H1437 0.929 . S
C1426 C1422 1.531 . S
C1426 H1438 0.960 . S
C1426 H1439 0.962 . S
C1426 H1440 0.960 . S
C1427 C1424 1.511 1_565 S
C1427 H1441 0.961 . S
C1427 H1442 0.961 . S
C1427 H1443 0.961 . S
C1428 C1429 1.370 . S
C1428 C1430 1.363 . S
C1428 H1444 0.931 . S
C1429 C1428 1.370 . S
C1429 C1433 1.408 . S
C1430 C1428 1.363 . S
C1430 C1431 1.370 . S
C1430 C1434 1.524 1_565 S
C1431 C1423 1.503 1_565 S
C1431 C1430 1.370 . S
C1431 C1432 1.403 . S
C1432 C1431 1.403 . S
C1432 C1433 1.404 . S
C1432 C1435 1.539 . S
C1433 C1429 1.408 . S
C1433 C1432 1.404 . S
C1433 H1445 0.930 . S
C1434 C1430 1.524 1_545 S
C1434 H1446 0.956 . S
C1434 H1447 0.961 . S
C1434 H1448 0.961 1_545 S
C1435 C1432 1.539 . S
C1435 H1449 0.958 . S
C1435 H1450 0.961 . S
C1435 H1451 0.960 . S
H1436 C1420 0.931 . S
H1437 C1425 0.929 . S
H1438 C1426 0.960 . S
H1439 C1426 0.962 . S
H1440 C1426 0.960 . S
H1441 C1427 0.961 . S
H1442 C1427 0.961 . S
H1443 C1427 0.961 . S
H1444 C1428 0.931 . S
H1445 C1433 0.930 . S
H1446 C1434 0.956 . S
H1447 C1434 0.961 . S
H1448 C1434 0.961 1_565 S
H1449 C1435 0.958 . S
H1450 C1435 0.961 . S
H1451 C1435 0.960 . S
C1452 C1453 1.391 . S
C1452 C1454 1.394 . S
C1452 H1468 0.931 . S
C1453 C1452 1.391 . S
C1453 C1457 1.376 . S
C1454 C1452 1.394 . S
C1454 C1455 1.369 . S
C1454 C1458 1.531 . S
C1455 C1454 1.369 . S
C1455 C1456 1.410 . S
C1455 C1463 1.503 . S
C1456 C1455 1.410 . S
C1456 C1457 1.392 . S
C1456 C1459 1.511 . S
C1457 C1453 1.376 . S
C1457 C1456 1.392 . S
C1457 H1469 0.929 . S
C1458 C1454 1.531 . S
C1458 H1470 0.960 . S
C1458 H1471 0.962 . S
C1458 H1472 0.960 . S
C1459 C1456 1.511 . S
C1459 H1473 0.961 . S
C1459 H1474 0.961 . S
C1459 H1475 0.961 . S
C1460 C1461 1.370 . S
C1460 C1462 1.363 . S
C1460 H1476 0.931 . S
C1461 C1460 1.370 . S
C1461 C1465 1.408 . S
C1462 C1460 1.363 . S
C1462 C1463 1.370 . S
C1462 C1466 1.524 . S
C1463 C1455 1.503 . S
C1463 C1462 1.370 . S
C1463 C1464 1.403 . S
C1464 C1463 1.403 . S
C1464 C1465 1.404 . S
C1464 C1467 1.539 . S
C1465 C1461 1.408 . S
C1465 C1464 1.404 . S
C1465 H1477 0.930 . S
C1466 C1462 1.524 . S
C1466 H1478 0.956 . S
C1466 H1479 0.961 . S
C1466 H1480 0.961 . S
C1467 C1464 1.539 . S
C1467 H1481 0.958 . S
C1467 H1482 0.961 . S
C1467 H1483 0.960 . S
H1468 C1452 0.931 . S
H1469 C1457 0.929 . S
H1470 C1458 0.960 . S
H1471 C1458 0.962 . S
H1472 C1458 0.960 . S
H1473 C1459 0.961 . S
H1474 C1459 0.961 . S
H1475 C1459 0.961 . S
H1476 C1460 0.931 . S
H1477 C1465 0.930 . S
H1478 C1466 0.956 . S
H1479 C1466 0.961 . S
H1480 C1466 0.961 . S
H1481 C1467 0.958 . S
H1482 C1467 0.961 . S
H1483 C1467 0.960 . S
C1484 C1485 1.391 . S
C1484 C1486 1.394 . S
C1484 H1500 0.931 . S
C1485 C1484 1.391 . S
C1485 C1489 1.376 . S
C1486 C1484 1.394 . S
C1486 C1487 1.369 . S
C1486 C1490 1.531 . S
C1487 C1486 1.369 . S
C1487 C1488 1.410 . S
C1487 C1495 1.503 . S
C1488 C1487 1.410 . S
C1488 C1489 1.392 . S
C1488 C1491 1.511 . S
C1489 C1485 1.376 . S
C1489 C1488 1.392 . S
C1489 H1501 0.929 . S
C1490 C1486 1.531 . S
C1490 H1502 0.960 . S
C1490 H1503 0.962 . S
C1490 H1504 0.960 . S
C1491 C1488 1.511 . S
C1491 H1505 0.961 . S
C1491 H1506 0.961 . S
C1491 H1507 0.961 . S
C1492 C1493 1.370 . S
C1492 C1494 1.363 . S
C1492 H1508 0.931 . S
C1493 C1492 1.370 . S
C1493 C1497 1.408 . S
C1494 C1492 1.363 . S
C1494 C1495 1.370 . S
C1494 C1498 1.524 . S
C1495 C1487 1.503 . S
C1495 C1494 1.370 . S
C1495 C1496 1.403 . S
C1496 C1495 1.403 . S
C1496 C1497 1.404 . S
C1496 C1499 1.539 . S
C1497 C1493 1.408 . S
C1497 C1496 1.404 . S
C1497 H1509 0.930 . S
C1498 C1494 1.524 . S
C1498 H1510 0.956 . S
C1498 H1511 0.961 . S
C1498 H1512 0.961 . S
C1499 C1496 1.539 . S
C1499 H1513 0.958 . S
C1499 H1514 0.961 . S
C1499 H1515 0.960 . S
H1500 C1484 0.931 . S
H1501 C1489 0.929 . S
H1502 C1490 0.960 . S
H1503 C1490 0.962 . S
H1504 C1490 0.960 . S
H1505 C1491 0.961 . S
H1506 C1491 0.961 . S
H1507 C1491 0.961 . S
H1508 C1492 0.931 . S
H1509 C1497 0.930 . S
H1510 C1498 0.956 . S
H1511 C1498 0.961 . S
H1512 C1498 0.961 . S
H1513 C1499 0.958 . S
H1514 C1499 0.961 . S
H1515 C1499 0.960 . S
C1516 C1517 1.391 . S
C1516 C1518 1.394 . S
C1516 H1532 0.931 . S
C1517 C1516 1.391 . S
C1517 C1521 1.376 . S
C1518 C1516 1.394 . S
C1518 C1519 1.369 . S
C1518 C1522 1.531 . S
C1519 C1518 1.369 . S
C1519 C1520 1.410 . S
C1519 C1527 1.503 . S
C1520 C1519 1.410 . S
C1520 C1521 1.392 . S
C1520 C1523 1.511 . S
C1521 C1517 1.376 . S
C1521 C1520 1.392 . S
C1521 H1533 0.929 . S
C1522 C1518 1.531 . S
C1522 H1534 0.960 . S
C1522 H1535 0.962 . S
C1522 H1536 0.960 . S
C1523 C1520 1.511 . S
C1523 H1537 0.961 . S
C1523 H1538 0.961 . S
C1523 H1539 0.961 . S
C1524 C1525 1.370 . S
C1524 C1526 1.363 . S
C1524 H1540 0.931 . S
C1525 C1524 1.370 . S
C1525 C1529 1.408 . S
C1526 C1524 1.363 . S
C1526 C1527 1.370 . S
C1526 C1530 1.524 . S
C1527 C1519 1.503 . S
C1527 C1526 1.370 . S
C1527 C1528 1.403 . S
C1528 C1527 1.403 . S
C1528 C1529 1.404 . S
C1528 C1531 1.539 . S
C1529 C1525 1.408 . S
C1529 C1528 1.404 . S
C1529 H1541 0.930 . S
C1530 C1526 1.524 . S
C1530 H1542 0.956 . S
C1530 H1543 0.961 . S
C1530 H1544 0.961 . S
C1531 C1528 1.539 . S
C1531 H1545 0.958 . S
C1531 H1546 0.961 . S
C1531 H1547 0.960 . S
H1532 C1516 0.931 . S
H1533 C1521 0.929 . S
H1534 C1522 0.960 . S
H1535 C1522 0.962 . S
H1536 C1522 0.960 . S
H1537 C1523 0.961 . S
H1538 C1523 0.961 . S
H1539 C1523 0.961 . S
H1540 C1524 0.931 . S
H1541 C1529 0.930 . S
H1542 C1530 0.956 . S
H1543 C1530 0.961 . S
H1544 C1530 0.961 . S
H1545 C1531 0.958 . S
H1546 C1531 0.961 . S
H1547 C1531 0.960 . S
C1548 C1549 1.391 . S
C1548 C1550 1.394 . S
C1548 H1564 0.931 . S
C1549 C1548 1.391 . S
C1549 C1553 1.376 . S
C1550 C1548 1.394 . S
C1550 C1551 1.369 . S
C1550 C1554 1.531 . S
C1551 C1550 1.369 . S
C1551 C1552 1.410 . S
C1551 C1559 1.503 . S
C1552 C1551 1.410 . S
C1552 C1553 1.392 . S
C1552 C1555 1.511 . S
C1553 C1549 1.376 . S
C1553 C1552 1.392 . S
C1553 H1565 0.929 . S
C1554 C1550 1.531 . S
C1554 H1566 0.960 . S
C1554 H1567 0.962 . S
C1554 H1568 0.960 . S
C1555 C1552 1.511 . S
C1555 H1569 0.961 . S
C1555 H1570 0.961 . S
C1555 H1571 0.961 . S
C1556 C1557 1.370 . S
C1556 C1558 1.363 . S
C1556 H1572 0.931 . S
C1557 C1556 1.370 . S
C1557 C1561 1.408 . S
C1558 C1556 1.363 . S
C1558 C1559 1.370 . S
C1558 C1562 1.524 . S
C1559 C1551 1.503 . S
C1559 C1558 1.370 . S
C1559 C1560 1.403 . S
C1560 C1559 1.403 . S
C1560 C1561 1.404 . S
C1560 C1563 1.539 . S
C1561 C1557 1.408 . S
C1561 C1560 1.404 . S
C1561 H1573 0.930 . S
C1562 C1558 1.524 . S
C1562 H1574 0.956 . S
C1562 H1575 0.961 . S
C1562 H1576 0.961 . S
C1563 C1560 1.539 . S
C1563 H1577 0.958 . S
C1563 H1578 0.961 . S
C1563 H1579 0.960 . S
H1564 C1548 0.931 . S
H1565 C1553 0.929 . S
H1566 C1554 0.960 . S
H1567 C1554 0.962 . S
H1568 C1554 0.960 . S
H1569 C1555 0.961 . S
H1570 C1555 0.961 . S
H1571 C1555 0.961 . S
H1572 C1556 0.931 . S
H1573 C1561 0.930 . S
H1574 C1562 0.956 . S
H1575 C1562 0.961 . S
H1576 C1562 0.961 . S
H1577 C1563 0.958 . S
H1578 C1563 0.961 . S
H1579 C1563 0.960 . S
C1580 C1581 1.391 . S
C1580 C1582 1.394 . S
C1580 H1596 0.931 . S
C1581 C1580 1.391 . S
C1581 C1585 1.376 . S
C1582 C1580 1.394 . S
C1582 C1583 1.369 . S
C1582 C1586 1.531 . S
C1583 C1582 1.369 . S
C1583 C1584 1.410 . S
C1583 C1591 1.503 . S
C1584 C1583 1.410 . S
C1584 C1585 1.392 . S
C1584 C1587 1.511 . S
C1585 C1581 1.376 . S
C1585 C1584 1.392 . S
C1585 H1597 0.929 . S
C1586 C1582 1.531 . S
C1586 H1598 0.960 . S
C1586 H1599 0.962 . S
C1586 H1600 0.960 . S
C1587 C1584 1.511 . S
C1587 H1601 0.961 . S
C1587 H1602 0.961 . S
C1587 H1603 0.961 . S
C1588 C1589 1.370 . S
C1588 C1590 1.363 . S
C1588 H1604 0.931 . S
C1589 C1588 1.370 . S
C1589 C1593 1.408 . S
C1590 C1588 1.363 . S
C1590 C1591 1.370 . S
C1590 C1594 1.524 . S
C1591 C1583 1.503 . S
C1591 C1590 1.370 . S
C1591 C1592 1.403 . S
C1592 C1591 1.403 . S
C1592 C1593 1.404 . S
C1592 C1595 1.539 . S
C1593 C1589 1.408 . S
C1593 C1592 1.404 . S
C1593 H1605 0.930 . S
C1594 C1590 1.524 . S
C1594 H1606 0.956 . S
C1594 H1607 0.961 . S
C1594 H1608 0.961 . S
C1595 C1592 1.539 . S
C1595 H1609 0.958 . S
C1595 H1610 0.961 . S
C1595 H1611 0.960 . S
H1596 C1580 0.931 . S
H1597 C1585 0.929 . S
H1598 C1586 0.960 . S
H1599 C1586 0.962 . S
H1600 C1586 0.960 . S
H1601 C1587 0.961 . S
H1602 C1587 0.961 . S
H1603 C1587 0.961 . S
H1604 C1588 0.931 . S
H1605 C1593 0.930 . S
H1606 C1594 0.956 . S
H1607 C1594 0.961 . S
H1608 C1594 0.961 . S
H1609 C1595 0.958 . S
H1610 C1595 0.961 . S
H1611 C1595 0.960 . S
C1612 C1613 1.391 . S
C1612 C1614 1.394 . S
C1612 H1628 0.931 . S
C1613 C1612 1.391 . S
C1613 C1617 1.376 . S
C1614 C1612 1.394 . S
C1614 C1615 1.369 . S
C1614 C1618 1.531 . S
C1615 C1614 1.369 . S
C1615 C1616 1.410 . S
C1615 C1623 1.503 . S
C1616 C1615 1.410 . S
C1616 C1617 1.392 . S
C1616 C1619 1.511 . S
C1617 C1613 1.376 . S
C1617 C1616 1.392 . S
C1617 H1629 0.929 . S
C1618 C1614 1.531 . S
C1618 H1630 0.960 . S
C1618 H1631 0.962 . S
C1618 H1632 0.960 . S
C1619 C1616 1.511 . S
C1619 H1633 0.961 . S
C1619 H1634 0.961 . S
C1619 H1635 0.961 . S
C1620 C1621 1.370 . S
C1620 C1622 1.363 . S
C1620 H1636 0.931 . S
C1621 C1620 1.370 . S
C1621 C1625 1.408 . S
C1622 C1620 1.363 . S
C1622 C1623 1.370 . S
C1622 C1626 1.524 . S
C1623 C1615 1.503 . S
C1623 C1622 1.370 . S
C1623 C1624 1.403 . S
C1624 C1623 1.403 . S
C1624 C1625 1.404 . S
C1624 C1627 1.539 . S
C1625 C1621 1.408 . S
C1625 C1624 1.404 . S
C1625 H1637 0.930 . S
C1626 C1622 1.524 . S
C1626 H1638 0.956 . S
C1626 H1639 0.961 . S
C1626 H1640 0.961 . S
C1627 C1624 1.539 . S
C1627 H1641 0.958 . S
C1627 H1642 0.961 . S
C1627 H1643 0.960 . S
H1628 C1612 0.931 . S
H1629 C1617 0.929 . S
H1630 C1618 0.960 . S
H1631 C1618 0.962 . S
H1632 C1618 0.960 . S
H1633 C1619 0.961 . S
H1634 C1619 0.961 . S
H1635 C1619 0.961 . S
H1636 C1620 0.931 . S
H1637 C1625 0.930 . S
H1638 C1626 0.956 . S
H1639 C1626 0.961 . S
H1640 C1626 0.961 . S
H1641 C1627 0.958 . S
H1642 C1627 0.961 . S
H1643 C1627 0.960 . S
C1644 C1645 1.385 1_565 S
C1644 C1646 1.398 . S
C1644 H1660 0.932 1_565 S
C1645 C1644 1.385 1_545 S
C1645 C1649 1.376 . S
C1646 C1644 1.398 . S
C1646 C1647 1.369 . S
C1646 C1650 1.531 . S
C1647 C1646 1.369 . S
C1647 C1648 1.410 . S
C1647 C1655 1.503 . S
C1648 C1647 1.410 . S
C1648 C1649 1.392 1_565 S
C1648 C1651 1.511 . S
C1649 C1645 1.376 . S
C1649 C1648 1.392 1_545 S
C1649 H1661 0.929 . S
C1650 C1646 1.531 . S
C1650 H1662 0.960 . S
C1650 H1663 0.962 . S
C1650 H1664 0.960 . S
C1651 C1648 1.511 . S
C1651 H1665 0.961 . S
C1651 H1666 0.961 . S
C1651 H1667 0.961 . S
C1652 C1653 1.370 . S
C1652 C1654 1.363 . S
C1652 H1668 0.931 . S
C1653 C1652 1.370 . S
C1653 C1657 1.408 . S
C1654 C1652 1.363 . S
C1654 C1655 1.370 . S
C1654 C1658 1.524 . S
C1655 C1647 1.503 . S
C1655 C1654 1.370 . S
C1655 C1656 1.403 . S
C1656 C1655 1.403 . S
C1656 C1657 1.404 . S
C1656 C1659 1.539 . S
C1657 C1653 1.408 . S
C1657 C1656 1.404 . S
C1657 H1669 0.930 . S
C1658 C1654 1.524 . S
C1658 H1670 0.956 . S
C1658 H1671 0.961 . S
C1658 H1672 0.961 . S
C1659 C1656 1.539 . S
C1659 H1673 0.958 . S
C1659 H1674 0.961 . S
C1659 H1675 0.960 . S
H1660 C1644 0.932 1_545 S
H1661 C1649 0.929 . S
H1662 C1650 0.960 . S
H1663 C1650 0.962 . S
H1664 C1650 0.960 . S
H1665 C1651 0.961 . S
H1666 C1651 0.961 . S
H1667 C1651 0.961 . S
H1668 C1652 0.931 . S
H1669 C1657 0.930 . S
H1670 C1658 0.956 . S
H1671 C1658 0.961 . S
H1672 C1658 0.961 . S
H1673 C1659 0.958 . S
H1674 C1659 0.961 . S
H1675 C1659 0.960 . S
C1676 C1677 1.391 1_455 S
C1676 C1678 1.394 . S
C1676 H1692 0.931 1_455 S
C1677 C1676 1.391 1_655 S
C1677 C1681 1.376 1_655 S
C1678 C1676 1.394 . S
C1678 C1679 1.369 . S
C1678 C1682 1.531 . S
C1679 C1678 1.369 . S
C1679 C1680 1.410 . S
C1679 C1687 1.503 . S
C1680 C1679 1.410 . S
C1680 C1681 1.392 . S
C1680 C1683 1.511 . S
C1681 C1677 1.376 1_455 S
C1681 C1680 1.392 . S
C1681 H1693 0.929 . S
C1682 C1678 1.531 . S
C1682 H1694 0.960 . S
C1682 H1695 0.962 . S
C1682 H1696 0.960 . S
C1683 C1680 1.511 . S
C1683 H1697 0.961 . S
C1683 H1698 0.961 . S
C1683 H1699 0.961 . S
C1684 C1685 1.370 . S
C1684 C1686 1.363 . S
C1684 H1700 0.931 . S
C1685 C1684 1.370 . S
C1685 C1689 1.408 . S
C1686 C1684 1.363 . S
C1686 C1687 1.370 . S
C1686 C1690 1.524 . S
C1687 C1679 1.503 . S
C1687 C1686 1.370 . S
C1687 C1688 1.403 . S
C1688 C1687 1.403 . S
C1688 C1689 1.404 . S
C1688 C1691 1.539 . S
C1689 C1685 1.408 . S
C1689 C1688 1.404 . S
C1689 H1701 0.930 . S
C1690 C1686 1.524 . S
C1690 H1702 0.956 . S
C1690 H1703 0.961 . S
C1690 H1704 0.961 . S
C1691 C1688 1.539 . S
C1691 H1705 0.958 . S
C1691 H1706 0.961 . S
C1691 H1707 0.960 . S
H1692 C1676 0.931 1_655 S
H1693 C1681 0.929 . S
H1694 C1682 0.960 . S
H1695 C1682 0.962 . S
H1696 C1682 0.960 . S
H1697 C1683 0.961 . S
H1698 C1683 0.961 . S
H1699 C1683 0.961 . S
H1700 C1684 0.931 . S
H1701 C1689 0.930 . S
H1702 C1690 0.956 . S
H1703 C1690 0.961 . S
H1704 C1690 0.961 . S
H1705 C1691 0.958 . S
H1706 C1691 0.961 . S
H1707 C1691 0.960 . S
C1708 C1709 1.391 . S
C1708 C1710 1.394 . S
C1708 H1724 0.931 . S
C1709 C1708 1.391 . S
C1709 C1713 1.376 . S
C1710 C1708 1.394 . S
C1710 C1711 1.369 . S
C1710 C1714 1.531 . S
C1711 C1710 1.369 . S
C1711 C1712 1.410 . S
C1711 C1719 1.503 . S
C1712 C1711 1.410 . S
C1712 C1713 1.392 . S
C1712 C1715 1.511 . S
C1713 C1709 1.376 . S
C1713 C1712 1.392 . S
C1713 H1725 0.929 . S
C1714 C1710 1.531 . S
C1714 H1726 0.960 . S
C1714 H1727 0.962 . S
C1714 H1728 0.960 . S
C1715 C1712 1.511 . S
C1715 H1729 0.961 . S
C1715 H1730 0.961 . S
C1715 H1731 0.961 . S
C1716 C1717 1.370 . S
C1716 C1718 1.363 . S
C1716 H1732 0.931 . S
C1717 C1716 1.370 . S
C1717 C1721 1.408 . S
C1718 C1716 1.363 . S
C1718 C1719 1.370 . S
C1718 C1722 1.524 . S
C1719 C1711 1.503 . S
C1719 C1718 1.370 . S
C1719 C1720 1.403 . S
C1720 C1719 1.403 . S
C1720 C1721 1.404 . S
C1720 C1723 1.539 . S
C1721 C1717 1.408 . S
C1721 C1720 1.404 . S
C1721 H1733 0.930 . S
C1722 C1718 1.524 . S
C1722 H1734 0.956 . S
C1722 H1735 0.961 . S
C1722 H1736 0.961 . S
C1723 C1720 1.539 . S
C1723 H1737 0.958 . S
C1723 H1738 0.961 . S
C1723 H1739 0.960 . S
H1724 C1708 0.931 . S
H1725 C1713 0.929 . S
H1726 C1714 0.960 . S
H1727 C1714 0.962 . S
H1728 C1714 0.960 . S
H1729 C1715 0.961 . S
H1730 C1715 0.961 . S
H1731 C1715 0.961 . S
H1732 C1716 0.931 . S
H1733 C1721 0.930 . S
H1734 C1722 0.956 . S
H1735 C1722 0.961 . S
H1736 C1722 0.961 . S
H1737 C1723 0.958 . S
H1738 C1723 0.961 . S
H1739 C1723 0.960 . S
C1740 C1741 1.391 . S
C1740 C1742 1.394 . S
C1740 H1756 0.931 . S
C1741 C1740 1.391 . S
C1741 C1745 1.376 . S
C1742 C1740 1.394 . S
C1742 C1743 1.369 . S
C1742 C1746 1.531 . S
C1743 C1742 1.369 . S
C1743 C1744 1.410 . S
C1743 C1751 1.503 . S
C1744 C1743 1.410 . S
C1744 C1745 1.392 . S
C1744 C1747 1.511 . S
C1745 C1741 1.376 . S
C1745 C1744 1.392 . S
C1745 H1757 0.929 . S
C1746 C1742 1.531 . S
C1746 H1758 0.960 . S
C1746 H1759 0.962 . S
C1746 H1760 0.960 . S
C1747 C1744 1.511 . S
C1747 H1761 0.961 . S
C1747 H1762 0.961 . S
C1747 H1763 0.961 . S
C1748 C1749 1.370 . S
C1748 C1750 1.363 . S
C1748 H1764 0.931 . S
C1749 C1748 1.370 . S
C1749 C1753 1.408 . S
C1750 C1748 1.363 . S
C1750 C1751 1.370 . S
C1750 C1754 1.524 . S
C1751 C1743 1.503 . S
C1751 C1750 1.370 . S
C1751 C1752 1.403 . S
C1752 C1751 1.403 . S
C1752 C1753 1.404 . S
C1752 C1755 1.539 . S
C1753 C1749 1.408 . S
C1753 C1752 1.404 . S
C1753 H1765 0.930 . S
C1754 C1750 1.524 . S
C1754 H1766 0.956 . S
C1754 H1767 0.961 . S
C1754 H1768 0.961 . S
C1755 C1752 1.539 . S
C1755 H1769 0.958 . S
C1755 H1770 0.961 . S
C1755 H1771 0.960 . S
H1756 C1740 0.931 . S
H1757 C1745 0.929 . S
H1758 C1746 0.960 . S
H1759 C1746 0.962 . S
H1760 C1746 0.960 . S
H1761 C1747 0.961 . S
H1762 C1747 0.961 . S
H1763 C1747 0.961 . S
H1764 C1748 0.931 . S
H1765 C1753 0.930 . S
H1766 C1754 0.956 . S
H1767 C1754 0.961 . S
H1768 C1754 0.961 . S
H1769 C1755 0.958 . S
H1770 C1755 0.961 . S
H1771 C1755 0.960 . S
C1772 C1773 1.391 . S
C1772 C1774 1.394 . S
C1772 H1788 0.931 . S
C1773 C1772 1.391 . S
C1773 C1777 1.376 . S
C1774 C1772 1.394 . S
C1774 C1775 1.369 . S
C1774 C1778 1.531 . S
C1775 C1774 1.369 . S
C1775 C1776 1.410 . S
C1775 C1783 1.503 . S
C1776 C1775 1.410 . S
C1776 C1777 1.392 . S
C1776 C1779 1.511 . S
C1777 C1773 1.376 . S
C1777 C1776 1.392 . S
C1777 H1789 0.929 . S
C1778 C1774 1.531 . S
C1778 H1790 0.960 . S
C1778 H1791 0.962 . S
C1778 H1792 0.960 . S
C1779 C1776 1.511 . S
C1779 H1793 0.961 . S
C1779 H1794 0.961 . S
C1779 H1795 0.961 . S
C1780 C1781 1.370 . S
C1780 C1782 1.363 . S
C1780 H1796 0.931 . S
C1781 C1780 1.370 . S
C1781 C1785 1.408 . S
C1782 C1780 1.363 . S
C1782 C1783 1.370 . S
C1782 C1786 1.524 . S
C1783 C1775 1.503 . S
C1783 C1782 1.370 . S
C1783 C1784 1.403 . S
C1784 C1783 1.403 . S
C1784 C1785 1.404 . S
C1784 C1787 1.539 . S
C1785 C1781 1.408 . S
C1785 C1784 1.404 . S
C1785 H1797 0.930 . S
C1786 C1782 1.524 . S
C1786 H1798 0.956 . S
C1786 H1799 0.961 . S
C1786 H1800 0.961 . S
C1787 C1784 1.539 . S
C1787 H1801 0.958 . S
C1787 H1802 0.961 . S
C1787 H1803 0.960 . S
H1788 C1772 0.931 . S
H1789 C1777 0.929 . S
H1790 C1778 0.960 . S
H1791 C1778 0.962 . S
H1792 C1778 0.960 . S
H1793 C1779 0.961 . S
H1794 C1779 0.961 . S
H1795 C1779 0.961 . S
H1796 C1780 0.931 . S
H1797 C1785 0.930 . S
H1798 C1786 0.956 . S
H1799 C1786 0.961 . S
H1800 C1786 0.961 . S
H1801 C1787 0.958 . S
H1802 C1787 0.961 . S
H1803 C1787 0.960 . S
C1804 C1805 1.391 . S
C1804 C1806 1.394 . S
C1804 H1820 0.931 . S
C1805 C1804 1.391 . S
C1805 C1809 1.376 . S
C1806 C1804 1.394 . S
C1806 C1807 1.369 . S
C1806 C1810 1.531 . S
C1807 C1806 1.369 . S
C1807 C1808 1.410 . S
C1807 C1815 1.503 . S
C1808 C1807 1.410 . S
C1808 C1809 1.392 . S
C1808 C1811 1.511 . S
C1809 C1805 1.376 . S
C1809 C1808 1.392 . S
C1809 H1821 0.929 . S
C1810 C1806 1.531 . S
C1810 H1822 0.960 . S
C1810 H1823 0.962 . S
C1810 H1824 0.960 . S
C1811 C1808 1.511 . S
C1811 H1825 0.961 . S
C1811 H1826 0.961 . S
C1811 H1827 0.961 . S
C1812 C1813 1.370 . S
C1812 C1814 1.363 . S
C1812 H1828 0.931 . S
C1813 C1812 1.370 . S
C1813 C1817 1.408 . S
C1814 C1812 1.363 . S
C1814 C1815 1.370 . S
C1814 C1818 1.524 . S
C1815 C1807 1.503 . S
C1815 C1814 1.370 . S
C1815 C1816 1.403 . S
C1816 C1815 1.403 . S
C1816 C1817 1.404 . S
C1816 C1819 1.539 . S
C1817 C1813 1.408 . S
C1817 C1816 1.404 . S
C1817 H1829 0.930 . S
C1818 C1814 1.524 . S
C1818 H1830 0.956 . S
C1818 H1831 0.961 . S
C1818 H1832 0.961 . S
C1819 C1816 1.539 . S
C1819 H1833 0.958 . S
C1819 H1834 0.961 . S
C1819 H1835 0.960 . S
H1820 C1804 0.931 . S
H1821 C1809 0.929 . S
H1822 C1810 0.960 . S
H1823 C1810 0.962 . S
H1824 C1810 0.960 . S
H1825 C1811 0.961 . S
H1826 C1811 0.961 . S
H1827 C1811 0.961 . S
H1828 C1812 0.931 . S
H1829 C1817 0.930 . S
H1830 C1818 0.956 . S
H1831 C1818 0.961 . S
H1832 C1818 0.961 . S
H1833 C1819 0.958 . S
H1834 C1819 0.961 . S
H1835 C1819 0.960 . S
C1836 C1837 1.391 . S
C1836 C1838 1.394 . S
C1836 H1852 0.931 . S
C1837 C1836 1.391 . S
C1837 C1841 1.376 . S
C1838 C1836 1.394 . S
C1838 C1839 1.369 . S
C1838 C1842 1.531 . S
C1839 C1838 1.369 . S
C1839 C1840 1.410 . S
C1839 C1847 1.503 1_565 S
C1840 C1839 1.410 . S
C1840 C1841 1.392 . S
C1840 C1843 1.511 1_565 S
C1841 C1837 1.376 . S
C1841 C1840 1.392 . S
C1841 H1853 0.929 . S
C1842 C1838 1.531 . S
C1842 H1854 0.960 1_565 S
C1842 H1855 0.962 . S
C1842 H1856 0.960 . S
C1843 C1840 1.511 1_545 S
C1843 H1857 0.961 1_545 S
C1843 H1858 0.961 . S
C1843 H1859 0.961 . S
C1844 C1845 1.370 . S
C1844 C1846 1.363 . S
C1844 H1860 0.931 . S
C1845 C1844 1.370 . S
C1845 C1849 1.408 . S
C1846 C1844 1.363 . S
C1846 C1847 1.370 . S
C1846 C1850 1.524 1_545 S
C1847 C1839 1.503 1_545 S
C1847 C1846 1.370 . S
C1847 C1848 1.403 . S
C1848 C1847 1.403 . S
C1848 C1849 1.404 . S
C1848 C1851 1.539 . S
C1849 C1845 1.408 . S
C1849 C1848 1.404 . S
C1849 H1861 0.930 . S
C1850 C1846 1.524 1_565 S
C1850 H1862 0.956 . S
C1850 H1863 0.961 . S
C1850 H1864 0.961 . S
C1851 C1848 1.539 . S
C1851 H1865 0.958 . S
C1851 H1866 0.961 . S
C1851 H1867 0.960 . S
H1852 C1836 0.931 . S
H1853 C1841 0.929 . S
H1854 C1842 0.960 1_545 S
H1855 C1842 0.962 . S
H1856 C1842 0.960 . S
H1857 C1843 0.961 1_565 S
H1858 C1843 0.961 . S
H1859 C1843 0.961 . S
H1860 C1844 0.931 . S
H1861 C1849 0.930 . S
H1862 C1850 0.956 . S
H1863 C1850 0.961 . S
H1864 C1850 0.961 . S
H1865 C1851 0.958 . S
H1866 C1851 0.961 . S
H1867 C1851 0.960 . S
C1868 C1869 1.391 . S
C1868 C1870 1.394 . S
C1868 H1884 0.931 . S
C1869 C1868 1.391 . S
C1869 C1873 1.376 . S
C1870 C1868 1.394 . S
C1870 C1871 1.369 . S
C1870 C1874 1.531 . S
C1871 C1870 1.369 . S
C1871 C1872 1.410 . S
C1871 C1879 1.503 1_455 S
C1872 C1871 1.410 . S
C1872 C1873 1.392 . S
C1872 C1875 1.511 . S
C1873 C1869 1.376 . S
C1873 C1872 1.392 . S
C1873 H1885 0.929 . S
C1874 C1870 1.531 . S
C1874 H1886 0.960 . S
C1874 H1887 0.962 . S
C1874 H1888 0.960 . S
C1875 C1872 1.511 . S
C1875 H1889 0.961 . S
C1875 H1890 0.961 1_455 S
C1875 H1891 0.961 . S
C1876 C1877 1.370 . S
C1876 C1878 1.363 . S
C1876 H1892 0.931 . S
C1877 C1876 1.370 . S
C1877 C1881 1.408 . S
C1878 C1876 1.363 . S
C1878 C1879 1.370 . S
C1878 C1882 1.524 . S
C1879 C1871 1.503 1_655 S
C1879 C1878 1.370 . S
C1879 C1880 1.403 . S
C1880 C1879 1.403 . S
C1880 C1881 1.404 . S
C1880 C1883 1.539 1_655 S
C1881 C1877 1.408 . S
C1881 C1880 1.404 . S
C1881 H1893 0.930 . S
C1882 C1878 1.524 . S
C1882 H1894 0.956 . S
C1882 H1895 0.961 . S
C1882 H1896 0.961 . S
C1883 C1880 1.539 1_455 S
C1883 H1897 0.958 . S
C1883 H1898 0.961 . S
C1883 H1899 0.960 . S
H1884 C1868 0.931 . S
H1885 C1873 0.929 . S
H1886 C1874 0.960 . S
H1887 C1874 0.962 . S
H1888 C1874 0.960 . S
H1889 C1875 0.961 . S
H1890 C1875 0.961 1_655 S
H1891 C1875 0.961 . S
H1892 C1876 0.931 . S
H1893 C1881 0.930 . S
H1894 C1882 0.956 . S
H1895 C1882 0.961 . S
H1896 C1882 0.961 . S
H1897 C1883 0.958 . S
H1898 C1883 0.961 . S
H1899 C1883 0.960 . S
C1900 C1901 1.391 . S
C1900 C1902 1.394 . S
C1900 H1916 0.931 . S
C1901 C1900 1.391 . S
C1901 C1905 1.376 . S
C1902 C1900 1.394 . S
C1902 C1903 1.369 . S
C1902 C1906 1.531 . S
C1903 C1902 1.369 . S
C1903 C1904 1.410 . S
C1903 C1911 1.503 . S
C1904 C1903 1.410 . S
C1904 C1905 1.392 . S
C1904 C1907 1.511 . S
C1905 C1901 1.376 . S
C1905 C1904 1.392 . S
C1905 H1917 0.929 . S
C1906 C1902 1.531 . S
C1906 H1918 0.960 . S
C1906 H1919 0.962 . S
C1906 H1920 0.960 . S
C1907 C1904 1.511 . S
C1907 H1921 0.961 . S
C1907 H1922 0.961 . S
C1907 H1923 0.961 . S
C1908 C1909 1.370 . S
C1908 C1910 1.363 . S
C1908 H1924 0.931 . S
C1909 C1908 1.370 . S
C1909 C1913 1.408 . S
C1910 C1908 1.363 . S
C1910 C1911 1.370 . S
C1910 C1914 1.524 . S
C1911 C1903 1.503 . S
C1911 C1910 1.370 . S
C1911 C1912 1.403 . S
C1912 C1911 1.403 . S
C1912 C1913 1.404 . S
C1912 C1915 1.539 . S
C1913 C1909 1.408 . S
C1913 C1912 1.404 . S
C1913 H1925 0.930 . S
C1914 C1910 1.524 . S
C1914 H1926 0.956 . S
C1914 H1927 0.961 . S
C1914 H1928 0.961 . S
C1915 C1912 1.539 . S
C1915 H1929 0.958 . S
C1915 H1930 0.961 . S
C1915 H1931 0.960 . S
H1916 C1900 0.931 . S
H1917 C1905 0.929 . S
H1918 C1906 0.960 . S
H1919 C1906 0.962 . S
H1920 C1906 0.960 . S
H1921 C1907 0.961 . S
H1922 C1907 0.961 . S
H1923 C1907 0.961 . S
H1924 C1908 0.931 . S
H1925 C1913 0.930 . S
H1926 C1914 0.956 . S
H1927 C1914 0.961 . S
H1928 C1914 0.961 . S
H1929 C1915 0.958 . S
H1930 C1915 0.961 . S
H1931 C1915 0.960 . S
C1932 C1933 1.391 1_655 S
C1932 C1934 1.394 . S
C1932 H1948 0.931 . S
C1933 C1932 1.391 1_455 S
C1933 C1937 1.376 . S
C1934 C1932 1.394 . S
C1934 C1935 1.369 . S
C1934 C1938 1.531 . S
C1935 C1934 1.369 . S
C1935 C1936 1.410 . S
C1935 C1943 1.503 . S
C1936 C1935 1.410 . S
C1936 C1937 1.392 1_655 S
C1936 C1939 1.511 . S
C1937 C1933 1.376 . S
C1937 C1936 1.392 1_455 S
C1937 H1949 0.929 . S
C1938 C1934 1.531 . S
C1938 H1950 0.960 . S
C1938 H1951 0.962 . S
C1938 H1952 0.960 . S
C1939 C1936 1.511 . S
C1939 H1953 0.961 . S
C1939 H1954 0.961 . S
C1939 H1955 0.961 . S
C1940 C1941 1.370 . S
C1940 C1942 1.363 . S
C1940 H1956 0.931 . S
C1941 C1940 1.370 . S
C1941 C1945 1.408 . S
C1942 C1940 1.363 . S
C1942 C1943 1.370 . S
C1942 C1946 1.524 . S
C1943 C1935 1.503 . S
C1943 C1942 1.370 . S
C1943 C1944 1.403 . S
C1944 C1943 1.403 . S
C1944 C1945 1.404 . S
C1944 C1947 1.539 . S
C1945 C1941 1.408 . S
C1945 C1944 1.404 . S
C1945 H1957 0.930 . S
C1946 C1942 1.524 . S
C1946 H1958 0.956 . S
C1946 H1959 0.961 . S
C1946 H1960 0.961 . S
C1947 C1944 1.539 . S
C1947 H1961 0.958 . S
C1947 H1962 0.961 . S
C1947 H1963 0.960 . S
H1948 C1932 0.931 . S
H1949 C1937 0.929 . S
H1950 C1938 0.960 . S
H1951 C1938 0.962 . S
H1952 C1938 0.960 . S
H1953 C1939 0.961 . S
H1954 C1939 0.961 . S
H1955 C1939 0.961 . S
H1956 C1940 0.931 . S
H1957 C1945 0.930 . S
H1958 C1946 0.956 . S
H1959 C1946 0.961 . S
H1960 C1946 0.961 . S
H1961 C1947 0.958 . S
H1962 C1947 0.961 . S
H1963 C1947 0.960 . S
C1964 C1965 1.391 . S
C1964 C1966 1.394 . S
C1964 H1980 0.931 . S
C1965 C1964 1.391 . S
C1965 C1969 1.376 . S
C1966 C1964 1.394 . S
C1966 C1967 1.369 . S
C1966 C1970 1.531 . S
C1967 C1966 1.369 . S
C1967 C1968 1.410 . S
C1967 C1975 1.503 . S
C1968 C1967 1.410 . S
C1968 C1969 1.392 . S
C1968 C1971 1.511 . S
C1969 C1965 1.376 . S
C1969 C1968 1.392 . S
C1969 H1981 0.929 . S
C1970 C1966 1.531 . S
C1970 H1982 0.960 . S
C1970 H1983 0.962 . S
C1970 H1984 0.960 . S
C1971 C1968 1.511 . S
C1971 H1985 0.961 . S
C1971 H1986 0.961 . S
C1971 H1987 0.961 . S
C1972 C1973 1.370 . S
C1972 C1974 1.363 . S
C1972 H1988 0.931 . S
C1973 C1972 1.370 . S
C1973 C1977 1.408 . S
C1974 C1972 1.363 . S
C1974 C1975 1.370 . S
C1974 C1978 1.524 . S
C1975 C1967 1.503 . S
C1975 C1974 1.370 . S
C1975 C1976 1.403 . S
C1976 C1975 1.403 . S
C1976 C1977 1.404 . S
C1976 C1979 1.539 . S
C1977 C1973 1.408 . S
C1977 C1976 1.404 . S
C1977 H1989 0.930 . S
C1978 C1974 1.524 . S
C1978 H1990 0.956 . S
C1978 H1991 0.961 . S
C1978 H1992 0.961 . S
C1979 C1976 1.539 . S
C1979 H1993 0.958 . S
C1979 H1994 0.961 . S
C1979 H1995 0.960 . S
H1980 C1964 0.931 . S
H1981 C1969 0.929 . S
H1982 C1970 0.960 . S
H1983 C1970 0.962 . S
H1984 C1970 0.960 . S
H1985 C1971 0.961 . S
H1986 C1971 0.961 . S
H1987 C1971 0.961 . S
H1988 C1972 0.931 . S
H1989 C1977 0.930 . S
H1990 C1978 0.956 . S
H1991 C1978 0.961 . S
H1992 C1978 0.961 . S
H1993 C1979 0.958 . S
H1994 C1979 0.961 . S
H1995 C1979 0.960 . S
C1996 C1997 1.391 1_545 S
C1996 C1998 1.394 . S
C1996 H2012 0.919 1_545 S
C1997 C1996 1.391 1_565 S
C1997 C2001 1.376 . S
C1998 C1996 1.394 . S
C1998 C1999 1.369 . S
C1998 C2002 1.531 . S
C1999 C1998 1.369 . S
C1999 C2000 1.410 . S
C1999 C2007 1.503 . S
C2000 C1999 1.410 . S
C2000 C2001 1.392 1_545 S
C2000 C2003 1.511 . S
C2001 C1997 1.376 . S
C2001 C2000 1.392 1_565 S
C2001 H2013 0.929 . S
C2002 C1998 1.531 . S
C2002 H2014 0.960 . S
C2002 H2015 0.962 . S
C2002 H2016 0.960 . S
C2003 C2000 1.511 . S
C2003 H2017 0.961 . S
C2003 H2018 0.961 . S
C2003 H2019 0.961 . S
C2004 C2005 1.370 . S
C2004 C2006 1.363 . S
C2004 H2020 0.931 . S
C2005 C2004 1.370 . S
C2005 C2009 1.408 . S
C2006 C2004 1.363 . S
C2006 C2007 1.370 . S
C2006 C2010 1.524 . S
C2007 C1999 1.503 . S
C2007 C2006 1.370 . S
C2007 C2008 1.403 . S
C2008 C2007 1.403 . S
C2008 C2009 1.404 . S
C2008 C2011 1.539 . S
C2009 C2005 1.408 . S
C2009 C2008 1.404 . S
C2009 H2021 0.930 . S
C2010 C2006 1.524 . S
C2010 H2022 0.956 . S
C2010 H2023 0.961 . S
C2010 H2024 0.961 . S
C2011 C2008 1.539 . S
C2011 H2025 0.958 . S
C2011 H2026 0.961 . S
C2011 H2027 0.960 . S
H2012 C1996 0.919 1_565 S
H2013 C2001 0.929 . S
H2014 C2002 0.960 . S
H2015 C2002 0.962 . S
H2016 C2002 0.960 . S
H2017 C2003 0.961 . S
H2018 C2003 0.961 . S
H2019 C2003 0.961 . S
H2020 C2004 0.931 . S
H2021 C2009 0.930 . S
H2022 C2010 0.956 . S
H2023 C2010 0.961 . S
H2024 C2010 0.961 . S
H2025 C2011 0.958 . S
H2026 C2011 0.961 . S
H2027 C2011 0.960 . S
C2028 C2029 1.391 . S
C2028 C2030 1.394 . S
C2028 H2044 0.931 . S
C2029 C2028 1.391 . S
C2029 C2033 1.376 . S
C2030 C2028 1.394 . S
C2030 C2031 1.369 . S
C2030 C2034 1.531 . S
C2031 C2030 1.369 . S
C2031 C2032 1.410 . S
C2031 C2039 1.503 . S
C2032 C2031 1.410 . S
C2032 C2033 1.392 . S
C2032 C2035 1.511 . S
C2033 C2029 1.376 . S
C2033 C2032 1.392 . S
C2033 H2045 0.929 . S
C2034 C2030 1.531 . S
C2034 H2046 0.960 . S
C2034 H2047 0.962 . S
C2034 H2048 0.960 . S
C2035 C2032 1.511 . S
C2035 H2049 0.961 . S
C2035 H2050 0.961 . S
C2035 H2051 0.961 . S
C2036 C2037 1.370 . S
C2036 C2038 1.363 . S
C2036 H2052 0.931 . S
C2037 C2036 1.370 . S
C2037 C2041 1.408 . S
C2038 C2036 1.363 . S
C2038 C2039 1.370 . S
C2038 C2042 1.524 . S
C2039 C2031 1.503 . S
C2039 C2038 1.370 . S
C2039 C2040 1.403 . S
C2040 C2039 1.403 . S
C2040 C2041 1.404 . S
C2040 C2043 1.539 . S
C2041 C2037 1.408 . S
C2041 C2040 1.404 . S
C2041 H2053 0.930 . S
C2042 C2038 1.524 . S
C2042 H2054 0.956 . S
C2042 H2055 0.961 . S
C2042 H2056 0.961 . S
C2043 C2040 1.539 . S
C2043 H2057 0.958 . S
C2043 H2058 0.961 . S
C2043 H2059 0.960 . S
H2044 C2028 0.931 . S
H2045 C2033 0.929 . S
H2046 C2034 0.960 . S
H2047 C2034 0.962 . S
H2048 C2034 0.960 . S
H2049 C2035 0.961 . S
H2050 C2035 0.961 . S
H2051 C2035 0.961 . S
H2052 C2036 0.931 . S
H2053 C2041 0.930 . S
H2054 C2042 0.956 . S
H2055 C2042 0.961 . S
H2056 C2042 0.961 . S
H2057 C2043 0.958 . S
H2058 C2043 0.961 . S
H2059 C2043 0.960 . S
C2060 C2061 1.391 . S
C2060 C2062 1.394 . S
C2060 H2076 0.931 . S
C2061 C2060 1.391 . S
C2061 C2065 1.376 . S
C2062 C2060 1.394 . S
C2062 C2063 1.369 . S
C2062 C2066 1.531 . S
C2063 C2062 1.369 . S
C2063 C2064 1.410 . S
C2063 C2071 1.503 . S
C2064 C2063 1.410 . S
C2064 C2065 1.392 . S
C2064 C2067 1.511 . S
C2065 C2061 1.376 . S
C2065 C2064 1.392 . S
C2065 H2077 0.929 . S
C2066 C2062 1.531 . S
C2066 H2078 0.960 . S
C2066 H2079 0.962 . S
C2066 H2080 0.960 . S
C2067 C2064 1.511 . S
C2067 H2081 0.961 . S
C2067 H2082 0.961 . S
C2067 H2083 0.961 . S
C2068 C2069 1.370 . S
C2068 C2070 1.363 . S
C2068 H2084 0.931 . S
C2069 C2068 1.370 . S
C2069 C2073 1.408 . S
C2070 C2068 1.363 . S
C2070 C2071 1.370 . S
C2070 C2074 1.524 . S
C2071 C2063 1.503 . S
C2071 C2070 1.370 . S
C2071 C2072 1.403 . S
C2072 C2071 1.403 . S
C2072 C2073 1.404 . S
C2072 C2075 1.539 . S
C2073 C2069 1.408 . S
C2073 C2072 1.404 . S
C2073 H2085 0.930 . S
C2074 C2070 1.524 . S
C2074 H2086 0.956 . S
C2074 H2087 0.961 . S
C2074 H2088 0.961 . S
C2075 C2072 1.539 . S
C2075 H2089 0.958 . S
C2075 H2090 0.961 . S
C2075 H2091 0.960 . S
H2076 C2060 0.931 . S
H2077 C2065 0.929 . S
H2078 C2066 0.960 . S
H2079 C2066 0.962 . S
H2080 C2066 0.960 . S
H2081 C2067 0.961 . S
H2082 C2067 0.961 . S
H2083 C2067 0.961 . S
H2084 C2068 0.931 . S
H2085 C2073 0.930 . S
H2086 C2074 0.956 . S
H2087 C2074 0.961 . S
H2088 C2074 0.961 . S
H2089 C2075 0.958 . S
H2090 C2075 0.961 . S
H2091 C2075 0.960 . S
C2092 C2093 1.391 . S
C2092 C2094 1.394 . S
C2092 H2108 0.931 . S
C2093 C2092 1.391 . S
C2093 C2097 1.376 . S
C2094 C2092 1.394 . S
C2094 C2095 1.369 . S
C2094 C2098 1.531 . S
C2095 C2094 1.369 . S
C2095 C2096 1.410 . S
C2095 C2103 1.503 . S
C2096 C2095 1.410 . S
C2096 C2097 1.392 . S
C2096 C2099 1.511 . S
C2097 C2093 1.376 . S
C2097 C2096 1.392 . S
C2097 H2109 0.929 . S
C2098 C2094 1.531 . S
C2098 H2110 0.960 . S
C2098 H2111 0.962 . S
C2098 H2112 0.960 . S
C2099 C2096 1.511 . S
C2099 H2113 0.961 . S
C2099 H2114 0.961 . S
C2099 H2115 0.961 . S
C2100 C2101 1.370 . S
C2100 C2102 1.363 . S
C2100 H2116 0.931 . S
C2101 C2100 1.370 . S
C2101 C2105 1.408 . S
C2102 C2100 1.363 . S
C2102 C2103 1.370 . S
C2102 C2106 1.524 . S
C2103 C2095 1.503 . S
C2103 C2102 1.370 . S
C2103 C2104 1.403 . S
C2104 C2103 1.403 . S
C2104 C2105 1.404 . S
C2104 C2107 1.539 . S
C2105 C2101 1.408 . S
C2105 C2104 1.404 . S
C2105 H2117 0.930 . S
C2106 C2102 1.524 . S
C2106 H2118 0.956 . S
C2106 H2119 0.961 . S
C2106 H2120 0.961 . S
C2107 C2104 1.539 . S
C2107 H2121 0.958 . S
C2107 H2122 0.961 . S
C2107 H2123 0.960 . S
H2108 C2092 0.931 . S
H2109 C2097 0.929 . S
H2110 C2098 0.960 . S
H2111 C2098 0.962 . S
H2112 C2098 0.960 . S
H2113 C2099 0.961 . S
H2114 C2099 0.961 . S
H2115 C2099 0.961 . S
H2116 C2100 0.931 . S
H2117 C2105 0.930 . S
H2118 C2106 0.956 . S
H2119 C2106 0.961 . S
H2120 C2106 0.961 . S
H2121 C2107 0.958 . S
H2122 C2107 0.961 . S
H2123 C2107 0.960 . S
C2124 C2125 1.391 . S
C2124 C2126 1.394 . S
C2124 H2140 0.931 . S
C2125 C2124 1.391 . S
C2125 C2129 1.376 . S
C2126 C2124 1.394 . S
C2126 C2127 1.369 . S
C2126 C2130 1.531 . S
C2127 C2126 1.369 . S
C2127 C2128 1.410 . S
C2127 C2135 1.503 . S
C2128 C2127 1.410 . S
C2128 C2129 1.392 . S
C2128 C2131 1.511 . S
C2129 C2125 1.376 . S
C2129 C2128 1.392 . S
C2129 H2141 0.929 . S
C2130 C2126 1.531 . S
C2130 H2142 0.960 . S
C2130 H2143 0.962 . S
C2130 H2144 0.960 . S
C2131 C2128 1.511 . S
C2131 H2145 0.961 . S
C2131 H2146 0.961 . S
C2131 H2147 0.961 . S
C2132 C2133 1.370 . S
C2132 C2134 1.363 . S
C2132 H2148 0.931 . S
C2133 C2132 1.370 . S
C2133 C2137 1.408 . S
C2134 C2132 1.363 . S
C2134 C2135 1.370 . S
C2134 C2138 1.524 . S
C2135 C2127 1.503 . S
C2135 C2134 1.370 . S
C2135 C2136 1.403 . S
C2136 C2135 1.403 . S
C2136 C2137 1.404 . S
C2136 C2139 1.539 . S
C2137 C2133 1.408 . S
C2137 C2136 1.404 . S
C2137 H2149 0.930 . S
C2138 C2134 1.524 . S
C2138 H2150 0.956 . S
C2138 H2151 0.961 . S
C2138 H2152 0.961 . S
C2139 C2136 1.539 . S
C2139 H2153 0.958 . S
C2139 H2154 0.961 . S
C2139 H2155 0.960 . S
H2140 C2124 0.931 . S
H2141 C2129 0.929 . S
H2142 C2130 0.960 . S
H2143 C2130 0.962 . S
H2144 C2130 0.960 . S
H2145 C2131 0.961 . S
H2146 C2131 0.961 . S
H2147 C2131 0.961 . S
H2148 C2132 0.931 . S
H2149 C2137 0.930 . S
H2150 C2138 0.956 . S
H2151 C2138 0.961 . S
H2152 C2138 0.961 . S
H2153 C2139 0.958 . S
H2154 C2139 0.961 . S
H2155 C2139 0.960 . S
C2156 C2157 1.391 . S
C2156 C2158 1.394 . S
C2156 H2172 0.931 . S
C2157 C2156 1.391 . S
C2157 C2161 1.376 . S
C2158 C2156 1.394 . S
C2158 C2159 1.369 . S
C2158 C2162 1.531 . S
C2159 C2158 1.369 . S
C2159 C2160 1.410 . S
C2159 C2167 1.503 . S
C2160 C2159 1.410 . S
C2160 C2161 1.392 . S
C2160 C2163 1.511 . S
C2161 C2157 1.376 . S
C2161 C2160 1.392 . S
C2161 H2173 0.929 . S
C2162 C2158 1.531 . S
C2162 H2174 0.960 . S
C2162 H2175 0.962 . S
C2162 H2176 0.960 . S
C2163 C2160 1.511 . S
C2163 H2177 0.961 . S
C2163 H2178 0.961 . S
C2163 H2179 0.961 . S
C2164 C2165 1.370 . S
C2164 C2166 1.363 . S
C2164 H2180 0.931 . S
C2165 C2164 1.370 . S
C2165 C2169 1.408 . S
C2166 C2164 1.363 . S
C2166 C2167 1.370 . S
C2166 C2170 1.524 . S
C2167 C2159 1.503 . S
C2167 C2166 1.370 . S
C2167 C2168 1.403 . S
C2168 C2167 1.403 . S
C2168 C2169 1.404 . S
C2168 C2171 1.539 . S
C2169 C2165 1.408 . S
C2169 C2168 1.404 . S
C2169 H2181 0.930 . S
C2170 C2166 1.524 . S
C2170 H2182 0.956 . S
C2170 H2183 0.961 . S
C2170 H2184 0.961 . S
C2171 C2168 1.539 . S
C2171 H2185 0.958 . S
C2171 H2186 0.961 . S
C2171 H2187 0.960 . S
H2172 C2156 0.931 . S
H2173 C2161 0.929 . S
H2174 C2162 0.960 . S
H2175 C2162 0.962 . S
H2176 C2162 0.960 . S
H2177 C2163 0.961 . S
H2178 C2163 0.961 . S
H2179 C2163 0.961 . S
H2180 C2164 0.931 . S
H2181 C2169 0.930 . S
H2182 C2170 0.956 . S
H2183 C2170 0.961 . S
H2184 C2170 0.961 . S
H2185 C2171 0.958 . S
H2186 C2171 0.961 . S
H2187 C2171 0.960 . S
C2188 C2189 1.391 . S
C2188 C2190 1.394 . S
C2188 H2204 0.931 . S
C2189 C2188 1.391 . S
C2189 C2193 1.376 . S
C2190 C2188 1.394 . S
C2190 C2191 1.369 . S
C2190 C2194 1.531 . S
C2191 C2190 1.369 . S
C2191 C2192 1.410 . S
C2191 C2199 1.503 . S
C2192 C2191 1.410 . S
C2192 C2193 1.392 . S
C2192 C2195 1.511 . S
C2193 C2189 1.376 . S
C2193 C2192 1.392 . S
C2193 H2205 0.929 . S
C2194 C2190 1.531 . S
C2194 H2206 0.960 . S
C2194 H2207 0.962 . S
C2194 H2208 0.960 . S
C2195 C2192 1.511 . S
C2195 H2209 0.961 . S
C2195 H2210 0.961 . S
C2195 H2211 0.961 . S
C2196 C2197 1.370 . S
C2196 C2198 1.363 . S
C2196 H2212 0.931 . S
C2197 C2196 1.370 . S
C2197 C2201 1.408 . S
C2198 C2196 1.363 . S
C2198 C2199 1.370 . S
C2198 C2202 1.524 . S
C2199 C2191 1.503 . S
C2199 C2198 1.370 . S
C2199 C2200 1.403 . S
C2200 C2199 1.403 . S
C2200 C2201 1.404 . S
C2200 C2203 1.539 . S
C2201 C2197 1.408 . S
C2201 C2200 1.404 . S
C2201 H2213 0.930 . S
C2202 C2198 1.524 . S
C2202 H2214 0.956 . S
C2202 H2215 0.961 . S
C2202 H2216 0.961 . S
C2203 C2200 1.539 . S
C2203 H2217 0.958 . S
C2203 H2218 0.961 . S
C2203 H2219 0.960 . S
H2204 C2188 0.931 . S
H2205 C2193 0.929 . S
H2206 C2194 0.960 . S
H2207 C2194 0.962 . S
H2208 C2194 0.960 . S
H2209 C2195 0.961 . S
H2210 C2195 0.961 . S
H2211 C2195 0.961 . S
H2212 C2196 0.931 . S
H2213 C2201 0.930 . S
H2214 C2202 0.956 . S
H2215 C2202 0.961 . S
H2216 C2202 0.961 . S
H2217 C2203 0.958 . S
H2218 C2203 0.961 . S
H2219 C2203 0.960 . S
C2220 C2221 1.391 . S
C2220 C2222 1.394 . S
C2220 H2236 0.931 . S
C2221 C2220 1.391 . S
C2221 C2225 1.376 . S
C2222 C2220 1.394 . S
C2222 C2223 1.369 . S
C2222 C2226 1.531 . S
C2223 C2222 1.369 . S
C2223 C2224 1.410 . S
C2223 C2231 1.503 . S
C2224 C2223 1.410 . S
C2224 C2225 1.392 . S
C2224 C2227 1.511 . S
C2225 C2221 1.376 . S
C2225 C2224 1.392 . S
C2225 H2237 0.929 . S
C2226 C2222 1.531 . S
C2226 H2238 0.960 . S
C2226 H2239 0.962 . S
C2226 H2240 0.960 . S
C2227 C2224 1.511 . S
C2227 H2241 0.961 . S
C2227 H2242 0.961 . S
C2227 H2243 0.961 . S
C2228 C2229 1.370 . S
C2228 C2230 1.363 . S
C2228 H2244 0.931 . S
C2229 C2228 1.370 . S
C2229 C2233 1.408 . S
C2230 C2228 1.363 . S
C2230 C2231 1.370 . S
C2230 C2234 1.524 . S
C2231 C2223 1.503 . S
C2231 C2230 1.370 . S
C2231 C2232 1.403 . S
C2232 C2231 1.403 . S
C2232 C2233 1.404 . S
C2232 C2235 1.539 . S
C2233 C2229 1.408 . S
C2233 C2232 1.404 . S
C2233 H2245 0.930 . S
C2234 C2230 1.524 . S
C2234 H2246 0.956 . S
C2234 H2247 0.961 . S
C2234 H2248 0.961 . S
C2235 C2232 1.539 . S
C2235 H2249 0.958 . S
C2235 H2250 0.961 . S
C2235 H2251 0.960 . S
H2236 C2220 0.931 . S
H2237 C2225 0.929 . S
H2238 C2226 0.960 . S
H2239 C2226 0.962 . S
H2240 C2226 0.960 . S
H2241 C2227 0.961 . S
H2242 C2227 0.961 . S
H2243 C2227 0.961 . S
H2244 C2228 0.931 . S
H2245 C2233 0.930 . S
H2246 C2234 0.956 . S
H2247 C2234 0.961 . S
H2248 C2234 0.961 . S
H2249 C2235 0.958 . S
H2250 C2235 0.961 . S
H2251 C2235 0.960 . S
C2252 C2253 1.391 . S
C2252 C2254 1.394 . S
C2252 H2268 0.931 . S
C2253 C2252 1.391 . S
C2253 C2257 1.376 . S
C2254 C2252 1.394 . S
C2254 C2255 1.369 . S
C2254 C2258 1.531 . S
C2255 C2254 1.369 . S
C2255 C2256 1.410 . S
C2255 C2263 1.503 . S
C2256 C2255 1.410 . S
C2256 C2257 1.392 . S
C2256 C2259 1.511 . S
C2257 C2253 1.376 . S
C2257 C2256 1.392 . S
C2257 H2269 0.929 . S
C2258 C2254 1.531 . S
C2258 H2270 0.960 . S
C2258 H2271 0.962 . S
C2258 H2272 0.960 . S
C2259 C2256 1.511 . S
C2259 H2273 0.961 . S
C2259 H2274 0.961 . S
C2259 H2275 0.961 . S
C2260 C2261 1.370 . S
C2260 C2262 1.363 . S
C2260 H2276 0.931 . S
C2261 C2260 1.370 . S
C2261 C2265 1.408 . S
C2262 C2260 1.363 . S
C2262 C2263 1.370 . S
C2262 C2266 1.524 . S
C2263 C2255 1.503 . S
C2263 C2262 1.370 . S
C2263 C2264 1.403 . S
C2264 C2263 1.403 . S
C2264 C2265 1.404 . S
C2264 C2267 1.539 . S
C2265 C2261 1.408 . S
C2265 C2264 1.404 . S
C2265 H2277 0.930 . S
C2266 C2262 1.524 . S
C2266 H2278 0.956 . S
C2266 H2279 0.961 . S
C2266 H2280 0.961 . S
C2267 C2264 1.539 . S
C2267 H2281 0.958 . S
C2267 H2282 0.961 . S
C2267 H2283 0.960 . S
H2268 C2252 0.931 . S
H2269 C2257 0.929 . S
H2270 C2258 0.960 . S
H2271 C2258 0.962 . S
H2272 C2258 0.960 . S
H2273 C2259 0.961 . S
H2274 C2259 0.961 . S
H2275 C2259 0.961 . S
H2276 C2260 0.931 . S
H2277 C2265 0.930 . S
H2278 C2266 0.956 . S
H2279 C2266 0.961 . S
H2280 C2266 0.961 . S
H2281 C2267 0.958 . S
H2282 C2267 0.961 . S
H2283 C2267 0.960 . S
C2284 C2285 1.391 . S
C2284 C2286 1.394 . S
C2284 H2300 0.931 . S
C2285 C2284 1.391 . S
C2285 C2289 1.376 . S
C2286 C2284 1.394 . S
C2286 C2287 1.369 . S
C2286 C2290 1.531 . S
C2287 C2286 1.369 . S
C2287 C2288 1.410 . S
C2287 C2295 1.503 . S
C2288 C2287 1.410 . S
C2288 C2289 1.392 . S
C2288 C2291 1.511 . S
C2289 C2285 1.376 . S
C2289 C2288 1.392 . S
C2289 H2301 0.929 . S
C2290 C2286 1.531 . S
C2290 H2302 0.960 . S
C2290 H2303 0.962 . S
C2290 H2304 0.960 . S
C2291 C2288 1.511 . S
C2291 H2305 0.961 . S
C2291 H2306 0.961 . S
C2291 H2307 0.961 . S
C2292 C2293 1.370 . S
C2292 C2294 1.363 . S
C2292 H2308 0.931 . S
C2293 C2292 1.370 . S
C2293 C2297 1.408 . S
C2294 C2292 1.363 . S
C2294 C2295 1.370 . S
C2294 C2298 1.524 . S
C2295 C2287 1.503 . S
C2295 C2294 1.370 . S
C2295 C2296 1.403 . S
C2296 C2295 1.403 . S
C2296 C2297 1.404 . S
C2296 C2299 1.539 . S
C2297 C2293 1.408 . S
C2297 C2296 1.404 . S
C2297 H2309 0.930 . S
C2298 C2294 1.524 . S
C2298 H2310 0.956 . S
C2298 H2311 0.961 . S
C2298 H2312 0.961 . S
C2299 C2296 1.539 . S
C2299 H2313 0.958 . S
C2299 H2314 0.961 . S
C2299 H2315 0.960 . S
H2300 C2284 0.931 . S
H2301 C2289 0.929 . S
H2302 C2290 0.960 . S
H2303 C2290 0.962 . S
H2304 C2290 0.960 . S
H2305 C2291 0.961 . S
H2306 C2291 0.961 . S
H2307 C2291 0.961 . S
H2308 C2292 0.931 . S
H2309 C2297 0.930 . S
H2310 C2298 0.956 . S
H2311 C2298 0.961 . S
H2312 C2298 0.961 . S
H2313 C2299 0.958 . S
H2314 C2299 0.961 . S
H2315 C2299 0.960 . S
C2316 C2317 1.391 . S
C2316 C2318 1.394 . S
C2316 H2332 0.931 . S
C2317 C2316 1.391 . S
C2317 C2321 1.376 . S
C2318 C2316 1.394 . S
C2318 C2319 1.369 . S
C2318 C2322 1.531 . S
C2319 C2318 1.369 . S
C2319 C2320 1.410 . S
C2319 C2327 1.503 . S
C2320 C2319 1.410 . S
C2320 C2321 1.392 . S
C2320 C2323 1.511 . S
C2321 C2317 1.376 . S
C2321 C2320 1.392 . S
C2321 H2333 0.929 . S
C2322 C2318 1.531 . S
C2322 H2334 0.960 . S
C2322 H2335 0.962 . S
C2322 H2336 0.960 . S
C2323 C2320 1.511 . S
C2323 H2337 0.961 . S
C2323 H2338 0.961 . S
C2323 H2339 0.961 . S
C2324 C2325 1.370 . S
C2324 C2326 1.363 . S
C2324 H2340 0.931 . S
C2325 C2324 1.370 . S
C2325 C2329 1.408 . S
C2326 C2324 1.363 . S
C2326 C2327 1.370 . S
C2326 C2330 1.524 . S
C2327 C2319 1.503 . S
C2327 C2326 1.370 . S
C2327 C2328 1.403 . S
C2328 C2327 1.403 . S
C2328 C2329 1.404 . S
C2328 C2331 1.539 . S
C2329 C2325 1.408 . S
C2329 C2328 1.404 . S
C2329 H2341 0.930 . S
C2330 C2326 1.524 . S
C2330 H2342 0.956 . S
C2330 H2343 0.961 . S
C2330 H2344 0.961 . S
C2331 C2328 1.539 . S
C2331 H2345 0.958 . S
C2331 H2346 0.961 . S
C2331 H2347 0.960 . S
H2332 C2316 0.931 . S
H2333 C2321 0.929 . S
H2334 C2322 0.960 . S
H2335 C2322 0.962 . S
H2336 C2322 0.960 . S
H2337 C2323 0.961 . S
H2338 C2323 0.961 . S
H2339 C2323 0.961 . S
H2340 C2324 0.931 . S
H2341 C2329 0.930 . S
H2342 C2330 0.956 . S
H2343 C2330 0.961 . S
H2344 C2330 0.961 . S
H2345 C2331 0.958 . S
H2346 C2331 0.961 . S
H2347 C2331 0.960 . S
C2348 C2349 1.391 . S
C2348 C2350 1.394 . S
C2348 H2364 0.931 . S
C2349 C2348 1.391 . S
C2349 C2353 1.376 . S
C2350 C2348 1.394 . S
C2350 C2351 1.369 . S
C2350 C2354 1.531 . S
C2351 C2350 1.369 . S
C2351 C2352 1.410 . S
C2351 C2359 1.503 . S
C2352 C2351 1.410 . S
C2352 C2353 1.392 . S
C2352 C2355 1.511 . S
C2353 C2349 1.376 . S
C2353 C2352 1.392 . S
C2353 H2365 0.929 . S
C2354 C2350 1.531 . S
C2354 H2366 0.960 . S
C2354 H2367 0.962 . S
C2354 H2368 0.960 . S
C2355 C2352 1.511 . S
C2355 H2369 0.961 . S
C2355 H2370 0.961 . S
C2355 H2371 0.961 . S
C2356 C2357 1.370 . S
C2356 C2358 1.363 . S
C2356 H2372 0.931 . S
C2357 C2356 1.370 . S
C2357 C2361 1.408 . S
C2358 C2356 1.363 . S
C2358 C2359 1.370 . S
C2358 C2362 1.524 . S
C2359 C2351 1.503 . S
C2359 C2358 1.370 . S
C2359 C2360 1.403 . S
C2360 C2359 1.403 . S
C2360 C2361 1.404 . S
C2360 C2363 1.539 . S
C2361 C2357 1.408 . S
C2361 C2360 1.404 . S
C2361 H2373 0.930 . S
C2362 C2358 1.524 . S
C2362 H2374 0.956 . S
C2362 H2375 0.961 . S
C2362 H2376 0.961 . S
C2363 C2360 1.539 . S
C2363 H2377 0.958 . S
C2363 H2378 0.961 . S
C2363 H2379 0.960 . S
H2364 C2348 0.931 . S
H2365 C2353 0.929 . S
H2366 C2354 0.960 . S
H2367 C2354 0.962 . S
H2368 C2354 0.960 . S
H2369 C2355 0.961 . S
H2370 C2355 0.961 . S
H2371 C2355 0.961 . S
H2372 C2356 0.931 . S
H2373 C2361 0.930 . S
H2374 C2362 0.956 . S
H2375 C2362 0.961 . S
H2376 C2362 0.961 . S
H2377 C2363 0.958 . S
H2378 C2363 0.961 . S
H2379 C2363 0.960 . S
C2380 C2381 1.391 . S
C2380 C2382 1.394 . S
C2380 H2396 0.931 . S
C2381 C2380 1.391 . S
C2381 C2385 1.376 . S
C2382 C2380 1.394 . S
C2382 C2383 1.369 . S
C2382 C2386 1.531 . S
C2383 C2382 1.369 . S
C2383 C2384 1.410 . S
C2383 C2391 1.503 . S
C2384 C2383 1.410 . S
C2384 C2385 1.392 . S
C2384 C2387 1.511 . S
C2385 C2381 1.376 . S
C2385 C2384 1.392 . S
C2385 H2397 0.929 . S
C2386 C2382 1.531 . S
C2386 H2398 0.960 . S
C2386 H2399 0.962 . S
C2386 H2400 0.960 . S
C2387 C2384 1.511 . S
C2387 H2401 0.961 . S
C2387 H2402 0.961 . S
C2387 H2403 0.961 . S
C2388 C2389 1.370 . S
C2388 C2390 1.363 . S
C2388 H2404 0.931 . S
C2389 C2388 1.370 . S
C2389 C2393 1.408 . S
C2390 C2388 1.363 . S
C2390 C2391 1.370 . S
C2390 C2394 1.524 . S
C2391 C2383 1.503 . S
C2391 C2390 1.370 . S
C2391 C2392 1.403 . S
C2392 C2391 1.403 . S
C2392 C2393 1.404 . S
C2392 C2395 1.539 . S
C2393 C2389 1.408 . S
C2393 C2392 1.404 . S
C2393 H2405 0.930 . S
C2394 C2390 1.524 . S
C2394 H2406 0.956 . S
C2394 H2407 0.961 . S
C2394 H2408 0.961 . S
C2395 C2392 1.539 . S
C2395 H2409 0.958 . S
C2395 H2410 0.961 . S
C2395 H2411 0.960 . S
H2396 C2380 0.931 . S
H2397 C2385 0.929 . S
H2398 C2386 0.960 . S
H2399 C2386 0.962 . S
H2400 C2386 0.960 . S
H2401 C2387 0.961 . S
H2402 C2387 0.961 . S
H2403 C2387 0.961 . S
H2404 C2388 0.931 . S
H2405 C2393 0.930 . S
H2406 C2394 0.956 . S
H2407 C2394 0.961 . S
H2408 C2394 0.961 . S
H2409 C2395 0.958 . S
H2410 C2395 0.961 . S
H2411 C2395 0.960 . S
C2412 C2413 1.391 . S
C2412 C2414 1.394 . S
C2412 H2428 0.931 . S
C2413 C2412 1.391 . S
C2413 C2417 1.376 . S
C2414 C2412 1.394 . S
C2414 C2415 1.369 . S
C2414 C2418 1.531 . S
C2415 C2414 1.369 . S
C2415 C2416 1.410 . S
C2415 C2423 1.503 . S
C2416 C2415 1.410 . S
C2416 C2417 1.392 . S
C2416 C2419 1.511 . S
C2417 C2413 1.376 . S
C2417 C2416 1.392 . S
C2417 H2429 0.929 . S
C2418 C2414 1.531 . S
C2418 H2430 0.960 . S
C2418 H2431 0.962 . S
C2418 H2432 0.960 . S
C2419 C2416 1.511 . S
C2419 H2433 0.961 . S
C2419 H2434 0.961 . S
C2419 H2435 0.961 . S
C2420 C2421 1.370 . S
C2420 C2422 1.363 . S
C2420 H2436 0.931 . S
C2421 C2420 1.370 . S
C2421 C2425 1.408 . S
C2422 C2420 1.363 . S
C2422 C2423 1.370 . S
C2422 C2426 1.524 . S
C2423 C2415 1.503 . S
C2423 C2422 1.370 . S
C2423 C2424 1.403 . S
C2424 C2423 1.403 . S
C2424 C2425 1.404 . S
C2424 C2427 1.539 . S
C2425 C2421 1.408 . S
C2425 C2424 1.404 . S
C2425 H2437 0.930 . S
C2426 C2422 1.524 . S
C2426 H2438 0.956 . S
C2426 H2439 0.961 . S
C2426 H2440 0.961 . S
C2427 C2424 1.539 . S
C2427 H2441 0.958 . S
C2427 H2442 0.961 . S
C2427 H2443 0.960 . S
H2428 C2412 0.931 . S
H2429 C2417 0.929 . S
H2430 C2418 0.960 . S
H2431 C2418 0.962 . S
H2432 C2418 0.960 . S
H2433 C2419 0.961 . S
H2434 C2419 0.961 . S
H2435 C2419 0.961 . S
H2436 C2420 0.931 . S
H2437 C2425 0.930 . S
H2438 C2426 0.956 . S
H2439 C2426 0.961 . S
H2440 C2426 0.961 . S
H2441 C2427 0.958 . S
H2442 C2427 0.961 . S
H2443 C2427 0.960 . S
C2444 C2445 1.391 . S
C2444 C2446 1.394 . S
C2444 H2460 0.931 . S
C2445 C2444 1.391 . S
C2445 C2449 1.376 . S
C2446 C2444 1.394 . S
C2446 C2447 1.369 . S
C2446 C2450 1.531 . S
C2447 C2446 1.369 . S
C2447 C2448 1.410 . S
C2447 C2455 1.503 . S
C2448 C2447 1.410 . S
C2448 C2449 1.392 . S
C2448 C2451 1.511 . S
C2449 C2445 1.376 . S
C2449 C2448 1.392 . S
C2449 H2461 0.929 . S
C2450 C2446 1.531 . S
C2450 H2462 0.960 . S
C2450 H2463 0.962 . S
C2450 H2464 0.960 . S
C2451 C2448 1.511 . S
C2451 H2465 0.961 . S
C2451 H2466 0.961 . S
C2451 H2467 0.961 . S
C2452 C2453 1.370 . S
C2452 C2454 1.363 . S
C2452 H2468 0.931 . S
C2453 C2452 1.370 . S
C2453 C2457 1.408 . S
C2454 C2452 1.363 . S
C2454 C2455 1.370 . S
C2454 C2458 1.524 . S
C2455 C2447 1.503 . S
C2455 C2454 1.370 . S
C2455 C2456 1.403 . S
C2456 C2455 1.403 . S
C2456 C2457 1.404 . S
C2456 C2459 1.539 . S
C2457 C2453 1.408 . S
C2457 C2456 1.404 . S
C2457 H2469 0.930 . S
C2458 C2454 1.524 . S
C2458 H2470 0.956 . S
C2458 H2471 0.961 . S
C2458 H2472 0.961 . S
C2459 C2456 1.539 . S
C2459 H2473 0.958 . S
C2459 H2474 0.961 . S
C2459 H2475 0.960 . S
H2460 C2444 0.931 . S
H2461 C2449 0.929 . S
H2462 C2450 0.960 . S
H2463 C2450 0.962 . S
H2464 C2450 0.960 . S
H2465 C2451 0.961 . S
H2466 C2451 0.961 . S
H2467 C2451 0.961 . S
H2468 C2452 0.931 . S
H2469 C2457 0.930 . S
H2470 C2458 0.956 . S
H2471 C2458 0.961 . S
H2472 C2458 0.961 . S
H2473 C2459 0.958 . S
H2474 C2459 0.961 . S
H2475 C2459 0.960 . S
C2476 C2477 1.391 . S
C2476 C2478 1.394 . S
C2476 H2492 0.931 . S
C2477 C2476 1.391 . S
C2477 C2481 1.376 . S
C2478 C2476 1.394 . S
C2478 C2479 1.369 . S
C2478 C2482 1.531 . S
C2479 C2478 1.369 . S
C2479 C2480 1.410 . S
C2479 C2487 1.503 . S
C2480 C2479 1.410 . S
C2480 C2481 1.392 . S
C2480 C2483 1.511 . S
C2481 C2477 1.376 . S
C2481 C2480 1.392 . S
C2481 H2493 0.929 . S
C2482 C2478 1.531 . S
C2482 H2494 0.960 . S
C2482 H2495 0.962 . S
C2482 H2496 0.960 . S
C2483 C2480 1.511 . S
C2483 H2497 0.961 . S
C2483 H2498 0.961 . S
C2483 H2499 0.961 . S
C2484 C2485 1.370 . S
C2484 C2486 1.363 . S
C2484 H2500 0.931 . S
C2485 C2484 1.370 . S
C2485 C2489 1.408 . S
C2486 C2484 1.363 . S
C2486 C2487 1.370 . S
C2486 C2490 1.524 . S
C2487 C2479 1.503 . S
C2487 C2486 1.370 . S
C2487 C2488 1.403 . S
C2488 C2487 1.403 . S
C2488 C2489 1.404 . S
C2488 C2491 1.539 . S
C2489 C2485 1.408 . S
C2489 C2488 1.404 . S
C2489 H2501 0.930 . S
C2490 C2486 1.524 . S
C2490 H2502 0.956 . S
C2490 H2503 0.961 . S
C2490 H2504 0.961 . S
C2491 C2488 1.539 . S
C2491 H2505 0.958 . S
C2491 H2506 0.961 . S
C2491 H2507 0.960 . S
H2492 C2476 0.931 . S
H2493 C2481 0.929 . S
H2494 C2482 0.960 . S
H2495 C2482 0.962 . S
H2496 C2482 0.960 . S
H2497 C2483 0.961 . S
H2498 C2483 0.961 . S
H2499 C2483 0.961 . S
H2500 C2484 0.931 . S
H2501 C2489 0.930 . S
H2502 C2490 0.956 . S
H2503 C2490 0.961 . S
H2504 C2490 0.961 . S
H2505 C2491 0.958 . S
H2506 C2491 0.961 . S
H2507 C2491 0.960 . S
C2508 C2509 1.391 . S
C2508 C2510 1.394 . S
C2508 H2524 0.931 . S
C2509 C2508 1.391 . S
C2509 C2513 1.376 . S
C2510 C2508 1.394 . S
C2510 C2511 1.369 . S
C2510 C2514 1.531 . S
C2511 C2510 1.369 . S
C2511 C2512 1.410 . S
C2511 C2519 1.503 . S
C2512 C2511 1.410 . S
C2512 C2513 1.392 . S
C2512 C2515 1.511 . S
C2513 C2509 1.376 . S
C2513 C2512 1.392 . S
C2513 H2525 0.929 . S
C2514 C2510 1.531 . S
C2514 H2526 0.960 . S
C2514 H2527 0.962 . S
C2514 H2528 0.960 . S
C2515 C2512 1.511 . S
C2515 H2529 0.961 . S
C2515 H2530 0.961 . S
C2515 H2531 0.961 . S
C2516 C2517 1.370 . S
C2516 C2518 1.363 . S
C2516 H2532 0.931 . S
C2517 C2516 1.370 . S
C2517 C2521 1.408 . S
C2518 C2516 1.363 . S
C2518 C2519 1.370 . S
C2518 C2522 1.524 . S
C2519 C2511 1.503 . S
C2519 C2518 1.370 . S
C2519 C2520 1.403 . S
C2520 C2519 1.403 . S
C2520 C2521 1.404 . S
C2520 C2523 1.539 . S
C2521 C2517 1.408 . S
C2521 C2520 1.404 . S
C2521 H2533 0.930 . S
C2522 C2518 1.524 . S
C2522 H2534 0.956 . S
C2522 H2535 0.961 . S
C2522 H2536 0.961 . S
C2523 C2520 1.539 . S
C2523 H2537 0.958 . S
C2523 H2538 0.961 . S
C2523 H2539 0.960 . S
H2524 C2508 0.931 . S
H2525 C2513 0.929 . S
H2526 C2514 0.960 . S
H2527 C2514 0.962 . S
H2528 C2514 0.960 . S
H2529 C2515 0.961 . S
H2530 C2515 0.961 . S
H2531 C2515 0.961 . S
H2532 C2516 0.931 . S
H2533 C2521 0.930 . S
H2534 C2522 0.956 . S
H2535 C2522 0.961 . S
H2536 C2522 0.961 . S
H2537 C2523 0.958 . S
H2538 C2523 0.961 . S
H2539 C2523 0.960 . S
C2540 C2541 1.391 . S
C2540 C2542 1.394 . S
C2540 H2556 0.931 . S
C2541 C2540 1.391 . S
C2541 C2545 1.376 . S
C2542 C2540 1.394 . S
C2542 C2543 1.369 . S
C2542 C2546 1.531 . S
C2543 C2542 1.369 . S
C2543 C2544 1.410 . S
C2543 C2551 1.503 . S
C2544 C2543 1.410 . S
C2544 C2545 1.392 . S
C2544 C2547 1.511 . S
C2545 C2541 1.376 . S
C2545 C2544 1.392 . S
C2545 H2557 0.929 . S
C2546 C2542 1.531 . S
C2546 H2558 0.960 . S
C2546 H2559 0.962 . S
C2546 H2560 0.960 . S
C2547 C2544 1.511 . S
C2547 H2561 0.961 . S
C2547 H2562 0.961 . S
C2547 H2563 0.961 . S
C2548 C2549 1.370 . S
C2548 C2550 1.363 . S
C2548 H2564 0.931 . S
C2549 C2548 1.370 . S
C2549 C2553 1.408 . S
C2550 C2548 1.363 . S
C2550 C2551 1.370 . S
C2550 C2554 1.524 . S
C2551 C2543 1.503 . S
C2551 C2550 1.370 . S
C2551 C2552 1.403 . S
C2552 C2551 1.403 . S
C2552 C2553 1.404 . S
C2552 C2555 1.539 . S
C2553 C2549 1.408 . S
C2553 C2552 1.404 . S
C2553 H2565 0.930 . S
C2554 C2550 1.524 . S
C2554 H2566 0.956 . S
C2554 H2567 0.961 . S
C2554 H2568 0.961 . S
C2555 C2552 1.539 . S
C2555 H2569 0.958 . S
C2555 H2570 0.961 . S
C2555 H2571 0.960 . S
H2556 C2540 0.931 . S
H2557 C2545 0.929 . S
H2558 C2546 0.960 . S
H2559 C2546 0.962 . S
H2560 C2546 0.960 . S
H2561 C2547 0.961 . S
H2562 C2547 0.961 . S
H2563 C2547 0.961 . S
H2564 C2548 0.931 . S
H2565 C2553 0.930 . S
H2566 C2554 0.956 . S
H2567 C2554 0.961 . S
H2568 C2554 0.961 . S
H2569 C2555 0.958 . S
H2570 C2555 0.961 . S
H2571 C2555 0.960 . S
C2572 C2573 1.391 . S
C2572 C2574 1.394 . S
C2572 H2588 0.931 . S
C2573 C2572 1.391 . S
C2573 C2577 1.376 . S
C2574 C2572 1.394 . S
C2574 C2575 1.369 . S
C2574 C2578 1.531 . S
C2575 C2574 1.369 . S
C2575 C2576 1.410 . S
C2575 C2583 1.503 . S
C2576 C2575 1.410 . S
C2576 C2577 1.392 . S
C2576 C2579 1.511 . S
C2577 C2573 1.376 . S
C2577 C2576 1.392 . S
C2577 H2589 0.929 . S
C2578 C2574 1.531 . S
C2578 H2590 0.960 . S
C2578 H2591 0.962 . S
C2578 H2592 0.960 . S
C2579 C2576 1.511 . S
C2579 H2593 0.961 . S
C2579 H2594 0.961 . S
C2579 H2595 0.961 . S
C2580 C2581 1.370 . S
C2580 C2582 1.363 . S
C2580 H2596 0.931 . S
C2581 C2580 1.370 . S
C2581 C2585 1.408 . S
C2582 C2580 1.363 . S
C2582 C2583 1.370 . S
C2582 C2586 1.524 . S
C2583 C2575 1.503 . S
C2583 C2582 1.370 . S
C2583 C2584 1.403 . S
C2584 C2583 1.403 . S
C2584 C2585 1.404 . S
C2584 C2587 1.539 . S
C2585 C2581 1.408 . S
C2585 C2584 1.404 . S
C2585 H2597 0.930 . S
C2586 C2582 1.524 . S
C2586 H2598 0.956 . S
C2586 H2599 0.961 . S
C2586 H2600 0.961 . S
C2587 C2584 1.539 . S
C2587 H2601 0.958 . S
C2587 H2602 0.961 . S
C2587 H2603 0.960 . S
H2588 C2572 0.931 . S
H2589 C2577 0.929 . S
H2590 C2578 0.960 . S
H2591 C2578 0.962 . S
H2592 C2578 0.960 . S
H2593 C2579 0.961 . S
H2594 C2579 0.961 . S
H2595 C2579 0.961 . S
H2596 C2580 0.931 . S
H2597 C2585 0.930 . S
H2598 C2586 0.956 . S
H2599 C2586 0.961 . S
H2600 C2586 0.961 . S
H2601 C2587 0.958 . S
H2602 C2587 0.961 . S
H2603 C2587 0.960 . S
C2604 C2605 1.391 . S
C2604 C2606 1.394 . S
C2604 H2620 0.931 . S
C2605 C2604 1.391 . S
C2605 C2609 1.376 . S
C2606 C2604 1.394 . S
C2606 C2607 1.369 . S
C2606 C2610 1.531 . S
C2607 C2606 1.369 . S
C2607 C2608 1.410 . S
C2607 C2615 1.503 . S
C2608 C2607 1.410 . S
C2608 C2609 1.392 . S
C2608 C2611 1.511 . S
C2609 C2605 1.376 . S
C2609 C2608 1.392 . S
C2609 H2621 0.929 . S
C2610 C2606 1.531 . S
C2610 H2622 0.960 . S
C2610 H2623 0.962 . S
C2610 H2624 0.960 . S
C2611 C2608 1.511 . S
C2611 H2625 0.961 . S
C2611 H2626 0.961 . S
C2611 H2627 0.961 . S
C2612 C2613 1.370 . S
C2612 C2614 1.363 . S
C2612 H2628 0.931 . S
C2613 C2612 1.370 . S
C2613 C2617 1.408 . S
C2614 C2612 1.363 . S
C2614 C2615 1.370 . S
C2614 C2618 1.524 . S
C2615 C2607 1.503 . S
C2615 C2614 1.370 . S
C2615 C2616 1.403 . S
C2616 C2615 1.403 . S
C2616 C2617 1.404 . S
C2616 C2619 1.539 . S
C2617 C2613 1.408 . S
C2617 C2616 1.404 . S
C2617 H2629 0.930 . S
C2618 C2614 1.524 . S
C2618 H2630 0.956 . S
C2618 H2631 0.961 . S
C2618 H2632 0.961 . S
C2619 C2616 1.539 . S
C2619 H2633 0.958 . S
C2619 H2634 0.961 . S
C2619 H2635 0.960 . S
H2620 C2604 0.931 . S
H2621 C2609 0.929 . S
H2622 C2610 0.960 . S
H2623 C2610 0.962 . S
H2624 C2610 0.960 . S
H2625 C2611 0.961 . S
H2626 C2611 0.961 . S
H2627 C2611 0.961 . S
H2628 C2612 0.931 . S
H2629 C2617 0.930 . S
H2630 C2618 0.956 . S
H2631 C2618 0.961 . S
H2632 C2618 0.961 . S
H2633 C2619 0.958 . S
H2634 C2619 0.961 . S
H2635 C2619 0.960 . S
C2636 C2637 1.391 . S
C2636 C2638 1.394 . S
C2636 H2652 0.931 . S
C2637 C2636 1.391 . S
C2637 C2641 1.376 . S
C2638 C2636 1.394 . S
C2638 C2639 1.369 . S
C2638 C2642 1.531 . S
C2639 C2638 1.369 . S
C2639 C2640 1.410 . S
C2639 C2647 1.503 . S
C2640 C2639 1.410 . S
C2640 C2641 1.392 . S
C2640 C2643 1.511 . S
C2641 C2637 1.376 . S
C2641 C2640 1.392 . S
C2641 H2653 0.929 . S
C2642 C2638 1.531 . S
C2642 H2654 0.960 . S
C2642 H2655 0.962 . S
C2642 H2656 0.960 . S
C2643 C2640 1.511 . S
C2643 H2657 0.961 . S
C2643 H2658 0.961 . S
C2643 H2659 0.961 . S
C2644 C2645 1.370 . S
C2644 C2646 1.363 . S
C2644 H2660 0.931 . S
C2645 C2644 1.370 . S
C2645 C2649 1.408 . S
C2646 C2644 1.363 . S
C2646 C2647 1.370 . S
C2646 C2650 1.524 . S
C2647 C2639 1.503 . S
C2647 C2646 1.370 . S
C2647 C2648 1.403 . S
C2648 C2647 1.403 . S
C2648 C2649 1.404 . S
C2648 C2651 1.539 . S
C2649 C2645 1.408 . S
C2649 C2648 1.404 . S
C2649 H2661 0.930 . S
C2650 C2646 1.524 . S
C2650 H2662 0.956 . S
C2650 H2663 0.961 . S
C2650 H2664 0.961 . S
C2651 C2648 1.539 . S
C2651 H2665 0.958 . S
C2651 H2666 0.961 . S
C2651 H2667 0.960 . S
H2652 C2636 0.931 . S
H2653 C2641 0.929 . S
H2654 C2642 0.960 . S
H2655 C2642 0.962 . S
H2656 C2642 0.960 . S
H2657 C2643 0.961 . S
H2658 C2643 0.961 . S
H2659 C2643 0.961 . S
H2660 C2644 0.931 . S
H2661 C2649 0.930 . S
H2662 C2650 0.956 . S
H2663 C2650 0.961 . S
H2664 C2650 0.961 . S
H2665 C2651 0.958 . S
H2666 C2651 0.961 . S
H2667 C2651 0.960 . S
C2668 C2669 1.391 . S
C2668 C2670 1.394 . S
C2668 H2684 0.931 . S
C2669 C2668 1.391 . S
C2669 C2673 1.376 . S
C2670 C2668 1.394 . S
C2670 C2671 1.369 . S
C2670 C2674 1.531 . S
C2671 C2670 1.369 . S
C2671 C2672 1.410 . S
C2671 C2679 1.503 . S
C2672 C2671 1.410 . S
C2672 C2673 1.392 . S
C2672 C2675 1.511 . S
C2673 C2669 1.376 . S
C2673 C2672 1.392 . S
C2673 H2685 0.929 . S
C2674 C2670 1.531 . S
C2674 H2686 0.960 . S
C2674 H2687 0.962 . S
C2674 H2688 0.960 . S
C2675 C2672 1.511 . S
C2675 H2689 0.961 . S
C2675 H2690 0.961 . S
C2675 H2691 0.961 . S
C2676 C2677 1.370 . S
C2676 C2678 1.363 . S
C2676 H2692 0.931 . S
C2677 C2676 1.370 . S
C2677 C2681 1.408 . S
C2678 C2676 1.363 . S
C2678 C2679 1.370 . S
C2678 C2682 1.524 . S
C2679 C2671 1.503 . S
C2679 C2678 1.370 . S
C2679 C2680 1.403 . S
C2680 C2679 1.403 . S
C2680 C2681 1.404 . S
C2680 C2683 1.539 . S
C2681 C2677 1.408 . S
C2681 C2680 1.404 . S
C2681 H2693 0.930 . S
C2682 C2678 1.524 . S
C2682 H2694 0.956 . S
C2682 H2695 0.961 . S
C2682 H2696 0.961 . S
C2683 C2680 1.539 . S
C2683 H2697 0.958 . S
C2683 H2698 0.961 . S
C2683 H2699 0.960 . S
H2684 C2668 0.931 . S
H2685 C2673 0.929 . S
H2686 C2674 0.960 . S
H2687 C2674 0.962 . S
H2688 C2674 0.960 . S
H2689 C2675 0.961 . S
H2690 C2675 0.961 . S
H2691 C2675 0.961 . S
H2692 C2676 0.931 . S
H2693 C2681 0.930 . S
H2694 C2682 0.956 . S
H2695 C2682 0.961 . S
H2696 C2682 0.961 . S
H2697 C2683 0.958 . S
H2698 C2683 0.961 . S
H2699 C2683 0.960 . S
C973 C162 1.443 . S
C981 C272 1.382 . S
C1005 C174 1.483 . S
C1013 C356 1.430 . S
C1037 C150 1.448 . S
C1045 C450 1.433 . S
C1069 C138 1.432 . S
C1077 C366 1.420 1_556 S
C1109 C440 1.361 . S
C1101 C114 1.421 . S
C1133 C126 1.393 . S
C1141 C282 1.396 1_556 S
C1173 C283 1.428 . S
C1165 C136 1.471 . S
C1205 C367 1.477 . S
C1197 C112 1.519 . S
C1229 C124 1.517 . S
C1237 C459 1.468 1_556 S
C1261 C160 1.496 . S
C1269 C375 1.443 . S
C1293 C172 1.451 . S
C1301 C451 1.407 . S
C1333 C291 1.447 . S
C1325 C148 1.454 . S
C1365 C524 1.402 . S
C1357 C18 1.450 . S
C1389 C30 1.460 . S
C1397 C608 1.409 . S
C1421 C6 1.431 . S
C1429 C702 1.443 . S
C1453 C210 1.426 . S
C1461 C618 1.431 . S
C1485 C186 1.441 . S
C1493 C692 1.392 . S
C1517 C198 1.405 . S
C1525 C534 1.393 . S
C1549 C208 1.482 . S
C1557 C535 1.429 . S
C1581 C184 1.512 . S
C1589 C619 1.472 . S
C1621 C711 1.487 . S
C1613 C196 1.521 . S
C1645 C16 1.460 . S
C1653 C627 1.455 . S
C1685 C703 1.429 . S
C1677 C28 1.476 . S
C1709 C4 1.481 . S
C1717 C543 1.434 . S
C1749 C776 1.386 . S
C1741 C90 1.445 . S
C1773 C102 1.460 . S
C1781 C860 1.410 . S
C1813 C954 1.438 . S
C1805 C78 1.454 . S
C1845 C870 1.430 . S
C1837 C66 1.422 . S
C1877 C944 1.376 . S
C1869 C42 1.424 . S
C1901 C54 1.412 . S
C1909 C786 1.404 . S
C1933 C64 1.480 . S
C1941 C787 1.428 . S
C1965 C40 1.532 . S
C1973 C871 1.483 . S
C2005 C963 1.467 . S
C1997 C52 1.512 . S
C2029 C88 1.461 . S
C2037 C879 1.454 . S
C2061 C100 1.488 . S
C2069 C955 1.431 . S
C2093 C76 1.465 . S
C2101 C795 1.445 . S
C2125 C189 1.572 . S
C2133 C279 1.440 . S
C2165 C363 1.462 . S
C2157 C201 1.612 . S
C2189 C213 1.556 . S
C2197 C456 1.403 . S
C2221 C81 1.579 . S
C2229 C372 1.415 . S
C2253 C93 1.595 . S
C2261 C447 1.469 . S
C2293 C288 1.360 . S
C2285 C105 1.549 . S
C2317 C45 1.549 . S
C2325 C531 1.443 . S
C2349 C57 1.626 . S
C2357 C615 1.500 . S
C2381 C69 1.582 . S
C2389 C708 1.373 . S
C2413 C153 1.577 . S
C2421 C624 1.410 . S
C2453 C699 1.438 . S
C2445 C165 1.587 . S
C2477 C177 1.525 . S
C2485 C540 1.388 . S
C2509 C117 1.561 . S
C2517 C783 1.461 . S
C2541 C129 1.620 . S
C2549 C867 1.462 . S
C2581 C960 1.390 . S
C2573 C141 1.555 . S
C2605 C9 1.605 . S
C2613 C876 1.391 . S
C2637 C21 1.597 . S
C2645 C951 1.466 . S
C2669 C33 1.531 . S
C2677 C792 1.392 . S
