# Generated by pormake.
# Topology zzz, (3,6)-cn, num edge types: 1
# Building blocks:
#     Node 0, Type 0, BuildingBlock: QEWDON_clean_linker_0, # of connection points: 3
#     Node 1, Type 0, BuildingBlock: QEWDON_clean_linker_0, # of connection points: 3
#     Node 2, Type 0, BuildingBlock: QEWDON_clean_linker_0, # of connection points: 3
#     Node 3, Type 0, BuildingBlock: QEWDON_clean_linker_0, # of connection points: 3
#     Node 4, Type 0, BuildingBlock: QEWDON_clean_linker_0, # of connection points: 3
#     Node 5, Type 0, BuildingBlock: QEWDON_clean_linker_0, # of connection points: 3
#     Node 6, Type 0, BuildingBlock: QEWDON_clean_linker_0, # of connection points: 3
#     Node 7, Type 0, BuildingBlock: QEWDON_clean_linker_0, # of connection points: 3
#     Node 8, Type 1, BuildingBlock: KUMBOL_clean_sbu_1, # of connection points: 6
#     Node 9, Type 1, BuildingBlock: KUMBOL_clean_sbu_1, # of connection points: 6
#     Node 10, Type 1, BuildingBlock: KUMBOL_clean_sbu_1, # of connection points: 6
#     Node 11, Type 1, BuildingBlock: KUMBOL_clean_sbu_1, # of connection points: 6
#     Edge 12, Type (0, 1), BuildingBlock: OJICUG_clean_linker_0, # of connection points: 2
#     Edge 13, Type (0, 1), BuildingBlock: OJICUG_clean_linker_0, # of connection points: 2
#     Edge 14, Type (0, 1), BuildingBlock: OJICUG_clean_linker_0, # of connection points: 2
#     Edge 15, Type (0, 1), BuildingBlock: OJICUG_clean_linker_0, # of connection points: 2
#     Edge 16, Type (0, 1), BuildingBlock: OJICUG_clean_linker_0, # of connection points: 2
#     Edge 17, Type (0, 1), BuildingBlock: OJICUG_clean_linker_0, # of connection points: 2
#     Edge 18, Type (0, 1), BuildingBlock: OJICUG_clean_linker_0, # of connection points: 2
#     Edge 19, Type (0, 1), BuildingBlock: OJICUG_clean_linker_0, # of connection points: 2
#     Edge 20, Type (0, 1), BuildingBlock: OJICUG_clean_linker_0, # of connection points: 2
#     Edge 21, Type (0, 1), BuildingBlock: OJICUG_clean_linker_0, # of connection points: 2
#     Edge 22, Type (0, 1), BuildingBlock: OJICUG_clean_linker_0, # of connection points: 2
#     Edge 23, Type (0, 1), BuildingBlock: OJICUG_clean_linker_0, # of connection points: 2
#     Edge 24, Type (0, 1), BuildingBlock: OJICUG_clean_linker_0, # of connection points: 2
#     Edge 25, Type (0, 1), BuildingBlock: OJICUG_clean_linker_0, # of connection points: 2
#     Edge 26, Type (0, 1), BuildingBlock: OJICUG_clean_linker_0, # of connection points: 2
#     Edge 27, Type (0, 1), BuildingBlock: OJICUG_clean_linker_0, # of connection points: 2
#     Edge 28, Type (0, 1), BuildingBlock: OJICUG_clean_linker_0, # of connection points: 2
#     Edge 29, Type (0, 1), BuildingBlock: OJICUG_clean_linker_0, # of connection points: 2
#     Edge 30, Type (0, 1), BuildingBlock: OJICUG_clean_linker_0, # of connection points: 2
#     Edge 31, Type (0, 1), BuildingBlock: OJICUG_clean_linker_0, # of connection points: 2
#     Edge 32, Type (0, 1), BuildingBlock: OJICUG_clean_linker_0, # of connection points: 2
#     Edge 33, Type (0, 1), BuildingBlock: OJICUG_clean_linker_0, # of connection points: 2
#     Edge 34, Type (0, 1), BuildingBlock: OJICUG_clean_linker_0, # of connection points: 2
#     Edge 35, Type (0, 1), BuildingBlock: OJICUG_clean_linker_0, # of connection points: 2
# Relax obj value: 0.161
# Max RMSD: 0.113
# Mean RMSD: 0.044
data_MOF--net-zzz--node1-KUMBOL_clean_sbu_1--node2-QEWDON_clean_linker_0--edge1-OJICUG_clean_linker_0
_symmetry_space_group_name_H-M    P1
_symmetry_Int_Tables_number       1
_symmetry_cell_setting            triclinic
loop_
_symmetry_equiv_pos_as_xyz
'x, y, z'
_cell_length_a     39.463984
_cell_length_b     39.332582
_cell_length_c     11.516519
_cell_angle_alpha  89.977882
_cell_angle_beta   90.404345
_cell_angle_gamma 90.152956
loop_
_atom_site_label
_atom_site_type_symbol
_atom_site_fract_x
_atom_site_fract_y
_atom_site_fract_z
_atom_type_partial_charge
H0 H 0.78714 0.53818 0.19391 0.0
C1 C 0.80404 0.5428 0.26631 0.0
C2 C 0.83845 0.53833 0.24636 0.0
C3 C 0.79161 0.55096 0.37688 0.0
H4 H 0.88831 0.53615 0.31903 0.0
C5 C 0.86182 0.54082 0.33734 0.0
C6 C 0.85164 0.54601 0.45221 0.0
C7 C 0.81621 0.55228 0.47159 0.0
C8 C 0.75299 0.55489 0.38956 0.0
H9 H 0.80821 0.55715 0.55949 0.0
C10 C 0.73016 0.55942 0.29158 0.0
C11 C 0.69416 0.56007 0.30416 0.0
C12 C 0.73807 0.55219 0.49973 0.0
H13 H 0.75325 0.54813 0.57686 0.0
C14 C 0.70294 0.5536 0.51304 0.0
H15 H 0.7398 0.56308 0.20504 0.0
C16 C 0.68135 0.55731 0.4173 0.0
H17 H 0.6543 0.55723 0.43213 0.0
H18 H 0.69223 0.55109 0.5989 0.0
H19 H 1.02668 0.79357 0.1445 0.0
C20 C 0.02982 0.80965 0.21965 0.0
C21 C 0.03516 0.84405 0.19867 0.0
C22 C 0.02978 0.79627 0.3326 0.0
H23 H 0.04239 0.89358 0.27151 0.0
C24 C 0.03773 0.86702 0.29082 0.0
C25 C 0.03686 0.85631 0.40678 0.0
C26 C 0.033 0.82044 0.42772 0.0
C27 C 1.02648 0.75745 0.34592 0.0
H28 H 0.03373 0.8118 0.51672 0.0
C29 C 0.03084 0.73356 0.25105 0.0
C30 C 1.02436 0.69794 0.26368 0.0
C31 C 1.01754 0.74366 0.45395 0.0
H32 H 1.01356 0.75965 0.52879 0.0
C33 C 1.01284 0.70876 0.46801 0.0
H34 H 0.03894 0.74202 0.16662 0.0
C35 C 1.01565 0.68635 0.37476 0.0
H36 H 1.01141 0.65958 0.39031 0.0
H37 H 1.00655 0.69906 0.55259 0.0
H38 H 0.79474 0.99315 0.13792 0.0
C39 C 0.77941 1.00008 0.21157 0.0
C40 C 0.74565 0.98929 0.21193 0.0
C41 C 0.79289 1.01955 0.304 0.0
H42 H 0.69872 0.98869 0.30586 0.0
C43 C 0.72501 0.99681 0.30694 0.0
C44 C 0.73534 1.0187 0.39505 0.0
C45 C 0.76986 1.02989 0.39484 0.0
C46 C 0.83087 1.02742 0.30543 0.0
H47 H 0.77824 0.04702 0.46268 0.0
C48 C 0.85183 1.02719 0.20307 0.0
C49 C 0.88793 1.02947 0.21111 0.0
C50 C 0.84728 1.03226 0.41299 0.0
H51 H 0.83323 1.03234 0.49326 0.0
C52 C 0.88241 0.03559 0.42034 0.0
H53 H 0.84056 1.0247 0.11768 0.0
C54 C 0.90246 0.03331 0.32153 0.0
H55 H 0.92968 0.03496 0.33071 0.0
H56 H 0.89424 0.0395 0.50412 0.0
H57 H 0.48818 0.80905 0.22669 0.0
C58 C 0.49719 0.7906 0.28879 0.0
C59 C 0.47911 0.76017 0.29616 0.0
C60 C 0.52636 0.79664 0.35694 0.0
H61 H 0.47552 0.7112 0.37479 0.0
C62 C 0.4886 0.73544 0.37716 0.0
C63 C 0.51554 0.74003 0.45532 0.0
C64 C 0.53526 0.77064 0.44215 0.0
C65 C 0.54657 0.82979 0.33595 0.0
H66 H 0.55714 0.77364 0.49785 0.0
C67 C 0.54098 0.85246 0.23784 0.0
C68 C 0.56049 0.88285 0.22153 0.0
C69 C 0.57218 0.83935 0.41515 0.0
H70 H 0.57765 0.82453 0.49181 0.0
C71 C 0.59162 0.86857 0.39818 0.0
H72 H 0.52244 0.84672 0.1715 0.0
C73 C 0.58582 0.89007 0.30397 0.0
H74 H 0.60128 0.91275 0.29612 0.0
H75 H 0.61167 0.87457 0.45904 0.0
H76 H 0.30652 0.59294 0.28761 0.0
C77 C 0.28779 0.58505 0.22411 0.0
C78 C 0.25663 0.6016 0.22431 0.0
C79 C 0.29497 0.55952 0.14267 0.0
H80 H 0.20709 0.60513 0.1501 0.0
C81 C 0.23172 0.59326 0.1422 0.0
C82 C 0.23712 0.56939 0.05403 0.0
C83 C 0.26899 0.55172 0.0565 0.0
C84 C 0.3304 0.54359 0.14598 0.0
H85 H 0.27337 0.5324 0.99165 0.0
C86 C 0.35216 0.5435 0.2479 0.0
C87 C 0.38633 0.53118 0.24454 0.0
C88 C 0.34398 0.53055 0.043 0.0
H89 H 0.3296 0.53073 0.96276 0.0
C90 C 0.37703 0.5183 0.03947 0.0
H91 H 0.34272 0.55248 0.33018 0.0
C92 C 0.3979 0.51871 0.13762 0.0
H93 H 0.42366 0.50986 0.12839 0.0
H94 H 0.38679 0.509 0.95845 0.0
H95 H 0.99664 0.31232 0.24642 0.0
C96 C 1.00428 0.29327 0.18411 0.0
C97 C 0.98741 0.26217 0.18492 0.0
C98 C 0.02958 0.30032 0.10257 0.0
H99 H 0.98341 0.21235 0.11249 0.0
C100 C 0.99557 0.23697 0.10421 0.0
C101 C 1.01954 0.24215 0.01664 0.0
C102 C 0.0372 0.27422 0.01755 0.0
C103 C 0.0445 0.33622 0.10274 0.0
H104 H 0.05623 0.27885 0.95224 0.0
C105 C 0.04634 0.35752 0.20514 0.0
C106 C 0.05595 0.39268 0.19909 0.0
C107 C 0.05327 0.351 0.99634 0.0
H108 H 0.05145 0.3367 0.91629 0.0
C109 C 0.06247 0.38514 0.98958 0.0
H110 H 0.04044 0.34692 0.28929 0.0
C111 C 0.06356 0.40565 0.08842 0.0
H112 H 0.06946 0.43226 0.077 0.0
H113 H 0.0678 0.39604 0.9056 0.0
H114 H 0.27756 0.99763 0.21285 0.0
C115 C 0.29592 1.00756 0.152 0.0
C116 C 0.32708 0.99096 0.14108 0.0
C117 C 0.28783 0.03558 0.08111 0.0
H118 H 0.37565 0.99025 0.05729 0.0
C119 C 0.35119 1.00275 0.06186 0.0
C120 C 0.34524 1.03109 0.99202 0.0
C121 C 0.31319 0.04758 1.00119 0.0
C122 C 0.25172 0.04891 0.082 0.0
H123 H 0.30805 0.06941 0.94663 0.0
C124 C 0.23076 0.05001 0.18399 0.0
C125 C 0.19564 0.0592 0.1769 0.0
C126 C 0.23664 0.05697 0.9749 0.0
H127 H 0.25092 0.05545 0.89513 0.0
C128 C 0.2024 0.06491 0.96702 0.0
H129 H 0.2417 0.04399 0.26792 0.0
C130 C 0.18221 0.0659 0.0657 0.0
H131 H 0.15554 0.07112 0.05391 0.0
H132 H 0.19127 0.06949 0.88258 0.0
H133 H 0.53928 0.28645 0.31818 0.0
C134 C 0.53696 0.30354 0.24528 0.0
C135 C 0.53815 0.33818 0.26975 0.0
C136 C 0.53625 0.29119 0.13107 0.0
H137 H 0.53958 0.38873 0.20161 0.0
C138 C 0.53758 0.36202 0.17971 0.0
C139 C 0.53796 0.35232 0.06262 0.0
C140 C 0.53658 0.3164 0.03823 0.0
C141 C 0.53958 0.25243 0.11473 0.0
H142 H 0.53689 0.30857 0.94836 0.0
C143 C 0.53397 0.22768 0.2067 0.0
C144 C 0.5421 0.19235 0.19351 0.0
C145 C 0.55195 0.23988 1.0091 0.0
H146 H 0.55775 0.25664 0.93761 0.0
C147 C 0.55859 0.20539 0.99418 0.0
H148 H 0.52397 0.23544 0.28945 0.0
C149 C 0.55348 0.18207 0.08347 0.0
H150 H 0.55879 0.15564 0.06532 0.0
H151 H 0.56883 0.19667 0.91289 0.0
C152 C 0.10422 0.11151 0.9531 0.0
C153 C 0.06932 0.12162 0.12129 0.0
C154 C 0.078 0.10154 0.02431 0.0
C155 C 0.08785 0.15131 0.14617 0.0
C156 C 0.12362 0.14074 0.97945 0.0
C157 C 0.11527 0.16058 0.07637 0.0
N158 N 0.11013 0.09313 0.85572 0.0
C159 C 0.13615 0.10164 0.78352 0.0
C160 C 0.15014 0.14973 0.90537 0.0
C161 C 0.15642 0.13007 0.80697 0.0
Gd162 Gd 1.00927 0.05543 0.5787 0.0
Gd163 Gd 0.07657 0.04444 0.82376 0.0
N164 N 0.06115 0.07218 0.99925 0.0
C165 C 0.04234 0.11123 0.19071 0.0
C166 C 0.03719 0.06045 0.07438 0.0
C167 C 1.02622 0.08046 0.16706 0.0
H168 H 1.02669 0.03543 0.06538 0.0
H169 H 1.00597 0.0716 0.22239 0.0
H170 H 0.05829 0.04201 0.34431 0.0
H171 H 0.14134 0.08639 0.70782 0.0
H172 H 0.06621 0.99821 0.19449 0.0
H173 H 0.03443 0.12626 0.26451 0.0
H174 H 0.08148 0.16699 0.22017 0.0
H175 H 0.93548 0.03377 0.71388 0.0
H176 H 0.16566 0.17194 0.92271 0.0
H177 H 0.1769 0.13676 0.74924 0.0
H178 H 0.97804 0.91721 0.26698 0.0
H179 H 0.12956 0.18336 0.09715 0.0
H180 H 0.90263 0.93806 0.58181 0.0
H181 H 0.89616 0.98566 0.71964 0.0
N182 N 0.96779 1.01186 0.58703 0.0
C183 C 0.97027 0.98711 0.5046 0.0
C184 C 0.94056 1.0122 0.65968 0.0
C185 C 0.92091 0.95866 0.58191 0.0
C186 C 0.91734 0.98532 0.66045 0.0
C187 C 0.94711 0.95967 0.50093 0.0
H188 H 0.93289 0.91315 0.41205 0.0
N189 N 1.01722 1.0165 0.42547 0.0
C190 C 0.99535 0.98969 0.42082 0.0
C191 C 1.02437 0.96763 0.25268 0.0
C192 C 0.99852 0.96444 0.33449 0.0
C193 C 0.04183 1.02017 0.34349 0.0
C194 C 0.04623 0.99549 0.25773 0.0
O195 O 0.06574 0.09818 0.75395 0.0
O196 O 1.00931 0.09551 0.72298 0.0
O197 O 1.00433 0.10132 0.47338 0.0
O198 O 0.96341 0.06498 0.48157 0.0
O199 O 1.02358 1.02315 0.86834 0.0
O200 O 0.98859 0.05802 0.76257 0.0
O201 O 0.04314 1.00863 0.57899 0.0
O202 O 0.04942 0.99472 0.76824 0.0
O203 O 0.10253 1.01644 0.96149 0.0
O204 O 0.12694 1.02499 0.79698 0.0
O205 O 0.06252 0.07442 0.52801 0.0
O206 O 0.09696 0.04017 0.63996 0.0
C207 C 0.03601 0.11309 0.75684 0.0
C208 C 0.99372 0.03781 0.85202 0.0
C209 C 0.949 0.12211 0.50179 0.0
C210 C 0.92813 0.18002 0.49491 0.0
C211 C 0.91179 0.14337 0.65336 0.0
C212 C 0.93106 0.11708 0.60585 0.0
C213 C 0.91057 0.17506 0.59867 0.0
C214 C 0.94708 0.15349 0.44644 0.0
C215 C 0.97202 0.09592 0.45691 0.0
C216 C 0.97599 0.9368 0.33265 0.0
C217 C 0.95033 0.93445 0.41547 0.0
H218 H 1.02755 0.94891 0.18477 0.0
C219 C 0.04434 0.98521 0.6596 0.0
C220 C 0.09212 0.05937 0.54758 0.0
C221 C 0.1316 0.97072 0.87011 0.0
C222 C 0.10615 0.91422 0.86229 0.0
C223 C 0.15681 0.92655 0.75131 0.0
C224 C 0.15703 0.95981 0.79396 0.0
C225 C 0.13133 0.90387 0.78432 0.0
C226 C 0.1068 0.94759 0.90543 0.0
C227 C 0.12687 1.00726 0.89178 0.0
H228 H 0.89841 0.13937 0.73396 0.0
H229 H 0.93247 0.09312 0.65175 0.0
H230 H 0.89643 0.19563 0.63756 0.0
H231 H 0.96153 0.15779 0.36787 0.0
H232 H 0.17615 0.91849 0.69117 0.0
H233 H 0.17616 0.97745 0.76356 0.0
H234 H 0.13148 0.87826 0.7498 0.0
H235 H 0.08771 0.95577 0.96646 0.0
C236 C 0.5638 0.92938 0.681 0.0
C237 C 0.51952 0.89541 0.77004 0.0
C238 C 0.53021 0.92512 0.71223 0.0
C239 C 0.54345 0.87054 0.80029 0.0
C240 C 0.58766 0.90379 0.70746 0.0
C241 C 0.57747 0.8748 0.76954 0.0
N242 N 0.57273 0.95758 0.61945 0.0
C243 C 0.60351 0.95835 0.56558 0.0
C244 C 0.62077 0.90751 0.66706 0.0
C245 C 0.62842 0.93437 0.59261 0.0
Gd246 Gd 0.55714 0.06887 0.81504 0.0
Gd247 Gd 0.52937 0.99892 0.59447 0.0
N248 N 0.50789 0.95026 0.68641 0.0
C249 C 0.48506 0.8916 0.79535 0.0
C250 C 0.47405 0.94607 0.70581 0.0
C251 C 0.46216 0.91684 0.76156 0.0
H252 H 0.45639 0.96553 0.67923 0.0
H253 H 0.43539 0.91384 0.7787 0.0
H254 H 0.64353 0.07228 0.81583 0.0
H255 H 0.60908 0.97687 0.49964 0.0
H256 H 0.68812 0.10871 0.73372 0.0
H257 H 0.47583 0.86911 0.83945 0.0
H258 H 0.53583 0.84775 0.84618 0.0
H259 H 0.49027 0.11944 0.85406 0.0
H260 H 0.63991 0.88857 0.68611 0.0
H261 H 0.65318 0.93606 0.55313 0.0
H262 H 0.62819 0.20636 0.59091 0.0
H263 H 0.59555 0.85508 0.79143 0.0
H264 H 0.51074 0.21511 0.69013 0.0
H265 H 0.47169 0.17724 0.79737 0.0
N266 N 0.53894 0.12471 0.77841 0.0
C267 C 0.56145 0.14587 0.72685 0.0
C268 C 0.50748 0.136 0.80833 0.0
C269 C 0.51899 0.18988 0.71514 0.0
C270 C 0.49691 0.16861 0.77599 0.0
C271 C 0.55193 0.17883 0.69149 0.0
H272 H 0.56906 0.22534 0.60943 0.0
N273 N 0.60297 0.10399 0.75856 0.0
C274 C 0.59453 0.13502 0.71561 0.0
C275 C 0.6532 0.14687 0.67283 0.0
C276 C 0.61929 0.15712 0.66999 0.0
C277 C 0.63634 0.09542 0.77178 0.0
C278 C 0.66183 0.11623 0.7265 0.0
O279 O 0.52265 0.99099 0.79004 0.0
O280 O 0.57211 1.0134 0.84677 0.0
O281 O 0.58132 0.09272 0.96448 0.0
O282 O 0.53619 0.06225 0.98736 0.0
O283 O 0.48261 1.02718 0.6638 0.0
O284 O 0.50102 0.05522 0.83091 0.0
O285 O 0.52671 0.08636 0.6546 0.0
O286 O 0.54308 0.05025 0.51091 0.0
O287 O 0.48825 0.99733 0.46802 0.0
O288 O 0.53156 0.96465 0.44733 0.0
O289 O 0.59927 0.03631 0.73791 0.0
O290 O 0.57947 1.02672 0.55486 0.0
C291 C 0.5483 0.99052 0.86252 0.0
C292 C 0.47648 0.04301 0.76353 0.0
C293 C 0.58189 0.05025 0.10814 0.0
C294 C 0.62694 1.00769 0.12122 0.0
C295 C 0.58339 1.01106 0.2695 0.0
C296 C 0.56779 0.03779 0.21067 0.0
C297 C 0.61279 0.99621 0.22618 0.0
C298 C 0.61114 0.0348 0.06327 0.0
C299 C 0.56322 0.07481 0.03642 0.0
C300 C 0.60961 0.18924 0.62789 0.0
C301 C 0.57596 0.20007 0.63855 0.0
H302 H 0.67301 0.16308 0.63866 0.0
C303 C 0.53477 0.08117 0.54533 0.0
C304 C 0.60501 0.0334 0.62616 0.0
C305 C 0.47783 0.94089 0.40611 0.0
C306 C 0.42063 0.91868 0.37852 0.0
C307 C 0.46695 0.88001 0.4186 0.0
C308 C 0.48953 0.90747 0.4242 0.0
C309 C 0.43259 0.88549 0.39477 0.0
C310 C 0.44342 0.94609 0.38333 0.0
C311 C 0.50054 0.97072 0.41582 0.0
H312 H 0.57272 1.00184 0.34914 0.0
H313 H 0.54442 0.04828 0.24387 0.0
H314 H 0.62468 0.97627 0.27662 0.0
H315 H 0.62094 0.04323 0.98071 0.0
H316 H 0.47613 0.85442 0.43235 0.0
H317 H 0.51595 0.90251 0.44342 0.0
H318 H 0.41547 0.86399 0.38853 0.0
H319 H 0.43437 0.9717 0.36709 0.0
C320 C 0.46874 0.48208 0.94939 0.0
C321 C 0.49467 0.45914 0.12484 0.0
C322 C 0.49206 0.48496 0.0401 0.0
C323 C 0.47345 0.43054 0.11784 0.0
C324 C 0.44718 0.45339 0.94315 0.0
C325 C 0.44987 0.42761 0.02708 0.0
N326 N 0.46638 0.50767 0.86968 0.0
C327 C 0.44018 0.50765 0.79131 0.0
C328 C 0.42305 0.45168 0.85388 0.0
C329 C 0.41924 0.47917 0.7786 0.0
Gd330 Gd 0.57399 0.54235 0.65309 0.0
Gd331 Gd 0.5059 0.55271 0.89351 0.0
N332 N 0.51296 0.51255 0.04342 0.0
C333 C 0.51888 0.46261 0.21342 0.0
C334 C 0.5362 0.51629 0.13099 0.0
C335 C 0.53994 0.49111 0.21573 0.0
H336 H 0.55227 0.53843 0.13449 0.0
H337 H 0.55896 0.49379 0.2833 0.0
H338 H 0.52481 0.53229 0.40748 0.0
H339 H 0.43427 0.52986 0.74075 0.0
H340 H 0.50204 0.56907 0.25372 0.0
H341 H 0.52158 0.44344 0.28034 0.0
H342 H 0.47513 0.41047 0.18208 0.0
H343 H 0.64204 0.58165 0.75941 0.0
H344 H 0.40624 0.42998 0.84564 0.0
H345 H 0.39924 0.47905 0.71378 0.0
H346 H 0.57612 0.66568 0.25933 0.0
H347 H 0.4336 0.40541 0.02313 0.0
H348 H 0.6654 0.66723 0.54425 0.0
H349 H 0.67864 0.63081 0.71383 0.0
N350 N 0.60897 0.58957 0.61541 0.0
C351 C 0.60206 0.6085 0.51986 0.0
C352 C 0.63628 0.5971 0.68433 0.0
C353 C 0.64962 0.64533 0.5627 0.0
C354 C 0.65706 0.62494 0.65881 0.0
C355 C 0.62162 0.63745 0.49239 0.0
H356 H 0.62634 0.68069 0.37679 0.0
N357 N 0.55842 0.56965 0.4759 0.0
C358 C 0.5748 0.59921 0.45139 0.0
C359 C 0.5374 0.60956 0.28834 0.0
C360 C 0.56497 0.61982 0.3566 0.0
C361 C 0.53457 0.55766 0.39979 0.0
C362 C 0.5224 0.57808 0.30926 0.0
O363 O 0.54171 0.50713 0.89555 0.0
O364 O 0.54668 0.49276 0.70716 0.0
O365 O 0.59978 0.51279 0.51999 0.0
O366 O 0.6236 0.52177 0.68645 0.0
O367 O 0.5585 0.5722 0.95257 0.0
O368 O 0.59475 0.54074 0.83854 0.0
O369 O 0.56404 0.5964 0.72123 0.0
O370 O 0.50755 0.5947 0.75522 0.0
O371 O 0.49859 0.5969 1.00488 0.0
O372 O 0.45895 0.5594 0.98661 0.0
O373 O 0.52051 0.52227 0.60642 0.0
O374 O 0.48613 0.55824 0.70769 0.0
C375 C 0.54293 0.48333 0.81612 0.0
C376 C 0.58891 0.55901 0.93239 0.0
C377 C 0.62836 0.46723 0.61652 0.0
C378 C 0.60425 0.41014 0.61906 0.0
C379 C 0.65335 0.42345 0.73895 0.0
C380 C 0.65327 0.45674 0.69663 0.0
C381 C 0.62883 0.40024 0.70112 0.0
C382 C 0.60435 0.44367 0.57712 0.0
C383 C 0.62375 0.50368 0.59256 0.0
C384 C 0.58336 0.64955 0.33161 0.0
C385 C 0.61202 0.65803 0.39814 0.0
H386 H 0.52859 0.62494 0.21618 0.0
C387 C 0.53445 0.61174 0.72019 0.0
C388 C 0.49141 0.53865 0.61697 0.0
C389 C 0.44262 0.6164 0.97651 0.0
C390 C 0.4204 0.67376 0.99138 0.0
C391 C 0.40438 0.63859 0.82778 0.0
C392 C 0.42445 0.61222 0.87164 0.0
C393 C 0.40263 0.66956 0.88676 0.0
C394 C 0.4401 0.64707 0.03644 0.0
C395 C 0.46646 0.59018 0.01766 0.0
H396 H 0.67228 0.41572 0.80204 0.0
H397 H 0.67181 0.47469 0.72997 0.0
H398 H 0.62932 0.37453 0.73479 0.0
H399 H 0.58566 0.45152 0.51326 0.0
H400 H 0.39083 0.63527 0.74651 0.0
H401 H 0.42631 0.5889 0.82223 0.0
H402 H 0.38797 0.69026 0.85029 0.0
H403 H 0.45477 0.6508 0.11554 0.0
C404 C 0.10992 0.4824 0.97959 0.0
C405 C 0.12001 0.51617 0.15185 0.0
C406 C 0.09971 0.50771 0.0545 0.0
C407 C 0.15016 0.49827 0.17339 0.0
C408 C 0.13951 0.46344 1.00291 0.0
C409 C 0.15958 0.47154 0.10021 0.0
N410 N 0.09122 0.47675 0.8822 0.0
C411 C 0.09974 0.45136 0.80697 0.0
C412 C 0.14855 0.43758 0.92568 0.0
C413 C 0.12854 0.43152 0.82732 0.0
Gd414 Gd 0.0492 0.5792 0.61934 0.0
Gd415 Gd 0.04166 0.5091 0.85656 0.0
N416 N 0.06974 0.52365 0.0333 0.0
C417 C 0.1092 0.54211 0.22551 0.0
C418 C 0.05751 0.54606 0.11316 0.0
C419 C 0.07768 0.55697 0.20633 0.0
H420 H 0.03213 0.55559 0.10671 0.0
H421 H 0.06854 0.57632 0.26495 0.0
H422 H 0.03443 0.53263 0.37891 0.0
H423 H 0.08421 0.44634 0.73131 0.0
H424 H 0.98984 0.52596 0.22984 0.0
H425 H 0.12436 0.54992 0.2997 0.0
H426 H 0.16601 0.50447 0.24767 0.0
H427 H 1.02672 0.65043 0.77178 0.0
H428 H 0.17103 0.42241 0.94062 0.0
H429 H 0.13524 0.41153 0.76721 0.0
H430 H 0.90739 0.61012 0.32763 0.0
H431 H 0.18266 0.45763 0.11866 0.0
H432 H 0.92794 0.67983 0.661 0.0
H433 H 0.97657 0.68609 0.79562 0.0
N434 N 1.00465 0.61896 0.64074 0.0
C435 C 0.97915 0.61674 0.56047 0.0
C436 C 1.00471 0.64494 0.7196 0.0
C437 C 0.94936 0.6628 0.65389 0.0
C438 C 0.9766 0.6662 0.73071 0.0
C439 C 0.95085 0.63862 0.56516 0.0
H440 H 0.90314 0.65243 0.48373 0.0
N441 N 1.00898 0.57209 0.46895 0.0
C442 C 0.98165 0.59313 0.47108 0.0
C443 C 0.95891 0.56601 0.2988 0.0
C444 C 0.95577 0.59043 0.38632 0.0
C445 C 1.01247 0.54875 0.38206 0.0
C446 C 0.98729 0.545 0.29703 0.0
O447 O 0.09441 0.52177 0.78403 0.0
O448 O 0.09098 0.57858 0.75835 0.0
O449 O 0.09291 0.58625 0.50711 0.0
O450 O 0.05661 0.62672 0.5283 0.0
O451 O 1.02067 0.56166 0.90942 0.0
O452 O 0.05425 0.59826 0.80605 0.0
O453 O 1.00327 0.54402 0.62036 0.0
O454 O 0.99118 0.53559 0.80971 0.0
O455 O 1.01554 0.48103 0.99291 0.0
O456 O 1.02299 0.45842 0.82433 0.0
O457 O 0.06836 0.52653 0.55931 0.0
O458 O 0.03622 0.49 0.67024 0.0
C459 C 0.10891 0.55186 0.78928 0.0
C460 C 0.03542 0.59177 0.89751 0.0
C461 C 0.11398 0.64155 0.54047 0.0
C462 C 0.17255 0.66039 0.53309 0.0
C463 C 0.13713 0.67841 0.69178 0.0
C464 C 0.11001 0.65991 0.64462 0.0
C465 C 0.16858 0.67839 0.63684 0.0
C466 C 0.14519 0.64228 0.48477 0.0
C467 C 0.08706 0.61876 0.49699 0.0
C468 C 0.92753 0.61192 0.3918 0.0
C469 C 0.92508 0.63595 0.4809 0.0
H470 H 0.93966 0.56324 0.23198 0.0
C471 C 0.9807 0.54187 0.70285 0.0
C472 C 0.05428 0.49618 0.5766 0.0
C473 C 0.97094 0.4483 0.90711 0.0
C474 C 0.91203 0.46647 0.91473 0.0
C475 C 0.92725 0.41582 0.80663 0.0
C476 C 0.9612 0.42043 0.83819 0.0
C477 C 0.90272 0.43879 0.84413 0.0
C478 C 0.94623 0.47093 0.94576 0.0
C479 C 1.00708 0.45643 0.92208 0.0
H480 H 0.13395 0.69211 0.77244 0.0
H481 H 0.08627 0.65934 0.69111 0.0
H482 H 0.18975 0.69193 0.67556 0.0
H483 H 0.1487 0.62747 0.40625 0.0
H484 H 0.91998 0.39454 0.75227 0.0
H485 H 0.98002 0.40289 0.8057 0.0
H486 H 0.87653 0.43477 0.81884 0.0
H487 H 0.95369 0.49201 1.00089 0.0
C488 C 0.14505 0.08532 0.28175 0.0
C489 C 0.17166 0.06118 0.28035 0.0
H490 H 0.09974 0.10377 0.36342 0.0
C491 C 0.1727 0.0377 0.37287 0.0
H492 H 0.1435 0.10455 0.21486 0.0
C493 C 0.14747 0.03762 0.45997 0.0
C494 C 0.12011 0.06089 0.4578 0.0
H495 H 0.19233 1.01854 0.37595 0.0
H496 H 0.14899 1.01856 0.52769 0.0
C497 C 0.11975 0.08504 0.36778 0.0
C498 C 0.51585 0.16563 0.37993 0.0
C499 C 0.54052 0.16562 0.29114 0.0
H500 H 0.49423 0.1395 0.52782 0.0
C501 C 0.56372 0.13815 0.29279 0.0
H502 H 0.49743 0.18592 0.38382 0.0
C503 C 0.56146 0.11144 0.37403 0.0
C504 C 0.5364 0.11077 0.46 0.0
H505 H 0.58413 0.13705 0.2307 0.0
H506 H 0.57986 0.09125 0.37003 0.0
C507 C 0.5139 0.13874 0.46286 0.0
C508 C 0.41252 0.55907 0.42706 0.0
C509 C 0.4111 0.53177 0.34769 0.0
H510 H 0.43848 0.58286 0.57106 0.0
C511 C 0.43591 0.506 0.36185 0.0
H512 H 0.39447 0.57966 0.41986 0.0
C513 C 0.46146 0.50795 0.44838 0.0
C514 C 0.46349 0.53576 0.52514 0.0
H515 H 0.43583 0.48405 0.30517 0.0
H516 H 0.47984 0.48762 0.4546 0.0
C517 C 0.43815 0.56101 0.51383 0.0
C518 C 0.08091 0.44424 0.30725 0.0
C519 C 0.05721 0.41705 0.3032 0.0
H520 H 0.09881 0.48964 0.39315 0.0
C521 C 0.03359 0.41558 0.39458 0.0
H522 H 0.10029 0.44619 0.24177 0.0
C523 C 0.03304 0.44073 0.48307 0.0
C524 C 0.05595 0.46857 0.48386 0.0
H525 H 1.01471 0.39557 0.396 0.0
H526 H 1.01395 0.4387 0.54983 0.0
C527 C 0.08016 0.46945 0.39484 0.0
C528 C 0.93901 1.00513 0.10633 0.0
C529 C 0.91177 1.02842 0.10839 0.0
H530 H 0.98528 0.98897 0.02483 0.0
C531 C 0.91125 0.05388 0.0226 0.0
H532 H 0.94058 0.98539 0.17166 0.0
C533 C 0.93754 0.0566 0.94024 0.0
C534 C 0.96518 0.03367 0.93921 0.0
H535 H 0.89132 0.07275 0.02253 0.0
H536 H 0.93652 0.07734 0.87849 0.0
C537 C 0.96496 1.00742 0.02259 0.0
C538 C 0.52444 0.9223 0.09126 0.0
C539 C 0.55599 0.90768 0.12043 0.0
H540 H 0.49731 0.95955 0.98887 0.0
C541 C 0.58461 0.92012 0.06042 0.0
H542 H 0.50174 0.91385 0.13508 0.0
C543 C 0.58231 0.94712 0.97959 0.0
C544 C 0.55105 0.96239 0.95274 0.0
H545 H 0.60911 0.90879 0.07671 0.0
H546 H 0.60507 0.95562 0.93622 0.0
C547 C 0.52201 0.94897 1.00825 0.0
C548 C 0.6734 0.54395 0.09868 0.0
C549 C 0.66918 0.56257 0.20224 0.0
H550 H 0.65208 0.52789 0.93494 0.0
C551 C 0.63892 0.58154 0.21194 0.0
H552 H 0.69594 0.52874 0.08682 0.0
C553 C 0.61357 0.58113 0.12451 0.0
C554 C 0.61709 0.56148 0.0233 0.0
H555 H 0.63472 0.59669 0.28846 0.0
H556 H 0.59093 0.59604 0.13667 0.0
C557 C 0.64787 0.54332 1.01129 0.0
C558 C 0.05228 0.67278 0.08113 0.0
C559 C 1.02627 0.6721 0.1645 0.0
H560 H 0.07592 0.64838 0.93528 0.0
C561 C 1.00279 0.64481 0.15669 0.0
H562 H 0.07113 0.69282 0.08354 0.0
C563 C 1.00547 0.61916 0.07114 0.0
C564 C 0.03192 0.6194 0.98962 0.0
H565 H 0.98195 0.64326 0.21708 0.0
H566 H 0.98669 0.59905 0.069 0.0
C567 C 0.05512 0.64693 0.99595 0.0
C568 C 0.93249 0.23746 0.24704 0.0
C569 C 0.96291 0.25401 0.27664 0.0
H570 H 0.89588 0.20056 0.30007 0.0
C571 C 0.97349 0.25502 0.39316 0.0
H572 H 0.92368 0.2369 0.15772 0.0
C573 C 0.95722 0.23467 0.47485 0.0
C574 C 0.93056 0.21333 0.43957 0.0
H575 H 0.99681 0.2678 0.41783 0.0
H576 H 0.9686 0.23181 0.56023 0.0
C577 C 0.91635 0.21705 0.32853 0.0
C578 C 0.34341 0.97051 0.33625 0.0
C579 C 0.33712 0.96303 0.2191 0.0
H580 H 0.37558 0.96077 0.48279 0.0
C581 C 0.35056 0.93319 0.1709 0.0
H582 H 0.33329 0.99342 0.37493 0.0
C583 C 0.37472 0.91451 0.23249 0.0
C584 C 0.38552 0.92575 0.34215 0.0
H585 H 0.34583 0.92701 0.08053 0.0
H586 H 0.38818 0.89442 0.18811 0.0
C587 C 0.36764 0.95189 0.39774 0.0
C588 C 0.53224 0.37768 0.43796 0.0
C589 C 0.54796 0.34953 0.38715 0.0
H590 H 0.53731 0.41849 0.55922 0.0
C591 C 0.57779 0.33647 0.43709 0.0
H592 H 0.5089 0.38776 0.40186 0.0
C593 C 0.59431 0.35422 0.52523 0.0
C594 C 0.58111 0.38518 0.56454 0.0
H595 H 0.59041 0.31472 0.39939 0.0
H596 H 0.61924 0.34573 0.5522 0.0
C597 C 0.54855 0.3952 0.52752 0.0
C598 C 0.24758 0.61429 0.43263 0.0
C599 C 0.24781 0.62567 0.31717 0.0
H600 H 0.2229 0.61809 0.59702 0.0
C601 C 0.2313 0.65613 0.28805 0.0
H602 H 0.26017 0.59086 0.45681 0.0
C603 C 0.21002 0.67159 0.36801 0.0
C604 C 0.20554 0.65686 0.47755 0.0
H605 H 0.23152 0.66547 0.1995 0.0
H606 H 0.19386 0.69225 0.3394 0.0
C607 C 0.2264 0.62992 0.51292 0.0
C608 C 0.07483 0.84067 0.0346 0.0
C609 C 0.04557 0.85511 0.08231 0.0
H610 H 0.11744 0.84848 0.92529 0.0
C611 C 0.0315 0.88422 0.03153 0.0
H612 H 0.08599 0.81805 0.07242 0.0
C613 C 0.04906 0.90121 0.94437 0.0
C614 C 0.08143 0.88991 0.91109 0.0
H615 H 1.00858 0.89533 0.06602 0.0
H616 H 0.03906 0.92511 0.9124 0.0
C617 C 0.0928 0.85807 0.9497 0.0
C618 C 0.71836 1.00703 0.03597 0.0
C619 C 0.72797 0.97902 0.10398 0.0
H620 H 0.67759 0.04071 0.9995 0.0
C621 C 0.70434 0.95251 0.11552 0.0
H622 H 0.73671 1.02673 0.01637 0.0
C623 C 0.66985 0.96041 0.10852 0.0
C624 C 0.65971 0.99366 0.07897 0.0
H625 H 0.7116 0.92928 0.15962 0.0
H626 H 0.65193 0.94218 0.14204 0.0
C627 C 0.68403 1.01538 0.02873 0.0
C628 C 0.42462 0.73241 0.23986 0.0
C629 C 0.45352 0.75095 0.20718 0.0
H630 H 0.39052 0.69228 0.1923 0.0
C631 C 0.46275 0.75194 0.08963 0.0
H632 H 0.41671 0.73178 0.32976 0.0
C633 C 0.44726 0.72985 1.01068 0.0
C634 C 0.42265 0.70681 0.04929 0.0
H635 H 0.48484 0.76612 0.06198 0.0
H636 H 0.4578 0.72749 0.9244 0.0
C637 C 0.40948 0.71001 0.16134 0.0
C638 C 0.87611 0.54092 0.07434 0.0
C639 C 0.84995 0.52475 0.13472 0.0
H640 H 0.91538 0.53542 0.94912 0.0
C641 C 0.83928 0.49215 0.10114 0.0
H642 H 0.88436 0.56625 0.09864 0.0
C643 C 0.85748 0.47414 0.01845 0.0
C644 C 0.88635 0.48874 0.96796 0.0
H645 H 0.81909 0.47932 0.1472 0.0
H646 H 0.85098 0.44773 1.00353 0.0
C647 C 0.89387 0.52318 0.98972 0.0
C648 C 0.05621 0.2021 0.88918 0.0
C649 C 1.02432 0.21277 0.93012 0.0
H650 H 0.08461 0.16399 0.79631 0.0
C651 C 0.99619 0.19205 0.89846 0.0
H652 H 0.07861 0.21705 0.90868 0.0
C653 C 0.99999 0.16069 0.8406 0.0
C654 C 0.03205 0.14871 0.80768 0.0
H655 H 0.97078 0.19948 0.92239 0.0
H656 H 0.97761 0.14534 0.82461 0.0
C657 C 0.05982 0.17096 0.82723 0.0
C658 C 0.3808 1.0259 0.80951 0.0
C659 C 0.37443 0.04227 0.91629 0.0
H660 H 0.41692 1.01378 0.67615 0.0
C661 C 0.40119 0.06119 0.96585 0.0
H662 H 0.36136 1.01002 0.77055 0.0
C663 C 0.43343 0.06264 0.91351 0.0
C664 C 0.44041 0.04511 0.80917 0.0
H665 H 0.39786 0.07308 0.04982 0.0
H666 H 0.45338 0.07638 0.95841 0.0
C667 C 0.41306 1.02762 0.75615 0.0
C668 C 0.56885 0.40586 0.99793 0.0
C669 C 0.54338 0.38127 0.97477 0.0
H670 H 0.58839 0.45624 0.96864 0.0
C671 C 0.52029 0.38914 0.88409 0.0
H672 H 0.58727 0.40131 0.06634 0.0
C673 C 0.52157 0.4211 0.82493 0.0
C674 C 0.54562 0.44643 0.85564 0.0
H675 H 0.49987 0.37164 0.86405 0.0
H676 H 0.5022 0.42687 0.7609 0.0
C677 C 0.5696 0.4377 0.9414 0.0
C678 C 0.18703 0.59252 0.93587 0.0
C679 C 0.20804 0.56452 0.96581 0.0
H680 H 0.14021 0.61065 0.86268 0.0
C681 C 0.19803 0.53262 0.92081 0.0
H682 H 0.19403 0.61803 0.96214 0.0
C683 C 0.16714 0.52879 0.85721 0.0
C684 C 0.14444 0.55624 0.84045 0.0
H685 H 0.2133 0.51036 0.93828 0.0
H686 H 0.16067 0.50404 0.82295 0.0
C687 C 0.15586 0.58843 0.87683 0.0
C688 C 1.01808 0.89307 0.58131 0.0
C689 C 0.04272 0.88404 0.49826 0.0
H690 H 0.9994 0.93152 0.69946 0.0
C691 C 0.07013 0.90694 0.48437 0.0
H692 H 0.99611 0.87693 0.59323 0.0
C693 C 0.07159 0.93842 0.54301 0.0
C694 C 0.04621 0.94834 0.62108 0.0
H695 H 0.08957 0.90149 0.42115 0.0
H696 H 0.09199 0.9559 0.52276 0.0
C697 C 1.01991 0.92463 0.64217 0.0
C698 C 0.70133 1.01842 0.58458 0.0
C699 C 0.70681 1.03137 0.47177 0.0
H700 H 0.66552 1.00941 0.72298 0.0
C701 C 0.67909 0.04771 0.41713 0.0
H702 H 0.72136 1.00458 0.62839 0.0
C703 C 0.64684 0.04891 0.4685 0.0
C704 C 0.64084 0.03486 0.57872 0.0
H705 H 0.68167 0.05713 0.32916 0.0
H706 H 0.6262 0.05997 0.4196 0.0
C707 C 0.66899 1.02069 0.63808 0.0
C708 C 0.55413 0.69963 0.57804 0.0
C709 C 0.52169 0.71097 0.54296 0.0
H710 H 0.58345 0.66144 0.66886 0.0
C711 C 0.49383 0.69134 0.58321 0.0
H712 H 0.57643 0.71383 0.55286 0.0
C713 C 0.49808 0.66016 0.64199 0.0
C714 C 0.53045 0.64735 0.66857 0.0
H715 H 0.46811 0.69945 0.56551 0.0
H716 H 0.47568 0.64563 0.66411 0.0
C717 C 0.55827 0.6688 0.6419 0.0
C718 C 0.90171 0.51357 0.53568 0.0
C719 C 0.8794 0.54161 0.54473 0.0
H720 H 0.95039 0.49191 0.57618 0.0
C721 C 0.88874 0.56727 0.62479 0.0
H722 H 0.89579 0.49304 0.47616 0.0
C723 C 0.92031 0.56597 0.68586 0.0
C724 C 0.9437 0.5393 0.66732 0.0
H725 H 0.8729 0.58952 0.63398 0.0
H726 H 0.92748 0.58713 0.74094 0.0
C727 C 0.93327 0.51275 0.59373 0.0
loop_
_geom_bond_atom_site_label_1
_geom_bond_atom_site_label_2
_geom_bond_distance
_geom_bond_site_symmetry_2
_ccdc_geom_bond_type
H0 C1 0.949 . S
C1 H0 0.949 . S
C1 C2 1.395 . S
C1 C3 1.391 . S
C2 C1 1.395 . S
C2 C5 1.390 . S
C3 C1 1.391 . S
C3 C7 1.387 . S
C3 C8 1.491 . S
H4 C5 0.950 . S
C5 C2 1.390 . S
C5 H4 0.950 . S
C5 C6 1.378 . S
C6 C5 1.378 . S
C6 C7 1.409 . S
C7 C3 1.387 . S
C7 C6 1.409 . S
C7 H9 0.951 . S
C8 C3 1.491 . S
C8 C10 1.382 . S
C8 C12 1.404 . S
H9 C7 0.951 . S
C10 C8 1.382 . S
C10 C11 1.390 . S
C10 H15 0.949 . S
C11 C10 1.390 . S
C11 C16 1.399 . S
C12 C8 1.404 . S
C12 H13 0.950 . S
C12 C14 1.375 . S
H13 C12 0.950 . S
C14 C12 1.375 . S
C14 C16 1.382 . S
C14 H18 0.950 . S
H15 C10 0.949 . S
C16 C11 1.399 . S
C16 C14 1.382 . S
C16 H17 0.952 . S
H17 C16 0.952 . S
H18 C14 0.950 . S
H19 C20 0.949 . S
C20 H19 0.949 . S
C20 C21 1.395 . S
C20 C22 1.391 . S
C21 C20 1.395 . S
C21 C24 1.390 . S
C22 C20 1.391 . S
C22 C26 1.387 . S
C22 C27 1.491 . S
H23 C24 0.950 . S
C24 C21 1.390 . S
C24 H23 0.950 . S
C24 C25 1.378 . S
C25 C24 1.378 . S
C25 C26 1.409 . S
C26 C22 1.387 . S
C26 C25 1.409 . S
C26 H28 0.951 . S
C27 C22 1.491 . S
C27 C29 1.382 . S
C27 C31 1.404 . S
H28 C26 0.951 . S
C29 C27 1.382 . S
C29 C30 1.390 . S
C29 H34 0.972 . S
C30 C29 1.390 . S
C30 C35 1.399 . S
C31 C27 1.404 . S
C31 H32 0.950 . S
C31 C33 1.375 . S
H32 C31 0.950 . S
C33 C31 1.375 . S
C33 C35 1.382 . S
C33 H37 0.950 . S
H34 C29 0.972 . S
C35 C30 1.399 . S
C35 C33 1.382 . S
C35 H36 0.952 . S
H36 C35 0.952 . S
H37 C33 0.950 . S
H38 C39 0.949 . S
C39 H38 0.949 . S
C39 C40 1.395 . S
C39 C41 1.391 . S
C40 C39 1.395 . S
C40 C43 1.390 . S
C41 C39 1.391 . S
C41 C45 1.387 . S
C41 C46 1.491 . S
H42 C43 0.950 . S
C43 C40 1.390 . S
C43 H42 0.950 . S
C43 C44 1.378 . S
C44 C43 1.378 . S
C44 C45 1.409 . S
C45 C41 1.387 . S
C45 C44 1.409 . S
C45 H47 0.951 . S
C46 C41 1.491 . S
C46 C48 1.382 . S
C46 C50 1.404 . S
H47 C45 0.951 . S
C48 C46 1.382 . S
C48 C49 1.390 . S
C48 H53 0.949 . S
C49 C48 1.390 . S
C49 C54 1.399 . S
C50 C46 1.404 . S
C50 H51 0.950 . S
C50 C52 1.375 . S
H51 C50 0.950 . S
C52 C50 1.375 . S
C52 C54 1.382 . S
C52 H56 0.950 . S
H53 C48 0.949 . S
C54 C49 1.399 . S
C54 C52 1.382 . S
C54 H55 0.952 . S
H55 C54 0.952 . S
H56 C52 0.950 . S
H57 C58 0.949 . S
C58 H57 0.949 . S
C58 C59 1.395 . S
C58 C60 1.391 . S
C59 C58 1.395 . S
C59 C62 1.390 . S
C60 C58 1.391 . S
C60 C64 1.387 . S
C60 C65 1.491 . S
H61 C62 0.950 . S
C62 C59 1.390 . S
C62 H61 0.950 . S
C62 C63 1.378 . S
C63 C62 1.378 . S
C63 C64 1.409 . S
C64 C60 1.387 . S
C64 C63 1.409 . S
C64 H66 0.951 . S
C65 C60 1.491 . S
C65 C67 1.382 . S
C65 C69 1.404 . S
H66 C64 0.951 . S
C67 C65 1.382 . S
C67 C68 1.390 . S
C67 H72 0.949 . S
C68 C67 1.390 . S
C68 C73 1.399 . S
C69 C65 1.404 . S
C69 H70 0.950 . S
C69 C71 1.375 . S
H70 C69 0.950 . S
C71 C69 1.375 . S
C71 C73 1.382 . S
C71 H75 0.950 . S
H72 C67 0.949 . S
C73 C68 1.399 . S
C73 C71 1.382 . S
C73 H74 0.952 . S
H74 C73 0.952 . S
H75 C71 0.950 . S
H76 C77 0.949 . S
C77 H76 0.949 . S
C77 C78 1.395 . S
C77 C79 1.396 . S
C78 C77 1.395 . S
C78 C81 1.390 1_554 S
C79 C77 1.396 . S
C79 C83 1.383 1_554 S
C79 C84 1.491 . S
H80 C81 0.950 . S
C81 C78 1.390 1_556 S
C81 H80 0.950 . S
C81 C82 1.378 . S
C82 C81 1.378 . S
C82 C83 1.409 . S
C83 C79 1.383 1_556 S
C83 C82 1.409 . S
C83 H85 0.951 . S
C84 C79 1.491 . S
C84 C86 1.382 . S
C84 C88 1.404 1_554 S
H85 C83 0.951 . S
C86 C84 1.382 . S
C86 C87 1.390 . S
C86 H91 0.949 . S
C87 C86 1.390 . S
C87 C92 1.399 . S
C88 C84 1.404 1_556 S
C88 H89 0.950 . S
C88 C90 1.375 . S
H89 C88 0.950 . S
C90 C88 1.375 . S
C90 C92 1.382 1_556 S
C90 H94 0.950 . S
H91 C86 0.949 . S
C92 C87 1.399 . S
C92 C90 1.382 1_554 S
C92 H93 0.952 . S
H93 C92 0.952 . S
H94 C90 0.950 . S
H95 C96 0.949 . S
C96 H95 0.949 . S
C96 C97 1.395 . S
C96 C98 1.391 . S
C97 C96 1.395 . S
C97 C100 1.390 1_554 S
C98 C96 1.391 . S
C98 C102 1.387 1_554 S
C98 C103 1.491 . S
H99 C100 0.950 . S
C100 C97 1.390 1_556 S
C100 H99 0.950 . S
C100 C101 1.378 . S
C101 C100 1.378 . S
C101 C102 1.409 . S
C102 C98 1.387 1_556 S
C102 C101 1.409 . S
C102 H104 0.951 . S
C103 C98 1.491 . S
C103 C105 1.382 . S
C103 C107 1.404 1_454 S
H104 C102 0.951 . S
C105 C103 1.382 . S
C105 C106 1.390 . S
C105 H110 0.949 . S
C106 C105 1.390 . S
C106 C111 1.399 . S
C107 C103 1.404 1_656 S
C107 H108 0.950 . S
C107 C109 1.375 . S
H108 C107 0.950 . S
C109 C107 1.375 . S
C109 C111 1.382 1_656 S
C109 H113 0.950 . S
H110 C105 0.949 . S
C111 C106 1.399 . S
C111 C109 1.382 1_454 S
C111 H112 0.952 1_455 S
H112 C111 0.952 1_655 S
H113 C109 0.950 . S
H114 C115 0.949 . S
C115 H114 0.949 . S
C115 C116 1.395 . S
C115 C117 1.391 . S
C116 C115 1.395 . S
C116 C119 1.390 1_554 S
C117 C115 1.391 . S
C117 C121 1.387 1_554 S
C117 C122 1.491 . S
H118 C119 0.950 . S
C119 C116 1.390 1_556 S
C119 H118 0.950 . S
C119 C120 1.378 . S
C120 C119 1.378 . S
C120 C121 1.409 . S
C121 C117 1.387 1_556 S
C121 C120 1.409 . S
C121 H123 0.951 . S
C122 C117 1.491 . S
C122 C124 1.382 . S
C122 C126 1.404 1_544 S
H123 C121 0.951 . S
C124 C122 1.382 . S
C124 C125 1.390 . S
C124 H129 0.949 . S
C125 C124 1.390 . S
C125 C130 1.399 . S
C126 C122 1.404 1_566 S
C126 H127 0.950 . S
C126 C128 1.375 . S
H127 C126 0.950 . S
C128 C126 1.375 . S
C128 C130 1.382 1_566 S
C128 H132 0.950 . S
H129 C124 0.949 . S
C130 C125 1.399 . S
C130 C128 1.382 1_544 S
C130 H131 0.952 1_545 S
H131 C130 0.952 1_565 S
H132 C128 0.950 . S
H133 C134 0.949 . S
C134 H133 0.949 . S
C134 C135 1.395 . S
C134 C136 1.391 1_554 S
C135 C134 1.395 . S
C135 C138 1.390 1_554 S
C136 C134 1.391 1_556 S
C136 C140 1.387 . S
C136 C141 1.491 1_556 S
H137 C138 0.950 . S
C138 C135 1.390 1_556 S
C138 H137 0.950 . S
C138 C139 1.378 . S
C139 C138 1.378 . S
C139 C140 1.409 . S
C140 C136 1.387 . S
C140 C139 1.409 . S
C140 H142 0.951 . S
C141 C136 1.491 1_554 S
C141 C143 1.382 . S
C141 C145 1.404 1_554 S
H142 C140 0.951 . S
C143 C141 1.382 . S
C143 C144 1.390 . S
C143 H148 0.949 . S
C144 C143 1.390 . S
C144 C149 1.399 . S
C145 C141 1.404 1_556 S
C145 H146 0.950 . S
C145 C147 1.375 . S
H146 C145 0.950 . S
C147 C145 1.375 . S
C147 C149 1.382 1_556 S
C147 H151 0.950 . S
H148 C143 0.949 . S
C149 C144 1.399 . S
C149 C147 1.382 1_554 S
C149 H150 0.952 . S
H150 C149 0.952 . S
H151 C147 0.950 . S
C152 C154 1.422 . S
C152 C156 1.415 . S
C152 N158 1.369 1_554 S
C153 C154 1.421 . S
C153 C155 1.417 . S
C153 C165 1.422 . S
C154 C152 1.422 . S
C154 C153 1.421 . S
C154 N164 1.359 . S
C155 C153 1.417 . S
C155 C157 1.329 . S
C155 H174 0.930 . S
C156 C152 1.415 . S
C156 C157 1.437 . S
C156 C160 1.413 1_554 S
C157 C155 1.329 . S
C157 C156 1.437 . S
C157 H179 0.929 . S
N158 C152 1.369 1_556 S
N158 C159 1.338 . S
N158 Gd163 2.622 1_545 S
C159 N158 1.338 . S
C159 C161 1.378 . S
C159 H171 0.929 1_545 S
C160 C156 1.413 1_556 S
C160 C161 1.348 . S
C160 H176 0.931 1_556 S
C161 C159 1.378 . S
C161 C160 1.348 . S
C161 H177 0.930 . S
Gd162 N182 2.622 . S
Gd162 N189 2.570 . S
Gd162 O196 2.353 1_655 S
Gd162 O197 2.466 1_655 S
Gd162 O198 2.427 . S
Gd162 O200 2.388 . S
Gd162 O201 2.386 1_545 S
Gd162 O205 2.307 1_655 S
Gd162 C215 2.805 . S
Gd163 N158 2.622 1_565 S
Gd163 N164 2.570 1_566 S
Gd163 O195 2.386 1_565 S
Gd163 O199 2.307 1_465 S
Gd163 O202 2.353 . S
Gd163 O203 2.468 . S
Gd163 O204 2.427 . S
Gd163 O206 2.388 . S
Gd163 C227 2.805 . S
N164 C154 1.359 . S
N164 Gd163 2.570 1_544 S
N164 C166 1.343 . S
C165 C153 1.422 . S
C165 C167 1.321 . S
C165 H173 0.931 . S
C166 N164 1.343 . S
C166 C167 1.390 . S
C166 H168 0.931 1_455 S
C167 C165 1.321 . S
C167 C166 1.390 . S
C167 H169 0.930 1_455 S
H168 C166 0.931 1_655 S
H169 C167 0.930 1_655 S
H170 C193 0.931 . S
H171 C159 0.929 1_565 S
H172 C194 0.930 . S
H173 C165 0.931 . S
H174 C155 0.930 . S
H175 C184 0.929 . S
H176 C160 0.931 1_554 S
H177 C161 0.930 . S
H178 C216 0.930 . S
H179 C157 0.929 . S
H180 C185 0.931 . S
H181 C186 0.930 . S
N182 Gd162 2.622 . S
N182 C183 1.369 1_545 S
N182 C184 1.338 . S
C183 N182 1.369 1_565 S
C183 C187 1.415 . S
C183 C190 1.422 . S
C184 H175 0.929 . S
C184 N182 1.338 . S
C184 C186 1.378 . S
C185 H180 0.931 . S
C185 C186 1.348 1_565 S
C185 C187 1.413 . S
C186 H181 0.930 . S
C186 C184 1.378 . S
C186 C185 1.348 1_545 S
C187 C183 1.415 . S
C187 C185 1.413 . S
C187 C217 1.437 . S
H188 C217 0.929 . S
N189 Gd162 2.570 . S
N189 C190 1.359 1_545 S
N189 C193 1.343 1_655 S
C190 C183 1.422 . S
C190 N189 1.359 1_565 S
C190 C192 1.421 . S
C191 C192 1.422 . S
C191 C194 1.321 1_655 S
C191 H218 0.931 . S
C192 C190 1.421 . S
C192 C191 1.422 . S
C192 C216 1.417 . S
C193 H170 0.931 . S
C193 N189 1.343 1_455 S
C193 C194 1.390 1_545 S
C194 H172 0.930 . S
C194 C191 1.321 1_455 S
C194 C193 1.390 1_565 S
O195 Gd163 2.386 1_545 S
O195 C207 1.265 . S
O196 Gd162 2.353 1_455 S
O196 C207 1.242 . S
O197 Gd162 2.466 1_455 S
O197 C215 1.260 1_455 S
O198 Gd162 2.427 . S
O198 C215 1.252 . S
O199 Gd163 2.307 1_645 S
O199 C208 1.261 . S
O200 Gd162 2.388 . S
O200 C208 1.252 . S
O201 Gd162 2.386 1_565 S
O201 C219 1.265 . S
O202 Gd163 2.353 . S
O202 C219 1.242 1_455 S
O203 Gd163 2.468 . S
O203 C227 1.263 . S
O204 Gd163 2.427 . S
O204 C227 1.252 . S
O205 Gd162 2.307 1_455 S
O205 C220 1.261 . S
O206 Gd163 2.388 . S
O206 C220 1.252 1_565 S
C207 O195 1.265 . S
C207 O196 1.242 . S
C208 O199 1.261 . S
C208 O200 1.252 . S
C209 C212 1.394 . S
C209 C214 1.370 . S
C209 C215 1.500 . S
C210 C213 1.383 . S
C210 C214 1.395 . S
C211 C212 1.396 . S
C211 C213 1.365 . S
C211 H228 0.929 . S
C212 C209 1.394 . S
C212 C211 1.396 . S
C212 H229 0.930 . S
C213 C210 1.383 . S
C213 C211 1.365 . S
C213 H230 0.931 . S
C214 C209 1.370 . S
C214 C210 1.395 . S
C214 H231 0.930 1_655 S
C215 Gd162 2.805 . S
C215 O197 1.260 1_655 S
C215 O198 1.252 . S
C215 C209 1.500 . S
C216 H178 0.930 . S
C216 C192 1.417 . S
C216 C217 1.329 . S
C217 C187 1.437 . S
C217 H188 0.929 . S
C217 C216 1.329 . S
H218 C191 0.931 . S
C219 O201 1.265 . S
C219 O202 1.242 1_655 S
C220 O205 1.261 . S
C220 O206 1.252 1_545 S
C221 C224 1.394 . S
C221 C226 1.370 . S
C221 C227 1.500 1_554 S
C222 C225 1.383 . S
C222 C226 1.395 . S
C223 C224 1.396 . S
C223 C225 1.365 . S
C223 H232 0.929 . S
C224 C221 1.394 . S
C224 C223 1.396 . S
C224 H233 0.930 1_554 S
C225 C222 1.383 . S
C225 C223 1.365 . S
C225 H234 0.931 . S
C226 C221 1.370 . S
C226 C222 1.395 . S
C226 H235 0.930 . S
C227 Gd163 2.805 . S
C227 O203 1.263 . S
C227 O204 1.252 . S
C227 C221 1.500 1_556 S
H228 C211 0.929 . S
H229 C212 0.930 . S
H230 C213 0.931 . S
H231 C214 0.930 1_455 S
H232 C223 0.929 . S
H233 C224 0.930 1_556 S
H234 C225 0.931 . S
H235 C226 0.930 . S
C236 C238 1.422 . S
C236 C240 1.415 . S
C236 N242 1.369 . S
C237 C238 1.421 . S
C237 C239 1.417 . S
C237 C249 1.422 . S
C238 C236 1.422 . S
C238 C237 1.421 . S
C238 N248 1.359 . S
C239 C237 1.417 . S
C239 C241 1.329 . S
C239 H258 0.930 . S
C240 C236 1.415 . S
C240 C241 1.437 . S
C240 C244 1.413 . S
C241 C239 1.329 . S
C241 C240 1.437 . S
C241 H263 0.929 . S
N242 C236 1.369 . S
N242 C243 1.338 . S
N242 Gd247 2.622 . S
C243 N242 1.338 . S
C243 C245 1.378 . S
C243 H255 0.929 . S
C244 C240 1.413 . S
C244 C245 1.348 . S
C244 H260 0.931 . S
C245 C243 1.378 . S
C245 C244 1.348 . S
C245 H261 0.930 . S
Gd246 N266 2.622 . S
Gd246 N273 2.570 . S
Gd246 O280 2.353 1_545 S
Gd246 O281 2.468 . S
Gd246 O282 2.427 1_556 S
Gd246 O284 2.388 . S
Gd246 O285 2.386 . S
Gd246 O289 2.307 . S
Gd246 C299 2.805 1_556 S
Gd247 N242 2.622 . S
Gd247 N248 2.570 . S
Gd247 O279 2.386 . S
Gd247 O283 2.296 1_565 S
Gd247 O286 2.353 1_565 S
Gd247 O287 2.468 . S
Gd247 O288 2.427 . S
Gd247 O290 2.388 . S
Gd247 C311 2.805 . S
N248 C238 1.359 . S
N248 Gd247 2.570 . S
N248 C250 1.343 . S
C249 C237 1.422 . S
C249 C251 1.321 . S
C249 H257 0.931 . S
C250 N248 1.343 . S
C250 C251 1.390 . S
C250 H252 0.931 . S
C251 C249 1.321 . S
C251 C250 1.390 . S
C251 H253 0.930 . S
H252 C250 0.931 . S
H253 C251 0.930 . S
H254 C277 0.931 . S
H255 C243 0.929 . S
H256 C278 0.930 . S
H257 C249 0.931 . S
H258 C239 0.930 . S
H259 C268 0.929 . S
H260 C244 0.931 . S
H261 C245 0.930 . S
H262 C300 0.930 . S
H263 C241 0.929 . S
H264 C269 0.931 . S
H265 C270 0.930 . S
N266 Gd246 2.622 . S
N266 C267 1.369 . S
N266 C268 1.338 1_556 S
C267 N266 1.369 . S
C267 C271 1.415 . S
C267 C274 1.422 . S
C268 H259 0.929 . S
C268 N266 1.338 1_554 S
C268 C270 1.378 . S
C269 H264 0.931 . S
C269 C270 1.348 . S
C269 C271 1.413 1_554 S
C270 H265 0.930 . S
C270 C268 1.378 . S
C270 C269 1.348 . S
C271 C267 1.415 . S
C271 C269 1.413 1_556 S
C271 C301 1.437 . S
H272 C301 0.929 . S
N273 Gd246 2.570 . S
N273 C274 1.359 . S
N273 C277 1.343 . S
C274 C267 1.422 . S
C274 N273 1.359 . S
C274 C276 1.421 . S
C275 C276 1.422 . S
C275 C278 1.321 . S
C275 H302 0.931 . S
C276 C274 1.421 . S
C276 C275 1.422 . S
C276 C300 1.417 . S
C277 H254 0.931 . S
C277 N273 1.343 . S
C277 C278 1.390 . S
C278 H256 0.930 . S
C278 C275 1.321 . S
C278 C277 1.390 . S
O279 Gd247 2.386 . S
O279 C291 1.265 . S
O280 Gd246 2.353 1_565 S
O280 C291 1.242 . S
O281 Gd246 2.468 . S
O281 C299 1.263 1_556 S
O282 Gd246 2.427 1_554 S
O282 C299 1.252 . S
O283 Gd247 2.296 1_545 S
O283 C292 1.278 . S
O284 Gd246 2.388 . S
O284 C292 1.252 . S
O285 Gd246 2.386 . S
O285 C303 1.265 . S
O286 Gd247 2.353 1_545 S
O286 C303 1.242 . S
O287 Gd247 2.468 . S
O287 C311 1.263 . S
O288 Gd247 2.427 . S
O288 C311 1.252 . S
O289 Gd246 2.307 . S
O289 C304 1.261 1_545 S
O290 Gd247 2.388 . S
O290 C304 1.252 . S
C291 O279 1.265 . S
C291 O280 1.242 . S
C292 O283 1.278 . S
C292 O284 1.252 . S
C293 C296 1.394 . S
C293 C298 1.370 . S
C293 C299 1.500 . S
C294 C297 1.383 . S
C294 C298 1.395 . S
C295 C296 1.396 . S
C295 C297 1.365 . S
C295 H312 0.929 . S
C296 C293 1.394 . S
C296 C295 1.396 . S
C296 H313 0.930 . S
C297 C294 1.383 . S
C297 C295 1.365 . S
C297 H314 0.931 . S
C298 C293 1.370 . S
C298 C294 1.395 . S
C298 H315 0.930 . S
C299 Gd246 2.805 1_554 S
C299 O281 1.263 1_554 S
C299 O282 1.252 . S
C299 C293 1.500 . S
C300 H262 0.930 . S
C300 C276 1.417 . S
C300 C301 1.329 . S
C301 C271 1.437 . S
C301 H272 0.929 . S
C301 C300 1.329 . S
H302 C275 0.931 . S
C303 O285 1.265 . S
C303 O286 1.242 . S
C304 O289 1.261 1_565 S
C304 O290 1.252 . S
C305 C308 1.394 . S
C305 C310 1.381 . S
C305 C311 1.500 . S
C306 C309 1.381 1_545 S
C306 C310 1.394 1_545 S
C307 C308 1.396 . S
C307 C309 1.365 . S
C307 H316 0.929 . S
C308 C305 1.394 . S
C308 C307 1.396 . S
C308 H317 0.930 . S
C309 C306 1.381 1_565 S
C309 C307 1.365 . S
C309 H318 0.931 . S
C310 C305 1.381 . S
C310 C306 1.394 1_565 S
C310 H319 0.922 1_565 S
C311 Gd247 2.805 . S
C311 O287 1.263 . S
C311 O288 1.252 . S
C311 C305 1.500 . S
H312 C295 0.929 . S
H313 C296 0.930 . S
H314 C297 0.931 . S
H315 C298 0.930 . S
H316 C307 0.929 . S
H317 C308 0.930 . S
H318 C309 0.931 . S
H319 C310 0.922 1_545 S
C320 C322 1.422 . S
C320 C324 1.415 . S
C320 N326 1.369 1_554 S
C321 C322 1.421 . S
C321 C323 1.417 . S
C321 C333 1.422 . S
C322 C320 1.422 . S
C322 C321 1.421 . S
C322 N332 1.359 . S
C323 C321 1.417 . S
C323 C325 1.329 . S
C323 H342 0.930 . S
C324 C320 1.415 . S
C324 C325 1.437 . S
C324 C328 1.413 1_554 S
C325 C323 1.329 . S
C325 C324 1.437 . S
C325 H347 0.929 . S
N326 C320 1.369 1_556 S
N326 C327 1.338 . S
N326 Gd331 2.622 . S
C327 N326 1.338 . S
C327 C329 1.378 . S
C327 H339 0.929 . S
C328 C324 1.413 1_556 S
C328 C329 1.348 . S
C328 H344 0.931 1_556 S
C329 C327 1.378 . S
C329 C328 1.348 . S
C329 H345 0.930 . S
Gd330 N350 2.622 . S
Gd330 N357 2.570 . S
Gd330 O364 2.353 . S
Gd330 O365 2.468 . S
Gd330 O366 2.427 . S
Gd330 O368 2.388 . S
Gd330 O369 2.386 . S
Gd330 O373 2.307 . S
Gd330 C383 2.805 . S
Gd331 N326 2.622 . S
Gd331 N332 2.570 1_556 S
Gd331 O363 2.386 . S
Gd331 O367 2.307 . S
Gd331 O370 2.353 . S
Gd331 O371 2.468 . S
Gd331 O372 2.427 . S
Gd331 O374 2.388 . S
Gd331 C395 2.805 . S
N332 C322 1.359 . S
N332 Gd331 2.570 1_554 S
N332 C334 1.343 . S
C333 C321 1.422 . S
C333 C335 1.321 . S
C333 H341 0.931 . S
C334 N332 1.343 . S
C334 C335 1.390 . S
C334 H336 0.931 . S
C335 C333 1.321 . S
C335 C334 1.390 . S
C335 H337 0.930 . S
H336 C334 0.931 . S
H337 C335 0.930 . S
H338 C361 0.931 . S
H339 C327 0.929 . S
H340 C362 0.930 . S
H341 C333 0.931 . S
H342 C323 0.930 . S
H343 C352 0.929 . S
H344 C328 0.931 1_554 S
H345 C329 0.930 . S
H346 C384 0.930 . S
H347 C325 0.929 . S
H348 C353 0.931 . S
H349 C354 0.930 . S
N350 Gd330 2.622 . S
N350 C351 1.369 . S
N350 C352 1.338 . S
C351 N350 1.369 . S
C351 C355 1.415 . S
C351 C358 1.422 . S
C352 H343 0.929 . S
C352 N350 1.338 . S
C352 C354 1.378 . S
C353 H348 0.931 . S
C353 C354 1.348 . S
C353 C355 1.413 . S
C354 H349 0.930 . S
C354 C352 1.378 . S
C354 C353 1.348 . S
C355 C351 1.415 . S
C355 C353 1.413 . S
C355 C385 1.437 . S
H356 C385 0.929 . S
N357 Gd330 2.570 . S
N357 C358 1.359 . S
N357 C361 1.343 . S
C358 C351 1.422 . S
C358 N357 1.359 . S
C358 C360 1.421 . S
C359 C360 1.422 . S
C359 C362 1.321 . S
C359 H386 0.931 . S
C360 C358 1.421 . S
C360 C359 1.422 . S
C360 C384 1.417 . S
C361 H338 0.931 . S
C361 N357 1.343 . S
C361 C362 1.390 . S
C362 H340 0.930 . S
C362 C359 1.321 . S
C362 C361 1.390 . S
O363 Gd331 2.386 . S
O363 C375 1.265 . S
O364 Gd330 2.353 . S
O364 C375 1.242 . S
O365 Gd330 2.468 . S
O365 C383 1.263 . S
O366 Gd330 2.427 . S
O366 C383 1.252 . S
O367 Gd331 2.307 . S
O367 C376 1.261 . S
O368 Gd330 2.388 . S
O368 C376 1.252 . S
O369 Gd330 2.386 . S
O369 C387 1.265 . S
O370 Gd331 2.353 . S
O370 C387 1.242 . S
O371 Gd331 2.468 . S
O371 C395 1.263 . S
O372 Gd331 2.427 . S
O372 C395 1.252 . S
O373 Gd330 2.307 . S
O373 C388 1.261 . S
O374 Gd331 2.388 . S
O374 C388 1.252 . S
C375 O363 1.265 . S
C375 O364 1.242 . S
C376 O367 1.261 . S
C376 O368 1.252 . S
C377 C380 1.394 . S
C377 C382 1.370 . S
C377 C383 1.500 . S
C378 C381 1.383 . S
C378 C382 1.395 . S
C379 C380 1.396 . S
C379 C381 1.365 . S
C379 H396 0.929 . S
C380 C377 1.394 . S
C380 C379 1.396 . S
C380 H397 0.930 . S
C381 C378 1.383 . S
C381 C379 1.365 . S
C381 H398 0.931 . S
C382 C377 1.370 . S
C382 C378 1.395 . S
C382 H399 0.930 . S
C383 Gd330 2.805 . S
C383 O365 1.263 . S
C383 O366 1.252 . S
C383 C377 1.500 . S
C384 H346 0.930 . S
C384 C360 1.417 . S
C384 C385 1.329 . S
C385 C355 1.437 . S
C385 H356 0.929 . S
C385 C384 1.329 . S
H386 C359 0.931 . S
C387 O369 1.265 . S
C387 O370 1.242 . S
C388 O373 1.261 . S
C388 O374 1.252 . S
C389 C392 1.394 . S
C389 C394 1.370 . S
C389 C395 1.500 1_554 S
C390 C393 1.383 . S
C390 C394 1.395 . S
C391 C392 1.396 . S
C391 C393 1.365 . S
C391 H400 0.929 . S
C392 C389 1.394 . S
C392 C391 1.396 . S
C392 H401 0.930 1_554 S
C393 C390 1.383 . S
C393 C391 1.365 . S
C393 H402 0.931 . S
C394 C389 1.370 . S
C394 C390 1.395 . S
C394 H403 0.930 . S
C395 Gd331 2.805 . S
C395 O371 1.263 . S
C395 O372 1.252 . S
C395 C389 1.500 1_556 S
H396 C379 0.929 . S
H397 C380 0.930 . S
H398 C381 0.931 . S
H399 C382 0.930 . S
H400 C391 0.929 . S
H401 C392 0.930 1_556 S
H402 C393 0.931 . S
H403 C394 0.930 . S
C404 C406 1.422 . S
C404 C408 1.415 . S
C404 N410 1.369 1_554 S
C405 C406 1.421 . S
C405 C407 1.417 . S
C405 C417 1.422 . S
C406 C404 1.422 . S
C406 C405 1.421 . S
C406 N416 1.359 . S
C407 C405 1.417 . S
C407 C409 1.329 . S
C407 H426 0.930 . S
C408 C404 1.415 . S
C408 C409 1.437 . S
C408 C412 1.413 1_554 S
C409 C407 1.329 . S
C409 C408 1.437 . S
C409 H431 0.929 . S
N410 C404 1.369 1_556 S
N410 C411 1.338 . S
N410 Gd415 2.622 1_455 S
C411 N410 1.338 . S
C411 C413 1.378 . S
C411 H423 0.929 1_455 S
C412 C408 1.413 1_556 S
C412 C413 1.348 . S
C412 H428 0.931 1_556 S
C413 C411 1.378 . S
C413 C412 1.348 . S
C413 H429 0.930 . S
Gd414 N434 2.622 . S
Gd414 N441 2.570 . S
Gd414 O448 2.353 . S
Gd414 O449 2.468 . S
Gd414 O450 2.427 . S
Gd414 O452 2.388 . S
Gd414 O453 2.386 1_455 S
Gd414 O457 2.307 . S
Gd414 C467 2.805 . S
Gd415 N410 2.622 1_655 S
Gd415 N416 2.570 1_656 S
Gd415 O447 2.386 1_655 S
Gd415 O451 2.307 1_655 S
Gd415 O454 2.353 . S
Gd415 O455 2.468 . S
Gd415 O456 2.427 . S
Gd415 O458 2.388 . S
Gd415 C479 2.805 . S
N416 C406 1.359 . S
N416 Gd415 2.570 1_454 S
N416 C418 1.343 . S
C417 C405 1.422 . S
C417 C419 1.321 . S
C417 H425 0.931 . S
C418 N416 1.343 . S
C418 C419 1.390 . S
C418 H420 0.931 . S
C419 C417 1.321 . S
C419 C418 1.390 . S
C419 H421 0.930 . S
H420 C418 0.931 . S
H421 C419 0.930 . S
H422 C445 0.931 . S
H423 C411 0.929 1_655 S
H424 C446 0.930 . S
H425 C417 0.931 . S
H426 C407 0.930 . S
H427 C436 0.929 . S
H428 C412 0.931 1_554 S
H429 C413 0.930 . S
H430 C468 0.930 . S
H431 C409 0.929 . S
H432 C437 0.931 . S
H433 C438 0.930 . S
N434 Gd414 2.622 . S
N434 C435 1.369 1_455 S
N434 C436 1.338 . S
C435 N434 1.369 1_655 S
C435 C439 1.415 . S
C435 C442 1.422 . S
C436 H427 0.929 . S
C436 N434 1.338 . S
C436 C438 1.378 . S
C437 H432 0.931 . S
C437 C438 1.348 1_655 S
C437 C439 1.413 . S
C438 H433 0.930 . S
C438 C436 1.378 . S
C438 C437 1.348 1_455 S
C439 C435 1.415 . S
C439 C437 1.413 . S
C439 C469 1.437 . S
H440 C469 0.929 . S
N441 Gd414 2.570 . S
N441 C442 1.359 1_455 S
N441 C445 1.343 . S
C442 C435 1.422 . S
C442 N441 1.359 1_655 S
C442 C444 1.421 . S
C443 C444 1.422 . S
C443 C446 1.321 . S
C443 H470 0.931 . S
C444 C442 1.421 . S
C444 C443 1.422 . S
C444 C468 1.417 . S
C445 H422 0.931 . S
C445 N441 1.343 . S
C445 C446 1.390 1_455 S
C446 H424 0.930 . S
C446 C443 1.321 . S
C446 C445 1.390 1_655 S
O447 Gd415 2.386 1_455 S
O447 C459 1.265 . S
O448 Gd414 2.353 . S
O448 C459 1.242 . S
O449 Gd414 2.468 . S
O449 C467 1.263 . S
O450 Gd414 2.427 . S
O450 C467 1.252 . S
O451 Gd415 2.307 1_455 S
O451 C460 1.261 . S
O452 Gd414 2.388 . S
O452 C460 1.252 . S
O453 Gd414 2.386 1_655 S
O453 C471 1.265 . S
O454 Gd415 2.353 . S
O454 C471 1.242 . S
O455 Gd415 2.468 . S
O455 C479 1.263 . S
O456 Gd415 2.427 . S
O456 C479 1.252 . S
O457 Gd414 2.307 . S
O457 C472 1.261 . S
O458 Gd415 2.388 . S
O458 C472 1.252 1_655 S
C459 O447 1.265 . S
C459 O448 1.242 . S
C460 O451 1.261 . S
C460 O452 1.252 . S
C461 C464 1.394 . S
C461 C466 1.370 . S
C461 C467 1.500 . S
C462 C465 1.383 . S
C462 C466 1.395 . S
C463 C464 1.396 . S
C463 C465 1.365 . S
C463 H480 0.929 . S
C464 C461 1.394 . S
C464 C463 1.396 . S
C464 H481 0.930 . S
C465 C462 1.383 . S
C465 C463 1.365 . S
C465 H482 0.931 . S
C466 C461 1.370 . S
C466 C462 1.395 . S
C466 H483 0.930 . S
C467 Gd414 2.805 . S
C467 O449 1.263 . S
C467 O450 1.252 . S
C467 C461 1.500 . S
C468 H430 0.930 . S
C468 C444 1.417 . S
C468 C469 1.329 . S
C469 C439 1.437 . S
C469 H440 0.929 . S
C469 C468 1.329 . S
H470 C443 0.931 . S
C471 O453 1.265 . S
C471 O454 1.242 . S
C472 O457 1.261 . S
C472 O458 1.252 1_455 S
C473 C476 1.394 . S
C473 C478 1.370 . S
C473 C479 1.500 1_554 S
C474 C477 1.383 . S
C474 C478 1.395 . S
C475 C476 1.396 . S
C475 C477 1.365 . S
C475 H484 0.929 . S
C476 C473 1.394 . S
C476 C475 1.396 . S
C476 H485 0.930 1_554 S
C477 C474 1.383 . S
C477 C475 1.365 . S
C477 H486 0.931 . S
C478 C473 1.370 . S
C478 C474 1.395 . S
C478 H487 0.930 . S
C479 Gd415 2.805 . S
C479 O455 1.263 . S
C479 O456 1.252 . S
C479 C473 1.500 1_556 S
H480 C463 0.929 . S
H481 C464 0.930 . S
H482 C465 0.931 . S
H483 C466 0.930 . S
H484 C475 0.929 . S
H485 C476 0.930 1_556 S
H486 C477 0.931 . S
H487 C478 0.930 . S
C488 C489 1.387 . S
C488 H492 0.950 . S
C488 C497 1.390 . S
C489 C488 1.387 . S
C489 C491 1.387 1_545 S
H490 C497 0.950 . S
C491 C489 1.387 1_565 S
C491 C493 1.390 . S
C491 H495 0.950 . S
H492 C488 0.950 . S
C493 C491 1.390 . S
C493 C494 1.387 1_565 S
C493 H496 0.950 . S
C494 C493 1.387 1_545 S
C494 C497 1.387 . S
H495 C491 0.950 . S
H496 C493 0.950 . S
C497 C488 1.390 . S
C497 H490 0.950 . S
C497 C494 1.387 . S
C498 C499 1.387 . S
C498 H502 0.950 . S
C498 C507 1.390 . S
C499 C498 1.387 . S
C499 C501 1.387 . S
H500 C507 0.950 . S
C501 C499 1.387 . S
C501 C503 1.390 . S
C501 H505 0.950 . S
H502 C498 0.950 . S
C503 C501 1.390 . S
C503 C504 1.387 . S
C503 H506 0.950 . S
C504 C503 1.387 . S
C504 C507 1.387 . S
H505 C501 0.950 . S
H506 C503 0.950 . S
C507 C498 1.390 . S
C507 H500 0.950 . S
C507 C504 1.387 . S
C508 C509 1.387 . S
C508 H512 0.950 . S
C508 C517 1.390 . S
C509 C508 1.387 . S
C509 C511 1.387 . S
H510 C517 0.950 . S
C511 C509 1.387 . S
C511 C513 1.390 . S
C511 H515 0.950 . S
H512 C508 0.950 . S
C513 C511 1.390 . S
C513 C514 1.387 . S
C513 H516 0.950 . S
C514 C513 1.387 . S
C514 C517 1.387 . S
H515 C511 0.950 . S
H516 C513 0.950 . S
C517 C508 1.390 . S
C517 H510 0.950 . S
C517 C514 1.387 . S
C518 C519 1.387 . S
C518 H522 0.950 . S
C518 C527 1.390 . S
C519 C518 1.387 . S
C519 C521 1.387 . S
H520 C527 0.950 . S
C521 C519 1.387 . S
C521 C523 1.390 . S
C521 H525 0.950 . S
H522 C518 0.950 . S
C523 C521 1.390 . S
C523 C524 1.387 . S
C523 H526 0.950 . S
C524 C523 1.387 . S
C524 C527 1.387 . S
H525 C521 0.950 . S
H526 C523 0.950 . S
C527 C518 1.390 . S
C527 H520 0.950 . S
C527 C524 1.387 . S
C528 C529 1.387 . S
C528 H532 0.950 . S
C528 C537 1.390 . S
C529 C528 1.387 . S
C529 C531 1.387 1_565 S
H530 C537 0.950 1_556 S
C531 C529 1.387 1_545 S
C531 C533 1.390 . S
C531 H535 0.950 . S
H532 C528 0.950 . S
C533 C531 1.390 . S
C533 C534 1.387 1_544 S
C533 H536 0.950 . S
C534 C533 1.387 1_566 S
C534 C537 1.387 1_556 S
H535 C531 0.950 . S
H536 C533 0.950 . S
C537 C528 1.390 . S
C537 H530 0.950 1_554 S
C537 C534 1.387 1_554 S
C538 C539 1.387 . S
C538 H542 0.950 . S
C538 C547 1.390 . S
C539 C538 1.387 . S
C539 C541 1.387 . S
H540 C547 0.950 . S
C541 C539 1.387 . S
C541 C543 1.390 . S
C541 H545 0.950 . S
H542 C538 0.950 . S
C543 C541 1.390 . S
C543 C544 1.387 1_554 S
C543 H546 0.950 1_554 S
C544 C543 1.387 1_556 S
C544 C547 1.387 1_556 S
H545 C541 0.950 . S
H546 C543 0.950 1_556 S
C547 C538 1.390 . S
C547 H540 0.950 . S
C547 C544 1.387 1_554 S
C548 C549 1.387 . S
C548 H552 0.950 . S
C548 C557 1.390 . S
C549 C548 1.387 . S
C549 C551 1.387 . S
H550 C557 0.950 . S
C551 C549 1.387 . S
C551 C553 1.390 . S
C551 H555 0.950 . S
H552 C548 0.950 . S
C553 C551 1.390 . S
C553 C554 1.387 1_554 S
C553 H556 0.950 1_554 S
C554 C553 1.387 1_556 S
C554 C557 1.387 1_556 S
H555 C551 0.950 . S
H556 C553 0.950 1_556 S
C557 C548 1.390 . S
C557 H550 0.950 . S
C557 C554 1.387 1_554 S
C558 C559 1.387 1_455 S
C558 H562 0.950 . S
C558 C567 1.390 . S
C559 C558 1.387 1_655 S
C559 C561 1.387 . S
H560 C567 0.950 . S
C561 C559 1.387 . S
C561 C563 1.390 . S
C561 H565 0.950 . S
H562 C558 0.950 . S
C563 C561 1.390 . S
C563 C564 1.387 1_554 S
C563 H566 0.950 1_554 S
C564 C563 1.387 1_556 S
C564 C567 1.387 1_656 S
H565 C561 0.950 . S
H566 C563 0.950 1_556 S
C567 C558 1.390 . S
C567 H560 0.950 . S
C567 C564 1.387 1_454 S
C568 C569 1.387 . S
C568 H572 0.950 . S
C568 C577 1.390 . S
C569 C568 1.387 . S
C569 C571 1.387 . S
H570 C577 0.950 . S
C571 C569 1.387 . S
C571 C573 1.390 . S
C571 H575 0.950 . S
H572 C568 0.950 . S
C573 C571 1.390 . S
C573 C574 1.387 . S
C573 H576 0.950 . S
C574 C573 1.387 . S
C574 C577 1.387 . S
H575 C571 0.950 . S
H576 C573 0.950 . S
C577 C568 1.390 . S
C577 H570 0.950 . S
C577 C574 1.387 . S
C578 C579 1.387 . S
C578 H582 0.950 . S
C578 C587 1.390 . S
C579 C578 1.387 . S
C579 C581 1.387 . S
H580 C587 0.950 . S
C581 C579 1.387 . S
C581 C583 1.390 1_545 S
C581 H585 0.950 . S
H582 C578 0.950 . S
C583 C581 1.390 1_565 S
C583 C584 1.387 1_565 S
C583 H586 0.950 . S
C584 C583 1.387 1_545 S
C584 C587 1.387 . S
H585 C581 0.950 . S
H586 C583 0.950 . S
C587 C578 1.390 . S
C587 H580 0.950 . S
C587 C584 1.387 . S
C588 C589 1.387 . S
C588 H592 0.950 . S
C588 C597 1.390 . S
C589 C588 1.387 . S
C589 C591 1.387 . S
H590 C597 0.950 . S
C591 C589 1.387 . S
C591 C593 1.390 . S
C591 H595 0.950 . S
H592 C588 0.950 . S
C593 C591 1.390 . S
C593 C594 1.387 . S
C593 H596 0.950 . S
C594 C593 1.387 . S
C594 C597 1.387 . S
H595 C591 0.950 . S
H596 C593 0.950 . S
C597 C588 1.390 . S
C597 H590 0.950 . S
C597 C594 1.387 . S
C598 C599 1.387 . S
C598 H602 0.950 . S
C598 C607 1.390 . S
C599 C598 1.387 . S
C599 C601 1.387 . S
H600 C607 0.950 . S
C601 C599 1.387 . S
C601 C603 1.390 . S
C601 H605 0.950 . S
H602 C598 0.950 . S
C603 C601 1.390 . S
C603 C604 1.387 . S
C603 H606 0.950 . S
C604 C603 1.387 . S
C604 C607 1.387 . S
H605 C601 0.950 . S
H606 C603 0.950 . S
C607 C598 1.390 . S
C607 H600 0.950 . S
C607 C604 1.387 . S
C608 C609 1.387 1_455 S
C608 H612 0.950 . S
C608 C617 1.390 . S
C609 C608 1.387 1_655 S
C609 C611 1.387 . S
H610 C617 0.950 . S
C611 C609 1.387 . S
C611 C613 1.390 . S
C611 H615 0.950 . S
H612 C608 0.950 . S
C613 C611 1.390 . S
C613 C614 1.387 1_655 S
C613 H616 0.950 . S
C614 C613 1.387 1_455 S
C614 C617 1.387 . S
H615 C611 0.950 . S
H616 C613 0.950 . S
C617 C608 1.390 . S
C617 H610 0.950 . S
C617 C614 1.387 . S
C618 C619 1.398 . S
C618 H622 0.948 1_565 S
C618 C627 1.381 1_565 S
C619 C618 1.398 . S
C619 C621 1.387 . S
H620 C627 0.950 . S
C621 C619 1.387 . S
C621 C623 1.390 . S
C621 H625 0.950 . S
H622 C618 0.948 1_545 S
C623 C621 1.390 . S
C623 C624 1.387 1_565 S
C623 H626 0.950 . S
C624 C623 1.387 1_545 S
C624 C627 1.387 . S
H625 C621 0.950 . S
H626 C623 0.950 . S
C627 C618 1.381 1_545 S
C627 H620 0.950 . S
C627 C624 1.387 . S
C628 C629 1.387 . S
C628 H632 0.950 . S
C628 C637 1.390 . S
C629 C628 1.387 . S
C629 C631 1.387 . S
H630 C637 0.950 . S
C631 C629 1.387 . S
C631 C633 1.390 . S
C631 H635 0.950 . S
H632 C628 0.950 . S
C633 C631 1.390 . S
C633 C634 1.387 . S
C633 H636 0.950 . S
C634 C633 1.387 . S
C634 C637 1.387 . S
H635 C631 0.950 . S
H636 C633 0.950 . S
C637 C628 1.390 . S
C637 H630 0.950 . S
C637 C634 1.387 . S
C638 C639 1.387 . S
C638 H642 0.950 . S
C638 C647 1.390 . S
C639 C638 1.387 . S
C639 C641 1.387 . S
H640 C647 0.950 . S
C641 C639 1.387 . S
C641 C643 1.390 . S
C641 H645 0.950 . S
H642 C638 0.950 . S
C643 C641 1.390 . S
C643 C644 1.387 . S
C643 H646 0.950 . S
C644 C643 1.387 . S
C644 C647 1.387 . S
H645 C641 0.950 . S
H646 C643 0.950 . S
C647 C638 1.390 . S
C647 H640 0.950 . S
C647 C644 1.387 . S
C648 C649 1.387 . S
C648 H652 0.950 1_556 S
C648 C657 1.390 . S
C649 C648 1.387 . S
C649 C651 1.387 . S
H650 C657 0.950 1_554 S
C651 C649 1.387 . S
C651 C653 1.390 . S
C651 H655 0.950 . S
H652 C648 0.950 1_554 S
C653 C651 1.390 . S
C653 C654 1.387 . S
C653 H656 0.950 . S
C654 C653 1.387 . S
C654 C657 1.387 . S
H655 C651 0.950 . S
H656 C653 0.950 . S
C657 C648 1.390 . S
C657 H650 0.950 1_556 S
C657 C654 1.387 . S
C658 C659 1.387 . S
C658 H662 0.950 1_556 S
C658 C667 1.390 . S
C659 C658 1.387 . S
C659 C661 1.387 . S
H660 C667 0.944 1_554 S
C661 C659 1.387 . S
C661 C663 1.390 . S
C661 H665 0.950 . S
H662 C658 0.950 1_554 S
C663 C661 1.390 . S
C663 C664 1.387 . S
C663 H666 0.950 . S
C664 C663 1.387 . S
C664 C667 1.387 . S
H665 C661 0.950 . S
H666 C663 0.950 . S
C667 C658 1.390 . S
C667 H660 0.944 1_556 S
C667 C664 1.387 . S
C668 C669 1.387 . S
C668 H672 0.950 1_556 S
C668 C677 1.390 . S
C669 C668 1.387 . S
C669 C671 1.387 . S
H670 C677 0.946 1_554 S
C671 C669 1.387 . S
C671 C673 1.390 . S
C671 H675 0.950 . S
H672 C668 0.950 1_554 S
C673 C671 1.390 . S
C673 C674 1.387 . S
C673 H676 0.950 . S
C674 C673 1.387 . S
C674 C677 1.387 . S
H675 C671 0.950 . S
H676 C673 0.950 . S
C677 C668 1.390 . S
C677 H670 0.946 1_556 S
C677 C674 1.387 . S
C678 C679 1.387 . S
C678 H682 0.950 . S
C678 C687 1.390 . S
C679 C678 1.387 . S
C679 C681 1.387 . S
H680 C687 0.950 . S
C681 C679 1.387 . S
C681 C683 1.390 . S
C681 H685 0.950 . S
H682 C678 0.950 . S
C683 C681 1.390 . S
C683 C684 1.387 . S
C683 H686 0.950 . S
C684 C683 1.387 . S
C684 C687 1.387 . S
H685 C681 0.950 . S
H686 C683 0.950 . S
C687 C678 1.390 . S
C687 H680 0.950 . S
C687 C684 1.387 . S
C688 C689 1.387 . S
C688 H692 0.950 . S
C688 C697 1.390 . S
C689 C688 1.387 . S
C689 C691 1.387 . S
H690 C697 0.950 . S
C691 C689 1.387 . S
C691 C693 1.390 . S
C691 H695 0.950 . S
H692 C688 0.950 . S
C693 C691 1.390 . S
C693 C694 1.387 . S
C693 H696 0.950 . S
C694 C693 1.387 . S
C694 C697 1.387 . S
H695 C691 0.950 . S
H696 C693 0.950 . S
C697 C688 1.390 . S
C697 H690 0.950 . S
C697 C694 1.387 . S
C698 C699 1.387 . S
C698 H702 0.950 . S
C698 C707 1.390 . S
C699 C698 1.387 . S
C699 C701 1.382 1_565 S
H700 C707 0.950 . S
C701 C699 1.382 1_545 S
C701 C703 1.391 . S
C701 H705 0.954 . S
H702 C698 0.950 . S
C703 C701 1.391 . S
C703 C704 1.387 1_545 S
C703 H706 0.950 . S
C704 C703 1.387 1_565 S
C704 C707 1.387 . S
H705 C701 0.954 . S
H706 C703 0.950 . S
C707 C698 1.390 . S
C707 H700 0.950 . S
C707 C704 1.387 . S
C708 C709 1.387 . S
C708 H712 0.950 . S
C708 C717 1.390 . S
C709 C708 1.387 . S
C709 C711 1.387 . S
H710 C717 0.950 . S
C711 C709 1.387 . S
C711 C713 1.390 . S
C711 H715 0.950 . S
H712 C708 0.950 . S
C713 C711 1.390 . S
C713 C714 1.387 . S
C713 H716 0.950 . S
C714 C713 1.387 . S
C714 C717 1.387 . S
H715 C711 0.950 . S
H716 C713 0.950 . S
C717 C708 1.390 . S
C717 H710 0.950 . S
C717 C714 1.387 . S
C718 C719 1.387 . S
C718 H722 0.950 . S
C718 C727 1.390 . S
C719 C718 1.387 . S
C719 C721 1.387 . S
H720 C727 0.950 . S
C721 C719 1.387 . S
C721 C723 1.390 . S
C721 H725 0.950 . S
H722 C718 0.950 . S
C723 C721 1.390 . S
C723 C724 1.387 . S
C723 H726 0.950 . S
C724 C723 1.387 . S
C724 C727 1.387 . S
H725 C721 0.950 . S
H726 C723 0.950 . S
C727 C718 1.390 . S
C727 H720 0.950 . S
C727 C724 1.387 . S
C489 C125 2.107 . S
C494 C220 2.156 . S
C504 C303 2.161 . S
C499 C144 2.111 . S
C514 C388 2.157 . S
C509 C87 2.111 . S
C524 C472 2.143 . S
C519 C106 2.095 . S
C534 C208 2.158 1_565 S
C529 C49 2.167 . S
C539 C68 2.170 . S
C544 C291 2.160 . S
C549 C11 2.166 . S
C554 C376 2.155 . S
C559 C30 2.152 . S
C564 C460 2.142 1_655 S
C574 C210 0.795 1_455 S
C569 C97 0.796 . S
C584 C306 0.791 . S
C579 C116 0.782 . S
C594 C378 0.801 . S
C589 C135 0.797 . S
C599 C78 0.778 . S
C604 C462 0.781 . S
C609 C21 0.795 . S
C614 C222 0.794 . S
C624 C294 0.788 . S
C619 C40 0.783 . S
C634 C390 0.805 . S
C629 C59 0.797 . S
C639 C2 0.784 . S
C644 C474 0.785 . S
C649 C101 2.034 . S
C654 C207 2.265 . S
C659 C120 2.039 . S
C664 C292 2.323 . S
C674 C375 2.284 . S
C669 C139 2.048 . S
C684 C459 2.286 . S
C679 C82 2.053 . S
C689 C25 2.035 . S
C694 C219 2.265 . S
C704 C304 2.324 . S
C699 C44 2.041 . S
C714 C387 2.283 . S
C709 C63 2.050 . S
C719 C6 2.055 . S
C724 C471 2.286 . S
