# Generated by pormake.
# Topology zzz, (3,6)-cn, num edge types: 1
# Building blocks:
#     Node 0, Type 0, BuildingBlock: KAKCAD_clean_linker_0, # of connection points: 3
#     Node 1, Type 0, BuildingBlock: KAKCAD_clean_linker_0, # of connection points: 3
#     Node 2, Type 0, BuildingBlock: KAKCAD_clean_linker_0, # of connection points: 3
#     Node 3, Type 0, BuildingBlock: KAKCAD_clean_linker_0, # of connection points: 3
#     Node 4, Type 0, BuildingBlock: KAKCAD_clean_linker_0, # of connection points: 3
#     Node 5, Type 0, BuildingBlock: KAKCAD_clean_linker_0, # of connection points: 3
#     Node 6, Type 0, BuildingBlock: KAKCAD_clean_linker_0, # of connection points: 3
#     Node 7, Type 0, BuildingBlock: KAKCAD_clean_linker_0, # of connection points: 3
#     Node 8, Type 1, BuildingBlock: LEVNOQ01_clean_sbu_1, # of connection points: 6
#     Node 9, Type 1, BuildingBlock: LEVNOQ01_clean_sbu_1, # of connection points: 6
#     Node 10, Type 1, BuildingBlock: LEVNOQ01_clean_sbu_1, # of connection points: 6
#     Node 11, Type 1, BuildingBlock: LEVNOQ01_clean_sbu_1, # of connection points: 6
#     Edge 12, Type (0, 1), BuildingBlock: CIFDUS_clean_linker_0, # of connection points: 2
#     Edge 13, Type (0, 1), BuildingBlock: CIFDUS_clean_linker_0, # of connection points: 2
#     Edge 14, Type (0, 1), BuildingBlock: CIFDUS_clean_linker_0, # of connection points: 2
#     Edge 15, Type (0, 1), BuildingBlock: CIFDUS_clean_linker_0, # of connection points: 2
#     Edge 16, Type (0, 1), BuildingBlock: CIFDUS_clean_linker_0, # of connection points: 2
#     Edge 17, Type (0, 1), BuildingBlock: CIFDUS_clean_linker_0, # of connection points: 2
#     Edge 18, Type (0, 1), BuildingBlock: CIFDUS_clean_linker_0, # of connection points: 2
#     Edge 19, Type (0, 1), BuildingBlock: CIFDUS_clean_linker_0, # of connection points: 2
#     Edge 20, Type (0, 1), BuildingBlock: CIFDUS_clean_linker_0, # of connection points: 2
#     Edge 21, Type (0, 1), BuildingBlock: CIFDUS_clean_linker_0, # of connection points: 2
#     Edge 22, Type (0, 1), BuildingBlock: CIFDUS_clean_linker_0, # of connection points: 2
#     Edge 23, Type (0, 1), BuildingBlock: CIFDUS_clean_linker_0, # of connection points: 2
#     Edge 24, Type (0, 1), BuildingBlock: CIFDUS_clean_linker_0, # of connection points: 2
#     Edge 25, Type (0, 1), BuildingBlock: CIFDUS_clean_linker_0, # of connection points: 2
#     Edge 26, Type (0, 1), BuildingBlock: CIFDUS_clean_linker_0, # of connection points: 2
#     Edge 27, Type (0, 1), BuildingBlock: CIFDUS_clean_linker_0, # of connection points: 2
#     Edge 28, Type (0, 1), BuildingBlock: CIFDUS_clean_linker_0, # of connection points: 2
#     Edge 29, Type (0, 1), BuildingBlock: CIFDUS_clean_linker_0, # of connection points: 2
#     Edge 30, Type (0, 1), BuildingBlock: CIFDUS_clean_linker_0, # of connection points: 2
#     Edge 31, Type (0, 1), BuildingBlock: CIFDUS_clean_linker_0, # of connection points: 2
#     Edge 32, Type (0, 1), BuildingBlock: CIFDUS_clean_linker_0, # of connection points: 2
#     Edge 33, Type (0, 1), BuildingBlock: CIFDUS_clean_linker_0, # of connection points: 2
#     Edge 34, Type (0, 1), BuildingBlock: CIFDUS_clean_linker_0, # of connection points: 2
#     Edge 35, Type (0, 1), BuildingBlock: CIFDUS_clean_linker_0, # of connection points: 2
# Relax obj value: 0.304
# Max RMSD: 0.218
# Mean RMSD: 0.206
data_MOF--net-zzz--node1-LEVNOQ01_clean_sbu_1--node2-KAKCAD_clean_linker_0--edge1-CIFDUS_clean_linker_0
_symmetry_space_group_name_H-M    P1
_symmetry_Int_Tables_number       1
_symmetry_cell_setting            triclinic
loop_
_symmetry_equiv_pos_as_xyz
'x, y, z'
_cell_length_a     48.893035
_cell_length_b     52.219362
_cell_length_c     18.800339
_cell_angle_alpha  89.492178
_cell_angle_beta   89.93362
_cell_angle_gamma 88.349995
loop_
_atom_site_label
_atom_site_type_symbol
_atom_site_fract_x
_atom_site_fract_y
_atom_site_fract_z
_atom_type_partial_charge
C0 C 0.8254 0.55454 0.0583 0.0
C1 C 0.85136 0.56309 0.07724 0.0
C2 C 0.8018 0.56604 0.08673 0.0
C3 C 0.80365 0.58646 0.13451 0.0
C4 C 0.82947 0.59673 0.14748 0.0
C5 C 0.85315 0.58508 0.11929 0.0
C6 C 0.78004 0.59274 0.18167 0.0
C7 C 0.75309 0.5925 0.15624 0.0
C8 C 0.73082 0.59028 0.20336 0.0
C9 C 0.73595 0.58871 0.2773 0.0
C10 C 0.76285 0.59038 0.30321 0.0
C11 C 0.78447 0.59295 0.2551 0.0
C12 C 0.77045 0.58431 0.37777 0.0
C13 C 0.78733 0.60105 0.41446 0.0
C14 C 0.76851 0.55897 0.40239 0.0
C15 C 0.78548 0.54979 0.4575 0.0
C16 C 0.80461 0.56584 0.48903 0.0
C17 C 0.7034 0.58517 0.17298 0.0
C18 C 0.69389 0.59876 0.1124 0.0
C19 C 0.68898 0.56376 0.1962 0.0
C20 C 0.66744 0.5546 0.15562 0.0
C21 C 0.65981 0.56668 0.0911 0.0
C22 C 0.67226 0.58963 0.07191 0.0
C23 C 0.80418 0.59193 0.46968 0.0
H24 H 0.82336 0.5381 0.02416 0.0
H25 H 0.78235 0.5575 0.07574 0.0
H26 H 0.8315 0.61265 0.18344 0.0
H27 H 0.87287 0.59229 0.13419 0.0
H28 H 0.74968 0.5918 0.09934 0.0
H29 H 0.80527 0.59199 0.27525 0.0
H30 H 0.71934 0.58546 0.31419 0.0
H31 H 0.78937 0.62061 0.39594 0.0
H32 H 0.75608 0.54557 0.3741 0.0
H33 H 0.78525 0.52958 0.47087 0.0
H34 H 0.70442 0.6155 0.09362 0.0
H35 H 0.69579 0.55277 0.24233 0.0
H36 H 0.81818 0.60495 0.49402 0.0
H37 H 0.66691 0.59934 0.02248 0.0
H38 H 0.65799 0.537 0.17211 0.0
C39 C 0.02203 0.83461 0.04614 0.0
C40 C 0.04429 0.84733 0.07522 0.0
C41 C 0.01325 0.81186 0.07676 0.0
C42 C 0.0264 0.80177 0.13741 0.0
C43 C 0.04957 0.81374 0.16419 0.0
C44 C 0.05863 0.8363 0.13282 0.0
C45 C 0.01325 0.78164 0.17936 0.0
C46 C 1.00705 0.75804 0.14983 0.0
C47 C 0.99292 0.73975 0.18976 0.0
C48 C 0.98433 0.74561 0.25991 0.0
C49 C 0.99055 0.76958 0.28925 0.0
C50 C 1.00509 0.78715 0.2487 0.0
C51 C 0.98308 0.77785 0.36197 0.0
C52 C 0.96033 0.79456 0.37094 0.0
C53 C 1.00374 0.77746 0.41368 0.0
C54 C 1.0031 0.79519 0.46907 0.0
C55 C 0.98163 0.81372 0.47452 0.0
C56 C 0.9879 0.71485 0.15553 0.0
C57 C 0.96283 0.71063 0.12196 0.0
C58 C 0.01015 0.69798 0.14216 0.0
C59 C 0.00787 0.67809 0.09326 0.0
C60 C 0.98331 0.67475 0.05583 0.0
C61 C 0.96053 0.69076 0.07264 0.0
C62 C 0.9595 0.81219 0.42689 0.0
H63 H 0.01091 0.84274 1.00109 0.0
H64 H 0.99518 0.80305 0.05585 0.0
H65 H 0.05987 0.80624 0.21127 0.0
H66 H 0.07588 0.84581 0.15579 0.0
H67 H 0.01326 0.75388 0.09564 0.0
H68 H 0.00957 0.80568 0.27101 0.0
H69 H 0.97332 0.73174 0.29112 0.0
H70 H 0.94445 0.79569 0.33078 0.0
H71 H 0.02191 0.76536 0.40676 0.0
H72 H 0.02075 0.79569 0.50364 0.0
H73 H 0.94555 0.72371 0.13033 0.0
H74 H 0.02987 0.70122 0.16622 0.0
H75 H 0.94227 0.82562 0.43007 0.0
H76 H 0.94122 0.68861 0.04549 0.0
H77 H 0.02596 0.66647 0.08129 0.0
C78 C 0.68353 0.95004 0.0621 0.0
C79 C 0.65733 0.94348 0.08551 0.0
C80 C 0.70678 0.93779 0.09055 0.0
C81 C 0.7043 0.91866 0.14296 0.0
C82 C 0.67802 0.91025 0.16077 0.0
C83 C 0.65469 0.92261 0.13232 0.0
C84 C 0.72823 0.91196 0.18872 0.0
C85 C 0.75471 0.90976 0.16032 0.0
C86 C 0.7779 0.91092 0.20445 0.0
C87 C 0.77426 0.91415 0.27843 0.0
C88 C 0.7477 0.91483 0.30756 0.0
C89 C 0.72505 0.91334 0.26246 0.0
C90 C 0.74178 0.92145 0.38241 0.0
C91 C 0.72536 0.90513 0.42282 0.0
C92 C 0.74418 0.94697 0.40367 0.0
C93 C 0.72797 0.95675 0.45919 0.0
C94 C 0.70913 0.94111 0.49432 0.0
C95 C 0.80523 0.91199 0.17001 0.0
C96 C 0.81242 0.89434 0.11669 0.0
C97 C 0.82195 0.93305 0.18074 0.0
C98 C 0.84392 0.9376 0.13473 0.0
C99 C 0.84958 0.92113 0.07729 0.0
C100 C 0.83438 0.8988 0.07102 0.0
C101 C 0.70923 0.91485 0.47834 0.0
H102 H 0.68611 0.96563 0.02449 0.0
H103 H 0.72661 0.94489 0.07575 0.0
H104 H 0.6755 0.89531 0.20037 0.0
H105 H 0.63471 0.91697 0.1506 0.0
H106 H 0.75728 0.90898 0.10307 0.0
H107 H 0.70472 0.91602 0.28484 0.0
H108 H 0.79181 0.91645 0.3127 0.0
H109 H 0.72293 0.88544 0.40681 0.0
H110 H 0.75624 0.96005 0.37241 0.0
H111 H 0.72842 0.97707 0.46998 0.0
H112 H 0.80001 0.87782 0.10764 0.0
H113 H 0.81674 0.94708 0.22101 0.0
H114 H 0.69542 0.90217 0.50543 0.0
H115 H 0.83852 0.88547 0.02826 0.0
H116 H 0.85508 0.95506 0.14092 0.0
C117 C 0.5151 0.71392 0.4567 0.0
C118 C 0.53665 0.69555 0.46335 0.0
C119 C 0.51594 0.7332 0.40443 0.0
C120 C 0.53827 0.73446 0.35756 0.0
C121 C 0.5615 0.71869 0.37166 0.0
C122 C 0.56067 0.69933 0.4238 0.0
C123 C 0.53224 0.7406 0.28197 0.0
C124 C 0.53806 0.76384 0.24677 0.0
C125 C 0.53312 0.76646 0.1725 0.0
C126 C 0.52271 0.74544 0.13524 0.0
C127 C 0.51742 0.72232 0.17034 0.0
C128 C 0.52137 0.72058 0.24356 0.0
C129 C 0.50895 0.69917 0.13192 0.0
C130 C 0.48879 0.70046 0.07883 0.0
C131 C 0.52026 0.6751 0.15184 0.0
C132 C 0.51083 0.65277 0.12204 0.0
C133 C 0.49039 0.65385 0.06969 0.0
C134 C 0.53885 0.79054 0.13176 0.0
C135 C 0.5307 0.81484 0.15721 0.0
C136 C 0.55022 0.78902 0.06306 0.0
C137 C 0.55164 0.8107 0.01922 0.0
C138 C 0.54218 0.83491 0.04277 0.0
C139 C 0.53236 0.83675 0.11332 0.0
C140 C 0.47964 0.67798 0.04778 0.0
H141 H 0.49655 0.71206 0.48764 0.0
H142 H 0.49758 0.74478 0.39433 0.0
H143 H 0.5788 0.71885 0.33559 0.0
H144 H 0.57773 0.6857 0.42753 0.0
H145 H 0.54672 0.77937 0.27627 0.0
H146 H 0.51654 0.70297 0.27141 0.0
H147 H 0.51904 0.74689 0.07852 0.0
H148 H 0.47966 0.71872 0.0625 0.0
H149 H 0.53627 0.67343 0.19156 0.0
H150 H 0.51939 0.63462 0.14102 0.0
H151 H 0.52189 0.81678 0.20984 0.0
H152 H 0.55725 0.77075 0.04195 0.0
H153 H 0.46424 0.67955 0.00653 0.0
H154 H 0.52537 0.85503 0.13434 0.0
H155 H 0.55906 0.80806 0.96546 0.0
C156 C 0.17409 0.43853 0.39524 0.0
C157 C 0.14951 0.42618 0.38279 0.0
C158 C 0.1983 0.42958 0.36381 0.0
C159 C 0.1982 0.40836 0.31849 0.0
C160 C 0.1738 0.39516 0.30915 0.0
C161 C 0.14959 0.4039 0.34177 0.0
C162 C 0.22184 0.40372 0.27089 0.0
C163 C 0.24863 0.40315 0.29717 0.0
C164 C 0.27109 0.40571 0.25098 0.0
C165 C 0.26634 0.4094 0.17743 0.0
C166 C 0.23944 0.40885 0.15073 0.0
C167 C 0.21758 0.4054 0.19764 0.0
C168 C 0.23206 0.41625 0.0771 0.0
C169 C 0.23005 0.44242 0.05996 0.0
C170 C 0.21804 0.39881 0.03515 0.0
C171 C 0.20003 0.40761 0.98199 0.0
C172 C 0.1954 0.43406 0.9705 0.0
C173 C 0.29874 0.40726 0.28291 0.0
C174 C 0.31415 0.42934 0.27375 0.0
C175 C 0.30756 0.38864 0.33285 0.0
C176 C 0.32992 0.39293 0.37692 0.0
C177 C 0.34386 0.41608 0.37254 0.0
C178 C 0.3365 0.43374 0.31828 0.0
C179 C 0.21181 0.45129 0.00733 0.0
H180 H 0.17436 0.45564 0.42744 0.0
H181 H 0.21669 0.44037 0.37094 0.0
H182 H 0.17324 0.37886 0.27397 0.0
H183 H 0.13075 0.39407 0.33213 0.0
H184 H 0.25188 0.4023 0.35422 0.0
H185 H 0.19679 0.4068 0.1774 0.0
H186 H 0.28323 0.41298 0.14171 0.0
H187 H 0.24015 0.45627 0.0927 0.0
H188 H 0.21896 0.37855 0.0482 0.0
H189 H 0.18832 0.39375 0.95339 0.0
H190 H 0.30763 0.4441 0.23611 0.0
H191 H 0.29611 0.37137 0.34063 0.0
H192 H 0.20883 0.47178 1.00043 0.0
H193 H 0.34666 0.45184 0.31365 0.0
H194 H 0.33537 0.3787 0.41712 0.0
C195 C 0.96126 0.18118 0.34122 0.0
C196 C 0.97547 0.16964 0.39836 0.0
C197 C 0.97087 0.20354 0.30994 0.0
C198 C 0.9945 0.21484 0.33628 0.0
C199 C 1.0074 0.20444 0.39692 0.0
C200 C 0.99804 0.18188 0.42752 0.0
C201 C 0.00892 0.23359 0.29224 0.0
C202 C 0.01576 0.2576 0.31794 0.0
C203 C 0.03143 0.27422 0.27624 0.0
C204 C 0.04097 0.26621 0.20855 0.0
C205 C 0.03447 0.24167 0.18358 0.0
C206 C 0.01808 0.22597 0.22534 0.0
C207 C 0.0437 0.23083 0.11466 0.0
C208 C 0.02958 0.23791 0.05237 0.0
C209 C 0.05877 0.20747 0.11592 0.0
C210 C 0.05641 0.18989 0.06066 0.0
C211 C 0.03926 0.19548 0.00214 0.0
C212 C 0.0377 0.29944 0.30686 0.0
C213 C 0.0171 0.3187 0.30968 0.0
C214 C 0.06138 0.30205 0.34799 0.0
C215 C 0.06363 0.32272 0.39458 0.0
C216 C 0.04217 0.34116 0.40117 0.0
C217 C 0.01938 0.33944 0.35591 0.0
C218 C 0.02763 0.2205 0.99625 0.0
H219 H 0.94378 0.17207 0.31805 0.0
H220 H 0.96084 0.21119 0.26266 0.0
H221 H 0.02586 0.21269 0.41737 0.0
H222 H 0.00908 0.17342 0.47224 0.0
H223 H 0.00897 0.26333 0.37055 0.0
H224 H 0.01301 0.20711 0.20625 0.0
H225 H 0.0534 0.27869 0.17644 0.0
H226 H 0.01761 0.25568 0.05013 0.0
H227 H 0.06958 0.20143 0.16378 0.0
H228 H 0.06581 0.17103 0.06779 0.0
H229 H 0.99838 0.31677 0.27967 0.0
H230 H 0.07728 0.28716 0.34777 0.0
H231 H 0.01513 0.22599 0.95084 0.0
H232 H 1.00232 0.35304 0.35999 0.0
H233 H 0.08158 0.32357 0.42807 0.0
C234 C 0.34094 0.07482 0.40239 0.0
C235 C 0.36488 0.08666 0.38015 0.0
C236 C 0.31581 0.08193 0.37228 0.0
C237 C 0.31423 0.10082 0.31863 0.0
C238 C 0.33803 0.1139 0.29991 0.0
C239 C 0.36324 0.10693 0.33084 0.0
C240 C 0.2894 0.10265 0.27348 0.0
C241 C 0.26323 0.10153 0.30368 0.0
C242 C 0.24039 0.09498 0.26245 0.0
C243 C 0.24415 0.09075 0.18881 0.0
C244 C 0.27012 0.0934 0.15751 0.0
C245 C 0.29236 0.09968 0.20013 0.0
C246 C 0.27637 0.08522 0.08396 0.0
C247 C 0.27449 0.05927 0.06633 0.0
C248 C 0.2913 0.10139 0.03927 0.0
C249 C 0.30643 0.09131 0.98243 0.0
C250 C 0.30701 0.06483 0.96939 0.0
C251 C 0.21366 0.09008 0.29829 0.0
C252 C 0.2133 0.07938 0.36737 0.0
C253 C 0.18842 0.09545 0.26432 0.0
C254 C 0.16363 0.09018 0.29858 0.0
C255 C 0.16358 0.07988 0.36793 0.0
C256 C 0.18868 0.07466 0.40185 0.0
C257 C 0.28971 0.04913 0.0095 0.0
H258 H 0.34189 0.05924 0.44087 0.0
H259 H 0.298 0.07122 0.38714 0.0
H260 H 0.33737 0.12852 0.25866 0.0
H261 H 0.38157 0.11634 0.31349 0.0
H262 H 0.26111 0.10453 0.36036 0.0
H263 H 0.31271 0.09951 0.17698 0.0
H264 H 0.22739 0.08435 0.15647 0.0
H265 H 0.26349 0.04634 0.10067 0.0
H266 H 0.29317 0.12145 0.0521 0.0
H267 H 0.31904 0.104 0.95151 0.0
H268 H 0.23208 0.07396 0.39471 0.0
H269 H 0.18779 0.10379 0.21139 0.0
H270 H 0.28971 0.02865 1.00104 0.0
H271 H 0.18932 0.06601 0.45445 0.0
H272 H 0.14452 0.09418 0.27102 0.0
C273 C 0.45726 0.32084 0.04192 0.0
C274 C 0.47474 0.31989 0.98237 0.0
C275 C 0.45944 0.30213 0.09567 0.0
C276 C 0.47919 0.2821 0.09142 0.0
C277 C 0.49457 0.27955 0.02871 0.0
C278 C 0.4922 0.29811 0.97447 0.0
C279 C 0.49067 0.2715 0.15877 0.0
C280 C 0.48374 0.2477 0.18916 0.0
C281 C 0.49428 0.24049 0.25681 0.0
C282 C 0.51098 0.2574 0.29362 0.0
C283 C 0.51784 0.28093 0.26322 0.0
C284 C 0.50807 0.28749 0.19562 0.0
C285 C 0.53156 0.30074 0.30448 0.0
C286 C 0.51944 0.3096 0.36761 0.0
C287 C 0.55308 0.31438 0.27393 0.0
C288 C 0.56091 0.33757 0.30311 0.0
C289 C 0.54703 0.34752 0.3625 0.0
C290 C 0.48732 0.21622 0.29329 0.0
C291 C 0.46521 0.21593 0.34093 0.0
C292 C 0.5062 0.19543 0.29359 0.0
C293 C 0.50383 0.17536 0.34319 0.0
C294 C 0.48275 0.17588 0.39432 0.0
C295 C 0.4629 0.19597 0.39078 0.0
C296 C 0.527 0.33292 0.39615 0.0
H297 H 0.44362 0.33722 0.05051 0.0
H298 H 0.44783 0.30493 0.14426 0.0
H299 H 0.51034 0.26463 0.02463 0.0
H300 H 0.50547 0.29625 0.92854 0.0
H301 H 0.47008 0.23525 0.16137 0.0
H302 H 0.5127 0.30608 0.17298 0.0
H303 H 0.51818 0.25247 0.3467 0.0
H304 H 0.50262 0.29958 0.39163 0.0
H305 H 0.56261 0.30789 0.225 0.0
H306 H 0.57646 0.34851 0.27653 0.0
H307 H 0.45072 0.232 0.34268 0.0
H308 H 0.52379 0.19554 0.25849 0.0
H309 H 0.51628 0.34017 0.44262 0.0
H310 H 0.44627 0.19689 0.42885 0.0
H311 H 0.51965 0.16042 0.34473 0.0
O312 O 0.0674 0.97337 0.81866 0.0
Mg313 Mg 0.06126 0.9755 0.70843 0.0
O314 O 0.02353 0.98351 0.82874 0.0
Mg315 Mg 1.00683 0.00653 0.73023 0.0
O316 O 0.04852 0.01107 0.67322 0.0
O317 O 0.08953 0.9936 0.64706 0.0
O318 O 0.991 0.02975 0.63182 0.0
O319 O 0.01548 0.04523 0.7897 0.0
Mg320 Mg 0.95233 0.03672 0.74773 0.0
O321 O 0.96474 0.00165 0.78707 0.0
O322 O 0.94706 0.03948 0.63701 0.0
O323 O 0.97528 0.06593 0.79562 0.0
O324 O 0.92293 0.01895 0.80569 0.0
C325 C 0.01194 0.94786 0.65287 0.0
C326 C 0.0457 0.97414 0.85536 0.0
C327 C 0.07219 0.01262 0.64229 0.0
C328 C 0.96937 0.03922 0.60296 0.0
C329 C 1.0009 0.06499 0.80724 0.0
C330 C 0.94067 0.00055 0.81642 0.0
O331 O 0.03751 0.94617 0.66425 0.0
O332 O 0.99789 0.968 0.66975 0.0
O333 O 0.43407 0.98789 0.73732 0.0
Mg334 Mg 0.46107 0.96233 0.67949 0.0
O335 O 0.46446 0.01639 0.77146 0.0
Mg336 Mg 0.50629 0.004 0.72128 0.0
O337 O 0.49601 0.96188 0.73861 0.0
O338 O 0.4727 0.92675 0.72439 0.0
O339 O 0.54825 0.99143 0.67132 0.0
O340 O 0.52561 -0.00052 0.83272 0.0
Mg341 Mg 0.55071 0.04513 0.76407 0.0
O342 O 0.51632 0.0465 0.70297 0.0
O343 O 0.57839 0.01966 0.70834 0.0
O344 O 0.54347 0.0349 0.87173 0.0
O345 O 0.54024 0.08121 0.7219 0.0
C346 C 0.47408 0.99638 0.56175 0.0
C347 C 0.43998 0.00823 0.77037 0.0
C348 C 0.49234 0.93814 0.75561 0.0
C349 C 0.57277 -0.00056 0.67438 0.0
C350 C 0.53679 0.0119 0.88228 0.0
C351 C 0.52059 0.07044 0.68893 0.0
O352 O 0.4671 0.9734 0.57145 0.0
O353 O 0.48628 0.00824 0.61081 0.0
O354 O 0.5431 0.44664 0.73073 0.0
Mg355 Mg 0.55592 0.4821 0.68874 0.0
O356 O 0.50262 0.46306 0.75945 0.0
Mg357 Mg 0.50448 0.50338 0.70025 0.0
O358 O 0.54755 0.51299 0.75254 0.0
O359 O 0.58901 0.49375 0.74096 0.0
O360 O 0.50573 0.54404 0.64155 0.0
O361 O 0.49113 0.52296 0.80452 0.0
Mg362 Mg 0.44684 0.52799 0.70365 0.0
O363 O 0.46086 0.49484 0.65675 0.0
O364 O 0.46293 0.55942 0.6469 0.0
O365 O 0.44697 0.5305 0.81543 0.0
O366 O 0.41675 0.50784 0.6569 0.0
C367 C 0.53851 0.47964 0.55438 0.0
C368 C 0.52003 0.44428 0.76055 0.0
C369 C 0.5734 0.51108 0.76976 0.0
C370 C 0.48769 0.56176 0.62788 0.0
C371 C 0.47077 0.53067 0.8415 0.0
C372 C 0.43571 0.49188 0.63623 0.0
O373 O 0.56147 0.48542 0.57878 0.0
O374 O 0.51737 0.48301 0.59344 0.0
O375 O 0.97263 0.47832 0.87072 0.0
Mg376 Mg 0.96673 0.46687 0.76432 0.0
O377 O 0.98929 0.51457 0.83083 0.0
Mg378 Mg 0.00942 0.51082 0.71921 0.0
O379 O 1.00171 0.46788 0.70607 0.0
O380 O 0.9806 0.4315 0.72462 0.0
O381 O 0.0291 0.50679 0.60912 0.0
O382 O 0.05273 0.50147 0.76774 0.0
Mg383 Mg 0.05015 0.55511 0.6645 0.0
O384 O 0.01707 0.55374 0.72983 0.0
O385 O 0.04365 0.5421 0.55886 0.0
O386 O 0.07939 0.53163 0.72224 0.0
O387 O 0.0367 0.59047 0.70612 0.0
C388 C 0.94279 0.51139 0.67106 0.0
C389 C 0.97791 0.50168 0.88014 0.0
C390 C 0.99954 0.44374 0.69229 0.0
C391 C 0.03937 0.5183 0.55591 0.0
C392 C 0.07626 0.51149 0.76005 0.0
C393 C 0.01935 0.57788 0.74324 0.0
O394 O 0.93808 0.49079 0.70536 0.0
O395 O 0.96676 0.52069 0.66898 0.0
H396 H 0.14676 0.09172 0.50181 0.0
H397 H 0.12336 0.05049 0.31491 0.0
H398 H 0.08751 0.0294 0.38262 0.0
H399 H 0.06956 0.01653 0.49995 0.0
H400 H 0.09415 0.05655 0.68742 0.0
H401 H 0.12235 0.08471 0.61483 0.0
C402 C 0.13332 0.07859 0.47565 0.0
C403 C 0.13793 0.07233 0.40384 0.0
C404 C 0.11309 0.06624 0.51527 0.0
C405 C 0.12021 0.05557 0.37012 0.0
C406 C 0.09985 0.04337 0.40899 0.0
C407 C 0.08017 0.03219 0.52419 0.0
C408 C 0.07974 0.03475 0.59851 0.0
C409 C 0.09697 0.04769 0.48227 0.0
C410 C 0.09393 0.05462 0.63008 0.0
C411 C 0.11032 0.07045 0.58866 0.0
H412 H 0.49356 0.12379 0.39479 0.0
H413 H 0.47449 0.1871 0.53407 0.0
H414 H 0.48118 0.15927 0.6376 0.0
H415 H 0.49732 0.1181 0.68955 0.0
H416 H 0.5171 0.05475 0.55207 0.0
H417 H 0.50518 0.08115 0.44749 0.0
C418 C 0.49061 0.13142 0.44779 0.0
C419 C 0.48357 0.15762 0.45623 0.0
C420 C 0.49471 0.11525 0.50771 0.0
C421 C 0.47957 0.16704 0.52553 0.0
C422 C 0.48362 0.15115 0.58505 0.0
C423 C 0.49825 0.10993 0.63672 0.0
C424 C 0.50745 0.08437 0.62853 0.0
C425 C 0.49176 0.12538 0.5769 0.0
C426 C 0.50936 0.07419 0.55977 0.0
C427 C 0.50287 0.08939 0.49993 0.0
H428 H 0.39278 0.4405 0.36112 0.0
H429 H 0.33732 0.40858 0.51485 0.0
H430 H 0.36406 0.42559 0.61158 0.0
H431 H 0.39917 0.45474 0.65229 0.0
H432 H 0.45324 0.48879 0.50034 0.0
H433 H 0.43174 0.46546 0.40362 0.0
C434 C 0.3868 0.43699 0.41582 0.0
C435 C 0.36294 0.42334 0.43035 0.0
C436 C 0.40215 0.44719 0.47175 0.0
C437 C 0.35568 0.41874 0.50174 0.0
C438 C 0.37086 0.42866 0.55735 0.0
C439 C 0.40682 0.45624 0.59824 0.0
C440 C 0.42831 0.47269 0.58334 0.0
C441 C 0.39362 0.44354 0.54297 0.0
C442 C 0.4376 0.47522 0.51311 0.0
C443 C 0.42486 0.46234 0.45774 0.0
H444 H 0.02551 0.39193 0.39906 0.0
H445 H 0.05708 0.33223 0.53914 0.0
H446 H 0.05011 0.36006 0.64125 0.0
H447 H 0.02975 0.39945 0.69297 0.0
H448 H 0.99739 0.45895 0.55445 0.0
H449 H 0.00988 0.43334 0.45008 0.0
C450 C 0.03113 0.38512 0.45184 0.0
C451 C 0.04169 0.35987 0.46105 0.0
C452 C 0.02673 0.40119 0.51094 0.0
C453 C 0.04919 0.35156 0.52995 0.0
C454 C 0.04497 0.36743 0.58872 0.0
C455 C 0.02627 0.40706 0.63977 0.0
C456 C 0.01332 0.43127 0.6312 0.0
C457 C 0.03311 0.39202 0.58014 0.0
C458 C 0.00802 0.44063 0.5622 0.0
C459 C 0.01486 0.42585 0.50257 0.0
H460 H 0.90001 0.94286 0.08686 0.0
H461 H 0.84035 0.91803 0.93506 0.0
H462 H 0.86631 0.93674 0.83829 0.0
H463 H 0.90211 0.9656 0.7985 0.0
H464 H 0.96078 0.99231 0.94889 0.0
H465 H 0.93965 0.96716 0.04388 0.0
C466 C 0.89294 0.94124 0.03248 0.0
C467 C 0.86814 0.92913 0.0186 0.0
C468 C 0.90789 0.9524 0.9766 0.0
C469 C 0.85945 0.92697 0.94759 0.0
C470 C 0.87419 0.93787 0.89201 0.0
C471 C 0.9108 0.96507 0.8516 0.0
C472 C 0.93338 0.98008 0.86662 0.0
C473 C 0.89794 0.95129 0.90609 0.0
C474 C 0.94409 0.98 0.9358 0.0
C475 C 0.93164 0.96604 0.99031 0.0
H476 H 0.50389 0.87451 0.03677 0.0
H477 H 0.5774 0.84635 0.93252 0.0
H478 H 0.57035 0.87766 0.83698 0.0
H479 H 0.54003 0.90981 0.77504 0.0
H480 H 0.46798 0.93879 0.88284 0.0
H481 H 0.47827 0.91117 0.98548 0.0
C482 C 0.5189 0.87554 0.99448 0.0
C483 C 0.54075 0.85731 0.9917 0.0
C484 C 0.51497 0.89392 0.93973 0.0
C485 C 0.55976 0.8593 0.93547 0.0
C486 C 0.55589 0.87743 0.88069 0.0
C487 C 0.52717 0.91059 0.82204 0.0
C488 C 0.50342 0.92644 0.82182 0.0
C489 C 0.53307 0.89432 0.88095 0.0
C490 C 0.48655 0.92694 0.88234 0.0
C491 C 0.4923 0.91098 0.9408 0.0
H492 H 0.61626 0.58498 0.0097 0.0
H493 H 0.66691 0.51744 0.052 0.0
H494 H 0.64436 0.49479 0.95745 0.0
H495 H 0.61235 0.49439 0.85961 0.0
H496 H 0.55907 0.55987 0.81663 0.0
H497 H 0.58038 0.58311 0.91474 0.0
C498 C 0.62206 0.56523 0.99848 0.0
C499 C 0.64317 0.55288 0.0383 0.0
C500 C 0.60878 0.55206 0.94361 0.0
C501 C 0.65047 0.52727 0.02324 0.0
C502 C 0.63776 0.51434 0.96866 0.0
C503 C 0.60541 0.51383 0.87126 0.0
C504 C 0.58467 0.52565 0.8298 0.0
C505 C 0.61725 0.52663 0.92799 0.0
C506 C 0.57531 0.55051 0.8472 0.0
C507 C 0.5875 0.56375 0.90325 0.0
H508 H 1.00662 0.62648 0.04607 0.0
H509 H 0.95901 0.68265 0.92601 0.0
H510 H 0.96301 0.65614 0.82014 0.0
H511 H 0.98449 0.61916 0.75758 0.0
H512 H 0.03357 0.56407 0.87639 0.0
H513 H 0.02491 0.58795 0.98599 0.0
C514 C 0.99694 0.63285 0.99692 0.0
C515 C 0.98263 0.65669 0.99443 0.0
C516 C 0.99975 0.61769 0.93553 0.0
C517 C 0.96989 0.66435 0.93021 0.0
C518 C 0.97239 0.64927 0.86918 0.0
C519 C 0.99252 0.61207 0.80799 0.0
C520 C 0.00887 0.58947 0.80958 0.0
C521 C 0.98779 0.62618 0.87071 0.0
C522 C 0.02022 0.581 0.87446 0.0
C523 C 0.01548 0.59478 0.937 0.0
H524 H 0.00902 0.12801 0.41115 0.0
H525 H 0.92538 0.15395 0.44178 0.0
H526 H 0.91442 0.11247 0.49493 0.0
H527 H 0.93038 0.07164 0.54717 0.0
H528 H 0.01474 0.04655 0.52084 0.0
H529 H 0.02343 0.0845 0.44878 0.0
C530 C 0.98837 0.12444 0.4292 0.0
C531 C 0.96813 0.14402 0.42444 0.0
C532 C 0.98235 0.10069 0.45972 0.0
C533 C 0.94128 0.13913 0.4459 0.0
C534 C 0.93505 0.11547 0.4761 0.0
C535 C 0.9505 0.07405 0.52407 0.0
C536 C 0.97203 0.05655 0.54085 0.0
C537 C 0.95564 0.09642 0.4852 0.0
C538 C 0.99785 0.05985 0.50955 0.0
C539 C 1.00293 0.08171 0.46895 0.0
H540 H 0.38799 0.04112 0.34632 0.0
H541 H 0.40038 0.10865 0.47079 0.0
H542 H 0.43944 0.08735 0.53069 0.0
H543 H 0.46369 0.04729 0.56131 0.0
H544 H 0.4517 0.9794 0.43756 0.0
H545 H 0.41855 0.0031 0.36283 0.0
C546 C 0.39979 0.05127 0.38534 0.0
C547 C 0.39145 0.07617 0.40512 0.0
C548 C 0.42193 0.0388 0.41965 0.0
C549 C 0.40663 0.08943 0.45525 0.0
C550 C 0.4288 0.07721 0.48948 0.0
C551 C 0.45518 0.03799 0.51551 0.0
C552 C 0.46057 0.01168 0.50448 0.0
C553 C 0.43593 0.05161 0.47386 0.0
C554 C 0.44803 -0.00036 0.44702 0.0
C555 C 0.42895 0.01315 0.40464 0.0
H556 H 0.50866 0.38508 0.37586 0.0
H557 H 0.59519 0.36921 0.39872 0.0
H558 H 0.60122 0.41211 0.44747 0.0
H559 H 0.58064 0.45128 0.49827 0.0
H560 H 0.49376 0.46611 0.47924 0.0
H561 H 0.48909 0.42679 0.4118 0.0
C562 C 0.52884 0.39116 0.39121 0.0
C563 C 0.55138 0.37402 0.38562 0.0
C564 C 0.53203 0.41564 0.41918 0.0
C565 C 0.57756 0.38213 0.40359 0.0
C566 C 0.58097 0.40659 0.43129 0.0
C567 C 0.56079 0.44637 0.4775 0.0
C568 C 0.53738 0.4614 0.49486 0.0
C569 C 0.5582 0.4232 0.44122 0.0
C570 C 0.51192 0.45473 0.46726 0.0
C571 C 0.50925 0.43212 0.42928 0.0
H572 H 0.12579 0.47137 0.34416 0.0
H573 H 0.11651 0.40634 0.48395 0.0
H574 H 0.07847 0.42853 0.54459 0.0
H575 H 0.0531 0.46824 0.56752 0.0
H576 H 0.06101 0.53351 0.4276 0.0
H577 H 0.09458 0.50925 0.35616 0.0
C578 C 0.1149 0.46196 0.38689 0.0
C579 C 0.12382 0.43751 0.41052 0.0
C580 C 0.09304 0.47478 0.42099 0.0
C581 C 0.1098 0.4252 0.46538 0.0
C582 C 0.08815 0.43787 0.49988 0.0
C583 C 0.06083 0.47681 0.51918 0.0
C584 C 0.05402 0.50252 0.5022 0.0
C585 C 0.08014 0.46289 0.47926 0.0
C586 C 0.06569 0.51369 0.44153 0.0
C587 C 0.085 0.49988 0.40101 0.0
H588 H 0.0106 0.88877 0.06427 0.0
H589 H 0.09371 0.8627 0.0263 0.0
H590 H 0.10347 0.90342 0.96693 0.0
H591 H 0.08609 0.94306 0.91051 0.0
H592 H 1.00227 0.96811 0.94445 0.0
H593 H 0.99524 0.93161 0.02339 0.0
C594 C 0.0309 0.89222 0.04354 0.0
C595 C 0.05129 0.8728 0.04775 0.0
C596 C 0.03619 0.91546 0.00931 0.0
C597 C 0.07772 0.87745 0.02264 0.0
C598 C 0.08324 0.90065 0.98882 0.0
C599 C 0.06648 0.94098 0.93666 0.0
C600 C 0.04444 0.95793 0.92006 0.0
C601 C 0.06234 0.9194 0.9797 0.0
C602 C 0.01937 0.95513 0.95545 0.0
C603 C 0.01529 0.93411 1.00007 0.0
H604 H 0.60708 0.92864 0.04048 0.0
H605 H 0.65366 0.99532 0.08797 0.0
H606 H 0.61665 0.02323 0.04355 0.0
H607 H 0.57462 0.02838 0.97541 0.0
H608 H 0.52872 0.96202 0.92112 0.0
H609 H 0.5611 0.93444 0.98703 0.0
C610 C 0.60886 0.94929 0.04211 0.0
C611 C 0.63334 0.95991 0.06545 0.0
C612 C 0.58754 0.9653 0.01567 0.0
C613 C 0.63533 0.98669 0.06801 0.0
C614 C 0.6141 0.00268 0.04324 0.0
C615 C 0.57116 0.008 0.97964 0.0
C616 C 0.54965 -0.00278 0.94178 0.0
C617 C 0.59056 0.99218 0.01463 0.0
C618 C 0.54536 0.97077 0.94885 0.0
C619 C 0.56406 0.95494 0.98593 0.0
H620 H 0.52101 0.6111 0.03822 0.0
H621 H 0.4383 0.64235 0.0289 0.0
H622 H 0.42361 0.60398 0.96819 0.0
H623 H 0.43545 0.564 0.90676 0.0
H624 H 0.51834 0.53323 0.91632 0.0
H625 H 0.53133 0.56839 0.99241 0.0
C626 C 0.4996 0.60936 0.02475 0.0
C627 C 0.48089 0.62982 0.03738 0.0
C628 C 0.49123 0.58718 0.99077 0.0
C629 C 0.45332 0.62723 0.01817 0.0
C630 C 0.44482 0.60517 0.98419 0.0
C631 C 0.45615 0.56451 0.92725 0.0
C632 C 0.47599 0.54625 0.9049 0.0
C633 C 0.46375 0.5853 0.96874 0.0
C634 C 0.50271 0.54717 0.9322 0.0
C635 C 0.51025 0.56743 0.97507 0.0
H636 H 0.89999 0.58079 0.02848 0.0
H637 H 0.85876 0.51128 0.08262 0.0
H638 H 0.89773 0.48567 0.03987 0.0
H639 H 0.94053 0.48304 0.97322 0.0
H640 H 0.98018 0.5523 0.91146 0.0
H641 H 0.9459 0.57794 0.97484 0.0
C642 C 0.89976 0.56006 0.03201 0.0
C643 C 0.87624 0.54797 0.05692 0.0
C644 C 0.9222 0.54538 0.00687 0.0
C645 C 0.87628 0.52106 0.06147 0.0
C646 C 0.89867 0.50637 0.03773 0.0
C647 C 0.9422 0.50368 0.97528 0.0
C648 C 0.963 0.51579 0.93702 0.0
C649 C 0.92137 0.51832 0.00829 0.0
C650 C 0.96468 0.54255 0.94082 0.0
C651 C 0.9447 0.55724 0.97609 0.0
H652 H 0.06805 0.15207 0.9565 0.0
H653 H 0.98852 0.19029 0.94389 0.0
H654 H 0.97067 0.1542 0.88084 0.0
H655 H 0.97605 0.1108 0.83647 0.0
H656 H 0.05426 0.07068 0.8516 0.0
H657 H 0.07383 0.10822 0.90779 0.0
C658 C 0.04682 0.1526 0.93995 0.0
C659 C 0.0299 0.17433 0.95513 0.0
C660 C 0.03619 0.13118 0.90507 0.0
C661 C 1.00249 0.17445 0.93195 0.0
C662 C 0.99201 0.15353 0.89656 0.0
C663 C 0.99742 0.1101 0.85191 0.0
C664 C 0.01352 0.08769 0.84029 0.0
C665 C 0.00848 0.13166 0.884 0.0
C666 C 0.04126 0.08751 0.86019 0.0
C667 C 0.05248 0.10903 0.89227 0.0
H668 H 0.36046 0.07713 0.95822 0.0
H669 H 0.30113 0.02585 0.874 0.0
H670 H 0.337 0.00414 0.80428 0.0
H671 H 0.3854 -0.00125 0.77093 0.0
H672 H 0.44462 0.05019 0.85551 0.0
H673 H 0.40841 0.07301 0.92075 0.0
C674 C 0.3552 0.06155 0.92347 0.0
C675 C 0.32805 0.05323 0.92115 0.0
C676 C 0.37594 0.04907 0.88399 0.0
C677 C 0.32184 0.03258 0.87711 0.0
C678 C 0.34235 0.02017 0.83721 0.0
C679 C 0.39046 0.01499 0.80347 0.0
C680 C 0.41783 0.02259 0.80849 0.0
C681 C 0.36953 0.02804 0.84098 0.0
C682 C 0.42383 0.04381 0.85068 0.0
C683 C 0.40311 0.0569 0.88806 0.0
H684 H 0.52137 0.33814 0.9239 0.0
H685 H 0.43446 0.3544 0.93541 0.0
H686 H 0.4404 0.39445 0.86919 0.0
H687 H 0.47089 0.42574 0.81013 0.0
H688 H 0.55745 0.40727 0.79736 0.0
H689 H 0.5508 0.36729 0.86062 0.0
C690 C 0.5035 0.34999 0.91063 0.0
C691 C 0.47747 0.34293 0.93479 0.0
C692 C 0.50702 0.37291 0.87236 0.0
C693 C 0.45484 0.35926 0.91832 0.0
C694 C 0.45821 0.38222 0.88022 0.0
C695 C 0.48824 0.41294 0.82116 0.0
C696 C 0.51465 0.41976 0.79882 0.0
C697 C 0.4843 0.38946 0.85758 0.0
C698 C 0.53685 0.40272 0.81339 0.0
C699 C 0.53312 0.37972 0.84981 0.0
H700 H 0.19171 0.47638 0.88363 0.0
H701 H 0.14433 0.41388 0.96394 0.0
H702 H 0.10362 0.43172 0.90522 0.0
H703 H 0.08059 0.46634 0.83583 0.0
H704 H 0.12801 0.52961 0.7601 0.0
H705 H 0.16904 0.51049 0.81349 0.0
C706 C 0.17251 0.46663 0.88844 0.0
C707 C 0.17135 0.44372 0.92815 0.0
C708 C 0.14887 0.47734 0.85603 0.0
C709 C 0.1462 0.43125 0.93266 0.0
C710 C 0.12269 0.44162 0.89977 0.0
C711 C 0.09987 0.47598 0.8311 0.0
C712 C 0.10098 0.49949 0.79412 0.0
C713 C 0.12367 0.46486 0.86209 0.0
C714 C 0.12632 0.51154 0.78828 0.0
C715 C 0.14994 0.5006 0.81874 0.0
H716 H 0.96393 0.86385 0.45385 0.0
H717 H 1.00528 0.81427 0.60726 0.0
H718 H 0.01718 0.85138 0.67692 0.0
H719 H 0.0196 0.89812 0.68891 0.0
H720 H 0.9755 0.94781 0.54225 0.0
H721 H 0.96027 0.91037 0.47637 0.0
C722 C 0.97487 0.86092 0.50347 0.0
C723 C 0.98418 0.83601 0.52385 0.0
C724 C 0.98129 0.88245 0.54444 0.0
C725 C 0.99852 0.83306 0.58849 0.0
C726 C 1.00525 0.85433 0.62884 0.0
C727 C 1.00629 0.90069 0.64311 0.0
C728 C 0.99888 0.92563 0.61989 0.0
C729 C 0.99742 0.87913 0.60627 0.0
C730 C 0.9814 0.92878 0.5611 0.0
C731 C 0.97286 0.90737 0.52328 0.0
H732 H 0.65504 0.93027 0.49461 0.0
H733 H 0.71355 0.97877 0.59434 0.0
H734 H 0.67653 0.00084 0.65901 0.0
H735 H 0.62752 0.00737 0.68379 0.0
H736 H 0.56905 0.95864 0.58439 0.0
H737 H 0.60624 0.93546 0.52364 0.0
C738 C 0.65983 0.9453 0.53164 0.0
C739 C 0.68715 0.95274 0.53976 0.0
C740 C 0.63843 0.958 0.56827 0.0
C741 C 0.69276 0.97272 0.58673 0.0
C742 C 0.67159 0.98534 0.62374 0.0
C743 C 0.62283 0.99167 0.64889 0.0
C744 C 0.59539 0.98494 0.63841 0.0
C745 C 0.64432 0.97837 0.61419 0.0
C746 C 0.58988 0.96435 0.5934 0.0
C747 C 0.61116 0.95106 0.55861 0.0
H748 H 0.49123 0.66702 0.46179 0.0
H749 H 0.57282 0.66739 0.54842 0.0
H750 H 0.566 0.62522 0.60331 0.0
H751 H 0.53607 0.58811 0.62819 0.0
H752 H 0.45439 0.58963 0.54101 0.0
H753 H 0.46211 0.63093 0.48513 0.0
C754 C 0.50743 0.65819 0.49378 0.0
C755 C 0.53235 0.67072 0.50178 0.0
C756 C 0.50343 0.63398 0.52469 0.0
C757 C 0.55336 0.65835 0.54151 0.0
C758 C 0.54947 0.63417 0.57285 0.0
C759 C 0.52016 0.59739 0.59623 0.0
C760 C 0.49466 0.58568 0.58895 0.0
C761 C 0.52456 0.62169 0.56471 0.0
C762 C 0.47415 0.59816 0.54794 0.0
C763 C 0.47849 0.62188 0.51596 0.0
H764 H 0.85855 0.57739 0.48583 0.0
H765 H 0.80139 0.52875 0.59305 0.0
H766 H 0.83906 0.50768 0.65843 0.0
H767 H 0.8883 0.5022 0.68238 0.0
H768 H 0.9453 0.55139 0.57624 0.0
H769 H 0.90747 0.57331 0.51388 0.0
C770 C 0.85418 0.56256 0.5246 0.0
C771 C 0.82704 0.55477 0.53457 0.0
C772 C 0.87595 0.55049 0.56184 0.0
C773 C 0.82202 0.53504 0.58386 0.0
C774 C 0.84357 0.523 0.62133 0.0
C775 C 0.89252 0.51771 0.64559 0.0
C776 C 0.91973 0.52496 0.63377 0.0
C777 C 0.87065 0.53035 0.61009 0.0
C778 C 0.92465 0.54531 0.58638 0.0
C779 C 0.903 0.55788 0.55064 0.0
loop_
_geom_bond_atom_site_label_1
_geom_bond_atom_site_label_2
_geom_bond_distance
_geom_bond_site_symmetry_2
_ccdc_geom_bond_type
C0 C1 1.386 . S
C0 C2 1.397 . S
C0 H24 0.931 . S
C1 C0 1.386 . S
C1 C5 1.397 . S
C2 C0 1.397 . S
C2 C3 1.384 . S
C2 H25 0.930 . S
C3 C2 1.384 . S
C3 C4 1.377 . S
C3 C6 1.481 1_556 S
C4 C3 1.377 . S
C4 C5 1.389 . S
C4 H26 0.929 1_556 S
C5 C1 1.397 . S
C5 C4 1.389 . S
C5 H27 0.931 . S
C6 C3 1.481 1_554 S
C6 C7 1.387 . S
C6 C11 1.390 . S
C7 C6 1.387 . S
C7 C8 1.401 . S
C7 H28 0.930 1_554 S
C8 C7 1.401 . S
C8 C9 1.376 . S
C8 C17 1.511 . S
C9 C8 1.376 . S
C9 C10 1.392 . S
C9 H30 0.931 . S
C10 C9 1.392 . S
C10 C11 1.361 . S
C10 C12 1.500 . S
C11 C6 1.390 . S
C11 C10 1.361 . S
C11 H29 0.931 . S
C12 C10 1.500 . S
C12 C13 1.371 . S
C12 C14 1.365 . S
C13 C12 1.371 . S
C13 C23 1.386 . S
C13 H31 0.931 . S
C14 C12 1.365 . S
C14 C15 1.409 . S
C14 H32 0.929 . S
C15 C14 1.409 . S
C15 C16 1.380 . S
C15 H33 0.930 . S
C16 C15 1.380 . S
C16 C23 1.357 . S
C17 C8 1.511 . S
C17 C18 1.341 . S
C17 C19 1.371 . S
C18 C17 1.341 . S
C18 C22 1.394 1_554 S
C18 H34 0.930 1_554 S
C19 C17 1.371 . S
C19 C20 1.392 . S
C19 H35 0.931 . S
C20 C19 1.392 . S
C20 C21 1.331 . S
C20 H38 0.932 . S
C21 C20 1.331 . S
C21 C22 1.336 1_554 S
C22 C18 1.394 1_556 S
C22 C21 1.336 1_556 S
C22 H37 0.929 . S
C23 C13 1.386 . S
C23 C16 1.357 . S
C23 H36 0.928 . S
H24 C0 0.931 . S
H25 C2 0.930 . S
H26 C4 0.929 1_554 S
H27 C5 0.931 . S
H28 C7 0.930 1_556 S
H29 C11 0.931 . S
H30 C9 0.931 . S
H31 C13 0.931 . S
H32 C14 0.929 . S
H33 C15 0.930 . S
H34 C18 0.930 1_556 S
H35 C19 0.931 . S
H36 C23 0.928 . S
H37 C22 0.929 . S
H38 C20 0.932 . S
C39 C40 1.395 . S
C39 C41 1.397 . S
C39 H63 0.931 . S
C40 C39 1.395 . S
C40 C44 1.388 1_655 S
C41 C39 1.397 . S
C41 C42 1.389 1_556 S
C41 H64 0.930 . S
C42 C41 1.389 1_554 S
C42 C43 1.372 1_655 S
C42 C45 1.480 . S
C43 C42 1.372 1_455 S
C43 C44 1.389 1_554 S
C43 H65 0.929 . S
C44 C40 1.388 1_455 S
C44 C43 1.389 1_556 S
C44 H66 0.931 . S
C45 C42 1.480 . S
C45 C46 1.389 . S
C45 C50 1.390 . S
C46 C45 1.389 . S
C46 C47 1.402 . S
C46 H67 0.930 . S
C47 C46 1.402 . S
C47 C48 1.377 . S
C47 C56 1.514 . S
C48 C47 1.377 . S
C48 C49 1.392 . S
C48 H69 0.931 . S
C49 C48 1.392 . S
C49 C50 1.361 . S
C49 C51 1.499 1_655 S
C50 C45 1.390 . S
C50 C49 1.361 . S
C50 H68 0.931 . S
C51 C49 1.499 1_455 S
C51 C52 1.361 1_455 S
C51 C53 1.376 . S
C52 C51 1.361 1_655 S
C52 C62 1.386 . S
C52 H70 0.931 . S
C53 C51 1.376 . S
C53 C54 1.409 . S
C53 H71 0.929 . S
C54 C53 1.409 . S
C54 C55 1.380 . S
C54 H72 0.930 . S
C55 C54 1.380 . S
C55 C62 1.358 1_455 S
C56 C47 1.514 . S
C56 C57 1.341 . S
C56 C58 1.371 1_655 S
C57 C56 1.341 . S
C57 C61 1.394 . S
C57 H73 0.930 1_554 S
C58 C56 1.371 1_455 S
C58 C59 1.392 . S
C58 H74 0.931 . S
C59 C58 1.392 . S
C59 C60 1.322 1_455 S
C59 H77 0.932 . S
C60 C59 1.322 1_655 S
C60 C61 1.344 . S
C61 C57 1.394 . S
C61 C60 1.344 . S
C61 H76 0.929 1_554 S
C62 C52 1.386 . S
C62 C55 1.358 1_655 S
C62 H75 0.928 . S
H63 C39 0.931 . S
H64 C41 0.930 . S
H65 C43 0.929 . S
H66 C44 0.931 . S
H67 C46 0.930 . S
H68 C50 0.931 . S
H69 C48 0.931 . S
H70 C52 0.931 . S
H71 C53 0.929 . S
H72 C54 0.930 . S
H73 C57 0.930 1_556 S
H74 C58 0.931 . S
H75 C62 0.928 . S
H76 C61 0.929 1_556 S
H77 C59 0.932 . S
C78 C79 1.386 . S
C78 C80 1.397 . S
C78 H102 0.931 . S
C79 C78 1.386 . S
C79 C83 1.397 . S
C80 C78 1.397 . S
C80 C81 1.383 1_556 S
C80 H103 0.930 . S
C81 C80 1.383 1_554 S
C81 C82 1.377 . S
C81 C84 1.482 . S
C82 C81 1.377 . S
C82 C83 1.389 1_554 S
C82 H104 0.929 . S
C83 C79 1.397 . S
C83 C82 1.389 1_556 S
C83 H105 0.931 . S
C84 C81 1.482 . S
C84 C85 1.387 . S
C84 C89 1.390 . S
C85 C84 1.387 . S
C85 C86 1.401 . S
C85 H106 0.930 1_554 S
C86 C85 1.401 . S
C86 C87 1.376 . S
C86 C95 1.511 . S
C87 C86 1.376 . S
C87 C88 1.392 . S
C87 H108 0.931 . S
C88 C87 1.392 . S
C88 C89 1.361 . S
C88 C90 1.500 . S
C89 C84 1.390 . S
C89 C88 1.361 . S
C89 H107 0.931 . S
C90 C88 1.500 . S
C90 C91 1.371 . S
C90 C92 1.365 . S
C91 C90 1.371 . S
C91 C101 1.386 . S
C91 H109 0.931 . S
C92 C90 1.365 . S
C92 C93 1.409 . S
C92 H110 0.929 . S
C93 C92 1.409 . S
C93 C94 1.380 . S
C93 H111 0.930 . S
C94 C93 1.380 . S
C94 C101 1.357 . S
C95 C86 1.511 . S
C95 C96 1.341 . S
C95 C97 1.371 . S
C96 C95 1.341 . S
C96 C100 1.394 1_554 S
C96 H112 0.930 1_554 S
C97 C95 1.371 . S
C97 C98 1.392 . S
C97 H113 0.931 . S
C98 C97 1.392 . S
C98 C99 1.331 . S
C98 H116 0.932 . S
C99 C98 1.331 . S
C99 C100 1.336 1_554 S
C100 C96 1.394 1_556 S
C100 C99 1.336 1_556 S
C100 H115 0.929 . S
C101 C91 1.386 . S
C101 C94 1.357 . S
C101 H114 0.928 . S
H102 C78 0.931 . S
H103 C80 0.930 . S
H104 C82 0.929 . S
H105 C83 0.931 . S
H106 C85 0.930 1_556 S
H107 C89 0.931 . S
H108 C87 0.931 . S
H109 C91 0.931 . S
H110 C92 0.929 . S
H111 C93 0.930 . S
H112 C96 0.930 1_556 S
H113 C97 0.931 . S
H114 C101 0.928 . S
H115 C100 0.929 . S
H116 C98 0.932 . S
C117 C118 1.386 . S
C117 C119 1.397 . S
C117 H141 0.931 . S
C118 C117 1.386 . S
C118 C122 1.397 . S
C119 C117 1.397 . S
C119 C120 1.384 . S
C119 H142 0.930 . S
C120 C119 1.384 . S
C120 C121 1.377 . S
C120 C123 1.481 . S
C121 C120 1.377 . S
C121 C122 1.389 . S
C121 H143 0.929 . S
C122 C118 1.397 . S
C122 C121 1.389 . S
C122 H144 0.931 . S
C123 C120 1.481 . S
C123 C124 1.387 . S
C123 C128 1.390 . S
C124 C123 1.387 . S
C124 C125 1.401 . S
C124 H145 0.930 . S
C125 C124 1.401 . S
C125 C126 1.376 . S
C125 C134 1.511 . S
C126 C125 1.376 . S
C126 C127 1.392 . S
C126 H147 0.931 . S
C127 C126 1.392 . S
C127 C128 1.361 . S
C127 C129 1.500 . S
C128 C123 1.390 . S
C128 C127 1.361 . S
C128 H146 0.931 . S
C129 C127 1.500 . S
C129 C130 1.371 1_554 S
C129 C131 1.365 . S
C130 C129 1.371 1_556 S
C130 C140 1.386 . S
C130 H148 0.931 . S
C131 C129 1.365 . S
C131 C132 1.409 1_554 S
C131 H149 0.929 . S
C132 C131 1.409 1_556 S
C132 C133 1.380 . S
C132 H150 0.930 . S
C133 C132 1.380 . S
C133 C140 1.357 . S
C134 C125 1.511 . S
C134 C135 1.341 . S
C134 C136 1.371 . S
C135 C134 1.341 . S
C135 C139 1.394 . S
C135 H151 0.930 . S
C136 C134 1.371 . S
C136 C137 1.392 . S
C136 H152 0.931 1_554 S
C137 C136 1.392 . S
C137 C138 1.331 . S
C137 H155 0.932 1_554 S
C138 C137 1.331 . S
C138 C139 1.336 . S
C139 C135 1.394 . S
C139 C138 1.336 . S
C139 H154 0.929 . S
C140 C130 1.386 . S
C140 C133 1.357 . S
C140 H153 0.928 . S
H141 C117 0.931 . S
H142 C119 0.930 . S
H143 C121 0.929 . S
H144 C122 0.931 . S
H145 C124 0.930 . S
H146 C128 0.931 . S
H147 C126 0.931 . S
H148 C130 0.931 . S
H149 C131 0.929 . S
H150 C132 0.930 . S
H151 C135 0.930 . S
H152 C136 0.931 1_556 S
H153 C140 0.928 . S
H154 C139 0.929 . S
H155 C137 0.932 1_556 S
C156 C157 1.386 . S
C156 C158 1.397 . S
C156 H180 0.931 . S
C157 C156 1.386 . S
C157 C161 1.397 . S
C158 C156 1.397 . S
C158 C159 1.384 . S
C158 H181 0.930 . S
C159 C158 1.384 . S
C159 C160 1.377 . S
C159 C162 1.481 . S
C160 C159 1.377 . S
C160 C161 1.389 . S
C160 H182 0.929 . S
C161 C157 1.397 . S
C161 C160 1.389 . S
C161 H183 0.931 . S
C162 C159 1.481 . S
C162 C163 1.387 . S
C162 C167 1.390 . S
C163 C162 1.387 . S
C163 C164 1.401 . S
C163 H184 0.930 . S
C164 C163 1.401 . S
C164 C165 1.376 . S
C164 C173 1.511 . S
C165 C164 1.376 . S
C165 C166 1.392 . S
C165 H186 0.931 . S
C166 C165 1.392 . S
C166 C167 1.361 . S
C166 C168 1.500 . S
C167 C162 1.390 . S
C167 C166 1.361 . S
C167 H185 0.931 . S
C168 C166 1.500 . S
C168 C169 1.371 . S
C168 C170 1.365 . S
C169 C168 1.371 . S
C169 C179 1.386 . S
C169 H187 0.931 . S
C170 C168 1.365 . S
C170 C171 1.409 . S
C170 H188 0.929 . S
C171 C170 1.409 . S
C171 C172 1.380 . S
C171 H189 0.930 . S
C172 C171 1.380 . S
C172 C179 1.357 . S
C173 C164 1.511 . S
C173 C174 1.341 . S
C173 C175 1.371 . S
C174 C173 1.341 . S
C174 C178 1.394 . S
C174 H190 0.930 . S
C175 C173 1.371 . S
C175 C176 1.392 . S
C175 H191 0.931 . S
C176 C175 1.392 . S
C176 C177 1.331 . S
C176 H194 0.932 . S
C177 C176 1.331 . S
C177 C178 1.336 . S
C178 C174 1.394 . S
C178 C177 1.336 . S
C178 H193 0.929 . S
C179 C169 1.386 . S
C179 C172 1.357 . S
C179 H192 0.928 . S
H180 C156 0.931 . S
H181 C158 0.930 . S
H182 C160 0.929 . S
H183 C161 0.931 . S
H184 C163 0.930 . S
H185 C167 0.931 . S
H186 C165 0.931 . S
H187 C169 0.931 . S
H188 C170 0.929 . S
H189 C171 0.930 . S
H190 C174 0.930 . S
H191 C175 0.931 . S
H192 C179 0.928 . S
H193 C178 0.929 . S
H194 C176 0.932 . S
C195 C196 1.389 . S
C195 C197 1.397 . S
C195 H219 0.931 . S
C196 C195 1.389 . S
C196 C200 1.394 1_655 S
C197 C195 1.397 . S
C197 C198 1.383 . S
C197 H220 0.930 . S
C198 C197 1.383 . S
C198 C199 1.378 1_655 S
C198 C201 1.481 . S
C199 C198 1.378 1_455 S
C199 C200 1.389 . S
C199 H221 0.929 . S
C200 C196 1.394 1_455 S
C200 C199 1.389 . S
C200 H222 0.931 . S
C201 C198 1.481 . S
C201 C202 1.387 . S
C201 C206 1.390 . S
C202 C201 1.387 . S
C202 C203 1.402 . S
C202 H223 0.930 . S
C203 C202 1.402 . S
C203 C204 1.376 . S
C203 C212 1.511 . S
C204 C203 1.376 . S
C204 C205 1.393 1_655 S
C204 H225 0.933 . S
C205 C204 1.393 1_455 S
C205 C206 1.361 1_455 S
C205 C207 1.499 . S
C206 C201 1.390 . S
C206 C205 1.361 1_655 S
C206 H224 0.931 . S
C207 C205 1.499 . S
C207 C208 1.358 1_455 S
C207 C209 1.379 . S
C208 C207 1.358 1_655 S
C208 C218 1.386 . S
C208 H226 0.931 . S
C209 C207 1.379 . S
C209 C210 1.409 . S
C209 H227 0.929 . S
C210 C209 1.409 . S
C210 C211 1.384 . S
C210 H228 0.930 . S
C211 C210 1.384 . S
C211 C218 1.354 1_455 S
C212 C203 1.511 . S
C212 C213 1.341 . S
C212 C214 1.371 1_655 S
C213 C212 1.341 . S
C213 C217 1.394 . S
C213 H229 0.930 . S
C214 C212 1.371 1_455 S
C214 C215 1.392 . S
C214 H230 0.931 . S
C215 C214 1.392 . S
C215 C216 1.326 1_455 S
C215 H233 0.932 . S
C216 C215 1.326 1_655 S
C216 C217 1.342 . S
C217 C213 1.394 . S
C217 C216 1.342 . S
C217 H232 0.929 . S
C218 C208 1.386 . S
C218 C211 1.354 1_655 S
C218 H231 0.928 . S
H219 C195 0.931 . S
H220 C197 0.930 . S
H221 C199 0.929 . S
H222 C200 0.931 . S
H223 C202 0.930 . S
H224 C206 0.931 . S
H225 C204 0.933 . S
H226 C208 0.931 . S
H227 C209 0.929 . S
H228 C210 0.930 . S
H229 C213 0.930 . S
H230 C214 0.931 . S
H231 C218 0.928 . S
H232 C217 0.929 . S
H233 C215 0.932 . S
C234 C235 1.386 . S
C234 C236 1.397 . S
C234 H258 0.931 . S
C235 C234 1.386 . S
C235 C239 1.397 . S
C236 C234 1.397 . S
C236 C237 1.384 . S
C236 H259 0.930 . S
C237 C236 1.384 . S
C237 C238 1.377 . S
C237 C240 1.481 . S
C238 C237 1.377 . S
C238 C239 1.389 . S
C238 H260 0.929 . S
C239 C235 1.397 . S
C239 C238 1.389 . S
C239 H261 0.931 . S
C240 C237 1.481 . S
C240 C241 1.387 . S
C240 C245 1.390 . S
C241 C240 1.387 . S
C241 C242 1.401 . S
C241 H262 0.930 . S
C242 C241 1.401 . S
C242 C243 1.376 . S
C242 C251 1.511 . S
C243 C242 1.376 . S
C243 C244 1.392 . S
C243 H264 0.931 . S
C244 C243 1.392 . S
C244 C245 1.361 . S
C244 C246 1.500 . S
C245 C240 1.390 . S
C245 C244 1.361 . S
C245 H263 0.931 . S
C246 C244 1.500 . S
C246 C247 1.371 . S
C246 C248 1.365 . S
C247 C246 1.371 . S
C247 C257 1.386 . S
C247 H265 0.931 . S
C248 C246 1.365 . S
C248 C249 1.409 . S
C248 H266 0.929 . S
C249 C248 1.409 . S
C249 C250 1.380 . S
C249 H267 0.930 . S
C250 C249 1.380 . S
C250 C257 1.357 . S
C251 C242 1.511 . S
C251 C252 1.341 . S
C251 C253 1.371 . S
C252 C251 1.341 . S
C252 C256 1.394 . S
C252 H268 0.930 . S
C253 C251 1.371 . S
C253 C254 1.392 . S
C253 H269 0.931 . S
C254 C253 1.392 . S
C254 C255 1.331 . S
C254 H272 0.932 . S
C255 C254 1.331 . S
C255 C256 1.336 . S
C256 C252 1.394 . S
C256 C255 1.336 . S
C256 H271 0.929 . S
C257 C247 1.386 . S
C257 C250 1.357 . S
C257 H270 0.928 . S
H258 C234 0.931 . S
H259 C236 0.930 . S
H260 C238 0.929 . S
H261 C239 0.931 . S
H262 C241 0.930 . S
H263 C245 0.931 . S
H264 C243 0.931 . S
H265 C247 0.931 . S
H266 C248 0.929 . S
H267 C249 0.930 . S
H268 C252 0.930 . S
H269 C253 0.931 . S
H270 C257 0.928 . S
H271 C256 0.929 . S
H272 C254 0.932 . S
C273 C274 1.386 . S
C273 C275 1.397 . S
C273 H297 0.931 . S
C274 C273 1.386 . S
C274 C278 1.397 . S
C275 C273 1.397 . S
C275 C276 1.384 . S
C275 H298 0.930 . S
C276 C275 1.384 . S
C276 C277 1.377 . S
C276 C279 1.481 . S
C277 C276 1.377 . S
C277 C278 1.389 . S
C277 H299 0.929 . S
C278 C274 1.397 . S
C278 C277 1.389 . S
C278 H300 0.931 . S
C279 C276 1.481 . S
C279 C280 1.387 . S
C279 C284 1.390 . S
C280 C279 1.387 . S
C280 C281 1.401 . S
C280 H301 0.930 . S
C281 C280 1.401 . S
C281 C282 1.376 . S
C281 C290 1.511 . S
C282 C281 1.376 . S
C282 C283 1.392 . S
C282 H303 0.931 . S
C283 C282 1.392 . S
C283 C284 1.361 . S
C283 C285 1.500 . S
C284 C279 1.390 . S
C284 C283 1.361 . S
C284 H302 0.931 . S
C285 C283 1.500 . S
C285 C286 1.371 . S
C285 C287 1.365 . S
C286 C285 1.371 . S
C286 C296 1.386 . S
C286 H304 0.931 . S
C287 C285 1.365 . S
C287 C288 1.409 . S
C287 H305 0.929 . S
C288 C287 1.409 . S
C288 C289 1.380 . S
C288 H306 0.930 . S
C289 C288 1.380 . S
C289 C296 1.357 . S
C290 C281 1.511 . S
C290 C291 1.341 . S
C290 C292 1.371 . S
C291 C290 1.341 . S
C291 C295 1.394 . S
C291 H307 0.930 . S
C292 C290 1.371 . S
C292 C293 1.392 . S
C292 H308 0.931 . S
C293 C292 1.392 . S
C293 C294 1.331 . S
C293 H311 0.932 . S
C294 C293 1.331 . S
C294 C295 1.336 . S
C295 C291 1.394 . S
C295 C294 1.336 . S
C295 H310 0.929 . S
C296 C286 1.386 . S
C296 C289 1.357 . S
C296 H309 0.928 . S
H297 C273 0.931 . S
H298 C275 0.930 . S
H299 C277 0.929 . S
H300 C278 0.931 . S
H301 C280 0.930 . S
H302 C284 0.931 . S
H303 C282 0.931 . S
H304 C286 0.931 . S
H305 C287 0.929 . S
H306 C288 0.930 . S
H307 C291 0.930 . S
H308 C292 0.931 . S
H309 C296 0.928 . S
H310 C295 0.929 . S
H311 C293 0.932 . S
O312 Mg313 1.990 . S
O312 C326 1.253 . S
Mg313 O312 1.990 . S
Mg313 O316 2.180 1_565 S
Mg313 O317 2.117 . S
Mg313 O331 2.030 . S
O314 Mg315 2.072 1_465 S
O314 C326 1.260 . S
Mg315 O314 2.072 1_645 S
Mg315 O316 2.099 1_655 S
Mg315 O318 2.079 . S
Mg315 O319 2.072 1_655 S
Mg315 O321 2.099 . S
Mg315 O332 2.079 1_545 S
O316 Mg313 2.180 1_545 S
O316 Mg315 2.099 1_455 S
O316 C327 1.279 . S
O317 Mg313 2.117 . S
O317 C327 1.250 1_565 S
O318 Mg315 2.079 . S
O318 C328 1.264 . S
O319 Mg315 2.072 1_455 S
O319 C329 1.260 . S
Mg320 O321 2.180 . S
Mg320 O322 2.030 . S
Mg320 O323 1.990 . S
Mg320 O324 2.117 . S
O321 Mg315 2.099 . S
O321 Mg320 2.180 . S
O321 C330 1.279 . S
O322 Mg320 2.030 . S
O322 C328 1.248 . S
O323 Mg320 1.990 . S
O323 C329 1.253 1_655 S
O324 Mg320 2.117 . S
O324 C330 1.250 . S
C325 O331 1.248 1_655 S
C325 O332 1.264 . S
C326 O312 1.253 . S
C326 O314 1.260 . S
C327 O316 1.279 . S
C327 O317 1.250 1_545 S
C328 O318 1.264 . S
C328 O322 1.248 . S
C329 O319 1.260 . S
C329 O323 1.253 1_455 S
C330 O321 1.279 . S
C330 O324 1.250 . S
O331 Mg313 2.030 . S
O331 C325 1.248 1_455 S
O332 Mg315 2.079 1_565 S
O332 C325 1.264 . S
O333 Mg334 1.990 1_545 S
O333 C347 1.253 . S
Mg334 O333 1.990 1_565 S
Mg334 O337 2.180 . S
Mg334 O338 2.117 . S
Mg334 O352 2.030 1_565 S
O335 Mg336 2.072 . S
O335 C347 1.260 . S
Mg336 O335 2.072 . S
Mg336 O337 2.099 1_545 S
Mg336 O339 2.079 1_545 S
Mg336 O340 2.072 1_545 S
Mg336 O342 2.099 . S
Mg336 O353 2.079 . S
O337 Mg334 2.180 . S
O337 Mg336 2.099 1_565 S
O337 C348 1.279 . S
O338 Mg334 2.117 . S
O338 C348 1.250 . S
O339 Mg336 2.079 1_565 S
O339 C349 1.264 . S
O340 Mg336 2.072 1_565 S
O340 C350 1.260 1_565 S
Mg341 O342 2.180 . S
Mg341 O343 2.026 . S
Mg341 O344 1.990 . S
Mg341 O345 2.117 . S
O342 Mg336 2.099 . S
O342 Mg341 2.180 . S
O342 C351 1.279 . S
O343 Mg341 2.026 . S
O343 C349 1.250 1_545 S
O344 Mg341 1.990 . S
O344 C350 1.253 . S
O345 Mg341 2.117 . S
O345 C351 1.250 . S
C346 O352 1.248 . S
C346 O353 1.264 . S
C347 O333 1.253 . S
C347 O335 1.260 . S
C348 O337 1.279 . S
C348 O338 1.250 . S
C349 O339 1.264 . S
C349 O343 1.250 1_565 S
C350 O340 1.260 1_545 S
C350 O344 1.253 . S
C351 O342 1.279 . S
C351 O345 1.250 . S
O352 Mg334 2.030 1_545 S
O352 C346 1.248 . S
O353 Mg336 2.079 . S
O353 C346 1.264 . S
O354 Mg355 1.990 . S
O354 C368 1.253 . S
Mg355 O354 1.990 . S
Mg355 O358 2.180 . S
Mg355 O359 2.117 . S
Mg355 O373 2.030 . S
O356 Mg357 2.072 . S
O356 C368 1.260 . S
Mg357 O356 2.072 . S
Mg357 O358 2.099 . S
Mg357 O360 2.079 . S
Mg357 O361 2.072 . S
Mg357 O363 2.099 . S
Mg357 O374 2.079 . S
O358 Mg355 2.180 . S
O358 Mg357 2.099 . S
O358 C369 1.279 . S
O359 Mg355 2.117 . S
O359 C369 1.250 . S
O360 Mg357 2.079 . S
O360 C370 1.264 . S
O361 Mg357 2.072 . S
O361 C371 1.260 . S
Mg362 O363 2.180 . S
Mg362 O364 2.030 . S
Mg362 O365 1.990 . S
Mg362 O366 2.117 . S
O363 Mg357 2.099 . S
O363 Mg362 2.180 . S
O363 C372 1.279 . S
O364 Mg362 2.030 . S
O364 C370 1.248 . S
O365 Mg362 1.990 . S
O365 C371 1.253 . S
O366 Mg362 2.117 . S
O366 C372 1.250 . S
C367 O373 1.248 . S
C367 O374 1.264 . S
C368 O354 1.253 . S
C368 O356 1.260 . S
C369 O358 1.279 . S
C369 O359 1.250 . S
C370 O360 1.264 . S
C370 O364 1.248 . S
C371 O361 1.260 . S
C371 O365 1.253 . S
C372 O363 1.279 . S
C372 O366 1.250 . S
O373 Mg355 2.030 . S
O373 C367 1.248 . S
O374 Mg357 2.079 . S
O374 C367 1.264 . S
O375 Mg376 1.990 . S
O375 C389 1.253 . S
Mg376 O375 1.990 . S
Mg376 O379 2.180 . S
Mg376 O380 2.117 . S
Mg376 O394 2.030 . S
O377 Mg378 2.072 1_655 S
O377 C389 1.260 . S
Mg378 O377 2.072 1_455 S
Mg378 O379 2.099 1_455 S
Mg378 O381 2.079 . S
Mg378 O382 2.072 . S
Mg378 O384 2.099 . S
Mg378 O395 2.079 1_455 S
O379 Mg376 2.180 . S
O379 Mg378 2.099 1_655 S
O379 C390 1.279 . S
O380 Mg376 2.117 . S
O380 C390 1.250 . S
O381 Mg378 2.079 . S
O381 C391 1.264 . S
O382 Mg378 2.072 . S
O382 C392 1.260 . S
Mg383 O384 2.180 . S
Mg383 O385 2.030 . S
Mg383 O386 1.990 . S
Mg383 O387 2.117 . S
O384 Mg378 2.099 . S
O384 Mg383 2.180 . S
O384 C393 1.279 . S
O385 Mg383 2.030 . S
O385 C391 1.248 . S
O386 Mg383 1.990 . S
O386 C392 1.253 . S
O387 Mg383 2.117 . S
O387 C393 1.250 . S
C388 O394 1.248 . S
C388 O395 1.264 . S
C389 O375 1.253 . S
C389 O377 1.260 . S
C390 O379 1.279 . S
C390 O380 1.250 . S
C391 O381 1.264 . S
C391 O385 1.248 . S
C392 O382 1.260 . S
C392 O386 1.253 . S
C393 O384 1.279 . S
C393 O387 1.250 . S
O394 Mg376 2.030 . S
O394 C388 1.248 . S
O395 Mg378 2.079 1_655 S
O395 C388 1.264 . S
H396 C402 0.930 . S
H397 C405 0.930 . S
H398 C406 0.930 . S
H399 C407 0.930 . S
H400 C410 0.930 . S
H401 C411 0.930 . S
C402 H396 0.930 . S
C402 C403 1.355 . S
C402 C404 1.415 . S
C403 C402 1.355 . S
C403 C405 1.419 . S
C404 C402 1.415 . S
C404 C409 1.425 . S
C404 C411 1.409 . S
C405 H397 0.930 . S
C405 C403 1.419 . S
C405 C406 1.362 . S
C406 H398 0.930 . S
C406 C405 1.362 . S
C406 C409 1.409 . S
C407 H399 0.930 . S
C407 C408 1.355 . S
C407 C409 1.415 . S
C408 C407 1.355 . S
C408 C410 1.419 . S
C409 C404 1.425 . S
C409 C406 1.409 . S
C409 C407 1.415 . S
C410 H400 0.930 . S
C410 C408 1.419 . S
C410 C411 1.362 . S
C411 H401 0.930 . S
C411 C404 1.409 . S
C411 C410 1.362 . S
H412 C418 0.930 . S
H413 C421 0.930 . S
H414 C422 0.930 . S
H415 C423 0.930 . S
H416 C426 0.930 . S
H417 C427 0.930 . S
C418 H412 0.930 . S
C418 C419 1.355 . S
C418 C420 1.415 . S
C419 C418 1.355 . S
C419 C421 1.419 . S
C420 C418 1.415 . S
C420 C425 1.425 . S
C420 C427 1.409 . S
C421 H413 0.930 . S
C421 C419 1.419 . S
C421 C422 1.362 . S
C422 H414 0.930 . S
C422 C421 1.362 . S
C422 C425 1.409 . S
C423 H415 0.930 . S
C423 C424 1.355 . S
C423 C425 1.415 . S
C424 C423 1.355 . S
C424 C426 1.419 . S
C425 C420 1.425 . S
C425 C422 1.409 . S
C425 C423 1.415 . S
C426 H416 0.930 . S
C426 C424 1.419 . S
C426 C427 1.362 . S
C427 H417 0.930 . S
C427 C420 1.409 . S
C427 C426 1.362 . S
H428 C434 0.930 . S
H429 C437 0.930 . S
H430 C438 0.930 . S
H431 C439 0.930 . S
H432 C442 0.930 . S
H433 C443 0.930 . S
C434 H428 0.930 . S
C434 C435 1.355 . S
C434 C436 1.415 . S
C435 C434 1.355 . S
C435 C437 1.419 . S
C436 C434 1.415 . S
C436 C441 1.425 . S
C436 C443 1.409 . S
C437 H429 0.930 . S
C437 C435 1.419 . S
C437 C438 1.362 . S
C438 H430 0.930 . S
C438 C437 1.362 . S
C438 C441 1.409 . S
C439 H431 0.930 . S
C439 C440 1.355 . S
C439 C441 1.415 . S
C440 C439 1.355 . S
C440 C442 1.419 . S
C441 C436 1.425 . S
C441 C438 1.409 . S
C441 C439 1.415 . S
C442 H432 0.930 . S
C442 C440 1.419 . S
C442 C443 1.362 . S
C443 H433 0.930 . S
C443 C436 1.409 . S
C443 C442 1.362 . S
H444 C450 0.930 1_455 S
H445 C453 0.930 . S
H446 C454 0.930 . S
H447 C455 0.930 . S
H448 C458 0.930 . S
H449 C459 0.930 . S
C450 H444 0.930 1_655 S
C450 C451 1.354 . S
C450 C452 1.415 . S
C451 C450 1.354 . S
C451 C453 1.420 . S
C452 C450 1.415 . S
C452 C457 1.425 . S
C452 C459 1.409 . S
C453 H445 0.930 . S
C453 C451 1.420 . S
C453 C454 1.362 . S
C454 H446 0.930 . S
C454 C453 1.362 . S
C454 C457 1.409 . S
C455 H447 0.930 . S
C455 C456 1.355 . S
C455 C457 1.415 . S
C456 C455 1.355 . S
C456 C458 1.419 . S
C457 C452 1.425 . S
C457 C454 1.409 . S
C457 C455 1.415 . S
C458 H448 0.930 . S
C458 C456 1.419 . S
C458 C459 1.362 . S
C459 H449 0.930 . S
C459 C452 1.409 . S
C459 C458 1.362 . S
H460 C466 0.930 1_554 S
H461 C469 0.930 . S
H462 C470 0.930 . S
H463 C471 0.930 . S
H464 C474 0.930 . S
H465 C475 0.930 . S
C466 H460 0.930 1_556 S
C466 C467 1.355 . S
C466 C468 1.415 . S
C467 C466 1.355 . S
C467 C469 1.419 . S
C468 C466 1.415 . S
C468 C473 1.425 . S
C468 C475 1.409 . S
C469 H461 0.930 . S
C469 C467 1.419 . S
C469 C470 1.362 . S
C470 H462 0.930 . S
C470 C469 1.362 . S
C470 C473 1.409 . S
C471 H463 0.930 . S
C471 C472 1.355 . S
C471 C473 1.415 . S
C472 C471 1.355 . S
C472 C474 1.419 . S
C473 C468 1.425 . S
C473 C470 1.409 . S
C473 C471 1.415 . S
C474 H464 0.930 . S
C474 C472 1.419 . S
C474 C475 1.362 . S
C475 H465 0.930 . S
C475 C468 1.409 . S
C475 C474 1.362 . S
H476 C482 0.930 1_554 S
H477 C485 0.930 . S
H478 C486 0.930 . S
H479 C487 0.930 . S
H480 C490 0.930 . S
H481 C491 0.930 . S
C482 H476 0.930 1_556 S
C482 C483 1.355 1_556 S
C482 C484 1.415 . S
C483 C482 1.355 1_554 S
C483 C485 1.419 1_554 S
C484 C482 1.415 . S
C484 C489 1.425 . S
C484 C491 1.409 . S
C485 H477 0.930 . S
C485 C483 1.419 1_556 S
C485 C486 1.362 . S
C486 H478 0.930 . S
C486 C485 1.362 . S
C486 C489 1.409 . S
C487 H479 0.930 . S
C487 C488 1.355 . S
C487 C489 1.415 . S
C488 C487 1.355 . S
C488 C490 1.419 . S
C489 C484 1.425 . S
C489 C486 1.409 . S
C489 C487 1.415 . S
C490 H480 0.930 . S
C490 C488 1.419 . S
C490 C491 1.362 . S
C491 H481 0.930 . S
C491 C484 1.409 . S
C491 C490 1.362 . S
H492 C498 0.930 . S
H493 C501 0.930 . S
H494 C502 0.930 . S
H495 C503 0.930 . S
H496 C506 0.930 . S
H497 C507 0.930 . S
C498 H492 0.930 . S
C498 C499 1.355 . S
C498 C500 1.415 . S
C499 C498 1.355 . S
C499 C501 1.419 1_556 S
C500 C498 1.415 . S
C500 C505 1.425 . S
C500 C507 1.409 . S
C501 H493 0.930 . S
C501 C499 1.419 1_554 S
C501 C502 1.362 1_554 S
C502 H494 0.930 . S
C502 C501 1.362 1_556 S
C502 C505 1.409 . S
C503 H495 0.930 . S
C503 C504 1.355 . S
C503 C505 1.415 . S
C504 C503 1.355 . S
C504 C506 1.419 . S
C505 C500 1.425 . S
C505 C502 1.409 . S
C505 C503 1.415 . S
C506 H496 0.930 . S
C506 C504 1.419 . S
C506 C507 1.362 . S
C507 H497 0.930 . S
C507 C500 1.409 . S
C507 C506 1.362 . S
H508 C514 0.930 . S
H509 C517 0.930 . S
H510 C518 0.930 . S
H511 C519 0.930 . S
H512 C522 0.930 . S
H513 C523 0.930 . S
C514 H508 0.930 . S
C514 C515 1.355 1_655 S
C514 C516 1.416 1_554 S
C515 C514 1.355 1_455 S
C515 C517 1.419 1_554 S
C516 C514 1.416 1_556 S
C516 C521 1.418 1_655 S
C516 C523 1.416 . S
C517 H509 0.930 . S
C517 C515 1.419 1_556 S
C517 C518 1.362 . S
C518 H510 0.930 . S
C518 C517 1.362 . S
C518 C521 1.409 . S
C519 H511 0.930 . S
C519 C520 1.355 . S
C519 C521 1.415 . S
C520 C519 1.355 . S
C520 C522 1.419 1_455 S
C521 C516 1.418 1_455 S
C521 C518 1.409 . S
C521 C519 1.415 . S
C522 H512 0.930 . S
C522 C520 1.419 1_655 S
C522 C523 1.362 . S
C523 H513 0.930 . S
C523 C516 1.416 . S
C523 C522 1.362 . S
H524 C530 0.930 . S
H525 C533 0.930 . S
H526 C534 0.930 . S
H527 C535 0.930 . S
H528 C538 0.930 . S
H529 C539 0.930 . S
C530 H524 0.930 . S
C530 C531 1.355 1_455 S
C530 C532 1.415 . S
C531 C530 1.355 1_655 S
C531 C533 1.419 . S
C532 C530 1.415 . S
C532 C537 1.425 1_455 S
C532 C539 1.409 . S
C533 H525 0.930 . S
C533 C531 1.419 . S
C533 C534 1.362 . S
C534 H526 0.930 . S
C534 C533 1.362 . S
C534 C537 1.409 . S
C535 H527 0.930 . S
C535 C536 1.355 . S
C535 C537 1.415 . S
C536 C535 1.355 . S
C536 C538 1.419 1_655 S
C537 C532 1.425 1_655 S
C537 C534 1.409 . S
C537 C535 1.415 . S
C538 H528 0.930 . S
C538 C536 1.419 1_455 S
C538 C539 1.362 . S
C539 H529 0.930 . S
C539 C532 1.409 . S
C539 C538 1.362 . S
H540 C546 0.930 . S
H541 C549 0.930 . S
H542 C550 0.930 . S
H543 C551 0.930 . S
H544 C554 0.949 . S
H545 C555 0.930 . S
C546 H540 0.930 . S
C546 C547 1.355 . S
C546 C548 1.415 . S
C547 C546 1.355 . S
C547 C549 1.419 . S
C548 C546 1.415 . S
C548 C553 1.425 . S
C548 C555 1.409 . S
C549 H541 0.930 . S
C549 C547 1.419 . S
C549 C550 1.362 . S
C550 H542 0.930 . S
C550 C549 1.362 . S
C550 C553 1.409 . S
C551 H543 0.930 . S
C551 C552 1.355 . S
C551 C553 1.415 . S
C552 C551 1.355 . S
C552 C554 1.419 . S
C553 C548 1.425 . S
C553 C550 1.409 . S
C553 C551 1.415 . S
C554 H544 0.949 . S
C554 C552 1.419 . S
C554 C555 1.362 . S
C555 H545 0.930 . S
C555 C548 1.409 . S
C555 C554 1.362 . S
H556 C562 0.930 . S
H557 C565 0.930 . S
H558 C566 0.930 . S
H559 C567 0.930 . S
H560 C570 0.930 . S
H561 C571 0.930 . S
C562 H556 0.930 . S
C562 C563 1.355 . S
C562 C564 1.415 . S
C563 C562 1.355 . S
C563 C565 1.419 . S
C564 C562 1.415 . S
C564 C569 1.425 . S
C564 C571 1.409 . S
C565 H557 0.930 . S
C565 C563 1.419 . S
C565 C566 1.362 . S
C566 H558 0.930 . S
C566 C565 1.362 . S
C566 C569 1.409 . S
C567 H559 0.930 . S
C567 C568 1.355 . S
C567 C569 1.415 . S
C568 C567 1.355 . S
C568 C570 1.419 . S
C569 C564 1.425 . S
C569 C566 1.409 . S
C569 C567 1.415 . S
C570 H560 0.930 . S
C570 C568 1.419 . S
C570 C571 1.362 . S
C571 H561 0.930 . S
C571 C564 1.409 . S
C571 C570 1.362 . S
H572 C578 0.930 . S
H573 C581 0.930 . S
H574 C582 0.930 . S
H575 C583 0.930 . S
H576 C586 0.930 . S
H577 C587 0.930 . S
C578 H572 0.930 . S
C578 C579 1.355 . S
C578 C580 1.415 . S
C579 C578 1.355 . S
C579 C581 1.419 . S
C580 C578 1.415 . S
C580 C585 1.425 . S
C580 C587 1.409 . S
C581 H573 0.930 . S
C581 C579 1.419 . S
C581 C582 1.362 . S
C582 H574 0.930 . S
C582 C581 1.362 . S
C582 C585 1.409 . S
C583 H575 0.930 . S
C583 C584 1.355 . S
C583 C585 1.415 . S
C584 C583 1.355 . S
C584 C586 1.419 . S
C585 C580 1.425 . S
C585 C582 1.409 . S
C585 C583 1.415 . S
C586 H576 0.930 . S
C586 C584 1.419 . S
C586 C587 1.362 . S
C587 H577 0.930 . S
C587 C580 1.409 . S
C587 C586 1.362 . S
H588 C594 0.930 . S
H589 C597 0.930 . S
H590 C598 0.930 . S
H591 C599 0.930 . S
H592 C602 0.930 . S
H593 C603 0.930 . S
C594 H588 0.930 . S
C594 C595 1.355 1_655 S
C594 C596 1.415 . S
C595 C594 1.355 1_455 S
C595 C597 1.419 . S
C596 C594 1.415 . S
C596 C601 1.425 1_655 S
C596 C603 1.409 . S
C597 H589 0.930 . S
C597 C595 1.419 . S
C597 C598 1.362 . S
C598 H590 0.930 . S
C598 C597 1.362 . S
C598 C601 1.409 . S
C599 H591 0.930 . S
C599 C600 1.355 . S
C599 C601 1.415 . S
C600 C599 1.355 . S
C600 C602 1.419 1_455 S
C601 C596 1.425 1_455 S
C601 C598 1.409 . S
C601 C599 1.415 . S
C602 H592 0.930 . S
C602 C600 1.419 1_655 S
C602 C603 1.362 . S
C603 H593 0.930 . S
C603 C596 1.409 . S
C603 C602 1.362 . S
H604 C610 0.930 . S
H605 C613 0.930 . S
H606 C614 0.930 . S
H607 C615 0.916 1_545 S
H608 C618 0.930 . S
H609 C619 0.930 . S
C610 H604 0.930 . S
C610 C611 1.355 . S
C610 C612 1.415 . S
C611 C610 1.355 . S
C611 C613 1.419 . S
C612 C610 1.415 . S
C612 C617 1.425 . S
C612 C619 1.409 . S
C613 H605 0.930 . S
C613 C611 1.419 . S
C613 C614 1.362 . S
C614 H606 0.930 . S
C614 C613 1.362 . S
C614 C617 1.409 . S
C615 H607 0.916 1_565 S
C615 C616 1.355 . S
C615 C617 1.415 . S
C616 C615 1.355 . S
C616 C618 1.419 . S
C617 C612 1.425 . S
C617 C614 1.409 . S
C617 C615 1.415 . S
C618 H608 0.930 . S
C618 C616 1.419 . S
C618 C619 1.362 . S
C619 H609 0.930 . S
C619 C612 1.409 . S
C619 C618 1.362 . S
H620 C626 0.930 . S
H621 C629 0.930 . S
H622 C630 0.930 . S
H623 C631 0.930 . S
H624 C634 0.930 . S
H625 C635 0.930 . S
C626 H620 0.930 . S
C626 C627 1.355 . S
C626 C628 1.415 . S
C627 C626 1.355 . S
C627 C629 1.419 . S
C628 C626 1.415 . S
C628 C633 1.425 . S
C628 C635 1.409 . S
C629 H621 0.930 . S
C629 C627 1.419 . S
C629 C630 1.362 . S
C630 H622 0.930 . S
C630 C629 1.362 . S
C630 C633 1.409 . S
C631 H623 0.930 . S
C631 C632 1.355 . S
C631 C633 1.415 . S
C632 C631 1.355 . S
C632 C634 1.419 . S
C633 C628 1.425 . S
C633 C630 1.409 . S
C633 C631 1.415 . S
C634 H624 0.930 . S
C634 C632 1.419 . S
C634 C635 1.362 . S
C635 H625 0.930 . S
C635 C628 1.409 . S
C635 C634 1.362 . S
H636 C642 0.930 . S
H637 C645 0.930 . S
H638 C646 0.930 . S
H639 C647 0.930 . S
H640 C650 0.930 . S
H641 C651 0.930 . S
C642 H636 0.930 . S
C642 C643 1.355 . S
C642 C644 1.415 . S
C643 C642 1.355 . S
C643 C645 1.419 . S
C644 C642 1.415 . S
C644 C649 1.425 . S
C644 C651 1.409 . S
C645 H637 0.930 . S
C645 C643 1.419 . S
C645 C646 1.362 . S
C646 H638 0.930 . S
C646 C645 1.362 . S
C646 C649 1.409 . S
C647 H639 0.930 . S
C647 C648 1.355 . S
C647 C649 1.415 . S
C648 C647 1.355 . S
C648 C650 1.419 . S
C649 C644 1.425 . S
C649 C646 1.409 . S
C649 C647 1.415 . S
C650 H640 0.930 . S
C650 C648 1.419 . S
C650 C651 1.362 . S
C651 H641 0.930 . S
C651 C644 1.409 . S
C651 C650 1.362 . S
H652 C658 0.930 . S
H653 C661 0.930 . S
H654 C662 0.930 1_554 S
H655 C663 0.930 . S
H656 C666 0.930 . S
H657 C667 0.930 . S
C658 H652 0.930 . S
C658 C659 1.340 1_455 S
C658 C660 1.415 . S
C659 C658 1.340 1_655 S
C659 C661 1.437 1_556 S
C660 C658 1.415 . S
C660 C665 1.425 1_455 S
C660 C667 1.409 . S
C661 H653 0.930 . S
C661 C659 1.437 1_554 S
C661 C662 1.362 1_554 S
C662 H654 0.930 1_556 S
C662 C661 1.362 1_556 S
C662 C665 1.409 . S
C663 H655 0.930 . S
C663 C664 1.355 1_655 S
C663 C665 1.415 . S
C664 C663 1.355 1_455 S
C664 C666 1.419 . S
C665 C660 1.425 1_655 S
C665 C662 1.409 . S
C665 C663 1.415 . S
C666 H656 0.930 . S
C666 C664 1.419 . S
C666 C667 1.362 . S
C667 H657 0.930 . S
C667 C660 1.409 . S
C667 C666 1.362 . S
H668 C674 0.930 . S
H669 C677 0.930 1_554 S
H670 C678 0.930 . S
H671 C679 0.930 . S
H672 C682 0.930 . S
H673 C683 0.930 . S
C674 H668 0.930 . S
C674 C675 1.355 . S
C674 C676 1.415 . S
C675 C674 1.355 . S
C675 C677 1.419 . S
C676 C674 1.415 . S
C676 C681 1.425 . S
C676 C683 1.409 . S
C677 H669 0.930 1_556 S
C677 C675 1.419 . S
C677 C678 1.362 . S
C678 H670 0.930 . S
C678 C677 1.362 . S
C678 C681 1.409 . S
C679 H671 0.930 . S
C679 C680 1.355 . S
C679 C681 1.415 . S
C680 C679 1.355 . S
C680 C682 1.419 . S
C681 C676 1.425 . S
C681 C678 1.409 . S
C681 C679 1.415 . S
C682 H672 0.930 . S
C682 C680 1.419 . S
C682 C683 1.362 . S
C683 H673 0.930 . S
C683 C676 1.409 . S
C683 C682 1.362 . S
H684 C690 0.930 1_554 S
H685 C693 0.930 . S
H686 C694 0.930 . S
H687 C695 0.930 . S
H688 C698 0.930 . S
H689 C699 0.930 . S
C690 H684 0.930 1_556 S
C690 C691 1.355 . S
C690 C692 1.415 . S
C691 C690 1.355 . S
C691 C693 1.419 . S
C692 C690 1.415 . S
C692 C697 1.425 . S
C692 C699 1.409 . S
C693 H685 0.930 . S
C693 C691 1.419 . S
C693 C694 1.362 . S
C694 H686 0.930 . S
C694 C693 1.362 . S
C694 C697 1.409 . S
C695 H687 0.930 . S
C695 C696 1.355 . S
C695 C697 1.415 . S
C696 C695 1.355 . S
C696 C698 1.419 . S
C697 C692 1.425 . S
C697 C694 1.409 . S
C697 C695 1.415 . S
C698 H688 0.930 . S
C698 C696 1.419 . S
C698 C699 1.362 . S
C699 H689 0.930 . S
C699 C692 1.409 . S
C699 C698 1.362 . S
H700 C706 0.930 . S
H701 C709 0.930 . S
H702 C710 0.930 . S
H703 C711 0.930 . S
H704 C714 0.930 . S
H705 C715 0.930 . S
C706 H700 0.930 . S
C706 C707 1.355 . S
C706 C708 1.415 . S
C707 C706 1.355 . S
C707 C709 1.419 1_556 S
C708 C706 1.415 . S
C708 C713 1.425 . S
C708 C715 1.409 . S
C709 H701 0.930 . S
C709 C707 1.419 1_554 S
C709 C710 1.362 . S
C710 H702 0.930 . S
C710 C709 1.362 . S
C710 C713 1.409 1_554 S
C711 H703 0.930 . S
C711 C712 1.355 . S
C711 C713 1.415 . S
C712 C711 1.355 . S
C712 C714 1.419 . S
C713 C708 1.425 . S
C713 C710 1.409 1_556 S
C713 C711 1.415 . S
C714 H704 0.930 . S
C714 C712 1.419 . S
C714 C715 1.362 . S
C715 H705 0.930 . S
C715 C708 1.409 . S
C715 C714 1.362 . S
H716 C722 0.930 . S
H717 C725 0.930 . S
H718 C726 0.930 . S
H719 C727 0.927 1_455 S
H720 C730 0.930 . S
H721 C731 0.930 . S
C722 H716 0.930 . S
C722 C723 1.354 1_655 S
C722 C724 1.415 . S
C723 C722 1.354 1_455 S
C723 C725 1.420 . S
C724 C722 1.415 . S
C724 C729 1.419 1_655 S
C724 C731 1.409 . S
C725 H717 0.930 . S
C725 C723 1.420 . S
C725 C726 1.362 . S
C726 H718 0.930 . S
C726 C725 1.362 . S
C726 C729 1.415 . S
C727 H719 0.927 1_655 S
C727 C728 1.357 . S
C727 C729 1.415 1_655 S
C728 C727 1.357 . S
C728 C730 1.419 . S
C729 C724 1.419 1_455 S
C729 C726 1.415 . S
C729 C727 1.415 1_455 S
C730 H720 0.930 . S
C730 C728 1.419 . S
C730 C731 1.362 . S
C731 H721 0.930 . S
C731 C724 1.409 . S
C731 C730 1.362 . S
H732 C738 0.930 . S
H733 C741 0.930 . S
H734 C742 0.930 . S
H735 C743 0.930 . S
H736 C746 0.930 . S
H737 C747 0.930 . S
C738 H732 0.930 . S
C738 C739 1.355 . S
C738 C740 1.415 . S
C739 C738 1.355 . S
C739 C741 1.419 . S
C740 C738 1.415 . S
C740 C745 1.425 . S
C740 C747 1.409 . S
C741 H733 0.930 . S
C741 C739 1.419 . S
C741 C742 1.362 . S
C742 H734 0.930 . S
C742 C741 1.362 . S
C742 C745 1.409 . S
C743 H735 0.930 . S
C743 C744 1.355 . S
C743 C745 1.415 . S
C744 C743 1.355 . S
C744 C746 1.419 . S
C745 C740 1.425 . S
C745 C742 1.409 . S
C745 C743 1.415 . S
C746 H736 0.930 . S
C746 C744 1.419 . S
C746 C747 1.362 . S
C747 H737 0.930 . S
C747 C740 1.409 . S
C747 C746 1.362 . S
H748 C754 0.930 . S
H749 C757 0.930 . S
H750 C758 0.930 . S
H751 C759 0.930 . S
H752 C762 0.930 . S
H753 C763 0.930 . S
C754 H748 0.930 . S
C754 C755 1.355 . S
C754 C756 1.415 . S
C755 C754 1.355 . S
C755 C757 1.419 . S
C756 C754 1.415 . S
C756 C761 1.425 . S
C756 C763 1.409 . S
C757 H749 0.930 . S
C757 C755 1.419 . S
C757 C758 1.362 . S
C758 H750 0.930 . S
C758 C757 1.362 . S
C758 C761 1.409 . S
C759 H751 0.930 . S
C759 C760 1.355 . S
C759 C761 1.415 . S
C760 C759 1.355 . S
C760 C762 1.419 . S
C761 C756 1.425 . S
C761 C758 1.409 . S
C761 C759 1.415 . S
C762 H752 0.930 . S
C762 C760 1.419 . S
C762 C763 1.362 . S
C763 H753 0.930 . S
C763 C756 1.409 . S
C763 C762 1.362 . S
H764 C770 0.930 . S
H765 C773 0.930 . S
H766 C774 0.930 . S
H767 C775 0.930 . S
H768 C778 0.930 . S
H769 C779 0.930 . S
C770 H764 0.930 . S
C770 C771 1.355 . S
C770 C772 1.415 . S
C771 C770 1.355 . S
C771 C773 1.419 . S
C772 C770 1.415 . S
C772 C777 1.425 . S
C772 C779 1.409 . S
C773 H765 0.930 . S
C773 C771 1.419 . S
C773 C774 1.362 . S
C774 H766 0.930 . S
C774 C773 1.362 . S
C774 C777 1.409 . S
C775 H767 0.930 . S
C775 C776 1.355 . S
C775 C777 1.415 . S
C776 C775 1.355 . S
C776 C778 1.419 . S
C777 C772 1.425 . S
C777 C774 1.409 . S
C777 C775 1.415 . S
C778 H768 0.930 . S
C778 C776 1.419 . S
C778 C779 1.362 . S
C779 H769 0.930 . S
C779 C772 1.409 . S
C779 C778 1.362 . S
C403 C255 2.020 . S
C408 C327 2.014 . S
C424 C351 1.421 . S
C419 C294 1.598 . S
C440 C372 1.931 . S
C435 C177 1.960 . S
C456 C390 1.443 . S
C451 C216 1.632 . S
C472 C330 1.876 1_565 S
C467 C99 1.869 1_556 S
C483 C138 1.477 . S
C488 C348 1.266 . S
C499 C21 1.868 1_556 S
C504 C369 1.883 . S
C515 C60 1.501 1_455 S
C520 C393 1.369 . S
C536 C328 0.603 . S
C531 C196 0.535 . S
C552 C346 1.025 . S
C547 C235 0.999 . S
C568 C367 0.557 . S
C563 C289 0.490 . S
C579 C157 0.871 . S
C584 C391 0.958 . S
C595 C40 0.585 1_455 S
C600 C326 0.633 . S
C616 C350 0.988 1_565 S
C611 C79 0.873 . S
C632 C371 0.533 . S
C627 C133 0.494 . S
C643 C1 0.889 . S
C648 C389 1.005 . S
C659 C211 1.928 1_656 S
C664 C329 2.001 . S
C675 C250 2.123 1_556 S
C680 C347 2.179 . S
C696 C368 1.919 . S
C691 C274 1.937 1_556 S
C712 C392 2.210 . S
C707 C172 2.122 1_556 S
C723 C55 1.853 . S
C728 C325 1.880 . S
C744 C349 2.102 . S
C739 C94 2.023 . S
C760 C370 1.797 . S
C755 C118 1.832 . S
C771 C16 1.988 . S
C776 C388 2.070 . S
