# Generated by pormake.
# Topology nom, (4,4)-cn, num edge types: 1
# Building blocks:
#     Node 0, Type 0, BuildingBlock: NAHDIM_clean_linker_0, # of connection points: 4
#     Node 1, Type 0, BuildingBlock: NAHDIM_clean_linker_0, # of connection points: 4
#     Node 2, Type 0, BuildingBlock: NAHDIM_clean_linker_0, # of connection points: 4
#     Node 3, Type 0, BuildingBlock: NAHDIM_clean_linker_0, # of connection points: 4
#     Node 4, Type 0, BuildingBlock: NAHDIM_clean_linker_0, # of connection points: 4
#     Node 5, Type 0, BuildingBlock: NAHDIM_clean_linker_0, # of connection points: 4
#     Node 6, Type 1, BuildingBlock: UXUYUI_clean_sbu_0, # of connection points: 4
#     Node 7, Type 1, BuildingBlock: UXUYUI_clean_sbu_0, # of connection points: 4
#     Node 8, Type 1, BuildingBlock: UXUYUI_clean_sbu_0, # of connection points: 4
#     Node 9, Type 1, BuildingBlock: UXUYUI_clean_sbu_0, # of connection points: 4
#     Node 10, Type 1, BuildingBlock: UXUYUI_clean_sbu_0, # of connection points: 4
#     Node 11, Type 1, BuildingBlock: UXUYUI_clean_sbu_0, # of connection points: 4
#     Edge 12, Type (0, 1), BuildingBlock: XUDNAN_clean_linker_2, # of connection points: 2
#     Edge 13, Type (0, 1), BuildingBlock: XUDNAN_clean_linker_2, # of connection points: 2
#     Edge 14, Type (0, 1), BuildingBlock: XUDNAN_clean_linker_2, # of connection points: 2
#     Edge 15, Type (0, 1), BuildingBlock: XUDNAN_clean_linker_2, # of connection points: 2
#     Edge 16, Type (0, 1), BuildingBlock: XUDNAN_clean_linker_2, # of connection points: 2
#     Edge 17, Type (0, 1), BuildingBlock: XUDNAN_clean_linker_2, # of connection points: 2
#     Edge 18, Type (0, 1), BuildingBlock: XUDNAN_clean_linker_2, # of connection points: 2
#     Edge 19, Type (0, 1), BuildingBlock: XUDNAN_clean_linker_2, # of connection points: 2
#     Edge 20, Type (0, 1), BuildingBlock: XUDNAN_clean_linker_2, # of connection points: 2
#     Edge 21, Type (0, 1), BuildingBlock: XUDNAN_clean_linker_2, # of connection points: 2
#     Edge 22, Type (0, 1), BuildingBlock: XUDNAN_clean_linker_2, # of connection points: 2
#     Edge 23, Type (0, 1), BuildingBlock: XUDNAN_clean_linker_2, # of connection points: 2
#     Edge 24, Type (0, 1), BuildingBlock: XUDNAN_clean_linker_2, # of connection points: 2
#     Edge 25, Type (0, 1), BuildingBlock: XUDNAN_clean_linker_2, # of connection points: 2
#     Edge 26, Type (0, 1), BuildingBlock: XUDNAN_clean_linker_2, # of connection points: 2
#     Edge 27, Type (0, 1), BuildingBlock: XUDNAN_clean_linker_2, # of connection points: 2
#     Edge 28, Type (0, 1), BuildingBlock: XUDNAN_clean_linker_2, # of connection points: 2
#     Edge 29, Type (0, 1), BuildingBlock: XUDNAN_clean_linker_2, # of connection points: 2
#     Edge 30, Type (0, 1), BuildingBlock: XUDNAN_clean_linker_2, # of connection points: 2
#     Edge 31, Type (0, 1), BuildingBlock: XUDNAN_clean_linker_2, # of connection points: 2
#     Edge 32, Type (0, 1), BuildingBlock: XUDNAN_clean_linker_2, # of connection points: 2
#     Edge 33, Type (0, 1), BuildingBlock: XUDNAN_clean_linker_2, # of connection points: 2
#     Edge 34, Type (0, 1), BuildingBlock: XUDNAN_clean_linker_2, # of connection points: 2
#     Edge 35, Type (0, 1), BuildingBlock: XUDNAN_clean_linker_2, # of connection points: 2
# Relax obj value: 0.085
# Max RMSD: 0.155
# Mean RMSD: 0.138
data_MOF--net-nom--node1-UXUYUI_clean_sbu_0--node2-NAHDIM_clean_linker_0--edge1-XUDNAN_clean_linker_2
_symmetry_space_group_name_H-M    P1
_symmetry_Int_Tables_number       1
_symmetry_cell_setting            triclinic
loop_
_symmetry_equiv_pos_as_xyz
'x, y, z'
_cell_length_a     67.207515
_cell_length_b     67.19663
_cell_length_c     82.150485
_cell_angle_alpha  90.099942
_cell_angle_beta   90.084905
_cell_angle_gamma 120.00286
loop_
_atom_site_label
_atom_site_type_symbol
_atom_site_fract_x
_atom_site_fract_y
_atom_site_fract_z
_atom_type_partial_charge
C0 C 0.19127 0.63042 0.2753 0.0
C1 C 0.17029 0.60737 0.27565 0.0
C2 C 0.12909 0.59123 0.28086 0.0
C3 C 0.12378 0.56825 0.28239 0.0
C4 C 0.10142 0.55095 0.28648 0.0
C5 C 0.08423 0.55685 0.28927 0.0
C6 C 0.08964 0.58001 0.28777 0.0
C7 C 0.11197 0.59682 0.28346 0.0
C8 C 0.09611 0.52639 0.28783 0.0
C9 C 0.0718 0.58702 0.29059 0.0
C10 C 0.94607 0.49974 0.2057 0.0
C11 C 0.9575 0.50767 0.22173 0.0
C12 C 0.97639 0.49808 0.24307 0.0
C13 C 0.97967 0.5162 0.25342 0.0
C14 C 0.99359 0.52175 0.26732 0.0
C15 C 0.00415 0.50867 0.27117 0.0
C16 C 8e-05 0.48978 0.26121 0.0
C17 C 0.98621 0.48473 0.24727 0.0
C18 C 0.99739 0.54194 0.2777 0.0
C19 C 0.01079 0.47527 0.26512 0.0
C20 C 0.92211 0.46397 0.3662 0.0
C21 C 0.93536 0.48787 0.36526 0.0
C22 C 0.95824 0.49869 0.35998 0.0
C23 C 0.96825 0.4852 0.3558 0.0
C24 C 0.95503 0.46097 0.3568 0.0
C25 C 0.93202 0.45056 0.36184 0.0
C26 C 0.97178 0.52457 0.35896 0.0
C27 C 0.96532 0.44613 0.35265 0.0
C28 C 0.13841 0.56095 0.39783 0.0
C29 C 0.11949 0.54329 0.40889 0.0
C30 C 0.08377 0.53857 0.39732 0.0
C31 C 0.07437 0.55228 0.39306 0.0
C32 C 0.05747 0.54533 0.38089 0.0
C33 C 0.04959 0.52395 0.37299 0.0
C34 C 0.05827 0.50952 0.37774 0.0
C35 C 0.07519 0.51691 0.3899 0.0
C36 C 0.04833 0.56097 0.37625 0.0
C37 C 0.04976 0.48633 0.36985 0.0
C38 C 0.06049 0.53902 0.29375 0.0
C39 C 0.04397 0.53003 0.28139 0.0
C40 C 0.02068 0.51579 0.28494 0.0
C41 C 0.01355 0.51025 0.30131 0.0
C42 C 0.99019 0.49674 0.3054 0.0
C43 C 0.98329 0.49235 0.3216 0.0
C44 C 0.99954 0.50072 0.33431 0.0
C45 C 0.99274 0.49661 0.35082 0.0
C46 C 0.0094 0.50441 0.36311 0.0
C47 C 0.0328 0.51687 0.35941 0.0
C48 C 0.0399 0.52212 0.34303 0.0
C49 C 0.06326 0.53567 0.33895 0.0
C50 C 0.07004 0.54127 0.32283 0.0
C51 C 0.0538 0.53302 0.31013 0.0
C52 C 0.03021 0.51882 0.31393 0.0
C53 C 0.02321 0.51377 0.33043 0.0
C54 C 0.8846 0.41966 0.38672 0.0
C55 C 0.88302 0.43191 0.37144 0.0
O56 O 0.15036 0.60856 0.27689 0.0
O57 O 0.10073 0.54664 0.40874 0.0
O58 O 0.90012 0.45479 0.37159 0.0
O59 O 0.96438 0.49339 0.22887 0.0
H60 H 0.16937 0.59491 0.26628 0.0
H61 H 0.1856 0.64318 0.27222 0.0
H62 H 0.20866 0.63199 0.29746 0.0
H63 H 0.19899 0.63145 0.26293 0.0
H64 H 0.13693 0.56371 0.28033 0.0
H65 H 0.11626 0.61459 0.28221 0.0
H66 H 0.08148 0.51523 0.27971 0.0
H67 H 0.11107 0.52441 0.2846 0.0
H68 H 0.09083 0.52024 0.30048 0.0
H69 H 0.07932 0.60597 0.2905 0.0
H70 H 0.05856 0.57952 0.28086 0.0
H71 H 0.06307 0.58025 0.30242 0.0
H72 H 0.97097 0.52623 0.22217 0.0
H73 H 0.95788 0.51317 0.19677 0.0
H74 H 0.95015 0.48627 0.20127 0.0
H75 H 0.91185 0.49273 0.21005 0.0
H76 H 0.97166 0.52631 0.25063 0.0
H77 H 0.98341 0.47063 0.23936 0.0
H78 H 0.9904 0.53588 0.29007 0.0
H79 H 0.01606 0.55424 0.279 0.0
H80 H 0.98902 0.55118 0.27252 0.0
H81 H 0.0042 0.4599 0.25712 0.0
H82 H 0.02971 0.48573 0.26362 0.0
H83 H 0.00736 0.46958 0.27801 0.0
H84 H 0.8849 0.42315 0.36053 0.0
H85 H 0.92762 0.49808 0.36864 0.0
H86 H 0.9221 0.43204 0.36253 0.0
H87 H 0.97952 0.52996 0.34669 0.0
H88 H 0.961 0.53249 0.36144 0.0
H89 H 0.98604 0.53134 0.36795 0.0
H90 H 0.95307 0.42758 0.35467 0.0
H91 H 0.97069 0.44867 0.3397 0.0
H92 H 0.98092 0.45134 0.36017 0.0
H93 H 0.11484 0.52607 0.40407 0.0
H94 H 0.15391 0.55907 0.39845 0.0
H95 H 0.13224 0.55812 0.38502 0.0
H96 H 0.14319 0.57875 0.40138 0.0
H97 H 0.08076 0.56876 0.39905 0.0
H98 H 0.08129 0.50549 0.39366 0.0
H99 H 0.05195 0.56569 0.3632 0.0
H100 H 0.02939 0.55181 0.37782 0.0
H101 H 0.05604 0.57696 0.38367 0.0
H102 H 0.05774 0.47682 0.37523 0.0
H103 H 0.03081 0.47577 0.37117 0.0
H104 H 0.05362 0.48858 0.35663 0.0
H105 H 0.04922 0.53496 0.26887 0.0
H106 H 0.97696 0.48972 0.29611 0.0
H107 H 0.96506 0.48221 0.32403 0.0
H108 H 0.00408 0.5009 0.37574 0.0
H109 H 0.07655 0.54244 0.34819 0.0
H110 H 0.08822 0.55207 0.32045 0.0
H111 H 0.88379 0.42845 0.39795 0.0
H112 H 0.8703 0.40155 0.38686 0.0
H113 H 0.90103 0.41951 0.38691 0.0
C114 C 0.42662 0.90975 0.5667 0.0
C115 C 0.43898 0.89929 0.55746 0.0
C116 C 0.45636 0.92439 0.53462 0.0
C117 C 0.47932 0.9297 0.53435 0.0
C118 C 0.49663 0.95116 0.52876 0.0
C119 C 0.49078 0.9677 0.52362 0.0
C120 C 0.46745 0.96209 0.52358 0.0
C121 C 0.45045 0.94026 0.52882 0.0
C122 C 0.52121 0.95632 0.52869 0.0
C123 C 0.46052 0.97938 0.51854 0.0
C124 C 0.60723 0.06804 0.60125 0.0
C125 C 0.58566 0.07016 0.59942 0.0
C126 C 0.57506 0.06882 0.57124 0.0
C127 C 0.55465 0.06784 0.56643 0.0
C128 C 0.54256 0.05513 0.55263 0.0
C129 C 0.55131 0.04332 0.54349 0.0
C130 C 0.57227 0.04476 0.54815 0.0
C131 C 0.58402 0.05768 0.56194 0.0
C132 C 0.5204 0.05414 0.54789 0.0
C133 C 0.58216 0.0325 0.53864 0.0
C134 C 0.6026 0.13434 0.45763 0.0
C135 C 0.57991 0.12663 0.4625 0.0
C136 C 0.56412 0.10307 0.46392 0.0
C137 C 0.5714 0.08695 0.46082 0.0
C138 C 0.59401 0.09468 0.45521 0.0
C139 C 0.60923 0.11835 0.45342 0.0
C140 C 0.53985 0.09549 0.46917 0.0
C141 C 0.60235 0.07803 0.45167 0.0
C142 C 0.45325 0.9224 0.41094 0.0
C143 C 0.47877 0.93567 0.40649 0.0
C144 C 0.49728 0.97536 0.41536 0.0
C145 C 0.48896 0.98993 0.4198 0.0
C146 C 0.49952 0.00619 0.43232 0.0
C147 C 0.51916 0.00818 0.44023 0.0
C148 C 0.52848 0.99443 0.43502 0.0
C149 C 0.51735 0.97808 0.42267 0.0
C150 C 0.48928 0.02071 0.43745 0.0
C151 C 0.54988 0.99666 0.44277 0.0
C152 C 0.50913 0.99133 0.51938 0.0
C153 C 0.52131 0.00625 0.53219 0.0
C154 C 0.5383 0.02897 0.52928 0.0
C155 C 0.54296 0.03738 0.51316 0.0
C156 C 0.55937 0.06036 0.50984 0.0
C157 C 0.5637 0.06852 0.49394 0.0
C158 C 0.55187 0.05399 0.48072 0.0
C159 C 0.55586 0.06224 0.46453 0.0
C160 C 0.54476 0.04702 0.45162 0.0
C161 C 0.52935 0.02374 0.45446 0.0
C162 C 0.52423 0.01544 0.47063 0.0
C163 C 0.50801 0.99236 0.47396 0.0
C164 C 0.50308 0.98438 0.4899 0.0
C165 C 0.51422 0.99915 0.50312 0.0
C166 C 0.53094 0.02238 0.50003 0.0
C167 C 0.53568 0.03061 0.48378 0.0
C168 C 0.64596 0.18799 0.47345 0.0
C169 C 0.62062 0.17295 0.46885 0.0
O170 O 0.43986 0.90433 0.54103 0.0
O171 O 0.48554 0.95863 0.40416 0.0
O172 O 0.61854 0.15703 0.45723 0.0
O173 O 0.58609 0.08068 0.58482 0.0
H174 H 0.45675 0.90691 0.56246 0.0
H175 H 0.43619 0.92874 0.56536 0.0
H176 H 0.40893 0.903 0.56186 0.0
H177 H 0.42566 0.90568 0.57988 0.0
H178 H 0.48363 0.9171 0.53869 0.0
H179 H 0.43258 0.93583 0.52909 0.0
H180 H 0.53084 0.96862 0.53865 0.0
H181 H 0.52246 0.94059 0.53051 0.0
H182 H 0.52965 0.96447 0.51702 0.0
H183 H 0.44204 0.97313 0.52084 0.0
H184 H 0.47094 0.99579 0.52524 0.0
H185 H 0.46386 0.98306 0.50536 0.0
H186 H 0.57045 0.05245 0.59971 0.0
H187 H 0.60813 0.06205 0.61369 0.0
H188 H 0.60673 0.05521 0.59251 0.0
H189 H 0.623 0.08482 0.59902 0.0
H190 H 0.54806 0.07677 0.57366 0.0
H191 H 0.60021 0.05913 0.56545 0.0
H192 H 0.50602 0.03614 0.54872 0.0
H193 H 0.51648 0.06517 0.55579 0.0
H194 H 0.52136 0.05969 0.53505 0.0
H195 H 0.59834 0.03487 0.5441 0.0
H196 H 0.56947 0.01383 0.53806 0.0
H197 H 0.58569 0.03903 0.52596 0.0
H198 H 0.61157 0.16398 0.48023 0.0
H199 H 0.57459 0.13904 0.46529 0.0
H200 H 0.62672 0.12454 0.44945 0.0
H201 H 0.53766 0.09012 0.48212 0.0
H202 H 0.53573 0.10951 0.46798 0.0
H203 H 0.52733 0.08051 0.46184 0.0
H204 H 0.62087 0.08692 0.44845 0.0
H205 H 0.59954 0.06697 0.46244 0.0
H206 H 0.59233 0.06664 0.4414 0.0
H207 H 0.48819 0.93361 0.41693 0.0
H208 H 0.44743 0.90388 0.41262 0.0
H209 H 0.45049 0.9292 0.42253 0.0
H210 H 0.44264 0.92422 0.40131 0.0
H211 H 0.47363 0.98788 0.41387 0.0
H212 H 0.52422 0.9673 0.41876 0.0
H213 H 0.4848 0.01797 0.45058 0.0
H214 H 0.50214 0.03917 0.43582 0.0
H215 H 0.47361 0.01668 0.43035 0.0
H216 H 0.55644 0.98674 0.43608 0.0
H217 H 0.5636 0.015 0.44325 0.0
H218 H 0.54606 0.99026 0.45547 0.0
H219 H 0.51756 1.00005 0.54463 0.0
H220 H 0.56894 0.07235 0.51951 0.0
H221 H 0.57653 0.08638 0.49215 0.0
H222 H 0.54822 0.05336 0.43922 0.0
H223 H 0.4988 0.98021 0.46429 0.0
H224 H 0.49044 0.96647 0.49174 0.0
H225 H 0.65645 0.19704 0.46261 0.0
H226 H 0.64803 0.20092 0.48276 0.0
H227 H 0.65254 0.17712 0.47863 0.0
C228 C 0.56629 0.44673 0.73652 0.0
C229 C 0.58544 0.45345 0.72395 0.0
C230 C 0.57117 0.46666 0.70174 0.0
C231 C 0.58627 0.49047 0.70241 0.0
C232 C 0.57941 0.50583 0.69677 0.0
C233 C 0.55699 0.49716 0.69041 0.0
C234 C 0.54216 0.47311 0.68899 0.0
C235 C 0.54963 0.45815 0.69447 0.0
C236 C 0.59587 0.53134 0.69807 0.0
C237 C 0.51808 0.46321 0.68236 0.0
C238 C 0.46142 0.5366 0.77581 0.0
C239 C 0.46758 0.5306 0.75998 0.0
C240 C 0.49886 0.54335 0.74054 0.0
C241 C 0.48552 0.52676 0.72873 0.0
C242 C 0.4956 0.5239 0.71466 0.0
C243 C 0.51947 0.5382 0.71214 0.0
C244 C 0.53286 0.55541 0.72369 0.0
C245 C 0.52235 0.55776 0.73778 0.0
C246 C 0.48075 0.50523 0.70266 0.0
C247 C 0.55832 0.57105 0.72127 0.0
C248 C 0.48429 0.59694 0.62873 0.0
C249 C 0.4721 0.57343 0.63231 0.0
C250 C 0.4834 0.56066 0.63316 0.0
C251 C 0.50752 0.57189 0.63086 0.0
C252 C 0.51964 0.59543 0.62654 0.0
C253 C 0.50772 0.60757 0.62525 0.0
C254 C 0.46961 0.53533 0.63696 0.0
C255 C 0.54527 0.60795 0.62385 0.0
C256 C 0.59682 0.49961 0.58019 0.0
C257 C 0.58655 0.50694 0.56632 0.0
C258 C 0.55887 0.51268 0.58244 0.0
C259 C 0.53607 0.50133 0.5877 0.0
C260 C 0.52901 0.50986 0.60071 0.0
C261 C 0.54517 0.53054 0.60845 0.0
C262 C 0.56805 0.54273 0.60271 0.0
C263 C 0.57472 0.53364 0.58979 0.0
C264 C 0.50445 0.49646 0.60647 0.0
C265 C 0.58555 0.56511 0.61046 0.0
C266 C 0.54827 0.5131 0.6869 0.0
C267 C 0.54011 0.52013 0.70006 0.0
C268 C 0.53044 0.5341 0.69784 0.0
C269 C 0.52915 0.54169 0.68205 0.0
C270 C 0.51988 0.55609 0.67942 0.0
C271 C 0.51742 0.56236 0.66374 0.0
C272 C 0.52397 0.55433 0.65009 0.0
C273 C 0.52016 0.55939 0.63405 0.0
C274 C 0.52751 0.55168 0.62078 0.0
C275 C 0.53838 0.53876 0.62306 0.0
C276 C 0.54178 0.53301 0.63899 0.0
C277 C 0.55207 0.51949 0.64172 0.0
C278 C 0.55462 0.51329 0.65742 0.0
C279 C 0.54682 0.52021 0.67097 0.0
C280 C 0.537 0.53439 0.66854 0.0
C281 C 0.53441 0.54073 0.65253 0.0
C282 C 0.47005 0.63415 0.64804 0.0
C283 C 0.4601 0.60968 0.64147 0.0
O284 O 0.57671 0.45156 0.70835 0.0
O285 O 0.56473 0.50264 0.57043 0.0
O286 O 0.47388 0.60978 0.62888 0.0
O287 O 0.48975 0.54561 0.75475 0.0
H288 H 0.59897 0.4715 0.72645 0.0
H289 H 0.55949 0.45876 0.73583 0.0
H290 H 0.55193 0.42901 0.73421 0.0
H291 H 0.57305 0.44767 0.74902 0.0
H292 H 0.60336 0.49711 0.70739 0.0
H293 H 0.53826 0.43971 0.69382 0.0
H294 H 0.58981 0.53872 0.70765 0.0
H295 H 0.61357 0.53532 0.7012 0.0
H296 H 0.59633 0.5399 0.6864 0.0
H297 H 0.50847 0.44412 0.68252 0.0
H298 H 0.50845 0.46954 0.68964 0.0
H299 H 0.51874 0.46903 0.66964 0.0
H300 H 0.46262 0.51214 0.75869 0.0
H301 H 0.45828 0.52208 0.78422 0.0
H302 H 0.4781 0.54939 0.78183 0.0
H303 H 0.43514 0.54435 0.76965 0.0
H304 H 0.46723 0.51575 0.73046 0.0
H305 H 0.53251 0.57062 0.74684 0.0
H306 H 0.48036 0.51308 0.69088 0.0
H307 H 0.48809 0.49391 0.70036 0.0
H308 H 0.4628 0.49448 0.707 0.0
H309 H 0.56592 0.58494 0.73056 0.0
H310 H 0.56713 0.56083 0.72199 0.0
H311 H 0.56163 0.57891 0.70898 0.0
H312 H 0.46027 0.59899 0.65179 0.0
H313 H 0.45378 0.56514 0.63454 0.0
H314 H 0.51685 0.6257 0.62227 0.0
H315 H 0.47215 0.53256 0.64993 0.0
H316 H 0.45093 0.52835 0.63488 0.0
H317 H 0.47542 0.52549 0.6294 0.0
H318 H 0.55235 0.62659 0.62162 0.0
H319 H 0.55404 0.60584 0.63463 0.0
H320 H 0.54931 0.6004 0.61321 0.0
H321 H 0.59783 0.52557 0.56381 0.0
H322 H 0.61407 0.50256 0.57674 0.0
H323 H 0.5989 0.50976 0.59138 0.0
H324 H 0.58548 0.48111 0.58303 0.0
H325 H 0.52392 0.48531 0.58184 0.0
H326 H 0.59232 0.5429 0.58561 0.0
H327 H 0.50404 0.49183 0.61948 0.0
H328 H 0.49632 0.50731 0.60552 0.0
H329 H 0.49408 0.48048 0.59929 0.0
H330 H 0.60206 0.57352 0.60371 0.0
H331 H 0.5787 0.5771 0.61106 0.0
H332 H 0.58894 0.56189 0.62314 0.0
H333 H 0.54064 0.51402 0.7122 0.0
H334 H 0.51423 0.56249 0.68946 0.0
H335 H 0.51005 0.57338 0.66248 0.0
H336 H 0.52443 0.5555 0.60851 0.0
H337 H 0.55808 0.51335 0.63174 0.0
H338 H 0.56251 0.50274 0.6588 0.0
H339 H 0.47071 0.64594 0.63831 0.0
H340 H 0.45941 0.63449 0.65826 0.0
H341 H 0.48777 0.64046 0.65263 0.0
C342 C 0.15367 0.60059 0.89882 0.0
C343 C 0.15985 0.59991 0.88094 0.0
C344 C 0.12345 0.56956 0.86925 0.0
C345 C 0.11246 0.58272 0.86856 0.0
C346 C 0.08961 0.57298 0.86329 0.0
C347 C 0.07723 0.54947 0.85892 0.0
C348 C 0.08811 0.5361 0.85968 0.0
C349 C 0.11118 0.54643 0.86466 0.0
C350 C 0.07861 0.58781 0.86256 0.0
C351 C 0.07529 0.51086 0.85543 0.0
C352 C 0.92787 0.48243 0.93874 0.0
C353 C 0.93961 0.48116 0.92383 0.0
C354 C 0.96561 0.50626 0.90273 0.0
C355 C 0.97106 0.48998 0.89664 0.0
C356 C 0.98662 0.49548 0.88375 0.0
C357 C 0.99696 0.51768 0.87682 0.0
C358 C 0.99162 0.53414 0.88297 0.0
C359 C 0.97596 0.52816 0.89584 0.0
C360 C 0.99194 0.47755 0.87745 0.0
C361 C 0.0024 0.55798 0.87587 0.0
C362 C 0.91103 0.47961 0.78896 0.0
C363 C 0.91984 0.46536 0.79336 0.0
C364 C 0.94358 0.47433 0.79511 0.0
C365 C 0.9587 0.49816 0.79285 0.0
C366 C 0.94989 0.51232 0.78759 0.0
C367 C 0.9261 0.50271 0.78545 0.0
C368 C 0.95239 0.45846 0.79995 0.0
C369 C 0.96548 0.53773 0.78487 0.0
C370 C 0.12898 0.56307 0.75005 0.0
C371 C 0.11306 0.57048 0.74216 0.0
C372 C 0.07382 0.54491 0.75081 0.0
C373 C 0.06163 0.52199 0.75576 0.0
C374 C 0.04452 0.51483 0.76772 0.0
C375 C 0.03929 0.531 0.77459 0.0
C376 C 0.0506 0.55391 0.76886 0.0
C377 C 0.06777 0.56063 0.757 0.0
C378 C 0.03253 0.49021 0.7734 0.0
C379 C 0.04491 0.5714 0.77554 0.0
C380 C 0.05267 0.53881 0.85414 0.0
C381 C 0.03646 0.53277 0.86655 0.0
C382 C 0.01315 0.52357 0.86302 0.0
C383 C 0.00561 0.52004 0.84665 0.0
C384 C 0.98229 0.51097 0.84268 0.0
C385 C 0.97501 0.50744 0.82656 0.0
C386 C 0.9907 0.5126 0.81374 0.0
C387 C 0.98336 0.50856 0.79729 0.0
C388 C 0.9995 0.51446 0.78484 0.0
C389 C 0.02293 0.52434 0.78836 0.0
C390 C 0.03055 0.5281 0.80474 0.0
C391 C 0.05397 0.53777 0.80871 0.0
C392 C 0.06129 0.54144 0.82485 0.0
C393 C 0.04547 0.5354 0.83767 0.0
C394 C 0.02181 0.52582 0.83393 0.0
C395 C 0.01435 0.52214 0.81746 0.0
C396 C 0.85683 0.46631 0.80502 0.0
C397 C 0.87259 0.45707 0.79993 0.0
O398 O 0.14559 0.57829 0.87437 0.0
O399 O 0.09137 0.55143 0.74013 0.0
O400 O 0.8881 0.47168 0.78846 0.0
O401 O 0.9506 0.50156 0.91518 0.0
H402 H 0.15788 0.61302 0.87404 0.0
H403 H 0.1358 0.59728 0.89981 0.0
H404 H 0.15504 0.58732 0.906 0.0
H405 H 0.16536 0.61778 0.90417 0.0
H406 H 0.1214 0.60059 0.87215 0.0
H407 H 0.11968 0.53635 0.86524 0.0
H408 H 0.06546 0.58245 0.87228 0.0
H409 H 0.09131 0.60634 0.86428 0.0
H410 H 0.06978 0.58553 0.85069 0.0
H411 H 0.08563 0.50246 0.8579 0.0
H412 H 0.05908 0.50192 0.86249 0.0
H413 H 0.07062 0.50869 0.84232 0.0
H414 H 0.92933 0.46575 0.91599 0.0
H415 H 0.94671 0.47825 0.9581 0.0
H416 H 0.92607 0.49818 0.9375 0.0
H417 H 0.90908 0.47 0.93649 0.0
H418 H 0.96322 0.47294 0.90184 0.0
H419 H 0.97171 0.54062 0.90063 0.0
H420 H 0.98721 0.47416 0.86437 0.0
H421 H 0.01069 0.48405 0.87842 0.0
H422 H 0.98261 0.4611 0.88422 0.0
H423 H 0.99654 0.56884 0.88206 0.0
H424 H 0.02139 0.56649 0.87689 0.0
H425 H 0.99808 0.55688 0.86272 0.0
H426 H 0.88185 0.45697 0.81119 0.0
H427 H 0.90814 0.44728 0.79558 0.0
H428 H 0.91907 0.51344 0.78182 0.0
H429 H 0.95718 0.46104 0.81303 0.0
H430 H 0.93924 0.44011 0.79806 0.0
H431 H 0.96799 0.46237 0.79287 0.0
H432 H 0.95578 0.54657 0.78166 0.0
H433 H 0.97579 0.54585 0.79601 0.0
H434 H 0.97766 0.54043 0.77487 0.0
H435 H 0.11251 0.58319 0.75058 0.0
H436 H 0.14659 0.57807 0.75143 0.0
H437 H 0.12245 0.5559 0.76233 0.0
H438 H 0.1298 0.54966 0.74264 0.0
H439 H 0.06617 0.50991 0.75066 0.0
H440 H 0.0765 0.57815 0.7526 0.0
H441 H 0.0357 0.48964 0.78662 0.0
H442 H 0.01369 0.48238 0.77166 0.0
H443 H 0.03843 0.47969 0.76675 0.0
H444 H 0.05384 0.58795 0.76886 0.0
H445 H 0.02609 0.56459 0.77488 0.0
H446 H 0.05001 0.57473 0.78856 0.0
H447 H 0.04209 0.53546 0.87915 0.0
H448 H 0.96939 0.50652 0.85201 0.0
H449 H 0.95686 0.50055 0.8243 0.0
H450 H 0.99378 0.51147 0.77226 0.0
H451 H 0.06693 0.5426 0.79938 0.0
H452 H 0.07952 0.54899 0.82717 0.0
H453 H 0.84417 0.45478 0.81418 0.0
H454 H 0.86722 0.48363 0.81056 0.0
H455 H 0.84746 0.46777 0.79435 0.0
C456 C 0.46633 0.89682 0.92498 0.0
C457 C 0.47012 0.88942 0.94182 0.0
C458 C 0.4916 0.92741 0.95507 0.0
C459 C 0.47296 0.93116 0.95716 0.0
C460 C 0.47654 0.95265 0.96234 0.0
C461 C 0.49915 0.97068 0.96548 0.0
C462 C 0.51785 0.96675 0.96381 0.0
C463 C 0.51377 0.94507 0.95875 0.0
C464 C 0.45621 0.95622 0.96425 0.0
C465 C 0.54222 0.9856 0.967 0.0
C466 C 0.4967 0.06022 0.87974 0.0
C467 C 0.51945 0.07726 0.8879 0.0
C468 C 0.51475 0.07028 0.91704 0.0
C469 C 0.53317 0.06697 0.92104 0.0
C470 C 0.53244 0.05471 0.93507 0.0
C471 C 0.51276 0.04542 0.94518 0.0
C472 C 0.4943 0.04906 0.94124 0.0
C473 C 0.49576 0.06185 0.92735 0.0
C474 C 0.55264 0.05159 0.93905 0.0
C475 C 0.47289 0.03913 0.95154 0.0
C476 C 0.55412 0.13826 0.03069 0.0
C477 C 0.56881 0.13042 0.02534 0.0
C478 C 0.56096 0.10682 0.02401 0.0
C479 C 0.5377 0.09079 0.02762 0.0
C480 C 0.52314 0.09869 0.03366 0.0
C481 C 0.53173 0.1224 0.0354 0.0
C482 C 0.57739 0.09911 0.01836 0.0
C483 C 0.49832 0.08217 0.03772 0.0
C484 C 0.50522 0.93488 0.07762 0.0
C485 C 0.48683 0.94125 0.08151 0.0
C486 C 0.50196 0.98078 0.07402 0.0
C487 C 0.52473 0.99604 0.06977 0.0
C488 C 0.52993 0.01176 0.05701 0.0
C489 C 0.51185 0.0125 0.04867 0.0
C490 C 0.48881 0.99788 0.05362 0.0
C491 C 0.48412 0.98198 0.06615 0.0
C492 C 0.55466 0.02707 0.0521 0.0
C493 C 0.46912 0.99872 0.04545 0.0
C494 C 0.50348 0.99403 0.96961 0.0
C495 C 0.50547 0.00849 0.95675 0.0
C496 C 0.51117 0.03126 0.95952 0.0
C497 C 0.5153 0.04005 0.9756 0.0
C498 C 0.52197 0.06311 0.9788 0.0
C499 C 0.52606 0.07159 0.99465 0.0
C500 C 0.52373 0.05737 0.00793 0.0
C501 C 0.52836 0.06598 0.02407 0.0
C502 C 0.52455 0.05105 0.03705 0.0
C503 C 0.51682 0.02774 0.03434 0.0
C504 C 0.51349 0.01915 0.01821 0.0
C505 C 0.50714 0.99615 0.01497 0.0
C506 C 0.50387 0.98787 0.99907 0.0
C507 C 0.50661 0.00221 0.98581 0.0
C508 C 0.51278 0.02538 0.98879 0.0
C509 C 0.51665 0.03397 0.00499 0.0
C510 C 0.56335 0.19188 0.01562 0.0
C511 C 0.57359 0.17646 0.01897 0.0
O512 O 0.48919 0.9073 0.94935 0.0
O513 O 0.49731 0.96443 0.08536 0.0
O514 O 0.56098 0.16097 0.03112 0.0
O515 O 0.51509 0.08197 0.90352 0.0
H516 H 0.45467 0.88414 0.94951 0.0
H517 H 0.46272 0.91118 0.92605 0.0
H518 H 0.48181 0.90257 0.91726 0.0
H519 H 0.45137 0.88228 0.91882 0.0
H520 H 0.45562 0.91755 0.95466 0.0
H521 H 0.52801 0.94197 0.95723 0.0
H522 H 0.45728 0.96884 0.95508 0.0
H523 H 0.43958 0.94002 0.96265 0.0
H524 H 0.45657 0.96346 0.97648 0.0
H525 H 0.55491 0.97991 0.96476 0.0
H526 H 0.54645 0.00057 0.95907 0.0
H527 H 0.54394 0.9915 0.97982 0.0
H528 H 0.53049 0.06926 0.88826 0.0
H529 H 0.49976 0.05591 0.86727 0.0
H530 H 0.48801 0.04409 0.88692 0.0
H531 H 0.48513 0.06757 0.87899 0.0
H532 H 0.54822 0.07422 0.91333 0.0
H533 H 0.48177 0.06479 0.92421 0.0
H534 H 0.5578 0.05618 0.95198 0.0
H535 H 0.5476 0.03326 0.93739 0.0
H536 H 0.56769 0.06221 0.93116 0.0
H537 H 0.45922 0.04159 0.94593 0.0
H538 H 0.46606 0.02047 0.95345 0.0
H539 H 0.47713 0.04754 0.96368 0.0
H540 H 0.57203 0.16707 0.00739 0.0
H541 H 0.58638 0.14276 0.02214 0.0
H542 H 0.52067 0.12871 0.03973 0.0
H543 H 0.57385 0.09377 0.0054 0.0
H544 H 0.59558 0.11307 0.0194 0.0
H545 H 0.57508 0.0841 0.02553 0.0
H546 H 0.48883 0.09118 0.04103 0.0
H547 H 0.4896 0.07068 0.02718 0.0
H548 H 0.49742 0.0712 0.0481 0.0
H549 H 0.47584 0.93754 0.07046 0.0
H550 H 0.49708 0.91632 0.07453 0.0
H551 H 0.51552 0.94494 0.06699 0.0
H552 H 0.51696 0.93867 0.08817 0.0
H553 H 0.53835 0.99497 0.07606 0.0
H554 H 0.46654 0.97026 0.06974 0.0
H555 H 0.55674 0.02479 0.03894 0.0
H556 H 0.55961 0.04533 0.05404 0.0
H557 H 0.56659 0.02343 0.05916 0.0
H558 H 0.45279 0.98885 0.05228 0.0
H559 H 0.47305 0.01679 0.04424 0.0
H560 H 0.46659 0.99134 0.03302 0.0
H561 H 0.50279 0.00199 0.94436 0.0
H562 H 0.52419 0.07489 0.96908 0.0
H563 H 0.53104 0.08946 0.99635 0.0
H564 H 0.52765 0.05765 0.04941 0.0
H565 H 0.5048 0.98431 0.02469 0.0
H566 H 0.49905 0.97004 0.9973 0.0
H567 H 0.57309 0.20435 0.00581 0.0
H568 H 0.5452 0.18122 0.01159 0.0
H569 H 0.56375 0.20147 0.02677 0.0
C570 C 0.62816 0.46315 0.1094 0.0
C571 C 0.60496 0.46005 0.11218 0.0
C572 C 0.58691 0.48385 0.11457 0.0
C573 C 0.56561 0.46624 0.12027 0.0
C574 C 0.54818 0.47094 0.12471 0.0
C575 C 0.55229 0.49371 0.12367 0.0
C576 C 0.57375 0.51144 0.11801 0.0
C577 C 0.59071 0.50621 0.11343 0.0
C578 C 0.52536 0.4516 0.13047 0.0
C579 C 0.57876 0.53593 0.11679 0.0
C580 C 0.40979 0.50705 0.07616 0.0
C581 C 0.4341 0.51738 0.0693 0.0
C582 C 0.45728 0.50299 0.08191 0.0
C583 C 0.4778 0.52364 0.08486 0.0
C584 C 0.49347 0.52476 0.09666 0.0
C585 C 0.48837 0.50484 0.10568 0.0
C586 C 0.46812 0.48382 0.10223 0.0
C587 C 0.45295 0.48313 0.09021 0.0
C588 C 0.51528 0.54724 0.09968 0.0
C589 C 0.46228 0.4622 0.11149 0.0
C590 C 0.45155 0.56108 0.19051 0.0
C591 C 0.47407 0.57468 0.18479 0.0
C592 C 0.48869 0.56551 0.18313 0.0
C593 C 0.48047 0.54217 0.18708 0.0
C594 C 0.45814 0.52877 0.19362 0.0
C595 C 0.44406 0.53856 0.19546 0.0
C596 C 0.51271 0.58064 0.17674 0.0
C597 C 0.44886 0.50391 0.19812 0.0
C598 C 0.55485 0.45369 0.23449 0.0
C599 C 0.54951 0.46598 0.24811 0.0
C600 C 0.54662 0.49545 0.23217 0.0
C601 C 0.55868 0.51841 0.2272 0.0
C602 C 0.55021 0.52648 0.21474 0.0
C603 C 0.52907 0.51116 0.20718 0.0
C604 C 0.51632 0.48813 0.21257 0.0
C605 C 0.5252 0.48051 0.22499 0.0
C606 C 0.5641 0.55115 0.20933 0.0
C607 C 0.49348 0.47139 0.20495 0.0
C608 C 0.53415 0.49911 0.12826 0.0
C609 C 0.52022 0.49979 0.11587 0.0
C610 C 0.50368 0.50605 0.11914 0.0
C611 C 0.50133 0.51249 0.13511 0.0
C612 C 0.48558 0.51987 0.13869 0.0
C613 C 0.48356 0.52636 0.15441 0.0
C614 C 0.49675 0.52512 0.16727 0.0
C615 C 0.49472 0.53152 0.18334 0.0
C616 C 0.50631 0.52781 0.19608 0.0
C617 C 0.52055 0.51857 0.19309 0.0
C618 C 0.52455 0.51426 0.17691 0.0
C619 C 0.54035 0.50693 0.17335 0.0
C620 C 0.54393 0.50246 0.15739 0.0
C621 C 0.53116 0.50423 0.14447 0.0
C622 C 0.51493 0.51129 0.14784 0.0
C623 C 0.51217 0.51702 0.164 0.0
C624 C 0.41017 0.57281 0.17387 0.0
C625 C 0.4351 0.58337 0.17963 0.0
O626 O 0.60418 0.4801 0.11001 0.0
O627 O 0.55641 0.48843 0.24365 0.0
O628 O 0.43657 0.56906 0.19112 0.0
O629 O 0.44149 0.50157 0.07097 0.0
H630 H 0.5905 0.44469 0.10623 0.0
H631 H 0.63823 0.47965 0.10238 0.0
H632 H 0.63854 0.45796 0.13285 0.0
H633 H 0.62596 0.45183 0.09861 0.0
H634 H 0.56242 0.44882 0.12116 0.0
H635 H 0.60719 0.51965 0.10902 0.0
H636 H 0.51127 0.45086 0.12294 0.0
H637 H 0.52447 0.43466 0.12987 0.0
H638 H 0.52237 0.45486 0.14324 0.0
H639 H 0.59674 0.54794 0.11299 0.0
H640 H 0.56693 0.53691 0.1078 0.0
H641 H 0.57567 0.54169 0.12872 0.0
H642 H 0.44518 0.53329 0.07642 0.0
H643 H 0.39779 0.49095 0.06959 0.0
H644 H 0.40983 0.503 0.08926 0.0
H645 H 0.40351 0.51947 0.07502 0.0
H646 H 0.48165 0.53881 0.07789 0.0
H647 H 0.43724 0.46721 0.08759 0.0
H648 H 0.53035 0.54469 0.09895 0.0
H649 H 0.51756 0.5607 0.09083 0.0
H650 H 0.51495 0.55346 0.11215 0.0
H651 H 0.44567 0.44731 0.10751 0.0
H652 H 0.47607 0.45787 0.10973 0.0
H653 H 0.46133 0.46506 0.12471 0.0
H654 H 0.44515 0.58442 0.16855 0.0
H655 H 0.4802 0.59242 0.18152 0.0
H656 H 0.42675 0.52834 0.20013 0.0
H657 H 0.51369 0.5756 0.16402 0.0
H658 H 0.51773 0.5991 0.17684 0.0
H659 H 0.52531 0.57837 0.1841 0.0
H660 H 0.43057 0.49539 0.20192 0.0
H661 H 0.45044 0.49434 0.18763 0.0
H662 H 0.45915 0.50282 0.2083 0.0
H663 H 0.53074 0.45657 0.25063 0.0
H664 H 0.54973 0.43588 0.23823 0.0
H665 H 0.54522 0.45262 0.22324 0.0
H666 H 0.57351 0.46308 0.23164 0.0
H667 H 0.57509 0.52989 0.23288 0.0
H668 H 0.51536 0.46279 0.22881 0.0
H669 H 0.56893 0.55174 0.19635 0.0
H670 H 0.55354 0.55958 0.21029 0.0
H671 H 0.57999 0.56106 0.21669 0.0
H672 H 0.48494 0.45453 0.21125 0.0
H673 H 0.48183 0.47865 0.20521 0.0
H674 H 0.49607 0.46853 0.192 0.0
H675 H 0.52224 0.49534 0.10351 0.0
H676 H 0.47479 0.52095 0.12934 0.0
H677 H 0.47126 0.53205 0.1564 0.0
H678 H 0.50382 0.53168 0.20848 0.0
H679 H 0.55038 0.5049 0.18285 0.0
H680 H 0.55653 0.49717 0.15535 0.0
H681 H 0.39843 0.56978 0.18425 0.0
H682 H 0.40851 0.58431 0.16494 0.0
H683 H 0.40471 0.55605 0.16783 0.0
Li684 Li 0.63548 0.41041 0.42377 0.0
Li685 Li 0.62827 0.37479 0.41118 0.0
Li686 Li 0.66372 0.41114 0.40606 0.0
Li687 Li 0.62814 0.40486 0.39443 0.0
C688 C 0.65467 0.3929 0.44316 0.0
N689 N 0.65716 0.39046 0.47664 0.0
C690 C 0.63865 0.37322 0.45147 0.0
C691 C 0.67213 0.4112 0.45188 0.0
C692 C 0.64015 0.37235 0.4684 0.0
C693 C 0.67304 0.40969 0.46879 0.0
C694 C 0.58938 0.39167 0.41417 0.0
C695 C 0.54925 0.37951 0.41758 0.0
N696 N 0.55458 0.40188 0.41793 0.0
C697 C 0.59446 0.41456 0.41455 0.0
C698 C 0.5666 0.374 0.41573 0.0
C699 C 0.57663 0.41935 0.41647 0.0
C700 C 0.63734 0.44483 0.44542 0.0
N701 N 0.62886 0.42197 0.44302 0.0
C702 C 0.60615 0.41304 0.46711 0.0
C703 C 0.61348 0.40613 0.45348 0.0
C704 C 0.6142 0.43653 0.46982 0.0
C705 C 0.6302 0.45254 0.45881 0.0
H706 H 0.64901 0.45705 0.43666 0.0
H707 H 0.60647 0.38803 0.451 0.0
C708 C 0.63329 0.33662 0.41395 0.0
N709 N 0.61712 0.34307 0.41434 0.0
C710 C 0.6277 0.31444 0.41848 0.0
C711 C 0.5886 0.30565 0.4231 0.0
C712 C 0.595 0.32809 0.4185 0.0
C713 C 0.60521 0.29872 0.42349 0.0
H714 H 0.65081 0.34908 0.4108 0.0
H715 H 0.58257 0.33383 0.41884 0.0
C716 C 0.67177 0.45291 0.40421 0.0
N717 N 0.71329 0.49299 0.40019 0.0
C718 C 0.677 0.46462 0.38939 0.0
C719 C 0.68751 0.46178 0.41705 0.0
C720 C 0.69812 0.48481 0.38757 0.0
C721 C 0.70845 0.482 0.41477 0.0
C722 C 0.63287 0.37162 0.37796 0.0
C723 C 0.64561 0.36888 0.36563 0.0
C724 C 0.60889 0.35841 0.37771 0.0
C725 C 0.63412 0.35289 0.35324 0.0
C726 C 0.59805 0.34259 0.36511 0.0
N727 N 0.61078 0.34018 0.35324 0.0
C728 C 0.70967 0.42111 0.41135 0.0
C729 C 0.70083 0.42829 0.38482 0.0
C730 C 0.73109 0.42498 0.40609 0.0
N731 N 0.69495 0.4224 0.40062 0.0
C732 C 0.72201 0.43227 0.37904 0.0
C733 C 0.73716 0.42993 0.38961 0.0
H734 H 0.7043 0.41584 0.42375 0.0
H735 H 0.68856 0.42875 0.37652 0.0
C736 C 0.59561 0.40934 0.37328 0.0
N737 N 0.61672 0.41144 0.37504 0.0
C738 C 0.59019 0.41723 0.35915 0.0
C739 C 0.62764 0.42777 0.34848 0.0
C740 C 0.63236 0.41981 0.3628 0.0
C741 C 0.60654 0.4271 0.34666 0.0
H742 H 0.58308 0.40202 0.38287 0.0
H743 H 0.64884 0.42086 0.36439 0.0
O744 O 0.65336 0.39418 0.4266 0.0
O745 O 0.60654 0.38644 0.41273 0.0
O746 O 0.65137 0.43287 0.40615 0.0
O747 O 0.64395 0.38737 0.39006 0.0
H748 H 0.62498 0.35888 0.445 0.0
H749 H 0.68489 0.42642 0.44568 0.0
H750 H 0.62776 0.3573 0.47498 0.0
H751 H 0.68641 0.42378 0.47569 0.0
H752 H 0.53154 0.366 0.41878 0.0
H753 H 0.61192 0.4285 0.41328 0.0
H754 H 0.56236 0.35621 0.41552 0.0
H755 H 0.58032 0.43697 0.41677 0.0
H756 H 0.59411 0.40003 0.47533 0.0
H757 H 0.63658 0.47077 0.46019 0.0
H758 H 0.64119 0.3101 0.41886 0.0
H759 H 0.57102 0.29405 0.42671 0.0
H760 H 0.66492 0.45828 0.3794 0.0
H761 H 0.68362 0.45308 0.42864 0.0
H762 H 0.70243 0.49398 0.37614 0.0
H763 H 0.72084 0.48896 0.42458 0.0
H764 H 0.66419 0.37906 0.36564 0.0
H765 H 0.59873 0.36035 0.3871 0.0
H766 H 0.64376 0.35059 0.34361 0.0
H767 H 0.57951 0.33225 0.36477 0.0
H768 H 0.74211 0.42271 0.41459 0.0
H769 H 0.72611 0.43627 0.36629 0.0
H770 H 0.57366 0.41628 0.35828 0.0
H771 H 0.64053 0.43461 0.339 0.0
Li772 Li 0.23847 0.62999 0.59222 0.0
Li773 Li 0.26622 0.61988 0.5818 0.0
Li774 Li 0.26986 0.65762 0.57466 0.0
Li775 Li 0.23892 0.62168 0.56313 0.0
C776 C 0.27794 0.64248 0.61159 0.0
N777 N 0.29044 0.63534 0.64211 0.0
C778 C 0.26504 0.62123 0.61926 0.0
C779 C 0.29721 0.66007 0.6194 0.0
C780 C 0.27164 0.61797 0.6347 0.0
C781 C 0.30324 0.65613 0.63485 0.0
C782 C 0.22522 0.57789 0.58183 0.0
C783 C 0.22259 0.54474 0.56837 0.0
N784 N 0.21151 0.53167 0.58155 0.0
C785 C 0.21375 0.56414 0.59523 0.0
C786 C 0.22965 0.56813 0.56827 0.0
C787 C 0.20698 0.54081 0.59486 0.0
C788 C 0.19765 0.60904 0.61067 0.0
N789 N 0.21958 0.62696 0.61034 0.0
C790 C 0.21503 0.63961 0.63654 0.0
C791 C 0.22837 0.64222 0.62286 0.0
C792 C 0.19242 0.62106 0.63738 0.0
C793 C 0.1837 0.60571 0.62417 0.0
H794 H 0.19111 0.59721 0.6005 0.0
H795 H 0.2459 0.65626 0.62235 0.0
C796 C 0.3083 0.62311 0.58542 0.0
N797 N 0.28561 0.60766 0.58727 0.0
C798 C 0.32493 0.61807 0.59089 0.0
C799 C 0.29457 0.5808 0.59948 0.0
C800 C 0.27849 0.58673 0.59407 0.0
C801 C 0.31821 0.59675 0.59825 0.0
H802 H 0.31345 0.63978 0.58026 0.0
H803 H 0.26045 0.57487 0.59583 0.0
C804 C 0.23203 0.66425 0.5785 0.0
N805 N 0.22285 0.69761 0.58974 0.0
C806 C 0.21415 0.66638 0.57167 0.0
C807 C 0.24523 0.67906 0.59108 0.0
C808 C 0.20978 0.68337 0.57751 0.0
C809 C 0.24033 0.69581 0.59658 0.0
C810 C 0.27959 0.63405 0.54537 0.0
C811 C 0.28595 0.65222 0.53451 0.0
C812 C 0.28097 0.61482 0.54058 0.0
C813 C 0.29298 0.65054 0.51882 0.0
C814 C 0.2881 0.6138 0.52479 0.0
N815 N 0.29387 0.63151 0.51432 0.0
C816 C 0.3144 0.69305 0.57474 0.0
C817 C 0.28895 0.70547 0.56558 0.0
C818 C 0.33304 0.71528 0.57354 0.0
N819 N 0.29288 0.68863 0.57101 0.0
C820 C 0.30711 0.72813 0.56447 0.0
C821 C 0.32953 0.73336 0.56871 0.0
H822 H 0.317 0.67923 0.57884 0.0
H823 H 0.27171 0.70145 0.56243 0.0
C824 C 0.20107 0.5873 0.54545 0.0
N825 N 0.22013 0.60844 0.54429 0.0
C826 C 0.18757 0.57674 0.53173 0.0
C827 C 0.21265 0.6105 0.51605 0.0
C828 C 0.22574 0.62036 0.53008 0.0
C829 C 0.19349 0.58823 0.51672 0.0
H830 H 0.19632 0.57856 0.55702 0.0
H831 H 0.24041 0.6375 0.5296 0.0
O832 O 0.27198 0.64601 0.59639 0.0
O833 O 0.23203 0.60077 0.58204 0.0
O834 O 0.2363 0.64752 0.573 0.0
O835 O 0.27282 0.63547 0.5608 0.0
H836 H 0.25014 0.60741 0.61334 0.0
H837 H 0.30739 0.67659 0.61357 0.0
H838 H 0.26182 0.60161 0.64078 0.0
H839 H 0.3181 0.6696 0.64106 0.0
H840 H 0.2259 0.53696 0.55795 0.0
H841 H 0.21022 0.57143 0.60584 0.0
H842 H 0.23831 0.5785 0.55776 0.0
H843 H 0.19814 0.52997 0.60516 0.0
H844 H 0.22258 0.65164 0.64654 0.0
H845 H 0.1663 0.5913 0.62427 0.0
H846 H 0.34284 0.63121 0.58997 0.0
H847 H 0.28848 0.56405 0.60487 0.0
H848 H 0.20373 0.655 0.56195 0.0
H849 H 0.25921 0.67774 0.59647 0.0
H850 H 0.19599 0.68523 0.57232 0.0
H851 H 0.25043 0.7074 0.60628 0.0
H852 H 0.28525 0.66736 0.53812 0.0
H853 H 0.27677 0.60092 0.54901 0.0
H854 H 0.29774 0.66437 0.51023 0.0
H855 H 0.28914 0.59896 0.52089 0.0
H856 H 0.35001 0.71823 0.5765 0.0
H857 H 0.30346 0.74143 0.56077 0.0
H858 H 0.17261 0.55978 0.53286 0.0
H859 H 0.21778 0.61999 0.50473 0.0
Li860 Li 0.66978 0.26544 0.74423 0.0
Li861 Li 0.63282 0.23936 0.7575 0.0
Li862 Li 0.63814 0.23618 0.72864 0.0
Li863 Li 0.63666 0.2685 0.73861 0.0
C864 C 0.66557 0.22548 0.75836 0.0
N865 N 0.68758 0.21361 0.78155 0.0
C866 C 0.67334 0.23807 0.77284 0.0
C867 C 0.66896 0.20685 0.75569 0.0
C868 C 0.68443 0.23178 0.78441 0.0
C869 C 0.68015 0.20113 0.76756 0.0
C870 C 0.64581 0.28645 0.76815 0.0
C871 C 0.61647 0.2919 0.78075 0.0
N872 N 0.63228 0.31431 0.7836 0.0
C873 C 0.6618 0.30951 0.77129 0.0
C874 C 0.62297 0.27754 0.77295 0.0
C875 C 0.65461 0.32332 0.77908 0.0
C876 C 0.70907 0.30702 0.74659 0.0
N877 N 0.70206 0.28427 0.74707 0.0
C878 C 0.74001 0.29254 0.754 0.0
C879 C 0.7171 0.27676 0.75015 0.0
C880 C 0.74741 0.31617 0.75457 0.0
C881 C 0.73166 0.32332 0.75041 0.0
H882 H 0.6968 0.31244 0.74374 0.0
H883 H 0.71128 0.25858 0.75003 0.0
C884 C 0.60343 0.19936 0.77478 0.0
N885 N 0.61866 0.22215 0.7766 0.0
C886 C 0.59269 0.18574 0.78837 0.0
C887 C 0.61349 0.21934 0.80545 0.0
C888 C 0.62403 0.23225 0.79155 0.0
C889 C 0.59758 0.19577 0.80395 0.0
H890 H 0.59966 0.1918 0.76273 0.0
H891 H 0.63655 0.25031 0.79269 0.0
C892 C 0.67394 0.27035 0.711 0.0
N893 N 0.70454 0.27348 0.68733 0.0
C894 C 0.67945 0.28577 0.69812 0.0
C895 C 0.68402 0.25653 0.71186 0.0
C896 C 0.69495 0.28709 0.68626 0.0
C897 C 0.69945 0.25837 0.69978 0.0
C898 C 0.59487 0.23178 0.72835 0.0
C899 C 0.60051 0.24374 0.71361 0.0
C900 C 0.57204 0.21529 0.73152 0.0
C901 C 0.58316 0.23898 0.70229 0.0
C902 C 0.55518 0.21103 0.71988 0.0
N903 N 0.56104 0.22286 0.70563 0.0
C904 C 0.62153 0.19197 0.71656 0.0
C905 C 0.62899 0.21928 0.6958 0.0
C906 C 0.61338 0.17424 0.70512 0.0
N907 N 0.62903 0.21392 0.71176 0.0
C908 C 0.62102 0.20206 0.68392 0.0
C909 C 0.6129 0.17914 0.68854 0.0
H910 H 0.62168 0.18824 0.72936 0.0
H911 H 0.6348 0.23685 0.69232 0.0
C912 C 0.64734 0.31216 0.72987 0.0
N913 N 0.62914 0.29181 0.73452 0.0
C914 C 0.64517 0.33165 0.72855 0.0
C915 C 0.60523 0.30869 0.73624 0.0
C916 C 0.60821 0.28957 0.73746 0.0
C917 C 0.62405 0.33018 0.73207 0.0
H918 H 0.66379 0.3134 0.72773 0.0
H919 H 0.59411 0.27322 0.74139 0.0
O920 O 0.65456 0.23113 0.74681 0.0
O921 O 0.65229 0.27278 0.76006 0.0
O922 O 0.65873 0.26897 0.72262 0.0
O923 O 0.61149 0.23598 0.73966 0.0
H924 H 0.67103 0.25262 0.77511 0.0
H925 H 0.66303 0.19694 0.74454 0.0
H926 H 0.69057 0.24139 0.79565 0.0
H927 H 0.68292 0.18676 0.76564 0.0
H928 H 0.59881 0.28526 0.78443 0.0
H929 H 0.67956 0.31671 0.76775 0.0
H930 H 0.61029 0.25982 0.77043 0.0
H931 H 0.66678 0.34121 0.78152 0.0
H932 H 0.75165 0.28628 0.75682 0.0
H933 H 0.73636 0.34125 0.75083 0.0
H934 H 0.58041 0.16765 0.7867 0.0
H935 H 0.61795 0.22763 0.81727 0.0
H936 H 0.67178 0.29658 0.69728 0.0
H937 H 0.68003 0.24449 0.7217 0.0
H938 H 0.69935 0.29894 0.67621 0.0
H939 H 0.70736 0.24778 0.70028 0.0
H940 H 0.61805 0.25657 0.71092 0.0
H941 H 0.56742 0.20588 0.74287 0.0
H942 H 0.58728 0.2481 0.69084 0.0
H943 H 0.53743 0.19832 0.72218 0.0
H944 H 0.6076 0.15688 0.70921 0.0
H945 H 0.62073 0.20656 0.6713 0.0
H946 H 0.66001 0.3478 0.72509 0.0
H947 H 0.58872 0.3069 0.73918 0.0
Li948 Li 0.41374 0.62323 0.92252 0.0
Li949 Li 0.42656 0.66072 0.91046 0.0
Li950 Li 0.38624 0.62876 0.90557 0.0
Li951 Li 0.41893 0.62888 0.89315 0.0
C952 C 0.4021 0.65257 0.94145 0.0
N953 N 0.40362 0.66957 0.97234 0.0
C954 C 0.42284 0.66366 0.95002 0.0
C955 C 0.3821 0.65001 0.9486 0.0
C956 C 0.42328 0.6722 0.96562 0.0
C957 C 0.38323 0.65873 0.96423 0.0
C958 C 0.46488 0.65722 0.91476 0.0
C959 C 0.50298 0.68781 0.9082 0.0
N960 N 0.50995 0.687 0.92362 0.0
C961 C 0.47245 0.65659 0.93052 0.0
C962 C 0.48028 0.67284 0.90347 0.0
C963 C 0.49529 0.67183 0.93477 0.0
C964 C 0.42757 0.59486 0.93723 0.0
N965 N 0.41637 0.6066 0.9403 0.0
C966 C 0.4102 0.59399 0.96794 0.0
C967 C 0.40743 0.60614 0.95522 0.0
C968 C 0.42189 0.58188 0.96516 0.0
C969 C 0.43048 0.58223 0.94954 0.0
H970 H 0.43434 0.59542 0.92519 0.0
H971 H 0.39801 0.61502 0.95729 0.0
C972 C 0.43067 0.70316 0.90719 0.0
N973 N 0.44203 0.6932 0.91392 0.0
C974 C 0.43802 0.72627 0.91005 0.0
C975 C 0.46905 0.72881 0.92649 0.0
C976 C 0.46097 0.70552 0.9234 0.0
C977 C 0.45727 0.73934 0.91997 0.0
H978 H 0.41543 0.69292 0.89994 0.0
H979 H 0.4694 0.69724 0.92907 0.0
C980 C 0.3749 0.58366 0.91137 0.0
N981 N 0.33913 0.54435 0.92475 0.0
C982 C 0.36825 0.56219 0.9045 0.0
C983 C 0.36335 0.58516 0.92504 0.0
C984 C 0.35011 0.54251 0.91143 0.0
C985 C 0.34533 0.56508 0.93164 0.0
C986 C 0.41216 0.65564 0.87389 0.0
C987 C 0.3944 0.64326 0.86277 0.0
C988 C 0.43387 0.67203 0.86829 0.0
C989 C 0.39878 0.64732 0.84613 0.0
C990 C 0.43756 0.67559 0.85156 0.0
N991 N 0.42009 0.66325 0.84092 0.0
C992 C 0.35292 0.64102 0.90676 0.0
C993 C 0.33922 0.60424 0.89484 0.0
C994 C 0.33224 0.64023 0.90334 0.0
N995 N 0.35607 0.6233 0.90237 0.0
C996 C 0.31813 0.60268 0.89123 0.0
C997 C 0.31466 0.62107 0.89521 0.0
H998 H 0.3668 0.65608 0.91251 0.0
H999 H 0.34241 0.59061 0.89119 0.0
C1000 C 0.44777 0.62471 0.8688 0.0
N1001 N 0.42611 0.6179 0.87404 0.0
C1002 C 0.45115 0.614 0.85529 0.0
C1003 C 0.40992 0.59 0.8528 0.0
C1004 C 0.40736 0.60112 0.86625 0.0
C1005 C 0.43202 0.59606 0.84735 0.0
H1006 H 0.46238 0.63798 0.87533 0.0
H1007 H 0.39036 0.59611 0.87071 0.0
O1008 O 0.40117 0.64385 0.92624 0.0
O1009 O 0.44266 0.64226 0.91032 0.0
O1010 O 0.39268 0.60301 0.90468 0.0
O1011 O 0.40839 0.65152 0.89019 0.0
H1012 H 0.43836 0.66543 0.94477 0.0
H1013 H 0.36585 0.64121 0.94219 0.0
H1014 H 0.43922 0.68082 0.9724 0.0
H1015 H 0.36787 0.65683 0.96994 0.0
H1016 H 0.51506 0.70007 0.89961 0.0
H1017 H 0.46083 0.64456 0.9394 0.0
H1018 H 0.47473 0.67351 0.89122 0.0
H1019 H 0.50135 0.67161 0.94694 0.0
H1020 H 0.40297 0.59377 0.97976 0.0
H1021 H 0.43963 0.57313 0.94695 0.0
H1022 H 0.42857 0.73378 0.90466 0.0
H1023 H 0.4838 0.73823 0.93438 0.0
H1024 H 0.37703 0.56076 0.8939 0.0
H1025 H 0.36819 0.6016 0.93052 0.0
H1026 H 0.34477 0.52578 0.90623 0.0
H1027 H 0.33626 0.56598 0.94222 0.0
H1028 H 0.37749 0.6305 0.86696 0.0
H1029 H 0.44772 0.68184 0.87678 0.0
H1030 H 0.38525 0.63778 0.83737 0.0
H1031 H 0.45431 0.68815 0.84703 0.0
H1032 H 0.33016 0.65464 0.9068 0.0
H1033 H 0.30507 0.58772 0.88482 0.0
H1034 H 0.46847 0.61909 0.85148 0.0
H1035 H 0.39472 0.57655 0.84685 0.0
Li1036 Li 0.77752 0.41043 0.08196 0.0
Li1037 Li 0.80743 0.40301 0.09196 0.0
Li1038 Li 0.80517 0.41034 0.06276 0.0
Li1039 Li 0.77628 0.37389 0.07488 0.0
C1040 C 0.81751 0.45365 0.08185 0.0
N1041 N 0.83031 0.49962 0.08267 0.0
C1042 C 0.82828 0.46689 0.09567 0.0
C1043 C 0.81349 0.46383 0.06839 0.0
C1044 C 0.83455 0.49009 0.09587 0.0
C1045 C 0.82003 0.48709 0.06905 0.0
C1046 C 0.76667 0.38782 0.1118 0.0
C1047 C 0.73924 0.37299 0.13371 0.0
N1048 N 0.7516 0.39321 0.14186 0.0
C1049 C 0.77907 0.40846 0.12036 0.0
C1050 C 0.74656 0.36994 0.11847 0.0
C1051 C 0.77119 0.41084 0.13556 0.0
C1052 C 0.73689 0.41248 0.08048 0.0
N1053 N 0.75828 0.42291 0.08715 0.0
C1054 C 0.75014 0.44832 0.1024 0.0
C1055 C 0.76513 0.44059 0.09788 0.0
C1056 C 0.72785 0.4378 0.0958 0.0
C1057 C 0.72136 0.41975 0.08458 0.0
H1058 H 0.73177 0.39826 0.07213 0.0
H1059 H 0.782 0.44833 0.10331 0.0
C1060 C 0.85059 0.42762 0.10504 0.0
N1061 N 0.82925 0.41038 0.10892 0.0
C1062 C 0.86709 0.43857 0.11716 0.0
C1063 C 0.83987 0.41268 0.13692 0.0
C1064 C 0.82392 0.40202 0.12433 0.0
C1065 C 0.86145 0.43189 0.13347 0.0
H1066 H 0.85432 0.4338 0.09265 0.0
H1067 H 0.80684 0.38811 0.12706 0.0
C1068 C 0.76322 0.39561 0.04581 0.0
N1069 N 0.74646 0.39712 0.0154 0.0
C1070 C 0.75561 0.37691 0.03519 0.0
C1071 C 0.76198 0.41492 0.04107 0.0
C1072 C 0.74728 0.37805 0.01983 0.0
C1073 C 0.75355 0.4154 0.02561 0.0
C1074 C 0.81549 0.36994 0.0781 0.0
C1075 C 0.83156 0.36644 0.06971 0.0
C1076 C 0.80496 0.35703 0.09203 0.0
C1077 C 0.83679 0.34999 0.07537 0.0
C1078 C 0.81066 0.34075 0.0973 0.0
N1079 N 0.82632 0.33759 0.08893 0.0
C1080 C 0.84459 0.44369 0.04698 0.0
C1081 C 0.81757 0.41536 0.02907 0.0
C1082 C 0.85999 0.45426 0.03421 0.0
N1083 N 0.82385 0.42464 0.04421 0.0
C1084 C 0.83241 0.42543 0.01591 0.0
C1085 C 0.85407 0.44503 0.01842 0.0
H1086 H 0.84943 0.45037 0.05921 0.0
H1087 H 0.80133 0.39984 0.02722 0.0
C1088 C 0.73276 0.33608 0.07296 0.0
N1089 N 0.75512 0.34264 0.07018 0.0
C1090 C 0.71533 0.31457 0.06778 0.0
C1091 C 0.74431 0.30658 0.05752 0.0
C1092 C 0.76121 0.32839 0.06276 0.0
C1093 C 0.72095 0.29958 0.05969 0.0
H1094 H 0.72847 0.34802 0.07857 0.0
H1095 H 0.77909 0.3342 0.06035 0.0
O1096 O 0.81125 0.43092 0.08148 0.0
O1097 O 0.77391 0.38516 0.09683 0.0
O1098 O 0.7712 0.39469 0.06095 0.0
O1099 O 0.81025 0.386 0.07265 0.0
H1100 H 0.8316 0.45929 0.10618 0.0
H1101 H 0.80557 0.45392 0.05751 0.0
H1102 H 0.84278 0.50052 0.10651 0.0
H1103 H 0.81698 0.49519 0.05873 0.0
H1104 H 0.72372 0.35929 0.13905 0.0
H1105 H 0.79463 0.42248 0.11533 0.0
H1106 H 0.73674 0.35388 0.11195 0.0
H1107 H 0.78064 0.42672 0.14232 0.0
H1108 H 0.75578 0.46197 0.11133 0.0
H1109 H 0.70446 0.41128 0.07904 0.0
H1110 H 0.88368 0.45295 0.11389 0.0
H1111 H 0.83478 0.40695 0.14932 0.0
H1112 H 0.75628 0.36175 0.03872 0.0
H1113 H 0.76728 0.4293 0.04929 0.0
H1114 H 0.74147 0.36378 0.01144 0.0
H1115 H 0.75255 0.43027 0.02177 0.0
H1116 H 0.83987 0.37633 0.05891 0.0
H1117 H 0.79248 0.35946 0.0987 0.0
H1118 H 0.84917 0.34708 0.06898 0.0
H1119 H 0.80263 0.33062 0.10805 0.0
H1120 H 0.87667 0.46902 0.03681 0.0
H1121 H 0.82705 0.41778 0.00394 0.0
H1122 H 0.69764 0.31026 0.06944 0.0
H1123 H 0.7495 0.29557 0.05149 0.0
Li1124 Li 0.43024 0.8091 0.25778 0.0
Li1125 Li 0.39195 0.77891 0.24699 0.0
Li1126 Li 0.42708 0.77889 0.23947 0.0
Li1127 Li 0.41927 0.80729 0.22793 0.0
C1128 C 0.41554 0.75769 0.26741 0.0
N1129 N 0.42005 0.721 0.27764 0.0
C1130 C 0.39656 0.73545 0.26716 0.0
C1131 C 0.43678 0.7613 0.27293 0.0
C1132 C 0.3992 0.71713 0.27238 0.0
C1133 C 0.43871 0.74251 0.27803 0.0
C1134 C 0.38852 0.81708 0.25298 0.0
C1135 C 0.3545 0.81975 0.24833 0.0
N1136 N 0.35414 0.82454 0.26439 0.0
C1137 C 0.38796 0.82225 0.2694 0.0
C1138 C 0.3718 0.81602 0.24232 0.0
C1139 C 0.37038 0.82588 0.27495 0.0
C1140 C 0.45391 0.85135 0.27518 0.0
N1141 N 0.44481 0.82819 0.2761 0.0
C1142 C 0.45396 0.83079 0.3044 0.0
C1143 C 0.44466 0.8178 0.2903 0.0
C1144 C 0.46328 0.85473 0.30394 0.0
C1145 C 0.46323 0.86504 0.28907 0.0
H1146 H 0.45356 0.85909 0.26373 0.0
H1147 H 0.4369 0.79933 0.29075 0.0
C1148 C 0.3465 0.74188 0.24296 0.0
N1149 N 0.36064 0.75952 0.25295 0.0
C1150 C 0.32415 0.72611 0.24783 0.0
C1151 C 0.3313 0.74694 0.27318 0.0
C1152 C 0.35357 0.76216 0.26788 0.0
C1153 C 0.31634 0.72849 0.26316 0.0
H1154 H 0.35276 0.73962 0.2314 0.0
H1155 H 0.36545 0.77567 0.2759 0.0
C1156 C 0.47091 0.81796 0.23652 0.0
N1157 N 0.51634 0.82933 0.23365 0.0
C1158 C 0.48059 0.82002 0.22113 0.0
C1159 C 0.48437 0.82186 0.25045 0.0
C1160 C 0.50358 0.82572 0.21994 0.0
C1161 C 0.50729 0.82755 0.24874 0.0
C1162 C 0.39178 0.769 0.21027 0.0
C1163 C 0.40028 0.76048 0.19825 0.0
C1164 C 0.37393 0.77319 0.2065 0.0
C1165 C 0.3909 0.75652 0.1826 0.0
C1166 C 0.36501 0.76902 0.1907 0.0
N1167 N 0.37362 0.76086 0.17917 0.0
C1168 C 0.41989 0.73637 0.23 0.0
C1169 C 0.45947 0.76214 0.23469 0.0
C1170 C 0.42444 0.71909 0.22533 0.0
N1171 N 0.4373 0.75751 0.23433 0.0
C1172 C 0.46484 0.7454 0.2299 0.0
C1173 C 0.4472 0.72361 0.22502 0.0
H1174 H 0.40239 0.73303 0.22997 0.0
H1175 H 0.47305 0.77871 0.2386 0.0
C1176 C 0.41877 0.84282 0.20905 0.0
N1177 N 0.4231 0.82508 0.2089 0.0
C1178 C 0.42155 0.85545 0.19485 0.0
C1179 C 0.43304 0.83122 0.18073 0.0
C1180 C 0.43053 0.81944 0.19521 0.0
C1181 C 0.4285 0.84941 0.18048 0.0
H1182 H 0.41317 0.84714 0.22016 0.0
H1183 H 0.43445 0.8057 0.19552 0.0
O1184 O 0.41347 0.77576 0.2619 0.0
O1185 O 0.40557 0.81342 0.24733 0.0
O1186 O 0.44857 0.81278 0.23793 0.0
O1187 O 0.40093 0.77323 0.22563 0.0
H1188 H 0.38003 0.73235 0.26284 0.0
H1189 H 0.45169 0.77838 0.27304 0.0
H1190 H 0.38469 0.69981 0.27218 0.0
H1191 H 0.45508 0.74502 0.28222 0.0
H1192 H 0.3414 0.8189 0.24023 0.0
H1193 H 0.4008 0.8232 0.27782 0.0
H1194 H 0.37223 0.81247 0.22952 0.0
H1195 H 0.36964 0.82973 0.28764 0.0
H1196 H 0.45323 0.8221 0.31566 0.0
H1197 H 0.47028 0.88344 0.28822 0.0
H1198 H 0.31316 0.71211 0.23975 0.0
H1199 H 0.32611 0.7491 0.28523 0.0
H1200 H 0.47046 0.81719 0.21024 0.0
H1201 H 0.47718 0.82039 0.26245 0.0
H1202 H 0.51129 0.82729 0.20812 0.0
H1203 H 0.51789 0.83052 0.25941 0.0
H1204 H 0.41419 0.75726 0.20093 0.0
H1205 H 0.36702 0.77956 0.21569 0.0
H1206 H 0.3974 0.75007 0.17315 0.0
H1207 H 0.35123 0.77225 0.18761 0.0
H1208 H 0.41033 0.70258 0.22153 0.0
H1209 H 0.4826 0.74944 0.23001 0.0
H1210 H 0.418 0.8695 0.195 0.0
H1211 H 0.43866 0.82632 0.16984 0.0
H1212 H 0.20663 0.59316 0.27796 0.0
H1213 H 0.16483 0.63001 0.30724 0.0
H1214 H 0.20515 0.67447 0.30112 0.0
H1215 H 0.2694 0.643 0.29356 0.0
H1216 H 0.28395 0.64379 0.27496 0.0
H1217 H 0.25809 0.61792 0.28066 0.0
H1218 H 0.23966 0.61812 0.25288 0.0
H1219 H 0.26563 0.64398 0.24733 0.0
H1220 H 0.23853 0.64336 0.24694 0.0
H1221 H 0.24682 0.70846 0.28877 0.0
H1222 H 0.28521 0.73686 0.27853 0.0
H1223 H 0.29529 0.68174 0.26096 0.0
C1224 C 0.20662 0.60794 0.2832 0.0
C1225 C 0.17977 0.6068 0.29069 0.0
C1226 C 0.18004 0.63141 0.30164 0.0
C1227 C 0.20458 0.65889 0.29704 0.0
C1228 C 0.228 0.66049 0.2857 0.0
C1229 C 0.22966 0.63653 0.27957 0.0
C1230 C 0.25239 0.64522 0.27141 0.0
C1231 C 0.2668 0.637 0.2807 0.0
C1232 C 0.24884 0.63719 0.25359 0.0
C1233 C 0.26299 0.67155 0.2727 0.0
C1234 C 0.24961 0.67945 0.28055 0.0
C1235 C 0.25738 0.70274 0.28271 0.0
C1236 C 0.27919 0.71872 0.27691 0.0
C1237 C 0.29304 0.71139 0.26894 0.0
C1238 C 0.28476 0.68765 0.26683 0.0
H1239 H 0.63021 0.19676 0.43987 0.0
H1240 H 0.59036 0.18296 0.4841 0.0
H1241 H 0.57794 0.21027 0.47544 0.0
H1242 H 0.6517 0.25544 0.43977 0.0
H1243 H 0.65081 0.25839 0.41802 0.0
H1244 H 0.65361 0.23519 0.42637 0.0
H1245 H 0.61744 0.20573 0.4104 0.0
H1246 H 0.61457 0.2289 0.40193 0.0
H1247 H 0.5909 0.20598 0.41273 0.0
H1248 H 0.57361 0.24216 0.46364 0.0
H1249 H 0.57836 0.27688 0.44997 0.0
H1250 H 0.62079 0.26993 0.41314 0.0
C1251 C 0.6184 0.19909 0.4475 0.0
C1252 C 0.61099 0.18758 0.46255 0.0
C1253 C 0.596 0.19143 0.47243 0.0
C1254 C 0.58883 0.20686 0.4676 0.0
C1255 C 0.59679 0.21828 0.45283 0.0
C1256 C 0.61118 0.21453 0.44288 0.0
C1257 C 0.61899 0.23055 0.42838 0.0
C1258 C 0.64533 0.24579 0.42813 0.0
C1259 C 0.60993 0.21697 0.41241 0.0
C1260 C 0.60743 0.24446 0.43205 0.0
C1261 C 0.5944 0.23686 0.44605 0.0
C1262 C 0.58338 0.24799 0.45248 0.0
C1263 C 0.58609 0.26766 0.44455 0.0
C1264 C 0.59983 0.27612 0.43039 0.0
C1265 C 0.61019 0.26396 0.42393 0.0
H1266 H 0.44503 0.61918 0.61273 0.0
H1267 H 0.42039 0.58122 0.65782 0.0
H1268 H 0.38059 0.57033 0.6503 0.0
H1269 H 0.40948 0.64267 0.61294 0.0
H1270 H 0.40437 0.64077 0.5913 0.0
H1271 H 0.43044 0.64303 0.59909 0.0
H1272 H 0.42155 0.6056 0.58393 0.0
H1273 H 0.39548 0.60332 0.57596 0.0
H1274 H 0.39439 0.57978 0.58719 0.0
H1275 H 0.34449 0.56763 0.63955 0.0
H1276 H 0.31451 0.57262 0.62619 0.0
H1277 H 0.36211 0.6108 0.58727 0.0
C1278 C 0.43114 0.608 0.62076 0.0
C1279 C 0.43567 0.60062 0.6357 0.0
C1280 C 0.41719 0.58667 0.64618 0.0
C1281 C 0.39456 0.58042 0.64202 0.0
C1282 C 0.3907 0.58823 0.62731 0.0
C1283 C 0.40844 0.60155 0.61676 0.0
C1284 C 0.39986 0.60907 0.60227 0.0
C1285 C 0.41174 0.63545 0.60136 0.0
C1286 C 0.40301 0.59882 0.5864 0.0
C1287 C 0.37469 0.59853 0.60659 0.0
C1288 C 0.36972 0.58643 0.621 0.0
C1289 C 0.34803 0.57661 0.62806 0.0
C1290 C 0.33102 0.57944 0.62028 0.0
C1291 C 0.33572 0.59195 0.60553 0.0
C1292 C 0.35784 0.60122 0.59854 0.0
H1293 H 0.84827 0.44318 0.77108 0.0
H1294 H 0.86469 0.41677 0.81403 0.0
H1295 H 0.83833 0.37706 0.80473 0.0
H1296 H 0.79022 0.40469 0.77147 0.0
H1297 H 0.78649 0.40147 0.74971 0.0
H1298 H 0.80953 0.42754 0.75818 0.0
H1299 H 0.83901 0.42238 0.74105 0.0
H1300 H 0.81598 0.39625 0.73246 0.0
H1301 H 0.83972 0.39598 0.74249 0.0
H1302 H 0.80661 0.34078 0.79281 0.0
H1303 H 0.77125 0.31081 0.77968 0.0
H1304 H 0.77564 0.36053 0.74407 0.0
C1305 C 0.84675 0.42898 0.77826 0.0
C1306 C 0.85867 0.43296 0.79317 0.0
C1307 C 0.85588 0.41403 0.80249 0.0
C1308 C 0.84101 0.39145 0.79727 0.0
C1309 C 0.8291 0.38809 0.78269 0.0
C1310 C 0.83187 0.40634 0.77327 0.0
C1311 C 0.8153 0.39816 0.75904 0.0
C1312 C 0.79945 0.40858 0.75965 0.0
C1313 C 0.82828 0.4035 0.7428 0.0
C1314 C 0.80215 0.37256 0.76229 0.0
C1315 C 0.81064 0.36706 0.77583 0.0
C1316 C 0.80011 0.34478 0.78199 0.0
C1317 C 0.78005 0.32781 0.77437 0.0
C1318 C 0.77063 0.33321 0.76077 0.0
C1319 C 0.78232 0.3558 0.75445 0.0
H1320 H 0.43733 0.84371 0.94193 0.0
H1321 H 0.51064 0.88923 0.93604 0.0
H1322 H 0.51565 0.85571 0.93109 0.0
H1323 H 0.44018 0.79663 0.9618 0.0
H1324 H 0.41524 0.7748 0.95122 0.0
H1325 H 0.41778 0.80229 0.9555 0.0
H1326 H 0.41244 0.80741 0.92483 0.0
H1327 H 0.41 0.78002 0.92045 0.0
H1328 H 0.43135 0.80546 0.91018 0.0
H1329 H 0.51243 0.81712 0.92606 0.0
H1330 H 0.50092 0.7766 0.92019 0.0
H1331 H 0.42965 0.75667 0.9287 0.0
C1332 C 0.45447 0.84654 0.93992 0.0
C1333 C 0.47367 0.86899 0.93989 0.0
C1334 C 0.49578 0.87213 0.9366 0.0
C1335 C 0.49877 0.85321 0.93371 0.0
C1336 C 0.47948 0.8313 0.93394 0.0
C1337 C 0.45774 0.82789 0.9369 0.0
C1338 C 0.43968 0.80273 0.93561 0.0
C1339 C 0.42751 0.79358 0.95201 0.0
C1340 C 0.42236 0.79868 0.92195 0.0
C1341 C 0.45462 0.79253 0.93132 0.0
C1342 C 0.47754 0.80923 0.93055 0.0
C1343 C 0.49453 0.80388 0.92667 0.0
C1344 C 0.48786 0.78085 0.92342 0.0
C1345 C 0.46441 0.76355 0.92391 0.0
C1346 C 0.44768 0.76956 0.92803 0.0
H1347 H 0.59644 0.41347 0.12393 0.0
H1348 H 0.63537 0.50069 0.13569 0.0
H1349 H 0.67836 0.50438 0.12518 0.0
H1350 H 0.65287 0.41101 0.13692 0.0
H1351 H 0.64946 0.39022 0.12167 0.0
H1352 H 0.62475 0.39142 0.12881 0.0
H1353 H 0.61513 0.39658 0.09903 0.0
H1354 H 0.63996 0.39547 0.09204 0.0
H1355 H 0.63666 0.41974 0.08698 0.0
H1356 H 0.7098 0.49384 0.11153 0.0
H1357 H 0.73672 0.48168 0.10174 0.0
H1358 H 0.68176 0.41065 0.10163 0.0
C1359 C 0.61166 0.43023 0.12502 0.0
C1360 C 0.61027 0.4571 0.12814 0.0
C1361 C 0.63641 0.48564 0.13241 0.0
C1362 C 0.66265 0.48793 0.12503 0.0
C1363 C 0.66286 0.46303 0.11758 0.0
C1364 C 0.63906 0.43541 0.11806 0.0
C1365 C 0.64686 0.41933 0.11227 0.0
C1366 C 0.64328 0.40198 0.12572 0.0
C1367 C 0.63388 0.40706 0.09666 0.0
C1368 C 0.67263 0.43578 0.10891 0.0
C1369 C 0.68092 0.45931 0.1118 0.0
C1370 C 0.70379 0.47582 0.1093 0.0
C1371 C 0.71897 0.46873 0.10382 0.0
C1372 C 0.71133 0.44521 0.10097 0.0
C1373 C 0.68794 0.42877 0.1035 0.0
H1374 H 0.40089 0.86519 0.54115 0.0
H1375 H 0.44842 0.87581 0.58044 0.0
H1376 H 0.42646 0.83441 0.5869 0.0
H1377 H 0.35056 0.82471 0.56126 0.0
H1378 H 0.33706 0.80711 0.54358 0.0
H1379 H 0.3573 0.83728 0.54123 0.0
H1380 H 0.38176 0.82781 0.52178 0.0
H1381 H 0.36147 0.79759 0.52394 0.0
H1382 H 0.39144 0.80848 0.5284 0.0
H1383 H 0.398 0.79286 0.59041 0.0
H1384 H 0.36571 0.75317 0.59016 0.0
H1385 H 0.33738 0.76867 0.54761 0.0
C1386 C 0.40694 0.85867 0.55086 0.0
C1387 C 0.42666 0.87358 0.56008 0.0
C1388 C 0.43364 0.86457 0.57304 0.0
C1389 C 0.42125 0.84113 0.57682 0.0
C1390 C 0.40189 0.82691 0.56753 0.0
C1391 C 0.39484 0.83525 0.55473 0.0
C1392 C 0.373 0.81634 0.54702 0.0
C1393 C 0.35332 0.82169 0.54836 0.0
C1394 C 0.37718 0.81232 0.52923 0.0
C1395 C 0.36869 0.79618 0.55768 0.0
C1396 C 0.38558 0.8027 0.56941 0.0
C1397 C 0.38488 0.78742 0.5811 0.0
C1398 C 0.36648 0.76481 0.58076 0.0
C1399 C 0.34903 0.7575 0.56871 0.0
C1400 C 0.3503 0.77356 0.55703 0.0
H1401 H 0.5673 0.40815 0.71426 0.0
H1402 H 0.62644 0.46403 0.73828 0.0
H1403 H 0.64274 0.43868 0.74272 0.0
H1404 H 0.56223 0.36362 0.74057 0.0
H1405 H 0.55401 0.34237 0.72468 0.0
H1406 H 0.54731 0.36508 0.72276 0.0
H1407 H 0.56862 0.37696 0.69513 0.0
H1408 H 0.57526 0.35419 0.69691 0.0
H1409 H 0.59804 0.38339 0.694 0.0
H1410 H 0.65223 0.40738 0.74505 0.0
H1411 H 0.65456 0.37191 0.74506 0.0
H1412 H 0.58923 0.336 0.71956 0.0
C1413 C 0.58381 0.41507 0.72025 0.0
C1414 C 0.59585 0.43815 0.72568 0.0
C1415 C 0.61716 0.44651 0.73381 0.0
C1416 C 0.6265 0.43224 0.73642 0.0
C1417 C 0.61423 0.40961 0.73092 0.0
C1418 C 0.59338 0.40103 0.72299 0.0
C1419 C 0.58353 0.3759 0.71862 0.0
C1420 C 0.5604 0.36086 0.72717 0.0
C1421 C 0.58123 0.37241 0.70006 0.0
C1422 C 0.60208 0.37169 0.7254 0.0
C1423 C 0.61964 0.3914 0.7324 0.0
C1424 C 0.63867 0.39187 0.73951 0.0
C1425 C 0.63989 0.37167 0.73938 0.0
C1426 C 0.62218 0.35126 0.73219 0.0
C1427 C 0.60297 0.35131 0.72521 0.0
H1428 H 0.17934 0.57333 0.88908 0.0
H1429 H 0.19644 0.64055 0.87078 0.0
H1430 H 0.23752 0.65212 0.87076 0.0
H1431 H 0.22595 0.59271 0.91623 0.0
H1432 H 0.23094 0.56903 0.91294 0.0
H1433 H 0.20262 0.56505 0.91004 0.0
H1434 H 0.20166 0.55068 0.88061 0.0
H1435 H 0.22999 0.55454 0.88344 0.0
H1436 H 0.22441 0.5684 0.86671 0.0
H1437 H 0.2765 0.65743 0.87436 0.0
H1438 H 0.31155 0.65628 0.88144 0.0
H1439 H 0.26981 0.58583 0.89784 0.0
C1440 C 0.19174 0.5903 0.88476 0.0
C1441 C 0.1847 0.60592 0.87964 0.0
C1442 C 0.20144 0.6282 0.87448 0.0
C1443 C 0.22479 0.63493 0.87444 0.0
C1444 C 0.23117 0.61921 0.87964 0.0
C1445 C 0.2152 0.59733 0.88467 0.0
C1446 C 0.22687 0.58429 0.89053 0.0
C1447 C 0.22126 0.57737 0.9085 0.0
C1448 C 0.22034 0.56323 0.87967 0.0
C1449 C 0.25189 0.60247 0.88834 0.0
C1450 C 0.2539 0.62239 0.88192 0.0
C1451 C 0.27517 0.6419 0.87931 0.0
C1452 C 0.29496 0.64113 0.88349 0.0
C1453 C 0.29339 0.62102 0.89027 0.0
C1454 C 0.27153 0.60136 0.89253 0.0
H1455 H 0.5918 0.19873 0.04816 0.0
H1456 H 0.61147 0.18763 0.00026 0.0
H1457 H 0.65222 0.21476 0.00674 0.0
H1458 H 0.62904 0.25742 0.0495 0.0
H1459 H 0.63594 0.259 0.07084 0.0
H1460 H 0.60883 0.23628 0.06342 0.0
H1461 H 0.61755 0.20592 0.07566 0.0
H1462 H 0.64469 0.22859 0.08323 0.0
H1463 H 0.64382 0.20647 0.0703 0.0
H1464 H 0.68988 0.24629 0.01711 0.0
H1465 H 0.72172 0.28002 0.03048 0.0
H1466 H 0.67797 0.27005 0.07214 0.0
C1467 C 0.6048 0.20157 0.03924 0.0
C1468 C 0.5986 0.19084 0.02381 0.0
C1469 C 0.61595 0.19544 0.01223 0.0
C1470 C 0.63911 0.21078 0.01581 0.0
C1471 C 0.64463 0.22136 0.03105 0.0
C1472 C 0.628 0.21686 0.04263 0.0
C1473 C 0.63826 0.23193 0.05753 0.0
C1474 C 0.62737 0.24705 0.06048 0.0
C1475 C 0.63594 0.21736 0.07257 0.0
C1476 C 0.6631 0.24616 0.05228 0.0
C1477 C 0.66647 0.2396 0.03706 0.0
C1478 C 0.68758 0.25128 0.02918 0.0
C1479 C 0.70565 0.27039 0.03695 0.0
C1480 C 0.70252 0.27771 0.05247 0.0
C1481 C 0.681 0.26503 0.06029 0.0
H1482 H 0.41895 0.59591 0.20642 0.0
H1483 H 0.47041 0.62439 0.16841 0.0
H1484 H 0.48228 0.66361 0.17813 0.0
H1485 H 0.40059 0.63565 0.20245 0.0
H1486 H 0.39556 0.63736 0.22382 0.0
H1487 H 0.39362 0.61161 0.21562 0.0
H1488 H 0.4238 0.61447 0.2366 0.0
H1489 H 0.4258 0.64026 0.2449 0.0
H1490 H 0.4513 0.64048 0.23786 0.0
H1491 H 0.48606 0.69961 0.19028 0.0
H1492 H 0.48028 0.72964 0.2031 0.0
H1493 H 0.4253 0.67772 0.23247 0.0
C1494 C 0.43297 0.61041 0.20033 0.0
C1495 C 0.44378 0.60715 0.18666 0.0
C1496 C 0.46196 0.62653 0.17893 0.0
C1497 C 0.46885 0.64884 0.1844 0.0
C1498 C 0.4574 0.65149 0.19762 0.0
C1499 C 0.43984 0.6328 0.20549 0.0
C1500 C 0.42887 0.64033 0.21838 0.0
C1501 C 0.40315 0.63067 0.21484 0.0
C1502 C 0.43268 0.63348 0.23545 0.0
C1503 C 0.44246 0.66613 0.21613 0.0
C1504 C 0.45917 0.67226 0.20434 0.0
C1505 C 0.47324 0.69506 0.19967 0.0
C1506 C 0.46989 0.71199 0.20705 0.0
C1507 C 0.4524 0.70599 0.21879 0.0
C1508 C 0.43879 0.68278 0.22352 0.0
H1509 H 0.86516 0.451 0.39257 0.0
H1510 H 0.84881 0.40994 0.34854 0.0
H1511 H 0.81076 0.4072 0.34748 0.0
H1512 H 0.80971 0.41916 0.41035 0.0
H1513 H 0.81012 0.44385 0.41934 0.0
H1514 H 0.83665 0.44401 0.41596 0.0
H1515 H 0.85198 0.4814 0.3991 0.0
H1516 H 0.82544 0.48132 0.40241 0.0
H1517 H 0.83553 0.4821 0.38197 0.0
H1518 H 0.77417 0.40778 0.35172 0.0
H1519 H 0.74071 0.40998 0.3616 0.0
H1520 H 0.78042 0.44997 0.4033 0.0
C1521 C 0.85357 0.4415 0.38269 0.0
C1522 C 0.85991 0.43065 0.37064 0.0
C1523 C 0.84431 0.41839 0.35788 0.0
C1524 C 0.82271 0.41678 0.35716 0.0
C1525 C 0.81695 0.4275 0.36931 0.0
C1526 C 0.83187 0.43953 0.38188 0.0
C1527 C 0.82102 0.44848 0.39384 0.0
C1528 C 0.81927 0.43826 0.41088 0.0
C1529 C 0.83428 0.47489 0.39435 0.0
C1530 C 0.79755 0.43934 0.38614 0.0
C1531 C 0.79567 0.42752 0.3719 0.0
C1532 C 0.77549 0.41714 0.36278 0.0
C1533 C 0.75662 0.41863 0.36844 0.0
C1534 C 0.75799 0.4303 0.38316 0.0
C1535 C 0.77884 0.44092 0.39202 0.0
H1536 H 0.13546 0.58027 0.43012 0.0
H1537 H 0.12293 0.51047 0.42659 0.0
H1538 H 0.13849 0.51373 0.45432 0.0
H1539 H 0.18917 0.60329 0.45037 0.0
H1540 H 0.18489 0.62267 0.46313 0.0
H1541 H 0.171 0.61429 0.44356 0.0
H1542 H 0.1314 0.59986 0.45722 0.0
H1543 H 0.14518 0.60826 0.47686 0.0
H1544 H 0.12254 0.5791 0.47342 0.0
H1545 H 0.1569 0.52501 0.48179 0.0
H1546 H 0.17781 0.54391 0.50705 0.0
H1547 H 0.17935 0.60676 0.49258 0.0
C1548 C 0.13591 0.56566 0.43523 0.0
C1549 C 0.12809 0.54514 0.42617 0.0
C1550 C 0.12886 0.52635 0.4333 0.0
C1551 C 0.13763 0.52802 0.44904 0.0
C1552 C 0.14558 0.54861 0.45751 0.0
C1553 C 0.14483 0.56711 0.45088 0.0
C1554 C 0.15549 0.58763 0.46227 0.0
C1555 C 0.17638 0.60818 0.45436 0.0
C1556 C 0.13758 0.59408 0.46777 0.0
C1557 C 0.16268 0.57787 0.47622 0.0
C1558 C 0.15655 0.55525 0.4733 0.0
C1559 C 0.16165 0.54266 0.48428 0.0
C1560 C 0.17344 0.55351 0.49862 0.0
C1561 C 0.18015 0.57677 0.5018 0.0
C1562 C 0.17457 0.58901 0.49044 0.0
H1563 H 0.61383 0.11632 0.6061 0.0
H1564 H 0.55447 0.05492 0.62453 0.0
H1565 H 0.5536 0.07671 0.64853 0.0
H1566 H 0.64147 0.13611 0.64404 0.0
H1567 H 0.65265 0.16616 0.63979 0.0
H1568 H 0.64733 0.14633 0.62336 0.0
H1569 H 0.62098 0.1591 0.60932 0.0
H1570 H 0.62627 0.17903 0.6257 0.0
H1571 H 0.59722 0.15774 0.62042 0.0
H1572 H 0.56057 0.10449 0.67121 0.0
H1573 H 0.57485 0.13633 0.69107 0.0
H1574 H 0.6304 0.17944 0.65823 0.0
C1575 C 0.60045 0.1076 0.61508 0.0
C1576 C 0.58408 0.08399 0.61341 0.0
C1577 C 0.56703 0.07303 0.62551 0.0
C1578 C 0.56642 0.08526 0.63917 0.0
C1579 C 0.583 0.10842 0.64056 0.0
C1580 C 0.59968 0.11951 0.62883 0.0
C1581 C 0.61623 0.14418 0.63367 0.0
C1582 C 0.64087 0.14843 0.63531 0.0
C1583 C 0.6151 0.161 0.62156 0.0
C1584 C 0.60645 0.14514 0.65006 0.0
C1585 C 0.5872 0.12438 0.65375 0.0
C1586 C 0.57558 0.12085 0.66843 0.0
C1587 C 0.58393 0.13899 0.67968 0.0
C1588 C 0.60379 0.16037 0.67624 0.0
C1589 C 0.61501 0.16343 0.66114 0.0
H1590 H 0.47784 0.58164 0.75431 0.0
H1591 H 0.41719 0.49545 0.75952 0.0
H1592 H 0.4085 0.50522 0.79233 0.0
H1593 H 0.49541 0.59021 0.80273 0.0
H1594 H 0.49699 0.61769 0.80456 0.0
H1595 H 0.50204 0.60847 0.78515 0.0
H1596 H 0.47003 0.61408 0.77207 0.0
H1597 H 0.46534 0.6236 0.79143 0.0
H1598 H 0.44174 0.59998 0.78097 0.0
H1599 H 0.41103 0.52714 0.82072 0.0
H1600 H 0.40936 0.54967 0.84375 0.0
H1601 H 0.46064 0.6126 0.82084 0.0
C1602 C 0.46476 0.56741 0.7612 0.0
C1603 C 0.45174 0.53671 0.75441 0.0
C1604 C 0.42586 0.51277 0.76435 0.0
C1605 C 0.42173 0.51866 0.785 0.0
C1606 C 0.43879 0.54689 0.79327 0.0
C1607 C 0.45867 0.57044 0.78201 0.0
C1608 C 0.46589 0.59131 0.79241 0.0
C1609 C 0.49161 0.60258 0.79645 0.0
C1610 C 0.46042 0.60823 0.78371 0.0
C1611 C 0.45104 0.5811 0.80783 0.0
C1612 C 0.43679 0.55703 0.80807 0.0
C1613 C 0.42194 0.54565 0.82085 0.0
C1614 C 0.42101 0.5586 0.83382 0.0
C1615 C 0.43474 0.58282 0.83393 0.0
C1616 C 0.45014 0.59405 0.82098 0.0
H1617 H 0.92718 0.43485 0.9384 0.0
H1618 H 0.97921 0.52308 0.94244 0.0
H1619 H 0.94978 0.52225 0.96869 0.0
H1620 H 0.86964 0.43451 0.95142 0.0
H1621 H 0.85886 0.40941 0.96412 0.0
H1622 H 0.87831 0.41348 0.94772 0.0
H1623 H 0.906 0.41001 0.96812 0.0
H1624 H 0.88629 0.40565 0.98437 0.0
H1625 H 0.91576 0.42844 0.98581 0.0
H1626 H 0.91352 0.50699 0.99072 0.0
H1627 H 0.88379 0.49063 0.01202 0.0
H1628 H 0.86261 0.42198 0.99452 0.0
C1629 C 0.93211 0.45107 0.94432 0.0
C1630 C 0.95375 0.4793 0.93549 0.0
C1631 C 0.96512 0.50709 0.94691 0.0
C1632 C 0.94603 0.50656 0.96246 0.0
C1633 C 0.92119 0.47999 0.96793 0.0
C1634 C 0.91482 0.45342 0.95987 0.0
C1635 C 0.89466 0.43541 0.96898 0.0
C1636 C 0.87416 0.42244 0.95737 0.0
C1637 C 0.90106 0.41891 0.97731 0.0
C1638 C 0.89008 0.44981 0.98148 0.0
C1639 C 0.90443 0.47383 0.98065 0.0
C1640 C 0.90229 0.48857 0.9915 0.0
C1641 C 0.88544 0.47911 0.00361 0.0
C1642 C 0.87091 0.45504 0.00489 0.0
C1643 C 0.87326 0.44046 0.99361 0.0
H1644 H 0.49602 0.94689 0.11465 0.0
H1645 H 0.44503 0.90191 0.0795 0.0
H1646 H 0.42253 0.87524 0.10157 0.0
H1647 H 0.49583 0.90385 0.13818 0.0
H1648 H 0.49915 0.91781 0.15756 0.0
H1649 H 0.50989 0.93475 0.13938 0.0
H1650 H 0.48569 0.95416 0.14542 0.0
H1651 H 0.47493 0.93732 0.16371 0.0
H1652 H 0.45516 0.93657 0.14854 0.0
H1653 H 0.40804 0.85144 0.12666 0.0
H1654 H 0.40192 0.83256 0.15351 0.0
H1655 H 0.46133 0.89326 0.17278 0.0
C1656 C 0.47978 0.93175 0.11171 0.0
C1657 C 0.47196 0.9267 0.09542 0.0
C1658 C 0.45104 0.90632 0.09194 0.0
C1659 C 0.43818 0.89107 0.10438 0.0
C1660 C 0.44643 0.89646 0.12028 0.0
C1661 C 0.46665 0.91639 0.12403 0.0
C1662 C 0.47242 0.91732 0.14196 0.0
C1663 C 0.49569 0.91849 0.1444 0.0
C1664 C 0.47202 0.93755 0.15041 0.0
C1665 C 0.45266 0.8945 0.1476 0.0
C1666 C 0.4378 0.8828 0.1349 0.0
C1667 C 0.41926 0.86061 0.13678 0.0
C1668 C 0.41591 0.85002 0.152 0.0
C1669 C 0.43092 0.86171 0.16512 0.0
C1670 C 0.44933 0.88429 0.16296 0.0
H1671 H 0.53283 0.43451 0.2729 0.0
H1672 H 0.59444 0.49605 0.25725 0.0
H1673 H 0.61525 0.49357 0.2813 0.0
H1674 H 0.54116 0.44561 0.31674 0.0
H1675 H 0.53029 0.41579 0.3216 0.0
H1676 H 0.51989 0.42344 0.30382 0.0
H1677 H 0.5314 0.39906 0.28586 0.0
H1678 H 0.54194 0.39144 0.30356 0.0
H1679 H 0.5606 0.40474 0.28639 0.0
H1680 H 0.62961 0.48357 0.30645 0.0
H1681 H 0.63675 0.46672 0.33084 0.0
H1682 H 0.56602 0.41077 0.3295 0.0
C1683 C 0.55057 0.44772 0.27475 0.0
C1684 C 0.56185 0.46584 0.26349 0.0
C1685 C 0.58531 0.48239 0.26597 0.0
C1686 C 0.59727 0.48106 0.27954 0.0
C1687 C 0.58559 0.46298 0.29042 0.0
C1688 C 0.56276 0.44661 0.28818 0.0
C1689 C 0.5545 0.42832 0.30125 0.0
C1690 C 0.53533 0.4283 0.31146 0.0
C1691 C 0.54666 0.40449 0.29381 0.0
C1692 C 0.57633 0.43682 0.31109 0.0
C1693 C 0.59402 0.45689 0.30469 0.0
C1694 C 0.6159 0.46784 0.31156 0.0
C1695 C 0.61983 0.458 0.32534 0.0
C1696 C 0.602 0.4373 0.33207 0.0
C1697 C 0.57996 0.4267 0.3248 0.0
H1698 H 0.46475 0.93633 0.37492 0.0
H1699 H 0.50184 0.9117 0.40406 0.0
H1700 H 0.50557 0.89171 0.38002 0.0
H1701 H 0.43181 0.88553 0.35345 0.0
H1702 H 0.43214 0.89884 0.33434 0.0
H1703 H 0.43522 0.9139 0.35313 0.0
H1704 H 0.47351 0.94818 0.34292 0.0
H1705 H 0.4705 0.93321 0.32403 0.0
H1706 H 0.49618 0.94325 0.33613 0.0
H1707 H 0.5018 0.87123 0.35383 0.0
H1708 H 0.49058 0.85139 0.32724 0.0
H1709 H 0.45526 0.88861 0.31509 0.0
C1710 C 0.4741 0.92714 0.3761 0.0
C1711 C 0.48321 0.92572 0.3913 0.0
C1712 C 0.49495 0.91319 0.39249 0.0
C1713 C 0.49717 0.90181 0.37891 0.0
C1714 C 0.48759 0.90316 0.36419 0.0
C1715 C 0.47637 0.91558 0.36266 0.0
C1716 C 0.46599 0.9127 0.34583 0.0
C1717 C 0.43974 0.9021 0.34675 0.0
C1718 C 0.47722 0.93571 0.33669 0.0
C1719 C 0.47251 0.89615 0.33831 0.0
C1720 C 0.48523 0.89112 0.34904 0.0
C1721 C 0.49209 0.87523 0.34524 0.0
C1722 C 0.48552 0.86396 0.33016 0.0
C1723 C 0.47211 0.86851 0.31909 0.0
C1724 C 0.46589 0.88512 0.32316 0.0
H1725 H 0.62068 0.51709 0.54402 0.0
H1726 H 0.55014 0.46586 0.55494 0.0
H1727 H 0.54922 0.44345 0.53088 0.0
H1728 H 0.61586 0.51379 0.49976 0.0
H1729 H 0.6438 0.51673 0.49697 0.0
H1730 H 0.63841 0.52971 0.51436 0.0
H1731 H 0.65155 0.50788 0.53357 0.0
H1732 H 0.65694 0.49482 0.51624 0.0
H1733 H 0.6379 0.47703 0.53212 0.0
H1734 H 0.55595 0.42646 0.50582 0.0
H1735 H 0.57045 0.41483 0.48231 0.0
H1736 H 0.63767 0.47555 0.48881 0.0
C1737 C 0.60493 0.50136 0.54114 0.0
C1738 C 0.58526 0.49366 0.55105 0.0
C1739 C 0.5652 0.47252 0.54727 0.0
C1740 C 0.56454 0.45961 0.53366 0.0
C1741 C 0.58417 0.46781 0.5241 0.0
C1742 C 0.60406 0.4881 0.52771 0.0
C1743 C 0.62318 0.49235 0.516 0.0
C1744 C 0.63075 0.51446 0.50619 0.0
C1745 C 0.64359 0.49305 0.52502 0.0
C1746 C 0.61094 0.47122 0.50527 0.0
C1747 C 0.5884 0.45742 0.51007 0.0
C1748 C 0.57363 0.43703 0.50202 0.0
C1749 C 0.58213 0.43047 0.48874 0.0
C1750 C 0.60534 0.44407 0.48374 0.0
C1751 C 0.61982 0.4648 0.49216 0.0
H1752 H 0.1178 0.55081 0.71395 0.0
H1753 H 0.1302 0.61579 0.73401 0.0
H1754 H 0.14868 0.63519 0.7083 0.0
H1755 H 0.17089 0.5727 0.69451 0.0
H1756 H 0.16007 0.55419 0.67692 0.0
H1757 H 0.1453 0.54491 0.69606 0.0
H1758 H 0.10767 0.53823 0.68238 0.0
H1759 H 0.12234 0.54748 0.66315 0.0
H1760 H 0.10754 0.56137 0.6714 0.0
H1761 H 0.16858 0.64804 0.68145 0.0
H1762 H 0.18899 0.65357 0.65541 0.0
H1763 H 0.16467 0.5804 0.65311 0.0
C1764 C 0.12406 0.56904 0.71278 0.0
C1765 C 0.12246 0.5818 0.7259 0.0
C1766 C 0.13111 0.60569 0.72405 0.0
C1767 C 0.1416 0.61683 0.7095 0.0
C1768 C 0.14328 0.60384 0.69691 0.0
C1769 C 0.13471 0.58046 0.69838 0.0
C1770 C 0.14022 0.57081 0.68348 0.0
C1771 C 0.155 0.56003 0.68802 0.0
C1772 C 0.11812 0.55344 0.67457 0.0
C1773 C 0.15373 0.59251 0.6736 0.0
C1774 C 0.15505 0.61132 0.68147 0.0
C1775 C 0.16752 0.63341 0.6751 0.0
C1776 C 0.17918 0.63641 0.66037 0.0
C1777 C 0.17843 0.61743 0.65222 0.0
C1778 C 0.16524 0.59518 0.65888 0.0
H1779 H 0.54665 0.0852 0.86119 0.0
H1780 H 0.51817 0.11781 0.89141 0.0
H1781 H 0.5365 0.15223 0.87393 0.0
H1782 H 0.60101 0.13651 0.85172 0.0
H1783 H 0.60121 0.12775 0.831 0.0
H1784 H 0.58723 0.1064 0.8466 0.0
H1785 H 0.54946 0.08784 0.82983 0.0
H1786 H 0.56328 0.10917 0.81421 0.0
H1787 H 0.53732 0.10524 0.82357 0.0
H1788 H 0.55747 0.1829 0.85284 0.0
H1789 H 0.57776 0.20663 0.82889 0.0
H1790 H 0.59114 0.15331 0.81182 0.0
C1791 C 0.54463 0.09977 0.86426 0.0
C1792 C 0.53159 0.09909 0.87794 0.0
C1793 C 0.52862 0.11816 0.88128 0.0
C1794 C 0.53889 0.13776 0.87138 0.0
C1795 C 0.55176 0.13789 0.85805 0.0
C1796 C 0.55453 0.11934 0.85442 0.0
C1797 C 0.56812 0.12329 0.83889 0.0
C1798 C 0.59074 0.1235 0.84226 0.0
C1799 C 0.55367 0.10532 0.82586 0.0
C1800 C 0.57247 0.14694 0.8343 0.0
C1801 C 0.56309 0.15516 0.84558 0.0
C1802 C 0.56491 0.17665 0.84394 0.0
C1803 C 0.57653 0.19003 0.83035 0.0
C1804 C 0.58596 0.18177 0.81851 0.0
C1805 C 0.58391 0.15996 0.8206 0.0
H1806 H 0.44442 0.55915 0.0566 0.0
H1807 H 0.42255 0.489 0.04234 0.0
H1808 H 0.41967 0.49859 0.0137 0.0
H1809 H 0.40662 0.56624 0.03133 0.0
H1810 H 0.42638 0.59586 0.02641 0.0
H1811 H 0.42918 0.58418 0.0454 0.0
H1812 H 0.47137 0.59639 0.03845 0.0
H1813 H 0.46875 0.60825 0.01944 0.0
H1814 H 0.47769 0.58704 0.01956 0.0
H1815 H 0.41719 0.5154 0.98688 0.0
H1816 H 0.41394 0.53777 0.96416 0.0
H1817 H 0.43649 0.59656 0.99624 0.0
C1818 C 0.43954 0.54597 0.04737 0.0
C1819 C 0.4343 0.52352 0.05159 0.0
C1820 C 0.4272 0.50647 0.03928 0.0
C1821 C 0.42548 0.51174 0.02301 0.0
C1822 C 0.43075 0.53408 0.01928 0.0
C1823 C 0.43765 0.55092 0.03112 0.0
C1824 C 0.44093 0.57318 0.02412 0.0
C1825 C 0.42481 0.58026 0.0323 0.0
C1826 C 0.46619 0.59234 0.02547 0.0
C1827 C 0.43416 0.56606 0.0066 0.0
C1828 C 0.4287 0.54356 0.00397 0.0
C1829 C 0.42157 0.53308 0.98877 0.0
C1830 C 0.41983 0.5459 0.97595 0.0
C1831 C 0.42491 0.56882 0.9785 0.0
C1832 C 0.43232 0.579 0.994 0.0
H1833 H 0.9163 0.45746 0.22931 0.0
H1834 H 0.94251 0.54267 0.21763 0.0
H1835 H 0.92561 0.52897 0.18464 0.0
H1836 H 0.92751 0.44297 0.18293 0.0
H1837 H 0.90158 0.41541 0.18182 0.0
H1838 H 0.9148 0.42695 0.20129 0.0
H1839 H 0.87658 0.42299 0.21177 0.0
H1840 H 0.86344 0.41123 0.19236 0.0
H1841 H 0.86315 0.43605 0.20039 0.0
H1842 H 0.90766 0.50369 0.15712 0.0
H1843 H 0.88462 0.47858 0.13466 0.0
H1844 H 0.87192 0.4186 0.16251 0.0
C1845 C 0.91784 0.4708 0.22118 0.0
C1846 C 0.93533 0.5022 0.22624 0.0
C1847 C 0.934 0.52483 0.21389 0.0
C1848 C 0.92493 0.51647 0.19322 0.0
C1849 C 0.91402 0.48735 0.18694 0.0
C1850 C 0.90969 0.46526 0.20014 0.0
C1851 C 0.8965 0.44322 0.19081 0.0
C1852 C 0.91096 0.43144 0.18912 0.0
C1853 C 0.87357 0.42745 0.19933 0.0
C1854 C 0.89282 0.45152 0.17412 0.0
C1855 C 0.90275 0.47546 0.17228 0.0
C1856 C 0.90017 0.48526 0.15816 0.0
C1857 C 0.88718 0.47082 0.14541 0.0
C1858 C 0.87675 0.44665 0.14678 0.0
C1859 C 0.87979 0.43705 0.16123 0.0
loop_
_geom_bond_atom_site_label_1
_geom_bond_atom_site_label_2
_geom_bond_distance
_geom_bond_site_symmetry_2
_ccdc_geom_bond_type
C0 C1 1.560 . S
C0 H61 0.959 . S
C0 H62 0.959 . S
C0 H63 0.960 . S
C1 C0 1.560 . S
C1 O56 1.426 . S
C1 H60 0.980 . S
C2 C3 1.407 . S
C2 C7 1.418 . S
C2 O56 1.334 . S
C3 C2 1.407 . S
C3 C4 1.360 . S
C3 H64 0.929 . S
C4 C3 1.360 . S
C4 C5 1.401 . S
C4 C8 1.527 . S
C5 C4 1.401 . S
C5 C6 1.405 . S
C5 C38 1.587 . S
C6 C5 1.405 . S
C6 C7 1.332 . S
C6 C9 1.496 . S
C7 C2 1.418 . S
C7 C6 1.332 . S
C7 H65 0.929 . S
C8 C4 1.527 . S
C8 H66 0.959 . S
C8 H67 0.961 . S
C8 H68 0.961 . S
C9 C6 1.496 . S
C9 H69 0.960 . S
C9 H70 0.960 . S
C9 H71 0.961 . S
C10 C11 1.517 . S
C10 H73 0.961 . S
C10 H74 0.960 . S
C10 H75 0.959 . S
C11 C10 1.517 . S
C11 O59 1.468 . S
C11 H72 0.980 . S
C12 C13 1.349 . S
C12 C17 1.367 . S
C12 O59 1.408 . S
C13 C12 1.349 . S
C13 C14 1.407 1_655 S
C13 H76 0.930 . S
C14 C13 1.407 1_455 S
C14 C15 1.449 . S
C14 C18 1.535 . S
C15 C14 1.449 . S
C15 C16 1.384 . S
C15 C40 1.553 . S
C16 C15 1.384 . S
C16 C17 1.364 1_455 S
C16 C19 1.450 . S
C17 C12 1.367 . S
C17 C16 1.364 1_655 S
C17 H77 0.931 . S
C18 C14 1.535 . S
C18 H78 0.959 . S
C18 H79 0.961 . S
C18 H80 0.959 1_455 S
C19 C16 1.450 . S
C19 H81 0.960 . S
C19 H82 0.960 . S
C19 H83 0.960 . S
C20 C21 1.309 . S
C20 C25 1.304 . S
C20 O58 1.435 . S
C21 C20 1.309 . S
C21 C22 1.476 . S
C21 H85 0.930 . S
C22 C21 1.476 . S
C22 C23 1.400 . S
C22 C26 1.567 . S
C23 C22 1.400 . S
C23 C24 1.373 . S
C23 C45 1.432 . S
C24 C23 1.373 . S
C24 C25 1.339 . S
C24 C27 1.530 . S
C25 C20 1.304 . S
C25 C24 1.339 . S
C25 H86 0.930 . S
C26 C22 1.567 . S
C26 H87 0.961 . S
C26 H88 0.960 . S
C26 H89 0.958 . S
C27 C24 1.530 . S
C27 H90 0.961 . S
C27 H91 0.960 . S
C27 H92 0.960 . S
C28 C29 1.530 . S
C28 H94 0.961 . S
C28 H95 0.961 . S
C28 H96 0.959 . S
C29 C28 1.530 . S
C29 O57 1.412 . S
C29 H93 0.980 . S
C30 C31 1.288 . S
C30 C35 1.377 . S
C30 O57 1.393 . S
C31 C30 1.288 . S
C31 C32 1.369 . S
C31 H97 0.932 . S
C32 C31 1.369 . S
C32 C33 1.398 . S
C32 C36 1.527 . S
C33 C32 1.398 . S
C33 C34 1.380 . S
C33 C47 1.497 . S
C34 C33 1.380 . S
C34 C35 1.383 . S
C34 C37 1.603 . S
C35 C30 1.377 . S
C35 C34 1.383 . S
C35 H98 0.929 . S
C36 C32 1.527 . S
C36 H99 0.961 . S
C36 H100 0.959 . S
C36 H101 0.959 . S
C37 C34 1.603 . S
C37 H102 0.960 . S
C37 H103 0.962 . S
C37 H104 0.961 . S
C38 C5 1.587 . S
C38 C39 1.360 . S
C38 C51 1.412 . S
C39 C38 1.360 . S
C39 C40 1.365 . S
C39 H105 0.929 . S
C40 C15 1.553 . S
C40 C39 1.365 . S
C40 C41 1.404 . S
C41 C40 1.404 . S
C41 C42 1.395 1_455 S
C41 C52 1.451 . S
C42 C41 1.395 1_655 S
C42 C43 1.322 . S
C42 H106 0.930 . S
C43 C42 1.322 . S
C43 C44 1.459 . S
C43 H107 0.929 . S
C44 C43 1.459 . S
C44 C45 1.445 . S
C44 C53 1.395 1_655 S
C45 C23 1.432 . S
C45 C44 1.445 . S
C45 C46 1.370 1_655 S
C46 C45 1.370 1_455 S
C46 C47 1.438 . S
C46 H108 0.930 1_455 S
C47 C33 1.497 . S
C47 C46 1.438 . S
C47 C48 1.360 . S
C48 C47 1.360 . S
C48 C49 1.401 . S
C48 C53 1.446 . S
C49 C48 1.401 . S
C49 C50 1.347 . S
C49 H109 0.929 . S
C50 C49 1.347 . S
C50 C51 1.455 . S
C50 H110 0.930 . S
C51 C38 1.412 . S
C51 C50 1.455 . S
C51 C52 1.331 . S
C52 C41 1.451 . S
C52 C51 1.331 . S
C52 C53 1.497 . S
C53 C44 1.395 1_455 S
C53 C48 1.446 . S
C53 C52 1.497 . S
C54 C55 1.582 . S
C54 H111 0.962 . S
C54 H112 0.959 . S
C54 H113 0.958 . S
C55 C54 1.582 . S
C55 O58 1.458 . S
C55 H84 0.980 . S
O56 C1 1.426 . S
O56 C2 1.334 . S
O57 C29 1.412 . S
O57 C30 1.393 . S
O58 C20 1.435 . S
O58 C55 1.458 . S
O59 C11 1.468 . S
O59 C12 1.408 . S
H60 C1 0.980 . S
H61 C0 0.959 . S
H62 C0 0.959 . S
H63 C0 0.960 . S
H64 C3 0.929 . S
H65 C7 0.929 . S
H66 C8 0.959 . S
H67 C8 0.961 . S
H68 C8 0.961 . S
H69 C9 0.960 . S
H70 C9 0.960 . S
H71 C9 0.961 . S
H72 C11 0.980 . S
H73 C10 0.961 . S
H74 C10 0.960 . S
H75 C10 0.959 . S
H76 C13 0.930 . S
H77 C17 0.931 . S
H78 C18 0.959 . S
H79 C18 0.961 . S
H80 C18 0.959 1_655 S
H81 C19 0.960 . S
H82 C19 0.960 . S
H83 C19 0.960 . S
H84 C55 0.980 . S
H85 C21 0.930 . S
H86 C25 0.930 . S
H87 C26 0.961 . S
H88 C26 0.960 . S
H89 C26 0.958 . S
H90 C27 0.961 . S
H91 C27 0.960 . S
H92 C27 0.960 . S
H93 C29 0.980 . S
H94 C28 0.961 . S
H95 C28 0.961 . S
H96 C28 0.959 . S
H97 C31 0.932 . S
H98 C35 0.929 . S
H99 C36 0.961 . S
H100 C36 0.959 . S
H101 C36 0.959 . S
H102 C37 0.960 . S
H103 C37 0.962 . S
H104 C37 0.961 . S
H105 C39 0.929 . S
H106 C42 0.930 . S
H107 C43 0.929 . S
H108 C46 0.930 1_655 S
H109 C49 0.929 . S
H110 C50 0.930 . S
H111 C54 0.962 . S
H112 C54 0.959 . S
H113 C54 0.958 . S
C114 C115 1.560 . S
C114 H175 0.959 . S
C114 H176 0.959 . S
C114 H177 0.960 . S
C115 C114 1.560 . S
C115 O170 1.426 . S
C115 H174 0.980 . S
C116 C117 1.407 . S
C116 C121 1.418 . S
C116 O170 1.334 . S
C117 C116 1.407 . S
C117 C118 1.360 . S
C117 H178 0.929 . S
C118 C117 1.360 . S
C118 C119 1.401 . S
C118 C122 1.527 . S
C119 C118 1.401 . S
C119 C120 1.405 . S
C119 C152 1.587 . S
C120 C119 1.405 . S
C120 C121 1.332 . S
C120 C123 1.496 . S
C121 C116 1.418 . S
C121 C120 1.332 . S
C121 H179 0.929 . S
C122 C118 1.527 . S
C122 H180 0.959 . S
C122 H181 0.961 . S
C122 H182 0.961 . S
C123 C120 1.496 . S
C123 H183 0.960 . S
C123 H184 0.960 . S
C123 H185 0.961 . S
C124 C125 1.517 . S
C124 H187 0.961 . S
C124 H188 0.960 . S
C124 H189 0.959 . S
C125 C124 1.517 . S
C125 O173 1.468 . S
C125 H186 0.980 . S
C126 C127 1.349 . S
C126 C131 1.367 . S
C126 O173 1.408 . S
C127 C126 1.349 . S
C127 C128 1.407 . S
C127 H190 0.930 . S
C128 C127 1.407 . S
C128 C129 1.449 . S
C128 C132 1.535 . S
C129 C128 1.449 . S
C129 C130 1.384 . S
C129 C154 1.553 . S
C130 C129 1.384 . S
C130 C131 1.364 . S
C130 C133 1.450 . S
C131 C126 1.367 . S
C131 C130 1.364 . S
C131 H191 0.931 . S
C132 C128 1.535 . S
C132 H192 0.959 . S
C132 H193 0.961 . S
C132 H194 0.959 . S
C133 C130 1.450 . S
C133 H195 0.960 . S
C133 H196 0.960 . S
C133 H197 0.960 . S
C134 C135 1.309 . S
C134 C139 1.304 . S
C134 O172 1.435 . S
C135 C134 1.309 . S
C135 C136 1.476 . S
C135 H199 0.930 . S
C136 C135 1.476 . S
C136 C137 1.400 . S
C136 C140 1.567 . S
C137 C136 1.400 . S
C137 C138 1.373 . S
C137 C159 1.432 . S
C138 C137 1.373 . S
C138 C139 1.339 . S
C138 C141 1.530 . S
C139 C134 1.304 . S
C139 C138 1.339 . S
C139 H200 0.930 . S
C140 C136 1.567 . S
C140 H201 0.961 . S
C140 H202 0.960 . S
C140 H203 0.958 . S
C141 C138 1.530 . S
C141 H204 0.961 . S
C141 H205 0.960 . S
C141 H206 0.960 . S
C142 C143 1.530 . S
C142 H208 0.961 . S
C142 H209 0.961 . S
C142 H210 0.959 . S
C143 C142 1.530 . S
C143 O171 1.412 . S
C143 H207 0.980 . S
C144 C145 1.288 . S
C144 C149 1.377 . S
C144 O171 1.393 . S
C145 C144 1.288 . S
C145 C146 1.369 1_565 S
C145 H211 0.932 . S
C146 C145 1.369 1_545 S
C146 C147 1.398 . S
C146 C150 1.527 . S
C147 C146 1.398 . S
C147 C148 1.380 1_545 S
C147 C161 1.497 . S
C148 C147 1.380 1_565 S
C148 C149 1.383 . S
C148 C151 1.603 . S
C149 C144 1.377 . S
C149 C148 1.383 . S
C149 H212 0.929 . S
C150 C146 1.527 . S
C150 H213 0.961 . S
C150 H214 0.959 . S
C150 H215 0.959 . S
C151 C148 1.603 . S
C151 H216 0.960 . S
C151 H217 0.962 1_565 S
C151 H218 0.961 . S
C152 C119 1.587 . S
C152 C153 1.360 . S
C152 C165 1.412 . S
C153 C152 1.360 . S
C153 C154 1.365 1_565 S
C153 H219 0.929 . S
C154 C129 1.553 . S
C154 C153 1.365 1_545 S
C154 C155 1.404 . S
C155 C154 1.404 . S
C155 C156 1.395 . S
C155 C166 1.451 . S
C156 C155 1.395 . S
C156 C157 1.322 . S
C156 H220 0.930 . S
C157 C156 1.322 . S
C157 C158 1.459 . S
C157 H221 0.929 . S
C158 C157 1.459 . S
C158 C159 1.445 . S
C158 C167 1.395 . S
C159 C137 1.432 . S
C159 C158 1.445 . S
C159 C160 1.370 . S
C160 C159 1.370 . S
C160 C161 1.438 . S
C160 H222 0.930 . S
C161 C147 1.497 . S
C161 C160 1.438 . S
C161 C162 1.360 . S
C162 C161 1.360 . S
C162 C163 1.401 1_545 S
C162 C167 1.446 . S
C163 C162 1.401 1_565 S
C163 C164 1.347 . S
C163 H223 0.929 . S
C164 C163 1.347 . S
C164 C165 1.455 . S
C164 H224 0.930 . S
C165 C152 1.412 . S
C165 C164 1.455 . S
C165 C166 1.331 1_565 S
C166 C155 1.451 . S
C166 C165 1.331 1_545 S
C166 C167 1.497 . S
C167 C158 1.395 . S
C167 C162 1.446 . S
C167 C166 1.497 . S
C168 C169 1.582 . S
C168 H225 0.962 . S
C168 H226 0.959 . S
C168 H227 0.958 . S
C169 C168 1.582 . S
C169 O172 1.458 . S
C169 H198 0.980 . S
O170 C115 1.426 . S
O170 C116 1.334 . S
O171 C143 1.412 . S
O171 C144 1.393 . S
O172 C134 1.435 . S
O172 C169 1.458 . S
O173 C125 1.468 . S
O173 C126 1.408 . S
H174 C115 0.980 . S
H175 C114 0.959 . S
H176 C114 0.959 . S
H177 C114 0.960 . S
H178 C117 0.929 . S
H179 C121 0.929 . S
H180 C122 0.959 . S
H181 C122 0.961 . S
H182 C122 0.961 . S
H183 C123 0.960 . S
H184 C123 0.960 . S
H185 C123 0.961 . S
H186 C125 0.980 . S
H187 C124 0.961 . S
H188 C124 0.960 . S
H189 C124 0.959 . S
H190 C127 0.930 . S
H191 C131 0.931 . S
H192 C132 0.959 . S
H193 C132 0.961 . S
H194 C132 0.959 . S
H195 C133 0.960 . S
H196 C133 0.960 . S
H197 C133 0.960 . S
H198 C169 0.980 . S
H199 C135 0.930 . S
H200 C139 0.930 . S
H201 C140 0.961 . S
H202 C140 0.960 . S
H203 C140 0.958 . S
H204 C141 0.961 . S
H205 C141 0.960 . S
H206 C141 0.960 . S
H207 C143 0.980 . S
H208 C142 0.961 . S
H209 C142 0.961 . S
H210 C142 0.959 . S
H211 C145 0.932 . S
H212 C149 0.929 . S
H213 C150 0.961 . S
H214 C150 0.959 . S
H215 C150 0.959 . S
H216 C151 0.960 . S
H217 C151 0.962 1_545 S
H218 C151 0.961 . S
H219 C153 0.929 . S
H220 C156 0.930 . S
H221 C157 0.929 . S
H222 C160 0.930 . S
H223 C163 0.929 . S
H224 C164 0.930 . S
H225 C168 0.962 . S
H226 C168 0.959 . S
H227 C168 0.958 . S
C228 C229 1.560 . S
C228 H289 0.959 . S
C228 H290 0.959 . S
C228 H291 0.960 . S
C229 C228 1.560 . S
C229 O284 1.426 . S
C229 H288 0.980 . S
C230 C231 1.407 . S
C230 C235 1.418 . S
C230 O284 1.334 . S
C231 C230 1.407 . S
C231 C232 1.360 . S
C231 H292 0.929 . S
C232 C231 1.360 . S
C232 C233 1.401 . S
C232 C236 1.527 . S
C233 C232 1.401 . S
C233 C234 1.405 . S
C233 C266 1.587 . S
C234 C233 1.405 . S
C234 C235 1.332 . S
C234 C237 1.496 . S
C235 C230 1.418 . S
C235 C234 1.332 . S
C235 H293 0.929 . S
C236 C232 1.527 . S
C236 H294 0.959 . S
C236 H295 0.961 . S
C236 H296 0.961 . S
C237 C234 1.496 . S
C237 H297 0.960 . S
C237 H298 0.960 . S
C237 H299 0.961 . S
C238 C239 1.517 . S
C238 H301 0.961 . S
C238 H302 0.960 . S
C238 H303 0.959 . S
C239 C238 1.517 . S
C239 O287 1.468 . S
C239 H300 0.980 . S
C240 C241 1.349 . S
C240 C245 1.367 . S
C240 O287 1.408 . S
C241 C240 1.349 . S
C241 C242 1.407 . S
C241 H304 0.930 . S
C242 C241 1.407 . S
C242 C243 1.449 . S
C242 C246 1.535 . S
C243 C242 1.449 . S
C243 C244 1.384 . S
C243 C268 1.553 . S
C244 C243 1.384 . S
C244 C245 1.364 . S
C244 C247 1.450 . S
C245 C240 1.367 . S
C245 C244 1.364 . S
C245 H305 0.931 . S
C246 C242 1.535 . S
C246 H306 0.959 . S
C246 H307 0.961 . S
C246 H308 0.959 . S
C247 C244 1.450 . S
C247 H309 0.960 . S
C247 H310 0.960 . S
C247 H311 0.960 . S
C248 C249 1.309 . S
C248 C253 1.304 . S
C248 O286 1.435 . S
C249 C248 1.309 . S
C249 C250 1.476 . S
C249 H313 0.930 . S
C250 C249 1.476 . S
C250 C251 1.400 . S
C250 C254 1.567 . S
C251 C250 1.400 . S
C251 C252 1.373 . S
C251 C273 1.432 . S
C252 C251 1.373 . S
C252 C253 1.339 . S
C252 C255 1.530 . S
C253 C248 1.304 . S
C253 C252 1.339 . S
C253 H314 0.930 . S
C254 C250 1.567 . S
C254 H315 0.961 . S
C254 H316 0.960 . S
C254 H317 0.958 . S
C255 C252 1.530 . S
C255 H318 0.961 . S
C255 H319 0.960 . S
C255 H320 0.960 . S
C256 C257 1.530 . S
C256 H322 0.961 . S
C256 H323 0.961 . S
C256 H324 0.959 . S
C257 C256 1.530 . S
C257 O285 1.412 . S
C257 H321 0.980 . S
C258 C259 1.288 . S
C258 C263 1.377 . S
C258 O285 1.393 . S
C259 C258 1.288 . S
C259 C260 1.369 . S
C259 H325 0.932 . S
C260 C259 1.369 . S
C260 C261 1.398 . S
C260 C264 1.527 . S
C261 C260 1.398 . S
C261 C262 1.380 . S
C261 C275 1.497 . S
C262 C261 1.380 . S
C262 C263 1.383 . S
C262 C265 1.603 . S
C263 C258 1.377 . S
C263 C262 1.383 . S
C263 H326 0.929 . S
C264 C260 1.527 . S
C264 H327 0.961 . S
C264 H328 0.959 . S
C264 H329 0.959 . S
C265 C262 1.603 . S
C265 H330 0.960 . S
C265 H331 0.962 . S
C265 H332 0.961 . S
C266 C233 1.587 . S
C266 C267 1.360 . S
C266 C279 1.412 . S
C267 C266 1.360 . S
C267 C268 1.365 . S
C267 H333 0.929 . S
C268 C243 1.553 . S
C268 C267 1.365 . S
C268 C269 1.404 . S
C269 C268 1.404 . S
C269 C270 1.395 . S
C269 C280 1.451 . S
C270 C269 1.395 . S
C270 C271 1.322 . S
C270 H334 0.930 . S
C271 C270 1.322 . S
C271 C272 1.459 . S
C271 H335 0.929 . S
C272 C271 1.459 . S
C272 C273 1.445 . S
C272 C281 1.395 . S
C273 C251 1.432 . S
C273 C272 1.445 . S
C273 C274 1.370 . S
C274 C273 1.370 . S
C274 C275 1.438 . S
C274 H336 0.930 . S
C275 C261 1.497 . S
C275 C274 1.438 . S
C275 C276 1.360 . S
C276 C275 1.360 . S
C276 C277 1.401 . S
C276 C281 1.446 . S
C277 C276 1.401 . S
C277 C278 1.347 . S
C277 H337 0.929 . S
C278 C277 1.347 . S
C278 C279 1.455 . S
C278 H338 0.930 . S
C279 C266 1.412 . S
C279 C278 1.455 . S
C279 C280 1.331 . S
C280 C269 1.451 . S
C280 C279 1.331 . S
C280 C281 1.497 . S
C281 C272 1.395 . S
C281 C276 1.446 . S
C281 C280 1.497 . S
C282 C283 1.582 . S
C282 H339 0.962 . S
C282 H340 0.959 . S
C282 H341 0.958 . S
C283 C282 1.582 . S
C283 O286 1.458 . S
C283 H312 0.980 . S
O284 C229 1.426 . S
O284 C230 1.334 . S
O285 C257 1.412 . S
O285 C258 1.393 . S
O286 C248 1.435 . S
O286 C283 1.458 . S
O287 C239 1.468 . S
O287 C240 1.408 . S
H288 C229 0.980 . S
H289 C228 0.959 . S
H290 C228 0.959 . S
H291 C228 0.960 . S
H292 C231 0.929 . S
H293 C235 0.929 . S
H294 C236 0.959 . S
H295 C236 0.961 . S
H296 C236 0.961 . S
H297 C237 0.960 . S
H298 C237 0.960 . S
H299 C237 0.961 . S
H300 C239 0.980 . S
H301 C238 0.961 . S
H302 C238 0.960 . S
H303 C238 0.959 . S
H304 C241 0.930 . S
H305 C245 0.931 . S
H306 C246 0.959 . S
H307 C246 0.961 . S
H308 C246 0.959 . S
H309 C247 0.960 . S
H310 C247 0.960 . S
H311 C247 0.960 . S
H312 C283 0.980 . S
H313 C249 0.930 . S
H314 C253 0.930 . S
H315 C254 0.961 . S
H316 C254 0.960 . S
H317 C254 0.958 . S
H318 C255 0.961 . S
H319 C255 0.960 . S
H320 C255 0.960 . S
H321 C257 0.980 . S
H322 C256 0.961 . S
H323 C256 0.961 . S
H324 C256 0.959 . S
H325 C259 0.932 . S
H326 C263 0.929 . S
H327 C264 0.961 . S
H328 C264 0.959 . S
H329 C264 0.959 . S
H330 C265 0.960 . S
H331 C265 0.962 . S
H332 C265 0.961 . S
H333 C267 0.929 . S
H334 C270 0.930 . S
H335 C271 0.929 . S
H336 C274 0.930 . S
H337 C277 0.929 . S
H338 C278 0.930 . S
H339 C282 0.962 . S
H340 C282 0.959 . S
H341 C282 0.958 . S
C342 C343 1.560 . S
C342 H403 0.959 . S
C342 H404 0.959 . S
C342 H405 0.960 . S
C343 C342 1.560 . S
C343 O398 1.426 . S
C343 H402 0.980 . S
C344 C345 1.407 . S
C344 C349 1.418 . S
C344 O398 1.334 . S
C345 C344 1.407 . S
C345 C346 1.360 . S
C345 H406 0.929 . S
C346 C345 1.360 . S
C346 C347 1.401 . S
C346 C350 1.527 . S
C347 C346 1.401 . S
C347 C348 1.405 . S
C347 C380 1.587 . S
C348 C347 1.405 . S
C348 C349 1.332 . S
C348 C351 1.496 . S
C349 C344 1.418 . S
C349 C348 1.332 . S
C349 H407 0.929 . S
C350 C346 1.527 . S
C350 H408 0.959 . S
C350 H409 0.961 . S
C350 H410 0.961 . S
C351 C348 1.496 . S
C351 H411 0.960 . S
C351 H412 0.960 . S
C351 H413 0.961 . S
C352 C353 1.517 . S
C352 H415 0.961 . S
C352 H416 0.960 . S
C352 H417 0.959 . S
C353 C352 1.517 . S
C353 O401 1.468 . S
C353 H414 0.980 . S
C354 C355 1.349 . S
C354 C359 1.367 . S
C354 O401 1.408 . S
C355 C354 1.349 . S
C355 C356 1.407 1_655 S
C355 H418 0.930 . S
C356 C355 1.407 1_455 S
C356 C357 1.449 . S
C356 C360 1.535 . S
C357 C356 1.449 . S
C357 C358 1.384 . S
C357 C382 1.553 . S
C358 C357 1.384 . S
C358 C359 1.364 1_455 S
C358 C361 1.450 . S
C359 C354 1.367 . S
C359 C358 1.364 1_655 S
C359 H419 0.931 . S
C360 C356 1.535 . S
C360 H420 0.959 . S
C360 H421 0.961 . S
C360 H422 0.959 1_455 S
C361 C358 1.450 . S
C361 H423 0.960 . S
C361 H424 0.960 . S
C361 H425 0.960 . S
C362 C363 1.309 . S
C362 C367 1.304 . S
C362 O400 1.435 . S
C363 C362 1.309 . S
C363 C364 1.476 . S
C363 H427 0.930 . S
C364 C363 1.476 . S
C364 C365 1.400 . S
C364 C368 1.567 . S
C365 C364 1.400 . S
C365 C366 1.373 . S
C365 C387 1.432 . S
C366 C365 1.373 . S
C366 C367 1.339 . S
C366 C369 1.530 . S
C367 C362 1.304 . S
C367 C366 1.339 . S
C367 H428 0.930 . S
C368 C364 1.567 . S
C368 H429 0.961 . S
C368 H430 0.960 . S
C368 H431 0.958 . S
C369 C366 1.530 . S
C369 H432 0.961 . S
C369 H433 0.960 . S
C369 H434 0.960 . S
C370 C371 1.530 . S
C370 H436 0.961 . S
C370 H437 0.961 . S
C370 H438 0.959 . S
C371 C370 1.530 . S
C371 O399 1.412 . S
C371 H435 0.980 . S
C372 C373 1.288 . S
C372 C377 1.377 . S
C372 O399 1.393 . S
C373 C372 1.288 . S
C373 C374 1.369 . S
C373 H439 0.932 . S
C374 C373 1.369 . S
C374 C375 1.398 . S
C374 C378 1.527 . S
C375 C374 1.398 . S
C375 C376 1.380 . S
C375 C389 1.497 . S
C376 C375 1.380 . S
C376 C377 1.383 . S
C376 C379 1.603 . S
C377 C372 1.377 . S
C377 C376 1.383 . S
C377 H440 0.929 . S
C378 C374 1.527 . S
C378 H441 0.961 . S
C378 H442 0.959 . S
C378 H443 0.959 . S
C379 C376 1.603 . S
C379 H444 0.960 . S
C379 H445 0.962 . S
C379 H446 0.961 . S
C380 C347 1.587 . S
C380 C381 1.360 . S
C380 C393 1.412 . S
C381 C380 1.360 . S
C381 C382 1.365 . S
C381 H447 0.929 . S
C382 C357 1.553 . S
C382 C381 1.365 . S
C382 C383 1.404 . S
C383 C382 1.404 . S
C383 C384 1.395 1_455 S
C383 C394 1.451 . S
C384 C383 1.395 1_655 S
C384 C385 1.322 . S
C384 H448 0.930 . S
C385 C384 1.322 . S
C385 C386 1.459 . S
C385 H449 0.929 . S
C386 C385 1.459 . S
C386 C387 1.445 . S
C386 C395 1.395 1_655 S
C387 C365 1.432 . S
C387 C386 1.445 . S
C387 C388 1.370 1_655 S
C388 C387 1.370 1_455 S
C388 C389 1.438 . S
C388 H450 0.930 1_455 S
C389 C375 1.497 . S
C389 C388 1.438 . S
C389 C390 1.360 . S
C390 C389 1.360 . S
C390 C391 1.401 . S
C390 C395 1.446 . S
C391 C390 1.401 . S
C391 C392 1.347 . S
C391 H451 0.929 . S
C392 C391 1.347 . S
C392 C393 1.455 . S
C392 H452 0.930 . S
C393 C380 1.412 . S
C393 C392 1.455 . S
C393 C394 1.331 . S
C394 C383 1.451 . S
C394 C393 1.331 . S
C394 C395 1.497 . S
C395 C386 1.395 1_455 S
C395 C390 1.446 . S
C395 C394 1.497 . S
C396 C397 1.582 . S
C396 H453 0.962 . S
C396 H454 0.959 . S
C396 H455 0.958 . S
C397 C396 1.582 . S
C397 O400 1.458 . S
C397 H426 0.980 . S
O398 C343 1.426 . S
O398 C344 1.334 . S
O399 C371 1.412 . S
O399 C372 1.393 . S
O400 C362 1.435 . S
O400 C397 1.458 . S
O401 C353 1.468 . S
O401 C354 1.408 . S
H402 C343 0.980 . S
H403 C342 0.959 . S
H404 C342 0.959 . S
H405 C342 0.960 . S
H406 C345 0.929 . S
H407 C349 0.929 . S
H408 C350 0.959 . S
H409 C350 0.961 . S
H410 C350 0.961 . S
H411 C351 0.960 . S
H412 C351 0.960 . S
H413 C351 0.961 . S
H414 C353 0.980 . S
H415 C352 0.961 . S
H416 C352 0.960 . S
H417 C352 0.959 . S
H418 C355 0.930 . S
H419 C359 0.931 . S
H420 C360 0.959 . S
H421 C360 0.961 . S
H422 C360 0.959 1_655 S
H423 C361 0.960 . S
H424 C361 0.960 . S
H425 C361 0.960 . S
H426 C397 0.980 . S
H427 C363 0.930 . S
H428 C367 0.930 . S
H429 C368 0.961 . S
H430 C368 0.960 . S
H431 C368 0.958 . S
H432 C369 0.961 . S
H433 C369 0.960 . S
H434 C369 0.960 . S
H435 C371 0.980 . S
H436 C370 0.961 . S
H437 C370 0.961 . S
H438 C370 0.959 . S
H439 C373 0.932 . S
H440 C377 0.929 . S
H441 C378 0.961 . S
H442 C378 0.959 . S
H443 C378 0.959 . S
H444 C379 0.960 . S
H445 C379 0.962 . S
H446 C379 0.961 . S
H447 C381 0.929 . S
H448 C384 0.930 . S
H449 C385 0.929 . S
H450 C388 0.930 1_655 S
H451 C391 0.929 . S
H452 C392 0.930 . S
H453 C396 0.962 . S
H454 C396 0.959 . S
H455 C396 0.958 . S
C456 C457 1.560 . S
C456 H517 0.959 . S
C456 H518 0.959 . S
C456 H519 0.960 . S
C457 C456 1.560 . S
C457 O512 1.426 . S
C457 H516 0.980 . S
C458 C459 1.407 . S
C458 C463 1.418 . S
C458 O512 1.334 . S
C459 C458 1.407 . S
C459 C460 1.360 . S
C459 H520 0.929 . S
C460 C459 1.360 . S
C460 C461 1.401 . S
C460 C464 1.527 . S
C461 C460 1.401 . S
C461 C462 1.405 . S
C461 C494 1.587 . S
C462 C461 1.405 . S
C462 C463 1.332 . S
C462 C465 1.496 . S
C463 C458 1.418 . S
C463 C462 1.332 . S
C463 H521 0.929 . S
C464 C460 1.527 . S
C464 H522 0.959 . S
C464 H523 0.961 . S
C464 H524 0.961 . S
C465 C462 1.496 . S
C465 H525 0.960 . S
C465 H526 0.960 . S
C465 H527 0.961 . S
C466 C467 1.517 . S
C466 H529 0.961 . S
C466 H530 0.960 . S
C466 H531 0.959 . S
C467 C466 1.517 . S
C467 O515 1.468 . S
C467 H528 0.980 . S
C468 C469 1.349 . S
C468 C473 1.367 . S
C468 O515 1.408 . S
C469 C468 1.349 . S
C469 C470 1.407 . S
C469 H532 0.930 . S
C470 C469 1.407 . S
C470 C471 1.449 . S
C470 C474 1.535 . S
C471 C470 1.449 . S
C471 C472 1.384 . S
C471 C496 1.553 . S
C472 C471 1.384 . S
C472 C473 1.364 . S
C472 C475 1.450 . S
C473 C468 1.367 . S
C473 C472 1.364 . S
C473 H533 0.931 . S
C474 C470 1.535 . S
C474 H534 0.959 . S
C474 H535 0.961 . S
C474 H536 0.959 . S
C475 C472 1.450 . S
C475 H537 0.960 . S
C475 H538 0.960 . S
C475 H539 0.960 . S
C476 C477 1.309 . S
C476 C481 1.304 . S
C476 O514 1.435 . S
C477 C476 1.309 . S
C477 C478 1.476 . S
C477 H541 0.930 . S
C478 C477 1.476 . S
C478 C479 1.400 . S
C478 C482 1.567 . S
C479 C478 1.400 . S
C479 C480 1.373 . S
C479 C501 1.432 . S
C480 C479 1.373 . S
C480 C481 1.339 . S
C480 C483 1.530 . S
C481 C476 1.304 . S
C481 C480 1.339 . S
C481 H542 0.930 . S
C482 C478 1.567 . S
C482 H543 0.961 . S
C482 H544 0.960 . S
C482 H545 0.958 . S
C483 C480 1.530 . S
C483 H546 0.961 . S
C483 H547 0.960 . S
C483 H548 0.960 . S
C484 C485 1.530 . S
C484 H550 0.961 . S
C484 H551 0.961 . S
C484 H552 0.959 . S
C485 C484 1.530 . S
C485 O513 1.412 . S
C485 H549 0.980 . S
C486 C487 1.288 . S
C486 C491 1.377 . S
C486 O513 1.393 . S
C487 C486 1.288 . S
C487 C488 1.369 1_565 S
C487 H553 0.932 . S
C488 C487 1.369 1_545 S
C488 C489 1.398 . S
C488 C492 1.527 . S
C489 C488 1.398 . S
C489 C490 1.380 1_545 S
C489 C503 1.497 . S
C490 C489 1.380 1_565 S
C490 C491 1.383 . S
C490 C493 1.603 . S
C491 C486 1.377 . S
C491 C490 1.383 . S
C491 H554 0.929 . S
C492 C488 1.527 . S
C492 H555 0.961 . S
C492 H556 0.959 . S
C492 H557 0.959 . S
C493 C490 1.603 . S
C493 H558 0.960 . S
C493 H559 0.962 1_565 S
C493 H560 0.961 . S
C494 C461 1.587 . S
C494 C495 1.360 . S
C494 C507 1.412 . S
C495 C494 1.360 . S
C495 C496 1.365 1_565 S
C495 H561 0.929 . S
C496 C471 1.553 . S
C496 C495 1.365 1_545 S
C496 C497 1.404 . S
C497 C496 1.404 . S
C497 C498 1.395 . S
C497 C508 1.451 . S
C498 C497 1.395 . S
C498 C499 1.322 . S
C498 H562 0.930 . S
C499 C498 1.322 . S
C499 C500 1.444 1_556 S
C499 H563 0.929 . S
C500 C499 1.444 1_554 S
C500 C501 1.462 . S
C500 C509 1.393 1_554 S
C501 C479 1.432 . S
C501 C500 1.462 . S
C501 C502 1.370 . S
C502 C501 1.370 . S
C502 C503 1.438 . S
C502 H564 0.930 . S
C503 C489 1.497 . S
C503 C502 1.438 . S
C503 C504 1.360 . S
C504 C503 1.360 . S
C504 C505 1.401 1_545 S
C504 C509 1.446 1_554 S
C505 C504 1.401 1_565 S
C505 C506 1.347 1_554 S
C505 H565 0.929 . S
C506 C505 1.347 1_556 S
C506 C507 1.455 . S
C506 H566 0.930 . S
C507 C494 1.412 . S
C507 C506 1.455 . S
C507 C508 1.331 1_565 S
C508 C497 1.451 . S
C508 C507 1.331 1_545 S
C508 C509 1.497 . S
C509 C500 1.393 1_556 S
C509 C504 1.446 1_556 S
C509 C508 1.497 . S
C510 C511 1.582 . S
C510 H567 0.962 . S
C510 H568 0.959 . S
C510 H569 0.958 . S
C511 C510 1.582 . S
C511 O514 1.458 . S
C511 H540 0.980 . S
O512 C457 1.426 . S
O512 C458 1.334 . S
O513 C485 1.412 . S
O513 C486 1.393 . S
O514 C476 1.435 . S
O514 C511 1.458 . S
O515 C467 1.468 . S
O515 C468 1.408 . S
H516 C457 0.980 . S
H517 C456 0.959 . S
H518 C456 0.959 . S
H519 C456 0.960 . S
H520 C459 0.929 . S
H521 C463 0.929 . S
H522 C464 0.959 . S
H523 C464 0.961 . S
H524 C464 0.961 . S
H525 C465 0.960 . S
H526 C465 0.960 . S
H527 C465 0.961 . S
H528 C467 0.980 . S
H529 C466 0.961 . S
H530 C466 0.960 . S
H531 C466 0.959 . S
H532 C469 0.930 . S
H533 C473 0.931 . S
H534 C474 0.959 . S
H535 C474 0.961 . S
H536 C474 0.959 . S
H537 C475 0.960 . S
H538 C475 0.960 . S
H539 C475 0.960 . S
H540 C511 0.980 . S
H541 C477 0.930 . S
H542 C481 0.930 . S
H543 C482 0.961 . S
H544 C482 0.960 . S
H545 C482 0.958 . S
H546 C483 0.961 . S
H547 C483 0.960 . S
H548 C483 0.960 . S
H549 C485 0.980 . S
H550 C484 0.961 . S
H551 C484 0.961 . S
H552 C484 0.959 . S
H553 C487 0.932 . S
H554 C491 0.929 . S
H555 C492 0.961 . S
H556 C492 0.959 . S
H557 C492 0.959 . S
H558 C493 0.960 . S
H559 C493 0.962 1_545 S
H560 C493 0.961 . S
H561 C495 0.929 . S
H562 C498 0.930 . S
H563 C499 0.929 . S
H564 C502 0.930 . S
H565 C505 0.929 . S
H566 C506 0.930 . S
H567 C510 0.962 . S
H568 C510 0.959 . S
H569 C510 0.958 . S
C570 C571 1.560 . S
C570 H631 0.959 . S
C570 H632 0.959 . S
C570 H633 0.960 . S
C571 C570 1.560 . S
C571 O626 1.426 . S
C571 H630 0.980 . S
C572 C573 1.407 . S
C572 C577 1.418 . S
C572 O626 1.334 . S
C573 C572 1.407 . S
C573 C574 1.360 . S
C573 H634 0.929 . S
C574 C573 1.360 . S
C574 C575 1.401 . S
C574 C578 1.527 . S
C575 C574 1.401 . S
C575 C576 1.405 . S
C575 C608 1.587 . S
C576 C575 1.405 . S
C576 C577 1.332 . S
C576 C579 1.496 . S
C577 C572 1.418 . S
C577 C576 1.332 . S
C577 H635 0.929 . S
C578 C574 1.527 . S
C578 H636 0.959 . S
C578 H637 0.961 . S
C578 H638 0.961 . S
C579 C576 1.496 . S
C579 H639 0.960 . S
C579 H640 0.960 . S
C579 H641 0.961 . S
C580 C581 1.517 . S
C580 H643 0.961 . S
C580 H644 0.960 . S
C580 H645 0.959 . S
C581 C580 1.517 . S
C581 O629 1.468 . S
C581 H642 0.980 . S
C582 C583 1.349 . S
C582 C587 1.367 . S
C582 O629 1.408 . S
C583 C582 1.349 . S
C583 C584 1.407 . S
C583 H646 0.930 . S
C584 C583 1.407 . S
C584 C585 1.449 . S
C584 C588 1.535 . S
C585 C584 1.449 . S
C585 C586 1.384 . S
C585 C610 1.553 . S
C586 C585 1.384 . S
C586 C587 1.364 . S
C586 C589 1.450 . S
C587 C582 1.367 . S
C587 C586 1.364 . S
C587 H647 0.931 . S
C588 C584 1.535 . S
C588 H648 0.959 . S
C588 H649 0.961 . S
C588 H650 0.959 . S
C589 C586 1.450 . S
C589 H651 0.960 . S
C589 H652 0.960 . S
C589 H653 0.960 . S
C590 C591 1.309 . S
C590 C595 1.304 . S
C590 O628 1.435 . S
C591 C590 1.309 . S
C591 C592 1.476 . S
C591 H655 0.930 . S
C592 C591 1.476 . S
C592 C593 1.400 . S
C592 C596 1.567 . S
C593 C592 1.400 . S
C593 C594 1.373 . S
C593 C615 1.432 . S
C594 C593 1.373 . S
C594 C595 1.339 . S
C594 C597 1.530 . S
C595 C590 1.304 . S
C595 C594 1.339 . S
C595 H656 0.930 . S
C596 C592 1.567 . S
C596 H657 0.961 . S
C596 H658 0.960 . S
C596 H659 0.958 . S
C597 C594 1.530 . S
C597 H660 0.961 . S
C597 H661 0.960 . S
C597 H662 0.960 . S
C598 C599 1.530 . S
C598 H664 0.961 . S
C598 H665 0.961 . S
C598 H666 0.959 . S
C599 C598 1.530 . S
C599 O627 1.412 . S
C599 H663 0.980 . S
C600 C601 1.288 . S
C600 C605 1.377 . S
C600 O627 1.393 . S
C601 C600 1.288 . S
C601 C602 1.369 . S
C601 H667 0.932 . S
C602 C601 1.369 . S
C602 C603 1.398 . S
C602 C606 1.527 . S
C603 C602 1.398 . S
C603 C604 1.380 . S
C603 C617 1.497 . S
C604 C603 1.380 . S
C604 C605 1.383 . S
C604 C607 1.603 . S
C605 C600 1.377 . S
C605 C604 1.383 . S
C605 H668 0.929 . S
C606 C602 1.527 . S
C606 H669 0.961 . S
C606 H670 0.959 . S
C606 H671 0.959 . S
C607 C604 1.603 . S
C607 H672 0.960 . S
C607 H673 0.962 . S
C607 H674 0.961 . S
C608 C575 1.587 . S
C608 C609 1.360 . S
C608 C621 1.412 . S
C609 C608 1.360 . S
C609 C610 1.365 . S
C609 H675 0.929 . S
C610 C585 1.553 . S
C610 C609 1.365 . S
C610 C611 1.404 . S
C611 C610 1.404 . S
C611 C612 1.395 . S
C611 C622 1.451 . S
C612 C611 1.395 . S
C612 C613 1.322 . S
C612 H676 0.930 . S
C613 C612 1.322 . S
C613 C614 1.459 . S
C613 H677 0.929 . S
C614 C613 1.459 . S
C614 C615 1.445 . S
C614 C623 1.395 . S
C615 C593 1.432 . S
C615 C614 1.445 . S
C615 C616 1.370 . S
C616 C615 1.370 . S
C616 C617 1.438 . S
C616 H678 0.930 . S
C617 C603 1.497 . S
C617 C616 1.438 . S
C617 C618 1.360 . S
C618 C617 1.360 . S
C618 C619 1.401 . S
C618 C623 1.446 . S
C619 C618 1.401 . S
C619 C620 1.347 . S
C619 H679 0.929 . S
C620 C619 1.347 . S
C620 C621 1.455 . S
C620 H680 0.930 . S
C621 C608 1.412 . S
C621 C620 1.455 . S
C621 C622 1.331 . S
C622 C611 1.451 . S
C622 C621 1.331 . S
C622 C623 1.497 . S
C623 C614 1.395 . S
C623 C618 1.446 . S
C623 C622 1.497 . S
C624 C625 1.582 . S
C624 H681 0.962 . S
C624 H682 0.959 . S
C624 H683 0.958 . S
C625 C624 1.582 . S
C625 O628 1.458 . S
C625 H654 0.980 . S
O626 C571 1.426 . S
O626 C572 1.334 . S
O627 C599 1.412 . S
O627 C600 1.393 . S
O628 C590 1.435 . S
O628 C625 1.458 . S
O629 C581 1.468 . S
O629 C582 1.408 . S
H630 C571 0.980 . S
H631 C570 0.959 . S
H632 C570 0.959 . S
H633 C570 0.960 . S
H634 C573 0.929 . S
H635 C577 0.929 . S
H636 C578 0.959 . S
H637 C578 0.961 . S
H638 C578 0.961 . S
H639 C579 0.960 . S
H640 C579 0.960 . S
H641 C579 0.961 . S
H642 C581 0.980 . S
H643 C580 0.961 . S
H644 C580 0.960 . S
H645 C580 0.959 . S
H646 C583 0.930 . S
H647 C587 0.931 . S
H648 C588 0.959 . S
H649 C588 0.961 . S
H650 C588 0.959 . S
H651 C589 0.960 . S
H652 C589 0.960 . S
H653 C589 0.960 . S
H654 C625 0.980 . S
H655 C591 0.930 . S
H656 C595 0.930 . S
H657 C596 0.961 . S
H658 C596 0.960 . S
H659 C596 0.958 . S
H660 C597 0.961 . S
H661 C597 0.960 . S
H662 C597 0.960 . S
H663 C599 0.980 . S
H664 C598 0.961 . S
H665 C598 0.961 . S
H666 C598 0.959 . S
H667 C601 0.932 . S
H668 C605 0.929 . S
H669 C606 0.961 . S
H670 C606 0.959 . S
H671 C606 0.959 . S
H672 C607 0.960 . S
H673 C607 0.962 . S
H674 C607 0.961 . S
H675 C609 0.929 . S
H676 C612 0.930 . S
H677 C613 0.929 . S
H678 C616 0.930 . S
H679 C619 0.929 . S
H680 C620 0.930 . S
H681 C624 0.962 . S
H682 C624 0.959 . S
H683 C624 0.958 . S
Li684 N701 1.990 . S
Li684 O744 1.956 . S
Li684 O745 1.970 . S
Li684 O746 1.961 . S
Li685 N709 1.990 . S
Li685 O744 1.970 . S
Li685 O745 1.956 . S
Li685 O747 1.961 . S
Li686 N731 1.990 . S
Li686 O744 1.961 . S
Li686 O746 1.956 . S
Li686 O747 1.970 . S
Li687 N737 1.990 . S
Li687 O745 1.961 . S
Li687 O746 1.970 . S
Li687 O747 1.956 . S
C688 C690 1.348 . S
C688 C691 1.356 . S
C688 O744 1.325 . S
N689 C692 1.314 . S
N689 C693 1.279 . S
C690 C688 1.348 . S
C690 C692 1.353 . S
C690 H748 0.929 . S
C691 C688 1.356 . S
C691 C693 1.358 . S
C691 H749 0.930 . S
C692 N689 1.314 . S
C692 C690 1.353 . S
C692 H750 0.930 . S
C693 N689 1.279 . S
C693 C691 1.358 . S
C693 H751 0.930 . S
C694 C697 1.348 . S
C694 C698 1.356 . S
C694 O745 1.325 . S
C695 N696 1.279 . S
C695 C698 1.358 . S
C695 H752 0.930 . S
N696 C695 1.279 . S
N696 C699 1.314 . S
C697 C694 1.348 . S
C697 C699 1.353 . S
C697 H753 0.929 . S
C698 C694 1.356 . S
C698 C695 1.358 . S
C698 H754 0.930 . S
C699 N696 1.314 . S
C699 C697 1.353 . S
C699 H755 0.930 . S
C700 N701 1.314 . S
C700 C705 1.353 . S
C700 H706 0.930 . S
N701 Li684 1.990 . S
N701 C700 1.314 . S
N701 C703 1.279 . S
C702 C703 1.358 . S
C702 C704 1.356 . S
C702 H756 0.930 . S
C703 N701 1.279 . S
C703 C702 1.358 . S
C703 H707 0.930 . S
C704 C702 1.356 . S
C704 C705 1.348 . S
C705 C700 1.353 . S
C705 C704 1.348 . S
C705 H757 0.929 . S
H706 C700 0.930 . S
H707 C703 0.930 . S
C708 N709 1.314 . S
C708 C710 1.353 . S
C708 H714 0.930 . S
N709 Li685 1.990 . S
N709 C708 1.314 . S
N709 C712 1.279 . S
C710 C708 1.353 . S
C710 C713 1.348 . S
C710 H758 0.929 . S
C711 C712 1.358 . S
C711 C713 1.356 . S
C711 H759 0.930 . S
C712 N709 1.279 . S
C712 C711 1.358 . S
C712 H715 0.930 . S
C713 C710 1.348 . S
C713 C711 1.356 . S
H714 C708 0.930 . S
H715 C712 0.930 . S
C716 C718 1.348 . S
C716 C719 1.356 . S
C716 O746 1.325 . S
N717 C720 1.314 . S
N717 C721 1.279 . S
C718 C716 1.348 . S
C718 C720 1.353 . S
C718 H760 0.929 . S
C719 C716 1.356 . S
C719 C721 1.358 . S
C719 H761 0.930 . S
C720 N717 1.314 . S
C720 C718 1.353 . S
C720 H762 0.930 . S
C721 N717 1.279 . S
C721 C719 1.358 . S
C721 H763 0.930 . S
C722 C723 1.348 . S
C722 C724 1.356 . S
C722 O747 1.325 . S
C723 C722 1.348 . S
C723 C725 1.353 . S
C723 H764 0.929 . S
C724 C722 1.356 . S
C724 C726 1.358 . S
C724 H765 0.930 . S
C725 C723 1.353 . S
C725 N727 1.314 . S
C725 H766 0.930 . S
C726 C724 1.358 . S
C726 N727 1.279 . S
C726 H767 0.930 . S
N727 C725 1.314 . S
N727 C726 1.279 . S
C728 C730 1.353 . S
C728 N731 1.314 . S
C728 H734 0.930 . S
C729 N731 1.279 . S
C729 C732 1.358 . S
C729 H735 0.930 . S
C730 C728 1.353 . S
C730 C733 1.348 . S
C730 H768 0.929 . S
N731 Li686 1.990 . S
N731 C728 1.314 . S
N731 C729 1.279 . S
C732 C729 1.358 . S
C732 C733 1.356 . S
C732 H769 0.930 . S
C733 C730 1.348 . S
C733 C732 1.356 . S
H734 C728 0.930 . S
H735 C729 0.930 . S
C736 N737 1.314 . S
C736 C738 1.353 . S
C736 H742 0.930 . S
N737 Li687 1.990 . S
N737 C736 1.314 . S
N737 C740 1.279 . S
C738 C736 1.353 . S
C738 C741 1.348 . S
C738 H770 0.929 . S
C739 C740 1.358 . S
C739 C741 1.356 . S
C739 H771 0.930 . S
C740 N737 1.279 . S
C740 C739 1.358 . S
C740 H743 0.930 . S
C741 C738 1.348 . S
C741 C739 1.356 . S
H742 C736 0.930 . S
H743 C740 0.930 . S
O744 Li684 1.956 . S
O744 Li685 1.970 . S
O744 Li686 1.961 . S
O744 C688 1.325 . S
O745 Li684 1.970 . S
O745 Li685 1.956 . S
O745 Li687 1.961 . S
O745 C694 1.325 . S
O746 Li684 1.961 . S
O746 Li686 1.956 . S
O746 Li687 1.970 . S
O746 C716 1.325 . S
O747 Li685 1.961 . S
O747 Li686 1.970 . S
O747 Li687 1.956 . S
O747 C722 1.325 . S
H748 C690 0.929 . S
H749 C691 0.930 . S
H750 C692 0.930 . S
H751 C693 0.930 . S
H752 C695 0.930 . S
H753 C697 0.929 . S
H754 C698 0.930 . S
H755 C699 0.930 . S
H756 C702 0.930 . S
H757 C705 0.929 . S
H758 C710 0.929 . S
H759 C711 0.930 . S
H760 C718 0.929 . S
H761 C719 0.930 . S
H762 C720 0.930 . S
H763 C721 0.930 . S
H764 C723 0.929 . S
H765 C724 0.930 . S
H766 C725 0.930 . S
H767 C726 0.930 . S
H768 C730 0.929 . S
H769 C732 0.930 . S
H770 C738 0.929 . S
H771 C739 0.930 . S
Li772 N789 1.990 . S
Li772 O832 1.956 . S
Li772 O833 1.970 . S
Li772 O834 1.961 . S
Li773 N797 1.990 . S
Li773 O832 1.970 . S
Li773 O833 1.956 . S
Li773 O835 1.961 . S
Li774 N819 1.990 . S
Li774 O832 1.961 . S
Li774 O834 1.956 . S
Li774 O835 1.970 . S
Li775 N825 1.990 . S
Li775 O833 1.961 . S
Li775 O834 1.970 . S
Li775 O835 1.956 . S
C776 C778 1.348 . S
C776 C779 1.356 . S
C776 O832 1.325 . S
N777 C780 1.314 . S
N777 C781 1.279 . S
C778 C776 1.348 . S
C778 C780 1.353 . S
C778 H836 0.929 . S
C779 C776 1.356 . S
C779 C781 1.358 . S
C779 H837 0.930 . S
C780 N777 1.314 . S
C780 C778 1.353 . S
C780 H838 0.930 . S
C781 N777 1.279 . S
C781 C779 1.358 . S
C781 H839 0.930 . S
C782 C785 1.348 . S
C782 C786 1.356 . S
C782 O833 1.325 . S
C783 N784 1.279 . S
C783 C786 1.358 . S
C783 H840 0.930 . S
N784 C783 1.279 . S
N784 C787 1.314 . S
C785 C782 1.348 . S
C785 C787 1.353 . S
C785 H841 0.929 . S
C786 C782 1.356 . S
C786 C783 1.358 . S
C786 H842 0.930 . S
C787 N784 1.314 . S
C787 C785 1.353 . S
C787 H843 0.930 . S
C788 N789 1.314 . S
C788 C793 1.353 . S
C788 H794 0.930 . S
N789 Li772 1.990 . S
N789 C788 1.314 . S
N789 C791 1.279 . S
C790 C791 1.358 . S
C790 C792 1.356 . S
C790 H844 0.930 . S
C791 N789 1.279 . S
C791 C790 1.358 . S
C791 H795 0.930 . S
C792 C790 1.356 . S
C792 C793 1.348 . S
C793 C788 1.353 . S
C793 C792 1.348 . S
C793 H845 0.929 . S
H794 C788 0.930 . S
H795 C791 0.930 . S
C796 N797 1.314 . S
C796 C798 1.353 . S
C796 H802 0.930 . S
N797 Li773 1.990 . S
N797 C796 1.314 . S
N797 C800 1.279 . S
C798 C796 1.353 . S
C798 C801 1.348 . S
C798 H846 0.929 . S
C799 C800 1.358 . S
C799 C801 1.356 . S
C799 H847 0.930 . S
C800 N797 1.279 . S
C800 C799 1.358 . S
C800 H803 0.930 . S
C801 C798 1.348 . S
C801 C799 1.356 . S
H802 C796 0.930 . S
H803 C800 0.930 . S
C804 C806 1.348 . S
C804 C807 1.356 . S
C804 O834 1.325 . S
N805 C808 1.314 . S
N805 C809 1.279 . S
C806 C804 1.348 . S
C806 C808 1.353 . S
C806 H848 0.929 . S
C807 C804 1.356 . S
C807 C809 1.358 . S
C807 H849 0.930 . S
C808 N805 1.314 . S
C808 C806 1.353 . S
C808 H850 0.930 . S
C809 N805 1.279 . S
C809 C807 1.358 . S
C809 H851 0.930 . S
C810 C811 1.348 . S
C810 C812 1.356 . S
C810 O835 1.325 . S
C811 C810 1.348 . S
C811 C813 1.353 . S
C811 H852 0.929 . S
C812 C810 1.356 . S
C812 C814 1.358 . S
C812 H853 0.930 . S
C813 C811 1.353 . S
C813 N815 1.314 . S
C813 H854 0.930 . S
C814 C812 1.358 . S
C814 N815 1.279 . S
C814 H855 0.930 . S
N815 C813 1.314 . S
N815 C814 1.279 . S
C816 C818 1.353 . S
C816 N819 1.314 . S
C816 H822 0.930 . S
C817 N819 1.279 . S
C817 C820 1.358 . S
C817 H823 0.930 . S
C818 C816 1.353 . S
C818 C821 1.348 . S
C818 H856 0.929 . S
N819 Li774 1.990 . S
N819 C816 1.314 . S
N819 C817 1.279 . S
C820 C817 1.358 . S
C820 C821 1.356 . S
C820 H857 0.930 . S
C821 C818 1.348 . S
C821 C820 1.356 . S
H822 C816 0.930 . S
H823 C817 0.930 . S
C824 N825 1.314 . S
C824 C826 1.353 . S
C824 H830 0.930 . S
N825 Li775 1.990 . S
N825 C824 1.314 . S
N825 C828 1.279 . S
C826 C824 1.353 . S
C826 C829 1.348 . S
C826 H858 0.929 . S
C827 C828 1.358 . S
C827 C829 1.356 . S
C827 H859 0.930 . S
C828 N825 1.279 . S
C828 C827 1.358 . S
C828 H831 0.930 . S
C829 C826 1.348 . S
C829 C827 1.356 . S
H830 C824 0.930 . S
H831 C828 0.930 . S
O832 Li772 1.956 . S
O832 Li773 1.970 . S
O832 Li774 1.961 . S
O832 C776 1.325 . S
O833 Li772 1.970 . S
O833 Li773 1.956 . S
O833 Li775 1.961 . S
O833 C782 1.325 . S
O834 Li772 1.961 . S
O834 Li774 1.956 . S
O834 Li775 1.970 . S
O834 C804 1.325 . S
O835 Li773 1.961 . S
O835 Li774 1.970 . S
O835 Li775 1.956 . S
O835 C810 1.325 . S
H836 C778 0.929 . S
H837 C779 0.930 . S
H838 C780 0.930 . S
H839 C781 0.930 . S
H840 C783 0.930 . S
H841 C785 0.929 . S
H842 C786 0.930 . S
H843 C787 0.930 . S
H844 C790 0.930 . S
H845 C793 0.929 . S
H846 C798 0.929 . S
H847 C799 0.930 . S
H848 C806 0.929 . S
H849 C807 0.930 . S
H850 C808 0.930 . S
H851 C809 0.930 . S
H852 C811 0.929 . S
H853 C812 0.930 . S
H854 C813 0.930 . S
H855 C814 0.930 . S
H856 C818 0.929 . S
H857 C820 0.930 . S
H858 C826 0.929 . S
H859 C827 0.930 . S
Li860 N877 1.990 . S
Li860 O920 1.956 . S
Li860 O921 1.970 . S
Li860 O922 1.961 . S
Li861 N885 1.990 . S
Li861 O920 1.970 . S
Li861 O921 1.956 . S
Li861 O923 1.961 . S
Li862 N907 1.990 . S
Li862 O920 1.961 . S
Li862 O922 1.956 . S
Li862 O923 1.970 . S
Li863 N913 1.990 . S
Li863 O921 1.961 . S
Li863 O922 1.970 . S
Li863 O923 1.956 . S
C864 C866 1.348 . S
C864 C867 1.356 . S
C864 O920 1.325 . S
N865 C868 1.314 . S
N865 C869 1.279 . S
C866 C864 1.348 . S
C866 C868 1.353 . S
C866 H924 0.929 . S
C867 C864 1.356 . S
C867 C869 1.358 . S
C867 H925 0.930 . S
C868 N865 1.314 . S
C868 C866 1.353 . S
C868 H926 0.930 . S
C869 N865 1.279 . S
C869 C867 1.358 . S
C869 H927 0.930 . S
C870 C873 1.348 . S
C870 C874 1.356 . S
C870 O921 1.325 . S
C871 N872 1.279 . S
C871 C874 1.358 . S
C871 H928 0.930 . S
N872 C871 1.279 . S
N872 C875 1.314 . S
C873 C870 1.348 . S
C873 C875 1.353 . S
C873 H929 0.929 . S
C874 C870 1.356 . S
C874 C871 1.358 . S
C874 H930 0.930 . S
C875 N872 1.314 . S
C875 C873 1.353 . S
C875 H931 0.930 . S
C876 N877 1.314 . S
C876 C881 1.353 . S
C876 H882 0.930 . S
N877 Li860 1.990 . S
N877 C876 1.314 . S
N877 C879 1.279 . S
C878 C879 1.358 . S
C878 C880 1.356 . S
C878 H932 0.930 . S
C879 N877 1.279 . S
C879 C878 1.358 . S
C879 H883 0.930 . S
C880 C878 1.356 . S
C880 C881 1.348 . S
C881 C876 1.353 . S
C881 C880 1.348 . S
C881 H933 0.929 . S
H882 C876 0.930 . S
H883 C879 0.930 . S
C884 N885 1.314 . S
C884 C886 1.353 . S
C884 H890 0.930 . S
N885 Li861 1.990 . S
N885 C884 1.314 . S
N885 C888 1.279 . S
C886 C884 1.353 . S
C886 C889 1.348 . S
C886 H934 0.929 . S
C887 C888 1.358 . S
C887 C889 1.356 . S
C887 H935 0.930 . S
C888 N885 1.279 . S
C888 C887 1.358 . S
C888 H891 0.930 . S
C889 C886 1.348 . S
C889 C887 1.356 . S
H890 C884 0.930 . S
H891 C888 0.930 . S
C892 C894 1.348 . S
C892 C895 1.356 . S
C892 O922 1.325 . S
N893 C896 1.314 . S
N893 C897 1.279 . S
C894 C892 1.348 . S
C894 C896 1.353 . S
C894 H936 0.929 . S
C895 C892 1.356 . S
C895 C897 1.358 . S
C895 H937 0.930 . S
C896 N893 1.314 . S
C896 C894 1.353 . S
C896 H938 0.930 . S
C897 N893 1.279 . S
C897 C895 1.358 . S
C897 H939 0.930 . S
C898 C899 1.348 . S
C898 C900 1.356 . S
C898 O923 1.325 . S
C899 C898 1.348 . S
C899 C901 1.353 . S
C899 H940 0.929 . S
C900 C898 1.356 . S
C900 C902 1.358 . S
C900 H941 0.930 . S
C901 C899 1.353 . S
C901 N903 1.314 . S
C901 H942 0.930 . S
C902 C900 1.358 . S
C902 N903 1.279 . S
C902 H943 0.930 . S
N903 C901 1.314 . S
N903 C902 1.279 . S
C904 C906 1.353 . S
C904 N907 1.314 . S
C904 H910 0.930 . S
C905 N907 1.279 . S
C905 C908 1.358 . S
C905 H911 0.930 . S
C906 C904 1.353 . S
C906 C909 1.348 . S
C906 H944 0.929 . S
N907 Li862 1.990 . S
N907 C904 1.314 . S
N907 C905 1.279 . S
C908 C905 1.358 . S
C908 C909 1.356 . S
C908 H945 0.930 . S
C909 C906 1.348 . S
C909 C908 1.356 . S
H910 C904 0.930 . S
H911 C905 0.930 . S
C912 N913 1.314 . S
C912 C914 1.353 . S
C912 H918 0.930 . S
N913 Li863 1.990 . S
N913 C912 1.314 . S
N913 C916 1.279 . S
C914 C912 1.353 . S
C914 C917 1.348 . S
C914 H946 0.929 . S
C915 C916 1.358 . S
C915 C917 1.356 . S
C915 H947 0.930 . S
C916 N913 1.279 . S
C916 C915 1.358 . S
C916 H919 0.930 . S
C917 C914 1.348 . S
C917 C915 1.356 . S
H918 C912 0.930 . S
H919 C916 0.930 . S
O920 Li860 1.956 . S
O920 Li861 1.970 . S
O920 Li862 1.961 . S
O920 C864 1.325 . S
O921 Li860 1.970 . S
O921 Li861 1.956 . S
O921 Li863 1.961 . S
O921 C870 1.325 . S
O922 Li860 1.961 . S
O922 Li862 1.956 . S
O922 Li863 1.970 . S
O922 C892 1.325 . S
O923 Li861 1.961 . S
O923 Li862 1.970 . S
O923 Li863 1.956 . S
O923 C898 1.325 . S
H924 C866 0.929 . S
H925 C867 0.930 . S
H926 C868 0.930 . S
H927 C869 0.930 . S
H928 C871 0.930 . S
H929 C873 0.929 . S
H930 C874 0.930 . S
H931 C875 0.930 . S
H932 C878 0.930 . S
H933 C881 0.929 . S
H934 C886 0.929 . S
H935 C887 0.930 . S
H936 C894 0.929 . S
H937 C895 0.930 . S
H938 C896 0.930 . S
H939 C897 0.930 . S
H940 C899 0.929 . S
H941 C900 0.930 . S
H942 C901 0.930 . S
H943 C902 0.930 . S
H944 C906 0.929 . S
H945 C908 0.930 . S
H946 C914 0.929 . S
H947 C915 0.930 . S
Li948 N965 1.990 . S
Li948 O1008 1.956 . S
Li948 O1009 1.970 . S
Li948 O1010 1.961 . S
Li949 N973 1.990 . S
Li949 O1008 1.970 . S
Li949 O1009 1.956 . S
Li949 O1011 1.961 . S
Li950 N995 1.990 . S
Li950 O1008 1.961 . S
Li950 O1010 1.956 . S
Li950 O1011 1.970 . S
Li951 N1001 1.990 . S
Li951 O1009 1.961 . S
Li951 O1010 1.970 . S
Li951 O1011 1.956 . S
C952 C954 1.348 . S
C952 C955 1.356 . S
C952 O1008 1.325 . S
N953 C956 1.314 . S
N953 C957 1.279 . S
C954 C952 1.348 . S
C954 C956 1.353 . S
C954 H1012 0.929 . S
C955 C952 1.356 . S
C955 C957 1.358 . S
C955 H1013 0.930 . S
C956 N953 1.314 . S
C956 C954 1.353 . S
C956 H1014 0.930 . S
C957 N953 1.279 . S
C957 C955 1.358 . S
C957 H1015 0.930 . S
C958 C961 1.348 . S
C958 C962 1.356 . S
C958 O1009 1.325 . S
C959 N960 1.279 . S
C959 C962 1.358 . S
C959 H1016 0.930 . S
N960 C959 1.279 . S
N960 C963 1.314 . S
C961 C958 1.348 . S
C961 C963 1.353 . S
C961 H1017 0.929 . S
C962 C958 1.356 . S
C962 C959 1.358 . S
C962 H1018 0.930 . S
C963 N960 1.314 . S
C963 C961 1.353 . S
C963 H1019 0.930 . S
C964 N965 1.314 . S
C964 C969 1.353 . S
C964 H970 0.930 . S
N965 Li948 1.990 . S
N965 C964 1.314 . S
N965 C967 1.279 . S
C966 C967 1.358 . S
C966 C968 1.356 . S
C966 H1020 0.930 . S
C967 N965 1.279 . S
C967 C966 1.358 . S
C967 H971 0.930 . S
C968 C966 1.356 . S
C968 C969 1.348 . S
C969 C964 1.353 . S
C969 C968 1.348 . S
C969 H1021 0.929 . S
H970 C964 0.930 . S
H971 C967 0.930 . S
C972 N973 1.314 . S
C972 C974 1.353 . S
C972 H978 0.930 . S
N973 Li949 1.990 . S
N973 C972 1.314 . S
N973 C976 1.279 . S
C974 C972 1.353 . S
C974 C977 1.348 . S
C974 H1022 0.929 . S
C975 C976 1.358 . S
C975 C977 1.356 . S
C975 H1023 0.930 . S
C976 N973 1.279 . S
C976 C975 1.358 . S
C976 H979 0.930 . S
C977 C974 1.348 . S
C977 C975 1.356 . S
H978 C972 0.930 . S
H979 C976 0.930 . S
C980 C982 1.348 . S
C980 C983 1.356 . S
C980 O1010 1.325 . S
N981 C984 1.314 . S
N981 C985 1.279 . S
C982 C980 1.348 . S
C982 C984 1.353 . S
C982 H1024 0.929 . S
C983 C980 1.356 . S
C983 C985 1.358 . S
C983 H1025 0.930 . S
C984 N981 1.314 . S
C984 C982 1.353 . S
C984 H1026 0.930 . S
C985 N981 1.279 . S
C985 C983 1.358 . S
C985 H1027 0.930 . S
C986 C987 1.348 . S
C986 C988 1.356 . S
C986 O1011 1.325 . S
C987 C986 1.348 . S
C987 C989 1.353 . S
C987 H1028 0.929 . S
C988 C986 1.356 . S
C988 C990 1.358 . S
C988 H1029 0.930 . S
C989 C987 1.353 . S
C989 N991 1.314 . S
C989 H1030 0.930 . S
C990 C988 1.358 . S
C990 N991 1.279 . S
C990 H1031 0.930 . S
N991 C989 1.314 . S
N991 C990 1.279 . S
C992 C994 1.353 . S
C992 N995 1.314 . S
C992 H998 0.930 . S
C993 N995 1.279 . S
C993 C996 1.358 . S
C993 H999 0.930 . S
C994 C992 1.353 . S
C994 C997 1.348 . S
C994 H1032 0.929 . S
N995 Li950 1.990 . S
N995 C992 1.314 . S
N995 C993 1.279 . S
C996 C993 1.358 . S
C996 C997 1.356 . S
C996 H1033 0.930 . S
C997 C994 1.348 . S
C997 C996 1.356 . S
H998 C992 0.930 . S
H999 C993 0.930 . S
C1000 N1001 1.314 . S
C1000 C1002 1.353 . S
C1000 H1006 0.930 . S
N1001 Li951 1.990 . S
N1001 C1000 1.314 . S
N1001 C1004 1.279 . S
C1002 C1000 1.353 . S
C1002 C1005 1.348 . S
C1002 H1034 0.929 . S
C1003 C1004 1.358 . S
C1003 C1005 1.356 . S
C1003 H1035 0.930 . S
C1004 N1001 1.279 . S
C1004 C1003 1.358 . S
C1004 H1007 0.930 . S
C1005 C1002 1.348 . S
C1005 C1003 1.356 . S
H1006 C1000 0.930 . S
H1007 C1004 0.930 . S
O1008 Li948 1.956 . S
O1008 Li949 1.970 . S
O1008 Li950 1.961 . S
O1008 C952 1.325 . S
O1009 Li948 1.970 . S
O1009 Li949 1.956 . S
O1009 Li951 1.961 . S
O1009 C958 1.325 . S
O1010 Li948 1.961 . S
O1010 Li950 1.956 . S
O1010 Li951 1.970 . S
O1010 C980 1.325 . S
O1011 Li949 1.961 . S
O1011 Li950 1.970 . S
O1011 Li951 1.956 . S
O1011 C986 1.325 . S
H1012 C954 0.929 . S
H1013 C955 0.930 . S
H1014 C956 0.930 . S
H1015 C957 0.930 . S
H1016 C959 0.930 . S
H1017 C961 0.929 . S
H1018 C962 0.930 . S
H1019 C963 0.930 . S
H1020 C966 0.930 . S
H1021 C969 0.929 . S
H1022 C974 0.929 . S
H1023 C975 0.930 . S
H1024 C982 0.929 . S
H1025 C983 0.930 . S
H1026 C984 0.930 . S
H1027 C985 0.930 . S
H1028 C987 0.929 . S
H1029 C988 0.930 . S
H1030 C989 0.930 . S
H1031 C990 0.930 . S
H1032 C994 0.929 . S
H1033 C996 0.930 . S
H1034 C1002 0.929 . S
H1035 C1003 0.930 . S
Li1036 N1053 1.990 . S
Li1036 O1096 1.956 . S
Li1036 O1097 1.970 . S
Li1036 O1098 1.961 . S
Li1037 N1061 1.990 . S
Li1037 O1096 1.970 . S
Li1037 O1097 1.956 . S
Li1037 O1099 1.961 . S
Li1038 N1083 1.990 . S
Li1038 O1096 1.961 . S
Li1038 O1098 1.956 . S
Li1038 O1099 1.970 . S
Li1039 N1089 1.990 . S
Li1039 O1097 1.961 . S
Li1039 O1098 1.970 . S
Li1039 O1099 1.956 . S
C1040 C1042 1.348 . S
C1040 C1043 1.356 . S
C1040 O1096 1.325 . S
N1041 C1044 1.314 . S
N1041 C1045 1.279 . S
C1042 C1040 1.348 . S
C1042 C1044 1.353 . S
C1042 H1100 0.929 . S
C1043 C1040 1.356 . S
C1043 C1045 1.358 . S
C1043 H1101 0.930 . S
C1044 N1041 1.314 . S
C1044 C1042 1.353 . S
C1044 H1102 0.930 . S
C1045 N1041 1.279 . S
C1045 C1043 1.358 . S
C1045 H1103 0.930 . S
C1046 C1049 1.348 . S
C1046 C1050 1.356 . S
C1046 O1097 1.325 . S
C1047 N1048 1.279 . S
C1047 C1050 1.358 . S
C1047 H1104 0.930 . S
N1048 C1047 1.279 . S
N1048 C1051 1.314 . S
C1049 C1046 1.348 . S
C1049 C1051 1.353 . S
C1049 H1105 0.929 . S
C1050 C1046 1.356 . S
C1050 C1047 1.358 . S
C1050 H1106 0.930 . S
C1051 N1048 1.314 . S
C1051 C1049 1.353 . S
C1051 H1107 0.930 . S
C1052 N1053 1.314 . S
C1052 C1057 1.353 . S
C1052 H1058 0.930 . S
N1053 Li1036 1.990 . S
N1053 C1052 1.314 . S
N1053 C1055 1.279 . S
C1054 C1055 1.358 . S
C1054 C1056 1.356 . S
C1054 H1108 0.930 . S
C1055 N1053 1.279 . S
C1055 C1054 1.358 . S
C1055 H1059 0.930 . S
C1056 C1054 1.356 . S
C1056 C1057 1.348 . S
C1057 C1052 1.353 . S
C1057 C1056 1.348 . S
C1057 H1109 0.929 . S
H1058 C1052 0.930 . S
H1059 C1055 0.930 . S
C1060 N1061 1.314 . S
C1060 C1062 1.353 . S
C1060 H1066 0.930 . S
N1061 Li1037 1.990 . S
N1061 C1060 1.314 . S
N1061 C1064 1.279 . S
C1062 C1060 1.353 . S
C1062 C1065 1.348 . S
C1062 H1110 0.929 . S
C1063 C1064 1.358 . S
C1063 C1065 1.356 . S
C1063 H1111 0.930 . S
C1064 N1061 1.279 . S
C1064 C1063 1.358 . S
C1064 H1067 0.930 . S
C1065 C1062 1.348 . S
C1065 C1063 1.356 . S
H1066 C1060 0.930 . S
H1067 C1064 0.930 . S
C1068 C1070 1.348 . S
C1068 C1071 1.356 . S
C1068 O1098 1.325 . S
N1069 C1072 1.314 . S
N1069 C1073 1.279 . S
C1070 C1068 1.348 . S
C1070 C1072 1.353 . S
C1070 H1112 0.929 . S
C1071 C1068 1.356 . S
C1071 C1073 1.358 . S
C1071 H1113 0.930 . S
C1072 N1069 1.314 . S
C1072 C1070 1.353 . S
C1072 H1114 0.930 . S
C1073 N1069 1.279 . S
C1073 C1071 1.358 . S
C1073 H1115 0.930 . S
C1074 C1075 1.348 . S
C1074 C1076 1.356 . S
C1074 O1099 1.325 . S
C1075 C1074 1.348 . S
C1075 C1077 1.353 . S
C1075 H1116 0.929 . S
C1076 C1074 1.356 . S
C1076 C1078 1.358 . S
C1076 H1117 0.930 . S
C1077 C1075 1.353 . S
C1077 N1079 1.314 . S
C1077 H1118 0.930 . S
C1078 C1076 1.358 . S
C1078 N1079 1.279 . S
C1078 H1119 0.930 . S
N1079 C1077 1.314 . S
N1079 C1078 1.279 . S
C1080 C1082 1.353 . S
C1080 N1083 1.314 . S
C1080 H1086 0.930 . S
C1081 N1083 1.279 . S
C1081 C1084 1.358 . S
C1081 H1087 0.930 . S
C1082 C1080 1.353 . S
C1082 C1085 1.348 . S
C1082 H1120 0.929 . S
N1083 Li1038 1.990 . S
N1083 C1080 1.314 . S
N1083 C1081 1.279 . S
C1084 C1081 1.358 . S
C1084 C1085 1.356 . S
C1084 H1121 0.930 . S
C1085 C1082 1.348 . S
C1085 C1084 1.356 . S
H1086 C1080 0.930 . S
H1087 C1081 0.930 . S
C1088 N1089 1.314 . S
C1088 C1090 1.353 . S
C1088 H1094 0.930 . S
N1089 Li1039 1.990 . S
N1089 C1088 1.314 . S
N1089 C1092 1.279 . S
C1090 C1088 1.353 . S
C1090 C1093 1.348 . S
C1090 H1122 0.929 . S
C1091 C1092 1.358 . S
C1091 C1093 1.356 . S
C1091 H1123 0.930 . S
C1092 N1089 1.279 . S
C1092 C1091 1.358 . S
C1092 H1095 0.930 . S
C1093 C1090 1.348 . S
C1093 C1091 1.356 . S
H1094 C1088 0.930 . S
H1095 C1092 0.930 . S
O1096 Li1036 1.956 . S
O1096 Li1037 1.970 . S
O1096 Li1038 1.961 . S
O1096 C1040 1.325 . S
O1097 Li1036 1.970 . S
O1097 Li1037 1.956 . S
O1097 Li1039 1.961 . S
O1097 C1046 1.325 . S
O1098 Li1036 1.961 . S
O1098 Li1038 1.956 . S
O1098 Li1039 1.970 . S
O1098 C1068 1.325 . S
O1099 Li1037 1.961 . S
O1099 Li1038 1.970 . S
O1099 Li1039 1.956 . S
O1099 C1074 1.325 . S
H1100 C1042 0.929 . S
H1101 C1043 0.930 . S
H1102 C1044 0.930 . S
H1103 C1045 0.930 . S
H1104 C1047 0.930 . S
H1105 C1049 0.929 . S
H1106 C1050 0.930 . S
H1107 C1051 0.930 . S
H1108 C1054 0.930 . S
H1109 C1057 0.929 . S
H1110 C1062 0.929 . S
H1111 C1063 0.930 . S
H1112 C1070 0.929 . S
H1113 C1071 0.930 . S
H1114 C1072 0.930 . S
H1115 C1073 0.930 . S
H1116 C1075 0.929 . S
H1117 C1076 0.930 . S
H1118 C1077 0.930 . S
H1119 C1078 0.930 . S
H1120 C1082 0.929 . S
H1121 C1084 0.930 . S
H1122 C1090 0.929 . S
H1123 C1091 0.930 . S
Li1124 N1141 1.990 . S
Li1124 O1184 1.956 . S
Li1124 O1185 1.970 . S
Li1124 O1186 1.961 . S
Li1125 N1149 1.990 . S
Li1125 O1184 1.970 . S
Li1125 O1185 1.956 . S
Li1125 O1187 1.961 . S
Li1126 N1171 1.990 . S
Li1126 O1184 1.961 . S
Li1126 O1186 1.956 . S
Li1126 O1187 1.970 . S
Li1127 N1177 1.990 . S
Li1127 O1185 1.961 . S
Li1127 O1186 1.970 . S
Li1127 O1187 1.956 . S
C1128 C1130 1.348 . S
C1128 C1131 1.356 . S
C1128 O1184 1.325 . S
N1129 C1132 1.314 . S
N1129 C1133 1.279 . S
C1130 C1128 1.348 . S
C1130 C1132 1.353 . S
C1130 H1188 0.929 . S
C1131 C1128 1.356 . S
C1131 C1133 1.358 . S
C1131 H1189 0.930 . S
C1132 N1129 1.314 . S
C1132 C1130 1.353 . S
C1132 H1190 0.930 . S
C1133 N1129 1.279 . S
C1133 C1131 1.358 . S
C1133 H1191 0.930 . S
C1134 C1137 1.348 . S
C1134 C1138 1.356 . S
C1134 O1185 1.325 . S
C1135 N1136 1.279 . S
C1135 C1138 1.358 . S
C1135 H1192 0.930 . S
N1136 C1135 1.279 . S
N1136 C1139 1.314 . S
C1137 C1134 1.348 . S
C1137 C1139 1.353 . S
C1137 H1193 0.929 . S
C1138 C1134 1.356 . S
C1138 C1135 1.358 . S
C1138 H1194 0.930 . S
C1139 N1136 1.314 . S
C1139 C1137 1.353 . S
C1139 H1195 0.930 . S
C1140 N1141 1.314 . S
C1140 C1145 1.353 . S
C1140 H1146 0.930 . S
N1141 Li1124 1.990 . S
N1141 C1140 1.314 . S
N1141 C1143 1.279 . S
C1142 C1143 1.358 . S
C1142 C1144 1.356 . S
C1142 H1196 0.930 . S
C1143 N1141 1.279 . S
C1143 C1142 1.358 . S
C1143 H1147 0.930 . S
C1144 C1142 1.356 . S
C1144 C1145 1.348 . S
C1145 C1140 1.353 . S
C1145 C1144 1.348 . S
C1145 H1197 0.929 . S
H1146 C1140 0.930 . S
H1147 C1143 0.930 . S
C1148 N1149 1.314 . S
C1148 C1150 1.353 . S
C1148 H1154 0.930 . S
N1149 Li1125 1.990 . S
N1149 C1148 1.314 . S
N1149 C1152 1.279 . S
C1150 C1148 1.353 . S
C1150 C1153 1.348 . S
C1150 H1198 0.929 . S
C1151 C1152 1.358 . S
C1151 C1153 1.356 . S
C1151 H1199 0.930 . S
C1152 N1149 1.279 . S
C1152 C1151 1.358 . S
C1152 H1155 0.930 . S
C1153 C1150 1.348 . S
C1153 C1151 1.356 . S
H1154 C1148 0.930 . S
H1155 C1152 0.930 . S
C1156 C1158 1.348 . S
C1156 C1159 1.356 . S
C1156 O1186 1.325 . S
N1157 C1160 1.314 . S
N1157 C1161 1.279 . S
C1158 C1156 1.348 . S
C1158 C1160 1.353 . S
C1158 H1200 0.929 . S
C1159 C1156 1.356 . S
C1159 C1161 1.358 . S
C1159 H1201 0.930 . S
C1160 N1157 1.314 . S
C1160 C1158 1.353 . S
C1160 H1202 0.930 . S
C1161 N1157 1.279 . S
C1161 C1159 1.358 . S
C1161 H1203 0.930 . S
C1162 C1163 1.348 . S
C1162 C1164 1.356 . S
C1162 O1187 1.325 . S
C1163 C1162 1.348 . S
C1163 C1165 1.353 . S
C1163 H1204 0.929 . S
C1164 C1162 1.356 . S
C1164 C1166 1.358 . S
C1164 H1205 0.930 . S
C1165 C1163 1.353 . S
C1165 N1167 1.314 . S
C1165 H1206 0.930 . S
C1166 C1164 1.358 . S
C1166 N1167 1.279 . S
C1166 H1207 0.930 . S
N1167 C1165 1.314 . S
N1167 C1166 1.279 . S
C1168 C1170 1.353 . S
C1168 N1171 1.314 . S
C1168 H1174 0.930 . S
C1169 N1171 1.279 . S
C1169 C1172 1.358 . S
C1169 H1175 0.930 . S
C1170 C1168 1.353 . S
C1170 C1173 1.348 . S
C1170 H1208 0.929 . S
N1171 Li1126 1.990 . S
N1171 C1168 1.314 . S
N1171 C1169 1.279 . S
C1172 C1169 1.358 . S
C1172 C1173 1.356 . S
C1172 H1209 0.930 . S
C1173 C1170 1.348 . S
C1173 C1172 1.356 . S
H1174 C1168 0.930 . S
H1175 C1169 0.930 . S
C1176 N1177 1.314 . S
C1176 C1178 1.353 . S
C1176 H1182 0.930 . S
N1177 Li1127 1.990 . S
N1177 C1176 1.314 . S
N1177 C1180 1.279 . S
C1178 C1176 1.353 . S
C1178 C1181 1.348 . S
C1178 H1210 0.929 . S
C1179 C1180 1.358 . S
C1179 C1181 1.356 . S
C1179 H1211 0.930 . S
C1180 N1177 1.279 . S
C1180 C1179 1.358 . S
C1180 H1183 0.930 . S
C1181 C1178 1.348 . S
C1181 C1179 1.356 . S
H1182 C1176 0.930 . S
H1183 C1180 0.930 . S
O1184 Li1124 1.956 . S
O1184 Li1125 1.970 . S
O1184 Li1126 1.961 . S
O1184 C1128 1.325 . S
O1185 Li1124 1.970 . S
O1185 Li1125 1.956 . S
O1185 Li1127 1.961 . S
O1185 C1134 1.325 . S
O1186 Li1124 1.961 . S
O1186 Li1126 1.956 . S
O1186 Li1127 1.970 . S
O1186 C1156 1.325 . S
O1187 Li1125 1.961 . S
O1187 Li1126 1.970 . S
O1187 Li1127 1.956 . S
O1187 C1162 1.325 . S
H1188 C1130 0.929 . S
H1189 C1131 0.930 . S
H1190 C1132 0.930 . S
H1191 C1133 0.930 . S
H1192 C1135 0.930 . S
H1193 C1137 0.929 . S
H1194 C1138 0.930 . S
H1195 C1139 0.930 . S
H1196 C1142 0.930 . S
H1197 C1145 0.929 . S
H1198 C1150 0.929 . S
H1199 C1151 0.930 . S
H1200 C1158 0.929 . S
H1201 C1159 0.930 . S
H1202 C1160 0.930 . S
H1203 C1161 0.930 . S
H1204 C1163 0.929 . S
H1205 C1164 0.930 . S
H1206 C1165 0.930 . S
H1207 C1166 0.930 . S
H1208 C1170 0.929 . S
H1209 C1172 0.930 . S
H1210 C1178 0.929 . S
H1211 C1179 0.930 . S
H1212 C1224 0.930 . S
H1213 C1226 0.930 . S
H1214 C1227 0.930 . S
H1215 C1231 0.959 . S
H1216 C1231 0.959 . S
H1217 C1231 0.961 . S
H1218 C1232 0.960 . S
H1219 C1232 0.961 . S
H1220 C1232 0.959 . S
H1221 C1235 0.929 . S
H1222 C1236 0.931 . S
H1223 C1238 0.930 . S
C1224 H1212 0.930 . S
C1224 C1225 1.399 . S
C1224 C1229 1.399 . S
C1225 C1224 1.399 . S
C1225 C1226 1.376 . S
C1226 H1213 0.930 . S
C1226 C1225 1.376 . S
C1226 C1227 1.388 . S
C1227 H1214 0.930 . S
C1227 C1226 1.388 . S
C1227 C1228 1.390 . S
C1228 C1227 1.390 . S
C1228 C1229 1.394 . S
C1228 C1234 1.465 . S
C1229 C1224 1.399 . S
C1229 C1228 1.394 . S
C1229 C1230 1.516 . S
C1230 C1229 1.516 . S
C1230 C1231 1.502 . S
C1230 C1232 1.561 . S
C1230 C1233 1.526 . S
C1231 H1215 0.959 . S
C1231 H1216 0.959 . S
C1231 H1217 0.961 . S
C1231 C1230 1.502 . S
C1232 H1218 0.960 . S
C1232 H1219 0.961 . S
C1232 H1220 0.959 . S
C1232 C1230 1.561 . S
C1233 C1230 1.526 . S
C1233 C1234 1.396 . S
C1233 C1238 1.390 . S
C1234 C1228 1.465 . S
C1234 C1233 1.396 . S
C1234 C1235 1.399 . S
C1235 H1221 0.929 . S
C1235 C1234 1.399 . S
C1235 C1236 1.385 . S
C1236 H1222 0.931 . S
C1236 C1235 1.385 . S
C1236 C1237 1.389 . S
C1237 C1236 1.389 . S
C1237 C1238 1.387 . S
C1238 H1223 0.930 . S
C1238 C1233 1.390 . S
C1238 C1237 1.387 . S
H1239 C1251 0.930 . S
H1240 C1253 0.930 . S
H1241 C1254 0.930 . S
H1242 C1258 0.959 . S
H1243 C1258 0.959 . S
H1244 C1258 0.961 . S
H1245 C1259 0.960 . S
H1246 C1259 0.961 . S
H1247 C1259 0.959 . S
H1248 C1262 0.929 . S
H1249 C1263 0.931 . S
H1250 C1265 0.930 . S
C1251 H1239 0.930 . S
C1251 C1252 1.399 . S
C1251 C1256 1.399 . S
C1252 C1251 1.399 . S
C1252 C1253 1.376 . S
C1253 H1240 0.930 . S
C1253 C1252 1.376 . S
C1253 C1254 1.388 . S
C1254 H1241 0.930 . S
C1254 C1253 1.388 . S
C1254 C1255 1.390 . S
C1255 C1254 1.390 . S
C1255 C1256 1.394 . S
C1255 C1261 1.465 . S
C1256 C1251 1.399 . S
C1256 C1255 1.394 . S
C1256 C1257 1.516 . S
C1257 C1256 1.516 . S
C1257 C1258 1.502 . S
C1257 C1259 1.561 . S
C1257 C1260 1.526 . S
C1258 H1242 0.959 . S
C1258 H1243 0.959 . S
C1258 H1244 0.961 . S
C1258 C1257 1.502 . S
C1259 H1245 0.960 . S
C1259 H1246 0.961 . S
C1259 H1247 0.959 . S
C1259 C1257 1.561 . S
C1260 C1257 1.526 . S
C1260 C1261 1.396 . S
C1260 C1265 1.390 . S
C1261 C1255 1.465 . S
C1261 C1260 1.396 . S
C1261 C1262 1.399 . S
C1262 H1248 0.929 . S
C1262 C1261 1.399 . S
C1262 C1263 1.385 . S
C1263 H1249 0.931 . S
C1263 C1262 1.385 . S
C1263 C1264 1.389 . S
C1264 C1263 1.389 . S
C1264 C1265 1.387 . S
C1265 H1250 0.930 . S
C1265 C1260 1.390 . S
C1265 C1264 1.387 . S
H1266 C1278 0.930 . S
H1267 C1280 0.930 . S
H1268 C1281 0.930 . S
H1269 C1285 0.959 . S
H1270 C1285 0.959 . S
H1271 C1285 0.961 . S
H1272 C1286 0.960 . S
H1273 C1286 0.961 . S
H1274 C1286 0.959 . S
H1275 C1289 0.929 . S
H1276 C1290 0.931 . S
H1277 C1292 0.930 . S
C1278 H1266 0.930 . S
C1278 C1279 1.399 . S
C1278 C1283 1.399 . S
C1279 C1278 1.399 . S
C1279 C1280 1.376 . S
C1280 H1267 0.930 . S
C1280 C1279 1.376 . S
C1280 C1281 1.388 . S
C1281 H1268 0.930 . S
C1281 C1280 1.388 . S
C1281 C1282 1.390 . S
C1282 C1281 1.390 . S
C1282 C1283 1.394 . S
C1282 C1288 1.465 . S
C1283 C1278 1.399 . S
C1283 C1282 1.394 . S
C1283 C1284 1.516 . S
C1284 C1283 1.516 . S
C1284 C1285 1.502 . S
C1284 C1286 1.561 . S
C1284 C1287 1.526 . S
C1285 H1269 0.959 . S
C1285 H1270 0.959 . S
C1285 H1271 0.961 . S
C1285 C1284 1.502 . S
C1286 H1272 0.960 . S
C1286 H1273 0.961 . S
C1286 H1274 0.959 . S
C1286 C1284 1.561 . S
C1287 C1284 1.526 . S
C1287 C1288 1.396 . S
C1287 C1292 1.390 . S
C1288 C1282 1.465 . S
C1288 C1287 1.396 . S
C1288 C1289 1.399 . S
C1289 H1275 0.929 . S
C1289 C1288 1.399 . S
C1289 C1290 1.385 . S
C1290 H1276 0.931 . S
C1290 C1289 1.385 . S
C1290 C1291 1.389 . S
C1291 C1290 1.389 . S
C1291 C1292 1.387 . S
C1292 H1277 0.930 . S
C1292 C1287 1.390 . S
C1292 C1291 1.387 . S
H1293 C1305 0.930 . S
H1294 C1307 0.930 . S
H1295 C1308 0.930 . S
H1296 C1312 0.959 . S
H1297 C1312 0.959 . S
H1298 C1312 0.961 . S
H1299 C1313 0.960 . S
H1300 C1313 0.961 . S
H1301 C1313 0.959 . S
H1302 C1316 0.929 . S
H1303 C1317 0.931 . S
H1304 C1319 0.930 . S
C1305 H1293 0.930 . S
C1305 C1306 1.399 . S
C1305 C1310 1.399 . S
C1306 C1305 1.399 . S
C1306 C1307 1.376 . S
C1307 H1294 0.930 . S
C1307 C1306 1.376 . S
C1307 C1308 1.388 . S
C1308 H1295 0.930 . S
C1308 C1307 1.388 . S
C1308 C1309 1.390 . S
C1309 C1308 1.390 . S
C1309 C1310 1.394 . S
C1309 C1315 1.465 . S
C1310 C1305 1.399 . S
C1310 C1309 1.394 . S
C1310 C1311 1.516 . S
C1311 C1310 1.516 . S
C1311 C1312 1.502 . S
C1311 C1313 1.561 . S
C1311 C1314 1.526 . S
C1312 H1296 0.959 . S
C1312 H1297 0.959 . S
C1312 H1298 0.961 . S
C1312 C1311 1.502 . S
C1313 H1299 0.960 . S
C1313 H1300 0.961 . S
C1313 H1301 0.959 . S
C1313 C1311 1.561 . S
C1314 C1311 1.526 . S
C1314 C1315 1.396 . S
C1314 C1319 1.390 . S
C1315 C1309 1.465 . S
C1315 C1314 1.396 . S
C1315 C1316 1.399 . S
C1316 H1302 0.929 . S
C1316 C1315 1.399 . S
C1316 C1317 1.385 . S
C1317 H1303 0.931 . S
C1317 C1316 1.385 . S
C1317 C1318 1.389 . S
C1318 C1317 1.389 . S
C1318 C1319 1.387 . S
C1319 H1304 0.930 . S
C1319 C1314 1.390 . S
C1319 C1318 1.387 . S
H1320 C1332 0.930 . S
H1321 C1334 0.930 . S
H1322 C1335 0.930 . S
H1323 C1339 0.959 . S
H1324 C1339 0.959 . S
H1325 C1339 0.961 . S
H1326 C1340 0.960 . S
H1327 C1340 0.961 . S
H1328 C1340 0.959 . S
H1329 C1343 0.929 . S
H1330 C1344 0.931 . S
H1331 C1346 0.930 . S
C1332 H1320 0.930 . S
C1332 C1333 1.399 . S
C1332 C1337 1.399 . S
C1333 C1332 1.399 . S
C1333 C1334 1.376 . S
C1334 H1321 0.930 . S
C1334 C1333 1.376 . S
C1334 C1335 1.388 . S
C1335 H1322 0.930 . S
C1335 C1334 1.388 . S
C1335 C1336 1.390 . S
C1336 C1335 1.390 . S
C1336 C1337 1.394 . S
C1336 C1342 1.465 . S
C1337 C1332 1.399 . S
C1337 C1336 1.394 . S
C1337 C1338 1.516 . S
C1338 C1337 1.516 . S
C1338 C1339 1.502 . S
C1338 C1340 1.561 . S
C1338 C1341 1.526 . S
C1339 H1323 0.959 . S
C1339 H1324 0.959 . S
C1339 H1325 0.961 . S
C1339 C1338 1.502 . S
C1340 H1326 0.960 . S
C1340 H1327 0.961 . S
C1340 H1328 0.959 . S
C1340 C1338 1.561 . S
C1341 C1338 1.526 . S
C1341 C1342 1.396 . S
C1341 C1346 1.390 . S
C1342 C1336 1.465 . S
C1342 C1341 1.396 . S
C1342 C1343 1.399 . S
C1343 H1329 0.929 . S
C1343 C1342 1.399 . S
C1343 C1344 1.385 . S
C1344 H1330 0.931 . S
C1344 C1343 1.385 . S
C1344 C1345 1.389 . S
C1345 C1344 1.389 . S
C1345 C1346 1.387 . S
C1346 H1331 0.930 . S
C1346 C1341 1.390 . S
C1346 C1345 1.387 . S
H1347 C1359 0.930 . S
H1348 C1361 0.930 . S
H1349 C1362 0.930 . S
H1350 C1366 0.959 . S
H1351 C1366 0.959 . S
H1352 C1366 0.961 . S
H1353 C1367 0.960 . S
H1354 C1367 0.961 . S
H1355 C1367 0.959 . S
H1356 C1370 0.929 . S
H1357 C1371 0.931 . S
H1358 C1373 0.930 . S
C1359 H1347 0.930 . S
C1359 C1360 1.399 . S
C1359 C1364 1.399 . S
C1360 C1359 1.399 . S
C1360 C1361 1.376 . S
C1361 H1348 0.930 . S
C1361 C1360 1.376 . S
C1361 C1362 1.388 . S
C1362 H1349 0.930 . S
C1362 C1361 1.388 . S
C1362 C1363 1.390 . S
C1363 C1362 1.390 . S
C1363 C1364 1.394 . S
C1363 C1369 1.465 . S
C1364 C1359 1.399 . S
C1364 C1363 1.394 . S
C1364 C1365 1.516 . S
C1365 C1364 1.516 . S
C1365 C1366 1.502 . S
C1365 C1367 1.561 . S
C1365 C1368 1.526 . S
C1366 H1350 0.959 . S
C1366 H1351 0.959 . S
C1366 H1352 0.961 . S
C1366 C1365 1.502 . S
C1367 H1353 0.960 . S
C1367 H1354 0.961 . S
C1367 H1355 0.959 . S
C1367 C1365 1.561 . S
C1368 C1365 1.526 . S
C1368 C1369 1.396 . S
C1368 C1373 1.390 . S
C1369 C1363 1.465 . S
C1369 C1368 1.396 . S
C1369 C1370 1.399 . S
C1370 H1356 0.929 . S
C1370 C1369 1.399 . S
C1370 C1371 1.385 . S
C1371 H1357 0.931 . S
C1371 C1370 1.385 . S
C1371 C1372 1.389 . S
C1372 C1371 1.389 . S
C1372 C1373 1.387 . S
C1373 H1358 0.930 . S
C1373 C1368 1.390 . S
C1373 C1372 1.387 . S
H1374 C1386 0.930 . S
H1375 C1388 0.930 . S
H1376 C1389 0.930 . S
H1377 C1393 0.959 . S
H1378 C1393 0.959 . S
H1379 C1393 0.961 . S
H1380 C1394 0.960 . S
H1381 C1394 0.961 . S
H1382 C1394 0.959 . S
H1383 C1397 0.929 . S
H1384 C1398 0.931 . S
H1385 C1400 0.930 . S
C1386 H1374 0.930 . S
C1386 C1387 1.399 . S
C1386 C1391 1.399 . S
C1387 C1386 1.399 . S
C1387 C1388 1.376 . S
C1388 H1375 0.930 . S
C1388 C1387 1.376 . S
C1388 C1389 1.388 . S
C1389 H1376 0.930 . S
C1389 C1388 1.388 . S
C1389 C1390 1.390 . S
C1390 C1389 1.390 . S
C1390 C1391 1.394 . S
C1390 C1396 1.465 . S
C1391 C1386 1.399 . S
C1391 C1390 1.394 . S
C1391 C1392 1.516 . S
C1392 C1391 1.516 . S
C1392 C1393 1.502 . S
C1392 C1394 1.561 . S
C1392 C1395 1.526 . S
C1393 H1377 0.959 . S
C1393 H1378 0.959 . S
C1393 H1379 0.961 . S
C1393 C1392 1.502 . S
C1394 H1380 0.960 . S
C1394 H1381 0.961 . S
C1394 H1382 0.959 . S
C1394 C1392 1.561 . S
C1395 C1392 1.526 . S
C1395 C1396 1.396 . S
C1395 C1400 1.390 . S
C1396 C1390 1.465 . S
C1396 C1395 1.396 . S
C1396 C1397 1.399 . S
C1397 H1383 0.929 . S
C1397 C1396 1.399 . S
C1397 C1398 1.385 . S
C1398 H1384 0.931 . S
C1398 C1397 1.385 . S
C1398 C1399 1.389 . S
C1399 C1398 1.389 . S
C1399 C1400 1.387 . S
C1400 H1385 0.930 . S
C1400 C1395 1.390 . S
C1400 C1399 1.387 . S
H1401 C1413 0.930 . S
H1402 C1415 0.930 . S
H1403 C1416 0.930 . S
H1404 C1420 0.959 . S
H1405 C1420 0.959 . S
H1406 C1420 0.961 . S
H1407 C1421 0.960 . S
H1408 C1421 0.961 . S
H1409 C1421 0.959 . S
H1410 C1424 0.929 . S
H1411 C1425 0.931 . S
H1412 C1427 0.930 . S
C1413 H1401 0.930 . S
C1413 C1414 1.399 . S
C1413 C1418 1.399 . S
C1414 C1413 1.399 . S
C1414 C1415 1.376 . S
C1415 H1402 0.930 . S
C1415 C1414 1.376 . S
C1415 C1416 1.388 . S
C1416 H1403 0.930 . S
C1416 C1415 1.388 . S
C1416 C1417 1.390 . S
C1417 C1416 1.390 . S
C1417 C1418 1.394 . S
C1417 C1423 1.465 . S
C1418 C1413 1.399 . S
C1418 C1417 1.394 . S
C1418 C1419 1.516 . S
C1419 C1418 1.516 . S
C1419 C1420 1.502 . S
C1419 C1421 1.561 . S
C1419 C1422 1.526 . S
C1420 H1404 0.959 . S
C1420 H1405 0.959 . S
C1420 H1406 0.961 . S
C1420 C1419 1.502 . S
C1421 H1407 0.960 . S
C1421 H1408 0.961 . S
C1421 H1409 0.959 . S
C1421 C1419 1.561 . S
C1422 C1419 1.526 . S
C1422 C1423 1.396 . S
C1422 C1427 1.390 . S
C1423 C1417 1.465 . S
C1423 C1422 1.396 . S
C1423 C1424 1.399 . S
C1424 H1410 0.929 . S
C1424 C1423 1.399 . S
C1424 C1425 1.385 . S
C1425 H1411 0.931 . S
C1425 C1424 1.385 . S
C1425 C1426 1.389 . S
C1426 C1425 1.389 . S
C1426 C1427 1.387 . S
C1427 H1412 0.930 . S
C1427 C1422 1.390 . S
C1427 C1426 1.387 . S
H1428 C1440 0.930 . S
H1429 C1442 0.930 . S
H1430 C1443 0.930 . S
H1431 C1447 0.959 . S
H1432 C1447 0.959 . S
H1433 C1447 0.961 . S
H1434 C1448 0.960 . S
H1435 C1448 0.961 . S
H1436 C1448 0.959 . S
H1437 C1451 0.929 . S
H1438 C1452 0.931 . S
H1439 C1454 0.930 . S
C1440 H1428 0.930 . S
C1440 C1441 1.399 . S
C1440 C1445 1.399 . S
C1441 C1440 1.399 . S
C1441 C1442 1.376 . S
C1442 H1429 0.930 . S
C1442 C1441 1.376 . S
C1442 C1443 1.388 . S
C1443 H1430 0.930 . S
C1443 C1442 1.388 . S
C1443 C1444 1.390 . S
C1444 C1443 1.390 . S
C1444 C1445 1.394 . S
C1444 C1450 1.465 . S
C1445 C1440 1.399 . S
C1445 C1444 1.394 . S
C1445 C1446 1.516 . S
C1446 C1445 1.516 . S
C1446 C1447 1.502 . S
C1446 C1448 1.561 . S
C1446 C1449 1.526 . S
C1447 H1431 0.959 . S
C1447 H1432 0.959 . S
C1447 H1433 0.961 . S
C1447 C1446 1.502 . S
C1448 H1434 0.960 . S
C1448 H1435 0.961 . S
C1448 H1436 0.959 . S
C1448 C1446 1.561 . S
C1449 C1446 1.526 . S
C1449 C1450 1.396 . S
C1449 C1454 1.390 . S
C1450 C1444 1.465 . S
C1450 C1449 1.396 . S
C1450 C1451 1.399 . S
C1451 H1437 0.929 . S
C1451 C1450 1.399 . S
C1451 C1452 1.385 . S
C1452 H1438 0.931 . S
C1452 C1451 1.385 . S
C1452 C1453 1.389 . S
C1453 C1452 1.389 . S
C1453 C1454 1.387 . S
C1454 H1439 0.930 . S
C1454 C1449 1.390 . S
C1454 C1453 1.387 . S
H1455 C1467 0.930 . S
H1456 C1469 0.930 . S
H1457 C1470 0.930 . S
H1458 C1474 0.959 . S
H1459 C1474 0.959 . S
H1460 C1474 0.961 . S
H1461 C1475 0.960 . S
H1462 C1475 0.961 . S
H1463 C1475 0.959 . S
H1464 C1478 0.929 . S
H1465 C1479 0.931 . S
H1466 C1481 0.930 . S
C1467 H1455 0.930 . S
C1467 C1468 1.399 . S
C1467 C1472 1.399 . S
C1468 C1467 1.399 . S
C1468 C1469 1.376 . S
C1469 H1456 0.930 . S
C1469 C1468 1.376 . S
C1469 C1470 1.388 . S
C1470 H1457 0.930 . S
C1470 C1469 1.388 . S
C1470 C1471 1.390 . S
C1471 C1470 1.390 . S
C1471 C1472 1.394 . S
C1471 C1477 1.465 . S
C1472 C1467 1.399 . S
C1472 C1471 1.394 . S
C1472 C1473 1.516 . S
C1473 C1472 1.516 . S
C1473 C1474 1.502 . S
C1473 C1475 1.561 . S
C1473 C1476 1.526 . S
C1474 H1458 0.959 . S
C1474 H1459 0.959 . S
C1474 H1460 0.961 . S
C1474 C1473 1.502 . S
C1475 H1461 0.960 . S
C1475 H1462 0.961 . S
C1475 H1463 0.959 . S
C1475 C1473 1.561 . S
C1476 C1473 1.526 . S
C1476 C1477 1.396 . S
C1476 C1481 1.390 . S
C1477 C1471 1.465 . S
C1477 C1476 1.396 . S
C1477 C1478 1.399 . S
C1478 H1464 0.929 . S
C1478 C1477 1.399 . S
C1478 C1479 1.385 . S
C1479 H1465 0.931 . S
C1479 C1478 1.385 . S
C1479 C1480 1.389 . S
C1480 C1479 1.389 . S
C1480 C1481 1.387 . S
C1481 H1466 0.930 . S
C1481 C1476 1.390 . S
C1481 C1480 1.387 . S
H1482 C1494 0.930 . S
H1483 C1496 0.930 . S
H1484 C1497 0.930 . S
H1485 C1501 0.959 . S
H1486 C1501 0.959 . S
H1487 C1501 0.961 . S
H1488 C1502 0.960 . S
H1489 C1502 0.961 . S
H1490 C1502 0.959 . S
H1491 C1505 0.929 . S
H1492 C1506 0.931 . S
H1493 C1508 0.930 . S
C1494 H1482 0.930 . S
C1494 C1495 1.399 . S
C1494 C1499 1.399 . S
C1495 C1494 1.399 . S
C1495 C1496 1.376 . S
C1496 H1483 0.930 . S
C1496 C1495 1.376 . S
C1496 C1497 1.388 . S
C1497 H1484 0.930 . S
C1497 C1496 1.388 . S
C1497 C1498 1.390 . S
C1498 C1497 1.390 . S
C1498 C1499 1.394 . S
C1498 C1504 1.465 . S
C1499 C1494 1.399 . S
C1499 C1498 1.394 . S
C1499 C1500 1.516 . S
C1500 C1499 1.516 . S
C1500 C1501 1.502 . S
C1500 C1502 1.561 . S
C1500 C1503 1.526 . S
C1501 H1485 0.959 . S
C1501 H1486 0.959 . S
C1501 H1487 0.961 . S
C1501 C1500 1.502 . S
C1502 H1488 0.960 . S
C1502 H1489 0.961 . S
C1502 H1490 0.959 . S
C1502 C1500 1.561 . S
C1503 C1500 1.526 . S
C1503 C1504 1.396 . S
C1503 C1508 1.390 . S
C1504 C1498 1.465 . S
C1504 C1503 1.396 . S
C1504 C1505 1.399 . S
C1505 H1491 0.929 . S
C1505 C1504 1.399 . S
C1505 C1506 1.385 . S
C1506 H1492 0.931 . S
C1506 C1505 1.385 . S
C1506 C1507 1.389 . S
C1507 C1506 1.389 . S
C1507 C1508 1.387 . S
C1508 H1493 0.930 . S
C1508 C1503 1.390 . S
C1508 C1507 1.387 . S
H1509 C1521 0.930 . S
H1510 C1523 0.930 . S
H1511 C1524 0.930 . S
H1512 C1528 0.959 . S
H1513 C1528 0.959 . S
H1514 C1528 0.961 . S
H1515 C1529 0.960 . S
H1516 C1529 0.961 . S
H1517 C1529 0.959 . S
H1518 C1532 0.929 . S
H1519 C1533 0.931 . S
H1520 C1535 0.930 . S
C1521 H1509 0.930 . S
C1521 C1522 1.399 . S
C1521 C1526 1.399 . S
C1522 C1521 1.399 . S
C1522 C1523 1.376 . S
C1523 H1510 0.930 . S
C1523 C1522 1.376 . S
C1523 C1524 1.388 . S
C1524 H1511 0.930 . S
C1524 C1523 1.388 . S
C1524 C1525 1.390 . S
C1525 C1524 1.390 . S
C1525 C1526 1.394 . S
C1525 C1531 1.465 . S
C1526 C1521 1.399 . S
C1526 C1525 1.394 . S
C1526 C1527 1.516 . S
C1527 C1526 1.516 . S
C1527 C1528 1.502 . S
C1527 C1529 1.561 . S
C1527 C1530 1.526 . S
C1528 H1512 0.959 . S
C1528 H1513 0.959 . S
C1528 H1514 0.961 . S
C1528 C1527 1.502 . S
C1529 H1515 0.960 . S
C1529 H1516 0.961 . S
C1529 H1517 0.959 . S
C1529 C1527 1.561 . S
C1530 C1527 1.526 . S
C1530 C1531 1.396 . S
C1530 C1535 1.390 . S
C1531 C1525 1.465 . S
C1531 C1530 1.396 . S
C1531 C1532 1.399 . S
C1532 H1518 0.929 . S
C1532 C1531 1.399 . S
C1532 C1533 1.385 . S
C1533 H1519 0.931 . S
C1533 C1532 1.385 . S
C1533 C1534 1.389 . S
C1534 C1533 1.389 . S
C1534 C1535 1.387 . S
C1535 H1520 0.930 . S
C1535 C1530 1.390 . S
C1535 C1534 1.387 . S
H1536 C1548 0.930 . S
H1537 C1550 0.930 . S
H1538 C1551 0.930 . S
H1539 C1555 0.959 . S
H1540 C1555 0.959 . S
H1541 C1555 0.961 . S
H1542 C1556 0.960 . S
H1543 C1556 0.961 . S
H1544 C1556 0.959 . S
H1545 C1559 0.929 . S
H1546 C1560 0.931 . S
H1547 C1562 0.930 . S
C1548 H1536 0.930 . S
C1548 C1549 1.399 . S
C1548 C1553 1.399 . S
C1549 C1548 1.399 . S
C1549 C1550 1.376 . S
C1550 H1537 0.930 . S
C1550 C1549 1.376 . S
C1550 C1551 1.388 . S
C1551 H1538 0.930 . S
C1551 C1550 1.388 . S
C1551 C1552 1.390 . S
C1552 C1551 1.390 . S
C1552 C1553 1.394 . S
C1552 C1558 1.465 . S
C1553 C1548 1.399 . S
C1553 C1552 1.394 . S
C1553 C1554 1.516 . S
C1554 C1553 1.516 . S
C1554 C1555 1.502 . S
C1554 C1556 1.561 . S
C1554 C1557 1.526 . S
C1555 H1539 0.959 . S
C1555 H1540 0.959 . S
C1555 H1541 0.961 . S
C1555 C1554 1.502 . S
C1556 H1542 0.960 . S
C1556 H1543 0.961 . S
C1556 H1544 0.959 . S
C1556 C1554 1.561 . S
C1557 C1554 1.526 . S
C1557 C1558 1.396 . S
C1557 C1562 1.390 . S
C1558 C1552 1.465 . S
C1558 C1557 1.396 . S
C1558 C1559 1.399 . S
C1559 H1545 0.929 . S
C1559 C1558 1.399 . S
C1559 C1560 1.385 . S
C1560 H1546 0.931 . S
C1560 C1559 1.385 . S
C1560 C1561 1.389 . S
C1561 C1560 1.389 . S
C1561 C1562 1.387 . S
C1562 H1547 0.930 . S
C1562 C1557 1.390 . S
C1562 C1561 1.387 . S
H1563 C1575 0.930 . S
H1564 C1577 0.930 . S
H1565 C1578 0.930 . S
H1566 C1582 0.959 . S
H1567 C1582 0.959 . S
H1568 C1582 0.961 . S
H1569 C1583 0.960 . S
H1570 C1583 0.961 . S
H1571 C1583 0.959 . S
H1572 C1586 0.929 . S
H1573 C1587 0.931 . S
H1574 C1589 0.930 . S
C1575 H1563 0.930 . S
C1575 C1576 1.399 . S
C1575 C1580 1.399 . S
C1576 C1575 1.399 . S
C1576 C1577 1.376 . S
C1577 H1564 0.930 . S
C1577 C1576 1.376 . S
C1577 C1578 1.388 . S
C1578 H1565 0.930 . S
C1578 C1577 1.388 . S
C1578 C1579 1.390 . S
C1579 C1578 1.390 . S
C1579 C1580 1.394 . S
C1579 C1585 1.465 . S
C1580 C1575 1.399 . S
C1580 C1579 1.394 . S
C1580 C1581 1.516 . S
C1581 C1580 1.516 . S
C1581 C1582 1.502 . S
C1581 C1583 1.561 . S
C1581 C1584 1.526 . S
C1582 H1566 0.959 . S
C1582 H1567 0.959 . S
C1582 H1568 0.961 . S
C1582 C1581 1.502 . S
C1583 H1569 0.960 . S
C1583 H1570 0.961 . S
C1583 H1571 0.959 . S
C1583 C1581 1.561 . S
C1584 C1581 1.526 . S
C1584 C1585 1.396 . S
C1584 C1589 1.390 . S
C1585 C1579 1.465 . S
C1585 C1584 1.396 . S
C1585 C1586 1.399 . S
C1586 H1572 0.929 . S
C1586 C1585 1.399 . S
C1586 C1587 1.385 . S
C1587 H1573 0.931 . S
C1587 C1586 1.385 . S
C1587 C1588 1.389 . S
C1588 C1587 1.389 . S
C1588 C1589 1.387 . S
C1589 H1574 0.930 . S
C1589 C1584 1.390 . S
C1589 C1588 1.387 . S
H1590 C1602 0.930 . S
H1591 C1604 0.930 . S
H1592 C1605 0.930 . S
H1593 C1609 0.959 . S
H1594 C1609 0.959 . S
H1595 C1609 0.961 . S
H1596 C1610 0.960 . S
H1597 C1610 0.961 . S
H1598 C1610 0.959 . S
H1599 C1613 0.929 . S
H1600 C1614 0.931 . S
H1601 C1616 0.930 . S
C1602 H1590 0.930 . S
C1602 C1603 1.399 . S
C1602 C1607 1.399 . S
C1603 C1602 1.399 . S
C1603 C1604 1.376 . S
C1604 H1591 0.930 . S
C1604 C1603 1.376 . S
C1604 C1605 1.388 . S
C1605 H1592 0.930 . S
C1605 C1604 1.388 . S
C1605 C1606 1.390 . S
C1606 C1605 1.390 . S
C1606 C1607 1.394 . S
C1606 C1612 1.465 . S
C1607 C1602 1.399 . S
C1607 C1606 1.394 . S
C1607 C1608 1.516 . S
C1608 C1607 1.516 . S
C1608 C1609 1.502 . S
C1608 C1610 1.561 . S
C1608 C1611 1.526 . S
C1609 H1593 0.959 . S
C1609 H1594 0.959 . S
C1609 H1595 0.961 . S
C1609 C1608 1.502 . S
C1610 H1596 0.960 . S
C1610 H1597 0.961 . S
C1610 H1598 0.959 . S
C1610 C1608 1.561 . S
C1611 C1608 1.526 . S
C1611 C1612 1.396 . S
C1611 C1616 1.390 . S
C1612 C1606 1.465 . S
C1612 C1611 1.396 . S
C1612 C1613 1.399 . S
C1613 H1599 0.929 . S
C1613 C1612 1.399 . S
C1613 C1614 1.385 . S
C1614 H1600 0.931 . S
C1614 C1613 1.385 . S
C1614 C1615 1.389 . S
C1615 C1614 1.389 . S
C1615 C1616 1.387 . S
C1616 H1601 0.930 . S
C1616 C1611 1.390 . S
C1616 C1615 1.387 . S
H1617 C1629 0.930 . S
H1618 C1631 0.930 . S
H1619 C1632 0.930 . S
H1620 C1636 0.959 . S
H1621 C1636 0.959 . S
H1622 C1636 0.961 . S
H1623 C1637 0.960 . S
H1624 C1637 0.961 . S
H1625 C1637 0.959 . S
H1626 C1640 0.929 . S
H1627 C1641 0.931 . S
H1628 C1643 0.930 . S
C1629 H1617 0.930 . S
C1629 C1630 1.399 . S
C1629 C1634 1.399 . S
C1630 C1629 1.399 . S
C1630 C1631 1.376 . S
C1631 H1618 0.930 . S
C1631 C1630 1.376 . S
C1631 C1632 1.388 . S
C1632 H1619 0.930 . S
C1632 C1631 1.388 . S
C1632 C1633 1.390 . S
C1633 C1632 1.390 . S
C1633 C1634 1.394 . S
C1633 C1639 1.465 . S
C1634 C1629 1.399 . S
C1634 C1633 1.394 . S
C1634 C1635 1.516 . S
C1635 C1634 1.516 . S
C1635 C1636 1.502 . S
C1635 C1637 1.561 . S
C1635 C1638 1.526 . S
C1636 H1620 0.959 . S
C1636 H1621 0.959 . S
C1636 H1622 0.961 . S
C1636 C1635 1.502 . S
C1637 H1623 0.960 . S
C1637 H1624 0.961 . S
C1637 H1625 0.959 . S
C1637 C1635 1.561 . S
C1638 C1635 1.526 . S
C1638 C1639 1.396 . S
C1638 C1643 1.390 . S
C1639 C1633 1.465 . S
C1639 C1638 1.396 . S
C1639 C1640 1.399 . S
C1640 H1626 0.929 . S
C1640 C1639 1.399 . S
C1640 C1641 1.385 1_556 S
C1641 H1627 0.931 . S
C1641 C1640 1.385 1_554 S
C1641 C1642 1.392 . S
C1642 C1641 1.392 . S
C1642 C1643 1.370 1_554 S
C1643 H1628 0.930 . S
C1643 C1638 1.390 . S
C1643 C1642 1.370 1_556 S
H1644 C1656 0.930 . S
H1645 C1658 0.930 . S
H1646 C1659 0.930 . S
H1647 C1663 0.959 . S
H1648 C1663 0.959 . S
H1649 C1663 0.961 . S
H1650 C1664 0.960 . S
H1651 C1664 0.961 . S
H1652 C1664 0.959 . S
H1653 C1667 0.929 . S
H1654 C1668 0.931 . S
H1655 C1670 0.930 . S
C1656 H1644 0.930 . S
C1656 C1657 1.399 . S
C1656 C1661 1.399 . S
C1657 C1656 1.399 . S
C1657 C1658 1.376 . S
C1658 H1645 0.930 . S
C1658 C1657 1.376 . S
C1658 C1659 1.388 . S
C1659 H1646 0.930 . S
C1659 C1658 1.388 . S
C1659 C1660 1.390 . S
C1660 C1659 1.390 . S
C1660 C1661 1.394 . S
C1660 C1666 1.465 . S
C1661 C1656 1.399 . S
C1661 C1660 1.394 . S
C1661 C1662 1.516 . S
C1662 C1661 1.516 . S
C1662 C1663 1.502 . S
C1662 C1664 1.561 . S
C1662 C1665 1.526 . S
C1663 H1647 0.959 . S
C1663 H1648 0.959 . S
C1663 H1649 0.961 . S
C1663 C1662 1.502 . S
C1664 H1650 0.960 . S
C1664 H1651 0.961 . S
C1664 H1652 0.959 . S
C1664 C1662 1.561 . S
C1665 C1662 1.526 . S
C1665 C1666 1.396 . S
C1665 C1670 1.390 . S
C1666 C1660 1.465 . S
C1666 C1665 1.396 . S
C1666 C1667 1.399 . S
C1667 H1653 0.929 . S
C1667 C1666 1.399 . S
C1667 C1668 1.385 . S
C1668 H1654 0.931 . S
C1668 C1667 1.385 . S
C1668 C1669 1.389 . S
C1669 C1668 1.389 . S
C1669 C1670 1.387 . S
C1670 H1655 0.930 . S
C1670 C1665 1.390 . S
C1670 C1669 1.387 . S
H1671 C1683 0.930 . S
H1672 C1685 0.930 . S
H1673 C1686 0.930 . S
H1674 C1690 0.959 . S
H1675 C1690 0.959 . S
H1676 C1690 0.961 . S
H1677 C1691 0.960 . S
H1678 C1691 0.961 . S
H1679 C1691 0.959 . S
H1680 C1694 0.929 . S
H1681 C1695 0.931 . S
H1682 C1697 0.930 . S
C1683 H1671 0.930 . S
C1683 C1684 1.399 . S
C1683 C1688 1.399 . S
C1684 C1683 1.399 . S
C1684 C1685 1.376 . S
C1685 H1672 0.930 . S
C1685 C1684 1.376 . S
C1685 C1686 1.388 . S
C1686 H1673 0.930 . S
C1686 C1685 1.388 . S
C1686 C1687 1.390 . S
C1687 C1686 1.390 . S
C1687 C1688 1.394 . S
C1687 C1693 1.465 . S
C1688 C1683 1.399 . S
C1688 C1687 1.394 . S
C1688 C1689 1.516 . S
C1689 C1688 1.516 . S
C1689 C1690 1.502 . S
C1689 C1691 1.561 . S
C1689 C1692 1.526 . S
C1690 H1674 0.959 . S
C1690 H1675 0.959 . S
C1690 H1676 0.961 . S
C1690 C1689 1.502 . S
C1691 H1677 0.960 . S
C1691 H1678 0.961 . S
C1691 H1679 0.959 . S
C1691 C1689 1.561 . S
C1692 C1689 1.526 . S
C1692 C1693 1.396 . S
C1692 C1697 1.390 . S
C1693 C1687 1.465 . S
C1693 C1692 1.396 . S
C1693 C1694 1.399 . S
C1694 H1680 0.929 . S
C1694 C1693 1.399 . S
C1694 C1695 1.385 . S
C1695 H1681 0.931 . S
C1695 C1694 1.385 . S
C1695 C1696 1.389 . S
C1696 C1695 1.389 . S
C1696 C1697 1.387 . S
C1697 H1682 0.930 . S
C1697 C1692 1.390 . S
C1697 C1696 1.387 . S
H1698 C1710 0.930 . S
H1699 C1712 0.930 . S
H1700 C1713 0.930 . S
H1701 C1717 0.959 . S
H1702 C1717 0.959 . S
H1703 C1717 0.961 . S
H1704 C1718 0.960 . S
H1705 C1718 0.961 . S
H1706 C1718 0.959 . S
H1707 C1721 0.929 . S
H1708 C1722 0.931 . S
H1709 C1724 0.930 . S
C1710 H1698 0.930 . S
C1710 C1711 1.399 . S
C1710 C1715 1.399 . S
C1711 C1710 1.399 . S
C1711 C1712 1.376 . S
C1712 H1699 0.930 . S
C1712 C1711 1.376 . S
C1712 C1713 1.388 . S
C1713 H1700 0.930 . S
C1713 C1712 1.388 . S
C1713 C1714 1.390 . S
C1714 C1713 1.390 . S
C1714 C1715 1.394 . S
C1714 C1720 1.465 . S
C1715 C1710 1.399 . S
C1715 C1714 1.394 . S
C1715 C1716 1.516 . S
C1716 C1715 1.516 . S
C1716 C1717 1.502 . S
C1716 C1718 1.561 . S
C1716 C1719 1.526 . S
C1717 H1701 0.959 . S
C1717 H1702 0.959 . S
C1717 H1703 0.961 . S
C1717 C1716 1.502 . S
C1718 H1704 0.960 . S
C1718 H1705 0.961 . S
C1718 H1706 0.959 . S
C1718 C1716 1.561 . S
C1719 C1716 1.526 . S
C1719 C1720 1.396 . S
C1719 C1724 1.390 . S
C1720 C1714 1.465 . S
C1720 C1719 1.396 . S
C1720 C1721 1.399 . S
C1721 H1707 0.929 . S
C1721 C1720 1.399 . S
C1721 C1722 1.385 . S
C1722 H1708 0.931 . S
C1722 C1721 1.385 . S
C1722 C1723 1.389 . S
C1723 C1722 1.389 . S
C1723 C1724 1.387 . S
C1724 H1709 0.930 . S
C1724 C1719 1.390 . S
C1724 C1723 1.387 . S
H1725 C1737 0.930 . S
H1726 C1739 0.930 . S
H1727 C1740 0.930 . S
H1728 C1744 0.959 . S
H1729 C1744 0.959 . S
H1730 C1744 0.961 . S
H1731 C1745 0.960 . S
H1732 C1745 0.961 . S
H1733 C1745 0.959 . S
H1734 C1748 0.929 . S
H1735 C1749 0.931 . S
H1736 C1751 0.930 . S
C1737 H1725 0.930 . S
C1737 C1738 1.399 . S
C1737 C1742 1.399 . S
C1738 C1737 1.399 . S
C1738 C1739 1.376 . S
C1739 H1726 0.930 . S
C1739 C1738 1.376 . S
C1739 C1740 1.388 . S
C1740 H1727 0.930 . S
C1740 C1739 1.388 . S
C1740 C1741 1.390 . S
C1741 C1740 1.390 . S
C1741 C1742 1.394 . S
C1741 C1747 1.465 . S
C1742 C1737 1.399 . S
C1742 C1741 1.394 . S
C1742 C1743 1.516 . S
C1743 C1742 1.516 . S
C1743 C1744 1.502 . S
C1743 C1745 1.561 . S
C1743 C1746 1.526 . S
C1744 H1728 0.959 . S
C1744 H1729 0.959 . S
C1744 H1730 0.961 . S
C1744 C1743 1.502 . S
C1745 H1731 0.960 . S
C1745 H1732 0.961 . S
C1745 H1733 0.959 . S
C1745 C1743 1.561 . S
C1746 C1743 1.526 . S
C1746 C1747 1.396 . S
C1746 C1751 1.390 . S
C1747 C1741 1.465 . S
C1747 C1746 1.396 . S
C1747 C1748 1.399 . S
C1748 H1734 0.929 . S
C1748 C1747 1.399 . S
C1748 C1749 1.385 . S
C1749 H1735 0.931 . S
C1749 C1748 1.385 . S
C1749 C1750 1.389 . S
C1750 C1749 1.389 . S
C1750 C1751 1.387 . S
C1751 H1736 0.930 . S
C1751 C1746 1.390 . S
C1751 C1750 1.387 . S
H1752 C1764 0.930 . S
H1753 C1766 0.930 . S
H1754 C1767 0.930 . S
H1755 C1771 0.959 . S
H1756 C1771 0.959 . S
H1757 C1771 0.961 . S
H1758 C1772 0.960 . S
H1759 C1772 0.961 . S
H1760 C1772 0.959 . S
H1761 C1775 0.929 . S
H1762 C1776 0.931 . S
H1763 C1778 0.930 . S
C1764 H1752 0.930 . S
C1764 C1765 1.399 . S
C1764 C1769 1.399 . S
C1765 C1764 1.399 . S
C1765 C1766 1.376 . S
C1766 H1753 0.930 . S
C1766 C1765 1.376 . S
C1766 C1767 1.388 . S
C1767 H1754 0.930 . S
C1767 C1766 1.388 . S
C1767 C1768 1.390 . S
C1768 C1767 1.390 . S
C1768 C1769 1.394 . S
C1768 C1774 1.465 . S
C1769 C1764 1.399 . S
C1769 C1768 1.394 . S
C1769 C1770 1.516 . S
C1770 C1769 1.516 . S
C1770 C1771 1.502 . S
C1770 C1772 1.561 . S
C1770 C1773 1.526 . S
C1771 H1755 0.959 . S
C1771 H1756 0.959 . S
C1771 H1757 0.961 . S
C1771 C1770 1.502 . S
C1772 H1758 0.960 . S
C1772 H1759 0.961 . S
C1772 H1760 0.959 . S
C1772 C1770 1.561 . S
C1773 C1770 1.526 . S
C1773 C1774 1.396 . S
C1773 C1778 1.390 . S
C1774 C1768 1.465 . S
C1774 C1773 1.396 . S
C1774 C1775 1.399 . S
C1775 H1761 0.929 . S
C1775 C1774 1.399 . S
C1775 C1776 1.385 . S
C1776 H1762 0.931 . S
C1776 C1775 1.385 . S
C1776 C1777 1.389 . S
C1777 C1776 1.389 . S
C1777 C1778 1.387 . S
C1778 H1763 0.930 . S
C1778 C1773 1.390 . S
C1778 C1777 1.387 . S
H1779 C1791 0.930 . S
H1780 C1793 0.930 . S
H1781 C1794 0.930 . S
H1782 C1798 0.959 . S
H1783 C1798 0.959 . S
H1784 C1798 0.961 . S
H1785 C1799 0.960 . S
H1786 C1799 0.961 . S
H1787 C1799 0.959 . S
H1788 C1802 0.929 . S
H1789 C1803 0.931 . S
H1790 C1805 0.930 . S
C1791 H1779 0.930 . S
C1791 C1792 1.399 . S
C1791 C1796 1.399 . S
C1792 C1791 1.399 . S
C1792 C1793 1.376 . S
C1793 H1780 0.930 . S
C1793 C1792 1.376 . S
C1793 C1794 1.388 . S
C1794 H1781 0.930 . S
C1794 C1793 1.388 . S
C1794 C1795 1.390 . S
C1795 C1794 1.390 . S
C1795 C1796 1.394 . S
C1795 C1801 1.465 . S
C1796 C1791 1.399 . S
C1796 C1795 1.394 . S
C1796 C1797 1.516 . S
C1797 C1796 1.516 . S
C1797 C1798 1.502 . S
C1797 C1799 1.561 . S
C1797 C1800 1.526 . S
C1798 H1782 0.959 . S
C1798 H1783 0.959 . S
C1798 H1784 0.961 . S
C1798 C1797 1.502 . S
C1799 H1785 0.960 . S
C1799 H1786 0.961 . S
C1799 H1787 0.959 . S
C1799 C1797 1.561 . S
C1800 C1797 1.526 . S
C1800 C1801 1.396 . S
C1800 C1805 1.390 . S
C1801 C1795 1.465 . S
C1801 C1800 1.396 . S
C1801 C1802 1.399 . S
C1802 H1788 0.929 . S
C1802 C1801 1.399 . S
C1802 C1803 1.385 . S
C1803 H1789 0.931 . S
C1803 C1802 1.385 . S
C1803 C1804 1.389 . S
C1804 C1803 1.389 . S
C1804 C1805 1.387 . S
C1805 H1790 0.930 . S
C1805 C1800 1.390 . S
C1805 C1804 1.387 . S
H1806 C1818 0.930 . S
H1807 C1820 0.930 . S
H1808 C1821 0.930 . S
H1809 C1825 0.959 . S
H1810 C1825 0.959 . S
H1811 C1825 0.961 . S
H1812 C1826 0.960 . S
H1813 C1826 0.961 . S
H1814 C1826 0.959 . S
H1815 C1829 0.929 . S
H1816 C1830 0.931 . S
H1817 C1832 0.930 . S
C1818 H1806 0.930 . S
C1818 C1819 1.399 . S
C1818 C1823 1.399 . S
C1819 C1818 1.399 . S
C1819 C1820 1.376 . S
C1820 H1807 0.930 . S
C1820 C1819 1.376 . S
C1820 C1821 1.388 . S
C1821 H1808 0.930 . S
C1821 C1820 1.388 . S
C1821 C1822 1.390 . S
C1822 C1821 1.390 . S
C1822 C1823 1.394 . S
C1822 C1828 1.465 . S
C1823 C1818 1.399 . S
C1823 C1822 1.394 . S
C1823 C1824 1.516 . S
C1824 C1823 1.516 . S
C1824 C1825 1.502 . S
C1824 C1826 1.561 . S
C1824 C1827 1.526 . S
C1825 H1809 0.959 . S
C1825 H1810 0.959 . S
C1825 H1811 0.961 . S
C1825 C1824 1.502 . S
C1826 H1812 0.960 . S
C1826 H1813 0.961 . S
C1826 H1814 0.959 . S
C1826 C1824 1.561 . S
C1827 C1824 1.526 . S
C1827 C1828 1.396 . S
C1827 C1832 1.390 . S
C1828 C1822 1.465 . S
C1828 C1827 1.396 . S
C1828 C1829 1.399 1_554 S
C1829 H1815 0.929 . S
C1829 C1828 1.399 1_556 S
C1829 C1830 1.385 . S
C1830 H1816 0.931 . S
C1830 C1829 1.385 . S
C1830 C1831 1.389 . S
C1831 C1830 1.389 . S
C1831 C1832 1.387 1_556 S
C1832 H1817 0.930 . S
C1832 C1827 1.390 . S
C1832 C1831 1.387 1_554 S
H1833 C1845 0.930 . S
H1834 C1847 0.930 . S
H1835 C1848 0.930 . S
H1836 C1852 0.959 . S
H1837 C1852 0.959 . S
H1838 C1852 0.961 . S
H1839 C1853 0.960 . S
H1840 C1853 0.961 . S
H1841 C1853 0.959 . S
H1842 C1856 0.929 . S
H1843 C1857 0.931 . S
H1844 C1859 0.930 . S
C1845 H1833 0.930 . S
C1845 C1846 1.399 . S
C1845 C1850 1.399 . S
C1846 C1845 1.399 . S
C1846 C1847 1.376 . S
C1847 H1834 0.930 . S
C1847 C1846 1.376 . S
C1847 C1848 1.388 . S
C1848 H1835 0.930 . S
C1848 C1847 1.388 . S
C1848 C1849 1.390 . S
C1849 C1848 1.390 . S
C1849 C1850 1.394 . S
C1849 C1855 1.465 . S
C1850 C1845 1.399 . S
C1850 C1849 1.394 . S
C1850 C1851 1.516 . S
C1851 C1850 1.516 . S
C1851 C1852 1.502 . S
C1851 C1853 1.561 . S
C1851 C1854 1.526 . S
C1852 H1836 0.959 . S
C1852 H1837 0.959 . S
C1852 H1838 0.961 . S
C1852 C1851 1.502 . S
C1853 H1839 0.960 . S
C1853 H1840 0.961 . S
C1853 H1841 0.959 . S
C1853 C1851 1.561 . S
C1854 C1851 1.526 . S
C1854 C1855 1.396 . S
C1854 C1859 1.390 . S
C1855 C1849 1.465 . S
C1855 C1854 1.396 . S
C1855 C1856 1.399 . S
C1856 H1842 0.929 . S
C1856 C1855 1.399 . S
C1856 C1857 1.385 . S
C1857 H1843 0.931 . S
C1857 C1856 1.385 . S
C1857 C1858 1.389 . S
C1858 C1857 1.389 . S
C1858 C1859 1.387 . S
C1859 H1844 0.930 . S
C1859 C1854 1.390 . S
C1859 C1858 1.387 . S
C1237 C1153 1.808 . S
C1225 C1 1.176 . S
C1252 C169 1.751 . S
C1264 C713 1.936 . S
C1279 C283 1.731 . S
C1291 C801 1.911 . S
C1306 C397 1.607 . S
C1318 C880 1.774 . S
C1345 C977 1.646 . S
C1333 C457 1.041 . S
C1360 C571 1.051 . S
C1372 C1056 1.668 . S
C1387 C115 1.230 . S
C1399 C821 1.779 . S
C1414 C229 1.138 . S
C1426 C917 1.633 . S
C1441 C343 1.210 . S
C1453 C997 1.582 . S
C1480 C1093 1.771 . S
C1468 C511 1.601 . S
C1507 C1173 1.911 . S
C1495 C625 1.731 . S
C1534 C733 1.904 . S
C1522 C55 1.691 . S
C1549 C29 1.212 . S
C1561 C829 1.403 . S
C1576 C125 0.909 . S
C1588 C909 1.483 . S
C1615 C1005 1.400 . S
C1603 C239 0.992 . S
C1630 C353 0.777 . S
C1642 C1085 1.430 . S
C1669 C1181 1.317 . S
C1657 C485 1.035 . S
C1696 C741 1.371 . S
C1684 C599 1.009 . S
C1723 C1144 1.396 . S
C1711 C143 1.136 . S
C1738 C257 1.010 . S
C1750 C704 1.371 . S
C1777 C792 1.326 . S
C1765 C371 1.120 . S
C1792 C467 0.828 . S
C1804 C889 1.412 . S
C1819 C581 0.784 . S
C1831 C968 1.427 . S
C1846 C11 1.019 . S
C1858 C1065 1.468 . S
