# Generated by pormake.
# Topology zzz, (3,6)-cn, num edge types: 1
# Building blocks:
#     Node 0, Type 0, BuildingBlock: CUQRIR_clean_linker_1, # of connection points: 3
#     Node 1, Type 0, BuildingBlock: CUQRIR_clean_linker_1, # of connection points: 3
#     Node 2, Type 0, BuildingBlock: CUQRIR_clean_linker_1, # of connection points: 3
#     Node 3, Type 0, BuildingBlock: CUQRIR_clean_linker_1, # of connection points: 3
#     Node 4, Type 0, BuildingBlock: CUQRIR_clean_linker_1, # of connection points: 3
#     Node 5, Type 0, BuildingBlock: CUQRIR_clean_linker_1, # of connection points: 3
#     Node 6, Type 0, BuildingBlock: CUQRIR_clean_linker_1, # of connection points: 3
#     Node 7, Type 0, BuildingBlock: CUQRIR_clean_linker_1, # of connection points: 3
#     Node 8, Type 1, BuildingBlock: PAMTOO_clean_sbu_0, # of connection points: 6
#     Node 9, Type 1, BuildingBlock: PAMTOO_clean_sbu_0, # of connection points: 6
#     Node 10, Type 1, BuildingBlock: PAMTOO_clean_sbu_0, # of connection points: 6
#     Node 11, Type 1, BuildingBlock: PAMTOO_clean_sbu_0, # of connection points: 6
#     Edge 12, Type (0, 1), BuildingBlock: MIFKUJ_clean_linker_0, # of connection points: 2
#     Edge 13, Type (0, 1), BuildingBlock: MIFKUJ_clean_linker_0, # of connection points: 2
#     Edge 14, Type (0, 1), BuildingBlock: MIFKUJ_clean_linker_0, # of connection points: 2
#     Edge 15, Type (0, 1), BuildingBlock: MIFKUJ_clean_linker_0, # of connection points: 2
#     Edge 16, Type (0, 1), BuildingBlock: MIFKUJ_clean_linker_0, # of connection points: 2
#     Edge 17, Type (0, 1), BuildingBlock: MIFKUJ_clean_linker_0, # of connection points: 2
#     Edge 18, Type (0, 1), BuildingBlock: MIFKUJ_clean_linker_0, # of connection points: 2
#     Edge 19, Type (0, 1), BuildingBlock: MIFKUJ_clean_linker_0, # of connection points: 2
#     Edge 20, Type (0, 1), BuildingBlock: MIFKUJ_clean_linker_0, # of connection points: 2
#     Edge 21, Type (0, 1), BuildingBlock: MIFKUJ_clean_linker_0, # of connection points: 2
#     Edge 22, Type (0, 1), BuildingBlock: MIFKUJ_clean_linker_0, # of connection points: 2
#     Edge 23, Type (0, 1), BuildingBlock: MIFKUJ_clean_linker_0, # of connection points: 2
#     Edge 24, Type (0, 1), BuildingBlock: MIFKUJ_clean_linker_0, # of connection points: 2
#     Edge 25, Type (0, 1), BuildingBlock: MIFKUJ_clean_linker_0, # of connection points: 2
#     Edge 26, Type (0, 1), BuildingBlock: MIFKUJ_clean_linker_0, # of connection points: 2
#     Edge 27, Type (0, 1), BuildingBlock: MIFKUJ_clean_linker_0, # of connection points: 2
#     Edge 28, Type (0, 1), BuildingBlock: MIFKUJ_clean_linker_0, # of connection points: 2
#     Edge 29, Type (0, 1), BuildingBlock: MIFKUJ_clean_linker_0, # of connection points: 2
#     Edge 30, Type (0, 1), BuildingBlock: MIFKUJ_clean_linker_0, # of connection points: 2
#     Edge 31, Type (0, 1), BuildingBlock: MIFKUJ_clean_linker_0, # of connection points: 2
#     Edge 32, Type (0, 1), BuildingBlock: MIFKUJ_clean_linker_0, # of connection points: 2
#     Edge 33, Type (0, 1), BuildingBlock: MIFKUJ_clean_linker_0, # of connection points: 2
#     Edge 34, Type (0, 1), BuildingBlock: MIFKUJ_clean_linker_0, # of connection points: 2
#     Edge 35, Type (0, 1), BuildingBlock: MIFKUJ_clean_linker_0, # of connection points: 2
# Relax obj value: 0.211
# Max RMSD: 0.244
# Mean RMSD: 0.124
data_MOF--net-zzz--node1-PAMTOO_clean_sbu_0--node2-CUQRIR_clean_linker_1--edge1-MIFKUJ_clean_linker_0
_symmetry_space_group_name_H-M    P1
_symmetry_Int_Tables_number       1
_symmetry_cell_setting            triclinic
loop_
_symmetry_equiv_pos_as_xyz
'x, y, z'
_cell_length_a     69.447257
_cell_length_b     61.321711
_cell_length_c     18.523191
_cell_angle_alpha  91.526137
_cell_angle_beta   80.953076
_cell_angle_gamma 86.367769
loop_
_atom_site_label
_atom_site_type_symbol
_atom_site_fract_x
_atom_site_fract_y
_atom_site_fract_z
_atom_type_partial_charge
C0 C 0.78842 0.51932 0.42707 0.0
N1 N 0.80763 0.5215 0.42958 0.0
N2 N 0.78428 0.5235 0.35898 0.0
C3 C 0.77391 0.51291 0.49029 0.0
C4 C 0.80181 0.5279 0.32043 0.0
N5 N 0.81579 0.52694 0.36352 0.0
C6 C 0.80551 0.53178 0.23974 0.0
H7 H 0.7734 0.49486 0.48854 0.0
H8 H 0.7591 0.52031 0.48677 0.0
H9 H 0.77833 0.51799 0.54293 0.0
H10 H 0.80167 0.54924 0.231 0.0
H11 H 0.79625 0.52169 0.21051 0.0
H12 H 0.8211 0.52804 0.21613 0.0
C13 C 0.01926 0.72513 0.40825 0.0
N14 N 0.02963 0.74329 0.40373 0.0
N15 N 0.02514 0.71154 0.34871 0.0
C16 C 1.00394 0.72022 0.47118 0.0
C17 C 0.03919 0.7221 0.3075 0.0
N18 N 0.04206 0.7412 0.34099 0.0
C19 C 0.04867 0.71471 0.23113 0.0
H20 H 1.00699 0.72775 0.52299 0.0
H21 H 1.00319 0.7023 0.47658 0.0
H22 H 0.98951 0.7271 0.46077 0.0
H23 H 0.0394 0.70376 0.20531 0.0
H24 H 0.06283 0.70558 0.23386 0.0
H25 H 0.05149 0.7289 0.19598 0.0
C26 C 0.77809 1.00102 0.33107 0.0
N27 N 0.75866 1.00052 0.32743 0.0
N28 N 0.78914 0.9972 0.26339 0.0
C29 C 0.78622 0.00575 0.39972 0.0
C30 C 0.7756 0.99456 0.21891 0.0
N31 N 0.75737 0.99634 0.2577 0.0
C32 C 0.78015 0.99101 0.13705 0.0
H33 H 0.78745 0.02364 0.40564 0.0
H34 H 0.80099 0.99743 0.39695 0.0
H35 H 0.77641 1.00054 0.44842 0.0
H36 H 0.78384 0.97334 0.12386 0.0
H37 H 0.79287 1.00015 0.11411 0.0
H38 H 0.76751 0.99611 0.11018 0.0
C39 C 0.51795 0.7661 0.3157 0.0
N40 N 0.51563 0.74426 0.31246 0.0
N41 N 0.51629 0.77509 0.2504 0.0
C42 C 0.52079 0.77879 0.38316 0.0
C43 C 0.51319 0.75788 0.20732 0.0
N44 N 0.51256 0.73929 0.24502 0.0
C45 C 0.51272 0.75891 0.12641 0.0
H46 H 0.51399 0.77089 0.43318 0.0
H47 H 0.5145 0.79587 0.38274 0.0
H48 H 0.53668 0.7792 0.3844 0.0
H49 H 0.52136 0.77229 0.10224 0.0
H50 H 0.49738 0.7621 0.11754 0.0
H51 H 0.51863 0.74324 0.09753 0.0
C52 C 0.26212 0.49815 0.04784 0.0
N53 N 0.24468 0.49073 0.03814 0.0
N54 N 0.26984 0.48668 0.09959 0.0
C55 C 0.27097 0.51735 0.01036 0.0
C56 C 0.25626 0.47227 0.12157 0.0
N57 N 0.24103 0.47471 0.08427 0.0
C58 C 0.25724 0.45711 0.18368 0.0
H59 H 0.28709 0.51606 0.0072 0.0
H60 H 0.26502 0.53252 0.04232 0.0
H61 H 0.2671 0.51852 0.95463 0.0
H62 H 0.25653 0.46695 0.23533 0.0
H63 H 0.27136 0.44717 0.17466 0.0
H64 H 0.24519 0.44594 0.18943 0.0
C65 C 0.03404 0.28638 0.06522 0.0
N66 N 0.02622 0.26672 0.07481 0.0
N67 N 0.02689 0.30048 0.12259 0.0
C68 C 0.04922 0.29143 1.0021 0.0
C69 C 0.01468 0.28854 0.16738 0.0
N70 N 0.01416 0.26827 0.1381 0.0
C71 C 1.00481 0.29602 0.24323 0.0
H72 H 0.04945 0.30933 0.99509 0.0
H73 H 0.04641 0.28321 0.95103 0.0
H74 H 0.06376 0.28505 0.0129 0.0
H75 H 0.99197 0.30733 0.23882 0.0
H76 H 0.01495 0.30504 0.27176 0.0
H77 H 0.99967 0.28222 0.27686 0.0
C78 C 0.26369 0.00265 0.21958 0.0
N79 N 0.28313 0.99794 0.22039 0.0
N80 N 0.25265 0.99612 0.28207 0.0
C81 C 0.25551 0.01385 0.15896 0.0
C82 C 0.26618 0.98753 0.32071 0.0
N83 N 0.28443 0.98859 0.28338 0.0
C84 C 0.26158 0.9781 0.39528 0.0
H85 H 0.25369 0.03169 0.17203 0.0
H86 H 0.24096 0.00802 0.15388 0.0
H87 H 0.2655 0.01107 0.10619 0.0
H88 H 0.25912 0.96051 0.38864 0.0
H89 H 0.24819 0.98654 0.42719 0.0
H90 H 0.27377 0.97937 0.42681 0.0
C91 C 0.51324 0.25268 0.24048 0.0
N92 N 0.51511 0.27456 0.24548 0.0
N93 N 0.51789 0.24284 0.30095 0.0
C94 C 0.5069 0.24104 0.17679 0.0
C95 C 0.52254 0.25954 0.34294 0.0
N96 N 0.52075 0.27878 0.30954 0.0
C97 C 0.52852 0.2571 0.41726 0.0
H98 H 0.50145 0.22491 0.19188 0.0
H99 H 0.51961 0.23838 0.13228 0.0
H100 H 0.49539 0.25122 0.15557 0.0
H101 H 0.53603 0.24091 0.4225 0.0
H102 H 0.51523 0.25874 0.45948 0.0
H103 H 0.53834 0.26992 0.42848 0.0
Dy104 Dy 1.00908 0.00858 0.70902 0.0
Dy105 Dy 0.03195 0.99557 0.84255 0.0
C106 C 0.05563 1.00171 0.6835 0.0
O107 O 0.01648 0.97289 0.68834 0.0
O108 O 0.02314 0.96336 0.8015 0.0
O109 O 1.00763 0.01221 0.5942 0.0
O110 O 0.98186 0.01945 0.67547 0.0
O111 O 1.00117 0.00726 0.89253 0.0
O112 O 0.98752 0.99503 0.79712 0.0
O113 O 0.03474 0.03166 0.8347 0.0
O114 O 1.0099 0.04045 0.77021 0.0
O115 O 0.03212 0.9813 0.94756 0.0
O116 O 0.0579 0.99579 0.89322 0.0
C117 C 0.01944 0.95804 0.73591 0.0
O118 O 0.04075 0.01473 0.67133 0.0
O119 O 0.05358 0.9888 0.7393 0.0
C120 C 0.98654 0.04234 0.57753 0.0
C121 C 0.97882 0.08456 0.52941 0.0
C122 C 0.9918 0.08097 0.57965 0.0
C123 C 0.99575 0.06002 0.60287 0.0
C124 C 0.97347 0.0457 0.52795 0.0
C125 C 0.96969 0.0667 0.50366 0.0
C126 C 0.98972 0.02085 0.60728 0.0
C127 C 0.98577 1.00106 0.86645 0.0
C128 C 0.02298 0.04625 0.80983 0.0
C129 C 0.06245 0.96415 0.95847 0.0
C130 C 0.08108 0.92409 0.98746 0.0
C131 C 0.07913 0.94179 0.03855 0.0
C132 C 0.0698 0.9617 0.02416 0.0
C133 C 0.0653 0.94694 0.9057 0.0
C134 C 0.07454 0.92704 0.9201 0.0
C135 C 0.05063 0.98397 0.94698 0.0
H136 H 0.99882 0.09436 0.60156 0.0
H137 H 1.00585 0.05761 0.64131 0.0
H138 H 0.96618 0.03215 0.50833 0.0
H139 H 0.95984 0.06889 0.46414 0.0
H140 H 0.08382 0.93988 0.09123 0.0
H141 H 0.06767 0.97488 0.06537 0.0
H142 H 0.05974 0.94866 0.85449 0.0
H143 H 0.07597 0.9137 0.87965 0.0
Dy144 Dy 0.51574 0.9911 0.69828 0.0
Dy145 Dy 0.52273 0.02289 0.83545 0.0
C146 C 0.51461 0.04312 0.68609 0.0
O147 O 0.54852 0.99055 0.68848 0.0
O148 O 0.55227 0.01993 0.76367 0.0
O149 O 0.50672 0.98651 0.59347 0.0
O150 O 0.51911 0.95886 0.64529 0.0
O151 O 0.53268 0.98876 0.86012 0.0
O152 O 0.51144 0.97175 0.79955 0.0
O153 O 0.49099 0.01598 0.8607 0.0
O154 O 0.48484 1.00125 0.75172 0.0
O155 O 0.5178 0.0295 0.95208 0.0
O156 O 0.53324 0.052 0.87962 0.0
C157 C 0.55954 0.00497 0.71247 0.0
O158 O 0.52062 0.02414 0.6532 0.0
O159 O 0.51046 0.04512 0.75766 0.0
C160 C 0.49492 0.95253 0.5723 0.0
C161 C 0.46314 0.93464 0.52065 0.0
C162 C 0.46042 0.94643 0.58823 0.0
C163 C 0.47621 0.95525 0.61389 0.0
C164 C 0.49801 0.93953 0.50771 0.0
C165 C 0.48224 0.93055 0.48218 0.0
C166 C 0.51061 0.9654 0.59093 0.0
C167 C 0.52259 0.97182 0.85048 0.0
C168 C 0.47874 0.00895 0.81921 0.0
C169 C 0.54288 0.04727 0.99615 0.0
C170 C 0.57139 0.0444 0.08859 0.0
C171 C 0.57644 0.04997 0.01524 0.0
C172 C 0.56234 0.05132 0.96932 0.0
C173 C 0.53766 0.0427 0.0703 0.0
C174 C 0.55182 0.04112 0.11608 0.0
C175 C 0.5281 0.0466 0.94728 0.0
H176 H 0.44594 0.95024 0.61894 0.0
H177 H 0.47361 0.96529 0.66393 0.0
H178 H 0.51243 0.93726 0.47512 0.0
H179 H 0.48485 0.92135 0.43051 0.0
H180 H 0.59149 0.05229 0.99239 0.0
H181 H 0.56684 0.05488 0.91243 0.0
H182 H 0.52271 0.03968 0.09231 0.0
H183 H 0.54756 0.03692 0.17252 0.0
Dy184 Dy 0.5388 0.50824 0.79704 0.0
Dy185 Dy 0.49406 0.50675 0.74537 0.0
C186 C 0.51217 0.46899 0.83329 0.0
O187 O 0.54546 0.48951 0.69018 0.0
O188 O 0.51455 0.48834 0.65688 0.0
O189 O 0.55436 0.50126 0.88632 0.0
O190 O 0.56929 0.51681 0.7898 0.0
O191 O 0.50948 0.53128 0.67477 0.0
O192 O 0.53261 0.54036 0.74574 0.0
O193 O 0.49206 0.53414 0.82793 0.0
O194 O 0.51564 0.52008 0.88964 0.0
O195 O 0.46559 0.52187 0.73384 0.0
O196 O 0.47203 0.48712 0.71124 0.0
C197 C 0.53356 0.48343 0.64569 0.0
O198 O 0.52965 0.47404 0.80373 0.0
O199 O 0.49695 0.48301 0.83464 0.0
C200 C 0.588 0.50942 0.89142 0.0
C201 C 0.6208 0.51069 0.96634 0.0
C202 C 0.60396 0.50043 0.99647 0.0
C203 C 0.58784 0.49982 0.95966 0.0
C204 C 0.60484 0.51955 0.86069 0.0
C205 C 0.62102 0.52022 0.89774 0.0
C206 C 0.57034 0.50937 0.85479 0.0
C207 C 0.52212 0.54471 0.6935 0.0
C208 C 0.50116 0.53441 0.88461 0.0
C209 C 0.4468 0.50456 0.65358 0.0
C210 C 0.42051 0.5039 0.55014 0.0
C211 C 0.4396 0.49376 0.53328 0.0
C212 C 0.45259 0.49407 0.58442 0.0
C213 C 0.42795 0.51491 0.67004 0.0
C214 C 0.415 0.51458 0.61928 0.0
C215 C 0.45923 0.50367 0.71201 0.0
H216 H 0.60301 0.49321 0.04951 0.0
H217 H 0.57512 0.49197 0.98533 0.0
H218 H 0.60545 0.52714 0.80831 0.0
H219 H 0.63376 0.52808 0.8723 0.0
H220 H 0.44454 0.48558 0.4805 0.0
H221 H 0.46704 0.48589 0.57019 0.0
H222 H 0.42303 0.52287 0.72326 0.0
H223 H 0.40041 0.52222 0.63536 0.0
Dy224 Dy 0.03001 0.52481 0.67714 0.0
Dy225 Dy 0.02072 0.48603 0.79062 0.0
C226 C 0.03757 0.47387 0.62396 0.0
O227 O 0.99759 0.52472 0.71082 0.0
O228 O 0.99737 0.48815 0.71884 0.0
O229 O 0.01761 0.5468 0.60482 0.0
O230 O 0.04827 0.54684 0.61265 0.0
O231 O 1.011 0.51712 0.8579 0.0
O232 O 0.02766 0.54208 0.7859 0.0
O233 O 0.049 0.49796 0.81411 0.0
O234 O 0.05944 0.51359 0.70493 0.0
O235 O 0.02976 0.45812 0.8489 0.0
O236 O 0.99901 0.46828 0.85601 0.0
C237 C 0.98846 0.50684 0.70649 0.0
O238 O 0.03238 0.49387 0.60753 0.0
O239 O 0.03731 0.46832 0.69178 0.0
C240 C 0.03965 0.54818 0.49589 0.0
C241 C 0.05889 0.53331 0.35661 0.0
C242 C 0.04582 0.5202 0.3987 0.0
C243 C 0.03614 0.52769 0.46715 0.0
C244 C 0.0507 0.56236 0.4512 0.0
C245 C 0.05989 0.55516 0.38122 0.0
C246 C 0.0346 0.55278 0.57497 0.0
C247 C 0.01777 0.53665 0.84865 0.0
C248 C 0.06296 0.50574 0.76749 0.0
C249 C 1.00893 0.45421 0.96067 0.0
C250 C 0.99571 0.46041 0.11159 0.0
C251 C 0.98654 0.4462 0.06861 0.0
C252 C 0.99318 0.44308 0.99399 0.0
C253 C 0.01933 0.46673 1.00376 0.0
C254 C 1.01292 0.46956 0.07889 0.0
C255 C 1.012 0.45555 0.88109 0.0
H256 H 0.04421 0.50343 0.3826 0.0
H257 H 0.02712 0.51671 0.49987 0.0
H258 H 0.05321 0.57845 0.47194 0.0
H259 H 0.06888 0.56626 0.34888 0.0
H260 H 0.97314 0.43897 0.09042 0.0
H261 H 0.98498 0.43339 0.9613 0.0
H262 H 0.03161 0.47546 0.97883 0.0
H263 H 0.0207 0.48018 0.10991 0.0
H264 H 0.22694 0.03202 0.29095 0.0
H265 H 0.19226 0.03438 0.34652 0.0
H266 H 0.19658 0.96535 0.38663 0.0
H267 H 0.23044 0.96284 0.32547 0.0
H268 H 0.16347 0.97243 0.36213 0.0
H269 H 0.1983 0.0115 0.522 0.0
H270 H 0.21932 0.03951 0.55789 0.0
H271 H 0.17868 0.09028 0.50679 0.0
H272 H 0.15753 0.06255 0.46971 0.0
H273 H 0.08646 0.97069 0.67018 0.0
H274 H 0.11837 0.97069 0.59189 0.0
H275 H 0.10124 0.03262 0.5082 0.0
H276 H 0.06908 0.03255 0.58556 0.0
H277 H 0.13922 0.03104 0.54977 0.0
H278 H 0.10313 0.98774 0.40205 0.0
H279 H 0.08384 0.95725 0.37255 0.0
H280 H 0.12918 0.91099 0.4168 0.0
H281 H 0.14865 0.9412 0.4474 0.0
C282 C 0.22026 0.0173 0.30992 0.0
C283 C 0.23155 0.99728 0.3045 0.0
C284 C 0.20047 0.01869 0.34321 0.0
C285 C 0.19159 1.00019 0.37375 0.0
C286 C 0.20275 0.98003 0.36467 0.0
C287 C 0.22227 0.97858 0.32996 0.0
C288 C 0.17099 1.00155 0.41604 0.0
C289 C 0.15841 0.98517 0.40372 0.0
C290 C 0.16379 0.01826 0.47008 0.0
C291 C 0.17646 0.03496 0.49227 0.0
C292 C 0.19392 0.02864 0.51795 0.0
C293 C 0.20585 0.04446 0.53856 0.0
C294 C 0.20037 0.06666 0.5344 0.0
C295 C 0.18292 0.07308 0.50982 0.0
C296 C 0.17096 0.05732 0.48902 0.0
C297 C 0.08939 0.98431 0.63498 0.0
C298 C 0.07504 1.00161 0.63442 0.0
C299 C 0.1077 0.98425 0.58989 0.0
C300 C 0.11235 1.00161 0.5435 0.0
C301 C 0.09812 0.019 0.54321 0.0
C302 C 0.07965 0.01889 0.58742 0.0
C303 C 0.1321 1.00172 0.49647 0.0
C304 C 0.14443 0.01838 0.50797 0.0
C305 C 0.13932 0.98487 0.44344 0.0
C306 C 0.12728 0.96675 0.42752 0.0
C307 C 0.10889 0.97107 0.40632 0.0
C308 C 0.09795 0.95383 0.38918 0.0
C309 C 0.10531 0.9322 0.39271 0.0
C310 C 0.12353 0.92776 0.41398 0.0
C311 C 0.13452 0.94493 0.43117 0.0
H312 H 0.09696 0.91885 0.37868 0.0
H313 H 0.20962 0.07888 0.5504 0.0
H314 H 0.54794 0.21435 0.3165 0.0
H315 H 0.54584 0.17853 0.37162 0.0
H316 H 0.48311 0.18444 0.38364 0.0
H317 H 0.48537 0.22092 0.33243 0.0
H318 H 0.48963 0.17142 0.50431 0.0
H319 H 0.51592 0.14634 0.26252 0.0
H320 H 0.53817 0.14315 0.14455 0.0
H321 H 0.58596 0.1228 0.2543 0.0
H322 H 0.56408 0.12622 0.37311 0.0
H323 H 0.51266 0.0445 0.53977 0.0
H324 H 0.51098 0.07669 0.46541 0.0
H325 H 0.5129 0.11835 0.65531 0.0
H326 H 0.51366 0.08625 0.73043 0.0
H327 H 0.53392 0.10566 0.42496 0.0
H328 H 0.4912 0.16799 0.64453 0.0
H329 H 0.46534 0.16824 0.75246 0.0
H330 H 0.44407 0.11004 0.66841 0.0
H331 H 0.46962 0.10961 0.55955 0.0
C332 C 0.53379 0.20772 0.32994 0.0
C333 C 0.51682 0.22026 0.3204 0.0
C334 C 0.53255 0.18718 0.36109 0.0
C335 C 0.5143 0.17846 0.38165 0.0
C336 C 0.49738 0.19068 0.36875 0.0
C337 C 0.49863 0.21141 0.33877 0.0
C338 C 0.51277 0.1575 0.42143 0.0
C339 C 0.49928 0.15704 0.48646 0.0
C340 C 0.52503 0.13839 0.39813 0.0
C341 C 0.53836 0.13675 0.32689 0.0
C342 C 0.53121 0.14141 0.26163 0.0
C343 C 0.54376 0.13952 0.19457 0.0
C344 C 0.56348 0.13283 0.19195 0.0
C345 C 0.57069 0.12802 0.25641 0.0
C346 C 0.55822 0.12993 0.32363 0.0
C347 C 0.51255 0.06053 0.56586 0.0
C348 C 0.51315 0.06277 0.64126 0.0
C349 C 0.51167 0.07898 0.52312 0.0
C350 C 0.51156 0.10014 0.55447 0.0
C351 C 0.51242 0.10235 0.62973 0.0
C352 C 0.51296 0.08392 0.67275 0.0
C353 C 0.51104 0.11979 0.50823 0.0
C354 C 0.52419 0.12002 0.44231 0.0
C355 C 0.498 0.13841 0.52925 0.0
C356 C 0.48245 0.13867 0.59422 0.0
C357 C 0.48095 0.1553 0.64894 0.0
C358 C 0.46636 0.15546 0.71031 0.0
C359 C 0.45311 0.13913 0.71739 0.0
C360 C 0.45438 0.12264 0.66299 0.0
C361 C 0.46893 0.12241 0.60148 0.0
H362 H 0.44184 0.13927 0.76497 0.0
H363 H 0.57315 0.13132 0.13996 0.0
H364 H 0.30156 0.45897 0.09831 0.0
H365 H 0.32846 0.46311 0.1681 0.0
H366 H 0.30324 0.52705 0.24731 0.0
H367 H 0.27639 0.52281 0.17662 0.0
H368 H 0.34269 0.52699 0.21952 0.0
H369 H 0.29614 0.48253 0.35115 0.0
H370 H 0.27492 0.45172 0.36741 0.0
H371 H 0.32527 0.40618 0.32276 0.0
H372 H 0.34679 0.43675 0.30476 0.0
H373 H 0.3926 0.53567 0.52547 0.0
H374 H 0.36805 0.53347 0.44537 0.0
H375 H 0.39151 0.46849 0.37162 0.0
H376 H 0.41553 0.4701 0.45471 0.0
H377 H 0.35298 0.46948 0.39566 0.0
H378 H 0.39962 0.51521 0.26683 0.0
H379 H 0.42007 0.54672 0.25651 0.0
H380 H 0.36868 0.59076 0.30012 0.0
H381 H 0.34791 0.55946 0.31246 0.0
C382 C 0.30197 0.47398 0.12999 0.0
C383 C 0.28694 0.49053 0.13245 0.0
C384 C 0.31727 0.47633 0.17011 0.0
C385 C 0.31778 0.49525 0.21432 0.0
C386 C 0.30322 0.51228 0.21394 0.0
C387 C 0.28791 0.50991 0.17349 0.0
C388 C 0.33292 0.49672 0.26339 0.0
C389 C 0.3448 0.51452 0.25852 0.0
C390 C 0.33594 0.48036 0.31396 0.0
C391 C 0.32307 0.46194 0.32589 0.0
C392 C 0.30269 0.46595 0.34429 0.0
C393 C 0.2906 0.44853 0.35384 0.0
C394 C 0.29874 0.427 0.34598 0.0
C395 C 0.31899 0.42286 0.32872 0.0
C396 C 0.33114 0.44023 0.31883 0.0
C397 C 0.39252 0.52079 0.4928 0.0
C398 C 0.40619 0.50304 0.49719 0.0
C399 C 0.37854 0.51966 0.44607 0.0
C400 C 0.37796 0.50092 0.40125 0.0
C401 C 0.3916 0.4832 0.40522 0.0
C402 C 0.40554 0.48425 0.45236 0.0
C403 C 0.36295 0.49964 0.3514 0.0
C404 C 0.351 0.48189 0.35635 0.0
C405 C 0.35979 0.51614 0.30132 0.0
C406 C 0.37222 0.53497 0.29128 0.0
C407 C 0.39268 0.53161 0.27454 0.0
C408 C 0.40433 0.54944 0.26836 0.0
C409 C 0.39568 0.57074 0.27787 0.0
C410 C 0.37535 0.57425 0.29296 0.0
C411 C 0.36363 0.55647 0.29957 0.0
H412 H 0.40472 0.58453 0.27363 0.0
H413 H 0.28936 0.41353 0.3534 0.0
H414 H 0.06325 0.31195 0.13557 0.0
H415 H 0.07078 0.34466 0.20236 0.0
H416 H 1.01017 0.36854 0.22678 0.0
H417 H 1.00323 0.33684 0.15516 0.0
H418 H 0.02869 0.40153 0.22919 0.0
H419 H 0.03096 0.33477 0.35661 0.0
H420 H 0.0422 0.29676 0.37649 0.0
H421 H 0.1005 0.31631 0.3765 0.0
H422 H 0.08964 0.35441 0.35543 0.0
H423 H 0.03163 0.43054 0.63473 0.0
H424 H 0.03544 0.40267 0.53601 0.0
H425 H 0.05882 0.44972 0.3824 0.0
H426 H 0.05394 0.47801 0.48083 0.0
H427 H 0.06163 0.38213 0.4402 0.0
H428 H 0.04339 0.44278 0.22494 0.0
H429 H 0.02922 0.48061 0.22889 0.0
H430 H 0.99323 0.47037 0.43389 0.0
H431 H 1.0065 0.43199 0.42956 0.0
C432 C 0.05183 0.32475 0.15229 0.0
C433 C 0.03263 0.32186 0.14103 0.0
C434 C 0.05601 0.34326 0.19174 0.0
C435 C 0.0409 0.35878 0.22255 0.0
C436 C 0.02213 0.35684 0.20471 0.0
C437 C 0.01812 0.3387 0.16377 0.0
C438 C 0.04392 0.37564 0.27896 0.0
C439 C 0.03605 0.3972 0.27483 0.0
C440 C 0.05298 0.37017 0.34034 0.0
C441 C 0.05954 0.34735 0.35358 0.0
C442 C 0.0462 0.33092 0.36043 0.0
C443 C 0.0525 0.30937 0.37191 0.0
C444 C 0.07206 0.30411 0.37756 0.0
C445 C 0.08536 0.32041 0.37193 0.0
C446 C 0.07914 0.34198 0.36019 0.0
C447 C 0.03775 0.43491 0.57999 0.0
C448 C 0.04215 0.45657 0.56521 0.0
C449 C 0.04004 0.41888 0.52354 0.0
C450 C 0.04709 0.42406 0.45117 0.0
C451 C 0.05288 0.44536 0.43732 0.0
C452 C 0.05008 0.46156 0.49353 0.0
C453 C 0.04646 0.40782 0.39001 0.0
C454 C 0.05461 0.38642 0.39369 0.0
C455 C 0.03664 0.41303 0.33055 0.0
C456 C 0.02619 0.43469 0.32744 0.0
C457 C 0.03216 0.44845 0.2701 0.0
C458 C 0.02435 0.47004 0.27277 0.0
C459 C 1.01062 0.47805 0.33249 0.0
C460 C 1.00394 0.46416 0.388 0.0
C461 C 1.01149 0.44245 0.3852 0.0
H462 H 1.00504 0.49497 0.33567 0.0
H463 H 0.07692 0.28742 0.38647 0.0
H464 H 0.81406 0.028 0.29028 0.0
H465 H 0.84865 0.02894 0.23627 0.0
H466 H 0.84593 0.96681 0.12445 0.0
H467 H 0.81208 0.96517 0.18338 0.0
H468 H 0.87926 0.96625 0.15297 0.0
H469 H 0.84259 0.02163 0.04416 0.0
H470 H 0.82044 0.05453 0.04096 0.0
H471 H 0.85959 0.0932 0.13882 0.0
H472 H 0.88187 0.06045 0.14345 0.0
H473 H 0.95434 0.97828 0.84416 0.0
H474 H 0.9224 0.97792 0.9222 0.0
H475 H 0.94064 0.02332 0.07526 0.0
H476 H 0.97291 0.02332 0.99826 0.0
H477 H 0.90113 0.03359 0.03213 0.0
H478 H 0.93907 0.9753 0.12671 0.0
H479 H 0.96059 0.94141 0.11512 0.0
H480 H 0.91736 0.90701 0.02505 0.0
H481 H 0.89569 0.94079 0.0351 0.0
C482 C 0.82105 0.01431 0.25575 0.0
C483 C 0.81021 0.99661 0.24058 0.0
C484 C 0.8408 0.01501 0.2235 0.0
C485 C 0.85009 0.99828 0.17369 0.0
C486 C 0.83941 0.98012 0.16174 0.0
C487 C 0.81989 0.97922 0.19513 0.0
C488 C 0.87061 0.99965 0.13263 0.0
C489 C 0.88382 0.98101 0.12622 0.0
C490 C 0.87711 0.01884 0.09761 0.0
C491 C 0.86377 0.03855 0.09496 0.0
C492 C 0.8464 0.03712 0.06546 0.0
C493 C 0.83384 0.05575 0.06333 0.0
C494 C 0.83858 0.07593 0.08988 0.0
C495 C 0.85592 0.07755 0.11843 0.0
C496 C 0.86852 0.05896 0.12081 0.0
C497 C 0.95163 0.98817 0.8945 0.0
C498 C 0.96632 1.00079 0.91481 0.0
C499 C 0.9333 0.98793 0.93919 0.0
C500 C 0.929 1.00059 0.00486 0.0
C501 C 0.94353 0.01343 0.02494 0.0
C502 C 0.96204 0.01333 0.98095 0.0
C503 C 0.90938 1.00021 0.05236 0.0
C504 C 0.89643 0.01898 0.05962 0.0
C505 C 0.90291 0.981 0.08637 0.0
C506 C 0.91583 0.96062 0.08108 0.0
C507 C 0.93421 0.96055 0.1039 0.0
C508 C 0.94643 0.94135 0.09771 0.0
C509 C 0.94036 0.92208 0.06921 0.0
C510 C 0.92204 0.92195 0.04705 0.0
C511 C 0.90978 0.94112 0.05306 0.0
H512 H 0.94984 0.90723 0.06444 0.0
H513 H 0.82883 0.09034 0.08816 0.0
H514 H 0.54488 0.80292 0.25846 0.0
H515 H 0.54731 0.83892 0.20229 0.0
H516 H 0.49095 0.83334 0.13624 0.0
H517 H 0.48833 0.79795 0.19392 0.0
H518 H 0.52244 0.84038 0.01994 0.0
H519 H 0.4937 0.86907 0.26132 0.0
H520 H 0.49236 0.87449 0.39443 0.0
H521 H 0.54718 0.90431 0.35858 0.0
H522 H 0.54902 0.89873 0.22515 0.0
H523 H 0.49823 0.93845 0.86304 0.0
H524 H 0.49867 0.90715 0.94097 0.0
H525 H 0.54846 0.93023 0.02532 0.0
H526 H 0.54771 0.96223 0.94855 0.0
H527 H 0.52437 0.91422 0.13352 0.0
H528 H 0.55349 0.88739 0.89559 0.0
H529 H 0.55662 0.88144 0.76196 0.0
H530 H 0.50406 0.84721 0.78974 0.0
H531 H 0.50045 0.85321 0.92355 0.0
C532 C 0.53282 0.80978 0.23382 0.0
C533 C 0.51647 0.79767 0.22997 0.0
C534 C 0.53425 0.83023 0.20142 0.0
C535 C 0.51937 0.83873 0.16444 0.0
C536 C 0.50265 0.82707 0.16395 0.0
C537 C 0.50115 0.80689 0.19693 0.0
C538 C 0.52168 0.85878 0.12097 0.0
C539 C 0.5227 0.85655 0.04484 0.0
C540 C 0.52277 0.87977 0.15311 0.0
C541 C 0.52164 0.88318 0.23326 0.0
C542 C 0.50559 0.87654 0.28181 0.0
C543 C 0.50473 0.87967 0.35731 0.0
C544 C 0.51975 0.88959 0.38494 0.0
C545 C 0.53561 0.89653 0.33709 0.0
C546 C 0.53657 0.89339 0.26152 0.0
C547 C 0.50934 0.93693 0.89794 0.0
C548 C 0.52309 0.9528 0.89873 0.0
C549 C 0.50961 0.91891 0.94253 0.0
C550 C 0.52386 0.91595 0.98818 0.0
C551 C 0.53737 0.93201 0.99041 0.0
C552 C 0.53698 0.95027 0.94622 0.0
C553 C 0.52463 0.89591 0.03233 0.0
C554 C 0.52428 0.89806 0.10839 0.0
C555 C 0.52445 0.8747 1.00009 0.0
C556 C 0.52662 0.8709 0.91962 0.0
C557 C 0.54253 0.87871 0.87319 0.0
C558 C 0.5444 0.87532 0.79741 0.0
C559 C 0.53053 0.864 0.76737 0.0
C560 C 0.51478 0.85599 0.81309 0.0
C561 C 0.51283 0.85936 0.88892 0.0
H562 H 0.532 0.86139 0.70868 0.0
H563 H 0.51904 0.89202 0.44342 0.0
H564 H 0.76652 0.55544 0.29108 0.0
H565 H 0.73804 0.55283 0.22918 0.0
H566 H 0.73212 0.48688 0.30095 0.0
H567 H 0.76116 0.4894 0.36103 0.0
H568 H 0.72861 0.48846 0.16077 0.0
H569 H 0.69961 0.53068 0.37531 0.0
H570 H 0.69633 0.56093 0.46776 0.0
H571 H 0.69105 0.60747 0.30166 0.0
H572 H 0.69457 0.57751 0.20798 0.0
H573 H 0.63591 0.47879 0.04758 0.0
H574 H 0.66257 0.48085 0.11861 0.0
H575 H 0.67146 0.54641 0.04819 0.0
H576 H 0.64432 0.54474 0.97876 0.0
H577 H 0.67278 0.54429 0.19129 0.0
H578 H 0.7028 0.50202 0.97654 0.0
H579 H 0.70613 0.47174 0.88417 0.0
H580 H 0.70936 0.42517 0.05162 0.0
H581 H 0.70579 0.45518 0.14518 0.0
C582 C 0.759 0.54048 0.29409 0.0
C583 C 0.76598 0.52267 0.33106 0.0
C584 C 0.74263 0.53901 0.25905 0.0
C585 C 0.73266 0.51972 0.26066 0.0
C586 C 0.73945 0.50198 0.29885 0.0
C587 C 0.7559 0.50347 0.33388 0.0
C588 C 0.71573 0.51786 0.22002 0.0
C589 C 0.71625 0.50048 0.16851 0.0
C590 C 0.69973 0.53379 0.22828 0.0
C591 C 0.69752 0.55185 0.28452 0.0
C592 C 0.69789 0.54737 0.3584 0.0
C593 C 0.69597 0.56447 0.41104 0.0
C594 C 0.69353 0.58611 0.39057 0.0
C595 C 0.69296 0.5907 0.31743 0.0
C596 C 0.6949 0.57367 0.26454 0.0
C597 C 0.64342 0.49373 0.04736 0.0
C598 C 0.63782 0.51161 0.00713 0.0
C599 C 0.65886 0.49481 0.08763 0.0
C600 C 0.66928 0.51371 0.08852 0.0
C601 C 0.66375 0.53159 0.04847 0.0
C602 C 0.6483 0.53053 0.00808 0.0
C603 C 0.68572 0.51495 0.1319 0.0
C604 C 0.6851 0.53222 0.18385 0.0
C605 C 0.70162 0.49891 0.12412 0.0
C606 C 0.70383 0.48084 0.06795 0.0
C607 C 0.70407 0.48532 0.99374 0.0
C608 C 0.70603 0.46821 0.94116 0.0
C609 C 0.7079 0.44654 0.96204 0.0
C610 C 0.70788 0.44195 0.03554 0.0
C611 C 0.7059 0.45901 0.08836 0.0
H612 H 0.70941 0.43332 0.92124 0.0
H613 H 0.69204 0.59932 0.43142 0.0
H614 H 0.04535 0.67268 0.33421 0.0
H615 H 0.03764 0.64053 0.26581 0.0
H616 H 0.98164 0.6724 0.24527 0.0
H617 H 0.98973 0.7048 0.31299 0.0
H618 H 1.01155 0.61095 0.26851 0.0
H619 H 0.97289 0.66151 0.07195 0.0
H620 H 0.97004 0.6994 0.0309 0.0
H621 H 0.02774 0.70945 0.07544 0.0
H622 H 0.03098 0.67157 0.11599 0.0
H623 H 0.99401 0.53526 0.98289 0.0
H624 H 0.98929 0.5629 0.0836 0.0
H625 H 0.03048 0.60233 0.95668 0.0
H626 H 0.03472 0.5754 0.856 0.0
H627 H 1.00176 0.62772 0.01595 0.0
H628 H 0.04024 0.56835 0.10495 0.0
H629 H 0.04807 0.53179 0.14963 0.0
H630 H 0.99776 0.53991 0.31773 0.0
H631 H 0.98928 0.57622 0.27288 0.0
C632 C 0.03112 0.67238 0.31737 0.0
C633 C 0.01807 0.69101 0.32894 0.0
C634 C 0.02672 0.65409 0.27802 0.0
C635 C 1.0092 0.65413 0.24905 0.0
C636 C 0.99538 0.67207 0.26609 0.0
C637 C 0.99985 0.69045 0.30551 0.0
C638 C 1.00666 0.6365 0.19489 0.0
C639 C 1.00913 0.61457 0.21349 0.0
C640 C 1.00374 0.64115 0.12277 0.0
C641 C 1.00205 0.66385 0.09782 0.0
C642 C 0.98496 0.67182 0.07283 0.0
C643 C 0.98328 0.69328 0.04968 0.0
C644 C 0.99866 0.70685 0.05087 0.0
C645 C 0.0158 0.69896 0.07487 0.0
C646 C 0.01756 0.67751 0.09798 0.0
C647 C 1.00201 0.54986 0.97646 0.0
C648 C 0.01467 0.5531 0.91089 0.0
C649 C 0.99937 0.56564 0.03435 0.0
C650 C 1.00958 0.5848 0.0283 0.0
C651 C 0.02226 0.58788 0.96295 0.0
C652 C 0.02472 0.57234 0.90513 0.0
C653 C 1.00722 0.60196 0.08869 0.0
C654 C 1.00372 0.62391 0.0713 0.0
C655 C 1.00962 0.59729 0.16149 0.0
C656 C 0.01396 0.57484 0.18476 0.0
C657 C 0.03063 0.56215 0.15047 0.0
C658 C 0.03519 0.54151 0.17592 0.0
C659 C 0.02331 0.53356 0.23607 0.0
C660 C 1.0068 0.54607 0.27071 0.0
C661 C 1.00209 0.56663 0.24518 0.0
H662 H 0.02697 0.51782 0.25644 0.0
H663 H 0.99733 0.72346 0.033 0.0
H664 H 0.03098 0.24117 0.22305 0.0
H665 H 0.01511 0.21375 0.30101 0.0
H666 H 0.96092 0.22982 0.22132 0.0
H667 H 0.97731 0.25691 0.14134 0.0
H668 H 0.98512 0.22035 0.41189 0.0
H669 H 0.936 0.18768 0.22897 0.0
H670 H 0.93386 0.18189 0.09789 0.0
H671 H 0.99617 0.16906 0.05005 0.0
H672 H 0.99863 0.17537 0.17971 0.0
H673 H 0.94442 0.10472 0.50096 0.0
H674 H 0.93981 0.14098 0.45067 0.0
H675 H 1.00092 0.15058 0.44788 0.0
H676 H 1.00579 0.11451 0.4953 0.0
H677 H 0.95907 0.15374 0.31696 0.0
H678 H 1.00741 0.2022 0.48804 0.0
H679 H 1.01306 0.20543 0.61575 0.0
H680 H 0.95646 0.18254 0.6903 0.0
H681 H 0.95025 0.17955 0.56305 0.0
C682 C 0.01586 0.23825 0.22097 0.0
C683 C 1.00536 0.25043 0.17559 0.0
C684 C 1.00671 0.22296 0.26607 0.0
C685 C 0.98682 0.21983 0.26712 0.0
C686 C 0.97632 0.23187 0.22083 0.0
C687 C 0.9856 0.24715 0.17518 0.0
C688 C 0.97745 0.2039 0.31736 0.0
C689 C 0.97926 0.20582 0.3916 0.0
C690 C 0.96893 0.18555 0.29146 0.0
C691 C 0.9675 0.18218 0.21342 0.0
C692 C 0.94921 0.18375 0.19006 0.0
C693 C 0.94795 0.18049 0.11598 0.0
C694 C 0.96489 0.17538 0.06527 0.0
C695 C 0.98308 0.17341 0.08865 0.0
C696 C 0.98443 0.17691 0.16237 0.0
C697 C 0.95685 0.1146 0.48959 0.0
C698 C 0.97546 0.10677 0.50236 0.0
C699 C 0.95413 0.13534 0.46165 0.0
C700 C 0.96993 0.14856 0.44723 0.0
C701 C 0.98841 0.14086 0.46073 0.0
C702 C 0.99117 0.12019 0.48783 0.0
C703 C 0.96812 0.16943 0.41042 0.0
C704 C 0.96405 0.16863 0.33867 0.0
C705 C 0.97481 0.1887 0.43868 0.0
C706 C 0.97835 0.19068 0.51569 0.0
C707 C 0.99606 0.19805 0.53159 0.0
C708 C 0.99939 0.19979 0.60396 0.0
C709 C 0.98512 0.19423 0.66107 0.0
C710 C 0.9675 0.18685 0.64595 0.0
C711 C 0.96408 0.18511 0.57367 0.0
H712 H 0.98771 0.19569 0.71701 0.0
H713 H 0.96387 0.17289 0.00801 0.0
H714 H 0.30697 0.95398 0.22057 0.0
H715 H 0.33801 0.93927 0.25429 0.0
H716 H 0.33279 0.9892 0.42643 0.0
H717 H 0.30199 0.00396 0.3914 0.0
H718 H 0.36872 0.98561 0.34848 0.0
H719 H 0.32277 0.93732 0.46583 0.0
H720 H 0.29686 0.91142 0.47149 0.0
H721 H 0.33489 0.86691 0.32247 0.0
H722 H 0.36094 0.8927 0.31506 0.0
H723 H 0.42773 0.92113 0.58586 0.0
H724 H 0.39724 0.92395 0.53537 0.0
H725 H 0.42902 0.93954 0.32607 0.0
H726 H 0.45931 0.93789 0.37654 0.0
H727 H 0.37988 0.90893 0.42005 0.0
H728 H 0.40642 0.98553 0.27264 0.0
H729 H 0.43127 0.01235 0.27782 0.0
H730 H 0.42952 0.00211 0.50717 0.0
H731 H 0.40445 0.97555 0.50355 0.0
C732 C 0.31256 0.96158 0.26574 0.0
C733 C 0.30223 0.97974 0.3045 0.0
C734 C 0.33013 0.95323 0.28508 0.0
C735 C 0.33754 0.963 0.34344 0.0
C736 C 0.32726 0.98137 0.38149 0.0
C737 C 0.30972 0.98969 0.36204 0.0
C738 C 0.35623 0.95448 0.3641 0.0
C739 C 0.37117 0.96881 0.36372 0.0
C740 C 0.35933 0.93261 0.38465 0.0
C741 C 0.34373 0.91704 0.38929 0.0
C742 C 0.32555 0.92209 0.43379 0.0
C743 C 0.31085 0.90742 0.4374 0.0
C744 C 0.31421 0.88756 0.39721 0.0
C745 C 0.3323 0.88231 0.35347 0.0
C746 C 0.34704 0.89694 0.34958 0.0
C747 C 0.42828 0.92477 0.52871 0.0
C748 C 0.44591 0.92986 0.48591 0.0
C749 C 0.41087 0.92613 0.49975 0.0
C750 C 0.41088 0.93246 0.42756 0.0
C751 C 0.42873 0.93493 0.38228 0.0
C752 C 0.44609 0.93381 0.41129 0.0
C753 C 0.39232 0.94004 0.40377 0.0
C754 C 0.37745 0.92561 0.40373 0.0
C755 C 0.38905 0.96199 0.38428 0.0
C756 C 0.40374 0.97838 0.38755 0.0
C757 C 0.41129 0.98909 0.3242 0.0
C758 C 0.42541 0.00424 0.32687 0.0
C759 C 0.43202 0.00887 0.39272 0.0
C760 C 0.42444 0.99847 0.45615 0.0
C761 C 0.41027 0.98337 0.45381 0.0
H762 H 0.44299 0.02056 0.39463 0.0
H763 H 0.30282 0.87622 0.40009 0.0
H764 H 0.54373 0.30811 0.23962 0.0
H765 H 0.54856 0.34495 0.28456 0.0
H766 H 0.51256 0.33333 0.4898 0.0
H767 H 0.50565 0.2977 0.44121 0.0
H768 H 0.50484 0.37155 0.46242 0.0
H769 H 0.56674 0.33139 0.45779 0.0
H770 H 0.59555 0.30775 0.40152 0.0
H771 H 0.61056 0.35574 0.24124 0.0
H772 H 0.58175 0.37959 0.29625 0.0
H773 H 0.56152 0.45036 0.6467 0.0
H774 H 0.56438 0.41635 0.57268 0.0
H775 H 0.52455 0.44499 0.43927 0.0
H776 H 0.52117 0.47877 0.51443 0.0
H777 H 0.57153 0.39835 0.43263 0.0
H778 H 0.48827 0.41255 0.43859 0.0
H779 H 0.46044 0.43472 0.51015 0.0
H780 H 0.4898 0.43433 0.69764 0.0
H781 H 0.51764 0.41198 0.62752 0.0
C782 C 0.53665 0.31362 0.29386 0.0
C783 C 0.52443 0.30007 0.33725 0.0
C784 C 0.53971 0.33447 0.31996 0.0
C785 C 0.53148 0.34175 0.39131 0.0
C786 C 0.51924 0.32815 0.4347 0.0
C787 C 0.51551 0.30765 0.40746 0.0
C788 C 0.53535 0.36366 0.42024 0.0
C789 C 0.51946 0.37727 0.45578 0.0
C790 C 0.55444 0.37125 0.41287 0.0
C791 C 0.57205 0.35721 0.38092 0.0
C792 C 0.57618 0.33688 0.4105 0.0
C793 C 0.5925 0.32344 0.37881 0.0
C794 C 0.60487 0.33023 0.3178 0.0
C795 C 0.60098 0.35052 0.28855 0.0
C796 C 0.58469 0.36402 0.32005 0.0
C797 C 0.55407 0.44974 0.59957 0.0
C798 C 0.54088 0.467 0.58684 0.0
C799 C 0.55569 0.43027 0.5574 0.0
C800 C 0.54426 0.42802 0.50189 0.0
C801 C 0.5332 0.44631 0.48285 0.0
C802 C 0.53133 0.46561 0.52561 0.0
C803 C 0.54104 0.40597 0.47364 0.0
C804 C 0.55698 0.39245 0.43865 0.0
C805 C 0.52213 0.39804 0.48419 0.0
C806 C 0.50508 0.41075 0.52757 0.0
C807 C 0.4887 0.41708 0.49521 0.0
C808 C 0.47295 0.42969 0.53549 0.0
C809 C 0.47337 0.43593 0.60834 0.0
C810 C 0.4895 0.42951 0.64119 0.0
C811 C 0.50527 0.41688 0.6012 0.0
H812 H 0.46117 0.44572 0.63934 0.0
H813 H 0.61746 0.31978 0.29324 0.0
H814 H 0.2173 0.47966 0.21343 0.0
H815 H 0.18198 0.4764 0.23262 0.0
H816 H 0.186 0.45008 0.01214 0.0
H817 H 0.22166 0.4524 0.99428 0.0
H818 H 0.16274 0.4912 0.047 0.0
H819 H 0.16666 0.41909 0.12999 0.0
H820 H 0.17812 0.38843 0.19934 0.0
H821 H 0.15428 0.42301 0.40144 0.0
H822 H 0.14295 0.45402 0.33345 0.0
H823 H 0.05615 0.49718 0.26585 0.0
H824 H 0.08299 0.47589 0.1901 0.0
H825 H 0.12232 0.52457 0.23217 0.0
H826 H 0.09622 0.54525 0.31112 0.0
H827 H 0.11836 0.46045 0.24918 0.0
H828 H 0.15096 0.53129 0.07663 0.0
H829 H 0.13796 0.56289 0.01487 0.0
H830 H 0.08698 0.52924 0.99034 0.0
H831 H 0.09972 0.49739 0.05093 0.0
C832 C 0.21077 0.47204 0.17066 0.0
C833 C 0.22205 0.4663 0.10246 0.0
C834 C 0.1906 0.47036 0.18127 0.0
C835 C 0.18143 0.46316 0.1235 0.0
C836 C 0.19285 0.45571 0.0572 0.0
C837 C 0.21312 0.45696 0.04719 0.0
C838 C 0.16003 0.46706 0.12967 0.0
C839 C 0.15289 0.48402 0.08949 0.0
C840 C 0.14719 0.45751 0.1849 0.0
C841 C 0.15397 0.43892 0.22645 0.0
C842 C 0.16397 0.42023 0.18922 0.0
C843 C 0.17043 0.40277 0.22832 0.0
C844 C 0.16693 0.40377 0.30474 0.0
C845 C 0.15696 0.42224 0.34223 0.0
C846 C 0.15047 0.43975 0.30341 0.0
C847 C 0.07037 0.50358 0.25889 0.0
C848 C 0.07371 0.52307 0.29599 0.0
C849 C 0.08571 0.49132 0.21519 0.0
C850 C 0.10454 0.49868 0.20606 0.0
C851 C 0.10776 0.51875 0.23834 0.0
C852 C 0.09259 0.53076 0.28303 0.0
C853 C 0.12152 0.48503 0.16818 0.0
C854 C 0.12795 0.46665 0.20347 0.0
C855 C 0.13362 0.49302 0.10769 0.0
C856 C 0.12654 0.51173 0.06714 0.0
C857 C 0.13724 0.53039 0.0564 0.0
C858 C 0.12985 0.54841 0.02204 0.0
C859 C 0.11182 0.54794 0.99785 0.0
C860 C 0.10102 0.52955 0.00868 0.0
C861 C 0.10832 0.51152 0.04307 0.0
H862 H 0.10616 0.5619 0.97123 0.0
H863 H 0.17194 0.39024 0.3349 0.0
H864 H 0.0805 0.73587 0.2867 0.0
H865 H 0.10056 0.76294 0.22056 0.0
H866 H 0.0514 0.81069 0.26118 0.0
H867 H 0.03107 0.7833 0.32231 0.0
H868 H 0.08841 0.78662 0.09258 0.0
H869 H 0.07651 0.8588 0.31834 0.0
H870 H 0.0769 0.86282 0.45043 0.0
H871 H 0.10768 0.79998 0.44854 0.0
H872 H 0.10898 0.79614 0.31534 0.0
H873 H 0.06341 0.88663 0.97064 0.0
H874 H 0.07022 0.85149 0.0213 0.0
H875 H 0.11985 0.87612 0.10337 0.0
H876 H 0.11255 0.91195 0.05416 0.0
H877 H 0.09963 0.85791 0.20622 0.0
H878 H 0.12533 0.83223 0.96886 0.0
H879 H 0.12843 0.82734 0.83492 0.0
H880 H 0.07488 0.79496 0.85918 0.0
H881 H 0.07127 0.79991 0.99315 0.0
C882 C 0.0741 0.75218 0.28124 0.0
C883 C 0.05433 0.75764 0.30939 0.0
C884 C 0.08552 0.76755 0.244 0.0
C885 C 0.07744 0.78875 0.23687 0.0
C886 C 0.0579 0.79443 0.26715 0.0
C887 C 0.04635 0.7789 0.30231 0.0
C888 C 0.08859 0.80482 0.19322 0.0
C889 C 0.09122 0.80215 0.11693 0.0
C890 C 0.09308 0.82453 0.22584 0.0
C891 C 0.09255 0.827 0.30635 0.0
C892 C 0.08353 0.84586 0.34564 0.0
C893 C 0.08345 0.84814 0.42094 0.0
C894 C 0.09193 0.83154 0.45818 0.0
C895 C 0.10092 0.81276 0.41983 0.0
C896 C 0.10144 0.81057 0.34425 0.0
C897 C 0.07614 0.88442 0.99749 0.0
C898 C 0.08749 0.90199 0.00826 0.0
C899 C 0.08013 0.8642 0.02619 0.0
C900 C 0.09582 0.86091 0.06507 0.0
C901 C 0.10774 0.87821 0.07323 0.0
C902 C 0.10356 0.89864 0.04526 0.0
C903 C 0.09769 0.84046 0.10526 0.0
C904 C 0.09752 0.84224 0.18117 0.0
C905 C 0.09592 0.81974 0.07213 0.0
C906 C 0.09807 0.81643 0.99134 0.0
C907 C 0.11417 0.82412 0.94569 0.0
C908 C 0.11601 0.82134 0.8697 0.0
C909 C 0.10187 0.81083 0.83857 0.0
C910 C 0.08586 0.80304 0.88338 0.0
C911 C 0.08394 0.80578 0.95941 0.0
H912 H 0.10331 0.80872 0.77972 0.0
H913 H 0.09167 0.83333 0.51662 0.0
H914 H 0.73103 0.96629 0.28492 0.0
H915 H 0.69649 0.97114 0.2695 0.0
H916 H 0.70818 0.03118 0.15959 0.0
H917 H 0.74261 0.0262 0.17514 0.0
H918 H 0.6782 0.03436 0.28845 0.0
H919 H 0.69848 0.99067 0.06231 0.0
H920 H 0.71309 0.95751 0.99101 0.0
H921 H 0.67138 0.91886 0.11625 0.0
H922 H 0.65669 0.95178 0.18898 0.0
H923 H 0.60168 0.06937 0.10478 0.0
H924 H 0.63074 0.05829 0.15741 0.0
H925 H 0.60539 0.99819 0.2251 0.0
H926 H 0.57638 0.00909 0.17145 0.0
H927 H 0.63992 0.99037 0.14111 0.0
H928 H 0.6162 0.03342 0.35439 0.0
H929 H 0.60133 0.0652 0.43232 0.0
H930 H 0.64843 0.10348 0.34276 0.0
H931 H 0.66348 0.07202 0.26359 0.0
C932 C 0.72623 0.97996 0.25481 0.0
C933 C 0.73925 0.99574 0.23011 0.0
C934 C 0.70661 0.98284 0.24669 0.0
C935 C 0.6999 1.00159 0.21394 0.0
C936 C 0.71318 0.01664 0.18513 0.0
C937 C 0.73279 0.01366 0.19281 0.0
C938 C 0.67886 0.00652 0.21459 0.0
C939 C 0.66978 0.02492 0.25585 0.0
C940 C 0.66781 0.99338 0.17537 0.0
C941 C 0.67665 0.97363 0.13166 0.0
C942 C 0.69256 0.97507 0.07513 0.0
C943 C 0.70082 0.95633 0.03434 0.0
C944 C 0.69321 0.93608 0.04925 0.0
C945 C 0.67729 0.93454 0.10486 0.0
C946 C 0.66898 0.95323 0.14584 0.0
C947 C 0.60215 0.05403 0.13236 0.0
C948 C 0.58692 0.03998 0.13346 0.0
C949 C 0.61866 0.04779 0.16303 0.0
C950 C 0.62019 0.02741 0.19524 0.0
C951 C 0.60444 0.014 0.20065 0.0
C952 C 0.58786 0.02029 0.17031 0.0
C953 C 0.6393 0.01894 0.21234 0.0
C954 C 0.64811 0.99973 0.17486 0.0
C955 C 0.65002 0.03121 0.2559 0.0
C956 C 0.64088 0.05037 0.30245 0.0
C957 C 0.62329 0.04867 0.35069 0.0
C958 C 0.61485 0.06662 0.39527 0.0
C959 C 0.62389 0.08637 0.39231 0.0
C960 C 0.64141 0.08819 0.34486 0.0
C961 C 0.64993 0.07028 0.30023 0.0
H962 H 0.61734 0.10024 0.42692 0.0
H963 H 0.69962 0.92159 0.01759 0.0
H964 H 0.53455 0.70181 0.25401 0.0
H965 H 0.5288 0.66542 0.20804 0.0
H966 H 0.47899 0.69256 0.11975 0.0
H967 H 0.48334 0.72845 0.17381 0.0
H968 H 0.47089 0.65531 0.1633 0.0
H969 H 0.52757 0.68019 0.01333 0.0
H970 H 0.56007 0.69504 0.98943 0.0
H971 H 0.58498 0.63953 0.0874 0.0
H972 H 0.55259 0.62446 0.11249 0.0
H973 H 0.47651 0.57089 0.88097 0.0
H974 H 0.47522 0.60463 0.95521 0.0
H975 H 0.51586 0.57429 0.08207 0.0
H976 H 0.51734 0.54052 0.00816 0.0
H977 H 0.52797 0.61254 0.0205 0.0
H978 H 0.46945 0.58666 0.15695 0.0
H979 H 0.43671 0.57262 0.16816 0.0
H980 H 0.41461 0.63166 0.08136 0.0
H981 H 0.44739 0.64584 0.06762 0.0
C982 C 0.52215 0.69984 0.2262 0.0
C983 C 0.50942 0.71786 0.21709 0.0
C984 C 0.51906 0.67916 0.19892 0.0
C985 C 0.50386 0.67631 0.15841 0.0
C986 C 0.49092 0.6943 0.15029 0.0
C987 C 0.49356 0.71484 0.18015 0.0
C988 C 0.50182 0.65472 0.12298 0.0
C989 C 0.48334 0.6461 0.13137 0.0
C990 C 0.51807 0.6425 0.08176 0.0
C991 C 0.53764 0.65127 0.06515 0.0
C992 C 0.53998 0.67118 0.02988 0.0
C993 C 0.55837 0.67964 0.01615 0.0
C994 C 0.57457 0.66825 0.03696 0.0
C995 C 0.57242 0.64833 0.07124 0.0
C996 C 0.55406 0.6398 0.08512 0.0
C997 C 0.48479 0.57117 0.92587 0.0
C998 C 0.49716 0.55305 0.93828 0.0
C999 C 0.48403 0.59049 0.96822 0.0
C1000 C 0.49551 0.59193 0.02387 0.0
C1001 C 0.50696 0.57348 0.03912 0.0
C1002 C 0.50773 0.55418 0.99693 0.0
C1003 C 0.49714 0.61318 0.06124 0.0
C1004 C 0.51556 0.62176 0.05275 0.0
C1005 C 0.48077 0.62551 0.1006 0.0
C1006 C 0.46094 0.61724 0.11068 0.0
C1007 C 0.45765 0.5966 0.13975 0.0
C1008 C 0.43907 0.58861 0.14659 0.0
C1009 C 0.42357 0.60122 0.12548 0.0
C1010 C 0.42663 0.62189 0.09764 0.0
C1011 C 0.44521 0.62991 0.09026 0.0
H1012 H 0.4092 0.59499 0.13075 0.0
H1013 H 0.58879 0.67485 0.02643 0.0
H1014 H 0.8387 0.55897 0.38949 0.0
H1015 H 0.87419 0.55401 0.38945 0.0
H1016 H 0.87434 0.48865 0.29695 0.0
H1017 H 0.83904 0.49383 0.29687 0.0
H1018 H 0.89265 0.49225 0.42752 0.0
H1019 H 0.89046 0.52831 0.19083 0.0
H1020 H 0.88181 0.56008 0.12044 0.0
H1021 H 0.9131 0.60118 0.24599 0.0
H1022 H 0.92172 0.56964 0.31757 0.0
H1023 H 0.97108 0.4388 0.21259 0.0
H1024 H 0.94463 0.45634 0.29789 0.0
H1025 H 0.97206 0.51769 0.27499 0.0
H1026 H 0.996 0.50129 0.17699 0.0
H1027 H 0.94147 0.52745 0.25312 0.0
H1028 H 0.95733 0.4841 0.43915 0.0
H1029 H 0.96624 0.45348 0.51262 0.0
H1030 H 0.91144 0.42619 0.50082 0.0
H1031 H 0.90228 0.45606 0.42513 0.0
C1032 C 0.84662 0.54396 0.36654 0.0
C1033 C 0.83651 0.52689 0.34177 0.0
C1034 C 0.86667 0.54097 0.36791 0.0
C1035 C 0.87669 0.5208 0.34474 0.0
C1036 C 0.86674 0.50421 0.31616 0.0
C1037 C 0.84679 0.5073 0.31429 0.0
C1038 C 0.89769 0.51673 0.34772 0.0
C1039 C 0.90367 0.49958 0.38952 0.0
C1040 C 0.91178 0.52788 0.30302 0.0
C1041 C 0.90646 0.54675 0.26018 0.0
C1042 C 0.89532 0.54417 0.20381 0.0
C1043 C 0.89046 0.56212 0.16362 0.0
C1044 C 0.89683 0.58266 0.17894 0.0
C1045 C 0.90811 0.58528 0.23435 0.0
C1046 C 0.91298 0.56739 0.27475 0.0
C1047 C 0.97147 0.45609 0.22521 0.0
C1048 C 0.98514 0.46873 0.18428 0.0
C1049 C 0.95651 0.46611 0.27657 0.0
C1050 C 0.95585 0.48872 0.29295 0.0
C1051 C 0.97163 0.50044 0.26174 0.0
C1052 C 0.98568 0.49083 0.20603 0.0
C1053 C 0.9371 0.50066 0.32719 0.0
C1054 C 0.93128 0.51984 0.29355 0.0
C1055 C 0.92334 0.49137 0.38083 0.0
C1056 C 0.92889 0.47292 0.42664 0.0
C1057 C 0.94706 0.47168 0.45183 0.0
C1058 C 0.95228 0.45425 0.4935 0.0
C1059 C 0.93941 0.43795 0.5115 0.0
C1060 C 0.92137 0.43892 0.48721 0.0
C1061 C 0.91615 0.45617 0.44478 0.0
H1062 H 0.94344 0.42455 0.5442 0.0
H1063 H 0.89307 0.59653 0.14771 0.0
H1064 H 0.04835 0.23088 0.09904 0.0
H1065 H 0.04986 0.195 0.0366 0.0
H1066 H 0.01463 0.22218 0.88413 0.0
H1067 H 1.01233 0.25787 0.95019 0.0
H1068 H 1.00083 0.18654 0.92575 0.0
H1069 H 0.06532 0.20369 0.83451 0.0
H1070 H 0.09829 0.21608 0.83726 0.0
H1071 H 0.11064 0.16305 0.97341 0.0
H1072 H 0.07764 0.1505 0.97239 0.0
H1073 H 1.00688 0.08172 0.7473 0.0
H1074 H 1.01005 0.12043 0.7734 0.0
H1075 H 0.04524 0.10344 0.93855 0.0
H1076 H 0.04292 0.06465 0.91005 0.0
H1077 H 0.06012 0.13582 0.86914 0.0
H1078 H 0.99426 0.1224 0.97729 0.0
H1079 H 0.96092 0.11052 0.979 0.0
H1080 H 0.9512 0.15677 0.81621 0.0
H1081 H 0.98456 0.16876 0.81322 0.0
C1082 C 0.04122 0.22917 0.0515 0.0
C1083 C 0.03032 0.24703 0.029 0.0
C1084 C 0.0422 0.2087 0.01525 0.0
C1085 C 0.03261 0.20571 0.9545 0.0
C1086 C 0.02224 0.22391 0.93049 0.0
C1087 C 0.02107 0.24434 0.96758 0.0
C1088 C 0.03209 0.18332 0.92046 0.0
C1089 C 0.0139 0.17563 0.91206 0.0
C1090 C 0.04902 0.16879 0.90305 0.0
C1091 C 0.06893 0.17623 0.90374 0.0
C1092 C 0.07501 0.19475 0.86547 0.0
C1093 C 0.09372 0.20179 0.86666 0.0
C1094 C 0.10654 0.19038 0.90558 0.0
C1095 C 0.10069 0.17187 0.94329 0.0
C1096 C 0.08199 0.16477 0.94234 0.0
C1097 C 0.01535 0.08616 0.78904 0.0
C1098 C 0.0246 0.06994 0.82661 0.0
C1099 C 0.01706 0.10842 0.80433 0.0
C1100 C 0.02763 0.11509 0.859 0.0
C1101 C 0.03701 0.09888 0.8961 0.0
C1102 C 0.03559 0.07663 0.87995 0.0
C1103 C 0.02876 0.13883 0.87838 0.0
C1104 C 0.04711 0.14681 0.88266 0.0
C1105 C 1.01195 0.1536 0.89297 0.0
C1106 C 0.99197 0.14627 0.89428 0.0
C1107 C 0.98507 0.12987 0.94136 0.0
C1108 C 0.96615 0.12316 0.94272 0.0
C1109 C 0.95397 0.13283 0.89755 0.0
C1110 C 0.96066 0.14926 0.85106 0.0
C1111 C 0.97956 0.15604 0.84955 0.0
H1112 H 0.93932 0.12762 0.89872 0.0
H1113 H 0.12102 0.19586 0.90644 0.0
H1114 H 0.31133 0.02417 0.24332 0.0
H1115 H 0.34313 0.02685 0.16676 0.0
H1116 H 0.32592 0.98421 1.00278 0.0
H1117 H 0.29422 0.98096 0.08175 0.0
H1118 H 0.36161 0.97189 0.01849 0.0
H1119 H 0.33107 0.04179 0.98115 0.0
H1120 H 0.31306 0.07741 0.01644 0.0
H1121 H 0.35869 0.09614 0.13236 0.0
H1122 H 0.37685 0.06051 0.09859 0.0
H1123 H 0.44857 0.98994 0.76425 0.0
H1124 H 0.41429 0.98912 0.82212 0.0
H1125 H 0.42626 0.02728 0.00671 0.0
H1126 H 0.46032 0.02824 0.94947 0.0
H1127 H 0.39219 0.04206 0.97028 0.0
H1128 H 0.42152 0.97138 0.01375 0.0
H1129 H 0.43972 0.93589 0.97794 0.0
H1130 H 0.39632 0.91895 0.84858 0.0
H1131 H 0.37799 0.95449 0.88288 0.0
C1132 C 0.31418 0.01583 0.19008 0.0
C1133 C 0.30006 0.00282 0.16783 0.0
C1134 C 0.33243 0.01733 0.14606 0.0
C1135 C 0.33712 0.00605 0.07765 0.0
C1136 C 0.32283 0.99326 0.05477 0.0
C1137 C 0.30454 0.99164 0.09934 0.0
C1138 C 0.35715 0.00694 0.03217 0.0
C1139 C 0.36807 0.98731 0.00686 0.0
C1140 C 0.36609 0.02692 0.01762 0.0
C1141 C 0.35525 0.04841 0.03778 0.0
C1142 C 0.3372 0.05345 0.01456 0.0
C1143 C 0.32698 0.07365 0.03424 0.0
C1144 C 0.33471 0.08901 0.07673 0.0
C1145 C 0.35271 0.08422 0.09949 0.0
C1146 C 0.36299 0.06404 0.08002 0.0
C1147 C 0.44392 0.99827 0.81698 0.0
C1148 C 0.45744 0.00913 0.85186 0.0
C1149 C 0.42424 0.99768 0.8504 0.0
C1150 C 0.41749 0.00797 0.91959 0.0
C1151 C 0.4309 0.01918 0.95356 0.0
C1152 C 0.45052 0.01966 0.92055 0.0
C1153 C 0.39663 0.00705 0.95724 0.0
C1154 C 0.3856 0.02667 0.98127 0.0
C1155 C 0.3876 0.9871 0.97042 0.0
C1156 C 0.3985 0.96568 0.95021 0.0
C1157 C 0.41594 0.96015 0.97723 0.0
C1158 C 0.42626 0.94002 0.95729 0.0
C1159 C 0.41921 0.9252 0.91084 0.0
C1160 C 0.40178 0.93046 0.88444 0.0
C1161 C 0.39141 0.95059 0.90415 0.0
H1162 H 0.42723 0.90963 0.89545 0.0
H1163 H 0.32677 0.10463 0.09192 0.0
H1164 H 0.5327 0.27613 0.10483 0.0
H1165 H 0.53034 0.30682 0.02325 0.0
H1166 H 0.48792 0.34121 0.18954 0.0
H1167 H 0.48982 0.31014 0.26944 0.0
H1168 H 0.47824 0.34799 0.05819 0.0
H1169 H 0.53919 0.35034 0.16067 0.0
H1170 H 0.57193 0.33567 0.18078 0.0
H1171 H 0.59081 0.32902 0.94905 0.0
H1172 H 0.55832 0.34346 0.92743 0.0
H1173 H 0.48551 0.45805 0.95017 0.0
H1174 H 0.48431 0.42314 0.01149 0.0
H1175 H 0.53244 0.39598 0.85149 0.0
H1176 H 0.53432 0.43117 0.793 0.0
H1177 H 0.53931 0.38371 0.97188 0.0
H1178 H 0.48208 0.38204 0.86188 0.0
H1179 H 0.45039 0.39541 0.82978 0.0
H1180 H 0.42473 0.39785 0.05668 0.0
H1181 H 0.45635 0.38479 0.09028 0.0
C1182 C 0.5225 0.29001 0.12279 0.0
C1183 C 0.51143 0.29083 0.19323 0.0
C1184 C 0.52135 0.3077 0.07674 0.0
C1185 C 0.50927 0.32666 0.10067 0.0
C1186 C 0.49744 0.32691 0.16969 0.0
C1187 C 0.4985 0.30918 0.21537 0.0
C1188 C 0.50939 0.34658 0.05565 0.0
C1189 C 0.49157 0.35592 0.03983 0.0
C1190 C 0.52684 0.35658 0.02903 0.0
C1191 C 0.54629 0.34776 0.04253 0.0
C1192 C 0.55031 0.34559 0.11413 0.0
C1193 C 0.56879 0.33737 0.12579 0.0
C1194 C 0.58335 0.33137 0.06637 0.0
C1195 C 0.57951 0.33363 0.99507 0.0
C1196 C 0.56109 0.34186 0.98307 0.0
C1197 C 0.4957 0.44454 0.92785 0.0
C1198 C 0.51006 0.44739 0.86701 0.0
C1199 C 0.49496 0.42448 0.96269 0.0
C1200 C 0.50816 0.4066 0.93603 0.0
C1201 C 0.52215 0.40939 0.87386 0.0
C1202 C 0.52319 0.42955 0.84021 0.0
C1203 C 0.50809 0.38537 0.97458 0.0
C1204 C 0.52592 0.37579 0.98949 0.0
C1205 C 0.49073 0.37485 0.99856 0.0
C1206 C 0.47165 0.38262 0.97865 0.0
C1207 C 0.46972 0.38557 0.905 0.0
C1208 C 0.45176 0.39307 0.88652 0.0
C1209 C 0.43557 0.39752 0.94117 0.0
C1210 C 0.43729 0.39442 0.01441 0.0
C1211 C 0.45523 0.38695 0.0332 0.0
H1212 H 0.42167 0.40333 0.92676 0.0
H1213 H 0.59762 0.32503 0.0756 0.0
H1214 H 0.24334 0.48254 0.89537 0.0
H1215 H 0.21428 0.48859 0.8354 0.0
H1216 H 0.18414 0.52332 0.0299 0.0
H1217 H 0.21315 0.51759 0.08851 0.0
H1218 H 0.17659 0.47209 0.91016 0.0
H1219 H 0.17243 0.55547 0.98249 0.0
H1220 H 0.18903 0.5898 0.97004 0.0
H1221 H 0.20383 0.57715 0.73813 0.0
H1222 H 0.18735 0.54258 0.74962 0.0
H1223 H 0.0764 0.48634 0.88317 0.0
H1224 H 0.10884 0.48593 0.91633 0.0
H1225 H 0.12815 0.52438 0.73034 0.0
H1226 H 0.09539 0.5248 0.69655 0.0
H1227 H 0.14373 0.53956 0.83212 0.0
H1228 H 0.14104 0.46573 0.74796 0.0
H1229 H 0.12762 0.42961 0.73972 0.0
H1230 H 0.13086 0.42019 0.96651 0.0
H1231 H 0.14407 0.45631 0.97626 0.0
C1232 C 0.23081 0.49247 0.92345 0.0
C1233 C 0.23059 0.50007 0.99582 0.0
C1234 C 0.21413 0.49571 0.88965 0.0
C1235 C 0.19699 0.50677 0.92746 0.0
C1236 C 0.19722 0.51538 0.99837 0.0
C1237 C 0.21386 0.51219 0.03195 0.0
C1238 C 0.1782 0.50667 0.89748 0.0
C1239 C 0.16928 0.48686 0.89372 0.0
C1240 C 0.169 0.52569 0.87321 0.0
C1241 C 0.17881 0.5464 0.86703 0.0
C1242 C 0.17929 0.55992 0.92898 0.0
C1243 C 0.18866 0.57945 0.92208 0.0
C1244 C 0.19752 0.58564 0.85335 0.0
C1245 C 0.19699 0.57232 0.79137 0.0
C1246 C 0.18764 0.55278 0.79807 0.0
C1247 C 0.08749 0.49473 0.84898 0.0
C1248 C 0.08311 0.5056 0.78694 0.0
C1249 C 0.10624 0.49443 0.86804 0.0
C1250 C 0.12132 0.50508 0.82617 0.0
C1251 C 0.11694 0.51608 0.76425 0.0
C1252 C 0.09815 0.51623 0.74466 0.0
C1253 C 0.14139 0.50497 0.84774 0.0
C1254 C 0.15077 0.52469 0.84905 0.0
C1255 C 0.15119 0.48567 0.86884 0.0
C1256 C 0.14338 0.46384 0.86299 0.0
C1257 C 0.13878 0.456 0.79616 0.0
C1258 C 0.13122 0.43552 0.79121 0.0
C1259 C 0.12834 0.42264 0.85259 0.0
C1260 C 0.13307 0.43019 0.91901 0.0
C1261 C 0.14062 0.45066 0.92427 0.0
H1262 H 0.12248 0.40679 0.84864 0.0
H1263 H 0.20477 0.60076 0.84809 0.0
H1264 H 0.05892 0.76188 0.45731 0.0
H1265 H 0.05692 0.79706 0.52533 0.0
H1266 H 0.99436 0.80192 0.53532 0.0
H1267 H 0.99649 0.76731 0.46347 0.0
H1268 H 0.03979 0.83769 0.47382 0.0
H1269 H 0.97771 0.82819 0.71357 0.0
H1270 H 0.96347 0.79923 0.79075 0.0
H1271 H 0.01889 0.76213 0.75645 0.0
H1272 H 0.03352 0.79099 0.67999 0.0
H1273 H 1.00343 0.94163 0.62227 0.0
H1274 H 1.00378 0.90362 0.5798 0.0
H1275 H 0.03416 0.88316 0.75501 0.0
H1276 H 0.03343 0.92137 0.79929 0.0
H1277 H 1.00682 0.85416 0.72887 0.0
H1278 H 0.05747 0.89244 0.58661 0.0
H1279 H 0.06994 0.9219 0.50817 0.0
H1280 H 0.03729 0.90124 0.3431 0.0
H1281 H 0.02408 0.8721 0.42149 0.0
C1282 C 0.04474 0.77039 0.47463 0.0
C1283 C 0.02787 0.76187 0.45497 0.0
C1284 C 0.04361 0.79046 0.51344 0.0
C1285 C 0.02549 0.80212 0.53547 0.0
C1286 C 1.00847 0.79312 0.51931 0.0
C1287 C 1.00967 0.77325 0.47893 0.0
C1288 C 0.02456 0.82432 0.57106 0.0
C1289 C 0.03259 0.84131 0.52959 0.0
C1290 C 0.01521 0.829 0.64384 0.0
C1291 C 1.00664 0.81165 0.69041 0.0
C1292 C 0.98687 0.81388 0.72271 0.0
C1293 C 0.97872 0.79748 0.76631 0.0
C1294 C 0.99025 0.77882 0.77829 0.0
C1295 C 1.00996 0.77655 0.74687 0.0
C1296 C 0.01817 0.7929 0.70327 0.0
C1297 C 1.0101 0.92909 0.65226 0.0
C1298 C 0.01866 0.93464 0.7137 0.0
C1299 C 1.01024 0.9073 0.62789 0.0
C1300 C 0.01929 0.89049 0.66332 0.0
C1301 C 0.02713 0.89583 0.72658 0.0
C1302 C 0.02679 0.9177 0.75165 0.0
C1303 C 0.02175 0.8677 0.63115 0.0
C1304 C 0.01403 0.85059 0.67311 0.0
C1305 C 0.03122 0.86293 0.55831 0.0
C1306 C 0.03954 0.88023 0.51054 0.0
C1307 C 0.05273 0.89434 0.53404 0.0
C1308 C 0.05995 0.91098 0.48949 0.0
C1309 C 0.05432 0.91351 0.42085 0.0
C1310 C 0.04157 0.89931 0.39641 0.0
C1311 C 0.03419 0.88275 0.44094 0.0
H1312 H 0.05986 0.92643 0.38646 0.0
H1313 H 0.98391 0.76614 0.81204 0.0
H1314 H 0.73092 0.03361 0.33342 0.0
H1315 H 0.69782 0.03454 0.40061 0.0
H1316 H 0.71432 0.97884 0.52082 0.0
H1317 H 0.74688 0.97634 0.44533 0.0
H1318 H 0.68198 0.97184 0.49736 0.0
H1319 H 0.70209 0.03985 0.59083 0.0
H1320 H 0.71524 0.07631 0.58164 0.0
H1321 H 0.66994 0.09831 0.46197 0.0
H1322 H 0.65664 0.06193 0.46992 0.0
H1323 H 0.58921 0.02646 0.76075 0.0
H1324 H 0.62358 0.0263 0.70431 0.0
H1325 H 0.61232 0.9838 0.52867 0.0
H1326 H 0.57824 0.9832 0.58637 0.0
H1327 H 0.64223 0.03994 0.58722 0.0
H1328 H 0.65243 0.95357 0.44855 0.0
H1329 H 0.63989 0.91706 0.46772 0.0
H1330 H 0.62632 0.93148 0.69896 0.0
H1331 H 0.639 0.96796 0.68126 0.0
C1332 C 0.72756 0.0218 0.37519 0.0
C1333 C 0.74166 0.00499 0.38415 0.0
C1334 C 0.70851 0.02245 0.4146 0.0
C1335 C 0.70312 0.00707 0.46809 0.0
C1336 C 0.71769 0.991 0.48024 0.0
C1337 C 0.73657 0.98981 0.43824 0.0
C1338 C 0.68222 0.00692 0.50787 0.0
C1339 C 0.67348 0.98683 0.51731 0.0
C1340 C 0.67057 0.02627 0.53471 0.0
C1341 C 0.67845 0.04816 0.53065 0.0
C1342 C 0.69498 0.05246 0.5624 0.0
C1343 C 0.70246 0.0731 0.5574 0.0
C1344 C 0.69345 0.0896 0.52116 0.0
C1345 C 0.67691 0.08552 0.49001 0.0
C1346 C 0.66937 0.06491 0.49486 0.0
C1347 C 0.59405 0.0169 0.71044 0.0
C1348 C 0.58078 0.00465 0.6789 0.0
C1349 C 0.61382 0.01689 0.67779 0.0
C1350 C 0.62099 0.00476 0.61224 0.0
C1351 C 0.60762 0.99284 0.58009 0.0
C1352 C 0.58794 0.99259 0.61321 0.0
C1353 C 0.64222 0.00491 0.57723 0.0
C1354 C 0.6509 0.02498 0.56801 0.0
C1355 C 0.65395 0.98554 0.55209 0.0
C1356 C 0.64649 0.96356 0.56344 0.0
C1357 C 0.64684 0.94891 0.5035 0.0
C1358 C 0.63969 0.92823 0.51411 0.0
C1359 C 0.63226 0.92198 0.58449 0.0
C1360 C 0.63202 0.93637 0.64445 0.0
C1361 C 0.63916 0.95706 0.63416 0.0
H1362 H 0.62671 0.90598 0.59257 0.0
H1363 H 0.69928 0.10556 0.51729 0.0
H1364 H 0.54519 0.73461 0.38827 0.0
H1365 H 0.5481 0.70335 0.4673 0.0
H1366 H 0.49025 0.68647 0.43938 0.0
H1367 H 0.48715 0.71823 0.36368 0.0
H1368 H 0.49491 0.67804 0.57128 0.0
H1369 H 0.53522 0.66161 0.33407 0.0
H1370 H 0.56199 0.66722 0.23254 0.0
H1371 H 0.60357 0.66278 0.38096 0.0
H1372 H 0.57709 0.65733 0.48317 0.0
H1373 H 0.49697 0.56393 0.61035 0.0
H1374 H 0.49772 0.60014 0.55877 0.0
H1375 H 0.55076 0.61086 0.64398 0.0
H1376 H 0.55003 0.57456 0.69691 0.0
H1377 H 0.55127 0.62403 0.49658 0.0
H1378 H 0.51181 0.6356 0.73013 0.0
H1379 H 0.48555 0.62806 0.83037 0.0
H1380 H 0.44268 0.64104 0.69054 0.0
H1381 H 0.46874 0.64828 0.58896 0.0
C1382 C 0.53294 0.72456 0.40114 0.0
C1383 C 0.51597 0.72873 0.36987 0.0
C1384 C 0.53469 0.70647 0.44524 0.0
C1385 C 0.5196 0.69204 0.45804 0.0
C1386 C 0.50219 0.69712 0.43032 0.0
C1387 C 0.50038 0.71529 0.38708 0.0
C1388 C 0.522 0.67122 0.49739 0.0
C1389 C 0.5072 0.66623 0.5544 0.0
C1390 C 0.5383 0.65587 0.47749 0.0
C1391 C 0.55417 0.65935 0.41622 0.0
C1392 C 0.55006 0.66202 0.34494 0.0
C1393 C 0.56516 0.66511 0.28735 0.0
C1394 C 0.58441 0.66543 0.30038 0.0
C1395 C 0.58864 0.66258 0.37097 0.0
C1396 C 0.5736 0.65948 0.42871 0.0
C1397 C 0.50892 0.57384 0.61784 0.0
C1398 C 0.52345 0.56623 0.65797 0.0
C1399 C 0.50926 0.59465 0.58852 0.0
C1400 C 0.5242 0.60834 0.59795 0.0
C1401 C 0.53906 0.60061 0.63612 0.0
C1402 C 0.5386 0.57986 0.66644 0.0
C1403 C 0.52396 0.63077 0.56861 0.0
C1404 C 0.53913 0.63601 0.51379 0.0
C1405 C 0.50804 0.64635 0.59051 0.0
C1406 C 0.49226 0.64231 0.65169 0.0
C1407 C 0.4968 0.63668 0.72054 0.0
C1408 C 0.48195 0.63248 0.77765 0.0
C1409 C 0.46246 0.63403 0.76679 0.0
C1410 C 0.45779 0.63983 0.69884 0.0
C1411 C 0.4726 0.64401 0.64149 0.0
H1412 H 0.45098 0.63076 0.81106 0.0
H1413 H 0.59607 0.66782 0.25572 0.0
H1414 H 0.82651 0.48331 0.45242 0.0
H1415 H 0.85583 0.47976 0.51087 0.0
H1416 H 0.84551 0.54705 0.58845 0.0
H1417 H 0.81637 0.55046 0.52862 0.0
H1418 H 0.88183 0.53914 0.51253 0.0
H1419 H 0.84246 0.50335 0.7076 0.0
H1420 H 0.8204 0.47556 0.75786 0.0
H1421 H 0.86298 0.42442 0.66576 0.0
H1422 H 0.8852 0.45192 0.61419 0.0
H1423 H 0.9638 0.54311 0.69707 0.0
H1424 H 0.93142 0.54486 0.66086 0.0
H1425 H 0.93558 0.47466 0.62956 0.0
H1426 H 0.96774 0.47282 0.6677 0.0
H1427 H 0.9018 0.48382 0.68115 0.0
H1428 H 0.94206 0.5162 0.49116 0.0
H1429 H 0.96398 0.54036 0.41928 0.0
H1430 H 0.92181 0.59468 0.47804 0.0
H1431 H 0.89963 0.5707 0.5503 0.0
C1432 C 0.82991 0.4969 0.48563 0.0
C1433 C 0.81888 0.517 0.48759 0.0
C1434 C 0.84686 0.495 0.51823 0.0
C1435 C 0.85304 0.51315 0.55433 0.0
C1436 C 0.84114 0.53277 0.5611 0.0
C1437 C 0.82423 0.53463 0.52833 0.0
C1438 C 0.87268 0.51233 0.57875 0.0
C1439 C 0.88613 0.52737 0.55065 0.0
C1440 C 0.87872 0.49618 0.62517 0.0
C1441 C 0.86542 0.47969 0.65665 0.0
C1442 C 0.84706 0.48618 0.6977 0.0
C1443 C 0.83454 0.47048 0.72648 0.0
C1444 C 0.84027 0.44824 0.71491 0.0
C1445 C 0.85856 0.44165 0.67467 0.0
C1446 C 0.87113 0.45728 0.64574 0.0
C1447 C 0.95786 0.52802 0.68227 0.0
C1448 C 0.96852 0.50782 0.68517 0.0
C1449 C 0.9393 0.52905 0.66079 0.0
C1450 C 0.931 0.50995 0.63987 0.0
C1451 C 0.94156 0.48974 0.64407 0.0
C1452 C 0.96002 0.48868 0.66624 0.0
C1453 C 0.91124 0.51089 0.61552 0.0
C1454 C 0.8977 0.49581 0.64334 0.0
C1455 C 0.90538 0.52664 0.56664 0.0
C1456 C 0.91918 0.5415 0.52667 0.0
C1457 C 0.93749 0.53325 0.48921 0.0
C1458 C 0.94998 0.54695 0.44825 0.0
C1459 C 0.94434 0.56909 0.44428 0.0
C1460 C 0.9262 0.57753 0.4813 0.0
C1461 C 0.91365 0.56384 0.52217 0.0
H1462 H 0.95399 0.57967 0.41234 0.0
H1463 H 0.83055 0.43611 0.73721 0.0
loop_
_geom_bond_atom_site_label_1
_geom_bond_atom_site_label_2
_geom_bond_distance
_geom_bond_site_symmetry_2
_ccdc_geom_bond_type
C0 N1 1.317 . S
C0 N2 1.348 . S
C0 C3 1.485 . S
N1 C0 1.317 . S
N1 N5 1.370 . S
N2 C0 1.348 . S
N2 C4 1.346 . S
C3 C0 1.485 . S
C3 H7 0.960 . S
C3 H8 0.961 . S
C3 H9 0.960 . S
C4 N2 1.346 . S
C4 N5 1.307 . S
C4 C6 1.486 . S
N5 N1 1.370 . S
N5 C4 1.307 . S
C6 C4 1.486 . S
C6 H10 0.960 . S
C6 H11 0.960 . S
C6 H12 0.959 . S
H7 C3 0.960 . S
H8 C3 0.961 . S
H9 C3 0.960 . S
H10 C6 0.960 . S
H11 C6 0.960 . S
H12 C6 0.959 . S
C13 N14 1.317 . S
C13 N15 1.348 . S
C13 C16 1.485 . S
N14 C13 1.317 . S
N14 N18 1.370 . S
N15 C13 1.348 . S
N15 C17 1.346 . S
C16 C13 1.485 . S
C16 H20 0.960 1_655 S
C16 H21 0.961 . S
C16 H22 0.960 . S
C17 N15 1.346 . S
C17 N18 1.307 . S
C17 C19 1.486 . S
N18 N14 1.370 . S
N18 C17 1.307 . S
C19 C17 1.486 . S
C19 H23 0.960 . S
C19 H24 0.960 1_655 S
C19 H25 0.960 1_655 S
H20 C16 0.960 1_455 S
H21 C16 0.961 . S
H22 C16 0.960 . S
H23 C19 0.960 . S
H24 C19 0.960 1_455 S
H25 C19 0.960 1_455 S
C26 N27 1.317 . S
C26 N28 1.348 . S
C26 C29 1.485 . S
N27 C26 1.317 . S
N27 N31 1.370 . S
N28 C26 1.348 . S
N28 C30 1.347 . S
C29 C26 1.485 . S
C29 H33 0.960 1_565 S
C29 H34 0.961 . S
C29 H35 0.960 . S
C30 N28 1.347 . S
C30 N31 1.311 . S
C30 C32 1.484 . S
N31 N27 1.370 . S
N31 C30 1.311 . S
C32 C30 1.484 . S
C32 H36 0.957 . S
C32 H37 0.963 1_565 S
C32 H38 0.959 1_565 S
H33 C29 0.960 1_545 S
H34 C29 0.961 . S
H35 C29 0.960 . S
H36 C32 0.957 . S
H37 C32 0.963 1_545 S
H38 C32 0.959 1_545 S
C39 N40 1.317 . S
C39 N41 1.348 . S
C39 C42 1.485 . S
N40 C39 1.317 . S
N40 N44 1.370 . S
N41 C39 1.348 . S
N41 C43 1.346 . S
C42 C39 1.485 . S
C42 H46 0.960 . S
C42 H47 0.961 . S
C42 H48 0.960 . S
C43 N41 1.346 . S
C43 N44 1.307 . S
C43 C45 1.486 . S
N44 N40 1.370 . S
N44 C43 1.307 . S
C45 C43 1.486 . S
C45 H49 0.960 1_554 S
C45 H50 0.960 1_554 S
C45 H51 0.959 1_554 S
H46 C42 0.960 . S
H47 C42 0.961 . S
H48 C42 0.960 . S
H49 C45 0.960 1_556 S
H50 C45 0.960 1_556 S
H51 C45 0.959 1_556 S
C52 N53 1.317 . S
C52 N54 1.348 1_556 S
C52 C55 1.485 . S
N53 C52 1.317 . S
N53 N57 1.370 1_556 S
N54 C52 1.348 1_554 S
N54 C56 1.346 . S
C55 C52 1.485 . S
C55 H59 0.960 . S
C55 H60 0.961 . S
C55 H61 0.960 . S
C56 N54 1.346 . S
C56 N57 1.307 . S
C56 C58 1.486 . S
N57 N53 1.370 1_554 S
N57 C56 1.307 . S
C58 C56 1.486 . S
C58 H62 0.960 . S
C58 H63 0.960 . S
C58 H64 0.959 . S
H59 C55 0.960 . S
H60 C55 0.961 . S
H61 C55 0.960 . S
H62 C58 0.960 . S
H63 C58 0.960 . S
H64 C58 0.959 . S
C65 N66 1.317 . S
C65 N67 1.348 . S
C65 C68 1.485 . S
N66 C65 1.317 . S
N66 N70 1.370 . S
N67 C65 1.348 . S
N67 C69 1.346 . S
C68 C65 1.485 . S
C68 H72 0.960 1_554 S
C68 H73 0.961 . S
C68 H74 0.960 1_554 S
C69 N67 1.346 . S
C69 N70 1.307 . S
C69 C71 1.486 . S
N70 N66 1.370 . S
N70 C69 1.307 . S
C71 C69 1.486 . S
C71 H75 0.960 . S
C71 H76 0.960 . S
C71 H77 0.959 . S
H72 C68 0.960 1_556 S
H73 C68 0.961 . S
H74 C68 0.960 1_556 S
H75 C71 0.960 . S
H76 C71 0.960 . S
H77 C71 0.959 . S
C78 N79 1.317 . S
C78 N80 1.348 . S
C78 C81 1.485 . S
N79 C78 1.317 . S
N79 N83 1.370 . S
N80 C78 1.348 . S
N80 C82 1.346 . S
C81 C78 1.485 . S
C81 H85 0.976 . S
C81 H86 0.951 1_545 S
C81 H87 0.954 1_545 S
C82 N80 1.346 . S
C82 N83 1.307 . S
C82 C84 1.486 . S
N83 N79 1.370 . S
N83 C82 1.307 . S
C84 C82 1.486 . S
C84 H88 0.960 1_545 S
C84 H89 0.960 . S
C84 H90 0.959 . S
H85 C81 0.976 . S
H86 C81 0.951 1_565 S
H87 C81 0.954 1_565 S
H88 C84 0.960 1_565 S
H89 C84 0.960 . S
H90 C84 0.959 . S
C91 N92 1.317 . S
C91 N93 1.348 . S
C91 C94 1.485 . S
N92 C91 1.317 . S
N92 N96 1.370 . S
N93 C91 1.348 . S
N93 C95 1.346 . S
C94 C91 1.485 . S
C94 H98 0.960 . S
C94 H99 0.961 . S
C94 H100 0.960 . S
C95 N93 1.346 . S
C95 N96 1.307 . S
C95 C97 1.486 . S
N96 N92 1.370 . S
N96 C95 1.307 . S
C97 C95 1.486 . S
C97 H101 0.960 . S
C97 H102 0.960 . S
C97 H103 0.959 . S
H98 C94 0.960 . S
H99 C94 0.961 . S
H100 C94 0.960 . S
H101 C97 0.960 . S
H102 C97 0.960 . S
H103 C97 0.959 . S
Dy104 O107 2.309 1_545 S
Dy104 O109 2.387 1_655 S
Dy104 O110 2.387 . S
Dy104 O112 2.352 . S
Dy104 O114 2.293 1_655 S
Dy104 O118 2.259 1_655 S
Dy104 C126 2.738 . S
Dy105 O108 2.298 . S
Dy105 O111 2.275 1_455 S
Dy105 O113 2.307 1_565 S
Dy105 O115 2.395 . S
Dy105 O116 2.379 . S
Dy105 O119 2.339 . S
Dy105 C135 2.738 . S
C106 O118 1.254 1_565 S
C106 O119 1.257 . S
O107 Dy104 2.309 1_565 S
O107 C117 1.266 1_655 S
O108 Dy105 2.298 . S
O108 C117 1.236 . S
O109 Dy104 2.387 1_455 S
O109 C126 1.244 1_455 S
O110 Dy104 2.387 . S
O110 C126 1.260 . S
O111 Dy105 2.275 1_655 S
O111 C127 1.254 1_565 S
O112 Dy104 2.352 . S
O112 C127 1.257 . S
O113 Dy105 2.307 1_545 S
O113 C128 1.266 . S
O114 Dy104 2.293 1_455 S
O114 C128 1.236 . S
O115 Dy105 2.395 . S
O115 C135 1.255 . S
O116 Dy105 2.379 . S
O116 C135 1.249 . S
C117 O107 1.266 1_455 S
C117 O108 1.236 . S
O118 Dy104 2.259 1_455 S
O118 C106 1.254 1_545 S
O119 Dy105 2.339 . S
O119 C106 1.257 . S
C120 C123 1.342 1_655 S
C120 C124 1.329 . S
C120 C126 1.516 . S
C121 C122 1.347 . S
C121 C125 1.281 1_455 S
C122 C121 1.347 . S
C122 C123 1.371 . S
C122 H136 0.930 . S
C123 C120 1.342 1_455 S
C123 C122 1.371 . S
C123 H137 0.931 . S
C124 C120 1.329 . S
C124 C125 1.433 . S
C124 H138 0.931 . S
C125 C121 1.281 1_655 S
C125 C124 1.433 . S
C125 H139 0.933 . S
C126 Dy104 2.738 . S
C126 O109 1.244 1_655 S
C126 O110 1.260 . S
C126 C120 1.516 . S
C127 O111 1.254 1_545 S
C127 O112 1.257 . S
C128 O113 1.266 . S
C128 O114 1.236 . S
C129 C132 1.344 . S
C129 C133 1.328 . S
C129 C135 1.516 . S
C130 C131 1.311 . S
C130 C134 1.323 . S
C131 C130 1.311 . S
C131 C132 1.362 1_554 S
C131 H140 0.933 1_455 S
C132 C129 1.344 . S
C132 C131 1.362 1_556 S
C132 H141 0.931 1_455 S
C133 C129 1.328 . S
C133 C134 1.433 1_556 S
C133 H142 0.931 . S
C134 C130 1.323 . S
C134 C133 1.433 1_554 S
C134 H143 0.933 . S
C135 Dy105 2.738 . S
C135 O115 1.255 . S
C135 O116 1.249 . S
C135 C129 1.516 . S
H136 C122 0.930 . S
H137 C123 0.931 . S
H138 C124 0.931 . S
H139 C125 0.933 . S
H140 C131 0.933 1_655 S
H141 C132 0.931 1_655 S
H142 C133 0.931 . S
H143 C134 0.933 . S
Dy144 O147 2.307 . S
Dy144 O149 2.395 1_565 S
Dy144 O150 2.379 . S
Dy144 O152 2.339 . S
Dy144 O154 2.298 . S
Dy144 O158 2.275 1_565 S
Dy144 C166 2.738 . S
Dy145 O148 2.298 . S
Dy145 O151 2.275 1_545 S
Dy145 O153 2.307 . S
Dy145 O155 2.395 1_545 S
Dy145 O156 2.379 . S
Dy145 O159 2.339 . S
Dy145 C175 2.738 . S
C146 O158 1.254 . S
C146 O159 1.257 . S
O147 Dy144 2.307 . S
O147 C157 1.266 . S
O148 Dy145 2.298 . S
O148 C157 1.236 1_545 S
O149 Dy144 2.395 1_545 S
O149 C166 1.255 1_545 S
O150 Dy144 2.379 . S
O150 C166 1.249 . S
O151 Dy145 2.275 1_565 S
O151 C167 1.254 . S
O152 Dy144 2.339 . S
O152 C167 1.257 . S
O153 Dy145 2.307 . S
O153 C168 1.266 . S
O154 Dy144 2.298 . S
O154 C168 1.236 1_565 S
O155 Dy145 2.395 1_565 S
O155 C175 1.255 1_565 S
O156 Dy145 2.379 . S
O156 C175 1.249 . S
C157 O147 1.266 . S
C157 O148 1.236 1_565 S
O158 Dy144 2.275 1_545 S
O158 C146 1.254 . S
O159 Dy145 2.339 . S
O159 C146 1.257 . S
C160 C163 1.344 1_565 S
C160 C164 1.328 . S
C160 C166 1.516 . S
C161 C162 1.304 1_565 S
C161 C165 1.323 . S
C162 C161 1.304 1_545 S
C162 C163 1.371 . S
C162 H176 0.930 . S
C163 C160 1.344 1_545 S
C163 C162 1.371 . S
C163 H177 0.931 . S
C164 C160 1.328 . S
C164 C165 1.433 . S
C164 H178 0.931 . S
C165 C161 1.323 . S
C165 C164 1.433 . S
C165 H179 0.933 . S
C166 Dy144 2.738 . S
C166 O149 1.255 1_565 S
C166 O150 1.249 . S
C166 C160 1.516 . S
C167 O151 1.254 . S
C167 O152 1.257 . S
C168 O153 1.266 . S
C168 O154 1.236 1_545 S
C169 C172 1.344 1_545 S
C169 C173 1.328 . S
C169 C175 1.516 . S
C170 C171 1.304 1_545 S
C170 C174 1.323 . S
C171 C170 1.304 1_565 S
C171 C172 1.371 . S
C171 H180 0.930 . S
C172 C169 1.344 1_565 S
C172 C171 1.371 . S
C172 H181 0.931 . S
C173 C169 1.328 . S
C173 C174 1.433 . S
C173 H182 0.931 . S
C174 C170 1.323 . S
C174 C173 1.433 . S
C174 H183 0.933 1_556 S
C175 Dy145 2.738 . S
C175 O155 1.255 1_545 S
C175 O156 1.249 . S
C175 C169 1.516 . S
H176 C162 0.930 . S
H177 C163 0.931 . S
H178 C164 0.931 . S
H179 C165 0.933 . S
H180 C171 0.930 . S
H181 C172 0.931 . S
H182 C173 0.931 . S
H183 C174 0.933 1_554 S
Dy184 O187 2.307 . S
Dy184 O189 2.395 . S
Dy184 O190 2.379 . S
Dy184 O192 2.339 . S
Dy184 O194 2.298 . S
Dy184 O198 2.275 . S
Dy184 C206 2.738 . S
Dy185 O188 2.298 . S
Dy185 O191 2.275 . S
Dy185 O193 2.307 . S
Dy185 O195 2.395 . S
Dy185 O196 2.379 . S
Dy185 O199 2.339 . S
Dy185 C215 2.738 . S
C186 O198 1.254 . S
C186 O199 1.257 . S
O187 Dy184 2.307 . S
O187 C197 1.266 . S
O188 Dy185 2.298 . S
O188 C197 1.236 . S
O189 Dy184 2.395 . S
O189 C206 1.255 . S
O190 Dy184 2.379 . S
O190 C206 1.249 . S
O191 Dy185 2.275 . S
O191 C207 1.254 . S
O192 Dy184 2.339 . S
O192 C207 1.257 . S
O193 Dy185 2.307 . S
O193 C208 1.266 . S
O194 Dy184 2.298 . S
O194 C208 1.236 . S
O195 Dy185 2.395 . S
O195 C215 1.255 . S
O196 Dy185 2.379 . S
O196 C215 1.249 . S
C197 O187 1.266 . S
C197 O188 1.236 . S
O198 Dy184 2.275 . S
O198 C186 1.254 . S
O199 Dy185 2.339 . S
O199 C186 1.257 . S
C200 C203 1.344 . S
C200 C204 1.328 . S
C200 C206 1.516 . S
C201 C202 1.304 . S
C201 C205 1.323 . S
C202 C201 1.304 . S
C202 C203 1.371 . S
C202 H216 0.930 1_556 S
C203 C200 1.344 . S
C203 C202 1.371 . S
C203 H217 0.931 . S
C204 C200 1.328 . S
C204 C205 1.433 . S
C204 H218 0.931 . S
C205 C201 1.323 . S
C205 C204 1.433 . S
C205 H219 0.933 . S
C206 Dy184 2.738 . S
C206 O189 1.255 . S
C206 O190 1.249 . S
C206 C200 1.516 . S
C207 O191 1.254 . S
C207 O192 1.257 . S
C208 O193 1.266 . S
C208 O194 1.236 . S
C209 C212 1.344 . S
C209 C213 1.328 . S
C209 C215 1.516 . S
C210 C211 1.304 . S
C210 C214 1.323 . S
C211 C210 1.304 . S
C211 C212 1.371 . S
C211 H220 0.930 . S
C212 C209 1.344 . S
C212 C211 1.371 . S
C212 H221 0.931 . S
C213 C209 1.328 . S
C213 C214 1.433 . S
C213 H222 0.931 . S
C214 C210 1.323 . S
C214 C213 1.433 . S
C214 H223 0.933 . S
C215 Dy185 2.738 . S
C215 O195 1.255 . S
C215 O196 1.249 . S
C215 C209 1.516 . S
H216 C202 0.930 1_554 S
H217 C203 0.931 . S
H218 C204 0.931 . S
H219 C205 0.933 . S
H220 C211 0.930 . S
H221 C212 0.931 . S
H222 C213 0.931 . S
H223 C214 0.933 . S
Dy224 O227 2.307 1_455 S
Dy224 O229 2.395 . S
Dy224 O230 2.379 . S
Dy224 O232 2.339 . S
Dy224 O234 2.298 . S
Dy224 O238 2.275 . S
Dy224 C246 2.738 . S
Dy225 O228 2.298 . S
Dy225 O231 2.275 1_655 S
Dy225 O233 2.307 1_655 S
Dy225 O235 2.395 . S
Dy225 O236 2.379 . S
Dy225 O239 2.339 1_655 S
Dy225 C255 2.738 . S
C226 O238 1.254 . S
C226 O239 1.256 . S
O227 Dy224 2.307 1_655 S
O227 C237 1.266 . S
O228 Dy225 2.298 . S
O228 C237 1.236 . S
O229 Dy224 2.395 . S
O229 C246 1.255 . S
O230 Dy224 2.379 . S
O230 C246 1.249 . S
O231 Dy225 2.275 1_455 S
O231 C247 1.254 . S
O232 Dy224 2.339 . S
O232 C247 1.257 . S
O233 Dy225 2.307 1_455 S
O233 C248 1.266 . S
O234 Dy224 2.298 . S
O234 C248 1.236 . S
O235 Dy225 2.395 . S
O235 C255 1.255 . S
O236 Dy225 2.379 . S
O236 C255 1.249 . S
C237 O227 1.266 . S
C237 O228 1.236 . S
O238 Dy224 2.275 . S
O238 C226 1.254 . S
O239 Dy225 2.339 1_455 S
O239 C226 1.256 . S
C240 C243 1.344 . S
C240 C244 1.328 . S
C240 C246 1.516 . S
C241 C242 1.304 . S
C241 C245 1.323 . S
C242 C241 1.304 . S
C242 C243 1.371 . S
C242 H256 0.930 . S
C243 C240 1.344 . S
C243 C242 1.371 . S
C243 H257 0.931 . S
C244 C240 1.328 . S
C244 C245 1.433 . S
C244 H258 0.931 . S
C245 C241 1.323 . S
C245 C244 1.433 . S
C245 H259 0.933 . S
C246 Dy224 2.738 . S
C246 O229 1.255 . S
C246 O230 1.249 . S
C246 C240 1.516 . S
C247 O231 1.254 . S
C247 O232 1.257 . S
C248 O233 1.266 . S
C248 O234 1.236 . S
C249 C252 1.347 . S
C249 C253 1.328 . S
C249 C255 1.516 . S
C250 C251 1.304 . S
C250 C254 1.323 . S
C251 C250 1.304 . S
C251 C252 1.366 1_554 S
C251 H260 0.930 . S
C252 C249 1.347 . S
C252 C251 1.366 1_556 S
C252 H261 0.934 . S
C253 C249 1.328 . S
C253 C254 1.433 1_556 S
C253 H262 0.931 . S
C254 C250 1.323 . S
C254 C253 1.433 1_554 S
C254 H263 0.933 . S
C255 Dy225 2.738 . S
C255 O235 1.255 . S
C255 O236 1.249 . S
C255 C249 1.516 . S
H256 C242 0.930 . S
H257 C243 0.931 . S
H258 C244 0.931 . S
H259 C245 0.933 . S
H260 C251 0.930 . S
H261 C252 0.934 . S
H262 C253 0.931 . S
H263 C254 0.933 . S
H264 C282 0.951 . S
H265 C284 0.951 . S
H266 C286 0.950 . S
H267 C287 0.950 . S
H268 C289 0.950 . S
H269 C292 0.950 . S
H270 C293 0.950 . S
H271 C295 0.950 . S
H272 C296 0.950 . S
H273 C297 0.951 . S
H274 C299 0.951 . S
H275 C301 0.950 . S
H276 C302 0.950 . S
H277 C304 0.950 . S
H278 C307 0.950 . S
H279 C308 0.950 . S
H280 C310 0.950 . S
H281 C311 0.950 . S
C282 H264 0.951 . S
C282 C283 1.366 . S
C282 C284 1.388 . S
C283 C282 1.366 . S
C283 C287 1.385 1_545 S
C284 H265 0.951 . S
C284 C282 1.388 . S
C284 C285 1.366 . S
C285 C284 1.366 . S
C285 C286 1.414 1_545 S
C285 C288 1.499 . S
C286 H266 0.950 . S
C286 C285 1.414 1_565 S
C286 C287 1.374 . S
C287 H267 0.950 . S
C287 C283 1.385 1_565 S
C287 C286 1.374 . S
C288 C285 1.499 . S
C288 C289 1.373 1_545 S
C288 C290 1.389 . S
C289 H268 0.950 . S
C289 C288 1.373 1_565 S
C289 C305 1.377 . S
C290 C288 1.389 . S
C290 C291 1.524 . S
C290 C304 1.377 . S
C291 C290 1.524 . S
C291 C292 1.397 . S
C291 C296 1.363 . S
C292 H269 0.950 . S
C292 C291 1.397 . S
C292 C293 1.334 . S
C293 H270 0.950 . S
C293 C292 1.334 . S
C293 C294 1.287 . S
C294 C293 1.287 . S
C294 C295 1.524 . S
C294 H313 0.913 . S
C295 H271 0.950 . S
C295 C294 1.524 . S
C295 C296 1.415 . S
C296 H272 0.950 . S
C296 C291 1.363 . S
C296 C295 1.415 . S
C297 H273 0.951 . S
C297 C298 1.366 1_565 S
C297 C299 1.388 . S
C298 C297 1.366 1_545 S
C298 C302 1.385 . S
C299 H274 0.951 . S
C299 C297 1.388 . S
C299 C300 1.366 1_565 S
C300 C299 1.366 1_545 S
C300 C301 1.414 . S
C300 C303 1.499 . S
C301 H275 0.950 . S
C301 C300 1.414 . S
C301 C302 1.374 . S
C302 H276 0.950 . S
C302 C298 1.385 . S
C302 C301 1.374 . S
C303 C300 1.499 . S
C303 C304 1.373 . S
C303 C305 1.389 1_545 S
C304 H277 0.950 . S
C304 C290 1.377 . S
C304 C303 1.373 . S
C305 C289 1.377 . S
C305 C303 1.389 1_565 S
C305 C306 1.524 . S
C306 C305 1.524 . S
C306 C307 1.397 . S
C306 C311 1.363 . S
C307 H278 0.950 . S
C307 C306 1.397 . S
C307 C308 1.334 . S
C308 H279 0.950 . S
C308 C307 1.334 . S
C308 C309 1.287 . S
C309 C308 1.287 . S
C309 C310 1.524 . S
C309 H312 0.999 . S
C310 H280 0.950 . S
C310 C309 1.524 . S
C310 C311 1.415 . S
C311 H281 0.950 . S
C311 C306 1.363 . S
C311 C310 1.415 . S
H312 C309 0.999 . S
H313 C294 0.913 . S
H314 C332 0.951 . S
H315 C334 0.951 . S
H316 C336 0.950 . S
H317 C337 0.950 . S
H318 C339 0.950 . S
H319 C342 0.950 . S
H320 C343 0.950 . S
H321 C345 0.950 . S
H322 C346 0.950 . S
H323 C347 0.951 . S
H324 C349 0.951 . S
H325 C351 0.950 . S
H326 C352 0.950 . S
H327 C354 0.950 . S
H328 C357 0.950 . S
H329 C358 0.950 . S
H330 C360 0.950 . S
H331 C361 0.950 . S
C332 H314 0.951 . S
C332 C333 1.366 . S
C332 C334 1.388 . S
C333 C332 1.366 . S
C333 C337 1.385 . S
C334 H315 0.951 . S
C334 C332 1.388 . S
C334 C335 1.366 . S
C335 C334 1.366 . S
C335 C336 1.414 . S
C335 C338 1.499 . S
C336 H316 0.950 . S
C336 C335 1.414 . S
C336 C337 1.374 . S
C337 H317 0.950 . S
C337 C333 1.385 . S
C337 C336 1.374 . S
C338 C335 1.499 . S
C338 C339 1.373 . S
C338 C340 1.389 . S
C339 H318 0.950 . S
C339 C338 1.373 . S
C339 C355 1.377 . S
C340 C338 1.389 . S
C340 C341 1.524 . S
C340 C354 1.377 . S
C341 C340 1.524 . S
C341 C342 1.397 . S
C341 C346 1.363 . S
C342 H319 0.950 . S
C342 C341 1.397 . S
C342 C343 1.334 . S
C343 H320 0.950 . S
C343 C342 1.334 . S
C343 C344 1.287 . S
C344 C343 1.287 . S
C344 C345 1.524 . S
C344 H363 0.913 . S
C345 H321 0.950 . S
C345 C344 1.524 . S
C345 C346 1.415 . S
C346 H322 0.950 . S
C346 C341 1.363 . S
C346 C345 1.415 . S
C347 H323 0.951 . S
C347 C348 1.366 . S
C347 C349 1.388 . S
C348 C347 1.366 . S
C348 C352 1.385 . S
C349 H324 0.951 . S
C349 C347 1.388 . S
C349 C350 1.366 . S
C350 C349 1.366 . S
C350 C351 1.414 . S
C350 C353 1.499 . S
C351 H325 0.950 . S
C351 C350 1.414 . S
C351 C352 1.374 . S
C352 H326 0.950 . S
C352 C348 1.385 . S
C352 C351 1.374 . S
C353 C350 1.499 . S
C353 C354 1.373 . S
C353 C355 1.389 . S
C354 H327 0.950 . S
C354 C340 1.377 . S
C354 C353 1.373 . S
C355 C339 1.377 . S
C355 C353 1.389 . S
C355 C356 1.524 . S
C356 C355 1.524 . S
C356 C357 1.397 . S
C356 C361 1.363 . S
C357 H328 0.950 . S
C357 C356 1.397 . S
C357 C358 1.334 . S
C358 H329 0.950 . S
C358 C357 1.334 . S
C358 C359 1.287 . S
C359 C358 1.287 . S
C359 C360 1.524 . S
C359 H362 0.999 . S
C360 H330 0.950 . S
C360 C359 1.524 . S
C360 C361 1.415 . S
C361 H331 0.950 . S
C361 C356 1.363 . S
C361 C360 1.415 . S
H362 C359 0.999 . S
H363 C344 0.913 . S
H364 C382 0.962 . S
H365 C384 0.951 . S
H366 C386 0.950 . S
H367 C387 0.950 . S
H368 C389 0.950 . S
H369 C392 0.950 . S
H370 C393 0.950 . S
H371 C395 0.950 . S
H372 C396 0.950 . S
H373 C397 0.951 . S
H374 C399 0.951 . S
H375 C401 0.950 . S
H376 C402 0.950 . S
H377 C404 0.950 . S
H378 C407 0.950 . S
H379 C408 0.950 . S
H380 C410 0.950 . S
H381 C411 0.950 . S
C382 H364 0.962 . S
C382 C383 1.366 . S
C382 C384 1.388 . S
C383 C382 1.366 . S
C383 C387 1.385 . S
C384 H365 0.951 . S
C384 C382 1.388 . S
C384 C385 1.366 . S
C385 C384 1.366 . S
C385 C386 1.414 . S
C385 C388 1.499 . S
C386 H366 0.950 . S
C386 C385 1.414 . S
C386 C387 1.374 . S
C387 H367 0.950 . S
C387 C383 1.385 . S
C387 C386 1.374 . S
C388 C385 1.499 . S
C388 C389 1.373 . S
C388 C390 1.389 . S
C389 H368 0.950 . S
C389 C388 1.373 . S
C389 C405 1.377 . S
C390 C388 1.389 . S
C390 C391 1.524 . S
C390 C404 1.377 . S
C391 C390 1.524 . S
C391 C392 1.397 . S
C391 C396 1.363 . S
C392 H369 0.950 . S
C392 C391 1.397 . S
C392 C393 1.334 . S
C393 H370 0.950 . S
C393 C392 1.334 . S
C393 C394 1.287 . S
C394 C393 1.287 . S
C394 C395 1.524 . S
C394 H413 0.913 . S
C395 H371 0.950 . S
C395 C394 1.524 . S
C395 C396 1.415 . S
C396 H372 0.950 . S
C396 C391 1.363 . S
C396 C395 1.415 . S
C397 H373 0.951 . S
C397 C398 1.366 . S
C397 C399 1.388 . S
C398 C397 1.366 . S
C398 C402 1.385 . S
C399 H374 0.951 . S
C399 C397 1.388 . S
C399 C400 1.366 . S
C400 C399 1.366 . S
C400 C401 1.414 . S
C400 C403 1.499 . S
C401 H375 0.950 . S
C401 C400 1.414 . S
C401 C402 1.374 . S
C402 H376 0.950 . S
C402 C398 1.385 . S
C402 C401 1.374 . S
C403 C400 1.499 . S
C403 C404 1.373 . S
C403 C405 1.389 . S
C404 H377 0.950 . S
C404 C390 1.377 . S
C404 C403 1.373 . S
C405 C389 1.377 . S
C405 C403 1.389 . S
C405 C406 1.524 . S
C406 C405 1.524 . S
C406 C407 1.397 . S
C406 C411 1.363 . S
C407 H378 0.950 . S
C407 C406 1.397 . S
C407 C408 1.334 . S
C408 H379 0.950 . S
C408 C407 1.334 . S
C408 C409 1.287 . S
C409 C408 1.287 . S
C409 C410 1.524 . S
C409 H412 0.999 . S
C410 H380 0.950 . S
C410 C409 1.524 . S
C410 C411 1.415 . S
C411 H381 0.950 . S
C411 C406 1.363 . S
C411 C410 1.415 . S
H412 C409 0.999 . S
H413 C394 0.913 . S
H414 C432 0.951 . S
H415 C434 0.951 . S
H416 C436 0.950 . S
H417 C437 0.950 . S
H418 C439 0.950 1_655 S
H419 C442 0.950 . S
H420 C443 0.950 . S
H421 C445 0.950 . S
H422 C446 0.950 . S
H423 C447 0.951 1_655 S
H424 C449 0.950 1_655 S
H425 C451 0.950 . S
H426 C452 0.950 . S
H427 C454 0.950 . S
H428 C457 0.950 . S
H429 C458 0.950 . S
H430 C460 0.950 . S
H431 C461 0.950 . S
C432 H414 0.951 . S
C432 C433 1.366 . S
C432 C434 1.388 . S
C433 C432 1.366 . S
C433 C437 1.385 . S
C434 H415 0.951 . S
C434 C432 1.388 . S
C434 C435 1.366 . S
C435 C434 1.366 . S
C435 C436 1.414 . S
C435 C438 1.499 . S
C436 H416 0.950 . S
C436 C435 1.414 . S
C436 C437 1.374 . S
C437 H417 0.950 . S
C437 C433 1.385 . S
C437 C436 1.374 . S
C438 C435 1.499 . S
C438 C439 1.373 . S
C438 C440 1.389 . S
C439 H418 0.950 1_455 S
C439 C438 1.373 . S
C439 C455 1.376 . S
C440 C438 1.389 . S
C440 C441 1.524 . S
C440 C454 1.377 . S
C441 C440 1.524 . S
C441 C442 1.397 . S
C441 C446 1.363 . S
C442 H419 0.950 . S
C442 C441 1.397 . S
C442 C443 1.334 . S
C443 H420 0.950 . S
C443 C442 1.334 . S
C443 C444 1.287 . S
C444 C443 1.287 . S
C444 C445 1.524 . S
C444 H463 0.913 . S
C445 H421 0.950 . S
C445 C444 1.524 . S
C445 C446 1.415 . S
C446 H422 0.950 . S
C446 C441 1.363 . S
C446 C445 1.415 . S
C447 H423 0.951 1_455 S
C447 C448 1.366 . S
C447 C449 1.388 . S
C448 C447 1.366 . S
C448 C452 1.385 . S
C449 H424 0.950 1_455 S
C449 C447 1.388 . S
C449 C450 1.366 . S
C450 C449 1.366 . S
C450 C451 1.414 . S
C450 C453 1.499 . S
C451 H425 0.950 . S
C451 C450 1.414 . S
C451 C452 1.374 . S
C452 H426 0.950 . S
C452 C448 1.385 . S
C452 C451 1.374 . S
C453 C450 1.499 . S
C453 C454 1.373 . S
C453 C455 1.399 . S
C454 H427 0.950 . S
C454 C440 1.377 . S
C454 C453 1.373 . S
C455 C439 1.376 . S
C455 C453 1.399 . S
C455 C456 1.515 1_455 S
C456 C455 1.515 1_655 S
C456 C457 1.397 . S
C456 C461 1.363 . S
C457 H428 0.950 . S
C457 C456 1.397 . S
C457 C458 1.334 . S
C458 H429 0.950 . S
C458 C457 1.334 . S
C458 C459 1.287 . S
C459 C458 1.287 . S
C459 C460 1.524 . S
C459 H462 0.999 . S
C460 H430 0.950 . S
C460 C459 1.524 . S
C460 C461 1.415 . S
C461 H431 0.950 . S
C461 C456 1.363 . S
C461 C460 1.415 . S
H462 C459 0.999 . S
H463 C444 0.913 . S
H464 C482 0.951 . S
H465 C484 0.951 . S
H466 C486 0.950 . S
H467 C487 0.950 . S
H468 C489 0.950 . S
H469 C492 0.950 . S
H470 C493 0.950 . S
H471 C495 0.950 . S
H472 C496 0.950 . S
H473 C497 0.951 . S
H474 C499 0.951 . S
H475 C501 0.954 . S
H476 C502 0.950 . S
H477 C504 0.950 1_556 S
H478 C507 0.950 . S
H479 C508 0.950 . S
H480 C510 0.950 . S
H481 C511 0.950 . S
C482 H464 0.951 . S
C482 C483 1.330 1_545 S
C482 C484 1.388 . S
C483 C482 1.330 1_565 S
C483 C487 1.417 . S
C484 H465 0.951 . S
C484 C482 1.388 . S
C484 C485 1.367 1_545 S
C485 C484 1.367 1_565 S
C485 C486 1.412 . S
C485 C488 1.500 . S
C486 H466 0.950 . S
C486 C485 1.412 . S
C486 C487 1.374 . S
C487 H467 0.950 . S
C487 C483 1.417 . S
C487 C486 1.374 . S
C488 C485 1.500 . S
C488 C489 1.391 . S
C488 C490 1.370 1_565 S
C489 H468 0.950 . S
C489 C488 1.391 . S
C489 C505 1.377 . S
C490 C488 1.370 1_545 S
C490 C491 1.524 . S
C490 C504 1.377 . S
C491 C490 1.524 . S
C491 C492 1.397 . S
C491 C496 1.363 . S
C492 H469 0.950 . S
C492 C491 1.397 . S
C492 C493 1.334 . S
C493 H470 0.950 . S
C493 C492 1.334 . S
C493 C494 1.287 . S
C494 C493 1.287 . S
C494 C495 1.524 . S
C494 H513 0.913 . S
C495 H471 0.950 . S
C495 C494 1.524 . S
C495 C496 1.415 . S
C496 H472 0.950 . S
C496 C491 1.363 . S
C496 C495 1.415 . S
C497 H473 0.951 . S
C497 C498 1.368 1_565 S
C497 C499 1.388 . S
C498 C497 1.368 1_545 S
C498 C502 1.382 . S
C499 H474 0.951 . S
C499 C497 1.388 . S
C499 C500 1.393 . S
C500 C499 1.393 . S
C500 C501 1.383 1_565 S
C500 C503 1.500 1_556 S
C501 H475 0.954 . S
C501 C500 1.383 1_545 S
C501 C502 1.374 . S
C502 H476 0.950 . S
C502 C498 1.382 . S
C502 C501 1.374 . S
C503 C500 1.500 1_554 S
C503 C504 1.363 1_565 S
C503 C505 1.401 . S
C504 H477 0.950 1_554 S
C504 C490 1.377 . S
C504 C503 1.363 1_545 S
C505 C489 1.377 . S
C505 C503 1.401 . S
C505 C506 1.524 . S
C506 C505 1.524 . S
C506 C507 1.397 . S
C506 C511 1.363 . S
C507 H478 0.950 . S
C507 C506 1.397 . S
C507 C508 1.334 . S
C508 H479 0.950 . S
C508 C507 1.334 . S
C508 C509 1.287 . S
C509 C508 1.287 . S
C509 C510 1.524 . S
C509 H512 0.999 . S
C510 H480 0.950 . S
C510 C509 1.524 . S
C510 C511 1.415 . S
C511 H481 0.950 . S
C511 C506 1.363 . S
C511 C510 1.415 . S
H512 C509 0.999 . S
H513 C494 0.913 . S
H514 C532 0.951 . S
H515 C534 0.951 . S
H516 C536 0.950 . S
H517 C537 0.950 . S
H518 C539 0.950 . S
H519 C542 0.950 . S
H520 C543 0.950 . S
H521 C545 0.950 . S
H522 C546 0.950 1_556 S
H523 C547 0.951 . S
H524 C549 0.951 . S
H525 C551 0.950 . S
H526 C552 0.950 . S
H527 C554 0.950 . S
H528 C557 0.950 . S
H529 C558 0.950 . S
H530 C560 0.950 . S
H531 C561 0.950 . S
C532 H514 0.951 . S
C532 C533 1.366 . S
C532 C534 1.388 . S
C533 C532 1.366 . S
C533 C537 1.385 . S
C534 H515 0.951 . S
C534 C532 1.388 . S
C534 C535 1.366 . S
C535 C534 1.366 . S
C535 C536 1.414 . S
C535 C538 1.499 1_554 S
C536 H516 0.950 . S
C536 C535 1.414 . S
C536 C537 1.374 . S
C537 H517 0.950 . S
C537 C533 1.385 . S
C537 C536 1.374 . S
C538 C535 1.499 1_556 S
C538 C539 1.373 . S
C538 C540 1.389 1_556 S
C539 H518 0.950 . S
C539 C538 1.373 . S
C539 C555 1.377 . S
C540 C538 1.389 1_554 S
C540 C541 1.524 . S
C540 C554 1.377 1_554 S
C541 C540 1.524 . S
C541 C542 1.397 . S
C541 C546 1.363 . S
C542 H519 0.950 . S
C542 C541 1.397 . S
C542 C543 1.334 . S
C543 H520 0.950 . S
C543 C542 1.334 . S
C543 C544 1.287 . S
C544 C543 1.287 . S
C544 C545 1.524 . S
C544 H563 0.913 . S
C545 H521 0.950 . S
C545 C544 1.524 . S
C545 C546 1.415 . S
C546 H522 0.950 1_554 S
C546 C541 1.363 . S
C546 C545 1.415 . S
C547 H523 0.951 . S
C547 C548 1.366 . S
C547 C549 1.388 . S
C548 C547 1.366 . S
C548 C552 1.385 . S
C549 H524 0.951 . S
C549 C547 1.388 . S
C549 C550 1.366 . S
C550 C549 1.366 . S
C550 C551 1.414 . S
C550 C553 1.499 . S
C551 H525 0.950 . S
C551 C550 1.414 . S
C551 C552 1.374 . S
C552 H526 0.950 . S
C552 C548 1.385 . S
C552 C551 1.374 . S
C553 C550 1.499 . S
C553 C554 1.373 . S
C553 C555 1.389 . S
C554 H527 0.950 . S
C554 C540 1.377 1_556 S
C554 C553 1.373 . S
C555 C539 1.377 . S
C555 C553 1.389 . S
C555 C556 1.524 . S
C556 C555 1.524 . S
C556 C557 1.397 . S
C556 C561 1.363 . S
C557 H528 0.950 . S
C557 C556 1.397 . S
C557 C558 1.334 . S
C558 H529 0.950 . S
C558 C557 1.334 . S
C558 C559 1.287 . S
C559 C558 1.287 . S
C559 C560 1.524 . S
C559 H562 0.999 . S
C560 H530 0.950 . S
C560 C559 1.524 . S
C560 C561 1.415 . S
C561 H531 0.950 . S
C561 C556 1.363 . S
C561 C560 1.415 . S
H562 C559 0.999 . S
H563 C544 0.913 . S
H564 C582 0.951 . S
H565 C584 0.951 . S
H566 C586 0.950 . S
H567 C587 0.950 . S
H568 C589 0.950 . S
H569 C592 0.950 . S
H570 C593 0.950 . S
H571 C595 0.950 . S
H572 C596 0.950 . S
H573 C597 0.951 . S
H574 C599 0.951 . S
H575 C601 0.950 . S
H576 C602 0.950 1_556 S
H577 C604 0.950 . S
H578 C607 0.950 . S
H579 C608 0.950 . S
H580 C610 0.950 . S
H581 C611 0.950 . S
C582 H564 0.951 . S
C582 C583 1.366 . S
C582 C584 1.388 . S
C583 C582 1.366 . S
C583 C587 1.385 . S
C584 H565 0.951 . S
C584 C582 1.388 . S
C584 C585 1.366 . S
C585 C584 1.366 . S
C585 C586 1.414 . S
C585 C588 1.499 . S
C586 H566 0.950 . S
C586 C585 1.414 . S
C586 C587 1.374 . S
C587 H567 0.950 . S
C587 C583 1.385 . S
C587 C586 1.374 . S
C588 C585 1.499 . S
C588 C589 1.373 . S
C588 C590 1.389 . S
C589 H568 0.950 . S
C589 C588 1.373 . S
C589 C605 1.377 . S
C590 C588 1.389 . S
C590 C591 1.524 . S
C590 C604 1.377 . S
C591 C590 1.524 . S
C591 C592 1.397 . S
C591 C596 1.363 . S
C592 H569 0.950 . S
C592 C591 1.397 . S
C592 C593 1.334 . S
C593 H570 0.950 . S
C593 C592 1.334 . S
C593 C594 1.287 . S
C594 C593 1.287 . S
C594 C595 1.524 . S
C594 H613 0.913 . S
C595 H571 0.950 . S
C595 C594 1.524 . S
C595 C596 1.415 . S
C596 H572 0.950 . S
C596 C591 1.363 . S
C596 C595 1.415 . S
C597 H573 0.951 . S
C597 C598 1.366 . S
C597 C599 1.388 . S
C598 C597 1.366 . S
C598 C602 1.385 . S
C599 H574 0.951 . S
C599 C597 1.388 . S
C599 C600 1.366 . S
C600 C599 1.366 . S
C600 C601 1.414 . S
C600 C603 1.499 . S
C601 H575 0.950 . S
C601 C600 1.414 . S
C601 C602 1.374 . S
C602 H576 0.950 1_554 S
C602 C598 1.385 . S
C602 C601 1.374 . S
C603 C600 1.499 . S
C603 C604 1.373 . S
C603 C605 1.389 . S
C604 H577 0.950 . S
C604 C590 1.377 . S
C604 C603 1.373 . S
C605 C589 1.377 . S
C605 C603 1.389 . S
C605 C606 1.524 . S
C606 C605 1.524 . S
C606 C607 1.397 . S
C606 C611 1.363 . S
C607 H578 0.950 . S
C607 C606 1.397 . S
C607 C608 1.334 . S
C608 H579 0.950 . S
C608 C607 1.334 . S
C608 C609 1.287 . S
C609 C608 1.287 . S
C609 C610 1.524 . S
C609 H612 0.999 . S
C610 H580 0.950 . S
C610 C609 1.524 . S
C610 C611 1.415 . S
C611 H581 0.950 . S
C611 C606 1.363 . S
C611 C610 1.415 . S
H612 C609 0.999 . S
H613 C594 0.913 . S
H614 C632 0.951 . S
H615 C634 0.951 . S
H616 C636 0.950 . S
H617 C637 0.950 . S
H618 C639 0.950 . S
H619 C642 0.950 . S
H620 C643 0.950 . S
H621 C645 0.950 1_556 S
H622 C646 0.950 1_556 S
H623 C647 0.959 . S
H624 C649 0.951 1_554 S
H625 C651 0.950 . S
H626 C652 0.950 . S
H627 C654 0.950 1_556 S
H628 C657 0.950 . S
H629 C658 0.950 . S
H630 C660 0.950 . S
H631 C661 0.950 . S
C632 H614 0.951 . S
C632 C633 1.366 1_455 S
C632 C634 1.388 . S
C633 C632 1.366 1_655 S
C633 C637 1.385 . S
C634 H615 0.951 . S
C634 C632 1.388 . S
C634 C635 1.366 1_455 S
C635 C634 1.366 1_655 S
C635 C636 1.414 . S
C635 C638 1.493 . S
C636 H616 0.950 . S
C636 C635 1.414 . S
C636 C637 1.374 . S
C637 H617 0.950 . S
C637 C633 1.385 . S
C637 C636 1.374 . S
C638 C635 1.493 . S
C638 C639 1.353 1_655 S
C638 C640 1.414 . S
C639 H618 0.950 . S
C639 C638 1.353 1_455 S
C639 C655 1.377 . S
C640 C638 1.414 . S
C640 C641 1.524 . S
C640 C654 1.377 . S
C641 C640 1.524 . S
C641 C642 1.397 . S
C641 C646 1.363 . S
C642 H619 0.950 . S
C642 C641 1.397 . S
C642 C643 1.334 . S
C643 H620 0.950 . S
C643 C642 1.334 . S
C643 C644 1.287 . S
C644 C643 1.287 . S
C644 C645 1.524 . S
C644 H663 0.913 . S
C645 H621 0.950 1_554 S
C645 C644 1.524 . S
C645 C646 1.415 . S
C646 H622 0.950 1_554 S
C646 C641 1.363 . S
C646 C645 1.415 . S
C647 H623 0.959 . S
C647 C648 1.361 1_655 S
C647 C649 1.385 . S
C648 C647 1.361 1_455 S
C648 C652 1.385 . S
C649 H624 0.951 1_556 S
C649 C647 1.385 . S
C649 C650 1.366 1_655 S
C650 C649 1.366 1_455 S
C650 C651 1.414 . S
C650 C653 1.499 1_556 S
C651 H625 0.950 . S
C651 C650 1.414 . S
C651 C652 1.374 . S
C652 H626 0.950 . S
C652 C648 1.385 . S
C652 C651 1.374 . S
C653 C650 1.499 1_554 S
C653 C654 1.373 1_455 S
C653 C655 1.389 . S
C654 H627 0.950 1_554 S
C654 C640 1.377 . S
C654 C653 1.373 1_655 S
C655 C639 1.377 . S
C655 C653 1.389 . S
C655 C656 1.524 . S
C656 C655 1.524 . S
C656 C657 1.397 . S
C656 C661 1.363 . S
C657 H628 0.950 . S
C657 C656 1.397 . S
C657 C658 1.334 . S
C658 H629 0.950 . S
C658 C657 1.334 . S
C658 C659 1.287 . S
C659 C658 1.287 . S
C659 C660 1.524 . S
C659 H662 0.999 . S
C660 H630 0.950 . S
C660 C659 1.524 . S
C660 C661 1.415 . S
C661 H631 0.950 . S
C661 C656 1.363 . S
C661 C660 1.415 . S
H662 C659 0.999 . S
H663 C644 0.913 . S
H664 C682 0.951 . S
H665 C684 0.951 . S
H666 C686 0.924 1_655 S
H667 C687 0.950 . S
H668 C689 0.950 . S
H669 C692 0.950 . S
H670 C693 0.950 . S
H671 C695 0.950 . S
H672 C696 0.950 . S
H673 C697 0.951 . S
H674 C699 0.951 . S
H675 C701 0.950 . S
H676 C702 0.950 . S
H677 C704 0.950 . S
H678 C707 0.950 . S
H679 C708 0.950 . S
H680 C710 0.950 . S
H681 C711 0.950 1_655 S
C682 H664 0.951 . S
C682 C683 1.366 . S
C682 C684 1.388 . S
C683 C682 1.366 . S
C683 C687 1.385 . S
C684 H665 0.951 . S
C684 C682 1.388 . S
C684 C685 1.366 . S
C685 C684 1.366 . S
C685 C686 1.414 . S
C685 C688 1.499 . S
C686 H666 0.924 1_455 S
C686 C685 1.414 . S
C686 C687 1.374 . S
C687 H667 0.950 . S
C687 C683 1.385 . S
C687 C686 1.374 . S
C688 C685 1.499 . S
C688 C689 1.373 . S
C688 C690 1.389 . S
C689 H668 0.950 . S
C689 C688 1.373 . S
C689 C705 1.377 . S
C690 C688 1.389 . S
C690 C691 1.524 . S
C690 C704 1.377 . S
C691 C690 1.524 . S
C691 C692 1.397 1_455 S
C691 C696 1.363 . S
C692 H669 0.950 . S
C692 C691 1.397 1_655 S
C692 C693 1.334 . S
C693 H670 0.950 . S
C693 C692 1.334 . S
C693 C694 1.287 . S
C694 C693 1.287 . S
C694 C695 1.524 1_655 S
C694 H713 0.913 1_554 S
C695 H671 0.950 . S
C695 C694 1.524 1_455 S
C695 C696 1.415 . S
C696 H672 0.950 . S
C696 C691 1.363 . S
C696 C695 1.415 . S
C697 H673 0.951 . S
C697 C698 1.366 . S
C697 C699 1.388 . S
C698 C697 1.366 . S
C698 C702 1.385 1_655 S
C699 H674 0.951 . S
C699 C697 1.388 . S
C699 C700 1.366 1_655 S
C700 C699 1.366 1_455 S
C700 C701 1.414 . S
C700 C703 1.499 . S
C701 H675 0.950 . S
C701 C700 1.414 . S
C701 C702 1.374 . S
C702 H676 0.950 . S
C702 C698 1.385 1_455 S
C702 C701 1.374 . S
C703 C700 1.499 . S
C703 C704 1.373 . S
C703 C705 1.389 . S
C704 H677 0.950 . S
C704 C690 1.377 . S
C704 C703 1.373 . S
C705 C689 1.377 . S
C705 C703 1.389 . S
C705 C706 1.524 . S
C706 C705 1.524 . S
C706 C707 1.397 . S
C706 C711 1.363 . S
C707 H678 0.950 . S
C707 C706 1.397 . S
C707 C708 1.334 . S
C708 H679 0.950 . S
C708 C707 1.334 . S
C708 C709 1.287 . S
C709 C708 1.287 . S
C709 C710 1.524 . S
C709 H712 0.999 . S
C710 H680 0.950 . S
C710 C709 1.524 . S
C710 C711 1.415 . S
C711 H681 0.950 1_455 S
C711 C706 1.363 . S
C711 C710 1.415 . S
H712 C709 0.999 . S
H713 C694 0.913 1_556 S
H714 C732 0.951 . S
H715 C734 0.950 . S
H716 C736 0.950 . S
H717 C737 0.950 . S
H718 C739 0.950 . S
H719 C742 0.950 . S
H720 C743 0.950 . S
H721 C745 0.950 . S
H722 C746 0.950 . S
H723 C747 0.951 . S
H724 C749 0.951 . S
H725 C751 0.950 . S
H726 C752 0.950 . S
H727 C754 0.950 . S
H728 C757 0.950 . S
H729 C758 0.950 . S
H730 C760 0.950 . S
H731 C761 0.950 . S
C732 H714 0.951 . S
C732 C733 1.366 . S
C732 C734 1.385 1_545 S
C733 C732 1.366 . S
C733 C737 1.385 . S
C734 H715 0.950 . S
C734 C732 1.385 1_565 S
C734 C735 1.371 . S
C735 C734 1.371 . S
C735 C736 1.414 . S
C735 C738 1.499 . S
C736 H716 0.950 . S
C736 C735 1.414 . S
C736 C737 1.374 1_565 S
C737 H717 0.950 . S
C737 C733 1.385 . S
C737 C736 1.374 1_545 S
C738 C735 1.499 . S
C738 C739 1.373 1_565 S
C738 C740 1.389 . S
C739 H718 0.950 . S
C739 C738 1.373 1_545 S
C739 C755 1.377 . S
C740 C738 1.389 . S
C740 C741 1.524 . S
C740 C754 1.377 . S
C741 C740 1.524 . S
C741 C742 1.397 . S
C741 C746 1.363 . S
C742 H719 0.950 . S
C742 C741 1.397 . S
C742 C743 1.334 . S
C743 H720 0.950 . S
C743 C742 1.334 . S
C743 C744 1.287 . S
C744 C743 1.287 . S
C744 C745 1.524 . S
C744 H763 0.913 . S
C745 H721 0.950 . S
C745 C744 1.524 . S
C745 C746 1.415 . S
C746 H722 0.950 . S
C746 C741 1.363 . S
C746 C745 1.415 . S
C747 H723 0.951 . S
C747 C748 1.366 . S
C747 C749 1.388 . S
C748 C747 1.366 . S
C748 C752 1.385 . S
C749 H724 0.951 . S
C749 C747 1.388 . S
C749 C750 1.366 . S
C750 C749 1.366 . S
C750 C751 1.414 . S
C750 C753 1.499 . S
C751 H725 0.950 . S
C751 C750 1.414 . S
C751 C752 1.374 . S
C752 H726 0.950 . S
C752 C748 1.385 . S
C752 C751 1.374 . S
C753 C750 1.499 . S
C753 C754 1.373 . S
C753 C755 1.389 1_565 S
C754 H727 0.950 . S
C754 C740 1.377 . S
C754 C753 1.373 . S
C755 C739 1.377 . S
C755 C753 1.389 1_545 S
C755 C756 1.524 . S
C756 C755 1.524 . S
C756 C757 1.397 . S
C756 C761 1.363 . S
C757 H728 0.950 . S
C757 C756 1.397 . S
C757 C758 1.334 . S
C758 H729 0.950 . S
C758 C757 1.334 . S
C758 C759 1.287 . S
C759 C758 1.287 . S
C759 C760 1.524 . S
C759 H762 0.999 . S
C760 H730 0.950 . S
C760 C759 1.524 . S
C760 C761 1.415 . S
C761 H731 0.950 . S
C761 C756 1.363 . S
C761 C760 1.415 . S
H762 C759 0.999 . S
H763 C744 0.913 . S
H764 C782 0.951 . S
H765 C784 0.951 . S
H766 C786 0.950 . S
H767 C787 0.950 . S
H768 C789 0.950 . S
H769 C792 0.950 . S
H770 C793 0.950 . S
H771 C795 0.950 . S
H772 C796 0.950 . S
H773 C797 0.951 . S
H774 C799 0.951 . S
H775 C801 0.950 . S
H776 C802 0.950 . S
H777 C804 0.950 . S
H778 C807 0.950 . S
H779 C808 0.950 . S
H780 C810 0.950 . S
H781 C811 0.950 . S
C782 H764 0.951 . S
C782 C783 1.366 . S
C782 C784 1.388 . S
C783 C782 1.366 . S
C783 C787 1.385 . S
C784 H765 0.951 . S
C784 C782 1.388 . S
C784 C785 1.366 . S
C785 C784 1.366 . S
C785 C786 1.414 . S
C785 C788 1.499 . S
C786 H766 0.950 . S
C786 C785 1.414 . S
C786 C787 1.374 . S
C787 H767 0.950 . S
C787 C783 1.385 . S
C787 C786 1.374 . S
C788 C785 1.499 . S
C788 C789 1.373 . S
C788 C790 1.389 . S
C789 H768 0.950 . S
C789 C788 1.373 . S
C789 C805 1.377 . S
C790 C788 1.389 . S
C790 C791 1.524 . S
C790 C804 1.377 . S
C791 C790 1.524 . S
C791 C792 1.397 . S
C791 C796 1.363 . S
C792 H769 0.950 . S
C792 C791 1.397 . S
C792 C793 1.334 . S
C793 H770 0.950 . S
C793 C792 1.334 . S
C793 C794 1.287 . S
C794 C793 1.287 . S
C794 C795 1.524 . S
C794 H813 0.913 . S
C795 H771 0.950 . S
C795 C794 1.524 . S
C795 C796 1.415 . S
C796 H772 0.950 . S
C796 C791 1.363 . S
C796 C795 1.415 . S
C797 H773 0.951 . S
C797 C798 1.366 . S
C797 C799 1.388 . S
C798 C797 1.366 . S
C798 C802 1.385 . S
C799 H774 0.951 . S
C799 C797 1.388 . S
C799 C800 1.366 . S
C800 C799 1.366 . S
C800 C801 1.414 . S
C800 C803 1.499 . S
C801 H775 0.950 . S
C801 C800 1.414 . S
C801 C802 1.374 . S
C802 H776 0.950 . S
C802 C798 1.385 . S
C802 C801 1.374 . S
C803 C800 1.499 . S
C803 C804 1.373 . S
C803 C805 1.389 . S
C804 H777 0.950 . S
C804 C790 1.377 . S
C804 C803 1.373 . S
C805 C789 1.377 . S
C805 C803 1.389 . S
C805 C806 1.524 . S
C806 C805 1.524 . S
C806 C807 1.397 . S
C806 C811 1.363 . S
C807 H778 0.950 . S
C807 C806 1.397 . S
C807 C808 1.334 . S
C808 H779 0.950 . S
C808 C807 1.334 . S
C808 C809 1.287 . S
C809 C808 1.287 . S
C809 C810 1.524 . S
C809 H812 0.999 . S
C810 H780 0.950 . S
C810 C809 1.524 . S
C810 C811 1.415 . S
C811 H781 0.950 . S
C811 C806 1.363 . S
C811 C810 1.415 . S
H812 C809 0.999 . S
H813 C794 0.913 . S
H814 C832 0.951 . S
H815 C834 0.951 . S
H816 C836 0.950 . S
H817 C837 0.950 1_556 S
H818 C839 0.950 . S
H819 C842 0.950 . S
H820 C843 0.950 . S
H821 C845 0.950 . S
H822 C846 0.950 . S
H823 C847 0.951 . S
H824 C849 0.951 . S
H825 C851 0.950 . S
H826 C852 0.950 . S
H827 C854 0.950 . S
H828 C857 0.950 . S
H829 C858 0.950 . S
H830 C860 0.950 . S
H831 C861 0.950 . S
C832 H814 0.951 . S
C832 C833 1.366 . S
C832 C834 1.388 . S
C833 C832 1.366 . S
C833 C837 1.385 . S
C834 H815 0.951 . S
C834 C832 1.388 . S
C834 C835 1.366 . S
C835 C834 1.366 . S
C835 C836 1.414 . S
C835 C838 1.499 . S
C836 H816 0.950 . S
C836 C835 1.414 . S
C836 C837 1.374 . S
C837 H817 0.950 1_554 S
C837 C833 1.385 . S
C837 C836 1.374 . S
C838 C835 1.499 . S
C838 C839 1.373 . S
C838 C840 1.389 . S
C839 H818 0.950 . S
C839 C838 1.373 . S
C839 C855 1.377 . S
C840 C838 1.389 . S
C840 C841 1.524 . S
C840 C854 1.377 . S
C841 C840 1.524 . S
C841 C842 1.397 . S
C841 C846 1.363 . S
C842 H819 0.950 . S
C842 C841 1.397 . S
C842 C843 1.334 . S
C843 H820 0.950 . S
C843 C842 1.334 . S
C843 C844 1.287 . S
C844 C843 1.287 . S
C844 C845 1.524 . S
C844 H863 0.913 . S
C845 H821 0.950 . S
C845 C844 1.524 . S
C845 C846 1.415 . S
C846 H822 0.950 . S
C846 C841 1.363 . S
C846 C845 1.415 . S
C847 H823 0.951 . S
C847 C848 1.366 . S
C847 C849 1.388 . S
C848 C847 1.366 . S
C848 C852 1.385 . S
C849 H824 0.951 . S
C849 C847 1.388 . S
C849 C850 1.366 . S
C850 C849 1.366 . S
C850 C851 1.414 . S
C850 C853 1.499 . S
C851 H825 0.950 . S
C851 C850 1.414 . S
C851 C852 1.374 . S
C852 H826 0.950 . S
C852 C848 1.385 . S
C852 C851 1.374 . S
C853 C850 1.499 . S
C853 C854 1.373 . S
C853 C855 1.389 . S
C854 H827 0.950 . S
C854 C840 1.377 . S
C854 C853 1.373 . S
C855 C839 1.377 . S
C855 C853 1.389 . S
C855 C856 1.524 . S
C856 C855 1.524 . S
C856 C857 1.397 . S
C856 C861 1.363 . S
C857 H828 0.950 . S
C857 C856 1.397 . S
C857 C858 1.334 . S
C858 H829 0.950 . S
C858 C857 1.334 . S
C858 C859 1.287 . S
C859 C858 1.287 . S
C859 C860 1.524 . S
C859 H862 0.999 . S
C860 H830 0.950 . S
C860 C859 1.524 . S
C860 C861 1.415 . S
C861 H831 0.950 . S
C861 C856 1.363 . S
C861 C860 1.415 . S
H862 C859 0.999 . S
H863 C844 0.913 . S
H864 C882 0.951 . S
H865 C884 0.951 . S
H866 C886 0.950 . S
H867 C887 0.950 . S
H868 C889 0.950 1_655 S
H869 C892 0.950 . S
H870 C893 0.950 . S
H871 C895 0.950 . S
H872 C896 0.950 . S
H873 C897 0.947 1_656 S
H874 C899 0.951 1_655 S
H875 C901 0.950 . S
H876 C902 0.950 . S
H877 C904 0.950 . S
H878 C907 0.950 1_554 S
H879 C908 0.950 . S
H880 C910 0.950 . S
H881 C911 0.950 . S
C882 H864 0.951 . S
C882 C883 1.366 1_455 S
C882 C884 1.388 . S
C883 C882 1.366 1_655 S
C883 C887 1.385 . S
C884 H865 0.951 . S
C884 C882 1.388 . S
C884 C885 1.366 . S
C885 C884 1.366 . S
C885 C886 1.414 1_455 S
C885 C888 1.499 . S
C886 H866 0.950 . S
C886 C885 1.414 1_655 S
C886 C887 1.374 . S
C887 H867 0.950 . S
C887 C883 1.385 . S
C887 C886 1.374 . S
C888 C885 1.499 . S
C888 C889 1.373 . S
C888 C890 1.389 . S
C889 H868 0.950 1_455 S
C889 C888 1.373 . S
C889 C905 1.377 . S
C890 C888 1.389 . S
C890 C891 1.524 . S
C890 C904 1.377 . S
C891 C890 1.524 . S
C891 C892 1.397 1_455 S
C891 C896 1.363 . S
C892 H869 0.950 . S
C892 C891 1.397 1_655 S
C892 C893 1.334 . S
C893 H870 0.950 . S
C893 C892 1.334 . S
C893 C894 1.287 1_655 S
C894 C893 1.287 1_455 S
C894 C895 1.524 . S
C894 H913 0.913 . S
C895 H871 0.950 . S
C895 C894 1.524 . S
C895 C896 1.415 . S
C896 H872 0.950 . S
C896 C891 1.363 . S
C896 C895 1.415 . S
C897 H873 0.947 1_454 S
C897 C898 1.366 . S
C897 C899 1.388 . S
C898 C897 1.366 . S
C898 C902 1.385 . S
C899 H874 0.951 1_455 S
C899 C897 1.388 . S
C899 C900 1.366 . S
C900 C899 1.366 . S
C900 C901 1.414 . S
C900 C903 1.499 . S
C901 H875 0.950 . S
C901 C900 1.414 . S
C901 C902 1.374 . S
C902 H876 0.950 . S
C902 C898 1.385 . S
C902 C901 1.374 . S
C903 C900 1.499 . S
C903 C904 1.373 . S
C903 C905 1.389 . S
C904 H877 0.950 . S
C904 C890 1.377 . S
C904 C903 1.373 . S
C905 C889 1.377 . S
C905 C903 1.389 . S
C905 C906 1.524 . S
C906 C905 1.524 . S
C906 C907 1.397 1_554 S
C906 C911 1.363 1_455 S
C907 H878 0.950 1_556 S
C907 C906 1.397 1_556 S
C907 C908 1.334 . S
C908 H879 0.950 . S
C908 C907 1.334 . S
C908 C909 1.287 . S
C909 C908 1.287 . S
C909 C910 1.524 1_455 S
C909 H912 0.999 . S
C910 H880 0.950 . S
C910 C909 1.524 1_655 S
C910 C911 1.415 1_556 S
C911 H881 0.950 . S
C911 C906 1.363 1_655 S
C911 C910 1.415 1_554 S
H912 C909 0.999 . S
H913 C894 0.913 . S
H914 C932 0.951 . S
H915 C934 0.960 . S
H916 C936 0.950 . S
H917 C937 0.950 . S
H918 C939 0.950 . S
H919 C942 0.950 . S
H920 C943 0.950 . S
H921 C945 0.950 . S
H922 C946 0.950 . S
H923 C947 0.951 . S
H924 C949 0.951 . S
H925 C951 0.950 . S
H926 C952 0.950 . S
H927 C954 0.950 . S
H928 C957 0.950 . S
H929 C958 0.950 . S
H930 C960 0.950 . S
H931 C961 0.950 1_556 S
C932 H914 0.951 . S
C932 C933 1.366 . S
C932 C934 1.391 . S
C933 C932 1.366 . S
C933 C937 1.385 1_565 S
C934 H915 0.960 . S
C934 C932 1.391 . S
C934 C935 1.356 1_565 S
C935 C934 1.356 1_545 S
C935 C936 1.414 . S
C935 C938 1.499 . S
C936 H916 0.950 . S
C936 C935 1.414 . S
C936 C937 1.374 . S
C937 H917 0.950 . S
C937 C933 1.385 1_545 S
C937 C936 1.374 . S
C938 C935 1.499 . S
C938 C939 1.373 . S
C938 C940 1.389 1_545 S
C939 H918 0.950 . S
C939 C938 1.373 . S
C939 C955 1.377 . S
C940 C938 1.389 1_565 S
C940 C941 1.524 . S
C940 C954 1.377 . S
C941 C940 1.524 . S
C941 C942 1.397 . S
C941 C946 1.363 . S
C942 H919 0.950 . S
C942 C941 1.397 . S
C942 C943 1.334 . S
C943 H920 0.950 . S
C943 C942 1.334 . S
C943 C944 1.287 . S
C944 C943 1.287 . S
C944 C945 1.524 . S
C944 H963 0.913 . S
C945 H921 0.950 . S
C945 C944 1.524 . S
C945 C946 1.415 . S
C946 H922 0.950 . S
C946 C941 1.363 . S
C946 C945 1.415 . S
C947 H923 0.951 . S
C947 C948 1.366 1_556 S
C947 C949 1.388 . S
C948 C947 1.366 1_554 S
C948 C952 1.385 . S
C949 H924 0.951 . S
C949 C947 1.388 . S
C949 C950 1.366 1_556 S
C950 C949 1.366 1_554 S
C950 C951 1.414 . S
C950 C953 1.499 . S
C951 H925 0.950 . S
C951 C950 1.414 . S
C951 C952 1.374 . S
C952 H926 0.950 . S
C952 C948 1.385 . S
C952 C951 1.374 . S
C953 C950 1.499 . S
C953 C954 1.373 1_545 S
C953 C955 1.389 . S
C954 H927 0.950 . S
C954 C940 1.377 . S
C954 C953 1.373 1_565 S
C955 C939 1.377 . S
C955 C953 1.389 . S
C955 C956 1.524 . S
C956 C955 1.524 . S
C956 C957 1.397 . S
C956 C961 1.363 . S
C957 H928 0.950 . S
C957 C956 1.397 . S
C957 C958 1.334 . S
C958 H929 0.950 . S
C958 C957 1.334 . S
C958 C959 1.287 . S
C959 C958 1.287 . S
C959 C960 1.524 1_554 S
C959 H962 0.999 1_554 S
C960 H930 0.950 . S
C960 C959 1.524 1_556 S
C960 C961 1.415 1_556 S
C961 H931 0.950 1_554 S
C961 C956 1.363 . S
C961 C960 1.415 1_554 S
H962 C959 0.999 1_556 S
H963 C944 0.913 . S
H964 C982 0.951 . S
H965 C984 0.951 . S
H966 C986 0.950 1_556 S
H967 C987 0.950 . S
H968 C989 0.950 . S
H969 C992 0.950 . S
H970 C993 0.950 . S
H971 C995 0.950 . S
H972 C996 0.950 1_554 S
H973 C997 0.951 . S
H974 C999 0.951 . S
H975 C1001 0.950 . S
H976 C1002 0.950 . S
H977 C1004 0.950 . S
H978 C1007 0.950 . S
H979 C1008 0.950 . S
H980 C1010 0.950 1_556 S
H981 C1011 0.950 . S
C982 H964 0.951 . S
C982 C983 1.366 . S
C982 C984 1.388 . S
C983 C982 1.366 . S
C983 C987 1.385 . S
C984 H965 0.951 . S
C984 C982 1.388 . S
C984 C985 1.366 . S
C985 C984 1.366 . S
C985 C986 1.414 . S
C985 C988 1.499 . S
C986 H966 0.950 1_554 S
C986 C985 1.414 . S
C986 C987 1.374 . S
C987 H967 0.950 . S
C987 C983 1.385 . S
C987 C986 1.374 . S
C988 C985 1.499 . S
C988 C989 1.373 . S
C988 C990 1.389 1_554 S
C989 H968 0.950 . S
C989 C988 1.373 . S
C989 C1005 1.377 1_554 S
C990 C988 1.389 1_556 S
C990 C991 1.524 . S
C990 C1004 1.377 . S
C991 C990 1.524 . S
C991 C992 1.397 . S
C991 C996 1.363 . S
C992 H969 0.950 . S
C992 C991 1.397 . S
C992 C993 1.334 . S
C993 H970 0.950 . S
C993 C992 1.334 . S
C993 C994 1.287 . S
C994 C993 1.287 . S
C994 C995 1.524 . S
C994 H1013 0.913 . S
C995 H971 0.950 . S
C995 C994 1.524 . S
C995 C996 1.415 . S
C996 H972 0.950 1_556 S
C996 C991 1.363 . S
C996 C995 1.415 . S
C997 H973 0.951 . S
C997 C998 1.366 . S
C997 C999 1.388 . S
C998 C997 1.366 . S
C998 C1002 1.385 . S
C999 H974 0.951 . S
C999 C997 1.388 . S
C999 C1000 1.366 . S
C1000 C999 1.366 . S
C1000 C1001 1.414 . S
C1000 C1003 1.499 . S
C1001 H975 0.950 . S
C1001 C1000 1.414 . S
C1001 C1002 1.374 . S
C1002 H976 0.950 . S
C1002 C998 1.385 . S
C1002 C1001 1.374 . S
C1003 C1000 1.499 . S
C1003 C1004 1.373 . S
C1003 C1005 1.389 . S
C1004 H977 0.950 . S
C1004 C990 1.377 . S
C1004 C1003 1.373 . S
C1005 C989 1.377 1_556 S
C1005 C1003 1.389 . S
C1005 C1006 1.524 1_556 S
C1006 C1005 1.524 1_554 S
C1006 C1007 1.397 . S
C1006 C1011 1.363 1_554 S
C1007 H978 0.950 . S
C1007 C1006 1.397 . S
C1007 C1008 1.334 . S
C1008 H979 0.950 . S
C1008 C1007 1.334 . S
C1008 C1009 1.287 . S
C1009 C1008 1.287 . S
C1009 C1010 1.524 . S
C1009 H1012 0.999 . S
C1010 H980 0.950 1_554 S
C1010 C1009 1.524 . S
C1010 C1011 1.415 1_554 S
C1011 H981 0.950 . S
C1011 C1006 1.363 1_556 S
C1011 C1010 1.415 1_556 S
H1012 C1009 0.999 . S
H1013 C994 0.913 . S
H1014 C1032 0.951 . S
H1015 C1034 0.951 . S
H1016 C1036 0.950 . S
H1017 C1037 0.950 . S
H1018 C1039 0.950 . S
H1019 C1042 0.950 . S
H1020 C1043 0.950 . S
H1021 C1045 0.950 . S
H1022 C1046 0.950 . S
H1023 C1047 0.951 . S
H1024 C1049 0.951 . S
H1025 C1051 0.950 . S
H1026 C1052 0.950 . S
H1027 C1054 0.950 . S
H1028 C1057 0.950 . S
H1029 C1058 0.950 . S
H1030 C1060 0.950 . S
H1031 C1061 0.950 . S
C1032 H1014 0.951 . S
C1032 C1033 1.366 . S
C1032 C1034 1.388 . S
C1033 C1032 1.366 . S
C1033 C1037 1.385 . S
C1034 H1015 0.951 . S
C1034 C1032 1.388 . S
C1034 C1035 1.366 . S
C1035 C1034 1.366 . S
C1035 C1036 1.414 . S
C1035 C1038 1.499 . S
C1036 H1016 0.950 . S
C1036 C1035 1.414 . S
C1036 C1037 1.374 . S
C1037 H1017 0.950 . S
C1037 C1033 1.385 . S
C1037 C1036 1.374 . S
C1038 C1035 1.499 . S
C1038 C1039 1.373 . S
C1038 C1040 1.389 . S
C1039 H1018 0.950 . S
C1039 C1038 1.373 . S
C1039 C1055 1.377 . S
C1040 C1038 1.389 . S
C1040 C1041 1.524 . S
C1040 C1054 1.377 . S
C1041 C1040 1.524 . S
C1041 C1042 1.397 . S
C1041 C1046 1.363 . S
C1042 H1019 0.950 . S
C1042 C1041 1.397 . S
C1042 C1043 1.334 . S
C1043 H1020 0.950 . S
C1043 C1042 1.334 . S
C1043 C1044 1.287 . S
C1044 C1043 1.287 . S
C1044 C1045 1.524 . S
C1044 H1063 0.913 . S
C1045 H1021 0.950 . S
C1045 C1044 1.524 . S
C1045 C1046 1.415 . S
C1046 H1022 0.950 . S
C1046 C1041 1.363 . S
C1046 C1045 1.415 . S
C1047 H1023 0.951 . S
C1047 C1048 1.366 . S
C1047 C1049 1.388 . S
C1048 C1047 1.366 . S
C1048 C1052 1.385 . S
C1049 H1024 0.951 . S
C1049 C1047 1.388 . S
C1049 C1050 1.366 . S
C1050 C1049 1.366 . S
C1050 C1051 1.414 . S
C1050 C1053 1.499 . S
C1051 H1025 0.950 . S
C1051 C1050 1.414 . S
C1051 C1052 1.374 . S
C1052 H1026 0.950 . S
C1052 C1048 1.385 . S
C1052 C1051 1.374 . S
C1053 C1050 1.499 . S
C1053 C1054 1.373 . S
C1053 C1055 1.389 . S
C1054 H1027 0.950 . S
C1054 C1040 1.377 . S
C1054 C1053 1.373 . S
C1055 C1039 1.377 . S
C1055 C1053 1.389 . S
C1055 C1056 1.524 . S
C1056 C1055 1.524 . S
C1056 C1057 1.397 . S
C1056 C1061 1.363 . S
C1057 H1028 0.950 . S
C1057 C1056 1.397 . S
C1057 C1058 1.334 . S
C1058 H1029 0.950 . S
C1058 C1057 1.334 . S
C1058 C1059 1.287 . S
C1059 C1058 1.287 . S
C1059 C1060 1.524 . S
C1059 H1062 0.999 . S
C1060 H1030 0.950 . S
C1060 C1059 1.524 . S
C1060 C1061 1.415 . S
C1061 H1031 0.950 . S
C1061 C1056 1.363 . S
C1061 C1060 1.415 . S
H1062 C1059 0.999 . S
H1063 C1044 0.913 . S
H1064 C1082 0.951 . S
H1065 C1084 0.951 . S
H1066 C1086 0.950 1_655 S
H1067 C1087 0.950 1_655 S
H1068 C1089 0.950 1_655 S
H1069 C1092 0.950 . S
H1070 C1093 0.950 . S
H1071 C1095 0.950 . S
H1072 C1096 0.950 . S
H1073 C1097 0.951 1_655 S
H1074 C1099 0.951 1_655 S
H1075 C1101 0.950 . S
H1076 C1102 0.950 . S
H1077 C1104 0.950 . S
H1078 C1107 0.950 . S
H1079 C1108 0.950 . S
H1080 C1110 0.950 . S
H1081 C1111 0.950 . S
C1082 H1064 0.951 . S
C1082 C1083 1.366 . S
C1082 C1084 1.388 . S
C1083 C1082 1.366 . S
C1083 C1087 1.385 1_554 S
C1084 H1065 0.951 . S
C1084 C1082 1.388 . S
C1084 C1085 1.366 1_554 S
C1085 C1084 1.366 1_556 S
C1085 C1086 1.414 . S
C1085 C1088 1.499 . S
C1086 H1066 0.950 1_455 S
C1086 C1085 1.414 . S
C1086 C1087 1.374 . S
C1087 H1067 0.950 1_455 S
C1087 C1083 1.385 1_556 S
C1087 C1086 1.374 . S
C1088 C1085 1.499 . S
C1088 C1089 1.373 . S
C1088 C1090 1.389 . S
C1089 H1068 0.950 1_455 S
C1089 C1088 1.373 . S
C1089 C1105 1.377 . S
C1090 C1088 1.389 . S
C1090 C1091 1.524 . S
C1090 C1104 1.377 . S
C1091 C1090 1.524 . S
C1091 C1092 1.397 . S
C1091 C1096 1.363 . S
C1092 H1069 0.950 . S
C1092 C1091 1.397 . S
C1092 C1093 1.334 . S
C1093 H1070 0.950 . S
C1093 C1092 1.334 . S
C1093 C1094 1.287 . S
C1094 C1093 1.287 . S
C1094 C1095 1.524 . S
C1094 H1113 0.913 . S
C1095 H1071 0.950 . S
C1095 C1094 1.524 . S
C1095 C1096 1.415 . S
C1096 H1072 0.950 . S
C1096 C1091 1.363 . S
C1096 C1095 1.415 . S
C1097 H1073 0.951 1_455 S
C1097 C1098 1.366 . S
C1097 C1099 1.388 . S
C1098 C1097 1.366 . S
C1098 C1102 1.385 . S
C1099 H1074 0.951 1_455 S
C1099 C1097 1.388 . S
C1099 C1100 1.366 . S
C1100 C1099 1.366 . S
C1100 C1101 1.414 . S
C1100 C1103 1.499 . S
C1101 H1075 0.950 . S
C1101 C1100 1.414 . S
C1101 C1102 1.374 . S
C1102 H1076 0.950 . S
C1102 C1098 1.385 . S
C1102 C1101 1.374 . S
C1103 C1100 1.499 . S
C1103 C1104 1.373 . S
C1103 C1105 1.389 . S
C1104 H1077 0.950 . S
C1104 C1090 1.377 . S
C1104 C1103 1.373 . S
C1105 C1089 1.377 . S
C1105 C1103 1.389 . S
C1105 C1106 1.524 1_455 S
C1106 C1105 1.524 1_655 S
C1106 C1107 1.397 1_556 S
C1106 C1111 1.363 . S
C1107 H1078 0.950 . S
C1107 C1106 1.397 1_554 S
C1107 C1108 1.334 . S
C1108 H1079 0.950 . S
C1108 C1107 1.334 . S
C1108 C1109 1.287 . S
C1109 C1108 1.287 . S
C1109 C1110 1.522 1_554 S
C1109 H1112 0.999 . S
C1110 H1080 0.950 . S
C1110 C1109 1.522 1_556 S
C1110 C1111 1.416 . S
C1111 H1081 0.950 . S
C1111 C1106 1.363 . S
C1111 C1110 1.416 . S
H1112 C1109 0.999 . S
H1113 C1094 0.913 . S
H1114 C1132 0.951 . S
H1115 C1134 0.951 . S
H1116 C1136 0.953 1_556 S
H1117 C1137 0.946 1_565 S
H1118 C1139 0.950 . S
H1119 C1142 0.950 . S
H1120 C1143 0.950 . S
H1121 C1145 0.950 . S
H1122 C1146 0.950 . S
H1123 C1147 0.951 . S
H1124 C1149 0.951 . S
H1125 C1151 0.950 1_554 S
H1126 C1152 0.950 . S
H1127 C1154 0.950 . S
H1128 C1157 0.950 . S
H1129 C1158 0.950 . S
H1130 C1160 0.950 . S
H1131 C1161 0.950 . S
C1132 H1114 0.951 . S
C1132 C1133 1.366 . S
C1132 C1134 1.388 . S
C1133 C1132 1.366 . S
C1133 C1137 1.385 . S
C1134 H1115 0.951 . S
C1134 C1132 1.388 . S
C1134 C1135 1.366 . S
C1135 C1134 1.366 . S
C1135 C1136 1.414 . S
C1135 C1138 1.499 . S
C1136 H1116 0.953 1_554 S
C1136 C1135 1.414 . S
C1136 C1137 1.374 . S
C1137 H1117 0.946 1_545 S
C1137 C1133 1.385 . S
C1137 C1136 1.374 . S
C1138 C1135 1.499 . S
C1138 C1139 1.373 1_544 S
C1138 C1140 1.389 . S
C1139 H1118 0.950 . S
C1139 C1138 1.373 1_566 S
C1139 C1155 1.377 . S
C1140 C1138 1.389 . S
C1140 C1141 1.524 . S
C1140 C1154 1.377 . S
C1141 C1140 1.524 . S
C1141 C1142 1.397 . S
C1141 C1146 1.363 . S
C1142 H1119 0.950 . S
C1142 C1141 1.397 . S
C1142 C1143 1.334 . S
C1143 H1120 0.950 . S
C1143 C1142 1.334 . S
C1143 C1144 1.287 . S
C1144 C1143 1.287 . S
C1144 C1145 1.524 . S
C1144 H1163 0.913 . S
C1145 H1121 0.950 . S
C1145 C1144 1.524 . S
C1145 C1146 1.415 . S
C1146 H1122 0.950 . S
C1146 C1141 1.363 . S
C1146 C1145 1.415 . S
C1147 H1123 0.951 . S
C1147 C1148 1.366 . S
C1147 C1149 1.388 . S
C1148 C1147 1.366 . S
C1148 C1152 1.385 . S
C1149 H1124 0.951 . S
C1149 C1147 1.388 . S
C1149 C1150 1.366 . S
C1150 C1149 1.366 . S
C1150 C1151 1.414 . S
C1150 C1153 1.499 . S
C1151 H1125 0.950 1_556 S
C1151 C1150 1.414 . S
C1151 C1152 1.374 . S
C1152 H1126 0.950 . S
C1152 C1148 1.385 . S
C1152 C1151 1.374 . S
C1153 C1150 1.499 . S
C1153 C1154 1.373 1_556 S
C1153 C1155 1.389 1_545 S
C1154 H1127 0.950 . S
C1154 C1140 1.377 . S
C1154 C1153 1.373 1_554 S
C1155 C1139 1.377 . S
C1155 C1153 1.389 1_565 S
C1155 C1156 1.524 . S
C1156 C1155 1.524 . S
C1156 C1157 1.397 . S
C1156 C1161 1.363 . S
C1157 H1128 0.950 . S
C1157 C1156 1.397 . S
C1157 C1158 1.334 . S
C1158 H1129 0.950 . S
C1158 C1157 1.334 . S
C1158 C1159 1.287 . S
C1159 C1158 1.287 . S
C1159 C1160 1.524 . S
C1159 H1162 0.999 . S
C1160 H1130 0.950 . S
C1160 C1159 1.524 . S
C1160 C1161 1.415 . S
C1161 H1131 0.950 . S
C1161 C1156 1.363 . S
C1161 C1160 1.415 . S
H1162 C1159 0.999 . S
H1163 C1144 0.913 . S
H1164 C1182 0.951 . S
H1165 C1184 0.951 . S
H1166 C1186 0.950 . S
H1167 C1187 0.950 . S
H1168 C1189 0.950 . S
H1169 C1192 0.950 . S
H1170 C1193 0.950 . S
H1171 C1195 0.950 . S
H1172 C1196 0.950 . S
H1173 C1197 0.950 1_554 S
H1174 C1199 0.951 . S
H1175 C1201 0.950 . S
H1176 C1202 0.950 . S
H1177 C1204 0.950 . S
H1178 C1207 0.950 . S
H1179 C1208 0.950 . S
H1180 C1210 0.950 . S
H1181 C1211 0.950 . S
C1182 H1164 0.951 . S
C1182 C1183 1.366 . S
C1182 C1184 1.388 . S
C1183 C1182 1.366 . S
C1183 C1187 1.385 . S
C1184 H1165 0.951 . S
C1184 C1182 1.388 . S
C1184 C1185 1.366 . S
C1185 C1184 1.366 . S
C1185 C1186 1.414 . S
C1185 C1188 1.499 . S
C1186 H1166 0.950 . S
C1186 C1185 1.414 . S
C1186 C1187 1.374 . S
C1187 H1167 0.950 . S
C1187 C1183 1.385 . S
C1187 C1186 1.374 . S
C1188 C1185 1.499 . S
C1188 C1189 1.373 . S
C1188 C1190 1.389 . S
C1189 H1168 0.950 . S
C1189 C1188 1.373 . S
C1189 C1205 1.377 . S
C1190 C1188 1.389 . S
C1190 C1191 1.524 . S
C1190 C1204 1.377 . S
C1191 C1190 1.524 . S
C1191 C1192 1.397 . S
C1191 C1196 1.363 . S
C1192 H1169 0.950 . S
C1192 C1191 1.397 . S
C1192 C1193 1.334 . S
C1193 H1170 0.950 . S
C1193 C1192 1.334 . S
C1193 C1194 1.287 . S
C1194 C1193 1.287 . S
C1194 C1195 1.524 . S
C1194 H1213 0.913 . S
C1195 H1171 0.950 . S
C1195 C1194 1.524 . S
C1195 C1196 1.415 . S
C1196 H1172 0.950 . S
C1196 C1191 1.363 . S
C1196 C1195 1.415 . S
C1197 H1173 0.950 1_556 S
C1197 C1198 1.366 . S
C1197 C1199 1.388 1_556 S
C1198 C1197 1.366 . S
C1198 C1202 1.385 . S
C1199 H1174 0.951 . S
C1199 C1197 1.388 1_554 S
C1199 C1200 1.366 . S
C1200 C1199 1.366 . S
C1200 C1201 1.414 1_554 S
C1200 C1203 1.499 . S
C1201 H1175 0.950 . S
C1201 C1200 1.414 1_556 S
C1201 C1202 1.374 . S
C1202 H1176 0.950 . S
C1202 C1198 1.385 . S
C1202 C1201 1.374 . S
C1203 C1200 1.499 . S
C1203 C1204 1.373 . S
C1203 C1205 1.389 . S
C1204 H1177 0.950 . S
C1204 C1190 1.377 . S
C1204 C1203 1.373 . S
C1205 C1189 1.377 . S
C1205 C1203 1.389 . S
C1205 C1206 1.524 . S
C1206 C1205 1.524 . S
C1206 C1207 1.397 1_554 S
C1206 C1211 1.363 . S
C1207 H1178 0.950 . S
C1207 C1206 1.397 1_556 S
C1207 C1208 1.334 . S
C1208 H1179 0.950 . S
C1208 C1207 1.334 . S
C1208 C1209 1.287 1_556 S
C1209 C1208 1.287 1_554 S
C1209 C1210 1.524 . S
C1209 H1212 0.999 1_554 S
C1210 H1180 0.950 . S
C1210 C1209 1.524 . S
C1210 C1211 1.415 . S
C1211 H1181 0.950 . S
C1211 C1206 1.363 . S
C1211 C1210 1.415 . S
H1212 C1209 0.999 1_556 S
H1213 C1194 0.913 . S
H1214 C1232 0.951 . S
H1215 C1234 0.951 . S
H1216 C1236 0.950 . S
H1217 C1237 0.950 1_554 S
H1218 C1239 0.950 . S
H1219 C1242 0.950 . S
H1220 C1243 0.950 . S
H1221 C1245 0.950 . S
H1222 C1246 0.950 . S
H1223 C1247 0.951 . S
H1224 C1249 0.951 . S
H1225 C1251 0.950 . S
H1226 C1252 0.950 . S
H1227 C1254 0.950 . S
H1228 C1257 0.950 . S
H1229 C1258 0.950 1_556 S
H1230 C1260 0.950 . S
H1231 C1261 0.950 . S
C1232 H1214 0.951 . S
C1232 C1233 1.366 . S
C1232 C1234 1.388 . S
C1233 C1232 1.366 . S
C1233 C1237 1.385 . S
C1234 H1215 0.951 . S
C1234 C1232 1.388 . S
C1234 C1235 1.366 . S
C1235 C1234 1.366 . S
C1235 C1236 1.414 . S
C1235 C1238 1.499 . S
C1236 H1216 0.950 . S
C1236 C1235 1.414 . S
C1236 C1237 1.374 . S
C1237 H1217 0.950 1_556 S
C1237 C1233 1.385 . S
C1237 C1236 1.374 . S
C1238 C1235 1.499 . S
C1238 C1239 1.373 . S
C1238 C1240 1.389 . S
C1239 H1218 0.950 . S
C1239 C1238 1.373 . S
C1239 C1255 1.377 . S
C1240 C1238 1.389 . S
C1240 C1241 1.524 . S
C1240 C1254 1.377 . S
C1241 C1240 1.524 . S
C1241 C1242 1.397 . S
C1241 C1246 1.363 . S
C1242 H1219 0.950 . S
C1242 C1241 1.397 . S
C1242 C1243 1.334 . S
C1243 H1220 0.950 . S
C1243 C1242 1.334 . S
C1243 C1244 1.287 . S
C1244 C1243 1.287 . S
C1244 C1245 1.524 . S
C1244 H1263 0.913 . S
C1245 H1221 0.950 . S
C1245 C1244 1.524 . S
C1245 C1246 1.415 . S
C1246 H1222 0.950 . S
C1246 C1241 1.363 . S
C1246 C1245 1.415 . S
C1247 H1223 0.951 . S
C1247 C1248 1.366 . S
C1247 C1249 1.388 . S
C1248 C1247 1.366 . S
C1248 C1252 1.385 . S
C1249 H1224 0.951 . S
C1249 C1247 1.388 . S
C1249 C1250 1.366 . S
C1250 C1249 1.366 . S
C1250 C1251 1.414 . S
C1250 C1253 1.499 . S
C1251 H1225 0.950 . S
C1251 C1250 1.414 . S
C1251 C1252 1.374 . S
C1252 H1226 0.950 . S
C1252 C1248 1.385 . S
C1252 C1251 1.374 . S
C1253 C1250 1.499 . S
C1253 C1254 1.373 . S
C1253 C1255 1.389 . S
C1254 H1227 0.950 . S
C1254 C1240 1.377 . S
C1254 C1253 1.373 . S
C1255 C1239 1.377 . S
C1255 C1253 1.389 . S
C1255 C1256 1.524 . S
C1256 C1255 1.524 . S
C1256 C1257 1.397 . S
C1256 C1261 1.363 1_556 S
C1257 H1228 0.950 . S
C1257 C1256 1.397 . S
C1257 C1258 1.334 1_556 S
C1258 H1229 0.950 1_554 S
C1258 C1257 1.334 1_554 S
C1258 C1259 1.287 . S
C1259 C1258 1.287 . S
C1259 C1260 1.524 . S
C1259 H1262 0.999 . S
C1260 H1230 0.950 . S
C1260 C1259 1.524 . S
C1260 C1261 1.415 . S
C1261 H1231 0.950 . S
C1261 C1256 1.363 1_554 S
C1261 C1260 1.415 . S
H1262 C1259 0.999 . S
H1263 C1244 0.913 . S
H1264 C1282 0.952 . S
H1265 C1284 0.953 . S
H1266 C1286 0.950 . S
H1267 C1287 0.950 . S
H1268 C1289 0.950 . S
H1269 C1292 0.950 . S
H1270 C1293 0.950 . S
H1271 C1295 0.950 . S
H1272 C1296 0.950 . S
H1273 C1297 0.951 . S
H1274 C1299 0.951 . S
H1275 C1301 0.950 . S
H1276 C1302 0.950 . S
H1277 C1304 0.950 . S
H1278 C1307 0.950 . S
H1279 C1308 0.950 . S
H1280 C1310 0.950 . S
H1281 C1311 0.950 . S
C1282 H1264 0.952 . S
C1282 C1283 1.364 1_455 S
C1282 C1284 1.388 . S
C1283 C1282 1.364 1_655 S
C1283 C1287 1.385 . S
C1284 H1265 0.953 . S
C1284 C1282 1.388 . S
C1284 C1285 1.364 1_455 S
C1285 C1284 1.364 1_655 S
C1285 C1286 1.414 . S
C1285 C1288 1.499 . S
C1286 H1266 0.950 . S
C1286 C1285 1.414 . S
C1286 C1287 1.374 . S
C1287 H1267 0.950 . S
C1287 C1283 1.385 . S
C1287 C1286 1.374 . S
C1288 C1285 1.499 . S
C1288 C1289 1.373 1_655 S
C1288 C1290 1.389 . S
C1289 H1268 0.950 . S
C1289 C1288 1.373 1_455 S
C1289 C1305 1.377 . S
C1290 C1288 1.389 . S
C1290 C1291 1.524 . S
C1290 C1304 1.377 . S
C1291 C1290 1.524 . S
C1291 C1292 1.397 . S
C1291 C1296 1.363 . S
C1292 H1269 0.950 . S
C1292 C1291 1.397 . S
C1292 C1293 1.334 . S
C1293 H1270 0.950 . S
C1293 C1292 1.334 . S
C1293 C1294 1.287 . S
C1294 C1293 1.287 . S
C1294 C1295 1.524 . S
C1294 H1313 0.913 . S
C1295 H1271 0.950 . S
C1295 C1294 1.524 . S
C1295 C1296 1.415 . S
C1296 H1272 0.950 . S
C1296 C1291 1.363 . S
C1296 C1295 1.415 . S
C1297 H1273 0.951 . S
C1297 C1298 1.366 1_655 S
C1297 C1299 1.388 . S
C1298 C1297 1.366 1_455 S
C1298 C1302 1.385 . S
C1299 H1274 0.951 . S
C1299 C1297 1.388 . S
C1299 C1300 1.366 1_655 S
C1300 C1299 1.366 1_455 S
C1300 C1301 1.414 . S
C1300 C1303 1.506 . S
C1301 H1275 0.950 . S
C1301 C1300 1.414 . S
C1301 C1302 1.374 . S
C1302 H1276 0.950 . S
C1302 C1298 1.385 . S
C1302 C1301 1.374 . S
C1303 C1300 1.506 . S
C1303 C1304 1.345 1_455 S
C1303 C1305 1.409 . S
C1304 H1277 0.950 . S
C1304 C1290 1.377 . S
C1304 C1303 1.345 1_655 S
C1305 C1289 1.377 . S
C1305 C1303 1.409 . S
C1305 C1306 1.524 . S
C1306 C1305 1.524 . S
C1306 C1307 1.397 . S
C1306 C1311 1.363 . S
C1307 H1278 0.950 . S
C1307 C1306 1.397 . S
C1307 C1308 1.334 . S
C1308 H1279 0.950 . S
C1308 C1307 1.334 . S
C1308 C1309 1.287 . S
C1309 C1308 1.287 . S
C1309 C1310 1.524 . S
C1309 H1312 0.999 . S
C1310 H1280 0.950 . S
C1310 C1309 1.524 . S
C1310 C1311 1.415 . S
C1311 H1281 0.950 . S
C1311 C1306 1.363 . S
C1311 C1310 1.415 . S
H1312 C1309 0.999 . S
H1313 C1294 0.913 . S
H1314 C1332 0.951 . S
H1315 C1334 0.951 . S
H1316 C1336 0.950 . S
H1317 C1337 0.950 . S
H1318 C1339 0.950 . S
H1319 C1342 0.950 . S
H1320 C1343 0.950 . S
H1321 C1345 0.950 . S
H1322 C1346 0.950 . S
H1323 C1347 0.951 . S
H1324 C1349 0.951 . S
H1325 C1351 0.950 . S
H1326 C1352 0.950 . S
H1327 C1354 0.950 . S
H1328 C1357 0.950 . S
H1329 C1358 0.950 . S
H1330 C1360 0.950 . S
H1331 C1361 0.950 . S
C1332 H1314 0.951 . S
C1332 C1333 1.366 1_545 S
C1332 C1334 1.388 . S
C1333 C1332 1.366 1_565 S
C1333 C1337 1.385 . S
C1334 H1315 0.951 . S
C1334 C1332 1.388 . S
C1334 C1335 1.366 1_545 S
C1335 C1334 1.366 1_565 S
C1335 C1336 1.414 . S
C1335 C1338 1.499 . S
C1336 H1316 0.950 . S
C1336 C1335 1.414 . S
C1336 C1337 1.374 . S
C1337 H1317 0.950 . S
C1337 C1333 1.385 . S
C1337 C1336 1.374 . S
C1338 C1335 1.499 . S
C1338 C1339 1.373 . S
C1338 C1340 1.389 1_565 S
C1339 H1318 0.950 . S
C1339 C1338 1.373 . S
C1339 C1355 1.377 . S
C1340 C1338 1.389 1_545 S
C1340 C1341 1.524 . S
C1340 C1354 1.377 . S
C1341 C1340 1.524 . S
C1341 C1342 1.397 . S
C1341 C1346 1.363 . S
C1342 H1319 0.950 . S
C1342 C1341 1.397 . S
C1342 C1343 1.334 . S
C1343 H1320 0.950 . S
C1343 C1342 1.334 . S
C1343 C1344 1.287 . S
C1344 C1343 1.287 . S
C1344 C1345 1.524 . S
C1344 H1363 0.913 . S
C1345 H1321 0.950 . S
C1345 C1344 1.524 . S
C1345 C1346 1.415 . S
C1346 H1322 0.950 . S
C1346 C1341 1.363 . S
C1346 C1345 1.415 . S
C1347 H1323 0.951 . S
C1347 C1348 1.366 . S
C1347 C1349 1.388 . S
C1348 C1347 1.366 . S
C1348 C1352 1.385 1_565 S
C1349 H1324 0.951 . S
C1349 C1347 1.388 . S
C1349 C1350 1.366 . S
C1350 C1349 1.366 . S
C1350 C1351 1.414 1_565 S
C1350 C1353 1.499 . S
C1351 H1325 0.950 . S
C1351 C1350 1.414 1_545 S
C1351 C1352 1.374 . S
C1352 H1326 0.950 . S
C1352 C1348 1.385 1_545 S
C1352 C1351 1.374 . S
C1353 C1350 1.499 . S
C1353 C1354 1.373 1_565 S
C1353 C1355 1.389 . S
C1354 H1327 0.950 . S
C1354 C1340 1.377 . S
C1354 C1353 1.373 1_545 S
C1355 C1339 1.377 . S
C1355 C1353 1.389 . S
C1355 C1356 1.524 . S
C1356 C1355 1.524 . S
C1356 C1357 1.397 . S
C1356 C1361 1.363 . S
C1357 H1328 0.950 . S
C1357 C1356 1.397 . S
C1357 C1358 1.334 . S
C1358 H1329 0.950 . S
C1358 C1357 1.334 . S
C1358 C1359 1.287 . S
C1359 C1358 1.287 . S
C1359 C1360 1.524 . S
C1359 H1362 0.999 . S
C1360 H1330 0.950 . S
C1360 C1359 1.524 . S
C1360 C1361 1.415 . S
C1361 H1331 0.950 . S
C1361 C1356 1.363 . S
C1361 C1360 1.415 . S
H1362 C1359 0.999 . S
H1363 C1344 0.913 . S
H1364 C1382 0.951 . S
H1365 C1384 0.951 . S
H1366 C1386 0.950 . S
H1367 C1387 0.950 . S
H1368 C1389 0.950 . S
H1369 C1392 0.950 . S
H1370 C1393 0.950 . S
H1371 C1395 0.950 . S
H1372 C1396 0.950 . S
H1373 C1397 0.951 . S
H1374 C1399 0.951 . S
H1375 C1401 0.950 . S
H1376 C1402 0.950 . S
H1377 C1404 0.950 . S
H1378 C1407 0.950 . S
H1379 C1408 0.950 . S
H1380 C1410 0.950 . S
H1381 C1411 0.950 . S
C1382 H1364 0.951 . S
C1382 C1383 1.366 . S
C1382 C1384 1.388 . S
C1383 C1382 1.366 . S
C1383 C1387 1.385 . S
C1384 H1365 0.951 . S
C1384 C1382 1.388 . S
C1384 C1385 1.366 . S
C1385 C1384 1.366 . S
C1385 C1386 1.414 . S
C1385 C1388 1.499 . S
C1386 H1366 0.950 . S
C1386 C1385 1.414 . S
C1386 C1387 1.374 . S
C1387 H1367 0.950 . S
C1387 C1383 1.385 . S
C1387 C1386 1.374 . S
C1388 C1385 1.499 . S
C1388 C1389 1.373 . S
C1388 C1390 1.389 . S
C1389 H1368 0.950 . S
C1389 C1388 1.373 . S
C1389 C1405 1.377 . S
C1390 C1388 1.389 . S
C1390 C1391 1.524 . S
C1390 C1404 1.377 . S
C1391 C1390 1.524 . S
C1391 C1392 1.397 . S
C1391 C1396 1.363 . S
C1392 H1369 0.950 . S
C1392 C1391 1.397 . S
C1392 C1393 1.334 . S
C1393 H1370 0.950 . S
C1393 C1392 1.334 . S
C1393 C1394 1.287 . S
C1394 C1393 1.287 . S
C1394 C1395 1.524 . S
C1394 H1413 0.913 . S
C1395 H1371 0.950 . S
C1395 C1394 1.524 . S
C1395 C1396 1.415 . S
C1396 H1372 0.950 . S
C1396 C1391 1.363 . S
C1396 C1395 1.415 . S
C1397 H1373 0.951 . S
C1397 C1398 1.366 . S
C1397 C1399 1.388 . S
C1398 C1397 1.366 . S
C1398 C1402 1.385 . S
C1399 H1374 0.951 . S
C1399 C1397 1.388 . S
C1399 C1400 1.366 . S
C1400 C1399 1.366 . S
C1400 C1401 1.414 . S
C1400 C1403 1.499 . S
C1401 H1375 0.950 . S
C1401 C1400 1.414 . S
C1401 C1402 1.374 . S
C1402 H1376 0.950 . S
C1402 C1398 1.385 . S
C1402 C1401 1.374 . S
C1403 C1400 1.499 . S
C1403 C1404 1.373 . S
C1403 C1405 1.389 . S
C1404 H1377 0.950 . S
C1404 C1390 1.377 . S
C1404 C1403 1.373 . S
C1405 C1389 1.377 . S
C1405 C1403 1.389 . S
C1405 C1406 1.524 . S
C1406 C1405 1.524 . S
C1406 C1407 1.397 . S
C1406 C1411 1.363 . S
C1407 H1378 0.950 . S
C1407 C1406 1.397 . S
C1407 C1408 1.334 . S
C1408 H1379 0.950 . S
C1408 C1407 1.334 . S
C1408 C1409 1.287 . S
C1409 C1408 1.287 . S
C1409 C1410 1.524 . S
C1409 H1412 0.999 . S
C1410 H1380 0.950 . S
C1410 C1409 1.524 . S
C1410 C1411 1.415 . S
C1411 H1381 0.950 . S
C1411 C1406 1.363 . S
C1411 C1410 1.415 . S
H1412 C1409 0.999 . S
H1413 C1394 0.913 . S
H1414 C1432 0.951 . S
H1415 C1434 0.951 . S
H1416 C1436 0.950 . S
H1417 C1437 0.950 . S
H1418 C1439 0.950 . S
H1419 C1442 0.950 . S
H1420 C1443 0.950 . S
H1421 C1445 0.950 . S
H1422 C1446 0.950 . S
H1423 C1447 0.951 . S
H1424 C1449 0.951 . S
H1425 C1451 0.950 . S
H1426 C1452 0.950 . S
H1427 C1454 0.950 . S
H1428 C1457 0.950 . S
H1429 C1458 0.950 . S
H1430 C1460 0.950 . S
H1431 C1461 0.950 . S
C1432 H1414 0.951 . S
C1432 C1433 1.366 . S
C1432 C1434 1.388 . S
C1433 C1432 1.366 . S
C1433 C1437 1.385 . S
C1434 H1415 0.951 . S
C1434 C1432 1.388 . S
C1434 C1435 1.366 . S
C1435 C1434 1.366 . S
C1435 C1436 1.414 . S
C1435 C1438 1.499 . S
C1436 H1416 0.950 . S
C1436 C1435 1.414 . S
C1436 C1437 1.374 . S
C1437 H1417 0.950 . S
C1437 C1433 1.385 . S
C1437 C1436 1.374 . S
C1438 C1435 1.499 . S
C1438 C1439 1.373 . S
C1438 C1440 1.389 . S
C1439 H1418 0.950 . S
C1439 C1438 1.373 . S
C1439 C1455 1.377 . S
C1440 C1438 1.389 . S
C1440 C1441 1.524 . S
C1440 C1454 1.377 . S
C1441 C1440 1.524 . S
C1441 C1442 1.397 . S
C1441 C1446 1.363 . S
C1442 H1419 0.950 . S
C1442 C1441 1.397 . S
C1442 C1443 1.334 . S
C1443 H1420 0.950 . S
C1443 C1442 1.334 . S
C1443 C1444 1.287 . S
C1444 C1443 1.287 . S
C1444 C1445 1.524 . S
C1444 H1463 0.913 . S
C1445 H1421 0.950 . S
C1445 C1444 1.524 . S
C1445 C1446 1.415 . S
C1446 H1422 0.950 . S
C1446 C1441 1.363 . S
C1446 C1445 1.415 . S
C1447 H1423 0.951 . S
C1447 C1448 1.366 . S
C1447 C1449 1.388 . S
C1448 C1447 1.366 . S
C1448 C1452 1.385 . S
C1449 H1424 0.951 . S
C1449 C1447 1.388 . S
C1449 C1450 1.366 . S
C1450 C1449 1.366 . S
C1450 C1451 1.414 . S
C1450 C1453 1.499 . S
C1451 H1425 0.950 . S
C1451 C1450 1.414 . S
C1451 C1452 1.374 . S
C1452 H1426 0.950 . S
C1452 C1448 1.385 . S
C1452 C1451 1.374 . S
C1453 C1450 1.499 . S
C1453 C1454 1.373 . S
C1453 C1455 1.389 . S
C1454 H1427 0.950 . S
C1454 C1440 1.377 . S
C1454 C1453 1.373 . S
C1455 C1439 1.377 . S
C1455 C1453 1.389 . S
C1455 C1456 1.524 . S
C1456 C1455 1.524 . S
C1456 C1457 1.397 . S
C1456 C1461 1.363 . S
C1457 H1428 0.950 . S
C1457 C1456 1.397 . S
C1457 C1458 1.334 . S
C1458 H1429 0.950 . S
C1458 C1457 1.334 . S
C1458 C1459 1.287 . S
C1459 C1458 1.287 . S
C1459 C1460 1.524 . S
C1459 H1462 0.999 . S
C1460 H1430 0.950 . S
C1460 C1459 1.524 . S
C1460 C1461 1.415 . S
C1461 H1431 0.950 . S
C1461 C1456 1.363 . S
C1461 C1460 1.415 . S
H1462 C1459 0.999 . S
H1463 C1444 0.913 . S
C283 N80 1.970 . S
C298 C106 1.979 1_545 S
C348 C146 2.089 . S
C333 N93 2.091 . S
C398 C210 1.784 . S
C383 N54 1.742 . S
C448 C226 1.439 . S
C433 N67 1.384 . S
C498 C127 1.978 . S
C483 N28 1.975 . S
C533 N41 2.099 . S
C548 C167 2.090 . S
C583 N2 1.747 . S
C598 C201 1.784 1_554 S
C633 N15 1.386 . S
C648 C247 1.438 . S
C698 C121 0.234 1_655 S
C683 N70 0.213 . S
C748 C161 0.533 . S
C733 N83 0.514 . S
C798 C197 0.443 . S
C783 N96 0.370 . S
C833 N57 0.359 . S
C848 C241 0.410 . S
C883 N18 0.200 . S
C898 C130 0.275 . S
C948 C170 0.530 1_554 S
C933 N31 0.512 . S
C998 C208 0.442 . S
C983 N44 0.362 . S
C1033 N5 0.347 . S
C1048 C250 0.410 . S
C1083 N66 1.848 . S
C1098 C128 1.902 . S
C1133 N79 1.884 . S
C1148 C168 1.916 . S
C1198 C186 1.507 . S
C1183 N92 1.537 . S
C1248 C248 2.264 . S
C1233 N53 2.195 . S
C1283 N14 1.850 . S
C1298 C117 1.902 . S
C1348 C157 1.916 . S
C1333 N27 1.881 . S
C1398 C207 1.507 . S
C1383 N40 1.548 . S
C1433 N1 2.203 . S
C1448 C237 2.264 . S
