# Generated by pormake.
# Topology apo, (3,6)-cn, num edge types: 1
# Building blocks:
#     Node 0, Type 0, BuildingBlock: BETDIP_clean_linker_0, # of connection points: 3
#     Node 1, Type 0, BuildingBlock: BETDIP_clean_linker_0, # of connection points: 3
#     Node 2, Type 0, BuildingBlock: BETDIP_clean_linker_0, # of connection points: 3
#     Node 3, Type 0, BuildingBlock: BETDIP_clean_linker_0, # of connection points: 3
#     Node 4, Type 0, BuildingBlock: BETDIP_clean_linker_0, # of connection points: 3
#     Node 5, Type 0, BuildingBlock: BETDIP_clean_linker_0, # of connection points: 3
#     Node 6, Type 0, BuildingBlock: BETDIP_clean_linker_0, # of connection points: 3
#     Node 7, Type 0, BuildingBlock: BETDIP_clean_linker_0, # of connection points: 3
#     Node 8, Type 1, BuildingBlock: KUMBUR_clean_sbu_1, # of connection points: 6
#     Node 9, Type 1, BuildingBlock: KUMBUR_clean_sbu_1, # of connection points: 6
#     Node 10, Type 1, BuildingBlock: KUMBUR_clean_sbu_1, # of connection points: 6
#     Node 11, Type 1, BuildingBlock: KUMBUR_clean_sbu_1, # of connection points: 6
#     Edge 12, Type (0, 1), BuildingBlock: CIFDUS_clean_linker_0, # of connection points: 2
#     Edge 13, Type (0, 1), BuildingBlock: CIFDUS_clean_linker_0, # of connection points: 2
#     Edge 14, Type (0, 1), BuildingBlock: CIFDUS_clean_linker_0, # of connection points: 2
#     Edge 15, Type (0, 1), BuildingBlock: CIFDUS_clean_linker_0, # of connection points: 2
#     Edge 16, Type (0, 1), BuildingBlock: CIFDUS_clean_linker_0, # of connection points: 2
#     Edge 17, Type (0, 1), BuildingBlock: CIFDUS_clean_linker_0, # of connection points: 2
#     Edge 18, Type (0, 1), BuildingBlock: CIFDUS_clean_linker_0, # of connection points: 2
#     Edge 19, Type (0, 1), BuildingBlock: CIFDUS_clean_linker_0, # of connection points: 2
#     Edge 20, Type (0, 1), BuildingBlock: CIFDUS_clean_linker_0, # of connection points: 2
#     Edge 21, Type (0, 1), BuildingBlock: CIFDUS_clean_linker_0, # of connection points: 2
#     Edge 22, Type (0, 1), BuildingBlock: CIFDUS_clean_linker_0, # of connection points: 2
#     Edge 23, Type (0, 1), BuildingBlock: CIFDUS_clean_linker_0, # of connection points: 2
#     Edge 24, Type (0, 1), BuildingBlock: CIFDUS_clean_linker_0, # of connection points: 2
#     Edge 25, Type (0, 1), BuildingBlock: CIFDUS_clean_linker_0, # of connection points: 2
#     Edge 26, Type (0, 1), BuildingBlock: CIFDUS_clean_linker_0, # of connection points: 2
#     Edge 27, Type (0, 1), BuildingBlock: CIFDUS_clean_linker_0, # of connection points: 2
#     Edge 28, Type (0, 1), BuildingBlock: CIFDUS_clean_linker_0, # of connection points: 2
#     Edge 29, Type (0, 1), BuildingBlock: CIFDUS_clean_linker_0, # of connection points: 2
#     Edge 30, Type (0, 1), BuildingBlock: CIFDUS_clean_linker_0, # of connection points: 2
#     Edge 31, Type (0, 1), BuildingBlock: CIFDUS_clean_linker_0, # of connection points: 2
#     Edge 32, Type (0, 1), BuildingBlock: CIFDUS_clean_linker_0, # of connection points: 2
#     Edge 33, Type (0, 1), BuildingBlock: CIFDUS_clean_linker_0, # of connection points: 2
#     Edge 34, Type (0, 1), BuildingBlock: CIFDUS_clean_linker_0, # of connection points: 2
#     Edge 35, Type (0, 1), BuildingBlock: CIFDUS_clean_linker_0, # of connection points: 2
# Relax obj value: 0.037
# Max RMSD: 0.206
# Mean RMSD: 0.161
data_MOF--net-apo--node1-KUMBUR_clean_sbu_1--node2-BETDIP_clean_linker_0--edge1-CIFDUS_clean_linker_0
_symmetry_space_group_name_H-M    P1
_symmetry_Int_Tables_number       1
_symmetry_cell_setting            triclinic
loop_
_symmetry_equiv_pos_as_xyz
'x, y, z'
_cell_length_a     24.385546
_cell_length_b     36.462984
_cell_length_c     45.899927
_cell_angle_alpha  90.05562
_cell_angle_beta   89.758474
_cell_angle_gamma 90.281024
loop_
_atom_site_label
_atom_site_type_symbol
_atom_site_fract_x
_atom_site_fract_y
_atom_site_fract_z
_atom_type_partial_charge
H0 H 0.25111 0.33606 0.43679 0.0
H1 H 0.28157 0.39491 0.35738 0.0
H2 H 0.36352 0.42773 0.43614 0.0
H3 H 0.19251 0.37152 0.34761 0.0
C4 C 0.19623 0.34371 0.3558 0.0
C5 C 0.27199 0.35812 0.42538 0.0
C6 C 0.30798 0.38159 0.44051 0.0
C7 C 0.26146 0.36292 0.3957 0.0
C8 C 0.28776 0.39163 0.38059 0.0
C9 C 0.32478 0.41497 0.3951 0.0
C10 C 0.33449 0.41 0.42507 0.0
N11 N 0.22661 0.33705 0.3816 0.0
H12 H 0.24202 0.18002 0.9404 0.0
H13 H 0.22139 0.11776 0.86182 0.0
H14 H 0.1287 0.08882 0.93829 0.0
H15 H 0.30882 0.14138 0.8528 0.0
C16 C 0.30376 0.16942 0.86034 0.0
C17 C 0.22219 0.15766 0.92891 0.0
C18 C 0.18396 0.13498 0.94336 0.0
C19 C 0.23641 0.15153 0.89977 0.0
C20 C 0.21209 0.12219 0.88464 0.0
C21 C 0.17317 0.09959 0.89849 0.0
C22 C 0.15917 0.1061 0.92778 0.0
N23 N 0.27291 0.17667 0.88601 0.0
H24 H 0.76532 0.1782 0.59174 0.0
H25 H 0.78562 0.1337 0.67732 0.0
H26 H 0.87175 0.08564 0.6049 0.0
H27 H 0.69555 0.14912 0.68045 0.0
C28 C 0.69693 0.17655 0.67123 0.0
C29 C 0.78356 0.15793 0.60593 0.0
C30 C 0.82117 0.13229 0.59466 0.0
C31 C 0.76905 0.15771 0.63547 0.0
C32 C 0.79403 0.13239 0.65419 0.0
C33 C 0.8307 0.10588 0.64355 0.0
C34 C 0.84431 0.10621 0.61363 0.0
N35 N 0.72974 0.18334 0.64606 0.0
H36 H 0.72914 0.349 0.07911 0.0
H37 H 0.70683 0.37705 0.16935 0.0
H38 H 0.6318 0.44273 0.10336 0.0
H39 H 0.79369 0.35509 0.17079 0.0
C40 C 0.78842 0.32975 0.15861 0.0
C41 C 0.71088 0.36645 0.09558 0.0
C42 C 0.67905 0.39686 0.08738 0.0
C43 C 0.72201 0.35954 0.12503 0.0
C44 C 0.69927 0.38245 0.14654 0.0
C45 C 0.66758 0.41286 0.13888 0.0
C46 C 0.65725 0.41965 0.1093 0.0
N47 N 0.7568 0.32983 0.13263 0.0
H48 H 0.74165 0.67827 0.59561 0.0
H49 H 0.74022 0.61318 0.67338 0.0
H50 H 0.6346 0.58422 0.60208 0.0
H51 H 0.75889 0.72415 0.62985 0.0
C52 C 0.78806 0.71074 0.6441 0.0
C53 C 0.72476 0.65563 0.60801 0.0
C54 C 0.68564 0.63212 0.59515 0.0
C55 C 0.74387 0.64908 0.63639 0.0
C56 C 0.72516 0.61824 0.65156 0.0
C57 C 0.68543 0.59495 0.63942 0.0
C58 C 0.66555 0.60215 0.61133 0.0
N59 N 0.78238 0.6727 0.65019 0.0
H60 H 0.72412 0.85819 0.08097 0.0
H61 H 0.76063 0.90777 0.16326 0.0
H62 H 0.85112 0.94063 0.08659 0.0
H63 H 0.75218 0.8372 0.17111 0.0
C64 C 0.71077 0.83643 0.16242 0.0
C65 C 0.74806 0.87767 0.09351 0.0
C66 C 0.78957 0.8986 0.07991 0.0
C67 C 0.73833 0.88034 0.12347 0.0
C68 C 0.76836 0.90573 0.14005 0.0
C69 C 0.80852 0.92821 0.12689 0.0
C70 C 0.81927 0.92419 0.09677 0.0
N71 N 0.69922 0.85641 0.13661 0.0
H72 H 0.26541 0.85229 0.43929 0.0
H73 H 0.23022 0.89984 0.35572 0.0
H74 H 0.1747 0.95276 0.43392 0.0
H75 H 0.23126 0.84163 0.34108 0.0
C76 C 0.26545 0.83012 0.35302 0.0
C77 C 0.24625 0.87351 0.42638 0.0
C78 C 0.221 0.90347 0.44019 0.0
C79 C 0.24802 0.87124 0.39585 0.0
C80 C 0.22556 0.89988 0.37915 0.0
C81 C 0.19893 0.92952 0.39258 0.0
C82 C 0.19621 0.93061 0.42313 0.0
N83 N 0.2746 0.84081 0.38244 0.0
H84 H 0.2752 0.67973 0.95143 0.0
H85 H 0.30368 0.63177 0.86744 0.0
H86 H 0.3593 0.57675 0.94496 0.0
H87 H 0.22474 0.66213 0.85656 0.0
C88 C 0.22744 0.68755 0.86884 0.0
C89 C 0.29183 0.65763 0.93832 0.0
C90 C 0.31889 0.62836 0.95177 0.0
C91 C 0.28418 0.6583 0.90818 0.0
C92 C 0.30635 0.63004 0.89091 0.0
C93 C 0.33417 0.6004 0.9038 0.0
C94 C 0.33908 0.59954 0.93445 0.0
N95 N 0.25496 0.68827 0.89606 0.0
Tb96 Tb 0.04502 0.1237 0.23741 0.0
C97 C 0.80609 0.10324 0.29362 0.0
N98 N 0.84085 0.1324 0.29513 0.0
C99 C 0.76533 0.17365 0.28947 0.0
C100 C 0.74934 0.10815 0.28967 0.0
C101 C 0.82134 0.16739 0.29349 0.0
C102 C 0.72917 0.14392 0.28747 0.0
C103 C 0.79331 0.0372 0.29396 0.0
C104 C 0.82775 0.06825 0.29569 0.0
C105 C 0.73665 0.04191 0.29012 0.0
C106 C 0.71473 0.07729 0.28795 0.0
Tb107 Tb 0.93097 0.11847 0.30173 0.0
N108 N 0.88306 0.06476 0.29816 0.0
C109 C 0.817 1.0024 0.29584 0.0
C110 C 0.90613 0.03096 0.30116 0.0
C111 C 0.87361 0.9993 0.29966 0.0
H112 H 0.84868 0.19055 0.29596 0.0
H113 H 0.89218 0.97253 0.30163 0.0
H114 H 0.14809 0.07644 0.2648 0.0
H115 H 0.02945 0.26615 0.20471 0.0
H116 H 0.9494 0.02816 0.30487 0.0
H117 H 0.79198 0.97782 0.29457 0.0
H118 H 0.00312 0.20105 0.20475 0.0
H119 H 0.75004 0.20141 0.28813 0.0
H120 H 0.70949 0.01838 0.28867 0.0
H121 H 0.67098 0.08049 0.2849 0.0
H122 H 0.23967 0.08958 0.28542 0.0
H123 H 0.6858 0.14887 0.2844 0.0
H124 H 0.11451 0.28612 0.22943 0.0
N125 N 0.13115 0.13235 0.25555 0.0
C126 C 0.15021 0.16747 0.25555 0.0
C127 C 0.2148 0.11174 0.27718 0.0
C128 C 0.20206 0.17625 0.26707 0.0
C129 C 0.1629 0.10438 0.26561 0.0
C130 C 0.23434 0.14784 0.27809 0.0
N131 N 0.06686 0.18484 0.23349 0.0
C132 C 0.03775 0.20961 0.21757 0.0
C133 C 0.13505 0.23134 0.24375 0.0
C134 C 0.11666 0.19464 0.24444 0.0
C135 C 0.10199 0.25759 0.23038 0.0
C136 C 0.05374 0.24648 0.21662 0.0
H137 H 0.27444 0.15345 0.28719 0.0
H138 H 0.25918 0.22039 0.27644 0.0
H139 H 0.2007 0.26861 0.25581 0.0
O140 O 0.0398 0.13002 0.1919 0.0
O141 O 0.06305 0.13946 0.28285 0.0
O142 O 0.98549 0.16647 0.30066 0.0
O143 O 0.10288 0.09708 0.21058 0.0
O144 O 0.96413 0.14947 0.23077 0.0
O145 O 0.9377 0.16894 0.27661 0.0
O146 O 0.95174 0.09913 0.3434 0.0
O147 O 0.90841 0.09339 0.25942 0.0
O148 O 0.98848 0.07707 0.23523 0.0
O149 O 0.88997 0.14024 0.3384 0.0
O150 O 0.00721 0.0872 0.30619 0.0
O151 O 0.04171 0.07119 0.26046 0.0
C152 C 0.03903 0.1655 0.29776 0.0
C153 C 0.12371 0.12797 0.1665 0.0
C154 C 0.15551 0.13867 0.11664 0.0
C155 C 0.19632 0.16234 0.12744 0.0
C156 C 0.16537 0.15122 0.17675 0.0
C157 C 0.20127 0.16839 0.15732 0.0
C158 C 0.11922 0.12147 0.13638 0.0
C159 C 0.93583 0.17134 0.24805 0.0
C160 C 0.0838 0.11114 0.18674 0.0
C161 C 0.21966 0.21298 0.26742 0.0
C162 C 0.18625 0.24047 0.25577 0.0
C163 C 0.93493 0.07544 0.23872 0.0
C164 C 0.94188 0.14158 0.38177 0.0
C165 C 0.94972 0.15116 0.43441 0.0
C166 C 0.99042 0.17785 0.42914 0.0
C167 C 0.98218 0.16852 0.37717 0.0
C168 C 0.92526 0.13319 0.41047 0.0
C169 C 0.00627 0.18652 0.40071 0.0
C170 C 0.03648 0.06607 0.28879 0.0
C171 C 0.91846 0.12132 0.35686 0.0
H172 H 0.2251 0.17565 0.11279 0.0
H173 H 0.17039 0.15608 0.1997 0.0
H174 H 0.23319 0.18636 0.16547 0.0
H175 H 0.08716 0.10349 0.1283 0.0
H176 H 0.00957 0.19235 0.44705 0.0
H177 H 0.99522 0.17557 0.35542 0.0
H178 H 0.8943 0.11225 0.41417 0.0
H179 H 0.03746 0.20722 0.3969 0.0
Tb180 Tb 0.41993 0.39148 0.73472 0.0
C181 C 0.67055 0.40949 0.77107 0.0
N182 N 0.63584 0.38097 0.7762 0.0
C183 C 0.70713 0.33837 0.76415 0.0
C184 C 0.72506 0.40359 0.76199 0.0
C185 C 0.65355 0.34564 0.77341 0.0
C186 C 0.74301 0.36746 0.7583 0.0
C187 C 0.68608 0.47523 0.77073 0.0
C188 C 0.65134 0.44476 0.77523 0.0
C189 C 0.74038 0.46959 0.76149 0.0
C190 C 0.7598 0.43385 0.75706 0.0
Tb191 Tb 0.54897 0.39624 0.79025 0.0
N192 N 0.59807 0.44912 0.78338 0.0
C193 C 0.66504 0.51036 0.77558 0.0
C194 C 0.57791 0.48326 0.7892 0.0
C195 C 0.61086 0.51436 0.78506 0.0
H196 H 0.62664 0.32302 0.77884 0.0
H197 H 0.59445 0.54139 0.78921 0.0
H198 H 0.31163 0.42407 0.76932 0.0
H199 H 0.45424 0.25755 0.68615 0.0
H200 H 0.53635 0.4867 0.79669 0.0
H201 H 0.69035 0.53452 0.77229 0.0
H202 H 0.4655 0.32431 0.69029 0.0
H203 H 0.72084 0.31033 0.76178 0.0
H204 H 0.76767 0.49265 0.75772 0.0
H205 H 0.80181 0.42991 0.75 0.0
H206 H 0.22872 0.39932 0.79375 0.0
H207 H 0.78458 0.36175 0.75128 0.0
H208 H 0.38426 0.22548 0.71603 0.0
N209 N 0.33983 0.37179 0.75557 0.0
C210 C 0.32986 0.33516 0.75461 0.0
C211 C 0.2569 0.38097 0.78285 0.0
C212 C 0.28341 0.31976 0.76836 0.0
C213 C 0.30373 0.39493 0.76899 0.0
C214 C 0.24689 0.34319 0.78274 0.0
N215 N 0.40992 0.32957 0.72611 0.0
C216 C 0.43776 0.31053 0.70508 0.0
C217 C 0.35655 0.27527 0.73704 0.0
C218 C 0.36662 0.31324 0.73972 0.0
C219 C 0.39051 0.25472 0.71871 0.0
C220 C 0.43023 0.27268 0.70195 0.0
H221 H 0.21077 0.33243 0.79365 0.0
H222 H 0.24007 0.26917 0.7781 0.0
H223 H 0.30375 0.2302 0.75028 0.0
O224 O 0.42218 0.3967 0.68905 0.0
O225 O 0.41234 0.37516 0.78074 0.0
O226 O 0.4944 0.3484 0.79114 0.0
O227 O 0.35141 0.41351 0.71299 0.0
O228 O 0.50156 0.37071 0.72163 0.0
O229 O 0.53506 0.34727 0.76421 0.0
O230 O 0.53259 0.40943 0.83417 0.0
O231 O 0.55624 0.42563 0.74826 0.0
O232 O 0.46845 0.44155 0.7343 0.0
O233 O 0.59983 0.37448 0.82283 0.0
O234 O 0.47833 0.43087 0.80138 0.0
O235 O 0.41608 0.4403 0.7631 0.0
C236 C 0.44095 0.34995 0.79398 0.0
C237 C 0.33762 0.38856 0.66575 0.0
C238 C 0.31342 0.37669 0.61483 0.0
C239 C 0.27735 0.34885 0.62428 0.0
C240 C 0.30132 0.36068 0.67455 0.0
C241 C 0.27134 0.34105 0.65389 0.0
C242 C 0.3433 0.39664 0.63586 0.0
C243 C 0.53415 0.34821 0.7357 0.0
C244 C 0.37201 0.408 0.68726 0.0
C245 C 0.27508 0.28164 0.76732 0.0
C246 C 0.31155 0.25943 0.75164 0.0
C247 C 0.52185 0.44512 0.73252 0.0
C248 C 0.6104 0.41097 0.86484 0.0
C249 C 0.64482 0.41849 0.91456 0.0
C250 C 0.68037 0.44628 0.90443 0.0
C251 C 0.64587 0.43899 0.85552 0.0
C252 C 0.60987 0.40081 0.89442 0.0
C253 C 0.6806 0.45649 0.87519 0.0
C254 C 0.43607 0.44773 0.78941 0.0
C255 C 0.57492 0.39159 0.84384 0.0
H256 H 0.25325 0.33334 0.60874 0.0
H257 H 0.29629 0.3539 0.69733 0.0
H258 H 0.2434 0.31959 0.66086 0.0
H259 H 0.37185 0.41784 0.62896 0.0
H260 H 0.70873 0.45987 0.91902 0.0
H261 H 0.64729 0.44723 0.83308 0.0
H262 H 0.58209 0.37938 0.90171 0.0
H263 H 0.70816 0.47787 0.86767 0.0
Tb264 Tb 0.0877 0.89039 0.73527 0.0
C265 C 0.85788 0.84669 0.76738 0.0
N266 N 0.87256 0.88259 0.76839 0.0
C267 C 0.79168 0.89866 0.74173 0.0
C268 C 0.81023 0.8351 0.75269 0.0
C269 C 0.83949 0.90875 0.75653 0.0
C270 C 0.77731 0.86161 0.73948 0.0
C271 C 0.87424 0.7847 0.7835 0.0
C272 C 0.89014 0.82189 0.78199 0.0
C273 C 0.82867 0.77242 0.7675 0.0
C274 C 0.79675 0.79761 0.75204 0.0
Tb275 Tb 0.95497 0.89604 0.78982 0.0
N276 N 0.9337 0.83496 0.79723 0.0
C277 C 0.90248 0.76156 0.80245 0.0
C278 C 0.95541 0.81375 0.81888 0.0
C279 C 0.94199 0.77648 0.82096 0.0
H280 H 0.85071 0.93731 0.75805 0.0
H281 H 0.96148 0.75947 0.83718 0.0
H282 H 0.14124 0.80748 0.7431 0.0
H283 H 0.17571 0.02605 0.74413 0.0
H284 H 0.98367 0.82522 0.83454 0.0
H285 H 0.89159 0.73282 0.80433 0.0
H286 H 0.1028 0.98086 0.73364 0.0
H287 H 0.76613 0.91943 0.73194 0.0
H288 H 0.8165 0.74381 0.76789 0.0
H289 H 0.76085 0.788 0.74043 0.0
H290 H 0.22788 0.78096 0.76091 0.0
H291 H 0.7404 0.85384 0.72792 0.0
H292 H 0.26619 1.00517 0.76163 0.0
N293 N 0.16681 0.86266 0.74977 0.0
C294 C 0.20882 0.88546 0.75692 0.0
C295 C 0.22296 0.81042 0.76007 0.0
C296 C 0.25965 0.87164 0.76625 0.0
C297 C 0.17361 0.82551 0.75046 0.0
C298 C 0.26611 0.83359 0.76816 0.0
N299 N 0.15097 0.93488 0.74566 0.0
C300 C 0.14197 0.9714 0.74126 0.0
C301 C 0.24387 0.94763 0.76055 0.0
C302 C 0.20101 0.92285 0.75432 0.0
C303 C 0.23436 0.98519 0.75701 0.0
C304 C 0.18328 0.99709 0.74717 0.0
H305 H 0.30446 0.82184 0.77535 0.0
H306 H 0.34173 0.88611 0.78031 0.0
H307 H 0.32797 0.95269 0.77519 0.0
O308 O 0.08131 0.90987 0.69214 0.0
O309 O 0.09923 0.91571 0.77874 0.0
O310 O 0.01535 0.93996 0.79233 0.0
O311 O 0.13211 0.86379 0.70213 0.0
O312 O 0.02945 0.93432 0.72583 0.0
O313 O 0.96173 0.94516 0.76164 0.0
O314 O 0.95455 0.89948 0.83572 0.0
O315 O 0.94392 0.88561 0.74298 0.0
O316 O 0.01926 0.85158 0.73098 0.0
O317 O 0.89196 0.92535 0.81113 0.0
O318 O 0.0303 0.86573 0.80167 0.0
O319 O 0.0563 0.84233 0.75766 0.0
C320 C 0.06876 0.93773 0.79489 0.0
C321 C 0.1603 0.90071 0.66281 0.0
C322 C 0.20177 0.9059 0.61434 0.0
C323 C 0.24567 0.92565 0.62667 0.0
C324 C 0.20427 0.92079 0.67439 0.0
C325 C 0.24669 0.9331 0.65644 0.0
C326 C 0.15916 0.89328 0.63273 0.0
C327 C 0.98815 0.95322 0.73693 0.0
C328 C 0.11655 0.88632 0.68196 0.0
C329 C 0.30236 0.89618 0.77305 0.0
C330 C 0.29455 0.93409 0.77011 0.0
C331 C 0.96792 0.86074 0.72683 0.0
C332 C 0.8668 0.90066 0.85704 0.0
C333 C 0.83054 0.89223 0.90652 0.0
C334 C 0.79117 0.86773 0.89528 0.0
C335 C 0.82713 0.87603 0.84654 0.0
C336 C 0.8682 0.90888 0.88709 0.0
C337 C 0.78953 0.8598 0.86556 0.0
C338 C 0.05583 0.8407 0.78608 0.0
C339 C 0.90817 0.91656 0.83703 0.0
H340 H 0.27964 0.93511 0.61333 0.0
H341 H 0.20629 0.92673 0.69726 0.0
H342 H 0.28065 0.94832 0.66568 0.0
H343 H 0.12495 0.87804 0.62368 0.0
H344 H 0.76113 0.8549 0.90948 0.0
H345 H 0.82521 0.86923 0.82365 0.0
H346 H 0.8992 0.92754 0.89536 0.0
H347 H 0.75901 0.84091 0.85723 0.0
Tb348 Tb 0.44188 0.61963 0.23643 0.0
C349 C 0.68858 0.62261 0.28172 0.0
N350 N 0.65009 0.59578 0.28455 0.0
C351 C 0.71733 0.55026 0.27271 0.0
C352 C 0.7431 0.61436 0.274 0.0
C353 C 0.66386 0.55982 0.28073 0.0
C354 C 0.75709 0.57766 0.26919 0.0
C355 C 0.71204 0.68717 0.28544 0.0
C356 C 0.67331 0.6585 0.28712 0.0
C357 C 0.76635 0.67923 0.27739 0.0
C358 C 0.78182 0.64292 0.27161 0.0
Tb359 Tb 0.56379 0.61485 0.29653 0.0
N360 N 0.61999 0.66514 0.29419 0.0
C361 C 0.69496 0.72283 0.29207 0.0
C362 C 0.60372 0.69956 0.30212 0.0
C363 C 0.64072 0.72897 0.30073 0.0
H364 H 0.63371 0.5384 0.28412 0.0
H365 H 0.62746 0.75633 0.30646 0.0
H366 H 0.34059 0.66328 0.26909 0.0
H367 H 0.45927 0.48004 0.19627 0.0
H368 H 0.56219 0.70442 0.30923 0.0
H369 H 0.72345 0.74569 0.291 0.0
H370 H 0.48462 0.54497 0.1994 0.0
H371 H 0.72794 0.52176 0.26944 0.0
H372 H 0.79674 0.70092 0.27575 0.0
H373 H 0.82392 0.63716 0.2656 0.0
H374 H 0.24836 0.6482 0.28849 0.0
H375 H 0.79854 0.57015 0.26314 0.0
H376 H 0.37479 0.45769 0.22053 0.0
N377 N 0.35764 0.60858 0.25615 0.0
C378 C 0.33881 0.57354 0.25389 0.0
C379 C 0.27349 0.62694 0.27893 0.0
C380 C 0.28666 0.56364 0.26472 0.0
C381 C 0.32574 0.6354 0.2681 0.0
C382 C 0.25392 0.59089 0.27733 0.0
N383 N 0.42223 0.55845 0.23023 0.0
C384 C 0.45098 0.53522 0.21253 0.0
C385 C 0.35436 0.51094 0.23831 0.0
C386 C 0.37266 0.54753 0.2411 0.0
C387 C 0.38735 0.48604 0.22318 0.0
C388 C 0.43527 0.49847 0.20966 0.0
H389 H 0.21355 0.5844 0.28588 0.0
H390 H 0.22939 0.51875 0.27125 0.0
H391 H 0.28847 0.47264 0.24794 0.0
O392 O 0.43484 0.61392 0.19095 0.0
O393 O 0.42684 0.60081 0.28176 0.0
O394 O 0.50527 0.56998 0.29197 0.0
O395 O 0.38377 0.65168 0.21411 0.0
O396 O 0.52215 0.59765 0.22408 0.0
O397 O 0.54985 0.56969 0.26614 0.0
O398 O 0.54186 0.62565 0.34025 0.0
O399 O 0.57968 0.6493 0.25818 0.0
O400 O 0.50186 0.66441 0.23114 0.0
O401 O 0.6072 0.5887 0.33017 0.0
O402 O 0.49403 0.65154 0.30555 0.0
O403 O 0.44964 0.66919 0.26264 0.0
C404 C 0.45266 0.57477 0.29591 0.0
C405 C 0.34639 0.62268 0.1721 0.0
C406 C 0.3079 0.60519 0.12488 0.0
C407 C 0.25932 0.59421 0.13906 0.0
C408 C 0.29708 0.61212 0.18567 0.0
C409 C 0.25399 0.59782 0.16922 0.0
C410 C 0.35137 0.61945 0.14163 0.0
C411 C 0.55416 0.5747 0.23792 0.0
C412 C 0.39361 0.63614 0.18917 0.0
C413 C 0.26916 0.52699 0.26283 0.0
C414 C 0.30295 0.50069 0.24971 0.0
C415 C 0.5543 0.66802 0.23775 0.0
C416 C 0.61629 0.62387 0.37313 0.0
C417 C 0.64017 0.6354 0.42406 0.0
C418 C 0.68224 0.65918 0.41472 0.0
C419 C 0.65949 0.64706 0.36462 0.0
C420 C 0.60706 0.61769 0.40307 0.0
C421 C 0.69185 0.66482 0.38519 0.0
C422 C 0.4619 0.67362 0.29043 0.0
C423 C 0.58151 0.606 0.35083 0.0
H424 H 0.22501 0.58347 0.12674 0.0
H425 H 0.29158 0.61491 0.2089 0.0
H426 H 0.21619 0.58965 0.17988 0.0
H427 H 0.38935 0.62755 0.13103 0.0
H428 H 0.70886 0.67265 0.43029 0.0
H429 H 0.66896 0.65122 0.34213 0.0
H430 H 0.57443 0.59934 0.40999 0.0
H431 H 0.72499 0.68265 0.37819 0.0
H432 H 0.14771 0.92462 0.33955 0.0
H433 H 0.19611 1.00289 0.40555 0.0
H434 H 0.1501 0.05153 0.37919 0.0
H435 H 0.09358 0.07179 0.33839 0.0
H436 H 0.05166 0.99581 0.27 0.0
H437 H 0.09922 0.94644 0.29589 0.0
C438 C 0.14916 0.95238 0.34798 0.0
C439 C 0.17451 0.95966 0.37497 0.0
C440 C 0.12391 0.98068 0.33225 0.0
C441 C 0.17544 0.99598 0.38544 0.0
C442 C 0.14957 0.02402 0.37023 0.0
C443 C 0.09511 0.04438 0.32917 0.0
C444 C 0.06881 0.03706 0.30266 0.0
C445 C 0.12307 0.01658 0.34387 0.0
C446 C 0.07178 1.00184 0.29046 0.0
C447 C 0.09868 0.9737 0.30531 0.0
H448 H 0.29629 0.5711 0.85227 0.0
H449 H 0.43053 0.56379 0.91317 0.0
H450 H 0.47221 0.5159 0.88377 0.0
H451 H 0.47169 0.47648 0.84086 0.0
H452 H 0.34214 0.48659 0.77752 0.0
H453 H 0.29843 0.53353 0.80758 0.0
C454 C 0.335 0.55944 0.85903 0.0
C455 C 0.35959 0.57109 0.88531 0.0
C456 C 0.35988 0.53241 0.84151 0.0
C457 C 0.40952 0.55499 0.89363 0.0
C458 C 0.43388 0.52775 0.87661 0.0
C459 C 0.43389 0.48882 0.83344 0.0
C460 C 0.4101 0.47744 0.80695 0.0
C461 C 0.40943 0.51623 0.85056 0.0
C462 C 0.36132 0.49433 0.79785 0.0
C463 C 0.33626 0.5213 0.81505 0.0
H464 H 0.57902 0.57936 0.65082 0.0
H465 H 0.74323 0.54131 0.66674 0.0
H466 H 0.70706 0.49057 0.69617 0.0
H467 H 0.62858 0.45714 0.71696 0.0
H468 H 0.46475 0.4983 0.70399 0.0
H469 H 0.50081 0.54702 0.67302 0.0
C470 C 0.60673 0.55973 0.66057 0.0
C471 C 0.66353 0.56376 0.65654 0.0
C472 C 0.58573 0.53117 0.67784 0.0
C473 C 0.69928 0.53863 0.66964 0.0
C474 C 0.67864 0.50966 0.68638 0.0
C475 C 0.60081 0.47716 0.70792 0.0
C476 C 0.54415 0.47434 0.71338 0.0
C477 C 0.62192 0.50577 0.69072 0.0
C478 C 0.50863 0.4998 0.70039 0.0
C479 C 0.52918 0.52779 0.68267 0.0
H480 H 0.76861 0.97653 0.16697 0.0
H481 H 0.91946 0.93984 0.12748 0.0
H482 H 0.97171 0.98183 0.15851 0.0
H483 H 0.97474 0.02802 0.19757 0.0
H484 H 0.82321 0.06705 0.23511 0.0
H485 H 0.7714 0.02465 0.20469 0.0
C486 C 0.81295 0.97767 0.16522 0.0
C487 C 0.84006 0.95496 0.14496 0.0
C488 C 0.84273 1.00203 0.18306 0.0
C489 C 0.89749 0.9572 0.14268 0.0
C490 C 0.92743 0.98107 0.16055 0.0
C491 C 0.93037 0.02735 0.19918 0.0
C492 C 0.90325 0.05021 0.2194 0.0
C493 C 0.90052 1.00351 0.18092 0.0
C494 C 0.84559 0.04909 0.22064 0.0
C495 C 0.81573 0.02504 0.20294 0.0
H496 H 0.93365 0.07551 0.64376 0.0
H497 H 0.7783 0.07213 0.68929 0.0
H498 H 0.81506 0.02833 0.7239 0.0
H499 H 0.89038 0.98963 0.74082 0.0
H500 H 0.04212 0.98761 0.6921 0.0
H501 H 0.00791 0.03489 0.65968 0.0
C502 C 0.90753 0.06496 0.66102 0.0
C503 C 0.85335 0.07774 0.6639 0.0
C504 C 0.92843 0.03882 0.68059 0.0
C505 C 0.82058 0.06375 0.68676 0.0
C506 C 0.84144 0.03839 0.70657 0.0
C507 C 0.91604 0.99939 0.72316 0.0
C508 C 0.96873 0.98468 0.7191 0.0
C509 C 0.8953 0.02568 0.70371 0.0
C510 C 1.00138 0.99822 0.69603 0.0
C511 C 0.98175 0.02525 0.67725 0.0
H512 H 0.67063 0.4872 0.13792 0.0
H513 H 0.61988 0.39579 0.19136 0.0
H514 H 0.58664 0.43807 0.22881 0.0
H515 H 0.56658 0.50125 0.24492 0.0
H516 H 0.61259 0.59208 0.18984 0.0
H517 H 0.65371 0.54992 0.15463 0.0
C518 C 0.65195 0.47652 0.15767 0.0
C519 C 0.64731 0.43842 0.16171 0.0
C520 C 0.63253 0.50093 0.17894 0.0
C521 C 0.62412 0.42502 0.18774 0.0
C522 C 0.60503 0.44916 0.20915 0.0
C523 C 0.58682 0.5117 0.22552 0.0
C524 C 0.58698 0.54955 0.2199 0.0
C525 C 0.60861 0.48719 0.20488 0.0
C526 C 0.61219 0.56294 0.19448 0.0
C527 C 0.63535 0.53888 0.17432 0.0
H528 H 0.28871 0.47972 0.373 0.0
H529 H 0.4317 0.41145 0.37955 0.0
H530 H 0.48422 0.45472 0.34943 0.0
H531 H 0.48863 0.51112 0.3202 0.0
H532 H 0.34833 0.58248 0.31735 0.0
H533 H 0.2954 0.53893 0.34662 0.0
C534 C 0.33146 0.4746 0.36789 0.0
C535 C 0.35652 0.44258 0.37831 0.0
C536 C 0.36159 0.49995 0.35096 0.0
C537 C 0.41187 0.43607 0.37175 0.0
C538 C 0.44176 0.46073 0.35451 0.0
C539 C 0.44655 0.5173 0.32607 0.0
C540 C 0.42189 0.54954 0.31561 0.0
C541 C 0.41698 0.49267 0.34385 0.0
C542 C 0.36765 0.55724 0.32399 0.0
C543 C 0.3375 0.53249 0.34106 0.0
H544 H 0.21999 0.04179 0.87086 0.0
H545 H 0.06404 0.09229 0.88873 0.0
H546 H 0.01769 0.04645 0.8584 0.0
H547 H 0.02217 0.99362 0.82551 0.0
H548 H 0.17682 0.93925 0.81141 0.0
H549 H 0.22322 0.98517 0.84121 0.0
C550 C 0.17584 0.0425 0.86813 0.0
C551 C 0.1453 0.0703 0.88176 0.0
C552 C 0.14946 0.01572 0.85109 0.0
C553 C 0.08814 0.07096 0.87845 0.0
C554 C 0.06176 0.04489 0.86106 0.0
C555 C 0.06602 0.99162 0.82896 0.0
C556 C 0.09631 0.96377 0.81508 0.0
C557 C 0.09208 0.01734 0.84708 0.0
C558 C 0.15285 0.96131 0.82055 0.0
C559 C 0.17935 0.98734 0.83796 0.0
H560 H 0.16783 0.08397 0.98632 0.0
H561 H 0.17041 0.20082 0.97109 0.0
H562 H 0.1594 0.21211 0.0231 0.0
H563 H 0.15461 0.18903 0.07326 0.0
H564 H 0.14928 0.07252 0.08883 0.0
H565 H 0.15419 0.06086 0.03631 0.0
C566 C 0.16496 0.1119 0.99427 0.0
C567 C 0.17096 0.14147 0.97473 0.0
C568 C 0.15812 0.11828 0.02431 0.0
C569 C 0.1674 0.17749 0.9856 0.0
C570 C 0.16075 0.18402 1.01537 0.0
C571 C 0.1542 0.1611 0.06509 0.0
C572 C 0.15212 0.13167 0.08483 0.0
C573 C 0.15718 0.15466 0.03497 0.0
C574 C 0.1507 0.09562 0.07402 0.0
C575 C 0.15384 0.08896 0.04402 0.0
H576 H 0.31309 0.43296 0.48417 0.0
H577 H 0.32459 0.31655 0.46832 0.0
H578 H 0.32972 0.30509 0.52053 0.0
H579 H 0.32554 0.32747 0.57082 0.0
H580 H 0.31449 0.44357 0.58751 0.0
H581 H 0.31587 0.45583 0.53503 0.0
C582 C 0.3176 0.40516 0.49214 0.0
C583 C 0.31756 0.37564 0.47226 0.0
C584 C 0.32047 0.39866 0.5224 0.0
C585 C 0.32329 0.33975 0.48306 0.0
C586 C 0.32645 0.33314 0.51296 0.0
C587 C 0.32348 0.35548 0.56298 0.0
C588 C 0.3193 0.38452 0.58308 0.0
C589 C 0.32395 0.36228 0.53284 0.0
C590 C 0.31786 0.4207 0.57254 0.0
C591 C 0.31834 0.42771 0.54251 0.0
H592 H 0.659 0.35044 0.04144 0.0
H593 H 0.68188 0.46489 0.06273 0.0
H594 H 0.6691 0.48147 1.01193 0.0
H595 H 0.65387 0.46389 0.96134 0.0
H596 H 0.63698 0.34954 0.93861 0.0
H597 H 0.64413 0.33268 0.99003 0.0
C598 C 0.66152 0.37897 0.03493 0.0
C599 C 0.67101 0.40633 0.05608 0.0
C600 C 0.65495 0.38843 1.0054 0.0
C601 C 0.67355 0.44324 0.04718 0.0
C602 C 0.66662 0.4528 0.01803 0.0
C603 C 0.6522 0.4352 0.96751 0.0
C604 C 0.64534 0.40806 0.94598 0.0
C605 C 0.6576 0.42566 0.99696 0.0
C606 C 0.64176 0.37111 0.95464 0.0
C607 C 0.64633 0.3614 0.98406 0.0
H608 H 0.92285 0.12656 0.57011 0.0
H609 H 0.75228 0.13948 0.54811 0.0
H610 H 0.77634 0.14405 0.49649 0.0
H611 H 0.84652 0.14739 0.45758 0.0
H612 H 0.01712 0.13614 0.47996 0.0
H613 H 0.99247 0.12745 0.53116 0.0
C614 C 0.89089 0.1299 0.55398 0.0
C615 C 0.83586 0.13285 0.56306 0.0
C616 C 0.90508 0.13288 0.5243 0.0
C617 C 0.79504 0.13762 0.54183 0.0
C618 C 0.80874 0.14008 0.51225 0.0
C619 C 0.87814 0.14251 0.47364 0.0
C620 C 0.93357 0.1425 0.46498 0.0
C621 C 0.8637 0.13818 0.50323 0.0
C622 C 0.97419 0.13657 0.48611 0.0
C623 C 0.96012 0.13158 0.51539 0.0
H624 H 0.81269 0.94926 0.03693 0.0
H625 H 0.79729 0.83282 0.05214 0.0
H626 H 0.81127 0.82077 1.00051 0.0
H627 H 0.82336 0.8429 0.95063 0.0
H628 H 0.83962 0.95882 0.93426 0.0
H629 H 0.83141 0.97134 0.98662 0.0
C630 C 0.81305 0.92125 0.02898 0.0
C631 C 0.80279 0.89207 0.04848 0.0
C632 C 0.82139 0.91435 0.99899 0.0
C633 C 0.80354 0.85593 0.03766 0.0
C634 C 0.81191 0.84893 1.00809 0.0
C635 C 0.82517 0.87094 0.9585 0.0
C636 C 0.83146 0.89989 0.93848 0.0
C637 C 0.81992 0.87789 0.9885 0.0
C638 C 0.83495 0.93599 0.94916 0.0
C639 C 0.82988 0.94317 0.97911 0.0
H640 H 0.66496 0.58086 0.55293 0.0
H641 H 0.66426 0.69769 0.56858 0.0
H642 H 0.64388 0.70869 0.51739 0.0
H643 H 0.63433 0.68552 0.46749 0.0
H644 H 0.63456 0.56903 0.4515 0.0
H645 H 0.64457 0.55743 0.50379 0.0
C646 C 0.6592 0.60872 0.54536 0.0
C647 C 0.66716 0.63842 0.56463 0.0
C648 C 0.64707 0.6149 0.51584 0.0
C649 C 0.65988 0.67432 0.55418 0.0
C650 C 0.64778 0.68066 0.52492 0.0
C651 C 0.63571 0.65758 0.47556 0.0
C652 C 0.63423 0.62816 0.45572 0.0
C653 C 0.6426 0.65122 0.50545 0.0
C654 C 0.63534 0.59209 0.46639 0.0
C655 C 0.64167 0.5855 0.49623 0.0
H656 H 0.29593 0.57275 0.9896 0.0
H657 H 0.35632 0.684 0.98608 0.0
H658 H 0.36151 0.68596 0.03923 0.0
H659 H 0.34419 0.65721 0.08688 0.0
H660 H 0.28084 0.5467 0.09057 0.0
H661 H 0.28172 0.54318 0.03735 0.0
C662 C 0.31089 0.59721 1.00051 0.0
C663 C 0.32557 0.62821 0.98395 0.0
C664 C 0.31294 0.59834 0.03114 0.0
C665 C 0.34428 0.6599 0.99837 0.0
C666 C 0.34737 0.66102 0.02875 0.0
C667 C 0.33132 0.6322 0.07601 0.0
C668 C 0.31238 0.6023 0.09264 0.0
C669 C 0.33112 0.63058 0.04539 0.0
C670 C 0.29511 0.57022 0.07824 0.0
C671 C 0.29571 0.56816 0.04782 0.0
H672 H 0.19339 0.85348 0.48243 0.0
H673 H 0.2514 0.96434 0.46984 0.0
H674 H 0.24907 0.97497 0.52224 0.0
H675 H 0.22906 0.95361 0.5714 0.0
H676 H 0.17237 0.84275 0.58535 0.0
H677 H 0.17453 0.83151 0.53272 0.0
C678 C 0.20596 0.87978 0.49129 0.0
C679 C 0.22232 0.90813 0.47231 0.0
C680 C 0.20414 0.88586 0.52161 0.0
C681 C 0.2381 0.94222 0.484 0.0
C682 C 0.23684 0.94833 0.51395 0.0
C683 C 0.2177 0.92682 0.56302 0.0
C684 C 0.20091 0.89903 0.58236 0.0
C685 C 0.21963 0.92047 0.53291 0.0
C686 C 0.18503 0.86477 0.57096 0.0
C687 C 0.18667 0.85823 0.54088 0.0
H688 H 0.20933 0.26958 0.36041 0.0
H689 H 0.10644 0.35205 0.3219 0.0
H690 H 0.0467 0.30422 0.30173 0.0
H691 H 0.02347 0.23876 0.29529 0.0
H692 H 0.13098 0.15641 0.32997 0.0
H693 H 0.18899 0.20417 0.35167 0.0
C694 C 0.17371 0.27704 0.3477 0.0
C695 C 0.16174 0.31428 0.34296 0.0
C696 C 0.14026 0.24939 0.33569 0.0
C697 C 0.11619 0.32355 0.32593 0.0
C698 C 0.08199 0.29624 0.31449 0.0
C699 C 0.05932 0.23145 0.30789 0.0
C700 C 0.07279 0.19433 0.31147 0.0
C701 C 0.09341 0.25908 0.31937 0.0
C702 C 0.1199 0.18493 0.32717 0.0
C703 C 0.15302 0.21219 0.33949 0.0
H704 H 0.28708 0.24303 0.86487 0.0
H705 H 0.38934 0.16243 0.82288 0.0
H706 H 0.44301 0.21133 0.79956 0.0
H707 H 0.46084 0.27716 0.79132 0.0
H708 H 0.35419 0.3573 0.83051 0.0
H709 H 0.3023 0.3085 0.85499 0.0
C710 C 0.3213 0.23618 0.85075 0.0
C711 C 0.3349 0.19925 0.84589 0.0
C712 C 0.35127 0.26437 0.83712 0.0
C713 C 0.3785 0.19074 0.82704 0.0
C714 C 0.40919 0.21864 0.81379 0.0
C715 C 0.42668 0.28379 0.80557 0.0
C716 C 0.41167 0.32058 0.80964 0.0
C717 C 0.39616 0.25555 0.81881 0.0
C718 C 0.36654 0.32906 0.82741 0.0
C719 C 0.33688 0.30122 0.84129 0.0
H720 H 0.67612 0.24704 0.65276 0.0
H721 H 0.64567 0.17076 0.72285 0.0
H722 H 0.59315 0.2171 0.74911 0.0
H723 H 0.55589 0.27902 0.75235 0.0
H724 H 0.58249 0.3555 0.68216 0.0
H725 H 0.63616 0.30941 0.65558 0.0
C726 C 0.65799 0.24066 0.67377 0.0
C727 C 0.66491 0.20559 0.68597 0.0
C728 C 0.62717 0.26743 0.68868 0.0
C729 C 0.64087 0.1976 0.71309 0.0
C730 C 0.61089 0.22405 0.72812 0.0
C731 C 0.57381 0.28565 0.73131 0.0
C732 C 0.56599 0.32062 0.71932 0.0
C733 C 0.60388 0.25902 0.71618 0.0
C734 C 0.58824 0.32869 0.69179 0.0
C735 C 0.61894 0.3024 0.67666 0.0
H736 H 0.83293 0.32223 0.21126 0.0
H737 H 0.79923 0.26197 0.13246 0.0
H738 H 0.84166 0.20715 0.15336 0.0
H739 H 0.88927 0.17667 0.19429 0.0
H740 H 0.91997 0.23772 0.27321 0.0
H741 H 0.87742 0.29178 0.25216 0.0
C742 C 0.83493 0.29705 0.19868 0.0
C743 C 0.81333 0.29607 0.17042 0.0
C744 C 0.85861 0.26577 0.21093 0.0
C745 C 0.81567 0.26334 0.15431 0.0
C746 C 0.83992 0.23203 0.16625 0.0
C747 C 0.88635 0.20182 0.20682 0.0
C748 C 0.90749 0.20318 0.23527 0.0
C749 C 0.8616 0.23295 0.19457 0.0
C750 C 0.90344 0.23584 0.25138 0.0
C751 C 0.87942 0.26686 0.23931 0.0
H752 H 0.79074 0.78451 0.64736 0.0
H753 H 0.87483 0.68787 0.67718 0.0
H754 H 0.93979 0.72606 0.70418 0.0
H755 H 0.97171 0.78703 0.72012 0.0
H756 H 0.88473 0.88342 0.69244 0.0
H757 H 0.822 0.84541 0.6637 0.0
C758 C 0.82349 0.77191 0.65969 0.0
C759 C 0.82809 0.73354 0.66024 0.0
C760 C 0.86024 0.79401 0.67544 0.0
C761 C 0.87034 0.71739 0.67646 0.0
C762 C 0.90758 0.7392 0.69186 0.0
C763 C 0.93952 0.79963 0.70738 0.0
C764 C 0.93303 0.83787 0.70797 0.0
C765 C 0.90291 0.77753 0.69152 0.0
C766 C 0.89049 0.85398 0.69205 0.0
C767 C 0.85464 0.83228 0.67571 0.0
H768 H 0.73776 0.77198 0.1863 0.0
H769 H 0.59809 0.83738 0.16313 0.0
H770 H 0.53608 0.79073 0.18379 0.0
H771 H 0.5224 0.73171 0.21031 0.0
H772 H 0.66347 0.66422 0.22739 0.0
H773 H 0.72391 0.71107 0.2075 0.0
C774 C 0.69369 0.77591 0.18573 0.0
C775 C 0.67241 0.80805 0.17354 0.0
C776 C 0.65856 0.74862 0.19679 0.0
C777 C 0.61531 0.81274 0.17247 0.0
C778 C 0.57993 0.78611 0.1843 0.0
C779 C 0.56628 0.72717 0.20935 0.0
C780 C 0.58852 0.69512 0.22161 0.0
C781 C 0.60111 0.75392 0.19672 0.0
C782 C 0.64541 0.68939 0.2196 0.0
C783 C 0.68011 0.71602 0.20786 0.0
H784 H 0.34663 0.78657 0.37568 0.0
H785 H 0.26346 0.81409 0.29592 0.0
H786 H 0.31953 0.77015 0.2691 0.0
H787 H 0.38988 0.72308 0.26839 0.0
H788 H 0.47044 0.69233 0.3483 0.0
H789 H 0.41849 0.73886 0.37479 0.0
C790 C 0.34101 0.78299 0.35243 0.0
C791 C 0.30097 0.80348 0.33773 0.0
C792 C 0.37299 0.75722 0.33714 0.0
C793 C 0.29395 0.79849 0.30765 0.0
C794 C 0.32603 0.77345 0.2923 0.0
C795 C 0.39628 0.72637 0.29162 0.0
C796 C 0.43374 0.70376 0.30628 0.0
C797 C 0.36537 0.7525 0.30685 0.0
C798 C 0.4417 0.70907 0.33636 0.0
C799 C 0.41186 0.73566 0.3516 0.0
H800 H 0.16204 0.69058 0.82197 0.0
H801 H 0.22452 0.75711 0.8922 0.0
H802 H 0.17414 0.8101 0.87384 0.0
H803 H 0.11408 0.83814 0.83661 0.0
H804 H 0.05284 0.77096 0.76647 0.0
H805 H 0.10019 0.71766 0.78608 0.0
C806 C 0.16448 0.7167 0.83326 0.0
C807 C 0.19695 0.71994 0.85829 0.0
C808 C 0.13541 0.74695 0.82262 0.0
C809 C 0.19977 0.75387 0.87282 0.0
C810 C 0.17093 0.7842 0.86235 0.0
C811 C 0.11074 0.81167 0.82594 0.0
C812 C 0.08052 0.80839 0.80009 0.0
C813 C 0.13875 0.78113 0.83718 0.0
C814 C 0.07647 0.77409 0.78627 0.0
C815 C 0.10353 0.74365 0.79744 0.0
loop_
_geom_bond_atom_site_label_1
_geom_bond_atom_site_label_2
_geom_bond_distance
_geom_bond_site_symmetry_2
_ccdc_geom_bond_type
H0 C5 0.930 . S
H1 C8 0.930 . S
H2 C10 0.930 . S
H3 C4 1.016 . S
C4 H3 1.016 . S
C4 N11 1.286 . S
C5 H0 0.930 . S
C5 C6 1.397 . S
C5 C7 1.361 . S
C6 C5 1.397 . S
C6 C10 1.390 . S
C7 C5 1.361 . S
C7 C8 1.393 . S
C7 N11 1.413 . S
C8 H1 0.930 . S
C8 C7 1.393 . S
C8 C9 1.399 . S
C9 C8 1.399 . S
C9 C10 1.381 . S
C10 H2 0.930 . S
C10 C6 1.390 . S
C10 C9 1.381 . S
N11 C4 1.286 . S
N11 C7 1.413 . S
H12 C17 0.930 . S
H13 C20 0.930 . S
H14 C22 0.930 . S
H15 C16 1.016 . S
C16 H15 1.016 . S
C16 N23 1.286 . S
C17 H12 0.930 . S
C17 C18 1.397 . S
C17 C19 1.361 . S
C18 C17 1.397 . S
C18 C22 1.390 . S
C19 C17 1.361 . S
C19 C20 1.393 . S
C19 N23 1.413 . S
C20 H13 0.930 . S
C20 C19 1.393 . S
C20 C21 1.399 . S
C21 C20 1.399 . S
C21 C22 1.381 . S
C22 H14 0.930 . S
C22 C18 1.390 . S
C22 C21 1.381 . S
N23 C16 1.286 . S
N23 C19 1.413 . S
H24 C29 0.930 . S
H25 C32 0.930 . S
H26 C34 0.930 . S
H27 C28 1.016 . S
C28 H27 1.016 . S
C28 N35 1.286 . S
C29 H24 0.930 . S
C29 C30 1.397 . S
C29 C31 1.361 . S
C30 C29 1.397 . S
C30 C34 1.390 . S
C31 C29 1.361 . S
C31 C32 1.393 . S
C31 N35 1.413 . S
C32 H25 0.930 . S
C32 C31 1.393 . S
C32 C33 1.399 . S
C33 C32 1.399 . S
C33 C34 1.381 . S
C34 H26 0.930 . S
C34 C30 1.390 . S
C34 C33 1.381 . S
N35 C28 1.286 . S
N35 C31 1.413 . S
H36 C41 0.930 . S
H37 C44 0.930 . S
H38 C46 0.930 . S
H39 C40 1.016 . S
C40 H39 1.016 . S
C40 N47 1.286 . S
C41 H36 0.930 . S
C41 C42 1.397 . S
C41 C43 1.361 . S
C42 C41 1.397 . S
C42 C46 1.390 . S
C43 C41 1.361 . S
C43 C44 1.393 . S
C43 N47 1.413 . S
C44 H37 0.930 . S
C44 C43 1.393 . S
C44 C45 1.399 . S
C45 C44 1.399 . S
C45 C46 1.381 . S
C46 H38 0.930 . S
C46 C42 1.390 . S
C46 C45 1.381 . S
N47 C40 1.286 . S
N47 C43 1.413 . S
H48 C53 0.930 . S
H49 C56 0.930 . S
H50 C58 0.930 . S
H51 C52 1.016 . S
C52 H51 1.016 . S
C52 N59 1.286 . S
C53 H48 0.930 . S
C53 C54 1.397 . S
C53 C55 1.361 . S
C54 C53 1.397 . S
C54 C58 1.390 . S
C55 C53 1.361 . S
C55 C56 1.393 . S
C55 N59 1.413 . S
C56 H49 0.930 . S
C56 C55 1.393 . S
C56 C57 1.399 . S
C57 C56 1.399 . S
C57 C58 1.381 . S
C58 H50 0.930 . S
C58 C54 1.390 . S
C58 C57 1.381 . S
N59 C52 1.286 . S
N59 C55 1.413 . S
H60 C65 0.930 . S
H61 C68 0.930 . S
H62 C70 0.930 . S
H63 C64 1.016 . S
C64 H63 1.016 . S
C64 N71 1.286 . S
C65 H60 0.930 . S
C65 C66 1.397 . S
C65 C67 1.361 . S
C66 C65 1.397 . S
C66 C70 1.390 . S
C67 C65 1.361 . S
C67 C68 1.393 . S
C67 N71 1.413 . S
C68 H61 0.930 . S
C68 C67 1.393 . S
C68 C69 1.399 . S
C69 C68 1.399 . S
C69 C70 1.381 . S
C70 H62 0.930 . S
C70 C66 1.390 . S
C70 C69 1.381 . S
N71 C64 1.286 . S
N71 C67 1.413 . S
H72 C77 0.930 . S
H73 C80 0.930 . S
H74 C82 0.930 . S
H75 C76 1.016 . S
C76 H75 1.016 . S
C76 N83 1.286 . S
C77 H72 0.930 . S
C77 C78 1.397 . S
C77 C79 1.361 . S
C78 C77 1.397 . S
C78 C82 1.390 . S
C79 C77 1.361 . S
C79 C80 1.393 . S
C79 N83 1.413 . S
C80 H73 0.930 . S
C80 C79 1.393 . S
C80 C81 1.399 . S
C81 C80 1.399 . S
C81 C82 1.381 . S
C82 H74 0.930 . S
C82 C78 1.390 . S
C82 C81 1.381 . S
N83 C76 1.286 . S
N83 C79 1.413 . S
H84 C89 0.930 . S
H85 C92 0.930 . S
H86 C94 0.930 . S
H87 C88 1.016 . S
C88 H87 1.016 . S
C88 N95 1.286 . S
C89 H84 0.930 . S
C89 C90 1.397 . S
C89 C91 1.361 . S
C90 C89 1.397 . S
C90 C94 1.390 . S
C91 C89 1.361 . S
C91 C92 1.393 . S
C91 N95 1.413 . S
C92 H85 0.930 . S
C92 C91 1.393 . S
C92 C93 1.399 . S
C93 C92 1.399 . S
C93 C94 1.381 . S
C94 H86 0.930 . S
C94 C90 1.390 . S
C94 C93 1.381 . S
N95 C88 1.286 . S
N95 C91 1.413 . S
Tb96 N125 2.617 . S
Tb96 N131 2.572 . S
Tb96 O140 2.465 . S
Tb96 O141 2.387 . S
Tb96 O143 2.428 . S
Tb96 O144 2.308 1_455 S
Tb96 O148 2.349 1_455 S
Tb96 O151 2.393 . S
Tb96 C160 2.802 . S
C97 N98 1.379 . S
C97 C100 1.416 . S
C97 C104 1.424 . S
N98 C97 1.379 . S
N98 C101 1.334 . S
N98 Tb107 2.617 . S
C99 C101 1.390 . S
C99 C102 1.339 . S
C99 H119 0.930 . S
C100 C97 1.416 . S
C100 C102 1.416 . S
C100 C106 1.448 . S
C101 N98 1.334 . S
C101 C99 1.390 . S
C101 H112 0.930 . S
C102 C99 1.339 . S
C102 C100 1.416 . S
C102 H123 0.930 . S
C103 C104 1.413 . S
C103 C105 1.427 . S
C103 C109 1.416 1_545 S
C104 C97 1.424 . S
C104 C103 1.413 . S
C104 N108 1.361 . S
C105 C103 1.427 . S
C105 C106 1.328 . S
C105 H120 0.929 1_545 S
C106 C100 1.448 . S
C106 C105 1.328 . S
C106 H121 0.930 . S
Tb107 N98 2.617 . S
Tb107 N108 2.572 . S
Tb107 O142 2.349 1_655 S
Tb107 O145 2.393 . S
Tb107 O146 2.465 . S
Tb107 O147 2.387 . S
Tb107 O149 2.428 . S
Tb107 O150 2.308 1_655 S
Tb107 C171 2.802 . S
N108 C104 1.361 . S
N108 Tb107 2.572 . S
N108 C110 1.340 . S
C109 C103 1.416 1_565 S
C109 C111 1.332 . S
C109 H117 0.931 . S
C110 N108 1.340 . S
C110 C111 1.407 1_545 S
C110 H116 0.930 . S
C111 C109 1.332 . S
C111 C110 1.407 1_565 S
C111 H113 0.929 . S
H112 C101 0.930 . S
H113 C111 0.929 . S
H114 C129 0.930 . S
H115 C136 0.929 . S
H116 C110 0.930 . S
H117 C109 0.931 . S
H118 C132 0.930 . S
H119 C99 0.930 . S
H120 C105 0.929 1_565 S
H121 C106 0.930 . S
H122 C127 0.930 . S
H123 C102 0.930 . S
H124 C135 0.931 . S
N125 Tb96 2.617 . S
N125 C126 1.379 . S
N125 C129 1.334 . S
C126 N125 1.379 . S
C126 C128 1.416 . S
C126 C134 1.424 . S
C127 H122 0.930 . S
C127 C129 1.390 . S
C127 C130 1.339 . S
C128 C126 1.416 . S
C128 C130 1.416 . S
C128 C161 1.448 . S
C129 H114 0.930 . S
C129 N125 1.334 . S
C129 C127 1.390 . S
C130 C127 1.339 . S
C130 C128 1.416 . S
C130 H137 0.930 . S
N131 Tb96 2.572 . S
N131 C132 1.340 . S
N131 C134 1.361 . S
C132 H118 0.930 . S
C132 N131 1.340 . S
C132 C136 1.407 . S
C133 C134 1.413 . S
C133 C135 1.416 . S
C133 C162 1.427 . S
C134 C126 1.424 . S
C134 N131 1.361 . S
C134 C133 1.413 . S
C135 H124 0.931 . S
C135 C133 1.416 . S
C135 C136 1.332 . S
C136 H115 0.929 . S
C136 C132 1.407 . S
C136 C135 1.332 . S
H137 C130 0.930 . S
H138 C161 0.930 . S
H139 C162 0.929 . S
O140 Tb96 2.465 . S
O140 C160 1.264 . S
O141 Tb96 2.387 . S
O141 C152 1.264 . S
O142 Tb107 2.349 1_455 S
O142 C152 1.243 . S
O143 Tb96 2.428 . S
O143 C160 1.256 . S
O144 Tb96 2.308 1_655 S
O144 C159 1.266 . S
O145 Tb107 2.393 . S
O145 C159 1.248 . S
O146 Tb107 2.465 . S
O146 C171 1.264 . S
O147 Tb107 2.387 . S
O147 C163 1.264 . S
O148 Tb96 2.349 1_655 S
O148 C163 1.243 . S
O149 Tb107 2.428 . S
O149 C171 1.256 . S
O150 Tb107 2.308 1_455 S
O150 C170 1.266 . S
O151 Tb96 2.393 . S
O151 C170 1.248 . S
C152 O141 1.264 . S
C152 O142 1.243 . S
C153 C156 1.399 . S
C153 C158 1.383 . S
C153 C160 1.496 . S
C154 C155 1.399 . S
C154 C158 1.389 . S
C155 C154 1.399 . S
C155 C157 1.380 . S
C155 H172 0.929 . S
C156 C153 1.399 . S
C156 C157 1.392 . S
C156 H173 0.929 . S
C157 C155 1.380 . S
C157 C156 1.392 . S
C157 H174 0.929 . S
C158 C153 1.383 . S
C158 C154 1.389 . S
C158 H175 0.931 . S
C159 O144 1.266 . S
C159 O145 1.248 . S
C160 Tb96 2.802 . S
C160 O140 1.264 . S
C160 O143 1.256 . S
C160 C153 1.496 . S
C161 C128 1.448 . S
C161 H138 0.930 . S
C161 C162 1.328 . S
C162 C133 1.427 . S
C162 H139 0.929 . S
C162 C161 1.328 . S
C163 O147 1.264 . S
C163 O148 1.243 . S
C164 C167 1.399 . S
C164 C168 1.383 . S
C164 C171 1.496 . S
C165 C166 1.399 . S
C165 C168 1.389 . S
C166 C165 1.399 . S
C166 C169 1.380 . S
C166 H176 0.929 . S
C167 C164 1.399 . S
C167 C169 1.392 . S
C167 H177 0.929 . S
C168 C164 1.383 . S
C168 C165 1.389 . S
C168 H178 0.931 . S
C169 C166 1.380 . S
C169 C167 1.392 . S
C169 H179 0.929 . S
C170 O150 1.266 . S
C170 O151 1.248 . S
C171 Tb107 2.802 . S
C171 O146 1.264 . S
C171 O149 1.256 . S
C171 C164 1.496 . S
H172 C155 0.929 . S
H173 C156 0.929 . S
H174 C157 0.929 . S
H175 C158 0.931 . S
H176 C166 0.929 . S
H177 C167 0.929 . S
H178 C168 0.931 . S
H179 C169 0.929 . S
Tb180 N209 2.617 . S
Tb180 N215 2.572 . S
Tb180 O224 2.465 . S
Tb180 O225 2.387 . S
Tb180 O227 2.428 . S
Tb180 O228 2.308 . S
Tb180 O232 2.349 . S
Tb180 O235 2.393 . S
Tb180 C244 2.802 . S
C181 N182 1.379 . S
C181 C184 1.416 . S
C181 C188 1.424 . S
N182 C181 1.379 . S
N182 C185 1.334 . S
N182 Tb191 2.617 . S
C183 C185 1.390 . S
C183 C186 1.339 . S
C183 H203 0.930 . S
C184 C181 1.416 . S
C184 C186 1.416 . S
C184 C190 1.448 . S
C185 N182 1.334 . S
C185 C183 1.390 . S
C185 H196 0.930 . S
C186 C183 1.339 . S
C186 C184 1.416 . S
C186 H207 0.930 . S
C187 C188 1.413 . S
C187 C189 1.427 . S
C187 C193 1.416 . S
C188 C181 1.424 . S
C188 C187 1.413 . S
C188 N192 1.361 . S
C189 C187 1.427 . S
C189 C190 1.328 . S
C189 H204 0.929 . S
C190 C184 1.448 . S
C190 C189 1.328 . S
C190 H205 0.930 . S
Tb191 N182 2.617 . S
Tb191 N192 2.572 . S
Tb191 O226 2.349 . S
Tb191 O229 2.393 . S
Tb191 O230 2.465 . S
Tb191 O231 2.387 . S
Tb191 O233 2.428 . S
Tb191 O234 2.308 . S
Tb191 C255 2.802 . S
N192 C188 1.361 . S
N192 Tb191 2.572 . S
N192 C194 1.340 . S
C193 C187 1.416 . S
C193 C195 1.332 . S
C193 H201 0.931 . S
C194 N192 1.340 . S
C194 C195 1.407 . S
C194 H200 0.930 . S
C195 C193 1.332 . S
C195 C194 1.407 . S
C195 H197 0.929 . S
H196 C185 0.930 . S
H197 C195 0.929 . S
H198 C213 0.930 . S
H199 C220 0.929 . S
H200 C194 0.930 . S
H201 C193 0.931 . S
H202 C216 0.930 . S
H203 C183 0.930 . S
H204 C189 0.929 . S
H205 C190 0.930 . S
H206 C211 0.930 . S
H207 C186 0.930 . S
H208 C219 0.931 . S
N209 Tb180 2.617 . S
N209 C210 1.379 . S
N209 C213 1.334 . S
C210 N209 1.379 . S
C210 C212 1.416 . S
C210 C218 1.424 . S
C211 H206 0.930 . S
C211 C213 1.390 . S
C211 C214 1.339 . S
C212 C210 1.416 . S
C212 C214 1.416 . S
C212 C245 1.448 . S
C213 H198 0.930 . S
C213 N209 1.334 . S
C213 C211 1.390 . S
C214 C211 1.339 . S
C214 C212 1.416 . S
C214 H221 0.930 . S
N215 Tb180 2.572 . S
N215 C216 1.340 . S
N215 C218 1.361 . S
C216 H202 0.930 . S
C216 N215 1.340 . S
C216 C220 1.407 . S
C217 C218 1.413 . S
C217 C219 1.416 . S
C217 C246 1.427 . S
C218 C210 1.424 . S
C218 N215 1.361 . S
C218 C217 1.413 . S
C219 H208 0.931 . S
C219 C217 1.416 . S
C219 C220 1.332 . S
C220 H199 0.929 . S
C220 C216 1.407 . S
C220 C219 1.332 . S
H221 C214 0.930 . S
H222 C245 0.930 . S
H223 C246 0.929 . S
O224 Tb180 2.465 . S
O224 C244 1.264 . S
O225 Tb180 2.387 . S
O225 C236 1.264 . S
O226 Tb191 2.349 . S
O226 C236 1.243 . S
O227 Tb180 2.428 . S
O227 C244 1.256 . S
O228 Tb180 2.308 . S
O228 C243 1.266 . S
O229 Tb191 2.393 . S
O229 C243 1.248 . S
O230 Tb191 2.465 . S
O230 C255 1.264 . S
O231 Tb191 2.387 . S
O231 C247 1.264 . S
O232 Tb180 2.349 . S
O232 C247 1.243 . S
O233 Tb191 2.428 . S
O233 C255 1.256 . S
O234 Tb191 2.308 . S
O234 C254 1.266 . S
O235 Tb180 2.393 . S
O235 C254 1.248 . S
C236 O225 1.264 . S
C236 O226 1.243 . S
C237 C240 1.399 . S
C237 C242 1.383 . S
C237 C244 1.496 . S
C238 C239 1.399 . S
C238 C242 1.389 . S
C239 C238 1.399 . S
C239 C241 1.380 . S
C239 H256 0.929 . S
C240 C237 1.399 . S
C240 C241 1.392 . S
C240 H257 0.929 . S
C241 C239 1.380 . S
C241 C240 1.392 . S
C241 H258 0.929 . S
C242 C237 1.383 . S
C242 C238 1.389 . S
C242 H259 0.931 . S
C243 O228 1.266 . S
C243 O229 1.248 . S
C244 Tb180 2.802 . S
C244 O224 1.264 . S
C244 O227 1.256 . S
C244 C237 1.496 . S
C245 C212 1.448 . S
C245 H222 0.930 . S
C245 C246 1.328 . S
C246 C217 1.427 . S
C246 H223 0.929 . S
C246 C245 1.328 . S
C247 O231 1.264 . S
C247 O232 1.243 . S
C248 C251 1.399 . S
C248 C252 1.383 . S
C248 C255 1.496 . S
C249 C250 1.399 . S
C249 C252 1.389 . S
C250 C249 1.399 . S
C250 C253 1.380 . S
C250 H260 0.929 . S
C251 C248 1.399 . S
C251 C253 1.392 . S
C251 H261 0.929 . S
C252 C248 1.383 . S
C252 C249 1.389 . S
C252 H262 0.931 . S
C253 C250 1.380 . S
C253 C251 1.392 . S
C253 H263 0.929 . S
C254 O234 1.266 . S
C254 O235 1.248 . S
C255 Tb191 2.802 . S
C255 O230 1.264 . S
C255 O233 1.256 . S
C255 C248 1.496 . S
H256 C239 0.929 . S
H257 C240 0.929 . S
H258 C241 0.929 . S
H259 C242 0.931 . S
H260 C250 0.929 . S
H261 C251 0.929 . S
H262 C252 0.931 . S
H263 C253 0.929 . S
Tb264 N293 2.617 . S
Tb264 N299 2.572 . S
Tb264 O308 2.465 . S
Tb264 O309 2.387 . S
Tb264 O311 2.428 . S
Tb264 O312 2.311 . S
Tb264 O316 2.349 . S
Tb264 O319 2.393 . S
Tb264 C328 2.802 . S
C265 N266 1.379 . S
C265 C268 1.416 . S
C265 C272 1.424 . S
N266 C265 1.379 . S
N266 C269 1.334 . S
N266 Tb275 2.617 . S
C267 C269 1.390 . S
C267 C270 1.339 . S
C267 H287 0.930 . S
C268 C265 1.416 . S
C268 C270 1.416 . S
C268 C274 1.448 . S
C269 N266 1.334 . S
C269 C267 1.390 . S
C269 H280 0.930 . S
C270 C267 1.339 . S
C270 C268 1.416 . S
C270 H291 0.930 . S
C271 C272 1.413 . S
C271 C273 1.427 . S
C271 C277 1.416 . S
C272 C265 1.424 . S
C272 C271 1.413 . S
C272 N276 1.361 . S
C273 C271 1.427 . S
C273 C274 1.328 . S
C273 H288 0.929 . S
C274 C268 1.448 . S
C274 C273 1.328 . S
C274 H289 0.930 . S
Tb275 N266 2.617 . S
Tb275 N276 2.572 . S
Tb275 O310 2.349 1_655 S
Tb275 O313 2.393 . S
Tb275 O314 2.465 . S
Tb275 O315 2.387 . S
Tb275 O317 2.428 . S
Tb275 O318 2.308 1_655 S
Tb275 C339 2.802 . S
N276 C272 1.361 . S
N276 Tb275 2.572 . S
N276 C278 1.340 . S
C277 C271 1.416 . S
C277 C279 1.332 . S
C277 H285 0.931 . S
C278 N276 1.340 . S
C278 C279 1.407 . S
C278 H284 0.930 . S
C279 C277 1.332 . S
C279 C278 1.407 . S
C279 H281 0.929 . S
H280 C269 0.930 . S
H281 C279 0.929 . S
H282 C297 0.930 . S
H283 C304 0.929 . S
H284 C278 0.930 . S
H285 C277 0.931 . S
H286 C300 0.930 . S
H287 C267 0.930 . S
H288 C273 0.929 . S
H289 C274 0.930 . S
H290 C295 0.930 . S
H291 C270 0.930 . S
H292 C303 0.931 . S
N293 Tb264 2.617 . S
N293 C294 1.379 . S
N293 C297 1.334 . S
C294 N293 1.379 . S
C294 C296 1.416 . S
C294 C302 1.424 . S
C295 H290 0.930 . S
C295 C297 1.390 . S
C295 C298 1.339 . S
C296 C294 1.416 . S
C296 C298 1.416 . S
C296 C329 1.448 . S
C297 H282 0.930 . S
C297 N293 1.334 . S
C297 C295 1.390 . S
C298 C295 1.339 . S
C298 C296 1.416 . S
C298 H305 0.930 . S
N299 Tb264 2.572 . S
N299 C300 1.340 . S
N299 C302 1.361 . S
C300 H286 0.930 . S
C300 N299 1.340 . S
C300 C304 1.407 1_565 S
C301 C302 1.413 . S
C301 C303 1.416 1_565 S
C301 C330 1.427 . S
C302 C294 1.424 . S
C302 N299 1.361 . S
C302 C301 1.413 . S
C303 H292 0.931 . S
C303 C301 1.416 1_545 S
C303 C304 1.332 . S
C304 H283 0.929 . S
C304 C300 1.407 1_545 S
C304 C303 1.332 . S
H305 C298 0.930 . S
H306 C329 0.930 . S
H307 C330 0.929 1_545 S
O308 Tb264 2.465 . S
O308 C328 1.264 . S
O309 Tb264 2.387 . S
O309 C320 1.264 . S
O310 Tb275 2.349 1_455 S
O310 C320 1.243 . S
O311 Tb264 2.428 . S
O311 C328 1.256 . S
O312 Tb264 2.311 . S
O312 C327 1.262 1_455 S
O313 Tb275 2.393 . S
O313 C327 1.248 . S
O314 Tb275 2.465 . S
O314 C339 1.264 . S
O315 Tb275 2.387 . S
O315 C331 1.264 . S
O316 Tb264 2.349 . S
O316 C331 1.243 1_455 S
O317 Tb275 2.428 . S
O317 C339 1.256 . S
O318 Tb275 2.308 1_455 S
O318 C338 1.266 . S
O319 Tb264 2.393 . S
O319 C338 1.248 . S
C320 O309 1.264 . S
C320 O310 1.243 . S
C321 C324 1.399 . S
C321 C326 1.383 . S
C321 C328 1.496 . S
C322 C323 1.399 . S
C322 C326 1.389 . S
C323 C322 1.399 . S
C323 C325 1.380 . S
C323 H340 0.929 . S
C324 C321 1.399 . S
C324 C325 1.392 . S
C324 H341 0.929 . S
C325 C323 1.380 . S
C325 C324 1.392 . S
C325 H342 0.929 . S
C326 C321 1.383 . S
C326 C322 1.389 . S
C326 H343 0.931 . S
C327 O312 1.262 1_655 S
C327 O313 1.248 . S
C328 Tb264 2.802 . S
C328 O308 1.264 . S
C328 O311 1.256 . S
C328 C321 1.496 . S
C329 C296 1.448 . S
C329 H306 0.930 . S
C329 C330 1.328 . S
C330 C301 1.427 . S
C330 H307 0.929 1_565 S
C330 C329 1.328 . S
C331 O315 1.264 . S
C331 O316 1.243 1_655 S
C332 C335 1.399 . S
C332 C336 1.383 . S
C332 C339 1.496 . S
C333 C334 1.399 . S
C333 C336 1.389 . S
C334 C333 1.399 . S
C334 C337 1.380 . S
C334 H344 0.929 . S
C335 C332 1.399 . S
C335 C337 1.392 . S
C335 H345 0.929 . S
C336 C332 1.383 . S
C336 C333 1.389 . S
C336 H346 0.931 . S
C337 C334 1.380 . S
C337 C335 1.392 . S
C337 H347 0.929 . S
C338 O318 1.266 . S
C338 O319 1.248 . S
C339 Tb275 2.802 . S
C339 O314 1.264 . S
C339 O317 1.256 . S
C339 C332 1.496 . S
H340 C323 0.929 . S
H341 C324 0.929 . S
H342 C325 0.929 . S
H343 C326 0.931 . S
H344 C334 0.929 . S
H345 C335 0.929 . S
H346 C336 0.931 . S
H347 C337 0.929 . S
Tb348 N377 2.617 . S
Tb348 N383 2.572 . S
Tb348 O392 2.465 . S
Tb348 O393 2.387 . S
Tb348 O395 2.428 . S
Tb348 O396 2.308 . S
Tb348 O400 2.349 . S
Tb348 O403 2.393 . S
Tb348 C412 2.802 . S
C349 N350 1.379 . S
C349 C352 1.416 . S
C349 C356 1.424 . S
N350 C349 1.379 . S
N350 C353 1.334 . S
N350 Tb359 2.617 . S
C351 C353 1.390 . S
C351 C354 1.339 . S
C351 H371 0.930 . S
C352 C349 1.416 . S
C352 C354 1.416 . S
C352 C358 1.448 . S
C353 N350 1.334 . S
C353 C351 1.390 . S
C353 H364 0.930 . S
C354 C351 1.339 . S
C354 C352 1.416 . S
C354 H375 0.930 . S
C355 C356 1.413 . S
C355 C357 1.427 . S
C355 C361 1.416 . S
C356 C349 1.424 . S
C356 C355 1.413 . S
C356 N360 1.361 . S
C357 C355 1.427 . S
C357 C358 1.328 . S
C357 H372 0.929 . S
C358 C352 1.448 . S
C358 C357 1.328 . S
C358 H373 0.930 . S
Tb359 N350 2.617 . S
Tb359 N360 2.572 . S
Tb359 O394 2.349 . S
Tb359 O397 2.393 . S
Tb359 O398 2.465 . S
Tb359 O399 2.387 . S
Tb359 O401 2.428 . S
Tb359 O402 2.308 . S
Tb359 C423 2.802 . S
N360 C356 1.361 . S
N360 Tb359 2.572 . S
N360 C362 1.340 . S
C361 C355 1.416 . S
C361 C363 1.332 . S
C361 H369 0.931 . S
C362 N360 1.340 . S
C362 C363 1.407 . S
C362 H368 0.930 . S
C363 C361 1.332 . S
C363 C362 1.407 . S
C363 H365 0.929 . S
H364 C353 0.930 . S
H365 C363 0.929 . S
H366 C381 0.930 . S
H367 C388 0.929 . S
H368 C362 0.930 . S
H369 C361 0.931 . S
H370 C384 0.930 . S
H371 C351 0.930 . S
H372 C357 0.929 . S
H373 C358 0.930 . S
H374 C379 0.930 . S
H375 C354 0.930 . S
H376 C387 0.931 . S
N377 Tb348 2.617 . S
N377 C378 1.379 . S
N377 C381 1.334 . S
C378 N377 1.379 . S
C378 C380 1.416 . S
C378 C386 1.424 . S
C379 H374 0.930 . S
C379 C381 1.390 . S
C379 C382 1.339 . S
C380 C378 1.416 . S
C380 C382 1.416 . S
C380 C413 1.448 . S
C381 H366 0.930 . S
C381 N377 1.334 . S
C381 C379 1.390 . S
C382 C379 1.339 . S
C382 C380 1.416 . S
C382 H389 0.930 . S
N383 Tb348 2.572 . S
N383 C384 1.340 . S
N383 C386 1.361 . S
C384 H370 0.930 . S
C384 N383 1.340 . S
C384 C388 1.407 . S
C385 C386 1.413 . S
C385 C387 1.416 . S
C385 C414 1.427 . S
C386 C378 1.424 . S
C386 N383 1.361 . S
C386 C385 1.413 . S
C387 H376 0.931 . S
C387 C385 1.416 . S
C387 C388 1.332 . S
C388 H367 0.929 . S
C388 C384 1.407 . S
C388 C387 1.332 . S
H389 C382 0.930 . S
H390 C413 0.930 . S
H391 C414 0.929 . S
O392 Tb348 2.465 . S
O392 C412 1.264 . S
O393 Tb348 2.387 . S
O393 C404 1.264 . S
O394 Tb359 2.349 . S
O394 C404 1.243 . S
O395 Tb348 2.428 . S
O395 C412 1.256 . S
O396 Tb348 2.308 . S
O396 C411 1.266 . S
O397 Tb359 2.393 . S
O397 C411 1.248 . S
O398 Tb359 2.465 . S
O398 C423 1.264 . S
O399 Tb359 2.387 . S
O399 C415 1.264 . S
O400 Tb348 2.349 . S
O400 C415 1.243 . S
O401 Tb359 2.428 . S
O401 C423 1.256 . S
O402 Tb359 2.308 . S
O402 C422 1.266 . S
O403 Tb348 2.393 . S
O403 C422 1.248 . S
C404 O393 1.264 . S
C404 O394 1.243 . S
C405 C408 1.399 . S
C405 C410 1.383 . S
C405 C412 1.496 . S
C406 C407 1.399 . S
C406 C410 1.389 . S
C407 C406 1.399 . S
C407 C409 1.380 . S
C407 H424 0.929 . S
C408 C405 1.399 . S
C408 C409 1.392 . S
C408 H425 0.929 . S
C409 C407 1.380 . S
C409 C408 1.392 . S
C409 H426 0.929 . S
C410 C405 1.383 . S
C410 C406 1.389 . S
C410 H427 0.931 . S
C411 O396 1.266 . S
C411 O397 1.248 . S
C412 Tb348 2.802 . S
C412 O392 1.264 . S
C412 O395 1.256 . S
C412 C405 1.496 . S
C413 C380 1.448 . S
C413 H390 0.930 . S
C413 C414 1.328 . S
C414 C385 1.427 . S
C414 H391 0.929 . S
C414 C413 1.328 . S
C415 O399 1.264 . S
C415 O400 1.243 . S
C416 C419 1.399 . S
C416 C420 1.383 . S
C416 C423 1.496 . S
C417 C418 1.399 . S
C417 C420 1.389 . S
C418 C417 1.399 . S
C418 C421 1.380 . S
C418 H428 0.929 . S
C419 C416 1.399 . S
C419 C421 1.392 . S
C419 H429 0.929 . S
C420 C416 1.383 . S
C420 C417 1.389 . S
C420 H430 0.931 . S
C421 C418 1.380 . S
C421 C419 1.392 . S
C421 H431 0.929 . S
C422 O402 1.266 . S
C422 O403 1.248 . S
C423 Tb359 2.802 . S
C423 O398 1.264 . S
C423 O401 1.256 . S
C423 C416 1.496 . S
H424 C407 0.929 . S
H425 C408 0.929 . S
H426 C409 0.929 . S
H427 C410 0.931 . S
H428 C418 0.929 . S
H429 C419 0.929 . S
H430 C420 0.931 . S
H431 C421 0.929 . S
H432 C438 0.930 . S
H433 C441 0.930 . S
H434 C442 0.930 . S
H435 C443 0.930 . S
H436 C446 0.930 1_545 S
H437 C447 0.930 . S
C438 H432 0.930 . S
C438 C439 1.355 . S
C438 C440 1.415 . S
C439 C438 1.355 . S
C439 C441 1.419 . S
C440 C438 1.415 . S
C440 C445 1.425 . S
C440 C447 1.409 . S
C441 H433 0.930 . S
C441 C439 1.419 . S
C441 C442 1.362 . S
C442 H434 0.930 . S
C442 C441 1.362 . S
C442 C445 1.409 . S
C443 H435 0.930 . S
C443 C444 1.355 . S
C443 C445 1.415 1_545 S
C444 C443 1.355 . S
C444 C446 1.419 1_545 S
C445 C440 1.425 . S
C445 C442 1.409 . S
C445 C443 1.415 1_565 S
C446 H436 0.930 1_565 S
C446 C444 1.419 1_565 S
C446 C447 1.362 . S
C447 H437 0.930 . S
C447 C440 1.409 . S
C447 C446 1.362 . S
H448 C454 0.930 . S
H449 C457 0.930 . S
H450 C458 0.930 . S
H451 C459 0.930 . S
H452 C462 0.930 . S
H453 C463 0.930 . S
C454 H448 0.930 . S
C454 C455 1.355 . S
C454 C456 1.415 . S
C455 C454 1.355 . S
C455 C457 1.419 . S
C456 C454 1.415 . S
C456 C461 1.425 . S
C456 C463 1.409 . S
C457 H449 0.930 . S
C457 C455 1.419 . S
C457 C458 1.362 . S
C458 H450 0.930 . S
C458 C457 1.362 . S
C458 C461 1.409 . S
C459 H451 0.930 . S
C459 C460 1.355 . S
C459 C461 1.415 . S
C460 C459 1.355 . S
C460 C462 1.419 . S
C461 C456 1.425 . S
C461 C458 1.409 . S
C461 C459 1.415 . S
C462 H452 0.930 . S
C462 C460 1.419 . S
C462 C463 1.362 . S
C463 H453 0.930 . S
C463 C456 1.409 . S
C463 C462 1.362 . S
H464 C470 0.930 . S
H465 C473 0.930 . S
H466 C474 0.930 . S
H467 C475 0.930 . S
H468 C478 0.930 . S
H469 C479 0.930 . S
C470 H464 0.930 . S
C470 C471 1.355 . S
C470 C472 1.415 . S
C471 C470 1.355 . S
C471 C473 1.419 . S
C472 C470 1.415 . S
C472 C477 1.425 . S
C472 C479 1.409 . S
C473 H465 0.930 . S
C473 C471 1.419 . S
C473 C474 1.362 . S
C474 H466 0.930 . S
C474 C473 1.362 . S
C474 C477 1.409 . S
C475 H467 0.930 . S
C475 C476 1.355 . S
C475 C477 1.415 . S
C476 C475 1.355 . S
C476 C478 1.419 . S
C477 C472 1.425 . S
C477 C474 1.409 . S
C477 C475 1.415 . S
C478 H468 0.930 . S
C478 C476 1.419 . S
C478 C479 1.362 . S
C479 H469 0.930 . S
C479 C472 1.409 . S
C479 C478 1.362 . S
H480 C486 0.930 . S
H481 C489 0.930 . S
H482 C490 0.930 . S
H483 C491 0.930 . S
H484 C494 0.930 . S
H485 C495 0.930 . S
C486 H480 0.930 . S
C486 C487 1.355 . S
C486 C488 1.415 . S
C487 C486 1.355 . S
C487 C489 1.419 . S
C488 C486 1.415 . S
C488 C493 1.425 . S
C488 C495 1.409 1_565 S
C489 H481 0.930 . S
C489 C487 1.419 . S
C489 C490 1.362 . S
C490 H482 0.930 . S
C490 C489 1.362 . S
C490 C493 1.409 . S
C491 H483 0.930 . S
C491 C492 1.355 1_565 S
C491 C493 1.415 . S
C492 C491 1.355 1_545 S
C492 C494 1.419 . S
C493 C488 1.425 . S
C493 C490 1.409 . S
C493 C491 1.415 . S
C494 H484 0.930 . S
C494 C492 1.419 . S
C494 C495 1.362 . S
C495 H485 0.930 . S
C495 C488 1.409 1_545 S
C495 C494 1.362 . S
H496 C502 0.930 . S
H497 C505 0.930 . S
H498 C506 0.930 . S
H499 C507 0.924 1_565 S
H500 C510 0.930 . S
H501 C511 0.930 . S
C502 H496 0.930 . S
C502 C503 1.355 . S
C502 C504 1.415 . S
C503 C502 1.355 . S
C503 C505 1.419 . S
C504 C502 1.415 . S
C504 C509 1.425 . S
C504 C511 1.409 . S
C505 H497 0.930 . S
C505 C503 1.419 . S
C505 C506 1.362 . S
C506 H498 0.930 . S
C506 C505 1.362 . S
C506 C509 1.409 . S
C507 H499 0.924 1_545 S
C507 C508 1.341 1_545 S
C507 C509 1.435 . S
C508 C507 1.341 1_565 S
C508 C510 1.419 . S
C509 C504 1.425 . S
C509 C506 1.409 . S
C509 C507 1.435 . S
C510 H500 0.930 . S
C510 C508 1.419 . S
C510 C511 1.362 1_565 S
C511 H501 0.930 . S
C511 C504 1.409 . S
C511 C510 1.362 1_545 S
H512 C518 0.930 . S
H513 C521 0.930 . S
H514 C522 0.930 . S
H515 C523 0.930 . S
H516 C526 0.930 . S
H517 C527 0.930 . S
C518 H512 0.930 . S
C518 C519 1.355 . S
C518 C520 1.415 . S
C519 C518 1.355 . S
C519 C521 1.419 . S
C520 C518 1.415 . S
C520 C525 1.425 . S
C520 C527 1.409 . S
C521 H513 0.930 . S
C521 C519 1.419 . S
C521 C522 1.362 . S
C522 H514 0.930 . S
C522 C521 1.362 . S
C522 C525 1.409 . S
C523 H515 0.930 . S
C523 C524 1.355 . S
C523 C525 1.415 . S
C524 C523 1.355 . S
C524 C526 1.419 . S
C525 C520 1.425 . S
C525 C522 1.409 . S
C525 C523 1.415 . S
C526 H516 0.930 . S
C526 C524 1.419 . S
C526 C527 1.362 . S
C527 H517 0.930 . S
C527 C520 1.409 . S
C527 C526 1.362 . S
H528 C534 0.930 . S
H529 C537 0.930 . S
H530 C538 0.930 . S
H531 C539 0.930 . S
H532 C542 0.930 . S
H533 C543 0.930 . S
C534 H528 0.930 . S
C534 C535 1.355 . S
C534 C536 1.415 . S
C535 C534 1.355 . S
C535 C537 1.419 . S
C536 C534 1.415 . S
C536 C541 1.425 . S
C536 C543 1.409 . S
C537 H529 0.930 . S
C537 C535 1.419 . S
C537 C538 1.362 . S
C538 H530 0.930 . S
C538 C537 1.362 . S
C538 C541 1.409 . S
C539 H531 0.930 . S
C539 C540 1.355 . S
C539 C541 1.415 . S
C540 C539 1.355 . S
C540 C542 1.419 . S
C541 C536 1.425 . S
C541 C538 1.409 . S
C541 C539 1.415 . S
C542 H532 0.930 . S
C542 C540 1.419 . S
C542 C543 1.362 . S
C543 H533 0.930 . S
C543 C536 1.409 . S
C543 C542 1.362 . S
H544 C550 0.930 . S
H545 C553 0.930 . S
H546 C554 0.930 . S
H547 C555 0.930 . S
H548 C558 0.930 . S
H549 C559 0.930 . S
C550 H544 0.930 . S
C550 C551 1.355 . S
C550 C552 1.415 . S
C551 C550 1.355 . S
C551 C553 1.419 . S
C552 C550 1.415 . S
C552 C557 1.425 . S
C552 C559 1.409 1_545 S
C553 H545 0.930 . S
C553 C551 1.419 . S
C553 C554 1.362 . S
C554 H546 0.930 . S
C554 C553 1.362 . S
C554 C557 1.409 . S
C555 H547 0.930 . S
C555 C556 1.355 1_545 S
C555 C557 1.415 . S
C556 C555 1.355 1_565 S
C556 C558 1.419 . S
C557 C552 1.425 . S
C557 C554 1.409 . S
C557 C555 1.415 . S
C558 H548 0.930 . S
C558 C556 1.419 . S
C558 C559 1.362 . S
C559 H549 0.930 . S
C559 C552 1.409 1_565 S
C559 C558 1.362 . S
H560 C566 0.930 . S
H561 C569 0.930 . S
H562 C570 0.930 . S
H563 C571 0.930 . S
H564 C574 0.930 . S
H565 C575 0.930 . S
C566 H560 0.930 . S
C566 C567 1.355 . S
C566 C568 1.415 1_556 S
C567 C566 1.355 . S
C567 C569 1.419 . S
C568 C566 1.415 1_554 S
C568 C573 1.425 . S
C568 C575 1.409 . S
C569 H561 0.930 . S
C569 C567 1.419 . S
C569 C570 1.362 . S
C570 H562 0.930 . S
C570 C569 1.362 . S
C570 C573 1.409 1_556 S
C571 H563 0.930 . S
C571 C572 1.355 . S
C571 C573 1.415 . S
C572 C571 1.355 . S
C572 C574 1.419 . S
C573 C568 1.425 . S
C573 C570 1.409 1_554 S
C573 C571 1.415 . S
C574 H564 0.930 . S
C574 C572 1.419 . S
C574 C575 1.362 . S
C575 H565 0.930 . S
C575 C568 1.409 . S
C575 C574 1.362 . S
H576 C582 0.930 . S
H577 C585 0.930 . S
H578 C586 0.930 . S
H579 C587 0.930 . S
H580 C590 0.930 . S
H581 C591 0.930 . S
C582 H576 0.930 . S
C582 C583 1.355 . S
C582 C584 1.415 . S
C583 C582 1.355 . S
C583 C585 1.419 . S
C584 C582 1.415 . S
C584 C589 1.425 . S
C584 C591 1.409 . S
C585 H577 0.930 . S
C585 C583 1.419 . S
C585 C586 1.362 . S
C586 H578 0.930 . S
C586 C585 1.362 . S
C586 C589 1.409 . S
C587 H579 0.930 . S
C587 C588 1.355 . S
C587 C589 1.415 . S
C588 C587 1.355 . S
C588 C590 1.419 . S
C589 C584 1.425 . S
C589 C586 1.409 . S
C589 C587 1.415 . S
C590 H580 0.930 . S
C590 C588 1.419 . S
C590 C591 1.362 . S
C591 H581 0.930 . S
C591 C584 1.409 . S
C591 C590 1.362 . S
H592 C598 0.930 . S
H593 C601 0.930 . S
H594 C602 0.930 . S
H595 C603 0.930 . S
H596 C606 0.930 . S
H597 C607 0.930 . S
C598 H592 0.930 . S
C598 C599 1.355 . S
C598 C600 1.415 1_554 S
C599 C598 1.355 . S
C599 C601 1.419 . S
C600 C598 1.415 1_556 S
C600 C605 1.425 . S
C600 C607 1.409 . S
C601 H593 0.930 . S
C601 C599 1.419 . S
C601 C602 1.362 . S
C602 H594 0.930 . S
C602 C601 1.362 . S
C602 C605 1.409 1_554 S
C603 H595 0.930 . S
C603 C604 1.355 . S
C603 C605 1.415 . S
C604 C603 1.355 . S
C604 C606 1.419 . S
C605 C600 1.425 . S
C605 C602 1.409 1_556 S
C605 C603 1.415 . S
C606 H596 0.930 . S
C606 C604 1.419 . S
C606 C607 1.362 . S
C607 H597 0.930 . S
C607 C600 1.409 . S
C607 C606 1.362 . S
H608 C614 0.930 . S
H609 C617 0.930 . S
H610 C618 0.930 . S
H611 C619 0.930 . S
H612 C622 0.930 . S
H613 C623 0.930 . S
C614 H608 0.930 . S
C614 C615 1.355 . S
C614 C616 1.415 . S
C615 C614 1.355 . S
C615 C617 1.419 . S
C616 C614 1.415 . S
C616 C621 1.425 . S
C616 C623 1.409 . S
C617 H609 0.930 . S
C617 C615 1.419 . S
C617 C618 1.362 . S
C618 H610 0.930 . S
C618 C617 1.362 . S
C618 C621 1.409 . S
C619 H611 0.930 . S
C619 C620 1.355 . S
C619 C621 1.415 . S
C620 C619 1.355 . S
C620 C622 1.419 . S
C621 C616 1.425 . S
C621 C618 1.409 . S
C621 C619 1.415 . S
C622 H612 0.930 . S
C622 C620 1.419 . S
C622 C623 1.362 . S
C623 H613 0.930 . S
C623 C616 1.409 . S
C623 C622 1.362 . S
H624 C630 0.930 . S
H625 C633 0.930 . S
H626 C634 0.925 1_556 S
H627 C635 0.930 . S
H628 C638 0.930 . S
H629 C639 0.930 . S
C630 H624 0.930 . S
C630 C631 1.355 . S
C630 C632 1.415 1_554 S
C631 C630 1.355 . S
C631 C633 1.419 . S
C632 C630 1.415 1_556 S
C632 C637 1.425 . S
C632 C639 1.409 . S
C633 H625 0.930 . S
C633 C631 1.419 . S
C633 C634 1.379 . S
C634 H626 0.925 1_554 S
C634 C633 1.379 . S
C634 C637 1.398 1_554 S
C635 H627 0.930 . S
C635 C636 1.355 . S
C635 C637 1.415 . S
C636 C635 1.355 . S
C636 C638 1.419 . S
C637 C632 1.425 . S
C637 C634 1.398 1_556 S
C637 C635 1.415 . S
C638 H628 0.930 . S
C638 C636 1.419 . S
C638 C639 1.362 . S
C639 H629 0.930 . S
C639 C632 1.409 . S
C639 C638 1.362 . S
H640 C646 0.930 . S
H641 C649 0.930 . S
H642 C650 0.930 . S
H643 C651 0.930 . S
H644 C654 0.930 . S
H645 C655 0.930 . S
C646 H640 0.930 . S
C646 C647 1.355 . S
C646 C648 1.415 . S
C647 C646 1.355 . S
C647 C649 1.419 . S
C648 C646 1.415 . S
C648 C653 1.425 . S
C648 C655 1.409 . S
C649 H641 0.930 . S
C649 C647 1.419 . S
C649 C650 1.362 . S
C650 H642 0.930 . S
C650 C649 1.362 . S
C650 C653 1.409 . S
C651 H643 0.930 . S
C651 C652 1.355 . S
C651 C653 1.415 . S
C652 C651 1.355 . S
C652 C654 1.419 . S
C653 C648 1.425 . S
C653 C650 1.409 . S
C653 C651 1.415 . S
C654 H644 0.930 . S
C654 C652 1.419 . S
C654 C655 1.362 . S
C655 H645 0.930 . S
C655 C648 1.409 . S
C655 C654 1.362 . S
H656 C662 0.930 . S
H657 C665 0.930 . S
H658 C666 0.930 . S
H659 C667 0.930 . S
H660 C670 0.930 . S
H661 C671 0.925 1_556 S
C662 H656 0.930 . S
C662 C663 1.355 . S
C662 C664 1.390 1_556 S
C663 C662 1.355 . S
C663 C665 1.419 . S
C664 C662 1.390 1_554 S
C664 C669 1.441 . S
C664 C671 1.419 . S
C665 H657 0.930 . S
C665 C663 1.419 . S
C665 C666 1.362 1_556 S
C666 H658 0.930 . S
C666 C665 1.362 1_554 S
C666 C669 1.409 . S
C667 H659 0.930 . S
C667 C668 1.355 . S
C667 C669 1.415 . S
C668 C667 1.355 . S
C668 C670 1.419 . S
C669 C664 1.441 . S
C669 C666 1.409 . S
C669 C667 1.415 . S
C670 H660 0.930 . S
C670 C668 1.419 . S
C670 C671 1.362 . S
C671 H661 0.925 1_554 S
C671 C664 1.419 . S
C671 C670 1.362 . S
H672 C678 0.930 . S
H673 C681 0.930 . S
H674 C682 0.930 . S
H675 C683 0.930 . S
H676 C686 0.930 . S
H677 C687 0.930 . S
C678 H672 0.930 . S
C678 C679 1.355 . S
C678 C680 1.415 . S
C679 C678 1.355 . S
C679 C681 1.419 . S
C680 C678 1.415 . S
C680 C685 1.425 . S
C680 C687 1.409 . S
C681 H673 0.930 . S
C681 C679 1.419 . S
C681 C682 1.362 . S
C682 H674 0.930 . S
C682 C681 1.362 . S
C682 C685 1.409 . S
C683 H675 0.930 . S
C683 C684 1.355 . S
C683 C685 1.415 . S
C684 C683 1.355 . S
C684 C686 1.419 . S
C685 C680 1.425 . S
C685 C682 1.409 . S
C685 C683 1.415 . S
C686 H676 0.930 . S
C686 C684 1.419 . S
C686 C687 1.362 . S
C687 H677 0.930 . S
C687 C680 1.409 . S
C687 C686 1.362 . S
H688 C694 0.930 . S
H689 C697 0.930 . S
H690 C698 0.930 . S
H691 C699 0.930 . S
H692 C702 0.930 . S
H693 C703 0.930 . S
C694 H688 0.930 . S
C694 C695 1.355 . S
C694 C696 1.415 . S
C695 C694 1.355 . S
C695 C697 1.419 . S
C696 C694 1.415 . S
C696 C701 1.425 . S
C696 C703 1.409 . S
C697 H689 0.930 . S
C697 C695 1.419 . S
C697 C698 1.362 . S
C698 H690 0.930 . S
C698 C697 1.362 . S
C698 C701 1.409 . S
C699 H691 0.930 . S
C699 C700 1.355 . S
C699 C701 1.415 . S
C700 C699 1.355 . S
C700 C702 1.419 . S
C701 C696 1.425 . S
C701 C698 1.409 . S
C701 C699 1.415 . S
C702 H692 0.930 . S
C702 C700 1.419 . S
C702 C703 1.362 . S
C703 H693 0.930 . S
C703 C696 1.409 . S
C703 C702 1.362 . S
H704 C710 0.930 . S
H705 C713 0.930 . S
H706 C714 0.930 . S
H707 C715 0.930 . S
H708 C718 0.930 . S
H709 C719 0.930 . S
C710 H704 0.930 . S
C710 C711 1.355 . S
C710 C712 1.415 . S
C711 C710 1.355 . S
C711 C713 1.419 . S
C712 C710 1.415 . S
C712 C717 1.425 . S
C712 C719 1.409 . S
C713 H705 0.930 . S
C713 C711 1.419 . S
C713 C714 1.362 . S
C714 H706 0.930 . S
C714 C713 1.362 . S
C714 C717 1.409 . S
C715 H707 0.930 . S
C715 C716 1.355 . S
C715 C717 1.415 . S
C716 C715 1.355 . S
C716 C718 1.419 . S
C717 C712 1.425 . S
C717 C714 1.409 . S
C717 C715 1.415 . S
C718 H708 0.930 . S
C718 C716 1.419 . S
C718 C719 1.362 . S
C719 H709 0.930 . S
C719 C712 1.409 . S
C719 C718 1.362 . S
H720 C726 0.930 . S
H721 C729 0.930 . S
H722 C730 0.930 . S
H723 C731 0.930 . S
H724 C734 0.930 . S
H725 C735 0.930 . S
C726 H720 0.930 . S
C726 C727 1.355 . S
C726 C728 1.415 . S
C727 C726 1.355 . S
C727 C729 1.419 . S
C728 C726 1.415 . S
C728 C733 1.425 . S
C728 C735 1.409 . S
C729 H721 0.930 . S
C729 C727 1.419 . S
C729 C730 1.362 . S
C730 H722 0.930 . S
C730 C729 1.362 . S
C730 C733 1.409 . S
C731 H723 0.930 . S
C731 C732 1.355 . S
C731 C733 1.415 . S
C732 C731 1.355 . S
C732 C734 1.419 . S
C733 C728 1.425 . S
C733 C730 1.409 . S
C733 C731 1.415 . S
C734 H724 0.930 . S
C734 C732 1.419 . S
C734 C735 1.362 . S
C735 H725 0.930 . S
C735 C728 1.409 . S
C735 C734 1.362 . S
H736 C742 0.930 . S
H737 C745 0.930 . S
H738 C746 0.930 . S
H739 C747 0.930 . S
H740 C750 0.930 . S
H741 C751 0.930 . S
C742 H736 0.930 . S
C742 C743 1.355 . S
C742 C744 1.415 . S
C743 C742 1.355 . S
C743 C745 1.419 . S
C744 C742 1.415 . S
C744 C749 1.425 . S
C744 C751 1.409 . S
C745 H737 0.930 . S
C745 C743 1.419 . S
C745 C746 1.362 . S
C746 H738 0.930 . S
C746 C745 1.362 . S
C746 C749 1.409 . S
C747 H739 0.930 . S
C747 C748 1.355 . S
C747 C749 1.415 . S
C748 C747 1.355 . S
C748 C750 1.419 . S
C749 C744 1.425 . S
C749 C746 1.409 . S
C749 C747 1.415 . S
C750 H740 0.930 . S
C750 C748 1.419 . S
C750 C751 1.362 . S
C751 H741 0.930 . S
C751 C744 1.409 . S
C751 C750 1.362 . S
H752 C758 0.930 . S
H753 C761 0.930 . S
H754 C762 0.930 . S
H755 C763 0.930 . S
H756 C766 0.930 . S
H757 C767 0.930 . S
C758 H752 0.930 . S
C758 C759 1.355 . S
C758 C760 1.415 . S
C759 C758 1.355 . S
C759 C761 1.419 . S
C760 C758 1.415 . S
C760 C765 1.425 . S
C760 C767 1.409 . S
C761 H753 0.930 . S
C761 C759 1.419 . S
C761 C762 1.362 . S
C762 H754 0.930 . S
C762 C761 1.362 . S
C762 C765 1.409 . S
C763 H755 0.930 . S
C763 C764 1.355 . S
C763 C765 1.415 . S
C764 C763 1.355 . S
C764 C766 1.419 . S
C765 C760 1.425 . S
C765 C762 1.409 . S
C765 C763 1.415 . S
C766 H756 0.930 . S
C766 C764 1.419 . S
C766 C767 1.362 . S
C767 H757 0.930 . S
C767 C760 1.409 . S
C767 C766 1.362 . S
H768 C774 0.930 . S
H769 C777 0.930 . S
H770 C778 0.930 . S
H771 C779 0.930 . S
H772 C782 0.930 . S
H773 C783 0.930 . S
C774 H768 0.930 . S
C774 C775 1.355 . S
C774 C776 1.415 . S
C775 C774 1.355 . S
C775 C777 1.419 . S
C776 C774 1.415 . S
C776 C781 1.425 . S
C776 C783 1.409 . S
C777 H769 0.930 . S
C777 C775 1.419 . S
C777 C778 1.362 . S
C778 H770 0.930 . S
C778 C777 1.362 . S
C778 C781 1.409 . S
C779 H771 0.930 . S
C779 C780 1.355 . S
C779 C781 1.415 . S
C780 C779 1.355 . S
C780 C782 1.419 . S
C781 C776 1.425 . S
C781 C778 1.409 . S
C781 C779 1.415 . S
C782 H772 0.930 . S
C782 C780 1.419 . S
C782 C783 1.362 . S
C783 H773 0.930 . S
C783 C776 1.409 . S
C783 C782 1.362 . S
H784 C790 0.930 . S
H785 C793 0.930 . S
H786 C794 0.930 . S
H787 C795 0.930 . S
H788 C798 0.930 . S
H789 C799 0.930 . S
C790 H784 0.930 . S
C790 C791 1.355 . S
C790 C792 1.415 . S
C791 C790 1.355 . S
C791 C793 1.419 . S
C792 C790 1.415 . S
C792 C797 1.425 . S
C792 C799 1.409 . S
C793 H785 0.930 . S
C793 C791 1.419 . S
C793 C794 1.362 . S
C794 H786 0.930 . S
C794 C793 1.362 . S
C794 C797 1.409 . S
C795 H787 0.930 . S
C795 C796 1.355 . S
C795 C797 1.415 . S
C796 C795 1.355 . S
C796 C798 1.419 . S
C797 C792 1.425 . S
C797 C794 1.409 . S
C797 C795 1.415 . S
C798 H788 0.930 . S
C798 C796 1.419 . S
C798 C799 1.362 . S
C799 H789 0.930 . S
C799 C792 1.409 . S
C799 C798 1.362 . S
H800 C806 0.930 . S
H801 C809 0.930 . S
H802 C810 0.930 . S
H803 C811 0.930 . S
H804 C814 0.930 . S
H805 C815 0.930 . S
C806 H800 0.930 . S
C806 C807 1.355 . S
C806 C808 1.415 . S
C807 C806 1.355 . S
C807 C809 1.419 . S
C808 C806 1.415 . S
C808 C813 1.425 . S
C808 C815 1.409 . S
C809 H801 0.930 . S
C809 C807 1.419 . S
C809 C810 1.362 . S
C810 H802 0.930 . S
C810 C809 1.362 . S
C810 C813 1.409 . S
C811 H803 0.930 . S
C811 C812 1.355 . S
C811 C813 1.415 . S
C812 C811 1.355 . S
C812 C814 1.419 . S
C813 C808 1.425 . S
C813 C810 1.409 . S
C813 C811 1.415 . S
C814 H804 0.930 . S
C814 C812 1.419 . S
C814 C815 1.362 . S
C815 H805 0.930 . S
C815 C808 1.409 . S
C815 C814 1.362 . S
C439 C81 1.666 . S
C444 C170 1.638 . S
C460 C254 1.639 . S
C455 C93 1.663 . S
C476 C247 1.660 . S
C471 C57 1.677 . S
C487 C69 1.662 . S
C492 C163 1.650 . S
C508 C327 1.669 . S
C503 C33 1.681 . S
C524 C411 1.676 . S
C519 C45 1.675 . S
C535 C9 1.672 . S
C540 C404 1.659 . S
C551 C21 1.670 . S
C556 C320 1.657 . S
C572 C154 1.389 . S
C567 C18 1.588 . S
C588 C238 1.408 . S
C583 C6 1.598 . S
C604 C249 1.326 . S
C599 C42 1.597 . S
C620 C165 1.444 . S
C615 C30 1.616 . S
C636 C333 1.418 . S
C631 C66 1.614 . S
C647 C54 1.617 . S
C652 C417 1.451 . S
C668 C406 1.447 . S
C663 C90 1.618 . S
C679 C78 1.602 . S
C684 C322 1.337 . S
C700 C152 1.519 . S
C695 C4 1.492 . S
C716 C236 1.518 . S
C711 C16 1.507 . S
C727 C28 1.495 . S
C732 C243 1.501 . S
C748 C159 1.473 . S
C743 C40 1.518 . S
C764 C331 1.524 . S
C759 C52 1.525 . S
C775 C64 1.517 . S
C780 C415 1.520 . S
C791 C76 1.481 . S
C796 C422 1.518 . S
C807 C88 1.490 . S
C812 C338 1.491 . S
