# Generated by pormake.
# Topology ptr, (4,4)-cn, num edge types: 1
# Building blocks:
#     Node 0, Type 0, BuildingBlock: TATPOV_clean_sbu_0, # of connection points: 4
#     Node 1, Type 0, BuildingBlock: TATPOV_clean_sbu_0, # of connection points: 4
#     Node 2, Type 0, BuildingBlock: TATPOV_clean_sbu_0, # of connection points: 4
#     Node 3, Type 0, BuildingBlock: TATPOV_clean_sbu_0, # of connection points: 4
#     Node 4, Type 0, BuildingBlock: TATPOV_clean_sbu_0, # of connection points: 4
#     Node 5, Type 0, BuildingBlock: TATPOV_clean_sbu_0, # of connection points: 4
#     Node 6, Type 0, BuildingBlock: TATPOV_clean_sbu_0, # of connection points: 4
#     Node 7, Type 0, BuildingBlock: TATPOV_clean_sbu_0, # of connection points: 4
#     Node 8, Type 0, BuildingBlock: TATPOV_clean_sbu_0, # of connection points: 4
#     Node 9, Type 0, BuildingBlock: TATPOV_clean_sbu_0, # of connection points: 4
#     Node 10, Type 0, BuildingBlock: TATPOV_clean_sbu_0, # of connection points: 4
#     Node 11, Type 0, BuildingBlock: TATPOV_clean_sbu_0, # of connection points: 4
#     Node 12, Type 0, BuildingBlock: TATPOV_clean_sbu_0, # of connection points: 4
#     Node 13, Type 0, BuildingBlock: TATPOV_clean_sbu_0, # of connection points: 4
#     Node 14, Type 0, BuildingBlock: TATPOV_clean_sbu_0, # of connection points: 4
#     Node 15, Type 0, BuildingBlock: TATPOV_clean_sbu_0, # of connection points: 4
#     Node 16, Type 0, BuildingBlock: TATPOV_clean_sbu_0, # of connection points: 4
#     Node 17, Type 0, BuildingBlock: TATPOV_clean_sbu_0, # of connection points: 4
#     Node 18, Type 1, BuildingBlock: GIZVER_clean_linker_0, # of connection points: 4
#     Node 19, Type 1, BuildingBlock: GIZVER_clean_linker_0, # of connection points: 4
#     Node 20, Type 1, BuildingBlock: GIZVER_clean_linker_0, # of connection points: 4
#     Node 21, Type 1, BuildingBlock: GIZVER_clean_linker_0, # of connection points: 4
#     Node 22, Type 1, BuildingBlock: GIZVER_clean_linker_0, # of connection points: 4
#     Node 23, Type 1, BuildingBlock: GIZVER_clean_linker_0, # of connection points: 4
#     Node 24, Type 1, BuildingBlock: GIZVER_clean_linker_0, # of connection points: 4
#     Node 25, Type 1, BuildingBlock: GIZVER_clean_linker_0, # of connection points: 4
#     Node 26, Type 1, BuildingBlock: GIZVER_clean_linker_0, # of connection points: 4
#     Node 27, Type 1, BuildingBlock: GIZVER_clean_linker_0, # of connection points: 4
#     Node 28, Type 1, BuildingBlock: GIZVER_clean_linker_0, # of connection points: 4
#     Node 29, Type 1, BuildingBlock: GIZVER_clean_linker_0, # of connection points: 4
#     Node 30, Type 1, BuildingBlock: GIZVER_clean_linker_0, # of connection points: 4
#     Node 31, Type 1, BuildingBlock: GIZVER_clean_linker_0, # of connection points: 4
#     Node 32, Type 1, BuildingBlock: GIZVER_clean_linker_0, # of connection points: 4
#     Node 33, Type 1, BuildingBlock: GIZVER_clean_linker_0, # of connection points: 4
#     Node 34, Type 1, BuildingBlock: GIZVER_clean_linker_0, # of connection points: 4
#     Node 35, Type 1, BuildingBlock: GIZVER_clean_linker_0, # of connection points: 4
#     Edge 36, Type (0, 1), BuildingBlock: XUDNAN_clean_linker_2, # of connection points: 2
#     Edge 37, Type (0, 1), BuildingBlock: XUDNAN_clean_linker_2, # of connection points: 2
#     Edge 38, Type (0, 1), BuildingBlock: XUDNAN_clean_linker_2, # of connection points: 2
#     Edge 39, Type (0, 1), BuildingBlock: XUDNAN_clean_linker_2, # of connection points: 2
#     Edge 40, Type (0, 1), BuildingBlock: XUDNAN_clean_linker_2, # of connection points: 2
#     Edge 41, Type (0, 1), BuildingBlock: XUDNAN_clean_linker_2, # of connection points: 2
#     Edge 42, Type (0, 1), BuildingBlock: XUDNAN_clean_linker_2, # of connection points: 2
#     Edge 43, Type (0, 1), BuildingBlock: XUDNAN_clean_linker_2, # of connection points: 2
#     Edge 44, Type (0, 1), BuildingBlock: XUDNAN_clean_linker_2, # of connection points: 2
#     Edge 45, Type (0, 1), BuildingBlock: XUDNAN_clean_linker_2, # of connection points: 2
#     Edge 46, Type (0, 1), BuildingBlock: XUDNAN_clean_linker_2, # of connection points: 2
#     Edge 47, Type (0, 1), BuildingBlock: XUDNAN_clean_linker_2, # of connection points: 2
#     Edge 48, Type (0, 1), BuildingBlock: XUDNAN_clean_linker_2, # of connection points: 2
#     Edge 49, Type (0, 1), BuildingBlock: XUDNAN_clean_linker_2, # of connection points: 2
#     Edge 50, Type (0, 1), BuildingBlock: XUDNAN_clean_linker_2, # of connection points: 2
#     Edge 51, Type (0, 1), BuildingBlock: XUDNAN_clean_linker_2, # of connection points: 2
#     Edge 52, Type (0, 1), BuildingBlock: XUDNAN_clean_linker_2, # of connection points: 2
#     Edge 53, Type (0, 1), BuildingBlock: XUDNAN_clean_linker_2, # of connection points: 2
#     Edge 54, Type (0, 1), BuildingBlock: XUDNAN_clean_linker_2, # of connection points: 2
#     Edge 55, Type (0, 1), BuildingBlock: XUDNAN_clean_linker_2, # of connection points: 2
#     Edge 56, Type (0, 1), BuildingBlock: XUDNAN_clean_linker_2, # of connection points: 2
#     Edge 57, Type (0, 1), BuildingBlock: XUDNAN_clean_linker_2, # of connection points: 2
#     Edge 58, Type (0, 1), BuildingBlock: XUDNAN_clean_linker_2, # of connection points: 2
#     Edge 59, Type (0, 1), BuildingBlock: XUDNAN_clean_linker_2, # of connection points: 2
#     Edge 60, Type (0, 1), BuildingBlock: XUDNAN_clean_linker_2, # of connection points: 2
#     Edge 61, Type (0, 1), BuildingBlock: XUDNAN_clean_linker_2, # of connection points: 2
#     Edge 62, Type (0, 1), BuildingBlock: XUDNAN_clean_linker_2, # of connection points: 2
#     Edge 63, Type (0, 1), BuildingBlock: XUDNAN_clean_linker_2, # of connection points: 2
#     Edge 64, Type (0, 1), BuildingBlock: XUDNAN_clean_linker_2, # of connection points: 2
#     Edge 65, Type (0, 1), BuildingBlock: XUDNAN_clean_linker_2, # of connection points: 2
#     Edge 66, Type (0, 1), BuildingBlock: XUDNAN_clean_linker_2, # of connection points: 2
#     Edge 67, Type (0, 1), BuildingBlock: XUDNAN_clean_linker_2, # of connection points: 2
#     Edge 68, Type (0, 1), BuildingBlock: XUDNAN_clean_linker_2, # of connection points: 2
#     Edge 69, Type (0, 1), BuildingBlock: XUDNAN_clean_linker_2, # of connection points: 2
#     Edge 70, Type (0, 1), BuildingBlock: XUDNAN_clean_linker_2, # of connection points: 2
#     Edge 71, Type (0, 1), BuildingBlock: XUDNAN_clean_linker_2, # of connection points: 2
#     Edge 72, Type (0, 1), BuildingBlock: XUDNAN_clean_linker_2, # of connection points: 2
#     Edge 73, Type (0, 1), BuildingBlock: XUDNAN_clean_linker_2, # of connection points: 2
#     Edge 74, Type (0, 1), BuildingBlock: XUDNAN_clean_linker_2, # of connection points: 2
#     Edge 75, Type (0, 1), BuildingBlock: XUDNAN_clean_linker_2, # of connection points: 2
#     Edge 76, Type (0, 1), BuildingBlock: XUDNAN_clean_linker_2, # of connection points: 2
#     Edge 77, Type (0, 1), BuildingBlock: XUDNAN_clean_linker_2, # of connection points: 2
#     Edge 78, Type (0, 1), BuildingBlock: XUDNAN_clean_linker_2, # of connection points: 2
#     Edge 79, Type (0, 1), BuildingBlock: XUDNAN_clean_linker_2, # of connection points: 2
#     Edge 80, Type (0, 1), BuildingBlock: XUDNAN_clean_linker_2, # of connection points: 2
#     Edge 81, Type (0, 1), BuildingBlock: XUDNAN_clean_linker_2, # of connection points: 2
#     Edge 82, Type (0, 1), BuildingBlock: XUDNAN_clean_linker_2, # of connection points: 2
#     Edge 83, Type (0, 1), BuildingBlock: XUDNAN_clean_linker_2, # of connection points: 2
#     Edge 84, Type (0, 1), BuildingBlock: XUDNAN_clean_linker_2, # of connection points: 2
#     Edge 85, Type (0, 1), BuildingBlock: XUDNAN_clean_linker_2, # of connection points: 2
#     Edge 86, Type (0, 1), BuildingBlock: XUDNAN_clean_linker_2, # of connection points: 2
#     Edge 87, Type (0, 1), BuildingBlock: XUDNAN_clean_linker_2, # of connection points: 2
#     Edge 88, Type (0, 1), BuildingBlock: XUDNAN_clean_linker_2, # of connection points: 2
#     Edge 89, Type (0, 1), BuildingBlock: XUDNAN_clean_linker_2, # of connection points: 2
#     Edge 90, Type (0, 1), BuildingBlock: XUDNAN_clean_linker_2, # of connection points: 2
#     Edge 91, Type (0, 1), BuildingBlock: XUDNAN_clean_linker_2, # of connection points: 2
#     Edge 92, Type (0, 1), BuildingBlock: XUDNAN_clean_linker_2, # of connection points: 2
#     Edge 93, Type (0, 1), BuildingBlock: XUDNAN_clean_linker_2, # of connection points: 2
#     Edge 94, Type (0, 1), BuildingBlock: XUDNAN_clean_linker_2, # of connection points: 2
#     Edge 95, Type (0, 1), BuildingBlock: XUDNAN_clean_linker_2, # of connection points: 2
#     Edge 96, Type (0, 1), BuildingBlock: XUDNAN_clean_linker_2, # of connection points: 2
#     Edge 97, Type (0, 1), BuildingBlock: XUDNAN_clean_linker_2, # of connection points: 2
#     Edge 98, Type (0, 1), BuildingBlock: XUDNAN_clean_linker_2, # of connection points: 2
#     Edge 99, Type (0, 1), BuildingBlock: XUDNAN_clean_linker_2, # of connection points: 2
#     Edge 100, Type (0, 1), BuildingBlock: XUDNAN_clean_linker_2, # of connection points: 2
#     Edge 101, Type (0, 1), BuildingBlock: XUDNAN_clean_linker_2, # of connection points: 2
#     Edge 102, Type (0, 1), BuildingBlock: XUDNAN_clean_linker_2, # of connection points: 2
#     Edge 103, Type (0, 1), BuildingBlock: XUDNAN_clean_linker_2, # of connection points: 2
#     Edge 104, Type (0, 1), BuildingBlock: XUDNAN_clean_linker_2, # of connection points: 2
#     Edge 105, Type (0, 1), BuildingBlock: XUDNAN_clean_linker_2, # of connection points: 2
#     Edge 106, Type (0, 1), BuildingBlock: XUDNAN_clean_linker_2, # of connection points: 2
#     Edge 107, Type (0, 1), BuildingBlock: XUDNAN_clean_linker_2, # of connection points: 2
# Relax obj value: 0.071
# Max RMSD: 0.189
# Mean RMSD: 0.114
data_MOF--net-ptr--node1-TATPOV_clean_sbu_0--node2-GIZVER_clean_linker_0--edge1-XUDNAN_clean_linker_2
_symmetry_space_group_name_H-M    P1
_symmetry_Int_Tables_number       1
_symmetry_cell_setting            triclinic
loop_
_symmetry_equiv_pos_as_xyz
'x, y, z'
_cell_length_a     79.665701
_cell_length_b     80.801702
_cell_length_c     47.203553
_cell_angle_alpha  89.736463
_cell_angle_beta   91.39426
_cell_angle_gamma 121.41096
loop_
_atom_site_label
_atom_site_type_symbol
_atom_site_fract_x
_atom_site_fract_y
_atom_site_fract_z
_atom_type_partial_charge
Zn0 Zn 0.95293 0.38684 0.03394 0.0
Zn1 Zn 0.98721 0.38897 0.03265 0.0
O2 O 0.96568 0.35936 0.03256 0.0
O3 O 0.93729 0.35785 0.03128 0.0
O4 O 0.01248 0.38811 0.03087 0.0
O5 O 0.96023 0.40063 0.07128 0.0
O6 O 0.98956 0.4042 0.06973 0.0
C7 C 0.94688 0.34936 0.0316 0.0
C8 C 0.97549 0.40899 0.98697 0.0
O9 O 0.98759 0.40425 0.9964 0.0
O10 O 0.95948 0.40321 -0.00064 0.0
C11 C 0.02685 0.39564 0.04877 0.0
O12 O 0.02637 0.40563 0.07028 0.0
C13 C 0.97734 0.40741 0.08189 0.0
Zn14 Zn 0.6361 0.59185 0.00534 0.0
Zn15 Zn 0.63378 0.62191 0.01435 0.0
O16 O 0.66367 0.63254 0.00637 0.0
O17 O 0.66406 0.6064 0.99494 0.0
O18 O 0.63305 0.64675 0.01967 0.0
O19 O 0.6295 0.58306 0.04484 0.0
O20 O 0.62406 0.6067 0.05257 0.0
C21 C 0.67313 0.62455 -0.00124 0.0
C22 C 0.60673 0.5906 0.9699 0.0
O23 O 0.61314 0.60715 0.98144 0.0
O24 O 0.61429 0.58068 0.97663 0.0
C25 C 0.62835 0.65411 -0.0007 0.0
O26 O 0.62383 0.64554 0.97433 0.0
C27 C 0.62388 0.59154 0.06104 0.0
Zn28 Zn 0.42059 0.98936 0.00567 0.0
Zn29 Zn 0.41022 0.01612 0.00743 0.0
O30 O 0.3829 0.99066 0.00616 0.0
O31 O 0.39158 0.96888 0.0044 0.0
O32 O 0.40435 0.03784 0.0057 0.0
O33 O 0.43467 0.99946 0.9693 0.0
O34 O 0.42645 0.02154 0.97104 0.0
C35 C 0.37825 0.97298 0.00491 0.0
C36 C 0.4343 0.01217 0.05662 0.0
O37 O 0.42504 0.01977 0.04579 0.0
O38 O 0.43521 0.99915 0.04318 0.0
C39 C 0.40025 0.04521 0.02621 0.0
O40 O 0.39919 0.03842 0.05187 0.0
C41 C 0.43493 0.01397 0.9586 0.0
Zn42 Zn 0.0602 0.63123 0.00049 0.0
Zn43 Zn 0.02654 0.63254 0.00293 0.0
O44 O 0.04853 0.66118 0.00412 0.0
O45 O 0.07582 0.66085 -0.00022 0.0
O46 O 1.00154 0.63343 0.00448 0.0
O47 O 0.04942 0.61537 0.96412 0.0
O48 O 0.02399 0.61927 0.9648 0.0
C49 C 0.06717 0.67022 0.00211 0.0
C50 C 0.03728 0.61227 0.04945 0.0
O51 O 0.02554 0.61683 0.03814 0.0
O52 O 0.05343 0.61727 0.03794 0.0
C53 C 0.99988 0.64582 0.98992 0.0
O54 O 0.01452 0.65789 0.974 0.0
C55 C 0.03369 0.61288 0.95281 0.0
Zn56 Zn 0.37613 0.41374 0.00669 0.0
Zn57 Zn 0.37243 0.37848 0.00565 0.0
O58 O 0.34347 0.37247 0.00761 0.0
O59 O 0.34695 0.40135 0.0089 0.0
O60 O 0.36945 0.35167 0.00405 0.0
O61 O 0.38923 0.41983 0.96889 0.0
O62 O 0.38747 0.39168 0.96918 0.0
C63 C 0.33593 0.38307 0.00899 0.0
C64 C 0.39691 0.40864 0.05288 0.0
O65 O 0.39015 0.39211 0.04107 0.0
O66 O 0.39272 0.4206 0.04264 0.0
C67 C 0.37696 0.34571 0.02256 0.0
O68 O 0.38677 0.35693 0.04437 0.0
C69 C 0.39296 0.40796 0.95755 0.0
Zn70 Zn 0.6075 0.02988 0.98897 0.0
Zn71 Zn 0.60677 0.99696 0.99106 0.0
O72 O 0.63662 0.019 0.9902 0.0
O73 O 0.63658 0.04607 0.98526 0.0
O74 O 0.60801 0.97216 0.99168 0.0
O75 O 0.59517 0.025 0.02664 0.0
O76 O 0.59305 0.99671 0.02819 0.0
C77 C 0.64596 0.03743 0.98751 0.0
C78 C 0.58311 0.0044 0.94494 0.0
O79 O 0.58893 0.99351 0.95525 0.0
O80 O 0.58927 0.02099 0.95555 0.0
C81 C 0.59993 0.95868 0.0099 0.0
O82 O 0.58955 0.96012 0.02987 0.0
C83 C 0.58962 0.00909 0.03896 0.0
Zn84 Zn 0.62516 0.71577 0.34604 0.0
Zn85 Zn 0.65747 0.71377 0.33568 0.0
O86 O 0.6339 0.68525 0.33842 0.0
O87 O 0.60809 0.68683 0.34948 0.0
O88 O 0.68112 0.71069 0.33091 0.0
O89 O 0.63905 0.73243 0.38068 0.0
O90 O 0.66527 0.73104 0.37136 0.0
C91 C 0.6157 0.67683 0.34431 0.0
C92 C 0.64377 0.7329 0.2926 0.0
O93 O 0.65641 0.72857 0.30069 0.0
O94 O 0.62896 0.72837 0.30747 0.0
C95 C 0.68273 0.69916 0.34765 0.0
O96 O 0.66908 0.68982 0.36647 0.0
C97 C 0.65663 0.73723 0.38656 0.0
Zn98 Zn 0.30187 0.92922 0.35667 0.0
Zn99 Zn 0.30581 0.96437 0.35617 0.0
O100 O 0.33483 0.97139 0.35802 0.0
O101 O 0.3315 0.94259 0.36022 0.0
O102 O 0.30724 0.99031 0.35709 0.0
O103 O 0.28516 0.92126 0.39102 0.0
O104 O 0.29054 0.95093 0.39243 0.0
C105 C 0.34247 0.9609 0.35991 0.0
C106 C 0.28525 0.93535 0.30635 0.0
O107 O 0.29095 0.95171 0.31811 0.0
O108 O 0.28853 0.92329 0.31851 0.0
C109 C 0.31889 0.00477 0.3421 0.0
O110 O 0.33077 1.00315 0.32506 0.0
C111 C 0.283 0.93399 0.40291 0.0
Zn112 Zn 0.04947 0.31288 0.37505 0.0
Zn113 Zn 0.05698 0.3481 0.36825 0.0
O114 O 0.02614 0.33094 0.36968 0.0
O115 O 0.02051 0.30134 0.37455 0.0
O116 O 0.06163 0.3752 0.36221 0.0
O117 O 0.06223 0.31358 0.33907 0.0
O118 O 0.06856 0.34323 0.33211 0.0
C119 C 0.01415 0.31269 0.3718 0.0
C120 C 0.07501 0.33761 0.41905 0.0
O121 O 0.07324 0.35031 0.40527 0.0
O122 O 0.06552 0.3201 0.41083 0.0
C123 C 0.05866 0.38433 0.38145 0.0
O124 O 0.05307 0.37632 0.40644 0.0
C125 C 0.06945 0.32864 0.32402 0.0
Zn126 Zn 0.71425 0.95634 0.33287 0.0
Zn127 Zn 0.68126 0.95694 0.3311 0.0
O128 O 0.70316 0.98618 0.33098 0.0
O129 O 0.73012 0.9852 0.3271 0.0
O130 O 0.65596 0.95732 0.32807 0.0
O131 O 0.70519 0.93785 0.30006 0.0
O132 O 0.67924 0.94079 0.29552 0.0
C133 C 0.72177 0.99488 0.3283 0.0
C134 C 0.69134 0.93957 0.3822 0.0
O135 O 0.67922 0.94284 0.36891 0.0
O136 O 0.70791 0.94498 0.3718 0.0
C137 C 0.65046 0.9645 0.34704 0.0
O138 O 0.66144 0.97196 0.37012 0.0
C139 C 0.68946 0.93387 0.28701 0.0
Zn140 Zn 0.05054 0.76262 0.32094 0.0
Zn141 Zn 0.04752 0.72879 0.33349 0.0
O142 O 0.01818 0.72186 0.33028 0.0
O143 O 0.02122 0.74991 0.32004 0.0
O144 O 0.04657 0.7033 0.34075 0.0
O145 O 0.06483 0.76541 0.28529 0.0
O146 O 0.06454 0.73894 0.29755 0.0
C147 C 0.01037 0.73197 0.32485 0.0
C148 C 0.06981 0.76367 0.37408 0.0
O149 O 0.06294 0.7458 0.36836 0.0
O150 O 0.06656 0.77397 0.3572 0.0
C151 C 0.03315 0.68671 0.33139 0.0
O152 O 0.01813 0.68526 0.31692 0.0
C153 C 0.06996 0.75326 0.28089 0.0
Zn154 Zn 0.29305 0.37471 0.3553 0.0
Zn155 Zn 0.28939 0.34177 0.34412 0.0
O156 O 0.31991 0.36253 0.3458 0.0
O157 O 0.3221 0.38951 0.35989 0.0
O158 O 0.28771 0.31562 0.33879 0.0
O159 O 0.27617 0.36524 0.38858 0.0
O160 O 0.27335 0.337 0.38113 0.0
C161 C 0.33037 0.38041 0.35314 0.0
C162 C 0.27188 0.3589 0.30307 0.0
O163 O 0.27427 0.3448 0.30926 0.0
O164 O 0.27956 0.37385 0.31879 0.0
C165 C 0.30091 0.3129 0.34962 0.0
O166 O 0.31595 0.3273 0.36335 0.0
C167 C 0.2691 0.34772 0.39527 0.0
Zn168 Zn 0.28167 0.04592 0.69733 0.0
Zn169 Zn 0.31236 0.04328 0.68245 0.0
O170 O 0.28894 0.01477 0.68794 0.0
O171 O 0.26358 0.01711 0.69895 0.0
O172 O 0.33594 0.04011 0.67633 0.0
O173 O 0.29553 0.06102 0.73268 0.0
O174 O 0.32183 0.06172 0.7175 0.0
C175 C 0.2708 0.00672 0.69413 0.0
C176 C 0.29793 0.06336 0.6426 0.0
O177 O 0.30949 0.05702 0.64691 0.0
O178 O 0.28526 0.06048 0.66082 0.0
C179 C 0.33452 0.02537 0.66416 0.0
O180 O 0.31738 0.01199 0.65335 0.0
C181 C 0.31365 0.06697 0.73533 0.0
Zn182 Zn 0.96828 0.25335 0.71621 0.0
Zn183 Zn 0.96656 0.28435 0.70126 0.0
O184 O 0.99626 0.29361 0.70532 0.0
O185 O 0.99752 0.26904 0.72315 0.0
O186 O 0.96705 0.30949 0.6939 0.0
O187 O 0.95009 0.24758 0.74806 0.0
O188 O 0.94922 0.27357 0.73673 0.0
C189 C 0.00619 0.28643 0.71496 0.0
C190 C 0.95078 0.25031 0.6601 0.0
O191 O 0.9532 0.26682 0.66616 0.0
O192 O 0.95661 0.24219 0.6774 0.0
C193 C 0.97768 0.32351 0.71093 0.0
O194 O 0.98749 0.32086 0.73142 0.0
C195 C 0.94379 0.25881 0.75244 0.0
Zn196 Zn 0.72377 0.63959 0.68471 0.0
Zn197 Zn 0.72829 0.67404 0.67657 0.0
O198 O 0.69822 0.65466 0.68249 0.0
O199 O 0.6946 0.62597 0.68831 0.0
O200 O 0.73007 0.70014 0.67238 0.0
O201 O 0.73556 0.6413 0.6473 0.0
O202 O 0.73985 0.67014 0.63952 0.0
C203 C 0.68714 0.63645 0.68658 0.0
C204 C 0.75038 0.6672 0.72562 0.0
O205 O 0.74656 0.67848 0.71168 0.0
O206 O 0.74192 0.64945 0.71875 0.0
C207 C 0.7158 0.70144 0.66235 0.0
O208 O 0.69979 0.68564 0.65319 0.0
C209 C 0.74176 0.65607 0.63177 0.0
Zn210 Zn 0.3836 0.30552 0.65904 0.0
Zn211 Zn 0.34861 0.2976 0.67833 0.0
O212 O 0.36505 0.32734 0.67356 0.0
O213 O 0.39347 0.33413 0.65686 0.0
O214 O 0.3217 0.29317 0.68641 0.0
O215 O 0.37056 0.28772 0.62534 0.0
O216 O 0.34219 0.28096 0.64223 0.0
C217 C 0.38216 0.33972 0.66493 0.0
C218 C 0.3735 0.28687 0.71472 0.0
O219 O 0.35766 0.28717 0.71186 0.0
O220 O 0.38628 0.29392 0.69564 0.0
C221 C 0.3187 0.30441 0.70137 0.0
O222 O 0.33353 0.31871 0.71557 0.0
C223 C 0.35195 0.27837 0.62364 0.0
Zn224 Zn 0.71143 0.08404 0.67396 0.0
Zn225 Zn 0.70908 0.0492 0.67547 0.0
O226 O 0.67967 0.04168 0.67447 0.0
O227 O 0.68188 0.07005 0.67518 0.0
O228 O 0.70907 0.02395 0.67681 0.0
O229 O 0.72542 0.08983 0.63658 0.0
O230 O 0.72458 0.06219 0.63959 0.0
C231 C 0.67148 0.0517 0.67489 0.0
C232 C 0.73152 0.08009 0.72246 0.0
O233 O 0.72529 0.06341 0.71153 0.0
O234 O 0.72742 0.09172 0.71067 0.0
C235 C 0.69458 0.00686 0.67192 0.0
O236 O 0.67725 0.0043 0.6654 0.0
C237 C 0.72985 0.07805 0.62684 0.0
Zn238 Zn 0.95671 0.68824 0.65363 0.0
Zn239 Zn 0.95496 0.65546 0.65802 0.0
O240 O 0.98522 0.67686 0.658 0.0
O241 O 0.98589 0.70439 0.65677 0.0
O242 O 0.95526 0.63042 0.66154 0.0
O243 O 0.93997 0.68267 0.68718 0.0
O244 O 0.93945 0.65536 0.69318 0.0
C245 C 0.99498 0.69542 0.65778 0.0
C246 C 0.93599 0.66389 0.60652 0.0
O247 O 0.93897 0.65196 0.62032 0.0
O248 O 0.94318 0.68099 0.61582 0.0
C249 C 0.93975 0.6136 0.66091 0.0
O250 O 0.92257 0.61207 0.65772 0.0
C251 C 0.93431 0.66721 0.70082 0.0
H252 H 0.1418 0.33167 0.1344 0.0
H253 H 0.14181 0.36042 0.05746 0.0
H254 H 0.11085 0.36173 0.12994 0.0
H255 H 0.14693 0.32189 0.0849 0.0
H256 H 0.15379 0.33895 0.05701 0.0
H257 H 0.17325 0.34506 0.13436 0.0
H258 H 0.22959 0.35712 0.10873 0.0
H259 H 0.18514 0.34532 0.04541 0.0
C260 C 0.13851 0.34135 0.12313 0.0
C261 C 0.12722 0.34771 0.13631 0.0
C262 C 0.14483 0.34665 0.09515 0.0
C263 C 0.13817 0.35726 0.07957 0.0
C264 C 0.12581 0.36277 0.09198 0.0
C265 C 0.12095 0.35829 0.12051 0.0
C266 C 0.15508 0.33767 0.08033 0.0
C267 C 0.17663 0.34551 0.08875 0.0
C268 C 0.18301 0.34737 0.11744 0.0
C269 C 0.20195 0.35121 0.1248 0.0
C270 C 0.21485 0.35387 0.10329 0.0
C271 C 0.20894 0.3519 0.0748 0.0
C272 C 0.18983 0.34754 0.06753 0.0
H273 H 0.6457 0.81655 0.11253 0.0
H274 H 0.64039 0.79235 0.02895 0.0
H275 H 0.62976 0.75777 0.10351 0.0
H276 H 0.66641 0.83411 0.05501 0.0
H277 H 0.64577 0.82419 0.03163 0.0
H278 H 0.66387 0.84734 0.10396 0.0
H279 H 0.63204 0.87672 0.09954 0.0
H280 H 0.62775 0.84018 0.03051 0.0
C281 C 0.64203 0.80466 0.09845 0.0
C282 C 0.63759 0.78708 0.11084 0.0
C283 C 0.64244 0.80675 0.06867 0.0
C284 C 0.63881 0.7907 0.05169 0.0
C285 C 0.63456 0.77302 0.06409 0.0
C286 C 0.63312 0.77126 0.09359 0.0
C287 C 0.65008 0.82647 0.05452 0.0
C288 C 0.64441 0.84013 0.06748 0.0
C289 C 0.65289 0.84947 0.09359 0.0
C290 C 0.64777 0.86195 0.10608 0.0
C291 C 0.6357 0.86676 0.09052 0.0
C292 C 0.62918 0.8598 0.06277 0.0
C293 C 0.63299 0.8459 0.05173 0.0
H294 H 0.19002 0.81959 0.13921 0.0
H295 H 0.18348 0.81069 0.04872 0.0
H296 H 0.13254 0.78583 0.10058 0.0
H297 H 0.21739 0.8236 0.10924 0.0
H298 H 0.21493 0.82271 0.07162 0.0
H299 H 0.21333 0.85201 0.1333 0.0
H300 H 0.25942 0.90529 0.09976 0.0
H301 H 0.23458 0.85267 0.05029 0.0
C302 C 0.18075 0.81443 0.12022 0.0
C303 C 0.16024 0.80327 0.12278 0.0
C304 C 0.1893 0.81802 0.09337 0.0
C305 C 0.17704 0.80937 0.0692 0.0
C306 C 0.15653 0.79776 0.07173 0.0
C307 C 0.14828 0.79548 0.09839 0.0
C308 C 0.21141 0.82793 0.09106 0.0
C309 C 0.22207 0.84991 0.09121 0.0
C310 C 0.22242 0.85995 0.11568 0.0
C311 C 0.23547 0.88006 0.11841 0.0
C312 C 0.24829 0.89016 0.09637 0.0
C313 C 0.24838 0.88053 0.07167 0.0
C314 C 0.23469 0.86043 0.06899 0.0
H315 H 0.39308 0.21148 0.88816 0.0
H316 H 0.38087 0.21662 0.97489 0.0
H317 H 0.37243 0.24903 0.9094 0.0
H318 H 0.41022 0.20594 0.9307 0.0
H319 H 0.39999 0.20278 0.96485 0.0
H320 H 0.37519 0.17972 0.89295 0.0
H321 H 0.36301 0.12373 0.91753 0.0
H322 H 0.39388 0.17166 0.97582 0.0
C323 C 0.38715 0.21672 0.90372 0.0
C324 C 0.38088 0.22937 0.89518 0.0
C325 C 0.38656 0.21142 0.93234 0.0
C326 C 0.38055 0.21994 0.9527 0.0
C327 C 0.37552 0.23373 0.94476 0.0
C328 C 0.37535 0.23787 0.91586 0.0
C329 C 0.39611 0.20006 0.94184 0.0
C330 C 0.38433 0.17824 0.93618 0.0
C331 C 0.3755 0.17056 0.90934 0.0
C332 C 0.36774 0.15094 0.90278 0.0
C333 C 0.36869 0.13879 0.92304 0.0
C334 C 0.37843 0.14613 0.94923 0.0
C335 C 0.38582 0.16577 0.95595 0.0
H336 H 0.84831 0.17992 0.90701 0.0
H337 H 0.85327 0.19242 0.99659 0.0
H338 H 0.87555 0.23857 0.93623 0.0
H339 H 0.84951 0.15755 0.94966 0.0
H340 H 0.83966 0.15959 0.98197 0.0
H341 H 0.82893 0.1482 0.90386 0.0
H342 H 0.76661 0.11451 0.91372 0.0
H343 H 0.80436 0.14365 0.98617 0.0
C344 C 0.85193 0.18999 0.92432 0.0
C345 C 0.86151 0.20985 0.9183 0.0
C346 C 0.84811 0.18331 0.95244 0.0
C347 C 0.85487 0.1971 0.97476 0.0
C348 C 0.8645 0.21705 0.96885 0.0
C349 C 0.86723 0.22316 0.94065 0.0
C350 C 0.83964 0.16194 0.95873 0.0
C351 C 0.81909 0.14878 0.94615 0.0
C352 C 0.8164 0.14345 0.9172 0.0
C353 C 0.79744 0.13171 0.90538 0.0
C354 C 0.78119 0.12431 0.92275 0.0
C355 C 0.78356 0.12808 0.95192 0.0
C356 C 0.80251 0.14063 0.96359 0.0
H357 H 0.84289 0.6408 0.8793 0.0
H358 H 0.86581 0.64957 0.96505 0.0
H359 H 0.90179 0.654 0.89556 0.0
H360 H 0.82104 0.62826 0.9223 0.0
H361 H 0.83168 0.63723 0.95669 0.0
H362 H 0.83768 0.66492 0.88748 0.0
H363 H 0.803 0.68736 0.91645 0.0
H364 H 0.81239 0.64992 0.97025 0.0
C365 C 0.85508 0.64492 0.89408 0.0
C366 C 0.87299 0.6483 0.88387 0.0
C367 C 0.8526 0.64631 0.92323 0.0
C368 C 0.8679 0.64953 0.94246 0.0
C369 C 0.88558 0.65192 0.93261 0.0
C370 C 0.88809 0.65181 0.90331 0.0
C371 C 0.83267 0.64132 0.93398 0.0
C372 C 0.82754 0.65699 0.9305 0.0
C373 C 0.83011 0.66677 0.90461 0.0
C374 C 0.82144 0.67789 0.89956 0.0
C375 C 0.81077 0.67988 0.92101 0.0
C376 C 0.80727 0.66974 0.94642 0.0
C377 C 0.81587 0.65851 0.95116 0.0
H378 H 0.81966 0.66227 0.44559 0.0
H379 H 0.80001 0.66873 0.3626 0.0
H380 H 0.77851 0.68096 0.43711 0.0
H381 H 0.8108 0.63869 0.39282 0.0
H382 H 0.8206 0.65575 0.36523 0.0
H383 H 0.83195 0.64396 0.43847 0.0
H384 H 0.89343 0.67119 0.4233 0.0
H385 H 0.85542 0.67431 0.36006 0.0
C386 C 0.81145 0.66643 0.43209 0.0
C387 C 0.7993 0.67195 0.44491 0.0
C388 C 0.81197 0.66515 0.40235 0.0
C389 C 0.80057 0.67039 0.38543 0.0
C390 C 0.78856 0.6762 0.39797 0.0
C391 C 0.78833 0.67718 0.42758 0.0
C392 C 0.82085 0.6544 0.38868 0.0
C393 C 0.84141 0.65987 0.39897 0.0
C394 C 0.84427 0.65295 0.42512 0.0
C395 C 0.86316 0.6577 0.43417 0.0
C396 C 0.8789 0.66772 0.41607 0.0
C397 C 0.87624 0.67312 0.3889 0.0
C398 C 0.85759 0.6699 0.38086 0.0
H399 H 0.32241 0.15472 0.46493 0.0
H400 H 0.32302 0.13985 0.37748 0.0
H401 H 0.30857 0.09781 0.44322 0.0
H402 H 0.34615 0.17937 0.42169 0.0
H403 H 0.33424 0.17236 0.38796 0.0
H404 H 0.32717 0.18294 0.46348 0.0
H405 H 0.29818 0.2126 0.43762 0.0
H406 H 0.31532 0.18633 0.3748 0.0
C407 C 0.31954 0.14429 0.4486 0.0
C408 C 0.31436 0.12555 0.45705 0.0
C409 C 0.32234 0.14971 0.4198 0.0
C410 C 0.32015 0.1358 0.39953 0.0
C411 C 0.3152 0.11698 0.40775 0.0
C412 C 0.3121 0.11208 0.4365 0.0
C413 C 0.3314 0.17093 0.41107 0.0
C414 C 0.32008 0.18079 0.4185 0.0
C415 C 0.31969 0.18601 0.44685 0.0
C416 C 0.31101 0.19668 0.45388 0.0
C417 C 0.30368 0.20324 0.43231 0.0
C418 C 0.30572 0.20012 0.40384 0.0
C419 C 0.31336 0.18839 0.39687 0.0
H420 H 0.83428 0.15366 0.46937 0.0
H421 H 0.82703 0.14284 0.37935 0.0
H422 H 0.78044 0.10654 0.43583 0.0
H423 H 0.8619 0.15544 0.42776 0.0
H424 H 0.85826 0.16501 0.39627 0.0
H425 H 0.86644 0.17278 0.47491 0.0
H426 H 0.90601 0.23338 0.46441 0.0
H427 H 0.86931 0.1984 0.39397 0.0
C428 C 0.82525 0.14617 0.45092 0.0
C429 C 0.80602 0.13067 0.45494 0.0
C430 C 0.83305 0.15077 0.42358 0.0
C431 C 0.82097 0.13966 0.40034 0.0
C432 C 0.80196 0.12339 0.40424 0.0
C433 C 0.79454 0.11944 0.43174 0.0
C434 C 0.85508 0.16351 0.41928 0.0
C435 C 0.86574 0.18346 0.43322 0.0
C436 C 0.87161 0.18552 0.46195 0.0
C437 C 0.8853 0.20379 0.47358 0.0
C438 C 0.89391 0.21994 0.45578 0.0
C439 C 0.88873 0.21839 0.42675 0.0
C440 C 0.87372 0.20012 0.41614 0.0
H441 H 0.05109 0.5476 0.22958 0.0
H442 H 0.05096 0.56198 0.31735 0.0
H443 H 0.02565 0.58061 0.25251 0.0
H444 H 0.07516 0.54834 0.26879 0.0
H445 H 0.06844 0.54689 0.30482 0.0
H446 H 0.03699 0.51722 0.23988 0.0
H447 H 0.03403 0.46563 0.26802 0.0
H448 H 0.06605 0.51758 0.31863 0.0
C449 C 0.04614 0.55318 0.2461 0.0
C450 C 0.03603 0.5625 0.23838 0.0
C451 C 0.05033 0.55154 0.27485 0.0
C452 C 0.04642 0.56173 0.29546 0.0
C453 C 0.03778 0.57259 0.28757 0.0
C454 C 0.03194 0.57208 0.25916 0.0
C455 C 0.06233 0.54231 0.28288 0.0
C456 C 0.05189 0.52019 0.28043 0.0
C457 C 0.04056 0.51006 0.25605 0.0
C458 C 0.03449 0.49057 0.25135 0.0
C459 C 0.03923 0.48084 0.27146 0.0
C460 C 0.05054 0.49035 0.29582 0.0
C461 C 0.05672 0.51 0.30032 0.0
H462 H 0.53499 0.50129 0.22778 0.0
H463 H 0.52756 0.52127 0.30839 0.0
H464 H 0.5627 0.56219 0.24474 0.0
H465 H 0.52506 0.4804 0.27129 0.0
H466 H 0.51853 0.4879 0.30246 0.0
H467 H 0.50314 0.47673 0.22427 0.0
H468 H 0.44194 0.44301 0.2427 0.0
H469 H 0.48458 0.47112 0.31074 0.0
C470 C 0.53716 0.51296 0.24154 0.0
C471 C 0.54905 0.53222 0.23262 0.0
C472 C 0.52873 0.50876 0.26851 0.0
C473 C 0.53307 0.52425 0.28705 0.0
C474 C 0.54574 0.54356 0.27871 0.0
C475 C 0.55297 0.5473 0.2512 0.0
C476 C 0.5177 0.48799 0.2789 0.0
C477 C 0.49638 0.47643 0.26859 0.0
C478 C 0.49166 0.47163 0.23962 0.0
C479 C 0.47202 0.45983 0.23036 0.0
C480 C 0.45707 0.45226 0.25011 0.0
C481 C 0.4614 0.45579 0.2792 0.0
C482 C 0.48108 0.46835 0.28829 0.0
H483 H 0.49858 0.9675 0.21811 0.0
H484 H 0.51449 0.96058 0.30329 0.0
H485 H 0.55617 0.97804 0.23658 0.0
H486 H 0.47313 0.94715 0.25573 0.0
H487 H 0.48096 0.95071 0.29203 0.0
H488 H 0.47888 0.97767 0.22742 0.0
H489 H 0.46546 0.0137 0.2765 0.0
H490 H 0.47372 0.97098 0.31741 0.0
C491 C 0.50943 0.96882 0.23357 0.0
C492 C 0.52807 0.97387 0.22431 0.0
C493 C 0.50454 0.96472 0.26221 0.0
C494 C 0.51839 0.96462 0.28143 0.0
C495 C 0.53682 0.96866 0.27202 0.0
C496 C 0.54165 0.97387 0.24365 0.0
C497 C 0.48383 0.95814 0.27124 0.0
C498 C 0.47966 0.97448 0.27263 0.0
C499 C 0.4777 0.98306 0.24761 0.0
C500 C 0.47248 0.99726 0.24847 0.0
C501 C 0.46927 1.00271 0.27509 0.0
C502 C 0.46831 0.99242 0.29962 0.0
C503 C 0.47441 0.97895 0.2985 0.0
H504 H 0.48874 0.01446 0.76387 0.0
H505 H 0.45671 1.00229 0.68403 0.0
H506 H 0.44583 0.03049 0.75194 0.0
H507 H 0.471 0.97958 0.71576 0.0
H508 H 0.48315 0.99594 0.68815 0.0
H509 H 0.48981 0.98617 0.76491 0.0
H510 H 0.55121 0.00663 0.75538 0.0
H511 H 0.51775 0.0097 0.68536 0.0
C512 C 0.4783 0.01527 0.74991 0.0
C513 C 0.46817 0.02377 0.76049 0.0
C514 C 0.47429 0.00734 0.72227 0.0
C515 C 0.4602 0.00864 0.70511 0.0
C516 C 0.45012 0.01743 0.71528 0.0
C517 C 0.45437 0.02494 0.74302 0.0
C518 C 0.48231 0.99498 0.71165 0.0
C519 C 0.50183 0.99889 0.72441 0.0
C520 C 0.50291 0.99307 0.75231 0.0
C521 C 0.52075 0.99607 0.76397 0.0
C522 C 0.53727 0.00404 0.74684 0.0
C523 C 0.53616 0.0085 0.71849 0.0
C524 C 0.51855 0.00622 0.70735 0.0
H525 H 1.00158 0.49281 0.79704 0.0
H526 H 0.99653 0.4666 0.71525 0.0
H527 H 0.98586 0.43349 0.79113 0.0
H528 H 0.02229 0.51068 0.74643 0.0
H529 H 0.00646 0.49963 0.71653 0.0
H530 H 0.01304 0.52468 0.78589 0.0
H531 H 0.97271 0.54284 0.76205 0.0
H532 H 0.98013 0.50544 0.70669 0.0
C533 C 0.99794 0.48033 0.78411 0.0
C534 C 0.99358 0.463 0.79754 0.0
C535 C 0.99868 0.48178 0.75427 0.0
C536 C 0.9951 0.4655 0.73806 0.0
C537 C 0.99099 0.44822 0.7514 0.0
C538 C 0.98971 0.44704 0.78092 0.0
C539 C 0.00654 0.50129 0.73992 0.0
C540 C 0.99606 0.51193 0.74709 0.0
C541 C 1.00156 0.5236 0.77184 0.0
C542 C 0.99345 0.53509 0.77725 0.0
C543 C 0.97933 0.53428 0.7581 0.0
C544 C 0.97513 0.52441 0.73228 0.0
C545 C 0.98308 0.5128 0.72697 0.0
H546 H 0.49788 0.48507 0.79733 0.0
H547 H 0.48277 0.48424 0.70891 0.0
H548 H 0.43784 0.45073 0.76885 0.0
H549 H 0.52236 0.49449 0.75706 0.0
H550 H 0.51614 0.49948 0.72288 0.0
H551 H 0.51118 0.51717 0.79529 0.0
H552 H 0.5625 0.57354 0.78383 0.0
H553 H 0.54169 0.53177 0.71665 0.0
C554 C 0.4869 0.48111 0.78052 0.0
C555 C 0.467 0.46848 0.78649 0.0
C556 C 0.49267 0.48815 0.75284 0.0
C557 C 0.47835 0.48052 0.73068 0.0
C558 C 0.45859 0.4667 0.73624 0.0
C559 C 0.45296 0.46169 0.76437 0.0
C560 C 0.51433 0.50059 0.74596 0.0
C561 C 0.52458 0.5219 0.75465 0.0
C562 C 0.52274 0.52747 0.78209 0.0
C563 C 0.53664 0.54585 0.79354 0.0
C564 C 0.5511 0.55955 0.7756 0.0
C565 C 0.55253 0.55479 0.74762 0.0
C566 C 0.53957 0.53585 0.7375 0.0
H567 H 0.7024 0.86646 0.55139 0.0
H568 H 0.7145 0.88505 0.63884 0.0
H569 H 0.68139 0.90112 0.58431 0.0
H570 H 0.73511 0.87423 0.58463 0.0
H571 H 0.72964 0.86902 0.62092 0.0
H572 H 0.71382 0.84785 0.54675 0.0
H573 H 0.69663 0.7908 0.57309 0.0
H574 H 0.71637 0.83633 0.63557 0.0
C575 C 0.7002 0.87303 0.56957 0.0
C576 C 0.68989 0.88263 0.56547 0.0
C577 C 0.70869 0.87317 0.59621 0.0
C578 C 0.70707 0.88375 0.6187 0.0
C579 C 0.69705 0.89377 0.61471 0.0
C580 C 0.6881 0.89257 0.58821 0.0
C581 C 0.72279 0.86576 0.59926 0.0
C582 C 0.71403 0.84434 0.59237 0.0
C583 C 0.71039 0.83781 0.56395 0.0
C584 C 0.70319 0.81833 0.55736 0.0
C585 C 0.70093 0.8055 0.57889 0.0
C586 C 0.70621 0.81188 0.60707 0.0
C587 C 0.71222 0.83124 0.61386 0.0
H588 H 0.20329 0.84776 0.56255 0.0
H589 H 0.18778 0.85038 0.64861 0.0
H590 H 0.21546 0.90182 0.59875 0.0
H591 H 0.19302 0.82034 0.59484 0.0
H592 H 0.18601 0.82131 0.63016 0.0
H593 H 0.16904 0.82139 0.55413 0.0
H594 H 0.10894 0.7785 0.57119 0.0
H595 H 0.1522 0.79961 0.63896 0.0
C596 C 0.20212 0.85593 0.57971 0.0
C597 C 0.21102 0.87619 0.57752 0.0
C598 C 0.1927 0.84627 0.60484 0.0
C599 C 0.19334 0.8573 0.62842 0.0
C600 C 0.20227 0.87746 0.62622 0.0
C601 C 0.20948 0.88634 0.60025 0.0
C602 C 0.18441 0.82468 0.60773 0.0
C603 C 0.16305 0.81258 0.59792 0.0
C604 C 0.15785 0.81239 0.56909 0.0
C605 C 0.13839 0.79995 0.55928 0.0
C606 C 0.12405 0.78799 0.57856 0.0
C607 C 0.12888 0.7878 0.60717 0.0
C608 C 0.14841 0.80002 0.61687 0.0
H609 H 0.16739 0.29999 0.56339 0.0
H610 H 0.18374 0.30037 0.65103 0.0
H611 H 0.22504 0.3115 0.58597 0.0
H612 H 0.14231 0.28439 0.60144 0.0
H613 H 0.1501 0.28889 0.63779 0.0
H614 H 0.15747 0.32032 0.57248 0.0
H615 H 0.13159 0.34897 0.6117 0.0
H616 H 0.13572 0.30478 0.65673 0.0
C617 C 0.17843 0.30259 0.57948 0.0
C618 C 0.19709 0.3069 0.57116 0.0
C619 C 0.17375 0.30118 0.60826 0.0
C620 C 0.18753 0.30247 0.62887 0.0
C621 C 0.20569 0.30523 0.62068 0.0
C622 C 0.21055 0.30811 0.59197 0.0
C623 C 0.15318 0.29566 0.61648 0.0
C624 C 0.14943 0.31234 0.61614 0.0
C625 C 0.15173 0.32297 0.59123 0.0
C626 C 0.14505 0.336 0.58942 0.0
C627 C 0.13675 0.33896 0.61321 0.0
C628 C 0.13246 0.32724 0.63725 0.0
C629 C 0.13945 0.3144 0.63883 0.0
H630 H 0.00993 0.42026 0.11778 0.0
H631 H 0.95798 0.424 0.10284 0.0
H632 H 0.96768 0.44661 0.14309 0.0
H633 H 0.00838 0.4209 0.1942 0.0
H634 H 0.03474 0.4352 0.19919 0.0
H635 H 0.02408 0.4196 0.16855 0.0
H636 H 0.04459 0.44889 0.13584 0.0
H637 H 0.05525 0.4646 0.16639 0.0
H638 H 0.04283 0.47016 0.13898 0.0
H639 H 0.98307 0.46936 0.18427 0.0
H640 H 1.00198 0.48853 0.22674 0.0
H641 H 0.04323 0.46939 0.21629 0.0
C642 C 1.00062 0.42583 0.12302 0.0
C643 C 0.98321 0.42033 0.10707 0.0
C644 C 0.97135 0.42788 0.11475 0.0
C645 C 0.97676 0.44085 0.13752 0.0
C646 C 0.99401 0.44607 0.15269 0.0
C647 C 0.00567 0.43866 0.14603 0.0
C648 C 0.02312 0.4462 0.16652 0.0
C649 C 0.02253 0.42948 0.1831 0.0
C650 C 0.0426 0.45818 0.151 0.0
C651 C 0.01937 0.45893 0.1856 0.0
C652 C 1.00262 0.45881 0.17706 0.0
C653 C 0.9962 0.46955 0.19127 0.0
C654 C 0.00704 0.48045 0.21523 0.0
C655 C 0.02392 0.48031 0.22481 0.0
C656 C 0.03023 0.46957 0.20955 0.0
H657 H 0.59959 0.59685 0.09608 0.0
H658 H 0.62943 0.56496 0.08794 0.0
H659 H 0.61238 0.54553 0.12943 0.0
H660 H 0.60059 0.59754 0.17416 0.0
H661 H 0.57663 0.59463 0.17605 0.0
H662 H 0.59192 0.60678 0.14629 0.0
H663 H 0.56372 0.58269 0.11222 0.0
H664 H 0.5485 0.57024 0.14191 0.0
H665 H 0.55352 0.557 0.11629 0.0
H666 H 0.59093 0.52811 0.16971 0.0
H667 H 0.56926 0.51658 0.21087 0.0
H668 H 0.55316 0.55944 0.19381 0.0
C669 C 0.60281 0.58605 0.1034 0.0
C670 C 0.61579 0.5824 0.08863 0.0
C671 C 0.61946 0.56798 0.09875 0.0
C672 C 0.60981 0.55679 0.12229 0.0
C673 C 0.59658 0.56021 0.13571 0.0
C674 C 0.59328 0.57468 0.12707 0.0
C675 C 0.57824 0.57521 0.1455 0.0
C676 C 0.5874 0.5947 0.16145 0.0
C677 C 0.55991 0.57103 0.12792 0.0
C678 C 0.5736 0.55872 0.16558 0.0
C679 C 0.58425 0.55019 0.15938 0.0
C680 C 0.58251 0.53467 0.17488 0.0
C681 C 0.57 0.52807 0.19801 0.0
C682 C 0.55948 0.53705 0.20544 0.0
C683 C 0.56106 0.55233 0.18861 0.0
H684 H 0.46292 0.0072 0.08125 0.0
H685 H 0.42256 0.02651 0.09893 0.0
H686 H 0.43081 0.0281 0.14996 0.0
H687 H 0.45237 0.9768 0.1374 0.0
H688 H 0.4771 0.98263 0.14558 0.0
H689 H 0.47043 0.98565 0.1101 0.0
H690 H 0.49866 0.02164 0.11107 0.0
H691 H 0.50553 0.01871 0.14657 0.0
H692 H 0.50015 0.0374 0.1392 0.0
H693 H 0.43758 0.02063 0.1982 0.0
H694 H 0.44616 0.00978 0.24114 0.0
H695 H 0.48651 0.99992 0.19379 0.0
C696 C 0.45627 0.01231 0.09581 0.0
C697 C 0.44208 0.01672 0.08616 0.0
C698 C 0.43358 0.02323 0.10581 0.0
C699 C 0.43813 0.02412 0.13485 0.0
C700 C 0.4516 0.01896 0.14377 0.0
C701 C 0.461 0.01371 0.12484 0.0
C702 C 0.47418 0.00799 0.14025 0.0
C703 C 0.46814 0.98703 0.13289 0.0
C704 C 0.49592 0.0223 0.13389 0.0
C705 C 0.46984 0.00982 0.1708 0.0
C706 C 0.45678 0.01616 0.17221 0.0
C707 C 0.44854 0.01658 0.19756 0.0
C708 C 0.45384 0.01052 0.22218 0.0
C709 C 0.46783 0.00458 0.22182 0.0
C710 C 0.47599 0.00447 0.19546 0.0
H711 H 0.44566 0.9957 0.9212 0.0
H712 H 0.4443 0.04824 0.93273 0.0
H713 H 0.45749 0.05885 0.88474 0.0
H714 H 0.48997 0.01599 0.87735 0.0
H715 H 0.47894 0.99433 0.85564 0.0
H716 H 0.4726 0.99283 0.89232 0.0
H717 H 0.43573 0.97565 0.87654 0.0
H718 H 0.44241 0.9776 0.84004 0.0
H719 H 0.42798 0.98749 0.8516 0.0
H720 H 0.46767 0.06205 0.83382 0.0
H721 H 0.47205 0.0567 0.78366 0.0
H722 H 0.46613 1.00179 0.80577 0.0
C723 C 0.44858 0.00968 0.91398 0.0
C724 C 0.44416 0.02125 0.93085 0.0
C725 C 0.44769 0.03919 0.92023 0.0
C726 C 0.45527 0.04537 0.89307 0.0
C727 C 0.45922 0.03344 0.87685 0.0
C728 C 0.45592 0.01594 0.88693 0.0
C729 C 0.45923 0.00476 0.86437 0.0
C730 C 0.47622 1.00183 0.87297 0.0
C731 C 0.44021 0.98523 0.85775 0.0
C732 C 0.4647 0.01858 0.83983 0.0
C733 C 0.46482 0.03515 0.84748 0.0
C734 C 0.46791 0.04928 0.82772 0.0
C735 C 0.47038 0.04613 0.79932 0.0
C736 C 0.46966 0.02895 0.79095 0.0
C737 C 0.46731 0.01531 0.81167 0.0
H738 H 0.99805 0.41314 0.94079 0.0
H739 H 0.96245 0.43353 0.97708 0.0
H740 H 0.96705 0.45322 0.93475 0.0
H741 H 0.03241 0.45859 0.90243 0.0
H742 H 0.0331 0.44543 0.87219 0.0
H743 H 0.02953 0.43509 0.90706 0.0
H744 H 0.99744 0.40436 0.88905 0.0
H745 H 1.00093 0.41461 0.85423 0.0
H746 H 0.97834 0.40689 0.87223 0.0
H747 H 0.97253 0.46816 0.88686 0.0
H748 H 0.97713 0.47565 0.83574 0.0
H749 H 0.00914 0.44581 0.83012 0.0
C750 C 0.99166 0.42212 0.94004 0.0
C751 C 0.97998 0.42187 0.96226 0.0
C752 C 0.97143 0.43346 0.96026 0.0
C753 C 0.97406 0.44482 0.93638 0.0
C754 C 0.98527 0.44448 0.91454 0.0
C755 C 0.99394 0.43343 0.91607 0.0
C756 C 1.00362 0.43419 0.88846 0.0
C757 C 0.026 0.44391 0.8928 0.0
C758 C 0.99453 0.4138 0.87522 0.0
C759 C 0.99846 0.44682 0.87103 0.0
C760 C 0.98819 0.45291 0.8866 0.0
C761 C 0.9808 0.46372 0.87451 0.0
C762 C 0.98354 0.46798 0.8455 0.0
C763 C 0.99338 0.46124 0.82892 0.0
C764 C 1.00141 0.45105 0.8422 0.0
H765 H 0.59787 0.60816 0.92663 0.0
H766 H 0.57766 0.55311 0.96796 0.0
H767 H 0.55167 0.5365 0.93133 0.0
H768 H 0.54705 0.59563 0.89645 0.0
H769 H 0.55775 0.60814 0.86398 0.0
H770 H 0.5716 0.61669 0.89699 0.0
H771 H 0.59995 0.61456 0.87521 0.0
H772 H 0.58621 0.60596 0.84233 0.0
H773 H 0.59482 0.59187 0.86012 0.0
H774 H 0.53379 0.52497 0.88659 0.0
H775 H 0.52501 0.51896 0.83656 0.0
H776 H 0.55345 0.58117 0.82285 0.0
C777 C 0.58742 0.59275 0.92841 0.0
C778 C 0.58963 0.58188 0.95009 0.0
C779 C 0.57617 0.56165 0.95145 0.0
C780 C 0.56124 0.55211 0.93088 0.0
C781 C 0.55986 0.56299 0.90905 0.0
C782 C 0.57241 0.5829 0.90769 0.0
C783 C 0.56945 0.59054 0.87975 0.0
C784 C 0.56095 0.60352 0.88459 0.0
C785 C 0.58875 0.60136 0.8634 0.0
C786 C 0.55442 0.57168 0.86499 0.0
C787 C 0.5488 0.55608 0.88263 0.0
C788 C 0.53745 0.53706 0.87279 0.0
C789 C 0.53233 0.53382 0.84396 0.0
C790 C 0.53832 0.54952 0.82495 0.0
C791 C 0.54871 0.56869 0.83625 0.0
H792 H 0.02949 0.57861 0.93509 0.0
H793 H 0.02353 0.6266 0.90745 0.0
H794 H 0.01458 0.61259 0.85905 0.0
H795 H 0.04856 0.57134 0.87089 0.0
H796 H 0.03431 0.54524 0.87231 0.0
H797 H 0.0413 0.55936 0.9046 0.0
H798 H 1.00474 0.54219 0.91853 0.0
H799 H 0.99768 0.5279 0.88642 0.0
H800 H 0.98697 0.54221 0.89418 0.0
H801 H 0.0087 0.595 0.81382 0.0
H802 H 1.0 0.5718 0.7749 0.0
H803 H 0.005 0.53225 0.83234 0.0
C804 C 0.0263 0.58609 0.91872 0.0
C805 C 0.02733 0.60374 0.92464 0.0
C806 C 0.02278 0.61307 0.90311 0.0
C807 C 0.01783 0.6053 0.87562 0.0
C808 C 0.01707 0.58797 0.87031 0.0
C809 C 0.0207 0.57819 0.8913 0.0
C810 C 0.01744 0.55909 0.88013 0.0
C811 C 0.03654 0.55875 0.8821 0.0
C812 C 1.00071 0.54183 0.89574 0.0
C813 C 0.01157 0.5598 0.84953 0.0
C814 C 0.01188 0.57682 0.84439 0.0
C815 C 0.00787 0.58138 0.8177 0.0
C816 C 1.00274 0.56794 0.79577 0.0
C817 C 1.00097 0.54973 0.80069 0.0
C818 C 0.00594 0.54586 0.8279 0.0
H819 H 0.39607 0.43387 0.91759 0.0
H820 H 0.41758 0.39597 0.94031 0.0
H821 H 0.44076 0.40908 0.90071 0.0
H822 H 0.39781 0.42882 0.84169 0.0
H823 H 0.40484 0.45357 0.83495 0.0
H824 H 0.39028 0.44117 0.86518 0.0
H825 H 0.41637 0.46875 0.89794 0.0
H826 H 0.43119 0.48104 0.86785 0.0
H827 H 0.4416 0.47488 0.89739 0.0
H828 H 0.46278 0.42775 0.85977 0.0
H829 H 0.47807 0.44659 0.81639 0.0
H830 H 0.44074 0.47076 0.81948 0.0
C831 C 0.40557 0.42823 0.91412 0.0
C832 C 0.40511 0.41397 0.93204 0.0
C833 C 0.41763 0.40682 0.9267 0.0
C834 C 0.43095 0.41431 0.90444 0.0
C835 C 0.43134 0.42871 0.88755 0.0
C836 C 0.41867 0.43528 0.89179 0.0
C837 C 0.42137 0.45022 0.87 0.0
C838 C 0.40245 0.44301 0.85188 0.0
C839 C 0.42803 0.46989 0.88415 0.0
C840 C 0.43763 0.45115 0.85288 0.0
C841 C 0.44342 0.43887 0.86355 0.0
C842 C 0.45831 0.43736 0.85121 0.0
C843 C 0.46704 0.44822 0.82681 0.0
C844 C 0.46065 0.46018 0.81495 0.0
C845 C 0.44597 0.46184 0.8284 0.0
H846 H 0.58089 0.9873 0.89324 0.0
H847 H 0.55111 0.00735 0.94597 0.0
H848 H 0.52779 1.00177 0.90671 0.0
H849 H 0.58017 0.01086 0.83352 0.0
H850 H 0.57594 0.9924 0.80811 0.0
H851 H 0.58771 0.99382 0.84173 0.0
H852 H 0.56118 0.95805 0.85176 0.0
H853 H 0.54936 0.95648 0.81796 0.0
H854 H 0.53553 0.95053 0.84997 0.0
H855 H 0.51211 1.00025 0.86058 0.0
H856 H 0.50413 1.00185 0.81022 0.0
H857 H 0.54272 0.98149 0.78642 0.0
C858 C 0.56895 0.98972 0.89669 0.0
C859 C 0.56759 0.99753 0.92261 0.0
C860 C 0.55226 1.00125 0.92623 0.0
C861 C 0.5389 0.99806 0.90412 0.0
C862 C 0.54099 0.99108 0.87841 0.0
C863 C 0.55548 0.98675 0.87456 0.0
C864 C 0.55588 0.98167 0.84377 0.0
C865 C 0.57612 0.99552 0.83105 0.0
C866 C 0.55014 0.96042 0.84069 0.0
C867 C 0.5401 0.9848 0.8309 0.0
C868 C 0.5315 0.98991 0.85134 0.0
C869 C 0.51815 0.9956 0.84434 0.0
C870 C 0.51368 0.99644 0.81564 0.0
C871 C 0.52272 0.99177 0.79421 0.0
C872 C 0.53558 0.98524 0.80219 0.0
H873 H 0.58418 0.98329 0.08153 0.0
H874 H 0.56873 0.02526 0.05459 0.0
H875 H 0.54928 0.01884 0.09731 0.0
H876 H 0.53741 0.94915 0.11431 0.0
H877 H 0.54893 0.94396 0.14347 0.0
H878 H 0.56054 0.95062 0.10959 0.0
H879 H 0.59225 0.97872 0.13349 0.0
H880 H 0.58076 0.97213 0.16741 0.0
H881 H 0.59079 0.99646 0.15456 0.0
H882 H 0.53238 0.00893 0.14316 0.0
H883 H 0.52096 0.99764 0.19155 0.0
H884 H 0.54773 0.96263 0.18985 0.0
C885 C 0.57654 0.99096 0.08455 0.0
C886 C 0.57795 0.00474 0.06474 0.0
C887 C 0.56796 0.0147 0.06957 0.0
C888 C 0.55675 0.01108 0.09368 0.0
C889 C 0.55574 0.99754 0.1129 0.0
C890 C 0.56545 0.98772 0.10882 0.0
C891 C 0.56289 0.97483 0.13381 0.0
C892 C 0.55178 0.95337 0.12474 0.0
C893 C 0.58286 0.98091 0.14816 0.0
C894 C 0.55048 0.97921 0.15259 0.0
C895 C 0.5463 0.99213 0.13992 0.0
C896 C 0.53545 0.99872 0.15332 0.0
C897 C 0.52895 0.99217 0.18072 0.0
C898 C 0.53351 0.97932 0.19444 0.0
C899 C 0.54418 0.97258 0.17995 0.0
H900 H 0.0614 0.60542 0.08335 0.0
H901 H 1.00196 0.59442 0.0764 0.0
H902 H 0.99409 0.57679 0.12173 0.0
H903 H 0.04908 0.55935 0.11682 0.0
H904 H 0.07077 0.57071 0.13958 0.0
H905 H 0.07117 0.58072 0.10522 0.0
H906 H 0.08229 0.614 0.12854 0.0
H907 H 0.08206 0.60413 0.16286 0.0
H908 H 0.06782 0.61531 0.15624 0.0
H909 H 0.99342 0.56254 0.16921 0.0
H910 H 1.00056 0.55448 0.2168 0.0
H911 H 0.06049 0.57503 0.19307 0.0
C912 C 0.04662 0.59907 0.0911 0.0
C913 C 0.03225 0.60122 0.07621 0.0
C914 C 0.0132 0.59294 0.08738 0.0
C915 C 0.00856 0.5828 0.11303 0.0
C916 C 0.02311 0.58104 0.1272 0.0
C917 C 0.04178 0.58901 0.11669 0.0
C918 C 0.0552 0.58639 0.13707 0.0
C919 C 0.06195 0.57352 0.12388 0.0
C920 C 0.07288 0.60613 0.14675 0.0
C921 C 0.0413 0.57613 0.16106 0.0
C922 C 0.02278 0.57293 0.15474 0.0
C923 C 0.00778 0.56475 0.17425 0.0
C924 C 0.01196 0.56023 0.20119 0.0
C925 C 0.03101 0.56399 0.20842 0.0
C926 C 0.0457 0.57159 0.18784 0.0
H927 H 0.40339 0.43541 0.09348 0.0
H928 H 0.42085 0.39499 0.06867 0.0
H929 H 0.44486 0.40635 0.10902 0.0
H930 H 0.451 0.47451 0.11778 0.0
H931 H 0.44135 0.48066 0.14738 0.0
H932 H 0.42638 0.47014 0.11572 0.0
H933 H 0.39903 0.44244 0.1452 0.0
H934 H 0.41377 0.45307 0.17694 0.0
H935 H 0.4051 0.42819 0.16788 0.0
H936 H 0.4671 0.42243 0.15234 0.0
H937 H 0.48205 0.43831 0.19869 0.0
H938 H 0.44866 0.46679 0.19578 0.0
C939 C 0.41233 0.429 0.09646 0.0
C940 C 0.41039 0.41442 0.07787 0.0
C941 C 0.42209 0.40615 0.08273 0.0
C942 C 0.43587 0.41263 0.10542 0.0
C943 C 0.43759 0.42723 0.12315 0.0
C944 C 0.42587 0.43505 0.11917 0.0
C945 C 0.42951 0.44955 0.14228 0.0
C946 C 0.43754 0.46992 0.13005 0.0
C947 C 0.41074 0.4429 0.15907 0.0
C948 C 0.44505 0.44862 0.16004 0.0
C949 C 0.44981 0.43595 0.14843 0.0
C950 C 0.46353 0.43244 0.16154 0.0
C951 C 0.47208 0.44161 0.18766 0.0
C952 C 0.46661 0.45386 0.2004 0.0
C953 C 0.45325 0.45768 0.18614 0.0
H954 H 0.64124 0.74319 0.4338 0.0
H955 H 0.69632 0.76273 0.39196 0.0
H956 H 0.71401 0.78784 0.42921 0.0
H957 H 0.65124 0.78961 0.458 0.0
H958 H 0.63979 0.78075 0.49166 0.0
H959 H 0.63134 0.7648 0.4612 0.0
H960 H 0.63734 0.74035 0.48856 0.0
H961 H 0.64546 0.75607 0.51921 0.0
H962 H 0.66122 0.74861 0.50462 0.0
H963 H 0.72549 0.81134 0.47068 0.0
H964 H 0.73051 0.82803 0.51689 0.0
H965 H 0.66824 0.79177 0.53254 0.0
C966 C 0.65703 0.75276 0.43249 0.0
C967 C 0.66743 0.75113 0.40996 0.0
C968 C 0.68811 0.76371 0.40914 0.0
C969 C 0.69824 0.77811 0.43004 0.0
C970 C 0.68748 0.77954 0.45175 0.0
C971 C 0.66739 0.76694 0.45341 0.0
C972 C 0.65943 0.77069 0.4798 0.0
C973 C 0.64457 0.77683 0.47219 0.0
C974 C 0.65034 0.75288 0.49919 0.0
C975 C 0.67817 0.78738 0.49278 0.0
C976 C 0.69416 0.79252 0.47606 0.0
C977 C 0.71308 0.80746 0.48391 0.0
C978 C 0.71579 0.81695 0.50997 0.0
C979 C 0.6997 0.81125 0.52782 0.0
C980 C 0.68067 0.79651 0.51893 0.0
H981 H 0.25047 0.89977 0.41831 0.0
H982 H 0.29324 0.95776 0.44881 0.0
H983 H 0.27929 0.94891 0.49658 0.0
H984 H 0.20965 0.89488 0.46093 0.0
H985 H 0.19949 0.86935 0.46674 0.0
H986 H 0.21248 0.88039 0.43475 0.0
H987 H 0.23578 0.86765 0.44564 0.0
H988 H 0.22307 0.85683 0.47787 0.0
H989 H 0.24925 0.87382 0.47902 0.0
H990 H 0.26432 0.93257 0.54141 0.0
H991 H 0.24473 0.91217 0.58024 0.0
H992 H 0.20762 0.86571 0.52035 0.0
C993 C 0.25666 0.91064 0.43503 0.0
C994 C 0.27296 0.92943 0.43012 0.0
C995 C 0.28069 0.94336 0.45225 0.0
C996 C 0.27294 0.93842 0.47941 0.0
C997 C 0.25718 0.91966 0.48375 0.0
C998 C 0.2487 0.90613 0.46209 0.0
C999 C 0.23151 0.88714 0.47255 0.0
C1000 C 0.21213 0.88268 0.45787 0.0
C1001 C 0.23513 0.87037 0.46853 0.0
C1002 C 0.23203 0.89198 0.50369 0.0
C1003 C 0.24718 0.91073 0.50956 0.0
C1004 C 0.25189 0.91816 0.53695 0.0
C1005 C 0.2404 0.90639 0.5589 0.0
C1006 C 0.22378 0.88752 0.55346 0.0
C1007 C 0.21986 0.88013 0.52536 0.0
H1008 H 0.08569 0.3144 0.4455 0.0
H1009 H 0.09602 0.37269 0.44815 0.0
H1010 H 0.11912 0.38043 0.48922 0.0
H1011 H 0.0849 0.30726 0.51853 0.0
H1012 H 0.0968 0.29347 0.51702 0.0
H1013 H 0.08251 0.29357 0.48704 0.0
H1014 H 0.11274 0.30529 0.45524 0.0
H1015 H 0.12723 0.30555 0.48535 0.0
H1016 H 0.1356 0.32716 0.46467 0.0
H1017 H 0.13913 0.38044 0.53284 0.0
H1018 H 0.1524 0.37233 0.57515 0.0
H1019 H 0.12903 0.31432 0.54156 0.0
C1020 C 0.09282 0.32889 0.45449 0.0
C1021 C 0.08894 0.34293 0.44362 0.0
C1022 C 0.09873 0.36168 0.45612 0.0
C1023 C 0.11194 0.36622 0.47934 0.0
C1024 C 0.11538 0.35192 0.48946 0.0
C1025 C 0.10606 0.33365 0.47728 0.0
C1026 C 0.11127 0.3204 0.49264 0.0
C1027 C 0.09278 0.30264 0.50452 0.0
C1028 C 0.12237 0.31425 0.47332 0.0
C1029 C 0.12462 0.33385 0.51602 0.0
C1030 C 0.12704 0.35205 0.5138 0.0
C1031 C 0.13754 0.36633 0.53446 0.0
C1032 C 0.14508 0.36163 0.55838 0.0
C1033 C 0.14203 0.34278 0.56146 0.0
C1034 C 0.13221 0.32903 0.53946 0.0
H1035 H 0.08827 0.35847 0.28554 0.0
H1036 H 0.07158 0.29883 0.30151 0.0
H1037 H 0.08632 0.29801 0.25691 0.0
H1038 H 0.07833 0.35286 0.21109 0.0
H1039 H 0.09903 0.37627 0.20219 0.0
H1040 H 0.08793 0.37268 0.2362 0.0
H1041 H 0.12174 0.3847 0.26118 0.0
H1042 H 0.13294 0.38831 0.22721 0.0
H1043 H 0.13525 0.37312 0.25315 0.0
H1044 H 0.10098 0.30264 0.2096 0.0
H1045 H 0.11468 0.31266 0.16207 0.0
H1046 H 0.12363 0.36977 0.17716 0.0
C1047 C 0.08783 0.34529 0.27972 0.0
C1048 C 0.07875 0.32874 0.29714 0.0
C1049 C 0.07844 0.31175 0.28865 0.0
C1050 C 0.08683 0.31111 0.26333 0.0
C1051 C 0.0956 0.3276 0.24666 0.0
C1052 C 0.09624 0.3444 0.25443 0.0
C1053 C 0.10618 0.35987 0.2321 0.0
C1054 C 0.09202 0.36576 0.21967 0.0
C1055 C 0.12516 0.37754 0.24414 0.0
C1056 C 0.11065 0.34896 0.21048 0.0
C1057 C 0.10449 0.3304 0.21938 0.0
C1058 C 0.10616 0.31725 0.20251 0.0
C1059 C 0.11414 0.32314 0.17559 0.0
C1060 C 0.12043 0.34207 0.16583 0.0
C1061 C 0.1189 0.35517 0.18386 0.0
H1062 H 0.61566 0.72852 0.25405 0.0
H1063 H 0.67837 0.7627 0.27275 0.0
H1064 H 0.68276 0.78334 0.2312 0.0
H1065 H 0.62058 0.72814 0.17894 0.0
H1066 H 0.59869 0.72877 0.17093 0.0
H1067 H 0.60061 0.71799 0.20333 0.0
H1068 H 0.59356 0.74102 0.23179 0.0
H1069 H 0.59205 0.75214 0.19942 0.0
H1070 H 0.60906 0.76687 0.22744 0.0
H1071 H 0.68009 0.80035 0.18782 0.0
H1072 H 0.67185 0.80839 0.14088 0.0
H1073 H 0.61134 0.7615 0.14869 0.0
C1074 C 0.6303 0.7404 0.24939 0.0
C1075 C 0.64668 0.74418 0.2666 0.0
C1076 C 0.66567 0.75959 0.25969 0.0
C1077 C 0.66825 0.77148 0.23636 0.0
C1078 C 0.65172 0.76755 0.22001 0.0
C1079 C 0.63318 0.75208 0.22584 0.0
C1080 C 0.61815 0.74978 0.20346 0.0
C1081 C 0.60898 0.73 0.18827 0.0
C1082 C 0.60227 0.75263 0.21631 0.0
C1083 C 0.63112 0.7663 0.184 0.0
C1084 C 0.65034 0.77669 0.19428 0.0
C1085 C 0.66509 0.79235 0.17961 0.0
C1086 C 0.66025 0.79695 0.15315 0.0
C1087 C 0.64094 0.78569 0.14149 0.0
C1088 C 0.62612 0.77052 0.15745 0.0
H1089 H 0.26801 0.90019 0.27981 0.0
H1090 H 0.27936 0.95852 0.26927 0.0
H1091 H 0.26393 0.94951 0.22115 0.0
H1092 H 0.28009 0.89458 0.21209 0.0
H1093 H 0.26144 0.86921 0.20888 0.0
H1094 H 0.2712 0.87977 0.24328 0.0
H1095 H 0.23592 0.86793 0.25991 0.0
H1096 H 0.22605 0.85739 0.2254 0.0
H1097 H 0.22075 0.87466 0.24017 0.0
H1098 H 0.25024 0.9347 0.17227 0.0
H1099 H 0.24018 0.91586 0.12736 0.0
H1100 H 0.23813 0.86758 0.17118 0.0
C1101 C 0.26705 0.91107 0.26764 0.0
C1102 C 0.27492 0.93009 0.27833 0.0
C1103 C 0.27338 0.94384 0.26156 0.0
C1104 C 0.26459 0.93883 0.23426 0.0
C1105 C 0.25725 0.91997 0.22427 0.0
C1106 C 0.25833 0.90631 0.2406 0.0
C1107 C 0.2507 0.88747 0.22456 0.0
C1108 C 0.26682 0.88248 0.22205 0.0
C1109 C 0.23226 0.87089 0.23834 0.0
C1110 C 0.24569 0.89277 0.19622 0.0
C1111 C 0.24932 0.91148 0.19646 0.0
C1112 C 0.24708 0.91996 0.17201 0.0
C1113 C 0.24141 0.90917 0.14661 0.0
C1114 C 0.23815 0.89017 0.14586 0.0
C1115 C 0.23994 0.88182 0.17119 0.0
H1116 H 0.67702 0.93784 0.23408 0.0
H1117 H 0.68732 0.89941 0.2859 0.0
H1118 H 0.67752 0.87658 0.24548 0.0
H1119 H 0.63546 0.90112 0.19212 0.0
H1120 H 0.64344 0.91464 0.15969 0.0
H1121 H 0.64984 0.92725 0.19327 0.0
H1122 H 0.68675 0.94513 0.1809 0.0
H1123 H 0.68044 0.93253 0.14734 0.0
H1124 H 0.6976 0.93121 0.17144 0.0
H1125 H 0.66593 0.85767 0.19983 0.0
H1126 H 0.65516 0.84478 0.15132 0.0
H1127 H 0.65684 0.89771 0.12753 0.0
C1128 C 0.67691 0.92447 0.23688 0.0
C1129 C 0.68261 0.92014 0.26302 0.0
C1130 C 0.68285 0.90282 0.26594 0.0
C1131 C 0.67731 0.8898 0.24317 0.0
C1132 C 0.67197 0.89453 0.21749 0.0
C1133 C 0.67194 0.91154 0.21409 0.0
C1134 C 0.66677 0.91367 0.18375 0.0
C1135 C 0.64775 0.9142 0.18212 0.0
C1136 C 0.68392 0.9317 0.17006 0.0
C1137 C 0.66374 0.89515 0.1708 0.0
C1138 C 0.66658 0.88422 0.19067 0.0
C1139 C 0.66389 0.86621 0.18394 0.0
C1140 C 0.65795 0.8591 0.15616 0.0
C1141 C 0.65509 0.87011 0.13522 0.0
C1142 C 0.6584 0.88856 0.14283 0.0
H1143 H 0.07569 0.77458 0.23314 0.0
H1144 H 0.09652 0.74148 0.27813 0.0
H1145 H 0.1234 0.75243 0.24407 0.0
H1146 H 0.08575 0.7645 0.16246 0.0
H1147 H 0.09267 0.78823 0.14966 0.0
H1148 H 0.07507 0.77734 0.17736 0.0
H1149 H 0.09675 0.80765 0.20908 0.0
H1150 H 0.11463 0.81844 0.1817 0.0
H1151 H 0.12205 0.81515 0.21662 0.0
H1152 H 0.1493 0.76889 0.20666 0.0
H1153 H 0.16886 0.78507 0.1643 0.0
H1154 H 0.13009 0.80619 0.14313 0.0
C1155 C 0.08576 0.76943 0.23563 0.0
C1156 C 0.08407 0.75721 0.25829 0.0
C1157 C 0.09747 0.75072 0.26078 0.0
C1158 C 0.11288 0.75702 0.24172 0.0
C1159 C 0.11448 0.76957 0.22012 0.0
C1160 C 0.101 0.77534 0.21662 0.0
C1161 C 0.10559 0.78841 0.19126 0.0
C1162 C 0.08878 0.77906 0.16886 0.0
C1163 C 0.11002 0.80861 0.20022 0.0
C1164 C 0.12388 0.78926 0.18111 0.0
C1165 C 0.12896 0.77853 0.19823 0.0
C1166 C 0.14542 0.77727 0.19306 0.0
C1167 C 0.15656 0.78667 0.16919 0.0
C1168 C 0.15102 0.79696 0.15072 0.0
C1169 C 0.13469 0.79852 0.15709 0.0
H1170 H 0.26299 0.33886 0.25178 0.0
H1171 H 0.25082 0.37642 0.30126 0.0
H1172 H 0.22944 0.37619 0.26271 0.0
H1173 H 0.26652 0.36193 0.18611 0.0
H1174 H 0.25508 0.34001 0.165 0.0
H1175 H 0.26802 0.3414 0.19755 0.0
H1176 H 0.23681 0.31079 0.21579 0.0
H1177 H 0.22376 0.30933 0.18326 0.0
H1178 H 0.21398 0.31037 0.21679 0.0
H1179 H 0.21062 0.37345 0.21842 0.0
H1180 H 0.19714 0.36974 0.16954 0.0
H1181 H 0.2216 0.33455 0.14779 0.0
C1182 C 0.25559 0.34678 0.25455 0.0
C1183 C 0.25859 0.35764 0.27955 0.0
C1184 C 0.24888 0.36809 0.28224 0.0
C1185 C 0.23657 0.36797 0.26053 0.0
C1186 C 0.2341 0.3574 0.23603 0.0
C1187 C 0.24337 0.34706 0.23276 0.0
C1188 C 0.23919 0.33807 0.20334 0.0
C1189 C 0.25834 0.34582 0.18705 0.0
C1190 C 0.22775 0.31582 0.2049 0.0
C1191 C 0.22647 0.34528 0.19066 0.0
C1192 C 0.22349 0.35617 0.21003 0.0
C1193 C 0.21271 0.36484 0.20305 0.0
C1194 C 0.20504 0.3626 0.17531 0.0
C1195 C 0.20837 0.35195 0.15485 0.0
C1196 C 0.21896 0.34293 0.1629 0.0
H1197 H 0.2635 0.32168 0.43784 0.0
H1198 H 0.24117 0.35635 0.40237 0.0
H1199 H 0.2175 0.34623 0.44067 0.0
H1200 H 0.2156 0.28189 0.46601 0.0
H1201 H 0.22715 0.27954 0.49782 0.0
H1202 H 0.24049 0.28702 0.4653 0.0
H1203 H 0.26846 0.31787 0.49059 0.0
H1204 H 0.2552 0.31053 0.52308 0.0
H1205 H 0.2627 0.33395 0.50836 0.0
H1206 H 0.1991 0.33586 0.48459 0.0
H1207 H 0.18724 0.32617 0.53293 0.0
H1208 H 0.22056 0.29752 0.54123 0.0
C1209 C 0.25326 0.32667 0.43789 0.0
C1210 C 0.25405 0.33971 0.41718 0.0
C1211 C 0.24079 0.34638 0.41815 0.0
C1212 C 0.22721 0.34063 0.43969 0.0
C1213 C 0.22705 0.32819 0.46024 0.0
C1214 C 0.23965 0.32123 0.45966 0.0
C1215 C 0.23755 0.30954 0.48602 0.0
C1216 C 0.22973 0.28823 0.47832 0.0
C1217 C 0.25714 0.31852 0.50301 0.0
C1218 C 0.22234 0.31165 0.50173 0.0
C1219 C 0.2163 0.32221 0.48619 0.0
C1220 C 0.20338 0.32723 0.49681 0.0
C1221 C 0.19663 0.32154 0.52431 0.0
C1222 C 0.20281 0.31095 0.54098 0.0
C1223 C 0.21558 0.30567 0.52918 0.0
H1224 H 0.71376 0.92934 0.4134 0.0
H1225 H 0.65718 0.92521 0.41208 0.0
H1226 H 0.64892 0.90673 0.45685 0.0
H1227 H 0.69705 0.88151 0.44203 0.0
H1228 H 0.7192 0.8899 0.46325 0.0
H1229 H 0.72006 0.90175 0.43041 0.0
H1230 H 0.73552 0.9348 0.4568 0.0
H1231 H 0.73495 0.9231 0.48956 0.0
H1232 H 0.7232 0.93702 0.48678 0.0
H1233 H 0.64792 0.8903 0.50341 0.0
H1234 H 0.65495 0.87909 0.54857 0.0
H1235 H 0.71203 0.89396 0.51812 0.0
C1236 C 0.69955 0.9245 0.42234 0.0
C1237 C 0.6861 0.92874 0.40918 0.0
C1238 C 0.66772 0.92214 0.42177 0.0
C1239 C 0.66287 0.91155 0.44709 0.0
C1240 C 0.6765 0.90758 0.45938 0.0
C1241 C 0.69448 0.91391 0.44738 0.0
C1242 C 0.70701 0.90867 0.46528 0.0
C1243 C 0.71106 0.89462 0.44928 0.0
C1244 C 0.7263 0.92698 0.4752 0.0
C1245 C 0.69349 0.89873 0.48968 0.0
C1246 C 0.67586 0.89803 0.48581 0.0
C1247 C 0.66157 0.89057 0.50646 0.0
C1248 C 0.66566 0.88422 0.53199 0.0
C1249 C 0.68392 0.88543 0.53666 0.0
C1250 C 0.69773 0.89233 0.51487 0.0
H1251 H 0.07532 0.74576 0.42005 0.0
H1252 H 0.09288 0.80243 0.3861 0.0
H1253 H 0.11446 0.81803 0.42812 0.0
H1254 H 0.07293 0.75763 0.4918 0.0
H1255 H 0.08215 0.74316 0.50646 0.0
H1256 H 0.06899 0.73651 0.47289 0.0
H1257 H 0.09852 0.73725 0.44962 0.0
H1258 H 0.11183 0.74405 0.48312 0.0
H1259 H 0.12259 0.75892 0.45243 0.0
H1260 H 0.1338 0.82759 0.47443 0.0
H1261 H 0.14703 0.82999 0.52332 0.0
H1262 H 0.11649 0.76725 0.52703 0.0
C1263 C 0.08378 0.76144 0.42137 0.0
C1264 C 0.08242 0.77284 0.39972 0.0
C1265 C 0.09361 0.79335 0.40243 0.0
C1266 C 0.10602 0.80238 0.42615 0.0
C1267 C 0.10706 0.79073 0.44707 0.0
C1268 C 0.09612 0.77071 0.44503 0.0
C1269 C 0.09913 0.76153 0.47115 0.0
C1270 C 0.07964 0.74897 0.48648 0.0
C1271 C 0.10858 0.74974 0.46362 0.0
C1272 C 0.11325 0.7795 0.48828 0.0
C1273 C 0.11788 0.79622 0.47392 0.0
C1274 C 0.13034 0.81458 0.48586 0.0
C1275 C 0.13787 0.81584 0.51352 0.0
C1276 C 0.13269 0.79883 0.5289 0.0
C1277 C 0.12057 0.7805 0.51579 0.0
H1278 H 0.30157 0.06991 0.78766 0.0
H1279 H 0.35204 0.09657 0.73333 0.0
H1280 H 0.37038 0.1229 0.76879 0.0
H1281 H 0.30608 0.11317 0.81529 0.0
H1282 H 0.29935 0.10402 0.85071 0.0
H1283 H 0.28999 0.08752 0.82088 0.0
H1284 H 0.30424 0.06778 0.84292 0.0
H1285 H 0.31324 0.08397 0.87306 0.0
H1286 H 0.32994 0.08008 0.85317 0.0
H1287 H 0.38255 0.14703 0.80943 0.0
H1288 H 0.38994 0.1639 0.85584 0.0
H1289 H 0.33228 0.12022 0.88466 0.0
C1290 C 0.31652 0.08125 0.78333 0.0
C1291 C 0.32541 0.08132 0.75778 0.0
C1292 C 0.34505 0.09624 0.7529 0.0
C1293 C 0.35548 0.11133 0.77276 0.0
C1294 C 0.34612 0.11106 0.7975 0.0
C1295 C 0.32725 0.09615 0.80314 0.0
C1296 C 0.32096 0.09861 0.83204 0.0
C1297 C 0.30303 0.10097 0.82956 0.0
C1298 C 0.31686 0.08161 0.85144 0.0
C1299 C 0.3392 0.11728 0.84179 0.0
C1300 C 0.35341 0.12445 0.82134 0.0
C1301 C 0.37155 0.14154 0.82559 0.0
C1302 C 0.37554 0.15112 0.85184 0.0
C1303 C 0.36157 0.14341 0.87352 0.0
C1304 C 0.34306 0.1265 0.86821 0.0
H1305 H 0.92966 0.22824 0.78858 0.0
H1306 H 0.92536 0.2783 0.76749 0.0
H1307 H 0.90077 0.26919 0.80482 0.0
H1308 H 0.8782 0.19535 0.80389 0.0
H1309 H 0.8837 0.18407 0.8327 0.0
H1310 H 0.90007 0.19399 0.80339 0.0
H1311 H 0.92925 0.21554 0.83803 0.0
H1312 H 0.91304 0.20548 0.86739 0.0
H1313 H 0.92713 0.23137 0.86253 0.0
H1314 H 0.87778 0.2552 0.84626 0.0
H1315 H 0.86018 0.2389 0.88986 0.0
H1316 H 0.87993 0.19824 0.8827 0.0
C1317 C 0.92353 0.23731 0.79161 0.0
C1318 C 0.92944 0.254 0.77506 0.0
C1319 C 0.92107 0.26546 0.77992 0.0
C1320 C 0.90701 0.26033 0.80095 0.0
C1321 C 0.90145 0.24367 0.81673 0.0
C1322 C 0.90954 0.2324 0.81231 0.0
C1323 C 0.90193 0.21577 0.83289 0.0
C1324 C 0.89028 0.19613 0.81727 0.0
C1325 C 0.91884 0.21714 0.8513 0.0
C1326 C 0.88854 0.21961 0.85008 0.0
C1327 C 0.88825 0.23562 0.84029 0.0
C1328 C 0.87776 0.24255 0.85391 0.0
C1329 C 0.86782 0.23321 0.87861 0.0
C1330 C 0.86853 0.21719 0.88947 0.0
C1331 C 0.87865 0.21009 0.87453 0.0
H1332 H 0.76517 0.64767 0.75323 0.0
H1333 H 0.76891 0.70321 0.75173 0.0
H1334 H 0.79268 0.71437 0.79243 0.0
H1335 H 0.76483 0.64278 0.8259 0.0
H1336 H 0.77915 0.63136 0.8267 0.0
H1337 H 0.76457 0.62907 0.79568 0.0
H1338 H 0.7957 0.64297 0.7652 0.0
H1339 H 0.81045 0.6456 0.79638 0.0
H1340 H 0.81703 0.66626 0.77427 0.0
H1341 H 0.81297 0.71779 0.8368 0.0
H1342 H 0.82618 0.71249 0.88166 0.0
H1343 H 0.80946 0.65499 0.85251 0.0
C1344 C 0.77113 0.6623 0.76115 0.0
C1345 C 0.76513 0.67456 0.74931 0.0
C1346 C 0.7733 0.69356 0.76043 0.0
C1347 C 0.7869 0.70006 0.78342 0.0
C1348 C 0.79236 0.68747 0.79469 0.0
C1349 C 0.78473 0.669 0.78378 0.0
C1350 C 0.79159 0.65764 0.80087 0.0
C1351 C 0.774 0.63914 0.81301 0.0
C1352 C 0.80446 0.65284 0.78311 0.0
C1353 C 0.80366 0.67228 0.82391 0.0
C1354 C 0.80425 0.68954 0.8198 0.0
C1355 C 0.81293 0.70449 0.8399 0.0
C1356 C 0.82045 0.70139 0.86527 0.0
C1357 C 0.81913 0.68345 0.87035 0.0
C1358 C 0.81131 0.66908 0.84886 0.0
H1359 H 0.75559 0.68368 0.58908 0.0
H1360 H 0.75148 0.63003 0.61518 0.0
H1361 H 0.76895 0.63055 0.57293 0.0
H1362 H 0.74698 0.67183 0.51543 0.0
H1363 H 0.76401 0.69605 0.50351 0.0
H1364 H 0.75229 0.69244 0.53701 0.0
H1365 H 0.7865 0.71263 0.56212 0.0
H1366 H 0.79831 0.71617 0.52866 0.0
H1367 H 0.80448 0.70572 0.55792 0.0
H1368 H 0.78488 0.63525 0.52718 0.0
H1369 H 0.79657 0.64292 0.47853 0.0
H1370 H 0.79211 0.69429 0.48132 0.0
C1371 C 0.75849 0.67213 0.58596 0.0
C1372 C 0.75212 0.65685 0.60562 0.0
C1373 C 0.75611 0.64192 0.60056 0.0
C1374 C 0.76617 0.64211 0.57664 0.0
C1375 C 0.77227 0.65731 0.55778 0.0
C1376 C 0.76854 0.67202 0.56194 0.0
C1377 C 0.77585 0.686 0.53728 0.0
C1378 C 0.75876 0.68661 0.52243 0.0
C1379 C 0.79226 0.70634 0.54709 0.0
C1380 C 0.78381 0.67654 0.51854 0.0
C1381 C 0.78176 0.66014 0.53102 0.0
C1382 C 0.78688 0.64824 0.51729 0.0
C1383 C 0.79375 0.65288 0.48964 0.0
C1384 C 0.79551 0.66935 0.47591 0.0
C1385 C 0.79094 0.68158 0.49105 0.0
H1386 H 0.31808 0.0679 0.59324 0.0
H1387 H 0.28107 0.08496 0.63422 0.0
H1388 H 0.28301 0.10423 0.59264 0.0
H1389 H 0.34959 0.11377 0.55764 0.0
H1390 H 0.35104 0.1024 0.5258 0.0
H1391 H 0.34766 0.09055 0.55943 0.0
H1392 H 0.31626 0.06002 0.53935 0.0
H1393 H 0.31958 0.07175 0.50567 0.0
H1394 H 0.29673 0.06239 0.52377 0.0
H1395 H 0.28815 0.12119 0.54633 0.0
H1396 H 0.29474 0.13302 0.49705 0.0
H1397 H 0.32826 0.10515 0.4857 0.0
C1398 C 0.3105 0.07579 0.59351 0.0
C1399 C 0.29944 0.07487 0.61711 0.0
C1400 C 0.28959 0.08531 0.61645 0.0
C1401 C 0.29066 0.09641 0.59294 0.0
C1402 C 0.3016 0.09698 0.57005 0.0
C1403 C 0.31127 0.08689 0.57001 0.0
C1404 C 0.3213 0.08936 0.54207 0.0
C1405 C 0.34373 0.09963 0.54651 0.0
C1406 C 0.31296 0.06971 0.52682 0.0
C1407 C 0.31555 0.10221 0.52646 0.0
C1408 C 0.30434 0.10659 0.54309 0.0
C1409 C 0.29698 0.11792 0.5331 0.0
C1410 C 0.30088 0.12468 0.50515 0.0
C1411 C 0.31191 0.11995 0.48746 0.0
C1412 C 0.31958 0.10883 0.49857 0.0
H1413 H 0.93405 0.26167 0.61837 0.0
H1414 H 0.94454 0.2156 0.64123 0.0
H1415 H 0.92718 0.19783 0.59753 0.0
H1416 H 0.88526 0.23059 0.58728 0.0
H1417 H 0.8887 0.24719 0.5592 0.0
H1418 H 0.90163 0.25631 0.59271 0.0
H1419 H 0.93488 0.27411 0.56707 0.0
H1420 H 0.92205 0.26513 0.5335 0.0
H1421 H 0.94116 0.26055 0.54394 0.0
H1422 H 0.90968 0.1854 0.55081 0.0
H1423 H 0.89421 0.17983 0.50317 0.0
H1424 H 0.89392 0.23321 0.51108 0.0
C1425 C 0.93269 0.24785 0.6142 0.0
C1426 C 0.94068 0.24007 0.63332 0.0
C1427 C 0.93856 0.22191 0.627 0.0
C1428 C 0.92867 0.21164 0.60224 0.0
C1429 C 0.92088 0.21964 0.58397 0.0
C1430 C 0.9228 0.23734 0.58954 0.0
C1431 C 0.91342 0.24283 0.56596 0.0
C1432 C 0.89623 0.24431 0.57696 0.0
C1433 C 0.9288 0.26178 0.55178 0.0
C1434 C 0.90616 0.22556 0.54621 0.0
C1435 C 0.91053 0.21231 0.55706 0.0
C1436 C 0.90596 0.19556 0.54219 0.0
C1437 C 0.897 0.19242 0.51521 0.0
C1438 C 0.89266 0.20598 0.50341 0.0
C1439 C 0.89705 0.22258 0.51947 0.0
H1440 H 0.36819 0.26636 0.58434 0.0
H1441 H 0.3123 0.25745 0.61106 0.0
H1442 H 0.29517 0.23295 0.57301 0.0
H1443 H 0.35794 0.26295 0.51067 0.0
H1444 H 0.37067 0.25053 0.503 0.0
H1445 H 0.37817 0.26653 0.53324 0.0
H1446 H 0.37363 0.23858 0.56576 0.0
H1447 H 0.36587 0.22243 0.53559 0.0
H1448 H 0.35023 0.21605 0.56571 0.0
H1449 H 0.28446 0.21099 0.53011 0.0
H1450 H 0.28123 0.19403 0.48489 0.0
H1451 H 0.34397 0.21671 0.48743 0.0
C1452 C 0.35233 0.25923 0.58231 0.0
C1453 C 0.34159 0.26385 0.60068 0.0
C1454 C 0.32085 0.25415 0.59725 0.0
C1455 C 0.31098 0.24015 0.57578 0.0
C1456 C 0.32204 0.23591 0.55812 0.0
C1457 C 0.34226 0.24517 0.56118 0.0
C1458 C 0.35084 0.23856 0.5388 0.0
C1459 C 0.36525 0.25566 0.52034 0.0
C1460 C 0.36072 0.22829 0.55228 0.0
C1461 C 0.33233 0.22442 0.52225 0.0
C1462 C 0.31584 0.22297 0.53383 0.0
C1463 C 0.29722 0.21178 0.5211 0.0
C1464 C 0.2955 0.20219 0.49552 0.0
C1465 C 0.3123 0.20383 0.48309 0.0
C1466 C 0.33083 0.21476 0.49696 0.0
H1467 H 0.73564 0.10477 0.58611 0.0
H1468 H 0.75281 0.06381 0.61135 0.0
H1469 H 0.77596 0.07471 0.57193 0.0
H1470 H 0.73663 0.09778 0.51084 0.0
H1471 H 0.74572 0.12282 0.5026 0.0
H1472 H 0.73096 0.11212 0.53329 0.0
H1473 H 0.7586 0.13929 0.56486 0.0
H1474 H 0.77356 0.1499 0.53429 0.0
H1475 H 0.78305 0.14324 0.56442 0.0
H1476 H 0.79784 0.09059 0.5307 0.0
H1477 H 0.81385 0.10742 0.48644 0.0
H1478 H 0.78135 0.13682 0.48644 0.0
C1479 C 0.74425 0.09807 0.5833 0.0
C1480 C 0.7425 0.0835 0.60187 0.0
C1481 C 0.75385 0.07494 0.59732 0.0
C1482 C 0.76715 0.08114 0.57513 0.0
C1483 C 0.76875 0.09574 0.5575 0.0
C1484 C 0.75737 0.10387 0.56099 0.0
C1485 C 0.76125 0.11866 0.53824 0.0
C1486 C 0.74253 0.11247 0.52017 0.0
C1487 C 0.76961 0.13898 0.55124 0.0
C1488 C 0.7766 0.11759 0.52139 0.0
C1489 C 0.78093 0.10449 0.53315 0.0
C1490 C 0.7946 0.10089 0.52132 0.0
C1491 C 0.8037 0.11058 0.4964 0.0
C1492 C 0.79896 0.12352 0.48357 0.0
C1493 C 0.7854 0.12721 0.49629 0.0
H1494 H 0.93048 0.68744 0.57139 0.0
H1495 H 0.91183 0.62702 0.58367 0.0
H1496 H 0.88823 0.61789 0.54288 0.0
H1497 H 0.88325 0.68 0.55334 0.0
H1498 H 0.89277 0.6991 0.52752 0.0
H1499 H 0.90797 0.70057 0.55744 0.0
H1500 H 0.93494 0.70419 0.52374 0.0
H1501 H 0.92001 0.70316 0.49382 0.0
H1502 H 0.92845 0.68638 0.49609 0.0
H1503 H 0.86678 0.616 0.49936 0.0
H1504 H 0.85237 0.62199 0.45601 0.0
H1505 H 0.88513 0.68347 0.47513 0.0
C1506 C 0.92151 0.67224 0.56562 0.0
C1507 C 0.92301 0.65794 0.5808 0.0
C1508 C 0.91101 0.63825 0.57227 0.0
C1509 C 0.89746 0.63293 0.54929 0.0
C1510 C 0.89611 0.64748 0.53523 0.0
C1511 C 0.908 0.66674 0.54308 0.0
C1512 C 0.90436 0.67986 0.52448 0.0
C1513 C 0.89663 0.6905 0.54174 0.0
C1514 C 0.92304 0.69423 0.50859 0.0
C1515 C 0.88863 0.66506 0.50459 0.0
C1516 C 0.88385 0.6464 0.51106 0.0
C1517 C 0.87029 0.63054 0.49438 0.0
C1518 C 0.86202 0.634 0.47002 0.0
C1519 C 0.86743 0.65313 0.46277 0.0
C1520 C 0.88047 0.66868 0.48069 0.0
H1521 H 0.92957 0.64551 0.74877 0.0
H1522 H 0.90886 0.67959 0.70633 0.0
H1523 H 0.8876 0.67473 0.74634 0.0
H1524 H 0.88271 0.61104 0.78405 0.0
H1525 H 0.89523 0.61069 0.81617 0.0
H1526 H 0.90693 0.61449 0.78256 0.0
H1527 H 0.93706 0.64649 0.8018 0.0
H1528 H 0.92546 0.64279 0.83539 0.0
H1529 H 0.93341 0.66495 0.81634 0.0
H1530 H 0.87102 0.66906 0.79214 0.0
H1531 H 0.86158 0.66431 0.84221 0.0
H1532 H 0.89253 0.6337 0.8557 0.0
C1533 C 0.92023 0.65156 0.74773 0.0
C1534 C 0.92081 0.66286 0.72444 0.0
C1535 C 0.90871 0.67093 0.72403 0.0
C1536 C 0.89645 0.66814 0.74656 0.0
C1537 C 0.89645 0.65727 0.76945 0.0
C1538 C 0.90802 0.64912 0.77033 0.0
C1539 C 0.90657 0.63966 0.79871 0.0
C1540 C 0.8973 0.61766 0.79515 0.0
C1541 C 0.92683 0.64904 0.81395 0.0
C1542 C 0.89287 0.6443 0.81376 0.0
C1543 C 0.88696 0.65418 0.79632 0.0
C1544 C 0.87529 0.66108 0.80594 0.0
C1545 C 0.86991 0.65822 0.8344 0.0
C1546 C 0.87631 0.64867 0.85295 0.0
C1547 C 0.88751 0.6412 0.84215 0.0
H1548 H 0.35043 0.27034 0.76173 0.0
H1549 H 0.40504 0.28277 0.72415 0.0
H1550 H 0.41158 0.26743 0.76444 0.0
H1551 H 0.36888 0.28003 0.83345 0.0
H1552 H 0.3465 0.2608 0.8483 0.0
H1553 H 0.34553 0.2721 0.81584 0.0
H1554 H 0.32684 0.23848 0.79081 0.0
H1555 H 0.32785 0.2271 0.8232 0.0
H1556 H 0.33746 0.2235 0.79117 0.0
H1557 H 0.41308 0.25181 0.80929 0.0
H1558 H 0.40994 0.23824 0.85713 0.0
H1559 H 0.35415 0.23501 0.8656 0.0
C1560 C 0.36372 0.26978 0.76195 0.0
C1561 C 0.37717 0.27778 0.73964 0.0
C1562 C 0.39445 0.27679 0.74088 0.0
C1563 C 0.39831 0.26803 0.76367 0.0
C1564 C 0.38478 0.26024 0.78519 0.0
C1565 C 0.36787 0.26107 0.78466 0.0
C1566 C 0.35613 0.25211 0.8111 0.0
C1567 C 0.35415 0.26716 0.82818 0.0
C1568 C 0.33587 0.23423 0.80361 0.0
C1569 C 0.36924 0.24639 0.82659 0.0
C1570 C 0.38562 0.25109 0.81116 0.0
C1571 C 0.40021 0.24787 0.8215 0.0
C1572 C 0.39822 0.23999 0.84863 0.0
C1573 C 0.38176 0.23544 0.86514 0.0
C1574 C 0.36695 0.23839 0.85358 0.0
H1575 H 0.73702 0.10788 0.76061 0.0
H1576 H 0.75449 0.06639 0.74293 0.0
H1577 H 0.77666 0.07799 0.78538 0.0
H1578 H 0.78402 0.14686 0.7883 0.0
H1579 H 0.77307 0.15353 0.81548 0.0
H1580 H 0.75975 0.14298 0.78262 0.0
H1581 H 0.73049 0.11583 0.8102 0.0
H1582 H 0.74359 0.12648 0.84307 0.0
H1583 H 0.73488 0.10144 0.83512 0.0
H1584 H 0.79655 0.09396 0.83054 0.0
H1585 H 0.80882 0.10969 0.87775 0.0
H1586 H 0.77705 0.13944 0.86627 0.0
C1587 C 0.74562 0.10133 0.76553 0.0
C1588 C 0.74417 0.08634 0.7484 0.0
C1589 C 0.75538 0.07788 0.75583 0.0
C1590 C 0.76812 0.0845 0.77974 0.0
C1591 C 0.76934 0.09944 0.79606 0.0
C1592 C 0.75814 0.10753 0.78947 0.0
C1593 C 0.76087 0.12229 0.81157 0.0
C1594 C 0.76997 0.14262 0.79872 0.0
C1595 C 0.7413 0.11613 0.82583 0.0
C1596 C 0.7752 0.12112 0.83184 0.0
C1597 C 0.78024 0.10816 0.82232 0.0
C1598 C 0.79281 0.10424 0.83809 0.0
C1599 C 0.79984 0.11331 0.8647 0.0
C1600 C 0.79402 0.12588 0.87523 0.0
C1601 C 0.78192 0.13011 0.85833 0.0
H1602 H 0.05883 0.40813 0.085 0.0
H1603 H 0.03194 0.37453 0.00797 0.0
H1604 H 0.05783 0.36641 0.00658 0.0
H1605 H 0.11071 0.42643 0.06679 0.0
H1606 H 0.1174 0.42437 0.10282 0.0
H1607 H 0.0982 0.42947 0.09578 0.0
H1608 H 0.07409 0.39961 0.1253 0.0
H1609 H 0.0932 0.39451 0.13251 0.0
H1610 H 0.07017 0.37614 0.11647 0.0
H1611 H 0.08455 0.3588 0.01686 0.0
H1612 H 0.10838 0.35146 0.03892 0.0
H1613 H 0.11875 0.39124 0.10789 0.0
C1614 C 0.05857 0.39938 0.06749 0.0
C1615 C 0.04332 0.39205 0.04652 0.0
C1616 C 0.04346 0.38042 0.02423 0.0
C1617 C 0.05818 0.37577 0.02321 0.0
C1618 C 0.07283 0.38301 0.04446 0.0
C1619 C 0.07316 0.39465 0.06612 0.0
C1620 C 0.08954 0.39935 0.08759 0.0
C1621 C 0.10487 0.4212 0.08827 0.0
C1622 C 0.08125 0.39195 0.1172 0.0
C1623 C 0.09795 0.388 0.0752 0.0
C1624 C 0.08832 0.37885 0.05013 0.0
C1625 C 0.09244 0.3662 0.0362 0.0
C1626 C 0.10617 0.36224 0.04877 0.0
C1627 C 0.11556 0.37081 0.07512 0.0
C1628 C 0.1119 0.38447 0.08771 0.0
H1629 H 0.64423 0.68035 0.04365 0.0
H1630 H 0.61158 0.66876 0.96391 0.0
H1631 H 0.61069 0.69862 0.97023 0.0
H1632 H 0.61943 0.69927 0.08119 0.0
H1633 H 0.64127 0.71764 0.0998 0.0
H1634 H 0.63947 0.69547 0.0887 0.0
H1635 H 0.6719 0.71526 0.06146 0.0
H1636 H 0.67376 0.73749 0.07246 0.0
H1637 H 0.67401 0.73255 0.03532 0.0
H1638 H 0.61229 0.72959 0.98659 0.0
H1639 H 0.61646 0.75849 0.01164 0.0
H1640 H 0.64989 0.75052 0.07855 0.0
C1641 C 0.63688 0.68407 0.02752 0.0
C1642 C 0.62792 0.67213 0.00333 0.0
C1643 C 0.61859 0.67766 0.98262 0.0
C1644 C 0.618 0.69462 0.98601 0.0
C1645 C 0.627 0.7061 0.01007 0.0
C1646 C 0.63637 0.70108 0.03038 0.0
C1647 C 0.64495 0.71587 0.05427 0.0
C1648 C 0.63572 0.7065 0.08266 0.0
C1649 C 0.66749 0.72588 0.05596 0.0
C1650 C 0.63867 0.72978 0.04451 0.0
C1651 C 0.62834 0.72398 0.01899 0.0
C1652 C 0.62051 0.73432 0.00651 0.0
C1653 C 0.62303 0.75079 0.02079 0.0
C1654 C 0.63328 0.75673 0.04726 0.0
C1655 C 0.64157 0.74623 0.05868 0.0
H1656 H 0.34571 0.9742 0.02062 0.0
H1657 H 0.36378 0.93512 0.99122 0.0
H1658 H 0.33031 0.90734 -0.00221 0.0
H1659 H 0.31753 0.94582 0.07487 0.0
H1660 H 0.2982 0.95108 0.07119 0.0
H1661 H 0.3225 0.96836 0.05946 0.0
H1662 H 0.30837 0.96805 0.00932 0.0
H1663 H 0.28394 0.95078 0.02097 0.0
H1664 H 0.29355 0.94534 0.99057 0.0
H1665 H 0.2973 0.88367 0.01509 0.0
H1666 H 0.26691 0.86571 0.04148 0.0
H1667 H 0.26816 0.9194 0.05675 0.0
C1668 C 0.34244 0.95985 0.01474 0.0
C1669 C 0.3574 0.95688 0.00535 0.0
C1670 C 0.35262 0.93781 -0.00152 0.0
C1671 C 0.33358 0.92191 0.00198 0.0
C1672 C 0.31932 0.92523 0.0121 0.0
C1673 C 0.3234 0.94372 0.01812 0.0
C1674 C 0.30587 0.94301 0.03139 0.0
C1675 C 0.31136 0.95263 0.06097 0.0
C1676 C 0.29743 0.95235 0.01189 0.0
C1677 C 0.29179 0.92125 0.03319 0.0
C1678 C 0.29976 0.9113 0.02155 0.0
C1679 C 0.29059 0.89123 0.02352 0.0
C1680 C 0.2731 0.88108 0.03847 0.0
C1681 C 0.26475 0.89094 0.05126 0.0
C1682 C 0.27401 0.91127 0.0475 0.0
H1683 H 0.4028 0.06344 0.97592 0.0
H1684 H 0.39018 0.06389 0.06474 0.0
H1685 H 0.38458 0.09087 0.05574 0.0
H1686 H 0.42849 0.11529 0.96599 0.0
H1687 H 0.41855 0.11322 0.93058 0.0
H1688 H 0.42197 0.09433 0.9444 0.0
H1689 H 0.38517 0.06895 0.93379 0.0
H1690 H 0.38166 0.08774 0.9199 0.0
H1691 H 0.36655 0.07259 0.94811 0.0
H1692 H 0.37958 0.11783 0.03603 0.0
H1693 H 0.37485 0.141 0.00726 0.0
H1694 H 0.39159 0.12271 0.93232 0.0
C1695 C 0.39891 0.0692 0.99357 0.0
C1696 C 0.39694 0.06149 0.02106 0.0
C1697 C 0.39181 0.06953 0.04348 0.0
C1698 C 0.38862 0.0849 0.03858 0.0
C1699 C 0.3907 0.09215 0.01117 0.0
C1700 C 0.39574 0.08451 0.98909 0.0
C1701 C 0.39674 0.09452 0.96148 0.0
C1702 C 0.41769 0.10496 0.94995 0.0
C1703 C 0.38163 0.08009 0.93954 0.0
C1704 C 0.39125 0.10884 0.97133 0.0
C1705 C 0.38789 0.10741 5e-05 0.0
C1706 C 0.38224 0.11907 0.01353 0.0
C1707 C 0.37968 0.13225 0.9971 0.0
C1708 C 0.38262 0.13353 0.96751 0.0
C1709 C 0.38886 0.12188 0.95481 0.0
H1710 H 0.90876 0.32517 0.01407 0.0
H1711 H 0.96043 0.32497 0.04466 0.0
H1712 H 0.94199 0.28912 0.04028 0.0
H1713 H 0.87102 0.27899 0.0456 0.0
H1714 H 0.85491 0.27253 0.01482 0.0
H1715 H 0.87118 0.29768 0.02441 0.0
H1716 H 0.88616 0.30476 0.97441 0.0
H1717 H 0.86974 0.27977 0.96464 0.0
H1718 H 0.89591 0.29059 0.96132 0.0
H1719 H 0.91859 0.25347 0.02842 0.0
H1720 H 0.89451 0.22259 0.00429 0.0
H1721 H 0.85883 0.24666 0.98041 0.0
C1722 C 0.91612 0.31759 0.02046 0.0
C1723 C 0.93599 0.32786 0.03004 0.0
C1724 C 0.9452 0.3174 0.0374 0.0
C1725 C 0.93477 0.29703 0.0352 0.0
C1726 C 0.91518 0.28736 0.02555 0.0
C1727 C 0.90605 0.29739 0.01805 0.0
C1728 C 0.88577 0.28405 0.00506 0.0
C1729 C 0.86978 0.28327 0.02359 0.0
C1730 C 0.88433 0.29015 0.97456 0.0
C1731 C 0.88506 0.26497 0.0056 0.0
C1732 C 0.90193 0.26702 0.01814 0.0
C1733 C 0.90519 0.25164 0.01902 0.0
C1734 C 0.89135 0.23408 0.00555 0.0
C1735 C 0.87467 0.2322 0.99106 0.0
C1736 C 0.87118 0.2476 0.99207 0.0
H1737 H 0.69662 0.61006 0.98915 0.0
H1738 H 0.6988 0.66437 0.00138 0.0
H1739 H 0.73501 0.68224 0.99583 0.0
H1740 H 0.74294 0.62394 0.02614 0.0
H1741 H 0.74873 0.61077 0.00147 0.0
H1742 H 0.72342 0.60248 0.00859 0.0
H1743 H 0.71618 0.60355 0.95494 0.0
H1744 H 0.74131 0.61152 0.9477 0.0
H1745 H 0.73103 0.62569 0.93577 0.0
H1746 H 0.77079 0.69396 0.98472 0.0
H1747 H 0.80182 0.69838 0.96676 0.0
H1748 H 0.77539 0.63604 0.96341 0.0
C1749 C 0.70462 0.62572 0.99089 0.0
C1750 C 0.69481 0.63581 0.99564 0.0
C1751 C 0.70598 0.65631 -0.00226 0.0
C1752 C 0.72655 0.66655 0.99478 0.0
C1753 C 0.73569 0.65604 0.9901 0.0
C1754 C 0.72499 0.63605 0.98822 0.0
C1755 C 0.73787 0.62803 0.98145 0.0
C1756 C 0.73826 0.61557 0.00588 0.0
C1757 C 0.7312 0.61653 0.9533 0.0
C1758 C 0.75753 0.64664 0.97896 0.0
C1759 C 0.7561 0.66269 0.98433 0.0
C1760 C 0.7721 0.68148 0.98097 0.0
C1761 C 0.78968 0.68387 0.97087 0.0
C1762 C 0.79111 0.66756 0.9642 0.0
C1763 C 0.77499 0.64878 0.96924 0.0
H1764 H 0.99186 0.6702 0.96021 0.0
H1765 H 0.96614 0.62233 0.01921 0.0
H1766 H 0.93494 0.62203 0.01659 0.0
H1767 H 0.96616 0.69449 0.98502 0.0
H1768 H 0.96324 0.70112 0.94954 0.0
H1769 H 0.98419 0.69912 0.95885 0.0
H1770 H 0.97513 0.67452 0.91765 0.0
H1771 H 0.95431 0.67656 0.90815 0.0
H1772 H 0.95084 0.6531 0.91564 0.0
H1773 H 0.90539 0.62463 0.00319 0.0
H1774 H 0.88012 0.62879 0.97845 0.0
H1775 H 0.92562 0.67569 0.92969 0.0
C1776 C 0.9798 0.65986 0.97301 0.0
C1777 C 0.9815 0.64632 0.98998 0.0
C1778 C 0.96525 0.6329 0.00611 0.0
C1779 C 0.94748 0.63267 0.00486 0.0
C1780 C 0.94624 0.64609 0.98761 0.0
C1781 C 0.96203 0.65947 0.97204 0.0
C1782 C 0.95653 0.67128 0.95335 0.0
C1783 C 0.96823 0.69278 0.96223 0.0
C1784 C 0.95936 0.6687 0.92185 0.0
C1785 C 0.93498 0.662 0.96 0.0
C1786 C 0.92933 0.64769 0.98013 0.0
C1787 C 0.90973 0.63605 0.98782 0.0
C1788 C 0.89547 0.63862 0.9738 0.0
C1789 C 0.90088 0.65261 0.95219 0.0
C1790 C 0.92102 0.6649 0.94617 0.0
H1791 H 0.35514 0.31685 0.98288 0.0
H1792 H 0.39664 0.33213 0.0536 0.0
H1793 H 0.39708 0.30224 0.04561 0.0
H1794 H 0.32789 0.26344 0.99496 0.0
H1795 H 0.32455 0.25804 0.95752 0.0
H1796 H 0.32582 0.27959 0.97064 0.0
H1797 H 0.35439 0.30062 0.93694 0.0
H1798 H 0.35316 0.27917 0.92371 0.0
H1799 H 0.37603 0.29883 0.93829 0.0
H1800 H 0.3966 0.27317 0.02592 0.0
H1801 H 0.39514 0.24748 0.99621 0.0
H1802 H 0.35141 0.24889 0.94113 0.0
C1803 C 0.36405 0.31375 0.997 0.0
C1804 C 0.37586 0.3269 0.01888 0.0
C1805 C 0.3874 0.32231 0.03675 0.0
C1806 C 0.38772 0.3053 0.03245 0.0
C1807 C 0.37614 0.29278 0.01047 0.0
C1808 C 0.36435 0.29668 0.99322 0.0
C1809 C 0.3542 0.2814 0.9701 0.0
C1810 C 0.33178 0.26993 0.97352 0.0
C1811 C 0.35979 0.29055 0.94052 0.0
C1812 C 0.3628 0.26882 0.97631 0.0
C1813 C 0.3753 0.27552 -0.00019 0.0
C1814 C 0.38648 0.26748 0.00787 0.0
C1815 C 0.3854 0.25269 0.99092 0.0
C1816 C 0.37316 0.24597 0.96614 0.0
C1817 C 0.36109 0.25368 0.95969 0.0
H1818 H 0.66896 0.0736 0.96601 0.0
H1819 H 0.6722 0.0279 0.00948 0.0
H1820 H 0.70861 0.04882 0.0118 0.0
H1821 H 0.70975 0.08772 0.92266 0.0
H1822 H 0.71756 0.11304 0.9233 0.0
H1823 H 0.69205 0.09491 0.92753 0.0
H1824 H 0.69245 0.11131 0.9749 0.0
H1825 H 0.71815 0.12924 0.97105 0.0
H1826 H 0.70999 0.11477 0.00262 0.0
H1827 H 0.74497 0.07476 0.00769 0.0
H1828 H 0.77744 0.10073 0.99099 0.0
H1829 H 0.74978 0.12864 0.9494 0.0
C1830 C 0.67729 0.06801 0.97625 0.0
C1831 C 0.66775 0.04917 0.98778 0.0
C1832 C 0.67922 0.04228 0.00049 0.0
C1833 C 0.69987 0.05414 0.00214 0.0
C1834 C 0.70878 0.07278 0.99087 0.0
C1835 C 0.6978 0.0795 0.97778 0.0
C1836 C 0.71078 0.09932 0.96507 0.0
C1837 C 0.70734 0.0987 0.93274 0.0
C1838 C 0.70765 0.11456 0.97927 0.0
C1839 C 0.73088 0.10267 0.97263 0.0
C1840 C 0.7295 0.08741 0.98803 0.0
C1841 C 0.7462 0.08686 0.99594 0.0
C1842 C 0.76461 0.10177 0.98669 0.0
C1843 C 0.76606 0.11682 0.96946 0.0
C1844 C 0.74907 0.11756 0.96323 0.0
H1845 H 0.58773 0.92953 0.04891 0.0
H1846 H 0.61935 0.95016 0.97054 0.0
H1847 H 0.62593 0.92344 0.97175 0.0
H1848 H 0.62007 0.91831 0.08205 0.0
H1849 H 0.60135 0.89711 0.09983 0.0
H1850 H 0.59719 0.91634 0.09078 0.0
H1851 H 0.56522 0.89179 0.06311 0.0
H1852 H 0.56941 0.87248 0.07193 0.0
H1853 H 0.56626 0.8771 0.03538 0.0
H1854 H 0.63194 0.8963 0.98426 0.0
H1855 H 0.6386 0.87303 0.00844 0.0
H1856 H 0.60211 0.86946 0.0777 0.0
C1857 C 0.59573 0.92826 0.03168 0.0
C1858 C 0.60292 0.94195 0.00953 0.0
C1859 C 0.6136 0.93985 0.98769 0.0
C1860 C 0.61734 0.92465 0.98813 0.0
C1861 C 0.61021 0.91152 0.01045 0.0
C1862 C 0.59961 0.9132 0.03182 0.0
C1863 C 0.59494 0.89824 0.05463 0.0
C1864 C 0.60393 0.90809 0.08351 0.0
C1865 C 0.57263 0.88406 0.05635 0.0
C1866 C 0.60507 0.88825 0.04325 0.0
C1867 C 0.61357 0.89589 0.01754 0.0
C1868 C 0.62505 0.88999 0.00415 0.0
C1869 C 0.62861 0.87658 0.01792 0.0
C1870 C 0.62085 0.8693 0.04496 0.0
C1871 C 0.60824 0.87468 0.05703 0.0
H1872 H 0.10722 0.69396 0.00766 0.0
H1873 H 0.05337 0.69503 0.00083 0.0
H1874 H 0.07251 0.73052 0.00792 0.0
H1875 H 0.12748 0.72556 0.06324 0.0
H1876 H 0.15259 0.73732 0.05203 0.0
H1877 H 0.13522 0.71288 0.04081 0.0
H1878 H 0.1431 0.72319 0.98836 0.0
H1879 H 0.1604 0.74781 -0.00044 0.0
H1880 H 0.14061 0.74275 0.97491 0.0
H1881 H 0.09634 0.76449 0.02368 0.0
H1882 H 0.12245 0.79342 0.04952 0.0
H1883 H 0.16097 0.7707 0.0453 0.0
C1884 C 0.09951 0.70172 0.00683 0.0
C1885 C 0.0788 0.6917 0.00354 0.0
C1886 C 0.06923 0.70236 0.00324 0.0
C1887 C 0.08001 0.72257 0.00703 0.0
C1888 C 0.10037 0.73196 0.01085 0.0
C1889 C 0.11003 0.72187 0.01069 0.0
C1890 C 0.13159 0.7349 0.01888 0.0
C1891 C 0.13702 0.72721 0.0453 0.0
C1892 C 0.1447 0.7373 0.99393 0.0
C1893 C 0.13233 0.75364 0.02517 0.0
C1894 C 0.11428 0.75179 0.01975 0.0
C1895 C 0.11068 0.76632 0.02725 0.0
C1896 C 0.12559 0.78274 0.04179 0.0
C1897 C 0.14381 0.78444 0.0487 0.0
C1898 C 0.14746 0.77009 0.0392 0.0
H1899 H 0.31734 0.40195 0.02368 0.0
H1900 H 0.30586 0.3448 0.0018 0.0
H1901 H 0.27024 0.33111 0.00887 0.0
H1902 H 0.28507 0.38694 0.07943 0.0
H1903 H 0.27788 0.40443 0.07313 0.0
H1904 H 0.30166 0.40963 0.0626 0.0
H1905 H 0.2938 0.41552 0.0112 0.0
H1906 H 0.26982 0.41005 0.02158 0.0
H1907 H 0.27206 0.39679 0.99281 0.0
H1908 H 0.23605 0.32351 0.02242 0.0
H1909 H 0.20783 0.32228 0.04572 0.0
H1910 H 0.24253 0.38434 0.05946 0.0
C1911 C 0.30736 0.38659 0.01979 0.0
C1912 C 0.31441 0.37447 0.01187 0.0
C1913 C 0.30081 0.35439 0.00771 0.0
C1914 C 0.28054 0.34653 0.01151 0.0
C1915 C 0.27414 0.35895 0.01948 0.0
C1916 C 0.28726 0.37855 0.02373 0.0
C1917 C 0.27721 0.38861 0.03504 0.0
C1918 C 0.28597 0.39793 0.06428 0.0
C1919 C 0.27829 0.40363 0.01389 0.0
C1920 C 0.25639 0.37156 0.03721 0.0
C1921 C 0.25474 0.3546 0.02761 0.0
C1922 C 0.23713 0.33676 0.02948 0.0
C1923 C 0.22112 0.33619 0.04247 0.0
C1924 C 0.22295 0.3533 0.05358 0.0
C1925 C 0.24062 0.3712 0.05022 0.0
H1926 H 0.68855 0.67399 0.37893 0.0
H1927 H 0.71606 0.71889 0.31564 0.0
H1928 H 0.74541 0.71574 0.31766 0.0
H1929 H 0.73061 0.68884 0.42127 0.0
H1930 H 0.72448 0.66464 0.43028 0.0
H1931 H 0.70524 0.66933 0.42163 0.0
H1932 H 0.69182 0.64285 0.38227 0.0
H1933 H 0.71109 0.63811 0.39079 0.0
H1934 H 0.708 0.64425 0.35507 0.0
H1935 H 0.77312 0.70913 0.33002 0.0
H1936 H 0.79604 0.7004 0.35237 0.0
H1937 H 0.74939 0.65962 0.4063 0.0
C1938 C 0.7006 0.68303 0.36517 0.0
C1939 C 0.69995 0.69668 0.34709 0.0
C1940 C 0.71616 0.70826 0.3296 0.0
C1941 C 0.73289 0.70655 0.33057 0.0
C1942 C 0.73311 0.69307 0.34896 0.0
C1943 C 0.71728 0.68147 0.36582 0.0
C1944 C 0.72136 0.66883 0.38494 0.0
C1945 C 0.72037 0.67318 0.41638 0.0
C1946 C 0.70723 0.64723 0.37783 0.0
C1947 C 0.74216 0.67542 0.37681 0.0
C1948 C 0.74874 0.68927 0.35584 0.0
C1949 C 0.76799 0.69814 0.34621 0.0
C1950 C 0.78089 0.69305 0.35888 0.0
C1951 C 0.77449 0.6794 0.38106 0.0
C1952 C 0.75472 0.67016 0.38942 0.0
H1953 H 0.29415 0.01223 0.37161 0.0
H1954 H 0.34508 0.03962 0.31808 0.0
H1955 H 0.34711 0.07099 0.32385 0.0
H1956 H 0.27278 0.04103 0.34711 0.0
H1957 H 0.26459 0.04205 0.38197 0.0
H1958 H 0.26609 0.02144 0.3715 0.0
H1959 H 0.28877 0.0268 0.41523 0.0
H1960 H 0.28723 0.0473 0.42587 0.0
H1961 H 0.31093 0.05013 0.42075 0.0
H1962 H 0.34569 0.10016 0.33986 0.0
H1963 H 0.34133 0.12423 0.36545 0.0
H1964 H 0.28995 0.07742 0.40563 0.0
C1965 C 0.30558 0.02475 0.36077 0.0
C1966 C 0.31945 0.02341 0.34437 0.0
C1967 C 0.33423 0.04022 0.33069 0.0
C1968 C 0.33547 0.05812 0.33377 0.0
C1969 C 0.32167 0.05898 0.3503 0.0
C1970 C 0.30692 0.04269 0.36342 0.0
C1971 C 0.29458 0.04764 0.38129 0.0
C1972 C 0.27324 0.03743 0.36977 0.0
C1973 C 0.29544 0.04268 0.41263 0.0
C1974 C 0.30505 0.06936 0.37695 0.0
C1975 C 0.32055 0.07565 0.35883 0.0
C1976 C 0.33336 0.09535 0.35365 0.0
C1977 C 0.33066 0.10895 0.36811 0.0
C1978 C 0.31528 0.10281 0.3876 0.0
C1979 C 0.30191 0.08267 0.391 0.0
H1980 H 0.98874 0.31405 0.4085 0.0
H1981 H 0.99174 0.28986 0.32858 0.0
H1982 H 0.95589 0.26712 0.32825 0.0
H1983 H 0.95908 0.27302 0.4396 0.0
H1984 H 0.9441 0.2797 0.45862 0.0
H1985 H 0.96844 0.29805 0.44877 0.0
H1986 H 0.95463 0.3167 0.42219 0.0
H1987 H 0.93011 0.29844 0.4323 0.0
H1988 H 0.93544 0.30439 0.39547 0.0
H1989 H 0.92346 0.24155 0.34314 0.0
H1990 H 0.89669 0.21642 0.37043 0.0
H1991 H 0.91112 0.25804 0.43883 0.0
C1992 C 0.98154 0.30474 0.39021 0.0
C1993 C 0.99277 0.30393 0.36821 0.0
C1994 C 0.98321 0.29092 0.34525 0.0
C1995 C 0.96285 0.27796 0.3449 0.0
C1996 C 0.95218 0.27829 0.3676 0.0
C1997 C 0.96107 0.29165 0.38959 0.0
C1998 C 0.94679 0.28691 0.41339 0.0
C1999 C 0.9551 0.28425 0.44173 0.0
C2000 C 0.94142 0.30254 0.41598 0.0
C2001 C 0.92929 0.26791 0.40249 0.0
C2002 C 0.93257 0.26343 0.3758 0.0
C2003 C 0.92028 0.2452 0.36355 0.0
C2004 C 0.90483 0.23089 0.37939 0.0
C2005 C 0.90149 0.23483 0.40731 0.0
C2006 C 0.91325 0.2541 0.41796 0.0
H2007 H 0.06696 0.40364 0.33072 0.0
H2008 H 0.05339 0.40745 0.41804 0.0
H2009 H 0.05358 0.43748 0.40706 0.0
H2010 H 0.099 0.45628 0.31911 0.0
H2011 H 0.08993 0.45448 0.2832 0.0
H2012 H 0.0907 0.43444 0.29867 0.0
H2013 H 0.05346 0.41167 0.28719 0.0
H2014 H 0.05261 0.43159 0.27167 0.0
H2015 H 0.03631 0.41797 0.29984 0.0
H2016 H 0.05233 0.46574 0.38522 0.0
H2017 H 0.04871 0.48858 0.35408 0.0
H2018 H 0.06399 0.46657 0.28181 0.0
C2019 C 0.06437 0.41094 0.34769 0.0
C2020 C 0.06023 0.40316 0.37529 0.0
C2021 C 0.05666 0.41311 0.39674 0.0
C2022 C 0.0568 0.43024 0.39073 0.0
C2023 C 0.06066 0.43738 0.3632 0.0
C2024 C 0.06446 0.42805 0.34206 0.0
C2025 C 0.06693 0.43792 0.31381 0.0
C2026 C 0.08789 0.44628 0.30307 0.0
C2027 C 0.0514 0.42396 0.29185 0.0
C2028 C 0.06341 0.45392 0.32215 0.0
C2029 C 0.06002 0.45357 0.35077 0.0
C2030 C 0.05522 0.4663 0.36285 0.0
C2031 C 0.05331 0.47931 0.34507 0.0
C2032 C 0.05602 0.47935 0.31554 0.0
C2033 C 0.06174 0.46686 0.3043 0.0
H2034 H 0.62494 0.65051 0.32529 0.0
H2035 H 0.57743 0.65461 0.36061 0.0
H2036 H 0.55506 0.61933 0.35425 0.0
H2037 H 0.59733 0.61844 0.2717 0.0
H2038 H 0.60946 0.60484 0.27301 0.0
H2039 H 0.62245 0.62973 0.2846 0.0
H2040 H 0.62979 0.6197 0.33343 0.0
H2041 H 0.61677 0.5947 0.32193 0.0
H2042 H 0.60975 0.60151 0.35381 0.0
H2043 H 0.53669 0.58428 0.33811 0.0
H2044 H 0.52424 0.55311 0.31239 0.0
H2045 H 0.58379 0.57193 0.28878 0.0
C2046 C 0.60998 0.64393 0.33239 0.0
C2047 C 0.603 0.65536 0.34353 0.0
C2048 C 0.58318 0.64618 0.35205 0.0
C2049 C 0.57035 0.6261 0.34865 0.0
C2050 C 0.57755 0.61531 0.33692 0.0
C2051 C 0.59697 0.62391 0.32908 0.0
C2052 C 0.60061 0.60949 0.31445 0.0
C2053 C 0.60788 0.61601 0.28415 0.0
C2054 C 0.61509 0.60615 0.33196 0.0
C2055 C 0.58008 0.59168 0.31427 0.0
C2056 C 0.56699 0.59516 0.32771 0.0
C2057 C 0.54687 0.58126 0.328 0.0
C2058 C 0.53991 0.56359 0.31346 0.0
C2059 C 0.55305 0.56018 0.29866 0.0
C2060 C 0.57342 0.57417 0.3 0.0
H2061 H 0.36261 0.94222 0.35549 0.0
H2062 H 0.37137 0.99964 0.36436 0.0
H2063 H 0.4073 0.01403 0.36086 0.0
H2064 H 0.40946 0.95245 0.39214 0.0
H2065 H 0.41248 0.93747 0.36712 0.0
H2066 H 0.38814 0.93162 0.37625 0.0
H2067 H 0.37937 0.93233 0.32312 0.0
H2068 H 0.40346 0.93782 0.31396 0.0
H2069 H 0.39496 0.95362 0.30266 0.0
H2070 H 0.44156 0.02221 0.3495 0.0
H2071 H 0.46955 0.02348 0.3259 0.0
H2072 H 0.43794 0.96069 0.32357 0.0
C2073 C 0.37208 0.95781 0.35752 0.0
C2074 C 0.36415 0.96978 0.36045 0.0
C2075 C 0.37709 0.99015 0.36229 0.0
C2076 C 0.39754 0.99844 0.36055 0.0
C2077 C 0.40484 0.98618 0.35713 0.0
C2078 C 0.39242 0.96627 0.35558 0.0
C2079 C 0.40339 0.95634 0.34783 0.0
C2080 C 0.40337 0.94372 0.3723 0.0
C2081 C 0.3948 0.94435 0.32027 0.0
C2082 C 0.42378 0.9738 0.34377 0.0
C2083 C 0.42451 0.99088 0.35006 0.0
C2084 C 0.44124 0.00892 0.345 0.0
C2085 C 0.45711 0.00952 0.33166 0.0
C2086 C 0.45598 0.99218 0.323 0.0
C2087 C 0.43953 0.97418 0.33065 0.0
H2088 H 0.6247 0.95075 0.3013 0.0
H2089 H 0.63494 0.97962 0.38275 0.0
H2090 H 0.60528 0.98163 0.37447 0.0
H2091 H 0.6095 0.97874 0.26407 0.0
H2092 H 0.59114 0.95888 0.24248 0.0
H2093 H 0.61229 0.95854 0.25587 0.0
H2094 H 0.58943 0.92527 0.27919 0.0
H2095 H 0.56818 0.92553 0.26587 0.0
H2096 H 0.57101 0.92272 0.30326 0.0
H2097 H 0.57519 0.98216 0.35554 0.0
H2098 H 0.5484 0.98185 0.32712 0.0
H2099 H 0.55793 0.95196 0.25913 0.0
C2100 C 0.62064 0.95732 0.31758 0.0
C2101 C 0.63218 0.965 0.34271 0.0
C2102 C 0.62634 0.97359 0.36333 0.0
C2103 C 0.60947 0.97477 0.35885 0.0
C2104 C 0.59851 0.96719 0.33372 0.0
C2105 C 0.60387 0.95859 0.31348 0.0
C2106 C 0.59018 0.95228 0.28773 0.0
C2107 C 0.60145 0.96274 0.26097 0.0
C2108 C 0.57904 0.93013 0.2838 0.0
C2109 C 0.5765 0.959 0.29635 0.0
C2110 C 0.58136 0.96744 0.323 0.0
C2111 C 0.57116 0.97542 0.33475 0.0
C2112 C 0.5559 0.9751 0.31855 0.0
C2113 C 0.55113 0.96699 0.29086 0.0
C2114 C 0.56134 0.95845 0.28011 0.0
H2115 H 0.00725 0.64928 0.3135 0.0
H2116 H 0.06407 0.68528 0.35579 0.0
H2117 H 0.06896 0.65749 0.35668 0.0
H2118 H 0.99426 0.60299 0.34985 0.0
H2119 H 0.98276 0.58887 0.31808 0.0
H2120 H 0.9825 0.61072 0.32449 0.0
H2121 H 0.99859 0.62422 0.27605 0.0
H2122 H 0.99878 0.60243 0.26949 0.0
H2123 H 0.02137 0.62566 0.26833 0.0
H2124 H 0.06969 0.62709 0.34669 0.0
H2125 H 0.0666 0.59775 0.32534 0.0
H2126 H 0.00851 0.58083 0.29218 0.0
C2127 C 0.02054 0.65124 0.32355 0.0
C2128 C 0.03524 0.66952 0.33465 0.0
C2129 C 0.05252 0.67144 0.34726 0.0
C2130 C 0.05541 0.65569 0.34796 0.0
C2131 C 0.04078 0.63797 0.33632 0.0
C2132 C 0.0236 0.63564 0.32455 0.0
C2133 C 0.01091 0.61567 0.31127 0.0
C2134 C 0.99146 0.60387 0.32686 0.0
C2135 C 0.00721 0.61709 0.27941 0.0
C2136 C 0.02399 0.60741 0.31625 0.0
C2137 C 0.04104 0.62035 0.3311 0.0
C2138 C 0.05619 0.61668 0.33561 0.0
C2139 C 0.05424 0.59982 0.3236 0.0
C2140 C 0.03729 0.58686 0.3071 0.0
C2141 C 0.02164 0.59037 0.30471 0.0
H2142 H 0.35378 0.3732 0.31979 0.0
H2143 H 0.35593 0.41297 0.3832 0.0
H2144 H 0.39145 0.4347 0.37603 0.0
H2145 H 0.40501 0.38269 0.33463 0.0
H2146 H 0.4088 0.38118 0.29747 0.0
H2147 H 0.38446 0.36693 0.31146 0.0
H2148 H 0.37166 0.38183 0.27444 0.0
H2149 H 0.39592 0.39622 0.26055 0.0
H2150 H 0.38324 0.40782 0.2727 0.0
H2151 H 0.4253 0.45457 0.35684 0.0
H2152 H 0.45472 0.47064 0.32707 0.0
H2153 H 0.43103 0.41793 0.27681 0.0
C2154 C 0.3619 0.38611 0.33289 0.0
C2155 C 0.35212 0.39132 0.35218 0.0
C2156 C 0.36314 0.40866 0.36834 0.0
C2157 C 0.38335 0.42109 0.3645 0.0
C2158 C 0.39245 0.41597 0.34451 0.0
C2159 C 0.38214 0.3988 0.32915 0.0
C2160 C 0.39491 0.39777 0.30681 0.0
C2161 C 0.39851 0.38116 0.31297 0.0
C2162 C 0.38589 0.3958 0.27687 0.0
C2163 C 0.41362 0.41736 0.31121 0.0
C2164 C 0.41205 0.42753 0.33335 0.0
C2165 C 0.42687 0.4466 0.33981 0.0
C2166 C 0.44356 0.45562 0.32285 0.0
C2167 C 0.44517 0.44561 0.29955 0.0
C2168 C 0.43019 0.42605 0.29433 0.0
H2169 H 0.3285 0.30404 0.36593 0.0
H2170 H 0.26883 0.27779 0.33202 0.0
H2171 H 0.26503 0.24539 0.33512 0.0
H2172 H 0.34045 0.27039 0.33158 0.0
H2173 H 0.35458 0.27057 0.36211 0.0
H2174 H 0.35323 0.29167 0.35398 0.0
H2175 H 0.34047 0.29099 0.40426 0.0
H2176 H 0.34199 0.27007 0.41255 0.0
H2177 H 0.31904 0.26912 0.41627 0.0
H2178 H 0.26649 0.21535 0.3485 0.0
H2179 H 0.27314 0.19139 0.37097 0.0
H2180 H 0.33216 0.2376 0.39363 0.0
C2181 C 0.31472 0.29155 0.35862 0.0
C2182 C 0.29897 0.29353 0.34867 0.0
C2183 C 0.28117 0.27671 0.33956 0.0
C2184 C 0.27889 0.25822 0.34121 0.0
C2185 C 0.29465 0.25678 0.35161 0.0
C2186 C 0.31228 0.27308 0.35993 0.0
C2187 C 0.32653 0.26772 0.37225 0.0
C2188 C 0.34478 0.27555 0.35387 0.0
C2189 C 0.33233 0.27489 0.40315 0.0
C2190 C 0.31401 0.2458 0.37049 0.0
C2191 C 0.29569 0.23966 0.35831 0.0
C2192 C 0.28097 0.22 0.35729 0.0
C2193 C 0.28488 0.20644 0.36984 0.0
C2194 C 0.30339 0.2126 0.38297 0.0
C2195 C 0.31821 0.23245 0.38254 0.0
H2196 H 0.71438 0.02119 0.35295 0.0
H2197 H 0.7576 0.01677 0.30483 0.0
H2198 H 0.78097 0.05179 0.31129 0.0
H2199 H 0.73002 0.07274 0.33048 0.0
H2200 H 0.72593 0.07859 0.36546 0.0
H2201 H 0.71091 0.05419 0.35171 0.0
H2202 H 0.72032 0.04121 0.39576 0.0
H2203 H 0.73538 0.06546 0.40952 0.0
H2204 H 0.74594 0.0507 0.40441 0.0
H2205 H 0.80161 0.0848 0.33067 0.0
H2206 H 0.81817 0.11338 0.36163 0.0
H2207 H 0.76172 0.09843 0.39555 0.0
C2208 C 0.72848 0.02779 0.34284 0.0
C2209 C 0.73413 0.0163 0.3282 0.0
C2210 C 0.75294 0.0253 0.31606 0.0
C2211 C 0.76629 0.04523 0.31946 0.0
C2212 C 0.76062 0.05606 0.33494 0.0
C2213 C 0.7421 0.04775 0.34624 0.0
C2214 C 0.74071 0.06214 0.3651 0.0
C2215 C 0.72602 0.06722 0.35242 0.0
C2216 C 0.73528 0.05441 0.39548 0.0
C2217 C 0.76165 0.07934 0.36398 0.0
C2218 C 0.77274 0.07563 0.34599 0.0
C2219 C 0.79298 0.08819 0.34413 0.0
C2220 C 0.80228 0.10462 0.36181 0.0
C2221 C 0.79139 0.10853 0.38119 0.0
C2222 C 0.77064 0.09602 0.38119 0.0
H2223 H 0.98201 0.69666 0.34641 0.0
H2224 H 0.98983 0.74838 0.30557 0.0
H2225 H 0.95481 0.73672 0.3117 0.0
H2226 H 0.93056 0.66282 0.31873 0.0
H2227 H 0.92333 0.64976 0.35161 0.0
H2228 H 0.94836 0.66076 0.34032 0.0
H2229 H 0.96081 0.67967 0.38796 0.0
H2230 H 0.93589 0.6688 0.39931 0.0
H2231 H 0.95164 0.69482 0.39879 0.0
H2232 H 0.92005 0.72175 0.32805 0.0
H2233 H 0.88865 0.70447 0.35349 0.0
H2234 H 0.90283 0.66187 0.38161 0.0
C2235 C 0.97623 0.70526 0.33806 0.0
C2236 C 0.98874 0.72343 0.32547 0.0
C2237 C 0.98061 0.73442 0.31533 0.0
C2238 C 0.96067 0.72788 0.31859 0.0
C2239 C 0.94885 0.71021 0.33181 0.0
C2240 C 0.95628 0.69894 0.34116 0.0
C2241 C 0.94085 0.68132 0.35679 0.0
C2242 C 0.93545 0.66255 0.34091 0.0
C2243 C 0.94771 0.68116 0.38753 0.0
C2244 C 0.92393 0.68487 0.3557 0.0
C2245 C 0.92871 0.70146 0.34092 0.0
C2246 C 0.91598 0.7085 0.33922 0.0
C2247 C 0.89812 0.69856 0.35362 0.0
C2248 C 0.89328 0.68187 0.36964 0.0
C2249 C 0.90614 0.67468 0.36972 0.0
H2250 H 0.37197 0.04932 0.68671 0.0
H2251 H 0.33536 0.99439 0.64259 0.0
H2252 H 0.36236 0.98791 0.64626 0.0
H2253 H 0.41917 0.06074 0.65587 0.0
H2254 H 0.43279 0.07122 0.68856 0.0
H2255 H 0.41128 0.07243 0.68002 0.0
H2256 H 0.39603 0.05597 0.72762 0.0
H2257 H 0.41745 0.0547 0.73627 0.0
H2258 H 0.39341 0.03294 0.73595 0.0
H2259 H 0.3922 0.98582 0.65915 0.0
H2260 H 0.42209 0.98835 0.6803 0.0
H2261 H 0.44008 0.04539 0.71373 0.0
C2262 C 0.36973 0.03609 0.67735 0.0
C2263 C 0.35148 0.02241 0.66427 0.0
C2264 C 0.34917 0.00516 0.65262 0.0
C2265 C 0.36447 1.00135 0.65455 0.0
C2266 C 0.38214 0.01498 0.66796 0.0
C2267 C 0.3849 0.03208 0.67898 0.0
C2268 C 0.4049 0.04383 0.69373 0.0
C2269 C 0.4178 0.0632 0.67863 0.0
C2270 C 0.40281 0.04704 0.72525 0.0
C2271 C 0.4127 0.03041 0.69003 0.0
C2272 C 0.39944 0.01391 0.67492 0.0
C2273 C 0.40286 0.99885 0.67057 0.0
C2274 C 0.42002 1.00049 0.68251 0.0
C2275 C 0.43364 0.01709 0.69871 0.0
C2276 C 0.43003 0.03242 0.70167 0.0
H2277 H 1.00112 0.35628 0.74228 0.0
H2278 H 0.95642 0.3334 0.67503 0.0
H2279 H 0.95721 0.36449 0.67412 0.0
H2280 H 0.98284 0.38037 0.77984 0.0
H2281 H 0.00668 0.40065 0.79014 0.0
H2282 H 1.00369 0.37738 0.78335 0.0
H2283 H 0.03108 0.39283 0.74615 0.0
H2284 H 0.03411 0.41619 0.75279 0.0
H2285 H 0.02895 0.40636 0.71727 0.0
H2286 H 0.96131 0.39785 0.68389 0.0
H2287 H 0.96765 0.429 0.70427 0.0
H2288 H 0.01004 0.42928 0.76382 0.0
C2289 C 0.99163 0.35781 0.72706 0.0
C2290 C 0.97871 0.34237 0.70871 0.0
C2291 C 0.9665 0.34504 0.68925 0.0
C2292 C 0.96688 0.36268 0.68855 0.0
C2293 C 0.97968 0.37755 0.70725 0.0
C2294 C 0.99188 0.37523 0.72604 0.0
C2295 C 1.00357 0.39282 0.74505 0.0
C2296 C 0.99891 0.38748 0.77643 0.0
C2297 C 0.02574 0.40263 0.74 0.0
C2298 C 0.99573 0.40528 0.73461 0.0
C2299 C 0.9821 0.39644 0.71262 0.0
C2300 C 0.97214 0.40497 0.70087 0.0
C2301 C 0.97588 0.42269 0.71242 0.0
C2302 C 0.9893 0.4315 0.7356 0.0
C2303 C 0.99968 0.42287 0.74611 0.0
H2304 H 0.65964 0.59779 0.69051 0.0
H2305 H 0.66601 0.65451 0.6913 0.0
H2306 H 0.63057 0.63908 0.70107 0.0
H2307 H 0.60947 0.57089 0.65826 0.0
H2308 H 0.60244 0.54989 0.67982 0.0
H2309 H 0.62767 0.56523 0.66966 0.0
H2310 H 0.63902 0.56992 0.72249 0.0
H2311 H 0.6139 0.55459 0.73276 0.0
H2312 H 0.62854 0.5788 0.7472 0.0
H2313 H 0.59546 0.6177 0.71654 0.0
H2314 H 0.56382 0.59231 0.73621 0.0
H2315 H 0.58041 0.54967 0.72392 0.0
C2316 C 0.65358 0.607 0.69226 0.0
C2317 C 0.66565 0.62739 0.69013 0.0
C2318 C 0.65707 0.63887 0.69273 0.0
C2319 C 0.63694 0.63022 0.69822 0.0
C2320 C 0.62556 0.61007 0.70066 0.0
C2321 C 0.63358 0.59862 0.69755 0.0
C2322 C 0.61861 0.57748 0.70303 0.0
C2323 C 0.61429 0.56515 0.67608 0.0
C2324 C 0.62543 0.56976 0.72785 0.0
C2325 C 0.60105 0.57885 0.71072 0.0
C2326 C 0.60526 0.59774 0.70895 0.0
C2327 C 0.59188 0.60282 0.71741 0.0
C2328 C 0.57397 0.58834 0.72853 0.0
C2329 C 0.56959 0.56902 0.73101 0.0
C2330 C 0.58314 0.56419 0.72138 0.0
H2331 H 0.68761 0.70858 0.6423 0.0
H2332 H 0.74652 0.73727 0.67985 0.0
H2333 H 0.74833 0.76875 0.67693 0.0
H2334 H 0.69675 0.74416 0.59255 0.0
H2335 H 0.67295 0.74158 0.59485 0.0
H2336 H 0.67574 0.72136 0.60288 0.0
H2337 H 0.66089 0.71858 0.65223 0.0
H2338 H 0.65831 0.73902 0.64441 0.0
H2339 H 0.6719 0.73935 0.67572 0.0
H2340 H 0.74481 0.79757 0.66545 0.0
H2341 H 0.73734 0.82084 0.64317 0.0
H2342 H 0.68028 0.77308 0.61504 0.0
C2343 C 0.70083 0.72142 0.65028 0.0
C2344 C 0.71691 0.72039 0.66137 0.0
C2345 C 0.73398 0.73764 0.6713 0.0
C2346 C 0.73509 0.75558 0.66989 0.0
C2347 C 0.71897 0.75606 0.65873 0.0
C2348 C 0.70216 0.73939 0.64909 0.0
C2349 C 0.68744 0.74389 0.63603 0.0
C2350 C 0.68297 0.73737 0.60473 0.0
C2351 C 0.66852 0.73466 0.65313 0.0
C2352 C 0.69883 0.76578 0.63893 0.0
C2353 C 0.71686 0.77256 0.65246 0.0
C2354 C 0.73058 0.7924 0.65529 0.0
C2355 C 0.72613 0.80555 0.64281 0.0
C2356 C 0.70817 0.79882 0.6275 0.0
C2357 C 0.69406 0.7787 0.62681 0.0
H2358 H 0.28009 0.97914 0.682 0.0
H2359 H 0.23162 0.98573 0.70597 0.0
H2360 H 0.20885 0.95048 0.70119 0.0
H2361 H 0.2554 0.946 0.62904 0.0
H2362 H 0.26671 0.93192 0.63539 0.0
H2363 H 0.27952 0.95702 0.64572 0.0
H2364 H 0.28293 0.94749 0.69718 0.0
H2365 H 0.26979 0.92223 0.68694 0.0
H2366 H 0.26122 0.93025 0.71574 0.0
H2367 H 0.19042 0.91589 0.68461 0.0
H2368 H 0.17859 0.88559 0.65697 0.0
H2369 H 0.23873 0.90047 0.6475 0.0
C2370 C 0.26479 0.97311 0.68703 0.0
C2371 C 0.25772 0.98527 0.69439 0.0
C2372 C 0.23748 0.97678 0.70033 0.0
C2373 C 0.2244 0.9567 0.69785 0.0
C2374 C 0.23174 0.94515 0.68987 0.0
C2375 C 0.25152 0.95304 0.68482 0.0
C2376 C 0.25533 0.93782 0.67352 0.0
C2377 C 0.26478 0.94353 0.64419 0.0
C2378 C 0.26807 0.93424 0.69461 0.0
C2379 C 0.2345 0.92044 0.67157 0.0
C2380 C 0.22107 0.92482 0.68149 0.0
C2381 C 0.20078 0.912 0.67773 0.0
C2382 C 0.19413 0.89473 0.66226 0.0
C2383 C 0.20775 0.89053 0.65101 0.0
C2384 C 0.22806 0.90307 0.65702 0.0
H2385 H 0.0281 0.31008 0.6726 0.0
H2386 H 0.03254 0.28573 0.75231 0.0
H2387 H 0.06794 0.29896 0.74475 0.0
H2388 H 0.05423 0.29541 0.63616 0.0
H2389 H 0.06599 0.31598 0.61296 0.0
H2390 H 0.0428 0.30918 0.62798 0.0
H2391 H 0.05793 0.34377 0.64923 0.0
H2392 H 0.08126 0.35068 0.63418 0.0
H2393 H 0.07975 0.35371 0.67165 0.0
H2394 H 0.10172 0.31112 0.72532 0.0
H2395 H 0.12956 0.31877 0.69472 0.0
H2396 H 0.10076 0.33128 0.62579 0.0
C2397 C 0.03677 0.30832 0.68902 0.0
C2398 C 0.02781 0.29733 0.71332 0.0
C2399 C 0.03931 0.29443 0.73376 0.0
C2400 C 0.05941 0.30193 0.72967 0.0
C2401 C 0.06771 0.3121 0.70487 0.0
C2402 C 0.05668 0.31524 0.68485 0.0
C2403 C 0.06795 0.32362 0.65801 0.0
C2404 C 0.0571 0.31024 0.63229 0.0
C2405 C 0.07196 0.34417 0.65298 0.0
C2406 C 0.08673 0.32407 0.66562 0.0
C2407 C 0.08663 0.31793 0.69297 0.0
C2408 C 0.10203 0.31612 0.70393 0.0
C2409 C 0.11772 0.32033 0.68626 0.0
C2410 C 0.11768 0.32581 0.65767 0.0
C2411 C 0.10197 0.32791 0.64766 0.0
H2412 H 0.28864 0.28309 0.66309 0.0
H2413 H 0.30603 0.32438 0.73241 0.0
H2414 H 0.27633 0.32619 0.72305 0.0
H2415 H 0.27398 0.30653 0.61706 0.0
H2416 H 0.25365 0.28492 0.60105 0.0
H2417 H 0.27428 0.28437 0.61619 0.0
H2418 H 0.25096 0.25592 0.64851 0.0
H2419 H 0.23018 0.25627 0.6333 0.0
H2420 H 0.23452 0.25847 0.67113 0.0
H2421 H 0.24634 0.32607 0.70243 0.0
H2422 H 0.2199 0.32471 0.67167 0.0
H2423 H 0.22317 0.28417 0.61573 0.0
C2424 C 0.28595 0.29209 0.67689 0.0
C2425 C 0.2996 0.30345 0.69868 0.0
C2426 C 0.29572 0.31542 0.71573 0.0
C2427 C 0.27886 0.31652 0.71059 0.0
C2428 C 0.266 0.30554 0.68836 0.0
C2429 C 0.26936 0.29349 0.67187 0.0
C2430 C 0.25452 0.28468 0.64753 0.0
C2431 C 0.26472 0.29048 0.61878 0.0
C2432 C 0.24179 0.26252 0.6503 0.0
C2433 C 0.24262 0.29406 0.65234 0.0
C2434 C 0.24918 0.30581 0.67623 0.0
C2435 C 0.24095 0.31672 0.6839 0.0
C2436 C 0.22593 0.31584 0.6664 0.0
C2437 C 0.21957 0.30438 0.64136 0.0
C2438 C 0.22779 0.29309 0.63474 0.0
H2439 H 0.6676 0.9688 0.65812 0.0
H2440 H 0.72847 0.00717 0.68531 0.0
H2441 H 0.73416 0.98001 0.6818 0.0
H2442 H 0.6606 0.92408 0.69308 0.0
H2443 H 0.64558 0.90885 0.66385 0.0
H2444 H 0.6455 0.93052 0.67254 0.0
H2445 H 0.65501 0.94274 0.62113 0.0
H2446 H 0.65496 0.92111 0.61232 0.0
H2447 H 0.67661 0.94454 0.60653 0.0
H2448 H 0.73443 0.94994 0.66901 0.0
H2449 H 0.72962 0.92044 0.64573 0.0
H2450 H 0.66824 0.90098 0.62912 0.0
C2451 C 0.68202 0.97142 0.66396 0.0
C2452 C 0.69755 0.99015 0.67209 0.0
C2453 C 0.71628 0.99296 0.6791 0.0
C2454 C 0.71965 0.97758 0.67733 0.0
C2455 C 0.7041 0.95936 0.6688 0.0
C2456 C 0.68562 0.95621 0.66235 0.0
C2457 C 0.67191 0.93579 0.65113 0.0
C2458 C 0.65489 0.92412 0.67137 0.0
C2459 C 0.66418 0.93608 0.621 0.0
C2460 C 0.68578 0.92823 0.6511 0.0
C2461 C 0.7042 0.94191 0.66182 0.0
C2462 C 0.71995 0.93894 0.66117 0.0
C2463 C 0.71704 0.922 0.64811 0.0
C2464 C 0.69853 0.90827 0.63568 0.0
C2465 C 0.68254 0.91112 0.63855 0.0
H2466 H 0.01853 0.73438 0.6503 0.0
H2467 H 0.02095 0.68246 0.66327 0.0
H2468 H 0.05726 0.70206 0.65929 0.0
H2469 H 0.05266 0.75338 0.59733 0.0
H2470 H 0.063 0.77832 0.60794 0.0
H2471 H 0.03794 0.76062 0.61587 0.0
H2472 H 0.04551 0.77003 0.66915 0.0
H2473 H 0.07073 0.78767 0.66133 0.0
H2474 H 0.06523 0.76905 0.68703 0.0
H2475 H 0.09325 0.72732 0.6492 0.0
H2476 H 0.12415 0.75458 0.63009 0.0
H2477 H 0.0972 0.78911 0.62305 0.0
C2478 C 0.02664 0.72708 0.65291 0.0
C2479 C 0.01684 0.70685 0.65734 0.0
C2480 C 0.02811 0.69794 0.66004 0.0
C2481 C 0.04875 0.70899 0.65795 0.0
C2482 C 0.05788 0.72892 0.65324 0.0
C2483 C 0.04707 0.7378 0.65068 0.0
C2484 C 0.05984 0.75893 0.64283 0.0
C2485 C 0.05295 0.76303 0.6143 0.0
C2486 C 0.06035 0.7722 0.6665 0.0
C2487 C 0.07952 0.76054 0.64053 0.0
C2488 C 0.07828 0.74324 0.64715 0.0
C2489 C 0.09442 0.741 0.6445 0.0
C2490 C 0.11196 0.75657 0.63388 0.0
C2491 C 0.11307 0.774 0.62582 0.0
C2492 C 0.09683 0.77611 0.6299 0.0
H2493 H 0.973 0.61136 0.66561 0.0
H2494 H 0.90927 0.57592 0.66587 0.0
H2495 H 0.91129 0.54697 0.67582 0.0
H2496 H 0.98133 0.57426 0.63386 0.0
H2497 H 1.00297 0.58174 0.65585 0.0
H2498 H 0.99647 0.5992 0.64528 0.0
H2499 H 0.99651 0.60825 0.69798 0.0
H2500 H 1.00332 0.5911 0.70852 0.0
H2501 H 0.98164 0.58935 0.72261 0.0
H2502 H 0.92044 0.52284 0.69296 0.0
H2503 H 0.93611 0.50656 0.71653 0.0
H2504 H 0.99349 0.55699 0.70195 0.0
C2505 C 0.95944 0.59746 0.66722 0.0
C2506 C 0.94097 0.59597 0.66488 0.0
C2507 C 0.92361 0.57749 0.66745 0.0
C2508 C 0.92461 0.5609 0.67299 0.0
C2509 C 0.94306 0.56292 0.67551 0.0
C2510 C 0.96017 0.58075 0.67253 0.0
C2511 C 0.97818 0.5794 0.67846 0.0
C2512 C 0.99046 0.58391 0.65176 0.0
C2513 C 0.99063 0.59281 0.70337 0.0
C2514 C 0.96857 0.5582 0.68625 0.0
C2515 C 0.94829 0.54881 0.68418 0.0
C2516 C 0.93631 0.52984 0.69378 0.0
C2517 C 0.94527 0.52057 0.70685 0.0
C2518 C 0.96597 0.53024 0.70991 0.0
C2519 C 0.97767 0.54897 0.69852 0.0
H2520 H 0.41974 0.36987 0.65749 0.0
H2521 H 0.36125 0.35705 0.67709 0.0
H2522 H 0.37458 0.39185 0.68615 0.0
H2523 H 0.44308 0.40055 0.7118 0.0
H2524 H 0.46531 0.41704 0.69364 0.0
H2525 H 0.45051 0.39233 0.68183 0.0
H2526 H 0.44802 0.40406 0.63151 0.0
H2527 H 0.46273 0.42893 0.64343 0.0
H2528 H 0.43884 0.42015 0.62706 0.0
H2529 H 0.39482 0.42631 0.70216 0.0
H2530 H 0.42013 0.45618 0.72698 0.0
H2531 H 0.46548 0.44678 0.69707 0.0
C2532 C 0.4096 0.37445 0.66269 0.0
C2533 C 0.38943 0.36073 0.66638 0.0
C2534 C 0.37674 0.36729 0.67396 0.0
C2535 C 0.38417 0.38707 0.67895 0.0
C2536 C 0.40429 0.40016 0.67604 0.0
C2537 C 0.41681 0.39409 0.66795 0.0
C2538 C 0.43813 0.41035 0.67066 0.0
C2539 C 0.44992 0.40473 0.69068 0.0
C2540 C 0.44748 0.41622 0.64142 0.0
C2541 C 0.43576 0.42616 0.68335 0.0
C2542 C 0.4161 0.42023 0.68545 0.0
C2543 C 0.41024 0.43133 0.69992 0.0
C2544 C 0.42471 0.44832 0.71389 0.0
C2545 C 0.44476 0.45391 0.71353 0.0
C2546 C 0.45035 0.44323 0.6968 0.0
H2547 H 0.65089 0.0664 0.69787 0.0
H2548 H 0.64311 0.01575 0.65398 0.0
H2549 H 0.60689 1.001 0.65435 0.0
H2550 H 0.61146 0.04023 0.74434 0.0
H2551 H 0.60486 0.05843 0.74502 0.0
H2552 H 0.62983 0.06534 0.73859 0.0
H2553 H 0.62864 0.08169 0.69178 0.0
H2554 H 0.60348 0.07448 0.69788 0.0
H2555 H 0.60976 0.06765 0.66533 0.0
H2556 H 0.5713 0.9916 0.6609 0.0
H2557 H 0.53997 0.98623 0.67935 0.0
H2558 H 0.57156 0.04239 0.72097 0.0
C2559 C 0.64159 0.05229 0.68801 0.0
C2560 C 0.64979 0.0423 0.67555 0.0
C2561 C 0.63711 0.02366 0.66355 0.0
C2562 C 0.61656 0.01527 0.66347 0.0
C2563 C 0.60896 0.02564 0.67575 0.0
C2564 C 0.62115 0.04362 0.68822 0.0
C2565 C 0.60946 0.05105 0.70241 0.0
C2566 C 0.61418 0.05392 0.73448 0.0
C2567 C 0.61306 0.06983 0.68851 0.0
C2568 C 0.58872 0.03438 0.69626 0.0
C2569 C 0.58868 0.02002 0.68034 0.0
C2570 C 0.57119 1.00285 0.67311 0.0
C2571 C 0.55345 0.99999 0.68338 0.0
C2572 C 0.55341 0.01412 0.70091 0.0
C2573 C 0.5712 0.03166 0.70686 0.0
loop_
_geom_bond_atom_site_label_1
_geom_bond_atom_site_label_2
_geom_bond_distance
_geom_bond_site_symmetry_2
_ccdc_geom_bond_type
Zn0 O3 2.031 1_554 S
Zn0 O5 2.049 . S
Zn0 O10 2.067 1_554 S
Zn1 O2 1.962 1_455 S
Zn1 O4 1.986 . S
Zn1 O6 1.996 1_455 S
Zn1 O9 1.943 1_554 S
O2 Zn1 1.962 1_655 S
O2 C7 1.254 1_554 S
O3 Zn0 2.031 1_556 S
O3 C7 1.269 . S
O4 Zn1 1.986 . S
O4 C11 1.262 . S
O5 Zn0 2.049 . S
O5 C13 1.260 . S
O6 Zn1 1.996 1_655 S
O6 C13 1.257 . S
C7 O2 1.254 1_556 S
C7 O3 1.269 . S
C8 O9 1.249 . S
C8 O10 1.270 1_455 S
O9 Zn1 1.943 1_556 S
O9 C8 1.249 . S
O10 Zn0 2.067 1_556 S
O10 C8 1.270 1_655 S
C11 O4 1.262 . S
C11 O12 1.232 . S
O12 C11 1.232 . S
C13 O5 1.260 . S
C13 O6 1.257 . S
Zn14 O17 2.031 1_554 S
Zn14 O19 2.049 . S
Zn14 O24 2.067 1_554 S
Zn15 O16 1.962 . S
Zn15 O18 1.986 . S
Zn15 O20 1.996 . S
Zn15 O23 1.943 1_554 S
O16 Zn15 1.962 . S
O16 C21 1.254 1_554 S
O17 Zn14 2.031 1_556 S
O17 C21 1.269 . S
O18 Zn15 1.986 . S
O18 C25 1.262 . S
O19 Zn14 2.049 . S
O19 C27 1.260 . S
O20 Zn15 1.996 . S
O20 C27 1.257 . S
C21 O16 1.254 1_556 S
C21 O17 1.269 . S
C22 O23 1.249 . S
C22 O24 1.270 . S
O23 Zn15 1.943 1_556 S
O23 C22 1.249 . S
O24 Zn14 2.067 1_556 S
O24 C22 1.270 . S
C25 O18 1.262 . S
C25 O26 1.232 . S
O26 C25 1.232 . S
C27 O19 1.260 . S
C27 O20 1.257 . S
Zn28 O31 2.031 . S
Zn28 O33 2.049 1_554 S
Zn28 O38 2.067 . S
Zn29 O30 1.962 1_545 S
Zn29 O32 1.986 1_554 S
Zn29 O34 1.996 1_544 S
Zn29 O37 1.943 . S
O30 Zn29 1.962 1_565 S
O30 C35 1.254 . S
O31 Zn28 2.031 . S
O31 C35 1.269 . S
O32 Zn29 1.986 1_556 S
O32 C39 1.262 . S
O33 Zn28 2.049 1_556 S
O33 C41 1.260 . S
O34 Zn29 1.996 1_566 S
O34 C41 1.257 . S
C35 O30 1.254 . S
C35 O31 1.269 . S
C36 O37 1.249 . S
C36 O38 1.270 1_545 S
O37 Zn29 1.943 . S
O37 C36 1.249 . S
O38 Zn28 2.067 . S
O38 C36 1.270 1_565 S
C39 O32 1.262 . S
C39 O40 1.232 1_556 S
O40 C39 1.232 1_554 S
C41 O33 1.260 . S
C41 O34 1.257 . S
Zn42 O45 2.031 . S
Zn42 O47 2.049 1_554 S
Zn42 O52 2.067 . S
Zn43 O44 1.962 1_655 S
Zn43 O46 1.986 1_554 S
Zn43 O48 1.996 1_654 S
Zn43 O51 1.943 . S
O44 Zn43 1.962 1_455 S
O44 C49 1.254 . S
O45 Zn42 2.031 . S
O45 C49 1.269 . S
O46 Zn43 1.986 1_556 S
O46 C53 1.262 . S
O47 Zn42 2.049 1_556 S
O47 C55 1.260 . S
O48 Zn43 1.996 1_456 S
O48 C55 1.257 . S
C49 O44 1.254 . S
C49 O45 1.269 . S
C50 O51 1.249 . S
C50 O52 1.270 1_655 S
O51 Zn43 1.943 . S
O51 C50 1.249 . S
O52 Zn42 2.067 . S
O52 C50 1.270 1_455 S
C53 O46 1.262 . S
C53 O54 1.232 1_556 S
O54 C53 1.232 1_554 S
C55 O47 1.260 . S
C55 O48 1.257 . S
Zn56 O59 2.031 . S
Zn56 O61 2.049 1_554 S
Zn56 O66 2.067 . S
Zn57 O58 1.962 . S
Zn57 O60 1.986 1_554 S
Zn57 O62 1.996 1_554 S
Zn57 O65 1.943 . S
O58 Zn57 1.962 . S
O58 C63 1.254 . S
O59 Zn56 2.031 . S
O59 C63 1.269 . S
O60 Zn57 1.986 1_556 S
O60 C67 1.262 . S
O61 Zn56 2.049 1_556 S
O61 C69 1.260 . S
O62 Zn57 1.996 1_556 S
O62 C69 1.257 . S
C63 O58 1.254 . S
C63 O59 1.269 . S
C64 O65 1.249 . S
C64 O66 1.270 . S
O65 Zn57 1.943 . S
O65 C64 1.249 . S
O66 Zn56 2.067 . S
O66 C64 1.270 . S
C67 O60 1.262 . S
C67 O68 1.232 1_556 S
O68 C67 1.232 1_554 S
C69 O61 1.260 . S
C69 O62 1.257 . S
Zn70 O73 2.031 1_554 S
Zn70 O75 2.049 . S
Zn70 O80 2.067 1_554 S
Zn71 O72 1.962 1_565 S
Zn71 O74 1.986 . S
Zn71 O76 1.996 1_565 S
Zn71 O79 1.943 1_554 S
O72 Zn71 1.962 1_545 S
O72 C77 1.254 . S
O73 Zn70 2.031 1_556 S
O73 C77 1.269 1_556 S
O74 Zn71 1.986 . S
O74 C81 1.262 . S
O75 Zn70 2.049 . S
O75 C83 1.260 . S
O76 Zn71 1.996 1_545 S
O76 C83 1.257 . S
C77 O72 1.254 . S
C77 O73 1.269 1_554 S
C78 O79 1.249 . S
C78 O80 1.270 1_565 S
O79 Zn71 1.943 1_556 S
O79 C78 1.249 . S
O80 Zn70 2.067 1_556 S
O80 C78 1.270 1_545 S
C81 O74 1.262 . S
C81 O82 1.232 . S
O82 C81 1.232 . S
C83 O75 1.260 . S
C83 O76 1.257 . S
Zn84 O87 2.031 . S
Zn84 O89 2.049 . S
Zn84 O94 2.067 . S
Zn85 O86 1.962 . S
Zn85 O88 1.986 . S
Zn85 O90 1.996 . S
Zn85 O93 1.943 . S
O86 Zn85 1.962 . S
O86 C91 1.254 . S
O87 Zn84 2.031 . S
O87 C91 1.269 . S
O88 Zn85 1.986 . S
O88 C95 1.262 . S
O89 Zn84 2.049 . S
O89 C97 1.260 . S
O90 Zn85 1.996 . S
O90 C97 1.257 . S
C91 O86 1.254 . S
C91 O87 1.269 . S
C92 O93 1.249 . S
C92 O94 1.270 . S
O93 Zn85 1.943 . S
O93 C92 1.249 . S
O94 Zn84 2.067 . S
O94 C92 1.270 . S
C95 O88 1.262 . S
C95 O96 1.232 . S
O96 C95 1.232 . S
C97 O89 1.260 . S
C97 O90 1.257 . S
Zn98 O101 2.031 . S
Zn98 O103 2.049 . S
Zn98 O108 2.067 . S
Zn99 O100 1.962 . S
Zn99 O102 1.986 1_565 S
Zn99 O104 1.996 . S
Zn99 O107 1.943 . S
O100 Zn99 1.962 . S
O100 C105 1.254 . S
O101 Zn98 2.031 . S
O101 C105 1.269 . S
O102 Zn99 1.986 1_545 S
O102 C109 1.262 . S
O103 Zn98 2.049 . S
O103 C111 1.260 . S
O104 Zn99 1.996 . S
O104 C111 1.257 . S
C105 O100 1.254 . S
C105 O101 1.269 . S
C106 O107 1.249 . S
C106 O108 1.270 . S
O107 Zn99 1.943 . S
O107 C106 1.249 . S
O108 Zn98 2.067 . S
O108 C106 1.270 . S
C109 O102 1.262 . S
C109 O110 1.232 . S
O110 C109 1.232 . S
C111 O103 1.260 . S
C111 O104 1.257 . S
Zn112 O115 2.031 . S
Zn112 O117 2.049 . S
Zn112 O122 2.067 . S
Zn113 O114 1.962 1_455 S
Zn113 O116 1.986 . S
Zn113 O118 1.996 . S
Zn113 O121 1.943 . S
O114 Zn113 1.962 1_655 S
O114 C119 1.254 . S
O115 Zn112 2.031 . S
O115 C119 1.269 1_455 S
O116 Zn113 1.986 . S
O116 C123 1.262 . S
O117 Zn112 2.049 . S
O117 C125 1.260 . S
O118 Zn113 1.996 . S
O118 C125 1.257 . S
C119 O114 1.254 . S
C119 O115 1.269 1_655 S
C120 O121 1.249 . S
C120 O122 1.270 . S
O121 Zn113 1.943 . S
O121 C120 1.249 . S
O122 Zn112 2.067 . S
O122 C120 1.270 . S
C123 O116 1.262 . S
C123 O124 1.232 . S
O124 C123 1.232 . S
C125 O117 1.260 . S
C125 O118 1.257 . S
Zn126 O129 2.031 . S
Zn126 O131 2.049 . S
Zn126 O136 2.067 . S
Zn127 O128 1.962 1_565 S
Zn127 O130 1.986 . S
Zn127 O132 1.996 . S
Zn127 O135 1.943 . S
O128 Zn127 1.962 1_545 S
O128 C133 1.254 . S
O129 Zn126 2.031 . S
O129 C133 1.269 1_565 S
O130 Zn127 1.986 . S
O130 C137 1.262 . S
O131 Zn126 2.049 . S
O131 C139 1.260 . S
O132 Zn127 1.996 . S
O132 C139 1.257 . S
C133 O128 1.254 . S
C133 O129 1.269 1_545 S
C134 O135 1.249 . S
C134 O136 1.270 . S
O135 Zn127 1.943 . S
O135 C134 1.249 . S
O136 Zn126 2.067 . S
O136 C134 1.270 . S
C137 O130 1.262 . S
C137 O138 1.232 . S
O138 C137 1.232 . S
C139 O131 1.260 . S
C139 O132 1.257 . S
Zn140 O143 2.031 . S
Zn140 O145 2.049 . S
Zn140 O150 2.067 . S
Zn141 O142 1.962 1_455 S
Zn141 O144 1.986 . S
Zn141 O146 1.996 . S
Zn141 O149 1.943 . S
O142 Zn141 1.962 1_655 S
O142 C147 1.254 . S
O143 Zn140 2.031 . S
O143 C147 1.269 1_455 S
O144 Zn141 1.986 . S
O144 C151 1.262 . S
O145 Zn140 2.049 . S
O145 C153 1.260 . S
O146 Zn141 1.996 . S
O146 C153 1.257 . S
C147 O142 1.254 . S
C147 O143 1.269 1_655 S
C148 O149 1.249 . S
C148 O150 1.270 . S
O149 Zn141 1.943 . S
O149 C148 1.249 . S
O150 Zn140 2.067 . S
O150 C148 1.270 . S
C151 O144 1.262 . S
C151 O152 1.232 . S
O152 C151 1.232 . S
C153 O145 1.260 . S
C153 O146 1.257 . S
Zn154 O157 2.031 . S
Zn154 O159 2.049 . S
Zn154 O164 2.067 . S
Zn155 O156 1.962 . S
Zn155 O158 1.986 . S
Zn155 O160 1.996 . S
Zn155 O163 1.943 . S
O156 Zn155 1.962 . S
O156 C161 1.254 . S
O157 Zn154 2.031 . S
O157 C161 1.269 . S
O158 Zn155 1.986 . S
O158 C165 1.262 . S
O159 Zn154 2.049 . S
O159 C167 1.260 . S
O160 Zn155 1.996 . S
O160 C167 1.257 . S
C161 O156 1.254 . S
C161 O157 1.269 . S
C162 O163 1.249 . S
C162 O164 1.270 . S
O163 Zn155 1.943 . S
O163 C162 1.249 . S
O164 Zn154 2.067 . S
O164 C162 1.270 . S
C165 O158 1.262 . S
C165 O166 1.232 . S
O166 C165 1.232 . S
C167 O159 1.260 . S
C167 O160 1.257 . S
Zn168 O171 2.031 . S
Zn168 O173 2.049 . S
Zn168 O178 2.067 . S
Zn169 O170 1.962 1_545 S
Zn169 O172 1.986 . S
Zn169 O174 1.996 . S
Zn169 O177 1.943 . S
O170 Zn169 1.962 1_565 S
O170 C175 1.254 . S
O171 Zn168 2.031 . S
O171 C175 1.269 1_545 S
O172 Zn169 1.986 . S
O172 C179 1.262 . S
O173 Zn168 2.049 . S
O173 C181 1.260 . S
O174 Zn169 1.996 . S
O174 C181 1.257 . S
C175 O170 1.254 . S
C175 O171 1.269 1_565 S
C176 O177 1.249 . S
C176 O178 1.270 . S
O177 Zn169 1.943 . S
O177 C176 1.249 . S
O178 Zn168 2.067 . S
O178 C176 1.270 . S
C179 O172 1.262 . S
C179 O180 1.232 . S
O180 C179 1.232 . S
C181 O173 1.260 . S
C181 O174 1.257 . S
Zn182 O185 2.035 . S
Zn182 O187 2.049 . S
Zn182 O192 2.067 . S
Zn183 O184 1.962 1_655 S
Zn183 O186 1.986 . S
Zn183 O188 1.996 . S
Zn183 O191 1.943 . S
O184 Zn183 1.962 1_455 S
O184 C189 1.254 . S
O185 Zn182 2.035 . S
O185 C189 1.266 1_655 S
O186 Zn183 1.986 . S
O186 C193 1.262 . S
O187 Zn182 2.049 . S
O187 C195 1.260 . S
O188 Zn183 1.996 . S
O188 C195 1.257 . S
C189 O184 1.254 . S
C189 O185 1.266 1_455 S
C190 O191 1.249 . S
C190 O192 1.270 . S
O191 Zn183 1.943 . S
O191 C190 1.249 . S
O192 Zn182 2.067 . S
O192 C190 1.270 . S
C193 O186 1.262 . S
C193 O194 1.232 . S
O194 C193 1.232 . S
C195 O187 1.260 . S
C195 O188 1.257 . S
Zn196 O199 2.031 . S
Zn196 O201 2.049 . S
Zn196 O206 2.067 . S
Zn197 O198 1.962 . S
Zn197 O200 1.986 . S
Zn197 O202 1.996 . S
Zn197 O205 1.943 . S
O198 Zn197 1.962 . S
O198 C203 1.254 . S
O199 Zn196 2.031 . S
O199 C203 1.269 . S
O200 Zn197 1.986 . S
O200 C207 1.262 . S
O201 Zn196 2.049 . S
O201 C209 1.260 . S
O202 Zn197 1.996 . S
O202 C209 1.257 . S
C203 O198 1.254 . S
C203 O199 1.269 . S
C204 O205 1.249 . S
C204 O206 1.270 . S
O205 Zn197 1.943 . S
O205 C204 1.249 . S
O206 Zn196 2.067 . S
O206 C204 1.270 . S
C207 O200 1.262 . S
C207 O208 1.232 . S
O208 C207 1.232 . S
C209 O201 1.260 . S
C209 O202 1.257 . S
Zn210 O213 2.031 . S
Zn210 O215 2.049 . S
Zn210 O220 2.067 . S
Zn211 O212 1.962 . S
Zn211 O214 1.986 . S
Zn211 O216 1.996 . S
Zn211 O219 1.943 . S
O212 Zn211 1.962 . S
O212 C217 1.254 . S
O213 Zn210 2.031 . S
O213 C217 1.269 . S
O214 Zn211 1.986 . S
O214 C221 1.262 . S
O215 Zn210 2.049 . S
O215 C223 1.260 . S
O216 Zn211 1.996 . S
O216 C223 1.257 . S
C217 O212 1.254 . S
C217 O213 1.269 . S
C218 O219 1.249 . S
C218 O220 1.270 . S
O219 Zn211 1.943 . S
O219 C218 1.249 . S
O220 Zn210 2.067 . S
O220 C218 1.270 . S
C221 O214 1.262 . S
C221 O222 1.232 . S
O222 C221 1.232 . S
C223 O215 1.260 . S
C223 O216 1.257 . S
Zn224 O227 2.031 . S
Zn224 O229 2.049 . S
Zn224 O234 2.067 . S
Zn225 O226 1.962 . S
Zn225 O228 1.986 1_545 S
Zn225 O230 1.996 . S
Zn225 O233 1.943 . S
O226 Zn225 1.962 . S
O226 C231 1.254 . S
O227 Zn224 2.031 . S
O227 C231 1.269 . S
O228 Zn225 1.986 1_565 S
O228 C235 1.262 . S
O229 Zn224 2.049 . S
O229 C237 1.260 . S
O230 Zn225 1.996 . S
O230 C237 1.257 . S
C231 O226 1.254 . S
C231 O227 1.269 . S
C232 O233 1.249 . S
C232 O234 1.270 . S
O233 Zn225 1.943 . S
O233 C232 1.249 . S
O234 Zn224 2.067 . S
O234 C232 1.270 . S
C235 O228 1.262 . S
C235 O236 1.232 . S
O236 C235 1.232 . S
C237 O229 1.260 . S
C237 O230 1.257 . S
Zn238 O241 2.031 . S
Zn238 O243 2.049 . S
Zn238 O248 2.067 . S
Zn239 O240 1.962 1_655 S
Zn239 O242 1.986 . S
Zn239 O244 1.996 . S
Zn239 O247 1.943 . S
O240 Zn239 1.962 1_455 S
O240 C245 1.254 . S
O241 Zn238 2.031 . S
O241 C245 1.269 1_655 S
O242 Zn239 1.986 . S
O242 C249 1.262 . S
O243 Zn238 2.049 . S
O243 C251 1.260 . S
O244 Zn239 1.996 . S
O244 C251 1.257 . S
C245 O240 1.254 . S
C245 O241 1.269 1_455 S
C246 O247 1.249 . S
C246 O248 1.270 . S
O247 Zn239 1.943 . S
O247 C246 1.249 . S
O248 Zn238 2.067 . S
O248 C246 1.270 . S
C249 O242 1.262 . S
C249 O250 1.232 . S
O250 C249 1.232 . S
C251 O243 1.260 . S
C251 O244 1.257 . S
H252 C260 0.930 . S
H253 C263 0.930 . S
H254 C265 0.930 . S
H255 C266 0.970 . S
H256 C266 0.970 . S
H257 C268 0.930 . S
H258 C270 0.930 . S
H259 C272 0.930 . S
C260 H252 0.930 . S
C260 C261 1.382 . S
C260 C262 1.426 . S
C261 C260 1.382 . S
C261 C265 1.389 . S
C262 C260 1.426 . S
C262 C263 1.375 . S
C262 C266 1.532 . S
C263 H253 0.930 . S
C263 C262 1.375 . S
C263 C264 1.416 . S
C264 C263 1.416 . S
C264 C265 1.371 . S
C265 H254 0.930 . S
C265 C261 1.389 . S
C265 C264 1.371 . S
C266 H255 0.970 . S
C266 H256 0.970 . S
C266 C262 1.532 . S
C266 C267 1.499 . S
C267 C266 1.499 . S
C267 C268 1.370 . S
C267 C272 1.415 . S
C268 H257 0.930 . S
C268 C267 1.370 . S
C268 C269 1.407 . S
C269 C268 1.407 . S
C269 C270 1.365 . S
C270 H258 0.930 . S
C270 C269 1.365 . S
C270 C271 1.393 . S
C271 C270 1.393 . S
C271 C272 1.387 . S
C272 H259 0.930 . S
C272 C267 1.415 . S
C272 C271 1.387 . S
H273 C281 0.930 . S
H274 C284 0.930 . S
H275 C286 0.930 . S
H276 C287 0.970 . S
H277 C287 0.970 . S
H278 C289 0.930 . S
H279 C291 0.930 . S
H280 C293 0.930 . S
C281 H273 0.930 . S
C281 C282 1.382 . S
C281 C283 1.426 . S
C282 C281 1.382 . S
C282 C286 1.389 . S
C283 C281 1.426 . S
C283 C284 1.375 . S
C283 C287 1.532 . S
C284 H274 0.930 . S
C284 C283 1.375 . S
C284 C285 1.416 . S
C285 C284 1.416 . S
C285 C286 1.371 . S
C286 H275 0.930 . S
C286 C282 1.389 . S
C286 C285 1.371 . S
C287 H276 0.970 . S
C287 H277 0.970 . S
C287 C283 1.532 . S
C287 C288 1.499 . S
C288 C287 1.499 . S
C288 C289 1.370 . S
C288 C293 1.415 . S
C289 H278 0.930 . S
C289 C288 1.370 . S
C289 C290 1.407 . S
C290 C289 1.407 . S
C290 C291 1.365 . S
C291 H279 0.930 . S
C291 C290 1.365 . S
C291 C292 1.393 . S
C292 C291 1.393 . S
C292 C293 1.387 . S
C293 H280 0.930 . S
C293 C288 1.415 . S
C293 C292 1.387 . S
H294 C302 0.930 . S
H295 C305 0.930 . S
H296 C307 0.930 . S
H297 C308 0.970 . S
H298 C308 0.970 . S
H299 C310 0.930 . S
H300 C312 0.930 . S
H301 C314 0.930 . S
C302 H294 0.930 . S
C302 C303 1.382 . S
C302 C304 1.426 . S
C303 C302 1.382 . S
C303 C307 1.389 . S
C304 C302 1.426 . S
C304 C305 1.375 . S
C304 C308 1.532 . S
C305 H295 0.930 . S
C305 C304 1.375 . S
C305 C306 1.416 . S
C306 C305 1.416 . S
C306 C307 1.371 . S
C307 H296 0.930 . S
C307 C303 1.389 . S
C307 C306 1.371 . S
C308 H297 0.970 . S
C308 H298 0.970 . S
C308 C304 1.532 . S
C308 C309 1.499 . S
C309 C308 1.499 . S
C309 C310 1.370 . S
C309 C314 1.415 . S
C310 H299 0.930 . S
C310 C309 1.370 . S
C310 C311 1.407 . S
C311 C310 1.407 . S
C311 C312 1.365 . S
C312 H300 0.930 . S
C312 C311 1.365 . S
C312 C313 1.393 . S
C313 C312 1.393 . S
C313 C314 1.387 . S
C314 H301 0.930 . S
C314 C309 1.415 . S
C314 C313 1.387 . S
H315 C323 0.930 . S
H316 C326 0.930 . S
H317 C328 0.930 . S
H318 C329 0.970 . S
H319 C329 0.970 . S
H320 C331 0.930 . S
H321 C333 0.930 . S
H322 C335 0.930 . S
C323 H315 0.930 . S
C323 C324 1.382 . S
C323 C325 1.426 . S
C324 C323 1.382 . S
C324 C328 1.389 . S
C325 C323 1.426 . S
C325 C326 1.375 . S
C325 C329 1.532 . S
C326 H316 0.930 . S
C326 C325 1.375 . S
C326 C327 1.416 . S
C327 C326 1.416 . S
C327 C328 1.371 . S
C328 H317 0.930 . S
C328 C324 1.389 . S
C328 C327 1.371 . S
C329 H318 0.970 . S
C329 H319 0.970 . S
C329 C325 1.532 . S
C329 C330 1.499 . S
C330 C329 1.499 . S
C330 C331 1.370 . S
C330 C335 1.415 . S
C331 H320 0.930 . S
C331 C330 1.370 . S
C331 C332 1.407 . S
C332 C331 1.407 . S
C332 C333 1.365 . S
C333 H321 0.930 . S
C333 C332 1.365 . S
C333 C334 1.393 . S
C334 C333 1.393 . S
C334 C335 1.387 . S
C335 H322 0.930 . S
C335 C330 1.415 . S
C335 C334 1.387 . S
H336 C344 0.930 . S
H337 C347 0.930 . S
H338 C349 0.930 . S
H339 C350 0.970 . S
H340 C350 0.970 . S
H341 C352 0.930 . S
H342 C354 0.930 . S
H343 C356 0.930 . S
C344 H336 0.930 . S
C344 C345 1.382 . S
C344 C346 1.426 . S
C345 C344 1.382 . S
C345 C349 1.389 . S
C346 C344 1.426 . S
C346 C347 1.375 . S
C346 C350 1.532 . S
C347 H337 0.930 . S
C347 C346 1.375 . S
C347 C348 1.416 . S
C348 C347 1.416 . S
C348 C349 1.371 . S
C349 H338 0.930 . S
C349 C345 1.389 . S
C349 C348 1.371 . S
C350 H339 0.970 . S
C350 H340 0.970 . S
C350 C346 1.532 . S
C350 C351 1.499 . S
C351 C350 1.499 . S
C351 C352 1.370 . S
C351 C356 1.415 . S
C352 H341 0.930 . S
C352 C351 1.370 . S
C352 C353 1.407 . S
C353 C352 1.407 . S
C353 C354 1.365 . S
C354 H342 0.930 . S
C354 C353 1.365 . S
C354 C355 1.393 . S
C355 C354 1.393 . S
C355 C356 1.387 . S
C356 H343 0.930 . S
C356 C351 1.415 . S
C356 C355 1.387 . S
H357 C365 0.930 . S
H358 C368 0.930 . S
H359 C370 0.930 . S
H360 C371 0.970 . S
H361 C371 0.970 . S
H362 C373 0.930 . S
H363 C375 0.930 . S
H364 C377 0.930 . S
C365 H357 0.930 . S
C365 C366 1.382 . S
C365 C367 1.426 . S
C366 C365 1.382 . S
C366 C370 1.389 . S
C367 C365 1.426 . S
C367 C368 1.375 . S
C367 C371 1.532 . S
C368 H358 0.930 . S
C368 C367 1.375 . S
C368 C369 1.416 . S
C369 C368 1.416 . S
C369 C370 1.371 . S
C370 H359 0.930 . S
C370 C366 1.389 . S
C370 C369 1.371 . S
C371 H360 0.970 . S
C371 H361 0.970 . S
C371 C367 1.532 . S
C371 C372 1.499 . S
C372 C371 1.499 . S
C372 C373 1.370 . S
C372 C377 1.415 . S
C373 H362 0.930 . S
C373 C372 1.370 . S
C373 C374 1.407 . S
C374 C373 1.407 . S
C374 C375 1.365 . S
C375 H363 0.930 . S
C375 C374 1.365 . S
C375 C376 1.393 . S
C376 C375 1.393 . S
C376 C377 1.387 . S
C377 H364 0.930 . S
C377 C372 1.415 . S
C377 C376 1.387 . S
H378 C386 0.930 . S
H379 C389 0.930 . S
H380 C391 0.930 . S
H381 C392 0.970 . S
H382 C392 0.970 . S
H383 C394 0.930 . S
H384 C396 0.930 . S
H385 C398 0.930 . S
C386 H378 0.930 . S
C386 C387 1.382 . S
C386 C388 1.426 . S
C387 C386 1.382 . S
C387 C391 1.389 . S
C388 C386 1.426 . S
C388 C389 1.375 . S
C388 C392 1.532 . S
C389 H379 0.930 . S
C389 C388 1.375 . S
C389 C390 1.416 . S
C390 C389 1.416 . S
C390 C391 1.371 . S
C391 H380 0.930 . S
C391 C387 1.389 . S
C391 C390 1.371 . S
C392 H381 0.970 . S
C392 H382 0.970 . S
C392 C388 1.532 . S
C392 C393 1.499 . S
C393 C392 1.499 . S
C393 C394 1.370 . S
C393 C398 1.415 . S
C394 H383 0.930 . S
C394 C393 1.370 . S
C394 C395 1.407 . S
C395 C394 1.407 . S
C395 C396 1.365 . S
C396 H384 0.930 . S
C396 C395 1.365 . S
C396 C397 1.393 . S
C397 C396 1.393 . S
C397 C398 1.387 . S
C398 H385 0.930 . S
C398 C393 1.415 . S
C398 C397 1.387 . S
H399 C407 0.930 . S
H400 C410 0.930 . S
H401 C412 0.930 . S
H402 C413 0.970 . S
H403 C413 0.970 . S
H404 C415 0.930 . S
H405 C417 0.930 . S
H406 C419 0.930 . S
C407 H399 0.930 . S
C407 C408 1.382 . S
C407 C409 1.426 . S
C408 C407 1.382 . S
C408 C412 1.389 . S
C409 C407 1.426 . S
C409 C410 1.375 . S
C409 C413 1.532 . S
C410 H400 0.930 . S
C410 C409 1.375 . S
C410 C411 1.416 . S
C411 C410 1.416 . S
C411 C412 1.371 . S
C412 H401 0.930 . S
C412 C408 1.389 . S
C412 C411 1.371 . S
C413 H402 0.970 . S
C413 H403 0.970 . S
C413 C409 1.532 . S
C413 C414 1.499 . S
C414 C413 1.499 . S
C414 C415 1.370 . S
C414 C419 1.415 . S
C415 H404 0.930 . S
C415 C414 1.370 . S
C415 C416 1.407 . S
C416 C415 1.407 . S
C416 C417 1.365 . S
C417 H405 0.930 . S
C417 C416 1.365 . S
C417 C418 1.393 . S
C418 C417 1.393 . S
C418 C419 1.387 . S
C419 H406 0.930 . S
C419 C414 1.415 . S
C419 C418 1.387 . S
H420 C428 0.930 . S
H421 C431 0.930 . S
H422 C433 0.930 . S
H423 C434 0.970 . S
H424 C434 0.970 . S
H425 C436 0.930 . S
H426 C438 0.930 . S
H427 C440 0.930 . S
C428 H420 0.930 . S
C428 C429 1.382 . S
C428 C430 1.426 . S
C429 C428 1.382 . S
C429 C433 1.389 . S
C430 C428 1.426 . S
C430 C431 1.375 . S
C430 C434 1.532 . S
C431 H421 0.930 . S
C431 C430 1.375 . S
C431 C432 1.416 . S
C432 C431 1.416 . S
C432 C433 1.371 . S
C433 H422 0.930 . S
C433 C429 1.389 . S
C433 C432 1.371 . S
C434 H423 0.970 . S
C434 H424 0.970 . S
C434 C430 1.532 . S
C434 C435 1.499 . S
C435 C434 1.499 . S
C435 C436 1.370 . S
C435 C440 1.415 . S
C436 H425 0.930 . S
C436 C435 1.370 . S
C436 C437 1.407 . S
C437 C436 1.407 . S
C437 C438 1.365 . S
C438 H426 0.930 . S
C438 C437 1.365 . S
C438 C439 1.393 . S
C439 C438 1.393 . S
C439 C440 1.387 . S
C440 H427 0.930 . S
C440 C435 1.415 . S
C440 C439 1.387 . S
H441 C449 0.930 . S
H442 C452 0.930 . S
H443 C454 0.930 . S
H444 C455 0.970 . S
H445 C455 0.970 . S
H446 C457 0.930 . S
H447 C459 0.930 . S
H448 C461 0.930 . S
C449 H441 0.930 . S
C449 C450 1.382 . S
C449 C451 1.426 . S
C450 C449 1.382 . S
C450 C454 1.389 1_455 S
C451 C449 1.426 . S
C451 C452 1.375 . S
C451 C455 1.532 . S
C452 H442 0.930 . S
C452 C451 1.375 . S
C452 C453 1.416 . S
C453 C452 1.416 . S
C453 C454 1.371 1_455 S
C454 H443 0.930 . S
C454 C450 1.389 1_655 S
C454 C453 1.371 1_655 S
C455 H444 0.970 . S
C455 H445 0.970 . S
C455 C451 1.532 . S
C455 C456 1.499 . S
C456 C455 1.499 . S
C456 C457 1.370 . S
C456 C461 1.415 . S
C457 H446 0.930 . S
C457 C456 1.370 . S
C457 C458 1.410 . S
C458 C457 1.410 . S
C458 C459 1.370 1_455 S
C459 H447 0.930 . S
C459 C458 1.370 1_655 S
C459 C460 1.393 1_655 S
C460 C459 1.393 1_455 S
C460 C461 1.387 . S
C461 H448 0.930 . S
C461 C456 1.415 . S
C461 C460 1.387 . S
H462 C470 0.930 . S
H463 C473 0.930 . S
H464 C475 0.930 . S
H465 C476 0.970 . S
H466 C476 0.970 . S
H467 C478 0.930 . S
H468 C480 0.930 . S
H469 C482 0.930 . S
C470 H462 0.930 . S
C470 C471 1.382 . S
C470 C472 1.426 . S
C471 C470 1.382 . S
C471 C475 1.389 . S
C472 C470 1.426 . S
C472 C473 1.375 . S
C472 C476 1.532 . S
C473 H463 0.930 . S
C473 C472 1.375 . S
C473 C474 1.416 . S
C474 C473 1.416 . S
C474 C475 1.371 . S
C475 H464 0.930 . S
C475 C471 1.389 . S
C475 C474 1.371 . S
C476 H465 0.970 . S
C476 H466 0.970 . S
C476 C472 1.532 . S
C476 C477 1.499 . S
C477 C476 1.499 . S
C477 C478 1.370 . S
C477 C482 1.415 . S
C478 H467 0.930 . S
C478 C477 1.370 . S
C478 C479 1.407 . S
C479 C478 1.407 . S
C479 C480 1.365 . S
C480 H468 0.930 . S
C480 C479 1.365 . S
C480 C481 1.393 . S
C481 C480 1.393 . S
C481 C482 1.387 . S
C482 H469 0.930 . S
C482 C477 1.415 . S
C482 C481 1.387 . S
H483 C491 0.930 . S
H484 C494 0.930 . S
H485 C496 0.930 . S
H486 C497 0.970 . S
H487 C497 0.970 . S
H488 C499 0.930 . S
H489 C501 0.930 . S
H490 C503 0.930 . S
C491 H483 0.930 . S
C491 C492 1.382 . S
C491 C493 1.426 . S
C492 C491 1.382 . S
C492 C496 1.389 1_565 S
C493 C491 1.426 . S
C493 C494 1.375 . S
C493 C497 1.532 . S
C494 H484 0.930 . S
C494 C493 1.375 . S
C494 C495 1.416 . S
C495 C494 1.416 . S
C495 C496 1.371 1_565 S
C496 H485 0.930 . S
C496 C492 1.389 1_545 S
C496 C495 1.371 1_545 S
C497 H486 0.970 . S
C497 H487 0.970 . S
C497 C493 1.532 . S
C497 C498 1.499 . S
C498 C497 1.499 . S
C498 C499 1.370 . S
C498 C503 1.415 . S
C499 H488 0.930 . S
C499 C498 1.370 . S
C499 C500 1.401 . S
C500 C499 1.401 . S
C500 C501 1.367 1_565 S
C501 H489 0.930 . S
C501 C500 1.367 1_545 S
C501 C502 1.393 1_545 S
C502 C501 1.393 1_565 S
C502 C503 1.387 . S
C503 H490 0.930 . S
C503 C498 1.415 . S
C503 C502 1.387 . S
H504 C512 0.930 . S
H505 C515 0.930 . S
H506 C517 0.930 . S
H507 C518 0.970 . S
H508 C518 0.970 . S
H509 C520 0.930 . S
H510 C522 0.930 . S
H511 C524 0.930 . S
C512 H504 0.930 . S
C512 C513 1.382 . S
C512 C514 1.426 . S
C513 C512 1.382 . S
C513 C517 1.389 1_565 S
C514 C512 1.426 . S
C514 C515 1.375 . S
C514 C518 1.532 . S
C515 H505 0.930 . S
C515 C514 1.375 . S
C515 C516 1.457 . S
C516 C515 1.457 . S
C516 C517 1.355 1_565 S
C517 H506 0.930 . S
C517 C513 1.389 1_545 S
C517 C516 1.355 1_545 S
C518 H507 0.970 . S
C518 H508 0.970 . S
C518 C514 1.532 . S
C518 C519 1.499 . S
C519 C518 1.499 . S
C519 C520 1.370 . S
C519 C524 1.415 . S
C520 H509 0.930 . S
C520 C519 1.370 . S
C520 C521 1.407 . S
C521 C520 1.407 . S
C521 C522 1.365 1_565 S
C522 H510 0.930 . S
C522 C521 1.365 1_545 S
C522 C523 1.393 1_545 S
C523 C522 1.393 1_565 S
C523 C524 1.387 . S
C524 H511 0.930 . S
C524 C519 1.415 . S
C524 C523 1.387 . S
H525 C533 0.930 . S
H526 C536 0.930 . S
H527 C538 0.930 . S
H528 C539 0.970 . S
H529 C539 0.970 . S
H530 C541 0.930 . S
H531 C543 0.930 . S
H532 C545 0.930 . S
C533 H525 0.930 . S
C533 C534 1.382 . S
C533 C535 1.426 . S
C534 C533 1.382 . S
C534 C538 1.389 1_455 S
C535 C533 1.426 . S
C535 C536 1.375 . S
C535 C539 1.532 . S
C536 H526 0.930 . S
C536 C535 1.375 . S
C536 C537 1.416 . S
C537 C536 1.416 . S
C537 C538 1.371 1_455 S
C538 H527 0.930 . S
C538 C534 1.389 1_655 S
C538 C537 1.371 1_655 S
C539 H528 0.970 . S
C539 H529 0.970 . S
C539 C535 1.532 . S
C539 C540 1.499 . S
C540 C539 1.499 . S
C540 C541 1.370 . S
C540 C545 1.415 . S
C541 H530 0.930 . S
C541 C540 1.370 . S
C541 C542 1.407 . S
C542 C541 1.407 . S
C542 C543 1.365 1_455 S
C543 H531 0.930 . S
C543 C542 1.365 1_655 S
C543 C544 1.393 1_655 S
C544 C543 1.393 1_455 S
C544 C545 1.387 . S
C545 H532 0.930 . S
C545 C540 1.415 . S
C545 C544 1.387 . S
H546 C554 0.930 . S
H547 C557 0.930 . S
H548 C559 0.930 . S
H549 C560 0.970 . S
H550 C560 0.970 . S
H551 C562 0.930 . S
H552 C564 0.930 . S
H553 C566 0.930 . S
C554 H546 0.930 . S
C554 C555 1.382 . S
C554 C556 1.426 . S
C555 C554 1.382 . S
C555 C559 1.389 . S
C556 C554 1.426 . S
C556 C557 1.375 . S
C556 C560 1.532 . S
C557 H547 0.930 . S
C557 C556 1.375 . S
C557 C558 1.416 . S
C558 C557 1.416 . S
C558 C559 1.371 . S
C559 H548 0.930 . S
C559 C555 1.389 . S
C559 C558 1.371 . S
C560 H549 0.970 . S
C560 H550 0.970 . S
C560 C556 1.532 . S
C560 C561 1.499 . S
C561 C560 1.499 . S
C561 C562 1.370 . S
C561 C566 1.415 . S
C562 H551 0.930 . S
C562 C561 1.370 . S
C562 C563 1.407 . S
C563 C562 1.407 . S
C563 C564 1.365 . S
C564 H552 0.930 . S
C564 C563 1.365 . S
C564 C565 1.393 . S
C565 C564 1.393 . S
C565 C566 1.387 . S
C566 H553 0.930 . S
C566 C561 1.415 . S
C566 C565 1.387 . S
H567 C575 0.930 . S
H568 C578 0.930 . S
H569 C580 0.930 . S
H570 C581 0.970 . S
H571 C581 0.970 . S
H572 C583 0.930 . S
H573 C585 0.930 . S
H574 C587 0.930 . S
C575 H567 0.930 . S
C575 C576 1.382 . S
C575 C577 1.426 . S
C576 C575 1.382 . S
C576 C580 1.389 . S
C577 C575 1.426 . S
C577 C578 1.375 . S
C577 C581 1.532 . S
C578 H568 0.930 . S
C578 C577 1.375 . S
C578 C579 1.416 . S
C579 C578 1.416 . S
C579 C580 1.371 . S
C580 H569 0.930 . S
C580 C576 1.389 . S
C580 C579 1.371 . S
C581 H570 0.970 . S
C581 H571 0.970 . S
C581 C577 1.532 . S
C581 C582 1.499 . S
C582 C581 1.499 . S
C582 C583 1.370 . S
C582 C587 1.415 . S
C583 H572 0.930 . S
C583 C582 1.370 . S
C583 C584 1.407 . S
C584 C583 1.407 . S
C584 C585 1.365 . S
C585 H573 0.930 . S
C585 C584 1.365 . S
C585 C586 1.393 . S
C586 C585 1.393 . S
C586 C587 1.387 . S
C587 H574 0.930 . S
C587 C582 1.415 . S
C587 C586 1.387 . S
H588 C596 0.930 . S
H589 C599 0.930 . S
H590 C601 0.930 . S
H591 C602 0.970 . S
H592 C602 0.970 . S
H593 C604 0.930 . S
H594 C606 0.930 . S
H595 C608 0.930 . S
C596 H588 0.930 . S
C596 C597 1.382 . S
C596 C598 1.426 . S
C597 C596 1.382 . S
C597 C601 1.389 . S
C598 C596 1.426 . S
C598 C599 1.375 . S
C598 C602 1.532 . S
C599 H589 0.930 . S
C599 C598 1.375 . S
C599 C600 1.416 . S
C600 C599 1.416 . S
C600 C601 1.371 . S
C601 H590 0.930 . S
C601 C597 1.389 . S
C601 C600 1.371 . S
C602 H591 0.970 . S
C602 H592 0.970 . S
C602 C598 1.532 . S
C602 C603 1.499 . S
C603 C602 1.499 . S
C603 C604 1.370 . S
C603 C608 1.415 . S
C604 H593 0.930 . S
C604 C603 1.370 . S
C604 C605 1.407 . S
C605 C604 1.407 . S
C605 C606 1.365 . S
C606 H594 0.930 . S
C606 C605 1.365 . S
C606 C607 1.393 . S
C607 C606 1.393 . S
C607 C608 1.387 . S
C608 H595 0.930 . S
C608 C603 1.415 . S
C608 C607 1.387 . S
H609 C617 0.930 . S
H610 C620 0.930 . S
H611 C622 0.930 . S
H612 C623 0.970 . S
H613 C623 0.970 . S
H614 C625 0.930 . S
H615 C627 0.930 . S
H616 C629 0.930 . S
C617 H609 0.930 . S
C617 C618 1.382 . S
C617 C619 1.426 . S
C618 C617 1.382 . S
C618 C622 1.389 . S
C619 C617 1.426 . S
C619 C620 1.375 . S
C619 C623 1.532 . S
C620 H610 0.930 . S
C620 C619 1.375 . S
C620 C621 1.416 . S
C621 C620 1.416 . S
C621 C622 1.371 . S
C622 H611 0.930 . S
C622 C618 1.389 . S
C622 C621 1.371 . S
C623 H612 0.970 . S
C623 H613 0.970 . S
C623 C619 1.532 . S
C623 C624 1.499 . S
C624 C623 1.499 . S
C624 C625 1.370 . S
C624 C629 1.415 . S
C625 H614 0.930 . S
C625 C624 1.370 . S
C625 C626 1.407 . S
C626 C625 1.407 . S
C626 C627 1.365 . S
C627 H615 0.930 . S
C627 C626 1.365 . S
C627 C628 1.393 . S
C628 C627 1.393 . S
C628 C629 1.387 . S
C629 H616 0.930 . S
C629 C624 1.415 . S
C629 C628 1.387 . S
H630 C642 0.930 . S
H631 C644 0.930 . S
H632 C645 0.930 . S
H633 C649 0.959 . S
H634 C649 0.959 . S
H635 C649 0.961 . S
H636 C650 0.960 . S
H637 C650 0.961 . S
H638 C650 0.959 . S
H639 C653 0.929 . S
H640 C654 0.931 . S
H641 C656 0.930 . S
C642 H630 0.930 . S
C642 C643 1.399 1_455 S
C642 C647 1.399 . S
C643 C642 1.399 1_655 S
C643 C644 1.376 . S
C644 H631 0.930 . S
C644 C643 1.376 . S
C644 C645 1.388 . S
C645 H632 0.930 . S
C645 C644 1.388 . S
C645 C646 1.390 . S
C646 C645 1.390 . S
C646 C647 1.394 1_655 S
C646 C652 1.465 . S
C647 C642 1.399 . S
C647 C646 1.394 1_455 S
C647 C648 1.516 . S
C648 C647 1.516 . S
C648 C649 1.502 . S
C648 C650 1.561 . S
C648 C651 1.526 . S
C649 H633 0.959 . S
C649 H634 0.959 . S
C649 H635 0.961 . S
C649 C648 1.502 . S
C650 H636 0.960 . S
C650 H637 0.961 . S
C650 H638 0.959 . S
C650 C648 1.561 . S
C651 C648 1.526 . S
C651 C652 1.396 1_455 S
C651 C656 1.390 . S
C652 C646 1.465 . S
C652 C651 1.396 1_655 S
C652 C653 1.399 . S
C653 H639 0.929 . S
C653 C652 1.399 . S
C653 C654 1.385 . S
C654 H640 0.931 . S
C654 C653 1.385 . S
C654 C655 1.389 . S
C655 C654 1.389 . S
C655 C656 1.387 1_655 S
C656 H641 0.930 . S
C656 C651 1.390 . S
C656 C655 1.387 1_455 S
H657 C669 0.930 . S
H658 C671 0.930 . S
H659 C672 0.930 . S
H660 C676 0.959 . S
H661 C676 0.959 . S
H662 C676 0.961 . S
H663 C677 0.960 . S
H664 C677 0.961 . S
H665 C677 0.959 . S
H666 C680 0.929 . S
H667 C681 0.931 . S
H668 C683 0.930 . S
C669 H657 0.930 . S
C669 C670 1.399 . S
C669 C674 1.399 . S
C670 C669 1.399 . S
C670 C671 1.376 . S
C671 H658 0.930 . S
C671 C670 1.376 . S
C671 C672 1.388 . S
C672 H659 0.930 . S
C672 C671 1.388 . S
C672 C673 1.390 . S
C673 C672 1.390 . S
C673 C674 1.394 . S
C673 C679 1.465 . S
C674 C669 1.399 . S
C674 C673 1.394 . S
C674 C675 1.516 . S
C675 C674 1.516 . S
C675 C676 1.502 . S
C675 C677 1.561 . S
C675 C678 1.526 . S
C676 H660 0.959 . S
C676 H661 0.959 . S
C676 H662 0.961 . S
C676 C675 1.502 . S
C677 H663 0.960 . S
C677 H664 0.961 . S
C677 H665 0.959 . S
C677 C675 1.561 . S
C678 C675 1.526 . S
C678 C679 1.396 . S
C678 C683 1.390 . S
C679 C673 1.465 . S
C679 C678 1.396 . S
C679 C680 1.399 . S
C680 H666 0.929 . S
C680 C679 1.399 . S
C680 C681 1.385 . S
C681 H667 0.931 . S
C681 C680 1.385 . S
C681 C682 1.389 . S
C682 C681 1.389 . S
C682 C683 1.387 . S
C683 H668 0.930 . S
C683 C678 1.390 . S
C683 C682 1.387 . S
H684 C696 0.930 . S
H685 C698 0.930 . S
H686 C699 0.930 . S
H687 C703 0.959 . S
H688 C703 0.959 . S
H689 C703 0.961 . S
H690 C704 0.960 . S
H691 C704 0.961 . S
H692 C704 0.959 . S
H693 C707 0.929 . S
H694 C708 0.931 . S
H695 C710 0.930 . S
C696 H684 0.930 . S
C696 C697 1.399 . S
C696 C701 1.399 . S
C697 C696 1.399 . S
C697 C698 1.376 . S
C698 H685 0.930 . S
C698 C697 1.376 . S
C698 C699 1.388 . S
C699 H686 0.930 . S
C699 C698 1.388 . S
C699 C700 1.390 . S
C700 C699 1.390 . S
C700 C701 1.394 . S
C700 C706 1.465 . S
C701 C696 1.399 . S
C701 C700 1.394 . S
C701 C702 1.516 . S
C702 C701 1.516 . S
C702 C703 1.502 1_545 S
C702 C704 1.561 . S
C702 C705 1.526 . S
C703 H687 0.959 . S
C703 H688 0.959 . S
C703 H689 0.961 . S
C703 C702 1.502 1_565 S
C704 H690 0.960 . S
C704 H691 0.961 . S
C704 H692 0.959 . S
C704 C702 1.561 . S
C705 C702 1.526 . S
C705 C706 1.396 . S
C705 C710 1.390 . S
C706 C700 1.465 . S
C706 C705 1.396 . S
C706 C707 1.399 . S
C707 H693 0.929 . S
C707 C706 1.399 . S
C707 C708 1.385 . S
C708 H694 0.931 . S
C708 C707 1.385 . S
C708 C709 1.389 . S
C709 C708 1.389 . S
C709 C710 1.387 . S
C710 H695 0.930 . S
C710 C705 1.390 . S
C710 C709 1.387 . S
H711 C723 0.930 . S
H712 C725 0.930 . S
H713 C726 0.930 . S
H714 C730 0.959 . S
H715 C730 0.959 . S
H716 C730 0.961 . S
H717 C731 0.960 . S
H718 C731 0.961 . S
H719 C731 0.959 . S
H720 C734 0.929 . S
H721 C735 0.931 . S
H722 C737 0.930 . S
C723 H711 0.930 . S
C723 C724 1.399 . S
C723 C728 1.399 . S
C724 C723 1.399 . S
C724 C725 1.376 1_565 S
C725 H712 0.930 . S
C725 C724 1.376 1_545 S
C725 C726 1.388 . S
C726 H713 0.930 . S
C726 C725 1.388 . S
C726 C727 1.390 . S
C727 C726 1.390 . S
C727 C728 1.394 1_545 S
C727 C733 1.465 . S
C728 C723 1.399 . S
C728 C727 1.394 1_565 S
C728 C729 1.516 . S
C729 C728 1.516 . S
C729 C730 1.502 . S
C729 C731 1.561 . S
C729 C732 1.526 . S
C730 H714 0.959 . S
C730 H715 0.959 . S
C730 H716 0.961 . S
C730 C729 1.502 . S
C731 H717 0.960 . S
C731 H718 0.961 . S
C731 H719 0.959 . S
C731 C729 1.561 . S
C732 C729 1.526 . S
C732 C733 1.396 1_565 S
C732 C737 1.390 . S
C733 C727 1.465 . S
C733 C732 1.396 1_545 S
C733 C734 1.399 . S
C734 H720 0.929 . S
C734 C733 1.399 . S
C734 C735 1.385 . S
C735 H721 0.931 . S
C735 C734 1.385 . S
C735 C736 1.389 1_545 S
C736 C735 1.389 1_565 S
C736 C737 1.387 . S
C737 H722 0.930 . S
C737 C732 1.390 . S
C737 C736 1.387 . S
H738 C750 0.930 . S
H739 C752 0.930 . S
H740 C753 0.930 . S
H741 C757 0.959 . S
H742 C757 0.959 . S
H743 C757 0.961 . S
H744 C758 0.960 . S
H745 C758 0.961 . S
H746 C758 0.959 . S
H747 C761 0.929 . S
H748 C762 0.931 . S
H749 C764 0.926 . S
C750 H738 0.930 . S
C750 C751 1.399 . S
C750 C755 1.399 . S
C751 C750 1.399 . S
C751 C752 1.376 . S
C752 H739 0.930 . S
C752 C751 1.376 . S
C752 C753 1.388 . S
C753 H740 0.930 . S
C753 C752 1.388 . S
C753 C754 1.390 . S
C754 C753 1.390 . S
C754 C755 1.394 . S
C754 C760 1.465 . S
C755 C750 1.399 . S
C755 C754 1.394 . S
C755 C756 1.517 1_455 S
C756 C755 1.517 1_655 S
C756 C757 1.504 1_655 S
C756 C758 1.559 . S
C756 C759 1.524 1_655 S
C757 H741 0.959 . S
C757 H742 0.959 . S
C757 H743 0.961 . S
C757 C756 1.504 1_455 S
C758 H744 0.960 . S
C758 H745 0.961 . S
C758 H746 0.959 . S
C758 C756 1.559 . S
C759 C756 1.524 1_455 S
C759 C760 1.396 . S
C759 C764 1.390 . S
C760 C754 1.465 . S
C760 C759 1.396 . S
C760 C761 1.399 . S
C761 H747 0.929 . S
C761 C760 1.399 . S
C761 C762 1.385 . S
C762 H748 0.931 . S
C762 C761 1.385 . S
C762 C763 1.389 . S
C763 C762 1.389 . S
C763 C764 1.387 . S
C764 H749 0.926 . S
C764 C759 1.390 . S
C764 C763 1.387 . S
H765 C777 0.930 . S
H766 C779 0.930 . S
H767 C780 0.930 . S
H768 C784 0.959 . S
H769 C784 0.959 . S
H770 C784 0.961 . S
H771 C785 0.960 . S
H772 C785 0.961 . S
H773 C785 0.959 . S
H774 C788 0.929 . S
H775 C789 0.931 . S
H776 C791 0.930 . S
C777 H765 0.930 . S
C777 C778 1.399 . S
C777 C782 1.399 . S
C778 C777 1.399 . S
C778 C779 1.376 . S
C779 H766 0.930 . S
C779 C778 1.376 . S
C779 C780 1.388 . S
C780 H767 0.930 . S
C780 C779 1.388 . S
C780 C781 1.390 . S
C781 C780 1.390 . S
C781 C782 1.394 . S
C781 C787 1.465 . S
C782 C777 1.399 . S
C782 C781 1.394 . S
C782 C783 1.516 . S
C783 C782 1.516 . S
C783 C784 1.502 . S
C783 C785 1.561 . S
C783 C786 1.526 . S
C784 H768 0.959 . S
C784 H769 0.959 . S
C784 H770 0.961 . S
C784 C783 1.502 . S
C785 H771 0.960 . S
C785 H772 0.961 . S
C785 H773 0.959 . S
C785 C783 1.561 . S
C786 C783 1.526 . S
C786 C787 1.396 . S
C786 C791 1.390 . S
C787 C781 1.465 . S
C787 C786 1.396 . S
C787 C788 1.399 . S
C788 H774 0.929 . S
C788 C787 1.399 . S
C788 C789 1.385 . S
C789 H775 0.931 . S
C789 C788 1.385 . S
C789 C790 1.389 . S
C790 C789 1.389 . S
C790 C791 1.387 . S
C791 H776 0.930 . S
C791 C786 1.390 . S
C791 C790 1.387 . S
H792 C804 0.930 . S
H793 C806 0.930 . S
H794 C807 0.934 . S
H795 C811 0.959 . S
H796 C811 0.959 . S
H797 C811 0.961 . S
H798 C812 0.960 . S
H799 C812 0.961 . S
H800 C812 0.959 . S
H801 C815 0.938 . S
H802 C816 0.933 . S
H803 C818 0.930 . S
C804 H792 0.930 . S
C804 C805 1.399 . S
C804 C809 1.399 . S
C805 C804 1.399 . S
C805 C806 1.376 . S
C806 H793 0.930 . S
C806 C805 1.376 . S
C806 C807 1.388 . S
C807 H794 0.934 . S
C807 C806 1.388 . S
C807 C808 1.390 . S
C808 C807 1.390 . S
C808 C809 1.394 . S
C808 C814 1.465 . S
C809 C804 1.399 . S
C809 C808 1.394 . S
C809 C810 1.516 . S
C810 C809 1.516 . S
C810 C811 1.502 . S
C810 C812 1.561 1_455 S
C810 C813 1.526 . S
C811 H795 0.959 . S
C811 H796 0.959 . S
C811 H797 0.961 . S
C811 C810 1.502 . S
C812 H798 0.960 . S
C812 H799 0.961 . S
C812 H800 0.959 . S
C812 C810 1.561 1_655 S
C813 C810 1.526 . S
C813 C814 1.396 . S
C813 C818 1.390 . S
C814 C808 1.465 . S
C814 C813 1.396 . S
C814 C815 1.399 1_455 S
C815 H801 0.938 . S
C815 C814 1.399 1_655 S
C815 C816 1.380 . S
C816 H802 0.933 . S
C816 C815 1.380 . S
C816 C817 1.356 1_655 S
C817 C816 1.356 1_455 S
C817 C818 1.388 . S
C818 H803 0.930 . S
C818 C813 1.390 . S
C818 C817 1.388 . S
H819 C831 0.930 . S
H820 C833 0.930 . S
H821 C834 0.930 . S
H822 C838 0.959 . S
H823 C838 0.959 . S
H824 C838 0.961 . S
H825 C839 0.960 . S
H826 C839 0.961 . S
H827 C839 0.959 . S
H828 C842 0.929 . S
H829 C843 0.931 . S
H830 C845 0.930 . S
C831 H819 0.930 . S
C831 C832 1.399 . S
C831 C836 1.399 . S
C832 C831 1.399 . S
C832 C833 1.376 . S
C833 H820 0.930 . S
C833 C832 1.376 . S
C833 C834 1.388 . S
C834 H821 0.930 . S
C834 C833 1.388 . S
C834 C835 1.390 . S
C835 C834 1.390 . S
C835 C836 1.394 . S
C835 C841 1.465 . S
C836 C831 1.399 . S
C836 C835 1.394 . S
C836 C837 1.516 . S
C837 C836 1.516 . S
C837 C838 1.502 . S
C837 C839 1.561 . S
C837 C840 1.526 . S
C838 H822 0.959 . S
C838 H823 0.959 . S
C838 H824 0.961 . S
C838 C837 1.502 . S
C839 H825 0.960 . S
C839 H826 0.961 . S
C839 H827 0.959 . S
C839 C837 1.561 . S
C840 C837 1.526 . S
C840 C841 1.396 . S
C840 C845 1.390 . S
C841 C835 1.465 . S
C841 C840 1.396 . S
C841 C842 1.399 . S
C842 H828 0.929 . S
C842 C841 1.399 . S
C842 C843 1.385 . S
C843 H829 0.931 . S
C843 C842 1.385 . S
C843 C844 1.389 . S
C844 C843 1.389 . S
C844 C845 1.387 . S
C845 H830 0.930 . S
C845 C840 1.390 . S
C845 C844 1.387 . S
H846 C858 0.930 . S
H847 C860 0.930 . S
H848 C861 0.930 . S
H849 C865 0.959 . S
H850 C865 0.959 . S
H851 C865 0.961 . S
H852 C866 0.960 . S
H853 C866 0.961 . S
H854 C866 0.959 . S
H855 C869 0.929 . S
H856 C870 0.931 . S
H857 C872 0.930 . S
C858 H846 0.930 . S
C858 C859 1.399 . S
C858 C863 1.399 . S
C859 C858 1.399 . S
C859 C860 1.376 1_565 S
C860 H847 0.930 . S
C860 C859 1.376 1_545 S
C860 C861 1.388 . S
C861 H848 0.930 . S
C861 C860 1.388 . S
C861 C862 1.390 . S
C862 C861 1.390 . S
C862 C863 1.394 1_545 S
C862 C868 1.465 . S
C863 C858 1.399 . S
C863 C862 1.394 1_565 S
C863 C864 1.516 . S
C864 C863 1.516 . S
C864 C865 1.502 . S
C864 C866 1.561 . S
C864 C867 1.526 . S
C865 H849 0.959 . S
C865 H850 0.959 . S
C865 H851 0.961 . S
C865 C864 1.502 . S
C866 H852 0.960 . S
C866 H853 0.961 . S
C866 H854 0.959 . S
C866 C864 1.561 . S
C867 C864 1.526 . S
C867 C868 1.396 1_565 S
C867 C872 1.390 . S
C868 C862 1.465 . S
C868 C867 1.396 1_545 S
C868 C869 1.399 . S
C869 H855 0.929 . S
C869 C868 1.399 . S
C869 C870 1.385 . S
C870 H856 0.931 . S
C870 C869 1.385 . S
C870 C871 1.414 . S
C871 C870 1.414 . S
C871 C872 1.353 1_545 S
C872 H857 0.930 . S
C872 C867 1.390 . S
C872 C871 1.353 1_565 S
H873 C885 0.875 1_565 S
H874 C887 0.930 . S
H875 C888 0.930 . S
H876 C892 0.959 . S
H877 C892 0.959 . S
H878 C892 0.961 . S
H879 C893 0.960 . S
H880 C893 0.961 . S
H881 C893 0.959 . S
H882 C896 0.929 . S
H883 C897 0.931 . S
H884 C899 0.930 . S
C885 H873 0.875 1_545 S
C885 C886 1.420 . S
C885 C890 1.438 . S
C886 C885 1.420 . S
C886 C887 1.376 . S
C887 H874 0.930 . S
C887 C886 1.376 . S
C887 C888 1.388 . S
C888 H875 0.930 . S
C888 C887 1.388 . S
C888 C889 1.390 . S
C889 C888 1.390 . S
C889 C890 1.394 . S
C889 C895 1.465 . S
C890 C885 1.438 . S
C890 C889 1.394 . S
C890 C891 1.516 1_545 S
C891 C890 1.516 1_565 S
C891 C892 1.502 . S
C891 C893 1.561 1_565 S
C891 C894 1.507 1_565 S
C892 H876 0.959 . S
C892 H877 0.959 . S
C892 H878 0.961 . S
C892 C891 1.502 . S
C893 H879 0.960 . S
C893 H880 0.961 . S
C893 H881 0.959 . S
C893 C891 1.561 1_545 S
C894 C891 1.507 1_545 S
C894 C895 1.411 . S
C894 C899 1.396 1_545 S
C895 C889 1.465 . S
C895 C894 1.411 . S
C895 C896 1.399 . S
C896 H882 0.929 . S
C896 C895 1.399 . S
C896 C897 1.385 . S
C897 H883 0.931 . S
C897 C896 1.385 . S
C897 C898 1.389 . S
C898 C897 1.389 . S
C898 C899 1.387 1_545 S
C899 H884 0.930 . S
C899 C894 1.396 1_565 S
C899 C898 1.387 1_565 S
H900 C912 0.930 . S
H901 C914 0.930 . S
H902 C915 0.930 . S
H903 C919 0.959 . S
H904 C919 0.959 . S
H905 C919 0.961 . S
H906 C920 0.960 1_455 S
H907 C920 0.961 1_455 S
H908 C920 0.959 . S
H909 C923 0.929 . S
H910 C924 0.931 . S
H911 C926 0.930 . S
C912 H900 0.930 . S
C912 C913 1.399 1_455 S
C912 C917 1.381 . S
C913 C912 1.399 1_655 S
C913 C914 1.376 . S
C914 H901 0.930 . S
C914 C913 1.376 . S
C914 C915 1.388 . S
C915 H902 0.930 . S
C915 C914 1.388 . S
C915 C916 1.390 . S
C916 C915 1.390 . S
C916 C917 1.389 1_655 S
C916 C922 1.465 . S
C917 C912 1.381 . S
C917 C916 1.389 1_455 S
C917 C918 1.542 . S
C918 C917 1.542 . S
C918 C919 1.502 . S
C918 C920 1.561 1_455 S
C918 C921 1.526 . S
C919 H903 0.959 . S
C919 H904 0.959 . S
C919 H905 0.961 . S
C919 C918 1.502 . S
C920 H906 0.960 1_655 S
C920 H907 0.961 1_655 S
C920 H908 0.959 . S
C920 C918 1.561 1_655 S
C921 C918 1.526 . S
C921 C922 1.396 1_455 S
C921 C926 1.390 . S
C922 C916 1.465 . S
C922 C921 1.396 1_655 S
C922 C923 1.399 . S
C923 H909 0.929 . S
C923 C922 1.399 . S
C923 C924 1.385 . S
C924 H910 0.931 . S
C924 C923 1.385 . S
C924 C925 1.389 . S
C925 C924 1.389 . S
C925 C926 1.387 1_655 S
C926 H911 0.930 . S
C926 C921 1.390 . S
C926 C925 1.387 1_455 S
H927 C939 0.930 . S
H928 C941 0.930 . S
H929 C942 0.930 . S
H930 C946 0.959 . S
H931 C946 0.959 . S
H932 C946 0.961 . S
H933 C947 0.960 . S
H934 C947 0.961 . S
H935 C947 0.959 . S
H936 C950 0.929 . S
H937 C951 0.931 . S
H938 C953 0.930 . S
C939 H927 0.930 . S
C939 C940 1.399 . S
C939 C944 1.399 . S
C940 C939 1.399 . S
C940 C941 1.376 . S
C941 H928 0.930 . S
C941 C940 1.376 . S
C941 C942 1.388 . S
C942 H929 0.930 . S
C942 C941 1.388 . S
C942 C943 1.390 . S
C943 C942 1.390 . S
C943 C944 1.394 . S
C943 C949 1.465 . S
C944 C939 1.399 . S
C944 C943 1.394 . S
C944 C945 1.516 . S
C945 C944 1.516 . S
C945 C946 1.502 . S
C945 C947 1.561 . S
C945 C948 1.526 . S
C946 H930 0.959 . S
C946 H931 0.959 . S
C946 H932 0.961 . S
C946 C945 1.502 . S
C947 H933 0.960 . S
C947 H934 0.961 . S
C947 H935 0.959 . S
C947 C945 1.561 . S
C948 C945 1.526 . S
C948 C949 1.396 . S
C948 C953 1.390 . S
C949 C943 1.465 . S
C949 C948 1.396 . S
C949 C950 1.399 . S
C950 H936 0.929 . S
C950 C949 1.399 . S
C950 C951 1.385 . S
C951 H937 0.931 . S
C951 C950 1.385 . S
C951 C952 1.389 . S
C952 C951 1.389 . S
C952 C953 1.387 . S
C953 H938 0.930 . S
C953 C948 1.390 . S
C953 C952 1.387 . S
H954 C966 0.930 . S
H955 C968 0.930 . S
H956 C969 0.930 . S
H957 C973 0.959 . S
H958 C973 0.959 . S
H959 C973 0.961 . S
H960 C974 0.960 . S
H961 C974 0.961 . S
H962 C974 0.959 . S
H963 C977 0.929 . S
H964 C978 0.931 . S
H965 C980 0.930 . S
C966 H954 0.930 . S
C966 C967 1.399 . S
C966 C971 1.399 . S
C967 C966 1.399 . S
C967 C968 1.376 . S
C968 H955 0.930 . S
C968 C967 1.376 . S
C968 C969 1.388 . S
C969 H956 0.930 . S
C969 C968 1.388 . S
C969 C970 1.390 . S
C970 C969 1.390 . S
C970 C971 1.394 . S
C970 C976 1.465 . S
C971 C966 1.399 . S
C971 C970 1.394 . S
C971 C972 1.516 . S
C972 C971 1.516 . S
C972 C973 1.502 . S
C972 C974 1.561 . S
C972 C975 1.526 . S
C973 H957 0.959 . S
C973 H958 0.959 . S
C973 H959 0.961 . S
C973 C972 1.502 . S
C974 H960 0.960 . S
C974 H961 0.961 . S
C974 H962 0.959 . S
C974 C972 1.561 . S
C975 C972 1.526 . S
C975 C976 1.396 . S
C975 C980 1.390 . S
C976 C970 1.465 . S
C976 C975 1.396 . S
C976 C977 1.399 . S
C977 H963 0.929 . S
C977 C976 1.399 . S
C977 C978 1.385 . S
C978 H964 0.931 . S
C978 C977 1.385 . S
C978 C979 1.389 . S
C979 C978 1.389 . S
C979 C980 1.387 . S
C980 H965 0.930 . S
C980 C975 1.390 . S
C980 C979 1.387 . S
H981 C993 0.930 . S
H982 C995 0.930 . S
H983 C996 0.930 . S
H984 C1000 0.959 . S
H985 C1000 0.959 . S
H986 C1000 0.961 . S
H987 C1001 0.960 . S
H988 C1001 0.961 . S
H989 C1001 0.959 . S
H990 C1004 0.929 . S
H991 C1005 0.931 . S
H992 C1007 0.930 . S
C993 H981 0.930 . S
C993 C994 1.399 . S
C993 C998 1.399 . S
C994 C993 1.399 . S
C994 C995 1.376 . S
C995 H982 0.930 . S
C995 C994 1.376 . S
C995 C996 1.388 . S
C996 H983 0.930 . S
C996 C995 1.388 . S
C996 C997 1.390 . S
C997 C996 1.390 . S
C997 C998 1.394 . S
C997 C1003 1.465 . S
C998 C993 1.399 . S
C998 C997 1.394 . S
C998 C999 1.516 . S
C999 C998 1.516 . S
C999 C1000 1.502 . S
C999 C1001 1.561 . S
C999 C1002 1.526 . S
C1000 H984 0.959 . S
C1000 H985 0.959 . S
C1000 H986 0.961 . S
C1000 C999 1.502 . S
C1001 H987 0.960 . S
C1001 H988 0.961 . S
C1001 H989 0.959 . S
C1001 C999 1.561 . S
C1002 C999 1.526 . S
C1002 C1003 1.396 . S
C1002 C1007 1.390 . S
C1003 C997 1.465 . S
C1003 C1002 1.396 . S
C1003 C1004 1.399 . S
C1004 H990 0.929 . S
C1004 C1003 1.399 . S
C1004 C1005 1.385 . S
C1005 H991 0.931 . S
C1005 C1004 1.385 . S
C1005 C1006 1.389 . S
C1006 C1005 1.389 . S
C1006 C1007 1.387 . S
C1007 H992 0.930 . S
C1007 C1002 1.390 . S
C1007 C1006 1.387 . S
H1008 C1020 0.930 . S
H1009 C1022 0.930 . S
H1010 C1023 0.930 . S
H1011 C1027 0.959 . S
H1012 C1027 0.959 . S
H1013 C1027 0.961 . S
H1014 C1028 0.960 . S
H1015 C1028 0.961 . S
H1016 C1028 0.959 . S
H1017 C1031 0.929 . S
H1018 C1032 0.931 . S
H1019 C1034 0.930 . S
C1020 H1008 0.930 . S
C1020 C1021 1.399 . S
C1020 C1025 1.399 . S
C1021 C1020 1.399 . S
C1021 C1022 1.376 . S
C1022 H1009 0.930 . S
C1022 C1021 1.376 . S
C1022 C1023 1.388 . S
C1023 H1010 0.930 . S
C1023 C1022 1.388 . S
C1023 C1024 1.390 . S
C1024 C1023 1.390 . S
C1024 C1025 1.394 . S
C1024 C1030 1.465 . S
C1025 C1020 1.399 . S
C1025 C1024 1.394 . S
C1025 C1026 1.516 . S
C1026 C1025 1.516 . S
C1026 C1027 1.502 . S
C1026 C1028 1.561 . S
C1026 C1029 1.526 . S
C1027 H1011 0.959 . S
C1027 H1012 0.959 . S
C1027 H1013 0.961 . S
C1027 C1026 1.502 . S
C1028 H1014 0.960 . S
C1028 H1015 0.961 . S
C1028 H1016 0.959 . S
C1028 C1026 1.561 . S
C1029 C1026 1.526 . S
C1029 C1030 1.396 . S
C1029 C1034 1.390 . S
C1030 C1024 1.465 . S
C1030 C1029 1.396 . S
C1030 C1031 1.399 . S
C1031 H1017 0.929 . S
C1031 C1030 1.399 . S
C1031 C1032 1.385 . S
C1032 H1018 0.931 . S
C1032 C1031 1.385 . S
C1032 C1033 1.389 . S
C1033 C1032 1.389 . S
C1033 C1034 1.387 . S
C1034 H1019 0.930 . S
C1034 C1029 1.390 . S
C1034 C1033 1.387 . S
H1035 C1047 0.930 . S
H1036 C1049 0.930 . S
H1037 C1050 0.930 . S
H1038 C1054 0.959 . S
H1039 C1054 0.959 . S
H1040 C1054 0.961 . S
H1041 C1055 0.960 . S
H1042 C1055 0.961 . S
H1043 C1055 0.959 . S
H1044 C1058 0.929 . S
H1045 C1059 0.931 . S
H1046 C1061 0.930 . S
C1047 H1035 0.930 . S
C1047 C1048 1.399 . S
C1047 C1052 1.399 . S
C1048 C1047 1.399 . S
C1048 C1049 1.376 . S
C1049 H1036 0.930 . S
C1049 C1048 1.376 . S
C1049 C1050 1.388 . S
C1050 H1037 0.930 . S
C1050 C1049 1.388 . S
C1050 C1051 1.390 . S
C1051 C1050 1.390 . S
C1051 C1052 1.394 . S
C1051 C1057 1.465 . S
C1052 C1047 1.399 . S
C1052 C1051 1.394 . S
C1052 C1053 1.516 . S
C1053 C1052 1.516 . S
C1053 C1054 1.502 . S
C1053 C1055 1.561 . S
C1053 C1056 1.526 . S
C1054 H1038 0.959 . S
C1054 H1039 0.959 . S
C1054 H1040 0.961 . S
C1054 C1053 1.502 . S
C1055 H1041 0.960 . S
C1055 H1042 0.961 . S
C1055 H1043 0.959 . S
C1055 C1053 1.561 . S
C1056 C1053 1.526 . S
C1056 C1057 1.396 . S
C1056 C1061 1.390 . S
C1057 C1051 1.465 . S
C1057 C1056 1.396 . S
C1057 C1058 1.399 . S
C1058 H1044 0.929 . S
C1058 C1057 1.399 . S
C1058 C1059 1.385 . S
C1059 H1045 0.931 . S
C1059 C1058 1.385 . S
C1059 C1060 1.389 . S
C1060 C1059 1.389 . S
C1060 C1061 1.387 . S
C1061 H1046 0.930 . S
C1061 C1056 1.390 . S
C1061 C1060 1.387 . S
H1062 C1074 0.930 . S
H1063 C1076 0.930 . S
H1064 C1077 0.930 . S
H1065 C1081 0.959 . S
H1066 C1081 0.959 . S
H1067 C1081 0.961 . S
H1068 C1082 0.960 . S
H1069 C1082 0.961 . S
H1070 C1082 0.959 . S
H1071 C1085 0.929 . S
H1072 C1086 0.931 . S
H1073 C1088 0.930 . S
C1074 H1062 0.930 . S
C1074 C1075 1.399 . S
C1074 C1079 1.399 . S
C1075 C1074 1.399 . S
C1075 C1076 1.376 . S
C1076 H1063 0.930 . S
C1076 C1075 1.376 . S
C1076 C1077 1.388 . S
C1077 H1064 0.930 . S
C1077 C1076 1.388 . S
C1077 C1078 1.390 . S
C1078 C1077 1.390 . S
C1078 C1079 1.394 . S
C1078 C1084 1.465 . S
C1079 C1074 1.399 . S
C1079 C1078 1.394 . S
C1079 C1080 1.516 . S
C1080 C1079 1.516 . S
C1080 C1081 1.502 . S
C1080 C1082 1.561 . S
C1080 C1083 1.526 . S
C1081 H1065 0.959 . S
C1081 H1066 0.959 . S
C1081 H1067 0.961 . S
C1081 C1080 1.502 . S
C1082 H1068 0.960 . S
C1082 H1069 0.961 . S
C1082 H1070 0.959 . S
C1082 C1080 1.561 . S
C1083 C1080 1.526 . S
C1083 C1084 1.396 . S
C1083 C1088 1.390 . S
C1084 C1078 1.465 . S
C1084 C1083 1.396 . S
C1084 C1085 1.399 . S
C1085 H1071 0.929 . S
C1085 C1084 1.399 . S
C1085 C1086 1.385 . S
C1086 H1072 0.931 . S
C1086 C1085 1.385 . S
C1086 C1087 1.389 . S
C1087 C1086 1.389 . S
C1087 C1088 1.387 . S
C1088 H1073 0.930 . S
C1088 C1083 1.390 . S
C1088 C1087 1.387 . S
H1089 C1101 0.930 . S
H1090 C1103 0.930 . S
H1091 C1104 0.930 . S
H1092 C1108 0.959 . S
H1093 C1108 0.959 . S
H1094 C1108 0.961 . S
H1095 C1109 0.960 . S
H1096 C1109 0.961 . S
H1097 C1109 0.959 . S
H1098 C1112 0.929 . S
H1099 C1113 0.931 . S
H1100 C1115 0.930 . S
C1101 H1089 0.930 . S
C1101 C1102 1.399 . S
C1101 C1106 1.399 . S
C1102 C1101 1.399 . S
C1102 C1103 1.376 . S
C1103 H1090 0.930 . S
C1103 C1102 1.376 . S
C1103 C1104 1.388 . S
C1104 H1091 0.930 . S
C1104 C1103 1.388 . S
C1104 C1105 1.390 . S
C1105 C1104 1.390 . S
C1105 C1106 1.394 . S
C1105 C1111 1.465 . S
C1106 C1101 1.399 . S
C1106 C1105 1.394 . S
C1106 C1107 1.516 . S
C1107 C1106 1.516 . S
C1107 C1108 1.502 . S
C1107 C1109 1.561 . S
C1107 C1110 1.526 . S
C1108 H1092 0.959 . S
C1108 H1093 0.959 . S
C1108 H1094 0.961 . S
C1108 C1107 1.502 . S
C1109 H1095 0.960 . S
C1109 H1096 0.961 . S
C1109 H1097 0.959 . S
C1109 C1107 1.561 . S
C1110 C1107 1.526 . S
C1110 C1111 1.396 . S
C1110 C1115 1.390 . S
C1111 C1105 1.465 . S
C1111 C1110 1.396 . S
C1111 C1112 1.399 . S
C1112 H1098 0.929 . S
C1112 C1111 1.399 . S
C1112 C1113 1.385 . S
C1113 H1099 0.931 . S
C1113 C1112 1.385 . S
C1113 C1114 1.389 . S
C1114 C1113 1.389 . S
C1114 C1115 1.387 . S
C1115 H1100 0.930 . S
C1115 C1110 1.390 . S
C1115 C1114 1.387 . S
H1116 C1128 0.930 . S
H1117 C1130 0.930 . S
H1118 C1131 0.930 . S
H1119 C1135 0.959 . S
H1120 C1135 0.959 . S
H1121 C1135 0.961 . S
H1122 C1136 0.960 . S
H1123 C1136 0.961 . S
H1124 C1136 0.959 . S
H1125 C1139 0.929 . S
H1126 C1140 0.931 . S
H1127 C1142 0.930 . S
C1128 H1116 0.930 . S
C1128 C1129 1.399 . S
C1128 C1133 1.399 . S
C1129 C1128 1.399 . S
C1129 C1130 1.376 . S
C1130 H1117 0.930 . S
C1130 C1129 1.376 . S
C1130 C1131 1.388 . S
C1131 H1118 0.930 . S
C1131 C1130 1.388 . S
C1131 C1132 1.390 . S
C1132 C1131 1.390 . S
C1132 C1133 1.394 . S
C1132 C1138 1.465 . S
C1133 C1128 1.399 . S
C1133 C1132 1.394 . S
C1133 C1134 1.516 . S
C1134 C1133 1.516 . S
C1134 C1135 1.502 . S
C1134 C1136 1.561 . S
C1134 C1137 1.526 . S
C1135 H1119 0.959 . S
C1135 H1120 0.959 . S
C1135 H1121 0.961 . S
C1135 C1134 1.502 . S
C1136 H1122 0.960 . S
C1136 H1123 0.961 . S
C1136 H1124 0.959 . S
C1136 C1134 1.561 . S
C1137 C1134 1.526 . S
C1137 C1138 1.396 . S
C1137 C1142 1.390 . S
C1138 C1132 1.465 . S
C1138 C1137 1.396 . S
C1138 C1139 1.399 . S
C1139 H1125 0.929 . S
C1139 C1138 1.399 . S
C1139 C1140 1.385 . S
C1140 H1126 0.931 . S
C1140 C1139 1.385 . S
C1140 C1141 1.389 . S
C1141 C1140 1.389 . S
C1141 C1142 1.387 . S
C1142 H1127 0.930 . S
C1142 C1137 1.390 . S
C1142 C1141 1.387 . S
H1143 C1155 0.930 . S
H1144 C1157 0.930 . S
H1145 C1158 0.930 . S
H1146 C1162 0.959 . S
H1147 C1162 0.959 . S
H1148 C1162 0.961 . S
H1149 C1163 0.960 . S
H1150 C1163 0.961 . S
H1151 C1163 0.959 . S
H1152 C1166 0.929 . S
H1153 C1167 0.931 . S
H1154 C1169 0.930 . S
C1155 H1143 0.930 . S
C1155 C1156 1.399 . S
C1155 C1160 1.399 . S
C1156 C1155 1.399 . S
C1156 C1157 1.376 . S
C1157 H1144 0.930 . S
C1157 C1156 1.376 . S
C1157 C1158 1.388 . S
C1158 H1145 0.930 . S
C1158 C1157 1.388 . S
C1158 C1159 1.390 . S
C1159 C1158 1.390 . S
C1159 C1160 1.394 . S
C1159 C1165 1.465 . S
C1160 C1155 1.399 . S
C1160 C1159 1.394 . S
C1160 C1161 1.516 . S
C1161 C1160 1.516 . S
C1161 C1162 1.502 . S
C1161 C1163 1.561 . S
C1161 C1164 1.526 . S
C1162 H1146 0.959 . S
C1162 H1147 0.959 . S
C1162 H1148 0.961 . S
C1162 C1161 1.502 . S
C1163 H1149 0.960 . S
C1163 H1150 0.961 . S
C1163 H1151 0.959 . S
C1163 C1161 1.561 . S
C1164 C1161 1.526 . S
C1164 C1165 1.396 . S
C1164 C1169 1.390 . S
C1165 C1159 1.465 . S
C1165 C1164 1.396 . S
C1165 C1166 1.399 . S
C1166 H1152 0.929 . S
C1166 C1165 1.399 . S
C1166 C1167 1.385 . S
C1167 H1153 0.931 . S
C1167 C1166 1.385 . S
C1167 C1168 1.389 . S
C1168 C1167 1.389 . S
C1168 C1169 1.387 . S
C1169 H1154 0.930 . S
C1169 C1164 1.390 . S
C1169 C1168 1.387 . S
H1170 C1182 0.930 . S
H1171 C1184 0.930 . S
H1172 C1185 0.930 . S
H1173 C1189 0.959 . S
H1174 C1189 0.959 . S
H1175 C1189 0.961 . S
H1176 C1190 0.960 . S
H1177 C1190 0.961 . S
H1178 C1190 0.959 . S
H1179 C1193 0.929 . S
H1180 C1194 0.931 . S
H1181 C1196 0.930 . S
C1182 H1170 0.930 . S
C1182 C1183 1.399 . S
C1182 C1187 1.399 . S
C1183 C1182 1.399 . S
C1183 C1184 1.376 . S
C1184 H1171 0.930 . S
C1184 C1183 1.376 . S
C1184 C1185 1.388 . S
C1185 H1172 0.930 . S
C1185 C1184 1.388 . S
C1185 C1186 1.390 . S
C1186 C1185 1.390 . S
C1186 C1187 1.394 . S
C1186 C1192 1.465 . S
C1187 C1182 1.399 . S
C1187 C1186 1.394 . S
C1187 C1188 1.516 . S
C1188 C1187 1.516 . S
C1188 C1189 1.502 . S
C1188 C1190 1.561 . S
C1188 C1191 1.526 . S
C1189 H1173 0.959 . S
C1189 H1174 0.959 . S
C1189 H1175 0.961 . S
C1189 C1188 1.502 . S
C1190 H1176 0.960 . S
C1190 H1177 0.961 . S
C1190 H1178 0.959 . S
C1190 C1188 1.561 . S
C1191 C1188 1.526 . S
C1191 C1192 1.396 . S
C1191 C1196 1.390 . S
C1192 C1186 1.465 . S
C1192 C1191 1.396 . S
C1192 C1193 1.399 . S
C1193 H1179 0.929 . S
C1193 C1192 1.399 . S
C1193 C1194 1.385 . S
C1194 H1180 0.931 . S
C1194 C1193 1.385 . S
C1194 C1195 1.389 . S
C1195 C1194 1.389 . S
C1195 C1196 1.387 . S
C1196 H1181 0.930 . S
C1196 C1191 1.390 . S
C1196 C1195 1.387 . S
H1197 C1209 0.930 . S
H1198 C1211 0.930 . S
H1199 C1212 0.930 . S
H1200 C1216 0.959 . S
H1201 C1216 0.959 . S
H1202 C1216 0.961 . S
H1203 C1217 0.960 . S
H1204 C1217 0.961 . S
H1205 C1217 0.959 . S
H1206 C1220 0.929 . S
H1207 C1221 0.931 . S
H1208 C1223 0.930 . S
C1209 H1197 0.930 . S
C1209 C1210 1.399 . S
C1209 C1214 1.399 . S
C1210 C1209 1.399 . S
C1210 C1211 1.376 . S
C1211 H1198 0.930 . S
C1211 C1210 1.376 . S
C1211 C1212 1.388 . S
C1212 H1199 0.930 . S
C1212 C1211 1.388 . S
C1212 C1213 1.390 . S
C1213 C1212 1.390 . S
C1213 C1214 1.394 . S
C1213 C1219 1.465 . S
C1214 C1209 1.399 . S
C1214 C1213 1.394 . S
C1214 C1215 1.516 . S
C1215 C1214 1.516 . S
C1215 C1216 1.502 . S
C1215 C1217 1.561 . S
C1215 C1218 1.526 . S
C1216 H1200 0.959 . S
C1216 H1201 0.959 . S
C1216 H1202 0.961 . S
C1216 C1215 1.502 . S
C1217 H1203 0.960 . S
C1217 H1204 0.961 . S
C1217 H1205 0.959 . S
C1217 C1215 1.561 . S
C1218 C1215 1.526 . S
C1218 C1219 1.396 . S
C1218 C1223 1.390 . S
C1219 C1213 1.465 . S
C1219 C1218 1.396 . S
C1219 C1220 1.399 . S
C1220 H1206 0.929 . S
C1220 C1219 1.399 . S
C1220 C1221 1.385 . S
C1221 H1207 0.931 . S
C1221 C1220 1.385 . S
C1221 C1222 1.389 . S
C1222 C1221 1.389 . S
C1222 C1223 1.387 . S
C1223 H1208 0.930 . S
C1223 C1218 1.390 . S
C1223 C1222 1.387 . S
H1224 C1236 0.930 . S
H1225 C1238 0.930 . S
H1226 C1239 0.930 . S
H1227 C1243 0.959 . S
H1228 C1243 0.959 . S
H1229 C1243 0.961 . S
H1230 C1244 0.960 . S
H1231 C1244 0.961 . S
H1232 C1244 0.959 . S
H1233 C1247 0.929 . S
H1234 C1248 0.931 . S
H1235 C1250 0.930 . S
C1236 H1224 0.930 . S
C1236 C1237 1.399 . S
C1236 C1241 1.399 . S
C1237 C1236 1.399 . S
C1237 C1238 1.376 . S
C1238 H1225 0.930 . S
C1238 C1237 1.376 . S
C1238 C1239 1.388 . S
C1239 H1226 0.930 . S
C1239 C1238 1.388 . S
C1239 C1240 1.390 . S
C1240 C1239 1.390 . S
C1240 C1241 1.394 . S
C1240 C1246 1.465 . S
C1241 C1236 1.399 . S
C1241 C1240 1.394 . S
C1241 C1242 1.516 . S
C1242 C1241 1.516 . S
C1242 C1243 1.502 . S
C1242 C1244 1.561 . S
C1242 C1245 1.526 . S
C1243 H1227 0.959 . S
C1243 H1228 0.959 . S
C1243 H1229 0.961 . S
C1243 C1242 1.502 . S
C1244 H1230 0.960 . S
C1244 H1231 0.961 . S
C1244 H1232 0.959 . S
C1244 C1242 1.561 . S
C1245 C1242 1.526 . S
C1245 C1246 1.396 . S
C1245 C1250 1.390 . S
C1246 C1240 1.465 . S
C1246 C1245 1.396 . S
C1246 C1247 1.399 . S
C1247 H1233 0.929 . S
C1247 C1246 1.399 . S
C1247 C1248 1.385 . S
C1248 H1234 0.931 . S
C1248 C1247 1.385 . S
C1248 C1249 1.389 . S
C1249 C1248 1.389 . S
C1249 C1250 1.387 . S
C1250 H1235 0.930 . S
C1250 C1245 1.390 . S
C1250 C1249 1.387 . S
H1251 C1263 0.930 . S
H1252 C1265 0.930 . S
H1253 C1266 0.930 . S
H1254 C1270 0.959 . S
H1255 C1270 0.959 . S
H1256 C1270 0.961 . S
H1257 C1271 0.960 . S
H1258 C1271 0.961 . S
H1259 C1271 0.959 . S
H1260 C1274 0.929 . S
H1261 C1275 0.931 . S
H1262 C1277 0.930 . S
C1263 H1251 0.930 . S
C1263 C1264 1.399 . S
C1263 C1268 1.399 . S
C1264 C1263 1.399 . S
C1264 C1265 1.376 . S
C1265 H1252 0.930 . S
C1265 C1264 1.376 . S
C1265 C1266 1.388 . S
C1266 H1253 0.930 . S
C1266 C1265 1.388 . S
C1266 C1267 1.390 . S
C1267 C1266 1.390 . S
C1267 C1268 1.394 . S
C1267 C1273 1.465 . S
C1268 C1263 1.399 . S
C1268 C1267 1.394 . S
C1268 C1269 1.516 . S
C1269 C1268 1.516 . S
C1269 C1270 1.502 . S
C1269 C1271 1.561 . S
C1269 C1272 1.526 . S
C1270 H1254 0.959 . S
C1270 H1255 0.959 . S
C1270 H1256 0.961 . S
C1270 C1269 1.502 . S
C1271 H1257 0.960 . S
C1271 H1258 0.961 . S
C1271 H1259 0.959 . S
C1271 C1269 1.561 . S
C1272 C1269 1.526 . S
C1272 C1273 1.396 . S
C1272 C1277 1.390 . S
C1273 C1267 1.465 . S
C1273 C1272 1.396 . S
C1273 C1274 1.399 . S
C1274 H1260 0.929 . S
C1274 C1273 1.399 . S
C1274 C1275 1.385 . S
C1275 H1261 0.931 . S
C1275 C1274 1.385 . S
C1275 C1276 1.389 . S
C1276 C1275 1.389 . S
C1276 C1277 1.387 . S
C1277 H1262 0.930 . S
C1277 C1272 1.390 . S
C1277 C1276 1.387 . S
H1278 C1290 0.930 . S
H1279 C1292 0.930 . S
H1280 C1293 0.930 . S
H1281 C1297 0.959 . S
H1282 C1297 0.959 . S
H1283 C1297 0.961 . S
H1284 C1298 0.960 . S
H1285 C1298 0.961 . S
H1286 C1298 0.959 . S
H1287 C1301 0.929 . S
H1288 C1302 0.931 . S
H1289 C1304 0.930 . S
C1290 H1278 0.930 . S
C1290 C1291 1.399 . S
C1290 C1295 1.399 . S
C1291 C1290 1.399 . S
C1291 C1292 1.376 . S
C1292 H1279 0.930 . S
C1292 C1291 1.376 . S
C1292 C1293 1.388 . S
C1293 H1280 0.930 . S
C1293 C1292 1.388 . S
C1293 C1294 1.390 . S
C1294 C1293 1.390 . S
C1294 C1295 1.394 . S
C1294 C1300 1.465 . S
C1295 C1290 1.399 . S
C1295 C1294 1.394 . S
C1295 C1296 1.516 . S
C1296 C1295 1.516 . S
C1296 C1297 1.502 . S
C1296 C1298 1.561 . S
C1296 C1299 1.526 . S
C1297 H1281 0.959 . S
C1297 H1282 0.959 . S
C1297 H1283 0.961 . S
C1297 C1296 1.502 . S
C1298 H1284 0.960 . S
C1298 H1285 0.961 . S
C1298 H1286 0.959 . S
C1298 C1296 1.561 . S
C1299 C1296 1.526 . S
C1299 C1300 1.396 . S
C1299 C1304 1.390 . S
C1300 C1294 1.465 . S
C1300 C1299 1.396 . S
C1300 C1301 1.399 . S
C1301 H1287 0.929 . S
C1301 C1300 1.399 . S
C1301 C1302 1.385 . S
C1302 H1288 0.931 . S
C1302 C1301 1.385 . S
C1302 C1303 1.389 . S
C1303 C1302 1.389 . S
C1303 C1304 1.387 . S
C1304 H1289 0.930 . S
C1304 C1299 1.390 . S
C1304 C1303 1.387 . S
H1305 C1317 0.930 . S
H1306 C1319 0.930 . S
H1307 C1320 0.930 . S
H1308 C1324 0.959 . S
H1309 C1324 0.959 . S
H1310 C1324 0.961 . S
H1311 C1325 0.960 . S
H1312 C1325 0.961 . S
H1313 C1325 0.959 . S
H1314 C1328 0.929 . S
H1315 C1329 0.931 . S
H1316 C1331 0.930 . S
C1317 H1305 0.930 . S
C1317 C1318 1.399 . S
C1317 C1322 1.399 . S
C1318 C1317 1.399 . S
C1318 C1319 1.376 . S
C1319 H1306 0.930 . S
C1319 C1318 1.376 . S
C1319 C1320 1.388 . S
C1320 H1307 0.930 . S
C1320 C1319 1.388 . S
C1320 C1321 1.390 . S
C1321 C1320 1.390 . S
C1321 C1322 1.394 . S
C1321 C1327 1.465 . S
C1322 C1317 1.399 . S
C1322 C1321 1.394 . S
C1322 C1323 1.516 . S
C1323 C1322 1.516 . S
C1323 C1324 1.502 . S
C1323 C1325 1.561 . S
C1323 C1326 1.526 . S
C1324 H1308 0.959 . S
C1324 H1309 0.959 . S
C1324 H1310 0.961 . S
C1324 C1323 1.502 . S
C1325 H1311 0.960 . S
C1325 H1312 0.961 . S
C1325 H1313 0.959 . S
C1325 C1323 1.561 . S
C1326 C1323 1.526 . S
C1326 C1327 1.396 . S
C1326 C1331 1.390 . S
C1327 C1321 1.465 . S
C1327 C1326 1.396 . S
C1327 C1328 1.399 . S
C1328 H1314 0.929 . S
C1328 C1327 1.399 . S
C1328 C1329 1.385 . S
C1329 H1315 0.931 . S
C1329 C1328 1.385 . S
C1329 C1330 1.389 . S
C1330 C1329 1.389 . S
C1330 C1331 1.387 . S
C1331 H1316 0.930 . S
C1331 C1326 1.390 . S
C1331 C1330 1.387 . S
H1332 C1344 0.930 . S
H1333 C1346 0.930 . S
H1334 C1347 0.930 . S
H1335 C1351 0.959 . S
H1336 C1351 0.959 . S
H1337 C1351 0.961 . S
H1338 C1352 0.960 . S
H1339 C1352 0.961 . S
H1340 C1352 0.959 . S
H1341 C1355 0.929 . S
H1342 C1356 0.931 . S
H1343 C1358 0.930 . S
C1344 H1332 0.930 . S
C1344 C1345 1.399 . S
C1344 C1349 1.399 . S
C1345 C1344 1.399 . S
C1345 C1346 1.376 . S
C1346 H1333 0.930 . S
C1346 C1345 1.376 . S
C1346 C1347 1.388 . S
C1347 H1334 0.930 . S
C1347 C1346 1.388 . S
C1347 C1348 1.390 . S
C1348 C1347 1.390 . S
C1348 C1349 1.394 . S
C1348 C1354 1.465 . S
C1349 C1344 1.399 . S
C1349 C1348 1.394 . S
C1349 C1350 1.516 . S
C1350 C1349 1.516 . S
C1350 C1351 1.502 . S
C1350 C1352 1.561 . S
C1350 C1353 1.526 . S
C1351 H1335 0.959 . S
C1351 H1336 0.959 . S
C1351 H1337 0.961 . S
C1351 C1350 1.502 . S
C1352 H1338 0.960 . S
C1352 H1339 0.961 . S
C1352 H1340 0.959 . S
C1352 C1350 1.561 . S
C1353 C1350 1.526 . S
C1353 C1354 1.396 . S
C1353 C1358 1.390 . S
C1354 C1348 1.465 . S
C1354 C1353 1.396 . S
C1354 C1355 1.399 . S
C1355 H1341 0.929 . S
C1355 C1354 1.399 . S
C1355 C1356 1.385 . S
C1356 H1342 0.931 . S
C1356 C1355 1.385 . S
C1356 C1357 1.389 . S
C1357 C1356 1.389 . S
C1357 C1358 1.387 . S
C1358 H1343 0.930 . S
C1358 C1353 1.390 . S
C1358 C1357 1.387 . S
H1359 C1371 0.930 . S
H1360 C1373 0.930 . S
H1361 C1374 0.930 . S
H1362 C1378 0.959 . S
H1363 C1378 0.959 . S
H1364 C1378 0.961 . S
H1365 C1379 0.960 . S
H1366 C1379 0.961 . S
H1367 C1379 0.959 . S
H1368 C1382 0.929 . S
H1369 C1383 0.931 . S
H1370 C1385 0.930 . S
C1371 H1359 0.930 . S
C1371 C1372 1.399 . S
C1371 C1376 1.399 . S
C1372 C1371 1.399 . S
C1372 C1373 1.376 . S
C1373 H1360 0.930 . S
C1373 C1372 1.376 . S
C1373 C1374 1.388 . S
C1374 H1361 0.930 . S
C1374 C1373 1.388 . S
C1374 C1375 1.390 . S
C1375 C1374 1.390 . S
C1375 C1376 1.394 . S
C1375 C1381 1.465 . S
C1376 C1371 1.399 . S
C1376 C1375 1.394 . S
C1376 C1377 1.516 . S
C1377 C1376 1.516 . S
C1377 C1378 1.502 . S
C1377 C1379 1.561 . S
C1377 C1380 1.526 . S
C1378 H1362 0.959 . S
C1378 H1363 0.959 . S
C1378 H1364 0.961 . S
C1378 C1377 1.502 . S
C1379 H1365 0.960 . S
C1379 H1366 0.961 . S
C1379 H1367 0.959 . S
C1379 C1377 1.561 . S
C1380 C1377 1.526 . S
C1380 C1381 1.396 . S
C1380 C1385 1.390 . S
C1381 C1375 1.465 . S
C1381 C1380 1.396 . S
C1381 C1382 1.399 . S
C1382 H1368 0.929 . S
C1382 C1381 1.399 . S
C1382 C1383 1.385 . S
C1383 H1369 0.931 . S
C1383 C1382 1.385 . S
C1383 C1384 1.389 . S
C1384 C1383 1.389 . S
C1384 C1385 1.387 . S
C1385 H1370 0.930 . S
C1385 C1380 1.390 . S
C1385 C1384 1.387 . S
H1386 C1398 0.930 . S
H1387 C1400 0.930 . S
H1388 C1401 0.930 . S
H1389 C1405 0.959 . S
H1390 C1405 0.959 . S
H1391 C1405 0.961 . S
H1392 C1406 0.960 . S
H1393 C1406 0.961 . S
H1394 C1406 0.959 . S
H1395 C1409 0.929 . S
H1396 C1410 0.931 . S
H1397 C1412 0.930 . S
C1398 H1386 0.930 . S
C1398 C1399 1.399 . S
C1398 C1403 1.399 . S
C1399 C1398 1.399 . S
C1399 C1400 1.376 . S
C1400 H1387 0.930 . S
C1400 C1399 1.376 . S
C1400 C1401 1.388 . S
C1401 H1388 0.930 . S
C1401 C1400 1.388 . S
C1401 C1402 1.390 . S
C1402 C1401 1.390 . S
C1402 C1403 1.394 . S
C1402 C1408 1.465 . S
C1403 C1398 1.399 . S
C1403 C1402 1.394 . S
C1403 C1404 1.516 . S
C1404 C1403 1.516 . S
C1404 C1405 1.502 . S
C1404 C1406 1.561 . S
C1404 C1407 1.526 . S
C1405 H1389 0.959 . S
C1405 H1390 0.959 . S
C1405 H1391 0.961 . S
C1405 C1404 1.502 . S
C1406 H1392 0.960 . S
C1406 H1393 0.961 . S
C1406 H1394 0.959 . S
C1406 C1404 1.561 . S
C1407 C1404 1.526 . S
C1407 C1408 1.396 . S
C1407 C1412 1.390 . S
C1408 C1402 1.465 . S
C1408 C1407 1.396 . S
C1408 C1409 1.399 . S
C1409 H1395 0.929 . S
C1409 C1408 1.399 . S
C1409 C1410 1.385 . S
C1410 H1396 0.931 . S
C1410 C1409 1.385 . S
C1410 C1411 1.389 . S
C1411 C1410 1.389 . S
C1411 C1412 1.387 . S
C1412 H1397 0.930 . S
C1412 C1407 1.390 . S
C1412 C1411 1.387 . S
H1413 C1425 0.930 . S
H1414 C1427 0.930 . S
H1415 C1428 0.930 . S
H1416 C1432 0.959 . S
H1417 C1432 0.959 . S
H1418 C1432 0.961 . S
H1419 C1433 0.960 . S
H1420 C1433 0.961 . S
H1421 C1433 0.959 . S
H1422 C1436 0.929 . S
H1423 C1437 0.931 . S
H1424 C1439 0.930 . S
C1425 H1413 0.930 . S
C1425 C1426 1.399 . S
C1425 C1430 1.399 . S
C1426 C1425 1.399 . S
C1426 C1427 1.376 . S
C1427 H1414 0.930 . S
C1427 C1426 1.376 . S
C1427 C1428 1.388 . S
C1428 H1415 0.930 . S
C1428 C1427 1.388 . S
C1428 C1429 1.390 . S
C1429 C1428 1.390 . S
C1429 C1430 1.394 . S
C1429 C1435 1.465 . S
C1430 C1425 1.399 . S
C1430 C1429 1.394 . S
C1430 C1431 1.516 . S
C1431 C1430 1.516 . S
C1431 C1432 1.502 . S
C1431 C1433 1.561 . S
C1431 C1434 1.526 . S
C1432 H1416 0.959 . S
C1432 H1417 0.959 . S
C1432 H1418 0.961 . S
C1432 C1431 1.502 . S
C1433 H1419 0.960 . S
C1433 H1420 0.961 . S
C1433 H1421 0.959 . S
C1433 C1431 1.561 . S
C1434 C1431 1.526 . S
C1434 C1435 1.396 . S
C1434 C1439 1.390 . S
C1435 C1429 1.465 . S
C1435 C1434 1.396 . S
C1435 C1436 1.399 . S
C1436 H1422 0.929 . S
C1436 C1435 1.399 . S
C1436 C1437 1.385 . S
C1437 H1423 0.931 . S
C1437 C1436 1.385 . S
C1437 C1438 1.389 . S
C1438 C1437 1.389 . S
C1438 C1439 1.387 . S
C1439 H1424 0.930 . S
C1439 C1434 1.390 . S
C1439 C1438 1.387 . S
H1440 C1452 0.930 . S
H1441 C1454 0.930 . S
H1442 C1455 0.930 . S
H1443 C1459 0.959 . S
H1444 C1459 0.959 . S
H1445 C1459 0.961 . S
H1446 C1460 0.960 . S
H1447 C1460 0.961 . S
H1448 C1460 0.959 . S
H1449 C1463 0.929 . S
H1450 C1464 0.931 . S
H1451 C1466 0.930 . S
C1452 H1440 0.930 . S
C1452 C1453 1.399 . S
C1452 C1457 1.399 . S
C1453 C1452 1.399 . S
C1453 C1454 1.376 . S
C1454 H1441 0.930 . S
C1454 C1453 1.376 . S
C1454 C1455 1.388 . S
C1455 H1442 0.930 . S
C1455 C1454 1.388 . S
C1455 C1456 1.390 . S
C1456 C1455 1.390 . S
C1456 C1457 1.394 . S
C1456 C1462 1.465 . S
C1457 C1452 1.399 . S
C1457 C1456 1.394 . S
C1457 C1458 1.516 . S
C1458 C1457 1.516 . S
C1458 C1459 1.502 . S
C1458 C1460 1.561 . S
C1458 C1461 1.526 . S
C1459 H1443 0.959 . S
C1459 H1444 0.959 . S
C1459 H1445 0.961 . S
C1459 C1458 1.502 . S
C1460 H1446 0.960 . S
C1460 H1447 0.961 . S
C1460 H1448 0.959 . S
C1460 C1458 1.561 . S
C1461 C1458 1.526 . S
C1461 C1462 1.396 . S
C1461 C1466 1.390 . S
C1462 C1456 1.465 . S
C1462 C1461 1.396 . S
C1462 C1463 1.399 . S
C1463 H1449 0.929 . S
C1463 C1462 1.399 . S
C1463 C1464 1.385 . S
C1464 H1450 0.931 . S
C1464 C1463 1.385 . S
C1464 C1465 1.389 . S
C1465 C1464 1.389 . S
C1465 C1466 1.387 . S
C1466 H1451 0.930 . S
C1466 C1461 1.390 . S
C1466 C1465 1.387 . S
H1467 C1479 0.930 . S
H1468 C1481 0.930 . S
H1469 C1482 0.930 . S
H1470 C1486 0.959 . S
H1471 C1486 0.959 . S
H1472 C1486 0.961 . S
H1473 C1487 0.960 . S
H1474 C1487 0.961 . S
H1475 C1487 0.959 . S
H1476 C1490 0.929 . S
H1477 C1491 0.931 . S
H1478 C1493 0.930 . S
C1479 H1467 0.930 . S
C1479 C1480 1.399 . S
C1479 C1484 1.399 . S
C1480 C1479 1.399 . S
C1480 C1481 1.376 . S
C1481 H1468 0.930 . S
C1481 C1480 1.376 . S
C1481 C1482 1.388 . S
C1482 H1469 0.930 . S
C1482 C1481 1.388 . S
C1482 C1483 1.390 . S
C1483 C1482 1.390 . S
C1483 C1484 1.394 . S
C1483 C1489 1.465 . S
C1484 C1479 1.399 . S
C1484 C1483 1.394 . S
C1484 C1485 1.516 . S
C1485 C1484 1.516 . S
C1485 C1486 1.502 . S
C1485 C1487 1.561 . S
C1485 C1488 1.526 . S
C1486 H1470 0.959 . S
C1486 H1471 0.959 . S
C1486 H1472 0.961 . S
C1486 C1485 1.502 . S
C1487 H1473 0.960 . S
C1487 H1474 0.961 . S
C1487 H1475 0.959 . S
C1487 C1485 1.561 . S
C1488 C1485 1.526 . S
C1488 C1489 1.396 . S
C1488 C1493 1.390 . S
C1489 C1483 1.465 . S
C1489 C1488 1.396 . S
C1489 C1490 1.399 . S
C1490 H1476 0.929 . S
C1490 C1489 1.399 . S
C1490 C1491 1.385 . S
C1491 H1477 0.931 . S
C1491 C1490 1.385 . S
C1491 C1492 1.389 . S
C1492 C1491 1.389 . S
C1492 C1493 1.387 . S
C1493 H1478 0.930 . S
C1493 C1488 1.390 . S
C1493 C1492 1.387 . S
H1494 C1506 0.930 . S
H1495 C1508 0.930 . S
H1496 C1509 0.930 . S
H1497 C1513 0.959 . S
H1498 C1513 0.959 . S
H1499 C1513 0.961 . S
H1500 C1514 0.960 . S
H1501 C1514 0.961 . S
H1502 C1514 0.959 . S
H1503 C1517 0.929 . S
H1504 C1518 0.931 . S
H1505 C1520 0.930 . S
C1506 H1494 0.930 . S
C1506 C1507 1.399 . S
C1506 C1511 1.399 . S
C1507 C1506 1.399 . S
C1507 C1508 1.376 . S
C1508 H1495 0.930 . S
C1508 C1507 1.376 . S
C1508 C1509 1.388 . S
C1509 H1496 0.930 . S
C1509 C1508 1.388 . S
C1509 C1510 1.390 . S
C1510 C1509 1.390 . S
C1510 C1511 1.394 . S
C1510 C1516 1.465 . S
C1511 C1506 1.399 . S
C1511 C1510 1.394 . S
C1511 C1512 1.516 . S
C1512 C1511 1.516 . S
C1512 C1513 1.502 . S
C1512 C1514 1.561 . S
C1512 C1515 1.526 . S
C1513 H1497 0.959 . S
C1513 H1498 0.959 . S
C1513 H1499 0.961 . S
C1513 C1512 1.502 . S
C1514 H1500 0.960 . S
C1514 H1501 0.961 . S
C1514 H1502 0.959 . S
C1514 C1512 1.561 . S
C1515 C1512 1.526 . S
C1515 C1516 1.396 . S
C1515 C1520 1.390 . S
C1516 C1510 1.465 . S
C1516 C1515 1.396 . S
C1516 C1517 1.399 . S
C1517 H1503 0.929 . S
C1517 C1516 1.399 . S
C1517 C1518 1.385 . S
C1518 H1504 0.931 . S
C1518 C1517 1.385 . S
C1518 C1519 1.389 . S
C1519 C1518 1.389 . S
C1519 C1520 1.387 . S
C1520 H1505 0.930 . S
C1520 C1515 1.390 . S
C1520 C1519 1.387 . S
H1521 C1533 0.930 . S
H1522 C1535 0.930 . S
H1523 C1536 0.930 . S
H1524 C1540 0.959 . S
H1525 C1540 0.959 . S
H1526 C1540 0.961 . S
H1527 C1541 0.960 . S
H1528 C1541 0.961 . S
H1529 C1541 0.959 . S
H1530 C1544 0.929 . S
H1531 C1545 0.931 . S
H1532 C1547 0.930 . S
C1533 H1521 0.930 . S
C1533 C1534 1.399 . S
C1533 C1538 1.399 . S
C1534 C1533 1.399 . S
C1534 C1535 1.376 . S
C1535 H1522 0.930 . S
C1535 C1534 1.376 . S
C1535 C1536 1.388 . S
C1536 H1523 0.930 . S
C1536 C1535 1.388 . S
C1536 C1537 1.390 . S
C1537 C1536 1.390 . S
C1537 C1538 1.394 . S
C1537 C1543 1.465 . S
C1538 C1533 1.399 . S
C1538 C1537 1.394 . S
C1538 C1539 1.516 . S
C1539 C1538 1.516 . S
C1539 C1540 1.502 . S
C1539 C1541 1.561 . S
C1539 C1542 1.526 . S
C1540 H1524 0.959 . S
C1540 H1525 0.959 . S
C1540 H1526 0.961 . S
C1540 C1539 1.502 . S
C1541 H1527 0.960 . S
C1541 H1528 0.961 . S
C1541 H1529 0.959 . S
C1541 C1539 1.561 . S
C1542 C1539 1.526 . S
C1542 C1543 1.396 . S
C1542 C1547 1.390 . S
C1543 C1537 1.465 . S
C1543 C1542 1.396 . S
C1543 C1544 1.399 . S
C1544 H1530 0.929 . S
C1544 C1543 1.399 . S
C1544 C1545 1.385 . S
C1545 H1531 0.931 . S
C1545 C1544 1.385 . S
C1545 C1546 1.389 . S
C1546 C1545 1.389 . S
C1546 C1547 1.387 . S
C1547 H1532 0.930 . S
C1547 C1542 1.390 . S
C1547 C1546 1.387 . S
H1548 C1560 0.930 . S
H1549 C1562 0.930 . S
H1550 C1563 0.930 . S
H1551 C1567 0.959 . S
H1552 C1567 0.959 . S
H1553 C1567 0.961 . S
H1554 C1568 0.960 . S
H1555 C1568 0.961 . S
H1556 C1568 0.959 . S
H1557 C1571 0.929 . S
H1558 C1572 0.931 . S
H1559 C1574 0.930 . S
C1560 H1548 0.930 . S
C1560 C1561 1.399 . S
C1560 C1565 1.399 . S
C1561 C1560 1.399 . S
C1561 C1562 1.376 . S
C1562 H1549 0.930 . S
C1562 C1561 1.376 . S
C1562 C1563 1.388 . S
C1563 H1550 0.930 . S
C1563 C1562 1.388 . S
C1563 C1564 1.390 . S
C1564 C1563 1.390 . S
C1564 C1565 1.394 . S
C1564 C1570 1.465 . S
C1565 C1560 1.399 . S
C1565 C1564 1.394 . S
C1565 C1566 1.516 . S
C1566 C1565 1.516 . S
C1566 C1567 1.502 . S
C1566 C1568 1.561 . S
C1566 C1569 1.526 . S
C1567 H1551 0.959 . S
C1567 H1552 0.959 . S
C1567 H1553 0.961 . S
C1567 C1566 1.502 . S
C1568 H1554 0.960 . S
C1568 H1555 0.961 . S
C1568 H1556 0.959 . S
C1568 C1566 1.561 . S
C1569 C1566 1.526 . S
C1569 C1570 1.396 . S
C1569 C1574 1.390 . S
C1570 C1564 1.465 . S
C1570 C1569 1.396 . S
C1570 C1571 1.399 . S
C1571 H1557 0.929 . S
C1571 C1570 1.399 . S
C1571 C1572 1.385 . S
C1572 H1558 0.931 . S
C1572 C1571 1.385 . S
C1572 C1573 1.389 . S
C1573 C1572 1.389 . S
C1573 C1574 1.387 . S
C1574 H1559 0.930 . S
C1574 C1569 1.390 . S
C1574 C1573 1.387 . S
H1575 C1587 0.930 . S
H1576 C1589 0.930 . S
H1577 C1590 0.930 . S
H1578 C1594 0.959 . S
H1579 C1594 0.959 . S
H1580 C1594 0.961 . S
H1581 C1595 0.960 . S
H1582 C1595 0.961 . S
H1583 C1595 0.959 . S
H1584 C1598 0.929 . S
H1585 C1599 0.931 . S
H1586 C1601 0.930 . S
C1587 H1575 0.930 . S
C1587 C1588 1.399 . S
C1587 C1592 1.399 . S
C1588 C1587 1.399 . S
C1588 C1589 1.376 . S
C1589 H1576 0.930 . S
C1589 C1588 1.376 . S
C1589 C1590 1.388 . S
C1590 H1577 0.930 . S
C1590 C1589 1.388 . S
C1590 C1591 1.390 . S
C1591 C1590 1.390 . S
C1591 C1592 1.394 . S
C1591 C1597 1.465 . S
C1592 C1587 1.399 . S
C1592 C1591 1.394 . S
C1592 C1593 1.516 . S
C1593 C1592 1.516 . S
C1593 C1594 1.502 . S
C1593 C1595 1.561 . S
C1593 C1596 1.526 . S
C1594 H1578 0.959 . S
C1594 H1579 0.959 . S
C1594 H1580 0.961 . S
C1594 C1593 1.502 . S
C1595 H1581 0.960 . S
C1595 H1582 0.961 . S
C1595 H1583 0.959 . S
C1595 C1593 1.561 . S
C1596 C1593 1.526 . S
C1596 C1597 1.396 . S
C1596 C1601 1.390 . S
C1597 C1591 1.465 . S
C1597 C1596 1.396 . S
C1597 C1598 1.399 . S
C1598 H1584 0.929 . S
C1598 C1597 1.399 . S
C1598 C1599 1.385 . S
C1599 H1585 0.931 . S
C1599 C1598 1.385 . S
C1599 C1600 1.389 . S
C1600 C1599 1.389 . S
C1600 C1601 1.387 . S
C1601 H1586 0.930 . S
C1601 C1596 1.390 . S
C1601 C1600 1.387 . S
H1602 C1614 0.930 . S
H1603 C1616 0.930 . S
H1604 C1617 0.930 . S
H1605 C1621 0.959 . S
H1606 C1621 0.959 . S
H1607 C1621 0.961 . S
H1608 C1622 0.960 . S
H1609 C1622 0.961 . S
H1610 C1622 0.959 . S
H1611 C1625 0.929 . S
H1612 C1626 0.931 . S
H1613 C1628 0.930 . S
C1614 H1602 0.930 . S
C1614 C1615 1.399 . S
C1614 C1619 1.399 . S
C1615 C1614 1.399 . S
C1615 C1616 1.376 . S
C1616 H1603 0.930 . S
C1616 C1615 1.376 . S
C1616 C1617 1.388 . S
C1617 H1604 0.930 . S
C1617 C1616 1.388 . S
C1617 C1618 1.390 . S
C1618 C1617 1.390 . S
C1618 C1619 1.394 . S
C1618 C1624 1.465 . S
C1619 C1614 1.399 . S
C1619 C1618 1.394 . S
C1619 C1620 1.516 . S
C1620 C1619 1.516 . S
C1620 C1621 1.502 . S
C1620 C1622 1.561 . S
C1620 C1623 1.526 . S
C1621 H1605 0.959 . S
C1621 H1606 0.959 . S
C1621 H1607 0.961 . S
C1621 C1620 1.502 . S
C1622 H1608 0.960 . S
C1622 H1609 0.961 . S
C1622 H1610 0.959 . S
C1622 C1620 1.561 . S
C1623 C1620 1.526 . S
C1623 C1624 1.396 . S
C1623 C1628 1.390 . S
C1624 C1618 1.465 . S
C1624 C1623 1.396 . S
C1624 C1625 1.399 . S
C1625 H1611 0.929 . S
C1625 C1624 1.399 . S
C1625 C1626 1.385 . S
C1626 H1612 0.931 . S
C1626 C1625 1.385 . S
C1626 C1627 1.389 . S
C1627 C1626 1.389 . S
C1627 C1628 1.387 . S
C1628 H1613 0.930 . S
C1628 C1623 1.390 . S
C1628 C1627 1.387 . S
H1629 C1641 0.930 . S
H1630 C1643 0.930 . S
H1631 C1644 0.930 . S
H1632 C1648 0.959 . S
H1633 C1648 0.959 . S
H1634 C1648 0.961 . S
H1635 C1649 0.960 . S
H1636 C1649 0.961 . S
H1637 C1649 0.959 . S
H1638 C1652 0.929 . S
H1639 C1653 0.931 . S
H1640 C1655 0.930 . S
C1641 H1629 0.930 . S
C1641 C1642 1.399 . S
C1641 C1646 1.399 . S
C1642 C1641 1.399 . S
C1642 C1643 1.376 . S
C1643 H1630 0.930 . S
C1643 C1642 1.376 . S
C1643 C1644 1.388 . S
C1644 H1631 0.930 . S
C1644 C1643 1.388 . S
C1644 C1645 1.390 . S
C1645 C1644 1.390 . S
C1645 C1646 1.394 . S
C1645 C1651 1.465 . S
C1646 C1641 1.399 . S
C1646 C1645 1.394 . S
C1646 C1647 1.516 . S
C1647 C1646 1.516 . S
C1647 C1648 1.502 . S
C1647 C1649 1.561 . S
C1647 C1650 1.526 . S
C1648 H1632 0.959 . S
C1648 H1633 0.959 . S
C1648 H1634 0.961 . S
C1648 C1647 1.502 . S
C1649 H1635 0.960 . S
C1649 H1636 0.961 . S
C1649 H1637 0.959 . S
C1649 C1647 1.561 . S
C1650 C1647 1.526 . S
C1650 C1651 1.396 . S
C1650 C1655 1.390 . S
C1651 C1645 1.465 . S
C1651 C1650 1.396 . S
C1651 C1652 1.399 . S
C1652 H1638 0.929 . S
C1652 C1651 1.399 . S
C1652 C1653 1.385 . S
C1653 H1639 0.931 . S
C1653 C1652 1.385 . S
C1653 C1654 1.389 . S
C1654 C1653 1.389 . S
C1654 C1655 1.387 . S
C1655 H1640 0.930 . S
C1655 C1650 1.390 . S
C1655 C1654 1.387 . S
H1656 C1668 0.930 . S
H1657 C1670 0.930 . S
H1658 C1671 0.930 . S
H1659 C1675 0.959 . S
H1660 C1675 0.959 . S
H1661 C1675 0.961 . S
H1662 C1676 0.960 1_556 S
H1663 C1676 0.961 . S
H1664 C1676 0.959 . S
H1665 C1679 0.929 . S
H1666 C1680 0.931 . S
H1667 C1682 0.930 . S
C1668 H1656 0.930 . S
C1668 C1669 1.399 . S
C1668 C1673 1.399 . S
C1669 C1668 1.399 . S
C1669 C1670 1.376 . S
C1670 H1657 0.930 . S
C1670 C1669 1.376 . S
C1670 C1671 1.388 . S
C1671 H1658 0.930 . S
C1671 C1670 1.388 . S
C1671 C1672 1.390 . S
C1672 C1671 1.390 . S
C1672 C1673 1.394 . S
C1672 C1678 1.465 . S
C1673 C1668 1.399 . S
C1673 C1672 1.394 . S
C1673 C1674 1.516 . S
C1674 C1673 1.516 . S
C1674 C1675 1.502 . S
C1674 C1676 1.561 . S
C1674 C1677 1.526 . S
C1675 H1659 0.959 . S
C1675 H1660 0.959 . S
C1675 H1661 0.961 . S
C1675 C1674 1.502 . S
C1676 H1662 0.960 1_554 S
C1676 H1663 0.961 . S
C1676 H1664 0.959 . S
C1676 C1674 1.561 . S
C1677 C1674 1.526 . S
C1677 C1678 1.396 . S
C1677 C1682 1.390 . S
C1678 C1672 1.465 . S
C1678 C1677 1.396 . S
C1678 C1679 1.399 . S
C1679 H1665 0.929 . S
C1679 C1678 1.399 . S
C1679 C1680 1.385 . S
C1680 H1666 0.931 . S
C1680 C1679 1.385 . S
C1680 C1681 1.389 . S
C1681 C1680 1.389 . S
C1681 C1682 1.387 . S
C1682 H1667 0.930 . S
C1682 C1677 1.390 . S
C1682 C1681 1.387 . S
H1683 C1695 0.930 . S
H1684 C1697 0.930 . S
H1685 C1698 0.930 . S
H1686 C1702 0.959 . S
H1687 C1702 0.959 . S
H1688 C1702 0.961 . S
H1689 C1703 0.960 . S
H1690 C1703 0.961 . S
H1691 C1703 0.959 . S
H1692 C1706 0.929 . S
H1693 C1707 0.931 . S
H1694 C1709 0.930 . S
C1695 H1683 0.930 . S
C1695 C1696 1.399 . S
C1695 C1700 1.399 . S
C1696 C1695 1.399 . S
C1696 C1697 1.376 1_556 S
C1697 H1684 0.930 . S
C1697 C1696 1.376 1_554 S
C1697 C1698 1.388 . S
C1698 H1685 0.930 . S
C1698 C1697 1.388 . S
C1698 C1699 1.390 1_554 S
C1699 C1698 1.390 1_556 S
C1699 C1700 1.394 . S
C1699 C1705 1.465 . S
C1700 C1695 1.399 . S
C1700 C1699 1.394 . S
C1700 C1701 1.516 . S
C1701 C1700 1.516 . S
C1701 C1702 1.502 . S
C1701 C1703 1.561 . S
C1701 C1704 1.526 . S
C1702 H1686 0.959 . S
C1702 H1687 0.959 . S
C1702 H1688 0.961 . S
C1702 C1701 1.502 . S
C1703 H1689 0.960 . S
C1703 H1690 0.961 . S
C1703 H1691 0.959 . S
C1703 C1701 1.561 . S
C1704 C1701 1.526 . S
C1704 C1705 1.396 . S
C1704 C1709 1.390 . S
C1705 C1699 1.465 . S
C1705 C1704 1.396 . S
C1705 C1706 1.399 . S
C1706 H1692 0.929 . S
C1706 C1705 1.399 . S
C1706 C1707 1.385 . S
C1707 H1693 0.931 . S
C1707 C1706 1.385 . S
C1707 C1708 1.389 . S
C1708 C1707 1.389 . S
C1708 C1709 1.387 . S
C1709 H1694 0.930 . S
C1709 C1704 1.390 . S
C1709 C1708 1.387 . S
H1710 C1722 0.930 . S
H1711 C1724 0.930 . S
H1712 C1725 0.930 . S
H1713 C1729 0.959 . S
H1714 C1729 0.959 . S
H1715 C1729 0.961 . S
H1716 C1730 0.960 . S
H1717 C1730 0.961 . S
H1718 C1730 0.959 . S
H1719 C1733 0.929 . S
H1720 C1734 0.931 . S
H1721 C1736 0.930 . S
C1722 H1710 0.930 . S
C1722 C1723 1.399 . S
C1722 C1727 1.399 . S
C1723 C1722 1.399 . S
C1723 C1724 1.376 1_556 S
C1724 H1711 0.930 . S
C1724 C1723 1.376 1_554 S
C1724 C1725 1.388 . S
C1725 H1712 0.930 . S
C1725 C1724 1.388 . S
C1725 C1726 1.390 1_554 S
C1726 C1725 1.390 1_556 S
C1726 C1727 1.394 . S
C1726 C1732 1.465 . S
C1727 C1722 1.399 . S
C1727 C1726 1.394 . S
C1727 C1728 1.516 . S
C1728 C1727 1.516 . S
C1728 C1729 1.502 . S
C1728 C1730 1.561 . S
C1728 C1731 1.526 . S
C1729 H1713 0.959 . S
C1729 H1714 0.959 . S
C1729 H1715 0.961 . S
C1729 C1728 1.502 . S
C1730 H1716 0.960 . S
C1730 H1717 0.961 . S
C1730 H1718 0.959 . S
C1730 C1728 1.561 . S
C1731 C1728 1.526 . S
C1731 C1732 1.396 . S
C1731 C1736 1.390 . S
C1732 C1726 1.465 . S
C1732 C1731 1.396 . S
C1732 C1733 1.399 . S
C1733 H1719 0.929 . S
C1733 C1732 1.399 . S
C1733 C1734 1.385 . S
C1734 H1720 0.931 . S
C1734 C1733 1.385 . S
C1734 C1735 1.389 . S
C1735 C1734 1.389 . S
C1735 C1736 1.387 . S
C1736 H1721 0.930 . S
C1736 C1731 1.390 . S
C1736 C1735 1.387 . S
H1737 C1749 0.930 . S
H1738 C1751 0.930 . S
H1739 C1752 0.930 . S
H1740 C1756 0.959 . S
H1741 C1756 0.959 . S
H1742 C1756 0.961 . S
H1743 C1757 0.960 . S
H1744 C1757 0.961 . S
H1745 C1757 0.959 . S
H1746 C1760 0.929 . S
H1747 C1761 0.931 . S
H1748 C1763 0.930 . S
C1749 H1737 0.930 . S
C1749 C1750 1.399 . S
C1749 C1754 1.399 . S
C1750 C1749 1.399 . S
C1750 C1751 1.376 . S
C1751 H1738 0.930 . S
C1751 C1750 1.376 . S
C1751 C1752 1.388 . S
C1752 H1739 0.930 . S
C1752 C1751 1.388 . S
C1752 C1753 1.390 . S
C1753 C1752 1.390 . S
C1753 C1754 1.394 . S
C1753 C1759 1.465 . S
C1754 C1749 1.399 . S
C1754 C1753 1.394 . S
C1754 C1755 1.516 . S
C1755 C1754 1.516 . S
C1755 C1756 1.502 . S
C1755 C1757 1.561 . S
C1755 C1758 1.526 . S
C1756 H1740 0.959 . S
C1756 H1741 0.959 . S
C1756 H1742 0.961 . S
C1756 C1755 1.502 . S
C1757 H1743 0.960 . S
C1757 H1744 0.961 . S
C1757 H1745 0.959 . S
C1757 C1755 1.561 . S
C1758 C1755 1.526 . S
C1758 C1759 1.396 . S
C1758 C1763 1.390 . S
C1759 C1753 1.465 . S
C1759 C1758 1.396 . S
C1759 C1760 1.399 . S
C1760 H1746 0.929 . S
C1760 C1759 1.399 . S
C1760 C1761 1.385 . S
C1761 H1747 0.931 . S
C1761 C1760 1.385 . S
C1761 C1762 1.389 . S
C1762 C1761 1.389 . S
C1762 C1763 1.387 . S
C1763 H1748 0.930 . S
C1763 C1758 1.390 . S
C1763 C1762 1.387 . S
H1764 C1776 0.930 1_554 S
H1765 C1778 0.930 . S
H1766 C1779 0.930 . S
H1767 C1783 0.959 . S
H1768 C1783 0.959 . S
H1769 C1783 0.961 . S
H1770 C1784 0.960 1_554 S
H1771 C1784 0.961 . S
H1772 C1784 0.959 . S
H1773 C1787 0.929 . S
H1774 C1788 0.931 . S
H1775 C1790 0.930 . S
C1776 H1764 0.930 1_556 S
C1776 C1777 1.399 . S
C1776 C1781 1.399 . S
C1777 C1776 1.399 . S
C1777 C1778 1.376 . S
C1778 H1765 0.930 . S
C1778 C1777 1.376 . S
C1778 C1779 1.388 . S
C1779 H1766 0.930 . S
C1779 C1778 1.388 . S
C1779 C1780 1.390 . S
C1780 C1779 1.390 . S
C1780 C1781 1.394 . S
C1780 C1786 1.465 . S
C1781 C1776 1.399 . S
C1781 C1780 1.394 . S
C1781 C1782 1.516 . S
C1782 C1781 1.516 . S
C1782 C1783 1.502 1_556 S
C1782 C1784 1.561 . S
C1782 C1785 1.526 . S
C1783 H1767 0.959 . S
C1783 H1768 0.959 . S
C1783 H1769 0.961 . S
C1783 C1782 1.502 1_554 S
C1784 H1770 0.960 1_556 S
C1784 H1771 0.961 . S
C1784 H1772 0.959 . S
C1784 C1782 1.561 . S
C1785 C1782 1.526 . S
C1785 C1786 1.396 . S
C1785 C1790 1.390 . S
C1786 C1780 1.465 . S
C1786 C1785 1.396 . S
C1786 C1787 1.399 . S
C1787 H1773 0.929 . S
C1787 C1786 1.399 . S
C1787 C1788 1.385 . S
C1788 H1774 0.931 . S
C1788 C1787 1.385 . S
C1788 C1789 1.389 . S
C1789 C1788 1.389 . S
C1789 C1790 1.387 . S
C1790 H1775 0.930 . S
C1790 C1785 1.390 . S
C1790 C1789 1.387 . S
H1791 C1803 0.930 . S
H1792 C1805 0.930 1_554 S
H1793 C1806 0.930 . S
H1794 C1810 0.959 . S
H1795 C1810 0.959 . S
H1796 C1810 0.961 . S
H1797 C1811 0.960 . S
H1798 C1811 0.961 . S
H1799 C1811 0.959 . S
H1800 C1814 0.929 . S
H1801 C1815 0.931 . S
H1802 C1817 0.930 . S
C1803 H1791 0.930 . S
C1803 C1804 1.399 . S
C1803 C1808 1.399 . S
C1804 C1803 1.399 . S
C1804 C1805 1.376 . S
C1805 H1792 0.930 1_556 S
C1805 C1804 1.376 . S
C1805 C1806 1.388 . S
C1806 H1793 0.930 . S
C1806 C1805 1.388 . S
C1806 C1807 1.390 . S
C1807 C1806 1.390 . S
C1807 C1808 1.394 . S
C1807 C1813 1.465 . S
C1808 C1803 1.399 . S
C1808 C1807 1.394 . S
C1808 C1809 1.516 . S
C1809 C1808 1.516 . S
C1809 C1810 1.502 . S
C1809 C1811 1.561 . S
C1809 C1812 1.526 . S
C1810 H1794 0.959 . S
C1810 H1795 0.959 . S
C1810 H1796 0.961 . S
C1810 C1809 1.502 . S
C1811 H1797 0.960 . S
C1811 H1798 0.961 . S
C1811 H1799 0.959 . S
C1811 C1809 1.561 . S
C1812 C1809 1.526 . S
C1812 C1813 1.396 . S
C1812 C1817 1.390 . S
C1813 C1807 1.465 . S
C1813 C1812 1.396 . S
C1813 C1814 1.399 . S
C1814 H1800 0.929 . S
C1814 C1813 1.399 . S
C1814 C1815 1.385 . S
C1815 H1801 0.931 . S
C1815 C1814 1.385 . S
C1815 C1816 1.389 . S
C1816 C1815 1.389 . S
C1816 C1817 1.387 . S
C1817 H1802 0.930 . S
C1817 C1812 1.390 . S
C1817 C1816 1.387 . S
H1818 C1830 0.939 . S
H1819 C1832 0.930 . S
H1820 C1833 0.930 . S
H1821 C1837 0.930 1_556 S
H1822 C1837 0.969 . S
H1823 C1837 0.990 . S
H1824 C1838 0.960 . S
H1825 C1838 0.961 . S
H1826 C1838 0.959 . S
H1827 C1841 0.929 . S
H1828 C1842 0.931 . S
H1829 C1844 0.930 . S
C1830 H1818 0.939 . S
C1830 C1831 1.396 1_554 S
C1830 C1835 1.394 1_554 S
C1831 C1830 1.396 1_556 S
C1831 C1832 1.376 . S
C1832 H1819 0.930 . S
C1832 C1831 1.376 . S
C1832 C1833 1.388 . S
C1833 H1820 0.930 . S
C1833 C1832 1.388 . S
C1833 C1834 1.390 . S
C1834 C1833 1.390 . S
C1834 C1835 1.394 . S
C1834 C1840 1.465 . S
C1835 C1830 1.394 1_556 S
C1835 C1834 1.394 . S
C1835 C1836 1.516 . S
C1836 C1835 1.516 . S
C1836 C1837 1.492 1_556 S
C1836 C1838 1.561 1_556 S
C1836 C1839 1.526 . S
C1837 H1821 0.930 1_554 S
C1837 H1822 0.969 . S
C1837 H1823 0.990 . S
C1837 C1836 1.492 1_554 S
C1838 H1824 0.960 . S
C1838 H1825 0.961 . S
C1838 H1826 0.959 . S
C1838 C1836 1.561 1_554 S
C1839 C1836 1.526 . S
C1839 C1840 1.396 . S
C1839 C1844 1.390 . S
C1840 C1834 1.465 . S
C1840 C1839 1.396 . S
C1840 C1841 1.399 . S
C1841 H1827 0.929 . S
C1841 C1840 1.399 . S
C1841 C1842 1.385 . S
C1842 H1828 0.931 . S
C1842 C1841 1.385 . S
C1842 C1843 1.389 . S
C1843 C1842 1.389 . S
C1843 C1844 1.387 . S
C1844 H1829 0.930 . S
C1844 C1839 1.390 . S
C1844 C1843 1.387 . S
H1845 C1857 0.930 . S
H1846 C1859 0.930 . S
H1847 C1860 0.930 . S
H1848 C1864 0.959 . S
H1849 C1864 0.959 . S
H1850 C1864 0.961 . S
H1851 C1865 0.960 1_556 S
H1852 C1865 0.961 . S
H1853 C1865 0.959 . S
H1854 C1868 0.929 . S
H1855 C1869 0.931 . S
H1856 C1871 0.930 . S
C1857 H1845 0.930 . S
C1857 C1858 1.399 . S
C1857 C1862 1.399 . S
C1858 C1857 1.399 . S
C1858 C1859 1.376 . S
C1859 H1846 0.930 . S
C1859 C1858 1.376 . S
C1859 C1860 1.388 . S
C1860 H1847 0.930 . S
C1860 C1859 1.388 . S
C1860 C1861 1.390 . S
C1861 C1860 1.390 . S
C1861 C1862 1.394 . S
C1861 C1867 1.465 . S
C1862 C1857 1.399 . S
C1862 C1861 1.394 . S
C1862 C1863 1.516 . S
C1863 C1862 1.516 . S
C1863 C1864 1.502 . S
C1863 C1865 1.561 . S
C1863 C1866 1.526 . S
C1864 H1848 0.959 . S
C1864 H1849 0.959 . S
C1864 H1850 0.961 . S
C1864 C1863 1.502 . S
C1865 H1851 0.960 1_554 S
C1865 H1852 0.961 . S
C1865 H1853 0.959 . S
C1865 C1863 1.561 . S
C1866 C1863 1.526 . S
C1866 C1867 1.396 . S
C1866 C1871 1.390 . S
C1867 C1861 1.465 . S
C1867 C1866 1.396 . S
C1867 C1868 1.399 . S
C1868 H1854 0.929 . S
C1868 C1867 1.399 . S
C1868 C1869 1.385 . S
C1869 H1855 0.931 . S
C1869 C1868 1.385 . S
C1869 C1870 1.389 . S
C1870 C1869 1.389 . S
C1870 C1871 1.387 . S
C1871 H1856 0.930 . S
C1871 C1866 1.390 . S
C1871 C1870 1.387 . S
H1872 C1884 0.930 . S
H1873 C1886 0.930 . S
H1874 C1887 0.930 . S
H1875 C1891 0.959 . S
H1876 C1891 0.959 . S
H1877 C1891 0.961 . S
H1878 C1892 0.960 1_556 S
H1879 C1892 0.961 . S
H1880 C1892 0.959 . S
H1881 C1895 0.929 . S
H1882 C1896 0.931 . S
H1883 C1898 0.930 . S
C1884 H1872 0.930 . S
C1884 C1885 1.399 . S
C1884 C1889 1.399 . S
C1885 C1884 1.399 . S
C1885 C1886 1.376 . S
C1886 H1873 0.930 . S
C1886 C1885 1.376 . S
C1886 C1887 1.388 . S
C1887 H1874 0.930 . S
C1887 C1886 1.388 . S
C1887 C1888 1.390 . S
C1888 C1887 1.390 . S
C1888 C1889 1.394 . S
C1888 C1894 1.465 . S
C1889 C1884 1.399 . S
C1889 C1888 1.394 . S
C1889 C1890 1.516 . S
C1890 C1889 1.516 . S
C1890 C1891 1.502 . S
C1890 C1892 1.561 . S
C1890 C1893 1.526 . S
C1891 H1875 0.959 . S
C1891 H1876 0.959 . S
C1891 H1877 0.961 . S
C1891 C1890 1.502 . S
C1892 H1878 0.960 1_554 S
C1892 H1879 0.961 . S
C1892 H1880 0.959 . S
C1892 C1890 1.561 . S
C1893 C1890 1.526 . S
C1893 C1894 1.396 . S
C1893 C1898 1.390 . S
C1894 C1888 1.465 . S
C1894 C1893 1.396 . S
C1894 C1895 1.399 . S
C1895 H1881 0.929 . S
C1895 C1894 1.399 . S
C1895 C1896 1.385 . S
C1896 H1882 0.931 . S
C1896 C1895 1.385 . S
C1896 C1897 1.389 . S
C1897 C1896 1.389 . S
C1897 C1898 1.387 . S
C1898 H1883 0.930 . S
C1898 C1893 1.390 . S
C1898 C1897 1.387 . S
H1899 C1911 0.930 . S
H1900 C1913 0.930 . S
H1901 C1914 0.930 . S
H1902 C1918 0.959 . S
H1903 C1918 0.959 . S
H1904 C1918 0.961 . S
H1905 C1919 0.960 . S
H1906 C1919 0.961 . S
H1907 C1919 0.959 . S
H1908 C1922 0.929 . S
H1909 C1923 0.931 . S
H1910 C1925 0.930 . S
C1911 H1899 0.930 . S
C1911 C1912 1.399 . S
C1911 C1916 1.399 . S
C1912 C1911 1.399 . S
C1912 C1913 1.376 . S
C1913 H1900 0.930 . S
C1913 C1912 1.376 . S
C1913 C1914 1.388 . S
C1914 H1901 0.930 . S
C1914 C1913 1.388 . S
C1914 C1915 1.390 . S
C1915 C1914 1.390 . S
C1915 C1916 1.394 . S
C1915 C1921 1.465 . S
C1916 C1911 1.399 . S
C1916 C1915 1.394 . S
C1916 C1917 1.516 . S
C1917 C1916 1.516 . S
C1917 C1918 1.502 . S
C1917 C1919 1.561 . S
C1917 C1920 1.526 . S
C1918 H1902 0.959 . S
C1918 H1903 0.959 . S
C1918 H1904 0.961 . S
C1918 C1917 1.502 . S
C1919 H1905 0.960 . S
C1919 H1906 0.961 . S
C1919 H1907 0.959 . S
C1919 C1917 1.561 . S
C1920 C1917 1.526 . S
C1920 C1921 1.396 . S
C1920 C1925 1.390 . S
C1921 C1915 1.465 . S
C1921 C1920 1.396 . S
C1921 C1922 1.399 . S
C1922 H1908 0.929 . S
C1922 C1921 1.399 . S
C1922 C1923 1.385 . S
C1923 H1909 0.931 . S
C1923 C1922 1.385 . S
C1923 C1924 1.389 . S
C1924 C1923 1.389 . S
C1924 C1925 1.387 . S
C1925 H1910 0.930 . S
C1925 C1920 1.390 . S
C1925 C1924 1.387 . S
H1926 C1938 0.930 . S
H1927 C1940 0.930 . S
H1928 C1941 0.930 . S
H1929 C1945 0.959 . S
H1930 C1945 0.959 . S
H1931 C1945 0.961 . S
H1932 C1946 0.960 . S
H1933 C1946 0.961 . S
H1934 C1946 0.959 . S
H1935 C1949 0.929 . S
H1936 C1950 0.931 . S
H1937 C1952 0.930 . S
C1938 H1926 0.930 . S
C1938 C1939 1.399 . S
C1938 C1943 1.399 . S
C1939 C1938 1.399 . S
C1939 C1940 1.376 . S
C1940 H1927 0.930 . S
C1940 C1939 1.376 . S
C1940 C1941 1.388 . S
C1941 H1928 0.930 . S
C1941 C1940 1.388 . S
C1941 C1942 1.390 . S
C1942 C1941 1.390 . S
C1942 C1943 1.394 . S
C1942 C1948 1.465 . S
C1943 C1938 1.399 . S
C1943 C1942 1.394 . S
C1943 C1944 1.516 . S
C1944 C1943 1.516 . S
C1944 C1945 1.502 . S
C1944 C1946 1.561 . S
C1944 C1947 1.526 . S
C1945 H1929 0.959 . S
C1945 H1930 0.959 . S
C1945 H1931 0.961 . S
C1945 C1944 1.502 . S
C1946 H1932 0.960 . S
C1946 H1933 0.961 . S
C1946 H1934 0.959 . S
C1946 C1944 1.561 . S
C1947 C1944 1.526 . S
C1947 C1948 1.396 . S
C1947 C1952 1.390 . S
C1948 C1942 1.465 . S
C1948 C1947 1.396 . S
C1948 C1949 1.399 . S
C1949 H1935 0.929 . S
C1949 C1948 1.399 . S
C1949 C1950 1.385 . S
C1950 H1936 0.931 . S
C1950 C1949 1.385 . S
C1950 C1951 1.389 . S
C1951 C1950 1.389 . S
C1951 C1952 1.387 . S
C1952 H1937 0.930 . S
C1952 C1947 1.390 . S
C1952 C1951 1.387 . S
H1953 C1965 0.930 . S
H1954 C1967 0.930 . S
H1955 C1968 0.930 . S
H1956 C1972 0.959 . S
H1957 C1972 0.959 . S
H1958 C1972 0.961 . S
H1959 C1973 0.960 . S
H1960 C1973 0.961 . S
H1961 C1973 0.959 . S
H1962 C1976 0.929 . S
H1963 C1977 0.931 . S
H1964 C1979 0.930 . S
C1965 H1953 0.930 . S
C1965 C1966 1.399 . S
C1965 C1970 1.399 . S
C1966 C1965 1.399 . S
C1966 C1967 1.376 . S
C1967 H1954 0.930 . S
C1967 C1966 1.376 . S
C1967 C1968 1.388 . S
C1968 H1955 0.930 . S
C1968 C1967 1.388 . S
C1968 C1969 1.390 . S
C1969 C1968 1.390 . S
C1969 C1970 1.394 . S
C1969 C1975 1.465 . S
C1970 C1965 1.399 . S
C1970 C1969 1.394 . S
C1970 C1971 1.516 . S
C1971 C1970 1.516 . S
C1971 C1972 1.502 . S
C1971 C1973 1.561 . S
C1971 C1974 1.526 . S
C1972 H1956 0.959 . S
C1972 H1957 0.959 . S
C1972 H1958 0.961 . S
C1972 C1971 1.502 . S
C1973 H1959 0.960 . S
C1973 H1960 0.961 . S
C1973 H1961 0.959 . S
C1973 C1971 1.561 . S
C1974 C1971 1.526 . S
C1974 C1975 1.396 . S
C1974 C1979 1.390 . S
C1975 C1969 1.465 . S
C1975 C1974 1.396 . S
C1975 C1976 1.399 . S
C1976 H1962 0.929 . S
C1976 C1975 1.399 . S
C1976 C1977 1.385 . S
C1977 H1963 0.931 . S
C1977 C1976 1.385 . S
C1977 C1978 1.389 . S
C1978 C1977 1.389 . S
C1978 C1979 1.387 . S
C1979 H1964 0.930 . S
C1979 C1974 1.390 . S
C1979 C1978 1.387 . S
H1980 C1992 0.930 . S
H1981 C1994 0.930 . S
H1982 C1995 0.930 . S
H1983 C1999 0.959 . S
H1984 C1999 0.959 . S
H1985 C1999 0.961 . S
H1986 C2000 0.960 . S
H1987 C2000 0.961 . S
H1988 C2000 0.959 . S
H1989 C2003 0.929 . S
H1990 C2004 0.931 . S
H1991 C2006 0.930 . S
C1992 H1980 0.930 . S
C1992 C1993 1.399 . S
C1992 C1997 1.399 . S
C1993 C1992 1.399 . S
C1993 C1994 1.376 . S
C1994 H1981 0.930 . S
C1994 C1993 1.376 . S
C1994 C1995 1.388 . S
C1995 H1982 0.930 . S
C1995 C1994 1.388 . S
C1995 C1996 1.390 . S
C1996 C1995 1.390 . S
C1996 C1997 1.394 . S
C1996 C2002 1.465 . S
C1997 C1992 1.399 . S
C1997 C1996 1.394 . S
C1997 C1998 1.516 . S
C1998 C1997 1.516 . S
C1998 C1999 1.502 . S
C1998 C2000 1.561 . S
C1998 C2001 1.526 . S
C1999 H1983 0.959 . S
C1999 H1984 0.959 . S
C1999 H1985 0.961 . S
C1999 C1998 1.502 . S
C2000 H1986 0.960 . S
C2000 H1987 0.961 . S
C2000 H1988 0.959 . S
C2000 C1998 1.561 . S
C2001 C1998 1.526 . S
C2001 C2002 1.396 . S
C2001 C2006 1.390 . S
C2002 C1996 1.465 . S
C2002 C2001 1.396 . S
C2002 C2003 1.399 . S
C2003 H1989 0.929 . S
C2003 C2002 1.399 . S
C2003 C2004 1.385 . S
C2004 H1990 0.931 . S
C2004 C2003 1.385 . S
C2004 C2005 1.389 . S
C2005 C2004 1.389 . S
C2005 C2006 1.387 . S
C2006 H1991 0.930 . S
C2006 C2001 1.390 . S
C2006 C2005 1.387 . S
H2007 C2019 0.930 . S
H2008 C2021 0.930 . S
H2009 C2022 0.929 1_655 S
H2010 C2026 0.959 . S
H2011 C2026 0.959 . S
H2012 C2026 0.961 . S
H2013 C2027 0.972 . S
H2014 C2027 0.961 . S
H2015 C2027 0.959 . S
H2016 C2030 0.937 . S
H2017 C2031 0.954 . S
H2018 C2033 0.930 . S
C2019 H2007 0.930 . S
C2019 C2020 1.399 . S
C2019 C2024 1.399 . S
C2020 C2019 1.399 . S
C2020 C2021 1.376 . S
C2021 H2008 0.930 . S
C2021 C2020 1.376 . S
C2021 C2022 1.388 . S
C2022 H2009 0.929 1_455 S
C2022 C2021 1.388 . S
C2022 C2023 1.390 . S
C2023 C2022 1.390 . S
C2023 C2024 1.394 . S
C2023 C2029 1.465 . S
C2024 C2019 1.399 . S
C2024 C2023 1.394 . S
C2024 C2025 1.516 . S
C2025 C2024 1.516 . S
C2025 C2026 1.502 . S
C2025 C2027 1.561 1_455 S
C2025 C2028 1.526 . S
C2026 H2010 0.959 . S
C2026 H2011 0.959 . S
C2026 H2012 0.961 . S
C2026 C2025 1.502 . S
C2027 H2013 0.972 . S
C2027 H2014 0.961 . S
C2027 H2015 0.959 . S
C2027 C2025 1.561 1_655 S
C2028 C2025 1.526 . S
C2028 C2029 1.396 . S
C2028 C2033 1.390 . S
C2029 C2023 1.465 . S
C2029 C2028 1.396 . S
C2029 C2030 1.380 1_455 S
C2030 H2016 0.937 . S
C2030 C2029 1.380 1_655 S
C2030 C2031 1.383 . S
C2031 H2017 0.954 . S
C2031 C2030 1.383 . S
C2031 C2032 1.383 1_655 S
C2032 C2031 1.383 1_455 S
C2032 C2033 1.387 . S
C2033 H2018 0.930 . S
C2033 C2028 1.390 . S
C2033 C2032 1.387 . S
H2034 C2046 0.930 . S
H2035 C2048 0.930 . S
H2036 C2049 0.930 . S
H2037 C2053 0.959 . S
H2038 C2053 0.959 . S
H2039 C2053 0.961 . S
H2040 C2054 0.960 . S
H2041 C2054 0.961 . S
H2042 C2054 0.959 . S
H2043 C2057 0.929 . S
H2044 C2058 0.931 . S
H2045 C2060 0.930 . S
C2046 H2034 0.930 . S
C2046 C2047 1.399 . S
C2046 C2051 1.399 . S
C2047 C2046 1.399 . S
C2047 C2048 1.376 . S
C2048 H2035 0.930 . S
C2048 C2047 1.376 . S
C2048 C2049 1.388 . S
C2049 H2036 0.930 . S
C2049 C2048 1.388 . S
C2049 C2050 1.390 . S
C2050 C2049 1.390 . S
C2050 C2051 1.394 . S
C2050 C2056 1.465 . S
C2051 C2046 1.399 . S
C2051 C2050 1.394 . S
C2051 C2052 1.516 . S
C2052 C2051 1.516 . S
C2052 C2053 1.502 . S
C2052 C2054 1.561 . S
C2052 C2055 1.526 . S
C2053 H2037 0.959 . S
C2053 H2038 0.959 . S
C2053 H2039 0.961 . S
C2053 C2052 1.502 . S
C2054 H2040 0.960 . S
C2054 H2041 0.961 . S
C2054 H2042 0.959 . S
C2054 C2052 1.561 . S
C2055 C2052 1.526 . S
C2055 C2056 1.396 . S
C2055 C2060 1.390 . S
C2056 C2050 1.465 . S
C2056 C2055 1.396 . S
C2056 C2057 1.399 . S
C2057 H2043 0.929 . S
C2057 C2056 1.399 . S
C2057 C2058 1.385 . S
C2058 H2044 0.931 . S
C2058 C2057 1.385 . S
C2058 C2059 1.389 . S
C2059 C2058 1.389 . S
C2059 C2060 1.387 . S
C2060 H2045 0.930 . S
C2060 C2055 1.390 . S
C2060 C2059 1.387 . S
H2061 C2073 0.930 . S
H2062 C2075 0.930 . S
H2063 C2076 0.930 . S
H2064 C2080 0.959 . S
H2065 C2080 0.959 . S
H2066 C2080 0.961 . S
H2067 C2081 0.960 . S
H2068 C2081 0.961 . S
H2069 C2081 0.959 . S
H2070 C2084 0.929 . S
H2071 C2085 0.931 . S
H2072 C2087 0.930 . S
C2073 H2061 0.930 . S
C2073 C2074 1.399 . S
C2073 C2078 1.399 . S
C2074 C2073 1.399 . S
C2074 C2075 1.376 1_565 S
C2075 H2062 0.930 . S
C2075 C2074 1.376 1_545 S
C2075 C2076 1.388 . S
C2076 H2063 0.930 . S
C2076 C2075 1.388 . S
C2076 C2077 1.415 . S
C2077 C2076 1.415 . S
C2077 C2078 1.375 1_545 S
C2077 C2083 1.455 . S
C2078 C2073 1.399 . S
C2078 C2077 1.375 1_565 S
C2078 C2079 1.516 . S
C2079 C2078 1.516 . S
C2079 C2080 1.502 . S
C2079 C2081 1.561 . S
C2079 C2082 1.526 . S
C2080 H2064 0.959 . S
C2080 H2065 0.959 . S
C2080 H2066 0.961 . S
C2080 C2079 1.502 . S
C2081 H2067 0.960 . S
C2081 H2068 0.961 . S
C2081 H2069 0.959 . S
C2081 C2079 1.561 . S
C2082 C2079 1.526 . S
C2082 C2083 1.396 1_565 S
C2082 C2087 1.390 . S
C2083 C2077 1.455 . S
C2083 C2082 1.396 1_545 S
C2083 C2084 1.399 . S
C2084 H2070 0.929 . S
C2084 C2083 1.399 . S
C2084 C2085 1.385 . S
C2085 H2071 0.931 . S
C2085 C2084 1.385 . S
C2085 C2086 1.389 1_545 S
C2086 C2085 1.389 1_565 S
C2086 C2087 1.387 . S
C2087 H2072 0.930 . S
C2087 C2082 1.390 . S
C2087 C2086 1.387 . S
H2088 C2100 0.930 . S
H2089 C2102 0.930 . S
H2090 C2103 0.930 . S
H2091 C2107 0.959 . S
H2092 C2107 0.959 . S
H2093 C2107 0.961 . S
H2094 C2108 0.960 . S
H2095 C2108 0.961 . S
H2096 C2108 0.959 . S
H2097 C2111 0.929 . S
H2098 C2112 0.931 . S
H2099 C2114 0.930 . S
C2100 H2088 0.930 . S
C2100 C2101 1.399 . S
C2100 C2105 1.399 . S
C2101 C2100 1.399 . S
C2101 C2102 1.376 . S
C2102 H2089 0.930 . S
C2102 C2101 1.376 . S
C2102 C2103 1.388 . S
C2103 H2090 0.930 . S
C2103 C2102 1.388 . S
C2103 C2104 1.390 . S
C2104 C2103 1.390 . S
C2104 C2105 1.394 . S
C2104 C2110 1.465 . S
C2105 C2100 1.399 . S
C2105 C2104 1.394 . S
C2105 C2106 1.516 1_565 S
C2106 C2105 1.516 1_545 S
C2106 C2107 1.502 . S
C2106 C2108 1.561 1_545 S
C2106 C2109 1.526 1_545 S
C2107 H2091 0.959 . S
C2107 H2092 0.959 . S
C2107 H2093 0.961 . S
C2107 C2106 1.502 . S
C2108 H2094 0.960 . S
C2108 H2095 0.961 . S
C2108 H2096 0.959 . S
C2108 C2106 1.561 1_565 S
C2109 C2106 1.526 1_565 S
C2109 C2110 1.396 . S
C2109 C2114 1.390 1_565 S
C2110 C2104 1.465 . S
C2110 C2109 1.396 . S
C2110 C2111 1.399 . S
C2111 H2097 0.929 . S
C2111 C2110 1.399 . S
C2111 C2112 1.385 . S
C2112 H2098 0.931 . S
C2112 C2111 1.385 . S
C2112 C2113 1.389 . S
C2113 C2112 1.389 . S
C2113 C2114 1.387 1_565 S
C2114 H2099 0.930 . S
C2114 C2109 1.390 1_545 S
C2114 C2113 1.387 1_545 S
H2115 C2127 0.930 . S
H2116 C2129 0.930 . S
H2117 C2130 0.930 . S
H2118 C2134 0.959 . S
H2119 C2134 0.959 . S
H2120 C2134 0.961 . S
H2121 C2135 0.960 . S
H2122 C2135 0.961 . S
H2123 C2135 0.959 . S
H2124 C2138 0.948 . S
H2125 C2139 0.943 1_655 S
H2126 C2141 0.930 . S
C2127 H2115 0.930 . S
C2127 C2128 1.399 . S
C2127 C2132 1.399 . S
C2128 C2127 1.399 . S
C2128 C2129 1.376 . S
C2129 H2116 0.930 . S
C2129 C2128 1.376 . S
C2129 C2130 1.388 . S
C2130 H2117 0.930 . S
C2130 C2129 1.388 . S
C2130 C2131 1.390 . S
C2131 C2130 1.390 . S
C2131 C2132 1.394 . S
C2131 C2137 1.465 . S
C2132 C2127 1.399 . S
C2132 C2131 1.394 . S
C2132 C2133 1.516 . S
C2133 C2132 1.516 . S
C2133 C2134 1.502 . S
C2133 C2135 1.561 1_455 S
C2133 C2136 1.526 . S
C2134 H2118 0.959 . S
C2134 H2119 0.959 . S
C2134 H2120 0.961 . S
C2134 C2133 1.502 . S
C2135 H2121 0.960 . S
C2135 H2122 0.961 . S
C2135 H2123 0.959 . S
C2135 C2133 1.561 1_655 S
C2136 C2133 1.526 . S
C2136 C2137 1.396 . S
C2136 C2141 1.390 . S
C2137 C2131 1.465 . S
C2137 C2136 1.396 . S
C2137 C2138 1.399 . S
C2138 H2124 0.948 . S
C2138 C2137 1.399 . S
C2138 C2139 1.378 . S
C2139 H2125 0.943 1_455 S
C2139 C2138 1.378 . S
C2139 C2140 1.371 . S
C2140 C2139 1.371 . S
C2140 C2141 1.381 . S
C2141 H2126 0.930 . S
C2141 C2136 1.390 . S
C2141 C2140 1.381 . S
H2142 C2154 0.930 . S
H2143 C2156 0.930 . S
H2144 C2157 0.930 . S
H2145 C2161 0.959 . S
H2146 C2161 0.959 . S
H2147 C2161 0.961 . S
H2148 C2162 0.960 . S
H2149 C2162 0.961 . S
H2150 C2162 0.959 . S
H2151 C2165 0.929 . S
H2152 C2166 0.931 . S
H2153 C2168 0.930 . S
C2154 H2142 0.930 . S
C2154 C2155 1.399 . S
C2154 C2159 1.399 . S
C2155 C2154 1.399 . S
C2155 C2156 1.376 . S
C2156 H2143 0.930 . S
C2156 C2155 1.376 . S
C2156 C2157 1.388 . S
C2157 H2144 0.930 . S
C2157 C2156 1.388 . S
C2157 C2158 1.390 . S
C2158 C2157 1.390 . S
C2158 C2159 1.394 . S
C2158 C2164 1.465 . S
C2159 C2154 1.399 . S
C2159 C2158 1.394 . S
C2159 C2160 1.516 . S
C2160 C2159 1.516 . S
C2160 C2161 1.502 . S
C2160 C2162 1.561 . S
C2160 C2163 1.526 . S
C2161 H2145 0.959 . S
C2161 H2146 0.959 . S
C2161 H2147 0.961 . S
C2161 C2160 1.502 . S
C2162 H2148 0.960 . S
C2162 H2149 0.961 . S
C2162 H2150 0.959 . S
C2162 C2160 1.561 . S
C2163 C2160 1.526 . S
C2163 C2164 1.396 . S
C2163 C2168 1.390 . S
C2164 C2158 1.465 . S
C2164 C2163 1.396 . S
C2164 C2165 1.399 . S
C2165 H2151 0.929 . S
C2165 C2164 1.399 . S
C2165 C2166 1.385 . S
C2166 H2152 0.931 . S
C2166 C2165 1.385 . S
C2166 C2167 1.389 . S
C2167 C2166 1.389 . S
C2167 C2168 1.387 . S
C2168 H2153 0.930 . S
C2168 C2163 1.390 . S
C2168 C2167 1.387 . S
H2169 C2181 0.930 . S
H2170 C2183 0.930 . S
H2171 C2184 0.930 . S
H2172 C2188 0.959 . S
H2173 C2188 0.959 . S
H2174 C2188 0.961 . S
H2175 C2189 0.960 . S
H2176 C2189 0.961 . S
H2177 C2189 0.959 . S
H2178 C2192 0.929 . S
H2179 C2193 0.931 . S
H2180 C2195 0.930 . S
C2181 H2169 0.930 . S
C2181 C2182 1.399 . S
C2181 C2186 1.399 . S
C2182 C2181 1.399 . S
C2182 C2183 1.376 . S
C2183 H2170 0.930 . S
C2183 C2182 1.376 . S
C2183 C2184 1.388 . S
C2184 H2171 0.930 . S
C2184 C2183 1.388 . S
C2184 C2185 1.390 . S
C2185 C2184 1.390 . S
C2185 C2186 1.394 . S
C2185 C2191 1.465 . S
C2186 C2181 1.399 . S
C2186 C2185 1.394 . S
C2186 C2187 1.516 . S
C2187 C2186 1.516 . S
C2187 C2188 1.502 . S
C2187 C2189 1.561 . S
C2187 C2190 1.526 . S
C2188 H2172 0.959 . S
C2188 H2173 0.959 . S
C2188 H2174 0.961 . S
C2188 C2187 1.502 . S
C2189 H2175 0.960 . S
C2189 H2176 0.961 . S
C2189 H2177 0.959 . S
C2189 C2187 1.561 . S
C2190 C2187 1.526 . S
C2190 C2191 1.396 . S
C2190 C2195 1.390 . S
C2191 C2185 1.465 . S
C2191 C2190 1.396 . S
C2191 C2192 1.399 . S
C2192 H2178 0.929 . S
C2192 C2191 1.399 . S
C2192 C2193 1.385 . S
C2193 H2179 0.931 . S
C2193 C2192 1.385 . S
C2193 C2194 1.389 . S
C2194 C2193 1.389 . S
C2194 C2195 1.387 . S
C2195 H2180 0.930 . S
C2195 C2190 1.390 . S
C2195 C2194 1.387 . S
H2196 C2208 0.930 . S
H2197 C2210 0.930 . S
H2198 C2211 0.930 . S
H2199 C2215 0.959 . S
H2200 C2215 0.959 . S
H2201 C2215 0.961 . S
H2202 C2216 0.960 . S
H2203 C2216 0.961 . S
H2204 C2216 0.959 . S
H2205 C2219 0.929 . S
H2206 C2220 0.931 . S
H2207 C2222 0.930 . S
C2208 H2196 0.930 . S
C2208 C2209 1.399 . S
C2208 C2213 1.399 . S
C2209 C2208 1.399 . S
C2209 C2210 1.376 . S
C2210 H2197 0.930 . S
C2210 C2209 1.376 . S
C2210 C2211 1.388 . S
C2211 H2198 0.930 . S
C2211 C2210 1.388 . S
C2211 C2212 1.390 . S
C2212 C2211 1.390 . S
C2212 C2213 1.394 . S
C2212 C2218 1.465 . S
C2213 C2208 1.399 . S
C2213 C2212 1.394 . S
C2213 C2214 1.516 . S
C2214 C2213 1.516 . S
C2214 C2215 1.502 . S
C2214 C2216 1.561 . S
C2214 C2217 1.526 . S
C2215 H2199 0.959 . S
C2215 H2200 0.959 . S
C2215 H2201 0.961 . S
C2215 C2214 1.502 . S
C2216 H2202 0.960 . S
C2216 H2203 0.961 . S
C2216 H2204 0.959 . S
C2216 C2214 1.561 . S
C2217 C2214 1.526 . S
C2217 C2218 1.396 . S
C2217 C2222 1.390 . S
C2218 C2212 1.465 . S
C2218 C2217 1.396 . S
C2218 C2219 1.399 . S
C2219 H2205 0.929 . S
C2219 C2218 1.399 . S
C2219 C2220 1.385 . S
C2220 H2206 0.931 . S
C2220 C2219 1.385 . S
C2220 C2221 1.389 . S
C2221 C2220 1.389 . S
C2221 C2222 1.387 . S
C2222 H2207 0.930 . S
C2222 C2217 1.390 . S
C2222 C2221 1.387 . S
H2223 C2235 0.930 . S
H2224 C2237 0.930 . S
H2225 C2238 0.930 . S
H2226 C2242 0.959 . S
H2227 C2242 0.959 . S
H2228 C2242 0.961 . S
H2229 C2243 0.960 . S
H2230 C2243 0.961 . S
H2231 C2243 0.959 . S
H2232 C2246 0.929 . S
H2233 C2247 0.931 . S
H2234 C2249 0.930 . S
C2235 H2223 0.930 . S
C2235 C2236 1.399 . S
C2235 C2240 1.399 . S
C2236 C2235 1.399 . S
C2236 C2237 1.376 . S
C2237 H2224 0.930 . S
C2237 C2236 1.376 . S
C2237 C2238 1.388 . S
C2238 H2225 0.930 . S
C2238 C2237 1.388 . S
C2238 C2239 1.390 . S
C2239 C2238 1.390 . S
C2239 C2240 1.394 . S
C2239 C2245 1.465 . S
C2240 C2235 1.399 . S
C2240 C2239 1.394 . S
C2240 C2241 1.516 . S
C2241 C2240 1.516 . S
C2241 C2242 1.502 . S
C2241 C2243 1.561 . S
C2241 C2244 1.526 . S
C2242 H2226 0.959 . S
C2242 H2227 0.959 . S
C2242 H2228 0.961 . S
C2242 C2241 1.502 . S
C2243 H2229 0.960 . S
C2243 H2230 0.961 . S
C2243 H2231 0.959 . S
C2243 C2241 1.561 . S
C2244 C2241 1.526 . S
C2244 C2245 1.396 . S
C2244 C2249 1.390 . S
C2245 C2239 1.465 . S
C2245 C2244 1.396 . S
C2245 C2246 1.399 . S
C2246 H2232 0.929 . S
C2246 C2245 1.399 . S
C2246 C2247 1.385 . S
C2247 H2233 0.931 . S
C2247 C2246 1.385 . S
C2247 C2248 1.389 . S
C2248 C2247 1.389 . S
C2248 C2249 1.387 . S
C2249 H2234 0.930 . S
C2249 C2244 1.390 . S
C2249 C2248 1.387 . S
H2250 C2262 0.930 . S
H2251 C2264 0.930 . S
H2252 C2265 0.916 1_565 S
H2253 C2269 0.959 . S
H2254 C2269 0.959 . S
H2255 C2269 0.961 . S
H2256 C2270 0.960 . S
H2257 C2270 0.961 . S
H2258 C2270 0.959 1_565 S
H2259 C2273 0.929 . S
H2260 C2274 0.931 . S
H2261 C2276 0.930 . S
C2262 H2250 0.930 . S
C2262 C2263 1.399 . S
C2262 C2267 1.399 . S
C2263 C2262 1.399 . S
C2263 C2264 1.376 . S
C2264 H2251 0.930 . S
C2264 C2263 1.376 . S
C2264 C2265 1.403 . S
C2265 H2252 0.916 1_545 S
C2265 C2264 1.403 . S
C2265 C2266 1.390 . S
C2266 C2265 1.390 . S
C2266 C2267 1.394 . S
C2266 C2272 1.465 . S
C2267 C2262 1.399 . S
C2267 C2266 1.394 . S
C2267 C2268 1.516 . S
C2268 C2267 1.516 . S
C2268 C2269 1.502 . S
C2268 C2270 1.561 . S
C2268 C2271 1.526 . S
C2269 H2253 0.959 . S
C2269 H2254 0.959 . S
C2269 H2255 0.961 . S
C2269 C2268 1.502 . S
C2270 H2256 0.960 . S
C2270 H2257 0.961 . S
C2270 H2258 0.959 1_545 S
C2270 C2268 1.561 . S
C2271 C2268 1.526 . S
C2271 C2272 1.396 . S
C2271 C2276 1.390 . S
C2272 C2266 1.465 . S
C2272 C2271 1.396 . S
C2272 C2273 1.399 1_545 S
C2273 H2259 0.929 . S
C2273 C2272 1.399 1_565 S
C2273 C2274 1.385 . S
C2274 H2260 0.931 . S
C2274 C2273 1.385 . S
C2274 C2275 1.389 1_565 S
C2275 C2274 1.389 1_545 S
C2275 C2276 1.387 . S
C2276 H2261 0.930 . S
C2276 C2271 1.390 . S
C2276 C2275 1.387 . S
H2277 C2289 0.930 1_455 S
H2278 C2291 0.930 . S
H2279 C2292 0.930 . S
H2280 C2296 0.959 . S
H2281 C2296 0.959 . S
H2282 C2296 0.961 . S
H2283 C2297 0.960 . S
H2284 C2297 0.961 . S
H2285 C2297 0.959 1_655 S
H2286 C2300 0.929 . S
H2287 C2301 0.931 . S
H2288 C2303 0.930 . S
C2289 H2277 0.930 1_655 S
C2289 C2290 1.399 . S
C2289 C2294 1.399 . S
C2290 C2289 1.399 . S
C2290 C2291 1.376 . S
C2291 H2278 0.930 . S
C2291 C2290 1.376 . S
C2291 C2292 1.388 . S
C2292 H2279 0.930 . S
C2292 C2291 1.388 . S
C2292 C2293 1.390 . S
C2293 C2292 1.390 . S
C2293 C2294 1.394 . S
C2293 C2299 1.465 . S
C2294 C2289 1.399 . S
C2294 C2293 1.394 . S
C2294 C2295 1.516 1_655 S
C2295 C2294 1.516 1_455 S
C2295 C2296 1.502 . S
C2295 C2297 1.561 . S
C2295 C2298 1.526 1_455 S
C2296 H2280 0.959 . S
C2296 H2281 0.959 . S
C2296 H2282 0.961 . S
C2296 C2295 1.502 . S
C2297 H2283 0.960 . S
C2297 H2284 0.961 . S
C2297 H2285 0.959 1_455 S
C2297 C2295 1.561 . S
C2298 C2295 1.526 1_655 S
C2298 C2299 1.396 . S
C2298 C2303 1.390 1_655 S
C2299 C2293 1.465 . S
C2299 C2298 1.396 . S
C2299 C2300 1.399 . S
C2300 H2286 0.929 . S
C2300 C2299 1.399 . S
C2300 C2301 1.385 . S
C2301 H2287 0.931 . S
C2301 C2300 1.385 . S
C2301 C2302 1.389 . S
C2302 C2301 1.389 . S
C2302 C2303 1.387 1_655 S
C2303 H2288 0.930 . S
C2303 C2298 1.390 1_455 S
C2303 C2302 1.387 1_455 S
H2304 C2316 0.930 . S
H2305 C2318 0.930 . S
H2306 C2319 0.930 . S
H2307 C2323 0.959 . S
H2308 C2323 0.959 . S
H2309 C2323 0.961 . S
H2310 C2324 0.960 . S
H2311 C2324 0.961 . S
H2312 C2324 0.959 . S
H2313 C2327 0.929 . S
H2314 C2328 0.931 . S
H2315 C2330 0.930 . S
C2316 H2304 0.930 . S
C2316 C2317 1.399 . S
C2316 C2321 1.399 . S
C2317 C2316 1.399 . S
C2317 C2318 1.376 . S
C2318 H2305 0.930 . S
C2318 C2317 1.376 . S
C2318 C2319 1.388 . S
C2319 H2306 0.930 . S
C2319 C2318 1.388 . S
C2319 C2320 1.390 . S
C2320 C2319 1.390 . S
C2320 C2321 1.394 . S
C2320 C2326 1.465 . S
C2321 C2316 1.399 . S
C2321 C2320 1.394 . S
C2321 C2322 1.516 . S
C2322 C2321 1.516 . S
C2322 C2323 1.502 . S
C2322 C2324 1.561 . S
C2322 C2325 1.526 . S
C2323 H2307 0.959 . S
C2323 H2308 0.959 . S
C2323 H2309 0.961 . S
C2323 C2322 1.502 . S
C2324 H2310 0.960 . S
C2324 H2311 0.961 . S
C2324 H2312 0.959 . S
C2324 C2322 1.561 . S
C2325 C2322 1.526 . S
C2325 C2326 1.396 . S
C2325 C2330 1.390 . S
C2326 C2320 1.465 . S
C2326 C2325 1.396 . S
C2326 C2327 1.399 . S
C2327 H2313 0.929 . S
C2327 C2326 1.399 . S
C2327 C2328 1.385 . S
C2328 H2314 0.931 . S
C2328 C2327 1.385 . S
C2328 C2329 1.389 . S
C2329 C2328 1.389 . S
C2329 C2330 1.387 . S
C2330 H2315 0.930 . S
C2330 C2325 1.390 . S
C2330 C2329 1.387 . S
H2331 C2343 0.930 . S
H2332 C2345 0.930 . S
H2333 C2346 0.930 . S
H2334 C2350 0.959 . S
H2335 C2350 0.959 . S
H2336 C2350 0.961 . S
H2337 C2351 0.960 . S
H2338 C2351 0.961 . S
H2339 C2351 0.959 . S
H2340 C2354 0.929 . S
H2341 C2355 0.931 . S
H2342 C2357 0.930 . S
C2343 H2331 0.930 . S
C2343 C2344 1.399 . S
C2343 C2348 1.399 . S
C2344 C2343 1.399 . S
C2344 C2345 1.376 . S
C2345 H2332 0.930 . S
C2345 C2344 1.376 . S
C2345 C2346 1.388 . S
C2346 H2333 0.930 . S
C2346 C2345 1.388 . S
C2346 C2347 1.390 . S
C2347 C2346 1.390 . S
C2347 C2348 1.394 . S
C2347 C2353 1.465 . S
C2348 C2343 1.399 . S
C2348 C2347 1.394 . S
C2348 C2349 1.516 . S
C2349 C2348 1.516 . S
C2349 C2350 1.502 . S
C2349 C2351 1.561 . S
C2349 C2352 1.526 . S
C2350 H2334 0.959 . S
C2350 H2335 0.959 . S
C2350 H2336 0.961 . S
C2350 C2349 1.502 . S
C2351 H2337 0.960 . S
C2351 H2338 0.961 . S
C2351 H2339 0.959 . S
C2351 C2349 1.561 . S
C2352 C2349 1.526 . S
C2352 C2353 1.396 . S
C2352 C2357 1.390 . S
C2353 C2347 1.465 . S
C2353 C2352 1.396 . S
C2353 C2354 1.399 . S
C2354 H2340 0.929 . S
C2354 C2353 1.399 . S
C2354 C2355 1.385 . S
C2355 H2341 0.931 . S
C2355 C2354 1.385 . S
C2355 C2356 1.389 . S
C2356 C2355 1.389 . S
C2356 C2357 1.387 . S
C2357 H2342 0.930 . S
C2357 C2352 1.390 . S
C2357 C2356 1.387 . S
H2358 C2370 0.930 . S
H2359 C2372 0.930 . S
H2360 C2373 0.930 . S
H2361 C2377 0.959 . S
H2362 C2377 0.959 . S
H2363 C2377 0.961 . S
H2364 C2378 0.960 . S
H2365 C2378 0.961 . S
H2366 C2378 0.959 . S
H2367 C2381 0.929 . S
H2368 C2382 0.931 . S
H2369 C2384 0.930 . S
C2370 H2358 0.930 . S
C2370 C2371 1.399 . S
C2370 C2375 1.399 . S
C2371 C2370 1.399 . S
C2371 C2372 1.376 . S
C2372 H2359 0.930 . S
C2372 C2371 1.376 . S
C2372 C2373 1.388 . S
C2373 H2360 0.930 . S
C2373 C2372 1.388 . S
C2373 C2374 1.390 . S
C2374 C2373 1.390 . S
C2374 C2375 1.394 . S
C2374 C2380 1.465 . S
C2375 C2370 1.399 . S
C2375 C2374 1.394 . S
C2375 C2376 1.516 . S
C2376 C2375 1.516 . S
C2376 C2377 1.502 . S
C2376 C2378 1.561 . S
C2376 C2379 1.526 . S
C2377 H2361 0.959 . S
C2377 H2362 0.959 . S
C2377 H2363 0.961 . S
C2377 C2376 1.502 . S
C2378 H2364 0.960 . S
C2378 H2365 0.961 . S
C2378 H2366 0.959 . S
C2378 C2376 1.561 . S
C2379 C2376 1.526 . S
C2379 C2380 1.396 . S
C2379 C2384 1.390 . S
C2380 C2374 1.465 . S
C2380 C2379 1.396 . S
C2380 C2381 1.399 . S
C2381 H2367 0.929 . S
C2381 C2380 1.399 . S
C2381 C2382 1.385 . S
C2382 H2368 0.931 . S
C2382 C2381 1.385 . S
C2382 C2383 1.389 . S
C2383 C2382 1.389 . S
C2383 C2384 1.387 . S
C2384 H2369 0.930 . S
C2384 C2379 1.390 . S
C2384 C2383 1.387 . S
H2385 C2397 0.930 . S
H2386 C2399 0.930 . S
H2387 C2400 0.930 . S
H2388 C2404 0.959 . S
H2389 C2404 0.959 . S
H2390 C2404 0.961 . S
H2391 C2405 0.960 . S
H2392 C2405 0.961 . S
H2393 C2405 0.959 . S
H2394 C2408 0.929 . S
H2395 C2409 0.931 . S
H2396 C2411 0.930 . S
C2397 H2385 0.930 . S
C2397 C2398 1.399 . S
C2397 C2402 1.399 . S
C2398 C2397 1.399 . S
C2398 C2399 1.376 . S
C2399 H2386 0.930 . S
C2399 C2398 1.376 . S
C2399 C2400 1.388 . S
C2400 H2387 0.930 . S
C2400 C2399 1.388 . S
C2400 C2401 1.390 . S
C2401 C2400 1.390 . S
C2401 C2402 1.394 . S
C2401 C2407 1.465 . S
C2402 C2397 1.399 . S
C2402 C2401 1.394 . S
C2402 C2403 1.516 . S
C2403 C2402 1.516 . S
C2403 C2404 1.502 . S
C2403 C2405 1.561 . S
C2403 C2406 1.526 . S
C2404 H2388 0.959 . S
C2404 H2389 0.959 . S
C2404 H2390 0.961 . S
C2404 C2403 1.502 . S
C2405 H2391 0.960 . S
C2405 H2392 0.961 . S
C2405 H2393 0.959 . S
C2405 C2403 1.561 . S
C2406 C2403 1.526 . S
C2406 C2407 1.396 . S
C2406 C2411 1.390 . S
C2407 C2401 1.465 . S
C2407 C2406 1.396 . S
C2407 C2408 1.399 . S
C2408 H2394 0.929 . S
C2408 C2407 1.399 . S
C2408 C2409 1.385 . S
C2409 H2395 0.931 . S
C2409 C2408 1.385 . S
C2409 C2410 1.389 . S
C2410 C2409 1.389 . S
C2410 C2411 1.387 . S
C2411 H2396 0.930 . S
C2411 C2406 1.390 . S
C2411 C2410 1.387 . S
H2412 C2424 0.930 . S
H2413 C2426 0.930 . S
H2414 C2427 0.930 . S
H2415 C2431 0.959 . S
H2416 C2431 0.959 . S
H2417 C2431 0.961 . S
H2418 C2432 0.960 . S
H2419 C2432 0.961 . S
H2420 C2432 0.959 . S
H2421 C2435 0.929 . S
H2422 C2436 0.931 . S
H2423 C2438 0.930 . S
C2424 H2412 0.930 . S
C2424 C2425 1.399 . S
C2424 C2429 1.399 . S
C2425 C2424 1.399 . S
C2425 C2426 1.376 . S
C2426 H2413 0.930 . S
C2426 C2425 1.376 . S
C2426 C2427 1.388 . S
C2427 H2414 0.930 . S
C2427 C2426 1.388 . S
C2427 C2428 1.390 . S
C2428 C2427 1.390 . S
C2428 C2429 1.394 . S
C2428 C2434 1.465 . S
C2429 C2424 1.399 . S
C2429 C2428 1.394 . S
C2429 C2430 1.516 . S
C2430 C2429 1.516 . S
C2430 C2431 1.502 . S
C2430 C2432 1.561 . S
C2430 C2433 1.526 . S
C2431 H2415 0.959 . S
C2431 H2416 0.959 . S
C2431 H2417 0.961 . S
C2431 C2430 1.502 . S
C2432 H2418 0.960 . S
C2432 H2419 0.961 . S
C2432 H2420 0.959 . S
C2432 C2430 1.561 . S
C2433 C2430 1.526 . S
C2433 C2434 1.396 . S
C2433 C2438 1.390 . S
C2434 C2428 1.465 . S
C2434 C2433 1.396 . S
C2434 C2435 1.399 . S
C2435 H2421 0.929 . S
C2435 C2434 1.399 . S
C2435 C2436 1.385 . S
C2436 H2422 0.931 . S
C2436 C2435 1.385 . S
C2436 C2437 1.389 . S
C2437 C2436 1.389 . S
C2437 C2438 1.387 . S
C2438 H2423 0.930 . S
C2438 C2433 1.390 . S
C2438 C2437 1.387 . S
H2439 C2451 0.930 . S
H2440 C2453 0.930 . S
H2441 C2454 0.930 . S
H2442 C2458 0.959 . S
H2443 C2458 0.959 . S
H2444 C2458 0.961 . S
H2445 C2459 0.960 . S
H2446 C2459 0.961 . S
H2447 C2459 0.959 . S
H2448 C2462 0.929 . S
H2449 C2463 0.931 . S
H2450 C2465 0.930 . S
C2451 H2439 0.930 . S
C2451 C2452 1.399 . S
C2451 C2456 1.399 . S
C2452 C2451 1.399 . S
C2452 C2453 1.376 . S
C2453 H2440 0.930 . S
C2453 C2452 1.376 . S
C2453 C2454 1.388 . S
C2454 H2441 0.930 . S
C2454 C2453 1.388 . S
C2454 C2455 1.390 . S
C2455 C2454 1.390 . S
C2455 C2456 1.394 . S
C2455 C2461 1.465 . S
C2456 C2451 1.399 . S
C2456 C2455 1.394 . S
C2456 C2457 1.516 . S
C2457 C2456 1.516 . S
C2457 C2458 1.502 . S
C2457 C2459 1.561 . S
C2457 C2460 1.526 . S
C2458 H2442 0.959 . S
C2458 H2443 0.959 . S
C2458 H2444 0.961 . S
C2458 C2457 1.502 . S
C2459 H2445 0.960 . S
C2459 H2446 0.961 . S
C2459 H2447 0.959 . S
C2459 C2457 1.561 . S
C2460 C2457 1.526 . S
C2460 C2461 1.396 . S
C2460 C2465 1.390 . S
C2461 C2455 1.465 . S
C2461 C2460 1.396 . S
C2461 C2462 1.399 . S
C2462 H2448 0.929 . S
C2462 C2461 1.399 . S
C2462 C2463 1.385 . S
C2463 H2449 0.931 . S
C2463 C2462 1.385 . S
C2463 C2464 1.389 . S
C2464 C2463 1.389 . S
C2464 C2465 1.387 . S
C2465 H2450 0.930 . S
C2465 C2460 1.390 . S
C2465 C2464 1.387 . S
H2466 C2478 0.930 . S
H2467 C2480 0.930 . S
H2468 C2481 0.930 . S
H2469 C2485 0.959 . S
H2470 C2485 0.959 . S
H2471 C2485 0.961 . S
H2472 C2486 0.960 . S
H2473 C2486 0.961 . S
H2474 C2486 0.959 . S
H2475 C2489 0.929 . S
H2476 C2490 0.931 . S
H2477 C2492 0.930 . S
C2478 H2466 0.930 . S
C2478 C2479 1.399 . S
C2478 C2483 1.399 . S
C2479 C2478 1.399 . S
C2479 C2480 1.376 . S
C2480 H2467 0.930 . S
C2480 C2479 1.376 . S
C2480 C2481 1.388 . S
C2481 H2468 0.930 . S
C2481 C2480 1.388 . S
C2481 C2482 1.390 . S
C2482 C2481 1.390 . S
C2482 C2483 1.394 . S
C2482 C2488 1.465 . S
C2483 C2478 1.399 . S
C2483 C2482 1.394 . S
C2483 C2484 1.516 . S
C2484 C2483 1.516 . S
C2484 C2485 1.502 . S
C2484 C2486 1.561 . S
C2484 C2487 1.526 . S
C2485 H2469 0.959 . S
C2485 H2470 0.959 . S
C2485 H2471 0.961 . S
C2485 C2484 1.502 . S
C2486 H2472 0.960 . S
C2486 H2473 0.961 . S
C2486 H2474 0.959 . S
C2486 C2484 1.561 . S
C2487 C2484 1.526 . S
C2487 C2488 1.396 . S
C2487 C2492 1.390 . S
C2488 C2482 1.465 . S
C2488 C2487 1.396 . S
C2488 C2489 1.399 . S
C2489 H2475 0.929 . S
C2489 C2488 1.399 . S
C2489 C2490 1.385 . S
C2490 H2476 0.931 . S
C2490 C2489 1.385 . S
C2490 C2491 1.389 . S
C2491 C2490 1.389 . S
C2491 C2492 1.387 . S
C2492 H2477 0.930 . S
C2492 C2487 1.390 . S
C2492 C2491 1.387 . S
H2493 C2505 0.930 . S
H2494 C2507 0.930 . S
H2495 C2508 0.930 . S
H2496 C2512 0.959 . S
H2497 C2512 0.959 . S
H2498 C2512 0.961 . S
H2499 C2513 0.960 . S
H2500 C2513 0.961 . S
H2501 C2513 0.959 . S
H2502 C2516 0.929 . S
H2503 C2517 0.931 . S
H2504 C2519 0.935 . S
C2505 H2493 0.930 . S
C2505 C2506 1.399 . S
C2505 C2510 1.399 . S
C2506 C2505 1.399 . S
C2506 C2507 1.376 . S
C2507 H2494 0.930 . S
C2507 C2506 1.376 . S
C2507 C2508 1.388 . S
C2508 H2495 0.930 . S
C2508 C2507 1.388 . S
C2508 C2509 1.390 . S
C2509 C2508 1.390 . S
C2509 C2510 1.394 . S
C2509 C2515 1.465 . S
C2510 C2505 1.399 . S
C2510 C2509 1.394 . S
C2510 C2511 1.516 . S
C2511 C2510 1.516 . S
C2511 C2512 1.502 1_655 S
C2511 C2513 1.561 . S
C2511 C2514 1.526 . S
C2512 H2496 0.959 . S
C2512 H2497 0.959 . S
C2512 H2498 0.961 . S
C2512 C2511 1.502 1_455 S
C2513 H2499 0.960 . S
C2513 H2500 0.961 . S
C2513 H2501 0.959 . S
C2513 C2511 1.561 . S
C2514 C2511 1.526 . S
C2514 C2515 1.396 . S
C2514 C2519 1.380 1_655 S
C2515 C2509 1.465 . S
C2515 C2514 1.396 . S
C2515 C2516 1.399 . S
C2516 H2502 0.929 . S
C2516 C2515 1.399 . S
C2516 C2517 1.385 . S
C2517 H2503 0.931 . S
C2517 C2516 1.385 . S
C2517 C2518 1.389 . S
C2518 C2517 1.389 . S
C2518 C2519 1.392 1_655 S
C2519 H2504 0.935 . S
C2519 C2514 1.380 1_455 S
C2519 C2518 1.392 1_455 S
H2520 C2532 0.930 . S
H2521 C2534 0.930 . S
H2522 C2535 0.930 . S
H2523 C2539 0.959 . S
H2524 C2539 0.959 . S
H2525 C2539 0.961 . S
H2526 C2540 0.960 . S
H2527 C2540 0.961 . S
H2528 C2540 0.959 . S
H2529 C2543 0.929 . S
H2530 C2544 0.931 . S
H2531 C2546 0.930 . S
C2532 H2520 0.930 . S
C2532 C2533 1.399 . S
C2532 C2537 1.399 . S
C2533 C2532 1.399 . S
C2533 C2534 1.376 . S
C2534 H2521 0.930 . S
C2534 C2533 1.376 . S
C2534 C2535 1.388 . S
C2535 H2522 0.930 . S
C2535 C2534 1.388 . S
C2535 C2536 1.390 . S
C2536 C2535 1.390 . S
C2536 C2537 1.394 . S
C2536 C2542 1.465 . S
C2537 C2532 1.399 . S
C2537 C2536 1.394 . S
C2537 C2538 1.516 . S
C2538 C2537 1.516 . S
C2538 C2539 1.502 . S
C2538 C2540 1.561 . S
C2538 C2541 1.526 . S
C2539 H2523 0.959 . S
C2539 H2524 0.959 . S
C2539 H2525 0.961 . S
C2539 C2538 1.502 . S
C2540 H2526 0.960 . S
C2540 H2527 0.961 . S
C2540 H2528 0.959 . S
C2540 C2538 1.561 . S
C2541 C2538 1.526 . S
C2541 C2542 1.396 . S
C2541 C2546 1.390 . S
C2542 C2536 1.465 . S
C2542 C2541 1.396 . S
C2542 C2543 1.399 . S
C2543 H2529 0.929 . S
C2543 C2542 1.399 . S
C2543 C2544 1.385 . S
C2544 H2530 0.931 . S
C2544 C2543 1.385 . S
C2544 C2545 1.389 . S
C2545 C2544 1.389 . S
C2545 C2546 1.387 . S
C2546 H2531 0.930 . S
C2546 C2541 1.390 . S
C2546 C2545 1.387 . S
H2547 C2559 0.930 . S
H2548 C2561 0.930 . S
H2549 C2562 0.930 . S
H2550 C2566 0.959 . S
H2551 C2566 0.959 . S
H2552 C2566 0.961 . S
H2553 C2567 0.960 . S
H2554 C2567 0.961 . S
H2555 C2567 0.959 . S
H2556 C2570 0.929 . S
H2557 C2571 0.931 . S
H2558 C2573 0.930 . S
C2559 H2547 0.930 . S
C2559 C2560 1.399 . S
C2559 C2564 1.399 . S
C2560 C2559 1.399 . S
C2560 C2561 1.376 1_545 S
C2561 H2548 0.930 . S
C2561 C2560 1.376 1_565 S
C2561 C2562 1.388 . S
C2562 H2549 0.930 . S
C2562 C2561 1.388 . S
C2562 C2563 1.344 1_565 S
C2563 C2562 1.344 1_545 S
C2563 C2564 1.430 . S
C2563 C2569 1.486 1_545 S
C2564 C2559 1.399 . S
C2564 C2563 1.430 . S
C2564 C2565 1.516 . S
C2565 C2564 1.516 . S
C2565 C2566 1.502 . S
C2565 C2567 1.561 . S
C2565 C2568 1.526 . S
C2566 H2550 0.959 . S
C2566 H2551 0.959 . S
C2566 H2552 0.961 . S
C2566 C2565 1.502 . S
C2567 H2553 0.960 . S
C2567 H2554 0.961 . S
C2567 H2555 0.959 . S
C2567 C2565 1.561 . S
C2568 C2565 1.526 . S
C2568 C2569 1.396 1_545 S
C2568 C2573 1.390 . S
C2569 C2563 1.486 1_565 S
C2569 C2568 1.396 1_565 S
C2569 C2570 1.399 . S
C2570 H2556 0.929 . S
C2570 C2569 1.399 . S
C2570 C2571 1.385 . S
C2571 H2557 0.931 . S
C2571 C2570 1.385 . S
C2571 C2572 1.408 . S
C2572 C2571 1.408 . S
C2572 C2573 1.379 1_565 S
C2573 H2558 0.930 . S
C2573 C2568 1.390 . S
C2573 C2572 1.379 1_545 S
C643 C13 1.443 . S
C655 C458 1.564 1_655 S
C670 C27 1.414 . S
C682 C471 1.399 . S
C709 C500 1.484 1_545 S
C697 C36 1.512 . S
C724 C41 1.504 . S
C736 C513 1.496 . S
C751 C8 1.513 . S
C763 C534 1.647 . S
C778 C22 1.434 . S
C790 C563 1.471 . S
C805 C55 1.541 . S
C817 C542 1.516 . S
C844 C555 1.383 . S
C832 C69 1.438 . S
C871 C521 1.545 1_545 S
C859 C78 1.426 . S
C886 C83 1.405 . S
C898 C492 1.529 1_545 S
C925 C450 1.644 1_655 S
C913 C50 1.560 . S
C940 C64 1.468 . S
C952 C479 1.470 . S
C967 C97 1.540 . S
C979 C584 1.532 . S
C994 C111 1.417 . S
C1006 C597 1.422 . S
C1033 C626 1.560 . S
C1021 C120 1.477 . S
C1048 C125 1.419 . S
C1060 C261 1.540 . S
C1075 C92 1.648 . S
C1087 C282 1.651 . S
C1102 C106 1.431 . S
C1114 C311 1.525 . S
C1129 C139 1.447 . S
C1141 C290 1.577 . S
C1156 C153 1.443 . S
C1168 C303 1.396 . S
C1195 C269 1.573 . S
C1183 C162 1.446 . S
C1222 C618 1.525 . S
C1210 C167 1.483 . S
C1249 C576 1.653 . S
C1237 C134 1.593 . S
C1276 C605 1.546 . S
C1264 C148 1.446 . S
C1291 C181 1.517 . S
C1303 C332 1.505 . S
C1318 C195 1.452 . S
C1330 C345 1.447 . S
C1345 C204 1.465 . S
C1357 C374 1.559 . S
C1372 C209 1.430 . S
C1384 C387 1.542 . S
C1411 C408 1.702 . S
C1399 C176 1.582 . S
C1438 C437 1.494 . S
C1426 C190 1.455 . S
C1465 C416 1.595 . S
C1453 C223 1.461 . S
C1492 C429 1.406 . S
C1480 C237 1.456 . S
C1507 C246 1.534 . S
C1519 C395 1.502 . S
C1546 C366 1.531 . S
C1534 C251 1.423 . S
C1561 C218 1.571 . S
C1573 C324 1.588 . S
C1600 C353 1.491 . S
C1588 C232 1.503 . S
C1627 C264 1.239 . S
C1615 C11 1.381 . S
C1642 C25 1.291 . S
C1654 C285 1.257 . S
C1681 C313 1.212 . S
C1669 C35 1.355 . S
C1708 C334 1.319 . S
C1696 C39 1.345 . S
C1735 C348 1.371 . S
C1723 C7 1.466 . S
C1762 C376 1.258 . S
C1750 C21 1.360 . S
C1777 C53 1.411 . S
C1789 C369 1.203 . S
C1804 C67 1.315 . S
C1816 C327 1.144 . S
C1831 C77 1.369 1_556 S
C1843 C355 1.239 . S
C1858 C81 1.373 . S
C1870 C292 1.280 . S
C1897 C306 1.273 . S
C1885 C49 1.473 . S
C1912 C63 1.376 . S
C1924 C271 1.320 . S
C1951 C390 1.310 . S
C1939 C95 1.402 . S
C1966 C109 1.296 . S
C1978 C411 1.239 . S
C1993 C119 1.398 . S
C2005 C439 1.256 . S
C2032 C460 1.279 . S
C2020 C123 1.300 . S
C2047 C91 1.448 . S
C2059 C474 1.310 . S
C2074 C105 1.330 . S
C2086 C502 1.243 . S
C2101 C137 1.376 . S
C2113 C495 1.255 . S
C2128 C151 1.224 . S
C2140 C453 1.116 . S
C2167 C481 1.356 . S
C2155 C161 1.374 . S
C2182 C165 1.403 . S
C2194 C418 1.311 . S
C2209 C133 1.484 . S
C2221 C432 1.368 . S
C2248 C397 1.362 . S
C2236 C147 1.405 . S
C2275 C516 1.256 1_545 S
C2263 C179 1.349 . S
C2290 C193 1.239 . S
C2302 C537 1.138 1_655 S
C2317 C203 1.356 . S
C2329 C565 1.212 . S
C2356 C586 1.184 . S
C2344 C207 1.370 . S
C2383 C600 1.357 . S
C2371 C175 1.474 . S
C2398 C189 1.389 . S
C2410 C628 1.276 . S
C2425 C221 1.405 . S
C2437 C621 1.324 . S
C2452 C235 1.309 . S
C2464 C579 1.137 . S
C2491 C607 1.308 . S
C2479 C245 1.427 . S
C2518 C544 1.287 1_655 S
C2506 C249 1.321 . S
C2545 C558 1.268 . S
C2533 C217 1.476 . S
C2560 C231 1.348 . S
C2572 C523 1.214 . S
