# Generated by pormake.
# Topology tsx, (6,3)-cn, num edge types: 1
# Building blocks:
#     Node 0, Type 0, BuildingBlock: MIDCAF_clean_sbu_0, # of connection points: 6
#     Node 1, Type 0, BuildingBlock: MIDCAF_clean_sbu_0, # of connection points: 6
#     Node 2, Type 1, BuildingBlock: VETTIZ_charged_linker_0, # of connection points: 3
#     Node 3, Type 1, BuildingBlock: VETTIZ_charged_linker_0, # of connection points: 3
#     Node 4, Type 1, BuildingBlock: VETTIZ_charged_linker_0, # of connection points: 3
#     Node 5, Type 1, BuildingBlock: VETTIZ_charged_linker_0, # of connection points: 3
#     Edge 6, Type (0, 1), BuildingBlock: FUNLAD_clean_linker_1, # of connection points: 2
#     Edge 7, Type (0, 1), BuildingBlock: FUNLAD_clean_linker_1, # of connection points: 2
#     Edge 8, Type (0, 1), BuildingBlock: FUNLAD_clean_linker_1, # of connection points: 2
#     Edge 9, Type (0, 1), BuildingBlock: FUNLAD_clean_linker_1, # of connection points: 2
#     Edge 10, Type (0, 1), BuildingBlock: FUNLAD_clean_linker_1, # of connection points: 2
#     Edge 11, Type (0, 1), BuildingBlock: FUNLAD_clean_linker_1, # of connection points: 2
#     Edge 12, Type (0, 1), BuildingBlock: FUNLAD_clean_linker_1, # of connection points: 2
#     Edge 13, Type (0, 1), BuildingBlock: FUNLAD_clean_linker_1, # of connection points: 2
#     Edge 14, Type (0, 1), BuildingBlock: FUNLAD_clean_linker_1, # of connection points: 2
#     Edge 15, Type (0, 1), BuildingBlock: FUNLAD_clean_linker_1, # of connection points: 2
#     Edge 16, Type (0, 1), BuildingBlock: FUNLAD_clean_linker_1, # of connection points: 2
#     Edge 17, Type (0, 1), BuildingBlock: FUNLAD_clean_linker_1, # of connection points: 2
# Relax obj value: 0.121
# Max RMSD: 0.183
# Mean RMSD: 0.115
data_MOF--net-tsx--node1-MIDCAF_clean_sbu_0--node2-VETTIZ_charged_linker_0--edge1-FUNLAD_clean_linker_1
_symmetry_space_group_name_H-M    P1
_symmetry_Int_Tables_number       1
_symmetry_cell_setting            triclinic
loop_
_symmetry_equiv_pos_as_xyz
'x, y, z'
_cell_length_a     24.335879
_cell_length_b     25.221922
_cell_length_c     48.446079
_cell_angle_alpha  90.592863
_cell_angle_beta   94.50779
_cell_angle_gamma 90.022738
loop_
_atom_site_label
_atom_site_type_symbol
_atom_site_fract_x
_atom_site_fract_y
_atom_site_fract_z
_atom_type_partial_charge
Zn0 Zn 0.94237 0.01457 0.9829 0.0
Zn1 Zn 0.13136 0.02126 0.03939 0.0
Zn2 Zn 0.03747 0.02447 0.01021 0.0
C3 C 0.10889 0.12841 0.02656 0.0
C4 C 0.14676 0.95991 0.99364 0.0
O5 O 0.97948 0.97668 0.03392 0.0
O6 O 0.90572 0.96303 0.00509 0.0
C7 C 0.95948 0.12315 0.99465 0.0
O8 O 0.06254 0.1089 0.01643 0.0
O9 O 0.14635 0.09801 0.03667 0.0
O10 O 0.17117 0.97177 0.0168 0.0
O11 O 0.09809 0.97835 0.98693 0.0
O12 O 0.92245 0.09014 0.98672 0.0
O13 O 0.00828 0.10721 0.00299 0.0
O14 O 0.05027 0.98618 0.96952 0.0
O15 O 0.96697 0.98791 0.94758 0.0
C16 C 0.01759 0.97736 0.94766 0.0
O17 O 0.02581 0.98965 0.05157 0.0
O18 O 0.10801 0.99413 0.07457 0.0
C19 C 0.93204 0.95456 0.02806 0.0
C20 C 0.05749 0.98289 0.07392 0.0
Zn21 Zn 0.61695 0.53008 0.54065 0.0
Zn22 Zn 0.44007 0.51677 0.47323 0.0
Zn23 Zn 0.52744 0.53131 0.50665 0.0
C24 C 0.52446 0.47532 0.44562 0.0
C25 C 0.4552 0.62747 0.48295 0.0
O26 O 0.5048 0.50286 0.54706 0.0
O27 O 0.58061 0.51387 0.57486 0.0
C28 C 0.63827 0.45911 0.5001 0.0
O29 O 0.55033 0.48717 0.46916 0.0
O30 O 0.47392 0.48569 0.44119 0.0
O31 O 0.42098 0.59307 0.47335 0.0
O32 O 0.50178 0.61324 0.49517 0.0
O33 O 0.659 0.47342 0.52368 0.0
O34 O 0.59188 0.4788 0.49026 0.0
O35 O 0.55397 0.61597 0.51088 0.0
O36 O 0.63639 0.60426 0.53282 0.0
C37 C 0.60082 0.63449 0.52098 0.0
O38 O 0.46127 0.48932 0.52794 0.0
O39 O 0.3968 0.46893 0.49484 0.0
C40 C 0.53029 0.50124 0.57136 0.0
C41 C 0.41551 0.46595 0.51979 0.0
C42 C 0.20596 0.97755 0.43886 0.0
C43 C 0.24178 0.94229 0.42644 0.0
C44 C 0.22924 0.92693 0.39854 0.0
C45 C 0.14488 0.97821 0.39664 0.0
C46 C 0.15773 0.99478 0.42367 0.0
C47 C 0.11452 0.03172 0.43365 0.0
H48 H 0.87423 0.16436 0.40488 0.0
C49 C 0.09152 1.00203 0.38675 0.0
C50 C 0.07329 0.03349 0.40836 0.0
H51 H 0.97972 0.17069 0.48101 0.0
H52 H 0.04138 0.10689 0.46202 0.0
H53 H 0.96883 0.16721 0.36464 0.0
H54 H 0.87711 0.04017 0.39745 0.0
H55 H 0.88897 0.02036 0.36363 0.0
H56 H 0.84923 0.07953 0.36909 0.0
H57 H 0.89778 0.15401 0.35403 0.0
H58 H 0.9527 0.12244 0.33721 0.0
C59 C 0.14182 0.08636 0.4401 0.0
C60 C 0.08953 0.00608 0.4587 0.0
C61 C 0.01035 0.96562 0.28816 0.0
C62 C 0.96186 0.98321 0.27313 0.0
C63 C 0.92374 0.01351 0.28694 0.0
C64 C 0.93468 0.02849 0.31472 0.0
C65 C 0.98435 0.01287 0.32907 0.0
C66 C 0.02069 0.98104 0.31599 0.0
C67 C 0.07091 0.96757 0.3348 0.0
C68 C 0.05911 0.99754 0.36109 0.0
C69 C 0.00856 0.02416 0.35746 0.0
C70 C 0.12232 0.98974 0.32181 0.0
C71 C 0.07154 0.90676 0.33904 0.0
C72 C 0.90968 0.15154 0.41794 0.0
C73 C 0.92136 0.17221 0.44483 0.0
C74 C 0.9696 0.15518 0.46029 0.0
C75 C 1.00539 0.11823 0.44922 0.0
C76 C 0.99312 0.09825 0.42222 0.0
C77 C 0.94566 0.11484 0.40724 0.0
C78 C 0.9389 0.09028 0.37886 0.0
C79 C 0.9904 0.05655 0.37902 0.0
C80 C 0.02233 0.06124 0.4044 0.0
C81 C 0.93914 0.1355 0.35739 0.0
C82 C 0.88571 0.05603 0.37687 0.0
H83 H 0.17395 0.9309 0.36268 0.0
H84 H 0.21479 0.99064 0.46011 0.0
H85 H 0.08345 0.96275 0.45515 0.0
H86 H 0.04838 0.02181 0.46232 0.0
H87 H 0.11715 0.01149 0.4779 0.0
H88 H 0.17191 0.09577 0.4247 0.0
H89 H 0.16439 0.08687 0.46094 0.0
H90 H 0.11207 0.11939 0.4388 0.0
H91 H 0.04 0.94086 0.27865 0.0
H92 H 0.88598 0.02715 0.27592 0.0
H93 H 0.90441 0.05262 0.32374 0.0
H94 H 0.11257 0.02773 0.31102 0.0
H95 H 0.13737 0.96149 0.30637 0.0
H96 H 0.15652 0.9996 0.33736 0.0
H97 H 0.02893 0.89111 0.33981 0.0
H98 H 0.09322 0.89493 0.35889 0.0
H99 H 0.09043 0.886 0.3218 0.0
H100 H 0.25683 0.90169 0.38787 0.0
C101 C 0.18107 0.94441 0.38372 0.0
C102 C 0.0995 0.16273 0.58309 0.0
C103 C 0.14861 0.1856 0.59523 0.0
C104 C 0.17066 0.16684 0.62111 0.0
C105 C 0.09393 0.1063 0.62309 0.0
C106 C 0.07277 0.12327 0.59741 0.0
C107 C 0.01991 0.09465 0.58796 0.0
H108 H 0.82757 0.90955 0.61438 0.0
C109 C 0.05659 0.06562 0.6328 0.0
C110 C 0.01304 0.05816 0.61236 0.0
H111 H 0.83072 0.00774 0.54195 0.0
H112 H 0.91495 0.04966 0.56137 0.0
H113 H 0.95956 0.88324 0.62181 0.0
H114 H 0.85874 1.00247 0.65736 0.0
H115 H 0.9074 0.98133 0.68359 0.0
H116 H 0.85781 0.93455 0.668 0.0
H117 H 0.90902 0.86789 0.64563 0.0
H118 H 0.97806 0.88742 0.65765 0.0
C119 C 0.02951 0.06316 0.56118 0.0
C120 C 0.97308 0.13613 0.58447 0.0
C121 C 0.09803 0.99041 0.72873 0.0
C122 C 0.06979 0.95566 0.74504 0.0
C123 C 0.02196 0.92984 0.73312 0.0
C124 C 1.00162 0.94046 0.70576 0.0
C125 C 0.02918 0.97732 0.69014 0.0
C126 C 0.0769 1.00103 0.70168 0.0
C127 C 0.10029 0.0401 0.68261 0.0
C128 C 0.05837 0.03669 0.65779 0.0
C129 C 0.0169 0.99977 0.66214 0.0
C130 C 0.15785 0.01979 0.67563 0.0
C131 C 0.10046 0.09554 0.69687 0.0
C132 C 0.84687 0.93928 0.60239 0.0
C133 C 0.82326 0.95434 0.57617 0.0
C134 C 0.84853 0.99508 0.56201 0.0
C135 C 0.89744 0.01926 0.5733 0.0
C136 C 0.92103 0.00313 0.59931 0.0
C137 C 0.89535 0.96408 0.61349 0.0
C138 C 0.92468 0.95345 0.64139 0.0
C139 C 0.97301 0.99145 0.64138 0.0
C140 C 0.97088 0.02055 0.61665 0.0
C141 C 0.94371 0.89488 0.64193 0.0
C142 C 0.88533 0.96824 0.66391 0.0
H143 H 0.16264 0.11562 0.65465 0.0
H144 H 0.08208 0.17562 0.56301 0.0
H145 H 0.97833 0.16739 0.60084 0.0
H146 H 0.93195 0.11901 0.58671 0.0
H147 H 0.97286 0.15592 0.56408 0.0
H148 H 0.07093 0.04428 0.56283 0.0
H149 H 0.02732 0.08962 0.54294 0.0
H150 H 1.00003 0.03027 0.55708 0.0
H151 H 0.13483 0.01083 0.73726 0.0
H152 H 0.99994 0.9017 0.74485 0.0
H153 H 0.9648 0.92009 0.69794 0.0
H154 H 0.15997 0.97573 0.67615 0.0
H155 H 0.1909 0.03531 0.69068 0.0
H156 H 0.16764 0.02993 0.6544 0.0
H157 H 0.0642 0.10029 0.70932 0.0
H158 H 0.09694 0.12857 0.68206 0.0
H159 H 0.1381 0.10137 0.71108 0.0
H160 H 0.20953 0.18152 0.63058 0.0
C161 C 0.14359 0.12768 0.63503 0.0
C162 C 0.71509 0.47532 0.94596 0.0
C163 C 0.75105 0.43823 0.93499 0.0
C164 C 0.73971 0.42005 0.90748 0.0
C165 C 0.65574 0.4715 0.90319 0.0
C166 C 0.66745 0.49116 0.92974 0.0
C167 C 0.62362 0.52941 0.93794 0.0
H168 H 0.37965 0.6524 0.90245 0.0
C169 C 0.60257 0.49365 0.89208 0.0
C170 C 0.58303 0.52755 0.91232 0.0
H171 H 0.48598 0.67672 0.97734 0.0
H172 H 0.54856 0.60953 0.96214 0.0
H173 H 0.47662 0.65169 0.86203 0.0
H174 H 0.38708 0.5292 0.90023 0.0
H175 H 0.40016 0.50431 0.86742 0.0
H176 H 0.35865 0.56327 0.87009 0.0
H177 H 0.40559 0.6366 0.85235 0.0
H178 H 0.46048 0.60284 0.83665 0.0
C179 C 0.65046 0.58476 0.94246 0.0
C180 C 0.59798 0.50753 0.96372 0.0
C181 C 0.52907 0.44767 0.79366 0.0
C182 C 0.48123 0.4625 0.77742 0.0
C183 C 0.43967 0.4906 0.79019 0.0
C184 C 0.44761 0.50678 0.81796 0.0
C185 C 0.49745 0.49491 0.83325 0.0
C186 C 0.5363 0.46419 0.82138 0.0
C187 C 0.58591 0.45386 0.8411 0.0
C188 C 0.57126 0.4853 0.86641 0.0
C189 C 0.51981 0.50972 0.86152 0.0
C190 C 0.63726 0.47703 0.82845 0.0
C191 C 0.58872 0.39339 0.84665 0.0
C192 C 0.41673 0.64454 0.91553 0.0
C193 C 0.42856 0.67144 0.94086 0.0
C194 C 0.47634 0.65717 0.95753 0.0
C195 C 0.51271 0.61833 0.94864 0.0
C196 C 0.50121 0.59336 0.92274 0.0
C197 C 0.45356 0.60651 0.90686 0.0
C198 C 0.44786 0.57726 0.8797 0.0
C199 C 0.5002 0.54467 0.88161 0.0
C200 C 0.53152 0.55385 0.90688 0.0
C201 C 0.44721 0.61887 0.8563 0.0
C202 C 0.39562 0.54184 0.87904 0.0
H203 H 0.68616 0.42037 0.87107 0.0
H204 H 0.72324 0.49066 0.96684 0.0
H205 H 0.5907 0.46409 0.96145 0.0
H206 H 0.5574 0.52505 0.96689 0.0
H207 H 0.62581 0.5143 0.98273 0.0
H208 H 0.68115 0.5919 0.92705 0.0
H209 H 0.67225 0.58829 0.96343 0.0
H210 H 0.62055 0.61745 0.93955 0.0
H211 H 0.56145 0.42545 0.78467 0.0
H212 H 0.4014 0.50152 0.77889 0.0
H213 H 0.41513 0.52922 0.82622 0.0
H214 H 0.6269 0.51485 0.81762 0.0
H215 H 0.65322 0.44912 0.81311 0.0
H216 H 0.67102 0.48739 0.84414 0.0
H217 H 0.54698 0.37505 0.84454 0.0
H218 H 0.60485 0.38414 0.86803 0.0
H219 H 0.61414 0.37272 0.83181 0.0
H220 H 0.76769 0.39339 0.89795 0.0
C221 C 0.69233 0.43616 0.8917 0.0
C222 C 0.64387 0.63256 0.09576 0.0
C223 C 0.69303 0.65618 0.10734 0.0
C224 C 0.71804 0.63602 0.13232 0.0
C225 C 0.64373 0.57294 0.13475 0.0
C226 C 0.61991 0.59106 0.10981 0.0
C227 C 0.56781 0.56096 0.1007 0.0
H228 H 0.38396 0.36898 0.12844 0.0
C229 C 0.6087 0.53042 0.14447 0.0
C230 C 0.56408 0.52275 0.12463 0.0
H231 H 0.38263 0.46597 0.05525 0.0
H232 H 0.46463 0.5112 0.0742 0.0
H233 H 0.51203 0.3452 0.13318 0.0
H234 H 0.41576 0.46368 0.17202 0.0
H235 H 0.46574 0.44122 0.19727 0.0
H236 H 0.41521 0.39526 0.18179 0.0
H237 H 0.46719 0.32954 0.15966 0.0
H238 H 0.53751 0.35018 0.16807 0.0
C239 C 0.57684 0.53155 0.07323 0.0
C240 C 0.51928 0.60067 0.09863 0.0
C241 C 0.65663 0.45312 0.23948 0.0
C242 C 0.62939 0.41759 0.2558 0.0
C243 C 0.58247 0.39033 0.24395 0.0
C244 C 0.56133 0.40082 0.21677 0.0
C245 C 0.58722 0.43903 0.20127 0.0
C246 C 0.63462 0.46367 0.21255 0.0
C247 C 0.65589 0.50417 0.19356 0.0
C248 C 0.61296 0.50046 0.16915 0.0
C249 C 0.5729 0.4623 0.1737 0.0
C250 C 0.71359 0.48589 0.1857 0.0
C251 C 0.65508 0.55903 0.20836 0.0
C252 C 0.40108 0.40019 0.11651 0.0
C253 C 0.37611 0.41387 0.09044 0.0
C254 C 0.40001 0.45471 0.07556 0.0
C255 C 0.44816 0.48081 0.08652 0.0
C256 C 0.47283 0.466 0.11255 0.0
C257 C 0.44892 0.42641 0.12709 0.0
C258 C 0.48034 0.41536 0.15435 0.0
C259 C 0.52785 0.454 0.15366 0.0
C260 C 0.52333 0.48392 0.1292 0.0
C261 C 0.50018 0.35698 0.1541 0.0
C262 C 0.44255 0.42911 0.17773 0.0
H263 H 0.71472 0.58184 0.16499 0.0
H264 H 0.62432 0.64637 0.07628 0.0
H265 H 0.52276 0.6291 0.1164 0.0
H266 H 0.4788 0.58135 0.09949 0.0
H267 H 0.51897 0.62396 0.07928 0.0
H268 H 0.61979 0.51638 0.07333 0.0
H269 H 0.56974 0.55838 0.05525 0.0
H270 H 0.55041 0.49617 0.06978 0.0
H271 H 0.69269 0.47465 0.24805 0.0
H272 H 0.56145 0.36159 0.25581 0.0
H273 H 0.52495 0.37961 0.2091 0.0
H274 H 0.7175 0.44195 0.18625 0.0
H275 H 0.74686 0.50262 0.20023 0.0
H276 H 0.72156 0.49637 0.16425 0.0
H277 H 0.61862 0.56261 0.22076 0.0
H278 H 0.65125 0.59261 0.19393 0.0
H279 H 0.69253 0.56485 0.22271 0.0
H280 H 0.75711 0.65113 0.14127 0.0
C281 C 0.69362 0.59487 0.14603 0.0
H282 H 0.08651 0.2139 0.02203 0.0
C283 C 0.11987 0.18626 0.02679 0.0
H284 H 0.20508 0.1767 0.03725 0.0
H285 H 0.32031 0.37693 0.0065 0.0
H286 H 0.33092 0.32562 0.96454 0.0
H287 H 0.27507 0.24522 0.95388 0.0
H288 H 0.20827 0.21552 0.98526 0.0
C289 C 0.17131 0.20454 0.03346 0.0
C290 C 0.18743 0.26146 0.03449 0.0
C291 C 0.22457 0.27958 0.01555 0.0
C292 C 0.2563 0.32624 0.02155 0.0
C293 C 0.29495 0.34195 0.00285 0.0
C294 C 0.30139 0.31289 0.97869 0.0
C295 C 0.26998 0.26758 0.9727 0.0
C296 C 0.23205 0.25084 0.99088 0.0
H297 H 0.31911 0.34595 0.09039 0.0
C298 C 0.32751 0.38209 0.07936 0.0
H299 H 0.30025 0.42868 0.04466 0.0
H300 H 0.11261 0.24311 0.07276 0.0
H301 H 0.09591 0.29896 0.1123 0.0
H302 H 0.14826 0.38194 0.12155 0.0
H303 H 0.21838 0.40909 0.09138 0.0
C304 C 0.294 0.39357 0.05674 0.0
C305 C 0.2506 0.35465 0.04652 0.0
C306 C 0.20793 0.34067 0.06343 0.0
C307 C 0.17671 0.29357 0.05763 0.0
C308 C 0.1369 0.27882 0.0759 0.0
C309 C 0.1269 0.31058 0.09868 0.0
C310 C 0.15644 0.35727 0.10392 0.0
C311 C 0.19666 0.37227 0.08659 0.0
H312 H 0.1577 0.91813 0.95373 0.0
C313 C 0.17415 0.92321 0.97505 0.0
H314 H 0.23487 0.9005 0.00617 0.0
H315 H 0.26236 0.69452 0.92445 0.0
H316 H 0.16496 0.67701 0.92738 0.0
H317 H 0.10588 0.74159 0.94954 0.0
H318 H 0.14342 0.82419 0.96851 0.0
C319 C 0.21842 0.89502 0.98481 0.0
C320 C 0.25043 0.85892 0.96763 0.0
C321 C 0.2275 0.81051 0.95684 0.0
C322 C 0.26187 0.77261 0.94464 0.0
C323 C 0.23819 0.72455 0.93403 0.0
C324 C 0.18238 0.71392 0.93564 0.0
C325 C 0.14912 0.75031 0.94809 0.0
C326 C 0.17122 0.7979 0.95875 0.0
H327 H 0.396 0.72496 0.97231 0.0
C328 C 0.39191 0.71401 0.95047 0.0
H329 H 0.35072 0.73236 0.91138 0.0
H330 H 0.30609 0.95002 0.98345 0.0
H331 H 0.40315 0.96781 0.9797 0.0
H332 H 0.46265 0.90152 0.95907 0.0
H333 H 0.42544 0.817 0.94214 0.0
C334 C 0.35551 0.74081 0.93341 0.0
C335 C 0.31914 0.78245 0.94407 0.0
C336 C 0.34145 0.83181 0.95358 0.0
C337 C 0.30707 0.87005 0.96537 0.0
C338 C 0.33045 0.91916 0.97468 0.0
C339 C 0.38605 0.93005 0.9725 0.0
C340 C 0.41955 0.89273 0.96089 0.0
C341 C 0.39771 0.84422 0.95141 0.0
H342 H 0.92877 0.91347 0.06817 0.0
C343 C 0.90868 0.91773 0.04758 0.0
H344 H 0.84371 0.89222 0.01909 0.0
H345 H 0.85005 0.69397 0.10807 0.0
H346 H 0.94522 0.68029 0.09825 0.0
H347 H 0.992 0.74318 0.06925 0.0
H348 H 0.94434 0.82021 0.05022 0.0
C349 C 0.86421 0.88786 0.03969 0.0
C350 C 0.83823 0.85079 0.05853 0.0
C351 C 0.86682 0.80528 0.06904 0.0
C352 C 0.83938 0.76812 0.08509 0.0
C353 C 0.8688 0.72326 0.0956 0.0
C354 C 0.9234 0.71481 0.09006 0.0
C355 C 0.94976 0.75028 0.07379 0.0
C356 C 0.92195 0.79479 0.06319 0.0
H357 H 0.7076 0.70438 0.07056 0.0
C358 C 0.71859 0.7002 0.09262 0.0
H359 H 0.76532 0.73338 0.1275 0.0
H360 H 0.7723 0.93515 0.04289 0.0
H361 H 0.67678 0.94765 0.05232 0.0
H362 H 0.62891 0.88187 0.07919 0.0
H363 H 0.67639 0.80318 0.09682 0.0
C364 C 0.75431 0.73508 0.10541 0.0
C365 C 0.78306 0.77541 0.08967 0.0
C366 C 0.75473 0.8211 0.07954 0.0
C367 C 0.78236 0.8589 0.06401 0.0
C368 C 0.75319 0.90463 0.05443 0.0
C369 C 0.69838 0.91248 0.05982 0.0
C370 C 0.67143 0.87546 0.07495 0.0
C371 C 0.69911 0.83034 0.08484 0.0
H372 H 0.8991 0.18673 0.99472 0.0
C373 C 0.94312 0.17932 0.99451 0.0
H374 H 0.01938 0.21291 0.98688 0.0
H375 H 0.88391 0.37778 0.91025 0.0
H376 H 0.95411 0.34625 0.88096 0.0
H377 H 0.02401 0.28138 0.89844 0.0
H378 H 0.02448 0.24792 0.94523 0.0
C379 C 0.97646 0.2202 0.99002 0.0
C380 C 0.95086 0.27294 0.98334 0.0
C381 C 0.95278 0.29347 0.95634 0.0
C382 C 0.9122 0.33049 0.94618 0.0
C383 C 0.91349 0.34908 0.91877 0.0
C384 C 0.9536 0.33149 0.90184 0.0
C385 C 0.99298 0.29498 0.91169 0.0
C386 C 0.99266 0.2759 0.93857 0.0
H387 H 0.82153 0.44487 0.9672 0.0
C388 C 0.80028 0.41848 0.95203 0.0
H389 H 0.79597 0.34155 0.93452 0.0
H390 H 0.94972 0.2564 0.03864 0.0
H391 H 0.88297 0.29184 0.06902 0.0
H392 H 0.80887 0.3518 0.05083 0.0
H393 H 0.80159 0.37764 0.00255 0.0
C394 C 0.81812 0.36831 0.94916 0.0
C395 C 0.87006 0.34681 0.963 0.0
C396 C 0.87331 0.33243 0.99127 0.0
C397 C 0.91476 0.29635 0.00157 0.0
C398 C 0.91784 0.28258 0.02985 0.0
C399 C 0.88009 0.30277 0.04741 0.0
C400 C 0.83842 0.33663 0.03717 0.0
C401 C 0.8347 0.35122 0.0094 0.0
H402 H 0.65964 0.69669 0.51398 0.0
C403 C 0.6171 0.69031 0.51856 0.0
H404 H 0.54921 0.72377 0.5365 0.0
H405 H 0.71319 0.86906 0.6123 0.0
H406 H 0.65605 0.82847 0.64513 0.0
H407 H 0.58221 0.76562 0.62933 0.0
H408 H 0.5646 0.74341 0.58075 0.0
C409 C 0.58981 0.73077 0.52944 0.0
C410 C 0.62104 0.78037 0.53794 0.0
C411 C 0.62984 0.7938 0.56645 0.0
C412 C 0.67305 0.82944 0.57564 0.0
C413 C 0.68158 0.84153 0.60428 0.0
C414 C 0.64896 0.8187 0.62332 0.0
C415 C 0.60736 0.78336 0.61443 0.0
C416 C 0.5978 0.77081 0.58639 0.0
H417 H 0.74349 0.95284 0.55038 0.0
C418 C 0.77174 0.92906 0.56359 0.0
H419 H 0.78876 0.8533 0.58009 0.0
H420 H 0.60258 0.77682 0.48189 0.0
H421 H 0.65768 0.81923 0.44853 0.0
H422 H 0.73796 0.87461 0.46431 0.0
H423 H 0.76265 0.88925 0.5132 0.0
C424 C 0.76029 0.87746 0.56723 0.0
C425 C 0.70764 0.85135 0.55642 0.0
C426 C 0.695 0.8423 0.52763 0.0
C427 C 0.65049 0.80808 0.51846 0.0
C428 C 0.63727 0.80094 0.48972 0.0
C429 C 0.66833 0.82519 0.47046 0.0
C430 C 0.7134 0.85653 0.47936 0.0
C431 C 0.72696 0.86489 0.50757 0.0
H432 H 0.64312 0.39774 0.46739 0.0
C433 C 0.666 0.41738 0.48468 0.0
H434 H 0.74003 0.42027 0.51044 0.0
H435 H 0.81646 0.18622 0.49559 0.0
H436 H 0.79009 0.1858 0.54279 0.0
H437 H 0.74181 0.26224 0.56184 0.0
H438 H 0.71954 0.33944 0.53379 0.0
C439 C 0.71764 0.4016 0.49262 0.0
C440 C 0.74391 0.35469 0.48015 0.0
C441 C 0.75694 0.30987 0.4969 0.0
C442 C 0.78525 0.26597 0.48603 0.0
C443 C 0.79641 0.22124 0.50301 0.0
C444 C 0.78109 0.22028 0.5301 0.0
C445 C 0.75388 0.26329 0.54082 0.0
C446 C 0.7416 0.30752 0.52449 0.0
H447 H 0.90364 0.23692 0.47412 0.0
C448 C 0.88583 0.21328 0.45676 0.0
H449 H 0.81319 0.19954 0.43037 0.0
H450 H 0.72917 0.43571 0.44295 0.0
H451 H 0.753 0.43476 0.39532 0.0
H452 H 0.79727 0.35656 0.3757 0.0
H453 H 0.81981 0.27952 0.40392 0.0
C454 C 0.83313 0.22263 0.44729 0.0
C455 C 0.80088 0.26708 0.45847 0.0
C456 C 0.78599 0.31096 0.44136 0.0
C457 C 0.75855 0.35533 0.45237 0.0
C458 C 0.74794 0.40013 0.4354 0.0
C459 C 0.76182 0.4003 0.40805 0.0
C460 C 0.78684 0.3563 0.39701 0.0
C461 C 0.79935 0.31225 0.41343 0.0
H462 H 0.3977 0.43606 0.56115 0.0
C463 C 0.38536 0.43406 0.53915 0.0
H464 H 0.33148 0.39964 0.50767 0.0
H465 H 0.30669 0.22492 0.60704 0.0
H466 H 0.40535 0.21167 0.60742 0.0
H467 H 0.46211 0.2685 0.57982 0.0
H468 H 0.42085 0.33917 0.55202 0.0
C469 C 0.34419 0.40128 0.52968 0.0
C470 C 0.31164 0.36861 0.54802 0.0
C471 C 0.33666 0.32673 0.56383 0.0
C472 C 0.30369 0.293 0.57919 0.0
C473 C 0.32964 0.25166 0.59493 0.0
C474 C 0.38625 0.24343 0.59526 0.0
C475 C 0.41821 0.27548 0.57976 0.0
C476 C 0.39393 0.3164 0.56406 0.0
H477 H 0.17097 0.22813 0.55781 0.0
C478 C 0.17762 0.22709 0.58026 0.0
H479 H 0.21811 0.26404 0.61577 0.0
H480 H 0.2509 0.44662 0.5211 0.0
H481 H 0.15216 0.45951 0.5208 0.0
H482 H 0.0952 0.40034 0.54708 0.0
H483 H 0.13666 0.32783 0.57375 0.0
C484 C 0.2117 0.26309 0.59336 0.0
C485 C 0.2457 0.29999 0.57799 0.0
C486 C 0.22085 0.34235 0.56263 0.0
C487 C 0.25382 0.37661 0.54761 0.0
C488 C 0.22787 0.4189 0.53261 0.0
C489 C 0.17122 0.42696 0.53237 0.0
C490 C 0.13915 0.39365 0.54716 0.0
C491 C 0.16346 0.35195 0.56225 0.0
H492 H 0.39278 0.68862 0.47639 0.0
C493 C 0.43693 0.68303 0.48091 0.0
H494 H 0.51393 0.72191 0.48401 0.0
H495 H 0.38821 0.89134 0.40405 0.0
H496 H 0.46791 0.86844 0.37896 0.0
H497 H 0.53716 0.80455 0.39823 0.0
H498 H 0.5273 0.76324 0.44271 0.0
C499 C 0.46951 0.72604 0.48201 0.0
C500 C 0.44304 0.77859 0.4759 0.0
C501 C 0.45038 0.80344 0.45043 0.0
C502 C 0.41015 0.83991 0.43924 0.0
C503 C 0.41734 0.86293 0.41326 0.0
C504 C 0.4629 0.85028 0.39876 0.0
C505 C 0.50192 0.8143 0.40961 0.0
C506 C 0.49577 0.7908 0.4351 0.0
H507 H 0.30946 0.94549 0.46018 0.0
C508 C 0.2917 0.92189 0.44281 0.0
H509 H 0.2953 0.84924 0.42093 0.0
H510 H 0.42889 0.75227 0.52908 0.0
H511 H 0.35222 0.77842 0.55576 0.0
H512 H 0.27887 0.83706 0.53552 0.0
H513 H 0.28202 0.87076 0.48901 0.0
C514 C 0.31331 0.87387 0.43778 0.0
C515 C 0.36286 0.8514 0.45358 0.0
C516 C 0.3598 0.83224 0.48086 0.0
C517 C 0.4009 0.79681 0.49223 0.0
C518 C 0.39763 0.77817 0.51947 0.0
C519 C 0.35415 0.79302 0.53492 0.0
C520 C 0.31292 0.82614 0.52354 0.0
C521 C 0.31532 0.8454 0.49678 0.0
H522 H 0.06601 0.94829 0.11528 0.0
C523 C 0.03618 0.96466 0.09976 0.0
H524 H 0.95671 0.99747 0.09266 0.0
H525 H 0.97723 0.86567 0.21387 0.0
H526 H 0.97165 0.78538 0.1855 0.0
H527 H 0.96629 0.79037 0.13453 0.0
H528 H 0.96663 0.87563 0.11154 0.0
C529 C 0.98556 0.97671 0.10699 0.0
C530 C 0.97408 0.97309 0.13662 0.0
C531 C 0.97287 0.92311 0.14967 0.0
C532 C 0.97554 0.92028 0.17904 0.0
C533 C 0.97534 0.8699 0.1916 0.0
C534 C 0.97202 0.82362 0.17558 0.0
C535 C 0.96902 0.82642 0.14685 0.0
C536 C 0.9695 0.87549 0.13393 0.0
H537 H 0.90879 0.98031 0.23383 0.0
C538 C 0.95052 0.97362 0.24289 0.0
H539 H 0.03304 0.95996 0.23353 0.0
H540 H 0.96819 0.07526 0.11787 0.0
H541 H 0.96987 0.1553 0.14603 0.0
H542 H 0.97612 0.15052 0.19701 0.0
H543 H 0.98055 0.06576 0.22009 0.0
C544 C 0.99035 0.96465 0.22573 0.0
C545 C 0.97891 0.96742 0.1952 0.0
C546 C 0.97573 0.01748 0.18208 0.0
C547 C 0.97266 0.02027 0.15271 0.0
C548 C 0.97066 0.07075 0.1401 0.0
C549 C 0.97156 0.11708 0.15602 0.0
C550 C 0.97504 0.11439 0.18472 0.0
C551 C 0.97737 0.06535 0.19771 0.0
H552 H 1.00656 0.93656 0.90763 0.0
C553 C 0.0372 0.95609 0.92185 0.0
H554 H 0.11539 0.99275 0.92551 0.0
H555 H 0.0818 0.84344 0.80857 0.0
H556 H 0.10112 0.76827 0.8389 0.0
H557 H 0.11777 0.78128 0.8894 0.0
H558 H 0.11508 0.86966 0.91002 0.0
C559 C 0.08601 0.96889 0.91271 0.0
C560 C 0.09307 0.962 0.88263 0.0
C561 C 0.09583 0.91051 0.87089 0.0
C562 C 0.08659 0.9031 0.84175 0.0
C563 C 0.08844 0.85113 0.83061 0.0
C564 C 0.09959 0.80777 0.84776 0.0
C565 C 0.10893 0.81509 0.87623 0.0
C566 C 0.10702 0.86581 0.8878 0.0
H567 H 0.13192 0.96296 0.78082 0.0
C568 C 0.08993 0.95034 0.77466 0.0
H569 H 0.01386 0.92836 0.78975 0.0
H570 H 0.09473 0.06661 0.89824 0.0
H571 H 0.07874 0.14208 0.86805 0.0
H572 H 0.06032 0.12943 0.81761 0.0
H573 H 0.05798 0.0415 0.79708 0.0
C574 C 0.0567 0.93908 0.79469 0.0
C575 C 0.07508 0.9473 0.82446 0.0
C576 C 0.0768 0.9993 0.83603 0.0
C577 C 0.08662 0.00662 0.86515 0.0
C578 C 0.08714 0.05879 0.87627 0.0
C579 C 0.0781 0.10249 0.85918 0.0
C580 C 0.0678 0.09537 0.83079 0.0
C581 C 0.06683 0.04452 0.81925 0.0
H582 H 0.4552 0.48586 0.59303 0.0
C583 C 0.49987 0.48796 0.59551 0.0
H584 H 0.57066 0.48635 0.62366 0.0
H585 H 0.45061 0.57412 0.72419 0.0
H586 H 0.47877 0.65774 0.70556 0.0
H587 H 0.51445 0.66174 0.65934 0.0
H588 H 0.52225 0.58196 0.63154 0.0
C589 C 0.52606 0.48288 0.62075 0.0
C590 C 0.4957 0.48101 0.64602 0.0
C591 C 0.49024 0.52815 0.66171 0.0
C592 C 0.46925 0.52585 0.68819 0.0
C593 C 0.46579 0.57343 0.7038 0.0
C594 C 0.48188 0.6218 0.69337 0.0
C595 C 0.50201 0.62406 0.66737 0.0
C596 C 0.50635 0.57792 0.65165 0.0
H597 H 0.51434 0.43171 0.73927 0.0
C598 C 0.47929 0.45227 0.74704 0.0
H599 H 0.40708 0.49599 0.73468 0.0
H600 H 0.49571 0.3845 0.61975 0.0
H601 H 0.46394 0.30104 0.63756 0.0
H602 H 0.4255 0.29733 0.68312 0.0
H603 H 0.41961 0.37698 0.71152 0.0
C604 C 0.44177 0.47327 0.72839 0.0
C605 C 0.45405 0.4763 0.69889 0.0
C606 C 0.45573 0.42977 0.68232 0.0
C607 C 0.47689 0.43209 0.65583 0.0
C608 C 0.47968 0.38488 0.63997 0.0
C609 C 0.46141 0.33683 0.64989 0.0
C610 C 0.43993 0.33471 0.6756 0.0
C611 C 0.43703 0.38055 0.69174 0.0
H612 H 0.52591 0.43194 0.40639 0.0
C613 C 0.55226 0.45043 0.42297 0.0
H614 H 0.63239 0.47903 0.43459 0.0
H615 H 0.62818 0.31401 0.32359 0.0
H616 H 0.62768 0.24301 0.35728 0.0
H617 H 0.62655 0.26339 0.40721 0.0
H618 H 0.6257 0.35489 0.42369 0.0
C619 C 0.60602 0.45668 0.41955 0.0
C620 C 0.62571 0.44347 0.39203 0.0
C621 C 0.62647 0.3901 0.38277 0.0
C622 C 0.62721 0.37845 0.35406 0.0
C623 C 0.62725 0.32482 0.34523 0.0
C624 C 0.62716 0.28386 0.36433 0.0
C625 C 0.62646 0.29532 0.39245 0.0
C626 C 0.62575 0.34782 0.40165 0.0
H627 H 0.69025 0.42481 0.29218 0.0
C628 C 0.64788 0.4141 0.28564 0.0
H629 H 0.56865 0.40049 0.2992 0.0
H630 H 0.63901 0.54896 0.40414 0.0
H631 H 0.64531 0.61999 0.37108 0.0
H632 H 0.64214 0.6006 0.32096 0.0
H633 H 0.63331 0.5105 0.30365 0.0
C634 C 0.6118 0.40881 0.30501 0.0
C635 C 0.62681 0.42024 0.33479 0.0
C636 C 0.63244 0.47352 0.34439 0.0
C637 C 0.63302 0.48494 0.37321 0.0
C638 C 0.6378 0.53831 0.38242 0.0
C639 C 0.64153 0.5794 0.36368 0.0
C640 C 0.63984 0.56847 0.33547 0.0
C641 C 0.63498 0.51633 0.32581 0.0
loop_
_geom_bond_atom_site_label_1
_geom_bond_atom_site_label_2
_geom_bond_distance
_geom_bond_site_symmetry_2
_ccdc_geom_bond_type
Zn0 O6 1.921 1_545 S
Zn0 O12 1.898 . S
Zn0 O15 1.905 1_545 S
Zn1 O9 1.905 . S
Zn1 O10 1.898 1_545 S
Zn1 O18 1.920 1_545 S
Zn2 O5 2.080 1_445 S
Zn2 O8 2.114 . S
Zn2 O11 2.120 1_545 S
Zn2 O13 2.120 1_455 S
Zn2 O14 2.114 1_554 S
Zn2 O17 2.080 . S
C3 O8 1.166 . S
C3 O9 1.182 . S
C4 O10 1.167 . S
C4 O11 1.299 . S
O5 Zn2 2.080 1_665 S
O5 C19 1.305 . S
O6 Zn0 1.921 1_565 S
O6 C19 1.233 1_556 S
C7 O12 1.198 . S
C7 O13 1.272 1_556 S
O8 Zn2 2.114 . S
O8 C3 1.166 . S
O9 Zn1 1.905 . S
O9 C3 1.182 . S
O10 Zn1 1.898 1_565 S
O10 C4 1.167 . S
O11 Zn2 2.120 1_565 S
O11 C4 1.299 . S
O12 Zn0 1.898 . S
O12 C7 1.198 . S
O13 Zn2 2.120 1_655 S
O13 C7 1.272 1_554 S
O14 Zn2 2.114 1_556 S
O14 C16 1.166 1_545 S
O15 Zn0 1.905 1_565 S
O15 C16 1.182 1_655 S
C16 O14 1.166 1_565 S
C16 O15 1.182 1_455 S
O17 Zn2 2.080 . S
O17 C20 1.305 1_545 S
O18 Zn1 1.920 1_565 S
O18 C20 1.234 . S
C19 O5 1.305 . S
C19 O6 1.233 1_554 S
C20 O17 1.305 1_565 S
C20 O18 1.234 . S
Zn21 O27 1.920 . S
Zn21 O33 1.898 . S
Zn21 O36 1.905 . S
Zn22 O30 1.905 . S
Zn22 O31 1.898 . S
Zn22 O39 1.920 . S
Zn23 O26 2.080 . S
Zn23 O29 2.114 . S
Zn23 O32 2.120 . S
Zn23 O34 2.120 . S
Zn23 O35 2.114 . S
Zn23 O38 2.080 . S
C24 O29 1.166 . S
C24 O30 1.182 . S
C25 O31 1.167 . S
C25 O32 1.299 . S
O26 Zn23 2.080 . S
O26 C40 1.305 . S
O27 Zn21 1.920 . S
O27 C40 1.234 . S
C28 O33 1.167 . S
C28 O34 1.299 . S
O29 Zn23 2.114 . S
O29 C24 1.166 . S
O30 Zn22 1.905 . S
O30 C24 1.182 . S
O31 Zn22 1.898 . S
O31 C25 1.167 . S
O32 Zn23 2.120 . S
O32 C25 1.299 . S
O33 Zn21 1.898 . S
O33 C28 1.167 . S
O34 Zn23 2.120 . S
O34 C28 1.299 . S
O35 Zn23 2.114 . S
O35 C37 1.166 . S
O36 Zn21 1.905 . S
O36 C37 1.182 . S
C37 O35 1.166 . S
C37 O36 1.182 . S
O38 Zn23 2.080 . S
O38 C41 1.305 . S
O39 Zn22 1.920 . S
O39 C41 1.234 . S
C40 O26 1.305 . S
C40 O27 1.234 . S
C41 O38 1.305 . S
C41 O39 1.234 . S
C42 C43 1.391 . S
C42 C46 1.391 . S
C42 H84 0.948 . S
C43 C42 1.391 . S
C43 C44 1.391 . S
C44 C43 1.391 . S
C44 H100 0.947 . S
C44 C101 1.392 . S
C45 C46 1.391 . S
C45 C49 1.397 . S
C45 C101 1.419 . S
C46 C42 1.391 . S
C46 C45 1.391 . S
C46 C47 1.399 . S
C47 C46 1.399 . S
C47 C50 1.396 1_565 S
C47 C59 1.453 1_565 S
C47 C60 1.684 . S
H48 C72 0.948 . S
C49 C45 1.397 . S
C49 C50 1.394 1_565 S
C49 C68 1.723 1_565 S
C50 C47 1.396 1_545 S
C50 C49 1.394 1_545 S
C50 C80 1.723 . S
H51 C74 0.947 . S
H52 C75 0.948 . S
H53 C81 0.972 1_455 S
H54 C82 0.979 . S
H55 C82 0.980 . S
H56 C82 0.983 . S
H57 C81 0.988 . S
H58 C81 0.974 1_455 S
C59 C47 1.453 1_545 S
C59 H88 0.982 . S
C59 H89 0.979 . S
C59 H90 0.977 . S
C60 C47 1.684 . S
C60 H85 0.979 . S
C60 H86 0.980 1_565 S
C60 H87 0.983 . S
C61 C62 1.391 . S
C61 C66 1.391 . S
C61 H91 0.948 1_545 S
C62 C61 1.391 . S
C62 C63 1.391 . S
C63 C62 1.391 . S
C63 C64 1.392 . S
C63 H92 0.947 . S
C64 C63 1.392 . S
C64 C65 1.419 . S
C64 H93 0.948 1_455 S
C65 C64 1.419 . S
C65 C66 1.391 . S
C65 C69 1.397 . S
C66 C61 1.391 . S
C66 C65 1.391 . S
C66 C67 1.399 1_545 S
C67 C66 1.399 1_565 S
C67 C68 1.396 1_565 S
C67 C70 1.453 . S
C67 C71 1.684 . S
C68 C49 1.723 1_545 S
C68 C67 1.396 1_545 S
C68 C69 1.394 . S
C69 C65 1.397 . S
C69 C68 1.394 . S
C69 C79 1.723 . S
C70 C67 1.453 . S
C70 H94 0.982 1_565 S
C70 H95 0.979 . S
C70 H96 0.977 . S
C71 C67 1.684 . S
C71 H97 0.979 . S
C71 H98 0.980 . S
C71 H99 0.983 . S
C72 H48 0.948 . S
C72 C73 1.391 . S
C72 C77 1.391 . S
C73 C72 1.391 . S
C73 C74 1.391 . S
C74 H51 0.947 . S
C74 C73 1.391 . S
C74 C75 1.392 1_655 S
C75 H52 0.948 . S
C75 C74 1.392 1_455 S
C75 C76 1.419 . S
C76 C75 1.419 . S
C76 C77 1.391 1_455 S
C76 C80 1.397 . S
C77 C72 1.391 . S
C77 C76 1.391 1_655 S
C77 C78 1.399 . S
C78 C77 1.399 . S
C78 C79 1.396 1_655 S
C78 C81 1.457 . S
C78 C82 1.684 . S
C79 C69 1.723 . S
C79 C78 1.396 1_455 S
C79 C80 1.394 . S
C80 C50 1.723 . S
C80 C76 1.397 . S
C80 C79 1.394 . S
C81 H53 0.972 1_655 S
C81 H57 0.988 . S
C81 H58 0.974 1_655 S
C81 C78 1.457 . S
C82 H54 0.979 . S
C82 H55 0.980 . S
C82 H56 0.983 . S
C82 C78 1.684 . S
H83 C101 0.948 . S
H84 C42 0.948 . S
H85 C60 0.979 . S
H86 C60 0.980 1_545 S
H87 C60 0.983 . S
H88 C59 0.982 . S
H89 C59 0.979 . S
H90 C59 0.977 . S
H91 C61 0.948 1_565 S
H92 C63 0.947 . S
H93 C64 0.948 1_655 S
H94 C70 0.982 1_545 S
H95 C70 0.979 . S
H96 C70 0.977 . S
H97 C71 0.979 . S
H98 C71 0.980 . S
H99 C71 0.983 . S
H100 C44 0.947 . S
C101 C44 1.392 . S
C101 C45 1.419 . S
C101 H83 0.948 . S
C102 C103 1.391 . S
C102 C106 1.391 . S
C102 H144 0.948 . S
C103 C102 1.391 . S
C103 C104 1.391 . S
C104 C103 1.391 . S
C104 H160 0.947 . S
C104 C161 1.392 . S
C105 C106 1.391 . S
C105 C109 1.397 . S
C105 C161 1.419 . S
C106 C102 1.391 . S
C106 C105 1.391 . S
C106 C107 1.399 . S
C107 C106 1.399 . S
C107 C110 1.396 . S
C107 C119 1.453 . S
C107 C120 1.684 1_455 S
H108 C132 0.948 . S
C109 C105 1.397 . S
C109 C110 1.394 . S
C109 C128 1.723 . S
C110 C107 1.396 . S
C110 C109 1.394 . S
C110 C140 1.723 1_445 S
H111 C134 0.947 . S
H112 C135 0.948 . S
H113 C141 0.982 . S
H114 C142 0.979 . S
H115 C142 0.980 . S
H116 C142 0.983 . S
H117 C141 0.979 . S
H118 C141 0.977 . S
C119 C107 1.453 . S
C119 H148 0.982 . S
C119 H149 0.979 . S
C119 H150 0.977 1_545 S
C120 C107 1.684 1_655 S
C120 H145 0.979 . S
C120 H146 0.980 . S
C120 H147 0.983 1_655 S
C121 C122 1.391 1_455 S
C121 C126 1.391 . S
C121 H151 0.948 . S
C122 C121 1.391 1_655 S
C122 C123 1.391 1_545 S
C123 C122 1.391 1_565 S
C123 C124 1.392 . S
C123 H152 0.947 . S
C124 C123 1.392 . S
C124 C125 1.419 1_565 S
C124 H153 0.948 . S
C125 C124 1.419 1_545 S
C125 C126 1.391 1_655 S
C125 C129 1.397 . S
C126 C121 1.391 . S
C126 C125 1.391 1_455 S
C126 C127 1.399 . S
C127 C126 1.399 . S
C127 C128 1.396 . S
C127 C130 1.453 . S
C127 C131 1.684 . S
C128 C109 1.723 . S
C128 C127 1.396 . S
C128 C129 1.394 1_455 S
C129 C125 1.397 . S
C129 C128 1.394 1_655 S
C129 C139 1.723 1_545 S
C130 C127 1.453 . S
C130 H154 0.982 . S
C130 H155 0.979 . S
C130 H156 0.977 . S
C131 C127 1.684 . S
C131 H157 0.979 . S
C131 H158 0.980 . S
C131 H159 0.983 . S
C132 H108 0.948 . S
C132 C133 1.391 . S
C132 C137 1.391 . S
C133 C132 1.391 . S
C133 C134 1.391 . S
C134 H111 0.947 . S
C134 C133 1.391 . S
C134 C135 1.392 . S
C135 H112 0.948 . S
C135 C134 1.392 . S
C135 C136 1.419 . S
C136 C135 1.419 . S
C136 C137 1.391 . S
C136 C140 1.397 . S
C137 C132 1.391 . S
C137 C136 1.391 . S
C137 C138 1.399 . S
C138 C137 1.399 . S
C138 C139 1.396 . S
C138 C141 1.453 . S
C138 C142 1.684 . S
C139 C129 1.723 1_565 S
C139 C138 1.396 . S
C139 C140 1.394 . S
C140 C110 1.723 1_665 S
C140 C136 1.397 . S
C140 C139 1.394 . S
C141 H113 0.982 . S
C141 H117 0.979 . S
C141 H118 0.977 . S
C141 C138 1.453 . S
C142 H114 0.979 . S
C142 H115 0.980 . S
C142 H116 0.983 . S
C142 C138 1.684 . S
H143 C161 0.948 . S
H144 C102 0.948 . S
H145 C120 0.979 . S
H146 C120 0.980 . S
H147 C120 0.983 1_455 S
H148 C119 0.982 . S
H149 C119 0.979 . S
H150 C119 0.977 1_565 S
H151 C121 0.948 . S
H152 C123 0.947 . S
H153 C124 0.948 . S
H154 C130 0.982 . S
H155 C130 0.979 . S
H156 C130 0.977 . S
H157 C131 0.979 . S
H158 C131 0.980 . S
H159 C131 0.983 . S
H160 C104 0.947 . S
C161 C104 1.392 . S
C161 C105 1.419 . S
C161 H143 0.948 . S
C162 C163 1.391 . S
C162 C166 1.391 . S
C162 H204 0.948 . S
C163 C162 1.391 . S
C163 C164 1.391 . S
C164 C163 1.391 . S
C164 H220 0.947 . S
C164 C221 1.392 . S
C165 C166 1.391 . S
C165 C169 1.397 . S
C165 C221 1.419 . S
C166 C162 1.391 . S
C166 C165 1.391 . S
C166 C167 1.399 . S
C167 C166 1.399 . S
C167 C170 1.396 . S
C167 C179 1.453 . S
C167 C180 1.684 . S
H168 C192 0.948 . S
C169 C165 1.397 . S
C169 C170 1.394 . S
C169 C188 1.723 . S
C170 C167 1.396 . S
C170 C169 1.394 . S
C170 C200 1.723 . S
H171 C194 0.985 . S
H172 C195 0.948 . S
H173 C201 0.982 . S
H174 C202 0.979 . S
H175 C202 0.980 . S
H176 C202 0.983 . S
H177 C201 0.979 . S
H178 C201 0.977 . S
C179 C167 1.453 . S
C179 H208 0.982 . S
C179 H209 0.979 . S
C179 H210 0.977 . S
C180 C167 1.684 . S
C180 H205 0.979 . S
C180 H206 0.980 . S
C180 H207 0.983 1_556 S
C181 C182 1.391 . S
C181 C186 1.391 . S
C181 H211 0.948 . S
C182 C181 1.391 . S
C182 C183 1.391 . S
C183 C182 1.391 . S
C183 C184 1.392 . S
C183 H212 0.947 . S
C184 C183 1.392 . S
C184 C185 1.419 . S
C184 H213 0.948 . S
C185 C184 1.419 . S
C185 C186 1.391 . S
C185 C189 1.397 . S
C186 C181 1.391 . S
C186 C185 1.391 . S
C186 C187 1.399 . S
C187 C186 1.399 . S
C187 C188 1.396 . S
C187 C190 1.453 . S
C187 C191 1.684 . S
C188 C169 1.723 . S
C188 C187 1.396 . S
C188 C189 1.394 . S
C189 C185 1.397 . S
C189 C188 1.394 . S
C189 C199 1.723 . S
C190 C187 1.453 . S
C190 H214 0.982 . S
C190 H215 0.979 . S
C190 H216 0.977 . S
C191 C187 1.684 . S
C191 H217 0.979 . S
C191 H218 0.980 . S
C191 H219 0.983 . S
C192 H168 0.948 . S
C192 C193 1.391 . S
C192 C197 1.391 . S
C193 C192 1.391 . S
C193 C194 1.391 . S
C194 H171 0.985 . S
C194 C193 1.391 . S
C194 C195 1.392 . S
C195 H172 0.948 . S
C195 C194 1.392 . S
C195 C196 1.419 . S
C196 C195 1.419 . S
C196 C197 1.391 . S
C196 C200 1.397 . S
C197 C192 1.391 . S
C197 C196 1.391 . S
C197 C198 1.399 . S
C198 C197 1.399 . S
C198 C199 1.396 . S
C198 C201 1.453 . S
C198 C202 1.684 . S
C199 C189 1.723 . S
C199 C198 1.396 . S
C199 C200 1.394 . S
C200 C170 1.723 . S
C200 C196 1.397 . S
C200 C199 1.394 . S
C201 H173 0.982 . S
C201 H177 0.979 . S
C201 H178 0.977 . S
C201 C198 1.453 . S
C202 H174 0.979 . S
C202 H175 0.980 . S
C202 H176 0.983 . S
C202 C198 1.684 . S
H203 C221 0.948 . S
H204 C162 0.948 . S
H205 C180 0.979 . S
H206 C180 0.980 . S
H207 C180 0.983 1_554 S
H208 C179 0.982 . S
H209 C179 0.979 . S
H210 C179 0.977 . S
H211 C181 0.948 . S
H212 C183 0.947 . S
H213 C184 0.948 . S
H214 C190 0.982 . S
H215 C190 0.979 . S
H216 C190 0.977 . S
H217 C191 0.979 . S
H218 C191 0.980 . S
H219 C191 0.983 . S
H220 C164 0.947 . S
C221 C164 1.392 . S
C221 C165 1.419 . S
C221 H203 0.948 . S
C222 C223 1.391 . S
C222 C226 1.391 . S
C222 H264 0.948 . S
C223 C222 1.391 . S
C223 C224 1.391 . S
C224 C223 1.391 . S
C224 H280 0.947 . S
C224 C281 1.392 . S
C225 C226 1.391 . S
C225 C229 1.397 . S
C225 C281 1.419 . S
C226 C222 1.391 . S
C226 C225 1.391 . S
C226 C227 1.399 . S
C227 C226 1.399 . S
C227 C230 1.396 . S
C227 C239 1.453 . S
C227 C240 1.684 . S
H228 C252 0.948 . S
C229 C225 1.397 . S
C229 C230 1.394 . S
C229 C248 1.723 . S
C230 C227 1.396 . S
C230 C229 1.394 . S
C230 C260 1.723 . S
H231 C254 0.947 . S
H232 C255 0.948 . S
H233 C261 0.982 . S
H234 C262 0.979 . S
H235 C262 0.980 . S
H236 C262 0.983 . S
H237 C261 0.979 . S
H238 C261 0.977 . S
C239 C227 1.453 . S
C239 H268 0.982 . S
C239 H269 0.979 . S
C239 H270 0.977 . S
C240 C227 1.684 . S
C240 H265 0.979 . S
C240 H266 0.980 . S
C240 H267 0.983 . S
C241 C242 1.391 . S
C241 C246 1.391 . S
C241 H271 0.948 . S
C242 C241 1.391 . S
C242 C243 1.391 . S
C243 C242 1.391 . S
C243 C244 1.392 . S
C243 H272 0.947 . S
C244 C243 1.392 . S
C244 C245 1.419 . S
C244 H273 0.948 . S
C245 C244 1.419 . S
C245 C246 1.391 . S
C245 C249 1.397 . S
C246 C241 1.391 . S
C246 C245 1.391 . S
C246 C247 1.399 . S
C247 C246 1.399 . S
C247 C248 1.396 . S
C247 C250 1.453 . S
C247 C251 1.684 . S
C248 C229 1.723 . S
C248 C247 1.396 . S
C248 C249 1.394 . S
C249 C245 1.397 . S
C249 C248 1.394 . S
C249 C259 1.723 . S
C250 C247 1.453 . S
C250 H274 0.982 . S
C250 H275 0.979 . S
C250 H276 0.977 . S
C251 C247 1.684 . S
C251 H277 0.979 . S
C251 H278 0.980 . S
C251 H279 0.983 . S
C252 H228 0.948 . S
C252 C253 1.391 . S
C252 C257 1.391 . S
C253 C252 1.391 . S
C253 C254 1.391 . S
C254 H231 0.947 . S
C254 C253 1.391 . S
C254 C255 1.392 . S
C255 H232 0.948 . S
C255 C254 1.392 . S
C255 C256 1.419 . S
C256 C255 1.419 . S
C256 C257 1.391 . S
C256 C260 1.397 . S
C257 C252 1.391 . S
C257 C256 1.391 . S
C257 C258 1.399 . S
C258 C257 1.399 . S
C258 C259 1.396 . S
C258 C261 1.453 . S
C258 C262 1.684 . S
C259 C249 1.723 . S
C259 C258 1.396 . S
C259 C260 1.394 . S
C260 C230 1.723 . S
C260 C256 1.397 . S
C260 C259 1.394 . S
C261 H233 0.982 . S
C261 H237 0.979 . S
C261 H238 0.977 . S
C261 C258 1.453 . S
C262 H234 0.979 . S
C262 H235 0.980 . S
C262 H236 0.983 . S
C262 C258 1.684 . S
H263 C281 0.948 . S
H264 C222 0.948 . S
H265 C240 0.979 . S
H266 C240 0.980 . S
H267 C240 0.983 . S
H268 C239 0.982 . S
H269 C239 0.979 . S
H270 C239 0.977 . S
H271 C241 0.948 . S
H272 C243 0.947 . S
H273 C244 0.948 . S
H274 C250 0.982 . S
H275 C250 0.979 . S
H276 C250 0.977 . S
H277 C251 0.979 . S
H278 C251 0.980 . S
H279 C251 0.983 . S
H280 C224 0.947 . S
C281 C224 1.392 . S
C281 C225 1.419 . S
C281 H263 0.948 . S
H282 C283 0.951 . S
C283 H282 0.951 . S
C283 C289 1.265 . S
H284 C289 0.950 . S
H285 C293 0.949 . S
H286 C294 0.950 . S
H287 C295 0.951 . S
H288 C296 0.951 . S
C289 C283 1.265 . S
C289 H284 0.950 . S
C289 C290 1.478 . S
C290 C289 1.478 . S
C290 C291 1.397 . S
C290 C307 1.394 . S
C291 C290 1.397 . S
C291 C292 1.438 . S
C291 C296 1.429 1_554 S
C292 C291 1.438 . S
C292 C293 1.428 . S
C292 C305 1.394 . S
C293 H285 0.949 . S
C293 C292 1.428 . S
C293 C294 1.345 1_554 S
C294 H286 0.950 . S
C294 C293 1.345 1_556 S
C294 C295 1.424 . S
C295 H287 0.951 . S
C295 C294 1.424 . S
C295 C296 1.347 . S
C296 H288 0.951 . S
C296 C291 1.429 1_556 S
C296 C295 1.347 . S
H297 C298 0.951 . S
C298 H297 0.951 . S
C298 C304 1.265 . S
H299 C304 0.950 . S
H300 C308 0.949 . S
H301 C309 0.950 . S
H302 C310 0.951 . S
H303 C311 0.951 . S
C304 C298 1.265 . S
C304 H299 0.950 . S
C304 C305 1.478 . S
C305 C292 1.394 . S
C305 C304 1.478 . S
C305 C306 1.397 . S
C306 C305 1.397 . S
C306 C307 1.438 . S
C306 C311 1.429 . S
C307 C290 1.394 . S
C307 C306 1.438 . S
C307 C308 1.428 . S
C308 H300 0.949 . S
C308 C307 1.428 . S
C308 C309 1.345 . S
C309 H301 0.950 . S
C309 C308 1.345 . S
C309 C310 1.424 . S
C310 H302 0.951 . S
C310 C309 1.424 . S
C310 C311 1.347 . S
C311 H303 0.951 . S
C311 C306 1.429 . S
C311 C310 1.347 . S
H312 C313 0.951 . S
C313 H312 0.951 . S
C313 C319 1.269 . S
H314 C319 0.932 1_554 S
H315 C323 0.949 . S
H316 C324 0.950 . S
H317 C325 0.951 . S
H318 C326 0.951 . S
C319 C313 1.269 . S
C319 H314 0.932 1_556 S
C319 C320 1.492 . S
C320 C319 1.492 . S
C320 C321 1.397 . S
C320 C337 1.394 1_556 S
C321 C320 1.397 . S
C321 C322 1.438 . S
C321 C326 1.429 . S
C322 C321 1.438 . S
C322 C323 1.428 . S
C322 C335 1.394 . S
C323 H315 0.949 . S
C323 C322 1.428 . S
C323 C324 1.345 . S
C324 H316 0.950 . S
C324 C323 1.345 . S
C324 C325 1.424 . S
C325 H317 0.951 . S
C325 C324 1.424 . S
C325 C326 1.347 . S
C326 H318 0.951 . S
C326 C321 1.429 . S
C326 C325 1.347 . S
H327 C328 0.951 . S
C328 H327 0.951 . S
C328 C334 1.265 . S
H329 C334 0.950 . S
H330 C338 0.949 . S
H331 C339 0.950 . S
H332 C340 0.951 . S
H333 C341 0.951 . S
C334 C328 1.265 . S
C334 H329 0.950 . S
C334 C335 1.478 . S
C335 C322 1.394 . S
C335 C334 1.478 . S
C335 C336 1.397 . S
C336 C335 1.397 . S
C336 C337 1.438 1_556 S
C336 C341 1.429 1_556 S
C337 C320 1.394 1_554 S
C337 C336 1.438 1_554 S
C337 C338 1.428 . S
C338 H330 0.949 . S
C338 C337 1.428 . S
C338 C339 1.345 . S
C339 H331 0.950 . S
C339 C338 1.345 . S
C339 C340 1.424 . S
C340 H332 0.951 . S
C340 C339 1.424 . S
C340 C341 1.347 . S
C341 H333 0.951 . S
C341 C336 1.429 1_554 S
C341 C340 1.347 . S
H342 C343 0.951 . S
C343 H342 0.951 . S
C343 C349 1.265 . S
H344 C349 0.950 . S
H345 C353 0.949 . S
H346 C354 0.950 . S
H347 C355 0.951 . S
H348 C356 0.951 . S
C349 C343 1.265 . S
C349 H344 0.950 . S
C349 C350 1.478 . S
C350 C349 1.478 . S
C350 C351 1.397 . S
C350 C367 1.394 . S
C351 C350 1.397 . S
C351 C352 1.438 . S
C351 C356 1.429 . S
C352 C351 1.438 . S
C352 C353 1.428 . S
C352 C365 1.394 . S
C353 H345 0.949 . S
C353 C352 1.428 . S
C353 C354 1.345 . S
C354 H346 0.950 . S
C354 C353 1.345 . S
C354 C355 1.424 . S
C355 H347 0.951 . S
C355 C354 1.424 . S
C355 C356 1.347 . S
C356 H348 0.951 . S
C356 C351 1.429 . S
C356 C355 1.347 . S
H357 C358 0.951 . S
C358 H357 0.951 . S
C358 C364 1.265 . S
H359 C364 0.950 . S
H360 C368 0.949 1_556 S
H361 C369 0.950 . S
H362 C370 0.951 1_556 S
H363 C371 0.951 . S
C364 C358 1.265 . S
C364 H359 0.950 . S
C364 C365 1.478 . S
C365 C352 1.394 . S
C365 C364 1.478 . S
C365 C366 1.397 . S
C366 C365 1.397 . S
C366 C367 1.438 . S
C366 C371 1.429 . S
C367 C350 1.394 . S
C367 C366 1.438 . S
C367 C368 1.428 . S
C368 H360 0.949 1_554 S
C368 C367 1.428 . S
C368 C369 1.345 1_554 S
C369 H361 0.950 . S
C369 C368 1.345 1_556 S
C369 C370 1.424 1_556 S
C370 H362 0.951 1_554 S
C370 C369 1.424 1_554 S
C370 C371 1.347 . S
C371 H363 0.951 . S
C371 C366 1.429 . S
C371 C370 1.347 . S
H372 C373 0.951 . S
C373 H372 0.951 . S
C373 C379 1.265 1_554 S
H374 C379 0.950 . S
H375 C383 0.949 . S
H376 C384 0.950 . S
H377 C385 0.951 . S
H378 C386 0.951 . S
C379 C373 1.265 1_556 S
C379 H374 0.950 . S
C379 C380 1.478 . S
C380 C379 1.478 . S
C380 C381 1.397 . S
C380 C397 1.394 1_556 S
C381 C380 1.397 . S
C381 C382 1.438 . S
C381 C386 1.429 . S
C382 C381 1.438 . S
C382 C383 1.428 . S
C382 C395 1.394 . S
C383 H375 0.949 . S
C383 C382 1.428 . S
C383 C384 1.345 . S
C384 H376 0.950 . S
C384 C383 1.345 . S
C384 C385 1.424 . S
C385 H377 0.951 . S
C385 C384 1.424 . S
C385 C386 1.347 . S
C386 H378 0.951 . S
C386 C381 1.429 . S
C386 C385 1.347 . S
H387 C388 0.951 . S
C388 H387 0.951 . S
C388 C394 1.265 . S
H389 C394 0.950 . S
H390 C398 0.949 . S
H391 C399 0.950 . S
H392 C400 0.951 . S
H393 C401 0.951 . S
C394 C388 1.265 . S
C394 H389 0.950 . S
C394 C395 1.478 . S
C395 C382 1.394 . S
C395 C394 1.478 . S
C395 C396 1.397 1_556 S
C396 C395 1.397 1_554 S
C396 C397 1.438 . S
C396 C401 1.429 . S
C397 C380 1.394 1_554 S
C397 C396 1.438 . S
C397 C398 1.428 . S
C398 H390 0.949 . S
C398 C397 1.428 . S
C398 C399 1.345 . S
C399 H391 0.950 . S
C399 C398 1.345 . S
C399 C400 1.424 . S
C400 H392 0.951 . S
C400 C399 1.424 . S
C400 C401 1.347 . S
C401 H393 0.951 . S
C401 C396 1.429 . S
C401 C400 1.347 . S
H402 C403 0.951 . S
C403 H402 0.951 . S
C403 C409 1.265 . S
H404 C409 0.950 . S
H405 C413 0.949 . S
H406 C414 0.950 . S
H407 C415 0.951 . S
H408 C416 0.951 . S
C409 C403 1.265 . S
C409 H404 0.950 . S
C409 C410 1.478 . S
C410 C409 1.478 . S
C410 C411 1.397 . S
C410 C427 1.394 . S
C411 C410 1.397 . S
C411 C412 1.438 . S
C411 C416 1.429 . S
C412 C411 1.438 . S
C412 C413 1.428 . S
C412 C425 1.394 . S
C413 H405 0.949 . S
C413 C412 1.428 . S
C413 C414 1.345 . S
C414 H406 0.950 . S
C414 C413 1.345 . S
C414 C415 1.424 . S
C415 H407 0.951 . S
C415 C414 1.424 . S
C415 C416 1.347 . S
C416 H408 0.951 . S
C416 C411 1.429 . S
C416 C415 1.347 . S
H417 C418 0.951 . S
C418 H417 0.951 . S
C418 C424 1.265 . S
H419 C424 0.950 . S
H420 C428 0.949 . S
H421 C429 0.950 . S
H422 C430 0.951 . S
H423 C431 0.951 . S
C424 C418 1.265 . S
C424 H419 0.950 . S
C424 C425 1.478 . S
C425 C412 1.394 . S
C425 C424 1.478 . S
C425 C426 1.397 . S
C426 C425 1.397 . S
C426 C427 1.438 . S
C426 C431 1.429 . S
C427 C410 1.394 . S
C427 C426 1.438 . S
C427 C428 1.428 . S
C428 H420 0.949 . S
C428 C427 1.428 . S
C428 C429 1.345 . S
C429 H421 0.950 . S
C429 C428 1.345 . S
C429 C430 1.424 . S
C430 H422 0.951 . S
C430 C429 1.424 . S
C430 C431 1.347 . S
C431 H423 0.951 . S
C431 C426 1.429 . S
C431 C430 1.347 . S
H432 C433 0.951 . S
C433 H432 0.951 . S
C433 C439 1.265 . S
H434 C439 0.950 . S
H435 C443 0.949 . S
H436 C444 0.950 . S
H437 C445 0.951 . S
H438 C446 0.951 . S
C439 C433 1.265 . S
C439 H434 0.950 . S
C439 C440 1.478 . S
C440 C439 1.478 . S
C440 C441 1.397 . S
C440 C457 1.394 . S
C441 C440 1.397 . S
C441 C442 1.438 . S
C441 C446 1.429 . S
C442 C441 1.438 . S
C442 C443 1.428 . S
C442 C455 1.394 . S
C443 H435 0.949 . S
C443 C442 1.428 . S
C443 C444 1.345 . S
C444 H436 0.950 . S
C444 C443 1.345 . S
C444 C445 1.424 . S
C445 H437 0.951 . S
C445 C444 1.424 . S
C445 C446 1.347 . S
C446 H438 0.951 . S
C446 C441 1.429 . S
C446 C445 1.347 . S
H447 C448 0.951 . S
C448 H447 0.951 . S
C448 C454 1.265 . S
H449 C454 0.950 . S
H450 C458 0.949 . S
H451 C459 0.950 . S
H452 C460 0.951 . S
H453 C461 0.951 . S
C454 C448 1.265 . S
C454 H449 0.950 . S
C454 C455 1.478 . S
C455 C442 1.394 . S
C455 C454 1.478 . S
C455 C456 1.397 . S
C456 C455 1.397 . S
C456 C457 1.438 . S
C456 C461 1.429 . S
C457 C440 1.394 . S
C457 C456 1.438 . S
C457 C458 1.428 . S
C458 H450 0.949 . S
C458 C457 1.428 . S
C458 C459 1.345 . S
C459 H451 0.950 . S
C459 C458 1.345 . S
C459 C460 1.424 . S
C460 H452 0.951 . S
C460 C459 1.424 . S
C460 C461 1.347 . S
C461 H453 0.951 . S
C461 C456 1.429 . S
C461 C460 1.347 . S
H462 C463 0.951 . S
C463 H462 0.951 . S
C463 C469 1.265 . S
H464 C469 0.950 . S
H465 C473 0.949 . S
H466 C474 0.950 . S
H467 C475 0.951 . S
H468 C476 0.951 . S
C469 C463 1.265 . S
C469 H464 0.950 . S
C469 C470 1.478 . S
C470 C469 1.478 . S
C470 C471 1.397 . S
C470 C487 1.394 . S
C471 C470 1.397 . S
C471 C472 1.438 . S
C471 C476 1.429 . S
C472 C471 1.438 . S
C472 C473 1.428 . S
C472 C485 1.394 . S
C473 H465 0.949 . S
C473 C472 1.428 . S
C473 C474 1.345 . S
C474 H466 0.950 . S
C474 C473 1.345 . S
C474 C475 1.424 . S
C475 H467 0.951 . S
C475 C474 1.424 . S
C475 C476 1.347 . S
C476 H468 0.951 . S
C476 C471 1.429 . S
C476 C475 1.347 . S
H477 C478 0.951 . S
C478 H477 0.951 . S
C478 C484 1.265 . S
H479 C484 0.950 . S
H480 C488 0.949 . S
H481 C489 0.950 . S
H482 C490 0.951 . S
H483 C491 0.951 . S
C484 C478 1.265 . S
C484 H479 0.950 . S
C484 C485 1.478 . S
C485 C472 1.394 . S
C485 C484 1.478 . S
C485 C486 1.397 . S
C486 C485 1.397 . S
C486 C487 1.438 . S
C486 C491 1.429 . S
C487 C470 1.394 . S
C487 C486 1.438 . S
C487 C488 1.428 . S
C488 H480 0.949 . S
C488 C487 1.428 . S
C488 C489 1.345 . S
C489 H481 0.950 . S
C489 C488 1.345 . S
C489 C490 1.424 . S
C490 H482 0.951 . S
C490 C489 1.424 . S
C490 C491 1.347 . S
C491 H483 0.951 . S
C491 C486 1.429 . S
C491 C490 1.347 . S
H492 C493 0.951 . S
C493 H492 0.951 . S
C493 C499 1.265 . S
H494 C499 0.950 . S
H495 C503 0.949 . S
H496 C504 0.950 . S
H497 C505 0.951 . S
H498 C506 0.951 . S
C499 C493 1.265 . S
C499 H494 0.950 . S
C499 C500 1.478 . S
C500 C499 1.478 . S
C500 C501 1.397 . S
C500 C517 1.394 . S
C501 C500 1.397 . S
C501 C502 1.438 . S
C501 C506 1.429 . S
C502 C501 1.438 . S
C502 C503 1.428 . S
C502 C515 1.394 . S
C503 H495 0.949 . S
C503 C502 1.428 . S
C503 C504 1.345 . S
C504 H496 0.950 . S
C504 C503 1.345 . S
C504 C505 1.424 . S
C505 H497 0.951 . S
C505 C504 1.424 . S
C505 C506 1.347 . S
C506 H498 0.951 . S
C506 C501 1.429 . S
C506 C505 1.347 . S
H507 C508 0.951 . S
C508 H507 0.951 . S
C508 C514 1.265 . S
H509 C514 0.950 . S
H510 C518 0.949 . S
H511 C519 0.950 . S
H512 C520 0.951 . S
H513 C521 0.951 . S
C514 C508 1.265 . S
C514 H509 0.950 . S
C514 C515 1.478 . S
C515 C502 1.394 . S
C515 C514 1.478 . S
C515 C516 1.397 . S
C516 C515 1.397 . S
C516 C517 1.438 . S
C516 C521 1.429 . S
C517 C500 1.394 . S
C517 C516 1.438 . S
C517 C518 1.428 . S
C518 H510 0.949 . S
C518 C517 1.428 . S
C518 C519 1.345 . S
C519 H511 0.950 . S
C519 C518 1.345 . S
C519 C520 1.424 . S
C520 H512 0.951 . S
C520 C519 1.424 . S
C520 C521 1.347 . S
C521 H513 0.951 . S
C521 C516 1.429 . S
C521 C520 1.347 . S
H522 C523 0.951 . S
C523 H522 0.951 . S
C523 C529 1.265 . S
H524 C529 0.950 1_655 S
H525 C533 0.949 . S
H526 C534 0.950 . S
H527 C535 0.951 . S
H528 C536 0.951 . S
C529 C523 1.265 . S
C529 H524 0.950 1_455 S
C529 C530 1.478 . S
C530 C529 1.478 . S
C530 C531 1.397 . S
C530 C547 1.394 1_565 S
C531 C530 1.397 . S
C531 C532 1.438 . S
C531 C536 1.429 . S
C532 C531 1.438 . S
C532 C533 1.428 . S
C532 C545 1.394 1_565 S
C533 H525 0.949 . S
C533 C532 1.428 . S
C533 C534 1.345 . S
C534 H526 0.950 . S
C534 C533 1.345 . S
C534 C535 1.424 . S
C535 H527 0.951 . S
C535 C534 1.424 . S
C535 C536 1.347 . S
C536 H528 0.951 . S
C536 C531 1.429 . S
C536 C535 1.347 . S
H537 C538 0.951 . S
C538 H537 0.951 . S
C538 C544 1.265 . S
H539 C544 0.950 . S
H540 C548 0.949 . S
H541 C549 0.950 . S
H542 C550 0.951 . S
H543 C551 0.951 . S
C544 C538 1.265 . S
C544 H539 0.950 . S
C544 C545 1.478 . S
C545 C532 1.394 1_545 S
C545 C544 1.478 . S
C545 C546 1.397 . S
C546 C545 1.397 . S
C546 C547 1.438 . S
C546 C551 1.429 . S
C547 C530 1.394 1_545 S
C547 C546 1.438 . S
C547 C548 1.428 . S
C548 H540 0.949 . S
C548 C547 1.428 . S
C548 C549 1.345 . S
C549 H541 0.950 . S
C549 C548 1.345 . S
C549 C550 1.424 . S
C550 H542 0.951 . S
C550 C549 1.424 . S
C550 C551 1.347 . S
C551 H543 0.951 . S
C551 C546 1.429 . S
C551 C550 1.347 . S
H552 C553 0.951 1_655 S
C553 H552 0.951 1_455 S
C553 C559 1.265 . S
H554 C559 0.950 . S
H555 C563 0.949 . S
H556 C564 0.950 . S
H557 C565 0.951 . S
H558 C566 0.951 . S
C559 C553 1.265 . S
C559 H554 0.950 . S
C559 C560 1.478 . S
C560 C559 1.478 . S
C560 C561 1.397 . S
C560 C577 1.394 1_565 S
C561 C560 1.397 . S
C561 C562 1.438 . S
C561 C566 1.429 . S
C562 C561 1.438 . S
C562 C563 1.428 . S
C562 C575 1.401 1_565 S
C563 H555 0.949 . S
C563 C562 1.428 . S
C563 C564 1.345 . S
C564 H556 0.950 . S
C564 C563 1.345 . S
C564 C565 1.424 . S
C565 H557 0.951 . S
C565 C564 1.424 . S
C565 C566 1.347 . S
C566 H558 0.951 . S
C566 C561 1.429 . S
C566 C565 1.347 . S
H567 C568 0.951 . S
C568 H567 0.951 . S
C568 C574 1.265 1_455 S
H569 C574 0.950 . S
H570 C578 0.949 1_455 S
H571 C579 0.950 . S
H572 C580 0.951 . S
H573 C581 0.951 . S
C574 C568 1.265 1_655 S
C574 H569 0.950 . S
C574 C575 1.474 1_655 S
C575 C562 1.401 1_545 S
C575 C574 1.474 1_455 S
C575 C576 1.393 1_455 S
C576 C575 1.393 1_655 S
C576 C577 1.438 1_655 S
C576 C581 1.429 . S
C577 C560 1.394 1_545 S
C577 C576 1.438 1_455 S
C577 C578 1.428 1_455 S
C578 H570 0.949 1_655 S
C578 C577 1.428 1_655 S
C578 C579 1.345 . S
C579 H571 0.950 . S
C579 C578 1.345 . S
C579 C580 1.424 . S
C580 H572 0.951 . S
C580 C579 1.424 . S
C580 C581 1.347 . S
C581 H573 0.951 . S
C581 C576 1.429 . S
C581 C580 1.347 . S
H582 C583 0.951 . S
C583 H582 0.951 . S
C583 C589 1.265 . S
H584 C589 0.950 . S
H585 C593 0.949 . S
H586 C594 0.950 . S
H587 C595 0.951 . S
H588 C596 0.951 . S
C589 C583 1.265 . S
C589 H584 0.950 . S
C589 C590 1.478 . S
C590 C589 1.478 . S
C590 C591 1.397 . S
C590 C607 1.394 . S
C591 C590 1.397 . S
C591 C592 1.438 . S
C591 C596 1.429 . S
C592 C591 1.438 . S
C592 C593 1.428 . S
C592 C605 1.394 . S
C593 H585 0.949 . S
C593 C592 1.428 . S
C593 C594 1.345 . S
C594 H586 0.950 . S
C594 C593 1.345 . S
C594 C595 1.424 . S
C595 H587 0.951 . S
C595 C594 1.424 . S
C595 C596 1.347 . S
C596 H588 0.951 . S
C596 C591 1.429 . S
C596 C595 1.347 . S
H597 C598 0.951 . S
C598 H597 0.951 . S
C598 C604 1.265 . S
H599 C604 0.950 . S
H600 C608 0.949 . S
H601 C609 0.950 . S
H602 C610 0.951 . S
H603 C611 0.951 . S
C604 C598 1.265 . S
C604 H599 0.950 . S
C604 C605 1.478 . S
C605 C592 1.394 . S
C605 C604 1.478 . S
C605 C606 1.397 . S
C606 C605 1.397 . S
C606 C607 1.438 . S
C606 C611 1.429 . S
C607 C590 1.394 . S
C607 C606 1.438 . S
C607 C608 1.428 . S
C608 H600 0.949 . S
C608 C607 1.428 . S
C608 C609 1.345 . S
C609 H601 0.950 . S
C609 C608 1.345 . S
C609 C610 1.424 . S
C610 H602 0.951 . S
C610 C609 1.424 . S
C610 C611 1.347 . S
C611 H603 0.951 . S
C611 C606 1.429 . S
C611 C610 1.347 . S
H612 C613 0.951 . S
C613 H612 0.951 . S
C613 C619 1.265 . S
H614 C619 0.950 . S
H615 C623 0.949 . S
H616 C624 0.950 . S
H617 C625 0.951 . S
H618 C626 0.951 . S
C619 C613 1.265 . S
C619 H614 0.950 . S
C619 C620 1.478 . S
C620 C619 1.478 . S
C620 C621 1.397 . S
C620 C637 1.394 . S
C621 C620 1.397 . S
C621 C622 1.438 . S
C621 C626 1.429 . S
C622 C621 1.438 . S
C622 C623 1.428 . S
C622 C635 1.394 . S
C623 H615 0.949 . S
C623 C622 1.428 . S
C623 C624 1.345 . S
C624 H616 0.950 . S
C624 C623 1.345 . S
C624 C625 1.424 . S
C625 H617 0.951 . S
C625 C624 1.424 . S
C625 C626 1.347 . S
C626 H618 0.951 . S
C626 C621 1.429 . S
C626 C625 1.347 . S
H627 C628 0.951 . S
C628 H627 0.951 . S
C628 C634 1.265 . S
H629 C634 0.950 . S
H630 C638 0.949 . S
H631 C639 0.950 . S
H632 C640 0.951 . S
H633 C641 0.951 . S
C634 C628 1.265 . S
C634 H629 0.950 . S
C634 C635 1.478 . S
C635 C622 1.394 . S
C635 C634 1.478 . S
C635 C636 1.397 . S
C636 C635 1.397 . S
C636 C637 1.438 . S
C636 C641 1.429 . S
C637 C620 1.394 . S
C637 C636 1.438 . S
C637 C638 1.428 . S
C638 H630 0.949 . S
C638 C637 1.428 . S
C638 C639 1.345 . S
C639 H631 0.950 . S
C639 C638 1.345 . S
C639 C640 1.424 . S
C640 H632 0.951 . S
C640 C639 1.424 . S
C640 C641 1.347 . S
C641 H633 0.951 . S
C641 C636 1.429 . S
C641 C640 1.347 . S
C298 C253 1.238 . S
C283 C3 1.198 . S
C313 C4 1.487 1_556 S
C328 C193 1.587 . S
C343 C19 1.516 . S
C358 C223 1.592 . S
C373 C7 1.056 1_554 S
C388 C163 1.150 . S
C403 C37 1.034 . S
C418 C133 1.211 . S
C433 C28 1.516 . S
C448 C73 1.624 . S
C478 C103 1.576 . S
C463 C41 1.493 . S
C508 C43 1.161 . S
C493 C25 1.051 . S
C523 C20 1.200 . S
C538 C62 1.380 . S
C553 C16 1.260 . S
C568 C122 1.494 1_455 S
C598 C182 1.455 . S
C583 C40 1.361 . S
C613 C24 1.254 . S
C628 C242 1.488 . S
