# Generated by pormake.
# Topology zzz, (3,6)-cn, num edge types: 1
# Building blocks:
#     Node 0, Type 0, BuildingBlock: VETTIZ_charged_linker_0, # of connection points: 3
#     Node 1, Type 0, BuildingBlock: VETTIZ_charged_linker_0, # of connection points: 3
#     Node 2, Type 0, BuildingBlock: VETTIZ_charged_linker_0, # of connection points: 3
#     Node 3, Type 0, BuildingBlock: VETTIZ_charged_linker_0, # of connection points: 3
#     Node 4, Type 0, BuildingBlock: VETTIZ_charged_linker_0, # of connection points: 3
#     Node 5, Type 0, BuildingBlock: VETTIZ_charged_linker_0, # of connection points: 3
#     Node 6, Type 0, BuildingBlock: VETTIZ_charged_linker_0, # of connection points: 3
#     Node 7, Type 0, BuildingBlock: VETTIZ_charged_linker_0, # of connection points: 3
#     Node 8, Type 1, BuildingBlock: NUHQIS_clean_sbu_0, # of connection points: 6
#     Node 9, Type 1, BuildingBlock: NUHQIS_clean_sbu_0, # of connection points: 6
#     Node 10, Type 1, BuildingBlock: NUHQIS_clean_sbu_0, # of connection points: 6
#     Node 11, Type 1, BuildingBlock: NUHQIS_clean_sbu_0, # of connection points: 6
#     Edge 12, Type (0, 1), BuildingBlock: OJICUG_clean_linker_0, # of connection points: 2
#     Edge 13, Type (0, 1), BuildingBlock: OJICUG_clean_linker_0, # of connection points: 2
#     Edge 14, Type (0, 1), BuildingBlock: OJICUG_clean_linker_0, # of connection points: 2
#     Edge 15, Type (0, 1), BuildingBlock: OJICUG_clean_linker_0, # of connection points: 2
#     Edge 16, Type (0, 1), BuildingBlock: OJICUG_clean_linker_0, # of connection points: 2
#     Edge 17, Type (0, 1), BuildingBlock: OJICUG_clean_linker_0, # of connection points: 2
#     Edge 18, Type (0, 1), BuildingBlock: OJICUG_clean_linker_0, # of connection points: 2
#     Edge 19, Type (0, 1), BuildingBlock: OJICUG_clean_linker_0, # of connection points: 2
#     Edge 20, Type (0, 1), BuildingBlock: OJICUG_clean_linker_0, # of connection points: 2
#     Edge 21, Type (0, 1), BuildingBlock: OJICUG_clean_linker_0, # of connection points: 2
#     Edge 22, Type (0, 1), BuildingBlock: OJICUG_clean_linker_0, # of connection points: 2
#     Edge 23, Type (0, 1), BuildingBlock: OJICUG_clean_linker_0, # of connection points: 2
#     Edge 24, Type (0, 1), BuildingBlock: OJICUG_clean_linker_0, # of connection points: 2
#     Edge 25, Type (0, 1), BuildingBlock: OJICUG_clean_linker_0, # of connection points: 2
#     Edge 26, Type (0, 1), BuildingBlock: OJICUG_clean_linker_0, # of connection points: 2
#     Edge 27, Type (0, 1), BuildingBlock: OJICUG_clean_linker_0, # of connection points: 2
#     Edge 28, Type (0, 1), BuildingBlock: OJICUG_clean_linker_0, # of connection points: 2
#     Edge 29, Type (0, 1), BuildingBlock: OJICUG_clean_linker_0, # of connection points: 2
#     Edge 30, Type (0, 1), BuildingBlock: OJICUG_clean_linker_0, # of connection points: 2
#     Edge 31, Type (0, 1), BuildingBlock: OJICUG_clean_linker_0, # of connection points: 2
#     Edge 32, Type (0, 1), BuildingBlock: OJICUG_clean_linker_0, # of connection points: 2
#     Edge 33, Type (0, 1), BuildingBlock: OJICUG_clean_linker_0, # of connection points: 2
#     Edge 34, Type (0, 1), BuildingBlock: OJICUG_clean_linker_0, # of connection points: 2
#     Edge 35, Type (0, 1), BuildingBlock: OJICUG_clean_linker_0, # of connection points: 2
# Relax obj value: 0.485
# Max RMSD: 0.253
# Mean RMSD: 0.236
data_MOF--net-zzz--node1-NUHQIS_clean_sbu_0--node2-VETTIZ_charged_linker_0--edge1-OJICUG_clean_linker_0
_symmetry_space_group_name_H-M    P1
_symmetry_Int_Tables_number       1
_symmetry_cell_setting            triclinic
loop_
_symmetry_equiv_pos_as_xyz
'x, y, z'
_cell_length_a     45.080068
_cell_length_b     45.079455
_cell_length_c     14.73183
_cell_angle_alpha  89.891075
_cell_angle_beta   89.883682
_cell_angle_gamma 90.028295
loop_
_atom_site_label
_atom_site_type_symbol
_atom_site_fract_x
_atom_site_fract_y
_atom_site_fract_z
_atom_type_partial_charge
C0 C 0.81937 0.50201 0.50726 0.0
C1 C 0.83965 0.4859 0.56356 0.0
C2 C 0.83463 0.45522 0.57592 0.0
C3 C 0.79714 0.45576 0.45993 0.0
C4 C 0.79713 0.48616 0.45843 0.0
C5 C 0.77036 0.49691 0.40306 0.0
H6 H 0.67082 0.45655 0.0647 0.0
C7 C 0.77732 0.44452 0.38973 0.0
C8 C 0.75943 0.46792 0.35825 0.0
H9 H 0.66784 0.53887 0.21308 0.0
H10 H 0.71022 0.52253 0.30532 0.0
H11 H 0.73386 0.45689 0.03304 0.0
H12 H 0.68275 0.41097 0.23143 0.0
H13 H 0.70888 0.38601 0.18405 0.0
H14 H 0.68302 0.40472 0.11102 0.0
H15 H 0.72423 0.41895 1.0163 0.0
H16 H 0.7588 0.42948 0.06919 0.0
C17 C 0.78006 0.52008 0.33234 0.0
C18 C 0.74731 0.50926 0.47043 0.0
C19 C 0.82244 0.36272 0.20517 0.0
C20 C 0.81721 0.35442 0.11483 0.0
C21 C 0.78861 0.35889 0.07873 0.0
C22 C 0.76735 0.3753 0.12717 0.0
C23 C 0.77524 0.38824 0.21061 0.0
C24 C 0.80176 0.38042 0.25068 0.0
C25 C 0.80776 0.39752 0.33619 0.0
C26 C 0.781 0.41845 0.33747 0.0
C27 C 0.76262 0.41343 0.26249 0.0
C28 C 0.83752 0.41452 0.32466 0.0
C29 C 0.80839 0.37544 0.41702 0.0
C30 C 0.67884 0.47113 0.11766 0.0
C31 C 0.66572 0.49902 0.13098 0.0
C32 C 0.67721 0.5171 0.20139 0.0
C33 C 0.70167 0.50759 0.25522 0.0
C34 C 0.71452 0.4795 0.2399 0.0
C35 C 0.7027 0.46193 0.17182 0.0
C36 C 0.71929 0.43348 0.15954 0.0
C37 C 0.74115 0.43504 0.23746 0.0
C38 C 0.73926 0.4624 0.28417 0.0
C39 C 0.73478 0.43451 0.06491 0.0
C40 C 0.6974 0.40728 0.17164 0.0
H41 H 0.80914 0.41721 0.53869 0.0
H42 H 0.82095 0.52589 0.50148 0.0
H43 H 0.74284 0.49293 0.52551 0.0
H44 H 0.72585 0.51399 0.43803 0.0
H45 H 0.75557 0.53002 0.50215 0.0
H46 H 0.79755 0.51077 0.28734 0.0
H47 H 0.7891 0.54015 0.36611 0.0
H48 H 0.76118 0.527 0.2893 0.0
H49 H 0.84401 0.35936 0.23515 0.0
H50 H 0.78363 0.35202 1.01 0.0
H51 H 0.7464 0.37908 0.09497 0.0
H52 H 0.83692 0.42887 0.26319 0.0
H53 H 0.85651 0.399 0.31826 0.0
H54 H 0.84289 0.42872 0.38306 0.0
H55 H 0.81122 0.35206 0.39457 0.0
H56 H 0.78747 0.37637 0.45697 0.0
H57 H 0.82746 0.37976 0.46267 0.0
H58 H 0.84841 0.4423 0.62132 0.0
C59 C 0.81298 0.44032 0.52599 0.0
C60 C 0.16453 0.79186 0.08904 0.0
C61 C 0.17758 0.81889 0.11695 0.0
C62 C 0.18247 0.82294 0.21105 0.0
C63 C 0.14881 0.78292 0.24312 0.0
C64 C 0.14962 0.77441 0.15356 0.0
C65 C 0.12851 0.74921 0.13577 0.0
H66 H 1.00407 0.68094 0.18061 0.0
C67 C 0.12328 0.76864 0.28722 0.0
C68 C 0.11407 0.74579 0.22981 0.0
H69 H 0.0869 0.6391 0.10351 0.0
H70 H 0.11415 0.6791 0.17826 0.0
H71 H 0.03594 0.70167 0.39774 0.0
H72 H 0.02383 0.75678 0.15752 0.0
H73 H 1.00823 0.77081 0.26012 0.0
H74 H 0.99253 0.73832 0.20876 0.0
H75 H 0.99968 0.70581 0.34817 0.0
H76 H 1.01562 0.73527 0.41392 0.0
C77 C 0.1463 0.72206 0.10317 0.0
C78 C 0.10536 0.75853 0.06388 0.0
C79 C 0.0675 0.83797 0.4971 0.0
C80 C 0.03746 0.84336 0.51532 0.0
C81 C 1.01641 0.82309 0.47961 0.0
C82 C 0.02544 0.79808 0.42747 0.0
C83 C 0.05577 0.79373 0.40782 0.0
C84 C 0.07598 0.81411 0.44159 0.0
C85 C 0.10671 0.80943 0.40565 0.0
C86 C 0.1023 0.78193 0.3473 0.0
C87 C 0.07242 0.77203 0.34935 0.0
C88 C 0.12752 0.80281 0.48639 0.0
C89 C 0.11593 0.83752 0.35023 0.0
C90 C 0.02803 0.68104 0.17613 0.0
C91 C 0.04336 0.65762 0.13073 0.0
C92 C 0.07462 0.6574 0.13289 0.0
C93 C 0.09042 0.68079 0.17172 0.0
C94 C 0.07499 0.70523 0.20522 0.0
C95 C 0.04474 0.7044 0.21637 0.0
C96 C 0.03488 0.73022 0.27738 0.0
C97 C 0.06454 0.74605 0.29748 0.0
C98 C 0.0868 0.73176 0.24752 0.0
C99 C 0.02064 0.71764 0.36429 0.0
C100 C 1.0136 0.7502 0.22332 0.0
H101 H 0.17141 0.80888 0.34555 0.0
H102 H 0.16274 0.78631 1.01788 0.0
H103 H 0.08863 0.74076 0.05382 0.0
H104 H 0.11606 0.76276 0.99711 0.0
H105 H 0.09353 0.77901 0.08529 0.0
H106 H 0.16415 0.72875 0.05511 0.0
H107 H 0.13211 0.70635 0.06506 0.0
H108 H 0.15676 0.71045 0.16103 0.0
H109 H 0.08426 0.85336 0.52068 0.0
H110 H 0.99299 0.82662 0.49193 0.0
H111 H 1.00861 0.78338 0.40234 0.0
H112 H 0.11709 0.7867 0.53406 0.0
H113 H 0.13257 0.82341 0.5247 0.0
H114 H 0.14863 0.79263 0.46422 0.0
H115 H 0.10151 0.85702 0.3633 0.0
H116 H 0.11449 0.83364 0.27594 0.0
H117 H 0.13853 0.84523 0.36792 0.0
H118 H 0.19401 0.84211 0.2368 0.0
C119 C 0.16854 0.80443 0.27451 0.0
C120 C 0.85046 0.0303 0.145 0.0
C121 C 0.87332 0.04595 0.09779 0.0
C122 C 0.87327 0.0772 0.10048 0.0
C123 C 0.82605 0.07696 0.17732 0.0
C124 C 0.82726 0.04667 0.18748 0.0
C125 C 0.8022 0.0363 0.25081 0.0
H126 H 0.68029 0.08271 0.50462 0.0
C127 C 0.79986 0.08838 0.22317 0.0
C128 C 0.7863 0.06567 0.27358 0.0
H129 H 0.70891 0.99202 0.4746 0.0
H130 H 0.75095 1.00863 0.38086 0.0
H131 H 0.70945 0.1316 0.50953 0.0
H132 H 0.67557 0.10035 0.34804 0.0
H133 H 0.69828 0.11492 0.2612 0.0
H134 H 0.6865 0.1376 0.35625 0.0
H135 H 0.74044 0.14771 0.44964 0.0
H136 H 0.74601 0.1158 0.51766 0.0
C137 C 0.81583 0.02192 0.33584 0.0
C138 C 0.7819 1.01496 0.19821 0.0
C139 C 0.73835 0.1676 0.07744 0.0
C140 C 0.71126 0.17991 0.10838 0.0
C141 C 0.70765 0.18358 0.20326 0.0
C142 C 0.72669 0.16917 0.26389 0.0
C143 C 0.74827 0.15011 0.22901 0.0
C144 C 0.75633 0.15214 0.13918 0.0
C145 C 0.7819 0.13178 0.11774 0.0
C146 C 0.78549 0.11573 0.20921 0.0
C147 C 0.76301 0.1242 0.2692 0.0
C148 C 0.8088 0.15068 0.0889 0.0
C149 C 0.7731 0.10986 0.04188 0.0
C150 C 0.69582 0.06623 0.48001 0.0
C151 C 0.69126 0.0361 0.49905 0.0
C152 C 0.71172 1.0155 0.46163 0.0
C153 C 0.73608 0.02512 0.40719 0.0
C154 C 0.73964 0.05557 0.38743 0.0
C155 C 0.71913 0.07527 0.42313 0.0
C156 C 0.72319 0.10627 0.38891 0.0
C157 C 0.75039 0.10262 0.32868 0.0
C158 C 0.76068 0.07289 0.3282 0.0
C159 C 0.73 0.1266 0.47068 0.0
C160 C 0.69467 0.11541 0.33578 0.0
H161 H 0.85184 0.11634 0.14961 0.0
H162 H 0.85088 1.00633 0.1492 0.0
H163 H 0.77457 0.02532 0.13346 0.0
H164 H 0.76173 1.00924 0.23698 0.0
H165 H 0.79384 0.99408 0.18174 0.0
H166 H 0.83215 0.03721 0.36762 0.0
H167 H 0.82751 1.00103 0.3179 0.0
H168 H 0.79883 1.01675 0.38757 0.0
H169 H 0.74366 0.16687 1.00588 0.0
H170 H 0.68844 0.19446 0.23171 0.0
H171 H 0.72252 0.17114 0.3354 0.0
H172 H 0.80187 0.17003 0.04714 0.0
H173 H 0.82431 0.13791 0.04548 0.0
H174 H 0.82073 0.15915 0.14913 0.0
H175 H 0.75276 0.09732 0.06104 0.0
H176 H 0.79114 0.09364 0.02906 0.0
H177 H 0.76884 0.12171 0.97704 0.0
H178 H 0.89128 0.08969 0.07002 0.0
C179 C 0.8501 0.09268 0.14196 0.0
C180 C 0.50469 0.71733 0.49131 0.0
C181 C 0.48936 0.69721 0.5505 0.0
C182 C 0.45867 0.70181 0.56455 0.0
C183 C 0.4577 0.73835 0.44562 0.0
C184 C 0.48806 0.73886 0.4417 0.0
C185 C 0.49786 0.76535 0.38307 0.0
H186 H 0.45213 0.86249 0.04336 0.0
C187 C 0.44552 0.7573 0.37467 0.0
C188 C 0.46827 0.77538 0.33977 0.0
H189 H 0.53618 0.86714 0.18231 0.0
H190 H 0.52154 0.82485 0.27776 0.0
H191 H 0.45382 0.79918 1.01356 0.0
H192 H 0.40817 0.84957 0.21348 0.0
H193 H 0.3836 0.82268 0.16802 0.0
H194 H 0.40125 0.84892 0.09345 0.0
H195 H 0.41543 0.80738 0.99995 0.0
H196 H 0.42765 0.77347 0.05373 0.0
C197 C 0.52054 0.75544 0.31129 0.0
C198 C 0.51042 0.78915 0.44731 0.0
C199 C 0.3635 0.70852 0.20058 0.0
C200 C 0.35448 0.71268 0.11029 0.0
C201 C 0.35796 0.74109 0.07125 0.0
C202 C 0.37416 0.76322 0.11653 0.0
C203 C 0.3879 0.75642 0.19969 0.0
C204 C 0.38105 0.73005 0.24271 0.0
C205 C 0.39893 0.72523 0.3274 0.0
C206 C 0.41913 0.75257 0.32481 0.0
C207 C 0.41309 0.77021 0.24869 0.0
C208 C 0.41663 0.69586 0.31715 0.0
C209 C 0.37746 0.72462 0.40978 0.0
C210 C 0.46752 0.85485 0.09468 0.0
C211 C 0.49537 0.86851 0.10446 0.0
C212 C 0.51441 0.85744 0.17326 0.0
C213 C 0.50588 0.83303 0.22906 0.0
C214 C 0.47784 0.81971 0.21739 0.0
C215 C 0.45935 0.83093 0.15055 0.0
C216 C 0.4312 0.81353 0.14143 0.0
C217 C 0.43396 0.79206 0.22039 0.0
C218 C 0.46169 0.79486 0.26461 0.0
C219 C 0.43182 0.79762 0.04763 0.0
C220 C 0.40451 0.83472 0.15433 0.0
H221 H 0.42001 0.72647 0.52844 0.0
H222 H 0.52855 0.71615 0.48396 0.0
H223 H 0.49454 0.79377 0.5034 0.0
H224 H 0.51449 0.81042 0.41269 0.0
H225 H 0.53161 0.78151 0.47788 0.0
H226 H 0.51113 0.73739 0.2688 0.0
H227 H 0.54107 0.74706 0.34413 0.0
H228 H 0.52673 0.77404 0.26589 0.0
H229 H 0.36073 0.68721 0.23323 0.0
H230 H 0.35041 0.74532 1.00269 0.0
H231 H 0.37711 0.78402 0.08238 0.0
H232 H 0.4306 0.69642 0.25484 0.0
H233 H 0.40159 0.67641 0.31308 0.0
H234 H 0.43131 0.69127 0.37513 0.0
H235 H 0.35403 0.72081 0.38927 0.0
H236 H 0.37799 0.74594 0.44757 0.0
H237 H 0.38272 0.70614 0.45693 0.0
H238 H 0.44622 0.68817 0.61174 0.0
C239 C 0.44307 0.72285 0.51419 0.0
C240 C 0.34954 0.53377 0.35505 0.0
C241 C 0.37269 0.54966 0.39978 0.0
C242 C 0.37303 0.58084 0.39315 0.0
C243 C 0.3256 0.58032 0.31798 0.0
C244 C 0.32639 0.54993 0.31151 0.0
C245 C 0.30089 0.53919 0.25079 0.0
H246 H 0.1767 0.58393 1.00481 0.0
C247 C 0.29911 0.59157 0.27333 0.0
C248 C 0.28491 0.56845 0.22666 0.0
H249 H 0.20659 0.49359 0.03327 0.0
H250 H 0.24887 0.51065 0.12483 0.0
H251 H 0.1733 0.60162 0.16344 0.0
H252 H 0.24143 0.6173 0.98424 0.0
H253 H 0.23665 0.64938 0.05171 0.0
H254 H 0.20496 0.63303 0.99652 0.0
H255 H 0.18348 0.63901 0.1513 0.0
H256 H 0.19679 0.61716 0.24634 0.0
C257 C 0.28081 0.51828 0.30619 0.0
C258 C 0.31398 0.52418 0.16601 0.0
C259 C 0.23914 0.67099 0.42192 0.0
C260 C 0.21157 0.68292 0.39414 0.0
C261 C 0.20657 0.6861 0.29992 0.0
C262 C 0.22468 0.67147 0.23723 0.0
C263 C 0.2471 0.65298 0.26982 0.0
C264 C 0.25664 0.65583 0.35796 0.0
C265 C 0.28369 0.63701 0.37514 0.0
C266 C 0.28498 0.61914 0.28633 0.0
C267 C 0.26145 0.6269 0.22945 0.0
C268 C 0.27868 0.61673 0.45848 0.0
C269 C 0.31041 0.65793 0.38954 0.0
C270 C 0.19251 0.56761 0.02872 0.0
C271 C 0.18827 0.53745 1.0096 0.0
C272 C 0.20913 0.51708 0.04619 0.0
C273 C 0.23366 0.52697 0.09922 0.0
C274 C 0.23709 0.55748 0.11825 0.0
C275 C 0.2161 0.57692 0.08376 0.0
C276 C 0.22028 0.60805 0.11623 0.0
C277 C 0.24816 0.60485 0.17343 0.0
C278 C 0.25864 0.57519 0.17451 0.0
C279 C 0.19227 0.61709 0.17226 0.0
C280 C 0.22599 0.62818 0.03287 0.0
H281 H 0.35198 0.61962 0.33961 0.0
H282 H 0.34964 0.50976 0.35372 0.0
H283 H 0.33014 0.53919 0.13193 0.0
H284 H 0.29667 0.51869 0.11586 0.0
H285 H 0.32572 0.5034 0.18482 0.0
H286 H 0.2737 0.52917 0.37031 0.0
H287 H 0.29283 0.49755 0.32394 0.0
H288 H 0.26053 0.51221 0.2687 0.0
H289 H 0.24519 0.67051 0.49291 0.0
H290 H 0.18682 0.69662 0.27452 0.0
H291 H 0.21929 0.67293 0.16643 0.0
H292 H 0.25852 0.60284 0.44925 0.0
H293 H 0.27602 0.63001 0.52138 0.0
H294 H 0.29788 0.60178 0.46931 0.0
H295 H 0.30374 0.67831 0.42678 0.0
H296 H 0.32018 0.66493 0.32364 0.0
H297 H 0.32769 0.64754 0.43247 0.0
H298 H 0.3913 0.59344 0.42134 0.0
C299 C 0.34996 0.59612 0.35048 0.0
C300 C 0.86595 0.24461 0.39279 0.0
C301 C 0.85333 0.21763 0.36246 0.0
C302 C 0.84999 0.21385 0.26769 0.0
C303 C 0.88458 0.25345 0.24171 0.0
C304 C 0.88199 0.26211 0.33078 0.0
C305 C 0.90225 0.28781 0.35127 0.0
H306 H 0.03071 0.34972 0.33956 0.0
C307 C 0.9113 0.26712 0.20283 0.0
C308 C 0.91975 0.28986 0.26169 0.0
H309 H 0.94809 0.39376 0.40618 0.0
H310 H 0.92109 0.35642 0.31832 0.0
H311 H 1.0084 0.27497 0.34879 0.0
H312 H 1.00225 0.33289 0.11263 0.0
H313 H 0.02167 0.2988 0.09621 0.0
H314 H 0.03744 0.32698 0.16742 0.0
H315 H 0.04106 0.29311 0.30504 0.0
H316 H 0.02555 0.26166 0.24749 0.0
C317 C 0.92274 0.28015 0.43198 0.0
C318 C 0.88298 0.31523 0.37237 0.0
C319 C 0.96921 0.19687 1.00189 0.0
C320 C 0.99933 0.19154 0.98437 0.0
C321 C 0.02021 0.21149 0.02279 0.0
C322 C 1.01089 0.23618 0.07614 0.0
C323 C 0.98041 0.24068 0.09361 0.0
C324 C 0.96041 0.2206 0.05727 0.0
C325 C 0.92923 0.22587 0.08818 0.0
C326 C 0.93313 0.25334 0.14685 0.0
C327 C 0.96318 0.26264 0.14982 0.0
C328 C 0.91863 0.19799 0.14231 0.0
C329 C 0.90996 0.23277 1.00405 0.0
C330 C 1.00673 0.35071 0.33837 0.0
C331 C 0.99129 0.37382 0.38485 0.0
C332 C 0.96023 0.37549 0.37611 0.0
C333 C 0.94447 0.35353 0.32994 0.0
C334 C 0.95964 0.32897 0.29618 0.0
C335 C 0.99007 0.32868 0.29144 0.0
C336 C 1.00029 0.3031 0.23007 0.0
C337 C 0.97063 0.28835 0.20358 0.0
C338 C 0.94778 0.30314 0.24988 0.0
C339 C 0.02001 0.28198 0.28561 0.0
C340 C 1.01641 0.31605 0.14682 0.0
H341 H 0.86372 0.22766 0.13546 0.0
H342 H 0.86641 0.25007 0.46421 0.0
H343 H 0.86271 0.30898 0.41109 0.0
H344 H 0.87584 0.32636 0.30894 0.0
H345 H 0.89484 0.33125 0.41624 0.0
H346 H 0.93545 0.2595 0.41813 0.0
H347 H 0.90973 0.27697 0.49536 0.0
H348 H 0.9388 0.2983 0.44486 0.0
H349 H 0.95246 0.18179 0.9765 0.0
H350 H 0.04368 0.20812 1.0111 0.0
H351 H 0.0276 0.25066 0.10319 0.0
H352 H 0.93308 0.17832 0.1323 0.0
H353 H 0.89633 0.19048 0.12061 0.0
H354 H 0.91862 0.20201 0.21668 0.0
H355 H 0.92174 0.24814 0.95702 0.0
H356 H 0.88899 0.24399 0.02234 0.0
H357 H 0.90468 0.21215 0.96615 0.0
H358 H 0.83879 0.19485 0.23996 0.0
C359 C 0.86528 0.23217 0.20683 0.0
C360 C 0.3214 1.00768 0.99458 0.0
C361 C 0.34136 0.99237 0.93534 0.0
C362 C 0.33616 0.96199 0.9186 0.0
C363 C 0.29904 0.96083 0.03597 0.0
C364 C 0.29922 0.99117 0.04182 0.0
C365 C 0.27259 1.00118 0.09915 0.0
H366 H 0.17172 0.95557 0.42883 0.0
C367 C 0.27924 0.94859 0.10482 0.0
C368 C 0.26151 0.97155 0.13982 0.0
H369 H 0.17025 0.04061 0.29406 0.0
H370 H 0.21304 0.02569 0.20132 0.0
H371 H 0.18492 0.91268 0.25565 0.0
H372 H 0.23473 0.95514 0.46329 0.0
H373 H 0.25992 0.92849 0.42347 0.0
H374 H 0.22515 0.91693 0.47365 0.0
H375 H 0.18406 0.90478 0.37536 0.0
H376 H 0.21062 0.8871 0.30219 0.0
C377 C 0.24963 1.01485 0.03404 0.0
C378 C 0.28256 0.02304 0.17301 0.0
C379 C 0.32399 0.86355 0.27672 0.0
C380 C 0.31886 0.8542 0.36637 0.0
C381 C 0.29027 0.85818 0.40346 0.0
C382 C 0.26902 0.87532 0.3575 0.0
C383 C 0.27691 0.88948 0.27573 0.0
C384 C 0.30337 0.88212 0.23412 0.0
C385 C 0.30944 0.90059 0.15106 0.0
C386 C 0.28279 0.92166 0.15322 0.0
C387 C 0.26438 0.91554 0.22763 0.0
C388 C 0.30994 0.87988 0.06714 0.0
C389 C 0.33929 0.91723 0.16449 0.0
C390 C 0.18017 0.97109 0.37885 0.0
C391 C 0.16727 0.99929 0.36939 0.0
C392 C 0.17936 0.01856 0.30263 0.0
C393 C 0.20405 1.00987 0.24838 0.0
C394 C 0.21655 0.98142 0.25946 0.0
C395 C 0.20431 0.96274 0.32434 0.0
C396 C 0.22079 0.93405 0.33285 0.0
C397 C 0.24299 0.93684 0.25583 0.0
C398 C 0.2413 0.96495 0.21315 0.0
C399 C 0.19897 0.90814 0.31611 0.0
C400 C 0.23587 0.93338 0.42791 0.0
H401 H 0.31053 0.92355 0.95122 0.0
H402 H 0.32317 0.03143 1.00368 0.0
H403 H 0.30004 1.01285 0.21609 0.0
H404 H 0.2638 0.02934 0.21757 0.0
H405 H 0.29171 0.0436 0.14206 0.0
H406 H 0.24521 0.99963 0.97627 0.0
H407 H 0.25796 0.03619 1.00587 0.0
H408 H 0.22813 0.01896 0.06715 0.0
H409 H 0.34545 0.86027 0.24545 0.0
H410 H 0.28533 0.85041 0.47146 0.0
H411 H 0.24808 0.87866 0.39042 0.0
H412 H 0.31285 0.85617 0.08615 0.0
H413 H 0.32892 0.88499 0.02161 0.0
H414 H 0.28894 0.88144 0.02802 0.0
H415 H 0.33871 0.93069 0.22766 0.0
H416 H 0.34475 0.93222 0.10777 0.0
H417 H 0.35818 0.90152 0.16891 0.0
H418 H 0.34972 0.94985 0.87057 0.0
C419 C 0.31459 0.94639 0.96719 0.0
C420 C 0.5321 0.32659 0.02188 0.0
C421 C 0.5476 0.34523 0.95886 0.0
C422 C 0.5774 0.33809 0.93813 0.0
C423 C 0.57793 0.30137 0.0567 0.0
C424 C 0.54783 0.30351 0.06736 0.0
C425 C 0.53713 0.27894 0.13197 0.0
H426 H 0.57869 0.17874 0.46318 0.0
C427 C 0.59004 0.28153 0.12525 0.0
C428 C 0.56678 0.26451 0.16183 0.0
H429 H 0.50431 0.16487 0.28426 0.0
H430 H 0.52058 0.20745 0.19131 0.0
H431 H 0.62444 0.18917 0.29659 0.0
H432 H 0.57846 0.24325 0.4866 0.0
H433 H 0.60637 0.26737 0.44762 0.0
H434 H 0.61629 0.23349 0.50565 0.0
H435 H 0.63105 0.1914 0.41671 0.0
H436 H 0.64945 0.21604 0.33848 0.0
C437 C 0.51675 0.25756 0.07962 0.0
C438 C 0.52091 0.29269 0.21364 0.0
C439 C 0.67287 0.32925 0.30029 0.0
C440 C 0.68182 0.32496 0.39068 0.0
C441 C 0.67751 0.29677 0.43028 0.0
C442 C 0.66053 0.27513 0.38579 0.0
C443 C 0.64719 0.28204 0.30212 0.0
C444 C 0.65479 0.30807 0.25831 0.0
C445 C 0.63686 0.31319 0.17365 0.0
C446 C 0.61642 0.28599 0.17572 0.0
C447 C 0.62187 0.26865 0.25305 0.0
C448 C 0.65809 0.3139 0.09088 0.0
C449 C 0.6194 0.34266 0.18448 0.0
C450 C 0.56494 0.18535 0.40643 0.0
C451 C 0.53948 0.16889 0.38406 0.0
C452 C 0.52347 0.17757 0.30545 0.0
C453 C 0.53221 0.20266 0.25309 0.0
C454 C 0.5569 0.21958 0.2799 0.0
C455 C 0.57352 0.20976 0.353 0.0
C456 C 0.60197 0.22671 0.36317 0.0
C457 C 0.60051 0.24738 0.28178 0.0
C458 C 0.57331 0.24452 0.23536 0.0
C459 C 0.62826 0.20476 0.35388 0.0
C460 C 0.60095 0.24352 0.4553 0.0
H461 H 0.61483 0.31034 0.96745 0.0
H462 H 0.50875 0.33007 0.03545 0.0
H463 H 0.53543 0.30898 0.24875 0.0
H464 H 0.51459 0.27519 0.26327 0.0
H465 H 0.50042 0.30427 0.19135 0.0
H466 H 0.52993 0.24141 0.03933 0.0
H467 H 0.50211 0.26993 0.03219 0.0
H468 H 0.50163 0.2455 0.12605 0.0
H469 H 0.67618 0.35044 0.26744 0.0
H470 H 0.68489 0.29248 0.49899 0.0
H471 H 0.65661 0.25471 0.42121 0.0
H472 H 0.68108 0.32008 0.11052 0.0
H473 H 0.65134 0.33095 0.04067 0.0
H474 H 0.65922 0.29191 0.05704 0.0
H475 H 0.60492 0.34183 0.24565 0.0
H476 H 0.60532 0.34777 0.12546 0.0
H477 H 0.6346 0.36191 0.19098 0.0
H478 H 0.58971 0.3507 0.88801 0.0
C479 C 0.59238 0.31582 0.9856 0.0
Tb480 Tb 0.04135 1.01075 0.81834 0.0
Eu481 Eu 0.99536 0.02845 0.65211 0.0
C482 C 0.06642 0.02002 0.61516 0.0
C483 C 0.01849 0.07786 0.79874 0.0
C484 C 0.10251 0.97521 0.94625 0.0
C485 C 0.13084 0.93481 0.88048 0.0
C486 C 0.11002 0.95758 0.87131 0.0
C487 C 0.1173 0.97105 0.02879 0.0
C488 C 0.13811 0.94825 0.03813 0.0
C489 C 0.14431 0.92917 0.96494 0.0
C490 C 0.07825 0.99683 0.94007 0.0
O491 O 0.99905 0.01879 0.88852 0.0
O492 O 0.96592 1.01527 0.77083 0.0
O493 O 1.00722 0.98073 0.62354 0.0
O494 O 0.02918 0.9674 0.75876 0.0
C495 C 0.97162 1.01694 0.85826 0.0
O496 O 0.95478 0.01969 0.57583 0.0
O497 O 0.98238 0.0573 0.54022 0.0
O498 O 0.04138 0.03222 0.58791 0.0
O499 O 0.06906 1.00836 0.69671 0.0
O500 O 0.03958 0.05952 0.82508 0.0
O501 O 0.99808 0.06959 0.74021 0.0
C502 C 0.01859 0.96053 0.6777 0.0
O503 O 0.08222 0.01836 0.88218 0.0
O504 O 0.0516 0.98565 0.93438 0.0
C505 C 0.93095 0.06291 0.52266 0.0
C506 C 0.88686 0.10691 0.50719 0.0
C507 C 0.89969 0.10043 0.59201 0.0
C508 C 0.92163 0.07866 0.59961 0.0
C509 C 0.91664 0.0676 0.43956 0.0
C510 C 0.89467 0.08936 0.43184 0.0
C511 C 0.95722 0.04368 0.52677 0.0
H512 H 0.13533 0.9207 0.82264 0.0
H513 H 0.09896 0.96069 0.80674 0.0
H514 H 0.11185 0.98462 0.08713 0.0
H515 H 0.14776 0.94436 0.10437 0.0
H516 H 0.89395 0.11333 0.65145 0.0
H517 H 0.93234 0.07513 0.66454 0.0
H518 H 0.92352 0.05554 0.37955 0.0
H519 H 0.88551 0.09391 0.36532 0.0
Tb520 Tb 0.52614 0.03728 0.81641 0.0
Eu521 Eu 0.5082 0.99341 0.64607 0.0
C522 C 0.5179 0.06414 0.61409 0.0
C523 C 0.45838 1.01801 0.78723 0.0
C524 C 0.55834 0.09985 0.94597 0.0
C525 C 0.595 0.13239 0.87722 0.0
C526 C 0.57374 0.10996 0.86906 0.0
C527 C 0.56281 0.11383 0.02963 0.0
C528 C 0.58404 0.13627 0.0379 0.0
C529 C 0.60128 0.14492 0.96254 0.0
C530 C 0.53967 0.0732 0.94115 0.0
O531 O 0.53032 0.99252 0.8765 0.0
O532 O 0.50375 0.96547 0.77291 0.0
O533 O 0.55844 0.99509 0.64274 0.0
O534 O 0.56722 0.03499 0.73585 0.0
C535 C 0.51653 0.9679 0.85262 0.0
O536 O 0.51593 0.95142 0.57703 0.0
O537 O 0.482 0.98127 0.52709 0.0
O538 O 0.51741 0.03756 0.57721 0.0
O539 O 0.51685 0.06778 0.70301 0.0
O540 O 0.47971 0.02546 0.84378 0.0
O541 O 0.46432 1.00983 0.70329 0.0
C542 C 0.57637 1.01545 0.67538 0.0
O543 O 0.51575 0.07538 0.89206 0.0
O544 O 0.55381 0.0485 0.92536 0.0
C545 C 0.47289 0.9299 0.51615 0.0
C546 C 0.42884 0.88564 0.50284 0.0
C547 C 0.43625 0.89791 0.58767 0.0
C548 C 0.458 0.91994 0.59418 0.0
C549 C 0.46696 0.91653 0.43244 0.0
C550 C 0.44515 0.89457 0.42573 0.0
C551 C 0.4938 0.95488 0.52118 0.0
H552 H 0.60771 0.13874 0.8178 0.0
H553 H 0.57037 0.09951 0.80368 0.0
H554 H 0.55099 0.10633 0.08958 0.0
H555 H 0.58849 0.14517 0.10477 0.0
H556 H 0.4244 0.89135 0.6485 0.0
H557 H 0.46252 0.92986 0.65965 0.0
H558 H 0.47842 0.92384 0.37164 0.0
H559 H 0.43986 0.88601 0.35905 0.0
Tb560 Tb 0.49753 0.52929 0.83866 0.0
Eu561 Eu 0.5436 0.51355 0.66925 0.0
C562 C 0.47283 0.52118 0.63356 0.0
C563 C 0.52028 0.46247 0.81039 0.0
C564 C 0.43287 0.5598 0.96387 0.0
C565 C 0.39913 0.59466 0.89204 0.0
C566 C 0.42192 0.57369 0.88548 0.0
C567 C 0.41957 0.56566 0.04787 0.0
C568 C 0.39686 0.58664 0.05461 0.0
C569 C 0.38712 0.60227 0.97723 0.0
C570 C 0.45968 0.54131 0.96003 0.0
O571 O 0.54116 0.53167 0.9064 0.0
O572 O 0.57177 0.51262 0.79571 0.0
O573 O 0.53821 0.56342 0.65962 0.0
O574 O 0.50203 0.572 0.76729 0.0
C575 C 0.56731 0.52181 0.87925 0.0
O576 O 0.58564 0.52248 0.60121 0.0
O577 O 0.55681 0.48781 0.55039 0.0
O578 O 0.49976 0.52156 0.59898 0.0
O579 O 0.4683 0.5198 0.7221 0.0
O580 O 0.51057 0.48322 0.8658 0.0
O581 O 0.52938 0.4689 0.72747 0.0
C582 C 0.5195 0.58127 0.70094 0.0
O583 O 0.45836 0.51794 0.90824 0.0
O584 O 0.48449 0.55574 0.94878 0.0
C585 C 0.60837 0.48013 0.5393 0.0
C586 C 0.65266 0.43623 0.52456 0.0
C587 C 0.64105 0.44407 0.61002 0.0
C588 C 0.61897 0.46573 0.61724 0.0
C589 C 0.62127 0.47396 0.45492 0.0
C590 C 0.64327 0.45223 0.44749 0.0
C591 C 0.58288 0.50037 0.54487 0.0
H592 H 0.39195 0.60596 0.83099 0.0
H593 H 0.43187 0.56928 0.81985 0.0
H594 H 0.42774 0.55509 0.10904 0.0
H595 H 0.38852 0.59209 0.12154 0.0
H596 H 0.64801 0.43249 0.67082 0.0
H597 H 0.6094 0.47044 0.68319 0.0
H598 H 0.61346 0.48502 0.39414 0.0
H599 H 0.65137 0.44663 0.3804 0.0
Tb600 Tb 1.0082 0.49093 0.84492 0.0
Eu601 Eu 0.02391 0.53927 0.68281 0.0
C602 C 0.01826 0.46837 0.63901 0.0
C603 C 0.0747 0.51582 0.82616 0.0
C604 C 0.97324 0.42786 0.96642 0.0
C605 C 0.93535 0.39782 0.89391 0.0
C606 C 0.95772 0.41926 0.8883 0.0
C607 C 0.9673 0.41367 0.04908 0.0
C608 C 0.94486 0.39231 0.05491 0.0
C609 C 0.92792 0.38482 0.97794 0.0
C610 C 0.99451 0.45256 0.96317 0.0
O611 O 1.01667 0.53251 0.91834 0.0
O612 O 1.00941 0.56651 0.80456 0.0
O613 O 0.97691 0.5251 0.65215 0.0
O614 O 0.96454 0.50403 0.78943 0.0
C615 C 1.01296 0.56012 0.89103 0.0
O616 O 1.01432 0.58113 0.61367 0.0
O617 O 0.0514 0.55416 0.56987 0.0
O618 O 0.02833 0.49449 0.61287 0.0
O619 O 1.00782 0.46392 0.72147 0.0
O620 O 0.05681 0.49448 0.85402 0.0
O621 O 0.06588 0.53604 0.76742 0.0
C622 C 0.95707 0.5138 0.70783 0.0
O623 O 1.01633 0.4496 0.90578 0.0
O624 O 0.98295 0.47906 0.95947 0.0
C625 C 0.05709 0.60575 0.55939 0.0
C626 C 0.10182 0.64921 0.54512 0.0
C627 C 0.09595 0.63525 0.62884 0.0
C628 C 0.07381 0.61362 0.63584 0.0
C629 C 0.06119 0.62122 0.47778 0.0
C630 C 0.08331 0.64288 0.47068 0.0
C631 C 0.03772 0.57953 0.5617 0.0
H632 H 0.92305 0.39234 0.83313 0.0
H633 H 0.96221 0.42987 0.82363 0.0
H634 H 0.97918 0.41995 0.10996 0.0
H635 H 0.93961 0.38316 0.12106 0.0
H636 H 0.10959 0.63984 0.68761 0.0
H637 H 0.07079 0.60196 0.6996 0.0
H638 H 0.04842 0.61543 0.41815 0.0
H639 H 0.08735 0.65294 0.40494 0.0
C640 C 0.116 0.02175 0.40087 0.0
C641 C 0.14217 1.00798 0.43222 0.0
H642 H 0.07155 0.03626 0.43262 0.0
C643 C 0.14353 1.00028 0.52486 0.0
H644 H 0.11399 0.02791 0.33007 0.0
C645 C 0.11937 1.00496 0.58327 0.0
C646 C 0.0927 1.0176 0.55182 0.0
H647 H 0.16334 0.99013 0.55245 0.0
H648 H 0.12159 0.99805 0.65339 0.0
C649 C 0.09156 0.02641 0.45978 0.0
C650 C 0.52351 0.1148 0.40346 0.0
C651 C 0.531 0.14244 0.44186 0.0
H652 H 0.51383 0.06858 0.42638 0.0
C653 C 0.53251 0.14415 0.53733 0.0
H654 H 0.52238 0.11242 0.33042 0.0
C655 C 0.52744 0.11913 0.5924 0.0
C656 C 0.52093 0.09122 0.55426 0.0
H657 H 0.53797 0.16498 0.56985 0.0
H658 H 0.5294 0.1216 0.66526 0.0
C659 C 0.51878 0.08954 0.45874 0.0
C660 C 0.42632 0.53531 0.41969 0.0
C661 C 0.39709 0.53537 0.45351 0.0
H662 H 0.47274 0.53045 0.44835 0.0
C663 C 0.39282 0.52852 0.54589 0.0
H664 H 0.43049 0.54133 0.34959 0.0
C665 C 0.41715 0.52281 0.60352 0.0
C666 C 0.44657 0.52377 0.57049 0.0
H667 H 0.37072 0.52929 0.57481 0.0
H668 H 0.4129 0.51873 0.67484 0.0
C669 C 0.45062 0.52934 0.47694 0.0
C670 C 1.005 0.3909 0.54082 0.0
C671 C 1.00572 0.39591 0.44661 0.0
H672 H 1.00843 0.40933 0.67447 0.0
C673 C 1.01309 0.42457 0.41575 0.0
H674 H 0.99854 0.36935 0.56692 0.0
C675 C 0.01877 0.44779 0.47769 0.0
C676 C 1.01658 0.4431 0.57225 0.0
H677 H 1.01288 0.42942 0.34371 0.0
H678 H 0.02331 0.46976 0.45129 0.0
C679 C 1.01033 0.41405 0.60258 0.0
C680 C 0.92726 0.03362 0.07451 0.0
C681 C 0.89769 0.03135 0.04484 0.0
H682 H 0.97349 0.03049 0.04055 0.0
C683 C 0.89261 0.02175 0.95539 0.0
H684 H 0.93197 0.04171 0.14218 0.0
C685 C 0.91648 1.01586 0.89601 0.0
C686 C 0.94617 0.01932 0.92446 0.0
H687 H 0.87016 0.0206 0.92955 0.0
H688 H 0.91158 1.00972 0.8266 0.0
C689 C 0.95111 0.02743 1.01563 0.0
C690 C 0.51801 0.91958 0.06962 0.0
C691 C 0.504 0.8933 0.04007 0.0
H692 H 0.53291 0.96372 0.03504 0.0
C693 C 0.49624 0.89148 0.9476 0.0
H694 H 0.52426 0.92199 0.14016 0.0
C695 C 0.50103 0.91526 0.88778 0.0
C696 C 0.51395 0.94201 0.91745 0.0
H697 H 0.48601 0.87155 0.92111 0.0
H698 H 0.49409 0.91269 0.81789 0.0
C699 C 0.52286 0.94362 1.00922 0.0
C700 C 0.61398 0.52023 0.09914 0.0
C701 C 0.64121 0.50871 0.06766 0.0
H702 H 0.56922 0.53328 0.06568 0.0
C703 C 0.64421 0.50382 0.9737 0.0
H704 H 0.61072 0.52414 0.17098 0.0
C705 C 0.62065 0.509 0.91371 0.0
C706 C 0.59291 0.51927 0.94489 0.0
H707 H 0.66485 0.49535 0.94631 0.0
H708 H 0.62416 0.50421 0.84248 0.0
C709 C 0.5901 0.52534 0.03862 0.0
C710 C 0.03268 0.60338 0.10623 0.0
C711 C 0.02843 0.63308 0.07943 0.0
H712 H 0.03081 0.55735 0.06957 0.0
C713 C 1.01628 0.63843 0.99305 0.0
H714 H 0.04262 0.59848 0.17145 0.0
C715 C 1.01003 0.6148 0.93338 0.0
C716 C 1.01558 0.58507 0.95859 0.0
H717 H 1.01347 0.66101 0.96929 0.0
H718 H 1.00195 0.61996 0.866 0.0
C719 C 0.02611 0.57975 0.0472 0.0
C720 C 0.83764 0.1647 0.39753 0.0
C721 C 0.85261 0.19089 0.42343 0.0
H722 H 0.83687 0.1171 0.40316 0.0
C723 C 0.87315 0.18889 0.49531 0.0
H724 H 0.82054 0.16511 0.3461 0.0
C725 C 0.88183 0.16142 0.52953 0.0
C726 C 0.87035 0.1351 0.49292 0.0
H727 H 0.88533 0.20803 0.519 0.0
H728 H 0.89993 0.16089 0.57774 0.0
C729 C 0.84681 0.13702 0.43073 0.0
C730 C 0.37118 0.83692 0.39237 0.0
C731 C 0.34518 0.85029 0.42607 0.0
H732 H 0.41875 0.83749 0.39103 0.0
C733 C 0.34737 0.86836 0.50346 0.0
H734 H 0.37015 0.82215 0.33457 0.0
C735 C 0.37507 0.87722 0.53554 0.0
C736 C 0.40116 0.86798 0.49137 0.0
H737 H 0.32793 0.87901 0.53185 0.0
H738 H 0.37571 0.89403 0.58788 0.0
C739 C 0.39902 0.84589 0.42429 0.0
C740 C 0.69955 0.3774 0.41223 0.0
C741 C 0.68607 0.35175 0.44819 0.0
H742 H 0.69972 0.42496 0.40906 0.0
C743 C 0.66862 0.35456 0.52692 0.0
H744 H 0.7139 0.3759 0.3534 0.0
C745 C 0.66051 0.38252 0.55869 0.0
C746 C 0.66983 0.40827 0.51278 0.0
H747 H 0.65789 0.33542 0.55711 0.0
H748 H 0.64413 0.38363 0.61245 0.0
C749 C 0.6913 0.4055 0.44381 0.0
C750 C 0.15939 0.69894 0.43581 0.0
C751 C 0.18554 0.68324 0.45762 0.0
H752 H 0.1119 0.70039 0.44601 0.0
C753 C 0.18393 0.66172 0.52701 0.0
H754 H 0.15966 0.71663 0.38603 0.0
C755 C 0.15665 0.65299 0.56276 0.0
C756 C 0.13018 0.66541 0.53011 0.0
H757 H 0.20315 0.64895 0.54702 0.0
H758 H 0.15627 0.63421 0.60874 0.0
C759 C 0.1319 0.68977 0.47056 0.0
C760 C 0.19324 0.87142 0.07642 0.0
C761 C 0.17745 0.84531 0.05479 0.0
H762 H 0.19508 0.91889 0.0653 0.0
C763 C 0.15584 0.84705 0.98583 0.0
H764 H 0.21102 0.87113 0.12564 0.0
C765 C 0.14734 0.8743 0.94981 0.0
C766 C 0.16001 0.9007 0.9817 0.0
H767 H 0.14287 0.82799 0.96578 0.0
H768 H 0.1286 0.87473 0.90389 0.0
C769 C 0.18427 0.89892 0.04135 0.0
C770 C 0.65803 0.19466 0.07423 0.0
C771 C 0.68449 0.18024 0.04778 0.0
H772 H 0.61044 0.19468 0.0684 0.0
C773 C 0.68291 0.16 0.97494 0.0
H774 H 0.65808 0.21153 0.12634 0.0
C775 C 0.65564 0.15108 0.94013 0.0
C776 C 0.62912 0.16194 0.97718 0.0
H777 H 0.70222 0.14822 0.95065 0.0
H778 H 0.65546 0.1332 0.8911 0.0
C779 C 0.63057 0.18521 0.04045 0.0
C780 C 0.33838 0.6597 0.08905 0.0
C781 C 0.35097 0.68577 0.05272 0.0
H782 H 0.33977 0.61218 0.09286 0.0
C783 C 0.36848 0.68344 0.97394 0.0
H784 H 0.3241 0.66073 0.14819 0.0
C785 C 0.3775 0.65571 0.94242 0.0
C786 C 0.36905 0.6297 0.98862 0.0
H787 H 0.37854 0.7029 0.94357 0.0
H788 H 0.39389 0.65507 0.88862 0.0
C789 C 0.34753 0.63186 0.05771 0.0
C790 C 0.86922 0.33658 0.08675 0.0
C791 C 0.84347 0.35077 0.05454 0.0
H792 H 0.91677 0.33607 0.08694 0.0
C793 C 0.84597 0.36958 0.9787 0.0
H794 H 0.86794 0.32131 0.14344 0.0
C795 C 0.87383 0.37813 0.94664 0.0
C796 C 0.89976 0.36785 0.98927 0.0
H797 H 0.82672 0.3809 0.95168 0.0
H798 H 0.87477 0.39542 0.89559 0.0
C799 C 0.8972 0.34523 0.05484 0.0
C800 C 0.9905 0.15605 0.85376 0.0
C801 C 1.00774 0.16444 0.92939 0.0
H802 H 0.98026 0.12303 0.75412 0.0
C803 C 0.03051 0.14495 0.95674 0.0
H804 H 0.97302 0.17046 0.82933 0.0
C805 C 0.03479 0.11738 0.91278 0.0
C806 C 1.01648 0.10847 0.83993 0.0
H807 H 0.04413 0.15035 1.01487 0.0
H808 H 0.05182 0.10261 0.93807 0.0
C809 C 0.99472 0.12866 0.81014 0.0
C810 C 0.3753 1.00078 0.80097 0.0
C811 C 0.36862 1.006 0.89318 0.0
H812 H 0.40818 1.00042 0.6955 0.0
C813 C 0.39101 0.01837 0.94774 0.0
H814 H 0.35871 0.99113 0.75684 0.0
C815 C 0.41973 0.02348 0.91259 0.0
C816 C 0.42689 1.01647 0.82167 0.0
H817 H 0.38693 0.0222 1.01925 0.0
H818 H 0.43667 0.03175 0.95802 0.0
C819 C 0.40387 1.00595 0.7658 0.0
C820 C 0.54046 0.37997 0.82507 0.0
C821 C 0.5347 0.37296 0.9169 0.0
H822 H 0.54056 0.41297 0.71984 0.0
C823 C 0.5213 0.39496 0.97087 0.0
H824 H 0.55061 0.36368 0.78091 0.0
C825 C 0.51557 0.42356 0.9356 0.0
C826 C 0.52296 0.43104 0.84508 0.0
H827 H 0.51687 0.39066 0.04198 0.0
H828 H 0.50637 0.44015 0.98062 0.0
C829 C 0.53473 0.40844 0.78985 0.0
C830 C 0.14255 0.50501 0.98206 0.0
C831 C 0.16133 0.52843 0.95487 0.0
H832 H 0.10074 0.48261 0.9639 0.0
C833 C 0.15228 0.54574 0.87992 0.0
H834 H 0.14846 0.49131 0.03971 0.0
C835 C 0.12491 0.54092 0.8368 0.0
C836 C 0.10539 0.51848 0.86651 0.0
H837 H 0.16614 0.56374 0.85576 0.0
H838 H 0.11874 0.55545 0.78134 0.0
C839 C 0.11498 0.50014 0.93868 0.0
C840 C 1.00811 0.89129 0.52921 0.0
C841 C 0.02908 0.87139 0.56523 0.0
H842 H 0.98852 0.9347 0.53527 0.0
C843 C 0.04486 0.88036 0.64326 0.0
H844 H 0.99581 0.88546 0.46874 0.0
C845 C 0.04057 0.9086 0.68209 0.0
C846 C 0.02067 0.92909 0.64338 0.0
H847 H 0.06123 0.86573 0.67309 0.0
H848 H 0.05379 0.91479 0.74038 0.0
C849 C 1.00415 0.91974 0.56717 0.0
C850 C 0.65471 0.04456 0.62755 0.0
C851 C 0.66407 0.02726 0.55298 0.0
H852 H 0.62046 0.05453 0.72407 0.0
C853 C 0.64526 1.00412 0.52456 0.0
H854 H 0.6686 0.06236 0.65252 0.0
C855 C 0.61736 0.99955 0.56615 0.0
C856 C 0.60742 1.0179 0.63772 0.0
H857 H 0.65141 0.99048 0.46712 0.0
H858 H 0.60314 0.98222 0.5399 0.0
C859 C 0.62694 0.04001 0.66898 0.0
C860 C 0.49488 0.66234 0.68454 0.0
C861 C 0.50333 0.67051 0.59553 0.0
H862 H 0.49292 0.6284 0.7867 0.0
C863 C 0.52039 0.65003 0.5456 0.0
H864 H 0.48208 0.67749 0.72602 0.0
C865 C 0.52693 0.62163 0.58126 0.0
C866 C 0.51644 0.61279 0.66768 0.0
H867 H 0.52705 0.65521 0.4767 0.0
H868 H 0.53891 0.60607 0.53897 0.0
C869 C 0.50106 0.63398 0.71958 0.0
C870 C 0.88805 0.51464 0.55425 0.0
C871 C 0.86702 0.49908 0.60667 0.0
H872 H 0.93261 0.53133 0.544 0.0
C873 C 0.87511 0.49113 0.69608 0.0
H874 H 0.88294 0.52074 0.48488 0.0
C875 C 0.90373 0.49689 0.72996 0.0
C876 C 0.9254 0.51085 0.67573 0.0
H877 H 0.85961 0.47916 0.73886 0.0
H878 H 0.90916 0.48933 0.79773 0.0
C879 C 0.91678 0.52038 0.58813 0.0
loop_
_geom_bond_atom_site_label_1
_geom_bond_atom_site_label_2
_geom_bond_distance
_geom_bond_site_symmetry_2
_ccdc_geom_bond_type
C0 C1 1.391 . S
C0 C4 1.391 . S
C0 H42 0.948 . S
C1 C0 1.391 . S
C1 C2 1.391 . S
C2 C1 1.391 . S
C2 H58 0.947 . S
C2 C59 1.392 . S
C3 C4 1.391 . S
C3 C7 1.397 . S
C3 C59 1.419 . S
C4 C0 1.391 . S
C4 C3 1.391 . S
C4 C5 1.399 . S
C5 C4 1.399 . S
C5 C8 1.396 . S
C5 C17 1.453 . S
C5 C18 1.684 . S
H6 C30 0.948 . S
C7 C3 1.397 . S
C7 C8 1.394 . S
C7 C26 1.723 . S
C8 C5 1.396 . S
C8 C7 1.394 . S
C8 C38 1.723 . S
H9 C32 0.947 . S
H10 C33 0.948 . S
H11 C39 0.982 . S
H12 C40 0.979 . S
H13 C40 0.980 . S
H14 C40 0.983 . S
H15 C39 0.979 . S
H16 C39 0.977 . S
C17 C5 1.453 . S
C17 H46 0.982 . S
C17 H47 0.979 . S
C17 H48 0.977 . S
C18 C5 1.684 . S
C18 H43 0.979 . S
C18 H44 0.980 . S
C18 H45 0.983 . S
C19 C20 1.391 . S
C19 C24 1.391 . S
C19 H49 0.948 . S
C20 C19 1.391 . S
C20 C21 1.391 . S
C21 C20 1.391 . S
C21 C22 1.392 . S
C21 H50 0.947 . S
C22 C21 1.392 . S
C22 C23 1.419 . S
C22 H51 0.948 . S
C23 C22 1.419 . S
C23 C24 1.391 . S
C23 C27 1.397 . S
C24 C19 1.391 . S
C24 C23 1.391 . S
C24 C25 1.399 . S
C25 C24 1.399 . S
C25 C26 1.396 . S
C25 C28 1.453 . S
C25 C29 1.684 . S
C26 C7 1.723 . S
C26 C25 1.396 . S
C26 C27 1.394 . S
C27 C23 1.397 . S
C27 C26 1.394 . S
C27 C37 1.723 . S
C28 C25 1.453 . S
C28 H52 0.982 . S
C28 H53 0.979 . S
C28 H54 0.977 . S
C29 C25 1.684 . S
C29 H55 0.979 . S
C29 H56 0.980 . S
C29 H57 0.983 . S
C30 H6 0.948 . S
C30 C31 1.391 . S
C30 C35 1.391 . S
C31 C30 1.391 . S
C31 C32 1.391 . S
C32 H9 0.947 . S
C32 C31 1.391 . S
C32 C33 1.392 . S
C33 H10 0.948 . S
C33 C32 1.392 . S
C33 C34 1.419 . S
C34 C33 1.419 . S
C34 C35 1.391 . S
C34 C38 1.397 . S
C35 C30 1.391 . S
C35 C34 1.391 . S
C35 C36 1.399 . S
C36 C35 1.399 . S
C36 C37 1.396 . S
C36 C39 1.453 . S
C36 C40 1.684 . S
C37 C27 1.723 . S
C37 C36 1.396 . S
C37 C38 1.394 . S
C38 C8 1.723 . S
C38 C34 1.397 . S
C38 C37 1.394 . S
C39 H11 0.982 . S
C39 H15 0.979 . S
C39 H16 0.977 . S
C39 C36 1.453 . S
C40 H12 0.979 . S
C40 H13 0.980 . S
C40 H14 0.983 . S
C40 C36 1.684 . S
H41 C59 0.948 . S
H42 C0 0.948 . S
H43 C18 0.979 . S
H44 C18 0.980 . S
H45 C18 0.983 . S
H46 C17 0.982 . S
H47 C17 0.979 . S
H48 C17 0.977 . S
H49 C19 0.948 . S
H50 C21 0.947 . S
H51 C22 0.948 . S
H52 C28 0.982 . S
H53 C28 0.979 . S
H54 C28 0.977 . S
H55 C29 0.979 . S
H56 C29 0.980 . S
H57 C29 0.983 . S
H58 C2 0.947 . S
C59 C2 1.392 . S
C59 C3 1.419 . S
C59 H41 0.948 . S
C60 C61 1.391 . S
C60 C64 1.391 . S
C60 H102 0.948 . S
C61 C60 1.391 . S
C61 C62 1.391 . S
C62 C61 1.391 . S
C62 H118 0.947 . S
C62 C119 1.392 . S
C63 C64 1.391 . S
C63 C67 1.397 1_655 S
C63 C119 1.419 . S
C64 C60 1.391 . S
C64 C63 1.391 . S
C64 C65 1.399 . S
C65 C64 1.399 . S
C65 C68 1.396 1_655 S
C65 C77 1.453 1_655 S
C65 C78 1.684 . S
H66 C90 0.948 . S
C67 C63 1.397 1_455 S
C67 C68 1.394 . S
C67 C86 1.723 . S
C68 C65 1.396 1_455 S
C68 C67 1.394 . S
C68 C98 1.723 . S
H69 C92 0.947 . S
H70 C93 0.948 . S
H71 C99 0.982 . S
H72 C100 0.979 . S
H73 C100 0.980 . S
H74 C100 0.983 . S
H75 C99 0.979 . S
H76 C99 0.977 . S
C77 C65 1.453 1_455 S
C77 H106 0.982 . S
C77 H107 0.979 . S
C77 H108 0.977 . S
C78 C65 1.684 . S
C78 H103 0.979 . S
C78 H104 0.980 . S
C78 H105 0.983 . S
C79 C80 1.391 . S
C79 C84 1.391 . S
C79 H109 0.948 . S
C80 C79 1.391 . S
C80 C81 1.391 . S
C81 C80 1.391 . S
C81 C82 1.392 . S
C81 H110 0.947 . S
C82 C81 1.392 . S
C82 C83 1.419 . S
C82 H111 0.948 . S
C83 C82 1.419 . S
C83 C84 1.391 . S
C83 C87 1.397 1_655 S
C84 C79 1.391 . S
C84 C83 1.391 . S
C84 C85 1.399 . S
C85 C84 1.399 . S
C85 C86 1.396 1_655 S
C85 C88 1.453 1_655 S
C85 C89 1.684 . S
C86 C67 1.723 . S
C86 C85 1.396 1_455 S
C86 C87 1.394 . S
C87 C83 1.397 1_455 S
C87 C86 1.394 . S
C87 C97 1.723 . S
C88 C85 1.453 1_455 S
C88 H112 0.982 . S
C88 H113 0.979 . S
C88 H114 0.977 . S
C89 C85 1.684 . S
C89 H115 0.979 . S
C89 H116 0.980 . S
C89 H117 0.983 . S
C90 H66 0.948 . S
C90 C91 1.391 . S
C90 C95 1.391 . S
C91 C90 1.391 . S
C91 C92 1.391 . S
C92 H69 0.947 . S
C92 C91 1.391 . S
C92 C93 1.392 . S
C93 H70 0.948 . S
C93 C92 1.392 . S
C93 C94 1.419 . S
C94 C93 1.419 . S
C94 C95 1.391 . S
C94 C98 1.397 1_655 S
C95 C90 1.391 . S
C95 C94 1.391 . S
C95 C96 1.399 . S
C96 C95 1.399 . S
C96 C97 1.396 1_655 S
C96 C99 1.453 1_655 S
C96 C100 1.684 . S
C97 C87 1.723 . S
C97 C96 1.396 1_455 S
C97 C98 1.394 . S
C98 C68 1.723 . S
C98 C94 1.397 1_455 S
C98 C97 1.394 . S
C99 H71 0.982 . S
C99 H75 0.979 . S
C99 H76 0.977 . S
C99 C96 1.453 1_455 S
C100 H72 0.979 . S
C100 H73 0.980 . S
C100 H74 0.983 . S
C100 C96 1.684 . S
H101 C119 0.948 . S
H102 C60 0.948 . S
H103 C78 0.979 . S
H104 C78 0.980 . S
H105 C78 0.983 . S
H106 C77 0.982 . S
H107 C77 0.979 . S
H108 C77 0.977 . S
H109 C79 0.948 . S
H110 C81 0.947 . S
H111 C82 0.948 . S
H112 C88 0.982 . S
H113 C88 0.979 . S
H114 C88 0.977 . S
H115 C89 0.979 . S
H116 C89 0.980 . S
H117 C89 0.983 . S
H118 C62 0.947 . S
C119 C62 1.392 . S
C119 C63 1.419 . S
C119 H101 0.948 . S
C120 C121 1.391 . S
C120 C124 1.391 . S
C120 H162 0.948 . S
C121 C120 1.391 . S
C121 C122 1.391 . S
C122 C121 1.391 . S
C122 H178 0.947 . S
C122 C179 1.392 . S
C123 C124 1.391 . S
C123 C127 1.397 1_565 S
C123 C179 1.419 . S
C124 C120 1.391 . S
C124 C123 1.391 . S
C124 C125 1.399 . S
C125 C124 1.399 . S
C125 C128 1.396 1_565 S
C125 C137 1.453 1_565 S
C125 C138 1.684 . S
H126 C150 0.948 . S
C127 C123 1.397 1_545 S
C127 C128 1.394 . S
C127 C146 1.723 . S
C128 C125 1.396 1_545 S
C128 C127 1.394 . S
C128 C158 1.723 . S
H129 C152 0.947 . S
H130 C153 0.948 . S
H131 C159 0.982 . S
H132 C160 0.979 . S
H133 C160 0.980 . S
H134 C160 0.983 . S
H135 C159 0.979 . S
H136 C159 0.977 . S
C137 C125 1.453 1_545 S
C137 H166 0.982 . S
C137 H167 0.979 . S
C137 H168 0.977 . S
C138 C125 1.684 . S
C138 H163 0.979 . S
C138 H164 0.980 . S
C138 H165 0.983 . S
C139 C140 1.391 . S
C139 C144 1.391 . S
C139 H169 0.948 . S
C140 C139 1.391 . S
C140 C141 1.391 . S
C141 C140 1.391 . S
C141 C142 1.392 . S
C141 H170 0.947 . S
C142 C141 1.392 . S
C142 C143 1.419 . S
C142 H171 0.948 . S
C143 C142 1.419 . S
C143 C144 1.391 . S
C143 C147 1.397 1_565 S
C144 C139 1.391 . S
C144 C143 1.391 . S
C144 C145 1.399 . S
C145 C144 1.399 . S
C145 C146 1.396 1_565 S
C145 C148 1.453 1_565 S
C145 C149 1.684 . S
C146 C127 1.723 . S
C146 C145 1.396 1_545 S
C146 C147 1.394 . S
C147 C143 1.397 1_545 S
C147 C146 1.394 . S
C147 C157 1.723 . S
C148 C145 1.453 1_545 S
C148 H172 0.982 . S
C148 H173 0.979 . S
C148 H174 0.977 . S
C149 C145 1.684 . S
C149 H175 0.979 . S
C149 H176 0.980 . S
C149 H177 0.983 . S
C150 H126 0.948 . S
C150 C151 1.391 . S
C150 C155 1.391 . S
C151 C150 1.391 . S
C151 C152 1.391 . S
C152 H129 0.947 . S
C152 C151 1.391 . S
C152 C153 1.392 . S
C153 H130 0.948 . S
C153 C152 1.392 . S
C153 C154 1.419 . S
C154 C153 1.419 . S
C154 C155 1.391 . S
C154 C158 1.397 1_565 S
C155 C150 1.391 . S
C155 C154 1.391 . S
C155 C156 1.399 . S
C156 C155 1.399 . S
C156 C157 1.396 1_565 S
C156 C159 1.453 1_565 S
C156 C160 1.684 . S
C157 C147 1.723 . S
C157 C156 1.396 1_545 S
C157 C158 1.394 . S
C158 C128 1.723 . S
C158 C154 1.397 1_545 S
C158 C157 1.394 . S
C159 H131 0.982 . S
C159 H135 0.979 . S
C159 H136 0.977 . S
C159 C156 1.453 1_545 S
C160 H132 0.979 . S
C160 H133 0.980 . S
C160 H134 0.983 . S
C160 C156 1.684 . S
H161 C179 0.948 . S
H162 C120 0.948 . S
H163 C138 0.979 . S
H164 C138 0.980 . S
H165 C138 0.983 . S
H166 C137 0.982 . S
H167 C137 0.979 . S
H168 C137 0.977 . S
H169 C139 0.948 . S
H170 C141 0.947 . S
H171 C142 0.948 . S
H172 C148 0.982 . S
H173 C148 0.979 . S
H174 C148 0.977 . S
H175 C149 0.979 . S
H176 C149 0.980 . S
H177 C149 0.983 . S
H178 C122 0.947 . S
C179 C122 1.392 . S
C179 C123 1.419 . S
C179 H161 0.948 . S
C180 C181 1.391 . S
C180 C184 1.391 . S
C180 H222 0.948 . S
C181 C180 1.391 . S
C181 C182 1.391 . S
C182 C181 1.391 . S
C182 H238 0.947 . S
C182 C239 1.392 . S
C183 C184 1.391 . S
C183 C187 1.397 . S
C183 C239 1.419 . S
C184 C180 1.391 . S
C184 C183 1.391 . S
C184 C185 1.399 . S
C185 C184 1.399 . S
C185 C188 1.396 . S
C185 C197 1.453 . S
C185 C198 1.684 . S
H186 C210 0.948 . S
C187 C183 1.397 . S
C187 C188 1.394 . S
C187 C206 1.723 . S
C188 C185 1.396 . S
C188 C187 1.394 . S
C188 C218 1.723 . S
H189 C212 0.947 . S
H190 C213 0.948 . S
H191 C219 0.982 . S
H192 C220 0.979 . S
H193 C220 0.980 . S
H194 C220 0.983 . S
H195 C219 0.979 . S
H196 C219 0.977 . S
C197 C185 1.453 . S
C197 H226 0.982 . S
C197 H227 0.979 . S
C197 H228 0.977 . S
C198 C185 1.684 . S
C198 H223 0.979 . S
C198 H224 0.980 . S
C198 H225 0.983 . S
C199 C200 1.391 . S
C199 C204 1.391 . S
C199 H229 0.948 . S
C200 C199 1.391 . S
C200 C201 1.391 . S
C201 C200 1.391 . S
C201 C202 1.392 . S
C201 H230 0.947 . S
C202 C201 1.392 . S
C202 C203 1.419 . S
C202 H231 0.948 . S
C203 C202 1.419 . S
C203 C204 1.391 . S
C203 C207 1.397 . S
C204 C199 1.391 . S
C204 C203 1.391 . S
C204 C205 1.399 . S
C205 C204 1.399 . S
C205 C206 1.396 . S
C205 C208 1.453 . S
C205 C209 1.684 . S
C206 C187 1.723 . S
C206 C205 1.396 . S
C206 C207 1.394 . S
C207 C203 1.397 . S
C207 C206 1.394 . S
C207 C217 1.723 . S
C208 C205 1.453 . S
C208 H232 0.982 . S
C208 H233 0.979 . S
C208 H234 0.977 . S
C209 C205 1.684 . S
C209 H235 0.979 . S
C209 H236 0.980 . S
C209 H237 0.983 . S
C210 H186 0.948 . S
C210 C211 1.391 . S
C210 C215 1.391 . S
C211 C210 1.391 . S
C211 C212 1.391 . S
C212 H189 0.947 . S
C212 C211 1.391 . S
C212 C213 1.392 . S
C213 H190 0.948 . S
C213 C212 1.392 . S
C213 C214 1.419 . S
C214 C213 1.419 . S
C214 C215 1.391 . S
C214 C218 1.397 . S
C215 C210 1.391 . S
C215 C214 1.391 . S
C215 C216 1.399 . S
C216 C215 1.399 . S
C216 C217 1.396 . S
C216 C219 1.453 . S
C216 C220 1.684 . S
C217 C207 1.723 . S
C217 C216 1.396 . S
C217 C218 1.394 . S
C218 C188 1.723 . S
C218 C214 1.397 . S
C218 C217 1.394 . S
C219 H191 0.982 . S
C219 H195 0.979 . S
C219 H196 0.977 . S
C219 C216 1.453 . S
C220 H192 0.979 . S
C220 H193 0.980 . S
C220 H194 0.983 . S
C220 C216 1.684 . S
H221 C239 0.948 . S
H222 C180 0.948 . S
H223 C198 0.979 . S
H224 C198 0.980 . S
H225 C198 0.983 . S
H226 C197 0.982 . S
H227 C197 0.979 . S
H228 C197 0.977 . S
H229 C199 0.948 . S
H230 C201 0.947 . S
H231 C202 0.948 . S
H232 C208 0.982 . S
H233 C208 0.979 . S
H234 C208 0.977 . S
H235 C209 0.979 . S
H236 C209 0.980 . S
H237 C209 0.983 . S
H238 C182 0.947 . S
C239 C182 1.392 . S
C239 C183 1.419 . S
C239 H221 0.948 . S
C240 C241 1.391 . S
C240 C244 1.391 . S
C240 H282 0.948 . S
C241 C240 1.391 . S
C241 C242 1.391 . S
C242 C241 1.391 . S
C242 H298 0.947 . S
C242 C299 1.392 . S
C243 C244 1.391 . S
C243 C247 1.397 . S
C243 C299 1.419 . S
C244 C240 1.391 . S
C244 C243 1.391 . S
C244 C245 1.399 1_554 S
C245 C244 1.399 1_556 S
C245 C248 1.396 . S
C245 C257 1.453 . S
C245 C258 1.684 . S
H246 C270 0.948 . S
C247 C243 1.397 . S
C247 C248 1.394 1_554 S
C247 C266 1.723 . S
C248 C245 1.396 . S
C248 C247 1.394 1_556 S
C248 C278 1.723 . S
H249 C272 0.947 . S
H250 C273 0.948 . S
H251 C279 0.982 . S
H252 C280 0.979 . S
H253 C280 0.980 1_554 S
H254 C280 0.983 . S
H255 C279 0.979 . S
H256 C279 0.977 1_554 S
C257 C245 1.453 . S
C257 H286 0.982 . S
C257 H287 0.979 . S
C257 H288 0.977 . S
C258 C245 1.684 . S
C258 H283 0.979 . S
C258 H284 0.980 . S
C258 H285 0.983 . S
C259 C260 1.391 . S
C259 C264 1.391 . S
C259 H289 0.948 . S
C260 C259 1.391 . S
C260 C261 1.391 . S
C261 C260 1.391 . S
C261 C262 1.392 . S
C261 H290 0.947 . S
C262 C261 1.392 . S
C262 C263 1.419 . S
C262 H291 0.948 . S
C263 C262 1.419 . S
C263 C264 1.391 . S
C263 C267 1.397 . S
C264 C259 1.391 . S
C264 C263 1.391 . S
C264 C265 1.399 . S
C265 C264 1.399 . S
C265 C266 1.396 . S
C265 C268 1.453 . S
C265 C269 1.684 . S
C266 C247 1.723 . S
C266 C265 1.396 . S
C266 C267 1.394 . S
C267 C263 1.397 . S
C267 C266 1.394 . S
C267 C277 1.723 1_554 S
C268 C265 1.453 . S
C268 H292 0.982 . S
C268 H293 0.979 . S
C268 H294 0.977 . S
C269 C265 1.684 . S
C269 H295 0.979 . S
C269 H296 0.980 . S
C269 H297 0.983 . S
C270 H246 0.948 . S
C270 C271 1.391 . S
C270 C275 1.391 . S
C271 C270 1.391 . S
C271 C272 1.391 . S
C272 H249 0.947 . S
C272 C271 1.391 . S
C272 C273 1.392 . S
C273 H250 0.948 . S
C273 C272 1.392 . S
C273 C274 1.419 . S
C274 C273 1.419 . S
C274 C275 1.391 . S
C274 C278 1.397 . S
C275 C270 1.391 . S
C275 C274 1.391 . S
C275 C276 1.399 . S
C276 C275 1.399 . S
C276 C277 1.396 . S
C276 C279 1.453 . S
C276 C280 1.684 . S
C277 C267 1.723 1_556 S
C277 C276 1.396 . S
C277 C278 1.394 . S
C278 C248 1.723 . S
C278 C274 1.397 . S
C278 C277 1.394 . S
C279 H251 0.982 . S
C279 H255 0.979 . S
C279 H256 0.977 1_556 S
C279 C276 1.453 . S
C280 H252 0.979 . S
C280 H253 0.980 1_556 S
C280 H254 0.983 . S
C280 C276 1.684 . S
H281 C299 0.948 . S
H282 C240 0.948 . S
H283 C258 0.979 . S
H284 C258 0.980 . S
H285 C258 0.983 . S
H286 C257 0.982 . S
H287 C257 0.979 . S
H288 C257 0.977 . S
H289 C259 0.948 . S
H290 C261 0.947 . S
H291 C262 0.948 . S
H292 C268 0.982 . S
H293 C268 0.979 . S
H294 C268 0.977 . S
H295 C269 0.979 . S
H296 C269 0.980 . S
H297 C269 0.983 . S
H298 C242 0.947 . S
C299 C242 1.392 . S
C299 C243 1.419 . S
C299 H281 0.948 . S
C300 C301 1.391 . S
C300 C304 1.391 . S
C300 H342 0.948 . S
C301 C300 1.391 . S
C301 C302 1.391 . S
C302 C301 1.391 . S
C302 H358 0.947 . S
C302 C359 1.392 . S
C303 C304 1.391 . S
C303 C307 1.396 1_655 S
C303 C359 1.419 . S
C304 C300 1.391 . S
C304 C303 1.391 . S
C304 C305 1.399 . S
C305 C304 1.399 . S
C305 C308 1.396 1_655 S
C305 C317 1.453 1_655 S
C305 C318 1.684 . S
H306 C330 0.948 . S
C307 C303 1.396 1_455 S
C307 C308 1.395 . S
C307 C326 1.723 1_554 S
C308 C305 1.396 1_455 S
C308 C307 1.395 . S
C308 C338 1.723 . S
H309 C332 0.947 . S
H310 C333 0.948 . S
H311 C339 0.982 . S
H312 C340 0.979 . S
H313 C340 0.980 . S
H314 C340 0.983 . S
H315 C339 0.979 . S
H316 C339 0.977 . S
C317 C305 1.453 1_455 S
C317 H346 0.982 . S
C317 H347 0.979 . S
C317 H348 0.977 . S
C318 C305 1.684 . S
C318 H343 0.979 . S
C318 H344 0.980 . S
C318 H345 0.983 . S
C319 C320 1.391 . S
C319 C324 1.391 . S
C319 H349 0.948 . S
C320 C319 1.391 . S
C320 C321 1.391 . S
C321 C320 1.391 . S
C321 C322 1.392 . S
C321 H350 0.947 . S
C322 C321 1.392 . S
C322 C323 1.419 . S
C322 H351 0.948 . S
C323 C322 1.419 . S
C323 C324 1.391 . S
C323 C327 1.396 1_655 S
C324 C319 1.391 . S
C324 C323 1.391 . S
C324 C325 1.399 . S
C325 C324 1.399 . S
C325 C326 1.396 1_655 S
C325 C328 1.453 1_655 S
C325 C329 1.684 . S
C326 C307 1.723 1_556 S
C326 C325 1.396 1_455 S
C326 C327 1.395 . S
C327 C323 1.396 1_455 S
C327 C326 1.395 . S
C327 C337 1.723 . S
C328 C325 1.453 1_455 S
C328 H352 0.982 . S
C328 H353 0.979 . S
C328 H354 0.977 1_556 S
C329 C325 1.684 . S
C329 H355 0.979 . S
C329 H356 0.980 1_556 S
C329 H357 0.983 . S
C330 H306 0.948 . S
C330 C331 1.391 . S
C330 C335 1.391 . S
C331 C330 1.391 . S
C331 C332 1.391 . S
C332 H309 0.947 . S
C332 C331 1.391 . S
C332 C333 1.392 . S
C333 H310 0.948 . S
C333 C332 1.392 . S
C333 C334 1.419 . S
C334 C333 1.419 . S
C334 C335 1.391 . S
C334 C338 1.396 1_655 S
C335 C330 1.391 . S
C335 C334 1.391 . S
C335 C336 1.399 1_554 S
C336 C335 1.399 1_556 S
C336 C337 1.396 1_655 S
C336 C339 1.453 1_655 S
C336 C340 1.684 . S
C337 C327 1.723 . S
C337 C336 1.396 1_455 S
C337 C338 1.395 1_556 S
C338 C308 1.723 . S
C338 C334 1.396 1_455 S
C338 C337 1.395 1_554 S
C339 H311 0.982 . S
C339 H315 0.979 . S
C339 H316 0.977 . S
C339 C336 1.453 1_455 S
C340 H312 0.979 . S
C340 H313 0.980 . S
C340 H314 0.983 . S
C340 C336 1.684 . S
H341 C359 0.948 . S
H342 C300 0.948 . S
H343 C318 0.979 . S
H344 C318 0.980 . S
H345 C318 0.983 . S
H346 C317 0.982 . S
H347 C317 0.979 . S
H348 C317 0.977 . S
H349 C319 0.948 . S
H350 C321 0.947 . S
H351 C322 0.948 . S
H352 C328 0.982 . S
H353 C328 0.979 . S
H354 C328 0.977 1_554 S
H355 C329 0.979 . S
H356 C329 0.980 1_554 S
H357 C329 0.983 . S
H358 C302 0.947 . S
C359 C302 1.392 . S
C359 C303 1.419 . S
C359 H341 0.948 . S
C360 C361 1.391 . S
C360 C364 1.391 . S
C360 H402 0.948 . S
C361 C360 1.391 . S
C361 C362 1.391 . S
C362 C361 1.391 . S
C362 H418 0.947 . S
C362 C419 1.392 . S
C363 C364 1.391 . S
C363 C367 1.397 1_545 S
C363 C419 1.419 . S
C364 C360 1.391 . S
C364 C363 1.391 . S
C364 C365 1.399 . S
C365 C364 1.399 . S
C365 C368 1.396 1_545 S
C365 C377 1.453 1_545 S
C365 C378 1.684 . S
H366 C390 0.948 . S
C367 C363 1.397 1_565 S
C367 C368 1.394 . S
C367 C386 1.723 1_556 S
C368 C365 1.396 1_565 S
C368 C367 1.394 . S
C368 C398 1.723 1_556 S
H369 C392 0.947 1_556 S
H370 C393 0.948 . S
H371 C399 0.982 . S
H372 C400 0.979 . S
H373 C400 0.980 . S
H374 C400 0.983 . S
H375 C399 0.979 . S
H376 C399 0.977 . S
C377 C365 1.453 1_565 S
C377 H406 0.982 . S
C377 H407 0.979 . S
C377 H408 0.977 . S
C378 C365 1.684 . S
C378 H403 0.979 . S
C378 H404 0.980 . S
C378 H405 0.983 . S
C379 C380 1.391 . S
C379 C384 1.391 . S
C379 H409 0.948 . S
C380 C379 1.391 . S
C380 C381 1.391 . S
C381 C380 1.391 . S
C381 C382 1.392 . S
C381 H410 0.947 . S
C382 C381 1.392 . S
C382 C383 1.419 . S
C382 H411 0.948 . S
C383 C382 1.419 . S
C383 C384 1.391 . S
C383 C387 1.397 1_545 S
C384 C379 1.391 . S
C384 C383 1.391 . S
C384 C385 1.399 . S
C385 C384 1.399 . S
C385 C386 1.396 1_545 S
C385 C388 1.453 1_545 S
C385 C389 1.684 . S
C386 C367 1.723 1_554 S
C386 C385 1.396 1_565 S
C386 C387 1.394 . S
C387 C383 1.397 1_565 S
C387 C386 1.394 . S
C387 C397 1.723 . S
C388 C385 1.453 1_565 S
C388 H412 0.982 . S
C388 H413 0.979 . S
C388 H414 0.977 1_554 S
C389 C385 1.684 . S
C389 H415 0.979 . S
C389 H416 0.980 1_554 S
C389 H417 0.983 . S
C390 H366 0.948 . S
C390 C391 1.391 . S
C390 C395 1.391 . S
C391 C390 1.391 . S
C391 C392 1.391 . S
C392 H369 0.947 1_554 S
C392 C391 1.391 . S
C392 C393 1.392 1_554 S
C393 H370 0.948 . S
C393 C392 1.392 1_556 S
C393 C394 1.419 1_556 S
C394 C393 1.419 1_554 S
C394 C395 1.391 . S
C394 C398 1.397 1_545 S
C395 C390 1.391 . S
C395 C394 1.391 . S
C395 C396 1.399 . S
C396 C395 1.399 . S
C396 C397 1.396 1_545 S
C396 C399 1.453 1_545 S
C396 C400 1.684 . S
C397 C387 1.723 . S
C397 C396 1.396 1_565 S
C397 C398 1.394 . S
C398 C368 1.723 1_554 S
C398 C394 1.397 1_565 S
C398 C397 1.394 . S
C399 H371 0.982 . S
C399 H375 0.979 . S
C399 H376 0.977 . S
C399 C396 1.453 1_565 S
C400 H372 0.979 . S
C400 H373 0.980 . S
C400 H374 0.983 . S
C400 C396 1.684 . S
H401 C419 0.948 . S
H402 C360 0.948 . S
H403 C378 0.979 . S
H404 C378 0.980 . S
H405 C378 0.983 . S
H406 C377 0.982 . S
H407 C377 0.979 . S
H408 C377 0.977 . S
H409 C379 0.948 . S
H410 C381 0.947 . S
H411 C382 0.948 . S
H412 C388 0.982 . S
H413 C388 0.979 . S
H414 C388 0.977 1_556 S
H415 C389 0.979 . S
H416 C389 0.980 1_556 S
H417 C389 0.983 . S
H418 C362 0.947 . S
C419 C362 1.392 . S
C419 C363 1.419 . S
C419 H401 0.948 . S
C420 C421 1.391 . S
C420 C424 1.391 . S
C420 H462 0.948 . S
C421 C420 1.391 . S
C421 C422 1.391 . S
C422 C421 1.391 . S
C422 H478 0.947 . S
C422 C479 1.392 . S
C423 C424 1.391 . S
C423 C427 1.397 . S
C423 C479 1.419 . S
C424 C420 1.391 . S
C424 C423 1.391 . S
C424 C425 1.399 . S
C425 C424 1.399 . S
C425 C428 1.396 . S
C425 C437 1.453 . S
C425 C438 1.684 . S
H426 C450 0.948 . S
C427 C423 1.397 . S
C427 C428 1.394 . S
C427 C446 1.723 1_556 S
C428 C425 1.396 . S
C428 C427 1.394 . S
C428 C458 1.723 1_556 S
H429 C452 0.947 1_556 S
H430 C453 0.948 . S
H431 C459 0.982 . S
H432 C460 0.979 . S
H433 C460 0.980 . S
H434 C460 0.983 . S
H435 C459 0.979 . S
H436 C459 0.977 . S
C437 C425 1.453 . S
C437 H466 0.982 . S
C437 H467 0.979 . S
C437 H468 0.977 . S
C438 C425 1.684 . S
C438 H463 0.979 . S
C438 H464 0.980 . S
C438 H465 0.983 . S
C439 C440 1.391 . S
C439 C444 1.391 . S
C439 H469 0.948 . S
C440 C439 1.391 . S
C440 C441 1.391 . S
C441 C440 1.391 . S
C441 C442 1.392 . S
C441 H470 0.947 . S
C442 C441 1.392 . S
C442 C443 1.419 . S
C442 H471 0.948 . S
C443 C442 1.419 . S
C443 C444 1.391 . S
C443 C447 1.397 . S
C444 C439 1.391 . S
C444 C443 1.391 . S
C444 C445 1.399 . S
C445 C444 1.399 . S
C445 C446 1.396 . S
C445 C448 1.453 . S
C445 C449 1.684 . S
C446 C427 1.723 1_554 S
C446 C445 1.396 . S
C446 C447 1.394 . S
C447 C443 1.397 . S
C447 C446 1.394 . S
C447 C457 1.723 . S
C448 C445 1.453 . S
C448 H472 0.982 . S
C448 H473 0.979 . S
C448 H474 0.977 1_554 S
C449 C445 1.684 . S
C449 H475 0.979 . S
C449 H476 0.980 1_554 S
C449 H477 0.983 . S
C450 H426 0.948 . S
C450 C451 1.391 . S
C450 C455 1.391 . S
C451 C450 1.391 . S
C451 C452 1.391 . S
C452 H429 0.947 1_554 S
C452 C451 1.391 . S
C452 C453 1.392 1_554 S
C453 H430 0.948 . S
C453 C452 1.392 1_556 S
C453 C454 1.419 1_556 S
C454 C453 1.419 1_554 S
C454 C455 1.391 . S
C454 C458 1.397 . S
C455 C450 1.391 . S
C455 C454 1.391 . S
C455 C456 1.399 . S
C456 C455 1.399 . S
C456 C457 1.396 . S
C456 C459 1.453 . S
C456 C460 1.684 . S
C457 C447 1.723 . S
C457 C456 1.396 . S
C457 C458 1.394 . S
C458 C428 1.723 1_554 S
C458 C454 1.397 . S
C458 C457 1.394 . S
C459 H431 0.982 . S
C459 H435 0.979 . S
C459 H436 0.977 . S
C459 C456 1.453 . S
C460 H432 0.979 . S
C460 H433 0.980 . S
C460 H434 0.983 . S
C460 C456 1.684 . S
H461 C479 0.948 . S
H462 C420 0.948 . S
H463 C438 0.979 . S
H464 C438 0.980 . S
H465 C438 0.983 . S
H466 C437 0.982 . S
H467 C437 0.979 . S
H468 C437 0.977 . S
H469 C439 0.948 . S
H470 C441 0.947 . S
H471 C442 0.948 . S
H472 C448 0.982 . S
H473 C448 0.979 . S
H474 C448 0.977 1_556 S
H475 C449 0.979 . S
H476 C449 0.980 1_556 S
H477 C449 0.983 . S
H478 C422 0.947 . S
C479 C422 1.392 . S
C479 C423 1.419 . S
C479 H461 0.948 . S
Tb480 C490 2.825 . S
Tb480 O491 2.347 1_455 S
Tb480 O494 2.366 . S
Tb480 O499 2.418 . S
Tb480 O500 2.384 1_565 S
Tb480 O503 2.479 . S
Tb480 O504 2.471 . S
Eu481 O492 2.418 . S
Eu481 O493 2.384 1_545 S
Eu481 O496 2.479 . S
Eu481 O497 2.471 . S
Eu481 O498 2.347 1_655 S
Eu481 O501 2.366 . S
Eu481 C511 2.825 . S
C482 O498 1.259 1_565 S
C482 O499 1.265 . S
C483 O500 1.255 . S
C483 O501 1.265 1_455 S
C484 C486 1.380 . S
C484 C487 1.374 . S
C484 C490 1.507 . S
C485 C486 1.384 1_554 S
C485 C489 1.387 . S
C485 H512 0.930 . S
C486 C484 1.380 . S
C486 C485 1.384 1_556 S
C486 H513 0.931 . S
C487 C484 1.374 . S
C487 C488 1.390 1_556 S
C487 H514 0.930 1_455 S
C488 C487 1.390 1_554 S
C488 C489 1.391 . S
C488 H515 0.906 1_455 S
C489 C485 1.387 . S
C489 C488 1.391 . S
C490 Tb480 2.825 . S
C490 C484 1.507 . S
C490 O503 1.238 . S
C490 O504 1.247 . S
O491 Tb480 2.347 1_655 S
O491 C495 1.259 1_565 S
O492 Eu481 2.418 . S
O492 C495 1.265 . S
O493 Eu481 2.384 1_565 S
O493 C502 1.255 . S
O494 Tb480 2.366 . S
O494 C502 1.265 1_455 S
C495 O491 1.259 1_545 S
C495 O492 1.265 . S
O496 Eu481 2.479 . S
O496 C511 1.238 . S
O497 Eu481 2.471 . S
O497 C511 1.247 . S
O498 Eu481 2.347 1_455 S
O498 C482 1.259 1_545 S
O499 Tb480 2.418 . S
O499 C482 1.265 . S
O500 Tb480 2.384 1_545 S
O500 C483 1.255 . S
O501 Eu481 2.366 . S
O501 C483 1.265 1_655 S
C502 O493 1.255 . S
C502 O494 1.265 1_655 S
O503 Tb480 2.479 . S
O503 C490 1.238 . S
O504 Tb480 2.471 . S
O504 C490 1.247 . S
C505 C508 1.380 . S
C505 C509 1.374 . S
C505 C511 1.507 . S
C506 C507 1.387 . S
C506 C510 1.391 . S
C507 C506 1.387 . S
C507 C508 1.384 . S
C507 H516 0.930 . S
C508 C505 1.380 . S
C508 C507 1.384 . S
C508 H517 0.931 . S
C509 C505 1.374 . S
C509 C510 1.390 . S
C509 H518 0.930 1_655 S
C510 C506 1.391 . S
C510 C509 1.390 . S
C510 H519 0.898 1_655 S
C511 Eu481 2.825 . S
C511 O496 1.238 . S
C511 O497 1.247 . S
C511 C505 1.507 . S
H512 C485 0.930 . S
H513 C486 0.931 . S
H514 C487 0.930 1_655 S
H515 C488 0.906 1_655 S
H516 C507 0.930 . S
H517 C508 0.931 . S
H518 C509 0.930 1_455 S
H519 C510 0.898 1_455 S
Tb520 C530 2.825 . S
Tb520 O531 2.347 1_545 S
Tb520 O534 2.366 . S
Tb520 O539 2.418 . S
Tb520 O540 2.384 . S
Tb520 O543 2.479 . S
Tb520 O544 2.471 . S
Eu521 O532 2.418 . S
Eu521 O533 2.384 . S
Eu521 O536 2.479 . S
Eu521 O537 2.471 . S
Eu521 O538 2.347 1_565 S
Eu521 O541 2.366 . S
Eu521 C551 2.825 . S
C522 O538 1.259 . S
C522 O539 1.265 . S
C523 O540 1.255 . S
C523 O541 1.265 1_545 S
C524 C526 1.380 . S
C524 C527 1.374 . S
C524 C530 1.507 . S
C525 C526 1.384 1_554 S
C525 C529 1.387 . S
C525 H552 0.930 . S
C526 C524 1.380 . S
C526 C525 1.384 1_556 S
C526 H553 0.931 . S
C527 C524 1.374 . S
C527 C528 1.390 1_556 S
C527 H554 0.930 1_545 S
C528 C527 1.390 1_554 S
C528 C529 1.391 . S
C528 H555 0.930 1_545 S
C529 C525 1.387 . S
C529 C528 1.391 . S
C530 Tb520 2.825 . S
C530 C524 1.507 . S
C530 O543 1.238 . S
C530 O544 1.247 . S
O531 Tb520 2.347 1_565 S
O531 C535 1.259 . S
O532 Eu521 2.418 . S
O532 C535 1.265 . S
O533 Eu521 2.384 . S
O533 C542 1.255 . S
O534 Tb520 2.366 . S
O534 C542 1.265 1_545 S
C535 O531 1.259 . S
C535 O532 1.265 . S
O536 Eu521 2.479 . S
O536 C551 1.238 . S
O537 Eu521 2.471 . S
O537 C551 1.247 . S
O538 Eu521 2.347 1_545 S
O538 C522 1.259 . S
O539 Tb520 2.418 . S
O539 C522 1.265 . S
O540 Tb520 2.384 . S
O540 C523 1.255 . S
O541 Eu521 2.366 . S
O541 C523 1.265 1_565 S
C542 O533 1.255 . S
C542 O534 1.265 1_565 S
O543 Tb520 2.479 . S
O543 C530 1.238 . S
O544 Tb520 2.471 . S
O544 C530 1.247 . S
C545 C548 1.380 . S
C545 C549 1.374 . S
C545 C551 1.507 . S
C546 C547 1.387 . S
C546 C550 1.391 . S
C547 C546 1.387 . S
C547 C548 1.384 . S
C547 H556 0.930 . S
C548 C545 1.380 . S
C548 C547 1.384 . S
C548 H557 0.931 . S
C549 C545 1.374 . S
C549 C550 1.390 . S
C549 H558 0.930 1_565 S
C550 C546 1.391 . S
C550 C549 1.390 . S
C550 H559 0.930 1_565 S
C551 Eu521 2.825 . S
C551 O536 1.238 . S
C551 O537 1.247 . S
C551 C545 1.507 . S
H552 C525 0.930 . S
H553 C526 0.931 . S
H554 C527 0.930 1_565 S
H555 C528 0.930 1_565 S
H556 C547 0.930 . S
H557 C548 0.931 . S
H558 C549 0.930 1_545 S
H559 C550 0.930 1_545 S
Tb560 C570 2.825 . S
Tb560 O571 2.347 . S
Tb560 O574 2.366 . S
Tb560 O579 2.418 . S
Tb560 O580 2.384 . S
Tb560 O583 2.479 . S
Tb560 O584 2.471 . S
Eu561 O572 2.418 . S
Eu561 O573 2.384 . S
Eu561 O576 2.479 . S
Eu561 O577 2.471 . S
Eu561 O578 2.347 . S
Eu561 O581 2.366 . S
Eu561 C591 2.825 . S
C562 O578 1.259 . S
C562 O579 1.265 . S
C563 O580 1.255 . S
C563 O581 1.265 . S
C564 C566 1.380 . S
C564 C567 1.374 . S
C564 C570 1.507 . S
C565 C566 1.384 1_554 S
C565 C569 1.387 . S
C565 H592 0.930 . S
C566 C564 1.380 . S
C566 C565 1.384 1_556 S
C566 H593 0.931 . S
C567 C564 1.374 . S
C567 C568 1.390 1_556 S
C567 H594 0.930 . S
C568 C567 1.390 1_554 S
C568 C569 1.391 . S
C568 H595 0.930 . S
C569 C565 1.387 . S
C569 C568 1.391 . S
C570 Tb560 2.825 . S
C570 C564 1.507 . S
C570 O583 1.238 . S
C570 O584 1.247 . S
O571 Tb560 2.347 . S
O571 C575 1.259 . S
O572 Eu561 2.418 . S
O572 C575 1.265 . S
O573 Eu561 2.384 . S
O573 C582 1.255 . S
O574 Tb560 2.366 . S
O574 C582 1.265 . S
C575 O571 1.259 . S
C575 O572 1.265 . S
O576 Eu561 2.479 . S
O576 C591 1.238 . S
O577 Eu561 2.471 . S
O577 C591 1.247 . S
O578 Eu561 2.347 . S
O578 C562 1.259 . S
O579 Tb560 2.418 . S
O579 C562 1.265 . S
O580 Tb560 2.384 . S
O580 C563 1.255 . S
O581 Eu561 2.366 . S
O581 C563 1.265 . S
C582 O573 1.255 . S
C582 O574 1.265 . S
O583 Tb560 2.479 . S
O583 C570 1.238 . S
O584 Tb560 2.471 . S
O584 C570 1.247 . S
C585 C588 1.380 . S
C585 C589 1.374 . S
C585 C591 1.507 . S
C586 C587 1.387 . S
C586 C590 1.391 . S
C587 C586 1.387 . S
C587 C588 1.384 . S
C587 H596 0.930 . S
C588 C585 1.380 . S
C588 C587 1.384 . S
C588 H597 0.931 . S
C589 C585 1.374 . S
C589 C590 1.390 . S
C589 H598 0.930 . S
C590 C586 1.391 . S
C590 C589 1.390 . S
C590 H599 0.930 . S
C591 Eu561 2.825 . S
C591 O576 1.238 . S
C591 O577 1.247 . S
C591 C585 1.507 . S
H592 C565 0.930 . S
H593 C566 0.931 . S
H594 C567 0.930 . S
H595 C568 0.930 . S
H596 C587 0.930 . S
H597 C588 0.931 . S
H598 C589 0.930 . S
H599 C590 0.930 . S
Tb600 C610 2.825 . S
Tb600 O611 2.347 . S
Tb600 O614 2.366 . S
Tb600 O619 2.418 . S
Tb600 O620 2.384 1_655 S
Tb600 O623 2.479 . S
Tb600 O624 2.471 . S
Eu601 O612 2.418 . S
Eu601 O613 2.384 1_455 S
Eu601 O616 2.479 . S
Eu601 O617 2.471 . S
Eu601 O618 2.347 . S
Eu601 O621 2.366 . S
Eu601 C631 2.825 . S
C602 O618 1.259 1_655 S
C602 O619 1.265 . S
C603 O620 1.255 . S
C603 O621 1.265 . S
C604 C606 1.380 . S
C604 C607 1.374 . S
C604 C610 1.507 . S
C605 C606 1.384 1_554 S
C605 C609 1.387 . S
C605 H632 0.930 . S
C606 C604 1.380 . S
C606 C605 1.384 1_556 S
C606 H633 0.931 . S
C607 C604 1.374 . S
C607 C608 1.390 1_556 S
C607 H634 0.930 . S
C608 C607 1.390 1_554 S
C608 C609 1.391 . S
C608 H635 0.930 . S
C609 C605 1.387 . S
C609 C608 1.391 . S
C610 Tb600 2.825 . S
C610 C604 1.507 . S
C610 O623 1.238 . S
C610 O624 1.247 . S
O611 Tb600 2.347 . S
O611 C615 1.259 1_655 S
O612 Eu601 2.418 . S
O612 C615 1.265 . S
O613 Eu601 2.384 1_655 S
O613 C622 1.255 . S
O614 Tb600 2.366 . S
O614 C622 1.265 . S
C615 O611 1.259 1_455 S
C615 O612 1.265 . S
O616 Eu601 2.479 . S
O616 C631 1.238 . S
O617 Eu601 2.471 . S
O617 C631 1.247 . S
O618 Eu601 2.347 . S
O618 C602 1.259 1_455 S
O619 Tb600 2.418 . S
O619 C602 1.265 . S
O620 Tb600 2.384 1_455 S
O620 C603 1.255 . S
O621 Eu601 2.366 . S
O621 C603 1.265 . S
C622 O613 1.255 . S
C622 O614 1.265 . S
O623 Tb600 2.479 . S
O623 C610 1.238 . S
O624 Tb600 2.471 . S
O624 C610 1.247 . S
C625 C628 1.380 . S
C625 C629 1.374 . S
C625 C631 1.507 . S
C626 C627 1.387 . S
C626 C630 1.391 . S
C627 C626 1.387 . S
C627 C628 1.384 . S
C627 H636 0.930 . S
C628 C625 1.380 . S
C628 C627 1.384 . S
C628 H637 0.931 . S
C629 C625 1.374 . S
C629 C630 1.390 . S
C629 H638 0.930 . S
C630 C626 1.391 . S
C630 C629 1.390 . S
C630 H639 0.930 . S
C631 Eu601 2.825 . S
C631 O616 1.238 . S
C631 O617 1.247 . S
C631 C625 1.507 . S
H632 C605 0.930 . S
H633 C606 0.931 . S
H634 C607 0.930 . S
H635 C608 0.930 . S
H636 C627 0.930 . S
H637 C628 0.931 . S
H638 C629 0.930 . S
H639 C630 0.930 . S
C640 C641 1.388 1_565 S
C640 H644 0.950 . S
C640 C649 1.390 . S
C641 C640 1.388 1_545 S
C641 C643 1.387 . S
H642 C649 0.950 . S
C643 C641 1.387 . S
C643 C645 1.390 . S
C643 H647 0.950 . S
H644 C640 0.950 . S
C645 C643 1.390 . S
C645 C646 1.386 . S
C645 H648 0.950 . S
C646 C645 1.386 . S
C646 C649 1.389 1_545 S
H647 C643 0.950 . S
H648 C645 0.950 . S
C649 C640 1.390 . S
C649 H642 0.950 . S
C649 C646 1.389 1_565 S
C650 C651 1.387 . S
C650 H654 0.950 . S
C650 C659 1.390 . S
C651 C650 1.387 . S
C651 C653 1.387 . S
H652 C659 0.950 . S
C653 C651 1.387 . S
C653 C655 1.390 . S
C653 H657 0.950 . S
H654 C650 0.950 . S
C655 C653 1.390 . S
C655 C656 1.387 . S
C655 H658 0.950 . S
C656 C655 1.387 . S
C656 C659 1.387 . S
H657 C653 0.950 . S
H658 C655 0.950 . S
C659 C650 1.390 . S
C659 H652 0.950 . S
C659 C656 1.387 . S
C660 C661 1.387 . S
C660 H664 0.950 . S
C660 C669 1.390 . S
C661 C660 1.387 . S
C661 C663 1.387 . S
H662 C669 0.950 . S
C663 C661 1.387 . S
C663 C665 1.390 . S
C663 H667 0.950 . S
H664 C660 0.950 . S
C665 C663 1.390 . S
C665 C666 1.387 . S
C665 H668 0.950 . S
C666 C665 1.387 . S
C666 C669 1.387 . S
H667 C663 0.950 . S
H668 C665 0.950 . S
C669 C660 1.390 . S
C669 H662 0.950 . S
C669 C666 1.387 . S
C670 C671 1.407 . S
C670 H674 0.950 . S
C670 C679 1.390 . S
C671 C670 1.407 . S
C671 C673 1.368 1_455 S
H672 C679 0.950 . S
C673 C671 1.368 1_655 S
C673 C675 1.390 . S
C673 H677 0.950 . S
H674 C670 0.950 . S
C675 C673 1.390 . S
C675 C676 1.387 1_655 S
C675 H678 0.950 . S
C676 C675 1.387 1_455 S
C676 C679 1.387 . S
H677 C673 0.950 . S
H678 C675 0.950 . S
C679 C670 1.390 . S
C679 H672 0.950 . S
C679 C676 1.387 . S
C680 C681 1.388 . S
C680 H684 0.950 . S
C680 C689 1.390 . S
C681 C680 1.388 . S
C681 C683 1.387 1_545 S
H682 C689 0.950 . S
C683 C681 1.387 1_565 S
C683 C685 1.390 . S
C683 H687 0.950 . S
H684 C680 0.950 . S
C685 C683 1.390 . S
C685 C686 1.386 1_564 S
C685 H688 0.950 . S
C686 C685 1.386 1_546 S
C686 C689 1.389 1_556 S
H687 C683 0.950 . S
H688 C685 0.950 . S
C689 C680 1.390 . S
C689 H682 0.950 . S
C689 C686 1.389 1_554 S
C690 C691 1.387 . S
C690 H694 0.950 . S
C690 C699 1.390 . S
C691 C690 1.387 . S
C691 C693 1.387 . S
H692 C699 0.950 . S
C693 C691 1.387 . S
C693 C695 1.390 . S
C693 H697 0.950 . S
H694 C690 0.950 . S
C695 C693 1.390 . S
C695 C696 1.387 1_554 S
C695 H698 0.950 1_554 S
C696 C695 1.387 1_556 S
C696 C699 1.387 1_556 S
H697 C693 0.950 . S
H698 C695 0.950 1_556 S
C699 C690 1.390 . S
C699 H692 0.950 . S
C699 C696 1.387 1_554 S
C700 C701 1.387 . S
C700 H704 0.950 . S
C700 C709 1.390 . S
C701 C700 1.387 . S
C701 C703 1.387 . S
H702 C709 0.950 . S
C703 C701 1.387 . S
C703 C705 1.390 . S
C703 H707 0.950 . S
H704 C700 0.950 . S
C705 C703 1.390 . S
C705 C706 1.387 1_554 S
C705 H708 0.950 . S
C706 C705 1.387 1_556 S
C706 C709 1.387 1_556 S
H707 C703 0.950 . S
H708 C705 0.950 . S
C709 C700 1.390 . S
C709 H702 0.950 . S
C709 C706 1.387 1_554 S
C710 C711 1.377 1_455 S
C710 H714 0.950 . S
C710 C719 1.390 . S
C711 C710 1.377 1_655 S
C711 C713 1.398 . S
H712 C719 0.950 . S
C713 C711 1.398 . S
C713 C715 1.390 . S
C713 H717 0.950 . S
H714 C710 0.950 . S
C715 C713 1.390 . S
C715 C716 1.387 1_554 S
C715 H718 0.949 1_554 S
C716 C715 1.387 1_556 S
C716 C719 1.387 1_656 S
H717 C713 0.950 . S
H718 C715 0.949 1_556 S
C719 C710 1.390 . S
C719 H712 0.950 . S
C719 C716 1.387 1_454 S
C720 C721 1.387 1_655 S
C720 H724 0.950 . S
C720 C729 1.390 . S
C721 C720 1.387 1_455 S
C721 C723 1.387 1_455 S
H722 C729 0.950 . S
C723 C721 1.387 1_655 S
C723 C725 1.390 . S
C723 H727 0.950 1_655 S
H724 C720 0.950 . S
C725 C723 1.390 . S
C725 C726 1.387 . S
C725 H728 0.950 . S
C726 C725 1.387 . S
C726 C729 1.387 . S
H727 C723 0.950 1_455 S
H728 C725 0.950 . S
C729 C720 1.390 . S
C729 H722 0.950 . S
C729 C726 1.387 . S
C730 C731 1.386 1_565 S
C730 H734 0.950 . S
C730 C739 1.390 . S
C731 C730 1.386 1_545 S
C731 C733 1.387 . S
H732 C739 0.950 . S
C733 C731 1.387 . S
C733 C735 1.363 1_545 S
C733 H737 0.979 . S
H734 C730 0.950 . S
C735 C733 1.363 1_565 S
C735 C736 1.387 . S
C735 H738 0.950 . S
C736 C735 1.387 . S
C736 C739 1.387 . S
H737 C733 0.979 . S
H738 C735 0.950 . S
C739 C730 1.390 . S
C739 H732 0.950 . S
C739 C736 1.387 . S
C740 C741 1.387 . S
C740 H744 0.950 . S
C740 C749 1.390 . S
C741 C740 1.387 . S
C741 C743 1.387 . S
H742 C749 0.950 . S
C743 C741 1.387 . S
C743 C745 1.390 . S
C743 H747 0.950 . S
H744 C740 0.950 . S
C745 C743 1.390 . S
C745 C746 1.387 . S
C745 H748 0.950 . S
C746 C745 1.387 . S
C746 C749 1.387 . S
H747 C743 0.950 . S
H748 C745 0.950 . S
C749 C740 1.390 . S
C749 H742 0.950 . S
C749 C746 1.387 . S
C750 C751 1.387 . S
C750 H754 0.950 . S
C750 C759 1.390 . S
C751 C750 1.387 . S
C751 C753 1.387 . S
H752 C759 0.950 . S
C753 C751 1.387 . S
C753 C755 1.390 . S
C753 H757 0.950 . S
H754 C750 0.950 . S
C755 C753 1.390 . S
C755 C756 1.387 . S
C755 H758 0.950 . S
C756 C755 1.387 . S
C756 C759 1.387 . S
H757 C753 0.950 . S
H758 C755 0.950 . S
C759 C750 1.390 . S
C759 H752 0.950 . S
C759 C756 1.387 . S
C760 C761 1.386 1_455 S
C760 H764 0.950 . S
C760 C769 1.390 . S
C761 C760 1.386 1_655 S
C761 C763 1.387 1_655 S
H762 C769 0.950 . S
C763 C761 1.387 1_455 S
C763 C765 1.390 1_554 S
C763 H767 0.950 1_454 S
H764 C760 0.950 . S
C765 C763 1.390 1_556 S
C765 C766 1.387 1_556 S
C765 H768 0.950 . S
C766 C765 1.387 1_554 S
C766 C769 1.387 . S
H767 C763 0.950 1_656 S
H768 C765 0.950 . S
C769 C760 1.390 . S
C769 H762 0.950 . S
C769 C766 1.387 . S
C770 C771 1.387 1_545 S
C770 H774 0.950 . S
C770 C779 1.390 . S
C771 C770 1.387 1_565 S
C771 C773 1.387 1_565 S
H772 C779 0.950 . S
C773 C771 1.387 1_545 S
C773 C775 1.390 1_554 S
C773 H777 0.950 1_544 S
H774 C770 0.950 . S
C775 C773 1.390 1_556 S
C775 C776 1.387 1_556 S
C775 H778 0.950 . S
C776 C775 1.387 1_554 S
C776 C779 1.387 . S
H777 C773 0.950 1_566 S
H778 C775 0.950 . S
C779 C770 1.390 . S
C779 H772 0.950 . S
C779 C776 1.387 . S
C780 C781 1.387 . S
C780 H784 0.950 . S
C780 C789 1.390 . S
C781 C780 1.387 . S
C781 C783 1.387 . S
H782 C789 0.950 . S
C783 C781 1.387 . S
C783 C785 1.393 . S
C783 H787 0.950 1_554 S
H784 C780 0.950 . S
C785 C783 1.393 . S
C785 C786 1.396 . S
C785 H788 0.938 1_554 S
C786 C785 1.396 . S
C786 C789 1.387 . S
H787 C783 0.950 1_556 S
H788 C785 0.938 1_556 S
C789 C780 1.390 . S
C789 H782 0.950 . S
C789 C786 1.387 . S
C790 C791 1.387 . S
C790 H794 0.950 . S
C790 C799 1.390 . S
C791 C790 1.387 . S
C791 C793 1.387 . S
H792 C799 0.950 . S
C793 C791 1.387 . S
C793 C795 1.390 1_554 S
C793 H797 0.950 1_554 S
H794 C790 0.950 . S
C795 C793 1.390 1_556 S
C795 C796 1.387 1_556 S
C795 H798 0.950 . S
C796 C795 1.387 1_554 S
C796 C799 1.387 . S
H797 C793 0.950 1_556 S
H798 C795 0.950 . S
C799 C790 1.390 . S
C799 H792 0.950 . S
C799 C796 1.387 . S
C800 C801 1.387 1_655 S
C800 H804 0.950 . S
C800 C809 1.390 . S
C801 C800 1.387 1_455 S
C801 C803 1.387 . S
H802 C809 0.950 . S
C803 C801 1.387 . S
C803 C805 1.390 . S
C803 H807 0.950 . S
H804 C800 0.950 . S
C805 C803 1.390 . S
C805 C806 1.387 . S
C805 H808 0.950 . S
C806 C805 1.387 . S
C806 C809 1.387 1_455 S
H807 C803 0.950 . S
H808 C805 0.950 . S
C809 C800 1.390 . S
C809 H802 0.950 . S
C809 C806 1.387 1_655 S
C810 C811 1.387 1_565 S
C810 H814 0.950 . S
C810 C819 1.390 . S
C811 C810 1.387 1_545 S
C811 C813 1.387 . S
H812 C819 0.950 . S
C813 C811 1.387 . S
C813 C815 1.390 . S
C813 H817 0.950 . S
H814 C810 0.950 . S
C815 C813 1.390 . S
C815 C816 1.387 . S
C815 H818 0.950 . S
C816 C815 1.387 . S
C816 C819 1.387 1_545 S
H817 C813 0.950 . S
H818 C815 0.950 . S
C819 C810 1.390 . S
C819 H812 0.950 . S
C819 C816 1.387 1_565 S
C820 C821 1.387 . S
C820 H824 0.950 . S
C820 C829 1.390 . S
C821 C820 1.387 . S
C821 C823 1.387 . S
H822 C829 0.950 . S
C823 C821 1.387 . S
C823 C825 1.390 . S
C823 H827 0.950 . S
H824 C820 0.950 . S
C825 C823 1.390 . S
C825 C826 1.387 . S
C825 H828 0.950 . S
C826 C825 1.387 . S
C826 C829 1.387 . S
H827 C823 0.950 . S
H828 C825 0.950 . S
C829 C820 1.390 . S
C829 H822 0.950 . S
C829 C826 1.387 . S
C830 C831 1.387 . S
C830 H834 0.950 . S
C830 C839 1.390 . S
C831 C830 1.387 . S
C831 C833 1.387 . S
H832 C839 0.950 . S
C833 C831 1.387 . S
C833 C835 1.390 . S
C833 H837 0.950 . S
H834 C830 0.950 . S
C835 C833 1.390 . S
C835 C836 1.387 . S
C835 H838 0.950 . S
C836 C835 1.387 . S
C836 C839 1.387 . S
H837 C833 0.950 . S
H838 C835 0.950 . S
C839 C830 1.390 . S
C839 H832 0.950 . S
C839 C836 1.387 . S
C840 C841 1.387 . S
C840 H844 0.950 . S
C840 C849 1.390 . S
C841 C840 1.387 . S
C841 C843 1.387 1_655 S
H842 C849 0.950 . S
C843 C841 1.387 1_455 S
C843 C845 1.390 . S
C843 H847 0.950 . S
H844 C840 0.950 . S
C845 C843 1.390 . S
C845 C846 1.387 1_455 S
C845 H848 0.950 . S
C846 C845 1.387 1_655 S
C846 C849 1.387 . S
H847 C843 0.950 . S
H848 C845 0.950 . S
C849 C840 1.390 . S
C849 H842 0.950 . S
C849 C846 1.387 . S
C850 C851 1.387 1_545 S
C850 H854 0.950 . S
C850 C859 1.390 . S
C851 C850 1.387 1_565 S
C851 C853 1.387 . S
H852 C859 0.950 . S
C853 C851 1.387 . S
C853 C855 1.390 . S
C853 H857 0.950 . S
H854 C850 0.950 . S
C855 C853 1.390 . S
C855 C856 1.387 . S
C855 H858 0.950 . S
C856 C855 1.387 . S
C856 C859 1.387 1_565 S
H857 C853 0.950 . S
H858 C855 0.950 . S
C859 C850 1.390 . S
C859 H852 0.950 . S
C859 C856 1.387 1_545 S
C860 C861 1.387 . S
C860 H864 0.950 . S
C860 C869 1.390 . S
C861 C860 1.387 . S
C861 C863 1.387 . S
H862 C869 0.950 . S
C863 C861 1.387 . S
C863 C865 1.390 . S
C863 H867 0.950 . S
H864 C860 0.950 . S
C865 C863 1.390 . S
C865 C866 1.387 . S
C865 H868 0.950 . S
C866 C865 1.387 . S
C866 C869 1.387 . S
H867 C863 0.950 . S
H868 C865 0.950 . S
C869 C860 1.390 . S
C869 H862 0.950 . S
C869 C866 1.387 . S
C870 C871 1.387 . S
C870 H874 0.950 . S
C870 C879 1.390 . S
C871 C870 1.387 . S
C871 C873 1.387 . S
H872 C879 0.950 . S
C873 C871 1.387 . S
C873 C875 1.390 . S
C873 H877 0.950 . S
H874 C870 0.950 . S
C875 C873 1.390 . S
C875 C876 1.387 . S
C875 H878 0.950 . S
C876 C875 1.387 . S
C876 C879 1.387 . S
H877 C873 0.950 . S
H878 C875 0.950 . S
C879 C870 1.390 . S
C879 H872 0.950 . S
C879 C876 1.387 . S
C641 C391 2.687 . S
C646 C482 2.860 1_545 S
C656 C522 2.880 . S
C651 C451 2.699 . S
C666 C562 2.886 . S
C661 C241 2.360 . S
C676 C602 2.864 1_455 S
C671 C331 2.321 1_455 S
C686 C495 2.860 . S
C681 C121 2.316 1_545 S
C691 C211 2.717 . S
C696 C535 2.881 . S
C701 C31 2.725 . S
C706 C575 2.886 . S
C711 C91 2.322 . S
C716 C615 2.866 1_655 S
C726 C506 0.756 . S
C721 C301 0.754 1_455 S
C736 C546 0.741 . S
C731 C380 0.742 . S
C746 C586 0.700 . S
C741 C440 0.689 . S
C751 C260 0.724 . S
C756 C626 0.700 . S
C761 C61 0.753 . S
C766 C489 0.759 . S
C776 C529 0.749 . S
C771 C140 0.747 . S
C786 C569 0.707 . S
C781 C200 0.712 . S
C791 C20 0.716 . S
C796 C609 0.716 . S
C801 C320 3.403 1_455 S
C806 C483 3.708 . S
C811 C361 2.916 . S
C816 C523 3.677 . S
C826 C563 3.668 . S
C821 C421 2.898 . S
C836 C603 3.704 . S
C831 C271 3.396 . S
C841 C80 3.386 . S
C846 C502 3.716 . S
C856 C542 3.678 . S
C851 C151 3.349 . S
C866 C582 3.668 . S
C861 C181 2.939 . S
C871 C1 2.975 . S
C876 C622 3.708 . S
