# Generated by pormake.
# Topology pyr, (3,6)-cn, num edge types: 1
# Building blocks:
#     Node 0, Type 0, BuildingBlock: PAMTOO_clean_linker_0, # of connection points: 3
#     Node 1, Type 0, BuildingBlock: PAMTOO_clean_linker_0, # of connection points: 3
#     Node 2, Type 0, BuildingBlock: PAMTOO_clean_linker_0, # of connection points: 3
#     Node 3, Type 0, BuildingBlock: PAMTOO_clean_linker_0, # of connection points: 3
#     Node 4, Type 0, BuildingBlock: PAMTOO_clean_linker_0, # of connection points: 3
#     Node 5, Type 0, BuildingBlock: PAMTOO_clean_linker_0, # of connection points: 3
#     Node 6, Type 0, BuildingBlock: PAMTOO_clean_linker_0, # of connection points: 3
#     Node 7, Type 0, BuildingBlock: PAMTOO_clean_linker_0, # of connection points: 3
#     Node 8, Type 1, BuildingBlock: INOVEN_clean_sbu_0, # of connection points: 6
#     Node 9, Type 1, BuildingBlock: INOVEN_clean_sbu_0, # of connection points: 6
#     Node 10, Type 1, BuildingBlock: INOVEN_clean_sbu_0, # of connection points: 6
#     Node 11, Type 1, BuildingBlock: INOVEN_clean_sbu_0, # of connection points: 6
#     Edge 12, Type (0, 1), BuildingBlock: XIVTED_clean_linker_0, # of connection points: 2
#     Edge 13, Type (0, 1), BuildingBlock: XIVTED_clean_linker_0, # of connection points: 2
#     Edge 14, Type (0, 1), BuildingBlock: XIVTED_clean_linker_0, # of connection points: 2
#     Edge 15, Type (0, 1), BuildingBlock: XIVTED_clean_linker_0, # of connection points: 2
#     Edge 16, Type (0, 1), BuildingBlock: XIVTED_clean_linker_0, # of connection points: 2
#     Edge 17, Type (0, 1), BuildingBlock: XIVTED_clean_linker_0, # of connection points: 2
#     Edge 18, Type (0, 1), BuildingBlock: XIVTED_clean_linker_0, # of connection points: 2
#     Edge 19, Type (0, 1), BuildingBlock: XIVTED_clean_linker_0, # of connection points: 2
#     Edge 20, Type (0, 1), BuildingBlock: XIVTED_clean_linker_0, # of connection points: 2
#     Edge 21, Type (0, 1), BuildingBlock: XIVTED_clean_linker_0, # of connection points: 2
#     Edge 22, Type (0, 1), BuildingBlock: XIVTED_clean_linker_0, # of connection points: 2
#     Edge 23, Type (0, 1), BuildingBlock: XIVTED_clean_linker_0, # of connection points: 2
#     Edge 24, Type (0, 1), BuildingBlock: XIVTED_clean_linker_0, # of connection points: 2
#     Edge 25, Type (0, 1), BuildingBlock: XIVTED_clean_linker_0, # of connection points: 2
#     Edge 26, Type (0, 1), BuildingBlock: XIVTED_clean_linker_0, # of connection points: 2
#     Edge 27, Type (0, 1), BuildingBlock: XIVTED_clean_linker_0, # of connection points: 2
#     Edge 28, Type (0, 1), BuildingBlock: XIVTED_clean_linker_0, # of connection points: 2
#     Edge 29, Type (0, 1), BuildingBlock: XIVTED_clean_linker_0, # of connection points: 2
#     Edge 30, Type (0, 1), BuildingBlock: XIVTED_clean_linker_0, # of connection points: 2
#     Edge 31, Type (0, 1), BuildingBlock: XIVTED_clean_linker_0, # of connection points: 2
#     Edge 32, Type (0, 1), BuildingBlock: XIVTED_clean_linker_0, # of connection points: 2
#     Edge 33, Type (0, 1), BuildingBlock: XIVTED_clean_linker_0, # of connection points: 2
#     Edge 34, Type (0, 1), BuildingBlock: XIVTED_clean_linker_0, # of connection points: 2
#     Edge 35, Type (0, 1), BuildingBlock: XIVTED_clean_linker_0, # of connection points: 2
# Relax obj value: 0.171
# Max RMSD: 0.225
# Mean RMSD: 0.149
data_MOF--net-pyr--node1-INOVEN_clean_sbu_0--node2-PAMTOO_clean_linker_0--edge1-XIVTED_clean_linker_0
_symmetry_space_group_name_H-M    P1
_symmetry_Int_Tables_number       1
_symmetry_cell_setting            triclinic
loop_
_symmetry_equiv_pos_as_xyz
'x, y, z'
_cell_length_a     37.08184
_cell_length_b     41.9488
_cell_length_c     37.457575
_cell_angle_alpha  91.584299
_cell_angle_beta   89.541533
_cell_angle_gamma 105.15053
loop_
_atom_site_label
_atom_site_type_symbol
_atom_site_fract_x
_atom_site_fract_y
_atom_site_fract_z
_atom_type_partial_charge
H0 H 0.30424 0.31082 0.23351 0.0
H1 H 0.35018 0.22788 0.2474 0.0
H2 H 0.39097 0.2954 0.1633 0.0
H3 H 0.42755 0.24078 0.23878 0.0
C4 C 0.43061 0.24309 0.20933 0.0
O5 O 0.39653 0.24149 0.19392 0.0
H6 H 0.45035 0.26731 0.2034 0.0
C7 C 0.32441 0.29717 0.22608 0.0
C8 C 0.34803 0.30705 0.19668 0.0
C9 C 0.32475 0.26863 0.24453 0.0
C10 C 0.35012 0.25051 0.23414 0.0
C11 C 0.37433 0.26052 0.20531 0.0
C12 C 0.37319 0.28863 0.18646 0.0
H13 H 0.27208 0.9042 0.67408 0.0
H14 H 0.25253 0.8532 0.57167 0.0
H15 H 0.33217 0.8329 0.64397 0.0
H16 H 0.34101 0.85531 0.55783 0.0
C17 C 0.32614 0.82861 0.55464 0.0
O18 O 0.3 0.81851 0.58129 0.0
H19 H 0.31154 0.82547 0.52846 0.0
C20 C 0.27769 0.88647 0.65466 0.0
C21 C 0.30474 0.86979 0.66258 0.0
C22 C 0.25869 0.88115 0.62186 0.0
C23 C 0.26582 0.85733 0.59763 0.0
C24 C 0.29195 0.83984 0.60578 0.0
C25 C 0.3112 0.84583 0.63834 0.0
H26 H 0.73765 0.31858 0.92925 0.0
H27 H 0.65571 0.30397 0.84504 0.0
H28 H 0.74586 0.39255 0.84973 0.0
H29 H 0.66694 0.39882 0.83403 0.0
C30 C 0.66113 0.3803 0.81154 0.0
O31 O 0.68679 0.36107 0.81295 0.0
H32 H 0.63267 0.36407 0.81607 0.0
C33 C 0.72677 0.32724 0.90575 0.0
C34 C 0.74615 0.35821 0.89198 0.0
C35 C 0.694 0.30694 0.88957 0.0
C36 C 0.68046 0.31887 0.85835 0.0
C37 C 0.69869 0.35021 0.84419 0.0
C38 C 0.73137 0.36932 0.8613 0.0
H39 H 0.8782 0.73106 0.42823 0.0
H40 H 0.87613 0.65464 0.34794 0.0
H41 H 0.9644 0.74481 0.3483 0.0
H42 H 0.93884 0.70971 0.27223 0.0
C43 C 0.93191 0.68373 0.28109 0.0
O44 O 0.93994 0.68415 0.3177 0.0
H45 H 0.90135 0.67341 0.27711 0.0
C46 C 0.88967 0.72202 0.4046 0.0
C47 C 0.92276 0.74246 0.39008 0.0
C48 C 0.8715 0.69045 0.38976 0.0
C49 C 0.88864 0.67878 0.35975 0.0
C50 C 0.92216 0.69793 0.34441 0.0
C51 C 0.93858 0.7301 0.35948 0.0
H52 H 0.72761 0.83567 0.85537 0.0
H53 H 0.68482 0.78234 0.94975 0.0
H54 H 0.76925 0.75407 0.88744 0.0
H55 H 0.69926 0.70225 0.91422 0.0
C56 C 0.71252 0.70891 0.94096 0.0
O57 O 0.7281 0.74247 0.94493 0.0
H58 H 0.69027 0.701 0.96135 0.0
C59 C 0.72606 0.81496 0.87254 0.0
C60 C 0.75037 0.79459 0.86676 0.0
C61 C 0.70269 0.81099 0.90265 0.0
C62 C 0.70208 0.78522 0.92596 0.0
C63 C 0.72578 0.76462 0.92017 0.0
C64 C 0.75009 0.76947 0.89088 0.0
H65 H 0.84606 0.17371 0.41216 0.0
H66 H 0.84825 0.27577 0.39962 0.0
H67 H 0.9101 0.24882 0.48442 0.0
H68 H 0.90334 0.33625 0.48813 0.0
C69 C 0.88296 0.31209 0.48252 0.0
O70 O 0.89471 0.29772 0.45254 0.0
H71 H 0.88333 0.2967 0.50619 0.0
C72 C 0.85495 0.19916 0.42169 0.0
C73 C 0.87889 0.20767 0.45138 0.0
C74 C 0.84354 0.22341 0.40295 0.0
C75 C 0.85651 0.2567 0.41391 0.0
C76 C 0.88075 0.26556 0.44306 0.0
C77 C 0.89186 0.24122 0.4616 0.0
H78 H 0.38353 0.73931 0.14712 0.0
H79 H 0.38017 0.66112 0.22084 0.0
H80 H 0.46617 0.75195 0.2303 0.0
H81 H 0.49168 0.69379 0.25624 0.0
C82 C 0.46402 0.67639 0.26134 0.0
O83 O 0.43662 0.69385 0.26016 0.0
H84 H 0.45893 0.65761 0.23911 0.0
C85 C 0.39553 0.72932 0.169 0.0
C86 C 0.42798 0.74966 0.18586 0.0
C87 C 0.37739 0.69713 0.18087 0.0
C88 C 0.39279 0.68552 0.21101 0.0
C89 C 0.42456 0.70505 0.2292 0.0
C90 C 0.44183 0.73705 0.21639 0.0
H91 H 0.12628 0.32249 0.77029 0.0
H92 H 0.21782 0.4106 0.76031 0.0
H93 H 0.20737 0.33059 0.68491 0.0
H94 H 0.28398 0.36237 0.70364 0.0
C95 C 0.28264 0.38834 0.70818 0.0
O96 O 0.24624 0.3903 0.7024 0.0
H97 H 0.29003 0.39509 0.73663 0.0
C98 C 0.15136 0.33619 0.75702 0.0
C99 C 0.16434 0.32177 0.72575 0.0
C100 C 0.16976 0.36906 0.76983 0.0
C101 C 0.20248 0.3861 0.75132 0.0
C102 C 0.21598 0.37233 0.72094 0.0
C103 C 0.19669 0.34063 0.70847 0.0
Gd104 Gd 0.04231 0.04848 0.52339 0.0
Gd105 Gd 0.03343 1.01573 0.59442 0.0
C106 C 0.06763 0.09457 0.59734 0.0
C107 C 0.04282 0.08615 0.46994 0.0
C108 C 0.0721 0.11261 0.45424 0.0
C109 C 0.10981 0.11309 0.45833 0.0
C110 C 0.06258 0.13645 0.43353 0.0
C111 C 0.12815 0.15906 0.41806 0.0
C112 C 0.0904 0.15964 0.41571 0.0
C113 C 0.13754 0.13592 0.44023 0.0
C114 C 0.10124 1.02655 0.54286 0.0
C115 C 1.00932 0.96953 0.52044 0.0
C116 C 0.03211 0.97821 0.64825 0.0
C117 C 1.00421 0.95005 0.66298 0.0
C118 C 0.96596 0.94714 0.65847 0.0
C119 C 1.01561 0.9269 0.68327 0.0
C120 C 0.95066 0.89997 0.69746 0.0
C121 C 0.98906 0.90194 0.70024 0.0
C122 C 0.93946 0.92251 0.67571 0.0
C123 C 0.97437 0.03754 0.57337 0.0
O124 O 0.05644 0.09302 0.56345 0.0
O125 O 0.06709 0.06684 0.61389 0.0
O126 O 0.0484 0.05671 0.46687 0.0
O127 O 0.03087 0.09239 0.50165 0.0
O128 O 0.09102 0.02755 0.5101 0.0
O129 O 0.08238 0.04022 0.5632 0.0
O130 O 0.02001 0.97104 0.55449 0.0
O131 O 1.00951 0.9972 0.50396 0.0
O132 O 0.02347 1.00647 0.65043 0.0
O133 O 0.04678 0.97314 0.61743 0.0
O134 O 0.98515 0.0382 0.60619 0.0
O135 O 0.99358 1.02333 0.55426 0.0
H136 H 0.11773 0.09498 0.4745 0.0
H137 H 0.03361 0.13662 0.43044 0.0
H138 H 0.08222 0.17756 0.39953 0.0
H139 H 0.16611 0.13435 0.44244 0.0
H140 H 0.95657 0.96467 0.64264 0.0
H141 H 0.04504 0.92862 0.68671 0.0
H142 H 0.9987 0.88464 0.71613 0.0
H143 H 0.9103 0.92218 0.67322 0.0
Gd144 Gd 0.59661 0.03691 0.065 0.0
Gd145 Gd 0.53342 1.02358 0.02177 0.0
C146 C 0.53495 0.06892 0.09274 0.0
C147 C 0.66157 0.05473 0.09557 0.0
C148 C 0.67766 0.0783 0.12456 0.0
C149 C 0.65436 0.09026 0.14817 0.0
C150 C 0.71641 0.0881 0.12956 0.0
C151 C 0.70842 0.12018 0.18285 0.0
C152 C 0.73172 0.10895 0.15845 0.0
C153 C 0.6696 0.11098 0.17711 0.0
C154 C 0.544 0.98134 0.08706 0.0
C155 C 0.59643 0.9923 0.99373 0.0
C156 C 0.46786 1.00645 0.99249 0.0
C157 C 0.45159 0.98756 0.96035 0.0
C158 C 0.42365 0.99728 0.94205 0.0
C159 C 0.46535 0.96163 0.94628 0.0
C160 C 0.42457 0.95661 0.89481 0.0
C161 C 0.45169 0.94606 0.91378 0.0
C162 C 0.41027 0.98198 0.90953 0.0
C163 C 0.58577 0.07844 0.99858 0.0
O164 O 0.57119 0.07336 0.09201 0.0
O165 O 0.51352 0.04666 0.07118 0.0
O166 O 0.63503 0.02931 0.10502 0.0
O167 O 0.65389 0.0674 0.06606 0.0
O168 O 0.56191 1.00541 0.10784 0.0
O169 O 0.55362 0.98848 0.055 0.0
O170 O 0.56023 0.98876 0.9923 0.0
O171 O 0.61706 1.01336 1.01687 0.0
O172 O 0.49224 0.03441 0.9867 0.0
O173 O 0.47806 0.98998 1.01789 0.0
O174 O 0.56767 0.05399 0.97834 0.0
O175 O 0.57662 0.07196 0.031 0.0
H176 H 0.62433 0.08305 0.14463 0.0
H177 H 0.73476 0.07907 0.11156 0.0
H178 H 0.76169 0.11533 0.16237 0.0
H179 H 0.65098 0.11953 0.19519 0.0
H180 H 0.41283 1.0173 0.9525 0.0
H181 H 0.48724 0.954 0.95991 0.0
H182 H 0.46329 0.9267 0.90286 0.0
H183 H 0.38905 0.9903 0.89559 0.0
Gd184 Gd 0.56701 0.50381 0.51312 0.0
Gd185 Gd 0.57183 0.56012 0.5589 0.0
C186 C 0.60061 0.50248 0.59438 0.0
C187 C 0.57999 0.45655 0.47297 0.0
C188 C 0.60292 0.43291 0.47345 0.0
C189 C 0.60738 0.41562 0.44191 0.0
C190 C 0.62281 0.4294 0.50411 0.0
C191 C 0.65341 0.39311 0.47096 0.0
C192 C 0.64778 0.40958 0.50293 0.0
C193 C 0.63241 0.39585 0.44064 0.0
C194 C 0.50188 0.49946 0.54979 0.0
C195 C 0.53672 0.56083 0.47807 0.0
C196 C 0.55746 0.6081 0.59632 0.0
C197 C 0.53709 0.63304 0.58959 0.0
C198 C 0.5502 0.6651 0.60408 0.0
C199 C 0.50449 0.62508 0.56877 0.0
C200 C 0.4975 0.68078 0.57809 0.0
C201 C 0.4848 0.64864 0.56325 0.0
C202 C 0.53065 0.68882 0.59832 0.0
C203 C 0.6375 0.56509 0.52315 0.0
O204 O 0.5983 0.49012 0.56116 0.0
O205 O 0.58962 0.52959 0.60122 0.0
O206 O 0.55236 0.45221 0.49569 0.0
O207 O 0.59858 0.48748 0.47086 0.0
O208 O 0.50379 0.49165 0.51617 0.0
O209 O 0.53469 0.50956 0.5622 0.0
O210 O 0.54091 0.57416 0.51084 0.0
O211 O 0.54671 0.53325 0.47142 0.0
O212 O 0.5886 0.61105 0.57869 0.0
O213 O 0.53719 0.57756 0.59735 0.0
O214 O 0.63459 0.57236 0.55679 0.0
O215 O 0.60488 0.55457 0.50997 0.0
H216 H 0.59226 0.41815 0.41797 0.0
H217 H 0.61994 0.44277 0.5286 0.0
H218 H 0.66386 0.40833 0.52662 0.0
H219 H 0.63583 0.38318 0.41575 0.0
H220 H 0.5755 0.67174 0.61995 0.0
H221 H 0.49392 0.6005 0.55712 0.0
H222 H 0.45913 0.64136 0.548 0.0
H223 H 0.54158 0.71347 0.60965 0.0
Gd224 Gd 0.06282 0.49582 0.05769 0.0
Gd225 Gd 0.0628 0.55608 1.01107 0.0
C226 C 0.13554 0.56116 0.06116 0.0
C227 C 0.07821 0.44306 0.07939 0.0
C228 C 0.11314 0.43311 0.08372 0.0
C229 C 0.12184 0.4236 0.11746 0.0
C230 C 0.13922 0.43546 0.05576 0.0
C231 C 0.18271 0.42017 0.09592 0.0
C232 C 0.17366 0.42871 0.06178 0.0
C233 C 0.15634 0.41735 0.12358 0.0
C234 C 0.02893 0.53703 0.09689 0.0
C235 C 0.98984 0.49129 1.0088 0.0
C236 C 0.04847 0.60931 0.98922 0.0
C237 C 1.01456 0.62103 0.98888 0.0
C238 C 1.01205 0.64582 0.96552 0.0
C239 C 0.98334 0.6054 1.00923 0.0
C240 C 0.94667 0.63837 0.98158 0.0
C241 C 0.94967 0.61408 1.00571 0.0
C242 C 0.97838 0.65448 0.96191 0.0
C243 C 0.09409 0.51343 0.97091 0.0
O244 O 0.12093 0.52974 0.0692 0.0
O245 O 0.11806 0.57683 0.03968 0.0
O246 O 0.07454 0.46704 0.10094 0.0
O247 O 0.06713 0.44589 0.04679 0.0
O248 O 0.03171 0.50833 0.10653 0.0
O249 O 0.04221 0.54105 0.06527 0.0
O250 O 1.0036 0.5232 1.00242 0.0
O251 O 1.00842 0.4749 0.02819 0.0
O252 O 0.04713 0.58345 0.9685 0.0
O253 O 0.06296 0.60733 0.02061 0.0
O254 O 0.09168 0.54224 0.9613 0.0
O255 O 0.08193 0.51014 1.00295 0.0
H256 H 0.10219 0.42171 0.13938 0.0
H257 H 0.13337 0.44309 0.02952 0.0
H258 H 0.19356 0.43096 0.04006 0.0
H259 H 0.1624 0.41023 0.14999 0.0
H260 H 0.03586 0.65792 0.94944 0.0
H261 H 0.98473 0.58586 0.02709 0.0
H262 H 0.92568 0.60098 0.02094 0.0
H263 H 0.97708 0.6736 0.94348 0.0
H264 H 0.25009 0.26323 0.24058 0.0
H265 H 0.20201 0.18859 0.43431 0.0
H266 H 0.33401 0.24525 0.31071 0.0
H267 H 0.12099 0.17805 0.34958 0.0
H268 H 0.25057 0.218 0.39364 0.0
H269 H 0.20235 0.24098 0.28498 0.0
C270 C 0.25851 0.25492 0.26556 0.0
C271 C 0.29606 0.25615 0.27208 0.0
C272 C 0.22207 0.2094 0.38417 0.0
C273 C 0.24147 0.23036 0.32287 0.0
C274 C 0.19431 0.19252 0.40728 0.0
C275 C 0.15723 0.18049 0.39538 0.0
C276 C 0.21265 0.21463 0.34902 0.0
C277 C 0.14893 0.18712 0.36026 0.0
C278 C 0.23121 0.24203 0.29077 0.0
C279 C 0.30531 0.24452 0.30462 0.0
N280 N 0.17642 0.20361 0.33835 0.0
N281 N 0.27814 0.23209 0.3289 0.0
H282 H 0.32133 0.83124 0.71525 0.0
H283 H 0.42019 0.99048 0.83509 0.0
H284 H 0.3418 0.93211 0.68236 0.0
H285 H 0.40197 0.89131 0.87281 0.0
H286 H 0.39656 0.96817 0.77674 0.0
H287 H 0.35591 0.85114 0.7709 0.0
C288 C 0.33346 0.85748 0.71964 0.0
C289 C 0.32826 0.88017 0.69466 0.0
C290 C 0.39776 0.95112 0.79762 0.0
C291 C 0.36753 0.90299 0.75761 0.0
C292 C 0.4111 0.96391 0.831 0.0
C293 C 0.41243 0.94268 0.85886 0.0
C294 C 0.38527 0.91675 0.79197 0.0
C295 C 0.40119 0.90845 0.85194 0.0
C296 C 0.35302 0.86882 0.75131 0.0
C297 C 0.34454 0.91388 0.70134 0.0
N298 N 0.38763 0.89647 0.81919 0.0
N299 N 0.36318 0.92423 0.7322 0.0
H300 H 0.64734 0.35501 0.74106 0.0
H301 H 0.61807 0.52491 0.66392 0.0
H302 H 0.66963 0.447 0.80111 0.0
H303 H 0.61297 0.43944 0.59577 0.0
H304 H 0.63645 0.49603 0.71384 0.0
H305 H 0.63522 0.38413 0.68768 0.0
C306 C 0.65062 0.38142 0.74294 0.0
C307 C 0.66046 0.39842 0.77595 0.0
C308 C 0.63153 0.48349 0.68799 0.0
C309 C 0.64508 0.43215 0.71459 0.0
C310 C 0.62093 0.50011 0.65919 0.0
C311 C 0.6139 0.485 0.62493 0.0
C312 C 0.63497 0.45092 0.68333 0.0
C313 C 0.61821 0.45252 0.62128 0.0
C314 C 0.64331 0.39807 0.7124 0.0
C315 C 0.66291 0.43264 0.77647 0.0
N316 N 0.62813 0.43669 0.64987 0.0
N317 N 0.65517 0.44804 0.74676 0.0
H318 H 0.976 0.70349 0.22105 0.0
H319 H 0.99293 0.52138 0.16015 0.0
H320 H 0.93133 0.61645 0.28187 0.0
H321 H 0.03105 0.60532 0.09308 0.0
H322 H 0.97234 0.55637 0.20471 0.0
H323 H 0.99881 0.66972 0.17591 0.0
C324 C 0.97165 0.67736 0.22551 0.0
C325 C 0.95224 0.66331 0.25636 0.0
C326 C 0.98504 0.56739 0.18033 0.0
C327 C 0.97789 0.62356 0.2031 0.0
C328 C 0.99687 0.54724 0.15446 0.0
C329 C 1.01391 0.55991 0.1221 0.0
C330 C 0.99014 0.60129 0.17477 0.0
C331 C 0.01799 0.59397 0.11715 0.0
C332 C 0.98446 0.65792 0.19926 0.0
C333 C 0.94678 0.6289 0.25937 0.0
N334 N 1.00642 0.61328 0.14304 0.0
N335 N 0.95939 0.61051 0.23341 0.0
H336 H 0.3917 0.17878 0.1937 0.0
H337 H 0.57273 0.12117 0.13438 0.0
H338 H 0.5032 0.24351 0.1943 0.0
H339 H 0.46112 0.06831 0.10193 0.0
H340 H 0.54717 0.16183 0.1661 0.0
H341 H 0.41646 0.13403 0.16911 0.0
C342 C 0.42138 0.18358 0.18843 0.0
C343 C 0.44537 0.21514 0.19486 0.0
C344 C 0.52826 0.14124 0.15221 0.0
C345 C 0.4739 0.16394 0.16789 0.0
C346 C 0.54277 0.11788 0.13419 0.0
C347 C 0.51902 0.0914 0.11517 0.0
C348 C 0.48967 0.13804 0.15149 0.0
C349 C 0.48045 0.08844 0.11606 0.0
C350 C 0.43546 0.15805 0.17454 0.0
C351 C 0.48371 0.21975 0.18884 0.0
N352 N 0.46695 0.1116 0.13382 0.0
N353 N 0.4968 0.19447 0.17552 0.0
H354 H 0.26594 0.9465 0.64016 0.0
H355 H 0.11673 0.97502 0.50616 0.0
H356 H 0.1948 0.86443 0.58059 0.0
H357 H 0.13649 0.02899 0.60692 0.0
H358 H 0.15304 0.93808 0.52709 0.0
H359 H 0.22569 0.98092 0.62307 0.0
C360 C 0.24162 0.93541 0.62397 0.0
C361 C 0.23372 0.90217 0.61214 0.0
C362 C 0.14936 0.95801 0.54456 0.0
C363 C 0.18855 0.94224 0.5913 0.0
C364 C 0.12902 0.97921 0.53259 0.0
C365 C 0.12404 1.00513 0.55486 0.0
C366 C 0.16547 0.96334 0.57864 0.0
C367 C 0.13998 1.00932 0.589 0.0
C368 C 0.21886 0.95529 0.61404 0.0
C369 C 0.20245 0.88992 0.59001 0.0
N370 N 0.16044 0.98879 0.59979 0.0
N371 N 0.18119 0.91007 0.58001 0.0
H372 H 0.80168 0.33608 0.92483 0.0
H373 H 0.93907 0.51556 0.97087 0.0
H374 H 0.77459 0.4267 0.8988 0.0
H375 H 0.95557 0.42436 1.00907 0.0
H376 H 0.88029 0.4842 0.94279 0.0
H377 H 0.85876 0.36832 0.95378 0.0
C378 C 0.80728 0.36273 0.92536 0.0
C379 C 0.78229 0.37829 0.90931 0.0
C380 C 0.89671 0.47105 0.95741 0.0
C381 C 0.84943 0.41599 0.94239 0.0
C382 C 0.93043 0.489 0.97356 0.0
C383 C 0.95276 0.47282 0.99267 0.0
C384 C 0.88496 0.43642 0.95993 0.0
C385 C 0.93962 0.43821 0.99489 0.0
C386 C 0.84036 0.38125 0.94184 0.0
C387 C 0.79263 0.41321 0.91033 0.0
N388 N 0.90698 0.42136 0.97874 0.0
N389 N 0.82512 0.43071 0.92647 0.0
H390 H 0.84059 0.62148 0.38926 0.0
H391 H 0.6906 0.62182 0.54111 0.0
H392 H 0.81717 0.71181 0.42873 0.0
H393 H 0.66277 0.54751 0.45686 0.0
H394 H 0.74542 0.6508 0.50703 0.0
H395 H 0.78335 0.59012 0.41874 0.0
C396 C 0.82381 0.63505 0.40377 0.0
C397 C 0.83522 0.66998 0.40647 0.0
C398 C 0.72745 0.6281 0.49596 0.0
C399 C 0.7694 0.63333 0.44169 0.0
C400 C 0.69608 0.61135 0.51552 0.0
C401 C 0.67164 0.582 0.502 0.0
C402 C 0.73566 0.61523 0.46276 0.0
C403 C 0.68057 0.57004 0.4684 0.0
C404 C 0.79099 0.61685 0.42084 0.0
C405 C 0.81144 0.68523 0.42649 0.0
N406 N 0.71197 0.58643 0.45015 0.0
N407 N 0.78045 0.66699 0.44349 0.0
H408 H 0.33536 0.30476 0.12488 0.0
H409 H 0.2307 0.44555 0.1504 0.0
H410 H 0.34474 0.36892 0.21815 0.0
H411 H 0.21742 0.37988 0.05805 0.0
H412 H 0.28512 0.42734 0.1682 0.0
H413 H 0.30627 0.34155 0.09274 0.0
C414 C 0.3325 0.32724 0.13817 0.0
C415 C 0.34179 0.33362 0.17435 0.0
C416 C 0.27076 0.41724 0.14371 0.0
C417 C 0.3078 0.37524 0.1382 0.0
C418 C 0.23964 0.42756 0.13364 0.0
C419 C 0.2192 0.41362 0.10318 0.0
C420 C 0.28116 0.39237 0.12348 0.0
C421 C 0.23231 0.39097 0.08193 0.0
C422 C 0.31557 0.34807 0.11994 0.0
C423 C 0.33731 0.36291 0.19042 0.0
N424 N 0.26208 0.38051 0.09287 0.0
N425 N 0.31998 0.38233 0.17245 0.0
H426 H 0.65949 0.24679 0.85502 0.0
H427 H 0.61477 0.13899 0.03466 0.0
H428 H 0.68555 0.28895 0.96093 0.0
H429 H 0.59523 0.09659 0.92829 0.0
H430 H 0.63949 0.19393 1.0087 0.0
H431 H 0.63384 0.19243 0.88137 0.0
C432 C 0.65965 0.24493 0.88378 0.0
C433 C 0.67532 0.27322 0.90536 0.0
C434 C 0.62986 0.17262 0.99097 0.0
C435 C 0.64576 0.20982 0.93626 0.0
C436 C 0.61575 0.14106 1.00589 0.0
C437 C 0.60274 0.11261 0.98387 0.0
C438 C 0.63104 0.17627 0.95352 0.0
C439 C 0.60482 0.11744 0.94662 0.0
C440 C 0.64515 0.21357 0.89891 0.0
C441 C 0.67467 0.26829 0.94268 0.0
N442 N 0.61844 0.14824 0.93285 0.0
N443 N 0.66038 0.23765 0.95668 0.0
H444 H 0.93506 0.7572 0.46211 0.0
H445 H 0.99381 0.95622 0.4481 0.0
H446 H 0.94944 0.80531 0.36096 0.0
H447 H 0.99736 0.90587 0.54618 0.0
H448 H 0.9758 0.90239 0.41603 0.0
H449 H 0.95615 0.81119 0.49271 0.0
C450 C 0.94278 0.77907 0.44612 0.0
C451 C 0.94013 0.77604 0.40849 0.0
C452 C 0.98048 0.90302 0.44456 0.0
C453 C 0.96448 0.83937 0.44425 0.0
C454 C 0.9907 0.93397 0.46311 0.0
C455 C 0.99719 0.93623 0.50034 0.0
C456 C 0.97618 0.87342 0.46305 0.0
C457 C 0.99275 0.90595 0.51769 0.0
C458 C 0.95495 0.81015 0.46382 0.0
C459 C 0.95109 0.80588 0.38981 0.0
N460 N 0.98249 0.87623 0.49913 0.0
N461 N 0.96233 0.83597 0.40773 0.0
H462 H 0.33049 0.77613 0.51087 0.0
H463 H 0.48558 0.72715 0.62677 0.0
H464 H 0.38424 0.83512 0.60104 0.0
H465 H 0.45889 0.69033 0.51872 0.0
H466 H 0.44646 0.76511 0.6195 0.0
H467 H 0.37467 0.74193 0.51502 0.0
C468 C 0.35184 0.78196 0.53135 0.0
C469 C 0.3541 0.80849 0.55551 0.0
C470 C 0.44939 0.74885 0.59733 0.0
C471 C 0.40407 0.76939 0.56087 0.0
C472 C 0.47192 0.72727 0.60136 0.0
C473 C 0.47551 0.70533 0.57336 0.0
C474 C 0.42994 0.74826 0.56524 0.0
C475 C 0.45642 0.70628 0.5413 0.0
C476 C 0.37699 0.76252 0.53373 0.0
C477 C 0.3818 0.81486 0.58192 0.0
N478 N 0.43426 0.7272 0.53821 0.0
N479 N 0.40566 0.79532 0.58404 0.0
H480 H 0.74139 0.80933 0.79704 0.0
H481 H 0.95857 0.88033 0.76562 0.0
H482 H 0.8248 0.7983 0.87197 0.0
H483 H 0.87826 0.8666 0.67987 0.0
H484 H 0.9102 0.8479 0.80386 0.0
H485 H 0.79075 0.8286 0.75279 0.0
C486 C 0.77005 0.81063 0.804 0.0
C487 C 0.77905 0.80234 0.83823 0.0
C488 C 0.90324 0.85163 0.77653 0.0
C489 C 0.83559 0.82454 0.788 0.0
C490 C 0.931 0.87 0.75448 0.0
C491 C 0.92257 0.87661 0.71939 0.0
C492 C 0.86654 0.8401 0.7637 0.0
C493 C 0.88595 0.86291 0.70695 0.0
C494 C 0.79817 0.82148 0.77874 0.0
C495 C 0.81656 0.8042 0.84582 0.0
N496 N 0.85919 0.8457 0.72922 0.0
N497 N 0.84349 0.8155 0.82107 0.0
H498 H 0.85337 0.25023 0.33659 0.0
H499 H 0.68197 0.11251 0.25125 0.0
H500 H 0.77928 0.17387 0.39681 0.0
H501 H 0.77134 0.17205 0.18846 0.0
H502 H 0.71093 0.14196 0.30515 0.0
H503 H 0.81709 0.22898 0.28253 0.0
C504 C 0.8291 0.22934 0.3385 0.0
C505 C 0.81942 0.21357 0.37106 0.0
C506 C 0.72409 0.14875 0.27956 0.0
C507 C 0.77806 0.18911 0.30957 0.0
C508 C 0.70743 0.13211 0.24874 0.0
C509 C 0.72437 0.13973 0.2153 0.0
C510 C 0.75789 0.17332 0.27702 0.0
C511 C 0.75763 0.16509 0.21376 0.0
C512 C 0.8086 0.21709 0.30766 0.0
C513 C 0.78791 0.18645 0.37209 0.0
N514 N 0.77339 0.18092 0.24421 0.0
N515 N 0.76846 0.17499 0.34177 0.0
H516 H 0.4796 0.70324 0.33098 0.0
H517 H 0.51726 0.53698 0.4094 0.0
H518 H 0.45799 0.61023 0.27295 0.0
H519 H 0.52251 0.62322 0.47642 0.0
H520 H 0.49603 0.56426 0.35979 0.0
H521 H 0.49474 0.6758 0.38441 0.0
C522 C 0.47711 0.67694 0.32959 0.0
C523 C 0.46661 0.65915 0.29712 0.0
C524 C 0.50164 0.57734 0.38531 0.0
C525 C 0.48543 0.62739 0.35849 0.0
C526 C 0.5139 0.56164 0.41393 0.0
C527 C 0.52192 0.57747 0.44775 0.0
C528 C 0.49741 0.60967 0.38967 0.0
C529 C 0.51676 0.60968 0.45118 0.0
C530 C 0.48616 0.66126 0.36014 0.0
C531 C 0.4652 0.62515 0.29716 0.0
N532 N 0.50518 0.62462 0.42273 0.0
N533 N 0.47459 0.6107 0.32687 0.0
H534 H 0.13562 0.34548 0.83552 0.0
H535 H 0.1291 0.52822 0.90741 0.0
H536 H 0.17036 0.43516 0.7766 0.0
H537 H 0.08719 0.44374 0.97294 0.0
H538 H 0.14523 0.4926 0.86117 0.0
H539 H 0.11766 0.37781 0.88596 0.0
C540 C 0.13942 0.37177 0.83282 0.0
C541 C 0.15537 0.38718 0.80112 0.0
C542 C 0.13267 0.48146 0.88555 0.0
C543 C 0.13475 0.42494 0.85982 0.0
C544 C 0.12343 0.50207 0.91244 0.0
C545 C 0.10669 0.48956 0.94489 0.0
C546 C 0.12532 0.44714 0.89002 0.0
C547 C 0.10028 0.45501 0.94885 0.0
C548 C 0.12928 0.39037 0.86197 0.0
C549 C 0.1593 0.42164 0.80017 0.0
N550 N 0.10944 0.43518 0.92191 0.0
N551 N 0.14937 0.43887 0.82855 0.0
H552 H 0.65305 0.83504 0.86416 0.0
H553 H 0.66782 0.98701 0.99896 0.0
H554 H 0.7122 0.84704 0.96433 0.0
H555 H 0.56421 0.94476 0.94294 0.0
H556 H 0.69303 0.94331 0.97361 0.0
H557 H 0.62702 0.88169 0.88194 0.0
C558 C 0.66027 0.84738 0.88991 0.0
C559 C 0.68432 0.83711 0.9131 0.0
C560 C 0.6649 0.94383 0.96662 0.0
C561 C 0.65607 0.89051 0.93276 0.0
C562 C 0.6505 0.96888 0.98087 0.0
C563 C 0.61362 0.96933 0.97344 0.0
C564 C 0.64254 0.91922 0.94439 0.0
C565 C 0.59268 0.94516 0.9496 0.0
C566 C 0.64554 0.87383 0.89994 0.0
C567 C 0.69327 0.85393 0.94599 0.0
N568 N 0.6074 0.92085 0.93597 0.0
N569 N 0.67942 0.87998 0.9547 0.0
H570 H 0.83938 0.14296 0.46188 0.0
H571 H 0.97663 0.0991 0.59975 0.0
H572 H 0.94539 0.21248 0.48663 0.0
H573 H 0.93125 0.03001 0.51388 0.0
H574 H 0.9517 0.14084 0.57107 0.0
H575 H 0.86034 0.10048 0.4927 0.0
C576 C 0.86705 0.14947 0.4735 0.0
C577 C 0.89065 0.18166 0.4712 0.0
C578 C 0.94684 0.11635 0.55891 0.0
C579 C 0.91367 0.1333 0.50802 0.0
C580 C 0.96066 0.09255 0.57531 0.0
C581 C 0.95557 0.06117 0.55913 0.0
C582 C 0.92701 0.10826 0.52678 0.0
C583 C 0.93544 0.05398 0.52712 0.0
C584 C 0.87871 0.12518 0.49136 0.0
C585 C 0.92573 0.18846 0.48809 0.0
N586 N 0.92156 0.07735 0.512 0.0
N587 N 0.93605 0.16455 0.506 0.0
H588 H 0.3543 0.69792 0.10991 0.0
H589 H 0.17118 0.5454 0.12028 0.0
H590 H 0.3184 0.64727 0.20802 0.0
H591 H 0.1843 0.62021 0.04108 0.0
H592 H 0.22927 0.57749 0.14893 0.0
H593 H 0.29689 0.66568 0.08132 0.0
C594 C 0.33458 0.68038 0.12586 0.0
C595 C 0.34215 0.67616 0.16215 0.0
C596 C 0.21953 0.58687 0.12523 0.0
C597 C 0.27559 0.63757 0.12815 0.0
C598 C 0.1863 0.56841 0.10862 0.0
C599 C 0.17233 0.57985 0.07795 0.0
C600 C 0.23984 0.61699 0.11092 0.0
C601 C 0.19356 0.61017 0.06459 0.0
C602 C 0.30162 0.66163 0.10912 0.0
C603 C 0.31502 0.65167 0.18011 0.0
N604 N 0.22606 0.6274 0.08089 0.0
N605 N 0.28344 0.63346 0.16304 0.0
H606 H 0.34531 0.43806 0.72679 0.0
H607 H 0.43173 0.46386 0.52803 0.0
H608 H 0.28783 0.38726 0.63387 0.0
H609 H 0.49323 0.50503 0.62296 0.0
H610 H 0.377 0.43985 0.56518 0.0
H611 H 0.39681 0.46694 0.68855 0.0
C612 C 0.34311 0.43341 0.6982 0.0
C613 C 0.31166 0.41036 0.68365 0.0
C614 C 0.40235 0.45424 0.57796 0.0
C615 C 0.37161 0.44323 0.63923 0.0
C616 C 0.43374 0.46809 0.55668 0.0
C617 C 0.46748 0.48656 0.57221 0.0
C618 C 0.40425 0.45887 0.61534 0.0
C619 C 0.46803 0.49102 0.60963 0.0
C620 C 0.37282 0.4498 0.67632 0.0
C621 C 0.31109 0.4051 0.64633 0.0
N622 N 0.43714 0.47732 0.62975 0.0
N623 N 0.34048 0.42123 0.62556 0.0
H624 H 0.7567 0.69007 0.88993 0.0
H625 H 0.89514 0.64557 0.03208 0.0
H626 H 0.73881 0.69175 1.00367 0.0
H627 H 0.9152 0.64838 0.9184 0.0
H628 H 0.83537 0.6583 0.02205 0.0
H629 H 0.81228 0.67019 0.89951 0.0
C630 C 0.76417 0.68556 0.91687 0.0
C631 C 0.74297 0.69191 0.94604 0.0
C632 C 0.85282 0.65607 0.9993 0.0
C633 C 0.80683 0.67006 0.9574 0.0
C634 C 0.88689 0.64871 1.005 0.0
C635 C 0.91032 0.64612 0.97606 0.0
C636 C 0.84203 0.6608 0.96438 0.0
C637 C 0.89834 0.65072 0.94156 0.0
C638 C 0.79596 0.67446 0.92239 0.0
C639 C 0.75418 0.68652 0.98051 0.0
N640 N 0.86508 0.65787 0.9367 0.0
N641 N 0.78543 0.67598 0.98527 0.0
H642 H 0.46343 0.80826 0.22289 0.0
H643 H 0.51277 0.92272 0.04865 0.0
H644 H 0.43519 0.77089 0.11552 0.0
H645 H 0.53372 0.96067 0.15662 0.0
H646 H 0.48546 0.86716 0.0721 0.0
H647 H 0.4908 0.86332 0.19906 0.0
C648 C 0.46307 0.8113 0.19431 0.0
C649 C 0.44641 0.78409 0.17157 0.0
C650 C 0.49596 0.88761 0.09074 0.0
C651 C 0.47811 0.84843 0.14361 0.0
C652 C 0.51159 0.91953 0.07727 0.0
C653 C 0.52577 0.94692 0.10049 0.0
C654 C 0.49439 0.88249 0.12792 0.0
C655 C 0.52328 0.94067 0.13743 0.0
C656 C 0.47862 0.8431 0.18064 0.0
C657 C 0.44687 0.79064 0.13462 0.0
N658 N 0.50818 0.90951 0.1498 0.0
N659 N 0.46226 0.8217 0.12203 0.0
H660 H 0.13794 0.26013 0.75784 0.0
H661 H 0.07942 0.15759 0.57061 0.0
H662 H 0.14705 0.30483 0.65493 0.0
H663 H 0.08599 0.10915 0.66935 0.0
H664 H 0.09986 0.21126 0.60226 0.0
H665 H 0.11417 0.20529 0.728 0.0
C666 C 0.1345 0.25867 0.72912 0.0
C667 C 0.14487 0.28778 0.70922 0.0
C668 C 0.0969 0.18898 0.61718 0.0
C669 C 0.11755 0.22419 0.67433 0.0
C670 C 0.08514 0.15802 0.59895 0.0
C671 C 0.08091 0.12811 0.61689 0.0
C672 C 0.10444 0.19084 0.65418 0.0
C673 C 0.08887 0.13112 0.65394 0.0
C674 C 0.12118 0.22712 0.71194 0.0
C675 C 0.13994 0.28354 0.67178 0.0
N676 N 0.10003 0.16155 0.67114 0.0
N677 N 0.12686 0.25286 0.65589 0.0
H678 H 0.81977 0.29106 0.52333 0.0
H679 H 0.70393 0.39429 0.41708 0.0
H680 H 0.86084 0.34685 0.42983 0.0
H681 H 0.67089 0.35181 0.51976 0.0
H682 H 0.75645 0.36931 0.41621 0.0
H683 H 0.76034 0.30562 0.51743 0.0
C684 C 0.81601 0.30609 0.50132 0.0
C685 C 0.84507 0.31791 0.47704 0.0
C686 C 0.73755 0.36522 0.43881 0.0
C687 C 0.77752 0.33483 0.47022 0.0
C688 C 0.70736 0.37926 0.4392 0.0
C689 C 0.68308 0.37529 0.46865 0.0
C690 C 0.74355 0.34704 0.46806 0.0
C691 C 0.68925 0.35592 0.49678 0.0
C692 C 0.78219 0.31445 0.49799 0.0
C693 C 0.83898 0.33732 0.44904 0.0
N694 N 0.719 0.34266 0.49588 0.0
N695 N 0.8059 0.34534 0.44647 0.0
loop_
_geom_bond_atom_site_label_1
_geom_bond_atom_site_label_2
_geom_bond_distance
_geom_bond_site_symmetry_2
_ccdc_geom_bond_type
H0 C7 0.929 . S
H1 C10 0.930 . S
H2 C12 0.929 . S
H3 C4 0.969 . S
C4 H3 0.969 . S
C4 O5 1.550 . S
C4 H6 0.973 . S
O5 C4 1.550 . S
O5 C11 1.412 . S
H6 C4 0.973 . S
C7 H0 0.929 . S
C7 C8 1.400 . S
C7 C9 1.364 . S
C8 C7 1.400 . S
C8 C12 1.377 . S
C9 C7 1.364 . S
C9 C10 1.374 . S
C10 H1 0.930 . S
C10 C9 1.374 . S
C10 C11 1.383 . S
C11 O5 1.412 . S
C11 C10 1.383 . S
C11 C12 1.394 . S
C12 H2 0.929 . S
C12 C8 1.377 . S
C12 C11 1.394 . S
H13 C20 0.929 . S
H14 C23 0.930 . S
H15 C25 0.929 . S
H16 C17 0.969 . S
C17 H16 0.969 . S
C17 O18 1.550 . S
C17 H19 0.973 . S
O18 C17 1.550 . S
O18 C24 1.412 . S
H19 C17 0.973 . S
C20 H13 0.929 . S
C20 C21 1.400 . S
C20 C22 1.364 . S
C21 C20 1.400 . S
C21 C25 1.377 . S
C22 C20 1.364 . S
C22 C23 1.374 . S
C23 H14 0.930 . S
C23 C22 1.374 . S
C23 C24 1.383 . S
C24 O18 1.412 . S
C24 C23 1.383 . S
C24 C25 1.394 . S
C25 H15 0.929 . S
C25 C21 1.377 . S
C25 C24 1.394 . S
H26 C33 0.929 . S
H27 C36 0.930 . S
H28 C38 0.929 . S
H29 C30 0.969 . S
C30 H29 0.969 . S
C30 O31 1.550 . S
C30 H32 0.973 . S
O31 C30 1.550 . S
O31 C37 1.412 . S
H32 C30 0.973 . S
C33 H26 0.929 . S
C33 C34 1.400 . S
C33 C35 1.364 . S
C34 C33 1.400 . S
C34 C38 1.377 . S
C35 C33 1.364 . S
C35 C36 1.374 . S
C36 H27 0.930 . S
C36 C35 1.374 . S
C36 C37 1.383 . S
C37 O31 1.412 . S
C37 C36 1.383 . S
C37 C38 1.394 . S
C38 H28 0.929 . S
C38 C34 1.377 . S
C38 C37 1.394 . S
H39 C46 0.929 . S
H40 C49 0.930 . S
H41 C51 0.929 . S
H42 C43 0.969 . S
C43 H42 0.969 . S
C43 O44 1.550 . S
C43 H45 0.973 . S
O44 C43 1.550 . S
O44 C50 1.412 . S
H45 C43 0.973 . S
C46 H39 0.929 . S
C46 C47 1.400 . S
C46 C48 1.364 . S
C47 C46 1.400 . S
C47 C51 1.377 . S
C48 C46 1.364 . S
C48 C49 1.374 . S
C49 H40 0.930 . S
C49 C48 1.374 . S
C49 C50 1.383 . S
C50 O44 1.412 . S
C50 C49 1.383 . S
C50 C51 1.394 . S
C51 H41 0.929 . S
C51 C47 1.377 . S
C51 C50 1.394 . S
H52 C59 0.929 . S
H53 C62 0.930 . S
H54 C64 0.929 . S
H55 C56 0.969 . S
C56 H55 0.969 . S
C56 O57 1.550 . S
C56 H58 0.973 . S
O57 C56 1.550 . S
O57 C63 1.412 . S
H58 C56 0.973 . S
C59 H52 0.929 . S
C59 C60 1.400 . S
C59 C61 1.364 . S
C60 C59 1.400 . S
C60 C64 1.377 . S
C61 C59 1.364 . S
C61 C62 1.374 . S
C62 H53 0.930 . S
C62 C61 1.374 . S
C62 C63 1.383 . S
C63 O57 1.412 . S
C63 C62 1.383 . S
C63 C64 1.394 . S
C64 H54 0.929 . S
C64 C60 1.377 . S
C64 C63 1.394 . S
H65 C72 0.929 . S
H66 C75 0.930 . S
H67 C77 0.929 . S
H68 C69 0.969 . S
C69 H68 0.969 . S
C69 O70 1.550 . S
C69 H71 0.973 . S
O70 C69 1.550 . S
O70 C76 1.412 . S
H71 C69 0.973 . S
C72 H65 0.929 . S
C72 C73 1.400 . S
C72 C74 1.364 . S
C73 C72 1.400 . S
C73 C77 1.377 . S
C74 C72 1.364 . S
C74 C75 1.374 . S
C75 H66 0.930 . S
C75 C74 1.374 . S
C75 C76 1.383 . S
C76 O70 1.412 . S
C76 C75 1.383 . S
C76 C77 1.394 . S
C77 H67 0.929 . S
C77 C73 1.377 . S
C77 C76 1.394 . S
H78 C85 0.929 . S
H79 C88 0.930 . S
H80 C90 0.929 . S
H81 C82 0.969 . S
C82 H81 0.969 . S
C82 O83 1.550 . S
C82 H84 0.973 . S
O83 C82 1.550 . S
O83 C89 1.412 . S
H84 C82 0.973 . S
C85 H78 0.929 . S
C85 C86 1.400 . S
C85 C87 1.364 . S
C86 C85 1.400 . S
C86 C90 1.377 . S
C87 C85 1.364 . S
C87 C88 1.374 . S
C88 H79 0.930 . S
C88 C87 1.374 . S
C88 C89 1.383 . S
C89 O83 1.412 . S
C89 C88 1.383 . S
C89 C90 1.394 . S
C90 H80 0.929 . S
C90 C86 1.377 . S
C90 C89 1.394 . S
H91 C98 0.929 . S
H92 C101 0.930 . S
H93 C103 0.929 . S
H94 C95 0.969 . S
C95 H94 0.969 . S
C95 O96 1.550 . S
C95 H97 0.973 . S
O96 C95 1.550 . S
O96 C102 1.412 . S
H97 C95 0.973 . S
C98 H91 0.929 . S
C98 C99 1.400 . S
C98 C100 1.364 . S
C99 C98 1.400 . S
C99 C103 1.377 . S
C100 C98 1.364 . S
C100 C101 1.374 . S
C101 H92 0.930 . S
C101 C100 1.374 . S
C101 C102 1.383 . S
C102 O96 1.412 . S
C102 C101 1.383 . S
C102 C103 1.394 . S
C103 H93 0.929 . S
C103 C99 1.377 . S
C103 C102 1.394 . S
Gd104 C107 2.818 . S
Gd104 O124 2.377 . S
Gd104 O126 2.448 . S
Gd104 O127 2.506 . S
Gd104 O128 2.435 . S
Gd104 O129 2.717 1_545 S
Gd104 O131 2.395 1_545 S
Gd104 O135 2.327 . S
Gd105 C116 2.818 1_545 S
Gd105 O125 2.395 1_655 S
Gd105 O129 2.327 1_645 S
Gd105 O130 2.377 1_545 S
Gd105 O132 2.448 1_545 S
Gd105 O133 2.506 1_545 S
Gd105 O134 2.435 . S
Gd105 O135 2.717 1_655 S
C106 O124 1.240 . S
C106 O125 1.240 . S
C107 Gd104 2.818 . S
C107 C108 1.510 . S
C107 O126 1.249 . S
C107 O127 1.252 . S
C108 C107 1.510 . S
C108 C109 1.404 . S
C108 C110 1.352 . S
C109 C108 1.404 . S
C109 C113 1.389 . S
C109 H136 0.930 . S
C110 C108 1.352 . S
C110 C112 1.374 . S
C110 H137 0.931 . S
C111 C112 1.359 . S
C111 C113 1.364 . S
C112 C110 1.374 . S
C112 C111 1.359 . S
C112 H138 0.931 . S
C113 C109 1.389 . S
C113 C111 1.364 . S
C113 H139 0.931 . S
C114 O128 1.256 1_565 S
C114 O129 1.257 . S
C115 O130 1.240 . S
C115 O131 1.240 1_655 S
C116 Gd105 2.818 1_565 S
C116 C117 1.510 . S
C116 O132 1.249 . S
C116 O133 1.252 . S
C117 C116 1.510 . S
C117 C118 1.404 . S
C117 C119 1.352 . S
C118 C117 1.404 . S
C118 C122 1.389 . S
C118 H140 0.930 . S
C119 C117 1.352 . S
C119 C121 1.374 . S
C119 H141 0.931 . S
C120 C121 1.359 . S
C120 C122 1.364 . S
C121 C119 1.374 . S
C121 C120 1.359 . S
C121 H142 0.931 . S
C122 C118 1.389 . S
C122 C120 1.364 . S
C122 H143 0.931 . S
C123 O134 1.256 . S
C123 O135 1.257 1_655 S
O124 Gd104 2.377 . S
O124 C106 1.240 . S
O125 Gd105 2.395 1_455 S
O125 C106 1.240 . S
O126 Gd104 2.448 . S
O126 C107 1.249 . S
O127 Gd104 2.506 . S
O127 C107 1.252 . S
O128 Gd104 2.435 . S
O128 C114 1.256 1_545 S
O129 Gd104 2.717 1_565 S
O129 Gd105 2.327 1_465 S
O129 C114 1.257 . S
O130 Gd105 2.377 1_565 S
O130 C115 1.240 . S
O131 Gd104 2.395 1_565 S
O131 C115 1.240 1_455 S
O132 Gd105 2.448 1_565 S
O132 C116 1.249 . S
O133 Gd105 2.506 1_565 S
O133 C116 1.252 . S
O134 Gd105 2.435 . S
O134 C123 1.256 . S
O135 Gd104 2.327 . S
O135 Gd105 2.717 1_455 S
O135 C123 1.257 1_455 S
H136 C109 0.930 . S
H137 C110 0.931 . S
H138 C112 0.931 . S
H139 C113 0.931 . S
H140 C118 0.930 . S
H141 C119 0.931 . S
H142 C121 0.931 . S
H143 C122 0.931 . S
Gd144 C147 2.818 . S
Gd144 O164 2.377 . S
Gd144 O166 2.448 . S
Gd144 O167 2.506 . S
Gd144 O168 2.435 1_545 S
Gd144 O169 2.717 1_545 S
Gd144 O171 2.395 1_544 S
Gd144 O175 2.327 1_554 S
Gd145 C156 2.818 1_545 S
Gd145 O165 2.395 1_556 S
Gd145 O169 2.327 1_546 S
Gd145 O170 2.377 1_545 S
Gd145 O172 2.448 1_545 S
Gd145 O173 2.506 1_545 S
Gd145 O174 2.435 . S
Gd145 O175 2.717 . S
C146 O164 1.240 . S
C146 O165 1.240 . S
C147 Gd144 2.818 . S
C147 C148 1.510 . S
C147 O166 1.249 . S
C147 O167 1.252 . S
C148 C147 1.510 . S
C148 C149 1.404 . S
C148 C150 1.352 . S
C149 C148 1.404 . S
C149 C153 1.389 . S
C149 H176 0.930 . S
C150 C148 1.352 . S
C150 C152 1.374 . S
C150 H177 0.931 . S
C151 C152 1.359 . S
C151 C153 1.364 . S
C152 C150 1.374 . S
C152 C151 1.359 . S
C152 H178 0.931 . S
C153 C149 1.389 . S
C153 C151 1.364 . S
C153 H179 0.931 . S
C154 O168 1.256 . S
C154 O169 1.257 . S
C155 O170 1.240 . S
C155 O171 1.240 . S
C156 Gd145 2.818 1_565 S
C156 C157 1.510 . S
C156 O172 1.249 . S
C156 O173 1.252 . S
C157 C156 1.510 . S
C157 C158 1.404 . S
C157 C159 1.352 . S
C158 C157 1.404 . S
C158 C162 1.389 . S
C158 H180 0.930 . S
C159 C157 1.352 . S
C159 C161 1.374 . S
C159 H181 0.931 . S
C160 C161 1.359 . S
C160 C162 1.364 . S
C161 C159 1.374 . S
C161 C160 1.359 . S
C161 H182 0.931 . S
C162 C158 1.389 . S
C162 C160 1.364 . S
C162 H183 0.931 . S
C163 O174 1.256 . S
C163 O175 1.257 . S
O164 Gd144 2.377 . S
O164 C146 1.240 . S
O165 Gd145 2.395 1_554 S
O165 C146 1.240 . S
O166 Gd144 2.448 . S
O166 C147 1.249 . S
O167 Gd144 2.506 . S
O167 C147 1.252 . S
O168 Gd144 2.435 1_565 S
O168 C154 1.256 . S
O169 Gd144 2.717 1_565 S
O169 Gd145 2.327 1_564 S
O169 C154 1.257 . S
O170 Gd145 2.377 1_565 S
O170 C155 1.240 . S
O171 Gd144 2.395 1_566 S
O171 C155 1.240 . S
O172 Gd145 2.448 1_565 S
O172 C156 1.249 . S
O173 Gd145 2.506 1_565 S
O173 C156 1.252 . S
O174 Gd145 2.435 . S
O174 C163 1.256 . S
O175 Gd144 2.327 1_556 S
O175 Gd145 2.717 . S
O175 C163 1.257 . S
H176 C149 0.930 . S
H177 C150 0.931 . S
H178 C152 0.931 . S
H179 C153 0.931 . S
H180 C158 0.930 . S
H181 C159 0.931 . S
H182 C161 0.931 . S
H183 C162 0.931 . S
Gd184 C187 2.818 . S
Gd184 O204 2.377 . S
Gd184 O206 2.448 . S
Gd184 O207 2.506 . S
Gd184 O208 2.435 . S
Gd184 O209 2.717 . S
Gd184 O211 2.395 . S
Gd184 O215 2.327 . S
Gd185 C196 2.818 . S
Gd185 O205 2.395 . S
Gd185 O209 2.327 . S
Gd185 O210 2.377 . S
Gd185 O212 2.448 . S
Gd185 O213 2.506 . S
Gd185 O214 2.435 . S
Gd185 O215 2.717 . S
C186 O204 1.240 . S
C186 O205 1.240 . S
C187 Gd184 2.818 . S
C187 C188 1.510 . S
C187 O206 1.249 . S
C187 O207 1.252 . S
C188 C187 1.510 . S
C188 C189 1.404 . S
C188 C190 1.352 . S
C189 C188 1.404 . S
C189 C193 1.389 . S
C189 H216 0.930 . S
C190 C188 1.352 . S
C190 C192 1.374 . S
C190 H217 0.931 . S
C191 C192 1.359 . S
C191 C193 1.364 . S
C192 C190 1.374 . S
C192 C191 1.359 . S
C192 H218 0.931 . S
C193 C189 1.389 . S
C193 C191 1.364 . S
C193 H219 0.931 . S
C194 O208 1.256 . S
C194 O209 1.257 . S
C195 O210 1.240 . S
C195 O211 1.240 . S
C196 Gd185 2.818 . S
C196 C197 1.510 . S
C196 O212 1.249 . S
C196 O213 1.252 . S
C197 C196 1.510 . S
C197 C198 1.404 . S
C197 C199 1.352 . S
C198 C197 1.404 . S
C198 C202 1.389 . S
C198 H220 0.930 . S
C199 C197 1.352 . S
C199 C201 1.374 . S
C199 H221 0.931 . S
C200 C201 1.359 . S
C200 C202 1.364 . S
C201 C199 1.374 . S
C201 C200 1.359 . S
C201 H222 0.931 . S
C202 C198 1.389 . S
C202 C200 1.364 . S
C202 H223 0.931 . S
C203 O214 1.256 . S
C203 O215 1.257 . S
O204 Gd184 2.377 . S
O204 C186 1.240 . S
O205 Gd185 2.395 . S
O205 C186 1.240 . S
O206 Gd184 2.448 . S
O206 C187 1.249 . S
O207 Gd184 2.506 . S
O207 C187 1.252 . S
O208 Gd184 2.435 . S
O208 C194 1.256 . S
O209 Gd184 2.717 . S
O209 Gd185 2.327 . S
O209 C194 1.257 . S
O210 Gd185 2.377 . S
O210 C195 1.240 . S
O211 Gd184 2.395 . S
O211 C195 1.240 . S
O212 Gd185 2.448 . S
O212 C196 1.249 . S
O213 Gd185 2.506 . S
O213 C196 1.252 . S
O214 Gd185 2.435 . S
O214 C203 1.256 . S
O215 Gd184 2.327 . S
O215 Gd185 2.717 . S
O215 C203 1.257 . S
H216 C189 0.930 . S
H217 C190 0.931 . S
H218 C192 0.931 . S
H219 C193 0.931 . S
H220 C198 0.930 . S
H221 C199 0.931 . S
H222 C201 0.931 . S
H223 C202 0.931 . S
Gd224 C227 2.818 . S
Gd224 O244 2.377 . S
Gd224 O246 2.448 . S
Gd224 O247 2.506 . S
Gd224 O248 2.435 . S
Gd224 O249 2.717 . S
Gd224 O251 2.395 1_455 S
Gd224 O255 2.327 . S
Gd225 C236 2.818 1_454 S
Gd225 O245 2.395 . S
Gd225 O249 2.327 . S
Gd225 O250 2.370 1_454 S
Gd225 O252 2.448 1_554 S
Gd225 O253 2.506 1_455 S
Gd225 O254 2.435 1_554 S
Gd225 O255 2.717 . S
C226 O244 1.240 . S
C226 O245 1.240 . S
C227 Gd224 2.818 . S
C227 C228 1.510 . S
C227 O246 1.249 . S
C227 O247 1.252 . S
C228 C227 1.510 . S
C228 C229 1.404 . S
C228 C230 1.352 . S
C229 C228 1.404 . S
C229 C233 1.389 . S
C229 H256 0.930 . S
C230 C228 1.352 . S
C230 C232 1.374 . S
C230 H257 0.931 . S
C231 C232 1.359 . S
C231 C233 1.364 . S
C232 C230 1.374 . S
C232 C231 1.359 . S
C232 H258 0.931 . S
C233 C229 1.389 . S
C233 C231 1.364 . S
C233 H259 0.931 . S
C234 O248 1.256 . S
C234 O249 1.257 . S
C235 O250 1.226 1_554 S
C235 O251 1.240 . S
C236 Gd225 2.818 1_656 S
C236 C237 1.510 . S
C236 O252 1.249 1_655 S
C236 O253 1.252 1_556 S
C237 C236 1.510 . S
C237 C238 1.404 . S
C237 C239 1.352 . S
C238 C237 1.404 . S
C238 C242 1.389 . S
C238 H260 0.930 . S
C239 C237 1.352 . S
C239 C241 1.374 . S
C239 H261 0.931 1_556 S
C240 C241 1.359 . S
C240 C242 1.364 . S
C241 C239 1.374 . S
C241 C240 1.359 . S
C241 H262 0.931 . S
C242 C238 1.389 . S
C242 C240 1.364 . S
C242 H263 0.931 . S
C243 O254 1.256 . S
C243 O255 1.257 1_556 S
O244 Gd224 2.377 . S
O244 C226 1.240 . S
O245 Gd225 2.395 . S
O245 C226 1.240 . S
O246 Gd224 2.448 . S
O246 C227 1.249 . S
O247 Gd224 2.506 . S
O247 C227 1.252 . S
O248 Gd224 2.435 . S
O248 C234 1.256 . S
O249 Gd224 2.717 . S
O249 Gd225 2.327 . S
O249 C234 1.257 . S
O250 Gd225 2.370 1_656 S
O250 C235 1.226 1_556 S
O251 Gd224 2.395 1_655 S
O251 C235 1.240 . S
O252 Gd225 2.448 1_556 S
O252 C236 1.249 1_455 S
O253 Gd225 2.506 1_655 S
O253 C236 1.252 1_554 S
O254 Gd225 2.435 1_556 S
O254 C243 1.256 . S
O255 Gd224 2.327 . S
O255 Gd225 2.717 . S
O255 C243 1.257 1_554 S
H256 C229 0.930 . S
H257 C230 0.931 . S
H258 C232 0.931 . S
H259 C233 0.931 . S
H260 C238 0.930 . S
H261 C239 0.931 1_554 S
H262 C241 0.931 . S
H263 C242 0.931 . S
H264 C270 0.930 . S
H265 C274 0.930 . S
H266 C279 0.929 . S
H267 C277 0.929 . S
H268 C272 0.929 . S
H269 C278 0.929 . S
C270 H264 0.930 . S
C270 C271 1.367 . S
C270 C278 1.378 . S
C271 C270 1.367 . S
C271 C279 1.433 . S
C272 H268 0.929 . S
C272 C274 1.378 . S
C272 C276 1.350 . S
C273 C276 1.463 . S
C273 C278 1.350 . S
C273 N281 1.427 . S
C274 H265 0.930 . S
C274 C272 1.378 . S
C274 C275 1.367 . S
C275 C274 1.367 . S
C275 C277 1.433 . S
C276 C272 1.350 . S
C276 C273 1.463 . S
C276 N280 1.427 . S
C277 H267 0.929 . S
C277 C275 1.433 . S
C277 N280 1.384 . S
C278 H269 0.929 . S
C278 C270 1.378 . S
C278 C273 1.350 . S
C279 H266 0.929 . S
C279 C271 1.433 . S
C279 N281 1.384 . S
N280 C276 1.427 . S
N280 C277 1.384 . S
N281 C273 1.427 . S
N281 C279 1.384 . S
H282 C288 0.930 . S
H283 C292 0.930 . S
H284 C297 0.929 . S
H285 C295 0.929 . S
H286 C290 0.929 . S
H287 C296 0.929 . S
C288 H282 0.930 . S
C288 C289 1.367 . S
C288 C296 1.378 . S
C289 C288 1.367 . S
C289 C297 1.433 . S
C290 H286 0.929 . S
C290 C292 1.378 . S
C290 C294 1.350 . S
C291 C294 1.463 . S
C291 C296 1.350 . S
C291 N299 1.427 . S
C292 H283 0.930 . S
C292 C290 1.378 . S
C292 C293 1.367 . S
C293 C292 1.367 . S
C293 C295 1.433 . S
C294 C290 1.350 . S
C294 C291 1.463 . S
C294 N298 1.427 . S
C295 H285 0.929 . S
C295 C293 1.433 . S
C295 N298 1.384 . S
C296 H287 0.929 . S
C296 C288 1.378 . S
C296 C291 1.350 . S
C297 H284 0.929 . S
C297 C289 1.433 . S
C297 N299 1.384 . S
N298 C294 1.427 . S
N298 C295 1.384 . S
N299 C291 1.427 . S
N299 C297 1.384 . S
H300 C306 0.930 . S
H301 C310 0.930 . S
H302 C315 0.929 . S
H303 C313 0.929 . S
H304 C308 0.929 . S
H305 C314 0.929 . S
C306 H300 0.930 . S
C306 C307 1.367 . S
C306 C314 1.378 . S
C307 C306 1.367 . S
C307 C315 1.433 . S
C308 H304 0.929 . S
C308 C310 1.378 . S
C308 C312 1.350 . S
C309 C312 1.463 . S
C309 C314 1.350 . S
C309 N317 1.427 . S
C310 H301 0.930 . S
C310 C308 1.378 . S
C310 C311 1.367 . S
C311 C310 1.367 . S
C311 C313 1.433 . S
C312 C308 1.350 . S
C312 C309 1.463 . S
C312 N316 1.427 . S
C313 H303 0.929 . S
C313 C311 1.433 . S
C313 N316 1.384 . S
C314 H305 0.929 . S
C314 C306 1.378 . S
C314 C309 1.350 . S
C315 H302 0.929 . S
C315 C307 1.433 . S
C315 N317 1.384 . S
N316 C312 1.427 . S
N316 C313 1.384 . S
N317 C309 1.427 . S
N317 C315 1.384 . S
H318 C324 0.930 . S
H319 C328 0.930 1_455 S
H320 C333 0.929 . S
H321 C331 0.929 . S
H322 C326 0.929 . S
H323 C332 0.929 . S
C324 H318 0.930 . S
C324 C325 1.367 . S
C324 C332 1.378 . S
C325 C324 1.367 . S
C325 C333 1.433 . S
C326 H322 0.929 . S
C326 C328 1.378 . S
C326 C330 1.350 . S
C327 C330 1.463 . S
C327 C332 1.350 . S
C327 N335 1.427 . S
C328 H319 0.930 1_655 S
C328 C326 1.378 . S
C328 C329 1.367 . S
C329 C328 1.367 . S
C329 C331 1.433 . S
C330 C326 1.350 . S
C330 C327 1.463 . S
C330 N334 1.427 . S
C331 H321 0.929 . S
C331 C329 1.433 . S
C331 N334 1.384 . S
C332 H323 0.929 . S
C332 C324 1.378 . S
C332 C327 1.350 . S
C333 H320 0.929 . S
C333 C325 1.433 . S
C333 N335 1.384 . S
N334 C330 1.427 . S
N334 C331 1.384 . S
N335 C327 1.427 . S
N335 C333 1.384 . S
H336 C342 0.930 . S
H337 C346 0.930 . S
H338 C351 0.929 . S
H339 C349 0.929 . S
H340 C344 0.929 . S
H341 C350 0.929 . S
C342 H336 0.930 . S
C342 C343 1.367 . S
C342 C350 1.378 . S
C343 C342 1.367 . S
C343 C351 1.433 . S
C344 H340 0.929 . S
C344 C346 1.378 . S
C344 C348 1.350 . S
C345 C348 1.463 . S
C345 C350 1.350 . S
C345 N353 1.427 . S
C346 H337 0.930 . S
C346 C344 1.378 . S
C346 C347 1.367 . S
C347 C346 1.367 . S
C347 C349 1.433 . S
C348 C344 1.350 . S
C348 C345 1.463 . S
C348 N352 1.427 . S
C349 H339 0.929 . S
C349 C347 1.433 . S
C349 N352 1.384 . S
C350 H341 0.929 . S
C350 C342 1.378 . S
C350 C345 1.350 . S
C351 H338 0.929 . S
C351 C343 1.433 . S
C351 N353 1.384 . S
N352 C348 1.427 . S
N352 C349 1.384 . S
N353 C345 1.427 . S
N353 C351 1.384 . S
H354 C360 0.930 . S
H355 C364 0.930 . S
H356 C369 0.929 . S
H357 C367 0.929 1_545 S
H358 C362 0.929 . S
H359 C368 0.929 . S
C360 H354 0.930 . S
C360 C361 1.367 . S
C360 C368 1.378 . S
C361 C360 1.367 . S
C361 C369 1.433 . S
C362 H358 0.929 . S
C362 C364 1.378 . S
C362 C366 1.350 . S
C363 C366 1.463 . S
C363 C368 1.350 . S
C363 N371 1.427 . S
C364 H355 0.930 . S
C364 C362 1.378 . S
C364 C365 1.367 . S
C365 C364 1.367 . S
C365 C367 1.433 . S
C366 C362 1.350 . S
C366 C363 1.463 . S
C366 N370 1.427 . S
C367 H357 0.929 1_565 S
C367 C365 1.433 . S
C367 N370 1.384 . S
C368 H359 0.929 . S
C368 C360 1.378 . S
C368 C363 1.350 . S
C369 H356 0.929 . S
C369 C361 1.433 . S
C369 N371 1.384 . S
N370 C366 1.427 . S
N370 C367 1.384 . S
N371 C363 1.427 . S
N371 C369 1.384 . S
H372 C378 0.930 . S
H373 C382 0.908 1_554 S
H374 C387 0.929 . S
H375 C385 0.929 . S
H376 C380 0.929 . S
H377 C386 0.929 . S
C378 H372 0.930 . S
C378 C379 1.367 . S
C378 C386 1.378 . S
C379 C378 1.367 . S
C379 C387 1.433 . S
C380 H376 0.929 . S
C380 C382 1.398 . S
C380 C384 1.350 . S
C381 C384 1.463 . S
C381 C386 1.350 . S
C381 N389 1.427 . S
C382 H373 0.908 1_556 S
C382 C380 1.398 . S
C382 C383 1.370 . S
C383 C382 1.370 . S
C383 C385 1.433 . S
C384 C380 1.350 . S
C384 C381 1.463 . S
C384 N388 1.427 . S
C385 H375 0.929 . S
C385 C383 1.433 . S
C385 N388 1.384 . S
C386 H377 0.929 . S
C386 C378 1.378 . S
C386 C381 1.350 . S
C387 H374 0.929 . S
C387 C379 1.433 . S
C387 N389 1.384 . S
N388 C384 1.427 . S
N388 C385 1.384 . S
N389 C381 1.427 . S
N389 C387 1.384 . S
H390 C396 0.930 . S
H391 C400 0.930 . S
H392 C405 0.929 . S
H393 C403 0.929 . S
H394 C398 0.929 . S
H395 C404 0.929 . S
C396 H390 0.930 . S
C396 C397 1.367 . S
C396 C404 1.378 . S
C397 C396 1.367 . S
C397 C405 1.433 . S
C398 H394 0.929 . S
C398 C400 1.378 . S
C398 C402 1.350 . S
C399 C402 1.463 . S
C399 C404 1.350 . S
C399 N407 1.427 . S
C400 H391 0.930 . S
C400 C398 1.378 . S
C400 C401 1.367 . S
C401 C400 1.367 . S
C401 C403 1.433 . S
C402 C398 1.350 . S
C402 C399 1.463 . S
C402 N406 1.427 . S
C403 H393 0.929 . S
C403 C401 1.433 . S
C403 N406 1.384 . S
C404 H395 0.929 . S
C404 C396 1.378 . S
C404 C399 1.350 . S
C405 H392 0.929 . S
C405 C397 1.433 . S
C405 N407 1.384 . S
N406 C402 1.427 . S
N406 C403 1.384 . S
N407 C399 1.427 . S
N407 C405 1.384 . S
H408 C414 0.930 . S
H409 C418 0.930 . S
H410 C423 0.929 . S
H411 C421 0.929 . S
H412 C416 0.929 . S
H413 C422 0.929 . S
C414 H408 0.930 . S
C414 C415 1.367 . S
C414 C422 1.378 . S
C415 C414 1.367 . S
C415 C423 1.433 . S
C416 H412 0.929 . S
C416 C418 1.378 . S
C416 C420 1.350 . S
C417 C420 1.463 . S
C417 C422 1.350 . S
C417 N425 1.427 . S
C418 H409 0.930 . S
C418 C416 1.378 . S
C418 C419 1.367 . S
C419 C418 1.367 . S
C419 C421 1.433 . S
C420 C416 1.350 . S
C420 C417 1.463 . S
C420 N424 1.427 . S
C421 H411 0.929 . S
C421 C419 1.433 . S
C421 N424 1.384 . S
C422 H413 0.929 . S
C422 C414 1.378 . S
C422 C417 1.350 . S
C423 H410 0.929 . S
C423 C415 1.433 . S
C423 N425 1.384 . S
N424 C420 1.427 . S
N424 C421 1.384 . S
N425 C417 1.427 . S
N425 C423 1.384 . S
H426 C432 0.930 . S
H427 C436 0.930 . S
H428 C441 0.929 . S
H429 C439 0.929 . S
H430 C434 0.929 . S
H431 C440 0.929 . S
C432 H426 0.930 . S
C432 C433 1.367 . S
C432 C440 1.378 . S
C433 C432 1.367 . S
C433 C441 1.433 . S
C434 H430 0.929 . S
C434 C436 1.378 . S
C434 C438 1.350 . S
C435 C438 1.463 . S
C435 C440 1.350 . S
C435 N443 1.427 . S
C436 H427 0.930 . S
C436 C434 1.378 . S
C436 C437 1.367 . S
C437 C436 1.367 . S
C437 C439 1.433 . S
C438 C434 1.350 . S
C438 C435 1.463 . S
C438 N442 1.427 . S
C439 H429 0.929 . S
C439 C437 1.433 . S
C439 N442 1.384 . S
C440 H431 0.929 . S
C440 C432 1.378 . S
C440 C435 1.350 . S
C441 H428 0.929 . S
C441 C433 1.433 . S
C441 N443 1.384 . S
N442 C438 1.427 . S
N442 C439 1.384 . S
N443 C435 1.427 . S
N443 C441 1.384 . S
H444 C450 0.930 . S
H445 C454 0.930 . S
H446 C459 0.929 . S
H447 C457 0.929 . S
H448 C452 0.929 . S
H449 C458 0.929 . S
C450 H444 0.930 . S
C450 C451 1.367 . S
C450 C458 1.378 . S
C451 C450 1.367 . S
C451 C459 1.433 . S
C452 H448 0.929 . S
C452 C454 1.378 . S
C452 C456 1.350 . S
C453 C456 1.463 . S
C453 C458 1.350 . S
C453 N461 1.427 . S
C454 H445 0.930 . S
C454 C452 1.378 . S
C454 C455 1.367 . S
C455 C454 1.367 . S
C455 C457 1.433 . S
C456 C452 1.350 . S
C456 C453 1.463 . S
C456 N460 1.427 . S
C457 H447 0.929 . S
C457 C455 1.433 . S
C457 N460 1.384 . S
C458 H449 0.929 . S
C458 C450 1.378 . S
C458 C453 1.350 . S
C459 H446 0.929 . S
C459 C451 1.433 . S
C459 N461 1.384 . S
N460 C456 1.427 . S
N460 C457 1.384 . S
N461 C453 1.427 . S
N461 C459 1.384 . S
H462 C468 0.930 . S
H463 C472 0.930 . S
H464 C477 0.929 . S
H465 C475 0.929 . S
H466 C470 0.929 . S
H467 C476 0.929 . S
C468 H462 0.930 . S
C468 C469 1.367 . S
C468 C476 1.378 . S
C469 C468 1.367 . S
C469 C477 1.433 . S
C470 H466 0.929 . S
C470 C472 1.378 . S
C470 C474 1.350 . S
C471 C474 1.463 . S
C471 C476 1.350 . S
C471 N479 1.427 . S
C472 H463 0.930 . S
C472 C470 1.378 . S
C472 C473 1.367 . S
C473 C472 1.367 . S
C473 C475 1.433 . S
C474 C470 1.350 . S
C474 C471 1.463 . S
C474 N478 1.427 . S
C475 H465 0.929 . S
C475 C473 1.433 . S
C475 N478 1.384 . S
C476 H467 0.929 . S
C476 C468 1.378 . S
C476 C471 1.350 . S
C477 H464 0.929 . S
C477 C469 1.433 . S
C477 N479 1.384 . S
N478 C474 1.427 . S
N478 C475 1.384 . S
N479 C471 1.427 . S
N479 C477 1.384 . S
H480 C486 0.930 . S
H481 C490 0.930 . S
H482 C495 0.929 . S
H483 C493 0.929 . S
H484 C488 0.929 . S
H485 C494 0.929 . S
C486 H480 0.930 . S
C486 C487 1.367 . S
C486 C494 1.378 . S
C487 C486 1.367 . S
C487 C495 1.433 . S
C488 H484 0.929 . S
C488 C490 1.378 . S
C488 C492 1.350 . S
C489 C492 1.463 . S
C489 C494 1.350 . S
C489 N497 1.427 . S
C490 H481 0.930 . S
C490 C488 1.378 . S
C490 C491 1.367 . S
C491 C490 1.367 . S
C491 C493 1.433 . S
C492 C488 1.350 . S
C492 C489 1.463 . S
C492 N496 1.427 . S
C493 H483 0.929 . S
C493 C491 1.433 . S
C493 N496 1.384 . S
C494 H485 0.929 . S
C494 C486 1.378 . S
C494 C489 1.350 . S
C495 H482 0.929 . S
C495 C487 1.433 . S
C495 N497 1.384 . S
N496 C492 1.427 . S
N496 C493 1.384 . S
N497 C489 1.427 . S
N497 C495 1.384 . S
H498 C504 0.930 . S
H499 C508 0.930 . S
H500 C513 0.929 . S
H501 C511 0.929 . S
H502 C506 0.929 . S
H503 C512 0.929 . S
C504 H498 0.930 . S
C504 C505 1.367 . S
C504 C512 1.378 . S
C505 C504 1.367 . S
C505 C513 1.433 . S
C506 H502 0.929 . S
C506 C508 1.378 . S
C506 C510 1.350 . S
C507 C510 1.463 . S
C507 C512 1.350 . S
C507 N515 1.427 . S
C508 H499 0.930 . S
C508 C506 1.378 . S
C508 C509 1.367 . S
C509 C508 1.367 . S
C509 C511 1.433 . S
C510 C506 1.350 . S
C510 C507 1.463 . S
C510 N514 1.427 . S
C511 H501 0.929 . S
C511 C509 1.433 . S
C511 N514 1.384 . S
C512 H503 0.929 . S
C512 C504 1.378 . S
C512 C507 1.350 . S
C513 H500 0.929 . S
C513 C505 1.433 . S
C513 N515 1.384 . S
N514 C510 1.427 . S
N514 C511 1.384 . S
N515 C507 1.427 . S
N515 C513 1.384 . S
H516 C522 0.930 . S
H517 C526 0.930 . S
H518 C531 0.929 . S
H519 C529 0.929 . S
H520 C524 0.929 . S
H521 C530 0.929 . S
C522 H516 0.930 . S
C522 C523 1.367 . S
C522 C530 1.378 . S
C523 C522 1.367 . S
C523 C531 1.433 . S
C524 H520 0.929 . S
C524 C526 1.378 . S
C524 C528 1.350 . S
C525 C528 1.463 . S
C525 C530 1.350 . S
C525 N533 1.427 . S
C526 H517 0.930 . S
C526 C524 1.378 . S
C526 C527 1.367 . S
C527 C526 1.367 . S
C527 C529 1.433 . S
C528 C524 1.350 . S
C528 C525 1.463 . S
C528 N532 1.427 . S
C529 H519 0.929 . S
C529 C527 1.433 . S
C529 N532 1.384 . S
C530 H521 0.929 . S
C530 C522 1.378 . S
C530 C525 1.350 . S
C531 H518 0.929 . S
C531 C523 1.433 . S
C531 N533 1.384 . S
N532 C528 1.427 . S
N532 C529 1.384 . S
N533 C525 1.427 . S
N533 C531 1.384 . S
H534 C540 0.930 . S
H535 C544 0.930 . S
H536 C549 0.929 . S
H537 C547 0.929 . S
H538 C542 0.929 . S
H539 C548 0.929 . S
C540 H534 0.930 . S
C540 C541 1.367 . S
C540 C548 1.378 . S
C541 C540 1.367 . S
C541 C549 1.433 . S
C542 H538 0.929 . S
C542 C544 1.378 . S
C542 C546 1.350 . S
C543 C546 1.463 . S
C543 C548 1.350 . S
C543 N551 1.427 . S
C544 H535 0.930 . S
C544 C542 1.378 . S
C544 C545 1.367 . S
C545 C544 1.367 . S
C545 C547 1.433 . S
C546 C542 1.350 . S
C546 C543 1.463 . S
C546 N550 1.427 . S
C547 H537 0.929 . S
C547 C545 1.433 . S
C547 N550 1.384 . S
C548 H539 0.929 . S
C548 C540 1.378 . S
C548 C543 1.350 . S
C549 H536 0.929 . S
C549 C541 1.433 . S
C549 N551 1.384 . S
N550 C546 1.427 . S
N550 C547 1.384 . S
N551 C543 1.427 . S
N551 C549 1.384 . S
H552 C558 0.930 . S
H553 C562 0.930 . S
H554 C567 0.929 . S
H555 C565 0.929 . S
H556 C560 0.929 . S
H557 C566 0.929 . S
C558 H552 0.930 . S
C558 C559 1.367 . S
C558 C566 1.378 . S
C559 C558 1.367 . S
C559 C567 1.433 . S
C560 H556 0.929 . S
C560 C562 1.378 . S
C560 C564 1.350 . S
C561 C564 1.463 . S
C561 C566 1.350 . S
C561 N569 1.427 . S
C562 H553 0.930 . S
C562 C560 1.378 . S
C562 C563 1.367 . S
C563 C562 1.367 . S
C563 C565 1.433 . S
C564 C560 1.350 . S
C564 C561 1.463 . S
C564 N568 1.427 . S
C565 H555 0.929 . S
C565 C563 1.433 . S
C565 N568 1.384 . S
C566 H557 0.929 . S
C566 C558 1.378 . S
C566 C561 1.350 . S
C567 H554 0.929 . S
C567 C559 1.433 . S
C567 N569 1.384 . S
N568 C564 1.427 . S
N568 C565 1.384 . S
N569 C561 1.427 . S
N569 C567 1.384 . S
H570 C576 0.930 . S
H571 C580 0.930 1_455 S
H572 C585 0.929 . S
H573 C583 0.929 . S
H574 C578 0.929 . S
H575 C584 0.929 . S
C576 H570 0.930 . S
C576 C577 1.367 . S
C576 C584 1.378 . S
C577 C576 1.367 . S
C577 C585 1.433 . S
C578 H574 0.929 . S
C578 C580 1.378 . S
C578 C582 1.350 . S
C579 C582 1.463 . S
C579 C584 1.350 . S
C579 N587 1.427 . S
C580 H571 0.930 1_655 S
C580 C578 1.378 . S
C580 C581 1.367 . S
C581 C580 1.367 . S
C581 C583 1.433 . S
C582 C578 1.350 . S
C582 C579 1.463 . S
C582 N586 1.427 . S
C583 H573 0.929 . S
C583 C581 1.433 . S
C583 N586 1.384 . S
C584 H575 0.929 . S
C584 C576 1.378 . S
C584 C579 1.350 . S
C585 H572 0.929 . S
C585 C577 1.433 . S
C585 N587 1.384 . S
N586 C582 1.427 . S
N586 C583 1.384 . S
N587 C579 1.427 . S
N587 C585 1.384 . S
H588 C594 0.930 . S
H589 C598 0.930 . S
H590 C603 0.929 . S
H591 C601 0.929 . S
H592 C596 0.929 . S
H593 C602 0.929 . S
C594 H588 0.930 . S
C594 C595 1.367 . S
C594 C602 1.378 . S
C595 C594 1.367 . S
C595 C603 1.433 . S
C596 H592 0.929 . S
C596 C598 1.378 . S
C596 C600 1.350 . S
C597 C600 1.463 . S
C597 C602 1.350 . S
C597 N605 1.427 . S
C598 H589 0.930 . S
C598 C596 1.378 . S
C598 C599 1.367 . S
C599 C598 1.367 . S
C599 C601 1.433 . S
C600 C596 1.350 . S
C600 C597 1.463 . S
C600 N604 1.427 . S
C601 H591 0.929 . S
C601 C599 1.433 . S
C601 N604 1.384 . S
C602 H593 0.929 . S
C602 C594 1.378 . S
C602 C597 1.350 . S
C603 H590 0.929 . S
C603 C595 1.433 . S
C603 N605 1.384 . S
N604 C600 1.427 . S
N604 C601 1.384 . S
N605 C597 1.427 . S
N605 C603 1.384 . S
H606 C612 0.930 . S
H607 C616 0.930 . S
H608 C621 0.929 . S
H609 C619 0.929 . S
H610 C614 0.929 . S
H611 C620 0.929 . S
C612 H606 0.930 . S
C612 C613 1.367 . S
C612 C620 1.378 . S
C613 C612 1.367 . S
C613 C621 1.433 . S
C614 H610 0.929 . S
C614 C616 1.378 . S
C614 C618 1.350 . S
C615 C618 1.463 . S
C615 C620 1.350 . S
C615 N623 1.427 . S
C616 H607 0.930 . S
C616 C614 1.378 . S
C616 C617 1.367 . S
C617 C616 1.367 . S
C617 C619 1.433 . S
C618 C614 1.350 . S
C618 C615 1.463 . S
C618 N622 1.427 . S
C619 H609 0.929 . S
C619 C617 1.433 . S
C619 N622 1.384 . S
C620 H611 0.929 . S
C620 C612 1.378 . S
C620 C615 1.350 . S
C621 H608 0.929 . S
C621 C613 1.433 . S
C621 N623 1.384 . S
N622 C618 1.427 . S
N622 C619 1.384 . S
N623 C615 1.427 . S
N623 C621 1.384 . S
H624 C630 0.930 . S
H625 C634 0.930 . S
H626 C639 0.929 . S
H627 C637 0.929 . S
H628 C632 0.929 . S
H629 C638 0.929 . S
C630 H624 0.930 . S
C630 C631 1.367 . S
C630 C638 1.378 . S
C631 C630 1.367 . S
C631 C639 1.433 . S
C632 H628 0.929 . S
C632 C634 1.378 . S
C632 C636 1.350 . S
C633 C636 1.463 . S
C633 C638 1.350 . S
C633 N641 1.427 . S
C634 H625 0.930 . S
C634 C632 1.378 . S
C634 C635 1.367 . S
C635 C634 1.367 . S
C635 C637 1.433 . S
C636 C632 1.350 . S
C636 C633 1.463 . S
C636 N640 1.427 . S
C637 H627 0.929 . S
C637 C635 1.433 . S
C637 N640 1.384 . S
C638 H629 0.929 . S
C638 C630 1.378 . S
C638 C633 1.350 . S
C639 H626 0.929 . S
C639 C631 1.433 . S
C639 N641 1.384 . S
N640 C636 1.427 . S
N640 C637 1.384 . S
N641 C633 1.427 . S
N641 C639 1.384 . S
H642 C648 0.930 . S
H643 C652 0.930 . S
H644 C657 0.929 . S
H645 C655 0.929 . S
H646 C650 0.929 . S
H647 C656 0.929 . S
C648 H642 0.930 . S
C648 C649 1.367 . S
C648 C656 1.378 . S
C649 C648 1.367 . S
C649 C657 1.433 . S
C650 H646 0.929 . S
C650 C652 1.378 . S
C650 C654 1.350 . S
C651 C654 1.463 . S
C651 C656 1.350 . S
C651 N659 1.427 . S
C652 H643 0.930 . S
C652 C650 1.378 . S
C652 C653 1.367 . S
C653 C652 1.367 . S
C653 C655 1.433 . S
C654 C650 1.350 . S
C654 C651 1.463 . S
C654 N658 1.427 . S
C655 H645 0.929 . S
C655 C653 1.433 . S
C655 N658 1.384 . S
C656 H647 0.929 . S
C656 C648 1.378 . S
C656 C651 1.350 . S
C657 H644 0.929 . S
C657 C649 1.433 . S
C657 N659 1.384 . S
N658 C654 1.427 . S
N658 C655 1.384 . S
N659 C651 1.427 . S
N659 C657 1.384 . S
H660 C666 0.930 . S
H661 C670 0.930 . S
H662 C675 0.929 . S
H663 C673 0.929 . S
H664 C668 0.929 . S
H665 C674 0.929 . S
C666 H660 0.930 . S
C666 C667 1.367 . S
C666 C674 1.378 . S
C667 C666 1.367 . S
C667 C675 1.433 . S
C668 H664 0.929 . S
C668 C670 1.378 . S
C668 C672 1.350 . S
C669 C672 1.463 . S
C669 C674 1.350 . S
C669 N677 1.427 . S
C670 H661 0.930 . S
C670 C668 1.378 . S
C670 C671 1.367 . S
C671 C670 1.367 . S
C671 C673 1.433 . S
C672 C668 1.350 . S
C672 C669 1.463 . S
C672 N676 1.427 . S
C673 H663 0.929 . S
C673 C671 1.433 . S
C673 N676 1.384 . S
C674 H665 0.929 . S
C674 C666 1.378 . S
C674 C669 1.350 . S
C675 H662 0.929 . S
C675 C667 1.433 . S
C675 N677 1.384 . S
N676 C672 1.427 . S
N676 C673 1.384 . S
N677 C669 1.427 . S
N677 C675 1.384 . S
H678 C684 0.930 . S
H679 C688 0.930 . S
H680 C693 0.929 . S
H681 C691 0.929 . S
H682 C686 0.929 . S
H683 C692 0.929 . S
C684 H678 0.930 . S
C684 C685 1.367 . S
C684 C692 1.378 . S
C685 C684 1.367 . S
C685 C693 1.433 . S
C686 H682 0.929 . S
C686 C688 1.378 . S
C686 C690 1.350 . S
C687 C690 1.463 . S
C687 C692 1.350 . S
C687 N695 1.427 . S
C688 H679 0.930 . S
C688 C686 1.378 . S
C688 C689 1.367 . S
C689 C688 1.367 . S
C689 C691 1.433 . S
C690 C686 1.350 . S
C690 C687 1.463 . S
C690 N694 1.427 . S
C691 H681 0.929 . S
C691 C689 1.433 . S
C691 N694 1.384 . S
C692 H683 0.929 . S
C692 C684 1.378 . S
C692 C687 1.350 . S
C693 H680 0.929 . S
C693 C685 1.433 . S
C693 N695 1.384 . S
N694 C690 1.427 . S
N694 C691 1.384 . S
N695 C687 1.427 . S
N695 C693 1.384 . S
C271 C9 1.423 . S
C275 C111 1.466 . S
C289 C21 1.112 . S
C293 C160 1.118 . S
C311 C186 2.183 . S
C307 C30 2.189 . S
C325 C43 2.169 . S
C329 C234 2.242 1_655 S
C347 C146 2.106 . S
C343 C4 1.830 . S
C365 C114 1.565 . S
C361 C22 1.600 . S
C383 C235 1.584 1_556 S
C379 C34 1.616 . S
C401 C203 1.510 . S
C397 C48 1.536 . S
C415 C8 1.572 . S
C419 C231 1.622 . S
C437 C163 2.270 . S
C433 C35 2.335 . S
C451 C47 2.554 . S
C455 C115 2.547 . S
C469 C17 0.900 . S
C473 C200 0.907 . S
C491 C120 1.041 . S
C487 C60 1.029 . S
C505 C74 1.121 . S
C509 C151 1.112 . S
C523 C82 1.914 . S
C527 C195 1.965 . S
C541 C100 2.746 . S
C545 C243 2.675 . S
C559 C61 2.421 . S
C563 C155 2.525 . S
C581 C123 0.791 . S
C577 C73 0.785 . S
C599 C226 2.134 . S
C595 C87 2.178 . S
C617 C194 1.301 . S
C613 C95 1.291 . S
C631 C56 1.522 . S
C635 C240 1.512 . S
C653 C154 2.470 . S
C649 C86 2.523 . S
C671 C106 2.355 . S
C667 C99 2.356 . S
C685 C69 0.760 . S
C689 C191 0.758 . S
