# Generated by pormake.
# Topology ptr, (4,4)-cn, num edge types: 1
# Building blocks:
#     Node 0, Type 0, BuildingBlock: KUFVIS_clean_sbu_0, # of connection points: 4
#     Node 1, Type 0, BuildingBlock: KUFVIS_clean_sbu_0, # of connection points: 4
#     Node 2, Type 0, BuildingBlock: KUFVIS_clean_sbu_0, # of connection points: 4
#     Node 3, Type 0, BuildingBlock: KUFVIS_clean_sbu_0, # of connection points: 4
#     Node 4, Type 0, BuildingBlock: KUFVIS_clean_sbu_0, # of connection points: 4
#     Node 5, Type 0, BuildingBlock: KUFVIS_clean_sbu_0, # of connection points: 4
#     Node 6, Type 0, BuildingBlock: KUFVIS_clean_sbu_0, # of connection points: 4
#     Node 7, Type 0, BuildingBlock: KUFVIS_clean_sbu_0, # of connection points: 4
#     Node 8, Type 0, BuildingBlock: KUFVIS_clean_sbu_0, # of connection points: 4
#     Node 9, Type 0, BuildingBlock: KUFVIS_clean_sbu_0, # of connection points: 4
#     Node 10, Type 0, BuildingBlock: KUFVIS_clean_sbu_0, # of connection points: 4
#     Node 11, Type 0, BuildingBlock: KUFVIS_clean_sbu_0, # of connection points: 4
#     Node 12, Type 0, BuildingBlock: KUFVIS_clean_sbu_0, # of connection points: 4
#     Node 13, Type 0, BuildingBlock: KUFVIS_clean_sbu_0, # of connection points: 4
#     Node 14, Type 0, BuildingBlock: KUFVIS_clean_sbu_0, # of connection points: 4
#     Node 15, Type 0, BuildingBlock: KUFVIS_clean_sbu_0, # of connection points: 4
#     Node 16, Type 0, BuildingBlock: KUFVIS_clean_sbu_0, # of connection points: 4
#     Node 17, Type 0, BuildingBlock: KUFVIS_clean_sbu_0, # of connection points: 4
#     Node 18, Type 1, BuildingBlock: AZAVOO_clean_linker_0, # of connection points: 4
#     Node 19, Type 1, BuildingBlock: AZAVOO_clean_linker_0, # of connection points: 4
#     Node 20, Type 1, BuildingBlock: AZAVOO_clean_linker_0, # of connection points: 4
#     Node 21, Type 1, BuildingBlock: AZAVOO_clean_linker_0, # of connection points: 4
#     Node 22, Type 1, BuildingBlock: AZAVOO_clean_linker_0, # of connection points: 4
#     Node 23, Type 1, BuildingBlock: AZAVOO_clean_linker_0, # of connection points: 4
#     Node 24, Type 1, BuildingBlock: AZAVOO_clean_linker_0, # of connection points: 4
#     Node 25, Type 1, BuildingBlock: AZAVOO_clean_linker_0, # of connection points: 4
#     Node 26, Type 1, BuildingBlock: AZAVOO_clean_linker_0, # of connection points: 4
#     Node 27, Type 1, BuildingBlock: AZAVOO_clean_linker_0, # of connection points: 4
#     Node 28, Type 1, BuildingBlock: AZAVOO_clean_linker_0, # of connection points: 4
#     Node 29, Type 1, BuildingBlock: AZAVOO_clean_linker_0, # of connection points: 4
#     Node 30, Type 1, BuildingBlock: AZAVOO_clean_linker_0, # of connection points: 4
#     Node 31, Type 1, BuildingBlock: AZAVOO_clean_linker_0, # of connection points: 4
#     Node 32, Type 1, BuildingBlock: AZAVOO_clean_linker_0, # of connection points: 4
#     Node 33, Type 1, BuildingBlock: AZAVOO_clean_linker_0, # of connection points: 4
#     Node 34, Type 1, BuildingBlock: AZAVOO_clean_linker_0, # of connection points: 4
#     Node 35, Type 1, BuildingBlock: AZAVOO_clean_linker_0, # of connection points: 4
#     Edge 36, Type (0, 1), BuildingBlock: EZIPEK_clean_linker_0, # of connection points: 2
#     Edge 37, Type (0, 1), BuildingBlock: EZIPEK_clean_linker_0, # of connection points: 2
#     Edge 38, Type (0, 1), BuildingBlock: EZIPEK_clean_linker_0, # of connection points: 2
#     Edge 39, Type (0, 1), BuildingBlock: EZIPEK_clean_linker_0, # of connection points: 2
#     Edge 40, Type (0, 1), BuildingBlock: EZIPEK_clean_linker_0, # of connection points: 2
#     Edge 41, Type (0, 1), BuildingBlock: EZIPEK_clean_linker_0, # of connection points: 2
#     Edge 42, Type (0, 1), BuildingBlock: EZIPEK_clean_linker_0, # of connection points: 2
#     Edge 43, Type (0, 1), BuildingBlock: EZIPEK_clean_linker_0, # of connection points: 2
#     Edge 44, Type (0, 1), BuildingBlock: EZIPEK_clean_linker_0, # of connection points: 2
#     Edge 45, Type (0, 1), BuildingBlock: EZIPEK_clean_linker_0, # of connection points: 2
#     Edge 46, Type (0, 1), BuildingBlock: EZIPEK_clean_linker_0, # of connection points: 2
#     Edge 47, Type (0, 1), BuildingBlock: EZIPEK_clean_linker_0, # of connection points: 2
#     Edge 48, Type (0, 1), BuildingBlock: EZIPEK_clean_linker_0, # of connection points: 2
#     Edge 49, Type (0, 1), BuildingBlock: EZIPEK_clean_linker_0, # of connection points: 2
#     Edge 50, Type (0, 1), BuildingBlock: EZIPEK_clean_linker_0, # of connection points: 2
#     Edge 51, Type (0, 1), BuildingBlock: EZIPEK_clean_linker_0, # of connection points: 2
#     Edge 52, Type (0, 1), BuildingBlock: EZIPEK_clean_linker_0, # of connection points: 2
#     Edge 53, Type (0, 1), BuildingBlock: EZIPEK_clean_linker_0, # of connection points: 2
#     Edge 54, Type (0, 1), BuildingBlock: EZIPEK_clean_linker_0, # of connection points: 2
#     Edge 55, Type (0, 1), BuildingBlock: EZIPEK_clean_linker_0, # of connection points: 2
#     Edge 56, Type (0, 1), BuildingBlock: EZIPEK_clean_linker_0, # of connection points: 2
#     Edge 57, Type (0, 1), BuildingBlock: EZIPEK_clean_linker_0, # of connection points: 2
#     Edge 58, Type (0, 1), BuildingBlock: EZIPEK_clean_linker_0, # of connection points: 2
#     Edge 59, Type (0, 1), BuildingBlock: EZIPEK_clean_linker_0, # of connection points: 2
#     Edge 60, Type (0, 1), BuildingBlock: EZIPEK_clean_linker_0, # of connection points: 2
#     Edge 61, Type (0, 1), BuildingBlock: EZIPEK_clean_linker_0, # of connection points: 2
#     Edge 62, Type (0, 1), BuildingBlock: EZIPEK_clean_linker_0, # of connection points: 2
#     Edge 63, Type (0, 1), BuildingBlock: EZIPEK_clean_linker_0, # of connection points: 2
#     Edge 64, Type (0, 1), BuildingBlock: EZIPEK_clean_linker_0, # of connection points: 2
#     Edge 65, Type (0, 1), BuildingBlock: EZIPEK_clean_linker_0, # of connection points: 2
#     Edge 66, Type (0, 1), BuildingBlock: EZIPEK_clean_linker_0, # of connection points: 2
#     Edge 67, Type (0, 1), BuildingBlock: EZIPEK_clean_linker_0, # of connection points: 2
#     Edge 68, Type (0, 1), BuildingBlock: EZIPEK_clean_linker_0, # of connection points: 2
#     Edge 69, Type (0, 1), BuildingBlock: EZIPEK_clean_linker_0, # of connection points: 2
#     Edge 70, Type (0, 1), BuildingBlock: EZIPEK_clean_linker_0, # of connection points: 2
#     Edge 71, Type (0, 1), BuildingBlock: EZIPEK_clean_linker_0, # of connection points: 2
#     Edge 72, Type (0, 1), BuildingBlock: EZIPEK_clean_linker_0, # of connection points: 2
#     Edge 73, Type (0, 1), BuildingBlock: EZIPEK_clean_linker_0, # of connection points: 2
#     Edge 74, Type (0, 1), BuildingBlock: EZIPEK_clean_linker_0, # of connection points: 2
#     Edge 75, Type (0, 1), BuildingBlock: EZIPEK_clean_linker_0, # of connection points: 2
#     Edge 76, Type (0, 1), BuildingBlock: EZIPEK_clean_linker_0, # of connection points: 2
#     Edge 77, Type (0, 1), BuildingBlock: EZIPEK_clean_linker_0, # of connection points: 2
#     Edge 78, Type (0, 1), BuildingBlock: EZIPEK_clean_linker_0, # of connection points: 2
#     Edge 79, Type (0, 1), BuildingBlock: EZIPEK_clean_linker_0, # of connection points: 2
#     Edge 80, Type (0, 1), BuildingBlock: EZIPEK_clean_linker_0, # of connection points: 2
#     Edge 81, Type (0, 1), BuildingBlock: EZIPEK_clean_linker_0, # of connection points: 2
#     Edge 82, Type (0, 1), BuildingBlock: EZIPEK_clean_linker_0, # of connection points: 2
#     Edge 83, Type (0, 1), BuildingBlock: EZIPEK_clean_linker_0, # of connection points: 2
#     Edge 84, Type (0, 1), BuildingBlock: EZIPEK_clean_linker_0, # of connection points: 2
#     Edge 85, Type (0, 1), BuildingBlock: EZIPEK_clean_linker_0, # of connection points: 2
#     Edge 86, Type (0, 1), BuildingBlock: EZIPEK_clean_linker_0, # of connection points: 2
#     Edge 87, Type (0, 1), BuildingBlock: EZIPEK_clean_linker_0, # of connection points: 2
#     Edge 88, Type (0, 1), BuildingBlock: EZIPEK_clean_linker_0, # of connection points: 2
#     Edge 89, Type (0, 1), BuildingBlock: EZIPEK_clean_linker_0, # of connection points: 2
#     Edge 90, Type (0, 1), BuildingBlock: EZIPEK_clean_linker_0, # of connection points: 2
#     Edge 91, Type (0, 1), BuildingBlock: EZIPEK_clean_linker_0, # of connection points: 2
#     Edge 92, Type (0, 1), BuildingBlock: EZIPEK_clean_linker_0, # of connection points: 2
#     Edge 93, Type (0, 1), BuildingBlock: EZIPEK_clean_linker_0, # of connection points: 2
#     Edge 94, Type (0, 1), BuildingBlock: EZIPEK_clean_linker_0, # of connection points: 2
#     Edge 95, Type (0, 1), BuildingBlock: EZIPEK_clean_linker_0, # of connection points: 2
#     Edge 96, Type (0, 1), BuildingBlock: EZIPEK_clean_linker_0, # of connection points: 2
#     Edge 97, Type (0, 1), BuildingBlock: EZIPEK_clean_linker_0, # of connection points: 2
#     Edge 98, Type (0, 1), BuildingBlock: EZIPEK_clean_linker_0, # of connection points: 2
#     Edge 99, Type (0, 1), BuildingBlock: EZIPEK_clean_linker_0, # of connection points: 2
#     Edge 100, Type (0, 1), BuildingBlock: EZIPEK_clean_linker_0, # of connection points: 2
#     Edge 101, Type (0, 1), BuildingBlock: EZIPEK_clean_linker_0, # of connection points: 2
#     Edge 102, Type (0, 1), BuildingBlock: EZIPEK_clean_linker_0, # of connection points: 2
#     Edge 103, Type (0, 1), BuildingBlock: EZIPEK_clean_linker_0, # of connection points: 2
#     Edge 104, Type (0, 1), BuildingBlock: EZIPEK_clean_linker_0, # of connection points: 2
#     Edge 105, Type (0, 1), BuildingBlock: EZIPEK_clean_linker_0, # of connection points: 2
#     Edge 106, Type (0, 1), BuildingBlock: EZIPEK_clean_linker_0, # of connection points: 2
#     Edge 107, Type (0, 1), BuildingBlock: EZIPEK_clean_linker_0, # of connection points: 2
# Relax obj value: 0.061
# Max RMSD: 0.202
# Mean RMSD: 0.130
data_MOF--net-ptr--node1-KUFVIS_clean_sbu_0--node2-AZAVOO_clean_linker_0--edge1-EZIPEK_clean_linker_0
_symmetry_space_group_name_H-M    P1
_symmetry_Int_Tables_number       1
_symmetry_cell_setting            triclinic
loop_
_symmetry_equiv_pos_as_xyz
'x, y, z'
_cell_length_a     63.566967
_cell_length_b     62.02831
_cell_length_c     53.360046
_cell_angle_alpha  92.742377
_cell_angle_beta   93.418367
_cell_angle_gamma 119.42157
loop_
_atom_site_label
_atom_site_type_symbol
_atom_site_fract_x
_atom_site_fract_y
_atom_site_fract_z
_atom_type_partial_charge
Mn0 Mn 0.00596 0.37371 0.01051 0.0
Mn1 Mn 0.05542 0.43088 0.01808 0.0
C2 C 0.01166 0.4006 0.98001 0.0
C3 C 0.98711 0.33187 0.99651 0.0
C4 C 0.01159 0.41561 0.04783 0.0
O5 O 0.02773 0.37068 0.03779 0.0
O6 O 0.06179 0.40791 0.03797 0.0
C7 C 0.09168 0.42217 0.99413 0.0
N8 N 0.07919 0.43473 0.99582 0.0
C9 C 0.10463 0.46456 0.96835 0.0
C10 C 0.11775 0.45192 0.96626 0.0
C11 C 0.11111 0.43052 0.97904 0.0
C12 C 0.08524 0.45515 0.98337 0.0
H13 H 0.08698 0.4061 0.00445 0.0
C14 C 0.04985 0.38601 0.04521 0.0
O15 O 0.97905 0.33985 0.01443 0.0
O16 O 0.007 0.34792 0.98778 0.0
N17 N 0.052 0.45488 0.99955 0.0
C18 C 0.03455 0.46156 0.99939 0.0
C19 C 0.0371 0.48145 0.98583 0.0
C20 C 0.05746 0.49407 0.97236 0.0
C21 C 0.07455 0.48601 0.97175 0.0
C22 C 0.07079 0.46585 0.98533 0.0
H23 H 0.01836 0.45109 0.00869 0.0
O24 O 0.99051 0.38156 0.98195 0.0
O25 O 0.02939 0.40309 0.99584 0.0
O26 O 0.99808 0.39437 0.0357 0.0
O27 O 0.03326 0.43009 0.04293 0.0
C28 C 0.09469 0.49658 0.95749 0.0
C29 C 0.1098 0.48592 0.95588 0.0
H30 H 0.13285 0.45839 0.95476 0.0
H31 H 0.12115 0.42067 0.97752 0.0
H32 H 0.02332 0.48689 0.98559 0.0
H33 H 0.05935 0.50936 0.96187 0.0
H34 H 0.09826 0.51238 0.94703 0.0
H35 H 0.12484 0.49379 0.94433 0.0
Mn36 Mn 0.62294 0.61979 0.07411 0.0
Mn37 Mn 0.62292 0.56553 0.076 0.0
C38 C 0.59893 0.59141 0.10075 0.0
C39 C 0.64013 0.66154 0.08823 0.0
C40 C 0.59685 0.57644 0.03299 0.0
O41 O 0.6526 0.62591 0.05646 0.0
O42 O 0.65287 0.59012 0.06146 0.0
C43 C 0.66459 0.58263 0.11451 0.0
N44 N 0.64083 0.56666 0.10656 0.0
C45 C 0.63535 0.54467 0.14371 0.0
C46 C 0.6598 0.56075 0.1522 0.0
C47 C 0.67445 0.57988 0.13758 0.0
C48 C 0.62651 0.54837 0.1206 0.0
H49 H 0.67589 0.59738 0.10333 0.0
C50 C 0.66191 0.61194 0.05384 0.0
O51 O 0.62746 0.65287 0.06648 0.0
O52 O 0.64348 0.64621 0.10131 0.0
N53 N 0.59529 0.53992 0.08987 0.0
C54 C 0.5716 0.52752 0.0803 0.0
C55 C 0.55439 0.50803 0.09286 0.0
C56 C 0.56167 0.50165 0.11535 0.0
C57 C 0.58607 0.51497 0.12517 0.0
C58 C 0.60244 0.53401 0.11162 0.0
H59 H 0.56567 0.53331 0.06398 0.0
O60 O 0.59469 0.60893 0.09438 0.0
O61 O 0.61749 0.59139 0.09158 0.0
O62 O 0.60103 0.59751 0.04298 0.0
O63 O 0.6041 0.56291 0.04373 0.0
C64 C 0.59472 0.51044 0.14811 0.0
C65 C 0.61931 0.52534 0.15743 0.0
H66 H 0.66747 0.5587 0.17001 0.0
H67 H 0.6933 0.59246 0.14408 0.0
H68 H 0.53548 0.49834 0.08551 0.0
H69 H 0.54829 0.48684 0.12518 0.0
H70 H 0.58254 0.49576 0.15894 0.0
H71 H 0.62564 0.52196 0.17532 0.0
Mn72 Mn 0.37286 0.9887 0.03259 0.0
Mn73 Mn 0.42752 0.03982 0.0298 0.0
C74 C 0.40597 0.99428 0.05863 0.0
C75 C 0.33569 0.96946 0.04994 0.0
C76 C 0.40473 0.99603 0.98967 0.0
O77 O 0.36449 0.01196 0.01469 0.0
O78 O 0.40132 0.0467 0.01764 0.0
C79 C 0.42573 0.07571 0.067 0.0
N80 N 0.43647 0.06258 0.05908 0.0
C81 C 0.46934 0.08373 0.09183 0.0
C82 C 0.45857 0.09739 0.10041 0.0
C83 C 0.43661 0.09327 0.08802 0.0
C84 C 0.45749 0.06626 0.071 0.0
H85 H 0.40902 0.07284 0.05733 0.0
C86 C 0.3783 0.03487 0.0118 0.0
O87 O 0.33828 0.9613 0.02812 0.0
O88 O 0.35432 0.98915 0.06119 0.0
N89 N 0.4542 0.03561 0.04157 0.0
C90 C 0.46225 0.02097 0.03092 0.0
C91 C 0.48359 0.02222 0.04154 0.0
C92 C 0.4966 0.0387 0.06288 0.0
C93 C 0.48824 0.05399 0.07323 0.0
C94 C 0.46676 0.05181 0.06188 0.0
H95 H 0.45267 0.0087 0.01424 0.0
O96 O 0.38715 0.97238 0.05321 0.0
O97 O 0.40499 0.01233 0.04812 0.0
O98 O 0.38592 0.98189 1.00046 0.0
O99 O 0.42066 0.01788 0.99875 0.0
C100 C 0.50055 0.07155 0.09413 0.0
C101 C 0.49121 0.08655 0.10329 0.0
H102 H 0.46695 0.11101 0.11655 0.0
H103 H 0.42819 0.10374 0.09453 0.0
H104 H 0.49019 0.01084 0.03296 0.0
H105 H 0.51314 0.03971 0.07092 0.0
H106 H 0.51724 0.07371 0.10325 0.0
H107 H 0.50079 0.09993 0.11943 0.0
Mn108 Mn 0.99838 0.63154 0.03733 0.0
Mn109 Mn 0.05441 0.63896 0.05012 0.0
C110 C 0.01122 0.60928 0.01247 0.0
C111 C 0.97309 0.64392 0.01719 0.0
C112 C 0.01215 0.60913 0.08079 0.0
O113 O 0.01554 0.66353 0.06039 0.0
O114 O 0.05343 0.66881 0.06457 0.0
C115 C 0.0822 0.68084 0.0195 0.0
N116 N 0.07447 0.65696 0.0247 0.0
C117 C 0.09509 0.65087 0.991 0.0
C118 C 0.10297 0.6753 0.98509 0.0
C119 C 0.09655 0.69037 0.99947 0.0
C120 C 0.08077 0.64239 0.01115 0.0
H121 H 0.07752 0.69252 0.03062 0.0
C122 C 0.03796 0.67598 0.06838 0.0
O123 O 0.96708 0.63154 0.03697 0.0
O124 O 0.99402 0.64961 0.00948 0.0
N125 N 0.05778 0.61165 0.03689 0.0
C126 C 0.04948 0.58882 0.0456 0.0
C127 C 0.05481 0.57164 0.03362 0.0
C128 C 0.06883 0.57819 0.01302 0.0
C129 C 0.07782 0.60206 0.0049 0.0
C130 C 0.07215 0.61849 0.01776 0.0
H131 H 0.03866 0.58362 0.0614 0.0
O132 O 0.98829 0.60186 0.01287 0.0
O133 O 0.02585 0.62947 0.02668 0.0
O134 O 0.9962 0.61161 0.06753 0.0
O135 O 0.03448 0.61928 0.07647 0.0
C136 C 0.09215 0.61018 0.98453 0.0
C137 C 0.10074 0.63455 0.97755 0.0
H138 H 0.114 0.6827 0.96962 0.0
H139 H 0.10267 0.7093 0.99514 0.0
H140 H 0.04796 0.55332 0.04014 0.0
H141 H 0.07266 0.5648 0.00365 0.0
H142 H 0.09662 0.59781 0.97407 0.0
H143 H 0.11166 0.64055 0.96179 0.0
Mn144 Mn 0.37176 0.38468 0.02035 0.0
Mn145 Mn 0.41885 0.37444 0.02842 0.0
C146 C 0.40166 0.40683 0.05307 0.0
C147 C 0.33206 0.37252 0.02953 0.0
C148 C 0.4124 0.40235 0.98555 0.0
O149 O 0.36073 0.35221 0.99895 0.0
O150 O 0.39039 0.34383 0.01134 0.0
C151 C 0.40078 0.33614 0.06481 0.0
N152 N 0.41764 0.35905 0.05892 0.0
C153 C 0.44071 0.36735 0.0991 0.0
C154 C 0.42347 0.34391 0.10567 0.0
C155 C 0.40343 0.32824 0.08842 0.0
C156 C 0.43706 0.37423 0.07532 0.0
H157 H 0.38543 0.32401 0.05159 0.0
C158 C 0.36998 0.33804 0.99931 0.0
O159 O 0.3406 0.38424 0.00973 0.0
O160 O 0.34622 0.36738 0.04319 0.0
N161 N 0.44736 0.40266 0.04505 0.0
C162 C 0.46185 0.4251 0.03633 0.0
C163 C 0.48307 0.44271 0.05105 0.0
C164 C 0.48901 0.43721 0.07477 0.0
C165 C 0.4736 0.41419 0.08358 0.0
C166 C 0.45298 0.39718 0.06784 0.0
H167 H 0.45701 0.42977 0.01855 0.0
O168 O 0.38708 0.41468 0.04538 0.0
O169 O 0.3981 0.38637 0.04123 0.0
O170 O 0.39461 0.40402 0.99368 0.0
O171 O 0.42161 0.39073 0.99673 0.0
C172 C 0.47776 0.40757 0.1075 0.0
C173 C 0.46127 0.38421 0.1153 0.0
H174 H 0.42544 0.33777 0.12388 0.0
H175 H 0.39006 0.3101 0.09332 0.0
H176 H 0.49462 0.46062 0.0443 0.0
H177 H 0.50519 0.45095 0.08624 0.0
H178 H 0.49346 0.42042 0.12015 0.0
H179 H 0.46454 0.37942 0.13383 0.0
Mn180 Mn 0.62523 0.02054 0.0461 0.0
Mn181 Mn 0.57334 0.96602 0.03968 0.0
C182 C 0.5939 0.01511 0.01698 0.0
C183 C 0.66458 0.04238 0.03323 0.0
C184 C 0.58913 0.00465 0.08492 0.0
O185 O 0.63296 0.99709 0.06504 0.0
O186 O 0.60082 0.96056 0.05022 0.0
C187 C 0.58246 0.94085 0.99658 0.0
N188 N 0.5688 0.94972 0.00685 0.0
C189 C 0.54164 0.93665 0.96888 0.0
C190 C 0.55546 0.92744 0.95787 0.0
C191 C 0.57595 0.92954 0.9718 0.0
C192 C 0.54906 0.94782 0.99361 0.0
H193 H 0.59832 0.94256 0.00714 0.0
C194 C 0.62179 0.97342 0.0625 0.0
O195 O 0.65943 0.0485 0.05474 0.0
O196 O 0.6471 0.02341 0.01988 0.0
N197 N 0.54553 0.96877 0.02901 0.0
C198 C 0.53328 0.97714 0.0429 0.0
C199 C 0.51189 0.97564 0.03207 0.0
C200 C 0.50313 0.96533 0.00712 0.0
C201 C 0.51554 0.95597 0.99348 0.0
C202 C 0.5366 0.95766 0.00543 0.0
H203 H 0.53946 0.98441 0.06226 0.0
O204 O 0.61166 0.03727 0.02415 0.0
O205 O 0.5954 0.99733 0.02716 0.0
O206 O 0.60716 0.02246 0.07592 0.0
O207 O 0.57664 0.9826 0.07385 0.0
C208 C 0.50772 0.9448 0.96861 0.0
C209 C 0.52085 0.93529 0.95625 0.0
H210 H 0.55053 0.91875 0.93875 0.0
H211 H 0.58674 0.92252 0.96342 0.0
H212 H 0.50203 0.98208 0.04311 0.0
H213 H 0.48668 0.96432 0.99879 0.0
H214 H 0.49163 0.94343 0.95881 0.0
H215 H 0.51472 0.92684 0.93708 0.0
Mn216 Mn 0.66257 0.70783 0.35393 0.0
Mn217 Mn 0.71501 0.76241 0.36555 0.0
C218 C 0.67205 0.73847 0.32666 0.0
C219 C 0.64139 0.66705 0.33631 0.0
C220 C 0.6707 0.74852 0.3942 0.0
O221 O 0.68219 0.70004 0.37972 0.0
O222 O 0.7176 0.73631 0.38356 0.0
C223 C 0.74582 0.74753 0.33848 0.0
N224 N 0.73662 0.7631 0.34176 0.0
C225 C 0.75727 0.7863 0.30763 0.0
C226 C 0.76709 0.77062 0.30399 0.0
C227 C 0.76126 0.75109 0.31943 0.0
C228 C 0.7418 0.78168 0.32674 0.0
H229 H 0.74131 0.73243 0.35021 0.0
C230 C 0.70431 0.71375 0.38845 0.0
O231 O 0.63372 0.67455 0.35499 0.0
O232 O 0.66185 0.68293 0.32846 0.0
N233 N 0.71559 0.78949 0.34915 0.0
C234 C 0.70586 0.80388 0.35607 0.0
C235 C 0.71013 0.82439 0.34271 0.0
C236 C 0.72501 0.8304 0.32283 0.0
C237 C 0.73587 0.81609 0.31686 0.0
C238 C 0.7309 0.79585 0.33085 0.0
H239 H 0.69539 0.80005 0.37202 0.0
O240 O 0.64983 0.72071 0.32686 0.0
O241 O 0.68799 0.73757 0.34234 0.0
O242 O 0.65667 0.72778 0.3815 0.0
O243 O 0.69287 0.76284 0.39021 0.0
C244 C 0.75174 0.82137 0.29784 0.0
C245 C 0.76222 0.80631 0.29303 0.0
H246 H 0.77906 0.77335 0.28937 0.0
H247 H 0.76866 0.73883 0.31667 0.0
H248 H 0.70223 0.83573 0.34797 0.0
H249 H 0.72829 0.84625 0.31258 0.0
H250 H 0.75611 0.83704 0.28689 0.0
H251 H 0.77421 0.81042 0.2782 0.0
Mn252 Mn 0.29526 0.95086 0.40783 0.0
Mn253 Mn 0.29452 0.89629 0.4083 0.0
C254 C 0.27329 0.92361 0.43631 0.0
C255 C 0.31383 0.99308 0.42067 0.0
C256 C 0.26714 0.90824 0.36737 0.0
O257 O 0.32265 0.95506 0.38673 0.0
O258 O 0.32494 0.92077 0.39461 0.0
C259 C 0.33563 0.90987 0.44659 0.0
N260 N 0.31169 0.89527 0.43845 0.0
C261 C 0.30474 0.87153 0.47447 0.0
C262 C 0.32933 0.88628 0.48321 0.0
C263 C 0.34483 0.90558 0.46924 0.0
C264 C 0.29661 0.87672 0.45179 0.0
H265 H 0.34759 0.92467 0.43588 0.0
C266 C 0.33273 0.94165 0.38513 0.0
O267 O 0.29932 0.98363 0.4001 0.0
O268 O 0.31859 0.97823 0.43305 0.0
N269 N 0.26615 0.87087 0.42127 0.0
C270 C 0.24259 0.85964 0.41139 0.0
C271 C 0.22463 0.84027 0.4234 0.0
C272 C 0.23104 0.83262 0.44552 0.0
C273 C 0.25538 0.84457 0.4555 0.0
C274 C 0.27252 0.86364 0.44257 0.0
H275 H 0.23735 0.86617 0.39516 0.0
O276 O 0.26948 0.9417 0.43118 0.0
O277 O 0.29065 0.92269 0.42529 0.0
O278 O 0.27011 0.92812 0.37904 0.0
O279 O 0.27636 0.8956 0.37623 0.0
C280 C 0.26324 0.83865 0.47807 0.0
C281 C 0.28789 0.85215 0.48757 0.0
H282 H 0.33648 0.88307 0.5007 0.0
H283 H 0.36382 0.91711 0.47589 0.0
H284 H 0.20584 0.83169 0.41594 0.0
H285 H 0.21708 0.81792 0.45493 0.0
H286 H 0.25041 0.82401 0.48848 0.0
H287 H 0.29365 0.84769 0.50514 0.0
Mn288 Mn 0.04474 0.32096 0.36152 0.0
Mn289 Mn 0.09265 0.37807 0.37477 0.0
C290 C 0.07462 0.32722 0.39255 0.0
C291 C 0.00527 0.29305 0.3703 0.0
C292 C 0.08434 0.34545 0.32624 0.0
O293 O 0.03416 0.34363 0.34549 0.0
O294 O 0.06445 0.38141 0.36177 0.0
C295 C 0.07729 0.3981 0.41696 0.0
N296 N 0.09313 0.39155 0.4079 0.0
C297 C 0.11813 0.40569 0.44739 0.0
C298 C 0.10204 0.41253 0.45716 0.0
C299 C 0.0815 0.40867 0.44188 0.0
C300 C 0.11299 0.39526 0.4224 0.0
H301 H 0.06157 0.3953 0.40524 0.0
C302 C 0.04375 0.36718 0.34941 0.0
O303 O 0.0131 0.29034 0.34903 0.0
O304 O 0.01992 0.31202 0.38567 0.0
N305 N 0.1207 0.37673 0.38788 0.0
C306 C 0.13311 0.36691 0.3765 0.0
C307 C 0.15383 0.36861 0.38948 0.0
C308 C 0.16134 0.38 0.41419 0.0
C309 C 0.14796 0.38945 0.42576 0.0
C310 C 0.12761 0.38744 0.4118 0.0
H311 H 0.12687 0.35721 0.35796 0.0
O312 O 0.05986 0.30506 0.38203 0.0
O313 O 0.07144 0.34481 0.38412 0.0
O314 O 0.06681 0.3254 0.33295 0.0
O315 O 0.09389 0.36591 0.34013 0.0
C316 C 0.15377 0.40037 0.45076 0.0
C317 C 0.13884 0.40844 0.46159 0.0
H318 H 0.10518 0.42059 0.47641 0.0
H319 H 0.06898 0.41385 0.44929 0.0
H320 H 0.16374 0.36078 0.38059 0.0
H321 H 0.17714 0.38099 0.42427 0.0
H322 H 0.16955 0.40241 0.46191 0.0
H323 H 0.14329 0.41645 0.48096 0.0
Mn324 Mn 0.66421 0.96027 0.37548 0.0
Mn325 Mn 0.71978 0.96719 0.39003 0.0
C326 C 0.67678 0.93673 0.35237 0.0
C327 C 0.63981 0.97248 0.3532 0.0
C328 C 0.67728 0.93997 0.42114 0.0
O329 O 0.68167 0.99303 0.39735 0.0
O330 O 0.71949 0.9981 0.40199 0.0
C331 C 0.74857 0.00666 0.35734 0.0
N332 N 0.74014 0.98312 0.36405 0.0
C333 C 0.76053 0.97428 0.3319 0.0
C334 C 0.76913 0.99834 0.32444 0.0
C335 C 0.76319 0.01463 0.33728 0.0
C336 C 0.74603 0.9674 0.35203 0.0
H337 H 0.74422 0.01926 0.36727 0.0
C338 C 0.70416 0.00561 0.40506 0.0
O339 O 0.63323 0.96111 0.37355 0.0
O340 O 0.66081 0.97743 0.34629 0.0
N341 N 0.72224 0.93868 0.37913 0.0
C342 C 0.71306 0.91633 0.38909 0.0
C343 C 0.71807 0.8982 0.37896 0.0
C344 C 0.73256 0.90326 0.35878 0.0
C345 C 0.7421 0.92651 0.34908 0.0
C346 C 0.73679 0.94399 0.36021 0.0
H347 H 0.70189 0.91228 0.40459 0.0
O348 O 0.65389 0.9297 0.35226 0.0
O349 O 0.69141 0.95714 0.36621 0.0
O350 O 0.66132 0.94144 0.40676 0.0
O351 O 0.69965 0.94976 0.41717 0.0
C352 C 0.75655 0.93298 0.32871 0.0
C353 C 0.76568 0.95682 0.32006 0.0
H354 H 0.78036 0.00452 0.30893 0.0
H355 H 0.76987 0.03328 0.33175 0.0
H356 H 0.71064 0.88029 0.38656 0.0
H357 H 0.73614 0.88912 0.35082 0.0
H358 H 0.76069 0.91975 0.31952 0.0
H359 H 0.77671 0.96156 0.30434 0.0
Mn360 Mn 0.03074 0.71358 0.35531 0.0
Mn361 Mn 0.08336 0.71378 0.34795 0.0
C362 C 0.06435 0.73753 0.38399 0.0
C363 C 0.99353 0.69727 0.37281 0.0
C364 C 0.06453 0.7405 0.31518 0.0
O365 O 0.0199 0.68257 0.33169 0.0
O366 O 0.05532 0.68212 0.33138 0.0
C367 C 0.07943 0.67195 0.37572 0.0
N368 N 0.09083 0.69672 0.37282 0.0
C369 C 0.12292 0.70464 0.40459 0.0
C370 C 0.11111 0.67929 0.40839 0.0
C371 C 0.08927 0.66288 0.39386 0.0
C372 C 0.11209 0.71262 0.38641 0.0
H373 H 0.06318 0.65918 0.36402 0.0
C374 C 0.03236 0.67249 0.32543 0.0
O375 O 0.99747 0.70968 0.35304 0.0
O376 O 0.01061 0.69315 0.38143 0.0
N377 N 0.11111 0.74323 0.36371 0.0
C378 C 0.11985 0.76725 0.35829 0.0
C379 C 0.14116 0.78613 0.37181 0.0
C380 C 0.15341 0.78009 0.3905 0.0
C381 C 0.1442 0.75525 0.39559 0.0
C382 C 0.12269 0.73727 0.38176 0.0
H383 H 0.11057 0.77202 0.3439 0.0
O384 O 0.0469 0.74261 0.38095 0.0
O385 O 0.06187 0.71871 0.36956 0.0
O386 O 0.04575 0.73585 0.32644 0.0
O387 O 0.07878 0.73232 0.32136 0.0
C388 C 0.15546 0.74764 0.41391 0.0
C389 C 0.14495 0.72231 0.41825 0.0
H390 H 0.11871 0.67222 0.42229 0.0
H391 H 0.08021 0.64323 0.39641 0.0
H392 H 0.14816 0.80528 0.36779 0.0
H393 H 0.16985 0.79465 0.40084 0.0
H394 H 0.17217 0.76112 0.42484 0.0
H395 H 0.15373 0.71668 0.43243 0.0
Mn396 Mn 0.28781 0.34667 0.38071 0.0
Mn397 Mn 0.23884 0.29003 0.36724 0.0
C398 C 0.25832 0.34105 0.34941 0.0
C399 C 0.3279 0.37344 0.37319 0.0
C400 C 0.24749 0.32317 0.41549 0.0
O401 O 0.29751 0.32348 0.39681 0.0
O402 O 0.26642 0.28604 0.38104 0.0
C403 C 0.25496 0.26976 0.32592 0.0
N404 N 0.23895 0.27638 0.33438 0.0
C405 C 0.2147 0.26217 0.29444 0.0
C406 C 0.23104 0.25539 0.28524 0.0
C407 C 0.25125 0.2592 0.30106 0.0
C408 C 0.21937 0.27264 0.31937 0.0
H409 H 0.27042 0.2725 0.33804 0.0
C410 C 0.28739 0.29992 0.39299 0.0
O411 O 0.31967 0.3763 0.39411 0.0
O412 O 0.31302 0.35514 0.35715 0.0
N413 N 0.21124 0.29167 0.35312 0.0
C414 C 0.19888 0.30195 0.36368 0.0
C415 C 0.17784 0.29933 0.35053 0.0
C416 C 0.17025 0.287 0.3262 0.0
C417 C 0.18409 0.27789 0.31507 0.0
C418 C 0.2045 0.28043 0.32941 0.0
H419 H 0.2056 0.31296 0.3815 0.0
O420 O 0.27359 0.3632 0.35971 0.0
O421 O 0.26087 0.32321 0.35811 0.0
O422 O 0.26579 0.34271 0.40904 0.0
O423 O 0.23697 0.30258 0.40162 0.0
C424 C 0.17877 0.26695 0.29011 0.0
C425 C 0.19412 0.25917 0.27977 0.0
H426 H 0.22826 0.24729 0.26606 0.0
H427 H 0.26393 0.25399 0.29412 0.0
H428 H 0.16787 0.30739 0.35885 0.0
H429 H 0.1543 0.28547 0.31589 0.0
H430 H 0.16317 0.26483 0.27855 0.0
H431 H 0.19004 0.25112 0.26043 0.0
Mn432 Mn 0.33169 0.03668 0.68144 0.0
Mn433 Mn 0.38044 0.09415 0.6902 0.0
C434 C 0.33875 0.0631 0.65017 0.0
C435 C 0.31401 0.99487 0.66767 0.0
C436 C 0.33514 0.07781 0.71789 0.0
O437 O 0.35258 0.03442 0.71035 0.0
O438 O 0.38704 0.07134 0.71014 0.0
C439 C 0.41929 0.08846 0.66834 0.0
N440 N 0.40535 0.09951 0.66889 0.0
C441 C 0.43034 0.12987 0.64156 0.0
C442 C 0.4448 0.11863 0.64049 0.0
C443 C 0.43917 0.09776 0.65383 0.0
C444 C 0.41063 0.11962 0.65613 0.0
H445 H 0.41544 0.07288 0.67913 0.0
C446 C 0.37476 0.04962 0.71776 0.0
O447 O 0.3048 0.0026 0.68458 0.0
O448 O 0.33445 0.01114 0.66009 0.0
N449 N 0.3762 0.1175 0.67126 0.0
C450 C 0.3577 0.12267 0.67005 0.0
C451 C 0.35931 0.14187 0.65591 0.0
C452 C 0.37972 0.15521 0.64271 0.0
C453 C 0.39785 0.14853 0.64301 0.0
C454 C 0.39509 0.12909 0.65728 0.0
H455 H 0.34146 0.11157 0.67904 0.0
O456 O 0.31746 0.04398 0.65133 0.0
O457 O 0.35566 0.06603 0.66739 0.0
O458 O 0.32197 0.05701 0.7049 0.0
O459 O 0.35723 0.09216 0.71431 0.0
C460 C 0.41808 0.15978 0.62897 0.0
C461 C 0.43443 0.15055 0.62839 0.0
H462 H 0.4602 0.1258 0.62938 0.0
H463 H 0.45031 0.08904 0.65318 0.0
H464 H 0.34473 0.14617 0.65492 0.0
H465 H 0.38085 0.16991 0.63171 0.0
H466 H 0.42085 0.17504 0.61797 0.0
H467 H 0.44961 0.15898 0.61708 0.0
Mn468 Mn 0.96222 0.29019 0.73792 0.0
Mn469 Mn 0.96353 0.23657 0.73737 0.0
C470 C 0.93913 0.26081 0.76433 0.0
C471 C 0.97915 0.33149 0.75368 0.0
C472 C 0.93682 0.24819 0.69551 0.0
O473 O 0.9918 0.29733 0.7194 0.0
O474 O 0.99361 0.26224 0.72393 0.0
C475 C 0.00469 0.25216 0.77614 0.0
N476 N 0.98102 0.23642 0.76766 0.0
C477 C 0.97501 0.21269 0.80354 0.0
C478 C 0.99937 0.22853 0.81259 0.0
C479 C 0.01424 0.24841 0.79887 0.0
C480 C 0.96651 0.21735 0.78078 0.0
H481 H 0.01614 0.2675 0.76566 0.0
C482 C 0.00194 0.28412 0.7166 0.0
O483 O 0.96623 0.32355 0.73201 0.0
O484 O 0.98283 0.3158 0.76565 0.0
N485 N 0.93566 0.21017 0.7501 0.0
C486 C 0.91198 0.19852 0.74052 0.0
C487 C 0.89453 0.17851 0.75233 0.0
C488 C 0.90153 0.17096 0.77417 0.0
C489 C 0.9259 0.1837 0.78417 0.0
C490 C 0.94252 0.20328 0.77135 0.0
H491 H 0.90626 0.20522 0.72477 0.0
O492 O 0.93434 0.27821 0.75896 0.0
O493 O 0.95758 0.26148 0.75421 0.0
O494 O 0.93991 0.26845 0.70661 0.0
O495 O 0.9452 0.23518 0.70527 0.0
C496 C 0.93424 0.17815 0.80668 0.0
C497 C 0.95875 0.1927 0.81642 0.0
H498 H 0.00678 0.22574 0.83015 0.0
H499 H 0.03301 0.26082 0.8058 0.0
H500 H 0.87564 0.16936 0.74496 0.0
H501 H 0.88796 0.1558 0.78348 0.0
H502 H 0.92188 0.16297 0.81686 0.0
H503 H 0.96483 0.18856 0.83401 0.0
Mn504 Mn 0.70802 0.65608 0.69963 0.0
Mn505 Mn 0.75738 0.71205 0.71247 0.0
C506 C 0.73799 0.66094 0.73001 0.0
C507 C 0.66791 0.63021 0.70817 0.0
C508 C 0.74613 0.67959 0.66314 0.0
O509 O 0.69901 0.68021 0.68434 0.0
O510 O 0.72947 0.71702 0.70251 0.0
C511 C 0.74579 0.7322 0.75767 0.0
N512 N 0.76037 0.72506 0.74649 0.0
C513 C 0.78719 0.73693 0.78458 0.0
C514 C 0.77241 0.74432 0.79653 0.0
C515 C 0.7516 0.74191 0.78301 0.0
C516 C 0.78049 0.7274 0.75929 0.0
H517 H 0.72985 0.73046 0.74733 0.0
C518 C 0.70878 0.70362 0.68977 0.0
O519 O 0.67541 0.62701 0.68688 0.0
O520 O 0.68349 0.64829 0.72396 0.0
N521 N 0.78517 0.70892 0.72265 0.0
C522 C 0.79612 0.69859 0.70929 0.0
C523 C 0.81702 0.69909 0.72023 0.0
C524 C 0.8262 0.70978 0.745 0.0
C525 C 0.81425 0.71967 0.75866 0.0
C526 C 0.7937 0.71898 0.74662 0.0
H527 H 0.78868 0.68949 0.69066 0.0
O528 O 0.72211 0.63888 0.71996 0.0
O529 O 0.73559 0.67895 0.72163 0.0
O530 O 0.72931 0.65953 0.67064 0.0
O531 O 0.75607 0.7002 0.67684 0.0
C532 C 0.82161 0.72965 0.78394 0.0
C533 C 0.80805 0.73822 0.79692 0.0
H534 H 0.77676 0.75169 0.81611 0.0
H535 H 0.74007 0.74753 0.79211 0.0
H536 H 0.8258 0.69089 0.70975 0.0
H537 H 0.84213 0.70983 0.75349 0.0
H538 H 0.83744 0.73045 0.79371 0.0
H539 H 0.81366 0.74547 0.8165 0.0
Mn540 Mn 0.33181 0.29326 0.70249 0.0
Mn541 Mn 0.38708 0.29941 0.71729 0.0
C542 C 0.34482 0.27065 0.67844 0.0
C543 C 0.30768 0.30652 0.68141 0.0
C544 C 0.3437 0.2704 0.74679 0.0
O545 O 0.34896 0.32518 0.72569 0.0
O546 O 0.38646 0.32955 0.73118 0.0
C547 C 0.41623 0.34105 0.68699 0.0
N548 N 0.40813 0.31718 0.69247 0.0
C549 C 0.42987 0.31075 0.66019 0.0
C550 C 0.43829 0.33522 0.6541 0.0
C551 C 0.43145 0.35044 0.66759 0.0
C552 C 0.41469 0.30241 0.67969 0.0
H553 H 0.41112 0.35282 0.69736 0.0
C554 C 0.37125 0.33718 0.73429 0.0
O555 O 0.30085 0.29403 0.70103 0.0
O556 O 0.32872 0.31174 0.67434 0.0
N557 N 0.39007 0.2717 0.70464 0.0
C558 C 0.38074 0.24868 0.71313 0.0
C559 C 0.38605 0.23123 0.70176 0.0
C560 C 0.40109 0.2377 0.68199 0.0
C561 C 0.41104 0.26173 0.67406 0.0
C562 C 0.40531 0.27841 0.68628 0.0
H563 H 0.36913 0.24355 0.72829 0.0
O564 O 0.3219 0.26359 0.67802 0.0
O565 O 0.35928 0.29062 0.69299 0.0
O566 O 0.32829 0.27307 0.73278 0.0
O567 O 0.36615 0.28008 0.74317 0.0
C568 C 0.42634 0.26974 0.65444 0.0
C569 C 0.43571 0.29422 0.64748 0.0
H570 H 0.44997 0.3425 0.63909 0.0
H571 H 0.43791 0.36936 0.66304 0.0
H572 H 0.37842 0.21278 0.70811 0.0
H573 H 0.40492 0.22411 0.67308 0.0
H574 H 0.43091 0.25719 0.6445 0.0
H575 H 0.44731 0.30012 0.63225 0.0
Mn576 Mn 0.70489 0.06039 0.68854 0.0
Mn577 Mn 0.752 0.04955 0.68737 0.0
C578 C 0.73849 0.08191 0.71795 0.0
C579 C 0.66758 0.05006 0.70373 0.0
C580 C 0.74179 0.07913 0.64937 0.0
O581 O 0.69043 0.02744 0.66703 0.0
O582 O 0.72166 0.01971 0.67174 0.0
C583 C 0.73729 0.00974 0.72207 0.0
N584 N 0.75333 0.03301 0.7163 0.0
C585 C 0.77902 0.04036 0.75443 0.0
C586 C 0.7625 0.01664 0.76098 0.0
C587 C 0.74159 0.00122 0.74467 0.0
C588 C 0.77369 0.04786 0.7317 0.0
H589 H 0.72143 0.99775 0.70948 0.0
C590 C 0.69975 0.0135 0.66388 0.0
O591 O 0.67389 0.06153 0.68339 0.0
O592 O 0.68245 0.04403 0.71458 0.0
N593 N 0.78206 0.07693 0.70236 0.0
C594 C 0.79663 0.09896 0.69288 0.0
C595 C 0.81888 0.11604 0.70634 0.0
C596 C 0.82599 0.11028 0.72933 0.0
C597 C 0.81086 0.08741 0.73857 0.0
C598 C 0.78907 0.07096 0.72414 0.0
H599 H 0.79135 0.1035 0.67518 0.0
O600 O 0.7239 0.09051 0.71314 0.0
O601 O 0.73315 0.06139 0.70492 0.0
O602 O 0.72387 0.07901 0.65929 0.0
O603 O 0.75252 0.06763 0.65758 0.0
C604 C 0.81652 0.08031 0.76158 0.0
C605 C 0.80055 0.05685 0.76956 0.0
H606 H 0.76577 0.01001 0.7784 0.0
H607 H 0.72885 0.98279 0.74947 0.0
H608 H 0.83048 0.13366 0.69906 0.0
H609 H 0.84306 0.12357 0.73977 0.0
H610 H 0.8331 0.09278 0.7733 0.0
H611 H 0.80508 0.05162 0.7873 0.0
Mn612 Mn 0.95106 0.68909 0.71555 0.0
Mn613 Mn 0.90273 0.63111 0.70945 0.0
C614 C 0.91779 0.67976 0.68754 0.0
C615 C 0.98916 0.716 0.70285 0.0
C616 C 0.91518 0.66803 0.75507 0.0
O617 O 0.96415 0.66837 0.73106 0.0
O618 O 0.9326 0.6296 0.72064 0.0
C619 C 0.91448 0.60755 0.66702 0.0
N620 N 0.89971 0.61523 0.67674 0.0
C621 C 0.87251 0.59968 0.6387 0.0
C622 C 0.88779 0.59219 0.62808 0.0
C623 C 0.90882 0.59605 0.64237 0.0
C624 C 0.87919 0.61121 0.66331 0.0
H625 H 0.93032 0.61 0.67808 0.0
C626 C 0.95456 0.64481 0.72969 0.0
O627 O 0.98312 0.72005 0.72471 0.0
O628 O 0.97317 0.6966 0.6887 0.0
N629 N 0.8732 0.63055 0.6984 0.0
C630 C 0.86005 0.63835 0.71156 0.0
C631 C 0.83799 0.63497 0.70028 0.0
C632 C 0.82957 0.62347 0.67567 0.0
C633 C 0.84326 0.61537 0.66259 0.0
C634 C 0.86502 0.61906 0.67488 0.0
H635 H 0.86632 0.64711 0.73052 0.0
O636 O 0.9331 0.70268 0.69562 0.0
O637 O 0.9223 0.66333 0.69674 0.0
O638 O 0.93274 0.68682 0.74668 0.0
O639 O 0.90379 0.64637 0.74325 0.0
C640 C 0.83623 0.60389 0.63779 0.0
C641 C 0.85087 0.59609 0.62584 0.0
H642 H 0.88345 0.58327 0.60908 0.0
H643 H 0.92058 0.59005 0.63444 0.0
H644 H 0.82753 0.6413 0.71051 0.0
H645 H 0.81263 0.62106 0.66696 0.0
H646 H 0.81963 0.60102 0.62771 0.0
H647 H 0.84526 0.58726 0.60678 0.0
H648 H 0.17196 0.38515 0.99737 0.0
H649 H 0.29426 0.30025 0.19124 0.0
H650 H 0.16462 0.38713 0.13676 0.0
H651 H 0.13509 0.39625 0.11514 0.0
H652 H 0.08097 0.31861 0.11064 0.0
H653 H 0.11067 0.30946 0.13234 0.0
H654 H 0.20088 0.38488 0.10348 0.0
H655 H 0.19451 0.3921 0.05967 0.0
H656 H 0.13422 0.317 0.04652 0.0
H657 H 0.14071 0.31011 0.09041 0.0
H658 H 0.24237 0.37643 0.13675 0.0
H659 H 0.2726 0.38206 0.10748 0.0
H660 H 0.21888 0.3171 0.06085 0.0
H661 H 0.18889 0.3106 0.09103 0.0
H662 H 0.23969 0.36871 0.18934 0.0
H663 H 0.27418 0.36369 0.2037 0.0
H664 H 0.23987 0.29112 0.16242 0.0
H665 H 0.20539 0.29633 0.14832 0.0
H666 H 0.20104 0.37204 0.21452 0.0
H667 H 0.21668 0.37157 0.25754 0.0
H668 H 0.1924 0.29343 0.24329 0.0
H669 H 0.17726 0.29408 0.2 0.0
H670 H 0.15648 0.37572 0.18816 0.0
H671 H 0.13422 0.37615 0.22406 0.0
H672 H 0.11022 0.29864 0.23061 0.0
H673 H 0.13201 0.29802 0.19423 0.0
O674 O 0.17428 0.38185 0.01456 0.0
O675 O 0.14335 0.34314 0.00885 0.0
O676 O 0.29748 0.33995 0.20702 0.0
O677 O 0.28088 0.30274 0.18573 0.0
C678 C 0.159 0.34192 0.14422 0.0
C679 C 0.17512 0.34262 0.12661 0.0
C680 C 0.19521 0.33976 0.1343 0.0
C681 C 0.19885 0.33571 0.15964 0.0
C682 C 0.18257 0.3347 0.17718 0.0
C683 C 0.16243 0.33752 0.16948 0.0
C684 C 0.13972 0.34766 0.13612 0.0
C685 C 0.1462 0.37219 0.13176 0.0
C686 C 0.12943 0.37737 0.11943 0.0
C687 C 0.10598 0.35808 0.11129 0.0
C688 C 0.09901 0.3337 0.11692 0.0
C689 C 0.11585 0.32851 0.12931 0.0
C690 C 0.17123 0.347 0.10005 0.0
C691 C 0.18632 0.37004 0.09108 0.0
C692 C 0.18263 0.3741 0.06606 0.0
C693 C 0.16382 0.35514 0.0496 0.0
C694 C 0.14886 0.332 0.05869 0.0
C695 C 0.15247 0.32803 0.08375 0.0
C696 C 0.21344 0.34291 0.11629 0.0
C697 C 0.23716 0.36314 0.12047 0.0
C698 C 0.25434 0.36648 0.10367 0.0
C699 C 0.24803 0.34995 0.08204 0.0
C700 C 0.22415 0.32999 0.07749 0.0
C701 C 0.20708 0.32632 0.09465 0.0
C702 C 0.21997 0.3328 0.16797 0.0
C703 C 0.23961 0.3517 0.18352 0.0
C704 C 0.25933 0.34882 0.19161 0.0
C705 C 0.25975 0.32696 0.18427 0.0
C706 C 0.2401 0.30815 0.16848 0.0
C707 C 0.2204 0.31108 0.16038 0.0
C708 C 0.18817 0.33313 0.20419 0.0
C709 C 0.19865 0.35471 0.22086 0.0
C710 C 0.20756 0.35444 0.24531 0.0
C711 C 0.20581 0.3325 0.2535 0.0
C712 C 0.19387 0.3105 0.23732 0.0
C713 C 0.18531 0.31087 0.21269 0.0
C714 C 0.14578 0.3368 0.18839 0.0
C715 C 0.14577 0.3586 0.19673 0.0
C716 C 0.13317 0.35888 0.21727 0.0
C717 C 0.12055 0.3374 0.22994 0.0
C718 C 0.11968 0.31532 0.22097 0.0
C719 C 0.13213 0.315 0.20028 0.0
C720 C 0.1598 0.35957 0.02311 0.0
C721 C 0.28054 0.32371 0.19306 0.0
H722 H 0.62597 0.8044 0.0066 0.0
H723 H 0.73688 0.01671 0.21068 0.0
H724 H 0.64253 0.79577 0.13785 0.0
H725 H 0.63364 0.75437 0.121 0.0
H726 H 0.70896 0.77552 0.13679 0.0
H727 H 0.71798 0.81727 0.15344 0.0
H728 H 0.63894 0.83609 0.11408 0.0
H729 H 0.62673 0.82195 0.06933 0.0
H730 H 0.69767 0.83079 0.06043 0.0
H731 H 0.70975 0.84524 0.10515 0.0
H732 H 0.64756 0.87956 0.15792 0.0
H733 H 0.63431 0.9052 0.13643 0.0
H734 H 0.68753 0.9204 0.08328 0.0
H735 H 0.70278 0.89682 0.10688 0.0
H736 H 0.6654 0.89361 0.20313 0.0
H737 H 0.67324 0.93511 0.21749 0.0
H738 H 0.74087 0.96736 0.18308 0.0
H739 H 0.73266 0.92567 0.16856 0.0
H740 H 0.65913 0.84828 0.22129 0.0
H741 H 0.65916 0.86533 0.26357 0.0
H742 H 0.73675 0.91318 0.26716 0.0
H743 H 0.73644 0.89701 0.22389 0.0
H744 H 0.65401 0.79832 0.19242 0.0
H745 H 0.6523 0.77312 0.22706 0.0
H746 H 0.72817 0.82313 0.24958 0.0
H747 H 0.73021 0.84781 0.21423 0.0
O748 O 0.63123 0.81018 0.02422 0.0
O749 O 0.6679 0.81488 0.02069 0.0
O750 O 0.69829 0.98253 0.22241 0.0
O751 O 0.73327 6e-05 0.20509 0.0
C752 C 0.68612 0.83469 0.15644 0.0
C753 C 0.68267 0.85021 0.14002 0.0
C754 C 0.68556 0.87319 0.14975 0.0
C755 C 0.69358 0.88145 0.17544 0.0
C756 C 0.69602 0.86559 0.19198 0.0
C757 C 0.69225 0.84217 0.18254 0.0
C758 C 0.68095 0.80959 0.14662 0.0
C759 C 0.65717 0.79159 0.13746 0.0
C760 C 0.6521 0.76804 0.12792 0.0
C761 C 0.6707 0.7621 0.12751 0.0
C762 C 0.69447 0.77996 0.13683 0.0
C763 C 0.69957 0.80362 0.14636 0.0
C764 C 0.67531 0.84193 0.11278 0.0
C765 C 0.65188 0.83519 0.10238 0.0
C766 C 0.64493 0.82701 0.07684 0.0
C767 C 0.66124 0.82528 0.06128 0.0
C768 C 0.68468 0.83196 0.07186 0.0
C769 C 0.69163 0.84022 0.09738 0.0
C770 C 0.67661 0.88694 0.13446 0.0
C771 C 0.65679 0.88887 0.14199 0.0
C772 C 0.64905 0.90325 0.12956 0.0
C773 C 0.65999 0.91482 0.10831 0.0
C774 C 0.679 0.9118 0.0998 0.0
C775 C 0.68758 0.89829 0.1131 0.0
C776 C 0.69863 0.90661 0.18507 0.0
C777 C 0.68202 0.90963 0.19892 0.0
C778 C 0.68644 0.93338 0.20692 0.0
C779 C 0.70775 0.95457 0.20152 0.0
C780 C 0.72435 0.95144 0.18765 0.0
C781 C 0.71975 0.92767 0.17941 0.0
C782 C 0.69772 0.8717 0.21949 0.0
C783 C 0.67623 0.86202 0.23139 0.0
C784 C 0.67625 0.87175 0.25545 0.0
C785 C 0.69787 0.89088 0.26819 0.0
C786 C 0.71987 0.89863 0.25741 0.0
C787 C 0.71971 0.88944 0.23287 0.0
C788 C 0.6923 0.82476 0.20064 0.0
C789 C 0.6705 0.80334 0.20421 0.0
C790 C 0.66947 0.78911 0.22405 0.0
C791 C 0.69012 0.79634 0.2408 0.0
C792 C 0.71213 0.81727 0.23677 0.0
C793 C 0.71327 0.83125 0.21664 0.0
C794 C 0.65376 0.81648 0.03418 0.0
C795 C 0.71272 0.97984 0.21033 0.0
H796 H 0.1313 0.83305 1.00039 0.0
H797 H 0.32739 0.98275 0.21121 0.0
H798 H 0.11156 0.83261 0.13186 0.0
H799 H 0.07811 0.7932 0.11109 0.0
H800 H 0.11311 0.75408 0.14082 0.0
H801 H 0.14624 0.79324 0.1617 0.0
H802 H 0.15627 0.87672 0.10492 0.0
H803 H 0.14479 0.86431 0.05975 0.0
H804 H 0.15654 0.80189 0.06801 0.0
H805 H 0.16801 0.81455 0.1131 0.0
H806 H 0.209 0.92272 0.13583 0.0
H807 H 0.24266 0.94633 0.11008 0.0
H808 H 0.24923 0.88116 0.09453 0.0
H809 H 0.21595 0.85772 0.12044 0.0
H810 H 0.20641 0.92481 0.19821 0.0
H811 H 0.24526 0.96123 0.21377 0.0
H812 H 0.28287 0.92384 0.18681 0.0
H813 H 0.24387 0.88739 0.17167 0.0
H814 H 0.1706 0.88762 0.23092 0.0
H815 H 0.18893 0.89765 0.27505 0.0
H816 H 0.23399 0.8662 0.25675 0.0
H817 H 0.21591 0.85636 0.21298 0.0
H818 H 0.11696 0.84275 0.19335 0.0
H819 H 0.08945 0.81791 0.2242 0.0
H820 H 0.13822 0.7909 0.24563 0.0
H821 H 0.16544 0.81534 0.21465 0.0
O822 O 0.13612 0.83777 0.01824 0.0
O823 O 0.14198 0.8057 0.02361 0.0
O824 O 0.2915 0.98555 0.22198 0.0
O825 O 0.31178 0.9684 0.20566 0.0
C826 C 0.15341 0.83952 0.15728 0.0
C827 C 0.16938 0.85386 0.13968 0.0
C828 C 0.19199 0.87491 0.14816 0.0
C829 C 0.1986 0.88155 0.17431 0.0
C830 C 0.1829 0.86688 0.19186 0.0
C831 C 0.16003 0.8462 0.18342 0.0
C832 C 0.13128 0.81572 0.14825 0.0
C833 C 0.11167 0.81544 0.13435 0.0
C834 C 0.0927 0.79307 0.12253 0.0
C835 C 0.09338 0.77089 0.12427 0.0
C836 C 0.11236 0.77105 0.13924 0.0
C837 C 0.13115 0.79331 0.1512 0.0
C838 C 0.16276 0.84642 0.11226 0.0
C839 C 0.15636 0.86039 0.0969 0.0
C840 C 0.14981 0.85325 0.07112 0.0
C841 C 0.14965 0.83204 0.06028 0.0
C842 C 0.1564 0.81827 0.07575 0.0
C843 C 0.16288 0.8254 0.10152 0.0
C844 C 0.20992 0.88845 0.12992 0.0
C845 C 0.21741 0.91343 0.12648 0.0
C846 C 0.23652 0.92685 0.11181 0.0
C847 C 0.2483 0.91541 0.10037 0.0
C848 C 0.24022 0.89022 0.10306 0.0
C849 C 0.22121 0.87686 0.11773 0.0
C850 C 0.22234 0.90359 0.18358 0.0
C851 C 0.22306 0.92453 0.19571 0.0
C852 C 0.24527 0.94529 0.20457 0.0
C853 C 0.26718 0.9455 0.20139 0.0
C854 C 0.26635 0.92436 0.18942 0.0
C855 C 0.24411 0.90355 0.18067 0.0
C856 C 0.19206 0.87139 0.21886 0.0
C857 C 0.18424 0.8827 0.23659 0.0
C858 C 0.19463 0.88839 0.26159 0.0
C859 C 0.21275 0.88263 0.26894 0.0
C860 C 0.21999 0.8707 0.25133 0.0
C861 C 0.20975 0.86516 0.22647 0.0
C862 C 0.14334 0.83107 0.20194 0.0
C863 C 0.1217 0.83149 0.20473 0.0
C864 C 0.10609 0.81744 0.22232 0.0
C865 C 0.11199 0.80283 0.23733 0.0
C866 C 0.13351 0.80226 0.23437 0.0
C867 C 0.14903 0.81621 0.21677 0.0
C868 C 0.14239 0.82431 0.03296 0.0
C869 C 0.29082 0.9677 0.21037 0.0
H870 H 0.30526 0.18369 0.06972 0.0
H871 H 0.32192 0.01344 0.85633 0.0
H872 H 0.28209 0.18295 0.93374 0.0
H873 H 0.29245 0.22448 0.95238 0.0
H874 H 0.36588 0.25339 0.93293 0.0
H875 H 0.35534 0.21216 0.91374 0.0
H876 H 0.27924 0.1358 0.96681 0.0
H877 H 0.28327 0.15056 0.01116 0.0
H878 H 0.35797 0.20578 0.005 0.0
H879 H 0.35376 0.19066 0.9608 0.0
H880 H 0.28307 0.08425 0.94203 0.0
H881 H 0.29771 0.06008 0.96532 0.0
H882 H 0.36966 0.1239 0.97557 0.0
H883 H 0.35534 0.1477 0.95176 0.0
H884 H 0.26711 0.07864 0.8841 0.0
H885 H 0.2645 0.03968 0.86799 0.0
H886 H 0.34237 0.07324 0.88256 0.0
H887 H 0.34466 0.112 0.89877 0.0
H888 H 0.26884 0.11409 0.84609 0.0
H889 H 0.26847 0.09585 0.80371 0.0
H890 H 0.34548 0.12378 0.81686 0.0
H891 H 0.34576 0.14143 0.85895 0.0
H892 H 0.28068 0.17872 0.87365 0.0
H893 H 0.2864 0.20692 0.84041 0.0
H894 H 0.35416 0.21023 0.82718 0.0
H895 H 0.34925 0.18356 0.86128 0.0
O896 O 0.30416 0.17792 0.05225 0.0
O897 O 0.34235 0.20623 0.04795 0.0
O898 O 0.28238 0.01206 0.85581 0.0
O899 O 0.32235 0.02845 0.86301 0.0
C900 C 0.31304 0.16916 0.9147 0.0
C901 C 0.31319 0.15382 0.93344 0.0
C902 C 0.31142 0.1307 0.92642 0.0
C903 C 0.30768 0.12212 0.90068 0.0
C904 C 0.30762 0.13743 0.88199 0.0
C905 C 0.31093 0.16124 0.88894 0.0
C906 C 0.31797 0.19463 0.92239 0.0
C907 C 0.30023 0.1984 0.93299 0.0
C908 C 0.30614 0.22197 0.94366 0.0
C909 C 0.33 0.24185 0.94428 0.0
C910 C 0.34742 0.23824 0.93271 0.0
C911 C 0.3414 0.21483 0.92169 0.0
C912 C 0.31611 0.16234 0.96055 0.0
C913 C 0.29647 0.15102 0.97513 0.0
C914 C 0.29882 0.15952 1.00043 0.0
C915 C 0.32091 0.17945 0.01159 0.0
C916 C 0.34068 0.19047 0.99697 0.0
C917 C 0.3383 0.18194 0.9717 0.0
C918 C 0.31813 0.11776 0.94528 0.0
C919 C 0.30182 0.09318 0.9499 0.0
C920 C 0.31014 0.07944 0.9631 0.0
C921 C 0.33473 0.0903 0.97201 0.0
C922 C 0.35061 0.11533 0.96889 0.0
C923 C 0.34239 0.12893 0.95551 0.0
C924 C 0.30602 0.09798 0.89285 0.0
C925 C 0.28352 0.0774 0.88407 0.0
C926 C 0.28211 0.05523 0.8748 0.0
C927 C 0.30324 0.05334 0.87403 0.0
C928 C 0.32575 0.07403 0.88296 0.0
C929 C 0.32711 0.09615 0.89235 0.0
C930 C 0.30742 0.12944 0.8553 0.0
C931 C 0.28564 0.11661 0.83955 0.0
C932 C 0.28538 0.10606 0.81562 0.0
C933 C 0.30696 0.10852 0.80737 0.0
C934 C 0.32871 0.12178 0.82299 0.0
C935 C 0.32892 0.13203 0.84681 0.0
C936 C 0.31424 0.17857 0.86938 0.0
C937 C 0.2968 0.18567 0.86365 0.0
C938 C 0.30002 0.20165 0.84477 0.0
C939 C 0.32048 0.2102 0.83113 0.0
C940 C 0.3381 0.20348 0.83726 0.0
C941 C 0.33519 0.18811 0.85651 0.0
C942 C 0.32322 0.18873 0.03834 0.0
C943 C 0.30192 0.03 0.86374 0.0
H944 H 0.84747 0.20039 0.08157 0.0
H945 H 0.69228 0.00432 0.86803 0.0
H946 H 0.85446 0.21158 0.94756 0.0
H947 H 0.89204 0.2494 0.96376 0.0
H948 H 0.93344 0.21357 0.94605 0.0
H949 H 0.8956 0.17547 0.92971 0.0
H950 H 0.81197 0.17494 0.97471 0.0
H951 H 0.82177 0.18781 0.01988 0.0
H952 H 0.87591 0.16475 0.02153 0.0
H953 H 0.86566 0.15161 0.97641 0.0
H954 H 0.76744 0.13564 0.93656 0.0
H955 H 0.73457 0.11398 0.96344 0.0
H956 H 0.77553 0.08431 0.00091 0.0
H957 H 0.80826 0.10548 0.97337 0.0
H958 H 0.76618 0.12712 0.88298 0.0
H959 H 0.72746 0.09129 0.86606 0.0
H960 H 0.75006 0.04218 0.89774 0.0
H961 H 0.7889 0.07821 0.91424 0.0
H962 H 0.80632 0.16374 0.86054 0.0
H963 H 0.78928 0.1499 0.8165 0.0
H964 H 0.80499 0.08975 0.81881 0.0
H965 H 0.82115 0.10308 0.86331 0.0
H966 H 0.85677 0.20856 0.89195 0.0
H967 H 0.88165 0.23238 0.85913 0.0
H968 H 0.89262 0.17126 0.83655 0.0
H969 H 0.86856 0.14776 0.87006 0.0
O970 O 0.84379 0.19505 0.06374 0.0
O971 O 0.87155 0.18313 0.06353 0.0
O972 O 0.69708 0.04485 0.85789 0.0
O973 O 0.70746 0.01881 0.8745 0.0
C974 C 0.84943 0.16812 0.92794 0.0
C975 C 0.8322 0.15459 0.94486 0.0
C976 C 0.80935 0.13431 0.93554 0.0
C977 C 0.80417 0.12698 0.9094 0.0
C978 C 0.82139 0.14051 0.89255 0.0
C979 C 0.84397 0.16121 0.90173 0.0
C980 C 0.87236 0.19081 0.93759 0.0
C981 C 0.8716 0.21181 0.94728 0.0
C982 C 0.89294 0.23329 0.95647 0.0
C983 C 0.91533 0.23408 0.95614 0.0
C984 C 0.91622 0.21312 0.94651 0.0
C985 C 0.89477 0.19155 0.93717 0.0
C986 C 0.83798 0.16218 0.97235 0.0
C987 C 0.82579 0.1725 0.98491 0.0
C988 C 0.8315 0.17992 0.0107 0.0
C989 C 0.84962 0.17729 0.02434 0.0
C990 C 0.86185 0.16701 0.01161 0.0
C991 C 0.85605 0.1595 0.98585 0.0
C992 C 0.79009 0.12187 0.95277 0.0
C993 C 0.76932 0.1244 0.95049 0.0
C994 C 0.75069 0.11225 0.96592 0.0
C995 C 0.75265 0.09757 0.98409 0.0
C996 C 0.77374 0.09559 0.98696 0.0
C997 C 0.79232 0.10758 0.97129 0.0
C998 C 0.78044 0.10523 0.89958 0.0
C999 C 0.76281 0.1086 0.88607 0.0
C1000 C 0.74066 0.08811 0.87653 0.0
C1001 C 0.73569 0.06385 0.88048 0.0
C1002 C 0.75333 0.06059 0.89429 0.0
C1003 C 0.77551 0.08112 0.90376 0.0
C1004 C 0.8147 0.13424 0.86505 0.0
C1005 C 0.80642 0.14782 0.85141 0.0
C1006 C 0.79678 0.13997 0.82637 0.0
C1007 C 0.79574 0.11872 0.81455 0.0
C1008 C 0.80561 0.10615 0.8277 0.0
C1009 C 0.81474 0.11368 0.85297 0.0
C1010 C 0.861 0.17649 0.88356 0.0
C1011 C 0.86506 0.20054 0.8804 0.0
C1012 C 0.8791 0.21404 0.86163 0.0
C1013 C 0.88901 0.20356 0.84558 0.0
C1014 C 0.8853 0.17969 0.84895 0.0
C1015 C 0.87155 0.16631 0.86796 0.0
C1016 C 0.85572 0.1853 0.0517 0.0
C1017 C 0.71223 0.04201 0.87025 0.0
H1018 H 0.87022 0.69053 0.09187 0.0
H1019 H 0.66386 0.62151 0.88201 0.0
H1020 H 0.88293 0.70513 0.95796 0.0
H1021 H 0.91803 0.70248 0.97623 0.0
H1022 H 0.88195 0.62455 0.95041 0.0
H1023 H 0.84737 0.62745 0.93151 0.0
H1024 H 0.83836 0.70248 0.99091 0.0
H1025 H 0.85249 0.70433 0.03508 0.0
H1026 H 0.8413 0.62989 0.02233 0.0
H1027 H 0.82697 0.62821 0.97831 0.0
H1028 H 0.78371 0.69219 0.96378 0.0
H1029 H 0.7509 0.68169 0.99141 0.0
H1030 H 0.74641 0.6109 1.00053 0.0
H1031 H 0.77886 0.62119 0.97273 0.0
H1032 H 0.78375 0.69629 0.90258 0.0
H1033 H 0.74371 0.68995 0.88787 0.0
H1034 H 0.71074 0.61427 0.90825 0.0
H1035 H 0.75084 0.62072 0.92246 0.0
H1036 H 0.83026 0.70338 0.87332 0.0
H1037 H 0.81663 0.70375 0.82935 0.0
H1038 H 0.76095 0.62708 0.82884 0.0
H1039 H 0.77498 0.62645 0.87255 0.0
H1040 H 0.87584 0.70662 0.90011 0.0
H1041 H 0.89878 0.70954 0.86352 0.0
H1042 H 0.84841 0.63259 0.8394 0.0
H1043 H 0.82569 0.62962 0.87593 0.0
O1044 O 0.86422 0.68926 0.07446 0.0
O1045 O 0.85842 0.65107 0.06682 0.0
O1046 O 0.69745 0.66423 0.87925 0.0
O1047 O 0.67986 0.62482 0.88825 0.0
C1048 C 0.84007 0.66678 0.93595 0.0
C1049 C 0.82428 0.66478 0.95444 0.0
C1050 C 0.80137 0.66225 0.94727 0.0
C1051 C 0.79457 0.66251 0.92159 0.0
C1052 C 0.81063 0.6651 0.90321 0.0
C1053 C 0.83325 0.66692 0.91036 0.0
C1054 C 0.86273 0.66649 0.94341 0.0
C1055 C 0.88293 0.68768 0.95573 0.0
C1056 C 0.9028 0.68614 0.96621 0.0
C1057 C 0.90238 0.66325 0.96491 0.0
C1058 C 0.88254 0.64233 0.95168 0.0
C1059 C 0.86293 0.644 0.94083 0.0
C1060 C 0.83181 0.66529 0.98143 0.0
C1061 C 0.83885 0.68656 0.99776 0.0
C1062 C 0.84697 0.68758 0.02295 0.0
C1063 C 0.84813 0.6673 0.03221 0.0
C1064 C 0.8407 0.64586 0.0158 0.0
C1065 C 0.83256 0.64486 0.99065 0.0
C1066 C 0.78373 0.65749 0.96631 0.0
C1067 C 0.7759 0.67459 0.97206 0.0
C1068 C 0.75729 0.66865 0.98779 0.0
C1069 C 0.74638 0.64557 0.998 0.0
C1070 C 0.75476 0.62884 0.99293 0.0
C1071 C 0.77328 0.63475 0.97718 0.0
C1072 C 0.77018 0.65901 0.9137 0.0
C1073 C 0.76784 0.6784 0.90391 0.0
C1074 C 0.74496 0.67472 0.89554 0.0
C1075 C 0.72401 0.65158 0.89689 0.0
C1076 C 0.72647 0.6323 0.90692 0.0
C1077 C 0.74935 0.63597 0.91518 0.0
C1078 C 0.80336 0.66498 0.8762 0.0
C1079 C 0.81538 0.68656 0.86358 0.0
C1080 C 0.80772 0.68676 0.83855 0.0
C1081 C 0.78782 0.66544 0.82599 0.0
C1082 C 0.77639 0.64363 0.83829 0.0
C1083 C 0.7842 0.64335 0.8632 0.0
C1084 C 0.84914 0.6679 0.89063 0.0
C1085 C 0.87008 0.69029 0.88719 0.0
C1086 C 0.883 0.69201 0.86632 0.0
C1087 C 0.87507 0.67133 0.84875 0.0
C1088 C 0.85468 0.64873 0.85274 0.0
C1089 C 0.84183 0.64702 0.87356 0.0
C1090 C 0.85719 0.66861 0.05885 0.0
C1091 C 0.69969 0.64739 0.88762 0.0
H1092 H 0.82114 0.68659 0.32609 0.0
H1093 H 0.96138 0.64771 0.54476 0.0
H1094 H 0.8214 0.70803 0.4601 0.0
H1095 H 0.79065 0.7158 0.43948 0.0
H1096 H 0.73428 0.64466 0.45805 0.0
H1097 H 0.76537 0.63624 0.47773 0.0
H1098 H 0.85586 0.70306 0.43301 0.0
H1099 H 0.84712 0.70306 0.38777 0.0
H1100 H 0.78604 0.62868 0.38649 0.0
H1101 H 0.79528 0.62875 0.43168 0.0
H1102 H 0.89291 0.70806 0.46581 0.0
H1103 H 0.92567 0.71373 0.44001 0.0
H1104 H 0.88797 0.63506 0.41747 0.0
H1105 H 0.8547 0.62954 0.44283 0.0
H1106 H 0.89581 0.70343 0.52385 0.0
H1107 H 0.93295 0.70512 0.54191 0.0
H1108 H 0.90438 0.62821 0.51447 0.0
H1109 H 0.86722 0.62675 0.49667 0.0
H1110 H 0.85649 0.70181 0.55068 0.0
H1111 H 0.87154 0.70347 0.59461 0.0
H1112 H 0.8482 0.62526 0.5848 0.0
H1113 H 0.83363 0.62375 0.54069 0.0
H1114 H 0.81171 0.70271 0.52052 0.0
H1115 H 0.79053 0.70568 0.55644 0.0
H1116 H 0.76745 0.62937 0.5688 0.0
H1117 H 0.78818 0.62621 0.53252 0.0
O1118 O 0.82443 0.68609 0.34394 0.0
O1119 O 0.79309 0.64795 0.34435 0.0
O1120 O 0.95951 0.68616 0.55365 0.0
O1121 O 0.94699 0.6476 0.53752 0.0
C1122 C 0.81489 0.66614 0.47978 0.0
C1123 C 0.83137 0.66579 0.46313 0.0
C1124 C 0.85231 0.66529 0.47271 0.0
C1125 C 0.85617 0.66394 0.49874 0.0
C1126 C 0.83905 0.66282 0.51514 0.0
C1127 C 0.81836 0.66393 0.50577 0.0
C1128 C 0.79565 0.6714 0.47004 0.0
C1129 C 0.80244 0.69403 0.45968 0.0
C1130 C 0.78496 0.69849 0.44799 0.0
C1131 C 0.76032 0.68066 0.44698 0.0
C1132 C 0.75329 0.6585 0.45849 0.0
C1133 C 0.77093 0.65378 0.46977 0.0
C1134 C 0.82646 0.66574 0.43554 0.0
C1135 C 0.84086 0.68663 0.42285 0.0
C1136 C 0.8357 0.68665 0.39704 0.0
C1137 C 0.81592 0.66584 0.38348 0.0
C1138 C 0.80146 0.64498 0.39633 0.0
C1139 C 0.8067 0.64496 0.42213 0.0
C1140 C 0.87138 0.66843 0.45603 0.0
C1141 C 0.89155 0.69209 0.45504 0.0
C1142 C 0.91019 0.69531 0.44036 0.0
C1143 C 0.90921 0.67484 0.42674 0.0
C1144 C 0.88897 0.65111 0.42767 0.0
C1145 C 0.87007 0.64796 0.4421 0.0
C1146 C 0.87885 0.66494 0.5091 0.0
C1147 C 0.89763 0.68698 0.5218 0.0
C1148 C 0.91882 0.6879 0.53204 0.0
C1149 C 0.9216 0.66677 0.52968 0.0
C1150 C 0.90281 0.64479 0.51664 0.0
C1151 C 0.88159 0.64389 0.50645 0.0
C1152 C 0.84418 0.6627 0.54258 0.0
C1153 C 0.85413 0.68493 0.55821 0.0
C1154 C 0.86262 0.68585 0.58319 0.0
C1155 C 0.86101 0.6645 0.59283 0.0
C1156 C 0.84946 0.64185 0.57768 0.0
C1157 C 0.84129 0.64102 0.55258 0.0
C1158 C 0.80148 0.66423 0.52383 0.0
C1159 C 0.80137 0.68637 0.53037 0.0
C1160 C 0.78938 0.68808 0.55089 0.0
C1161 C 0.77748 0.66775 0.56527 0.0
C1162 C 0.7764 0.64519 0.55786 0.0
C1163 C 0.78822 0.64342 0.53721 0.0
C1164 C 0.81038 0.66599 0.35609 0.0
C1165 C 0.94388 0.66754 0.541 0.0
H1166 H 0.31426 0.12399 0.33236 0.0
H1167 H 0.40991 0.34345 0.56114 0.0
H1168 H 0.31523 0.12293 0.48703 0.0
H1169 H 0.30657 0.08125 0.47114 0.0
H1170 H 0.37797 0.11277 0.44523 0.0
H1171 H 0.38623 0.15456 0.46025 0.0
H1172 H 0.31429 0.14544 0.44026 0.0
H1173 H 0.30727 0.13107 0.3955 0.0
H1174 H 0.38038 0.18764 0.38497 0.0
H1175 H 0.38728 0.20159 0.4299 0.0
H1176 H 0.31434 0.19049 0.4517 0.0
H1177 H 0.29946 0.21469 0.42954 0.0
H1178 H 0.37222 0.27702 0.43482 0.0
H1179 H 0.38739 0.25244 0.45657 0.0
H1180 H 0.33328 0.23276 0.50035 0.0
H1181 H 0.34121 0.27323 0.51878 0.0
H1182 H 0.41646 0.29452 0.53708 0.0
H1183 H 0.40833 0.25404 0.51844 0.0
H1184 H 0.32914 0.20368 0.53791 0.0
H1185 H 0.32983 0.22123 0.58005 0.0
H1186 H 0.40061 0.23015 0.59987 0.0
H1187 H 0.40017 0.21279 0.5569 0.0
H1188 H 0.33165 0.16198 0.54999 0.0
H1189 H 0.33241 0.13851 0.58428 0.0
H1190 H 0.3729 0.11282 0.54178 0.0
H1191 H 0.38159 0.14535 0.5137 0.0
O1192 O 0.31742 0.13001 0.35001 0.0
O1193 O 0.35504 0.15964 0.34552 0.0
O1194 O 0.36797 0.31646 0.54171 0.0
O1195 O 0.40647 0.32766 0.55292 0.0
C1196 C 0.3564 0.16695 0.48383 0.0
C1197 C 0.35595 0.18272 0.46572 0.0
C1198 C 0.35934 0.20634 0.47347 0.0
C1199 C 0.36508 0.21507 0.4992 0.0
C1200 C 0.36445 0.19906 0.51753 0.0
C1201 C 0.3599 0.17467 0.51005 0.0
C1202 C 0.3514 0.14168 0.47492 0.0
C1203 C 0.32897 0.12082 0.47791 0.0
C1204 C 0.32405 0.09715 0.46883 0.0
C1205 C 0.34164 0.09398 0.457 0.0
C1206 C 0.36416 0.11487 0.45421 0.0
C1207 C 0.36887 0.1386 0.46278 0.0
C1208 C 0.3514 0.17434 0.43838 0.0
C1209 C 0.32882 0.15457 0.4283 0.0
C1210 C 0.32483 0.14647 0.40269 0.0
C1211 C 0.34329 0.15814 0.38666 0.0
C1212 C 0.36579 0.17819 0.3968 0.0
C1213 C 0.36978 0.18622 0.42243 0.0
C1214 C 0.35197 0.21966 0.45568 0.0
C1215 C 0.32727 0.20903 0.44728 0.0
C1216 C 0.31875 0.22284 0.43483 0.0
C1217 C 0.33476 0.24757 0.43073 0.0
C1218 C 0.35968 0.25789 0.43782 0.0
C1219 C 0.36829 0.24392 0.45013 0.0
C1220 C 0.37033 0.24062 0.50764 0.0
C1221 C 0.35159 0.2464 0.5078 0.0
C1222 C 0.35612 0.26945 0.51855 0.0
C1223 C 0.37949 0.28712 0.52939 0.0
C1224 C 0.39828 0.28138 0.52884 0.0
C1225 C 0.39372 0.25833 0.51808 0.0
C1226 C 0.36471 0.20719 0.54427 0.0
C1227 C 0.34483 0.20935 0.55128 0.0
C1228 C 0.34515 0.21922 0.57528 0.0
C1229 C 0.36529 0.22705 0.59282 0.0
C1230 C 0.38496 0.22417 0.58637 0.0
C1231 C 0.38469 0.21429 0.56204 0.0
C1232 C 0.35768 0.15703 0.52946 0.0
C1233 C 0.34293 0.15352 0.54918 0.0
C1234 C 0.3424 0.13893 0.56838 0.0
C1235 C 0.35293 0.12368 0.56625 0.0
C1236 C 0.36559 0.1251 0.54506 0.0
C1237 C 0.36961 0.14301 0.52814 0.0
C1238 C 0.33903 0.1494 0.35949 0.0
C1239 C 0.38421 0.31128 0.54164 0.0
H1240 H 0.79536 0.15052 0.32806 0.0
H1241 H 0.00567 0.30901 0.51125 0.0
H1242 H 0.78535 0.16392 0.46226 0.0
H1243 H 0.74947 0.1251 0.44396 0.0
H1244 H 0.78177 0.08313 0.4727 0.0
H1245 H 0.81737 0.12179 0.49123 0.0
H1246 H 0.82734 0.2015 0.42964 0.0
H1247 H 0.81295 0.18598 0.3854 0.0
H1248 H 0.82346 0.12323 0.39695 0.0
H1249 H 0.83763 0.13888 0.44116 0.0
H1250 H 0.88372 0.24809 0.45542 0.0
H1251 H 0.91537 0.26763 0.42647 0.0
H1252 H 0.91566 0.19869 0.41294 0.0
H1253 H 0.88481 0.17948 0.44254 0.0
H1254 H 0.88607 0.25673 0.51644 0.0
H1255 H 0.92666 0.29315 0.52473 0.0
H1256 H 0.95803 0.24874 0.49978 0.0
H1257 H 0.91742 0.21246 0.49185 0.0
H1258 H 0.84561 0.22095 0.55214 0.0
H1259 H 0.86303 0.23464 0.59641 0.0
H1260 H 0.91293 0.20774 0.58444 0.0
H1261 H 0.8957 0.19419 0.54047 0.0
H1262 H 0.79123 0.17035 0.51973 0.0
H1263 H 0.7657 0.14636 0.5522 0.0
H1264 H 0.82151 0.13065 0.57955 0.0
H1265 H 0.84636 0.15325 0.54625 0.0
O1266 O 0.80125 0.15642 0.34555 0.0
O1267 O 0.80678 0.12441 0.35256 0.0
O1268 O 0.97304 0.31589 0.52574 0.0
O1269 O 0.98952 0.29468 0.50932 0.0
C1270 C 0.82735 0.16879 0.48476 0.0
C1271 C 0.8421 0.18076 0.46538 0.0
C1272 C 0.86553 0.2014 0.47141 0.0
C1273 C 0.87407 0.21037 0.49694 0.0
C1274 C 0.85938 0.1984 0.51638 0.0
C1275 C 0.83596 0.17747 0.51034 0.0
C1276 C 0.80393 0.14559 0.47797 0.0
C1277 C 0.78435 0.14629 0.46516 0.0
C1278 C 0.76399 0.12426 0.45476 0.0
C1279 C 0.76324 0.10141 0.45679 0.0
C1280 C 0.78215 0.10064 0.47091 0.0
C1281 C 0.80235 0.12261 0.48151 0.0
C1282 C 0.83332 0.17121 0.43859 0.0
C1283 C 0.82646 0.18439 0.42255 0.0
C1284 C 0.81828 0.17548 0.39731 0.0
C1285 C 0.81699 0.15332 0.38765 0.0
C1286 C 0.82419 0.14033 0.40378 0.0
C1287 C 0.83217 0.14916 0.42905 0.0
C1288 C 0.88195 0.21235 0.45116 0.0
C1289 C 0.89033 0.2371 0.44591 0.0
C1290 C 0.90823 0.24817 0.42932 0.0
C1291 C 0.91776 0.23455 0.41756 0.0
C1292 C 0.90838 0.20941 0.42169 0.0
C1293 C 0.89077 0.19848 0.43852 0.0
C1294 C 0.8988 0.23204 0.50333 0.0
C1295 C 0.90175 0.25488 0.51297 0.0
C1296 C 0.92494 0.27565 0.51763 0.0
C1297 C 0.94557 0.2739 0.51265 0.0
C1298 C 0.94253 0.25079 0.50358 0.0
C1299 C 0.91936 0.23004 0.49904 0.0
C1300 C 0.86949 0.2067 0.54311 0.0
C1301 C 0.86031 0.21806 0.55912 0.0
C1302 C 0.87021 0.22587 0.58422 0.0
C1303 C 0.88924 0.22219 0.5935 0.0
C1304 C 0.89829 0.21075 0.57751 0.0
C1305 C 0.88852 0.2031 0.5525 0.0
C1306 C 0.82085 0.16385 0.53071 0.0
C1307 C 0.79794 0.16168 0.53266 0.0
C1308 C 0.78343 0.14811 0.55118 0.0
C1309 C 0.79186 0.13698 0.56839 0.0
C1310 C 0.81481 0.13931 0.56659 0.0
C1311 C 0.82904 0.15235 0.54772 0.0
C1312 C 0.80807 0.14378 0.36089 0.0
C1313 C 0.97016 0.29611 0.51642 0.0
H1314 H 0.98202 0.5182 0.40184 0.0
H1315 H 0.00455 0.35367 0.19016 0.0
H1316 H 0.95508 0.51501 0.2677 0.0
H1317 H 0.96231 0.55564 0.28563 0.0
H1318 H 0.03382 0.59082 0.25988 0.0
H1319 H 0.02665 0.55024 0.24205 0.0
H1320 H 0.95461 0.47061 0.29877 0.0
H1321 H 0.95931 0.48513 0.34332 0.0
H1322 H 0.03281 0.54245 0.33543 0.0
H1323 H 0.02791 0.52765 0.291 0.0
H1324 H 0.95441 0.42116 0.2722 0.0
H1325 H 0.96481 0.39479 0.2973 0.0
H1326 H 0.03911 0.45408 0.30945 0.0
H1327 H 0.02882 0.48029 0.28439 0.0
H1328 H 0.94463 0.41452 0.21382 0.0
H1329 H 0.94423 0.3765 0.19828 0.0
H1330 H 0.02203 0.41298 0.21578 0.0
H1331 H 0.0221 0.45075 0.23145 0.0
H1332 H 0.94538 0.4504 0.17672 0.0
H1333 H 0.94585 0.4327 0.13438 0.0
H1334 H 0.02305 0.46216 0.14839 0.0
H1335 H 0.02249 0.47926 0.19049 0.0
H1336 H 0.95434 0.51395 0.20642 0.0
H1337 H 0.95864 0.54266 0.17418 0.0
H1338 H 0.02622 0.54734 0.1574 0.0
H1339 H 0.02287 0.52034 0.19073 0.0
O1340 O 0.98063 0.51259 0.38427 0.0
O1341 O 0.01814 0.54202 0.37906 0.0
O1342 O 0.96418 0.35053 0.18743 0.0
O1343 O 0.00412 0.36833 0.19648 0.0
C1344 C 0.9873 0.50498 0.24581 0.0
C1345 C 0.9877 0.48969 0.26452 0.0
C1346 C 0.98625 0.46675 0.25742 0.0
C1347 C 0.98376 0.45877 0.23168 0.0
C1348 C 0.98368 0.47411 0.21303 0.0
C1349 C 0.98578 0.49741 0.22001 0.0
C1350 C 0.99033 0.52972 0.25358 0.0
C1351 C 0.97212 0.53155 0.26554 0.0
C1352 C 0.97622 0.55461 0.27571 0.0
C1353 C 0.9986 0.57607 0.27408 0.0
C1354 C 0.01644 0.57441 0.26123 0.0
C1355 C 0.01233 0.55136 0.25103 0.0
C1356 C 0.99083 0.49822 0.29165 0.0
C1357 C 0.97172 0.48626 0.30675 0.0
C1358 C 0.97445 0.49461 0.33216 0.0
C1359 C 0.99641 0.51503 0.34291 0.0
C1360 C 0.01564 0.52674 0.32774 0.0
C1361 C 0.01287 0.51837 0.30234 0.0
C1362 C 0.99086 0.45264 0.27659 0.0
C1363 C 0.97275 0.42867 0.28091 0.0
C1364 C 0.97865 0.41369 0.29516 0.0
C1365 C 0.00269 0.42262 0.30514 0.0
C1366 C 0.02045 0.44704 0.30199 0.0
C1367 C 0.01457 0.46197 0.28782 0.0
C1368 C 0.98334 0.43522 0.22396 0.0
C1369 C 0.9615 0.41412 0.21452 0.0
C1370 C 0.96135 0.3925 0.20558 0.0
C1371 C 0.98312 0.3917 0.20581 0.0
C1372 C 0.00496 0.41294 0.21535 0.0
C1373 C 0.00505 0.43448 0.22445 0.0
C1374 C 0.98399 0.46646 0.18639 0.0
C1375 C 0.9624 0.45336 0.17039 0.0
C1376 C 0.96262 0.44314 0.14648 0.0
C1377 C 0.98449 0.4462 0.13847 0.0
C1378 C 0.00605 0.45972 0.15433 0.0
C1379 C 0.00578 0.46962 0.17816 0.0
C1380 C 0.98797 0.51449 0.20046 0.0
C1381 C 0.9701 0.52126 0.19585 0.0
C1382 C 0.97252 0.53755 0.17753 0.0
C1383 C 0.99253 0.54669 0.16319 0.0
C1384 C 0.01049 0.54014 0.16803 0.0
C1385 C 0.00842 0.52452 0.1868 0.0
C1386 C 0.99915 0.52409 0.36981 0.0
C1387 C 0.98313 0.36891 0.19601 0.0
H1388 H 0.50391 0.54188 0.41522 0.0
H1389 H 0.3559 0.33111 0.20977 0.0
H1390 H 0.50924 0.54564 0.28107 0.0
H1391 H 0.54575 0.58446 0.29748 0.0
H1392 H 0.58992 0.55109 0.28276 0.0
H1393 H 0.55319 0.512 0.26628 0.0
H1394 H 0.46713 0.50782 0.30946 0.0
H1395 H 0.477 0.52364 0.35394 0.0
H1396 H 0.53574 0.50716 0.35826 0.0
H1397 H 0.52541 0.491 0.31388 0.0
H1398 H 0.4224 0.46167 0.27268 0.0
H1399 H 0.39166 0.43974 0.30157 0.0
H1400 H 0.44147 0.42369 0.34403 0.0
H1401 H 0.47178 0.44424 0.31399 0.0
H1402 H 0.42288 0.4548 0.2191 0.0
H1403 H 0.38559 0.4168 0.20316 0.0
H1404 H 0.41271 0.37316 0.23928 0.0
H1405 H 0.45013 0.41135 0.25479 0.0
H1406 H 0.46233 0.49352 0.19594 0.0
H1407 H 0.44626 0.47837 0.15182 0.0
H1408 H 0.46437 0.42014 0.15765 0.0
H1409 H 0.47965 0.43482 0.20211 0.0
H1410 H 0.51271 0.54095 0.22608 0.0
H1411 H 0.53804 0.56413 0.19326 0.0
H1412 H 0.54988 0.50299 0.17348 0.0
H1413 H 0.52566 0.4803 0.20723 0.0
O1414 O 0.5002 0.53536 0.3977 0.0
O1415 O 0.53033 0.52678 0.39884 0.0
O1416 O 0.3577 0.36972 0.19711 0.0
O1417 O 0.37048 0.34642 0.21586 0.0
C1418 C 0.50629 0.50242 0.26384 0.0
C1419 C 0.48974 0.48895 0.28134 0.0
C1420 C 0.46757 0.46726 0.27288 0.0
C1421 C 0.46226 0.4589 0.24694 0.0
C1422 C 0.47875 0.47255 0.22951 0.0
C1423 C 0.5008 0.49427 0.23791 0.0
C1424 C 0.52863 0.52605 0.27265 0.0
C1425 C 0.52678 0.54669 0.28135 0.0
C1426 C 0.54751 0.56874 0.29065 0.0
C1427 C 0.57034 0.57042 0.29138 0.0
C1428 C 0.57234 0.54994 0.28236 0.0
C1429 C 0.55152 0.52782 0.27296 0.0
C1430 C 0.49547 0.49814 0.30849 0.0
C1431 C 0.48199 0.50745 0.32011 0.0
C1432 C 0.48773 0.51657 0.34549 0.0
C1433 C 0.50717 0.51667 0.35966 0.0
C1434 C 0.52065 0.50734 0.34791 0.0
C1435 C 0.51481 0.49811 0.32256 0.0
C1436 C 0.44923 0.45422 0.29091 0.0
C1437 C 0.4266 0.45308 0.28793 0.0
C1438 C 0.40917 0.44082 0.30455 0.0
C1439 C 0.41425 0.42998 0.32484 0.0
C1440 C 0.43718 0.43181 0.32839 0.0
C1441 C 0.45441 0.44352 0.3113 0.0
C1442 C 0.4393 0.43581 0.23789 0.0
C1443 C 0.4208 0.43701 0.2234 0.0
C1444 C 0.39947 0.41528 0.21442 0.0
C1445 C 0.39619 0.39191 0.21989 0.0
C1446 C 0.41467 0.39083 0.23467 0.0
C1447 C 0.43604 0.4126 0.24359 0.0
C1448 C 0.47192 0.4651 0.20215 0.0
C1449 C 0.46312 0.4777 0.18757 0.0
C1450 C 0.45405 0.46913 0.16248 0.0
C1451 C 0.45413 0.44814 0.15154 0.0
C1452 C 0.46425 0.43641 0.16576 0.0
C1453 C 0.47284 0.44467 0.19104 0.0
C1454 C 0.51747 0.50899 0.21921 0.0
C1455 C 0.52125 0.53278 0.21512 0.0
C1456 C 0.53552 0.54591 0.19635 0.0
C1457 C 0.5458 0.53522 0.18107 0.0
C1458 C 0.54219 0.51153 0.18521 0.0
C1459 C 0.52835 0.49862 0.20435 0.0
C1460 C 0.51334 0.52654 0.38657 0.0
C1461 C 0.37361 0.36876 0.21023 0.0
H1462 H 0.54256 0.00323 0.41518 0.0
H1463 H 0.32891 0.91427 0.19258 0.0
H1464 H 0.55251 0.02832 0.27324 0.0
H1465 H 0.58812 0.02787 0.2938 0.0
H1466 H 0.5467 0.94796 0.29174 0.0
H1467 H 0.51143 0.94842 0.27118 0.0
H1468 H 0.52129 0.02296 0.31342 0.0
H1469 H 0.53434 0.02226 0.35731 0.0
H1470 H 0.48692 0.94261 0.35183 0.0
H1471 H 0.47421 0.94357 0.30787 0.0
H1472 H 0.46469 0.01249 0.30607 0.0
H1473 H 0.43329 0.00503 0.3347 0.0
H1474 H 0.39689 0.92675 0.31048 0.0
H1475 H 0.42802 0.93431 0.2815 0.0
H1476 H 0.43155 0.99951 0.25851 0.0
H1477 H 0.38859 0.98339 0.24542 0.0
H1478 H 0.38656 0.92158 0.20207 0.0
H1479 H 0.42944 0.93757 0.21579 0.0
H1480 H 0.45499 0.012 0.21434 0.0
H1481 H 0.4381 0.01201 0.17254 0.0
H1482 H 0.47533 0.97597 0.14132 0.0
H1483 H 0.48399 0.96752 0.18351 0.0
H1484 H 0.52734 0.03472 0.21699 0.0
H1485 H 0.5536 0.04283 0.18247 0.0
H1486 H 0.54125 0.96787 0.18138 0.0
H1487 H 0.51637 0.96039 0.21683 0.0
O1488 O 0.53687 0.00313 0.39791 0.0
O1489 O 0.51158 0.96232 0.39443 0.0
O1490 O 0.3472 0.95121 0.2234 0.0
O1491 O 0.34594 0.921 0.19804 0.0
C1492 C 0.50674 0.98831 0.26269 0.0
C1493 C 0.48984 0.98379 0.28057 0.0
C1494 C 0.46628 0.97892 0.27274 0.0
C1495 C 0.4596 0.97881 0.24695 0.0
C1496 C 0.47733 0.9861 0.22924 0.0
C1497 C 0.50105 0.99061 0.2373 0.0
C1498 C 0.5295 0.98839 0.2707 0.0
C1499 C 0.55139 0.01073 0.27667 0.0
C1500 C 0.57153 0.01048 0.28851 0.0
C1501 C 0.56982 0.98788 0.29446 0.0
C1502 C 0.54827 0.96554 0.28737 0.0
C1503 C 0.52826 0.96579 0.27555 0.0
C1504 C 0.49675 0.98334 0.30755 0.0
C1505 C 0.51368 0.0054 0.32179 0.0
C1506 C 0.5211 0.00494 0.34684 0.0
C1507 C 0.5117 0.98237 0.35808 0.0
C1508 C 0.49452 0.96031 0.34376 0.0
C1509 C 0.48714 0.9608 0.3187 0.0
C1510 C 0.44852 0.97394 0.29166 0.0
C1511 C 0.45008 0.9937 0.30717 0.0
C1512 C 0.43223 0.98947 0.32343 0.0
C1513 C 0.41282 0.96536 0.32468 0.0
C1514 C 0.41176 0.94547 0.30979 0.0
C1515 C 0.42944 0.94975 0.29331 0.0
C1516 C 0.43361 0.96956 0.23836 0.0
C1517 C 0.42176 0.98234 0.24642 0.0
C1518 C 0.39724 0.97317 0.23879 0.0
C1519 C 0.38411 0.95113 0.22277 0.0
C1520 C 0.39612 0.93857 0.21444 0.0
C1521 C 0.42062 0.94768 0.22222 0.0
C1522 C 0.47084 0.98958 0.20274 0.0
C1523 C 0.45851 0.00288 0.19867 0.0
C1524 C 0.4495 0.00363 0.17448 0.0
C1525 C 0.45557 0.99434 0.15316 0.0
C1526 C 0.46985 0.98301 0.15713 0.0
C1527 C 0.47582 0.97908 0.18151 0.0
C1528 C 0.51969 0.99686 0.21917 0.0
C1529 C 0.53083 0.0203 0.20971 0.0
C1530 C 0.54569 0.02486 0.19001 0.0
C1531 C 0.54891 0.00576 0.17892 0.0
C1532 C 0.53885 0.9828 0.18943 0.0
C1533 C 0.52474 0.97855 0.2097 0.0
C1534 C 0.51996 0.9819 0.38455 0.0
C1535 C 0.358 0.94121 0.2148 0.0
H1536 H 0.48377 0.04805 0.66845 0.0
H1537 H 0.6373 0.99625 0.87807 0.0
H1538 H 0.48337 0.05057 0.82063 0.0
H1539 H 0.45253 0.05787 0.7991 0.0
H1540 H 0.41329 0.98122 0.76852 0.0
H1541 H 0.44469 0.97416 0.78947 0.0
H1542 H 0.50889 0.05402 0.77676 0.0
H1543 H 0.50062 0.05893 0.73265 0.0
H1544 H 0.4805 0.98236 0.7127 0.0
H1545 H 0.48887 0.97776 0.75693 0.0
H1546 H 0.55424 0.05591 0.78306 0.0
H1547 H 0.58695 0.06463 0.75595 0.0
H1548 H 0.5729 0.98937 0.75847 0.0
H1549 H 0.53993 0.98053 0.78542 0.0
H1550 H 0.57678 0.05104 0.83336 0.0
H1551 H 0.61523 0.05344 0.84764 0.0
H1552 H 0.57664 0.97554 0.86044 0.0
H1553 H 0.53834 0.97332 0.84577 0.0
H1554 H 0.5467 0.04678 0.87948 0.0
H1555 H 0.5615 0.04616 0.92284 0.0
H1556 H 0.51217 0.96724 0.91945 0.0
H1557 H 0.49732 0.96785 0.87594 0.0
H1558 H 0.49486 0.04032 0.87593 0.0
H1559 H 0.46862 0.03239 0.91038 0.0
H1560 H 0.42481 0.95587 0.88046 0.0
H1561 H 0.45108 0.96385 0.8459 0.0
O1562 O 0.4872 0.04578 0.68574 0.0
O1563 O 0.47779 0.00656 0.67632 0.0
O1564 O 0.64139 0.03556 0.86453 0.0
O1565 O 0.62236 0.99575 0.87212 0.0
C1566 C 0.48765 0.00951 0.81438 0.0
C1567 C 0.50448 0.0126 0.7967 0.0
C1568 C 0.52636 0.01308 0.80441 0.0
C1569 C 0.53146 0.01064 0.82992 0.0
C1570 C 0.51461 0.00754 0.84755 0.0
C1571 C 0.49252 0.00656 0.83973 0.0
C1572 C 0.46621 0.01187 0.80652 0.0
C1573 C 0.46776 0.03518 0.80988 0.0
C1574 C 0.45025 0.03935 0.79758 0.0
C1575 C 0.43082 0.02014 0.78208 0.0
C1576 C 0.42821 0.99625 0.78039 0.0
C1577 C 0.446 0.9922 0.79235 0.0
C1578 C 0.49929 0.01549 0.76999 0.0
C1579 C 0.5026 0.03832 0.76283 0.0
C1580 C 0.49797 0.04109 0.73761 0.0
C1581 C 0.48987 0.02103 0.71914 0.0
C1582 C 0.48668 0.99818 0.72645 0.0
C1583 C 0.49141 0.99547 0.75167 0.0
C1584 C 0.54461 0.01754 0.78613 0.0
C1585 C 0.55783 0.04113 0.77733 0.0
C1586 C 0.57648 0.04612 0.76194 0.0
C1587 C 0.5822 0.0276 0.75516 0.0
C1588 C 0.56858 0.00381 0.76336 0.0
C1589 C 0.54989 0.99881 0.77875 0.0
C1590 C 0.5548 0.01198 0.83843 0.0
C1591 C 0.5767 0.03448 0.83909 0.0
C1592 C 0.59862 0.03582 0.84734 0.0
C1593 C 0.59901 0.01467 0.85521 0.0
C1594 C 0.577 0.99216 0.8545 0.0
C1595 C 0.55509 0.99084 0.84618 0.0
C1596 C 0.52115 0.00732 0.87461 0.0
C1597 C 0.53878 0.02944 0.88827 0.0
C1598 C 0.54707 0.02912 0.91294 0.0
C1599 C 0.53783 0.00668 0.92422 0.0
C1600 C 0.51931 0.98472 0.91104 0.0
C1601 C 0.51096 0.98505 0.8863 0.0
C1602 C 0.47479 0.00269 0.85838 0.0
C1603 C 0.47935 0.02197 0.87654 0.0
C1604 C 0.46447 0.01744 0.89617 0.0
C1605 C 0.44487 0.99355 0.89792 0.0
C1606 C 0.43984 0.97441 0.87934 0.0
C1607 C 0.4547 0.97898 0.85964 0.0
C1608 C 0.4846 0.02392 0.69243 0.0
C1609 C 0.62223 0.01606 0.8642 0.0
H1610 H 0.95143 0.45444 0.66844 0.0
H1611 H 0.06446 0.67778 0.89267 0.0
H1612 H 0.97639 0.45496 0.82459 0.0
H1613 H 0.97297 0.41531 0.81186 0.0
H1614 H 0.035 0.45299 0.76922 0.0
H1615 H 0.03897 0.49208 0.78342 0.0
H1616 H 0.96644 0.47811 0.77771 0.0
H1617 H 0.95348 0.46266 0.73331 0.0
H1618 H 0.02307 0.51915 0.71313 0.0
H1619 H 0.0359 0.53424 0.75764 0.0
H1620 H 0.96991 0.53081 0.78695 0.0
H1621 H 0.95969 0.55901 0.76546 0.0
H1622 H 0.03581 0.61182 0.76495 0.0
H1623 H 0.0461 0.58362 0.78682 0.0
H1624 H 0.98814 0.56533 0.83525 0.0
H1625 H 0.99541 0.60543 0.854 0.0
H1626 H 0.07189 0.62978 0.86742 0.0
H1627 H 0.06435 0.58955 0.84864 0.0
H1628 H 0.98726 0.53701 0.87331 0.0
H1629 H 0.99062 0.55593 0.91559 0.0
H1630 H 0.06349 0.56844 0.92925 0.0
H1631 H 0.0603 0.54974 0.88612 0.0
H1632 H 0.99283 0.49652 0.88416 0.0
H1633 H 0.99736 0.4742 0.91775 0.0
H1634 H 0.03748 0.4513 0.87111 0.0
H1635 H 0.04197 0.48264 0.84277 0.0
O1636 O 0.95696 0.46081 0.6859 0.0
O1637 O 0.99299 0.49025 0.67651 0.0
O1638 O 0.02199 0.64928 0.87562 0.0
O1639 O 0.06119 0.66203 0.88448 0.0
C1640 C 0.0122 0.50126 0.81558 0.0
C1641 C 0.00993 0.51654 0.7979 0.0
C1642 C 0.01428 0.54048 0.80596 0.0
C1643 C 0.021 0.54933 0.83158 0.0
C1644 C 0.02174 0.53368 0.84959 0.0
C1645 C 0.0176 0.50951 0.8418 0.0
C1646 C 0.00883 0.47664 0.80627 0.0
C1647 C 0.98985 0.45455 0.81334 0.0
C1648 C 0.9884 0.43179 0.80644 0.0
C1649 C 0.00634 0.43042 0.79294 0.0
C1650 C 0.02313 0.45254 0.78294 0.0
C1651 C 0.02487 0.47533 0.79021 0.0
C1652 C 0.00214 0.5072 0.7709 0.0
C1653 C 0.9789 0.48702 0.76368 0.0
C1654 C 0.97152 0.47829 0.7383 0.0
C1655 C 0.98724 0.48965 0.71966 0.0
C1656 C 0.01051 0.50996 0.727 0.0
C1657 C 0.01788 0.51865 0.75239 0.0
C1658 C 0.00872 0.55522 0.7884 0.0
C1659 C 0.9844 0.54813 0.78156 0.0
C1660 C 0.97858 0.5642 0.76946 0.0
C1661 C 0.99703 0.58743 0.76388 0.0
C1662 C 0.02141 0.59389 0.76916 0.0
C1663 C 0.02724 0.57787 0.78152 0.0
C1664 C 0.02578 0.57467 0.84024 0.0
C1665 C 0.00652 0.57953 0.84176 0.0
C1666 C 0.01069 0.60236 0.85273 0.0
C1667 C 0.03425 0.62082 0.86221 0.0
C1668 C 0.05355 0.61601 0.86025 0.0
C1669 C 0.04933 0.59312 0.84939 0.0
C1670 C 0.02359 0.54215 0.8766 0.0
C1671 C 0.00394 0.54367 0.88541 0.0
C1672 C 0.00583 0.5544 0.90947 0.0
C1673 C 0.02733 0.56371 0.92529 0.0
C1674 C 0.0468 0.56137 0.91709 0.0
C1675 C 0.04496 0.55068 0.89269 0.0
C1676 C 0.01802 0.49275 0.86106 0.0
C1677 C 0.00469 0.48886 0.88208 0.0
C1678 C 0.00637 0.47494 0.90095 0.0
C1679 C 0.01784 0.4607 0.89746 0.0
C1680 C 0.02933 0.46267 0.87524 0.0
C1681 C 0.03107 0.47997 0.85837 0.0
C1682 C 0.97934 0.48034 0.69271 0.0
C1683 C 0.03868 0.64487 0.87444 0.0
H1684 H 0.45928 0.46734 0.6671 0.0
H1685 H 0.64868 0.65746 0.89614 0.0
H1686 H 0.44448 0.48786 0.8156 0.0
H1687 H 0.40967 0.4488 0.7958 0.0
H1688 H 0.45738 0.41917 0.78352 0.0
H1689 H 0.492 0.45805 0.80308 0.0
H1690 H 0.47177 0.51161 0.76994 0.0
H1691 H 0.46117 0.49484 0.72575 0.0
H1692 H 0.5214 0.48067 0.72963 0.0
H1693 H 0.53162 0.4972 0.77393 0.0
H1694 H 0.52444 0.55969 0.76956 0.0
H1695 H 0.55453 0.58065 0.73937 0.0
H1696 H 0.60562 0.56663 0.78217 0.0
H1697 H 0.57529 0.54465 0.81144 0.0
H1698 H 0.54151 0.59078 0.82842 0.0
H1699 H 0.57624 0.63124 0.84377 0.0
H1700 H 0.61062 0.59437 0.88064 0.0
H1701 H 0.576 0.55405 0.86477 0.0
H1702 H 0.52039 0.56717 0.8857 0.0
H1703 H 0.53764 0.57923 0.93011 0.0
H1704 H 0.55322 0.5189 0.92804 0.0
H1705 H 0.53585 0.50678 0.88407 0.0
H1706 H 0.47047 0.51655 0.87815 0.0
H1707 H 0.44755 0.49065 0.91115 0.0
H1708 H 0.46745 0.43599 0.88829 0.0
H1709 H 0.49074 0.46199 0.85589 0.0
O1710 O 0.46405 0.47426 0.68448 0.0
O1711 O 0.49579 0.46822 0.68715 0.0
O1712 O 0.61798 0.65973 0.86746 0.0
O1713 O 0.63493 0.64171 0.88943 0.0
C1714 C 0.49213 0.49998 0.81977 0.0
C1715 C 0.50801 0.51462 0.80229 0.0
C1716 C 0.52942 0.53704 0.81083 0.0
C1717 C 0.5345 0.54508 0.83686 0.0
C1718 C 0.51899 0.52999 0.85438 0.0
C1719 C 0.49767 0.50749 0.84584 0.0
C1720 C 0.47069 0.47571 0.81064 0.0
C1721 C 0.44729 0.47276 0.80899 0.0
C1722 C 0.42755 0.45063 0.79772 0.0
C1723 C 0.43113 0.43128 0.78829 0.0
C1724 C 0.45438 0.43395 0.7908 0.0
C1725 C 0.47404 0.45603 0.80188 0.0
C1726 C 0.50251 0.50571 0.77508 0.0
C1727 C 0.4827 0.50496 0.76117 0.0
C1728 C 0.47669 0.49537 0.73594 0.0
C1729 C 0.49041 0.48638 0.72416 0.0
C1730 C 0.51045 0.48743 0.73813 0.0
C1731 C 0.51639 0.49696 0.76339 0.0
C1732 C 0.5477 0.55081 0.79292 0.0
C1733 C 0.54208 0.56105 0.77236 0.0
C1734 C 0.5592 0.57298 0.75518 0.0
C1735 C 0.58236 0.57534 0.75866 0.0
C1736 C 0.58792 0.56512 0.77921 0.0
C1737 C 0.5707 0.5528 0.79603 0.0
C1738 C 0.55608 0.56949 0.84573 0.0
C1739 C 0.5566 0.59149 0.83973 0.0
C1740 C 0.57645 0.61456 0.84855 0.0
C1741 C 0.59613 0.61603 0.8636 0.0
C1742 C 0.5957 0.59391 0.86925 0.0
C1743 C 0.5759 0.57085 0.86029 0.0
C1744 C 0.52687 0.53609 0.88175 0.0
C1745 C 0.5272 0.55638 0.89501 0.0
C1746 C 0.53702 0.56325 0.9202 0.0
C1747 C 0.54683 0.55003 0.93218 0.0
C1748 C 0.54578 0.52932 0.91907 0.0
C1749 C 0.53582 0.52237 0.89409 0.0
C1750 C 0.48209 0.49105 0.8644 0.0
C1751 C 0.46964 0.49885 0.88009 0.0
C1752 C 0.45653 0.4841 0.89879 0.0
C1753 C 0.45567 0.46135 0.90195 0.0
C1754 C 0.46771 0.45337 0.88594 0.0
C1755 C 0.4809 0.46814 0.86742 0.0
C1756 C 0.48368 0.47575 0.69749 0.0
C1757 C 0.61697 0.64051 0.87351 0.0
H1758 H 0.63784 0.85348 0.74668 0.0
H1759 H 0.67232 0.69427 0.53642 0.0
H1760 H 0.6188 0.85378 0.61172 0.0
H1761 H 0.62507 0.89465 0.62771 0.0
H1762 H 0.69828 0.92952 0.60642 0.0
H1763 H 0.69198 0.88883 0.59033 0.0
H1764 H 0.61718 0.80747 0.64333 0.0
H1765 H 0.61906 0.8211 0.68763 0.0
H1766 H 0.69243 0.88066 0.68372 0.0
H1767 H 0.69042 0.86662 0.63957 0.0
H1768 H 0.619 0.76006 0.61859 0.0
H1769 H 0.62914 0.73308 0.64295 0.0
H1770 H 0.70354 0.79205 0.65581 0.0
H1771 H 0.69343 0.81895 0.63173 0.0
H1772 H 0.61124 0.75385 0.56022 0.0
H1773 H 0.61134 0.71616 0.54445 0.0
H1774 H 0.68912 0.75327 0.56246 0.0
H1775 H 0.68864 0.79059 0.57865 0.0
H1776 H 0.61351 0.79346 0.52195 0.0
H1777 H 0.6145 0.7767 0.4794 0.0
H1778 H 0.69035 0.80051 0.49634 0.0
H1779 H 0.68939 0.81724 0.53857 0.0
H1780 H 0.61939 0.85144 0.55124 0.0
H1781 H 0.62299 0.87827 0.51723 0.0
H1782 H 0.69249 0.88583 0.50404 0.0
H1783 H 0.68962 0.86044 0.53884 0.0
O1784 O 0.63758 0.84824 0.72923 0.0
O1785 O 0.67511 0.87879 0.72609 0.0
O1786 O 0.63178 0.6907 0.53343 0.0
O1787 O 0.67169 0.70878 0.54283 0.0
C1788 C 0.65216 0.84374 0.5924 0.0
C1789 C 0.65202 0.82827 0.61116 0.0
C1790 C 0.65127 0.80563 0.60417 0.0
C1791 C 0.64999 0.79816 0.57847 0.0
C1792 C 0.65038 0.81368 0.55983 0.0
C1793 C 0.65169 0.83658 0.56673 0.0
C1794 C 0.65495 0.86841 0.5999 0.0
C1795 C 0.63605 0.8703 0.61022 0.0
C1796 C 0.6396 0.89349 0.61927 0.0
C1797 C 0.66217 0.91495 0.61833 0.0
C1798 C 0.68077 0.91312 0.6073 0.0
C1799 C 0.67718 0.89 0.59811 0.0
C1800 C 0.65358 0.83618 0.63822 0.0
C1801 C 0.63367 0.82338 0.65213 0.0
C1802 C 0.63478 0.83124 0.6774 0.0
C1803 C 0.65586 0.85205 0.68919 0.0
C1804 C 0.6759 0.86463 0.67521 0.0
C1805 C 0.67478 0.85669 0.64998 0.0
C1806 C 0.6555 0.79143 0.62348 0.0
C1807 C 0.63727 0.76739 0.62742 0.0
C1808 C 0.64303 0.75207 0.64125 0.0
C1809 C 0.66708 0.76067 0.65101 0.0
C1810 C 0.68489 0.78522 0.64846 0.0
C1811 C 0.67911 0.80055 0.63484 0.0
C1812 C 0.64987 0.77477 0.57082 0.0
C1813 C 0.6282 0.75363 0.56106 0.0
C1814 C 0.62835 0.73221 0.55196 0.0
C1815 C 0.65026 0.7317 0.55223 0.0
C1816 C 0.67194 0.75301 0.562 0.0
C1817 C 0.67171 0.77429 0.57142 0.0
C1818 C 0.65137 0.80648 0.53322 0.0
C1819 C 0.6304 0.79544 0.51624 0.0
C1820 C 0.63095 0.78589 0.49215 0.0
C1821 C 0.6525 0.78743 0.48496 0.0
C1822 C 0.67362 0.79926 0.50165 0.0
C1823 C 0.67307 0.80876 0.52562 0.0
C1824 C 0.65403 0.85359 0.54713 0.0
C1825 C 0.63548 0.85912 0.54117 0.0
C1826 C 0.63748 0.87428 0.52183 0.0
C1827 C 0.6578 0.88355 0.50796 0.0
C1828 C 0.67655 0.87851 0.51436 0.0
C1829 C 0.67484 0.86394 0.53403 0.0
C1830 C 0.65686 0.86056 0.71593 0.0
C1831 C 0.65058 0.70912 0.54225 0.0
H1832 H 0.17608 0.87838 0.74731 0.0
H1833 H 0.00089 0.69534 0.53146 0.0
H1834 H 0.18258 0.88306 0.61234 0.0
H1835 H 0.22154 0.91843 0.62962 0.0
H1836 H 0.25665 0.87502 0.61696 0.0
H1837 H 0.21732 0.83928 0.59953 0.0
H1838 H 0.13889 0.85144 0.64094 0.0
H1839 H 0.14995 0.86565 0.68578 0.0
H1840 H 0.19755 0.83432 0.68905 0.0
H1841 H 0.18603 0.81987 0.64429 0.0
H1842 H 0.0899 0.81153 0.60508 0.0
H1843 H 0.05727 0.79011 0.63235 0.0
H1844 H 0.09862 0.76081 0.66975 0.0
H1845 H 0.13035 0.78055 0.64113 0.0
H1846 H 0.09582 0.8103 0.5452 0.0
H1847 H 0.05439 0.78106 0.5272 0.0
H1848 H 0.05571 0.72338 0.56853 0.0
H1849 H 0.0972 0.75267 0.58617 0.0
H1850 H 0.15278 0.837 0.51664 0.0
H1851 H 0.14194 0.82011 0.47277 0.0
H1852 H 0.1009 0.74643 0.49736 0.0
H1853 H 0.12004 0.76239 0.53967 0.0
H1854 H 0.18761 0.87772 0.55915 0.0
H1855 H 0.21592 0.89899 0.528 0.0
H1856 H 0.21705 0.83167 0.50668 0.0
H1857 H 0.18947 0.81049 0.53901 0.0
O1858 O 0.1718 0.87241 0.72965 0.0
O1859 O 0.1962 0.8562 0.73025 0.0
O1860 O 0.01578 0.73851 0.52087 0.0
O1861 O 0.01679 0.70755 0.53925 0.0
C1862 C 0.17314 0.8373 0.59508 0.0
C1863 C 0.15522 0.82634 0.61198 0.0
C1864 C 0.13127 0.80846 0.60281 0.0
C1865 C 0.12533 0.80113 0.57662 0.0
C1866 C 0.1437 0.81084 0.55958 0.0
C1867 C 0.16765 0.82949 0.56898 0.0
C1868 C 0.19716 0.85864 0.60476 0.0
C1869 C 0.19863 0.88111 0.61331 0.0
C1870 C 0.22076 0.90121 0.62315 0.0
C1871 C 0.24177 0.89916 0.62462 0.0
C1872 C 0.24049 0.87676 0.61601 0.0
C1873 C 0.21822 0.85655 0.60603 0.0
C1874 C 0.16155 0.83451 0.6394 0.0
C1875 C 0.15153 0.84748 0.65143 0.0
C1876 C 0.15797 0.85566 0.67702 0.0
C1877 C 0.17464 0.85112 0.691 0.0
C1878 C 0.18464 0.83811 0.67884 0.0
C1879 C 0.17812 0.82986 0.65328 0.0
C1880 C 0.11238 0.79729 0.62078 0.0
C1881 C 0.09187 0.80034 0.61901 0.0
C1882 C 0.07338 0.78833 0.63469 0.0
C1883 C 0.07548 0.77376 0.65296 0.0
C1884 C 0.09661 0.77186 0.65568 0.0
C1885 C 0.1147 0.78316 0.63943 0.0
C1886 C 0.09958 0.78364 0.56696 0.0
C1887 C 0.08709 0.79138 0.55044 0.0
C1888 C 0.06343 0.77464 0.54019 0.0
C1889 C 0.05179 0.74984 0.54633 0.0
C1890 C 0.06417 0.7423 0.56333 0.0
C1891 C 0.08782 0.75904 0.57356 0.0
C1892 C 0.13741 0.80115 0.53215 0.0
C1893 C 0.14318 0.81706 0.5126 0.0
C1894 C 0.13615 0.80737 0.48735 0.0
C1895 C 0.11995 0.78184 0.48114 0.0
C1896 C 0.11371 0.76611 0.50085 0.0
C1897 C 0.12396 0.77541 0.52549 0.0
C1898 C 0.18656 0.84256 0.55154 0.0
C1899 C 0.19454 0.8677 0.54843 0.0
C1900 C 0.21056 0.8798 0.53059 0.0
C1901 C 0.21854 0.86687 0.51519 0.0
C1902 C 0.21117 0.84192 0.51861 0.0
C1903 C 0.19544 0.82988 0.53691 0.0
C1904 C 0.18158 0.86001 0.71814 0.0
C1905 C 0.02701 0.73174 0.53475 0.0
H1906 H 0.21039 0.35893 0.75427 0.0
H1907 H 0.00633 0.3083 0.56269 0.0
H1908 H 0.22285 0.37238 0.61914 0.0
H1909 H 0.25705 0.36836 0.63775 0.0
H1910 H 0.21804 0.28993 0.61393 0.0
H1911 H 0.18431 0.29412 0.5948 0.0
H1912 H 0.18005 0.37214 0.65318 0.0
H1913 H 0.19402 0.37366 0.69732 0.0
H1914 H 0.1786 0.29764 0.68516 0.0
H1915 H 0.16447 0.29633 0.64115 0.0
H1916 H 0.12584 0.36406 0.62768 0.0
H1917 H 0.09318 0.35472 0.65526 0.0
H1918 H 0.08503 0.28223 0.66315 0.0
H1919 H 0.11733 0.29137 0.63543 0.0
H1920 H 0.12709 0.36885 0.56618 0.0
H1921 H 0.08836 0.36738 0.55561 0.0
H1922 H 0.05015 0.29183 0.57622 0.0
H1923 H 0.08893 0.29342 0.5864 0.0
H1924 H 0.16938 0.36968 0.5332 0.0
H1925 H 0.15385 0.36822 0.4895 0.0
H1926 H 0.09527 0.29393 0.49485 0.0
H1927 H 0.11149 0.29481 0.53806 0.0
H1928 H 0.212 0.37392 0.55673 0.0
H1929 H 0.23349 0.37338 0.51989 0.0
H1930 H 0.18733 0.29387 0.50751 0.0
H1931 H 0.16557 0.29457 0.54372 0.0
O1932 O 0.20448 0.35782 0.73685 0.0
O1933 O 0.19655 0.31882 0.72951 0.0
O1934 O 0.04192 0.3463 0.55119 0.0
O1935 O 0.02184 0.30898 0.56546 0.0
C1936 C 0.17901 0.33476 0.5983 0.0
C1937 C 0.16378 0.33377 0.61705 0.0
C1938 C 0.14131 0.33236 0.61024 0.0
C1939 C 0.13438 0.33264 0.5846 0.0
C1940 C 0.14968 0.33375 0.56585 0.0
C1941 C 0.17202 0.33478 0.57271 0.0
C1942 C 0.20123 0.33355 0.60557 0.0
C1943 C 0.22203 0.35451 0.61737 0.0
C1944 C 0.24138 0.35219 0.62806 0.0
C1945 C 0.23987 0.32879 0.62744 0.0
C1946 C 0.21948 0.30809 0.61466 0.0
C1947 C 0.20036 0.3105 0.60365 0.0
C1948 C 0.17143 0.33421 0.64399 0.0
C1949 C 0.17962 0.35582 0.66015 0.0
C1950 C 0.18762 0.35664 0.68532 0.0
C1951 C 0.18752 0.3358 0.69475 0.0
C1952 C 0.17898 0.31404 0.6785 0.0
C1953 C 0.17097 0.31325 0.65335 0.0
C1954 C 0.12405 0.32843 0.62958 0.0
C1955 C 0.11731 0.34635 0.63572 0.0
C1956 C 0.09876 0.34106 0.65143 0.0
C1957 C 0.08682 0.31783 0.66126 0.0
C1958 C 0.09417 0.3003 0.65588 0.0
C1959 C 0.11263 0.30556 0.64017 0.0
C1960 C 0.11082 0.33135 0.57733 0.0
C1961 C 0.11033 0.35197 0.56828 0.0
C1962 C 0.08819 0.35109 0.56229 0.0
C1963 C 0.06617 0.32956 0.56535 0.0
C1964 C 0.06677 0.30877 0.57389 0.0
C1965 C 0.08889 0.30964 0.57976 0.0
C1966 C 0.14151 0.33238 0.53884 0.0
C1967 C 0.15356 0.35287 0.52475 0.0
C1968 C 0.1447 0.35209 0.49992 0.0
C1969 C 0.12342 0.33102 0.48911 0.0
C1970 C 0.11173 0.31031 0.50295 0.0
C1971 C 0.12088 0.31088 0.52755 0.0
C1972 C 0.18721 0.33427 0.55281 0.0
C1973 C 0.20684 0.35637 0.54628 0.0
C1974 C 0.21908 0.35606 0.52536 0.0
C1975 C 0.21206 0.33357 0.51104 0.0
C1976 C 0.19311 0.31139 0.51837 0.0
C1977 C 0.18071 0.31176 0.53898 0.0
C1978 C 0.19641 0.33686 0.72139 0.0
C1979 C 0.04263 0.32885 0.56011 0.0
C1980 C 0.99348 0.40566 0.08967 0.0
C1981 C 0.00274 0.4226 0.07063 0.0
C1982 C 0.99173 0.45049 0.09342 0.0
C1983 C 0.98559 0.43534 0.11359 0.0
N1984 N 0.98123 0.39905 0.13226 0.0
N1985 N 0.01717 0.46502 0.05974 0.0
C1986 C 0.98627 0.41285 0.11193 0.0
C1987 C 0.00352 0.44603 0.07379 0.0
N1988 N 0.9926 0.38317 0.08718 0.0
N1989 N 0.98699 0.46973 0.09344 0.0
H1990 H 0.02938 0.46464 0.04807 0.0
H1991 H 0.01958 0.48284 0.06277 0.0
H1992 H 0.97885 0.47381 0.10795 0.0
H1993 H 0.98875 0.47987 0.07791 0.0
H1994 H 0.98282 0.36876 0.09825 0.0
H1995 H 0.00129 0.37852 0.0738 0.0
H1996 H 0.9845 0.38428 0.13394 0.0
H1997 H 0.97468 0.40317 0.14822 0.0
C1998 C 0.55974 0.56132 0.11709 0.0
C1999 C 0.58549 0.57572 0.12072 0.0
C2000 C 0.58519 0.56224 0.16328 0.0
C2001 C 0.55949 0.54855 0.16 0.0
N2002 N 0.52175 0.53555 0.13494 0.0
N2003 N 0.62224 0.59459 0.14907 0.0
C2004 C 0.5466 0.54828 0.1372 0.0
C2005 C 0.59813 0.5774 0.14427 0.0
N2006 N 0.548 0.55941 0.09402 0.0
N2007 N 0.59726 0.56065 0.18459 0.0
H2008 H 0.63239 0.60651 0.13598 0.0
H2009 H 0.63187 0.59861 0.16672 0.0
H2010 H 0.58844 0.55069 0.19948 0.0
H2011 H 0.61593 0.56767 0.1868 0.0
H2012 H 0.52958 0.54754 0.08908 0.0
H2013 H 0.55703 0.56834 0.07874 0.0
H2014 H 0.51095 0.53651 0.12012 0.0
H2015 H 0.51157 0.5245 0.1486 0.0
C2016 C 0.42876 0.01571 0.10116 0.0
C2017 C 0.42333 0.99787 0.08053 0.0
C2018 C 0.4373 0.9761 0.10793 0.0
C2019 C 0.44647 0.99619 0.1271 0.0
N2020 N 0.4581 0.03945 0.13641 0.0
N2021 N 0.42926 0.96487 0.06301 0.0
C2022 C 0.44476 0.01755 0.1218 0.0
C2023 C 0.43028 0.97958 0.0834 0.0
N2024 N 0.41729 0.02937 0.10246 0.0
N2025 N 0.43264 0.95295 0.11332 0.0
H2026 H 0.42449 0.96727 0.04474 0.0
H2027 H 0.43567 0.95233 0.06421 0.0
H2028 H 0.43356 0.94817 0.13163 0.0
H2029 H 0.42441 0.93768 0.0999 0.0
H2030 H 0.41968 0.04106 0.11838 0.0
H2031 H 0.40355 0.02707 0.08913 0.0
H2032 H 0.45683 0.05524 0.13334 0.0
H2033 H 0.47209 0.04236 0.14982 0.0
C2034 C 0.40045 0.99387 0.9425 0.0
C2035 C 0.40868 0.98758 0.96478 0.0
C2036 C 0.43746 0.9807 0.94196 0.0
C2037 C 0.43042 0.98857 0.92001 0.0
N2038 N 0.40193 0.99725 0.89729 0.0
N2039 N 0.4284 0.96717 0.98391 0.0
C2040 C 0.41069 0.99329 0.91959 0.0
C2041 C 0.42507 0.97839 0.96386 0.0
N2042 N 0.38338 0.00112 0.94363 0.0
N2043 N 0.4567 0.97654 0.94221 0.0
H2044 H 0.41886 0.96481 0.99974 0.0
H2045 H 0.43865 0.95826 0.98394 0.0
H2046 H 0.46583 0.9774 0.92634 0.0
H2047 H 0.46457 0.97366 0.95845 0.0
H2048 H 0.37833 0.00868 0.92904 0.0
H2049 H 0.37452 3e-05 0.95977 0.0
H2050 H 0.38647 0.99896 0.89506 0.0
H2051 H 0.40931 0.99718 0.88035 0.0
C2052 C 0.99553 0.42144 0.95218 0.0
C2053 C 0.01436 0.41618 0.95882 0.0
C2054 C 0.0364 0.4399 0.92468 0.0
C2055 C 0.01644 0.44327 0.91679 0.0
N2056 N 0.97291 0.42538 0.91674 0.0
N2057 N 0.04751 0.41194 0.9441 0.0
C2058 C 0.99466 0.43034 0.92856 0.0
C2059 C 0.03322 0.42264 0.94277 0.0
N2060 N 0.97873 0.41859 0.96844 0.0
N2061 N 0.05862 0.45377 0.91623 0.0
H2062 H 0.04496 0.39838 0.95627 0.0
H2063 H 0.06015 0.41465 0.93127 0.0
H2064 H 0.06325 0.46964 0.90689 0.0
H2065 H 0.07338 0.45142 0.92133 0.0
H2066 H 0.96577 0.42397 0.96454 0.0
H2067 H 0.97954 0.41376 0.98678 0.0
H2068 H 0.95649 0.41455 0.92426 0.0
H2069 H 0.97113 0.42931 0.89819 0.0
C2070 C 0.59434 0.58626 0.98776 0.0
C2071 C 0.58525 0.56889 0.00638 0.0
C2072 C 0.54934 0.54187 0.97732 0.0
C2073 C 0.55915 0.55804 0.95819 0.0
N2074 N 0.5934 0.59321 0.94343 0.0
N2075 N 0.5593 0.52553 0.01315 0.0
C2076 C 0.58228 0.57969 0.96292 0.0
C2077 C 0.56422 0.54533 0.99966 0.0
N2078 N 0.61495 0.60872 0.99342 0.0
N2079 N 0.52579 0.52305 0.97413 0.0
H2080 H 0.57206 0.52555 0.02621 0.0
H2081 H 0.54469 0.50777 0.00805 0.0
H2082 H 0.51425 0.52025 0.95806 0.0
H2083 H 0.51716 0.51207 0.98851 0.0
H2084 H 0.62029 0.62338 0.98204 0.0
H2085 H 0.62654 0.61305 0.00979 0.0
H2086 H 0.61142 0.6074 0.94505 0.0
H2087 H 0.58532 0.58898 0.92496 0.0
C2088 C 0.03118 0.61323 0.97229 0.0
C2089 C 0.01934 0.59862 0.99219 0.0
C2090 C 0.0174 0.56204 0.96987 0.0
C2091 C 0.02888 0.57649 0.95006 0.0
N2092 N 0.0513 0.61651 0.93417 0.0
N2093 N 0.0012 0.55841 0.00941 0.0
C2094 C 0.03737 0.60238 0.95194 0.0
C2095 C 0.01261 0.57305 0.9909 0.0
N2096 N 0.03484 0.63686 0.97178 0.0
N2097 N 0.01079 0.53743 0.96864 0.0
H2098 H 0.99728 0.56483 0.02588 0.0
H2099 H 0.99728 0.56483 0.02588 0.0
H2100 H 0.0146 0.52868 0.95382 0.0
H2101 H 0.00211 0.52607 0.98279 0.0
H2102 H 0.04076 0.64739 0.95647 0.0
H2103 H 0.03028 0.64557 0.98589 0.0
H2104 H 0.06036 0.63585 0.93576 0.0
H2105 H 0.05565 0.60898 0.91876 0.0
C2106 C 0.44869 0.42715 0.9603 0.0
C2107 C 0.42306 0.41476 0.96215 0.0
C2108 C 0.41842 0.43096 0.92187 0.0
C2109 C 0.44394 0.44656 0.92325 0.0
N2110 N 0.48302 0.46319 0.94675 0.0
N2111 N 0.38315 0.40247 0.94199 0.0
C2112 C 0.45888 0.4459 0.9435 0.0
C2113 C 0.40781 0.41613 0.94218 0.0
N2114 N 0.46344 0.42 0.97261 0.0
N2115 N 0.40446 0.42951 0.90064 0.0
H2116 H 0.37452 0.38789 0.95326 0.0
H2117 H 0.37118 0.40553 0.93058 0.0
H2118 H 0.41162 0.44033 0.8857 0.0
H2119 H 0.3861 0.41655 0.89697 0.0
H2120 H 0.4818 0.42774 0.97006 0.0
H2121 H 0.45734 0.40397 0.98187 0.0
H2122 H 0.49416 0.46509 0.96284 0.0
H2123 H 0.49132 0.47719 0.93471 0.0
C2124 C 0.55989 0.01804 0.99378 0.0
C2125 C 0.57795 0.0109 0.9937 0.0
C2126 C 0.56917 0.00037 0.94791 0.0
C2127 C 0.55009 0.006 0.9484 0.0
N2128 N 0.52438 0.01611 0.97168 0.0
N2129 N 0.59913 0.99383 0.97109 0.0
C2130 C 0.54457 0.01362 0.97135 0.0
C2131 C 0.58229 0.0015 0.97089 0.0
N2132 N 0.55774 0.02955 0.01516 0.0
N2133 N 0.57549 0.99512 0.92527 0.0
H2134 H 0.61054 0.99596 0.98694 0.0
H2135 H 0.60088 0.98383 0.95593 0.0
H2136 H 0.56589 0.99332 0.90804 0.0
H2137 H 0.59115 0.9941 0.92314 0.0
H2138 H 0.54662 0.03746 0.01586 0.0
H2139 H 0.56837 0.03263 0.032 0.0
H2140 H 0.51782 0.01907 0.98816 0.0
H2141 H 0.51289 0.01304 0.95548 0.0
C2142 C 0.56476 0.01715 0.11094 0.0
C2143 C 0.58217 0.0093 0.10981 0.0
C2144 C 0.5822 0.00571 0.1554 0.0
C2145 C 0.56162 0.00905 0.15551 0.0
N2146 N 0.53082 0.01405 0.13175 0.0
N2147 N 0.60693 0.99476 0.13063 0.0
C2148 C 0.55233 0.01399 0.1329 0.0
C2149 C 0.59084 0.00329 0.132 0.0
N2150 N 0.56018 0.02779 0.09107 0.0
N2151 N 0.59385 0.00553 0.17769 0.0
H2152 H 0.6144 0.99377 0.11403 0.0
H2153 H 0.61171 0.9873 0.14556 0.0
H2154 H 0.58843 0.00803 0.19516 0.0
H2155 H 0.6102 0.0054 0.17893 0.0
H2156 H 0.54928 0.03597 0.09173 0.0
H2157 H 0.56933 0.03065 0.07493 0.0
H2158 H 0.52207 0.01489 0.11498 0.0
H2159 H 0.52042 0.01076 0.14694 0.0
C2160 C 0.0169 0.60442 0.12698 0.0
C2161 C 0.00464 0.59375 0.10262 0.0
C2162 C 0.98109 0.55316 0.11948 0.0
C2163 C 0.99511 0.56334 0.14306 0.0
N2164 N 0.02607 0.5982 0.16999 0.0
N2165 N 0.9754 0.55785 0.07523 0.0
C2166 C 0.01282 0.58891 0.14705 0.0
C2167 C 0.98651 0.56818 0.09885 0.0
N2168 N 0.03189 0.62957 0.13106 0.0
N2169 N 0.96261 0.52902 0.1168 0.0
H2170 H 0.97739 0.56816 0.05989 0.0
H2171 H 0.96495 0.53883 0.07031 0.0
H2172 H 0.95919 0.51681 0.13075 0.0
H2173 H 0.94962 0.52129 0.10137 0.0
H2174 H 0.03929 0.63905 0.14876 0.0
H2175 H 0.0357 0.64149 0.11681 0.0
H2176 H 0.04144 0.61567 0.17342 0.0
H2177 H 0.02228 0.58795 0.18569 0.0
C2178 C 0.43576 0.44172 0.08113 0.0
C2179 C 0.41609 0.41696 0.07787 0.0
C2180 C 0.41994 0.41367 0.12338 0.0
C2181 C 0.44148 0.43716 0.12602 0.0
N2182 N 0.47213 0.47201 0.10696 0.0
N2183 N 0.38996 0.37853 0.09575 0.0
C2184 C 0.44999 0.45083 0.10477 0.0
C2185 C 0.40848 0.40261 0.09892 0.0
N2186 N 0.44077 0.4566 0.06172 0.0
N2187 N 0.40943 0.40268 0.14433 0.0
H2188 H 0.37938 0.37011 0.07878 0.0
H2189 H 0.38606 0.36625 0.10968 0.0
H2190 H 0.41661 0.41051 0.16268 0.0
H2191 H 0.3923 0.38703 0.14368 0.0
H2192 H 0.45312 0.47559 0.06384 0.0
H2193 H 0.43156 0.45026 0.04375 0.0
H2194 H 0.4804 0.4815 0.09164 0.0
H2195 H 0.48336 0.47881 0.12383 0.0
C2196 C 0.65814 0.74298 0.43829 0.0
C2197 C 0.66137 0.75563 0.4161 0.0
C2198 C 0.65555 0.78751 0.43831 0.0
C2199 C 0.65293 0.77527 0.4606 0.0
N2200 N 0.64585 0.73871 0.48086 0.0
N2201 N 0.65447 0.78418 0.39284 0.0
C2202 C 0.65231 0.75208 0.46025 0.0
C2203 C 0.65748 0.77622 0.41546 0.0
N2204 N 0.66143 0.72281 0.43863 0.0
N2205 N 0.65704 0.81028 0.43913 0.0
H2206 H 0.65436 0.77513 0.37586 0.0
H2207 H 0.64949 0.79773 0.39083 0.0
H2208 H 0.65511 0.81888 0.45544 0.0
H2209 H 0.66177 0.82137 0.4241 0.0
H2210 H 0.6625 0.71475 0.45497 0.0
H2211 H 0.66436 0.71472 0.42263 0.0
H2212 H 0.64276 0.72062 0.48113 0.0
H2213 H 0.64158 0.74496 0.49725 0.0
C2214 C 0.27186 0.90709 0.47867 0.0
C2215 C 0.25954 0.90704 0.45553 0.0
C2216 C 0.22024 0.8803 0.47153 0.0
C2217 C 0.23268 0.87912 0.49397 0.0
N2218 N 0.26983 0.8884 0.51807 0.0
N2219 N 0.22229 0.89299 0.42898 0.0
C2220 C 0.25837 0.89155 0.49722 0.0
C2221 C 0.23376 0.89361 0.45179 0.0
N2222 N 0.29625 0.92308 0.48352 0.0
N2223 N 0.19544 0.86898 0.46939 0.0
H2224 H 0.23156 0.90219 0.41394 0.0
H2225 H 0.2038 0.88173 0.42391 0.0
H2226 H 0.18488 0.85779 0.48274 0.0
H2227 H 0.18515 0.87138 0.45507 0.0
H2228 H 0.30587 0.92599 0.50099 0.0
H2229 H 0.30679 0.935 0.47062 0.0
H2230 H 0.28839 0.89474 0.52036 0.0
H2231 H 0.2605 0.87769 0.53233 0.0
C2232 C 0.08331 0.33909 0.43928 0.0
C2233 C 0.08868 0.33008 0.41691 0.0
C2234 C 0.1152 0.31941 0.44233 0.0
C2235 C 0.11212 0.33125 0.46407 0.0
N2236 N 0.09532 0.35474 0.48322 0.0
N2237 N 0.11091 0.31302 0.39669 0.0
C2238 C 0.09696 0.342 0.46247 0.0
C2239 C 0.10497 0.32059 0.41833 0.0
N2240 N 0.06404 0.34322 0.43885 0.0
N2241 N 0.12714 0.30624 0.44477 0.0
H2242 H 0.10358 0.31335 0.37879 0.0
H2243 H 0.12467 0.30853 0.39625 0.0
H2244 H 0.135 0.30515 0.46203 0.0
H2245 H 0.1277 0.29486 0.43015 0.0
H2246 H 0.05763 0.34702 0.45503 0.0
H2247 H 0.05286 0.34062 0.42263 0.0
H2248 H 0.08679 0.36539 0.48249 0.0
H2249 H 0.10396 0.35621 0.50097 0.0
C2250 C 0.07675 0.33111 0.27928 0.0
C2251 C 0.09352 0.34528 0.30071 0.0
C2252 C 0.12727 0.35213 0.27566 0.0
C2253 C 0.11077 0.33902 0.25427 0.0
N2254 N 0.07013 0.31928 0.23407 0.0
N2255 N 0.1354 0.37778 0.31395 0.0
C2256 C 0.08555 0.32927 0.25565 0.0
C2257 C 0.11895 0.35833 0.29747 0.0
N2258 N 0.05233 0.32015 0.28113 0.0
N2259 N 0.15115 0.35857 0.27534 0.0
H2260 H 0.13122 0.3857 0.32897 0.0
H2261 H 0.15346 0.38893 0.31056 0.0
H2262 H 0.15815 0.35451 0.25974 0.0
H2263 H 0.16347 0.36571 0.29139 0.0
H2264 H 0.03935 0.30644 0.26794 0.0
H2265 H 0.04483 0.32466 0.29593 0.0
H2266 H 0.05189 0.31434 0.2329 0.0
H2267 H 0.07597 0.31746 0.21664 0.0
C2268 C 0.69212 0.75204 0.28678 0.0
C2269 C 0.67866 0.75489 0.30581 0.0
C2270 C 0.67527 0.78677 0.28334 0.0
C2271 C 0.68779 0.78322 0.26388 0.0
N2272 N 0.71135 0.76569 0.24812 0.0
N2273 N 0.65356 0.77131 0.31998 0.0
C2274 C 0.69725 0.76684 0.26595 0.0
C2275 C 0.66916 0.77124 0.30346 0.0
N2276 N 0.69843 0.7339 0.28768 0.0
N2277 N 0.67023 0.80583 0.28316 0.0
H2278 H 0.64891 0.76049 0.3352 0.0
H2279 H 0.64378 0.78058 0.31762 0.0
H2280 H 0.6748 0.81791 0.26893 0.0
H2281 H 0.66372 0.81129 0.29822 0.0
H2282 H 0.70603 0.72899 0.27332 0.0
H2283 H 0.69471 0.72233 0.30226 0.0
H2284 H 0.72148 0.75674 0.24994 0.0
H2285 H 0.71423 0.77508 0.23188 0.0
C2286 C 0.25951 0.92005 0.32433 0.0
C2287 C 0.25424 0.90114 0.34124 0.0
C2288 C 0.21922 0.87177 0.312 0.0
C2289 C 0.2254 0.89001 0.29471 0.0
N2290 N 0.25337 0.93029 0.28213 0.0
N2291 N 0.23426 0.85655 0.34506 0.0
C2292 C 0.24601 0.91388 0.3003 0.0
C2293 C 0.23559 0.87627 0.33345 0.0
N2294 N 0.2779 0.94383 0.33079 0.0
N2295 N 0.19767 0.84998 0.30784 0.0
H2296 H 0.24757 0.85787 0.35826 0.0
H2297 H 0.22194 0.83813 0.3387 0.0
H2298 H 0.18537 0.84598 0.29209 0.0
H2299 H 0.19098 0.83709 0.32122 0.0
H2300 H 0.27986 0.95899 0.32146 0.0
H2301 H 0.2912 0.94873 0.34568 0.0
H2302 H 0.26998 0.94669 0.28363 0.0
H2303 H 0.24355 0.92679 0.26461 0.0
C2304 C 0.67939 0.90081 0.33192 0.0
C2305 C 0.68497 0.92598 0.33229 0.0
C2306 C 0.70047 0.9288 0.29078 0.0
C2307 C 0.69651 0.9042 0.29141 0.0
N2308 N 0.68707 0.86873 0.31461 0.0
N2309 N 0.70255 0.96484 0.31285 0.0
C2310 C 0.68743 0.89081 0.31265 0.0
C2311 C 0.6963 0.94032 0.3121 0.0
N2312 N 0.66603 0.8863 0.34975 0.0
N2313 N 0.7064 0.94055 0.26911 0.0
H2314 H 0.6976 0.97365 0.32644 0.0
H2315 H 0.71407 0.97706 0.30077 0.0
H2316 H 0.70974 0.9331 0.25297 0.0
H2317 H 0.70621 0.95693 0.26625 0.0
H2318 H 0.65896 0.86713 0.34883 0.0
H2319 H 0.66083 0.89327 0.36481 0.0
H2320 H 0.68265 0.85905 0.33063 0.0
H2321 H 0.69358 0.86135 0.30111 0.0
C2322 C 0.07138 0.74558 0.26945 0.0
C2323 C 0.07098 0.75617 0.29355 0.0
C2324 C 0.09525 0.79801 0.27975 0.0
C2325 C 0.09541 0.78726 0.2557 0.0
N2326 N 0.07833 0.75148 0.22546 0.0
N2327 N 0.07794 0.79216 0.31992 0.0
C2328 C 0.08162 0.76122 0.24984 0.0
C2329 C 0.08121 0.78232 0.29802 0.0
N2330 N 0.06303 0.72064 0.26565 0.0
N2331 N 0.10959 0.82305 0.28558 0.0
H2332 H 0.0682 0.78127 0.33387 0.0
H2333 H 0.08302 0.81082 0.32337 0.0
H2334 H 0.11983 0.83511 0.2726 0.0
H2335 H 0.11264 0.83172 0.30366 0.0
H2336 H 0.06547 0.71223 0.24957 0.0
H2337 H 0.05517 0.70851 0.27942 0.0
H2338 H 0.06649 0.73285 0.2195 0.0
H2339 H 0.08568 0.7625 0.21067 0.0
C2340 C 0.22567 0.34437 0.32384 0.0
C2341 C 0.24428 0.33801 0.32501 0.0
C2342 C 0.23911 0.33016 0.27886 0.0
C2343 C 0.21843 0.33331 0.2782 0.0
N2344 N 0.18941 0.33907 0.30033 0.0
N2345 N 0.2687 0.32424 0.30355 0.0
C2346 C 0.21104 0.33933 0.30078 0.0
C2347 C 0.25085 0.33052 0.30251 0.0
N2348 N 0.22192 0.35522 0.34472 0.0
N2349 N 0.24855 0.3285 0.25692 0.0
H2350 H 0.27969 0.32663 0.31986 0.0
H2351 H 0.27173 0.31522 0.28841 0.0
H2352 H 0.24097 0.32882 0.23919 0.0
H2353 H 0.26518 0.32915 0.25622 0.0
H2354 H 0.21042 0.36273 0.34422 0.0
H2355 H 0.2314 0.35809 0.36231 0.0
H2356 H 0.18193 0.34113 0.3165 0.0
H2357 H 0.17767 0.33406 0.28394 0.0
C2358 C 0.21366 0.31641 0.44291 0.0
C2359 C 0.23858 0.32429 0.44079 0.0
C2360 C 0.24659 0.33717 0.48653 0.0
C2361 C 0.22258 0.33303 0.48692 0.0
N2362 N 0.18607 0.32606 0.46312 0.0
N2363 N 0.27923 0.3422 0.46171 0.0
C2364 C 0.20713 0.32518 0.46431 0.0
C2365 C 0.25528 0.33498 0.46293 0.0
N2366 N 0.19572 0.29898 0.42595 0.0
N2367 N 0.26065 0.34202 0.50872 0.0
H2368 H 0.28587 0.33792 0.44597 0.0
H2369 H 0.29265 0.35304 0.47618 0.0
H2370 H 0.25486 0.34377 0.5262 0.0
H2371 H 0.27729 0.34249 0.51001 0.0
H2372 H 0.17736 0.29221 0.42796 0.0
H2373 H 0.1986 0.28811 0.41274 0.0
H2374 H 0.1757 0.32298 0.44606 0.0
H2375 H 0.1807 0.33271 0.47839 0.0
C2376 C 0.68069 0.93849 0.46805 0.0
C2377 C 0.6697 0.92602 0.44382 0.0
C2378 C 0.64715 0.88649 0.46275 0.0
C2379 C 0.65983 0.89859 0.48651 0.0
N2380 N 0.68821 0.93561 0.51264 0.0
N2381 N 0.64358 0.88809 0.41752 0.0
C2382 C 0.67632 0.92453 0.48942 0.0
C2383 C 0.65289 0.90007 0.44106 0.0
N2384 N 0.69496 0.9638 0.47059 0.0
N2385 N 0.62971 0.86192 0.46094 0.0
H2386 H 0.64651 0.89733 0.40124 0.0
H2387 H 0.63402 0.86887 0.41374 0.0
H2388 H 0.62606 0.85089 0.47599 0.0
H2389 H 0.61769 0.85267 0.44499 0.0
H2390 H 0.70142 0.97452 0.48778 0.0
H2391 H 0.69935 0.97452 0.4553 0.0
H2392 H 0.70268 0.95368 0.51582 0.0
H2393 H 0.68412 0.92633 0.52899 0.0
C2394 C 0.09138 0.77502 0.41353 0.0
C2395 C 0.08216 0.74938 0.40666 0.0
C2396 C 0.10378 0.74758 0.44523 0.0
C2397 C 0.10863 0.77163 0.45454 0.0
N2398 N 0.09798 0.8039 0.44874 0.0
N2399 N 0.0745 0.70992 0.42215 0.0
C2400 C 0.10023 0.78446 0.43897 0.0
C2401 C 0.08678 0.73519 0.42406 0.0
N2402 N 0.09112 0.79028 0.39609 0.0
N2403 N 0.11466 0.73598 0.45681 0.0
H2404 H 0.06009 0.69886 0.40862 0.0
H2405 H 0.06009 0.69886 0.40862 0.0
H2406 H 0.12961 0.74538 0.4702 0.0
H2407 H 0.10994 0.71767 0.45131 0.0
H2408 H 0.09922 0.80947 0.40014 0.0
H2409 H 0.08527 0.78409 0.37712 0.0
H2410 H 0.09031 0.81239 0.43805 0.0
H2411 H 0.10021 0.80905 0.46799 0.0
C2412 C 0.32657 0.10819 0.74322 0.0
C2413 C 0.32528 0.08451 0.74 0.0
C2414 C 0.30753 0.07453 0.78067 0.0
C2415 C 0.30762 0.09742 0.78244 0.0
N2416 N 0.31024 0.13233 0.76236 0.0
N2417 N 0.31299 0.0443 0.75585 0.0
C2418 C 0.31448 0.11276 0.76245 0.0
C2419 C 0.31487 0.06724 0.75857 0.0
N2420 N 0.34095 0.12729 0.72963 0.0
N2421 N 0.30169 0.06047 0.8008 0.0
H2422 H 0.32146 0.03924 0.74255 0.0
H2423 H 0.30247 0.02987 0.76659 0.0
H2424 H 0.29508 0.06472 0.81662 0.0
H2425 H 0.30441 0.04534 0.80246 0.0
H2426 H 0.34372 0.14524 0.73283 0.0
H2427 H 0.35324 0.12676 0.71819 0.0
H2428 H 0.31263 0.14273 0.74693 0.0
H2429 H 0.30186 0.13641 0.77661 0.0
C2430 C 0.93994 0.24633 0.80744 0.0
C2431 C 0.92654 0.24456 0.78434 0.0
C2432 C 0.88848 0.21583 0.80156 0.0
C2433 C 0.90203 0.21714 0.82427 0.0
N2434 N 0.94042 0.23018 0.8479 0.0
N2435 N 0.88809 0.23022 0.76005 0.0
C2436 C 0.9277 0.23136 0.8269 0.0
C2437 C 0.90077 0.23007 0.78164 0.0
N2438 N 0.96406 0.26366 0.81153 0.0
N2439 N 0.86392 0.20005 0.79873 0.0
H2440 H 0.89639 0.23854 0.74421 0.0
H2441 H 0.86937 0.22272 0.75776 0.0
H2442 H 0.85431 0.18948 0.81295 0.0
H2443 H 0.85299 0.1961 0.78197 0.0
H2444 H 0.97424 0.26785 0.82887 0.0
H2445 H 0.97375 0.27551 0.79817 0.0
H2446 H 0.95913 0.23744 0.84962 0.0
H2447 H 0.93208 0.22026 0.86301 0.0
C2448 C 0.74626 0.67191 0.77674 0.0
C2449 C 0.75231 0.66386 0.75421 0.0
C2450 C 0.78311 0.65839 0.77872 0.0
C2451 C 0.77699 0.66648 0.80103 0.0
N2452 N 0.75618 0.68505 0.82142 0.0
N2453 N 0.77368 0.64596 0.73376 0.0
C2454 C 0.7596 0.67448 0.80004 0.0
C2455 C 0.77001 0.65615 0.7552 0.0
N2456 N 0.72656 0.67535 0.77623 0.0
N2457 N 0.80209 0.6538 0.78006 0.0
H2458 H 0.76519 0.64499 0.71607 0.0
H2459 H 0.78429 0.63747 0.73343 0.0
H2460 H 0.81186 0.65516 0.79705 0.0
H2461 H 0.80942 0.65047 0.7644 0.0
H2462 H 0.71927 0.67796 0.79229 0.0
H2463 H 0.71603 0.67372 0.75983 0.0
H2464 H 0.74635 0.6944 0.82144 0.0
H2465 H 0.76473 0.68628 0.83915 0.0
C2466 C 0.77912 0.69218 0.63245 0.0
C2467 C 0.75403 0.67914 0.63702 0.0
C2468 C 0.74397 0.66156 0.59243 0.0
C2469 C 0.76899 0.67115 0.58984 0.0
N2470 N 0.81026 0.69194 0.60876 0.0
N2471 N 0.71218 0.65394 0.61958 0.0
C2472 C 0.78645 0.68531 0.61027 0.0
C2473 C 0.73634 0.66443 0.61646 0.0
N2474 N 0.79611 0.7121 0.64809 0.0
N2475 N 0.72762 0.65061 0.57162 0.0
H2476 H 0.70561 0.65917 0.63478 0.0
H2477 H 0.69852 0.64001 0.6071 0.0
H2478 H 0.73266 0.64811 0.55393 0.0
H2479 H 0.70937 0.64548 0.57127 0.0
H2480 H 0.81383 0.72331 0.64367 0.0
H2481 H 0.79256 0.72017 0.66349 0.0
H2482 H 0.82336 0.69993 0.62412 0.0
H2483 H 0.81655 0.68725 0.59294 0.0
C2484 C 0.32489 0.08376 0.61937 0.0
C2485 C 0.34287 0.07797 0.62816 0.0
C2486 C 0.36794 0.10116 0.59541 0.0
C2487 C 0.34925 0.10578 0.58578 0.0
N2488 N 0.30579 0.08951 0.58202 0.0
N2489 N 0.37748 0.07389 0.61711 0.0
C2490 C 0.32638 0.09338 0.59571 0.0
C2491 C 0.36292 0.08407 0.61387 0.0
N2492 N 0.30677 0.08097 0.63373 0.0
N2493 N 0.39067 0.11306 0.58762 0.0
H2494 H 0.3744 0.06008 0.62916 0.0
H2495 H 0.3744 0.06008 0.62916 0.0
H2496 H 0.39715 0.12906 0.57813 0.0
H2497 H 0.40384 0.10837 0.59315 0.0
H2498 H 0.29453 0.08693 0.62844 0.0
H2499 H 0.3057 0.07554 0.65201 0.0
H2500 H 0.28856 0.07898 0.58804 0.0
H2501 H 0.30573 0.09399 0.56342 0.0
C2502 C 0.9061 0.21653 0.6608 0.0
C2503 C 0.92527 0.2411 0.66877 0.0
C2504 C 0.92093 0.25351 0.62627 0.0
C2505 C 0.89996 0.22999 0.62005 0.0
N2506 N 0.8696 0.19093 0.63287 0.0
N2507 N 0.95214 0.28288 0.65789 0.0
C2508 C 0.89151 0.21222 0.63791 0.0
C2509 C 0.93288 0.25963 0.65118 0.0
N2510 N 0.90283 0.19674 0.67362 0.0
N2511 N 0.92998 0.26958 0.60798 0.0
H2512 H 0.96426 0.28715 0.6738 0.0
H2513 H 0.95613 0.29814 0.64775 0.0
H2514 H 0.92112 0.26612 0.58992 0.0
H2515 H 0.94684 0.2857 0.61008 0.0
H2516 H 0.89006 0.17842 0.66743 0.0
H2517 H 0.91524 0.19769 0.68771 0.0
H2518 H 0.86127 0.17858 0.64637 0.0
H2519 H 0.85864 0.18689 0.61602 0.0
C2520 C 0.36647 0.27532 0.6394 0.0
C2521 C 0.35344 0.2602 0.6585 0.0
C2522 C 0.35248 0.22407 0.63633 0.0
C2523 C 0.36535 0.2391 0.61744 0.0
N2524 N 0.38898 0.2796 0.60296 0.0
N2525 N 0.3338 0.21941 0.67446 0.0
C2526 C 0.37386 0.26498 0.61972 0.0
C2527 C 0.34651 0.23457 0.65684 0.0
N2528 N 0.37021 0.29898 0.63894 0.0
N2529 N 0.34568 0.19941 0.63471 0.0
H2530 H 0.32884 0.2254 0.69047 0.0
H2531 H 0.32884 0.2254 0.69047 0.0
H2532 H 0.35026 0.19099 0.62026 0.0
H2533 H 0.33604 0.18764 0.6482 0.0
H2534 H 0.37709 0.3099 0.62407 0.0
H2535 H 0.3647 0.30731 0.65249 0.0
H2536 H 0.39802 0.29893 0.60502 0.0
H2537 H 0.39433 0.27245 0.58809 0.0
C2538 C 0.75164 0.08155 0.60428 0.0
C2539 C 0.75153 0.09387 0.6274 0.0
C2540 C 0.77457 0.13436 0.61014 0.0
C2541 C 0.77646 0.12211 0.58794 0.0
N2542 N 0.76698 0.08442 0.56316 0.0
N2543 N 0.76408 0.13192 0.65328 0.0
C2544 C 0.76487 0.09577 0.58476 0.0
C2545 C 0.76298 0.12026 0.63044 0.0
N2546 N 0.73863 0.05618 0.60089 0.0
N2547 N 0.78395 0.15957 0.61182 0.0
H2548 H 0.75515 0.12241 0.66829 0.0
H2549 H 0.77488 0.15094 0.65803 0.0
H2550 H 0.7939 0.17074 0.59813 0.0
H2551 H 0.78071 0.1694 0.62596 0.0
H2552 H 0.73559 0.04583 0.58381 0.0
H2553 H 0.72946 0.04524 0.61504 0.0
H2554 H 0.7617 0.06566 0.56061 0.0
H2555 H 0.77496 0.09404 0.54776 0.0
C2556 C 0.88228 0.67875 0.66288 0.0
C2557 C 0.90221 0.67437 0.66368 0.0
C2558 C 0.89602 0.66524 0.61772 0.0
C2559 C 0.87448 0.66678 0.6174 0.0
N2560 N 0.84465 0.67064 0.63993 0.0
N2561 N 0.92699 0.66122 0.64185 0.0
C2562 C 0.86693 0.67239 0.64007 0.0
C2563 C 0.90863 0.66676 0.64114 0.0
N2564 N 0.87807 0.68908 0.68382 0.0
N2565 N 0.90534 0.66391 0.59558 0.0
H2566 H 0.93834 0.66393 0.65793 0.0
H2567 H 0.92993 0.65215 0.62667 0.0
H2568 H 0.89703 0.66322 0.57791 0.0
H2569 H 0.92251 0.6659 0.59467 0.0
H2570 H 0.86539 0.69511 0.68365 0.0
H2571 H 0.88832 0.69303 0.70112 0.0
H2572 H 0.83715 0.67243 0.65618 0.0
H2573 H 0.83262 0.66489 0.62367 0.0
C2574 C 0.90979 0.6586 0.80032 0.0
C2575 C 0.90699 0.67111 0.77983 0.0
C2576 C 0.88326 0.6842 0.80476 0.0
C2577 C 0.88763 0.67316 0.82569 0.0
N2578 N 0.9091 0.65449 0.84527 0.0
N2579 N 0.89361 0.69842 0.76335 0.0
C2580 C 0.90221 0.66183 0.82403 0.0
C2581 C 0.8947 0.68493 0.7824 0.0
N2582 N 0.91891 0.64289 0.79696 0.0
N2583 N 0.8672 0.69282 0.80581 0.0
H2584 H 0.90053 0.69837 0.74616 0.0
H2585 H 0.88727 0.71098 0.76513 0.0
H2586 H 0.85861 0.69278 0.82188 0.0
H2587 H 0.86091 0.69828 0.79026 0.0
H2588 H 0.91884 0.63118 0.81035 0.0
H2589 H 0.9247 0.63989 0.77997 0.0
H2590 H 0.92184 0.64853 0.84583 0.0
H2591 H 0.90381 0.65655 0.86296 0.0
C2592 C 0.31734 0.22998 0.76526 0.0
C2593 C 0.33539 0.25556 0.76887 0.0
C2594 C 0.34156 0.25189 0.81406 0.0
C2595 C 0.32386 0.22631 0.8103 0.0
N2596 N 0.2924 0.19139 0.78375 0.0
N2597 N 0.3617 0.292 0.797 0.0
C2598 C 0.31088 0.21553 0.78634 0.0
C2599 C 0.34665 0.26683 0.7934 0.0
N2600 N 0.30735 0.21912 0.74148 0.0
N2601 N 0.35384 0.26172 0.83738 0.0
H2602 H 0.36632 0.30348 0.78231 0.0
H2603 H 0.36839 0.30194 0.8146 0.0
H2604 H 0.34931 0.25187 0.85335 0.0
H2605 H 0.36914 0.27923 0.84093 0.0
H2606 H 0.29688 0.20004 0.73694 0.0
H2607 H 0.3104 0.22909 0.72572 0.0
H2608 H 0.28017 0.18322 0.76775 0.0
H2609 H 0.28817 0.17966 0.79824 0.0
C2610 C 0.77489 0.11483 0.74538 0.0
C2611 C 0.75438 0.09058 0.742 0.0
C2612 C 0.76009 0.08549 0.7868 0.0
C2613 C 0.78218 0.10845 0.78929 0.0
N2614 N 0.813 0.14285 0.76996 0.0
N2615 N 0.72862 0.05154 0.7592 0.0
C2616 C 0.79026 0.12255 0.76828 0.0
C2617 C 0.74748 0.07543 0.76255 0.0
N2618 N 0.7796 0.1306 0.72686 0.0
N2619 N 0.75016 0.0741 0.80779 0.0
H2620 H 0.7174 0.04366 0.74252 0.0
H2621 H 0.72516 0.03878 0.77257 0.0
H2622 H 0.75822 0.08117 0.82608 0.0
H2623 H 0.73272 0.05895 0.8074 0.0
H2624 H 0.79271 0.14935 0.72934 0.0
H2625 H 0.76931 0.12527 0.70948 0.0
H2626 H 0.82079 0.15261 0.7546 0.0
H2627 H 0.82503 0.14839 0.78619 0.0
C2628 C 0.06541 0.38376 0.08873 0.0
C2629 C 0.06288 0.37757 0.06236 0.0
C2630 C 0.08816 0.3582 0.06812 0.0
C2631 C 0.08976 0.36329 0.09462 0.0
N2632 N 0.07701 0.3771 0.13065 0.0
N2633 N 0.068 0.35535 0.02708 0.0
C2634 C 0.07749 0.37495 0.10509 0.0
C2635 C 0.07302 0.36361 0.05211 0.0
N2636 N 0.05673 0.39849 0.09802 0.0
N2637 N 0.10199 0.34922 0.0582 0.0
H2638 H 0.05759 0.3596 0.01455 0.0
H2639 H 0.07255 0.34275 0.01904 0.0
H2640 H 0.11305 0.34467 0.06928 0.0
H2641 H 0.10395 0.348 0.03904 0.0
H2642 H 0.06016 0.40588 0.1167 0.0
H2643 H 0.04729 0.40475 0.08662 0.0
H2644 H 0.06644 0.38316 0.13947 0.0
H2645 H 0.08578 0.3709 0.14307 0.0
C2646 C 0.66398 0.7076 0.08471 0.0
C2647 C 0.64907 0.68748 0.09859 0.0
C2648 C 0.65252 0.71684 0.1332 0.0
C2649 C 0.66479 0.73669 0.11804 0.0
N2650 N 0.67978 0.75112 0.07819 0.0
N2651 N 0.62538 0.67277 0.13414 0.0
C2652 C 0.66993 0.73215 0.09346 0.0
C2653 C 0.64243 0.69202 0.12242 0.0
N2654 N 0.67321 0.70338 0.06371 0.0
N2655 N 0.6508 0.72172 0.15802 0.0
H2656 H 0.61672 0.65433 0.12656 0.0
H2657 H 0.618 0.67532 0.15017 0.0
H2658 H 0.65794 0.73972 0.16657 0.0
H2659 H 0.64435 0.70811 0.17068 0.0
H2660 H 0.68616 0.71756 0.05429 0.0
H2661 H 0.66967 0.68572 0.05704 0.0
H2662 H 0.68138 0.74842 0.05914 0.0
H2663 H 0.6847 0.7694 0.08407 0.0
C2664 C 0.29045 0.95112 0.05084 0.0
C2665 C 0.31312 0.95584 0.06263 0.0
C2666 C 0.29353 0.93733 0.1003 0.0
C2667 C 0.27056 0.93021 0.08752 0.0
N2668 N 0.24651 0.92747 0.04959 0.0
N2669 N 0.33547 0.94904 0.09665 0.0
C2670 C 0.26882 0.93632 0.06247 0.0
C2671 C 0.31448 0.94784 0.0869 0.0
N2672 N 0.28968 0.96161 0.0291 0.0
N2673 N 0.29539 0.9345 0.12546 0.0
H2674 H 0.35106 0.95577 0.08718 0.0
H2675 H 0.3367 0.94105 0.113 0.0
H2676 H 0.28044 0.92675 0.13594 0.0
H2677 H 0.31193 0.94189 0.13644 0.0
H2678 H 0.27407 0.96102 0.02101 0.0
H2679 H 0.30516 0.97285 0.02028 0.0
H2680 H 0.244 0.92893 0.03041 0.0
H2681 H 0.23034 0.91699 0.05768 0.0
C2682 C 0.35158 0.05371 0.01649 0.0
C2683 C 0.36691 0.04885 0.00168 0.0
C2684 C 0.35827 0.06817 0.96658 0.0
C2685 C 0.3447 0.07496 0.98207 0.0
N2686 N 0.33043 0.07697 0.02244 0.0
N2687 N 0.38792 0.05459 0.96419 0.0
C2688 C 0.34175 0.06835 0.0072 0.0
C2689 C 0.37119 0.05704 0.97719 0.0
N2690 N 0.34655 0.04445 0.03949 0.0
N2691 N 0.35817 0.07168 0.94147 0.0
H2692 H 0.39737 0.04597 0.97096 0.0
H2693 H 0.39384 0.06275 0.94754 0.0
H2694 H 0.34895 0.07985 0.93302 0.0
H2695 H 0.36535 0.06456 0.92857 0.0
H2696 H 0.33324 0.04466 0.04979 0.0
H2697 H 0.35481 0.03529 0.04785 0.0
H2698 H 0.33003 0.07525 0.04174 0.0
H2699 H 0.32275 0.08745 0.01611 0.0
C2700 C 0.96398 0.3012 0.95896 0.0
C2701 C 0.97267 0.30595 0.98497 0.0
C2702 C 0.94626 0.26206 0.99129 0.0
C2703 C 0.93771 0.25745 0.96538 0.0
N2704 N 0.94273 0.27048 0.92334 0.0
N2705 N 0.97693 0.29024 0.02423 0.0
C2706 C 0.94819 0.27633 0.9488 0.0
C2707 C 0.96533 0.28611 0.00063 0.0
N2708 N 0.96916 0.32043 0.94436 0.0
N2709 N 0.9355 0.24373 0.0071 0.0
H2710 H 0.9913 0.30759 0.03133 0.0
H2711 H 0.97395 0.27614 0.03579 0.0
H2712 H 0.92214 0.22565 0.00068 0.0
H2713 H 0.93885 0.24673 0.02665 0.0
H2714 H 0.96089 0.31807 0.92623 0.0
H2715 H 0.98009 0.33906 0.95089 0.0
H2716 H 0.95169 0.28293 0.91014 0.0
H2717 H 0.93083 0.25246 0.91536 0.0
C2718 C 0.70672 0.63922 0.05138 0.0
C2719 C 0.68366 0.62084 0.03974 0.0
C2720 C 0.70143 0.62132 1.00004 0.0
C2721 C 0.7248 0.6379 0.01232 0.0
N2722 N 0.75048 0.66076 0.05011 0.0
N2723 N 0.65923 0.59195 0.00406 0.0
C2724 C 0.72767 0.64645 0.03812 0.0
C2725 C 0.68107 0.61115 0.01438 0.0
N2726 N 0.70853 0.64983 0.07505 0.0
N2727 N 0.6986 0.61595 0.97447 0.0
H2728 H 0.64364 0.58443 0.01358 0.0
H2729 H 0.65687 0.5822 0.98674 0.0
H2730 H 0.71308 0.62301 0.96331 0.0
H2731 H 0.68178 0.60631 0.96396 0.0
H2732 H 0.72426 0.66523 0.08352 0.0
H2733 H 0.69377 0.6442 0.08573 0.0
H2734 H 0.75401 0.66539 0.06949 0.0
H2735 H 0.76616 0.66667 0.04087 0.0
C2736 C 0.94481 0.66137 0.01735 0.0
C2737 C 0.95637 0.65068 0.00359 0.0
C2738 C 0.93642 0.65369 0.96421 0.0
C2739 C 0.9221 0.66062 0.97826 0.0
N2740 N 0.90968 0.6667 0.01874 0.0
N2741 N 0.9593 0.63207 0.96393 0.0
C2742 C 0.92549 0.66335 0.00501 0.0
C2743 C 0.95129 0.64573 0.97697 0.0
N2744 N 0.9528 0.67048 0.04195 0.0
N2745 N 0.93605 0.65502 0.93871 0.0
H2746 H 0.96904 0.62451 0.97251 0.0
H2747 H 0.95398 0.62592 0.94491 0.0
H2748 H 0.9256 0.66112 0.92879 0.0
H2749 H 0.94792 0.65251 0.92789 0.0
H2750 H 0.94645 0.68054 0.05207 0.0
H2751 H 0.96763 0.67043 0.05137 0.0
H2752 H 0.90989 0.66613 0.03824 0.0
H2753 H 0.89491 0.6677 0.01056 0.0
C2754 C 0.34523 0.29182 0.99773 0.0
C2755 C 0.35665 0.31347 0.98473 0.0
C2756 C 0.34516 0.28768 0.94464 0.0
C2757 C 0.33733 0.26625 0.95811 0.0
N2758 N 0.33311 0.2483 0.99805 0.0
N2759 N 0.36954 0.33253 0.94604 0.0
C2760 C 0.33802 0.26835 0.98483 0.0
C2761 C 0.35702 0.31158 0.95818 0.0
N2762 N 0.34082 0.29368 0.02226 0.0
N2763 N 0.34086 0.28513 0.91897 0.0
H2764 H 0.37831 0.35035 0.95532 0.0
H2765 H 0.37276 0.33218 0.92715 0.0
H2766 H 0.33194 0.26784 0.90853 0.0
H2767 H 0.34406 0.29987 0.90828 0.0
H2768 H 0.33053 0.27831 0.03205 0.0
H2769 H 0.34531 0.31062 0.03196 0.0
H2770 H 0.33596 0.24954 0.01762 0.0
H2771 H 0.32826 0.23083 0.98949 0.0
C2772 C 0.70192 0.08315 0.02607 0.0
C2773 C 0.68881 0.05665 0.02327 0.0
C2774 C 0.71766 0.05715 0.99419 0.0
C2775 C 0.73185 0.08328 0.99906 0.0
N2776 N 0.7406 0.12051 0.02423 0.0
N2777 N 0.68836 0.01861 0.00907 0.0
C2778 C 0.72502 0.09604 0.01661 0.0
C2779 C 0.69796 0.04371 0.00872 0.0
N2780 N 0.6917 0.09625 0.03577 0.0
N2781 N 0.72213 0.04515 0.97484 0.0
H2782 H 0.67407 0.00765 0.01936 0.0
H2783 H 0.69625 0.00897 0.00108 0.0
H2784 H 0.73615 0.05422 0.96341 0.0
H2785 H 0.71049 0.02654 0.96858 0.0
H2786 H 0.6997 0.11548 0.03581 0.0
H2787 H 0.67407 0.08802 0.04096 0.0
H2788 H 0.73754 0.13009 0.03885 0.0
H2789 H 0.75767 0.13048 0.01766 0.0
C2790 C 0.61686 0.93553 0.08257 0.0
C2791 C 0.63268 0.9596 0.07513 0.0
C2792 C 0.66707 0.95563 0.09303 0.0
C2793 C 0.65121 0.93006 0.09539 0.0
N2794 N 0.61116 0.89442 0.08567 0.0
N2795 N 0.67452 0.99066 0.06996 0.0
C2796 C 0.62617 0.91957 0.08785 0.0
C2797 C 0.65831 0.96921 0.07937 0.0
N2798 N 0.59339 0.92838 0.08659 0.0
N2799 N 0.69012 0.96739 0.10477 0.0
H2800 H 0.66972 0.0015 0.05956 0.0
H2801 H 0.69298 0.99646 0.07048 0.0
H2802 H 0.69698 0.95851 0.11595 0.0
H2803 H 0.70143 0.9866 0.10565 0.0
H2804 H 0.58195 0.91148 0.09358 0.0
H2805 H 0.58658 0.94063 0.08671 0.0
H2806 H 0.593 0.88614 0.0785 0.0
H2807 H 0.61751 0.88197 0.08833 0.0
C2808 C 0.06097 0.72206 0.06873 0.0
C2809 C 0.04721 0.70091 0.08169 0.0
C2810 C 0.05799 0.72744 0.12123 0.0
C2811 C 0.07537 0.74764 0.10904 0.0
N2812 N 0.09457 0.76409 0.07131 0.0
N2813 N 0.02961 0.68304 0.11934 0.0
C2814 C 0.07694 0.74507 0.08272 0.0
C2815 C 0.04458 0.70352 0.10768 0.0
N2816 N 0.05817 0.72021 0.043 0.0
N2817 N 0.05422 0.73137 0.14559 0.0
H2818 H 0.01799 0.6659 0.10935 0.0
H2819 H 0.02892 0.68278 0.13876 0.0
H2820 H 0.06369 0.74877 0.15577 0.0
H2821 H 0.04065 0.71805 0.15518 0.0
H2822 H 0.06603 0.73546 0.03241 0.0
H2823 H 0.04591 0.70362 0.03239 0.0
H2824 H 0.09837 0.76216 0.05288 0.0
H2825 H 0.10667 0.78134 0.08075 0.0
C2826 C 0.29953 0.38289 0.04071 0.0
C2827 C 0.30744 0.36521 0.03726 0.0
C2828 C 0.27512 0.33648 0.06159 0.0
C2829 C 0.26674 0.3538 0.06441 0.0
N2830 N 0.2665 0.39002 0.05032 0.0
N2831 N 0.29785 0.32248 0.03732 0.0
C2832 C 0.27748 0.37586 0.05181 0.0
C2833 C 0.29354 0.34109 0.04536 0.0
N2834 N 0.31371 0.40684 0.03514 0.0
N2835 N 0.26665 0.31642 0.07551 0.0
H2836 H 0.31067 0.32508 0.02471 0.0
H2837 H 0.28692 0.30401 0.04086 0.0
H2838 H 0.25367 0.31263 0.08821 0.0
H2839 H 0.27414 0.30479 0.07616 0.0
H2840 H 0.31008 0.42104 0.04014 0.0
H2841 H 0.33016 0.41313 0.02739 0.0
H2842 H 0.27224 0.40503 0.03936 0.0
H2843 H 0.25017 0.38518 0.05795 0.0
C2844 C 0.72319 0.71171 0.43023 0.0
C2845 C 0.71585 0.70282 0.40441 0.0
C2846 C 0.73306 0.67517 0.40836 0.0
C2847 C 0.74226 0.68569 0.43351 0.0
N2848 N 0.74607 0.71315 0.46908 0.0
N2849 N 0.71512 0.67781 0.36797 0.0
C2850 C 0.73706 0.70355 0.44472 0.0
C2851 C 0.72077 0.68468 0.39331 0.0
N2852 N 0.71668 0.72783 0.44083 0.0
N2853 N 0.73635 0.65628 0.39882 0.0
H2854 H 0.70613 0.6843 0.35626 0.0
H2855 H 0.7207 0.66699 0.35799 0.0
H2856 H 0.7464 0.64975 0.40873 0.0
H2857 H 0.72784 0.64583 0.38176 0.0
H2858 H 0.71904 0.73315 0.46002 0.0
H2859 H 0.70771 0.73522 0.43045 0.0
H2860 H 0.74559 0.72824 0.47777 0.0
H2861 H 0.75485 0.70634 0.48069 0.0
C2862 C 0.32162 0.0253 0.45615 0.0
C2863 C 0.32303 0.01933 0.43044 0.0
C2864 C 0.33546 0.06222 0.42174 0.0
C2865 C 0.33642 0.06864 0.44784 0.0
N2866 N 0.33669 0.05757 0.49057 0.0
N2867 N 0.33746 0.03395 0.39038 0.0
C2868 C 0.33154 0.05058 0.46528 0.0
C2869 C 0.33182 0.03836 0.41368 0.0
N2870 N 0.3094 0.00698 0.47156 0.0
N2871 N 0.33696 0.07839 0.40449 0.0
H2872 H 0.33616 0.01708 0.38423 0.0
H2873 H 0.34599 0.04787 0.37835 0.0
H2874 H 0.3389 0.09578 0.40948 0.0
H2875 H 0.33388 0.07355 0.38511 0.0
H2876 H 0.30598 0.01062 0.48969 0.0
H2877 H 0.3002 0.98813 0.4655 0.0
H2878 H 0.3356 0.04541 0.50391 0.0
H2879 H 0.34449 0.07603 0.49799 0.0
C2880 C 0.95946 0.27045 0.36781 0.0
C2881 C 0.98198 0.27419 0.37885 0.0
C2882 C 0.96239 0.25205 0.4149 0.0
C2883 C 0.9396 0.24735 0.40353 0.0
N2884 N 0.91548 0.24781 0.36719 0.0
N2885 N 0.00375 0.26283 0.40902 0.0
C2886 C 0.93783 0.25521 0.37929 0.0
C2887 C 0.98302 0.26311 0.40116 0.0
N2888 N 0.95889 0.28238 0.34713 0.0
N2889 N 0.96463 0.24715 0.43934 0.0
H2890 H 0.01903 0.27023 0.399 0.0
H2891 H 0.00489 0.25297 0.42381 0.0
H2892 H 0.95008 0.23931 0.45032 0.0
H2893 H 0.9813 0.25293 0.4495 0.0
H2894 H 0.94351 0.28278 0.3399 0.0
H2895 H 0.97431 0.2932 0.33803 0.0
H2896 H 0.91282 0.25088 0.34855 0.0
H2897 H 0.89939 0.23679 0.3752 0.0
C2898 C 0.03238 0.38297 0.31176 0.0
C2899 C 0.0309 0.37907 0.33771 0.0
C2900 C 0.00934 0.40247 0.34227 0.0
C2901 C 0.0102 0.4057 0.31616 0.0
N2902 N 0.01744 0.39458 0.27494 0.0
N2903 N 0.01391 0.38026 0.37656 0.0
C2904 C 0.02008 0.39446 0.30054 0.0
C2905 C 0.01811 0.38735 0.35267 0.0
N2906 N 0.04644 0.37672 0.29812 0.0
N2907 N 0.00081 0.41444 0.35718 0.0
H2908 H 0.01989 0.36894 0.38451 0.0
H2909 H 0.0028 0.38373 0.38766 0.0
H2910 H 0.99356 0.425 0.34998 0.0
H2911 H 0.00222 0.41515 0.37678 0.0
H2912 H 0.05046 0.38164 0.27991 0.0
H2913 H 0.05576 0.36826 0.30568 0.0
H2914 H 0.02198 0.3845 0.26236 0.0
H2915 H 0.00864 0.40299 0.26611 0.0
C2916 C 0.61808 0.63825 0.29769 0.0
C2917 C 0.62649 0.64167 0.32366 0.0
C2918 C 0.60007 0.59732 0.32777 0.0
C2919 C 0.59197 0.59392 0.30181 0.0
N2920 N 0.59727 0.60924 0.26073 0.0
N2921 N 0.63042 0.62394 0.36165 0.0
C2922 C 0.60243 0.6138 0.28631 0.0
C2923 C 0.619 0.62099 0.33817 0.0
N2924 N 0.62356 0.65833 0.28431 0.0
N2925 N 0.58903 0.57819 0.34266 0.0
H2926 H 0.64472 0.64099 0.36956 0.0
H2927 H 0.62736 0.60918 0.37226 0.0
H2928 H 0.57562 0.56037 0.33554 0.0
H2929 H 0.59209 0.58033 0.36224 0.0
H2930 H 0.61561 0.65696 0.26624 0.0
H2931 H 0.63449 0.67666 0.29187 0.0
H2932 H 0.60622 0.62249 0.24821 0.0
H2933 H 0.58559 0.59151 0.25189 0.0
C2934 C 0.37747 0.96015 0.3818 0.0
C2935 C 0.35359 0.94957 0.36981 0.0
C2936 C 0.36937 0.95349 0.32847 0.0
C2937 C 0.39276 0.96098 0.34044 0.0
N2938 N 0.41862 0.96837 0.37858 0.0
N2939 N 0.32615 0.93193 0.3319 0.0
C2940 C 0.39676 0.96361 0.36717 0.0
C2941 C 0.34934 0.94514 0.34317 0.0
N2942 N 0.38175 0.9673 0.40705 0.0
N2943 N 0.36638 0.95493 0.30313 0.0
H2944 H 0.311 0.92487 0.34208 0.0
H2945 H 0.32199 0.92594 0.31277 0.0
H2946 H 0.3807 0.96135 0.29177 0.0
H2947 H 0.35022 0.95211 0.29386 0.0
H2948 H 0.39909 0.97731 0.41647 0.0
H2949 H 0.36801 0.9652 0.41816 0.0
H2950 H 0.42178 0.96788 0.39786 0.0
H2951 H 0.43309 0.97078 0.36852 0.0
C2952 C 0.61307 0.99164 0.34933 0.0
C2953 C 0.6235 0.9785 0.33779 0.0
C2954 C 0.60315 0.97743 0.29684 0.0
C2955 C 0.59005 0.98718 0.30904 0.0
N2956 N 0.58004 0.00066 0.34751 0.0
N2957 N 0.62514 0.95503 0.3011 0.0
C2958 C 0.59439 0.99363 0.33547 0.0
C2959 C 0.61786 0.97053 0.31161 0.0
N2960 N 0.62156 0.00294 0.37322 0.0
N2961 N 0.60158 0.97486 0.27111 0.0
H2962 H 0.63494 0.94841 0.31132 0.0
H2963 H 0.61935 0.94663 0.28276 0.0
H2964 H 0.59092 0.97976 0.25975 0.0
H2965 H 0.6126 0.97022 0.26113 0.0
H2966 H 0.61626 0.0148 0.38163 0.0
H2967 H 0.63573 0.00254 0.38369 0.0
H2968 H 0.58052 0.00273 0.36707 0.0
H2969 H 0.56629 0.00255 0.33806 0.0
C2970 C 0.01203 0.64289 0.2864 0.0
C2971 C 0.01927 0.64698 0.31264 0.0
C2972 C 0.01046 0.60403 0.31394 0.0
C2973 C 0.00418 0.60004 0.28749 0.0
N2974 N 0.99461 0.6135 0.249 0.0
N2975 N 0.01675 0.62964 0.35242 0.0
C2976 C 0.00361 0.61887 0.27382 0.0
C2977 C 0.01585 0.62696 0.32675 0.0
N2978 N 0.01328 0.66202 0.27369 0.0
N2979 N 0.01234 0.58634 0.32668 0.0
H2980 H 0.01987 0.64607 0.36224 0.0
H2981 H 0.01208 0.615 0.36372 0.0
H2982 H 0.00836 0.56914 0.31809 0.0
H2983 H 0.01961 0.58941 0.34537 0.0
H2984 H 0.01115 0.66157 0.25416 0.0
H2985 H 0.01659 0.6787 0.28299 0.0
H2986 H 0.99196 0.62561 0.23817 0.0
H2987 H 0.98836 0.59608 0.2394 0.0
C2988 C 0.36573 0.37758 0.35792 0.0
C2989 C 0.35325 0.38947 0.36725 0.0
C2990 C 0.38579 0.42924 0.35597 0.0
C2991 C 0.3951 0.41634 0.34187 0.0
N2992 N 0.39186 0.37723 0.32707 0.0
N2993 N 0.35068 0.4269 0.37386 0.0
C2994 C 0.38476 0.39025 0.34246 0.0
C2995 C 0.36326 0.41549 0.36637 0.0
N2996 N 0.35938 0.35414 0.364 0.0
N2997 N 0.39855 0.45459 0.35949 0.0
H2998 H 0.33415 0.41763 0.38155 0.0
H2999 H 0.35583 0.44522 0.37076 0.0
H3000 H 0.41528 0.46512 0.35241 0.0
H3001 H 0.39378 0.46491 0.37148 0.0
H3002 H 0.36913 0.34527 0.35944 0.0
H3003 H 0.34605 0.34482 0.37612 0.0
H3004 H 0.38296 0.35788 0.32491 0.0
H3005 H 0.40512 0.38552 0.31467 0.0
C3006 C 0.29908 0.28171 0.42822 0.0
C3007 C 0.30075 0.28787 0.40293 0.0
C3008 C 0.32554 0.2683 0.39577 0.0
C3009 C 0.32473 0.26311 0.42138 0.0
N3010 N 0.31521 0.26914 0.46332 0.0
N3011 N 0.31896 0.29151 0.36386 0.0
C3012 C 0.31286 0.27116 0.43803 0.0
C3013 C 0.31505 0.28254 0.38705 0.0
N3014 N 0.2837 0.28522 0.44257 0.0
N3015 N 0.33553 0.25888 0.37963 0.0
H3016 H 0.31143 0.3019 0.35685 0.0
H3017 H 0.33122 0.29051 0.35244 0.0
H3018 H 0.34379 0.24878 0.38551 0.0
H3019 H 0.33423 0.25958 0.36018 0.0
H3020 H 0.27964 0.27861 0.46022 0.0
H3021 H 0.27347 0.29313 0.43605 0.0
H3022 H 0.30918 0.27702 0.47677 0.0
H3023 H 0.32513 0.26142 0.47115 0.0
C3024 C 0.72827 0.05127 0.40301 0.0
C3025 C 0.71377 0.03116 0.41688 0.0
C3026 C 0.72584 0.05951 0.45523 0.0
C3027 C 0.74391 0.07839 0.44233 0.0
N3028 N 0.76284 0.09255 0.40392 0.0
N3029 N 0.6948 0.01601 0.45472 0.0
C3030 C 0.74499 0.07454 0.41608 0.0
C3031 C 0.71112 0.03531 0.44256 0.0
N3032 N 0.72548 0.04815 0.37728 0.0
N3033 N 0.72285 0.06494 0.47945 0.0
H3034 H 0.68234 0.99891 0.44516 0.0
H3035 H 0.69355 0.01668 0.47405 0.0
H3036 H 0.73332 0.08261 0.48891 0.0
H3037 H 0.70918 0.05268 0.48971 0.0
H3038 H 0.73392 0.06267 0.36589 0.0
H3039 H 0.71272 0.03134 0.36736 0.0
H3040 H 0.76639 0.08961 0.38565 0.0
H3041 H 0.77522 0.11008 0.41261 0.0
C3042 C 0.97409 0.69564 0.41305 0.0
C3043 C 0.97153 0.69013 0.38647 0.0
C3044 C 0.92778 0.67513 0.38593 0.0
C3045 C 0.93015 0.67843 0.41268 0.0
N3046 N 0.95468 0.68572 0.4518 0.0
N3047 N 0.94492 0.66941 0.34848 0.0
C3048 C 0.95304 0.68671 0.42626 0.0
C3049 C 0.94806 0.67836 0.37312 0.0
N3050 N 0.99647 0.71077 0.42565 0.0
N3051 N 0.9065 0.66986 0.37266 0.0
H3052 H 0.95914 0.67061 0.33872 0.0
H3053 H 0.92791 0.65856 0.33855 0.0
H3054 H 0.89133 0.66757 0.3813 0.0
H3055 H 0.9046 0.6699 0.35314 0.0
H3056 H 0.99892 0.71722 0.44458 0.0
H3057 H 0.01239 0.71932 0.41674 0.0
H3058 H 0.97059 0.68926 0.46227 0.0
H3059 H 0.93958 0.67885 0.46212 0.0
C3060 C 0.38698 0.04243 0.7608 0.0
C3061 C 0.38774 0.04068 0.73431 0.0
C3062 C 0.41676 0.02574 0.73913 0.0
C3063 C 0.41489 0.0259 0.76554 0.0
N3064 N 0.39501 0.02996 0.80108 0.0
N3065 N 0.39862 0.02532 0.69779 0.0
C3066 C 0.39901 0.03294 0.77628 0.0
C3067 C 0.40116 0.03065 0.72333 0.0
N3068 N 0.37528 0.05371 0.77113 0.0
N3069 N 0.43425 0.02214 0.7292 0.0
H3070 H 0.3873 0.02864 0.68555 0.0
H3071 H 0.40596 0.01553 0.68898 0.0
H3072 H 0.44633 0.01876 0.74003 0.0
H3073 H 0.43824 0.02472 0.71056 0.0
H3074 H 0.37616 0.05789 0.79043 0.0
H3075 H 0.36606 0.06056 0.76025 0.0
H3076 H 0.3819 0.03247 0.80946 0.0
H3077 H 0.40338 0.02283 0.81282 0.0
C3078 C 0.00764 0.3775 0.75536 0.0
C3079 C 0.98837 0.35703 0.76532 0.0
C3080 C 0.99068 0.38488 0.80083 0.0
C3081 C 0.00551 0.40559 0.78765 0.0
N3082 N 0.04201 0.41799 0.76723 0.0
N3083 N 0.96135 0.34108 0.79817 0.0
C3084 C 0.01814 0.40138 0.76867 0.0
C3085 C 0.98007 0.36059 0.78847 0.0
N3086 N 0.01644 0.37422 0.73364 0.0
N3087 N 0.98928 0.38828 0.82601 0.0
H3088 H 0.95274 0.32298 0.78958 0.0
H3089 H 0.95308 0.34333 0.8136 0.0
H3090 H 0.9996 0.4057 0.83606 0.0
H3091 H 0.98062 0.37367 0.83725 0.0
H3092 H 0.02898 0.38912 0.72459 0.0
H3093 H 0.01011 0.35683 0.72395 0.0
H3094 H 0.0527 0.41495 0.75505 0.0
H3095 H 0.05191 0.43241 0.78137 0.0
C3096 C 0.63095 0.6272 0.72493 0.0
C3097 C 0.64268 0.61475 0.7149 0.0
C3098 C 0.60984 0.57534 0.72666 0.0
C3099 C 0.60118 0.58864 0.74114 0.0
N3100 N 0.60519 0.62802 0.75607 0.0
N3101 N 0.64407 0.57673 0.70761 0.0
C3102 C 0.61195 0.61478 0.74057 0.0
C3103 C 0.63214 0.58864 0.7157 0.0
N3104 N 0.63796 0.65093 0.71933 0.0
N3105 N 0.59666 0.54999 0.72333 0.0
H3106 H 0.66042 0.58564 0.69951 0.0
H3107 H 0.63863 0.55832 0.71062 0.0
H3108 H 0.58013 0.53978 0.73091 0.0
H3109 H 0.60085 0.53936 0.71108 0.0
H3110 H 0.62873 0.66025 0.7243 0.0
H3111 H 0.65138 0.66023 0.7073 0.0
H3112 H 0.61441 0.64737 0.75842 0.0
H3113 H 0.59173 0.61983 0.76829 0.0
C3114 C 0.68479 0.72525 0.69619 0.0
C3115 C 0.696 0.71624 0.67971 0.0
C3116 C 0.68272 0.73125 0.64391 0.0
C3117 C 0.6746 0.74331 0.66086 0.0
N3118 N 0.66883 0.75324 0.70316 0.0
N3119 N 0.70807 0.71268 0.63838 0.0
C3120 C 0.67578 0.74063 0.68705 0.0
C3121 C 0.69546 0.71959 0.65364 0.0
N3122 N 0.68214 0.71846 0.7203 0.0
N3123 N 0.67802 0.73077 0.6185 0.0
H3124 H 0.71774 0.70415 0.6448 0.0
H3125 H 0.71064 0.71719 0.61984 0.0
H3126 H 0.66876 0.7392 0.61075 0.0
H3127 H 0.68122 0.72014 0.6052 0.0
H3128 H 0.67211 0.72245 0.73255 0.0
H3129 H 0.68816 0.70683 0.72734 0.0
H3130 H 0.67182 0.75436 0.7227 0.0
H3131 H 0.66128 0.76387 0.69692 0.0
C3132 C 0.29351 0.96453 0.62922 0.0
C3133 C 0.30016 0.96905 0.65571 0.0
C3134 C 0.27175 0.92541 0.66114 0.0
C3135 C 0.26499 0.92115 0.63483 0.0
N3136 N 0.27403 0.93398 0.59316 0.0
N3137 N 0.30084 0.95274 0.69562 0.0
C3138 C 0.27764 0.93983 0.61865 0.0
C3139 C 0.29096 0.94907 0.67128 0.0
N3140 N 0.30049 0.98386 0.61437 0.0
N3141 N 0.25909 0.90721 0.67649 0.0
H3142 H 0.31528 0.96979 0.70332 0.0
H3143 H 0.29638 0.93845 0.70735 0.0
H3144 H 0.24556 0.88938 0.66952 0.0
H3145 H 0.26112 0.91011 0.69608 0.0
H3146 H 0.29367 0.98167 0.59562 0.0
H3147 H 0.31145 0.00243 0.62103 0.0
H3148 H 0.28448 0.94621 0.58045 0.0
H3149 H 0.26216 0.91603 0.58493 0.0
C3150 C 0.04688 0.31132 0.71455 0.0
C3151 C 0.02371 0.29384 0.70239 0.0
C3152 C 0.04169 0.29543 0.66258 0.0
C3153 C 0.06513 0.31079 0.67534 0.0
N3154 N 0.09067 0.33182 0.71373 0.0
N3155 N 0.99901 0.26711 0.66562 0.0
C3156 C 0.06791 0.31846 0.7014 0.0
C3157 C 0.0211 0.28531 0.67661 0.0
N3158 N 0.0487 0.32116 0.73859 0.0
N3159 N 0.03908 0.2911 0.6369 0.0
H3160 H 0.98332 0.25971 0.67496 0.0
H3161 H 0.99647 0.25803 0.64785 0.0
H3162 H 0.05376 0.29809 0.62602 0.0
H3163 H 0.02238 0.28244 0.62613 0.0
H3164 H 0.06462 0.33589 0.74763 0.0
H3165 H 0.03378 0.3157 0.74901 0.0
H3166 H 0.09406 0.33571 0.7332 0.0
H3167 H 0.10641 0.33771 0.70458 0.0
C3168 C 0.28074 0.32554 0.68071 0.0
C3169 C 0.29179 0.31403 0.66736 0.0
C3170 C 0.27281 0.31756 0.62754 0.0
C3171 C 0.25895 0.32542 0.64119 0.0
N3172 N 0.24668 0.33276 0.68129 0.0
N3173 N 0.29458 0.29476 0.62808 0.0
C3174 C 0.2621 0.32837 0.66795 0.0
C3175 C 0.28698 0.30901 0.64072 0.0
N3176 N 0.2886 0.33462 0.70534 0.0
N3177 N 0.27268 0.31857 0.60201 0.0
H3178 H 0.30389 0.2869 0.63698 0.0
H3179 H 0.28938 0.28852 0.60907 0.0
H3180 H 0.2627 0.32502 0.59178 0.0
H3181 H 0.2843 0.31538 0.59143 0.0
H3182 H 0.28271 0.34527 0.71519 0.0
H3183 H 0.30293 0.33391 0.71508 0.0
H3184 H 0.2466 0.33235 0.70079 0.0
H3185 H 0.23247 0.33451 0.67279 0.0
C3186 C 0.67915 0.98302 0.62559 0.0
C3187 C 0.68409 0.98781 0.65213 0.0
C3188 C 0.6708 0.94409 0.65671 0.0
C3189 C 0.66705 0.93933 0.63006 0.0
N3190 N 0.6621 0.95226 0.58932 0.0
N3191 N 0.67568 0.97201 0.69273 0.0
C3192 C 0.66943 0.95822 0.61451 0.0
C3193 C 0.67702 0.96799 0.66763 0.0
N3194 N 0.68417 0.00225 0.61113 0.0
N3195 N 0.66982 0.9263 0.67154 0.0
H3196 H 0.67948 0.98932 0.70093 0.0
H3197 H 0.66853 0.95782 0.70471 0.0
H3198 H 0.66546 0.90851 0.66439 0.0
H3199 H 0.67517 0.92979 0.69082 0.0
H3200 H 0.68396 0.00089 0.5916 0.0
H3201 H 0.68892 0.01994 0.61898 0.0
H3202 H 0.66159 0.96459 0.57708 0.0
H3203 H 0.65478 0.93421 0.58084 0.0
C3204 C 0.02405 0.75804 0.69467 0.0
C3205 C 0.01347 0.7318 0.6941 0.0
C3206 C 0.04318 0.73309 0.66623 0.0
C3207 C 0.05493 0.75942 0.66825 0.0
N3208 N 0.06021 0.79709 0.68984 0.0
N3209 N 0.01829 0.69587 0.68629 0.0
C3210 C 0.04655 0.77197 0.68426 0.0
C3211 C 0.02478 0.71982 0.68211 0.0
N3212 N 0.01212 0.76962 0.70365 0.0
N3213 N 0.04852 0.72054 0.64823 0.0
H3214 H 0.00578 0.68597 0.69895 0.0
H3215 H 0.02743 0.68701 0.67958 0.0
H3216 H 0.06095 0.72936 0.63518 0.0
H3217 H 0.03865 0.70127 0.64455 0.0
H3218 H 0.01792 0.78833 0.70188 0.0
H3219 H 0.99531 0.76022 0.71078 0.0
H3220 H 0.05604 0.80682 0.70326 0.0
H3221 H 0.07701 0.80778 0.68297 0.0
C3222 C 0.97645 0.62164 0.72035 0.0
C3223 C 0.96994 0.63432 0.73831 0.0
C3224 C 0.98835 0.62217 0.77247 0.0
C3225 C 0.99047 0.60571 0.75469 0.0
N3226 N 0.98667 0.58934 0.71177 0.0
N3227 N 0.97198 0.64948 0.78134 0.0
C3228 C 0.98475 0.60546 0.72859 0.0
C3229 C 0.97689 0.63572 0.76437 0.0
N3230 N 0.97584 0.62612 0.69558 0.0
N3231 N 0.99749 0.6249 0.797 0.0
H3232 H 0.96569 0.66138 0.77594 0.0
H3233 H 0.97345 0.64871 0.80076 0.0
H3234 H 0.00574 0.61503 0.80353 0.0
H3235 H 0.99864 0.63815 0.81054 0.0
H3236 H 0.98235 0.61913 0.68177 0.0
H3237 H 0.97121 0.63909 0.68939 0.0
H3238 H 0.98005 0.58624 0.69284 0.0
H3239 H 0.99366 0.57796 0.71707 0.0
C3240 C 0.37946 0.365 0.77348 0.0
C3241 C 0.38086 0.36225 0.74727 0.0
C3242 C 0.40953 0.40671 0.74737 0.0
C3243 C 0.41104 0.40864 0.77413 0.0
N3244 N 0.39745 0.39057 0.81309 0.0
N3245 N 0.39034 0.38073 0.70804 0.0
C3246 C 0.39562 0.38816 0.78732 0.0
C3247 C 0.39379 0.38328 0.73379 0.0
N3248 N 0.36221 0.34563 0.7848 0.0
N3249 N 0.424 0.42709 0.73519 0.0
H3250 H 0.37824 0.36379 0.6979 0.0
H3251 H 0.39787 0.39538 0.6967 0.0
H3252 H 0.43477 0.44474 0.74457 0.0
H3253 H 0.42598 0.42665 0.716 0.0
H3254 H 0.35888 0.34672 0.80354 0.0
H3255 H 0.34953 0.32899 0.7746 0.0
H3256 H 0.38885 0.37575 0.82405 0.0
H3257 H 0.4086 0.40747 0.82372 0.0
C3258 C 0.64811 0.05517 0.74123 0.0
C3259 C 0.64548 0.04573 0.71575 0.0
C3260 C 0.60119 0.02674 0.71517 0.0
C3261 C 0.60388 0.03383 0.74137 0.0
N3262 N 0.62963 0.05126 0.78038 0.0
N3263 N 0.61951 0.01979 0.67924 0.0
C3264 C 0.62728 0.04707 0.7547 0.0
C3265 C 0.622 0.0309 0.70282 0.0
N3266 N 0.67046 0.07271 0.75231 0.0
N3267 N 0.57881 0.01642 0.70204 0.0
H3268 H 0.63427 0.02228 0.66967 0.0
H3269 H 0.60286 0.00659 0.66995 0.0
H3270 H 0.56319 0.01278 0.71059 0.0
H3271 H 0.576 0.01325 0.68247 0.0
H3272 H 0.67313 0.08211 0.76993 0.0
H3273 H 0.6861 0.07982 0.74286 0.0
H3274 H 0.6461 0.05823 0.79138 0.0
H3275 H 0.61485 0.04576 0.79101 0.0
loop_
_geom_bond_atom_site_label_1
_geom_bond_atom_site_label_2
_geom_bond_distance
_geom_bond_site_symmetry_2
_ccdc_geom_bond_type
Mn0 O5 2.095 1_655 S
Mn0 O15 2.162 . S
Mn0 O16 2.297 1_554 S
Mn0 O24 2.385 1_554 S
Mn0 O25 2.209 1_655 S
Mn0 O26 2.094 . S
Mn1 O6 2.121 . S
Mn1 N8 2.257 . S
Mn1 N17 2.282 . S
Mn1 O25 2.215 . S
Mn1 O27 2.117 . S
C2 O24 1.234 1_455 S
C2 O25 1.283 1_556 S
C3 O15 1.307 . S
C3 O16 1.225 1_554 S
C4 O26 1.229 1_455 S
C4 O27 1.299 . S
O5 Mn0 2.095 1_455 S
O5 C14 1.250 . S
O6 Mn1 2.121 . S
O6 C14 1.258 . S
C7 N8 1.326 . S
C7 C11 1.460 1_554 S
C7 H13 0.929 . S
N8 Mn1 2.257 . S
N8 C7 1.326 . S
N8 C12 1.362 . S
C9 C10 1.258 . S
C9 C12 1.431 1_556 S
C9 C29 1.449 . S
C10 C9 1.258 . S
C10 C11 1.477 . S
C10 H30 0.931 . S
C11 C7 1.460 1_556 S
C11 C10 1.477 . S
C11 H31 0.930 . S
C12 N8 1.362 . S
C12 C9 1.431 1_554 S
C12 C22 1.476 . S
H13 C7 0.929 . S
C14 O5 1.250 . S
C14 O6 1.258 . S
O15 Mn0 2.162 . S
O15 C3 1.307 . S
O16 Mn0 2.297 1_556 S
O16 C3 1.225 1_556 S
N17 Mn1 2.282 . S
N17 C18 1.328 . S
N17 C22 1.318 . S
C18 N17 1.328 . S
C18 C19 1.457 . S
C18 H23 0.929 . S
C19 C18 1.457 . S
C19 C20 1.291 . S
C19 H32 0.931 . S
C20 C19 1.291 . S
C20 C21 1.373 . S
C20 H33 0.929 1_554 S
C21 C20 1.373 . S
C21 C22 1.396 . S
C21 C28 1.403 1_554 S
C22 C12 1.476 . S
C22 N17 1.318 . S
C22 C21 1.396 . S
H23 C18 0.929 . S
O24 Mn0 2.385 1_556 S
O24 C2 1.234 1_655 S
O25 Mn0 2.209 1_455 S
O25 Mn1 2.215 . S
O25 C2 1.283 1_554 S
O26 Mn0 2.094 . S
O26 C4 1.229 1_655 S
O27 Mn1 2.117 . S
O27 C4 1.299 . S
C28 C21 1.403 1_556 S
C28 C29 1.399 . S
C28 H34 0.929 . S
C29 C9 1.449 . S
C29 C28 1.399 . S
C29 H35 0.930 . S
H30 C10 0.931 . S
H31 C11 0.930 . S
H32 C19 0.931 . S
H33 C20 0.929 1_556 S
H34 C28 0.929 . S
H35 C29 0.930 . S
Mn36 O41 2.095 . S
Mn36 O51 2.162 . S
Mn36 O52 2.297 . S
Mn36 O60 2.385 . S
Mn36 O61 2.209 . S
Mn36 O62 2.094 . S
Mn37 O42 2.121 . S
Mn37 N44 2.257 . S
Mn37 N53 2.282 . S
Mn37 O61 2.215 . S
Mn37 O63 2.117 . S
C38 O60 1.234 . S
C38 O61 1.283 . S
C39 O51 1.281 . S
C39 O52 1.236 . S
C40 O62 1.240 . S
C40 O63 1.264 . S
O41 Mn36 2.095 . S
O41 C50 1.250 . S
O42 Mn37 2.121 . S
O42 C50 1.258 . S
C43 N44 1.326 . S
C43 C47 1.460 . S
C43 H49 0.929 . S
N44 Mn37 2.257 . S
N44 C43 1.326 . S
N44 C48 1.362 . S
C45 C46 1.258 . S
C45 C48 1.431 . S
C45 C65 1.449 . S
C46 C45 1.258 . S
C46 C47 1.477 . S
C46 H66 0.931 . S
C47 C43 1.460 . S
C47 C46 1.477 . S
C47 H67 0.930 . S
C48 N44 1.362 . S
C48 C45 1.431 . S
C48 C58 1.476 . S
H49 C43 0.929 . S
C50 O41 1.250 . S
C50 O42 1.258 . S
O51 Mn36 2.162 . S
O51 C39 1.281 . S
O52 Mn36 2.297 . S
O52 C39 1.236 . S
N53 Mn37 2.282 . S
N53 C54 1.328 . S
N53 C58 1.318 . S
C54 N53 1.328 . S
C54 C55 1.457 . S
C54 H59 0.929 . S
C55 C54 1.457 . S
C55 C56 1.291 . S
C55 H68 0.931 . S
C56 C55 1.291 . S
C56 C57 1.373 . S
C56 H69 0.929 . S
C57 C56 1.373 . S
C57 C58 1.396 . S
C57 C64 1.403 . S
C58 C48 1.476 . S
C58 N53 1.318 . S
C58 C57 1.396 . S
H59 C54 0.929 . S
O60 Mn36 2.385 . S
O60 C38 1.234 . S
O61 Mn36 2.209 . S
O61 Mn37 2.215 . S
O61 C38 1.283 . S
O62 Mn36 2.094 . S
O62 C40 1.240 . S
O63 Mn37 2.117 . S
O63 C40 1.264 . S
C64 C57 1.403 . S
C64 C65 1.399 . S
C64 H70 0.929 . S
C65 C45 1.449 . S
C65 C64 1.399 . S
C65 H71 0.930 . S
H66 C46 0.931 . S
H67 C47 0.930 . S
H68 C55 0.931 . S
H69 C56 0.929 . S
H70 C64 0.929 . S
H71 C65 0.930 . S
Mn72 O77 2.095 1_565 S
Mn72 O87 2.162 . S
Mn72 O88 2.297 . S
Mn72 O96 2.385 . S
Mn72 O97 2.209 1_565 S
Mn72 O98 2.094 1_554 S
Mn73 O78 2.121 . S
Mn73 N80 2.257 . S
Mn73 N89 2.282 . S
Mn73 O97 2.215 . S
Mn73 O99 2.117 1_554 S
C74 O96 1.234 1_545 S
C74 O97 1.283 . S
C75 O87 1.281 . S
C75 O88 1.236 . S
C76 O98 1.240 . S
C76 O99 1.264 1_565 S
O77 Mn72 2.095 1_545 S
O77 C86 1.250 . S
O78 Mn73 2.121 . S
O78 C86 1.258 . S
C79 N80 1.326 . S
C79 C83 1.460 . S
C79 H85 0.929 . S
N80 Mn73 2.257 . S
N80 C79 1.326 . S
N80 C84 1.362 . S
C81 C82 1.258 . S
C81 C84 1.431 . S
C81 C101 1.449 . S
C82 C81 1.258 . S
C82 C83 1.477 . S
C82 H102 0.931 . S
C83 C79 1.460 . S
C83 C82 1.477 . S
C83 H103 0.930 . S
C84 N80 1.362 . S
C84 C81 1.431 . S
C84 C94 1.476 . S
H85 C79 0.929 . S
C86 O77 1.250 . S
C86 O78 1.258 . S
O87 Mn72 2.162 . S
O87 C75 1.281 . S
O88 Mn72 2.297 . S
O88 C75 1.236 . S
N89 Mn73 2.282 . S
N89 C90 1.328 . S
N89 C94 1.318 . S
C90 N89 1.328 . S
C90 C91 1.457 . S
C90 H95 0.929 . S
C91 C90 1.457 . S
C91 C92 1.291 . S
C91 H104 0.931 . S
C92 C91 1.291 . S
C92 C93 1.373 . S
C92 H105 0.929 . S
C93 C92 1.373 . S
C93 C94 1.396 . S
C93 C100 1.403 . S
C94 C84 1.476 . S
C94 N89 1.318 . S
C94 C93 1.396 . S
H95 C90 0.929 . S
O96 Mn72 2.385 . S
O96 C74 1.234 1_565 S
O97 Mn72 2.209 1_545 S
O97 Mn73 2.215 . S
O97 C74 1.283 . S
O98 Mn72 2.094 1_556 S
O98 C76 1.240 . S
O99 Mn73 2.117 1_556 S
O99 C76 1.264 1_545 S
C100 C93 1.403 . S
C100 C101 1.399 . S
C100 H106 0.929 . S
C101 C81 1.449 . S
C101 C100 1.399 . S
C101 H107 0.930 . S
H102 C82 0.931 . S
H103 C83 0.930 . S
H104 C91 0.931 . S
H105 C92 0.929 . S
H106 C100 0.929 . S
H107 C101 0.930 . S
Mn108 O113 2.095 1_655 S
Mn108 O123 2.162 . S
Mn108 O124 2.297 . S
Mn108 O132 2.385 . S
Mn108 O133 2.209 1_655 S
Mn108 O134 2.094 . S
Mn109 O114 2.121 . S
Mn109 N116 2.257 . S
Mn109 N125 2.282 . S
Mn109 O133 2.215 . S
Mn109 O135 2.117 . S
C110 O132 1.234 1_455 S
C110 O133 1.283 . S
C111 O123 1.281 . S
C111 O124 1.236 . S
C112 O134 1.240 . S
C112 O135 1.264 1_655 S
O113 Mn108 2.095 1_455 S
O113 C122 1.250 . S
O114 Mn109 2.121 . S
O114 C122 1.258 . S
C115 N116 1.326 . S
C115 C119 1.460 . S
C115 H121 0.929 . S
N116 Mn109 2.257 . S
N116 C115 1.326 . S
N116 C120 1.362 . S
C117 C118 1.258 . S
C117 C120 1.431 . S
C117 C137 1.449 1_554 S
C118 C117 1.258 . S
C118 C119 1.477 . S
C118 H138 0.931 1_554 S
C119 C115 1.460 . S
C119 C118 1.477 . S
C119 H139 0.930 . S
C120 N116 1.362 . S
C120 C117 1.431 . S
C120 C130 1.476 . S
H121 C115 0.929 . S
C122 O113 1.250 . S
C122 O114 1.258 . S
O123 Mn108 2.162 . S
O123 C111 1.281 . S
O124 Mn108 2.297 . S
O124 C111 1.236 . S
N125 Mn109 2.282 . S
N125 C126 1.328 . S
N125 C130 1.318 . S
C126 N125 1.328 . S
C126 C127 1.457 . S
C126 H131 0.929 . S
C127 C126 1.457 . S
C127 C128 1.291 . S
C127 H140 0.931 . S
C128 C127 1.291 . S
C128 C129 1.373 . S
C128 H141 0.929 . S
C129 C128 1.373 . S
C129 C130 1.396 . S
C129 C136 1.403 . S
C130 C120 1.476 . S
C130 N125 1.318 . S
C130 C129 1.396 . S
H131 C126 0.929 . S
O132 Mn108 2.385 . S
O132 C110 1.234 1_655 S
O133 Mn108 2.209 1_455 S
O133 Mn109 2.215 . S
O133 C110 1.283 . S
O134 Mn108 2.094 . S
O134 C112 1.240 . S
O135 Mn109 2.117 . S
O135 C112 1.264 1_455 S
C136 C129 1.403 . S
C136 C137 1.399 1_554 S
C136 H142 0.929 1_554 S
C137 C117 1.449 1_556 S
C137 C136 1.399 1_556 S
C137 H143 0.930 . S
H138 C118 0.931 1_556 S
H139 C119 0.930 . S
H140 C127 0.931 . S
H141 C128 0.929 . S
H142 C136 0.929 1_556 S
H143 C137 0.930 . S
Mn144 O149 2.095 1_554 S
Mn144 O159 2.162 . S
Mn144 O160 2.297 . S
Mn144 O168 2.385 . S
Mn144 O169 2.209 . S
Mn144 O170 2.094 1_554 S
Mn145 O150 2.121 . S
Mn145 N152 2.257 1_556 S
Mn145 N161 2.282 1_556 S
Mn145 O169 2.215 1_556 S
Mn145 O171 2.117 . S
C146 O168 1.234 . S
C146 O169 1.283 . S
C147 O159 1.281 . S
C147 O160 1.236 . S
C148 O170 1.240 . S
C148 O171 1.264 . S
O149 Mn144 2.095 1_556 S
O149 C158 1.250 . S
O150 Mn145 2.121 . S
O150 C158 1.258 . S
C151 N152 1.326 . S
C151 C155 1.460 . S
C151 H157 0.929 . S
N152 Mn145 2.257 1_554 S
N152 C151 1.326 . S
N152 C156 1.362 . S
C153 C154 1.258 . S
C153 C156 1.431 . S
C153 C173 1.449 . S
C154 C153 1.258 . S
C154 C155 1.477 . S
C154 H174 0.931 . S
C155 C151 1.460 . S
C155 C154 1.477 . S
C155 H175 0.930 . S
C156 N152 1.362 . S
C156 C153 1.431 . S
C156 C166 1.476 . S
H157 C151 0.929 . S
C158 O149 1.250 . S
C158 O150 1.258 . S
O159 Mn144 2.162 . S
O159 C147 1.281 . S
O160 Mn144 2.297 . S
O160 C147 1.236 . S
N161 Mn145 2.282 1_554 S
N161 C162 1.328 . S
N161 C166 1.318 . S
C162 N161 1.328 . S
C162 C163 1.457 . S
C162 H167 0.929 . S
C163 C162 1.457 . S
C163 C164 1.291 . S
C163 H176 0.931 . S
C164 C163 1.291 . S
C164 C165 1.373 . S
C164 H177 0.929 . S
C165 C164 1.373 . S
C165 C166 1.396 . S
C165 C172 1.403 . S
C166 C156 1.476 . S
C166 N161 1.318 . S
C166 C165 1.396 . S
H167 C162 0.929 . S
O168 Mn144 2.385 . S
O168 C146 1.234 . S
O169 Mn144 2.209 . S
O169 Mn145 2.215 1_554 S
O169 C146 1.283 . S
O170 Mn144 2.094 1_556 S
O170 C148 1.240 . S
O171 Mn145 2.117 . S
O171 C148 1.264 . S
C172 C165 1.403 . S
C172 C173 1.399 . S
C172 H178 0.929 . S
C173 C153 1.449 . S
C173 C172 1.399 . S
C173 H179 0.930 . S
H174 C154 0.931 . S
H175 C155 0.930 . S
H176 C163 0.931 . S
H177 C164 0.929 . S
H178 C172 0.929 . S
H179 C173 0.930 . S
Mn180 O185 2.095 1_545 S
Mn180 O195 2.162 . S
Mn180 O196 2.297 . S
Mn180 O204 2.385 . S
Mn180 O205 2.209 1_545 S
Mn180 O206 2.094 . S
Mn181 O186 2.121 . S
Mn181 N188 2.257 . S
Mn181 N197 2.282 . S
Mn181 O205 2.215 . S
Mn181 O207 2.117 . S
C182 O204 1.234 . S
C182 O205 1.283 1_545 S
C183 O195 1.281 . S
C183 O196 1.236 . S
C184 O206 1.240 . S
C184 O207 1.264 1_545 S
O185 Mn180 2.095 1_565 S
O185 C194 1.250 . S
O186 Mn181 2.121 . S
O186 C194 1.258 . S
C187 N188 1.326 . S
C187 C191 1.460 . S
C187 H193 0.929 . S
N188 Mn181 2.257 . S
N188 C187 1.326 . S
N188 C192 1.362 . S
C189 C190 1.253 1_554 S
C189 C192 1.447 . S
C189 C209 1.438 1_554 S
C190 C189 1.253 1_556 S
C190 C191 1.477 1_556 S
C190 H210 0.931 . S
C191 C187 1.460 . S
C191 C190 1.477 1_554 S
C191 H211 0.930 . S
C192 N188 1.362 . S
C192 C189 1.447 . S
C192 C202 1.476 . S
H193 C187 0.929 . S
C194 O185 1.250 . S
C194 O186 1.258 . S
O195 Mn180 2.162 . S
O195 C183 1.281 . S
O196 Mn180 2.297 . S
O196 C183 1.236 . S
N197 Mn181 2.282 . S
N197 C198 1.328 . S
N197 C202 1.318 . S
C198 N197 1.328 . S
C198 C199 1.457 . S
C198 H203 0.929 . S
C199 C198 1.457 . S
C199 C200 1.291 . S
C199 H212 0.931 . S
C200 C199 1.291 . S
C200 C201 1.373 . S
C200 H213 0.929 . S
C201 C200 1.373 . S
C201 C202 1.396 . S
C201 C208 1.403 1_554 S
C202 C192 1.476 . S
C202 N197 1.318 . S
C202 C201 1.396 . S
H203 C198 0.929 . S
O204 Mn180 2.385 . S
O204 C182 1.234 . S
O205 Mn180 2.209 1_565 S
O205 Mn181 2.215 . S
O205 C182 1.283 1_565 S
O206 Mn180 2.094 . S
O206 C184 1.240 . S
O207 Mn181 2.117 . S
O207 C184 1.264 1_565 S
C208 C201 1.403 1_556 S
C208 C209 1.399 . S
C208 H214 0.929 . S
C209 C189 1.438 1_556 S
C209 C208 1.399 . S
C209 H215 0.930 . S
H210 C190 0.931 . S
H211 C191 0.930 . S
H212 C199 0.931 . S
H213 C200 0.929 . S
H214 C208 0.929 . S
H215 C209 0.930 . S
Mn216 O221 2.095 . S
Mn216 O231 2.162 . S
Mn216 O232 2.297 . S
Mn216 O240 2.385 . S
Mn216 O241 2.209 . S
Mn216 O242 2.094 . S
Mn217 O222 2.121 . S
Mn217 N224 2.257 . S
Mn217 N233 2.282 . S
Mn217 O241 2.215 . S
Mn217 O243 2.117 . S
C218 O240 1.234 . S
C218 O241 1.283 . S
C219 O231 1.281 . S
C219 O232 1.236 . S
C220 O242 1.240 . S
C220 O243 1.264 . S
O221 Mn216 2.095 . S
O221 C230 1.250 . S
O222 Mn217 2.121 . S
O222 C230 1.258 . S
C223 N224 1.326 . S
C223 C227 1.460 . S
C223 H229 0.929 . S
N224 Mn217 2.257 . S
N224 C223 1.326 . S
N224 C228 1.362 . S
C225 C226 1.258 . S
C225 C228 1.431 . S
C225 C245 1.449 . S
C226 C225 1.258 . S
C226 C227 1.477 . S
C226 H246 0.931 . S
C227 C223 1.460 . S
C227 C226 1.477 . S
C227 H247 0.930 . S
C228 N224 1.362 . S
C228 C225 1.431 . S
C228 C238 1.476 . S
H229 C223 0.929 . S
C230 O221 1.250 . S
C230 O222 1.258 . S
O231 Mn216 2.162 . S
O231 C219 1.281 . S
O232 Mn216 2.297 . S
O232 C219 1.236 . S
N233 Mn217 2.282 . S
N233 C234 1.328 . S
N233 C238 1.318 . S
C234 N233 1.328 . S
C234 C235 1.457 . S
C234 H239 0.929 . S
C235 C234 1.457 . S
C235 C236 1.291 . S
C235 H248 0.931 . S
C236 C235 1.291 . S
C236 C237 1.373 . S
C236 H249 0.929 . S
C237 C236 1.373 . S
C237 C238 1.396 . S
C237 C244 1.403 . S
C238 C228 1.476 . S
C238 N233 1.318 . S
C238 C237 1.396 . S
H239 C234 0.929 . S
O240 Mn216 2.385 . S
O240 C218 1.234 . S
O241 Mn216 2.209 . S
O241 Mn217 2.215 . S
O241 C218 1.283 . S
O242 Mn216 2.094 . S
O242 C220 1.240 . S
O243 Mn217 2.117 . S
O243 C220 1.264 . S
C244 C237 1.403 . S
C244 C245 1.399 . S
C244 H250 0.929 . S
C245 C225 1.449 . S
C245 C244 1.399 . S
C245 H251 0.930 . S
H246 C226 0.931 . S
H247 C227 0.930 . S
H248 C235 0.931 . S
H249 C236 0.929 . S
H250 C244 0.929 . S
H251 C245 0.930 . S
Mn252 O257 2.095 . S
Mn252 O267 2.162 1_565 S
Mn252 O268 2.297 . S
Mn252 O276 2.385 . S
Mn252 O277 2.209 . S
Mn252 O278 2.094 . S
Mn253 O258 2.121 . S
Mn253 N260 2.257 . S
Mn253 N269 2.282 . S
Mn253 O277 2.215 . S
Mn253 O279 2.117 . S
C254 O276 1.234 . S
C254 O277 1.283 . S
C255 O267 1.281 . S
C255 O268 1.236 1_545 S
C256 O278 1.240 . S
C256 O279 1.264 . S
O257 Mn252 2.095 . S
O257 C266 1.250 . S
O258 Mn253 2.121 . S
O258 C266 1.258 . S
C259 N260 1.326 . S
C259 C263 1.460 . S
C259 H265 0.929 . S
N260 Mn253 2.257 . S
N260 C259 1.326 . S
N260 C264 1.362 . S
C261 C262 1.258 . S
C261 C264 1.431 . S
C261 C281 1.449 . S
C262 C261 1.258 . S
C262 C263 1.477 . S
C262 H282 0.931 . S
C263 C259 1.460 . S
C263 C262 1.477 . S
C263 H283 0.930 . S
C264 N260 1.362 . S
C264 C261 1.431 . S
C264 C274 1.476 . S
H265 C259 0.929 . S
C266 O257 1.250 . S
C266 O258 1.258 . S
O267 Mn252 2.162 1_545 S
O267 C255 1.281 . S
O268 Mn252 2.297 . S
O268 C255 1.236 1_565 S
N269 Mn253 2.282 . S
N269 C270 1.328 . S
N269 C274 1.318 . S
C270 N269 1.328 . S
C270 C271 1.457 . S
C270 H275 0.929 . S
C271 C270 1.457 . S
C271 C272 1.291 . S
C271 H284 0.931 . S
C272 C271 1.291 . S
C272 C273 1.373 . S
C272 H285 0.929 . S
C273 C272 1.373 . S
C273 C274 1.396 . S
C273 C280 1.403 . S
C274 C264 1.476 . S
C274 N269 1.318 . S
C274 C273 1.396 . S
H275 C270 0.929 . S
O276 Mn252 2.385 . S
O276 C254 1.234 . S
O277 Mn252 2.209 . S
O277 Mn253 2.215 . S
O277 C254 1.283 . S
O278 Mn252 2.094 . S
O278 C256 1.240 . S
O279 Mn253 2.117 . S
O279 C256 1.264 . S
C280 C273 1.403 . S
C280 C281 1.399 . S
C280 H286 0.929 . S
C281 C261 1.449 . S
C281 C280 1.399 . S
C281 H287 0.930 . S
H282 C262 0.931 . S
H283 C263 0.930 . S
H284 C271 0.931 . S
H285 C272 0.929 . S
H286 C280 0.929 . S
H287 C281 0.930 . S
Mn288 O293 2.095 . S
Mn288 O303 2.162 . S
Mn288 O304 2.297 . S
Mn288 O312 2.385 . S
Mn288 O313 2.209 . S
Mn288 O314 2.094 . S
Mn289 O294 2.121 . S
Mn289 N296 2.257 . S
Mn289 N305 2.282 . S
Mn289 O313 2.215 . S
Mn289 O315 2.117 . S
C290 O312 1.234 . S
C290 O313 1.283 . S
C291 O303 1.294 . S
C291 O304 1.240 . S
C292 O314 1.240 . S
C292 O315 1.264 . S
O293 Mn288 2.095 . S
O293 C302 1.250 . S
O294 Mn289 2.121 . S
O294 C302 1.258 . S
C295 N296 1.326 . S
C295 C299 1.460 . S
C295 H301 0.929 . S
N296 Mn289 2.257 . S
N296 C295 1.326 . S
N296 C300 1.362 . S
C297 C298 1.258 . S
C297 C300 1.431 . S
C297 C317 1.449 . S
C298 C297 1.258 . S
C298 C299 1.477 . S
C298 H318 0.931 . S
C299 C295 1.460 . S
C299 C298 1.477 . S
C299 H319 0.930 . S
C300 N296 1.362 . S
C300 C297 1.431 . S
C300 C310 1.476 . S
H301 C295 0.929 . S
C302 O293 1.250 . S
C302 O294 1.258 . S
O303 Mn288 2.162 . S
O303 C291 1.294 . S
O304 Mn288 2.297 . S
O304 C291 1.240 . S
N305 Mn289 2.282 . S
N305 C306 1.328 . S
N305 C310 1.318 . S
C306 N305 1.328 . S
C306 C307 1.457 . S
C306 H311 0.929 . S
C307 C306 1.457 . S
C307 C308 1.291 . S
C307 H320 0.931 . S
C308 C307 1.291 . S
C308 C309 1.373 . S
C308 H321 0.929 . S
C309 C308 1.373 . S
C309 C310 1.396 . S
C309 C316 1.403 . S
C310 C300 1.476 . S
C310 N305 1.318 . S
C310 C309 1.396 . S
H311 C306 0.929 . S
O312 Mn288 2.385 . S
O312 C290 1.234 . S
O313 Mn288 2.209 . S
O313 Mn289 2.215 . S
O313 C290 1.283 . S
O314 Mn288 2.094 . S
O314 C292 1.240 . S
O315 Mn289 2.117 . S
O315 C292 1.264 . S
C316 C309 1.403 . S
C316 C317 1.399 . S
C316 H322 0.929 . S
C317 C297 1.449 . S
C317 C316 1.399 . S
C317 H323 0.930 . S
H318 C298 0.931 . S
H319 C299 0.930 . S
H320 C307 0.931 . S
H321 C308 0.929 . S
H322 C316 0.929 . S
H323 C317 0.930 . S
Mn324 O329 2.095 . S
Mn324 O339 2.162 . S
Mn324 O340 2.297 . S
Mn324 O348 2.385 . S
Mn324 O349 2.209 . S
Mn324 O350 2.094 . S
Mn325 O330 2.110 1_565 S
Mn325 N332 2.257 . S
Mn325 N341 2.282 . S
Mn325 O349 2.215 . S
Mn325 O351 2.117 . S
C326 O348 1.234 . S
C326 O349 1.283 . S
C327 O339 1.281 . S
C327 O340 1.236 . S
C328 O350 1.240 . S
C328 O351 1.264 . S
O329 Mn324 2.095 . S
O329 C338 1.250 1_565 S
O330 Mn325 2.110 1_545 S
O330 C338 1.266 . S
C331 N332 1.326 1_545 S
C331 C335 1.460 . S
C331 H337 0.929 . S
N332 Mn325 2.257 . S
N332 C331 1.326 1_565 S
N332 C336 1.362 . S
C333 C334 1.258 . S
C333 C336 1.431 . S
C333 C353 1.449 . S
C334 C333 1.258 . S
C334 C335 1.477 1_565 S
C334 H354 0.931 . S
C335 C331 1.460 . S
C335 C334 1.477 1_545 S
C335 H355 0.930 . S
C336 N332 1.362 . S
C336 C333 1.431 . S
C336 C346 1.476 . S
H337 C331 0.929 . S
C338 O329 1.250 1_545 S
C338 O330 1.266 . S
O339 Mn324 2.162 . S
O339 C327 1.281 . S
O340 Mn324 2.297 . S
O340 C327 1.236 . S
N341 Mn325 2.282 . S
N341 C342 1.328 . S
N341 C346 1.318 . S
C342 N341 1.328 . S
C342 C343 1.457 . S
C342 H347 0.929 . S
C343 C342 1.457 . S
C343 C344 1.291 . S
C343 H356 0.931 . S
C344 C343 1.291 . S
C344 C345 1.373 . S
C344 H357 0.929 . S
C345 C344 1.373 . S
C345 C346 1.396 . S
C345 C352 1.403 . S
C346 C336 1.476 . S
C346 N341 1.318 . S
C346 C345 1.396 . S
H347 C342 0.929 . S
O348 Mn324 2.385 . S
O348 C326 1.234 . S
O349 Mn324 2.209 . S
O349 Mn325 2.215 . S
O349 C326 1.283 . S
O350 Mn324 2.094 . S
O350 C328 1.240 . S
O351 Mn325 2.117 . S
O351 C328 1.264 . S
C352 C345 1.403 . S
C352 C353 1.399 . S
C352 H358 0.929 . S
C353 C333 1.449 . S
C353 C352 1.399 . S
C353 H359 0.930 . S
H354 C334 0.931 . S
H355 C335 0.930 . S
H356 C343 0.931 . S
H357 C344 0.929 . S
H358 C352 0.929 . S
H359 C353 0.930 . S
Mn360 O365 2.095 . S
Mn360 O375 2.205 . S
Mn360 O376 2.297 . S
Mn360 O384 2.385 . S
Mn360 O385 2.209 . S
Mn360 O386 2.094 . S
Mn361 O366 2.121 . S
Mn361 N368 2.257 . S
Mn361 N377 2.282 . S
Mn361 O385 2.215 . S
Mn361 O387 2.117 . S
C362 O384 1.234 . S
C362 O385 1.283 . S
C363 O375 1.286 1_655 S
C363 O376 1.236 1_655 S
C364 O386 1.240 . S
C364 O387 1.264 . S
O365 Mn360 2.095 . S
O365 C374 1.250 . S
O366 Mn361 2.121 . S
O366 C374 1.258 . S
C367 N368 1.326 . S
C367 C371 1.460 . S
C367 H373 0.929 . S
N368 Mn361 2.257 . S
N368 C367 1.326 . S
N368 C372 1.362 . S
C369 C370 1.258 . S
C369 C372 1.431 . S
C369 C389 1.449 . S
C370 C369 1.258 . S
C370 C371 1.477 . S
C370 H390 0.931 . S
C371 C367 1.460 . S
C371 C370 1.477 . S
C371 H391 0.930 . S
C372 N368 1.362 . S
C372 C369 1.431 . S
C372 C382 1.476 . S
H373 C367 0.929 . S
C374 O365 1.250 . S
C374 O366 1.258 . S
O375 Mn360 2.205 . S
O375 C363 1.286 1_455 S
O376 Mn360 2.297 . S
O376 C363 1.236 1_455 S
N377 Mn361 2.282 . S
N377 C378 1.328 . S
N377 C382 1.318 . S
C378 N377 1.328 . S
C378 C379 1.457 . S
C378 H383 0.929 . S
C379 C378 1.457 . S
C379 C380 1.291 . S
C379 H392 0.931 . S
C380 C379 1.291 . S
C380 C381 1.373 . S
C380 H393 0.929 . S
C381 C380 1.373 . S
C381 C382 1.396 . S
C381 C388 1.403 . S
C382 C372 1.476 . S
C382 N377 1.318 . S
C382 C381 1.396 . S
H383 C378 0.929 . S
O384 Mn360 2.385 . S
O384 C362 1.234 . S
O385 Mn360 2.209 . S
O385 Mn361 2.215 . S
O385 C362 1.283 . S
O386 Mn360 2.094 . S
O386 C364 1.240 . S
O387 Mn361 2.117 . S
O387 C364 1.264 . S
C388 C381 1.403 . S
C388 C389 1.399 . S
C388 H394 0.929 . S
C389 C369 1.449 . S
C389 C388 1.399 . S
C389 H395 0.930 . S
H390 C370 0.931 . S
H391 C371 0.930 . S
H392 C379 0.931 . S
H393 C380 0.929 . S
H394 C388 0.929 . S
H395 C389 0.930 . S
Mn396 O401 2.095 . S
Mn396 O411 2.162 . S
Mn396 O412 2.297 . S
Mn396 O420 2.385 . S
Mn396 O421 2.209 . S
Mn396 O422 2.094 . S
Mn397 O402 2.121 . S
Mn397 N404 2.257 . S
Mn397 N413 2.282 . S
Mn397 O421 2.215 . S
Mn397 O423 2.117 . S
C398 O420 1.234 . S
C398 O421 1.283 . S
C399 O411 1.281 . S
C399 O412 1.236 . S
C400 O422 1.240 . S
C400 O423 1.264 . S
O401 Mn396 2.095 . S
O401 C410 1.250 . S
O402 Mn397 2.121 . S
O402 C410 1.258 . S
C403 N404 1.326 . S
C403 C407 1.460 . S
C403 H409 0.929 . S
N404 Mn397 2.257 . S
N404 C403 1.326 . S
N404 C408 1.362 . S
C405 C406 1.258 . S
C405 C408 1.431 . S
C405 C425 1.449 . S
C406 C405 1.258 . S
C406 C407 1.477 . S
C406 H426 0.931 . S
C407 C403 1.460 . S
C407 C406 1.477 . S
C407 H427 0.930 . S
C408 N404 1.362 . S
C408 C405 1.431 . S
C408 C418 1.476 . S
H409 C403 0.929 . S
C410 O401 1.250 . S
C410 O402 1.258 . S
O411 Mn396 2.162 . S
O411 C399 1.281 . S
O412 Mn396 2.297 . S
O412 C399 1.236 . S
N413 Mn397 2.282 . S
N413 C414 1.328 . S
N413 C418 1.318 . S
C414 N413 1.328 . S
C414 C415 1.457 . S
C414 H419 0.929 . S
C415 C414 1.457 . S
C415 C416 1.291 . S
C415 H428 0.931 . S
C416 C415 1.291 . S
C416 C417 1.373 . S
C416 H429 0.929 . S
C417 C416 1.373 . S
C417 C418 1.396 . S
C417 C424 1.403 . S
C418 C408 1.476 . S
C418 N413 1.318 . S
C418 C417 1.396 . S
H419 C414 0.929 . S
O420 Mn396 2.385 . S
O420 C398 1.234 . S
O421 Mn396 2.209 . S
O421 Mn397 2.215 . S
O421 C398 1.283 . S
O422 Mn396 2.094 . S
O422 C400 1.240 . S
O423 Mn397 2.117 . S
O423 C400 1.264 . S
C424 C417 1.403 . S
C424 C425 1.399 . S
C424 H430 0.929 . S
C425 C405 1.449 . S
C425 C424 1.399 . S
C425 H431 0.930 . S
H426 C406 0.931 . S
H427 C407 0.930 . S
H428 C415 0.931 . S
H429 C416 0.929 . S
H430 C424 0.929 . S
H431 C425 0.930 . S
Mn432 O437 2.095 . S
Mn432 O447 2.151 1_545 S
Mn432 O448 2.297 . S
Mn432 O456 2.385 . S
Mn432 O457 2.209 . S
Mn432 O458 2.094 . S
Mn433 O438 2.121 . S
Mn433 N440 2.257 . S
Mn433 N449 2.282 . S
Mn433 O457 2.215 . S
Mn433 O459 2.117 . S
C434 O456 1.234 . S
C434 O457 1.283 . S
C435 O447 1.290 . S
C435 O448 1.236 1_565 S
C436 O458 1.240 . S
C436 O459 1.264 . S
O437 Mn432 2.095 . S
O437 C446 1.250 . S
O438 Mn433 2.121 . S
O438 C446 1.258 . S
C439 N440 1.326 . S
C439 C443 1.460 . S
C439 H445 0.929 . S
N440 Mn433 2.257 . S
N440 C439 1.326 . S
N440 C444 1.362 . S
C441 C442 1.258 . S
C441 C444 1.431 . S
C441 C461 1.449 . S
C442 C441 1.258 . S
C442 C443 1.477 . S
C442 H462 0.931 . S
C443 C439 1.460 . S
C443 C442 1.477 . S
C443 H463 0.930 . S
C444 N440 1.362 . S
C444 C441 1.431 . S
C444 C454 1.476 . S
H445 C439 0.929 . S
C446 O437 1.250 . S
C446 O438 1.258 . S
O447 Mn432 2.151 1_565 S
O447 C435 1.290 . S
O448 Mn432 2.297 . S
O448 C435 1.236 1_545 S
N449 Mn433 2.282 . S
N449 C450 1.328 . S
N449 C454 1.318 . S
C450 N449 1.328 . S
C450 C451 1.457 . S
C450 H455 0.929 . S
C451 C450 1.457 . S
C451 C452 1.291 . S
C451 H464 0.931 . S
C452 C451 1.291 . S
C452 C453 1.373 . S
C452 H465 0.929 . S
C453 C452 1.373 . S
C453 C454 1.396 . S
C453 C460 1.403 . S
C454 C444 1.476 . S
C454 N449 1.318 . S
C454 C453 1.396 . S
H455 C450 0.929 . S
O456 Mn432 2.385 . S
O456 C434 1.234 . S
O457 Mn432 2.209 . S
O457 Mn433 2.215 . S
O457 C434 1.283 . S
O458 Mn432 2.094 . S
O458 C436 1.240 . S
O459 Mn433 2.117 . S
O459 C436 1.264 . S
C460 C453 1.403 . S
C460 C461 1.399 . S
C460 H466 0.929 . S
C461 C441 1.449 . S
C461 C460 1.399 . S
C461 H467 0.930 . S
H462 C442 0.931 . S
H463 C443 0.930 . S
H464 C451 0.931 . S
H465 C452 0.929 . S
H466 C460 0.929 . S
H467 C461 0.930 . S
Mn468 O473 2.095 . S
Mn468 O483 2.162 . S
Mn468 O484 2.297 . S
Mn468 O492 2.385 . S
Mn468 O493 2.209 . S
Mn468 O494 2.094 . S
Mn469 O474 2.121 . S
Mn469 N476 2.257 . S
Mn469 N485 2.282 . S
Mn469 O493 2.215 . S
Mn469 O495 2.117 . S
C470 O492 1.234 . S
C470 O493 1.283 . S
C471 O483 1.281 . S
C471 O484 1.236 . S
C472 O494 1.240 . S
C472 O495 1.264 . S
O473 Mn468 2.095 . S
O473 C482 1.250 . S
O474 Mn469 2.121 . S
O474 C482 1.258 . S
C475 N476 1.326 . S
C475 C479 1.460 1_655 S
C475 H481 0.929 1_655 S
N476 Mn469 2.257 . S
N476 C475 1.326 . S
N476 C480 1.362 . S
C477 C478 1.258 . S
C477 C480 1.431 . S
C477 C497 1.449 . S
C478 C477 1.258 . S
C478 C479 1.477 1_655 S
C478 H498 0.931 . S
C479 C475 1.460 1_455 S
C479 C478 1.477 1_455 S
C479 H499 0.930 . S
C480 N476 1.362 . S
C480 C477 1.431 . S
C480 C490 1.476 . S
H481 C475 0.929 1_455 S
C482 O473 1.250 . S
C482 O474 1.258 . S
O483 Mn468 2.162 . S
O483 C471 1.281 . S
O484 Mn468 2.297 . S
O484 C471 1.236 . S
N485 Mn469 2.282 . S
N485 C486 1.328 . S
N485 C490 1.318 . S
C486 N485 1.328 . S
C486 C487 1.457 . S
C486 H491 0.929 . S
C487 C486 1.457 . S
C487 C488 1.291 . S
C487 H500 0.931 . S
C488 C487 1.291 . S
C488 C489 1.373 . S
C488 H501 0.929 . S
C489 C488 1.373 . S
C489 C490 1.396 . S
C489 C496 1.403 . S
C490 C480 1.476 . S
C490 N485 1.318 . S
C490 C489 1.396 . S
H491 C486 0.929 . S
O492 Mn468 2.385 . S
O492 C470 1.234 . S
O493 Mn468 2.209 . S
O493 Mn469 2.215 . S
O493 C470 1.283 . S
O494 Mn468 2.094 . S
O494 C472 1.240 . S
O495 Mn469 2.117 . S
O495 C472 1.264 . S
C496 C489 1.403 . S
C496 C497 1.399 . S
C496 H502 0.929 . S
C497 C477 1.449 . S
C497 C496 1.399 . S
C497 H503 0.930 . S
H498 C478 0.931 . S
H499 C479 0.930 . S
H500 C487 0.931 . S
H501 C488 0.929 . S
H502 C496 0.929 . S
H503 C497 0.930 . S
Mn504 O509 2.095 . S
Mn504 O519 2.162 . S
Mn504 O520 2.297 . S
Mn504 O528 2.385 . S
Mn504 O529 2.209 . S
Mn504 O530 2.094 . S
Mn505 O510 2.121 . S
Mn505 N512 2.257 . S
Mn505 N521 2.282 . S
Mn505 O529 2.215 . S
Mn505 O531 2.117 . S
C506 O528 1.234 . S
C506 O529 1.283 . S
C507 O519 1.281 . S
C507 O520 1.236 . S
C508 O530 1.240 . S
C508 O531 1.264 . S
O509 Mn504 2.095 . S
O509 C518 1.250 . S
O510 Mn505 2.121 . S
O510 C518 1.258 . S
C511 N512 1.326 . S
C511 C515 1.460 . S
C511 H517 0.929 . S
N512 Mn505 2.257 . S
N512 C511 1.326 . S
N512 C516 1.362 . S
C513 C514 1.258 . S
C513 C516 1.431 . S
C513 C533 1.449 . S
C514 C513 1.258 . S
C514 C515 1.477 . S
C514 H534 0.931 . S
C515 C511 1.460 . S
C515 C514 1.477 . S
C515 H535 0.930 . S
C516 N512 1.362 . S
C516 C513 1.431 . S
C516 C526 1.476 . S
H517 C511 0.929 . S
C518 O509 1.250 . S
C518 O510 1.258 . S
O519 Mn504 2.162 . S
O519 C507 1.281 . S
O520 Mn504 2.297 . S
O520 C507 1.236 . S
N521 Mn505 2.282 . S
N521 C522 1.328 . S
N521 C526 1.318 . S
C522 N521 1.328 . S
C522 C523 1.457 . S
C522 H527 0.929 . S
C523 C522 1.457 . S
C523 C524 1.291 . S
C523 H536 0.931 . S
C524 C523 1.291 . S
C524 C525 1.373 . S
C524 H537 0.929 . S
C525 C524 1.373 . S
C525 C526 1.396 . S
C525 C532 1.403 . S
C526 C516 1.476 . S
C526 N521 1.318 . S
C526 C525 1.396 . S
H527 C522 0.929 . S
O528 Mn504 2.385 . S
O528 C506 1.234 . S
O529 Mn504 2.209 . S
O529 Mn505 2.215 . S
O529 C506 1.283 . S
O530 Mn504 2.094 . S
O530 C508 1.240 . S
O531 Mn505 2.117 . S
O531 C508 1.264 . S
C532 C525 1.403 . S
C532 C533 1.399 . S
C532 H538 0.929 . S
C533 C513 1.449 . S
C533 C532 1.399 . S
C533 H539 0.930 . S
H534 C514 0.931 . S
H535 C515 0.930 . S
H536 C523 0.931 . S
H537 C524 0.929 . S
H538 C532 0.929 . S
H539 C533 0.930 . S
Mn540 O545 2.095 . S
Mn540 O555 2.162 . S
Mn540 O556 2.297 . S
Mn540 O564 2.385 . S
Mn540 O565 2.209 . S
Mn540 O566 2.094 . S
Mn541 O546 2.121 . S
Mn541 N548 2.257 . S
Mn541 N557 2.282 . S
Mn541 O565 2.215 . S
Mn541 O567 2.117 . S
C542 O564 1.234 . S
C542 O565 1.283 . S
C543 O555 1.281 . S
C543 O556 1.236 . S
C544 O566 1.240 . S
C544 O567 1.264 . S
O545 Mn540 2.095 . S
O545 C554 1.250 . S
O546 Mn541 2.121 . S
O546 C554 1.258 . S
C547 N548 1.326 . S
C547 C551 1.460 . S
C547 H553 0.929 . S
N548 Mn541 2.257 . S
N548 C547 1.326 . S
N548 C552 1.362 . S
C549 C550 1.258 . S
C549 C552 1.431 . S
C549 C569 1.449 . S
C550 C549 1.258 . S
C550 C551 1.477 . S
C550 H570 0.931 . S
C551 C547 1.460 . S
C551 C550 1.477 . S
C551 H571 0.930 . S
C552 N548 1.362 . S
C552 C549 1.431 . S
C552 C562 1.476 . S
H553 C547 0.929 . S
C554 O545 1.250 . S
C554 O546 1.258 . S
O555 Mn540 2.162 . S
O555 C543 1.281 . S
O556 Mn540 2.297 . S
O556 C543 1.236 . S
N557 Mn541 2.282 . S
N557 C558 1.328 . S
N557 C562 1.318 . S
C558 N557 1.328 . S
C558 C559 1.457 . S
C558 H563 0.929 . S
C559 C558 1.457 . S
C559 C560 1.291 . S
C559 H572 0.931 . S
C560 C559 1.291 . S
C560 C561 1.373 . S
C560 H573 0.929 . S
C561 C560 1.373 . S
C561 C562 1.396 . S
C561 C568 1.403 . S
C562 C552 1.476 . S
C562 N557 1.318 . S
C562 C561 1.396 . S
H563 C558 0.929 . S
O564 Mn540 2.385 . S
O564 C542 1.234 . S
O565 Mn540 2.209 . S
O565 Mn541 2.215 . S
O565 C542 1.283 . S
O566 Mn540 2.094 . S
O566 C544 1.240 . S
O567 Mn541 2.117 . S
O567 C544 1.264 . S
C568 C561 1.403 . S
C568 C569 1.399 . S
C568 H574 0.929 . S
C569 C549 1.449 . S
C569 C568 1.399 . S
C569 H575 0.930 . S
H570 C550 0.931 . S
H571 C551 0.930 . S
H572 C559 0.931 . S
H573 C560 0.929 . S
H574 C568 0.929 . S
H575 C569 0.930 . S
Mn576 O581 2.095 . S
Mn576 O591 2.162 . S
Mn576 O592 2.297 . S
Mn576 O600 2.385 . S
Mn576 O601 2.209 . S
Mn576 O602 2.094 . S
Mn577 O582 2.121 . S
Mn577 N584 2.257 . S
Mn577 N593 2.282 . S
Mn577 O601 2.215 . S
Mn577 O603 2.117 . S
C578 O600 1.234 . S
C578 O601 1.283 . S
C579 O591 1.281 . S
C579 O592 1.236 . S
C580 O602 1.240 . S
C580 O603 1.264 . S
O581 Mn576 2.095 . S
O581 C590 1.250 . S
O582 Mn577 2.121 . S
O582 C590 1.258 . S
C583 N584 1.326 . S
C583 C587 1.460 1_545 S
C583 H589 0.929 1_545 S
N584 Mn577 2.257 . S
N584 C583 1.326 . S
N584 C588 1.362 . S
C585 C586 1.258 . S
C585 C588 1.431 . S
C585 C605 1.449 . S
C586 C585 1.258 . S
C586 C587 1.477 1_545 S
C586 H606 0.931 . S
C587 C583 1.460 1_565 S
C587 C586 1.477 1_565 S
C587 H607 0.930 . S
C588 N584 1.362 . S
C588 C585 1.431 . S
C588 C598 1.476 . S
H589 C583 0.929 1_565 S
C590 O581 1.250 . S
C590 O582 1.258 . S
O591 Mn576 2.162 . S
O591 C579 1.281 . S
O592 Mn576 2.297 . S
O592 C579 1.236 . S
N593 Mn577 2.282 . S
N593 C594 1.328 . S
N593 C598 1.318 . S
C594 N593 1.328 . S
C594 C595 1.457 . S
C594 H599 0.929 . S
C595 C594 1.457 . S
C595 C596 1.291 . S
C595 H608 0.931 . S
C596 C595 1.291 . S
C596 C597 1.373 . S
C596 H609 0.929 . S
C597 C596 1.373 . S
C597 C598 1.396 . S
C597 C604 1.403 . S
C598 C588 1.476 . S
C598 N593 1.318 . S
C598 C597 1.396 . S
H599 C594 0.929 . S
O600 Mn576 2.385 . S
O600 C578 1.234 . S
O601 Mn576 2.209 . S
O601 Mn577 2.215 . S
O601 C578 1.283 . S
O602 Mn576 2.094 . S
O602 C580 1.240 . S
O603 Mn577 2.117 . S
O603 C580 1.264 . S
C604 C597 1.403 . S
C604 C605 1.399 . S
C604 H610 0.929 . S
C605 C585 1.449 . S
C605 C604 1.399 . S
C605 H611 0.930 . S
H606 C586 0.931 . S
H607 C587 0.930 . S
H608 C595 0.931 . S
H609 C596 0.929 . S
H610 C604 0.929 . S
H611 C605 0.930 . S
Mn612 O617 2.095 . S
Mn612 O627 2.162 . S
Mn612 O628 2.297 . S
Mn612 O636 2.385 . S
Mn612 O637 2.209 . S
Mn612 O638 2.094 . S
Mn613 O618 2.121 . S
Mn613 N620 2.257 . S
Mn613 N629 2.282 . S
Mn613 O637 2.215 . S
Mn613 O639 2.117 . S
C614 O636 1.234 . S
C614 O637 1.283 . S
C615 O627 1.281 . S
C615 O628 1.236 . S
C616 O638 1.240 . S
C616 O639 1.264 . S
O617 Mn612 2.095 . S
O617 C626 1.250 . S
O618 Mn613 2.121 . S
O618 C626 1.258 . S
C619 N620 1.326 . S
C619 C623 1.460 . S
C619 H625 0.929 . S
N620 Mn613 2.257 . S
N620 C619 1.326 . S
N620 C624 1.362 . S
C621 C622 1.258 . S
C621 C624 1.431 . S
C621 C641 1.449 . S
C622 C621 1.258 . S
C622 C623 1.477 . S
C622 H642 0.931 . S
C623 C619 1.460 . S
C623 C622 1.477 . S
C623 H643 0.930 . S
C624 N620 1.362 . S
C624 C621 1.431 . S
C624 C634 1.476 . S
H625 C619 0.929 . S
C626 O617 1.250 . S
C626 O618 1.258 . S
O627 Mn612 2.162 . S
O627 C615 1.281 . S
O628 Mn612 2.297 . S
O628 C615 1.236 . S
N629 Mn613 2.282 . S
N629 C630 1.328 . S
N629 C634 1.318 . S
C630 N629 1.328 . S
C630 C631 1.457 . S
C630 H635 0.929 . S
C631 C630 1.457 . S
C631 C632 1.291 . S
C631 H644 0.931 . S
C632 C631 1.291 . S
C632 C633 1.373 . S
C632 H645 0.929 . S
C633 C632 1.373 . S
C633 C634 1.396 . S
C633 C640 1.403 . S
C634 C624 1.476 . S
C634 N629 1.318 . S
C634 C633 1.396 . S
H635 C630 0.929 . S
O636 Mn612 2.385 . S
O636 C614 1.234 . S
O637 Mn612 2.209 . S
O637 Mn613 2.215 . S
O637 C614 1.283 . S
O638 Mn612 2.094 . S
O638 C616 1.240 . S
O639 Mn613 2.117 . S
O639 C616 1.264 . S
C640 C633 1.403 . S
C640 C641 1.399 . S
C640 H646 0.929 . S
C641 C621 1.449 . S
C641 C640 1.399 . S
C641 H647 0.930 . S
H642 C622 0.931 . S
H643 C623 0.930 . S
H644 C631 0.931 . S
H645 C632 0.929 . S
H646 C640 0.929 . S
H647 C641 0.930 . S
H648 O674 0.856 1_556 S
H649 O677 0.854 . S
H650 C685 0.930 . S
H651 C686 0.930 . S
H652 C688 0.930 . S
H653 C689 0.930 . S
H654 C691 0.931 . S
H655 C692 0.930 . S
H656 C694 0.930 . S
H657 C695 0.929 . S
H658 C697 0.930 . S
H659 C698 0.931 . S
H660 C700 0.930 . S
H661 C701 0.929 . S
H662 C703 0.931 . S
H663 C704 0.930 . S
H664 C706 0.930 . S
H665 C707 0.932 . S
H666 C709 0.930 . S
H667 C710 0.929 . S
H668 C712 0.931 . S
H669 C713 0.930 . S
H670 C715 0.929 . S
H671 C716 0.931 . S
H672 C718 0.930 . S
H673 C719 0.929 . S
O674 H648 0.856 1_554 S
O674 C720 1.300 . S
O675 C720 1.209 . S
O676 C721 1.199 . S
O677 H649 0.854 . S
O677 C721 1.297 . S
C678 C679 1.404 . S
C678 C683 1.397 . S
C678 C684 1.492 . S
C679 C678 1.404 . S
C679 C680 1.396 . S
C679 C690 1.492 . S
C680 C679 1.396 . S
C680 C681 1.397 . S
C680 C696 1.509 . S
C681 C680 1.397 . S
C681 C682 1.412 . S
C681 C702 1.485 . S
C682 C681 1.412 . S
C682 C683 1.388 . S
C682 C708 1.490 . S
C683 C678 1.397 . S
C683 C682 1.388 . S
C683 C714 1.519 . S
C684 C678 1.492 . S
C684 C685 1.363 . S
C684 C689 1.390 . S
C685 H650 0.930 . S
C685 C684 1.363 . S
C685 C686 1.372 . S
C686 H651 0.930 . S
C686 C685 1.372 . S
C686 C687 1.383 . S
C687 C686 1.383 . S
C687 C688 1.395 . S
C688 H652 0.930 . S
C688 C687 1.395 . S
C688 C689 1.362 . S
C689 H653 0.930 . S
C689 C684 1.390 . S
C689 C688 1.362 . S
C690 C679 1.492 . S
C690 C691 1.377 . S
C690 C695 1.397 . S
C691 H654 0.931 . S
C691 C690 1.377 . S
C691 C692 1.376 . S
C692 H655 0.930 . S
C692 C691 1.376 . S
C692 C693 1.376 . S
C693 C692 1.376 . S
C693 C694 1.378 . S
C693 C720 1.486 . S
C694 H656 0.930 . S
C694 C693 1.378 . S
C694 C695 1.376 . S
C695 H657 0.929 . S
C695 C690 1.397 . S
C695 C694 1.376 . S
C696 C680 1.509 . S
C696 C697 1.391 . S
C696 C701 1.386 . S
C697 H658 0.930 . S
C697 C696 1.391 . S
C697 C698 1.375 . S
C698 H659 0.931 . S
C698 C697 1.375 . S
C698 C699 1.375 . S
C699 C698 1.375 . S
C699 C700 1.361 . S
C700 H660 0.930 . S
C700 C699 1.361 . S
C700 C701 1.399 . S
C701 H661 0.929 . S
C701 C696 1.386 . S
C701 C700 1.399 . S
C702 C681 1.485 . S
C702 C703 1.394 . S
C702 C707 1.360 . S
C703 H662 0.931 . S
C703 C702 1.394 . S
C703 C704 1.372 . S
C704 H663 0.930 . S
C704 C703 1.372 . S
C704 C705 1.397 . S
C705 C704 1.397 . S
C705 C706 1.390 . S
C705 C721 1.476 . S
C706 H664 0.930 . S
C706 C705 1.390 . S
C706 C707 1.366 . S
C707 H665 0.932 . S
C707 C702 1.360 . S
C707 C706 1.366 . S
C708 C682 1.490 . S
C708 C709 1.380 . S
C708 C713 1.386 . S
C709 H666 0.930 . S
C709 C708 1.380 . S
C709 C710 1.381 . S
C710 H667 0.929 . S
C710 C709 1.381 . S
C710 C711 1.371 . S
C711 C710 1.371 . S
C711 C712 1.380 . S
C712 H668 0.931 . S
C712 C711 1.380 . S
C712 C713 1.387 . S
C713 H669 0.930 . S
C713 C708 1.386 . S
C713 C712 1.387 . S
C714 C683 1.519 . S
C714 C715 1.377 . S
C714 C719 1.361 . S
C715 H670 0.929 . S
C715 C714 1.377 . S
C715 C716 1.386 . S
C716 H671 0.931 . S
C716 C715 1.386 . S
C716 C717 1.363 . S
C717 C716 1.363 . S
C717 C718 1.385 . S
C718 H672 0.930 . S
C718 C717 1.385 . S
C718 C719 1.396 . S
C719 H673 0.929 . S
C719 C714 1.361 . S
C719 C718 1.396 . S
C720 O674 1.300 . S
C720 O675 1.209 . S
C720 C693 1.486 . S
C721 O676 1.199 . S
C721 O677 1.297 . S
C721 C705 1.476 . S
H722 O748 0.856 . S
H723 O751 0.854 . S
H724 C759 0.930 . S
H725 C760 0.930 . S
H726 C762 0.930 . S
H727 C763 0.930 . S
H728 C765 0.931 . S
H729 C766 0.930 . S
H730 C768 0.930 . S
H731 C769 0.929 . S
H732 C771 0.930 . S
H733 C772 0.931 . S
H734 C774 0.930 . S
H735 C775 0.929 . S
H736 C777 0.931 . S
H737 C778 0.930 . S
H738 C780 0.930 . S
H739 C781 0.932 . S
H740 C783 0.930 . S
H741 C784 0.929 . S
H742 C786 0.931 . S
H743 C787 0.930 . S
H744 C789 0.929 . S
H745 C790 0.931 . S
H746 C792 0.930 . S
H747 C793 0.929 . S
O748 H722 0.856 . S
O748 C794 1.300 . S
O749 C794 1.209 . S
O750 C795 1.199 . S
O751 H723 0.854 . S
O751 C795 1.297 1_545 S
C752 C753 1.404 . S
C752 C757 1.397 . S
C752 C758 1.492 . S
C753 C752 1.404 . S
C753 C754 1.396 . S
C753 C764 1.492 . S
C754 C753 1.396 . S
C754 C755 1.397 . S
C754 C770 1.509 . S
C755 C754 1.397 . S
C755 C756 1.412 . S
C755 C776 1.485 . S
C756 C755 1.412 . S
C756 C757 1.388 . S
C756 C782 1.490 . S
C757 C752 1.397 . S
C757 C756 1.388 . S
C757 C788 1.519 . S
C758 C752 1.492 . S
C758 C759 1.363 . S
C758 C763 1.390 . S
C759 H724 0.930 . S
C759 C758 1.363 . S
C759 C760 1.372 . S
C760 H725 0.930 . S
C760 C759 1.372 . S
C760 C761 1.383 . S
C761 C760 1.383 . S
C761 C762 1.395 . S
C762 H726 0.930 . S
C762 C761 1.395 . S
C762 C763 1.362 . S
C763 H727 0.930 . S
C763 C758 1.390 . S
C763 C762 1.362 . S
C764 C753 1.492 . S
C764 C765 1.377 . S
C764 C769 1.397 . S
C765 H728 0.931 . S
C765 C764 1.377 . S
C765 C766 1.376 . S
C766 H729 0.930 . S
C766 C765 1.376 . S
C766 C767 1.376 . S
C767 C766 1.376 . S
C767 C768 1.378 . S
C767 C794 1.486 . S
C768 H730 0.930 . S
C768 C767 1.378 . S
C768 C769 1.376 . S
C769 H731 0.929 . S
C769 C764 1.397 . S
C769 C768 1.376 . S
C770 C754 1.509 . S
C770 C771 1.391 . S
C770 C775 1.386 . S
C771 H732 0.930 . S
C771 C770 1.391 . S
C771 C772 1.375 . S
C772 H733 0.931 . S
C772 C771 1.375 . S
C772 C773 1.375 . S
C773 C772 1.375 . S
C773 C774 1.361 . S
C774 H734 0.930 . S
C774 C773 1.361 . S
C774 C775 1.399 . S
C775 H735 0.929 . S
C775 C770 1.386 . S
C775 C774 1.399 . S
C776 C755 1.485 . S
C776 C777 1.394 . S
C776 C781 1.360 . S
C777 H736 0.931 . S
C777 C776 1.394 . S
C777 C778 1.372 . S
C778 H737 0.930 . S
C778 C777 1.372 . S
C778 C779 1.397 . S
C779 C778 1.397 . S
C779 C780 1.390 . S
C779 C795 1.476 . S
C780 H738 0.930 . S
C780 C779 1.390 . S
C780 C781 1.366 . S
C781 H739 0.932 . S
C781 C776 1.360 . S
C781 C780 1.366 . S
C782 C756 1.490 . S
C782 C783 1.380 . S
C782 C787 1.386 . S
C783 H740 0.930 . S
C783 C782 1.380 . S
C783 C784 1.381 . S
C784 H741 0.929 . S
C784 C783 1.381 . S
C784 C785 1.371 . S
C785 C784 1.371 . S
C785 C786 1.380 . S
C786 H742 0.931 . S
C786 C785 1.380 . S
C786 C787 1.387 . S
C787 H743 0.930 . S
C787 C782 1.386 . S
C787 C786 1.387 . S
C788 C757 1.519 . S
C788 C789 1.377 . S
C788 C793 1.361 . S
C789 H744 0.929 . S
C789 C788 1.377 . S
C789 C790 1.386 . S
C790 H745 0.931 . S
C790 C789 1.386 . S
C790 C791 1.363 . S
C791 C790 1.363 . S
C791 C792 1.385 . S
C792 H746 0.930 . S
C792 C791 1.385 . S
C792 C793 1.396 . S
C793 H747 0.929 . S
C793 C788 1.361 . S
C793 C792 1.396 . S
C794 O748 1.300 . S
C794 O749 1.209 . S
C794 C767 1.486 . S
C795 O750 1.199 . S
C795 O751 1.297 1_565 S
C795 C779 1.476 . S
H796 O822 0.856 . S
H797 O825 0.854 . S
H798 C833 0.930 . S
H799 C834 0.930 . S
H800 C836 0.930 . S
H801 C837 0.930 . S
H802 C839 0.931 . S
H803 C840 0.930 . S
H804 C842 0.930 . S
H805 C843 0.929 . S
H806 C845 0.930 . S
H807 C846 0.931 . S
H808 C848 0.930 . S
H809 C849 0.929 . S
H810 C851 0.931 . S
H811 C852 0.930 . S
H812 C854 0.930 . S
H813 C855 0.932 . S
H814 C857 0.930 . S
H815 C858 0.929 . S
H816 C860 0.931 . S
H817 C861 0.930 . S
H818 C863 0.929 . S
H819 C864 0.931 . S
H820 C866 0.930 . S
H821 C867 0.929 . S
O822 H796 0.856 . S
O822 C868 1.300 . S
O823 C868 1.209 . S
O824 C869 1.199 1_545 S
O825 H797 0.854 . S
O825 C869 1.297 . S
C826 C827 1.404 . S
C826 C831 1.397 . S
C826 C832 1.492 . S
C827 C826 1.404 . S
C827 C828 1.396 . S
C827 C838 1.492 . S
C828 C827 1.396 . S
C828 C829 1.397 . S
C828 C844 1.509 . S
C829 C828 1.397 . S
C829 C830 1.412 . S
C829 C850 1.485 . S
C830 C829 1.412 . S
C830 C831 1.388 . S
C830 C856 1.490 . S
C831 C826 1.397 . S
C831 C830 1.388 . S
C831 C862 1.519 . S
C832 C826 1.492 . S
C832 C833 1.363 . S
C832 C837 1.390 . S
C833 H798 0.930 . S
C833 C832 1.363 . S
C833 C834 1.372 . S
C834 H799 0.930 . S
C834 C833 1.372 . S
C834 C835 1.383 . S
C835 C834 1.383 . S
C835 C836 1.395 . S
C836 H800 0.930 . S
C836 C835 1.395 . S
C836 C837 1.362 . S
C837 H801 0.930 . S
C837 C832 1.390 . S
C837 C836 1.362 . S
C838 C827 1.492 . S
C838 C839 1.377 . S
C838 C843 1.397 . S
C839 H802 0.931 . S
C839 C838 1.377 . S
C839 C840 1.376 . S
C840 H803 0.930 . S
C840 C839 1.376 . S
C840 C841 1.376 . S
C841 C840 1.376 . S
C841 C842 1.378 . S
C841 C868 1.486 . S
C842 H804 0.930 . S
C842 C841 1.378 . S
C842 C843 1.376 . S
C843 H805 0.929 . S
C843 C838 1.397 . S
C843 C842 1.376 . S
C844 C828 1.509 . S
C844 C845 1.391 . S
C844 C849 1.386 . S
C845 H806 0.930 . S
C845 C844 1.391 . S
C845 C846 1.375 . S
C846 H807 0.931 . S
C846 C845 1.375 . S
C846 C847 1.375 . S
C847 C846 1.375 . S
C847 C848 1.361 . S
C848 H808 0.930 . S
C848 C847 1.361 . S
C848 C849 1.399 . S
C849 H809 0.929 . S
C849 C844 1.386 . S
C849 C848 1.399 . S
C850 C829 1.485 . S
C850 C851 1.394 . S
C850 C855 1.360 . S
C851 H810 0.931 . S
C851 C850 1.394 . S
C851 C852 1.372 . S
C852 H811 0.930 . S
C852 C851 1.372 . S
C852 C853 1.397 . S
C853 C852 1.397 . S
C853 C854 1.390 . S
C853 C869 1.476 . S
C854 H812 0.930 . S
C854 C853 1.390 . S
C854 C855 1.366 . S
C855 H813 0.932 . S
C855 C850 1.360 . S
C855 C854 1.366 . S
C856 C830 1.490 . S
C856 C857 1.380 . S
C856 C861 1.386 . S
C857 H814 0.930 . S
C857 C856 1.380 . S
C857 C858 1.381 . S
C858 H815 0.929 . S
C858 C857 1.381 . S
C858 C859 1.371 . S
C859 C858 1.371 . S
C859 C860 1.380 . S
C860 H816 0.931 . S
C860 C859 1.380 . S
C860 C861 1.387 . S
C861 H817 0.930 . S
C861 C856 1.386 . S
C861 C860 1.387 . S
C862 C831 1.519 . S
C862 C863 1.377 . S
C862 C867 1.361 . S
C863 H818 0.929 . S
C863 C862 1.377 . S
C863 C864 1.386 . S
C864 H819 0.931 . S
C864 C863 1.386 . S
C864 C865 1.363 . S
C865 C864 1.363 . S
C865 C866 1.385 . S
C866 H820 0.930 . S
C866 C865 1.385 . S
C866 C867 1.396 . S
C867 H821 0.929 . S
C867 C862 1.361 . S
C867 C866 1.396 . S
C868 O822 1.300 . S
C868 O823 1.209 . S
C868 C841 1.486 . S
C869 O824 1.199 1_565 S
C869 O825 1.297 . S
C869 C853 1.476 . S
H870 O896 0.856 . S
H871 O899 0.854 . S
H872 C907 0.930 . S
H873 C908 0.930 . S
H874 C910 0.930 . S
H875 C911 0.930 . S
H876 C913 0.931 . S
H877 C914 0.930 . S
H878 C916 0.930 . S
H879 C917 0.929 . S
H880 C919 0.930 . S
H881 C920 0.931 . S
H882 C922 0.930 . S
H883 C923 0.929 . S
H884 C925 0.931 . S
H885 C926 0.930 . S
H886 C928 0.930 . S
H887 C929 0.932 . S
H888 C931 0.930 . S
H889 C932 0.929 . S
H890 C934 0.931 . S
H891 C935 0.930 . S
H892 C937 0.929 . S
H893 C938 0.931 . S
H894 C940 0.930 . S
H895 C941 0.929 . S
O896 H870 0.856 . S
O896 C942 1.300 . S
O897 C942 1.209 . S
O898 C943 1.199 . S
O899 H871 0.854 . S
O899 C943 1.297 . S
C900 C901 1.404 . S
C900 C905 1.397 . S
C900 C906 1.492 . S
C901 C900 1.404 . S
C901 C902 1.396 . S
C901 C912 1.492 . S
C902 C901 1.396 . S
C902 C903 1.397 . S
C902 C918 1.509 . S
C903 C902 1.397 . S
C903 C904 1.412 . S
C903 C924 1.485 . S
C904 C903 1.412 . S
C904 C905 1.388 . S
C904 C930 1.490 . S
C905 C900 1.397 . S
C905 C904 1.388 . S
C905 C936 1.519 . S
C906 C900 1.492 . S
C906 C907 1.363 . S
C906 C911 1.390 . S
C907 H872 0.930 . S
C907 C906 1.363 . S
C907 C908 1.372 . S
C908 H873 0.930 . S
C908 C907 1.372 . S
C908 C909 1.383 . S
C909 C908 1.383 . S
C909 C910 1.395 . S
C910 H874 0.930 . S
C910 C909 1.395 . S
C910 C911 1.362 . S
C911 H875 0.930 . S
C911 C906 1.390 . S
C911 C910 1.362 . S
C912 C901 1.492 . S
C912 C913 1.377 . S
C912 C917 1.397 . S
C913 H876 0.931 . S
C913 C912 1.377 . S
C913 C914 1.376 1_556 S
C914 H877 0.930 . S
C914 C913 1.376 1_554 S
C914 C915 1.376 . S
C915 C914 1.376 . S
C915 C916 1.378 1_554 S
C915 C942 1.486 . S
C916 H878 0.930 . S
C916 C915 1.378 1_556 S
C916 C917 1.376 . S
C917 H879 0.929 . S
C917 C912 1.397 . S
C917 C916 1.376 . S
C918 C902 1.509 . S
C918 C919 1.391 . S
C918 C923 1.386 . S
C919 H880 0.930 . S
C919 C918 1.391 . S
C919 C920 1.375 . S
C920 H881 0.931 . S
C920 C919 1.375 . S
C920 C921 1.375 . S
C921 C920 1.375 . S
C921 C922 1.361 . S
C922 H882 0.930 . S
C922 C921 1.361 . S
C922 C923 1.399 . S
C923 H883 0.929 . S
C923 C918 1.386 . S
C923 C922 1.399 . S
C924 C903 1.485 . S
C924 C925 1.394 . S
C924 C929 1.360 . S
C925 H884 0.931 . S
C925 C924 1.394 . S
C925 C926 1.372 . S
C926 H885 0.930 . S
C926 C925 1.372 . S
C926 C927 1.397 . S
C927 C926 1.397 . S
C927 C928 1.390 . S
C927 C943 1.476 . S
C928 H886 0.930 . S
C928 C927 1.390 . S
C928 C929 1.366 . S
C929 H887 0.932 . S
C929 C924 1.360 . S
C929 C928 1.366 . S
C930 C904 1.490 . S
C930 C931 1.380 . S
C930 C935 1.386 . S
C931 H888 0.930 . S
C931 C930 1.380 . S
C931 C932 1.381 . S
C932 H889 0.929 . S
C932 C931 1.381 . S
C932 C933 1.371 . S
C933 C932 1.371 . S
C933 C934 1.380 . S
C934 H890 0.931 . S
C934 C933 1.380 . S
C934 C935 1.387 . S
C935 H891 0.930 . S
C935 C930 1.386 . S
C935 C934 1.387 . S
C936 C905 1.519 . S
C936 C937 1.377 . S
C936 C941 1.361 . S
C937 H892 0.929 . S
C937 C936 1.377 . S
C937 C938 1.386 . S
C938 H893 0.931 . S
C938 C937 1.386 . S
C938 C939 1.363 . S
C939 C938 1.363 . S
C939 C940 1.385 . S
C940 H894 0.930 . S
C940 C939 1.385 . S
C940 C941 1.396 . S
C941 H895 0.929 . S
C941 C936 1.361 . S
C941 C940 1.396 . S
C942 O896 1.300 . S
C942 O897 1.209 . S
C942 C915 1.486 . S
C943 O898 1.199 . S
C943 O899 1.297 . S
C943 C927 1.476 . S
H944 O970 0.856 . S
H945 O973 0.854 . S
H946 C981 0.930 . S
H947 C982 0.930 . S
H948 C984 0.930 . S
H949 C985 0.930 . S
H950 C987 0.931 . S
H951 C988 0.921 1_554 S
H952 C990 0.930 1_554 S
H953 C991 0.929 . S
H954 C993 0.930 . S
H955 C994 0.931 . S
H956 C996 0.930 . S
H957 C997 0.929 . S
H958 C999 0.931 . S
H959 C1000 0.930 . S
H960 C1002 0.930 . S
H961 C1003 0.932 . S
H962 C1005 0.930 . S
H963 C1006 0.929 . S
H964 C1008 0.931 . S
H965 C1009 0.930 . S
H966 C1011 0.929 . S
H967 C1012 0.931 . S
H968 C1014 0.930 . S
H969 C1015 0.929 . S
O970 H944 0.856 . S
O970 C1016 1.300 . S
O971 C1016 1.209 . S
O972 C1017 1.199 . S
O973 H945 0.854 . S
O973 C1017 1.297 1_565 S
C974 C975 1.404 . S
C974 C979 1.397 . S
C974 C980 1.492 . S
C975 C974 1.404 . S
C975 C976 1.396 . S
C975 C986 1.492 . S
C976 C975 1.396 . S
C976 C977 1.397 . S
C976 C992 1.509 . S
C977 C976 1.397 . S
C977 C978 1.412 . S
C977 C998 1.485 . S
C978 C977 1.412 . S
C978 C979 1.388 . S
C978 C1004 1.490 . S
C979 C974 1.397 . S
C979 C978 1.388 . S
C979 C1010 1.519 . S
C980 C974 1.492 . S
C980 C981 1.363 . S
C980 C985 1.390 . S
C981 H946 0.930 . S
C981 C980 1.363 . S
C981 C982 1.372 . S
C982 H947 0.930 . S
C982 C981 1.372 . S
C982 C983 1.383 . S
C983 C982 1.383 . S
C983 C984 1.395 . S
C984 H948 0.930 . S
C984 C983 1.395 . S
C984 C985 1.362 . S
C985 H949 0.930 . S
C985 C980 1.390 . S
C985 C984 1.362 . S
C986 C975 1.492 . S
C986 C987 1.377 . S
C986 C991 1.397 . S
C987 H950 0.931 . S
C987 C986 1.377 . S
C987 C988 1.391 . S
C988 H951 0.921 1_556 S
C988 C987 1.391 . S
C988 C989 1.370 1_556 S
C989 C988 1.370 1_554 S
C989 C990 1.378 1_554 S
C989 C1016 1.486 . S
C990 H952 0.930 1_556 S
C990 C989 1.378 1_556 S
C990 C991 1.376 . S
C991 H953 0.929 . S
C991 C986 1.397 . S
C991 C990 1.376 . S
C992 C976 1.509 . S
C992 C993 1.391 . S
C992 C997 1.386 . S
C993 H954 0.930 . S
C993 C992 1.391 . S
C993 C994 1.375 . S
C994 H955 0.931 . S
C994 C993 1.375 . S
C994 C995 1.375 . S
C995 C994 1.375 . S
C995 C996 1.361 . S
C996 H956 0.930 . S
C996 C995 1.361 . S
C996 C997 1.399 . S
C997 H957 0.929 . S
C997 C992 1.386 . S
C997 C996 1.399 . S
C998 C977 1.485 . S
C998 C999 1.394 . S
C998 C1003 1.360 . S
C999 H958 0.931 . S
C999 C998 1.394 . S
C999 C1000 1.372 . S
C1000 H959 0.930 . S
C1000 C999 1.372 . S
C1000 C1001 1.397 . S
C1001 C1000 1.397 . S
C1001 C1002 1.390 . S
C1001 C1017 1.476 . S
C1002 H960 0.930 . S
C1002 C1001 1.390 . S
C1002 C1003 1.366 . S
C1003 H961 0.932 . S
C1003 C998 1.360 . S
C1003 C1002 1.366 . S
C1004 C978 1.490 . S
C1004 C1005 1.380 . S
C1004 C1009 1.386 . S
C1005 H962 0.930 . S
C1005 C1004 1.380 . S
C1005 C1006 1.381 . S
C1006 H963 0.929 . S
C1006 C1005 1.381 . S
C1006 C1007 1.371 . S
C1007 C1006 1.371 . S
C1007 C1008 1.380 . S
C1008 H964 0.931 . S
C1008 C1007 1.380 . S
C1008 C1009 1.387 . S
C1009 H965 0.930 . S
C1009 C1004 1.386 . S
C1009 C1008 1.387 . S
C1010 C979 1.519 . S
C1010 C1011 1.377 . S
C1010 C1015 1.361 . S
C1011 H966 0.929 . S
C1011 C1010 1.377 . S
C1011 C1012 1.386 . S
C1012 H967 0.931 . S
C1012 C1011 1.386 . S
C1012 C1013 1.363 . S
C1013 C1012 1.363 . S
C1013 C1014 1.385 . S
C1014 H968 0.930 . S
C1014 C1013 1.385 . S
C1014 C1015 1.396 . S
C1015 H969 0.929 . S
C1015 C1010 1.361 . S
C1015 C1014 1.396 . S
C1016 O970 1.300 . S
C1016 O971 1.209 . S
C1016 C989 1.486 . S
C1017 O972 1.199 . S
C1017 O973 1.297 1_545 S
C1017 C1001 1.476 . S
H1018 O1044 0.856 . S
H1019 O1047 0.854 . S
H1020 C1055 0.930 . S
H1021 C1056 0.930 . S
H1022 C1058 0.930 . S
H1023 C1059 0.930 . S
H1024 C1061 0.931 . S
H1025 C1062 0.930 . S
H1026 C1064 0.930 . S
H1027 C1065 0.929 . S
H1028 C1067 0.930 . S
H1029 C1068 0.931 . S
H1030 C1070 0.930 . S
H1031 C1071 0.929 . S
H1032 C1073 0.931 . S
H1033 C1074 0.930 . S
H1034 C1076 0.930 . S
H1035 C1077 0.932 . S
H1036 C1079 0.930 . S
H1037 C1080 0.929 . S
H1038 C1082 0.931 . S
H1039 C1083 0.930 . S
H1040 C1085 0.929 . S
H1041 C1086 0.931 . S
H1042 C1088 0.930 . S
H1043 C1089 0.929 . S
O1044 H1018 0.856 . S
O1044 C1090 1.300 . S
O1045 C1090 1.209 . S
O1046 C1091 1.199 . S
O1047 H1019 0.854 . S
O1047 C1091 1.297 . S
C1048 C1049 1.404 . S
C1048 C1053 1.397 . S
C1048 C1054 1.492 . S
C1049 C1048 1.404 . S
C1049 C1050 1.396 . S
C1049 C1060 1.492 . S
C1050 C1049 1.396 . S
C1050 C1051 1.397 . S
C1050 C1066 1.509 . S
C1051 C1050 1.397 . S
C1051 C1052 1.412 . S
C1051 C1072 1.485 . S
C1052 C1051 1.412 . S
C1052 C1053 1.388 . S
C1052 C1078 1.490 . S
C1053 C1048 1.397 . S
C1053 C1052 1.388 . S
C1053 C1084 1.519 . S
C1054 C1048 1.492 . S
C1054 C1055 1.363 . S
C1054 C1059 1.390 . S
C1055 H1020 0.930 . S
C1055 C1054 1.363 . S
C1055 C1056 1.372 . S
C1056 H1021 0.930 . S
C1056 C1055 1.372 . S
C1056 C1057 1.383 . S
C1057 C1056 1.383 . S
C1057 C1058 1.395 . S
C1058 H1022 0.930 . S
C1058 C1057 1.395 . S
C1058 C1059 1.362 . S
C1059 H1023 0.930 . S
C1059 C1054 1.390 . S
C1059 C1058 1.362 . S
C1060 C1049 1.492 . S
C1060 C1061 1.377 . S
C1060 C1065 1.397 . S
C1061 H1024 0.931 . S
C1061 C1060 1.377 . S
C1061 C1062 1.376 1_556 S
C1062 H1025 0.930 . S
C1062 C1061 1.376 1_554 S
C1062 C1063 1.376 . S
C1063 C1062 1.376 . S
C1063 C1064 1.378 . S
C1063 C1090 1.486 . S
C1064 H1026 0.930 . S
C1064 C1063 1.378 . S
C1064 C1065 1.376 1_554 S
C1065 H1027 0.929 . S
C1065 C1060 1.397 . S
C1065 C1064 1.376 1_556 S
C1066 C1050 1.509 . S
C1066 C1067 1.391 . S
C1066 C1071 1.386 . S
C1067 H1028 0.930 . S
C1067 C1066 1.391 . S
C1067 C1068 1.375 . S
C1068 H1029 0.931 . S
C1068 C1067 1.375 . S
C1068 C1069 1.375 . S
C1069 C1068 1.375 . S
C1069 C1070 1.361 . S
C1070 H1030 0.930 . S
C1070 C1069 1.361 . S
C1070 C1071 1.399 . S
C1071 H1031 0.929 . S
C1071 C1066 1.386 . S
C1071 C1070 1.399 . S
C1072 C1051 1.485 . S
C1072 C1073 1.394 . S
C1072 C1077 1.360 . S
C1073 H1032 0.931 . S
C1073 C1072 1.394 . S
C1073 C1074 1.372 . S
C1074 H1033 0.930 . S
C1074 C1073 1.372 . S
C1074 C1075 1.397 . S
C1075 C1074 1.397 . S
C1075 C1076 1.390 . S
C1075 C1091 1.476 . S
C1076 H1034 0.930 . S
C1076 C1075 1.390 . S
C1076 C1077 1.366 . S
C1077 H1035 0.932 . S
C1077 C1072 1.360 . S
C1077 C1076 1.366 . S
C1078 C1052 1.490 . S
C1078 C1079 1.380 . S
C1078 C1083 1.386 . S
C1079 H1036 0.930 . S
C1079 C1078 1.380 . S
C1079 C1080 1.381 . S
C1080 H1037 0.929 . S
C1080 C1079 1.381 . S
C1080 C1081 1.371 . S
C1081 C1080 1.371 . S
C1081 C1082 1.380 . S
C1082 H1038 0.931 . S
C1082 C1081 1.380 . S
C1082 C1083 1.387 . S
C1083 H1039 0.930 . S
C1083 C1078 1.386 . S
C1083 C1082 1.387 . S
C1084 C1053 1.519 . S
C1084 C1085 1.377 . S
C1084 C1089 1.361 . S
C1085 H1040 0.929 . S
C1085 C1084 1.377 . S
C1085 C1086 1.386 . S
C1086 H1041 0.931 . S
C1086 C1085 1.386 . S
C1086 C1087 1.363 . S
C1087 C1086 1.363 . S
C1087 C1088 1.385 . S
C1088 H1042 0.930 . S
C1088 C1087 1.385 . S
C1088 C1089 1.396 . S
C1089 H1043 0.929 . S
C1089 C1084 1.361 . S
C1089 C1088 1.396 . S
C1090 O1044 1.300 . S
C1090 O1045 1.209 . S
C1090 C1063 1.486 . S
C1091 O1046 1.199 . S
C1091 O1047 1.297 . S
C1091 C1075 1.476 . S
H1092 O1118 0.856 . S
H1093 O1121 0.854 . S
H1094 C1129 0.930 . S
H1095 C1130 0.930 . S
H1096 C1132 0.930 . S
H1097 C1133 0.930 . S
H1098 C1135 0.931 . S
H1099 C1136 0.930 . S
H1100 C1138 0.930 . S
H1101 C1139 0.929 . S
H1102 C1141 0.930 . S
H1103 C1142 0.931 . S
H1104 C1144 0.930 . S
H1105 C1145 0.929 . S
H1106 C1147 0.931 . S
H1107 C1148 0.930 . S
H1108 C1150 0.930 . S
H1109 C1151 0.932 . S
H1110 C1153 0.930 . S
H1111 C1154 0.929 . S
H1112 C1156 0.931 . S
H1113 C1157 0.930 . S
H1114 C1159 0.929 . S
H1115 C1160 0.931 . S
H1116 C1162 0.930 . S
H1117 C1163 0.929 . S
O1118 H1092 0.856 . S
O1118 C1164 1.300 . S
O1119 C1164 1.209 . S
O1120 C1165 1.199 . S
O1121 H1093 0.854 . S
O1121 C1165 1.297 . S
C1122 C1123 1.404 . S
C1122 C1127 1.397 . S
C1122 C1128 1.492 . S
C1123 C1122 1.404 . S
C1123 C1124 1.396 . S
C1123 C1134 1.492 . S
C1124 C1123 1.396 . S
C1124 C1125 1.397 . S
C1124 C1140 1.509 . S
C1125 C1124 1.397 . S
C1125 C1126 1.412 . S
C1125 C1146 1.485 . S
C1126 C1125 1.412 . S
C1126 C1127 1.388 . S
C1126 C1152 1.490 . S
C1127 C1122 1.397 . S
C1127 C1126 1.388 . S
C1127 C1158 1.519 . S
C1128 C1122 1.492 . S
C1128 C1129 1.363 . S
C1128 C1133 1.390 . S
C1129 H1094 0.930 . S
C1129 C1128 1.363 . S
C1129 C1130 1.372 . S
C1130 H1095 0.930 . S
C1130 C1129 1.372 . S
C1130 C1131 1.383 . S
C1131 C1130 1.383 . S
C1131 C1132 1.395 . S
C1132 H1096 0.930 . S
C1132 C1131 1.395 . S
C1132 C1133 1.362 . S
C1133 H1097 0.930 . S
C1133 C1128 1.390 . S
C1133 C1132 1.362 . S
C1134 C1123 1.492 . S
C1134 C1135 1.377 . S
C1134 C1139 1.397 . S
C1135 H1098 0.931 . S
C1135 C1134 1.377 . S
C1135 C1136 1.376 . S
C1136 H1099 0.930 . S
C1136 C1135 1.376 . S
C1136 C1137 1.376 . S
C1137 C1136 1.376 . S
C1137 C1138 1.378 . S
C1137 C1164 1.486 . S
C1138 H1100 0.930 . S
C1138 C1137 1.378 . S
C1138 C1139 1.376 . S
C1139 H1101 0.929 . S
C1139 C1134 1.397 . S
C1139 C1138 1.376 . S
C1140 C1124 1.509 . S
C1140 C1141 1.391 . S
C1140 C1145 1.386 . S
C1141 H1102 0.930 . S
C1141 C1140 1.391 . S
C1141 C1142 1.375 . S
C1142 H1103 0.931 . S
C1142 C1141 1.375 . S
C1142 C1143 1.375 . S
C1143 C1142 1.375 . S
C1143 C1144 1.361 . S
C1144 H1104 0.930 . S
C1144 C1143 1.361 . S
C1144 C1145 1.399 . S
C1145 H1105 0.929 . S
C1145 C1140 1.386 . S
C1145 C1144 1.399 . S
C1146 C1125 1.485 . S
C1146 C1147 1.394 . S
C1146 C1151 1.360 . S
C1147 H1106 0.931 . S
C1147 C1146 1.394 . S
C1147 C1148 1.372 . S
C1148 H1107 0.930 . S
C1148 C1147 1.372 . S
C1148 C1149 1.397 . S
C1149 C1148 1.397 . S
C1149 C1150 1.390 . S
C1149 C1165 1.476 . S
C1150 H1108 0.930 . S
C1150 C1149 1.390 . S
C1150 C1151 1.366 . S
C1151 H1109 0.932 . S
C1151 C1146 1.360 . S
C1151 C1150 1.366 . S
C1152 C1126 1.490 . S
C1152 C1153 1.380 . S
C1152 C1157 1.386 . S
C1153 H1110 0.930 . S
C1153 C1152 1.380 . S
C1153 C1154 1.381 . S
C1154 H1111 0.929 . S
C1154 C1153 1.381 . S
C1154 C1155 1.371 . S
C1155 C1154 1.371 . S
C1155 C1156 1.380 . S
C1156 H1112 0.931 . S
C1156 C1155 1.380 . S
C1156 C1157 1.387 . S
C1157 H1113 0.930 . S
C1157 C1152 1.386 . S
C1157 C1156 1.387 . S
C1158 C1127 1.519 . S
C1158 C1159 1.377 . S
C1158 C1163 1.361 . S
C1159 H1114 0.929 . S
C1159 C1158 1.377 . S
C1159 C1160 1.386 . S
C1160 H1115 0.931 . S
C1160 C1159 1.386 . S
C1160 C1161 1.363 . S
C1161 C1160 1.363 . S
C1161 C1162 1.385 . S
C1162 H1116 0.930 . S
C1162 C1161 1.385 . S
C1162 C1163 1.396 . S
C1163 H1117 0.929 . S
C1163 C1158 1.361 . S
C1163 C1162 1.396 . S
C1164 O1118 1.300 . S
C1164 O1119 1.209 . S
C1164 C1137 1.486 . S
C1165 O1120 1.199 . S
C1165 O1121 1.297 . S
C1165 C1149 1.476 . S
H1166 O1192 0.856 . S
H1167 O1195 0.854 . S
H1168 C1203 0.930 . S
H1169 C1204 0.930 . S
H1170 C1206 0.930 . S
H1171 C1207 0.930 . S
H1172 C1209 0.931 . S
H1173 C1210 0.930 . S
H1174 C1212 0.930 . S
H1175 C1213 0.929 . S
H1176 C1215 0.930 . S
H1177 C1216 0.931 . S
H1178 C1218 0.930 . S
H1179 C1219 0.929 . S
H1180 C1221 0.931 . S
H1181 C1222 0.930 . S
H1182 C1224 0.930 . S
H1183 C1225 0.932 . S
H1184 C1227 0.930 . S
H1185 C1228 0.929 . S
H1186 C1230 0.931 . S
H1187 C1231 0.930 . S
H1188 C1233 0.929 . S
H1189 C1234 0.931 . S
H1190 C1236 0.930 . S
H1191 C1237 0.929 . S
O1192 H1166 0.856 . S
O1192 C1238 1.300 . S
O1193 C1238 1.209 . S
O1194 C1239 1.199 . S
O1195 H1167 0.854 . S
O1195 C1239 1.297 . S
C1196 C1197 1.404 . S
C1196 C1201 1.397 . S
C1196 C1202 1.492 . S
C1197 C1196 1.404 . S
C1197 C1198 1.396 . S
C1197 C1208 1.492 . S
C1198 C1197 1.396 . S
C1198 C1199 1.397 . S
C1198 C1214 1.509 . S
C1199 C1198 1.397 . S
C1199 C1200 1.412 . S
C1199 C1220 1.485 . S
C1200 C1199 1.412 . S
C1200 C1201 1.388 . S
C1200 C1226 1.490 . S
C1201 C1196 1.397 . S
C1201 C1200 1.388 . S
C1201 C1232 1.519 . S
C1202 C1196 1.492 . S
C1202 C1203 1.363 . S
C1202 C1207 1.390 . S
C1203 H1168 0.930 . S
C1203 C1202 1.363 . S
C1203 C1204 1.372 . S
C1204 H1169 0.930 . S
C1204 C1203 1.372 . S
C1204 C1205 1.383 . S
C1205 C1204 1.383 . S
C1205 C1206 1.395 . S
C1206 H1170 0.930 . S
C1206 C1205 1.395 . S
C1206 C1207 1.362 . S
C1207 H1171 0.930 . S
C1207 C1202 1.390 . S
C1207 C1206 1.362 . S
C1208 C1197 1.492 . S
C1208 C1209 1.377 . S
C1208 C1213 1.397 . S
C1209 H1172 0.931 . S
C1209 C1208 1.377 . S
C1209 C1210 1.376 . S
C1210 H1173 0.930 . S
C1210 C1209 1.376 . S
C1210 C1211 1.376 . S
C1211 C1210 1.376 . S
C1211 C1212 1.378 . S
C1211 C1238 1.486 . S
C1212 H1174 0.930 . S
C1212 C1211 1.378 . S
C1212 C1213 1.376 . S
C1213 H1175 0.929 . S
C1213 C1208 1.397 . S
C1213 C1212 1.376 . S
C1214 C1198 1.509 . S
C1214 C1215 1.391 . S
C1214 C1219 1.386 . S
C1215 H1176 0.930 . S
C1215 C1214 1.391 . S
C1215 C1216 1.375 . S
C1216 H1177 0.931 . S
C1216 C1215 1.375 . S
C1216 C1217 1.375 . S
C1217 C1216 1.375 . S
C1217 C1218 1.361 . S
C1218 H1178 0.930 . S
C1218 C1217 1.361 . S
C1218 C1219 1.399 . S
C1219 H1179 0.929 . S
C1219 C1214 1.386 . S
C1219 C1218 1.399 . S
C1220 C1199 1.485 . S
C1220 C1221 1.394 . S
C1220 C1225 1.360 . S
C1221 H1180 0.931 . S
C1221 C1220 1.394 . S
C1221 C1222 1.372 . S
C1222 H1181 0.930 . S
C1222 C1221 1.372 . S
C1222 C1223 1.397 . S
C1223 C1222 1.397 . S
C1223 C1224 1.390 . S
C1223 C1239 1.476 . S
C1224 H1182 0.930 . S
C1224 C1223 1.390 . S
C1224 C1225 1.366 . S
C1225 H1183 0.932 . S
C1225 C1220 1.360 . S
C1225 C1224 1.366 . S
C1226 C1200 1.490 . S
C1226 C1227 1.380 . S
C1226 C1231 1.386 . S
C1227 H1184 0.930 . S
C1227 C1226 1.380 . S
C1227 C1228 1.381 . S
C1228 H1185 0.929 . S
C1228 C1227 1.381 . S
C1228 C1229 1.371 . S
C1229 C1228 1.371 . S
C1229 C1230 1.380 . S
C1230 H1186 0.931 . S
C1230 C1229 1.380 . S
C1230 C1231 1.387 . S
C1231 H1187 0.930 . S
C1231 C1226 1.386 . S
C1231 C1230 1.387 . S
C1232 C1201 1.519 . S
C1232 C1233 1.377 . S
C1232 C1237 1.361 . S
C1233 H1188 0.929 . S
C1233 C1232 1.377 . S
C1233 C1234 1.386 . S
C1234 H1189 0.931 . S
C1234 C1233 1.386 . S
C1234 C1235 1.363 . S
C1235 C1234 1.363 . S
C1235 C1236 1.385 . S
C1236 H1190 0.930 . S
C1236 C1235 1.385 . S
C1236 C1237 1.396 . S
C1237 H1191 0.929 . S
C1237 C1232 1.361 . S
C1237 C1236 1.396 . S
C1238 O1192 1.300 . S
C1238 O1193 1.209 . S
C1238 C1211 1.486 . S
C1239 O1194 1.199 . S
C1239 O1195 1.297 . S
C1239 C1223 1.476 . S
H1240 O1266 0.856 . S
H1241 O1269 0.854 . S
H1242 C1277 0.930 . S
H1243 C1278 0.930 . S
H1244 C1280 0.930 . S
H1245 C1281 0.930 . S
H1246 C1283 0.931 . S
H1247 C1284 0.930 . S
H1248 C1286 0.930 . S
H1249 C1287 0.929 . S
H1250 C1289 0.930 . S
H1251 C1290 0.931 . S
H1252 C1292 0.930 . S
H1253 C1293 0.929 . S
H1254 C1295 0.931 . S
H1255 C1296 0.930 . S
H1256 C1298 0.930 . S
H1257 C1299 0.932 . S
H1258 C1301 0.930 . S
H1259 C1302 0.929 . S
H1260 C1304 0.931 . S
H1261 C1305 0.930 . S
H1262 C1307 0.929 . S
H1263 C1308 0.931 . S
H1264 C1310 0.930 . S
H1265 C1311 0.929 . S
O1266 H1240 0.856 . S
O1266 C1312 1.300 . S
O1267 C1312 1.209 . S
O1268 C1313 1.199 . S
O1269 H1241 0.854 . S
O1269 C1313 1.297 . S
C1270 C1271 1.404 . S
C1270 C1275 1.397 . S
C1270 C1276 1.492 . S
C1271 C1270 1.404 . S
C1271 C1272 1.396 . S
C1271 C1282 1.492 . S
C1272 C1271 1.396 . S
C1272 C1273 1.397 . S
C1272 C1288 1.509 . S
C1273 C1272 1.397 . S
C1273 C1274 1.412 . S
C1273 C1294 1.485 . S
C1274 C1273 1.412 . S
C1274 C1275 1.388 . S
C1274 C1300 1.490 . S
C1275 C1270 1.397 . S
C1275 C1274 1.388 . S
C1275 C1306 1.519 . S
C1276 C1270 1.492 . S
C1276 C1277 1.363 . S
C1276 C1281 1.390 . S
C1277 H1242 0.930 . S
C1277 C1276 1.363 . S
C1277 C1278 1.372 . S
C1278 H1243 0.930 . S
C1278 C1277 1.372 . S
C1278 C1279 1.383 . S
C1279 C1278 1.383 . S
C1279 C1280 1.395 . S
C1280 H1244 0.930 . S
C1280 C1279 1.395 . S
C1280 C1281 1.362 . S
C1281 H1245 0.930 . S
C1281 C1276 1.390 . S
C1281 C1280 1.362 . S
C1282 C1271 1.492 . S
C1282 C1283 1.377 . S
C1282 C1287 1.397 . S
C1283 H1246 0.931 . S
C1283 C1282 1.377 . S
C1283 C1284 1.376 . S
C1284 H1247 0.930 . S
C1284 C1283 1.376 . S
C1284 C1285 1.376 . S
C1285 C1284 1.376 . S
C1285 C1286 1.378 . S
C1285 C1312 1.486 . S
C1286 H1248 0.930 . S
C1286 C1285 1.378 . S
C1286 C1287 1.376 . S
C1287 H1249 0.929 . S
C1287 C1282 1.397 . S
C1287 C1286 1.376 . S
C1288 C1272 1.509 . S
C1288 C1289 1.391 . S
C1288 C1293 1.386 . S
C1289 H1250 0.930 . S
C1289 C1288 1.391 . S
C1289 C1290 1.375 . S
C1290 H1251 0.931 . S
C1290 C1289 1.375 . S
C1290 C1291 1.375 . S
C1291 C1290 1.375 . S
C1291 C1292 1.361 . S
C1292 H1252 0.930 . S
C1292 C1291 1.361 . S
C1292 C1293 1.399 . S
C1293 H1253 0.929 . S
C1293 C1288 1.386 . S
C1293 C1292 1.399 . S
C1294 C1273 1.485 . S
C1294 C1295 1.394 . S
C1294 C1299 1.360 . S
C1295 H1254 0.931 . S
C1295 C1294 1.394 . S
C1295 C1296 1.372 . S
C1296 H1255 0.930 . S
C1296 C1295 1.372 . S
C1296 C1297 1.397 . S
C1297 C1296 1.397 . S
C1297 C1298 1.390 . S
C1297 C1313 1.476 . S
C1298 H1256 0.930 . S
C1298 C1297 1.390 . S
C1298 C1299 1.366 . S
C1299 H1257 0.932 . S
C1299 C1294 1.360 . S
C1299 C1298 1.366 . S
C1300 C1274 1.490 . S
C1300 C1301 1.380 . S
C1300 C1305 1.386 . S
C1301 H1258 0.930 . S
C1301 C1300 1.380 . S
C1301 C1302 1.381 . S
C1302 H1259 0.929 . S
C1302 C1301 1.381 . S
C1302 C1303 1.371 . S
C1303 C1302 1.371 . S
C1303 C1304 1.380 . S
C1304 H1260 0.931 . S
C1304 C1303 1.380 . S
C1304 C1305 1.387 . S
C1305 H1261 0.930 . S
C1305 C1300 1.386 . S
C1305 C1304 1.387 . S
C1306 C1275 1.519 . S
C1306 C1307 1.377 . S
C1306 C1311 1.361 . S
C1307 H1262 0.929 . S
C1307 C1306 1.377 . S
C1307 C1308 1.386 . S
C1308 H1263 0.931 . S
C1308 C1307 1.386 . S
C1308 C1309 1.363 . S
C1309 C1308 1.363 . S
C1309 C1310 1.385 . S
C1310 H1264 0.930 . S
C1310 C1309 1.385 . S
C1310 C1311 1.396 . S
C1311 H1265 0.929 . S
C1311 C1306 1.361 . S
C1311 C1310 1.396 . S
C1312 O1266 1.300 . S
C1312 O1267 1.209 . S
C1312 C1285 1.486 . S
C1313 O1268 1.199 . S
C1313 O1269 1.297 . S
C1313 C1297 1.476 . S
H1314 O1340 0.856 . S
H1315 O1343 0.854 . S
H1316 C1351 0.930 . S
H1317 C1352 0.930 . S
H1318 C1354 0.930 . S
H1319 C1355 0.930 . S
H1320 C1357 0.931 . S
H1321 C1358 0.930 1_655 S
H1322 C1360 0.930 . S
H1323 C1361 0.929 . S
H1324 C1363 0.930 . S
H1325 C1364 0.920 1_655 S
H1326 C1366 0.930 . S
H1327 C1367 0.929 . S
H1328 C1369 0.931 . S
H1329 C1370 0.930 . S
H1330 C1372 0.930 . S
H1331 C1373 0.932 . S
H1332 C1375 0.930 . S
H1333 C1376 0.929 . S
H1334 C1378 0.931 . S
H1335 C1379 0.930 . S
H1336 C1381 0.929 . S
H1337 C1382 0.931 . S
H1338 C1384 0.930 . S
H1339 C1385 0.929 . S
O1340 H1314 0.856 . S
O1340 C1386 1.300 . S
O1341 C1386 1.209 . S
O1342 C1387 1.199 1_655 S
O1343 H1315 0.854 . S
O1343 C1387 1.297 . S
C1344 C1345 1.404 . S
C1344 C1349 1.394 . S
C1344 C1350 1.492 . S
C1345 C1344 1.404 . S
C1345 C1346 1.396 . S
C1345 C1356 1.492 . S
C1346 C1345 1.396 . S
C1346 C1347 1.397 . S
C1346 C1362 1.509 . S
C1347 C1346 1.397 . S
C1347 C1348 1.419 . S
C1347 C1368 1.485 . S
C1348 C1347 1.419 . S
C1348 C1349 1.408 . S
C1348 C1374 1.491 1_455 S
C1349 C1344 1.394 . S
C1349 C1348 1.408 . S
C1349 C1380 1.491 1_455 S
C1350 C1344 1.492 . S
C1350 C1351 1.363 1_455 S
C1350 C1355 1.390 . S
C1351 H1316 0.930 . S
C1351 C1350 1.363 1_655 S
C1351 C1352 1.372 . S
C1352 H1317 0.930 . S
C1352 C1351 1.372 . S
C1352 C1353 1.383 . S
C1353 C1352 1.383 . S
C1353 C1354 1.395 1_655 S
C1354 H1318 0.930 . S
C1354 C1353 1.395 1_455 S
C1354 C1355 1.362 . S
C1355 H1319 0.930 . S
C1355 C1350 1.390 . S
C1355 C1354 1.362 . S
C1356 C1345 1.492 . S
C1356 C1357 1.377 1_455 S
C1356 C1361 1.397 . S
C1357 H1320 0.931 . S
C1357 C1356 1.377 1_655 S
C1357 C1358 1.376 1_655 S
C1358 H1321 0.930 1_455 S
C1358 C1357 1.376 1_455 S
C1358 C1359 1.376 . S
C1359 C1358 1.376 . S
C1359 C1360 1.378 . S
C1359 C1386 1.486 . S
C1360 H1322 0.930 . S
C1360 C1359 1.378 . S
C1360 C1361 1.376 . S
C1361 H1323 0.929 . S
C1361 C1356 1.397 . S
C1361 C1360 1.376 . S
C1362 C1346 1.509 . S
C1362 C1363 1.391 1_455 S
C1362 C1367 1.386 . S
C1363 H1324 0.930 . S
C1363 C1362 1.391 1_655 S
C1363 C1364 1.362 1_655 S
C1364 H1325 0.920 1_455 S
C1364 C1363 1.362 1_455 S
C1364 C1365 1.399 . S
C1365 C1364 1.399 . S
C1365 C1366 1.361 . S
C1366 H1326 0.930 . S
C1366 C1365 1.361 . S
C1366 C1367 1.399 . S
C1367 H1327 0.929 . S
C1367 C1362 1.386 . S
C1367 C1366 1.399 . S
C1368 C1347 1.485 . S
C1368 C1369 1.394 1_455 S
C1368 C1373 1.360 . S
C1369 H1328 0.931 . S
C1369 C1368 1.394 1_655 S
C1369 C1370 1.372 . S
C1370 H1329 0.930 . S
C1370 C1369 1.372 . S
C1370 C1371 1.397 1_655 S
C1371 C1370 1.397 1_455 S
C1371 C1372 1.390 . S
C1371 C1387 1.476 . S
C1372 H1330 0.930 . S
C1372 C1371 1.390 . S
C1372 C1373 1.366 . S
C1373 H1331 0.932 . S
C1373 C1368 1.360 . S
C1373 C1372 1.366 . S
C1374 C1348 1.491 1_655 S
C1374 C1375 1.380 . S
C1374 C1379 1.386 1_655 S
C1375 H1332 0.930 . S
C1375 C1374 1.380 . S
C1375 C1376 1.381 . S
C1376 H1333 0.929 . S
C1376 C1375 1.381 . S
C1376 C1377 1.371 . S
C1377 C1376 1.371 . S
C1377 C1378 1.380 1_655 S
C1378 H1334 0.931 . S
C1378 C1377 1.380 1_455 S
C1378 C1379 1.387 . S
C1379 H1335 0.930 . S
C1379 C1374 1.386 1_455 S
C1379 C1378 1.387 . S
C1380 C1349 1.491 1_655 S
C1380 C1381 1.408 . S
C1380 C1385 1.340 1_655 S
C1381 H1336 0.929 . S
C1381 C1380 1.408 . S
C1381 C1382 1.386 . S
C1382 H1337 0.931 . S
C1382 C1381 1.386 . S
C1382 C1383 1.373 . S
C1383 C1382 1.373 . S
C1383 C1384 1.371 1_655 S
C1384 H1338 0.930 . S
C1384 C1383 1.371 1_455 S
C1384 C1385 1.396 . S
C1385 H1339 0.929 . S
C1385 C1380 1.340 1_455 S
C1385 C1384 1.396 . S
C1386 O1340 1.300 . S
C1386 O1341 1.209 . S
C1386 C1359 1.486 . S
C1387 O1342 1.199 1_455 S
C1387 O1343 1.297 . S
C1387 C1371 1.476 . S
H1388 O1414 0.856 . S
H1389 O1417 0.854 . S
H1390 C1425 0.930 . S
H1391 C1426 0.930 . S
H1392 C1428 0.930 . S
H1393 C1429 0.930 . S
H1394 C1431 0.931 . S
H1395 C1432 0.930 . S
H1396 C1434 0.930 . S
H1397 C1435 0.929 . S
H1398 C1437 0.930 . S
H1399 C1438 0.931 . S
H1400 C1440 0.930 . S
H1401 C1441 0.929 . S
H1402 C1443 0.931 . S
H1403 C1444 0.930 . S
H1404 C1446 0.930 . S
H1405 C1447 0.932 . S
H1406 C1449 0.930 . S
H1407 C1450 0.929 . S
H1408 C1452 0.931 . S
H1409 C1453 0.930 . S
H1410 C1455 0.929 . S
H1411 C1456 0.931 . S
H1412 C1458 0.930 . S
H1413 C1459 0.929 . S
O1414 H1388 0.856 . S
O1414 C1460 1.300 . S
O1415 C1460 1.209 . S
O1416 C1461 1.199 . S
O1417 H1389 0.854 . S
O1417 C1461 1.297 . S
C1418 C1419 1.404 . S
C1418 C1423 1.397 . S
C1418 C1424 1.492 . S
C1419 C1418 1.404 . S
C1419 C1420 1.396 . S
C1419 C1430 1.492 . S
C1420 C1419 1.396 . S
C1420 C1421 1.397 . S
C1420 C1436 1.509 . S
C1421 C1420 1.397 . S
C1421 C1422 1.412 . S
C1421 C1442 1.485 . S
C1422 C1421 1.412 . S
C1422 C1423 1.388 . S
C1422 C1448 1.490 . S
C1423 C1418 1.397 . S
C1423 C1422 1.388 . S
C1423 C1454 1.519 . S
C1424 C1418 1.492 . S
C1424 C1425 1.363 . S
C1424 C1429 1.390 . S
C1425 H1390 0.930 . S
C1425 C1424 1.363 . S
C1425 C1426 1.372 . S
C1426 H1391 0.930 . S
C1426 C1425 1.372 . S
C1426 C1427 1.383 . S
C1427 C1426 1.383 . S
C1427 C1428 1.395 . S
C1428 H1392 0.930 . S
C1428 C1427 1.395 . S
C1428 C1429 1.362 . S
C1429 H1393 0.930 . S
C1429 C1424 1.390 . S
C1429 C1428 1.362 . S
C1430 C1419 1.492 . S
C1430 C1431 1.377 . S
C1430 C1435 1.397 . S
C1431 H1394 0.931 . S
C1431 C1430 1.377 . S
C1431 C1432 1.376 . S
C1432 H1395 0.930 . S
C1432 C1431 1.376 . S
C1432 C1433 1.376 . S
C1433 C1432 1.376 . S
C1433 C1434 1.378 . S
C1433 C1460 1.486 . S
C1434 H1396 0.930 . S
C1434 C1433 1.378 . S
C1434 C1435 1.376 . S
C1435 H1397 0.929 . S
C1435 C1430 1.397 . S
C1435 C1434 1.376 . S
C1436 C1420 1.509 . S
C1436 C1437 1.391 . S
C1436 C1441 1.386 . S
C1437 H1398 0.930 . S
C1437 C1436 1.391 . S
C1437 C1438 1.375 . S
C1438 H1399 0.931 . S
C1438 C1437 1.375 . S
C1438 C1439 1.375 . S
C1439 C1438 1.375 . S
C1439 C1440 1.361 . S
C1440 H1400 0.930 . S
C1440 C1439 1.361 . S
C1440 C1441 1.399 . S
C1441 H1401 0.929 . S
C1441 C1436 1.386 . S
C1441 C1440 1.399 . S
C1442 C1421 1.485 . S
C1442 C1443 1.394 . S
C1442 C1447 1.360 . S
C1443 H1402 0.931 . S
C1443 C1442 1.394 . S
C1443 C1444 1.372 . S
C1444 H1403 0.930 . S
C1444 C1443 1.372 . S
C1444 C1445 1.397 . S
C1445 C1444 1.397 . S
C1445 C1446 1.390 . S
C1445 C1461 1.476 . S
C1446 H1404 0.930 . S
C1446 C1445 1.390 . S
C1446 C1447 1.366 . S
C1447 H1405 0.932 . S
C1447 C1442 1.360 . S
C1447 C1446 1.366 . S
C1448 C1422 1.490 . S
C1448 C1449 1.380 . S
C1448 C1453 1.386 . S
C1449 H1406 0.930 . S
C1449 C1448 1.380 . S
C1449 C1450 1.381 . S
C1450 H1407 0.929 . S
C1450 C1449 1.381 . S
C1450 C1451 1.371 . S
C1451 C1450 1.371 . S
C1451 C1452 1.380 . S
C1452 H1408 0.931 . S
C1452 C1451 1.380 . S
C1452 C1453 1.387 . S
C1453 H1409 0.930 . S
C1453 C1448 1.386 . S
C1453 C1452 1.387 . S
C1454 C1423 1.519 . S
C1454 C1455 1.377 . S
C1454 C1459 1.361 . S
C1455 H1410 0.929 . S
C1455 C1454 1.377 . S
C1455 C1456 1.386 . S
C1456 H1411 0.931 . S
C1456 C1455 1.386 . S
C1456 C1457 1.363 . S
C1457 C1456 1.363 . S
C1457 C1458 1.385 . S
C1458 H1412 0.930 . S
C1458 C1457 1.385 . S
C1458 C1459 1.396 . S
C1459 H1413 0.929 . S
C1459 C1454 1.361 . S
C1459 C1458 1.396 . S
C1460 O1414 1.300 . S
C1460 O1415 1.209 . S
C1460 C1433 1.486 . S
C1461 O1416 1.199 . S
C1461 O1417 1.297 . S
C1461 C1445 1.476 . S
H1462 O1488 0.856 . S
H1463 O1491 0.854 . S
H1464 C1499 0.930 . S
H1465 C1500 0.930 . S
H1466 C1502 0.930 . S
H1467 C1503 0.930 . S
H1468 C1505 0.931 . S
H1469 C1506 0.931 1_545 S
H1470 C1508 0.930 . S
H1471 C1509 0.929 . S
H1472 C1511 0.930 . S
H1473 C1512 0.962 . S
H1474 C1514 0.930 . S
H1475 C1515 0.929 . S
H1476 C1517 0.931 . S
H1477 C1518 0.930 . S
H1478 C1520 0.930 . S
H1479 C1521 0.932 . S
H1480 C1523 0.930 . S
H1481 C1524 0.929 . S
H1482 C1526 0.931 . S
H1483 C1527 0.930 . S
H1484 C1529 0.929 . S
H1485 C1530 0.931 . S
H1486 C1532 0.930 . S
H1487 C1533 0.929 . S
O1488 H1462 0.856 . S
O1488 C1534 1.300 . S
O1489 C1534 1.209 . S
O1490 C1535 1.199 1_545 S
O1491 H1463 0.854 . S
O1491 C1535 1.297 . S
C1492 C1493 1.404 . S
C1492 C1497 1.414 . S
C1492 C1498 1.492 . S
C1493 C1492 1.404 . S
C1493 C1494 1.396 . S
C1493 C1504 1.492 . S
C1494 C1493 1.396 . S
C1494 C1495 1.397 . S
C1494 C1510 1.509 . S
C1495 C1494 1.397 . S
C1495 C1496 1.409 . S
C1495 C1516 1.485 . S
C1496 C1495 1.409 . S
C1496 C1497 1.373 . S
C1496 C1522 1.483 1_565 S
C1497 C1492 1.414 . S
C1497 C1496 1.373 . S
C1497 C1528 1.538 1_565 S
C1498 C1492 1.492 . S
C1498 C1499 1.363 1_565 S
C1498 C1503 1.390 . S
C1499 H1464 0.930 . S
C1499 C1498 1.363 1_545 S
C1499 C1500 1.372 . S
C1500 H1465 0.930 . S
C1500 C1499 1.372 . S
C1500 C1501 1.383 . S
C1501 C1500 1.383 . S
C1501 C1502 1.395 1_545 S
C1502 H1466 0.930 . S
C1502 C1501 1.395 1_565 S
C1502 C1503 1.362 . S
C1503 H1467 0.930 . S
C1503 C1498 1.390 . S
C1503 C1502 1.362 . S
C1504 C1493 1.492 . S
C1504 C1505 1.377 1_565 S
C1504 C1509 1.397 . S
C1505 H1468 0.931 . S
C1505 C1504 1.377 1_545 S
C1505 C1506 1.377 1_545 S
C1506 H1469 0.931 1_565 S
C1506 C1505 1.377 1_565 S
C1506 C1507 1.373 . S
C1507 C1506 1.373 . S
C1507 C1508 1.378 . S
C1507 C1534 1.486 . S
C1508 H1470 0.930 . S
C1508 C1507 1.378 . S
C1508 C1509 1.376 . S
C1509 H1471 0.929 . S
C1509 C1504 1.397 . S
C1509 C1508 1.376 . S
C1510 C1494 1.509 . S
C1510 C1511 1.391 1_565 S
C1510 C1515 1.386 . S
C1511 H1472 0.930 . S
C1511 C1510 1.391 1_545 S
C1511 C1512 1.370 . S
C1512 H1473 0.962 . S
C1512 C1511 1.370 . S
C1512 C1513 1.349 1_545 S
C1513 C1512 1.349 1_565 S
C1513 C1514 1.361 . S
C1514 H1474 0.930 . S
C1514 C1513 1.361 . S
C1514 C1515 1.399 . S
C1515 H1475 0.929 . S
C1515 C1510 1.386 . S
C1515 C1514 1.399 . S
C1516 C1495 1.485 . S
C1516 C1517 1.394 1_565 S
C1516 C1521 1.360 . S
C1517 H1476 0.931 . S
C1517 C1516 1.394 1_545 S
C1517 C1518 1.372 . S
C1518 H1477 0.930 . S
C1518 C1517 1.372 . S
C1518 C1519 1.397 1_545 S
C1519 C1518 1.397 1_565 S
C1519 C1520 1.390 . S
C1519 C1535 1.476 . S
C1520 H1478 0.930 . S
C1520 C1519 1.390 . S
C1520 C1521 1.366 . S
C1521 H1479 0.932 . S
C1521 C1516 1.360 . S
C1521 C1520 1.366 . S
C1522 C1496 1.483 1_545 S
C1522 C1523 1.380 . S
C1522 C1527 1.386 1_545 S
C1523 H1480 0.930 . S
C1523 C1522 1.380 . S
C1523 C1524 1.381 . S
C1524 H1481 0.929 . S
C1524 C1523 1.381 . S
C1524 C1525 1.371 . S
C1525 C1524 1.371 . S
C1525 C1526 1.380 1_545 S
C1526 H1482 0.931 . S
C1526 C1525 1.380 1_565 S
C1526 C1527 1.387 . S
C1527 H1483 0.930 . S
C1527 C1522 1.386 1_565 S
C1527 C1526 1.387 . S
C1528 C1497 1.538 1_545 S
C1528 C1529 1.383 . S
C1528 C1533 1.350 1_545 S
C1529 H1484 0.929 . S
C1529 C1528 1.383 . S
C1529 C1530 1.386 . S
C1530 H1485 0.931 . S
C1530 C1529 1.386 . S
C1530 C1531 1.348 1_545 S
C1531 C1530 1.348 1_565 S
C1531 C1532 1.393 . S
C1532 H1486 0.930 . S
C1532 C1531 1.393 . S
C1532 C1533 1.396 . S
C1533 H1487 0.929 . S
C1533 C1528 1.350 1_565 S
C1533 C1532 1.396 . S
C1534 O1488 1.300 . S
C1534 O1489 1.209 . S
C1534 C1507 1.486 . S
C1535 O1490 1.199 1_565 S
C1535 O1491 1.297 . S
C1535 C1519 1.476 . S
H1536 O1562 0.856 . S
H1537 O1565 0.854 . S
H1538 C1573 0.930 . S
H1539 C1574 0.930 . S
H1540 C1576 0.930 . S
H1541 C1577 0.930 . S
H1542 C1579 0.931 . S
H1543 C1580 0.930 . S
H1544 C1582 0.930 . S
H1545 C1583 0.929 . S
H1546 C1585 0.930 . S
H1547 C1586 0.931 . S
H1548 C1588 0.930 . S
H1549 C1589 0.929 . S
H1550 C1591 0.931 . S
H1551 C1592 0.930 . S
H1552 C1594 0.930 . S
H1553 C1595 0.932 . S
H1554 C1597 0.930 . S
H1555 C1598 0.929 . S
H1556 C1600 0.931 . S
H1557 C1601 0.930 . S
H1558 C1603 0.929 . S
H1559 C1604 0.931 . S
H1560 C1606 0.930 . S
H1561 C1607 0.929 . S
O1562 H1536 0.856 . S
O1562 C1608 1.300 . S
O1563 C1608 1.209 1_565 S
O1564 C1609 1.199 1_545 S
O1565 H1537 0.854 . S
O1565 C1609 1.297 . S
C1566 C1567 1.404 . S
C1566 C1571 1.397 1_545 S
C1566 C1572 1.492 . S
C1567 C1566 1.404 . S
C1567 C1568 1.396 . S
C1567 C1578 1.492 . S
C1568 C1567 1.396 . S
C1568 C1569 1.396 1_545 S
C1568 C1584 1.509 . S
C1569 C1568 1.396 1_565 S
C1569 C1570 1.419 . S
C1569 C1590 1.488 . S
C1570 C1569 1.419 . S
C1570 C1571 1.375 . S
C1570 C1596 1.489 . S
C1571 C1566 1.397 1_565 S
C1571 C1570 1.375 . S
C1571 C1602 1.518 . S
C1572 C1566 1.492 . S
C1572 C1573 1.363 . S
C1572 C1577 1.390 1_545 S
C1573 H1538 0.930 . S
C1573 C1572 1.363 . S
C1573 C1574 1.372 . S
C1574 H1539 0.930 . S
C1574 C1573 1.372 . S
C1574 C1575 1.383 . S
C1575 C1574 1.383 . S
C1575 C1576 1.395 1_545 S
C1576 H1540 0.930 . S
C1576 C1575 1.395 1_565 S
C1576 C1577 1.362 . S
C1577 H1541 0.930 . S
C1577 C1572 1.390 1_565 S
C1577 C1576 1.362 . S
C1578 C1567 1.492 . S
C1578 C1579 1.377 . S
C1578 C1583 1.397 1_545 S
C1579 H1542 0.931 . S
C1579 C1578 1.377 . S
C1579 C1580 1.376 . S
C1580 H1543 0.930 . S
C1580 C1579 1.376 . S
C1580 C1581 1.376 . S
C1581 C1580 1.376 . S
C1581 C1582 1.378 1_545 S
C1581 C1608 1.486 . S
C1582 H1544 0.930 . S
C1582 C1581 1.378 1_565 S
C1582 C1583 1.376 . S
C1583 H1545 0.929 . S
C1583 C1578 1.397 1_565 S
C1583 C1582 1.376 . S
C1584 C1568 1.509 . S
C1584 C1585 1.391 . S
C1584 C1589 1.386 1_545 S
C1585 H1546 0.930 . S
C1585 C1584 1.391 . S
C1585 C1586 1.375 . S
C1586 H1547 0.931 . S
C1586 C1585 1.375 . S
C1586 C1587 1.375 . S
C1587 C1586 1.375 . S
C1587 C1588 1.361 1_545 S
C1588 H1548 0.930 . S
C1588 C1587 1.361 1_565 S
C1588 C1589 1.399 . S
C1589 H1549 0.929 . S
C1589 C1584 1.386 1_565 S
C1589 C1588 1.399 . S
C1590 C1569 1.488 . S
C1590 C1591 1.394 1_565 S
C1590 C1595 1.360 . S
C1591 H1550 0.931 . S
C1591 C1590 1.394 1_545 S
C1591 C1592 1.372 . S
C1592 H1551 0.930 . S
C1592 C1591 1.372 . S
C1592 C1593 1.397 1_545 S
C1593 C1592 1.397 1_565 S
C1593 C1594 1.390 . S
C1593 C1609 1.476 . S
C1594 H1552 0.930 . S
C1594 C1593 1.390 . S
C1594 C1595 1.366 . S
C1595 H1553 0.932 . S
C1595 C1590 1.360 . S
C1595 C1594 1.366 . S
C1596 C1570 1.489 . S
C1596 C1597 1.354 1_565 S
C1596 C1601 1.418 . S
C1597 H1554 0.930 . S
C1597 C1596 1.354 1_545 S
C1597 C1598 1.381 . S
C1598 H1555 0.929 . S
C1598 C1597 1.381 . S
C1598 C1599 1.415 . S
C1599 C1598 1.415 . S
C1599 C1600 1.344 1_545 S
C1600 H1556 0.931 . S
C1600 C1599 1.344 1_565 S
C1600 C1601 1.387 . S
C1601 H1557 0.930 . S
C1601 C1596 1.418 . S
C1601 C1600 1.387 . S
C1602 C1571 1.518 . S
C1602 C1603 1.377 1_565 S
C1602 C1607 1.361 . S
C1603 H1558 0.929 . S
C1603 C1602 1.377 1_545 S
C1603 C1604 1.386 . S
C1604 H1559 0.931 . S
C1604 C1603 1.386 . S
C1604 C1605 1.363 1_545 S
C1605 C1604 1.363 1_565 S
C1605 C1606 1.385 . S
C1606 H1560 0.930 . S
C1606 C1605 1.385 . S
C1606 C1607 1.396 . S
C1607 H1561 0.929 . S
C1607 C1602 1.361 . S
C1607 C1606 1.396 . S
C1608 O1562 1.300 . S
C1608 O1563 1.209 1_545 S
C1608 C1581 1.486 . S
C1609 O1564 1.199 1_565 S
C1609 O1565 1.297 . S
C1609 C1593 1.476 . S
H1610 O1636 0.856 . S
H1611 O1639 0.854 . S
H1612 C1647 0.930 . S
H1613 C1648 0.930 . S
H1614 C1650 0.930 . S
H1615 C1651 0.930 . S
H1616 C1653 0.931 . S
H1617 C1654 0.930 . S
H1618 C1656 0.930 . S
H1619 C1657 0.929 . S
H1620 C1659 0.930 . S
H1621 C1660 0.931 . S
H1622 C1662 0.930 . S
H1623 C1663 0.929 . S
H1624 C1665 0.931 . S
H1625 C1666 0.930 . S
H1626 C1668 0.930 . S
H1627 C1669 0.932 . S
H1628 C1671 0.930 . S
H1629 C1672 0.929 . S
H1630 C1674 0.931 . S
H1631 C1675 0.930 . S
H1632 C1677 0.929 . S
H1633 C1678 0.931 . S
H1634 C1680 0.930 . S
H1635 C1681 0.929 . S
O1636 H1610 0.856 . S
O1636 C1682 1.300 . S
O1637 C1682 1.209 1_455 S
O1638 C1683 1.199 1_655 S
O1639 H1611 0.854 . S
O1639 C1683 1.297 . S
C1640 C1641 1.404 . S
C1640 C1645 1.396 1_655 S
C1640 C1646 1.492 . S
C1641 C1640 1.404 . S
C1641 C1642 1.396 . S
C1641 C1652 1.492 . S
C1642 C1641 1.396 . S
C1642 C1643 1.397 . S
C1642 C1658 1.509 . S
C1643 C1642 1.397 . S
C1643 C1644 1.411 1_655 S
C1643 C1664 1.486 1_655 S
C1644 C1643 1.411 1_455 S
C1644 C1645 1.391 . S
C1644 C1670 1.490 . S
C1645 C1640 1.396 1_455 S
C1645 C1644 1.391 . S
C1645 C1676 1.516 . S
C1646 C1640 1.492 . S
C1646 C1647 1.363 . S
C1646 C1651 1.390 1_655 S
C1647 H1612 0.930 . S
C1647 C1646 1.363 . S
C1647 C1648 1.372 . S
C1648 H1613 0.930 . S
C1648 C1647 1.372 . S
C1648 C1649 1.383 . S
C1649 C1648 1.383 . S
C1649 C1650 1.395 1_655 S
C1650 H1614 0.930 . S
C1650 C1649 1.395 1_455 S
C1650 C1651 1.362 . S
C1651 H1615 0.930 . S
C1651 C1646 1.390 1_455 S
C1651 C1650 1.362 . S
C1652 C1641 1.492 . S
C1652 C1653 1.377 . S
C1652 C1657 1.397 1_655 S
C1653 H1616 0.931 . S
C1653 C1652 1.377 . S
C1653 C1654 1.376 . S
C1654 H1617 0.930 . S
C1654 C1653 1.376 . S
C1654 C1655 1.376 . S
C1655 C1654 1.376 . S
C1655 C1656 1.378 1_655 S
C1655 C1682 1.486 . S
C1656 H1618 0.930 . S
C1656 C1655 1.378 1_455 S
C1656 C1657 1.376 . S
C1657 H1619 0.929 . S
C1657 C1652 1.397 1_455 S
C1657 C1656 1.376 . S
C1658 C1642 1.509 . S
C1658 C1659 1.391 . S
C1658 C1663 1.386 1_655 S
C1659 H1620 0.930 . S
C1659 C1658 1.391 . S
C1659 C1660 1.375 . S
C1660 H1621 0.931 . S
C1660 C1659 1.375 . S
C1660 C1661 1.375 . S
C1661 C1660 1.375 . S
C1661 C1662 1.361 1_655 S
C1662 H1622 0.930 . S
C1662 C1661 1.361 1_455 S
C1662 C1663 1.399 . S
C1663 H1623 0.929 . S
C1663 C1658 1.386 1_455 S
C1663 C1662 1.399 . S
C1664 C1643 1.486 1_455 S
C1664 C1665 1.394 1_455 S
C1664 C1669 1.360 . S
C1665 H1624 0.931 . S
C1665 C1664 1.394 1_655 S
C1665 C1666 1.372 . S
C1666 H1625 0.930 . S
C1666 C1665 1.372 . S
C1666 C1667 1.397 1_655 S
C1667 C1666 1.397 1_455 S
C1667 C1668 1.390 . S
C1667 C1683 1.476 . S
C1668 H1626 0.930 . S
C1668 C1667 1.390 . S
C1668 C1669 1.366 . S
C1669 H1627 0.932 . S
C1669 C1664 1.360 . S
C1669 C1668 1.366 . S
C1670 C1644 1.490 . S
C1670 C1671 1.380 1_455 S
C1670 C1675 1.386 . S
C1671 H1628 0.930 . S
C1671 C1670 1.380 1_655 S
C1671 C1672 1.381 . S
C1672 H1629 0.929 . S
C1672 C1671 1.381 . S
C1672 C1673 1.371 1_655 S
C1673 C1672 1.371 1_455 S
C1673 C1674 1.380 . S
C1674 H1630 0.931 . S
C1674 C1673 1.380 . S
C1674 C1675 1.387 . S
C1675 H1631 0.930 . S
C1675 C1670 1.386 . S
C1675 C1674 1.387 . S
C1676 C1645 1.516 . S
C1676 C1677 1.377 1_455 S
C1676 C1681 1.361 . S
C1677 H1632 0.929 . S
C1677 C1676 1.377 1_655 S
C1677 C1678 1.386 . S
C1678 H1633 0.931 . S
C1678 C1677 1.386 . S
C1678 C1679 1.363 1_655 S
C1679 C1678 1.363 1_455 S
C1679 C1680 1.385 . S
C1680 H1634 0.930 . S
C1680 C1679 1.385 . S
C1680 C1681 1.396 . S
C1681 H1635 0.929 . S
C1681 C1676 1.361 . S
C1681 C1680 1.396 . S
C1682 O1636 1.300 . S
C1682 O1637 1.209 1_655 S
C1682 C1655 1.486 . S
C1683 O1638 1.199 1_455 S
C1683 O1639 1.297 . S
C1683 C1667 1.476 . S
H1684 O1710 0.856 . S
H1685 O1713 0.854 . S
H1686 C1721 0.930 . S
H1687 C1722 0.930 . S
H1688 C1724 0.930 . S
H1689 C1725 0.930 . S
H1690 C1727 0.931 . S
H1691 C1728 0.930 . S
H1692 C1730 0.930 . S
H1693 C1731 0.929 . S
H1694 C1733 0.930 . S
H1695 C1734 0.931 . S
H1696 C1736 0.930 . S
H1697 C1737 0.929 . S
H1698 C1739 0.931 . S
H1699 C1740 0.930 . S
H1700 C1742 0.930 . S
H1701 C1743 0.932 . S
H1702 C1745 0.930 . S
H1703 C1746 0.929 . S
H1704 C1748 0.931 . S
H1705 C1749 0.930 . S
H1706 C1751 0.929 . S
H1707 C1752 0.931 . S
H1708 C1754 0.930 . S
H1709 C1755 0.929 . S
O1710 H1684 0.856 . S
O1710 C1756 1.300 . S
O1711 C1756 1.209 . S
O1712 C1757 1.199 . S
O1713 H1685 0.854 . S
O1713 C1757 1.297 . S
C1714 C1715 1.404 . S
C1714 C1719 1.397 . S
C1714 C1720 1.492 . S
C1715 C1714 1.404 . S
C1715 C1716 1.396 . S
C1715 C1726 1.492 . S
C1716 C1715 1.396 . S
C1716 C1717 1.397 . S
C1716 C1732 1.509 . S
C1717 C1716 1.397 . S
C1717 C1718 1.412 . S
C1717 C1738 1.485 . S
C1718 C1717 1.412 . S
C1718 C1719 1.388 . S
C1718 C1744 1.490 . S
C1719 C1714 1.397 . S
C1719 C1718 1.388 . S
C1719 C1750 1.519 . S
C1720 C1714 1.492 . S
C1720 C1721 1.363 . S
C1720 C1725 1.390 . S
C1721 H1686 0.930 . S
C1721 C1720 1.363 . S
C1721 C1722 1.372 . S
C1722 H1687 0.930 . S
C1722 C1721 1.372 . S
C1722 C1723 1.383 . S
C1723 C1722 1.383 . S
C1723 C1724 1.395 . S
C1724 H1688 0.930 . S
C1724 C1723 1.395 . S
C1724 C1725 1.362 . S
C1725 H1689 0.930 . S
C1725 C1720 1.390 . S
C1725 C1724 1.362 . S
C1726 C1715 1.492 . S
C1726 C1727 1.377 . S
C1726 C1731 1.397 . S
C1727 H1690 0.931 . S
C1727 C1726 1.377 . S
C1727 C1728 1.376 . S
C1728 H1691 0.930 . S
C1728 C1727 1.376 . S
C1728 C1729 1.376 . S
C1729 C1728 1.376 . S
C1729 C1730 1.378 . S
C1729 C1756 1.486 . S
C1730 H1692 0.930 . S
C1730 C1729 1.378 . S
C1730 C1731 1.376 . S
C1731 H1693 0.929 . S
C1731 C1726 1.397 . S
C1731 C1730 1.376 . S
C1732 C1716 1.509 . S
C1732 C1733 1.391 . S
C1732 C1737 1.386 . S
C1733 H1694 0.930 . S
C1733 C1732 1.391 . S
C1733 C1734 1.375 . S
C1734 H1695 0.931 . S
C1734 C1733 1.375 . S
C1734 C1735 1.375 . S
C1735 C1734 1.375 . S
C1735 C1736 1.361 . S
C1736 H1696 0.930 . S
C1736 C1735 1.361 . S
C1736 C1737 1.399 . S
C1737 H1697 0.929 . S
C1737 C1732 1.386 . S
C1737 C1736 1.399 . S
C1738 C1717 1.485 . S
C1738 C1739 1.394 . S
C1738 C1743 1.360 . S
C1739 H1698 0.931 . S
C1739 C1738 1.394 . S
C1739 C1740 1.372 . S
C1740 H1699 0.930 . S
C1740 C1739 1.372 . S
C1740 C1741 1.397 . S
C1741 C1740 1.397 . S
C1741 C1742 1.390 . S
C1741 C1757 1.476 . S
C1742 H1700 0.930 . S
C1742 C1741 1.390 . S
C1742 C1743 1.366 . S
C1743 H1701 0.932 . S
C1743 C1738 1.360 . S
C1743 C1742 1.366 . S
C1744 C1718 1.490 . S
C1744 C1745 1.380 . S
C1744 C1749 1.386 . S
C1745 H1702 0.930 . S
C1745 C1744 1.380 . S
C1745 C1746 1.381 . S
C1746 H1703 0.929 . S
C1746 C1745 1.381 . S
C1746 C1747 1.371 . S
C1747 C1746 1.371 . S
C1747 C1748 1.380 . S
C1748 H1704 0.931 . S
C1748 C1747 1.380 . S
C1748 C1749 1.387 . S
C1749 H1705 0.930 . S
C1749 C1744 1.386 . S
C1749 C1748 1.387 . S
C1750 C1719 1.519 . S
C1750 C1751 1.377 . S
C1750 C1755 1.361 . S
C1751 H1706 0.929 . S
C1751 C1750 1.377 . S
C1751 C1752 1.386 . S
C1752 H1707 0.931 . S
C1752 C1751 1.386 . S
C1752 C1753 1.363 . S
C1753 C1752 1.363 . S
C1753 C1754 1.385 . S
C1754 H1708 0.930 . S
C1754 C1753 1.385 . S
C1754 C1755 1.396 . S
C1755 H1709 0.929 . S
C1755 C1750 1.361 . S
C1755 C1754 1.396 . S
C1756 O1710 1.300 . S
C1756 O1711 1.209 . S
C1756 C1729 1.486 . S
C1757 O1712 1.199 . S
C1757 O1713 1.297 . S
C1757 C1741 1.476 . S
H1758 O1784 0.856 . S
H1759 O1787 0.854 . S
H1760 C1795 0.930 . S
H1761 C1796 0.930 . S
H1762 C1798 0.930 . S
H1763 C1799 0.930 . S
H1764 C1801 0.931 . S
H1765 C1802 0.930 . S
H1766 C1804 0.930 . S
H1767 C1805 0.929 . S
H1768 C1807 0.930 . S
H1769 C1808 0.931 . S
H1770 C1810 0.930 . S
H1771 C1811 0.929 . S
H1772 C1813 0.931 . S
H1773 C1814 0.930 . S
H1774 C1816 0.930 . S
H1775 C1817 0.932 . S
H1776 C1819 0.930 . S
H1777 C1820 0.929 . S
H1778 C1822 0.931 . S
H1779 C1823 0.930 . S
H1780 C1825 0.929 . S
H1781 C1826 0.931 . S
H1782 C1828 0.930 . S
H1783 C1829 0.929 . S
O1784 H1758 0.856 . S
O1784 C1830 1.300 . S
O1785 C1830 1.209 . S
O1786 C1831 1.199 . S
O1787 H1759 0.854 . S
O1787 C1831 1.297 . S
C1788 C1789 1.404 . S
C1788 C1793 1.397 . S
C1788 C1794 1.492 . S
C1789 C1788 1.404 . S
C1789 C1790 1.396 . S
C1789 C1800 1.492 . S
C1790 C1789 1.396 . S
C1790 C1791 1.397 . S
C1790 C1806 1.509 . S
C1791 C1790 1.397 . S
C1791 C1792 1.412 . S
C1791 C1812 1.485 . S
C1792 C1791 1.412 . S
C1792 C1793 1.388 . S
C1792 C1818 1.490 . S
C1793 C1788 1.397 . S
C1793 C1792 1.388 . S
C1793 C1824 1.519 . S
C1794 C1788 1.492 . S
C1794 C1795 1.363 . S
C1794 C1799 1.390 . S
C1795 H1760 0.930 . S
C1795 C1794 1.363 . S
C1795 C1796 1.372 . S
C1796 H1761 0.930 . S
C1796 C1795 1.372 . S
C1796 C1797 1.383 . S
C1797 C1796 1.383 . S
C1797 C1798 1.395 . S
C1798 H1762 0.930 . S
C1798 C1797 1.395 . S
C1798 C1799 1.362 . S
C1799 H1763 0.930 . S
C1799 C1794 1.390 . S
C1799 C1798 1.362 . S
C1800 C1789 1.492 . S
C1800 C1801 1.377 . S
C1800 C1805 1.397 . S
C1801 H1764 0.931 . S
C1801 C1800 1.377 . S
C1801 C1802 1.376 . S
C1802 H1765 0.930 . S
C1802 C1801 1.376 . S
C1802 C1803 1.376 . S
C1803 C1802 1.376 . S
C1803 C1804 1.378 . S
C1803 C1830 1.486 . S
C1804 H1766 0.930 . S
C1804 C1803 1.378 . S
C1804 C1805 1.376 . S
C1805 H1767 0.929 . S
C1805 C1800 1.397 . S
C1805 C1804 1.376 . S
C1806 C1790 1.509 . S
C1806 C1807 1.391 . S
C1806 C1811 1.386 . S
C1807 H1768 0.930 . S
C1807 C1806 1.391 . S
C1807 C1808 1.375 . S
C1808 H1769 0.931 . S
C1808 C1807 1.375 . S
C1808 C1809 1.375 . S
C1809 C1808 1.375 . S
C1809 C1810 1.361 . S
C1810 H1770 0.930 . S
C1810 C1809 1.361 . S
C1810 C1811 1.399 . S
C1811 H1771 0.929 . S
C1811 C1806 1.386 . S
C1811 C1810 1.399 . S
C1812 C1791 1.485 . S
C1812 C1813 1.394 . S
C1812 C1817 1.360 . S
C1813 H1772 0.931 . S
C1813 C1812 1.394 . S
C1813 C1814 1.372 . S
C1814 H1773 0.930 . S
C1814 C1813 1.372 . S
C1814 C1815 1.397 . S
C1815 C1814 1.397 . S
C1815 C1816 1.390 . S
C1815 C1831 1.476 . S
C1816 H1774 0.930 . S
C1816 C1815 1.390 . S
C1816 C1817 1.366 . S
C1817 H1775 0.932 . S
C1817 C1812 1.360 . S
C1817 C1816 1.366 . S
C1818 C1792 1.490 . S
C1818 C1819 1.380 . S
C1818 C1823 1.386 . S
C1819 H1776 0.930 . S
C1819 C1818 1.380 . S
C1819 C1820 1.381 . S
C1820 H1777 0.929 . S
C1820 C1819 1.381 . S
C1820 C1821 1.371 . S
C1821 C1820 1.371 . S
C1821 C1822 1.380 . S
C1822 H1778 0.931 . S
C1822 C1821 1.380 . S
C1822 C1823 1.387 . S
C1823 H1779 0.930 . S
C1823 C1818 1.386 . S
C1823 C1822 1.387 . S
C1824 C1793 1.519 . S
C1824 C1825 1.377 . S
C1824 C1829 1.361 . S
C1825 H1780 0.929 . S
C1825 C1824 1.377 . S
C1825 C1826 1.386 . S
C1826 H1781 0.931 . S
C1826 C1825 1.386 . S
C1826 C1827 1.363 . S
C1827 C1826 1.363 . S
C1827 C1828 1.385 . S
C1828 H1782 0.930 . S
C1828 C1827 1.385 . S
C1828 C1829 1.396 . S
C1829 H1783 0.929 . S
C1829 C1824 1.361 . S
C1829 C1828 1.396 . S
C1830 O1784 1.300 . S
C1830 O1785 1.209 . S
C1830 C1803 1.486 . S
C1831 O1786 1.199 . S
C1831 O1787 1.297 . S
C1831 C1815 1.476 . S
H1832 O1858 0.856 . S
H1833 O1861 0.854 . S
H1834 C1869 0.930 . S
H1835 C1870 0.930 . S
H1836 C1872 0.930 . S
H1837 C1873 0.930 . S
H1838 C1875 0.931 . S
H1839 C1876 0.930 . S
H1840 C1878 0.930 . S
H1841 C1879 0.929 . S
H1842 C1881 0.930 . S
H1843 C1882 0.931 . S
H1844 C1884 0.930 . S
H1845 C1885 0.929 . S
H1846 C1887 0.931 . S
H1847 C1888 0.930 . S
H1848 C1890 0.930 . S
H1849 C1891 0.932 . S
H1850 C1893 0.930 . S
H1851 C1894 0.929 . S
H1852 C1896 0.931 . S
H1853 C1897 0.930 . S
H1854 C1899 0.929 . S
H1855 C1900 0.931 . S
H1856 C1902 0.930 . S
H1857 C1903 0.929 . S
O1858 H1832 0.856 . S
O1858 C1904 1.300 . S
O1859 C1904 1.209 . S
O1860 C1905 1.199 . S
O1861 H1833 0.854 . S
O1861 C1905 1.297 . S
C1862 C1863 1.404 . S
C1862 C1867 1.397 . S
C1862 C1868 1.492 . S
C1863 C1862 1.404 . S
C1863 C1864 1.396 . S
C1863 C1874 1.492 . S
C1864 C1863 1.396 . S
C1864 C1865 1.397 . S
C1864 C1880 1.509 . S
C1865 C1864 1.397 . S
C1865 C1866 1.412 . S
C1865 C1886 1.485 . S
C1866 C1865 1.412 . S
C1866 C1867 1.388 . S
C1866 C1892 1.490 . S
C1867 C1862 1.397 . S
C1867 C1866 1.388 . S
C1867 C1898 1.519 . S
C1868 C1862 1.492 . S
C1868 C1869 1.363 . S
C1868 C1873 1.390 . S
C1869 H1834 0.930 . S
C1869 C1868 1.363 . S
C1869 C1870 1.372 . S
C1870 H1835 0.930 . S
C1870 C1869 1.372 . S
C1870 C1871 1.383 . S
C1871 C1870 1.383 . S
C1871 C1872 1.395 . S
C1872 H1836 0.930 . S
C1872 C1871 1.395 . S
C1872 C1873 1.362 . S
C1873 H1837 0.930 . S
C1873 C1868 1.390 . S
C1873 C1872 1.362 . S
C1874 C1863 1.492 . S
C1874 C1875 1.377 . S
C1874 C1879 1.397 . S
C1875 H1838 0.931 . S
C1875 C1874 1.377 . S
C1875 C1876 1.376 . S
C1876 H1839 0.930 . S
C1876 C1875 1.376 . S
C1876 C1877 1.376 . S
C1877 C1876 1.376 . S
C1877 C1878 1.378 . S
C1877 C1904 1.486 . S
C1878 H1840 0.930 . S
C1878 C1877 1.378 . S
C1878 C1879 1.376 . S
C1879 H1841 0.929 . S
C1879 C1874 1.397 . S
C1879 C1878 1.376 . S
C1880 C1864 1.509 . S
C1880 C1881 1.391 . S
C1880 C1885 1.386 . S
C1881 H1842 0.930 . S
C1881 C1880 1.391 . S
C1881 C1882 1.375 . S
C1882 H1843 0.931 . S
C1882 C1881 1.375 . S
C1882 C1883 1.375 . S
C1883 C1882 1.375 . S
C1883 C1884 1.361 . S
C1884 H1844 0.930 . S
C1884 C1883 1.361 . S
C1884 C1885 1.399 . S
C1885 H1845 0.929 . S
C1885 C1880 1.386 . S
C1885 C1884 1.399 . S
C1886 C1865 1.485 . S
C1886 C1887 1.394 . S
C1886 C1891 1.360 . S
C1887 H1846 0.931 . S
C1887 C1886 1.394 . S
C1887 C1888 1.372 . S
C1888 H1847 0.930 . S
C1888 C1887 1.372 . S
C1888 C1889 1.397 . S
C1889 C1888 1.397 . S
C1889 C1890 1.390 . S
C1889 C1905 1.476 . S
C1890 H1848 0.930 . S
C1890 C1889 1.390 . S
C1890 C1891 1.366 . S
C1891 H1849 0.932 . S
C1891 C1886 1.360 . S
C1891 C1890 1.366 . S
C1892 C1866 1.490 . S
C1892 C1893 1.380 . S
C1892 C1897 1.386 . S
C1893 H1850 0.930 . S
C1893 C1892 1.380 . S
C1893 C1894 1.381 . S
C1894 H1851 0.929 . S
C1894 C1893 1.381 . S
C1894 C1895 1.371 . S
C1895 C1894 1.371 . S
C1895 C1896 1.380 . S
C1896 H1852 0.931 . S
C1896 C1895 1.380 . S
C1896 C1897 1.387 . S
C1897 H1853 0.930 . S
C1897 C1892 1.386 . S
C1897 C1896 1.387 . S
C1898 C1867 1.519 . S
C1898 C1899 1.377 . S
C1898 C1903 1.361 . S
C1899 H1854 0.929 . S
C1899 C1898 1.377 . S
C1899 C1900 1.386 . S
C1900 H1855 0.931 . S
C1900 C1899 1.386 . S
C1900 C1901 1.363 . S
C1901 C1900 1.363 . S
C1901 C1902 1.385 . S
C1902 H1856 0.930 . S
C1902 C1901 1.385 . S
C1902 C1903 1.396 . S
C1903 H1857 0.929 . S
C1903 C1898 1.361 . S
C1903 C1902 1.396 . S
C1904 O1858 1.300 . S
C1904 O1859 1.209 . S
C1904 C1877 1.486 . S
C1905 O1860 1.199 . S
C1905 O1861 1.297 . S
C1905 C1889 1.476 . S
H1906 O1932 0.856 . S
H1907 O1935 0.854 . S
H1908 C1943 0.930 . S
H1909 C1944 0.930 . S
H1910 C1946 0.930 . S
H1911 C1947 0.930 . S
H1912 C1949 0.931 . S
H1913 C1950 0.930 . S
H1914 C1952 0.930 . S
H1915 C1953 0.929 . S
H1916 C1955 0.930 . S
H1917 C1956 0.931 . S
H1918 C1958 0.930 . S
H1919 C1959 0.929 . S
H1920 C1961 0.931 . S
H1921 C1962 0.930 . S
H1922 C1964 0.930 . S
H1923 C1965 0.932 . S
H1924 C1967 0.930 . S
H1925 C1968 0.929 . S
H1926 C1970 0.931 . S
H1927 C1971 0.930 . S
H1928 C1973 0.929 . S
H1929 C1974 0.931 . S
H1930 C1976 0.930 . S
H1931 C1977 0.929 . S
O1932 H1906 0.856 . S
O1932 C1978 1.300 . S
O1933 C1978 1.209 . S
O1934 C1979 1.199 . S
O1935 H1907 0.854 . S
O1935 C1979 1.297 . S
C1936 C1937 1.404 . S
C1936 C1941 1.397 . S
C1936 C1942 1.492 . S
C1937 C1936 1.404 . S
C1937 C1938 1.396 . S
C1937 C1948 1.492 . S
C1938 C1937 1.396 . S
C1938 C1939 1.397 . S
C1938 C1954 1.509 . S
C1939 C1938 1.397 . S
C1939 C1940 1.412 . S
C1939 C1960 1.485 . S
C1940 C1939 1.412 . S
C1940 C1941 1.388 . S
C1940 C1966 1.490 . S
C1941 C1936 1.397 . S
C1941 C1940 1.388 . S
C1941 C1972 1.519 . S
C1942 C1936 1.492 . S
C1942 C1943 1.363 . S
C1942 C1947 1.390 . S
C1943 H1908 0.930 . S
C1943 C1942 1.363 . S
C1943 C1944 1.372 . S
C1944 H1909 0.930 . S
C1944 C1943 1.372 . S
C1944 C1945 1.383 . S
C1945 C1944 1.383 . S
C1945 C1946 1.395 . S
C1946 H1910 0.930 . S
C1946 C1945 1.395 . S
C1946 C1947 1.362 . S
C1947 H1911 0.930 . S
C1947 C1942 1.390 . S
C1947 C1946 1.362 . S
C1948 C1937 1.492 . S
C1948 C1949 1.377 . S
C1948 C1953 1.397 . S
C1949 H1912 0.931 . S
C1949 C1948 1.377 . S
C1949 C1950 1.376 . S
C1950 H1913 0.930 . S
C1950 C1949 1.376 . S
C1950 C1951 1.376 . S
C1951 C1950 1.376 . S
C1951 C1952 1.378 . S
C1951 C1978 1.486 . S
C1952 H1914 0.930 . S
C1952 C1951 1.378 . S
C1952 C1953 1.376 . S
C1953 H1915 0.929 . S
C1953 C1948 1.397 . S
C1953 C1952 1.376 . S
C1954 C1938 1.509 . S
C1954 C1955 1.391 . S
C1954 C1959 1.386 . S
C1955 H1916 0.930 . S
C1955 C1954 1.391 . S
C1955 C1956 1.375 . S
C1956 H1917 0.931 . S
C1956 C1955 1.375 . S
C1956 C1957 1.375 . S
C1957 C1956 1.375 . S
C1957 C1958 1.361 . S
C1958 H1918 0.930 . S
C1958 C1957 1.361 . S
C1958 C1959 1.399 . S
C1959 H1919 0.929 . S
C1959 C1954 1.386 . S
C1959 C1958 1.399 . S
C1960 C1939 1.485 . S
C1960 C1961 1.394 . S
C1960 C1965 1.360 . S
C1961 H1920 0.931 . S
C1961 C1960 1.394 . S
C1961 C1962 1.372 . S
C1962 H1921 0.930 . S
C1962 C1961 1.372 . S
C1962 C1963 1.397 . S
C1963 C1962 1.397 . S
C1963 C1964 1.390 . S
C1963 C1979 1.476 . S
C1964 H1922 0.930 . S
C1964 C1963 1.390 . S
C1964 C1965 1.366 . S
C1965 H1923 0.932 . S
C1965 C1960 1.360 . S
C1965 C1964 1.366 . S
C1966 C1940 1.490 . S
C1966 C1967 1.380 . S
C1966 C1971 1.386 . S
C1967 H1924 0.930 . S
C1967 C1966 1.380 . S
C1967 C1968 1.381 . S
C1968 H1925 0.929 . S
C1968 C1967 1.381 . S
C1968 C1969 1.371 . S
C1969 C1968 1.371 . S
C1969 C1970 1.380 . S
C1970 H1926 0.931 . S
C1970 C1969 1.380 . S
C1970 C1971 1.387 . S
C1971 H1927 0.930 . S
C1971 C1966 1.386 . S
C1971 C1970 1.387 . S
C1972 C1941 1.519 . S
C1972 C1973 1.377 . S
C1972 C1977 1.361 . S
C1973 H1928 0.929 . S
C1973 C1972 1.377 . S
C1973 C1974 1.386 . S
C1974 H1929 0.931 . S
C1974 C1973 1.386 . S
C1974 C1975 1.363 . S
C1975 C1974 1.363 . S
C1975 C1976 1.385 . S
C1976 H1930 0.930 . S
C1976 C1975 1.385 . S
C1976 C1977 1.396 . S
C1977 H1931 0.929 . S
C1977 C1972 1.361 . S
C1977 C1976 1.396 . S
C1978 O1932 1.300 . S
C1978 O1933 1.209 . S
C1978 C1951 1.486 . S
C1979 O1934 1.199 . S
C1979 O1935 1.297 . S
C1979 C1963 1.476 . S
C1980 C1981 1.363 . S
C1980 C1986 1.379 . S
C1980 N1988 1.356 . S
C1981 C1980 1.363 . S
C1981 C1987 1.363 1_655 S
C1982 C1983 1.363 . S
C1982 C1987 1.379 1_655 S
C1982 N1989 1.340 . S
C1983 C1982 1.363 . S
C1983 C1986 1.363 . S
N1984 C1986 1.356 . S
N1984 H1996 0.984 . S
N1984 H1997 0.985 . S
N1985 C1987 1.356 . S
N1985 H1990 0.984 . S
N1985 H1991 0.985 . S
C1986 C1980 1.379 . S
C1986 C1983 1.363 . S
C1986 N1984 1.356 . S
C1987 C1981 1.363 1_455 S
C1987 C1982 1.379 1_455 S
C1987 N1985 1.356 . S
N1988 C1980 1.356 . S
N1988 H1994 0.984 . S
N1988 H1995 0.984 . S
N1989 C1982 1.340 . S
N1989 H1992 1.020 . S
N1989 H1993 0.969 1_655 S
H1990 N1985 0.984 . S
H1991 N1985 0.985 . S
H1992 N1989 1.020 . S
H1993 N1989 0.969 1_455 S
H1994 N1988 0.984 . S
H1995 N1988 0.984 . S
H1996 N1984 0.984 . S
H1997 N1984 0.985 . S
C1998 C1999 1.363 . S
C1998 C2004 1.379 . S
C1998 N2006 1.356 . S
C1999 C1998 1.363 . S
C1999 C2005 1.363 . S
C2000 C2001 1.363 . S
C2000 C2005 1.379 . S
C2000 N2007 1.356 . S
C2001 C2000 1.363 . S
C2001 C2004 1.363 . S
N2002 C2004 1.356 . S
N2002 H2014 0.984 . S
N2002 H2015 0.985 . S
N2003 C2005 1.356 . S
N2003 H2008 0.984 . S
N2003 H2009 0.985 . S
C2004 C1998 1.379 . S
C2004 C2001 1.363 . S
C2004 N2002 1.356 . S
C2005 C1999 1.363 . S
C2005 C2000 1.379 . S
C2005 N2003 1.356 . S
N2006 C1998 1.356 . S
N2006 H2012 0.984 . S
N2006 H2013 0.984 . S
N2007 C2000 1.356 . S
N2007 H2010 0.984 . S
N2007 H2011 0.985 . S
H2008 N2003 0.984 . S
H2009 N2003 0.985 . S
H2010 N2007 0.984 . S
H2011 N2007 0.985 . S
H2012 N2006 0.984 . S
H2013 N2006 0.984 . S
H2014 N2002 0.984 . S
H2015 N2002 0.985 . S
C2016 C2017 1.363 . S
C2016 C2022 1.379 . S
C2016 N2024 1.356 . S
C2017 C2016 1.363 . S
C2017 C2023 1.351 1_545 S
C2018 C2019 1.363 . S
C2018 C2023 1.385 1_545 S
C2018 N2025 1.356 1_545 S
C2019 C2018 1.363 . S
C2019 C2022 1.363 . S
N2020 C2022 1.356 . S
N2020 H2032 0.984 . S
N2020 H2033 0.985 . S
N2021 C2023 1.359 . S
N2021 H2026 0.984 . S
N2021 H2027 0.985 . S
C2022 C2016 1.379 . S
C2022 C2019 1.363 . S
C2022 N2020 1.356 . S
C2023 C2017 1.351 1_565 S
C2023 C2018 1.385 1_565 S
C2023 N2021 1.359 . S
N2024 C2016 1.356 . S
N2024 H2030 0.984 . S
N2024 H2031 0.984 . S
N2025 C2018 1.356 1_565 S
N2025 H2028 0.983 . S
N2025 H2029 0.985 . S
H2026 N2021 0.984 . S
H2027 N2021 0.985 . S
H2028 N2025 0.983 . S
H2029 N2025 0.985 . S
H2030 N2024 0.984 . S
H2031 N2024 0.984 . S
H2032 N2020 0.984 . S
H2033 N2020 0.985 . S
C2034 C2035 1.363 1_545 S
C2034 C2040 1.379 . S
C2034 N2042 1.356 . S
C2035 C2034 1.363 1_565 S
C2035 C2041 1.363 . S
C2036 C2037 1.363 . S
C2036 C2041 1.379 . S
C2036 N2043 1.356 . S
C2037 C2036 1.363 . S
C2037 C2040 1.363 1_565 S
N2038 C2040 1.356 . S
N2038 H2050 0.984 . S
N2038 H2051 0.985 . S
N2039 C2041 1.356 . S
N2039 H2044 0.984 . S
N2039 H2045 0.985 . S
C2040 C2034 1.379 . S
C2040 C2037 1.363 1_545 S
C2040 N2038 1.356 . S
C2041 C2035 1.363 . S
C2041 C2036 1.379 . S
C2041 N2039 1.356 . S
N2042 C2034 1.356 . S
N2042 H2048 0.984 . S
N2042 H2049 0.984 . S
N2043 C2036 1.356 . S
N2043 H2046 0.984 . S
N2043 H2047 0.985 . S
H2044 N2039 0.984 . S
H2045 N2039 0.985 . S
H2046 N2043 0.984 . S
H2047 N2043 0.985 . S
H2048 N2042 0.984 . S
H2049 N2042 0.984 . S
H2050 N2038 0.984 . S
H2051 N2038 0.985 . S
C2052 C2053 1.363 . S
C2052 C2058 1.379 . S
C2052 N2060 1.356 1_455 S
C2053 C2052 1.363 . S
C2053 C2059 1.363 . S
C2054 C2055 1.363 . S
C2054 C2059 1.379 . S
C2054 N2061 1.356 . S
C2055 C2054 1.363 . S
C2055 C2058 1.363 . S
N2056 C2058 1.356 1_655 S
N2056 H2068 0.984 . S
N2056 H2069 0.985 . S
N2057 C2059 1.317 1_554 S
N2057 H2062 1.009 . S
N2057 H2063 1.001 . S
C2058 C2052 1.379 . S
C2058 C2055 1.363 . S
C2058 N2056 1.356 1_455 S
C2059 C2053 1.363 . S
C2059 C2054 1.379 . S
C2059 N2057 1.317 1_556 S
N2060 C2052 1.356 1_655 S
N2060 H2066 0.984 . S
N2060 H2067 0.984 . S
N2061 C2054 1.356 . S
N2061 H2064 0.984 . S
N2061 H2065 0.985 . S
H2062 N2057 1.009 . S
H2063 N2057 1.001 . S
H2064 N2061 0.984 . S
H2065 N2061 0.985 . S
H2066 N2060 0.984 . S
H2067 N2060 0.984 . S
H2068 N2056 0.984 . S
H2069 N2056 0.985 . S
C2070 C2071 1.363 . S
C2070 C2076 1.379 . S
C2070 N2078 1.356 1_556 S
C2071 C2070 1.363 . S
C2071 C2077 1.363 . S
C2072 C2073 1.363 . S
C2072 C2077 1.379 . S
C2072 N2079 1.356 . S
C2073 C2072 1.363 . S
C2073 C2076 1.363 . S
N2074 C2076 1.356 . S
N2074 H2086 0.984 . S
N2074 H2087 0.985 . S
N2075 C2077 1.356 1_554 S
N2075 H2080 0.984 . S
N2075 H2081 0.987 . S
C2076 C2070 1.379 . S
C2076 C2073 1.363 . S
C2076 N2074 1.356 . S
C2077 C2071 1.363 . S
C2077 C2072 1.379 . S
C2077 N2075 1.356 1_556 S
N2078 C2070 1.356 1_554 S
N2078 H2084 0.984 1_554 S
N2078 H2085 0.984 . S
N2079 C2072 1.356 . S
N2079 H2082 0.984 . S
N2079 H2083 0.985 . S
H2080 N2075 0.984 . S
H2081 N2075 0.987 . S
H2082 N2079 0.984 . S
H2083 N2079 0.985 . S
H2084 N2078 0.984 1_556 S
H2085 N2078 0.984 . S
H2086 N2074 0.984 . S
H2087 N2074 0.985 . S
C2088 C2089 1.363 . S
C2088 C2094 1.379 . S
C2088 N2096 1.356 . S
C2089 C2088 1.363 . S
C2089 C2095 1.363 1_556 S
C2090 C2091 1.363 . S
C2090 C2095 1.379 1_556 S
C2090 N2097 1.360 . S
C2091 C2090 1.363 . S
C2091 C2094 1.363 . S
N2092 C2094 1.356 1_655 S
N2092 H2104 0.984 . S
N2092 H2105 0.985 . S
N2093 C2095 1.356 . S
N2093 H2098 0.984 . S
N2093 H2099 0.985 . S
C2094 C2088 1.379 . S
C2094 C2091 1.363 . S
C2094 N2092 1.356 1_455 S
C2095 C2089 1.363 1_554 S
C2095 C2090 1.379 1_554 S
C2095 N2093 1.356 . S
N2096 C2088 1.356 . S
N2096 H2102 0.984 1_455 S
N2096 H2103 0.984 . S
N2097 C2090 1.360 . S
N2097 H2100 0.997 . S
N2097 H2101 0.969 1_556 S
H2098 N2093 0.984 . S
H2099 N2093 0.985 . S
H2100 N2097 0.997 . S
H2101 N2097 0.969 1_554 S
H2102 N2096 0.984 1_655 S
H2103 N2096 0.984 . S
H2104 N2092 0.984 . S
H2105 N2092 0.985 . S
C2106 C2107 1.363 . S
C2106 C2112 1.379 . S
C2106 N2114 1.356 . S
C2107 C2106 1.363 . S
C2107 C2113 1.363 . S
C2108 C2109 1.363 . S
C2108 C2113 1.379 . S
C2108 N2115 1.356 . S
C2109 C2108 1.363 . S
C2109 C2112 1.363 . S
N2110 C2112 1.356 . S
N2110 H2122 0.984 . S
N2110 H2123 0.985 . S
N2111 C2113 1.356 . S
N2111 H2116 0.984 . S
N2111 H2117 0.985 . S
C2112 C2106 1.379 . S
C2112 C2109 1.363 . S
C2112 N2110 1.356 . S
C2113 C2107 1.363 . S
C2113 C2108 1.379 . S
C2113 N2111 1.356 . S
N2114 C2106 1.356 . S
N2114 H2120 0.984 . S
N2114 H2121 0.984 . S
N2115 C2108 1.356 . S
N2115 H2118 0.984 . S
N2115 H2119 0.985 . S
H2116 N2111 0.984 . S
H2117 N2111 0.985 . S
H2118 N2115 0.984 . S
H2119 N2115 0.985 . S
H2120 N2114 0.984 . S
H2121 N2114 0.984 . S
H2122 N2110 0.984 . S
H2123 N2110 0.985 . S
C2124 C2125 1.363 1_545 S
C2124 C2130 1.379 . S
C2124 N2132 1.356 1_556 S
C2125 C2124 1.363 1_565 S
C2125 C2131 1.363 . S
C2126 C2127 1.363 1_565 S
C2126 C2131 1.379 . S
C2126 N2133 1.356 . S
C2127 C2126 1.363 1_545 S
C2127 C2130 1.363 . S
N2128 C2130 1.356 . S
N2128 H2140 0.984 . S
N2128 H2141 0.985 . S
N2129 C2131 1.356 . S
N2129 H2134 0.984 . S
N2129 H2135 0.985 . S
C2130 C2124 1.379 . S
C2130 C2127 1.363 . S
C2130 N2128 1.356 . S
C2131 C2125 1.363 . S
C2131 C2126 1.379 . S
C2131 N2129 1.356 . S
N2132 C2124 1.356 1_554 S
N2132 H2138 0.984 . S
N2132 H2139 0.984 . S
N2133 C2126 1.356 . S
N2133 H2136 0.984 . S
N2133 H2137 0.985 . S
H2134 N2129 0.984 . S
H2135 N2129 0.985 . S
H2136 N2133 0.984 . S
H2137 N2133 0.985 . S
H2138 N2132 0.984 . S
H2139 N2132 0.984 . S
H2140 N2128 0.984 . S
H2141 N2128 0.985 . S
C2142 C2143 1.363 . S
C2142 C2148 1.379 1_545 S
C2142 N2150 1.356 1_545 S
C2143 C2142 1.363 . S
C2143 C2149 1.363 . S
C2144 C2145 1.363 . S
C2144 C2149 1.379 . S
C2144 N2151 1.356 . S
C2145 C2144 1.363 . S
C2145 C2148 1.363 1_545 S
N2146 C2148 1.356 . S
N2146 H2158 0.984 . S
N2146 H2159 0.985 . S
N2147 C2149 1.356 . S
N2147 H2152 0.984 . S
N2147 H2153 0.985 . S
C2148 C2142 1.379 1_565 S
C2148 C2145 1.363 1_565 S
C2148 N2146 1.356 . S
C2149 C2143 1.363 . S
C2149 C2144 1.379 . S
C2149 N2147 1.356 . S
N2150 C2142 1.356 1_565 S
N2150 H2156 0.984 . S
N2150 H2157 0.984 1_565 S
N2151 C2144 1.356 . S
N2151 H2154 0.984 . S
N2151 H2155 0.985 . S
H2152 N2147 0.984 . S
H2153 N2147 0.985 . S
H2154 N2151 0.984 . S
H2155 N2151 0.985 . S
H2156 N2150 0.984 . S
H2157 N2150 0.984 1_545 S
H2158 N2146 0.984 . S
H2159 N2146 0.985 . S
C2160 C2161 1.363 1_455 S
C2160 C2166 1.379 . S
C2160 N2168 1.356 . S
C2161 C2160 1.363 1_655 S
C2161 C2167 1.363 . S
C2162 C2163 1.363 . S
C2162 C2167 1.379 . S
C2162 N2169 1.356 . S
C2163 C2162 1.363 . S
C2163 C2166 1.363 1_655 S
N2164 C2166 1.356 . S
N2164 H2176 0.984 . S
N2164 H2177 0.985 . S
N2165 C2167 1.356 . S
N2165 H2170 0.984 . S
N2165 H2171 0.985 . S
C2166 C2160 1.379 . S
C2166 C2163 1.363 1_455 S
C2166 N2164 1.356 . S
C2167 C2161 1.363 . S
C2167 C2162 1.379 . S
C2167 N2165 1.356 . S
N2168 C2160 1.356 . S
N2168 H2174 0.984 . S
N2168 H2175 0.984 . S
N2169 C2162 1.356 . S
N2169 H2172 0.984 . S
N2169 H2173 0.985 . S
H2170 N2165 0.984 . S
H2171 N2165 0.985 . S
H2172 N2169 0.984 . S
H2173 N2169 0.985 . S
H2174 N2168 0.984 . S
H2175 N2168 0.984 . S
H2176 N2164 0.984 . S
H2177 N2164 0.985 . S
C2178 C2179 1.363 . S
C2178 C2184 1.379 . S
C2178 N2186 1.356 . S
C2179 C2178 1.363 . S
C2179 C2185 1.363 . S
C2180 C2181 1.363 . S
C2180 C2185 1.379 . S
C2180 N2187 1.356 . S
C2181 C2180 1.363 . S
C2181 C2184 1.363 . S
N2182 C2184 1.356 . S
N2182 H2194 0.984 . S
N2182 H2195 0.985 . S
N2183 C2185 1.356 . S
N2183 H2188 0.984 . S
N2183 H2189 0.985 . S
C2184 C2178 1.379 . S
C2184 C2181 1.363 . S
C2184 N2182 1.356 . S
C2185 C2179 1.363 . S
C2185 C2180 1.379 . S
C2185 N2183 1.356 . S
N2186 C2178 1.356 . S
N2186 H2192 0.984 . S
N2186 H2193 0.984 . S
N2187 C2180 1.356 . S
N2187 H2190 0.984 . S
N2187 H2191 0.985 . S
H2188 N2183 0.984 . S
H2189 N2183 0.985 . S
H2190 N2187 0.984 . S
H2191 N2187 0.985 . S
H2192 N2186 0.984 . S
H2193 N2186 0.984 . S
H2194 N2182 0.984 . S
H2195 N2182 0.985 . S
C2196 C2197 1.363 . S
C2196 C2202 1.379 . S
C2196 N2204 1.356 . S
C2197 C2196 1.363 . S
C2197 C2203 1.363 . S
C2198 C2199 1.363 . S
C2198 C2203 1.379 . S
C2198 N2205 1.356 . S
C2199 C2198 1.363 . S
C2199 C2202 1.363 . S
N2200 C2202 1.356 . S
N2200 H2212 0.984 . S
N2200 H2213 0.985 . S
N2201 C2203 1.356 . S
N2201 H2206 0.984 . S
N2201 H2207 0.985 . S
C2202 C2196 1.379 . S
C2202 C2199 1.363 . S
C2202 N2200 1.356 . S
C2203 C2197 1.363 . S
C2203 C2198 1.379 . S
C2203 N2201 1.356 . S
N2204 C2196 1.356 . S
N2204 H2210 0.984 . S
N2204 H2211 0.984 . S
N2205 C2198 1.356 . S
N2205 H2208 0.984 . S
N2205 H2209 0.985 . S
H2206 N2201 0.984 . S
H2207 N2201 0.985 . S
H2208 N2205 0.984 . S
H2209 N2205 0.985 . S
H2210 N2204 0.984 . S
H2211 N2204 0.984 . S
H2212 N2200 0.984 . S
H2213 N2200 0.985 . S
C2214 C2215 1.363 . S
C2214 C2220 1.379 . S
C2214 N2222 1.356 . S
C2215 C2214 1.363 . S
C2215 C2221 1.363 . S
C2216 C2217 1.363 . S
C2216 C2221 1.379 . S
C2216 N2223 1.356 . S
C2217 C2216 1.363 . S
C2217 C2220 1.363 . S
N2218 C2220 1.356 . S
N2218 H2230 0.984 . S
N2218 H2231 0.985 . S
N2219 C2221 1.356 . S
N2219 H2224 0.984 . S
N2219 H2225 0.985 . S
C2220 C2214 1.379 . S
C2220 C2217 1.363 . S
C2220 N2218 1.356 . S
C2221 C2215 1.363 . S
C2221 C2216 1.379 . S
C2221 N2219 1.356 . S
N2222 C2214 1.356 . S
N2222 H2228 0.984 . S
N2222 H2229 0.984 . S
N2223 C2216 1.356 . S
N2223 H2226 0.984 . S
N2223 H2227 0.985 . S
H2224 N2219 0.984 . S
H2225 N2219 0.985 . S
H2226 N2223 0.984 . S
H2227 N2223 0.985 . S
H2228 N2222 0.984 . S
H2229 N2222 0.984 . S
H2230 N2218 0.984 . S
H2231 N2218 0.985 . S
C2232 C2233 1.363 . S
C2232 C2238 1.379 . S
C2232 N2240 1.356 . S
C2233 C2232 1.363 . S
C2233 C2239 1.363 . S
C2234 C2235 1.363 . S
C2234 C2239 1.379 . S
C2234 N2241 1.356 . S
C2235 C2234 1.363 . S
C2235 C2238 1.363 . S
N2236 C2238 1.356 . S
N2236 H2248 0.984 . S
N2236 H2249 0.985 . S
N2237 C2239 1.356 . S
N2237 H2242 0.984 . S
N2237 H2243 0.985 . S
C2238 C2232 1.379 . S
C2238 C2235 1.363 . S
C2238 N2236 1.356 . S
C2239 C2233 1.363 . S
C2239 C2234 1.379 . S
C2239 N2237 1.356 . S
N2240 C2232 1.356 . S
N2240 H2246 0.984 . S
N2240 H2247 0.984 . S
N2241 C2234 1.356 . S
N2241 H2244 0.984 . S
N2241 H2245 0.985 . S
H2242 N2237 0.984 . S
H2243 N2237 0.985 . S
H2244 N2241 0.984 . S
H2245 N2241 0.985 . S
H2246 N2240 0.984 . S
H2247 N2240 0.984 . S
H2248 N2236 0.984 . S
H2249 N2236 0.985 . S
C2250 C2251 1.363 . S
C2250 C2256 1.379 . S
C2250 N2258 1.356 . S
C2251 C2250 1.363 . S
C2251 C2257 1.363 . S
C2252 C2253 1.363 . S
C2252 C2257 1.379 . S
C2252 N2259 1.356 . S
C2253 C2252 1.363 . S
C2253 C2256 1.363 . S
N2254 C2256 1.356 . S
N2254 H2266 0.984 . S
N2254 H2267 0.985 . S
N2255 C2257 1.356 . S
N2255 H2260 0.984 . S
N2255 H2261 0.985 . S
C2256 C2250 1.379 . S
C2256 C2253 1.363 . S
C2256 N2254 1.356 . S
C2257 C2251 1.363 . S
C2257 C2252 1.379 . S
C2257 N2255 1.356 . S
N2258 C2250 1.356 . S
N2258 H2264 0.984 . S
N2258 H2265 0.984 . S
N2259 C2252 1.356 . S
N2259 H2262 0.984 . S
N2259 H2263 0.985 . S
H2260 N2255 0.984 . S
H2261 N2255 0.985 . S
H2262 N2259 0.984 . S
H2263 N2259 0.985 . S
H2264 N2258 0.984 . S
H2265 N2258 0.984 . S
H2266 N2254 0.984 . S
H2267 N2254 0.985 . S
C2268 C2269 1.363 . S
C2268 C2274 1.379 . S
C2268 N2276 1.356 . S
C2269 C2268 1.363 . S
C2269 C2275 1.363 . S
C2270 C2271 1.363 . S
C2270 C2275 1.379 . S
C2270 N2277 1.356 . S
C2271 C2270 1.363 . S
C2271 C2274 1.363 . S
N2272 C2274 1.356 . S
N2272 H2284 0.984 . S
N2272 H2285 0.985 . S
N2273 C2275 1.356 . S
N2273 H2278 0.984 . S
N2273 H2279 0.985 . S
C2274 C2268 1.379 . S
C2274 C2271 1.363 . S
C2274 N2272 1.356 . S
C2275 C2269 1.363 . S
C2275 C2270 1.379 . S
C2275 N2273 1.356 . S
N2276 C2268 1.356 . S
N2276 H2282 0.984 . S
N2276 H2283 0.984 . S
N2277 C2270 1.356 . S
N2277 H2280 0.984 . S
N2277 H2281 0.985 . S
H2278 N2273 0.984 . S
H2279 N2273 0.985 . S
H2280 N2277 0.984 . S
H2281 N2277 0.985 . S
H2282 N2276 0.984 . S
H2283 N2276 0.984 . S
H2284 N2272 0.984 . S
H2285 N2272 0.985 . S
C2286 C2287 1.363 . S
C2286 C2292 1.379 . S
C2286 N2294 1.356 . S
C2287 C2286 1.363 . S
C2287 C2293 1.363 . S
C2288 C2289 1.363 . S
C2288 C2293 1.379 . S
C2288 N2295 1.356 . S
C2289 C2288 1.363 . S
C2289 C2292 1.363 . S
N2290 C2292 1.356 . S
N2290 H2302 0.984 . S
N2290 H2303 0.985 . S
N2291 C2293 1.356 . S
N2291 H2296 0.984 . S
N2291 H2297 0.985 . S
C2292 C2286 1.379 . S
C2292 C2289 1.363 . S
C2292 N2290 1.356 . S
C2293 C2287 1.363 . S
C2293 C2288 1.379 . S
C2293 N2291 1.356 . S
N2294 C2286 1.356 . S
N2294 H2300 0.984 . S
N2294 H2301 0.984 . S
N2295 C2288 1.356 . S
N2295 H2298 0.984 . S
N2295 H2299 0.985 . S
H2296 N2291 0.984 . S
H2297 N2291 0.985 . S
H2298 N2295 0.984 . S
H2299 N2295 0.985 . S
H2300 N2294 0.984 . S
H2301 N2294 0.984 . S
H2302 N2290 0.984 . S
H2303 N2290 0.985 . S
C2304 C2305 1.363 . S
C2304 C2310 1.379 . S
C2304 N2312 1.356 . S
C2305 C2304 1.363 . S
C2305 C2311 1.363 . S
C2306 C2307 1.363 . S
C2306 C2311 1.379 . S
C2306 N2313 1.356 . S
C2307 C2306 1.363 . S
C2307 C2310 1.363 . S
N2308 C2310 1.356 . S
N2308 H2320 0.984 . S
N2308 H2321 0.985 . S
N2309 C2311 1.356 . S
N2309 H2314 0.984 . S
N2309 H2315 0.985 . S
C2310 C2304 1.379 . S
C2310 C2307 1.363 . S
C2310 N2308 1.356 . S
C2311 C2305 1.363 . S
C2311 C2306 1.379 . S
C2311 N2309 1.356 . S
N2312 C2304 1.356 . S
N2312 H2318 0.984 . S
N2312 H2319 0.984 . S
N2313 C2306 1.356 . S
N2313 H2316 0.984 . S
N2313 H2317 0.985 . S
H2314 N2309 0.984 . S
H2315 N2309 0.985 . S
H2316 N2313 0.984 . S
H2317 N2313 0.985 . S
H2318 N2312 0.984 . S
H2319 N2312 0.984 . S
H2320 N2308 0.984 . S
H2321 N2308 0.985 . S
C2322 C2323 1.363 . S
C2322 C2328 1.379 . S
C2322 N2330 1.356 . S
C2323 C2322 1.363 . S
C2323 C2329 1.363 . S
C2324 C2325 1.363 . S
C2324 C2329 1.379 . S
C2324 N2331 1.356 . S
C2325 C2324 1.363 . S
C2325 C2328 1.363 . S
N2326 C2328 1.356 . S
N2326 H2338 0.984 . S
N2326 H2339 0.985 . S
N2327 C2329 1.356 . S
N2327 H2332 0.984 . S
N2327 H2333 0.985 . S
C2328 C2322 1.379 . S
C2328 C2325 1.363 . S
C2328 N2326 1.356 . S
C2329 C2323 1.363 . S
C2329 C2324 1.379 . S
C2329 N2327 1.356 . S
N2330 C2322 1.356 . S
N2330 H2336 0.984 . S
N2330 H2337 0.984 . S
N2331 C2324 1.356 . S
N2331 H2334 0.984 . S
N2331 H2335 0.985 . S
H2332 N2327 0.984 . S
H2333 N2327 0.985 . S
H2334 N2331 0.984 . S
H2335 N2331 0.985 . S
H2336 N2330 0.984 . S
H2337 N2330 0.984 . S
H2338 N2326 0.984 . S
H2339 N2326 0.985 . S
C2340 C2341 1.363 . S
C2340 C2346 1.379 . S
C2340 N2348 1.356 . S
C2341 C2340 1.363 . S
C2341 C2347 1.363 . S
C2342 C2343 1.363 . S
C2342 C2347 1.379 . S
C2342 N2349 1.356 . S
C2343 C2342 1.363 . S
C2343 C2346 1.363 . S
N2344 C2346 1.356 . S
N2344 H2356 0.984 . S
N2344 H2357 0.985 . S
N2345 C2347 1.356 . S
N2345 H2350 0.984 . S
N2345 H2351 0.985 . S
C2346 C2340 1.379 . S
C2346 C2343 1.363 . S
C2346 N2344 1.356 . S
C2347 C2341 1.363 . S
C2347 C2342 1.379 . S
C2347 N2345 1.356 . S
N2348 C2340 1.356 . S
N2348 H2354 0.984 . S
N2348 H2355 0.984 . S
N2349 C2342 1.356 . S
N2349 H2352 0.984 . S
N2349 H2353 0.985 . S
H2350 N2345 0.984 . S
H2351 N2345 0.985 . S
H2352 N2349 0.984 . S
H2353 N2349 0.985 . S
H2354 N2348 0.984 . S
H2355 N2348 0.984 . S
H2356 N2344 0.984 . S
H2357 N2344 0.985 . S
C2358 C2359 1.363 . S
C2358 C2364 1.379 . S
C2358 N2366 1.356 . S
C2359 C2358 1.363 . S
C2359 C2365 1.363 . S
C2360 C2361 1.363 . S
C2360 C2365 1.379 . S
C2360 N2367 1.356 . S
C2361 C2360 1.363 . S
C2361 C2364 1.363 . S
N2362 C2364 1.356 . S
N2362 H2374 0.984 . S
N2362 H2375 0.985 . S
N2363 C2365 1.356 . S
N2363 H2368 0.984 . S
N2363 H2369 0.985 . S
C2364 C2358 1.379 . S
C2364 C2361 1.363 . S
C2364 N2362 1.356 . S
C2365 C2359 1.363 . S
C2365 C2360 1.379 . S
C2365 N2363 1.356 . S
N2366 C2358 1.356 . S
N2366 H2372 0.984 . S
N2366 H2373 0.984 . S
N2367 C2360 1.356 . S
N2367 H2370 0.984 . S
N2367 H2371 0.985 . S
H2368 N2363 0.984 . S
H2369 N2363 0.985 . S
H2370 N2367 0.984 . S
H2371 N2367 0.985 . S
H2372 N2366 0.984 . S
H2373 N2366 0.984 . S
H2374 N2362 0.984 . S
H2375 N2362 0.985 . S
C2376 C2377 1.363 . S
C2376 C2382 1.379 . S
C2376 N2384 1.356 . S
C2377 C2376 1.363 . S
C2377 C2383 1.363 . S
C2378 C2379 1.363 . S
C2378 C2383 1.379 . S
C2378 N2385 1.356 . S
C2379 C2378 1.363 . S
C2379 C2382 1.363 . S
N2380 C2382 1.356 . S
N2380 H2392 0.984 . S
N2380 H2393 0.985 . S
N2381 C2383 1.356 . S
N2381 H2386 0.984 . S
N2381 H2387 0.985 . S
C2382 C2376 1.379 . S
C2382 C2379 1.363 . S
C2382 N2380 1.356 . S
C2383 C2377 1.363 . S
C2383 C2378 1.379 . S
C2383 N2381 1.356 . S
N2384 C2376 1.356 . S
N2384 H2390 0.984 . S
N2384 H2391 0.984 . S
N2385 C2378 1.356 . S
N2385 H2388 0.984 . S
N2385 H2389 0.985 . S
H2386 N2381 0.984 . S
H2387 N2381 0.985 . S
H2388 N2385 0.984 . S
H2389 N2385 0.985 . S
H2390 N2384 0.984 . S
H2391 N2384 0.984 . S
H2392 N2380 0.984 . S
H2393 N2380 0.985 . S
C2394 C2395 1.363 . S
C2394 C2400 1.379 . S
C2394 N2402 1.356 . S
C2395 C2394 1.363 . S
C2395 C2401 1.363 . S
C2396 C2397 1.363 . S
C2396 C2401 1.379 . S
C2396 N2403 1.356 . S
C2397 C2396 1.363 . S
C2397 C2400 1.363 . S
N2398 C2400 1.356 . S
N2398 H2410 0.984 . S
N2398 H2411 0.985 . S
N2399 C2401 1.356 . S
N2399 H2404 0.984 . S
N2399 H2405 0.985 . S
C2400 C2394 1.379 . S
C2400 C2397 1.363 . S
C2400 N2398 1.356 . S
C2401 C2395 1.363 . S
C2401 C2396 1.379 . S
C2401 N2399 1.356 . S
N2402 C2394 1.356 . S
N2402 H2408 0.984 . S
N2402 H2409 0.984 . S
N2403 C2396 1.356 . S
N2403 H2406 0.984 . S
N2403 H2407 0.985 . S
H2404 N2399 0.984 . S
H2405 N2399 0.985 . S
H2406 N2403 0.984 . S
H2407 N2403 0.985 . S
H2408 N2402 0.984 . S
H2409 N2402 0.984 . S
H2410 N2398 0.984 . S
H2411 N2398 0.985 . S
C2412 C2413 1.363 . S
C2412 C2418 1.379 . S
C2412 N2420 1.356 . S
C2413 C2412 1.363 . S
C2413 C2419 1.363 . S
C2414 C2415 1.363 . S
C2414 C2419 1.379 . S
C2414 N2421 1.356 . S
C2415 C2414 1.363 . S
C2415 C2418 1.363 . S
N2416 C2418 1.356 . S
N2416 H2428 0.984 . S
N2416 H2429 0.985 . S
N2417 C2419 1.356 . S
N2417 H2422 0.984 . S
N2417 H2423 0.985 . S
C2418 C2412 1.379 . S
C2418 C2415 1.363 . S
C2418 N2416 1.356 . S
C2419 C2413 1.363 . S
C2419 C2414 1.379 . S
C2419 N2417 1.356 . S
N2420 C2412 1.356 . S
N2420 H2426 0.984 . S
N2420 H2427 0.984 . S
N2421 C2414 1.356 . S
N2421 H2424 0.984 . S
N2421 H2425 0.985 . S
H2422 N2417 0.984 . S
H2423 N2417 0.985 . S
H2424 N2421 0.984 . S
H2425 N2421 0.985 . S
H2426 N2420 0.984 . S
H2427 N2420 0.984 . S
H2428 N2416 0.984 . S
H2429 N2416 0.985 . S
C2430 C2431 1.363 . S
C2430 C2436 1.379 . S
C2430 N2438 1.356 . S
C2431 C2430 1.363 . S
C2431 C2437 1.363 . S
C2432 C2433 1.363 . S
C2432 C2437 1.379 . S
C2432 N2439 1.356 . S
C2433 C2432 1.363 . S
C2433 C2436 1.363 . S
N2434 C2436 1.356 . S
N2434 H2446 0.984 . S
N2434 H2447 0.985 . S
N2435 C2437 1.356 . S
N2435 H2440 0.984 . S
N2435 H2441 0.985 . S
C2436 C2430 1.379 . S
C2436 C2433 1.363 . S
C2436 N2434 1.356 . S
C2437 C2431 1.363 . S
C2437 C2432 1.379 . S
C2437 N2435 1.356 . S
N2438 C2430 1.356 . S
N2438 H2444 0.984 . S
N2438 H2445 0.984 . S
N2439 C2432 1.356 . S
N2439 H2442 0.984 . S
N2439 H2443 0.985 . S
H2440 N2435 0.984 . S
H2441 N2435 0.985 . S
H2442 N2439 0.984 . S
H2443 N2439 0.985 . S
H2444 N2438 0.984 . S
H2445 N2438 0.984 . S
H2446 N2434 0.984 . S
H2447 N2434 0.985 . S
C2448 C2449 1.363 . S
C2448 C2454 1.379 . S
C2448 N2456 1.356 . S
C2449 C2448 1.363 . S
C2449 C2455 1.363 . S
C2450 C2451 1.363 . S
C2450 C2455 1.379 . S
C2450 N2457 1.356 . S
C2451 C2450 1.363 . S
C2451 C2454 1.363 . S
N2452 C2454 1.356 . S
N2452 H2464 0.984 . S
N2452 H2465 0.985 . S
N2453 C2455 1.356 . S
N2453 H2458 0.984 . S
N2453 H2459 0.985 . S
C2454 C2448 1.379 . S
C2454 C2451 1.363 . S
C2454 N2452 1.356 . S
C2455 C2449 1.363 . S
C2455 C2450 1.379 . S
C2455 N2453 1.356 . S
N2456 C2448 1.356 . S
N2456 H2462 0.984 . S
N2456 H2463 0.984 . S
N2457 C2450 1.356 . S
N2457 H2460 0.984 . S
N2457 H2461 0.985 . S
H2458 N2453 0.984 . S
H2459 N2453 0.985 . S
H2460 N2457 0.984 . S
H2461 N2457 0.985 . S
H2462 N2456 0.984 . S
H2463 N2456 0.984 . S
H2464 N2452 0.984 . S
H2465 N2452 0.985 . S
C2466 C2467 1.363 . S
C2466 C2472 1.379 . S
C2466 N2474 1.356 . S
C2467 C2466 1.363 . S
C2467 C2473 1.363 . S
C2468 C2469 1.363 . S
C2468 C2473 1.379 . S
C2468 N2475 1.356 . S
C2469 C2468 1.363 . S
C2469 C2472 1.363 . S
N2470 C2472 1.356 . S
N2470 H2482 0.984 . S
N2470 H2483 0.985 . S
N2471 C2473 1.356 . S
N2471 H2476 0.984 . S
N2471 H2477 0.985 . S
C2472 C2466 1.379 . S
C2472 C2469 1.363 . S
C2472 N2470 1.356 . S
C2473 C2467 1.363 . S
C2473 C2468 1.379 . S
C2473 N2471 1.356 . S
N2474 C2466 1.356 . S
N2474 H2480 0.984 . S
N2474 H2481 0.984 . S
N2475 C2468 1.356 . S
N2475 H2478 0.984 . S
N2475 H2479 0.985 . S
H2476 N2471 0.984 . S
H2477 N2471 0.985 . S
H2478 N2475 0.984 . S
H2479 N2475 0.985 . S
H2480 N2474 0.984 . S
H2481 N2474 0.984 . S
H2482 N2470 0.984 . S
H2483 N2470 0.985 . S
C2484 C2485 1.363 . S
C2484 C2490 1.379 . S
C2484 N2492 1.356 . S
C2485 C2484 1.363 . S
C2485 C2491 1.363 . S
C2486 C2487 1.363 . S
C2486 C2491 1.379 . S
C2486 N2493 1.356 . S
C2487 C2486 1.363 . S
C2487 C2490 1.363 . S
N2488 C2490 1.356 . S
N2488 H2500 0.984 . S
N2488 H2501 0.985 . S
N2489 C2491 1.356 . S
N2489 H2494 0.984 . S
N2489 H2495 0.985 . S
C2490 C2484 1.379 . S
C2490 C2487 1.363 . S
C2490 N2488 1.356 . S
C2491 C2485 1.363 . S
C2491 C2486 1.379 . S
C2491 N2489 1.356 . S
N2492 C2484 1.356 . S
N2492 H2498 0.984 . S
N2492 H2499 0.984 . S
N2493 C2486 1.356 . S
N2493 H2496 0.984 . S
N2493 H2497 0.985 . S
H2494 N2489 0.984 . S
H2495 N2489 0.985 . S
H2496 N2493 0.984 . S
H2497 N2493 0.985 . S
H2498 N2492 0.984 . S
H2499 N2492 0.984 . S
H2500 N2488 0.984 . S
H2501 N2488 0.985 . S
C2502 C2503 1.363 . S
C2502 C2508 1.379 . S
C2502 N2510 1.356 . S
C2503 C2502 1.363 . S
C2503 C2509 1.363 . S
C2504 C2505 1.363 . S
C2504 C2509 1.379 . S
C2504 N2511 1.356 . S
C2505 C2504 1.363 . S
C2505 C2508 1.363 . S
N2506 C2508 1.356 . S
N2506 H2518 0.984 . S
N2506 H2519 0.985 . S
N2507 C2509 1.356 . S
N2507 H2512 0.984 . S
N2507 H2513 0.985 . S
C2508 C2502 1.379 . S
C2508 C2505 1.363 . S
C2508 N2506 1.356 . S
C2509 C2503 1.363 . S
C2509 C2504 1.379 . S
C2509 N2507 1.356 . S
N2510 C2502 1.356 . S
N2510 H2516 0.984 . S
N2510 H2517 0.984 . S
N2511 C2504 1.356 . S
N2511 H2514 0.984 . S
N2511 H2515 0.985 . S
H2512 N2507 0.984 . S
H2513 N2507 0.985 . S
H2514 N2511 0.984 . S
H2515 N2511 0.985 . S
H2516 N2510 0.984 . S
H2517 N2510 0.984 . S
H2518 N2506 0.984 . S
H2519 N2506 0.985 . S
C2520 C2521 1.363 . S
C2520 C2526 1.379 . S
C2520 N2528 1.356 . S
C2521 C2520 1.363 . S
C2521 C2527 1.363 . S
C2522 C2523 1.363 . S
C2522 C2527 1.379 . S
C2522 N2529 1.356 . S
C2523 C2522 1.363 . S
C2523 C2526 1.363 . S
N2524 C2526 1.356 . S
N2524 H2536 0.984 . S
N2524 H2537 0.985 . S
N2525 C2527 1.356 . S
N2525 H2530 0.984 . S
N2525 H2531 0.985 . S
C2526 C2520 1.379 . S
C2526 C2523 1.363 . S
C2526 N2524 1.356 . S
C2527 C2521 1.363 . S
C2527 C2522 1.379 . S
C2527 N2525 1.356 . S
N2528 C2520 1.356 . S
N2528 H2534 0.984 . S
N2528 H2535 0.984 . S
N2529 C2522 1.356 . S
N2529 H2532 0.984 . S
N2529 H2533 0.985 . S
H2530 N2525 0.984 . S
H2531 N2525 0.985 . S
H2532 N2529 0.984 . S
H2533 N2529 0.985 . S
H2534 N2528 0.984 . S
H2535 N2528 0.984 . S
H2536 N2524 0.984 . S
H2537 N2524 0.985 . S
C2538 C2539 1.363 . S
C2538 C2544 1.379 . S
C2538 N2546 1.356 . S
C2539 C2538 1.363 . S
C2539 C2545 1.363 . S
C2540 C2541 1.363 . S
C2540 C2545 1.379 . S
C2540 N2547 1.356 . S
C2541 C2540 1.363 . S
C2541 C2544 1.363 . S
N2542 C2544 1.356 . S
N2542 H2554 0.984 . S
N2542 H2555 0.985 . S
N2543 C2545 1.356 . S
N2543 H2548 0.984 . S
N2543 H2549 0.985 . S
C2544 C2538 1.379 . S
C2544 C2541 1.363 . S
C2544 N2542 1.356 . S
C2545 C2539 1.363 . S
C2545 C2540 1.379 . S
C2545 N2543 1.356 . S
N2546 C2538 1.356 . S
N2546 H2552 0.984 . S
N2546 H2553 0.984 . S
N2547 C2540 1.356 . S
N2547 H2550 0.984 . S
N2547 H2551 0.985 . S
H2548 N2543 0.984 . S
H2549 N2543 0.985 . S
H2550 N2547 0.984 . S
H2551 N2547 0.985 . S
H2552 N2546 0.984 . S
H2553 N2546 0.984 . S
H2554 N2542 0.984 . S
H2555 N2542 0.985 . S
C2556 C2557 1.363 . S
C2556 C2562 1.379 . S
C2556 N2564 1.356 . S
C2557 C2556 1.363 . S
C2557 C2563 1.363 . S
C2558 C2559 1.363 . S
C2558 C2563 1.379 . S
C2558 N2565 1.356 . S
C2559 C2558 1.363 . S
C2559 C2562 1.363 . S
N2560 C2562 1.356 . S
N2560 H2572 0.984 . S
N2560 H2573 0.985 . S
N2561 C2563 1.356 . S
N2561 H2566 0.984 . S
N2561 H2567 0.985 . S
C2562 C2556 1.379 . S
C2562 C2559 1.363 . S
C2562 N2560 1.356 . S
C2563 C2557 1.363 . S
C2563 C2558 1.379 . S
C2563 N2561 1.356 . S
N2564 C2556 1.356 . S
N2564 H2570 0.984 . S
N2564 H2571 0.984 . S
N2565 C2558 1.356 . S
N2565 H2568 0.984 . S
N2565 H2569 0.985 . S
H2566 N2561 0.984 . S
H2567 N2561 0.985 . S
H2568 N2565 0.984 . S
H2569 N2565 0.985 . S
H2570 N2564 0.984 . S
H2571 N2564 0.984 . S
H2572 N2560 0.984 . S
H2573 N2560 0.985 . S
C2574 C2575 1.363 . S
C2574 C2580 1.379 . S
C2574 N2582 1.356 . S
C2575 C2574 1.363 . S
C2575 C2581 1.363 . S
C2576 C2577 1.363 . S
C2576 C2581 1.379 . S
C2576 N2583 1.356 . S
C2577 C2576 1.363 . S
C2577 C2580 1.363 . S
N2578 C2580 1.356 . S
N2578 H2590 0.984 . S
N2578 H2591 0.985 . S
N2579 C2581 1.356 . S
N2579 H2584 0.984 . S
N2579 H2585 0.985 . S
C2580 C2574 1.379 . S
C2580 C2577 1.363 . S
C2580 N2578 1.356 . S
C2581 C2575 1.363 . S
C2581 C2576 1.379 . S
C2581 N2579 1.356 . S
N2582 C2574 1.356 . S
N2582 H2588 0.984 . S
N2582 H2589 0.984 . S
N2583 C2576 1.356 . S
N2583 H2586 0.984 . S
N2583 H2587 0.985 . S
H2584 N2579 0.984 . S
H2585 N2579 0.985 . S
H2586 N2583 0.984 . S
H2587 N2583 0.985 . S
H2588 N2582 0.984 . S
H2589 N2582 0.984 . S
H2590 N2578 0.984 . S
H2591 N2578 0.985 . S
C2592 C2593 1.363 . S
C2592 C2598 1.379 . S
C2592 N2600 1.356 . S
C2593 C2592 1.363 . S
C2593 C2599 1.363 . S
C2594 C2595 1.363 . S
C2594 C2599 1.379 . S
C2594 N2601 1.356 . S
C2595 C2594 1.363 . S
C2595 C2598 1.363 . S
N2596 C2598 1.356 . S
N2596 H2608 0.984 . S
N2596 H2609 0.985 . S
N2597 C2599 1.356 . S
N2597 H2602 0.984 . S
N2597 H2603 0.985 . S
C2598 C2592 1.379 . S
C2598 C2595 1.363 . S
C2598 N2596 1.356 . S
C2599 C2593 1.363 . S
C2599 C2594 1.379 . S
C2599 N2597 1.356 . S
N2600 C2592 1.356 . S
N2600 H2606 0.984 . S
N2600 H2607 0.984 . S
N2601 C2594 1.356 . S
N2601 H2604 0.984 . S
N2601 H2605 0.985 . S
H2602 N2597 0.984 . S
H2603 N2597 0.985 . S
H2604 N2601 0.984 . S
H2605 N2601 0.985 . S
H2606 N2600 0.984 . S
H2607 N2600 0.984 . S
H2608 N2596 0.984 . S
H2609 N2596 0.985 . S
C2610 C2611 1.363 . S
C2610 C2616 1.379 . S
C2610 N2618 1.356 . S
C2611 C2610 1.363 . S
C2611 C2617 1.363 . S
C2612 C2613 1.363 . S
C2612 C2617 1.379 . S
C2612 N2619 1.356 . S
C2613 C2612 1.363 . S
C2613 C2616 1.363 . S
N2614 C2616 1.356 . S
N2614 H2626 0.984 . S
N2614 H2627 0.985 . S
N2615 C2617 1.356 . S
N2615 H2620 0.984 . S
N2615 H2621 0.985 . S
C2616 C2610 1.379 . S
C2616 C2613 1.363 . S
C2616 N2614 1.356 . S
C2617 C2611 1.363 . S
C2617 C2612 1.379 . S
C2617 N2615 1.356 . S
N2618 C2610 1.356 . S
N2618 H2624 0.984 . S
N2618 H2625 0.984 . S
N2619 C2612 1.356 . S
N2619 H2622 0.984 . S
N2619 H2623 0.985 . S
H2620 N2615 0.984 . S
H2621 N2615 0.985 . S
H2622 N2619 0.984 . S
H2623 N2619 0.985 . S
H2624 N2618 0.984 . S
H2625 N2618 0.984 . S
H2626 N2614 0.984 . S
H2627 N2614 0.985 . S
C2628 C2629 1.363 . S
C2628 C2634 1.379 . S
C2628 N2636 1.356 . S
C2629 C2628 1.363 . S
C2629 C2635 1.363 . S
C2630 C2631 1.363 . S
C2630 C2635 1.379 . S
C2630 N2637 1.356 . S
C2631 C2630 1.363 . S
C2631 C2634 1.363 . S
N2632 C2634 1.356 . S
N2632 H2644 0.984 . S
N2632 H2645 0.985 . S
N2633 C2635 1.356 . S
N2633 H2638 0.984 . S
N2633 H2639 0.985 . S
C2634 C2628 1.379 . S
C2634 C2631 1.363 . S
C2634 N2632 1.356 . S
C2635 C2629 1.363 . S
C2635 C2630 1.379 . S
C2635 N2633 1.356 . S
N2636 C2628 1.356 . S
N2636 H2642 1.011 . S
N2636 H2643 0.984 . S
N2637 C2630 1.356 . S
N2637 H2640 0.984 . S
N2637 H2641 0.985 . S
H2638 N2633 0.984 . S
H2639 N2633 0.985 . S
H2640 N2637 0.984 . S
H2641 N2637 0.985 . S
H2642 N2636 1.011 . S
H2643 N2636 0.984 . S
H2644 N2632 0.984 . S
H2645 N2632 0.985 . S
C2646 C2647 1.363 . S
C2646 C2652 1.379 . S
C2646 N2654 1.356 . S
C2647 C2646 1.363 . S
C2647 C2653 1.363 . S
C2648 C2649 1.363 . S
C2648 C2653 1.379 . S
C2648 N2655 1.356 . S
C2649 C2648 1.363 . S
C2649 C2652 1.363 . S
N2650 C2652 1.356 . S
N2650 H2662 0.984 . S
N2650 H2663 0.985 . S
N2651 C2653 1.356 . S
N2651 H2656 0.984 . S
N2651 H2657 0.985 . S
C2652 C2646 1.379 . S
C2652 C2649 1.363 . S
C2652 N2650 1.356 . S
C2653 C2647 1.363 . S
C2653 C2648 1.379 . S
C2653 N2651 1.356 . S
N2654 C2646 1.356 . S
N2654 H2660 0.984 . S
N2654 H2661 0.984 . S
N2655 C2648 1.356 . S
N2655 H2658 0.984 . S
N2655 H2659 0.985 . S
H2656 N2651 0.984 . S
H2657 N2651 0.985 . S
H2658 N2655 0.984 . S
H2659 N2655 0.985 . S
H2660 N2654 0.984 . S
H2661 N2654 0.984 . S
H2662 N2650 0.984 . S
H2663 N2650 0.985 . S
C2664 C2665 1.363 . S
C2664 C2670 1.379 . S
C2664 N2672 1.356 . S
C2665 C2664 1.363 . S
C2665 C2671 1.363 . S
C2666 C2667 1.363 . S
C2666 C2671 1.379 . S
C2666 N2673 1.356 . S
C2667 C2666 1.363 . S
C2667 C2670 1.363 . S
N2668 C2670 1.356 . S
N2668 H2680 0.984 . S
N2668 H2681 0.985 . S
N2669 C2671 1.356 . S
N2669 H2674 0.984 . S
N2669 H2675 0.985 . S
C2670 C2664 1.379 . S
C2670 C2667 1.363 . S
C2670 N2668 1.356 . S
C2671 C2665 1.363 . S
C2671 C2666 1.379 . S
C2671 N2669 1.356 . S
N2672 C2664 1.356 . S
N2672 H2678 0.984 . S
N2672 H2679 0.984 . S
N2673 C2666 1.356 . S
N2673 H2676 0.984 . S
N2673 H2677 0.985 . S
H2674 N2669 0.984 . S
H2675 N2669 0.985 . S
H2676 N2673 0.984 . S
H2677 N2673 0.985 . S
H2678 N2672 0.984 . S
H2679 N2672 0.984 . S
H2680 N2668 0.984 . S
H2681 N2668 0.985 . S
C2682 C2683 1.363 . S
C2682 C2688 1.379 . S
C2682 N2690 1.356 . S
C2683 C2682 1.363 . S
C2683 C2689 1.363 1_554 S
C2684 C2685 1.363 . S
C2684 C2689 1.379 . S
C2684 N2691 1.356 . S
C2685 C2684 1.363 . S
C2685 C2688 1.363 1_556 S
N2686 C2688 1.356 . S
N2686 H2698 0.984 . S
N2686 H2699 0.985 . S
N2687 C2689 1.356 . S
N2687 H2692 0.984 . S
N2687 H2693 0.985 . S
C2688 C2682 1.379 . S
C2688 C2685 1.363 1_554 S
C2688 N2686 1.356 . S
C2689 C2683 1.363 1_556 S
C2689 C2684 1.379 . S
C2689 N2687 1.356 . S
N2690 C2682 1.356 . S
N2690 H2696 0.984 . S
N2690 H2697 0.984 . S
N2691 C2684 1.356 . S
N2691 H2694 0.984 . S
N2691 H2695 0.985 . S
H2692 N2687 0.984 . S
H2693 N2687 0.985 . S
H2694 N2691 0.984 . S
H2695 N2691 0.985 . S
H2696 N2690 0.984 . S
H2697 N2690 0.984 . S
H2698 N2686 0.984 . S
H2699 N2686 0.985 . S
C2700 C2701 1.363 . S
C2700 C2706 1.379 . S
C2700 N2708 1.356 . S
C2701 C2700 1.363 . S
C2701 C2707 1.363 . S
C2702 C2703 1.363 . S
C2702 C2707 1.379 . S
C2702 N2709 1.356 . S
C2703 C2702 1.363 . S
C2703 C2706 1.363 . S
N2704 C2706 1.356 . S
N2704 H2716 0.984 . S
N2704 H2717 0.985 . S
N2705 C2707 1.356 1_554 S
N2705 H2710 0.984 . S
N2705 H2711 0.985 . S
C2706 C2700 1.379 . S
C2706 C2703 1.363 . S
C2706 N2704 1.356 . S
C2707 C2701 1.363 . S
C2707 C2702 1.379 . S
C2707 N2705 1.356 1_556 S
N2708 C2700 1.356 . S
N2708 H2714 0.984 . S
N2708 H2715 0.984 . S
N2709 C2702 1.356 . S
N2709 H2712 0.984 . S
N2709 H2713 0.985 . S
H2710 N2705 0.984 . S
H2711 N2705 0.985 . S
H2712 N2709 0.984 . S
H2713 N2709 0.985 . S
H2714 N2708 0.984 . S
H2715 N2708 0.984 . S
H2716 N2704 0.984 . S
H2717 N2704 0.985 . S
C2718 C2719 1.363 . S
C2718 C2724 1.379 . S
C2718 N2726 1.356 . S
C2719 C2718 1.363 . S
C2719 C2725 1.363 . S
C2720 C2721 1.363 . S
C2720 C2725 1.379 . S
C2720 N2727 1.356 1_554 S
C2721 C2720 1.363 . S
C2721 C2724 1.363 . S
N2722 C2724 1.356 . S
N2722 H2734 0.984 . S
N2722 H2735 0.985 . S
N2723 C2725 1.356 . S
N2723 H2728 0.984 . S
N2723 H2729 0.955 1_554 S
C2724 C2718 1.379 . S
C2724 C2721 1.363 . S
C2724 N2722 1.356 . S
C2725 C2719 1.363 . S
C2725 C2720 1.379 . S
C2725 N2723 1.356 . S
N2726 C2718 1.356 . S
N2726 H2732 0.984 . S
N2726 H2733 0.984 . S
N2727 C2720 1.356 1_556 S
N2727 H2730 0.984 . S
N2727 H2731 0.985 . S
H2728 N2723 0.984 . S
H2729 N2723 0.955 1_556 S
H2730 N2727 0.984 . S
H2731 N2727 0.985 . S
H2732 N2726 0.984 . S
H2733 N2726 0.984 . S
H2734 N2722 0.984 . S
H2735 N2722 0.985 . S
C2736 C2737 1.363 . S
C2736 C2742 1.379 1_554 S
C2736 N2744 1.356 . S
C2737 C2736 1.363 . S
C2737 C2743 1.363 1_554 S
C2738 C2739 1.363 . S
C2738 C2743 1.379 . S
C2738 N2745 1.356 . S
C2739 C2738 1.363 . S
C2739 C2742 1.363 . S
N2740 C2742 1.356 1_554 S
N2740 H2752 0.987 . S
N2740 H2753 0.982 1_554 S
N2741 C2743 1.356 . S
N2741 H2746 0.984 . S
N2741 H2747 0.985 . S
C2742 C2736 1.379 1_556 S
C2742 C2739 1.363 . S
C2742 N2740 1.356 1_556 S
C2743 C2737 1.363 1_556 S
C2743 C2738 1.379 . S
C2743 N2741 1.356 . S
N2744 C2736 1.356 . S
N2744 H2750 0.984 . S
N2744 H2751 0.984 . S
N2745 C2738 1.356 . S
N2745 H2748 0.984 . S
N2745 H2749 0.985 . S
H2746 N2741 0.984 . S
H2747 N2741 0.985 . S
H2748 N2745 0.984 . S
H2749 N2745 0.985 . S
H2750 N2744 0.984 . S
H2751 N2744 0.984 . S
H2752 N2740 0.987 . S
H2753 N2740 0.982 1_556 S
C2754 C2755 1.363 . S
C2754 C2760 1.379 . S
C2754 N2762 1.356 1_556 S
C2755 C2754 1.363 . S
C2755 C2761 1.363 . S
C2756 C2757 1.363 . S
C2756 C2761 1.379 . S
C2756 N2763 1.356 . S
C2757 C2756 1.363 . S
C2757 C2760 1.363 . S
N2758 C2760 1.356 . S
N2758 H2770 0.995 . S
N2758 H2771 0.985 . S
N2759 C2761 1.356 . S
N2759 H2764 0.984 . S
N2759 H2765 0.985 . S
C2760 C2754 1.379 . S
C2760 C2757 1.363 . S
C2760 N2758 1.356 . S
C2761 C2755 1.363 . S
C2761 C2756 1.379 . S
C2761 N2759 1.356 . S
N2762 C2754 1.356 1_554 S
N2762 H2768 0.984 . S
N2762 H2769 0.984 . S
N2763 C2756 1.356 . S
N2763 H2766 0.984 . S
N2763 H2767 0.985 . S
H2764 N2759 0.984 . S
H2765 N2759 0.985 . S
H2766 N2763 0.984 . S
H2767 N2763 0.985 . S
H2768 N2762 0.984 . S
H2769 N2762 0.984 . S
H2770 N2758 0.995 . S
H2771 N2758 0.985 . S
C2772 C2773 1.363 . S
C2772 C2778 1.379 . S
C2772 N2780 1.356 . S
C2773 C2772 1.363 . S
C2773 C2779 1.363 . S
C2774 C2775 1.363 . S
C2774 C2779 1.379 1_556 S
C2774 N2781 1.356 . S
C2775 C2774 1.363 . S
C2775 C2778 1.363 1_556 S
N2776 C2778 1.357 . S
N2776 H2788 0.985 . S
N2776 H2789 0.983 1_554 S
N2777 C2779 1.356 . S
N2777 H2782 0.984 . S
N2777 H2783 0.985 1_545 S
C2778 C2772 1.379 . S
C2778 C2775 1.363 1_554 S
C2778 N2776 1.357 . S
C2779 C2773 1.363 . S
C2779 C2774 1.379 1_554 S
C2779 N2777 1.356 . S
N2780 C2772 1.356 . S
N2780 H2786 0.984 . S
N2780 H2787 0.984 . S
N2781 C2774 1.356 . S
N2781 H2784 0.984 . S
N2781 H2785 0.985 . S
H2782 N2777 0.984 . S
H2783 N2777 0.985 1_565 S
H2784 N2781 0.984 . S
H2785 N2781 0.985 . S
H2786 N2780 0.984 . S
H2787 N2780 0.984 . S
H2788 N2776 0.985 . S
H2789 N2776 0.983 1_556 S
C2790 C2791 1.363 . S
C2790 C2796 1.379 . S
C2790 N2798 1.356 . S
C2791 C2790 1.363 . S
C2791 C2797 1.363 . S
C2792 C2793 1.363 . S
C2792 C2797 1.379 . S
C2792 N2799 1.356 . S
C2793 C2792 1.363 . S
C2793 C2796 1.363 . S
N2794 C2796 1.356 . S
N2794 H2806 0.984 . S
N2794 H2807 0.985 . S
N2795 C2797 1.304 1_545 S
N2795 H2800 1.003 . S
N2795 H2801 1.013 . S
C2796 C2790 1.379 . S
C2796 C2793 1.363 . S
C2796 N2794 1.356 . S
C2797 C2791 1.363 . S
C2797 C2792 1.379 . S
C2797 N2795 1.304 1_565 S
N2798 C2790 1.356 . S
N2798 H2804 0.984 . S
N2798 H2805 0.984 . S
N2799 C2792 1.356 . S
N2799 H2802 0.984 . S
N2799 H2803 0.985 1_565 S
H2800 N2795 1.003 . S
H2801 N2795 1.013 . S
H2802 N2799 0.984 . S
H2803 N2799 0.985 1_545 S
H2804 N2798 0.984 . S
H2805 N2798 0.984 . S
H2806 N2794 0.984 . S
H2807 N2794 0.985 . S
C2808 C2809 1.363 . S
C2808 C2814 1.379 . S
C2808 N2816 1.356 . S
C2809 C2808 1.363 . S
C2809 C2815 1.363 . S
C2810 C2811 1.363 . S
C2810 C2815 1.379 . S
C2810 N2817 1.356 . S
C2811 C2810 1.363 . S
C2811 C2814 1.363 . S
N2812 C2814 1.356 . S
N2812 H2824 0.984 . S
N2812 H2825 0.985 . S
N2813 C2815 1.356 . S
N2813 H2818 0.984 . S
N2813 H2819 0.985 . S
C2814 C2808 1.379 . S
C2814 C2811 1.363 . S
C2814 N2812 1.356 . S
C2815 C2809 1.363 . S
C2815 C2810 1.379 . S
C2815 N2813 1.356 . S
N2816 C2808 1.356 . S
N2816 H2822 0.984 . S
N2816 H2823 0.984 . S
N2817 C2810 1.356 . S
N2817 H2820 0.984 . S
N2817 H2821 0.985 . S
H2818 N2813 0.984 . S
H2819 N2813 0.985 . S
H2820 N2817 0.984 . S
H2821 N2817 0.985 . S
H2822 N2816 0.984 . S
H2823 N2816 0.984 . S
H2824 N2812 0.984 . S
H2825 N2812 0.985 . S
C2826 C2827 1.363 . S
C2826 C2832 1.379 . S
C2826 N2834 1.356 . S
C2827 C2826 1.363 . S
C2827 C2833 1.363 . S
C2828 C2829 1.363 . S
C2828 C2833 1.379 . S
C2828 N2835 1.356 . S
C2829 C2828 1.363 . S
C2829 C2832 1.363 . S
N2830 C2832 1.356 . S
N2830 H2842 0.984 . S
N2830 H2843 0.985 . S
N2831 C2833 1.356 . S
N2831 H2836 0.984 . S
N2831 H2837 0.985 . S
C2832 C2826 1.379 . S
C2832 C2829 1.363 . S
C2832 N2830 1.356 . S
C2833 C2827 1.363 . S
C2833 C2828 1.379 . S
C2833 N2831 1.356 . S
N2834 C2826 1.356 . S
N2834 H2840 0.984 . S
N2834 H2841 0.984 . S
N2835 C2828 1.356 . S
N2835 H2838 0.984 . S
N2835 H2839 0.985 . S
H2836 N2831 0.984 . S
H2837 N2831 0.985 . S
H2838 N2835 0.984 . S
H2839 N2835 0.985 . S
H2840 N2834 0.984 . S
H2841 N2834 0.984 . S
H2842 N2830 0.984 . S
H2843 N2830 0.985 . S
C2844 C2845 1.363 . S
C2844 C2850 1.379 . S
C2844 N2852 1.356 . S
C2845 C2844 1.363 . S
C2845 C2851 1.363 . S
C2846 C2847 1.363 . S
C2846 C2851 1.379 . S
C2846 N2853 1.356 . S
C2847 C2846 1.363 . S
C2847 C2850 1.363 . S
N2848 C2850 1.356 . S
N2848 H2860 0.984 . S
N2848 H2861 0.985 . S
N2849 C2851 1.356 . S
N2849 H2854 0.984 . S
N2849 H2855 0.985 . S
C2850 C2844 1.379 . S
C2850 C2847 1.363 . S
C2850 N2848 1.356 . S
C2851 C2845 1.363 . S
C2851 C2846 1.379 . S
C2851 N2849 1.356 . S
N2852 C2844 1.356 . S
N2852 H2858 0.984 . S
N2852 H2859 0.984 . S
N2853 C2846 1.356 . S
N2853 H2856 0.984 . S
N2853 H2857 0.985 . S
H2854 N2849 0.984 . S
H2855 N2849 0.985 . S
H2856 N2853 0.984 . S
H2857 N2853 0.985 . S
H2858 N2852 0.984 . S
H2859 N2852 0.984 . S
H2860 N2848 0.984 . S
H2861 N2848 0.985 . S
C2862 C2863 1.363 . S
C2862 C2868 1.379 . S
C2862 N2870 1.356 . S
C2863 C2862 1.363 . S
C2863 C2869 1.363 . S
C2864 C2865 1.363 . S
C2864 C2869 1.379 . S
C2864 N2871 1.356 . S
C2865 C2864 1.363 . S
C2865 C2868 1.363 . S
N2866 C2868 1.356 . S
N2866 H2878 0.984 . S
N2866 H2879 0.985 . S
N2867 C2869 1.356 . S
N2867 H2872 0.984 . S
N2867 H2873 0.985 . S
C2868 C2862 1.379 . S
C2868 C2865 1.363 . S
C2868 N2866 1.356 . S
C2869 C2863 1.363 . S
C2869 C2864 1.379 . S
C2869 N2867 1.356 . S
N2870 C2862 1.356 . S
N2870 H2876 0.984 . S
N2870 H2877 0.984 . S
N2871 C2864 1.356 . S
N2871 H2874 0.984 . S
N2871 H2875 0.985 . S
H2872 N2867 0.984 . S
H2873 N2867 0.985 . S
H2874 N2871 0.984 . S
H2875 N2871 0.985 . S
H2876 N2870 0.984 . S
H2877 N2870 0.984 . S
H2878 N2866 0.984 . S
H2879 N2866 0.985 . S
C2880 C2881 1.363 . S
C2880 C2886 1.379 . S
C2880 N2888 1.356 . S
C2881 C2880 1.363 . S
C2881 C2887 1.363 . S
C2882 C2883 1.363 . S
C2882 C2887 1.379 . S
C2882 N2889 1.356 . S
C2883 C2882 1.363 . S
C2883 C2886 1.363 . S
N2884 C2886 1.356 . S
N2884 H2896 0.984 . S
N2884 H2897 0.985 . S
N2885 C2887 1.356 . S
N2885 H2890 0.984 1_655 S
N2885 H2891 0.985 . S
C2886 C2880 1.379 . S
C2886 C2883 1.363 . S
C2886 N2884 1.356 . S
C2887 C2881 1.363 . S
C2887 C2882 1.379 . S
C2887 N2885 1.356 . S
N2888 C2880 1.356 . S
N2888 H2894 0.984 . S
N2888 H2895 0.984 . S
N2889 C2882 1.356 . S
N2889 H2892 0.984 . S
N2889 H2893 0.985 . S
H2890 N2885 0.984 1_455 S
H2891 N2885 0.985 . S
H2892 N2889 0.984 . S
H2893 N2889 0.985 . S
H2894 N2888 0.984 . S
H2895 N2888 0.984 . S
H2896 N2884 0.984 . S
H2897 N2884 0.985 . S
C2898 C2899 1.363 . S
C2898 C2904 1.379 . S
C2898 N2906 1.356 . S
C2899 C2898 1.363 . S
C2899 C2905 1.363 . S
C2900 C2901 1.363 . S
C2900 C2905 1.379 . S
C2900 N2907 1.356 . S
C2901 C2900 1.363 . S
C2901 C2904 1.363 . S
N2902 C2904 1.356 . S
N2902 H2914 0.984 . S
N2902 H2915 0.985 . S
N2903 C2905 1.356 . S
N2903 H2908 0.984 . S
N2903 H2909 0.985 . S
C2904 C2898 1.379 . S
C2904 C2901 1.363 . S
C2904 N2902 1.356 . S
C2905 C2899 1.363 . S
C2905 C2900 1.379 . S
C2905 N2903 1.356 . S
N2906 C2898 1.356 . S
N2906 H2912 0.984 . S
N2906 H2913 0.984 . S
N2907 C2900 1.356 . S
N2907 H2910 0.984 . S
N2907 H2911 0.985 . S
H2908 N2903 0.984 . S
H2909 N2903 0.985 . S
H2910 N2907 0.984 . S
H2911 N2907 0.985 . S
H2912 N2906 0.984 . S
H2913 N2906 0.984 . S
H2914 N2902 0.984 . S
H2915 N2902 0.985 . S
C2916 C2917 1.363 . S
C2916 C2922 1.379 . S
C2916 N2924 1.356 . S
C2917 C2916 1.363 . S
C2917 C2923 1.363 . S
C2918 C2919 1.363 . S
C2918 C2923 1.379 . S
C2918 N2925 1.356 . S
C2919 C2918 1.363 . S
C2919 C2922 1.363 . S
N2920 C2922 1.356 . S
N2920 H2932 0.984 . S
N2920 H2933 0.985 . S
N2921 C2923 1.356 . S
N2921 H2926 0.984 . S
N2921 H2927 0.985 . S
C2922 C2916 1.379 . S
C2922 C2919 1.363 . S
C2922 N2920 1.356 . S
C2923 C2917 1.363 . S
C2923 C2918 1.379 . S
C2923 N2921 1.356 . S
N2924 C2916 1.356 . S
N2924 H2930 0.984 . S
N2924 H2931 0.984 . S
N2925 C2918 1.356 . S
N2925 H2928 0.984 . S
N2925 H2929 0.985 . S
H2926 N2921 0.984 . S
H2927 N2921 0.985 . S
H2928 N2925 0.984 . S
H2929 N2925 0.985 . S
H2930 N2924 0.984 . S
H2931 N2924 0.984 . S
H2932 N2920 0.984 . S
H2933 N2920 0.985 . S
C2934 C2935 1.363 . S
C2934 C2940 1.379 . S
C2934 N2942 1.356 . S
C2935 C2934 1.363 . S
C2935 C2941 1.363 . S
C2936 C2937 1.363 . S
C2936 C2941 1.379 . S
C2936 N2943 1.356 1_565 S
C2937 C2936 1.363 . S
C2937 C2940 1.363 . S
N2938 C2940 1.356 . S
N2938 H2950 0.984 . S
N2938 H2951 0.985 . S
N2939 C2941 1.356 1_545 S
N2939 H2944 0.985 1_545 S
N2939 H2945 0.985 . S
C2940 C2934 1.379 . S
C2940 C2937 1.363 . S
C2940 N2938 1.356 . S
C2941 C2935 1.363 . S
C2941 C2936 1.379 . S
C2941 N2939 1.356 1_565 S
N2942 C2934 1.356 . S
N2942 H2948 0.984 . S
N2942 H2949 0.984 . S
N2943 C2936 1.356 1_545 S
N2943 H2946 0.984 . S
N2943 H2947 0.985 . S
H2944 N2939 0.985 1_565 S
H2945 N2939 0.985 . S
H2946 N2943 0.984 . S
H2947 N2943 0.985 . S
H2948 N2942 0.984 . S
H2949 N2942 0.984 . S
H2950 N2938 0.984 . S
H2951 N2938 0.985 . S
C2952 C2953 1.363 1_545 S
C2952 C2958 1.379 . S
C2952 N2960 1.356 . S
C2953 C2952 1.363 1_565 S
C2953 C2959 1.363 . S
C2954 C2955 1.363 . S
C2954 C2959 1.379 . S
C2954 N2961 1.356 . S
C2955 C2954 1.363 . S
C2955 C2958 1.363 1_565 S
N2956 C2958 1.356 . S
N2956 H2968 0.984 . S
N2956 H2969 0.985 . S
N2957 C2959 1.356 . S
N2957 H2962 0.984 . S
N2957 H2963 0.985 . S
C2958 C2952 1.379 . S
C2958 C2955 1.363 1_545 S
C2958 N2956 1.356 . S
C2959 C2953 1.363 . S
C2959 C2954 1.379 . S
C2959 N2957 1.356 . S
N2960 C2952 1.356 . S
N2960 H2966 0.984 . S
N2960 H2967 0.984 . S
N2961 C2954 1.356 . S
N2961 H2964 0.984 . S
N2961 H2965 0.985 . S
H2962 N2957 0.984 . S
H2963 N2957 0.985 . S
H2964 N2961 0.984 . S
H2965 N2961 0.985 . S
H2966 N2960 0.984 . S
H2967 N2960 0.984 . S
H2968 N2956 0.984 . S
H2969 N2956 0.985 . S
C2970 C2971 1.363 . S
C2970 C2976 1.379 . S
C2970 N2978 1.356 . S
C2971 C2970 1.363 . S
C2971 C2977 1.363 . S
C2972 C2973 1.363 . S
C2972 C2977 1.379 . S
C2972 N2979 1.356 . S
C2973 C2972 1.363 . S
C2973 C2976 1.363 . S
N2974 C2976 1.356 1_655 S
N2974 H2986 0.984 . S
N2974 H2987 0.985 . S
N2975 C2977 1.356 . S
N2975 H2980 0.984 . S
N2975 H2981 0.985 . S
C2976 C2970 1.379 . S
C2976 C2973 1.363 . S
C2976 N2974 1.356 1_455 S
C2977 C2971 1.363 . S
C2977 C2972 1.379 . S
C2977 N2975 1.356 . S
N2978 C2970 1.356 . S
N2978 H2984 0.984 . S
N2978 H2985 0.984 . S
N2979 C2972 1.356 . S
N2979 H2982 0.984 1_455 S
N2979 H2983 0.985 . S
H2980 N2975 0.984 . S
H2981 N2975 0.985 . S
H2982 N2979 0.984 1_655 S
H2983 N2979 0.985 . S
H2984 N2978 0.984 . S
H2985 N2978 0.984 . S
H2986 N2974 0.984 . S
H2987 N2974 0.985 . S
C2988 C2989 1.363 . S
C2988 C2994 1.379 . S
C2988 N2996 1.356 . S
C2989 C2988 1.363 . S
C2989 C2995 1.363 . S
C2990 C2991 1.363 . S
C2990 C2995 1.379 . S
C2990 N2997 1.356 . S
C2991 C2990 1.363 . S
C2991 C2994 1.363 . S
N2992 C2994 1.356 . S
N2992 H3004 0.984 . S
N2992 H3005 0.985 . S
N2993 C2995 1.356 . S
N2993 H2998 0.984 . S
N2993 H2999 0.985 . S
C2994 C2988 1.379 . S
C2994 C2991 1.363 . S
C2994 N2992 1.356 . S
C2995 C2989 1.363 . S
C2995 C2990 1.379 . S
C2995 N2993 1.356 . S
N2996 C2988 1.356 . S
N2996 H3002 0.984 . S
N2996 H3003 0.984 . S
N2997 C2990 1.356 . S
N2997 H3000 0.984 . S
N2997 H3001 0.985 . S
H2998 N2993 0.984 . S
H2999 N2993 0.985 . S
H3000 N2997 0.984 . S
H3001 N2997 0.985 . S
H3002 N2996 0.984 . S
H3003 N2996 0.984 . S
H3004 N2992 0.984 . S
H3005 N2992 0.985 . S
C3006 C3007 1.363 . S
C3006 C3012 1.379 . S
C3006 N3014 1.356 . S
C3007 C3006 1.363 . S
C3007 C3013 1.363 . S
C3008 C3009 1.363 . S
C3008 C3013 1.379 . S
C3008 N3015 1.356 . S
C3009 C3008 1.363 . S
C3009 C3012 1.363 . S
N3010 C3012 1.356 . S
N3010 H3022 0.984 . S
N3010 H3023 0.985 . S
N3011 C3013 1.356 . S
N3011 H3016 0.984 . S
N3011 H3017 0.985 . S
C3012 C3006 1.379 . S
C3012 C3009 1.363 . S
C3012 N3010 1.356 . S
C3013 C3007 1.363 . S
C3013 C3008 1.379 . S
C3013 N3011 1.356 . S
N3014 C3006 1.356 . S
N3014 H3020 0.984 . S
N3014 H3021 0.984 . S
N3015 C3008 1.356 . S
N3015 H3018 0.984 . S
N3015 H3019 0.985 . S
H3016 N3011 0.984 . S
H3017 N3011 0.985 . S
H3018 N3015 0.984 . S
H3019 N3015 0.985 . S
H3020 N3014 0.984 . S
H3021 N3014 0.984 . S
H3022 N3010 0.984 . S
H3023 N3010 0.985 . S
C3024 C3025 1.363 . S
C3024 C3030 1.379 . S
C3024 N3032 1.356 . S
C3025 C3024 1.363 . S
C3025 C3031 1.363 . S
C3026 C3027 1.363 . S
C3026 C3031 1.379 . S
C3026 N3033 1.356 . S
C3027 C3026 1.363 . S
C3027 C3030 1.363 . S
N3028 C3030 1.356 . S
N3028 H3040 0.984 . S
N3028 H3041 0.985 . S
N3029 C3031 1.356 . S
N3029 H3034 0.984 . S
N3029 H3035 0.985 . S
C3030 C3024 1.379 . S
C3030 C3027 1.363 . S
C3030 N3028 1.356 . S
C3031 C3025 1.363 . S
C3031 C3026 1.379 . S
C3031 N3029 1.356 . S
N3032 C3024 1.356 . S
N3032 H3038 0.984 . S
N3032 H3039 0.984 . S
N3033 C3026 1.356 . S
N3033 H3036 0.984 . S
N3033 H3037 0.985 . S
H3034 N3029 0.984 . S
H3035 N3029 0.985 . S
H3036 N3033 0.984 . S
H3037 N3033 0.985 . S
H3038 N3032 0.984 . S
H3039 N3032 0.984 . S
H3040 N3028 0.984 . S
H3041 N3028 0.985 . S
C3042 C3043 1.363 . S
C3042 C3048 1.379 . S
C3042 N3050 1.356 . S
C3043 C3042 1.363 . S
C3043 C3049 1.363 . S
C3044 C3045 1.363 . S
C3044 C3049 1.379 . S
C3044 N3051 1.356 . S
C3045 C3044 1.363 . S
C3045 C3048 1.363 . S
N3046 C3048 1.356 . S
N3046 H3058 0.984 . S
N3046 H3059 0.985 . S
N3047 C3049 1.356 . S
N3047 H3052 0.984 . S
N3047 H3053 0.985 . S
C3048 C3042 1.379 . S
C3048 C3045 1.363 . S
C3048 N3046 1.356 . S
C3049 C3043 1.363 . S
C3049 C3044 1.379 . S
C3049 N3047 1.356 . S
N3050 C3042 1.356 . S
N3050 H3056 0.984 . S
N3050 H3057 0.984 1_655 S
N3051 C3044 1.356 . S
N3051 H3054 0.984 . S
N3051 H3055 0.985 . S
H3052 N3047 0.984 . S
H3053 N3047 0.985 . S
H3054 N3051 0.984 . S
H3055 N3051 0.985 . S
H3056 N3050 0.984 . S
H3057 N3050 0.984 1_455 S
H3058 N3046 0.984 . S
H3059 N3046 0.985 . S
C3060 C3061 1.363 . S
C3060 C3066 1.379 . S
C3060 N3068 1.356 . S
C3061 C3060 1.363 . S
C3061 C3067 1.363 . S
C3062 C3063 1.346 1_565 S
C3062 C3067 1.354 1_565 S
C3062 N3069 1.400 . S
C3063 C3062 1.346 1_545 S
C3063 C3066 1.363 . S
N3064 C3066 1.356 . S
N3064 H3076 0.984 . S
N3064 H3077 0.985 . S
N3065 C3067 1.356 1_565 S
N3065 H3070 0.990 . S
N3065 H3071 0.985 . S
C3066 C3060 1.379 . S
C3066 C3063 1.363 . S
C3066 N3064 1.356 . S
C3067 C3061 1.363 . S
C3067 C3062 1.354 1_545 S
C3067 N3065 1.356 1_545 S
N3068 C3060 1.356 . S
N3068 H3074 0.984 . S
N3068 H3075 0.984 . S
N3069 C3062 1.400 . S
N3069 H3072 0.984 . S
N3069 H3073 0.985 . S
H3070 N3065 0.990 . S
H3071 N3065 0.985 . S
H3072 N3069 0.984 . S
H3073 N3069 0.985 . S
H3074 N3068 0.984 . S
H3075 N3068 0.984 . S
H3076 N3064 0.984 . S
H3077 N3064 0.985 . S
C3078 C3079 1.363 . S
C3078 C3084 1.379 . S
C3078 N3086 1.356 1_655 S
C3079 C3078 1.363 . S
C3079 C3085 1.363 . S
C3080 C3081 1.363 . S
C3080 C3085 1.379 . S
C3080 N3087 1.356 . S
C3081 C3080 1.363 . S
C3081 C3084 1.363 . S
N3082 C3084 1.356 1_455 S
N3082 H3094 0.984 . S
N3082 H3095 0.985 . S
N3083 C3085 1.356 . S
N3083 H3088 0.984 . S
N3083 H3089 0.985 . S
C3084 C3078 1.379 . S
C3084 C3081 1.363 . S
C3084 N3082 1.356 1_655 S
C3085 C3079 1.363 . S
C3085 C3080 1.379 . S
C3085 N3083 1.356 . S
N3086 C3078 1.356 1_455 S
N3086 H3092 0.984 . S
N3086 H3093 0.984 1_455 S
N3087 C3080 1.356 . S
N3087 H3090 0.984 . S
N3087 H3091 0.985 . S
H3088 N3083 0.984 . S
H3089 N3083 0.985 . S
H3090 N3087 0.984 . S
H3091 N3087 0.985 . S
H3092 N3086 0.984 . S
H3093 N3086 0.984 1_655 S
H3094 N3082 0.984 . S
H3095 N3082 0.985 . S
C3096 C3097 1.363 . S
C3096 C3102 1.379 . S
C3096 N3104 1.356 . S
C3097 C3096 1.363 . S
C3097 C3103 1.363 . S
C3098 C3099 1.363 . S
C3098 C3103 1.379 . S
C3098 N3105 1.356 . S
C3099 C3098 1.363 . S
C3099 C3102 1.363 . S
N3100 C3102 1.356 . S
N3100 H3112 0.984 . S
N3100 H3113 0.985 . S
N3101 C3103 1.356 . S
N3101 H3106 0.984 . S
N3101 H3107 0.985 . S
C3102 C3096 1.379 . S
C3102 C3099 1.363 . S
C3102 N3100 1.356 . S
C3103 C3097 1.363 . S
C3103 C3098 1.379 . S
C3103 N3101 1.356 . S
N3104 C3096 1.356 . S
N3104 H3110 0.984 . S
N3104 H3111 0.984 . S
N3105 C3098 1.356 . S
N3105 H3108 0.984 . S
N3105 H3109 0.985 . S
H3106 N3101 0.984 . S
H3107 N3101 0.985 . S
H3108 N3105 0.984 . S
H3109 N3105 0.985 . S
H3110 N3104 0.984 . S
H3111 N3104 0.984 . S
H3112 N3100 0.984 . S
H3113 N3100 0.985 . S
C3114 C3115 1.363 . S
C3114 C3120 1.379 . S
C3114 N3122 1.356 . S
C3115 C3114 1.363 . S
C3115 C3121 1.363 . S
C3116 C3117 1.363 . S
C3116 C3121 1.379 . S
C3116 N3123 1.356 . S
C3117 C3116 1.363 . S
C3117 C3120 1.363 . S
N3118 C3120 1.356 . S
N3118 H3130 0.984 . S
N3118 H3131 0.985 . S
N3119 C3121 1.356 . S
N3119 H3124 0.984 . S
N3119 H3125 0.985 . S
C3120 C3114 1.379 . S
C3120 C3117 1.363 . S
C3120 N3118 1.356 . S
C3121 C3115 1.363 . S
C3121 C3116 1.379 . S
C3121 N3119 1.356 . S
N3122 C3114 1.356 . S
N3122 H3128 0.984 . S
N3122 H3129 0.984 . S
N3123 C3116 1.356 . S
N3123 H3126 0.984 . S
N3123 H3127 0.985 . S
H3124 N3119 0.984 . S
H3125 N3119 0.985 . S
H3126 N3123 0.984 . S
H3127 N3123 0.985 . S
H3128 N3122 0.984 . S
H3129 N3122 0.984 . S
H3130 N3118 0.984 . S
H3131 N3118 0.985 . S
C3132 C3133 1.363 . S
C3132 C3138 1.379 . S
C3132 N3140 1.356 . S
C3133 C3132 1.363 . S
C3133 C3139 1.363 . S
C3134 C3135 1.363 . S
C3134 C3139 1.379 . S
C3134 N3141 1.356 . S
C3135 C3134 1.363 . S
C3135 C3138 1.363 . S
N3136 C3138 1.356 . S
N3136 H3148 0.984 . S
N3136 H3149 0.985 . S
N3137 C3139 1.356 . S
N3137 H3142 0.984 . S
N3137 H3143 0.985 . S
C3138 C3132 1.379 . S
C3138 C3135 1.363 . S
C3138 N3136 1.356 . S
C3139 C3133 1.363 . S
C3139 C3134 1.379 . S
C3139 N3137 1.356 . S
N3140 C3132 1.356 . S
N3140 H3146 0.984 . S
N3140 H3147 0.984 . S
N3141 C3134 1.356 . S
N3141 H3144 0.984 . S
N3141 H3145 0.985 . S
H3142 N3137 0.984 . S
H3143 N3137 0.985 . S
H3144 N3141 0.984 . S
H3145 N3141 0.985 . S
H3146 N3140 0.984 . S
H3147 N3140 0.984 . S
H3148 N3136 0.984 . S
H3149 N3136 0.985 . S
C3150 C3151 1.363 . S
C3150 C3156 1.379 . S
C3150 N3158 1.356 . S
C3151 C3150 1.363 . S
C3151 C3157 1.363 . S
C3152 C3153 1.363 . S
C3152 C3157 1.379 . S
C3152 N3159 1.356 . S
C3153 C3152 1.363 . S
C3153 C3156 1.363 . S
N3154 C3156 1.356 . S
N3154 H3166 0.984 . S
N3154 H3167 0.985 . S
N3155 C3157 1.358 1_655 S
N3155 H3160 0.983 . S
N3155 H3161 0.984 . S
C3156 C3150 1.379 . S
C3156 C3153 1.363 . S
C3156 N3154 1.356 . S
C3157 C3151 1.363 . S
C3157 C3152 1.379 . S
C3157 N3155 1.358 1_455 S
N3158 C3150 1.356 . S
N3158 H3164 0.984 . S
N3158 H3165 0.984 . S
N3159 C3152 1.356 . S
N3159 H3162 0.984 . S
N3159 H3163 0.985 . S
H3160 N3155 0.983 . S
H3161 N3155 0.984 . S
H3162 N3159 0.984 . S
H3163 N3159 0.985 . S
H3164 N3158 0.984 . S
H3165 N3158 0.984 . S
H3166 N3154 0.984 . S
H3167 N3154 0.985 . S
C3168 C3169 1.363 . S
C3168 C3174 1.379 . S
C3168 N3176 1.356 . S
C3169 C3168 1.363 . S
C3169 C3175 1.363 . S
C3170 C3171 1.363 . S
C3170 C3175 1.379 . S
C3170 N3177 1.356 . S
C3171 C3170 1.363 . S
C3171 C3174 1.363 . S
N3172 C3174 1.356 . S
N3172 H3184 0.984 . S
N3172 H3185 0.985 . S
N3173 C3175 1.356 . S
N3173 H3178 0.984 . S
N3173 H3179 0.985 . S
C3174 C3168 1.379 . S
C3174 C3171 1.363 . S
C3174 N3172 1.356 . S
C3175 C3169 1.363 . S
C3175 C3170 1.379 . S
C3175 N3173 1.356 . S
N3176 C3168 1.356 . S
N3176 H3182 0.984 . S
N3176 H3183 0.984 . S
N3177 C3170 1.356 . S
N3177 H3180 0.984 . S
N3177 H3181 0.985 . S
H3178 N3173 0.984 . S
H3179 N3173 0.985 . S
H3180 N3177 0.984 . S
H3181 N3177 0.985 . S
H3182 N3176 0.984 . S
H3183 N3176 0.984 . S
H3184 N3172 0.984 . S
H3185 N3172 0.985 . S
C3186 C3187 1.363 . S
C3186 C3192 1.379 . S
C3186 N3194 1.356 . S
C3187 C3186 1.363 . S
C3187 C3193 1.363 . S
C3188 C3189 1.363 . S
C3188 C3193 1.379 . S
C3188 N3195 1.356 . S
C3189 C3188 1.363 . S
C3189 C3192 1.363 . S
N3190 C3192 1.356 . S
N3190 H3202 0.984 . S
N3190 H3203 0.985 . S
N3191 C3193 1.356 . S
N3191 H3196 0.984 . S
N3191 H3197 0.985 . S
C3192 C3186 1.379 . S
C3192 C3189 1.363 . S
C3192 N3190 1.356 . S
C3193 C3187 1.363 . S
C3193 C3188 1.379 . S
C3193 N3191 1.356 . S
N3194 C3186 1.356 . S
N3194 H3200 0.984 . S
N3194 H3201 0.984 1_565 S
N3195 C3188 1.356 . S
N3195 H3198 0.984 . S
N3195 H3199 0.985 . S
H3196 N3191 0.984 . S
H3197 N3191 0.985 . S
H3198 N3195 0.984 . S
H3199 N3195 0.985 . S
H3200 N3194 0.984 . S
H3201 N3194 0.984 1_545 S
H3202 N3190 0.984 . S
H3203 N3190 0.985 . S
C3204 C3205 1.363 . S
C3204 C3210 1.379 . S
C3204 N3212 1.356 . S
C3205 C3204 1.363 . S
C3205 C3211 1.363 . S
C3206 C3207 1.363 . S
C3206 C3211 1.379 . S
C3206 N3213 1.356 . S
C3207 C3206 1.363 . S
C3207 C3210 1.363 . S
N3208 C3210 1.356 . S
N3208 H3220 0.984 . S
N3208 H3221 0.985 . S
N3209 C3211 1.356 . S
N3209 H3214 0.984 . S
N3209 H3215 0.985 . S
C3210 C3204 1.379 . S
C3210 C3207 1.363 . S
C3210 N3208 1.356 . S
C3211 C3205 1.363 . S
C3211 C3206 1.379 . S
C3211 N3209 1.356 . S
N3212 C3204 1.356 . S
N3212 H3218 0.984 . S
N3212 H3219 0.984 . S
N3213 C3206 1.356 . S
N3213 H3216 0.984 . S
N3213 H3217 0.985 . S
H3214 N3209 0.984 . S
H3215 N3209 0.985 . S
H3216 N3213 0.984 . S
H3217 N3213 0.985 . S
H3218 N3212 0.984 . S
H3219 N3212 0.984 . S
H3220 N3208 0.984 . S
H3221 N3208 0.985 . S
C3222 C3223 1.363 . S
C3222 C3228 1.379 . S
C3222 N3230 1.356 . S
C3223 C3222 1.363 . S
C3223 C3229 1.363 . S
C3224 C3225 1.363 . S
C3224 C3229 1.379 . S
C3224 N3231 1.356 1_655 S
C3225 C3224 1.363 . S
C3225 C3228 1.363 . S
N3226 C3228 1.356 . S
N3226 H3238 0.984 . S
N3226 H3239 0.985 . S
N3227 C3229 1.356 . S
N3227 H3232 0.984 . S
N3227 H3233 0.985 . S
C3228 C3222 1.379 . S
C3228 C3225 1.363 . S
C3228 N3226 1.356 . S
C3229 C3223 1.363 . S
C3229 C3224 1.379 . S
C3229 N3227 1.356 . S
N3230 C3222 1.356 . S
N3230 H3236 0.984 . S
N3230 H3237 0.984 . S
N3231 C3224 1.356 1_455 S
N3231 H3234 0.984 . S
N3231 H3235 0.985 . S
H3232 N3227 0.984 . S
H3233 N3227 0.985 . S
H3234 N3231 0.984 . S
H3235 N3231 0.985 . S
H3236 N3230 0.984 . S
H3237 N3230 0.984 . S
H3238 N3226 0.984 . S
H3239 N3226 0.985 . S
C3240 C3241 1.363 . S
C3240 C3246 1.379 . S
C3240 N3248 1.356 . S
C3241 C3240 1.363 . S
C3241 C3247 1.363 . S
C3242 C3243 1.363 . S
C3242 C3247 1.379 . S
C3242 N3249 1.356 . S
C3243 C3242 1.363 . S
C3243 C3246 1.363 . S
N3244 C3246 1.356 . S
N3244 H3256 0.984 . S
N3244 H3257 0.985 . S
N3245 C3247 1.356 . S
N3245 H3250 0.984 . S
N3245 H3251 0.985 . S
C3246 C3240 1.379 . S
C3246 C3243 1.363 . S
C3246 N3244 1.356 . S
C3247 C3241 1.363 . S
C3247 C3242 1.379 . S
C3247 N3245 1.356 . S
N3248 C3240 1.356 . S
N3248 H3254 0.984 . S
N3248 H3255 0.984 . S
N3249 C3242 1.356 . S
N3249 H3252 0.984 . S
N3249 H3253 0.985 . S
H3250 N3245 0.984 . S
H3251 N3245 0.985 . S
H3252 N3249 0.984 . S
H3253 N3249 0.985 . S
H3254 N3248 0.984 . S
H3255 N3248 0.984 . S
H3256 N3244 0.984 . S
H3257 N3244 0.985 . S
C3258 C3259 1.363 . S
C3258 C3264 1.379 . S
C3258 N3266 1.356 . S
C3259 C3258 1.363 . S
C3259 C3265 1.363 . S
C3260 C3261 1.363 1_565 S
C3260 C3265 1.379 1_565 S
C3260 N3267 1.356 . S
C3261 C3260 1.363 1_545 S
C3261 C3264 1.363 . S
N3262 C3264 1.356 . S
N3262 H3274 0.984 . S
N3262 H3275 0.985 . S
N3263 C3265 1.356 . S
N3263 H3268 0.984 . S
N3263 H3269 0.985 1_545 S
C3264 C3258 1.379 . S
C3264 C3261 1.363 . S
C3264 N3262 1.356 . S
C3265 C3259 1.363 . S
C3265 C3260 1.379 1_545 S
C3265 N3263 1.356 . S
N3266 C3258 1.356 . S
N3266 H3272 0.984 . S
N3266 H3273 0.984 . S
N3267 C3260 1.356 . S
N3267 H3270 0.984 . S
N3267 H3271 0.985 . S
H3268 N3263 0.984 . S
H3269 N3263 0.985 1_565 S
H3270 N3267 0.984 . S
H3271 N3267 0.985 . S
H3272 N3266 0.984 . S
H3273 N3266 0.984 . S
H3274 N3262 0.984 . S
H3275 N3262 0.985 . S
C1981 C4 1.325 1_655 S
C1983 C1377 1.253 . S
C1999 C38 1.807 . S
C2001 C1457 1.714 . S
C2019 C1525 1.348 . S
C2017 C74 1.389 . S
C2035 C76 1.658 . S
C2037 C1605 1.644 . S
C2053 C2 1.572 . S
C2055 C1679 1.580 . S
C2071 C40 1.690 1_556 S
C2073 C1747 1.554 . S
C2089 C110 1.290 1_556 S
C2091 C1673 1.254 . S
C2109 C1753 1.448 . S
C2107 C148 1.453 . S
C2127 C1599 1.378 . S
C2125 C182 1.383 1_566 S
C2143 C184 1.660 . S
C2145 C1531 1.709 1_545 S
C2163 C1383 1.458 . S
C2161 C112 1.433 . S
C2179 C146 1.530 . S
C2181 C1451 1.497 . S
C2197 C220 1.655 . S
C2199 C1821 1.469 . S
C2215 C254 1.871 . S
C2217 C1901 1.752 . S
C2235 C1969 1.601 . S
C2233 C290 1.764 . S
C2251 C292 1.864 . S
C2253 C717 1.769 . S
C2269 C218 1.851 . S
C2271 C791 1.755 . S
C2287 C256 1.723 . S
C2289 C859 1.578 . S
C2305 C326 1.393 . S
C2307 C785 1.322 . S
C2323 C364 1.521 . S
C2325 C865 1.506 . S
C2343 C711 1.501 . S
C2341 C398 1.528 . S
C2361 C1975 1.799 . S
C2359 C400 1.805 . S
C2379 C1827 1.484 . S
C2377 C328 1.500 . S
C2397 C1895 1.536 . S
C2395 C362 1.574 . S
C2413 C436 1.580 . S
C2415 C933 1.398 . S
C2431 C470 1.873 . S
C2433 C1013 1.760 . S
C2449 C506 1.765 . S
C2451 C1081 1.611 . S
C2467 C508 1.937 . S
C2469 C1161 1.838 . S
C2487 C1235 1.744 . S
C2485 C434 1.848 . S
C2505 C1303 1.606 . S
C2503 C472 1.758 . S
C2523 C1229 1.418 . S
C2521 C542 1.493 . S
C2541 C1309 1.494 . S
C2539 C580 1.512 . S
C2557 C614 1.489 . S
C2559 C1155 1.458 . S
C2577 C1087 1.719 . S
C2575 C616 1.723 . S
C2593 C544 1.522 . S
C2595 C939 1.512 . S
C2613 C1007 1.512 . S
C2611 C578 1.540 . S
C2631 C687 1.983 . S
C2629 C14 2.022 . S
C2647 C39 1.535 . S
C2649 C761 1.516 . S
C2667 C847 1.535 . S
C2665 C75 1.551 . S
C2685 C921 1.313 . S
C2683 C86 1.381 . S
C2703 C983 1.621 . S
C2701 C3 1.635 1_556 S
C2721 C1069 1.622 1_554 S
C2719 C50 1.631 . S
C2737 C111 2.137 . S
C2739 C1057 2.005 . S
C2755 C158 1.811 . S
C2757 C909 1.639 . S
C2773 C183 1.935 . S
C2775 C995 1.867 . S
C2791 C194 1.830 . S
C2793 C773 1.646 . S
C2811 C835 1.758 . S
C2809 C122 1.932 . S
C2827 C147 1.802 . S
C2829 C699 1.731 . S
C2847 C1131 1.919 . S
C2845 C230 1.955 . S
C2863 C255 1.637 . S
C2865 C1205 1.615 . S
C2881 C291 1.564 1_655 S
C2883 C1291 1.556 . S
C2901 C1365 1.189 . S
C2899 C302 1.205 . S
C2917 C219 1.576 . S
C2919 C1427 1.552 . S
C2935 C266 1.434 . S
C2937 C1513 1.499 . S
C2953 C327 1.778 . S
C2955 C1501 1.693 1_565 S
C2971 C374 1.467 . S
C2973 C1353 1.407 1_455 S
C2991 C1439 1.791 . S
C2989 C399 1.863 . S
C3007 C410 1.827 . S
C3009 C1217 1.636 . S
C3025 C338 1.912 . S
C3027 C1279 1.765 . S
C3045 C1143 1.786 . S
C3043 C363 1.864 . S
C3063 C1575 1.779 . S
C3061 C446 1.756 . S
C3079 C471 1.355 . S
C3081 C1649 1.340 . S
C3097 C507 1.495 . S
C3099 C1735 1.477 . S
C3117 C1809 1.330 . S
C3115 C518 1.409 . S
C3135 C1871 1.645 . S
C3133 C435 1.668 . S
C3151 C482 1.684 1_455 S
C3153 C1957 1.685 . S
C3169 C543 2.082 . S
C3171 C1945 1.945 . S
C3187 C590 1.885 1_565 S
C3189 C1797 1.728 . S
C3207 C1883 1.851 . S
C3205 C615 1.937 1_455 S
C3225 C1661 1.317 . S
C3223 C626 1.392 . S
C3243 C1723 1.694 . S
C3241 C554 1.841 . S
C3259 C579 1.532 . S
C3261 C1587 1.501 . S
