# Generated by pormake.
# Topology zzz, (3,6)-cn, num edge types: 1
# Building blocks:
#     Node 0, Type 0, BuildingBlock: QEWDON_clean_linker_0, # of connection points: 3
#     Node 1, Type 0, BuildingBlock: QEWDON_clean_linker_0, # of connection points: 3
#     Node 2, Type 0, BuildingBlock: QEWDON_clean_linker_0, # of connection points: 3
#     Node 3, Type 0, BuildingBlock: QEWDON_clean_linker_0, # of connection points: 3
#     Node 4, Type 0, BuildingBlock: QEWDON_clean_linker_0, # of connection points: 3
#     Node 5, Type 0, BuildingBlock: QEWDON_clean_linker_0, # of connection points: 3
#     Node 6, Type 0, BuildingBlock: QEWDON_clean_linker_0, # of connection points: 3
#     Node 7, Type 0, BuildingBlock: QEWDON_clean_linker_0, # of connection points: 3
#     Node 8, Type 1, BuildingBlock: VOLQOD_clean_sbu_1, # of connection points: 6
#     Node 9, Type 1, BuildingBlock: VOLQOD_clean_sbu_1, # of connection points: 6
#     Node 10, Type 1, BuildingBlock: VOLQOD_clean_sbu_1, # of connection points: 6
#     Node 11, Type 1, BuildingBlock: VOLQOD_clean_sbu_1, # of connection points: 6
#     Edge 12, Type (0, 1), BuildingBlock: AJUNOK_clean_linker_0, # of connection points: 2
#     Edge 13, Type (0, 1), BuildingBlock: AJUNOK_clean_linker_0, # of connection points: 2
#     Edge 14, Type (0, 1), BuildingBlock: AJUNOK_clean_linker_0, # of connection points: 2
#     Edge 15, Type (0, 1), BuildingBlock: AJUNOK_clean_linker_0, # of connection points: 2
#     Edge 16, Type (0, 1), BuildingBlock: AJUNOK_clean_linker_0, # of connection points: 2
#     Edge 17, Type (0, 1), BuildingBlock: AJUNOK_clean_linker_0, # of connection points: 2
#     Edge 18, Type (0, 1), BuildingBlock: AJUNOK_clean_linker_0, # of connection points: 2
#     Edge 19, Type (0, 1), BuildingBlock: AJUNOK_clean_linker_0, # of connection points: 2
#     Edge 20, Type (0, 1), BuildingBlock: AJUNOK_clean_linker_0, # of connection points: 2
#     Edge 21, Type (0, 1), BuildingBlock: AJUNOK_clean_linker_0, # of connection points: 2
#     Edge 22, Type (0, 1), BuildingBlock: AJUNOK_clean_linker_0, # of connection points: 2
#     Edge 23, Type (0, 1), BuildingBlock: AJUNOK_clean_linker_0, # of connection points: 2
#     Edge 24, Type (0, 1), BuildingBlock: AJUNOK_clean_linker_0, # of connection points: 2
#     Edge 25, Type (0, 1), BuildingBlock: AJUNOK_clean_linker_0, # of connection points: 2
#     Edge 26, Type (0, 1), BuildingBlock: AJUNOK_clean_linker_0, # of connection points: 2
#     Edge 27, Type (0, 1), BuildingBlock: AJUNOK_clean_linker_0, # of connection points: 2
#     Edge 28, Type (0, 1), BuildingBlock: AJUNOK_clean_linker_0, # of connection points: 2
#     Edge 29, Type (0, 1), BuildingBlock: AJUNOK_clean_linker_0, # of connection points: 2
#     Edge 30, Type (0, 1), BuildingBlock: AJUNOK_clean_linker_0, # of connection points: 2
#     Edge 31, Type (0, 1), BuildingBlock: AJUNOK_clean_linker_0, # of connection points: 2
#     Edge 32, Type (0, 1), BuildingBlock: AJUNOK_clean_linker_0, # of connection points: 2
#     Edge 33, Type (0, 1), BuildingBlock: AJUNOK_clean_linker_0, # of connection points: 2
#     Edge 34, Type (0, 1), BuildingBlock: AJUNOK_clean_linker_0, # of connection points: 2
#     Edge 35, Type (0, 1), BuildingBlock: AJUNOK_clean_linker_0, # of connection points: 2
# Relax obj value: 0.136
# Max RMSD: 0.231
# Mean RMSD: 0.094
data_MOF--net-zzz--node1-VOLQOD_clean_sbu_1--node2-QEWDON_clean_linker_0--edge1-AJUNOK_clean_linker_0
_symmetry_space_group_name_H-M    P1
_symmetry_Int_Tables_number       1
_symmetry_cell_setting            triclinic
loop_
_symmetry_equiv_pos_as_xyz
'x, y, z'
_cell_length_a     40.841917
_cell_length_b     40.639142
_cell_length_c     13.191226
_cell_angle_alpha  90.231207
_cell_angle_beta   89.948607
_cell_angle_gamma 90.758843
loop_
_atom_site_label
_atom_site_type_symbol
_atom_site_fract_x
_atom_site_fract_y
_atom_site_fract_z
_atom_type_partial_charge
H0 H 0.80594 0.51275 0.01753 0.0
C1 C 0.81952 0.52097 0.08345 0.0
C2 C 0.8522 0.51097 0.0939 0.0
C3 C 0.80513 0.54209 0.15643 0.0
H4 H 0.89693 0.51806 0.17777 0.0
C5 C 0.87117 0.52406 0.17264 0.0
C6 C 0.85786 0.54472 0.24546 0.0
C7 C 0.82459 0.55256 0.24022 0.0
C8 C 0.77083 0.55465 0.14323 0.0
H9 H 0.81437 0.56712 0.30103 0.0
C10 C 0.74697 0.53771 0.08364 0.0
C11 C 0.71579 0.55129 0.06796 0.0
C12 C 0.76207 0.58512 0.18691 0.0
H13 H 0.77947 0.60003 0.22906 0.0
C14 C 0.73081 0.59778 0.17429 0.0
H15 H 0.75244 0.51442 0.0479 0.0
C16 C 0.70786 0.5811 0.11498 0.0
H17 H 0.68405 0.59194 0.10333 0.0
H18 H 0.72465 0.62115 0.2085 0.0
H19 H 0.05139 0.78737 0.03903 0.0
C20 C 0.03893 0.80221 0.09503 0.0
C21 C 0.03891 0.83668 0.08422 0.0
C22 C 0.02314 0.78737 0.17919 0.0
H23 H 0.02277 0.88258 0.14674 0.0
C24 C 0.02283 0.85603 0.15567 0.0
C25 C 1.00615 0.84197 0.2368 0.0
C26 C 1.0062 0.80773 0.24851 0.0
C27 C 0.02475 0.75111 0.19828 0.0
H28 H 0.99296 0.79712 0.31192 0.0
C29 C 0.02435 0.72758 0.11868 0.0
C30 C 0.02458 0.69347 0.14024 0.0
C31 C 0.02646 0.73983 0.299 0.0
H32 H 0.02817 0.75689 0.36207 0.0
C33 C 0.02617 0.70636 0.32046 0.0
H34 H 0.02392 0.73573 0.04071 0.0
C35 C 0.02488 0.68339 0.2422 0.0
H36 H 0.02424 0.65752 0.26182 0.0
H37 H 0.027 0.69816 0.39839 0.0
H38 H 0.73178 0.05976 0.03882 0.0
C39 C 0.71649 0.04422 0.08631 0.0
C40 C 0.68222 0.04733 0.08288 0.0
C41 C 0.73091 0.02148 0.15288 0.0
H42 H 0.63652 0.03092 0.14617 0.0
C43 C 0.66282 0.02795 0.14742 0.0
C44 C 0.67629 1.00447 0.21178 0.0
C45 C 0.71049 1.00095 0.21259 0.0
C46 C 0.76713 0.02047 0.16643 0.0
H47 H 0.72141 0.98241 0.25999 0.0
C48 C 0.78901 0.02158 0.08333 0.0
C49 C 0.82311 0.02101 0.09993 0.0
C50 C 0.78002 0.01893 0.26528 0.0
H51 H 0.76398 0.01863 0.33075 0.0
C52 C 0.81373 0.01839 0.28129 0.0
H53 H 0.77968 0.0227 0.00656 0.0
C54 C 0.83518 0.01946 0.19924 0.0
H55 H 0.86132 0.01907 0.21319 0.0
H56 H 0.82327 0.01729 0.35772 0.0
H57 H 0.50911 0.73912 0.00472 0.0
C58 C 0.50916 0.72528 0.07467 0.0
C59 C 0.49543 0.69333 0.07488 0.0
C60 C 0.52528 0.73797 0.16171 0.0
H61 H 0.49048 0.64847 0.15897 0.0
C62 C 0.49825 0.6741 0.16174 0.0
C63 C 0.51507 0.68539 0.247 0.0
C64 C 0.52747 0.7177 0.24853 0.0
C65 C 0.54304 0.77051 0.15848 0.0
H66 H 0.53968 0.72639 0.31652 0.0
C67 C 0.53236 0.79657 0.09616 0.0
C68 C 0.55086 0.82601 0.08902 0.0
C69 C 0.5722 0.7751 0.21449 0.0
H70 H 0.58227 0.75559 0.25991 0.0
C71 C 0.58966 0.80473 0.21058 0.0
H72 H 0.51025 0.79388 0.05149 0.0
C73 C 0.57914 0.83001 0.14836 0.0
H74 H 0.59347 0.85262 0.14515 0.0
H75 H 0.61189 0.80784 0.2544 0.0
H76 H 0.24406 0.54986 0.34237 0.0
C77 C 0.22893 0.53574 0.29009 0.0
C78 C 0.19468 0.53817 0.29504 0.0
C79 C 0.24351 0.51593 0.21492 0.0
H80 H 0.14886 0.52145 0.23262 0.0
C81 C 0.17528 0.51959 0.22818 0.0
C82 C 0.18905 0.49854 0.1565 0.0
C83 C 0.22331 0.49726 0.14863 0.0
C84 C 0.27959 0.51635 0.20015 0.0
H85 H 0.23425 0.48184 0.09092 0.0
C86 C 0.30149 0.51178 0.28164 0.0
C87 C 0.33565 0.51188 0.26454 0.0
C88 C 0.29224 0.52155 0.10232 0.0
H89 H 0.27601 0.52556 0.03873 0.0
C90 C 0.3259 0.52216 0.08551 0.0
H91 H 0.29196 0.50722 0.35704 0.0
C92 C 0.34745 0.51734 0.16568 0.0
H93 H 0.37352 0.51811 0.15039 0.0
H94 H 0.33535 0.52642 0.00992 0.0
H95 H 1.0063 0.23415 0.30006 0.0
C96 C 0.0214 0.21957 0.24998 0.0
C97 C 0.01901 0.18511 0.25382 0.0
C98 C 0.04197 0.23497 0.17757 0.0
H99 H 0.03594 0.13955 0.19199 0.0
C100 C 0.0381 0.16616 0.1886 0.0
C101 C 0.0581 0.18056 0.115 0.0
C102 C 0.0605 0.21507 0.11093 0.0
C103 C 0.04206 0.2715 0.16526 0.0
H104 H 0.07616 0.22633 0.0542 0.0
C105 C 0.04049 0.29297 0.24973 0.0
C106 C 0.04022 0.32731 0.23565 0.0
C107 C 0.04298 0.28519 0.06727 0.0
H108 H 0.04324 0.26961 0.00049 0.0
C109 C 0.04287 0.31921 0.05374 0.0
H110 H 0.03986 0.28317 0.32598 0.0
C111 C 0.04157 0.3402 0.13736 0.0
H112 H 0.04146 0.36657 0.12545 0.0
H113 H 0.0436 0.32935 0.978 0.0
H114 H 0.29209 0.99599 0.32747 0.0
C115 C 0.30711 1.01103 0.27778 0.0
C116 C 0.34139 1.00911 0.28468 0.0
C117 C 0.29262 0.03098 0.20286 0.0
H118 H 0.38751 0.0255 0.22346 0.0
C119 C 0.36109 0.02759 0.2188 0.0
C120 C 0.3476 0.04689 0.14297 0.0
C121 C 0.31341 0.04943 0.13746 0.0
C122 C 0.25627 0.03062 0.18577 0.0
H123 H 0.3032 0.06513 0.07975 0.0
C124 C 0.23343 0.02637 0.26596 0.0
C125 C 0.19931 0.0262 0.24652 0.0
C126 C 0.24416 0.03387 0.08627 0.0
H127 H 0.26047 0.03553 0.02176 0.0
C128 C 0.2107 0.03453 0.06737 0.0
H129 H 0.24206 0.02295 0.34266 0.0
C130 C 0.18848 0.03104 0.14652 0.0
H131 H 0.1626 0.03193 0.12905 0.0
H132 H 0.20191 0.03751 -0.0094 0.0
H133 H 0.53241 0.28991 0.31747 0.0
C134 C 0.51776 0.30575 0.27037 0.0
C135 C 0.52196 0.34003 0.27873 0.0
C136 C 0.49591 0.29227 0.19755 0.0
H137 H 0.5077 0.38716 0.22217 0.0
C138 C 0.5039 0.36075 0.21629 0.0
C139 C 0.48267 0.34825 0.14262 0.0
C140 C 0.47788 0.31404 0.13582 0.0
C141 C 0.49363 0.25587 0.17918 0.0
H142 H 0.46074 0.30453 0.08008 0.0
C143 C 0.49731 0.23272 0.25827 0.0
C144 C 0.49513 0.19853 0.23816 0.0
C145 C 0.48843 0.24401 0.07981 0.0
H146 H 0.48694 0.26059 0.01604 0.0
C147 C 0.48561 0.21043 0.0602 0.0
H148 H 0.50212 0.24118 0.33477 0.0
C149 C 0.48868 0.18789 0.13848 0.0
H150 H 0.48614 0.16194 0.12067 0.0
H151 H 0.48126 0.20181 -0.01643 0.0
O152 O 0.09152 1.01175 0.62338 0.0
Zn153 Zn 0.05642 1.01012 0.73371 0.0
O154 O 1.01195 0.01458 0.67257 0.0
Zn155 Zn 0.99087 0.05399 0.72143 0.0
Zn156 Zn 0.01481 0.01611 0.52484 0.0
Zn157 Zn 0.98317 0.97816 0.70993 0.0
O158 O 0.94937 0.04524 0.80117 0.0
O159 O 0.94207 0.99142 0.78584 0.0
O160 O 0.0673 0.04962 0.82687 0.0
O161 O 0.02239 0.07915 0.80507 0.0
O162 O 0.98106 0.08501 0.60971 0.0
O163 O 0.99498 0.05793 0.46995 0.0
O164 O 0.99545 0.97501 0.46089 0.0
O165 O 0.05976 0.96521 0.80586 0.0
O166 O 0.97248 0.94931 0.59151 0.0
O167 O 1.00823 0.94734 0.79342 0.0
C168 C 0.08975 0.01435 0.52724 0.0
C169 C 0.93253 0.01927 0.81847 0.0
C170 C 0.98366 0.08339 0.51397 0.0
C171 C 0.05108 0.07595 0.84037 0.0
C172 C 0.97995 0.9505 0.49814 0.0
C173 C 0.03765 0.94317 0.82105 0.0
O174 O 0.06226 0.01624 0.48213 0.0
O175 O 0.50783 0.09398 0.621 0.0
Zn176 Zn 0.51266 0.06119 0.73631 0.0
O177 O 0.5135 0.01543 0.68069 0.0
Zn178 Zn 0.47826 0.98859 0.73984 0.0
Zn179 Zn 0.50945 0.01527 0.53308 0.0
Zn180 Zn 0.55452 0.99474 0.71286 0.0
O181 O 0.49453 0.94836 0.81627 0.0
O182 O 0.54825 0.95465 0.79896 0.0
O183 O 0.47332 0.06728 0.83156 0.0
O184 O 0.45196 0.01658 0.83172 0.0
O185 O 0.445 0.97516 0.63507 0.0
O186 O 0.46679 0.99358 0.49125 0.0
O187 O 0.54792 0.99382 0.46206 0.0
O188 O 0.55598 0.07285 0.8085 0.0
O189 O 0.57985 0.98125 0.59092 0.0
O190 O 0.58374 0.0269 0.78191 0.0
C191 C 0.50731 0.09052 0.52485 0.0
C192 C 0.5236 0.93858 0.8325 0.0
C193 C 0.44372 0.97916 0.53966 0.0
C194 C 0.45134 0.04658 0.85932 0.0
C195 C 0.57457 0.98225 0.49628 0.0
C196 C 0.5823 0.05634 0.81425 0.0
O197 O 0.50847 0.06217 0.48335 0.0
O198 O 0.44377 0.51304 0.6395 0.0
Zn199 Zn 0.48011 0.51583 0.74574 0.0
O200 O 0.52382 0.51044 0.68225 0.0
Zn201 Zn 0.54808 0.4744 0.74088 0.0
Zn202 Zn 0.51775 0.5033 0.53868 0.0
Zn203 Zn 0.55132 0.54935 0.69761 0.0
O204 O 0.58988 0.48878 0.81625 0.0
O205 O 0.59377 0.54094 0.76859 0.0
O206 O 0.47118 0.47777 0.84514 0.0
O207 O 0.51787 0.45022 0.83208 0.0
O208 O 0.55908 0.44098 0.63408 0.0
O209 O 0.54328 0.46406 0.48977 0.0
O210 O 0.52732 0.54555 0.46503 0.0
O211 O 0.47709 0.56157 0.81095 0.0
O212 O 0.55931 0.57412 0.5696 0.0
O213 O 0.52655 0.58196 0.77618 0.0
C214 C 0.44378 0.50236 0.54847 0.0
C215 C 0.60541 0.51623 0.81453 0.0
C216 C 0.55654 0.44055 0.53799 0.0
C217 C 0.48887 0.45298 0.86593 0.0
C218 C 0.54435 0.57115 0.48584 0.0
C219 C 0.49804 0.58522 0.81306 0.0
O220 O 0.47042 0.49474 0.50462 0.0
O221 O 0.9846 0.56024 0.55102 0.0
Zn222 Zn 0.02443 0.55328 0.64326 0.0
O223 O 0.02453 0.50762 0.69871 0.0
Zn224 Zn 0.02134 0.50828 0.84631 0.0
Zn225 Zn 0.98839 0.48171 0.64229 0.0
Zn226 Zn 0.06436 0.48502 0.66297 0.0
O227 O 0.05981 0.4862 0.91419 0.0
O228 O 0.09045 0.47177 0.78311 0.0
O229 O 0.0215 0.58677 0.75811 0.0
O230 O 0.02279 0.55541 0.89584 0.0
O231 O 0.97792 0.48863 0.89049 0.0
O232 O 0.9559 0.46886 0.7483 0.0
O233 O 1.0029 0.44205 0.56019 0.0
O234 O 0.06777 0.56341 0.56952 0.0
O235 O 0.05688 0.44567 0.5718 0.0
O236 O 0.09378 0.51642 0.59436 0.0
C237 C 0.96155 0.54017 0.52685 0.0
C238 C 0.08591 0.47389 0.87808 0.0
C239 C 0.95462 0.47413 0.84314 0.0
C240 C 0.02205 0.58364 0.85421 0.0
C241 C 0.03122 0.43129 0.53804 0.0
C242 C 0.0934 0.54585 0.56256 0.0
O243 O 0.96161 0.51034 0.55528 0.0
C244 C 0.14679 1.00007 0.30563 0.0
C245 C 0.17417 0.02041 0.32738 0.0
C246 C 0.12013 0.9977 0.37208 0.0
C247 C 0.11995 0.01481 0.46474 0.0
H248 H 0.14548 0.98647 0.23491 0.0
H249 H 0.09923 0.98261 0.34999 0.0
S250 S 0.18601 0.06974 0.56234 0.0
N251 N 0.19966 0.05726 0.45086 0.0
N252 N 0.15 0.05147 0.57809 0.0
C253 C 0.14778 0.03377 0.49073 0.0
C254 C 0.17481 0.03681 0.42172 0.0
C255 C 0.51901 0.1453 0.29552 0.0
C256 C 0.50025 0.17324 0.31835 0.0
C257 C 0.52147 0.11909 0.36348 0.0
C258 C 0.50585 0.11986 0.45841 0.0
H259 H 0.53155 0.14335 0.22339 0.0
H260 H 0.53565 0.09792 0.34107 0.0
S261 S 0.45463 0.18747 0.55777 0.0
N262 N 0.46603 0.20013 0.44407 0.0
N263 N 0.47178 0.15127 0.57372 0.0
C264 C 0.48811 0.14812 0.4845 0.0
C265 C 0.48509 0.17472 0.41421 0.0
C266 C 0.38573 0.48434 0.33034 0.0
C267 C 0.35972 0.50607 0.34738 0.0
C268 C 0.41182 0.48208 0.39866 0.0
C269 C 0.41305 0.50131 0.48766 0.0
H270 H 0.3865 0.46968 0.26159 0.0
H271 H 0.43176 0.46584 0.37967 0.0
S272 S 0.34973 0.56023 0.57197 0.0
N273 N 0.33579 0.54585 0.46273 0.0
N274 N 0.38463 0.54129 0.59242 0.0
C275 C 0.38621 0.5217 0.5089 0.0
C276 C 0.35961 0.52414 0.43857 0.0
C277 C 1.00815 0.36103 0.35802 0.0
C278 C 0.03861 0.35039 0.32232 0.0
C279 C 1.00603 0.38653 0.42984 0.0
C280 C 0.03436 0.40246 0.46827 0.0
H281 H 0.98577 0.35026 0.32779 0.0
H282 H 0.98192 0.3943 0.45336 0.0
S283 S 0.12019 0.38224 0.39952 0.0
N284 N 0.09759 0.35658 0.33092 0.0
N285 N 0.09412 0.40429 0.46622 0.0
C286 C 0.06509 0.39116 0.43455 0.0
C287 C 0.06708 0.36523 0.36136 0.0
C288 C 0.85626 0.99299 0.96667 0.0
C289 C 0.84698 0.02216 0.01553 0.0
C290 C 0.88327 0.9925 0.90058 0.0
C291 C 0.90211 0.02119 0.88121 0.0
H292 H 0.8434 0.97013 0.98299 0.0
H293 H 0.88996 0.96919 0.86691 0.0
S294 S 0.88593 0.10438 -0.01265 0.0
N295 N 0.85727 0.08055 0.03793 0.0
N296 N 0.90776 0.08016 0.91349 0.0
C297 C 0.89201 0.05084 0.92714 0.0
C298 C 0.86458 0.05117 -0.00552 0.0
C299 C 0.51214 0.86844 0.02174 0.0
C300 C 0.54231 0.85225 0.01605 0.0
C301 C 0.50573 0.89588 0.96027 0.0
C302 C 0.52935 0.90802 0.89132 0.0
H303 H 0.49388 0.8606 0.07648 0.0
H304 H 0.48259 0.90827 0.96921 0.0
S305 S 0.61042 0.87107 0.83866 0.0
N306 N 0.59457 0.84808 0.92962 0.0
N307 N 0.58286 0.89932 0.81466 0.0
C308 C 0.55898 0.89086 0.88197 0.0
C309 C 0.56536 0.86307 0.94411 0.0
C310 C 0.66935 0.51254 0.02448 0.0
C311 C 0.69203 0.537 -0.0053 0.0
C312 C 0.64227 0.50425 0.96281 0.0
C313 C 0.63678 0.52064 0.87045 0.0
H314 H 0.67165 0.501 0.09797 0.0
H315 H 0.62455 0.48635 -0.00955 0.0
S316 S 0.69131 0.58401 0.75486 0.0
N317 N 0.70892 0.57539 0.86403 0.0
N318 N 0.65826 0.56024 0.74864 0.0
C319 C 0.66043 0.54383 0.83793 0.0
C320 C 0.68797 0.55193 0.9 0.0
C321 C 0.0454 0.64006 0.07209 0.0
C322 C 0.02527 0.66765 0.0591 0.0
C323 C 0.04423 0.6133 0.00507 0.0
C324 C 0.02357 0.61325 0.92009 0.0
H325 H 0.06196 0.63886 0.13588 0.0
H326 H 0.05972 0.59242 0.02001 0.0
S327 S 0.96667 0.67946 0.84769 0.0
N328 N 0.98404 0.69312 0.95309 0.0
N329 N 0.9832 0.64336 0.82383 0.0
C330 C 1.00427 0.64109 0.90302 0.0
C331 C 1.00487 0.66819 0.97302 0.0
C332 C 1.00439 0.16911 0.42969 0.0
C333 C 0.9975 0.16718 0.32567 0.0
C334 C 0.99597 0.14297 0.49412 0.0
C335 C 0.98101 0.11405 0.4556 0.0
H336 H 0.01954 0.18904 0.45919 0.0
H337 H 1.00453 0.14396 0.57181 0.0
S338 S 0.95023 0.10109 0.19467 0.0
N339 N 0.96821 0.13774 0.19203 0.0
N340 N 0.95401 0.08784 0.31226 0.0
C341 C 0.97023 0.1138 0.35494 0.0
C342 C 0.9779 0.14076 0.29024 0.0
C343 C 0.35792 0.99754 0.46191 0.0
C344 C 0.35846 0.98832 0.35925 0.0
C345 C 0.3844 0.99032 0.52553 0.0
C346 C 0.4122 0.97425 0.48738 0.0
H347 H 0.33902 0.01369 0.48995 0.0
H348 H 0.38475 1.00081 0.60112 0.0
S349 S 0.42138 0.93787 0.23165 0.0
N350 N 0.3854 0.95596 0.22896 0.0
N351 N 0.4359 0.94403 0.34714 0.0
C352 C 0.41094 0.96118 0.38914 0.0
C353 C 0.38366 0.96763 0.32553 0.0
C354 C 0.53612 0.35474 0.45607 0.0
C355 C 0.54428 0.35606 0.35278 0.0
C356 C 0.54459 0.38088 0.52119 0.0
C357 C 0.56088 0.40914 0.48393 0.0
H358 H 0.5197 0.33563 0.48377 0.0
H359 H 0.53473 0.38071 0.59747 0.0
S360 S 0.59538 0.41991 0.22668 0.0
N361 N 0.57633 0.38381 0.22251 0.0
N362 N 0.5906 0.43377 0.34361 0.0
C363 C 0.57318 0.40845 0.38489 0.0
C364 C 0.56547 0.38146 0.31969 0.0
C365 C 0.18028 0.5434 0.4754 0.0
C366 C 0.17747 0.5559 0.37701 0.0
C367 C 0.15362 0.54431 0.54192 0.0
C368 C 0.12351 0.55781 0.51191 0.0
H369 H 0.20124 0.52879 0.49605 0.0
H370 H 0.15546 0.53109 0.61286 0.0
S371 S 0.10807 0.6033 0.27483 0.0
N372 N 0.14587 0.58982 0.26271 0.0
N373 N 0.09535 0.59102 0.3876 0.0
C374 C 0.12253 0.57555 0.42119 0.0
C375 C 0.14984 0.57487 0.35373 0.0
C376 C 0.0725 0.88048 0.00271 0.0
C377 C 0.05 0.85402 -0.00786 0.0
C378 C 0.07036 0.9086 0.94134 0.0
C379 C 0.04533 0.91116 0.8689 0.0
H380 H 0.08921 0.88109 0.06646 0.0
H381 H 0.08634 0.92947 0.95723 0.0
S382 S 0.98491 0.84551 0.79923 0.0
N383 N 1.00622 0.82963 0.89276 0.0
N384 N 1.001 0.88242 0.77998 0.0
C385 C 0.02533 0.88314 0.85022 0.0
C386 C 0.02822 0.8544 0.91064 0.0
C387 C 0.63551 0.08265 0.03086 0.0
C388 C 0.66485 0.06661 0.00424 0.0
C389 C 0.60902 0.08355 0.96316 0.0
C390 C 0.61173 0.06945 0.86635 0.0
H391 H 0.63131 0.08995 0.10884 0.0
H392 H 0.58544 0.09153 -0.009 0.0
S393 S 0.6876 0.03871 0.74685 0.0
N394 N 0.69803 0.04619 0.86556 0.0
N395 N 0.6488 0.04915 0.73692 0.0
C396 C 0.64295 0.06005 0.83268 0.0
C397 C 0.66964 0.05867 0.90192 0.0
C398 C 0.51107 0.67232 0.90674 0.0
C399 C 0.48657 0.67545 0.98047 0.0
C400 C 0.51292 0.6439 0.84724 0.0
C401 C 0.49034 0.61757 0.85931 0.0
H402 H 0.53126 0.68987 0.90349 0.0
H403 H 0.53377 0.64166 0.79706 0.0
S404 S 0.41572 0.61887 0.01938 0.0
N405 N 0.43471 0.6541 0.04459 0.0
N406 N 0.43844 0.60011 0.93369 0.0
C407 C 0.46289 0.62274 0.92126 0.0
C408 C 0.4608 0.65202 0.98097 0.0
C409 C 0.87083 0.5007 0.91711 0.0
C410 C 0.86917 0.49016 0.01824 0.0
C411 C 0.89709 0.49154 0.85506 0.0
C412 C 0.92256 0.47214 0.89323 0.0
H413 H 0.85403 0.51901 0.88945 0.0
H414 H 0.89935 0.50281 0.78099 0.0
S415 S 0.92476 0.43122 0.1428 0.0
N416 N 0.89082 0.45291 0.14507 0.0
N417 N 0.94142 0.43775 0.03036 0.0
C418 C 0.91895 0.45809 -0.01085 0.0
C419 C 0.89168 0.46641 0.05096 0.0
C420 C 0.08278 0.12741 0.05819 0.0
C421 C 0.07032 0.15865 0.03297 0.0
C422 C 0.07987 0.1006 -0.00902 0.0
C423 C 0.06487 0.1045 0.89629 0.0
H424 H 0.09134 0.12281 0.13449 0.0
H425 H 0.08632 0.0763 0.01721 0.0
S426 S 0.0376 0.18283 0.78238 0.0
N427 N 0.04896 0.193 0.89852 0.0
N428 N 0.0447 0.14309 0.77137 0.0
C429 C 0.05725 0.13653 0.86449 0.0
C430 C 0.05989 0.16363 0.93291 0.0
C431 C 0.40057 0.07259 0.08429 0.0
C432 C 0.36977 0.05832 0.0603 0.0
C433 C 0.42673 0.07189 0.01487 0.0
C434 C 0.42276 0.05685 0.91967 0.0
H435 H 0.40528 0.08166 0.16032 0.0
H436 H 0.45072 0.08043 0.03915 0.0
S437 S 0.34582 0.02215 0.81223 0.0
N438 N 0.33593 0.03334 0.92861 0.0
N439 N 0.38479 0.03244 0.79849 0.0
C440 C 0.39128 0.04604 0.89079 0.0
C441 C 0.36475 0.04681 0.96091 0.0
C442 C 0.46066 0.40308 0.09062 0.0
C443 C 0.47139 0.37133 0.06294 0.0
C444 C 0.463 0.42961 0.02276 0.0
C445 C 0.47591 0.42499 0.92527 0.0
H446 H 0.45351 0.40809 0.16821 0.0
H447 H 0.45764 0.45417 0.04983 0.0
S448 S 0.4997 0.3458 0.80754 0.0
N449 N 0.48987 0.33618 0.92524 0.0
N450 N 0.4934 0.38569 0.79769 0.0
C451 C 0.48244 0.39275 0.89262 0.0
C452 C 0.48022 0.36589 0.96137 0.0
C453 C 0.17135 0.48549 0.97967 0.0
C454 C 0.16671 0.48126 0.08432 0.0
C455 C 0.14567 0.47947 0.91138 0.0
C456 C 0.11436 0.46954 0.94572 0.0
H457 H 0.19386 0.4964 0.95114 0.0
H458 H 0.14959 0.48573 0.83249 0.0
S459 S 0.09231 0.44665 0.20871 0.0
N460 N 0.13079 0.45949 0.21625 0.0
N461 N 0.08202 0.44989 0.08812 0.0
C462 C 0.11056 0.46164 0.04841 0.0
C463 C 0.13692 0.46697 0.11763 0.0
C464 C 0.97153 0.89026 0.28063 0.0
C465 C 0.99171 0.86438 0.31275 0.0
C466 C 0.96583 0.9176 0.34325 0.0
C467 C 0.97961 0.91948 0.44041 0.0
H468 H 0.96204 0.89041 0.20395 0.0
H469 H 0.95193 0.93798 0.31388 0.0
S470 S 0.03439 0.85858 0.55903 0.0
N471 N 0.02505 0.84237 0.44773 0.0
N472 N 1.01424 0.89348 0.56558 0.0
C473 C 0.99835 0.893 0.47514 0.0
C474 C 1.00429 0.86537 0.4114 0.0
C475 C 0.62157 0.97849 0.25056 0.0
C476 C 0.65372 0.9865 0.28254 0.0
C477 C 0.59611 0.97408 0.32057 0.0
C478 C 0.60208 0.97595 0.42525 0.0
H479 H 0.61537 0.97864 0.17079 0.0
H480 H 0.5713 0.97146 0.29223 0.0
S481 S 0.68384 0.98298 0.54739 0.0
N482 N 0.69128 0.98782 0.4255 0.0
N483 N 0.64395 0.97676 0.55688 0.0
C484 C 0.63497 0.97782 0.45777 0.0
C485 C 0.66075 0.98357 0.38638 0.0
C486 C 0.49835 0.63894 0.35813 0.0
C487 C 0.52319 0.66068 0.32511 0.0
C488 C 0.50585 0.60964 0.40717 0.0
C489 C 0.53844 0.60126 0.42761 0.0
H490 H 0.47293 0.64384 0.34106 0.0
H491 H 0.48587 0.59344 0.42975 0.0
S492 S 0.61242 0.65088 0.36614 0.0
N493 N 0.58177 0.67245 0.3205 0.0
N494 N 0.59564 0.61798 0.41932 0.0
C495 C 0.56346 0.62363 0.4014 0.0
C496 C 0.55589 0.65326 0.34885 0.0
C497 C 0.8756 0.53939 0.42371 0.0
C498 C 0.8795 0.55504 0.32995 0.0
C499 C 0.90193 0.53717 0.49111 0.0
C500 C 0.93294 0.55077 0.4674 0.0
H501 H 0.85317 0.52595 0.44059 0.0
H502 H 0.8986 0.52273 0.55935 0.0
S503 S 0.95392 0.5992 0.23877 0.0
N504 N 0.91521 0.58808 0.22212 0.0
N505 N 0.96468 0.58426 0.35006 0.0
C506 C 0.93611 0.56961 0.37909 0.0
C507 C 0.90932 0.57166 0.30995 0.0
loop_
_geom_bond_atom_site_label_1
_geom_bond_atom_site_label_2
_geom_bond_distance
_geom_bond_site_symmetry_2
_ccdc_geom_bond_type
H0 C1 0.949 . S
C1 H0 0.949 . S
C1 C2 1.395 . S
C1 C3 1.391 1_556 S
C2 C1 1.395 . S
C2 C5 1.390 1_556 S
C3 C1 1.391 1_554 S
C3 C7 1.387 . S
C3 C8 1.491 . S
H4 C5 0.950 . S
C5 C2 1.390 1_554 S
C5 H4 0.950 . S
C5 C6 1.378 . S
C6 C5 1.378 . S
C6 C7 1.409 . S
C7 C3 1.387 . S
C7 C6 1.409 . S
C7 H9 0.951 . S
C8 C3 1.491 . S
C8 C10 1.382 1_554 S
C8 C12 1.404 . S
H9 C7 0.951 . S
C10 C8 1.382 1_556 S
C10 C11 1.390 . S
C10 H15 0.949 . S
C11 C10 1.390 . S
C11 C16 1.399 1_556 S
C12 C8 1.404 . S
C12 H13 0.950 . S
C12 C14 1.375 . S
H13 C12 0.950 . S
C14 C12 1.375 . S
C14 C16 1.382 . S
C14 H18 0.950 . S
H15 C10 0.949 . S
C16 C11 1.399 1_554 S
C16 C14 1.382 . S
C16 H17 0.952 . S
H17 C16 0.952 . S
H18 C14 0.950 . S
H19 C20 0.949 1_556 S
C20 H19 0.949 1_554 S
C20 C21 1.395 1_655 S
C20 C22 1.391 . S
C21 C20 1.395 1_455 S
C21 C24 1.390 . S
C22 C20 1.391 . S
C22 C26 1.387 . S
C22 C27 1.491 . S
H23 C24 0.950 . S
C24 C21 1.390 . S
C24 H23 0.950 . S
C24 C25 1.380 . S
C25 C24 1.380 . S
C25 C26 1.406 1_455 S
C26 C22 1.387 . S
C26 C25 1.406 1_655 S
C26 H28 0.951 . S
C27 C22 1.491 . S
C27 C29 1.382 . S
C27 C31 1.404 . S
H28 C26 0.951 . S
C29 C27 1.382 . S
C29 C30 1.390 . S
C29 H34 0.949 1_655 S
C30 C29 1.390 . S
C30 C35 1.399 . S
C31 C27 1.404 . S
C31 H32 0.950 . S
C31 C33 1.375 . S
H32 C31 0.950 . S
C33 C31 1.375 . S
C33 C35 1.382 . S
C33 H37 0.950 . S
H34 C29 0.949 1_455 S
C35 C30 1.399 . S
C35 C33 1.382 . S
C35 H36 0.952 . S
H36 C35 0.952 . S
H37 C33 0.950 . S
H38 C39 0.949 1_556 S
C39 H38 0.949 1_554 S
C39 C40 1.393 1_565 S
C39 C41 1.391 . S
C40 C39 1.393 1_545 S
C40 C43 1.391 . S
C41 C39 1.391 . S
C41 C45 1.387 . S
C41 C46 1.491 . S
H42 C43 0.950 . S
C43 C40 1.391 . S
C43 H42 0.950 . S
C43 C44 1.378 . S
C44 C43 1.378 . S
C44 C45 1.410 1_545 S
C45 C41 1.387 . S
C45 C44 1.410 1_565 S
C45 H47 0.951 . S
C46 C41 1.491 . S
C46 C48 1.382 . S
C46 C50 1.404 . S
H47 C45 0.951 . S
C48 C46 1.382 . S
C48 C49 1.390 . S
C48 H53 0.949 1_564 S
C49 C48 1.390 . S
C49 C54 1.399 . S
C50 C46 1.404 . S
C50 H51 0.950 . S
C50 C52 1.375 . S
H51 C50 0.950 . S
C52 C50 1.375 . S
C52 C54 1.382 . S
C52 H56 0.950 . S
H53 C48 0.949 1_546 S
C54 C49 1.399 . S
C54 C52 1.382 . S
C54 H55 0.952 . S
H55 C54 0.952 . S
H56 C52 0.950 . S
H57 C58 0.949 . S
C58 H57 0.949 . S
C58 C59 1.395 . S
C58 C60 1.391 1_556 S
C59 C58 1.395 . S
C59 C62 1.390 1_556 S
C60 C58 1.391 1_554 S
C60 C64 1.387 . S
C60 C65 1.491 . S
H61 C62 0.950 . S
C62 C59 1.390 1_554 S
C62 H61 0.950 . S
C62 C63 1.378 . S
C63 C62 1.378 . S
C63 C64 1.409 . S
C64 C60 1.387 . S
C64 C63 1.409 . S
C64 H66 0.951 . S
C65 C60 1.491 . S
C65 C67 1.382 1_554 S
C65 C69 1.404 . S
H66 C64 0.951 . S
C67 C65 1.382 1_556 S
C67 C68 1.390 . S
C67 H72 0.949 . S
C68 C67 1.390 . S
C68 C73 1.399 1_556 S
C69 C65 1.404 . S
C69 H70 0.950 . S
C69 C71 1.375 . S
H70 C69 0.950 . S
C71 C69 1.375 . S
C71 C73 1.382 . S
C71 H75 0.950 . S
H72 C67 0.949 . S
C73 C68 1.399 1_554 S
C73 C71 1.382 . S
C73 H74 0.952 . S
H74 C73 0.952 . S
H75 C71 0.950 . S
H76 C77 0.949 . S
C77 H76 0.949 . S
C77 C78 1.395 . S
C77 C79 1.391 . S
C78 C77 1.395 . S
C78 C81 1.390 . S
C79 C77 1.391 . S
C79 C83 1.387 . S
C79 C84 1.491 . S
H80 C81 0.950 . S
C81 C78 1.390 . S
C81 H80 0.950 . S
C81 C82 1.378 . S
C82 C81 1.378 . S
C82 C83 1.409 . S
C83 C79 1.387 . S
C83 C82 1.409 . S
C83 H85 0.951 . S
C84 C79 1.491 . S
C84 C86 1.382 . S
C84 C88 1.404 . S
H85 C83 0.951 . S
C86 C84 1.382 . S
C86 C87 1.390 . S
C86 H91 0.949 . S
C87 C86 1.390 . S
C87 C92 1.399 . S
C88 C84 1.404 . S
C88 H89 0.950 . S
C88 C90 1.375 . S
H89 C88 0.950 . S
C90 C88 1.375 . S
C90 C92 1.382 . S
C90 H94 0.950 . S
H91 C86 0.949 . S
C92 C87 1.399 . S
C92 C90 1.382 . S
C92 H93 0.952 . S
H93 C92 0.952 . S
H94 C90 0.950 . S
H95 C96 0.949 . S
C96 H95 0.949 . S
C96 C97 1.395 . S
C96 C98 1.391 . S
C97 C96 1.395 . S
C97 C100 1.390 . S
C98 C96 1.391 . S
C98 C102 1.387 . S
C98 C103 1.491 . S
H99 C100 0.950 . S
C100 C97 1.390 . S
C100 H99 0.950 . S
C100 C101 1.378 . S
C101 C100 1.378 . S
C101 C102 1.409 . S
C102 C98 1.387 . S
C102 C101 1.409 . S
C102 H104 0.951 . S
C103 C98 1.491 . S
C103 C105 1.382 . S
C103 C107 1.404 1_455 S
H104 C102 0.951 . S
C105 C103 1.382 . S
C105 C106 1.390 . S
C105 H110 0.949 . S
C106 C105 1.390 . S
C106 C111 1.399 . S
C107 C103 1.404 1_655 S
C107 H108 0.950 . S
C107 C109 1.375 . S
H108 C107 0.950 . S
C109 C107 1.375 . S
C109 C111 1.382 1_655 S
C109 H113 0.950 . S
H110 C105 0.949 . S
C111 C106 1.399 . S
C111 C109 1.382 1_455 S
C111 H112 0.952 1_455 S
H112 C111 0.952 1_655 S
H113 C109 0.950 . S
H114 C115 0.949 . S
C115 H114 0.949 . S
C115 C116 1.395 . S
C115 C117 1.391 . S
C116 C115 1.395 . S
C116 C119 1.390 . S
C117 C115 1.391 . S
C117 C121 1.387 . S
C117 C122 1.491 1_545 S
H118 C119 0.950 . S
C119 C116 1.390 . S
C119 H118 0.950 . S
C119 C120 1.378 . S
C120 C119 1.378 . S
C120 C121 1.409 . S
C121 C117 1.387 . S
C121 C120 1.409 . S
C121 H123 0.951 . S
C122 C117 1.491 1_565 S
C122 C124 1.382 1_565 S
C122 C126 1.404 . S
H123 C121 0.951 . S
C124 C122 1.382 1_545 S
C124 C125 1.398 . S
C124 H129 0.949 . S
C125 C124 1.398 . S
C125 C130 1.375 1_545 S
C126 C122 1.404 . S
C126 H127 0.950 . S
C126 C128 1.375 . S
H127 C126 0.950 . S
C128 C126 1.375 . S
C128 C130 1.382 . S
C128 H132 0.950 . S
H129 C124 0.949 . S
C130 C125 1.375 1_565 S
C130 C128 1.382 . S
C130 H131 0.952 . S
H131 C130 0.952 . S
H132 C128 0.950 . S
H133 C134 0.949 . S
C134 H133 0.949 . S
C134 C135 1.395 . S
C134 C136 1.391 . S
C135 C134 1.395 . S
C135 C138 1.390 . S
C136 C134 1.391 . S
C136 C140 1.387 . S
C136 C141 1.491 . S
H137 C138 0.950 . S
C138 C135 1.390 . S
C138 H137 0.950 . S
C138 C139 1.378 . S
C139 C138 1.378 . S
C139 C140 1.409 . S
C140 C136 1.387 . S
C140 C139 1.409 . S
C140 H142 0.951 . S
C141 C136 1.491 . S
C141 C143 1.382 . S
C141 C145 1.404 . S
H142 C140 0.951 . S
C143 C141 1.382 . S
C143 C144 1.390 . S
C143 H148 0.949 . S
C144 C143 1.390 . S
C144 C149 1.399 . S
C145 C141 1.404 . S
C145 H146 0.950 . S
C145 C147 1.375 . S
H146 C145 0.950 . S
C147 C145 1.375 . S
C147 C149 1.382 . S
C147 H151 0.950 . S
H148 C143 0.949 . S
C149 C144 1.399 . S
C149 C147 1.382 . S
C149 H150 0.952 . S
H150 C149 0.952 . S
H151 C147 0.950 . S
O152 Zn153 1.955 . S
O152 C168 1.225 1_545 S
Zn153 O152 1.955 . S
Zn153 O154 1.948 1_545 S
Zn153 O160 1.939 . S
Zn153 O165 1.900 1_545 S
O154 Zn153 1.948 1_565 S
O154 Zn155 1.900 1_465 S
O154 Zn156 1.952 . S
O154 Zn157 1.967 1_455 S
Zn155 O154 1.900 1_645 S
Zn155 O158 1.933 . S
Zn155 O161 1.941 1_655 S
Zn155 O162 1.965 . S
Zn156 O154 1.952 . S
Zn156 O163 1.938 1_565 S
Zn156 O164 1.906 . S
Zn156 O174 1.953 . S
Zn157 O154 1.967 1_655 S
Zn157 O159 1.932 . S
Zn157 O166 1.977 . S
Zn157 O167 1.910 1_655 S
O158 Zn155 1.933 . S
O158 C169 1.226 . S
O159 Zn157 1.932 . S
O159 C169 1.307 1_565 S
O160 Zn153 1.939 . S
O160 C171 1.253 . S
O161 Zn155 1.941 1_455 S
O161 C171 1.283 . S
O162 Zn155 1.965 . S
O162 C170 1.303 1_655 S
O163 Zn156 1.938 1_545 S
O163 C170 1.247 . S
O164 Zn156 1.906 . S
O164 C172 1.304 1_455 S
O165 Zn153 1.900 1_565 S
O165 C173 1.311 . S
O166 Zn157 1.977 . S
O166 C172 1.272 . S
O167 Zn157 1.910 1_455 S
O167 C173 1.231 . S
C168 O152 1.225 1_565 S
C168 O174 1.298 . S
C169 O158 1.226 . S
C169 O159 1.307 1_545 S
C170 O162 1.303 1_455 S
C170 O163 1.247 . S
C171 O160 1.253 . S
C171 O161 1.283 . S
C172 O164 1.304 1_655 S
C172 O166 1.272 . S
C173 O165 1.311 . S
C173 O167 1.231 . S
O174 Zn156 1.953 . S
O174 C168 1.298 . S
O175 Zn176 1.953 . S
O175 C191 1.225 . S
Zn176 O175 1.953 . S
Zn176 O177 1.949 . S
Zn176 O183 1.919 . S
Zn176 O188 1.924 . S
O177 Zn176 1.949 . S
O177 Zn178 1.923 1_545 S
O177 Zn179 1.950 . S
O177 Zn180 1.945 1_545 S
Zn178 O177 1.923 1_565 S
Zn178 O181 1.933 . S
Zn178 O184 1.941 . S
Zn178 O185 1.965 . S
Zn179 O177 1.950 . S
Zn179 O186 1.938 . S
Zn179 O187 1.906 . S
Zn179 O197 1.953 . S
Zn180 O177 1.945 1_565 S
Zn180 O182 1.932 . S
Zn180 O189 1.977 . S
Zn180 O190 1.910 1_565 S
O181 Zn178 1.933 . S
O181 C192 1.226 . S
O182 Zn180 1.932 . S
O182 C192 1.307 . S
O183 Zn176 1.919 . S
O183 C194 1.253 . S
O184 Zn178 1.941 . S
O184 C194 1.283 1_565 S
O185 Zn178 1.965 . S
O185 C193 1.303 1_565 S
O186 Zn179 1.938 . S
O186 C193 1.247 . S
O187 Zn179 1.906 . S
O187 C195 1.304 1_545 S
O188 Zn176 1.924 . S
O188 C196 1.311 . S
O189 Zn180 1.977 . S
O189 C195 1.272 . S
O190 Zn180 1.910 1_545 S
O190 C196 1.231 . S
C191 O175 1.225 . S
C191 O197 1.298 . S
C192 O181 1.226 . S
C192 O182 1.307 . S
C193 O185 1.303 1_545 S
C193 O186 1.247 . S
C194 O183 1.253 . S
C194 O184 1.283 1_545 S
C195 O187 1.304 1_565 S
C195 O189 1.272 . S
C196 O188 1.311 . S
C196 O190 1.231 . S
O197 Zn179 1.953 . S
O197 C191 1.298 . S
O198 Zn199 1.953 . S
O198 C214 1.225 . S
Zn199 O198 1.953 . S
Zn199 O200 1.949 . S
Zn199 O206 1.919 . S
Zn199 O211 1.924 . S
O200 Zn199 1.949 . S
O200 Zn201 1.923 . S
O200 Zn202 1.950 . S
O200 Zn203 1.945 . S
Zn201 O200 1.923 . S
Zn201 O204 1.933 . S
Zn201 O207 1.941 . S
Zn201 O208 1.965 . S
Zn202 O200 1.950 . S
Zn202 O209 1.938 . S
Zn202 O210 1.906 . S
Zn202 O220 1.953 . S
Zn203 O200 1.945 . S
Zn203 O205 1.932 . S
Zn203 O212 1.977 . S
Zn203 O213 1.910 . S
O204 Zn201 1.933 . S
O204 C215 1.226 . S
O205 Zn203 1.932 . S
O205 C215 1.307 . S
O206 Zn199 1.919 . S
O206 C217 1.253 . S
O207 Zn201 1.941 . S
O207 C217 1.283 . S
O208 Zn201 1.965 . S
O208 C216 1.303 . S
O209 Zn202 1.938 . S
O209 C216 1.247 . S
O210 Zn202 1.906 . S
O210 C218 1.304 . S
O211 Zn199 1.924 . S
O211 C219 1.311 . S
O212 Zn203 1.977 . S
O212 C218 1.272 . S
O213 Zn203 1.910 . S
O213 C219 1.231 . S
C214 O198 1.225 . S
C214 O220 1.298 . S
C215 O204 1.226 . S
C215 O205 1.307 . S
C216 O208 1.303 . S
C216 O209 1.247 . S
C217 O206 1.253 . S
C217 O207 1.283 . S
C218 O210 1.304 . S
C218 O212 1.272 . S
C219 O211 1.311 . S
C219 O213 1.231 . S
O220 Zn202 1.953 . S
O220 C214 1.298 . S
O221 Zn222 1.953 1_655 S
O221 C237 1.225 . S
Zn222 O221 1.953 1_455 S
Zn222 O223 1.949 . S
Zn222 O229 1.919 . S
Zn222 O234 1.924 . S
O223 Zn222 1.949 . S
O223 Zn224 1.917 1_455 S
O223 Zn225 1.929 1_455 S
O223 Zn226 1.973 . S
Zn224 O223 1.917 1_655 S
Zn224 O227 1.933 1_655 S
Zn224 O230 1.941 . S
Zn224 O231 1.965 . S
Zn225 O223 1.929 1_655 S
Zn225 O232 1.938 . S
Zn225 O233 1.906 . S
Zn225 O243 1.953 . S
Zn226 O223 1.973 . S
Zn226 O228 1.932 . S
Zn226 O235 1.977 . S
Zn226 O236 1.910 . S
O227 Zn224 1.933 1_455 S
O227 C238 1.226 . S
O228 Zn226 1.932 . S
O228 C238 1.307 . S
O229 Zn222 1.919 . S
O229 C240 1.254 . S
O230 Zn224 1.941 . S
O230 C240 1.277 1_655 S
O231 Zn224 1.965 . S
O231 C239 1.303 . S
O232 Zn225 1.938 . S
O232 C239 1.247 . S
O233 Zn225 1.906 . S
O233 C241 1.304 1_655 S
O234 Zn222 1.924 . S
O234 C242 1.311 . S
O235 Zn226 1.977 . S
O235 C241 1.272 . S
O236 Zn226 1.910 . S
O236 C242 1.231 . S
C237 O221 1.225 . S
C237 O243 1.298 . S
C238 O227 1.226 . S
C238 O228 1.307 . S
C239 O231 1.303 . S
C239 O232 1.247 . S
C240 O229 1.254 . S
C240 O230 1.277 1_455 S
C241 O233 1.304 1_455 S
C241 O235 1.272 . S
C242 O234 1.311 . S
C242 O236 1.231 . S
O243 Zn225 1.953 . S
O243 C237 1.298 . S
C244 C245 1.369 1_565 S
C244 C246 1.419 . S
C244 H248 0.930 . S
C245 C244 1.369 1_545 S
C245 C254 1.429 . S
C246 C244 1.419 . S
C246 C247 1.363 1_565 S
C246 H249 0.929 . S
C247 C246 1.363 1_545 S
C247 C253 1.429 . S
H248 C244 0.930 . S
H249 C246 0.929 . S
S250 N251 1.613 . S
S250 N252 1.610 . S
N251 S250 1.613 . S
N251 C254 1.350 . S
N252 S250 1.610 . S
N252 C253 1.351 . S
C253 C247 1.429 . S
C253 N252 1.351 . S
C253 C254 1.434 . S
C254 C245 1.429 . S
C254 N251 1.350 . S
C254 C253 1.434 . S
C255 C256 1.369 . S
C255 C257 1.419 . S
C255 H259 0.930 . S
C256 C255 1.369 . S
C256 C265 1.429 . S
C257 C255 1.419 . S
C257 C258 1.363 . S
C257 H260 0.929 . S
C258 C257 1.363 . S
C258 C264 1.428 . S
H259 C255 0.930 . S
H260 C257 0.929 . S
S261 N262 1.613 . S
S261 N263 1.610 . S
N262 S261 1.613 . S
N262 C265 1.350 . S
N263 S261 1.610 . S
N263 C264 1.351 . S
C264 C258 1.428 . S
C264 N263 1.351 . S
C264 C265 1.434 . S
C265 C256 1.429 . S
C265 N262 1.350 . S
C265 C264 1.434 . S
C266 C267 1.369 . S
C266 C268 1.419 . S
C266 H270 0.930 . S
C267 C266 1.369 . S
C267 C276 1.429 . S
C268 C266 1.419 . S
C268 C269 1.363 . S
C268 H271 0.929 . S
C269 C268 1.363 . S
C269 C275 1.428 . S
H270 C266 0.930 . S
H271 C268 0.929 . S
S272 N273 1.613 . S
S272 N274 1.610 . S
N273 S272 1.613 . S
N273 C276 1.350 . S
N274 S272 1.610 . S
N274 C275 1.351 . S
C275 C269 1.428 . S
C275 N274 1.351 . S
C275 C276 1.434 . S
C276 C267 1.429 . S
C276 N273 1.350 . S
C276 C275 1.434 . S
C277 C278 1.369 . S
C277 C279 1.419 1_455 S
C277 H281 0.930 1_455 S
C278 C277 1.369 . S
C278 C287 1.429 . S
C279 C277 1.419 1_655 S
C279 C280 1.363 1_655 S
C279 H282 0.929 . S
C280 C279 1.363 1_455 S
C280 C286 1.428 . S
H281 C277 0.930 1_655 S
H282 C279 0.929 . S
S283 N284 1.613 . S
S283 N285 1.610 . S
N284 S283 1.613 . S
N284 C287 1.350 . S
N285 S283 1.610 . S
N285 C286 1.351 . S
C286 C280 1.428 . S
C286 N285 1.351 . S
C286 C287 1.434 . S
C287 C278 1.429 . S
C287 N284 1.350 . S
C287 C286 1.434 . S
C288 C289 1.376 . S
C288 C290 1.419 . S
C288 H292 0.930 . S
C289 C288 1.376 . S
C289 C298 1.421 1_565 S
C290 C288 1.419 . S
C290 C291 1.363 1_565 S
C290 H293 0.929 . S
C291 C290 1.363 1_545 S
C291 C297 1.428 . S
H292 C288 0.930 . S
H293 C290 0.929 . S
S294 N295 1.613 . S
S294 N296 1.610 1_554 S
N295 S294 1.613 . S
N295 C298 1.350 1_554 S
N296 S294 1.610 1_556 S
N296 C297 1.351 . S
C297 C291 1.428 . S
C297 N296 1.351 . S
C297 C298 1.434 . S
C298 C289 1.421 1_545 S
C298 N295 1.350 1_556 S
C298 C297 1.434 . S
C299 C300 1.369 . S
C299 C301 1.419 . S
C299 H303 0.930 1_556 S
C300 C299 1.369 . S
C300 C309 1.429 . S
C301 C299 1.419 . S
C301 C302 1.363 . S
C301 H304 0.929 . S
C302 C301 1.363 . S
C302 C308 1.428 . S
H303 C299 0.930 1_554 S
H304 C301 0.929 . S
S305 N306 1.613 . S
S305 N307 1.610 . S
N306 S305 1.613 . S
N306 C309 1.350 . S
N307 S305 1.610 . S
N307 C308 1.351 . S
C308 C302 1.428 . S
C308 N307 1.351 . S
C308 C309 1.434 . S
C309 C300 1.429 . S
C309 N306 1.350 . S
C309 C308 1.434 . S
C310 C311 1.369 . S
C310 C312 1.419 . S
C310 H314 0.930 . S
C311 C310 1.369 . S
C311 C320 1.429 . S
C312 C310 1.419 . S
C312 C313 1.363 . S
C312 H315 0.929 . S
C313 C312 1.363 . S
C313 C319 1.428 . S
H314 C310 0.930 . S
H315 C312 0.929 . S
S316 N317 1.613 . S
S316 N318 1.610 . S
N317 S316 1.613 . S
N317 C320 1.350 . S
N318 S316 1.610 . S
N318 C319 1.351 . S
C319 C313 1.428 . S
C319 N318 1.351 . S
C319 C320 1.434 . S
C320 C311 1.429 . S
C320 N317 1.350 . S
C320 C319 1.434 . S
C321 C322 1.369 1_455 S
C321 C323 1.419 . S
C321 H325 0.930 . S
C322 C321 1.369 1_655 S
C322 C331 1.429 . S
C323 C321 1.419 . S
C323 C324 1.363 . S
C323 H326 0.929 . S
C324 C323 1.363 . S
C324 C330 1.428 1_455 S
H325 C321 0.930 . S
H326 C323 0.929 . S
S327 N328 1.613 . S
S327 N329 1.610 1_554 S
N328 S327 1.613 . S
N328 C331 1.350 1_554 S
N329 S327 1.610 1_556 S
N329 C330 1.351 . S
C330 C324 1.428 1_655 S
C330 N329 1.351 . S
C330 C331 1.434 . S
C331 C322 1.429 . S
C331 N328 1.350 1_556 S
C331 C330 1.434 . S
C332 C333 1.369 . S
C332 C334 1.419 . S
C332 H336 0.930 . S
C333 C332 1.369 . S
C333 C342 1.429 . S
C334 C332 1.419 . S
C334 C335 1.363 . S
C334 H337 0.929 . S
C335 C334 1.363 . S
C335 C341 1.428 . S
H336 C332 0.930 . S
H337 C334 0.929 . S
S338 N339 1.613 . S
S338 N340 1.610 . S
N339 S338 1.613 . S
N339 C342 1.350 . S
N340 S338 1.610 . S
N340 C341 1.351 . S
C341 C335 1.428 . S
C341 N340 1.351 . S
C341 C342 1.434 . S
C342 C333 1.429 . S
C342 N339 1.350 . S
C342 C341 1.434 . S
C343 C344 1.369 . S
C343 C345 1.419 . S
C343 H347 0.930 . S
C344 C343 1.369 . S
C344 C353 1.429 1_545 S
C345 C343 1.419 . S
C345 C346 1.363 . S
C345 H348 0.929 . S
C346 C345 1.363 . S
C346 C352 1.428 1_545 S
H347 C343 0.930 . S
H348 C345 0.929 . S
S349 N350 1.613 . S
S349 N351 1.610 . S
N350 S349 1.613 . S
N350 C353 1.350 . S
N351 S349 1.610 . S
N351 C352 1.351 . S
C352 C346 1.428 1_565 S
C352 N351 1.351 . S
C352 C353 1.434 . S
C353 C344 1.429 1_565 S
C353 N350 1.350 . S
C353 C352 1.434 . S
C354 C355 1.369 . S
C354 C356 1.419 . S
C354 H358 0.930 . S
C355 C354 1.369 . S
C355 C364 1.429 . S
C356 C354 1.419 . S
C356 C357 1.363 . S
C356 H359 0.929 . S
C357 C356 1.363 . S
C357 C363 1.428 . S
H358 C354 0.930 . S
H359 C356 0.929 . S
S360 N361 1.613 . S
S360 N362 1.610 . S
N361 S360 1.613 . S
N361 C364 1.350 . S
N362 S360 1.610 . S
N362 C363 1.351 . S
C363 C357 1.428 . S
C363 N362 1.351 . S
C363 C364 1.434 . S
C364 C355 1.429 . S
C364 N361 1.350 . S
C364 C363 1.434 . S
C365 C366 1.369 . S
C365 C367 1.419 . S
C365 H369 0.930 . S
C366 C365 1.369 . S
C366 C375 1.429 . S
C367 C365 1.419 . S
C367 C368 1.363 . S
C367 H370 0.929 . S
C368 C367 1.363 . S
C368 C374 1.428 . S
H369 C365 0.930 . S
H370 C367 0.929 . S
S371 N372 1.613 . S
S371 N373 1.610 . S
N372 S371 1.613 . S
N372 C375 1.350 . S
N373 S371 1.610 . S
N373 C374 1.351 . S
C374 C368 1.428 . S
C374 N373 1.351 . S
C374 C375 1.434 . S
C375 C366 1.429 . S
C375 N372 1.350 . S
C375 C374 1.434 . S
C376 C377 1.369 . S
C376 C378 1.419 . S
C376 H380 0.930 . S
C377 C376 1.369 . S
C377 C386 1.422 1_454 S
C378 C376 1.419 . S
C378 C379 1.363 1_554 S
C378 H381 0.929 . S
C379 C378 1.363 1_556 S
C379 C385 1.428 . S
H380 C376 0.930 . S
H381 C378 0.929 . S
S382 N383 1.613 . S
S382 N384 1.610 1_655 S
N383 S382 1.613 . S
N383 C386 1.371 . S
N384 S382 1.610 1_455 S
N384 C385 1.351 . S
C385 C379 1.428 . S
C385 N384 1.351 . S
C385 C386 1.419 1_455 S
C386 C377 1.422 1_656 S
C386 N383 1.371 . S
C386 C385 1.419 1_655 S
C387 C388 1.369 1_554 S
C387 C389 1.419 1_554 S
C387 H391 0.930 . S
C388 C387 1.369 1_556 S
C388 C397 1.429 . S
C389 C387 1.419 1_556 S
C389 C390 1.363 . S
C389 H392 0.929 1_556 S
C390 C389 1.363 . S
C390 C396 1.428 . S
H391 C387 0.930 . S
H392 C389 0.929 1_554 S
S393 N394 1.613 . S
S393 N395 1.610 . S
N394 S393 1.613 . S
N394 C397 1.350 . S
N395 S393 1.610 . S
N395 C396 1.351 . S
C396 C390 1.428 . S
C396 N395 1.351 . S
C396 C397 1.434 . S
C397 C388 1.429 . S
C397 N394 1.350 . S
C397 C396 1.434 . S
C398 C399 1.369 . S
C398 C400 1.419 . S
C398 H402 0.930 . S
C399 C398 1.369 . S
C399 C408 1.429 . S
C400 C398 1.419 . S
C400 C401 1.363 . S
C400 H403 0.929 . S
C401 C400 1.363 . S
C401 C407 1.428 . S
H402 C398 0.930 . S
H403 C400 0.929 . S
S404 N405 1.613 . S
S404 N406 1.610 1_554 S
N405 S404 1.613 . S
N405 C408 1.350 1_554 S
N406 S404 1.610 1_556 S
N406 C407 1.351 . S
C407 C401 1.428 . S
C407 N406 1.351 . S
C407 C408 1.434 . S
C408 C399 1.429 . S
C408 N405 1.350 1_556 S
C408 C407 1.434 . S
C409 C410 1.369 . S
C409 C411 1.419 . S
C409 H413 0.930 1_556 S
C410 C409 1.369 . S
C410 C419 1.429 . S
C411 C409 1.419 . S
C411 C412 1.363 . S
C411 H414 0.929 . S
C412 C411 1.363 . S
C412 C418 1.428 . S
H413 C409 0.930 1_554 S
H414 C411 0.929 . S
S415 N416 1.613 . S
S415 N417 1.610 . S
N416 S415 1.613 . S
N416 C419 1.350 . S
N417 S415 1.610 . S
N417 C418 1.351 . S
C418 C412 1.428 . S
C418 N417 1.351 . S
C418 C419 1.434 . S
C419 C410 1.429 . S
C419 N416 1.350 . S
C419 C418 1.434 . S
C420 C421 1.369 . S
C420 C422 1.419 . S
C420 H424 0.930 . S
C421 C420 1.369 . S
C421 C430 1.429 . S
C422 C420 1.419 . S
C422 C423 1.363 . S
C422 H425 0.929 1_554 S
C423 C422 1.363 . S
C423 C429 1.428 1_455 S
H424 C420 0.930 . S
H425 C422 0.929 1_556 S
S426 N427 1.613 . S
S426 N428 1.610 . S
N427 S426 1.613 . S
N427 C430 1.350 1_655 S
N428 S426 1.610 . S
N428 C429 1.351 . S
C429 C423 1.428 1_655 S
C429 N428 1.351 . S
C429 C430 1.434 1_655 S
C430 C421 1.429 . S
C430 N427 1.350 1_455 S
C430 C429 1.434 1_455 S
C431 C432 1.369 . S
C431 C433 1.419 . S
C431 H435 0.930 . S
C432 C431 1.369 . S
C432 C441 1.429 1_545 S
C433 C431 1.419 . S
C433 C434 1.363 1_554 S
C433 H436 0.929 . S
C434 C433 1.363 1_556 S
C434 C440 1.428 1_545 S
H435 C431 0.930 . S
H436 C433 0.929 . S
S437 N438 1.613 1_556 S
S437 N439 1.610 . S
N438 S437 1.613 1_554 S
N438 C441 1.350 . S
N439 S437 1.610 . S
N439 C440 1.351 . S
C440 C434 1.428 1_565 S
C440 N439 1.351 . S
C440 C441 1.434 1_556 S
C441 C432 1.429 1_565 S
C441 N438 1.350 . S
C441 C440 1.434 1_554 S
C442 C443 1.369 1_556 S
C442 C444 1.419 . S
C442 H446 0.930 . S
C443 C442 1.369 1_554 S
C443 C452 1.429 . S
C444 C442 1.419 . S
C444 C445 1.363 . S
C444 H447 0.929 . S
C445 C444 1.363 . S
C445 C451 1.428 1_556 S
H446 C442 0.930 . S
H447 C444 0.929 . S
S448 N449 1.613 . S
S448 N450 1.610 . S
N449 S448 1.613 . S
N449 C452 1.350 . S
N450 S448 1.610 . S
N450 C451 1.351 . S
C451 C445 1.428 1_554 S
C451 N450 1.351 . S
C451 C452 1.434 . S
C452 C443 1.429 . S
C452 N449 1.350 . S
C452 C451 1.434 . S
C453 C454 1.369 . S
C453 C455 1.419 1_554 S
C453 H457 0.930 1_554 S
C454 C453 1.369 . S
C454 C463 1.429 . S
C455 C453 1.419 1_556 S
C455 C456 1.363 . S
C455 H458 0.929 . S
C456 C455 1.363 . S
C456 C462 1.428 1_556 S
H457 C453 0.930 1_556 S
H458 C455 0.929 . S
S459 N460 1.613 . S
S459 N461 1.610 . S
N460 S459 1.613 . S
N460 C463 1.350 . S
N461 S459 1.610 . S
N461 C462 1.351 . S
C462 C456 1.428 1_554 S
C462 N461 1.351 . S
C462 C463 1.434 . S
C463 C454 1.429 . S
C463 N460 1.350 . S
C463 C462 1.434 . S
C464 C465 1.369 . S
C464 C466 1.419 . S
C464 H468 0.930 . S
C465 C464 1.369 . S
C465 C474 1.429 1_655 S
C466 C464 1.419 . S
C466 C467 1.363 . S
C466 H469 0.929 . S
C467 C466 1.363 . S
C467 C473 1.428 1_655 S
H468 C464 0.930 . S
H469 C466 0.929 . S
S470 N471 1.613 . S
S470 N472 1.610 . S
N471 S470 1.613 . S
N471 C474 1.350 . S
N472 S470 1.610 . S
N472 C473 1.351 . S
C473 C467 1.428 1_455 S
C473 N472 1.351 . S
C473 C474 1.434 . S
C474 C465 1.429 1_455 S
C474 N471 1.350 . S
C474 C473 1.434 . S
C475 C476 1.369 . S
C475 C477 1.419 . S
C475 H479 0.930 . S
C476 C475 1.369 . S
C476 C485 1.429 . S
C477 C475 1.419 . S
C477 C478 1.363 . S
C477 H480 0.929 . S
C478 C477 1.363 . S
C478 C484 1.428 . S
H479 C475 0.930 . S
H480 C477 0.929 . S
S481 N482 1.613 . S
S481 N483 1.610 1_545 S
N482 S481 1.613 . S
N482 C485 1.350 1_545 S
N483 S481 1.610 1_565 S
N483 C484 1.351 . S
C484 C478 1.428 . S
C484 N483 1.351 . S
C484 C485 1.434 . S
C485 C476 1.429 . S
C485 N482 1.350 1_565 S
C485 C484 1.434 . S
C486 C487 1.369 . S
C486 C488 1.419 . S
C486 H490 0.930 . S
C487 C486 1.369 . S
C487 C496 1.429 . S
C488 C486 1.419 . S
C488 C489 1.363 . S
C488 H491 0.929 . S
C489 C488 1.363 . S
C489 C495 1.428 . S
H490 C486 0.930 . S
H491 C488 0.929 . S
S492 N493 1.613 . S
S492 N494 1.610 . S
N493 S492 1.613 . S
N493 C496 1.350 . S
N494 S492 1.610 . S
N494 C495 1.351 . S
C495 C489 1.428 . S
C495 N494 1.351 . S
C495 C496 1.434 . S
C496 C487 1.429 . S
C496 N493 1.350 . S
C496 C495 1.434 . S
C497 C498 1.369 . S
C497 C499 1.419 . S
C497 H501 0.930 . S
C498 C497 1.369 . S
C498 C507 1.429 . S
C499 C497 1.419 . S
C499 C500 1.363 . S
C499 H502 0.929 . S
C500 C499 1.363 . S
C500 C506 1.428 . S
H501 C497 0.930 . S
H502 C499 0.929 . S
S503 N504 1.613 . S
S503 N505 1.610 . S
N504 S503 1.613 . S
N504 C507 1.350 . S
N505 S503 1.610 . S
N505 C506 1.351 . S
C506 C500 1.428 . S
C506 N505 1.351 . S
C506 C507 1.434 . S
C507 C498 1.429 . S
C507 N504 1.350 . S
C507 C506 1.434 . S
C245 C125 1.590 . S
C247 C168 1.617 1_545 S
C258 C191 1.634 . S
C256 C144 1.587 . S
C269 C214 1.639 . S
C267 C87 1.594 . S
C280 C241 1.527 . S
C278 C106 1.521 . S
C291 C169 1.572 . S
C289 C49 1.522 1_556 S
C300 C68 1.493 . S
C302 C192 1.533 . S
C311 C11 1.496 . S
C313 C215 1.532 . S
C322 C30 1.598 1_556 S
C324 C240 1.593 . S
C335 C170 0.833 . S
C333 C97 0.795 . S
C346 C193 0.798 . S
C344 C116 0.795 . S
C357 C216 0.818 . S
C355 C135 0.818 . S
C366 C78 0.933 . S
C368 C242 0.934 . S
C377 C21 1.060 . S
C379 C173 1.011 . S
C390 C196 1.001 . S
C388 C40 1.049 1_556 S
C401 C219 0.972 . S
C399 C59 0.996 . S
C410 C2 0.782 . S
C412 C239 0.789 . S
C421 C101 1.579 . S
C423 C171 1.548 1_554 S
C432 C120 1.548 . S
C434 C194 1.529 . S
C445 C217 1.542 . S
C443 C139 1.554 . S
C456 C238 1.458 . S
C454 C82 1.418 . S
C465 C25 1.641 1_655 S
C467 C172 1.547 . S
C478 C195 1.504 . S
C476 C44 1.606 1_565 S
C489 C218 1.498 . S
C487 C63 1.577 . S
C498 C6 1.668 . S
C500 C237 1.701 . S
