# Generated by pormake.
# Topology pth, (4,4)-cn, num edge types: 1
# Building blocks:
#     Node 0, Type 0, BuildingBlock: QUQFOY_clean_sbu_1, # of connection points: 4
#     Node 1, Type 0, BuildingBlock: QUQFOY_clean_sbu_1, # of connection points: 4
#     Node 2, Type 0, BuildingBlock: QUQFOY_clean_sbu_1, # of connection points: 4
#     Node 3, Type 1, BuildingBlock: MIFKUJ_clean_linker_1, # of connection points: 4
#     Node 4, Type 1, BuildingBlock: MIFKUJ_clean_linker_1, # of connection points: 4
#     Node 5, Type 1, BuildingBlock: MIFKUJ_clean_linker_1, # of connection points: 4
#     Edge 6, Type (0, 1), BuildingBlock: UVAHIK_clean_linker_0, # of connection points: 2
#     Edge 7, Type (0, 1), BuildingBlock: UVAHIK_clean_linker_0, # of connection points: 2
#     Edge 8, Type (0, 1), BuildingBlock: UVAHIK_clean_linker_0, # of connection points: 2
#     Edge 9, Type (0, 1), BuildingBlock: UVAHIK_clean_linker_0, # of connection points: 2
#     Edge 10, Type (0, 1), BuildingBlock: UVAHIK_clean_linker_0, # of connection points: 2
#     Edge 11, Type (0, 1), BuildingBlock: UVAHIK_clean_linker_0, # of connection points: 2
#     Edge 12, Type (0, 1), BuildingBlock: UVAHIK_clean_linker_0, # of connection points: 2
#     Edge 13, Type (0, 1), BuildingBlock: UVAHIK_clean_linker_0, # of connection points: 2
#     Edge 14, Type (0, 1), BuildingBlock: UVAHIK_clean_linker_0, # of connection points: 2
#     Edge 15, Type (0, 1), BuildingBlock: UVAHIK_clean_linker_0, # of connection points: 2
#     Edge 16, Type (0, 1), BuildingBlock: UVAHIK_clean_linker_0, # of connection points: 2
#     Edge 17, Type (0, 1), BuildingBlock: UVAHIK_clean_linker_0, # of connection points: 2
# Relax obj value: 0.028
# Max RMSD: 0.131
# Mean RMSD: 0.087
data_MOF--net-pth--node1-QUQFOY_clean_sbu_1--node2-MIFKUJ_clean_linker_1--edge1-UVAHIK_clean_linker_0
_symmetry_space_group_name_H-M    P1
_symmetry_Int_Tables_number       1
_symmetry_cell_setting            triclinic
loop_
_symmetry_equiv_pos_as_xyz
'x, y, z'
_cell_length_a     35.544914
_cell_length_b     38.253508
_cell_length_c     81.929711
_cell_angle_alpha  90.028033
_cell_angle_beta   89.959155
_cell_angle_gamma 120.09839
loop_
_atom_site_label
_atom_site_type_symbol
_atom_site_fract_x
_atom_site_fract_y
_atom_site_fract_z
_atom_type_partial_charge
O0 O 0.02802 0.05735 0.03498 0.0
Cd1 Cd 0.97727 0.01895 0.04998 0.0
Cd2 Cd 0.02205 0.97994 0.04895 0.0
O3 O 0.07141 0.03265 0.03906 0.0
O4 O 0.95083 0.05243 0.05575 0.0
O5 O 0.98155 0.03215 0.07401 0.0
C6 C 0.96312 0.05301 0.07059 0.0
C7 C 0.03433 0.94693 0.07043 0.0
C8 C 0.06453 0.05944 0.03293 0.0
C9 C 0.93487 0.94088 0.03244 0.0
O10 O 0.9716 0.94298 0.03361 0.0
O11 O 0.92806 0.96657 0.0397 0.0
O12 O 0.04779 0.9466 0.05584 0.0
O13 O 0.01525 0.96764 0.07301 0.0
O14 O 0.96606 0.02845 0.38575 0.0
Cd15 Cd 0.01973 0.04258 0.37162 0.0
Cd16 Cd 0.98166 0.9604 0.37154 0.0
O17 O 0.93096 0.96218 0.38314 0.0
O18 O 0.04216 0.10042 0.36627 0.0
O19 O 0.01799 0.05249 0.3475 0.0
C20 C 0.03314 0.09005 0.35119 0.0
C21 C 0.96797 0.91499 0.35023 0.0
C22 C 0.93292 0.99416 0.3886 0.0
C23 C 0.06899 0.00856 0.38811 0.0
O24 O 0.03591 0.97416 0.38531 0.0
O25 O 0.07049 0.04051 0.38287 0.0
O26 O 0.95856 0.90305 0.36514 0.0
O27 O 0.98393 0.95303 0.34725 0.0
O28 O 0.9329 0.96807 0.70301 0.0
Cd29 Cd 0.97582 0.95902 0.71671 0.0
Cd30 Cd 0.02075 0.03984 0.71667 0.0
O31 O 0.96552 0.0342 0.70578 0.0
O32 O 0.94165 0.90191 0.72416 0.0
O33 O 0.96821 0.95392 0.74111 0.0
C34 C 0.94564 0.91531 0.73887 0.0
C35 C 0.05276 0.08234 0.73899 0.0
C36 C 0.93405 0.00133 0.70041 0.0
C37 C 0.06086 0.99757 0.69917 0.0
O38 O 0.06251 0.03096 0.70208 0.0
O39 O 0.02972 0.96474 0.70474 0.0
O40 O 0.0548 0.09659 0.72455 0.0
O41 O 0.03113 0.04359 0.74091 0.0
H42 H 0.04788 0.47132 0.17558 0.0
H43 H 0.04249 0.41475 0.15971 0.0
H44 H 0.93422 0.33114 0.18946 0.0
H45 H 0.93853 0.38773 0.20494 0.0
H46 H -0.00059 0.50159 0.17964 0.0
H47 H 0.05712 0.44412 0.21478 0.0
H48 H 0.06319 0.39251 0.23022 0.0
H49 H 0.95449 0.37303 0.26023 0.0
H50 H 0.94727 0.42361 0.24435 0.0
H51 H 0.92973 0.52151 0.23841 0.0
H52 H 0.92293 0.57326 0.25341 0.0
H53 H 0.04851 0.6644 0.23518 0.0
H54 H 0.05462 0.61237 0.21997 0.0
H55 H 0.99445 0.49934 0.24016 0.0
H56 H 0.93887 0.55836 0.1996 0.0
H57 H 0.94528 0.61616 0.18437 0.0
H58 H 0.07148 0.64242 0.16669 0.0
H59 H 0.06428 0.5842 0.18164 0.0
C60 C 0.99396 0.43391 0.19161 0.0
C61 C 0.02274 0.44088 0.17863 0.0
C62 C 0.01973 0.40856 0.16959 0.0
C63 C 0.98811 0.36862 0.17344 0.0
C64 C 0.95928 0.36161 0.18639 0.0
C65 C 0.96181 0.39395 0.19525 0.0
C66 C 0.99718 0.46833 0.20125 0.0
C67 C -0.00117 0.50115 0.19288 0.0
C68 C 0.99706 0.46829 0.21856 0.0
C69 C 0.00125 0.4374 0.22819 0.0
C70 C 0.03407 0.42833 0.22449 0.0
C71 C 0.03762 0.3989 0.23334 0.0
C72 C 0.00918 0.37869 0.24635 0.0
C73 C 0.97692 0.3883 0.25028 0.0
C74 C 0.97286 0.41724 0.24124 0.0
C75 C 0.99252 0.56312 0.22801 0.0
C76 C 0.95587 0.55263 0.23772 0.0
C77 C 0.95212 0.58227 0.24633 0.0
C78 C 0.98518 0.62307 0.24551 0.0
C79 C 0.02213 0.63341 0.23589 0.0
C80 C 0.0258 0.6037 0.22725 0.0
C81 C 0.99526 0.53147 0.21851 0.0
C82 C 0.99496 0.49938 0.22692 0.0
C83 C 0.9983 0.53286 0.20129 0.0
C84 C 0.00117 0.5671 0.19178 0.0
C85 C 0.96786 0.57662 0.19242 0.0
C86 C 0.97171 0.60981 0.18378 0.0
C87 C 0.00894 0.63406 0.1743 0.0
C88 C 0.04206 0.62413 0.17363 0.0
C89 C 0.03809 0.5909 0.18221 0.0
H90 H 0.58896 0.0594 0.51344 0.0
H91 H 0.64024 0.05552 0.49472 0.0
H92 H 0.61144 0.94155 0.51611 0.0
H93 H 0.55969 0.94531 0.53475 0.0
H94 H 0.50562 0.011 0.5139 0.0
H95 H 0.61919 0.05128 0.55339 0.0
H96 H 0.67298 0.05149 0.57209 0.0
H97 H 0.57396 0.93843 0.59267 0.0
H98 H 0.52042 0.93835 0.57398 0.0
H99 H 0.41037 0.9399 0.57338 0.0
H100 H 0.35511 0.9393 0.59118 0.0
H101 H 0.38068 0.05341 0.57078 0.0
H102 H 0.43754 0.05473 0.55354 0.0
H103 H 0.49395 0.99091 0.57381 0.0
H104 H 0.38034 0.95198 0.53379 0.0
H105 H 0.32697 0.95574 0.51618 0.0
H106 H 0.42847 0.06871 0.49635 0.0
H107 H 0.48114 0.06558 0.51445 0.0
C108 C 0.5705 0.00271 0.52553 0.0
C109 C 0.59394 0.03374 0.51421 0.0
C110 C 0.6231 0.03141 0.50348 0.0
C111 C 0.62949 0.99803 0.50386 0.0
C112 C 0.60736 0.96775 0.51563 0.0
C113 C 0.5779 0.96996 0.52631 0.0
C114 C 0.53548 0.00291 0.53534 0.0
C115 C 0.50351 0.00729 0.52706 0.0
C116 C 0.53195 0.99686 0.55242 0.0
C117 C 0.56577 0.99475 0.56226 0.0
C118 C 0.60929 0.02611 0.56169 0.0
C119 C 0.63998 0.02624 0.5724 0.0
C120 C 0.62757 0.99517 0.58396 0.0
C121 C 0.58433 0.96314 0.5841 0.0
C122 C 0.55376 0.96296 0.57338 0.0
C123 C 0.42798 0.99723 0.56205 0.0
C124 C 0.40397 0.96474 0.5727 0.0
C125 C 0.37206 0.96426 0.58277 0.0
C126 C 0.36334 0.99629 0.58241 0.0
C127 C 0.38688 0.02848 0.5715 0.0
C128 C 0.41905 0.02904 0.56148 0.0
C129 C 0.46405 0.99875 0.55236 0.0
C130 C 0.49618 0.99467 0.56065 0.0
C131 C 0.46787 0.00532 0.53531 0.0
C132 C 0.43469 0.00866 0.52553 0.0
C133 C 0.39089 0.97795 0.52589 0.0
C134 C 0.36051 0.97992 0.51567 0.0
C135 C 0.37346 0.01246 0.5048 0.0
C136 C 0.41722 0.04351 0.50471 0.0
C137 C 0.44748 0.04159 0.51496 0.0
H138 H 0.47194 0.41271 0.85876 0.0
H139 H 0.41324 0.35885 0.84264 0.0
H140 H 0.32307 0.39315 0.86172 0.0
H141 H 0.38162 0.44667 0.87783 0.0
H142 H 0.50478 0.49511 0.85755 0.0
H143 H 0.44227 0.39047 0.89587 0.0
H144 H 0.38964 0.33569 0.91314 0.0
H145 H 0.35698 0.41831 0.93647 0.0
H146 H 0.40933 0.47303 0.91898 0.0
H147 H 0.5175 0.59158 0.91118 0.0
H148 H 0.56959 0.64869 0.92763 0.0
H149 H 0.66623 0.61357 0.91893 0.0
H150 H 0.61438 0.55784 0.90181 0.0
H151 H 0.49265 0.50667 0.9174 0.0
H152 H 0.55774 0.61119 0.8757 0.0
H153 H 0.61835 0.66336 0.85995 0.0
H154 H 0.65436 0.57562 0.84508 0.0
H155 H 0.59331 0.52356 0.86069 0.0
C156 C 0.43106 0.43354 0.86952 0.0
C157 C 0.43948 0.40848 0.85949 0.0
C158 C 0.40594 0.37764 0.8504 0.0
C159 C 0.36367 0.3719 0.85096 0.0
C160 C 0.35539 0.39706 0.86101 0.0
C161 C 0.38874 0.42748 0.87026 0.0
C162 C 0.46646 0.46668 0.87903 0.0
C163 C 0.50239 0.49734 0.87066 0.0
C164 C 0.46337 0.46958 0.89614 0.0
C165 C 0.42945 0.43584 0.90597 0.0
C166 C 0.42317 0.39668 0.90445 0.0
C167 C 0.39317 0.36539 0.91438 0.0
C168 C 0.36925 0.37274 0.92617 0.0
C169 C 0.37533 0.41187 0.92761 0.0
C170 C 0.40511 0.4431 0.91759 0.0
C171 C 0.56225 0.57072 0.90528 0.0
C172 C 0.55008 0.59653 0.91275 0.0
C173 C 0.57985 0.62896 0.92226 0.0
C174 C 0.62219 0.63575 0.92476 0.0
C175 C 0.63425 0.60982 0.9171 0.0
C176 C 0.6046 0.57774 0.90738 0.0
C177 C 0.52992 0.53544 0.89585 0.0
C178 C 0.49477 0.50432 0.90427 0.0
C179 C 0.53429 0.5317 0.8789 0.0
C180 C 0.5712 0.56355 0.86946 0.0
C181 C 0.57893 0.60332 0.86915 0.0
C182 C 0.61369 0.63314 0.86017 0.0
C183 C 0.64132 0.62374 0.85126 0.0
C184 C 0.63341 0.58382 0.85162 0.0
C185 C 0.59862 0.55403 0.86057 0.0
C186 C 0.97101 0.07987 0.09921 0.0
C187 C 0.95968 0.07991 0.08276 0.0
C188 C 0.97225 0.10869 0.11012 0.0
C189 C 0.99363 0.21174 0.11037 0.0
H190 H 0.9337 0.18777 0.15196 0.0
C191 C 0.98406 0.33546 0.14667 0.0
C192 C 0.98478 0.33441 0.16377 0.0
C193 C 0.98072 0.30326 0.13748 0.0
C194 C 0.95129 0.19511 0.14052 0.0
H195 H 0.93942 0.10938 0.06503 0.0
H196 H 0.94238 0.15975 0.08396 0.0
H197 H 0.92796 0.13259 0.13502 0.0
H198 H 0.98298 0.29914 0.18473 0.0
H199 H 0.97865 0.24335 0.16872 0.0
H200 H 0.01808 0.274 0.11582 0.0
C201 C 0.95021 0.13748 0.0884 0.0
C202 C 0.94777 0.16344 0.13081 0.0
C203 C 0.94832 0.10845 0.0776 0.0
C204 C 0.98215 0.30052 0.17154 0.0
C205 C 0.97946 0.2685 0.16234 0.0
C206 C 0.99773 0.24336 0.12014 0.0
C207 C 0.96289 0.13833 0.10467 0.0
C208 C 0.96836 0.1715 0.11554 0.0
C209 C 0.97874 0.26944 0.14517 0.0
C210 C 0.97603 0.23553 0.13523 0.0
H211 H 0.97992 0.05826 0.10355 0.0
H212 H 0.98215 0.1088 0.12263 0.0
H213 H 0.0104 0.21877 0.09874 0.0
H214 H 0.98538 0.36096 0.14038 0.0
H215 H 0.97915 0.30477 0.12432 0.0
C216 C 0.90126 0.0273 0.40564 0.0
C217 C 0.8976 0.99182 0.399 0.0
C218 C 0.8695 0.02548 0.41618 0.0
C219 C 0.78218 0.95669 0.4441 0.0
H220 H 0.75107 0.04033 0.44228 0.0
C221 C 0.68771 0.98227 0.49593 0.0
C222 C 0.65756 0.99408 0.49147 0.0
C223 C 0.71461 0.97944 0.48415 0.0
C224 C 0.75893 0.01643 0.44287 0.0
H225 H 0.8571 0.92656 0.39804 0.0
H226 H 0.8011 0.92345 0.4163 0.0
H227 H 0.80054 0.0394 0.42205 0.0
H228 H 0.63054 0.01044 0.47112 0.0
H229 H 0.67686 0.00502 0.45059 0.0
H230 H 0.73983 0.93334 0.46479 0.0
C231 C 0.82901 0.95265 0.41351 0.0
C232 C 0.78777 0.0162 0.43137 0.0
C233 C 0.86095 0.95446 0.40296 0.0
C234 C 0.65413 0.0021 0.47497 0.0
C235 C 0.68072 0.99901 0.46321 0.0
C236 C 0.75312 0.95682 0.45559 0.0
C237 C 0.83308 0.98816 0.42031 0.0
C238 C 0.80016 0.98663 0.43194 0.0
C239 C 0.71163 0.98808 0.46766 0.0
C240 C 0.74141 0.9869 0.45519 0.0
H241 H 0.9291 0.05661 0.40294 0.0
H242 H 0.87409 0.05338 0.42139 0.0
H243 H 0.79132 0.93368 0.44498 0.0
H244 H 0.69118 0.97611 0.50857 0.0
H245 H 0.73842 0.97144 0.48804 0.0
C246 C 0.89962 0.84523 0.74964 0.0
C247 C 0.92279 0.88709 0.7525 0.0
C248 C 0.87472 0.81842 0.76198 0.0
C249 C 0.81642 0.81365 0.79971 0.0
H250 H 0.80603 0.70814 0.80373 0.0
C251 C 0.70292 0.69498 0.84718 0.0
C252 C 0.67768 0.65519 0.84135 0.0
C253 C 0.7366 0.72456 0.83769 0.0
C254 C 0.80841 0.73741 0.8027 0.0
H255 H 0.93903 0.93357 0.77076 0.0
H256 H 0.89561 0.88654 0.79244 0.0
H257 H 0.85953 0.75782 0.78505 0.0
H258 H 0.66785 0.61558 0.82084 0.0
H259 H 0.72656 0.66698 0.8044 0.0
H260 H 0.76476 0.79293 0.81719 0.0
C261 C 0.89641 0.87458 0.78054 0.0
C262 C 0.83909 0.76589 0.79201 0.0
C263 C 0.92151 0.90148 0.76816 0.0
C264 C 0.6871 0.64568 0.82585 0.0
C265 C 0.7208 0.67518 0.81641 0.0
C266 C 0.78576 0.78515 0.81044 0.0
C267 C 0.8723 0.83275 0.77752 0.0
C268 C 0.84292 0.80409 0.79015 0.0
C269 C 0.7459 0.71499 0.82219 0.0
C270 C 0.78086 0.74644 0.81183 0.0
H271 H 0.89984 0.8331 0.73771 0.0
H272 H 0.85613 0.78649 0.75914 0.0
H273 H 0.81814 0.84259 0.79844 0.0
H274 H 0.69696 0.70321 0.85915 0.0
H275 H 0.75563 0.75485 0.84256 0.0
C276 C 0.01966 0.91851 0.0989 0.0
C277 C 0.03823 0.92197 0.08341 0.0
C278 C 0.01982 0.89166 0.1105 0.0
C279 C 0.07094 0.82959 0.12012 0.0
H280 H 0.96347 0.76201 0.14351 0.0
C281 C 0.03235 0.67863 0.14945 0.0
C282 C 0.01334 0.66948 0.16507 0.0
C283 C 0.0373 0.71221 0.14086 0.0
C284 C 0.9939 0.78099 0.13724 0.0
H285 H 0.07266 0.90081 0.06813 0.0
H286 H 0.07246 0.85397 0.08813 0.0
H287 H 0.96997 0.81693 0.12636 0.0
H288 H 0.98476 0.68887 0.18389 0.0
H289 H 0.99277 0.74719 0.16871 0.0
H290 H 0.09438 0.79289 0.13064 0.0
C291 C 0.05826 0.87224 0.09149 0.0
C292 C 0.9977 0.81257 0.12744 0.0
C293 C 0.05813 0.899 0.07995 0.0
C294 C -0.00101 0.69464 0.1718 0.0
C295 C 0.00369 0.72815 0.16314 0.0
C296 C 0.06704 0.79793 0.12983 0.0
C297 C 0.0386 0.86777 0.10684 0.0
C298 C 0.03603 0.83684 0.11853 0.0
C299 C 0.02313 0.73741 0.14761 0.0
C300 C 0.02824 0.77285 0.13828 0.0
H301 H 0.00411 0.93582 0.10195 0.0
H302 H 0.00488 0.88935 0.12227 0.0
H303 H 0.10124 0.84817 0.11371 0.0
H304 H 0.04296 0.65952 0.14373 0.0
H305 H 0.05164 0.71808 0.12879 0.0
C306 C 0.10488 0.97598 0.40299 0.0
C307 C 0.10466 0.01127 0.39836 0.0
C308 C 0.13645 0.97797 0.41369 0.0
C309 C 0.20939 0.04064 0.44638 0.0
H310 H 0.26299 0.97488 0.44004 0.0
C311 C 0.3434 0.04966 0.48921 0.0
C312 C 0.34206 0.01321 0.49302 0.0
C313 C 0.31554 0.05067 0.47743 0.0
C314 C 0.24794 0.99308 0.44209 0.0
H315 H 0.1382 0.07648 0.40104 0.0
H316 H 0.19341 0.07988 0.41976 0.0
H317 H 0.21379 0.97498 0.41935 0.0
H318 H 0.31005 0.94916 0.48748 0.0
H319 H 0.26062 0.95068 0.46734 0.0
H320 H 0.2429 0.05824 0.46925 0.0
C321 C 0.16886 0.05067 0.41517 0.0
C322 C 0.21988 0.99324 0.4302 0.0
C323 C 0.13742 0.04872 0.40437 0.0
C324 C 0.31166 0.97768 0.48499 0.0
C325 C 0.28373 0.97866 0.47325 0.0
C326 C 0.23732 0.04036 0.45832 0.0
C327 C 0.16841 0.01525 0.42008 0.0
C328 C 0.20007 0.0168 0.43227 0.0
C329 C 0.28561 0.01522 0.46921 0.0
C330 C 0.25668 0.01633 0.45637 0.0
H331 H 0.08017 0.94663 0.39859 0.0
H332 H 0.13499 0.95011 0.41736 0.0
H333 H 0.19413 0.05868 0.44843 0.0
H334 H 0.36611 0.07751 0.49529 0.0
H335 H 0.31807 0.07939 0.47454 0.0
C336 C 0.08986 0.15097 0.75159 0.0
C337 C 0.07712 0.10987 0.75257 0.0
C338 C 0.11714 0.17818 0.7634 0.0
C339 C 0.1668 0.18536 0.80441 0.0
H340 H 0.25281 0.291 0.78821 0.0
C341 C 0.32093 0.3009 0.84032 0.0
C342 C 0.32857 0.34068 0.8407 0.0
C343 C 0.28807 0.27174 0.83042 0.0
C344 C 0.22878 0.26172 0.79293 0.0
H345 H 0.08187 0.06471 0.76694 0.0
H346 H 0.13088 0.11238 0.78728 0.0
H347 H 0.19911 0.2419 0.76958 0.0
H348 H 0.30817 0.38124 0.831 0.0
H349 H 0.25129 0.33049 0.8135 0.0
H350 H 0.19814 0.20527 0.8277 0.0
C351 C 0.11901 0.12362 0.77762 0.0
C352 C 0.19771 0.23356 0.78229 0.0
C353 C 0.09099 0.09623 0.76593 0.0
C354 C 0.30277 0.35074 0.83102 0.0
C355 C 0.27045 0.32181 0.82095 0.0
C356 C 0.19842 0.21343 0.81502 0.0
C357 C 0.13318 0.16514 0.77633 0.0
C358 C 0.16604 0.19505 0.78788 0.0
C359 C 0.26284 0.28207 0.82053 0.0
C360 C 0.22952 0.25194 0.80938 0.0
H361 H 0.07926 0.16227 0.74152 0.0
H362 H 0.12615 0.20962 0.76223 0.0
H363 H 0.14272 0.15628 0.80924 0.0
H364 H 0.34023 0.29234 0.84774 0.0
H365 H 0.283 0.24136 0.83023 0.0
C366 C 0.90157 0.03834 0.68631 0.0
C367 C 0.89992 0.00179 0.69019 0.0
C368 C 0.87114 0.03881 0.67563 0.0
C369 C 0.76335 0.97265 0.65674 0.0
H370 H 0.80468 0.0566 0.62378 0.0
C371 C 0.64602 0.98782 0.61277 0.0
C372 C 0.65891 0.99705 0.59638 0.0
C373 C 0.67525 0.98972 0.62459 0.0
C374 C 0.79269 0.03279 0.63283 0.0
H375 H 0.86433 0.93696 0.68612 0.0
H376 H 0.81182 0.93789 0.66744 0.0
H377 H 0.85533 0.05715 0.64398 0.0
H378 H 0.71261 0.0155 0.57952 0.0
H379 H 0.76371 0.01837 0.60015 0.0
H380 H 0.70107 0.94752 0.64532 0.0
C381 C 0.83623 0.96616 0.67278 0.0
C382 C 0.82158 0.03342 0.64456 0.0
C383 C 0.86655 0.96567 0.68345 0.0
C384 C 0.70185 0.00852 0.59208 0.0
C385 C 0.73112 0.01027 0.60391 0.0
C386 C 0.73451 0.97197 0.64502 0.0
C387 C 0.8384 0.00276 0.6686 0.0
C388 C 0.8073 0.00321 0.6566 0.0
C389 C 0.71811 1.00079 0.6203 0.0
C390 C 0.74884 0.00194 0.63288 0.0
H391 H 0.92677 0.0667 0.69131 0.0
H392 H 0.87333 0.06745 0.67284 0.0
H393 H 0.75116 0.94916 0.66594 0.0
H394 H 0.61341 0.97969 0.61654 0.0
H395 H 0.66438 0.98299 0.63714 0.0
C396 C 0.85713 0.89936 0.02338 0.0
C397 C 0.90088 0.90952 0.02193 0.0
C398 C 0.82551 0.87037 0.01306 0.0
C399 C 0.81139 0.82576 0.97274 0.0
H400 H 0.70831 0.73314 0.99028 0.0
C401 C 0.69801 0.69029 0.93219 0.0
C402 C 0.65321 0.66905 0.93562 0.0
C403 C 0.72717 0.72058 0.94268 0.0
C404 C 0.73644 0.75916 0.98511 0.0
H405 H 0.94578 0.89744 0.00848 0.0
H406 H 0.89071 0.84758 0.99028 0.0
H407 H 0.76044 0.78466 0.00878 0.0
H408 H 0.60419 0.66345 0.95295 0.0
H409 H 0.65454 0.71759 0.97067 0.0
H410 H 0.78736 0.80123 0.94909 0.0
C411 C 0.88092 0.86183 0.99947 0.0
C412 C 0.76636 0.78853 0.99575 0.0
C413 C 0.91234 0.89017 0.00996 0.0
C414 C 0.63833 0.67944 0.94972 0.0
C415 C 0.66741 0.71015 0.96008 0.0
C416 C 0.78118 0.7968 0.96208 0.0
C417 C 0.83728 0.85171 0.00091 0.0
C418 C 0.80433 0.82179 0.98966 0.0
C419 C 0.7123 0.73093 0.95679 0.0
C420 C 0.74353 0.76279 0.96812 0.0
H421 H 0.84733 0.91372 0.03251 0.0
H422 H 0.792 0.86306 0.01435 0.0
H423 H 0.84025 0.85145 0.96774 0.0
H424 H 0.71072 0.68364 0.92134 0.0
H425 H 0.76151 0.73541 0.93982 0.0
C426 C 0.94443 0.84475 0.34098 0.0
C427 C 0.9629 0.88598 0.33724 0.0
C428 C 0.94312 0.81753 0.32934 0.0
C429 C -0.00104 0.81331 0.29222 0.0
H430 H 0.90263 0.7031 0.29044 0.0
C431 C 0.99481 0.6928 0.24791 0.0
C432 C 0.98107 0.65451 0.25476 0.0
C433 C 0.99054 0.7221 0.25663 0.0
C434 C 0.92988 0.73372 0.29085 0.0
H435 H 0.99328 0.93079 0.31812 0.0
H436 H 0.99063 0.88299 0.29764 0.0
H437 H 0.89729 0.75245 0.30763 0.0
H438 H 0.95292 0.61752 0.27634 0.0
H439 H 0.94516 0.66836 0.29142 0.0
H440 H 0.03171 0.79429 0.27557 0.0
C441 C 0.97762 0.87188 0.3097 0.0
C442 C 0.92682 0.76202 0.3007 0.0
C443 C 0.97886 0.8992 0.32139 0.0
C444 C 0.96307 0.64634 0.27055 0.0
C445 C 0.95861 0.67551 0.27921 0.0
C446 C 0.00195 0.78498 0.28232 0.0
C447 C 0.96022 0.83079 0.31362 0.0
C448 C 0.96165 0.80197 0.30177 0.0
C449 C 0.97221 0.71371 0.27235 0.0
C450 C 0.96777 0.74467 0.28178 0.0
H451 H 0.93188 0.83351 0.35308 0.0
H452 H 0.93004 0.78627 0.33288 0.0
H453 H 0.02659 0.84368 0.29289 0.0
H454 H 0.00826 0.69994 0.2357 0.0
H455 H 0.00097 0.75113 0.25097 0.0
C456 C 0.13083 0.03308 0.68354 0.0
C457 C 0.09405 0.99682 0.68848 0.0
C458 C 0.16061 0.03261 0.67254 0.0
C459 C 0.16817 0.97154 0.63969 0.0
H460 H 0.29262 0.03882 0.64588 0.0
C461 C 0.29245 0.96078 0.59767 0.0
C462 C 0.33107 0.9967 0.59386 0.0
C463 C 0.26341 0.96074 0.60917 0.0
C464 C 0.25796 0.02028 0.64384 0.0
H465 H 0.06025 0.93155 0.68597 0.0
H466 H 0.11228 0.93083 0.66672 0.0
H467 H 0.24293 0.03856 0.66649 0.0
H468 H 0.36909 0.06087 0.59909 0.0
H469 H 0.31772 0.06106 0.6187 0.0
H470 H 0.18297 0.95373 0.61694 0.0
C471 C 0.11783 0.9596 0.67131 0.0
C472 C 0.22954 0.02002 0.65569 0.0
C473 C 0.08822 0.96003 0.68242 0.0
C474 C 0.33946 0.03273 0.60159 0.0
C475 C 0.31029 0.03272 0.61303 0.0
C476 C 0.19657 0.97201 0.62778 0.0
C477 C 0.15409 0.9959 0.66613 0.0
C478 C 0.18436 0.99563 0.65374 0.0
C479 C 0.27212 0.99665 0.61709 0.0
C480 C 0.24183 0.99638 0.6297 0.0
H481 H 0.13634 0.06195 0.68798 0.0
H482 H 0.1881 0.06108 0.66868 0.0
H483 H 0.13347 0.95292 0.63774 0.0
H484 H 0.28467 0.93257 0.5918 0.0
H485 H 0.23455 0.93232 0.6121 0.0
C486 C 0.08842 0.11919 0.0146 0.0
C487 C 0.09812 0.09234 0.02277 0.0
C488 C 0.11894 0.14901 0.00433 0.0
C489 C 0.23552 0.20838 0.99516 0.0
H490 H 0.19563 0.22393 0.95317 0.0
C491 C 0.33844 0.34708 0.95402 0.0
C492 C 0.33887 0.3399 0.93721 0.0
C493 C 0.31026 0.31606 0.96447 0.0
C494 C 0.20734 0.21976 0.96479 0.0
H495 H 0.14802 0.07641 0.02678 0.0
H496 H 0.20158 0.1289 0.00882 0.0
H497 H 0.14452 0.17118 0.9715 0.0
H498 H 0.30997 0.29469 0.91816 0.0
H499 H 0.26069 0.24045 0.93644 0.0
H500 H 0.29839 0.25707 0.98842 0.0
C501 C 0.17021 0.1267 0.01044 0.0
C502 C 0.178 0.18984 0.97535 0.0
C503 C 0.13949 0.09658 0.02066 0.0
C504 C 0.31052 0.30105 0.93107 0.0
C505 C 0.28211 0.27011 0.94151 0.0
C506 C 0.26484 0.23857 0.98463 0.0
C507 C 0.16002 0.15291 0.00202 0.0
C508 C 0.1917 0.18396 0.99068 0.0
C509 C 0.2817 0.27729 0.95832 0.0
C510 C 0.25099 0.24466 0.96936 0.0
H511 H 0.05695 0.11691 0.01596 0.0
H512 H 0.11039 0.16916 0.9982 0.0
H513 H 0.24693 0.20466 0.00693 0.0
H514 H 0.36026 0.37659 0.95913 0.0
H515 H 0.31038 0.32259 0.97734 0.0
C516 C 0.04718 0.1589 0.34389 0.0
C517 C 0.03749 0.12016 0.33885 0.0
C518 C 0.04783 0.18663 0.33268 0.0
C519 C 0.00679 0.19243 0.29177 0.0
H520 H 0.08351 0.30739 0.29846 0.0
C521 C 0.01717 0.31726 0.24816 0.0
C522 C 0.01377 0.34827 0.25599 0.0
C523 C 0.02196 0.28884 0.25731 0.0
C524 C 0.06185 0.27536 0.29647 0.0
H525 H 0.0222 0.08055 0.31795 0.0
H526 H 0.02467 0.12955 0.29818 0.0
H527 H 0.09098 0.25925 0.31564 0.0
H528 H 0.01312 0.37419 0.27942 0.0
H529 H 0.02223 0.32493 0.29541 0.0
H530 H 0.97823 0.20903 0.27238 0.0
C531 C 0.03075 0.13815 0.31092 0.0
C532 C 0.06595 0.24771 0.30635 0.0
C533 C 0.02967 0.11014 0.32222 0.0
C534 C 0.0154 0.35044 0.2731 0.0
C535 C 0.02093 0.32248 0.28222 0.0
C536 C 0.00315 0.22018 0.28172 0.0
C537 C 0.03935 0.17663 0.31605 0.0
C538 C 0.03785 0.20585 0.30439 0.0
C539 C 0.02425 0.29142 0.27442 0.0
C540 C 0.03008 0.26189 0.2842 0.0
H541 H 0.05305 0.16756 0.35663 0.0
H542 H 0.05369 0.21553 0.33722 0.0
H543 H 0.9842 0.16054 0.28999 0.0
H544 H 0.01577 0.31483 0.23497 0.0
H545 H 0.02456 0.26524 0.25101 0.0
loop_
_geom_bond_atom_site_label_1
_geom_bond_atom_site_label_2
_geom_bond_distance
_geom_bond_site_symmetry_2
_ccdc_geom_bond_type
O0 Cd1 2.223 1_455 S
O0 C8 1.315 . S
Cd1 O0 2.223 1_655 S
Cd1 O4 2.297 . S
Cd1 O5 2.439 . S
Cd1 O11 2.240 1_545 S
Cd2 O3 2.240 1_565 S
Cd2 O10 2.223 1_455 S
Cd2 O12 2.297 . S
Cd2 O13 2.439 . S
O3 Cd2 2.240 1_545 S
O3 C8 1.279 . S
O4 Cd1 2.297 . S
O4 C6 1.247 . S
O5 Cd1 2.439 . S
O5 C6 1.208 . S
C6 O4 1.247 . S
C6 O5 1.208 . S
C7 O12 1.247 . S
C7 O13 1.208 . S
C8 O0 1.315 . S
C8 O3 1.279 . S
C9 O10 1.315 . S
C9 O11 1.279 . S
O10 Cd2 2.223 1_655 S
O10 C9 1.315 . S
O11 Cd1 2.240 1_565 S
O11 C9 1.279 . S
O12 Cd2 2.297 . S
O12 C7 1.247 . S
O13 Cd2 2.439 . S
O13 C7 1.208 . S
O14 Cd15 2.223 1_655 S
O14 C22 1.315 . S
Cd15 O14 2.223 1_455 S
Cd15 O18 2.297 . S
Cd15 O19 2.439 . S
Cd15 O25 2.240 . S
Cd16 O17 2.240 . S
Cd16 O24 2.223 1_655 S
Cd16 O26 2.297 . S
Cd16 O27 2.451 . S
O17 Cd16 2.240 . S
O17 C22 1.279 1_565 S
O18 Cd15 2.297 . S
O18 C20 1.247 . S
O19 Cd15 2.439 . S
O19 C20 1.208 . S
C20 O18 1.247 . S
C20 O19 1.208 . S
C21 O26 1.247 . S
C21 O27 1.195 . S
C22 O14 1.315 . S
C22 O17 1.279 1_545 S
C23 O24 1.315 . S
C23 O25 1.279 1_565 S
O24 Cd16 2.223 1_455 S
O24 C23 1.315 . S
O25 Cd15 2.240 . S
O25 C23 1.279 1_545 S
O26 Cd16 2.297 . S
O26 C21 1.247 . S
O27 Cd16 2.451 . S
O27 C21 1.195 . S
O28 Cd29 2.223 . S
O28 C36 1.315 . S
Cd29 O28 2.223 . S
Cd29 O32 2.297 . S
Cd29 O33 2.439 . S
Cd29 O39 2.240 1_655 S
Cd30 O31 2.240 1_455 S
Cd30 O38 2.223 . S
Cd30 O40 2.297 . S
Cd30 O41 2.439 . S
O31 Cd30 2.240 1_655 S
O31 C36 1.279 1_545 S
O32 Cd29 2.297 . S
O32 C34 1.247 . S
O33 Cd29 2.439 . S
O33 C34 1.208 . S
C34 O32 1.247 . S
C34 O33 1.208 . S
C35 O40 1.247 . S
C35 O41 1.208 . S
C36 O28 1.315 . S
C36 O31 1.279 1_565 S
C37 O38 1.315 . S
C37 O39 1.279 1_545 S
O38 Cd30 2.223 . S
O38 C37 1.315 . S
O39 Cd29 2.240 1_455 S
O39 C37 1.279 1_565 S
O40 Cd30 2.297 . S
O40 C35 1.247 . S
O41 Cd30 2.439 . S
O41 C35 1.208 . S
H42 C61 0.949 . S
H43 C62 0.950 . S
H44 C64 0.950 . S
H45 C65 0.950 . S
H46 C67 0.950 . S
H47 C70 0.950 . S
H48 C71 0.950 . S
H49 C73 0.951 . S
H50 C74 0.949 . S
H51 C76 0.949 . S
H52 C77 0.950 . S
H53 C79 0.950 . S
H54 C80 0.950 . S
H55 C82 0.950 . S
H56 C85 0.950 . S
H57 C86 0.950 . S
H58 C88 0.951 . S
H59 C89 0.949 . S
C60 C61 1.376 . S
C60 C65 1.386 1_455 S
C60 C66 1.483 . S
C61 H42 0.949 . S
C61 C60 1.376 . S
C61 C62 1.397 . S
C62 H43 0.950 . S
C62 C61 1.397 . S
C62 C63 1.391 . S
C63 C62 1.391 . S
C63 C64 1.405 1_455 S
C64 H44 0.950 . S
C64 C63 1.405 1_655 S
C64 C65 1.367 . S
C65 H45 0.950 . S
C65 C60 1.386 1_655 S
C65 C64 1.367 . S
C66 C60 1.483 . S
C66 C67 1.382 . S
C66 C68 1.403 1_455 S
C67 H46 0.950 . S
C67 C66 1.382 . S
C67 C83 1.411 . S
C68 C66 1.403 1_655 S
C68 C69 1.489 . S
C68 C82 1.411 . S
C69 C68 1.489 . S
C69 C70 1.383 1_655 S
C69 C74 1.382 . S
C70 H47 0.950 . S
C70 C69 1.383 1_455 S
C70 C71 1.395 . S
C71 H48 0.950 . S
C71 C70 1.395 . S
C71 C72 1.288 1_455 S
C72 C71 1.288 1_655 S
C72 C73 1.392 . S
C73 H49 0.951 . S
C73 C72 1.392 . S
C73 C74 1.392 . S
C74 H50 0.949 . S
C74 C69 1.382 . S
C74 C73 1.392 . S
C75 C76 1.376 . S
C75 C80 1.386 1_655 S
C75 C81 1.483 . S
C76 H51 0.949 . S
C76 C75 1.376 . S
C76 C77 1.397 . S
C77 H52 0.950 . S
C77 C76 1.397 . S
C77 C78 1.391 . S
C78 C77 1.391 . S
C78 C79 1.405 1_655 S
C79 H53 0.950 . S
C79 C78 1.405 1_455 S
C79 C80 1.367 . S
C80 H54 0.950 . S
C80 C75 1.386 1_455 S
C80 C79 1.367 . S
C81 C75 1.483 . S
C81 C82 1.382 . S
C81 C83 1.403 1_655 S
C82 H55 0.950 . S
C82 C68 1.411 . S
C82 C81 1.382 . S
C83 C67 1.411 . S
C83 C81 1.403 1_455 S
C83 C84 1.489 . S
C84 C83 1.489 . S
C84 C85 1.383 1_455 S
C84 C89 1.382 . S
C85 H56 0.950 . S
C85 C84 1.383 1_655 S
C85 C86 1.395 . S
C86 H57 0.950 . S
C86 C85 1.395 . S
C86 C87 1.288 1_655 S
C87 C86 1.288 1_455 S
C87 C88 1.392 . S
C88 H58 0.951 . S
C88 C87 1.392 . S
C88 C89 1.392 . S
C89 H59 0.949 . S
C89 C84 1.382 . S
C89 C88 1.392 . S
H90 C109 0.949 . S
H91 C110 0.950 . S
H92 C112 0.950 . S
H93 C113 0.950 . S
H94 C115 0.950 . S
H95 C118 0.950 . S
H96 C119 0.950 . S
H97 C121 0.951 . S
H98 C122 0.949 . S
H99 C124 0.949 . S
H100 C125 0.950 . S
H101 C127 0.950 . S
H102 C128 0.950 . S
H103 C130 0.950 . S
H104 C133 0.950 . S
H105 C134 0.950 . S
H106 C136 0.951 . S
H107 C137 0.949 . S
C108 C109 1.376 . S
C108 C113 1.386 1_545 S
C108 C114 1.483 . S
C109 H90 0.949 . S
C109 C108 1.376 . S
C109 C110 1.397 . S
C110 H91 0.950 . S
C110 C109 1.397 . S
C110 C111 1.391 . S
C111 C110 1.391 . S
C111 C112 1.405 1_545 S
C112 H92 0.950 . S
C112 C111 1.405 1_565 S
C112 C113 1.367 . S
C113 H93 0.950 . S
C113 C108 1.386 1_565 S
C113 C112 1.367 . S
C114 C108 1.483 . S
C114 C115 1.382 . S
C114 C116 1.403 1_545 S
C115 H94 0.950 . S
C115 C114 1.382 . S
C115 C131 1.411 . S
C116 C114 1.403 1_565 S
C116 C117 1.489 . S
C116 C130 1.411 . S
C117 C116 1.489 . S
C117 C118 1.383 1_565 S
C117 C122 1.382 . S
C118 H95 0.950 . S
C118 C117 1.383 1_545 S
C118 C119 1.395 . S
C119 H96 0.950 . S
C119 C118 1.395 . S
C119 C120 1.288 1_545 S
C120 C119 1.288 1_565 S
C120 C121 1.392 . S
C121 H97 0.951 . S
C121 C120 1.392 . S
C121 C122 1.392 . S
C122 H98 0.949 . S
C122 C117 1.382 . S
C122 C121 1.392 . S
C123 C124 1.376 . S
C123 C128 1.386 1_565 S
C123 C129 1.483 . S
C124 H99 0.949 . S
C124 C123 1.376 . S
C124 C125 1.397 . S
C125 H100 0.950 . S
C125 C124 1.397 . S
C125 C126 1.422 . S
C126 C125 1.422 . S
C126 C127 1.388 1_565 S
C127 H101 0.950 . S
C127 C126 1.388 1_545 S
C127 C128 1.367 . S
C128 H102 0.950 . S
C128 C123 1.386 1_545 S
C128 C127 1.367 . S
C129 C123 1.483 . S
C129 C130 1.382 . S
C129 C131 1.403 1_565 S
C130 H103 0.950 . S
C130 C116 1.411 . S
C130 C129 1.382 . S
C131 C115 1.411 . S
C131 C129 1.403 1_545 S
C131 C132 1.489 . S
C132 C131 1.489 . S
C132 C133 1.383 1_545 S
C132 C137 1.382 . S
C133 H104 0.950 . S
C133 C132 1.383 1_565 S
C133 C134 1.395 . S
C134 H105 0.950 . S
C134 C133 1.395 . S
C134 C135 1.288 1_565 S
C135 C134 1.288 1_545 S
C135 C136 1.392 . S
C136 H106 0.951 . S
C136 C135 1.392 . S
C136 C137 1.392 . S
C137 H107 0.949 . S
C137 C132 1.382 . S
C137 C136 1.392 . S
H138 C157 0.949 . S
H139 C158 0.950 . S
H140 C160 0.950 . S
H141 C161 0.950 . S
H142 C163 0.950 . S
H143 C166 0.950 . S
H144 C167 0.950 . S
H145 C169 0.951 . S
H146 C170 0.949 . S
H147 C172 0.949 . S
H148 C173 0.950 . S
H149 C175 0.950 . S
H150 C176 0.950 . S
H151 C178 0.950 . S
H152 C181 0.950 . S
H153 C182 0.950 . S
H154 C184 0.951 . S
H155 C185 0.949 . S
C156 C157 1.376 . S
C156 C161 1.386 . S
C156 C162 1.483 . S
C157 H138 0.949 . S
C157 C156 1.376 . S
C157 C158 1.397 . S
C158 H139 0.950 . S
C158 C157 1.397 . S
C158 C159 1.391 . S
C159 C158 1.391 . S
C159 C160 1.405 . S
C160 H140 0.950 . S
C160 C159 1.405 . S
C160 C161 1.367 . S
C161 H141 0.950 . S
C161 C156 1.386 . S
C161 C160 1.367 . S
C162 C156 1.483 . S
C162 C163 1.382 . S
C162 C164 1.403 . S
C163 H142 0.950 . S
C163 C162 1.382 . S
C163 C179 1.411 . S
C164 C162 1.403 . S
C164 C165 1.489 . S
C164 C178 1.411 . S
C165 C164 1.489 . S
C165 C166 1.383 . S
C165 C170 1.382 . S
C166 H143 0.950 . S
C166 C165 1.383 . S
C166 C167 1.395 . S
C167 H144 0.950 . S
C167 C166 1.395 . S
C167 C168 1.288 . S
C168 C167 1.288 . S
C168 C169 1.392 . S
C169 H145 0.951 . S
C169 C168 1.392 . S
C169 C170 1.392 . S
C170 H146 0.949 . S
C170 C165 1.382 . S
C170 C169 1.392 . S
C171 C172 1.376 . S
C171 C176 1.386 . S
C171 C177 1.483 . S
C172 H147 0.949 . S
C172 C171 1.376 . S
C172 C173 1.397 . S
C173 H148 0.950 . S
C173 C172 1.397 . S
C173 C174 1.391 . S
C174 C173 1.391 . S
C174 C175 1.405 . S
C175 H149 0.950 . S
C175 C174 1.405 . S
C175 C176 1.367 . S
C176 H150 0.950 . S
C176 C171 1.386 . S
C176 C175 1.367 . S
C177 C171 1.483 . S
C177 C178 1.382 . S
C177 C179 1.403 . S
C178 H151 0.950 . S
C178 C164 1.411 . S
C178 C177 1.382 . S
C179 C163 1.411 . S
C179 C177 1.403 . S
C179 C180 1.489 . S
C180 C179 1.489 . S
C180 C181 1.383 . S
C180 C185 1.382 . S
C181 H152 0.950 . S
C181 C180 1.383 . S
C181 C182 1.395 . S
C182 H153 0.950 . S
C182 C181 1.395 . S
C182 C183 1.288 . S
C183 C182 1.288 . S
C183 C184 1.392 . S
C184 H154 0.951 . S
C184 C183 1.392 . S
C184 C185 1.392 . S
C185 H155 0.949 . S
C185 C180 1.382 . S
C185 C184 1.392 . S
C186 C187 1.349 1_655 S
C186 C188 1.327 . S
C186 H211 0.950 . S
C187 C186 1.349 1_455 S
C187 C203 1.349 . S
C188 C186 1.327 . S
C188 C207 1.422 1_655 S
C188 H212 0.950 . S
C189 C206 1.574 . S
C189 C208 1.377 . S
C189 H213 0.949 . S
H190 C194 0.949 . S
C191 C192 1.353 . S
C191 C193 1.327 . S
C191 H214 0.950 . S
C192 C191 1.353 . S
C192 C204 1.347 1_455 S
C193 C191 1.327 . S
C193 C209 1.432 . S
C193 H215 0.950 . S
C194 H190 0.949 . S
C194 C202 1.574 . S
C194 C210 1.362 1_655 S
H195 C203 0.950 . S
H196 C201 0.950 . S
H197 C202 0.949 . S
H198 C204 0.950 . S
H199 C205 0.950 . S
H200 C206 0.949 . S
C201 H196 0.950 . S
C201 C203 1.327 . S
C201 C207 1.450 . S
C202 C194 1.574 . S
C202 H197 0.949 . S
C202 C208 1.351 1_655 S
C203 C187 1.349 . S
C203 H195 0.950 . S
C203 C201 1.327 . S
C204 C192 1.347 1_655 S
C204 H198 0.950 . S
C204 C205 1.327 . S
C205 H199 0.950 . S
C205 C204 1.327 . S
C205 C209 1.419 1_655 S
C206 C189 1.574 . S
C206 H200 0.949 . S
C206 C210 1.381 . S
C207 C188 1.422 1_455 S
C207 C201 1.450 . S
C207 C208 1.521 . S
C208 C189 1.377 . S
C208 C202 1.351 1_455 S
C208 C207 1.521 . S
C209 C193 1.432 . S
C209 C205 1.419 1_455 S
C209 C210 1.521 . S
C210 C194 1.362 1_455 S
C210 C206 1.381 . S
C210 C209 1.521 . S
H211 C186 0.950 . S
H212 C188 0.950 . S
H213 C189 0.949 . S
H214 C191 0.950 . S
H215 C193 0.950 . S
C216 C217 1.349 . S
C216 C218 1.327 . S
C216 H241 0.950 . S
C217 C216 1.349 . S
C217 C233 1.349 1_545 S
C218 C216 1.327 . S
C218 C237 1.429 . S
C218 H242 0.950 . S
C219 C236 1.574 . S
C219 C238 1.368 1_565 S
C219 H243 0.949 . S
H220 C224 0.949 . S
C221 C222 1.332 1_565 S
C221 C223 1.327 . S
C221 H244 0.950 . S
C222 C221 1.332 1_545 S
C222 C234 1.359 . S
C223 C221 1.327 . S
C223 C239 1.429 1_565 S
C223 H245 0.950 . S
C224 H220 0.949 . S
C224 C232 1.574 . S
C224 C240 1.368 . S
H225 C233 0.950 . S
H226 C231 0.950 . S
H227 C232 0.949 . S
H228 C234 0.950 . S
H229 C235 0.950 . S
H230 C236 0.949 . S
C231 H226 0.950 . S
C231 C233 1.327 . S
C231 C237 1.429 1_565 S
C232 C224 1.574 . S
C232 H227 0.949 . S
C232 C238 1.368 . S
C233 C217 1.349 1_565 S
C233 H225 0.950 . S
C233 C231 1.327 . S
C234 C222 1.359 . S
C234 H228 0.950 . S
C234 C235 1.327 . S
C235 H229 0.950 . S
C235 C234 1.327 . S
C235 C239 1.429 . S
C236 C219 1.574 . S
C236 H230 0.949 . S
C236 C240 1.368 1_565 S
C237 C218 1.429 . S
C237 C231 1.429 1_545 S
C237 C238 1.523 . S
C238 C219 1.368 1_545 S
C238 C232 1.368 . S
C238 C237 1.523 . S
C239 C223 1.429 1_545 S
C239 C235 1.429 . S
C239 C240 1.523 . S
C240 C224 1.368 . S
C240 C236 1.368 1_545 S
C240 C239 1.523 . S
H241 C216 0.950 . S
H242 C218 0.950 . S
H243 C219 0.949 . S
H244 C221 0.950 . S
H245 C223 0.950 . S
C246 C247 1.349 . S
C246 C248 1.327 . S
C246 H271 0.950 . S
C247 C246 1.349 . S
C247 C263 1.349 . S
C248 C246 1.327 . S
C248 C267 1.429 . S
C248 H272 0.950 . S
C249 C266 1.574 . S
C249 C268 1.368 . S
C249 H273 0.949 . S
H250 C254 0.949 . S
C251 C252 1.349 . S
C251 C253 1.327 . S
C251 H274 0.950 . S
C252 C251 1.349 . S
C252 C264 1.349 . S
C253 C251 1.327 . S
C253 C269 1.429 . S
C253 H275 0.950 . S
C254 H250 0.949 . S
C254 C262 1.574 . S
C254 C270 1.368 . S
H255 C263 0.950 . S
H256 C261 0.950 . S
H257 C262 0.949 . S
H258 C264 0.950 . S
H259 C265 0.950 . S
H260 C266 0.949 . S
C261 H256 0.950 . S
C261 C263 1.327 . S
C261 C267 1.429 . S
C262 C254 1.574 . S
C262 H257 0.949 . S
C262 C268 1.368 . S
C263 C247 1.349 . S
C263 H255 0.950 . S
C263 C261 1.327 . S
C264 C252 1.349 . S
C264 H258 0.950 . S
C264 C265 1.327 . S
C265 H259 0.950 . S
C265 C264 1.327 . S
C265 C269 1.429 . S
C266 C249 1.574 . S
C266 H260 0.949 . S
C266 C270 1.368 . S
C267 C248 1.429 . S
C267 C261 1.429 . S
C267 C268 1.523 . S
C268 C249 1.368 . S
C268 C262 1.368 . S
C268 C267 1.523 . S
C269 C253 1.429 . S
C269 C265 1.429 . S
C269 C270 1.523 . S
C270 C254 1.368 . S
C270 C266 1.368 . S
C270 C269 1.523 . S
H271 C246 0.950 . S
H272 C248 0.950 . S
H273 C249 0.949 . S
H274 C251 0.950 . S
H275 C253 0.950 . S
C276 C277 1.357 . S
C276 C278 1.327 . S
C276 H301 0.950 . S
C277 C276 1.357 . S
C277 C293 1.334 1_655 S
C278 C276 1.327 . S
C278 C297 1.438 . S
C278 H302 0.950 . S
C279 C296 1.574 . S
C279 C298 1.362 1_455 S
C279 H303 0.949 . S
H280 C284 0.949 . S
C281 C282 1.350 . S
C281 C283 1.327 . S
C281 H304 0.950 . S
C282 C281 1.350 . S
C282 C294 1.347 1_455 S
C283 C281 1.327 . S
C283 C299 1.431 1_455 S
C283 H305 0.950 . S
C284 H280 0.949 . S
C284 C292 1.574 . S
C284 C300 1.369 . S
H285 C293 0.950 . S
H286 C291 0.950 . S
H287 C292 0.949 . S
H288 C294 0.950 . S
H289 C295 0.950 . S
H290 C296 0.949 . S
C291 H286 0.950 . S
C291 C293 1.327 . S
C291 C297 1.424 1_455 S
C292 C284 1.574 . S
C292 H287 0.949 . S
C292 C298 1.372 . S
C293 C277 1.334 1_455 S
C293 H285 0.950 . S
C293 C291 1.327 . S
C294 C282 1.347 1_655 S
C294 H288 0.950 . S
C294 C295 1.327 . S
C295 H289 0.950 . S
C295 C294 1.327 . S
C295 C299 1.427 . S
C296 C279 1.574 . S
C296 H290 0.949 . S
C296 C300 1.368 1_455 S
C297 C278 1.438 . S
C297 C291 1.424 1_655 S
C297 C298 1.521 . S
C298 C279 1.362 1_655 S
C298 C292 1.372 . S
C298 C297 1.521 . S
C299 C283 1.431 1_655 S
C299 C295 1.427 . S
C299 C300 1.521 . S
C300 C284 1.369 . S
C300 C296 1.368 1_655 S
C300 C299 1.521 . S
H301 C276 0.950 . S
H302 C278 0.950 . S
H303 C279 0.949 . S
H304 C281 0.950 . S
H305 C283 0.950 . S
C306 C307 1.349 . S
C306 C308 1.327 . S
C306 H331 0.950 . S
C307 C306 1.349 . S
C307 C323 1.349 1_565 S
C308 C306 1.327 . S
C308 C327 1.429 . S
C308 H332 0.950 . S
C309 C326 1.574 . S
C309 C328 1.368 1_545 S
C309 H333 0.949 . S
H310 C314 0.949 . S
C311 C312 1.350 . S
C311 C313 1.327 . S
C311 H334 0.950 . S
C312 C311 1.350 . S
C312 C324 1.348 1_545 S
C313 C311 1.327 . S
C313 C329 1.419 1_545 S
C313 H335 0.950 . S
C314 H310 0.949 . S
C314 C322 1.574 . S
C314 C330 1.390 . S
H315 C323 0.950 . S
H316 C321 0.950 . S
H317 C322 0.949 . S
H318 C324 0.950 . S
H319 C325 0.950 . S
H320 C326 0.949 . S
C321 H316 0.950 . S
C321 C323 1.327 . S
C321 C327 1.429 1_545 S
C322 C314 1.574 . S
C322 H317 0.949 . S
C322 C328 1.368 . S
C323 C307 1.349 1_545 S
C323 H315 0.950 . S
C323 C321 1.327 . S
C324 C312 1.348 1_565 S
C324 H318 0.950 . S
C324 C325 1.327 . S
C325 H319 0.950 . S
C325 C324 1.327 . S
C325 C329 1.445 . S
C326 C309 1.574 . S
C326 H320 0.949 . S
C326 C330 1.338 1_545 S
C327 C308 1.429 . S
C327 C321 1.429 1_565 S
C327 C328 1.523 . S
C328 C309 1.368 1_565 S
C328 C322 1.368 . S
C328 C327 1.523 . S
C329 C313 1.419 1_565 S
C329 C325 1.445 . S
C329 C330 1.529 . S
C330 C314 1.390 . S
C330 C326 1.338 1_565 S
C330 C329 1.529 . S
H331 C306 0.950 . S
H332 C308 0.950 . S
H333 C309 0.949 . S
H334 C311 0.950 . S
H335 C313 0.950 . S
C336 C337 1.349 . S
C336 C338 1.327 . S
C336 H361 0.950 . S
C337 C336 1.349 . S
C337 C353 1.349 . S
C338 C336 1.327 . S
C338 C357 1.429 . S
C338 H362 0.950 . S
C339 C356 1.574 . S
C339 C358 1.368 . S
C339 H363 0.949 . S
H340 C344 0.949 . S
C341 C342 1.349 . S
C341 C343 1.327 . S
C341 H364 0.950 . S
C342 C341 1.349 . S
C342 C354 1.349 . S
C343 C341 1.327 . S
C343 C359 1.429 . S
C343 H365 0.950 . S
C344 H340 0.949 . S
C344 C352 1.574 . S
C344 C360 1.368 . S
H345 C353 0.950 . S
H346 C351 0.950 . S
H347 C352 0.949 . S
H348 C354 0.950 . S
H349 C355 0.950 . S
H350 C356 0.949 . S
C351 H346 0.950 . S
C351 C353 1.327 . S
C351 C357 1.429 . S
C352 C344 1.574 . S
C352 H347 0.949 . S
C352 C358 1.368 . S
C353 C337 1.349 . S
C353 H345 0.950 . S
C353 C351 1.327 . S
C354 C342 1.349 . S
C354 H348 0.950 . S
C354 C355 1.327 . S
C355 H349 0.950 . S
C355 C354 1.327 . S
C355 C359 1.429 . S
C356 C339 1.574 . S
C356 H350 0.949 . S
C356 C360 1.368 . S
C357 C338 1.429 . S
C357 C351 1.429 . S
C357 C358 1.523 . S
C358 C339 1.368 . S
C358 C352 1.368 . S
C358 C357 1.523 . S
C359 C343 1.429 . S
C359 C355 1.429 . S
C359 C360 1.523 . S
C360 C344 1.368 . S
C360 C356 1.368 . S
C360 C359 1.523 . S
H361 C336 0.950 . S
H362 C338 0.950 . S
H363 C339 0.949 . S
H364 C341 0.950 . S
H365 C343 0.950 . S
C366 C367 1.349 1_545 S
C366 C368 1.327 . S
C366 H391 0.950 . S
C367 C366 1.349 1_565 S
C367 C383 1.349 . S
C368 C366 1.327 . S
C368 C387 1.429 1_545 S
C368 H392 0.950 . S
C369 C386 1.574 . S
C369 C388 1.368 . S
C369 H393 0.949 . S
H370 C374 0.949 . S
C371 C372 1.351 1_565 S
C371 C373 1.327 . S
C371 H394 0.950 . S
C372 C371 1.351 1_545 S
C372 C384 1.348 . S
C373 C371 1.327 . S
C373 C389 1.429 . S
C373 H395 0.950 . S
C374 H370 0.949 . S
C374 C382 1.574 . S
C374 C390 1.368 1_545 S
H375 C383 0.950 . S
H376 C381 0.950 . S
H377 C382 0.949 . S
H378 C384 0.950 . S
H379 C385 0.950 . S
H380 C386 0.949 . S
C381 H376 0.950 . S
C381 C383 1.327 . S
C381 C387 1.429 . S
C382 C374 1.574 . S
C382 H377 0.949 . S
C382 C388 1.368 1_545 S
C383 C367 1.349 . S
C383 H375 0.950 . S
C383 C381 1.327 . S
C384 C372 1.348 . S
C384 H378 0.950 . S
C384 C385 1.327 . S
C385 H379 0.950 . S
C385 C384 1.327 . S
C385 C389 1.429 1_545 S
C386 C369 1.574 . S
C386 H380 0.949 . S
C386 C390 1.368 . S
C387 C368 1.429 1_565 S
C387 C381 1.429 . S
C387 C388 1.523 . S
C388 C369 1.368 . S
C388 C382 1.368 1_565 S
C388 C387 1.523 . S
C389 C373 1.429 . S
C389 C385 1.429 1_565 S
C389 C390 1.523 . S
C390 C374 1.368 1_565 S
C390 C386 1.368 . S
C390 C389 1.523 . S
H391 C366 0.950 . S
H392 C368 0.950 . S
H393 C369 0.949 . S
H394 C371 0.950 . S
H395 C373 0.950 . S
C396 C397 1.349 . S
C396 C398 1.327 . S
C396 H421 0.950 . S
C397 C396 1.349 . S
C397 C413 1.349 1_554 S
C398 C396 1.327 . S
C398 C417 1.429 1_554 S
C398 H422 0.950 . S
C399 C416 1.574 . S
C399 C418 1.368 . S
C399 H423 0.949 . S
H400 C404 0.949 . S
C401 C402 1.349 . S
C401 C403 1.327 . S
C401 H424 0.950 . S
C402 C401 1.349 . S
C402 C414 1.349 . S
C403 C401 1.327 . S
C403 C419 1.429 . S
C403 H425 0.950 . S
C404 H400 0.949 . S
C404 C412 1.574 . S
C404 C420 1.368 . S
H405 C413 0.950 . S
H406 C411 0.950 . S
H407 C412 0.949 1_554 S
H408 C414 0.950 . S
H409 C415 0.950 . S
H410 C416 0.949 . S
C411 H406 0.950 . S
C411 C413 1.327 . S
C411 C417 1.429 . S
C412 C404 1.574 . S
C412 H407 0.949 1_556 S
C412 C418 1.368 . S
C413 C397 1.349 1_556 S
C413 H405 0.950 . S
C413 C411 1.327 . S
C414 C402 1.349 . S
C414 H408 0.950 . S
C414 C415 1.327 . S
C415 H409 0.950 . S
C415 C414 1.327 . S
C415 C419 1.429 . S
C416 C399 1.574 . S
C416 H410 0.949 . S
C416 C420 1.368 . S
C417 C398 1.429 1_556 S
C417 C411 1.429 . S
C417 C418 1.523 . S
C418 C399 1.368 . S
C418 C412 1.368 . S
C418 C417 1.523 . S
C419 C403 1.429 . S
C419 C415 1.429 . S
C419 C420 1.523 . S
C420 C404 1.368 . S
C420 C416 1.368 . S
C420 C419 1.523 . S
H421 C396 0.950 . S
H422 C398 0.950 . S
H423 C399 0.949 . S
H424 C401 0.950 . S
H425 C403 0.950 . S
C426 C427 1.349 1_655 S
C426 C428 1.327 . S
C426 H451 0.950 . S
C427 C426 1.349 1_455 S
C427 C443 1.349 . S
C428 C426 1.327 . S
C428 C447 1.429 1_655 S
C428 H452 0.950 . S
C429 C446 1.574 . S
C429 C448 1.368 . S
C429 H453 0.949 . S
H430 C434 0.949 . S
C431 C432 1.351 . S
C431 C433 1.327 . S
C431 H454 0.950 . S
C432 C431 1.351 . S
C432 C444 1.342 1_455 S
C433 C431 1.327 . S
C433 C449 1.429 . S
C433 H455 0.950 . S
C434 H430 0.949 . S
C434 C442 1.574 . S
C434 C450 1.368 1_655 S
H435 C443 0.950 . S
H436 C441 0.950 . S
H437 C442 0.949 . S
H438 C444 0.950 . S
H439 C445 0.950 . S
H440 C446 0.949 . S
C441 H436 0.950 . S
C441 C443 1.327 . S
C441 C447 1.429 . S
C442 C434 1.574 . S
C442 H437 0.949 . S
C442 C448 1.368 1_655 S
C443 C427 1.349 . S
C443 H435 0.950 . S
C443 C441 1.327 . S
C444 C432 1.342 1_655 S
C444 H438 0.950 . S
C444 C445 1.327 . S
C445 H439 0.950 . S
C445 C444 1.327 . S
C445 C449 1.429 1_655 S
C446 C429 1.574 . S
C446 H440 0.949 . S
C446 C450 1.368 . S
C447 C428 1.429 1_455 S
C447 C441 1.429 . S
C447 C448 1.523 . S
C448 C429 1.368 . S
C448 C442 1.368 1_455 S
C448 C447 1.523 . S
C449 C433 1.429 . S
C449 C445 1.429 1_455 S
C449 C450 1.523 . S
C450 C434 1.368 1_455 S
C450 C446 1.368 . S
C450 C449 1.523 . S
H451 C426 0.950 . S
H452 C428 0.950 . S
H453 C429 0.949 . S
H454 C431 0.950 . S
H455 C433 0.950 . S
C456 C457 1.349 . S
C456 C458 1.327 . S
C456 H481 0.950 . S
C457 C456 1.349 . S
C457 C473 1.349 1_545 S
C458 C456 1.327 . S
C458 C477 1.429 . S
C458 H482 0.950 . S
C459 C476 1.574 . S
C459 C478 1.368 1_565 S
C459 H483 0.949 . S
H460 C464 0.949 . S
C461 C462 1.339 1_565 S
C461 C463 1.327 . S
C461 H484 0.950 . S
C462 C461 1.339 1_545 S
C462 C474 1.369 . S
C463 C461 1.327 . S
C463 C479 1.429 1_565 S
C463 H485 0.950 . S
C464 H460 0.949 . S
C464 C472 1.574 . S
C464 C480 1.368 . S
H465 C473 0.950 . S
H466 C471 0.950 . S
H467 C472 0.949 . S
H468 C474 0.950 . S
H469 C475 0.950 . S
H470 C476 0.949 . S
C471 H466 0.950 . S
C471 C473 1.327 . S
C471 C477 1.429 1_565 S
C472 C464 1.574 . S
C472 H467 0.949 . S
C472 C478 1.368 . S
C473 C457 1.349 1_565 S
C473 H465 0.950 . S
C473 C471 1.327 . S
C474 C462 1.369 . S
C474 H468 0.950 . S
C474 C475 1.327 . S
C475 H469 0.950 . S
C475 C474 1.327 . S
C475 C479 1.429 . S
C476 C459 1.574 . S
C476 H470 0.949 . S
C476 C480 1.368 1_565 S
C477 C458 1.429 . S
C477 C471 1.429 1_545 S
C477 C478 1.523 . S
C478 C459 1.368 1_545 S
C478 C472 1.368 . S
C478 C477 1.523 . S
C479 C463 1.429 1_545 S
C479 C475 1.429 . S
C479 C480 1.523 . S
C480 C464 1.368 . S
C480 C476 1.368 1_545 S
C480 C479 1.523 . S
H481 C456 0.950 . S
H482 C458 0.950 . S
H483 C459 0.949 . S
H484 C461 0.950 . S
H485 C463 0.950 . S
C486 C487 1.349 1_556 S
C486 C488 1.327 . S
C486 H511 0.950 . S
C487 C486 1.349 1_554 S
C487 C503 1.349 . S
C488 C486 1.327 . S
C488 C507 1.429 . S
C488 H512 0.950 . S
C489 C506 1.574 . S
C489 C508 1.368 . S
C489 H513 0.949 1_556 S
H490 C494 0.949 . S
C491 C492 1.349 . S
C491 C493 1.327 . S
C491 H514 0.950 . S
C492 C491 1.349 . S
C492 C504 1.349 . S
C493 C491 1.327 . S
C493 C509 1.429 . S
C493 H515 0.950 . S
C494 H490 0.949 . S
C494 C502 1.574 . S
C494 C510 1.368 . S
H495 C503 0.950 . S
H496 C501 0.950 . S
H497 C502 0.949 . S
H498 C504 0.950 . S
H499 C505 0.950 . S
H500 C506 0.949 . S
C501 H496 0.950 . S
C501 C503 1.327 . S
C501 C507 1.429 1_554 S
C502 C494 1.574 . S
C502 H497 0.949 . S
C502 C508 1.368 . S
C503 C487 1.349 . S
C503 H495 0.950 . S
C503 C501 1.327 . S
C504 C492 1.349 . S
C504 H498 0.950 . S
C504 C505 1.327 . S
C505 H499 0.950 . S
C505 C504 1.327 . S
C505 C509 1.429 . S
C506 C489 1.574 . S
C506 H500 0.949 . S
C506 C510 1.368 . S
C507 C488 1.429 . S
C507 C501 1.429 1_556 S
C507 C508 1.523 . S
C508 C489 1.368 . S
C508 C502 1.368 . S
C508 C507 1.523 . S
C509 C493 1.429 . S
C509 C505 1.429 . S
C509 C510 1.523 . S
C510 C494 1.368 . S
C510 C506 1.368 . S
C510 C509 1.523 . S
H511 C486 0.950 . S
H512 C488 0.950 . S
H513 C489 0.949 1_554 S
H514 C491 0.950 . S
H515 C493 0.950 . S
C516 C517 1.349 1_455 S
C516 C518 1.327 . S
C516 H541 0.950 . S
C517 C516 1.349 1_655 S
C517 C533 1.349 . S
C518 C516 1.327 . S
C518 C537 1.429 1_455 S
C518 H542 0.950 . S
C519 C536 1.574 . S
C519 C538 1.368 . S
C519 H543 0.949 . S
H520 C524 0.949 . S
C521 C522 1.349 . S
C521 C523 1.327 . S
C521 H544 0.950 . S
C522 C521 1.349 . S
C522 C534 1.349 1_655 S
C523 C521 1.327 . S
C523 C539 1.437 . S
C523 H545 0.950 . S
C524 H520 0.949 . S
C524 C532 1.574 . S
C524 C540 1.368 1_455 S
H525 C533 0.950 . S
H526 C531 0.950 . S
H527 C532 0.949 . S
H528 C534 0.950 . S
H529 C535 0.950 . S
H530 C536 0.949 . S
C531 H526 0.950 . S
C531 C533 1.327 . S
C531 C537 1.429 . S
C532 C524 1.574 . S
C532 H527 0.949 . S
C532 C538 1.368 1_455 S
C533 C517 1.349 . S
C533 H525 0.950 . S
C533 C531 1.327 . S
C534 C522 1.349 1_455 S
C534 H528 0.950 . S
C534 C535 1.327 . S
C535 H529 0.950 . S
C535 C534 1.327 . S
C535 C539 1.434 1_455 S
C536 C519 1.574 . S
C536 H530 0.949 . S
C536 C540 1.368 . S
C537 C518 1.429 1_655 S
C537 C531 1.429 . S
C537 C538 1.523 . S
C538 C519 1.368 . S
C538 C532 1.368 1_655 S
C538 C537 1.523 . S
C539 C523 1.437 . S
C539 C535 1.434 1_655 S
C539 C540 1.511 . S
C540 C524 1.368 1_655 S
C540 C536 1.368 . S
C540 C539 1.511 . S
H541 C516 0.950 . S
H542 C518 0.950 . S
H543 C519 0.949 . S
H544 C521 0.950 . S
H545 C523 0.950 . S
C192 C63 1.500 . S
C187 C6 1.478 1_455 S
C217 C22 1.616 . S
C222 C111 1.648 . S
C247 C34 1.227 . S
C252 C183 1.244 . S
C277 C7 1.482 1_655 S
C282 C87 1.498 . S
C312 C135 1.634 . S
C307 C23 1.616 . S
C337 C35 1.227 . S
C342 C159 1.248 . S
C372 C120 1.630 1_545 S
C367 C36 1.619 . S
C397 C9 1.866 . S
C402 C174 1.903 . S
C432 C78 1.504 1_455 S
C427 C21 1.473 1_455 S
C462 C126 1.616 1_545 S
C457 C37 1.619 . S
C492 C168 1.896 . S
C487 C8 1.867 . S
C517 C20 1.473 1_655 S
C522 C72 1.493 . S
