# Generated by pormake.
# Topology pyr, (3,6)-cn, num edge types: 1
# Building blocks:
#     Node 0, Type 0, BuildingBlock: MIDCAF_clean_linker_0, # of connection points: 3
#     Node 1, Type 0, BuildingBlock: MIDCAF_clean_linker_0, # of connection points: 3
#     Node 2, Type 0, BuildingBlock: MIDCAF_clean_linker_0, # of connection points: 3
#     Node 3, Type 0, BuildingBlock: MIDCAF_clean_linker_0, # of connection points: 3
#     Node 4, Type 0, BuildingBlock: MIDCAF_clean_linker_0, # of connection points: 3
#     Node 5, Type 0, BuildingBlock: MIDCAF_clean_linker_0, # of connection points: 3
#     Node 6, Type 0, BuildingBlock: MIDCAF_clean_linker_0, # of connection points: 3
#     Node 7, Type 0, BuildingBlock: MIDCAF_clean_linker_0, # of connection points: 3
#     Node 8, Type 1, BuildingBlock: LEVNOQ01_clean_sbu_1, # of connection points: 6
#     Node 9, Type 1, BuildingBlock: LEVNOQ01_clean_sbu_1, # of connection points: 6
#     Node 10, Type 1, BuildingBlock: LEVNOQ01_clean_sbu_1, # of connection points: 6
#     Node 11, Type 1, BuildingBlock: LEVNOQ01_clean_sbu_1, # of connection points: 6
#     Edge 12, Type (0, 1), BuildingBlock: OJICUG_clean_linker_0, # of connection points: 2
#     Edge 13, Type (0, 1), BuildingBlock: OJICUG_clean_linker_0, # of connection points: 2
#     Edge 14, Type (0, 1), BuildingBlock: OJICUG_clean_linker_0, # of connection points: 2
#     Edge 15, Type (0, 1), BuildingBlock: OJICUG_clean_linker_0, # of connection points: 2
#     Edge 16, Type (0, 1), BuildingBlock: OJICUG_clean_linker_0, # of connection points: 2
#     Edge 17, Type (0, 1), BuildingBlock: OJICUG_clean_linker_0, # of connection points: 2
#     Edge 18, Type (0, 1), BuildingBlock: OJICUG_clean_linker_0, # of connection points: 2
#     Edge 19, Type (0, 1), BuildingBlock: OJICUG_clean_linker_0, # of connection points: 2
#     Edge 20, Type (0, 1), BuildingBlock: OJICUG_clean_linker_0, # of connection points: 2
#     Edge 21, Type (0, 1), BuildingBlock: OJICUG_clean_linker_0, # of connection points: 2
#     Edge 22, Type (0, 1), BuildingBlock: OJICUG_clean_linker_0, # of connection points: 2
#     Edge 23, Type (0, 1), BuildingBlock: OJICUG_clean_linker_0, # of connection points: 2
#     Edge 24, Type (0, 1), BuildingBlock: OJICUG_clean_linker_0, # of connection points: 2
#     Edge 25, Type (0, 1), BuildingBlock: OJICUG_clean_linker_0, # of connection points: 2
#     Edge 26, Type (0, 1), BuildingBlock: OJICUG_clean_linker_0, # of connection points: 2
#     Edge 27, Type (0, 1), BuildingBlock: OJICUG_clean_linker_0, # of connection points: 2
#     Edge 28, Type (0, 1), BuildingBlock: OJICUG_clean_linker_0, # of connection points: 2
#     Edge 29, Type (0, 1), BuildingBlock: OJICUG_clean_linker_0, # of connection points: 2
#     Edge 30, Type (0, 1), BuildingBlock: OJICUG_clean_linker_0, # of connection points: 2
#     Edge 31, Type (0, 1), BuildingBlock: OJICUG_clean_linker_0, # of connection points: 2
#     Edge 32, Type (0, 1), BuildingBlock: OJICUG_clean_linker_0, # of connection points: 2
#     Edge 33, Type (0, 1), BuildingBlock: OJICUG_clean_linker_0, # of connection points: 2
#     Edge 34, Type (0, 1), BuildingBlock: OJICUG_clean_linker_0, # of connection points: 2
#     Edge 35, Type (0, 1), BuildingBlock: OJICUG_clean_linker_0, # of connection points: 2
# Relax obj value: 0.035
# Max RMSD: 0.110
# Mean RMSD: 0.047
data_MOF--net-pry--node1-LEVNOQ01_clean_sbu_1--node2-MIDCAF_clean_linker_0--edge1-OJICUG_clean_linker_0
_symmetry_space_group_name_H-M    P1
_symmetry_Int_Tables_number       1
_symmetry_cell_setting            triclinic
loop_
_symmetry_equiv_pos_as_xyz
'x, y, z'
_cell_length_a     35.532147
_cell_length_b     34.214329
_cell_length_c     34.045685
_cell_angle_alpha  92.48028
_cell_angle_beta   91.274605
_cell_angle_gamma 93.972351
loop_
_atom_site_label
_atom_site_type_symbol
_atom_site_fract_x
_atom_site_fract_y
_atom_site_fract_z
_atom_type_partial_charge
C0 C 0.08529 0.12125 0.26425 0.0
C1 C 0.10384 0.09116 0.28175 0.0
C2 C 0.13432 0.07561 0.26228 0.0
C3 C 0.14509 0.08866 0.22561 0.0
H4 H 0.20063 0.05283 0.12926 0.0
H5 H 0.25684 0.02403 0.10546 0.0
H6 H 0.27533 0.11846 0.02657 0.0
H7 H 0.21847 0.14763 0.05034 0.0
H8 H 0.14778 0.21059 0.04659 0.0
H9 H 0.12277 0.2714 0.02466 0.0
H10 H 0.04886 0.27237 0.12336 0.0
H11 H 0.0731 0.21217 0.14519 0.0
H12 H 0.08069 0.15703 0.21447 0.0
H13 H 0.06143 0.13355 0.27823 0.0
H14 H 0.14956 0.05277 0.27515 0.0
H15 H 0.16835 0.07542 0.21141 0.0
N16 N 0.16335 0.11189 0.14771 0.0
N17 N 0.15803 0.15379 0.09532 0.0
N18 N 0.12018 0.16031 0.15075 0.0
C19 C 0.17431 0.12316 0.1117 0.0
C20 C 0.13056 0.17232 0.11468 0.0
C21 C 0.13649 0.13024 0.16755 0.0
C22 C 0.20532 0.1031 0.09231 0.0
C23 C 0.21628 0.06743 0.1065 0.0
C24 C 0.24855 0.05076 0.09283 0.0
C25 C 0.27084 0.0692 0.06454 0.0
C26 C 0.25862 0.10345 0.04829 0.0
C27 C 0.22614 0.12026 0.06204 0.0
C28 C 0.11303 0.20663 0.09812 0.0
C29 C 0.12577 0.22341 0.06328 0.0
C30 C 0.11132 0.25809 0.05052 0.0
C31 C 0.08408 0.27665 0.07248 0.0
C32 C 0.07005 0.25882 0.10603 0.0
C33 C 0.08417 0.22428 0.11859 0.0
C34 C 0.12577 0.11779 0.20736 0.0
C35 C 0.09613 0.13443 0.22747 0.0
C36 C 0.24471 0.93542 0.59179 0.0
C37 C 0.22973 0.92023 0.55533 0.0
C38 C 0.25246 0.89886 0.53035 0.0
C39 C 0.28944 0.89224 0.54208 0.0
H40 H 0.36799 0.8068 0.53338 0.0
H41 H 0.39485 0.74507 0.51573 0.0
H42 H 0.49715 0.78394 0.5811 0.0
H43 H 0.47013 0.84532 0.59954 0.0
H44 H 0.46935 0.92524 0.65796 0.0
H45 H 0.49607 0.94857 0.72181 0.0
H46 H 0.38453 0.96959 0.76219 0.0
H47 H 0.35791 0.94768 0.69756 0.0
H48 H 0.29215 0.94155 0.63161 0.0
H49 H 0.22792 0.95256 0.61132 0.0
H50 H 0.24149 0.88699 0.50203 0.0
H51 H 0.30628 0.87537 0.52238 0.0
N52 N 0.36249 0.87229 0.57308 0.0
N53 N 0.41368 0.88579 0.61735 0.0
N54 N 0.35968 0.92093 0.62353 0.0
C55 C 0.39768 0.86473 0.58577 0.0
C56 C 0.39494 0.91398 0.63634 0.0
C57 C 0.34342 0.90053 0.59162 0.0
C58 C 0.41655 0.83078 0.56864 0.0
C59 C 0.39652 0.80261 0.54335 0.0
C60 C 0.41204 0.76723 0.53295 0.0
C61 C 0.44794 0.75935 0.54746 0.0
C62 C 0.46913 0.78884 0.57004 0.0
C63 C 0.4536 0.82408 0.58059 0.0
C64 C 0.41146 0.9339 0.67291 0.0
C65 C 0.45058 0.93547 0.68021 0.0
C66 C 0.46587 0.94877 0.7169 0.0
C67 C 0.44237 0.96011 0.7475 0.0
C68 C 0.40349 0.9612 0.73933 0.0
C69 C 0.3882 0.94841 0.7023 0.0
C70 C 0.30447 0.90755 0.57866 0.0
C71 C 0.28166 0.92936 0.60325 0.0
C72 C 0.62883 0.24258 0.90462 0.0
C73 C 0.59095 0.22926 0.89699 0.0
C74 C 0.56791 0.25171 0.87414 0.0
C75 C 0.58202 0.28797 0.8612 0.0
H76 H 0.58881 0.3583 0.76041 0.0
H77 H 0.57439 0.38136 0.69623 0.0
H78 H 0.66565 0.47163 0.71111 0.0
H79 H 0.67939 0.44912 0.77657 0.0
H80 H 0.71094 0.46897 0.86357 0.0
H81 H 0.76425 0.49918 0.90166 0.0
H82 H 0.74648 0.41353 0.99034 0.0
H83 H 0.69351 0.38231 0.95142 0.0
H84 H 0.67147 0.28924 0.90007 0.0
H85 H 0.64747 0.22549 0.92141 0.0
H86 H 0.53853 0.24235 0.86814 0.0
H87 H 0.56353 0.30555 0.84476 0.0
N88 N 0.62584 0.35454 0.82509 0.0
N89 N 0.66417 0.41203 0.84016 0.0
N90 N 0.65624 0.36407 0.88688 0.0
C91 C 0.64144 0.38962 0.81421 0.0
C92 C 0.67139 0.3996 0.87677 0.0
C93 C 0.63332 0.34163 0.86124 0.0
C94 C 0.6348 0.4023 0.77393 0.0
C95 C 0.60622 0.38273 0.74992 0.0
C96 C 0.59835 0.39562 0.71263 0.0
C97 C 0.61902 0.42828 0.69824 0.0
C98 C 0.64904 0.44654 0.72141 0.0
C99 C 0.65672 0.43382 0.75902 0.0
C100 C 0.69863 0.42248 0.90378 0.0
C101 C 0.71789 0.45686 0.89147 0.0
C102 C 0.74836 0.47451 0.91365 0.0
C103 C 0.7601 0.45838 0.94882 0.0
C104 C 0.73868 0.42611 0.96292 0.0
C105 C 0.70825 0.4083 0.9406 0.0
C106 C 0.619 0.30236 0.87164 0.0
C107 C 0.64254 0.27906 0.8926 0.0
C108 C 0.76821 0.58607 0.50326 0.0
C109 C 0.74435 0.55539 0.48612 0.0
C110 C 0.75741 0.53251 0.45462 0.0
C111 C 0.79285 0.54167 0.439 0.0
H112 H 0.8583 0.52448 0.33588 0.0
H113 H 0.87008 0.50561 0.26717 0.0
H114 H 0.94571 0.60908 0.25915 0.0
H115 H 0.93435 0.62783 0.32721 0.0
H116 H 0.97525 0.66177 0.41605 0.0
H117 H 0.00405 0.72692 0.43423 0.0
H118 H 0.90992 0.74872 0.50845 0.0
H119 H 0.88231 0.6831 0.49198 0.0
H120 H 0.82095 0.61961 0.50132 0.0
H121 H 0.7588 0.60403 0.52762 0.0
H122 H 0.73936 0.50887 0.44062 0.0
H123 H 0.80143 0.52454 0.41367 0.0
N124 N 0.85874 0.57376 0.39827 0.0
N125 N 0.91163 0.61878 0.39731 0.0
N126 N 0.87417 0.61649 0.4529 0.0
C127 C 0.88898 0.5895 0.37902 0.0
C128 C 0.90454 0.63225 0.43433 0.0
C129 C 0.85127 0.58712 0.43539 0.0
C130 C 0.89556 0.57755 0.33731 0.0
C131 C 0.87731 0.54327 0.31939 0.0
C132 C 0.88397 0.53248 0.28004 0.0
C133 C 0.90846 0.5561 0.2576 0.0
C134 C 0.92611 0.59063 0.27535 0.0
C135 C 0.91992 0.6011 0.31465 0.0
C136 C 0.92602 0.66767 0.45171 0.0
C137 C 0.96127 0.68011 0.43709 0.0
C138 C 0.97772 0.7175 0.4475 0.0
C139 C 0.95877 0.7436 0.4719 0.0
C140 C 0.92543 0.72958 0.48963 0.0
C141 C 0.90936 0.6919 0.47984 0.0
C142 C 0.81607 0.57364 0.45489 0.0
C143 C 0.80383 0.59489 0.48807 0.0
C144 C 0.76639 0.96749 0.92876 0.0
C145 C 0.74462 0.94909 0.95761 0.0
C146 C 0.75569 0.91311 0.97114 0.0
C147 C 0.78679 0.89552 0.95544 0.0
H148 H 0.86679 0.81166 0.97566 0.0
H149 H 0.89697 0.75779 0.00561 0.0
H150 H 0.96684 0.74636 0.90411 0.0
H151 H 0.93754 0.80028 0.8747 0.0
H152 H 0.92334 0.84897 0.79874 0.0
H153 H 0.9437 0.87157 0.73482 0.0
H154 H 0.87332 0.96899 0.7471 0.0
H155 H 0.85309 0.94691 0.81062 0.0
H156 H 0.81269 0.96431 0.88989 0.0
H157 H 0.75934 0.99548 0.91804 0.0
H158 H 0.7394 0.89745 0.99271 0.0
H159 H 0.79369 0.86733 0.9658 0.0
N160 N 0.85414 0.86247 0.9227 0.0
N161 N 0.89176 0.85426 0.86743 0.0
N162 N 0.8488 0.90318 0.86944 0.0
C163 C 0.88136 0.84326 0.90386 0.0
C164 C 0.87555 0.88415 0.84997 0.0
C165 C 0.83784 0.89262 0.90566 0.0
C166 C 0.89963 0.81054 0.92264 0.0
C167 C 0.88873 0.79779 0.9598 0.0
C168 C 0.90596 0.76676 0.97698 0.0
C169 C 0.93465 0.74781 0.95755 0.0
C170 C 0.9455 0.7607 0.92048 0.0
C171 C 0.92833 0.79156 0.90334 0.0
C172 C 0.88682 0.89628 0.8102 0.0
C173 C 0.91199 0.87507 0.78772 0.0
C174 C 0.9234 0.88776 0.75091 0.0
C175 C 0.91014 0.92207 0.736 0.0
C176 C 0.88423 0.94258 0.75794 0.0
C177 C 0.87265 0.92984 0.79445 0.0
C178 C 0.80735 0.91309 0.92534 0.0
C179 C 0.79717 0.94963 0.91268 0.0
C180 C 0.61119 0.04446 0.27601 0.0
C181 C 0.57684 0.0528 0.25824 0.0
C182 C 0.55215 0.07551 0.27964 0.0
C183 C 0.56254 0.09125 0.31733 0.0
H184 H 0.53324 0.17017 0.40878 0.0
H185 H 0.50308 0.22915 0.42911 0.0
H186 H 0.60467 0.27256 0.49349 0.0
H187 H 0.63454 0.21289 0.47416 0.0
H188 H 0.70618 0.1561 0.47734 0.0
H189 H 0.77131 0.14224 0.49543 0.0
H190 H 0.76093 0.03803 0.419 0.0
H191 H 0.69684 0.05107 0.40122 0.0
H192 H 0.64862 0.05345 0.32589 0.0
H193 H 0.63069 0.02694 0.26023 0.0
H194 H 0.52563 0.08273 0.26645 0.0
H195 H 0.54349 0.10979 0.33248 0.0
N196 N 0.59211 0.13324 0.3896 0.0
N197 N 0.64005 0.1443 0.43849 0.0
N198 N 0.64418 0.09512 0.38901 0.0
C199 C 0.60635 0.15343 0.42266 0.0
C200 C 0.65891 0.11475 0.42192 0.0
C201 C 0.61098 0.10401 0.37255 0.0
C202 C 0.58657 0.18701 0.43926 0.0
C203 C 0.54903 0.19199 0.42774 0.0
C204 C 0.53171 0.22588 0.4394 0.0
C205 C 0.55158 0.25593 0.4625 0.0
C206 C 0.58836 0.24993 0.476 0.0
C207 C 0.60562 0.21577 0.46463 0.0
C208 C 0.69639 0.10505 0.43733 0.0
C209 C 0.71765 0.12991 0.46495 0.0
C210 C 0.7548 0.12205 0.47537 0.0
C211 C 0.771 0.08937 0.45817 0.0
C212 C 0.74911 0.06366 0.43228 0.0
C213 C 0.71235 0.0713 0.42206 0.0
C214 C 0.59768 0.08422 0.33451 0.0
C215 C 0.62139 0.05975 0.31373 0.0
C216 C 0.25177 0.56323 0.0834 0.0
C217 C 0.23985 0.585 0.05195 0.0
C218 C 0.2629 0.617 0.04018 0.0
C219 C 0.29544 0.62956 0.06201 0.0
H220 H 0.32451 0.74345 0.12204 0.0
H221 H 0.34347 0.81092 0.10735 0.0
H222 H 0.45874 0.79169 0.14099 0.0
H223 H 0.43878 0.72518 0.15836 0.0
H224 H 0.42276 0.65723 0.23786 0.0
H225 H 0.4361 0.63205 0.30157 0.0
H226 H 0.33846 0.54951 0.28718 0.0
H227 H 0.32564 0.57421 0.22227 0.0
H228 H 0.29112 0.56047 0.13153 0.0
H229 H 0.23423 0.53845 0.09302 0.0
H230 H 0.25427 0.63398 0.01582 0.0
H231 H 0.3114 0.6558 0.05342 0.0
N232 N 0.34628 0.66774 0.11904 0.0
N233 N 0.37875 0.67107 0.1797 0.0
N234 N 0.34211 0.61372 0.15911 0.0
C235 C 0.36911 0.68807 0.14617 0.0
C236 C 0.36518 0.63397 0.18652 0.0
C237 C 0.33309 0.63037 0.12486 0.0
C238 C 0.38045 0.72933 0.14055 0.0
C239 C 0.35376 0.75412 0.12685 0.0
C240 C 0.36465 0.79269 0.1185 0.0
C241 C 0.40273 0.80675 0.12238 0.0
C242 C 0.42905 0.78228 0.13817 0.0
C243 C 0.41785 0.74398 0.14764 0.0
C244 C 0.37328 0.61755 0.22491 0.0
C245 C 0.40391 0.6339 0.24831 0.0
C246 C 0.41122 0.61983 0.28523 0.0
C247 C 0.38792 0.58922 0.29992 0.0
C248 C 0.35691 0.57315 0.27673 0.0
C249 C 0.34975 0.58707 0.23946 0.0
C250 C 0.30508 0.61071 0.09642 0.0
C251 C 0.28419 0.57604 0.10559 0.0
C252 C 0.05927 0.27743 0.5227 0.0
C253 C 0.02512 0.26339 0.53891 0.0
C254 C 0.00661 0.28874 0.56454 0.0
C255 C 0.02433 0.32478 0.57789 0.0
H256 H 0.03952 0.38006 0.68738 0.0
H257 H 0.02574 0.39778 0.75524 0.0
H258 H 0.12732 0.47489 0.76404 0.0
H259 H 0.14093 0.45779 0.69583 0.0
H260 H 0.18824 0.47344 0.61377 0.0
H261 H 0.24987 0.49194 0.5871 0.0
H262 H 0.23318 0.39847 0.49789 0.0
H263 H 0.17149 0.38003 0.52405 0.0
H264 H 0.10417 0.32226 0.52433 0.0
H265 H 0.07461 0.25901 0.503 0.0
H266 H 0.97966 0.27953 0.57663 0.0
H267 H 0.01069 0.34225 0.59994 0.0
N268 N 0.07544 0.38098 0.62291 0.0
N269 N 0.13085 0.42269 0.62676 0.0
N270 N 0.1151 0.38467 0.56902 0.0
C271 C 0.09905 0.40754 0.64387 0.0
C272 C 0.13894 0.41142 0.58919 0.0
C273 C 0.0832 0.36954 0.58542 0.0
C274 C 0.09118 0.41783 0.68572 0.0
C275 C 0.0591 0.40072 0.70369 0.0
C276 C 0.05136 0.4105 0.74289 0.0
C277 C 0.07541 0.43771 0.76521 0.0
C278 C 0.10798 0.45408 0.7476 0.0
C279 C 0.11577 0.44429 0.70839 0.0
C280 C 0.17494 0.42511 0.57131 0.0
C281 C 0.19745 0.45712 0.5882 0.0
C282 C 0.23261 0.4679 0.57272 0.0
C283 C 0.24621 0.44661 0.54037 0.0
C284 C 0.22338 0.41529 0.52286 0.0
C285 C 0.188 0.40486 0.53792 0.0
C286 C 0.0604 0.33666 0.56494 0.0
C287 C 0.07656 0.31379 0.53535 0.0
O288 O 0.01078 0.01228 0.61242 0.0
Mg289 Mg 0.04481 0.04004 0.57156 0.0
O290 O 0.97503 0.98106 0.56538 0.0
Mg291 Mg -0.00042 0.00405 0.50522 0.0
O292 O 0.01539 0.06832 0.5305 0.0
O293 O 0.05017 0.09837 0.58058 0.0
O294 O 0.02704 0.02943 0.44638 0.0
O295 O 0.9405 0.03068 0.49567 0.0
Mg296 Mg 0.96676 0.97291 0.43609 0.0
O297 O 0.98199 0.93861 0.48107 0.0
O298 O 0.00854 0.98795 0.39764 0.0
O299 O 0.92041 0.00691 0.43743 0.0
O300 O 0.95044 0.91662 0.42534 0.0
C301 C 0.09005 0.9858 0.5322 0.0
C302 C 0.98318 0.98857 0.6019 0.0
C303 C 0.0282 0.10021 0.55012 0.0
C304 C 0.02922 0.01725 0.41045 0.0
C305 C 0.91619 0.02891 0.46743 0.0
C306 C 0.96727 0.90978 0.45802 0.0
O307 O 0.09424 0.01531 0.55573 0.0
O308 O 0.05832 0.97663 0.51477 0.0
O309 O 0.44627 0.06161 0.05833 0.0
Mg310 Mg 0.50225 0.07272 0.0402 0.0
O311 O 0.43972 0.01634 0.01071 0.0
Mg312 Mg 0.50469 0.00762 0.00306 0.0
O313 O 0.51929 0.0729 0.98334 0.0
O314 O 0.50527 0.12639 0.01966 0.0
O315 O 0.57053 0.00024 0.99443 0.0
O316 O 0.49069 0.99562 0.93512 0.0
Mg317 Mg 0.52505 0.92279 0.97799 0.0
O318 O 0.48959 0.94402 0.0181 0.0
O319 O 0.58112 0.93719 0.99475 0.0
O320 O 0.50736 0.93537 0.92093 0.0
O321 O 0.49631 0.88 0.00723 0.0
C322 C 0.53996 0.03825 0.09391 0.0
C323 C 0.4252 0.03776 0.03707 0.0
C324 C 0.5183 0.11077 0.98815 0.0
C325 C 0.59327 0.97279 0.99541 0.0
C326 C 0.49425 0.96693 0.91032 0.0
C327 C 0.48119 0.90796 0.02645 0.0
O328 O 0.54622 0.07183 0.08106 0.0
O329 O 0.51941 0.01267 0.07315 0.0
O330 O 0.46368 0.58219 0.57966 0.0
Mg331 Mg 0.45584 0.52324 0.59471 0.0
O332 O 0.48425 0.57332 0.51861 0.0
Mg333 Mg 0.49418 0.50611 0.50781 0.0
O334 O 0.50114 0.4989 0.57256 0.0
O335 O 0.49159 0.50149 0.63642 0.0
O336 O 0.50445 0.43857 0.49747 0.0
O337 O 0.55978 0.52266 0.50967 0.0
Mg338 Mg 0.53388 0.49038 0.42505 0.0
O339 O 0.48636 0.51471 0.44222 0.0
O340 O 0.52717 0.43095 0.43733 0.0
O341 O 0.58191 0.52224 0.44914 0.0
O342 O 0.50315 0.51063 0.37961 0.0
C343 C 0.40249 0.48383 0.53264 0.0
C344 C 0.47429 0.59568 0.5472 0.0
C345 C 0.51275 0.49258 0.60758 0.0
C346 C 0.5157 0.41675 0.46909 0.0
C347 C 0.58659 0.52894 0.48582 0.0
C348 C 0.47935 0.52068 0.40562 0.0
O349 O 0.40809 0.49176 0.56912 0.0
O350 O 0.42851 0.48917 0.50757 0.0
O351 O 0.05786 0.46126 0.0689 0.0
Mg352 Mg 0.03479 0.51652 0.07636 0.0
O353 O 0.01583 0.44289 0.02228 0.0
Mg354 Mg -0.00075 0.50745 0.0127 0.0
O355 O 0.97784 0.51753 0.07978 0.0
O356 O 0.01809 0.5192 0.13207 0.0
O357 O 0.98152 0.57559 0.01314 0.0
O358 O 0.93746 0.48434 0.00341 0.0
Mg359 Mg 0.98748 0.53801 0.95581 0.0
O360 O 0.01701 0.49055 0.94437 0.0
O361 O 0.01797 0.59301 0.96622 0.0
O362 O 0.92786 0.53259 0.96514 0.0
O363 O 0.99327 0.52789 0.89826 0.0
C364 C 0.08153 0.55725 0.0347 0.0
C365 C 0.04202 0.43449 0.04615 0.0
C366 C 0.98433 0.51982 0.11777 0.0
C367 C -0.00267 0.60301 0.99382 0.0
C368 C 0.91479 0.5045 0.98494 0.0
C369 C 0.01335 0.49968 0.90763 0.0
O370 O 0.06734 0.56884 0.06624 0.0
O371 O 0.06369 0.52987 0.01416 0.0
C372 C 0.0764 0.09617 0.34975 0.0
C373 C 0.08925 0.07325 0.31802 0.0
H374 H 0.04803 0.09638 0.40505 0.0
C375 C 0.08588 0.03224 0.31981 0.0
H376 H 0.07889 0.12788 0.34935 0.0
C377 C 0.06846 0.0145 0.35135 0.0
C378 C 0.05408 0.03719 0.38217 0.0
H379 H 0.09498 0.01361 0.29582 0.0
H380 H 0.06489 0.98277 0.35084 0.0
C381 C 0.05918 0.07824 0.38181 0.0
C382 C 0.48378 0.93968 0.80191 0.0
C383 C 0.45777 0.96552 0.7886 0.0
H384 H 0.51577 0.92035 0.84994 0.0
C385 C 0.44518 0.99399 0.81551 0.0
H386 H 0.49358 0.91685 0.78246 0.0
C387 C 0.45791 0.99587 0.85502 0.0
C388 C 0.48303 0.96898 0.86826 0.0
H389 H 0.42522 0.01445 0.80614 0.0
H390 H 0.44722 0.01742 0.87534 0.0
C391 C 0.49624 0.94143 0.84097 0.0
C392 C 0.58504 0.42442 0.63256 0.0
C393 C 0.60413 0.44719 0.66332 0.0
H394 H 0.53981 0.42179 0.58945 0.0
C395 C 0.60057 0.48787 0.66556 0.0
H396 H 0.58806 0.39316 0.6294 0.0
C397 C 0.57363 0.50408 0.64223 0.0
C398 C 0.55022 0.47996 0.61635 0.0
H399 H 0.61482 0.50647 0.68862 0.0
H400 H 0.56807 0.53456 0.64781 0.0
C401 C 0.5578 0.44075 0.60933 0.0
C402 C 0.93006 0.50554 0.20931 0.0
C403 C 0.91859 0.54355 0.217 0.0
H404 H 0.95981 0.46805 0.17067 0.0
C405 C 0.92201 0.57085 0.18725 0.0
H406 H 0.92808 0.48396 0.23167 0.0
C407 C 0.93953 0.56139 0.15194 0.0
C408 C 0.95413 0.52462 0.14604 0.0
H409 H 0.91315 0.60028 0.19225 0.0
H410 H 0.94465 0.58392 0.13091 0.0
C411 C 0.94806 0.49634 0.17432 0.0
C412 C 0.32214 0.0528 0.0173 0.0
C413 C 0.30874 0.05534 0.05588 0.0
H414 H 0.36973 0.04357 0.98077 0.0
C415 C 0.33296 0.0471 0.08722 0.0
H416 H 0.30408 0.05887 0.99257 0.0
C417 C 0.37022 0.03879 0.08051 0.0
C418 C 0.38406 0.03769 0.04225 0.0
H419 H 0.32374 0.0492 0.11731 0.0
H420 H 0.38877 0.03476 0.10549 0.0
C421 C 0.35947 0.0436 0.01049 0.0
C422 C 0.18344 0.94714 0.50875 0.0
C423 C 0.19075 0.92817 0.54367 0.0
H424 H 0.14446 0.98051 0.47727 0.0
C425 C 0.16159 0.92188 0.5703 0.0
H426 H 0.2056 0.95248 0.48791 0.0
C427 C 0.12684 0.93737 0.56398 0.0
C428 C 0.12067 0.95932 0.53093 0.0
H429 H 0.1665 0.90709 0.59727 0.0
H430 H 0.10578 0.93479 0.58645 0.0
C431 C 0.14856 0.96297 0.50256 0.0
C432 C 0.82201 0.44407 0.97971 0.0
C433 C 0.79734 0.47175 0.96709 0.0
H434 H 0.8788 0.43293 0.99566 0.0
C435 C 0.81072 0.51134 0.9665 0.0
H436 H 0.81281 0.41327 0.98024 0.0
C437 C 0.84874 0.52233 0.9744 0.0
C438 C 0.87391 0.49408 0.98381 0.0
H439 H 0.79224 0.53354 0.95792 0.0
H440 H 0.85873 0.55271 0.97161 0.0
C441 C 0.85995 0.45523 0.98828 0.0
C442 C 0.68761 0.51261 0.50335 0.0
C443 C 0.70439 0.55018 0.49742 0.0
H444 H 0.63585 0.47689 0.5062 0.0
C445 C 0.68155 0.58213 0.49654 0.0
H446 H 0.70465 0.48759 0.50425 0.0
C447 C 0.64227 0.57596 0.49739 0.0
C448 C 0.62549 0.53794 0.50013 0.0
H449 H 0.69381 0.61135 0.49165 0.0
H450 H 0.62501 0.60031 0.49268 0.0
C451 C 0.6484 0.50659 0.50492 0.0
C452 C 0.05836 0.32599 0.02713 0.0
C453 C 0.07342 0.31673 0.06392 0.0
H454 H 0.03561 0.37062 0.99251 0.0
C455 C 0.07809 0.34622 0.09385 0.0
H456 H 0.05445 0.30366 0.00359 0.0
C457 C 0.06803 0.38408 0.08745 0.0
C458 C 0.05244 0.39362 0.05104 0.0
H459 H 0.08983 0.34003 0.12238 0.0
H460 H 0.07208 0.40587 0.11149 0.0
C461 C 0.04745 0.36412 0.02088 0.0
C462 C 0.584 0.19275 0.9579 0.0
C463 C 0.57453 0.19543 0.91792 0.0
H464 H 0.57352 0.16336 0.01083 0.0
C465 C 0.54768 0.16768 0.89989 0.0
H466 H 0.60392 0.21403 0.97294 0.0
C467 C 0.53011 0.13825 0.92199 0.0
C468 C 0.5389 0.13706 0.96225 0.0
H469 H 0.53991 0.16916 0.86908 0.0
H470 H 0.50876 0.11767 0.9082 0.0
C471 C 0.56635 0.16397 0.97974 0.0
C472 C 0.97956 0.80343 0.43695 0.0
C473 C 0.96918 0.78653 0.47235 0.0
H474 H 0.98734 0.85563 0.40533 0.0
C475 C 0.96338 0.81155 0.50543 0.0
H476 H 0.9837 0.78549 0.41062 0.0
C477 C 0.96535 0.85246 0.50217 0.0
C478 C 0.97268 0.86855 0.46569 0.0
H479 H 0.95569 0.79948 0.53325 0.0
H480 H 0.9588 0.87112 0.52725 0.0
C481 C 0.9812 0.8438 0.4337 0.0
C482 C 0.47557 0.70248 0.57782 0.0
C483 C 0.46073 0.71888 0.5442 0.0
H484 H 0.49186 0.65084 0.60465 0.0
C485 C 0.45469 0.69501 0.50953 0.0
H486 H 0.48006 0.7197 0.60519 0.0
C487 C 0.46169 0.65509 0.50922 0.0
C488 C 0.4742 0.63851 0.54376 0.0
H489 H 0.44344 0.7069 0.48311 0.0
H490 H 0.45517 0.63684 0.48283 0.0
C491 C 0.48209 0.66285 0.57761 0.0
C492 C 0.92968 0.91555 0.66501 0.0
C493 C 0.92584 0.93878 0.69972 0.0
H494 H 0.95002 0.91339 0.60579 0.0
C495 C 0.93849 0.97857 0.70042 0.0
H496 H 0.92002 0.88479 0.66367 0.0
C497 C 0.95565 0.99458 0.66786 0.0
C498 C 0.96029 0.97143 0.63344 0.0
H499 H 0.93635 0.99714 0.72675 0.0
H500 H 0.96606 0.02515 0.66992 0.0
C501 C 0.94644 0.93191 0.63186 0.0
C502 C 0.53338 0.02511 0.20277 0.0
C503 C 0.56892 0.04186 0.21606 0.0
H504 H 0.49666 0.00912 0.1527 0.0
C505 C 0.59633 0.05156 0.18833 0.0
H506 H 0.51182 0.01729 0.22359 0.0
C507 C 0.58758 0.04725 0.14818 0.0
C508 C 0.55154 0.03239 0.13487 0.0
H509 H 0.62381 0.06485 0.19767 0.0
H510 H 0.6084 0.05748 0.12748 0.0
C511 C 0.52487 0.01998 0.16235 0.0
C512 C 0.41796 0.59393 0.36763 0.0
C513 C 0.39959 0.57096 0.33657 0.0
H514 H 0.45817 0.5951 0.41573 0.0
C515 C 0.3994 0.52993 0.33723 0.0
H516 H 0.41779 0.62561 0.36846 0.0
C517 C 0.42179 0.51269 0.36472 0.0
C518 C 0.44445 0.53615 0.3919 0.0
H519 H 0.38561 0.51128 0.31392 0.0
H520 H 0.42475 0.48138 0.36179 0.0
C521 C 0.44056 0.57656 0.39509 0.0
C522 C 0.06818 0.49225 0.8151 0.0
C523 C 0.06453 0.4519 0.80514 0.0
H524 H 0.05514 0.53841 0.85566 0.0
C525 C 0.04759 0.42633 0.83216 0.0
H526 H 0.08057 0.5129 0.795 0.0
C527 C 0.03309 0.44117 0.86748 0.0
C528 C 0.03491 0.48176 0.87586 0.0
H529 H 0.04464 0.39502 0.82547 0.0
H530 H 0.01866 0.42125 0.88696 0.0
C531 C 0.05343 0.50693 0.84985 0.0
C532 C 0.6958 0.95886 0.00925 0.0
C533 C 0.70874 0.96521 0.97109 0.0
H534 H 0.64843 0.95714 0.04726 0.0
C535 C 0.68495 0.98306 0.94452 0.0
H536 H 0.71352 0.9463 0.03096 0.0
C537 C 0.64808 0.99076 0.95462 0.0
C538 C 0.63419 0.9804 0.99124 0.0
H539 H 0.69352 0.98819 0.91477 0.0
H540 H 0.62934 0.00108 0.93238 0.0
C541 C 0.65875 0.96583 0.01898 0.0
C542 C 0.82649 0.07313 0.50029 0.0
C543 C 0.81138 0.08273 0.46371 0.0
H544 H 0.87259 0.04846 0.5305 0.0
C545 C 0.83354 0.08018 0.43028 0.0
H546 H 0.80971 0.0748 0.5264 0.0
C547 C 0.86878 0.06503 0.43249 0.0
C548 C 0.88283 0.05229 0.46824 0.0
H549 H 0.82258 0.08779 0.40185 0.0
H550 H 0.88433 0.06152 0.40568 0.0
C551 C 0.86227 0.05807 0.50259 0.0
C552 C 0.18441 0.54271 0.02445 0.0
C553 C 0.20034 0.57969 0.03769 0.0
H554 H 0.13336 0.50703 0.01149 0.0
C555 C 0.17696 0.61081 0.04353 0.0
H556 H 0.202 0.51834 0.02004 0.0
C557 C 0.13791 0.60423 0.0396 0.0
C558 C 0.1218 0.5667 0.02879 0.0
H559 H 0.18869 0.63948 0.05421 0.0
H560 H 0.12023 0.62787 0.04716 0.0
C561 C 0.1453 0.5364 0.01941 0.0
C562 C 0.2995 0.49386 0.52275 0.0
C563 C 0.28541 0.45505 0.52752 0.0
H564 H 0.34876 0.53315 0.51871 0.0
C565 C 0.31029 0.42483 0.52494 0.0
H566 H 0.28088 0.51762 0.52434 0.0
C567 C 0.34911 0.43376 0.52167 0.0
C568 C 0.36335 0.47288 0.52012 0.0
H569 H 0.30019 0.39468 0.52881 0.0
H570 H 0.36818 0.4105 0.52371 0.0
C571 C 0.33818 0.50267 0.51897 0.0
C572 C 0.93065 0.68439 0.99337 0.0
C573 C 0.95244 0.71375 0.97461 0.0
H574 H 0.92809 0.6263 0.01515 0.0
C575 C 0.99096 0.70861 0.96918 0.0
H576 H 0.90089 0.68722 0.99799 0.0
C577 C 0.00642 0.67368 0.97882 0.0
C578 C 0.98392 0.64312 0.99462 0.0
H579 H 0.00892 0.73098 0.95588 0.0
H580 H 0.03557 0.66974 0.97188 0.0
C581 C 0.94628 0.64947 0.00341 0.0
C582 C 0.40038 0.85241 0.06726 0.0
C583 C 0.41602 0.8436 0.10394 0.0
H584 H 0.40912 0.88196 0.01384 0.0
C585 C 0.44842 0.866 0.11863 0.0
H586 H 0.3757 0.83576 0.05464 0.0
C587 C 0.46764 0.89254 0.09477 0.0
C588 C 0.45426 0.89727 0.05639 0.0
H589 H 0.46069 0.86064 0.14713 0.0
H590 H 0.49485 0.90607 0.10475 0.0
C591 C 0.41943 0.87907 0.04371 0.0
C592 C 0.02238 0.1968 0.50298 0.0
C593 C 0.01392 0.22053 0.53615 0.0
H594 H 0.03318 0.13873 0.48108 0.0
C595 C 0.0018 0.20207 0.57023 0.0
H596 H 0.03105 0.20993 0.47595 0.0
C597 C 0.00267 0.16172 0.57279 0.0
C598 C 0.01544 0.13881 0.54142 0.0
H599 H 0.99532 0.21887 0.59659 0.0
H600 H 0.9964 0.14883 0.60065 0.0
C601 C 0.02324 0.15604 0.50564 0.0
C602 C 0.51777 0.31113 0.43597 0.0
C603 C 0.53601 0.2951 0.46793 0.0
H604 H 0.49641 0.36202 0.41194 0.0
C605 C 0.5424 0.31837 0.50297 0.0
H606 H 0.51284 0.29451 0.40832 0.0
C607 C 0.53273 0.35753 0.50502 0.0
C608 C 0.51694 0.37396 0.47193 0.0
H609 H 0.55611 0.30679 0.52824 0.0
H610 H 0.53998 0.37556 0.53137 0.0
C611 C 0.50845 0.35 0.43795 0.0
loop_
_geom_bond_atom_site_label_1
_geom_bond_atom_site_label_2
_geom_bond_distance
_geom_bond_site_symmetry_2
_ccdc_geom_bond_type
C0 C1 1.384 . S
C0 H13 0.947 . S
C0 C35 1.382 . S
C1 C0 1.384 . S
C1 C2 1.378 . S
C2 C1 1.378 . S
C2 C3 1.378 . S
C2 H14 0.952 . S
C3 C2 1.378 . S
C3 H15 0.950 . S
C3 C34 1.383 . S
H4 C23 0.947 . S
H5 C24 0.946 . S
H6 C26 0.953 . S
H7 C27 0.945 . S
H8 C29 0.952 . S
H9 C30 0.949 . S
H10 C32 0.950 . S
H11 C33 0.948 . S
H12 C35 0.951 . S
H13 C0 0.947 . S
H14 C2 0.952 . S
H15 C3 0.950 . S
N16 C19 1.382 . S
N16 C21 1.363 . S
N17 C19 1.371 . S
N17 C20 1.372 . S
N18 C20 1.361 . S
N18 C21 1.377 . S
C19 N16 1.382 . S
C19 N17 1.371 . S
C19 C22 1.480 . S
C20 N17 1.372 . S
C20 N18 1.361 . S
C20 C28 1.457 . S
C21 N16 1.363 . S
C21 N18 1.377 . S
C21 C34 1.479 . S
C22 C19 1.480 . S
C22 C23 1.383 . S
C22 C27 1.385 . S
C23 H4 0.947 . S
C23 C22 1.383 . S
C23 C24 1.388 . S
C24 H5 0.946 . S
C24 C23 1.388 . S
C24 C25 1.384 . S
C25 C24 1.384 . S
C25 C26 1.377 . S
C26 H6 0.953 . S
C26 C25 1.377 . S
C26 C27 1.369 . S
C27 H7 0.945 . S
C27 C22 1.385 . S
C27 C26 1.369 . S
C28 C20 1.457 . S
C28 C29 1.372 . S
C28 C33 1.364 . S
C29 H8 0.952 . S
C29 C28 1.372 . S
C29 C30 1.389 . S
C30 H9 0.949 . S
C30 C29 1.389 . S
C30 C31 1.387 . S
C31 C30 1.387 . S
C31 C32 1.372 . S
C32 H10 0.950 . S
C32 C31 1.372 . S
C32 C33 1.379 . S
C33 H11 0.948 . S
C33 C28 1.364 . S
C33 C32 1.379 . S
C34 C3 1.383 . S
C34 C21 1.479 . S
C34 C35 1.398 . S
C35 C0 1.382 . S
C35 H12 0.951 . S
C35 C34 1.398 . S
C36 C37 1.384 . S
C36 H49 0.947 . S
C36 C71 1.382 . S
C37 C36 1.384 . S
C37 C38 1.378 . S
C38 C37 1.378 . S
C38 C39 1.378 . S
C38 H50 0.952 . S
C39 C38 1.378 . S
C39 H51 0.950 . S
C39 C70 1.383 . S
H40 C59 0.947 . S
H41 C60 0.946 . S
H42 C62 0.953 . S
H43 C63 0.945 . S
H44 C65 0.952 . S
H45 C66 0.949 . S
H46 C68 0.950 . S
H47 C69 0.948 . S
H48 C71 0.951 . S
H49 C36 0.947 . S
H50 C38 0.952 . S
H51 C39 0.950 . S
N52 C55 1.382 . S
N52 C57 1.363 . S
N53 C55 1.371 . S
N53 C56 1.372 . S
N54 C56 1.361 . S
N54 C57 1.377 . S
C55 N52 1.382 . S
C55 N53 1.371 . S
C55 C58 1.480 . S
C56 N53 1.372 . S
C56 N54 1.361 . S
C56 C64 1.457 . S
C57 N52 1.363 . S
C57 N54 1.377 . S
C57 C70 1.479 . S
C58 C55 1.480 . S
C58 C59 1.383 . S
C58 C63 1.385 . S
C59 H40 0.947 . S
C59 C58 1.383 . S
C59 C60 1.388 . S
C60 H41 0.946 . S
C60 C59 1.388 . S
C60 C61 1.384 . S
C61 C60 1.384 . S
C61 C62 1.377 . S
C62 H42 0.953 . S
C62 C61 1.377 . S
C62 C63 1.369 . S
C63 H43 0.945 . S
C63 C58 1.385 . S
C63 C62 1.369 . S
C64 C56 1.457 . S
C64 C65 1.372 . S
C64 C69 1.364 . S
C65 H44 0.952 . S
C65 C64 1.372 . S
C65 C66 1.389 . S
C66 H45 0.949 . S
C66 C65 1.389 . S
C66 C67 1.387 . S
C67 C66 1.387 . S
C67 C68 1.372 . S
C68 H46 0.950 . S
C68 C67 1.372 . S
C68 C69 1.379 . S
C69 H47 0.948 . S
C69 C64 1.364 . S
C69 C68 1.379 . S
C70 C39 1.383 . S
C70 C57 1.479 . S
C70 C71 1.398 . S
C71 C36 1.382 . S
C71 H48 0.951 . S
C71 C70 1.398 . S
C72 C73 1.384 . S
C72 H85 0.947 . S
C72 C107 1.382 . S
C73 C72 1.384 . S
C73 C74 1.378 . S
C74 C73 1.378 . S
C74 C75 1.378 . S
C74 H86 0.952 . S
C75 C74 1.378 . S
C75 H87 0.950 . S
C75 C106 1.383 . S
H76 C95 0.947 . S
H77 C96 0.946 . S
H78 C98 0.953 . S
H79 C99 0.945 . S
H80 C101 0.952 . S
H81 C102 0.949 . S
H82 C104 0.950 . S
H83 C105 0.948 . S
H84 C107 0.951 . S
H85 C72 0.947 . S
H86 C74 0.952 . S
H87 C75 0.950 . S
N88 C91 1.382 . S
N88 C93 1.363 . S
N89 C91 1.371 . S
N89 C92 1.372 . S
N90 C92 1.361 . S
N90 C93 1.377 . S
C91 N88 1.382 . S
C91 N89 1.371 . S
C91 C94 1.480 . S
C92 N89 1.372 . S
C92 N90 1.361 . S
C92 C100 1.457 . S
C93 N88 1.363 . S
C93 N90 1.377 . S
C93 C106 1.479 . S
C94 C91 1.480 . S
C94 C95 1.383 . S
C94 C99 1.385 . S
C95 H76 0.947 . S
C95 C94 1.383 . S
C95 C96 1.388 . S
C96 H77 0.946 . S
C96 C95 1.388 . S
C96 C97 1.384 . S
C97 C96 1.384 . S
C97 C98 1.377 . S
C98 H78 0.953 . S
C98 C97 1.377 . S
C98 C99 1.369 . S
C99 H79 0.945 . S
C99 C94 1.385 . S
C99 C98 1.369 . S
C100 C92 1.457 . S
C100 C101 1.372 . S
C100 C105 1.364 . S
C101 H80 0.952 . S
C101 C100 1.372 . S
C101 C102 1.389 . S
C102 H81 0.949 . S
C102 C101 1.389 . S
C102 C103 1.387 . S
C103 C102 1.387 . S
C103 C104 1.372 . S
C104 H82 0.950 . S
C104 C103 1.372 . S
C104 C105 1.379 . S
C105 H83 0.948 . S
C105 C100 1.364 . S
C105 C104 1.379 . S
C106 C75 1.383 . S
C106 C93 1.479 . S
C106 C107 1.398 . S
C107 C72 1.382 . S
C107 H84 0.951 . S
C107 C106 1.398 . S
C108 C109 1.384 . S
C108 H121 0.947 . S
C108 C143 1.382 . S
C109 C108 1.384 . S
C109 C110 1.378 . S
C110 C109 1.378 . S
C110 C111 1.378 . S
C110 H122 0.952 . S
C111 C110 1.378 . S
C111 H123 0.950 . S
C111 C142 1.383 . S
H112 C131 0.947 . S
H113 C132 0.946 . S
H114 C134 0.953 . S
H115 C135 0.945 . S
H116 C137 0.952 . S
H117 C138 0.949 . S
H118 C140 0.950 . S
H119 C141 0.948 . S
H120 C143 0.951 . S
H121 C108 0.947 . S
H122 C110 0.952 . S
H123 C111 0.950 . S
N124 C127 1.382 . S
N124 C129 1.363 . S
N125 C127 1.371 . S
N125 C128 1.372 . S
N126 C128 1.361 . S
N126 C129 1.377 . S
C127 N124 1.382 . S
C127 N125 1.371 . S
C127 C130 1.480 . S
C128 N125 1.372 . S
C128 N126 1.361 . S
C128 C136 1.457 . S
C129 N124 1.363 . S
C129 N126 1.377 . S
C129 C142 1.479 . S
C130 C127 1.480 . S
C130 C131 1.383 . S
C130 C135 1.385 . S
C131 H112 0.947 . S
C131 C130 1.383 . S
C131 C132 1.388 . S
C132 H113 0.946 . S
C132 C131 1.388 . S
C132 C133 1.384 . S
C133 C132 1.384 . S
C133 C134 1.377 . S
C134 H114 0.953 . S
C134 C133 1.377 . S
C134 C135 1.369 . S
C135 H115 0.945 . S
C135 C130 1.385 . S
C135 C134 1.369 . S
C136 C128 1.457 . S
C136 C137 1.372 . S
C136 C141 1.364 . S
C137 H116 0.952 . S
C137 C136 1.372 . S
C137 C138 1.389 . S
C138 H117 0.949 . S
C138 C137 1.389 . S
C138 C139 1.387 . S
C139 C138 1.387 . S
C139 C140 1.372 . S
C140 H118 0.950 . S
C140 C139 1.372 . S
C140 C141 1.379 . S
C141 H119 0.948 . S
C141 C136 1.364 . S
C141 C140 1.379 . S
C142 C111 1.383 . S
C142 C129 1.479 . S
C142 C143 1.398 . S
C143 C108 1.382 . S
C143 H120 0.951 . S
C143 C142 1.398 . S
C144 C145 1.384 . S
C144 H157 0.947 . S
C144 C179 1.382 . S
C145 C144 1.384 . S
C145 C146 1.378 . S
C146 C145 1.378 . S
C146 C147 1.378 . S
C146 H158 0.952 . S
C147 C146 1.378 . S
C147 H159 0.950 . S
C147 C178 1.383 . S
H148 C167 0.947 . S
H149 C168 0.946 . S
H150 C170 0.953 . S
H151 C171 0.945 . S
H152 C173 0.952 . S
H153 C174 0.949 . S
H154 C176 0.950 . S
H155 C177 0.948 . S
H156 C179 0.951 . S
H157 C144 0.947 . S
H158 C146 0.952 . S
H159 C147 0.950 . S
N160 C163 1.382 . S
N160 C165 1.363 . S
N161 C163 1.371 . S
N161 C164 1.372 . S
N162 C164 1.361 . S
N162 C165 1.377 . S
C163 N160 1.382 . S
C163 N161 1.371 . S
C163 C166 1.480 . S
C164 N161 1.372 . S
C164 N162 1.361 . S
C164 C172 1.457 . S
C165 N160 1.363 . S
C165 N162 1.377 . S
C165 C178 1.479 . S
C166 C163 1.480 . S
C166 C167 1.383 . S
C166 C171 1.385 . S
C167 H148 0.947 . S
C167 C166 1.383 . S
C167 C168 1.388 . S
C168 H149 0.946 . S
C168 C167 1.388 . S
C168 C169 1.384 . S
C169 C168 1.384 . S
C169 C170 1.377 . S
C170 H150 0.953 . S
C170 C169 1.377 . S
C170 C171 1.369 . S
C171 H151 0.945 . S
C171 C166 1.385 . S
C171 C170 1.369 . S
C172 C164 1.457 . S
C172 C173 1.372 . S
C172 C177 1.364 . S
C173 H152 0.952 . S
C173 C172 1.372 . S
C173 C174 1.389 . S
C174 H153 0.949 . S
C174 C173 1.389 . S
C174 C175 1.387 . S
C175 C174 1.387 . S
C175 C176 1.372 . S
C176 H154 0.950 . S
C176 C175 1.372 . S
C176 C177 1.379 . S
C177 H155 0.948 . S
C177 C172 1.364 . S
C177 C176 1.379 . S
C178 C147 1.383 . S
C178 C165 1.479 . S
C178 C179 1.398 . S
C179 C144 1.382 . S
C179 H156 0.951 . S
C179 C178 1.398 . S
C180 C181 1.384 . S
C180 H193 0.947 . S
C180 C215 1.382 . S
C181 C180 1.384 . S
C181 C182 1.378 . S
C182 C181 1.378 . S
C182 C183 1.378 . S
C182 H194 0.952 . S
C183 C182 1.378 . S
C183 H195 0.950 . S
C183 C214 1.383 . S
H184 C203 0.947 . S
H185 C204 0.946 . S
H186 C206 0.953 . S
H187 C207 0.945 . S
H188 C209 0.952 . S
H189 C210 0.949 . S
H190 C212 0.950 . S
H191 C213 0.948 . S
H192 C215 0.951 . S
H193 C180 0.947 . S
H194 C182 0.952 . S
H195 C183 0.950 . S
N196 C199 1.382 . S
N196 C201 1.363 . S
N197 C199 1.371 . S
N197 C200 1.372 . S
N198 C200 1.361 . S
N198 C201 1.377 . S
C199 N196 1.382 . S
C199 N197 1.371 . S
C199 C202 1.480 . S
C200 N197 1.372 . S
C200 N198 1.361 . S
C200 C208 1.457 . S
C201 N196 1.363 . S
C201 N198 1.377 . S
C201 C214 1.479 . S
C202 C199 1.480 . S
C202 C203 1.383 . S
C202 C207 1.385 . S
C203 H184 0.947 . S
C203 C202 1.383 . S
C203 C204 1.388 . S
C204 H185 0.946 . S
C204 C203 1.388 . S
C204 C205 1.384 . S
C205 C204 1.384 . S
C205 C206 1.377 . S
C206 H186 0.953 . S
C206 C205 1.377 . S
C206 C207 1.369 . S
C207 H187 0.945 . S
C207 C202 1.385 . S
C207 C206 1.369 . S
C208 C200 1.457 . S
C208 C209 1.372 . S
C208 C213 1.364 . S
C209 H188 0.952 . S
C209 C208 1.372 . S
C209 C210 1.389 . S
C210 H189 0.949 . S
C210 C209 1.389 . S
C210 C211 1.387 . S
C211 C210 1.387 . S
C211 C212 1.372 . S
C212 H190 0.950 . S
C212 C211 1.372 . S
C212 C213 1.379 . S
C213 H191 0.948 . S
C213 C208 1.364 . S
C213 C212 1.379 . S
C214 C183 1.383 . S
C214 C201 1.479 . S
C214 C215 1.398 . S
C215 C180 1.382 . S
C215 H192 0.951 . S
C215 C214 1.398 . S
C216 C217 1.384 . S
C216 H229 0.947 . S
C216 C251 1.382 . S
C217 C216 1.384 . S
C217 C218 1.378 . S
C218 C217 1.378 . S
C218 C219 1.378 . S
C218 H230 0.952 . S
C219 C218 1.378 . S
C219 H231 0.950 . S
C219 C250 1.383 . S
H220 C239 0.947 . S
H221 C240 0.946 . S
H222 C242 0.953 . S
H223 C243 0.945 . S
H224 C245 0.952 . S
H225 C246 0.949 . S
H226 C248 0.950 . S
H227 C249 0.948 . S
H228 C251 0.951 . S
H229 C216 0.947 . S
H230 C218 0.952 . S
H231 C219 0.950 . S
N232 C235 1.382 . S
N232 C237 1.363 . S
N233 C235 1.371 . S
N233 C236 1.372 . S
N234 C236 1.361 . S
N234 C237 1.377 . S
C235 N232 1.382 . S
C235 N233 1.371 . S
C235 C238 1.480 . S
C236 N233 1.372 . S
C236 N234 1.361 . S
C236 C244 1.457 . S
C237 N232 1.363 . S
C237 N234 1.377 . S
C237 C250 1.479 . S
C238 C235 1.480 . S
C238 C239 1.383 . S
C238 C243 1.385 . S
C239 H220 0.947 . S
C239 C238 1.383 . S
C239 C240 1.388 . S
C240 H221 0.946 . S
C240 C239 1.388 . S
C240 C241 1.384 . S
C241 C240 1.384 . S
C241 C242 1.377 . S
C242 H222 0.953 . S
C242 C241 1.377 . S
C242 C243 1.369 . S
C243 H223 0.945 . S
C243 C238 1.385 . S
C243 C242 1.369 . S
C244 C236 1.457 . S
C244 C245 1.372 . S
C244 C249 1.364 . S
C245 H224 0.952 . S
C245 C244 1.372 . S
C245 C246 1.389 . S
C246 H225 0.949 . S
C246 C245 1.389 . S
C246 C247 1.387 . S
C247 C246 1.387 . S
C247 C248 1.372 . S
C248 H226 0.950 . S
C248 C247 1.372 . S
C248 C249 1.379 . S
C249 H227 0.948 . S
C249 C244 1.364 . S
C249 C248 1.379 . S
C250 C219 1.383 . S
C250 C237 1.479 . S
C250 C251 1.398 . S
C251 C216 1.382 . S
C251 H228 0.951 . S
C251 C250 1.398 . S
C252 C253 1.384 . S
C252 H265 0.947 . S
C252 C287 1.382 . S
C253 C252 1.384 . S
C253 C254 1.378 . S
C254 C253 1.378 . S
C254 C255 1.378 . S
C254 H266 0.952 . S
C255 C254 1.378 . S
C255 H267 0.950 . S
C255 C286 1.383 . S
H256 C275 0.947 . S
H257 C276 0.946 . S
H258 C278 0.953 . S
H259 C279 0.945 . S
H260 C281 0.952 . S
H261 C282 0.949 . S
H262 C284 0.950 . S
H263 C285 0.948 . S
H264 C287 0.951 . S
H265 C252 0.947 . S
H266 C254 0.952 . S
H267 C255 0.950 . S
N268 C271 1.382 . S
N268 C273 1.363 . S
N269 C271 1.371 . S
N269 C272 1.372 . S
N270 C272 1.361 . S
N270 C273 1.377 . S
C271 N268 1.382 . S
C271 N269 1.371 . S
C271 C274 1.480 . S
C272 N269 1.372 . S
C272 N270 1.361 . S
C272 C280 1.457 . S
C273 N268 1.363 . S
C273 N270 1.377 . S
C273 C286 1.479 . S
C274 C271 1.480 . S
C274 C275 1.383 . S
C274 C279 1.385 . S
C275 H256 0.947 . S
C275 C274 1.383 . S
C275 C276 1.388 . S
C276 H257 0.946 . S
C276 C275 1.388 . S
C276 C277 1.384 . S
C277 C276 1.384 . S
C277 C278 1.377 . S
C278 H258 0.953 . S
C278 C277 1.377 . S
C278 C279 1.369 . S
C279 H259 0.945 . S
C279 C274 1.385 . S
C279 C278 1.369 . S
C280 C272 1.457 . S
C280 C281 1.372 . S
C280 C285 1.364 . S
C281 H260 0.952 . S
C281 C280 1.372 . S
C281 C282 1.389 . S
C282 H261 0.949 . S
C282 C281 1.389 . S
C282 C283 1.387 . S
C283 C282 1.387 . S
C283 C284 1.372 . S
C284 H262 0.950 . S
C284 C283 1.372 . S
C284 C285 1.379 . S
C285 H263 0.948 . S
C285 C280 1.364 . S
C285 C284 1.379 . S
C286 C255 1.383 . S
C286 C273 1.479 . S
C286 C287 1.398 . S
C287 C252 1.382 . S
C287 H264 0.951 . S
C287 C286 1.398 . S
O288 Mg289 1.990 . S
O288 C302 1.253 1_445 S
Mg289 O288 1.990 . S
Mg289 O292 2.180 . S
Mg289 O293 2.117 . S
Mg289 O307 2.030 1_545 S
O290 Mg291 2.072 1_665 S
O290 C302 1.260 . S
Mg291 O290 2.072 1_445 S
Mg291 O292 2.099 . S
Mg291 O294 2.079 . S
Mg291 O295 2.072 1_455 S
Mg291 O297 2.099 1_445 S
Mg291 O308 2.079 1_545 S
O292 Mg289 2.180 . S
O292 Mg291 2.099 . S
O292 C303 1.279 . S
O293 Mg289 2.117 . S
O293 C303 1.250 . S
O294 Mg291 2.079 . S
O294 C304 1.264 . S
O295 Mg291 2.072 1_655 S
O295 C305 1.260 . S
Mg296 O297 2.180 . S
Mg296 O298 2.030 1_565 S
Mg296 O299 1.990 1_565 S
Mg296 O300 2.117 . S
O297 Mg291 2.099 1_665 S
O297 Mg296 2.180 . S
O297 C306 1.279 . S
O298 Mg296 2.030 1_545 S
O298 C304 1.248 1_655 S
O299 Mg296 1.990 1_545 S
O299 C305 1.253 . S
O300 Mg296 2.117 . S
O300 C306 1.250 . S
C301 O307 1.248 . S
C301 O308 1.264 . S
C302 O288 1.253 1_665 S
C302 O290 1.260 . S
C303 O292 1.279 . S
C303 O293 1.250 . S
C304 O294 1.264 . S
C304 O298 1.248 1_455 S
C305 O295 1.260 . S
C305 O299 1.253 . S
C306 O297 1.279 . S
C306 O300 1.250 . S
O307 Mg289 2.030 1_565 S
O307 C301 1.248 . S
O308 Mg291 2.079 1_565 S
O308 C301 1.264 . S
O309 Mg310 1.990 . S
O309 C323 1.253 . S
Mg310 O309 1.990 . S
Mg310 O313 2.180 1_554 S
Mg310 O314 2.117 1_554 S
Mg310 O328 2.030 . S
O311 Mg312 2.072 . S
O311 C323 1.260 . S
Mg312 O311 2.072 . S
Mg312 O313 2.099 1_554 S
Mg312 O315 2.074 1_544 S
Mg312 O316 2.072 1_554 S
Mg312 O318 2.099 1_545 S
Mg312 O329 2.079 . S
O313 Mg310 2.180 1_556 S
O313 Mg312 2.099 1_556 S
O313 C324 1.279 . S
O314 Mg310 2.117 1_556 S
O314 C324 1.250 . S
O315 Mg312 2.074 1_566 S
O315 C325 1.275 . S
O316 Mg312 2.072 1_556 S
O316 C326 1.260 1_545 S
Mg317 O318 2.180 1_556 S
Mg317 O319 2.030 . S
Mg317 O320 1.990 . S
Mg317 O321 2.117 1_556 S
O318 Mg312 2.099 1_565 S
O318 Mg317 2.180 1_554 S
O318 C327 1.279 . S
O319 Mg317 2.030 . S
O319 C325 1.248 . S
O320 Mg317 1.990 . S
O320 C326 1.253 . S
O321 Mg317 2.117 1_554 S
O321 C327 1.250 . S
C322 O328 1.248 . S
C322 O329 1.264 . S
C323 O309 1.253 . S
C323 O311 1.260 . S
C324 O313 1.279 . S
C324 O314 1.250 . S
C325 O315 1.275 . S
C325 O319 1.248 . S
C326 O316 1.260 1_565 S
C326 O320 1.253 . S
C327 O318 1.279 . S
C327 O321 1.250 . S
O328 Mg310 2.030 . S
O328 C322 1.248 . S
O329 Mg312 2.079 . S
O329 C322 1.264 . S
O330 Mg331 1.990 . S
O330 C344 1.253 . S
Mg331 O330 1.990 . S
Mg331 O334 2.180 . S
Mg331 O335 2.117 . S
Mg331 O349 2.030 . S
O332 Mg333 2.072 . S
O332 C344 1.260 . S
Mg333 O332 2.072 . S
Mg333 O334 2.099 . S
Mg333 O336 2.079 . S
Mg333 O337 2.072 . S
Mg333 O339 2.099 . S
Mg333 O350 2.079 . S
O334 Mg331 2.180 . S
O334 Mg333 2.099 . S
O334 C345 1.279 . S
O335 Mg331 2.117 . S
O335 C345 1.250 . S
O336 Mg333 2.079 . S
O336 C346 1.264 . S
O337 Mg333 2.072 . S
O337 C347 1.260 . S
Mg338 O339 2.180 . S
Mg338 O340 2.030 . S
Mg338 O341 1.990 . S
Mg338 O342 2.117 . S
O339 Mg333 2.099 . S
O339 Mg338 2.180 . S
O339 C348 1.279 . S
O340 Mg338 2.030 . S
O340 C346 1.248 . S
O341 Mg338 1.990 . S
O341 C347 1.253 . S
O342 Mg338 2.117 . S
O342 C348 1.250 . S
C343 O349 1.248 . S
C343 O350 1.264 . S
C344 O330 1.253 . S
C344 O332 1.260 . S
C345 O334 1.279 . S
C345 O335 1.250 . S
C346 O336 1.264 . S
C346 O340 1.248 . S
C347 O337 1.260 . S
C347 O341 1.253 . S
C348 O339 1.279 . S
C348 O342 1.250 . S
O349 Mg331 2.030 . S
O349 C343 1.248 . S
O350 Mg333 2.079 . S
O350 C343 1.264 . S
O351 Mg352 1.990 . S
O351 C365 1.253 . S
Mg352 O351 1.990 . S
Mg352 O355 2.180 1_455 S
Mg352 O356 2.117 1_455 S
Mg352 O370 2.030 . S
O353 Mg354 2.072 . S
O353 C365 1.260 . S
Mg354 O353 2.072 . S
Mg354 O355 2.099 1_455 S
Mg354 O357 2.079 1_454 S
Mg354 O358 2.072 1_455 S
Mg354 O360 2.099 1_554 S
Mg354 O371 2.079 . S
O355 Mg352 2.180 1_655 S
O355 Mg354 2.099 1_655 S
O355 C366 1.279 . S
O356 Mg352 2.117 1_655 S
O356 C366 1.250 . S
O357 Mg354 2.079 1_656 S
O357 C367 1.264 . S
O358 Mg354 2.072 1_655 S
O358 C368 1.260 1_554 S
Mg359 O360 2.180 1_655 S
Mg359 O361 2.030 . S
Mg359 O362 1.990 . S
Mg359 O363 2.122 . S
O360 Mg354 2.099 1_556 S
O360 Mg359 2.180 1_455 S
O360 C369 1.279 . S
O361 Mg359 2.030 . S
O361 C367 1.248 . S
O362 Mg359 1.990 . S
O362 C368 1.253 . S
O363 Mg359 2.122 . S
O363 C369 1.245 1_655 S
C364 O370 1.248 . S
C364 O371 1.264 . S
C365 O351 1.253 . S
C365 O353 1.260 . S
C366 O355 1.279 . S
C366 O356 1.250 . S
C367 O357 1.264 . S
C367 O361 1.248 . S
C368 O358 1.260 1_556 S
C368 O362 1.253 . S
C369 O360 1.279 . S
C369 O363 1.245 1_455 S
O370 Mg352 2.030 . S
O370 C364 1.248 . S
O371 Mg354 2.079 . S
O371 C364 1.264 . S
C372 C373 1.387 . S
C372 H376 0.950 . S
C372 C381 1.390 . S
C373 C372 1.387 . S
C373 C375 1.387 . S
H374 C381 0.950 . S
C375 C373 1.387 . S
C375 C377 1.390 . S
C375 H379 0.950 . S
H376 C372 0.950 . S
C377 C375 1.390 . S
C377 C378 1.387 . S
C377 H380 0.950 1_545 S
C378 C377 1.387 . S
C378 C381 1.387 . S
H379 C375 0.950 . S
H380 C377 0.950 1_565 S
C381 C372 1.390 . S
C381 H374 0.950 . S
C381 C378 1.387 . S
C382 C383 1.387 . S
C382 H386 0.950 . S
C382 C391 1.390 . S
C383 C382 1.387 . S
C383 C385 1.387 . S
H384 C391 0.950 . S
C385 C383 1.387 . S
C385 C387 1.390 1_565 S
C385 H389 0.950 1_565 S
H386 C382 0.950 . S
C387 C385 1.390 1_545 S
C387 C388 1.387 1_545 S
C387 H390 0.950 . S
C388 C387 1.387 1_565 S
C388 C391 1.387 . S
H389 C385 0.950 1_545 S
H390 C387 0.950 . S
C391 C382 1.390 . S
C391 H384 0.950 . S
C391 C388 1.387 . S
C392 C393 1.387 . S
C392 H396 0.950 . S
C392 C401 1.390 . S
C393 C392 1.387 . S
C393 C395 1.387 . S
H394 C401 0.950 . S
C395 C393 1.387 . S
C395 C397 1.390 . S
C395 H399 0.950 . S
H396 C392 0.950 . S
C397 C395 1.390 . S
C397 C398 1.387 . S
C397 H400 0.950 . S
C398 C397 1.387 . S
C398 C401 1.387 . S
H399 C395 0.950 . S
H400 C397 0.950 . S
C401 C392 1.390 . S
C401 H394 0.950 . S
C401 C398 1.387 . S
C402 C403 1.387 . S
C402 H406 0.950 . S
C402 C411 1.390 . S
C403 C402 1.387 . S
C403 C405 1.387 . S
H404 C411 0.950 . S
C405 C403 1.387 . S
C405 C407 1.390 . S
C405 H409 0.950 . S
H406 C402 0.950 . S
C407 C405 1.390 . S
C407 C408 1.387 . S
C407 H410 0.950 . S
C408 C407 1.387 . S
C408 C411 1.387 . S
H409 C405 0.950 . S
H410 C407 0.950 . S
C411 C402 1.390 . S
C411 H404 0.950 . S
C411 C408 1.387 . S
C412 C413 1.387 . S
C412 H416 0.950 . S
C412 C421 1.390 . S
C413 C412 1.387 . S
C413 C415 1.387 . S
H414 C421 0.950 . S
C415 C413 1.387 . S
C415 C417 1.390 . S
C415 H419 0.950 . S
H416 C412 0.950 . S
C417 C415 1.390 . S
C417 C418 1.387 . S
C417 H420 0.950 . S
C418 C417 1.387 . S
C418 C421 1.387 . S
H419 C415 0.950 . S
H420 C417 0.950 . S
C421 C412 1.390 . S
C421 H414 0.950 . S
C421 C418 1.387 . S
C422 C423 1.387 . S
C422 H426 0.950 . S
C422 C431 1.390 . S
C423 C422 1.387 . S
C423 C425 1.387 . S
H424 C431 0.950 . S
C425 C423 1.387 . S
C425 C427 1.390 . S
C425 H429 0.950 . S
H426 C422 0.950 . S
C427 C425 1.390 . S
C427 C428 1.387 . S
C427 H430 0.950 . S
C428 C427 1.387 . S
C428 C431 1.387 . S
H429 C425 0.950 . S
H430 C427 0.950 . S
C431 C422 1.390 . S
C431 H424 0.950 . S
C431 C428 1.387 . S
C432 C433 1.387 . S
C432 H436 0.950 . S
C432 C441 1.390 . S
C433 C432 1.387 . S
C433 C435 1.387 . S
H434 C441 0.950 . S
C435 C433 1.387 . S
C435 C437 1.390 . S
C435 H439 0.950 . S
H436 C432 0.950 . S
C437 C435 1.390 . S
C437 C438 1.387 . S
C437 H440 0.950 . S
C438 C437 1.387 . S
C438 C441 1.387 . S
H439 C435 0.950 . S
H440 C437 0.950 . S
C441 C432 1.390 . S
C441 H434 0.950 . S
C441 C438 1.387 . S
C442 C443 1.387 . S
C442 H446 0.950 . S
C442 C451 1.390 . S
C443 C442 1.387 . S
C443 C445 1.387 . S
H444 C451 0.950 . S
C445 C443 1.387 . S
C445 C447 1.390 . S
C445 H449 0.950 . S
H446 C442 0.950 . S
C447 C445 1.390 . S
C447 C448 1.387 . S
C447 H450 0.950 . S
C448 C447 1.387 . S
C448 C451 1.387 . S
H449 C445 0.950 . S
H450 C447 0.950 . S
C451 C442 1.390 . S
C451 H444 0.950 . S
C451 C448 1.387 . S
C452 C453 1.387 . S
C452 H456 0.950 1_554 S
C452 C461 1.390 . S
C453 C452 1.387 . S
C453 C455 1.387 . S
H454 C461 0.950 1_556 S
C455 C453 1.387 . S
C455 C457 1.390 . S
C455 H459 0.950 . S
H456 C452 0.950 1_556 S
C457 C455 1.390 . S
C457 C458 1.387 . S
C457 H460 0.950 . S
C458 C457 1.387 . S
C458 C461 1.387 . S
H459 C455 0.950 . S
H460 C457 0.950 . S
C461 C452 1.390 . S
C461 H454 0.950 1_554 S
C461 C458 1.387 . S
C462 C463 1.387 . S
C462 H466 0.969 . S
C462 C471 1.390 . S
C463 C462 1.387 . S
C463 C465 1.387 . S
H464 C471 0.950 1_554 S
C465 C463 1.387 . S
C465 C467 1.390 . S
C465 H469 0.950 . S
H466 C462 0.969 . S
C467 C465 1.390 . S
C467 C468 1.387 . S
C467 H470 0.950 . S
C468 C467 1.387 . S
C468 C471 1.387 . S
H469 C465 0.950 . S
H470 C467 0.950 . S
C471 C462 1.390 . S
C471 H464 0.950 1_556 S
C471 C468 1.387 . S
C472 C473 1.387 . S
C472 H476 0.950 . S
C472 C481 1.390 . S
C473 C472 1.387 . S
C473 C475 1.387 . S
H474 C481 0.950 . S
C475 C473 1.387 . S
C475 C477 1.390 . S
C475 H479 0.950 . S
H476 C472 0.950 . S
C477 C475 1.390 . S
C477 C478 1.387 . S
C477 H480 0.950 . S
C478 C477 1.387 . S
C478 C481 1.387 . S
H479 C475 0.950 . S
H480 C477 0.950 . S
C481 C472 1.390 . S
C481 H474 0.950 . S
C481 C478 1.387 . S
C482 C483 1.387 . S
C482 H486 0.950 . S
C482 C491 1.390 . S
C483 C482 1.387 . S
C483 C485 1.387 . S
H484 C491 0.950 . S
C485 C483 1.387 . S
C485 C487 1.390 . S
C485 H489 0.950 . S
H486 C482 0.950 . S
C487 C485 1.390 . S
C487 C488 1.387 . S
C487 H490 0.950 . S
C488 C487 1.387 . S
C488 C491 1.387 . S
H489 C485 0.950 . S
H490 C487 0.950 . S
C491 C482 1.390 . S
C491 H484 0.950 . S
C491 C488 1.387 . S
C492 C493 1.387 . S
C492 H496 0.950 . S
C492 C501 1.390 . S
C493 C492 1.387 . S
C493 C495 1.387 . S
H494 C501 0.950 . S
C495 C493 1.387 . S
C495 C497 1.390 . S
C495 H499 0.950 1_565 S
H496 C492 0.950 . S
C497 C495 1.390 . S
C497 C498 1.387 . S
C497 H500 0.950 1_565 S
C498 C497 1.387 . S
C498 C501 1.387 . S
H499 C495 0.950 1_545 S
H500 C497 0.950 1_545 S
C501 C492 1.390 . S
C501 H494 0.950 . S
C501 C498 1.387 . S
C502 C503 1.387 . S
C502 H506 0.950 . S
C502 C511 1.390 . S
C503 C502 1.387 . S
C503 C505 1.387 . S
H504 C511 0.950 . S
C505 C503 1.387 . S
C505 C507 1.390 . S
C505 H509 0.950 . S
H506 C502 0.950 . S
C507 C505 1.390 . S
C507 C508 1.387 . S
C507 H510 0.950 . S
C508 C507 1.387 . S
C508 C511 1.387 . S
H509 C505 0.950 . S
H510 C507 0.950 . S
C511 C502 1.390 . S
C511 H504 0.950 . S
C511 C508 1.387 . S
C512 C513 1.387 . S
C512 H516 0.950 . S
C512 C521 1.390 . S
C513 C512 1.387 . S
C513 C515 1.387 . S
H514 C521 0.950 . S
C515 C513 1.387 . S
C515 C517 1.390 . S
C515 H519 0.950 . S
H516 C512 0.950 . S
C517 C515 1.390 . S
C517 C518 1.387 . S
C517 H520 0.950 . S
C518 C517 1.387 . S
C518 C521 1.387 . S
H519 C515 0.950 . S
H520 C517 0.950 . S
C521 C512 1.390 . S
C521 H514 0.950 . S
C521 C518 1.387 . S
C522 C523 1.387 . S
C522 H526 0.950 . S
C522 C531 1.390 . S
C523 C522 1.387 . S
C523 C525 1.387 . S
H524 C531 0.950 . S
C525 C523 1.387 . S
C525 C527 1.390 . S
C525 H529 0.950 . S
H526 C522 0.950 . S
C527 C525 1.390 . S
C527 C528 1.387 . S
C527 H530 0.950 . S
C528 C527 1.387 . S
C528 C531 1.387 . S
H529 C525 0.950 . S
H530 C527 0.950 . S
C531 C522 1.390 . S
C531 H524 0.950 . S
C531 C528 1.387 . S
C532 C533 1.387 . S
C532 H536 0.950 1_556 S
C532 C541 1.390 . S
C533 C532 1.387 . S
C533 C535 1.387 . S
H534 C541 0.950 1_554 S
C535 C533 1.387 . S
C535 C537 1.390 . S
C535 H539 0.950 . S
H536 C532 0.950 1_554 S
C537 C535 1.390 . S
C537 C538 1.387 . S
C537 H540 0.954 . S
C538 C537 1.387 . S
C538 C541 1.387 . S
H539 C535 0.950 . S
H540 C537 0.954 . S
C541 C532 1.390 . S
C541 H534 0.950 1_556 S
C541 C538 1.387 . S
C542 C543 1.387 . S
C542 H546 0.950 . S
C542 C551 1.390 . S
C543 C542 1.387 . S
C543 C545 1.387 . S
H544 C551 0.950 . S
C545 C543 1.387 . S
C545 C547 1.390 . S
C545 H549 0.950 . S
H546 C542 0.950 . S
C547 C545 1.390 . S
C547 C548 1.387 . S
C547 H550 0.950 . S
C548 C547 1.387 . S
C548 C551 1.387 . S
H549 C545 0.950 . S
H550 C547 0.950 . S
C551 C542 1.390 . S
C551 H544 0.950 . S
C551 C548 1.387 . S
C552 C553 1.387 . S
C552 H556 0.950 . S
C552 C561 1.390 . S
C553 C552 1.387 . S
C553 C555 1.387 . S
H554 C561 0.950 . S
C555 C553 1.387 . S
C555 C557 1.390 . S
C555 H559 0.950 . S
H556 C552 0.950 . S
C557 C555 1.390 . S
C557 C558 1.387 . S
C557 H560 0.950 . S
C558 C557 1.387 . S
C558 C561 1.387 . S
H559 C555 0.950 . S
H560 C557 0.950 . S
C561 C552 1.390 . S
C561 H554 0.950 . S
C561 C558 1.387 . S
C562 C563 1.387 . S
C562 H566 0.950 . S
C562 C571 1.390 . S
C563 C562 1.387 . S
C563 C565 1.387 . S
H564 C571 0.950 . S
C565 C563 1.387 . S
C565 C567 1.390 . S
C565 H569 0.950 . S
H566 C562 0.950 . S
C567 C565 1.390 . S
C567 C568 1.387 . S
C567 H570 0.950 . S
C568 C567 1.387 . S
C568 C571 1.387 . S
H569 C565 0.950 . S
H570 C567 0.950 . S
C571 C562 1.390 . S
C571 H564 0.950 . S
C571 C568 1.387 . S
C572 C573 1.387 . S
C572 H576 0.950 . S
C572 C581 1.390 . S
C573 C572 1.387 . S
C573 C575 1.387 . S
H574 C581 0.950 . S
C575 C573 1.387 . S
C575 C577 1.390 . S
C575 H579 0.950 1_655 S
H576 C572 0.950 . S
C577 C575 1.390 . S
C577 C578 1.387 . S
C577 H580 0.950 1_655 S
C578 C577 1.387 . S
C578 C581 1.387 . S
H579 C575 0.950 1_455 S
H580 C577 0.950 1_455 S
C581 C572 1.390 . S
C581 H574 0.950 . S
C581 C578 1.387 . S
C582 C583 1.387 . S
C582 H586 0.950 . S
C582 C591 1.390 . S
C583 C582 1.387 . S
C583 C585 1.387 . S
H584 C591 0.950 . S
C585 C583 1.387 . S
C585 C587 1.390 . S
C585 H589 0.950 . S
H586 C582 0.950 . S
C587 C585 1.390 . S
C587 C588 1.387 . S
C587 H590 0.950 . S
C588 C587 1.387 . S
C588 C591 1.387 . S
H589 C585 0.950 . S
H590 C587 0.950 . S
C591 C582 1.390 . S
C591 H584 0.950 . S
C591 C588 1.387 . S
C592 C593 1.387 . S
C592 H596 0.950 . S
C592 C601 1.390 . S
C593 C592 1.387 . S
C593 C595 1.387 . S
H594 C601 0.950 . S
C595 C593 1.387 . S
C595 C597 1.390 . S
C595 H599 0.950 . S
H596 C592 0.950 . S
C597 C595 1.390 . S
C597 C598 1.387 . S
C597 H600 0.950 . S
C598 C597 1.387 . S
C598 C601 1.387 . S
H599 C595 0.950 . S
H600 C597 0.950 . S
C601 C592 1.390 . S
C601 H594 0.950 . S
C601 C598 1.387 . S
C602 C603 1.387 . S
C602 H606 0.950 . S
C602 C611 1.390 . S
C603 C602 1.387 . S
C603 C605 1.387 . S
H604 C611 0.950 . S
C605 C603 1.387 . S
C605 C607 1.390 . S
C605 H609 0.950 . S
H606 C602 0.950 . S
C607 C605 1.390 . S
C607 C608 1.387 . S
C607 H610 0.950 . S
C608 C607 1.387 . S
C608 C611 1.387 . S
H609 C605 0.950 . S
H610 C607 0.950 . S
C611 C602 1.390 . S
C611 H604 0.950 . S
C611 C608 1.387 . S
C373 C1 1.573 . S
C378 C304 1.530 . S
C383 C67 1.492 . S
C388 C326 1.478 . S
C398 C345 1.195 . S
C393 C97 1.469 . S
C403 C133 1.866 . S
C408 C366 1.447 . S
C418 C323 1.738 . S
C413 C25 1.757 . S
C428 C301 1.670 . S
C423 C37 1.682 . S
C438 C368 1.360 . S
C433 C103 1.405 . S
C448 C347 1.527 . S
C443 C109 1.560 . S
C453 C31 1.685 . S
C458 C365 1.680 . S
C468 C324 1.275 . S
C463 C73 1.605 . S
C473 C139 1.719 . S
C478 C306 1.601 . S
C483 C61 1.513 . S
C488 C344 1.557 . S
C498 C302 1.538 . S
C493 C175 1.637 . S
C503 C181 1.348 . S
C508 C322 1.339 . S
C513 C247 1.558 . S
C518 C348 1.262 . S
C523 C277 1.798 . S
C528 C369 1.365 . S
C533 C145 1.710 . S
C538 C325 1.689 . S
C548 C305 1.707 . S
C543 C211 1.737 . S
C558 C364 1.254 . S
C553 C217 1.313 . S
C568 C343 1.576 . S
C563 C283 1.625 . S
C573 C169 1.565 . S
C578 C367 1.539 . S
C588 C327 1.257 . S
C583 C241 1.559 . S
C598 C303 1.449 . S
C593 C253 1.559 . S
C603 C205 1.475 . S
C608 C346 1.505 . S
