# Generated by pormake.
# Topology pth, (4,4)-cn, num edge types: 1
# Building blocks:
#     Node 0, Type 0, BuildingBlock: TATPOV_clean_sbu_0, # of connection points: 4
#     Node 1, Type 0, BuildingBlock: TATPOV_clean_sbu_0, # of connection points: 4
#     Node 2, Type 0, BuildingBlock: TATPOV_clean_sbu_0, # of connection points: 4
#     Node 3, Type 1, BuildingBlock: NAWXER_clean_linker_0, # of connection points: 4
#     Node 4, Type 1, BuildingBlock: NAWXER_clean_linker_0, # of connection points: 4
#     Node 5, Type 1, BuildingBlock: NAWXER_clean_linker_0, # of connection points: 4
#     Edge 6, Type (0, 1), BuildingBlock: ZUJKAS_clean_linker_0, # of connection points: 2
#     Edge 7, Type (0, 1), BuildingBlock: ZUJKAS_clean_linker_0, # of connection points: 2
#     Edge 8, Type (0, 1), BuildingBlock: ZUJKAS_clean_linker_0, # of connection points: 2
#     Edge 9, Type (0, 1), BuildingBlock: ZUJKAS_clean_linker_0, # of connection points: 2
#     Edge 10, Type (0, 1), BuildingBlock: ZUJKAS_clean_linker_0, # of connection points: 2
#     Edge 11, Type (0, 1), BuildingBlock: ZUJKAS_clean_linker_0, # of connection points: 2
#     Edge 12, Type (0, 1), BuildingBlock: ZUJKAS_clean_linker_0, # of connection points: 2
#     Edge 13, Type (0, 1), BuildingBlock: ZUJKAS_clean_linker_0, # of connection points: 2
#     Edge 14, Type (0, 1), BuildingBlock: ZUJKAS_clean_linker_0, # of connection points: 2
#     Edge 15, Type (0, 1), BuildingBlock: ZUJKAS_clean_linker_0, # of connection points: 2
#     Edge 16, Type (0, 1), BuildingBlock: ZUJKAS_clean_linker_0, # of connection points: 2
#     Edge 17, Type (0, 1), BuildingBlock: ZUJKAS_clean_linker_0, # of connection points: 2
# Relax obj value: 0.037
# Max RMSD: 0.160
# Mean RMSD: 0.080
data_MOF--net-pth--node1-TATPOV_clean_sbu_0--node2-NAWXER_clean_linker_0--edge1-ZUJKAS_clean_linker_0
_symmetry_space_group_name_H-M    P1
_symmetry_Int_Tables_number       1
_symmetry_cell_setting            triclinic
loop_
_symmetry_equiv_pos_as_xyz
'x, y, z'
_cell_length_a     36.357808
_cell_length_b     36.063718
_cell_length_c     80.053979
_cell_angle_alpha  92.424724
_cell_angle_beta   92.213872
_cell_angle_gamma 120.83048
loop_
_atom_site_label
_atom_site_type_symbol
_atom_site_fract_x
_atom_site_fract_y
_atom_site_fract_z
_atom_type_partial_charge
Zn0 Zn 0.12015 0.01764 0.03714 0.0
Zn1 Zn 0.08282 0.05361 0.05508 0.0
O2 O 0.0936 0.01794 0.07193 0.0
O3 O 0.1228 0.98756 0.05746 0.0
O4 O 0.05931 0.08487 0.06844 0.0
O5 O 0.16854 0.07693 0.0324 0.0
O6 O 0.1356 0.1046 0.04593 0.0
C7 C 0.10883 0.99306 0.07103 0.0
C8 C 0.0341 0.99244 0.02417 0.0
O9 O 0.0353 0.01602 0.03675 0.0
O10 O 0.06618 0.98854 0.02159 0.0
C11 C 0.04848 0.07818 0.08343 0.0
O12 O 0.05053 0.04764 0.09102 0.0
C13 C 0.16641 0.10954 0.03736 0.0
Zn14 Zn 0.11819 0.09031 0.36679 0.0
Zn15 Zn 0.05171 0.06556 0.38613 0.0
O16 O 0.10252 0.0786 0.4027 0.0
O17 O 0.15744 0.10002 0.38707 0.0
O18 O 0.00371 0.05269 0.40098 0.0
O19 O 0.11178 0.13869 0.35848 0.0
O20 O 0.05496 0.11509 0.37313 0.0
C21 C 0.14209 0.09174 0.40129 0.0
C22 C 0.04633 0.00208 0.35874 0.0
O23 O 0.02964 0.01012 0.37103 0.0
O24 O 0.08306 0.03067 0.3546 0.0
C25 C 0.99652 0.03117 0.41387 0.0
O26 O 0.02078 0.01515 0.41777 0.0
C27 C 0.07988 0.14097 0.36286 0.0
Zn28 Zn 0.07664 0.93267 0.73397 0.0
Zn29 Zn 0.03257 0.96468 0.71839 0.0
O30 O 0.0677 0.95877 0.70001 0.0
O31 O 0.10145 0.92984 0.71215 0.0
O32 O 0.99522 0.98231 0.70606 0.0
O33 O 0.02168 0.88146 0.74074 0.0
O34 O 0.9872 0.90944 0.72851 0.0
C35 C 0.0932 0.94442 0.69932 0.0
C36 C 0.09753 0.01868 0.7473 0.0
O37 O 0.0695 0.01429 0.73607 0.0
O38 O 0.10605 0.98892 0.74879 0.0
C39 C 0.00797 0.00939 0.69486 0.0
O40 O 0.0484 0.02891 0.69129 0.0
C41 C 0.98686 0.88001 0.73687 0.0
C42 C 0.95189 0.37437 0.24145 0.0
C43 C 0.98301 0.38958 0.25501 0.0
C44 C 0.94803 0.40366 0.23167 0.0
C45 C 0.9751 0.44842 0.23544 0.0
C46 C 0.00962 0.43436 0.25879 0.0
C47 C 0.00548 0.46344 0.24917 0.0
C48 C 0.97199 0.48051 0.22562 0.0
C49 C 0.01867 0.41189 0.19268 0.0
C50 C 0.99151 0.39058 0.17815 0.0
C51 C 0.01456 0.4426 0.20232 0.0
C52 C 0.98264 0.45198 0.19781 0.0
C53 C 0.96063 0.40122 0.17332 0.0
C54 C 0.95633 0.43174 0.18305 0.0
C55 C 0.97688 0.48326 0.20824 0.0
C56 C 0.02363 0.66694 0.20068 0.0
C57 C 0.00807 0.66362 0.18398 0.0
C58 C 0.01321 0.62991 0.209 0.0
C59 C 0.98537 0.58845 0.20114 0.0
C60 C 0.98105 0.622 0.17598 0.0
C61 C 0.96978 0.58491 0.18448 0.0
C62 C 0.97558 0.54895 0.20967 0.0
C63 C 0.93038 0.61956 0.24288 0.0
C64 C 0.95141 0.63279 0.25903 0.0
C65 C 0.93511 0.59049 0.23236 0.0
C66 C 0.96153 0.57475 0.23771 0.0
C67 C 0.97639 0.61555 0.26453 0.0
C68 C 0.9814 0.58695 0.25399 0.0
C69 C 0.96777 0.54438 0.22687 0.0
H70 H 0.931 0.33995 0.23831 0.0
H71 H 0.92395 0.39147 0.22125 0.0
H72 H 0.0334 0.44693 0.26932 0.0
H73 H 0.02642 0.49785 0.25235 0.0
H74 H 0.04341 0.40511 0.19651 0.0
H75 H 0.03634 0.45896 0.21331 0.0
H76 H 0.93917 0.38528 0.16221 0.0
H77 H 0.93184 0.4389 0.17924 0.0
H78 H 0.04411 0.69818 0.20741 0.0
H79 H 0.02755 0.63392 0.22155 0.0
H80 H 0.96926 0.61786 0.16301 0.0
H81 H 0.94912 0.55336 0.17797 0.0
H82 H 0.91094 0.63226 0.23826 0.0
H83 H 0.91833 0.58055 0.22004 0.0
H84 H 0.99218 0.62418 0.27702 0.0
H85 H 0.00138 0.57476 0.25854 0.0
N86 N 0.9672 0.51085 0.23416 0.0
N87 N 0.97871 0.51752 0.20094 0.0
C88 C 0.69594 0.06282 0.53102 0.0
C89 C 0.68345 0.03097 0.51774 0.0
C90 C 0.66509 0.06528 0.5401 0.0
C91 C 0.62118 0.03565 0.5362 0.0
C92 C 0.63942 0.00199 0.51365 0.0
C93 C 0.60863 0.00447 0.52274 0.0
C94 C 0.58797 0.03725 0.54579 0.0
C95 C 0.66378 0.0034 0.58097 0.0
C96 C 0.68658 0.03517 0.59422 0.0
C97 C 0.63153 0.00388 0.57108 0.0
C98 C 0.62178 0.03643 0.5741 0.0
C99 C 0.67592 0.06706 0.59747 0.0
C100 C 0.64367 0.06751 0.58755 0.0
C101 C 0.58846 0.03804 0.56349 0.0
C102 C 0.41048 -0.00103 0.57485 0.0
C103 C 0.41758 0.0275 0.58878 0.0
C104 C 0.44489 0.00272 0.56637 0.0
C105 C 0.48717 0.03524 0.57153 0.0
C106 C 0.46006 0.05965 0.5941 0.0
C107 C 0.49456 0.06328 0.58561 0.0
C108 C 0.5235 0.03926 0.5624 0.0
C109 C 0.45331 0.08217 0.52922 0.0
C110 C 0.43058 0.05341 0.51516 0.0
C111 C 0.48389 0.07813 0.53874 0.0
C112 C 0.49224 0.0451 0.53448 0.0
C113 C 0.43965 0.02086 0.51072 0.0
C114 C 0.47042 0.01696 0.52024 0.0
C115 C 0.52396 0.04024 0.54479 0.0
H116 H 0.72958 0.08554 0.53452 0.0
H117 H 0.67555 0.09032 0.55017 0.0
H118 H 0.6287 0.97763 0.5033 0.0
H119 H 0.57491 0.98163 0.51938 0.0
H120 H 0.67052 0.97784 0.57836 0.0
H121 H 0.6142 0.9788 0.56106 0.0
H122 H 0.69304 0.09218 0.60748 0.0
H123 H 0.63642 0.09272 0.59018 0.0
H124 H 0.37833 0.97317 0.57067 0.0
H125 H 0.43847 0.9799 0.55582 0.0
H126 H 0.46665 0.08231 0.60472 0.0
H127 H 0.52697 0.08842 0.58985 0.0
H128 H 0.44791 0.10822 0.53277 0.0
H129 H 0.50118 0.10098 0.54943 0.0
H130 H 0.42251 -0.00206 0.50005 0.0
H131 H 0.47655 0.99139 0.51669 0.0
N132 N 0.55577 0.03849 0.53712 0.0
N133 N 0.55611 0.03891 0.57113 0.0
C134 C 0.39372 0.39776 0.86808 0.0
C135 C 0.37155 0.40042 0.85381 0.0
C136 C 0.42768 0.43519 0.87649 0.0
C137 C 0.43955 0.47615 0.87106 0.0
C138 C 0.38364 0.44151 0.84839 0.0
C139 C 0.41737 0.47894 0.8569 0.0
C140 C 0.47728 0.5159 0.87908 0.0
C141 C 0.38495 0.45741 0.91988 0.0
C142 C 0.40295 0.44965 0.9342 0.0
C143 C 0.4112 0.48221 0.90753 0.0
C144 C 0.45566 0.49864 0.90914 0.0
C145 C 0.44743 0.46675 0.93588 0.0
C146 C 0.47345 0.49094 0.9235 0.0
C147 C 0.48488 0.52575 0.89661 0.0
C148 C 0.64353 0.70381 0.90426 0.0
C149 C 0.66107 0.69839 0.91927 0.0
C150 C 0.60882 0.66809 0.8952 0.0
C151 C 0.59172 0.62638 0.90089 0.0
C152 C 0.64431 0.65657 0.92473 0.0
C153 C 0.60999 0.62104 0.91567 0.0
C154 C 0.5527 0.58842 0.89256 0.0
C155 C 0.65104 0.62798 0.85444 0.0
C156 C 0.64019 0.63893 0.83913 0.0
C157 C 0.6206 0.60895 0.86625 0.0
C158 C 0.57884 0.60111 0.86315 0.0
C159 C 0.59828 0.63086 0.836 0.0
C160 C 0.56784 0.61189 0.84787 0.0
C161 C 0.54561 0.57815 0.87508 0.0
H162 H 0.38511 0.3667 0.87267 0.0
H163 H 0.44516 0.43199 0.88704 0.0
H164 H 0.36791 0.44479 0.83727 0.0
H165 H 0.42648 0.51015 0.85231 0.0
H166 H 0.35074 0.44485 0.91838 0.0
H167 H 0.39681 0.48881 0.89684 0.0
H168 H 0.4621 0.46079 0.94667 0.0
H169 H 0.50765 0.5034 0.9251 0.0
H170 H 0.65573 0.73577 0.89984 0.0
H171 H 0.59463 0.67326 0.88407 0.0
H172 H 0.65767 0.65132 0.93609 0.0
H173 H 0.59742 0.58924 0.92032 0.0
H174 H 0.6831 0.63408 0.85731 0.0
H175 H 0.62957 0.59959 0.87768 0.0
H176 H 0.58871 0.63833 0.82424 0.0
H177 H 0.53558 0.60539 0.84507 0.0
N178 N 0.50793 0.5426 0.86903 0.0
N179 N 0.52217 0.56165 0.90255 0.0
H180 H 0.03346 0.0795 0.11661 0.0
H181 H 0.01974 0.13045 0.13226 0.0
H182 H 0.02457 0.19317 0.08704 0.0
H183 H 0.03823 0.14238 0.07125 0.0
H184 H 0.0766 0.22334 0.13431 0.0
H185 H 0.91255 0.17199 0.10768 0.0
H186 H 0.93486 0.13736 0.10623 0.0
H187 H 0.95134 0.18083 0.09268 0.0
C188 C 0.0311 0.10378 0.10993 0.0
C189 C 0.03697 0.10687 0.09267 0.0
C190 C 0.02333 0.13289 0.11891 0.0
C191 C 0.02078 0.16526 0.11077 0.0
C192 C 0.02579 0.16798 0.0935 0.0
H193 H 0.99028 0.37991 0.14401 0.0
H194 H -0.00243 0.32525 0.12771 0.0
C195 C 0.03379 0.13903 0.08452 0.0
C196 C 0.01547 0.1978 0.12054 0.0
H197 H 0.9479 0.2363 0.12561 0.0
C198 C 0.04839 0.22609 0.13249 0.0
C199 C 0.97881 0.20145 0.11798 0.0
C200 C 0.94213 0.17114 0.10555 0.0
C201 C 0.04593 0.25845 0.14185 0.0
C202 C 0.00902 0.26185 0.13946 0.0
C203 C 0.97613 0.23358 0.12744 0.0
C204 C 0.00391 0.29444 0.14935 0.0
C205 C 0.08339 0.28935 0.15389 0.0
C206 C 0.00432 0.29478 0.16689 0.0
C207 C 0.00033 0.32601 0.17622 0.0
C208 C 0.99529 0.35719 0.16816 0.0
C209 C 0.9939 0.35618 0.15056 0.0
C210 C -0.00183 0.32507 0.14124 0.0
H211 H 0.11339 0.29037 0.15076 0.0
H212 H 0.08901 0.32266 0.1539 0.0
H213 H 0.0764 0.27845 0.16675 0.0
H214 H 0.00756 0.27075 0.17339 0.0
H215 H 0.00067 0.32544 0.18974 0.0
H216 H 0.97505 0.99109 0.44327 0.0
H217 H 0.91998 0.98505 0.46154 0.0
H218 H 0.88638 0.05422 0.42748 0.0
H219 H 0.94082 0.06003 0.40909 0.0
H220 H 0.91465 0.05263 0.47731 0.0
H221 H 0.76998 0.94732 0.43478 0.0
H222 H 0.82179 0.95401 0.43136 0.0
H223 H 0.80986 0.99444 0.42538 0.0
C224 C 0.95568 0.00468 0.43959 0.0
C225 C 0.96226 0.02593 0.42469 0.0
C226 C 0.92429 0.00125 0.45006 0.0
C227 C 0.89874 0.01867 0.44574 0.0
C228 C 0.90516 0.03978 0.43088 0.0
H229 H 0.75733 0.09752 0.50677 0.0
H230 H 0.81011 0.09258 0.4903 0.0
C231 C 0.93649 0.04327 0.42042 0.0
C232 C 0.86659 0.01656 0.4571 0.0
H233 H 0.76034 0.9829 0.45859 0.0
C234 C 0.88084 0.03706 0.47329 0.0
C235 C 0.82245 0.99576 0.45189 0.0
C236 C 0.80495 0.97126 0.43496 0.0
C237 C 0.85229 0.03857 0.48423 0.0
C238 C 0.80852 0.01961 0.47871 0.0
C239 C 0.79402 -0.00217 0.46273 0.0
C240 C 0.77731 0.02262 0.48919 0.0
C241 C 0.86922 0.06032 0.50161 0.0
C242 C 0.74099 0.9849 0.49377 0.0
C243 C 0.71074 0.98762 0.50317 0.0
C244 C 0.71612 0.02814 0.50808 0.0
C245 C 0.7526 0.06586 0.50345 0.0
C246 C 0.78281 0.0631 0.49404 0.0
H247 H 0.89991 0.06231 0.50545 0.0
H248 H 0.87532 0.09381 0.50179 0.0
H249 H 0.84557 0.04276 0.51097 0.0
H250 H 0.73611 0.95334 0.4901 0.0
H251 H 0.68327 0.95797 0.50669 0.0
H252 H 0.97298 0.80884 0.75286 0.0
H253 H 0.90934 0.75936 0.76704 0.0
H254 H 0.84658 0.82699 0.75073 0.0
H255 H 0.90959 0.87593 0.73619 0.0
H256 H 0.88026 0.78513 0.79275 0.0
H257 H 0.75042 0.70263 0.74211 0.0
H258 H 0.80652 0.73219 0.73797 0.0
H259 H 0.77852 0.7605 0.74188 0.0
C260 C 0.9453 0.81265 0.75199 0.0
C261 C 0.94644 0.84647 0.74345 0.0
C262 C 0.90896 0.78432 0.7601 0.0
C263 C 0.87305 0.78921 0.75983 0.0
C264 C 0.87348 0.82194 0.7508 0.0
H265 H 0.65482 0.70493 0.81944 0.0
H266 H 0.71009 0.7385 0.79939 0.0
C267 C 0.90971 0.85011 0.74257 0.0
C268 C 0.83731 0.76334 0.77048 0.0
H269 H 0.72831 0.69808 0.77017 0.0
C270 C 0.8471 0.76565 0.78778 0.0
C271 C 0.79404 0.73818 0.76398 0.0
C272 C 0.78173 0.73283 0.74544 0.0
C273 C 0.81475 0.74437 0.7988 0.0
C274 C 0.7715 0.71981 0.79233 0.0
C275 C 0.76159 0.71708 0.77505 0.0
C276 C 0.73622 0.69734 0.80348 0.0
C277 C 0.82694 0.74924 0.81735 0.0
C278 C 0.73226 0.66261 0.81213 0.0
C279 C 0.70068 0.64326 0.82351 0.0
C280 C 0.67246 0.6583 0.82645 0.0
C281 C 0.67583 0.69238 0.81739 0.0
C282 C 0.70741 0.71166 0.80597 0.0
H283 H 0.86052 0.77594 0.82059 0.0
H284 H 0.80507 0.75552 0.82464 0.0
H285 H 0.82393 0.71871 0.82127 0.0
H286 H 0.7539 0.65077 0.81018 0.0
H287 H 0.69836 0.61648 0.83001 0.0
H288 H 0.097 0.00644 0.10391 0.0
H289 H 0.08805 0.95999 0.12677 0.0
H290 H 0.10364 0.87373 0.09276 0.0
H291 H 0.11455 0.92073 0.07023 0.0
H292 H 0.02817 0.88132 0.1303 0.0
H293 H 0.17974 0.88157 0.13102 0.0
H294 H 0.1719 0.91915 0.11949 0.0
H295 H 0.15411 0.86555 0.11029 0.0
C296 C 0.09932 0.97798 0.10142 0.0
C297 C 0.10682 0.96745 0.0853 0.0
C298 C 0.09414 0.95143 0.11448 0.0
C299 C 0.09602 0.91373 0.11161 0.0
C300 C 0.10357 0.90335 0.0955 0.0
H301 H 0.96083 0.6764 0.15964 0.0
H302 H 0.98372 0.7397 0.1437 0.0
C303 C 0.1095 0.93018 0.08256 0.0
C304 C 0.08679 0.88328 0.12495 0.0
H305 H 0.11965 0.819 0.14194 0.0
C306 C 0.0486 0.86827 0.13308 0.0
C307 C 0.1138 0.86687 0.12894 0.0
C308 C 0.15738 0.88458 0.1221 0.0
C309 C 0.03561 0.83574 0.14437 0.0
C310 C 0.06059 0.81638 0.14708 0.0
C311 C 0.0999 0.83304 0.13964 0.0
C312 C 0.04619 0.77809 0.15712 0.0
C313 C 0.99537 0.8228 0.15329 0.0
C314 C 0.07422 0.77761 0.16955 0.0
C315 C 0.06192 0.74063 0.17821 0.0
C316 C 0.02094 0.70331 0.17486 0.0
C317 C 0.99279 0.70412 0.1625 0.0
C318 C 0.00552 0.7408 0.15357 0.0
H319 H 0.98983 0.85028 0.15487 0.0
H320 H 0.96731 0.79628 0.14565 0.0
H321 H -0.00304 0.81149 0.16584 0.0
H322 H 0.10596 0.80575 0.17242 0.0
H323 H 0.08505 0.74118 0.1873 0.0
H324 H 0.22914 0.12885 0.40355 0.0
H325 H 0.2737 0.12437 0.42603 0.0
H326 H 0.16258 0.05495 0.45444 0.0
H327 H 0.11743 0.05919 0.43193 0.0
H328 H 0.28566 0.15016 0.46215 0.0
H329 H 0.21223 0.97306 0.44663 0.0
H330 H 0.20732 0.00794 0.43234 0.0
H331 H 0.17636 0.99257 0.45039 0.0
C332 C 0.21415 0.11307 0.41465 0.0
C333 C 0.16964 0.094 0.41588 0.0
C334 C 0.23972 0.11065 0.4275 0.0
C335 C 0.22128 0.08889 0.44175 0.0
C336 C 0.17724 0.07151 0.44342 0.0
H337 H 0.37164 0.07268 0.52651 0.0
H338 H 0.31923 0.08166 0.50982 0.0
C339 C 0.15158 0.07414 0.43059 0.0
C340 C 0.24804 0.08231 0.45426 0.0
H341 H 0.26844 0.00565 0.46778 0.0
C342 C 0.28165 0.11854 0.46357 0.0
C343 C 0.24289 0.04103 0.45585 0.0
C344 C 0.20797 0.00132 0.44573 0.0
C345 C 0.31073 0.11463 0.47433 0.0
C346 C 0.30584 0.07343 0.47577 0.0
C347 C 0.27186 0.03712 0.46665 0.0
C348 C 0.33715 0.06773 0.48597 0.0
C349 C 0.34737 0.1547 0.48363 0.0
C350 C 0.36408 0.05636 0.47804 0.0
C351 C 0.39428 0.05156 0.4875 0.0
C352 C 0.39788 0.05771 0.50509 0.0
C353 C 0.37028 0.06848 0.51298 0.0
C354 C 0.34022 0.07348 0.50349 0.0
H355 H 0.35038 0.18485 0.47919 0.0
H356 H 0.34199 0.15384 0.49719 0.0
H357 H 0.37815 0.15577 0.48216 0.0
H358 H 0.36212 0.05182 0.4645 0.0
H359 H 0.41533 0.04381 0.481 0.0
H360 H 0.08333 0.08644 0.75009 0.0
H361 H 0.12234 0.15215 0.769 0.0
H362 H 0.20333 0.10702 0.7888 0.0
H363 H 0.16417 0.04113 0.77031 0.0
H364 H 0.1742 0.13873 0.81349 0.0
H365 H 0.24233 0.25425 0.76372 0.0
H366 H 0.18485 0.22033 0.76222 0.0
H367 H 0.21736 0.19651 0.75945 0.0
C368 C 0.10948 0.09056 0.75846 0.0
C369 C 0.12072 0.05859 0.75864 0.0
C370 C 0.13186 0.12821 0.76919 0.0
C371 C 0.1661 0.1347 0.78013 0.0
C372 C 0.17705 0.10268 0.78044 0.0
H373 H 0.3702 0.32474 0.84688 0.0
H374 H 0.31563 0.26026 0.83008 0.0
C375 C 0.15463 0.06503 0.76982 0.0
C376 C 0.19077 0.17462 0.7914 0.0
H377 H 0.25937 0.28389 0.7917 0.0
C378 C 0.19261 0.17051 0.80874 0.0
C379 C 0.21466 0.21605 0.78516 0.0
C380 C 0.21513 0.22224 0.76662 0.0
C381 C 0.21838 0.2066 0.81997 0.0
C382 C 0.24315 0.24773 0.81367 0.0
C383 C 0.24021 0.25219 0.79643 0.0
C384 C 0.27461 0.28599 0.82463 0.0
C385 C 0.21932 0.20045 0.83847 0.0
C386 C 0.26967 0.32189 0.82702 0.0
C387 C 0.30065 0.35875 0.83678 0.0
C388 C 0.33736 0.3605 0.84415 0.0
C389 C 0.34197 0.32426 0.84172 0.0
C390 C 0.31089 0.28739 0.83206 0.0
H391 H 0.19092 0.16962 0.84164 0.0
H392 H 0.24858 0.19958 0.84219 0.0
H393 H 0.22045 0.22773 0.84594 0.0
H394 H 0.2419 0.32137 0.82131 0.0
H395 H 0.29582 0.38586 0.83855 0.0
H396 H 0.92187 0.97168 0.69846 0.0
H397 H 0.86942 0.97927 0.68128 0.0
H398 H 0.97012 0.06956 0.65202 0.0
H399 H 0.02311 0.06245 0.66922 0.0
H400 H 0.90994 0.09452 0.66149 0.0
H401 H 0.82991 0.92643 0.63237 0.0
H402 H 0.83484 0.93063 0.65488 0.0
H403 H 0.88231 0.95256 0.64343 0.0
C404 C 0.93301 0.99334 0.68843 0.0
C405 C 0.97669 0.01622 0.68513 0.0
C406 C 0.90291 -0.00254 0.67858 0.0
C407 C 0.91583 0.0244 0.66523 0.0
C408 C 0.95953 0.04839 0.66222 0.0
H409 H 0.74808 0.01904 0.5836 0.0
H410 H 0.80494 0.01828 0.60067 0.0
C411 C 0.98972 0.04425 0.67205 0.0
C412 C 0.88355 0.02696 0.65428 0.0
H413 H 0.7956 0.96613 0.62705 0.0
C414 C 0.885 0.06655 0.65391 0.0
C415 C 0.85145 0.9905 0.64425 0.0
C416 C 0.84959 0.94768 0.64358 0.0
C417 C 0.8545 0.0704 0.64403 0.0
C418 C 0.82155 0.03355 0.63443 0.0
C419 C 0.8207 0.99423 0.63453 0.0
C420 C 0.78761 0.03501 0.62415 0.0
C421 C 0.85806 0.11392 0.64379 0.0
C422 C 0.75874 0.04421 0.63173 0.0
C423 C 0.72603 0.04438 0.62203 0.0
C424 C 0.72143 0.03513 0.60456 0.0
C425 C 0.75037 0.02578 0.59703 0.0
C426 C 0.78304 0.02558 0.60675 0.0
H427 H 0.89066 0.14072 0.64835 0.0
H428 H 0.85056 0.11985 0.63095 0.0
H429 H 0.83467 0.1146 0.65211 0.0
H430 H 0.76112 0.05062 0.64519 0.0
H431 H 0.70386 0.05099 0.62826 0.0
H432 H 0.95715 0.98904 0.02618 0.0
H433 H 0.89139 0.94492 0.0079 0.0
H434 H 0.95701 0.89785 0.97793 0.0
H435 H 0.02253 0.94137 0.996 0.0
H436 H 0.87672 0.94051 0.97049 0.0
H437 H 0.85163 0.7886 0.99578 0.0
H438 H 0.88647 0.84125 0.00652 0.0
H439 H 0.90425 0.82378 0.98886 0.0
C440 C 0.95766 0.96953 0.01563 0.0
C441 C 0.99497 0.96837 0.01266 0.0
C442 C 0.92014 0.9445 0.00519 0.0
C443 C 0.91943 0.91793 0.99172 0.0
C444 C 0.95694 0.91787 0.98839 0.0
H445 H 0.7351 0.76587 0.90877 0.0
H446 H 0.79628 0.82324 0.92644 0.0
C447 C 0.99433 0.94279 -0.00124 0.0
C448 C 0.87908 0.88836 0.98159 0.0
H449 H 0.80707 0.78114 0.97197 0.0
C450 C 0.8612 0.90566 0.97084 0.0
C451 C 0.85892 0.84303 0.98226 0.0
C452 C 0.87599 0.8229 0.99406 0.0
C453 C 0.82397 0.87848 0.9604 0.0
C454 C 0.80463 0.83309 0.96069 0.0
C455 C 0.82212 0.81598 0.97172 0.0
C456 C 0.76613 0.80225 0.94977 0.0
C457 C 0.80543 0.89846 0.94926 0.0
C458 C 0.72901 0.77164 0.95703 0.0
C459 C 0.69437 0.73885 0.94702 0.0
C460 C 0.69623 0.73593 0.92954 0.0
C461 C 0.73274 0.76759 0.92219 0.0
C462 C 0.76758 0.80041 0.93226 0.0
H463 H 0.81739 0.93273 0.95351 0.0
H464 H 0.81499 0.89771 0.93631 0.0
H465 H 0.76981 0.88 0.94889 0.0
H466 H 0.72729 0.77252 0.97051 0.0
H467 H 0.66636 0.71525 0.95299 0.0
H468 H 0.06749 0.97974 0.32932 0.0
H469 H 0.03088 0.9097 0.31346 0.0
H470 H 0.93577 0.85782 0.34993 0.0
H471 H 0.97248 0.92838 0.36608 0.0
H472 H 0.97302 0.80764 0.34219 0.0
H473 H 0.91692 0.84779 0.28438 0.0
H474 H 0.97229 0.88654 0.29036 0.0
H475 H 0.9315 0.88076 0.3039 0.0
C476 C 0.03862 0.95365 0.33397 0.0
C477 C 0.02295 0.95964 0.349 0.0
C478 C 0.01747 0.91371 0.32477 0.0
C479 C 0.98018 0.8789 0.33035 0.0
C480 C 0.96424 0.88456 0.34533 0.0
H481 H 0.88092 0.64051 0.26377 0.0
H482 H 0.87757 0.69476 0.28221 0.0
C483 C 0.98528 0.92479 0.35453 0.0
C484 C 0.96071 0.83595 0.32113 0.0
H485 H 0.92943 0.78783 0.28143 0.0
C486 C 0.96235 0.80279 0.32901 0.0
C487 C 0.94616 0.82944 0.30402 0.0
C488 C 0.94116 0.8629 0.29522 0.0
C489 C 0.95356 0.76482 0.31983 0.0
C490 C 0.94335 0.76033 0.30237 0.0
C491 C 0.93785 0.79167 0.2948 0.0
C492 C 0.9442 0.72668 0.2915 0.0
C493 C 0.95727 0.73073 0.32874 0.0
C494 C 0.98297 0.72752 0.29038 0.0
C495 C 0.98518 0.69723 0.27977 0.0
C496 C 0.94857 0.66528 0.27005 0.0
C497 C 0.90975 0.66483 0.27102 0.0
C498 C 0.90766 0.6955 0.28162 0.0
H499 H 0.9519 0.73216 0.34226 0.0
H500 H 0.93389 0.69777 0.32301 0.0
H501 H 0.9901 0.73639 0.32775 0.0
H502 H 0.01181 0.75212 0.29757 0.0
H503 H 0.01584 0.69929 0.27901 0.0
H504 H 0.09998 0.99154 0.67239 0.0
H505 H 0.1467 0.00539 0.64927 0.0
H506 H 0.18634 0.92091 0.66902 0.0
H507 H 0.13995 0.90683 0.69205 0.0
H508 H 0.23671 0.0429 0.65448 0.0
H509 H 0.16181 0.88355 0.61853 0.0
H510 H 0.13294 0.89765 0.63285 0.0
H511 H 0.16835 0.88031 0.64066 0.0
C512 C 0.11795 0.97519 0.67161 0.0
C513 C 0.11637 0.94818 0.68409 0.0
C514 C 0.14467 0.98324 0.65842 0.0
C515 C 0.16963 0.96386 0.65737 0.0
C516 C 0.16679 0.9356 0.66944 0.0
H517 H 0.41287 0.03511 0.6227 0.0
H518 H 0.3511 0.02373 0.63773 0.0
C519 C 0.14042 0.9278 0.68266 0.0
C520 C 0.20189 0.97619 0.64475 0.0
H521 H 0.23621 0.93356 0.61457 0.0
C522 C 0.23627 0.01919 0.64554 0.0
C523 C 0.20102 0.9453 0.63301 0.0
C524 C 0.16383 0.8992 0.63106 0.0
C525 C 0.27102 0.03158 0.63553 0.0
C526 C 0.27147 2e-05 0.6246 0.0
C527 C 0.23598 0.95759 0.62311 0.0
C528 C 0.30952 0.0097 0.61535 0.0
C529 C 0.30733 0.07814 0.63695 0.0
C530 C 0.30646 0.00527 0.59779 0.0
C531 C 0.34182 0.01201 0.58914 0.0
C532 C 0.38075 0.02282 0.59792 0.0
C533 C 0.3837 0.02759 0.61554 0.0
C534 C 0.34839 0.02103 0.62415 0.0
H535 H 0.29695 0.10014 0.64213 0.0
H536 H 0.33372 0.08144 0.64553 0.0
H537 H 0.32021 0.08869 0.62456 0.0
H538 H 0.27666 -0.00357 0.59079 0.0
H539 H 0.33862 0.00866 0.57557 0.0
H540 H 0.23156 0.1301 0.01686 0.0
H541 H 0.27438 0.19801 0.00392 0.0
H542 H 0.21359 0.25467 0.03164 0.0
H543 H 0.16971 0.18626 0.04444 0.0
H544 H 0.21039 0.26519 -0.00135 0.0
H545 H 0.37641 0.3142 0.01998 0.0
H546 H 0.34751 0.2594 0.01107 0.0
H547 H 0.33033 0.27359 0.02985 0.0
C548 C 0.22782 0.15719 0.0205 0.0
C549 C 0.19704 0.15264 0.03164 0.0
C550 C 0.2526 0.19617 0.01315 0.0
C551 C 0.24756 0.23159 0.01696 0.0
C552 C 0.2181 0.22776 0.02859 0.0
H553 H 0.41653 0.46749 0.96809 0.0
H554 H 0.37636 0.41953 0.98975 0.0
C555 C 0.19312 0.18867 0.03591 0.0
C556 C 0.26991 0.27077 0.00749 0.0
H557 H 0.36803 0.34309 0.99434 0.0
C558 C 0.24496 0.28277 0.99793 0.0
C559 C 0.31502 0.29415 0.00676 0.0
C560 C 0.34387 0.28495 0.01762 0.0
C561 C 0.2637 0.31594 0.98695 0.0
C562 C 0.3084 0.33689 0.98521 0.0
C563 C 0.33363 0.32658 0.99548 0.0
C564 C 0.32949 0.36783 0.97223 0.0
C565 C 0.23533 0.32785 0.97721 0.0
C566 C 0.31616 0.3549 0.9552 0.0
C567 C 0.33888 0.38234 0.94282 0.0
C568 C 0.37574 0.42288 0.94727 0.0
C569 C 0.38839 0.43623 0.96433 0.0
C570 C 0.36546 0.40895 0.97669 0.0
H571 H 0.20637 0.32028 0.98395 0.0
H572 H 0.25281 0.36277 0.9749 0.0
H573 H 0.22427 0.30869 0.96494 0.0
H574 H 0.28919 0.32288 0.95143 0.0
H575 H 0.32882 0.37103 0.92977 0.0
H576 H 0.0045 0.14089 0.36296 0.0
H577 H 0.98256 0.18066 0.34508 0.0
H578 H 0.10819 0.24645 0.32589 0.0
H579 H 0.13016 0.20642 0.34341 0.0
H580 H 0.01434 0.26862 0.3412 0.0
H581 H 0.02808 0.18658 0.28371 0.0
H582 H 0.02896 0.16851 0.30432 0.0
H583 H 0.07661 0.21346 0.29713 0.0
C584 C 0.02767 0.1643 0.35512 0.0
C585 C 0.0689 0.17007 0.35442 0.0
C586 C 0.01502 0.18688 0.34489 0.0
C587 C 0.0434 0.21553 0.33385 0.0
C588 C 0.08545 0.22353 0.33399 0.0
H589 H 0.05732 0.39291 0.26442 0.0
H590 H 0.0671 0.34696 0.28352 0.0
C591 C 0.09803 0.20084 0.3441 0.0
C592 C 0.02884 0.236 0.32173 0.0
H593 H 0.02052 0.24776 0.2799 0.0
C594 C 0.01514 0.2637 0.32779 0.0
C595 C 0.02946 0.22902 0.30423 0.0
C596 C 0.04114 0.19743 0.29693 0.0
C597 C 0.00402 0.28627 0.3168 0.0
C598 C 0.00652 0.28067 0.29939 0.0
C599 C 0.01885 0.25197 0.29329 0.0
C600 C -0.00043 0.30679 0.2874 0.0
C601 C 0.99124 0.31721 0.32381 0.0
C602 C 0.95819 0.29861 0.28305 0.0
C603 C 0.95246 0.32466 0.27205 0.0
C604 C 0.98812 0.35936 0.26541 0.0
C605 C 0.02936 0.36666 0.26951 0.0
C606 C 0.03499 0.34046 0.28036 0.0
H607 H 0.99451 0.3207 0.33773 0.0
H608 H 0.01132 0.34959 0.31897 0.0
H609 H 0.9573 0.30531 0.31962 0.0
H610 H 0.9305 0.27244 0.2883 0.0
H611 H 0.92039 0.31855 0.26914 0.0
loop_
_geom_bond_atom_site_label_1
_geom_bond_atom_site_label_2
_geom_bond_distance
_geom_bond_site_symmetry_2
_ccdc_geom_bond_type
Zn0 O3 2.031 1_545 S
Zn0 O5 2.049 . S
Zn0 O10 2.067 1_545 S
Zn1 O2 1.962 . S
Zn1 O4 1.986 . S
Zn1 O6 1.996 . S
Zn1 O9 1.943 . S
O2 Zn1 1.962 . S
O2 C7 1.254 1_545 S
O3 Zn0 2.031 1_565 S
O3 C7 1.269 . S
O4 Zn1 1.986 . S
O4 C11 1.262 . S
O5 Zn0 2.049 . S
O5 C13 1.260 . S
O6 Zn1 1.996 . S
O6 C13 1.257 . S
C7 O2 1.254 1_565 S
C7 O3 1.269 . S
C8 O9 1.262 . S
C8 O10 1.261 1_545 S
O9 Zn1 1.943 . S
O9 C8 1.262 . S
O10 Zn0 2.067 1_565 S
O10 C8 1.261 1_565 S
C11 O4 1.262 . S
C11 O12 1.232 . S
O12 C11 1.232 . S
C13 O5 1.260 . S
C13 O6 1.257 . S
Zn14 O17 2.031 . S
Zn14 O19 2.049 . S
Zn14 O24 2.067 . S
Zn15 O16 1.962 . S
Zn15 O18 1.986 1_455 S
Zn15 O20 1.996 . S
Zn15 O23 1.943 1_455 S
O16 Zn15 1.962 . S
O16 C21 1.254 . S
O17 Zn14 2.031 . S
O17 C21 1.269 . S
O18 Zn15 1.986 1_655 S
O18 C25 1.262 . S
O19 Zn14 2.049 . S
O19 C27 1.260 . S
O20 Zn15 1.996 . S
O20 C27 1.257 . S
C21 O16 1.254 . S
C21 O17 1.269 . S
C22 O23 1.249 1_455 S
C22 O24 1.270 . S
O23 Zn15 1.943 1_655 S
O23 C22 1.249 1_655 S
O24 Zn14 2.067 . S
O24 C22 1.270 . S
C25 O18 1.262 . S
C25 O26 1.232 . S
O26 C25 1.232 . S
C27 O19 1.260 . S
C27 O20 1.257 . S
Zn28 O31 2.031 1_565 S
Zn28 O33 2.049 . S
Zn28 O38 2.067 1_565 S
Zn29 O30 1.962 1_545 S
Zn29 O32 1.986 1_445 S
Zn29 O34 1.996 1_445 S
Zn29 O37 1.943 . S
O30 Zn29 1.962 1_565 S
O30 C35 1.254 . S
O31 Zn28 2.031 1_545 S
O31 C35 1.269 1_545 S
O32 Zn29 1.986 1_665 S
O32 C39 1.262 1_565 S
O33 Zn28 2.049 . S
O33 C41 1.260 1_455 S
O34 Zn29 1.996 1_665 S
O34 C41 1.257 . S
C35 O30 1.254 . S
C35 O31 1.269 1_565 S
C36 O37 1.249 . S
C36 O38 1.270 . S
O37 Zn29 1.943 . S
O37 C36 1.249 . S
O38 Zn28 2.067 1_545 S
O38 C36 1.270 . S
C39 O32 1.262 1_545 S
C39 O40 1.229 . S
O40 C39 1.229 . S
C41 O33 1.260 1_655 S
C41 O34 1.257 . S
C42 C43 1.384 . S
C42 C44 1.384 . S
C42 H70 0.931 1_455 S
C43 C42 1.384 . S
C43 C46 1.382 . S
C44 C42 1.384 . S
C44 C45 1.381 . S
C44 H71 0.930 1_455 S
C45 C44 1.381 . S
C45 C47 1.381 . S
C45 C48 1.487 . S
C46 C43 1.382 . S
C46 C47 1.387 . S
C46 H72 0.930 . S
C47 C45 1.381 . S
C47 C46 1.387 . S
C47 H73 0.931 . S
C48 C45 1.487 . S
C48 C55 1.399 . S
C48 N86 1.343 . S
C49 C50 1.384 . S
C49 C51 1.384 . S
C49 H74 0.931 . S
C50 C49 1.384 . S
C50 C53 1.382 . S
C51 C49 1.384 . S
C51 C52 1.381 . S
C51 H75 0.930 . S
C52 C51 1.381 . S
C52 C54 1.381 . S
C52 C55 1.487 . S
C53 C50 1.382 . S
C53 C54 1.387 . S
C53 H76 0.930 1_455 S
C54 C52 1.381 . S
C54 C53 1.387 . S
C54 H77 0.931 1_455 S
C55 C48 1.399 . S
C55 C52 1.487 . S
C55 N87 1.343 . S
C56 C57 1.384 . S
C56 C58 1.384 . S
C56 H78 0.931 . S
C57 C56 1.384 . S
C57 C60 1.382 . S
C58 C56 1.384 . S
C58 C59 1.381 . S
C58 H79 0.930 . S
C59 C58 1.381 . S
C59 C61 1.381 . S
C59 C62 1.487 . S
C60 C57 1.382 . S
C60 C61 1.387 . S
C60 H80 0.930 1_455 S
C61 C59 1.381 . S
C61 C60 1.387 . S
C61 H81 0.931 1_455 S
C62 C59 1.487 . S
C62 C69 1.399 . S
C62 N87 1.343 . S
C63 C64 1.384 . S
C63 C65 1.384 . S
C63 H82 0.931 1_455 S
C64 C63 1.384 . S
C64 C67 1.382 . S
C65 C63 1.384 . S
C65 C66 1.381 . S
C65 H83 0.930 1_455 S
C66 C65 1.381 . S
C66 C68 1.381 . S
C66 C69 1.487 . S
C67 C64 1.382 . S
C67 C68 1.387 . S
C67 H84 0.930 . S
C68 C66 1.381 . S
C68 C67 1.387 . S
C68 H85 0.931 . S
C69 C62 1.399 . S
C69 C66 1.487 . S
C69 N86 1.343 . S
H70 C42 0.931 1_655 S
H71 C44 0.930 1_655 S
H72 C46 0.930 . S
H73 C47 0.931 . S
H74 C49 0.931 . S
H75 C51 0.930 . S
H76 C53 0.930 1_655 S
H77 C54 0.931 1_655 S
H78 C56 0.931 . S
H79 C58 0.930 . S
H80 C60 0.930 1_655 S
H81 C61 0.931 1_655 S
H82 C63 0.931 1_655 S
H83 C65 0.930 1_655 S
H84 C67 0.930 . S
H85 C68 0.931 . S
N86 C48 1.343 . S
N86 C69 1.343 . S
N87 C55 1.343 . S
N87 C62 1.343 . S
C88 C89 1.384 . S
C88 C90 1.384 . S
C88 H116 0.931 . S
C89 C88 1.384 . S
C89 C92 1.382 . S
C90 C88 1.384 . S
C90 C91 1.381 . S
C90 H117 0.930 . S
C91 C90 1.381 . S
C91 C93 1.381 . S
C91 C94 1.487 . S
C92 C89 1.382 . S
C92 C93 1.387 . S
C92 H118 0.930 1_545 S
C93 C91 1.381 . S
C93 C92 1.387 . S
C93 H119 0.931 1_545 S
C94 C91 1.487 . S
C94 C101 1.399 . S
C94 N132 1.343 . S
C95 C96 1.381 1_565 S
C95 C97 1.380 1_565 S
C95 H120 0.938 . S
C96 C95 1.381 1_545 S
C96 C99 1.382 . S
C97 C95 1.380 1_545 S
C97 C98 1.381 . S
C97 H121 0.930 1_545 S
C98 C97 1.381 . S
C98 C100 1.381 . S
C98 C101 1.487 . S
C99 C96 1.382 . S
C99 C100 1.387 . S
C99 H122 0.930 . S
C100 C98 1.381 . S
C100 C99 1.387 . S
C100 H123 0.931 . S
C101 C94 1.399 . S
C101 C98 1.487 . S
C101 N133 1.343 . S
C102 C103 1.380 1_565 S
C102 C104 1.387 1_565 S
C102 H124 0.932 . S
C103 C102 1.380 1_545 S
C103 C106 1.382 . S
C104 C102 1.387 1_545 S
C104 C105 1.381 . S
C104 H125 0.930 1_545 S
C105 C104 1.381 . S
C105 C107 1.381 . S
C105 C108 1.487 . S
C106 C103 1.382 . S
C106 C107 1.387 . S
C106 H126 0.930 . S
C107 C105 1.381 . S
C107 C106 1.387 . S
C107 H127 0.931 . S
C108 C105 1.487 . S
C108 C115 1.399 . S
C108 N133 1.343 . S
C109 C110 1.384 . S
C109 C111 1.384 . S
C109 H128 0.931 . S
C110 C109 1.384 . S
C110 C113 1.382 . S
C111 C109 1.384 . S
C111 C112 1.381 . S
C111 H129 0.930 . S
C112 C111 1.381 . S
C112 C114 1.381 . S
C112 C115 1.487 . S
C113 C110 1.382 . S
C113 C114 1.387 . S
C113 H130 0.930 1_545 S
C114 C112 1.381 . S
C114 C113 1.387 . S
C114 H131 0.931 1_545 S
C115 C108 1.399 . S
C115 C112 1.487 . S
C115 N132 1.343 . S
H116 C88 0.931 . S
H117 C90 0.930 . S
H118 C92 0.930 1_565 S
H119 C93 0.931 1_565 S
H120 C95 0.938 . S
H121 C97 0.930 1_565 S
H122 C99 0.930 . S
H123 C100 0.931 . S
H124 C102 0.932 . S
H125 C104 0.930 1_565 S
H126 C106 0.930 . S
H127 C107 0.931 . S
H128 C109 0.931 . S
H129 C111 0.930 . S
H130 C113 0.930 1_565 S
H131 C114 0.931 1_565 S
N132 C94 1.343 . S
N132 C115 1.343 . S
N133 C101 1.343 . S
N133 C108 1.343 . S
C134 C135 1.384 . S
C134 C136 1.384 . S
C134 H162 0.931 . S
C135 C134 1.384 . S
C135 C138 1.382 . S
C136 C134 1.384 . S
C136 C137 1.381 . S
C136 H163 0.930 . S
C137 C136 1.381 . S
C137 C139 1.381 . S
C137 C140 1.487 . S
C138 C135 1.382 . S
C138 C139 1.387 . S
C138 H164 0.930 . S
C139 C137 1.381 . S
C139 C138 1.387 . S
C139 H165 0.931 . S
C140 C137 1.487 . S
C140 C147 1.399 . S
C140 N178 1.343 . S
C141 C142 1.384 . S
C141 C143 1.384 . S
C141 H166 0.931 . S
C142 C141 1.384 . S
C142 C145 1.382 . S
C143 C141 1.384 . S
C143 C144 1.381 . S
C143 H167 0.930 . S
C144 C143 1.381 . S
C144 C146 1.381 . S
C144 C147 1.487 . S
C145 C142 1.382 . S
C145 C146 1.387 . S
C145 H168 0.930 . S
C146 C144 1.381 . S
C146 C145 1.387 . S
C146 H169 0.931 . S
C147 C140 1.399 . S
C147 C144 1.487 . S
C147 N179 1.343 . S
C148 C149 1.384 . S
C148 C150 1.384 . S
C148 H170 0.931 . S
C149 C148 1.384 . S
C149 C152 1.382 . S
C150 C148 1.384 . S
C150 C151 1.381 . S
C150 H171 0.930 . S
C151 C150 1.381 . S
C151 C153 1.381 . S
C151 C154 1.487 . S
C152 C149 1.382 . S
C152 C153 1.387 . S
C152 H172 0.930 . S
C153 C151 1.381 . S
C153 C152 1.387 . S
C153 H173 0.931 . S
C154 C151 1.487 . S
C154 C161 1.399 . S
C154 N179 1.343 . S
C155 C156 1.384 . S
C155 C157 1.384 . S
C155 H174 0.931 . S
C156 C155 1.384 . S
C156 C159 1.382 . S
C157 C155 1.384 . S
C157 C158 1.381 . S
C157 H175 0.930 . S
C158 C157 1.381 . S
C158 C160 1.381 . S
C158 C161 1.487 . S
C159 C156 1.382 . S
C159 C160 1.387 . S
C159 H176 0.930 . S
C160 C158 1.381 . S
C160 C159 1.387 . S
C160 H177 0.931 . S
C161 C154 1.399 . S
C161 C158 1.487 . S
C161 N178 1.343 . S
H162 C134 0.931 . S
H163 C136 0.930 . S
H164 C138 0.930 . S
H165 C139 0.931 . S
H166 C141 0.931 . S
H167 C143 0.930 . S
H168 C145 0.930 . S
H169 C146 0.931 . S
H170 C148 0.931 . S
H171 C150 0.930 . S
H172 C152 0.930 . S
H173 C153 0.931 . S
H174 C155 0.931 . S
H175 C157 0.930 . S
H176 C159 0.930 . S
H177 C160 0.931 . S
N178 C140 1.343 . S
N178 C161 1.343 . S
N179 C147 1.343 . S
N179 C154 1.343 . S
H180 C188 0.929 . S
H181 C190 0.930 . S
H182 C192 0.930 . S
H183 C195 0.929 . S
H184 C198 0.930 . S
H185 C200 0.960 . S
H186 C200 0.960 . S
H187 C200 0.960 1_455 S
C188 H180 0.929 . S
C188 C189 1.377 . S
C188 C190 1.384 . S
C189 C188 1.377 . S
C189 C195 1.390 . S
C190 H181 0.930 . S
C190 C188 1.384 . S
C190 C191 1.372 . S
C191 C190 1.372 . S
C191 C192 1.400 . S
C191 C196 1.490 . S
C192 H182 0.930 . S
C192 C191 1.400 . S
C192 C195 1.386 . S
H193 C209 0.930 . S
H194 C210 0.931 . S
C195 H183 0.929 . S
C195 C189 1.390 . S
C195 C192 1.386 . S
C196 C191 1.490 . S
C196 C198 1.395 . S
C196 C199 1.403 . S
H197 C203 0.930 . S
C198 H184 0.930 . S
C198 C196 1.395 . S
C198 C201 1.403 . S
C199 C196 1.403 . S
C199 C200 1.524 1_455 S
C199 C203 1.400 . S
C200 H185 0.960 . S
C200 H186 0.960 . S
C200 H187 0.960 1_655 S
C200 C199 1.524 1_655 S
C201 C198 1.403 . S
C201 C202 1.392 . S
C201 C205 1.495 . S
C202 C201 1.392 . S
C202 C203 1.385 . S
C202 C204 1.478 . S
C203 H197 0.930 . S
C203 C199 1.400 . S
C203 C202 1.385 . S
C204 C202 1.478 . S
C204 C206 1.381 . S
C204 C210 1.383 . S
C205 C201 1.495 . S
C205 H211 0.959 . S
C205 H212 0.961 . S
C205 H213 0.960 . S
C206 C204 1.381 . S
C206 C207 1.394 . S
C206 H214 0.930 . S
C207 C206 1.394 . S
C207 C208 1.383 . S
C207 H215 0.929 . S
C208 C207 1.383 . S
C208 C209 1.377 . S
C209 H193 0.930 . S
C209 C208 1.377 . S
C209 C210 1.379 . S
C210 H194 0.931 . S
C210 C204 1.383 . S
C210 C209 1.379 . S
H211 C205 0.959 . S
H212 C205 0.961 . S
H213 C205 0.960 . S
H214 C206 0.930 . S
H215 C207 0.929 . S
H216 C224 0.929 1_565 S
H217 C226 0.930 1_565 S
H218 C228 0.930 . S
H219 C231 0.929 . S
H220 C234 0.930 . S
H221 C236 0.960 . S
H222 C236 0.931 1_565 S
H223 C236 0.960 . S
C224 H216 0.929 1_545 S
C224 C225 1.377 . S
C224 C226 1.384 . S
C225 C224 1.377 . S
C225 C231 1.390 . S
C226 H217 0.930 1_545 S
C226 C224 1.384 . S
C226 C227 1.372 . S
C227 C226 1.372 . S
C227 C228 1.400 . S
C227 C232 1.490 . S
C228 H218 0.930 . S
C228 C227 1.400 . S
C228 C231 1.386 . S
H229 C245 0.930 . S
H230 C246 0.931 . S
C231 H219 0.929 . S
C231 C225 1.390 . S
C231 C228 1.386 . S
C232 C227 1.490 . S
C232 C234 1.395 . S
C232 C235 1.403 . S
H233 C239 0.930 . S
C234 H220 0.930 . S
C234 C232 1.395 . S
C234 C237 1.403 . S
C235 C232 1.403 . S
C235 C236 1.524 . S
C235 C239 1.400 . S
C236 H221 0.960 . S
C236 H222 0.931 1_545 S
C236 H223 0.960 . S
C236 C235 1.524 . S
C237 C234 1.403 . S
C237 C238 1.392 . S
C237 C241 1.495 . S
C238 C237 1.392 . S
C238 C239 1.385 . S
C238 C240 1.478 . S
C239 H233 0.930 . S
C239 C235 1.400 . S
C239 C238 1.385 . S
C240 C238 1.478 . S
C240 C242 1.381 . S
C240 C246 1.383 . S
C241 C237 1.495 . S
C241 H247 0.959 . S
C241 H248 0.961 . S
C241 H249 0.960 . S
C242 C240 1.381 . S
C242 C243 1.394 . S
C242 H250 0.930 1_545 S
C243 C242 1.394 . S
C243 C244 1.383 . S
C243 H251 0.929 1_545 S
C244 C243 1.383 . S
C244 C245 1.377 . S
C245 H229 0.930 . S
C245 C244 1.377 . S
C245 C246 1.379 . S
C246 H230 0.931 . S
C246 C240 1.383 . S
C246 C245 1.379 . S
H247 C241 0.959 . S
H248 C241 0.961 . S
H249 C241 0.960 . S
H250 C242 0.930 1_565 S
H251 C243 0.929 1_565 S
H252 C260 0.929 . S
H253 C262 0.930 . S
H254 C264 0.930 . S
H255 C267 0.929 . S
H256 C270 0.930 . S
H257 C272 0.960 . S
H258 C272 0.960 . S
H259 C272 0.960 . S
C260 H252 0.929 . S
C260 C261 1.377 . S
C260 C262 1.384 . S
C261 C260 1.377 . S
C261 C267 1.390 . S
C262 H253 0.930 . S
C262 C260 1.384 . S
C262 C263 1.372 . S
C263 C262 1.372 . S
C263 C264 1.400 . S
C263 C268 1.490 . S
C264 H254 0.930 . S
C264 C263 1.400 . S
C264 C267 1.386 . S
H265 C281 0.930 . S
H266 C282 0.931 . S
C267 H255 0.929 . S
C267 C261 1.390 . S
C267 C264 1.386 . S
C268 C263 1.490 . S
C268 C270 1.395 . S
C268 C271 1.403 . S
H269 C275 0.930 . S
C270 H256 0.930 . S
C270 C268 1.395 . S
C270 C273 1.403 . S
C271 C268 1.403 . S
C271 C272 1.524 . S
C271 C275 1.400 . S
C272 H257 0.960 . S
C272 H258 0.960 . S
C272 H259 0.960 . S
C272 C271 1.524 . S
C273 C270 1.403 . S
C273 C274 1.392 . S
C273 C277 1.495 . S
C274 C273 1.392 . S
C274 C275 1.385 . S
C274 C276 1.478 . S
C275 H269 0.930 . S
C275 C271 1.400 . S
C275 C274 1.385 . S
C276 C274 1.478 . S
C276 C278 1.381 . S
C276 C282 1.383 . S
C277 C273 1.495 . S
C277 H283 0.959 . S
C277 H284 0.961 . S
C277 H285 0.960 . S
C278 C276 1.381 . S
C278 C279 1.394 . S
C278 H286 0.930 . S
C279 C278 1.394 . S
C279 C280 1.383 . S
C279 H287 0.929 . S
C280 C279 1.383 . S
C280 C281 1.377 . S
C281 H265 0.930 . S
C281 C280 1.377 . S
C281 C282 1.379 . S
C282 H266 0.931 . S
C282 C276 1.383 . S
C282 C281 1.379 . S
H283 C277 0.959 . S
H284 C277 0.961 . S
H285 C277 0.960 . S
H286 C278 0.930 . S
H287 C279 0.929 . S
H288 C296 0.929 1_545 S
H289 C298 0.930 . S
H290 C300 0.930 . S
H291 C303 0.929 . S
H292 C306 0.930 . S
H293 C308 0.960 . S
H294 C308 0.960 . S
H295 C308 0.960 . S
C296 H288 0.929 1_565 S
C296 C297 1.377 . S
C296 C298 1.384 . S
C297 C296 1.377 . S
C297 C303 1.390 . S
C298 H289 0.930 . S
C298 C296 1.384 . S
C298 C299 1.372 . S
C299 C298 1.372 . S
C299 C300 1.400 . S
C299 C304 1.490 . S
C300 H290 0.930 . S
C300 C299 1.400 . S
C300 C303 1.386 . S
H301 C317 0.930 1_655 S
H302 C318 0.931 1_655 S
C303 H291 0.929 . S
C303 C297 1.390 . S
C303 C300 1.386 . S
C304 C299 1.490 . S
C304 C306 1.395 . S
C304 C307 1.403 . S
H305 C311 0.930 . S
C306 H292 0.930 . S
C306 C304 1.395 . S
C306 C309 1.403 . S
C307 C304 1.403 . S
C307 C308 1.524 . S
C307 C311 1.400 . S
C308 H293 0.960 . S
C308 H294 0.960 . S
C308 H295 0.960 . S
C308 C307 1.524 . S
C309 C306 1.403 . S
C309 C310 1.392 . S
C309 C313 1.495 . S
C310 C309 1.392 . S
C310 C311 1.385 . S
C310 C312 1.478 . S
C311 H305 0.930 . S
C311 C307 1.400 . S
C311 C310 1.385 . S
C312 C310 1.478 . S
C312 C314 1.381 . S
C312 C318 1.383 . S
C313 C309 1.495 . S
C313 H319 0.959 . S
C313 H320 0.961 . S
C313 H321 0.960 . S
C314 C312 1.381 . S
C314 C315 1.394 . S
C314 H322 0.930 . S
C315 C314 1.394 . S
C315 C316 1.383 . S
C315 H323 0.929 . S
C316 C315 1.383 . S
C316 C317 1.377 . S
C317 H301 0.930 1_455 S
C317 C316 1.377 . S
C317 C318 1.379 . S
C318 H302 0.931 1_455 S
C318 C312 1.383 . S
C318 C317 1.379 . S
H319 C313 0.959 . S
H320 C313 0.961 . S
H321 C313 0.960 . S
H322 C314 0.930 . S
H323 C315 0.929 . S
H324 C332 0.929 . S
H325 C334 0.930 . S
H326 C336 0.930 . S
H327 C339 0.929 . S
H328 C342 0.930 . S
H329 C344 0.960 . S
H330 C344 0.960 . S
H331 C344 0.960 1_545 S
C332 H324 0.929 . S
C332 C333 1.377 . S
C332 C334 1.384 . S
C333 C332 1.377 . S
C333 C339 1.390 . S
C334 H325 0.930 . S
C334 C332 1.384 . S
C334 C335 1.372 . S
C335 C334 1.372 . S
C335 C336 1.400 . S
C335 C340 1.490 . S
C336 H326 0.930 . S
C336 C335 1.400 . S
C336 C339 1.386 . S
H337 C353 0.930 . S
H338 C354 0.931 . S
C339 H327 0.929 . S
C339 C333 1.390 . S
C339 C336 1.386 . S
C340 C335 1.490 . S
C340 C342 1.395 . S
C340 C343 1.403 . S
H341 C347 0.930 . S
C342 H328 0.930 . S
C342 C340 1.395 . S
C342 C345 1.403 . S
C343 C340 1.403 . S
C343 C344 1.524 1_545 S
C343 C347 1.400 . S
C344 H329 0.960 . S
C344 H330 0.960 . S
C344 H331 0.960 1_565 S
C344 C343 1.524 1_565 S
C345 C342 1.403 . S
C345 C346 1.392 . S
C345 C349 1.495 . S
C346 C345 1.392 . S
C346 C347 1.385 . S
C346 C348 1.478 . S
C347 H341 0.930 . S
C347 C343 1.400 . S
C347 C346 1.385 . S
C348 C346 1.478 . S
C348 C350 1.381 . S
C348 C354 1.383 . S
C349 C345 1.495 . S
C349 H355 0.959 . S
C349 H356 0.961 . S
C349 H357 0.960 . S
C350 C348 1.381 . S
C350 C351 1.394 . S
C350 H358 0.930 . S
C351 C350 1.394 . S
C351 C352 1.383 . S
C351 H359 0.929 . S
C352 C351 1.383 . S
C352 C353 1.377 . S
C353 H337 0.930 . S
C353 C352 1.377 . S
C353 C354 1.379 . S
C354 H338 0.931 . S
C354 C348 1.383 . S
C354 C353 1.379 . S
H355 C349 0.959 . S
H356 C349 0.961 . S
H357 C349 0.960 . S
H358 C350 0.930 . S
H359 C351 0.929 . S
H360 C368 0.929 . S
H361 C370 0.930 . S
H362 C372 0.930 . S
H363 C375 0.929 . S
H364 C378 0.930 . S
H365 C380 0.960 . S
H366 C380 0.960 . S
H367 C380 0.960 . S
C368 H360 0.929 . S
C368 C369 1.377 . S
C368 C370 1.384 . S
C369 C368 1.377 . S
C369 C375 1.390 . S
C370 H361 0.930 . S
C370 C368 1.384 . S
C370 C371 1.372 . S
C371 C370 1.372 . S
C371 C372 1.400 . S
C371 C376 1.490 . S
C372 H362 0.930 . S
C372 C371 1.400 . S
C372 C375 1.386 . S
H373 C389 0.930 . S
H374 C390 0.931 . S
C375 H363 0.929 . S
C375 C369 1.390 . S
C375 C372 1.386 . S
C376 C371 1.490 . S
C376 C378 1.395 . S
C376 C379 1.403 . S
H377 C383 0.930 . S
C378 H364 0.930 . S
C378 C376 1.395 . S
C378 C381 1.403 . S
C379 C376 1.403 . S
C379 C380 1.524 . S
C379 C383 1.400 . S
C380 H365 0.960 . S
C380 H366 0.960 . S
C380 H367 0.960 . S
C380 C379 1.524 . S
C381 C378 1.403 . S
C381 C382 1.392 . S
C381 C385 1.495 . S
C382 C381 1.392 . S
C382 C383 1.385 . S
C382 C384 1.478 . S
C383 H377 0.930 . S
C383 C379 1.400 . S
C383 C382 1.385 . S
C384 C382 1.478 . S
C384 C386 1.381 . S
C384 C390 1.383 . S
C385 C381 1.495 . S
C385 H391 0.959 . S
C385 H392 0.961 . S
C385 H393 0.960 . S
C386 C384 1.381 . S
C386 C387 1.394 . S
C386 H394 0.930 . S
C387 C386 1.394 . S
C387 C388 1.383 . S
C387 H395 0.929 . S
C388 C387 1.383 . S
C388 C389 1.377 . S
C389 H373 0.930 . S
C389 C388 1.377 . S
C389 C390 1.379 . S
C390 H374 0.931 . S
C390 C384 1.383 . S
C390 C389 1.379 . S
H391 C385 0.959 . S
H392 C385 0.961 . S
H393 C385 0.960 . S
H394 C386 0.930 . S
H395 C387 0.929 . S
H396 C404 0.929 1_565 S
H397 C406 0.930 1_565 S
H398 C408 0.930 . S
H399 C411 0.929 . S
H400 C414 0.930 . S
H401 C416 0.960 . S
H402 C416 0.960 . S
H403 C416 0.963 . S
C404 H396 0.929 1_545 S
C404 C405 1.377 . S
C404 C406 1.384 . S
C405 C404 1.377 . S
C405 C411 1.390 . S
C406 H397 0.930 1_545 S
C406 C404 1.384 . S
C406 C407 1.372 . S
C407 C406 1.372 . S
C407 C408 1.400 . S
C407 C412 1.490 . S
C408 H398 0.930 . S
C408 C407 1.400 . S
C408 C411 1.386 . S
H409 C425 0.930 . S
H410 C426 0.931 . S
C411 H399 0.929 . S
C411 C405 1.390 . S
C411 C408 1.386 . S
C412 C407 1.490 . S
C412 C414 1.395 . S
C412 C415 1.403 . S
H413 C419 0.930 1_565 S
C414 H400 0.930 . S
C414 C412 1.395 . S
C414 C417 1.403 . S
C415 C412 1.403 . S
C415 C416 1.524 1_545 S
C415 C419 1.400 . S
C416 H401 0.960 . S
C416 H402 0.960 . S
C416 H403 0.963 . S
C416 C415 1.524 1_565 S
C417 C414 1.403 . S
C417 C418 1.392 . S
C417 C421 1.495 . S
C418 C417 1.392 . S
C418 C419 1.385 . S
C418 C420 1.478 . S
C419 H413 0.930 1_545 S
C419 C415 1.400 . S
C419 C418 1.385 . S
C420 C418 1.478 . S
C420 C422 1.381 . S
C420 C426 1.383 . S
C421 C417 1.495 . S
C421 H427 0.959 . S
C421 H428 0.961 . S
C421 H429 0.960 . S
C422 C420 1.381 . S
C422 C423 1.394 . S
C422 H430 0.930 1_545 S
C423 C422 1.394 . S
C423 C424 1.383 . S
C423 H431 0.929 1_545 S
C424 C423 1.383 . S
C424 C425 1.377 . S
C425 H409 0.930 . S
C425 C424 1.377 . S
C425 C426 1.379 . S
C426 H410 0.931 . S
C426 C420 1.383 . S
C426 C425 1.379 . S
H427 C421 0.959 . S
H428 C421 0.961 . S
H429 C421 0.960 . S
H430 C422 0.930 1_565 S
H431 C423 0.929 1_565 S
H432 C440 0.929 . S
H433 C442 0.930 . S
H434 C444 0.930 1_556 S
H435 C447 0.943 . S
H436 C450 0.930 . S
H437 C452 0.960 . S
H438 C452 0.960 . S
H439 C452 0.960 . S
C440 H432 0.929 . S
C440 C441 1.377 . S
C440 C442 1.384 . S
C441 C440 1.377 . S
C441 C447 1.390 . S
C442 H433 0.930 . S
C442 C440 1.384 . S
C442 C443 1.372 . S
C443 C442 1.372 . S
C443 C444 1.400 . S
C443 C448 1.490 1_554 S
C444 H434 0.930 1_554 S
C444 C443 1.400 . S
C444 C447 1.386 . S
H445 C461 0.930 . S
H446 C462 0.931 . S
C447 H435 0.943 . S
C447 C441 1.390 . S
C447 C444 1.386 . S
C448 C443 1.490 1_556 S
C448 C450 1.395 1_556 S
C448 C451 1.403 . S
H449 C455 0.930 . S
C450 H436 0.930 . S
C450 C448 1.395 1_554 S
C450 C453 1.403 1_554 S
C451 C448 1.403 . S
C451 C452 1.524 . S
C451 C455 1.400 . S
C452 H437 0.960 . S
C452 H438 0.960 . S
C452 H439 0.960 . S
C452 C451 1.524 . S
C453 C450 1.403 1_556 S
C453 C454 1.392 . S
C453 C457 1.489 1_556 S
C454 C453 1.392 . S
C454 C455 1.385 . S
C454 C456 1.478 . S
C455 H449 0.930 . S
C455 C451 1.400 . S
C455 C454 1.385 . S
C456 C454 1.478 . S
C456 C458 1.381 . S
C456 C462 1.383 . S
C457 C453 1.489 1_554 S
C457 H463 0.971 . S
C457 H464 0.955 1_554 S
C457 H465 0.960 . S
C458 C456 1.381 . S
C458 C459 1.394 . S
C458 H466 0.930 . S
C459 C458 1.394 . S
C459 C460 1.383 . S
C459 H467 0.929 . S
C460 C459 1.383 . S
C460 C461 1.377 . S
C461 H445 0.930 . S
C461 C460 1.377 . S
C461 C462 1.379 . S
C462 H446 0.931 . S
C462 C456 1.383 . S
C462 C461 1.379 . S
H463 C457 0.971 . S
H464 C457 0.955 1_556 S
H465 C457 0.960 . S
H466 C458 0.930 . S
H467 C459 0.929 . S
H468 C476 0.929 . S
H469 C478 0.930 . S
H470 C480 0.930 . S
H471 C483 0.929 . S
H472 C486 0.930 . S
H473 C488 0.960 . S
H474 C488 0.960 1_455 S
H475 C488 0.960 . S
C476 H468 0.929 . S
C476 C477 1.377 . S
C476 C478 1.384 . S
C477 C476 1.377 . S
C477 C483 1.390 1_455 S
C478 H469 0.930 . S
C478 C476 1.384 . S
C478 C479 1.372 . S
C479 C478 1.372 . S
C479 C480 1.400 1_455 S
C479 C484 1.490 . S
C480 H470 0.930 . S
C480 C479 1.400 1_655 S
C480 C483 1.386 . S
H481 C497 0.930 . S
H482 C498 0.931 . S
C483 H471 0.929 . S
C483 C477 1.390 1_655 S
C483 C480 1.386 . S
C484 C479 1.490 . S
C484 C486 1.395 . S
C484 C487 1.403 . S
H485 C491 0.930 . S
C486 H472 0.930 . S
C486 C484 1.395 . S
C486 C489 1.403 . S
C487 C484 1.403 . S
C487 C488 1.524 1_455 S
C487 C491 1.400 . S
C488 H473 0.960 . S
C488 H474 0.960 1_655 S
C488 H475 0.960 . S
C488 C487 1.524 1_655 S
C489 C486 1.403 . S
C489 C490 1.392 . S
C489 C493 1.495 . S
C490 C489 1.392 . S
C490 C491 1.385 . S
C490 C492 1.478 . S
C491 H485 0.930 . S
C491 C487 1.400 . S
C491 C490 1.385 . S
C492 C490 1.478 . S
C492 C494 1.381 . S
C492 C498 1.383 1_455 S
C493 C489 1.495 . S
C493 H499 0.959 . S
C493 H500 0.961 . S
C493 H501 0.960 . S
C494 C492 1.381 . S
C494 C495 1.394 . S
C494 H502 0.930 . S
C495 C494 1.394 . S
C495 C496 1.383 . S
C495 H503 0.929 . S
C496 C495 1.383 . S
C496 C497 1.377 1_455 S
C497 H481 0.930 . S
C497 C496 1.377 1_655 S
C497 C498 1.379 . S
C498 H482 0.931 . S
C498 C492 1.383 1_655 S
C498 C497 1.379 . S
H499 C493 0.959 . S
H500 C493 0.961 . S
H501 C493 0.960 . S
H502 C494 0.930 . S
H503 C495 0.929 . S
H504 C512 0.929 . S
H505 C514 0.930 . S
H506 C516 0.930 . S
H507 C519 0.929 . S
H508 C522 0.930 . S
H509 C524 0.960 . S
H510 C524 0.960 . S
H511 C524 0.960 . S
C512 H504 0.929 . S
C512 C513 1.377 . S
C512 C514 1.384 . S
C513 C512 1.377 . S
C513 C519 1.390 1_565 S
C514 H505 0.930 . S
C514 C512 1.384 . S
C514 C515 1.372 1_565 S
C515 C514 1.372 1_545 S
C515 C516 1.400 . S
C515 C520 1.490 . S
C516 H506 0.930 . S
C516 C515 1.400 . S
C516 C519 1.386 . S
H517 C533 0.930 . S
H518 C534 0.931 . S
C519 H507 0.929 . S
C519 C513 1.390 1_545 S
C519 C516 1.386 . S
C520 C515 1.490 . S
C520 C522 1.395 . S
C520 C523 1.403 1_545 S
H521 C527 0.930 . S
C522 H508 0.930 . S
C522 C520 1.395 . S
C522 C525 1.403 . S
C523 C520 1.403 1_565 S
C523 C524 1.524 . S
C523 C527 1.400 . S
C524 H509 0.960 . S
C524 H510 0.960 . S
C524 H511 0.960 . S
C524 C523 1.524 . S
C525 C522 1.403 . S
C525 C526 1.392 . S
C525 C529 1.495 . S
C526 C525 1.392 . S
C526 C527 1.385 1_545 S
C526 C528 1.478 . S
C527 H521 0.930 . S
C527 C523 1.400 . S
C527 C526 1.385 1_565 S
C528 C526 1.478 . S
C528 C530 1.381 1_545 S
C528 C534 1.383 . S
C529 C525 1.495 . S
C529 H535 0.959 . S
C529 H536 0.961 . S
C529 H537 0.960 . S
C530 C528 1.381 1_565 S
C530 C531 1.394 . S
C530 H538 0.930 . S
C531 C530 1.394 . S
C531 C532 1.383 1_565 S
C531 H539 0.929 . S
C532 C531 1.383 1_545 S
C532 C533 1.377 . S
C533 H517 0.930 . S
C533 C532 1.377 . S
C533 C534 1.379 . S
C534 H518 0.931 . S
C534 C528 1.383 . S
C534 C533 1.379 . S
H535 C529 0.959 . S
H536 C529 0.961 . S
H537 C529 0.960 . S
H538 C530 0.930 . S
H539 C531 0.929 . S
H540 C548 0.929 . S
H541 C550 0.930 . S
H542 C552 0.930 . S
H543 C555 0.929 . S
H544 C558 0.930 . S
H545 C560 0.960 . S
H546 C560 0.960 . S
H547 C560 0.960 1_554 S
C548 H540 0.929 . S
C548 C549 1.377 . S
C548 C550 1.384 1_554 S
C549 C548 1.377 . S
C549 C555 1.390 . S
C550 H541 0.930 . S
C550 C548 1.384 1_556 S
C550 C551 1.372 1_556 S
C551 C550 1.372 1_554 S
C551 C552 1.400 . S
C551 C556 1.490 1_554 S
C552 H542 0.930 . S
C552 C551 1.400 . S
C552 C555 1.386 . S
H553 C569 0.930 . S
H554 C570 0.931 . S
C555 H543 0.929 . S
C555 C549 1.390 . S
C555 C552 1.386 . S
C556 C551 1.490 1_556 S
C556 C558 1.395 . S
C556 C559 1.403 . S
H557 C563 0.930 . S
C558 H544 0.930 . S
C558 C556 1.395 . S
C558 C561 1.403 . S
C559 C556 1.403 . S
C559 C560 1.524 . S
C559 C563 1.400 . S
C560 H545 0.960 . S
C560 H546 0.960 . S
C560 H547 0.960 1_556 S
C560 C559 1.524 . S
C561 C558 1.403 . S
C561 C562 1.392 . S
C561 C565 1.495 . S
C562 C561 1.392 . S
C562 C563 1.385 . S
C562 C564 1.478 . S
C563 H557 0.930 . S
C563 C559 1.400 . S
C563 C562 1.385 . S
C564 C562 1.478 . S
C564 C566 1.381 . S
C564 C570 1.383 . S
C565 C561 1.495 . S
C565 H571 0.959 . S
C565 H572 0.961 . S
C565 H573 0.960 . S
C566 C564 1.381 . S
C566 C567 1.394 . S
C566 H574 0.930 . S
C567 C566 1.394 . S
C567 C568 1.383 . S
C567 H575 0.929 . S
C568 C567 1.383 . S
C568 C569 1.377 . S
C569 H553 0.930 . S
C569 C568 1.377 . S
C569 C570 1.379 . S
C570 H554 0.931 . S
C570 C564 1.383 . S
C570 C569 1.379 . S
H571 C565 0.959 . S
H572 C565 0.961 . S
H573 C565 0.960 . S
H574 C566 0.930 . S
H575 C567 0.929 . S
H576 C584 0.929 1_655 S
H577 C586 0.930 1_655 S
H578 C588 0.930 . S
H579 C591 0.929 . S
H580 C594 0.930 . S
H581 C596 0.960 . S
H582 C596 0.960 . S
H583 C596 0.960 . S
C584 H576 0.929 1_455 S
C584 C585 1.377 . S
C584 C586 1.384 . S
C585 C584 1.377 . S
C585 C591 1.390 . S
C586 H577 0.930 1_455 S
C586 C584 1.384 . S
C586 C587 1.372 . S
C587 C586 1.372 . S
C587 C588 1.400 . S
C587 C592 1.490 . S
C588 H578 0.930 . S
C588 C587 1.400 . S
C588 C591 1.386 . S
H589 C605 0.930 . S
H590 C606 0.931 . S
C591 H579 0.929 . S
C591 C585 1.390 . S
C591 C588 1.386 . S
C592 C587 1.490 . S
C592 C594 1.395 1_455 S
C592 C595 1.403 . S
H593 C599 0.930 . S
C594 H580 0.930 . S
C594 C592 1.395 1_655 S
C594 C597 1.403 . S
C595 C592 1.403 . S
C595 C596 1.524 . S
C595 C599 1.400 . S
C596 H581 0.960 . S
C596 H582 0.960 . S
C596 H583 0.960 . S
C596 C595 1.524 . S
C597 C594 1.403 . S
C597 C598 1.392 1_655 S
C597 C601 1.495 . S
C598 C597 1.392 1_455 S
C598 C599 1.385 . S
C598 C600 1.478 . S
C599 H593 0.930 . S
C599 C595 1.400 . S
C599 C598 1.385 . S
C600 C598 1.478 . S
C600 C602 1.381 1_455 S
C600 C606 1.383 . S
C601 C597 1.495 . S
C601 H607 0.959 . S
C601 H608 0.961 . S
C601 H609 0.960 . S
C602 C600 1.381 1_655 S
C602 C603 1.388 . S
C602 H610 0.930 . S
C603 C602 1.388 . S
C603 C604 1.379 1_655 S
C603 H611 0.941 . S
C604 C603 1.379 1_455 S
C604 C605 1.377 . S
C605 H589 0.930 . S
C605 C604 1.377 . S
C605 C606 1.379 . S
C606 H590 0.931 . S
C606 C600 1.383 . S
C606 C605 1.379 . S
H607 C601 0.959 . S
H608 C601 0.961 . S
H609 C601 0.960 . S
H610 C602 0.930 . S
H611 C603 0.941 . S
C208 C50 1.291 . S
C189 C11 1.283 . S
C225 C25 1.359 . S
C244 C89 1.363 . S
C261 C41 1.355 . S
C280 C156 1.412 . S
C297 C7 1.317 . S
C316 C57 1.316 . S
C352 C110 1.391 . S
C333 C21 1.386 . S
C369 C36 1.379 . S
C388 C135 1.424 . S
C424 C96 1.359 . S
C405 C39 1.349 . S
C441 C8 1.359 1_665 S
C460 C149 1.426 . S
C496 C64 1.484 . S
C477 C22 1.422 1_565 S
C532 C103 1.381 . S
C513 C35 1.383 . S
C568 C142 1.408 . S
C549 C13 1.343 . S
C585 C27 1.402 . S
C604 C43 1.460 . S
