# Generated by pormake.
# Topology zzz, (3,6)-cn, num edge types: 1
# Building blocks:
#     Node 0, Type 0, BuildingBlock: MIDCAF_clean_linker_0, # of connection points: 3
#     Node 1, Type 0, BuildingBlock: MIDCAF_clean_linker_0, # of connection points: 3
#     Node 2, Type 0, BuildingBlock: MIDCAF_clean_linker_0, # of connection points: 3
#     Node 3, Type 0, BuildingBlock: MIDCAF_clean_linker_0, # of connection points: 3
#     Node 4, Type 0, BuildingBlock: MIDCAF_clean_linker_0, # of connection points: 3
#     Node 5, Type 0, BuildingBlock: MIDCAF_clean_linker_0, # of connection points: 3
#     Node 6, Type 0, BuildingBlock: MIDCAF_clean_linker_0, # of connection points: 3
#     Node 7, Type 0, BuildingBlock: MIDCAF_clean_linker_0, # of connection points: 3
#     Node 8, Type 1, BuildingBlock: BETDIP_clean_sbu_0, # of connection points: 6
#     Node 9, Type 1, BuildingBlock: BETDIP_clean_sbu_0, # of connection points: 6
#     Node 10, Type 1, BuildingBlock: BETDIP_clean_sbu_0, # of connection points: 6
#     Node 11, Type 1, BuildingBlock: BETDIP_clean_sbu_0, # of connection points: 6
#     Edge 12, Type (0, 1), BuildingBlock: XIVTED_clean_linker_0, # of connection points: 2
#     Edge 13, Type (0, 1), BuildingBlock: XIVTED_clean_linker_0, # of connection points: 2
#     Edge 14, Type (0, 1), BuildingBlock: XIVTED_clean_linker_0, # of connection points: 2
#     Edge 15, Type (0, 1), BuildingBlock: XIVTED_clean_linker_0, # of connection points: 2
#     Edge 16, Type (0, 1), BuildingBlock: XIVTED_clean_linker_0, # of connection points: 2
#     Edge 17, Type (0, 1), BuildingBlock: XIVTED_clean_linker_0, # of connection points: 2
#     Edge 18, Type (0, 1), BuildingBlock: XIVTED_clean_linker_0, # of connection points: 2
#     Edge 19, Type (0, 1), BuildingBlock: XIVTED_clean_linker_0, # of connection points: 2
#     Edge 20, Type (0, 1), BuildingBlock: XIVTED_clean_linker_0, # of connection points: 2
#     Edge 21, Type (0, 1), BuildingBlock: XIVTED_clean_linker_0, # of connection points: 2
#     Edge 22, Type (0, 1), BuildingBlock: XIVTED_clean_linker_0, # of connection points: 2
#     Edge 23, Type (0, 1), BuildingBlock: XIVTED_clean_linker_0, # of connection points: 2
#     Edge 24, Type (0, 1), BuildingBlock: XIVTED_clean_linker_0, # of connection points: 2
#     Edge 25, Type (0, 1), BuildingBlock: XIVTED_clean_linker_0, # of connection points: 2
#     Edge 26, Type (0, 1), BuildingBlock: XIVTED_clean_linker_0, # of connection points: 2
#     Edge 27, Type (0, 1), BuildingBlock: XIVTED_clean_linker_0, # of connection points: 2
#     Edge 28, Type (0, 1), BuildingBlock: XIVTED_clean_linker_0, # of connection points: 2
#     Edge 29, Type (0, 1), BuildingBlock: XIVTED_clean_linker_0, # of connection points: 2
#     Edge 30, Type (0, 1), BuildingBlock: XIVTED_clean_linker_0, # of connection points: 2
#     Edge 31, Type (0, 1), BuildingBlock: XIVTED_clean_linker_0, # of connection points: 2
#     Edge 32, Type (0, 1), BuildingBlock: XIVTED_clean_linker_0, # of connection points: 2
#     Edge 33, Type (0, 1), BuildingBlock: XIVTED_clean_linker_0, # of connection points: 2
#     Edge 34, Type (0, 1), BuildingBlock: XIVTED_clean_linker_0, # of connection points: 2
#     Edge 35, Type (0, 1), BuildingBlock: XIVTED_clean_linker_0, # of connection points: 2
# Relax obj value: 0.444
# Max RMSD: 0.265
# Mean RMSD: 0.243
data_MOF--net-zzz--node1-BETDIP_clean_sbu_0--node2-MIDCAF_clean_linker_0--edge1-XIVTED_clean_linker_0
_symmetry_space_group_name_H-M    P1
_symmetry_Int_Tables_number       1
_symmetry_cell_setting            triclinic
loop_
_symmetry_equiv_pos_as_xyz
'x, y, z'
_cell_length_a     59.467087
_cell_length_b     59.413955
_cell_length_c     18.635286
_cell_angle_alpha  89.654291
_cell_angle_beta   89.988942
_cell_angle_gamma 90.010716
loop_
_atom_site_label
_atom_site_type_symbol
_atom_site_fract_x
_atom_site_fract_y
_atom_site_fract_z
_atom_type_partial_charge
C0 C 0.80452 0.51374 0.43786 0.0
C1 C 0.82519 0.52106 0.40859 0.0
C2 C 0.82572 0.52742 0.3358 0.0
C3 C 0.80663 0.52544 0.29274 0.0
H4 H 0.70966 0.54675 0.24407 0.0
H5 H 0.67161 0.55464 0.20025 0.0
H6 H 0.65894 0.48321 0.18548 0.0
H7 H 0.69664 0.4756 0.22966 0.0
H8 H 0.74059 0.45905 0.08388 0.0
H9 H 0.75507 0.44216 0.9727 0.0
H10 H 0.80858 0.49126 0.96801 0.0
H11 H 0.79476 0.50747 0.07933 0.0
H12 H 0.76985 0.50523 0.41746 0.0
H13 H 0.8034 0.5089 0.49385 0.0
H14 H 0.84124 0.53283 0.3107 0.0
H15 H 0.80807 0.52951 0.23616 0.0
N16 N 0.74583 0.51329 0.28389 0.0
N17 N 0.7373 0.496 0.17354 0.0
N18 N 0.77473 0.501 0.20718 0.0
C19 C 0.73031 0.50593 0.23497 0.0
C20 C 0.75941 0.49365 0.15915 0.0
C21 C 0.76827 0.51045 0.27002 0.0
C22 C 0.706 0.51057 0.2408 0.0
C23 C 0.69825 0.53282 0.23526 0.0
C24 C 0.67658 0.5373 0.2088 0.0
C25 C 0.66229 0.51957 0.18776 0.0
C26 C 0.6693 0.49733 0.20127 0.0
C27 C 0.69093 0.49291 0.22709 0.0
C28 C 0.7668 0.48433 0.09021 0.0
C29 C 0.7553 0.46629 0.05833 0.0
C30 C 0.76343 0.45674 0.9949 0.0
C31 C 0.78264 0.46569 0.9616 0.0
C32 C 0.79346 0.48435 0.99204 0.0
C33 C 0.78576 0.49342 0.05613 0.0
C34 C 0.78629 0.51714 0.32086 0.0
C35 C 0.78519 0.51194 0.39446 0.0
C36 C 0.0099 0.78214 0.40765 0.0
C37 C 0.99362 0.79386 0.44792 0.0
C38 C 0.97192 0.78459 0.45331 0.0
C39 C 0.96622 0.76508 0.41571 0.0
H40 H 0.95893 0.66206 0.27551 0.0
H41 H 0.96989 0.62753 0.21436 0.0
H42 H 0.02644 0.6626 0.11973 0.0
H43 H 0.01588 0.6966 0.18424 0.0
H44 H 0.94063 0.71463 0.08666 0.0
H45 H 0.93119 0.73781 0.98296 0.0
H46 H 0.91737 0.79377 0.12336 0.0
H47 H 0.92608 0.77059 0.22638 0.0
H48 H 0.01674 0.75439 0.33699 0.0
H49 H 0.02682 0.78872 0.40274 0.0
H50 H 0.95887 0.79318 0.48307 0.0
H51 H 0.94895 0.75927 0.41721 0.0
N52 N 0.98438 0.71733 0.30689 0.0
N53 N 0.95938 0.71079 0.21103 0.0
N54 N 0.95695 0.74419 0.27565 0.0
C55 C 0.97641 0.70361 0.25384 0.0
C56 C 0.94961 0.7311 0.22121 0.0
C57 C 0.9741 0.73758 0.31883 0.0
C58 C 0.98688 0.6818 0.23593 0.0
C59 C 0.97427 0.66198 0.24408 0.0
C60 C 0.98034 0.64232 0.20769 0.0
C61 C 0.99889 0.64213 0.16055 0.0
C62 C 0.01223 0.66176 0.15592 0.0
C63 C 0.00629 0.68133 0.19326 0.0
C64 C 0.93525 0.74116 0.16453 0.0
C65 C 0.93462 0.73159 0.09568 0.0
C66 C 0.92925 0.74491 0.03601 0.0
C67 C 0.92457 0.76794 0.04447 0.0
C68 C 0.92124 0.77621 0.11428 0.0
C69 C 0.9265 0.7629 0.17382 0.0
C70 C 0.98214 0.75398 0.3728 0.0
C71 C 1.00425 0.7623 0.37087 0.0
C72 C 0.72741 0.98625 0.40682 0.0
C73 C 0.71695 1.00192 0.45263 0.0
C74 C 0.72661 0.02342 0.45897 0.0
C75 C 0.74508 0.02964 0.41699 0.0
H76 H 0.83672 1.00231 0.28518 0.0
H77 H 0.87029 0.989 0.22047 0.0
H78 H 0.83532 0.99815 0.01927 0.0
H79 H 0.80235 0.01143 0.08338 0.0
H80 H 0.78912 0.07055 0.09498 0.0
H81 H 0.76773 0.09558 0.01676 0.0
H82 H 0.71667 0.10152 0.18091 0.0
H83 H 0.73833 0.07759 0.25939 0.0
H84 H 0.75295 0.98055 0.32704 0.0
H85 H 0.7206 0.96945 0.40121 0.0
H86 H 0.71901 0.03605 0.49289 0.0
H87 H 0.75112 0.04682 0.41993 0.0
N88 N 0.78696 0.0116 0.2822 0.0
N89 N 0.79175 0.03988 0.19422 0.0
N90 N 0.76345 0.04343 0.27994 0.0
C91 C 0.79838 0.02008 0.22431 0.0
C92 C 0.77441 0.05175 0.22192 0.0
C93 C 0.76943 0.02354 0.31046 0.0
C94 C 0.81695 0.00775 0.1892 0.0
C95 C 0.83614 1.00084 0.2273 0.0
C96 C 0.85539 0.99348 0.19022 0.0
C97 C 0.85551 0.99252 0.11462 0.0
C98 C 0.8358 0.99837 0.07736 0.0
C99 C 0.81687 1.00604 0.1141 0.0
C100 C 0.76504 0.07138 0.18255 0.0
C101 C 0.77366 0.07779 0.11516 0.0
C102 C 0.76133 0.09209 0.07008 0.0
C103 C 0.74007 0.10006 0.09128 0.0
C104 C 0.7329 0.0958 0.16208 0.0
C105 C 0.74529 0.08173 0.20723 0.0
C106 C 0.75462 0.01453 0.36789 0.0
C107 C 0.74617 0.99247 0.36511 0.0
C108 C 0.41243 0.71916 0.21837 0.0
C109 C 0.40713 0.72534 0.14736 0.0
C110 C 0.41383 0.74672 0.1224 0.0
C111 C 0.42797 0.76023 0.16395 0.0
H112 H 0.46135 0.82598 0.21891 0.0
H113 H 0.47446 0.85803 0.14929 0.0
H114 H 0.54244 0.8327 0.16067 0.0
H115 H 0.5291 0.80021 0.23134 0.0
H116 H 0.52947 0.74082 0.33791 0.0
H117 H 0.543 0.70856 0.40893 0.0
H118 H 0.48191 0.71021 0.53439 0.0
H119 H 0.46877 0.74217 0.46423 0.0
H120 H 0.43147 0.72649 0.31227 0.0
H121 H 0.40765 0.70288 0.23987 0.0
H122 H 0.40955 0.75229 0.06868 0.0
H123 H 0.43432 0.77573 0.14075 0.0
N124 N 0.46472 0.78205 0.23892 0.0
N125 N 0.49642 0.77741 0.31355 0.0
N126 N 0.46653 0.75151 0.31781 0.0
C127 C 0.48497 0.78957 0.26278 0.0
C128 C 0.48682 0.75848 0.34216 0.0
C129 C 0.45543 0.76298 0.26585 0.0
C130 C 0.49418 0.8105 0.23039 0.0
C131 C 0.47918 0.82737 0.20766 0.0
C132 C 0.48673 0.84588 0.16804 0.0
C133 C 0.50951 0.84797 0.14919 0.0
C134 C 0.52475 0.8315 0.17399 0.0
C135 C 0.51718 0.81302 0.21491 0.0
C136 C 0.49816 0.74404 0.39599 0.0
C137 C 0.51945 0.73477 0.38259 0.0
C138 C 0.527 0.7161 0.42259 0.0
C139 C 0.51346 0.70658 0.47707 0.0
C140 C 0.49295 0.71711 0.49359 0.0
C141 C 0.48537 0.73548 0.45333 0.0
C142 C 0.43555 0.75261 0.23132 0.0
C143 C 0.42641 0.73267 0.25991 0.0
C144 C 0.21126 0.50534 0.07463 0.0
C145 C 0.21349 0.49593 0.00625 0.0
C146 C 0.2348 0.48794 0.98503 0.0
C147 C 0.25318 0.48838 0.03318 0.0
H148 H 0.33707 0.52109 0.14551 0.0
H149 H 0.37578 0.52292 0.18918 0.0
H150 H 0.36773 0.45733 0.28741 0.0
H151 H 0.32964 0.4554 0.24126 0.0
H152 H 0.30078 0.52495 0.37917 0.0
H153 H 0.28604 0.54076 0.49108 0.0
H154 H 0.2242 0.50393 0.46081 0.0
H155 H 0.23854 0.48882 0.34855 0.0
H156 H 0.22649 0.51316 0.17433 0.0
H157 H 0.19524 0.51205 0.09218 0.0
H158 H 0.23703 0.48063 0.93242 0.0
H159 H 0.26917 0.48143 0.01653 0.0
N160 N 0.29076 0.49193 0.14408 0.0
N161 N 0.29936 0.49602 0.26704 0.0
N162 N 0.26235 0.49979 0.22824 0.0
C163 C 0.30612 0.49177 0.19904 0.0
C164 C 0.27756 0.4999 0.28207 0.0
C165 C 0.26854 0.49601 0.15913 0.0
C166 C 0.33043 0.48801 0.18934 0.0
C167 C 0.34415 0.50649 0.17231 0.0
C168 C 0.36619 0.50773 0.19909 0.0
C169 C 0.37479 0.49061 0.24419 0.0
C170 C 0.36193 0.4709 0.25312 0.0
C171 C 0.34002 0.46964 0.22593 0.0
C172 C 0.2706 0.50593 0.35516 0.0
C173 C 0.28428 0.51981 0.39768 0.0
C174 C 0.27595 0.52878 0.46161 0.0
C175 C 0.25413 0.5234 0.48467 0.0
C176 C 0.24124 0.50806 0.44486 0.0
C177 C 0.24931 0.49961 0.38024 0.0
C178 C 0.2505 0.49695 0.10305 0.0
C179 C 0.22937 0.50592 0.12193 0.0
C180 C 0.02308 0.2094 0.96286 0.0
C181 C 0.03877 0.19206 0.97678 0.0
C182 C 0.05548 0.19609 0.02883 0.0
C183 C 0.05538 0.21584 0.06959 0.0
H184 H 0.07054 0.31078 0.15388 0.0
H185 H 0.07484 0.34886 0.20167 0.0
H186 H 1.00261 0.35482 0.21682 0.0
H187 H 0.99857 0.31711 0.16828 0.0
H188 H 0.99841 0.27659 0.33648 0.0
H189 H 0.98392 0.2606 0.44874 0.0
H190 H 0.01976 0.19887 0.4067 0.0
H191 H 0.03394 0.21457 0.29459 0.0
H192 H 0.00994 0.24162 0.99491 0.0
H193 H 0.00984 0.20703 0.9238 0.0
H194 H 0.06827 0.18361 0.04015 0.0
H195 H 0.06752 0.2176 0.11255 0.0
N196 N 0.03656 0.2721 0.10474 0.0
N197 N 0.02551 0.27788 0.22469 0.0
N198 N 0.02906 0.24128 0.18149 0.0
C199 C 0.03182 0.2864 0.16023 0.0
C200 C 0.0242 0.25547 0.23595 0.0
C201 C 0.03498 0.24929 0.11575 0.0
C202 C 0.03421 0.31113 0.15601 0.0
C203 C 0.05562 0.32079 0.16354 0.0
C204 C 0.05805 0.34245 0.1925 0.0
C205 C 0.03909 0.35488 0.21469 0.0
C206 C 0.01763 0.34599 0.20016 0.0
C207 C 0.01526 0.32436 0.17159 0.0
C208 C 0.01709 0.24668 0.30649 0.0
C209 C 1.00345 0.25972 0.35188 0.0
C210 C 0.99519 0.25066 0.41606 0.0
C211 C 1.0009 0.22865 0.43653 0.0
C212 C 0.01542 0.21605 0.39278 0.0
C213 C 0.0233 0.22492 0.32814 0.0
C214 C 0.03896 0.23248 0.05851 0.0
C215 C 0.0232 0.22937 1.00328 0.0
C216 C 0.30174 1.00052 0.97494 0.0
C217 C 0.31285 0.01647 0.93115 0.0
C218 C 0.3034 0.03806 0.92426 0.0
C219 C 0.28443 0.04408 0.96419 0.0
H220 H 0.22016 0.99389 0.19913 0.0
H221 H 0.18823 0.98245 0.27453 0.0
H222 H 0.15323 0.04348 0.21565 0.0
H223 H 0.18522 0.05489 0.14155 0.0
H224 H 0.24017 0.07264 0.30042 0.0
H225 H 0.26513 0.08144 0.39968 0.0
H226 H 0.31954 0.09235 0.24961 0.0
H227 H 0.2946 0.08434 0.15099 0.0
H228 H 0.27511 0.99434 0.05084 0.0
H229 H 0.30849 0.98369 0.98106 0.0
H230 H 0.31155 0.05084 0.89174 0.0
H231 H 0.27857 0.06134 0.96165 0.0
N232 N 0.23886 0.02702 0.08462 0.0
N233 N 0.2343 0.05273 0.17936 0.0
N234 N 0.26636 0.05453 0.10755 0.0
C235 C 0.22624 0.03543 0.13971 0.0
C236 C 0.25442 0.06229 0.16414 0.0
C237 C 0.25881 0.03716 0.0673 0.0
C238 C 0.20494 0.02506 0.16362 0.0
C239 C 0.20521 1.00431 0.19997 0.0
C240 C 0.18707 0.99796 0.2439 0.0
C241 C 0.16825 0.01216 0.25161 0.0
C242 C 0.16733 0.03206 0.21052 0.0
C243 C 0.18559 0.03855 0.16773 0.0
C244 C 0.26574 0.0766 0.21803 0.0
C245 C 0.2572 0.07789 0.28831 0.0
C246 C 0.27156 0.08286 0.34545 0.0
C247 C 0.29461 0.08649 0.33303 0.0
C248 C 0.302 0.08925 0.26177 0.0
C249 C 0.28766 0.08442 0.20474 0.0
C250 C 0.2741 0.02858 0.01096 0.0
C251 C 0.28244 0.00648 0.0141 0.0
C252 C 0.45533 0.28309 0.38224 0.0
C253 C 0.46375 0.27211 0.44366 0.0
C254 C 0.46982 0.24932 0.43908 0.0
C255 C 0.46969 0.23846 0.37276 0.0
H256 H 0.45022 0.17819 0.1558 0.0
H257 H 0.45378 0.14084 0.2098 0.0
H258 H 0.5248 0.15229 0.24131 0.0
H259 H 0.52113 0.18947 0.18562 0.0
H260 H 0.47258 0.25439 0.98165 0.0
H261 H 0.47782 0.28932 0.91134 0.0
H262 H 0.51906 0.31619 0.08106 0.0
H263 H 0.51371 0.28178 0.15041 0.0
H264 H 0.45063 0.28186 0.26863 0.0
H265 H 0.45067 0.30071 0.38374 0.0
H266 H 0.47625 0.24044 0.48569 0.0
H267 H 0.47608 0.22141 0.36989 0.0
N268 N 0.47269 0.21915 0.22947 0.0
N269 N 0.48777 0.22555 0.114 0.0
N270 N 0.47607 0.25583 0.18594 0.0
C271 C 0.4813 0.211 0.16747 0.0
C272 C 0.48483 0.2482 0.1234 0.0
C273 C 0.46989 0.24148 0.23899 0.0
C274 C 0.48545 0.18657 0.16554 0.0
C275 C 0.46681 0.17215 0.17036 0.0
C276 C 0.46881 0.15092 0.20265 0.0
C277 C 0.48946 0.14376 0.23171 0.0
C278 C 0.50864 0.15718 0.21948 0.0
C279 C 0.50662 0.17844 0.18678 0.0
C280 C 0.49279 0.26539 0.07134 0.0
C281 C 0.48343 0.26748 1.00236 0.0
C282 C 0.48632 0.28752 0.96246 0.0
C283 C 0.49847 0.30573 0.99135 0.0
C284 C 0.50922 0.30273 0.05785 0.0
C285 C 0.50635 0.2829 0.09729 0.0
C286 C 0.46384 0.25039 0.31007 0.0
C287 C 0.45552 0.27238 0.31597 0.0
Tb288 Tb 0.03088 0.98408 0.76153 0.0
Tb289 Tb 1.00365 1.00181 0.64556 0.0
C290 C 0.04305 0.95877 0.86187 0.0
C291 C 0.03476 0.93577 0.87705 0.0
C292 C 0.02003 0.93221 0.93486 0.0
C293 C 0.0073 0.91251 0.9392 0.0
C294 C 0.00913 0.89591 0.88599 0.0
C295 C 0.02533 0.89861 0.83175 0.0
C296 C 0.03796 0.91838 0.82712 0.0
C297 C 0.05489 0.99861 0.65122 0.0
C298 C 0.01086 0.95117 0.64374 0.0
C299 C 0.9859 0.02538 0.54947 0.0
C300 C 0.97414 0.04677 0.55952 0.0
C301 C 0.97082 0.06153 0.5018 0.0
C302 C 0.96287 0.08329 0.51422 0.0
C303 C 0.95845 0.09057 0.58465 0.0
C304 C 0.96068 0.0753 0.64183 0.0
C305 C 0.96833 0.05351 0.62927 0.0
C306 C 0.98001 0.98709 0.75678 0.0
C307 C 0.02449 0.03576 0.76366 0.0
O308 O 0.02799 0.97463 0.86968 0.0
O309 O 0.05478 0.96149 0.80303 0.0
O310 O 0.03658 0.98793 0.64802 0.0
O311 O 0.06093 1.00028 0.71788 0.0
O312 O 0.01474 0.95428 0.71287 0.0
O313 O 0.00995 0.96873 0.60017 0.0
O314 O 0.00743 0.02602 0.56404 0.0
O315 O 0.97603 0.00791 0.57845 0.0
O316 O 0.99798 0.99826 0.75887 0.0
O317 O 0.97425 0.98469 0.69052 0.0
O318 O 0.01448 0.03297 0.70068 0.0
O319 O 0.03148 0.01829 0.80164 0.0
H320 H 0.01732 0.94526 0.9743 0.0
H321 H 0.9955 0.91059 0.98309 0.0
H322 H 0.02727 0.88613 0.7901 0.0
H323 H 0.04916 0.92052 0.78174 0.0
H324 H 0.97534 0.0566 0.44781 0.0
H325 H 0.96164 0.09487 0.46928 0.0
H326 H 0.95742 0.08052 0.69646 0.0
H327 H 0.97072 0.04224 0.67456 0.0
Tb328 Tb 0.52193 0.01325 0.75661 0.0
Tb329 Tb 0.50819 0.98338 0.63979 0.0
C330 C 0.54084 0.03247 0.85982 0.0
C331 C 0.56114 0.04661 0.86667 0.0
C332 C 0.58264 0.03791 0.85269 0.0
C333 C 0.6016 0.05162 0.85833 0.0
C334 C 0.59952 0.07437 0.87795 0.0
C335 C 0.57796 0.08309 0.8914 0.0
C336 C 0.55898 0.06932 0.88599 0.0
C337 C 0.50819 0.03436 0.63905 0.0
C338 C 0.55932 0.9934 0.64804 0.0
C339 C 0.4863 0.96926 0.53496 0.0
C340 C 0.46379 0.9771 0.51218 0.0
C341 C 0.46197 0.99229 0.45443 0.0
C342 C 0.44242 1.00494 0.44484 0.0
C343 C 0.42422 1.00252 0.49247 0.0
C344 C 0.42525 0.98579 0.54596 0.0
C345 C 0.44485 0.97324 0.55587 0.0
C346 C 0.52217 0.96185 0.75583 0.0
C347 C 0.4719 1.00233 0.74918 0.0
O348 O 0.54384 0.01117 0.84448 0.0
O349 O 0.5243 0.04142 0.8233 0.0
O350 O 0.52019 0.01701 0.64236 0.0
O351 O 0.50447 0.04133 0.70349 0.0
O352 O 0.55468 1.00437 0.70817 0.0
O353 O 0.54325 0.98452 0.60826 0.0
O354 O 0.50221 0.9844 0.52907 0.0
O355 O 0.48738 0.95838 0.59623 0.0
O356 O 0.51025 0.9794 0.75399 0.0
O357 O 0.52528 0.95488 0.69069 0.0
O358 O 0.47643 0.99794 0.68113 0.0
O359 O 0.48852 1.00486 0.79523 0.0
H360 H 0.58491 0.02046 0.8379 0.0
H361 H 0.61796 0.04416 0.8492 0.0
H362 H 0.57574 0.10054 0.90621 0.0
H363 H 0.54257 0.07644 0.89685 0.0
H364 H 0.47622 0.99551 0.41959 0.0
H365 H 0.44186 0.01719 0.40159 0.0
H366 H 0.41151 0.98341 0.58338 0.0
H367 H 0.44561 0.96165 0.60089 0.0
Tb368 Tb 0.49668 0.5148 0.78739 0.0
Tb369 Tb 0.52974 0.49927 0.68099 0.0
C370 C 0.47306 0.52643 0.89229 0.0
C371 C 0.45724 0.54496 0.9046 0.0
C372 C 0.4518 0.55117 0.97479 0.0
C373 C 0.43801 0.56979 0.98713 0.0
C374 C 0.42942 0.58252 0.9293 0.0
C375 C 0.43438 0.57573 0.85887 0.0
C376 C 0.44824 0.55717 0.84666 0.0
C377 C 0.48074 0.51195 0.65507 0.0
C378 C 0.51912 0.55043 0.68547 0.0
C379 C 0.54988 0.47744 0.58686 0.0
C380 C 0.54578 0.45362 0.56828 0.0
C381 C 0.52581 0.44745 0.53322 0.0
C382 C 0.51829 0.42525 0.53583 0.0
C383 C 0.53066 0.40875 0.57291 0.0
C384 C 0.55179 0.41438 0.60122 0.0
C385 C 0.5593 0.43665 0.59882 0.0
C386 C 0.54762 0.51676 0.7984 0.0
C387 C 0.50708 0.46272 0.78276 0.0
O388 O 0.49416 0.53239 0.88422 0.0
O389 O 0.46669 0.51146 0.84514 0.0
O390 O 0.4939 0.49823 0.68518 0.0
O391 O 0.47537 0.52736 0.70043 0.0
O392 O 0.51158 0.54665 0.75139 0.0
O393 O 0.52424 0.53355 0.64244 0.0
O394 O 0.5336 0.49167 0.57186 0.0
O395 O 0.55801 0.48052 0.65137 0.0
O396 O 0.53075 0.50397 0.79525 0.0
O397 O 0.55545 0.51959 0.73417 0.0
O398 O 0.51927 0.46666 0.72484 0.0
O399 O 0.49765 0.47931 0.81869 0.0
H400 H 0.45869 0.54197 0.0201 0.0
H401 H 0.43489 0.57475 0.04206 0.0
H402 H 0.42788 0.58499 0.81315 0.0
H403 H 0.45227 0.55263 0.792 0.0
H404 H 0.51515 0.45997 0.50794 0.0
H405 H 0.50228 0.4212 0.51133 0.0
H406 H 0.56177 0.40194 0.62953 0.0
H407 H 0.57487 0.44087 0.62577 0.0
Tb408 Tb 0.01589 0.48312 0.72733 0.0
Tb409 Tb 0.0321 0.51977 0.62313 0.0
C410 C 0.99375 0.4589 0.812 0.0
C411 C 0.96961 0.4534 0.81289 0.0
C412 C 0.95337 0.47048 0.80814 0.0
C413 C 0.93076 0.46508 0.7991 0.0
C414 C 0.92388 0.44249 0.79405 0.0
C415 C 0.94008 0.42538 0.80047 0.0
C416 C 0.96277 0.43081 0.80977 0.0
C417 C 0.03499 0.46891 0.60777 0.0
C418 C 0.98066 0.50768 0.62118 0.0
C419 C 0.05233 0.53939 0.52373 0.0
C420 C 0.07212 0.55408 0.52969 0.0
C421 C 0.08923 0.55282 0.47831 0.0
C422 C 0.11047 0.56174 0.49313 0.0
C423 C 0.11488 0.57178 0.55995 0.0
C424 C 0.0972 0.57465 0.60872 0.0
C425 C 0.07598 0.56595 0.59358 0.0
C426 C 0.02305 0.53795 0.75054 0.0
C427 C 0.06556 0.49893 0.74135 0.0
O428 O 0.99935 0.47977 0.82631 0.0
O429 O 1.00464 0.45098 0.75673 0.0
O430 O 0.02156 0.48533 0.61325 0.0
O431 O 0.038 0.46004 0.67074 0.0
O432 O 0.98424 0.49415 0.67695 0.0
O433 O 0.99725 0.51833 0.58785 0.0
O434 O 0.05623 0.51833 0.54153 0.0
O435 O 0.03363 0.54714 0.55179 0.0
O436 O 0.02102 0.5179 0.73081 0.0
O437 O 0.03053 0.54896 0.69566 0.0
O438 O 0.06324 0.50863 0.67729 0.0
O439 O 0.04823 0.49008 0.77621 0.0
H440 H 0.95813 0.48807 0.80968 0.0
H441 H 0.91865 0.47867 0.79627 0.0
H442 H 0.93529 0.40784 0.79695 0.0
H443 H 0.97507 0.41738 0.8125 0.0
H444 H 0.08668 0.54353 0.42912 0.0
H445 H 0.12389 0.55905 0.45482 0.0
H446 H 0.10015 0.5824 0.66036 0.0
H447 H 0.0631 0.56721 0.63417 0.0
H448 H 0.17525 0.99965 0.39121 0.0
H449 H 0.04579 0.9958 0.50713 0.0
H450 H 0.12205 0.01549 0.24201 0.0
H451 H 0.10008 0.00666 0.65632 0.0
H452 H 0.07291 0.99805 0.40753 0.0
H453 H 0.14736 0.99623 0.48714 0.0
C454 C 0.15765 1.00205 0.37832 0.0
C455 C 0.151 0.00778 0.30825 0.0
C456 C 0.07883 1.00001 0.46209 0.0
C457 C 0.11891 1.00412 0.41841 0.0
C458 C 0.06339 0.99873 0.51886 0.0
C459 C 0.0707 1.00107 0.59008 0.0
C460 C 0.10179 1.00323 0.47681 0.0
C461 C 0.09369 1.00481 0.60229 0.0
C462 C 0.14175 1.00034 0.43334 0.0
C463 C 0.12794 0.01112 0.29525 0.0
N464 N 0.1084 1.00559 0.54639 0.0
N465 N 0.11271 0.00918 0.3497 0.0
H466 H 0.45907 0.1336 0.33703 0.0
H467 H 0.52716 0.0297 0.50556 0.0
H468 H 0.52189 0.11058 0.24761 0.0
H469 H 0.47919 0.06947 0.62307 0.0
H470 H 0.52138 0.05421 0.40022 0.0
H471 H 0.46199 0.1049 0.43048 0.0
C472 C 0.4733 0.12223 0.33605 0.0
C473 C 0.49022 0.12454 0.28381 0.0
C474 C 0.51206 0.05747 0.44899 0.0
C475 C 0.49384 0.0917 0.39236 0.0
C476 C 0.51528 0.04346 0.50894 0.0
C477 C 0.50376 0.04773 0.57324 0.0
C478 C 0.49695 0.0756 0.45316 0.0
C479 C 0.48854 0.06573 0.57474 0.0
C480 C 0.47506 0.10598 0.39011 0.0
C481 C 0.50851 0.10954 0.28687 0.0
N482 N 0.48557 0.07898 0.5157 0.0
N483 N 0.50985 0.09377 0.34027 0.0
H484 H 0.38794 0.53024 0.30652 0.0
H485 H 0.47947 0.47435 0.56858 0.0
H486 H 0.4072 0.46032 0.29222 0.0
H487 H 0.45522 0.54251 0.58391 0.0
H488 H 0.45692 0.46951 0.45873 0.0
H489 H 0.41666 0.53579 0.39711 0.0
C490 C 0.3985 0.51608 0.32098 0.0
C491 C 0.39488 0.49471 0.29109 0.0
C492 C 0.45671 0.48557 0.48585 0.0
C493 C 0.42773 0.50092 0.39807 0.0
C494 C 0.46963 0.48834 0.54831 0.0
C495 C 0.46909 0.50882 0.58552 0.0
C496 C 0.44328 0.50345 0.46049 0.0
C497 C 0.45599 0.52638 0.55725 0.0
C498 C 0.41482 0.51925 0.37381 0.0
C499 C 0.409 0.47703 0.31423 0.0
N500 N 0.4436 0.52327 0.49689 0.0
N501 N 0.42462 0.48048 0.36669 0.0
H502 H 0.01339 0.39382 0.21623 0.0
H503 H 0.06522 0.43526 0.58887 0.0
H504 H 0.06982 0.36227 0.32204 0.0
H505 H 0.0139 0.47246 0.476 0.0
H506 H 0.06872 0.41009 0.48638 0.0
H507 H 0.0146 0.42411 0.30501 0.0
C508 C 0.02619 0.39332 0.25753 0.0
C509 C 0.04149 0.37526 0.26131 0.0
C510 C 0.05684 0.42387 0.48335 0.0
C511 C 0.04291 0.41004 0.36365 0.0
C512 C 0.05487 0.4383 0.54196 0.0
C513 C 0.03921 0.45595 0.54115 0.0
C514 C 0.04281 0.42681 0.42331 0.0
C515 C 0.02624 0.45909 0.47884 0.0
C516 C 0.02689 0.4107 0.30817 0.0
C517 C 0.05782 0.37583 0.31589 0.0
N518 N 0.02812 0.44449 0.42277 0.0
N519 N 0.05793 0.39271 0.36498 0.0
H520 H 0.89871 0.00762 0.13718 0.0
H521 H 0.94145 0.96272 0.75663 0.0
H522 H 0.85964 0.96552 0.99659 0.0
H523 H 0.98242 1.00396 0.89414 0.0
H524 H 0.91309 0.96032 0.85098 0.0
H525 H 0.93117 1.00313 0.0571 0.0
C526 C 0.89707 0.99707 0.09028 0.0
C527 C 0.87631 0.98711 0.0733 0.0
C528 C 0.92832 0.96978 0.86107 0.0
C529 C 0.91332 0.98216 0.98081 0.0
C530 C 0.94454 0.97115 0.80709 0.0
C531 C 0.96419 0.98375 0.81731 0.0
C532 C 0.93159 0.98128 0.92593 0.0
C533 C 0.96742 0.99415 0.884 0.0
C534 C 0.91557 0.99466 0.04426 0.0
C535 C 0.87516 0.97382 0.0113 0.0
N536 N 0.95116 0.9929 0.93556 0.0
N537 N 0.89327 0.9719 0.96723 0.0
H538 H 0.5376 0.8454 0.03246 0.0
H539 H 0.50758 0.9698 0.89276 0.0
H540 H 0.49711 0.8925 0.1513 0.0
H541 H 0.54212 0.92047 0.76466 0.0
H542 H 0.50827 0.94358 0.99469 0.0
H543 H 0.54438 0.87456 0.9415 0.0
C544 C 0.53049 0.86199 0.04018 0.0
C545 C 0.5166 0.86641 0.09941 0.0
C546 C 0.51587 0.93853 0.94449 0.0
C547 C 0.52401 0.89983 0.99476 0.0
C548 C 0.51551 0.95353 0.88632 0.0
C549 C 0.5246 0.9472 0.81996 0.0
C550 C 0.52543 0.91704 0.93636 0.0
C551 C 0.53476 0.92595 0.81474 0.0
C552 C 0.5342 0.87859 0.98785 0.0
C553 C 0.50763 0.8882 0.10599 0.0
N554 N 0.53476 0.91158 0.87193 0.0
N555 N 0.51135 0.90399 0.05417 0.0
H556 H 0.65756 0.55048 0.07899 0.0
H557 H 0.54137 0.49945 0.93412 0.0
H558 H 0.62111 0.49787 0.18955 0.0
H559 H 0.58473 0.54325 0.81129 0.0
H560 H 0.56678 0.50333 0.03735 0.0
H561 H 0.62723 0.55306 0.99142 0.0
C562 C 0.64296 0.5398 0.08603 0.0
C563 C 0.64206 0.52384 0.14197 0.0
C564 C 0.5706 0.51226 0.98801 0.0
C565 C 0.60728 0.52638 0.04 0.0
C566 C 0.55608 0.51011 0.92921 0.0
C567 C 0.56109 0.52089 0.8639 0.0
C568 C 0.59018 0.52542 0.98154 0.0
C569 C 0.58034 0.5345 0.86046 0.0
C570 C 0.62571 0.54111 0.03528 0.0
C571 C 0.62275 0.51021 0.14691 0.0
N572 N 0.59421 0.53628 0.91819 0.0
N573 N 0.60624 0.51166 0.09634 0.0
H574 H 0.96794 0.61326 0.09901 0.0
H575 H 0.0529 0.56565 0.81247 0.0
H576 H 0.03942 0.6259 0.10895 0.0
H577 H 0.98924 0.53324 0.85167 0.0
H578 H 0.0481 0.58757 0.92176 0.0
H579 H 0.97484 0.58381 0.01096 0.0
C580 C 0.98515 0.60969 0.08402 0.0
C581 C 1.0031 0.62246 0.11191 0.0
C582 C 0.0353 0.57543 0.90748 0.0
C583 C 0.01096 0.58884 0.00868 0.0
C584 C 0.03805 0.56288 0.8451 0.0
C585 C 0.0215 0.54756 0.8234 0.0
C586 C 0.01547 0.57322 0.9478 0.0
C587 C 1.0025 0.54473 0.86715 0.0
C588 C 0.98902 0.59285 0.03315 0.0
C589 C 0.02492 0.61706 0.08832 0.0
N590 N 0.99979 0.55777 0.92676 0.0
N591 N 0.02816 0.60093 0.03771 0.0
H592 H 0.95592 0.22721 0.46494 0.0
H593 H 0.92969 0.11973 0.51723 0.0
H594 H 0.01992 0.20391 0.54469 0.0
H595 H 0.98053 0.11647 0.68193 0.0
H596 H 0.93319 0.16053 0.51529 0.0
H597 H 0.93711 0.19834 0.53727 0.0
C598 C 0.96596 0.21648 0.49954 0.0
C599 C 0.98952 0.21732 0.49716 0.0
C600 C 0.94289 0.15112 0.55435 0.0
C601 C 0.96831 0.18385 0.5771 0.0
C602 C 0.94101 0.12774 0.55481 0.0
C603 C 0.95518 0.11479 0.59856 0.0
C604 C 0.95944 0.16147 0.5969 0.0
C605 C 0.96942 0.12589 0.64684 0.0
C606 C 0.95523 0.19981 0.54001 0.0
C607 C 1.00172 0.20326 0.54349 0.0
N608 N 0.97172 0.14859 0.6431 0.0
N609 N 0.991 0.18672 0.58041 0.0
H610 H 0.29189 0.0541 0.43757 0.0
H611 H 0.42482 0.04795 0.46612 0.0
H612 H 0.3362 0.10598 0.35655 0.0
H613 H 0.37943 0.99301 0.51243 0.0
H614 H 0.39257 0.07313 0.45382 0.0
H615 H 0.32343 0.03685 0.49906 0.0
C616 C 0.30806 0.06243 0.43458 0.0
C617 C 0.31142 0.08127 0.38981 0.0
C618 C 0.3897 0.05562 0.46739 0.0
C619 C 0.34792 0.06087 0.45834 0.0
C620 C 0.40807 0.04115 0.47354 0.0
C621 C 0.40481 0.01817 0.4886 0.0
C622 C 0.36789 0.04709 0.4765 0.0
C623 C 0.38278 0.01053 0.50039 0.0
C624 C 0.32621 0.05227 0.46906 0.0
C625 C 0.33293 0.09106 0.38848 0.0
N626 N 0.36516 0.0249 0.49332 0.0
N627 N 0.35051 0.08042 0.42068 0.0
H628 H 0.50414 0.27094 0.51245 0.0
H629 H 0.48773 0.39876 0.6137 0.0
H630 H 0.44029 0.30541 0.5128 0.0
H631 H 0.55124 0.36751 0.56331 0.0
H632 H 0.47028 0.36158 0.61981 0.0
H633 H 0.52069 0.30217 0.57801 0.0
C634 C 0.49333 0.28464 0.52892 0.0
C635 C 0.47093 0.28591 0.50541 0.0
C636 C 0.4881 0.36284 0.60844 0.0
C637 C 0.48998 0.32193 0.57845 0.0
C638 C 0.49801 0.38403 0.60408 0.0
C639 C 0.52077 0.3862 0.58532 0.0
C640 C 0.50101 0.34368 0.59348 0.0
C641 C 0.53355 0.36659 0.57667 0.0
C642 C 0.5029 0.30261 0.56566 0.0
C643 C 0.45779 0.3041 0.52831 0.0
N644 N 0.52338 0.34612 0.57949 0.0
N645 N 0.46765 0.32171 0.56206 0.0
H646 H 0.23057 0.50823 0.60126 0.0
H647 H 0.13435 0.55814 0.68538 0.0
H648 H 0.25065 0.56886 0.49063 0.0
H649 H 0.149 0.59263 0.48642 0.0
H650 H 0.17463 0.5538 0.70684 0.0
H651 H 0.19974 0.5287 0.65653 0.0
C652 C 0.22908 0.52616 0.59148 0.0
C653 C 0.24274 0.53679 0.54025 0.0
C654 C 0.16906 0.56273 0.65924 0.0
C655 C 0.20729 0.56033 0.60176 0.0
C656 C 0.14607 0.56545 0.64728 0.0
C657 C 0.13841 0.57523 0.58294 0.0
C658 C 0.18432 0.56961 0.60601 0.0
C659 C 0.15427 0.58445 0.53568 0.0
C660 C 0.21147 0.53796 0.62317 0.0
C661 C 0.24025 0.56002 0.52931 0.0
N662 N 0.17652 0.58103 0.5475 0.0
N663 N 0.22226 0.57086 0.55767 0.0
H664 H 0.90338 0.80819 0.01249 0.0
H665 H 0.01837 0.85195 0.85156 0.0
H666 H 0.95776 0.7653 0.94342 0.0
H667 H 0.9641 0.89552 0.91706 0.0
H668 H 0.99285 0.8199 0.85863 0.0
H669 H 0.92105 0.83971 0.94923 0.0
C670 C 0.91865 0.80521 0.98236 0.0
C671 C 0.92943 0.78419 0.98547 0.0
C672 C 0.98643 0.8365 0.87076 0.0
C673 C 0.94987 0.82018 0.91375 0.0
C674 C 1.00104 0.85484 0.86673 0.0
C675 C 0.99355 0.8764 0.88557 0.0
C676 C 0.96422 0.83968 0.8944 0.0
C677 C 0.97084 0.87907 0.90457 0.0
C678 C 0.9288 0.82324 0.94642 0.0
C679 C 0.94887 0.78119 0.94361 0.0
N680 N 0.95707 0.8609 0.9095 0.0
N681 N 0.95875 0.79911 0.91109 0.0
H682 H 0.73549 0.087 0.95097 0.0
H683 H 0.60734 0.10538 0.98373 0.0
H684 H 0.70622 0.13161 0.10759 0.0
H685 H 0.63851 0.07506 0.79871 0.0
H686 H 0.64328 0.12223 0.0153 0.0
H687 H 0.70179 0.09037 0.87904 0.0
C688 C 0.72235 0.09815 0.96948 0.0
C689 C 0.7235 0.10835 0.03726 0.0
C690 C 0.6422 0.1123 0.96689 0.0
C691 C 0.68421 0.11146 0.9557 0.0
C692 C 0.62159 0.10268 0.94864 0.0
C693 C 0.62 0.08823 0.88949 0.0
C694 C 0.66143 0.10713 0.92644 0.0
C695 C 0.63913 0.08541 0.84627 0.0
C696 C 0.70287 0.09988 0.92831 0.0
C697 C 0.70573 0.12259 0.05734 0.0
N698 N 0.65914 0.09436 0.86644 0.0
N699 N 0.68652 0.12317 0.01789 0.0
H700 H 0.37666 0.69092 0.17109 0.0
H701 H 0.43317 0.62239 0.85565 0.0
H702 H 0.42005 0.71914 0.00785 0.0
H703 H 0.39812 0.59171 0.03408 0.0
H704 H 0.41831 0.65885 0.89061 0.0
H705 H 0.37425 0.65624 0.10151 0.0
C706 C 0.38524 0.69008 0.11992 0.0
C707 C 0.39916 0.7078 0.09663 0.0
C708 C 0.41354 0.6441 0.92148 0.0
C709 C 0.39639 0.66821 0.01677 0.0
C710 C 0.42192 0.62318 0.90125 0.0
C711 C 0.41727 0.60394 0.94281 0.0
C712 C 0.40058 0.64591 0.98418 0.0
C713 C 0.40268 0.60618 1.00166 0.0
C714 C 0.38383 0.67026 0.08021 0.0
C715 C 0.40926 0.70598 0.0287 0.0
N716 N 0.39516 0.62685 0.02133 0.0
N717 N 0.40806 0.68637 0.99201 0.0
H718 H 0.79418 0.48315 0.83106 0.0
H719 H 0.89982 0.40912 0.86135 0.0
H720 H 0.79746 0.4225 0.95841 0.0
H721 H 0.89268 0.46351 0.70847 0.0
H722 H 0.85904 0.40636 0.86902 0.0
H723 H 0.82486 0.46919 0.75664 0.0
C724 C 0.80084 0.46647 0.84143 0.0
C725 C 0.79378 0.45414 0.90163 0.0
C726 C 0.86633 0.41858 0.83245 0.0
C727 C 0.82943 0.43848 0.81929 0.0
C728 C 0.88969 0.42012 0.82794 0.0
C729 C 0.89965 0.43714 0.78626 0.0
C730 C 0.85292 0.43444 0.7961 0.0
C731 C 0.88565 0.45076 0.74369 0.0
C732 C 0.81845 0.45851 0.7993 0.0
C733 C 0.80272 0.4326 0.91283 0.0
N734 N 0.86299 0.4495 0.75105 0.0
N735 N 0.82062 0.42571 0.87343 0.0
H736 H 0.02482 0.18137 0.83844 0.0
H737 H 0.04264 0.04814 0.89308 0.0
H738 H 0.04786 0.1503 0.03516 0.0
H739 H 0.01217 0.07657 0.70292 0.0
H740 H 0.04619 0.08591 0.94253 0.0
H741 H 0.02121 0.14382 0.78532 0.0
C742 C 0.02914 0.16678 0.87067 0.0
C743 C 0.03689 0.16933 0.94162 0.0
C744 C 0.03873 0.08396 0.88993 0.0
C745 C 0.03295 0.12605 0.88035 0.0
C746 C 0.03672 0.06229 0.86146 0.0
C747 C 0.0271 0.05897 0.79347 0.0
C748 C 0.03114 0.10272 0.8504 0.0
C749 C 0.01973 0.07818 0.75547 0.0
C750 C 0.02715 0.14529 0.84003 0.0
C751 C 0.04235 0.14954 0.97991 0.0
N752 N 0.02191 0.09916 0.78435 0.0
N753 N 0.04031 0.12895 0.94892 0.0
H754 H 0.32835 0.02738 0.79582 0.0
H755 H 0.4561 0.99562 0.88543 0.0
H756 H 0.34894 0.9952 0.99317 0.0
H757 H 0.43379 0.01184 0.67123 0.0
H758 H 0.41708 0.99714 0.92676 0.0
H759 H 0.36671 0.02303 0.74941 0.0
C760 C 0.34087 0.01924 0.82921 0.0
C761 C 0.33532 0.01162 0.8986 0.0
C762 C 0.42065 1.00025 0.87059 0.0
C763 C 0.37944 0.00685 0.84603 0.0
C764 C 0.44297 0.99951 0.84701 0.0
C765 C 0.44822 1.00345 0.77456 0.0
C766 C 0.40334 1.00529 0.82171 0.0
C767 C 0.43046 0.00833 0.72725 0.0
C768 C 0.36278 0.01673 0.80261 0.0
C769 C 0.3523 1.0011 0.93916 0.0
N770 N 0.40885 0.00924 0.75166 0.0
N771 N 0.37356 0.99923 0.91262 0.0
H772 H 0.49037 0.34591 0.05585 0.0
H773 H 0.51913 0.4234 0.71562 0.0
H774 H 0.5059 0.31767 0.84906 0.0
H775 H 0.48905 0.44808 0.9104 0.0
H776 H 0.51588 0.38482 0.76234 0.0
H777 H 0.49137 0.38348 1.003 0.0
C778 C 0.49411 0.34762 0.99918 0.0
C779 C 0.49833 0.32855 0.95709 0.0
C780 C 0.50989 0.39867 0.79463 0.0
C781 C 0.49939 0.37189 0.89561 0.0
C782 C 0.5118 0.42073 0.76808 0.0
C783 C 0.50445 0.43912 0.8091 0.0
C784 C 0.50075 0.39492 0.86321 0.0
C785 C 0.49498 0.43455 0.87667 0.0
C786 C 0.49453 0.36914 0.96886 0.0
C787 C 0.50258 0.33188 0.88355 0.0
N788 N 0.49355 0.41302 0.90162 0.0
N789 N 0.5032 0.35315 0.85523 0.0
H790 H 0.1734 0.47767 0.04473 0.0
H791 H 0.106 0.51625 0.69188 0.0
H792 H 0.20658 0.50937 0.86505 0.0
H793 H 0.07714 0.47898 0.86891 0.0
H794 H 0.14292 0.51403 0.75098 0.0
H795 H 0.1383 0.47763 0.97761 0.0
C796 C 0.1733 0.48451 0.9907 0.0
C797 C 0.19297 0.49364 0.96069 0.0
C798 C 0.1285 0.50626 0.77657 0.0
C799 C 0.15243 0.49387 0.88289 0.0
C800 C 0.10737 0.50754 0.74293 0.0
C801 C 0.08828 0.49778 0.7753 0.0
C802 C 0.13058 0.49519 0.84318 0.0
C803 C 0.09121 0.4868 0.84162 0.0
C804 C 0.15319 0.4845 0.95225 0.0
C805 C 0.19184 0.50209 0.89013 0.0
N806 N 0.11182 0.48586 0.8731 0.0
N807 N 0.17185 0.50221 0.85379 0.0
H808 H 0.01636 0.82939 0.38662 0.0
H809 H 0.99738 0.91348 0.71695 0.0
H810 H 0.98131 0.8103 0.58026 0.0
H811 H 0.01813 0.93583 0.50673 0.0
H812 H 0.99471 0.87489 0.67203 0.0
H813 H 0.02094 0.86748 0.43427 0.0
C814 C 0.0099 0.83308 0.4396 0.0
C815 C 0.99842 0.8165 0.47939 0.0
C816 C 0.99985 0.8882 0.63561 0.0
C817 C 1.00342 0.86034 0.53413 0.0
C818 C 1.00153 0.91023 0.66141 0.0
C819 C 0.00821 0.9279 0.61579 0.0
C820 C 1.00503 0.88367 0.5635 0.0
C821 C 0.01287 0.92276 0.54381 0.0
C822 C 0.01233 0.85494 0.46649 0.0
C823 C 0.99011 0.82252 0.54733 0.0
N824 N 0.01131 0.90115 0.52004 0.0
N825 N 0.99278 0.84385 0.57247 0.0
H826 H 0.70279 0.01402 0.58792 0.0
H827 H 0.57572 0.9729 0.52692 0.0
H828 H 0.68055 0.97894 0.39867 0.0
H829 H 0.59729 0.01097 0.71104 0.0
H830 H 0.61453 0.97232 0.48378 0.0
H831 H 0.66503 0.01021 0.63851 0.0
C832 C 0.69004 1.00537 0.5571 0.0
C833 C 0.69496 0.99693 0.48851 0.0
C834 C 0.61081 0.98072 0.5338 0.0
C835 C 0.65146 0.99249 0.54651 0.0
C836 C 0.58859 0.98107 0.55858 0.0
C837 C 0.58307 0.99207 0.62279 0.0
C838 C 0.62779 0.99146 0.57333 0.0
C839 C 0.60062 1.00229 0.6613 0.0
C840 C 0.66844 1.00318 0.58615 0.0
C841 C 0.67772 0.98556 0.45188 0.0
N842 N 0.6221 1.0018 0.63589 0.0
N843 N 0.65676 0.98384 0.48102 0.0
H844 H 0.53153 0.66894 0.41421 0.0
H845 H 0.50946 0.58964 0.75664 0.0
H846 H 0.50782 0.69351 0.61812 0.0
H847 H 0.53343 0.56509 0.55294 0.0
H848 H 0.51136 0.62808 0.70954 0.0
H849 H 0.53561 0.63143 0.46718 0.0
C850 C 0.52759 0.6666 0.47049 0.0
C851 C 0.51919 0.68451 0.51151 0.0
C852 C 0.51633 0.61431 0.67523 0.0
C853 C 0.52337 0.64128 0.57232 0.0
C854 C 0.51525 0.5923 0.70213 0.0
C855 C 0.52122 0.57399 0.65871 0.0
C856 C 0.52339 0.61817 0.6042 0.0
C857 C 0.52859 0.5786 0.58845 0.0
C858 C 0.52971 0.64506 0.50057 0.0
C859 C 0.51402 0.6802 0.58398 0.0
N860 N 0.52937 0.60016 0.56338 0.0
N861 N 0.51603 0.65906 0.61181 0.0
H862 H 0.83954 0.48965 0.50854 0.0
H863 H 0.96481 0.53918 0.52542 0.0
H864 H 0.86014 0.55147 0.40503 0.0
H865 H 0.94288 0.48289 0.65497 0.0
H866 H 0.92642 0.54367 0.48111 0.0
H867 H 0.87663 0.48713 0.56539 0.0
C868 C 0.85167 0.50289 0.4985 0.0
C869 C 0.84661 0.5207 0.4511 0.0
C870 C 0.92993 0.53038 0.51951 0.0
C871 C 0.88945 0.51762 0.51504 0.0
C872 C 0.95195 0.52774 0.5447 0.0
C873 C 0.95722 0.51063 0.59424 0.0
C874 C 0.91291 0.5157 0.54336 0.0
C875 C 0.93966 0.49643 0.6173 0.0
C876 C 0.87296 0.50132 0.53058 0.0
C877 C 0.86329 0.53716 0.4398 0.0
N878 N 0.91838 0.4992 0.59148 0.0
N879 N 0.88389 0.53512 0.4709 0.0
loop_
_geom_bond_atom_site_label_1
_geom_bond_atom_site_label_2
_geom_bond_distance
_geom_bond_site_symmetry_2
_ccdc_geom_bond_type
C0 C1 1.384 . S
C0 H13 0.947 . S
C0 C35 1.382 . S
C1 C0 1.384 . S
C1 C2 1.378 . S
C2 C1 1.378 . S
C2 C3 1.378 . S
C2 H14 0.952 . S
C3 C2 1.378 . S
C3 H15 0.950 . S
C3 C34 1.383 . S
H4 C23 0.947 . S
H5 C24 0.946 . S
H6 C26 0.953 . S
H7 C27 0.945 . S
H8 C29 0.952 . S
H9 C30 0.949 . S
H10 C32 0.950 . S
H11 C33 0.948 . S
H12 C35 0.951 . S
H13 C0 0.947 . S
H14 C2 0.952 . S
H15 C3 0.950 . S
N16 C19 1.382 . S
N16 C21 1.363 . S
N17 C19 1.371 . S
N17 C20 1.372 . S
N18 C20 1.361 . S
N18 C21 1.377 . S
C19 N16 1.382 . S
C19 N17 1.371 . S
C19 C22 1.480 . S
C20 N17 1.372 . S
C20 N18 1.361 . S
C20 C28 1.457 . S
C21 N16 1.363 . S
C21 N18 1.377 . S
C21 C34 1.479 . S
C22 C19 1.480 . S
C22 C23 1.383 . S
C22 C27 1.385 . S
C23 H4 0.947 . S
C23 C22 1.383 . S
C23 C24 1.388 . S
C24 H5 0.946 . S
C24 C23 1.388 . S
C24 C25 1.384 . S
C25 C24 1.384 . S
C25 C26 1.377 . S
C26 H6 0.953 . S
C26 C25 1.377 . S
C26 C27 1.369 . S
C27 H7 0.945 . S
C27 C22 1.385 . S
C27 C26 1.369 . S
C28 C20 1.457 . S
C28 C29 1.372 . S
C28 C33 1.364 . S
C29 H8 0.952 . S
C29 C28 1.372 . S
C29 C30 1.389 . S
C30 H9 0.949 . S
C30 C29 1.389 . S
C30 C31 1.387 . S
C31 C30 1.387 . S
C31 C32 1.372 . S
C32 H10 0.950 . S
C32 C31 1.372 . S
C32 C33 1.379 . S
C33 H11 0.948 . S
C33 C28 1.364 . S
C33 C32 1.379 . S
C34 C3 1.383 . S
C34 C21 1.479 . S
C34 C35 1.398 . S
C35 C0 1.382 . S
C35 H12 0.951 . S
C35 C34 1.398 . S
C36 C37 1.384 1_655 S
C36 H49 0.948 . S
C36 C71 1.382 1_655 S
C37 C36 1.384 1_455 S
C37 C38 1.378 . S
C38 C37 1.378 . S
C38 C39 1.378 . S
C38 H50 0.952 . S
C39 C38 1.378 . S
C39 H51 0.950 . S
C39 C70 1.383 . S
H40 C59 0.947 . S
H41 C60 0.952 . S
H42 C62 0.953 . S
H43 C63 0.945 . S
H44 C65 0.949 1_655 S
H45 C66 0.956 . S
H46 C68 0.950 . S
H47 C69 0.948 . S
H48 C71 0.951 1_655 S
H49 C36 0.948 . S
H50 C38 0.952 . S
H51 C39 0.950 . S
N52 C55 1.382 . S
N52 C57 1.363 . S
N53 C55 1.371 . S
N53 C56 1.372 . S
N54 C56 1.361 . S
N54 C57 1.377 . S
C55 N52 1.382 . S
C55 N53 1.371 . S
C55 C58 1.480 . S
C56 N53 1.372 . S
C56 N54 1.361 . S
C56 C64 1.457 . S
C57 N52 1.363 . S
C57 N54 1.377 . S
C57 C70 1.479 . S
C58 C55 1.480 . S
C58 C59 1.383 . S
C58 C63 1.385 . S
C59 H40 0.947 . S
C59 C58 1.383 . S
C59 C60 1.386 1_455 S
C60 H41 0.952 . S
C60 C59 1.386 1_655 S
C60 C61 1.381 1_655 S
C61 C60 1.381 1_455 S
C61 C62 1.377 . S
C62 H42 0.953 . S
C62 C61 1.377 . S
C62 C63 1.369 . S
C63 H43 0.945 . S
C63 C58 1.385 . S
C63 C62 1.369 . S
C64 C56 1.457 . S
C64 C65 1.376 . S
C64 C69 1.364 . S
C65 H44 0.949 1_455 S
C65 C64 1.376 . S
C65 C66 1.386 1_455 S
C66 H45 0.956 . S
C66 C65 1.386 1_655 S
C66 C67 1.383 1_655 S
C67 C66 1.383 1_455 S
C67 C68 1.372 . S
C68 H46 0.950 . S
C68 C67 1.372 . S
C68 C69 1.379 . S
C69 H47 0.948 . S
C69 C64 1.364 . S
C69 C68 1.379 . S
C70 C39 1.383 . S
C70 C57 1.479 . S
C70 C71 1.398 . S
C71 C36 1.382 1_455 S
C71 H48 0.951 1_455 S
C71 C70 1.398 . S
C72 C73 1.384 1_565 S
C72 H85 0.948 . S
C72 C107 1.382 1_565 S
C73 C72 1.384 1_545 S
C73 C74 1.378 . S
C74 C73 1.378 . S
C74 C75 1.378 . S
C74 H86 0.952 . S
C75 C74 1.378 . S
C75 H87 0.950 . S
C75 C106 1.383 . S
H76 C95 0.947 . S
H77 C96 0.952 . S
H78 C98 0.953 . S
H79 C99 0.945 . S
H80 C101 0.949 1_565 S
H81 C102 0.957 . S
H82 C104 0.950 . S
H83 C105 0.948 . S
H84 C107 0.951 1_565 S
H85 C72 0.948 . S
H86 C74 0.952 . S
H87 C75 0.950 . S
N88 C91 1.382 . S
N88 C93 1.363 . S
N89 C91 1.371 . S
N89 C92 1.372 . S
N90 C92 1.361 . S
N90 C93 1.377 . S
C91 N88 1.382 . S
C91 N89 1.371 . S
C91 C94 1.480 . S
C92 N89 1.372 . S
C92 N90 1.361 . S
C92 C100 1.457 . S
C93 N88 1.363 . S
C93 N90 1.377 . S
C93 C106 1.479 . S
C94 C91 1.480 . S
C94 C95 1.383 . S
C94 C99 1.385 . S
C95 H76 0.947 . S
C95 C94 1.383 . S
C95 C96 1.386 1_545 S
C96 H77 0.952 . S
C96 C95 1.386 1_565 S
C96 C97 1.382 1_565 S
C97 C96 1.382 1_545 S
C97 C98 1.377 . S
C98 H78 0.953 . S
C98 C97 1.377 . S
C98 C99 1.369 . S
C99 H79 0.945 . S
C99 C94 1.385 . S
C99 C98 1.369 . S
C100 C92 1.457 . S
C100 C101 1.376 . S
C100 C105 1.364 . S
C101 H80 0.949 1_545 S
C101 C100 1.376 . S
C101 C102 1.386 1_545 S
C102 H81 0.957 . S
C102 C101 1.386 1_565 S
C102 C103 1.383 1_565 S
C103 C102 1.383 1_545 S
C103 C104 1.372 . S
C104 H82 0.950 . S
C104 C103 1.372 . S
C104 C105 1.379 . S
C105 H83 0.948 . S
C105 C100 1.364 . S
C105 C104 1.379 . S
C106 C75 1.383 . S
C106 C93 1.479 . S
C106 C107 1.398 . S
C107 C72 1.382 1_545 S
C107 H84 0.951 1_545 S
C107 C106 1.398 . S
C108 C109 1.384 . S
C108 H121 0.947 . S
C108 C143 1.382 . S
C109 C108 1.384 . S
C109 C110 1.378 . S
C110 C109 1.378 . S
C110 C111 1.378 . S
C110 H122 0.952 . S
C111 C110 1.378 . S
C111 H123 0.950 . S
C111 C142 1.383 . S
H112 C131 0.947 . S
H113 C132 0.946 . S
H114 C134 0.953 . S
H115 C135 0.945 . S
H116 C137 0.952 . S
H117 C138 0.949 . S
H118 C140 0.950 . S
H119 C141 0.948 . S
H120 C143 0.951 . S
H121 C108 0.947 . S
H122 C110 0.952 . S
H123 C111 0.950 . S
N124 C127 1.382 . S
N124 C129 1.363 . S
N125 C127 1.371 . S
N125 C128 1.372 . S
N126 C128 1.361 . S
N126 C129 1.377 . S
C127 N124 1.382 . S
C127 N125 1.371 . S
C127 C130 1.480 . S
C128 N125 1.372 . S
C128 N126 1.361 . S
C128 C136 1.457 . S
C129 N124 1.363 . S
C129 N126 1.377 . S
C129 C142 1.479 . S
C130 C127 1.480 . S
C130 C131 1.383 . S
C130 C135 1.385 . S
C131 H112 0.947 . S
C131 C130 1.383 . S
C131 C132 1.388 . S
C132 H113 0.946 . S
C132 C131 1.388 . S
C132 C133 1.384 . S
C133 C132 1.384 . S
C133 C134 1.377 . S
C134 H114 0.953 . S
C134 C133 1.377 . S
C134 C135 1.369 . S
C135 H115 0.945 . S
C135 C130 1.385 . S
C135 C134 1.369 . S
C136 C128 1.457 . S
C136 C137 1.372 . S
C136 C141 1.364 . S
C137 H116 0.952 . S
C137 C136 1.372 . S
C137 C138 1.389 . S
C138 H117 0.949 . S
C138 C137 1.389 . S
C138 C139 1.387 . S
C139 C138 1.387 . S
C139 C140 1.372 . S
C140 H118 0.950 . S
C140 C139 1.372 . S
C140 C141 1.379 . S
C141 H119 0.948 . S
C141 C136 1.364 . S
C141 C140 1.379 . S
C142 C111 1.383 . S
C142 C129 1.479 . S
C142 C143 1.398 . S
C143 C108 1.382 . S
C143 H120 0.951 . S
C143 C142 1.398 . S
C144 C145 1.384 . S
C144 H157 0.947 . S
C144 C179 1.382 . S
C145 C144 1.384 . S
C145 C146 1.378 . S
C146 C145 1.378 . S
C146 C147 1.378 . S
C146 H158 0.952 . S
C147 C146 1.378 . S
C147 H159 0.950 . S
C147 C178 1.383 . S
H148 C167 0.947 1_556 S
H149 C168 0.946 . S
H150 C170 0.953 . S
H151 C171 0.945 . S
H152 C173 0.952 . S
H153 C174 0.949 . S
H154 C176 0.950 . S
H155 C177 0.948 . S
H156 C179 0.951 . S
H157 C144 0.947 . S
H158 C146 0.952 . S
H159 C147 0.950 . S
N160 C163 1.382 . S
N160 C165 1.363 1_554 S
N161 C163 1.371 . S
N161 C164 1.372 . S
N162 C164 1.361 . S
N162 C165 1.377 1_554 S
C163 N160 1.382 . S
C163 N161 1.371 . S
C163 C166 1.480 . S
C164 N161 1.372 . S
C164 N162 1.361 . S
C164 C172 1.457 . S
C165 N160 1.363 1_556 S
C165 N162 1.377 1_556 S
C165 C178 1.479 . S
C166 C163 1.480 . S
C166 C167 1.383 . S
C166 C171 1.385 . S
C167 H148 0.947 1_554 S
C167 C166 1.383 . S
C167 C168 1.388 . S
C168 H149 0.946 . S
C168 C167 1.388 . S
C168 C169 1.384 . S
C169 C168 1.384 . S
C169 C170 1.377 . S
C170 H150 0.953 . S
C170 C169 1.377 . S
C170 C171 1.369 . S
C171 H151 0.945 . S
C171 C166 1.385 . S
C171 C170 1.369 . S
C172 C164 1.457 . S
C172 C173 1.372 . S
C172 C177 1.364 . S
C173 H152 0.952 . S
C173 C172 1.372 . S
C173 C174 1.389 . S
C174 H153 0.949 . S
C174 C173 1.389 . S
C174 C175 1.387 . S
C175 C174 1.387 . S
C175 C176 1.372 . S
C176 H154 0.950 . S
C176 C175 1.372 . S
C176 C177 1.379 . S
C177 H155 0.948 . S
C177 C172 1.364 . S
C177 C176 1.379 . S
C178 C147 1.383 . S
C178 C165 1.479 . S
C178 C179 1.398 . S
C179 C144 1.382 . S
C179 H156 0.951 . S
C179 C178 1.398 . S
C180 C181 1.384 . S
C180 H193 0.948 1_455 S
C180 C215 1.382 . S
C181 C180 1.384 . S
C181 C182 1.378 . S
C182 C181 1.378 . S
C182 C183 1.378 . S
C182 H194 0.952 . S
C183 C182 1.378 . S
C183 H195 0.950 . S
C183 C214 1.383 . S
H184 C203 0.947 1_556 S
H185 C204 0.949 . S
H186 C206 0.953 . S
H187 C207 0.945 . S
H188 C209 0.947 1_655 S
H189 C210 0.954 . S
H190 C212 0.950 . S
H191 C213 0.948 . S
H192 C215 0.950 1_655 S
H193 C180 0.948 1_655 S
H194 C182 0.952 . S
H195 C183 0.950 . S
N196 C199 1.382 . S
N196 C201 1.363 1_554 S
N197 C199 1.371 . S
N197 C200 1.372 . S
N198 C200 1.361 . S
N198 C201 1.377 1_554 S
C199 N196 1.382 . S
C199 N197 1.371 . S
C199 C202 1.480 . S
C200 N197 1.372 . S
C200 N198 1.361 . S
C200 C208 1.457 . S
C201 N196 1.363 1_556 S
C201 N198 1.377 1_556 S
C201 C214 1.479 . S
C202 C199 1.480 . S
C202 C203 1.383 . S
C202 C207 1.385 . S
C203 H184 0.947 1_554 S
C203 C202 1.383 . S
C203 C204 1.387 1_455 S
C204 H185 0.949 . S
C204 C203 1.387 1_655 S
C204 C205 1.382 1_655 S
C205 C204 1.382 1_455 S
C205 C206 1.377 . S
C206 H186 0.953 . S
C206 C205 1.377 . S
C206 C207 1.369 . S
C207 H187 0.945 . S
C207 C202 1.385 . S
C207 C206 1.369 . S
C208 C200 1.457 . S
C208 C209 1.379 . S
C208 C213 1.364 . S
C209 H188 0.947 1_455 S
C209 C208 1.379 . S
C209 C210 1.387 1_455 S
C210 H189 0.954 . S
C210 C209 1.387 1_655 S
C210 C211 1.384 1_655 S
C211 C210 1.384 1_455 S
C211 C212 1.372 . S
C212 H190 0.950 . S
C212 C211 1.372 . S
C212 C213 1.379 . S
C213 H191 0.948 . S
C213 C208 1.364 . S
C213 C212 1.379 . S
C214 C183 1.383 . S
C214 C201 1.479 . S
C214 C215 1.399 . S
C215 C180 1.382 . S
C215 H192 0.950 1_455 S
C215 C214 1.399 . S
C216 C217 1.384 . S
C216 H229 0.948 1_545 S
C216 C251 1.382 . S
C217 C216 1.384 . S
C217 C218 1.378 . S
C218 C217 1.378 . S
C218 C219 1.378 . S
C218 H230 0.952 . S
C219 C218 1.378 . S
C219 H231 0.950 . S
C219 C250 1.383 . S
H220 C239 0.947 1_556 S
H221 C240 0.949 . S
H222 C242 0.953 . S
H223 C243 0.945 . S
H224 C245 0.947 1_565 S
H225 C246 0.954 . S
H226 C248 0.950 . S
H227 C249 0.948 . S
H228 C251 0.950 1_565 S
H229 C216 0.948 1_565 S
H230 C218 0.952 . S
H231 C219 0.950 . S
N232 C235 1.382 . S
N232 C237 1.363 1_554 S
N233 C235 1.371 . S
N233 C236 1.372 . S
N234 C236 1.361 . S
N234 C237 1.377 1_554 S
C235 N232 1.382 . S
C235 N233 1.371 . S
C235 C238 1.480 . S
C236 N233 1.372 . S
C236 N234 1.361 . S
C236 C244 1.457 . S
C237 N232 1.363 1_556 S
C237 N234 1.377 1_556 S
C237 C250 1.479 . S
C238 C235 1.480 . S
C238 C239 1.383 . S
C238 C243 1.385 . S
C239 H220 0.947 1_554 S
C239 C238 1.383 . S
C239 C240 1.387 1_545 S
C240 H221 0.949 . S
C240 C239 1.387 1_565 S
C240 C241 1.382 1_565 S
C241 C240 1.382 1_545 S
C241 C242 1.377 . S
C242 H222 0.953 . S
C242 C241 1.377 . S
C242 C243 1.369 . S
C243 H223 0.945 . S
C243 C238 1.385 . S
C243 C242 1.369 . S
C244 C236 1.457 . S
C244 C245 1.379 . S
C244 C249 1.364 . S
C245 H224 0.947 1_545 S
C245 C244 1.379 . S
C245 C246 1.387 1_545 S
C246 H225 0.954 . S
C246 C245 1.387 1_565 S
C246 C247 1.384 1_565 S
C247 C246 1.384 1_545 S
C247 C248 1.372 . S
C248 H226 0.950 . S
C248 C247 1.372 . S
C248 C249 1.379 . S
C249 H227 0.948 . S
C249 C244 1.364 . S
C249 C248 1.379 . S
C250 C219 1.383 . S
C250 C237 1.479 . S
C250 C251 1.399 . S
C251 C216 1.382 . S
C251 H228 0.950 1_545 S
C251 C250 1.399 . S
C252 C253 1.384 . S
C252 H265 0.947 . S
C252 C287 1.382 . S
C253 C252 1.384 . S
C253 C254 1.378 . S
C254 C253 1.378 . S
C254 C255 1.378 . S
C254 H266 0.952 . S
C255 C254 1.378 . S
C255 H267 0.950 . S
C255 C286 1.383 . S
H256 C275 0.947 . S
H257 C276 0.946 . S
H258 C278 0.953 . S
H259 C279 0.945 1_556 S
H260 C281 0.952 . S
H261 C282 0.949 . S
H262 C284 0.950 . S
H263 C285 0.948 . S
H264 C287 0.951 . S
H265 C252 0.947 . S
H266 C254 0.952 . S
H267 C255 0.950 . S
N268 C271 1.382 . S
N268 C273 1.363 . S
N269 C271 1.371 1_556 S
N269 C272 1.372 . S
N270 C272 1.361 1_554 S
N270 C273 1.377 . S
C271 N268 1.382 . S
C271 N269 1.371 1_554 S
C271 C274 1.480 . S
C272 N269 1.372 . S
C272 N270 1.361 1_556 S
C272 C280 1.457 . S
C273 N268 1.363 . S
C273 N270 1.377 . S
C273 C286 1.479 . S
C274 C271 1.480 . S
C274 C275 1.383 . S
C274 C279 1.385 . S
C275 H256 0.947 . S
C275 C274 1.383 . S
C275 C276 1.388 . S
C276 H257 0.946 . S
C276 C275 1.388 . S
C276 C277 1.384 . S
C277 C276 1.384 . S
C277 C278 1.377 . S
C278 H258 0.953 . S
C278 C277 1.377 . S
C278 C279 1.369 . S
C279 H259 0.945 1_554 S
C279 C274 1.385 . S
C279 C278 1.369 . S
C280 C272 1.457 . S
C280 C281 1.372 . S
C280 C285 1.364 . S
C281 H260 0.952 . S
C281 C280 1.372 . S
C281 C282 1.389 . S
C282 H261 0.949 . S
C282 C281 1.389 . S
C282 C283 1.387 . S
C283 C282 1.387 . S
C283 C284 1.372 . S
C284 H262 0.950 . S
C284 C283 1.372 . S
C284 C285 1.379 . S
C285 H263 0.948 . S
C285 C280 1.364 . S
C285 C284 1.379 . S
C286 C255 1.383 . S
C286 C273 1.479 . S
C286 C287 1.398 . S
C287 C252 1.382 . S
C287 H264 0.951 . S
C287 C286 1.398 . S
Tb288 C290 2.809 . S
Tb288 O308 2.484 . S
Tb288 O309 2.440 . S
Tb288 O310 2.658 1_565 S
Tb288 O311 2.409 . S
Tb288 O312 2.378 . S
Tb288 O316 2.325 1_455 S
Tb288 O319 2.341 1_565 S
Tb289 C299 2.809 . S
Tb289 O310 2.325 1_655 S
Tb289 O313 2.341 1_545 S
Tb289 O314 2.484 . S
Tb289 O315 2.440 . S
Tb289 O316 2.658 1_545 S
Tb289 O317 2.409 . S
Tb289 O318 2.378 . S
C290 Tb288 2.809 . S
C290 C291 1.514 . S
C290 O308 1.248 . S
C290 O309 1.266 . S
C291 C290 1.514 . S
C291 C292 1.359 . S
C291 C296 1.348 . S
C292 C291 1.359 . S
C292 C293 1.380 . S
C292 H320 0.929 1_455 S
C293 C292 1.380 . S
C293 C294 1.347 . S
C293 H321 0.931 1_455 S
C294 C293 1.347 . S
C294 C295 1.369 . S
C295 C294 1.369 . S
C295 C296 1.408 . S
C295 H322 0.930 . S
C296 C291 1.348 . S
C296 C295 1.408 . S
C296 H323 0.930 . S
C297 O310 1.281 1_565 S
C297 O311 1.254 . S
C298 O312 1.236 1_655 S
C298 O313 1.266 . S
C299 Tb289 2.809 . S
C299 C300 1.514 . S
C299 O314 1.248 . S
C299 O315 1.266 . S
C300 C299 1.514 . S
C300 C301 1.359 . S
C300 C305 1.348 . S
C301 C300 1.359 . S
C301 C302 1.380 . S
C301 H324 0.929 1_655 S
C302 C301 1.380 . S
C302 C303 1.347 . S
C302 H325 0.931 1_655 S
C303 C302 1.347 . S
C303 C304 1.369 . S
C304 C303 1.369 . S
C304 C305 1.408 . S
C304 H326 0.930 . S
C305 C300 1.348 . S
C305 C304 1.408 . S
C305 H327 0.930 . S
C306 O316 1.281 1_545 S
C306 O317 1.254 . S
C307 O318 1.236 1_455 S
C307 O319 1.266 . S
O308 Tb288 2.484 . S
O308 C290 1.248 . S
O309 Tb288 2.440 . S
O309 C290 1.266 . S
O310 Tb288 2.658 1_545 S
O310 Tb289 2.325 1_455 S
O310 C297 1.281 1_545 S
O311 Tb288 2.409 . S
O311 C297 1.254 . S
O312 Tb288 2.378 . S
O312 C298 1.236 1_455 S
O313 Tb289 2.341 1_565 S
O313 C298 1.266 . S
O314 Tb289 2.484 . S
O314 C299 1.248 . S
O315 Tb289 2.440 . S
O315 C299 1.266 . S
O316 Tb288 2.325 1_655 S
O316 Tb289 2.658 1_565 S
O316 C306 1.281 1_565 S
O317 Tb289 2.409 . S
O317 C306 1.254 . S
O318 Tb289 2.378 . S
O318 C307 1.236 1_655 S
O319 Tb288 2.341 1_545 S
O319 C307 1.266 . S
H320 C292 0.929 1_655 S
H321 C293 0.931 1_655 S
H322 C295 0.930 . S
H323 C296 0.930 . S
H324 C301 0.929 1_455 S
H325 C302 0.931 1_455 S
H326 C304 0.930 . S
H327 C305 0.930 . S
Tb328 C330 2.809 . S
Tb328 O348 2.484 . S
Tb328 O349 2.440 . S
Tb328 O350 2.658 . S
Tb328 O351 2.409 . S
Tb328 O352 2.378 . S
Tb328 O356 2.325 1_545 S
Tb328 O359 2.341 . S
Tb329 C339 2.809 . S
Tb329 O350 2.325 1_565 S
Tb329 O353 2.341 . S
Tb329 O354 2.484 . S
Tb329 O355 2.440 . S
Tb329 O356 2.658 . S
Tb329 O357 2.409 . S
Tb329 O358 2.378 . S
C330 Tb328 2.809 . S
C330 C331 1.514 . S
C330 O348 1.248 . S
C330 O349 1.266 . S
C331 C330 1.514 . S
C331 C332 1.359 . S
C331 C336 1.348 . S
C332 C331 1.359 . S
C332 C333 1.380 . S
C332 H360 0.929 1_545 S
C333 C332 1.380 . S
C333 C334 1.347 . S
C333 H361 0.931 1_545 S
C334 C333 1.347 . S
C334 C335 1.369 . S
C335 C334 1.369 . S
C335 C336 1.408 . S
C335 H362 0.930 . S
C336 C331 1.348 . S
C336 C335 1.408 . S
C336 H363 0.930 . S
C337 O350 1.281 . S
C337 O351 1.254 . S
C338 O352 1.236 1_565 S
C338 O353 1.266 . S
C339 Tb329 2.809 . S
C339 C340 1.514 . S
C339 O354 1.248 . S
C339 O355 1.266 . S
C340 C339 1.514 . S
C340 C341 1.359 . S
C340 C345 1.348 . S
C341 C340 1.359 . S
C341 C342 1.380 . S
C341 H364 0.929 1_565 S
C342 C341 1.380 . S
C342 C343 1.347 . S
C342 H365 0.931 1_565 S
C343 C342 1.347 . S
C343 C344 1.369 . S
C344 C343 1.369 . S
C344 C345 1.408 . S
C344 H366 0.930 . S
C345 C340 1.348 . S
C345 C344 1.408 . S
C345 H367 0.930 . S
C346 O356 1.281 . S
C346 O357 1.254 . S
C347 O358 1.236 1_545 S
C347 O359 1.266 . S
O348 Tb328 2.484 . S
O348 C330 1.248 . S
O349 Tb328 2.440 . S
O349 C330 1.266 . S
O350 Tb328 2.658 . S
O350 Tb329 2.325 1_545 S
O350 C337 1.281 . S
O351 Tb328 2.409 . S
O351 C337 1.254 . S
O352 Tb328 2.378 . S
O352 C338 1.236 1_545 S
O353 Tb329 2.341 . S
O353 C338 1.266 . S
O354 Tb329 2.484 . S
O354 C339 1.248 . S
O355 Tb329 2.440 . S
O355 C339 1.266 . S
O356 Tb328 2.325 1_565 S
O356 Tb329 2.658 . S
O356 C346 1.281 . S
O357 Tb329 2.409 . S
O357 C346 1.254 . S
O358 Tb329 2.378 . S
O358 C347 1.236 1_565 S
O359 Tb328 2.341 . S
O359 C347 1.266 . S
H360 C332 0.929 1_565 S
H361 C333 0.931 1_565 S
H362 C335 0.930 . S
H363 C336 0.930 . S
H364 C341 0.929 1_545 S
H365 C342 0.931 1_545 S
H366 C344 0.930 . S
H367 C345 0.930 . S
Tb368 C370 2.809 . S
Tb368 O388 2.484 . S
Tb368 O389 2.440 . S
Tb368 O390 2.658 . S
Tb368 O391 2.409 . S
Tb368 O392 2.378 . S
Tb368 O396 2.325 . S
Tb368 O399 2.341 . S
Tb369 C379 2.809 . S
Tb369 O390 2.325 . S
Tb369 O393 2.341 . S
Tb369 O394 2.484 . S
Tb369 O395 2.440 . S
Tb369 O396 2.658 . S
Tb369 O397 2.409 . S
Tb369 O398 2.378 . S
C370 Tb368 2.809 . S
C370 C371 1.514 . S
C370 O388 1.248 . S
C370 O389 1.266 . S
C371 C370 1.514 . S
C371 C372 1.359 . S
C371 C376 1.348 . S
C372 C371 1.359 . S
C372 C373 1.380 . S
C372 H400 0.929 . S
C373 C372 1.380 . S
C373 C374 1.347 . S
C373 H401 0.931 . S
C374 C373 1.347 . S
C374 C375 1.369 . S
C375 C374 1.369 . S
C375 C376 1.408 . S
C375 H402 0.930 . S
C376 C371 1.348 . S
C376 C375 1.408 . S
C376 H403 0.930 . S
C377 O390 1.281 . S
C377 O391 1.254 . S
C378 O392 1.236 . S
C378 O393 1.266 . S
C379 Tb369 2.809 . S
C379 C380 1.514 . S
C379 O394 1.248 . S
C379 O395 1.266 . S
C380 C379 1.514 . S
C380 C381 1.359 . S
C380 C385 1.348 . S
C381 C380 1.359 . S
C381 C382 1.380 . S
C381 H404 0.929 . S
C382 C381 1.380 . S
C382 C383 1.347 . S
C382 H405 0.931 . S
C383 C382 1.347 . S
C383 C384 1.369 . S
C384 C383 1.369 . S
C384 C385 1.408 . S
C384 H406 0.930 . S
C385 C380 1.348 . S
C385 C384 1.408 . S
C385 H407 0.930 . S
C386 O396 1.281 . S
C386 O397 1.254 . S
C387 O398 1.236 . S
C387 O399 1.266 . S
O388 Tb368 2.484 . S
O388 C370 1.248 . S
O389 Tb368 2.440 . S
O389 C370 1.266 . S
O390 Tb368 2.658 . S
O390 Tb369 2.325 . S
O390 C377 1.281 . S
O391 Tb368 2.409 . S
O391 C377 1.254 . S
O392 Tb368 2.378 . S
O392 C378 1.236 . S
O393 Tb369 2.341 . S
O393 C378 1.266 . S
O394 Tb369 2.484 . S
O394 C379 1.248 . S
O395 Tb369 2.440 . S
O395 C379 1.266 . S
O396 Tb368 2.325 . S
O396 Tb369 2.658 . S
O396 C386 1.281 . S
O397 Tb369 2.409 . S
O397 C386 1.254 . S
O398 Tb369 2.378 . S
O398 C387 1.236 . S
O399 Tb368 2.341 . S
O399 C387 1.266 . S
H400 C372 0.929 . S
H401 C373 0.931 . S
H402 C375 0.930 . S
H403 C376 0.930 . S
H404 C381 0.929 . S
H405 C382 0.931 . S
H406 C384 0.930 . S
H407 C385 0.930 . S
Tb408 C410 2.809 . S
Tb408 O428 2.484 . S
Tb408 O429 2.440 . S
Tb408 O430 2.658 1_655 S
Tb408 O431 2.409 . S
Tb408 O432 2.378 . S
Tb408 O436 2.325 . S
Tb408 O439 2.341 1_655 S
Tb409 C419 2.809 . S
Tb409 O430 2.325 . S
Tb409 O433 2.341 1_455 S
Tb409 O434 2.484 . S
Tb409 O435 2.440 . S
Tb409 O436 2.658 1_455 S
Tb409 O437 2.409 . S
Tb409 O438 2.378 . S
C410 Tb408 2.809 . S
C410 C411 1.514 . S
C410 O428 1.248 . S
C410 O429 1.266 . S
C411 C410 1.514 . S
C411 C412 1.359 . S
C411 C416 1.348 . S
C412 C411 1.359 . S
C412 C413 1.380 . S
C412 H440 0.929 . S
C413 C412 1.380 . S
C413 C414 1.347 . S
C413 H441 0.931 . S
C414 C413 1.347 . S
C414 C415 1.369 . S
C415 C414 1.369 . S
C415 C416 1.408 . S
C415 H442 0.930 . S
C416 C411 1.348 . S
C416 C415 1.408 . S
C416 H443 0.930 . S
C417 O430 1.276 1_655 S
C417 O431 1.260 . S
C418 O432 1.236 . S
C418 O433 1.266 . S
C419 Tb409 2.809 . S
C419 C420 1.514 . S
C419 O434 1.248 . S
C419 O435 1.266 . S
C420 C419 1.514 . S
C420 C421 1.359 . S
C420 C425 1.348 . S
C421 C420 1.359 . S
C421 C422 1.380 . S
C421 H444 0.929 . S
C422 C421 1.380 . S
C422 C423 1.347 . S
C422 H445 0.931 . S
C423 C422 1.347 . S
C423 C424 1.369 . S
C424 C423 1.369 . S
C424 C425 1.408 . S
C424 H446 0.930 . S
C425 C420 1.348 . S
C425 C424 1.408 . S
C425 H447 0.930 . S
C426 O436 1.272 1_455 S
C426 O437 1.266 . S
C427 O438 1.236 . S
C427 O439 1.266 . S
O428 Tb408 2.484 . S
O428 C410 1.248 . S
O429 Tb408 2.440 . S
O429 C410 1.266 . S
O430 Tb408 2.658 1_455 S
O430 Tb409 2.325 . S
O430 C417 1.276 1_455 S
O431 Tb408 2.409 . S
O431 C417 1.260 . S
O432 Tb408 2.378 . S
O432 C418 1.236 . S
O433 Tb409 2.341 1_655 S
O433 C418 1.266 . S
O434 Tb409 2.484 . S
O434 C419 1.248 . S
O435 Tb409 2.440 . S
O435 C419 1.266 . S
O436 Tb408 2.325 . S
O436 Tb409 2.658 1_655 S
O436 C426 1.272 1_655 S
O437 Tb409 2.409 . S
O437 C426 1.266 . S
O438 Tb409 2.378 . S
O438 C427 1.236 . S
O439 Tb408 2.341 1_455 S
O439 C427 1.266 . S
H440 C412 0.929 . S
H441 C413 0.931 . S
H442 C415 0.930 . S
H443 C416 0.930 . S
H444 C421 0.929 . S
H445 C422 0.931 . S
H446 C424 0.930 . S
H447 C425 0.930 . S
H448 C454 0.930 . S
H449 C458 0.930 . S
H450 C463 0.929 . S
H451 C461 0.929 . S
H452 C456 0.929 . S
H453 C462 0.929 . S
C454 H448 0.930 . S
C454 C455 1.367 . S
C454 C462 1.378 . S
C455 C454 1.367 . S
C455 C463 1.433 1_565 S
C456 H452 0.929 . S
C456 C458 1.378 . S
C456 C460 1.365 . S
C457 C460 1.462 1_565 S
C457 C462 1.352 . S
C457 N465 1.426 1_565 S
C458 H449 0.930 . S
C458 C456 1.378 . S
C458 C459 1.381 . S
C459 C458 1.381 . S
C459 C461 1.419 1_545 S
C460 C456 1.365 . S
C460 C457 1.462 1_545 S
C460 N464 1.412 1_545 S
C461 H451 0.929 . S
C461 C459 1.419 1_565 S
C461 N464 1.384 . S
C462 H453 0.929 . S
C462 C454 1.378 . S
C462 C457 1.352 . S
C463 H450 0.929 . S
C463 C455 1.433 1_545 S
C463 N465 1.384 . S
N464 C460 1.412 1_565 S
N464 C461 1.384 . S
N465 C457 1.426 1_545 S
N465 C463 1.384 . S
H466 C472 0.930 . S
H467 C476 0.930 . S
H468 C481 0.929 . S
H469 C479 0.929 . S
H470 C474 0.929 . S
H471 C480 0.929 . S
C472 H466 0.930 . S
C472 C473 1.367 . S
C472 C480 1.378 . S
C473 C472 1.367 . S
C473 C481 1.433 . S
C474 H470 0.929 . S
C474 C476 1.378 . S
C474 C478 1.350 . S
C475 C478 1.463 . S
C475 C480 1.350 . S
C475 N483 1.427 . S
C476 H467 0.930 . S
C476 C474 1.378 . S
C476 C477 1.367 . S
C477 C476 1.367 . S
C477 C479 1.433 . S
C478 C474 1.350 . S
C478 C475 1.463 . S
C478 N482 1.427 . S
C479 H469 0.929 . S
C479 C477 1.433 . S
C479 N482 1.384 . S
C480 H471 0.929 . S
C480 C472 1.378 . S
C480 C475 1.350 . S
C481 H468 0.929 . S
C481 C473 1.433 . S
C481 N483 1.384 . S
N482 C478 1.427 . S
N482 C479 1.384 . S
N483 C475 1.427 . S
N483 C481 1.384 . S
H484 C490 0.930 . S
H485 C494 0.930 . S
H486 C499 0.929 . S
H487 C497 0.929 . S
H488 C492 0.929 . S
H489 C498 0.929 . S
C490 H484 0.930 . S
C490 C491 1.367 . S
C490 C498 1.378 . S
C491 C490 1.367 . S
C491 C499 1.433 . S
C492 H488 0.929 . S
C492 C494 1.378 . S
C492 C496 1.350 . S
C493 C496 1.463 . S
C493 C498 1.350 . S
C493 N501 1.427 . S
C494 H485 0.930 . S
C494 C492 1.378 . S
C494 C495 1.367 . S
C495 C494 1.367 . S
C495 C497 1.433 . S
C496 C492 1.350 . S
C496 C493 1.463 . S
C496 N500 1.427 . S
C497 H487 0.929 . S
C497 C495 1.433 . S
C497 N500 1.384 . S
C498 H489 0.929 . S
C498 C490 1.378 . S
C498 C493 1.350 . S
C499 H486 0.929 . S
C499 C491 1.433 . S
C499 N501 1.384 . S
N500 C496 1.427 . S
N500 C497 1.384 . S
N501 C493 1.427 . S
N501 C499 1.384 . S
H502 C508 0.930 . S
H503 C512 0.930 . S
H504 C517 0.929 . S
H505 C515 0.929 . S
H506 C510 0.929 . S
H507 C516 0.929 . S
C508 H502 0.930 . S
C508 C509 1.365 . S
C508 C516 1.378 . S
C509 C508 1.365 . S
C509 C517 1.436 1_655 S
C510 H506 0.929 . S
C510 C512 1.378 . S
C510 C514 1.350 . S
C511 C514 1.463 . S
C511 C516 1.349 1_455 S
C511 N519 1.428 . S
C512 H503 0.930 . S
C512 C510 1.378 . S
C512 C513 1.367 . S
C513 C512 1.367 . S
C513 C515 1.433 1_455 S
C514 C510 1.350 . S
C514 C511 1.463 . S
C514 N518 1.427 1_455 S
C515 H505 0.929 . S
C515 C513 1.433 1_655 S
C515 N518 1.384 . S
C516 H507 0.929 . S
C516 C508 1.378 . S
C516 C511 1.349 1_655 S
C517 H504 0.929 . S
C517 C509 1.436 1_455 S
C517 N519 1.384 . S
N518 C514 1.427 1_655 S
N518 C515 1.384 . S
N519 C511 1.428 . S
N519 C517 1.384 . S
H520 C526 0.930 . S
H521 C530 0.930 . S
H522 C535 0.929 . S
H523 C533 0.929 . S
H524 C528 0.929 1_554 S
H525 C534 0.929 . S
C526 H520 0.930 . S
C526 C527 1.386 . S
C526 C534 1.378 . S
C527 C526 1.386 . S
C527 C535 1.414 1_545 S
C528 H524 0.929 1_556 S
C528 C530 1.378 . S
C528 C532 1.379 1_556 S
C529 C532 1.460 1_545 S
C529 C534 1.376 . S
C529 N537 1.402 1_545 S
C530 H521 0.930 . S
C530 C528 1.378 . S
C530 C531 1.389 . S
C531 C530 1.389 . S
C531 C533 1.411 1_565 S
C532 C528 1.379 1_554 S
C532 C529 1.460 1_565 S
C532 N536 1.399 1_564 S
C533 H523 0.929 . S
C533 C531 1.411 1_545 S
C533 N536 1.384 . S
C534 H525 0.929 . S
C534 C526 1.378 . S
C534 C529 1.376 . S
C535 H522 0.929 . S
C535 C527 1.414 1_565 S
C535 N537 1.384 . S
N536 C532 1.399 1_546 S
N536 C533 1.384 . S
N537 C529 1.402 1_565 S
N537 C535 1.384 . S
H538 C544 0.930 . S
H539 C548 0.930 . S
H540 C553 0.929 . S
H541 C551 0.929 . S
H542 C546 0.929 . S
H543 C552 0.929 . S
C544 H538 0.930 . S
C544 C545 1.367 . S
C544 C552 1.378 . S
C545 C544 1.367 . S
C545 C553 1.433 . S
C546 H542 0.929 . S
C546 C548 1.378 . S
C546 C550 1.350 1_556 S
C547 C550 1.463 . S
C547 C552 1.350 . S
C547 N555 1.427 . S
C548 H539 0.930 . S
C548 C546 1.378 . S
C548 C549 1.367 . S
C549 C548 1.367 . S
C549 C551 1.433 . S
C550 C546 1.350 1_554 S
C550 C547 1.463 . S
C550 N554 1.427 1_554 S
C551 H541 0.929 . S
C551 C549 1.433 . S
C551 N554 1.388 . S
C552 H543 0.929 . S
C552 C544 1.378 . S
C552 C547 1.350 . S
C553 H540 0.929 . S
C553 C545 1.433 . S
C553 N555 1.384 . S
N554 C550 1.427 1_556 S
N554 C551 1.388 . S
N555 C547 1.427 . S
N555 C553 1.384 . S
H556 C562 0.930 . S
H557 C566 0.930 . S
H558 C571 0.929 . S
H559 C569 0.929 . S
H560 C564 0.929 1_554 S
H561 C570 0.929 . S
C562 H556 0.930 . S
C562 C563 1.367 . S
C562 C570 1.378 . S
C563 C562 1.367 . S
C563 C571 1.433 . S
C564 H560 0.929 1_556 S
C564 C566 1.378 . S
C564 C568 1.350 1_556 S
C565 C568 1.463 . S
C565 C570 1.350 . S
C565 N573 1.427 . S
C566 H557 0.930 . S
C566 C564 1.378 . S
C566 C567 1.367 . S
C567 C566 1.367 . S
C567 C569 1.433 . S
C568 C564 1.350 1_554 S
C568 C565 1.463 . S
C568 N572 1.427 1_554 S
C569 H559 0.929 . S
C569 C567 1.433 . S
C569 N572 1.384 . S
C570 H561 0.929 . S
C570 C562 1.378 . S
C570 C565 1.350 . S
C571 H558 0.929 . S
C571 C563 1.433 . S
C571 N573 1.384 . S
N572 C568 1.427 1_556 S
N572 C569 1.384 . S
N573 C565 1.427 . S
N573 C571 1.384 . S
H574 C580 0.930 . S
H575 C584 0.930 . S
H576 C589 0.929 . S
H577 C587 0.929 . S
H578 C582 0.929 . S
H579 C588 0.929 . S
C580 H574 0.930 . S
C580 C581 1.395 . S
C580 C588 1.378 . S
C581 C580 1.395 . S
C581 C589 1.406 1_655 S
C582 H578 0.929 . S
C582 C584 1.378 . S
C582 C586 1.346 1_456 S
C583 C586 1.463 . S
C583 C588 1.350 . S
C583 N591 1.427 1_655 S
C584 H575 0.930 . S
C584 C582 1.378 . S
C584 C585 1.340 1_455 S
C585 C584 1.340 1_655 S
C585 C587 1.461 . S
C586 C582 1.346 1_654 S
C586 C583 1.463 . S
C586 N590 1.431 1_554 S
C587 H577 0.929 . S
C587 C585 1.461 . S
C587 N590 1.384 . S
C588 H579 0.929 . S
C588 C580 1.378 . S
C588 C583 1.350 . S
C589 H576 0.929 . S
C589 C581 1.406 1_455 S
C589 N591 1.384 . S
N590 C586 1.431 1_556 S
N590 C587 1.384 . S
N591 C583 1.427 1_455 S
N591 C589 1.384 . S
H592 C598 0.930 . S
H593 C602 0.930 . S
H594 C607 0.929 . S
H595 C605 0.929 . S
H596 C600 0.929 . S
H597 C606 0.929 . S
C598 H592 0.930 . S
C598 C599 1.367 1_655 S
C598 C606 1.378 . S
C599 C598 1.367 1_455 S
C599 C607 1.433 . S
C600 H596 0.929 . S
C600 C602 1.378 . S
C600 C604 1.350 . S
C601 C604 1.463 . S
C601 C606 1.350 . S
C601 N609 1.427 1_655 S
C602 H593 0.930 . S
C602 C600 1.378 . S
C602 C603 1.367 . S
C603 C602 1.367 . S
C603 C605 1.433 . S
C604 C600 1.350 . S
C604 C601 1.463 . S
C604 N608 1.427 . S
C605 H595 0.929 . S
C605 C603 1.433 . S
C605 N608 1.384 . S
C606 H597 0.929 . S
C606 C598 1.378 . S
C606 C601 1.350 . S
C607 H594 0.929 . S
C607 C599 1.433 . S
C607 N609 1.384 . S
N608 C604 1.427 . S
N608 C605 1.384 . S
N609 C601 1.427 1_455 S
N609 C607 1.384 . S
H610 C616 0.930 . S
H611 C620 0.930 . S
H612 C625 0.929 . S
H613 C623 0.929 . S
H614 C618 0.929 1_545 S
H615 C624 0.929 . S
C616 H610 0.930 . S
C616 C617 1.367 1_565 S
C616 C624 1.378 . S
C617 C616 1.367 1_545 S
C617 C625 1.433 . S
C618 H614 0.929 1_565 S
C618 C620 1.378 . S
C618 C622 1.350 . S
C619 C622 1.463 . S
C619 C624 1.350 . S
C619 N627 1.427 1_565 S
C620 H611 0.930 . S
C620 C618 1.378 . S
C620 C621 1.367 . S
C621 C620 1.367 . S
C621 C623 1.433 . S
C622 C618 1.350 . S
C622 C619 1.463 . S
C622 N626 1.427 . S
C623 H613 0.929 . S
C623 C621 1.433 . S
C623 N626 1.384 . S
C624 H615 0.929 . S
C624 C616 1.378 . S
C624 C619 1.350 . S
C625 H612 0.929 . S
C625 C617 1.433 . S
C625 N627 1.384 . S
N626 C622 1.427 . S
N626 C623 1.384 . S
N627 C619 1.427 1_545 S
N627 C625 1.384 . S
H628 C634 0.930 . S
H629 C638 0.930 . S
H630 C643 0.929 . S
H631 C641 0.929 . S
H632 C636 0.929 . S
H633 C642 0.929 . S
C634 H628 0.930 . S
C634 C635 1.367 . S
C634 C642 1.378 . S
C635 C634 1.367 . S
C635 C643 1.433 . S
C636 H632 0.929 . S
C636 C638 1.378 . S
C636 C640 1.350 . S
C637 C640 1.463 . S
C637 C642 1.350 . S
C637 N645 1.427 . S
C638 H629 0.930 . S
C638 C636 1.378 . S
C638 C639 1.367 . S
C639 C638 1.367 . S
C639 C641 1.433 . S
C640 C636 1.350 . S
C640 C637 1.463 . S
C640 N644 1.427 . S
C641 H631 0.929 . S
C641 C639 1.433 . S
C641 N644 1.384 . S
C642 H633 0.929 . S
C642 C634 1.378 . S
C642 C637 1.350 . S
C643 H630 0.929 . S
C643 C635 1.433 . S
C643 N645 1.384 . S
N644 C640 1.427 . S
N644 C641 1.384 . S
N645 C637 1.427 . S
N645 C643 1.384 . S
H646 C652 0.930 . S
H647 C656 0.930 . S
H648 C661 0.929 . S
H649 C659 0.929 . S
H650 C654 0.929 . S
H651 C660 0.929 . S
C652 H646 0.930 . S
C652 C653 1.367 . S
C652 C660 1.378 . S
C653 C652 1.367 . S
C653 C661 1.433 . S
C654 H650 0.929 . S
C654 C656 1.378 . S
C654 C658 1.350 . S
C655 C658 1.463 . S
C655 C660 1.350 . S
C655 N663 1.427 . S
C656 H647 0.930 . S
C656 C654 1.378 . S
C656 C657 1.367 . S
C657 C656 1.367 . S
C657 C659 1.433 . S
C658 C654 1.350 . S
C658 C655 1.463 . S
C658 N662 1.427 . S
C659 H649 0.929 . S
C659 C657 1.433 . S
C659 N662 1.384 . S
C660 H651 0.929 . S
C660 C652 1.378 . S
C660 C655 1.350 . S
C661 H648 0.929 . S
C661 C653 1.433 . S
C661 N663 1.384 . S
N662 C658 1.427 . S
N662 C659 1.384 . S
N663 C655 1.427 . S
N663 C661 1.384 . S
H664 C670 0.930 . S
H665 C674 0.930 . S
H666 C679 0.929 . S
H667 C677 0.929 . S
H668 C672 0.929 . S
H669 C678 0.929 1_556 S
C670 H664 0.930 . S
C670 C671 1.367 . S
C670 C678 1.378 . S
C671 C670 1.367 . S
C671 C679 1.433 1_655 S
C672 H668 0.929 . S
C672 C674 1.378 . S
C672 C676 1.350 . S
C673 C676 1.463 . S
C673 C678 1.350 1_455 S
C673 N681 1.427 . S
C674 H665 0.930 . S
C674 C672 1.378 . S
C674 C675 1.367 1_554 S
C675 C674 1.367 1_556 S
C675 C677 1.433 . S
C676 C672 1.350 . S
C676 C673 1.463 . S
C676 N680 1.427 1_554 S
C677 H667 0.929 . S
C677 C675 1.433 . S
C677 N680 1.384 . S
C678 H669 0.929 1_554 S
C678 C670 1.378 . S
C678 C673 1.350 1_655 S
C679 H666 0.929 . S
C679 C671 1.433 1_455 S
C679 N681 1.384 . S
N680 C676 1.427 1_556 S
N680 C677 1.384 . S
N681 C673 1.427 . S
N681 C679 1.384 . S
H682 C688 0.930 . S
H683 C692 0.930 . S
H684 C697 0.929 . S
H685 C695 0.929 . S
H686 C690 0.929 . S
H687 C696 0.929 1_566 S
C688 H682 0.930 . S
C688 C689 1.367 . S
C688 C696 1.378 1_565 S
C689 C688 1.367 . S
C689 C697 1.433 1_565 S
C690 H686 0.929 . S
C690 C692 1.378 . S
C690 C694 1.350 . S
C691 C694 1.463 . S
C691 C696 1.349 . S
C691 N699 1.427 . S
C692 H683 0.930 . S
C692 C690 1.378 . S
C692 C693 1.367 1_554 S
C693 C692 1.367 1_556 S
C693 C695 1.433 . S
C694 C690 1.350 . S
C694 C691 1.463 . S
C694 N698 1.427 1_554 S
C695 H685 0.929 . S
C695 C693 1.433 . S
C695 N698 1.384 . S
C696 H687 0.929 1_544 S
C696 C688 1.378 1_545 S
C696 C691 1.349 . S
C697 H684 0.929 . S
C697 C689 1.433 1_545 S
C697 N699 1.384 . S
N698 C694 1.427 1_556 S
N698 C695 1.384 . S
N699 C691 1.427 . S
N699 C697 1.384 . S
H700 C706 0.930 . S
H701 C710 0.930 . S
H702 C715 0.929 . S
H703 C713 0.929 . S
H704 C708 0.929 . S
H705 C714 0.929 . S
C706 H700 0.930 . S
C706 C707 1.367 . S
C706 C714 1.378 . S
C707 C706 1.367 . S
C707 C715 1.433 . S
C708 H704 0.929 . S
C708 C710 1.378 . S
C708 C712 1.350 1_556 S
C709 C712 1.463 . S
C709 C714 1.350 . S
C709 N717 1.427 . S
C710 H701 0.930 . S
C710 C708 1.378 . S
C710 C711 1.367 . S
C711 C710 1.367 . S
C711 C713 1.433 1_556 S
C712 C708 1.350 1_554 S
C712 C709 1.463 . S
C712 N716 1.427 . S
C713 H703 0.929 . S
C713 C711 1.433 1_554 S
C713 N716 1.384 . S
C714 H705 0.929 . S
C714 C706 1.378 . S
C714 C709 1.350 . S
C715 H702 0.929 . S
C715 C707 1.433 . S
C715 N717 1.384 . S
N716 C712 1.427 . S
N716 C713 1.384 . S
N717 C709 1.427 . S
N717 C715 1.384 . S
H718 C724 0.930 . S
H719 C728 0.930 . S
H720 C733 0.929 . S
H721 C731 0.929 . S
H722 C726 0.929 . S
H723 C732 0.921 1_556 S
C724 H718 0.930 . S
C724 C725 1.367 . S
C724 C732 1.378 . S
C725 C724 1.367 . S
C725 C733 1.433 . S
C726 H722 0.929 . S
C726 C728 1.378 . S
C726 C730 1.350 . S
C727 C730 1.463 . S
C727 C732 1.350 . S
C727 N735 1.427 . S
C728 H719 0.930 . S
C728 C726 1.378 . S
C728 C729 1.367 1_554 S
C729 C728 1.367 1_556 S
C729 C731 1.433 . S
C730 C726 1.350 . S
C730 C727 1.463 . S
C730 N734 1.427 1_554 S
C731 H721 0.929 . S
C731 C729 1.433 . S
C731 N734 1.384 . S
C732 H723 0.921 1_554 S
C732 C724 1.378 . S
C732 C727 1.350 . S
C733 H720 0.929 . S
C733 C725 1.433 . S
C733 N735 1.384 . S
N734 C730 1.427 1_556 S
N734 C731 1.384 . S
N735 C727 1.427 . S
N735 C733 1.384 . S
H736 C742 0.930 . S
H737 C746 0.930 . S
H738 C751 0.929 . S
H739 C749 0.929 . S
H740 C744 0.929 . S
H741 C750 0.929 . S
C742 H736 0.930 . S
C742 C743 1.367 1_655 S
C742 C750 1.378 . S
C743 C742 1.367 1_455 S
C743 C751 1.433 . S
C744 H740 0.929 . S
C744 C746 1.378 . S
C744 C748 1.350 . S
C745 C748 1.463 . S
C745 C750 1.350 1_455 S
C745 N753 1.427 . S
C746 H737 0.930 . S
C746 C744 1.378 . S
C746 C747 1.367 . S
C747 C746 1.367 . S
C747 C749 1.433 1_455 S
C748 C744 1.350 . S
C748 C745 1.463 . S
C748 N752 1.427 1_455 S
C749 H739 0.929 . S
C749 C747 1.433 1_655 S
C749 N752 1.384 . S
C750 H741 0.929 . S
C750 C742 1.378 . S
C750 C745 1.350 1_655 S
C751 H738 0.929 . S
C751 C743 1.433 . S
C751 N753 1.384 . S
N752 C748 1.427 1_655 S
N752 C749 1.384 . S
N753 C745 1.427 . S
N753 C751 1.384 . S
H754 C760 0.930 . S
H755 C764 0.926 1_565 S
H756 C769 0.929 . S
H757 C767 0.929 . S
H758 C762 0.929 1_565 S
H759 C768 0.929 . S
C760 H754 0.930 . S
C760 C761 1.367 . S
C760 C768 1.378 . S
C761 C760 1.367 . S
C761 C769 1.433 1_545 S
C762 H758 0.929 1_545 S
C762 C764 1.378 . S
C762 C766 1.350 . S
C763 C766 1.463 . S
C763 C768 1.350 . S
C763 N771 1.427 1_545 S
C764 H755 0.926 1_545 S
C764 C762 1.378 . S
C764 C765 1.367 . S
C765 C764 1.367 . S
C765 C767 1.433 . S
C766 C762 1.350 . S
C766 C763 1.463 . S
C766 N770 1.427 . S
C767 H757 0.929 . S
C767 C765 1.433 . S
C767 N770 1.384 . S
C768 H759 0.929 . S
C768 C760 1.378 . S
C768 C763 1.350 . S
C769 H756 0.929 . S
C769 C761 1.433 1_565 S
C769 N771 1.384 . S
N770 C766 1.427 . S
N770 C767 1.384 . S
N771 C763 1.427 1_565 S
N771 C769 1.384 . S
H772 C778 0.930 . S
H773 C782 0.930 . S
H774 C787 0.929 . S
H775 C785 0.929 . S
H776 C780 0.929 . S
H777 C786 0.929 . S
C778 H772 0.930 . S
C778 C779 1.367 . S
C778 C786 1.378 . S
C779 C778 1.367 . S
C779 C787 1.433 . S
C780 H776 0.929 . S
C780 C782 1.378 . S
C780 C784 1.350 . S
C781 C784 1.463 . S
C781 C786 1.350 . S
C781 N789 1.427 . S
C782 H773 0.930 . S
C782 C780 1.378 . S
C782 C783 1.367 . S
C783 C782 1.367 . S
C783 C785 1.433 . S
C784 C780 1.350 . S
C784 C781 1.463 . S
C784 N788 1.427 . S
C785 H775 0.929 . S
C785 C783 1.433 . S
C785 N788 1.384 . S
C786 H777 0.929 . S
C786 C778 1.378 . S
C786 C781 1.350 . S
C787 H774 0.929 . S
C787 C779 1.433 . S
C787 N789 1.384 . S
N788 C784 1.427 . S
N788 C785 1.384 . S
N789 C781 1.427 . S
N789 C787 1.384 . S
H790 C796 0.930 . S
H791 C800 0.930 . S
H792 C805 0.929 . S
H793 C803 0.929 . S
H794 C798 0.929 . S
H795 C804 0.929 . S
C796 H790 0.930 . S
C796 C797 1.367 . S
C796 C804 1.378 . S
C797 C796 1.367 . S
C797 C805 1.433 . S
C798 H794 0.929 . S
C798 C800 1.378 . S
C798 C802 1.350 . S
C799 C802 1.463 . S
C799 C804 1.350 . S
C799 N807 1.427 . S
C800 H791 0.930 . S
C800 C798 1.378 . S
C800 C801 1.367 . S
C801 C800 1.367 . S
C801 C803 1.433 . S
C802 C798 1.350 . S
C802 C799 1.463 . S
C802 N806 1.427 . S
C803 H793 0.929 . S
C803 C801 1.433 . S
C803 N806 1.384 . S
C804 H795 0.929 . S
C804 C796 1.378 . S
C804 C799 1.350 . S
C805 H792 0.929 . S
C805 C797 1.433 . S
C805 N807 1.384 . S
N806 C802 1.427 . S
N806 C803 1.384 . S
N807 C799 1.427 . S
N807 C805 1.384 . S
H808 C814 0.930 . S
H809 C818 0.930 . S
H810 C823 0.924 1_455 S
H811 C821 0.929 . S
H812 C816 0.929 . S
H813 C822 0.929 . S
C814 H808 0.930 . S
C814 C815 1.367 . S
C814 C822 1.378 . S
C815 C814 1.367 . S
C815 C823 1.437 . S
C816 H812 0.929 . S
C816 C818 1.378 . S
C816 C820 1.350 . S
C817 C820 1.463 . S
C817 C822 1.350 . S
C817 N825 1.427 . S
C818 H809 0.930 . S
C818 C816 1.378 . S
C818 C819 1.367 . S
C819 C818 1.367 . S
C819 C821 1.433 . S
C820 C816 1.350 . S
C820 C817 1.463 . S
C820 N824 1.427 . S
C821 H811 0.929 . S
C821 C819 1.433 . S
C821 N824 1.384 . S
C822 H813 0.929 . S
C822 C814 1.378 . S
C822 C817 1.350 . S
C823 H810 0.924 1_655 S
C823 C815 1.437 . S
C823 N825 1.387 . S
N824 C820 1.427 . S
N824 C821 1.384 . S
N825 C817 1.427 . S
N825 C823 1.387 . S
H826 C832 0.930 . S
H827 C836 0.927 1_545 S
H828 C841 0.929 . S
H829 C839 0.929 . S
H830 C834 0.947 . S
H831 C840 0.929 . S
C832 H826 0.930 . S
C832 C833 1.367 . S
C832 C840 1.378 . S
C833 C832 1.367 . S
C833 C841 1.433 1_565 S
C834 H830 0.947 . S
C834 C836 1.376 1_545 S
C834 C838 1.336 1_545 S
C835 C838 1.463 . S
C835 C840 1.350 . S
C835 N843 1.427 1_565 S
C836 H827 0.927 1_565 S
C836 C834 1.376 1_565 S
C836 C837 1.371 . S
C837 C836 1.371 . S
C837 C839 1.433 . S
C838 C834 1.336 1_565 S
C838 C835 1.463 . S
C838 N842 1.427 . S
C839 H829 0.929 . S
C839 C837 1.433 . S
C839 N842 1.384 . S
C840 H831 0.929 . S
C840 C832 1.378 . S
C840 C835 1.350 . S
C841 H828 0.929 . S
C841 C833 1.433 1_545 S
C841 N843 1.384 . S
N842 C838 1.427 . S
N842 C839 1.384 . S
N843 C835 1.427 1_545 S
N843 C841 1.384 . S
H844 C850 0.930 . S
H845 C854 0.930 . S
H846 C859 0.929 . S
H847 C857 0.929 . S
H848 C852 0.929 . S
H849 C858 0.929 . S
C850 H844 0.930 . S
C850 C851 1.367 . S
C850 C858 1.378 . S
C851 C850 1.367 . S
C851 C859 1.433 . S
C852 H848 0.929 . S
C852 C854 1.378 . S
C852 C856 1.350 . S
C853 C856 1.463 . S
C853 C858 1.350 . S
C853 N861 1.427 . S
C854 H845 0.930 . S
C854 C852 1.378 . S
C854 C855 1.367 . S
C855 C854 1.367 . S
C855 C857 1.433 . S
C856 C852 1.350 . S
C856 C853 1.463 . S
C856 N860 1.427 . S
C857 H847 0.929 . S
C857 C855 1.433 . S
C857 N860 1.384 . S
C858 H849 0.929 . S
C858 C850 1.378 . S
C858 C853 1.350 . S
C859 H846 0.929 . S
C859 C851 1.433 . S
C859 N861 1.384 . S
N860 C856 1.427 . S
N860 C857 1.384 . S
N861 C853 1.427 . S
N861 C859 1.384 . S
H862 C868 0.930 . S
H863 C872 0.930 . S
H864 C877 0.929 . S
H865 C875 0.929 . S
H866 C870 0.929 . S
H867 C876 0.929 . S
C868 H862 0.930 . S
C868 C869 1.367 . S
C868 C876 1.378 . S
C869 C868 1.367 . S
C869 C877 1.433 . S
C870 H866 0.929 . S
C870 C872 1.378 . S
C870 C874 1.350 . S
C871 C874 1.463 . S
C871 C876 1.350 . S
C871 N879 1.427 . S
C872 H863 0.930 . S
C872 C870 1.378 . S
C872 C873 1.367 . S
C873 C872 1.367 . S
C873 C875 1.433 . S
C874 C870 1.350 . S
C874 C871 1.463 . S
C874 N878 1.427 . S
C875 H865 0.929 . S
C875 C873 1.433 . S
C875 N878 1.384 . S
C876 H867 0.929 . S
C876 C868 1.378 . S
C876 C871 1.350 . S
C877 H864 0.929 . S
C877 C869 1.433 . S
C877 N879 1.384 . S
N878 C874 1.427 . S
N878 C875 1.384 . S
N879 C871 1.427 . S
N879 C877 1.384 . S
C455 C241 2.096 1_565 S
C459 C297 2.342 1_545 S
C477 C337 2.381 . S
C473 C277 2.191 . S
C495 C377 2.370 . S
C491 C169 2.121 . S
C513 C417 2.361 1_455 S
C509 C205 2.125 1_655 S
C531 C306 2.345 1_565 S
C527 C97 2.103 . S
C545 C133 2.197 . S
C549 C346 2.384 . S
C563 C25 2.130 . S
C567 C386 2.368 . S
C581 C61 2.122 1_655 S
C585 C426 2.359 1_655 S
C603 C303 0.408 . S
C599 C211 0.405 . S
C621 C343 0.407 . S
C617 C247 0.391 . S
C639 C383 0.384 . S
C635 C253 0.389 . S
C653 C175 0.374 . S
C657 C423 0.413 . S
C671 C67 0.484 1_655 S
C675 C294 0.433 . S
C693 C334 0.436 . S
C689 C103 0.481 1_565 S
C711 C374 0.395 . S
C707 C109 0.349 . S
C725 C31 0.467 . S
C729 C414 0.432 . S
C743 C181 2.868 . S
C747 C307 3.225 . S
C761 C217 2.831 . S
C765 C347 3.182 . S
C783 C387 3.176 . S
C779 C283 2.747 . S
C801 C427 3.204 . S
C797 C145 2.832 . S
C815 C37 2.873 1_655 S
C819 C298 3.235 . S
C837 C338 3.182 . S
C833 C73 2.838 1_565 S
C855 C378 3.173 . S
C851 C139 2.730 . S
C869 C1 2.863 . S
C873 C418 3.209 . S
