# Generated by pormake.
# Topology eea, (3,6)-cn, num edge types: 1
# Building blocks:
#     Node 0, Type 0, BuildingBlock: KAKCAD_clean_linker_0, # of connection points: 3
#     Node 1, Type 0, BuildingBlock: KAKCAD_clean_linker_0, # of connection points: 3
#     Node 2, Type 0, BuildingBlock: KAKCAD_clean_linker_0, # of connection points: 3
#     Node 3, Type 0, BuildingBlock: KAKCAD_clean_linker_0, # of connection points: 3
#     Node 4, Type 0, BuildingBlock: KAKCAD_clean_linker_0, # of connection points: 3
#     Node 5, Type 0, BuildingBlock: KAKCAD_clean_linker_0, # of connection points: 3
#     Node 6, Type 0, BuildingBlock: KAKCAD_clean_linker_0, # of connection points: 3
#     Node 7, Type 0, BuildingBlock: KAKCAD_clean_linker_0, # of connection points: 3
#     Node 8, Type 0, BuildingBlock: KAKCAD_clean_linker_0, # of connection points: 3
#     Node 9, Type 0, BuildingBlock: KAKCAD_clean_linker_0, # of connection points: 3
#     Node 10, Type 0, BuildingBlock: KAKCAD_clean_linker_0, # of connection points: 3
#     Node 11, Type 0, BuildingBlock: KAKCAD_clean_linker_0, # of connection points: 3
#     Node 12, Type 0, BuildingBlock: KAKCAD_clean_linker_0, # of connection points: 3
#     Node 13, Type 0, BuildingBlock: KAKCAD_clean_linker_0, # of connection points: 3
#     Node 14, Type 0, BuildingBlock: KAKCAD_clean_linker_0, # of connection points: 3
#     Node 15, Type 0, BuildingBlock: KAKCAD_clean_linker_0, # of connection points: 3
#     Node 16, Type 0, BuildingBlock: KAKCAD_clean_linker_0, # of connection points: 3
#     Node 17, Type 0, BuildingBlock: KAKCAD_clean_linker_0, # of connection points: 3
#     Node 18, Type 1, BuildingBlock: KUMBOL_clean_sbu_0, # of connection points: 6
#     Node 19, Type 1, BuildingBlock: KUMBOL_clean_sbu_0, # of connection points: 6
#     Node 20, Type 1, BuildingBlock: KUMBOL_clean_sbu_0, # of connection points: 6
#     Node 21, Type 1, BuildingBlock: KUMBOL_clean_sbu_0, # of connection points: 6
#     Node 22, Type 1, BuildingBlock: KUMBOL_clean_sbu_0, # of connection points: 6
#     Node 23, Type 1, BuildingBlock: KUMBOL_clean_sbu_0, # of connection points: 6
#     Node 24, Type 1, BuildingBlock: KUMBOL_clean_sbu_0, # of connection points: 6
#     Node 25, Type 1, BuildingBlock: KUMBOL_clean_sbu_0, # of connection points: 6
#     Node 26, Type 1, BuildingBlock: KUMBOL_clean_sbu_0, # of connection points: 6
#     Edge 27, Type (0, 1), BuildingBlock: ZUJKAS_clean_linker_0, # of connection points: 2
#     Edge 28, Type (0, 1), BuildingBlock: ZUJKAS_clean_linker_0, # of connection points: 2
#     Edge 29, Type (0, 1), BuildingBlock: ZUJKAS_clean_linker_0, # of connection points: 2
#     Edge 30, Type (0, 1), BuildingBlock: ZUJKAS_clean_linker_0, # of connection points: 2
#     Edge 31, Type (0, 1), BuildingBlock: ZUJKAS_clean_linker_0, # of connection points: 2
#     Edge 32, Type (0, 1), BuildingBlock: ZUJKAS_clean_linker_0, # of connection points: 2
#     Edge 33, Type (0, 1), BuildingBlock: ZUJKAS_clean_linker_0, # of connection points: 2
#     Edge 34, Type (0, 1), BuildingBlock: ZUJKAS_clean_linker_0, # of connection points: 2
#     Edge 35, Type (0, 1), BuildingBlock: ZUJKAS_clean_linker_0, # of connection points: 2
#     Edge 36, Type (0, 1), BuildingBlock: ZUJKAS_clean_linker_0, # of connection points: 2
#     Edge 37, Type (0, 1), BuildingBlock: ZUJKAS_clean_linker_0, # of connection points: 2
#     Edge 38, Type (0, 1), BuildingBlock: ZUJKAS_clean_linker_0, # of connection points: 2
#     Edge 39, Type (0, 1), BuildingBlock: ZUJKAS_clean_linker_0, # of connection points: 2
#     Edge 40, Type (0, 1), BuildingBlock: ZUJKAS_clean_linker_0, # of connection points: 2
#     Edge 41, Type (0, 1), BuildingBlock: ZUJKAS_clean_linker_0, # of connection points: 2
#     Edge 42, Type (0, 1), BuildingBlock: ZUJKAS_clean_linker_0, # of connection points: 2
#     Edge 43, Type (0, 1), BuildingBlock: ZUJKAS_clean_linker_0, # of connection points: 2
#     Edge 44, Type (0, 1), BuildingBlock: ZUJKAS_clean_linker_0, # of connection points: 2
#     Edge 45, Type (0, 1), BuildingBlock: ZUJKAS_clean_linker_0, # of connection points: 2
#     Edge 46, Type (0, 1), BuildingBlock: ZUJKAS_clean_linker_0, # of connection points: 2
#     Edge 47, Type (0, 1), BuildingBlock: ZUJKAS_clean_linker_0, # of connection points: 2
#     Edge 48, Type (0, 1), BuildingBlock: ZUJKAS_clean_linker_0, # of connection points: 2
#     Edge 49, Type (0, 1), BuildingBlock: ZUJKAS_clean_linker_0, # of connection points: 2
#     Edge 50, Type (0, 1), BuildingBlock: ZUJKAS_clean_linker_0, # of connection points: 2
#     Edge 51, Type (0, 1), BuildingBlock: ZUJKAS_clean_linker_0, # of connection points: 2
#     Edge 52, Type (0, 1), BuildingBlock: ZUJKAS_clean_linker_0, # of connection points: 2
#     Edge 53, Type (0, 1), BuildingBlock: ZUJKAS_clean_linker_0, # of connection points: 2
#     Edge 54, Type (0, 1), BuildingBlock: ZUJKAS_clean_linker_0, # of connection points: 2
#     Edge 55, Type (0, 1), BuildingBlock: ZUJKAS_clean_linker_0, # of connection points: 2
#     Edge 56, Type (0, 1), BuildingBlock: ZUJKAS_clean_linker_0, # of connection points: 2
#     Edge 57, Type (0, 1), BuildingBlock: ZUJKAS_clean_linker_0, # of connection points: 2
#     Edge 58, Type (0, 1), BuildingBlock: ZUJKAS_clean_linker_0, # of connection points: 2
#     Edge 59, Type (0, 1), BuildingBlock: ZUJKAS_clean_linker_0, # of connection points: 2
#     Edge 60, Type (0, 1), BuildingBlock: ZUJKAS_clean_linker_0, # of connection points: 2
#     Edge 61, Type (0, 1), BuildingBlock: ZUJKAS_clean_linker_0, # of connection points: 2
#     Edge 62, Type (0, 1), BuildingBlock: ZUJKAS_clean_linker_0, # of connection points: 2
#     Edge 63, Type (0, 1), BuildingBlock: ZUJKAS_clean_linker_0, # of connection points: 2
#     Edge 64, Type (0, 1), BuildingBlock: ZUJKAS_clean_linker_0, # of connection points: 2
#     Edge 65, Type (0, 1), BuildingBlock: ZUJKAS_clean_linker_0, # of connection points: 2
#     Edge 66, Type (0, 1), BuildingBlock: ZUJKAS_clean_linker_0, # of connection points: 2
#     Edge 67, Type (0, 1), BuildingBlock: ZUJKAS_clean_linker_0, # of connection points: 2
#     Edge 68, Type (0, 1), BuildingBlock: ZUJKAS_clean_linker_0, # of connection points: 2
#     Edge 69, Type (0, 1), BuildingBlock: ZUJKAS_clean_linker_0, # of connection points: 2
#     Edge 70, Type (0, 1), BuildingBlock: ZUJKAS_clean_linker_0, # of connection points: 2
#     Edge 71, Type (0, 1), BuildingBlock: ZUJKAS_clean_linker_0, # of connection points: 2
#     Edge 72, Type (0, 1), BuildingBlock: ZUJKAS_clean_linker_0, # of connection points: 2
#     Edge 73, Type (0, 1), BuildingBlock: ZUJKAS_clean_linker_0, # of connection points: 2
#     Edge 74, Type (0, 1), BuildingBlock: ZUJKAS_clean_linker_0, # of connection points: 2
#     Edge 75, Type (0, 1), BuildingBlock: ZUJKAS_clean_linker_0, # of connection points: 2
#     Edge 76, Type (0, 1), BuildingBlock: ZUJKAS_clean_linker_0, # of connection points: 2
#     Edge 77, Type (0, 1), BuildingBlock: ZUJKAS_clean_linker_0, # of connection points: 2
#     Edge 78, Type (0, 1), BuildingBlock: ZUJKAS_clean_linker_0, # of connection points: 2
#     Edge 79, Type (0, 1), BuildingBlock: ZUJKAS_clean_linker_0, # of connection points: 2
#     Edge 80, Type (0, 1), BuildingBlock: ZUJKAS_clean_linker_0, # of connection points: 2
# Relax obj value: 0.010
# Max RMSD: 0.098
# Mean RMSD: 0.055
data_MOF--net-eea--node1-KUMBOL_clean_sbu_0--node2-KAKCAD_clean_linker_0--edge1-ZUJKAS_clean_linker_0
_symmetry_space_group_name_H-M    P1
_symmetry_Int_Tables_number       1
_symmetry_cell_setting            triclinic
loop_
_symmetry_equiv_pos_as_xyz
'x, y, z'
_cell_length_a     78.430306
_cell_length_b     79.763384
_cell_length_c     107.10278
_cell_angle_alpha  90.407513
_cell_angle_beta   90.189283
_cell_angle_gamma 120.00605
loop_
_atom_site_label
_atom_site_type_symbol
_atom_site_fract_x
_atom_site_fract_y
_atom_site_fract_z
_atom_type_partial_charge
C0 C 0.26733 0.14482 0.47574 0.0
C1 C 0.28119 0.13933 0.479 0.0
C2 C 0.25897 0.1409 0.46378 0.0
C3 C 0.2644 0.13151 0.45479 0.0
C4 C 0.27847 0.12624 0.45804 0.0
C5 C 0.28671 0.13005 0.47002 0.0
C6 C 0.25519 0.12696 0.44215 0.0
C7 C 0.25136 0.14022 0.43596 0.0
C8 C 0.24219 0.13581 0.42415 0.0
C9 C 0.23706 0.11795 0.41848 0.0
C10 C 0.24099 0.10462 0.42444 0.0
C11 C 0.24997 0.1092 0.43629 0.0
C12 C 0.2357 0.0859 0.41828 0.0
C13 C 0.21745 0.075 0.41216 0.0
C14 C 0.24897 0.07891 0.41838 0.0
C15 C 0.24415 0.06145 0.41241 0.0
C16 C 0.22592 0.05058 0.40625 0.0
C17 C 0.23779 0.14972 0.41778 0.0
C18 C 0.2308 0.16017 0.4246 0.0
C19 C 0.24018 0.15241 0.4048 0.0
C20 C 0.23543 0.16501 0.39876 0.0
C21 C 0.22836 0.17534 0.40559 0.0
C22 C 0.22621 0.17289 0.41857 0.0
C23 C 0.2126 0.05751 0.40623 0.0
H24 H 0.26263 0.15179 0.48252 0.0
H25 H 0.24795 0.14488 0.46166 0.0
H26 H 0.28324 0.1193 0.45129 0.0
H27 H 0.29758 0.1259 0.47223 0.0
H28 H 0.25586 0.15418 0.44025 0.0
H29 H 0.2524 0.09865 0.44109 0.0
H30 H 0.22995 0.11437 0.40938 0.0
H31 H 0.20684 0.07992 0.41204 0.0
H32 H 0.26321 0.08708 0.42293 0.0
H33 H 0.25463 0.05638 0.41271 0.0
H34 H 0.22849 0.15822 0.43457 0.0
H35 H 0.24587 0.14487 0.39929 0.0
H36 H 0.19851 0.04954 0.40148 0.0
H37 H 0.22057 0.18051 0.42404 0.0
H38 H 0.23748 0.16684 0.38877 0.0
C39 C 0.88727 0.15263 0.4719 0.0
C40 C 0.87875 0.1378 0.48078 0.0
C41 C 0.89138 0.14877 0.45986 0.0
C42 C 0.88701 0.12999 0.45641 0.0
C43 C 0.87881 0.11525 0.46535 0.0
C44 C 0.87475 0.11911 0.47739 0.0
C45 C 0.89055 0.12562 0.44347 0.0
C46 C 0.90801 0.13825 0.43723 0.0
C47 C 0.91135 0.13428 0.42493 0.0
C48 C 0.89704 0.11704 0.41906 0.0
C49 C 0.8795 0.10406 0.42517 0.0
C50 C 0.87634 0.10874 0.43731 0.0
C51 C 0.86455 0.08559 0.41898 0.0
C52 C 0.86158 0.08438 0.40595 0.0
C53 C 0.85316 0.06886 0.42606 0.0
C54 C 0.83913 0.05158 0.42036 0.0
C55 C 0.83641 0.05025 0.40731 0.0
C56 C 0.92962 0.14823 0.41817 0.0
C57 C 0.93816 0.16833 0.4202 0.0
C58 C 0.9385 0.14167 0.40947 0.0
C59 C 0.95513 0.15483 0.40282 0.0
C60 C 0.96355 0.17479 0.40496 0.0
C61 C 0.95505 0.18142 0.41377 0.0
C62 C 0.84793 0.06693 0.4002 0.0
H63 H 0.89032 0.16714 0.47414 0.0
H64 H 0.8975 0.16039 0.45315 0.0
H65 H 0.87559 0.1007 0.46305 0.0
H66 H 0.86855 0.10743 0.48406 0.0
H67 H 0.91917 0.15102 0.4421 0.0
H68 H 0.86257 0.09942 0.44197 0.0
H69 H 0.89956 0.11373 0.40967 0.0
H70 H 0.86971 0.09693 0.40013 0.0
H71 H 0.85514 0.06895 0.43607 0.0
H72 H 0.83037 0.03931 0.42627 0.0
H73 H 0.93162 0.17406 0.42658 0.0
H74 H 0.93274 0.12636 0.40782 0.0
H75 H 0.84663 0.06658 0.39013 0.0
H76 H 0.96125 0.1968 0.41547 0.0
H77 H 0.96159 0.14942 0.39613 0.0
C78 C 0.89405 0.75924 0.47631 0.0
C79 C 0.87513 0.74439 0.47959 0.0
C80 C 0.8979 0.76663 0.46417 0.0
C81 C 0.8829 0.75944 0.45504 0.0
C82 C 0.86399 0.74459 0.45833 0.0
C83 C 0.86017 0.73714 0.47043 0.0
C84 C 0.88685 0.76745 0.44214 0.0
C85 C 0.90419 0.77134 0.4359 0.0
C86 C 0.90788 0.77865 0.42366 0.0
C87 C 0.8939 0.7821 0.41771 0.0
C88 C 0.87646 0.77837 0.42379 0.0
C89 C 0.87316 0.77109 0.43602 0.0
C90 C 0.86168 0.78205 0.41742 0.0
C91 C 0.86768 0.79843 0.40989 0.0
C92 C 0.84137 0.76922 0.41889 0.0
C93 C 0.82748 0.77276 0.41309 0.0
C94 C 0.83349 0.78917 0.4056 0.0
C95 C 0.92626 0.78252 0.41707 0.0
C96 C 0.94439 0.79077 0.4235 0.0
C97 C 0.92583 0.77797 0.40431 0.0
C98 C 0.94305 0.78151 0.39816 0.0
C99 C 0.96114 0.78966 0.40462 0.0
C100 C 0.96158 0.79427 0.41736 0.0
C101 C 0.85377 0.80191 0.40403 0.0
H102 H 0.90595 0.76505 0.48309 0.0
H103 H 0.91259 0.77817 0.46198 0.0
H104 H 0.85214 0.73858 0.4515 0.0
H105 H 0.84539 0.72584 0.47265 0.0
H106 H 0.91457 0.76812 0.44045 0.0
H107 H 0.86006 0.76866 0.44092 0.0
H108 H 0.89658 0.78769 0.4083 0.0
H109 H 0.88316 0.80879 0.40868 0.0
H110 H 0.83616 0.75627 0.42441 0.0
H111 H 0.81199 0.76247 0.41433 0.0
H112 H 0.94536 0.79477 0.43327 0.0
H113 H 0.91211 0.77131 0.39909 0.0
H114 H 0.85892 0.81481 0.39845 0.0
H115 H 0.9753 0.80085 0.42259 0.0
H116 H 0.94209 0.77751 0.3884 0.0
C117 C 0.13365 0.239 0.53798 0.0
C118 C 0.12963 0.25367 0.5345 0.0
C119 C 0.12967 0.23149 0.55007 0.0
C120 C 0.12154 0.23841 0.55903 0.0
C121 C 0.11738 0.25297 0.55553 0.0
C122 C 0.12138 0.2605 0.54343 0.0
C123 C 0.11762 0.23062 0.57199 0.0
C124 C 0.13121 0.22688 0.57818 0.0
C125 C 0.1278 0.21962 0.59042 0.0
C126 C 0.11047 0.2162 0.5965 0.0
C127 C 0.09664 0.21986 0.59053 0.0
C128 C 0.10038 0.22702 0.57825 0.0
C129 C 0.07831 0.21625 0.59708 0.0
C130 C 0.06793 0.19999 0.60475 0.0
C131 C 0.07103 0.22908 0.59573 0.0
C132 C 0.05387 0.22574 0.60184 0.0
C133 C 0.0435 0.20951 0.60953 0.0
C134 C 0.14243 0.21575 0.59683 0.0
C135 C 0.15202 0.20758 0.59021 0.0
C136 C 0.1471 0.22036 0.60955 0.0
C137 C 0.16107 0.21701 0.61546 0.0
C138 C 0.17081 0.20904 0.6088 0.0
C139 C 0.16602 0.20429 0.5961 0.0
C140 C 0.05079 0.19668 0.61089 0.0
H141 H 0.1397 0.23315 0.5313 0.0
H142 H 0.13277 0.22007 0.55236 0.0
H143 H 0.11138 0.25885 0.56222 0.0
H144 H 0.11836 0.27198 0.54117 0.0
H145 H 0.14479 0.23014 0.57357 0.0
H146 H 0.0896 0.22937 0.57343 0.0
H147 H 0.10775 0.2107 0.60593 0.0
H148 H 0.07293 0.18965 0.60591 0.0
H149 H 0.07871 0.24187 0.59004 0.0
H150 H 0.04862 0.23583 0.60041 0.0
H151 H 0.14856 0.20351 0.58047 0.0
H152 H 0.14025 0.22693 0.61491 0.0
H153 H 0.04336 0.18413 0.61682 0.0
H154 H 0.17296 0.19782 0.59073 0.0
H155 H 0.16457 0.22107 0.6252 0.0
C156 C 0.71908 0.84554 0.54237 0.0
C157 C 0.72356 0.86066 0.53401 0.0
C158 C 0.72739 0.84952 0.55437 0.0
C159 C 0.74043 0.8687 0.55821 0.0
C160 C 0.7451 0.88376 0.54974 0.0
C161 C 0.73671 0.87979 0.5378 0.0
C162 C 0.74919 0.87311 0.57099 0.0
C163 C 0.75566 0.86134 0.57654 0.0
C164 C 0.76451 0.86585 0.58844 0.0
C165 C 0.7671 0.88251 0.59471 0.0
C166 C 0.76068 0.89446 0.58937 0.0
C167 C 0.75146 0.88942 0.57757 0.0
C168 C 0.76407 0.91243 0.59595 0.0
C169 C 0.76336 0.91319 0.60905 0.0
C170 C 0.76863 0.92919 0.58918 0.0
C171 C 0.77256 0.94626 0.59533 0.0
C172 C 0.77249 0.94722 0.60845 0.0
C173 C 0.77102 0.85318 0.59441 0.0
C174 C 0.75928 0.83291 0.59358 0.0
C175 C 0.78871 0.86125 0.6013 0.0
C176 C 0.7943 0.84936 0.60746 0.0
C177 C 0.78242 0.82913 0.60677 0.0
C178 C 0.76496 0.82101 0.59966 0.0
C179 C 0.76772 0.93039 0.61522 0.0
H180 H 0.70885 0.83066 0.53973 0.0
H181 H 0.72331 0.8376 0.5607 0.0
H182 H 0.75542 0.89866 0.55228 0.0
H183 H 0.74071 0.89171 0.53148 0.0
H184 H 0.75433 0.84895 0.57144 0.0
H185 H 0.7458 0.89809 0.57353 0.0
H186 H 0.77421 0.88619 0.60379 0.0
H187 H 0.75952 0.90052 0.61461 0.0
H188 H 0.76959 0.92933 0.57909 0.0
H189 H 0.77572 0.95873 0.58974 0.0
H190 H 0.74544 0.82622 0.58848 0.0
H191 H 0.79831 0.87679 0.60193 0.0
H192 H 0.76771 0.93051 0.62533 0.0
H193 H 0.75542 0.80546 0.59907 0.0
H194 H 0.808 0.856 0.61271 0.0
C195 C 0.1102 0.85625 0.53888 0.0
C196 C 0.12913 0.85997 0.5356 0.0
C197 C 0.10639 0.86015 0.55099 0.0
C198 C 0.12144 0.86795 0.56008 0.0
C199 C 0.14029 0.87146 0.55684 0.0
C200 C 0.14409 0.8675 0.54475 0.0
C201 C 0.11767 0.87292 0.5728 0.0
C202 C 0.10034 0.8603 0.57921 0.0
C203 C 0.0967 0.86505 0.59121 0.0
C204 C 0.11057 0.88281 0.59671 0.0
C205 C 0.12798 0.89553 0.59047 0.0
C206 C 0.13144 0.89046 0.57856 0.0
C207 C 0.14256 0.91419 0.59636 0.0
C208 C 0.13651 0.92646 0.60174 0.0
C209 C 0.16266 0.9199 0.59654 0.0
C210 C 0.17644 0.93752 0.60204 0.0
C211 C 0.17042 0.94989 0.60731 0.0
C212 C 0.07859 0.85142 0.59809 0.0
C213 C 0.06031 0.84132 0.59188 0.0
C214 C 0.07944 0.84839 0.61095 0.0
C215 C 0.06246 0.83557 0.61743 0.0
C216 C 0.04421 0.82543 0.61121 0.0
C217 C 0.04333 0.82848 0.59836 0.0
C218 C 0.15032 0.9442 0.60709 0.0
H219 H 0.09831 0.85028 0.53208 0.0
H220 H 0.09174 0.85741 0.55317 0.0
H221 H 0.15216 0.87728 0.56365 0.0
H222 H 0.15887 0.87072 0.54252 0.0
H223 H 0.08993 0.84651 0.57497 0.0
H224 H 0.14466 0.90047 0.57362 0.0
H225 H 0.10786 0.88675 0.60589 0.0
H226 H 0.12112 0.92246 0.60165 0.0
H227 H 0.1677 0.91065 0.59253 0.0
H228 H 0.19185 0.94161 0.602 0.0
H229 H 0.05907 0.84354 0.58203 0.0
H230 H 0.09333 0.85568 0.61598 0.0
H231 H 0.14527 0.95339 0.61116 0.0
H232 H 0.02945 0.82112 0.59332 0.0
H233 H 0.06371 0.83334 0.62727 0.0
C234 C 0.93195 0.47749 0.80868 0.0
C235 C 0.94699 0.47345 0.81163 0.0
C236 C 0.92363 0.47367 0.7967 0.0
C237 C 0.93015 0.46566 0.78742 0.0
C238 C 0.94527 0.46173 0.79036 0.0
C239 C 0.9536 0.46558 0.80232 0.0
C240 C 0.92106 0.46119 0.77477 0.0
C241 C 0.91677 0.47424 0.76872 0.0
C242 C 0.90826 0.47008 0.75673 0.0
C243 C 0.90391 0.45261 0.75082 0.0
C244 C 0.90788 0.4393 0.75676 0.0
C245 C 0.91655 0.44374 0.76871 0.0
C246 C 0.90264 0.42061 0.75057 0.0
C247 C 0.88445 0.40984 0.74435 0.0
C248 C 0.9157 0.41338 0.75085 0.0
C249 C 0.9107 0.39577 0.74502 0.0
C250 C 0.8925 0.38498 0.73882 0.0
C251 C 0.90364 0.4838 0.75039 0.0
C252 C 0.89388 0.49193 0.7568 0.0
C253 C 0.90847 0.48841 0.73779 0.0
C254 C 0.90345 0.50075 0.73166 0.0
C255 C 0.89335 0.50865 0.73798 0.0
C256 C 0.88872 0.50416 0.75065 0.0
C257 C 0.87944 0.39222 0.73855 0.0
H258 H 0.92666 0.48372 0.81561 0.0
H259 H 0.91189 0.4767 0.79476 0.0
H260 H 0.95075 0.45574 0.78339 0.0
H261 H 0.96502 0.46211 0.80433 0.0
H262 H 0.92046 0.48787 0.77323 0.0
H263 H 0.91923 0.43332 0.77346 0.0
H264 H 0.89727 0.44932 0.74158 0.0
H265 H 0.87398 0.41492 0.74408 0.0
H266 H 0.92988 0.42143 0.75549 0.0
H267 H 0.921 0.39048 0.7455 0.0
H268 H 0.88977 0.48843 0.76648 0.0
H269 H 0.91624 0.48255 0.73268 0.0
H270 H 0.86538 0.38434 0.73375 0.0
H271 H 0.88069 0.50974 0.75576 0.0
H272 H 0.9076 0.5042 0.72198 0.0
C273 C 0.55429 0.48326 0.80654 0.0
C274 C 0.54625 0.46826 0.81532 0.0
C275 C 0.55842 0.47981 0.79441 0.0
C276 C 0.55458 0.46127 0.79075 0.0
C277 C 0.54697 0.44638 0.79961 0.0
C278 C 0.54288 0.44984 0.81175 0.0
C279 C 0.55772 0.45731 0.77762 0.0
C280 C 0.57458 0.47059 0.77108 0.0
C281 C 0.57718 0.46738 0.75845 0.0
C282 C 0.56258 0.45044 0.75246 0.0
C283 C 0.54587 0.43678 0.75894 0.0
C284 C 0.54354 0.44038 0.77148 0.0
C285 C 0.53086 0.41866 0.75263 0.0
C286 C 0.52434 0.41901 0.74045 0.0
C287 C 0.52305 0.40083 0.75877 0.0
C288 C 0.50909 0.38372 0.75284 0.0
C289 C 0.50255 0.38402 0.74065 0.0
C290 C 0.59507 0.48166 0.75152 0.0
C291 C 0.60396 0.50165 0.75413 0.0
C292 C 0.6034 0.47549 0.74218 0.0
C293 C 0.61992 0.48889 0.73556 0.0
C294 C 0.62877 0.50872 0.73832 0.0
C295 C 0.62074 0.51498 0.74771 0.0
C296 C 0.51032 0.40189 0.73453 0.0
H297 H 0.55683 0.49756 0.80892 0.0
H298 H 0.56404 0.49154 0.78777 0.0
H299 H 0.54415 0.43202 0.79715 0.0
H300 H 0.53705 0.43804 0.81833 0.0
H301 H 0.58585 0.48327 0.77597 0.0
H302 H 0.53033 0.43021 0.77637 0.0
H303 H 0.56416 0.44778 0.74272 0.0
H304 H 0.52988 0.43256 0.73554 0.0
H305 H 0.52799 0.40004 0.76809 0.0
H306 H 0.50369 0.37019 0.75775 0.0
H307 H 0.59783 0.5071 0.76103 0.0
H308 H 0.59735 0.46026 0.74005 0.0
H309 H 0.50539 0.4027 0.72521 0.0
H310 H 0.62727 0.53026 0.7499 0.0
H311 H 0.626 0.48375 0.72842 0.0
C312 C 0.55932 0.09126 0.81066 0.0
C313 C 0.54005 0.07728 0.81402 0.0
C314 C 0.56343 0.09877 0.79855 0.0
C315 C 0.54837 0.09245 0.78948 0.0
C316 C 0.52917 0.07828 0.79282 0.0
C317 C 0.52507 0.07083 0.80491 0.0
C318 C 0.55253 0.10071 0.77664 0.0
C319 C 0.56986 0.10454 0.77038 0.0
C320 C 0.57374 0.11215 0.75822 0.0
C321 C 0.55988 0.11586 0.75231 0.0
C322 C 0.54242 0.11207 0.75837 0.0
C323 C 0.53902 0.10466 0.77055 0.0
C324 C 0.52759 0.11568 0.752 0.0
C325 C 0.53348 0.1322 0.74463 0.0
C326 C 0.50731 0.10261 0.75331 0.0
C327 C 0.49333 0.106 0.7475 0.0
C328 C 0.49919 0.12254 0.74016 0.0
C329 C 0.59213 0.11601 0.75164 0.0
C330 C 0.61016 0.12374 0.75815 0.0
C331 C 0.59184 0.11194 0.73881 0.0
C332 C 0.60906 0.11549 0.73267 0.0
C333 C 0.62707 0.12315 0.73919 0.0
C334 C 0.62737 0.12724 0.75202 0.0
C335 C 0.51947 0.13558 0.73879 0.0
H336 H 0.57118 0.09672 0.81747 0.0
H337 H 0.57834 0.10983 0.79637 0.0
H338 H 0.51727 0.07276 0.78603 0.0
H339 H 0.51014 0.0598 0.80708 0.0
H340 H 0.58008 0.10104 0.77486 0.0
H341 H 0.52594 0.10231 0.77543 0.0
H342 H 0.56265 0.12164 0.74295 0.0
H343 H 0.54894 0.14269 0.74349 0.0
H344 H 0.5022 0.0896 0.75877 0.0
H345 H 0.47788 0.09573 0.74891 0.0
H346 H 0.61104 0.12727 0.768 0.0
H347 H 0.57823 0.10577 0.73349 0.0
H348 H 0.52457 0.14836 0.7331 0.0
H349 H 0.64087 0.13291 0.75742 0.0
H350 H 0.60824 0.11235 0.72276 0.0
C351 C 0.80276 0.57538 0.87198 0.0
C352 C 0.79701 0.58864 0.86811 0.0
C353 C 0.79874 0.56789 0.88408 0.0
C354 C 0.78904 0.57359 0.8927 0.0
C355 C 0.78319 0.5868 0.88877 0.0
C356 C 0.78705 0.59415 0.87663 0.0
C357 C 0.78526 0.56597 0.90574 0.0
C358 C 0.79922 0.5629 0.91206 0.0
C359 C 0.79587 0.55555 0.92427 0.0
C360 C 0.77835 0.55168 0.9303 0.0
C361 C 0.76422 0.55483 0.92426 0.0
C362 C 0.76778 0.5618 0.91194 0.0
C363 C 0.74582 0.55099 0.93086 0.0
C364 C 0.73601 0.53509 0.93888 0.0
C365 C 0.73803 0.56336 0.92928 0.0
C366 C 0.72097 0.55996 0.93555 0.0
C367 C 0.71123 0.54416 0.94366 0.0
C368 C 0.81066 0.5519 0.93068 0.0
C369 C 0.82082 0.54441 0.92397 0.0
C370 C 0.81477 0.5558 0.94352 0.0
C371 C 0.8286 0.55229 0.94947 0.0
C372 C 0.83881 0.54487 0.94274 0.0
C373 C 0.83473 0.54102 0.9299 0.0
C374 C 0.719 0.53175 0.94521 0.0
H375 H 0.81019 0.57061 0.86559 0.0
H376 H 0.80312 0.55746 0.88662 0.0
H377 H 0.77597 0.5918 0.89516 0.0
H378 H 0.78262 0.60452 0.87399 0.0
H379 H 0.81301 0.56667 0.90756 0.0
H380 H 0.75669 0.56358 0.90705 0.0
H381 H 0.77572 0.54621 0.93973 0.0
H382 H 0.74136 0.52507 0.94022 0.0
H383 H 0.74525 0.57588 0.92331 0.0
H384 H 0.71533 0.56968 0.93392 0.0
H385 H 0.81792 0.54098 0.91412 0.0
H386 H 0.80745 0.56178 0.94899 0.0
H387 H 0.71208 0.51955 0.95145 0.0
H388 H 0.84245 0.53558 0.92433 0.0
H389 H 0.83114 0.55524 0.95939 0.0
C390 C 0.38612 0.18077 0.87675 0.0
C391 C 0.39355 0.19547 0.86776 0.0
C392 C 0.39363 0.18463 0.88894 0.0
C393 C 0.40863 0.20328 0.89241 0.0
C394 C 0.41617 0.21793 0.88339 0.0
C395 C 0.40874 0.21405 0.8712 0.0
C396 C 0.41624 0.20756 0.90543 0.0
C397 C 0.42046 0.19474 0.91183 0.0
C398 C 0.42788 0.19884 0.92412 0.0
C399 C 0.43086 0.21591 0.93001 0.0
C400 C 0.4268 0.22892 0.92373 0.0
C401 C 0.41947 0.22462 0.91145 0.0
C402 C 0.43072 0.24722 0.92991 0.0
C403 C 0.42563 0.2474 0.94247 0.0
C404 C 0.4401 0.26476 0.92339 0.0
C405 C 0.44458 0.28213 0.92934 0.0
C406 C 0.43976 0.28235 0.94194 0.0
C407 C 0.43296 0.18559 0.93074 0.0
C408 C 0.42075 0.1654 0.9297 0.0
C409 C 0.4501 0.19307 0.93815 0.0
C410 C 0.45486 0.18068 0.94445 0.0
C411 C 0.44267 0.16052 0.94341 0.0
C412 C 0.42559 0.15299 0.93595 0.0
C413 C 0.43007 0.26478 0.94841 0.0
H414 H 0.37454 0.16627 0.87434 0.0
H415 H 0.38746 0.17309 0.8957 0.0
H416 H 0.42787 0.23239 0.88576 0.0
H417 H 0.41464 0.22572 0.86452 0.0
H418 H 0.41856 0.18186 0.90709 0.0
H419 H 0.41593 0.23442 0.90664 0.0
H420 H 0.43656 0.21919 0.93949 0.0
H421 H 0.4182 0.23408 0.9477 0.0
H422 H 0.44436 0.26511 0.91374 0.0
H423 H 0.45183 0.29541 0.92406 0.0
H424 H 0.40731 0.15917 0.9242 0.0
H425 H 0.46003 0.20854 0.93896 0.0
H426 H 0.42629 0.26449 0.95816 0.0
H427 H 0.41581 0.13751 0.93509 0.0
H428 H 0.46828 0.18689 0.94997 0.0
C429 C 0.77729 0.19138 0.87252 0.0
C430 C 0.7961 0.19446 0.86953 0.0
C431 C 0.7731 0.19485 0.88465 0.0
C432 C 0.78768 0.20161 0.89403 0.0
C433 C 0.80635 0.20435 0.89111 0.0
C434 C 0.81048 0.20074 0.87904 0.0
C435 C 0.78372 0.20639 0.90673 0.0
C436 C 0.76631 0.19371 0.91302 0.0
C437 C 0.76271 0.19821 0.92511 0.0
C438 C 0.77665 0.2158 0.93076 0.0
C439 C 0.79408 0.22866 0.92459 0.0
C440 C 0.79751 0.22379 0.9126 0.0
C441 C 0.80868 0.24723 0.93062 0.0
C442 C 0.8025 0.2588 0.93686 0.0
C443 C 0.82892 0.25356 0.93011 0.0
C444 C 0.84267 0.27109 0.9357 0.0
C445 C 0.8365 0.28273 0.94188 0.0
C446 C 0.74456 0.18454 0.93194 0.0
C447 C 0.72623 0.17484 0.92577 0.0
C448 C 0.74544 0.1812 0.94474 0.0
C449 C 0.72841 0.16858 0.95123 0.0
C450 C 0.71005 0.15894 0.94509 0.0
C451 C 0.70918 0.16221 0.93227 0.0
C452 C 0.81626 0.27638 0.9424 0.0
H453 H 0.76591 0.18675 0.86542 0.0
H454 H 0.75863 0.19277 0.88661 0.0
H455 H 0.81778 0.20924 0.8982 0.0
H456 H 0.82498 0.20283 0.87718 0.0
H457 H 0.75584 0.18007 0.90864 0.0
H458 H 0.81075 0.23384 0.90768 0.0
H459 H 0.77395 0.21948 0.94002 0.0
H460 H 0.78703 0.2544 0.93732 0.0
H461 H 0.83412 0.24488 0.92546 0.0
H462 H 0.85817 0.27567 0.93504 0.0
H463 H 0.72501 0.1772 0.91594 0.0
H464 H 0.75936 0.18823 0.94975 0.0
H465 H 0.81103 0.28493 0.94719 0.0
H466 H 0.69533 0.15484 0.92721 0.0
H467 H 0.72961 0.16654 0.96112 0.0
C468 C 0.59923 0.81008 0.14239 0.0
C469 C 0.61465 0.80653 0.14523 0.0
C470 C 0.59113 0.80658 0.13036 0.0
C471 C 0.59826 0.79942 0.12091 0.0
C472 C 0.61379 0.79604 0.12373 0.0
C473 C 0.62189 0.79956 0.13574 0.0
C474 C 0.58928 0.79515 0.10823 0.0
C475 C 0.58423 0.80788 0.10249 0.0
C476 C 0.57555 0.80377 0.09054 0.0
C477 C 0.57182 0.78667 0.08437 0.0
C478 C 0.57673 0.77378 0.08996 0.0
C479 C 0.58552 0.77815 0.10186 0.0
C480 C 0.57234 0.75559 0.08345 0.0
C481 C 0.55394 0.74399 0.07767 0.0
C482 C 0.58647 0.74971 0.08296 0.0
C483 C 0.58231 0.73259 0.07676 0.0
C484 C 0.56387 0.72093 0.071 0.0
C485 C 0.57022 0.8172 0.08449 0.0
C486 C 0.56063 0.82519 0.09127 0.0
C487 C 0.5743 0.82179 0.07181 0.0
C488 C 0.56874 0.83395 0.06599 0.0
C489 C 0.55892 0.84173 0.07272 0.0
C490 C 0.55499 0.83729 0.08544 0.0
C491 C 0.54973 0.72682 0.07155 0.0
H492 H 0.59346 0.81564 0.14945 0.0
H493 H 0.57906 0.80916 0.12852 0.0
H494 H 0.61974 0.79072 0.11662 0.0
H495 H 0.63362 0.79648 0.13765 0.0
H496 H 0.58745 0.82123 0.10721 0.0
H497 H 0.58888 0.76798 0.10633 0.0
H498 H 0.56499 0.78333 0.07519 0.0
H499 H 0.54266 0.74803 0.07806 0.0
H500 H 0.60086 0.75851 0.08722 0.0
H501 H 0.59364 0.72863 0.07636 0.0
H502 H 0.55717 0.82179 0.10104 0.0
H503 H 0.58185 0.81601 0.06638 0.0
H504 H 0.53525 0.71801 0.06742 0.0
H505 H 0.54764 0.84324 0.0909 0.0
H506 H 0.57184 0.83698 0.05616 0.0
C507 C 0.21949 0.81853 0.13914 0.0
C508 C 0.21036 0.8033 0.14769 0.0
C509 C 0.22352 0.81502 0.12699 0.0
C510 C 0.21864 0.79623 0.12313 0.0
C511 C 0.20998 0.78112 0.13182 0.0
C512 C 0.20582 0.7846 0.14392 0.0
C513 C 0.22202 0.79223 0.11002 0.0
C514 C 0.23904 0.80542 0.10355 0.0
C515 C 0.24208 0.80176 0.09111 0.0
C516 C 0.22788 0.78456 0.08521 0.0
C517 C 0.21089 0.77112 0.09154 0.0
C518 C 0.20803 0.77515 0.10389 0.0
C519 C 0.19619 0.75277 0.08528 0.0
C520 C 0.19068 0.75263 0.07276 0.0
C521 C 0.18773 0.7352 0.09178 0.0
C522 C 0.17418 0.71788 0.08588 0.0
C523 C 0.16877 0.7177 0.07333 0.0
C524 C 0.25999 0.81589 0.08423 0.0
C525 C 0.26744 0.83591 0.0856 0.0
C526 C 0.26958 0.80945 0.07605 0.0
C527 C 0.286 0.82267 0.06928 0.0
C528 C 0.29337 0.8427 0.07058 0.0
C529 C 0.28394 0.84914 0.07889 0.0
C530 C 0.17712 0.7353 0.06685 0.0
H531 H 0.223 0.83306 0.14175 0.0
H532 H 0.22998 0.82696 0.12052 0.0
H533 H 0.20642 0.76655 0.12928 0.0
H534 H 0.19908 0.77263 0.15036 0.0
H535 H 0.25015 0.81836 0.1083 0.0
H536 H 0.1946 0.76514 0.10863 0.0
H537 H 0.23006 0.78158 0.07564 0.0
H538 H 0.19676 0.76595 0.06753 0.0
H539 H 0.19179 0.73477 0.1014 0.0
H540 H 0.16785 0.70462 0.09119 0.0
H541 H 0.26034 0.8414 0.09171 0.0
H542 H 0.26445 0.79415 0.07489 0.0
H543 H 0.17341 0.73566 0.05715 0.0
H544 H 0.28937 0.86445 0.0803 0.0
H545 H 0.29274 0.81715 0.0629 0.0
C546 C 0.22749 0.42658 0.14359 0.0
C547 C 0.20841 0.41223 0.14701 0.0
C548 C 0.23133 0.43406 0.13147 0.0
C549 C 0.21618 0.42736 0.12245 0.0
C550 C 0.19714 0.41289 0.12585 0.0
C551 C 0.19331 0.40545 0.13796 0.0
C552 C 0.22009 0.43544 0.10956 0.0
C553 C 0.23746 0.43948 0.10329 0.0
C554 C 0.24106 0.44679 0.09106 0.0
C555 C 0.22694 0.45003 0.0851 0.0
C556 C 0.20949 0.44617 0.0912 0.0
C557 C 0.20631 0.43897 0.10345 0.0
C558 C 0.19451 0.44957 0.08485 0.0
C559 C 0.20025 0.46601 0.07743 0.0
C560 C 0.17427 0.43643 0.08626 0.0
C561 C 0.16017 0.4397 0.08049 0.0
C562 C 0.16588 0.45617 0.07311 0.0
C563 C 0.25948 0.45083 0.08448 0.0
C564 C 0.27769 0.45975 0.09082 0.0
C565 C 0.259 0.44574 0.07182 0.0
C566 C 0.27626 0.44939 0.06569 0.0
C567 C 0.29449 0.45827 0.07204 0.0
C568 C 0.29496 0.46344 0.08469 0.0
C569 C 0.18613 0.46926 0.07164 0.0
H570 H 0.23943 0.4323 0.15035 0.0
H571 H 0.24611 0.44536 0.12924 0.0
H572 H 0.18518 0.4071 0.11911 0.0
H573 H 0.17852 0.39415 0.14017 0.0
H574 H 0.24796 0.43639 0.1078 0.0
H575 H 0.1932 0.43649 0.10835 0.0
H576 H 0.22955 0.45556 0.07567 0.0
H577 H 0.21568 0.47654 0.07622 0.0
H578 H 0.16928 0.4235 0.09177 0.0
H579 H 0.14475 0.42939 0.08197 0.0
H580 H 0.27866 0.46413 0.10051 0.0
H581 H 0.2452 0.43858 0.06669 0.0
H582 H 0.19111 0.48199 0.06591 0.0
H583 H 0.30873 0.47061 0.08984 0.0
H584 H 0.27523 0.4449 0.05602 0.0
C585 C 0.46875 0.90741 0.2048 0.0
C586 C 0.46484 0.92214 0.20132 0.0
C587 C 0.46473 0.89989 0.2169 0.0
C588 C 0.45666 0.90688 0.22585 0.0
C589 C 0.45256 0.92147 0.22234 0.0
C590 C 0.45661 0.92901 0.21025 0.0
C591 C 0.45277 0.89913 0.23882 0.0
C592 C 0.4664 0.89543 0.245 0.0
C593 C 0.463 0.88815 0.25723 0.0
C594 C 0.44564 0.88464 0.26331 0.0
C595 C 0.43176 0.88824 0.25734 0.0
C596 C 0.43551 0.89546 0.24508 0.0
C597 C 0.41335 0.88439 0.26387 0.0
C598 C 0.40308 0.86803 0.27147 0.0
C599 C 0.40587 0.89707 0.26257 0.0
C600 C 0.3886 0.89347 0.26866 0.0
C601 C 0.37836 0.87712 0.27626 0.0
C602 C 0.47764 0.88429 0.26363 0.0
C603 C 0.48727 0.87617 0.257 0.0
C604 C 0.48224 0.88881 0.27638 0.0
C605 C 0.49617 0.8854 0.28229 0.0
C606 C 0.50592 0.87746 0.27562 0.0
C607 C 0.50123 0.87284 0.26291 0.0
C608 C 0.38585 0.86447 0.2776 0.0
H609 H 0.47475 0.9015 0.19814 0.0
H610 H 0.46777 0.88844 0.2192 0.0
H611 H 0.4466 0.92739 0.22904 0.0
H612 H 0.45367 0.94054 0.20799 0.0
H613 H 0.47999 0.89874 0.24039 0.0
H614 H 0.4247 0.89778 0.24026 0.0
H615 H 0.44292 0.87909 0.27273 0.0
H616 H 0.40817 0.85775 0.27254 0.0
H617 H 0.41352 0.90999 0.25698 0.0
H618 H 0.38343 0.90368 0.26757 0.0
H619 H 0.48387 0.87218 0.24725 0.0
H620 H 0.47535 0.89534 0.28175 0.0
H621 H 0.37821 0.8516 0.28324 0.0
H622 H 0.5082 0.8664 0.25753 0.0
H623 H 0.49959 0.88938 0.29205 0.0
C624 C 0.04861 0.51214 0.20949 0.0
C625 C 0.05367 0.52727 0.20104 0.0
C626 C 0.05711 0.51596 0.22143 0.0
C627 C 0.07097 0.53499 0.22511 0.0
C628 C 0.07607 0.55008 0.21659 0.0
C629 C 0.06747 0.54627 0.20472 0.0
C630 C 0.08042 0.53919 0.23769 0.0
C631 C 0.08611 0.52668 0.24303 0.0
C632 C 0.09607 0.53124 0.25455 0.0
C633 C 0.10053 0.54855 0.26071 0.0
C634 C 0.09457 0.56107 0.25571 0.0
C635 C 0.08431 0.5561 0.24424 0.0
C636 C 0.09924 0.57939 0.26236 0.0
C637 C 0.09956 0.58038 0.27549 0.0
C638 C 0.10367 0.59616 0.25563 0.0
C639 C 0.10821 0.61336 0.26184 0.0
C640 C 0.10892 0.61446 0.27497 0.0
C641 C 0.10174 0.51787 0.26026 0.0
C642 C 0.08778 0.49814 0.26149 0.0
C643 C 0.12091 0.52485 0.26492 0.0
C644 C 0.12598 0.51237 0.2708 0.0
C645 C 0.1119 0.49274 0.27229 0.0
C646 C 0.09278 0.48571 0.26753 0.0
C647 C 0.10454 0.59771 0.2817 0.0
H648 H 0.03787 0.49737 0.20694 0.0
H649 H 0.05266 0.50403 0.2278 0.0
H650 H 0.087 0.56485 0.21899 0.0
H651 H 0.07189 0.55819 0.19833 0.0
H652 H 0.08335 0.51365 0.23808 0.0
H653 H 0.0791 0.56528 0.24044 0.0
H654 H 0.10863 0.55219 0.26946 0.0
H655 H 0.09589 0.56774 0.28104 0.0
H656 H 0.1039 0.59614 0.24553 0.0
H657 H 0.11109 0.62577 0.25628 0.0
H658 H 0.07287 0.49244 0.25804 0.0
H659 H 0.13196 0.53999 0.26402 0.0
H660 H 0.10517 0.59795 0.2918 0.0
H661 H 0.0817 0.47059 0.26847 0.0
H662 H 0.1408 0.51816 0.27445 0.0
C663 C 0.44477 0.52437 0.20438 0.0
C664 C 0.4636 0.52752 0.20141 0.0
C665 C 0.44067 0.52822 0.21644 0.0
C666 C 0.45535 0.53542 0.22577 0.0
C667 C 0.47413 0.53844 0.22281 0.0
C668 C 0.4782 0.53454 0.21079 0.0
C669 C 0.45128 0.53998 0.23854 0.0
C670 C 0.43357 0.5274 0.2446 0.0
C671 C 0.43018 0.53143 0.25683 0.0
C672 C 0.44439 0.5483 0.26295 0.0
C673 C 0.46195 0.56128 0.25694 0.0
C674 C 0.46531 0.55694 0.24477 0.0
C675 C 0.47661 0.57952 0.26328 0.0
C676 C 0.47047 0.59089 0.26983 0.0
C677 C 0.49684 0.58585 0.26268 0.0
C678 C 0.51063 0.60319 0.26848 0.0
C679 C 0.50449 0.61464 0.27493 0.0
C680 C 0.4119 0.51794 0.26336 0.0
C681 C 0.39376 0.51556 0.25942 0.0
C682 C 0.41262 0.5078 0.27378 0.0
C683 C 0.39539 0.49527 0.28014 0.0
C684 C 0.37708 0.49294 0.27638 0.0
C685 C 0.37655 0.50335 0.26593 0.0
C686 C 0.48425 0.60827 0.27556 0.0
H687 H 0.43314 0.51881 0.1974 0.0
H688 H 0.42609 0.52586 0.21839 0.0
H689 H 0.48571 0.54376 0.22981 0.0
H690 H 0.49292 0.53734 0.2088 0.0
H691 H 0.42265 0.51418 0.24 0.0
H692 H 0.4787 0.56705 0.24001 0.0
H693 H 0.44173 0.55128 0.27241 0.0
H694 H 0.455 0.58649 0.27036 0.0
H695 H 0.50201 0.57733 0.25779 0.0
H696 H 0.52612 0.60779 0.26775 0.0
H697 H 0.39297 0.52345 0.25145 0.0
H698 H 0.42652 0.50944 0.27693 0.0
H699 H 0.47904 0.61668 0.28056 0.0
H700 H 0.36291 0.50234 0.26285 0.0
H701 H 0.39647 0.48725 0.28792 0.0
Gd702 Gd 0.5117 0.01591 0.02275 0.0
Gd703 Gd 0.49113 0.98731 0.99334 0.0
C704 C 0.43028 0.93304 0.99143 0.0
C705 C 0.43842 0.90768 0.98809 0.0
C706 C 0.46437 0.94137 0.98962 0.0
C707 C 0.45052 0.94695 0.9915 0.0
C708 C 0.4585 0.92172 0.98761 0.0
C709 C 0.42433 0.91333 0.99001 0.0
C710 C 0.41664 0.9394 0.99244 0.0
C711 C 0.42331 0.95923 0.993 0.0
N712 N 0.45681 0.96611 0.99274 0.0
C713 C 0.44355 0.97246 0.99296 0.0
H714 H 0.44845 0.98771 0.9935 0.0
C715 C 0.49764 0.95079 0.98586 0.0
N716 N 0.48358 0.95532 0.98914 0.0
C717 C 0.49257 0.93149 0.98384 0.0
C718 C 0.47294 0.91686 0.98487 0.0
H719 H 0.51286 0.96204 0.98514 0.0
H720 H 0.40886 0.90241 0.99008 0.0
H721 H 0.55416 0.01506 0.02217 0.0
H722 H 0.40096 0.92918 0.99248 0.0
H723 H 0.41288 0.96433 0.99353 0.0
H724 H 0.43361 0.89248 0.9867 0.0
H725 H 0.49044 0.04151 0.03113 0.0
H726 H 0.60205 0.07336 0.02349 0.0
H727 H 0.58978 0.03816 0.0221 0.0
H728 H 0.57005 0.11057 0.02976 0.0
H729 H 0.50381 0.92792 0.98152 0.0
H730 H 0.46904 0.90192 0.98328 0.0
H731 H 0.59453 0.10033 0.02621 0.0
H732 H 0.49984 0.07569 0.03491 0.0
N733 N 0.54608 0.03685 0.02329 0.0
C734 C 0.58634 0.06325 0.02355 0.0
C735 C 0.57947 0.04341 0.02279 0.0
C736 C 0.57287 0.06979 0.02473 0.0
C737 C 0.55258 0.05603 0.02467 0.0
C738 C 0.5592 0.03032 0.02285 0.0
N739 N 0.51962 0.04797 0.02708 0.0
C740 C 0.53889 0.06179 0.02663 0.0
C741 C 0.51097 0.07199 0.03254 0.0
C742 C 0.53066 0.0865 0.03154 0.0
C743 C 0.50571 0.05266 0.03044 0.0
C744 C 0.54496 0.08146 0.02873 0.0
H745 H 0.53472 0.10146 0.03321 0.0
O746 O 0.49823 0.01188 0.041 0.0
O747 O 0.48645 0.99112 0.0133 0.0
O748 O 0.48336 0.01108 0.99586 0.0
O749 O 0.50743 0.03469 0.00897 0.0
O750 O 0.47963 0.00646 0.0259 0.0
O751 O 0.5225 0.0066 0.03841 0.0
O752 O 0.50476 0.99143 0.97514 0.0
O753 O 0.5163 0.01222 1.00275 0.0
O754 O 0.51932 0.99205 0.02015 0.0
O755 O 0.49493 0.96841 0.00726 0.0
O756 O 0.52326 0.99694 0.99023 0.0
O757 O 0.48007 0.99614 0.97756 0.0
C758 C 0.47236 0.99177 0.0184 0.0
C759 C 0.56509 0.09535 0.02828 0.0
C760 C 0.57902 0.08952 0.02627 0.0
C761 C 0.51035 0.00741 0.04635 0.0
C762 C 0.51874 0.01694 0.05843 0.0
C763 C 0.53346 0.03647 0.05896 0.0
C764 C 0.51177 0.00645 0.06956 0.0
C765 C 0.51939 0.01545 0.08124 0.0
C766 C 0.54114 0.04547 0.07046 0.0
C767 C 0.53419 0.0351 0.08152 0.0
C768 C 0.49342 0.02905 1.00035 0.0
C769 C 0.53047 0.01173 0.99765 0.0
C770 C 0.49241 0.99551 0.9697 0.0
C771 C 0.48422 0.98576 0.95765 0.0
C772 C 0.46941 0.96625 0.95719 0.0
C773 C 0.49153 0.99599 0.94646 0.0
C774 C 0.48417 0.98676 0.9348 0.0
C775 C 0.46198 0.95703 0.94571 0.0
C776 C 0.46927 0.96715 0.9346 0.0
C777 C 0.50892 0.97398 0.01589 0.0
H778 H 0.539 0.04475 0.0505 0.0
H779 H 0.50023 0.9914 0.06912 0.0
H780 H 0.55255 0.06055 0.07082 0.0
H781 H 0.54061 0.04241 0.0903 0.0
H782 H 0.46362 0.95817 0.96569 0.0
H783 H 0.50315 0.01102 0.94684 0.0
H784 H 0.4505 0.94198 0.94542 0.0
H785 H 0.46304 0.95968 0.92583 0.0
Gd786 Gd 0.98754 0.49676 0.0193 0.0
Gd787 Gd 0.02022 0.50588 0.99224 0.0
C788 C 0.07505 0.49977 0.99303 0.0
C789 C 0.1013 0.53308 0.9906 0.0
C790 C 0.06713 0.52534 0.99118 0.0
C791 C 0.06112 0.50602 0.99292 0.0
C792 C 0.08727 0.53906 0.98981 0.0
C793 C 0.09519 0.51344 0.99212 0.0
C794 C 0.06829 0.47989 0.99358 0.0
C795 C 0.04811 0.46683 0.99389 0.0
N796 N 0.04153 0.49316 0.99354 0.0
C797 C 0.03487 0.47372 0.9937 0.0
H798 H 0.01933 0.46338 0.99383 0.0
C799 C 0.0582 0.54896 0.98678 0.0
N800 N 0.05316 0.5305 0.99002 0.0
C801 C 0.078 0.56317 0.98556 0.0
C802 C 0.09262 0.55825 0.98721 0.0
H803 H 0.04693 0.55281 0.98548 0.0
H804 H 0.10613 0.50893 0.99231 0.0
H805 H 0.98783 0.53903 0.0177 0.0
H806 H 0.0785 0.47448 0.99357 0.0
H807 H 0.04272 0.45142 0.9942 0.0
H808 H 0.11685 0.54342 0.98964 0.0
H809 H 0.96107 0.45009 0.02682 0.0
H810 H 0.92834 0.52694 0.01518 0.0
H811 H 0.96406 0.55047 0.01584 0.0
H812 H 0.89064 0.45808 0.0199 0.0
H813 H 0.08195 0.57788 0.9833 0.0
H814 H 0.10794 0.56924 0.98612 0.0
H815 H 0.90101 0.49234 0.01638 0.0
H816 H 0.92607 0.42475 0.02865 0.0
N817 N 0.96593 0.50915 0.01771 0.0
C818 C 0.93873 0.52179 0.01594 0.0
C819 C 0.95887 0.53511 0.01636 0.0
C820 C 0.93222 0.50201 0.01692 0.0
C821 C 0.94637 0.49609 0.01792 0.0
C822 C 0.97233 0.52853 0.01743 0.0
N823 N 0.95464 0.47202 0.02159 0.0
C824 C 0.94053 0.47689 0.01993 0.0
C825 C 0.92993 0.43934 0.02614 0.0
C826 C 0.91519 0.44392 0.02387 0.0
C827 C 0.94971 0.45371 0.02513 0.0
C828 C 0.9204 0.46296 0.02092 0.0
H829 H 0.89988 0.43279 0.02471 0.0
O830 O 0.98792 0.48703 0.03814 0.0
O831 O 0.01437 0.49757 0.01207 0.0
O832 O 0.99584 0.47428 0.99344 0.0
O833 O 0.9703 0.47402 0.00472 0.0
O834 O 0.99767 0.47533 0.02396 0.0
O835 O 0.99449 0.51651 0.03499 0.0
O836 O 0.01975 0.51589 0.97351 0.0
O837 O 0.99342 0.50508 0.99944 0.0
O838 O 0.01178 0.52838 0.01797 0.0
O839 O 0.03743 0.52841 0.00697 0.0
O840 O 0.01035 0.52747 0.98764 0.0
O841 O 0.01328 0.48638 0.9764 0.0
C842 C 0.01359 0.48328 0.01751 0.0
C843 C 0.90619 0.46859 0.0193 0.0
C844 C 0.9121 0.4881 0.0173 0.0
C845 C 0.99149 0.50338 0.04324 0.0
C846 C 0.97924 0.50201 0.05395 0.0
C847 C 0.96045 0.4997 0.05223 0.0
C848 C 0.98656 0.50325 0.06608 0.0
C849 C 0.97529 0.5024 0.07651 0.0
C850 C 0.94913 0.49872 0.06252 0.0
C851 C 0.9565 0.50012 0.0746 0.0
C852 C 0.97705 0.46606 0.99671 0.0
C853 C 0.99432 0.51942 0.99397 0.0
C854 C 0.01609 0.49961 0.96827 0.0
C855 C 0.02808 0.50114 0.95738 0.0
C856 C 0.04729 0.50442 0.9588 0.0
C857 C 0.02013 0.49928 0.94537 0.0
C858 C 0.03126 0.50066 0.93474 0.0
C859 C 0.05845 0.50585 0.94832 0.0
C860 C 0.05052 0.50398 0.93635 0.0
C861 C 0.03063 0.53649 0.01486 0.0
H862 H 0.95456 0.49876 0.04297 0.0
H863 H 1.00119 0.50526 0.06739 0.0
H864 H 0.93463 0.49693 0.06113 0.0
H865 H 0.94743 0.49925 0.08246 0.0
H866 H 0.05364 0.50584 0.96795 0.0
H867 H 0.00517 0.49648 0.94433 0.0
H868 H 0.07329 0.50844 0.94947 0.0
H869 H 0.05954 0.50535 0.92836 0.0
Gd870 Gd 0.49188 0.50589 0.99302 0.0
Gd871 Gd 0.5132 0.49678 0.02137 0.0
C872 C 0.57309 0.50018 0.02089 0.0
C873 C 0.56404 0.46655 0.02381 0.0
C874 C 0.53887 0.47582 0.02352 0.0
C875 C 0.55304 0.49484 0.0215 0.0
C876 C 0.54421 0.4615 0.025 0.0
C877 C 0.57847 0.48586 0.02174 0.0
C878 C 0.58716 0.5198 0.01979 0.0
C879 C 0.58113 0.53357 0.01982 0.0
N880 N 0.54732 0.50829 0.02081 0.0
C881 C 0.56106 0.52754 0.02052 0.0
H882 H 0.55665 0.53835 0.02043 0.0
C883 C 0.50568 0.45343 0.02822 0.0
N884 N 0.5199 0.47152 0.0247 0.0
C885 C 0.51022 0.43869 0.02972 0.0
C886 C 0.52954 0.44268 0.02794 0.0
H887 H 0.4907 0.45025 0.0295 0.0
H888 H 0.59377 0.48965 0.02114 0.0
H889 H 0.44802 0.46497 0.99444 0.0
H890 H 0.6027 0.5245 0.01924 0.0
H891 H 0.59191 0.54882 0.01923 0.0
H892 H 0.56844 0.45572 0.02478 0.0
H893 H 0.51556 0.55241 0.98468 0.0
H894 H 0.40269 0.47981 0.99302 0.0
H895 H 0.41287 0.45511 0.99458 0.0
H896 H 0.43828 0.54834 0.98661 0.0
H897 H 0.49883 0.42426 0.03222 0.0
H898 H 0.53303 0.43125 0.02915 0.0
H899 H 0.41233 0.51469 0.99033 0.0
H900 H 0.50818 0.57863 0.98093 0.0
N901 N 0.4579 0.49509 0.9932 0.0
C902 C 0.4182 0.48425 0.99302 0.0
C903 C 0.42388 0.47027 0.99386 0.0
C904 C 0.43258 0.50373 0.99181 0.0
C905 C 0.45256 0.50873 0.99182 0.0
C906 C 0.44389 0.47595 0.99377 0.0
N907 N 0.48598 0.53154 0.98904 0.0
C908 C 0.46708 0.52758 0.98968 0.0
C909 C 0.49649 0.56436 0.98343 0.0
C910 C 0.4772 0.56072 0.98459 0.0
C911 C 0.50061 0.54946 0.98554 0.0
C912 C 0.46215 0.54208 0.98756 0.0
H913 H 0.47402 0.57226 0.98289 0.0
O914 O 0.50452 0.51387 0.97452 0.0
O915 O 0.51709 0.50459 1.00138 0.0
O916 O 0.52193 0.52851 0.01931 0.0
O917 O 0.49765 0.52927 0.00704 0.0
O918 O 0.52405 0.52685 0.98917 0.0
O919 O 0.47871 0.48576 0.97747 0.0
O920 O 0.5012 0.48785 0.03996 0.0
O921 O 0.488 0.4981 0.01305 0.0
O922 O 0.48251 0.47409 0.99542 0.0
O923 O 0.50724 0.47348 0.00722 0.0
O924 O 0.481 0.47599 0.0254 0.0
O925 O 0.52607 0.51662 0.03708 0.0
C926 C 0.53126 0.51875 0.99611 0.0
C927 C 0.44235 0.53738 0.98811 0.0
C928 C 0.42759 0.51823 0.99023 0.0
C929 C 0.49099 0.49784 0.96935 0.0
C930 C 0.48251 0.49986 0.95761 0.0
C931 C 0.4675 0.50453 0.9576 0.0
C932 C 0.48988 0.49744 0.94623 0.0
C933 C 0.48236 0.49971 0.9348 0.0
C934 C 0.45993 0.50678 0.94632 0.0
C935 C 0.4673 0.50442 0.93499 0.0
C936 C 0.51217 0.53712 0.01535 0.0
C937 C 0.47382 0.48411 0.01845 0.0
C938 C 0.51439 0.504 0.04519 0.0
C939 C 0.52362 0.50216 0.05666 0.0
C940 C 0.53916 0.49826 0.05615 0.0
C941 C 0.51665 0.50422 0.0683 0.0
C942 C 0.52516 0.50247 0.07946 0.0
C943 C 0.54767 0.49647 0.06716 0.0
C944 C 0.54076 0.49857 0.07874 0.0
C945 C 0.49244 0.46555 0.99912 0.0
H946 H 0.46165 0.50644 0.96628 0.0
H947 H 0.50168 0.4941 0.94629 0.0
H948 H 0.44831 0.51035 0.94636 0.0
H949 H 0.46103 0.50604 0.92637 0.0
H950 H 0.5447 0.4966 0.04727 0.0
H951 H 0.50476 0.50744 0.06863 0.0
H952 H 0.55963 0.49341 0.06671 0.0
H953 H 0.54747 0.49688 0.08714 0.0
Gd954 Gd 0.17811 0.34838 0.35581 0.0
Gd955 Gd 0.16074 0.32031 0.32602 0.0
C956 C 0.09971 0.26673 0.32218 0.0
C957 C 0.10757 0.24103 0.31967 0.0
C958 C 0.13375 0.27449 0.32203 0.0
C959 C 0.11998 0.28037 0.32315 0.0
C960 C 0.12774 0.25482 0.31997 0.0
C961 C 0.09357 0.24698 0.32076 0.0
C962 C 0.08628 0.27342 0.32221 0.0
C963 C 0.09322 0.29328 0.32278 0.0
N964 N 0.12645 0.29957 0.32433 0.0
C965 C 0.11347 0.30624 0.32367 0.0
H966 H 0.11857 0.32154 0.32412 0.0
C967 C 0.16717 0.28351 0.31941 0.0
N968 N 0.15307 0.28823 0.32216 0.0
C969 C 0.16197 0.26418 0.3174 0.0
C970 C 0.14218 0.24972 0.31785 0.0
H971 H 0.18249 0.29464 0.31912 0.0
H972 H 0.07806 0.23626 0.32014 0.0
H973 H 0.22103 0.34834 0.35632 0.0
H974 H 0.07058 0.26342 0.32147 0.0
H975 H 0.08298 0.29864 0.32256 0.0
H976 H 0.10264 0.22581 0.31822 0.0
H977 H 0.15639 0.37256 0.36594 0.0
H978 H 0.26821 0.40699 0.3576 0.0
H979 H 0.25654 0.37189 0.35654 0.0
H980 H 0.23504 0.44295 0.36438 0.0
H981 H 0.17321 0.26043 0.31552 0.0
H982 H 0.13817 0.23477 0.31623 0.0
H983 H 0.26001 0.43353 0.3603 0.0
H984 H 0.16516 0.40628 0.3709 0.0
N985 N 0.21243 0.36978 0.3568 0.0
C986 C 0.25255 0.39669 0.35748 0.0
C987 C 0.24602 0.3769 0.35694 0.0
C988 C 0.23879 0.4029 0.35845 0.0
C989 C 0.21859 0.38888 0.35817 0.0
C990 C 0.2258 0.36356 0.35683 0.0
N991 N 0.18552 0.38004 0.3609 0.0
C992 C 0.20463 0.3942 0.36036 0.0
C993 C 0.1764 0.40311 0.36786 0.0
C994 C 0.19585 0.41805 0.36658 0.0
C995 C 0.17149 0.38403 0.36507 0.0
C996 C 0.21034 0.41365 0.36301 0.0
H997 H 0.19963 0.43281 0.36874 0.0
O998 O 0.16315 0.34311 0.37365 0.0
O999 O 0.154 0.32361 0.3456 0.0
O1000 O 0.15324 0.34438 0.3272 0.0
O1001 O 0.17343 0.36732 0.34229 0.0
O1002 O 0.14566 0.33847 0.35755 0.0
O1003 O 0.18828 0.33907 0.37179 0.0
O1004 O 0.17586 0.32386 0.30841 0.0
O1005 O 0.18477 0.34552 0.33602 0.0
O1006 O 0.18635 0.32487 0.35394 0.0
O1007 O 0.16345 0.30128 0.34036 0.0
O1008 O 0.1931 0.33006 0.32455 0.0
O1009 O 0.15136 0.32911 0.30945 0.0
C1010 C 0.13928 0.32398 0.34992 0.0
C1011 C 0.23035 0.42788 0.36254 0.0
C1012 C 0.24457 0.42251 0.36022 0.0
C1013 C 0.17537 0.33916 0.37938 0.0
C1014 C 0.18288 0.34868 0.39159 0.0
C1015 C 0.19713 0.36837 0.39229 0.0
C1016 C 0.17575 0.33802 0.40265 0.0
C1017 C 0.18275 0.34701 0.41442 0.0
C1018 C 0.20416 0.37737 0.40387 0.0
C1019 C 0.19706 0.36682 0.41486 0.0
C1020 C 0.1615 0.3619 0.33241 0.0
C1021 C 0.19947 0.34508 0.33173 0.0
C1022 C 0.16421 0.32815 0.30224 0.0
C1023 C 0.15685 0.31834 0.2901 0.0
C1024 C 0.143 0.29852 0.28949 0.0
C1025 C 0.16376 0.32891 0.27899 0.0
C1026 C 0.15694 0.31971 0.26727 0.0
C1027 C 0.13615 0.28932 0.27794 0.0
C1028 C 0.14303 0.29978 0.26691 0.0
C1029 C 0.17665 0.30688 0.34949 0.0
H1030 H 0.20287 0.37677 0.3839 0.0
H1031 H 0.16461 0.32283 0.40208 0.0
H1032 H 0.21522 0.39256 0.40435 0.0
H1033 H 0.20304 0.37414 0.4237 0.0
H1034 H 0.13747 0.2902 0.29792 0.0
H1035 H 0.17459 0.3442 0.2795 0.0
H1036 H 0.1254 0.27402 0.27754 0.0
H1037 H 0.13722 0.29229 0.25809 0.0
Gd1038 Gd 0.6538 0.82864 0.35313 0.0
Gd1039 Gd 0.68641 0.83739 0.32603 0.0
C1040 C 0.74301 0.83437 0.32761 0.0
C1041 C 0.76806 0.86781 0.32396 0.0
C1042 C 0.73344 0.85852 0.32433 0.0
C1043 C 0.72837 0.83966 0.32688 0.0
C1044 C 0.7533 0.87274 0.32253 0.0
C1045 C 0.76292 0.84864 0.32649 0.0
C1046 C 0.73717 0.81479 0.32893 0.0
C1047 C 0.71714 0.80102 0.32911 0.0
N1048 N 0.70898 0.82621 0.3277 0.0
C1049 C 0.70318 0.80699 0.32834 0.0
H1050 H 0.68777 0.79617 0.3285 0.0
C1051 C 0.72284 0.88043 0.31859 0.0
N1052 N 0.71879 0.86266 0.32277 0.0
C1053 C 0.74232 0.89505 0.31674 0.0
C1054 C 0.75765 0.89128 0.3189 0.0
H1055 H 0.71107 0.88347 0.31696 0.0
H1056 H 0.7744 0.84489 0.32717 0.0
H1057 H 0.65429 0.87098 0.35134 0.0
H1058 H 0.74797 0.81013 0.32945 0.0
H1059 H 0.71243 0.78579 0.32984 0.0
H1060 H 0.78343 0.87857 0.32274 0.0
H1061 H 0.62718 0.78205 0.36079 0.0
H1062 H 0.59487 0.85902 0.34829 0.0
H1063 H 0.6306 0.8825 0.34915 0.0
H1064 H 0.55694 0.79023 0.35339 0.0
H1065 H 0.74549 0.90922 0.31367 0.0
H1066 H 0.77272 0.9026 0.3174 0.0
H1067 H 0.56745 0.82448 0.3497 0.0
H1068 H 0.59213 0.75679 0.36258 0.0
N1069 N 0.6323 0.84113 0.35138 0.0
C1070 C 0.60521 0.85385 0.34926 0.0
C1071 C 0.62536 0.86714 0.34978 0.0
C1072 C 0.59863 0.83408 0.35039 0.0
C1073 C 0.61273 0.82811 0.35155 0.0
C1074 C 0.63877 0.86052 0.35102 0.0
N1075 N 0.62086 0.80398 0.35538 0.0
C1076 C 0.60682 0.80891 0.35361 0.0
C1077 C 0.59605 0.77138 0.36 0.0
C1078 C 0.58137 0.776 0.35761 0.0
C1079 C 0.61586 0.78569 0.35901 0.0
C1080 C 0.58666 0.79503 0.35457 0.0
H1081 H 0.56604 0.7649 0.35842 0.0
O1082 O 0.6542 0.81896 0.37198 0.0
O1083 O 0.68078 0.82956 0.34603 0.0
O1084 O 0.66267 0.80567 0.32789 0.0
O1085 O 0.63682 0.8056 0.33863 0.0
O1086 O 0.66393 0.80738 0.35805 0.0
O1087 O 0.66035 0.84831 0.3688 0.0
O1088 O 0.68414 0.84541 0.30701 0.0
O1089 O 0.65962 0.83658 0.33324 0.0
O1090 O 0.67821 0.86019 0.35183 0.0
O1091 O 0.70377 0.86095 0.34019 0.0
O1092 O 0.67602 0.85844 0.321 0.0
O1093 O 0.67984 0.81689 0.31084 0.0
C1094 C 0.67996 0.81537 0.3517 0.0
C1095 C 0.57252 0.80071 0.35282 0.0
C1096 C 0.57849 0.82021 0.35073 0.0
C1097 C 0.65757 0.83525 0.37706 0.0
C1098 C 0.64532 0.83374 0.3878 0.0
C1099 C 0.62646 0.8313 0.38616 0.0
C1100 C 0.65274 0.83494 0.3999 0.0
C1101 C 0.64151 0.83392 0.41039 0.0
C1102 C 0.61519 0.83017 0.39651 0.0
C1103 C 0.62265 0.83153 0.40857 0.0
C1104 C 0.64379 0.79748 0.33091 0.0
C1105 C 0.66023 0.85064 0.32756 0.0
C1106 C 0.68145 0.82915 0.30229 0.0
C1107 C 0.69346 0.83073 0.2914 0.0
C1108 C 0.71266 0.83398 0.29282 0.0
C1109 C 0.68558 0.82903 0.27939 0.0
C1110 C 0.69675 0.83053 0.26876 0.0
C1111 C 0.72387 0.83555 0.28234 0.0
C1112 C 0.71601 0.83384 0.27037 0.0
C1113 C 0.69697 0.86862 0.34842 0.0
H1114 H 0.62051 0.83038 0.37692 0.0
H1115 H 0.66742 0.83706 0.40114 0.0
H1116 H 0.60064 0.82828 0.39519 0.0
H1117 H 0.61362 0.83054 0.41647 0.0
H1118 H 0.71897 0.83525 0.30198 0.0
H1119 H 0.67062 0.82625 0.27834 0.0
H1120 H 0.73871 0.83811 0.2835 0.0
H1121 H 0.72508 0.83532 0.26238 0.0
Gd1122 Gd 0.15962 0.83763 0.32681 0.0
Gd1123 Gd 0.18082 0.82931 0.35551 0.0
C1124 C 0.2405 0.83229 0.35698 0.0
C1125 C 0.23118 0.79897 0.36147 0.0
C1126 C 0.20614 0.80828 0.35947 0.0
C1127 C 0.22046 0.82706 0.35695 0.0
C1128 C 0.21134 0.7941 0.36206 0.0
C1129 C 0.24575 0.81805 0.35893 0.0
C1130 C 0.25469 0.85179 0.35549 0.0
C1131 C 0.24877 0.86556 0.35441 0.0
N1132 N 0.21487 0.84048 0.35529 0.0
C1133 C 0.22871 0.85965 0.35452 0.0
H1134 H 0.22438 0.87048 0.35368 0.0
C1135 C 0.17281 0.78649 0.36418 0.0
N1136 N 0.18719 0.80418 0.36015 0.0
C1137 C 0.17721 0.77191 0.36681 0.0
C1138 C 0.19652 0.77564 0.36557 0.0
H1139 H 0.15784 0.78348 0.3651 0.0
H1140 H 0.26106 0.82176 0.35886 0.0
H1141 H 0.11664 0.79552 0.32794 0.0
H1142 H 0.27024 0.8564 0.35551 0.0
H1143 H 0.25964 0.88073 0.3535 0.0
H1144 H 0.23546 0.78824 0.36331 0.0
H1145 H 0.18146 0.88405 0.31856 0.0
H1146 H 0.06968 0.8081 0.32796 0.0
H1147 H 0.08121 0.78438 0.32873 0.0
H1148 H 0.10275 0.87671 0.32175 0.0
H1149 H 0.1657 0.7578 0.36975 0.0
H1150 H 0.19991 0.76434 0.36765 0.0
H1151 H 0.07788 0.84266 0.32548 0.0
H1152 H 0.17264 0.90945 0.31527 0.0
N1153 N 0.12536 0.82543 0.32707 0.0
C1154 C 0.0853 0.81311 0.3276 0.0
C1155 C 0.09176 0.79968 0.32801 0.0
C1156 C 0.09907 0.83279 0.32635 0.0
C1157 C 0.11925 0.83855 0.32601 0.0
C1158 C 0.11193 0.8061 0.32755 0.0
N1159 N 0.15229 0.86237 0.32308 0.0
C1160 C 0.13317 0.85764 0.32394 0.0
C1161 C 0.1614 0.89495 0.31775 0.0
C1162 C 0.1419 0.89054 0.31918 0.0
C1163 C 0.16634 0.88054 0.31958 0.0
C1164 C 0.12743 0.87162 0.32213 0.0
H1165 H 0.13809 0.9017 0.31773 0.0
O1166 O 0.17163 0.84669 0.30823 0.0
O1167 O 0.18492 0.83667 0.33538 0.0
O1168 O 0.1897 0.86096 0.35287 0.0
O1169 O 0.1649 0.86092 0.34078 0.0
O1170 O 0.19176 0.85878 0.32303 0.0
O1171 O 0.14758 0.8175 0.31121 0.0
O1172 O 0.16849 0.82172 0.37413 0.0
O1173 O 0.15558 0.8301 0.34683 0.0
O1174 O 0.15133 0.80609 0.32907 0.0
O1175 O 0.17505 0.8053 0.34195 0.0
O1176 O 0.14863 0.80833 0.3594 0.0
O1177 O 0.1937 0.85006 0.37076 0.0
C1178 C 0.19904 0.85079 0.33002 0.0
C1179 C 0.10745 0.86615 0.32299 0.0
C1180 C 0.09329 0.84677 0.32512 0.0
C1181 C 0.15897 0.83024 0.30306 0.0
C1182 C 0.14946 0.83132 0.29149 0.0
C1183 C 0.13306 0.83392 0.29183 0.0
C1184 C 0.1568 0.82947 0.27994 0.0
C1185 C 0.14768 0.82995 0.26871 0.0
C1186 C 0.124 0.83452 0.28073 0.0
C1187 C 0.13118 0.83248 0.26924 0.0
C1188 C 0.17946 0.86912 0.34902 0.0
C1189 C 0.14139 0.81611 0.3522 0.0
C1190 C 0.18182 0.83807 0.37907 0.0
C1191 C 0.19085 0.83677 0.39079 0.0
C1192 C 0.20678 0.83343 0.39073 0.0
C1193 C 0.18338 0.8389 0.40222 0.0
C1194 C 0.19181 0.83782 0.4136 0.0
C1195 C 0.21518 0.83227 0.40196 0.0
C1196 C 0.2078 0.83447 0.41333 0.0
C1197 C 0.16099 0.79754 0.33331 0.0
H1198 H 0.12722 0.83537 0.30063 0.0
H1199 H 0.16937 0.82728 0.27971 0.0
H1200 H 0.11134 0.83652 0.28105 0.0
H1201 H 0.12396 0.83309 0.26075 0.0
H1202 H 0.21273 0.83176 0.38203 0.0
H1203 H 0.17119 0.84169 0.40222 0.0
H1204 H 0.22745 0.82965 0.40186 0.0
H1205 H 0.21446 0.83331 0.42191 0.0
Gd1206 Gd 0.84495 0.68171 0.68906 0.0
Gd1207 Gd 0.82533 0.65446 0.65914 0.0
C1208 C 0.7643 0.60072 0.65562 0.0
C1209 C 0.77222 0.57522 0.65223 0.0
C1210 C 0.79836 0.60869 0.65467 0.0
C1211 C 0.78457 0.61441 0.65638 0.0
C1212 C 0.79238 0.58909 0.65233 0.0
C1213 C 0.7582 0.58103 0.65384 0.0
C1214 C 0.7508 0.6073 0.65625 0.0
C1215 C 0.75766 0.62711 0.65726 0.0
N1216 N 0.79101 0.63355 0.65795 0.0
C1217 C 0.77792 0.64012 0.65794 0.0
H1218 H 0.78295 0.65537 0.65875 0.0
C1219 C 0.83172 0.61792 0.65149 0.0
N1220 N 0.81765 0.62251 0.65461 0.0
C1221 C 0.82656 0.59865 0.64924 0.0
C1222 C 0.80681 0.58412 0.64981 0.0
H1223 H 0.84702 0.62909 0.65112 0.0
H1224 H 0.74269 0.57027 0.65338 0.0
H1225 H 0.8875 0.681 0.68869 0.0
H1226 H 0.7351 0.59726 0.65566 0.0
H1227 H 0.74736 0.63239 0.65754 0.0
H1228 H 0.76732 0.56006 0.65056 0.0
H1229 H 0.82333 0.70692 0.69758 0.0
H1230 H 0.93525 0.73927 0.6911 0.0
H1231 H 0.92309 0.70415 0.68913 0.0
H1232 H 0.90293 0.77611 0.69771 0.0
H1233 H 0.8378 0.59501 0.64708 0.0
H1234 H 0.80282 0.56922 0.64799 0.0
H1235 H 0.92757 0.76608 0.69419 0.0
H1236 H 0.83254 0.74094 0.70184 0.0
N1237 N 0.87931 0.70269 0.69007 0.0
C1238 C 0.91955 0.72915 0.69093 0.0
C1239 C 0.91274 0.70934 0.68985 0.0
C1240 C 0.906 0.73559 0.69214 0.0
C1241 C 0.88573 0.7218 0.69177 0.0
C1242 C 0.89248 0.69622 0.68961 0.0
N1243 N 0.85268 0.71359 0.69389 0.0
C1244 C 0.87195 0.72744 0.69374 0.0
C1245 C 0.84377 0.73736 0.69953 0.0
C1246 C 0.86349 0.75192 0.69888 0.0
C1247 C 0.83862 0.71811 0.69716 0.0
C1248 C 0.87791 0.74703 0.69614 0.0
H1249 H 0.86746 0.76681 0.70076 0.0
O1250 O 0.83171 0.67786 0.7074 0.0
O1251 O 0.82 0.65736 0.67909 0.0
O1252 O 0.81758 0.6782 0.66193 0.0
O1253 O 0.84129 0.70115 0.67551 0.0
O1254 O 0.81268 0.67196 0.69192 0.0
O1255 O 0.85469 0.67081 0.70439 0.0
O1256 O 0.83886 0.65823 0.64092 0.0
O1257 O 0.85024 0.67895 0.66904 0.0
O1258 O 0.85284 0.65811 0.68607 0.0
O1259 O 0.82859 0.635 0.67288 0.0
O1260 O 0.85758 0.66425 0.6563 0.0
O1261 O 0.81548 0.66483 0.64356 0.0
C1262 C 0.80568 0.65771 0.68408 0.0
C1263 C 0.89804 0.76096 0.696 0.0
C1264 C 0.91207 0.75525 0.694 0.0
C1265 C 0.84311 0.67224 0.7125 0.0
C1266 C 0.85206 0.68111 0.72464 0.0
C1267 C 0.86797 0.70011 0.7253 0.0
C1268 C 0.84489 0.67035 0.73566 0.0
C1269 C 0.85378 0.67842 0.74731 0.0
C1270 C 0.87674 0.70824 0.7368 0.0
C1271 C 0.86978 0.69749 0.74772 0.0
C1272 C 0.82761 0.69598 0.66672 0.0
C1273 C 0.86457 0.6787 0.66398 0.0
C1274 C 0.82732 0.6635 0.63562 0.0
C1275 C 0.8187 0.65437 0.62348 0.0
C1276 C 0.80332 0.63512 0.62281 0.0
C1277 C 0.82584 0.66508 0.61245 0.0
C1278 C 0.81753 0.65666 0.60074 0.0
C1279 C 0.79509 0.62665 0.61128 0.0
C1280 C 0.80208 0.6373 0.60032 0.0
C1281 C 0.84258 0.64024 0.68146 0.0
H1282 H 0.87365 0.7086 0.71694 0.0
H1283 H 0.83268 0.6556 0.73513 0.0
H1284 H 0.88901 0.72291 0.73724 0.0
H1285 H 0.87678 0.7042 0.75653 0.0
H1286 H 0.79767 0.62667 0.63119 0.0
H1287 H 0.83762 0.68002 0.613 0.0
H1288 H 0.78324 0.61176 0.61082 0.0
H1289 H 0.79555 0.63028 0.59149 0.0
Gd1290 Gd 0.32092 0.16316 0.68686 0.0
Gd1291 Gd 0.35333 0.17277 0.65956 0.0
C1292 C 0.40779 0.16613 0.66026 0.0
C1293 C 0.43425 0.19945 0.65827 0.0
C1294 C 0.40017 0.19197 0.65881 0.0
C1295 C 0.39396 0.17253 0.66025 0.0
C1296 C 0.42036 0.20562 0.65759 0.0
C1297 C 0.42797 0.17973 0.65952 0.0
C1298 C 0.40087 0.14621 0.66058 0.0
C1299 C 0.38066 0.13324 0.66073 0.0
N1300 N 0.37434 0.15973 0.6607 0.0
C1301 C 0.36752 0.14026 0.66063 0.0
H1302 H 0.35195 0.13002 0.66063 0.0
C1303 C 0.39156 0.2159 0.65462 0.0
N1304 N 0.38634 0.19734 0.65771 0.0
C1305 C 0.41142 0.23003 0.65358 0.0
C1306 C 0.4259 0.22492 0.65521 0.0
H1307 H 0.38037 0.21986 0.65332 0.0
H1308 H 0.43882 0.1751 0.65961 0.0
H1309 H 0.321 0.20536 0.68456 0.0
H1310 H 0.411 0.1407 0.6605 0.0
H1311 H 0.37517 0.1178 0.66085 0.0
H1312 H 0.44984 0.20972 0.65742 0.0
H1313 H 0.29492 0.11815 0.69733 0.0
H1314 H 0.26149 0.19299 0.68139 0.0
H1315 H 0.29719 0.21661 0.68203 0.0
H1316 H 0.22401 0.1247 0.68857 0.0
H1317 H 0.41553 0.24483 0.65146 0.0
H1318 H 0.44127 0.23584 0.65425 0.0
H1319 H 0.23421 0.15851 0.68357 0.0
H1320 H 0.26006 0.0931 0.70033 0.0
N1321 N 0.29918 0.17545 0.68495 0.0
C1322 C 0.2719 0.18793 0.68249 0.0
C1323 C 0.29203 0.2013 0.68289 0.0
C1324 C 0.26544 0.16825 0.68401 0.0
C1325 C 0.27963 0.16243 0.68534 0.0
C1326 C 0.30552 0.19481 0.68434 0.0
N1327 N 0.28811 0.13893 0.69021 0.0
C1328 C 0.27389 0.14349 0.68805 0.0
C1329 C 0.26373 0.10718 0.69678 0.0
C1330 C 0.24882 0.11124 0.6938 0.0
C1331 C 0.28343 0.12138 0.6951 0.0
C1332 C 0.25382 0.12972 0.68963 0.0
H1333 H 0.23358 0.10025 0.69515 0.0
O1334 O 0.32349 0.1546 0.70568 0.0
O1335 O 0.34769 0.16417 0.67933 0.0
O1336 O 0.3286 0.14131 0.65987 0.0
O1337 O 0.30376 0.1384 0.6734 0.0
O1338 O 0.33128 0.14187 0.69128 0.0
O1339 O 0.3275 0.1831 0.70242 0.0
O1340 O 0.35313 0.18371 0.64109 0.0
O1341 O 0.3261 0.17104 0.66683 0.0
O1342 O 0.34491 0.19488 0.68532 0.0
O1343 O 0.37057 0.19494 0.67443 0.0
O1344 O 0.34303 0.19408 0.65538 0.0
O1345 O 0.34767 0.15438 0.64326 0.0
C1346 C 0.34703 0.14984 0.68466 0.0
C1347 C 0.23953 0.13512 0.68757 0.0
C1348 C 0.24534 0.15437 0.68473 0.0
C1349 C 0.32601 0.17059 0.71072 0.0
C1350 C 0.31381 0.16839 0.72163 0.0
C1351 C 0.29432 0.16432 0.72021 0.0
C1352 C 0.32174 0.17022 0.73364 0.0
C1353 C 0.3103 0.16795 0.74428 0.0
C1354 C 0.28285 0.16198 0.73069 0.0
C1355 C 0.29073 0.16375 0.74266 0.0
C1356 C 0.31042 0.13181 0.66435 0.0
C1357 C 0.32678 0.18538 0.66148 0.0
C1358 C 0.35021 0.16792 0.63547 0.0
C1359 C 0.36263 0.17053 0.6246 0.0
C1360 C 0.38235 0.1754 0.62604 0.0
C1361 C 0.35459 0.16825 0.61259 0.0
C1362 C 0.36617 0.17094 0.60195 0.0
C1363 C 0.39396 0.17811 0.61557 0.0
C1364 C 0.38598 0.17595 0.60359 0.0
C1365 C 0.36376 0.20302 0.68229 0.0
H1366 H 0.288 0.16298 0.71104 0.0
H1367 H 0.33692 0.17368 0.73467 0.0
H1368 H 0.26778 0.15874 0.72953 0.0
H1369 H 0.28143 0.16163 0.75064 0.0
H1370 H 0.38876 0.1771 0.63519 0.0
H1371 H 0.33922 0.16415 0.61156 0.0
H1372 H 0.40921 0.18196 0.61674 0.0
H1373 H 0.39539 0.17841 0.59563 0.0
Gd1374 Gd 0.82558 0.17163 0.65995 0.0
Gd1375 Gd 0.84499 0.16193 0.68884 0.0
C1376 C 0.90592 0.16765 0.69088 0.0
C1377 C 0.89783 0.13446 0.69457 0.0
C1378 C 0.87183 0.14244 0.69251 0.0
C1379 C 0.88566 0.16157 0.69047 0.0
C1380 C 0.87774 0.12873 0.69491 0.0
C1381 C 0.91191 0.1539 0.69258 0.0
C1382 C 0.91953 0.18744 0.6901 0.0
C1383 C 0.91283 0.20063 0.68922 0.0
N1384 N 0.87934 0.17448 0.68909 0.0
C1385 C 0.8926 0.19389 0.68891 0.0
H1386 H 0.88775 0.20433 0.68827 0.0
C1387 C 0.83867 0.1195 0.69682 0.0
N1388 N 0.85264 0.13755 0.69307 0.0
C1389 C 0.84377 0.10534 0.69922 0.0
C1390 C 0.86336 0.10989 0.69807 0.0
H1391 H 0.82349 0.1159 0.69765 0.0
H1392 H 0.92739 0.15826 0.69276 0.0
H1393 H 0.78244 0.12975 0.66015 0.0
H1394 H 0.93522 0.19274 0.69051 0.0
H1395 H 0.92324 0.216 0.68883 0.0
H1396 H 0.90267 0.1241 0.69626 0.0
H1397 H 0.84853 0.21859 0.65284 0.0
H1398 H 0.73589 0.14257 0.65669 0.0
H1399 H 0.74707 0.11873 0.65887 0.0
H1400 H 0.76981 0.21149 0.65246 0.0
H1401 H 0.8326 0.09093 0.70192 0.0
H1402 H 0.8673 0.09893 0.69999 0.0
H1403 H 0.74445 0.17728 0.65495 0.0
H1404 H 0.84024 0.24427 0.64919 0.0
N1405 N 0.79141 0.15972 0.6593 0.0
C1406 C 0.75147 0.14755 0.65753 0.0
C1407 C 0.75773 0.13405 0.65865 0.0
C1408 C 0.76541 0.16728 0.65708 0.0
C1409 C 0.78554 0.17297 0.65786 0.0
C1410 C 0.77787 0.1404 0.65938 0.0
N1411 N 0.81892 0.19682 0.65624 0.0
C1412 C 0.79976 0.19216 0.65633 0.0
C1413 C 0.82872 0.22969 0.65123 0.0
C1414 C 0.80912 0.2253 0.65182 0.0
C1415 C 0.83336 0.21513 0.65328 0.0
C1416 C 0.79431 0.20628 0.65417 0.0
H1417 H 0.80555 0.23657 0.65013 0.0
O1418 O 0.83923 0.18136 0.64183 0.0
O1419 O 0.85026 0.17 0.6689 0.0
O1420 O 0.85337 0.19357 0.68694 0.0
O1421 O 0.8295 0.1941 0.6742 0.0
O1422 O 0.85799 0.19302 0.65723 0.0
O1423 O 0.8139 0.15262 0.64376 0.0
O1424 O 0.83225 0.1524 0.70723 0.0
O1425 O 0.82009 0.16298 0.67979 0.0
O1426 O 0.81703 0.13994 0.66157 0.0
O1427 O 0.83971 0.13835 0.67502 0.0
O1428 O 0.81267 0.14038 0.69174 0.0
O1429 O 0.85582 0.18188 0.7046 0.0
C1430 C 0.86476 0.18447 0.66412 0.0
C1431 C 0.77429 0.20084 0.65402 0.0
C1432 C 0.75986 0.18136 0.65543 0.0
C1433 C 0.82637 0.16555 0.63609 0.0
C1434 C 0.81822 0.16812 0.62436 0.0
C1435 C 0.80306 0.17258 0.62442 0.0
C1436 C 0.82594 0.16634 0.61294 0.0
C1437 C 0.81863 0.16907 0.60156 0.0
C1438 C 0.79573 0.17532 0.6132 0.0
C1439 C 0.80345 0.17361 0.60183 0.0
C1440 C 0.84344 0.20192 0.68286 0.0
C1441 C 0.80567 0.14851 0.68465 0.0
C1442 C 0.84439 0.16888 0.71259 0.0
C1443 C 0.85379 0.16789 0.72423 0.0
C1444 C 0.87016 0.16524 0.72398 0.0
C1445 C 0.84649 0.16994 0.73575 0.0
C1446 C 0.85562 0.16959 0.74701 0.0
C1447 C 0.8792 0.16473 0.7351 0.0
C1448 C 0.87205 0.16694 0.74655 0.0
C1449 C 0.82617 0.13102 0.66605 0.0
H1450 H 0.79688 0.17392 0.6331 0.0
H1451 H 0.83781 0.16308 0.61293 0.0
H1452 H 0.784 0.17872 0.6133 0.0
H1453 H 0.79733 0.17556 0.59325 0.0
H1454 H 0.87602 0.16368 0.71522 0.0
H1455 H 0.83395 0.17219 0.73592 0.0
H1456 H 0.89183 0.16267 0.73485 0.0
H1457 H 0.87925 0.1664 0.75506 0.0
H1458 H 0.29982 0.87651 0.05986 0.0
H1459 H 0.32917 0.90041 0.04888 0.0
H1460 H 0.35561 0.86472 0.05352 0.0
H1461 H 0.32661 0.84098 0.06489 0.0
H1462 H 0.36961 0.91826 0.06036 0.0
H1463 H 0.36155 0.88023 0.01505 0.0
H1464 H 0.34075 0.87473 0.0249 0.0
H1465 H 0.35752 0.86659 0.02914 0.0
C1466 C 0.31189 0.87374 0.05863 0.0
C1467 C 0.31084 0.85682 0.06334 0.0
C1468 C 0.32856 0.88734 0.05223 0.0
C1469 C 0.34441 0.88419 0.05028 0.0
C1470 C 0.34336 0.86723 0.05476 0.0
H1471 H 0.46158 0.9535 0.01983 0.0
H1472 H 0.42972 0.92687 0.0266 0.0
C1473 C 0.32674 0.85367 0.06124 0.0
C1474 C 0.36263 0.89935 0.04441 0.0
H1475 H 0.39088 0.91015 0.01824 0.0
C1476 C 0.37424 0.91656 0.05113 0.0
C1477 C 0.36866 0.8969 0.03244 0.0
C1478 C 0.35648 0.87868 0.02487 0.0
C1479 C 0.39191 0.93138 0.04627 0.0
C1480 C 0.39781 0.92917 0.03417 0.0
C1481 C 0.38623 0.91187 0.02746 0.0
C1482 C 0.41614 0.94462 0.02851 0.0
C1483 C 0.40436 0.94905 0.0543 0.0
C1484 C 0.41881 0.96323 0.02689 0.0
C1485 C 0.43699 0.97843 0.0231 0.0
C1486 C 0.45259 0.97514 0.0205 0.0
C1487 C 0.44966 0.95633 0.02153 0.0
C1488 C 0.4315 0.94114 0.02545 0.0
H1489 H 0.40066 0.94612 0.06435 0.0
H1490 H 0.42028 0.95417 0.05316 0.0
H1491 H 0.40164 0.96088 0.0515 0.0
H1492 H 0.40702 0.96614 0.02894 0.0
H1493 H 0.43899 0.99285 0.02241 0.0
H1494 H 0.16649 0.49072 0.07032 0.0
H1495 H 0.14149 0.49622 0.0605 0.0
H1496 H 0.10598 0.43517 0.05243 0.0
H1497 H 0.13098 0.42954 0.06202 0.0
H1498 H 0.12642 0.4876 0.03585 0.0
H1499 H 0.06757 0.44797 0.07048 0.0
H1500 H 0.09305 0.45537 0.0735 0.0
H1501 H 0.07799 0.43422 0.0641 0.0
C1502 C 0.15345 0.47846 0.06637 0.0
C1503 C 0.15076 0.45965 0.06704 0.0
C1504 C 0.13911 0.48163 0.06083 0.0
C1505 C 0.12171 0.46607 0.05592 0.0
C1506 C 0.11907 0.44734 0.05641 0.0
H1507 H 0.01388 0.45016 0.02238 0.0
H1508 H 0.04111 0.44675 0.03069 0.0
C1509 C 0.1334 0.44415 0.06192 0.0
C1510 C 0.10651 0.46945 0.05001 0.0
H1511 H 0.05829 0.45748 0.05195 0.0
C1512 C 0.11152 0.4811 0.03938 0.0
C1513 C 0.08712 0.46101 0.05465 0.0
C1514 C 0.08109 0.44908 0.06638 0.0
C1515 C 0.09752 0.48401 0.03299 0.0
C1516 C 0.07795 0.47532 0.0375 0.0
C1517 C 0.07312 0.46398 0.04832 0.0
C1518 C 0.06211 0.47753 0.03122 0.0
C1519 C 0.10383 0.49582 0.02125 0.0
C1520 C 0.06472 0.49592 0.02852 0.0
C1521 C 0.04927 0.4978 0.02344 0.0
C1522 C 0.03075 0.48136 0.02117 0.0
C1523 C 0.02809 0.46303 0.02389 0.0
C1524 C 0.04364 0.46111 0.0287 0.0
H1525 H 0.11667 0.49582 0.01689 0.0
H1526 H 0.09166 0.49015 0.01436 0.0
H1527 H 0.10822 0.51105 0.02353 0.0
H1528 H 0.07848 0.5089 0.03074 0.0
H1529 H 0.05159 0.51216 0.0218 0.0
H1530 H 0.5434 0.70616 0.04909 0.0
H1531 H 0.53481 0.67532 0.03893 0.0
H1532 H 0.56577 0.66361 0.06777 0.0
H1533 H 0.57395 0.69412 0.07826 0.0
H1534 H 0.5727 0.65943 0.03852 0.0
H1535 H 0.4961 0.61934 0.05676 0.0
H1536 H 0.50552 0.64359 0.05105 0.0
H1537 H 0.5156 0.63978 0.06507 0.0
C1538 C 0.54825 0.69697 0.05335 0.0
C1539 C 0.55929 0.70258 0.06453 0.0
C1540 C 0.54343 0.67944 0.04748 0.0
C1541 C 0.54964 0.66729 0.05266 0.0
C1542 C 0.56092 0.6729 0.06366 0.0
H1543 H 0.5431 0.55965 0.03099 0.0
H1544 H 0.55236 0.59152 0.03955 0.0
C1545 C 0.56566 0.69038 0.06959 0.0
C1546 C 0.5441 0.64854 0.04667 0.0
H1547 H 0.50607 0.60221 0.04355 0.0
C1548 C 0.55816 0.64688 0.03957 0.0
C1549 C 0.52507 0.63239 0.04804 0.0
C1550 C 0.50961 0.63366 0.05567 0.0
C1551 C 0.55361 0.62932 0.03372 0.0
C1552 C 0.53467 0.61295 0.03533 0.0
C1553 C 0.52058 0.61475 0.04235 0.0
C1554 C 0.52922 0.59373 0.02997 0.0
C1555 C 0.569 0.62858 0.02569 0.0
C1556 C 0.51273 0.58409 0.02208 0.0
C1557 C 0.50716 0.56569 0.01734 0.0
C1558 C 0.51806 0.55662 0.02035 0.0
C1559 C 0.53448 0.56626 0.02836 0.0
C1560 C 0.53992 0.58458 0.03318 0.0
H1561 H 0.58006 0.6432 0.02237 0.0
H1562 H 0.57692 0.62289 0.03127 0.0
H1563 H 0.56221 0.61893 0.01744 0.0
H1564 H 0.50412 0.5908 0.0196 0.0
H1565 H 0.4942 0.55855 0.01142 0.0
H1566 H 0.86896 0.29057 0.95591 0.0
H1567 H 0.89317 0.32161 0.96531 0.0
H1568 H 0.86128 0.3482 0.95054 0.0
H1569 H 0.83721 0.31733 0.9409 0.0
H1570 H 0.90303 0.36937 0.94655 0.0
H1571 H 0.8837 0.34795 0.99605 0.0
H1572 H 0.88855 0.33198 0.98673 0.0
H1573 H 0.86755 0.3345 0.98318 0.0
C1574 C 0.86716 0.30305 0.95461 0.0
C1575 C 0.85113 0.30148 0.94769 0.0
C1576 C 0.88089 0.32071 0.96008 0.0
C1577 C 0.87885 0.3371 0.95873 0.0
C1578 C 0.86302 0.33566 0.95174 0.0
H1579 H 0.93686 0.44683 0.99821 0.0
H1580 H 0.91348 0.41547 0.98899 0.0
C1581 C 0.84922 0.318 0.94632 0.0
C1582 C 0.8934 0.35587 0.96445 0.0
H1583 H 0.91161 0.37873 0.99247 0.0
C1584 C 0.90494 0.37145 0.95658 0.0
C1585 C 0.89567 0.35851 0.97754 0.0
C1586 C 0.88313 0.34243 0.98641 0.0
C1587 C 0.91887 0.38962 0.96147 0.0
C1588 C 0.9214 0.39217 0.97456 0.0
C1589 C 0.90972 0.37664 0.98243 0.0
C1590 C 0.93575 0.41101 0.98027 0.0
C1591 C 0.93055 0.40606 0.95263 0.0
C1592 C 0.95603 0.41876 0.97853 0.0
C1593 C 0.9695 0.43663 0.9839 0.0
C1594 C 0.96288 0.44701 0.99114 0.0
C1595 C 0.94251 0.43912 0.99287 0.0
C1596 C 0.9291 0.42123 0.98756 0.0
H1597 H 0.924 0.40287 0.94309 0.0
H1598 H 0.93147 0.41964 0.95612 0.0
H1599 H 0.94576 0.40855 0.95198 0.0
H1600 H 0.96145 0.41095 0.97306 0.0
H1601 H 0.98506 0.44224 0.98237 0.0
H1602 H 0.70296 0.5711 0.95372 0.0
H1603 H 0.67274 0.56546 0.96391 0.0
H1604 H 0.64823 0.50387 0.95955 0.0
H1605 H 0.67816 0.50931 0.94896 0.0
H1606 H 0.63312 0.54343 0.95244 0.0
H1607 H 0.63991 0.5128 0.99748 0.0
H1608 H 0.66093 0.52755 0.98779 0.0
H1609 H 0.64402 0.50294 0.98338 0.0
C1610 C 0.69114 0.55633 0.95482 0.0
C1611 C 0.69308 0.54068 0.95041 0.0
C1612 C 0.67392 0.55314 0.96076 0.0
C1613 C 0.65833 0.53425 0.96261 0.0
C1614 C 0.66022 0.51856 0.95841 0.0
H1615 H 0.54057 0.48995 0.99374 0.0
H1616 H 0.57163 0.49335 0.98612 0.0
C1617 C 0.6774 0.52173 0.95237 0.0
C1618 C 0.63967 0.53109 0.96825 0.0
H1619 H 0.6107 0.51391 0.99413 0.0
C1620 C 0.62823 0.53701 0.96156 0.0
C1621 C 0.63322 0.52251 0.98009 0.0
C1622 C 0.64515 0.51615 0.9877 0.0
C1623 C 0.61046 0.53452 0.96635 0.0
C1624 C 0.60422 0.52642 0.97835 0.0
C1625 C 0.61554 0.52024 0.98498 0.0
C1626 C 0.58608 0.52447 0.98411 0.0
C1627 C 0.59835 0.54025 0.95835 0.0
C1628 C 0.58409 0.54086 0.98592 0.0
C1629 C 0.56639 0.53893 0.99022 0.0
C1630 C 0.55052 0.52064 0.99315 0.0
C1631 C 0.55271 0.50427 0.99179 0.0
C1632 C 0.57041 0.50619 0.98738 0.0
H1633 H 0.602 0.54069 0.9483 0.0
H1634 H 0.58235 0.53006 0.9595 0.0
H1635 H 0.6015 0.55495 0.96116 0.0
H1636 H 0.5961 0.55515 0.98373 0.0
H1637 H 0.56501 0.55173 0.99113 0.0
H1638 H 0.44172 0.12806 0.93418 0.0
H1639 H 0.45073 0.10664 0.94505 0.0
H1640 H 0.46473 0.14212 0.97826 0.0
H1641 H 0.45553 0.16351 0.96751 0.0
H1642 H 0.48921 0.11884 0.95721 0.0
H1643 H 0.42516 0.08485 0.98928 0.0
H1644 H 0.4248 0.0967 0.97506 0.0
H1645 H 0.43822 0.11086 0.98844 0.0
C1646 C 0.44652 0.13118 0.94383 0.0
C1647 C 0.44788 0.14741 0.95001 0.0
C1648 C 0.45177 0.11903 0.94999 0.0
C1649 C 0.45824 0.12278 0.96245 0.0
C1650 C 0.4596 0.13894 0.96866 0.0
H1651 H 0.51434 0.0685 0.00333 0.0
H1652 H 0.50632 0.09215 0.99481 0.0
C1653 C 0.45448 0.15118 0.96249 0.0
C1654 C 0.46385 0.10991 0.96885 0.0
H1655 H 0.44941 0.07581 0.9916 0.0
C1656 C 0.48061 0.10949 0.96477 0.0
C1657 C 0.45246 0.09771 0.97865 0.0
C1658 C 0.43406 0.09735 0.98312 0.0
C1659 C 0.48626 0.09706 0.97023 0.0
C1660 C 0.47488 0.08488 0.98004 0.0
C1661 C 0.45816 0.08533 0.98414 0.0
C1662 C 0.47948 0.07073 0.98564 0.0
C1663 C 0.50404 0.09665 0.96529 0.0
C1664 C 0.46684 0.05091 0.98346 0.0
C1665 C 0.47133 0.03737 0.98831 0.0
C1666 C 0.48847 0.04343 0.99554 0.0
C1667 C 0.50096 0.06334 0.99788 0.0
C1668 C 0.49648 0.07688 0.99296 0.0
H1669 H 0.50936 0.10469 0.9564 0.0
H1670 H 0.51616 0.10337 0.97228 0.0
H1671 H 0.50059 0.08149 0.96371 0.0
H1672 H 0.45364 0.04593 0.97783 0.0
H1673 H 0.46136 0.02218 0.98635 0.0
H1674 H 0.67329 0.15482 0.943 0.0
H1675 H 0.64332 0.13198 0.95395 0.0
H1676 H 0.67571 0.10986 0.9738 0.0
H1677 H 0.7057 0.13246 0.9628 0.0
H1678 H 0.62558 0.09178 0.9532 0.0
H1679 H 0.64582 0.11953 1.00183 0.0
H1680 H 0.65897 0.13367 0.98843 0.0
H1681 H 0.66358 0.11517 0.99414 0.0
C1682 C 0.67405 0.14508 0.94968 0.0
C1683 C 0.69192 0.14548 0.95201 0.0
C1684 C 0.65694 0.13214 0.95599 0.0
C1685 C 0.65736 0.11944 0.96483 0.0
C1686 C 0.67516 0.11985 0.96724 0.0
H1687 H 0.56367 0.0112 0.9919 0.0
H1688 H 0.59506 0.03842 0.98491 0.0
C1689 C 0.69228 0.13277 0.96093 0.0
C1690 C 0.63891 0.10487 0.97088 0.0
H1691 H 0.6169 0.08858 0.99918 0.0
C1692 C 0.62365 0.09118 0.96324 0.0
C1693 C 0.63638 0.10418 0.98399 0.0
C1694 C 0.65197 0.11902 0.99259 0.0
C1695 C 0.60613 0.07651 0.96837 0.0
C1696 C 0.60385 0.07549 0.98147 0.0
C1697 C 0.61885 0.08939 0.98914 0.0
C1698 C 0.58596 0.05975 0.98721 0.0
C1699 C 0.59013 0.06207 0.95979 0.0
C1700 C 0.57069 0.06291 0.991 0.0
C1701 C 0.55276 0.0474 0.99491 0.0
C1702 C 0.55003 0.0286 0.9953 0.0
C1703 C 0.56555 0.02561 0.99183 0.0
C1704 C 0.58343 0.04109 0.98787 0.0
H1705 H 0.59315 0.06627 0.94983 0.0
H1706 H 0.58887 0.04767 0.9609 0.0
H1707 H 0.57572 0.06059 0.96232 0.0
H1708 H 0.57238 0.07722 0.99044 0.0
H1709 H 0.54087 0.05002 0.9972 0.0
H1710 H 0.84631 0.51512 0.93844 0.0
H1711 H 0.87165 0.51006 0.9481 0.0
H1712 H 0.89022 0.56085 0.97115 0.0
H1713 H 0.86536 0.56646 0.96129 0.0
H1714 H 0.91392 0.53813 0.94847 0.0
H1715 H 0.88192 0.51657 0.99588 0.0
H1716 H 0.86733 0.51512 0.98238 0.0
H1717 H 0.88329 0.53812 0.98967 0.0
C1718 C 0.85585 0.52535 0.94549 0.0
C1719 C 0.85374 0.54127 0.94902 0.0
C1720 C 0.87024 0.52232 0.95107 0.0
C1721 C 0.88268 0.53496 0.96042 0.0
C1722 C 0.88055 0.55073 0.96409 0.0
H1723 H 0.99493 0.55246 0.98751 0.0
H1724 H 0.96749 0.55604 0.97965 0.0
C1725 C 0.86626 0.55387 0.95845 0.0
C1726 C 0.89848 0.53214 0.96591 0.0
H1727 H 0.91393 0.52123 0.99297 0.0
C1728 C 0.91392 0.53444 0.9582 0.0
C1729 C 0.89835 0.52714 0.97857 0.0
C1730 C 0.88179 0.52393 0.98714 0.0
C1731 C 0.92944 0.53222 0.96287 0.0
C1732 C 0.92955 0.52765 0.97559 0.0
C1733 C 0.9139 0.52495 0.98326 0.0
C1734 C 0.94584 0.52562 0.98103 0.0
C1735 C 0.94556 0.53462 0.95414 0.0
C1736 C 0.94268 0.50737 0.98456 0.0
C1737 C 0.95834 0.50531 0.98901 0.0
C1738 C 0.97731 0.52153 0.99027 0.0
C1739 C 0.98039 0.53978 0.98679 0.0
C1740 C 0.96477 0.54183 0.98229 0.0
H1741 H 0.94141 0.53442 0.94419 0.0
H1742 H 0.95904 0.54869 0.95613 0.0
H1743 H 0.94918 0.52298 0.9556 0.0
H1744 H 0.92821 0.49467 0.9836 0.0
H1745 H 0.95564 0.49099 0.99125 0.0
H1746 H 0.47432 0.31668 0.94033 0.0
H1747 H 0.48316 0.34735 0.95078 0.0
H1748 H 0.42639 0.32073 0.96851 0.0
H1749 H 0.41737 0.28998 0.95804 0.0
H1750 H 0.46425 0.36889 0.94892 0.0
H1751 H 0.46506 0.34649 0.9978 0.0
H1752 H 0.46526 0.33256 0.98449 0.0
H1753 H 0.44267 0.33117 0.98933 0.0
C1754 C 0.46367 0.31737 0.9464 0.0
C1755 C 0.44514 0.30091 0.94836 0.0
C1756 C 0.46879 0.33486 0.95241 0.0
C1757 C 0.45553 0.33621 0.96054 0.0
C1758 C 0.43699 0.31986 0.96248 0.0
H1759 H 0.45964 0.44186 0.98522 0.0
H1760 H 0.45062 0.41033 0.97609 0.0
C1761 C 0.43186 0.30233 0.95649 0.0
C1762 C 0.46092 0.35495 0.96661 0.0
H1763 H 0.46805 0.37737 0.99498 0.0
C1764 C 0.46512 0.37077 0.95899 0.0
C1765 C 0.46225 0.35736 0.97974 0.0
C1766 C 0.45875 0.34106 0.98834 0.0
C1767 C 0.47039 0.38894 0.96415 0.0
C1768 C 0.47116 0.39121 0.97728 0.0
C1769 C 0.46724 0.37547 0.98491 0.0
C1770 C 0.47624 0.40992 0.98324 0.0
C1771 C 0.47537 0.40562 0.95551 0.0
C1772 C 0.49336 0.41985 0.99056 0.0
C1773 C 0.49857 0.43787 0.99582 0.0
C1774 C 0.48662 0.44617 0.99394 0.0
C1775 C 0.46925 0.43596 0.9868 0.0
C1776 C 0.46408 0.41796 0.98154 0.0
H1777 H 0.47874 0.40271 0.94594 0.0
H1778 H 0.46261 0.40799 0.95487 0.0
H1779 H 0.4882 0.41917 0.95912 0.0
H1780 H 0.50291 0.41383 0.99199 0.0
H1781 H 0.51214 0.44542 1.00116 0.0
H1782 H 0.16665 0.68249 0.07516 0.0
H1783 H 0.14318 0.65203 0.06487 0.0
H1784 H 0.11542 0.6805 0.04688 0.0
H1785 H 0.13871 0.71101 0.05723 0.0
H1786 H 0.10186 0.63175 0.06646 0.0
H1787 H 0.12696 0.65365 0.01778 0.0
H1788 H 0.1415 0.66704 0.03121 0.0
H1789 H 0.12111 0.6697 0.02617 0.0
C1790 C 0.15548 0.68227 0.06908 0.0
C1791 C 0.15458 0.69921 0.06701 0.0
C1792 C 0.14215 0.66487 0.06316 0.0
C1793 C 0.12774 0.66409 0.055 0.0
C1794 C 0.12669 0.6809 0.05295 0.0
H1795 H 0.02245 0.56046 0.02885 0.0
H1796 H 0.04591 0.59144 0.03854 0.0
C1797 C 0.14002 0.69832 0.05887 0.0
C1798 C 0.11355 0.64554 0.04886 0.0
H1799 H 0.09783 0.62335 0.02039 0.0
C1800 C 0.10097 0.62989 0.05639 0.0
C1801 C 0.11261 0.64312 0.03573 0.0
C1802 C 0.12637 0.65919 0.02722 0.0
C1803 C 0.08728 0.61192 0.05113 0.0
C1804 C 0.086 0.60965 0.03799 0.0
C1805 C 0.09874 0.62522 0.03046 0.0
C1806 C 0.07175 0.5911 0.03189 0.0
C1807 C 0.07455 0.59541 0.05968 0.0
C1808 C 0.07852 0.58086 0.02471 0.0
C1809 C 0.06517 0.56316 0.01914 0.0
C1810 C 0.04476 0.55546 0.02053 0.0
C1811 C 0.03804 0.56591 0.02761 0.0
C1812 C 0.05142 0.58359 0.0332 0.0
H1813 H 0.08052 0.59812 0.06936 0.0
H1814 H 0.05958 0.59362 0.05998 0.0
H1815 H 0.07315 0.58163 0.0562 0.0
H1816 H 0.09416 0.58643 0.02359 0.0
H1817 H 0.07089 0.55542 0.01389 0.0
H1818 H 0.32505 0.45447 0.08135 0.0
H1819 H 0.35514 0.46062 0.07074 0.0
H1820 H 0.33576 0.47623 0.03735 0.0
H1821 H 0.30568 0.47039 0.04793 0.0
H1822 H 0.34988 0.45066 0.03292 0.0
H1823 H 0.40265 0.51328 0.06189 0.0
H1824 H 0.38645 0.49234 0.07081 0.0
H1825 H 0.3765 0.5045 0.06186 0.0
C1826 C 0.32726 0.45949 0.07181 0.0
C1827 C 0.3129 0.46202 0.06555 0.0
C1828 C 0.34451 0.46298 0.06575 0.0
C1829 C 0.34787 0.46917 0.0533 0.0
C1830 C 0.33352 0.47153 0.04696 0.0
H1831 H 0.46383 0.51258 0.01922 0.0
H1832 H 0.4325 0.50931 0.02602 0.0
C1833 C 0.31627 0.46807 0.05303 0.0
C1834 C 0.36611 0.47265 0.04682 0.0
H1835 H 0.41632 0.49903 0.0486 0.0
C1836 C 0.36441 0.46135 0.03628 0.0
C1837 C 0.38507 0.48678 0.05109 0.0
C1838 C 0.38785 0.50007 0.06196 0.0
C1839 C 0.38115 0.46333 0.03014 0.0
C1840 C 0.40015 0.47684 0.03476 0.0
C1841 C 0.40181 0.48859 0.04506 0.0
C1842 C 0.41849 0.47852 0.02944 0.0
C1843 C 0.37821 0.45088 0.01877 0.0
C1844 C 0.42111 0.46234 0.02902 0.0
C1845 C 0.43889 0.46416 0.02496 0.0
C1846 C 0.45445 0.48217 0.02123 0.0
C1847 C 0.4519 0.4984 0.02167 0.0
C1848 C 0.43405 0.49657 0.02567 0.0
H1849 H 0.36403 0.44673 0.01398 0.0
H1850 H 0.39033 0.45838 0.01201 0.0
H1851 H 0.37779 0.43736 0.0217 0.0
H1852 H 0.40963 0.44839 0.03222 0.0
H1853 H 0.44063 0.45151 0.02497 0.0
H1854 H 0.52377 0.84086 0.07496 0.0
H1855 H 0.51346 0.86162 0.06457 0.0
H1856 H 0.56951 0.89172 0.04602 0.0
H1857 H 0.57992 0.87104 0.05636 0.0
H1858 H 0.53045 0.90121 0.06608 0.0
H1859 H 0.53042 0.87784 0.01719 0.0
H1860 H 0.53128 0.86441 0.03044 0.0
H1861 H 0.55327 0.88555 0.02528 0.0
C1862 C 0.53392 0.85195 0.0687 0.0
C1863 C 0.55264 0.8543 0.06645 0.0
C1864 C 0.52797 0.86371 0.06273 0.0
C1865 C 0.54059 0.87796 0.05437 0.0
C1866 C 0.55935 0.88047 0.05219 0.0
H1867 H 0.53975 0.98033 0.031 0.0
H1868 H 0.54637 0.95625 0.04016 0.0
C1869 C 0.5653 0.86868 0.05813 0.0
C1870 C 0.53448 0.89078 0.04835 0.0
H1871 H 0.52836 0.90652 0.02003 0.0
C1872 C 0.52985 0.90227 0.05601 0.0
C1873 C 0.53343 0.89192 0.03522 0.0
C1874 C 0.53717 0.87914 0.02654 0.0
C1875 C 0.52478 0.91533 0.05088 0.0
C1876 C 0.52468 0.91715 0.03776 0.0
C1877 C 0.52868 0.90523 0.03009 0.0
C1878 C 0.52085 0.93165 0.03186 0.0
C1879 C 0.5195 0.92701 0.05956 0.0
C1880 C 0.50462 0.9258 0.02385 0.0
C1881 C 0.50081 0.93955 0.01853 0.0
C1882 C 0.51328 0.9594 0.02106 0.0
C1883 C 0.52976 0.96518 0.0289 0.0
C1884 C 0.53354 0.95143 0.0342 0.0
H1885 H 0.51503 0.92022 0.06888 0.0
H1886 H 0.53253 0.94165 0.06088 0.0
H1887 H 0.50734 0.92869 0.0556 0.0
H1888 H 0.49472 0.91057 0.02189 0.0
H1889 H 0.48791 0.93458 0.01262 0.0
H1890 H 0.99928 0.20129 0.41444 0.0
H1891 H 0.02812 0.22514 0.40295 0.0
H1892 H 0.99573 0.20418 0.36828 0.0
H1893 H 0.96725 0.17954 0.37977 0.0
H1894 H 0.03155 0.21189 0.36479 0.0
H1895 H 0.03545 0.27448 0.38981 0.0
H1896 H 0.03767 0.25855 0.40054 0.0
H1897 H 0.01516 0.25023 0.39174 0.0
C1898 C 0.99842 0.2018 0.40436 0.0
C1899 C 0.98111 0.18876 0.39796 0.0
C1900 C 0.01481 0.21552 0.39781 0.0
C1901 C 0.01395 0.2169 0.38476 0.0
C1902 C 0.99674 0.20353 0.37834 0.0
H1903 H 0.10462 0.3234 0.35127 0.0
H1904 H 0.07268 0.29627 0.35733 0.0
C1905 C 0.98049 0.18949 0.38488 0.0
C1906 C 0.03099 0.23227 0.37786 0.0
H1907 H 0.06391 0.28074 0.37813 0.0
C1908 C 0.03851 0.22699 0.36761 0.0
C1909 C 0.03982 0.25207 0.3813 0.0
C1910 C 0.03145 0.25918 0.39135 0.0
C1911 C 0.0549 0.24085 0.36096 0.0
C1912 C 0.06458 0.26046 0.36498 0.0
C1913 C 0.05672 0.26574 0.37504 0.0
C1914 C 0.08307 0.27581 0.35921 0.0
C1915 C 0.06132 0.23428 0.34957 0.0
C1916 C 0.09952 0.27333 0.35784 0.0
C1917 C 0.11759 0.28868 0.35395 0.0
C1918 C 0.11966 0.30691 0.35165 0.0
C1919 C 0.10326 0.30938 0.35286 0.0
C1920 C 0.08506 0.29389 0.35637 0.0
H1921 H 0.04873 0.22132 0.34517 0.0
H1922 H 0.0679 0.24587 0.34251 0.0
H1923 H 0.0724 0.23022 0.35235 0.0
H1924 H 0.09872 0.25985 0.36037 0.0
H1925 H 0.13017 0.28657 0.35345 0.0
H1926 H 0.83367 0.8015 0.38172 0.0
H1927 H 0.80905 0.80741 0.3717 0.0
H1928 H 0.77493 0.79091 0.40547 0.0
H1929 H 0.7996 0.78527 0.41562 0.0
H1930 H 0.76815 0.78033 0.36815 0.0
H1931 H 0.78031 0.84382 0.39665 0.0
H1932 H 0.79796 0.83558 0.39602 0.0
H1933 H 0.77639 0.82316 0.40552 0.0
C1934 C 0.82105 0.79935 0.38707 0.0
C1935 C 0.81865 0.79295 0.39949 0.0
C1936 C 0.80694 0.80263 0.3813 0.0
C1937 C 0.79027 0.79982 0.38788 0.0
C1938 C 0.78781 0.79344 0.40027 0.0
H1939 H 0.67896 0.78255 0.35911 0.0
H1940 H 0.70615 0.77892 0.36718 0.0
C1941 C 0.80184 0.79004 0.40602 0.0
C1942 C 0.77512 0.80296 0.38168 0.0
H1943 H 0.75207 0.82961 0.38343 0.0
C1944 C 0.7647 0.7912 0.37142 0.0
C1945 C 0.77078 0.81725 0.38589 0.0
C1946 C 0.78204 0.83082 0.39655 0.0
C1947 C 0.74973 0.793 0.36543 0.0
C1948 C 0.74488 0.80687 0.36989 0.0
C1949 C 0.75567 0.81895 0.37999 0.0
C1950 C 0.72846 0.80889 0.36447 0.0
C1951 C 0.73939 0.78 0.35436 0.0
C1952 C 0.73169 0.82706 0.36059 0.0
C1953 C 0.71606 0.82921 0.35618 0.0
C1954 C 0.69693 0.81316 0.35537 0.0
C1955 C 0.69366 0.79506 0.35935 0.0
C1956 C 0.70923 0.79295 0.36387 0.0
H1957 H 0.74906 0.77559 0.34952 0.0
H1958 H 0.72622 0.76666 0.35764 0.0
H1959 H 0.73454 0.78716 0.34754 0.0
H1960 H 0.74632 0.83966 0.36108 0.0
H1961 H 0.71891 0.84346 0.35358 0.0
H1962 H 0.24955 0.04276 0.39151 0.0
H1963 H 0.24123 0.01204 0.38127 0.0
H1964 H 0.1825 0.98601 0.39614 0.0
H1965 H 0.19083 0.01654 0.40667 0.0
H1966 H 0.20118 0.96387 0.39943 0.0
H1967 H 0.20531 0.98761 0.35036 0.0
H1968 H 0.22669 0.00277 0.35975 0.0
H1969 H 0.20354 0.00104 0.36345 0.0
C1970 C 0.23489 0.03047 0.39264 0.0
C1971 C 0.22083 0.03207 0.39988 0.0
C1972 C 0.23011 0.01301 0.38668 0.0
C1973 C 0.21118 0.99688 0.38782 0.0
C1974 C 0.19714 0.99837 0.39508 0.0
H1975 H 0.15915 0.88853 0.34626 0.0
H1976 H 0.16694 0.91964 0.35554 0.0
C1977 C 0.20189 0.01583 0.40102 0.0
C1978 C 0.20621 0.97826 0.38177 0.0
H1979 H 0.20213 0.95669 0.35342 0.0
C1980 C 0.20132 0.96225 0.38937 0.0
C1981 C 0.20622 0.97622 0.36864 0.0
C1982 C 0.21055 0.99275 0.36004 0.0
C1983 C 0.19678 0.94428 0.3842 0.0
C1984 C 0.19738 0.9424 0.3711 0.0
C1985 C 0.20189 0.95829 0.36347 0.0
C1986 C 0.19316 0.92394 0.36514 0.0
C1987 C 0.19114 0.92739 0.39277 0.0
C1988 C 0.20555 0.91628 0.3673 0.0
C1989 C 0.20125 0.89857 0.36194 0.0
C1990 C 0.1845 0.88826 0.35428 0.0
C1991 C 0.17229 0.89617 0.35198 0.0
C1992 C 0.17666 0.91391 0.35732 0.0
H1993 H 0.18697 0.93001 0.40218 0.0
H1994 H 0.17866 0.91392 0.38878 0.0
H1995 H 0.20387 0.92504 0.39388 0.0
H1996 H 0.21854 0.92399 0.37317 0.0
H1997 H 0.21101 0.89295 0.36386 0.0
H1998 H 0.53699 0.62222 0.28883 0.0
H1999 H 0.56112 0.65306 0.29853 0.0
H2000 H 0.52916 0.67989 0.28427 0.0
H2001 H 0.50515 0.64923 0.27437 0.0
H2002 H 0.57118 0.70116 0.28033 0.0
H2003 H 0.55113 0.67868 0.32963 0.0
H2004 H 0.55593 0.66287 0.32008 0.0
H2005 H 0.53505 0.66564 0.31665 0.0
C2006 C 0.53516 0.63471 0.28771 0.0
C2007 C 0.51912 0.63327 0.28088 0.0
C2008 C 0.54885 0.65226 0.29334 0.0
C2009 C 0.54677 0.66866 0.29222 0.0
C2010 C 0.53093 0.66734 0.28529 0.0
H2011 H 0.60354 0.77802 0.33209 0.0
H2012 H 0.5805 0.74661 0.32278 0.0
C2013 C 0.51718 0.6498 0.27972 0.0
C2014 C 0.56124 0.6873 0.29811 0.0
H2015 H 0.57882 0.70967 0.32634 0.0
C2016 C 0.5729 0.70305 0.29039 0.0
C2017 C 0.56326 0.6897 0.31123 0.0
C2018 C 0.5506 0.6734 0.31993 0.0
C2019 C 0.58668 0.72115 0.29545 0.0
C2020 C 0.58892 0.72346 0.30856 0.0
C2021 C 0.57715 0.70776 0.31629 0.0
C2022 C 0.60306 0.74224 0.31443 0.0
C2023 C 0.59849 0.73777 0.28676 0.0
C2024 C 0.6234 0.75005 0.31294 0.0
C2025 C 0.63667 0.76794 0.31836 0.0
C2026 C 0.62981 0.77831 0.3254 0.0
C2027 C 0.60939 0.77033 0.32691 0.0
C2028 C 0.59616 0.75241 0.32154 0.0
H2029 H 0.59226 0.73468 0.27714 0.0
H2030 H 0.59913 0.75121 0.29026 0.0
H2031 H 0.6138 0.74046 0.28631 0.0
H2032 H 0.62901 0.74229 0.30759 0.0
H2033 H 0.65229 0.77361 0.31702 0.0
H2034 H 0.36709 0.86462 0.30024 0.0
H2035 H 0.3368 0.85834 0.31079 0.0
H2036 H 0.3179 0.87508 0.27766 0.0
H2037 H 0.34792 0.88103 0.26697 0.0
H2038 H 0.32295 0.88451 0.31533 0.0
H2039 H 0.27018 0.82196 0.28625 0.0
H2040 H 0.2963 0.83055 0.28645 0.0
H2041 H 0.28667 0.84295 0.27746 0.0
C2042 C 0.35639 0.86675 0.29514 0.0
C2043 C 0.35994 0.87328 0.28273 0.0
C2044 C 0.33913 0.86326 0.30121 0.0
C2045 C 0.32495 0.86599 0.29497 0.0
C2046 C 0.32847 0.87257 0.28261 0.0
H2047 H 0.23202 0.88336 0.32318 0.0
H2048 H 0.26302 0.88654 0.31588 0.0
C2049 C 0.34576 0.87617 0.27655 0.0
C2050 C 0.30672 0.86248 0.30145 0.0
H2051 H 0.25652 0.83598 0.29973 0.0
C2052 C 0.30842 0.87379 0.31199 0.0
C2053 C 0.28777 0.84832 0.2972 0.0
C2054 C 0.28503 0.8351 0.28629 0.0
C2055 C 0.29168 0.87179 0.31813 0.0
C2056 C 0.27268 0.85821 0.31354 0.0
C2057 C 0.27103 0.84645 0.30324 0.0
C2058 C 0.25435 0.8565 0.31888 0.0
C2059 C 0.2946 0.88429 0.32947 0.0
C2060 C 0.23891 0.83849 0.3228 0.0
C2061 C 0.22107 0.83662 0.32685 0.0
C2062 C 0.2184 0.85278 0.32716 0.0
C2063 C 0.23385 0.87077 0.32327 0.0
C2064 C 0.25162 0.87261 0.31918 0.0
H2065 H 0.30882 0.88855 0.33425 0.0
H2066 H 0.29491 0.89774 0.32651 0.0
H2067 H 0.28252 0.87679 0.33625 0.0
H2068 H 0.24056 0.82579 0.32255 0.0
H2069 H 0.20923 0.82247 0.32945 0.0
H2070 H 0.09146 0.4677 0.29094 0.0
H2071 H 0.10023 0.44652 0.30229 0.0
H2072 H 0.1523 0.46671 0.27978 0.0
H2073 H 0.14389 0.48837 0.2687 0.0
H2074 H 0.10374 0.41722 0.29472 0.0
H2075 H 0.17572 0.47308 0.31385 0.0
H2076 H 0.15875 0.47909 0.30653 0.0
H2077 H 0.17494 0.47431 0.29717 0.0
C2078 C 0.10479 0.46762 0.28845 0.0
C2079 C 0.11706 0.47971 0.279 0.0
C2080 C 0.10982 0.45557 0.29495 0.0
C2081 C 0.12713 0.4553 0.29207 0.0
C2082 C 0.1392 0.46711 0.28245 0.0
H2083 H 0.14675 0.36046 0.30906 0.0
H2084 H 0.13864 0.38327 0.29965 0.0
C2085 C 0.13433 0.47938 0.27607 0.0
C2086 C 0.13212 0.44208 0.29878 0.0
H2087 H 0.16913 0.44037 0.31449 0.0
C2088 C 0.11798 0.42231 0.29914 0.0
C2089 C 0.15054 0.44876 0.30478 0.0
C2090 C 0.16576 0.47 0.30569 0.0
C2091 C 0.1219 0.40897 0.30508 0.0
C2092 C 0.1408 0.41546 0.31036 0.0
C2093 C 0.15476 0.43531 0.31027 0.0
C2094 C 0.14641 0.40192 0.31597 0.0
C2095 C 0.10556 0.38815 0.3058 0.0
C2096 C 0.15459 0.40534 0.32805 0.0
C2097 C 0.15988 0.39259 0.33332 0.0
C2098 C 0.15675 0.37598 0.32675 0.0
C2099 C 0.14895 0.37284 0.31455 0.0
C2100 C 0.14413 0.38582 0.30917 0.0
H2101 H 0.09085 0.38699 0.30534 0.0
H2102 H 0.10661 0.37992 0.29773 0.0
H2103 H 0.1065 0.38125 0.31455 0.0
H2104 H 0.15674 0.4178 0.33344 0.0
H2105 H 0.16617 0.39568 0.34258 0.0
H2106 H 0.33956 0.47075 0.26684 0.0
H2107 H 0.3097 0.44875 0.27791 0.0
H2108 H 0.34294 0.46102 0.31224 0.0
H2109 H 0.37256 0.48447 0.3015 0.0
H2110 H 0.30076 0.41694 0.28832 0.0
H2111 H 0.29743 0.46413 0.32512 0.0
H2112 H 0.31432 0.47368 0.31225 0.0
H2113 H 0.32027 0.46414 0.32575 0.0
C2114 C 0.34053 0.4693 0.27681 0.0
C2115 C 0.35866 0.47959 0.28321 0.0
C2116 C 0.32339 0.45648 0.28314 0.0
C2117 C 0.3239 0.45336 0.29599 0.0
C2118 C 0.34194 0.46351 0.30241 0.0
H2119 H 0.23394 0.34586 0.32843 0.0
H2120 H 0.26504 0.373 0.32119 0.0
C2121 C 0.35904 0.47666 0.29615 0.0
C2122 C 0.30586 0.43845 0.30237 0.0
H2123 H 0.2768 0.42994 0.32799 0.0
C2124 C 0.29548 0.4199 0.29694 0.0
C2125 C 0.29872 0.44226 0.31356 0.0
C2126 C 0.30815 0.4622 0.31943 0.0
C2127 C 0.27835 0.40508 0.30235 0.0
C2128 C 0.27184 0.40856 0.31389 0.0
C2129 C 0.28201 0.42716 0.31928 0.0
C2130 C 0.25416 0.39315 0.32024 0.0
C2131 C 0.26715 0.386 0.2954 0.0
C2132 C 0.23819 0.39584 0.32301 0.0
C2133 C 0.22059 0.38047 0.3275 0.0
C2134 C 0.21877 0.36222 0.32928 0.0
C2135 C 0.23504 0.35981 0.32709 0.0
C2136 C 0.25271 0.37525 0.32286 0.0
H2137 H 0.27046 0.38772 0.28526 0.0
H2138 H 0.27158 0.37575 0.29907 0.0
H2139 H 0.25101 0.37952 0.29656 0.0
H2140 H 0.23901 0.40956 0.32116 0.0
H2141 H 0.20817 0.38263 0.32899 0.0
H2142 H 0.50482 0.86295 0.29899 0.0
H2143 H 0.5297 0.85746 0.309 0.0
H2144 H 0.56615 0.87903 0.27635 0.0
H2145 H 0.54137 0.8845 0.26628 0.0
H2146 H 0.56334 0.84548 0.28465 0.0
H2147 H 0.5822 0.89742 0.32415 0.0
H2148 H 0.55652 0.87963 0.32294 0.0
H2149 H 0.56797 0.89719 0.31081 0.0
C2150 C 0.51823 0.86673 0.29399 0.0
C2151 C 0.52108 0.87421 0.28183 0.0
C2152 C 0.53246 0.8636 0.29974 0.0
C2153 C 0.54996 0.86808 0.29351 0.0
C2154 C 0.55279 0.87546 0.28136 0.0
H2155 H 0.66039 0.88351 0.32134 0.0
H2156 H 0.63275 0.88682 0.31361 0.0
C2157 C 0.53855 0.87852 0.27559 0.0
C2158 C 0.56516 0.86471 0.29947 0.0
H2159 H 0.59679 0.87761 0.32439 0.0
C2160 C 0.57062 0.85248 0.29335 0.0
C2161 C 0.57479 0.87396 0.31078 0.0
C2162 C 0.57024 0.88793 0.31752 0.0
C2163 C 0.58548 0.84934 0.29818 0.0
C2164 C 0.59493 0.8584 0.30956 0.0
C2165 C 0.58942 0.87055 0.31572 0.0
C2166 C 0.61132 0.8563 0.31485 0.0
C2167 C 0.59133 0.83682 0.29082 0.0
C2168 C 0.60843 0.83808 0.31825 0.0
C2169 C 0.62422 0.83618 0.32262 0.0
C2170 C 0.64308 0.85254 0.32394 0.0
C2171 C 0.64592 0.87074 0.32059 0.0
C2172 C 0.63015 0.87264 0.31621 0.0
H2173 H 0.58601 0.83473 0.281 0.0
H2174 H 0.60758 0.84326 0.29081 0.0
H2175 H 0.58481 0.82236 0.2952 0.0
H2176 H 0.59399 0.8253 0.31743 0.0
H2177 H 0.6217 0.82191 0.32482 0.0
H2178 H 0.09542 0.6197 0.29757 0.0
H2179 H 0.1049 0.65006 0.30843 0.0
H2180 H 0.14283 0.6818 0.27788 0.0
H2181 H 0.135 0.65154 0.26753 0.0
H2182 H 0.16048 0.69746 0.2985 0.0
H2183 H 0.08492 0.68585 0.3018 0.0
H2184 H 0.08716 0.66718 0.30951 0.0
H2185 H 0.09044 0.66997 0.29285 0.0
C2186 C 0.10604 0.63308 0.29321 0.0
C2187 C 0.11431 0.63302 0.28157 0.0
C2188 C 0.11116 0.65051 0.29936 0.0
C2189 C 0.12417 0.66828 0.29384 0.0
C2190 C 0.13259 0.66829 0.2823 0.0
H2191 H 0.13496 0.77801 0.31433 0.0
H2192 H 0.127 0.74701 0.30503 0.0
C2193 C 0.12786 0.65089 0.27628 0.0
C2194 C 0.12937 0.68691 0.30013 0.0
H2195 H 0.10976 0.71246 0.31338 0.0
C2196 C 0.14938 0.70078 0.30169 0.0
C2197 C 0.1149 0.69138 0.30414 0.0
C2198 C 0.09318 0.67789 0.30187 0.0
C2199 C 0.15533 0.719 0.30707 0.0
C2200 C 0.14087 0.72315 0.31157 0.0
C2201 C 0.12086 0.70923 0.31007 0.0
C2202 C 0.14602 0.74212 0.31733 0.0
C2203 C 0.17704 0.73377 0.30742 0.0
C2204 C 0.15932 0.74975 0.32742 0.0
C2205 C 0.16439 0.76784 0.33253 0.0
C2206 C 0.15566 0.77831 0.32801 0.0
C2207 C 0.14197 0.77039 0.31812 0.0
C2208 C 0.13732 0.75257 0.31279 0.0
H2209 H 0.18524 0.7306 0.30022 0.0
H2210 H 0.17967 0.74863 0.3059 0.0
H2211 H 0.18322 0.73336 0.31667 0.0
H2212 H 0.16584 0.74177 0.33134 0.0
H2213 H 0.17518 0.77357 0.33999 0.0
H2214 H 0.81464 0.04463 0.38575 0.0
H2215 H 0.79157 0.01417 0.37564 0.0
H2216 H 0.80006 0.98278 0.40535 0.0
H2217 H 0.82482 0.01307 0.41478 0.0
H2218 H 0.79869 0.96595 0.3852 0.0
H2219 H 0.73602 0.97921 0.38349 0.0
H2220 H 0.75654 0.99742 0.37507 0.0
H2221 H 0.75855 0.99525 0.3917 0.0
C2222 C 0.81195 0.03132 0.39008 0.0
C2223 C 0.82172 0.03156 0.40121 0.0
C2224 C 0.79833 0.01381 0.38438 0.0
C2225 C 0.79354 0.99607 0.38989 0.0
C2226 C 0.80328 0.99623 0.40095 0.0
H2227 H 0.69007 0.88754 0.36748 0.0
H2228 H 0.71361 0.91777 0.37779 0.0
C2229 C 0.81732 0.01369 0.40646 0.0
C2230 C 0.77894 0.97732 0.38396 0.0
H2231 H 0.73282 0.95274 0.37109 0.0
C2232 C 0.78421 0.96302 0.38224 0.0
C2233 C 0.75986 0.97324 0.38026 0.0
C2234 C 0.75234 0.98702 0.38286 0.0
C2235 C 0.7711 0.94492 0.37689 0.0
C2236 C 0.7525 0.94131 0.37247 0.0
C2237 C 0.74715 0.95553 0.37429 0.0
C2238 C 0.73823 0.92281 0.36614 0.0
C2239 C 0.77722 0.92973 0.37645 0.0
C2240 C 0.74405 0.91552 0.35605 0.0
C2241 C 0.73075 0.89786 0.35041 0.0
C2242 C 0.71105 0.88749 0.35431 0.0
C2243 C 0.70508 0.89511 0.36416 0.0
C2244 C 0.71855 0.91249 0.37006 0.0
H2245 H 0.78814 0.93222 0.38392 0.0
H2246 H 0.76441 0.91493 0.37754 0.0
H2247 H 0.78431 0.9305 0.36736 0.0
H2248 H 0.75893 0.92343 0.35254 0.0
H2249 H 0.73602 0.89237 0.34304 0.0
H2250 H 0.97355 0.80398 0.38107 0.0
H2251 H 0.00362 0.80969 0.37052 0.0
H2252 H 0.02029 0.78914 0.40286 0.0
H2253 H 0.99031 0.78339 0.41346 0.0
H2254 H 0.0509 0.82289 0.39391 0.0
H2255 H 0.01519 0.76959 0.35523 0.0
H2256 H 0.0073 0.78713 0.35662 0.0
H2257 H 0.00191 0.76993 0.36887 0.0
C2258 C 0.98351 0.80047 0.38589 0.0
C2259 C 0.97945 0.79317 0.39812 0.0
C2260 C 1.0007 0.80373 0.37984 0.0
C2261 C 0.01412 0.79959 0.38582 0.0
C2262 C 0.01017 0.79243 0.39804 0.0
H2263 H 0.10782 0.78351 0.35819 0.0
H2264 H 0.07681 0.7806 0.36537 0.0
C2265 C 0.99304 0.78923 0.40412 0.0
C2266 C 0.03249 0.80304 0.37952 0.0
H2267 H 0.04985 0.78943 0.35444 0.0
C2268 C 0.05067 0.81562 0.38525 0.0
C2269 C 0.03218 0.79344 0.36826 0.0
C2270 C 0.01312 0.77913 0.36192 0.0
C2271 C 0.0685 0.81875 0.38014 0.0
C2272 C 0.06821 0.80928 0.36884 0.0
C2273 C 0.05006 0.79682 0.36303 0.0
C2274 C 0.08648 0.81104 0.36343 0.0
C2275 C 0.08745 0.83163 0.38713 0.0
C2276 C 0.1021 0.82906 0.3597 0.0
C2277 C 0.11985 0.83073 0.35564 0.0
C2278 C 0.12211 0.81435 0.35499 0.0
C2279 C 0.10633 0.7963 0.35846 0.0
C2280 C 0.08863 0.79463 0.36253 0.0
H2281 H 0.08475 0.83431 0.39693 0.0
H2282 H 0.09709 0.82513 0.38724 0.0
H2283 H 0.09546 0.84581 0.3824 0.0
H2284 H 0.1007 0.84188 0.36015 0.0
H2285 H 0.13189 0.8449 0.3533 0.0
H2286 H 0.20667 0.16827 0.38419 0.0
H2287 H 0.19756 0.18999 0.37375 0.0
H2288 H 0.22877 0.23362 0.40207 0.0
H2289 H 0.23799 0.21205 0.41256 0.0
H2290 H 0.17723 0.21028 0.38774 0.0
H2291 H 0.24942 0.2581 0.36524 0.0
H2292 H 0.24141 0.23326 0.36919 0.0
H2293 H 0.24955 0.25139 0.38126 0.0
C2294 C 0.21172 0.18255 0.38812 0.0
C2295 C 0.22306 0.18851 0.39917 0.0
C2296 C 0.20643 0.19486 0.3822 0.0
C2297 C 0.2126 0.21334 0.38715 0.0
C2298 C 0.22397 0.21938 0.39812 0.0
H2299 H 0.2057 0.31349 0.36631 0.0
H2300 H 0.21337 0.28995 0.37515 0.0
C2301 C 0.22912 0.20704 0.40412 0.0
C2302 C 0.20691 0.22629 0.38097 0.0
H2303 H 0.22518 0.26725 0.36358 0.0
C2304 C 0.18761 0.22269 0.38238 0.0
C2305 C 0.2206 0.24243 0.37409 0.0
C2306 C 0.24142 0.2466 0.37224 0.0
C2307 C 0.18173 0.2352 0.37731 0.0
C2308 C 0.19544 0.25141 0.37039 0.0
C2309 C 0.21469 0.25481 0.36887 0.0
C2310 C 0.19039 0.26544 0.36502 0.0
C2311 C 0.16113 0.2313 0.37978 0.0
C2312 C 0.17494 0.25948 0.35633 0.0
C2313 C 0.17032 0.27288 0.35136 0.0
C2314 C 0.18134 0.29256 0.35479 0.0
C2315 C 0.1969 0.29847 0.36342 0.0
C2316 C 0.20137 0.28504 0.36848 0.0
H2317 H 0.15443 0.22161 0.38789 0.0
H2318 H 0.16105 0.24499 0.38159 0.0
H2319 H 0.15172 0.2241 0.37147 0.0
H2320 H 0.1665 0.24448 0.35335 0.0
H2321 H 0.15807 0.26777 0.34488 0.0
H2322 H 0.66463 0.53453 0.748 0.0
H2323 H 0.69369 0.55847 0.73673 0.0
H2324 H 0.66123 0.53934 0.70197 0.0
H2325 H 0.6325 0.51462 0.71322 0.0
H2326 H 0.6968 0.54624 0.69835 0.0
H2327 H 0.70235 0.60874 0.72446 0.0
H2328 H 0.70408 0.59216 0.73485 0.0
H2329 H 0.68166 0.58465 0.72611 0.0
C2330 C 0.66378 0.53548 0.73795 0.0
C2331 C 0.64638 0.52293 0.73145 0.0
C2332 C 0.68031 0.54924 0.73152 0.0
C2333 C 0.67952 0.55115 0.71852 0.0
C2334 C 0.66219 0.53828 0.712 0.0
H2335 H 0.77146 0.65786 0.68615 0.0
H2336 H 0.73937 0.63091 0.69212 0.0
C2337 C 0.64579 0.5242 0.71841 0.0
C2338 C 0.69677 0.56649 0.71176 0.0
H2339 H 0.73052 0.61472 0.71257 0.0
C2340 C 0.70406 0.56127 0.70136 0.0
C2341 C 0.70602 0.5862 0.71547 0.0
C2342 C 0.69797 0.59329 0.72574 0.0
C2343 C 0.72059 0.57509 0.6948 0.0
C2344 C 0.73063 0.5946 0.69904 0.0
C2345 C 0.72304 0.59982 0.70929 0.0
C2346 C 0.74919 0.60992 0.6933 0.0
C2347 C 0.72673 0.56858 0.68326 0.0
C2348 C 0.76537 0.60712 0.69154 0.0
C2349 C 0.7835 0.62238 0.68765 0.0
C2350 C 0.78594 0.64085 0.68579 0.0
C2351 C 0.76981 0.64366 0.6874 0.0
C2352 C 0.75153 0.62827 0.69087 0.0
H2353 H 0.71394 0.55595 0.67874 0.0
H2354 H 0.73362 0.58035 0.67635 0.0
H2355 H 0.73747 0.564 0.6859 0.0
H2356 H 0.76433 0.59342 0.69375 0.0
H2357 H 0.79588 0.61999 0.68683 0.0
H2358 H 0.49998 0.15718 0.73732 0.0
H2359 H 0.47509 0.1628 0.72746 0.0
H2360 H 0.43945 0.10178 0.71933 0.0
H2361 H 0.46434 0.09604 0.72895 0.0
H2362 H 0.45992 0.15403 0.70269 0.0
H2363 H 0.40125 0.11488 0.73753 0.0
H2364 H 0.42675 0.12232 0.74052 0.0
H2365 H 0.41165 0.10108 0.7312 0.0
C2366 C 0.48694 0.14495 0.73335 0.0
C2367 C 0.48418 0.12612 0.73402 0.0
C2368 C 0.47266 0.14819 0.72778 0.0
C2369 C 0.45526 0.13267 0.72285 0.0
C2370 C 0.45256 0.11392 0.72333 0.0
H2371 H 0.34748 0.11676 0.6893 0.0
H2372 H 0.37475 0.11338 0.69757 0.0
C2373 C 0.46683 0.11066 0.72886 0.0
C2374 C 0.44008 0.1361 0.71695 0.0
H2375 H 0.39192 0.12433 0.71899 0.0
C2376 C 0.44506 0.14763 0.70626 0.0
C2377 C 0.42073 0.12778 0.72165 0.0
C2378 C 0.41475 0.11596 0.73342 0.0
C2379 C 0.43104 0.15053 0.69988 0.0
C2380 C 0.41152 0.14196 0.70445 0.0
C2381 C 0.40673 0.13074 0.71532 0.0
C2382 C 0.39568 0.14417 0.69817 0.0
C2383 C 0.43723 0.16212 0.68805 0.0
C2384 C 0.39826 0.16256 0.69553 0.0
C2385 C 0.38277 0.16443 0.6905 0.0
C2386 C 0.36428 0.14798 0.68819 0.0
C2387 C 0.36168 0.12964 0.69083 0.0
C2388 C 0.37725 0.12774 0.69561 0.0
H2389 H 0.45021 0.16231 0.68378 0.0
H2390 H 0.42506 0.15611 0.68116 0.0
H2391 H 0.44131 0.17732 0.69018 0.0
H2392 H 0.412 0.17554 0.69778 0.0
H2393 H 0.38505 0.17879 0.68895 0.0
H2394 H 0.91579 0.37606 0.72453 0.0
H2395 H 0.90682 0.34494 0.71464 0.0
H2396 H 0.84802 0.32049 0.72918 0.0
H2397 H 0.85699 0.35141 0.73938 0.0
H2398 H 0.86542 0.29745 0.73291 0.0
H2399 H 0.87123 0.32076 0.68361 0.0
H2400 H 0.89265 0.33556 0.69307 0.0
H2401 H 0.86983 0.33471 0.69652 0.0
C2402 C 0.90098 0.36403 0.72567 0.0
C2403 C 0.88708 0.3662 0.73271 0.0
C2404 C 0.89583 0.34634 0.71991 0.0
C2405 C 0.87668 0.33054 0.72104 0.0
C2406 C 0.86282 0.33259 0.72813 0.0
H2407 H 0.82364 0.22176 0.6796 0.0
H2408 H 0.83152 0.25297 0.68881 0.0
C2409 C 0.86794 0.35028 0.73388 0.0
C2410 C 0.87126 0.31169 0.71514 0.0
H2411 H 0.86707 0.28951 0.68701 0.0
C2412 C 0.86571 0.29567 0.72288 0.0
C2413 C 0.87144 0.30942 0.70205 0.0
C2414 C 0.87643 0.32596 0.69329 0.0
C2415 C 0.8607 0.27748 0.71786 0.0
C2416 C 0.86151 0.27537 0.70479 0.0
C2417 C 0.86665 0.29127 0.69704 0.0
C2418 C 0.85707 0.25672 0.69901 0.0
C2419 C 0.85439 0.26061 0.72656 0.0
C2420 C 0.86903 0.2487 0.70156 0.0
C2421 C 0.86468 0.23095 0.69625 0.0
C2422 C 0.84832 0.22095 0.68824 0.0
C2423 C 0.83648 0.22916 0.6856 0.0
C2424 C 0.8409 0.24696 0.69089 0.0
H2425 H 0.84996 0.26348 0.73582 0.0
H2426 H 0.84188 0.24723 0.7225 0.0
H2427 H 0.86686 0.25798 0.72802 0.0
H2428 H 0.88176 0.2562 0.70765 0.0
H2429 H 0.87415 0.2251 0.69845 0.0
H2430 H 0.17378 0.98526 0.60366 0.0
H2431 H 0.19826 0.01642 0.61276 0.0
H2432 H 0.22416 0.98806 0.63308 0.0
H2433 H 0.20004 0.95697 0.62374 0.0
H2434 H 0.20535 0.02874 0.63624 0.0
H2435 H 0.27215 0.03126 0.61725 0.0
H2436 H 0.2477 0.01374 0.61196 0.0
H2437 H 0.25751 0.00985 0.62617 0.0
C2438 C 0.18472 0.98571 0.61006 0.0
C2439 C 0.1851 0.96873 0.61294 0.0
C2440 C 0.19872 0.00351 0.61523 0.0
C2441 C 0.21331 0.00467 0.62342 0.0
C2442 C 0.21345 0.98765 0.6265 0.0
H2443 H 0.28044 0.09976 0.67525 0.0
H2444 H 0.25695 0.0692 0.66524 0.0
C2445 C 0.1996 0.96988 0.62121 0.0
C2446 C 0.22796 0.0236 0.62903 0.0
H2447 H 0.27728 0.05429 0.63329 0.0
C2448 C 0.22108 0.03438 0.63552 0.0
C2449 C 0.2485 0.03113 0.62793 0.0
C2450 C 0.25692 0.02099 0.62034 0.0
C2451 C 0.23414 0.05229 0.64113 0.0
C2452 C 0.25465 0.05935 0.64056 0.0
C2453 C 0.26155 0.04876 0.63386 0.0
C2454 C 0.26922 0.07777 0.64675 0.0
C2455 C 0.22578 0.06361 0.64738 0.0
C2456 C 0.28448 0.0925 0.63984 0.0
C2457 C 0.29809 0.10992 0.64563 0.0
C2458 C 0.2966 0.113 0.65843 0.0
C2459 C 0.2816 0.09809 0.66536 0.0
C2460 C 0.26815 0.08058 0.65962 0.0
H2461 H 0.21087 0.05932 0.64369 0.0
H2462 H 0.22441 0.06063 0.65754 0.0
H2463 H 0.23546 0.07942 0.64606 0.0
H2464 H 0.2857 0.09061 0.62992 0.0
H2465 H 0.30949 0.12116 0.64003 0.0
H2466 H 0.00957 0.17479 0.61351 0.0
H2467 H 0.97946 0.16936 0.62388 0.0
H2468 H 0.00557 0.2307 0.63056 0.0
H2469 H 0.03585 0.23629 0.62048 0.0
H2470 H 0.9742 0.18028 0.6489 0.0
H2471 H 0.95303 0.21502 0.61195 0.0
H2472 H 0.97084 0.20732 0.60944 0.0
H2473 H 0.97777 0.22946 0.61778 0.0
C2474 C 0.00904 0.18714 0.6173 0.0
C2475 C 0.02519 0.20602 0.61605 0.0
C2476 C 0.99175 0.18399 0.62318 0.0
C2477 C 0.99017 0.19964 0.62784 0.0
C2478 C 0.00633 0.21844 0.62682 0.0
H2479 H 0.89897 0.21718 0.65931 0.0
H2480 H 0.92971 0.22006 0.65174 0.0
C2481 C 0.02363 0.22161 0.621 0.0
C2482 C 0.97162 0.1964 0.63372 0.0
H2483 H 0.93465 0.20692 0.6306 0.0
C2484 C 0.96546 0.18601 0.6449 0.0
C2485 C 0.96023 0.20383 0.62846 0.0
C2486 C 0.96564 0.21439 0.61619 0.0
C2487 C 0.94858 0.18343 0.65119 0.0
C2488 C 0.9373 0.19114 0.64603 0.0
C2489 C 0.94333 0.20118 0.63469 0.0
C2490 C 0.91934 0.18929 0.65214 0.0
C2491 C 0.94347 0.17306 0.6635 0.0
C2492 C 0.90327 0.17109 0.65517 0.0
C2493 C 0.88578 0.1695 0.65975 0.0
C2494 C 0.88396 0.18606 0.66124 0.0
C2495 C 0.90007 0.20423 0.65837 0.0
C2496 C 0.91761 0.20585 0.654 0.0
H2497 H 0.95646 0.17337 0.66792 0.0
H2498 H 0.93756 0.17963 0.67007 0.0
H2499 H 0.93208 0.15767 0.66196 0.0
H2500 H 0.90389 0.15801 0.65352 0.0
H2501 H 0.87344 0.15526 0.66159 0.0
H2502 H 0.79564 0.83328 0.63084 0.0
H2503 H 0.80477 0.81231 0.6422 0.0
H2504 H 0.79087 0.77555 0.60963 0.0
H2505 H 0.78184 0.7965 0.59817 0.0
H2506 H 0.77898 0.76998 0.6458 0.0
H2507 H 0.84861 0.79047 0.62074 0.0
H2508 H 0.83752 0.80561 0.62099 0.0
H2509 H 0.8275 0.78454 0.61106 0.0
C2510 C 0.79471 0.82082 0.62607 0.0
C2511 C 0.7881 0.81654 0.61361 0.0
C2512 C 0.79983 0.80884 0.63258 0.0
C2513 C 0.79865 0.79254 0.62669 0.0
C2514 C 0.79206 0.7882 0.61427 0.0
H2515 H 0.79601 0.69012 0.65256 0.0
H2516 H 0.78938 0.71457 0.64398 0.0
C2517 C 0.78678 0.80008 0.60778 0.0
C2518 C 0.80387 0.77977 0.6336 0.0
H2519 H 0.83673 0.76357 0.6343 0.0
C2520 C 0.79167 0.76865 0.64337 0.0
C2521 C 0.82055 0.77828 0.63045 0.0
C2522 C 0.83444 0.79045 0.62031 0.0
C2523 C 0.79537 0.75553 0.64982 0.0
C2524 C 0.81164 0.75354 0.64636 0.0
C2525 C 0.82422 0.76512 0.63687 0.0
C2526 C 0.81536 0.73887 0.65209 0.0
C2527 C 0.78184 0.74382 0.66023 0.0
C2528 C 0.83226 0.74451 0.65941 0.0
C2529 C 0.83611 0.73056 0.66437 0.0
C2530 C 0.82319 0.71076 0.66196 0.0
C2531 C 0.80625 0.70522 0.65462 0.0
C2532 C 0.80237 0.71915 0.64975 0.0
H2533 H 0.77275 0.75003 0.66356 0.0
H2534 H 0.77177 0.72886 0.65681 0.0
H2535 H 0.7904 0.74295 0.66824 0.0
H2536 H 0.84251 0.75971 0.66122 0.0
H2537 H 0.84938 0.73533 0.66988 0.0
H2538 H 0.0325 0.82983 0.63453 0.0
H2539 H 0.00279 0.80692 0.64572 0.0
H2540 H 0.98544 0.76694 0.61462 0.0
H2541 H 0.01508 0.78969 0.6034 0.0
H2542 H 0.95527 0.77236 0.6233 0.0
H2543 H 0.99158 0.75634 0.66237 0.0
H2544 H 0.99981 0.78155 0.66012 0.0
H2545 H 0.00444 0.76825 0.64831 0.0
C2546 C 0.02246 0.81607 0.63013 0.0
C2547 C 0.02619 0.81158 0.61807 0.0
C2548 C 0.0055 0.80299 0.63655 0.0
C2549 C 0.99203 0.78512 0.63107 0.0
C2550 C 0.99566 0.78065 0.61903 0.0
H2551 H 0.89805 0.67854 0.6585 0.0
H2552 H 0.92952 0.706 0.65194 0.0
C2553 C 0.01256 0.79371 0.6126 0.0
C2554 C 0.97385 0.77119 0.63768 0.0
H2555 H 0.95694 0.74194 0.66319 0.0
C2556 C 0.95562 0.76578 0.63206 0.0
C2557 C 0.97439 0.76256 0.64907 0.0
C2558 C 0.99358 0.7673 0.65531 0.0
C2559 C 0.93789 0.75177 0.63739 0.0
C2560 C 0.9384 0.74316 0.64879 0.0
C2561 C 0.95662 0.74873 0.65452 0.0
C2562 C 0.92026 0.72723 0.65431 0.0
C2563 C 0.91881 0.74576 0.63053 0.0
C2564 C 0.90484 0.73017 0.65814 0.0
C2565 C 0.88686 0.71449 0.66182 0.0
C2566 C 0.88418 0.69571 0.66197 0.0
C2567 C 0.89987 0.69292 0.65859 0.0
C2568 C 0.91781 0.70858 0.65487 0.0
H2569 H 0.9213 0.75084 0.62072 0.0
H2570 H 0.90924 0.72977 0.63048 0.0
H2571 H 0.9108 0.7521 0.63534 0.0
H2572 H 0.90651 0.74449 0.65791 0.0
H2573 H 0.8749 0.717 0.66412 0.0
H2574 H 0.16999 0.19485 0.63224 0.0
H2575 H 0.19507 0.18966 0.64225 0.0
H2576 H 0.23115 0.21082 0.60942 0.0
H2577 H 0.20617 0.216 0.59935 0.0
H2578 H 0.22872 0.17751 0.61803 0.0
H2579 H 0.24762 0.23029 0.65701 0.0
H2580 H 0.22198 0.21234 0.65596 0.0
H2581 H 0.23318 0.22964 0.64367 0.0
C2582 C 0.18335 0.19859 0.62719 0.0
C2583 C 0.18605 0.20589 0.61498 0.0
C2584 C 0.19771 0.19563 0.63294 0.0
C2585 C 0.21516 0.2001 0.62667 0.0
C2586 C 0.21783 0.20727 0.61446 0.0
H2587 H 0.32634 0.2177 0.6545 0.0
H2588 H 0.29838 0.22023 0.64651 0.0
C2589 C 0.20347 0.21015 0.60869 0.0
C2590 C 0.23054 0.19701 0.63265 0.0
H2591 H 0.26254 0.21081 0.65741 0.0
C2592 C 0.23608 0.18476 0.62666 0.0
C2593 C 0.24027 0.20659 0.64386 0.0
C2594 C 0.23563 0.22059 0.65047 0.0
C2595 C 0.25113 0.18193 0.6315 0.0
C2596 C 0.2607 0.19134 0.64278 0.0
C2597 C 0.25509 0.20349 0.64882 0.0
C2598 C 0.27734 0.18964 0.64806 0.0
C2599 C 0.25706 0.16936 0.62428 0.0
C2600 C 0.27479 0.17164 0.6517 0.0
C2601 C 0.29077 0.17018 0.65623 0.0
C2602 C 0.30949 0.18677 0.65744 0.0
C2603 C 0.312 0.20475 0.65381 0.0
C2604 C 0.29605 0.2062 0.64928 0.0
H2605 H 0.25154 0.16691 0.61449 0.0
H2606 H 0.27333 0.17597 0.62415 0.0
H2607 H 0.25079 0.15505 0.62884 0.0
H2608 H 0.26045 0.1587 0.65101 0.0
H2609 H 0.28851 0.15609 0.65872 0.0
H2610 H 0.7992 0.98428 0.6013 0.0
H2611 H 0.80752 0.01448 0.61188 0.0
H2612 H 0.76774 0.98277 0.64168 0.0
H2613 H 0.75782 0.95247 0.63057 0.0
H2614 H 0.76407 0.01208 0.63662 0.0
H2615 H 0.84377 0.03867 0.6405 0.0
H2616 H 0.8361 0.03441 0.62447 0.0
H2617 H 0.82654 0.01445 0.6352 0.0
C2618 C 0.79189 0.98362 0.60999 0.0
C2619 C 0.7778 0.96576 0.61504 0.0
C2620 C 0.79703 0.00099 0.61619 0.0
C2621 C 0.78873 0.00094 0.62778 0.0
C2622 C 0.77455 0.9832 0.63282 0.0
H2623 H 0.84016 0.10692 0.67272 0.0
H2624 H 0.82979 0.07457 0.66466 0.0
C2625 C 0.76905 0.96582 0.62649 0.0
C2626 C 0.79433 0.01941 0.63442 0.0
H2627 H 0.83384 0.0624 0.64365 0.0
C2628 C 0.77934 0.02299 0.63829 0.0
C2629 C 0.81421 0.03351 0.63689 0.0
C2630 C 0.83103 0.02996 0.63417 0.0
C2631 C 0.78367 0.04043 0.64422 0.0
C2632 C 0.80359 0.05512 0.6458 0.0
C2633 C 0.81857 0.05132 0.64226 0.0
C2634 C 0.80928 0.07454 0.65104 0.0
C2635 C 0.76678 0.04268 0.64892 0.0
C2636 C 0.80145 0.08549 0.64602 0.0
C2637 C 0.80679 0.10372 0.65097 0.0
C2638 C 0.82057 0.11168 0.66082 0.0
C2639 C 0.82903 0.10103 0.66547 0.0
C2640 C 0.82327 0.08258 0.66074 0.0
H2641 H 0.75376 0.0284 0.65106 0.0
H2642 H 0.77094 0.05189 0.65746 0.0
H2643 H 0.76228 0.04943 0.64156 0.0
H2644 H 0.79128 0.08003 0.63819 0.0
H2645 H 0.80023 0.11162 0.64696 0.0
H2646 H 0.46988 0.35335 0.75078 0.0
H2647 H 0.44635 0.32287 0.74054 0.0
H2648 H 0.47793 0.34286 0.70597 0.0
H2649 H 0.50179 0.37328 0.71617 0.0
H2650 H 0.43581 0.32553 0.70384 0.0
H2651 H 0.45849 0.27975 0.72988 0.0
H2652 H 0.45275 0.29487 0.73943 0.0
H2653 H 0.47359 0.30578 0.72923 0.0
C2654 C 0.47196 0.35122 0.74103 0.0
C2655 C 0.48783 0.36574 0.73433 0.0
C2656 C 0.45846 0.33381 0.7352 0.0
C2657 C 0.46056 0.33055 0.72255 0.0
C2658 C 0.4761 0.34511 0.71575 0.0
H2659 H 0.40397 0.22118 0.68216 0.0
H2660 H 0.42729 0.25254 0.69144 0.0
C2661 C 0.48965 0.36252 0.72159 0.0
C2662 C 0.44655 0.31193 0.71643 0.0
H2663 H 0.43011 0.26341 0.71698 0.0
C2664 C 0.43455 0.31194 0.70669 0.0
C2665 C 0.44515 0.29428 0.72009 0.0
C2666 C 0.45828 0.29357 0.73016 0.0
C2667 C 0.42091 0.29466 0.70063 0.0
C2668 C 0.41917 0.27696 0.7045 0.0
C2669 C 0.43139 0.277 0.71411 0.0
C2670 C 0.4049 0.25822 0.69861 0.0
C2671 C 0.40868 0.29549 0.69001 0.0
C2672 C 0.38457 0.25097 0.69966 0.0
C2673 C 0.37116 0.23305 0.69433 0.0
C2674 C 0.37788 0.22207 0.68785 0.0
C2675 C 0.39828 0.22937 0.68691 0.0
C2676 C 0.41165 0.24725 0.69226 0.0
H2677 H 0.41489 0.3104 0.68633 0.0
H2678 H 0.40757 0.28568 0.68224 0.0
H2679 H 0.39357 0.29069 0.69337 0.0
H2680 H 0.37907 0.25907 0.70472 0.0
H2681 H 0.35557 0.22783 0.69529 0.0
H2682 H 0.63102 0.10095 0.72091 0.0
H2683 H 0.66112 0.1066 0.71049 0.0
H2684 H 0.6949 0.15872 0.73232 0.0
H2685 H 0.66484 0.15346 0.74262 0.0
H2686 H 0.68926 0.13967 0.69649 0.0
H2687 H 0.72234 0.12644 0.7386 0.0
H2688 H 0.69654 0.11905 0.73754 0.0
H2689 H 0.7145 0.14397 0.74052 0.0
C2690 C 0.64479 0.11376 0.72342 0.0
C2691 C 0.64542 0.1267 0.73268 0.0
C2692 C 0.66201 0.1169 0.71748 0.0
C2693 C 0.68029 0.13295 0.72072 0.0
C2694 C 0.681 0.14605 0.72982 0.0
H2695 H 0.79527 0.17676 0.68542 0.0
H2696 H 0.76417 0.17332 0.69296 0.0
C2697 C 0.66377 0.14297 0.73573 0.0
C2698 C 0.6986 0.13586 0.71465 0.0
H2699 H 0.74189 0.13665 0.72046 0.0
C2700 C 0.70083 0.13912 0.70174 0.0
C2701 C 0.71356 0.1349 0.72148 0.0
C2702 C 0.71166 0.13075 0.73529 0.0
C2703 C 0.7177 0.1416 0.6955 0.0
C2704 C 0.73268 0.14074 0.70235 0.0
C2705 C 0.73042 0.13742 0.71525 0.0
C2706 C 0.75053 0.14255 0.69628 0.0
C2707 C 0.71914 0.14436 0.68158 0.0
C2708 C 0.75309 0.12639 0.69547 0.0
C2709 C 0.77071 0.12828 0.69102 0.0
C2710 C 0.78616 0.14639 0.6873 0.0
C2711 C 0.78346 0.16253 0.68788 0.0
C2712 C 0.76573 0.1606 0.69226 0.0
H2713 H 0.70593 0.14404 0.67752 0.0
H2714 H 0.73231 0.15844 0.67932 0.0
H2715 H 0.72091 0.13271 0.67715 0.0
H2716 H 0.74161 0.11237 0.6986 0.0
H2717 H 0.77251 0.11567 0.69084 0.0
H2718 H 0.89398 0.54125 0.74692 0.0
H2719 H 0.88367 0.56163 0.73608 0.0
H2720 H 0.86967 0.52559 0.70316 0.0
H2721 H 0.87939 0.50474 0.714 0.0
H2722 H 0.89414 0.56797 0.69968 0.0
H2723 H 0.82519 0.54525 0.72612 0.0
H2724 H 0.8468 0.55174 0.73542 0.0
H2725 H 0.83703 0.53081 0.72537 0.0
C2726 C 0.88847 0.53748 0.73743 0.0
C2727 C 0.88745 0.5213 0.73135 0.0
C2728 C 0.88265 0.54918 0.73125 0.0
C2729 C 0.87576 0.54495 0.71889 0.0
C2730 C 0.87494 0.52902 0.71272 0.0
H2731 H 0.82084 0.60085 0.67852 0.0
H2732 H 0.82861 0.57672 0.68652 0.0
C2733 C 0.88063 0.51722 0.71891 0.0
C2734 C 0.86974 0.55743 0.71235 0.0
H2735 H 0.83595 0.57247 0.71292 0.0
C2736 C 0.88135 0.56888 0.70249 0.0
C2737 C 0.85293 0.55835 0.71599 0.0
C2738 C 0.83962 0.54579 0.72624 0.0
C2739 C 0.87693 0.58179 0.69643 0.0
C2740 C 0.86055 0.58326 0.70039 0.0
C2741 C 0.84855 0.57133 0.70996 0.0
C2742 C 0.85618 0.59777 0.69513 0.0
C2743 C 0.88983 0.59386 0.68588 0.0
C2744 C 0.86906 0.61752 0.69743 0.0
C2745 C 0.86468 0.63131 0.69292 0.0
C2746 C 0.84732 0.62559 0.68601 0.0
C2747 C 0.83444 0.60575 0.68369 0.0
C2748 C 0.8388 0.59194 0.68828 0.0
H2749 H 0.89889 0.58789 0.68208 0.0
H2750 H 0.88081 0.59478 0.67819 0.0
H2751 H 0.89994 0.60877 0.68937 0.0
H2752 H 0.88241 0.62224 0.70286 0.0
H2753 H 0.8749 0.64644 0.6949 0.0
H2754 H 0.44347 0.93309 0.18646 0.0
H2755 H 0.45188 0.94763 0.16575 0.0
H2756 H 0.50505 0.94425 0.16623 0.0
H2757 H 0.49714 0.93037 0.18712 0.0
H2758 H 0.51172 0.97958 0.1587 0.0
H2759 H 0.4485 0.92172 0.13226 0.0
H2760 H 0.44137 0.93087 0.1454 0.0
H2761 H 0.45476 0.9183 0.14791 0.0
C2762 C 0.457 0.9355 0.1822 0.0
C2763 C 0.46959 0.93048 0.1885 0.0
C2764 C 0.46166 0.94359 0.17027 0.0
C2765 C 0.47894 0.94674 0.16431 0.0
C2766 C 0.49155 0.94181 0.17057 0.0
H2767 H 0.51089 0.9783 0.08629 0.0
H2768 H 0.50082 0.96132 0.10625 0.0
C2769 C 0.48692 0.93374 0.1825 0.0
C2770 C 0.48433 0.95594 0.1518 0.0
H2771 H 0.46834 0.95129 0.12154 0.0
C2772 C 0.50226 0.97334 0.15057 0.0
C2773 C 0.47212 0.94769 0.14113 0.0
C2774 C 0.4532 0.92852 0.14167 0.0
C2775 C 0.50813 0.98289 0.13907 0.0
C2776 C 0.49558 0.97504 0.12851 0.0
C2777 C 0.47785 0.95742 0.12966 0.0
C2778 C 0.50069 0.98495 0.11622 0.0
C2779 C 0.52789 0.00118 0.1383 0.0
C2780 C 0.50347 0.00367 0.11509 0.0
C2781 C 0.50919 0.01338 0.1037 0.0
C2782 C 0.51213 0.00455 0.09314 0.0
C2783 C 0.50867 0.98551 0.09419 0.0
C2784 C 0.50298 0.97581 0.10562 0.0
H2785 H 0.53783 0.00231 0.14608 0.0
H2786 H 0.53522 0.00186 0.12932 0.0
H2787 H 0.52575 0.0139 0.13891 0.0
H2788 H 0.5013 0.01084 0.12304 0.0
H2789 H 0.51128 0.02785 0.10317 0.0
H2790 H 0.03879 0.54714 0.18886 0.0
H2791 H 0.02505 0.54142 0.1677 0.0
H2792 H 0.03512 0.49326 0.16333 0.0
H2793 H 0.04863 0.49875 0.18457 0.0
H2794 H 0.04306 0.54279 0.14584 0.0
H2795 H 0.97831 0.46945 0.15209 0.0
H2796 H 0.99238 0.48462 0.16511 0.0
H2797 H 1.00133 0.47128 0.15639 0.0
C2798 C 0.03802 0.5353 0.1834 0.0
C2799 C 0.04473 0.52336 0.18837 0.0
C2800 C 0.03013 0.53202 0.17133 0.0
C2801 C 0.0288 0.51676 0.164 0.0
C2802 C 0.03554 0.50482 0.16893 0.0
H2803 H 0.99417 0.48433 0.08617 0.0
H2804 H 0.00769 0.48773 0.10733 0.0
C2805 C 0.04329 0.508 0.18105 0.0
C2806 C 0.02109 0.5139 0.15104 0.0
H2807 H 0.98523 0.48131 0.13137 0.0
C2808 C 0.03038 0.52936 0.14269 0.0
C2809 C 0.00456 0.49635 0.14694 0.0
C2810 C 0.99343 0.47953 0.15562 0.0
C2811 C 0.02363 0.52774 0.13036 0.0
C2812 C 0.00711 0.51024 0.1263 0.0
C2813 C 0.99794 0.49468 0.13455 0.0
C2814 C 0.99884 0.50807 0.11359 0.0
C2815 C 0.03426 0.54467 0.12169 0.0
C2816 C 0.98926 0.51824 0.11023 0.0
C2817 C 0.9815 0.5163 0.0982 0.0
C2818 C 0.98326 0.50418 0.08933 0.0
C2819 C 0.99279 0.49392 0.09277 0.0
C2820 C 1.00041 0.49576 0.10485 0.0
H2821 H 0.04887 0.55567 0.12548 0.0
H2822 H 0.03633 0.5397 0.1124 0.0
H2823 H 0.02526 0.55172 0.12034 0.0
H2824 H 0.9878 0.52769 0.11691 0.0
H2825 H 0.97438 0.5245 0.09579 0.0
H2826 H 0.48503 0.51043 0.19461 0.0
H2827 H 0.49413 0.50594 0.17354 0.0
H2828 H 0.46128 0.53106 0.15805 0.0
H2829 H 0.45254 0.53611 0.17912 0.0
H2830 H 0.47013 0.48515 0.15295 0.0
H2831 H 0.51651 0.56359 0.14294 0.0
H2832 H 0.50859 0.55458 0.15851 0.0
H2833 H 0.4918 0.55607 0.14774 0.0
C2834 C 0.47985 0.51513 0.18673 0.0
C2835 C 0.4682 0.52379 0.18857 0.0
C2836 C 0.48495 0.51243 0.1747 0.0
C2837 C 0.47862 0.51842 0.16425 0.0
C2838 C 0.46659 0.52662 0.166 0.0
H2839 H 0.48688 0.48842 0.08666 0.0
H2840 H 0.47498 0.4922 0.10701 0.0
C2841 C 0.46144 0.52931 0.17804 0.0
C2842 C 0.48479 0.51619 0.15156 0.0
H2843 H 0.51168 0.54178 0.12643 0.0
C2844 C 0.47917 0.49751 0.14713 0.0
C2845 C 0.49678 0.53237 0.14405 0.0
C2846 C 0.50395 0.55282 0.14855 0.0
C2847 C 0.48515 0.49457 0.13536 0.0
C2848 C 0.49689 0.51073 0.12777 0.0
C2849 C 0.50256 0.52941 0.13222 0.0
C2850 C 0.50399 0.50863 0.11536 0.0
C2851 C 0.47929 0.47423 0.13127 0.0
C2852 C 0.52426 0.51701 0.11321 0.0
C2853 C 0.53111 0.51503 0.10157 0.0
C2854 C 0.51783 0.50472 0.09181 0.0
C2855 C 0.49751 0.49656 0.09395 0.0
C2856 C 0.49067 0.49853 0.10561 0.0
H2857 H 0.47425 0.46406 0.13924 0.0
H2858 H 0.467 0.46901 0.12441 0.0
H2859 H 0.49177 0.47384 0.12668 0.0
H2860 H 0.53479 0.52499 0.12059 0.0
H2861 H 0.54685 0.52175 0.10019 0.0
H2862 H 0.98579 0.48918 0.81823 0.0
H2863 H 0.99979 0.49403 0.83928 0.0
H2864 H 0.94191 0.47156 0.85496 0.0
H2865 H 0.9277 0.46614 0.83393 0.0
H2866 H 0.99809 0.51642 0.85927 0.0
H2867 H 0.9627 0.43839 0.87102 0.0
H2868 H 0.96399 0.44671 0.85524 0.0
H2869 H 0.94605 0.44625 0.86583 0.0
C2870 C 0.97602 0.48512 0.82615 0.0
C2871 C 0.95561 0.47715 0.82441 0.0
C2872 C 0.98405 0.48802 0.83817 0.0
C2873 C 0.97184 0.48291 0.84865 0.0
C2874 C 0.95154 0.47532 0.84697 0.0
H2875 H 0.00899 0.51577 0.92593 0.0
H2876 H 0.99452 0.51168 0.90508 0.0
C2877 C 0.94348 0.47242 0.83496 0.0
C2878 C 0.98042 0.48553 0.86133 0.0
H2879 H 0.98017 0.46085 0.8873 0.0
C2880 C 0.9942 0.50429 0.86541 0.0
C2881 C 0.97544 0.46963 0.86924 0.0
C2882 C 0.96137 0.44908 0.86511 0.0
C2883 C 0.00303 0.50761 0.87728 0.0
C2884 C 0.99773 0.49176 0.88529 0.0
C2885 C 0.98408 0.47298 0.88116 0.0
C2886 C 0.00645 0.49428 0.89791 0.0
C2887 C 0.01824 0.528 0.88105 0.0
C2888 C 0.01759 0.48549 0.90086 0.0
C2889 C 0.02572 0.48764 0.91279 0.0
C2890 C 0.02274 0.49852 0.92203 0.0
C2891 C 0.01144 0.50719 0.91906 0.0
C2892 C 0.00333 0.50505 0.90711 0.0
H2893 H 0.02404 0.53767 0.87285 0.0
H2894 H 0.0114 0.53396 0.88741 0.0
H2895 H 0.03075 0.52821 0.88608 0.0
H2896 H 0.02003 0.477 0.8939 0.0
H2897 H 0.03409 0.48054 0.91484 0.0
H2898 H 0.51343 0.44416 0.82875 0.0
H2899 H 0.50392 0.45008 0.84928 0.0
H2900 H 0.55661 0.5061 0.85104 0.0
H2901 H 0.56662 0.50003 0.83065 0.0
H2902 H 0.54869 0.4856 0.87334 0.0
H2903 H 0.48269 0.48686 0.85584 0.0
H2904 H 0.48318 0.46527 0.85165 0.0
H2905 H 0.50155 0.48823 0.84559 0.0
C2906 C 0.52315 0.45765 0.83355 0.0
C2907 C 0.54078 0.47166 0.82801 0.0
C2908 C 0.51756 0.4611 0.84523 0.0
C2909 C 0.52938 0.47867 0.85159 0.0
C2910 C 0.54719 0.4925 0.84624 0.0
H2911 H 0.49108 0.52198 0.91388 0.0
H2912 H 0.50345 0.51748 0.89393 0.0
C2913 C 0.55282 0.48907 0.83455 0.0
C2914 C 0.5231 0.4826 0.86379 0.0
H2915 H 0.48621 0.48649 0.87786 0.0
C2916 C 0.53507 0.48587 0.87434 0.0
C2917 C 0.50547 0.48324 0.86502 0.0
C2918 C 0.49256 0.4809 0.85391 0.0
C2919 C 0.52966 0.48935 0.88616 0.0
C2920 C 0.51166 0.48925 0.88747 0.0
C2921 C 0.49991 0.48637 0.87687 0.0
C2922 C 0.50473 0.4922 0.89974 0.0
C2923 C 0.54342 0.49338 0.89709 0.0
C2924 C 0.50118 0.47939 0.9096 0.0
C2925 C 0.49409 0.48191 0.92101 0.0
C2926 C 0.49021 0.49719 0.92274 0.0
C2927 C 0.49371 0.50995 0.91281 0.0
C2928 C 0.50087 0.50745 0.90143 0.0
H2929 H 0.55868 0.49821 0.89398 0.0
H2930 H 0.54371 0.50464 0.90339 0.0
H2931 H 0.53825 0.47992 0.90252 0.0
H2932 H 0.50359 0.46724 0.90841 0.0
H2933 H 0.49124 0.47165 0.9284 0.0
H2934 H 0.50806 0.0698 0.82825 0.0
H2935 H 0.50004 0.05611 0.84918 0.0
H2936 H 0.55347 0.0532 0.85008 0.0
H2937 H 0.56162 0.06692 0.82911 0.0
H2938 H 0.49351 0.02104 0.85695 0.0
H2939 H 0.5564 0.07935 0.88337 0.0
H2940 H 0.55028 0.08254 0.86763 0.0
H2941 H 0.56367 0.07003 0.8704 0.0
C2942 C 0.51812 0.06623 0.83288 0.0
C2943 C 0.5355 0.06947 0.82696 0.0
C2944 C 0.51355 0.05848 0.84489 0.0
C2945 C 0.52626 0.05385 0.85131 0.0
C2946 C 0.54364 0.05708 0.84546 0.0
H2947 H 0.49274 0.97384 0.91327 0.0
H2948 H 0.50329 0.99043 0.89328 0.0
C2949 C 0.54827 0.0649 0.83344 0.0
C2950 C 0.5208 0.04481 0.86387 0.0
H2951 H 0.53638 0.05001 0.89425 0.0
C2952 C 0.50287 0.02742 0.86511 0.0
C2953 C 0.53287 0.05325 0.87457 0.0
C2954 C 0.55179 0.07241 0.874 0.0
C2955 C 0.49683 0.01809 0.87667 0.0
C2956 C 0.50922 0.02614 0.88727 0.0
C2957 C 0.52699 0.04372 0.8861 0.0
C2958 C 0.50386 0.01652 0.89964 0.0
C2959 C 0.47705 -0.00018 0.87744 0.0
C2960 C 0.50137 0.02591 0.91003 0.0
C2961 C 0.49537 0.01645 0.92152 0.0
C2962 C 0.49178 0.99741 0.92285 0.0
C2963 C 0.49494 0.98832 0.91251 0.0
C2964 C 0.50098 0.99779 0.90107 0.0
H2965 H 0.46725 0.99852 0.86953 0.0
H2966 H 0.47919 0.98709 0.87708 0.0
H2967 H 0.46956 0.99935 0.88632 0.0
H2968 H 0.50361 0.0404 0.90918 0.0
H2969 H 0.49299 0.02385 0.92925 0.0
H2970 H 0.10794 0.26422 0.51966 0.0
H2971 H 0.11611 0.27867 0.49891 0.0
H2972 H 0.16967 0.276 0.49933 0.0
H2973 H 0.16196 0.26217 0.52025 0.0
H2974 H 0.17575 0.31127 0.49177 0.0
H2975 H 0.11301 0.25261 0.46545 0.0
H2976 H 0.10571 0.26155 0.47862 0.0
H2977 H 0.11953 0.2494 0.48108 0.0
C2978 C 0.1215 0.26677 0.51537 0.0
C2979 C 0.13426 0.26196 0.52166 0.0
C2980 C 0.12603 0.27481 0.50342 0.0
C2981 C 0.14335 0.27813 0.49744 0.0
C2982 C 0.15614 0.27342 0.5037 0.0
H2983 H 0.17528 0.31017 0.41944 0.0
H2984 H 0.16543 0.29307 0.43938 0.0
C2985 C 0.15163 0.26538 0.51564 0.0
C2986 C 0.14858 0.28728 0.48491 0.0
H2987 H 0.13242 0.28221 0.45467 0.0
C2988 C 0.1663 0.30486 0.48365 0.0
C2989 C 0.13639 0.27881 0.47426 0.0
C2990 C 0.11769 0.25946 0.47485 0.0
C2991 C 0.17197 0.3144 0.47214 0.0
C2992 C 0.15943 0.30632 0.4616 0.0
C2993 C 0.14192 0.28851 0.46277 0.0
C2994 C 0.16431 0.31621 0.44931 0.0
C2995 C 0.19149 0.33295 0.47133 0.0
C2996 C 0.16642 0.33467 0.44816 0.0
C2997 C 0.17198 0.34444 0.43679 0.0
C2998 C 0.17546 0.33593 0.42626 0.0
C2999 C 0.17263 0.31712 0.42732 0.0
C3000 C 0.16708 0.30736 0.43873 0.0
H3001 H 0.20153 0.3344 0.47914 0.0
H3002 H 0.19891 0.33372 0.46236 0.0
H3003 H 0.18898 0.34545 0.47185 0.0
H3004 H 0.16389 0.34161 0.4561 0.0
H3005 H 0.17358 0.35871 0.43625 0.0
H3006 H 0.70754 0.87972 0.52211 0.0
H3007 H 0.69326 0.87364 0.5011 0.0
H3008 H 0.70512 0.82671 0.49624 0.0
H3009 H 0.71924 0.83259 0.51734 0.0
H3010 H 0.71093 0.87548 0.47893 0.0
H3011 H 0.64772 0.80137 0.48582 0.0
H3012 H 0.66191 0.81686 0.4987 0.0
H3013 H 0.6712 0.80399 0.48978 0.0
C3014 C 0.7071 0.8681 0.51657 0.0
C3015 C 0.71448 0.85661 0.52137 0.0
C3016 C 0.69888 0.8646 0.50459 0.0
C3017 C 0.69788 0.84956 0.49717 0.0
C3018 C 0.7053 0.83809 0.50191 0.0
H3019 H 0.66083 0.81612 0.41977 0.0
H3020 H 0.67493 0.81978 0.44078 0.0
C3021 C 0.71341 0.84149 0.51395 0.0
C3022 C 0.68969 0.84643 0.48432 0.0
H3023 H 0.65352 0.81321 0.46509 0.0
C3024 C 0.69834 0.86188 0.47592 0.0
C3025 C 0.67329 0.82865 0.48041 0.0
C3026 C 0.66285 0.81181 0.48917 0.0
C3027 C 0.69107 0.86002 0.4637 0.0
C3028 C 0.67466 0.84231 0.45983 0.0
C3029 C 0.66613 0.82676 0.46814 0.0
C3030 C 0.66587 0.83985 0.44725 0.0
C3031 C 0.70105 0.87695 0.45497 0.0
C3032 C 0.65595 0.84977 0.44407 0.0
C3033 C 0.64786 0.84769 0.43213 0.0
C3034 C 0.64963 0.83569 0.42317 0.0
C3035 C 0.65943 0.82563 0.42645 0.0
C3036 C 0.66739 0.82761 0.43843 0.0
H3037 H 0.71574 0.88815 0.45854 0.0
H3038 H 0.70285 0.87204 0.44559 0.0
H3039 H 0.69176 0.88373 0.45389 0.0
H3040 H 0.65451 0.85916 0.45082 0.0
H3041 H 0.64052 0.85573 0.42984 0.0
H3042 H 0.11694 0.86819 0.51365 0.0
H3043 H 0.12498 0.86328 0.49235 0.0
H3044 H 0.15962 0.83949 0.50694 0.0
H3045 H 0.15126 0.84389 0.52823 0.0
H3046 H 0.16254 0.87935 0.48193 0.0
H3047 H 0.12435 0.79912 0.48066 0.0
H3048 H 0.11928 0.81247 0.49233 0.0
H3049 H 0.14063 0.80978 0.49382 0.0
C3050 C 0.126 0.86161 0.51232 0.0
C3051 C 0.13342 0.85638 0.52265 0.0
C3052 C 0.13068 0.85893 0.50015 0.0
C3053 C 0.1427 0.8508 0.49806 0.0
C3054 C 0.15004 0.84548 0.50833 0.0
H3055 H 0.21274 0.85835 0.43423 0.0
H3056 H 0.19993 0.86162 0.45432 0.0
C3057 C 0.14542 0.8482 0.5205 0.0
C3058 C 0.1483 0.84868 0.48518 0.0
H3059 H 0.14707 0.81556 0.46426 0.0
C3060 C 0.15904 0.86539 0.47802 0.0
C3061 C 0.1435 0.83043 0.48005 0.0
C3062 C 0.13114 0.81189 0.48705 0.0
C3063 C 0.16563 0.86442 0.46601 0.0
C3064 C 0.1616 0.84627 0.46111 0.0
C3065 C 0.15032 0.82948 0.4681 0.0
C3066 C 0.16929 0.84445 0.44885 0.0
C3067 C 0.17681 0.88281 0.45865 0.0
C3068 C 0.15631 0.83338 0.43918 0.0
C3069 C 0.16359 0.83135 0.4277 0.0
C3070 C 0.18401 0.84021 0.42572 0.0
C3071 C 0.19695 0.85121 0.43547 0.0
C3072 C 0.18966 0.85328 0.44692 0.0
H3073 H 0.1741 0.89438 0.4622 0.0
H3074 H 0.19283 0.88813 0.45949 0.0
H3075 H 0.17269 0.88021 0.4486 0.0
H3076 H 0.14054 0.82633 0.44051 0.0
H3077 H 0.15324 0.82258 0.42044 0.0
H3078 H 0.65339 0.82284 0.15216 0.0
H3079 H 0.66692 0.82697 0.17329 0.0
H3080 H 0.6085 0.8024 0.18848 0.0
H3081 H 0.59475 0.79764 0.16736 0.0
H3082 H 0.66432 0.848 0.19355 0.0
H3083 H 0.6299 0.76965 0.20409 0.0
H3084 H 0.63118 0.77849 0.18846 0.0
H3085 H 0.61293 0.77724 0.19911 0.0
C3086 C 0.64339 0.81815 0.15999 0.0
C3087 C 0.62298 0.80979 0.15807 0.0
C3088 C 0.65116 0.82064 0.17205 0.0
C3089 C 0.63868 0.81474 0.18241 0.0
C3090 C 0.61834 0.80675 0.18058 0.0
H3091 H 0.67437 0.84561 0.26009 0.0
H3092 H 0.66011 0.8419 0.23921 0.0
C3093 C 0.61055 0.80425 0.16851 0.0
C3094 C 0.64699 0.81701 0.19515 0.0
H3095 H 0.64659 0.7916 0.22077 0.0
C3096 C 0.66047 0.83569 0.19952 0.0
C3097 C 0.64208 0.80087 0.20282 0.0
C3098 C 0.62837 0.7804 0.19838 0.0
C3099 C 0.66907 0.8387 0.21143 0.0
C3100 C 0.66381 0.82261 0.21921 0.0
C3101 C 0.65046 0.80391 0.2148 0.0
C3102 C 0.6723 0.8248 0.23189 0.0
C3103 C 0.68401 0.85903 0.21549 0.0
C3104 C 0.68348 0.81603 0.23476 0.0
C3105 C 0.69146 0.81793 0.24671 0.0
C3106 C 0.68831 0.82857 0.25604 0.0
C3107 C 0.67695 0.83721 0.25315 0.0
C3108 C 0.66897 0.83529 0.24118 0.0
H3109 H 0.68996 0.86896 0.20742 0.0
H3110 H 0.67688 0.86469 0.22186 0.0
H3111 H 0.69646 0.85926 0.22061 0.0
H3112 H 0.68608 0.80775 0.22772 0.0
H3113 H 0.69987 0.81085 0.24869 0.0
H3114 H 0.17574 0.7816 0.15995 0.0
H3115 H 0.16678 0.7873 0.18075 0.0
H3116 H 0.22413 0.83816 0.18505 0.0
H3117 H 0.23305 0.83271 0.16411 0.0
H3118 H 0.18263 0.7884 0.20327 0.0
H3119 H 0.18882 0.8596 0.19396 0.0
H3120 H 0.1891 0.84421 0.18164 0.0
H3121 H 0.21094 0.85897 0.1908 0.0
C3122 C 0.18646 0.79398 0.16534 0.0
C3123 C 0.20508 0.80675 0.16038 0.0
C3124 C 0.18131 0.79725 0.17721 0.0
C3125 C 0.19465 0.81333 0.18439 0.0
C3126 C 0.21339 0.82595 0.17956 0.0
H3127 H 0.18593 0.84746 0.26087 0.0
H3128 H 0.19815 0.84352 0.24062 0.0
C3129 C 0.2185 0.82279 0.16761 0.0
C3130 C 0.18897 0.81655 0.19703 0.0
H3131 H 0.18307 0.84892 0.21495 0.0
C3132 C 0.18271 0.80163 0.2058 0.0
C3133 C 0.18906 0.83382 0.20034 0.0
C3134 C 0.19466 0.85 0.19116 0.0
C3135 C 0.17656 0.80351 0.21777 0.0
C3136 C 0.17664 0.82073 0.22103 0.0
C3137 C 0.18313 0.83577 0.21238 0.0
C3138 C 0.16932 0.82306 0.23327 0.0
C3139 C 0.17002 0.78713 0.22688 0.0
C3140 C 0.14908 0.81296 0.23574 0.0
C3141 C 0.14206 0.81524 0.24724 0.0
C3142 C 0.15519 0.82761 0.25649 0.0
C3143 C 0.17549 0.8377 0.25397 0.0
C3144 C 0.18248 0.83554 0.24241 0.0
H3145 H 0.17385 0.77614 0.22368 0.0
H3146 H 0.17686 0.79275 0.23619 0.0
H3147 H 0.15381 0.77989 0.22798 0.0
H3148 H 0.13872 0.80334 0.22876 0.0
H3149 H 0.12637 0.80715 0.24895 0.0
H3150 H 0.17622 0.40356 0.16139 0.0
H3151 H 0.16877 0.38964 0.18229 0.0
H3152 H 0.22338 0.38893 0.18282 0.0
H3153 H 0.23092 0.40281 0.16189 0.0
H3154 H 0.16379 0.35484 0.18981 0.0
H3155 H 0.22541 0.41448 0.21628 0.0
H3156 H 0.2188 0.41746 0.20063 0.0
H3157 H 0.2332 0.40593 0.20316 0.0
C3158 C 0.18665 0.40042 0.16593 0.0
C3159 C 0.20419 0.40432 0.15993 0.0
C3160 C 0.18241 0.39255 0.17792 0.0
C3161 C 0.19562 0.38847 0.18422 0.0
C3162 C 0.21316 0.39237 0.17829 0.0
H3163 H 0.16675 0.30829 0.24557 0.0
H3164 H 0.17635 0.32535 0.2257 0.0
C3165 C 0.21744 0.40029 0.1663 0.0
C3166 C 0.19055 0.37929 0.19674 0.0
H3167 H 0.20651 0.38477 0.22705 0.0
C3168 C 0.17311 0.36143 0.19796 0.0
C3169 C 0.20257 0.38799 0.20743 0.0
C3170 C 0.22095 0.40761 0.20688 0.0
C3171 C 0.16754 0.35188 0.20946 0.0
C3172 C 0.17991 0.36023 0.22004 0.0
C3173 C 0.19715 0.37828 0.21891 0.0
C3174 C 0.1751 0.35038 0.23234 0.0
C3175 C 0.14828 0.33305 0.21022 0.0
C3176 C 0.17187 0.35906 0.24283 0.0
C3177 C 0.16637 0.34933 0.25425 0.0
C3178 C 0.16405 0.33072 0.2554 0.0
C3179 C 0.16796 0.32239 0.24496 0.0
C3180 C 0.17347 0.33213 0.23358 0.0
H3181 H 0.13824 0.33129 0.20235 0.0
H3182 H 0.15121 0.32081 0.20979 0.0
H3183 H 0.14067 0.3321 0.21914 0.0
H3184 H 0.17313 0.37318 0.24211 0.0
H3185 H 0.16338 0.35613 0.26206 0.0
H3186 H 0.8316 0.60226 0.85538 0.0
H3187 H 0.83938 0.61616 0.83447 0.0
H3188 H 0.78058 0.60711 0.83076 0.0
H3189 H 0.77285 0.59354 0.85179 0.0
H3190 H 0.82415 0.60119 0.812 0.0
H3191 H 0.81237 0.66309 0.82148 0.0
H3192 H 0.81336 0.64825 0.83377 0.0
H3193 H 0.79118 0.64004 0.82469 0.0
C3194 C 0.82031 0.6032 0.8501 0.0
C3195 C 0.80163 0.59689 0.85529 0.0
C3196 C 0.82479 0.6112 0.83815 0.0
C3197 C 0.81071 0.61305 0.83108 0.0
C3198 C 0.7919 0.60639 0.83614 0.0
H3199 H 0.81563 0.65628 0.7552 0.0
H3200 H 0.80419 0.63916 0.7751 0.0
C3201 C 0.78747 0.59856 0.84815 0.0
C3202 C 0.8157 0.62166 0.81836 0.0
H3203 H 0.81806 0.65808 0.8004 0.0
C3204 C 0.82283 0.61364 0.80949 0.0
C3205 C 0.814 0.63795 0.81504 0.0
C3206 C 0.8075 0.64797 0.82427 0.0
C3207 C 0.82826 0.6214 0.79745 0.0
C3208 C 0.82658 0.63765 0.79417 0.0
C3209 C 0.8192 0.64553 0.80293 0.0
C3210 C 0.83333 0.64727 0.7819 0.0
C3211 C 0.83571 0.61216 0.78828 0.0
C3212 C 0.85349 0.6575 0.77915 0.0
C3213 C 0.86005 0.66735 0.76786 0.0
C3214 C 0.84658 0.66712 0.75904 0.0
C3215 C 0.82635 0.65659 0.76174 0.0
C3216 C 0.8198 0.6469 0.77312 0.0
H3217 H 0.83237 0.59753 0.79129 0.0
H3218 H 0.82913 0.61096 0.77889 0.0
H3219 H 0.85192 0.62139 0.78745 0.0
H3220 H 0.86419 0.65812 0.78583 0.0
H3221 H 0.87571 0.67519 0.76602 0.0
H3222 H 0.41348 0.20708 0.84571 0.0
H3223 H 0.39956 0.20177 0.8246 0.0
H3224 H 0.34098 0.1699 0.83966 0.0
H3225 H 0.35477 0.1751 0.86079 0.0
H3226 H 0.34624 0.15203 0.81897 0.0
H3227 H 0.37249 0.2296 0.80989 0.0
H3228 H 0.39162 0.22465 0.81431 0.0
H3229 H 0.37269 0.22066 0.82529 0.0
C3230 C 0.39763 0.19903 0.84452 0.0
C3231 C 0.38521 0.19161 0.85492 0.0
C3232 C 0.38971 0.19603 0.83247 0.0
C3233 C 0.36924 0.18573 0.8306 0.0
C3234 C 0.35682 0.17794 0.84092 0.0
H3235 H 0.30534 0.18593 0.76466 0.0
H3236 H 0.3192 0.18932 0.78561 0.0
C3237 C 0.36472 0.18086 0.85297 0.0
C3238 C 0.36071 0.1831 0.81789 0.0
H3239 H 0.35802 0.20785 0.7928 0.0
C3240 C 0.34878 0.16422 0.81324 0.0
C3241 C 0.36386 0.19904 0.81052 0.0
C3242 C 0.37571 0.21963 0.81527 0.0
C3243 C 0.34003 0.16082 0.80134 0.0
C3244 C 0.34363 0.17678 0.79384 0.0
C3245 C 0.35543 0.19566 0.79854 0.0
C3246 C 0.33496 0.17424 0.78118 0.0
C3247 C 0.32669 0.1402 0.79704 0.0
C3248 C 0.33933 0.16475 0.77172 0.0
C3249 C 0.33125 0.1626 0.75976 0.0
C3250 C 0.31878 0.17006 0.75701 0.0
C3251 C 0.3146 0.17973 0.76651 0.0
C3252 C 0.32263 0.18181 0.77846 0.0
H3253 H 0.32137 0.13002 0.805 0.0
H3254 H 0.31374 0.13877 0.79185 0.0
H3255 H 0.33495 0.13581 0.7907 0.0
H3256 H 0.34911 0.15912 0.77355 0.0
H3257 H 0.33466 0.15495 0.75271 0.0
H3258 H 0.77256 0.16594 0.85263 0.0
H3259 H 0.78095 0.16104 0.8314 0.0
H3260 H 0.83887 0.21088 0.83588 0.0
H3261 H 0.83052 0.21631 0.8569 0.0
H3262 H 0.7976 0.19141 0.81047 0.0
H3263 H 0.84559 0.16242 0.8259 0.0
H3264 H 0.82656 0.16183 0.83567 0.0
H3265 H 0.84924 0.18412 0.8336 0.0
C3266 C 0.78701 0.17601 0.84906 0.0
C3267 C 0.80091 0.19145 0.85655 0.0
C3268 C 0.79179 0.17312 0.83696 0.0
C3269 C 0.81057 0.18549 0.83217 0.0
C3270 C 0.82437 0.20104 0.8395 0.0
H3271 H 0.8771 0.1924 0.7667 0.0
H3272 H 0.86508 0.196 0.78701 0.0
C3273 C 0.81959 0.20403 0.85154 0.0
C3274 C 0.81596 0.18217 0.81954 0.0
H3275 H 0.84556 0.16879 0.8044 0.0
C3276 C 0.80796 0.18633 0.80909 0.0
C3277 C 0.82954 0.17563 0.81785 0.0
C3278 C 0.83819 0.17059 0.82881 0.0
C3279 C 0.81367 0.18467 0.79692 0.0
C3280 C 0.82737 0.17821 0.79521 0.0
C3281 C 0.8351 0.17376 0.80571 0.0
C3282 C 0.83434 0.1764 0.78266 0.0
C3283 C 0.80551 0.1905 0.78607 0.0
C3284 C 0.82108 0.16413 0.77346 0.0
C3285 C 0.82792 0.16212 0.7618 0.0
C3286 C 0.84819 0.17212 0.75921 0.0
C3287 C 0.86143 0.18435 0.76846 0.0
C3288 C 0.85457 0.18647 0.78005 0.0
H3289 H 0.79963 0.19997 0.78911 0.0
H3290 H 0.81695 0.19823 0.7789 0.0
H3291 H 0.79325 0.17732 0.78167 0.0
H3292 H 0.80546 0.15583 0.77535 0.0
H3293 H 0.81741 0.15239 0.75492 0.0
H3294 H 0.28629 0.11453 0.49391 0.0
H3295 H 0.30047 0.12076 0.515 0.0
H3296 H 0.3094 0.17864 0.51406 0.0
H3297 H 0.29538 0.17259 0.4929 0.0
H3298 H 0.34325 0.17445 0.52215 0.0
H3299 H 0.2737 0.1272 0.5474 0.0
H3300 H 0.27859 0.11653 0.53402 0.0
H3301 H 0.27405 0.13626 0.53193 0.0
C3302 C 0.29136 0.12861 0.49818 0.0
C3303 C 0.28973 0.14308 0.49178 0.0
C3304 C 0.29929 0.13208 0.51024 0.0
C3305 C 0.30577 0.15008 0.51608 0.0
C3306 C 0.30434 0.16462 0.5097 0.0
H3307 H 0.34039 0.18225 0.59361 0.0
H3308 H 0.32585 0.17763 0.57274 0.0
C3309 C 0.29627 0.16112 0.49766 0.0
C3310 C 0.3144 0.15382 0.52877 0.0
H3311 H 0.30333 0.14043 0.55919 0.0
C3312 C 0.33455 0.16709 0.53027 0.0
C3313 C 0.30291 0.14428 0.5393 0.0
C3314 C 0.28107 0.13036 0.53817 0.0
C3315 C 0.34364 0.17076 0.54206 0.0
C3316 C 0.33225 0.16084 0.55254 0.0
C3317 C 0.31201 0.14789 0.55108 0.0
C3318 C 0.34112 0.16365 0.56512 0.0
C3319 C 0.36532 0.18528 0.54326 0.0
C3320 C 0.35434 0.15711 0.56772 0.0
C3321 C 0.3625 0.1595 0.57966 0.0
C3322 C 0.35759 0.16851 0.58922 0.0
C3323 C 0.3443 0.17502 0.58654 0.0
C3324 C 0.33606 0.17251 0.5746 0.0
H3325 H 0.37107 0.19445 0.53484 0.0
H3326 H 0.36822 0.19479 0.55156 0.0
H3327 H 0.37359 0.17747 0.54453 0.0
H3328 H 0.35817 0.14996 0.56054 0.0
H3329 H 0.3724 0.15401 0.58145 0.0
H3330 H 0.84576 0.11472 0.49436 0.0
H3331 H 0.83715 0.12112 0.51505 0.0
H3332 H 0.89099 0.17621 0.51646 0.0
H3333 H 0.9001 0.16963 0.49591 0.0
H3334 H 0.88329 0.15561 0.53862 0.0
H3335 H 0.8178 0.15904 0.52261 0.0
H3336 H 0.8173 0.13707 0.51812 0.0
H3337 H 0.83595 0.15981 0.51195 0.0
C3338 C 0.8559 0.12812 0.49911 0.0
C3339 C 0.87362 0.14168 0.49344 0.0
C3340 C 0.85083 0.13185 0.51088 0.0
C3341 C 0.86326 0.14928 0.5172 0.0
C3342 C 0.88111 0.16273 0.51169 0.0
H3343 H 0.82771 0.19229 0.58109 0.0
H3344 H 0.83977 0.18832 0.56088 0.0
C3345 C 0.88621 0.159 0.49991 0.0
C3346 C 0.85766 0.15339 0.52959 0.0
H3347 H 0.8218 0.15794 0.54456 0.0
C3348 C 0.8699 0.15622 0.53992 0.0
C3349 C 0.84034 0.15446 0.53123 0.0
C3350 C 0.82717 0.15263 0.52038 0.0
C3351 C 0.86504 0.15965 0.55193 0.0
C3352 C 0.8473 0.15993 0.55365 0.0
C3353 C 0.8353 0.15753 0.54325 0.0
C3354 C 0.84084 0.16272 0.56612 0.0
C3355 C 0.87907 0.16318 0.56261 0.0
C3356 C 0.83736 0.14959 0.57578 0.0
C3357 C 0.83045 0.15182 0.58735 0.0
C3358 C 0.82669 0.1671 0.58944 0.0
C3359 C 0.83025 0.18024 0.57975 0.0
C3360 C 0.83722 0.17805 0.56821 0.0
H3361 H 0.89417 0.16789 0.55924 0.0
H3362 H 0.87974 0.17435 0.56916 0.0
H3363 H 0.87388 0.14953 0.56784 0.0
H3364 H 0.83958 0.13738 0.5743 0.0
H3365 H 0.82756 0.14127 0.59455 0.0
H3366 H 0.88756 0.7644 0.50182 0.0
H3367 H 0.88019 0.75135 0.523 0.0
H3368 H 0.84542 0.69362 0.50784 0.0
H3369 H 0.85304 0.70647 0.48666 0.0
H3370 H 0.84292 0.72969 0.53417 0.0
H3371 H 0.88249 0.68833 0.53276 0.0
H3372 H 0.88676 0.70684 0.52156 0.0
H3373 H 0.8656 0.68302 0.51997 0.0
C3374 C 0.87856 0.7489 0.50298 0.0
C3375 C 0.87094 0.73649 0.49251 0.0
C3376 C 0.87427 0.74148 0.5151 0.0
C3377 C 0.86246 0.72148 0.51702 0.0
C3378 C 0.85483 0.70906 0.5066 0.0
H3379 H 0.79578 0.65749 0.58096 0.0
H3380 H 0.80769 0.67448 0.5612 0.0
C3381 C 0.85903 0.71647 0.49449 0.0
C3382 C 0.85756 0.71362 0.52988 0.0
H3383 H 0.86061 0.6819 0.54978 0.0
C3384 C 0.84691 0.71934 0.53762 0.0
C3385 C 0.86299 0.70033 0.53445 0.0
C3386 C 0.87525 0.69438 0.52681 0.0
C3387 C 0.84099 0.71163 0.54963 0.0
C3388 C 0.84567 0.69769 0.55398 0.0
C3389 C 0.85688 0.69246 0.54641 0.0
C3390 C 0.83854 0.6879 0.56619 0.0
C3391 C 0.82981 0.71852 0.55758 0.0
C3392 C 0.85192 0.68956 0.57553 0.0
C3393 C 0.84515 0.67975 0.58685 0.0
C3394 C 0.82485 0.66789 0.58898 0.0
C3395 C 0.81151 0.66635 0.57959 0.0
C3396 C 0.81829 0.67622 0.56833 0.0
H3397 H 0.83206 0.73271 0.55441 0.0
H3398 H 0.81384 0.70784 0.55692 0.0
H3399 H 0.83436 0.71987 0.56754 0.0
H3400 H 0.86763 0.69839 0.57404 0.0
H3401 H 0.85582 0.68109 0.59381 0.0
loop_
_geom_bond_atom_site_label_1
_geom_bond_atom_site_label_2
_geom_bond_distance
_geom_bond_site_symmetry_2
_ccdc_geom_bond_type
C0 C1 1.386 . S
C0 C2 1.397 . S
C0 H24 0.931 . S
C1 C0 1.386 . S
C1 C5 1.397 . S
C2 C0 1.397 . S
C2 C3 1.384 . S
C2 H25 0.930 . S
C3 C2 1.384 . S
C3 C4 1.377 . S
C3 C6 1.481 . S
C4 C3 1.377 . S
C4 C5 1.389 . S
C4 H26 0.929 . S
C5 C1 1.397 . S
C5 C4 1.389 . S
C5 H27 0.931 . S
C6 C3 1.481 . S
C6 C7 1.387 . S
C6 C11 1.390 . S
C7 C6 1.387 . S
C7 C8 1.401 . S
C7 H28 0.930 . S
C8 C7 1.401 . S
C8 C9 1.376 . S
C8 C17 1.511 . S
C9 C8 1.376 . S
C9 C10 1.392 . S
C9 H30 0.931 . S
C10 C9 1.392 . S
C10 C11 1.361 . S
C10 C12 1.500 . S
C11 C6 1.390 . S
C11 C10 1.361 . S
C11 H29 0.931 . S
C12 C10 1.500 . S
C12 C13 1.371 . S
C12 C14 1.365 . S
C13 C12 1.371 . S
C13 C23 1.386 . S
C13 H31 0.931 . S
C14 C12 1.365 . S
C14 C15 1.409 . S
C14 H32 0.929 . S
C15 C14 1.409 . S
C15 C16 1.380 . S
C15 H33 0.930 . S
C16 C15 1.380 . S
C16 C23 1.357 . S
C17 C8 1.511 . S
C17 C18 1.341 . S
C17 C19 1.371 . S
C18 C17 1.341 . S
C18 C22 1.394 . S
C18 H34 0.930 . S
C19 C17 1.371 . S
C19 C20 1.392 . S
C19 H35 0.931 . S
C20 C19 1.392 . S
C20 C21 1.331 . S
C20 H38 0.932 . S
C21 C20 1.331 . S
C21 C22 1.336 . S
C22 C18 1.394 . S
C22 C21 1.336 . S
C22 H37 0.929 . S
C23 C13 1.386 . S
C23 C16 1.357 . S
C23 H36 0.928 . S
H24 C0 0.931 . S
H25 C2 0.930 . S
H26 C4 0.929 . S
H27 C5 0.931 . S
H28 C7 0.930 . S
H29 C11 0.931 . S
H30 C9 0.931 . S
H31 C13 0.931 . S
H32 C14 0.929 . S
H33 C15 0.930 . S
H34 C18 0.930 . S
H35 C19 0.931 . S
H36 C23 0.928 . S
H37 C22 0.929 . S
H38 C20 0.932 . S
C39 C40 1.386 . S
C39 C41 1.397 . S
C39 H63 0.931 . S
C40 C39 1.386 . S
C40 C44 1.397 . S
C41 C39 1.397 . S
C41 C42 1.384 . S
C41 H64 0.930 . S
C42 C41 1.384 . S
C42 C43 1.377 . S
C42 C45 1.481 . S
C43 C42 1.377 . S
C43 C44 1.389 . S
C43 H65 0.929 . S
C44 C40 1.397 . S
C44 C43 1.389 . S
C44 H66 0.931 . S
C45 C42 1.481 . S
C45 C46 1.387 . S
C45 C50 1.390 . S
C46 C45 1.387 . S
C46 C47 1.401 . S
C46 H67 0.930 . S
C47 C46 1.401 . S
C47 C48 1.376 . S
C47 C56 1.511 . S
C48 C47 1.376 . S
C48 C49 1.392 . S
C48 H69 0.931 . S
C49 C48 1.392 . S
C49 C50 1.361 . S
C49 C51 1.500 . S
C50 C45 1.390 . S
C50 C49 1.361 . S
C50 H68 0.931 . S
C51 C49 1.500 . S
C51 C52 1.371 . S
C51 C53 1.365 . S
C52 C51 1.371 . S
C52 C62 1.386 . S
C52 H70 0.931 . S
C53 C51 1.365 . S
C53 C54 1.409 . S
C53 H71 0.929 . S
C54 C53 1.409 . S
C54 C55 1.380 . S
C54 H72 0.930 . S
C55 C54 1.380 . S
C55 C62 1.357 . S
C56 C47 1.511 . S
C56 C57 1.341 . S
C56 C58 1.371 . S
C57 C56 1.341 . S
C57 C61 1.394 . S
C57 H73 0.930 . S
C58 C56 1.371 . S
C58 C59 1.392 . S
C58 H74 0.931 . S
C59 C58 1.392 . S
C59 C60 1.331 . S
C59 H77 0.932 . S
C60 C59 1.331 . S
C60 C61 1.336 . S
C61 C57 1.394 . S
C61 C60 1.336 . S
C61 H76 0.929 . S
C62 C52 1.386 . S
C62 C55 1.357 . S
C62 H75 0.928 . S
H63 C39 0.931 . S
H64 C41 0.930 . S
H65 C43 0.929 . S
H66 C44 0.931 . S
H67 C46 0.930 . S
H68 C50 0.931 . S
H69 C48 0.931 . S
H70 C52 0.931 . S
H71 C53 0.929 . S
H72 C54 0.930 . S
H73 C57 0.930 . S
H74 C58 0.931 . S
H75 C62 0.928 . S
H76 C61 0.929 . S
H77 C59 0.932 . S
C78 C79 1.386 . S
C78 C80 1.397 . S
C78 H102 0.931 . S
C79 C78 1.386 . S
C79 C83 1.397 . S
C80 C78 1.397 . S
C80 C81 1.384 . S
C80 H103 0.930 . S
C81 C80 1.384 . S
C81 C82 1.377 . S
C81 C84 1.481 . S
C82 C81 1.377 . S
C82 C83 1.389 . S
C82 H104 0.929 . S
C83 C79 1.397 . S
C83 C82 1.389 . S
C83 H105 0.931 . S
C84 C81 1.481 . S
C84 C85 1.387 . S
C84 C89 1.390 . S
C85 C84 1.387 . S
C85 C86 1.401 . S
C85 H106 0.930 . S
C86 C85 1.401 . S
C86 C87 1.376 . S
C86 C95 1.511 . S
C87 C86 1.376 . S
C87 C88 1.392 . S
C87 H108 0.931 . S
C88 C87 1.392 . S
C88 C89 1.361 . S
C88 C90 1.500 . S
C89 C84 1.390 . S
C89 C88 1.361 . S
C89 H107 0.931 . S
C90 C88 1.500 . S
C90 C91 1.371 . S
C90 C92 1.365 . S
C91 C90 1.371 . S
C91 C101 1.386 . S
C91 H109 0.931 . S
C92 C90 1.365 . S
C92 C93 1.409 . S
C92 H110 0.929 . S
C93 C92 1.409 . S
C93 C94 1.380 . S
C93 H111 0.930 . S
C94 C93 1.380 . S
C94 C101 1.357 . S
C95 C86 1.511 . S
C95 C96 1.341 . S
C95 C97 1.371 . S
C96 C95 1.341 . S
C96 C100 1.394 . S
C96 H112 0.930 . S
C97 C95 1.371 . S
C97 C98 1.392 . S
C97 H113 0.931 . S
C98 C97 1.392 . S
C98 C99 1.331 . S
C98 H116 0.932 . S
C99 C98 1.331 . S
C99 C100 1.336 . S
C100 C96 1.394 . S
C100 C99 1.336 . S
C100 H115 0.929 . S
C101 C91 1.386 . S
C101 C94 1.357 . S
C101 H114 0.928 . S
H102 C78 0.931 . S
H103 C80 0.930 . S
H104 C82 0.929 . S
H105 C83 0.931 . S
H106 C85 0.930 . S
H107 C89 0.931 . S
H108 C87 0.931 . S
H109 C91 0.931 . S
H110 C92 0.929 . S
H111 C93 0.930 . S
H112 C96 0.930 . S
H113 C97 0.931 . S
H114 C101 0.928 . S
H115 C100 0.929 . S
H116 C98 0.932 . S
C117 C118 1.386 . S
C117 C119 1.397 . S
C117 H141 0.931 . S
C118 C117 1.386 . S
C118 C122 1.397 . S
C119 C117 1.397 . S
C119 C120 1.384 . S
C119 H142 0.930 . S
C120 C119 1.384 . S
C120 C121 1.377 . S
C120 C123 1.481 . S
C121 C120 1.377 . S
C121 C122 1.389 . S
C121 H143 0.929 . S
C122 C118 1.397 . S
C122 C121 1.389 . S
C122 H144 0.931 . S
C123 C120 1.481 . S
C123 C124 1.387 . S
C123 C128 1.390 . S
C124 C123 1.387 . S
C124 C125 1.401 . S
C124 H145 0.930 . S
C125 C124 1.401 . S
C125 C126 1.376 . S
C125 C134 1.511 . S
C126 C125 1.376 . S
C126 C127 1.392 . S
C126 H147 0.931 . S
C127 C126 1.392 . S
C127 C128 1.361 . S
C127 C129 1.500 . S
C128 C123 1.390 . S
C128 C127 1.361 . S
C128 H146 0.931 . S
C129 C127 1.500 . S
C129 C130 1.371 . S
C129 C131 1.365 . S
C130 C129 1.371 . S
C130 C140 1.386 . S
C130 H148 0.931 . S
C131 C129 1.365 . S
C131 C132 1.409 . S
C131 H149 0.929 . S
C132 C131 1.409 . S
C132 C133 1.380 . S
C132 H150 0.930 . S
C133 C132 1.380 . S
C133 C140 1.357 . S
C134 C125 1.511 . S
C134 C135 1.341 . S
C134 C136 1.371 . S
C135 C134 1.341 . S
C135 C139 1.394 . S
C135 H151 0.930 . S
C136 C134 1.371 . S
C136 C137 1.392 . S
C136 H152 0.931 . S
C137 C136 1.392 . S
C137 C138 1.331 . S
C137 H155 0.932 . S
C138 C137 1.331 . S
C138 C139 1.336 . S
C139 C135 1.394 . S
C139 C138 1.336 . S
C139 H154 0.929 . S
C140 C130 1.386 . S
C140 C133 1.357 . S
C140 H153 0.928 . S
H141 C117 0.931 . S
H142 C119 0.930 . S
H143 C121 0.929 . S
H144 C122 0.931 . S
H145 C124 0.930 . S
H146 C128 0.931 . S
H147 C126 0.931 . S
H148 C130 0.931 . S
H149 C131 0.929 . S
H150 C132 0.930 . S
H151 C135 0.930 . S
H152 C136 0.931 . S
H153 C140 0.928 . S
H154 C139 0.929 . S
H155 C137 0.932 . S
C156 C157 1.386 . S
C156 C158 1.397 . S
C156 H180 0.931 . S
C157 C156 1.386 . S
C157 C161 1.397 . S
C158 C156 1.397 . S
C158 C159 1.384 . S
C158 H181 0.930 . S
C159 C158 1.384 . S
C159 C160 1.377 . S
C159 C162 1.481 . S
C160 C159 1.377 . S
C160 C161 1.389 . S
C160 H182 0.929 . S
C161 C157 1.397 . S
C161 C160 1.389 . S
C161 H183 0.931 . S
C162 C159 1.481 . S
C162 C163 1.387 . S
C162 C167 1.390 . S
C163 C162 1.387 . S
C163 C164 1.401 . S
C163 H184 0.930 . S
C164 C163 1.401 . S
C164 C165 1.376 . S
C164 C173 1.511 . S
C165 C164 1.376 . S
C165 C166 1.392 . S
C165 H186 0.931 . S
C166 C165 1.392 . S
C166 C167 1.361 . S
C166 C168 1.500 . S
C167 C162 1.390 . S
C167 C166 1.361 . S
C167 H185 0.931 . S
C168 C166 1.500 . S
C168 C169 1.371 . S
C168 C170 1.365 . S
C169 C168 1.371 . S
C169 C179 1.386 . S
C169 H187 0.931 . S
C170 C168 1.365 . S
C170 C171 1.409 . S
C170 H188 0.929 . S
C171 C170 1.409 . S
C171 C172 1.380 . S
C171 H189 0.930 . S
C172 C171 1.380 . S
C172 C179 1.357 . S
C173 C164 1.511 . S
C173 C174 1.341 . S
C173 C175 1.371 . S
C174 C173 1.341 . S
C174 C178 1.394 . S
C174 H190 0.930 . S
C175 C173 1.371 . S
C175 C176 1.392 . S
C175 H191 0.931 . S
C176 C175 1.392 . S
C176 C177 1.331 . S
C176 H194 0.932 . S
C177 C176 1.331 . S
C177 C178 1.336 . S
C178 C174 1.394 . S
C178 C177 1.336 . S
C178 H193 0.929 . S
C179 C169 1.386 . S
C179 C172 1.357 . S
C179 H192 0.928 . S
H180 C156 0.931 . S
H181 C158 0.930 . S
H182 C160 0.929 . S
H183 C161 0.931 . S
H184 C163 0.930 . S
H185 C167 0.931 . S
H186 C165 0.931 . S
H187 C169 0.931 . S
H188 C170 0.929 . S
H189 C171 0.930 . S
H190 C174 0.930 . S
H191 C175 0.931 . S
H192 C179 0.928 . S
H193 C178 0.929 . S
H194 C176 0.932 . S
C195 C196 1.386 . S
C195 C197 1.397 . S
C195 H219 0.931 . S
C196 C195 1.386 . S
C196 C200 1.397 . S
C197 C195 1.397 . S
C197 C198 1.384 . S
C197 H220 0.930 . S
C198 C197 1.384 . S
C198 C199 1.377 . S
C198 C201 1.481 . S
C199 C198 1.377 . S
C199 C200 1.389 . S
C199 H221 0.929 . S
C200 C196 1.397 . S
C200 C199 1.389 . S
C200 H222 0.931 . S
C201 C198 1.481 . S
C201 C202 1.387 . S
C201 C206 1.390 . S
C202 C201 1.387 . S
C202 C203 1.401 . S
C202 H223 0.930 . S
C203 C202 1.401 . S
C203 C204 1.376 . S
C203 C212 1.511 . S
C204 C203 1.376 . S
C204 C205 1.392 . S
C204 H225 0.931 . S
C205 C204 1.392 . S
C205 C206 1.361 . S
C205 C207 1.500 . S
C206 C201 1.390 . S
C206 C205 1.361 . S
C206 H224 0.931 . S
C207 C205 1.500 . S
C207 C208 1.371 . S
C207 C209 1.365 . S
C208 C207 1.371 . S
C208 C218 1.386 . S
C208 H226 0.931 . S
C209 C207 1.365 . S
C209 C210 1.409 . S
C209 H227 0.929 . S
C210 C209 1.409 . S
C210 C211 1.380 . S
C210 H228 0.930 . S
C211 C210 1.380 . S
C211 C218 1.357 . S
C212 C203 1.511 . S
C212 C213 1.341 . S
C212 C214 1.371 . S
C213 C212 1.341 . S
C213 C217 1.394 . S
C213 H229 0.930 . S
C214 C212 1.371 . S
C214 C215 1.392 . S
C214 H230 0.931 . S
C215 C214 1.392 . S
C215 C216 1.331 . S
C215 H233 0.932 . S
C216 C215 1.331 . S
C216 C217 1.336 . S
C217 C213 1.394 . S
C217 C216 1.336 . S
C217 H232 0.929 . S
C218 C208 1.386 . S
C218 C211 1.357 . S
C218 H231 0.928 . S
H219 C195 0.931 . S
H220 C197 0.930 . S
H221 C199 0.929 . S
H222 C200 0.931 . S
H223 C202 0.930 . S
H224 C206 0.931 . S
H225 C204 0.931 . S
H226 C208 0.931 . S
H227 C209 0.929 . S
H228 C210 0.930 . S
H229 C213 0.930 . S
H230 C214 0.931 . S
H231 C218 0.928 . S
H232 C217 0.929 . S
H233 C215 0.932 . S
C234 C235 1.386 . S
C234 C236 1.397 . S
C234 H258 0.931 . S
C235 C234 1.386 . S
C235 C239 1.397 . S
C236 C234 1.397 . S
C236 C237 1.384 . S
C236 H259 0.930 . S
C237 C236 1.384 . S
C237 C238 1.377 . S
C237 C240 1.481 . S
C238 C237 1.377 . S
C238 C239 1.389 . S
C238 H260 0.929 . S
C239 C235 1.397 . S
C239 C238 1.389 . S
C239 H261 0.931 . S
C240 C237 1.481 . S
C240 C241 1.387 . S
C240 C245 1.390 . S
C241 C240 1.387 . S
C241 C242 1.401 . S
C241 H262 0.930 . S
C242 C241 1.401 . S
C242 C243 1.376 . S
C242 C251 1.511 . S
C243 C242 1.376 . S
C243 C244 1.392 . S
C243 H264 0.931 . S
C244 C243 1.392 . S
C244 C245 1.361 . S
C244 C246 1.500 . S
C245 C240 1.390 . S
C245 C244 1.361 . S
C245 H263 0.931 . S
C246 C244 1.500 . S
C246 C247 1.371 . S
C246 C248 1.365 . S
C247 C246 1.371 . S
C247 C257 1.386 . S
C247 H265 0.931 . S
C248 C246 1.365 . S
C248 C249 1.409 . S
C248 H266 0.929 . S
C249 C248 1.409 . S
C249 C250 1.380 . S
C249 H267 0.930 . S
C250 C249 1.380 . S
C250 C257 1.357 . S
C251 C242 1.511 . S
C251 C252 1.341 . S
C251 C253 1.371 . S
C252 C251 1.341 . S
C252 C256 1.394 . S
C252 H268 0.930 . S
C253 C251 1.371 . S
C253 C254 1.392 . S
C253 H269 0.931 . S
C254 C253 1.392 . S
C254 C255 1.331 . S
C254 H272 0.932 . S
C255 C254 1.331 . S
C255 C256 1.336 . S
C256 C252 1.394 . S
C256 C255 1.336 . S
C256 H271 0.929 . S
C257 C247 1.386 . S
C257 C250 1.357 . S
C257 H270 0.928 . S
H258 C234 0.931 . S
H259 C236 0.930 . S
H260 C238 0.929 . S
H261 C239 0.931 . S
H262 C241 0.930 . S
H263 C245 0.931 . S
H264 C243 0.931 . S
H265 C247 0.931 . S
H266 C248 0.929 . S
H267 C249 0.930 . S
H268 C252 0.930 . S
H269 C253 0.931 . S
H270 C257 0.928 . S
H271 C256 0.929 . S
H272 C254 0.932 . S
C273 C274 1.386 . S
C273 C275 1.397 . S
C273 H297 0.931 . S
C274 C273 1.386 . S
C274 C278 1.397 . S
C275 C273 1.397 . S
C275 C276 1.384 . S
C275 H298 0.930 . S
C276 C275 1.384 . S
C276 C277 1.377 . S
C276 C279 1.481 . S
C277 C276 1.377 . S
C277 C278 1.389 . S
C277 H299 0.929 . S
C278 C274 1.397 . S
C278 C277 1.389 . S
C278 H300 0.931 . S
C279 C276 1.481 . S
C279 C280 1.387 . S
C279 C284 1.390 . S
C280 C279 1.387 . S
C280 C281 1.401 . S
C280 H301 0.930 . S
C281 C280 1.401 . S
C281 C282 1.376 . S
C281 C290 1.511 . S
C282 C281 1.376 . S
C282 C283 1.392 . S
C282 H303 0.931 . S
C283 C282 1.392 . S
C283 C284 1.361 . S
C283 C285 1.500 . S
C284 C279 1.390 . S
C284 C283 1.361 . S
C284 H302 0.931 . S
C285 C283 1.500 . S
C285 C286 1.371 . S
C285 C287 1.365 . S
C286 C285 1.371 . S
C286 C296 1.386 . S
C286 H304 0.931 . S
C287 C285 1.365 . S
C287 C288 1.409 . S
C287 H305 0.929 . S
C288 C287 1.409 . S
C288 C289 1.380 . S
C288 H306 0.930 . S
C289 C288 1.380 . S
C289 C296 1.357 . S
C290 C281 1.511 . S
C290 C291 1.341 . S
C290 C292 1.371 . S
C291 C290 1.341 . S
C291 C295 1.394 . S
C291 H307 0.930 . S
C292 C290 1.371 . S
C292 C293 1.392 . S
C292 H308 0.931 . S
C293 C292 1.392 . S
C293 C294 1.331 . S
C293 H311 0.932 . S
C294 C293 1.331 . S
C294 C295 1.336 . S
C295 C291 1.394 . S
C295 C294 1.336 . S
C295 H310 0.929 . S
C296 C286 1.386 . S
C296 C289 1.357 . S
C296 H309 0.928 . S
H297 C273 0.931 . S
H298 C275 0.930 . S
H299 C277 0.929 . S
H300 C278 0.931 . S
H301 C280 0.930 . S
H302 C284 0.931 . S
H303 C282 0.931 . S
H304 C286 0.931 . S
H305 C287 0.929 . S
H306 C288 0.930 . S
H307 C291 0.930 . S
H308 C292 0.931 . S
H309 C296 0.928 . S
H310 C295 0.929 . S
H311 C293 0.932 . S
C312 C313 1.386 . S
C312 C314 1.397 . S
C312 H336 0.931 . S
C313 C312 1.386 . S
C313 C317 1.397 . S
C314 C312 1.397 . S
C314 C315 1.384 . S
C314 H337 0.930 . S
C315 C314 1.384 . S
C315 C316 1.377 . S
C315 C318 1.481 . S
C316 C315 1.377 . S
C316 C317 1.389 . S
C316 H338 0.929 . S
C317 C313 1.397 . S
C317 C316 1.389 . S
C317 H339 0.931 . S
C318 C315 1.481 . S
C318 C319 1.387 . S
C318 C323 1.390 . S
C319 C318 1.387 . S
C319 C320 1.401 . S
C319 H340 0.930 . S
C320 C319 1.401 . S
C320 C321 1.376 . S
C320 C329 1.511 . S
C321 C320 1.376 . S
C321 C322 1.392 . S
C321 H342 0.931 . S
C322 C321 1.392 . S
C322 C323 1.361 . S
C322 C324 1.500 . S
C323 C318 1.390 . S
C323 C322 1.361 . S
C323 H341 0.931 . S
C324 C322 1.500 . S
C324 C325 1.371 . S
C324 C326 1.365 . S
C325 C324 1.371 . S
C325 C335 1.386 . S
C325 H343 0.931 . S
C326 C324 1.365 . S
C326 C327 1.409 . S
C326 H344 0.929 . S
C327 C326 1.409 . S
C327 C328 1.380 . S
C327 H345 0.930 . S
C328 C327 1.380 . S
C328 C335 1.357 . S
C329 C320 1.511 . S
C329 C330 1.341 . S
C329 C331 1.371 . S
C330 C329 1.341 . S
C330 C334 1.394 . S
C330 H346 0.930 . S
C331 C329 1.371 . S
C331 C332 1.392 . S
C331 H347 0.931 . S
C332 C331 1.392 . S
C332 C333 1.331 . S
C332 H350 0.932 . S
C333 C332 1.331 . S
C333 C334 1.336 . S
C334 C330 1.394 . S
C334 C333 1.336 . S
C334 H349 0.929 . S
C335 C325 1.386 . S
C335 C328 1.357 . S
C335 H348 0.928 . S
H336 C312 0.931 . S
H337 C314 0.930 . S
H338 C316 0.929 . S
H339 C317 0.931 . S
H340 C319 0.930 . S
H341 C323 0.931 . S
H342 C321 0.931 . S
H343 C325 0.931 . S
H344 C326 0.929 . S
H345 C327 0.930 . S
H346 C330 0.930 . S
H347 C331 0.931 . S
H348 C335 0.928 . S
H349 C334 0.929 . S
H350 C332 0.932 . S
C351 C352 1.386 . S
C351 C353 1.397 . S
C351 H375 0.931 . S
C352 C351 1.386 . S
C352 C356 1.397 . S
C353 C351 1.397 . S
C353 C354 1.384 . S
C353 H376 0.930 . S
C354 C353 1.384 . S
C354 C355 1.377 . S
C354 C357 1.481 . S
C355 C354 1.377 . S
C355 C356 1.389 . S
C355 H377 0.929 . S
C356 C352 1.397 . S
C356 C355 1.389 . S
C356 H378 0.931 . S
C357 C354 1.481 . S
C357 C358 1.387 . S
C357 C362 1.390 . S
C358 C357 1.387 . S
C358 C359 1.401 . S
C358 H379 0.930 . S
C359 C358 1.401 . S
C359 C360 1.376 . S
C359 C368 1.511 . S
C360 C359 1.376 . S
C360 C361 1.392 . S
C360 H381 0.931 . S
C361 C360 1.392 . S
C361 C362 1.361 . S
C361 C363 1.500 . S
C362 C357 1.390 . S
C362 C361 1.361 . S
C362 H380 0.931 . S
C363 C361 1.500 . S
C363 C364 1.371 . S
C363 C365 1.365 . S
C364 C363 1.371 . S
C364 C374 1.386 . S
C364 H382 0.931 . S
C365 C363 1.365 . S
C365 C366 1.409 . S
C365 H383 0.929 . S
C366 C365 1.409 . S
C366 C367 1.380 . S
C366 H384 0.930 . S
C367 C366 1.380 . S
C367 C374 1.357 . S
C368 C359 1.511 . S
C368 C369 1.341 . S
C368 C370 1.371 . S
C369 C368 1.341 . S
C369 C373 1.394 . S
C369 H385 0.930 . S
C370 C368 1.371 . S
C370 C371 1.392 . S
C370 H386 0.931 . S
C371 C370 1.392 . S
C371 C372 1.331 . S
C371 H389 0.932 . S
C372 C371 1.331 . S
C372 C373 1.336 . S
C373 C369 1.394 . S
C373 C372 1.336 . S
C373 H388 0.929 . S
C374 C364 1.386 . S
C374 C367 1.357 . S
C374 H387 0.928 . S
H375 C351 0.931 . S
H376 C353 0.930 . S
H377 C355 0.929 . S
H378 C356 0.931 . S
H379 C358 0.930 . S
H380 C362 0.931 . S
H381 C360 0.931 . S
H382 C364 0.931 . S
H383 C365 0.929 . S
H384 C366 0.930 . S
H385 C369 0.930 . S
H386 C370 0.931 . S
H387 C374 0.928 . S
H388 C373 0.929 . S
H389 C371 0.932 . S
C390 C391 1.386 . S
C390 C392 1.397 . S
C390 H414 0.931 . S
C391 C390 1.386 . S
C391 C395 1.397 . S
C392 C390 1.397 . S
C392 C393 1.384 . S
C392 H415 0.930 . S
C393 C392 1.384 . S
C393 C394 1.377 . S
C393 C396 1.481 . S
C394 C393 1.377 . S
C394 C395 1.389 . S
C394 H416 0.929 . S
C395 C391 1.397 . S
C395 C394 1.389 . S
C395 H417 0.931 . S
C396 C393 1.481 . S
C396 C397 1.387 . S
C396 C401 1.390 . S
C397 C396 1.387 . S
C397 C398 1.401 . S
C397 H418 0.930 . S
C398 C397 1.401 . S
C398 C399 1.376 . S
C398 C407 1.511 . S
C399 C398 1.376 . S
C399 C400 1.392 . S
C399 H420 0.931 . S
C400 C399 1.392 . S
C400 C401 1.361 . S
C400 C402 1.500 . S
C401 C396 1.390 . S
C401 C400 1.361 . S
C401 H419 0.931 . S
C402 C400 1.500 . S
C402 C403 1.371 . S
C402 C404 1.365 . S
C403 C402 1.371 . S
C403 C413 1.386 . S
C403 H421 0.931 . S
C404 C402 1.365 . S
C404 C405 1.409 . S
C404 H422 0.929 . S
C405 C404 1.409 . S
C405 C406 1.380 . S
C405 H423 0.930 . S
C406 C405 1.380 . S
C406 C413 1.357 . S
C407 C398 1.511 . S
C407 C408 1.341 . S
C407 C409 1.371 . S
C408 C407 1.341 . S
C408 C412 1.394 . S
C408 H424 0.930 . S
C409 C407 1.371 . S
C409 C410 1.392 . S
C409 H425 0.931 . S
C410 C409 1.392 . S
C410 C411 1.331 . S
C410 H428 0.932 . S
C411 C410 1.331 . S
C411 C412 1.336 . S
C412 C408 1.394 . S
C412 C411 1.336 . S
C412 H427 0.929 . S
C413 C403 1.386 . S
C413 C406 1.357 . S
C413 H426 0.928 . S
H414 C390 0.931 . S
H415 C392 0.930 . S
H416 C394 0.929 . S
H417 C395 0.931 . S
H418 C397 0.930 . S
H419 C401 0.931 . S
H420 C399 0.931 . S
H421 C403 0.931 . S
H422 C404 0.929 . S
H423 C405 0.930 . S
H424 C408 0.930 . S
H425 C409 0.931 . S
H426 C413 0.928 . S
H427 C412 0.929 . S
H428 C410 0.932 . S
C429 C430 1.386 . S
C429 C431 1.397 . S
C429 H453 0.931 . S
C430 C429 1.386 . S
C430 C434 1.397 . S
C431 C429 1.397 . S
C431 C432 1.384 . S
C431 H454 0.930 . S
C432 C431 1.384 . S
C432 C433 1.377 . S
C432 C435 1.481 . S
C433 C432 1.377 . S
C433 C434 1.389 . S
C433 H455 0.929 . S
C434 C430 1.397 . S
C434 C433 1.389 . S
C434 H456 0.931 . S
C435 C432 1.481 . S
C435 C436 1.387 . S
C435 C440 1.390 . S
C436 C435 1.387 . S
C436 C437 1.401 . S
C436 H457 0.930 . S
C437 C436 1.401 . S
C437 C438 1.376 . S
C437 C446 1.511 . S
C438 C437 1.376 . S
C438 C439 1.392 . S
C438 H459 0.931 . S
C439 C438 1.392 . S
C439 C440 1.361 . S
C439 C441 1.500 . S
C440 C435 1.390 . S
C440 C439 1.361 . S
C440 H458 0.931 . S
C441 C439 1.500 . S
C441 C442 1.371 . S
C441 C443 1.365 . S
C442 C441 1.371 . S
C442 C452 1.386 . S
C442 H460 0.931 . S
C443 C441 1.365 . S
C443 C444 1.409 . S
C443 H461 0.929 . S
C444 C443 1.409 . S
C444 C445 1.380 . S
C444 H462 0.930 . S
C445 C444 1.380 . S
C445 C452 1.357 . S
C446 C437 1.511 . S
C446 C447 1.341 . S
C446 C448 1.371 . S
C447 C446 1.341 . S
C447 C451 1.394 . S
C447 H463 0.930 . S
C448 C446 1.371 . S
C448 C449 1.392 . S
C448 H464 0.931 . S
C449 C448 1.392 . S
C449 C450 1.331 . S
C449 H467 0.932 . S
C450 C449 1.331 . S
C450 C451 1.336 . S
C451 C447 1.394 . S
C451 C450 1.336 . S
C451 H466 0.929 . S
C452 C442 1.386 . S
C452 C445 1.357 . S
C452 H465 0.928 . S
H453 C429 0.931 . S
H454 C431 0.930 . S
H455 C433 0.929 . S
H456 C434 0.931 . S
H457 C436 0.930 . S
H458 C440 0.931 . S
H459 C438 0.931 . S
H460 C442 0.931 . S
H461 C443 0.929 . S
H462 C444 0.930 . S
H463 C447 0.930 . S
H464 C448 0.931 . S
H465 C452 0.928 . S
H466 C451 0.929 . S
H467 C449 0.932 . S
C468 C469 1.386 . S
C468 C470 1.397 . S
C468 H492 0.931 . S
C469 C468 1.386 . S
C469 C473 1.397 . S
C470 C468 1.397 . S
C470 C471 1.384 . S
C470 H493 0.930 . S
C471 C470 1.384 . S
C471 C472 1.377 . S
C471 C474 1.481 . S
C472 C471 1.377 . S
C472 C473 1.389 . S
C472 H494 0.929 . S
C473 C469 1.397 . S
C473 C472 1.389 . S
C473 H495 0.931 . S
C474 C471 1.481 . S
C474 C475 1.387 . S
C474 C479 1.390 . S
C475 C474 1.387 . S
C475 C476 1.401 . S
C475 H496 0.930 . S
C476 C475 1.401 . S
C476 C477 1.376 . S
C476 C485 1.511 . S
C477 C476 1.376 . S
C477 C478 1.392 . S
C477 H498 0.931 . S
C478 C477 1.392 . S
C478 C479 1.361 . S
C478 C480 1.500 . S
C479 C474 1.390 . S
C479 C478 1.361 . S
C479 H497 0.931 . S
C480 C478 1.500 . S
C480 C481 1.371 . S
C480 C482 1.365 . S
C481 C480 1.371 . S
C481 C491 1.386 . S
C481 H499 0.931 . S
C482 C480 1.365 . S
C482 C483 1.409 . S
C482 H500 0.929 . S
C483 C482 1.409 . S
C483 C484 1.380 . S
C483 H501 0.930 . S
C484 C483 1.380 . S
C484 C491 1.357 . S
C485 C476 1.511 . S
C485 C486 1.341 . S
C485 C487 1.371 . S
C486 C485 1.341 . S
C486 C490 1.394 . S
C486 H502 0.930 . S
C487 C485 1.371 . S
C487 C488 1.392 . S
C487 H503 0.931 . S
C488 C487 1.392 . S
C488 C489 1.331 . S
C488 H506 0.932 . S
C489 C488 1.331 . S
C489 C490 1.336 . S
C490 C486 1.394 . S
C490 C489 1.336 . S
C490 H505 0.929 . S
C491 C481 1.386 . S
C491 C484 1.357 . S
C491 H504 0.928 . S
H492 C468 0.931 . S
H493 C470 0.930 . S
H494 C472 0.929 . S
H495 C473 0.931 . S
H496 C475 0.930 . S
H497 C479 0.931 . S
H498 C477 0.931 . S
H499 C481 0.931 . S
H500 C482 0.929 . S
H501 C483 0.930 . S
H502 C486 0.930 . S
H503 C487 0.931 . S
H504 C491 0.928 . S
H505 C490 0.929 . S
H506 C488 0.932 . S
C507 C508 1.386 . S
C507 C509 1.397 . S
C507 H531 0.931 . S
C508 C507 1.386 . S
C508 C512 1.397 . S
C509 C507 1.397 . S
C509 C510 1.384 . S
C509 H532 0.930 . S
C510 C509 1.384 . S
C510 C511 1.377 . S
C510 C513 1.481 . S
C511 C510 1.377 . S
C511 C512 1.389 . S
C511 H533 0.929 . S
C512 C508 1.397 . S
C512 C511 1.389 . S
C512 H534 0.931 . S
C513 C510 1.481 . S
C513 C514 1.387 . S
C513 C518 1.390 . S
C514 C513 1.387 . S
C514 C515 1.401 . S
C514 H535 0.930 . S
C515 C514 1.401 . S
C515 C516 1.376 . S
C515 C524 1.511 . S
C516 C515 1.376 . S
C516 C517 1.392 . S
C516 H537 0.931 . S
C517 C516 1.392 . S
C517 C518 1.361 . S
C517 C519 1.500 . S
C518 C513 1.390 . S
C518 C517 1.361 . S
C518 H536 0.931 . S
C519 C517 1.500 . S
C519 C520 1.371 . S
C519 C521 1.365 . S
C520 C519 1.371 . S
C520 C530 1.386 . S
C520 H538 0.931 . S
C521 C519 1.365 . S
C521 C522 1.409 . S
C521 H539 0.929 . S
C522 C521 1.409 . S
C522 C523 1.380 . S
C522 H540 0.930 . S
C523 C522 1.380 . S
C523 C530 1.357 . S
C524 C515 1.511 . S
C524 C525 1.341 . S
C524 C526 1.371 . S
C525 C524 1.341 . S
C525 C529 1.394 . S
C525 H541 0.930 . S
C526 C524 1.371 . S
C526 C527 1.392 . S
C526 H542 0.931 . S
C527 C526 1.392 . S
C527 C528 1.331 . S
C527 H545 0.932 . S
C528 C527 1.331 . S
C528 C529 1.336 . S
C529 C525 1.394 . S
C529 C528 1.336 . S
C529 H544 0.929 . S
C530 C520 1.386 . S
C530 C523 1.357 . S
C530 H543 0.928 . S
H531 C507 0.931 . S
H532 C509 0.930 . S
H533 C511 0.929 . S
H534 C512 0.931 . S
H535 C514 0.930 . S
H536 C518 0.931 . S
H537 C516 0.931 . S
H538 C520 0.931 . S
H539 C521 0.929 . S
H540 C522 0.930 . S
H541 C525 0.930 . S
H542 C526 0.931 . S
H543 C530 0.928 . S
H544 C529 0.929 . S
H545 C527 0.932 . S
C546 C547 1.386 . S
C546 C548 1.397 . S
C546 H570 0.931 . S
C547 C546 1.386 . S
C547 C551 1.397 . S
C548 C546 1.397 . S
C548 C549 1.384 . S
C548 H571 0.930 . S
C549 C548 1.384 . S
C549 C550 1.377 . S
C549 C552 1.481 . S
C550 C549 1.377 . S
C550 C551 1.389 . S
C550 H572 0.929 . S
C551 C547 1.397 . S
C551 C550 1.389 . S
C551 H573 0.931 . S
C552 C549 1.481 . S
C552 C553 1.387 . S
C552 C557 1.390 . S
C553 C552 1.387 . S
C553 C554 1.401 . S
C553 H574 0.930 . S
C554 C553 1.401 . S
C554 C555 1.376 . S
C554 C563 1.511 . S
C555 C554 1.376 . S
C555 C556 1.392 . S
C555 H576 0.931 . S
C556 C555 1.392 . S
C556 C557 1.361 . S
C556 C558 1.500 . S
C557 C552 1.390 . S
C557 C556 1.361 . S
C557 H575 0.931 . S
C558 C556 1.500 . S
C558 C559 1.371 . S
C558 C560 1.365 . S
C559 C558 1.371 . S
C559 C569 1.386 . S
C559 H577 0.931 . S
C560 C558 1.365 . S
C560 C561 1.409 . S
C560 H578 0.929 . S
C561 C560 1.409 . S
C561 C562 1.380 . S
C561 H579 0.930 . S
C562 C561 1.380 . S
C562 C569 1.357 . S
C563 C554 1.511 . S
C563 C564 1.341 . S
C563 C565 1.371 . S
C564 C563 1.341 . S
C564 C568 1.394 . S
C564 H580 0.930 . S
C565 C563 1.371 . S
C565 C566 1.392 . S
C565 H581 0.931 . S
C566 C565 1.392 . S
C566 C567 1.331 . S
C566 H584 0.932 . S
C567 C566 1.331 . S
C567 C568 1.336 . S
C568 C564 1.394 . S
C568 C567 1.336 . S
C568 H583 0.929 . S
C569 C559 1.386 . S
C569 C562 1.357 . S
C569 H582 0.928 . S
H570 C546 0.931 . S
H571 C548 0.930 . S
H572 C550 0.929 . S
H573 C551 0.931 . S
H574 C553 0.930 . S
H575 C557 0.931 . S
H576 C555 0.931 . S
H577 C559 0.931 . S
H578 C560 0.929 . S
H579 C561 0.930 . S
H580 C564 0.930 . S
H581 C565 0.931 . S
H582 C569 0.928 . S
H583 C568 0.929 . S
H584 C566 0.932 . S
C585 C586 1.386 . S
C585 C587 1.397 . S
C585 H609 0.931 . S
C586 C585 1.386 . S
C586 C590 1.397 . S
C587 C585 1.397 . S
C587 C588 1.384 . S
C587 H610 0.930 . S
C588 C587 1.384 . S
C588 C589 1.377 . S
C588 C591 1.481 . S
C589 C588 1.377 . S
C589 C590 1.389 . S
C589 H611 0.929 . S
C590 C586 1.397 . S
C590 C589 1.389 . S
C590 H612 0.931 . S
C591 C588 1.481 . S
C591 C592 1.387 . S
C591 C596 1.390 . S
C592 C591 1.387 . S
C592 C593 1.401 . S
C592 H613 0.930 . S
C593 C592 1.401 . S
C593 C594 1.376 . S
C593 C602 1.511 . S
C594 C593 1.376 . S
C594 C595 1.392 . S
C594 H615 0.931 . S
C595 C594 1.392 . S
C595 C596 1.361 . S
C595 C597 1.500 . S
C596 C591 1.390 . S
C596 C595 1.361 . S
C596 H614 0.931 . S
C597 C595 1.500 . S
C597 C598 1.371 . S
C597 C599 1.365 . S
C598 C597 1.371 . S
C598 C608 1.386 . S
C598 H616 0.931 . S
C599 C597 1.365 . S
C599 C600 1.409 . S
C599 H617 0.929 . S
C600 C599 1.409 . S
C600 C601 1.380 . S
C600 H618 0.930 . S
C601 C600 1.380 . S
C601 C608 1.357 . S
C602 C593 1.511 . S
C602 C603 1.341 . S
C602 C604 1.371 . S
C603 C602 1.341 . S
C603 C607 1.394 . S
C603 H619 0.930 . S
C604 C602 1.371 . S
C604 C605 1.392 . S
C604 H620 0.931 . S
C605 C604 1.392 . S
C605 C606 1.331 . S
C605 H623 0.932 . S
C606 C605 1.331 . S
C606 C607 1.336 . S
C607 C603 1.394 . S
C607 C606 1.336 . S
C607 H622 0.929 . S
C608 C598 1.386 . S
C608 C601 1.357 . S
C608 H621 0.928 . S
H609 C585 0.931 . S
H610 C587 0.930 . S
H611 C589 0.929 . S
H612 C590 0.931 . S
H613 C592 0.930 . S
H614 C596 0.931 . S
H615 C594 0.931 . S
H616 C598 0.931 . S
H617 C599 0.929 . S
H618 C600 0.930 . S
H619 C603 0.930 . S
H620 C604 0.931 . S
H621 C608 0.928 . S
H622 C607 0.929 . S
H623 C605 0.932 . S
C624 C625 1.386 . S
C624 C626 1.397 . S
C624 H648 0.931 . S
C625 C624 1.386 . S
C625 C629 1.397 . S
C626 C624 1.397 . S
C626 C627 1.384 . S
C626 H649 0.930 . S
C627 C626 1.384 . S
C627 C628 1.377 . S
C627 C630 1.481 . S
C628 C627 1.377 . S
C628 C629 1.389 . S
C628 H650 0.929 . S
C629 C625 1.397 . S
C629 C628 1.389 . S
C629 H651 0.931 . S
C630 C627 1.481 . S
C630 C631 1.387 . S
C630 C635 1.390 . S
C631 C630 1.387 . S
C631 C632 1.401 . S
C631 H652 0.930 . S
C632 C631 1.401 . S
C632 C633 1.376 . S
C632 C641 1.511 . S
C633 C632 1.376 . S
C633 C634 1.392 . S
C633 H654 0.931 . S
C634 C633 1.392 . S
C634 C635 1.361 . S
C634 C636 1.500 . S
C635 C630 1.390 . S
C635 C634 1.361 . S
C635 H653 0.931 . S
C636 C634 1.500 . S
C636 C637 1.371 . S
C636 C638 1.365 . S
C637 C636 1.371 . S
C637 C647 1.386 . S
C637 H655 0.931 . S
C638 C636 1.365 . S
C638 C639 1.409 . S
C638 H656 0.929 . S
C639 C638 1.409 . S
C639 C640 1.380 . S
C639 H657 0.930 . S
C640 C639 1.380 . S
C640 C647 1.357 . S
C641 C632 1.511 . S
C641 C642 1.341 . S
C641 C643 1.371 . S
C642 C641 1.341 . S
C642 C646 1.394 . S
C642 H658 0.930 . S
C643 C641 1.371 . S
C643 C644 1.392 . S
C643 H659 0.931 . S
C644 C643 1.392 . S
C644 C645 1.331 . S
C644 H662 0.932 . S
C645 C644 1.331 . S
C645 C646 1.336 . S
C646 C642 1.394 . S
C646 C645 1.336 . S
C646 H661 0.929 . S
C647 C637 1.386 . S
C647 C640 1.357 . S
C647 H660 0.928 . S
H648 C624 0.931 . S
H649 C626 0.930 . S
H650 C628 0.929 . S
H651 C629 0.931 . S
H652 C631 0.930 . S
H653 C635 0.931 . S
H654 C633 0.931 . S
H655 C637 0.931 . S
H656 C638 0.929 . S
H657 C639 0.930 . S
H658 C642 0.930 . S
H659 C643 0.931 . S
H660 C647 0.928 . S
H661 C646 0.929 . S
H662 C644 0.932 . S
C663 C664 1.386 . S
C663 C665 1.397 . S
C663 H687 0.931 . S
C664 C663 1.386 . S
C664 C668 1.397 . S
C665 C663 1.397 . S
C665 C666 1.384 . S
C665 H688 0.930 . S
C666 C665 1.384 . S
C666 C667 1.377 . S
C666 C669 1.481 . S
C667 C666 1.377 . S
C667 C668 1.389 . S
C667 H689 0.929 . S
C668 C664 1.397 . S
C668 C667 1.389 . S
C668 H690 0.931 . S
C669 C666 1.481 . S
C669 C670 1.387 . S
C669 C674 1.390 . S
C670 C669 1.387 . S
C670 C671 1.401 . S
C670 H691 0.930 . S
C671 C670 1.401 . S
C671 C672 1.376 . S
C671 C680 1.511 . S
C672 C671 1.376 . S
C672 C673 1.392 . S
C672 H693 0.931 . S
C673 C672 1.392 . S
C673 C674 1.361 . S
C673 C675 1.500 . S
C674 C669 1.390 . S
C674 C673 1.361 . S
C674 H692 0.931 . S
C675 C673 1.500 . S
C675 C676 1.371 . S
C675 C677 1.365 . S
C676 C675 1.371 . S
C676 C686 1.386 . S
C676 H694 0.931 . S
C677 C675 1.365 . S
C677 C678 1.409 . S
C677 H695 0.929 . S
C678 C677 1.409 . S
C678 C679 1.380 . S
C678 H696 0.930 . S
C679 C678 1.380 . S
C679 C686 1.357 . S
C680 C671 1.511 . S
C680 C681 1.341 . S
C680 C682 1.371 . S
C681 C680 1.341 . S
C681 C685 1.394 . S
C681 H697 0.930 . S
C682 C680 1.371 . S
C682 C683 1.392 . S
C682 H698 0.931 . S
C683 C682 1.392 . S
C683 C684 1.331 . S
C683 H701 0.932 . S
C684 C683 1.331 . S
C684 C685 1.336 . S
C685 C681 1.394 . S
C685 C684 1.336 . S
C685 H700 0.929 . S
C686 C676 1.386 . S
C686 C679 1.357 . S
C686 H699 0.928 . S
H687 C663 0.931 . S
H688 C665 0.930 . S
H689 C667 0.929 . S
H690 C668 0.931 . S
H691 C670 0.930 . S
H692 C674 0.931 . S
H693 C672 0.931 . S
H694 C676 0.931 . S
H695 C677 0.929 . S
H696 C678 0.930 . S
H697 C681 0.930 . S
H698 C682 0.931 . S
H699 C686 0.928 . S
H700 C685 0.929 . S
H701 C683 0.932 . S
Gd702 N733 2.661 . S
Gd702 N739 2.601 . S
Gd702 O746 2.545 . S
Gd702 O747 2.606 1_545 S
Gd702 O749 2.429 . S
Gd702 O750 2.545 1_545 S
Gd702 O751 2.412 . S
Gd702 O753 2.444 . S
Gd702 O754 2.324 1_545 S
Gd702 C761 2.828 . S
Gd703 N712 2.661 . S
Gd703 N716 2.601 . S
Gd703 O747 2.362 1_556 S
Gd703 O748 2.324 1_565 S
Gd703 O752 2.545 . S
Gd703 O753 2.558 1_566 S
Gd703 O755 2.436 . S
Gd703 O756 2.545 1_565 S
Gd703 O757 2.412 . S
Gd703 C770 2.828 . S
C704 C707 1.417 . S
C704 C709 1.431 . S
C704 C710 1.412 . S
C705 C708 1.437 . S
C705 C709 1.317 . S
C705 H724 0.929 . S
C706 C707 1.426 . S
C706 C708 1.413 . S
C706 N716 1.359 . S
C707 C704 1.417 . S
C707 C706 1.426 . S
C707 N712 1.350 . S
C708 C705 1.437 . S
C708 C706 1.413 . S
C708 C718 1.391 . S
C709 C704 1.431 . S
C709 C705 1.317 . S
C709 H720 0.930 . S
C710 C704 1.412 . S
C710 C711 1.355 . S
C710 H722 0.930 . S
C711 C710 1.355 . S
C711 C713 1.402 . S
C711 H723 0.930 . S
N712 Gd703 2.661 . S
N712 C707 1.350 . S
N712 C713 1.307 . S
C713 C711 1.402 . S
C713 N712 1.307 . S
C713 H714 0.930 . S
H714 C713 0.930 . S
C715 N716 1.334 . S
C715 C717 1.394 . S
C715 H719 0.930 . S
N716 Gd703 2.601 . S
N716 C706 1.359 . S
N716 C715 1.334 . S
C717 C715 1.394 . S
C717 C718 1.359 . S
C717 H729 0.930 . S
C718 C708 1.391 . S
C718 C717 1.359 . S
C718 H730 0.929 . S
H719 C715 0.930 . S
H720 C709 0.930 . S
H721 C738 0.930 . S
H722 C710 0.930 . S
H723 C711 0.930 . S
H724 C705 0.929 . S
H725 C743 0.930 . S
H726 C734 0.930 . S
H727 C735 0.930 . S
H728 C759 0.929 . S
H729 C717 0.930 . S
H730 C718 0.929 . S
H731 C760 0.930 . S
H732 C741 0.930 . S
N733 Gd702 2.661 . S
N733 C737 1.350 . S
N733 C738 1.307 . S
C734 H726 0.930 . S
C734 C735 1.355 . S
C734 C736 1.412 . S
C735 H727 0.930 . S
C735 C734 1.355 . S
C735 C738 1.402 . S
C736 C734 1.412 . S
C736 C737 1.417 . S
C736 C760 1.431 . S
C737 N733 1.350 . S
C737 C736 1.417 . S
C737 C740 1.426 . S
C738 H721 0.930 . S
C738 N733 1.307 . S
C738 C735 1.402 . S
N739 Gd702 2.601 . S
N739 C740 1.359 . S
N739 C743 1.334 . S
C740 C737 1.426 . S
C740 N739 1.359 . S
C740 C744 1.413 . S
C741 H732 0.930 . S
C741 C742 1.359 . S
C741 C743 1.394 . S
C742 C741 1.359 . S
C742 C744 1.391 . S
C742 H745 0.929 . S
C743 H725 0.930 . S
C743 N739 1.334 . S
C743 C741 1.394 . S
C744 C740 1.413 . S
C744 C742 1.391 . S
C744 C759 1.437 . S
H745 C742 0.929 . S
O746 Gd702 2.545 . S
O746 C761 1.258 . S
O747 Gd702 2.606 1_565 S
O747 Gd703 2.362 1_554 S
O747 C758 1.284 . S
O748 Gd703 2.324 1_545 S
O748 C768 1.254 . S
O749 Gd702 2.429 . S
O749 C768 1.268 1_554 S
O750 Gd702 2.545 1_565 S
O750 C758 1.250 . S
O751 Gd702 2.412 . S
O751 C761 1.252 . S
O752 Gd703 2.545 . S
O752 C770 1.258 . S
O753 Gd702 2.444 . S
O753 Gd703 2.558 1_544 S
O753 C769 1.219 1_554 S
O754 Gd702 2.324 1_565 S
O754 C777 1.254 . S
O755 Gd703 2.436 . S
O755 C777 1.256 1_556 S
O756 Gd703 2.545 1_545 S
O756 C769 1.250 . S
O757 Gd703 2.412 . S
O757 C770 1.252 . S
C758 O747 1.284 . S
C758 O750 1.250 . S
C759 H728 0.929 . S
C759 C744 1.437 . S
C759 C760 1.317 . S
C760 H731 0.930 . S
C760 C736 1.431 . S
C760 C759 1.317 . S
C761 Gd702 2.828 . S
C761 O746 1.258 . S
C761 O751 1.252 . S
C761 C762 1.497 . S
C762 C761 1.497 . S
C762 C763 1.395 . S
C762 C764 1.380 1_545 S
C763 C762 1.395 . S
C763 C766 1.398 . S
C763 H778 0.930 . S
C764 C762 1.380 1_565 S
C764 C765 1.391 . S
C764 H779 0.930 . S
C765 C764 1.391 . S
C765 C767 1.387 1_565 S
C766 C763 1.398 . S
C766 C767 1.380 . S
C766 H780 0.930 . S
C767 C765 1.387 1_545 S
C767 C766 1.380 . S
C767 H781 0.930 . S
C768 O748 1.254 . S
C768 O749 1.268 1_556 S
C769 O753 1.219 1_556 S
C769 O756 1.250 . S
C770 Gd703 2.828 . S
C770 O752 1.258 . S
C770 O757 1.252 . S
C770 C771 1.497 . S
C771 C770 1.497 . S
C771 C772 1.395 . S
C771 C773 1.380 1_565 S
C772 C771 1.395 . S
C772 C775 1.398 . S
C772 H782 0.930 . S
C773 C771 1.380 1_545 S
C773 C774 1.391 . S
C773 H783 0.930 . S
C774 C773 1.391 . S
C774 C776 1.387 1_545 S
C775 C772 1.398 . S
C775 C776 1.380 . S
C775 H784 0.930 . S
C776 C774 1.387 1_565 S
C776 C775 1.380 . S
C776 H785 0.930 . S
C777 O754 1.254 . S
C777 O755 1.256 1_554 S
H778 C763 0.930 . S
H779 C764 0.930 . S
H780 C766 0.930 . S
H781 C767 0.930 . S
H782 C772 0.930 . S
H783 C773 0.930 . S
H784 C775 0.930 . S
H785 C776 0.930 . S
Gd786 N817 2.661 . S
Gd786 N823 2.601 . S
Gd786 O830 2.545 . S
Gd786 O831 2.606 1_655 S
Gd786 O833 2.429 . S
Gd786 O834 2.545 1_655 S
Gd786 O835 2.412 . S
Gd786 O837 2.427 . S
Gd786 O838 2.324 1_655 S
Gd786 C845 2.828 . S
Gd787 N796 2.661 . S
Gd787 N800 2.601 . S
Gd787 O831 2.362 1_556 S
Gd787 O832 2.324 1_455 S
Gd787 O836 2.545 . S
Gd787 O837 2.568 1_456 S
Gd787 O839 2.395 1_556 S
Gd787 O840 2.545 1_455 S
Gd787 O841 2.412 . S
Gd787 C854 2.828 . S
C788 C791 1.417 . S
C788 C793 1.431 . S
C788 C794 1.412 . S
C789 C792 1.437 . S
C789 C793 1.317 . S
C789 H808 0.929 . S
C790 C791 1.426 . S
C790 C792 1.413 . S
C790 N800 1.359 . S
C791 C788 1.417 . S
C791 C790 1.426 . S
C791 N796 1.350 . S
C792 C789 1.437 . S
C792 C790 1.413 . S
C792 C802 1.391 . S
C793 C788 1.431 . S
C793 C789 1.317 . S
C793 H804 0.930 . S
C794 C788 1.412 . S
C794 C795 1.355 . S
C794 H806 0.930 . S
C795 C794 1.355 . S
C795 C797 1.402 . S
C795 H807 0.930 . S
N796 Gd787 2.661 . S
N796 C791 1.350 . S
N796 C797 1.307 . S
C797 C795 1.402 . S
C797 N796 1.307 . S
C797 H798 0.930 . S
H798 C797 0.930 . S
C799 N800 1.334 . S
C799 C801 1.394 . S
C799 H803 0.930 . S
N800 Gd787 2.601 . S
N800 C790 1.359 . S
N800 C799 1.334 . S
C801 C799 1.394 . S
C801 C802 1.359 . S
C801 H813 0.930 . S
C802 C792 1.391 . S
C802 C801 1.359 . S
C802 H814 0.929 . S
H803 C799 0.930 . S
H804 C793 0.930 . S
H805 C822 0.930 . S
H806 C794 0.930 . S
H807 C795 0.930 . S
H808 C789 0.929 . S
H809 C827 0.930 . S
H810 C818 0.930 . S
H811 C819 0.930 . S
H812 C843 0.929 . S
H813 C801 0.930 . S
H814 C802 0.929 . S
H815 C844 0.930 . S
H816 C825 0.930 . S
N817 Gd786 2.661 . S
N817 C821 1.350 . S
N817 C822 1.307 . S
C818 H810 0.930 . S
C818 C819 1.355 . S
C818 C820 1.412 . S
C819 H811 0.930 . S
C819 C818 1.355 . S
C819 C822 1.402 . S
C820 C818 1.412 . S
C820 C821 1.417 . S
C820 C844 1.431 . S
C821 N817 1.350 . S
C821 C820 1.417 . S
C821 C824 1.426 . S
C822 H805 0.930 . S
C822 N817 1.307 . S
C822 C819 1.402 . S
N823 Gd786 2.601 . S
N823 C824 1.359 . S
N823 C827 1.334 . S
C824 C821 1.426 . S
C824 N823 1.359 . S
C824 C828 1.413 . S
C825 H816 0.930 . S
C825 C826 1.359 . S
C825 C827 1.394 . S
C826 C825 1.359 . S
C826 C828 1.391 . S
C826 H829 0.929 . S
C827 H809 0.930 . S
C827 N823 1.334 . S
C827 C825 1.394 . S
C828 C824 1.413 . S
C828 C826 1.391 . S
C828 C843 1.437 . S
H829 C826 0.929 . S
O830 Gd786 2.545 . S
O830 C845 1.258 . S
O831 Gd786 2.606 1_455 S
O831 Gd787 2.362 1_554 S
O831 C842 1.284 . S
O832 Gd787 2.324 1_655 S
O832 C852 1.254 . S
O833 Gd786 2.429 . S
O833 C852 1.268 1_554 S
O834 Gd786 2.545 1_455 S
O834 C842 1.250 . S
O835 Gd786 2.412 . S
O835 C845 1.252 . S
O836 Gd787 2.545 . S
O836 C854 1.258 . S
O837 Gd786 2.427 . S
O837 Gd787 2.568 1_654 S
O837 C853 1.232 1_554 S
O838 Gd786 2.324 1_455 S
O838 C861 1.254 . S
O839 Gd787 2.395 1_554 S
O839 C861 1.329 . S
O840 Gd787 2.545 1_655 S
O840 C853 1.250 . S
O841 Gd787 2.412 . S
O841 C854 1.252 . S
C842 O831 1.284 . S
C842 O834 1.250 . S
C843 H812 0.929 . S
C843 C828 1.437 . S
C843 C844 1.317 . S
C844 H815 0.930 . S
C844 C820 1.431 . S
C844 C843 1.317 . S
C845 Gd786 2.828 . S
C845 O830 1.258 . S
C845 O835 1.252 . S
C845 C846 1.497 . S
C846 C845 1.497 . S
C846 C847 1.395 . S
C846 C848 1.380 1_655 S
C847 C846 1.395 . S
C847 C850 1.398 . S
C847 H862 0.930 . S
C848 C846 1.380 1_455 S
C848 C849 1.391 . S
C848 H863 0.930 . S
C849 C848 1.391 . S
C849 C851 1.387 1_455 S
C850 C847 1.398 . S
C850 C851 1.380 . S
C850 H864 0.930 . S
C851 C849 1.387 1_655 S
C851 C850 1.380 . S
C851 H865 0.930 . S
C852 O832 1.254 . S
C852 O833 1.268 1_556 S
C853 O837 1.232 1_556 S
C853 O840 1.250 . S
C854 Gd787 2.828 . S
C854 O836 1.258 . S
C854 O841 1.252 . S
C854 C855 1.497 . S
C855 C854 1.497 . S
C855 C856 1.395 . S
C855 C857 1.380 1_455 S
C856 C855 1.395 . S
C856 C859 1.398 . S
C856 H866 0.930 . S
C857 C855 1.380 1_655 S
C857 C858 1.391 . S
C857 H867 0.930 . S
C858 C857 1.391 . S
C858 C860 1.387 1_655 S
C859 C856 1.398 . S
C859 C860 1.380 . S
C859 H868 0.930 . S
C860 C858 1.387 1_455 S
C860 C859 1.380 . S
C860 H869 0.930 . S
C861 O838 1.254 . S
C861 O839 1.329 . S
H862 C847 0.930 . S
H863 C848 0.930 . S
H864 C850 0.930 . S
H865 C851 0.930 . S
H866 C856 0.930 . S
H867 C857 0.930 . S
H868 C859 0.930 . S
H869 C860 0.930 . S
Gd870 N901 2.661 . S
Gd870 N907 2.601 . S
Gd870 O914 2.545 . S
Gd870 O915 2.583 1_556 S
Gd870 O917 2.427 . S
Gd870 O918 2.545 . S
Gd870 O919 2.412 . S
Gd870 O921 2.362 1_556 S
Gd870 O922 2.324 . S
Gd870 C929 2.828 . S
Gd871 N880 2.661 . S
Gd871 N884 2.601 . S
Gd871 O915 2.402 . S
Gd871 O916 2.324 . S
Gd871 O920 2.545 . S
Gd871 O921 2.606 . S
Gd871 O923 2.429 . S
Gd871 O924 2.545 . S
Gd871 O925 2.412 . S
Gd871 C938 2.828 . S
C872 C875 1.417 . S
C872 C877 1.431 . S
C872 C878 1.412 . S
C873 C876 1.437 . S
C873 C877 1.317 . S
C873 H892 0.929 . S
C874 C875 1.426 . S
C874 C876 1.413 . S
C874 N884 1.359 . S
C875 C872 1.417 . S
C875 C874 1.426 . S
C875 N880 1.350 . S
C876 C873 1.437 . S
C876 C874 1.413 . S
C876 C886 1.391 . S
C877 C872 1.431 . S
C877 C873 1.317 . S
C877 H888 0.930 . S
C878 C872 1.412 . S
C878 C879 1.355 . S
C878 H890 0.930 . S
C879 C878 1.355 . S
C879 C881 1.402 . S
C879 H891 0.930 . S
N880 Gd871 2.661 . S
N880 C875 1.350 . S
N880 C881 1.307 . S
C881 C879 1.402 . S
C881 N880 1.307 . S
C881 H882 0.930 . S
H882 C881 0.930 . S
C883 N884 1.334 . S
C883 C885 1.394 . S
C883 H887 0.930 . S
N884 Gd871 2.601 . S
N884 C874 1.359 . S
N884 C883 1.334 . S
C885 C883 1.394 . S
C885 C886 1.359 . S
C885 H897 0.930 . S
C886 C876 1.391 . S
C886 C885 1.359 . S
C886 H898 0.929 . S
H887 C883 0.930 . S
H888 C877 0.930 . S
H889 C906 0.930 . S
H890 C878 0.930 . S
H891 C879 0.930 . S
H892 C873 0.929 . S
H893 C911 0.930 . S
H894 C902 0.930 . S
H895 C903 0.930 . S
H896 C927 0.929 . S
H897 C885 0.930 . S
H898 C886 0.929 . S
H899 C928 0.930 . S
H900 C909 0.930 . S
N901 Gd870 2.661 . S
N901 C905 1.350 . S
N901 C906 1.307 . S
C902 H894 0.930 . S
C902 C903 1.355 . S
C902 C904 1.412 . S
C903 H895 0.930 . S
C903 C902 1.355 . S
C903 C906 1.402 . S
C904 C902 1.412 . S
C904 C905 1.417 . S
C904 C928 1.431 . S
C905 N901 1.350 . S
C905 C904 1.417 . S
C905 C908 1.426 . S
C906 H889 0.930 . S
C906 N901 1.307 . S
C906 C903 1.402 . S
N907 Gd870 2.601 . S
N907 C908 1.359 . S
N907 C911 1.334 . S
C908 C905 1.426 . S
C908 N907 1.359 . S
C908 C912 1.413 . S
C909 H900 0.930 . S
C909 C910 1.359 . S
C909 C911 1.394 . S
C910 C909 1.359 . S
C910 C912 1.391 . S
C910 H913 0.929 . S
C911 H893 0.930 . S
C911 N907 1.334 . S
C911 C909 1.394 . S
C912 C908 1.413 . S
C912 C910 1.391 . S
C912 C927 1.437 . S
H913 C910 0.929 . S
O914 Gd870 2.545 . S
O914 C929 1.258 . S
O915 Gd870 2.583 1_554 S
O915 Gd871 2.402 . S
O915 C926 1.252 1_554 S
O916 Gd871 2.324 . S
O916 C936 1.254 . S
O917 Gd870 2.427 . S
O917 C936 1.271 1_556 S
O918 Gd870 2.545 . S
O918 C926 1.250 . S
O919 Gd870 2.412 . S
O919 C929 1.252 . S
O920 Gd871 2.545 . S
O920 C938 1.258 . S
O921 Gd870 2.362 1_554 S
O921 Gd871 2.606 . S
O921 C937 1.284 . S
O922 Gd870 2.324 . S
O922 C945 1.254 . S
O923 Gd871 2.429 . S
O923 C945 1.268 1_554 S
O924 Gd871 2.545 . S
O924 C937 1.250 . S
O925 Gd871 2.412 . S
O925 C938 1.252 . S
C926 O915 1.252 1_556 S
C926 O918 1.250 . S
C927 H896 0.929 . S
C927 C912 1.437 . S
C927 C928 1.317 . S
C928 H899 0.930 . S
C928 C904 1.431 . S
C928 C927 1.317 . S
C929 Gd870 2.828 . S
C929 O914 1.258 . S
C929 O919 1.252 . S
C929 C930 1.497 . S
C930 C929 1.497 . S
C930 C931 1.395 . S
C930 C932 1.380 . S
C931 C930 1.395 . S
C931 C934 1.398 . S
C931 H946 0.930 . S
C932 C930 1.380 . S
C932 C933 1.391 . S
C932 H947 0.930 . S
C933 C932 1.391 . S
C933 C935 1.387 . S
C934 C931 1.398 . S
C934 C935 1.380 . S
C934 H948 0.930 . S
C935 C933 1.387 . S
C935 C934 1.380 . S
C935 H949 0.930 . S
C936 O916 1.254 . S
C936 O917 1.271 1_554 S
C937 O921 1.284 . S
C937 O924 1.250 . S
C938 Gd871 2.828 . S
C938 O920 1.258 . S
C938 O925 1.252 . S
C938 C939 1.497 . S
C939 C938 1.497 . S
C939 C940 1.395 . S
C939 C941 1.380 . S
C940 C939 1.395 . S
C940 C943 1.398 . S
C940 H950 0.930 . S
C941 C939 1.380 . S
C941 C942 1.391 . S
C941 H951 0.930 . S
C942 C941 1.391 . S
C942 C944 1.387 . S
C943 C940 1.398 . S
C943 C944 1.380 . S
C943 H952 0.930 . S
C944 C942 1.387 . S
C944 C943 1.380 . S
C944 H953 0.930 . S
C945 O922 1.254 . S
C945 O923 1.268 1_556 S
H946 C931 0.930 . S
H947 C932 0.930 . S
H948 C934 0.930 . S
H949 C935 0.930 . S
H950 C940 0.930 . S
H951 C941 0.930 . S
H952 C943 0.930 . S
H953 C944 0.930 . S
Gd954 N985 2.661 . S
Gd954 N991 2.601 . S
Gd954 O998 2.545 . S
Gd954 O999 2.606 . S
Gd954 O1001 2.429 . S
Gd954 O1002 2.545 . S
Gd954 O1003 2.412 . S
Gd954 O1005 2.362 . S
Gd954 O1006 2.324 . S
Gd954 C1013 2.828 . S
Gd955 N964 2.661 . S
Gd955 N968 2.601 . S
Gd955 O999 2.362 . S
Gd955 O1000 2.324 . S
Gd955 O1004 2.545 . S
Gd955 O1005 2.606 . S
Gd955 O1007 2.429 . S
Gd955 O1008 2.545 . S
Gd955 O1009 2.412 . S
Gd955 C1022 2.828 . S
C956 C959 1.417 . S
C956 C961 1.431 . S
C956 C962 1.412 . S
C957 C960 1.437 . S
C957 C961 1.317 . S
C957 H976 0.929 . S
C958 C959 1.426 . S
C958 C960 1.413 . S
C958 N968 1.359 . S
C959 C956 1.417 . S
C959 C958 1.426 . S
C959 N964 1.350 . S
C960 C957 1.437 . S
C960 C958 1.413 . S
C960 C970 1.391 . S
C961 C956 1.431 . S
C961 C957 1.317 . S
C961 H972 0.930 . S
C962 C956 1.412 . S
C962 C963 1.355 . S
C962 H974 0.930 . S
C963 C962 1.355 . S
C963 C965 1.402 . S
C963 H975 0.930 . S
N964 Gd955 2.661 . S
N964 C959 1.350 . S
N964 C965 1.307 . S
C965 C963 1.402 . S
C965 N964 1.307 . S
C965 H966 0.930 . S
H966 C965 0.930 . S
C967 N968 1.334 . S
C967 C969 1.394 . S
C967 H971 0.930 . S
N968 Gd955 2.601 . S
N968 C958 1.359 . S
N968 C967 1.334 . S
C969 C967 1.394 . S
C969 C970 1.359 . S
C969 H981 0.930 . S
C970 C960 1.391 . S
C970 C969 1.359 . S
C970 H982 0.929 . S
H971 C967 0.930 . S
H972 C961 0.930 . S
H973 C990 0.930 . S
H974 C962 0.930 . S
H975 C963 0.930 . S
H976 C957 0.929 . S
H977 C995 0.930 . S
H978 C986 0.930 . S
H979 C987 0.930 . S
H980 C1011 0.929 . S
H981 C969 0.930 . S
H982 C970 0.929 . S
H983 C1012 0.930 . S
H984 C993 0.930 . S
N985 Gd954 2.661 . S
N985 C989 1.350 . S
N985 C990 1.307 . S
C986 H978 0.930 . S
C986 C987 1.355 . S
C986 C988 1.412 . S
C987 H979 0.930 . S
C987 C986 1.355 . S
C987 C990 1.402 . S
C988 C986 1.412 . S
C988 C989 1.417 . S
C988 C1012 1.431 . S
C989 N985 1.350 . S
C989 C988 1.417 . S
C989 C992 1.426 . S
C990 H973 0.930 . S
C990 N985 1.307 . S
C990 C987 1.402 . S
N991 Gd954 2.601 . S
N991 C992 1.359 . S
N991 C995 1.334 . S
C992 C989 1.426 . S
C992 N991 1.359 . S
C992 C996 1.413 . S
C993 H984 0.930 . S
C993 C994 1.359 . S
C993 C995 1.394 . S
C994 C993 1.359 . S
C994 C996 1.391 . S
C994 H997 0.929 . S
C995 H977 0.930 . S
C995 N991 1.334 . S
C995 C993 1.394 . S
C996 C992 1.413 . S
C996 C994 1.391 . S
C996 C1011 1.437 . S
H997 C994 0.929 . S
O998 Gd954 2.545 . S
O998 C1013 1.258 . S
O999 Gd954 2.606 . S
O999 Gd955 2.362 . S
O999 C1010 1.284 . S
O1000 Gd955 2.324 . S
O1000 C1020 1.254 . S
O1001 Gd954 2.429 . S
O1001 C1020 1.268 . S
O1002 Gd954 2.545 . S
O1002 C1010 1.250 . S
O1003 Gd954 2.412 . S
O1003 C1013 1.252 . S
O1004 Gd955 2.545 . S
O1004 C1022 1.258 . S
O1005 Gd954 2.362 . S
O1005 Gd955 2.606 . S
O1005 C1021 1.284 . S
O1006 Gd954 2.324 . S
O1006 C1029 1.254 . S
O1007 Gd955 2.429 . S
O1007 C1029 1.268 . S
O1008 Gd955 2.545 . S
O1008 C1021 1.250 . S
O1009 Gd955 2.412 . S
O1009 C1022 1.252 . S
C1010 O999 1.284 . S
C1010 O1002 1.250 . S
C1011 H980 0.929 . S
C1011 C996 1.437 . S
C1011 C1012 1.317 . S
C1012 H983 0.930 . S
C1012 C988 1.431 . S
C1012 C1011 1.317 . S
C1013 Gd954 2.828 . S
C1013 O998 1.258 . S
C1013 O1003 1.252 . S
C1013 C1014 1.497 . S
C1014 C1013 1.497 . S
C1014 C1015 1.395 . S
C1014 C1016 1.380 . S
C1015 C1014 1.395 . S
C1015 C1018 1.398 . S
C1015 H1030 0.930 . S
C1016 C1014 1.380 . S
C1016 C1017 1.391 . S
C1016 H1031 0.930 . S
C1017 C1016 1.391 . S
C1017 C1019 1.387 . S
C1018 C1015 1.398 . S
C1018 C1019 1.380 . S
C1018 H1032 0.930 . S
C1019 C1017 1.387 . S
C1019 C1018 1.380 . S
C1019 H1033 0.930 . S
C1020 O1000 1.254 . S
C1020 O1001 1.268 . S
C1021 O1005 1.284 . S
C1021 O1008 1.250 . S
C1022 Gd955 2.828 . S
C1022 O1004 1.258 . S
C1022 O1009 1.252 . S
C1022 C1023 1.497 . S
C1023 C1022 1.497 . S
C1023 C1024 1.395 . S
C1023 C1025 1.380 . S
C1024 C1023 1.395 . S
C1024 C1027 1.398 . S
C1024 H1034 0.930 . S
C1025 C1023 1.380 . S
C1025 C1026 1.391 . S
C1025 H1035 0.930 . S
C1026 C1025 1.391 . S
C1026 C1028 1.387 . S
C1027 C1024 1.398 . S
C1027 C1028 1.380 . S
C1027 H1036 0.930 . S
C1028 C1026 1.387 . S
C1028 C1027 1.380 . S
C1028 H1037 0.930 . S
C1029 O1006 1.254 . S
C1029 O1007 1.268 . S
H1030 C1015 0.930 . S
H1031 C1016 0.930 . S
H1032 C1018 0.930 . S
H1033 C1019 0.930 . S
H1034 C1024 0.930 . S
H1035 C1025 0.930 . S
H1036 C1027 0.930 . S
H1037 C1028 0.930 . S
Gd1038 N1069 2.661 . S
Gd1038 N1075 2.601 . S
Gd1038 O1082 2.545 . S
Gd1038 O1083 2.606 . S
Gd1038 O1085 2.429 . S
Gd1038 O1086 2.545 . S
Gd1038 O1087 2.412 . S
Gd1038 O1089 2.362 . S
Gd1038 O1090 2.324 . S
Gd1038 C1097 2.828 . S
Gd1039 N1048 2.661 . S
Gd1039 N1052 2.601 . S
Gd1039 O1083 2.362 . S
Gd1039 O1084 2.324 . S
Gd1039 O1088 2.545 . S
Gd1039 O1089 2.606 . S
Gd1039 O1091 2.429 . S
Gd1039 O1092 2.545 . S
Gd1039 O1093 2.412 . S
Gd1039 C1106 2.828 . S
C1040 C1043 1.417 . S
C1040 C1045 1.431 . S
C1040 C1046 1.412 . S
C1041 C1044 1.437 . S
C1041 C1045 1.317 . S
C1041 H1060 0.929 . S
C1042 C1043 1.426 . S
C1042 C1044 1.413 . S
C1042 N1052 1.359 . S
C1043 C1040 1.417 . S
C1043 C1042 1.426 . S
C1043 N1048 1.350 . S
C1044 C1041 1.437 . S
C1044 C1042 1.413 . S
C1044 C1054 1.391 . S
C1045 C1040 1.431 . S
C1045 C1041 1.317 . S
C1045 H1056 0.930 . S
C1046 C1040 1.412 . S
C1046 C1047 1.355 . S
C1046 H1058 0.930 . S
C1047 C1046 1.355 . S
C1047 C1049 1.402 . S
C1047 H1059 0.930 . S
N1048 Gd1039 2.661 . S
N1048 C1043 1.350 . S
N1048 C1049 1.307 . S
C1049 C1047 1.402 . S
C1049 N1048 1.307 . S
C1049 H1050 0.930 . S
H1050 C1049 0.930 . S
C1051 N1052 1.334 . S
C1051 C1053 1.394 . S
C1051 H1055 0.930 . S
N1052 Gd1039 2.601 . S
N1052 C1042 1.359 . S
N1052 C1051 1.334 . S
C1053 C1051 1.394 . S
C1053 C1054 1.359 . S
C1053 H1065 0.930 . S
C1054 C1044 1.391 . S
C1054 C1053 1.359 . S
C1054 H1066 0.929 . S
H1055 C1051 0.930 . S
H1056 C1045 0.930 . S
H1057 C1074 0.930 . S
H1058 C1046 0.930 . S
H1059 C1047 0.930 . S
H1060 C1041 0.929 . S
H1061 C1079 0.930 . S
H1062 C1070 0.930 . S
H1063 C1071 0.930 . S
H1064 C1095 0.929 . S
H1065 C1053 0.930 . S
H1066 C1054 0.929 . S
H1067 C1096 0.930 . S
H1068 C1077 0.930 . S
N1069 Gd1038 2.661 . S
N1069 C1073 1.350 . S
N1069 C1074 1.307 . S
C1070 H1062 0.930 . S
C1070 C1071 1.355 . S
C1070 C1072 1.412 . S
C1071 H1063 0.930 . S
C1071 C1070 1.355 . S
C1071 C1074 1.402 . S
C1072 C1070 1.412 . S
C1072 C1073 1.417 . S
C1072 C1096 1.431 . S
C1073 N1069 1.350 . S
C1073 C1072 1.417 . S
C1073 C1076 1.426 . S
C1074 H1057 0.930 . S
C1074 N1069 1.307 . S
C1074 C1071 1.402 . S
N1075 Gd1038 2.601 . S
N1075 C1076 1.359 . S
N1075 C1079 1.334 . S
C1076 C1073 1.426 . S
C1076 N1075 1.359 . S
C1076 C1080 1.413 . S
C1077 H1068 0.930 . S
C1077 C1078 1.359 . S
C1077 C1079 1.394 . S
C1078 C1077 1.359 . S
C1078 C1080 1.391 . S
C1078 H1081 0.929 . S
C1079 H1061 0.930 . S
C1079 N1075 1.334 . S
C1079 C1077 1.394 . S
C1080 C1076 1.413 . S
C1080 C1078 1.391 . S
C1080 C1095 1.437 . S
H1081 C1078 0.929 . S
O1082 Gd1038 2.545 . S
O1082 C1097 1.258 . S
O1083 Gd1038 2.606 . S
O1083 Gd1039 2.362 . S
O1083 C1094 1.284 . S
O1084 Gd1039 2.324 . S
O1084 C1104 1.254 . S
O1085 Gd1038 2.429 . S
O1085 C1104 1.268 . S
O1086 Gd1038 2.545 . S
O1086 C1094 1.250 . S
O1087 Gd1038 2.412 . S
O1087 C1097 1.252 . S
O1088 Gd1039 2.545 . S
O1088 C1106 1.258 . S
O1089 Gd1038 2.362 . S
O1089 Gd1039 2.606 . S
O1089 C1105 1.284 . S
O1090 Gd1038 2.324 . S
O1090 C1113 1.254 . S
O1091 Gd1039 2.429 . S
O1091 C1113 1.268 . S
O1092 Gd1039 2.545 . S
O1092 C1105 1.250 . S
O1093 Gd1039 2.412 . S
O1093 C1106 1.252 . S
C1094 O1083 1.284 . S
C1094 O1086 1.250 . S
C1095 H1064 0.929 . S
C1095 C1080 1.437 . S
C1095 C1096 1.317 . S
C1096 H1067 0.930 . S
C1096 C1072 1.431 . S
C1096 C1095 1.317 . S
C1097 Gd1038 2.828 . S
C1097 O1082 1.258 . S
C1097 O1087 1.252 . S
C1097 C1098 1.497 . S
C1098 C1097 1.497 . S
C1098 C1099 1.395 . S
C1098 C1100 1.380 . S
C1099 C1098 1.395 . S
C1099 C1102 1.398 . S
C1099 H1114 0.930 . S
C1100 C1098 1.380 . S
C1100 C1101 1.391 . S
C1100 H1115 0.930 . S
C1101 C1100 1.391 . S
C1101 C1103 1.387 . S
C1102 C1099 1.398 . S
C1102 C1103 1.380 . S
C1102 H1116 0.930 . S
C1103 C1101 1.387 . S
C1103 C1102 1.380 . S
C1103 H1117 0.930 . S
C1104 O1084 1.254 . S
C1104 O1085 1.268 . S
C1105 O1089 1.284 . S
C1105 O1092 1.250 . S
C1106 Gd1039 2.828 . S
C1106 O1088 1.258 . S
C1106 O1093 1.252 . S
C1106 C1107 1.497 . S
C1107 C1106 1.497 . S
C1107 C1108 1.395 . S
C1107 C1109 1.380 . S
C1108 C1107 1.395 . S
C1108 C1111 1.398 . S
C1108 H1118 0.930 . S
C1109 C1107 1.380 . S
C1109 C1110 1.391 . S
C1109 H1119 0.930 . S
C1110 C1109 1.391 . S
C1110 C1112 1.387 . S
C1111 C1108 1.398 . S
C1111 C1112 1.380 . S
C1111 H1120 0.930 . S
C1112 C1110 1.387 . S
C1112 C1111 1.380 . S
C1112 H1121 0.930 . S
C1113 O1090 1.254 . S
C1113 O1091 1.268 . S
H1114 C1099 0.930 . S
H1115 C1100 0.930 . S
H1116 C1102 0.930 . S
H1117 C1103 0.930 . S
H1118 C1108 0.930 . S
H1119 C1109 0.930 . S
H1120 C1111 0.930 . S
H1121 C1112 0.930 . S
Gd1122 N1153 2.661 . S
Gd1122 N1159 2.601 . S
Gd1122 O1166 2.545 . S
Gd1122 O1167 2.606 . S
Gd1122 O1169 2.429 . S
Gd1122 O1170 2.545 . S
Gd1122 O1171 2.412 . S
Gd1122 O1173 2.362 . S
Gd1122 O1174 2.324 . S
Gd1122 C1181 2.828 . S
Gd1123 N1132 2.661 . S
Gd1123 N1136 2.601 . S
Gd1123 O1167 2.362 . S
Gd1123 O1168 2.324 . S
Gd1123 O1172 2.545 . S
Gd1123 O1173 2.606 . S
Gd1123 O1175 2.429 . S
Gd1123 O1176 2.545 . S
Gd1123 O1177 2.412 . S
Gd1123 C1190 2.828 . S
C1124 C1127 1.417 . S
C1124 C1129 1.431 . S
C1124 C1130 1.412 . S
C1125 C1128 1.437 . S
C1125 C1129 1.317 . S
C1125 H1144 0.929 . S
C1126 C1127 1.426 . S
C1126 C1128 1.413 . S
C1126 N1136 1.359 . S
C1127 C1124 1.417 . S
C1127 C1126 1.426 . S
C1127 N1132 1.350 . S
C1128 C1125 1.437 . S
C1128 C1126 1.413 . S
C1128 C1138 1.391 . S
C1129 C1124 1.431 . S
C1129 C1125 1.317 . S
C1129 H1140 0.930 . S
C1130 C1124 1.412 . S
C1130 C1131 1.355 . S
C1130 H1142 0.930 . S
C1131 C1130 1.355 . S
C1131 C1133 1.402 . S
C1131 H1143 0.930 . S
N1132 Gd1123 2.661 . S
N1132 C1127 1.350 . S
N1132 C1133 1.307 . S
C1133 C1131 1.402 . S
C1133 N1132 1.307 . S
C1133 H1134 0.930 . S
H1134 C1133 0.930 . S
C1135 N1136 1.334 . S
C1135 C1137 1.394 . S
C1135 H1139 0.930 . S
N1136 Gd1123 2.601 . S
N1136 C1126 1.359 . S
N1136 C1135 1.334 . S
C1137 C1135 1.394 . S
C1137 C1138 1.359 . S
C1137 H1149 0.930 . S
C1138 C1128 1.391 . S
C1138 C1137 1.359 . S
C1138 H1150 0.929 . S
H1139 C1135 0.930 . S
H1140 C1129 0.930 . S
H1141 C1158 0.930 . S
H1142 C1130 0.930 . S
H1143 C1131 0.930 . S
H1144 C1125 0.929 . S
H1145 C1163 0.930 . S
H1146 C1154 0.930 . S
H1147 C1155 0.930 . S
H1148 C1179 0.929 . S
H1149 C1137 0.930 . S
H1150 C1138 0.929 . S
H1151 C1180 0.930 . S
H1152 C1161 0.930 . S
N1153 Gd1122 2.661 . S
N1153 C1157 1.350 . S
N1153 C1158 1.307 . S
C1154 H1146 0.930 . S
C1154 C1155 1.355 . S
C1154 C1156 1.412 . S
C1155 H1147 0.930 . S
C1155 C1154 1.355 . S
C1155 C1158 1.402 . S
C1156 C1154 1.412 . S
C1156 C1157 1.417 . S
C1156 C1180 1.431 . S
C1157 N1153 1.350 . S
C1157 C1156 1.417 . S
C1157 C1160 1.426 . S
C1158 H1141 0.930 . S
C1158 N1153 1.307 . S
C1158 C1155 1.402 . S
N1159 Gd1122 2.601 . S
N1159 C1160 1.359 . S
N1159 C1163 1.334 . S
C1160 C1157 1.426 . S
C1160 N1159 1.359 . S
C1160 C1164 1.413 . S
C1161 H1152 0.930 . S
C1161 C1162 1.359 . S
C1161 C1163 1.394 . S
C1162 C1161 1.359 . S
C1162 C1164 1.391 . S
C1162 H1165 0.929 . S
C1163 H1145 0.930 . S
C1163 N1159 1.334 . S
C1163 C1161 1.394 . S
C1164 C1160 1.413 . S
C1164 C1162 1.391 . S
C1164 C1179 1.437 . S
H1165 C1162 0.929 . S
O1166 Gd1122 2.545 . S
O1166 C1181 1.258 . S
O1167 Gd1122 2.606 . S
O1167 Gd1123 2.362 . S
O1167 C1178 1.284 . S
O1168 Gd1123 2.324 . S
O1168 C1188 1.254 . S
O1169 Gd1122 2.429 . S
O1169 C1188 1.268 . S
O1170 Gd1122 2.545 . S
O1170 C1178 1.250 . S
O1171 Gd1122 2.412 . S
O1171 C1181 1.252 . S
O1172 Gd1123 2.545 . S
O1172 C1190 1.258 . S
O1173 Gd1122 2.362 . S
O1173 Gd1123 2.606 . S
O1173 C1189 1.284 . S
O1174 Gd1122 2.324 . S
O1174 C1197 1.254 . S
O1175 Gd1123 2.429 . S
O1175 C1197 1.268 . S
O1176 Gd1123 2.545 . S
O1176 C1189 1.250 . S
O1177 Gd1123 2.412 . S
O1177 C1190 1.252 . S
C1178 O1167 1.284 . S
C1178 O1170 1.250 . S
C1179 H1148 0.929 . S
C1179 C1164 1.437 . S
C1179 C1180 1.317 . S
C1180 H1151 0.930 . S
C1180 C1156 1.431 . S
C1180 C1179 1.317 . S
C1181 Gd1122 2.828 . S
C1181 O1166 1.258 . S
C1181 O1171 1.252 . S
C1181 C1182 1.497 . S
C1182 C1181 1.497 . S
C1182 C1183 1.395 . S
C1182 C1184 1.380 . S
C1183 C1182 1.395 . S
C1183 C1186 1.398 . S
C1183 H1198 0.930 . S
C1184 C1182 1.380 . S
C1184 C1185 1.391 . S
C1184 H1199 0.930 . S
C1185 C1184 1.391 . S
C1185 C1187 1.387 . S
C1186 C1183 1.398 . S
C1186 C1187 1.380 . S
C1186 H1200 0.930 . S
C1187 C1185 1.387 . S
C1187 C1186 1.380 . S
C1187 H1201 0.930 . S
C1188 O1168 1.254 . S
C1188 O1169 1.268 . S
C1189 O1173 1.284 . S
C1189 O1176 1.250 . S
C1190 Gd1123 2.828 . S
C1190 O1172 1.258 . S
C1190 O1177 1.252 . S
C1190 C1191 1.497 . S
C1191 C1190 1.497 . S
C1191 C1192 1.395 . S
C1191 C1193 1.380 . S
C1192 C1191 1.395 . S
C1192 C1195 1.398 . S
C1192 H1202 0.930 . S
C1193 C1191 1.380 . S
C1193 C1194 1.391 . S
C1193 H1203 0.930 . S
C1194 C1193 1.391 . S
C1194 C1196 1.387 . S
C1195 C1192 1.398 . S
C1195 C1196 1.380 . S
C1195 H1204 0.930 . S
C1196 C1194 1.387 . S
C1196 C1195 1.380 . S
C1196 H1205 0.930 . S
C1197 O1174 1.254 . S
C1197 O1175 1.268 . S
H1198 C1183 0.930 . S
H1199 C1184 0.930 . S
H1200 C1186 0.930 . S
H1201 C1187 0.930 . S
H1202 C1192 0.930 . S
H1203 C1193 0.930 . S
H1204 C1195 0.930 . S
H1205 C1196 0.930 . S
Gd1206 N1237 2.661 . S
Gd1206 N1243 2.601 . S
Gd1206 O1250 2.545 . S
Gd1206 O1251 2.606 . S
Gd1206 O1253 2.429 . S
Gd1206 O1254 2.545 . S
Gd1206 O1255 2.412 . S
Gd1206 O1257 2.362 . S
Gd1206 O1258 2.324 . S
Gd1206 C1265 2.828 . S
Gd1207 N1216 2.661 . S
Gd1207 N1220 2.601 . S
Gd1207 O1251 2.362 . S
Gd1207 O1252 2.324 . S
Gd1207 O1256 2.545 . S
Gd1207 O1257 2.606 . S
Gd1207 O1259 2.429 . S
Gd1207 O1260 2.545 . S
Gd1207 O1261 2.412 . S
Gd1207 C1274 2.828 . S
C1208 C1211 1.417 . S
C1208 C1213 1.431 . S
C1208 C1214 1.412 . S
C1209 C1212 1.437 . S
C1209 C1213 1.317 . S
C1209 H1228 0.929 . S
C1210 C1211 1.426 . S
C1210 C1212 1.413 . S
C1210 N1220 1.359 . S
C1211 C1208 1.417 . S
C1211 C1210 1.426 . S
C1211 N1216 1.350 . S
C1212 C1209 1.437 . S
C1212 C1210 1.413 . S
C1212 C1222 1.391 . S
C1213 C1208 1.431 . S
C1213 C1209 1.317 . S
C1213 H1224 0.930 . S
C1214 C1208 1.412 . S
C1214 C1215 1.355 . S
C1214 H1226 0.930 . S
C1215 C1214 1.355 . S
C1215 C1217 1.402 . S
C1215 H1227 0.930 . S
N1216 Gd1207 2.661 . S
N1216 C1211 1.350 . S
N1216 C1217 1.307 . S
C1217 C1215 1.402 . S
C1217 N1216 1.307 . S
C1217 H1218 0.930 . S
H1218 C1217 0.930 . S
C1219 N1220 1.334 . S
C1219 C1221 1.394 . S
C1219 H1223 0.930 . S
N1220 Gd1207 2.601 . S
N1220 C1210 1.359 . S
N1220 C1219 1.334 . S
C1221 C1219 1.394 . S
C1221 C1222 1.359 . S
C1221 H1233 0.930 . S
C1222 C1212 1.391 . S
C1222 C1221 1.359 . S
C1222 H1234 0.929 . S
H1223 C1219 0.930 . S
H1224 C1213 0.930 . S
H1225 C1242 0.930 . S
H1226 C1214 0.930 . S
H1227 C1215 0.930 . S
H1228 C1209 0.929 . S
H1229 C1247 0.930 . S
H1230 C1238 0.930 . S
H1231 C1239 0.930 . S
H1232 C1263 0.929 . S
H1233 C1221 0.930 . S
H1234 C1222 0.929 . S
H1235 C1264 0.930 . S
H1236 C1245 0.930 . S
N1237 Gd1206 2.661 . S
N1237 C1241 1.350 . S
N1237 C1242 1.307 . S
C1238 H1230 0.930 . S
C1238 C1239 1.355 . S
C1238 C1240 1.412 . S
C1239 H1231 0.930 . S
C1239 C1238 1.355 . S
C1239 C1242 1.402 . S
C1240 C1238 1.412 . S
C1240 C1241 1.417 . S
C1240 C1264 1.431 . S
C1241 N1237 1.350 . S
C1241 C1240 1.417 . S
C1241 C1244 1.426 . S
C1242 H1225 0.930 . S
C1242 N1237 1.307 . S
C1242 C1239 1.402 . S
N1243 Gd1206 2.601 . S
N1243 C1244 1.359 . S
N1243 C1247 1.334 . S
C1244 C1241 1.426 . S
C1244 N1243 1.359 . S
C1244 C1248 1.413 . S
C1245 H1236 0.930 . S
C1245 C1246 1.359 . S
C1245 C1247 1.394 . S
C1246 C1245 1.359 . S
C1246 C1248 1.391 . S
C1246 H1249 0.929 . S
C1247 H1229 0.930 . S
C1247 N1243 1.334 . S
C1247 C1245 1.394 . S
C1248 C1244 1.413 . S
C1248 C1246 1.391 . S
C1248 C1263 1.437 . S
H1249 C1246 0.929 . S
O1250 Gd1206 2.545 . S
O1250 C1265 1.258 . S
O1251 Gd1206 2.606 . S
O1251 Gd1207 2.362 . S
O1251 C1262 1.284 . S
O1252 Gd1207 2.324 . S
O1252 C1272 1.254 . S
O1253 Gd1206 2.429 . S
O1253 C1272 1.268 . S
O1254 Gd1206 2.545 . S
O1254 C1262 1.250 . S
O1255 Gd1206 2.412 . S
O1255 C1265 1.252 . S
O1256 Gd1207 2.545 . S
O1256 C1274 1.258 . S
O1257 Gd1206 2.362 . S
O1257 Gd1207 2.606 . S
O1257 C1273 1.284 . S
O1258 Gd1206 2.324 . S
O1258 C1281 1.254 . S
O1259 Gd1207 2.429 . S
O1259 C1281 1.268 . S
O1260 Gd1207 2.545 . S
O1260 C1273 1.250 . S
O1261 Gd1207 2.412 . S
O1261 C1274 1.252 . S
C1262 O1251 1.284 . S
C1262 O1254 1.250 . S
C1263 H1232 0.929 . S
C1263 C1248 1.437 . S
C1263 C1264 1.317 . S
C1264 H1235 0.930 . S
C1264 C1240 1.431 . S
C1264 C1263 1.317 . S
C1265 Gd1206 2.828 . S
C1265 O1250 1.258 . S
C1265 O1255 1.252 . S
C1265 C1266 1.497 . S
C1266 C1265 1.497 . S
C1266 C1267 1.395 . S
C1266 C1268 1.380 . S
C1267 C1266 1.395 . S
C1267 C1270 1.398 . S
C1267 H1282 0.930 . S
C1268 C1266 1.380 . S
C1268 C1269 1.391 . S
C1268 H1283 0.930 . S
C1269 C1268 1.391 . S
C1269 C1271 1.387 . S
C1270 C1267 1.398 . S
C1270 C1271 1.380 . S
C1270 H1284 0.930 . S
C1271 C1269 1.387 . S
C1271 C1270 1.380 . S
C1271 H1285 0.930 . S
C1272 O1252 1.254 . S
C1272 O1253 1.268 . S
C1273 O1257 1.284 . S
C1273 O1260 1.250 . S
C1274 Gd1207 2.828 . S
C1274 O1256 1.258 . S
C1274 O1261 1.252 . S
C1274 C1275 1.497 . S
C1275 C1274 1.497 . S
C1275 C1276 1.395 . S
C1275 C1277 1.380 . S
C1276 C1275 1.395 . S
C1276 C1279 1.398 . S
C1276 H1286 0.930 . S
C1277 C1275 1.380 . S
C1277 C1278 1.391 . S
C1277 H1287 0.930 . S
C1278 C1277 1.391 . S
C1278 C1280 1.387 . S
C1279 C1276 1.398 . S
C1279 C1280 1.380 . S
C1279 H1288 0.930 . S
C1280 C1278 1.387 . S
C1280 C1279 1.380 . S
C1280 H1289 0.930 . S
C1281 O1258 1.254 . S
C1281 O1259 1.268 . S
H1282 C1267 0.930 . S
H1283 C1268 0.930 . S
H1284 C1270 0.930 . S
H1285 C1271 0.930 . S
H1286 C1276 0.930 . S
H1287 C1277 0.930 . S
H1288 C1279 0.930 . S
H1289 C1280 0.930 . S
Gd1290 N1321 2.661 . S
Gd1290 N1327 2.601 . S
Gd1290 O1334 2.545 . S
Gd1290 O1335 2.606 . S
Gd1290 O1337 2.429 . S
Gd1290 O1338 2.545 . S
Gd1290 O1339 2.412 . S
Gd1290 O1341 2.362 . S
Gd1290 O1342 2.324 . S
Gd1290 C1349 2.828 . S
Gd1291 N1300 2.661 . S
Gd1291 N1304 2.601 . S
Gd1291 O1335 2.362 . S
Gd1291 O1336 2.324 . S
Gd1291 O1340 2.545 . S
Gd1291 O1341 2.606 . S
Gd1291 O1343 2.429 . S
Gd1291 O1344 2.545 . S
Gd1291 O1345 2.412 . S
Gd1291 C1358 2.828 . S
C1292 C1295 1.417 . S
C1292 C1297 1.431 . S
C1292 C1298 1.412 . S
C1293 C1296 1.437 . S
C1293 C1297 1.317 . S
C1293 H1312 0.929 . S
C1294 C1295 1.426 . S
C1294 C1296 1.413 . S
C1294 N1304 1.359 . S
C1295 C1292 1.417 . S
C1295 C1294 1.426 . S
C1295 N1300 1.350 . S
C1296 C1293 1.437 . S
C1296 C1294 1.413 . S
C1296 C1306 1.391 . S
C1297 C1292 1.431 . S
C1297 C1293 1.317 . S
C1297 H1308 0.930 . S
C1298 C1292 1.412 . S
C1298 C1299 1.355 . S
C1298 H1310 0.930 . S
C1299 C1298 1.355 . S
C1299 C1301 1.402 . S
C1299 H1311 0.930 . S
N1300 Gd1291 2.661 . S
N1300 C1295 1.350 . S
N1300 C1301 1.307 . S
C1301 C1299 1.402 . S
C1301 N1300 1.307 . S
C1301 H1302 0.930 . S
H1302 C1301 0.930 . S
C1303 N1304 1.334 . S
C1303 C1305 1.394 . S
C1303 H1307 0.930 . S
N1304 Gd1291 2.601 . S
N1304 C1294 1.359 . S
N1304 C1303 1.334 . S
C1305 C1303 1.394 . S
C1305 C1306 1.359 . S
C1305 H1317 0.930 . S
C1306 C1296 1.391 . S
C1306 C1305 1.359 . S
C1306 H1318 0.929 . S
H1307 C1303 0.930 . S
H1308 C1297 0.930 . S
H1309 C1326 0.930 . S
H1310 C1298 0.930 . S
H1311 C1299 0.930 . S
H1312 C1293 0.929 . S
H1313 C1331 0.930 . S
H1314 C1322 0.930 . S
H1315 C1323 0.930 . S
H1316 C1347 0.929 . S
H1317 C1305 0.930 . S
H1318 C1306 0.929 . S
H1319 C1348 0.930 . S
H1320 C1329 0.930 . S
N1321 Gd1290 2.661 . S
N1321 C1325 1.350 . S
N1321 C1326 1.307 . S
C1322 H1314 0.930 . S
C1322 C1323 1.355 . S
C1322 C1324 1.412 . S
C1323 H1315 0.930 . S
C1323 C1322 1.355 . S
C1323 C1326 1.402 . S
C1324 C1322 1.412 . S
C1324 C1325 1.417 . S
C1324 C1348 1.431 . S
C1325 N1321 1.350 . S
C1325 C1324 1.417 . S
C1325 C1328 1.426 . S
C1326 H1309 0.930 . S
C1326 N1321 1.307 . S
C1326 C1323 1.402 . S
N1327 Gd1290 2.601 . S
N1327 C1328 1.359 . S
N1327 C1331 1.334 . S
C1328 C1325 1.426 . S
C1328 N1327 1.359 . S
C1328 C1332 1.413 . S
C1329 H1320 0.930 . S
C1329 C1330 1.359 . S
C1329 C1331 1.394 . S
C1330 C1329 1.359 . S
C1330 C1332 1.391 . S
C1330 H1333 0.929 . S
C1331 H1313 0.930 . S
C1331 N1327 1.334 . S
C1331 C1329 1.394 . S
C1332 C1328 1.413 . S
C1332 C1330 1.391 . S
C1332 C1347 1.437 . S
H1333 C1330 0.929 . S
O1334 Gd1290 2.545 . S
O1334 C1349 1.258 . S
O1335 Gd1290 2.606 . S
O1335 Gd1291 2.362 . S
O1335 C1346 1.284 . S
O1336 Gd1291 2.324 . S
O1336 C1356 1.254 . S
O1337 Gd1290 2.429 . S
O1337 C1356 1.268 . S
O1338 Gd1290 2.545 . S
O1338 C1346 1.250 . S
O1339 Gd1290 2.412 . S
O1339 C1349 1.252 . S
O1340 Gd1291 2.545 . S
O1340 C1358 1.258 . S
O1341 Gd1290 2.362 . S
O1341 Gd1291 2.606 . S
O1341 C1357 1.284 . S
O1342 Gd1290 2.324 . S
O1342 C1365 1.254 . S
O1343 Gd1291 2.429 . S
O1343 C1365 1.268 . S
O1344 Gd1291 2.545 . S
O1344 C1357 1.250 . S
O1345 Gd1291 2.412 . S
O1345 C1358 1.252 . S
C1346 O1335 1.284 . S
C1346 O1338 1.250 . S
C1347 H1316 0.929 . S
C1347 C1332 1.437 . S
C1347 C1348 1.317 . S
C1348 H1319 0.930 . S
C1348 C1324 1.431 . S
C1348 C1347 1.317 . S
C1349 Gd1290 2.828 . S
C1349 O1334 1.258 . S
C1349 O1339 1.252 . S
C1349 C1350 1.497 . S
C1350 C1349 1.497 . S
C1350 C1351 1.395 . S
C1350 C1352 1.380 . S
C1351 C1350 1.395 . S
C1351 C1354 1.398 . S
C1351 H1366 0.930 . S
C1352 C1350 1.380 . S
C1352 C1353 1.391 . S
C1352 H1367 0.930 . S
C1353 C1352 1.391 . S
C1353 C1355 1.387 . S
C1354 C1351 1.398 . S
C1354 C1355 1.380 . S
C1354 H1368 0.930 . S
C1355 C1353 1.387 . S
C1355 C1354 1.380 . S
C1355 H1369 0.930 . S
C1356 O1336 1.254 . S
C1356 O1337 1.268 . S
C1357 O1341 1.284 . S
C1357 O1344 1.250 . S
C1358 Gd1291 2.828 . S
C1358 O1340 1.258 . S
C1358 O1345 1.252 . S
C1358 C1359 1.497 . S
C1359 C1358 1.497 . S
C1359 C1360 1.395 . S
C1359 C1361 1.380 . S
C1360 C1359 1.395 . S
C1360 C1363 1.398 . S
C1360 H1370 0.930 . S
C1361 C1359 1.380 . S
C1361 C1362 1.391 . S
C1361 H1371 0.930 . S
C1362 C1361 1.391 . S
C1362 C1364 1.387 . S
C1363 C1360 1.398 . S
C1363 C1364 1.380 . S
C1363 H1372 0.930 . S
C1364 C1362 1.387 . S
C1364 C1363 1.380 . S
C1364 H1373 0.930 . S
C1365 O1342 1.254 . S
C1365 O1343 1.268 . S
H1366 C1351 0.930 . S
H1367 C1352 0.930 . S
H1368 C1354 0.930 . S
H1369 C1355 0.930 . S
H1370 C1360 0.930 . S
H1371 C1361 0.930 . S
H1372 C1363 0.930 . S
H1373 C1364 0.930 . S
Gd1374 N1405 2.661 . S
Gd1374 N1411 2.601 . S
Gd1374 O1418 2.545 . S
Gd1374 O1419 2.606 . S
Gd1374 O1421 2.429 . S
Gd1374 O1422 2.545 . S
Gd1374 O1423 2.412 . S
Gd1374 O1425 2.362 . S
Gd1374 O1426 2.324 . S
Gd1374 C1433 2.828 . S
Gd1375 N1384 2.661 . S
Gd1375 N1388 2.601 . S
Gd1375 O1419 2.362 . S
Gd1375 O1420 2.324 . S
Gd1375 O1424 2.545 . S
Gd1375 O1425 2.606 . S
Gd1375 O1427 2.429 . S
Gd1375 O1428 2.545 . S
Gd1375 O1429 2.412 . S
Gd1375 C1442 2.828 . S
C1376 C1379 1.417 . S
C1376 C1381 1.431 . S
C1376 C1382 1.412 . S
C1377 C1380 1.437 . S
C1377 C1381 1.317 . S
C1377 H1396 0.929 . S
C1378 C1379 1.426 . S
C1378 C1380 1.413 . S
C1378 N1388 1.359 . S
C1379 C1376 1.417 . S
C1379 C1378 1.426 . S
C1379 N1384 1.350 . S
C1380 C1377 1.437 . S
C1380 C1378 1.413 . S
C1380 C1390 1.391 . S
C1381 C1376 1.431 . S
C1381 C1377 1.317 . S
C1381 H1392 0.930 . S
C1382 C1376 1.412 . S
C1382 C1383 1.355 . S
C1382 H1394 0.930 . S
C1383 C1382 1.355 . S
C1383 C1385 1.402 . S
C1383 H1395 0.930 . S
N1384 Gd1375 2.661 . S
N1384 C1379 1.350 . S
N1384 C1385 1.307 . S
C1385 C1383 1.402 . S
C1385 N1384 1.307 . S
C1385 H1386 0.930 . S
H1386 C1385 0.930 . S
C1387 N1388 1.334 . S
C1387 C1389 1.394 . S
C1387 H1391 0.930 . S
N1388 Gd1375 2.601 . S
N1388 C1378 1.359 . S
N1388 C1387 1.334 . S
C1389 C1387 1.394 . S
C1389 C1390 1.359 . S
C1389 H1401 0.930 . S
C1390 C1380 1.391 . S
C1390 C1389 1.359 . S
C1390 H1402 0.929 . S
H1391 C1387 0.930 . S
H1392 C1381 0.930 . S
H1393 C1410 0.930 . S
H1394 C1382 0.930 . S
H1395 C1383 0.930 . S
H1396 C1377 0.929 . S
H1397 C1415 0.930 . S
H1398 C1406 0.930 . S
H1399 C1407 0.930 . S
H1400 C1431 0.929 . S
H1401 C1389 0.930 . S
H1402 C1390 0.929 . S
H1403 C1432 0.930 . S
H1404 C1413 0.930 . S
N1405 Gd1374 2.661 . S
N1405 C1409 1.350 . S
N1405 C1410 1.307 . S
C1406 H1398 0.930 . S
C1406 C1407 1.355 . S
C1406 C1408 1.412 . S
C1407 H1399 0.930 . S
C1407 C1406 1.355 . S
C1407 C1410 1.402 . S
C1408 C1406 1.412 . S
C1408 C1409 1.417 . S
C1408 C1432 1.431 . S
C1409 N1405 1.350 . S
C1409 C1408 1.417 . S
C1409 C1412 1.426 . S
C1410 H1393 0.930 . S
C1410 N1405 1.307 . S
C1410 C1407 1.402 . S
N1411 Gd1374 2.601 . S
N1411 C1412 1.359 . S
N1411 C1415 1.334 . S
C1412 C1409 1.426 . S
C1412 N1411 1.359 . S
C1412 C1416 1.413 . S
C1413 H1404 0.930 . S
C1413 C1414 1.359 . S
C1413 C1415 1.394 . S
C1414 C1413 1.359 . S
C1414 C1416 1.391 . S
C1414 H1417 0.929 . S
C1415 H1397 0.930 . S
C1415 N1411 1.334 . S
C1415 C1413 1.394 . S
C1416 C1412 1.413 . S
C1416 C1414 1.391 . S
C1416 C1431 1.437 . S
H1417 C1414 0.929 . S
O1418 Gd1374 2.545 . S
O1418 C1433 1.258 . S
O1419 Gd1374 2.606 . S
O1419 Gd1375 2.362 . S
O1419 C1430 1.284 . S
O1420 Gd1375 2.324 . S
O1420 C1440 1.254 . S
O1421 Gd1374 2.429 . S
O1421 C1440 1.268 . S
O1422 Gd1374 2.545 . S
O1422 C1430 1.250 . S
O1423 Gd1374 2.412 . S
O1423 C1433 1.252 . S
O1424 Gd1375 2.545 . S
O1424 C1442 1.258 . S
O1425 Gd1374 2.362 . S
O1425 Gd1375 2.606 . S
O1425 C1441 1.284 . S
O1426 Gd1374 2.324 . S
O1426 C1449 1.254 . S
O1427 Gd1375 2.429 . S
O1427 C1449 1.268 . S
O1428 Gd1375 2.545 . S
O1428 C1441 1.250 . S
O1429 Gd1375 2.412 . S
O1429 C1442 1.252 . S
C1430 O1419 1.284 . S
C1430 O1422 1.250 . S
C1431 H1400 0.929 . S
C1431 C1416 1.437 . S
C1431 C1432 1.317 . S
C1432 H1403 0.930 . S
C1432 C1408 1.431 . S
C1432 C1431 1.317 . S
C1433 Gd1374 2.828 . S
C1433 O1418 1.258 . S
C1433 O1423 1.252 . S
C1433 C1434 1.497 . S
C1434 C1433 1.497 . S
C1434 C1435 1.395 . S
C1434 C1436 1.380 . S
C1435 C1434 1.395 . S
C1435 C1438 1.398 . S
C1435 H1450 0.930 . S
C1436 C1434 1.380 . S
C1436 C1437 1.391 . S
C1436 H1451 0.930 . S
C1437 C1436 1.391 . S
C1437 C1439 1.387 . S
C1438 C1435 1.398 . S
C1438 C1439 1.380 . S
C1438 H1452 0.930 . S
C1439 C1437 1.387 . S
C1439 C1438 1.380 . S
C1439 H1453 0.930 . S
C1440 O1420 1.254 . S
C1440 O1421 1.268 . S
C1441 O1425 1.284 . S
C1441 O1428 1.250 . S
C1442 Gd1375 2.828 . S
C1442 O1424 1.258 . S
C1442 O1429 1.252 . S
C1442 C1443 1.497 . S
C1443 C1442 1.497 . S
C1443 C1444 1.395 . S
C1443 C1445 1.380 . S
C1444 C1443 1.395 . S
C1444 C1447 1.398 . S
C1444 H1454 0.930 . S
C1445 C1443 1.380 . S
C1445 C1446 1.391 . S
C1445 H1455 0.930 . S
C1446 C1445 1.391 . S
C1446 C1448 1.387 . S
C1447 C1444 1.398 . S
C1447 C1448 1.380 . S
C1447 H1456 0.930 . S
C1448 C1446 1.387 . S
C1448 C1447 1.380 . S
C1448 H1457 0.930 . S
C1449 O1426 1.254 . S
C1449 O1427 1.268 . S
H1450 C1435 0.930 . S
H1451 C1436 0.930 . S
H1452 C1438 0.930 . S
H1453 C1439 0.930 . S
H1454 C1444 0.930 . S
H1455 C1445 0.930 . S
H1456 C1447 0.930 . S
H1457 C1448 0.930 . S
H1458 C1466 0.929 . S
H1459 C1468 0.930 . S
H1460 C1470 0.930 . S
H1461 C1473 0.929 . S
H1462 C1476 0.930 . S
H1463 C1478 0.960 . S
H1464 C1478 0.960 . S
H1465 C1478 0.960 . S
C1466 H1458 0.929 . S
C1466 C1467 1.377 . S
C1466 C1468 1.384 . S
C1467 C1466 1.377 . S
C1467 C1473 1.390 . S
C1468 H1459 0.930 . S
C1468 C1466 1.384 . S
C1468 C1469 1.372 . S
C1469 C1468 1.372 . S
C1469 C1470 1.400 . S
C1469 C1474 1.490 . S
C1470 H1460 0.930 . S
C1470 C1469 1.400 . S
C1470 C1473 1.386 . S
H1471 C1487 0.930 . S
H1472 C1488 0.931 . S
C1473 H1461 0.929 . S
C1473 C1467 1.390 . S
C1473 C1470 1.386 . S
C1474 C1469 1.490 . S
C1474 C1476 1.395 . S
C1474 C1477 1.403 . S
H1475 C1481 0.930 . S
C1476 H1462 0.930 . S
C1476 C1474 1.395 . S
C1476 C1479 1.403 . S
C1477 C1474 1.403 . S
C1477 C1478 1.524 . S
C1477 C1481 1.400 . S
C1478 H1463 0.960 . S
C1478 H1464 0.960 . S
C1478 H1465 0.960 . S
C1478 C1477 1.524 . S
C1479 C1476 1.403 . S
C1479 C1480 1.392 . S
C1479 C1483 1.495 . S
C1480 C1479 1.392 . S
C1480 C1481 1.385 . S
C1480 C1482 1.478 . S
C1481 H1475 0.930 . S
C1481 C1477 1.400 . S
C1481 C1480 1.385 . S
C1482 C1480 1.478 . S
C1482 C1484 1.381 . S
C1482 C1488 1.383 . S
C1483 C1479 1.495 . S
C1483 H1489 0.959 . S
C1483 H1490 0.961 . S
C1483 H1491 0.960 . S
C1484 C1482 1.381 . S
C1484 C1485 1.394 . S
C1484 H1492 0.930 . S
C1485 C1484 1.394 . S
C1485 C1486 1.383 . S
C1485 H1493 0.929 . S
C1486 C1485 1.383 . S
C1486 C1487 1.377 . S
C1487 H1471 0.930 . S
C1487 C1486 1.377 . S
C1487 C1488 1.379 . S
C1488 H1472 0.931 . S
C1488 C1482 1.383 . S
C1488 C1487 1.379 . S
H1489 C1483 0.959 . S
H1490 C1483 0.961 . S
H1491 C1483 0.960 . S
H1492 C1484 0.930 . S
H1493 C1485 0.929 . S
H1494 C1502 0.929 . S
H1495 C1504 0.930 . S
H1496 C1506 0.930 . S
H1497 C1509 0.929 . S
H1498 C1512 0.930 . S
H1499 C1514 0.960 . S
H1500 C1514 0.960 . S
H1501 C1514 0.960 . S
C1502 H1494 0.929 . S
C1502 C1503 1.377 . S
C1502 C1504 1.384 . S
C1503 C1502 1.377 . S
C1503 C1509 1.390 . S
C1504 H1495 0.930 . S
C1504 C1502 1.384 . S
C1504 C1505 1.372 . S
C1505 C1504 1.372 . S
C1505 C1506 1.400 . S
C1505 C1510 1.490 . S
C1506 H1496 0.930 . S
C1506 C1505 1.400 . S
C1506 C1509 1.386 . S
H1507 C1523 0.930 . S
H1508 C1524 0.931 . S
C1509 H1497 0.929 . S
C1509 C1503 1.390 . S
C1509 C1506 1.386 . S
C1510 C1505 1.490 . S
C1510 C1512 1.395 . S
C1510 C1513 1.403 . S
H1511 C1517 0.930 . S
C1512 H1498 0.930 . S
C1512 C1510 1.395 . S
C1512 C1515 1.403 . S
C1513 C1510 1.403 . S
C1513 C1514 1.524 . S
C1513 C1517 1.400 . S
C1514 H1499 0.960 . S
C1514 H1500 0.960 . S
C1514 H1501 0.960 . S
C1514 C1513 1.524 . S
C1515 C1512 1.403 . S
C1515 C1516 1.392 . S
C1515 C1519 1.495 . S
C1516 C1515 1.392 . S
C1516 C1517 1.385 . S
C1516 C1518 1.478 . S
C1517 H1511 0.930 . S
C1517 C1513 1.400 . S
C1517 C1516 1.385 . S
C1518 C1516 1.478 . S
C1518 C1520 1.381 . S
C1518 C1524 1.383 . S
C1519 C1515 1.495 . S
C1519 H1525 0.959 . S
C1519 H1526 0.961 . S
C1519 H1527 0.960 . S
C1520 C1518 1.381 . S
C1520 C1521 1.394 . S
C1520 H1528 0.930 . S
C1521 C1520 1.394 . S
C1521 C1522 1.383 . S
C1521 H1529 0.929 . S
C1522 C1521 1.383 . S
C1522 C1523 1.377 . S
C1523 H1507 0.930 . S
C1523 C1522 1.377 . S
C1523 C1524 1.379 . S
C1524 H1508 0.931 . S
C1524 C1518 1.383 . S
C1524 C1523 1.379 . S
H1525 C1519 0.959 . S
H1526 C1519 0.961 . S
H1527 C1519 0.960 . S
H1528 C1520 0.930 . S
H1529 C1521 0.929 . S
H1530 C1538 0.929 . S
H1531 C1540 0.930 . S
H1532 C1542 0.930 . S
H1533 C1545 0.929 . S
H1534 C1548 0.930 . S
H1535 C1550 0.960 . S
H1536 C1550 0.960 . S
H1537 C1550 0.960 . S
C1538 H1530 0.929 . S
C1538 C1539 1.377 . S
C1538 C1540 1.384 . S
C1539 C1538 1.377 . S
C1539 C1545 1.390 . S
C1540 H1531 0.930 . S
C1540 C1538 1.384 . S
C1540 C1541 1.372 . S
C1541 C1540 1.372 . S
C1541 C1542 1.400 . S
C1541 C1546 1.490 . S
C1542 H1532 0.930 . S
C1542 C1541 1.400 . S
C1542 C1545 1.386 . S
H1543 C1559 0.930 . S
H1544 C1560 0.931 . S
C1545 H1533 0.929 . S
C1545 C1539 1.390 . S
C1545 C1542 1.386 . S
C1546 C1541 1.490 . S
C1546 C1548 1.395 . S
C1546 C1549 1.403 . S
H1547 C1553 0.930 . S
C1548 H1534 0.930 . S
C1548 C1546 1.395 . S
C1548 C1551 1.403 . S
C1549 C1546 1.403 . S
C1549 C1550 1.524 . S
C1549 C1553 1.400 . S
C1550 H1535 0.960 . S
C1550 H1536 0.960 . S
C1550 H1537 0.960 . S
C1550 C1549 1.524 . S
C1551 C1548 1.403 . S
C1551 C1552 1.392 . S
C1551 C1555 1.495 . S
C1552 C1551 1.392 . S
C1552 C1553 1.385 . S
C1552 C1554 1.478 . S
C1553 H1547 0.930 . S
C1553 C1549 1.400 . S
C1553 C1552 1.385 . S
C1554 C1552 1.478 . S
C1554 C1556 1.381 . S
C1554 C1560 1.383 . S
C1555 C1551 1.495 . S
C1555 H1561 0.959 . S
C1555 H1562 0.961 . S
C1555 H1563 0.960 . S
C1556 C1554 1.381 . S
C1556 C1557 1.394 . S
C1556 H1564 0.930 . S
C1557 C1556 1.394 . S
C1557 C1558 1.383 . S
C1557 H1565 0.929 . S
C1558 C1557 1.383 . S
C1558 C1559 1.377 . S
C1559 H1543 0.930 . S
C1559 C1558 1.377 . S
C1559 C1560 1.379 . S
C1560 H1544 0.931 . S
C1560 C1554 1.383 . S
C1560 C1559 1.379 . S
H1561 C1555 0.959 . S
H1562 C1555 0.961 . S
H1563 C1555 0.960 . S
H1564 C1556 0.930 . S
H1565 C1557 0.929 . S
H1566 C1574 0.929 . S
H1567 C1576 0.930 . S
H1568 C1578 0.930 . S
H1569 C1581 0.929 . S
H1570 C1584 0.930 . S
H1571 C1586 0.960 . S
H1572 C1586 0.960 . S
H1573 C1586 0.960 . S
C1574 H1566 0.929 . S
C1574 C1575 1.377 . S
C1574 C1576 1.384 . S
C1575 C1574 1.377 . S
C1575 C1581 1.390 . S
C1576 H1567 0.930 . S
C1576 C1574 1.384 . S
C1576 C1577 1.372 . S
C1577 C1576 1.372 . S
C1577 C1578 1.400 . S
C1577 C1582 1.490 . S
C1578 H1568 0.930 . S
C1578 C1577 1.400 . S
C1578 C1581 1.386 . S
H1579 C1595 0.930 . S
H1580 C1596 0.931 . S
C1581 H1569 0.929 . S
C1581 C1575 1.390 . S
C1581 C1578 1.386 . S
C1582 C1577 1.490 . S
C1582 C1584 1.395 . S
C1582 C1585 1.403 . S
H1583 C1589 0.930 . S
C1584 H1570 0.930 . S
C1584 C1582 1.395 . S
C1584 C1587 1.403 . S
C1585 C1582 1.403 . S
C1585 C1586 1.524 . S
C1585 C1589 1.400 . S
C1586 H1571 0.960 . S
C1586 H1572 0.960 . S
C1586 H1573 0.960 . S
C1586 C1585 1.524 . S
C1587 C1584 1.403 . S
C1587 C1588 1.392 . S
C1587 C1591 1.495 . S
C1588 C1587 1.392 . S
C1588 C1589 1.385 . S
C1588 C1590 1.478 . S
C1589 H1583 0.930 . S
C1589 C1585 1.400 . S
C1589 C1588 1.385 . S
C1590 C1588 1.478 . S
C1590 C1592 1.381 . S
C1590 C1596 1.383 . S
C1591 C1587 1.495 . S
C1591 H1597 0.959 . S
C1591 H1598 0.961 . S
C1591 H1599 0.960 . S
C1592 C1590 1.381 . S
C1592 C1593 1.394 . S
C1592 H1600 0.930 . S
C1593 C1592 1.394 . S
C1593 C1594 1.383 . S
C1593 H1601 0.929 . S
C1594 C1593 1.383 . S
C1594 C1595 1.377 . S
C1595 H1579 0.930 . S
C1595 C1594 1.377 . S
C1595 C1596 1.379 . S
C1596 H1580 0.931 . S
C1596 C1590 1.383 . S
C1596 C1595 1.379 . S
H1597 C1591 0.959 . S
H1598 C1591 0.961 . S
H1599 C1591 0.960 . S
H1600 C1592 0.930 . S
H1601 C1593 0.929 . S
H1602 C1610 0.929 . S
H1603 C1612 0.930 . S
H1604 C1614 0.930 . S
H1605 C1617 0.929 . S
H1606 C1620 0.930 . S
H1607 C1622 0.960 . S
H1608 C1622 0.960 . S
H1609 C1622 0.960 . S
C1610 H1602 0.929 . S
C1610 C1611 1.377 . S
C1610 C1612 1.384 . S
C1611 C1610 1.377 . S
C1611 C1617 1.390 . S
C1612 H1603 0.930 . S
C1612 C1610 1.384 . S
C1612 C1613 1.372 . S
C1613 C1612 1.372 . S
C1613 C1614 1.400 . S
C1613 C1618 1.490 . S
C1614 H1604 0.930 . S
C1614 C1613 1.400 . S
C1614 C1617 1.386 . S
H1615 C1631 0.930 . S
H1616 C1632 0.931 . S
C1617 H1605 0.929 . S
C1617 C1611 1.390 . S
C1617 C1614 1.386 . S
C1618 C1613 1.490 . S
C1618 C1620 1.395 . S
C1618 C1621 1.403 . S
H1619 C1625 0.930 . S
C1620 H1606 0.930 . S
C1620 C1618 1.395 . S
C1620 C1623 1.403 . S
C1621 C1618 1.403 . S
C1621 C1622 1.524 . S
C1621 C1625 1.400 . S
C1622 H1607 0.960 . S
C1622 H1608 0.960 . S
C1622 H1609 0.960 . S
C1622 C1621 1.524 . S
C1623 C1620 1.403 . S
C1623 C1624 1.392 . S
C1623 C1627 1.495 . S
C1624 C1623 1.392 . S
C1624 C1625 1.385 . S
C1624 C1626 1.478 . S
C1625 H1619 0.930 . S
C1625 C1621 1.400 . S
C1625 C1624 1.385 . S
C1626 C1624 1.478 . S
C1626 C1628 1.381 . S
C1626 C1632 1.383 . S
C1627 C1623 1.495 . S
C1627 H1633 0.959 . S
C1627 H1634 0.961 . S
C1627 H1635 0.960 . S
C1628 C1626 1.381 . S
C1628 C1629 1.394 . S
C1628 H1636 0.930 . S
C1629 C1628 1.394 . S
C1629 C1630 1.383 . S
C1629 H1637 0.929 . S
C1630 C1629 1.383 . S
C1630 C1631 1.377 . S
C1631 H1615 0.930 . S
C1631 C1630 1.377 . S
C1631 C1632 1.379 . S
C1632 H1616 0.931 . S
C1632 C1626 1.383 . S
C1632 C1631 1.379 . S
H1633 C1627 0.959 . S
H1634 C1627 0.961 . S
H1635 C1627 0.960 . S
H1636 C1628 0.930 . S
H1637 C1629 0.929 . S
H1638 C1646 0.929 . S
H1639 C1648 0.930 . S
H1640 C1650 0.930 . S
H1641 C1653 0.929 . S
H1642 C1656 0.930 . S
H1643 C1658 0.960 . S
H1644 C1658 0.960 . S
H1645 C1658 0.960 . S
C1646 H1638 0.929 . S
C1646 C1647 1.377 . S
C1646 C1648 1.384 . S
C1647 C1646 1.377 . S
C1647 C1653 1.390 . S
C1648 H1639 0.930 . S
C1648 C1646 1.384 . S
C1648 C1649 1.372 . S
C1649 C1648 1.372 . S
C1649 C1650 1.400 . S
C1649 C1654 1.490 . S
C1650 H1640 0.930 . S
C1650 C1649 1.400 . S
C1650 C1653 1.386 . S
H1651 C1667 0.930 1_554 S
H1652 C1668 0.990 . S
C1653 H1641 0.929 . S
C1653 C1647 1.390 . S
C1653 C1650 1.386 . S
C1654 C1649 1.490 . S
C1654 C1656 1.395 . S
C1654 C1657 1.403 . S
H1655 C1661 0.930 . S
C1656 H1642 0.930 . S
C1656 C1654 1.395 . S
C1656 C1659 1.403 . S
C1657 C1654 1.403 . S
C1657 C1658 1.524 . S
C1657 C1661 1.400 . S
C1658 H1643 0.960 . S
C1658 H1644 0.960 . S
C1658 H1645 0.960 . S
C1658 C1657 1.524 . S
C1659 C1656 1.403 . S
C1659 C1660 1.392 . S
C1659 C1663 1.495 . S
C1660 C1659 1.392 . S
C1660 C1661 1.385 . S
C1660 C1662 1.478 . S
C1661 H1655 0.930 . S
C1661 C1657 1.400 . S
C1661 C1660 1.385 . S
C1662 C1660 1.478 . S
C1662 C1664 1.381 . S
C1662 C1668 1.383 . S
C1663 C1659 1.495 . S
C1663 H1669 0.959 . S
C1663 H1670 0.961 . S
C1663 H1671 0.960 . S
C1664 C1662 1.381 . S
C1664 C1665 1.394 . S
C1664 H1672 0.930 . S
C1665 C1664 1.394 . S
C1665 C1666 1.383 . S
C1665 H1673 0.929 . S
C1666 C1665 1.383 . S
C1666 C1667 1.377 . S
C1667 H1651 0.930 1_556 S
C1667 C1666 1.377 . S
C1667 C1668 1.379 . S
C1668 H1652 0.990 . S
C1668 C1662 1.383 . S
C1668 C1667 1.379 . S
H1669 C1663 0.959 . S
H1670 C1663 0.961 . S
H1671 C1663 0.960 . S
H1672 C1664 0.930 . S
H1673 C1665 0.929 . S
H1674 C1682 0.929 . S
H1675 C1684 0.930 . S
H1676 C1686 0.930 . S
H1677 C1689 0.929 . S
H1678 C1692 0.930 . S
H1679 C1694 0.960 . S
H1680 C1694 0.960 . S
H1681 C1694 0.960 . S
C1682 H1674 0.929 . S
C1682 C1683 1.377 . S
C1682 C1684 1.384 . S
C1683 C1682 1.377 . S
C1683 C1689 1.390 . S
C1684 H1675 0.930 . S
C1684 C1682 1.384 . S
C1684 C1685 1.372 . S
C1685 C1684 1.372 . S
C1685 C1686 1.400 . S
C1685 C1690 1.490 . S
C1686 H1676 0.930 . S
C1686 C1685 1.400 . S
C1686 C1689 1.386 . S
H1687 C1703 0.930 . S
H1688 C1704 0.931 . S
C1689 H1677 0.929 . S
C1689 C1683 1.390 . S
C1689 C1686 1.386 . S
C1690 C1685 1.490 . S
C1690 C1692 1.395 . S
C1690 C1693 1.403 . S
H1691 C1697 0.930 . S
C1692 H1678 0.930 . S
C1692 C1690 1.395 . S
C1692 C1695 1.403 . S
C1693 C1690 1.403 . S
C1693 C1694 1.524 . S
C1693 C1697 1.400 . S
C1694 H1679 0.960 . S
C1694 H1680 0.960 . S
C1694 H1681 0.960 . S
C1694 C1693 1.524 . S
C1695 C1692 1.403 . S
C1695 C1696 1.392 . S
C1695 C1699 1.495 . S
C1696 C1695 1.392 . S
C1696 C1697 1.385 . S
C1696 C1698 1.478 . S
C1697 H1691 0.930 . S
C1697 C1693 1.400 . S
C1697 C1696 1.385 . S
C1698 C1696 1.478 . S
C1698 C1700 1.381 . S
C1698 C1704 1.383 . S
C1699 C1695 1.495 . S
C1699 H1705 0.959 . S
C1699 H1706 0.961 . S
C1699 H1707 0.960 . S
C1700 C1698 1.381 . S
C1700 C1701 1.394 . S
C1700 H1708 0.930 . S
C1701 C1700 1.394 . S
C1701 C1702 1.383 . S
C1701 H1709 0.929 . S
C1702 C1701 1.383 . S
C1702 C1703 1.377 . S
C1703 H1687 0.930 . S
C1703 C1702 1.377 . S
C1703 C1704 1.379 . S
C1704 H1688 0.931 . S
C1704 C1698 1.383 . S
C1704 C1703 1.379 . S
H1705 C1699 0.959 . S
H1706 C1699 0.961 . S
H1707 C1699 0.960 . S
H1708 C1700 0.930 . S
H1709 C1701 0.929 . S
H1710 C1718 0.929 . S
H1711 C1720 0.930 . S
H1712 C1722 0.930 . S
H1713 C1725 0.929 . S
H1714 C1728 0.930 . S
H1715 C1730 0.960 . S
H1716 C1730 0.960 . S
H1717 C1730 0.960 . S
C1718 H1710 0.929 . S
C1718 C1719 1.377 . S
C1718 C1720 1.384 . S
C1719 C1718 1.377 . S
C1719 C1725 1.390 . S
C1720 H1711 0.930 . S
C1720 C1718 1.384 . S
C1720 C1721 1.372 . S
C1721 C1720 1.372 . S
C1721 C1722 1.400 . S
C1721 C1726 1.490 . S
C1722 H1712 0.930 . S
C1722 C1721 1.400 . S
C1722 C1725 1.386 . S
H1723 C1739 0.930 1_554 S
H1724 C1740 0.931 . S
C1725 H1713 0.929 . S
C1725 C1719 1.390 . S
C1725 C1722 1.386 . S
C1726 C1721 1.490 . S
C1726 C1728 1.395 . S
C1726 C1729 1.403 . S
H1727 C1733 0.930 . S
C1728 H1714 0.930 . S
C1728 C1726 1.395 . S
C1728 C1731 1.403 . S
C1729 C1726 1.403 . S
C1729 C1730 1.524 . S
C1729 C1733 1.400 . S
C1730 H1715 0.960 . S
C1730 H1716 0.960 . S
C1730 H1717 0.960 . S
C1730 C1729 1.524 . S
C1731 C1728 1.403 . S
C1731 C1732 1.392 . S
C1731 C1735 1.495 . S
C1732 C1731 1.392 . S
C1732 C1733 1.385 . S
C1732 C1734 1.478 . S
C1733 H1727 0.930 . S
C1733 C1729 1.400 . S
C1733 C1732 1.385 . S
C1734 C1732 1.478 . S
C1734 C1736 1.381 . S
C1734 C1740 1.383 . S
C1735 C1731 1.495 . S
C1735 H1741 0.959 . S
C1735 H1742 0.961 . S
C1735 H1743 0.960 . S
C1736 C1734 1.381 . S
C1736 C1737 1.394 . S
C1736 H1744 0.930 . S
C1737 C1736 1.394 . S
C1737 C1738 1.383 . S
C1737 H1745 0.929 . S
C1738 C1737 1.383 . S
C1738 C1739 1.377 . S
C1739 H1723 0.930 1_556 S
C1739 C1738 1.377 . S
C1739 C1740 1.379 . S
C1740 H1724 0.931 . S
C1740 C1734 1.383 . S
C1740 C1739 1.379 . S
H1741 C1735 0.959 . S
H1742 C1735 0.961 . S
H1743 C1735 0.960 . S
H1744 C1736 0.930 . S
H1745 C1737 0.929 . S
H1746 C1754 0.929 . S
H1747 C1756 0.930 . S
H1748 C1758 0.930 . S
H1749 C1761 0.929 . S
H1750 C1764 0.930 . S
H1751 C1766 0.960 . S
H1752 C1766 0.960 . S
H1753 C1766 0.960 . S
C1754 H1746 0.929 . S
C1754 C1755 1.377 . S
C1754 C1756 1.384 . S
C1755 C1754 1.377 . S
C1755 C1761 1.390 . S
C1756 H1747 0.930 . S
C1756 C1754 1.384 . S
C1756 C1757 1.372 . S
C1757 C1756 1.372 . S
C1757 C1758 1.400 . S
C1757 C1762 1.490 . S
C1758 H1748 0.930 . S
C1758 C1757 1.400 . S
C1758 C1761 1.386 . S
H1759 C1775 0.930 . S
H1760 C1776 0.931 . S
C1761 H1749 0.929 . S
C1761 C1755 1.390 . S
C1761 C1758 1.386 . S
C1762 C1757 1.490 . S
C1762 C1764 1.395 . S
C1762 C1765 1.403 . S
H1763 C1769 0.930 . S
C1764 H1750 0.930 . S
C1764 C1762 1.395 . S
C1764 C1767 1.403 . S
C1765 C1762 1.403 . S
C1765 C1766 1.524 . S
C1765 C1769 1.400 . S
C1766 H1751 0.960 . S
C1766 H1752 0.960 . S
C1766 H1753 0.960 . S
C1766 C1765 1.524 . S
C1767 C1764 1.403 . S
C1767 C1768 1.392 . S
C1767 C1771 1.495 . S
C1768 C1767 1.392 . S
C1768 C1769 1.385 . S
C1768 C1770 1.478 . S
C1769 H1763 0.930 . S
C1769 C1765 1.400 . S
C1769 C1768 1.385 . S
C1770 C1768 1.478 . S
C1770 C1772 1.381 . S
C1770 C1776 1.383 . S
C1771 C1767 1.495 . S
C1771 H1777 0.959 . S
C1771 H1778 0.961 . S
C1771 H1779 0.960 . S
C1772 C1770 1.381 . S
C1772 C1773 1.394 . S
C1772 H1780 0.930 . S
C1773 C1772 1.394 . S
C1773 C1774 1.383 . S
C1773 H1781 0.929 . S
C1774 C1773 1.383 . S
C1774 C1775 1.377 . S
C1775 H1759 0.930 . S
C1775 C1774 1.377 . S
C1775 C1776 1.379 . S
C1776 H1760 0.931 . S
C1776 C1770 1.383 . S
C1776 C1775 1.379 . S
H1777 C1771 0.959 . S
H1778 C1771 0.961 . S
H1779 C1771 0.960 . S
H1780 C1772 0.930 . S
H1781 C1773 0.929 . S
H1782 C1790 0.929 . S
H1783 C1792 0.930 . S
H1784 C1794 0.930 . S
H1785 C1797 0.929 . S
H1786 C1800 0.930 . S
H1787 C1802 0.960 . S
H1788 C1802 0.960 . S
H1789 C1802 0.960 . S
C1790 H1782 0.929 . S
C1790 C1791 1.377 . S
C1790 C1792 1.384 . S
C1791 C1790 1.377 . S
C1791 C1797 1.390 . S
C1792 H1783 0.930 . S
C1792 C1790 1.384 . S
C1792 C1793 1.372 . S
C1793 C1792 1.372 . S
C1793 C1794 1.400 . S
C1793 C1798 1.490 . S
C1794 H1784 0.930 . S
C1794 C1793 1.400 . S
C1794 C1797 1.386 . S
H1795 C1811 0.930 . S
H1796 C1812 0.931 . S
C1797 H1785 0.929 . S
C1797 C1791 1.390 . S
C1797 C1794 1.386 . S
C1798 C1793 1.490 . S
C1798 C1800 1.395 . S
C1798 C1801 1.403 . S
H1799 C1805 0.930 . S
C1800 H1786 0.930 . S
C1800 C1798 1.395 . S
C1800 C1803 1.403 . S
C1801 C1798 1.403 . S
C1801 C1802 1.524 . S
C1801 C1805 1.400 . S
C1802 H1787 0.960 . S
C1802 H1788 0.960 . S
C1802 H1789 0.960 . S
C1802 C1801 1.524 . S
C1803 C1800 1.403 . S
C1803 C1804 1.392 . S
C1803 C1807 1.495 . S
C1804 C1803 1.392 . S
C1804 C1805 1.385 . S
C1804 C1806 1.478 . S
C1805 H1799 0.930 . S
C1805 C1801 1.400 . S
C1805 C1804 1.385 . S
C1806 C1804 1.478 . S
C1806 C1808 1.381 . S
C1806 C1812 1.383 . S
C1807 C1803 1.495 . S
C1807 H1813 0.959 . S
C1807 H1814 0.961 . S
C1807 H1815 0.960 . S
C1808 C1806 1.381 . S
C1808 C1809 1.394 . S
C1808 H1816 0.930 . S
C1809 C1808 1.394 . S
C1809 C1810 1.383 . S
C1809 H1817 0.929 . S
C1810 C1809 1.383 . S
C1810 C1811 1.377 . S
C1811 H1795 0.930 . S
C1811 C1810 1.377 . S
C1811 C1812 1.379 . S
C1812 H1796 0.931 . S
C1812 C1806 1.383 . S
C1812 C1811 1.379 . S
H1813 C1807 0.959 . S
H1814 C1807 0.961 . S
H1815 C1807 0.960 . S
H1816 C1808 0.930 . S
H1817 C1809 0.929 . S
H1818 C1826 0.929 . S
H1819 C1828 0.930 . S
H1820 C1830 0.930 . S
H1821 C1833 0.929 . S
H1822 C1836 0.930 . S
H1823 C1838 0.960 . S
H1824 C1838 0.960 . S
H1825 C1838 0.960 . S
C1826 H1818 0.929 . S
C1826 C1827 1.377 . S
C1826 C1828 1.384 . S
C1827 C1826 1.377 . S
C1827 C1833 1.390 . S
C1828 H1819 0.930 . S
C1828 C1826 1.384 . S
C1828 C1829 1.372 . S
C1829 C1828 1.372 . S
C1829 C1830 1.400 . S
C1829 C1834 1.490 . S
C1830 H1820 0.930 . S
C1830 C1829 1.400 . S
C1830 C1833 1.386 . S
H1831 C1847 0.930 . S
H1832 C1848 0.931 . S
C1833 H1821 0.929 . S
C1833 C1827 1.390 . S
C1833 C1830 1.386 . S
C1834 C1829 1.490 . S
C1834 C1836 1.395 . S
C1834 C1837 1.403 . S
H1835 C1841 0.930 . S
C1836 H1822 0.930 . S
C1836 C1834 1.395 . S
C1836 C1839 1.403 . S
C1837 C1834 1.403 . S
C1837 C1838 1.524 . S
C1837 C1841 1.400 . S
C1838 H1823 0.960 . S
C1838 H1824 0.960 . S
C1838 H1825 0.960 . S
C1838 C1837 1.524 . S
C1839 C1836 1.403 . S
C1839 C1840 1.392 . S
C1839 C1843 1.495 . S
C1840 C1839 1.392 . S
C1840 C1841 1.385 . S
C1840 C1842 1.478 . S
C1841 H1835 0.930 . S
C1841 C1837 1.400 . S
C1841 C1840 1.385 . S
C1842 C1840 1.478 . S
C1842 C1844 1.381 . S
C1842 C1848 1.383 . S
C1843 C1839 1.495 . S
C1843 H1849 0.959 . S
C1843 H1850 0.961 . S
C1843 H1851 0.960 . S
C1844 C1842 1.381 . S
C1844 C1845 1.394 . S
C1844 H1852 0.930 . S
C1845 C1844 1.394 . S
C1845 C1846 1.383 . S
C1845 H1853 0.929 . S
C1846 C1845 1.383 . S
C1846 C1847 1.377 . S
C1847 H1831 0.930 . S
C1847 C1846 1.377 . S
C1847 C1848 1.379 . S
C1848 H1832 0.931 . S
C1848 C1842 1.383 . S
C1848 C1847 1.379 . S
H1849 C1843 0.959 . S
H1850 C1843 0.961 . S
H1851 C1843 0.960 . S
H1852 C1844 0.930 . S
H1853 C1845 0.929 . S
H1854 C1862 0.929 . S
H1855 C1864 0.930 . S
H1856 C1866 0.930 . S
H1857 C1869 0.929 . S
H1858 C1872 0.930 . S
H1859 C1874 0.960 . S
H1860 C1874 0.960 . S
H1861 C1874 0.960 . S
C1862 H1854 0.929 . S
C1862 C1863 1.377 . S
C1862 C1864 1.384 . S
C1863 C1862 1.377 . S
C1863 C1869 1.390 . S
C1864 H1855 0.930 . S
C1864 C1862 1.384 . S
C1864 C1865 1.372 . S
C1865 C1864 1.372 . S
C1865 C1866 1.400 . S
C1865 C1870 1.490 . S
C1866 H1856 0.930 . S
C1866 C1865 1.400 . S
C1866 C1869 1.386 . S
H1867 C1883 0.930 . S
H1868 C1884 0.931 . S
C1869 H1857 0.929 . S
C1869 C1863 1.390 . S
C1869 C1866 1.386 . S
C1870 C1865 1.490 . S
C1870 C1872 1.395 . S
C1870 C1873 1.403 . S
H1871 C1877 0.930 . S
C1872 H1858 0.930 . S
C1872 C1870 1.395 . S
C1872 C1875 1.403 . S
C1873 C1870 1.403 . S
C1873 C1874 1.524 . S
C1873 C1877 1.400 . S
C1874 H1859 0.960 . S
C1874 H1860 0.960 . S
C1874 H1861 0.960 . S
C1874 C1873 1.524 . S
C1875 C1872 1.403 . S
C1875 C1876 1.392 . S
C1875 C1879 1.495 . S
C1876 C1875 1.392 . S
C1876 C1877 1.385 . S
C1876 C1878 1.478 . S
C1877 H1871 0.930 . S
C1877 C1873 1.400 . S
C1877 C1876 1.385 . S
C1878 C1876 1.478 . S
C1878 C1880 1.381 . S
C1878 C1884 1.383 . S
C1879 C1875 1.495 . S
C1879 H1885 0.959 . S
C1879 H1886 0.961 . S
C1879 H1887 0.960 . S
C1880 C1878 1.381 . S
C1880 C1881 1.394 . S
C1880 H1888 0.930 . S
C1881 C1880 1.394 . S
C1881 C1882 1.383 . S
C1881 H1889 0.929 . S
C1882 C1881 1.383 . S
C1882 C1883 1.377 . S
C1883 H1867 0.930 . S
C1883 C1882 1.377 . S
C1883 C1884 1.379 . S
C1884 H1868 0.931 . S
C1884 C1878 1.383 . S
C1884 C1883 1.379 . S
H1885 C1879 0.959 . S
H1886 C1879 0.961 . S
H1887 C1879 0.960 . S
H1888 C1880 0.930 . S
H1889 C1881 0.929 . S
H1890 C1898 0.929 . S
H1891 C1900 0.930 . S
H1892 C1902 0.930 . S
H1893 C1905 0.929 . S
H1894 C1908 0.930 . S
H1895 C1910 0.960 . S
H1896 C1910 0.960 . S
H1897 C1910 0.960 . S
C1898 H1890 0.929 . S
C1898 C1899 1.377 . S
C1898 C1900 1.384 1_655 S
C1899 C1898 1.377 . S
C1899 C1905 1.390 . S
C1900 H1891 0.930 . S
C1900 C1898 1.384 1_455 S
C1900 C1901 1.372 . S
C1901 C1900 1.372 . S
C1901 C1902 1.400 1_455 S
C1901 C1906 1.490 . S
C1902 H1892 0.930 . S
C1902 C1901 1.400 1_655 S
C1902 C1905 1.386 . S
H1903 C1919 0.930 . S
H1904 C1920 0.931 . S
C1905 H1893 0.929 . S
C1905 C1899 1.390 . S
C1905 C1902 1.386 . S
C1906 C1901 1.490 . S
C1906 C1908 1.395 . S
C1906 C1909 1.403 . S
H1907 C1913 0.930 . S
C1908 H1894 0.930 . S
C1908 C1906 1.395 . S
C1908 C1911 1.403 . S
C1909 C1906 1.403 . S
C1909 C1910 1.524 . S
C1909 C1913 1.400 . S
C1910 H1895 0.960 . S
C1910 H1896 0.960 . S
C1910 H1897 0.960 . S
C1910 C1909 1.524 . S
C1911 C1908 1.403 . S
C1911 C1912 1.392 . S
C1911 C1915 1.495 . S
C1912 C1911 1.392 . S
C1912 C1913 1.385 . S
C1912 C1914 1.478 . S
C1913 H1907 0.930 . S
C1913 C1909 1.400 . S
C1913 C1912 1.385 . S
C1914 C1912 1.478 . S
C1914 C1916 1.381 . S
C1914 C1920 1.383 . S
C1915 C1911 1.495 . S
C1915 H1921 0.959 . S
C1915 H1922 0.961 . S
C1915 H1923 0.960 . S
C1916 C1914 1.381 . S
C1916 C1917 1.394 . S
C1916 H1924 0.930 . S
C1917 C1916 1.394 . S
C1917 C1918 1.383 . S
C1917 H1925 0.929 . S
C1918 C1917 1.383 . S
C1918 C1919 1.377 . S
C1919 H1903 0.930 . S
C1919 C1918 1.377 . S
C1919 C1920 1.379 . S
C1920 H1904 0.931 . S
C1920 C1914 1.383 . S
C1920 C1919 1.379 . S
H1921 C1915 0.959 . S
H1922 C1915 0.961 . S
H1923 C1915 0.960 . S
H1924 C1916 0.930 . S
H1925 C1917 0.929 . S
H1926 C1934 0.929 . S
H1927 C1936 0.930 . S
H1928 C1938 0.930 . S
H1929 C1941 0.929 . S
H1930 C1944 0.930 . S
H1931 C1946 0.960 . S
H1932 C1946 0.960 . S
H1933 C1946 0.960 . S
C1934 H1926 0.929 . S
C1934 C1935 1.377 . S
C1934 C1936 1.384 . S
C1935 C1934 1.377 . S
C1935 C1941 1.390 . S
C1936 H1927 0.930 . S
C1936 C1934 1.384 . S
C1936 C1937 1.372 . S
C1937 C1936 1.372 . S
C1937 C1938 1.400 . S
C1937 C1942 1.490 . S
C1938 H1928 0.930 . S
C1938 C1937 1.400 . S
C1938 C1941 1.386 . S
H1939 C1955 0.930 . S
H1940 C1956 0.931 . S
C1941 H1929 0.929 . S
C1941 C1935 1.390 . S
C1941 C1938 1.386 . S
C1942 C1937 1.490 . S
C1942 C1944 1.395 . S
C1942 C1945 1.403 . S
H1943 C1949 0.930 . S
C1944 H1930 0.930 . S
C1944 C1942 1.395 . S
C1944 C1947 1.403 . S
C1945 C1942 1.403 . S
C1945 C1946 1.524 . S
C1945 C1949 1.400 . S
C1946 H1931 0.960 . S
C1946 H1932 0.960 . S
C1946 H1933 0.960 . S
C1946 C1945 1.524 . S
C1947 C1944 1.403 . S
C1947 C1948 1.392 . S
C1947 C1951 1.495 . S
C1948 C1947 1.392 . S
C1948 C1949 1.385 . S
C1948 C1950 1.478 . S
C1949 H1943 0.930 . S
C1949 C1945 1.400 . S
C1949 C1948 1.385 . S
C1950 C1948 1.478 . S
C1950 C1952 1.381 . S
C1950 C1956 1.383 . S
C1951 C1947 1.495 . S
C1951 H1957 0.959 . S
C1951 H1958 0.961 . S
C1951 H1959 0.960 . S
C1952 C1950 1.381 . S
C1952 C1953 1.394 . S
C1952 H1960 0.930 . S
C1953 C1952 1.394 . S
C1953 C1954 1.383 . S
C1953 H1961 0.929 . S
C1954 C1953 1.383 . S
C1954 C1955 1.377 . S
C1955 H1939 0.930 . S
C1955 C1954 1.377 . S
C1955 C1956 1.379 . S
C1956 H1940 0.931 . S
C1956 C1950 1.383 . S
C1956 C1955 1.379 . S
H1957 C1951 0.959 . S
H1958 C1951 0.961 . S
H1959 C1951 0.960 . S
H1960 C1952 0.930 . S
H1961 C1953 0.929 . S
H1962 C1970 0.929 . S
H1963 C1972 0.930 . S
H1964 C1974 0.930 . S
H1965 C1977 0.929 . S
H1966 C1980 0.930 . S
H1967 C1982 0.960 . S
H1968 C1982 0.950 1_545 S
H1969 C1982 0.960 . S
C1970 H1962 0.929 . S
C1970 C1971 1.377 . S
C1970 C1972 1.384 . S
C1971 C1970 1.377 . S
C1971 C1977 1.390 . S
C1972 H1963 0.930 . S
C1972 C1970 1.384 . S
C1972 C1973 1.372 . S
C1973 C1972 1.372 . S
C1973 C1974 1.400 . S
C1973 C1978 1.490 1_545 S
C1974 H1964 0.930 . S
C1974 C1973 1.400 . S
C1974 C1977 1.386 . S
H1975 C1991 0.930 . S
H1976 C1992 0.931 . S
C1977 H1965 0.929 . S
C1977 C1971 1.390 . S
C1977 C1974 1.386 . S
C1978 C1973 1.490 1_565 S
C1978 C1980 1.395 . S
C1978 C1981 1.403 . S
H1979 C1985 0.930 . S
C1980 H1966 0.930 . S
C1980 C1978 1.395 . S
C1980 C1983 1.403 . S
C1981 C1978 1.403 . S
C1981 C1982 1.524 . S
C1981 C1985 1.400 . S
C1982 H1967 0.960 . S
C1982 H1968 0.950 1_565 S
C1982 H1969 0.960 . S
C1982 C1981 1.524 . S
C1983 C1980 1.403 . S
C1983 C1984 1.392 . S
C1983 C1987 1.495 . S
C1984 C1983 1.392 . S
C1984 C1985 1.385 . S
C1984 C1986 1.478 . S
C1985 H1979 0.930 . S
C1985 C1981 1.400 . S
C1985 C1984 1.385 . S
C1986 C1984 1.478 . S
C1986 C1988 1.381 . S
C1986 C1992 1.383 . S
C1987 C1983 1.495 . S
C1987 H1993 0.959 . S
C1987 H1994 0.961 . S
C1987 H1995 0.960 . S
C1988 C1986 1.381 . S
C1988 C1989 1.394 . S
C1988 H1996 0.930 . S
C1989 C1988 1.394 . S
C1989 C1990 1.383 . S
C1989 H1997 0.929 . S
C1990 C1989 1.383 . S
C1990 C1991 1.377 . S
C1991 H1975 0.930 . S
C1991 C1990 1.377 . S
C1991 C1992 1.379 . S
C1992 H1976 0.931 . S
C1992 C1986 1.383 . S
C1992 C1991 1.379 . S
H1993 C1987 0.959 . S
H1994 C1987 0.961 . S
H1995 C1987 0.960 . S
H1996 C1988 0.930 . S
H1997 C1989 0.929 . S
H1998 C2006 0.929 . S
H1999 C2008 0.930 . S
H2000 C2010 0.930 . S
H2001 C2013 0.929 . S
H2002 C2016 0.930 . S
H2003 C2018 0.960 . S
H2004 C2018 0.960 . S
H2005 C2018 0.960 . S
C2006 H1998 0.929 . S
C2006 C2007 1.377 . S
C2006 C2008 1.384 . S
C2007 C2006 1.377 . S
C2007 C2013 1.390 . S
C2008 H1999 0.930 . S
C2008 C2006 1.384 . S
C2008 C2009 1.372 . S
C2009 C2008 1.372 . S
C2009 C2010 1.400 . S
C2009 C2014 1.490 . S
C2010 H2000 0.930 . S
C2010 C2009 1.400 . S
C2010 C2013 1.386 . S
H2011 C2027 0.930 . S
H2012 C2028 0.931 . S
C2013 H2001 0.929 . S
C2013 C2007 1.390 . S
C2013 C2010 1.386 . S
C2014 C2009 1.490 . S
C2014 C2016 1.395 . S
C2014 C2017 1.403 . S
H2015 C2021 0.930 . S
C2016 H2002 0.930 . S
C2016 C2014 1.395 . S
C2016 C2019 1.403 . S
C2017 C2014 1.403 . S
C2017 C2018 1.524 . S
C2017 C2021 1.400 . S
C2018 H2003 0.960 . S
C2018 H2004 0.960 . S
C2018 H2005 0.960 . S
C2018 C2017 1.524 . S
C2019 C2016 1.403 . S
C2019 C2020 1.392 . S
C2019 C2023 1.495 . S
C2020 C2019 1.392 . S
C2020 C2021 1.385 . S
C2020 C2022 1.478 . S
C2021 H2015 0.930 . S
C2021 C2017 1.400 . S
C2021 C2020 1.385 . S
C2022 C2020 1.478 . S
C2022 C2024 1.381 . S
C2022 C2028 1.383 . S
C2023 C2019 1.495 . S
C2023 H2029 0.959 . S
C2023 H2030 0.961 . S
C2023 H2031 0.960 . S
C2024 C2022 1.381 . S
C2024 C2025 1.394 . S
C2024 H2032 0.930 . S
C2025 C2024 1.394 . S
C2025 C2026 1.383 . S
C2025 H2033 0.929 . S
C2026 C2025 1.383 . S
C2026 C2027 1.377 . S
C2027 H2011 0.930 . S
C2027 C2026 1.377 . S
C2027 C2028 1.379 . S
C2028 H2012 0.931 . S
C2028 C2022 1.383 . S
C2028 C2027 1.379 . S
H2029 C2023 0.959 . S
H2030 C2023 0.961 . S
H2031 C2023 0.960 . S
H2032 C2024 0.930 . S
H2033 C2025 0.929 . S
H2034 C2042 0.929 . S
H2035 C2044 0.930 . S
H2036 C2046 0.930 . S
H2037 C2049 0.929 . S
H2038 C2052 0.930 . S
H2039 C2054 0.960 . S
H2040 C2054 0.960 . S
H2041 C2054 0.960 . S
C2042 H2034 0.929 . S
C2042 C2043 1.377 . S
C2042 C2044 1.384 . S
C2043 C2042 1.377 . S
C2043 C2049 1.390 . S
C2044 H2035 0.930 . S
C2044 C2042 1.384 . S
C2044 C2045 1.372 . S
C2045 C2044 1.372 . S
C2045 C2046 1.400 . S
C2045 C2050 1.490 . S
C2046 H2036 0.930 . S
C2046 C2045 1.400 . S
C2046 C2049 1.386 . S
H2047 C2063 0.930 . S
H2048 C2064 0.931 . S
C2049 H2037 0.929 . S
C2049 C2043 1.390 . S
C2049 C2046 1.386 . S
C2050 C2045 1.490 . S
C2050 C2052 1.395 . S
C2050 C2053 1.403 . S
H2051 C2057 0.930 . S
C2052 H2038 0.930 . S
C2052 C2050 1.395 . S
C2052 C2055 1.403 . S
C2053 C2050 1.403 . S
C2053 C2054 1.524 . S
C2053 C2057 1.400 . S
C2054 H2039 0.960 . S
C2054 H2040 0.960 . S
C2054 H2041 0.960 . S
C2054 C2053 1.524 . S
C2055 C2052 1.403 . S
C2055 C2056 1.392 . S
C2055 C2059 1.495 . S
C2056 C2055 1.392 . S
C2056 C2057 1.385 . S
C2056 C2058 1.478 . S
C2057 H2051 0.930 . S
C2057 C2053 1.400 . S
C2057 C2056 1.385 . S
C2058 C2056 1.478 . S
C2058 C2060 1.381 . S
C2058 C2064 1.383 . S
C2059 C2055 1.495 . S
C2059 H2065 0.959 . S
C2059 H2066 0.961 . S
C2059 H2067 0.960 . S
C2060 C2058 1.381 . S
C2060 C2061 1.394 . S
C2060 H2068 0.930 . S
C2061 C2060 1.394 . S
C2061 C2062 1.383 . S
C2061 H2069 0.929 . S
C2062 C2061 1.383 . S
C2062 C2063 1.377 . S
C2063 H2047 0.930 . S
C2063 C2062 1.377 . S
C2063 C2064 1.379 . S
C2064 H2048 0.931 . S
C2064 C2058 1.383 . S
C2064 C2063 1.379 . S
H2065 C2059 0.959 . S
H2066 C2059 0.961 . S
H2067 C2059 0.960 . S
H2068 C2060 0.930 . S
H2069 C2061 0.929 . S
H2070 C2078 0.929 . S
H2071 C2080 0.930 . S
H2072 C2082 0.930 . S
H2073 C2085 0.929 . S
H2074 C2088 0.930 . S
H2075 C2090 0.960 . S
H2076 C2090 0.960 . S
H2077 C2090 0.960 . S
C2078 H2070 0.929 . S
C2078 C2079 1.377 . S
C2078 C2080 1.384 . S
C2079 C2078 1.377 . S
C2079 C2085 1.390 . S
C2080 H2071 0.930 . S
C2080 C2078 1.384 . S
C2080 C2081 1.372 . S
C2081 C2080 1.372 . S
C2081 C2082 1.400 . S
C2081 C2086 1.490 . S
C2082 H2072 0.930 . S
C2082 C2081 1.400 . S
C2082 C2085 1.386 . S
H2083 C2099 0.930 . S
H2084 C2100 0.931 . S
C2085 H2073 0.929 . S
C2085 C2079 1.390 . S
C2085 C2082 1.386 . S
C2086 C2081 1.490 . S
C2086 C2088 1.395 . S
C2086 C2089 1.403 . S
H2087 C2093 0.930 . S
C2088 H2074 0.930 . S
C2088 C2086 1.395 . S
C2088 C2091 1.403 . S
C2089 C2086 1.403 . S
C2089 C2090 1.524 . S
C2089 C2093 1.400 . S
C2090 H2075 0.960 . S
C2090 H2076 0.960 . S
C2090 H2077 0.960 . S
C2090 C2089 1.524 . S
C2091 C2088 1.403 . S
C2091 C2092 1.392 . S
C2091 C2095 1.495 . S
C2092 C2091 1.392 . S
C2092 C2093 1.385 . S
C2092 C2094 1.478 . S
C2093 H2087 0.930 . S
C2093 C2089 1.400 . S
C2093 C2092 1.385 . S
C2094 C2092 1.478 . S
C2094 C2096 1.381 . S
C2094 C2100 1.383 . S
C2095 C2091 1.495 . S
C2095 H2101 0.959 . S
C2095 H2102 0.961 . S
C2095 H2103 0.960 . S
C2096 C2094 1.381 . S
C2096 C2097 1.394 . S
C2096 H2104 0.930 . S
C2097 C2096 1.394 . S
C2097 C2098 1.383 . S
C2097 H2105 0.929 . S
C2098 C2097 1.383 . S
C2098 C2099 1.377 . S
C2099 H2083 0.930 . S
C2099 C2098 1.377 . S
C2099 C2100 1.379 . S
C2100 H2084 0.931 . S
C2100 C2094 1.383 . S
C2100 C2099 1.379 . S
H2101 C2095 0.959 . S
H2102 C2095 0.961 . S
H2103 C2095 0.960 . S
H2104 C2096 0.930 . S
H2105 C2097 0.929 . S
H2106 C2114 0.929 . S
H2107 C2116 0.930 . S
H2108 C2118 0.930 . S
H2109 C2121 0.929 . S
H2110 C2124 0.930 . S
H2111 C2126 0.960 . S
H2112 C2126 0.960 . S
H2113 C2126 0.960 . S
C2114 H2106 0.929 . S
C2114 C2115 1.377 . S
C2114 C2116 1.384 . S
C2115 C2114 1.377 . S
C2115 C2121 1.390 . S
C2116 H2107 0.930 . S
C2116 C2114 1.384 . S
C2116 C2117 1.372 . S
C2117 C2116 1.372 . S
C2117 C2118 1.400 . S
C2117 C2122 1.490 . S
C2118 H2108 0.930 . S
C2118 C2117 1.400 . S
C2118 C2121 1.386 . S
H2119 C2135 0.930 . S
H2120 C2136 0.931 . S
C2121 H2109 0.929 . S
C2121 C2115 1.390 . S
C2121 C2118 1.386 . S
C2122 C2117 1.490 . S
C2122 C2124 1.395 . S
C2122 C2125 1.403 . S
H2123 C2129 0.930 . S
C2124 H2110 0.930 . S
C2124 C2122 1.395 . S
C2124 C2127 1.403 . S
C2125 C2122 1.403 . S
C2125 C2126 1.524 . S
C2125 C2129 1.400 . S
C2126 H2111 0.960 . S
C2126 H2112 0.960 . S
C2126 H2113 0.960 . S
C2126 C2125 1.524 . S
C2127 C2124 1.403 . S
C2127 C2128 1.392 . S
C2127 C2131 1.495 . S
C2128 C2127 1.392 . S
C2128 C2129 1.385 . S
C2128 C2130 1.478 . S
C2129 H2123 0.930 . S
C2129 C2125 1.400 . S
C2129 C2128 1.385 . S
C2130 C2128 1.478 . S
C2130 C2132 1.381 . S
C2130 C2136 1.383 . S
C2131 C2127 1.495 . S
C2131 H2137 0.959 . S
C2131 H2138 0.961 . S
C2131 H2139 0.960 . S
C2132 C2130 1.381 . S
C2132 C2133 1.394 . S
C2132 H2140 0.930 . S
C2133 C2132 1.394 . S
C2133 C2134 1.383 . S
C2133 H2141 0.929 . S
C2134 C2133 1.383 . S
C2134 C2135 1.377 . S
C2135 H2119 0.930 . S
C2135 C2134 1.377 . S
C2135 C2136 1.379 . S
C2136 H2120 0.931 . S
C2136 C2130 1.383 . S
C2136 C2135 1.379 . S
H2137 C2131 0.959 . S
H2138 C2131 0.961 . S
H2139 C2131 0.960 . S
H2140 C2132 0.930 . S
H2141 C2133 0.929 . S
H2142 C2150 0.929 . S
H2143 C2152 0.930 . S
H2144 C2154 0.930 . S
H2145 C2157 0.929 . S
H2146 C2160 0.930 . S
H2147 C2162 0.960 . S
H2148 C2162 0.960 . S
H2149 C2162 0.960 . S
C2150 H2142 0.929 . S
C2150 C2151 1.377 . S
C2150 C2152 1.384 . S
C2151 C2150 1.377 . S
C2151 C2157 1.390 . S
C2152 H2143 0.930 . S
C2152 C2150 1.384 . S
C2152 C2153 1.372 . S
C2153 C2152 1.372 . S
C2153 C2154 1.400 . S
C2153 C2158 1.490 . S
C2154 H2144 0.930 . S
C2154 C2153 1.400 . S
C2154 C2157 1.386 . S
H2155 C2171 0.930 . S
H2156 C2172 0.931 . S
C2157 H2145 0.929 . S
C2157 C2151 1.390 . S
C2157 C2154 1.386 . S
C2158 C2153 1.490 . S
C2158 C2160 1.395 . S
C2158 C2161 1.403 . S
H2159 C2165 0.930 . S
C2160 H2146 0.930 . S
C2160 C2158 1.395 . S
C2160 C2163 1.403 . S
C2161 C2158 1.403 . S
C2161 C2162 1.524 . S
C2161 C2165 1.400 . S
C2162 H2147 0.960 . S
C2162 H2148 0.960 . S
C2162 H2149 0.960 . S
C2162 C2161 1.524 . S
C2163 C2160 1.403 . S
C2163 C2164 1.392 . S
C2163 C2167 1.495 . S
C2164 C2163 1.392 . S
C2164 C2165 1.385 . S
C2164 C2166 1.478 . S
C2165 H2159 0.930 . S
C2165 C2161 1.400 . S
C2165 C2164 1.385 . S
C2166 C2164 1.478 . S
C2166 C2168 1.381 . S
C2166 C2172 1.383 . S
C2167 C2163 1.495 . S
C2167 H2173 0.959 . S
C2167 H2174 0.961 . S
C2167 H2175 0.960 . S
C2168 C2166 1.381 . S
C2168 C2169 1.394 . S
C2168 H2176 0.930 . S
C2169 C2168 1.394 . S
C2169 C2170 1.383 . S
C2169 H2177 0.929 . S
C2170 C2169 1.383 . S
C2170 C2171 1.377 . S
C2171 H2155 0.930 . S
C2171 C2170 1.377 . S
C2171 C2172 1.379 . S
C2172 H2156 0.931 . S
C2172 C2166 1.383 . S
C2172 C2171 1.379 . S
H2173 C2167 0.959 . S
H2174 C2167 0.961 . S
H2175 C2167 0.960 . S
H2176 C2168 0.930 . S
H2177 C2169 0.929 . S
H2178 C2186 0.929 . S
H2179 C2188 0.930 . S
H2180 C2190 0.930 . S
H2181 C2193 0.929 . S
H2182 C2196 0.930 . S
H2183 C2198 0.960 . S
H2184 C2198 0.960 . S
H2185 C2198 0.960 . S
C2186 H2178 0.929 . S
C2186 C2187 1.377 . S
C2186 C2188 1.384 . S
C2187 C2186 1.377 . S
C2187 C2193 1.390 . S
C2188 H2179 0.930 . S
C2188 C2186 1.384 . S
C2188 C2189 1.372 . S
C2189 C2188 1.372 . S
C2189 C2190 1.400 . S
C2189 C2194 1.490 . S
C2190 H2180 0.930 . S
C2190 C2189 1.400 . S
C2190 C2193 1.386 . S
H2191 C2207 0.930 . S
H2192 C2208 0.931 . S
C2193 H2181 0.929 . S
C2193 C2187 1.390 . S
C2193 C2190 1.386 . S
C2194 C2189 1.490 . S
C2194 C2196 1.395 . S
C2194 C2197 1.403 . S
H2195 C2201 0.930 . S
C2196 H2182 0.930 . S
C2196 C2194 1.395 . S
C2196 C2199 1.403 . S
C2197 C2194 1.403 . S
C2197 C2198 1.524 . S
C2197 C2201 1.400 . S
C2198 H2183 0.960 . S
C2198 H2184 0.960 . S
C2198 H2185 0.960 . S
C2198 C2197 1.524 . S
C2199 C2196 1.403 . S
C2199 C2200 1.392 . S
C2199 C2203 1.495 . S
C2200 C2199 1.392 . S
C2200 C2201 1.385 . S
C2200 C2202 1.478 . S
C2201 H2195 0.930 . S
C2201 C2197 1.400 . S
C2201 C2200 1.385 . S
C2202 C2200 1.478 . S
C2202 C2204 1.381 . S
C2202 C2208 1.383 . S
C2203 C2199 1.495 . S
C2203 H2209 0.959 . S
C2203 H2210 0.961 . S
C2203 H2211 0.960 . S
C2204 C2202 1.381 . S
C2204 C2205 1.394 . S
C2204 H2212 0.930 . S
C2205 C2204 1.394 . S
C2205 C2206 1.383 . S
C2205 H2213 0.929 . S
C2206 C2205 1.383 . S
C2206 C2207 1.377 . S
C2207 H2191 0.930 . S
C2207 C2206 1.377 . S
C2207 C2208 1.379 . S
C2208 H2192 0.931 . S
C2208 C2202 1.383 . S
C2208 C2207 1.379 . S
H2209 C2203 0.959 . S
H2210 C2203 0.961 . S
H2211 C2203 0.960 . S
H2212 C2204 0.930 . S
H2213 C2205 0.929 . S
H2214 C2222 0.929 . S
H2215 C2224 0.930 . S
H2216 C2226 0.930 1_565 S
H2217 C2229 0.929 . S
H2218 C2232 0.930 . S
H2219 C2234 0.960 . S
H2220 C2234 0.960 . S
H2221 C2234 0.960 . S
C2222 H2214 0.929 . S
C2222 C2223 1.377 . S
C2222 C2224 1.384 . S
C2223 C2222 1.377 . S
C2223 C2229 1.390 . S
C2224 H2215 0.930 . S
C2224 C2222 1.384 . S
C2224 C2225 1.329 1_545 S
C2225 C2224 1.329 1_565 S
C2225 C2226 1.406 1_565 S
C2225 C2230 1.528 . S
C2226 H2216 0.930 1_545 S
C2226 C2225 1.406 1_545 S
C2226 C2229 1.386 . S
H2227 C2243 0.930 . S
H2228 C2244 0.931 . S
C2229 H2217 0.929 . S
C2229 C2223 1.390 . S
C2229 C2226 1.386 . S
C2230 C2225 1.528 . S
C2230 C2232 1.395 . S
C2230 C2233 1.403 . S
H2231 C2237 0.930 . S
C2232 H2218 0.930 . S
C2232 C2230 1.395 . S
C2232 C2235 1.403 . S
C2233 C2230 1.403 . S
C2233 C2234 1.524 . S
C2233 C2237 1.400 . S
C2234 H2219 0.960 . S
C2234 H2220 0.960 . S
C2234 H2221 0.960 . S
C2234 C2233 1.524 . S
C2235 C2232 1.403 . S
C2235 C2236 1.392 . S
C2235 C2239 1.495 . S
C2236 C2235 1.392 . S
C2236 C2237 1.385 . S
C2236 C2238 1.478 . S
C2237 H2231 0.930 . S
C2237 C2233 1.400 . S
C2237 C2236 1.385 . S
C2238 C2236 1.478 . S
C2238 C2240 1.381 . S
C2238 C2244 1.383 . S
C2239 C2235 1.495 . S
C2239 H2245 0.959 . S
C2239 H2246 0.961 . S
C2239 H2247 0.960 . S
C2240 C2238 1.381 . S
C2240 C2241 1.394 . S
C2240 H2248 0.930 . S
C2241 C2240 1.394 . S
C2241 C2242 1.383 . S
C2241 H2249 0.929 . S
C2242 C2241 1.383 . S
C2242 C2243 1.377 . S
C2243 H2227 0.930 . S
C2243 C2242 1.377 . S
C2243 C2244 1.379 . S
C2244 H2228 0.931 . S
C2244 C2238 1.383 . S
C2244 C2243 1.379 . S
H2245 C2239 0.959 . S
H2246 C2239 0.961 . S
H2247 C2239 0.960 . S
H2248 C2240 0.930 . S
H2249 C2241 0.929 . S
H2250 C2258 0.929 . S
H2251 C2260 0.931 . S
H2252 C2262 0.875 1_455 S
H2253 C2265 0.929 . S
H2254 C2268 0.930 . S
H2255 C2270 0.960 . S
H2256 C2270 0.960 . S
H2257 C2270 0.960 . S
C2258 H2250 0.929 . S
C2258 C2259 1.377 . S
C2258 C2260 1.372 1_655 S
C2259 C2258 1.377 . S
C2259 C2265 1.390 . S
C2260 H2251 0.931 . S
C2260 C2258 1.372 1_455 S
C2260 C2261 1.383 . S
C2261 C2260 1.383 . S
C2261 C2262 1.396 1_455 S
C2261 C2266 1.490 . S
C2262 H2252 0.875 1_655 S
C2262 C2261 1.396 1_655 S
C2262 C2265 1.447 . S
H2263 C2279 0.930 . S
H2264 C2280 0.931 . S
C2265 H2253 0.929 . S
C2265 C2259 1.390 . S
C2265 C2262 1.447 . S
C2266 C2261 1.490 . S
C2266 C2268 1.395 . S
C2266 C2269 1.403 . S
H2267 C2273 0.930 . S
C2268 H2254 0.930 . S
C2268 C2266 1.395 . S
C2268 C2271 1.403 . S
C2269 C2266 1.403 . S
C2269 C2270 1.524 . S
C2269 C2273 1.400 . S
C2270 H2255 0.960 . S
C2270 H2256 0.960 . S
C2270 H2257 0.960 . S
C2270 C2269 1.524 . S
C2271 C2268 1.403 . S
C2271 C2272 1.392 . S
C2271 C2275 1.495 . S
C2272 C2271 1.392 . S
C2272 C2273 1.385 . S
C2272 C2274 1.478 . S
C2273 H2267 0.930 . S
C2273 C2269 1.400 . S
C2273 C2272 1.385 . S
C2274 C2272 1.478 . S
C2274 C2276 1.381 . S
C2274 C2280 1.383 . S
C2275 C2271 1.495 . S
C2275 H2281 0.959 . S
C2275 H2282 0.961 . S
C2275 H2283 0.960 . S
C2276 C2274 1.381 . S
C2276 C2277 1.394 . S
C2276 H2284 0.930 . S
C2277 C2276 1.394 . S
C2277 C2278 1.383 . S
C2277 H2285 0.929 . S
C2278 C2277 1.383 . S
C2278 C2279 1.377 . S
C2279 H2263 0.930 . S
C2279 C2278 1.377 . S
C2279 C2280 1.379 . S
C2280 H2264 0.931 . S
C2280 C2274 1.383 . S
C2280 C2279 1.379 . S
H2281 C2275 0.959 . S
H2282 C2275 0.961 . S
H2283 C2275 0.960 . S
H2284 C2276 0.930 . S
H2285 C2277 0.929 . S
H2286 C2294 0.929 . S
H2287 C2296 0.930 . S
H2288 C2298 0.930 . S
H2289 C2301 0.929 . S
H2290 C2304 0.930 . S
H2291 C2306 0.960 . S
H2292 C2306 0.960 . S
H2293 C2306 0.960 . S
C2294 H2286 0.929 . S
C2294 C2295 1.377 . S
C2294 C2296 1.384 . S
C2295 C2294 1.377 . S
C2295 C2301 1.390 . S
C2296 H2287 0.930 . S
C2296 C2294 1.384 . S
C2296 C2297 1.372 . S
C2297 C2296 1.372 . S
C2297 C2298 1.400 . S
C2297 C2302 1.490 . S
C2298 H2288 0.930 . S
C2298 C2297 1.400 . S
C2298 C2301 1.386 . S
H2299 C2315 0.930 . S
H2300 C2316 0.931 . S
C2301 H2289 0.929 . S
C2301 C2295 1.390 . S
C2301 C2298 1.386 . S
C2302 C2297 1.490 . S
C2302 C2304 1.395 . S
C2302 C2305 1.403 . S
H2303 C2309 0.930 . S
C2304 H2290 0.930 . S
C2304 C2302 1.395 . S
C2304 C2307 1.403 . S
C2305 C2302 1.403 . S
C2305 C2306 1.524 . S
C2305 C2309 1.400 . S
C2306 H2291 0.960 . S
C2306 H2292 0.960 . S
C2306 H2293 0.960 . S
C2306 C2305 1.524 . S
C2307 C2304 1.403 . S
C2307 C2308 1.392 . S
C2307 C2311 1.495 . S
C2308 C2307 1.392 . S
C2308 C2309 1.385 . S
C2308 C2310 1.478 . S
C2309 H2303 0.930 . S
C2309 C2305 1.400 . S
C2309 C2308 1.385 . S
C2310 C2308 1.478 . S
C2310 C2312 1.381 . S
C2310 C2316 1.383 . S
C2311 C2307 1.495 . S
C2311 H2317 0.959 . S
C2311 H2318 0.961 . S
C2311 H2319 0.960 . S
C2312 C2310 1.381 . S
C2312 C2313 1.394 . S
C2312 H2320 0.930 . S
C2313 C2312 1.394 . S
C2313 C2314 1.383 . S
C2313 H2321 0.929 . S
C2314 C2313 1.383 . S
C2314 C2315 1.377 . S
C2315 H2299 0.930 . S
C2315 C2314 1.377 . S
C2315 C2316 1.379 . S
C2316 H2300 0.931 . S
C2316 C2310 1.383 . S
C2316 C2315 1.379 . S
H2317 C2311 0.959 . S
H2318 C2311 0.961 . S
H2319 C2311 0.960 . S
H2320 C2312 0.930 . S
H2321 C2313 0.929 . S
H2322 C2330 0.929 . S
H2323 C2332 0.930 . S
H2324 C2334 0.930 . S
H2325 C2337 0.929 . S
H2326 C2340 0.930 . S
H2327 C2342 0.960 . S
H2328 C2342 0.960 . S
H2329 C2342 0.960 . S
C2330 H2322 0.929 . S
C2330 C2331 1.377 . S
C2330 C2332 1.384 . S
C2331 C2330 1.377 . S
C2331 C2337 1.390 . S
C2332 H2323 0.930 . S
C2332 C2330 1.384 . S
C2332 C2333 1.372 . S
C2333 C2332 1.372 . S
C2333 C2334 1.400 . S
C2333 C2338 1.490 . S
C2334 H2324 0.930 . S
C2334 C2333 1.400 . S
C2334 C2337 1.386 . S
H2335 C2351 0.930 . S
H2336 C2352 0.931 . S
C2337 H2325 0.929 . S
C2337 C2331 1.390 . S
C2337 C2334 1.386 . S
C2338 C2333 1.490 . S
C2338 C2340 1.395 . S
C2338 C2341 1.403 . S
H2339 C2345 0.930 . S
C2340 H2326 0.930 . S
C2340 C2338 1.395 . S
C2340 C2343 1.403 . S
C2341 C2338 1.403 . S
C2341 C2342 1.524 . S
C2341 C2345 1.400 . S
C2342 H2327 0.960 . S
C2342 H2328 0.960 . S
C2342 H2329 0.960 . S
C2342 C2341 1.524 . S
C2343 C2340 1.403 . S
C2343 C2344 1.392 . S
C2343 C2347 1.495 . S
C2344 C2343 1.392 . S
C2344 C2345 1.385 . S
C2344 C2346 1.478 . S
C2345 H2339 0.930 . S
C2345 C2341 1.400 . S
C2345 C2344 1.385 . S
C2346 C2344 1.478 . S
C2346 C2348 1.381 . S
C2346 C2352 1.383 . S
C2347 C2343 1.495 . S
C2347 H2353 0.959 . S
C2347 H2354 0.961 . S
C2347 H2355 0.960 . S
C2348 C2346 1.381 . S
C2348 C2349 1.394 . S
C2348 H2356 0.930 . S
C2349 C2348 1.394 . S
C2349 C2350 1.383 . S
C2349 H2357 0.929 . S
C2350 C2349 1.383 . S
C2350 C2351 1.377 . S
C2351 H2335 0.930 . S
C2351 C2350 1.377 . S
C2351 C2352 1.379 . S
C2352 H2336 0.931 . S
C2352 C2346 1.383 . S
C2352 C2351 1.379 . S
H2353 C2347 0.959 . S
H2354 C2347 0.961 . S
H2355 C2347 0.960 . S
H2356 C2348 0.930 . S
H2357 C2349 0.929 . S
H2358 C2366 0.929 . S
H2359 C2368 0.930 . S
H2360 C2370 0.930 . S
H2361 C2373 0.929 . S
H2362 C2376 0.930 . S
H2363 C2378 0.960 . S
H2364 C2378 0.960 . S
H2365 C2378 0.960 . S
C2366 H2358 0.929 . S
C2366 C2367 1.377 . S
C2366 C2368 1.384 . S
C2367 C2366 1.377 . S
C2367 C2373 1.390 . S
C2368 H2359 0.930 . S
C2368 C2366 1.384 . S
C2368 C2369 1.372 . S
C2369 C2368 1.372 . S
C2369 C2370 1.400 . S
C2369 C2374 1.490 . S
C2370 H2360 0.930 . S
C2370 C2369 1.400 . S
C2370 C2373 1.386 . S
H2371 C2387 0.930 . S
H2372 C2388 0.931 . S
C2373 H2361 0.929 . S
C2373 C2367 1.390 . S
C2373 C2370 1.386 . S
C2374 C2369 1.490 . S
C2374 C2376 1.395 . S
C2374 C2377 1.403 . S
H2375 C2381 0.930 . S
C2376 H2362 0.930 . S
C2376 C2374 1.395 . S
C2376 C2379 1.403 . S
C2377 C2374 1.403 . S
C2377 C2378 1.524 . S
C2377 C2381 1.400 . S
C2378 H2363 0.960 . S
C2378 H2364 0.960 . S
C2378 H2365 0.960 . S
C2378 C2377 1.524 . S
C2379 C2376 1.403 . S
C2379 C2380 1.392 . S
C2379 C2383 1.495 . S
C2380 C2379 1.392 . S
C2380 C2381 1.385 . S
C2380 C2382 1.478 . S
C2381 H2375 0.930 . S
C2381 C2377 1.400 . S
C2381 C2380 1.385 . S
C2382 C2380 1.478 . S
C2382 C2384 1.381 . S
C2382 C2388 1.383 . S
C2383 C2379 1.495 . S
C2383 H2389 0.959 . S
C2383 H2390 0.961 . S
C2383 H2391 0.960 . S
C2384 C2382 1.381 . S
C2384 C2385 1.394 . S
C2384 H2392 0.930 . S
C2385 C2384 1.394 . S
C2385 C2386 1.383 . S
C2385 H2393 0.929 . S
C2386 C2385 1.383 . S
C2386 C2387 1.377 . S
C2387 H2371 0.930 . S
C2387 C2386 1.377 . S
C2387 C2388 1.379 . S
C2388 H2372 0.931 . S
C2388 C2382 1.383 . S
C2388 C2387 1.379 . S
H2389 C2383 0.959 . S
H2390 C2383 0.961 . S
H2391 C2383 0.960 . S
H2392 C2384 0.930 . S
H2393 C2385 0.929 . S
H2394 C2402 0.929 . S
H2395 C2404 0.930 . S
H2396 C2406 0.930 . S
H2397 C2409 0.929 . S
H2398 C2412 0.930 . S
H2399 C2414 0.960 . S
H2400 C2414 0.960 . S
H2401 C2414 0.960 . S
C2402 H2394 0.929 . S
C2402 C2403 1.377 . S
C2402 C2404 1.384 . S
C2403 C2402 1.377 . S
C2403 C2409 1.390 . S
C2404 H2395 0.930 . S
C2404 C2402 1.384 . S
C2404 C2405 1.372 . S
C2405 C2404 1.372 . S
C2405 C2406 1.400 . S
C2405 C2410 1.490 . S
C2406 H2396 0.930 . S
C2406 C2405 1.400 . S
C2406 C2409 1.386 . S
H2407 C2423 0.930 . S
H2408 C2424 0.931 . S
C2409 H2397 0.929 . S
C2409 C2403 1.390 . S
C2409 C2406 1.386 . S
C2410 C2405 1.490 . S
C2410 C2412 1.395 . S
C2410 C2413 1.403 . S
H2411 C2417 0.930 . S
C2412 H2398 0.930 . S
C2412 C2410 1.395 . S
C2412 C2415 1.403 . S
C2413 C2410 1.403 . S
C2413 C2414 1.524 . S
C2413 C2417 1.400 . S
C2414 H2399 0.960 . S
C2414 H2400 0.960 . S
C2414 H2401 0.960 . S
C2414 C2413 1.524 . S
C2415 C2412 1.403 . S
C2415 C2416 1.392 . S
C2415 C2419 1.495 . S
C2416 C2415 1.392 . S
C2416 C2417 1.385 . S
C2416 C2418 1.478 . S
C2417 H2411 0.930 . S
C2417 C2413 1.400 . S
C2417 C2416 1.385 . S
C2418 C2416 1.478 . S
C2418 C2420 1.381 . S
C2418 C2424 1.383 . S
C2419 C2415 1.495 . S
C2419 H2425 0.959 . S
C2419 H2426 0.961 . S
C2419 H2427 0.960 . S
C2420 C2418 1.381 . S
C2420 C2421 1.394 . S
C2420 H2428 0.930 . S
C2421 C2420 1.394 . S
C2421 C2422 1.383 . S
C2421 H2429 0.929 . S
C2422 C2421 1.383 . S
C2422 C2423 1.377 . S
C2423 H2407 0.930 . S
C2423 C2422 1.377 . S
C2423 C2424 1.379 . S
C2424 H2408 0.931 . S
C2424 C2418 1.383 . S
C2424 C2423 1.379 . S
H2425 C2419 0.959 . S
H2426 C2419 0.961 . S
H2427 C2419 0.960 . S
H2428 C2420 0.930 . S
H2429 C2421 0.929 . S
H2430 C2438 0.929 . S
H2431 C2440 0.924 . S
H2432 C2442 0.930 . S
H2433 C2445 0.929 . S
H2434 C2448 0.930 . S
H2435 C2450 0.960 . S
H2436 C2450 0.960 . S
H2437 C2450 0.960 . S
C2438 H2430 0.929 . S
C2438 C2439 1.377 . S
C2438 C2440 1.388 1_565 S
C2439 C2438 1.377 . S
C2439 C2445 1.390 . S
C2440 H2431 0.924 . S
C2440 C2438 1.388 1_545 S
C2440 C2441 1.374 . S
C2441 C2440 1.374 . S
C2441 C2442 1.400 1_545 S
C2441 C2446 1.490 . S
C2442 H2432 0.930 . S
C2442 C2441 1.400 1_565 S
C2442 C2445 1.386 . S
H2443 C2459 0.930 . S
H2444 C2460 0.931 . S
C2445 H2433 0.929 . S
C2445 C2439 1.390 . S
C2445 C2442 1.386 . S
C2446 C2441 1.490 . S
C2446 C2448 1.395 . S
C2446 C2449 1.403 . S
H2447 C2453 0.930 . S
C2448 H2434 0.930 . S
C2448 C2446 1.395 . S
C2448 C2451 1.403 . S
C2449 C2446 1.403 . S
C2449 C2450 1.524 . S
C2449 C2453 1.400 . S
C2450 H2435 0.960 . S
C2450 H2436 0.960 . S
C2450 H2437 0.960 . S
C2450 C2449 1.524 . S
C2451 C2448 1.403 . S
C2451 C2452 1.392 . S
C2451 C2455 1.495 . S
C2452 C2451 1.392 . S
C2452 C2453 1.385 . S
C2452 C2454 1.478 . S
C2453 H2447 0.930 . S
C2453 C2449 1.400 . S
C2453 C2452 1.385 . S
C2454 C2452 1.478 . S
C2454 C2456 1.381 . S
C2454 C2460 1.383 . S
C2455 C2451 1.495 . S
C2455 H2461 0.959 . S
C2455 H2462 0.961 . S
C2455 H2463 0.960 . S
C2456 C2454 1.381 . S
C2456 C2457 1.394 . S
C2456 H2464 0.930 . S
C2457 C2456 1.394 . S
C2457 C2458 1.383 . S
C2457 H2465 0.929 . S
C2458 C2457 1.383 . S
C2458 C2459 1.377 . S
C2459 H2443 0.930 . S
C2459 C2458 1.377 . S
C2459 C2460 1.379 . S
C2460 H2444 0.931 . S
C2460 C2454 1.383 . S
C2460 C2459 1.379 . S
H2461 C2455 0.959 . S
H2462 C2455 0.961 . S
H2463 C2455 0.960 . S
H2464 C2456 0.930 . S
H2465 C2457 0.929 . S
H2466 C2474 0.929 . S
H2467 C2476 0.930 . S
H2468 C2478 0.930 . S
H2469 C2481 0.929 . S
H2470 C2484 0.930 . S
H2471 C2486 0.960 . S
H2472 C2486 0.960 . S
H2473 C2486 0.960 . S
C2474 H2466 0.929 . S
C2474 C2475 1.377 . S
C2474 C2476 1.384 1_455 S
C2475 C2474 1.377 . S
C2475 C2481 1.390 . S
C2476 H2467 0.930 . S
C2476 C2474 1.384 1_655 S
C2476 C2477 1.372 . S
C2477 C2476 1.372 . S
C2477 C2478 1.400 1_655 S
C2477 C2482 1.490 . S
C2478 H2468 0.930 . S
C2478 C2477 1.400 1_455 S
C2478 C2481 1.386 . S
H2479 C2495 0.930 . S
H2480 C2496 0.931 . S
C2481 H2469 0.929 . S
C2481 C2475 1.390 . S
C2481 C2478 1.386 . S
C2482 C2477 1.490 . S
C2482 C2484 1.395 . S
C2482 C2485 1.403 . S
H2483 C2489 0.930 . S
C2484 H2470 0.930 . S
C2484 C2482 1.395 . S
C2484 C2487 1.403 . S
C2485 C2482 1.403 . S
C2485 C2486 1.524 . S
C2485 C2489 1.400 . S
C2486 H2471 0.960 . S
C2486 H2472 0.960 . S
C2486 H2473 0.960 . S
C2486 C2485 1.524 . S
C2487 C2484 1.403 . S
C2487 C2488 1.392 . S
C2487 C2491 1.495 . S
C2488 C2487 1.392 . S
C2488 C2489 1.385 . S
C2488 C2490 1.478 . S
C2489 H2483 0.930 . S
C2489 C2485 1.400 . S
C2489 C2488 1.385 . S
C2490 C2488 1.478 . S
C2490 C2492 1.381 . S
C2490 C2496 1.383 . S
C2491 C2487 1.495 . S
C2491 H2497 0.959 . S
C2491 H2498 0.961 . S
C2491 H2499 0.960 . S
C2492 C2490 1.381 . S
C2492 C2493 1.394 . S
C2492 H2500 0.930 . S
C2493 C2492 1.394 . S
C2493 C2494 1.383 . S
C2493 H2501 0.929 . S
C2494 C2493 1.383 . S
C2494 C2495 1.377 . S
C2495 H2479 0.930 . S
C2495 C2494 1.377 . S
C2495 C2496 1.379 . S
C2496 H2480 0.931 . S
C2496 C2490 1.383 . S
C2496 C2495 1.379 . S
H2497 C2491 0.959 . S
H2498 C2491 0.961 . S
H2499 C2491 0.960 . S
H2500 C2492 0.930 . S
H2501 C2493 0.929 . S
H2502 C2510 0.929 . S
H2503 C2512 0.930 . S
H2504 C2514 0.930 . S
H2505 C2517 0.929 . S
H2506 C2520 0.930 . S
H2507 C2522 0.960 . S
H2508 C2522 0.960 . S
H2509 C2522 0.960 . S
C2510 H2502 0.929 . S
C2510 C2511 1.377 . S
C2510 C2512 1.384 . S
C2511 C2510 1.377 . S
C2511 C2517 1.390 . S
C2512 H2503 0.930 . S
C2512 C2510 1.384 . S
C2512 C2513 1.372 . S
C2513 C2512 1.372 . S
C2513 C2514 1.400 . S
C2513 C2518 1.490 . S
C2514 H2504 0.930 . S
C2514 C2513 1.400 . S
C2514 C2517 1.386 . S
H2515 C2531 0.930 . S
H2516 C2532 0.931 . S
C2517 H2505 0.929 . S
C2517 C2511 1.390 . S
C2517 C2514 1.386 . S
C2518 C2513 1.490 . S
C2518 C2520 1.395 . S
C2518 C2521 1.403 . S
H2519 C2525 0.930 . S
C2520 H2506 0.930 . S
C2520 C2518 1.395 . S
C2520 C2523 1.403 . S
C2521 C2518 1.403 . S
C2521 C2522 1.524 . S
C2521 C2525 1.400 . S
C2522 H2507 0.960 . S
C2522 H2508 0.960 . S
C2522 H2509 0.960 . S
C2522 C2521 1.524 . S
C2523 C2520 1.403 . S
C2523 C2524 1.392 . S
C2523 C2527 1.495 . S
C2524 C2523 1.392 . S
C2524 C2525 1.385 . S
C2524 C2526 1.478 . S
C2525 H2519 0.930 . S
C2525 C2521 1.400 . S
C2525 C2524 1.385 . S
C2526 C2524 1.478 . S
C2526 C2528 1.381 . S
C2526 C2532 1.383 . S
C2527 C2523 1.495 . S
C2527 H2533 0.959 . S
C2527 H2534 0.961 . S
C2527 H2535 0.960 . S
C2528 C2526 1.381 . S
C2528 C2529 1.394 . S
C2528 H2536 0.930 . S
C2529 C2528 1.394 . S
C2529 C2530 1.383 . S
C2529 H2537 0.929 . S
C2530 C2529 1.383 . S
C2530 C2531 1.377 . S
C2531 H2515 0.930 . S
C2531 C2530 1.377 . S
C2531 C2532 1.379 . S
C2532 H2516 0.931 . S
C2532 C2526 1.383 . S
C2532 C2531 1.379 . S
H2533 C2527 0.959 . S
H2534 C2527 0.961 . S
H2535 C2527 0.960 . S
H2536 C2528 0.930 . S
H2537 C2529 0.929 . S
H2538 C2546 0.929 . S
H2539 C2548 0.930 1_655 S
H2540 C2550 0.930 1_655 S
H2541 C2553 0.929 . S
H2542 C2556 0.930 . S
H2543 C2558 0.960 . S
H2544 C2558 0.960 . S
H2545 C2558 0.960 . S
C2546 H2538 0.929 . S
C2546 C2547 1.377 . S
C2546 C2548 1.384 . S
C2547 C2546 1.377 . S
C2547 C2553 1.390 . S
C2548 H2539 0.930 1_455 S
C2548 C2546 1.384 . S
C2548 C2549 1.372 1_455 S
C2549 C2548 1.372 1_655 S
C2549 C2550 1.400 1_655 S
C2549 C2554 1.490 . S
C2550 H2540 0.930 1_455 S
C2550 C2549 1.400 1_455 S
C2550 C2553 1.386 . S
H2551 C2567 0.930 . S
H2552 C2568 0.931 . S
C2553 H2541 0.929 . S
C2553 C2547 1.390 . S
C2553 C2550 1.386 . S
C2554 C2549 1.490 . S
C2554 C2556 1.395 . S
C2554 C2557 1.403 . S
H2555 C2561 0.930 . S
C2556 H2542 0.930 . S
C2556 C2554 1.395 . S
C2556 C2559 1.403 . S
C2557 C2554 1.403 . S
C2557 C2558 1.524 . S
C2557 C2561 1.400 . S
C2558 H2543 0.960 . S
C2558 H2544 0.960 . S
C2558 H2545 0.960 . S
C2558 C2557 1.524 . S
C2559 C2556 1.403 . S
C2559 C2560 1.392 . S
C2559 C2563 1.495 . S
C2560 C2559 1.392 . S
C2560 C2561 1.385 . S
C2560 C2562 1.478 . S
C2561 H2555 0.930 . S
C2561 C2557 1.400 . S
C2561 C2560 1.385 . S
C2562 C2560 1.478 . S
C2562 C2564 1.381 . S
C2562 C2568 1.383 . S
C2563 C2559 1.495 . S
C2563 H2569 0.959 . S
C2563 H2570 0.961 . S
C2563 H2571 0.960 . S
C2564 C2562 1.381 . S
C2564 C2565 1.394 . S
C2564 H2572 0.930 . S
C2565 C2564 1.394 . S
C2565 C2566 1.383 . S
C2565 H2573 0.929 . S
C2566 C2565 1.383 . S
C2566 C2567 1.377 . S
C2567 H2551 0.930 . S
C2567 C2566 1.377 . S
C2567 C2568 1.379 . S
C2568 H2552 0.931 . S
C2568 C2562 1.383 . S
C2568 C2567 1.379 . S
H2569 C2563 0.959 . S
H2570 C2563 0.961 . S
H2571 C2563 0.960 . S
H2572 C2564 0.930 . S
H2573 C2565 0.929 . S
H2574 C2582 0.929 . S
H2575 C2584 0.930 . S
H2576 C2586 0.930 . S
H2577 C2589 0.929 . S
H2578 C2592 0.930 . S
H2579 C2594 0.960 . S
H2580 C2594 0.960 . S
H2581 C2594 0.960 . S
C2582 H2574 0.929 . S
C2582 C2583 1.377 . S
C2582 C2584 1.384 . S
C2583 C2582 1.377 . S
C2583 C2589 1.390 . S
C2584 H2575 0.930 . S
C2584 C2582 1.384 . S
C2584 C2585 1.372 . S
C2585 C2584 1.372 . S
C2585 C2586 1.400 . S
C2585 C2590 1.490 . S
C2586 H2576 0.930 . S
C2586 C2585 1.400 . S
C2586 C2589 1.386 . S
H2587 C2603 0.930 . S
H2588 C2604 0.931 . S
C2589 H2577 0.929 . S
C2589 C2583 1.390 . S
C2589 C2586 1.386 . S
C2590 C2585 1.490 . S
C2590 C2592 1.395 . S
C2590 C2593 1.403 . S
H2591 C2597 0.930 . S
C2592 H2578 0.930 . S
C2592 C2590 1.395 . S
C2592 C2595 1.403 . S
C2593 C2590 1.403 . S
C2593 C2594 1.524 . S
C2593 C2597 1.400 . S
C2594 H2579 0.960 . S
C2594 H2580 0.960 . S
C2594 H2581 0.960 . S
C2594 C2593 1.524 . S
C2595 C2592 1.403 . S
C2595 C2596 1.392 . S
C2595 C2599 1.495 . S
C2596 C2595 1.392 . S
C2596 C2597 1.385 . S
C2596 C2598 1.478 . S
C2597 H2591 0.930 . S
C2597 C2593 1.400 . S
C2597 C2596 1.385 . S
C2598 C2596 1.478 . S
C2598 C2600 1.381 . S
C2598 C2604 1.383 . S
C2599 C2595 1.495 . S
C2599 H2605 0.959 . S
C2599 H2606 0.961 . S
C2599 H2607 0.960 . S
C2600 C2598 1.381 . S
C2600 C2601 1.394 . S
C2600 H2608 0.930 . S
C2601 C2600 1.394 . S
C2601 C2602 1.383 . S
C2601 H2609 0.929 . S
C2602 C2601 1.383 . S
C2602 C2603 1.377 . S
C2603 H2587 0.930 . S
C2603 C2602 1.377 . S
C2603 C2604 1.379 . S
C2604 H2588 0.931 . S
C2604 C2598 1.383 . S
C2604 C2603 1.379 . S
H2605 C2599 0.959 . S
H2606 C2599 0.961 . S
H2607 C2599 0.960 . S
H2608 C2600 0.930 . S
H2609 C2601 0.929 . S
H2610 C2618 0.929 . S
H2611 C2620 0.930 1_545 S
H2612 C2622 0.930 . S
H2613 C2625 0.929 . S
H2614 C2628 0.930 . S
H2615 C2630 0.960 . S
H2616 C2630 0.960 . S
H2617 C2630 0.960 . S
C2618 H2610 0.929 . S
C2618 C2619 1.377 . S
C2618 C2620 1.384 . S
C2619 C2618 1.377 . S
C2619 C2625 1.390 . S
C2620 H2611 0.930 1_565 S
C2620 C2618 1.384 . S
C2620 C2621 1.372 1_565 S
C2621 C2620 1.372 1_545 S
C2621 C2622 1.400 1_545 S
C2621 C2626 1.490 . S
C2622 H2612 0.930 . S
C2622 C2621 1.400 1_565 S
C2622 C2625 1.386 . S
H2623 C2639 0.930 . S
H2624 C2640 0.931 . S
C2625 H2613 0.929 . S
C2625 C2619 1.390 . S
C2625 C2622 1.386 . S
C2626 C2621 1.490 . S
C2626 C2628 1.395 . S
C2626 C2629 1.403 . S
H2627 C2633 0.930 . S
C2628 H2614 0.930 . S
C2628 C2626 1.395 . S
C2628 C2631 1.403 . S
C2629 C2626 1.403 . S
C2629 C2630 1.524 . S
C2629 C2633 1.400 . S
C2630 H2615 0.960 . S
C2630 H2616 0.960 . S
C2630 H2617 0.960 . S
C2630 C2629 1.524 . S
C2631 C2628 1.403 . S
C2631 C2632 1.392 . S
C2631 C2635 1.495 . S
C2632 C2631 1.392 . S
C2632 C2633 1.385 . S
C2632 C2634 1.478 . S
C2633 H2627 0.930 . S
C2633 C2629 1.400 . S
C2633 C2632 1.385 . S
C2634 C2632 1.478 . S
C2634 C2636 1.381 . S
C2634 C2640 1.383 . S
C2635 C2631 1.495 . S
C2635 H2641 0.959 . S
C2635 H2642 0.961 . S
C2635 H2643 0.960 . S
C2636 C2634 1.381 . S
C2636 C2637 1.394 . S
C2636 H2644 0.930 . S
C2637 C2636 1.394 . S
C2637 C2638 1.383 . S
C2637 H2645 0.929 . S
C2638 C2637 1.383 . S
C2638 C2639 1.377 . S
C2639 H2623 0.930 . S
C2639 C2638 1.377 . S
C2639 C2640 1.379 . S
C2640 H2624 0.931 . S
C2640 C2634 1.383 . S
C2640 C2639 1.379 . S
H2641 C2635 0.959 . S
H2642 C2635 0.961 . S
H2643 C2635 0.960 . S
H2644 C2636 0.930 . S
H2645 C2637 0.929 . S
H2646 C2654 0.929 . S
H2647 C2656 0.930 . S
H2648 C2658 0.930 . S
H2649 C2661 0.929 . S
H2650 C2664 0.930 . S
H2651 C2666 0.960 . S
H2652 C2666 0.960 . S
H2653 C2666 0.960 . S
C2654 H2646 0.929 . S
C2654 C2655 1.377 . S
C2654 C2656 1.384 . S
C2655 C2654 1.377 . S
C2655 C2661 1.390 . S
C2656 H2647 0.930 . S
C2656 C2654 1.384 . S
C2656 C2657 1.372 . S
C2657 C2656 1.372 . S
C2657 C2658 1.400 . S
C2657 C2662 1.490 . S
C2658 H2648 0.930 . S
C2658 C2657 1.400 . S
C2658 C2661 1.386 . S
H2659 C2675 0.930 . S
H2660 C2676 0.931 . S
C2661 H2649 0.929 . S
C2661 C2655 1.390 . S
C2661 C2658 1.386 . S
C2662 C2657 1.490 . S
C2662 C2664 1.395 . S
C2662 C2665 1.403 . S
H2663 C2669 0.930 . S
C2664 H2650 0.930 . S
C2664 C2662 1.395 . S
C2664 C2667 1.403 . S
C2665 C2662 1.403 . S
C2665 C2666 1.524 . S
C2665 C2669 1.400 . S
C2666 H2651 0.960 . S
C2666 H2652 0.960 . S
C2666 H2653 0.960 . S
C2666 C2665 1.524 . S
C2667 C2664 1.403 . S
C2667 C2668 1.392 . S
C2667 C2671 1.495 . S
C2668 C2667 1.392 . S
C2668 C2669 1.385 . S
C2668 C2670 1.478 . S
C2669 H2663 0.930 . S
C2669 C2665 1.400 . S
C2669 C2668 1.385 . S
C2670 C2668 1.478 . S
C2670 C2672 1.381 . S
C2670 C2676 1.383 . S
C2671 C2667 1.495 . S
C2671 H2677 0.959 . S
C2671 H2678 0.961 . S
C2671 H2679 0.960 . S
C2672 C2670 1.381 . S
C2672 C2673 1.394 . S
C2672 H2680 0.930 . S
C2673 C2672 1.394 . S
C2673 C2674 1.383 . S
C2673 H2681 0.929 . S
C2674 C2673 1.383 . S
C2674 C2675 1.377 . S
C2675 H2659 0.930 . S
C2675 C2674 1.377 . S
C2675 C2676 1.379 . S
C2676 H2660 0.931 . S
C2676 C2670 1.383 . S
C2676 C2675 1.379 . S
H2677 C2671 0.959 . S
H2678 C2671 0.961 . S
H2679 C2671 0.960 . S
H2680 C2672 0.930 . S
H2681 C2673 0.929 . S
H2682 C2690 0.929 . S
H2683 C2692 0.930 . S
H2684 C2694 0.930 . S
H2685 C2697 0.929 . S
H2686 C2700 0.930 . S
H2687 C2702 0.960 . S
H2688 C2702 0.960 . S
H2689 C2702 0.960 . S
C2690 H2682 0.929 . S
C2690 C2691 1.377 . S
C2690 C2692 1.384 . S
C2691 C2690 1.377 . S
C2691 C2697 1.390 . S
C2692 H2683 0.930 . S
C2692 C2690 1.384 . S
C2692 C2693 1.372 . S
C2693 C2692 1.372 . S
C2693 C2694 1.400 . S
C2693 C2698 1.490 . S
C2694 H2684 0.930 . S
C2694 C2693 1.400 . S
C2694 C2697 1.386 . S
H2695 C2711 0.930 . S
H2696 C2712 0.931 . S
C2697 H2685 0.929 . S
C2697 C2691 1.390 . S
C2697 C2694 1.386 . S
C2698 C2693 1.490 . S
C2698 C2700 1.395 . S
C2698 C2701 1.403 . S
H2699 C2705 0.930 . S
C2700 H2686 0.930 . S
C2700 C2698 1.395 . S
C2700 C2703 1.403 . S
C2701 C2698 1.403 . S
C2701 C2702 1.524 . S
C2701 C2705 1.400 . S
C2702 H2687 0.960 . S
C2702 H2688 0.960 . S
C2702 H2689 0.960 . S
C2702 C2701 1.524 . S
C2703 C2700 1.403 . S
C2703 C2704 1.392 . S
C2703 C2707 1.495 . S
C2704 C2703 1.392 . S
C2704 C2705 1.385 . S
C2704 C2706 1.478 . S
C2705 H2699 0.930 . S
C2705 C2701 1.400 . S
C2705 C2704 1.385 . S
C2706 C2704 1.478 . S
C2706 C2708 1.381 . S
C2706 C2712 1.383 . S
C2707 C2703 1.495 . S
C2707 H2713 0.959 . S
C2707 H2714 0.961 . S
C2707 H2715 0.960 . S
C2708 C2706 1.381 . S
C2708 C2709 1.394 . S
C2708 H2716 0.930 . S
C2709 C2708 1.394 . S
C2709 C2710 1.383 . S
C2709 H2717 0.929 . S
C2710 C2709 1.383 . S
C2710 C2711 1.377 . S
C2711 H2695 0.930 . S
C2711 C2710 1.377 . S
C2711 C2712 1.379 . S
C2712 H2696 0.931 . S
C2712 C2706 1.383 . S
C2712 C2711 1.379 . S
H2713 C2707 0.959 . S
H2714 C2707 0.961 . S
H2715 C2707 0.960 . S
H2716 C2708 0.930 . S
H2717 C2709 0.929 . S
H2718 C2726 0.929 . S
H2719 C2728 0.930 . S
H2720 C2730 0.930 . S
H2721 C2733 0.929 . S
H2722 C2736 0.930 . S
H2723 C2738 0.960 . S
H2724 C2738 0.960 . S
H2725 C2738 0.960 . S
C2726 H2718 0.929 . S
C2726 C2727 1.377 . S
C2726 C2728 1.384 . S
C2727 C2726 1.377 . S
C2727 C2733 1.390 . S
C2728 H2719 0.930 . S
C2728 C2726 1.384 . S
C2728 C2729 1.372 . S
C2729 C2728 1.372 . S
C2729 C2730 1.400 . S
C2729 C2734 1.490 . S
C2730 H2720 0.930 . S
C2730 C2729 1.400 . S
C2730 C2733 1.386 . S
H2731 C2747 0.930 . S
H2732 C2748 0.931 . S
C2733 H2721 0.929 . S
C2733 C2727 1.390 . S
C2733 C2730 1.386 . S
C2734 C2729 1.490 . S
C2734 C2736 1.395 . S
C2734 C2737 1.403 . S
H2735 C2741 0.930 . S
C2736 H2722 0.930 . S
C2736 C2734 1.395 . S
C2736 C2739 1.403 . S
C2737 C2734 1.403 . S
C2737 C2738 1.524 . S
C2737 C2741 1.400 . S
C2738 H2723 0.960 . S
C2738 H2724 0.960 . S
C2738 H2725 0.960 . S
C2738 C2737 1.524 . S
C2739 C2736 1.403 . S
C2739 C2740 1.392 . S
C2739 C2743 1.495 . S
C2740 C2739 1.392 . S
C2740 C2741 1.385 . S
C2740 C2742 1.478 . S
C2741 H2735 0.930 . S
C2741 C2737 1.400 . S
C2741 C2740 1.385 . S
C2742 C2740 1.478 . S
C2742 C2744 1.381 . S
C2742 C2748 1.383 . S
C2743 C2739 1.495 . S
C2743 H2749 0.959 . S
C2743 H2750 0.961 . S
C2743 H2751 0.960 . S
C2744 C2742 1.381 . S
C2744 C2745 1.394 . S
C2744 H2752 0.930 . S
C2745 C2744 1.394 . S
C2745 C2746 1.383 . S
C2745 H2753 0.929 . S
C2746 C2745 1.383 . S
C2746 C2747 1.377 . S
C2747 H2731 0.930 . S
C2747 C2746 1.377 . S
C2747 C2748 1.379 . S
C2748 H2732 0.931 . S
C2748 C2742 1.383 . S
C2748 C2747 1.379 . S
H2749 C2743 0.959 . S
H2750 C2743 0.961 . S
H2751 C2743 0.960 . S
H2752 C2744 0.930 . S
H2753 C2745 0.929 . S
H2754 C2762 0.929 . S
H2755 C2764 0.930 . S
H2756 C2766 0.930 . S
H2757 C2769 0.929 . S
H2758 C2772 0.930 . S
H2759 C2774 0.960 . S
H2760 C2774 0.960 . S
H2761 C2774 0.960 . S
C2762 H2754 0.929 . S
C2762 C2763 1.377 . S
C2762 C2764 1.384 . S
C2763 C2762 1.377 . S
C2763 C2769 1.390 . S
C2764 H2755 0.930 . S
C2764 C2762 1.384 . S
C2764 C2765 1.372 . S
C2765 C2764 1.372 . S
C2765 C2766 1.400 . S
C2765 C2770 1.490 . S
C2766 H2756 0.930 . S
C2766 C2765 1.400 . S
C2766 C2769 1.386 . S
H2767 C2783 0.930 . S
H2768 C2784 0.931 . S
C2769 H2757 0.929 . S
C2769 C2763 1.390 . S
C2769 C2766 1.386 . S
C2770 C2765 1.490 . S
C2770 C2772 1.395 . S
C2770 C2773 1.403 . S
H2771 C2777 0.930 . S
C2772 H2758 0.930 . S
C2772 C2770 1.395 . S
C2772 C2775 1.403 . S
C2773 C2770 1.403 . S
C2773 C2774 1.524 . S
C2773 C2777 1.400 . S
C2774 H2759 0.960 . S
C2774 H2760 0.960 . S
C2774 H2761 0.960 . S
C2774 C2773 1.524 . S
C2775 C2772 1.403 . S
C2775 C2776 1.392 . S
C2775 C2779 1.531 . S
C2776 C2775 1.392 . S
C2776 C2777 1.385 . S
C2776 C2778 1.478 . S
C2777 H2771 0.930 . S
C2777 C2773 1.400 . S
C2777 C2776 1.385 . S
C2778 C2776 1.478 . S
C2778 C2780 1.381 . S
C2778 C2784 1.383 . S
C2779 C2775 1.531 . S
C2779 H2785 0.943 1_565 S
C2779 H2786 0.965 1_565 S
C2779 H2787 0.938 1_565 S
C2780 C2778 1.381 . S
C2780 C2781 1.394 . S
C2780 H2788 0.930 . S
C2781 C2780 1.394 . S
C2781 C2782 1.383 . S
C2781 H2789 0.929 . S
C2782 C2781 1.383 . S
C2782 C2783 1.377 . S
C2783 H2767 0.930 . S
C2783 C2782 1.377 . S
C2783 C2784 1.379 . S
C2784 H2768 0.931 . S
C2784 C2778 1.383 . S
C2784 C2783 1.379 . S
H2785 C2779 0.943 1_545 S
H2786 C2779 0.965 1_545 S
H2787 C2779 0.938 1_545 S
H2788 C2780 0.930 . S
H2789 C2781 0.929 . S
H2790 C2798 0.929 . S
H2791 C2800 0.930 . S
H2792 C2802 0.930 . S
H2793 C2805 0.929 . S
H2794 C2808 0.930 . S
H2795 C2810 0.960 . S
H2796 C2810 0.960 . S
H2797 C2810 0.960 . S
C2798 H2790 0.929 . S
C2798 C2799 1.377 . S
C2798 C2800 1.384 . S
C2799 C2798 1.377 . S
C2799 C2805 1.390 . S
C2800 H2791 0.930 . S
C2800 C2798 1.384 . S
C2800 C2801 1.372 . S
C2801 C2800 1.372 . S
C2801 C2802 1.400 . S
C2801 C2806 1.490 . S
C2802 H2792 0.930 . S
C2802 C2801 1.400 . S
C2802 C2805 1.386 . S
H2803 C2819 0.930 . S
H2804 C2820 0.931 . S
C2805 H2793 0.929 . S
C2805 C2799 1.390 . S
C2805 C2802 1.386 . S
C2806 C2801 1.490 . S
C2806 C2808 1.395 . S
C2806 C2809 1.403 . S
H2807 C2813 0.930 . S
C2808 H2794 0.930 . S
C2808 C2806 1.395 . S
C2808 C2811 1.403 . S
C2809 C2806 1.403 . S
C2809 C2810 1.524 . S
C2809 C2813 1.400 . S
C2810 H2795 0.960 . S
C2810 H2796 0.960 . S
C2810 H2797 0.960 . S
C2810 C2809 1.524 . S
C2811 C2808 1.403 . S
C2811 C2812 1.392 . S
C2811 C2815 1.495 . S
C2812 C2811 1.392 . S
C2812 C2813 1.385 . S
C2812 C2814 1.478 . S
C2813 H2807 0.930 . S
C2813 C2809 1.400 . S
C2813 C2812 1.385 . S
C2814 C2812 1.478 . S
C2814 C2816 1.381 . S
C2814 C2820 1.383 . S
C2815 C2811 1.495 . S
C2815 H2821 0.959 . S
C2815 H2822 0.961 . S
C2815 H2823 0.960 . S
C2816 C2814 1.381 . S
C2816 C2817 1.394 . S
C2816 H2824 0.930 . S
C2817 C2816 1.394 . S
C2817 C2818 1.383 . S
C2817 H2825 0.932 . S
C2818 C2817 1.383 . S
C2818 C2819 1.377 . S
C2819 H2803 0.930 . S
C2819 C2818 1.377 . S
C2819 C2820 1.379 . S
C2820 H2804 0.931 . S
C2820 C2814 1.383 . S
C2820 C2819 1.379 . S
H2821 C2815 0.959 . S
H2822 C2815 0.961 . S
H2823 C2815 0.960 . S
H2824 C2816 0.930 . S
H2825 C2817 0.932 . S
H2826 C2834 0.929 . S
H2827 C2836 0.930 . S
H2828 C2838 0.930 . S
H2829 C2841 0.929 . S
H2830 C2844 0.930 . S
H2831 C2846 0.960 . S
H2832 C2846 0.960 . S
H2833 C2846 0.960 . S
C2834 H2826 0.929 . S
C2834 C2835 1.377 . S
C2834 C2836 1.384 . S
C2835 C2834 1.377 . S
C2835 C2841 1.390 . S
C2836 H2827 0.930 . S
C2836 C2834 1.384 . S
C2836 C2837 1.372 . S
C2837 C2836 1.372 . S
C2837 C2838 1.400 . S
C2837 C2842 1.490 . S
C2838 H2828 0.930 . S
C2838 C2837 1.400 . S
C2838 C2841 1.386 . S
H2839 C2855 0.930 . S
H2840 C2856 0.931 . S
C2841 H2829 0.929 . S
C2841 C2835 1.390 . S
C2841 C2838 1.386 . S
C2842 C2837 1.490 . S
C2842 C2844 1.395 . S
C2842 C2845 1.403 . S
H2843 C2849 0.930 . S
C2844 H2830 0.930 . S
C2844 C2842 1.395 . S
C2844 C2847 1.403 . S
C2845 C2842 1.403 . S
C2845 C2846 1.524 . S
C2845 C2849 1.400 . S
C2846 H2831 0.960 . S
C2846 H2832 0.960 . S
C2846 H2833 0.960 . S
C2846 C2845 1.524 . S
C2847 C2844 1.403 . S
C2847 C2848 1.392 . S
C2847 C2851 1.495 . S
C2848 C2847 1.392 . S
C2848 C2849 1.385 . S
C2848 C2850 1.478 . S
C2849 H2843 0.930 . S
C2849 C2845 1.400 . S
C2849 C2848 1.385 . S
C2850 C2848 1.478 . S
C2850 C2852 1.381 . S
C2850 C2856 1.383 . S
C2851 C2847 1.495 . S
C2851 H2857 0.959 . S
C2851 H2858 0.961 . S
C2851 H2859 0.960 . S
C2852 C2850 1.381 . S
C2852 C2853 1.394 . S
C2852 H2860 0.930 . S
C2853 C2852 1.394 . S
C2853 C2854 1.383 . S
C2853 H2861 0.929 . S
C2854 C2853 1.383 . S
C2854 C2855 1.377 . S
C2855 H2839 0.930 . S
C2855 C2854 1.377 . S
C2855 C2856 1.379 . S
C2856 H2840 0.931 . S
C2856 C2850 1.383 . S
C2856 C2855 1.379 . S
H2857 C2851 0.959 . S
H2858 C2851 0.961 . S
H2859 C2851 0.960 . S
H2860 C2852 0.930 . S
H2861 C2853 0.929 . S
H2862 C2870 0.929 . S
H2863 C2872 0.930 . S
H2864 C2874 0.930 . S
H2865 C2877 0.929 . S
H2866 C2880 0.930 . S
H2867 C2882 0.960 . S
H2868 C2882 0.960 . S
H2869 C2882 0.960 . S
C2870 H2862 0.929 . S
C2870 C2871 1.377 . S
C2870 C2872 1.384 . S
C2871 C2870 1.377 . S
C2871 C2877 1.390 . S
C2872 H2863 0.930 . S
C2872 C2870 1.384 . S
C2872 C2873 1.372 . S
C2873 C2872 1.372 . S
C2873 C2874 1.400 . S
C2873 C2878 1.490 . S
C2874 H2864 0.930 . S
C2874 C2873 1.400 . S
C2874 C2877 1.386 . S
H2875 C2891 0.930 . S
H2876 C2892 0.931 . S
C2877 H2865 0.929 . S
C2877 C2871 1.390 . S
C2877 C2874 1.386 . S
C2878 C2873 1.490 . S
C2878 C2880 1.395 . S
C2878 C2881 1.403 . S
H2879 C2885 0.930 . S
C2880 H2866 0.930 . S
C2880 C2878 1.395 . S
C2880 C2883 1.403 . S
C2881 C2878 1.403 . S
C2881 C2882 1.524 . S
C2881 C2885 1.400 . S
C2882 H2867 0.960 . S
C2882 H2868 0.960 . S
C2882 H2869 0.960 . S
C2882 C2881 1.524 . S
C2883 C2880 1.403 . S
C2883 C2884 1.392 . S
C2883 C2887 1.495 . S
C2884 C2883 1.392 . S
C2884 C2885 1.385 . S
C2884 C2886 1.478 . S
C2885 H2879 0.930 . S
C2885 C2881 1.400 . S
C2885 C2884 1.385 . S
C2886 C2884 1.478 . S
C2886 C2888 1.381 . S
C2886 C2892 1.383 . S
C2887 C2883 1.495 . S
C2887 H2893 0.959 . S
C2887 H2894 0.961 . S
C2887 H2895 0.960 . S
C2888 C2886 1.381 . S
C2888 C2889 1.394 . S
C2888 H2896 0.930 1_655 S
C2889 C2888 1.394 . S
C2889 C2890 1.383 . S
C2889 H2897 0.929 1_655 S
C2890 C2889 1.383 . S
C2890 C2891 1.377 . S
C2891 H2875 0.930 . S
C2891 C2890 1.377 . S
C2891 C2892 1.379 . S
C2892 H2876 0.931 . S
C2892 C2886 1.383 . S
C2892 C2891 1.379 . S
H2893 C2887 0.959 . S
H2894 C2887 0.961 . S
H2895 C2887 0.960 . S
H2896 C2888 0.930 1_455 S
H2897 C2889 0.929 1_455 S
H2898 C2906 0.929 . S
H2899 C2908 0.930 . S
H2900 C2910 0.930 . S
H2901 C2913 0.929 . S
H2902 C2916 0.930 . S
H2903 C2918 0.960 . S
H2904 C2918 0.960 . S
H2905 C2918 0.960 . S
C2906 H2898 0.929 . S
C2906 C2907 1.377 . S
C2906 C2908 1.384 . S
C2907 C2906 1.377 . S
C2907 C2913 1.390 . S
C2908 H2899 0.930 . S
C2908 C2906 1.384 . S
C2908 C2909 1.372 . S
C2909 C2908 1.372 . S
C2909 C2910 1.400 . S
C2909 C2914 1.490 . S
C2910 H2900 0.930 . S
C2910 C2909 1.400 . S
C2910 C2913 1.386 . S
H2911 C2927 0.930 . S
H2912 C2928 0.931 . S
C2913 H2901 0.929 . S
C2913 C2907 1.390 . S
C2913 C2910 1.386 . S
C2914 C2909 1.490 . S
C2914 C2916 1.395 . S
C2914 C2917 1.403 . S
H2915 C2921 0.930 . S
C2916 H2902 0.930 . S
C2916 C2914 1.395 . S
C2916 C2919 1.403 . S
C2917 C2914 1.403 . S
C2917 C2918 1.524 . S
C2917 C2921 1.400 . S
C2918 H2903 0.960 . S
C2918 H2904 0.960 . S
C2918 H2905 0.960 . S
C2918 C2917 1.524 . S
C2919 C2916 1.403 . S
C2919 C2920 1.392 . S
C2919 C2923 1.495 . S
C2920 C2919 1.392 . S
C2920 C2921 1.385 . S
C2920 C2922 1.478 . S
C2921 H2915 0.930 . S
C2921 C2917 1.400 . S
C2921 C2920 1.385 . S
C2922 C2920 1.478 . S
C2922 C2924 1.381 . S
C2922 C2928 1.383 . S
C2923 C2919 1.495 . S
C2923 H2929 0.959 . S
C2923 H2930 0.961 . S
C2923 H2931 0.960 . S
C2924 C2922 1.381 . S
C2924 C2925 1.394 . S
C2924 H2932 0.930 . S
C2925 C2924 1.394 . S
C2925 C2926 1.383 . S
C2925 H2933 0.929 . S
C2926 C2925 1.383 . S
C2926 C2927 1.377 . S
C2927 H2911 0.930 . S
C2927 C2926 1.377 . S
C2927 C2928 1.379 . S
C2928 H2912 0.931 . S
C2928 C2922 1.383 . S
C2928 C2927 1.379 . S
H2929 C2923 0.959 . S
H2930 C2923 0.961 . S
H2931 C2923 0.960 . S
H2932 C2924 0.930 . S
H2933 C2925 0.929 . S
H2934 C2942 0.929 . S
H2935 C2944 0.930 . S
H2936 C2946 0.930 . S
H2937 C2949 0.929 . S
H2938 C2952 0.930 . S
H2939 C2954 0.960 . S
H2940 C2954 0.960 . S
H2941 C2954 0.960 . S
C2942 H2934 0.929 . S
C2942 C2943 1.377 . S
C2942 C2944 1.384 . S
C2943 C2942 1.377 . S
C2943 C2949 1.390 . S
C2944 H2935 0.930 . S
C2944 C2942 1.384 . S
C2944 C2945 1.372 . S
C2945 C2944 1.372 . S
C2945 C2946 1.400 . S
C2945 C2950 1.490 . S
C2946 H2936 0.930 . S
C2946 C2945 1.400 . S
C2946 C2949 1.386 . S
H2947 C2963 0.930 . S
H2948 C2964 0.931 . S
C2949 H2937 0.929 . S
C2949 C2943 1.390 . S
C2949 C2946 1.386 . S
C2950 C2945 1.490 . S
C2950 C2952 1.395 . S
C2950 C2953 1.403 . S
H2951 C2957 0.930 . S
C2952 H2938 0.930 . S
C2952 C2950 1.395 . S
C2952 C2955 1.403 . S
C2953 C2950 1.403 . S
C2953 C2954 1.524 . S
C2953 C2957 1.400 . S
C2954 H2939 0.960 . S
C2954 H2940 0.960 . S
C2954 H2941 0.960 . S
C2954 C2953 1.524 . S
C2955 C2952 1.403 . S
C2955 C2956 1.392 . S
C2955 C2959 1.495 . S
C2956 C2955 1.392 . S
C2956 C2957 1.385 . S
C2956 C2958 1.478 . S
C2957 H2951 0.930 . S
C2957 C2953 1.400 . S
C2957 C2956 1.385 . S
C2958 C2956 1.478 . S
C2958 C2960 1.381 . S
C2958 C2964 1.383 . S
C2959 C2955 1.495 . S
C2959 H2965 0.959 . S
C2959 H2966 0.961 . S
C2959 H2967 0.960 . S
C2960 C2958 1.381 . S
C2960 C2961 1.394 . S
C2960 H2968 0.930 . S
C2961 C2960 1.394 . S
C2961 C2962 1.383 . S
C2961 H2969 0.929 . S
C2962 C2961 1.383 . S
C2962 C2963 1.377 . S
C2963 H2947 0.930 . S
C2963 C2962 1.377 . S
C2963 C2964 1.379 . S
C2964 H2948 0.931 . S
C2964 C2958 1.383 . S
C2964 C2963 1.379 . S
H2965 C2959 0.959 . S
H2966 C2959 0.961 . S
H2967 C2959 0.960 . S
H2968 C2960 0.930 . S
H2969 C2961 0.929 . S
H2970 C2978 0.929 . S
H2971 C2980 0.930 . S
H2972 C2982 0.930 . S
H2973 C2985 0.929 . S
H2974 C2988 0.930 . S
H2975 C2990 0.960 . S
H2976 C2990 0.960 . S
H2977 C2990 0.960 . S
C2978 H2970 0.929 . S
C2978 C2979 1.377 . S
C2978 C2980 1.384 . S
C2979 C2978 1.377 . S
C2979 C2985 1.390 . S
C2980 H2971 0.930 . S
C2980 C2978 1.384 . S
C2980 C2981 1.372 . S
C2981 C2980 1.372 . S
C2981 C2982 1.400 . S
C2981 C2986 1.490 . S
C2982 H2972 0.930 . S
C2982 C2981 1.400 . S
C2982 C2985 1.386 . S
H2983 C2999 0.930 . S
H2984 C3000 0.931 . S
C2985 H2973 0.929 . S
C2985 C2979 1.390 . S
C2985 C2982 1.386 . S
C2986 C2981 1.490 . S
C2986 C2988 1.395 . S
C2986 C2989 1.403 . S
H2987 C2993 0.930 . S
C2988 H2974 0.930 . S
C2988 C2986 1.395 . S
C2988 C2991 1.403 . S
C2989 C2986 1.403 . S
C2989 C2990 1.524 . S
C2989 C2993 1.400 . S
C2990 H2975 0.960 . S
C2990 H2976 0.960 . S
C2990 H2977 0.960 . S
C2990 C2989 1.524 . S
C2991 C2988 1.403 . S
C2991 C2992 1.392 . S
C2991 C2995 1.495 . S
C2992 C2991 1.392 . S
C2992 C2993 1.385 . S
C2992 C2994 1.478 . S
C2993 H2987 0.930 . S
C2993 C2989 1.400 . S
C2993 C2992 1.385 . S
C2994 C2992 1.478 . S
C2994 C2996 1.381 . S
C2994 C3000 1.383 . S
C2995 C2991 1.495 . S
C2995 H3001 0.959 . S
C2995 H3002 0.961 . S
C2995 H3003 0.960 . S
C2996 C2994 1.381 . S
C2996 C2997 1.394 . S
C2996 H3004 0.930 . S
C2997 C2996 1.394 . S
C2997 C2998 1.383 . S
C2997 H3005 0.929 . S
C2998 C2997 1.383 . S
C2998 C2999 1.377 . S
C2999 H2983 0.930 . S
C2999 C2998 1.377 . S
C2999 C3000 1.379 . S
C3000 H2984 0.931 . S
C3000 C2994 1.383 . S
C3000 C2999 1.379 . S
H3001 C2995 0.959 . S
H3002 C2995 0.961 . S
H3003 C2995 0.960 . S
H3004 C2996 0.930 . S
H3005 C2997 0.929 . S
H3006 C3014 0.929 . S
H3007 C3016 0.930 . S
H3008 C3018 0.930 . S
H3009 C3021 0.929 . S
H3010 C3024 0.930 . S
H3011 C3026 0.960 . S
H3012 C3026 0.960 . S
H3013 C3026 0.960 . S
C3014 H3006 0.929 . S
C3014 C3015 1.377 . S
C3014 C3016 1.384 . S
C3015 C3014 1.377 . S
C3015 C3021 1.390 . S
C3016 H3007 0.930 . S
C3016 C3014 1.384 . S
C3016 C3017 1.372 . S
C3017 C3016 1.372 . S
C3017 C3018 1.400 . S
C3017 C3022 1.490 . S
C3018 H3008 0.930 . S
C3018 C3017 1.400 . S
C3018 C3021 1.386 . S
H3019 C3035 0.930 . S
H3020 C3036 0.931 . S
C3021 H3009 0.929 . S
C3021 C3015 1.390 . S
C3021 C3018 1.386 . S
C3022 C3017 1.490 . S
C3022 C3024 1.395 . S
C3022 C3025 1.403 . S
H3023 C3029 0.930 . S
C3024 H3010 0.930 . S
C3024 C3022 1.395 . S
C3024 C3027 1.403 . S
C3025 C3022 1.403 . S
C3025 C3026 1.524 . S
C3025 C3029 1.400 . S
C3026 H3011 0.960 . S
C3026 H3012 0.960 . S
C3026 H3013 0.960 . S
C3026 C3025 1.524 . S
C3027 C3024 1.403 . S
C3027 C3028 1.392 . S
C3027 C3031 1.495 . S
C3028 C3027 1.392 . S
C3028 C3029 1.385 . S
C3028 C3030 1.478 . S
C3029 H3023 0.930 . S
C3029 C3025 1.400 . S
C3029 C3028 1.385 . S
C3030 C3028 1.478 . S
C3030 C3032 1.381 . S
C3030 C3036 1.383 . S
C3031 C3027 1.495 . S
C3031 H3037 0.959 . S
C3031 H3038 0.961 . S
C3031 H3039 0.960 . S
C3032 C3030 1.381 . S
C3032 C3033 1.394 . S
C3032 H3040 0.930 . S
C3033 C3032 1.394 . S
C3033 C3034 1.383 . S
C3033 H3041 0.929 . S
C3034 C3033 1.383 . S
C3034 C3035 1.377 . S
C3035 H3019 0.930 . S
C3035 C3034 1.377 . S
C3035 C3036 1.379 . S
C3036 H3020 0.931 . S
C3036 C3030 1.383 . S
C3036 C3035 1.379 . S
H3037 C3031 0.959 . S
H3038 C3031 0.961 . S
H3039 C3031 0.960 . S
H3040 C3032 0.930 . S
H3041 C3033 0.929 . S
H3042 C3050 0.929 . S
H3043 C3052 0.930 . S
H3044 C3054 0.930 . S
H3045 C3057 0.929 . S
H3046 C3060 0.930 . S
H3047 C3062 0.960 . S
H3048 C3062 0.960 . S
H3049 C3062 0.960 . S
C3050 H3042 0.929 . S
C3050 C3051 1.377 . S
C3050 C3052 1.384 . S
C3051 C3050 1.377 . S
C3051 C3057 1.390 . S
C3052 H3043 0.930 . S
C3052 C3050 1.384 . S
C3052 C3053 1.372 . S
C3053 C3052 1.372 . S
C3053 C3054 1.400 . S
C3053 C3058 1.490 . S
C3054 H3044 0.930 . S
C3054 C3053 1.400 . S
C3054 C3057 1.386 . S
H3055 C3071 0.930 . S
H3056 C3072 0.931 . S
C3057 H3045 0.929 . S
C3057 C3051 1.390 . S
C3057 C3054 1.386 . S
C3058 C3053 1.490 . S
C3058 C3060 1.395 . S
C3058 C3061 1.403 . S
H3059 C3065 0.930 . S
C3060 H3046 0.930 . S
C3060 C3058 1.395 . S
C3060 C3063 1.403 . S
C3061 C3058 1.403 . S
C3061 C3062 1.524 . S
C3061 C3065 1.400 . S
C3062 H3047 0.960 . S
C3062 H3048 0.960 . S
C3062 H3049 0.960 . S
C3062 C3061 1.524 . S
C3063 C3060 1.403 . S
C3063 C3064 1.392 . S
C3063 C3067 1.495 . S
C3064 C3063 1.392 . S
C3064 C3065 1.385 . S
C3064 C3066 1.478 . S
C3065 H3059 0.930 . S
C3065 C3061 1.400 . S
C3065 C3064 1.385 . S
C3066 C3064 1.478 . S
C3066 C3068 1.381 . S
C3066 C3072 1.383 . S
C3067 C3063 1.495 . S
C3067 H3073 0.959 . S
C3067 H3074 0.961 . S
C3067 H3075 0.960 . S
C3068 C3066 1.381 . S
C3068 C3069 1.394 . S
C3068 H3076 0.930 . S
C3069 C3068 1.394 . S
C3069 C3070 1.383 . S
C3069 H3077 0.929 . S
C3070 C3069 1.383 . S
C3070 C3071 1.377 . S
C3071 H3055 0.930 . S
C3071 C3070 1.377 . S
C3071 C3072 1.379 . S
C3072 H3056 0.931 . S
C3072 C3066 1.383 . S
C3072 C3071 1.379 . S
H3073 C3067 0.959 . S
H3074 C3067 0.961 . S
H3075 C3067 0.960 . S
H3076 C3068 0.930 . S
H3077 C3069 0.929 . S
H3078 C3086 0.929 . S
H3079 C3088 0.930 . S
H3080 C3090 0.930 . S
H3081 C3093 0.929 . S
H3082 C3096 0.930 . S
H3083 C3098 0.960 . S
H3084 C3098 0.960 . S
H3085 C3098 0.960 . S
C3086 H3078 0.929 . S
C3086 C3087 1.377 . S
C3086 C3088 1.384 . S
C3087 C3086 1.377 . S
C3087 C3093 1.390 . S
C3088 H3079 0.930 . S
C3088 C3086 1.384 . S
C3088 C3089 1.372 . S
C3089 C3088 1.372 . S
C3089 C3090 1.400 . S
C3089 C3094 1.490 . S
C3090 H3080 0.930 . S
C3090 C3089 1.400 . S
C3090 C3093 1.386 . S
H3091 C3107 0.930 . S
H3092 C3108 0.931 . S
C3093 H3081 0.929 . S
C3093 C3087 1.390 . S
C3093 C3090 1.386 . S
C3094 C3089 1.490 . S
C3094 C3096 1.395 . S
C3094 C3097 1.403 . S
H3095 C3101 0.930 . S
C3096 H3082 0.930 . S
C3096 C3094 1.395 . S
C3096 C3099 1.403 . S
C3097 C3094 1.403 . S
C3097 C3098 1.524 . S
C3097 C3101 1.400 . S
C3098 H3083 0.960 . S
C3098 H3084 0.960 . S
C3098 H3085 0.960 . S
C3098 C3097 1.524 . S
C3099 C3096 1.403 . S
C3099 C3100 1.392 . S
C3099 C3103 1.495 . S
C3100 C3099 1.392 . S
C3100 C3101 1.385 . S
C3100 C3102 1.478 . S
C3101 H3095 0.930 . S
C3101 C3097 1.400 . S
C3101 C3100 1.385 . S
C3102 C3100 1.478 . S
C3102 C3104 1.381 . S
C3102 C3108 1.383 . S
C3103 C3099 1.495 . S
C3103 H3109 0.959 . S
C3103 H3110 0.961 . S
C3103 H3111 0.960 . S
C3104 C3102 1.381 . S
C3104 C3105 1.394 . S
C3104 H3112 0.930 . S
C3105 C3104 1.394 . S
C3105 C3106 1.383 . S
C3105 H3113 0.929 . S
C3106 C3105 1.383 . S
C3106 C3107 1.377 . S
C3107 H3091 0.930 . S
C3107 C3106 1.377 . S
C3107 C3108 1.379 . S
C3108 H3092 0.931 . S
C3108 C3102 1.383 . S
C3108 C3107 1.379 . S
H3109 C3103 0.959 . S
H3110 C3103 0.961 . S
H3111 C3103 0.960 . S
H3112 C3104 0.930 . S
H3113 C3105 0.929 . S
H3114 C3122 0.929 . S
H3115 C3124 0.930 . S
H3116 C3126 0.930 . S
H3117 C3129 0.929 . S
H3118 C3132 0.930 . S
H3119 C3134 0.960 . S
H3120 C3134 0.960 . S
H3121 C3134 0.960 . S
C3122 H3114 0.929 . S
C3122 C3123 1.377 . S
C3122 C3124 1.384 . S
C3123 C3122 1.377 . S
C3123 C3129 1.390 . S
C3124 H3115 0.930 . S
C3124 C3122 1.384 . S
C3124 C3125 1.372 . S
C3125 C3124 1.372 . S
C3125 C3126 1.400 . S
C3125 C3130 1.490 . S
C3126 H3116 0.930 . S
C3126 C3125 1.400 . S
C3126 C3129 1.386 . S
H3127 C3143 0.930 . S
H3128 C3144 0.931 . S
C3129 H3117 0.929 . S
C3129 C3123 1.390 . S
C3129 C3126 1.386 . S
C3130 C3125 1.490 . S
C3130 C3132 1.395 . S
C3130 C3133 1.403 . S
H3131 C3137 0.930 . S
C3132 H3118 0.930 . S
C3132 C3130 1.395 . S
C3132 C3135 1.403 . S
C3133 C3130 1.403 . S
C3133 C3134 1.524 . S
C3133 C3137 1.400 . S
C3134 H3119 0.960 . S
C3134 H3120 0.960 . S
C3134 H3121 0.960 . S
C3134 C3133 1.524 . S
C3135 C3132 1.403 . S
C3135 C3136 1.392 . S
C3135 C3139 1.495 . S
C3136 C3135 1.392 . S
C3136 C3137 1.385 . S
C3136 C3138 1.478 . S
C3137 H3131 0.930 . S
C3137 C3133 1.400 . S
C3137 C3136 1.385 . S
C3138 C3136 1.478 . S
C3138 C3140 1.381 . S
C3138 C3144 1.383 . S
C3139 C3135 1.495 . S
C3139 H3145 0.959 . S
C3139 H3146 0.961 . S
C3139 H3147 0.960 . S
C3140 C3138 1.381 . S
C3140 C3141 1.394 . S
C3140 H3148 0.930 . S
C3141 C3140 1.394 . S
C3141 C3142 1.383 . S
C3141 H3149 0.929 . S
C3142 C3141 1.383 . S
C3142 C3143 1.377 . S
C3143 H3127 0.930 . S
C3143 C3142 1.377 . S
C3143 C3144 1.379 . S
C3144 H3128 0.931 . S
C3144 C3138 1.383 . S
C3144 C3143 1.379 . S
H3145 C3139 0.959 . S
H3146 C3139 0.961 . S
H3147 C3139 0.960 . S
H3148 C3140 0.930 . S
H3149 C3141 0.929 . S
H3150 C3158 0.929 . S
H3151 C3160 0.930 . S
H3152 C3162 0.930 . S
H3153 C3165 0.929 . S
H3154 C3168 0.930 . S
H3155 C3170 0.960 . S
H3156 C3170 0.960 . S
H3157 C3170 0.960 . S
C3158 H3150 0.929 . S
C3158 C3159 1.377 . S
C3158 C3160 1.384 . S
C3159 C3158 1.377 . S
C3159 C3165 1.390 . S
C3160 H3151 0.930 . S
C3160 C3158 1.384 . S
C3160 C3161 1.372 . S
C3161 C3160 1.372 . S
C3161 C3162 1.400 . S
C3161 C3166 1.490 . S
C3162 H3152 0.930 . S
C3162 C3161 1.400 . S
C3162 C3165 1.386 . S
H3163 C3179 0.930 . S
H3164 C3180 0.931 . S
C3165 H3153 0.929 . S
C3165 C3159 1.390 . S
C3165 C3162 1.386 . S
C3166 C3161 1.490 . S
C3166 C3168 1.395 . S
C3166 C3169 1.403 . S
H3167 C3173 0.930 . S
C3168 H3154 0.930 . S
C3168 C3166 1.395 . S
C3168 C3171 1.403 . S
C3169 C3166 1.403 . S
C3169 C3170 1.524 . S
C3169 C3173 1.400 . S
C3170 H3155 0.960 . S
C3170 H3156 0.960 . S
C3170 H3157 0.960 . S
C3170 C3169 1.524 . S
C3171 C3168 1.403 . S
C3171 C3172 1.392 . S
C3171 C3175 1.495 . S
C3172 C3171 1.392 . S
C3172 C3173 1.385 . S
C3172 C3174 1.478 . S
C3173 H3167 0.930 . S
C3173 C3169 1.400 . S
C3173 C3172 1.385 . S
C3174 C3172 1.478 . S
C3174 C3176 1.381 . S
C3174 C3180 1.383 . S
C3175 C3171 1.495 . S
C3175 H3181 0.959 . S
C3175 H3182 0.961 . S
C3175 H3183 0.960 . S
C3176 C3174 1.381 . S
C3176 C3177 1.394 . S
C3176 H3184 0.930 . S
C3177 C3176 1.394 . S
C3177 C3178 1.383 . S
C3177 H3185 0.929 . S
C3178 C3177 1.383 . S
C3178 C3179 1.377 . S
C3179 H3163 0.930 . S
C3179 C3178 1.377 . S
C3179 C3180 1.379 . S
C3180 H3164 0.931 . S
C3180 C3174 1.383 . S
C3180 C3179 1.379 . S
H3181 C3175 0.959 . S
H3182 C3175 0.961 . S
H3183 C3175 0.960 . S
H3184 C3176 0.930 . S
H3185 C3177 0.929 . S
H3186 C3194 0.929 . S
H3187 C3196 0.930 . S
H3188 C3198 0.930 . S
H3189 C3201 0.929 . S
H3190 C3204 0.930 . S
H3191 C3206 0.960 . S
H3192 C3206 0.960 . S
H3193 C3206 0.960 . S
C3194 H3186 0.929 . S
C3194 C3195 1.377 . S
C3194 C3196 1.384 . S
C3195 C3194 1.377 . S
C3195 C3201 1.390 . S
C3196 H3187 0.930 . S
C3196 C3194 1.384 . S
C3196 C3197 1.372 . S
C3197 C3196 1.372 . S
C3197 C3198 1.400 . S
C3197 C3202 1.490 . S
C3198 H3188 0.930 . S
C3198 C3197 1.400 . S
C3198 C3201 1.386 . S
H3199 C3215 0.930 . S
H3200 C3216 0.931 . S
C3201 H3189 0.929 . S
C3201 C3195 1.390 . S
C3201 C3198 1.386 . S
C3202 C3197 1.490 . S
C3202 C3204 1.395 . S
C3202 C3205 1.403 . S
H3203 C3209 0.930 . S
C3204 H3190 0.930 . S
C3204 C3202 1.395 . S
C3204 C3207 1.403 . S
C3205 C3202 1.403 . S
C3205 C3206 1.524 . S
C3205 C3209 1.400 . S
C3206 H3191 0.960 . S
C3206 H3192 0.960 . S
C3206 H3193 0.960 . S
C3206 C3205 1.524 . S
C3207 C3204 1.403 . S
C3207 C3208 1.392 . S
C3207 C3211 1.495 . S
C3208 C3207 1.392 . S
C3208 C3209 1.385 . S
C3208 C3210 1.478 . S
C3209 H3203 0.930 . S
C3209 C3205 1.400 . S
C3209 C3208 1.385 . S
C3210 C3208 1.478 . S
C3210 C3212 1.381 . S
C3210 C3216 1.383 . S
C3211 C3207 1.495 . S
C3211 H3217 0.959 . S
C3211 H3218 0.961 . S
C3211 H3219 0.960 . S
C3212 C3210 1.381 . S
C3212 C3213 1.394 . S
C3212 H3220 0.930 . S
C3213 C3212 1.394 . S
C3213 C3214 1.383 . S
C3213 H3221 0.929 . S
C3214 C3213 1.383 . S
C3214 C3215 1.377 . S
C3215 H3199 0.930 . S
C3215 C3214 1.377 . S
C3215 C3216 1.379 . S
C3216 H3200 0.931 . S
C3216 C3210 1.383 . S
C3216 C3215 1.379 . S
H3217 C3211 0.959 . S
H3218 C3211 0.961 . S
H3219 C3211 0.960 . S
H3220 C3212 0.930 . S
H3221 C3213 0.929 . S
H3222 C3230 0.929 . S
H3223 C3232 0.930 . S
H3224 C3234 0.930 . S
H3225 C3237 0.929 . S
H3226 C3240 0.930 . S
H3227 C3242 0.960 . S
H3228 C3242 0.960 . S
H3229 C3242 0.960 . S
C3230 H3222 0.929 . S
C3230 C3231 1.377 . S
C3230 C3232 1.384 . S
C3231 C3230 1.377 . S
C3231 C3237 1.390 . S
C3232 H3223 0.930 . S
C3232 C3230 1.384 . S
C3232 C3233 1.372 . S
C3233 C3232 1.372 . S
C3233 C3234 1.400 . S
C3233 C3238 1.490 . S
C3234 H3224 0.930 . S
C3234 C3233 1.400 . S
C3234 C3237 1.386 . S
H3235 C3251 0.930 . S
H3236 C3252 0.931 . S
C3237 H3225 0.929 . S
C3237 C3231 1.390 . S
C3237 C3234 1.386 . S
C3238 C3233 1.490 . S
C3238 C3240 1.395 . S
C3238 C3241 1.403 . S
H3239 C3245 0.930 . S
C3240 H3226 0.930 . S
C3240 C3238 1.395 . S
C3240 C3243 1.403 . S
C3241 C3238 1.403 . S
C3241 C3242 1.524 . S
C3241 C3245 1.400 . S
C3242 H3227 0.960 . S
C3242 H3228 0.960 . S
C3242 H3229 0.960 . S
C3242 C3241 1.524 . S
C3243 C3240 1.403 . S
C3243 C3244 1.392 . S
C3243 C3247 1.495 . S
C3244 C3243 1.392 . S
C3244 C3245 1.385 . S
C3244 C3246 1.478 . S
C3245 H3239 0.930 . S
C3245 C3241 1.400 . S
C3245 C3244 1.385 . S
C3246 C3244 1.478 . S
C3246 C3248 1.381 . S
C3246 C3252 1.383 . S
C3247 C3243 1.495 . S
C3247 H3253 0.959 . S
C3247 H3254 0.961 . S
C3247 H3255 0.960 . S
C3248 C3246 1.381 . S
C3248 C3249 1.394 . S
C3248 H3256 0.930 . S
C3249 C3248 1.394 . S
C3249 C3250 1.383 . S
C3249 H3257 0.929 . S
C3250 C3249 1.383 . S
C3250 C3251 1.377 . S
C3251 H3235 0.930 . S
C3251 C3250 1.377 . S
C3251 C3252 1.379 . S
C3252 H3236 0.931 . S
C3252 C3246 1.383 . S
C3252 C3251 1.379 . S
H3253 C3247 0.959 . S
H3254 C3247 0.961 . S
H3255 C3247 0.960 . S
H3256 C3248 0.930 . S
H3257 C3249 0.929 . S
H3258 C3266 0.929 . S
H3259 C3268 0.930 . S
H3260 C3270 0.930 . S
H3261 C3273 0.929 . S
H3262 C3276 0.930 . S
H3263 C3278 0.960 . S
H3264 C3278 0.960 . S
H3265 C3278 0.960 . S
C3266 H3258 0.929 . S
C3266 C3267 1.377 . S
C3266 C3268 1.384 . S
C3267 C3266 1.377 . S
C3267 C3273 1.390 . S
C3268 H3259 0.930 . S
C3268 C3266 1.384 . S
C3268 C3269 1.372 . S
C3269 C3268 1.372 . S
C3269 C3270 1.400 . S
C3269 C3274 1.490 . S
C3270 H3260 0.930 . S
C3270 C3269 1.400 . S
C3270 C3273 1.386 . S
H3271 C3287 0.930 . S
H3272 C3288 0.931 . S
C3273 H3261 0.929 . S
C3273 C3267 1.390 . S
C3273 C3270 1.386 . S
C3274 C3269 1.490 . S
C3274 C3276 1.395 . S
C3274 C3277 1.403 . S
H3275 C3281 0.930 . S
C3276 H3262 0.930 . S
C3276 C3274 1.395 . S
C3276 C3279 1.403 . S
C3277 C3274 1.403 . S
C3277 C3278 1.524 . S
C3277 C3281 1.400 . S
C3278 H3263 0.960 . S
C3278 H3264 0.960 . S
C3278 H3265 0.960 . S
C3278 C3277 1.524 . S
C3279 C3276 1.403 . S
C3279 C3280 1.392 . S
C3279 C3283 1.495 . S
C3280 C3279 1.392 . S
C3280 C3281 1.385 . S
C3280 C3282 1.478 . S
C3281 H3275 0.930 . S
C3281 C3277 1.400 . S
C3281 C3280 1.385 . S
C3282 C3280 1.478 . S
C3282 C3284 1.381 . S
C3282 C3288 1.383 . S
C3283 C3279 1.495 . S
C3283 H3289 0.959 . S
C3283 H3290 0.961 . S
C3283 H3291 0.960 . S
C3284 C3282 1.381 . S
C3284 C3285 1.394 . S
C3284 H3292 0.930 . S
C3285 C3284 1.394 . S
C3285 C3286 1.383 . S
C3285 H3293 0.929 . S
C3286 C3285 1.383 . S
C3286 C3287 1.377 . S
C3287 H3271 0.930 . S
C3287 C3286 1.377 . S
C3287 C3288 1.379 . S
C3288 H3272 0.931 . S
C3288 C3282 1.383 . S
C3288 C3287 1.379 . S
H3289 C3283 0.959 . S
H3290 C3283 0.961 . S
H3291 C3283 0.960 . S
H3292 C3284 0.930 . S
H3293 C3285 0.929 . S
H3294 C3302 0.929 . S
H3295 C3304 0.930 . S
H3296 C3306 0.930 . S
H3297 C3309 0.929 . S
H3298 C3312 0.930 . S
H3299 C3314 0.960 . S
H3300 C3314 0.960 . S
H3301 C3314 0.960 . S
C3302 H3294 0.929 . S
C3302 C3303 1.377 . S
C3302 C3304 1.384 . S
C3303 C3302 1.377 . S
C3303 C3309 1.390 . S
C3304 H3295 0.930 . S
C3304 C3302 1.384 . S
C3304 C3305 1.372 . S
C3305 C3304 1.372 . S
C3305 C3306 1.400 . S
C3305 C3310 1.490 . S
C3306 H3296 0.930 . S
C3306 C3305 1.400 . S
C3306 C3309 1.386 . S
H3307 C3323 0.930 . S
H3308 C3324 0.931 . S
C3309 H3297 0.929 . S
C3309 C3303 1.390 . S
C3309 C3306 1.386 . S
C3310 C3305 1.490 . S
C3310 C3312 1.395 . S
C3310 C3313 1.403 . S
H3311 C3317 0.930 . S
C3312 H3298 0.930 . S
C3312 C3310 1.395 . S
C3312 C3315 1.403 . S
C3313 C3310 1.403 . S
C3313 C3314 1.524 . S
C3313 C3317 1.400 . S
C3314 H3299 0.960 . S
C3314 H3300 0.960 . S
C3314 H3301 0.960 . S
C3314 C3313 1.524 . S
C3315 C3312 1.403 . S
C3315 C3316 1.392 . S
C3315 C3319 1.495 . S
C3316 C3315 1.392 . S
C3316 C3317 1.385 . S
C3316 C3318 1.478 . S
C3317 H3311 0.930 . S
C3317 C3313 1.400 . S
C3317 C3316 1.385 . S
C3318 C3316 1.478 . S
C3318 C3320 1.381 . S
C3318 C3324 1.383 . S
C3319 C3315 1.495 . S
C3319 H3325 0.959 . S
C3319 H3326 0.961 . S
C3319 H3327 0.960 . S
C3320 C3318 1.381 . S
C3320 C3321 1.394 . S
C3320 H3328 0.930 . S
C3321 C3320 1.394 . S
C3321 C3322 1.383 . S
C3321 H3329 0.929 . S
C3322 C3321 1.383 . S
C3322 C3323 1.377 . S
C3323 H3307 0.930 . S
C3323 C3322 1.377 . S
C3323 C3324 1.379 . S
C3324 H3308 0.931 . S
C3324 C3318 1.383 . S
C3324 C3323 1.379 . S
H3325 C3319 0.959 . S
H3326 C3319 0.961 . S
H3327 C3319 0.960 . S
H3328 C3320 0.930 . S
H3329 C3321 0.929 . S
H3330 C3338 0.929 . S
H3331 C3340 0.930 . S
H3332 C3342 0.930 . S
H3333 C3345 0.929 . S
H3334 C3348 0.930 . S
H3335 C3350 0.960 . S
H3336 C3350 0.960 . S
H3337 C3350 0.960 . S
C3338 H3330 0.929 . S
C3338 C3339 1.377 . S
C3338 C3340 1.384 . S
C3339 C3338 1.377 . S
C3339 C3345 1.390 . S
C3340 H3331 0.930 . S
C3340 C3338 1.384 . S
C3340 C3341 1.372 . S
C3341 C3340 1.372 . S
C3341 C3342 1.400 . S
C3341 C3346 1.490 . S
C3342 H3332 0.930 . S
C3342 C3341 1.400 . S
C3342 C3345 1.386 . S
H3343 C3359 0.930 . S
H3344 C3360 0.931 . S
C3345 H3333 0.929 . S
C3345 C3339 1.390 . S
C3345 C3342 1.386 . S
C3346 C3341 1.490 . S
C3346 C3348 1.395 . S
C3346 C3349 1.403 . S
H3347 C3353 0.930 . S
C3348 H3334 0.930 . S
C3348 C3346 1.395 . S
C3348 C3351 1.403 . S
C3349 C3346 1.403 . S
C3349 C3350 1.524 . S
C3349 C3353 1.400 . S
C3350 H3335 0.960 . S
C3350 H3336 0.960 . S
C3350 H3337 0.960 . S
C3350 C3349 1.524 . S
C3351 C3348 1.403 . S
C3351 C3352 1.392 . S
C3351 C3355 1.495 . S
C3352 C3351 1.392 . S
C3352 C3353 1.385 . S
C3352 C3354 1.478 . S
C3353 H3347 0.930 . S
C3353 C3349 1.400 . S
C3353 C3352 1.385 . S
C3354 C3352 1.478 . S
C3354 C3356 1.381 . S
C3354 C3360 1.383 . S
C3355 C3351 1.495 . S
C3355 H3361 0.959 . S
C3355 H3362 0.961 . S
C3355 H3363 0.960 . S
C3356 C3354 1.381 . S
C3356 C3357 1.394 . S
C3356 H3364 0.930 . S
C3357 C3356 1.394 . S
C3357 C3358 1.383 . S
C3357 H3365 0.929 . S
C3358 C3357 1.383 . S
C3358 C3359 1.377 . S
C3359 H3343 0.930 . S
C3359 C3358 1.377 . S
C3359 C3360 1.379 . S
C3360 H3344 0.931 . S
C3360 C3354 1.383 . S
C3360 C3359 1.379 . S
H3361 C3355 0.959 . S
H3362 C3355 0.961 . S
H3363 C3355 0.960 . S
H3364 C3356 0.930 . S
H3365 C3357 0.929 . S
H3366 C3374 0.929 . S
H3367 C3376 0.930 . S
H3368 C3378 0.930 . S
H3369 C3381 0.929 . S
H3370 C3384 0.930 . S
H3371 C3386 0.960 . S
H3372 C3386 0.960 . S
H3373 C3386 0.960 . S
C3374 H3366 0.929 . S
C3374 C3375 1.377 . S
C3374 C3376 1.384 . S
C3375 C3374 1.377 . S
C3375 C3381 1.390 . S
C3376 H3367 0.930 . S
C3376 C3374 1.384 . S
C3376 C3377 1.372 . S
C3377 C3376 1.372 . S
C3377 C3378 1.400 . S
C3377 C3382 1.490 . S
C3378 H3368 0.930 . S
C3378 C3377 1.400 . S
C3378 C3381 1.386 . S
H3379 C3395 0.930 . S
H3380 C3396 0.931 . S
C3381 H3369 0.929 . S
C3381 C3375 1.390 . S
C3381 C3378 1.386 . S
C3382 C3377 1.490 . S
C3382 C3384 1.395 . S
C3382 C3385 1.403 . S
H3383 C3389 0.930 . S
C3384 H3370 0.930 . S
C3384 C3382 1.395 . S
C3384 C3387 1.403 . S
C3385 C3382 1.403 . S
C3385 C3386 1.524 . S
C3385 C3389 1.400 . S
C3386 H3371 0.960 . S
C3386 H3372 0.960 . S
C3386 H3373 0.960 . S
C3386 C3385 1.524 . S
C3387 C3384 1.403 . S
C3387 C3388 1.392 . S
C3387 C3391 1.495 . S
C3388 C3387 1.392 . S
C3388 C3389 1.385 . S
C3388 C3390 1.478 . S
C3389 H3383 0.930 . S
C3389 C3385 1.400 . S
C3389 C3388 1.385 . S
C3390 C3388 1.478 . S
C3390 C3392 1.381 . S
C3390 C3396 1.383 . S
C3391 C3387 1.495 . S
C3391 H3397 0.959 . S
C3391 H3398 0.961 . S
C3391 H3399 0.960 . S
C3392 C3390 1.381 . S
C3392 C3393 1.394 . S
C3392 H3400 0.930 . S
C3393 C3392 1.394 . S
C3393 C3394 1.383 . S
C3393 H3401 0.929 . S
C3394 C3393 1.383 . S
C3394 C3395 1.377 . S
C3395 H3379 0.930 . S
C3395 C3394 1.377 . S
C3395 C3396 1.379 . S
C3396 H3380 0.931 . S
C3396 C3390 1.383 . S
C3396 C3395 1.379 . S
H3397 C3391 0.959 . S
H3398 C3391 0.961 . S
H3399 C3391 0.960 . S
H3400 C3392 0.930 . S
H3401 C3393 0.929 . S
C1467 C528 1.388 . S
C1486 C758 1.283 . S
C1503 C562 1.468 . S
C1522 C842 1.422 . S
C1539 C484 1.445 . S
C1558 C936 1.380 . S
C1575 C445 1.401 . S
C1594 C852 1.363 . S
C1630 C926 1.285 . S
C1611 C367 1.400 . S
C1647 C411 1.354 . S
C1666 C768 1.340 . S
C1702 C769 1.298 . S
C1683 C450 1.405 . S
C1738 C853 1.341 . S
C1719 C372 1.446 . S
C1755 C406 1.443 . S
C1774 C945 1.423 . S
C1791 C523 1.398 . S
C1810 C861 1.372 . S
C1827 C567 1.377 . S
C1846 C937 1.305 . S
C1882 C777 1.349 . S
C1863 C489 1.370 . S
C1918 C1010 1.322 . S
C1899 C60 1.388 . S
C1935 C94 1.468 . S
C1954 C1094 1.391 . S
C1971 C16 1.446 . S
C1990 C1188 1.408 . S
C2007 C679 1.401 . S
C2026 C1104 1.359 . S
C2043 C601 1.398 . S
C2062 C1178 1.328 . S
C2079 C645 1.355 . S
C2098 C1020 1.299 . S
C2115 C684 1.404 . S
C2134 C1021 1.301 . S
C2151 C606 1.449 . S
C2170 C1105 1.381 . S
C2206 C1197 1.406 . S
C2187 C640 1.444 . S
C2223 C55 1.400 . S
C2242 C1113 1.369 . S
C2278 C1189 1.299 . S
C2259 C99 1.378 . S
C2295 C21 1.373 . S
C2314 C1029 1.361 . S
C2350 C1262 1.325 . S
C2331 C294 1.388 . S
C2367 C328 1.468 . S
C2386 C1346 1.423 . S
C2422 C1440 1.416 . S
C2403 C250 1.445 . S
C2458 C1356 1.376 . S
C2439 C211 1.399 . S
C2494 C1430 1.349 . S
C2475 C133 1.399 . S
C2511 C177 1.352 . S
C2530 C1272 1.291 . S
C2547 C216 1.406 . S
C2566 C1273 1.325 . S
C2583 C138 1.449 . S
C2602 C1357 1.389 . S
C2638 C1449 1.402 . S
C2619 C172 1.441 . S
C2655 C289 1.397 . S
C2674 C1365 1.336 . S
C2691 C333 1.379 . S
C2710 C1441 1.337 . S
C2727 C255 1.369 . S
C2746 C1281 1.307 . S
C2763 C586 1.435 . S
C2782 C765 1.273 . S
C2818 C849 1.367 . S
C2799 C625 1.481 . S
C2835 C664 1.456 . S
C2854 C942 1.277 . S
C2871 C235 1.496 . S
C2890 C858 1.325 . S
C2907 C274 1.440 . S
C2926 C933 1.344 . S
C2962 C774 1.298 . S
C2943 C313 1.434 . S
C2979 C118 1.435 . S
C2998 C1017 1.281 . S
C3015 C157 1.480 . S
C3034 C1101 1.369 . S
C3051 C196 1.456 . S
C3070 C1194 1.351 . S
C3087 C469 1.497 . S
C3106 C1110 1.310 . S
C3142 C1185 1.350 . S
C3123 C508 1.440 . S
C3159 C547 1.434 . S
C3178 C1026 1.317 . S
C3195 C352 1.435 . S
C3214 C1269 1.353 . S
C3231 C391 1.479 . S
C3250 C1353 1.322 . S
C3286 C1446 1.360 . S
C3267 C430 1.456 . S
C3303 C1 1.496 . S
C3322 C1362 1.309 . S
C3339 C40 1.441 . S
C3358 C1437 1.345 . S
C3375 C79 1.434 . S
C3394 C1278 1.343 . S
