# Generated by pormake.
# Topology pto, (3,4)-cn, num edge types: 1
# Building blocks:
#     Node 0, Type 0, BuildingBlock: BETDIP_clean_linker_0, # of connection points: 3
#     Node 1, Type 0, BuildingBlock: BETDIP_clean_linker_0, # of connection points: 3
#     Node 2, Type 0, BuildingBlock: BETDIP_clean_linker_0, # of connection points: 3
#     Node 3, Type 0, BuildingBlock: BETDIP_clean_linker_0, # of connection points: 3
#     Node 4, Type 0, BuildingBlock: BETDIP_clean_linker_0, # of connection points: 3
#     Node 5, Type 0, BuildingBlock: BETDIP_clean_linker_0, # of connection points: 3
#     Node 6, Type 0, BuildingBlock: BETDIP_clean_linker_0, # of connection points: 3
#     Node 7, Type 0, BuildingBlock: BETDIP_clean_linker_0, # of connection points: 3
#     Node 8, Type 1, BuildingBlock: KOZSID_clean_sbu_0, # of connection points: 4
#     Node 9, Type 1, BuildingBlock: KOZSID_clean_sbu_0, # of connection points: 4
#     Node 10, Type 1, BuildingBlock: KOZSID_clean_sbu_0, # of connection points: 4
#     Node 11, Type 1, BuildingBlock: KOZSID_clean_sbu_0, # of connection points: 4
#     Node 12, Type 1, BuildingBlock: KOZSID_clean_sbu_0, # of connection points: 4
#     Node 13, Type 1, BuildingBlock: KOZSID_clean_sbu_0, # of connection points: 4
#     Edge 14, Type (0, 1), BuildingBlock: OJICUG_clean_linker_0, # of connection points: 2
#     Edge 15, Type (0, 1), BuildingBlock: OJICUG_clean_linker_0, # of connection points: 2
#     Edge 16, Type (0, 1), BuildingBlock: OJICUG_clean_linker_0, # of connection points: 2
#     Edge 17, Type (0, 1), BuildingBlock: OJICUG_clean_linker_0, # of connection points: 2
#     Edge 18, Type (0, 1), BuildingBlock: OJICUG_clean_linker_0, # of connection points: 2
#     Edge 19, Type (0, 1), BuildingBlock: OJICUG_clean_linker_0, # of connection points: 2
#     Edge 20, Type (0, 1), BuildingBlock: OJICUG_clean_linker_0, # of connection points: 2
#     Edge 21, Type (0, 1), BuildingBlock: OJICUG_clean_linker_0, # of connection points: 2
#     Edge 22, Type (0, 1), BuildingBlock: OJICUG_clean_linker_0, # of connection points: 2
#     Edge 23, Type (0, 1), BuildingBlock: OJICUG_clean_linker_0, # of connection points: 2
#     Edge 24, Type (0, 1), BuildingBlock: OJICUG_clean_linker_0, # of connection points: 2
#     Edge 25, Type (0, 1), BuildingBlock: OJICUG_clean_linker_0, # of connection points: 2
#     Edge 26, Type (0, 1), BuildingBlock: OJICUG_clean_linker_0, # of connection points: 2
#     Edge 27, Type (0, 1), BuildingBlock: OJICUG_clean_linker_0, # of connection points: 2
#     Edge 28, Type (0, 1), BuildingBlock: OJICUG_clean_linker_0, # of connection points: 2
#     Edge 29, Type (0, 1), BuildingBlock: OJICUG_clean_linker_0, # of connection points: 2
#     Edge 30, Type (0, 1), BuildingBlock: OJICUG_clean_linker_0, # of connection points: 2
#     Edge 31, Type (0, 1), BuildingBlock: OJICUG_clean_linker_0, # of connection points: 2
#     Edge 32, Type (0, 1), BuildingBlock: OJICUG_clean_linker_0, # of connection points: 2
#     Edge 33, Type (0, 1), BuildingBlock: OJICUG_clean_linker_0, # of connection points: 2
#     Edge 34, Type (0, 1), BuildingBlock: OJICUG_clean_linker_0, # of connection points: 2
#     Edge 35, Type (0, 1), BuildingBlock: OJICUG_clean_linker_0, # of connection points: 2
#     Edge 36, Type (0, 1), BuildingBlock: OJICUG_clean_linker_0, # of connection points: 2
#     Edge 37, Type (0, 1), BuildingBlock: OJICUG_clean_linker_0, # of connection points: 2
# Relax obj value: 0.011
# Max RMSD: 0.133
# Mean RMSD: 0.060
data_MOF--net-pto--node1-KOZSID_clean_sbu_0--node2-BETDIP_clean_linker_0--edge1-OJICUG_clean_linker_0
_symmetry_space_group_name_H-M    P1
_symmetry_Int_Tables_number       1
_symmetry_cell_setting            triclinic
loop_
_symmetry_equiv_pos_as_xyz
'x, y, z'
_cell_length_a     27.398947
_cell_length_b     38.42165
_cell_length_c     33.610638
_cell_angle_alpha  95.024215
_cell_angle_beta   102.44291
_cell_angle_gamma 109.55186
loop_
_atom_site_label
_atom_site_type_symbol
_atom_site_fract_x
_atom_site_fract_y
_atom_site_fract_z
_atom_type_partial_charge
H0 H 0.13486 0.3077 0.32576 0.0
H1 H 0.21825 0.2558 0.26053 0.0
H2 H 0.2222 0.36643 0.24456 0.0
H3 H 0.15808 0.20225 0.27111 0.0
C4 C 0.15706 0.21049 0.30258 0.0
C5 C 0.15897 0.30853 0.30391 0.0
C6 C 0.17627 0.3406 0.28592 0.0
C7 C 0.17334 0.2777 0.29468 0.0
C8 C 0.20583 0.2791 0.26724 0.0
C9 C 0.22344 0.31092 0.24881 0.0
C10 C 0.20843 0.34163 0.25829 0.0
N11 N 0.15731 0.24679 0.3155 0.0
H12 H 0.16076 0.78909 0.66875 0.0
H13 H 0.29905 0.88048 0.74507 0.0
H14 H 0.26211 0.76986 0.77464 0.0
H15 H 0.24971 0.91479 0.71931 0.0
C16 C 0.23274 0.90118 0.68714 0.0
C17 C 0.19557 0.79949 0.69515 0.0
C18 C 0.20792 0.77476 0.72042 0.0
C19 C 0.22778 0.83774 0.7039 0.0
C20 C 0.27292 0.85128 0.73835 0.0
C21 C 0.28572 0.82669 0.76357 0.0
C22 C 0.25318 0.78861 0.75433 0.0
N23 N 0.21479 0.86149 0.67668 0.0
H24 H 0.87531 0.82828 0.29814 0.0
H25 H 0.91304 0.86154 0.43008 0.0
H26 H 0.81113 0.90425 0.35 0.0
H27 H 0.94479 0.81615 0.43434 0.0
C28 C 0.94653 0.80448 0.40435 0.0
C29 C 0.87103 0.84416 0.32457 0.0
C30 C 0.83982 0.86677 0.31873 0.0
C31 C 0.89683 0.84139 0.36441 0.0
C32 C 0.89297 0.86275 0.39912 0.0
C33 C 0.86215 0.88568 0.39389 0.0
C34 C 0.83556 0.88711 0.35378 0.0
N35 N 0.9251 0.81622 0.36769 0.0
H36 H 0.70646 0.2443 0.84944 0.0
H37 H 0.7438 0.36327 0.87736 0.0
H38 H 0.8053 0.31873 0.7857 0.0
H39 H 0.74308 0.34244 0.94519 0.0
C40 C 0.70244 0.32212 0.93304 0.0
C41 C 0.72665 0.27244 0.84445 0.0
C42 C 0.75717 0.27808 0.81531 0.0
C43 C 0.72197 0.30309 0.86713 0.0
C44 C 0.74774 0.33957 0.86023 0.0
C45 C 0.77811 0.34551 0.831 0.0
C46 C 0.78244 0.31455 0.80866 0.0
N47 N 0.68974 0.29672 0.89568 0.0
H48 H 0.79525 0.81438 0.8643 0.0
H49 H 0.8436 0.86031 0.76071 0.0
H50 H 0.77702 0.91727 0.83746 0.0
H51 H 0.85127 0.80576 0.74286 0.0
C52 C 0.84995 0.79013 0.7682 0.0
C53 C 0.80019 0.83639 0.84572 0.0
C54 C 0.78415 0.8664 0.85528 0.0
C55 C 0.82073 0.83346 0.81144 0.0
C56 C 0.82654 0.86161 0.78668 0.0
C57 C 0.81118 0.89227 0.79609 0.0
C58 C 0.78985 0.8942 0.83035 0.0
N59 N 0.83481 0.80163 0.80351 0.0
H60 H 0.71558 0.26331 0.38181 0.0
H61 H 0.86428 0.33817 0.46553 0.0
H62 H 0.77702 0.37963 0.37122 0.0
H63 H 0.83149 0.29627 0.50967 0.0
C64 C 0.81652 0.26939 0.48915 0.0
C65 C 0.74576 0.29122 0.39275 0.0
C66 C 0.74071 0.32102 0.3731 0.0
C67 C 0.78892 0.29735 0.42716 0.0
C68 C 0.82921 0.33343 0.44048 0.0
C69 C 0.82474 0.36329 0.42046 0.0
C70 C 0.7799 0.3569 0.38747 0.0
N71 N 0.79132 0.2664 0.4467 0.0
H72 H 0.08629 0.30709 0.72287 0.0
H73 H 0.1889 0.26109 0.7983 0.0
H74 H 0.18291 0.36661 0.84461 0.0
H75 H 0.13123 0.20685 0.75828 0.0
C76 C 0.12486 0.21493 0.72797 0.0
C77 C 0.11515 0.30921 0.75153 0.0
C78 C 0.1317 0.34043 0.78318 0.0
C79 C 0.13462 0.28009 0.75685 0.0
C80 C 0.17181 0.28256 0.79408 0.0
C81 C 0.18913 0.31362 0.82576 0.0
C82 C 0.16922 0.34253 0.82013 0.0
N83 N 0.11826 0.24966 0.72357 0.0
H84 H 0.33282 0.88803 0.28357 0.0
H85 H 0.31054 0.77149 0.26135 0.0
H86 H 0.20739 0.80767 0.32116 0.0
H87 H 0.34617 0.88249 0.21668 0.0
C88 C 0.37181 0.86605 0.22016 0.0
C89 C 0.31024 0.85928 0.28506 0.0
C90 C 0.26992 0.85149 0.30629 0.0
C91 C 0.32312 0.83004 0.26728 0.0
C92 C 0.2978 0.79324 0.27304 0.0
C93 C 0.25641 0.78468 0.29333 0.0
C94 C 0.24139 0.81396 0.30793 0.0
N95 N 0.36206 0.83692 0.24409 0.0
C96 C 0.16842 0.62643 0.36409 0.0
C97 C 0.22035 0.64517 0.38863 0.0
C98 C 0.22155 0.63467 0.42647 0.0
C99 C 0.17067 0.60995 0.42271 0.0
N100 N 0.13737 0.60345 0.38452 0.0
Co101 Co 0.06059 0.56873 0.36497 0.0
N102 N 0.0608 0.55568 0.42151 0.0
C103 C 0.10135 0.57039 0.45637 0.0
C104 C 0.08997 0.5553 0.49029 0.0
C105 C 0.03939 0.52899 0.47616 0.0
C106 C 0.02297 0.52952 0.43428 0.0
N107 N 0.98406 0.53308 0.34521 0.0
C108 C 0.95388 0.50874 0.36514 0.0
C109 C 0.9037 0.48709 0.33925 0.0
C110 C 0.90236 0.49782 0.30155 0.0
C111 C 0.95159 0.52512 0.30642 0.0
N112 N 0.06019 0.58245 0.30861 0.0
C113 C 0.01863 0.5692 0.27425 0.0
C114 C 0.0286 0.5862 0.2412 0.0
C115 C 0.07916 0.61242 0.2554 0.0
C116 C 0.09747 0.60969 0.29646 0.0
N117 N 0.08435 0.52679 0.35061 0.0
C118 C 0.11636 0.46658 0.33001 0.0
C119 C 0.07601 0.47327 0.30236 0.0
C120 C 0.06113 0.50344 0.31302 0.0
C121 C 0.14078 0.49056 0.36812 0.0
C122 C 0.12387 0.52006 0.37791 0.0
N123 N 0.03695 0.61092 0.37891 0.0
C124 C 0.98005 0.64614 0.35839 0.0
C125 C 0.01037 0.67531 0.39154 0.0
C126 C 0.0527 0.67081 0.41966 0.0
C127 C 0.06515 0.63855 0.41285 0.0
C128 C 0.99376 0.6146 0.3528 0.0
H129 H 0.09842 0.63694 0.43491 0.0
H130 H 0.96928 0.59395 0.3265 0.0
H131 H 0.0306 0.50715 0.29029 0.0
H132 H 0.14304 0.53684 0.40783 0.0
C133 C 0.15167 0.59485 0.45515 0.0
C134 C 0.14893 0.63495 0.3236 0.0
C135 C 0.97218 0.50352 0.40755 0.0
C136 C 0.96939 0.54271 0.2748 0.0
H137 H 0.25313 0.66568 0.38051 0.0
H138 H 0.25488 0.64499 0.4539 0.0
H139 H 0.11619 0.56154 0.52119 0.0
H140 H 0.01758 0.51069 0.49427 0.0
H141 H 0.8718 0.46505 0.34641 0.0
H142 H 0.86995 0.48628 0.27359 0.0
H143 H 0.00151 0.58117 0.21085 0.0
H144 H 0.09919 0.63196 0.23762 0.0
H145 H 0.05634 0.45551 0.27232 0.0
H146 H 0.17198 0.4861 0.39062 0.0
H147 H 0.94582 0.64767 0.33644 0.0
H148 H 0.07717 0.69252 0.44608 0.0
C149 C 0.08683 0.62323 0.77521 0.0
C150 C 0.13052 0.64766 0.80602 0.0
C151 C 0.12152 0.63876 0.84285 0.0
C152 C 0.07303 0.60964 0.83254 0.0
N153 N 0.05104 0.59877 0.79123 0.0
Co154 Co 0.97907 0.55963 0.76252 0.0
N155 N 0.96346 0.54891 0.81677 0.0
C156 C 0.99522 0.56558 0.85518 0.0
C157 C 0.97492 0.55043 0.88626 0.0
C158 C 0.92803 0.52173 0.86654 0.0
C159 C 0.92258 0.52116 0.82447 0.0
N160 N 0.90671 0.52098 0.73391 0.0
C161 C 0.87095 0.49643 0.74988 0.0
C162 C 0.82629 0.473 0.71927 0.0
C163 C 0.83466 0.48261 0.68248 0.0
C164 C 0.88374 0.51123 0.69272 0.0
N165 N 0.99506 0.56982 0.70829 0.0
C166 C 0.96391 0.55225 0.66999 0.0
C167 C 0.98485 0.56656 0.63877 0.0
C168 C 0.03167 0.59544 0.65829 0.0
C169 C 0.0364 0.59705 0.70038 0.0
N170 N 0.01092 0.52014 0.76268 0.0
C171 C 0.05001 0.46096 0.76643 0.0
C172 C 0.01417 0.4623 0.73056 0.0
C173 C 0.99532 0.49197 0.72935 0.0
C174 C 0.06722 0.49038 0.79974 0.0
C175 C 0.04745 0.51935 0.79721 0.0
N176 N 0.94737 0.59921 0.76248 0.0
C177 C 0.89792 0.63362 0.72579 0.0
C178 C 0.90993 0.65926 0.76189 0.0
C179 C 0.94017 0.65391 0.7983 0.0
C180 C 0.95816 0.62402 0.79792 0.0
C181 C 0.91661 0.60389 0.72682 0.0
H182 H 0.98148 0.62203 0.82665 0.0
H183 H 0.90614 0.58529 0.69833 0.0
H184 H 0.96747 0.49118 0.7014 0.0
H185 H 0.06187 0.54051 0.82392 0.0
C186 C 0.04564 0.5935 0.86089 0.0
C187 C 0.07882 0.6264 0.73155 0.0
C188 C 0.88021 0.49196 0.79309 0.0
C189 C 0.91231 0.52591 0.66442 0.0
H190 H 0.16451 0.67045 0.80242 0.0
H191 H 0.14638 0.65279 0.87352 0.0
H192 H 0.99312 0.55831 0.91925 0.0
H193 H 0.90169 0.50252 0.88126 0.0
H194 H 0.79233 0.45027 0.72304 0.0
H195 H 0.80937 0.46897 0.65181 0.0
H196 H 0.9669 0.55822 0.60577 0.0
H197 H 0.05839 0.6141 0.64336 0.0
H198 H 0.99959 0.44012 0.7039 0.0
H199 H 0.09597 0.49114 0.82786 0.0
H200 H 0.87393 0.6363 0.6969 0.0
H201 H 0.95111 0.67322 0.82703 0.0
C202 C 0.25177 0.02261 0.55733 0.0
C203 C 0.30416 0.02887 0.57873 0.0
C204 C 0.33636 0.05898 0.56615 0.0
C205 C 0.30204 0.06909 0.53761 0.0
N206 N 0.24979 0.04739 0.53124 0.0
Co207 Co 0.18731 0.05051 0.48972 0.0
N208 N 0.23444 0.09632 0.47339 0.0
C209 C 0.28754 0.11501 0.49035 0.0
C210 C 0.30885 0.14628 0.4739 0.0
C211 C 0.26676 0.14788 0.44487 0.0
C212 C 0.22202 0.11729 0.44528 0.0
N213 N 0.12541 0.05204 0.44628 0.0
C214 C 0.12391 0.07581 0.4189 0.0
C215 C 0.0728 0.066 0.39292 0.0
C216 C 0.04087 0.03491 0.40428 0.0
C217 C 0.07416 0.02747 0.43632 0.0
N218 N 0.13966 0.00624 0.50811 0.0
C219 C 0.08562 0.99024 0.49453 0.0
C220 C 0.06336 0.96235 0.51518 0.0
C221 C 0.10557 0.9604 0.54369 0.0
C222 C 0.15149 0.98712 0.53855 0.0
N223 N 0.17442 0.08369 0.53167 0.0
C224 C 0.15558 0.12736 0.59398 0.0
C225 C 0.11355 0.10486 0.56059 0.0
C226 C 0.12369 0.08312 0.53014 0.0
C227 C 0.20732 0.12854 0.59531 0.0
C228 C 0.21594 0.10707 0.56373 0.0
N229 N 0.20014 0.01714 0.44792 0.0
C230 C 0.17181 0.95694 0.40405 0.0
C231 C 0.22137 0.96658 0.3948 0.0
C232 C 0.25928 0.00248 0.41077 0.0
C233 C 0.24804 0.02715 0.43732 0.0
C234 C 0.1618 0.98264 0.42998 0.0
H235 H 0.27925 0.05376 0.44958 0.0
H236 H 0.1231 0.97361 0.43571 0.0
H237 H 0.08965 0.06579 0.50601 0.0
H238 H 0.2565 0.10968 0.56613 0.0
C239 C 0.31708 0.10061 0.51893 0.0
C240 C 0.2053 0.99313 0.56327 0.0
C241 C 0.16911 0.10877 0.4175 0.0
C242 C 0.05753 1.00026 0.46046 0.0
H243 H 0.31774 0.0135 0.60138 0.0
H244 H 0.37956 0.07231 0.57703 0.0
H245 H 0.35028 0.16517 0.48145 0.0
H246 H 0.26897 0.16888 0.42517 0.0
H247 H 0.05973 0.0803 0.36881 0.0
H248 H 0.99816 0.02013 0.39151 0.0
H249 H 0.02159 0.94519 0.51013 0.0
H250 H 0.10274 0.94136 0.5657 0.0
H251 H 0.07282 0.10326 0.55857 0.0
H252 H 0.24107 0.14615 0.62053 0.0
H253 H 0.14117 0.92939 0.3918 0.0
H254 H 0.29825 0.0109 0.40428 0.0
C255 C 0.53884 0.9102 0.09764 0.0
C256 C 0.54016 0.94526 0.1134 0.0
C257 C 0.5686 0.97034 0.09262 0.0
C258 C 0.58367 0.94945 0.06583 0.0
N259 N 0.56676 0.91278 0.06857 0.0
Co260 Co 0.58269 0.87322 0.03749 0.0
N261 N 0.64168 0.91111 0.02144 0.0
C262 C 0.65029 0.94798 0.02379 0.0
C263 C 0.69404 0.96742 0.01058 0.0
C264 C 0.71376 0.94108 0.99844 0.0
C265 C 0.68056 0.90687 0.00474 0.0
N266 N 0.59863 0.83342 0.00676 0.0
C267 C 0.6411 0.8357 0.99118 0.0
C268 C 0.63518 0.80083 0.97091 0.0
C269 C 0.58691 0.77614 0.97315 0.0
C270 C 0.56611 0.79713 0.99464 0.0
N271 N 0.52314 0.83551 0.05301 0.0
C272 C 0.49757 0.79942 0.03444 0.0
C273 C 0.45684 0.78029 0.05093 0.0
C274 C 0.45658 0.80598 0.08172 0.0
C275 C 0.49758 0.83943 0.08242 0.0
N276 N 0.53199 0.87413 0.98709 0.0
C277 C 0.45672 0.86807 0.91337 0.0
C278 C 0.4444 0.8718 0.95151 0.0
C279 C 0.48263 0.87479 0.98804 0.0
C280 C 0.50824 0.86936 0.91314 0.0
C281 C 0.54511 0.87247 0.95016 0.0
N282 N 0.63345 0.87215 0.08767 0.0
C283 C 0.66548 0.83767 0.13685 0.0
C284 C 0.7067 0.87072 0.15979 0.0
C285 C 0.71035 0.90441 0.14511 0.0
C286 C 0.67292 0.9046 0.10975 0.0
C287 C 0.63007 0.83893 0.10072 0.0
H288 H 0.67614 0.93115 0.10032 0.0
H289 H 0.59961 0.81295 0.08356 0.0
H290 H 0.47165 0.87649 0.01688 0.0
H291 H 0.58377 0.87247 0.94858 0.0
C292 C 0.6212 0.96405 0.04363 0.0
C293 C 0.50825 0.87488 0.10909 0.0
C294 C 0.68274 0.87079 0.98875 0.0
C295 C 0.51873 0.78319 0.00699 0.0
H296 H 0.52274 0.95219 0.13751 0.0
H297 H 0.57923 1.00046 0.09791 0.0
H298 H 0.71029 0.99725 0.0105 0.0
H299 H 0.74771 0.94623 0.98523 0.0
H300 H 0.66196 0.7942 0.95476 0.0
H301 H 0.56919 0.74644 0.96068 0.0
H302 H 0.43161 0.75088 0.0426 0.0
H303 H 0.42905 0.80069 0.10117 0.0
H304 H 0.40487 0.87079 0.95302 0.0
H305 H 0.51972 0.86718 0.88439 0.0
H306 H 0.65962 0.81089 0.1468 0.0
H307 H 0.74187 0.93075 0.16054 0.0
C308 C 0.86852 0.03647 0.69439 0.0
C309 C 0.91813 0.03894 0.71826 0.0
C310 C 0.95575 0.06814 0.70867 0.0
C311 C 0.92723 0.08159 0.67938 0.0
N312 N 0.87355 0.06315 0.67003 0.0
Co313 Co 0.81826 0.07098 0.62564 0.0
N314 N 0.87359 0.11475 0.61265 0.0
C315 C 0.92682 0.12902 0.6311 0.0
C316 C 0.95441 0.16031 0.61724 0.0
C317 C 0.91634 0.16703 0.58887 0.0
C318 C 0.86752 0.13934 0.5872 0.0
N319 N 0.76356 0.07752 0.5796 0.0
C320 C 0.76814 0.10491 0.55616 0.0
C321 C 0.71967 0.09901 0.52807 0.0
C322 C 0.6833 0.06691 0.53409 0.0
C323 C 0.71131 0.05506 0.56547 0.0
N324 N 0.7623 0.02895 0.64054 0.0
C325 C 0.70878 0.016 0.62322 0.0
C326 C 0.68013 0.98764 0.64054 0.0
C327 C 0.71763 0.98197 0.67057 0.0
C328 C 0.76727 0.00702 0.66948 0.0
N329 N 0.80652 0.10659 0.66551 0.0
C330 C 0.78946 0.15981 0.7184 0.0
C331 C 0.74735 0.1347 0.68672 0.0
C332 C 0.75653 0.10834 0.66114 0.0
C333 C 0.84013 0.15724 0.72408 0.0
C334 C 0.84787 0.13071 0.6972 0.0
N335 N 0.82958 0.03497 0.58533 0.0
C336 C 0.79557 0.97536 0.53902 0.0
C337 C 0.84334 0.98361 0.52696 0.0
C338 C 0.88479 0.01782 0.54562 0.0
C339 C 0.87731 0.04269 0.57472 0.0
C340 C 0.78933 0.00125 0.56728 0.0
H341 H 0.91072 0.06805 0.58781 0.0
H342 H 0.75112 0.99301 0.57365 0.0
H343 H 0.72258 0.08998 0.63762 0.0
H344 H 0.88768 0.13055 0.70207 0.0
C345 C 0.94958 0.11204 0.66094 0.0
C346 C 0.81803 0.00759 0.69497 0.0
C347 C 0.81646 0.13811 0.56162 0.0
C348 C 0.68777 0.02777 0.58747 0.0
H349 H 0.92649 0.02117 0.73996 0.0
H350 H 0.99882 0.07818 0.72128 0.0
H351 H 0.99697 0.17655 0.62696 0.0
H352 H 0.92359 0.18998 0.57169 0.0
H353 H 0.71073 0.11678 0.5066 0.0
H354 H 0.64071 0.05503 0.51922 0.0
H355 H 0.63733 0.97199 0.63139 0.0
H356 H 0.70946 0.96102 0.69023 0.0
H357 H 0.70732 0.13548 0.68158 0.0
H358 H 0.87394 0.17637 0.74825 0.0
H359 H 0.76251 0.94894 0.52666 0.0
H360 H 0.9226 0.02593 0.53731 0.0
C361 C 0.40382 0.34934 0.1413 0.0
C362 C 0.40726 0.38321 0.16241 0.0
C363 C 0.45577 0.40916 0.16255 0.0
C364 C 0.47925 0.38984 0.1417 0.0
N365 N 0.44836 0.3534 0.12789 0.0
Co366 Co 0.46849 0.31562 0.09757 0.0
N367 N 0.5283 0.3553 0.0845 0.0
C368 C 0.54972 0.3917 0.10243 0.0
C369 C 0.58873 0.41294 0.08571 0.0
C370 C 0.5926 0.38836 0.05563 0.0
C371 C 0.55612 0.35319 0.0561 0.0
N372 N 0.48911 0.27794 0.06765 0.0
C373 C 0.52153 0.28222 0.0417 0.0
C374 C 0.52674 0.24849 0.02917 0.0
C375 C 0.49651 0.22231 0.04791 0.0
C376 C 0.47481 0.2414 0.07091 0.0
N377 N 0.40866 0.27584 0.11048 0.0
C378 C 0.40185 0.23924 0.10771 0.0
C379 C 0.35672 0.2182 0.1183 0.0
C380 C 0.33404 0.24316 0.12905 0.0
C381 C 0.36705 0.27826 0.12477 0.0
N382 N 0.41965 0.31651 0.04622 0.0
C383 C 0.34547 0.31703 0.97443 0.0
C384 C 0.3503 0.28336 0.98424 0.0
C385 C 0.38708 0.28369 0.02028 0.0
C386 C 0.3797 0.35054 0.00114 0.0
C387 C 0.4167 0.34968 0.03653 0.0
N388 N 0.51703 0.31453 0.14911 0.0
C389 C 0.60147 0.3126 0.18607 0.0
C390 C 0.58512 0.31158 0.22279 0.0
C391 C 0.53408 0.31202 0.22189 0.0
C392 C 0.50068 0.31331 0.18483 0.0
C393 C 0.56701 0.31434 0.14965 0.0
H394 H 0.46154 0.31327 0.18526 0.0
H395 H 0.5809 0.31558 0.12198 0.0
H396 H 0.38882 0.25725 0.02724 0.0
H397 H 0.44237 0.3759 0.05634 0.0
C398 C 0.52642 0.40588 0.12975 0.0
C399 C 0.36108 0.3134 0.13949 0.0
C400 C 0.55199 0.31819 0.03155 0.0
C401 C 0.43491 0.22507 0.09055 0.0
H402 H 0.37835 0.38851 0.17707 0.0
H403 H 0.47153 0.43872 0.1756 0.0
H404 H 0.61024 0.44297 0.09328 0.0
H405 H 0.61942 0.39565 0.03578 0.0
H406 H 0.55052 0.24337 0.00909 0.0
H407 H 0.49 0.1927 0.04427 0.0
H408 H 0.34157 0.18821 0.11759 0.0
H409 H 0.29807 0.23645 0.13988 0.0
H410 H 0.32596 0.25675 0.96426 0.0
H411 H 0.37741 0.3773 0.99538 0.0
H412 H 0.641 0.31285 0.18564 0.0
H413 H 0.51984 0.31109 0.24959 0.0
C414 C 0.10719 0.36798 0.29362 0.0
C415 C 0.16115 0.3731 0.29667 0.0
H416 H 0.05081 0.39375 0.3016 0.0
C417 C 0.20053 0.40917 0.31103 0.0
H418 H 0.07612 0.34045 0.28257 0.0
C419 C 0.18616 0.43953 0.32255 0.0
C420 C 0.1321 0.43442 0.31909 0.0
H421 H 0.24245 0.41372 0.31395 0.0
H422 H 0.21716 0.46708 0.3336 0.0
C423 C 0.09274 0.39841 0.30436 0.0
C424 C 0.19423 0.70673 0.71676 0.0
C425 C 0.17223 0.73495 0.71398 0.0
H426 H 0.18107 0.6496 0.72398 0.0
C427 C 0.11726 0.72558 0.71102 0.0
H428 H 0.23642 0.71321 0.71877 0.0
C429 C 0.08588 0.68932 0.71415 0.0
C430 C 0.10904 0.66205 0.71995 0.0
H431 H 0.09945 0.74686 0.7092 0.0
H432 H 0.04436 0.68313 0.71444 0.0
C433 C 0.16277 0.67047 0.71961 0.0
C434 C 0.96825 0.75646 0.36325 0.0
C435 C 0.96644 0.77309 0.40155 0.0
H436 H 0.98448 0.7132 0.33034 0.0
C437 C 0.98209 0.75867 0.43715 0.0
H438 H 0.95701 0.76705 0.33524 0.0
C439 C 0.99772 0.7275 0.43431 0.0
C440 C 0.99779 0.71009 0.39573 0.0
H441 H 0.98116 0.77104 0.46708 0.0
H442 H 0.00811 0.71635 0.46208 0.0
C443 C 0.98377 0.72541 0.36041 0.0
C444 C 0.77755 0.40903 0.81876 0.0
C445 C 0.80485 0.38383 0.82311 0.0
H446 H 0.78027 0.4633 0.80549 0.0
C447 C 0.85745 0.39501 0.8185 0.0
H448 H 0.73685 0.40109 0.82177 0.0
C449 C 0.88187 0.43032 0.80907 0.0
C450 C 0.85412 0.455 0.80401 0.0
H451 H 0.87976 0.37643 0.82219 0.0
H452 H 0.9223 0.4383 0.80536 0.0
C453 C 0.80205 0.44439 0.80922 0.0
C454 C 0.15739 0.19366 0.37321 0.0
C455 C 0.1564 0.18372 0.33168 0.0
H456 H 0.16199 0.17721 0.43296 0.0
C457 C 0.15694 0.14823 0.31817 0.0
H458 H 0.15708 0.22082 0.38458 0.0
C459 C 0.15961 0.12341 0.34586 0.0
C460 C 0.16178 0.13376 0.38742 0.0
H461 H 0.15627 0.13997 0.28634 0.0
H462 H 0.16113 0.09646 0.33512 0.0
C463 C 0.16012 0.16883 0.40087 0.0
C464 C 0.36848 0.82118 0.80611 0.0
C465 C 0.33251 0.8402 0.80014 0.0
H466 H 0.43564 0.81506 0.8466 0.0
C467 C 0.33909 0.86994 0.83077 0.0
H468 H 0.36425 0.7982 0.78289 0.0
C469 C 0.3799 0.87952 0.86753 0.0
C470 C 0.41516 0.85986 0.87383 0.0
H471 H 0.31152 0.8848 0.82692 0.0
H472 H 0.38365 0.90204 0.89111 0.0
C473 C 0.40946 0.83098 0.84247 0.0
C474 C 0.80751 0.9114 0.43029 0.0
C475 C 0.85716 0.90853 0.42983 0.0
H476 H 0.76467 0.93805 0.45958 0.0
C477 C 0.90228 0.92963 0.46232 0.0
H478 H 0.77173 0.89524 0.40595 0.0
C479 C 0.89805 0.95361 0.49425 0.0
C480 C 0.8485 0.95724 0.4941 0.0
H481 H 0.94104 0.92834 0.46226 0.0
H482 H 0.93366 0.96932 0.51888 0.0
C483 C 0.80335 0.93568 0.4616 0.0
C484 C 0.68189 0.33477 1.00015 0.0
C485 C 0.66323 0.31959 0.95783 0.0
H486 H 0.66124 0.34496 0.05688 0.0
C487 C 0.60765 0.30347 0.9397 0.0
H488 H 0.72454 0.34713 0.01485 0.0
C489 C 0.5714 0.30339 0.96349 0.0
C490 C 0.59024 0.31893 0.00579 0.0
H491 H 0.59224 0.29168 0.90705 0.0
H492 H 0.52871 0.29126 0.94895 0.0
C493 C 0.64577 0.3338 0.02407 0.0
C494 C 0.23672 0.96274 0.66697 0.0
C495 C 0.2254 0.92432 0.6551 0.0
H496 H 0.23868 0.01462 0.64688 0.0
C497 C 0.20781 0.90865 0.6128 0.0
H498 H 0.25042 0.97545 0.69938 0.0
C499 C 0.2017 0.9311 0.58295 0.0
C500 C 0.21267 0.96941 0.59494 0.0
H501 H 0.19907 0.87915 0.60269 0.0
H502 H 0.18827 0.91859 0.55048 0.0
C503 C 0.23017 0.9851 0.63712 0.0
C504 C 0.80087 0.90146 0.26838 0.0
C505 C 0.81001 0.86855 0.27654 0.0
H506 H 0.75965 0.92752 0.22735 0.0
C507 C 0.78774 0.83698 0.24479 0.0
H508 H 0.81854 0.92686 0.29129 0.0
C509 C 0.75596 0.83802 0.20656 0.0
C510 C 0.74424 0.87032 0.19929 0.0
H511 H 0.79345 0.81098 0.24967 0.0
H512 H 0.74024 0.81318 0.18297 0.0
C513 C 0.76773 0.90211 0.23083 0.0
C514 C 0.78646 0.22292 0.8107 0.0
C515 C 0.76266 0.24623 0.79102 0.0
H516 H 0.81471 0.1775 0.80295 0.0
C517 C 0.74738 0.24069 0.74764 0.0
H518 H 0.79903 0.227 0.84416 0.0
C519 C 0.75575 0.21239 0.72427 0.0
C520 C 0.78048 0.18947 0.74379 0.0
H521 H 0.72917 0.25846 0.73184 0.0
H522 H 0.74378 0.20883 0.69082 0.0
C523 C 0.79584 0.19497 0.78724 0.0
C524 C 0.30286 0.30091 0.23188 0.0
C525 C 0.25873 0.31219 0.22064 0.0
H526 H 0.36987 0.29286 0.21493 0.0
C527 C 0.24836 0.32407 0.18231 0.0
H528 H 0.31236 0.29222 0.26147 0.0
C529 C 0.28108 0.32405 0.15549 0.0
C530 C 0.32471 0.31238 0.16678 0.0
H531 H 0.21453 0.33281 0.17285 0.0
H532 H 0.27249 0.33319 0.12605 0.0
C533 C 0.33568 0.30123 0.20533 0.0
C534 C 0.85917 0.73397 0.79704 0.0
C535 C 0.86326 0.75582 0.76562 0.0
H536 H 0.86948 0.68606 0.81994 0.0
C537 C 0.8806 0.74482 0.73191 0.0
H538 H 0.84546 0.74138 0.82331 0.0
C539 C 0.8947 0.71298 0.73008 0.0
C540 C 0.89171 0.69161 0.76201 0.0
H541 H 0.88398 0.76116 0.70726 0.0
H542 H 0.90929 0.70569 0.70426 0.0
C543 C 0.87315 0.70225 0.79521 0.0
C544 C 0.85654 0.43316 0.43516 0.0
C545 C 0.86851 0.40047 0.42982 0.0
H546 H 0.88102 0.49199 0.43273 0.0
C547 C 0.91905 0.40343 0.42435 0.0
H548 H 0.81772 0.4315 0.43927 0.0
C549 C 0.95488 0.43791 0.42022 0.0
C550 C 0.94065 0.46975 0.42186 0.0
H551 H 0.9289 0.37858 0.41965 0.0
H552 H 0.99197 0.43918 0.41285 0.0
C553 C 0.89249 0.46761 0.43134 0.0
C554 C 0.09408 0.38566 0.81085 0.0
C555 C 0.10933 0.37054 0.77809 0.0
H556 H 0.06239 0.42528 0.83251 0.0
C557 C 0.10322 0.38451 0.74074 0.0
H558 H 0.09718 0.37496 0.83969 0.0
C559 C 0.08329 0.41351 0.73661 0.0
C560 C 0.06905 0.42909 0.76973 0.0
H561 H 0.11499 0.37362 0.71503 0.0
H562 H 0.08027 0.42432 0.70785 0.0
C563 C 0.07413 0.41451 0.80671 0.0
C564 C 0.22342 0.71388 0.27308 0.0
C565 C 0.22944 0.74581 0.30061 0.0
H566 H 0.195 0.6537 0.25951 0.0
C567 C 0.20927 0.74038 0.33573 0.0
H568 H 0.23796 0.71658 0.2456 0.0
C569 C 0.18207 0.70449 0.34216 0.0
C570 C 0.17602 0.67286 0.31466 0.0
H571 H 0.21474 0.76381 0.35879 0.0
H572 H 0.16629 0.70139 0.36912 0.0
C573 C 0.19783 0.67777 0.2805 0.0
C574 C 0.8321 0.95985 0.78842 0.0
C575 C 0.816 0.92204 0.77001 0.0
H576 H 0.84469 0.01639 0.77893 0.0
C577 C 0.80209 0.91283 0.72658 0.0
H578 H 0.8439 0.96806 0.82175 0.0
C579 C 0.80331 0.94069 0.70223 0.0
C580 C 0.8183 0.97817 0.72083 0.0
H581 H 0.78891 0.884 0.71138 0.0
H582 H 0.7919 0.93297 0.66883 0.0
C583 C 0.83291 0.98758 0.76406 0.0
C584 C 0.68747 0.28898 0.30105 0.0
C585 C 0.69635 0.31516 0.3362 0.0
H586 H 0.64536 0.26755 0.23718 0.0
C587 C 0.66641 0.3386 0.33447 0.0
H588 H 0.71052 0.27089 0.30159 0.0
C589 C 0.62923 0.33665 0.29792 0.0
C590 C 0.6218 0.31154 0.26221 0.0
H591 H 0.67272 0.35907 0.36122 0.0
H592 H 0.60769 0.35574 0.29718 0.0
C593 C 0.65074 0.28738 0.26421 0.0
C594 C 0.11416 0.19694 0.65204 0.0
C595 C 0.12979 0.19153 0.69296 0.0
H596 H 0.10922 0.18002 0.58822 0.0
C597 C 0.15248 0.16426 0.70088 0.0
H598 H 0.09657 0.21781 0.6451 0.0
C599 C 0.16088 0.14344 0.66861 0.0
C600 C 0.14553 0.14894 0.62777 0.0
H601 H 0.16492 0.15967 0.73221 0.0
H602 H 0.17927 0.12295 0.6755 0.0
C603 C 0.12133 0.1754 0.61957 0.0
C604 C 0.40233 0.88752 0.159 0.0
C605 C 0.40871 0.86949 0.19322 0.0
H606 H 0.42784 0.90233 0.10483 0.0
C607 C 0.44928 0.85433 0.20057 0.0
H608 H 0.37102 0.89912 0.1525 0.0
C609 C 0.48284 0.85718 0.17395 0.0
C610 C 0.47593 0.87485 0.13944 0.0
H611 H 0.45504 0.84027 0.22678 0.0
H612 H 0.51359 0.84504 0.17983 0.0
C613 C 0.43501 0.88962 0.13196 0.0
C614 C 0.80355 0.20091 0.4818 0.0
C615 C 0.81563 0.2354 0.50713 0.0
H616 H 0.79516 0.14306 0.47939 0.0
C617 C 0.82703 0.23746 0.55023 0.0
H618 H 0.79503 0.19853 0.44847 0.0
C619 C 0.82601 0.2056 0.56773 0.0
C620 C 0.81418 0.17121 0.54245 0.0
H621 H 0.83649 0.26372 0.5704 0.0
H622 H 0.83496 0.20783 0.60108 0.0
C623 C 0.80335 0.16916 0.49937 0.0
C624 C 0.27686 0.34619 0.87889 0.0
C625 C 0.22821 0.31555 0.86468 0.0
H626 H 0.35283 0.37021 0.92365 0.0
C627 C 0.21763 0.28596 0.88705 0.0
H628 H 0.28601 0.36919 0.86185 0.0
C629 C 0.25514 0.28682 0.92295 0.0
C630 C 0.30473 0.31697 0.93688 0.0
H631 H 0.18008 0.26219 0.87683 0.0
H632 H 0.24496 0.26382 0.93983 0.0
C633 C 0.31495 0.34677 0.91442 0.0
C634 C 0.24471 0.87762 0.36646 0.0
C635 C 0.25874 0.88201 0.32877 0.0
H636 H 0.22126 0.9007 0.41617 0.0
C637 C 0.2619 0.91546 0.31343 0.0
H638 H 0.24364 0.85298 0.38017 0.0
C639 C 0.25047 0.94343 0.33503 0.0
C640 C 0.23482 0.93807 0.37184 0.0
H641 H 0.2723 0.9198 0.28448 0.0
H642 H 0.25278 0.96885 0.32263 0.0
C643 C 0.23226 0.90506 0.38739 0.0
C644 C 0.71301 0.87715 0.88471 0.0
C645 C 0.75917 0.86789 0.8901 0.0
H646 H 0.65299 0.88518 0.91186 0.0
C647 C 0.78042 0.85955 0.92855 0.0
H648 H 0.69507 0.88301 0.85529 0.0
C649 C 0.75602 0.86069 0.96098 0.0
C650 C 0.7101 0.87008 0.95528 0.0
H651 H 0.81611 0.85249 0.93363 0.0
H652 H 0.7728 0.8542 0.99036 0.0
C653 C 0.68873 0.87818 0.91694 0.0
loop_
_geom_bond_atom_site_label_1
_geom_bond_atom_site_label_2
_geom_bond_distance
_geom_bond_site_symmetry_2
_ccdc_geom_bond_type
H0 C5 0.930 . S
H1 C8 0.930 . S
H2 C10 0.930 . S
H3 C4 1.016 . S
C4 H3 1.016 . S
C4 N11 1.286 . S
C5 H0 0.930 . S
C5 C6 1.397 . S
C5 C7 1.361 . S
C6 C5 1.397 . S
C6 C10 1.390 . S
C7 C5 1.361 . S
C7 C8 1.393 . S
C7 N11 1.413 . S
C8 H1 0.930 . S
C8 C7 1.393 . S
C8 C9 1.399 . S
C9 C8 1.399 . S
C9 C10 1.381 . S
C10 H2 0.930 . S
C10 C6 1.390 . S
C10 C9 1.381 . S
N11 C4 1.286 . S
N11 C7 1.413 . S
H12 C17 0.930 . S
H13 C20 0.930 . S
H14 C22 0.930 . S
H15 C16 1.016 . S
C16 H15 1.016 . S
C16 N23 1.286 . S
C17 H12 0.930 . S
C17 C18 1.397 . S
C17 C19 1.361 . S
C18 C17 1.397 . S
C18 C22 1.390 . S
C19 C17 1.361 . S
C19 C20 1.393 . S
C19 N23 1.413 . S
C20 H13 0.930 . S
C20 C19 1.393 . S
C20 C21 1.399 . S
C21 C20 1.399 . S
C21 C22 1.381 . S
C22 H14 0.930 . S
C22 C18 1.390 . S
C22 C21 1.381 . S
N23 C16 1.286 . S
N23 C19 1.413 . S
H24 C29 0.930 . S
H25 C32 0.930 . S
H26 C34 0.930 . S
H27 C28 1.016 . S
C28 H27 1.016 . S
C28 N35 1.286 . S
C29 H24 0.930 . S
C29 C30 1.397 . S
C29 C31 1.361 . S
C30 C29 1.397 . S
C30 C34 1.390 . S
C31 C29 1.361 . S
C31 C32 1.393 . S
C31 N35 1.413 . S
C32 H25 0.930 . S
C32 C31 1.393 . S
C32 C33 1.399 . S
C33 C32 1.399 . S
C33 C34 1.381 . S
C34 H26 0.930 . S
C34 C30 1.390 . S
C34 C33 1.381 . S
N35 C28 1.286 . S
N35 C31 1.413 . S
H36 C41 0.930 . S
H37 C44 0.930 . S
H38 C46 0.930 . S
H39 C40 1.016 . S
C40 H39 1.016 . S
C40 N47 1.286 . S
C41 H36 0.930 . S
C41 C42 1.397 . S
C41 C43 1.361 . S
C42 C41 1.397 . S
C42 C46 1.390 . S
C43 C41 1.361 . S
C43 C44 1.393 . S
C43 N47 1.413 . S
C44 H37 0.930 . S
C44 C43 1.393 . S
C44 C45 1.399 . S
C45 C44 1.399 . S
C45 C46 1.381 . S
C46 H38 0.930 . S
C46 C42 1.390 . S
C46 C45 1.381 . S
N47 C40 1.286 . S
N47 C43 1.413 . S
H48 C53 0.930 . S
H49 C56 0.930 . S
H50 C58 0.930 . S
H51 C52 1.016 . S
C52 H51 1.016 . S
C52 N59 1.286 . S
C53 H48 0.930 . S
C53 C54 1.397 . S
C53 C55 1.361 . S
C54 C53 1.397 . S
C54 C58 1.390 . S
C55 C53 1.361 . S
C55 C56 1.393 . S
C55 N59 1.413 . S
C56 H49 0.930 . S
C56 C55 1.393 . S
C56 C57 1.399 . S
C57 C56 1.399 . S
C57 C58 1.381 . S
C58 H50 0.930 . S
C58 C54 1.390 . S
C58 C57 1.381 . S
N59 C52 1.286 . S
N59 C55 1.413 . S
H60 C65 0.930 . S
H61 C68 0.930 . S
H62 C70 0.930 . S
H63 C64 1.016 . S
C64 H63 1.016 . S
C64 N71 1.286 . S
C65 H60 0.930 . S
C65 C66 1.397 . S
C65 C67 1.361 . S
C66 C65 1.397 . S
C66 C70 1.390 . S
C67 C65 1.361 . S
C67 C68 1.393 . S
C67 N71 1.413 . S
C68 H61 0.930 . S
C68 C67 1.393 . S
C68 C69 1.399 . S
C69 C68 1.399 . S
C69 C70 1.381 . S
C70 H62 0.930 . S
C70 C66 1.390 . S
C70 C69 1.381 . S
N71 C64 1.286 . S
N71 C67 1.413 . S
H72 C77 0.930 . S
H73 C80 0.930 . S
H74 C82 0.930 . S
H75 C76 1.016 . S
C76 H75 1.016 . S
C76 N83 1.286 . S
C77 H72 0.930 . S
C77 C78 1.397 . S
C77 C79 1.361 . S
C78 C77 1.397 . S
C78 C82 1.390 . S
C79 C77 1.361 . S
C79 C80 1.393 . S
C79 N83 1.413 . S
C80 H73 0.930 . S
C80 C79 1.393 . S
C80 C81 1.399 . S
C81 C80 1.399 . S
C81 C82 1.381 . S
C82 H74 0.930 . S
C82 C78 1.390 . S
C82 C81 1.381 . S
N83 C76 1.286 . S
N83 C79 1.413 . S
H84 C89 0.930 . S
H85 C92 0.930 . S
H86 C94 0.930 . S
H87 C88 1.016 . S
C88 H87 1.016 . S
C88 N95 1.286 . S
C89 H84 0.930 . S
C89 C90 1.397 . S
C89 C91 1.361 . S
C90 C89 1.397 . S
C90 C94 1.390 . S
C91 C89 1.361 . S
C91 C92 1.393 . S
C91 N95 1.413 . S
C92 H85 0.930 . S
C92 C91 1.393 . S
C92 C93 1.399 . S
C93 C92 1.399 . S
C93 C94 1.381 . S
C94 H86 0.930 . S
C94 C90 1.390 . S
C94 C93 1.381 . S
N95 C88 1.286 . S
N95 C91 1.413 . S
C96 C97 1.443 . S
C96 N100 1.376 . S
C96 C134 1.389 . S
C97 C96 1.443 . S
C97 C98 1.340 . S
C97 H137 0.951 . S
C98 C97 1.340 . S
C98 C99 1.439 . S
C98 H138 0.950 . S
C99 C98 1.439 . S
C99 N100 1.374 . S
C99 C133 1.395 . S
N100 C96 1.376 . S
N100 C99 1.374 . S
N100 Co101 2.008 . S
Co101 N100 2.008 . S
Co101 N102 1.995 . S
Co101 N107 2.008 . S
Co101 N112 1.995 . S
Co101 N117 2.282 . S
Co101 N123 2.282 . S
N102 Co101 1.995 . S
N102 C103 1.376 . S
N102 C106 1.383 . S
C103 N102 1.376 . S
C103 C104 1.446 . S
C103 C133 1.391 . S
C104 C103 1.446 . S
C104 C105 1.339 . S
C104 H139 0.949 . S
C105 C104 1.339 . S
C105 C106 1.439 . S
C105 H140 0.950 . S
C106 N102 1.383 . S
C106 C105 1.439 . S
C106 C135 1.392 . S
N107 Co101 2.008 . S
N107 C108 1.376 . S
N107 C111 1.374 . S
C108 N107 1.376 . S
C108 C109 1.443 1_455 S
C108 C135 1.389 . S
C109 C108 1.443 1_655 S
C109 C110 1.340 . S
C109 H141 0.951 . S
C110 C109 1.340 . S
C110 C111 1.439 1_655 S
C110 H142 0.950 . S
C111 N107 1.374 . S
C111 C110 1.439 1_455 S
C111 C136 1.395 . S
N112 Co101 1.995 . S
N112 C113 1.376 . S
N112 C116 1.383 . S
C113 N112 1.376 . S
C113 C114 1.446 . S
C113 C136 1.391 . S
C114 C113 1.446 . S
C114 C115 1.339 . S
C114 H143 0.949 . S
C115 C114 1.339 . S
C115 C116 1.439 . S
C115 H144 0.950 . S
C116 N112 1.383 . S
C116 C115 1.439 . S
C116 C134 1.392 . S
N117 Co101 2.282 . S
N117 C120 1.332 . S
N117 C122 1.332 . S
C118 C119 1.386 . S
C118 C121 1.388 . S
C119 C118 1.386 . S
C119 C120 1.382 . S
C119 H145 0.950 . S
C120 N117 1.332 . S
C120 C119 1.382 . S
C120 H131 0.952 . S
C121 C118 1.388 . S
C121 C122 1.382 . S
C121 H146 0.950 . S
C122 N117 1.332 . S
C122 C121 1.382 . S
C122 H132 0.948 . S
N123 Co101 2.282 . S
N123 C127 1.332 . S
N123 C128 1.332 . S
C124 C125 1.388 . S
C124 C128 1.382 . S
C124 H147 0.950 . S
C125 C124 1.388 . S
C125 C126 1.386 . S
C126 C125 1.386 . S
C126 C127 1.382 . S
C126 H148 0.950 . S
C127 N123 1.332 . S
C127 C126 1.382 . S
C127 H129 0.952 . S
C128 N123 1.332 . S
C128 C124 1.382 . S
C128 H130 0.948 . S
H129 C127 0.952 . S
H130 C128 0.948 . S
H131 C120 0.952 . S
H132 C122 0.948 . S
C133 C99 1.395 . S
C133 C103 1.391 . S
C134 C96 1.389 . S
C134 C116 1.392 . S
C135 C106 1.392 . S
C135 C108 1.389 . S
C136 C111 1.395 . S
C136 C113 1.391 . S
H137 C97 0.951 . S
H138 C98 0.950 . S
H139 C104 0.949 . S
H140 C105 0.950 . S
H141 C109 0.951 . S
H142 C110 0.950 . S
H143 C114 0.949 . S
H144 C115 0.950 . S
H145 C119 0.950 . S
H146 C121 0.950 . S
H147 C124 0.950 . S
H148 C126 0.950 . S
C149 C150 1.443 . S
C149 N153 1.376 . S
C149 C187 1.389 . S
C150 C149 1.443 . S
C150 C151 1.340 . S
C150 H190 0.951 . S
C151 C150 1.340 . S
C151 C152 1.439 . S
C151 H191 0.950 . S
C152 C151 1.439 . S
C152 N153 1.374 . S
C152 C186 1.395 . S
N153 C149 1.376 . S
N153 C152 1.374 . S
N153 Co154 2.008 . S
Co154 N153 2.008 . S
Co154 N155 1.995 1_455 S
Co154 N160 2.008 1_455 S
Co154 N165 1.995 . S
Co154 N170 2.282 . S
Co154 N176 2.282 1_455 S
N155 Co154 1.995 1_655 S
N155 C156 1.376 1_655 S
N155 C159 1.383 . S
C156 N155 1.376 1_455 S
C156 C157 1.446 . S
C156 C186 1.391 . S
C157 C156 1.446 . S
C157 C158 1.339 1_455 S
C157 H192 0.949 . S
C158 C157 1.339 1_655 S
C158 C159 1.439 . S
C158 H193 0.950 . S
C159 N155 1.383 . S
C159 C158 1.439 . S
C159 C188 1.392 . S
N160 Co154 2.008 1_655 S
N160 C161 1.376 . S
N160 C164 1.374 . S
C161 N160 1.376 . S
C161 C162 1.443 . S
C161 C188 1.389 . S
C162 C161 1.443 . S
C162 C163 1.340 . S
C162 H194 0.951 . S
C163 C162 1.340 . S
C163 C164 1.439 . S
C163 H195 0.950 . S
C164 N160 1.374 . S
C164 C163 1.439 . S
C164 C189 1.395 . S
N165 Co154 1.995 . S
N165 C166 1.376 1_455 S
N165 C169 1.383 . S
C166 N165 1.376 1_655 S
C166 C167 1.446 . S
C166 C189 1.391 . S
C167 C166 1.446 . S
C167 C168 1.339 1_655 S
C167 H196 0.949 . S
C168 C167 1.339 1_455 S
C168 C169 1.439 . S
C168 H197 0.950 . S
C169 N165 1.383 . S
C169 C168 1.439 . S
C169 C187 1.392 . S
N170 Co154 2.282 . S
N170 C173 1.332 . S
N170 C175 1.332 . S
C171 C172 1.386 . S
C171 C174 1.388 . S
C172 C171 1.386 . S
C172 C173 1.382 . S
C172 H198 0.950 . S
C173 N170 1.332 . S
C173 C172 1.382 . S
C173 H184 0.952 . S
C174 C171 1.388 . S
C174 C175 1.382 . S
C174 H199 0.950 . S
C175 N170 1.332 . S
C175 C174 1.382 . S
C175 H185 0.948 . S
N176 Co154 2.282 1_655 S
N176 C180 1.332 . S
N176 C181 1.332 . S
C177 C178 1.388 . S
C177 C181 1.382 . S
C177 H200 0.950 . S
C178 C177 1.388 . S
C178 C179 1.386 . S
C179 C178 1.386 . S
C179 C180 1.382 . S
C179 H201 0.950 . S
C180 N176 1.332 . S
C180 C179 1.382 . S
C180 H182 0.952 . S
C181 N176 1.332 . S
C181 C177 1.382 . S
C181 H183 0.948 . S
H182 C180 0.952 . S
H183 C181 0.948 . S
H184 C173 0.952 . S
H185 C175 0.948 . S
C186 C152 1.395 . S
C186 C156 1.391 . S
C187 C149 1.389 . S
C187 C169 1.392 . S
C188 C159 1.392 . S
C188 C161 1.389 . S
C189 C164 1.395 . S
C189 C166 1.391 . S
H190 C150 0.951 . S
H191 C151 0.950 . S
H192 C157 0.949 . S
H193 C158 0.950 . S
H194 C162 0.951 . S
H195 C163 0.950 . S
H196 C167 0.949 . S
H197 C168 0.950 . S
H198 C172 0.950 . S
H199 C174 0.950 . S
H200 C177 0.950 . S
H201 C179 0.950 . S
C202 C203 1.443 . S
C202 N206 1.376 . S
C202 C240 1.389 . S
C203 C202 1.443 . S
C203 C204 1.340 . S
C203 H243 0.951 . S
C204 C203 1.340 . S
C204 C205 1.439 1_565 S
C204 H244 0.950 . S
C205 C204 1.439 1_545 S
C205 N206 1.374 1_545 S
C205 C239 1.395 . S
N206 C202 1.376 . S
N206 C205 1.374 1_565 S
N206 Co207 2.008 1_565 S
Co207 N206 2.008 1_545 S
Co207 N208 1.995 . S
Co207 N213 2.008 . S
Co207 N218 1.995 1_545 S
Co207 N223 2.282 . S
Co207 N229 2.282 1_545 S
N208 Co207 1.995 . S
N208 C209 1.376 . S
N208 C212 1.383 . S
C209 N208 1.376 . S
C209 C210 1.446 . S
C209 C239 1.391 . S
C210 C209 1.446 . S
C210 C211 1.339 . S
C210 H245 0.949 . S
C211 C210 1.339 . S
C211 C212 1.439 . S
C211 H246 0.950 . S
C212 N208 1.383 . S
C212 C211 1.439 . S
C212 C241 1.392 . S
N213 Co207 2.008 . S
N213 C214 1.376 . S
N213 C217 1.374 1_545 S
C214 N213 1.376 . S
C214 C215 1.443 . S
C214 C241 1.389 . S
C215 C214 1.443 . S
C215 C216 1.340 1_455 S
C215 H247 0.951 . S
C216 C215 1.340 1_655 S
C216 C217 1.439 1_645 S
C216 H248 0.950 . S
C217 N213 1.374 1_565 S
C217 C216 1.439 1_465 S
C217 C242 1.395 . S
N218 Co207 1.995 1_565 S
N218 C219 1.376 . S
N218 C222 1.383 . S
C219 N218 1.376 . S
C219 C220 1.446 . S
C219 C242 1.391 . S
C220 C219 1.446 . S
C220 C221 1.339 . S
C220 H249 0.949 1_455 S
C221 C220 1.339 . S
C221 C222 1.439 . S
C221 H250 0.950 . S
C222 N218 1.383 . S
C222 C221 1.439 . S
C222 C240 1.392 . S
N223 Co207 2.282 . S
N223 C226 1.332 . S
N223 C228 1.332 . S
C224 C225 1.386 . S
C224 C227 1.388 . S
C225 C224 1.386 . S
C225 C226 1.382 . S
C225 H251 0.950 . S
C226 N223 1.332 . S
C226 C225 1.382 . S
C226 H237 0.952 . S
C227 C224 1.388 . S
C227 C228 1.382 . S
C227 H252 0.950 . S
C228 N223 1.332 . S
C228 C227 1.382 . S
C228 H238 0.948 . S
N229 Co207 2.282 1_565 S
N229 C233 1.332 . S
N229 C234 1.332 . S
C230 C231 1.388 . S
C230 C234 1.382 . S
C230 H253 0.950 . S
C231 C230 1.388 . S
C231 C232 1.386 . S
C232 C231 1.386 . S
C232 C233 1.382 . S
C232 H254 0.950 . S
C233 N229 1.332 . S
C233 C232 1.382 . S
C233 H235 0.952 . S
C234 N229 1.332 . S
C234 C230 1.382 . S
C234 H236 0.948 . S
H235 C233 0.952 . S
H236 C234 0.948 . S
H237 C226 0.952 . S
H238 C228 0.948 . S
C239 C205 1.395 . S
C239 C209 1.391 . S
C240 C202 1.389 . S
C240 C222 1.392 . S
C241 C212 1.392 . S
C241 C214 1.389 . S
C242 C217 1.395 . S
C242 C219 1.391 . S
H243 C203 0.951 . S
H244 C204 0.950 . S
H245 C210 0.949 . S
H246 C211 0.950 . S
H247 C215 0.951 . S
H248 C216 0.950 . S
H249 C220 0.949 1_655 S
H250 C221 0.950 . S
H251 C225 0.950 . S
H252 C227 0.950 . S
H253 C230 0.950 . S
H254 C232 0.950 . S
C255 C256 1.443 . S
C255 N259 1.376 . S
C255 C293 1.389 . S
C256 C255 1.443 . S
C256 C257 1.340 . S
C256 H296 0.951 . S
C257 C256 1.340 . S
C257 C258 1.439 . S
C257 H297 0.950 1_565 S
C258 C257 1.439 . S
C258 N259 1.374 . S
C258 C292 1.395 . S
N259 C255 1.376 . S
N259 C258 1.374 . S
N259 Co260 2.008 . S
Co260 N259 2.008 . S
Co260 N261 1.995 . S
Co260 N266 2.008 1_554 S
Co260 N271 1.995 . S
Co260 N276 2.282 1_554 S
Co260 N282 2.282 . S
N261 Co260 1.995 . S
N261 C262 1.376 . S
N261 C265 1.383 1_554 S
C262 N261 1.376 . S
C262 C263 1.443 1_554 S
C262 C292 1.391 . S
C263 C262 1.443 1_556 S
C263 C264 1.341 . S
C263 H298 0.950 1_566 S
C264 C263 1.341 . S
C264 C265 1.439 . S
C264 H299 0.950 . S
C265 N261 1.383 1_556 S
C265 C264 1.439 . S
C265 C294 1.392 . S
N266 Co260 2.008 1_556 S
N266 C267 1.376 . S
N266 C270 1.374 . S
C267 N266 1.376 . S
C267 C268 1.443 . S
C267 C294 1.389 . S
C268 C267 1.443 . S
C268 C269 1.340 . S
C268 H300 0.951 . S
C269 C268 1.340 . S
C269 C270 1.439 . S
C269 H301 0.950 . S
C270 N266 1.374 . S
C270 C269 1.439 . S
C270 C295 1.395 1_556 S
N271 Co260 1.995 . S
N271 C272 1.376 . S
N271 C275 1.383 . S
C272 N271 1.376 . S
C272 C273 1.446 . S
C272 C295 1.391 . S
C273 C272 1.446 . S
C273 C274 1.339 . S
C273 H302 0.949 . S
C274 C273 1.339 . S
C274 C275 1.439 . S
C274 H303 0.950 . S
C275 N271 1.383 . S
C275 C274 1.439 . S
C275 C293 1.392 . S
N276 Co260 2.282 1_556 S
N276 C279 1.332 . S
N276 C281 1.332 . S
C277 C278 1.386 . S
C277 C280 1.388 . S
C278 C277 1.386 . S
C278 C279 1.382 . S
C278 H304 0.950 . S
C279 N276 1.332 . S
C279 C278 1.382 . S
C279 H290 0.952 . S
C280 C277 1.388 . S
C280 C281 1.382 . S
C280 H305 0.950 . S
C281 N276 1.332 . S
C281 C280 1.382 . S
C281 H291 0.948 . S
N282 Co260 2.282 . S
N282 C286 1.332 . S
N282 C287 1.332 . S
C283 C284 1.388 . S
C283 C287 1.382 . S
C283 H306 0.950 . S
C284 C283 1.388 . S
C284 C285 1.386 . S
C285 C284 1.386 . S
C285 C286 1.382 . S
C285 H307 0.950 . S
C286 N282 1.332 . S
C286 C285 1.382 . S
C286 H288 0.952 . S
C287 N282 1.332 . S
C287 C283 1.382 . S
C287 H289 0.948 . S
H288 C286 0.952 . S
H289 C287 0.948 . S
H290 C279 0.952 . S
H291 C281 0.948 . S
C292 C258 1.395 . S
C292 C262 1.391 . S
C293 C255 1.389 . S
C293 C275 1.392 . S
C294 C265 1.392 . S
C294 C267 1.389 . S
C295 C270 1.395 1_554 S
C295 C272 1.391 . S
H296 C256 0.951 . S
H297 C257 0.950 1_545 S
H298 C263 0.950 1_544 S
H299 C264 0.950 . S
H300 C268 0.951 . S
H301 C269 0.950 . S
H302 C273 0.949 . S
H303 C274 0.950 . S
H304 C278 0.950 . S
H305 C280 0.950 . S
H306 C283 0.950 . S
H307 C285 0.950 . S
C308 C309 1.443 . S
C308 N312 1.376 . S
C308 C346 1.389 1_545 S
C309 C308 1.443 . S
C309 C310 1.340 . S
C309 H349 0.951 . S
C310 C309 1.340 . S
C310 C311 1.439 . S
C310 H350 0.950 . S
C311 C310 1.439 . S
C311 N312 1.374 . S
C311 C345 1.395 . S
N312 C308 1.376 . S
N312 C311 1.374 . S
N312 Co313 2.008 . S
Co313 N312 2.008 . S
Co313 N314 1.995 . S
Co313 N319 2.008 . S
Co313 N324 1.995 . S
Co313 N329 2.282 . S
Co313 N335 2.282 . S
N314 Co313 1.995 . S
N314 C315 1.376 . S
N314 C318 1.383 . S
C315 N314 1.376 . S
C315 C316 1.446 . S
C315 C345 1.391 . S
C316 C315 1.446 . S
C316 C317 1.339 . S
C316 H351 0.949 . S
C317 C316 1.339 . S
C317 C318 1.439 . S
C317 H352 0.950 . S
C318 N314 1.383 . S
C318 C317 1.439 . S
C318 C347 1.392 . S
N319 Co313 2.008 . S
N319 C320 1.376 . S
N319 C323 1.374 . S
C320 N319 1.376 . S
C320 C321 1.443 . S
C320 C347 1.389 . S
C321 C320 1.443 . S
C321 C322 1.340 . S
C321 H353 0.951 . S
C322 C321 1.340 . S
C322 C323 1.439 . S
C322 H354 0.950 . S
C323 N319 1.374 . S
C323 C322 1.439 . S
C323 C348 1.395 . S
N324 Co313 1.995 . S
N324 C325 1.376 . S
N324 C328 1.383 1_545 S
C325 N324 1.376 . S
C325 C326 1.446 1_545 S
C325 C348 1.391 . S
C326 C325 1.446 1_565 S
C326 C327 1.339 . S
C326 H355 0.949 . S
C327 C326 1.339 . S
C327 C328 1.439 . S
C327 H356 0.950 . S
C328 N324 1.383 1_565 S
C328 C327 1.439 . S
C328 C346 1.392 . S
N329 Co313 2.282 . S
N329 C332 1.332 . S
N329 C334 1.332 . S
C330 C331 1.386 . S
C330 C333 1.388 . S
C331 C330 1.386 . S
C331 C332 1.382 . S
C331 H357 0.950 . S
C332 N329 1.332 . S
C332 C331 1.382 . S
C332 H343 0.952 . S
C333 C330 1.388 . S
C333 C334 1.382 . S
C333 H358 0.950 . S
C334 N329 1.332 . S
C334 C333 1.382 . S
C334 H344 0.948 . S
N335 Co313 2.282 . S
N335 C339 1.332 . S
N335 C340 1.332 1_545 S
C336 C337 1.388 . S
C336 C340 1.382 . S
C336 H359 0.950 . S
C337 C336 1.388 . S
C337 C338 1.386 1_565 S
C338 C337 1.386 1_545 S
C338 C339 1.382 . S
C338 H360 0.950 . S
C339 N335 1.332 . S
C339 C338 1.382 . S
C339 H341 0.952 . S
C340 N335 1.332 1_565 S
C340 C336 1.382 . S
C340 H342 0.948 . S
H341 C339 0.952 . S
H342 C340 0.948 . S
H343 C332 0.952 . S
H344 C334 0.948 . S
C345 C311 1.395 . S
C345 C315 1.391 . S
C346 C308 1.389 1_565 S
C346 C328 1.392 . S
C347 C318 1.392 . S
C347 C320 1.389 . S
C348 C323 1.395 . S
C348 C325 1.391 . S
H349 C309 0.951 . S
H350 C310 0.950 . S
H351 C316 0.949 . S
H352 C317 0.950 . S
H353 C321 0.951 . S
H354 C322 0.950 . S
H355 C326 0.949 . S
H356 C327 0.950 . S
H357 C331 0.950 . S
H358 C333 0.950 . S
H359 C336 0.950 . S
H360 C338 0.950 . S
C361 C362 1.443 . S
C361 N365 1.376 . S
C361 C399 1.389 . S
C362 C361 1.443 . S
C362 C363 1.340 . S
C362 H402 0.951 . S
C363 C362 1.340 . S
C363 C364 1.439 . S
C363 H403 0.950 . S
C364 C363 1.439 . S
C364 N365 1.374 . S
C364 C398 1.395 . S
N365 C361 1.376 . S
N365 C364 1.374 . S
N365 Co366 2.008 . S
Co366 N365 2.008 . S
Co366 N367 1.995 . S
Co366 N372 2.008 . S
Co366 N377 1.995 . S
Co366 N382 2.282 . S
Co366 N388 2.282 . S
N367 Co366 1.995 . S
N367 C368 1.376 . S
N367 C371 1.383 . S
C368 N367 1.376 . S
C368 C369 1.446 . S
C368 C398 1.391 . S
C369 C368 1.446 . S
C369 C370 1.339 . S
C369 H404 0.949 . S
C370 C369 1.339 . S
C370 C371 1.439 . S
C370 H405 0.950 . S
C371 N367 1.383 . S
C371 C370 1.439 . S
C371 C400 1.392 . S
N372 Co366 2.008 . S
N372 C373 1.376 . S
N372 C376 1.374 . S
C373 N372 1.376 . S
C373 C374 1.443 . S
C373 C400 1.389 . S
C374 C373 1.443 . S
C374 C375 1.340 . S
C374 H406 0.951 . S
C375 C374 1.340 . S
C375 C376 1.439 . S
C375 H407 0.950 . S
C376 N372 1.374 . S
C376 C375 1.439 . S
C376 C401 1.395 . S
N377 Co366 1.995 . S
N377 C378 1.376 . S
N377 C381 1.383 . S
C378 N377 1.376 . S
C378 C379 1.446 . S
C378 C401 1.391 . S
C379 C378 1.446 . S
C379 C380 1.339 . S
C379 H408 0.949 . S
C380 C379 1.339 . S
C380 C381 1.439 . S
C380 H409 0.950 . S
C381 N377 1.383 . S
C381 C380 1.439 . S
C381 C399 1.392 . S
N382 Co366 2.282 . S
N382 C385 1.332 . S
N382 C387 1.332 . S
C383 C384 1.386 . S
C383 C386 1.388 . S
C384 C383 1.386 . S
C384 C385 1.382 1_556 S
C384 H410 0.950 . S
C385 N382 1.332 . S
C385 C384 1.382 1_554 S
C385 H396 0.952 . S
C386 C383 1.388 . S
C386 C387 1.382 1_556 S
C386 H411 0.950 . S
C387 N382 1.332 . S
C387 C386 1.382 1_554 S
C387 H397 0.948 . S
N388 Co366 2.282 . S
N388 C392 1.332 . S
N388 C393 1.332 . S
C389 C390 1.388 . S
C389 C393 1.382 . S
C389 H412 0.950 . S
C390 C389 1.388 . S
C390 C391 1.386 . S
C391 C390 1.386 . S
C391 C392 1.382 . S
C391 H413 0.950 . S
C392 N388 1.332 . S
C392 C391 1.382 . S
C392 H394 0.952 . S
C393 N388 1.332 . S
C393 C389 1.382 . S
C393 H395 0.948 . S
H394 C392 0.952 . S
H395 C393 0.948 . S
H396 C385 0.952 . S
H397 C387 0.948 . S
C398 C364 1.395 . S
C398 C368 1.391 . S
C399 C361 1.389 . S
C399 C381 1.392 . S
C400 C371 1.392 . S
C400 C373 1.389 . S
C401 C376 1.395 . S
C401 C378 1.391 . S
H402 C362 0.951 . S
H403 C363 0.950 . S
H404 C369 0.949 . S
H405 C370 0.950 . S
H406 C374 0.951 . S
H407 C375 0.950 . S
H408 C379 0.949 . S
H409 C380 0.950 . S
H410 C384 0.950 . S
H411 C386 0.950 . S
H412 C389 0.950 . S
H413 C391 0.950 . S
C414 C415 1.387 . S
C414 H418 0.950 . S
C414 C423 1.390 . S
C415 C414 1.387 . S
C415 C417 1.387 . S
H416 C423 0.950 . S
C417 C415 1.387 . S
C417 C419 1.390 . S
C417 H421 0.950 . S
H418 C414 0.950 . S
C419 C417 1.390 . S
C419 C420 1.387 . S
C419 H422 0.950 . S
C420 C419 1.387 . S
C420 C423 1.387 . S
H421 C417 0.950 . S
H422 C419 0.950 . S
C423 C414 1.390 . S
C423 H416 0.950 . S
C423 C420 1.387 . S
C424 C425 1.387 . S
C424 H428 0.950 . S
C424 C433 1.390 . S
C425 C424 1.387 . S
C425 C427 1.387 . S
H426 C433 0.950 . S
C427 C425 1.387 . S
C427 C429 1.390 . S
C427 H431 0.950 . S
H428 C424 0.950 . S
C429 C427 1.390 . S
C429 C430 1.387 . S
C429 H432 0.950 . S
C430 C429 1.387 . S
C430 C433 1.387 . S
H431 C427 0.950 . S
H432 C429 0.950 . S
C433 C424 1.390 . S
C433 H426 0.950 . S
C433 C430 1.387 . S
C434 C435 1.387 . S
C434 H438 0.950 . S
C434 C443 1.390 . S
C435 C434 1.387 . S
C435 C437 1.387 . S
H436 C443 0.950 . S
C437 C435 1.387 . S
C437 C439 1.390 1_655 S
C437 H441 0.950 . S
H438 C434 0.950 . S
C439 C437 1.390 1_455 S
C439 C440 1.387 . S
C439 H442 0.950 . S
C440 C439 1.387 . S
C440 C443 1.387 1_455 S
H441 C437 0.950 . S
H442 C439 0.950 . S
C443 C434 1.390 . S
C443 H436 0.950 . S
C443 C440 1.387 1_655 S
C444 C445 1.387 . S
C444 H448 0.950 . S
C444 C453 1.390 . S
C445 C444 1.387 . S
C445 C447 1.387 . S
H446 C453 0.950 . S
C447 C445 1.387 . S
C447 C449 1.390 . S
C447 H451 0.950 . S
H448 C444 0.950 . S
C449 C447 1.390 . S
C449 C450 1.387 . S
C449 H452 0.950 . S
C450 C449 1.387 . S
C450 C453 1.387 . S
H451 C447 0.950 . S
H452 C449 0.950 . S
C453 C444 1.390 . S
C453 H446 0.950 . S
C453 C450 1.387 . S
C454 C455 1.387 . S
C454 H458 0.950 . S
C454 C463 1.390 . S
C455 C454 1.387 . S
C455 C457 1.387 . S
H456 C463 0.950 . S
C457 C455 1.387 . S
C457 C459 1.390 . S
C457 H461 0.950 . S
H458 C454 0.950 . S
C459 C457 1.390 . S
C459 C460 1.387 . S
C459 H462 0.950 . S
C460 C459 1.387 . S
C460 C463 1.387 . S
H461 C457 0.950 . S
H462 C459 0.950 . S
C463 C454 1.390 . S
C463 H456 0.950 . S
C463 C460 1.387 . S
C464 C465 1.387 . S
C464 H468 0.950 . S
C464 C473 1.390 . S
C465 C464 1.387 . S
C465 C467 1.387 . S
H466 C473 0.950 . S
C467 C465 1.387 . S
C467 C469 1.390 . S
C467 H471 0.950 . S
H468 C464 0.950 . S
C469 C467 1.390 . S
C469 C470 1.387 . S
C469 H472 0.950 . S
C470 C469 1.387 . S
C470 C473 1.387 . S
H471 C467 0.950 . S
H472 C469 0.950 . S
C473 C464 1.390 . S
C473 H466 0.950 . S
C473 C470 1.387 . S
C474 C475 1.387 . S
C474 H478 0.950 . S
C474 C483 1.390 . S
C475 C474 1.387 . S
C475 C477 1.387 . S
H476 C483 0.950 . S
C477 C475 1.387 . S
C477 C479 1.390 . S
C477 H481 0.950 . S
H478 C474 0.950 . S
C479 C477 1.390 . S
C479 C480 1.387 . S
C479 H482 0.950 . S
C480 C479 1.387 . S
C480 C483 1.387 . S
H481 C477 0.950 . S
H482 C479 0.950 . S
C483 C474 1.390 . S
C483 H476 0.950 . S
C483 C480 1.387 . S
C484 C485 1.387 . S
C484 H488 0.950 . S
C484 C493 1.390 1_556 S
C485 C484 1.387 . S
C485 C487 1.387 . S
H486 C493 0.950 . S
C487 C485 1.387 . S
C487 C489 1.390 . S
C487 H491 0.950 . S
H488 C484 0.950 . S
C489 C487 1.390 . S
C489 C490 1.387 1_556 S
C489 H492 0.950 . S
C490 C489 1.387 1_554 S
C490 C493 1.387 . S
H491 C487 0.950 . S
H492 C489 0.950 . S
C493 C484 1.390 1_554 S
C493 H486 0.950 . S
C493 C490 1.387 . S
C494 C495 1.387 . S
C494 H498 0.950 . S
C494 C503 1.390 . S
C495 C494 1.387 . S
C495 C497 1.387 . S
H496 C503 0.950 . S
C497 C495 1.387 . S
C497 C499 1.390 . S
C497 H501 0.950 . S
H498 C494 0.950 . S
C499 C497 1.390 . S
C499 C500 1.387 . S
C499 H502 0.950 . S
C500 C499 1.387 . S
C500 C503 1.387 . S
H501 C497 0.950 . S
H502 C499 0.950 . S
C503 C494 1.390 . S
C503 H496 0.950 . S
C503 C500 1.387 . S
C504 C505 1.387 . S
C504 H508 0.950 . S
C504 C513 1.390 . S
C505 C504 1.387 . S
C505 C507 1.387 . S
H506 C513 0.950 . S
C507 C505 1.387 . S
C507 C509 1.390 . S
C507 H511 0.950 . S
H508 C504 0.950 . S
C509 C507 1.390 . S
C509 C510 1.387 . S
C509 H512 0.950 . S
C510 C509 1.387 . S
C510 C513 1.387 . S
H511 C507 0.950 . S
H512 C509 0.950 . S
C513 C504 1.390 . S
C513 H506 0.950 . S
C513 C510 1.387 . S
C514 C515 1.387 . S
C514 H518 0.950 . S
C514 C523 1.390 . S
C515 C514 1.387 . S
C515 C517 1.387 . S
H516 C523 0.950 . S
C517 C515 1.387 . S
C517 C519 1.390 . S
C517 H521 0.950 . S
H518 C514 0.950 . S
C519 C517 1.390 . S
C519 C520 1.387 . S
C519 H522 0.950 . S
C520 C519 1.387 . S
C520 C523 1.387 . S
H521 C517 0.950 . S
H522 C519 0.950 . S
C523 C514 1.390 . S
C523 H516 0.950 . S
C523 C520 1.387 . S
C524 C525 1.387 . S
C524 H528 0.950 . S
C524 C533 1.390 . S
C525 C524 1.387 . S
C525 C527 1.387 . S
H526 C533 0.950 . S
C527 C525 1.387 . S
C527 C529 1.390 . S
C527 H531 0.950 . S
H528 C524 0.950 . S
C529 C527 1.390 . S
C529 C530 1.387 . S
C529 H532 0.950 . S
C530 C529 1.387 . S
C530 C533 1.387 . S
H531 C527 0.950 . S
H532 C529 0.950 . S
C533 C524 1.390 . S
C533 H526 0.950 . S
C533 C530 1.387 . S
C534 C535 1.387 . S
C534 H538 0.950 . S
C534 C543 1.390 . S
C535 C534 1.387 . S
C535 C537 1.387 . S
H536 C543 0.950 . S
C537 C535 1.387 . S
C537 C539 1.390 . S
C537 H541 0.950 . S
H538 C534 0.950 . S
C539 C537 1.390 . S
C539 C540 1.387 . S
C539 H542 0.950 . S
C540 C539 1.387 . S
C540 C543 1.387 . S
H541 C537 0.950 . S
H542 C539 0.950 . S
C543 C534 1.390 . S
C543 H536 0.950 . S
C543 C540 1.387 . S
C544 C545 1.387 . S
C544 H548 0.950 . S
C544 C553 1.390 . S
C545 C544 1.387 . S
C545 C547 1.387 . S
H546 C553 0.950 . S
C547 C545 1.387 . S
C547 C549 1.390 . S
C547 H551 0.950 . S
H548 C544 0.950 . S
C549 C547 1.390 . S
C549 C550 1.387 . S
C549 H552 0.950 . S
C550 C549 1.387 . S
C550 C553 1.387 . S
H551 C547 0.950 . S
H552 C549 0.950 . S
C553 C544 1.390 . S
C553 H546 0.950 . S
C553 C550 1.387 . S
C554 C555 1.387 . S
C554 H558 0.950 . S
C554 C563 1.390 . S
C555 C554 1.387 . S
C555 C557 1.387 . S
H556 C563 0.950 . S
C557 C555 1.387 . S
C557 C559 1.390 . S
C557 H561 0.950 . S
H558 C554 0.950 . S
C559 C557 1.390 . S
C559 C560 1.387 . S
C559 H562 0.950 . S
C560 C559 1.387 . S
C560 C563 1.387 . S
H561 C557 0.950 . S
H562 C559 0.950 . S
C563 C554 1.390 . S
C563 H556 0.950 . S
C563 C560 1.387 . S
C564 C565 1.387 . S
C564 H568 0.950 . S
C564 C573 1.390 . S
C565 C564 1.387 . S
C565 C567 1.387 . S
H566 C573 0.950 . S
C567 C565 1.387 . S
C567 C569 1.390 . S
C567 H571 0.950 . S
H568 C564 0.950 . S
C569 C567 1.390 . S
C569 C570 1.387 . S
C569 H572 0.950 . S
C570 C569 1.387 . S
C570 C573 1.387 . S
H571 C567 0.950 . S
H572 C569 0.950 . S
C573 C564 1.390 . S
C573 H566 0.950 . S
C573 C570 1.387 . S
C574 C575 1.387 . S
C574 H578 0.950 . S
C574 C583 1.390 . S
C575 C574 1.387 . S
C575 C577 1.387 . S
H576 C583 0.950 . S
C577 C575 1.387 . S
C577 C579 1.390 . S
C577 H581 0.950 . S
H578 C574 0.950 . S
C579 C577 1.390 . S
C579 C580 1.387 . S
C579 H582 0.950 . S
C580 C579 1.387 . S
C580 C583 1.387 . S
H581 C577 0.950 . S
H582 C579 0.950 . S
C583 C574 1.390 . S
C583 H576 0.950 . S
C583 C580 1.387 . S
C584 C585 1.387 . S
C584 H588 0.950 . S
C584 C593 1.390 . S
C585 C584 1.387 . S
C585 C587 1.387 . S
H586 C593 0.950 . S
C587 C585 1.387 . S
C587 C589 1.390 . S
C587 H591 0.950 . S
H588 C584 0.950 . S
C589 C587 1.390 . S
C589 C590 1.387 . S
C589 H592 0.950 . S
C590 C589 1.387 . S
C590 C593 1.387 . S
H591 C587 0.950 . S
H592 C589 0.950 . S
C593 C584 1.390 . S
C593 H586 0.950 . S
C593 C590 1.387 . S
C594 C595 1.387 . S
C594 H598 0.950 . S
C594 C603 1.390 . S
C595 C594 1.387 . S
C595 C597 1.387 . S
H596 C603 0.950 . S
C597 C595 1.387 . S
C597 C599 1.390 . S
C597 H601 0.950 . S
H598 C594 0.950 . S
C599 C597 1.390 . S
C599 C600 1.387 . S
C599 H602 0.950 . S
C600 C599 1.387 . S
C600 C603 1.387 . S
H601 C597 0.950 . S
H602 C599 0.950 . S
C603 C594 1.390 . S
C603 H596 0.950 . S
C603 C600 1.387 . S
C604 C605 1.387 . S
C604 H608 0.950 . S
C604 C613 1.390 . S
C605 C604 1.387 . S
C605 C607 1.387 . S
H606 C613 0.950 . S
C607 C605 1.387 . S
C607 C609 1.390 . S
C607 H611 0.950 . S
H608 C604 0.950 . S
C609 C607 1.390 . S
C609 C610 1.387 . S
C609 H612 0.950 . S
C610 C609 1.387 . S
C610 C613 1.387 . S
H611 C607 0.950 . S
H612 C609 0.950 . S
C613 C604 1.390 . S
C613 H606 0.950 . S
C613 C610 1.387 . S
C614 C615 1.387 . S
C614 H618 0.950 . S
C614 C623 1.390 . S
C615 C614 1.387 . S
C615 C617 1.387 . S
H616 C623 0.950 . S
C617 C615 1.387 . S
C617 C619 1.390 . S
C617 H621 0.950 . S
H618 C614 0.950 . S
C619 C617 1.390 . S
C619 C620 1.387 . S
C619 H622 0.950 . S
C620 C619 1.387 . S
C620 C623 1.387 . S
H621 C617 0.950 . S
H622 C619 0.950 . S
C623 C614 1.390 . S
C623 H616 0.950 . S
C623 C620 1.387 . S
C624 C625 1.387 . S
C624 H628 0.950 . S
C624 C633 1.390 . S
C625 C624 1.387 . S
C625 C627 1.387 . S
H626 C633 0.950 . S
C627 C625 1.387 . S
C627 C629 1.390 . S
C627 H631 0.950 . S
H628 C624 0.950 . S
C629 C627 1.390 . S
C629 C630 1.387 . S
C629 H632 0.950 . S
C630 C629 1.387 . S
C630 C633 1.387 . S
H631 C627 0.950 . S
H632 C629 0.950 . S
C633 C624 1.390 . S
C633 H626 0.950 . S
C633 C630 1.387 . S
C634 C635 1.387 . S
C634 H638 0.950 . S
C634 C643 1.390 . S
C635 C634 1.387 . S
C635 C637 1.387 . S
H636 C643 0.950 . S
C637 C635 1.387 . S
C637 C639 1.390 . S
C637 H641 0.950 . S
H638 C634 0.950 . S
C639 C637 1.390 . S
C639 C640 1.387 . S
C639 H642 0.950 . S
C640 C639 1.387 . S
C640 C643 1.387 . S
H641 C637 0.950 . S
H642 C639 0.950 . S
C643 C634 1.390 . S
C643 H636 0.950 . S
C643 C640 1.387 . S
C644 C645 1.387 . S
C644 H648 0.950 . S
C644 C653 1.390 . S
C645 C644 1.387 . S
C645 C647 1.387 . S
H646 C653 0.950 . S
C647 C645 1.387 . S
C647 C649 1.390 . S
C647 H651 0.950 . S
H648 C644 0.950 . S
C649 C647 1.390 . S
C649 C650 1.387 . S
C649 H652 0.950 . S
C650 C649 1.387 . S
C650 C653 1.387 . S
H651 C647 0.950 . S
H652 C649 0.950 . S
C653 C644 1.390 . S
C653 H646 0.950 . S
C653 C650 1.387 . S
C420 C118 1.635 . S
C415 C6 1.642 . S
C430 C187 1.468 . S
C425 C18 1.448 . S
C440 C125 1.585 . S
C435 C28 1.591 . S
C450 C188 1.530 . S
C445 C45 1.523 . S
C460 C241 1.524 . S
C455 C4 1.543 . S
C470 C277 1.738 . S
C465 C21 1.760 . S
C475 C33 1.628 . S
C480 C337 1.642 . S
C490 C400 1.683 . S
C485 C40 1.668 . S
C500 C240 1.650 . S
C495 C16 1.651 . S
C505 C30 1.716 . S
C510 C284 1.688 . S
C520 C330 1.599 . S
C515 C42 1.594 . S
C530 C399 1.659 . S
C525 C9 1.654 . S
C535 C52 1.557 . S
C540 C178 1.560 . S
C550 C135 1.681 1_655 S
C545 C69 1.693 . S
C555 C78 1.452 . S
C560 C171 1.452 . S
C565 C93 1.497 . S
C570 C134 1.530 . S
C580 C346 1.661 . S
C575 C57 1.643 . S
C590 C390 1.664 . S
C585 C66 1.675 . S
C600 C224 1.500 . S
C595 C76 1.527 . S
C605 C88 1.613 . S
C610 C293 1.576 . S
C620 C347 1.608 . S
C615 C64 1.590 . S
C630 C383 1.639 . S
C625 C81 1.632 . S
C640 C231 1.498 . S
C635 C90 1.505 . S
C645 C54 1.675 . S
C650 C294 1.653 . S
