# Generated by pormake.
# Topology zzz, (3,6)-cn, num edge types: 1
# Building blocks:
#     Node 0, Type 0, BuildingBlock: BETDIP_clean_linker_0, # of connection points: 3
#     Node 1, Type 0, BuildingBlock: BETDIP_clean_linker_0, # of connection points: 3
#     Node 2, Type 0, BuildingBlock: BETDIP_clean_linker_0, # of connection points: 3
#     Node 3, Type 0, BuildingBlock: BETDIP_clean_linker_0, # of connection points: 3
#     Node 4, Type 0, BuildingBlock: BETDIP_clean_linker_0, # of connection points: 3
#     Node 5, Type 0, BuildingBlock: BETDIP_clean_linker_0, # of connection points: 3
#     Node 6, Type 0, BuildingBlock: BETDIP_clean_linker_0, # of connection points: 3
#     Node 7, Type 0, BuildingBlock: BETDIP_clean_linker_0, # of connection points: 3
#     Node 8, Type 1, BuildingBlock: KUMJIN_clean_sbu_0, # of connection points: 6
#     Node 9, Type 1, BuildingBlock: KUMJIN_clean_sbu_0, # of connection points: 6
#     Node 10, Type 1, BuildingBlock: KUMJIN_clean_sbu_0, # of connection points: 6
#     Node 11, Type 1, BuildingBlock: KUMJIN_clean_sbu_0, # of connection points: 6
#     Edge 12, Type (0, 1), BuildingBlock: TEMPAE_clean_linker_10, # of connection points: 2
#     Edge 13, Type (0, 1), BuildingBlock: TEMPAE_clean_linker_10, # of connection points: 2
#     Edge 14, Type (0, 1), BuildingBlock: TEMPAE_clean_linker_10, # of connection points: 2
#     Edge 15, Type (0, 1), BuildingBlock: TEMPAE_clean_linker_10, # of connection points: 2
#     Edge 16, Type (0, 1), BuildingBlock: TEMPAE_clean_linker_10, # of connection points: 2
#     Edge 17, Type (0, 1), BuildingBlock: TEMPAE_clean_linker_10, # of connection points: 2
#     Edge 18, Type (0, 1), BuildingBlock: TEMPAE_clean_linker_10, # of connection points: 2
#     Edge 19, Type (0, 1), BuildingBlock: TEMPAE_clean_linker_10, # of connection points: 2
#     Edge 20, Type (0, 1), BuildingBlock: TEMPAE_clean_linker_10, # of connection points: 2
#     Edge 21, Type (0, 1), BuildingBlock: TEMPAE_clean_linker_10, # of connection points: 2
#     Edge 22, Type (0, 1), BuildingBlock: TEMPAE_clean_linker_10, # of connection points: 2
#     Edge 23, Type (0, 1), BuildingBlock: TEMPAE_clean_linker_10, # of connection points: 2
#     Edge 24, Type (0, 1), BuildingBlock: TEMPAE_clean_linker_10, # of connection points: 2
#     Edge 25, Type (0, 1), BuildingBlock: TEMPAE_clean_linker_10, # of connection points: 2
#     Edge 26, Type (0, 1), BuildingBlock: TEMPAE_clean_linker_10, # of connection points: 2
#     Edge 27, Type (0, 1), BuildingBlock: TEMPAE_clean_linker_10, # of connection points: 2
#     Edge 28, Type (0, 1), BuildingBlock: TEMPAE_clean_linker_10, # of connection points: 2
#     Edge 29, Type (0, 1), BuildingBlock: TEMPAE_clean_linker_10, # of connection points: 2
#     Edge 30, Type (0, 1), BuildingBlock: TEMPAE_clean_linker_10, # of connection points: 2
#     Edge 31, Type (0, 1), BuildingBlock: TEMPAE_clean_linker_10, # of connection points: 2
#     Edge 32, Type (0, 1), BuildingBlock: TEMPAE_clean_linker_10, # of connection points: 2
#     Edge 33, Type (0, 1), BuildingBlock: TEMPAE_clean_linker_10, # of connection points: 2
#     Edge 34, Type (0, 1), BuildingBlock: TEMPAE_clean_linker_10, # of connection points: 2
#     Edge 35, Type (0, 1), BuildingBlock: TEMPAE_clean_linker_10, # of connection points: 2
# Relax obj value: 0.176
# Max RMSD: 0.163
# Mean RMSD: 0.115
data_MOF--net-zzz--node1-KUMJIN_clean_sbu_0--node2-BETDIP_clean_linker_0--edge1-TEMPAE_clean_linker_10
_symmetry_space_group_name_H-M    P1
_symmetry_Int_Tables_number       1
_symmetry_cell_setting            triclinic
loop_
_symmetry_equiv_pos_as_xyz
'x, y, z'
_cell_length_a     51.22618
_cell_length_b     51.026282
_cell_length_c     14.840678
_cell_angle_alpha  90.530801
_cell_angle_beta   90.051085
_cell_angle_gamma 89.961522
loop_
_atom_site_label
_atom_site_type_symbol
_atom_site_fract_x
_atom_site_fract_y
_atom_site_fract_z
_atom_type_partial_charge
H0 H 0.76394 0.54383 0.34832 0.0
H1 H 0.75191 0.58768 0.10499 0.0
H2 H 0.82352 0.59589 0.25268 0.0
H3 H 0.70628 0.59152 0.21219 0.0
C4 C 0.70641 0.57104 0.19127 0.0
C5 C 0.77053 0.55844 0.30105 0.0
C6 C 0.79571 0.56984 0.31136 0.0
C7 C 0.75377 0.56641 0.22963 0.0
C8 C 0.76346 0.58371 0.16457 0.0
C9 C 0.78896 0.59352 0.1704 0.0
C10 C 0.80386 0.58821 0.2476 0.0
N11 N 0.72832 0.55526 0.21689 0.0
H12 H 0.02135 0.78545 0.29594 0.0
H13 H 0.96232 0.75808 0.11088 0.0
H14 H 0.95928 0.83669 0.21386 0.0
H15 H 0.97064 0.71851 0.21268 0.0
C16 C 0.98984 0.71929 0.18163 0.0
C17 C 1.00342 0.78885 0.25924 0.0
C18 C 0.99132 0.8141 0.26289 0.0
C19 C 0.99229 0.7681 0.20609 0.0
C20 C 0.96997 0.77337 0.15432 0.0
C21 C 0.95929 0.79863 0.14996 0.0
C22 C 0.96853 0.8177 0.21136 0.0
N23 N 1.00476 0.74293 0.19502 0.0
H24 H 0.76393 0.03343 0.32415 0.0
H25 H 0.79113 0.9746 0.13695 0.0
H26 H 0.7129 0.97134 0.23827 0.0
H27 H 0.82968 0.9817 0.24804 0.0
C28 C 0.82957 1.00113 0.21849 0.0
C29 C 0.76052 1.01547 0.28654 0.0
C30 C 0.73545 1.00355 0.2877 0.0
C31 C 0.78113 1.00419 0.23482 0.0
C32 C 0.77589 0.98208 0.18051 0.0
C33 C 0.75072 0.97135 0.17479 0.0
C34 C 0.73184 0.98056 0.23627 0.0
N35 N 0.80626 0.01643 0.22848 0.0
H36 H 0.54439 0.79805 0.4619 0.0
H37 H 0.51364 0.81008 0.19391 0.0
H38 H 0.49707 0.73895 0.3328 0.0
H39 H 0.56542 0.82306 0.2017 0.0
C40 C 0.55595 0.83909 0.2378 0.0
C41 C 0.53259 0.79146 0.40557 0.0
C42 C 0.52011 0.76647 0.40846 0.0
C43 C 0.53007 0.80753 0.32756 0.0
C44 C 0.51531 0.79834 0.25416 0.0
C45 C 0.50326 0.77392 0.25631 0.0
C46 C 0.50546 0.75847 0.33345 0.0
N47 N 0.54268 0.83249 0.31959 0.0
H48 H 0.28594 0.51209 0.9585 0.0
H49 H 0.28632 0.4783 0.22455 0.0
H50 H 0.21873 0.47055 0.05715 0.0
H51 H 0.30673 0.52357 0.23551 0.0
C52 C 0.3227 0.51589 0.19478 0.0
C53 C 0.27667 0.50032 0.00967 0.0
C54 C 0.25066 0.49119 0.99638 0.0
C55 C 0.29016 0.49501 0.09166 0.0
C56 C 0.27706 0.4812 0.15971 0.0
C57 C 0.25156 0.47221 0.14671 0.0
C58 C 0.23901 0.47643 0.06444 0.0
N59 N 0.31608 0.50463 0.10885 0.0
H60 H 0.04687 0.27864 0.97964 0.0
H61 H 0.03402 0.29193 0.2639 0.0
H62 H 0.02609 0.2145 0.15116 0.0
H63 H 0.07837 0.32325 0.20087 0.0
C64 C 0.0604 0.33176 0.17552 0.0
C65 C 0.04265 0.27114 0.04606 0.0
C66 C 0.03786 0.24382 0.05752 0.0
C67 C 0.04189 0.28868 0.12184 0.0
C68 C 0.03552 0.27866 0.20667 0.0
C69 C 0.02952 0.25211 0.21742 0.0
C70 C 0.03125 0.23497 0.1433 0.0
N71 N 0.04499 0.31653 0.11323 0.0
H72 H 0.27605 0.05195 0.98471 0.0
H73 H 0.26258 1.01355 0.2388 0.0
H74 H 0.33987 0.01685 0.12988 0.0
H75 H 0.22544 0.99961 0.1408 0.0
C76 C 0.21957 0.0201 0.14013 0.0
C77 C 0.2833 0.04129 0.04232 0.0
C78 C 0.31036 0.03532 0.04916 0.0
C79 C 0.26565 0.03299 0.11048 0.0
C80 C 0.27556 0.01931 0.18486 0.0
C81 C 0.30215 1.0137 0.19231 0.0
C82 C 0.31928 0.02164 0.1245 0.0
N83 N 0.2382 0.03859 0.1067 0.0
H84 H 0.50524 0.26087 0.88537 0.0
H85 H 0.54012 0.24474 0.14419 0.0
H86 H 0.55246 0.31906 0.01939 0.0
H87 H 0.5467 0.20065 1.0082 0.0
C88 C 0.52726 0.20128 0.03749 0.0
C89 C 0.51749 0.26689 0.9413 0.0
C90 C 0.52938 0.29215 0.94138 0.0
C91 C 0.52236 0.24919 0.01349 0.0
C92 C 0.53757 0.25752 0.08687 0.0
C93 C 0.54827 0.28261 0.08939 0.0
C94 C 0.54464 0.29933 0.01598 0.0
N95 N 0.51128 0.22347 0.01651 0.0
Eu96 Eu 0.04291 0.02117 0.7388 0.0
C97 C 0.98036 1.00104 0.40276 0.0
C98 C 0.99885 0.0199 0.26795 0.0
C99 C 0.97403 0.97949 0.25729 0.0
C100 C 0.99489 0.02034 0.3621 0.0
C101 C 0.96881 0.98098 0.35009 0.0
C102 C 0.9891 0.99889 0.21627 0.0
C103 C 0.94477 0.96778 0.48165 0.0
N104 N 0.97535 1.00334 0.49226 0.0
C105 C 0.95695 0.98775 0.53121 0.0
C106 C 0.95116 0.96398 0.39118 0.0
Eu107 Eu 0.99553 0.0385 0.57183 0.0
N108 N 1.00324 0.04077 0.41355 0.0
C109 C 1.01362 0.06254 0.37372 0.0
C110 C 1.01136 0.04119 0.22799 0.0
C111 C 0.0184 0.06281 0.28093 0.0
H112 H 0.95161 0.99036 0.60085 0.0
H113 H 0.02741 0.07971 0.2503 0.0
H114 H 0.99211 0.99808 0.14401 0.0
H115 H 0.93048 0.95528 0.51343 0.0
H116 H 0.01913 0.07931 0.41448 0.0
H117 H 0.03628 0.07404 0.06147 0.0
H118 H 0.01474 0.0415 0.15599 0.0
H119 H 0.10072 1.00111 0.65099 0.0
H120 H 0.02396 0.04079 0.94812 0.0
H121 H 0.14627 0.01659 0.64311 0.0
H122 H 0.96566 0.96398 0.21612 0.0
H123 H 0.07579 0.10092 0.03973 0.0
H124 H 0.11726 0.10823 0.95354 0.0
H125 H 0.94163 0.94853 0.35292 0.0
H126 H 0.14802 0.09192 0.83885 0.0
N127 N 0.05463 0.05053 0.85757 0.0
C128 C 0.04062 0.05306 0.93549 0.0
C129 C 0.07017 0.08673 0.98854 0.0
C130 C 0.08613 0.08175 0.91397 0.0
C131 C 0.04786 0.07155 1.0011 0.0
C132 C 0.07797 0.06286 0.84978 0.0
H133 H 0.15946 0.05682 0.72557 0.0
N134 N 0.08791 0.03287 0.73418 0.0
C135 C 0.13209 0.02734 0.68293 0.0
C136 C 0.09531 0.05361 0.78588 0.0
C137 C 0.10626 0.0186 0.68773 0.0
C138 C 0.13941 0.05016 0.72903 0.0
C139 C 0.12117 0.06312 0.7837 0.0
O140 O 0.06607 0.99515 0.82395 0.0
O141 O 0.01522 1.00373 0.6346 0.0
O142 O 0.9765 0.01915 0.69409 0.0
O143 O 1.00424 0.03323 0.80584 0.0
O144 O 0.05355 0.99101 0.63144 0.0
O145 O 0.02474 0.98907 0.81206 0.0
O146 O 0.95457 0.04462 0.60974 0.0
O147 O 0.01657 0.05345 0.69627 0.0
O148 O 0.06364 0.04063 0.61952 0.0
O149 O 0.03491 0.03362 0.5012 0.0
O150 O 0.015 0.07868 0.59043 0.0
O151 O 0.97302 0.07098 0.51777 0.0
C152 C 0.03081 0.98757 0.59645 0.0
C153 C 0.05088 0.95153 0.80593 0.0
C154 C 0.0331 0.90772 0.78611 0.0
C155 C 0.03091 0.9333 0.82001 0.0
C156 C 0.05543 0.90018 0.73799 0.0
C157 C 0.07313 0.94389 0.75655 0.0
C158 C 0.07529 0.91833 0.72266 0.0
C159 C 0.98079 0.02521 0.77969 0.0
C160 C 0.04689 0.97889 0.8355 0.0
C161 C 0.12842 0.08398 0.84078 0.0
C162 C 0.11089 0.09331 0.90599 0.0
C163 C 0.02284 0.07634 0.67233 0.0
C164 C 0.94375 0.08985 0.62145 0.0
C165 C 0.94527 0.11467 0.58235 0.0
C166 C 0.94049 0.13743 0.63324 0.0
C167 C 0.93305 0.13521 0.72386 0.0
C168 C 0.93577 0.08782 0.71181 0.0
C169 C 0.9303 0.11044 0.76238 0.0
C170 C 0.05848 0.0393 0.53207 0.0
C171 C 0.95287 0.06692 0.56875 0.0
H172 H 1.01369 0.93894 0.85805 0.0
H173 H 0.05759 0.88025 0.71341 0.0
H174 H 0.08868 0.95766 0.74304 0.0
H175 H 0.09244 0.91255 0.68485 0.0
H176 H 0.95189 0.11637 0.51321 0.0
H177 H 0.92969 0.15257 0.76481 0.0
H178 H 0.93434 0.06892 0.74398 0.0
H179 H 0.92456 0.10879 0.83229 0.0
Eu180 Eu 0.5341 0.05708 0.76368 0.0
C181 C 0.56035 0.98388 0.47963 0.0
C182 C 0.55029 0.99532 0.32524 0.0
C183 C 0.58889 0.96946 0.35773 0.0
C184 C 0.54436 0.99629 0.41815 0.0
C185 C 0.58217 0.96935 0.44938 0.0
C186 C 0.57319 0.98279 0.29597 0.0
C187 C 0.58762 0.95347 0.60093 0.0
N188 N 0.55336 0.98408 0.5679 0.0
C189 C 0.56623 0.96862 0.6281 0.0
C190 C 0.59586 0.95411 0.51141 0.0
Eu191 Eu 0.51448 1.00662 0.60653 0.0
N192 N 0.5217 1.00701 0.448 0.0
C193 C 0.50275 1.01399 0.3875 0.0
C194 C 0.53223 1.00548 0.26396 0.0
C195 C 0.50807 1.0143 0.29514 0.0
H196 H 0.56003 0.96768 0.69715 0.0
H197 H 0.49341 0.02102 0.24811 0.0
H198 H 0.57826 0.98227 0.22519 0.0
H199 H 0.59783 0.94143 0.64921 0.0
H200 H 0.48378 0.02028 0.41129 0.0
H201 H 0.48372 0.02536 0.07087 0.0
H202 H 0.53613 1.0052 0.19218 0.0
H203 H 0.53814 0.11935 0.69179 0.0
H204 H 0.51557 0.02292 0.95018 0.0
H205 H 0.51385 0.16093 0.70286 0.0
H206 H 0.60581 0.95876 0.33358 0.0
H207 H 0.45436 0.06353 0.08387 0.0
H208 H 0.44223 0.10828 0.03139 0.0
H209 H 0.61249 0.94242 0.49059 0.0
H210 H 0.44932 0.14471 0.9277 0.0
N211 N 0.50321 0.05799 0.88502 0.0
C212 C 0.50235 0.03914 0.95008 0.0
C213 C 0.46793 0.06222 0.02805 0.0
C214 C 0.47006 0.08243 0.96573 0.0
C215 C 0.48445 0.04067 0.02093 0.0
C216 C 0.48812 0.07977 0.89415 0.0
H217 H 0.47591 0.16456 0.80496 0.0
N218 N 0.51213 0.09834 0.77639 0.0
C219 C 0.5073 0.144 0.73999 0.0
C220 C 0.49253 0.1005 0.83726 0.0
C221 C 0.52072 0.12025 0.7326 0.0
C222 C 0.48592 0.14595 0.79752 0.0
C223 C 0.47888 0.12437 0.84951 0.0
O224 O 0.55919 0.08827 0.8166 0.0
O225 O 0.54989 0.02746 0.66262 0.0
O226 O 0.51765 0.98832 0.74603 0.0
O227 O 0.54349 0.01739 0.82716 0.0
O228 O 0.56234 0.06629 0.65241 0.0
O229 O 0.5648 0.0489 0.86181 0.0
O230 O 0.5082 0.96452 0.62176 0.0
O231 O 0.50112 0.03048 0.7267 0.0
O232 O 0.52073 0.07719 0.63218 0.0
O233 O 0.51489 0.04424 0.5245 0.0
O234 O 0.47669 0.02974 0.61543 0.0
O235 O 0.47983 0.98763 0.55039 0.0
C236 C 0.56514 0.04292 0.62025 0.0
C237 C 0.60268 0.07346 0.82967 0.0
C238 C 0.64521 0.05252 0.81662 0.0
C239 C 0.6192 0.05201 0.8452 0.0
C240 C 0.65491 0.07455 0.77203 0.0
C241 C 0.61262 0.09546 0.78451 0.0
C242 C 0.63857 0.09587 0.75553 0.0
C243 C 0.5323 0.99419 0.81676 0.0
C244 C 0.57492 0.07216 0.85625 0.0
C245 C 0.45992 0.12655 0.91726 0.0
C246 C 0.45578 0.10574 0.97601 0.0
C247 C 0.47916 0.03818 0.69727 0.0
C248 C 0.4639 0.95052 0.6274 0.0
C249 C 0.43946 0.95 0.58542 0.0
C250 C 0.41839 0.93656 0.62382 0.0
C251 C 0.42172 0.92387 0.70636 0.0
C252 C 0.46736 0.93678 0.70822 0.0
C253 C 0.44626 0.9238 0.74789 0.0
C254 C 0.51592 0.06926 0.54818 0.0
C255 C 0.48541 0.96475 0.58325 0.0
H256 H 0.61203 0.03501 0.8809 0.0
H257 H 0.67514 0.07532 0.75099 0.0
H258 H 0.60035 0.11227 0.77098 0.0
H259 H 0.64607 0.11284 0.72087 0.0
H260 H 0.43673 0.96026 0.52236 0.0
H261 H 0.4056 0.91364 0.73742 0.0
H262 H 0.48629 0.93588 0.74022 0.0
H263 H 0.44899 0.91346 0.81053 0.0
Eu264 Eu 0.54791 0.52659 0.58736 0.0
C265 C 0.43601 0.51226 0.73389 0.0
C266 C 0.41158 0.54708 0.66239 0.0
C267 C 0.38865 0.50928 0.72064 0.0
C268 C 0.43562 0.53611 0.68978 0.0
C269 C 0.41241 0.49864 0.74964 0.0
C270 C 0.38819 0.53364 0.67867 0.0
C271 C 0.43665 0.46694 0.83498 0.0
N272 N 0.4591 0.50303 0.76568 0.0
C273 C 0.45925 0.4816 0.821 0.0
C274 C 0.41314 0.47532 0.79817 0.0
Eu275 Eu 0.49581 0.53147 0.75072 0.0
N276 N 0.45852 0.54889 0.67532 0.0
C277 C 0.45852 0.57216 0.62989 0.0
C278 C 0.41162 0.57145 0.62031 0.0
C279 C 0.43522 0.58369 0.60195 0.0
H280 H 0.47682 0.47588 0.85606 0.0
H281 H 0.4355 0.60219 0.56686 0.0
H282 H 0.36959 0.54191 0.65884 0.0
H283 H 0.43725 0.44965 0.87666 0.0
H284 H 0.47627 0.58205 0.61307 0.0
H285 H 0.6119 0.46286 0.7873 0.0
H286 H 0.39355 0.58081 0.60053 0.0
H287 H 0.56454 0.57998 0.46719 0.0
H288 H 0.57083 0.47708 0.72193 0.0
H289 H 0.60229 0.60904 0.44601 0.0
H290 H 0.3704 0.49917 0.73276 0.0
H291 H 0.65162 0.48954 0.76946 0.0
H292 H 0.67282 0.5299 0.71018 0.0
H293 H 0.39547 0.46431 0.81114 0.0
H294 H 0.66978 0.57042 0.62327 0.0
N295 N 0.58612 0.51232 0.66552 0.0
C296 C 0.58761 0.48923 0.71173 0.0
C297 C 0.63339 0.49624 0.74072 0.0
C298 C 0.63201 0.51974 0.69346 0.0
C299 C 0.61107 0.48102 0.75029 0.0
C300 C 0.60785 0.52736 0.65561 0.0
H301 H 0.64365 0.6002 0.52593 0.0
N302 N 0.58311 0.55652 0.5669 0.0
C303 C 0.60359 0.59283 0.49233 0.0
C304 C 0.60619 0.55023 0.60621 0.0
C305 C 0.58213 0.57647 0.50559 0.0
C306 C 0.62687 0.58775 0.53742 0.0
C307 C 0.62864 0.56586 0.59308 0.0
O308 O 0.55202 0.5304 0.44174 0.0
O309 O 0.50441 0.52042 0.60687 0.0
O310 O 0.50259 0.48798 0.72886 0.0
O311 O 0.53627 0.48417 0.62429 0.0
O312 O 0.51619 0.54152 0.4952 0.0
O313 O 0.56801 0.49653 0.50944 0.0
O314 O 0.49133 0.52514 0.89521 0.0
O315 O 0.53905 0.53766 0.73096 0.0
O316 O 0.54124 0.57014 0.60887 0.0
O317 O 0.5089 0.57398 0.71869 0.0
O318 O 0.52759 0.51655 0.84274 0.0
O319 O 0.47644 0.56063 0.83442 0.0
C320 C 0.49633 0.53172 0.5359 0.0
C321 C 0.55433 0.49109 0.35759 0.0
C322 C 0.54613 0.44748 0.296 0.0
C323 C 0.55069 0.46416 0.3699 0.0
C324 C 0.54347 0.45855 0.20963 0.0
C325 C 0.55148 0.50177 0.27136 0.0
C326 C 0.54565 0.48557 0.19799 0.0
C327 C 0.5193 0.47379 0.6816 0.0
C328 C 0.56338 0.50776 0.43236 0.0
C329 C 0.65242 0.55863 0.63256 0.0
C330 C 0.65414 0.53554 0.68204 0.0
C331 C 0.5473 0.52659 0.80197 0.0
C332 C 0.48995 0.56306 0.98716 0.0
C333 C 0.49467 0.58995 0.97961 0.0
C334 C 0.49882 0.60553 0.05652 0.0
C335 C 0.50047 0.59326 0.14118 0.0
C336 C 0.49178 0.55112 0.07171 0.0
C337 C 0.49753 0.56615 0.14812 0.0
C338 C 0.52547 0.58439 0.65978 0.0
C339 C 0.48061 0.54792 0.90907 0.0
H340 H 0.55214 0.45608 0.43692 0.0
H341 H 0.54055 0.44638 0.15036 0.0
H342 H 0.55429 0.52255 0.26046 0.0
H343 H 0.54372 0.49385 0.1314 0.0
H344 H 0.49421 0.59892 0.91379 0.0
H345 H 0.50315 0.60454 0.20259 0.0
H346 H 0.48819 0.53032 0.07891 0.0
H347 H 0.49867 0.55691 0.21341 0.0
Eu348 Eu 0.03382 0.55611 0.57423 0.0
C349 C 0.03253 0.44409 0.71775 0.0
C350 C 1.00325 0.42198 0.6135 0.0
C351 C 0.03562 0.39681 0.69509 0.0
C352 C 1.01239 0.44524 0.6553 0.0
C353 C 0.04406 0.41972 0.73908 0.0
C354 C 0.0151 0.3979 0.63318 0.0
C355 C 0.06841 0.44143 0.85701 0.0
N356 N 0.03967 0.46636 0.76211 0.0
C357 C 0.05581 0.46483 0.83562 0.0
C358 C 0.06285 0.41882 0.8074 0.0
Eu359 Eu 0.01545 0.50487 0.72792 0.0
N360 N 1.00117 0.46881 0.63732 0.0
C361 C 0.98056 0.47017 0.57871 0.0
C362 C 0.98202 0.42346 0.55463 0.0
C363 C 0.97087 0.44768 0.5363 0.0
H364 H 0.05886 0.4818 0.87838 0.0
H365 H 0.95454 0.44902 0.49022 0.0
H366 H 1.00829 0.3799 0.60186 0.0
H367 H 0.08183 0.44071 0.91333 0.0
H368 H 0.97142 0.48845 0.56299 0.0
H369 H 0.09733 0.60936 0.81323 0.0
H370 H 0.97386 0.40599 0.52384 0.0
H371 H 0.98716 0.58148 0.43784 0.0
H372 H 0.07965 0.57102 0.73764 0.0
H373 H 0.96386 0.62277 0.41423 0.0
H374 H 0.04428 0.378 0.71058 0.0
H375 H 0.07822 0.65298 0.78699 0.0
H376 H 0.04477 0.68043 0.71011 0.0
H377 H 0.07217 0.40052 0.82536 0.0
H378 H 1.007 0.68362 0.60954 0.0
N379 N 0.04992 0.59163 0.66559 0.0
C380 C 0.0708 0.5895 0.72299 0.0
C381 C 0.07003 0.63597 0.75317 0.0
C382 C 0.04869 0.6383 0.69527 0.0
C383 C 0.08096 0.61144 0.76765 0.0
C384 C 0.03891 0.61554 0.65178 0.0
H385 H 0.97626 0.66225 0.5016 0.0
N386 N 1.00969 0.5956 0.54917 0.0
C387 C 0.97865 0.62152 0.46618 0.0
C388 C 0.0179 0.61746 0.59354 0.0
C389 C 0.99143 0.59784 0.48189 0.0
C390 C 0.98578 0.64373 0.51525 0.0
C391 C 1.00612 0.64211 0.57771 0.0
O392 O 0.0363 0.5684 0.43432 0.0
O393 O 0.0339 0.51208 0.59265 0.0
O394 O 0.05986 0.50678 0.73472 0.0
O395 O 0.07189 0.53864 0.63128 0.0
O396 O 0.02105 0.52602 0.46977 0.0
O397 O 0.07152 0.56519 0.51388 0.0
O398 O 1.01031 0.49873 0.87236 0.0
O399 O 0.01513 0.54893 0.70929 0.0
O400 O 0.98986 0.55084 0.55878 0.0
O401 O 0.97726 0.5223 0.67204 0.0
O402 O 0.0281 0.53494 0.8323 0.0
O403 O 0.97982 0.48715 0.77833 0.0
C404 C 0.02627 0.50509 0.51423 0.0
C405 C 0.07422 0.55626 0.35784 0.0
C406 C 0.09772 0.51903 0.29263 0.0
C407 C 0.08392 0.5306 0.36478 0.0
C408 C 0.10026 0.53346 0.21204 0.0
C409 C 0.07667 0.5699 0.27701 0.0
C410 C 0.08948 0.55841 0.20419 0.0
C411 C 0.07774 0.52106 0.69372 0.0
C412 C 0.0616 0.5693 0.43426 0.0
C413 C 0.01567 0.66458 0.62151 0.0
C414 C 0.03712 0.66274 0.67908 0.0
C415 C 0.02312 0.55586 0.7874 0.0
C416 C 0.9678 0.49279 0.93026 0.0
C417 C 0.95311 0.51601 0.93168 0.0
C418 C 0.9323 0.5189 0.99297 0.0
C419 C 0.92677 0.49798 0.052 0.0
C420 C 0.96254 0.47282 0.99154 0.0
C421 C 0.94209 0.47545 0.05225 0.0
C422 C 0.97171 0.53803 0.60383 0.0
C423 C 0.98758 0.48774 0.86199 0.0
H424 H 0.08111 0.52012 0.4271 0.0
H425 H 0.11153 0.52623 0.15549 0.0
H426 H 0.06895 0.58958 0.27065 0.0
H427 H 0.09186 0.56917 0.14227 0.0
H428 H 0.95785 0.53142 0.88473 0.0
H429 H 0.91023 0.49856 0.09722 0.0
H430 H 0.97387 0.45487 0.99082 0.0
H431 H 0.93769 0.45971 0.09826 0.0
C432 C 0.18529 1.00817 0.25121 0.0
C433 C 0.19549 0.02703 0.1926 0.0
C434 C 0.16265 1.01289 0.30247 0.0
C435 C 0.14911 0.03696 0.294 0.0
C436 C 0.15911 0.05611 0.23404 0.0
C437 C 0.18237 0.05106 0.18483 0.0
C438 C 0.15328 0.992 0.36625 0.0
C439 C 0.14504 0.08177 0.22108 0.0
C440 C 0.07856 0.03232 0.37795 0.0
C441 C 0.0806 0.04206 0.46661 0.0
C442 C 0.10017 0.0323 0.31884 0.0
C443 C 0.12477 0.04169 0.34919 0.0
C444 C 0.12656 0.05274 0.4371 0.0
C445 C 0.10446 0.05314 0.49381 0.0
C446 C 0.09688 0.02102 0.22518 0.0
C447 C 0.15221 0.06279 0.47355 0.0
H448 H 0.19531 0.98956 0.25785 0.0
H449 H 0.18994 0.06566 0.13921 0.0
H450 H 0.15198 1.00012 0.43574 0.0
H451 H 0.13341 0.98543 0.3466 0.0
H452 H 0.16637 0.97464 0.36699 0.0
H453 H 0.15524 0.09468 0.17263 0.0
H454 H 0.12497 0.07801 0.19593 0.0
H455 H 0.14319 0.09228 0.28652 0.0
H456 H 0.06027 0.02382 0.35541 0.0
H457 H 0.10609 0.06163 0.56071 0.0
H458 H 0.10652 1.00157 0.22123 0.0
H459 H 0.10634 0.03381 0.17472 0.0
H460 H 0.07598 0.01856 0.20678 0.0
H461 H 0.16535 0.04595 0.48673 0.0
H462 H 0.14971 0.07405 0.53739 0.0
H463 H 0.16203 0.07547 0.42365 0.0
C464 C 0.53782 0.15953 0.11635 0.0
C465 C 0.52108 0.18119 0.10771 0.0
C466 C 0.53492 0.14126 0.18633 0.0
C467 C 0.51478 0.14457 0.25091 0.0
C468 C 0.49725 0.16602 0.24116 0.0
C469 C 0.50056 0.18403 0.16975 0.0
C470 C 0.55398 0.11875 0.19247 0.0
C471 C 0.47544 0.17035 0.30778 0.0
C472 C 0.49906 0.08463 0.39674 0.0
C473 C 0.51384 0.08943 0.47509 0.0
C474 C 0.49857 0.10256 0.32457 0.0
C475 C 0.51306 0.12623 0.33032 0.0
C476 C 0.52752 0.13145 0.41016 0.0
C477 C 0.52784 0.11305 0.48077 0.0
C478 C 0.48302 0.09583 0.24109 0.0
C479 C 0.54349 0.15616 0.41992 0.0
H480 H 0.55372 0.15712 0.06879 0.0
H481 H 0.48759 0.20072 0.16424 0.0
H482 H 0.56542 0.12046 0.25577 0.0
H483 H 0.54331 0.09985 0.19464 0.0
H484 H 0.56777 0.11815 0.13476 0.0
H485 H 0.46258 0.18692 0.28856 0.0
H486 H 0.46342 0.15235 0.31328 0.0
H487 H 0.48374 0.17449 0.37551 0.0
H488 H 0.48781 0.06677 0.39157 0.0
H489 H 0.53997 0.1168 0.53908 0.0
H490 H 0.49635 0.09354 0.18268 0.0
H491 H 0.46931 0.11198 0.22508 0.0
H492 H 0.47172 0.07741 0.24862 0.0
H493 H 0.55967 0.15586 0.37026 0.0
H494 H 0.55195 0.15843 0.48852 0.0
H495 H 0.53127 0.17359 0.40541 0.0
C496 C 0.35281 0.53397 0.31101 0.0
C497 C 0.34961 0.51784 0.23485 0.0
C498 C 0.37666 0.53559 0.35771 0.0
C499 C 0.39834 0.52027 0.32997 0.0
C500 C 0.39548 0.50417 0.2516 0.0
C501 C 0.37121 0.50316 0.20483 0.0
C502 C 0.37833 0.5534 0.43862 0.0
C503 C 0.41805 0.48793 0.21755 0.0
C504 C 0.46524 0.54466 0.41329 0.0
C505 C 0.47074 0.52828 0.48677 0.0
C506 C 0.44237 0.54181 0.36095 0.0
C507 C 0.42394 0.52205 0.38179 0.0
C508 C 0.42935 0.50534 0.45597 0.0
C509 C 0.45281 0.50832 0.50628 0.0
C510 C 0.43796 0.56013 0.28306 0.0
C511 C 0.41018 0.48445 0.48296 0.0
H512 H 0.33631 0.54539 0.33501 0.0
H513 H 0.36901 0.49049 0.14633 0.0
H514 H 0.36053 0.56556 0.44806 0.0
H515 H 0.38095 0.5411 0.49873 0.0
H516 H 0.39546 0.56657 0.43322 0.0
H517 H 0.41293 0.47646 0.15604 0.0
H518 H 0.43485 0.50083 0.20204 0.0
H519 H 0.42451 0.4742 0.27068 0.0
H520 H 0.47902 0.55995 0.39632 0.0
H521 H 0.45709 0.49506 0.56094 0.0
H522 H 0.41849 0.56954 0.28825 0.0
H523 H 0.43838 0.54882 0.21886 0.0
H524 H 0.45298 0.57578 0.27992 0.0
H525 H 0.39127 0.49364 0.50143 0.0
H526 H 0.41723 0.47283 0.54109 0.0
H527 H 0.40646 0.471 0.42521 0.0
C528 C 0.0711 0.37908 0.20912 0.0
C529 C 0.05298 0.35843 0.21121 0.0
C530 C 0.06646 0.4032 0.25452 0.0
C531 C 0.04383 0.40653 0.30887 0.0
C532 C 0.02534 0.38566 0.31007 0.0
C533 C 0.03 0.36216 0.2608 0.0
C534 C 0.08598 0.42506 0.24411 0.0
C535 C 1.00132 0.38714 0.36805 0.0
C536 C 0.04813 0.45997 0.49638 0.0
C537 C 0.03093 0.47934 0.46512 0.0
C538 C 0.05189 0.43602 0.44822 0.0
C539 C 0.03952 0.43172 0.36325 0.0
C540 C 0.02337 0.45198 0.32923 0.0
C541 C 0.01897 0.47504 0.38077 0.0
C542 C 0.06897 0.4152 0.48908 0.0
C543 C 1.01099 0.44955 0.23717 0.0
H544 H 0.08912 0.37632 0.17195 0.0
H545 H 0.01626 0.34606 0.26537 0.0
H546 H 0.07586 0.4441 0.23504 0.0
H547 H 0.09819 0.42665 0.30559 0.0
H548 H 0.09915 0.42165 0.1857 0.0
H549 H 0.98623 0.37281 0.34612 0.0
H550 H 1.00705 0.38243 0.43804 0.0
H551 H 0.99262 0.40702 0.36801 0.0
H552 H 0.05843 0.46339 0.55916 0.0
H553 H 1.00618 0.49002 0.35414 0.0
H554 H 0.08712 0.41302 0.44922 0.0
H555 H 0.05876 0.39601 0.48761 0.0
H556 H 0.07446 0.42 0.55974 0.0
H557 H 0.02615 0.44495 0.18597 0.0
H558 H 1.00068 0.46775 0.21705 0.0
H559 H 0.99676 0.43318 0.23632 0.0
C560 C 0.87337 0.99058 0.15394 0.0
C561 C 0.85228 1.00814 0.15957 0.0
C562 C 0.8945 0.99477 0.09511 0.0
C563 C 0.89482 0.01717 0.03939 0.0
C564 C 0.87389 0.03542 0.04631 0.0
C565 C 0.85285 0.03069 0.10607 0.0
C566 C 0.91608 0.97462 0.09057 0.0
C567 C 0.87348 0.0597 0.98913 0.0
C568 C 0.96079 0.03492 0.93274 0.0
C569 C 0.9587 0.02377 0.84601 0.0
C570 C 0.9401 0.03346 0.9955 0.0
C571 C 0.91647 0.02063 0.97146 0.0
C572 C 0.91415 1.00966 0.8836 0.0
C573 C 0.93512 1.01142 0.82229 0.0
C574 C 0.94366 0.04541 0.0881 0.0
C575 C 0.88961 0.99553 0.85471 0.0
H576 H 0.87313 0.97307 0.19479 0.0
H577 H 0.83669 0.04437 0.10959 0.0
H578 H 0.91504 0.96397 0.02513 0.0
H579 H 0.93546 0.98423 0.09419 0.0
H580 H 0.91471 0.9601 0.14569 0.0
H581 H 0.85678 0.07276 1.00586 0.0
H582 H 0.89191 0.07084 0.99818 0.0
H583 H 0.87217 0.05405 0.9169 0.0
H584 H 0.97857 0.04497 0.95178 0.0
H585 H 0.93307 1.00277 0.75571 0.0
H586 H 0.94177 0.03005 0.14012 0.0
H587 H 0.92812 0.06012 0.10117 0.0
H588 H 0.96297 0.05505 0.09618 0.0
H589 H 0.88658 0.97812 0.8977 0.0
H590 H 0.89038 0.98896 0.78318 0.0
H591 H 0.87241 1.0085 0.86386 0.0
C592 C 0.54121 0.88693 0.2238 0.0
C593 C 0.55254 0.8642 0.18679 0.0
C594 C 0.53821 0.90995 0.17168 0.0
C595 C 0.54608 0.91011 0.07958 0.0
C596 C 0.55756 0.88714 0.04272 0.0
C597 C 0.56084 0.86479 0.09659 0.0
C598 C 0.52612 0.93383 0.2153 0.0
C599 C 0.566 0.88593 0.94528 0.0
C600 C 0.51521 0.95623 0.90665 0.0
C601 C 0.53541 0.97403 0.88908 0.0
C602 C 0.51804 0.93613 0.97068 0.0
C603 C 0.54167 0.93362 0.01985 0.0
C604 C 0.56174 0.95238 1.00549 0.0
C605 C 0.55836 0.9723 0.94063 0.0
C606 C 0.49595 0.917 0.98351 0.0
C607 C 0.58731 0.95094 0.05572 0.0
H608 H 0.53475 0.88682 0.2933 0.0
H609 H 0.56959 0.84737 0.06711 0.0
H610 H 0.53386 0.95217 0.18611 0.0
H611 H 0.50472 0.93345 0.20397 0.0
H612 H 0.52961 0.93417 0.28922 0.0
H613 H 0.5743 0.86654 0.92626 0.0
H614 H 0.54909 0.89001 0.90076 0.0
H615 H 0.58091 0.90119 0.93235 0.0
H616 H 0.49698 0.95813 0.87045 0.0
H617 H 0.57406 0.98607 0.92851 0.0
H618 H 0.49089 0.91561 0.05596 0.0
H619 H 0.50217 0.8972 0.96045 0.0
H620 H 0.47817 0.92268 0.94551 0.0
H621 H 0.58456 0.94366 0.12529 0.0
H622 H 0.5971 0.97035 0.05892 0.0
H623 H 0.60055 0.93713 0.01997 0.0
C624 C 0.65917 0.57371 0.14817 0.0
C625 C 0.68348 0.5613 0.13766 0.0
C626 C 0.63756 0.56717 0.09322 0.0
C627 C 0.64035 0.54843 0.02266 0.0
C628 C 0.6649 0.53565 0.01232 0.0
C629 C 0.68601 0.542 0.07035 0.0
C630 C 0.61168 0.58043 0.11086 0.0
C631 C 0.66923 0.51599 0.93761 0.0
C632 C 0.57844 0.51606 0.92704 0.0
C633 C 0.57223 0.53184 0.85277 0.0
C634 C 0.6005 0.52099 0.98162 0.0
C635 C 0.61746 0.54207 0.96135 0.0
C636 C 0.61153 0.5579 0.88549 0.0
C637 C 0.58868 0.55306 0.83385 0.0
C638 C 0.60498 0.50414 0.0633 0.0
C639 C 0.62927 0.58008 0.859 0.0
H640 H 0.65704 0.5887 0.19989 0.0
H641 H 0.70481 0.53265 0.06047 0.0
H642 H 0.60607 0.59247 0.05212 0.0
H643 H 0.59619 0.56548 0.11996 0.0
H644 H 0.61221 0.59327 0.17168 0.0
H645 H 0.68842 0.50598 0.9431 0.0
H646 H 0.65358 0.50098 0.93721 0.0
H647 H 0.66843 0.5263 0.87235 0.0
H648 H 0.56565 0.49988 0.94366 0.0
H649 H 0.58372 0.56588 0.77862 0.0
H650 H 0.60126 0.51593 0.12519 0.0
H651 H 0.62552 0.49731 0.06623 0.0
H652 H 0.59198 0.48673 0.06398 0.0
H653 H 0.62899 0.59556 0.91192 0.0
H654 H 0.62341 0.58896 0.79395 0.0
H655 H 0.64967 0.57293 0.85318 0.0
C656 C 0.01773 0.69712 0.05907 0.0
C657 C 0.99737 0.69628 0.12221 0.0
C658 C 0.02269 0.67566 0.99963 0.0
C659 C 1.00711 0.65254 1.00291 0.0
C660 C 0.98686 0.65158 0.06798 0.0
C661 C 0.98217 0.67333 0.12557 0.0
C662 C 0.04433 0.67798 0.93184 0.0
C663 C 0.97012 0.62741 0.07752 0.0
C664 C 1.00178 0.6011 0.80943 0.0
C665 C 0.01984 0.58189 0.83585 0.0
C666 C 0.99838 0.62467 0.86015 0.0
C667 C 1.01246 0.6289 0.94193 0.0
C668 C 0.03045 0.60932 0.96898 0.0
C669 C 0.03394 0.58642 0.91597 0.0
C670 C 0.97942 0.64496 0.8266 0.0
C671 C 0.04537 0.61199 0.05631 0.0
H672 H 0.02945 0.71474 0.05472 0.0
H673 H 0.96634 0.67236 0.17385 0.0
H674 H 0.05835 0.66158 0.9394 0.0
H675 H 0.03585 0.67653 0.86346 0.0
H676 H 0.05508 0.6968 0.93813 0.0
H677 H 0.9556 0.6294 0.13271 0.0
H678 H 0.95953 0.62338 0.01366 0.0
H679 H 0.98263 0.61013 0.09121 0.0
H680 H 0.99018 0.59765 0.74941 0.0
H681 H 0.04766 0.57165 0.93831 0.0
H682 H 0.98898 0.66446 0.82481 0.0
H683 H 0.96262 0.64652 0.87347 0.0
H684 H 0.97191 0.64012 0.75819 0.0
H685 H 0.05507 0.63137 0.06101 0.0
H686 H 0.06042 0.5965 0.0636 0.0
H687 H 0.03161 0.61063 0.11378 0.0
C688 C 0.02518 0.21724 0.33267 0.0
C689 C 0.01847 0.24231 0.30284 0.0
C690 C 1.01043 0.20479 0.39876 0.0
C691 C 0.98899 0.21816 0.43818 0.0
C692 C 0.9838 0.24448 0.41526 0.0
C693 C 0.99844 0.2562 0.34676 0.0
C694 C 0.01654 0.17656 0.42071 0.0
C695 C 0.96167 0.25964 0.45797 0.0
C696 C 0.93852 0.16874 0.5056 0.0
C697 C 0.94689 0.16302 0.59307 0.0
C698 C 0.95049 0.18868 0.45633 0.0
C699 C 0.97094 0.20336 0.49649 0.0
C700 C 0.97729 0.19966 0.58807 0.0
C701 C 0.96543 0.17916 0.63479 0.0
C702 C 0.94317 0.19207 0.35856 0.0
C703 C 0.99838 0.21565 0.63359 0.0
H704 H 0.04105 0.2067 0.30027 0.0
H705 H 0.99309 0.27559 0.32394 0.0
H706 H 0.01713 0.17364 0.49454 0.0
H707 H 1.00089 0.16374 0.39322 0.0
H708 H 0.03547 0.17004 0.39168 0.0
H709 H 0.96446 0.28112 0.45096 0.0
H710 H 0.94309 0.25424 0.42418 0.0
H711 H 0.9597 0.25498 0.53051 0.0
H712 H 0.92406 0.15628 0.47338 0.0
H713 H 0.97241 0.17422 0.70074 0.0
H714 H 0.9591 0.18428 0.31526 0.0
H715 H 0.94073 0.21311 0.34266 0.0
H716 H 0.92485 0.18156 0.34095 0.0
H717 H 0.01745 0.21185 0.60059 0.0
H718 H 1.00023 0.21116 0.70632 0.0
H719 H 0.99415 0.23685 0.62622 0.0
C720 C 0.30113 0.97587 0.29851 0.0
C721 C 0.31237 0.99956 0.27126 0.0
C722 C 0.31264 0.96098 0.36703 0.0
C723 C 0.33586 0.9701 0.40837 0.0
C724 C 0.34623 0.99486 0.38485 0.0
C725 C 0.33436 1.00924 0.31642 0.0
C726 C 0.30074 0.93495 0.39135 0.0
C727 C 0.3707 1.0056 0.42869 0.0
C728 C 0.37116 0.9483 0.61616 0.0
C729 C 0.39314 0.93677 0.57613 0.0
C730 C 0.35001 0.9563 0.56275 0.0
C731 C 0.35143 0.95301 0.46808 0.0
C732 C 0.37196 0.93811 0.42964 0.0
C733 C 0.39261 0.93009 0.48446 0.0
C734 C 0.32769 0.97086 0.60653 0.0
C735 C 0.37395 0.93362 0.32917 0.0
H736 H 0.28402 0.96844 0.26364 0.0
H737 H 0.34267 0.02785 0.2965 0.0
H738 H 0.31129 0.91903 0.35527 0.0
H739 H 0.30244 0.93122 0.46466 0.0
H740 H 0.27983 0.93392 0.37169 0.0
H741 H 0.37534 0.02575 0.40596 0.0
H742 H 0.36848 1.00597 0.50304 0.0
H743 H 0.38753 0.99271 0.41236 0.0
H744 H 0.37146 0.95314 0.68744 0.0
H745 H 0.40949 0.92067 0.45418 0.0
H746 H 0.32454 0.96403 0.67651 0.0
H747 H 0.30927 0.96836 0.56808 0.0
H748 H 0.33236 0.99209 0.60911 0.0
H749 H 0.35477 0.92789 0.30053 0.0
H750 H 0.38848 0.91819 0.31201 0.0
H751 H 0.38004 0.9521 0.29641 0.0
C752 C 0.54331 0.29449 0.25075 0.0
C753 C 0.55911 0.29379 0.17356 0.0
C754 C 0.54494 0.31579 0.31086 0.0
C755 C 0.56195 0.33663 0.29003 0.0
C756 C 0.58186 0.33272 0.22517 0.0
C757 C 0.58043 0.31084 0.16805 0.0
C758 C 0.5255 0.31812 0.38668 0.0
C759 C 0.60154 0.35382 0.2045 0.0
C760 C 0.53144 0.40258 0.2507 0.0
C761 C 0.54634 0.41858 0.30783 0.0
C762 C 0.53514 0.37547 0.24851 0.0
C763 C 0.55337 0.36387 0.30841 0.0
C764 C 0.56599 0.37951 0.37412 0.0
C765 C 0.56288 0.40677 0.37159 0.0
C766 C 0.52099 0.3597 0.17679 0.0
C767 C 0.58396 0.36799 0.44399 0.0
H768 H 0.52736 0.2807 0.25747 0.0
H769 H 0.59337 0.30948 0.11037 0.0
H770 H 0.53365 0.3298 0.44358 0.0
H771 H 0.50767 0.32819 0.3623 0.0
H772 H 0.51972 0.29847 0.41132 0.0
H773 H 0.61744 0.34646 0.16009 0.0
H774 H 0.59162 0.3703 0.17009 0.0
H775 H 0.61031 0.36157 0.26755 0.0
H776 H 0.5177 0.41136 0.20431 0.0
H777 H 0.57453 0.41869 0.417 0.0
H778 H 0.50952 0.34377 0.20793 0.0
H779 H 0.53536 0.3506 0.13027 0.0
H780 H 0.50746 0.37187 0.13618 0.0
H781 H 0.58063 0.34672 0.45364 0.0
H782 H 0.58129 0.37825 0.50971 0.0
H783 H 0.60453 0.37106 0.42336 0.0
C784 C 0.22452 0.48725 0.27166 0.0
C785 C 0.23485 0.46596 0.22411 0.0
C786 C 0.19998 0.48556 0.31212 0.0
C787 C 0.18624 0.46133 0.30905 0.0
C788 C 0.19938 0.43852 0.27789 0.0
C789 C 0.22322 0.44126 0.23201 0.0
C790 C 0.18761 0.51068 0.34627 0.0
C791 C 0.18761 0.41157 0.28582 0.0
C792 C 0.12283 0.48663 0.38825 0.0
C793 C 0.11265 0.49405 0.30392 0.0
C794 C 0.14453 0.46987 0.3932 0.0
C795 C 0.15719 0.46224 0.31254 0.0
C796 C 0.14353 0.46473 0.2299 0.0
C797 C 0.12087 0.47999 0.22741 0.0
C798 C 0.15547 0.46305 0.48433 0.0
C799 C 0.15441 0.45446 0.14188 0.0
H800 H 0.2339 0.50623 0.26597 0.0
H801 H 0.23165 0.42458 0.1968 0.0
H802 H 0.16957 0.51499 0.30763 0.0
H803 H 0.18234 0.50872 0.41819 0.0
H804 H 0.20085 0.52782 0.34043 0.0
H805 H 0.20087 0.39916 0.32651 0.0
H806 H 0.16812 0.41176 0.31837 0.0
H807 H 0.18618 0.40215 0.21826 0.0
H808 H 0.11583 0.49556 0.45004 0.0
H809 H 0.11122 0.48297 0.16336 0.0
H810 H 0.1611 0.48115 0.52136 0.0
H811 H 0.17252 0.44967 0.47968 0.0
H812 H 0.14002 0.45348 0.52485 0.0
H813 H 0.14065 0.45722 0.08493 0.0
H814 H 0.1585 0.43323 0.14694 0.0
H815 H 0.17293 0.46468 0.12583 0.0
C816 C 0.93377 0.83256 0.06504 0.0
C817 C 0.94488 0.80733 0.06693 0.0
C818 C 0.93918 0.84914 0.99245 0.0
C819 C 0.95332 0.83895 0.91828 0.0
C820 C 0.95523 0.81154 0.90752 0.0
C821 C 0.95129 0.79574 0.98311 0.0
C822 C 0.93422 0.87813 1.00275 0.0
C823 C 0.96659 0.79957 0.82306 0.0
C824 C 0.9884 0.88874 0.77189 0.0
C825 C 1.01329 0.88837 0.81074 0.0
C826 C 0.9687 0.8719 0.80262 0.0
C827 C 0.97389 0.85543 0.87689 0.0
C828 C 0.9993 0.85522 0.91594 0.0
C829 C 0.01874 0.87134 0.88098 0.0
C830 C 0.94252 0.87254 0.75611 0.0
C831 C 1.00597 0.83874 0.99699 0.0
H832 H 0.92523 0.84087 0.12563 0.0
H833 H 0.95742 0.7755 0.97839 0.0
H834 H 0.95276 0.88814 0.02101 0.0
H835 H 0.92722 0.88643 0.93834 0.0
H836 H 0.91963 0.88239 0.05624 0.0
H837 H 0.95937 0.77924 0.81276 0.0
H838 H 0.96162 0.81149 0.76318 0.0
H839 H 0.98818 0.79879 0.82925 0.0
H840 H 0.98431 0.90242 0.71841 0.0
H841 H 0.03802 0.87158 0.91134 0.0
H842 H 0.93265 0.89137 0.77238 0.0
H843 H 0.92958 0.85614 0.77556 0.0
H844 H 0.94529 0.8719 0.68191 0.0
H845 H 0.99173 0.8424 0.05175 0.0
H846 H 0.0258 0.84296 0.02383 0.0
H847 H 1.00516 0.81764 0.97864 0.0
C848 C 0.75311 0.96407 1.00755 0.0
C849 C 0.74179 0.95723 0.09068 0.0
C850 C 0.73709 0.96926 0.93311 0.0
C851 C 0.70978 0.96827 0.9447 0.0
C852 C 0.69956 0.95374 0.01721 0.0
C853 C 0.71639 0.94672 0.08766 0.0
C854 C 0.74892 0.98081 0.84952 0.0
C855 C 0.67055 0.95004 0.02888 0.0
C856 C 0.6806 0.03564 0.91192 0.0
C857 C 0.66279 0.03117 0.84263 0.0
C858 C 0.69569 1.01518 0.9458 0.0
C859 C 0.6938 0.98973 0.90602 0.0
C860 C 0.67627 0.9854 0.83348 0.0
C861 C 0.66039 1.00614 0.80439 0.0
C862 C 0.71305 0.02092 0.02607 0.0
C863 C 0.67398 0.95933 0.78538 0.0
H864 H 0.77345 0.96958 1.00323 0.0
H865 H 0.70824 0.9377 0.14712 0.0
H866 H 0.73645 0.97683 0.78968 0.0
H867 H 0.7507 1.00237 0.85821 0.0
H868 H 0.76877 0.97274 0.8374 0.0
H869 H 0.6616 0.96892 0.05026 0.0
H870 H 0.66136 0.94399 0.96432 0.0
H871 H 0.66607 0.93514 0.08072 0.0
H872 H 0.6819 0.05504 0.94212 0.0
H873 H 0.64601 1.00283 0.75215 0.0
H874 H 0.73384 0.02003 1.00553 0.0
H875 H 0.70987 1.00618 0.07918 0.0
H876 H 0.70935 0.04062 0.0559 0.0
H877 H 0.68049 0.9616 0.71456 0.0
H878 H 0.65319 0.95316 0.78319 0.0
H879 H 0.68575 0.94357 0.81643 0.0
C880 C 0.4702 0.74607 0.18063 0.0
C881 C 0.4925 0.76175 0.17374 0.0
C882 C 0.4678 0.7235 0.12725 0.0
C883 C 0.48784 0.71744 0.06487 0.0
C884 C 0.5064 0.73675 0.04241 0.0
C885 C 0.50884 0.75883 0.09852 0.0
C886 C 0.44671 0.704 0.14967 0.0
C887 C 0.52639 0.73193 0.96966 0.0
C888 C 0.51372 0.64971 0.10971 0.0
C889 C 0.49918 0.63456 0.04882 0.0
C890 C 0.51112 0.67696 0.11247 0.0
C891 C 0.4944 0.68952 0.04976 0.0
C892 C 0.48177 0.67464 0.98212 0.0
C893 C 0.48372 0.64729 0.98391 0.0
C894 C 0.52502 0.692 0.1866 0.0
C895 C 0.46504 0.68713 0.91055 0.0
H896 H 0.45697 0.7491 0.23682 0.0
H897 H 0.52566 0.77151 0.09093 0.0
H898 H 0.43836 0.6953 0.08734 0.0
H899 H 0.45523 0.68787 0.18992 0.0
H900 H 0.43068 0.71315 0.18939 0.0
H901 H 0.53468 0.75065 0.94494 0.0
H902 H 0.54261 0.71995 0.99701 0.0
H903 H 0.51763 0.72099 0.91219 0.0
H904 H 0.52649 0.64024 0.1577 0.0
H905 H 0.47212 0.63605 0.93638 0.0
H906 H 0.51048 0.70159 0.23137 0.0
H907 H 0.53746 0.70754 0.15757 0.0
H908 H 0.53756 0.67919 0.2286 0.0
H909 H 0.44423 0.68589 0.93059 0.0
H910 H 0.46711 0.67635 0.84552 0.0
H911 H 0.47008 0.708 0.89976 0.0
C912 C 0.80365 0.58354 0.01571 0.0
C913 C 0.8032 0.60151 0.08786 0.0
C914 C 0.8267 0.57947 0.96668 0.0
C915 C 0.84916 0.59421 0.98998 0.0
C916 C 0.84612 0.61714 0.04315 0.0
C917 C 0.82312 0.62037 0.09362 0.0
C918 C 0.8283 0.55624 0.90326 0.0
C919 C 0.86872 0.63546 0.05933 0.0
C920 C 0.90262 0.54982 0.07392 0.0
C921 C 0.91531 0.54269 0.99395 0.0
C922 C 0.88142 0.56692 0.07353 0.0
C923 C 0.8746 0.58008 0.99289 0.0
C924 C 0.8901 0.57624 0.91489 0.0
C925 C 0.90971 0.55687 0.91528 0.0
C926 C 0.86511 0.56878 0.15817 0.0
C927 C 0.88563 0.59145 0.82965 0.0
H928 H 0.78785 0.56958 1.0078 0.0
H929 H 0.82239 0.63521 0.14631 0.0
H930 H 0.83777 0.56203 0.83938 0.0
H931 H 0.84032 0.54056 0.93404 0.0
H932 H 0.80873 0.54804 0.88733 0.0
H933 H 0.86165 0.65569 0.07307 0.0
H934 H 0.87995 0.62895 0.11905 0.0
H935 H 0.88208 0.63561 1.00042 0.0
H936 H 0.90802 0.54058 0.13665 0.0
H937 H 0.91971 0.55229 0.85286 0.0
H938 H 0.84432 0.56514 0.14211 0.0
H939 H 0.86707 0.58855 0.18885 0.0
H940 H 0.87081 0.55413 0.20926 0.0
H941 H 0.8775 0.57826 0.77697 0.0
H942 H 0.90458 0.59878 0.80371 0.0
H943 H 0.87226 0.60835 0.83949 0.0
C944 C 0.05929 0.2072 0.96891 0.0
C945 C 0.03745 0.22337 0.9836 0.0
C946 C 0.05729 0.18288 0.92208 0.0
C947 C 0.03278 0.17413 0.88763 0.0
C948 C 1.01059 0.19045 0.90372 0.0
C949 C 1.01331 0.21465 0.95023 0.0
C950 C 0.0814 0.166 0.91397 0.0
C951 C 0.98325 0.18242 0.87831 0.0
C952 C 0.03825 0.12285 0.69459 0.0
C953 C 0.02723 0.10016 0.73172 0.0
C954 C 0.03985 0.14679 0.74337 0.0
C955 C 0.03075 0.14848 0.83386 0.0
C956 C 0.01985 0.12541 0.87224 0.0
C957 C 0.01754 0.102 0.82011 0.0
C958 C 0.05143 0.17009 0.69599 0.0
C959 C 1.01072 0.12532 0.96888 0.0
H960 H 0.0778 0.21292 0.9986 0.0
H961 H 0.996 0.2261 0.9656 0.0
H962 H 0.07657 0.14488 0.91948 0.0
H963 H 0.09058 0.1692 0.84739 0.0
H964 H 0.09606 0.17103 0.96657 0.0
H965 H 0.97402 0.19803 0.8375 0.0
H966 H 0.98222 0.16346 0.84177 0.0
H967 H 0.97131 0.1808 0.94045 0.0
H968 H 0.04526 0.12207 0.62567 0.0
H969 H 1.00749 0.08531 0.84805 0.0
H970 H 0.07302 0.16863 0.69823 0.0
H971 H 0.0455 0.18908 0.72659 0.0
H972 H 0.04574 0.17002 0.62383 0.0
H973 H 0.02685 0.13181 0.0139 0.0
H974 H 1.0039 0.10568 0.99017 0.0
H975 H 0.99434 0.13919 0.97849 0.0
C976 C 0.34936 0.06151 1.00359 0.0
C977 C 0.33058 0.04254 0.98092 0.0
C978 C 0.37317 0.06342 0.95626 0.0
C979 C 0.37884 0.04569 0.88467 0.0
C980 C 0.3594 0.02722 0.85894 0.0
C981 C 0.3356 0.02586 0.90721 0.0
C982 C 0.39303 0.08322 0.98765 0.0
C983 C 0.36419 1.00806 0.78274 0.0
C984 C 0.43551 0.05952 0.7216 0.0
C985 C 0.45517 0.04269 0.75276 0.0
C986 C 0.41087 0.06105 0.76435 0.0
C987 C 0.40552 0.04535 0.84059 0.0
C988 C 0.42554 0.02859 0.87304 0.0
C989 C 0.4498 0.0271 0.82787 0.0
C990 C 0.39026 0.0789 0.72605 0.0
C991 C 0.42111 1.01164 0.95437 0.0
H992 H 0.34605 0.07389 0.06228 0.0
H993 H 0.32158 1.01064 0.89089 0.0
H994 H 0.40191 0.09336 0.92947 0.0
H995 H 0.38443 0.09814 0.03386 0.0
H996 H 0.4088 0.07285 0.02406 0.0
H997 H 0.34814 0.9936 0.77608 0.0
H998 H 0.36608 0.01885 0.7185 0.0
H999 H 0.38272 0.99726 0.79342 0.0
H1000 H 0.43921 0.07106 0.66198 0.0
H1001 H 0.46428 1.01301 0.84956 0.0
H1002 H 0.38298 0.09251 0.77906 0.0
H1003 H 0.37339 0.06705 0.70242 0.0
H1004 H 0.39768 0.09059 0.66874 0.0
H1005 H 0.41504 0.02399 0.01262 0.0
H1006 H 0.43887 1.00047 0.97344 0.0
H1007 H 0.40509 0.99754 0.94055 0.0
C1008 C 0.50161 0.32372 0.84995 0.0
C1009 C 0.5261 0.31272 0.86955 0.0
C1010 C 0.49945 0.34809 0.80487 0.0
C1011 C 0.52227 0.36223 0.78004 0.0
C1012 C 0.54689 0.35021 0.79405 0.0
C1013 C 0.54843 0.32572 0.83727 0.0
C1014 C 0.47271 0.35952 0.78918 0.0
C1015 C 0.57189 0.36426 0.77081 0.0
C1016 C 0.52146 0.42532 0.63635 0.0
C1017 C 0.52034 0.44505 0.70295 0.0
C1018 C 0.52126 0.39833 0.65964 0.0
C1019 C 0.52082 0.39076 0.75185 0.0
C1020 C 0.5203 0.4108 0.81883 0.0
C1021 C 0.51972 0.43739 0.79364 0.0
C1022 C 0.52103 0.37791 0.58552 0.0
C1023 C 0.52084 0.40422 0.91791 0.0
H1024 H 0.48421 0.31422 0.87518 0.0
H1025 H 0.56749 0.31756 0.85219 0.0
H1026 H 0.46908 0.37554 0.83866 0.0
H1027 H 0.47141 0.36807 0.72083 0.0
H1028 H 0.45711 0.34458 0.79666 0.0
H1029 H 0.58927 0.35139 0.77741 0.0
H1030 H 0.57112 0.37178 0.70101 0.0
H1031 H 0.57439 0.3814 0.81661 0.0
H1032 H 0.52183 0.43094 0.56612 0.0
H1033 H 0.51935 0.45242 0.84575 0.0
H1034 H 0.50304 0.36591 0.59064 0.0
H1035 H 0.53782 0.36438 0.59299 0.0
H1036 H 0.52178 0.38675 0.51745 0.0
H1037 H 0.50352 0.39228 0.93547 0.0
H1038 H 0.52102 0.422 0.96171 0.0
H1039 H 0.53841 0.39233 0.93331 0.0
C1040 C 0.22213 0.52432 0.91907 0.0
C1041 C 0.23305 0.49906 0.92014 0.0
C1042 C 0.19889 0.5297 0.8707 0.0
C1043 C 0.18603 0.50937 0.82185 0.0
C1044 C 0.19817 0.48438 0.81706 0.0
C1045 C 0.22126 0.47952 0.86644 0.0
C1046 C 0.18698 0.55667 0.87827 0.0
C1047 C 0.18558 0.46204 0.76583 0.0
C1048 C 0.11116 0.51016 0.81245 0.0
C1049 C 0.10568 0.51813 0.72401 0.0
C1050 C 0.13695 0.50745 0.84444 0.0
C1051 C 0.15839 0.513 0.78726 0.0
C1052 C 0.1531 0.52145 0.69799 0.0
C1053 C 0.12692 0.52403 0.66765 0.0
C1054 C 0.14119 0.49866 0.94027 0.0
C1055 C 0.17512 0.52788 0.63461 0.0
H1056 H 0.23055 0.53938 0.96212 0.0
H1057 H 0.22912 0.45979 0.86833 0.0
H1058 H 0.16993 0.556 0.92424 0.0
H1059 H 0.2011 0.57128 0.90526 0.0
H1060 H 0.17986 0.56335 0.81171 0.0
H1061 H 0.19895 0.44502 0.75812 0.0
H1062 H 0.16787 0.45553 0.80235 0.0
H1063 H 0.17931 0.46849 0.69796 0.0
H1064 H 0.09519 0.50661 0.85817 0.0
H1065 H 0.1231 0.53045 0.59948 0.0
H1066 H 0.15197 0.51396 0.97866 0.0
H1067 H 0.1533 0.48063 0.94083 0.0
H1068 H 0.12256 0.49461 0.9758 0.0
H1069 H 0.18669 0.54444 0.66249 0.0
H1070 H 0.16797 0.53327 0.56656 0.0
H1071 H 0.18852 0.51088 0.62801 0.0
C1072 C 0.99995 0.8631 0.27192 0.0
C1073 C 1.00217 0.83819 0.31222 0.0
C1074 C 1.00461 0.88667 0.31974 0.0
C1075 C 1.01353 0.88608 0.41007 0.0
C1076 C 0.01797 0.86106 0.44949 0.0
C1077 C 1.0119 0.83754 0.40096 0.0
C1078 C 0.99863 0.91234 0.27429 0.0
C1079 C 0.0291 0.85914 0.54326 0.0
C1080 C 0.0442 0.9514 0.48994 0.0
C1081 C 0.02479 0.96249 0.54558 0.0
C1082 C 0.04139 0.92627 0.44972 0.0
C1083 C 0.01805 0.91171 0.46167 0.0
C1084 C 0.99844 0.92268 0.51854 0.0
C1085 C 1.00251 0.94725 0.56244 0.0
C1086 C 0.0637 0.9152 0.39497 0.0
C1087 C 0.97279 0.9087 0.53129 0.0
H1088 H 0.99356 0.86436 0.20252 0.0
H1089 H 1.0141 0.81874 0.43346 0.0
H1090 H 0.98366 0.92306 0.31396 0.0
H1091 H 0.01625 0.92489 0.27214 0.0
H1092 H 0.99123 0.90962 0.20443 0.0
H1093 H 0.03268 0.83853 0.56329 0.0
H1094 H 0.04778 0.87011 0.54708 0.0
H1095 H 0.01559 0.86829 0.59271 0.0
H1096 H 0.0621 0.96227 0.47935 0.0
H1097 H 0.98846 0.95424 0.61143 0.0
H1098 H 0.05837 0.91477 0.32256 0.0
H1099 H 0.06783 0.89472 0.41526 0.0
H1100 H 0.08181 0.92696 0.40294 0.0
H1101 H 0.96226 0.90773 0.46594 0.0
H1102 H 0.96012 0.9187 0.58163 0.0
H1103 H 0.97609 0.88825 0.55299 0.0
C1104 C 0.71232 0.02569 0.42184 0.0
C1105 C 0.71164 1.01504 0.33424 0.0
C1106 C 0.689 0.0326 0.46811 0.0
C1107 C 0.66412 0.02771 0.42768 0.0
C1108 C 0.66359 0.01825 0.33747 0.0
C1109 C 0.68707 1.01303 0.29183 0.0
C1110 C 0.69155 0.04497 0.56046 0.0
C1111 C 0.63854 1.01269 0.28697 0.0
C1112 C 0.60692 0.01717 0.59197 0.0
C1113 C 0.58914 0.03668 0.56644 0.0
C1114 C 0.63093 1.01361 0.54603 0.0
C1115 C 0.63882 0.03168 0.47904 0.0
C1116 C 0.62171 0.05269 0.45817 0.0
C1117 C 0.59702 0.05444 0.5 0.0
C1118 C 0.64771 0.99022 0.56799 0.0
C1119 C 0.62923 0.07348 0.39139 0.0
H1120 H 0.73098 0.02803 0.45543 0.0
H1121 H 0.68591 1.00624 0.22254 0.0
H1122 H 0.67295 0.05323 0.58627 0.0
H1123 H 0.69889 0.03017 0.60868 0.0
H1124 H 0.70629 0.06091 0.55869 0.0
H1125 H 0.63941 0.99284 0.25571 0.0
H1126 H 0.62082 1.01388 0.32928 0.0
H1127 H 0.63657 0.02685 0.23101 0.0
H1128 H 0.60243 1.00508 0.64926 0.0
H1129 H 0.58407 0.07047 0.48268 0.0
H1130 H 0.66648 0.99677 0.59744 0.0
H1131 H 0.65223 0.97903 0.50539 0.0
H1132 H 0.63819 0.9769 0.61658 0.0
H1133 H 0.65057 0.07725 0.39223 0.0
H1134 H 0.61885 0.09221 0.40543 0.0
H1135 H 0.62363 0.06689 0.32263 0.0
C1136 C 0.5469 0.73462 0.50127 0.0
C1137 C 0.52278 0.74654 0.48261 0.0
C1138 C 0.5483 0.71009 0.54563 0.0
C1139 C 0.52506 0.69669 0.57056 0.0
C1140 C 0.50086 0.70968 0.55802 0.0
C1141 C 0.50008 0.73435 0.51561 0.0
C1142 C 0.57466 0.69764 0.55991 0.0
C1143 C 0.47542 0.69645 0.58129 0.0
C1144 C 0.52536 0.62159 0.55082 0.0
C1145 C 0.52492 0.6133 0.64087 0.0
C1146 C 0.52534 0.64836 0.52784 0.0
C1147 C 0.52559 0.66793 0.59644 0.0
C1148 C 0.52524 0.65973 0.688 0.0
C1149 C 0.52449 0.63259 0.70908 0.0
C1150 C 0.52468 0.65564 0.42937 0.0
C1151 C 0.5262 0.6796 0.76373 0.0
H1152 H 0.56456 0.74344 0.47525 0.0
H1153 H 0.48129 0.74315 0.50099 0.0
H1154 H 0.57578 0.68865 0.62763 0.0
H1155 H 0.57764 0.6818 0.50925 0.0
H1156 H 0.59075 0.71207 0.55305 0.0
H1157 H 0.45856 0.71009 0.57716 0.0
H1158 H 0.47201 0.67989 0.53372 0.0
H1159 H 0.47619 0.68823 0.65012 0.0
H1160 H 0.52517 0.60694 0.49747 0.0
H1161 H 0.52424 0.62648 0.77883 0.0
H1162 H 0.54239 0.66699 0.41195 0.0
H1163 H 0.50753 0.66832 0.41574 0.0
H1164 H 0.52364 0.63819 0.38416 0.0
H1165 H 0.54466 0.69091 0.75968 0.0
H1166 H 0.52505 0.67032 0.83104 0.0
H1167 H 0.50995 0.69383 0.75732 0.0
C1168 C 0.82679 0.5363 0.37647 0.0
C1169 C 0.81572 0.56149 0.38 0.0
C1170 C 0.85051 0.53051 0.42167 0.0
C1171 C 0.86373 0.55034 0.4719 0.0
C1172 C 0.85173 0.57534 0.47992 0.0
C1173 C 0.82814 0.58058 0.43399 0.0
C1174 C 0.86226 0.50359 0.41062 0.0
C1175 C 0.86485 0.59725 0.5317 0.0
C1176 C 0.92236 0.53485 0.62757 0.0
C1177 C 0.94383 0.54059 0.57202 0.0
C1178 C 0.89628 0.53757 0.59619 0.0
C1179 C 0.89131 0.54617 0.50681 0.0
C1180 C 0.91301 0.55158 0.45058 0.0
C1181 C 0.93865 0.54838 0.48321 0.0
C1182 C 0.87406 0.5309 0.65844 0.0
C1183 C 0.9094 0.56024 0.35446 0.0
H1184 H 0.81786 0.52157 0.33333 0.0
H1185 H 0.82009 0.60024 0.43601 0.0
H1186 H 0.87906 0.5046 0.36365 0.0
H1187 H 0.8697 0.49634 0.47606 0.0
H1188 H 0.84796 0.48925 0.38308 0.0
H1189 H 0.85206 0.61473 0.53902 0.0
H1190 H 0.87062 0.59054 0.59978 0.0
H1191 H 0.88294 0.60314 0.49603 0.0
H1192 H 0.9259 0.52837 0.69583 0.0
H1193 H 0.95477 0.55153 0.43763 0.0
H1194 H 0.86422 0.51288 0.63346 0.0
H1195 H 0.85927 0.5468 0.65911 0.0
H1196 H 0.88081 0.52752 0.72856 0.0
H1197 H 0.90401 0.54294 0.31275 0.0
H1198 H 0.92754 0.56876 0.32606 0.0
H1199 H 0.89355 0.57497 0.34895 0.0
loop_
_geom_bond_atom_site_label_1
_geom_bond_atom_site_label_2
_geom_bond_distance
_geom_bond_site_symmetry_2
_ccdc_geom_bond_type
H0 C5 0.930 . S
H1 C8 0.930 . S
H2 C10 0.930 . S
H3 C4 1.016 . S
C4 H3 1.016 . S
C4 N11 1.286 . S
C5 H0 0.930 . S
C5 C6 1.397 . S
C5 C7 1.361 . S
C6 C5 1.397 . S
C6 C10 1.390 . S
C7 C5 1.361 . S
C7 C8 1.393 . S
C7 N11 1.413 . S
C8 H1 0.930 . S
C8 C7 1.393 . S
C8 C9 1.399 . S
C9 C8 1.399 . S
C9 C10 1.381 . S
C10 H2 0.930 . S
C10 C6 1.390 . S
C10 C9 1.381 . S
N11 C4 1.286 . S
N11 C7 1.413 . S
H12 C17 0.930 . S
H13 C20 0.930 . S
H14 C22 0.930 . S
H15 C16 1.016 . S
C16 H15 1.016 . S
C16 N23 1.286 . S
C17 H12 0.930 . S
C17 C18 1.397 . S
C17 C19 1.361 . S
C18 C17 1.397 . S
C18 C22 1.390 . S
C19 C17 1.361 . S
C19 C20 1.393 . S
C19 N23 1.413 . S
C20 H13 0.930 . S
C20 C19 1.393 . S
C20 C21 1.399 . S
C21 C20 1.399 . S
C21 C22 1.381 . S
C22 H14 0.930 . S
C22 C18 1.390 . S
C22 C21 1.381 . S
N23 C16 1.286 . S
N23 C19 1.413 . S
H24 C29 0.930 . S
H25 C32 0.930 . S
H26 C34 0.930 . S
H27 C28 1.016 . S
C28 H27 1.016 . S
C28 N35 1.286 . S
C29 H24 0.930 . S
C29 C30 1.397 . S
C29 C31 1.361 . S
C30 C29 1.397 . S
C30 C34 1.390 . S
C31 C29 1.361 . S
C31 C32 1.393 . S
C31 N35 1.413 . S
C32 H25 0.930 . S
C32 C31 1.393 . S
C32 C33 1.399 . S
C33 C32 1.399 . S
C33 C34 1.381 . S
C34 H26 0.930 . S
C34 C30 1.390 . S
C34 C33 1.381 . S
N35 C28 1.286 . S
N35 C31 1.413 . S
H36 C41 0.930 . S
H37 C44 0.930 . S
H38 C46 0.930 . S
H39 C40 1.016 . S
C40 H39 1.016 . S
C40 N47 1.286 . S
C41 H36 0.930 . S
C41 C42 1.397 . S
C41 C43 1.361 . S
C42 C41 1.397 . S
C42 C46 1.390 . S
C43 C41 1.361 . S
C43 C44 1.393 . S
C43 N47 1.413 . S
C44 H37 0.930 . S
C44 C43 1.393 . S
C44 C45 1.399 . S
C45 C44 1.399 . S
C45 C46 1.381 . S
C46 H38 0.930 . S
C46 C42 1.390 . S
C46 C45 1.381 . S
N47 C40 1.286 . S
N47 C43 1.413 . S
H48 C53 0.930 . S
H49 C56 0.930 . S
H50 C58 0.930 . S
H51 C52 1.016 . S
C52 H51 1.016 . S
C52 N59 1.286 . S
C53 H48 0.930 . S
C53 C54 1.397 . S
C53 C55 1.361 1_556 S
C54 C53 1.397 . S
C54 C58 1.390 . S
C55 C53 1.361 1_554 S
C55 C56 1.393 . S
C55 N59 1.413 . S
C56 H49 0.930 . S
C56 C55 1.393 . S
C56 C57 1.399 . S
C57 C56 1.399 . S
C57 C58 1.381 1_554 S
C58 H50 0.930 . S
C58 C54 1.390 . S
C58 C57 1.381 1_556 S
N59 C52 1.286 . S
N59 C55 1.413 . S
H60 C65 0.930 . S
H61 C68 0.930 . S
H62 C70 0.930 . S
H63 C64 1.016 . S
C64 H63 1.016 . S
C64 N71 1.286 . S
C65 H60 0.930 . S
C65 C66 1.397 . S
C65 C67 1.361 1_556 S
C66 C65 1.397 . S
C66 C70 1.390 . S
C67 C65 1.361 1_554 S
C67 C68 1.393 . S
C67 N71 1.413 . S
C68 H61 0.930 . S
C68 C67 1.393 . S
C68 C69 1.399 . S
C69 C68 1.399 . S
C69 C70 1.381 1_554 S
C70 H62 0.930 . S
C70 C66 1.390 . S
C70 C69 1.381 1_556 S
N71 C64 1.286 . S
N71 C67 1.413 . S
H72 C77 0.930 . S
H73 C80 0.930 . S
H74 C82 0.930 . S
H75 C76 1.016 . S
C76 H75 1.016 . S
C76 N83 1.286 . S
C77 H72 0.930 . S
C77 C78 1.397 . S
C77 C79 1.365 . S
C78 C77 1.397 . S
C78 C82 1.390 . S
C79 C77 1.365 . S
C79 C80 1.390 1_556 S
C79 N83 1.412 1_556 S
C80 H73 0.930 . S
C80 C79 1.390 1_554 S
C80 C81 1.399 . S
C81 C80 1.399 . S
C81 C82 1.381 1_554 S
C82 H74 0.930 . S
C82 C78 1.390 . S
C82 C81 1.381 1_556 S
N83 C76 1.286 . S
N83 C79 1.412 1_554 S
H84 C89 0.930 . S
H85 C92 0.930 . S
H86 C94 0.930 . S
H87 C88 1.016 . S
C88 H87 1.016 . S
C88 N95 1.286 . S
C89 H84 0.930 . S
C89 C90 1.397 . S
C89 C91 1.361 1_556 S
C90 C89 1.397 . S
C90 C94 1.390 . S
C91 C89 1.361 1_554 S
C91 C92 1.393 . S
C91 N95 1.413 . S
C92 H85 0.930 . S
C92 C91 1.393 . S
C92 C93 1.399 . S
C93 C92 1.399 . S
C93 C94 1.381 1_554 S
C94 H86 0.930 . S
C94 C90 1.390 . S
C94 C93 1.381 1_556 S
N95 C88 1.286 . S
N95 C91 1.413 . S
Eu96 N127 2.657 1_565 S
Eu96 N134 2.609 1_565 S
Eu96 O140 2.558 . S
Eu96 O141 2.612 1_455 S
Eu96 O143 2.339 1_455 S
Eu96 O144 2.563 . S
Eu96 O145 2.419 . S
Eu96 O147 2.380 1_565 S
Eu96 O148 2.432 . S
Eu96 C160 2.848 . S
C97 C100 1.429 1_545 S
C97 C101 1.408 1_545 S
C97 N104 1.377 . S
C98 C100 1.420 . S
C98 C102 1.423 . S
C98 C110 1.392 . S
C99 C101 1.433 . S
C99 C102 1.351 . S
C99 H122 0.931 . S
C100 C97 1.429 1_565 S
C100 C98 1.420 . S
C100 N108 1.369 . S
C101 C97 1.408 1_565 S
C101 C99 1.433 . S
C101 C106 1.386 1_565 S
C102 C98 1.423 . S
C102 C99 1.351 . S
C102 H114 0.930 . S
C103 C105 1.400 . S
C103 C106 1.386 . S
C103 H115 0.930 . S
N104 C97 1.377 . S
N104 C105 1.321 . S
N104 Eu107 2.609 . S
C105 C103 1.400 . S
C105 N104 1.321 . S
C105 H112 0.930 . S
C106 C101 1.386 1_545 S
C106 C103 1.386 . S
C106 H125 0.930 . S
Eu107 N104 2.609 . S
Eu107 N108 2.638 1_545 S
Eu107 O141 2.380 1_545 S
Eu107 O142 2.432 . S
Eu107 O146 2.558 . S
Eu107 O147 2.612 1_655 S
Eu107 O149 2.339 1_655 S
Eu107 O150 2.563 1_655 S
Eu107 O151 2.419 . S
Eu107 C171 2.848 . S
N108 C100 1.369 . S
N108 Eu107 2.638 1_565 S
N108 C109 1.347 1_655 S
C109 N108 1.347 1_455 S
C109 C111 1.413 . S
C109 H116 0.929 . S
C110 C98 1.392 . S
C110 C111 1.367 1_655 S
C110 H118 0.930 . S
C111 C109 1.413 . S
C111 C110 1.367 1_455 S
C111 H113 0.930 . S
H112 C105 0.930 . S
H113 C111 0.930 . S
H114 C102 0.930 . S
H115 C103 0.930 . S
H116 C109 0.929 . S
H117 C131 0.930 1_655 S
H118 C110 0.930 . S
H119 C137 0.930 . S
H120 C128 0.929 1_655 S
H121 C135 0.930 . S
H122 C99 0.931 . S
H123 C129 0.930 . S
H124 C162 0.930 . S
H125 C106 0.930 . S
H126 C161 0.931 . S
N127 Eu96 2.657 1_545 S
N127 C128 1.334 . S
N127 C132 1.362 . S
C128 H120 0.929 1_455 S
C128 N127 1.334 . S
C128 C131 1.413 1_556 S
C129 H123 0.930 . S
C129 C130 1.392 . S
C129 C131 1.367 . S
C130 C129 1.392 . S
C130 C132 1.420 1_554 S
C130 C162 1.423 . S
C131 H117 0.930 1_455 S
C131 C128 1.413 1_554 S
C131 C129 1.367 . S
C132 N127 1.362 . S
C132 C130 1.420 1_556 S
C132 C136 1.429 . S
H133 C138 0.930 . S
N134 Eu96 2.609 1_545 S
N134 C136 1.377 . S
N134 C137 1.321 1_545 S
C135 H121 0.930 . S
C135 C137 1.400 . S
C135 C138 1.386 1_565 S
C136 C132 1.429 . S
C136 N134 1.377 . S
C136 C139 1.411 . S
C137 H119 0.930 . S
C137 N134 1.321 1_565 S
C137 C135 1.400 . S
C138 H133 0.930 . S
C138 C135 1.386 1_545 S
C138 C139 1.395 . S
C139 C136 1.411 . S
C139 C138 1.395 . S
C139 C161 1.420 1_556 S
O140 Eu96 2.558 . S
O140 C160 1.257 . S
O141 Eu96 2.612 1_655 S
O141 Eu107 2.380 1_565 S
O141 C152 1.276 . S
O142 Eu107 2.432 . S
O142 C159 1.264 . S
O143 Eu96 2.339 1_655 S
O143 C159 1.254 1_565 S
O144 Eu96 2.563 . S
O144 C152 1.235 1_455 S
O145 Eu96 2.419 . S
O145 C160 1.249 . S
O146 Eu107 2.558 . S
O146 C171 1.257 . S
O147 Eu96 2.380 1_545 S
O147 Eu107 2.612 1_455 S
O147 C163 1.276 . S
O148 Eu96 2.432 . S
O148 C170 1.264 1_565 S
O149 Eu107 2.339 1_455 S
O149 C170 1.254 . S
O150 Eu107 2.563 1_455 S
O150 C163 1.235 . S
O151 Eu107 2.419 . S
O151 C171 1.249 . S
C152 O141 1.276 . S
C152 O144 1.235 1_655 S
C153 C155 1.393 . S
C153 C157 1.395 . S
C153 C160 1.492 . S
C154 C155 1.392 . S
C154 C156 1.386 1_556 S
C155 C153 1.393 . S
C155 C154 1.392 . S
C155 H172 0.965 . S
C156 C154 1.386 1_554 S
C156 C158 1.395 1_554 S
C156 H173 0.930 . S
C157 C153 1.395 . S
C157 C158 1.379 . S
C157 H174 0.930 . S
C158 C156 1.395 1_556 S
C158 C157 1.379 . S
C158 H175 0.930 . S
C159 O142 1.264 . S
C159 O143 1.254 1_545 S
C160 Eu96 2.848 . S
C160 O140 1.257 . S
C160 O145 1.249 . S
C160 C153 1.492 . S
C161 H126 0.931 . S
C161 C139 1.420 1_554 S
C161 C162 1.351 . S
C162 H124 0.930 . S
C162 C130 1.423 . S
C162 C161 1.351 . S
C163 O147 1.276 . S
C163 O150 1.235 . S
C164 C165 1.393 . S
C164 C168 1.395 . S
C164 C171 1.492 . S
C165 C164 1.393 . S
C165 C166 1.392 . S
C165 H176 0.930 1_655 S
C166 C165 1.392 . S
C166 C167 1.386 . S
C167 C166 1.386 . S
C167 C169 1.395 . S
C167 H177 0.930 . S
C168 C164 1.395 . S
C168 C169 1.379 . S
C168 H178 0.930 . S
C169 C167 1.395 . S
C169 C168 1.379 . S
C169 H179 0.930 . S
C170 O148 1.264 1_545 S
C170 O149 1.254 . S
C171 Eu107 2.848 . S
C171 O146 1.257 . S
C171 O151 1.249 . S
C171 C164 1.492 . S
H172 C155 0.965 . S
H173 C156 0.930 . S
H174 C157 0.930 . S
H175 C158 0.930 . S
H176 C165 0.930 1_455 S
H177 C167 0.930 . S
H178 C168 0.930 . S
H179 C169 0.930 . S
Eu180 N211 2.657 . S
Eu180 N218 2.609 . S
Eu180 O224 2.558 . S
Eu180 O225 2.612 1_545 S
Eu180 O227 2.339 1_545 S
Eu180 O228 2.563 . S
Eu180 O229 2.419 . S
Eu180 O231 2.380 . S
Eu180 O232 2.432 . S
Eu180 C244 2.848 . S
C181 C184 1.429 . S
C181 C185 1.411 . S
C181 N188 1.377 . S
C182 C184 1.420 . S
C182 C186 1.423 . S
C182 C194 1.392 . S
C183 C185 1.420 . S
C183 C186 1.351 . S
C183 H206 0.931 . S
C184 C181 1.429 . S
C184 C182 1.420 . S
C184 N192 1.362 . S
C185 C181 1.411 . S
C185 C183 1.420 . S
C185 C190 1.395 . S
C186 C182 1.423 . S
C186 C183 1.351 . S
C186 H198 0.930 . S
C187 C189 1.400 . S
C187 C190 1.386 . S
C187 H199 0.930 . S
N188 C181 1.377 . S
N188 C189 1.321 . S
N188 Eu191 2.609 . S
C189 C187 1.400 . S
C189 N188 1.321 . S
C189 H196 0.930 . S
C190 C185 1.395 . S
C190 C187 1.386 . S
C190 H209 0.930 . S
Eu191 N188 2.609 . S
Eu191 N192 2.657 . S
Eu191 O225 2.380 . S
Eu191 O226 2.432 . S
Eu191 O230 2.558 . S
Eu191 O231 2.612 1_565 S
Eu191 O233 2.339 1_565 S
Eu191 O234 2.563 1_565 S
Eu191 O235 2.419 . S
Eu191 C255 2.848 . S
N192 C184 1.362 . S
N192 Eu191 2.657 . S
N192 C193 1.334 1_565 S
C193 N192 1.334 1_545 S
C193 C195 1.413 . S
C193 H200 0.929 . S
C194 C182 1.392 . S
C194 C195 1.367 1_565 S
C194 H202 0.930 . S
C195 C193 1.413 . S
C195 C194 1.367 1_545 S
C195 H197 0.930 . S
H196 C189 0.930 . S
H197 C195 0.930 . S
H198 C186 0.930 . S
H199 C187 0.930 . S
H200 C193 0.929 . S
H201 C215 0.930 1_565 S
H202 C194 0.930 . S
H203 C221 0.930 . S
H204 C212 0.929 1_565 S
H205 C219 0.930 . S
H206 C183 0.931 . S
H207 C213 0.930 . S
H208 C246 0.930 . S
H209 C190 0.930 . S
H210 C245 0.931 . S
N211 Eu180 2.657 . S
N211 C212 1.334 . S
N211 C216 1.362 . S
C212 H204 0.929 1_545 S
C212 N211 1.334 . S
C212 C215 1.413 1_556 S
C213 H207 0.930 . S
C213 C214 1.392 . S
C213 C215 1.367 . S
C214 C213 1.392 . S
C214 C216 1.420 1_554 S
C214 C246 1.423 . S
C215 H201 0.930 1_545 S
C215 C212 1.413 1_554 S
C215 C213 1.367 . S
C216 N211 1.362 . S
C216 C214 1.420 1_556 S
C216 C220 1.429 . S
H217 C222 0.930 . S
N218 Eu180 2.609 . S
N218 C220 1.377 . S
N218 C221 1.321 . S
C219 H205 0.930 . S
C219 C221 1.400 . S
C219 C222 1.386 . S
C220 C216 1.429 . S
C220 N218 1.377 . S
C220 C223 1.411 . S
C221 H203 0.930 . S
C221 N218 1.321 . S
C221 C219 1.400 . S
C222 H217 0.930 . S
C222 C219 1.386 . S
C222 C223 1.395 . S
C223 C220 1.411 . S
C223 C222 1.395 . S
C223 C245 1.420 1_556 S
O224 Eu180 2.558 . S
O224 C244 1.257 . S
O225 Eu180 2.612 1_565 S
O225 Eu191 2.380 . S
O225 C236 1.276 . S
O226 Eu191 2.432 . S
O226 C243 1.264 . S
O227 Eu180 2.339 1_565 S
O227 C243 1.254 . S
O228 Eu180 2.563 . S
O228 C236 1.235 1_545 S
O229 Eu180 2.419 . S
O229 C244 1.249 . S
O230 Eu191 2.558 . S
O230 C255 1.257 . S
O231 Eu180 2.380 . S
O231 Eu191 2.612 1_545 S
O231 C247 1.276 . S
O232 Eu180 2.432 . S
O232 C254 1.264 . S
O233 Eu191 2.339 1_545 S
O233 C254 1.254 . S
O234 Eu191 2.563 1_545 S
O234 C247 1.235 . S
O235 Eu191 2.419 . S
O235 C255 1.249 . S
C236 O225 1.276 . S
C236 O228 1.235 1_565 S
C237 C239 1.393 . S
C237 C241 1.395 . S
C237 C244 1.492 . S
C238 C239 1.392 . S
C238 C240 1.386 1_556 S
C239 C237 1.393 . S
C239 C238 1.392 . S
C239 H256 0.930 . S
C240 C238 1.386 1_554 S
C240 C242 1.395 1_554 S
C240 H257 0.930 . S
C241 C237 1.395 . S
C241 C242 1.379 . S
C241 H258 0.930 . S
C242 C240 1.395 1_556 S
C242 C241 1.379 . S
C242 H259 0.930 . S
C243 O226 1.264 . S
C243 O227 1.254 . S
C244 Eu180 2.848 . S
C244 O224 1.257 . S
C244 O229 1.249 . S
C244 C237 1.492 . S
C245 H210 0.931 . S
C245 C223 1.420 1_554 S
C245 C246 1.351 . S
C246 H208 0.930 . S
C246 C214 1.423 . S
C246 C245 1.351 . S
C247 O231 1.276 . S
C247 O234 1.235 . S
C248 C249 1.393 . S
C248 C252 1.395 . S
C248 C255 1.492 . S
C249 C248 1.393 . S
C249 C250 1.392 . S
C249 H260 0.930 1_565 S
C250 C249 1.392 . S
C250 C251 1.386 . S
C251 C250 1.386 . S
C251 C253 1.395 . S
C251 H261 0.930 . S
C252 C248 1.395 . S
C252 C253 1.379 . S
C252 H262 0.930 . S
C253 C251 1.395 . S
C253 C252 1.379 . S
C253 H263 0.930 . S
C254 O232 1.264 . S
C254 O233 1.254 . S
C255 Eu191 2.848 . S
C255 O230 1.257 . S
C255 O235 1.249 . S
C255 C248 1.492 . S
H256 C239 0.930 . S
H257 C240 0.930 . S
H258 C241 0.930 . S
H259 C242 0.930 . S
H260 C249 0.930 1_545 S
H261 C251 0.930 . S
H262 C252 0.930 . S
H263 C253 0.930 . S
Eu264 N295 2.657 . S
Eu264 N302 2.609 . S
Eu264 O308 2.558 . S
Eu264 O309 2.612 . S
Eu264 O311 2.339 . S
Eu264 O312 2.563 . S
Eu264 O313 2.419 . S
Eu264 O315 2.380 . S
Eu264 O316 2.432 . S
Eu264 C328 2.848 . S
C265 C268 1.429 . S
C265 C269 1.411 . S
C265 N272 1.377 . S
C266 C268 1.420 . S
C266 C270 1.423 . S
C266 C278 1.392 . S
C267 C269 1.420 . S
C267 C270 1.351 . S
C267 H290 0.931 . S
C268 C265 1.429 . S
C268 C266 1.420 . S
C268 N276 1.362 . S
C269 C265 1.411 . S
C269 C267 1.420 . S
C269 C274 1.395 . S
C270 C266 1.423 . S
C270 C267 1.351 . S
C270 H282 0.930 . S
C271 C273 1.400 . S
C271 C274 1.386 . S
C271 H283 0.930 . S
N272 C265 1.377 . S
N272 C273 1.321 . S
N272 Eu275 2.609 . S
C273 C271 1.400 . S
C273 N272 1.321 . S
C273 H280 0.930 . S
C274 C269 1.395 . S
C274 C271 1.386 . S
C274 H293 0.930 . S
Eu275 N272 2.609 . S
Eu275 N276 2.657 . S
Eu275 O309 2.380 . S
Eu275 O310 2.432 . S
Eu275 O314 2.558 . S
Eu275 O315 2.612 . S
Eu275 O317 2.339 . S
Eu275 O318 2.563 . S
Eu275 O319 2.419 . S
Eu275 C339 2.848 . S
N276 C268 1.362 . S
N276 Eu275 2.657 . S
N276 C277 1.334 . S
C277 N276 1.334 . S
C277 C279 1.413 . S
C277 H284 0.929 . S
C278 C266 1.392 . S
C278 C279 1.367 . S
C278 H286 0.930 . S
C279 C277 1.413 . S
C279 C278 1.367 . S
C279 H281 0.930 . S
H280 C273 0.930 . S
H281 C279 0.930 . S
H282 C270 0.930 . S
H283 C271 0.930 . S
H284 C277 0.929 . S
H285 C299 0.930 . S
H286 C278 0.930 . S
H287 C305 0.930 . S
H288 C296 0.929 . S
H289 C303 0.930 . S
H290 C267 0.931 . S
H291 C297 0.930 . S
H292 C330 0.930 . S
H293 C274 0.930 . S
H294 C329 0.931 . S
N295 Eu264 2.657 . S
N295 C296 1.334 . S
N295 C300 1.362 . S
C296 H288 0.929 . S
C296 N295 1.334 . S
C296 C299 1.413 . S
C297 H291 0.930 . S
C297 C298 1.392 . S
C297 C299 1.367 . S
C298 C297 1.392 . S
C298 C300 1.420 . S
C298 C330 1.423 . S
C299 H285 0.930 . S
C299 C296 1.413 . S
C299 C297 1.367 . S
C300 N295 1.362 . S
C300 C298 1.420 . S
C300 C304 1.429 . S
H301 C306 0.930 . S
N302 Eu264 2.609 . S
N302 C304 1.377 . S
N302 C305 1.321 . S
C303 H289 0.930 . S
C303 C305 1.400 . S
C303 C306 1.386 . S
C304 C300 1.429 . S
C304 N302 1.377 . S
C304 C307 1.411 . S
C305 H287 0.930 . S
C305 N302 1.321 . S
C305 C303 1.400 . S
C306 H301 0.930 . S
C306 C303 1.386 . S
C306 C307 1.395 . S
C307 C304 1.411 . S
C307 C306 1.395 . S
C307 C329 1.420 . S
O308 Eu264 2.558 . S
O308 C328 1.257 . S
O309 Eu264 2.612 . S
O309 Eu275 2.380 . S
O309 C320 1.276 . S
O310 Eu275 2.432 . S
O310 C327 1.264 . S
O311 Eu264 2.339 . S
O311 C327 1.254 . S
O312 Eu264 2.563 . S
O312 C320 1.235 . S
O313 Eu264 2.419 . S
O313 C328 1.249 . S
O314 Eu275 2.558 . S
O314 C339 1.257 . S
O315 Eu264 2.380 . S
O315 Eu275 2.612 . S
O315 C331 1.276 . S
O316 Eu264 2.432 . S
O316 C338 1.264 . S
O317 Eu275 2.339 . S
O317 C338 1.254 . S
O318 Eu275 2.563 . S
O318 C331 1.235 . S
O319 Eu275 2.419 . S
O319 C339 1.249 . S
C320 O309 1.276 . S
C320 O312 1.235 . S
C321 C323 1.393 . S
C321 C325 1.395 . S
C321 C328 1.492 . S
C322 C323 1.392 . S
C322 C324 1.386 . S
C323 C321 1.393 . S
C323 C322 1.392 . S
C323 H340 0.930 . S
C324 C322 1.386 . S
C324 C326 1.395 . S
C324 H341 0.930 . S
C325 C321 1.395 . S
C325 C326 1.379 . S
C325 H342 0.930 . S
C326 C324 1.395 . S
C326 C325 1.379 . S
C326 H343 0.930 . S
C327 O310 1.264 . S
C327 O311 1.254 . S
C328 Eu264 2.848 . S
C328 O308 1.257 . S
C328 O313 1.249 . S
C328 C321 1.492 . S
C329 H294 0.931 . S
C329 C307 1.420 . S
C329 C330 1.351 . S
C330 H292 0.930 . S
C330 C298 1.423 . S
C330 C329 1.351 . S
C331 O315 1.276 . S
C331 O318 1.235 . S
C332 C333 1.393 . S
C332 C336 1.395 1_556 S
C332 C339 1.492 . S
C333 C332 1.393 . S
C333 C334 1.392 1_556 S
C333 H344 0.930 . S
C334 C333 1.392 1_554 S
C334 C335 1.386 . S
C335 C334 1.386 . S
C335 C337 1.395 . S
C335 H345 0.930 . S
C336 C332 1.395 1_554 S
C336 C337 1.379 . S
C336 H346 0.930 . S
C337 C335 1.395 . S
C337 C336 1.379 . S
C337 H347 0.930 . S
C338 O316 1.264 . S
C338 O317 1.254 . S
C339 Eu275 2.848 . S
C339 O314 1.257 . S
C339 O319 1.249 . S
C339 C332 1.492 . S
H340 C323 0.930 . S
H341 C324 0.930 . S
H342 C325 0.930 . S
H343 C326 0.930 . S
H344 C333 0.930 . S
H345 C335 0.930 . S
H346 C336 0.930 . S
H347 C337 0.930 . S
Eu348 N379 2.657 . S
Eu348 N386 2.609 . S
Eu348 O392 2.558 . S
Eu348 O393 2.612 . S
Eu348 O395 2.339 . S
Eu348 O396 2.563 . S
Eu348 O397 2.419 . S
Eu348 O399 2.380 . S
Eu348 O400 2.432 1_455 S
Eu348 C412 2.848 . S
C349 C352 1.429 . S
C349 C353 1.411 . S
C349 N356 1.377 . S
C350 C352 1.420 . S
C350 C354 1.423 . S
C350 C362 1.392 . S
C351 C353 1.420 . S
C351 C354 1.351 . S
C351 H374 0.931 . S
C352 C349 1.429 . S
C352 C350 1.420 . S
C352 N360 1.362 . S
C353 C349 1.411 . S
C353 C351 1.420 . S
C353 C358 1.395 1_655 S
C354 C350 1.423 . S
C354 C351 1.351 . S
C354 H366 0.930 . S
C355 C357 1.400 . S
C355 C358 1.386 . S
C355 H367 0.930 . S
N356 C349 1.377 . S
N356 C357 1.321 1_655 S
N356 Eu359 2.609 . S
C357 C355 1.400 . S
C357 N356 1.321 1_455 S
C357 H364 0.930 . S
C358 C353 1.395 1_455 S
C358 C355 1.386 . S
C358 H377 0.930 . S
Eu359 N356 2.609 . S
Eu359 N360 2.657 . S
Eu359 O393 2.380 1_655 S
Eu359 O394 2.432 1_655 S
Eu359 O398 2.558 . S
Eu359 O399 2.612 1_655 S
Eu359 O401 2.339 . S
Eu359 O402 2.563 . S
Eu359 O403 2.419 . S
Eu359 C423 2.848 . S
N360 C352 1.362 . S
N360 Eu359 2.657 . S
N360 C361 1.334 . S
C361 N360 1.334 . S
C361 C363 1.413 . S
C361 H368 0.929 . S
C362 C350 1.392 . S
C362 C363 1.367 . S
C362 H370 0.930 . S
C363 C361 1.413 . S
C363 C362 1.367 . S
C363 H365 0.930 . S
H364 C357 0.930 . S
H365 C363 0.930 . S
H366 C354 0.930 . S
H367 C355 0.930 . S
H368 C361 0.929 . S
H369 C383 0.930 . S
H370 C362 0.930 . S
H371 C389 0.924 1_655 S
H372 C380 0.929 . S
H373 C387 0.930 . S
H374 C351 0.931 . S
H375 C381 0.930 . S
H376 C414 0.930 . S
H377 C358 0.930 . S
H378 C413 0.931 . S
N379 Eu348 2.657 . S
N379 C380 1.334 . S
N379 C384 1.362 . S
C380 H372 0.929 . S
C380 N379 1.334 . S
C380 C383 1.413 . S
C381 H375 0.930 . S
C381 C382 1.392 . S
C381 C383 1.367 . S
C382 C381 1.392 . S
C382 C384 1.420 . S
C382 C414 1.423 . S
C383 H369 0.930 . S
C383 C380 1.413 . S
C383 C381 1.367 . S
C384 N379 1.362 . S
C384 C382 1.420 . S
C384 C388 1.429 . S
H385 C390 0.930 . S
N386 Eu348 2.609 . S
N386 C388 1.377 . S
N386 C389 1.329 . S
C387 H373 0.930 . S
C387 C389 1.397 1_655 S
C387 C390 1.386 1_655 S
C388 C384 1.429 . S
C388 N386 1.377 . S
C388 C391 1.411 . S
C389 H371 0.924 1_455 S
C389 N386 1.329 . S
C389 C387 1.397 1_455 S
C390 H385 0.930 . S
C390 C387 1.386 1_455 S
C390 C391 1.395 . S
C391 C388 1.411 . S
C391 C390 1.395 . S
C391 C413 1.420 . S
O392 Eu348 2.558 . S
O392 C412 1.257 . S
O393 Eu348 2.612 . S
O393 Eu359 2.380 1_455 S
O393 C404 1.276 . S
O394 Eu359 2.432 1_455 S
O394 C411 1.264 . S
O395 Eu348 2.339 . S
O395 C411 1.254 . S
O396 Eu348 2.563 . S
O396 C404 1.235 . S
O397 Eu348 2.419 . S
O397 C412 1.249 . S
O398 Eu359 2.558 . S
O398 C423 1.257 . S
O399 Eu348 2.380 . S
O399 Eu359 2.612 1_455 S
O399 C415 1.276 1_455 S
O400 Eu348 2.432 1_655 S
O400 C422 1.264 . S
O401 Eu359 2.339 . S
O401 C422 1.254 . S
O402 Eu359 2.563 . S
O402 C415 1.235 . S
O403 Eu359 2.419 . S
O403 C423 1.249 . S
C404 O393 1.276 . S
C404 O396 1.235 . S
C405 C407 1.393 . S
C405 C409 1.395 . S
C405 C412 1.492 . S
C406 C407 1.392 . S
C406 C408 1.386 . S
C407 C405 1.393 . S
C407 C406 1.392 . S
C407 H424 0.930 . S
C408 C406 1.386 . S
C408 C410 1.395 . S
C408 H425 0.930 . S
C409 C405 1.395 . S
C409 C410 1.379 . S
C409 H426 0.930 . S
C410 C408 1.395 . S
C410 C409 1.379 . S
C410 H427 0.930 . S
C411 O394 1.264 . S
C411 O395 1.254 . S
C412 Eu348 2.848 . S
C412 O392 1.257 . S
C412 O397 1.249 . S
C412 C405 1.492 . S
C413 H378 0.931 . S
C413 C391 1.420 . S
C413 C414 1.351 . S
C414 H376 0.930 . S
C414 C382 1.423 . S
C414 C413 1.351 . S
C415 O399 1.276 1_655 S
C415 O402 1.235 . S
C416 C417 1.393 . S
C416 C420 1.395 1_556 S
C416 C423 1.492 . S
C417 C416 1.393 . S
C417 C418 1.392 1_556 S
C417 H428 0.930 . S
C418 C417 1.392 1_554 S
C418 C419 1.386 . S
C419 C418 1.386 . S
C419 C421 1.395 . S
C419 H429 0.930 . S
C420 C416 1.395 1_554 S
C420 C421 1.379 . S
C420 H430 0.930 . S
C421 C419 1.395 . S
C421 C420 1.379 . S
C421 H431 0.930 . S
C422 O400 1.264 . S
C422 O401 1.254 . S
C423 Eu359 2.848 . S
C423 O398 1.257 . S
C423 O403 1.249 . S
C423 C416 1.492 . S
H424 C407 0.930 . S
H425 C408 0.930 . S
H426 C409 0.930 . S
H427 C410 0.930 . S
H428 C417 0.930 . S
H429 C419 0.930 . S
H430 C420 0.930 . S
H431 C421 0.930 . S
C432 C433 1.391 . S
C432 C434 1.394 . S
C432 H448 0.931 . S
C433 C432 1.391 . S
C433 C437 1.376 . S
C434 C432 1.394 . S
C434 C435 1.369 . S
C434 C438 1.531 . S
C435 C434 1.369 . S
C435 C436 1.410 . S
C435 C443 1.503 . S
C436 C435 1.410 . S
C436 C437 1.392 . S
C436 C439 1.511 . S
C437 C433 1.376 . S
C437 C436 1.392 . S
C437 H449 0.929 . S
C438 C434 1.531 . S
C438 H450 0.960 . S
C438 H451 0.962 . S
C438 H452 0.960 . S
C439 C436 1.511 . S
C439 H453 0.961 . S
C439 H454 0.961 . S
C439 H455 0.961 . S
C440 C441 1.370 . S
C440 C442 1.363 . S
C440 H456 0.931 1_545 S
C441 C440 1.370 . S
C441 C445 1.408 . S
C442 C440 1.363 . S
C442 C443 1.370 . S
C442 C446 1.524 1_545 S
C443 C435 1.503 . S
C443 C442 1.370 . S
C443 C444 1.403 . S
C444 C443 1.403 . S
C444 C445 1.404 . S
C444 C447 1.539 . S
C445 C441 1.408 . S
C445 C444 1.404 . S
C445 H457 0.930 . S
C446 C442 1.524 1_565 S
C446 H458 0.956 . S
C446 H459 0.961 1_565 S
C446 H460 0.961 . S
C447 C444 1.539 . S
C447 H461 0.958 . S
C447 H462 0.961 . S
C447 H463 0.960 . S
H448 C432 0.931 . S
H449 C437 0.929 . S
H450 C438 0.960 . S
H451 C438 0.962 . S
H452 C438 0.960 . S
H453 C439 0.961 . S
H454 C439 0.961 . S
H455 C439 0.961 . S
H456 C440 0.931 1_565 S
H457 C445 0.930 . S
H458 C446 0.956 . S
H459 C446 0.961 1_545 S
H460 C446 0.961 . S
H461 C447 0.958 . S
H462 C447 0.961 . S
H463 C447 0.960 . S
C464 C465 1.391 . S
C464 C466 1.394 . S
C464 H480 0.931 . S
C465 C464 1.391 . S
C465 C469 1.376 . S
C466 C464 1.394 . S
C466 C467 1.369 . S
C466 C470 1.531 . S
C467 C466 1.369 . S
C467 C468 1.410 . S
C467 C475 1.503 . S
C468 C467 1.410 . S
C468 C469 1.392 . S
C468 C471 1.511 . S
C469 C465 1.376 . S
C469 C468 1.392 . S
C469 H481 0.929 . S
C470 C466 1.531 . S
C470 H482 0.960 . S
C470 H483 0.962 . S
C470 H484 0.960 . S
C471 C468 1.511 . S
C471 H485 0.961 . S
C471 H486 0.961 . S
C471 H487 0.961 . S
C472 C473 1.370 . S
C472 C474 1.363 . S
C472 H488 0.931 . S
C473 C472 1.370 . S
C473 C477 1.408 . S
C474 C472 1.363 . S
C474 C475 1.370 . S
C474 C478 1.524 . S
C475 C467 1.503 . S
C475 C474 1.370 . S
C475 C476 1.403 . S
C476 C475 1.403 . S
C476 C477 1.404 . S
C476 C479 1.539 . S
C477 C473 1.408 . S
C477 C476 1.404 . S
C477 H489 0.930 . S
C478 C474 1.524 . S
C478 H490 0.956 . S
C478 H491 0.961 . S
C478 H492 0.961 . S
C479 C476 1.539 . S
C479 H493 0.958 . S
C479 H494 0.961 . S
C479 H495 0.960 . S
H480 C464 0.931 . S
H481 C469 0.929 . S
H482 C470 0.960 . S
H483 C470 0.962 . S
H484 C470 0.960 . S
H485 C471 0.961 . S
H486 C471 0.961 . S
H487 C471 0.961 . S
H488 C472 0.931 . S
H489 C477 0.930 . S
H490 C478 0.956 . S
H491 C478 0.961 . S
H492 C478 0.961 . S
H493 C479 0.958 . S
H494 C479 0.961 . S
H495 C479 0.960 . S
C496 C497 1.391 . S
C496 C498 1.394 . S
C496 H512 0.931 . S
C497 C496 1.391 . S
C497 C501 1.376 . S
C498 C496 1.394 . S
C498 C499 1.369 . S
C498 C502 1.531 . S
C499 C498 1.369 . S
C499 C500 1.410 . S
C499 C507 1.503 . S
C500 C499 1.410 . S
C500 C501 1.392 . S
C500 C503 1.511 . S
C501 C497 1.376 . S
C501 C500 1.392 . S
C501 H513 0.929 . S
C502 C498 1.531 . S
C502 H514 0.960 . S
C502 H515 0.962 . S
C502 H516 0.960 . S
C503 C500 1.511 . S
C503 H517 0.961 . S
C503 H518 0.961 . S
C503 H519 0.961 . S
C504 C505 1.370 . S
C504 C506 1.363 . S
C504 H520 0.931 . S
C505 C504 1.370 . S
C505 C509 1.408 . S
C506 C504 1.363 . S
C506 C507 1.370 . S
C506 C510 1.524 . S
C507 C499 1.503 . S
C507 C506 1.370 . S
C507 C508 1.403 . S
C508 C507 1.403 . S
C508 C509 1.404 . S
C508 C511 1.539 . S
C509 C505 1.408 . S
C509 C508 1.404 . S
C509 H521 0.930 . S
C510 C506 1.524 . S
C510 H522 0.956 . S
C510 H523 0.961 . S
C510 H524 0.961 . S
C511 C508 1.539 . S
C511 H525 0.958 . S
C511 H526 0.961 . S
C511 H527 0.960 . S
H512 C496 0.931 . S
H513 C501 0.929 . S
H514 C502 0.960 . S
H515 C502 0.962 . S
H516 C502 0.960 . S
H517 C503 0.961 . S
H518 C503 0.961 . S
H519 C503 0.961 . S
H520 C504 0.931 . S
H521 C509 0.930 . S
H522 C510 0.956 . S
H523 C510 0.961 . S
H524 C510 0.961 . S
H525 C511 0.958 . S
H526 C511 0.961 . S
H527 C511 0.960 . S
C528 C529 1.391 . S
C528 C530 1.394 . S
C528 H544 0.931 . S
C529 C528 1.391 . S
C529 C533 1.376 . S
C530 C528 1.394 . S
C530 C531 1.369 . S
C530 C534 1.531 . S
C531 C530 1.369 . S
C531 C532 1.410 . S
C531 C539 1.503 . S
C532 C531 1.410 . S
C532 C533 1.392 . S
C532 C535 1.511 . S
C533 C529 1.376 . S
C533 C532 1.392 . S
C533 H545 0.929 . S
C534 C530 1.531 . S
C534 H546 0.960 . S
C534 H547 0.962 . S
C534 H548 0.960 . S
C535 C532 1.511 . S
C535 H549 0.961 . S
C535 H550 0.961 . S
C535 H551 0.961 1_455 S
C536 C537 1.370 . S
C536 C538 1.363 . S
C536 H552 0.931 . S
C537 C536 1.370 . S
C537 C541 1.408 . S
C538 C536 1.363 . S
C538 C539 1.370 . S
C538 C542 1.524 . S
C539 C531 1.503 . S
C539 C538 1.370 . S
C539 C540 1.403 . S
C540 C539 1.403 . S
C540 C541 1.404 . S
C540 C543 1.539 1_455 S
C541 C537 1.408 . S
C541 C540 1.404 . S
C541 H553 0.930 1_455 S
C542 C538 1.524 . S
C542 H554 0.956 . S
C542 H555 0.961 . S
C542 H556 0.961 . S
C543 C540 1.539 1_655 S
C543 H557 0.951 1_655 S
C543 H558 0.961 . S
C543 H559 0.960 . S
H544 C528 0.931 . S
H545 C533 0.929 . S
H546 C534 0.960 . S
H547 C534 0.962 . S
H548 C534 0.960 . S
H549 C535 0.961 . S
H550 C535 0.961 . S
H551 C535 0.961 1_655 S
H552 C536 0.931 . S
H553 C541 0.930 1_655 S
H554 C542 0.956 . S
H555 C542 0.961 . S
H556 C542 0.961 . S
H557 C543 0.951 1_455 S
H558 C543 0.961 . S
H559 C543 0.960 . S
C560 C561 1.391 . S
C560 C562 1.394 . S
C560 H576 0.931 . S
C561 C560 1.391 . S
C561 C565 1.376 . S
C562 C560 1.394 . S
C562 C563 1.369 . S
C562 C566 1.531 1_554 S
C563 C562 1.369 . S
C563 C564 1.410 . S
C563 C571 1.503 1_554 S
C564 C563 1.410 . S
C564 C565 1.392 . S
C564 C567 1.511 1_565 S
C565 C561 1.376 . S
C565 C564 1.392 . S
C565 H577 0.929 . S
C566 C562 1.531 1_556 S
C566 H578 0.960 . S
C566 H579 0.962 . S
C566 H580 0.960 . S
C567 C564 1.511 1_545 S
C567 H581 0.960 . S
C567 H582 0.952 1_545 S
C567 H583 0.961 . S
C568 C569 1.370 . S
C568 C570 1.363 . S
C568 H584 0.931 . S
C569 C568 1.370 . S
C569 C573 1.408 1_565 S
C570 C568 1.363 . S
C570 C571 1.370 . S
C570 C574 1.524 . S
C571 C563 1.503 1_556 S
C571 C570 1.370 . S
C571 C572 1.403 1_565 S
C572 C571 1.403 1_545 S
C572 C573 1.404 . S
C572 C575 1.539 . S
C573 C569 1.408 1_545 S
C573 C572 1.404 . S
C573 H585 0.930 . S
C574 C570 1.524 . S
C574 H586 0.956 . S
C574 H587 0.961 1_556 S
C574 H588 0.961 . S
C575 C572 1.539 . S
C575 H589 0.958 . S
C575 H590 0.961 . S
C575 H591 0.960 . S
H576 C560 0.931 . S
H577 C565 0.929 . S
H578 C566 0.960 . S
H579 C566 0.962 . S
H580 C566 0.960 . S
H581 C567 0.960 . S
H582 C567 0.952 1_565 S
H583 C567 0.961 . S
H584 C568 0.931 . S
H585 C573 0.930 . S
H586 C574 0.956 . S
H587 C574 0.961 1_554 S
H588 C574 0.961 . S
H589 C575 0.958 . S
H590 C575 0.961 . S
H591 C575 0.960 . S
C592 C593 1.391 . S
C592 C594 1.394 . S
C592 H608 0.931 . S
C593 C592 1.391 . S
C593 C597 1.376 . S
C594 C592 1.394 . S
C594 C595 1.369 . S
C594 C598 1.531 . S
C595 C594 1.369 . S
C595 C596 1.410 . S
C595 C603 1.503 1_554 S
C596 C595 1.410 . S
C596 C597 1.392 . S
C596 C599 1.511 1_554 S
C597 C593 1.376 . S
C597 C596 1.392 . S
C597 H609 0.929 . S
C598 C594 1.531 . S
C598 H610 0.960 . S
C598 H611 0.962 . S
C598 H612 0.960 . S
C599 C596 1.511 1_556 S
C599 H613 0.961 . S
C599 H614 0.961 . S
C599 H615 0.961 . S
C600 C601 1.370 . S
C600 C602 1.363 . S
C600 H616 0.931 . S
C601 C600 1.370 . S
C601 C605 1.408 . S
C602 C600 1.363 . S
C602 C603 1.370 . S
C602 C606 1.524 . S
C603 C595 1.503 1_556 S
C603 C602 1.370 . S
C603 C604 1.403 . S
C604 C603 1.403 . S
C604 C605 1.404 . S
C604 C607 1.539 . S
C605 C601 1.408 . S
C605 C604 1.404 . S
C605 H617 0.930 . S
C606 C602 1.524 . S
C606 H618 0.956 1_556 S
C606 H619 0.961 . S
C606 H620 0.961 . S
C607 C604 1.539 . S
C607 H621 0.958 1_556 S
C607 H622 0.961 . S
C607 H623 0.960 1_556 S
H608 C592 0.931 . S
H609 C597 0.929 . S
H610 C598 0.960 . S
H611 C598 0.962 . S
H612 C598 0.960 . S
H613 C599 0.961 . S
H614 C599 0.961 . S
H615 C599 0.961 . S
H616 C600 0.931 . S
H617 C605 0.930 . S
H618 C606 0.956 1_554 S
H619 C606 0.961 . S
H620 C606 0.961 . S
H621 C607 0.958 1_554 S
H622 C607 0.961 . S
H623 C607 0.960 1_554 S
C624 C625 1.391 . S
C624 C626 1.394 . S
C624 H640 0.931 . S
C625 C624 1.391 . S
C625 C629 1.376 . S
C626 C624 1.394 . S
C626 C627 1.369 . S
C626 C630 1.531 . S
C627 C626 1.369 . S
C627 C628 1.410 . S
C627 C635 1.503 1_554 S
C628 C627 1.410 . S
C628 C629 1.392 . S
C628 C631 1.511 1_554 S
C629 C625 1.376 . S
C629 C628 1.392 . S
C629 H641 0.929 . S
C630 C626 1.531 . S
C630 H642 0.960 . S
C630 H643 0.962 . S
C630 H644 0.960 . S
C631 C628 1.511 1_556 S
C631 H645 0.961 . S
C631 H646 0.961 . S
C631 H647 0.961 . S
C632 C633 1.370 . S
C632 C634 1.363 . S
C632 H648 0.931 . S
C633 C632 1.370 . S
C633 C637 1.408 . S
C634 C632 1.363 . S
C634 C635 1.370 . S
C634 C638 1.524 1_556 S
C635 C627 1.503 1_556 S
C635 C634 1.370 . S
C635 C636 1.403 . S
C636 C635 1.403 . S
C636 C637 1.404 . S
C636 C639 1.539 . S
C637 C633 1.408 . S
C637 C636 1.404 . S
C637 H649 0.930 . S
C638 C634 1.524 1_554 S
C638 H650 0.956 . S
C638 H651 0.961 . S
C638 H652 0.961 . S
C639 C636 1.539 . S
C639 H653 0.958 . S
C639 H654 0.961 . S
C639 H655 0.960 . S
H640 C624 0.931 . S
H641 C629 0.929 . S
H642 C630 0.960 . S
H643 C630 0.962 . S
H644 C630 0.960 . S
H645 C631 0.961 . S
H646 C631 0.961 . S
H647 C631 0.961 . S
H648 C632 0.931 . S
H649 C637 0.930 . S
H650 C638 0.956 . S
H651 C638 0.961 . S
H652 C638 0.961 . S
H653 C639 0.958 . S
H654 C639 0.961 . S
H655 C639 0.960 . S
C656 C657 1.391 . S
C656 C658 1.394 . S
C656 H672 0.931 . S
C657 C656 1.391 . S
C657 C661 1.376 . S
C658 C656 1.394 . S
C658 C659 1.369 . S
C658 C662 1.531 1_554 S
C659 C658 1.369 . S
C659 C660 1.410 . S
C659 C667 1.503 1_554 S
C660 C659 1.410 . S
C660 C661 1.392 . S
C660 C663 1.511 1_655 S
C661 C657 1.376 . S
C661 C660 1.392 . S
C661 H673 0.929 . S
C662 C658 1.531 1_556 S
C662 H674 0.960 . S
C662 H675 0.962 . S
C662 H676 0.960 . S
C663 C660 1.511 1_455 S
C663 H677 0.960 1_455 S
C663 H678 0.961 1_455 S
C663 H679 0.961 . S
C664 C665 1.370 . S
C664 C666 1.363 . S
C664 H680 0.931 . S
C665 C664 1.370 . S
C665 C669 1.408 1_655 S
C666 C664 1.363 . S
C666 C667 1.370 . S
C666 C670 1.524 1_556 S
C667 C659 1.503 1_556 S
C667 C666 1.370 . S
C667 C668 1.383 1_655 S
C668 C667 1.383 1_455 S
C668 C669 1.408 . S
C668 C671 1.556 . S
C669 C665 1.408 1_455 S
C669 C668 1.408 . S
C669 H681 0.930 . S
C670 C666 1.524 1_554 S
C670 H682 0.956 1_554 S
C670 H683 0.961 . S
C670 H684 0.961 1_554 S
C671 C668 1.556 . S
C671 H685 0.958 . S
C671 H686 0.961 . S
C671 H687 0.960 . S
H672 C656 0.931 . S
H673 C661 0.929 . S
H674 C662 0.960 . S
H675 C662 0.962 . S
H676 C662 0.960 . S
H677 C663 0.960 1_655 S
H678 C663 0.961 1_655 S
H679 C663 0.961 . S
H680 C664 0.931 . S
H681 C669 0.930 . S
H682 C670 0.956 1_556 S
H683 C670 0.961 . S
H684 C670 0.961 1_556 S
H685 C671 0.958 . S
H686 C671 0.961 . S
H687 C671 0.960 . S
C688 C689 1.391 . S
C688 C690 1.394 . S
C688 H704 0.931 . S
C689 C688 1.391 . S
C689 C693 1.376 . S
C690 C688 1.394 . S
C690 C691 1.369 . S
C690 C694 1.531 . S
C691 C690 1.369 . S
C691 C692 1.410 . S
C691 C699 1.503 . S
C692 C691 1.410 . S
C692 C693 1.392 . S
C692 C695 1.511 1_455 S
C693 C689 1.376 . S
C693 C692 1.392 . S
C693 H705 0.929 . S
C694 C690 1.531 . S
C694 H706 0.960 . S
C694 H707 0.962 . S
C694 H708 0.960 . S
C695 C692 1.511 1_655 S
C695 H709 0.961 . S
C695 H710 0.961 . S
C695 H711 0.961 . S
C696 C697 1.370 . S
C696 C698 1.363 . S
C696 H712 0.931 . S
C697 C696 1.370 . S
C697 C701 1.408 . S
C698 C696 1.363 . S
C698 C699 1.370 . S
C698 C702 1.524 . S
C699 C691 1.503 . S
C699 C698 1.370 . S
C699 C700 1.403 . S
C700 C699 1.403 . S
C700 C701 1.404 . S
C700 C703 1.539 . S
C701 C697 1.408 . S
C701 C700 1.404 . S
C701 H713 0.930 . S
C702 C698 1.524 . S
C702 H714 0.956 . S
C702 H715 0.961 . S
C702 H716 0.961 . S
C703 C700 1.539 . S
C703 H717 0.958 . S
C703 H718 0.961 . S
C703 H719 0.960 . S
H704 C688 0.931 . S
H705 C693 0.929 . S
H706 C694 0.960 . S
H707 C694 0.962 . S
H708 C694 0.960 . S
H709 C695 0.961 . S
H710 C695 0.961 . S
H711 C695 0.961 . S
H712 C696 0.931 . S
H713 C701 0.930 . S
H714 C702 0.956 . S
H715 C702 0.961 . S
H716 C702 0.961 . S
H717 C703 0.958 . S
H718 C703 0.961 . S
H719 C703 0.960 . S
C720 C721 1.391 . S
C720 C722 1.394 . S
C720 H736 0.931 1_554 S
C721 C720 1.391 . S
C721 C725 1.376 . S
C722 C720 1.394 . S
C722 C723 1.369 . S
C722 C726 1.531 . S
C723 C722 1.369 . S
C723 C724 1.410 . S
C723 C731 1.503 . S
C724 C723 1.410 . S
C724 C725 1.392 . S
C724 C727 1.511 . S
C725 C721 1.376 . S
C725 C724 1.392 . S
C725 H737 0.929 . S
C726 C722 1.531 . S
C726 H738 0.960 . S
C726 H739 0.966 . S
C726 H740 0.960 1_554 S
C727 C724 1.511 . S
C727 H741 0.961 . S
C727 H742 0.961 . S
C727 H743 0.961 . S
C728 C729 1.370 1_565 S
C728 C730 1.363 1_565 S
C728 H744 0.931 . S
C729 C728 1.370 1_545 S
C729 C733 1.408 . S
C730 C728 1.363 1_545 S
C730 C731 1.370 . S
C730 C734 1.524 1_545 S
C731 C723 1.503 . S
C731 C730 1.370 . S
C731 C732 1.403 . S
C732 C731 1.403 . S
C732 C733 1.404 . S
C732 C735 1.539 . S
C733 C729 1.408 . S
C733 C732 1.404 . S
C733 H745 0.930 . S
C734 C730 1.524 1_565 S
C734 H746 0.956 . S
C734 H747 0.961 1_565 S
C734 H748 0.961 . S
C735 C732 1.539 . S
C735 H749 0.958 . S
C735 H750 0.961 . S
C735 H751 0.960 . S
H736 C720 0.931 1_556 S
H737 C725 0.929 . S
H738 C726 0.960 . S
H739 C726 0.966 . S
H740 C726 0.960 1_556 S
H741 C727 0.961 . S
H742 C727 0.961 . S
H743 C727 0.961 . S
H744 C728 0.931 . S
H745 C733 0.930 . S
H746 C734 0.956 . S
H747 C734 0.961 1_545 S
H748 C734 0.961 . S
H749 C735 0.958 . S
H750 C735 0.961 . S
H751 C735 0.960 . S
C752 C753 1.391 . S
C752 C754 1.394 . S
C752 H768 0.931 . S
C753 C752 1.391 . S
C753 C757 1.376 . S
C754 C752 1.394 . S
C754 C755 1.369 . S
C754 C758 1.531 . S
C755 C754 1.369 . S
C755 C756 1.410 . S
C755 C763 1.503 . S
C756 C755 1.410 . S
C756 C757 1.392 . S
C756 C759 1.511 . S
C757 C753 1.376 . S
C757 C756 1.392 . S
C757 H769 0.929 . S
C758 C754 1.531 . S
C758 H770 0.960 . S
C758 H771 0.962 . S
C758 H772 0.960 . S
C759 C756 1.511 . S
C759 H773 0.961 . S
C759 H774 0.961 . S
C759 H775 0.961 . S
C760 C761 1.370 . S
C760 C762 1.363 . S
C760 H776 0.931 . S
C761 C760 1.370 . S
C761 C765 1.408 . S
C762 C760 1.363 . S
C762 C763 1.370 . S
C762 C766 1.524 . S
C763 C755 1.503 . S
C763 C762 1.370 . S
C763 C764 1.403 . S
C764 C763 1.403 . S
C764 C765 1.404 . S
C764 C767 1.539 . S
C765 C761 1.408 . S
C765 C764 1.404 . S
C765 H777 0.930 . S
C766 C762 1.524 . S
C766 H778 0.956 . S
C766 H779 0.961 . S
C766 H780 0.961 . S
C767 C764 1.539 . S
C767 H781 0.958 . S
C767 H782 0.961 . S
C767 H783 0.960 . S
H768 C752 0.931 . S
H769 C757 0.929 . S
H770 C758 0.960 . S
H771 C758 0.962 . S
H772 C758 0.960 . S
H773 C759 0.961 . S
H774 C759 0.961 . S
H775 C759 0.961 . S
H776 C760 0.931 . S
H777 C765 0.930 . S
H778 C766 0.956 . S
H779 C766 0.961 . S
H780 C766 0.961 . S
H781 C767 0.958 . S
H782 C767 0.961 . S
H783 C767 0.960 . S
C784 C785 1.391 . S
C784 C786 1.394 . S
C784 H800 0.934 . S
C785 C784 1.391 . S
C785 C789 1.376 . S
C786 C784 1.394 . S
C786 C787 1.369 . S
C786 C790 1.531 . S
C787 C786 1.369 . S
C787 C788 1.410 . S
C787 C795 1.503 . S
C788 C787 1.410 . S
C788 C789 1.392 . S
C788 C791 1.511 . S
C789 C785 1.376 . S
C789 C788 1.392 . S
C789 H801 0.929 . S
C790 C786 1.531 . S
C790 H802 0.960 . S
C790 H803 0.962 . S
C790 H804 0.960 1_554 S
C791 C788 1.511 . S
C791 H805 0.961 . S
C791 H806 0.961 . S
C791 H807 0.961 . S
C792 C793 1.370 . S
C792 C794 1.363 . S
C792 H808 0.931 . S
C793 C792 1.370 . S
C793 C797 1.408 . S
C794 C792 1.363 . S
C794 C795 1.370 . S
C794 C798 1.524 . S
C795 C787 1.503 . S
C795 C794 1.370 . S
C795 C796 1.403 . S
C796 C795 1.403 . S
C796 C797 1.404 . S
C796 C799 1.539 . S
C797 C793 1.408 . S
C797 C796 1.404 . S
C797 H809 0.930 . S
C798 C794 1.524 . S
C798 H810 0.956 . S
C798 H811 0.961 . S
C798 H812 0.961 . S
C799 C796 1.539 . S
C799 H813 0.958 . S
C799 H814 0.961 . S
C799 H815 0.960 . S
H800 C784 0.934 . S
H801 C789 0.929 . S
H802 C790 0.960 . S
H803 C790 0.962 . S
H804 C790 0.960 1_556 S
H805 C791 0.961 . S
H806 C791 0.961 . S
H807 C791 0.961 . S
H808 C792 0.931 . S
H809 C797 0.930 . S
H810 C798 0.956 . S
H811 C798 0.961 . S
H812 C798 0.961 . S
H813 C799 0.958 . S
H814 C799 0.961 . S
H815 C799 0.960 . S
C816 C817 1.391 . S
C816 C818 1.394 . S
C816 H832 0.931 . S
C817 C816 1.391 . S
C817 C821 1.376 . S
C818 C816 1.394 . S
C818 C819 1.369 . S
C818 C822 1.531 . S
C819 C818 1.369 . S
C819 C820 1.410 . S
C819 C827 1.503 . S
C820 C819 1.410 . S
C820 C821 1.392 . S
C820 C823 1.511 1_655 S
C821 C817 1.376 . S
C821 C820 1.392 . S
C821 H833 0.929 . S
C822 C818 1.531 . S
C822 H834 0.960 . S
C822 H835 0.962 . S
C822 H836 0.960 . S
C823 C820 1.511 1_455 S
C823 H837 0.961 . S
C823 H838 0.961 . S
C823 H839 0.961 . S
C824 C825 1.370 1_655 S
C824 C826 1.363 1_556 S
C824 H840 0.931 . S
C825 C824 1.370 1_455 S
C825 C829 1.408 1_556 S
C826 C824 1.363 1_554 S
C826 C827 1.370 . S
C826 C830 1.524 1_554 S
C827 C819 1.503 . S
C827 C826 1.370 . S
C827 C828 1.403 . S
C828 C827 1.403 . S
C828 C829 1.404 1_655 S
C828 C831 1.539 . S
C829 C825 1.408 1_554 S
C829 C828 1.404 1_455 S
C829 H841 0.930 . S
C830 C826 1.524 1_556 S
C830 H842 0.956 . S
C830 H843 0.961 . S
C830 H844 0.961 . S
C831 C828 1.539 . S
C831 H845 0.958 . S
C831 H846 0.961 1_655 S
C831 H847 0.960 . S
H832 C816 0.931 . S
H833 C821 0.929 . S
H834 C822 0.960 . S
H835 C822 0.962 . S
H836 C822 0.960 . S
H837 C823 0.961 . S
H838 C823 0.961 . S
H839 C823 0.961 . S
H840 C824 0.931 . S
H841 C829 0.930 . S
H842 C830 0.956 . S
H843 C830 0.961 . S
H844 C830 0.961 . S
H845 C831 0.958 . S
H846 C831 0.961 1_455 S
H847 C831 0.960 . S
C848 C849 1.391 . S
C848 C850 1.394 . S
C848 H864 0.931 . S
C849 C848 1.391 . S
C849 C853 1.376 . S
C850 C848 1.394 . S
C850 C851 1.369 . S
C850 C854 1.531 1_554 S
C851 C850 1.369 . S
C851 C852 1.410 . S
C851 C859 1.503 . S
C852 C851 1.410 . S
C852 C853 1.392 . S
C852 C855 1.511 . S
C853 C849 1.376 . S
C853 C852 1.392 . S
C853 H865 0.929 . S
C854 C850 1.531 1_556 S
C854 H866 0.960 . S
C854 H867 0.962 . S
C854 H868 0.960 . S
C855 C852 1.511 . S
C855 H869 0.961 . S
C855 H870 0.961 . S
C855 H871 0.961 . S
C856 C857 1.370 1_554 S
C856 C858 1.363 . S
C856 H872 0.931 . S
C857 C856 1.370 1_556 S
C857 C861 1.408 1_545 S
C858 C856 1.363 . S
C858 C859 1.370 1_545 S
C858 C862 1.524 . S
C859 C851 1.503 . S
C859 C858 1.370 1_565 S
C859 C860 1.403 . S
C860 C859 1.403 . S
C860 C861 1.404 1_554 S
C860 C863 1.539 . S
C861 C857 1.408 1_565 S
C861 C860 1.404 1_556 S
C861 H873 0.930 . S
C862 C858 1.524 . S
C862 H874 0.956 . S
C862 H875 0.961 . S
C862 H876 0.961 . S
C863 C860 1.539 . S
C863 H877 0.958 1_554 S
C863 H878 0.961 . S
C863 H879 0.960 . S
H864 C848 0.931 . S
H865 C853 0.929 . S
H866 C854 0.960 . S
H867 C854 0.962 . S
H868 C854 0.960 . S
H869 C855 0.961 . S
H870 C855 0.961 . S
H871 C855 0.961 . S
H872 C856 0.931 . S
H873 C861 0.930 . S
H874 C862 0.956 . S
H875 C862 0.961 . S
H876 C862 0.961 . S
H877 C863 0.958 1_556 S
H878 C863 0.961 . S
H879 C863 0.960 . S
C880 C881 1.391 . S
C880 C882 1.394 . S
C880 H896 0.931 . S
C881 C880 1.391 . S
C881 C885 1.376 . S
C882 C880 1.394 . S
C882 C883 1.369 . S
C882 C886 1.531 . S
C883 C882 1.369 . S
C883 C884 1.410 . S
C883 C891 1.503 . S
C884 C883 1.410 . S
C884 C885 1.392 . S
C884 C887 1.511 . S
C885 C881 1.376 . S
C885 C884 1.392 . S
C885 H897 0.929 . S
C886 C882 1.531 . S
C886 H898 0.960 . S
C886 H899 0.962 . S
C886 H900 0.960 . S
C887 C884 1.511 . S
C887 H901 0.961 . S
C887 H902 0.961 . S
C887 H903 0.961 . S
C888 C889 1.370 . S
C888 C890 1.363 . S
C888 H904 0.931 . S
C889 C888 1.370 . S
C889 C893 1.408 1_554 S
C890 C888 1.363 . S
C890 C891 1.370 . S
C890 C894 1.524 . S
C891 C883 1.503 . S
C891 C890 1.370 . S
C891 C892 1.403 1_554 S
C892 C891 1.403 1_556 S
C892 C893 1.404 . S
C892 C895 1.539 . S
C893 C889 1.408 1_556 S
C893 C892 1.404 . S
C893 H905 0.930 . S
C894 C890 1.524 . S
C894 H906 0.956 . S
C894 H907 0.961 . S
C894 H908 0.961 . S
C895 C892 1.539 . S
C895 H909 0.958 . S
C895 H910 0.961 . S
C895 H911 0.960 . S
H896 C880 0.931 . S
H897 C885 0.929 . S
H898 C886 0.960 . S
H899 C886 0.962 . S
H900 C886 0.960 . S
H901 C887 0.961 . S
H902 C887 0.961 . S
H903 C887 0.961 . S
H904 C888 0.931 . S
H905 C893 0.930 . S
H906 C894 0.956 . S
H907 C894 0.961 . S
H908 C894 0.961 . S
H909 C895 0.958 . S
H910 C895 0.961 . S
H911 C895 0.960 . S
C912 C913 1.391 . S
C912 C914 1.394 . S
C912 H928 0.931 . S
C913 C912 1.391 . S
C913 C917 1.376 . S
C914 C912 1.394 . S
C914 C915 1.369 . S
C914 C918 1.531 . S
C915 C914 1.369 . S
C915 C916 1.410 . S
C915 C923 1.503 . S
C916 C915 1.410 . S
C916 C917 1.392 . S
C916 C919 1.511 . S
C917 C913 1.376 . S
C917 C916 1.392 . S
C917 H929 0.929 . S
C918 C914 1.531 . S
C918 H930 0.960 . S
C918 H931 0.962 . S
C918 H932 0.960 . S
C919 C916 1.511 . S
C919 H933 0.961 . S
C919 H934 0.961 . S
C919 H935 0.961 . S
C920 C921 1.370 . S
C920 C922 1.363 . S
C920 H936 0.931 . S
C921 C920 1.370 . S
C921 C925 1.408 1_554 S
C922 C920 1.363 . S
C922 C923 1.370 . S
C922 C926 1.524 . S
C923 C915 1.503 . S
C923 C922 1.370 . S
C923 C924 1.403 1_554 S
C924 C923 1.403 1_556 S
C924 C925 1.404 . S
C924 C927 1.539 . S
C925 C921 1.408 1_556 S
C925 C924 1.404 . S
C925 H937 0.930 . S
C926 C922 1.524 . S
C926 H938 0.956 . S
C926 H939 0.961 . S
C926 H940 0.961 . S
C927 C924 1.539 . S
C927 H941 0.958 . S
C927 H942 0.961 . S
C927 H943 0.960 . S
H928 C912 0.931 . S
H929 C917 0.929 . S
H930 C918 0.960 . S
H931 C918 0.962 . S
H932 C918 0.960 . S
H933 C919 0.961 . S
H934 C919 0.961 . S
H935 C919 0.961 . S
H936 C920 0.931 . S
H937 C925 0.930 . S
H938 C926 0.956 . S
H939 C926 0.961 . S
H940 C926 0.961 . S
H941 C927 0.958 . S
H942 C927 0.961 . S
H943 C927 0.960 . S
C944 C945 1.391 . S
C944 C946 1.394 . S
C944 H960 0.931 . S
C945 C944 1.391 . S
C945 C949 1.376 . S
C946 C944 1.394 . S
C946 C947 1.369 . S
C946 C950 1.531 . S
C947 C946 1.369 . S
C947 C948 1.410 . S
C947 C955 1.503 . S
C948 C947 1.410 . S
C948 C949 1.392 . S
C948 C951 1.511 1_455 S
C949 C945 1.376 . S
C949 C948 1.392 . S
C949 H961 0.929 . S
C950 C946 1.531 . S
C950 H962 0.960 . S
C950 H963 0.962 . S
C950 H964 0.960 . S
C951 C948 1.511 1_655 S
C951 H965 0.961 . S
C951 H966 0.961 . S
C951 H967 0.961 . S
C952 C953 1.370 . S
C952 C954 1.363 . S
C952 H968 0.931 . S
C953 C952 1.370 . S
C953 C957 1.408 . S
C954 C952 1.363 . S
C954 C955 1.370 . S
C954 C958 1.524 . S
C955 C947 1.503 . S
C955 C954 1.370 . S
C955 C956 1.403 . S
C956 C955 1.403 . S
C956 C957 1.404 . S
C956 C959 1.539 . S
C957 C953 1.408 . S
C957 C956 1.404 . S
C957 H969 0.930 . S
C958 C954 1.524 . S
C958 H970 0.956 . S
C958 H971 0.961 . S
C958 H972 0.961 . S
C959 C956 1.539 . S
C959 H973 0.958 . S
C959 H974 0.961 . S
C959 H975 0.960 . S
H960 C944 0.931 . S
H961 C949 0.929 . S
H962 C950 0.960 . S
H963 C950 0.962 . S
H964 C950 0.960 . S
H965 C951 0.961 . S
H966 C951 0.961 . S
H967 C951 0.961 . S
H968 C952 0.931 . S
H969 C957 0.930 . S
H970 C958 0.956 . S
H971 C958 0.961 . S
H972 C958 0.961 . S
H973 C959 0.958 . S
H974 C959 0.961 . S
H975 C959 0.960 . S
C976 C977 1.391 . S
C976 C978 1.394 . S
C976 H992 0.931 . S
C977 C976 1.391 . S
C977 C981 1.376 . S
C978 C976 1.394 . S
C978 C979 1.369 . S
C978 C982 1.531 . S
C979 C978 1.369 . S
C979 C980 1.410 . S
C979 C987 1.503 . S
C980 C979 1.410 . S
C980 C981 1.392 . S
C980 C983 1.511 1_545 S
C981 C977 1.376 . S
C981 C980 1.392 . S
C981 H993 0.929 . S
C982 C978 1.531 . S
C982 H994 0.960 . S
C982 H995 0.962 . S
C982 H996 0.960 . S
C983 C980 1.511 1_565 S
C983 H997 0.961 . S
C983 H998 0.964 . S
C983 H999 0.961 . S
C984 C985 1.370 . S
C984 C986 1.363 . S
C984 H1000 0.931 . S
C985 C984 1.370 . S
C985 C989 1.408 . S
C986 C984 1.363 . S
C986 C987 1.370 . S
C986 C990 1.524 . S
C987 C979 1.503 . S
C987 C986 1.370 . S
C987 C988 1.403 . S
C988 C987 1.403 . S
C988 C989 1.404 . S
C988 C991 1.539 . S
C989 C985 1.408 . S
C989 C988 1.404 . S
C989 H1001 0.930 . S
C990 C986 1.524 . S
C990 H1002 0.956 . S
C990 H1003 0.961 . S
C990 H1004 0.961 . S
C991 C988 1.539 . S
C991 H1005 0.958 . S
C991 H1006 0.961 . S
C991 H1007 0.960 . S
H992 C976 0.931 . S
H993 C981 0.929 . S
H994 C982 0.960 . S
H995 C982 0.962 . S
H996 C982 0.960 . S
H997 C983 0.961 . S
H998 C983 0.964 . S
H999 C983 0.961 . S
H1000 C984 0.931 . S
H1001 C989 0.930 . S
H1002 C990 0.956 . S
H1003 C990 0.961 . S
H1004 C990 0.961 . S
H1005 C991 0.958 . S
H1006 C991 0.961 . S
H1007 C991 0.960 . S
C1008 C1009 1.391 . S
C1008 C1010 1.394 . S
C1008 H1024 0.931 . S
C1009 C1008 1.391 . S
C1009 C1013 1.376 . S
C1010 C1008 1.394 . S
C1010 C1011 1.369 . S
C1010 C1014 1.531 . S
C1011 C1010 1.369 . S
C1011 C1012 1.410 . S
C1011 C1019 1.503 . S
C1012 C1011 1.410 . S
C1012 C1013 1.392 . S
C1012 C1015 1.511 . S
C1013 C1009 1.376 . S
C1013 C1012 1.392 . S
C1013 H1025 0.929 . S
C1014 C1010 1.531 . S
C1014 H1026 0.960 . S
C1014 H1027 0.962 . S
C1014 H1028 0.960 1_556 S
C1015 C1012 1.511 . S
C1015 H1029 0.961 . S
C1015 H1030 0.961 . S
C1015 H1031 0.961 . S
C1016 C1017 1.370 . S
C1016 C1018 1.363 . S
C1016 H1032 0.931 . S
C1017 C1016 1.370 . S
C1017 C1021 1.408 . S
C1018 C1016 1.363 . S
C1018 C1019 1.370 . S
C1018 C1022 1.524 . S
C1019 C1011 1.503 . S
C1019 C1018 1.370 . S
C1019 C1020 1.403 . S
C1020 C1019 1.403 . S
C1020 C1021 1.404 . S
C1020 C1023 1.539 . S
C1021 C1017 1.408 . S
C1021 C1020 1.404 . S
C1021 H1033 0.930 . S
C1022 C1018 1.524 . S
C1022 H1034 0.956 . S
C1022 H1035 0.961 . S
C1022 H1036 0.961 . S
C1023 C1020 1.539 . S
C1023 H1037 0.958 . S
C1023 H1038 0.961 . S
C1023 H1039 0.960 . S
H1024 C1008 0.931 . S
H1025 C1013 0.929 . S
H1026 C1014 0.960 . S
H1027 C1014 0.962 . S
H1028 C1014 0.960 1_554 S
H1029 C1015 0.961 . S
H1030 C1015 0.961 . S
H1031 C1015 0.961 . S
H1032 C1016 0.931 . S
H1033 C1021 0.930 . S
H1034 C1022 0.956 . S
H1035 C1022 0.961 . S
H1036 C1022 0.961 . S
H1037 C1023 0.958 . S
H1038 C1023 0.961 . S
H1039 C1023 0.960 . S
C1040 C1041 1.391 . S
C1040 C1042 1.394 . S
C1040 H1056 0.931 . S
C1041 C1040 1.391 . S
C1041 C1045 1.376 . S
C1042 C1040 1.394 . S
C1042 C1043 1.369 . S
C1042 C1046 1.531 . S
C1043 C1042 1.369 . S
C1043 C1044 1.410 . S
C1043 C1051 1.503 . S
C1044 C1043 1.410 . S
C1044 C1045 1.392 . S
C1044 C1047 1.511 . S
C1045 C1041 1.376 . S
C1045 C1044 1.392 . S
C1045 H1057 0.929 . S
C1046 C1042 1.531 . S
C1046 H1058 0.960 . S
C1046 H1059 0.962 . S
C1046 H1060 0.960 1_556 S
C1047 C1044 1.511 . S
C1047 H1061 0.961 . S
C1047 H1062 0.961 . S
C1047 H1063 0.961 . S
C1048 C1049 1.370 . S
C1048 C1050 1.363 . S
C1048 H1064 0.931 . S
C1049 C1048 1.370 . S
C1049 C1053 1.408 . S
C1050 C1048 1.363 . S
C1050 C1051 1.370 . S
C1050 C1054 1.524 . S
C1051 C1043 1.503 . S
C1051 C1050 1.370 . S
C1051 C1052 1.403 . S
C1052 C1051 1.403 . S
C1052 C1053 1.404 . S
C1052 C1055 1.539 . S
C1053 C1049 1.408 . S
C1053 C1052 1.404 . S
C1053 H1065 0.930 . S
C1054 C1050 1.524 . S
C1054 H1066 0.956 . S
C1054 H1067 0.961 . S
C1054 H1068 0.961 . S
C1055 C1052 1.539 . S
C1055 H1069 0.958 . S
C1055 H1070 0.961 . S
C1055 H1071 0.960 . S
H1056 C1040 0.931 . S
H1057 C1045 0.929 . S
H1058 C1046 0.960 . S
H1059 C1046 0.962 . S
H1060 C1046 0.960 1_554 S
H1061 C1047 0.961 . S
H1062 C1047 0.961 . S
H1063 C1047 0.961 . S
H1064 C1048 0.931 . S
H1065 C1053 0.930 . S
H1066 C1054 0.956 . S
H1067 C1054 0.961 . S
H1068 C1054 0.961 . S
H1069 C1055 0.958 . S
H1070 C1055 0.961 . S
H1071 C1055 0.960 . S
C1072 C1073 1.391 . S
C1072 C1074 1.394 . S
C1072 H1088 0.931 . S
C1073 C1072 1.391 . S
C1073 C1077 1.376 . S
C1074 C1072 1.394 . S
C1074 C1075 1.369 . S
C1074 C1078 1.531 1_655 S
C1075 C1074 1.369 . S
C1075 C1076 1.410 . S
C1075 C1083 1.503 . S
C1076 C1075 1.410 . S
C1076 C1077 1.392 . S
C1076 C1079 1.511 . S
C1077 C1073 1.376 . S
C1077 C1076 1.392 . S
C1077 H1089 0.929 . S
C1078 C1074 1.531 1_455 S
C1078 H1090 0.960 . S
C1078 H1091 0.962 . S
C1078 H1092 0.960 . S
C1079 C1076 1.511 . S
C1079 H1093 0.961 . S
C1079 H1094 0.961 . S
C1079 H1095 0.961 . S
C1080 C1081 1.370 . S
C1080 C1082 1.363 . S
C1080 H1096 0.931 . S
C1081 C1080 1.370 . S
C1081 C1085 1.408 . S
C1082 C1080 1.363 . S
C1082 C1083 1.370 . S
C1082 C1086 1.524 . S
C1083 C1075 1.503 . S
C1083 C1082 1.370 . S
C1083 C1084 1.403 . S
C1084 C1083 1.403 . S
C1084 C1085 1.404 . S
C1084 C1087 1.539 . S
C1085 C1081 1.408 . S
C1085 C1084 1.404 . S
C1085 H1097 0.930 . S
C1086 C1082 1.524 . S
C1086 H1098 0.951 1_655 S
C1086 H1099 0.961 . S
C1086 H1100 0.961 . S
C1087 C1084 1.539 . S
C1087 H1101 0.958 . S
C1087 H1102 0.961 . S
C1087 H1103 0.960 . S
H1088 C1072 0.931 . S
H1089 C1077 0.929 . S
H1090 C1078 0.960 . S
H1091 C1078 0.962 . S
H1092 C1078 0.960 . S
H1093 C1079 0.961 . S
H1094 C1079 0.961 . S
H1095 C1079 0.961 . S
H1096 C1080 0.931 . S
H1097 C1085 0.930 . S
H1098 C1086 0.951 1_455 S
H1099 C1086 0.961 . S
H1100 C1086 0.961 . S
H1101 C1087 0.958 . S
H1102 C1087 0.961 . S
H1103 C1087 0.960 . S
C1104 C1105 1.391 . S
C1104 C1106 1.394 . S
C1104 H1120 0.931 . S
C1105 C1104 1.391 . S
C1105 C1109 1.376 . S
C1106 C1104 1.394 . S
C1106 C1107 1.369 . S
C1106 C1110 1.531 . S
C1107 C1106 1.369 . S
C1107 C1108 1.410 . S
C1107 C1115 1.503 . S
C1108 C1107 1.410 . S
C1108 C1109 1.392 . S
C1108 C1111 1.511 . S
C1109 C1105 1.376 . S
C1109 C1108 1.392 . S
C1109 H1121 0.929 . S
C1110 C1106 1.531 . S
C1110 H1122 0.960 1_565 S
C1110 H1123 0.962 . S
C1110 H1124 0.960 1_565 S
C1111 C1108 1.511 . S
C1111 H1125 0.961 . S
C1111 H1126 0.961 . S
C1111 H1127 0.961 . S
C1112 C1113 1.370 . S
C1112 C1114 1.363 . S
C1112 H1128 0.931 . S
C1113 C1112 1.370 . S
C1113 C1117 1.408 1_565 S
C1114 C1112 1.363 . S
C1114 C1115 1.370 . S
C1114 C1118 1.524 . S
C1115 C1107 1.503 . S
C1115 C1114 1.370 . S
C1115 C1116 1.403 1_565 S
C1116 C1115 1.403 1_545 S
C1116 C1117 1.404 . S
C1116 C1119 1.539 . S
C1117 C1113 1.408 1_545 S
C1117 C1116 1.404 . S
C1117 H1129 0.930 . S
C1118 C1114 1.524 . S
C1118 H1130 0.956 . S
C1118 H1131 0.961 . S
C1118 H1132 0.961 . S
C1119 C1116 1.539 . S
C1119 H1133 0.958 . S
C1119 H1134 0.961 . S
C1119 H1135 0.960 . S
H1120 C1104 0.931 . S
H1121 C1109 0.929 . S
H1122 C1110 0.960 1_545 S
H1123 C1110 0.962 . S
H1124 C1110 0.960 1_545 S
H1125 C1111 0.961 . S
H1126 C1111 0.961 . S
H1127 C1111 0.961 . S
H1128 C1112 0.931 . S
H1129 C1117 0.930 . S
H1130 C1118 0.956 . S
H1131 C1118 0.961 . S
H1132 C1118 0.961 . S
H1133 C1119 0.958 . S
H1134 C1119 0.961 . S
H1135 C1119 0.960 . S
C1136 C1137 1.391 . S
C1136 C1138 1.394 . S
C1136 H1152 0.931 . S
C1137 C1136 1.391 . S
C1137 C1141 1.376 . S
C1138 C1136 1.394 . S
C1138 C1139 1.369 . S
C1138 C1142 1.531 . S
C1139 C1138 1.369 . S
C1139 C1140 1.410 . S
C1139 C1147 1.503 . S
C1140 C1139 1.410 . S
C1140 C1141 1.392 . S
C1140 C1143 1.511 . S
C1141 C1137 1.376 . S
C1141 C1140 1.392 . S
C1141 H1153 0.929 . S
C1142 C1138 1.531 . S
C1142 H1154 0.960 . S
C1142 H1155 0.962 . S
C1142 H1156 0.960 . S
C1143 C1140 1.511 . S
C1143 H1157 0.961 . S
C1143 H1158 0.961 . S
C1143 H1159 0.961 . S
C1144 C1145 1.370 . S
C1144 C1146 1.363 . S
C1144 H1160 0.931 . S
C1145 C1144 1.370 . S
C1145 C1149 1.408 . S
C1146 C1144 1.363 . S
C1146 C1147 1.370 . S
C1146 C1150 1.524 . S
C1147 C1139 1.503 . S
C1147 C1146 1.370 . S
C1147 C1148 1.403 . S
C1148 C1147 1.403 . S
C1148 C1149 1.404 . S
C1148 C1151 1.539 . S
C1149 C1145 1.408 . S
C1149 C1148 1.404 . S
C1149 H1161 0.930 . S
C1150 C1146 1.524 . S
C1150 H1162 0.956 . S
C1150 H1163 0.961 . S
C1150 H1164 0.961 . S
C1151 C1148 1.539 . S
C1151 H1165 0.958 . S
C1151 H1166 0.961 . S
C1151 H1167 0.960 . S
H1152 C1136 0.931 . S
H1153 C1141 0.929 . S
H1154 C1142 0.960 . S
H1155 C1142 0.962 . S
H1156 C1142 0.960 . S
H1157 C1143 0.961 . S
H1158 C1143 0.961 . S
H1159 C1143 0.961 . S
H1160 C1144 0.931 . S
H1161 C1149 0.930 . S
H1162 C1150 0.956 . S
H1163 C1150 0.961 . S
H1164 C1150 0.961 . S
H1165 C1151 0.958 . S
H1166 C1151 0.961 . S
H1167 C1151 0.960 . S
C1168 C1169 1.391 . S
C1168 C1170 1.394 . S
C1168 H1184 0.931 . S
C1169 C1168 1.391 . S
C1169 C1173 1.376 . S
C1170 C1168 1.394 . S
C1170 C1171 1.369 . S
C1170 C1174 1.531 . S
C1171 C1170 1.369 . S
C1171 C1172 1.410 . S
C1171 C1179 1.503 . S
C1172 C1171 1.410 . S
C1172 C1173 1.392 . S
C1172 C1175 1.511 . S
C1173 C1169 1.376 . S
C1173 C1172 1.392 . S
C1173 H1185 0.929 . S
C1174 C1170 1.531 . S
C1174 H1186 0.960 . S
C1174 H1187 0.962 . S
C1174 H1188 0.960 . S
C1175 C1172 1.511 . S
C1175 H1189 0.961 . S
C1175 H1190 0.961 . S
C1175 H1191 0.961 . S
C1176 C1177 1.370 . S
C1176 C1178 1.363 . S
C1176 H1192 0.931 . S
C1177 C1176 1.370 . S
C1177 C1181 1.408 . S
C1178 C1176 1.363 . S
C1178 C1179 1.370 . S
C1178 C1182 1.524 . S
C1179 C1171 1.503 . S
C1179 C1178 1.370 . S
C1179 C1180 1.403 . S
C1180 C1179 1.403 . S
C1180 C1181 1.404 . S
C1180 C1183 1.539 . S
C1181 C1177 1.408 . S
C1181 C1180 1.404 . S
C1181 H1193 0.930 . S
C1182 C1178 1.524 . S
C1182 H1194 0.956 . S
C1182 H1195 0.961 . S
C1182 H1196 0.961 . S
C1183 C1180 1.539 . S
C1183 H1197 0.958 . S
C1183 H1198 0.961 . S
C1183 H1199 0.960 . S
H1184 C1168 0.931 . S
H1185 C1173 0.929 . S
H1186 C1174 0.960 . S
H1187 C1174 0.962 . S
H1188 C1174 0.960 . S
H1189 C1175 0.961 . S
H1190 C1175 0.961 . S
H1191 C1175 0.961 . S
H1192 C1176 0.931 . S
H1193 C1181 0.930 . S
H1194 C1182 0.956 . S
H1195 C1182 0.961 . S
H1196 C1182 0.961 . S
H1197 C1183 0.958 . S
H1198 C1183 0.961 . S
H1199 C1183 0.960 . S
C433 C76 1.843 . S
C441 C170 1.949 . S
C473 C254 1.969 . S
C465 C88 1.824 . S
C505 C320 1.941 . S
C497 C52 1.960 . S
C537 C404 1.921 . S
C529 C64 1.952 . S
C569 C159 1.938 1_565 S
C561 C28 1.834 . S
C593 C40 1.893 . S
C601 C243 1.966 . S
C625 C4 1.957 . S
C633 C331 1.950 . S
C657 C16 1.929 . S
C665 C415 1.935 . S
C697 C166 0.631 1_455 S
C689 C69 0.686 . S
C729 C250 0.635 1_545 S
C721 C81 0.620 . S
C761 C322 0.597 . S
C753 C93 0.620 . S
C785 C57 0.611 . S
C793 C406 0.608 . S
C817 C21 0.579 . S
C825 C154 0.622 . S
C857 C238 0.638 . S
C849 C33 0.679 . S
C889 C334 0.616 . S
C881 C45 0.659 . S
C913 C9 0.696 . S
C921 C418 0.641 . S
C945 C66 1.987 . S
C953 C163 2.089 . S
C977 C78 1.957 . S
C985 C247 2.058 . S
C1017 C327 2.068 . S
C1009 C90 1.878 . S
C1049 C411 2.098 . S
C1041 C54 1.937 . S
C1073 C18 1.976 . S
C1081 C152 2.098 . S
C1113 C236 2.051 . S
C1105 C30 1.958 . S
C1145 C338 2.078 . S
C1137 C42 1.922 . S
C1169 C6 1.880 . S
C1177 C422 2.107 . S
