# Generated by pormake.
# Topology tsx, (6,3)-cn, num edge types: 1
# Building blocks:
#     Node 0, Type 0, BuildingBlock: CIFDUS_clean_sbu_1, # of connection points: 6
#     Node 1, Type 0, BuildingBlock: CIFDUS_clean_sbu_1, # of connection points: 6
#     Node 2, Type 1, BuildingBlock: BELTOD_clean_linker_0, # of connection points: 3
#     Node 3, Type 1, BuildingBlock: BELTOD_clean_linker_0, # of connection points: 3
#     Node 4, Type 1, BuildingBlock: BELTOD_clean_linker_0, # of connection points: 3
#     Node 5, Type 1, BuildingBlock: BELTOD_clean_linker_0, # of connection points: 3
#     Edge 6, Type (0, 1), BuildingBlock: UVAHIK_clean_linker_0, # of connection points: 2
#     Edge 7, Type (0, 1), BuildingBlock: UVAHIK_clean_linker_0, # of connection points: 2
#     Edge 8, Type (0, 1), BuildingBlock: UVAHIK_clean_linker_0, # of connection points: 2
#     Edge 9, Type (0, 1), BuildingBlock: UVAHIK_clean_linker_0, # of connection points: 2
#     Edge 10, Type (0, 1), BuildingBlock: UVAHIK_clean_linker_0, # of connection points: 2
#     Edge 11, Type (0, 1), BuildingBlock: UVAHIK_clean_linker_0, # of connection points: 2
#     Edge 12, Type (0, 1), BuildingBlock: UVAHIK_clean_linker_0, # of connection points: 2
#     Edge 13, Type (0, 1), BuildingBlock: UVAHIK_clean_linker_0, # of connection points: 2
#     Edge 14, Type (0, 1), BuildingBlock: UVAHIK_clean_linker_0, # of connection points: 2
#     Edge 15, Type (0, 1), BuildingBlock: UVAHIK_clean_linker_0, # of connection points: 2
#     Edge 16, Type (0, 1), BuildingBlock: UVAHIK_clean_linker_0, # of connection points: 2
#     Edge 17, Type (0, 1), BuildingBlock: UVAHIK_clean_linker_0, # of connection points: 2
# Relax obj value: 0.115
# Max RMSD: 0.149
# Mean RMSD: 0.108
data_MOF--net-tsx--node1-CIFDUS_clean_sbu_1--node2-BELTOD_clean_linker_0--edge1-UVAHIK_clean_linker_0
_symmetry_space_group_name_H-M    P1
_symmetry_Int_Tables_number       1
_symmetry_cell_setting            triclinic
loop_
_symmetry_equiv_pos_as_xyz
'x, y, z'
_cell_length_a     25.826496
_cell_length_b     31.408518
_cell_length_c     51.351818
_cell_angle_alpha  97.815794
_cell_angle_beta   91.562773
_cell_angle_gamma 91.423796
loop_
_atom_site_label
_atom_site_type_symbol
_atom_site_fract_x
_atom_site_fract_y
_atom_site_fract_z
_atom_type_partial_charge
O0 O 0.98305 0.09778 0.01151 0.0
Mn1 Mn 0.0272 0.0423 0.00985 0.0
O2 O 0.90536 0.07764 0.99216 0.0
Mn3 Mn 0.92425 0.0235 0.97722 0.0
O4 O 0.07135 0.98686 0.00833 0.0
O5 O 0.09068 0.08069 0.01848 0.0
Mn6 Mn 0.12878 0.06114 0.04301 0.0
O7 O 0.01395 0.04069 0.04995 0.0
O8 O 0.148 0.00682 0.02877 0.0
O9 O 0.04019 0.04309 0.96963 0.0
O10 O 0.96511 0.02099 0.94795 0.0
O11 O 0.16338 0.10973 0.03554 0.0
O12 O 0.08797 0.06386 0.07218 0.0
C13 C 0.93062 0.97295 1.00123 0.0
C14 C 0.93609 0.10575 0.0051 0.0
C15 C 0.11776 0.97867 0.01556 0.0
C16 C 0.12476 0.11169 0.01921 0.0
C17 C 0.04042 0.05183 0.07151 0.0
C18 C 0.01313 0.03178 0.94824 0.0
O19 O 0.96372 0.00434 1.00129 0.0
O20 O 0.89117 0.97426 0.98534 0.0
O21 O 0.4734 0.61342 0.51325 0.0
Mn22 Mn 0.51343 0.55539 0.50968 0.0
O23 O 0.39129 0.59636 0.4988 0.0
Mn24 Mn 0.40563 0.5433 0.48054 0.0
O25 O 0.55288 0.49748 0.50637 0.0
O26 O 0.58026 0.58971 0.51701 0.0
Mn27 Mn 0.61738 0.56813 0.54113 0.0
O28 O 0.50296 0.55331 0.55002 0.0
O29 O 0.62994 0.51176 0.52773 0.0
O30 O 0.52247 0.55709 0.46937 0.0
O31 O 0.44294 0.54437 0.45018 0.0
O32 O 0.65625 0.61377 0.53248 0.0
O33 O 0.57861 0.57502 0.57097 0.0
C34 C 0.41457 0.48981 0.50233 0.0
C35 C 0.42563 0.62303 0.51009 0.0
C36 C 0.59741 0.48588 0.51425 0.0
C37 C 0.61711 0.61825 0.51691 0.0
C38 C 0.53074 0.56444 0.57116 0.0
C39 C 0.49171 0.55151 0.44892 0.0
O40 O 0.44767 0.5209 0.50202 0.0
O41 O 0.37325 0.49301 0.48804 0.0
P42 P 0.0775 0.09619 0.43174 0.0
H43 H 0.05105 0.17087 0.46893 0.0
H44 H 0.96796 0.19889 0.48361 0.0
H45 H 0.88978 0.0842 0.44356 0.0
H46 H 0.97339 0.05645 0.42877 0.0
H47 H 0.17153 0.1037 0.46521 0.0
H48 H 0.21711 0.05304 0.48896 0.0
H49 H 0.10023 0.95497 0.46181 0.0
H50 H 0.05405 0.00643 0.43854 0.0
H51 H 0.01452 0.13252 0.39359 0.0
H52 H 0.1066 0.02003 0.39439 0.0
O53 O 0.11592 0.13982 0.43216 0.0
H54 H 0.99233 0.11094 0.34731 0.0
H55 H 0.08344 0.99743 0.3478 0.0
C56 C 0.01816 0.11203 0.44736 0.0
C57 C 0.01617 0.15139 0.46371 0.0
C58 C 0.96857 0.16727 0.4722 0.0
C59 C 0.92216 0.14397 0.46447 0.0
C60 C 0.92476 0.10318 0.44948 0.0
C61 C 0.9725 0.08721 0.44115 0.0
C62 C 0.11009 0.05844 0.44952 0.0
C63 C 0.15567 0.07129 0.46429 0.0
C64 C 0.1818 0.04226 0.47789 0.0
C65 C 0.16276 0.99976 0.47703 0.0
C66 C 0.11589 0.98751 0.463 0.0
C67 C 0.08968 0.0167 0.44946 0.0
C68 C 0.06129 0.07748 0.39763 0.0
C69 C 0.02936 0.10272 0.38385 0.0
C70 C 0.01638 0.09015 0.35735 0.0
C71 C 0.03536 0.05204 0.34383 0.0
C72 C 0.06807 0.02694 0.35761 0.0
C73 C 0.08108 0.03966 0.38432 0.0
P74 P 0.13191 0.97519 0.58462 0.0
H75 H 0.07581 0.98584 0.5352 0.0
H76 H 0.99473 0.95267 0.51496 0.0
H77 H 0.96613 0.89639 0.58558 0.0
H78 H 0.04698 0.92873 0.60538 0.0
H79 H 0.23444 0.993 0.56534 0.0
H80 H 0.27633 0.05823 0.55407 0.0
H81 H 0.13269 0.12488 0.56562 0.0
H82 H 0.09073 0.05908 0.57669 0.0
H83 H 0.15894 0.92089 0.62463 0.0
H84 H 0.10458 0.04927 0.62309 0.0
O85 O 0.16872 0.93323 0.57526 0.0
H86 H 0.15693 0.93153 0.67259 0.0
H87 H 0.10253 0.06011 0.6711 0.0
C88 C 0.06725 0.96022 0.57195 0.0
C89 C 0.05146 0.96718 0.54652 0.0
C90 C 1.00508 0.94827 0.53498 0.0
C91 C 0.97428 0.92161 0.5486 0.0
C92 C 0.9893 0.91634 0.57447 0.0
C93 C 0.03539 0.93521 0.58593 0.0
C94 C 0.15951 0.02128 0.57202 0.0
C95 C 0.21161 0.02138 0.56501 0.0
C96 C 0.23555 0.05872 0.55847 0.0
C97 C 0.20799 0.09687 0.55924 0.0
C98 C 0.15515 0.09615 0.56525 0.0
C99 C 0.13108 0.05858 0.5715 0.0
C100 C 0.13288 0.98453 0.62017 0.0
C101 C 0.1471 0.95157 0.63458 0.0
C102 C 0.14557 0.95758 0.66203 0.0
C103 C 0.12971 0.99674 0.6757 0.0
C104 C 0.11567 0.02982 0.66121 0.0
C105 C 0.11681 0.02361 0.63369 0.0
P106 P 0.57448 0.57574 0.93133 0.0
H107 H 0.54397 0.62503 0.98052 0.0
H108 H 0.45973 0.64966 0.9961 0.0
H109 H 0.38401 0.57194 0.92934 0.0
H110 H 0.46822 0.54704 0.91402 0.0
H111 H 0.67732 0.54313 0.92231 0.0
H112 H 0.72866 0.49146 0.94259 0.0
H113 H 0.59938 0.46624 0.99051 0.0
H114 H 0.54815 0.51761 0.96992 0.0
H115 H 0.54931 0.63267 0.8935 0.0
H116 H 0.57377 0.49714 0.89228 0.0
O117 O 0.61056 0.62089 0.93829 0.0
H118 H 0.52512 0.62061 0.84677 0.0
H119 H 0.54958 0.48474 0.84517 0.0
C120 C 0.51239 0.58533 0.94574 0.0
C121 C 0.50916 0.61257 0.96957 0.0
C122 C 0.46097 0.62637 0.97853 0.0
C123 C 0.4154 0.61315 0.9637 0.0
C124 C 0.41859 0.58309 0.94093 0.0
C125 C 0.46676 0.56896 0.93215 0.0
C126 C 0.60901 0.53409 0.94453 0.0
C127 C 0.65997 0.52619 0.93706 0.0
C128 C 0.68945 0.49702 0.94891 0.0
C129 C 0.66844 0.47518 0.96854 0.0
C130 C 0.61678 0.48255 0.97554 0.0
C131 C 0.58737 0.51189 0.96371 0.0
C132 C 0.56435 0.56598 0.89618 0.0
C133 C 0.5503 0.60037 0.88302 0.0
C134 C 0.53586 0.59335 0.85639 0.0
C135 C 0.53507 0.55168 0.84235 0.0
C136 C 0.55013 0.51722 0.85547 0.0
C137 C 0.56417 0.52428 0.88232 0.0
P138 P 0.61759 0.47179 0.08585 0.0
H139 H 0.57078 0.48339 0.03461 0.0
H140 H 0.4879 0.45791 0.0127 0.0
H141 H 0.44206 0.40791 0.08324 0.0
H142 H 0.52442 0.43325 0.10471 0.0
H143 H 0.72257 0.48238 0.06745 0.0
H144 H 0.77211 0.54474 0.05724 0.0
H145 H 0.63652 0.62213 0.06931 0.0
H146 H 0.58724 0.55934 0.07983 0.0
H147 H 0.67544 0.43946 0.12867 0.0
H148 H 0.55612 0.53082 0.12071 0.0
O149 O 0.65097 0.42728 0.07799 0.0
H150 H 0.67335 0.456 0.17654 0.0
H151 H 0.55355 0.54742 0.16862 0.0
C152 C 0.55335 0.46101 0.07144 0.0
C153 C 0.54233 0.46774 0.04545 0.0
C154 C 0.49508 0.45293 0.03293 0.0
C155 C 0.4581 0.43103 0.04624 0.0
C156 C 0.46901 0.42542 0.07254 0.0
C157 C 0.51627 0.43992 0.08489 0.0
C158 C 0.65111 0.51617 0.07423 0.0
C159 C 0.70319 0.51256 0.06749 0.0
C160 C 0.73153 0.54832 0.0616 0.0
C161 C 0.70843 0.58858 0.06259 0.0
C162 C 0.65573 0.59177 0.06874 0.0
C163 C 0.62737 0.55586 0.07455 0.0
C164 C 0.61547 0.48355 0.12116 0.0
C165 C 0.64856 0.46292 0.13722 0.0
C166 C 0.64727 0.47235 0.16461 0.0
C167 C 0.6132 0.50297 0.17644 0.0
C168 C 0.58063 0.52402 0.16018 0.0
C169 C 0.58182 0.51439 0.13279 0.0
C170 C 0.1105 0.18848 0.01938 0.0
C171 C 0.12134 0.14881 0.00482 0.0
C172 C 0.13271 0.22655 0.0129 0.0
C173 C 0.25617 0.2537 0.98516 0.0
H174 H 0.21782 0.36991 0.01124 0.0
C175 C 0.41248 0.38772 0.00706 0.0
C176 C 0.41025 0.4108 0.03246 0.0
C177 C 0.3697 0.36291 0.99581 0.0
C178 C 0.22909 0.33766 1.00376 0.0
H179 H 0.15828 0.11795 0.97029 0.0
H180 H 0.19493 0.18456 0.95796 0.0
H181 H 0.15087 0.31291 1.00298 0.0
H182 H 0.35984 0.42865 0.06499 0.0
H183 H 0.28571 0.38494 0.04563 0.0
H184 H 0.3344 0.27781 0.98698 0.0
C185 C 0.1706 0.18643 0.9749 0.0
C186 C 0.19069 0.30495 0.99899 0.0
C187 C 0.14869 0.14828 0.98159 0.0
C188 C 0.36313 0.41074 0.04556 0.0
C189 C 0.32036 0.38603 0.0343 0.0
C190 C 0.29437 0.28634 0.98977 0.0
C191 C 0.16628 0.22554 0.99168 0.0
C192 C 0.20397 0.26215 0.99059 0.0
C193 C 0.32363 0.36069 0.00964 0.0
C194 C 0.28163 0.32842 1.00006 0.0
H195 H 0.09032 0.18955 0.03769 0.0
H196 H 0.12822 0.25578 0.02637 0.0
H197 H 0.26846 0.22123 0.97916 0.0
H198 H 0.44817 0.38687 0.99643 0.0
H199 H 0.37335 0.34423 0.97664 0.0
C200 C 0.19043 0.9276 0.01338 0.0
C201 C 0.13742 0.9346 0.00945 0.0
C202 C 0.20937 0.8862 0.00976 0.0
C203 C 0.18283 0.77589 0.97768 0.0
H204 H 0.29314 0.75295 0.02616 0.0
C205 C 0.3502 0.64369 0.99599 0.0
C206 C 0.36637 0.6353 0.96996 0.0
C207 C 0.30948 0.67139 1.00233 0.0
C208 C 0.26162 0.75807 0.0127 0.0
H209 H 0.06313 0.90345 0.99781 0.0
H210 H 0.09628 0.83041 0.99163 0.0
H211 H 0.24642 0.81899 0.03459 0.0
H212 H 0.35098 0.64742 0.92997 0.0
H213 H 0.2814 0.69648 0.94098 0.0
H214 H 0.1982 0.71474 0.95577 0.0
C215 C 0.12305 0.85731 0.99749 0.0
C216 C 0.23533 0.79644 0.01735 0.0
C217 C 0.10402 0.89908 1.00103 0.0
C218 C 0.339 0.65293 0.95018 0.0
C219 C 0.29884 0.68104 0.95653 0.0
C220 C 0.20892 0.73715 0.97312 0.0
C221 C 0.17589 0.85046 1.00227 0.0
C222 C 0.19712 0.8066 0.99936 0.0
C223 C 0.28477 0.69189 0.98283 0.0
C224 C 0.24997 0.72847 0.99008 0.0
H225 H 0.21758 0.95416 0.01948 0.0
H226 H 0.25054 0.88225 0.01283 0.0
H227 H 0.15337 0.78267 0.96352 0.0
H228 H 0.37028 0.63007 0.01157 0.0
H229 H 0.29886 0.67813 0.02269 0.0
C230 C 0.95414 0.89778 1.00218 0.0
C231 C 0.93654 0.93618 0.01572 0.0
C232 C 0.94243 0.85849 0.01085 0.0
C233 C 0.87944 0.80629 0.06366 0.0
H234 H 0.82674 0.72602 0.00419 0.0
C235 C 0.73399 0.66683 0.07428 0.0
C236 C 0.73984 0.62729 0.05827 0.0
C237 C 0.7645 0.70292 0.07076 0.0
C238 C 0.84198 0.74761 0.02105 0.0
H239 H 0.89463 0.96432 0.04934 0.0
H240 H 0.87339 0.8957 0.06452 0.0
H241 H 0.87317 0.79103 0.99661 0.0
H242 H 0.78227 0.59493 0.02583 0.0
H243 H 0.83592 0.65764 0.01991 0.0
H244 H 0.84667 0.76301 0.08807 0.0
C245 C 0.89756 0.8957 0.04763 0.0
C246 C 0.8689 0.78498 0.01671 0.0
C247 C 0.90989 0.9351 0.03905 0.0
C248 C 0.77698 0.62477 0.03864 0.0
C249 C 0.80746 0.66085 0.0351 0.0
C250 C 0.85238 0.76879 0.06801 0.0
C251 C 0.91143 0.85677 0.03283 0.0
C252 C 0.88762 0.81506 0.03793 0.0
C253 C 0.8016 0.70041 0.0511 0.0
C254 C 0.83283 0.73921 0.04673 0.0
H255 H 0.97316 0.8978 0.98363 0.0
H256 H 0.95465 0.82924 0.99927 0.0
H257 H 0.89361 0.82857 0.08045 0.0
H258 H 0.70626 0.6698 0.08983 0.0
H259 H 0.75846 0.73297 0.08321 0.0
C260 C 0.94921 0.18613 0.01528 0.0
C261 C 0.91609 0.14947 0.01201 0.0
C262 C 0.92857 0.22736 0.01831 0.0
C263 C 0.80625 0.28603 0.03202 0.0
H264 H 0.85686 0.35943 0.98281 0.0
C265 C 0.67828 0.40535 0.98674 0.0
C266 C 0.70023 0.44446 0.98129 0.0
C267 C 0.709 0.37511 0.99688 0.0
C268 C 0.84283 0.33983 0.99708 0.0
H269 H 0.83574 0.12727 0.0111 0.0
H270 H 0.80013 0.19844 0.01634 0.0
H271 H 0.90466 0.29596 0.99012 0.0
H272 H 0.77116 0.48355 0.98393 0.0
H273 H 0.82491 0.43037 1.00126 0.0
H274 H 0.74314 0.32889 0.03808 0.0
C275 C 0.84186 0.19577 0.01661 0.0
C276 C 0.87034 0.30346 1.00131 0.0
C277 C 0.86233 0.15485 0.01334 0.0
C278 C 0.75326 0.45329 0.98726 0.0
C279 C 0.78404 0.42294 0.9973 0.0
C280 C 0.7787 0.32232 0.02775 0.0
C281 C 0.87455 0.23254 0.01853 0.0
C282 C 0.85139 0.27534 0.01815 0.0
C283 C 0.76244 0.38319 1.00179 0.0
C284 C 0.79578 0.34884 0.00958 0.0
H285 H 0.99079 0.18296 0.01432 0.0
H286 H 0.95476 0.25512 0.0199 0.0
H287 H 0.79115 0.26543 0.04549 0.0
H288 H 0.63774 0.39729 0.98219 0.0
H289 H 0.69124 0.34458 0.99979 0.0
C290 C 0.60955 0.69577 0.51727 0.0
C291 C 0.61628 0.65546 0.50251 0.0
C292 C 0.63567 0.73225 0.51083 0.0
C293 C 0.76186 0.74879 0.48282 0.0
H294 H 0.74059 0.86687 0.51287 0.0
C295 C 0.92382 0.85231 0.53781 0.0
C296 C 0.92922 0.89621 0.53542 0.0
C297 C 0.88163 0.82778 0.52602 0.0
C298 C 0.74704 0.83425 0.50393 0.0
H299 H 0.64895 0.62234 0.46738 0.0
H300 H 0.69221 0.68637 0.45506 0.0
H301 H 0.66593 0.81744 0.50252 0.0
H302 H 0.89476 0.94873 0.51845 0.0
H303 H 0.81998 0.90554 0.49787 0.0
H304 H 0.84284 0.76518 0.4849 0.0
C305 C 0.66846 0.68984 0.47224 0.0
C306 C 0.70426 0.80576 0.49817 0.0
C307 C 0.64279 0.65322 0.47893 0.0
C308 C 0.89159 0.91495 0.5206 0.0
C309 C 0.84876 0.89032 0.50894 0.0
C310 C 0.80435 0.77719 0.48846 0.0
C311 C 0.66888 0.72896 0.48938 0.0
C312 C 0.7113 0.76208 0.48868 0.0
C313 C 0.84346 0.84639 0.51151 0.0
C314 C 0.79769 0.81965 0.50025 0.0
H315 H 0.58987 0.69811 0.53577 0.0
H316 H 0.63458 0.76157 0.52456 0.0
H317 H 0.76945 0.71554 0.47576 0.0
H318 H 0.95246 0.83676 0.54878 0.0
H319 H 0.8784 0.79424 0.52877 0.0
C320 C 0.59227 0.41312 0.48639 0.0
C321 C 0.61199 0.44037 0.50863 0.0
C322 C 0.61028 0.37117 0.48065 0.0
C323 C 0.68077 0.28692 0.51004 0.0
H324 H 0.74394 0.26227 0.44226 0.0
C325 C 0.86337 0.18862 0.49453 0.0
C326 C 0.87147 0.16408 0.47009 0.0
C327 C 0.8188 0.21266 0.49852 0.0
C328 C 0.72552 0.26793 0.46106 0.0
H329 H 0.66331 0.44422 0.54311 0.0
H330 H 0.69394 0.3717 0.5333 0.0
H331 H 0.68614 0.32254 0.45033 0.0
H332 H 0.83792 0.14396 0.43103 0.0
H333 H 0.75971 0.18553 0.43813 0.0
H334 H 0.72186 0.23356 0.52121 0.0
C335 C 0.66498 0.38245 0.52017 0.0
C336 C 0.69233 0.3025 0.46565 0.0
C337 C 0.64783 0.42426 0.52563 0.0
C338 C 0.83269 0.16231 0.45017 0.0
C339 C 0.78811 0.18647 0.45413 0.0
C340 C 0.71377 0.25231 0.50544 0.0
C341 C 0.64721 0.35564 0.49743 0.0
C342 C 0.67141 0.31341 0.49055 0.0
C343 C 0.78127 0.21278 0.47814 0.0
C344 C 0.73825 0.24352 0.48126 0.0
H345 H 0.56442 0.42467 0.47303 0.0
H346 H 0.59595 0.35109 0.46297 0.0
H347 H 0.66452 0.29426 0.52931 0.0
H348 H 0.89228 0.19029 0.51035 0.0
H349 H 0.81513 0.23287 0.51718 0.0
C350 C 0.43584 0.41367 0.50263 0.0
C351 C 0.42121 0.45282 0.51655 0.0
C352 C 0.42373 0.37491 0.51197 0.0
C353 C 0.31967 0.33393 0.54921 0.0
H354 H 0.39271 0.22696 0.53825 0.0
C355 C 0.22714 0.17543 0.57308 0.0
C356 C 0.23529 0.13782 0.55567 0.0
C357 C 0.25469 0.21354 0.57083 0.0
C358 C 0.37164 0.25652 0.54121 0.0
H359 H 0.38593 0.48303 0.55177 0.0
H360 H 0.36606 0.4155 0.56866 0.0
H361 H 0.43743 0.29424 0.53205 0.0
H362 H 0.27829 0.11089 0.52198 0.0
H363 H 0.32571 0.17773 0.51764 0.0
H364 H 0.25349 0.29652 0.55749 0.0
C365 C 0.38632 0.41445 0.5504 0.0
C366 C 0.3974 0.29509 0.53781 0.0
C367 C 0.39838 0.45313 0.54099 0.0
C368 C 0.27144 0.13928 0.53581 0.0
C369 C 0.29883 0.17754 0.53344 0.0
C370 C 0.29394 0.29549 0.55249 0.0
C371 C 0.39627 0.37481 0.53527 0.0
C372 C 0.37157 0.33424 0.54158 0.0
C373 C 0.2909 0.21517 0.55098 0.0
C374 C 0.31936 0.25619 0.54833 0.0
H375 H 0.45252 0.41279 0.48343 0.0
H376 H 0.4318 0.34506 0.49976 0.0
H377 H 0.29808 0.36325 0.55163 0.0
H378 H 0.20034 0.17516 0.58892 0.0
H379 H 0.24814 0.24161 0.58496 0.0
C380 C 0.35919 0.67267 0.52909 0.0
C381 C 0.40847 0.66709 0.51852 0.0
C382 C 0.33667 0.71283 0.53178 0.0
C383 C 0.35745 0.82927 0.52716 0.0
H384 H 0.21572 0.81754 0.49961 0.0
C385 C 0.24725 0.96639 0.48692 0.0
C386 C 0.19316 0.96771 0.48937 0.0
C387 C 0.27534 0.93347 0.49588 0.0
C388 C 0.25483 0.82166 0.50789 0.0
H389 H 0.47461 0.69956 0.50419 0.0
H390 H 0.43457 0.77014 0.50823 0.0
H391 H 0.26273 0.75394 0.506 0.0
H392 H 0.12682 0.93698 0.50479 0.0
H393 H 0.17578 0.88008 0.52089 0.0
H394 H 0.34944 0.89735 0.52832 0.0
C395 C 0.4136 0.7435 0.51482 0.0
C396 C 0.28196 0.78501 0.51155 0.0
C397 C 0.43659 0.70315 0.51249 0.0
C398 C 0.16826 0.93659 0.50225 0.0
C399 C 0.19638 0.90388 0.5114 0.0
C400 C 0.33011 0.86617 0.5235 0.0
C401 C 0.36245 0.74829 0.52345 0.0
C402 C 0.33367 0.78821 0.52112 0.0
C403 C 0.25006 0.90114 0.50763 0.0
C404 C 0.27851 0.86274 0.51364 0.0
H405 H 0.33698 0.64542 0.53419 0.0
H406 H 0.29791 0.71561 0.53926 0.0
H407 H 0.39711 0.83288 0.53469 0.0
H408 H 0.26766 0.98959 0.47687 0.0
H409 H 0.31646 0.93221 0.49237 0.0
C410 C 0.02711 0.08302 0.11773 0.0
C411 C 0.01674 0.04953 0.09709 0.0
C412 C 0.01424 0.07833 0.1434 0.0
C413 C 1.00723 0.9969 0.18629 0.0
H414 H 0.95424 0.08903 0.23555 0.0
C415 C 0.06043 0.02438 0.29763 0.0
C416 C 0.0224 0.04009 0.31526 0.0
C417 C 0.0498 0.01837 0.27046 0.0
C418 C 0.96841 0.06265 0.22206 0.0
H419 H 0.98335 0.98535 0.08677 0.0
H420 H 0.96169 0.97659 0.13218 0.0
H421 H 0.94918 0.09356 0.1885 0.0
H422 H 0.94211 0.05854 0.31812 0.0
H423 H 0.92396 0.04866 0.27081 0.0
H424 H 0.02851 0.96687 0.22001 0.0
C425 C 0.97921 0.00669 0.12829 0.0
C426 C 0.9657 0.06538 0.19513 0.0
C427 C 0.99111 0.01181 0.10236 0.0
C428 C 0.97271 0.0474 0.3051 0.0
C429 C 0.96221 0.04163 0.27799 0.0
C430 C 0.01047 0.99437 0.21332 0.0
C431 C 0.99167 0.03966 0.14911 0.0
C432 C 0.98615 0.03304 0.177 0.0
C433 C 1.00097 0.02805 0.26032 0.0
C434 C 0.99209 0.02769 0.23153 0.0
H435 H 0.04713 0.1123 0.11414 0.0
H436 H 0.02479 0.10412 0.15901 0.0
H437 H 0.02372 0.97168 0.17279 0.0
H438 H 0.0992 0.01874 0.3047 0.0
H439 H 0.08067 0.00823 0.25736 0.0
C440 C 0.02063 0.99713 0.90206 0.0
C441 C 0.03794 0.02922 0.92243 0.0
C442 C 0.04069 0.99516 0.87702 0.0
C443 C 0.0929 0.06052 0.83098 0.0
H444 H 0.132 0.95118 0.79324 0.0
C445 C 0.14427 0.04062 0.72036 0.0
C446 C 0.12636 0.0024 0.70489 0.0
C447 C 0.14105 0.04555 0.74782 0.0
C448 C 0.12076 0.98193 0.80335 0.0
H449 H 0.09025 0.08429 0.9326 0.0
H450 H 0.12465 0.08157 0.88808 0.0
H451 H 0.11424 0.95682 0.83992 0.0
H452 H 0.08976 0.93991 0.70613 0.0
H453 H 0.08314 0.94867 0.75365 0.0
H454 H 0.09678 0.08522 0.79417 0.0
C455 C 0.09585 0.05769 0.89185 0.0
C456 C 0.11105 0.98519 0.83017 0.0
C457 C 0.07646 0.05911 0.91727 0.0
C458 C 0.10482 0.96943 0.71748 0.0
C459 C 0.10123 0.97445 0.74482 0.0
C460 C 0.10205 0.05717 0.80399 0.0
C461 C 0.07799 0.02565 0.87149 0.0
C462 C 0.09593 0.02424 0.84415 0.0
C463 C 0.11951 0.01247 0.76045 0.0
C464 C 0.11489 0.01751 0.78967 0.0
H465 H 0.99118 0.9735 0.90546 0.0
H466 H 0.02583 0.97037 0.8617 0.0
H467 H 0.08086 0.09094 0.84124 0.0
H468 H 0.16148 0.06649 0.71126 0.0
H469 H 0.15603 0.07509 0.75914 0.0
C470 C 0.4759 0.52953 0.60242 0.0
C471 C 0.50826 0.56378 0.5972 0.0
C472 C 0.46344 0.52534 0.6284 0.0
C473 C 0.46549 0.58453 0.69624 0.0
H474 H 0.49843 0.47483 0.71831 0.0
C475 C 0.47425 0.56526 0.80573 0.0
C476 C 0.51817 0.54475 0.81418 0.0
C477 C 0.46095 0.56249 0.77899 0.0
C478 C 0.48897 0.50563 0.71245 0.0
H479 H 0.55025 0.62175 0.61453 0.0
H480 H 0.52799 0.615 0.65945 0.0
H481 H 0.49433 0.48191 0.67147 0.0
H482 H 0.58133 0.50372 0.80131 0.0
H483 H 0.55878 0.49943 0.7545 0.0
H484 H 0.46301 0.60909 0.73701 0.0
C485 C 0.51221 0.59126 0.64378 0.0
C486 C 0.48593 0.50952 0.68561 0.0
C487 C 0.52519 0.59505 0.61804 0.0
C488 C 0.54716 0.51972 0.79538 0.0
C489 C 0.53405 0.51716 0.76856 0.0
C490 C 0.46848 0.58066 0.72299 0.0
C491 C 0.4824 0.55579 0.64939 0.0
C492 C 0.47571 0.54939 0.67726 0.0
C493 C 0.49145 0.53935 0.76001 0.0
C494 C 0.48164 0.54148 0.73149 0.0
H495 H 0.46287 0.50477 0.58668 0.0
H496 H 0.44021 0.49777 0.63216 0.0
H497 H 0.45709 0.61558 0.69041 0.0
H498 H 0.45054 0.58408 0.81982 0.0
H499 H 0.42728 0.57921 0.77317 0.0
C500 C 0.47822 0.55334 0.4007 0.0
C501 C 0.51269 0.55299 0.42237 0.0
C502 C 0.49651 0.55304 0.37541 0.0
C503 C 0.6063 0.5213 0.33421 0.0
H504 H 0.53557 0.58707 0.28607 0.0
C505 C 0.612 0.47896 0.22119 0.0
C506 C 0.61102 0.51244 0.20559 0.0
C507 C 0.6075 0.48761 0.24848 0.0
C508 C 0.55639 0.56891 0.29924 0.0
H509 H 0.59391 0.55269 0.43425 0.0
H510 H 0.62606 0.55204 0.38966 0.0
H511 H 0.51506 0.59751 0.33238 0.0
H512 H 0.60678 0.58148 0.20662 0.0
H513 H 0.59923 0.59665 0.25421 0.0
H514 H 0.6475 0.49255 0.30093 0.0
C515 C 0.58467 0.55236 0.3925 0.0
C516 C 0.54419 0.57458 0.3258 0.0
C517 C 0.56627 0.55294 0.41803 0.0
C518 C 0.60675 0.55489 0.21801 0.0
C519 C 0.60245 0.56356 0.24531 0.0
C520 C 0.61856 0.5156 0.30756 0.0
C521 C 0.54986 0.55234 0.3709 0.0
C522 C 0.56807 0.55016 0.3435 0.0
C523 C 0.60208 0.52998 0.26088 0.0
C524 C 0.59299 0.53874 0.28964 0.0
H525 H 0.4367 0.55349 0.40314 0.0
H526 H 0.46855 0.55231 0.35923 0.0
H527 H 0.62526 0.50185 0.34729 0.0
H528 H 0.61464 0.44585 0.21223 0.0
H529 H 0.60652 0.46086 0.25974 0.0
loop_
_geom_bond_atom_site_label_1
_geom_bond_atom_site_label_2
_geom_bond_distance
_geom_bond_site_symmetry_2
_ccdc_geom_bond_type
O0 Mn1 2.163 . S
O0 C14 1.255 1_455 S
Mn1 O0 2.163 . S
Mn1 O4 2.160 1_544 S
Mn1 O5 2.221 . S
Mn1 O7 2.163 . S
Mn1 O9 2.160 1_554 S
Mn1 O19 2.221 1_444 S
O2 Mn3 2.087 . S
O2 C14 1.245 1_556 S
Mn3 O2 2.087 . S
Mn3 O10 2.089 . S
Mn3 O19 2.290 1_545 S
Mn3 O20 2.251 1_545 S
O4 Mn1 2.160 1_566 S
O4 C15 1.239 1_556 S
O5 Mn1 2.221 . S
O5 Mn6 2.290 . S
O5 C16 1.278 . S
Mn6 O5 2.290 . S
Mn6 O8 2.089 1_545 S
Mn6 O11 2.251 . S
Mn6 O12 2.087 . S
O7 Mn1 2.163 . S
O7 C17 1.244 . S
O8 Mn6 2.089 1_565 S
O8 C15 1.256 . S
O9 Mn1 2.160 1_556 S
O9 C18 1.239 . S
O10 Mn3 2.089 . S
O10 C18 1.256 1_655 S
O11 Mn6 2.251 . S
O11 C16 1.241 . S
O12 Mn6 2.087 . S
O12 C17 1.256 . S
C13 O19 1.278 1_554 S
C13 O20 1.241 1_554 S
C14 O0 1.255 1_655 S
C14 O2 1.245 1_554 S
C15 O4 1.239 1_554 S
C15 O8 1.256 . S
C16 O5 1.278 . S
C16 O11 1.241 . S
C17 O7 1.244 . S
C17 O12 1.256 . S
C18 O9 1.239 . S
C18 O10 1.256 1_455 S
O19 Mn1 2.221 1_666 S
O19 Mn3 2.290 1_565 S
O19 C13 1.278 1_556 S
O20 Mn3 2.251 1_565 S
O20 C13 1.241 1_556 S
O21 Mn22 2.163 . S
O21 C35 1.244 . S
Mn22 O21 2.163 . S
Mn22 O25 2.160 . S
Mn22 O26 2.221 . S
Mn22 O28 2.163 . S
Mn22 O30 2.160 . S
Mn22 O40 2.221 . S
O23 Mn24 2.087 . S
O23 C35 1.256 . S
Mn24 O23 2.087 . S
Mn24 O31 2.089 . S
Mn24 O40 2.290 . S
Mn24 O41 2.251 . S
O25 Mn22 2.160 . S
O25 C36 1.239 . S
O26 Mn22 2.221 . S
O26 Mn27 2.290 . S
O26 C37 1.278 . S
Mn27 O26 2.290 . S
Mn27 O29 2.089 . S
Mn27 O32 2.251 . S
Mn27 O33 2.087 . S
O28 Mn22 2.163 . S
O28 C38 1.244 . S
O29 Mn27 2.089 . S
O29 C36 1.256 . S
O30 Mn22 2.160 . S
O30 C39 1.239 . S
O31 Mn24 2.089 . S
O31 C39 1.256 . S
O32 Mn27 2.251 . S
O32 C37 1.241 . S
O33 Mn27 2.087 . S
O33 C38 1.256 . S
C34 O40 1.278 . S
C34 O41 1.241 . S
C35 O21 1.244 . S
C35 O23 1.256 . S
C36 O25 1.239 . S
C36 O29 1.256 . S
C37 O26 1.278 . S
C37 O32 1.241 . S
C38 O28 1.244 . S
C38 O33 1.256 . S
C39 O30 1.239 . S
C39 O31 1.256 . S
O40 Mn22 2.221 . S
O40 Mn24 2.290 . S
O40 C34 1.278 . S
O41 Mn24 2.251 . S
O41 C34 1.241 . S
P42 O53 1.490 . S
P42 C56 1.812 . S
P42 C62 1.803 1_545 S
P42 C68 1.819 . S
H43 C57 0.941 . S
H44 C58 0.939 . S
H45 C60 0.940 . S
H46 C61 0.940 . S
H47 C63 0.939 . S
H48 C64 0.942 . S
H49 C66 0.940 . S
H50 C67 0.939 . S
H51 C69 0.941 . S
H52 C73 0.939 . S
O53 P42 1.490 . S
H54 C70 0.939 . S
H55 C72 0.940 . S
C56 P42 1.812 . S
C56 C57 1.389 . S
C56 C61 1.391 1_455 S
C57 H43 0.941 . S
C57 C56 1.389 . S
C57 C58 1.397 . S
C58 H44 0.939 . S
C58 C57 1.397 . S
C58 C59 1.378 1_455 S
C59 C58 1.378 1_655 S
C59 C60 1.378 . S
C60 H45 0.940 . S
C60 C59 1.378 . S
C60 C61 1.396 . S
C61 H46 0.940 . S
C61 C56 1.391 1_655 S
C61 C60 1.396 . S
C62 P42 1.803 1_565 S
C62 C63 1.378 . S
C62 C67 1.400 . S
C63 H47 0.939 . S
C63 C62 1.378 . S
C63 C64 1.361 . S
C64 H48 0.942 . S
C64 C63 1.361 . S
C64 C65 1.369 . S
C65 C64 1.369 . S
C65 C66 1.404 . S
C66 H49 0.940 . S
C66 C65 1.404 . S
C66 C67 1.389 . S
C67 H50 0.939 . S
C67 C62 1.400 . S
C67 C66 1.389 . S
C68 P42 1.819 . S
C68 C69 1.391 . S
C68 C73 1.391 1_545 S
C69 H51 0.941 . S
C69 C68 1.391 . S
C69 C70 1.396 . S
C70 H54 0.939 . S
C70 C69 1.396 . S
C70 C71 1.397 . S
C71 C70 1.397 . S
C71 C72 1.385 1_545 S
C72 H55 0.940 . S
C72 C71 1.385 1_565 S
C72 C73 1.388 . S
C73 H52 0.939 . S
C73 C68 1.391 1_565 S
C73 C72 1.388 . S
P74 O85 1.490 . S
P74 C88 1.809 1_455 S
P74 C94 1.803 . S
P74 C100 1.819 . S
H75 C89 0.941 . S
H76 C90 0.939 . S
H77 C92 0.940 . S
H78 C93 0.940 . S
H79 C95 0.939 . S
H80 C96 0.942 . S
H81 C98 0.940 . S
H82 C99 0.953 . S
H83 C101 0.941 1_565 S
H84 C105 0.939 . S
O85 P74 1.490 . S
H86 C102 0.939 . S
H87 C104 0.940 . S
C88 P74 1.809 1_655 S
C88 C89 1.388 1_645 S
C88 C93 1.395 . S
C89 H75 0.941 . S
C89 C88 1.388 1_465 S
C89 C90 1.397 1_455 S
C90 H76 0.939 . S
C90 C89 1.397 1_655 S
C90 C91 1.378 . S
C91 C90 1.378 . S
C91 C92 1.378 1_565 S
C92 H77 0.940 . S
C92 C91 1.378 1_545 S
C92 C93 1.396 . S
C93 H78 0.940 . S
C93 C88 1.395 . S
C93 C92 1.396 . S
C94 P74 1.803 . S
C94 C95 1.378 . S
C94 C99 1.400 . S
C95 H79 0.939 . S
C95 C94 1.378 . S
C95 C96 1.361 . S
C96 H80 0.942 . S
C96 C95 1.361 . S
C96 C97 1.369 . S
C97 C96 1.369 . S
C97 C98 1.404 . S
C98 H81 0.940 . S
C98 C97 1.404 . S
C98 C99 1.389 . S
C99 H82 0.953 . S
C99 C94 1.400 . S
C99 C98 1.389 . S
C100 P74 1.819 . S
C100 C101 1.391 . S
C100 C105 1.391 . S
C101 H83 0.941 1_545 S
C101 C100 1.391 . S
C101 C102 1.396 . S
C102 H86 0.939 . S
C102 C101 1.396 . S
C102 C103 1.397 . S
C103 C102 1.397 . S
C103 C104 1.385 . S
C104 H87 0.940 . S
C104 C103 1.385 . S
C104 C105 1.388 . S
C105 H84 0.939 . S
C105 C100 1.391 . S
C105 C104 1.388 . S
P106 O117 1.490 . S
P106 C120 1.812 . S
P106 C126 1.803 . S
P106 C132 1.819 . S
H107 C121 0.941 . S
H108 C122 0.939 . S
H109 C124 0.940 . S
H110 C125 0.940 . S
H111 C127 0.939 . S
H112 C128 0.942 . S
H113 C130 0.940 . S
H114 C131 0.939 . S
H115 C133 0.941 . S
H116 C137 0.939 . S
O117 P106 1.490 . S
H118 C134 0.939 . S
H119 C136 0.940 . S
C120 P106 1.812 . S
C120 C121 1.389 . S
C120 C125 1.391 . S
C121 H107 0.941 . S
C121 C120 1.389 . S
C121 C122 1.397 . S
C122 H108 0.939 . S
C122 C121 1.397 . S
C122 C123 1.378 . S
C123 C122 1.378 . S
C123 C124 1.378 . S
C124 H109 0.940 . S
C124 C123 1.378 . S
C124 C125 1.396 . S
C125 H110 0.940 . S
C125 C120 1.391 . S
C125 C124 1.396 . S
C126 P106 1.803 . S
C126 C127 1.378 . S
C126 C131 1.400 . S
C127 H111 0.939 . S
C127 C126 1.378 . S
C127 C128 1.361 . S
C128 H112 0.942 . S
C128 C127 1.361 . S
C128 C129 1.369 . S
C129 C128 1.369 . S
C129 C130 1.404 . S
C130 H113 0.940 . S
C130 C129 1.404 . S
C130 C131 1.389 . S
C131 H114 0.939 . S
C131 C126 1.400 . S
C131 C130 1.389 . S
C132 P106 1.819 . S
C132 C133 1.391 . S
C132 C137 1.391 . S
C133 H115 0.941 . S
C133 C132 1.391 . S
C133 C134 1.396 . S
C134 H118 0.939 . S
C134 C133 1.396 . S
C134 C135 1.397 . S
C135 C134 1.397 . S
C135 C136 1.385 . S
C136 H119 0.940 . S
C136 C135 1.385 . S
C136 C137 1.388 . S
C137 H116 0.939 . S
C137 C132 1.391 . S
C137 C136 1.388 . S
P138 O149 1.490 . S
P138 C152 1.812 . S
P138 C158 1.803 . S
P138 C164 1.819 . S
H139 C153 0.941 . S
H140 C154 0.939 . S
H141 C156 0.940 . S
H142 C157 0.940 . S
H143 C159 0.939 . S
H144 C160 0.942 . S
H145 C162 0.940 . S
H146 C163 0.939 . S
H147 C165 0.941 . S
H148 C169 0.939 . S
O149 P138 1.490 . S
H150 C166 0.939 . S
H151 C168 0.940 . S
C152 P138 1.812 . S
C152 C153 1.389 . S
C152 C157 1.391 . S
C153 H139 0.941 . S
C153 C152 1.389 . S
C153 C154 1.397 . S
C154 H140 0.939 . S
C154 C153 1.397 . S
C154 C155 1.378 . S
C155 C154 1.378 . S
C155 C156 1.378 . S
C156 H141 0.940 . S
C156 C155 1.378 . S
C156 C157 1.396 . S
C157 H142 0.940 . S
C157 C152 1.391 . S
C157 C156 1.396 . S
C158 P138 1.803 . S
C158 C159 1.378 . S
C158 C163 1.400 . S
C159 H143 0.939 . S
C159 C158 1.378 . S
C159 C160 1.361 . S
C160 H144 0.942 . S
C160 C159 1.361 . S
C160 C161 1.369 . S
C161 C160 1.369 . S
C161 C162 1.404 . S
C162 H145 0.940 . S
C162 C161 1.404 . S
C162 C163 1.389 . S
C163 H146 0.939 . S
C163 C158 1.400 . S
C163 C162 1.389 . S
C164 P138 1.819 . S
C164 C165 1.391 . S
C164 C169 1.391 . S
C165 H147 0.941 . S
C165 C164 1.391 . S
C165 C166 1.396 . S
C166 H150 0.939 . S
C166 C165 1.396 . S
C166 C167 1.397 . S
C167 C166 1.397 . S
C167 C168 1.385 . S
C168 H151 0.940 . S
C168 C167 1.385 . S
C168 C169 1.388 . S
C169 H148 0.939 . S
C169 C164 1.391 . S
C169 C168 1.388 . S
C170 C171 1.349 . S
C170 C172 1.327 . S
C170 H195 0.950 . S
C171 C170 1.349 . S
C171 C187 1.349 . S
C172 C170 1.327 . S
C172 C191 1.429 . S
C172 H196 0.950 . S
C173 C190 1.574 . S
C173 C192 1.368 . S
C173 H197 0.949 . S
H174 C178 0.949 . S
C175 C176 1.349 . S
C175 C177 1.327 . S
C175 H198 0.950 . S
C176 C175 1.349 . S
C176 C188 1.349 . S
C177 C175 1.327 . S
C177 C193 1.429 . S
C177 H199 0.950 . S
C178 H174 0.949 . S
C178 C186 1.574 . S
C178 C194 1.368 . S
H179 C187 0.950 . S
H180 C185 0.950 . S
H181 C186 0.949 . S
H182 C188 0.950 . S
H183 C189 0.950 . S
H184 C190 0.949 . S
C185 H180 0.950 . S
C185 C187 1.327 . S
C185 C191 1.429 . S
C186 C178 1.574 . S
C186 H181 0.949 . S
C186 C192 1.368 . S
C187 C171 1.349 . S
C187 H179 0.950 . S
C187 C185 1.327 . S
C188 C176 1.349 . S
C188 H182 0.950 . S
C188 C189 1.327 . S
C189 H183 0.950 . S
C189 C188 1.327 . S
C189 C193 1.429 . S
C190 C173 1.574 . S
C190 H184 0.949 . S
C190 C194 1.368 . S
C191 C172 1.429 . S
C191 C185 1.429 . S
C191 C192 1.523 . S
C192 C173 1.368 . S
C192 C186 1.368 . S
C192 C191 1.523 . S
C193 C177 1.429 . S
C193 C189 1.429 . S
C193 C194 1.523 . S
C194 C178 1.368 . S
C194 C190 1.368 . S
C194 C193 1.523 . S
H195 C170 0.950 . S
H196 C172 0.950 . S
H197 C173 0.949 . S
H198 C175 0.950 . S
H199 C177 0.950 . S
C200 C201 1.349 1_556 S
C200 C202 1.327 . S
C200 H225 0.950 . S
C201 C200 1.349 1_554 S
C201 C217 1.349 . S
C202 C200 1.327 . S
C202 C221 1.429 . S
C202 H226 0.950 . S
C203 C220 1.572 1_554 S
C203 C222 1.368 1_554 S
C203 H227 0.949 . S
H204 C208 0.949 . S
C205 C206 1.349 . S
C205 C207 1.327 . S
C205 H228 0.950 . S
C206 C205 1.349 . S
C206 C218 1.349 . S
C207 C205 1.327 . S
C207 C223 1.429 . S
C207 H229 0.950 1_556 S
C208 H204 0.949 . S
C208 C216 1.574 . S
C208 C224 1.368 . S
H209 C217 0.950 . S
H210 C215 0.950 . S
H211 C216 0.949 . S
H212 C218 0.950 . S
H213 C219 0.950 . S
H214 C220 0.927 1_554 S
C215 H210 0.950 . S
C215 C217 1.327 . S
C215 C221 1.429 1_554 S
C216 C208 1.574 . S
C216 H211 0.949 . S
C216 C222 1.368 . S
C217 C201 1.349 . S
C217 H209 0.950 . S
C217 C215 1.327 . S
C218 C206 1.349 . S
C218 H212 0.950 . S
C218 C219 1.327 . S
C219 H213 0.950 . S
C219 C218 1.327 . S
C219 C223 1.429 . S
C220 C203 1.572 1_556 S
C220 H214 0.927 1_556 S
C220 C224 1.396 . S
C221 C202 1.429 . S
C221 C215 1.429 1_556 S
C221 C222 1.523 . S
C222 C203 1.368 1_556 S
C222 C216 1.368 . S
C222 C221 1.523 . S
C223 C207 1.429 . S
C223 C219 1.429 . S
C223 C224 1.523 . S
C224 C208 1.368 . S
C224 C220 1.396 . S
C224 C223 1.523 . S
H225 C200 0.950 . S
H226 C202 0.950 . S
H227 C203 0.949 . S
H228 C205 0.950 . S
H229 C207 0.950 1_554 S
C230 C231 1.349 1_556 S
C230 C232 1.328 1_556 S
C230 H255 0.950 . S
C231 C230 1.349 1_554 S
C231 C247 1.349 . S
C232 C230 1.328 1_554 S
C232 C251 1.424 . S
C232 H256 0.953 1_554 S
C233 C250 1.574 . S
C233 C252 1.368 . S
C233 H257 0.949 . S
H234 C238 0.949 . S
C235 C236 1.349 . S
C235 C237 1.327 . S
C235 H258 0.950 . S
C236 C235 1.349 . S
C236 C248 1.349 . S
C237 C235 1.327 . S
C237 C253 1.429 . S
C237 H259 0.950 . S
C238 H234 0.949 . S
C238 C246 1.574 . S
C238 C254 1.368 . S
H239 C247 0.950 . S
H240 C245 0.950 . S
H241 C246 0.949 1_556 S
H242 C248 0.950 . S
H243 C249 0.950 . S
H244 C250 0.949 . S
C245 H240 0.950 . S
C245 C247 1.327 . S
C245 C251 1.429 . S
C246 C238 1.574 . S
C246 H241 0.949 1_554 S
C246 C252 1.368 . S
C247 C231 1.349 . S
C247 H239 0.950 . S
C247 C245 1.327 . S
C248 C236 1.349 . S
C248 H242 0.950 . S
C248 C249 1.327 . S
C249 H243 0.950 . S
C249 C248 1.327 . S
C249 C253 1.429 . S
C250 C233 1.574 . S
C250 H244 0.949 . S
C250 C254 1.368 . S
C251 C232 1.424 . S
C251 C245 1.429 . S
C251 C252 1.523 . S
C252 C233 1.368 . S
C252 C246 1.368 . S
C252 C251 1.523 . S
C253 C237 1.429 . S
C253 C249 1.429 . S
C253 C254 1.523 . S
C254 C238 1.368 . S
C254 C250 1.368 . S
C254 C253 1.523 . S
H255 C230 0.950 . S
H256 C232 0.953 1_556 S
H257 C233 0.949 . S
H258 C235 0.950 . S
H259 C237 0.950 . S
C260 C261 1.356 . S
C260 C262 1.327 . S
C260 H285 0.950 . S
C261 C260 1.356 . S
C261 C277 1.331 1_554 S
C262 C260 1.327 . S
C262 C281 1.429 1_554 S
C262 H286 0.950 . S
C263 C280 1.574 . S
C263 C282 1.368 . S
C263 H287 0.949 . S
H264 C268 0.949 . S
C265 C266 1.349 . S
C265 C267 1.327 . S
C265 H288 0.950 . S
C266 C265 1.349 . S
C266 C278 1.349 . S
C267 C265 1.327 . S
C267 C283 1.429 . S
C267 H289 0.950 . S
C268 H264 0.949 . S
C268 C276 1.574 . S
C268 C284 1.368 . S
H269 C277 0.950 . S
H270 C275 0.950 . S
H271 C276 0.949 1_554 S
H272 C278 0.950 . S
H273 C279 0.950 . S
H274 C280 0.949 . S
C275 H270 0.950 . S
C275 C277 1.327 . S
C275 C281 1.429 . S
C276 C268 1.574 . S
C276 H271 0.949 1_556 S
C276 C282 1.368 . S
C277 C261 1.331 1_556 S
C277 H269 0.950 . S
C277 C275 1.327 . S
C278 C266 1.349 . S
C278 H272 0.950 . S
C278 C279 1.327 . S
C279 H273 0.950 . S
C279 C278 1.327 . S
C279 C283 1.429 . S
C280 C263 1.574 . S
C280 H274 0.949 . S
C280 C284 1.368 . S
C281 C262 1.429 1_556 S
C281 C275 1.429 . S
C281 C282 1.523 . S
C282 C263 1.368 . S
C282 C276 1.368 . S
C282 C281 1.523 . S
C283 C267 1.429 . S
C283 C279 1.429 . S
C283 C284 1.523 . S
C284 C268 1.368 . S
C284 C280 1.368 . S
C284 C283 1.523 . S
H285 C260 0.950 . S
H286 C262 0.950 . S
H287 C263 0.949 . S
H288 C265 0.950 . S
H289 C267 0.950 . S
C290 C291 1.349 . S
C290 C292 1.327 . S
C290 H315 0.950 . S
C291 C290 1.349 . S
C291 C307 1.349 . S
C292 C290 1.327 . S
C292 C311 1.429 . S
C292 H316 0.950 . S
C293 C310 1.574 . S
C293 C312 1.368 . S
C293 H317 0.949 . S
H294 C298 0.949 . S
C295 C296 1.349 . S
C295 C297 1.327 . S
C295 H318 0.950 . S
C296 C295 1.349 . S
C296 C308 1.349 . S
C297 C295 1.327 . S
C297 C313 1.429 . S
C297 H319 0.950 . S
C298 H294 0.949 . S
C298 C306 1.574 . S
C298 C314 1.368 . S
H299 C307 0.950 . S
H300 C305 0.950 . S
H301 C306 0.949 . S
H302 C308 0.950 . S
H303 C309 0.950 . S
H304 C310 0.949 . S
C305 H300 0.950 . S
C305 C307 1.327 . S
C305 C311 1.429 . S
C306 C298 1.574 . S
C306 H301 0.949 . S
C306 C312 1.368 . S
C307 C291 1.349 . S
C307 H299 0.950 . S
C307 C305 1.327 . S
C308 C296 1.349 . S
C308 H302 0.950 . S
C308 C309 1.327 . S
C309 H303 0.950 . S
C309 C308 1.327 . S
C309 C313 1.429 . S
C310 C293 1.574 . S
C310 H304 0.949 . S
C310 C314 1.368 . S
C311 C292 1.429 . S
C311 C305 1.429 . S
C311 C312 1.523 . S
C312 C293 1.368 . S
C312 C306 1.368 . S
C312 C311 1.523 . S
C313 C297 1.429 . S
C313 C309 1.429 . S
C313 C314 1.523 . S
C314 C298 1.368 . S
C314 C310 1.368 . S
C314 C313 1.523 . S
H315 C290 0.950 . S
H316 C292 0.950 . S
H317 C293 0.949 . S
H318 C295 0.950 . S
H319 C297 0.950 . S
C320 C321 1.349 . S
C320 C322 1.327 . S
C320 H345 0.950 . S
C321 C320 1.349 . S
C321 C337 1.349 . S
C322 C320 1.327 . S
C322 C341 1.429 . S
C322 H346 0.950 . S
C323 C340 1.574 . S
C323 C342 1.368 . S
C323 H347 0.949 . S
H324 C328 0.949 . S
C325 C326 1.349 . S
C325 C327 1.327 . S
C325 H348 0.950 . S
C326 C325 1.349 . S
C326 C338 1.349 . S
C327 C325 1.327 . S
C327 C343 1.429 . S
C327 H349 0.950 . S
C328 H324 0.949 . S
C328 C336 1.574 . S
C328 C344 1.368 . S
H329 C337 0.950 . S
H330 C335 0.950 . S
H331 C336 0.949 . S
H332 C338 0.950 . S
H333 C339 0.950 . S
H334 C340 0.949 . S
C335 H330 0.950 . S
C335 C337 1.327 . S
C335 C341 1.429 . S
C336 C328 1.574 . S
C336 H331 0.949 . S
C336 C342 1.368 . S
C337 C321 1.349 . S
C337 H329 0.950 . S
C337 C335 1.327 . S
C338 C326 1.349 . S
C338 H332 0.950 . S
C338 C339 1.327 . S
C339 H333 0.950 . S
C339 C338 1.327 . S
C339 C343 1.429 . S
C340 C323 1.574 . S
C340 H334 0.949 . S
C340 C344 1.368 . S
C341 C322 1.429 . S
C341 C335 1.429 . S
C341 C342 1.523 . S
C342 C323 1.368 . S
C342 C336 1.368 . S
C342 C341 1.523 . S
C343 C327 1.429 . S
C343 C339 1.429 . S
C343 C344 1.523 . S
C344 C328 1.368 . S
C344 C340 1.368 . S
C344 C343 1.523 . S
H345 C320 0.950 . S
H346 C322 0.950 . S
H347 C323 0.949 . S
H348 C325 0.950 . S
H349 C327 0.950 . S
C350 C351 1.349 . S
C350 C352 1.327 . S
C350 H375 0.950 . S
C351 C350 1.349 . S
C351 C367 1.349 . S
C352 C350 1.327 . S
C352 C371 1.429 . S
C352 H376 0.950 . S
C353 C370 1.574 . S
C353 C372 1.368 . S
C353 H377 0.949 . S
H354 C358 0.949 . S
C355 C356 1.349 . S
C355 C357 1.327 . S
C355 H378 0.950 . S
C356 C355 1.349 . S
C356 C368 1.349 . S
C357 C355 1.327 . S
C357 C373 1.429 . S
C357 H379 0.950 . S
C358 H354 0.949 . S
C358 C366 1.574 . S
C358 C374 1.368 . S
H359 C367 0.950 . S
H360 C365 0.950 . S
H361 C366 0.949 . S
H362 C368 0.950 . S
H363 C369 0.950 . S
H364 C370 0.949 . S
C365 H360 0.950 . S
C365 C367 1.327 . S
C365 C371 1.429 . S
C366 C358 1.574 . S
C366 H361 0.949 . S
C366 C372 1.368 . S
C367 C351 1.349 . S
C367 H359 0.950 . S
C367 C365 1.327 . S
C368 C356 1.349 . S
C368 H362 0.950 . S
C368 C369 1.327 . S
C369 H363 0.950 . S
C369 C368 1.327 . S
C369 C373 1.429 . S
C370 C353 1.574 . S
C370 H364 0.949 . S
C370 C374 1.368 . S
C371 C352 1.429 . S
C371 C365 1.429 . S
C371 C372 1.523 . S
C372 C353 1.368 . S
C372 C366 1.368 . S
C372 C371 1.523 . S
C373 C357 1.429 . S
C373 C369 1.429 . S
C373 C374 1.523 . S
C374 C358 1.368 . S
C374 C370 1.368 . S
C374 C373 1.523 . S
H375 C350 0.950 . S
H376 C352 0.950 . S
H377 C353 0.949 . S
H378 C355 0.950 . S
H379 C357 0.950 . S
C380 C381 1.349 . S
C380 C382 1.327 . S
C380 H405 0.950 . S
C381 C380 1.349 . S
C381 C397 1.349 . S
C382 C380 1.327 . S
C382 C401 1.429 . S
C382 H406 0.950 . S
C383 C400 1.574 . S
C383 C402 1.368 . S
C383 H407 0.949 . S
H384 C388 0.949 . S
C385 C386 1.349 . S
C385 C387 1.327 . S
C385 H408 0.950 . S
C386 C385 1.349 . S
C386 C398 1.349 . S
C387 C385 1.327 . S
C387 C403 1.429 . S
C387 H409 0.950 . S
C388 H384 0.949 . S
C388 C396 1.574 . S
C388 C404 1.368 . S
H389 C397 0.950 . S
H390 C395 0.950 . S
H391 C396 0.949 . S
H392 C398 0.950 . S
H393 C399 0.950 . S
H394 C400 0.949 . S
C395 H390 0.950 . S
C395 C397 1.327 . S
C395 C401 1.429 . S
C396 C388 1.574 . S
C396 H391 0.949 . S
C396 C402 1.368 . S
C397 C381 1.349 . S
C397 H389 0.950 . S
C397 C395 1.327 . S
C398 C386 1.349 . S
C398 H392 0.950 . S
C398 C399 1.327 . S
C399 H393 0.950 . S
C399 C398 1.327 . S
C399 C403 1.429 . S
C400 C383 1.574 . S
C400 H394 0.949 . S
C400 C404 1.368 . S
C401 C382 1.429 . S
C401 C395 1.429 . S
C401 C402 1.523 . S
C402 C383 1.368 . S
C402 C396 1.368 . S
C402 C401 1.523 . S
C403 C387 1.429 . S
C403 C399 1.429 . S
C403 C404 1.523 . S
C404 C388 1.368 . S
C404 C400 1.368 . S
C404 C403 1.523 . S
H405 C380 0.950 . S
H406 C382 0.950 . S
H407 C383 0.949 . S
H408 C385 0.950 . S
H409 C387 0.950 . S
C410 C411 1.349 . S
C410 C412 1.327 . S
C410 H435 0.950 . S
C411 C410 1.349 . S
C411 C427 1.349 1_545 S
C412 C410 1.327 . S
C412 C431 1.429 . S
C412 H436 0.950 . S
C413 C430 1.574 . S
C413 C432 1.368 1_565 S
C413 H437 0.949 . S
H414 C418 0.949 . S
C415 C416 1.333 1_565 S
C415 C417 1.327 . S
C415 H438 0.950 . S
C416 C415 1.333 1_545 S
C416 C428 1.369 . S
C417 C415 1.327 . S
C417 C433 1.429 1_565 S
C417 H439 0.950 . S
C418 H414 0.949 . S
C418 C426 1.574 . S
C418 C434 1.368 . S
H419 C427 0.950 . S
H420 C425 0.950 . S
H421 C426 0.949 . S
H422 C428 0.950 . S
H423 C429 0.950 . S
H424 C430 0.949 . S
C425 H420 0.950 . S
C425 C427 1.327 . S
C425 C431 1.429 1_565 S
C426 C418 1.574 . S
C426 H421 0.949 . S
C426 C432 1.368 . S
C427 C411 1.349 1_565 S
C427 H419 0.950 . S
C427 C425 1.327 . S
C428 C416 1.369 . S
C428 H422 0.950 . S
C428 C429 1.327 . S
C429 H423 0.950 . S
C429 C428 1.327 . S
C429 C433 1.429 . S
C430 C413 1.574 . S
C430 H424 0.949 . S
C430 C434 1.368 1_565 S
C431 C412 1.429 . S
C431 C425 1.429 1_545 S
C431 C432 1.523 . S
C432 C413 1.368 1_545 S
C432 C426 1.368 . S
C432 C431 1.523 . S
C433 C417 1.429 1_545 S
C433 C429 1.429 . S
C433 C434 1.523 . S
C434 C418 1.368 . S
C434 C430 1.368 1_545 S
C434 C433 1.523 . S
H435 C410 0.950 . S
H436 C412 0.950 . S
H437 C413 0.949 . S
H438 C415 0.950 . S
H439 C417 0.950 . S
C440 C441 1.349 . S
C440 C442 1.327 . S
C440 H465 0.950 1_545 S
C441 C440 1.349 . S
C441 C457 1.349 . S
C442 C440 1.327 . S
C442 C461 1.429 . S
C442 H466 0.950 1_545 S
C443 C460 1.574 . S
C443 C462 1.368 . S
C443 H467 0.949 . S
H444 C448 0.959 . S
C445 C446 1.349 . S
C445 C447 1.327 . S
C445 H468 0.950 . S
C446 C445 1.349 . S
C446 C458 1.349 . S
C447 C445 1.327 . S
C447 C463 1.429 . S
C447 H469 0.950 . S
C448 H444 0.959 . S
C448 C456 1.574 . S
C448 C464 1.368 . S
H449 C457 0.950 . S
H450 C455 0.950 . S
H451 C456 0.949 1_565 S
H452 C458 0.950 1_655 S
H453 C459 0.950 . S
H454 C460 0.949 . S
C455 H450 0.950 . S
C455 C457 1.327 . S
C455 C461 1.429 . S
C456 C448 1.574 . S
C456 H451 0.949 1_545 S
C456 C462 1.368 . S
C457 C441 1.349 . S
C457 H449 0.950 . S
C457 C455 1.327 . S
C458 C446 1.349 . S
C458 H452 0.950 1_455 S
C458 C459 1.327 . S
C459 H453 0.950 . S
C459 C458 1.327 . S
C459 C463 1.429 . S
C460 C443 1.574 . S
C460 H454 0.949 . S
C460 C464 1.368 . S
C461 C442 1.429 . S
C461 C455 1.429 . S
C461 C462 1.523 . S
C462 C443 1.368 . S
C462 C456 1.368 . S
C462 C461 1.523 . S
C463 C447 1.429 . S
C463 C459 1.429 . S
C463 C464 1.523 . S
C464 C448 1.368 . S
C464 C460 1.368 . S
C464 C463 1.523 . S
H465 C440 0.950 1_565 S
H466 C442 0.950 1_565 S
H467 C443 0.949 . S
H468 C445 0.950 . S
H469 C447 0.950 . S
C470 C471 1.349 . S
C470 C472 1.327 . S
C470 H495 0.950 . S
C471 C470 1.349 . S
C471 C487 1.349 . S
C472 C470 1.327 . S
C472 C491 1.429 . S
C472 H496 0.950 . S
C473 C490 1.574 . S
C473 C492 1.368 . S
C473 H497 0.949 . S
H474 C478 0.949 . S
C475 C476 1.349 . S
C475 C477 1.327 . S
C475 H498 0.950 . S
C476 C475 1.349 . S
C476 C488 1.349 . S
C477 C475 1.327 . S
C477 C493 1.429 . S
C477 H499 0.950 . S
C478 H474 0.949 . S
C478 C486 1.574 . S
C478 C494 1.368 . S
H479 C487 0.950 . S
H480 C485 0.950 . S
H481 C486 0.949 . S
H482 C488 0.950 . S
H483 C489 0.950 . S
H484 C490 0.949 . S
C485 H480 0.950 . S
C485 C487 1.327 . S
C485 C491 1.429 . S
C486 C478 1.574 . S
C486 H481 0.949 . S
C486 C492 1.368 . S
C487 C471 1.349 . S
C487 H479 0.950 . S
C487 C485 1.327 . S
C488 C476 1.349 . S
C488 H482 0.950 . S
C488 C489 1.327 . S
C489 H483 0.950 . S
C489 C488 1.327 . S
C489 C493 1.429 . S
C490 C473 1.574 . S
C490 H484 0.949 . S
C490 C494 1.368 . S
C491 C472 1.429 . S
C491 C485 1.429 . S
C491 C492 1.523 . S
C492 C473 1.368 . S
C492 C486 1.368 . S
C492 C491 1.523 . S
C493 C477 1.429 . S
C493 C489 1.429 . S
C493 C494 1.523 . S
C494 C478 1.368 . S
C494 C490 1.368 . S
C494 C493 1.523 . S
H495 C470 0.950 . S
H496 C472 0.950 . S
H497 C473 0.949 . S
H498 C475 0.950 . S
H499 C477 0.950 . S
C500 C501 1.349 . S
C500 C502 1.327 . S
C500 H525 0.950 . S
C501 C500 1.349 . S
C501 C517 1.349 . S
C502 C500 1.327 . S
C502 C521 1.429 . S
C502 H526 0.950 . S
C503 C520 1.574 . S
C503 C522 1.368 . S
C503 H527 0.949 . S
H504 C508 0.949 . S
C505 C506 1.349 . S
C505 C507 1.327 . S
C505 H528 0.950 . S
C506 C505 1.349 . S
C506 C518 1.349 . S
C507 C505 1.327 . S
C507 C523 1.429 . S
C507 H529 0.950 . S
C508 H504 0.949 . S
C508 C516 1.574 . S
C508 C524 1.368 . S
H509 C517 0.950 . S
H510 C515 0.950 . S
H511 C516 0.949 . S
H512 C518 0.950 . S
H513 C519 0.950 . S
H514 C520 0.949 . S
C515 H510 0.950 . S
C515 C517 1.327 . S
C515 C521 1.429 . S
C516 C508 1.574 . S
C516 H511 0.949 . S
C516 C522 1.368 . S
C517 C501 1.349 . S
C517 H509 0.950 . S
C517 C515 1.327 . S
C518 C506 1.349 . S
C518 H512 0.950 . S
C518 C519 1.327 . S
C519 H513 0.950 . S
C519 C518 1.327 . S
C519 C523 1.429 . S
C520 C503 1.574 . S
C520 H514 0.949 . S
C520 C524 1.368 . S
C521 C502 1.429 . S
C521 C515 1.429 . S
C521 C522 1.523 . S
C522 C503 1.368 . S
C522 C516 1.368 . S
C522 C521 1.523 . S
C523 C507 1.429 . S
C523 C519 1.429 . S
C523 C524 1.523 . S
C524 C508 1.368 . S
C524 C520 1.368 . S
C524 C523 1.523 . S
H525 C500 0.950 . S
H526 C502 0.950 . S
H527 C503 0.949 . S
H528 C505 0.950 . S
H529 C507 0.950 . S
C176 C155 1.338 . S
C171 C16 1.202 . S
C201 C15 1.439 . S
C206 C123 1.419 . S
C231 C13 1.257 . S
C236 C161 1.383 . S
C261 C14 1.268 . S
C266 C129 1.288 . S
C291 C37 1.203 . S
C296 C91 1.340 . S
C321 C36 1.439 . S
C326 C59 1.419 . S
C356 C97 1.383 . S
C351 C34 1.256 . S
C386 C65 1.288 . S
C381 C35 1.268 . S
C411 C17 1.516 . S
C416 C71 1.522 . S
C441 C18 1.364 . S
C446 C103 1.366 . S
C476 C135 1.523 . S
C471 C38 1.516 . S
C501 C39 1.364 . S
C506 C167 1.366 . S
