# Generated by pormake.
# Topology zzz, (3,6)-cn, num edge types: 1
# Building blocks:
#     Node 0, Type 0, BuildingBlock: PAMTOO_clean_linker_0, # of connection points: 3
#     Node 1, Type 0, BuildingBlock: PAMTOO_clean_linker_0, # of connection points: 3
#     Node 2, Type 0, BuildingBlock: PAMTOO_clean_linker_0, # of connection points: 3
#     Node 3, Type 0, BuildingBlock: PAMTOO_clean_linker_0, # of connection points: 3
#     Node 4, Type 0, BuildingBlock: PAMTOO_clean_linker_0, # of connection points: 3
#     Node 5, Type 0, BuildingBlock: PAMTOO_clean_linker_0, # of connection points: 3
#     Node 6, Type 0, BuildingBlock: PAMTOO_clean_linker_0, # of connection points: 3
#     Node 7, Type 0, BuildingBlock: PAMTOO_clean_linker_0, # of connection points: 3
#     Node 8, Type 1, BuildingBlock: BETDEL_clean_sbu_0, # of connection points: 6
#     Node 9, Type 1, BuildingBlock: BETDEL_clean_sbu_0, # of connection points: 6
#     Node 10, Type 1, BuildingBlock: BETDEL_clean_sbu_0, # of connection points: 6
#     Node 11, Type 1, BuildingBlock: BETDEL_clean_sbu_0, # of connection points: 6
#     Edge 12, Type (0, 1), BuildingBlock: AJUNOK_clean_linker_0, # of connection points: 2
#     Edge 13, Type (0, 1), BuildingBlock: AJUNOK_clean_linker_0, # of connection points: 2
#     Edge 14, Type (0, 1), BuildingBlock: AJUNOK_clean_linker_0, # of connection points: 2
#     Edge 15, Type (0, 1), BuildingBlock: AJUNOK_clean_linker_0, # of connection points: 2
#     Edge 16, Type (0, 1), BuildingBlock: AJUNOK_clean_linker_0, # of connection points: 2
#     Edge 17, Type (0, 1), BuildingBlock: AJUNOK_clean_linker_0, # of connection points: 2
#     Edge 18, Type (0, 1), BuildingBlock: AJUNOK_clean_linker_0, # of connection points: 2
#     Edge 19, Type (0, 1), BuildingBlock: AJUNOK_clean_linker_0, # of connection points: 2
#     Edge 20, Type (0, 1), BuildingBlock: AJUNOK_clean_linker_0, # of connection points: 2
#     Edge 21, Type (0, 1), BuildingBlock: AJUNOK_clean_linker_0, # of connection points: 2
#     Edge 22, Type (0, 1), BuildingBlock: AJUNOK_clean_linker_0, # of connection points: 2
#     Edge 23, Type (0, 1), BuildingBlock: AJUNOK_clean_linker_0, # of connection points: 2
#     Edge 24, Type (0, 1), BuildingBlock: AJUNOK_clean_linker_0, # of connection points: 2
#     Edge 25, Type (0, 1), BuildingBlock: AJUNOK_clean_linker_0, # of connection points: 2
#     Edge 26, Type (0, 1), BuildingBlock: AJUNOK_clean_linker_0, # of connection points: 2
#     Edge 27, Type (0, 1), BuildingBlock: AJUNOK_clean_linker_0, # of connection points: 2
#     Edge 28, Type (0, 1), BuildingBlock: AJUNOK_clean_linker_0, # of connection points: 2
#     Edge 29, Type (0, 1), BuildingBlock: AJUNOK_clean_linker_0, # of connection points: 2
#     Edge 30, Type (0, 1), BuildingBlock: AJUNOK_clean_linker_0, # of connection points: 2
#     Edge 31, Type (0, 1), BuildingBlock: AJUNOK_clean_linker_0, # of connection points: 2
#     Edge 32, Type (0, 1), BuildingBlock: AJUNOK_clean_linker_0, # of connection points: 2
#     Edge 33, Type (0, 1), BuildingBlock: AJUNOK_clean_linker_0, # of connection points: 2
#     Edge 34, Type (0, 1), BuildingBlock: AJUNOK_clean_linker_0, # of connection points: 2
#     Edge 35, Type (0, 1), BuildingBlock: AJUNOK_clean_linker_0, # of connection points: 2
# Relax obj value: 0.166
# Max RMSD: 0.182
# Mean RMSD: 0.119
data_MOF--net-zzz--node1-BETDEL_clean_sbu_0--node2-PAMTOO_clean_linker_0--edge1-AJUNOK_clean_linker_0
_symmetry_space_group_name_H-M    P1
_symmetry_Int_Tables_number       1
_symmetry_cell_setting            triclinic
loop_
_symmetry_equiv_pos_as_xyz
'x, y, z'
_cell_length_a     35.138395
_cell_length_b     36.129097
_cell_length_c     11.05178
_cell_angle_alpha  91.774414
_cell_angle_beta   88.335036
_cell_angle_gamma 94.820782
loop_
_atom_site_label
_atom_site_type_symbol
_atom_site_fract_x
_atom_site_fract_y
_atom_site_fract_z
_atom_type_partial_charge
H0 H 0.86219 0.48819 0.15768 0.0
H1 H 0.77031 0.50383 0.92261 0.0
H2 H 0.77919 0.56451 0.26355 0.0
H3 H 0.68612 0.54183 0.17091 0.0
C4 C 0.6992 0.53069 0.0861 0.0
O5 O 0.73556 0.54848 0.07112 0.0
H6 H 0.70076 0.50031 0.09676 0.0
C7 C 0.83501 0.49947 0.1429 0.0
C8 C 0.82322 0.52695 0.22308 0.0
C9 C 0.81754 0.49244 0.03205 0.0
C10 C 0.78347 0.50834 0.00984 0.0
C11 C 0.76803 0.53255 0.09659 0.0
C12 C 0.78883 0.54311 0.20206 0.0
H13 H 0.06861 0.86793 0.12759 0.0
H14 H 0.06026 0.76941 0.89941 0.0
H15 H 0.98051 0.78111 0.19721 0.0
H16 H 1.00149 0.69056 0.13811 0.0
C17 C 1.01954 0.70137 0.0607 0.0
O18 O 1.00573 0.73428 0.02582 0.0
H19 H 0.04938 0.70656 0.09229 0.0
C20 C 0.05664 0.83962 0.10998 0.0
C21 C 1.02308 0.8276 0.17254 0.0
C22 C 0.06817 0.82064 0.00498 0.0
C23 C 0.05216 0.78425 0.98163 0.0
C24 C 1.02227 0.76866 0.05597 0.0
C25 C 1.00643 0.79113 0.14906 0.0
H26 H 0.69405 0.05356 0.12164 0.0
H27 H 0.80764 0.05988 0.96608 0.0
H28 H 0.78208 1.00163 0.2983 0.0
H29 H 0.82969 0.97117 0.04978 0.0
C30 C 0.85262 0.99234 0.07982 0.0
O31 O 0.83709 1.02301 0.13433 0.0
H32 H 0.86829 0.9786 0.14935 0.0
C33 C 0.72381 0.04786 0.12691 0.0
C34 C 0.73461 0.02711 0.22244 0.0
C35 C 0.74962 0.06014 0.03549 0.0
C36 C 0.78752 0.05087 0.03751 0.0
C37 C 0.79952 0.02964 0.13141 0.0
C38 C 0.7729 1.01756 0.22471 0.0
H39 H 0.48262 0.68549 0.21318 0.0
H40 H 0.48526 0.77462 0.96412 0.0
H41 H 0.56334 0.78036 0.25752 0.0
H42 H 0.53505 0.86048 0.19792 0.0
C43 C 0.52261 0.85057 0.11034 0.0
O44 O 0.5375 0.81738 0.07601 0.0
H45 H 0.49111 0.84616 0.12576 0.0
C46 C 0.4923 0.71372 0.18895 0.0
C47 C 0.52368 0.73111 0.24852 0.0
C48 C 0.47984 0.72773 0.08203 0.0
C49 C 0.49394 0.76366 0.04826 0.0
C50 C 0.52253 0.78381 0.1155 0.0
C51 C 0.5386 0.76677 0.21341 0.0
H52 H 0.20596 0.56695 0.98409 0.0
H53 H 0.30643 0.56684 0.19594 0.0
H54 H 0.29775 0.50301 0.86019 0.0
H55 H 0.36861 0.4791 0.01856 0.0
C56 C 0.35488 0.49644 0.08927 0.0
O57 O 0.34479 0.52835 0.0362 0.0
H58 H 0.32912 0.47917 0.12224 0.0
C59 C 0.23511 0.55959 -0.00692 0.0
C60 C 0.24892 0.53356 0.91135 0.0
C61 C 0.25439 0.57008 0.09876 0.0
C62 C 0.29139 0.55929 0.11341 0.0
C63 C 0.30813 0.53679 0.02406 0.0
C64 C 0.28625 0.52274 0.92423 0.0
H65 H 1.01535 0.18293 0.98592 0.0
H66 H 0.98986 0.28588 0.16396 0.0
H67 H 0.07874 0.28427 0.88613 0.0
H68 H 0.09189 0.35857 0.03555 0.0
C69 C 0.07159 0.34484 0.10249 0.0
O70 O 0.04104 0.32731 0.04033 0.0
H71 H 0.08788 0.32424 0.14762 0.0
C72 C 1.01996 0.21291 -0.00375 0.0
C73 C 0.04951 0.23086 0.92806 0.0
C74 C 0.99841 0.2317 0.0827 0.0
C75 C 1.00599 0.2705 0.09758 0.0
C76 C 0.0347 0.28972 0.02629 0.0
C77 C 0.05635 0.26977 0.94011 0.0
H78 H 0.37745 0.99373 0.00602 0.0
H79 H 0.26784 0.9863 0.18394 0.0
H80 H 0.28704 0.05055 0.86092 0.0
H81 H 0.21782 0.07911 0.04731 0.0
C82 C 0.22176 0.05512 0.10492 0.0
O83 O 0.2349 0.02686 0.03076 0.0
H84 H 0.24337 0.06471 0.17328 0.0
C85 C 0.34761 0.99956 0.00747 0.0
C86 C 0.33534 1.02256 0.92003 0.0
C87 C 0.32337 0.98558 0.10018 0.0
C88 C 0.28585 0.99574 0.10852 0.0
C89 C 0.2722 1.01897 0.02266 0.0
C90 C 0.29723 0.03272 0.92776 0.0
H91 H 0.56755 0.36908 0.98348 0.0
H92 H 0.57132 0.27283 0.19951 0.0
H93 H 0.50163 0.26794 0.88309 0.0
H94 H 0.4726 0.20829 0.07883 0.0
C95 C 0.49838 0.21517 0.13369 0.0
O96 O 0.52828 0.22834 0.058 0.0
H97 H 0.49087 0.23709 0.2013 0.0
C98 C 0.56008 0.33964 -0.00303 0.0
C99 C 0.53317 0.32094 0.92247 0.0
C100 C 0.57324 0.32317 0.09825 0.0
C101 C 0.56214 0.28563 0.11914 0.0
C102 C 0.53739 0.26508 0.03927 0.0
C103 C 0.52202 0.28309 0.94177 0.0
Dy104 Dy 0.04859 1.01137 0.64372 0.0
C105 C 0.97268 0.10894 0.36917 0.0
C106 C 0.06224 0.95479 0.78756 0.0
Dy107 Dy 1.00343 0.05206 0.48149 0.0
O108 O 0.0869 0.98294 0.76592 0.0
O109 O 1.02962 0.96024 0.74231 0.0
O110 O 0.10371 1.00681 0.54261 0.0
O111 O 0.06082 0.03382 0.46063 0.0
C112 C 0.09429 1.02334 0.44729 0.0
C113 C 0.96141 1.0224 0.66907 0.0
O114 O 1.00107 0.99769 0.37343 0.0
O115 O 1.01551 0.96602 0.54034 0.0
O116 O 0.98401 0.07921 0.31397 0.0
O117 O 0.97793 0.10697 0.48389 0.0
O118 O 0.95015 1.02306 0.55871 0.0
O119 O 0.99503 0.03816 0.67527 0.0
O120 O 0.0608 0.06753 0.73141 0.0
O121 O 0.04574 0.09634 0.55813 0.0
C122 C 1.0043 0.96587 0.42783 0.0
C123 C 0.0604 0.09793 0.66741 0.0
Dy124 Dy 0.50928 0.99882 0.49502 0.0
C125 C 0.63032 0.07363 0.73908 0.0
C126 C 0.44146 0.97284 0.40123 0.0
Dy127 Dy 0.55968 0.05206 0.65782 0.0
O128 O 0.47339 0.95759 0.37877 0.0
O129 O 0.44753 1.00259 0.46823 0.0
O130 O 0.56123 0.97124 0.42203 0.0
O131 O 0.56572 0.02729 0.4779 0.0
C132 C 0.58474 1.00046 0.44425 0.0
C133 C 0.48434 0.05148 0.7061 0.0
O134 O 0.55209 0.09167 0.51037 0.0
O135 O 0.5073 0.05391 0.40195 0.0
O136 O 0.60003 0.09106 0.76787 0.0
O137 O 0.62103 0.04432 0.6729 0.0
O138 O 0.50817 0.08025 0.73227 0.0
O139 O 0.50311 0.02445 0.67283 0.0
O140 O 0.51396 0.96062 0.64925 0.0
O141 O 0.55813 0.99815 0.76014 0.0
C142 C 0.52735 0.08645 0.42175 0.0
C143 C 0.53719 0.966 0.74194 0.0
Dy144 Dy 0.50563 0.53989 0.67768 0.0
C145 C 0.57794 0.46235 0.3184 0.0
C146 C 0.48145 0.58894 0.85012 0.0
Dy147 Dy 0.55268 0.51189 0.48759 0.0
O148 O 0.45902 0.56742 0.78241 0.0
O149 O 0.51643 0.58122 0.82928 0.0
O150 O 0.45273 0.5122 0.59894 0.0
O151 O 0.49647 0.53421 0.4809 0.0
C152 C 0.46354 0.51672 0.48667 0.0
C153 C 0.59378 0.53527 0.6815 0.0
O154 O 0.55511 0.56848 0.41081 0.0
O155 O 0.53117 0.59242 0.58957 0.0
O156 O 0.59934 0.48116 0.39597 0.0
O157 O 0.54378 0.47335 0.3274 0.0
O158 O 0.6051 0.54028 0.56986 0.0
O159 O 0.56121 0.51722 0.68432 0.0
O160 O 0.50535 0.48261 0.75288 0.0
O161 O 0.52569 0.45942 0.56882 0.0
C162 C 0.54676 0.59735 0.48009 0.0
C163 C 0.51281 0.45398 0.68066 0.0
Dy164 Dy 1.01747 0.50157 0.66065 0.0
C165 C 0.11105 0.57217 0.31982 0.0
C166 C 0.96107 0.47575 0.81947 0.0
Dy167 Dy 0.05422 0.54676 0.4777 0.0
O168 O 0.97047 0.45937 0.71868 0.0
O169 O 0.98528 0.5044 0.83799 0.0
O170 O 0.04364 0.45111 0.59157 0.0
O171 O 1.02748 0.48939 0.46565 0.0
C172 C 0.04273 0.45895 0.47784 0.0
C173 C 1.02907 0.5883 0.66491 0.0
O174 O 0.99656 0.54586 0.39511 0.0
O175 O 0.96836 0.52592 0.57403 0.0
O176 O 0.09744 0.59134 0.40938 0.0
O177 O 0.09083 0.54053 0.3104 0.0
O178 O 1.02802 0.59729 0.55213 0.0
O179 O 0.04485 0.5581 0.67262 0.0
O180 O 0.07513 0.50204 0.74256 0.0
O181 O 0.10402 0.5246 0.56774 0.0
C182 C 0.96551 0.53804 0.46352 0.0
C183 C 0.10641 0.51092 0.67643 0.0
C184 C 0.15946 0.07121 0.20807 0.0
C185 C 0.18429 0.04367 0.17354 0.0
C186 C 0.12804 0.06395 0.28894 0.0
C187 C 0.12102 0.02908 0.34168 0.0
H188 H 0.1655 0.09921 0.17656 0.0
H189 H 0.11086 0.08643 0.31659 0.0
S190 S 0.17584 0.94689 0.28203 0.0
N191 N 0.19746 0.97926 0.19611 0.0
N192 N 0.14015 0.96639 0.35149 0.0
C193 C 0.14474 1.00106 0.30596 0.0
C194 C 0.17603 1.00815 0.22172 0.0
C195 C 0.52721 0.18578 0.31165 0.0
C196 C 0.50847 0.18127 0.2007 0.0
C197 C 0.53385 0.15503 0.38094 0.0
C198 C 0.52203 0.11835 0.34231 0.0
H199 H 0.53596 0.21344 0.34666 0.0
H200 H 0.54754 0.16023 0.46706 0.0
S201 S 0.47586 0.09126 0.0513 0.0
N202 N 0.48122 0.13713 0.05027 0.0
N203 N 0.4934 0.07946 0.18012 0.0
C204 C 0.50468 0.11344 0.22895 0.0
C205 C 0.49814 0.14479 0.15814 0.0
C206 C 0.42223 0.51017 0.16882 0.0
C207 C 0.38245 0.50538 0.19202 0.0
C208 C 0.44834 0.51446 0.26403 0.0
C209 C 0.43568 0.51392 0.38617 0.0
H210 H 0.43327 0.50964 0.0763 0.0
H211 H 0.47865 0.51735 0.24179 0.0
S212 S 0.33413 0.50679 0.49465 0.0
N213 N 0.33169 0.50388 0.34567 0.0
N214 N 0.38013 0.51135 0.52389 0.0
C215 C 0.39583 0.51072 0.41004 0.0
C216 C 0.36942 0.50676 0.31328 0.0
C217 C 0.06 0.41155 0.16812 0.0
C218 C 0.05905 0.3736 0.19591 0.0
C219 C 0.05368 0.43908 0.25845 0.0
C220 C 0.04632 0.42969 0.38015 0.0
H221 H 0.06683 0.42013 0.07648 0.0
H222 H 0.05576 0.46795 0.23347 0.0
S223 S 0.03568 0.33367 0.49643 0.0
N224 N 0.04635 0.3279 0.35101 0.0
N225 N 0.03478 0.37893 0.52032 0.0
C226 C 0.04338 0.39156 0.40736 0.0
C227 C 0.04948 0.36372 0.31542 0.0
C228 C 0.91925 1.01281 -0.00706 0.0
C229 C 0.88007 1.00289 0.97413 0.0
C230 C 0.94557 1.0191 0.89484 0.0
C231 C 0.93375 1.01578 0.77387 0.0
H232 H 0.92979 1.01492 0.08424 0.0
H233 H 0.9754 0.02623 0.91395 0.0
S234 S 0.8341 0.99171 0.67608 0.0
N235 N 0.83086 0.99119 0.82531 0.0
N236 N 0.87957 1.00275 0.64229 0.0
C237 C 0.89447 1.00657 0.75455 0.0
C238 C 0.86786 1.00035 0.85406 0.0
C239 C 0.51356 0.87351 0.89911 0.0
C240 C 0.53024 0.87947 0.01301 0.0
C241 C 0.51678 0.90116 0.81146 0.0
C242 C 0.53685 0.93615 0.83363 0.0
H243 H 0.49707 0.84748 0.87871 0.0
H244 H 0.50279 0.89514 0.72624 0.0
S245 S 0.58648 0.96557 0.11719 0.0
N246 N 0.56817 0.92284 0.14265 0.0
N247 N 0.57438 0.97457 0.97877 0.0
C248 C 0.55441 0.94211 0.9465 0.0
C249 C 0.55103 0.91393 0.03582 0.0
C250 C 0.6336 0.52536 -0.00392 0.0
C251 C 0.67303 0.53571 0.98052 0.0
C252 C 0.60809 0.52623 0.90042 0.0
C253 C 0.62083 0.53742 0.78421 0.0
H254 H 0.62244 0.51578 0.0831 0.0
H255 H 0.57823 0.5174 0.91729 0.0
S256 S 0.7211 0.56756 0.69341 0.0
N257 N 0.7234 0.55761 0.8376 0.0
N258 N 0.67565 0.55976 0.65938 0.0
C259 C 0.66008 0.54843 0.76742 0.0
C260 C 0.68613 0.5473 0.86473 0.0
C261 C 1.01455 0.67997 0.83667 0.0
C262 C 1.01932 0.67164 0.95882 0.0
C263 C 1.01675 0.65262 0.74341 0.0
C264 C 1.02452 0.61587 0.7674 0.0
H265 H 1.00945 0.70787 0.8122 0.0
H266 H 1.01306 0.66066 0.65115 0.0
S267 S 0.03938 0.57964 0.07158 0.0
N268 N 0.03188 0.62372 0.09824 0.0
N269 N 0.03664 0.57279 0.92352 0.0
C270 C 1.02917 0.60715 0.88902 0.0
C271 C 1.02656 0.63488 0.98409 0.0
C272 C 0.9555 0.17428 0.121 0.0
C273 C 0.97373 0.20801 0.16701 0.0
C274 C 0.95271 0.1421 0.18953 0.0
C275 C 0.96476 0.14347 0.30945 0.0
H276 H 0.9488 0.17135 0.02588 0.0
H277 H 0.94362 0.11569 0.14586 0.0
S278 S 0.99682 0.22849 0.48806 0.0
N279 N 0.99313 0.24298 0.34918 0.0
N280 N 0.98359 0.18353 0.48246 0.0
C281 C 0.97478 0.1786 0.36388 0.0
C282 C 0.97967 0.21093 0.29199 0.0
C283 C 0.34172 0.98425 0.31291 0.0
C284 C 0.34091 0.96655 0.19819 0.0
C285 C 0.37308 0.98226 0.38642 0.0
C286 C 0.40429 0.96258 0.34688 0.0
H287 H 0.32099 1.00383 0.33876 0.0
H288 H 0.37464 0.99953 0.46839 0.0
S289 S 0.40887 0.90106 0.07394 0.0
N290 N 0.36807 0.92033 0.0644 0.0
N291 N 0.42787 0.91748 0.20179 0.0
C292 C 0.40049 0.93943 0.2433 0.0
C293 C 0.3682 0.94099 0.16931 0.0
C294 C 0.5581 0.35908 0.27816 0.0
C295 C 0.58673 0.34957 0.19468 0.0
C296 C 0.556 0.39588 0.31761 0.0
C297 C 0.58394 0.42387 0.28227 0.0
H298 H 0.53403 0.33929 0.29866 0.0
H299 H 0.53138 0.40268 0.3726 0.0
S300 S 0.67002 0.41143 0.09048 0.0
N301 N 0.64687 0.36965 0.09289 0.0
N302 N 0.6447 0.43869 0.1779 0.0
C303 C 0.6158 0.41383 0.21408 0.0
C304 C 0.61715 0.37644 0.1694 0.0
C305 C 0.2073 0.61017 0.19275 0.0
C306 C 0.22915 0.57938 0.20188 0.0
C307 C 0.16912 0.6086 0.23543 0.0
C308 C 0.15185 0.57595 0.28562 0.0
H309 H 0.21826 0.63364 0.13974 0.0
H310 H 0.15235 0.63182 0.221 0.0
S311 S 0.19928 0.49125 0.35321 0.0
N312 N 0.23292 0.51865 0.28623 0.0
N313 N 0.16092 0.51471 0.35996 0.0
C314 C 0.17464 0.54681 0.30717 0.0
C315 C 0.21365 0.54908 0.26861 0.0
C316 C 0.05111 0.85129 0.82523 0.0
C317 C 0.08037 0.84525 0.90437 0.0
C318 C 0.04613 0.88696 0.78753 0.0
C319 C 0.07153 0.91748 0.82102 0.0
H320 H 1.02837 0.82976 0.80797 0.0
H321 H 1.02089 0.89078 0.737 0.0
S322 S 0.16145 0.91292 0.98395 0.0
N323 N 0.14077 0.87014 -0.01263 0.0
N324 N 0.13283 0.93739 0.90845 0.0
C325 C 0.1048 0.91056 0.88068 0.0
C326 C 0.10932 0.87414 0.9221 0.0
C327 C 0.70773 0.10494 0.95532 0.0
C328 C 0.73343 0.07743 0.93142 0.0
C329 C 0.67542 0.10653 0.88482 0.0
C330 C 0.66892 0.08147 0.7868 0.0
H331 H 0.70949 0.12138 0.03897 0.0
H332 H 0.65376 0.12469 0.91458 0.0
S333 S 0.7349 1.01392 0.66254 0.0
N334 N 0.75521 0.03143 0.78687 0.0
N335 N 0.69585 0.03569 0.65029 0.0
C336 C 0.6982 0.05902 0.74913 0.0
C337 C 0.73055 0.05697 0.82206 0.0
C338 C 0.4936 0.6924 0.89695 0.0
C339 C 0.46684 0.69911 -0.00976 0.0
C340 C 0.49708 0.6565 0.85077 0.0
C341 C 0.4727 0.62635 0.89109 0.0
H342 H 0.51554 0.71383 0.87136 0.0
H343 H 0.5206 0.65204 0.78804 0.0
S344 S 0.39143 0.63058 0.1095 0.0
N345 N 0.41114 0.67378 0.10598 0.0
N346 N 0.41644 0.60617 0.01172 0.0
C347 C 0.44225 0.6333 0.97061 0.0
C348 C 0.43929 0.66992 0.0208 0.0
C349 C 0.86118 0.44818 0.94102 0.0
C350 C 0.8437 0.48175 0.93332 0.0
C351 C 0.89919 0.44559 0.90064 0.0
C352 C 0.92073 0.47684 0.85543 0.0
H353 H 0.84679 0.42526 -0.01019 0.0
H354 H 0.91246 0.41997 0.91216 0.0
S355 S 0.88579 0.56839 0.79476 0.0
N356 N 0.84867 0.54425 0.85654 0.0
N357 N 0.92052 0.54032 0.78844 0.0
C358 C 0.90246 0.50924 0.83707 0.0
C359 C 0.86357 0.51124 0.87255 0.0
C360 C 0.0623 0.2023 0.72552 0.0
C361 C 0.07159 0.20605 0.84802 0.0
C362 C 0.06268 0.16773 0.66326 0.0
C363 C 0.07177 0.13552 0.72216 0.0
H364 H 0.05048 0.22502 0.68211 0.0
H365 H 0.05244 0.1657 0.57172 0.0
S366 S 0.10772 0.13359 0.03379 0.0
N367 N 0.09832 0.17713 0.01763 0.0
N368 N 0.09783 0.11196 0.90328 0.0
C369 C 0.08639 0.14035 0.8392 0.0
C370 C 0.08698 0.17579 0.90095 0.0
C371 C 0.38415 1.00627 0.76599 0.0
C372 C 0.36494 0.03451 0.82624 0.0
C373 C 0.42225 1.01243 0.72548 0.0
C374 C 0.44238 0.04768 0.736 0.0
H375 H 0.37113 0.97798 0.76342 0.0
H376 H 0.4366 0.98864 0.69209 0.0
S377 S 0.40221 0.13321 0.8602 0.0
N378 N 0.36732 0.1002 0.88085 0.0
N379 N 0.43772 0.11285 0.79175 0.0
C380 C 0.42201 0.07728 0.78219 0.0
C381 C 0.3835 0.07055 0.82912 0.0
C382 C 0.48925 0.36825 0.8726 0.0
C383 C 0.51709 0.34436 0.83204 0.0
C384 C 0.48674 0.40317 0.82087 0.0
C385 C 0.51194 0.41542 0.72639 0.0
H386 H 0.47186 0.3615 0.95273 0.0
H387 H 0.4662 0.42134 0.85886 0.0
S388 S 0.58999 0.36313 0.58887 0.0
N389 N 0.56925 0.33495 0.69019 0.0
N390 N 0.56565 0.4003 0.59496 0.0
C391 C 0.5385 0.39079 0.68108 0.0
C392 C 0.54059 0.35526 0.73273 0.0
C393 C 0.2135 0.53211 0.7198 0.0
C394 C 0.21987 0.51523 0.82918 0.0
C395 C 0.1772 0.52871 0.66825 0.0
C396 C 0.14554 0.5086 0.72443 0.0
H397 H 0.23567 0.55098 0.68002 0.0
H398 H 0.17347 0.54445 0.58836 0.0
S399 S 0.14849 0.45622 0.00693 0.0
N400 N 0.1926 0.47509 -0.01304 0.0
N401 N 0.12444 0.46877 0.89084 0.0
C402 C 0.15232 0.48934 0.82925 0.0
C403 C 0.18946 0.49244 0.88077 0.0
C404 C 1.00922 0.86163 0.36726 0.0
C405 C 1.00414 0.85733 0.24228 0.0
C406 C 1.00625 0.89628 0.42701 0.0
C407 C 0.99889 0.9285 0.36417 0.0
H408 H 1.01867 0.83895 0.41745 0.0
H409 H 1.0124 0.89815 0.52241 0.0
S410 S 0.97896 0.93056 0.03693 0.0
N411 N 0.98729 0.88699 0.0591 0.0
N412 N 0.98268 0.95215 0.17056 0.0
C413 C 0.99083 0.92376 0.24063 0.0
C414 C 0.99318 0.88825 0.18022 0.0
C415 C 0.6838 0.04618 0.36675 0.0
C416 C 0.70359 1.01704 0.31427 0.0
C417 C 0.64601 0.04023 0.41118 0.0
C418 C 0.62642 1.00461 0.40944 0.0
H419 H 0.69649 0.07454 0.36325 0.0
H420 H 0.63152 0.06422 0.44218 0.0
S421 S 0.66695 0.91782 0.29808 0.0
N422 N 0.70159 0.95066 0.27167 0.0
N423 N 0.63151 0.93889 0.36392 0.0
C424 C 0.64697 0.97463 0.36739 0.0
C425 C 0.68532 0.98092 0.31854 0.0
C426 C 0.52804 0.69862 0.44134 0.0
C427 C 0.54366 0.70643 0.32573 0.0
C428 C 0.53159 0.66418 0.4938 0.0
C429 C 0.55054 0.63585 0.43235 0.0
H430 H 0.50966 0.71773 0.48618 0.0
H431 H 0.51653 0.65881 0.5789 0.0
S432 S 0.60023 0.6443 0.13232 0.0
N433 N 0.58193 0.68463 0.156 0.0
N434 N 0.5887 0.61997 0.25404 0.0
C435 C 0.56906 0.64458 0.32096 0.0
C436 C 0.56575 0.67987 0.26825 0.0
C437 C 0.88353 0.56452 0.27124 0.0
C438 C 0.85213 0.54084 0.31279 0.0
C439 C 0.91988 0.56455 0.32226 0.0
C440 C 0.92624 0.54103 0.41749 0.0
H441 H 0.88087 0.58048 0.19093 0.0
H442 H 0.94346 0.58191 0.28335 0.0
S443 S 0.8529 0.47479 0.56156 0.0
N444 N 0.82947 0.49472 0.45759 0.0
N445 N 0.89707 0.49426 0.55359 0.0
C446 C 0.89438 0.51891 0.46444 0.0
C447 C 0.85754 0.51908 0.41256 0.0
loop_
_geom_bond_atom_site_label_1
_geom_bond_atom_site_label_2
_geom_bond_distance
_geom_bond_site_symmetry_2
_ccdc_geom_bond_type
H0 C7 0.929 . S
H1 C10 0.930 1_556 S
H2 C12 0.929 . S
H3 C4 0.968 1_556 S
C4 H3 0.968 1_554 S
C4 O5 1.557 . S
C4 H6 0.967 1_554 S
O5 C4 1.557 . S
O5 C11 1.412 . S
H6 C4 0.967 1_556 S
C7 H0 0.929 . S
C7 C8 1.400 . S
C7 C9 1.364 . S
C8 C7 1.400 . S
C8 C12 1.377 . S
C9 C7 1.364 . S
C9 C10 1.374 . S
C10 H1 0.930 1_554 S
C10 C9 1.374 . S
C10 C11 1.383 . S
C11 O5 1.412 . S
C11 C10 1.383 . S
C11 C12 1.394 . S
C12 H2 0.929 . S
C12 C8 1.377 . S
C12 C11 1.394 . S
H13 C20 0.928 1_655 S
H14 C23 0.931 . S
H15 C25 0.930 1_655 S
H16 C17 0.969 . S
C17 H16 0.969 . S
C17 O18 1.550 1_456 S
C17 H19 0.973 1_455 S
O18 C17 1.550 1_654 S
O18 C24 1.407 1_655 S
H19 C17 0.973 1_655 S
C20 H13 0.928 1_455 S
C20 C21 1.398 . S
C20 C22 1.364 . S
C21 C20 1.398 . S
C21 C25 1.378 . S
C22 C20 1.364 . S
C22 C23 1.375 1_454 S
C23 H14 0.931 . S
C23 C22 1.375 1_656 S
C23 C24 1.379 1_656 S
C24 O18 1.407 1_455 S
C24 C23 1.379 1_454 S
C24 C25 1.394 . S
C25 H15 0.930 1_455 S
C25 C21 1.378 . S
C25 C24 1.394 . S
H26 C33 0.929 . S
H27 C36 0.930 . S
H28 C38 0.929 . S
H29 C30 0.969 . S
C30 H29 0.969 . S
C30 O31 1.550 1_556 S
C30 H32 0.973 . S
O31 C30 1.550 1_554 S
O31 C37 1.412 . S
H32 C30 0.973 . S
C33 H26 0.929 . S
C33 C34 1.400 . S
C33 C35 1.364 1_554 S
C34 C33 1.400 . S
C34 C38 1.377 . S
C35 C33 1.364 1_556 S
C35 C36 1.374 . S
C36 H27 0.930 . S
C36 C35 1.374 . S
C36 C37 1.383 1_556 S
C37 O31 1.412 . S
C37 C36 1.383 1_554 S
C37 C38 1.394 . S
C38 H28 0.929 . S
C38 C34 1.377 . S
C38 C37 1.394 . S
H39 C46 0.929 . S
H40 C49 0.930 1_556 S
H41 C51 0.929 . S
H42 C43 0.969 . S
C43 H42 0.969 . S
C43 O44 1.550 . S
C43 H45 0.973 1_554 S
O44 C43 1.550 . S
O44 C50 1.412 . S
H45 C43 0.973 1_556 S
C46 H39 0.929 . S
C46 C47 1.400 . S
C46 C48 1.364 . S
C47 C46 1.400 . S
C47 C51 1.377 . S
C48 C46 1.364 . S
C48 C49 1.374 . S
C49 H40 0.930 1_554 S
C49 C48 1.374 . S
C49 C50 1.383 . S
C50 O44 1.412 . S
C50 C49 1.383 . S
C50 C51 1.394 . S
C51 H41 0.929 . S
C51 C47 1.377 . S
C51 C50 1.394 . S
H52 C59 0.929 . S
H53 C62 0.930 . S
H54 C64 0.929 . S
H55 C56 0.969 . S
C56 H55 0.969 . S
C56 O57 1.550 . S
C56 H58 0.973 . S
O57 C56 1.550 . S
O57 C63 1.412 . S
H58 C56 0.973 . S
C59 H52 0.929 . S
C59 C60 1.400 1_554 S
C59 C61 1.364 . S
C60 C59 1.400 1_556 S
C60 C64 1.377 . S
C61 C59 1.364 . S
C61 C62 1.374 . S
C62 H53 0.930 . S
C62 C61 1.374 . S
C62 C63 1.383 . S
C63 O57 1.412 . S
C63 C62 1.383 . S
C63 C64 1.394 1_554 S
C64 H54 0.929 . S
C64 C60 1.377 . S
C64 C63 1.394 1_556 S
H65 C72 0.929 1_655 S
H66 C75 0.931 . S
H67 C77 0.927 1_655 S
H68 C69 0.969 . S
C69 H68 0.969 . S
C69 O70 1.550 1_455 S
C69 H71 0.973 1_455 S
O70 C69 1.550 1_655 S
O70 C76 1.412 1_655 S
H71 C69 0.973 1_655 S
C72 H65 0.929 1_455 S
C72 C73 1.401 1_554 S
C72 C74 1.364 . S
C73 C72 1.401 1_556 S
C73 C77 1.376 . S
C74 C72 1.364 . S
C74 C75 1.373 1_455 S
C75 H66 0.931 . S
C75 C74 1.373 1_655 S
C75 C76 1.383 1_655 S
C76 O70 1.412 1_455 S
C76 C75 1.383 1_455 S
C76 C77 1.395 1_554 S
C77 H67 0.927 1_455 S
C77 C73 1.376 . S
C77 C76 1.395 1_556 S
H78 C85 0.929 . S
H79 C88 0.930 . S
H80 C90 0.929 . S
H81 C82 0.969 . S
C82 H81 0.969 . S
C82 O83 1.550 . S
C82 H84 0.973 . S
O83 C82 1.550 . S
O83 C89 1.412 . S
H84 C82 0.973 . S
C85 H78 0.929 . S
C85 C86 1.400 1_554 S
C85 C87 1.364 . S
C86 C85 1.400 1_556 S
C86 C90 1.377 . S
C87 C85 1.364 . S
C87 C88 1.374 . S
C88 H79 0.930 . S
C88 C87 1.374 . S
C88 C89 1.383 . S
C89 O83 1.412 . S
C89 C88 1.383 . S
C89 C90 1.394 1_554 S
C90 H80 0.929 . S
C90 C86 1.377 . S
C90 C89 1.394 1_556 S
H91 C98 0.929 . S
H92 C101 0.930 . S
H93 C103 0.929 . S
H94 C95 0.969 . S
C95 H94 0.969 . S
C95 O96 1.550 1_554 S
C95 H97 0.973 . S
O96 C95 1.550 1_556 S
O96 C102 1.412 . S
H97 C95 0.973 . S
C98 H91 0.929 . S
C98 C99 1.400 . S
C98 C100 1.364 1_556 S
C99 C98 1.400 . S
C99 C103 1.377 . S
C100 C98 1.364 1_554 S
C100 C101 1.374 . S
C101 H92 0.930 . S
C101 C100 1.374 . S
C101 C102 1.383 1_554 S
C102 O96 1.412 . S
C102 C101 1.383 1_556 S
C102 C103 1.394 . S
C103 H93 0.929 . S
C103 C99 1.377 . S
C103 C102 1.394 . S
Dy104 O108 2.398 . S
Dy104 O109 2.491 1_455 S
Dy104 O110 2.403 . S
Dy104 O111 2.664 1_565 S
Dy104 O115 2.326 . S
Dy104 O119 2.310 1_455 S
Dy104 O120 2.351 1_565 S
C105 O116 1.185 . S
C105 O117 1.355 1_655 S
C106 O108 1.185 . S
C106 O109 1.355 1_455 S
Dy107 O111 2.310 1_655 S
Dy107 O114 2.351 1_545 S
Dy107 O116 2.398 . S
Dy107 O117 2.491 1_655 S
Dy107 O118 2.403 . S
Dy107 O119 2.664 1_545 S
Dy107 O121 2.326 . S
O108 Dy104 2.398 . S
O108 C106 1.185 . S
O109 Dy104 2.491 1_655 S
O109 C106 1.355 1_655 S
O110 Dy104 2.403 . S
O110 C112 1.254 1_565 S
O111 Dy104 2.664 1_545 S
O111 Dy107 2.310 1_455 S
O111 C112 1.268 . S
C112 O110 1.254 1_545 S
C112 O111 1.268 . S
C113 O118 1.254 1_565 S
C113 O119 1.268 . S
O114 Dy107 2.351 1_565 S
O114 C122 1.249 . S
O115 Dy104 2.326 . S
O115 C122 1.267 1_455 S
O116 C105 1.185 . S
O116 Dy107 2.398 . S
O117 C105 1.355 1_455 S
O117 Dy107 2.491 1_455 S
O118 Dy107 2.403 . S
O118 C113 1.254 1_545 S
O119 Dy104 2.310 1_655 S
O119 Dy107 2.664 1_565 S
O119 C113 1.268 . S
O120 Dy104 2.351 1_545 S
O120 C123 1.249 . S
O121 Dy107 2.326 . S
O121 C123 1.267 1_655 S
C122 O114 1.249 . S
C122 O115 1.267 1_655 S
C123 O120 1.249 . S
C123 O121 1.267 1_455 S
Dy124 O128 2.398 . S
Dy124 O129 2.491 1_565 S
Dy124 O130 2.403 . S
Dy124 O131 2.664 . S
Dy124 O135 2.326 1_565 S
Dy124 O139 2.310 1_565 S
Dy124 O140 2.351 . S
C125 O136 1.185 . S
C125 O137 1.355 1_545 S
C126 O128 1.184 . S
C126 O129 1.356 1_565 S
Dy127 O131 2.310 1_545 S
Dy127 O134 2.351 . S
Dy127 O136 2.398 . S
Dy127 O137 2.491 1_545 S
Dy127 O138 2.403 . S
Dy127 O139 2.664 . S
Dy127 O141 2.326 1_545 S
O128 Dy124 2.398 . S
O128 C126 1.184 . S
O129 Dy124 2.491 1_545 S
O129 C126 1.356 1_545 S
O130 Dy124 2.403 . S
O130 C132 1.254 . S
O131 Dy124 2.664 . S
O131 Dy127 2.310 1_565 S
O131 C132 1.268 . S
C132 O130 1.254 . S
C132 O131 1.268 . S
C133 O138 1.254 . S
C133 O139 1.268 . S
O134 Dy127 2.351 . S
O134 C142 1.249 . S
O135 Dy124 2.326 1_545 S
O135 C142 1.267 . S
O136 C125 1.185 . S
O136 Dy127 2.398 . S
O137 C125 1.355 1_565 S
O137 Dy127 2.491 1_565 S
O138 Dy127 2.403 . S
O138 C133 1.254 . S
O139 Dy124 2.310 1_545 S
O139 Dy127 2.664 . S
O139 C133 1.268 . S
O140 Dy124 2.351 . S
O140 C143 1.249 . S
O141 Dy127 2.326 1_565 S
O141 C143 1.267 . S
C142 O134 1.249 . S
C142 O135 1.267 . S
C143 O140 1.249 . S
C143 O141 1.267 . S
Dy144 O148 2.398 . S
Dy144 O149 2.491 . S
Dy144 O150 2.403 . S
Dy144 O151 2.664 . S
Dy144 O155 2.326 . S
Dy144 O159 2.310 . S
Dy144 O160 2.351 . S
C145 O156 1.185 . S
C145 O157 1.355 . S
C146 O148 1.185 . S
C146 O149 1.355 . S
Dy147 O151 2.310 . S
Dy147 O154 2.351 . S
Dy147 O156 2.398 . S
Dy147 O157 2.491 . S
Dy147 O158 2.403 . S
Dy147 O159 2.664 . S
Dy147 O161 2.326 . S
O148 Dy144 2.398 . S
O148 C146 1.185 . S
O149 Dy144 2.491 . S
O149 C146 1.355 . S
O150 Dy144 2.403 . S
O150 C152 1.254 . S
O151 Dy144 2.664 . S
O151 Dy147 2.310 . S
O151 C152 1.268 . S
C152 O150 1.254 . S
C152 O151 1.268 . S
C153 O158 1.254 . S
C153 O159 1.268 . S
O154 Dy147 2.351 . S
O154 C162 1.249 . S
O155 Dy144 2.326 . S
O155 C162 1.267 . S
O156 C145 1.185 . S
O156 Dy147 2.398 . S
O157 C145 1.355 . S
O157 Dy147 2.491 . S
O158 Dy147 2.403 . S
O158 C153 1.254 . S
O159 Dy144 2.310 . S
O159 Dy147 2.664 . S
O159 C153 1.268 . S
O160 Dy144 2.351 . S
O160 C163 1.249 . S
O161 Dy147 2.326 . S
O161 C163 1.267 . S
C162 O154 1.249 . S
C162 O155 1.267 . S
C163 O160 1.249 . S
C163 O161 1.267 . S
Dy164 O168 2.398 . S
Dy164 O169 2.491 . S
Dy164 O170 2.403 . S
Dy164 O171 2.664 1_655 S
Dy164 O175 2.326 . S
Dy164 O179 2.310 . S
Dy164 O180 2.351 1_655 S
C165 O176 1.185 . S
C165 O177 1.355 . S
C166 O168 1.185 . S
C166 O169 1.355 . S
Dy167 O171 2.310 . S
Dy167 O174 2.351 1_455 S
Dy167 O176 2.398 . S
Dy167 O177 2.491 . S
Dy167 O178 2.403 . S
Dy167 O179 2.664 1_455 S
Dy167 O181 2.326 . S
O168 Dy164 2.398 . S
O168 C166 1.185 . S
O169 Dy164 2.491 . S
O169 C166 1.355 . S
O170 Dy164 2.403 . S
O170 C172 1.254 . S
O171 Dy164 2.664 1_455 S
O171 Dy167 2.310 . S
O171 C172 1.268 1_455 S
C172 O170 1.254 . S
C172 O171 1.268 1_655 S
C173 O178 1.254 . S
C173 O179 1.268 1_455 S
O174 Dy167 2.351 1_655 S
O174 C182 1.249 . S
O175 Dy164 2.326 . S
O175 C182 1.267 . S
O176 C165 1.185 . S
O176 Dy167 2.398 . S
O177 C165 1.355 . S
O177 Dy167 2.491 . S
O178 Dy167 2.403 . S
O178 C173 1.254 . S
O179 Dy164 2.310 . S
O179 Dy167 2.664 1_655 S
O179 C173 1.268 1_655 S
O180 Dy164 2.351 1_455 S
O180 C183 1.249 . S
O181 Dy167 2.326 . S
O181 C183 1.267 . S
C182 O174 1.249 . S
C182 O175 1.267 . S
C183 O180 1.249 . S
C183 O181 1.267 . S
C184 C185 1.369 . S
C184 C186 1.419 . S
C184 H188 0.930 . S
C185 C184 1.369 . S
C185 C194 1.429 . S
C186 C184 1.419 . S
C186 C187 1.363 . S
C186 H189 0.929 . S
C187 C186 1.363 . S
C187 C193 1.428 . S
H188 C184 0.930 . S
H189 C186 0.929 . S
S190 N191 1.613 . S
S190 N192 1.610 . S
N191 S190 1.613 . S
N191 C194 1.350 1_565 S
N192 S190 1.610 . S
N192 C193 1.351 1_565 S
C193 C187 1.428 . S
C193 N192 1.351 1_545 S
C193 C194 1.434 . S
C194 C185 1.429 . S
C194 N191 1.350 1_545 S
C194 C193 1.434 . S
C195 C196 1.369 . S
C195 C197 1.419 . S
C195 H199 0.930 . S
C196 C195 1.369 . S
C196 C205 1.429 . S
C197 C195 1.419 . S
C197 C198 1.363 . S
C197 H200 0.929 . S
C198 C197 1.363 . S
C198 C204 1.428 . S
H199 C195 0.930 . S
H200 C197 0.929 . S
S201 N202 1.613 . S
S201 N203 1.610 . S
N202 S201 1.613 . S
N202 C205 1.350 . S
N203 S201 1.610 . S
N203 C204 1.351 . S
C204 C198 1.428 . S
C204 N203 1.351 . S
C204 C205 1.434 . S
C205 C196 1.429 . S
C205 N202 1.350 . S
C205 C204 1.434 . S
C206 C207 1.369 . S
C206 C208 1.419 . S
C206 H210 0.930 . S
C207 C206 1.369 . S
C207 C216 1.429 . S
C208 C206 1.419 . S
C208 C209 1.363 . S
C208 H211 0.929 . S
C209 C208 1.363 . S
C209 C215 1.428 . S
H210 C206 0.930 . S
H211 C208 0.929 . S
S212 N213 1.613 . S
S212 N214 1.610 . S
N213 S212 1.613 . S
N213 C216 1.350 . S
N214 S212 1.610 . S
N214 C215 1.351 . S
C215 C209 1.428 . S
C215 N214 1.351 . S
C215 C216 1.434 . S
C216 C207 1.429 . S
C216 N213 1.350 . S
C216 C215 1.434 . S
C217 C218 1.370 . S
C217 C219 1.419 . S
C217 H221 0.930 . S
C218 C217 1.370 . S
C218 C227 1.428 1_655 S
C219 C217 1.419 . S
C219 C220 1.363 . S
C219 H222 0.929 . S
C220 C219 1.363 . S
C220 C226 1.428 1_655 S
H221 C217 0.930 . S
H222 C219 0.929 . S
S223 N224 1.613 . S
S223 N225 1.610 . S
N224 S223 1.613 . S
N224 C227 1.350 . S
N225 S223 1.610 . S
N225 C226 1.351 . S
C226 C220 1.428 1_455 S
C226 N225 1.351 . S
C226 C227 1.434 . S
C227 C218 1.428 1_455 S
C227 N224 1.350 . S
C227 C226 1.434 . S
C228 C229 1.369 . S
C228 C230 1.419 . S
C228 H232 0.930 1_556 S
C229 C228 1.369 . S
C229 C238 1.429 . S
C230 C228 1.419 . S
C230 C231 1.363 . S
C230 H233 0.929 . S
C231 C230 1.363 . S
C231 C237 1.428 . S
H232 C228 0.930 1_554 S
H233 C230 0.929 . S
S234 N235 1.613 . S
S234 N236 1.610 . S
N235 S234 1.613 . S
N235 C238 1.350 . S
N236 S234 1.610 . S
N236 C237 1.351 . S
C237 C231 1.428 . S
C237 N236 1.351 . S
C237 C238 1.434 . S
C238 C229 1.429 . S
C238 N235 1.350 . S
C238 C237 1.434 . S
C239 C240 1.369 . S
C239 C241 1.419 . S
C239 H243 0.930 . S
C240 C239 1.369 . S
C240 C249 1.429 . S
C241 C239 1.419 . S
C241 C242 1.363 . S
C241 H244 0.929 . S
C242 C241 1.363 . S
C242 C248 1.428 . S
H243 C239 0.930 . S
H244 C241 0.929 . S
S245 N246 1.613 . S
S245 N247 1.610 1_554 S
N246 S245 1.613 . S
N246 C249 1.350 1_554 S
N247 S245 1.610 1_556 S
N247 C248 1.351 . S
C248 C242 1.428 . S
C248 N247 1.351 . S
C248 C249 1.434 . S
C249 C240 1.429 . S
C249 N246 1.350 1_556 S
C249 C248 1.434 . S
C250 C251 1.369 . S
C250 C252 1.419 . S
C250 H254 0.930 1_556 S
C251 C250 1.369 . S
C251 C260 1.429 . S
C252 C250 1.419 . S
C252 C253 1.363 . S
C252 H255 0.929 . S
C253 C252 1.363 . S
C253 C259 1.428 . S
H254 C250 0.930 1_554 S
H255 C252 0.929 . S
S256 N257 1.613 . S
S256 N258 1.610 . S
N257 S256 1.613 . S
N257 C260 1.350 . S
N258 S256 1.610 . S
N258 C259 1.351 . S
C259 C253 1.428 . S
C259 N258 1.351 . S
C259 C260 1.434 . S
C260 C251 1.429 . S
C260 N257 1.350 . S
C260 C259 1.434 . S
C261 C262 1.359 1_655 S
C261 C263 1.419 . S
C261 H265 0.930 . S
C262 C261 1.359 1_455 S
C262 C271 1.439 . S
C263 C261 1.419 . S
C263 C264 1.363 1_655 S
C263 H266 0.929 . S
C264 C263 1.363 1_455 S
C264 C270 1.428 . S
H265 C261 0.930 . S
H266 C263 0.929 . S
S267 N268 1.613 . S
S267 N269 1.610 . S
N268 S267 1.613 . S
N268 C271 1.350 . S
N269 S267 1.610 . S
N269 C270 1.351 . S
C270 C264 1.428 . S
C270 N269 1.351 . S
C270 C271 1.434 . S
C271 C262 1.439 . S
C271 N268 1.350 . S
C271 C270 1.434 . S
C272 C273 1.369 . S
C272 C274 1.419 . S
C272 H276 0.930 . S
C273 C272 1.369 . S
C273 C282 1.429 . S
C274 C272 1.419 . S
C274 C275 1.363 . S
C274 H277 0.929 . S
C275 C274 1.363 . S
C275 C281 1.428 . S
H276 C272 0.930 . S
H277 C274 0.929 . S
S278 N279 1.613 . S
S278 N280 1.610 1_455 S
N279 S278 1.613 . S
N279 C282 1.348 1_455 S
N280 S278 1.610 1_655 S
N280 C281 1.351 . S
C281 C275 1.428 . S
C281 N280 1.351 . S
C281 C282 1.435 . S
C282 C273 1.429 . S
C282 N279 1.348 1_655 S
C282 C281 1.435 . S
C283 C284 1.369 . S
C283 C285 1.419 . S
C283 H287 0.930 . S
C284 C283 1.369 . S
C284 C293 1.429 . S
C285 C283 1.419 . S
C285 C286 1.363 . S
C285 H288 0.929 . S
C286 C285 1.363 . S
C286 C292 1.428 1_545 S
H287 C283 0.930 . S
H288 C285 0.929 . S
S289 N290 1.613 . S
S289 N291 1.610 . S
N290 S289 1.613 . S
N290 C293 1.350 1_565 S
N291 S289 1.610 . S
N291 C292 1.351 . S
C292 C286 1.428 1_565 S
C292 N291 1.351 . S
C292 C293 1.434 1_565 S
C293 C284 1.429 . S
C293 N290 1.350 1_545 S
C293 C292 1.434 1_545 S
C294 C295 1.369 . S
C294 C296 1.419 . S
C294 H298 0.930 . S
C295 C294 1.369 . S
C295 C304 1.429 . S
C296 C294 1.419 . S
C296 C297 1.363 . S
C296 H299 0.929 . S
C297 C296 1.363 . S
C297 C303 1.428 . S
H298 C294 0.930 . S
H299 C296 0.929 . S
S300 N301 1.613 . S
S300 N302 1.610 . S
N301 S300 1.613 . S
N301 C304 1.350 . S
N302 S300 1.610 . S
N302 C303 1.351 . S
C303 C297 1.428 . S
C303 N302 1.351 . S
C303 C304 1.434 . S
C304 C295 1.429 . S
C304 N301 1.350 . S
C304 C303 1.434 . S
C305 C306 1.369 . S
C305 C307 1.419 . S
C305 H309 0.930 . S
C306 C305 1.369 . S
C306 C315 1.429 . S
C307 C305 1.419 . S
C307 C308 1.363 . S
C307 H310 0.929 . S
C308 C307 1.363 . S
C308 C314 1.428 . S
H309 C305 0.930 . S
H310 C307 0.929 . S
S311 N312 1.613 . S
S311 N313 1.610 . S
N312 S311 1.613 . S
N312 C315 1.350 . S
N313 S311 1.610 . S
N313 C314 1.351 . S
C314 C308 1.428 . S
C314 N313 1.351 . S
C314 C315 1.434 . S
C315 C306 1.429 . S
C315 N312 1.350 . S
C315 C314 1.434 . S
C316 C317 1.369 1_655 S
C316 C318 1.419 . S
C316 H320 0.930 . S
C317 C316 1.369 1_455 S
C317 C326 1.429 . S
C318 C316 1.419 . S
C318 C319 1.363 1_655 S
C318 H321 0.929 . S
C319 C318 1.363 1_455 S
C319 C325 1.428 . S
H320 C316 0.930 . S
H321 C318 0.929 . S
S322 N323 1.613 . S
S322 N324 1.610 . S
N323 S322 1.613 . S
N323 C326 1.350 1_554 S
N324 S322 1.610 . S
N324 C325 1.351 1_554 S
C325 C319 1.428 . S
C325 N324 1.351 1_556 S
C325 C326 1.434 . S
C326 C317 1.429 . S
C326 N323 1.350 1_556 S
C326 C325 1.434 . S
C327 C328 1.369 . S
C327 C329 1.419 . S
C327 H331 0.930 . S
C328 C327 1.369 . S
C328 C337 1.429 1_556 S
C329 C327 1.419 . S
C329 C330 1.363 . S
C329 H332 0.929 . S
C330 C329 1.363 . S
C330 C336 1.428 1_556 S
H331 C327 0.930 . S
H332 C329 0.929 . S
S333 N334 1.613 . S
S333 N335 1.610 . S
N334 S333 1.613 . S
N334 C337 1.350 . S
N335 S333 1.610 . S
N335 C336 1.351 . S
C336 C330 1.428 1_554 S
C336 N335 1.351 . S
C336 C337 1.434 . S
C337 C328 1.429 1_554 S
C337 N334 1.350 . S
C337 C336 1.434 . S
C338 C339 1.369 . S
C338 C340 1.419 . S
C338 H342 0.930 . S
C339 C338 1.369 . S
C339 C348 1.429 1_556 S
C340 C338 1.419 . S
C340 C341 1.363 . S
C340 H343 0.929 . S
C341 C340 1.363 . S
C341 C347 1.428 . S
H342 C338 0.930 . S
H343 C340 0.929 . S
S344 N345 1.613 . S
S344 N346 1.610 . S
N345 S344 1.613 . S
N345 C348 1.350 . S
N346 S344 1.610 . S
N346 C347 1.351 1_554 S
C347 C341 1.428 . S
C347 N346 1.351 1_556 S
C347 C348 1.434 1_556 S
C348 C339 1.429 1_554 S
C348 N345 1.350 . S
C348 C347 1.434 1_554 S
C349 C350 1.369 . S
C349 C351 1.419 . S
C349 H353 0.930 . S
C350 C349 1.369 . S
C350 C359 1.429 . S
C351 C349 1.419 . S
C351 C352 1.363 . S
C351 H354 0.929 . S
C352 C351 1.363 . S
C352 C358 1.428 . S
H353 C349 0.930 . S
H354 C351 0.929 . S
S355 N356 1.613 . S
S355 N357 1.610 1_554 S
N356 S355 1.613 . S
N356 C359 1.350 1_554 S
N357 S355 1.610 1_556 S
N357 C358 1.351 . S
C358 C352 1.428 . S
C358 N357 1.351 . S
C358 C359 1.434 . S
C359 C350 1.429 . S
C359 N356 1.350 1_556 S
C359 C358 1.434 . S
C360 C361 1.369 . S
C360 C362 1.419 . S
C360 H364 0.930 . S
C361 C360 1.369 . S
C361 C370 1.429 . S
C362 C360 1.419 . S
C362 C363 1.363 . S
C362 H365 0.929 . S
C363 C362 1.363 . S
C363 C369 1.428 . S
H364 C360 0.930 . S
H365 C362 0.929 . S
S366 N367 1.614 . S
S366 N368 1.610 1_554 S
N367 S366 1.614 . S
N367 C370 1.350 1_554 S
N368 S366 1.610 1_556 S
N368 C369 1.351 . S
C369 C363 1.428 . S
C369 N368 1.351 . S
C369 C370 1.434 . S
C370 C361 1.429 . S
C370 N367 1.350 1_556 S
C370 C369 1.434 . S
C371 C372 1.369 . S
C371 C373 1.421 . S
C371 H375 0.930 1_545 S
C372 C371 1.369 . S
C372 C381 1.429 . S
C373 C371 1.421 . S
C373 C374 1.370 . S
C373 H376 0.919 1_545 S
C374 C373 1.370 . S
C374 C380 1.428 . S
H375 C371 0.930 1_565 S
H376 C373 0.919 1_565 S
S377 N378 1.613 . S
S377 N379 1.610 . S
N378 S377 1.613 . S
N378 C381 1.350 . S
N379 S377 1.610 . S
N379 C380 1.351 . S
C380 C374 1.428 . S
C380 N379 1.351 . S
C380 C381 1.434 . S
C381 C372 1.429 . S
C381 N378 1.350 . S
C381 C380 1.434 . S
C382 C383 1.369 . S
C382 C384 1.419 . S
C382 H386 0.930 . S
C383 C382 1.369 . S
C383 C392 1.429 . S
C384 C382 1.419 . S
C384 C385 1.363 . S
C384 H387 0.929 . S
C385 C384 1.363 . S
C385 C391 1.428 . S
H386 C382 0.930 . S
H387 C384 0.929 . S
S388 N389 1.613 1_554 S
S388 N390 1.610 1_554 S
N389 S388 1.613 1_556 S
N389 C392 1.350 . S
N390 S388 1.610 1_556 S
N390 C391 1.351 . S
C391 C385 1.428 . S
C391 N390 1.351 . S
C391 C392 1.434 . S
C392 C383 1.429 . S
C392 N389 1.350 . S
C392 C391 1.434 . S
C393 C394 1.369 . S
C393 C395 1.419 . S
C393 H397 0.930 . S
C394 C393 1.369 . S
C394 C403 1.429 . S
C395 C393 1.419 . S
C395 C396 1.363 . S
C395 H398 0.929 . S
C396 C395 1.363 . S
C396 C402 1.428 . S
H397 C393 0.930 . S
H398 C395 0.929 . S
S399 N400 1.613 . S
S399 N401 1.610 . S
N400 S399 1.613 . S
N400 C403 1.350 . S
N401 S399 1.610 . S
N401 C402 1.351 . S
C402 C396 1.428 . S
C402 N401 1.351 . S
C402 C403 1.434 . S
C403 C394 1.429 . S
C403 N400 1.350 . S
C403 C402 1.434 . S
C404 C405 1.369 1_455 S
C404 C406 1.418 1_455 S
C404 H408 0.931 . S
C405 C404 1.369 1_655 S
C405 C414 1.429 . S
C406 C404 1.418 1_655 S
C406 C407 1.363 . S
C406 H409 0.929 . S
C407 C406 1.363 . S
C407 C413 1.428 . S
H408 C404 0.931 . S
H409 C406 0.929 . S
S410 N411 1.613 . S
S410 N412 1.610 . S
N411 S410 1.613 . S
N411 C414 1.350 . S
N412 S410 1.610 . S
N412 C413 1.351 . S
C413 C407 1.428 . S
C413 N412 1.351 . S
C413 C414 1.434 . S
C414 C405 1.429 . S
C414 N411 1.350 . S
C414 C413 1.434 . S
C415 C416 1.369 . S
C415 C417 1.419 . S
C415 H419 0.930 . S
C416 C415 1.369 . S
C416 C425 1.429 . S
C417 C415 1.419 . S
C417 C418 1.363 . S
C417 H420 0.929 . S
C418 C417 1.363 . S
C418 C424 1.428 . S
H419 C415 0.930 . S
H420 C417 0.929 . S
S421 N422 1.613 . S
S421 N423 1.610 . S
N422 S421 1.613 . S
N422 C425 1.350 . S
N423 S421 1.610 . S
N423 C424 1.351 . S
C424 C418 1.428 . S
C424 N423 1.351 . S
C424 C425 1.434 . S
C425 C416 1.429 . S
C425 N422 1.350 . S
C425 C424 1.434 . S
C426 C427 1.369 . S
C426 C428 1.419 . S
C426 H430 0.930 . S
C427 C426 1.369 . S
C427 C436 1.429 . S
C428 C426 1.419 . S
C428 C429 1.363 . S
C428 H431 0.929 . S
C429 C428 1.363 . S
C429 C435 1.428 . S
H430 C426 0.930 . S
H431 C428 0.929 . S
S432 N433 1.613 . S
S432 N434 1.610 . S
N433 S432 1.613 . S
N433 C436 1.350 . S
N434 S432 1.610 . S
N434 C435 1.351 . S
C435 C429 1.428 . S
C435 N434 1.351 . S
C435 C436 1.434 . S
C436 C427 1.429 . S
C436 N433 1.350 . S
C436 C435 1.434 . S
C437 C438 1.369 . S
C437 C439 1.419 . S
C437 H441 0.930 . S
C438 C437 1.369 . S
C438 C447 1.429 . S
C439 C437 1.419 . S
C439 C440 1.363 . S
C439 H442 0.929 . S
C440 C439 1.363 . S
C440 C446 1.428 . S
H441 C437 0.930 . S
H442 C439 0.929 . S
S443 N444 1.613 . S
S443 N445 1.610 . S
N444 S443 1.613 . S
N444 C447 1.350 . S
N445 S443 1.610 . S
N445 C446 1.351 . S
C446 C440 1.428 . S
C446 N445 1.351 . S
C446 C447 1.434 . S
C447 C438 1.429 . S
C447 N444 1.350 . S
C447 C446 1.434 . S
C185 C82 1.559 . S
C187 C112 1.733 . S
C198 C142 1.797 . S
C196 C95 1.621 . S
C209 C152 1.653 . S
C207 C56 1.400 . S
C220 C172 1.529 . S
C218 C69 1.321 1_655 S
C231 C113 1.736 . S
C229 C30 1.500 . S
C240 C43 1.569 1_556 S
C242 C143 1.797 . S
C251 C4 1.397 1_556 S
C253 C153 1.653 . S
C262 C17 1.320 . S
C264 C173 1.530 . S
C275 C105 1.034 . S
C273 C74 1.023 1_655 S
C286 C126 0.904 1_545 S
C284 C87 0.865 . S
C297 C145 1.172 . S
C295 C100 1.150 . S
C306 C61 0.952 . S
C308 C165 0.952 . S
C317 C22 1.009 1_556 S
C319 C106 1.030 . S
C330 C125 0.907 1_565 S
C328 C35 0.863 . S
C341 C146 1.167 . S
C339 C48 1.143 1_556 S
C350 C9 0.946 1_556 S
C352 C166 0.955 . S
C361 C73 1.541 . S
C363 C123 1.667 . S
C372 C86 1.479 . S
C374 C133 1.640 . S
C385 C163 1.842 . S
C383 C99 1.682 . S
C396 C183 1.825 . S
C394 C60 1.685 . S
C405 C21 1.552 1_655 S
C407 C122 1.668 . S
C418 C132 1.641 . S
C416 C34 1.479 . S
C429 C162 1.843 . S
C427 C47 1.690 . S
C438 C8 1.685 . S
C440 C182 1.826 . S
