# Generated by pormake.
# Topology ctn, (3,4)-cn, num edge types: 1
# Building blocks:
#     Node 0, Type 0, BuildingBlock: BETDAH_clean_linker_0, # of connection points: 3
#     Node 1, Type 0, BuildingBlock: BETDAH_clean_linker_0, # of connection points: 3
#     Node 2, Type 0, BuildingBlock: BETDAH_clean_linker_0, # of connection points: 3
#     Node 3, Type 0, BuildingBlock: BETDAH_clean_linker_0, # of connection points: 3
#     Node 4, Type 0, BuildingBlock: BETDAH_clean_linker_0, # of connection points: 3
#     Node 5, Type 0, BuildingBlock: BETDAH_clean_linker_0, # of connection points: 3
#     Node 6, Type 0, BuildingBlock: BETDAH_clean_linker_0, # of connection points: 3
#     Node 7, Type 0, BuildingBlock: BETDAH_clean_linker_0, # of connection points: 3
#     Node 8, Type 0, BuildingBlock: BETDAH_clean_linker_0, # of connection points: 3
#     Node 9, Type 0, BuildingBlock: BETDAH_clean_linker_0, # of connection points: 3
#     Node 10, Type 0, BuildingBlock: BETDAH_clean_linker_0, # of connection points: 3
#     Node 11, Type 0, BuildingBlock: BETDAH_clean_linker_0, # of connection points: 3
#     Node 12, Type 0, BuildingBlock: BETDAH_clean_linker_0, # of connection points: 3
#     Node 13, Type 0, BuildingBlock: BETDAH_clean_linker_0, # of connection points: 3
#     Node 14, Type 0, BuildingBlock: BETDAH_clean_linker_0, # of connection points: 3
#     Node 15, Type 0, BuildingBlock: BETDAH_clean_linker_0, # of connection points: 3
#     Node 16, Type 1, BuildingBlock: AZAVOO_clean_sbu_0, # of connection points: 4
#     Node 17, Type 1, BuildingBlock: AZAVOO_clean_sbu_0, # of connection points: 4
#     Node 18, Type 1, BuildingBlock: AZAVOO_clean_sbu_0, # of connection points: 4
#     Node 19, Type 1, BuildingBlock: AZAVOO_clean_sbu_0, # of connection points: 4
#     Node 20, Type 1, BuildingBlock: AZAVOO_clean_sbu_0, # of connection points: 4
#     Node 21, Type 1, BuildingBlock: AZAVOO_clean_sbu_0, # of connection points: 4
#     Node 22, Type 1, BuildingBlock: AZAVOO_clean_sbu_0, # of connection points: 4
#     Node 23, Type 1, BuildingBlock: AZAVOO_clean_sbu_0, # of connection points: 4
#     Node 24, Type 1, BuildingBlock: AZAVOO_clean_sbu_0, # of connection points: 4
#     Node 25, Type 1, BuildingBlock: AZAVOO_clean_sbu_0, # of connection points: 4
#     Node 26, Type 1, BuildingBlock: AZAVOO_clean_sbu_0, # of connection points: 4
#     Node 27, Type 1, BuildingBlock: AZAVOO_clean_sbu_0, # of connection points: 4
#     Edge 28, Type (0, 1), BuildingBlock: XIVTED_clean_linker_0, # of connection points: 2
#     Edge 29, Type (0, 1), BuildingBlock: XIVTED_clean_linker_0, # of connection points: 2
#     Edge 30, Type (0, 1), BuildingBlock: XIVTED_clean_linker_0, # of connection points: 2
#     Edge 31, Type (0, 1), BuildingBlock: XIVTED_clean_linker_0, # of connection points: 2
#     Edge 32, Type (0, 1), BuildingBlock: XIVTED_clean_linker_0, # of connection points: 2
#     Edge 33, Type (0, 1), BuildingBlock: XIVTED_clean_linker_0, # of connection points: 2
#     Edge 34, Type (0, 1), BuildingBlock: XIVTED_clean_linker_0, # of connection points: 2
#     Edge 35, Type (0, 1), BuildingBlock: XIVTED_clean_linker_0, # of connection points: 2
#     Edge 36, Type (0, 1), BuildingBlock: XIVTED_clean_linker_0, # of connection points: 2
#     Edge 37, Type (0, 1), BuildingBlock: XIVTED_clean_linker_0, # of connection points: 2
#     Edge 38, Type (0, 1), BuildingBlock: XIVTED_clean_linker_0, # of connection points: 2
#     Edge 39, Type (0, 1), BuildingBlock: XIVTED_clean_linker_0, # of connection points: 2
#     Edge 40, Type (0, 1), BuildingBlock: XIVTED_clean_linker_0, # of connection points: 2
#     Edge 41, Type (0, 1), BuildingBlock: XIVTED_clean_linker_0, # of connection points: 2
#     Edge 42, Type (0, 1), BuildingBlock: XIVTED_clean_linker_0, # of connection points: 2
#     Edge 43, Type (0, 1), BuildingBlock: XIVTED_clean_linker_0, # of connection points: 2
#     Edge 44, Type (0, 1), BuildingBlock: XIVTED_clean_linker_0, # of connection points: 2
#     Edge 45, Type (0, 1), BuildingBlock: XIVTED_clean_linker_0, # of connection points: 2
#     Edge 46, Type (0, 1), BuildingBlock: XIVTED_clean_linker_0, # of connection points: 2
#     Edge 47, Type (0, 1), BuildingBlock: XIVTED_clean_linker_0, # of connection points: 2
#     Edge 48, Type (0, 1), BuildingBlock: XIVTED_clean_linker_0, # of connection points: 2
#     Edge 49, Type (0, 1), BuildingBlock: XIVTED_clean_linker_0, # of connection points: 2
#     Edge 50, Type (0, 1), BuildingBlock: XIVTED_clean_linker_0, # of connection points: 2
#     Edge 51, Type (0, 1), BuildingBlock: XIVTED_clean_linker_0, # of connection points: 2
#     Edge 52, Type (0, 1), BuildingBlock: XIVTED_clean_linker_0, # of connection points: 2
#     Edge 53, Type (0, 1), BuildingBlock: XIVTED_clean_linker_0, # of connection points: 2
#     Edge 54, Type (0, 1), BuildingBlock: XIVTED_clean_linker_0, # of connection points: 2
#     Edge 55, Type (0, 1), BuildingBlock: XIVTED_clean_linker_0, # of connection points: 2
#     Edge 56, Type (0, 1), BuildingBlock: XIVTED_clean_linker_0, # of connection points: 2
#     Edge 57, Type (0, 1), BuildingBlock: XIVTED_clean_linker_0, # of connection points: 2
#     Edge 58, Type (0, 1), BuildingBlock: XIVTED_clean_linker_0, # of connection points: 2
#     Edge 59, Type (0, 1), BuildingBlock: XIVTED_clean_linker_0, # of connection points: 2
#     Edge 60, Type (0, 1), BuildingBlock: XIVTED_clean_linker_0, # of connection points: 2
#     Edge 61, Type (0, 1), BuildingBlock: XIVTED_clean_linker_0, # of connection points: 2
#     Edge 62, Type (0, 1), BuildingBlock: XIVTED_clean_linker_0, # of connection points: 2
#     Edge 63, Type (0, 1), BuildingBlock: XIVTED_clean_linker_0, # of connection points: 2
#     Edge 64, Type (0, 1), BuildingBlock: XIVTED_clean_linker_0, # of connection points: 2
#     Edge 65, Type (0, 1), BuildingBlock: XIVTED_clean_linker_0, # of connection points: 2
#     Edge 66, Type (0, 1), BuildingBlock: XIVTED_clean_linker_0, # of connection points: 2
#     Edge 67, Type (0, 1), BuildingBlock: XIVTED_clean_linker_0, # of connection points: 2
#     Edge 68, Type (0, 1), BuildingBlock: XIVTED_clean_linker_0, # of connection points: 2
#     Edge 69, Type (0, 1), BuildingBlock: XIVTED_clean_linker_0, # of connection points: 2
#     Edge 70, Type (0, 1), BuildingBlock: XIVTED_clean_linker_0, # of connection points: 2
#     Edge 71, Type (0, 1), BuildingBlock: XIVTED_clean_linker_0, # of connection points: 2
#     Edge 72, Type (0, 1), BuildingBlock: XIVTED_clean_linker_0, # of connection points: 2
#     Edge 73, Type (0, 1), BuildingBlock: XIVTED_clean_linker_0, # of connection points: 2
#     Edge 74, Type (0, 1), BuildingBlock: XIVTED_clean_linker_0, # of connection points: 2
#     Edge 75, Type (0, 1), BuildingBlock: XIVTED_clean_linker_0, # of connection points: 2
# Relax obj value: 0.051
# Max RMSD: 0.175
# Mean RMSD: 0.104
data_MOF--net-ctn--node1-AZAVOO_clean_sbu_0--node2-BETDAH_clean_linker_0--edge1-XIVTED_clean_linker_0
_symmetry_space_group_name_H-M    P1
_symmetry_Int_Tables_number       1
_symmetry_cell_setting            triclinic
loop_
_symmetry_equiv_pos_as_xyz
'x, y, z'
_cell_length_a     53.785525
_cell_length_b     54.769648
_cell_length_c     55.492344
_cell_angle_alpha  98.659354
_cell_angle_beta   93.275524
_cell_angle_gamma 97.726668
loop_
_atom_site_label
_atom_site_type_symbol
_atom_site_fract_x
_atom_site_fract_y
_atom_site_fract_z
_atom_type_partial_charge
H0 H 0.07089 0.99254 0.06652 0.0
H1 H 0.06737 0.99475 0.98918 0.0
H2 H 0.01224 0.02534 0.03229 0.0
C3 C 0.06196 -0.00219 0.05049 0.0
C4 C 0.04031 0.00976 0.05258 0.0
C5 C 0.07186 0.99209 0.02768 0.0
C6 C 0.0601 -0.00114 0.00693 0.0
C7 C 0.03911 0.01133 0.00882 0.0
C8 C 0.0292 0.01668 0.03148 0.0
N9 N 0.02701 0.01688 0.98743 0.0
C10 C 0.02864 0.04114 0.98259 0.0
H11 H 0.33584 0.68411 0.25933 0.0
H12 H 0.36882 0.75817 0.25134 0.0
H13 H 0.29845 0.72493 0.21141 0.0
C14 C 0.33538 0.70081 0.25111 0.0
C15 C 0.31497 0.70217 0.23466 0.0
C16 C 0.35491 0.72088 0.25735 0.0
C17 C 0.35405 0.74233 0.24652 0.0
C18 C 0.33407 0.74389 0.22977 0.0
C19 C 0.31427 0.7238 0.22398 0.0
N20 N 0.33446 0.76627 0.21972 0.0
C21 C 0.31937 0.7692 0.19951 0.0
H22 H 0.0228 0.4452 0.05914 0.0
H23 H 0.01369 0.5221 0.08043 0.0
H24 H 0.97235 0.47893 0.01576 0.0
C25 C 0.01402 0.46131 0.05615 0.0
C26 C 0.99693 0.45946 0.03567 0.0
C27 C 0.02025 0.48378 0.07249 0.0
C28 C 0.00876 0.50445 0.06826 0.0
C29 C 0.99118 0.50279 0.04819 0.0
C30 C 0.98534 0.48022 0.0317 0.0
N31 N 0.98099 0.52467 0.04457 0.0
C32 C 0.95736 0.52518 0.03323 0.0
H33 H 0.7823 0.82171 0.18962 0.0
H34 H 0.70553 0.79631 0.20207 0.0
H35 H 0.74 0.8704 0.23353 0.0
C36 C 0.76532 0.82492 0.19846 0.0
C37 C 0.76411 0.84829 0.2125 0.0
C38 C 0.74432 0.8061 0.19446 0.0
C39 C 0.72194 0.81056 0.20522 0.0
C40 C 0.72055 0.83382 0.21937 0.0
C41 C 0.74143 0.85257 0.22261 0.0
N42 N 0.69793 0.83954 0.22928 0.0
C43 C 0.68313 0.82385 0.24197 0.0
H44 H 0.07578 0.01842 0.45522 0.0
H45 H 0.07325 -0.00329 0.52665 0.0
H46 H 0.00745 0.97968 0.47606 0.0
C47 C 0.06578 0.00889 0.46834 0.0
C48 C 0.04042 -0.00147 0.46256 0.0
C49 C 0.07778 0.0087 0.49148 0.0
C50 C 0.0644 -0.00323 0.50863 0.0
C51 C 0.03909 0.98598 0.50287 0.0
C52 C 0.02712 0.9875 0.48014 0.0
N53 N 0.0245 0.97587 0.52048 0.0
C54 C 0.03072 0.9567 0.53248 0.0
H55 H 0.26369 0.69158 0.80964 0.0
H56 H 0.19235 0.70896 0.78275 0.0
H57 H 0.22341 0.64683 0.74547 0.0
C58 C 0.24749 0.68771 0.7964 0.0
C59 C 0.24619 0.6677 0.7771 0.0
C60 C 0.22822 0.70283 0.79867 0.0
C61 C 0.20727 0.69749 0.78129 0.0
C62 C 0.20555 0.6772 0.76212 0.0
C63 C 0.22493 0.66245 0.76026 0.0
N64 N 0.18447 0.67061 0.74461 0.0
C65 C 0.16753 0.68643 0.73905 0.0
H66 H 0.9252 0.52401 0.50057 0.0
H67 H 0.9953 0.53791 0.46721 0.0
H68 H 0.95469 0.46395 0.45783 0.0
C69 C 0.93945 0.51746 0.48928 0.0
C70 C 0.93656 0.49209 0.47884 0.0
C71 C 0.96071 0.53432 0.48563 0.0
C72 C 0.97897 0.52538 0.47058 0.0
C73 C 0.97651 0.49995 0.4605 0.0
C74 C 0.95572 0.48359 0.4651 0.0
N75 N 0.99521 0.48952 0.44692 0.0
C76 C 0.01098 0.50153 0.43198 0.0
H77 H 0.8319 0.74845 0.80237 0.0
H78 H 0.79573 0.78953 0.75299 0.0
H79 H 0.75631 0.76386 0.81102 0.0
C80 C 0.81602 0.75695 0.79655 0.0
C81 C 0.79462 0.75591 0.81013 0.0
C82 C 0.81676 0.76873 0.77547 0.0
C83 C 0.79574 0.77994 0.76868 0.0
C84 C 0.77404 0.77797 0.78149 0.0
C85 C 0.7735 0.7657 0.80174 0.0
N86 N 0.75155 0.78577 0.77289 0.0
C87 C 0.74947 0.81016 0.7698 0.0
H88 H 0.34216 0.24928 0.30752 0.0
H89 H 0.30609 0.27982 0.24956 0.0
H90 H 0.2638 0.25842 0.30766 0.0
C91 C 0.32568 0.25505 0.29918 0.0
C92 C 0.303 0.25313 0.31082 0.0
C93 C 0.32724 0.26484 0.27702 0.0
C94 C 0.30574 0.27298 0.26689 0.0
C95 C 0.28311 0.27091 0.2782 0.0
C96 C 0.28176 0.26073 0.29975 0.0
N97 N 0.2608 0.2763 0.26663 0.0
C98 C 0.25583 0.30053 0.26646 0.0
H99 H 0.52401 0.94671 0.55526 0.0
H100 H 0.51739 0.02495 0.5635 0.0
H101 H 0.4844 0.97545 0.49872 0.0
C102 C 0.51667 0.96217 0.54861 0.0
C103 C 0.5031 0.95806 0.52567 0.0
C104 C 0.5222 0.98622 0.56241 0.0
C105 C 0.51272 0.00615 0.55349 0.0
C106 C 0.49865 0.00217 0.53074 0.0
C107 C 0.49424 0.97822 0.51673 0.0
N108 N 0.49251 0.02282 0.52028 0.0
C109 C 0.46942 0.03138 0.52234 0.0
H110 H 0.27703 0.3292 0.68826 0.0
H111 H 0.22535 0.28544 0.72738 0.0
H112 H 0.27076 0.35244 0.76475 0.0
C113 C 0.26782 0.32662 0.70476 0.0
C114 C 0.27537 0.34365 0.72623 0.0
C115 C 0.25013 0.30523 0.705 0.0
C116 C 0.23887 0.30187 0.72685 0.0
C117 C 0.24611 0.31922 0.74833 0.0
C118 C 0.26469 0.33959 0.74796 0.0
N119 N 0.23678 0.31576 0.77113 0.0
C120 C 0.21206 0.30656 0.77441 0.0
H121 H 0.83206 0.19736 0.77152 0.0
H122 H 0.88259 0.24946 0.73991 0.0
H123 H 0.80876 0.2221 0.70498 0.0
C124 C 0.83618 0.20867 0.75743 0.0
C125 C 0.8179 0.20777 0.73805 0.0
C126 C 0.85974 0.22359 0.75842 0.0
C127 C 0.86445 0.23813 0.73993 0.0
C128 C 0.84611 0.23828 0.72109 0.0
C129 C 0.82286 0.22273 0.7199 0.0
N130 N 0.85211 0.2541 0.70359 0.0
C131 C 0.8349 0.25996 0.68655 0.0
H132 H 0.57047 0.49239 0.5658 0.0
H133 H 0.56585 0.49261 0.4881 0.0
H134 H 0.51121 0.52409 0.53118 0.0
C135 C 0.56129 0.49723 0.54966 0.0
C136 C 0.53967 0.50923 0.5517 0.0
C137 C 0.57085 0.4909 0.52678 0.0
C138 C 0.55882 0.49717 0.5059 0.0
C139 C 0.5378 0.5096 0.50771 0.0
C140 C 0.5282 0.51548 0.53043 0.0
N141 N 0.52531 0.51451 0.48623 0.0
C142 C 0.52785 0.53831 0.48008 0.0
H143 H 0.56983 0.52283 0.9528 0.0
H144 H 0.57113 0.4941 0.02101 0.0
H145 H 0.5036 0.47968 0.9727 0.0
C146 C 0.56054 0.512 0.9654 0.0
C147 C 0.53531 0.50118 0.95984 0.0
C148 C 0.57368 0.50957 0.98737 0.0
C149 C 0.56139 0.49565 0.00378 0.0
C150 C 0.53611 0.48463 -0.00171 0.0
C151 C 0.52326 0.48767 0.9765 0.0
N152 N 0.52223 0.47241 0.01516 0.0
C153 C 0.53102 0.45565 0.02892 0.0
H154 H 0.76445 0.18564 0.31298 0.0
H155 H 0.70158 0.21001 0.2765 0.0
H156 H 0.745 0.15965 0.23635 0.0
C157 C 0.75229 0.1851 0.29658 0.0
C158 C 0.75729 0.17096 0.27461 0.0
C159 C 0.73233 0.19938 0.2974 0.0
C160 C 0.71709 0.19925 0.2759 0.0
C161 C 0.72156 0.18465 0.25388 0.0
C162 C 0.74167 0.17078 0.25341 0.0
N163 N 0.70626 0.18303 0.2318 0.0
C164 C 0.68658 0.19654 0.22831 0.0
H165 H 0.42824 0.026 0.00539 0.0
H166 H 0.48554 0.04254 0.95628 0.0
H167 H 0.44359 0.96898 0.94872 0.0
C168 C 0.43853 0.02043 0.98975 0.0
C169 C 0.43343 -0.00435 0.97782 0.0
C170 C 0.45727 0.03773 0.98225 0.0
C171 C 0.47122 0.02958 0.96246 0.0
C172 C 0.46624 0.00462 0.95049 0.0
C173 C 0.44746 0.98802 0.9583 0.0
N174 N 0.4793 0.995 0.93047 0.0
C175 C 0.49814 0.00783 0.9191 0.0
Mg176 Mg 0.23623 0.84172 0.01156 0.0
O177 O 0.27466 0.86666 0.01104 0.0
O178 O 0.30405 0.84149 0.01194 0.0
Mg179 Mg 0.28562 0.80164 0.01245 0.0
C180 C 0.2977 0.86303 0.01127 0.0
C181 C 0.21562 0.89236 0.01934 0.0
O182 O 0.2318 0.89502 0.03853 0.0
O183 O 0.23755 0.8256 0.97103 0.0
O184 O 0.26745 0.80114 0.97383 0.0
O185 O 0.23965 0.84681 0.05248 0.0
O186 O 0.25356 0.81633 0.02886 0.0
C187 C 0.25122 0.81004 0.96125 0.0
C188 C 0.25121 0.82744 0.05056 0.0
O189 O 0.2142 0.8729 0.00328 0.0
Mg190 Mg 0.17468 0.51517 0.26993 0.0
O191 O 0.15002 0.50694 0.23316 0.0
O192 O 0.17682 0.50546 0.20376 0.0
Mg193 Mg 0.21734 0.51325 0.2205 0.0
C194 C 0.15446 0.50395 0.21056 0.0
C195 C 0.14134 0.52095 0.31227 0.0
O196 O 0.16098 0.5383 0.3184 0.0
O197 O 0.18403 0.47469 0.26502 0.0
O198 O 0.21121 0.47674 0.23612 0.0
O199 O 0.17711 0.55648 0.26954 0.0
O200 O 0.20417 0.53325 0.25334 0.0
C201 C 0.1994 0.46481 0.25108 0.0
C202 C 0.19673 0.55474 0.25729 0.0
O203 O 0.14052 0.50642 0.29193 0.0
Mg204 Mg 0.78752 0.66046 0.01256 0.0
O205 O 0.74898 0.63459 0.00815 0.0
O206 O 0.71987 0.66028 0.01132 0.0
Mg207 Mg 0.73827 0.7009 0.01562 0.0
C208 C 0.72603 0.63837 0.00884 0.0
C209 C 0.80888 0.61027 0.01428 0.0
O210 O 0.79423 0.61036 0.03243 0.0
O211 O 0.78279 0.66879 0.97305 0.0
O212 O 0.75438 0.69496 0.97801 0.0
O213 O 0.78808 0.66394 0.05361 0.0
O214 O 0.77176 0.68961 0.03245 0.0
C215 C 0.76934 0.68371 0.96474 0.0
C216 C 0.77613 0.6829 0.05333 0.0
O217 O 0.80904 0.62755 0.00128 0.0
Mg218 Mg 0.94161 0.0397 0.25395 0.0
O219 O 0.91488 0.00253 0.243 0.0
O220 O 0.93868 0.97274 0.23261 0.0
Mg221 Mg 0.97995 0.99027 0.23565 0.0
C222 C 0.91723 0.9797 0.23587 0.0
C223 C 0.90769 0.07971 0.26069 0.0
O224 O 0.92543 0.0876 0.2472 0.0
O225 O 0.95354 0.02778 0.29082 0.0
O226 O 0.97828 -0.0001 0.27701 0.0
O227 O 0.94088 0.04644 0.21488 0.0
O228 O 0.9685 0.0263 0.23122 0.0
C229 C 0.96879 0.01241 0.2946 0.0
C230 C 0.95974 0.0342 0.21224 0.0
O231 O 0.90889 0.05926 0.2687 0.0
Mg232 Mg 0.28854 0.16512 0.51718 0.0
O233 O 0.25098 0.13759 0.51135 0.0
O234 O 0.2205 0.16171 0.51165 0.0
Mg235 Mg 0.23718 0.20281 0.51506 0.0
C236 C 0.22768 0.14029 0.5105 0.0
C237 C 0.33122 0.13662 0.52586 0.0
O238 O 0.33392 0.15649 0.54284 0.0
O239 O 0.28602 0.17172 0.47692 0.0
O240 O 0.25589 0.19618 0.47886 0.0
O241 O 0.28591 0.16997 0.55801 0.0
O242 O 0.27048 0.194 0.53435 0.0
C243 C 0.27222 0.18543 0.46706 0.0
C244 C 0.27359 0.18834 0.55585 0.0
O245 O 0.31257 0.13337 0.50993 0.0
Mg246 Mg 0.43792 0.54491 0.75092 0.0
O247 O 0.41378 0.50603 0.74096 0.0
O248 O 0.4403 0.47805 0.73387 0.0
Mg249 Mg 0.48059 0.49817 0.73805 0.0
C250 C 0.41806 0.48352 0.73554 0.0
C251 C 0.39699 0.57887 0.75135 0.0
O252 O 0.41105 0.58471 0.73389 0.0
O253 O 0.44927 0.53589 0.78905 0.0
O254 O 0.47555 0.50823 0.77892 0.0
O255 O 0.43803 0.54924 0.71135 0.0
O256 O 0.46674 0.5323 0.73026 0.0
C257 C 0.46433 0.5211 0.79486 0.0
C258 C 0.45788 0.53832 0.71028 0.0
O259 O 0.40315 0.56244 0.76365 0.0
Mg260 Mg 0.7355 0.34035 0.51127 0.0
O261 O 0.77304 0.36461 0.50663 0.0
O262 O 0.80191 0.33867 0.50373 0.0
Mg263 Mg 0.78482 0.29997 0.51059 0.0
C264 C 0.79548 0.36025 0.50345 0.0
C265 C 0.71425 0.39067 0.51854 0.0
O266 O 0.73112 0.39403 0.53726 0.0
O267 O 0.733 0.32099 0.47082 0.0
O268 O 0.76057 0.29429 0.47464 0.0
O269 O 0.74273 0.34752 0.55251 0.0
O270 O 0.75446 0.3162 0.52837 0.0
C271 C 0.74372 0.30242 0.46212 0.0
C272 C 0.75388 0.32789 0.55011 0.0
O273 O 0.71248 0.3708 0.50296 0.0
Mg274 Mg 0.66956 0.02363 0.76558 0.0
O275 O 0.64594 0.01593 0.72808 0.0
O276 O 0.67427 0.01488 0.70006 0.0
Mg277 Mg 0.71431 0.02349 0.71812 0.0
C278 C 0.65151 0.01309 0.70579 0.0
C279 C 0.638 0.02396 0.80904 0.0
O280 O 0.6599 0.03709 0.81734 0.0
O281 O 0.67964 0.98354 0.76029 0.0
O282 O 0.70867 0.98651 0.73319 0.0
O283 O 0.67139 0.0649 0.76687 0.0
O284 O 0.69929 0.04298 0.75025 0.0
C285 C 0.69609 0.97418 0.74739 0.0
C286 C 0.69139 0.06422 0.75505 0.0
O287 O 0.63503 0.01384 0.78665 0.0
Mg288 Mg 0.04833 0.25336 0.92092 0.0
O289 O 0.01253 0.24023 0.89533 0.0
O290 O 0.98187 0.22467 0.9167 0.0
Mg291 Mg -0.00232 0.22937 0.95652 0.0
C292 C 0.98995 0.23009 0.89669 0.0
C293 C 0.07023 0.25668 0.87111 0.0
O294 O 0.05994 0.23319 0.86861 0.0
O295 O 0.03152 0.28847 0.93588 0.0
O296 O 0.00207 0.27208 0.95808 0.0
O297 O 0.05911 0.21503 0.91544 0.0
O298 O 0.03575 0.22859 0.94453 0.0
C299 C 0.01389 0.29082 0.95025 0.0
C300 C 0.04583 0.21049 0.93339 0.0
O301 O 0.0677 0.27123 0.89072 0.0
Mg302 Mg 0.55051 0.74718 0.41091 0.0
O303 O 0.51314 0.73487 0.38738 0.0
O304 O 0.48383 0.72201 0.41147 0.0
Mg305 Mg 0.50217 0.72613 0.45034 0.0
C306 C 0.49052 0.7262 0.39059 0.0
C307 C 0.58864 0.75671 0.3732 0.0
O308 O 0.5981 0.7409 0.38543 0.0
O309 O 0.53601 0.78339 0.42689 0.0
O310 O 0.50824 0.76868 0.45162 0.0
O311 O 0.55939 0.708 0.40507 0.0
O312 O 0.53885 0.72345 0.43569 0.0
C313 C 0.51991 0.7868 0.44275 0.0
C314 C 0.54742 0.70457 0.42413 0.0
O315 O 0.56816 0.76417 0.3794 0.0
Mg316 Mg 0.98116 0.74793 0.61291 0.0
O317 O 0.01701 0.74282 0.63607 0.0
O318 O 0.04547 0.73578 0.60886 0.0
Mg319 Mg 0.02836 0.73322 0.56977 0.0
C320 C 0.03919 0.73891 0.63086 0.0
C321 C 0.95961 0.75504 0.66666 0.0
O322 O 0.96133 0.766 0.64731 0.0
O323 O -0.00025 0.78648 0.60557 0.0
O324 O 0.02557 0.7752 0.57708 0.0
O325 O 0.96642 0.70702 0.60822 0.0
O326 O 0.99129 0.72382 0.58312 0.0
C327 C 0.01556 0.79197 0.59011 0.0
C328 C 0.97902 0.70406 0.58907 0.0
O329 O 0.96165 0.76524 0.64745 0.0
Mg330 Mg 0.48734 0.24954 0.11366 0.0
O331 O 0.5242 0.24402 0.13477 0.0
O332 O 0.55141 0.23739 0.10625 0.0
Mg333 Mg 0.5325 0.23564 0.06801 0.0
C334 C 0.54609 0.24019 0.12855 0.0
C335 C 0.46641 0.25009 0.16488 0.0
O336 O 0.47513 0.22865 0.16138 0.0
O337 O 0.50526 0.28851 0.10667 0.0
O338 O 0.52991 0.27752 0.07696 0.0
O339 O 0.47294 0.20861 0.10845 0.0
O340 O 0.496 0.2261 0.08246 0.0
C341 C 0.52049 0.29418 0.09077 0.0
C342 C 0.48437 0.2061 0.08854 0.0
O343 O 0.47016 0.26469 0.14918 0.0
H344 H 0.19071 0.71753 0.82695 0.0
H345 H 0.28712 0.79738 0.93124 0.0
H346 H 0.26992 0.7359 0.81815 0.0
H347 H 0.20747 0.80069 0.93113 0.0
H348 H 0.28081 0.77582 0.88913 0.0
H349 H 0.19556 0.74877 0.86412 0.0
C350 C 0.20903 0.72837 0.83257 0.0
C351 C 0.23004 0.72371 0.81958 0.0
C352 C 0.2647 0.78154 0.89811 0.0
C353 C 0.23574 0.75921 0.86229 0.0
C354 C 0.26831 0.79383 0.92218 0.0
C355 C 0.24776 0.80068 0.93469 0.0
C356 C 0.24026 0.77547 0.88655 0.0
C357 C 0.2238 0.79575 0.92207 0.0
C358 C 0.21179 0.74616 0.85385 0.0
C359 C 0.25333 0.73829 0.8279 0.0
N360 N 0.22062 0.78301 0.89877 0.0
N361 N 0.2556 0.7551 0.84883 0.0
H362 H 0.05358 0.53544 0.43884 0.0
H363 H 0.09631 0.48912 0.30525 0.0
H364 H 0.00733 0.4812 0.38458 0.0
H365 H 0.13947 0.54817 0.35746 0.0
H366 H 0.0631 0.48641 0.33363 0.0
H367 H 0.08477 0.54146 0.40875 0.0
C368 C 0.04988 0.52516 0.42042 0.0
C369 C 0.02794 0.50802 0.41393 0.0
C370 C 0.07982 0.50001 0.33883 0.0
C371 C 0.06351 0.51423 0.37968 0.0
C372 C 0.09882 0.50151 0.32264 0.0
C373 C 0.12079 0.51883 0.32897 0.0
C374 C 0.08283 0.51588 0.36156 0.0
C375 C 0.12292 0.53448 0.35176 0.0
C376 C 0.06768 0.52844 0.4033 0.0
C377 C 0.02403 0.49478 0.39008 0.0
N378 N 0.10428 0.53257 0.36721 0.0
N379 N 0.04171 0.49803 0.37382 0.0
H380 H 0.77527 0.77424 0.85226 0.0
H381 H 0.8031 0.66937 0.93106 0.0
H382 H 0.81187 0.71281 0.82096 0.0
H383 H 0.74342 0.71441 0.94201 0.0
H384 H 0.81092 0.6861 0.89288 0.0
H385 H 0.76917 0.75478 0.8884 0.0
C386 C 0.782 0.75656 0.85293 0.0
C387 C 0.79363 0.74493 0.8332 0.0
C388 C 0.79601 0.69205 0.90365 0.0
C389 C 0.78693 0.7225 0.8751 0.0
C390 C 0.79146 0.68248 0.92538 0.0
C391 C 0.77267 0.69058 0.94 0.0
C392 C 0.7819 0.71006 0.89676 0.0
C393 C 0.75825 0.70766 0.93164 0.0
C394 C 0.77851 0.74544 0.87366 0.0
C395 C 0.80272 0.72241 0.83566 0.0
N396 N 0.76334 0.71692 0.91085 0.0
N397 N 0.79908 0.71183 0.85621 0.0
H398 H 0.99466 0.0135 0.45216 0.0
H399 H 0.00319 0.98368 0.30787 0.0
H400 H 0.05784 0.98662 0.41776 0.0
H401 H 0.95362 0.03368 0.33911 0.0
H402 H 0.01892 0.97969 0.34861 0.0
H403 H 0.97536 0.01649 0.41158 0.0
C404 C 0.00436 0.00807 0.43606 0.0
C405 C 0.0279 -0.00019 0.43829 0.0
C406 C 0.00459 0.99154 0.34665 0.0
C407 C 0.00597 0.0031 0.39205 0.0
C408 C 0.99544 0.99382 0.32329 0.0
C409 C 0.97705 0.00923 0.31987 0.0
C410 C 0.99532 0.00459 0.36709 0.0
C411 C 0.96786 0.02169 0.34081 0.0
C412 C 0.99342 0.00994 0.41299 0.0
C413 C 0.03978 0.99325 0.41691 0.0
N414 N 0.97711 0.01911 0.36359 0.0
N415 N 0.02866 0.99494 0.39475 0.0
H416 H 0.25065 0.25504 0.70304 0.0
H417 H 0.25112 0.2304 0.55718 0.0
H418 H 0.24108 0.31052 0.6571 0.0
H419 H 0.27475 0.17971 0.6034 0.0
H420 H 0.23958 0.25662 0.59313 0.0
H421 H 0.25138 0.22408 0.66636 0.0
C422 C 0.2481 0.26056 0.68522 0.0
C423 C 0.24594 0.28543 0.68311 0.0
C424 C 0.24706 0.23964 0.59541 0.0
C425 C 0.24713 0.25022 0.64111 0.0
C426 C 0.25357 0.22456 0.57484 0.0
C427 C 0.26406 0.20284 0.57725 0.0
C428 C 0.25104 0.23303 0.61867 0.0
C429 C 0.26686 0.19635 0.60069 0.0
C430 C 0.24877 0.24294 0.6643 0.0
C431 C 0.24305 0.29161 0.65956 0.0
N432 N 0.26056 0.21147 0.62052 0.0
N433 N 0.24392 0.2742 0.63951 0.0
H434 H 0.51584 0.54902 0.56948 0.0
H435 H 0.49531 0.50953 0.69997 0.0
H436 H 0.5375 0.48089 0.58888 0.0
H437 H 0.44814 0.55564 0.66751 0.0
H438 H 0.51548 0.50248 0.66166 0.0
H439 H 0.4955 0.55553 0.60769 0.0
C440 C 0.51631 0.53535 0.58164 0.0
C441 C 0.52842 0.51426 0.57567 0.0
C442 C 0.50062 0.51404 0.66292 0.0
C443 C 0.50555 0.52205 0.61988 0.0
C444 C 0.48904 0.51806 0.6848 0.0
C445 C 0.4698 0.53304 0.68697 0.0
C446 C 0.49329 0.52548 0.6432 0.0
C447 C 0.46276 0.54381 0.66665 0.0
C448 C 0.50475 0.53918 0.60353 0.0
C449 C 0.52884 0.49763 0.59268 0.0
N450 N 0.47461 0.53997 0.64569 0.0
N451 N 0.51765 0.50192 0.61398 0.0
H452 H 0.81939 0.23507 0.64145 0.0
H453 H 0.761 0.35035 0.59836 0.0
H454 H 0.81728 0.30406 0.68962 0.0
H455 H 0.77197 0.28383 0.55001 0.0
H456 H 0.77862 0.33308 0.63286 0.0
H457 H 0.79819 0.25158 0.60847 0.0
C458 C 0.81408 0.2536 0.64506 0.0
C459 C 0.81981 0.26829 0.66804 0.0
C460 C 0.7772 0.32235 0.61466 0.0
C461 C 0.79611 0.28753 0.63061 0.0
C462 C 0.76722 0.33222 0.59498 0.0
C463 C 0.76527 0.31864 0.57123 0.0
C464 C 0.78505 0.29869 0.61049 0.0
C465 C 0.77342 0.29516 0.56791 0.0
C466 C 0.80215 0.26311 0.62628 0.0
C467 C 0.81292 0.29223 0.672 0.0
N468 N 0.78291 0.28596 0.58728 0.0
N469 N 0.80147 0.30122 0.65339 0.0
H470 H 0.51865 0.01382 0.60778 0.0
H471 H 0.65519 0.99322 0.65838 0.0
H472 H 0.56687 0.96867 0.5673 0.0
H473 H 0.60192 0.02144 0.70679 0.0
H474 H 0.62326 0.98685 0.62441 0.0
H475 H 0.54916 0.01984 0.64382 0.0
C476 C 0.53561 0.00521 0.60649 0.0
C477 C 0.54012 0.99054 0.58458 0.0
C478 C 0.61841 0.99435 0.64244 0.0
C479 C 0.57497 -0.0026 0.62547 0.0
C480 C 0.63671 -0.00194 0.66191 0.0
C481 C 0.6313 0.00794 0.68554 0.0
C482 C 0.5944 0.00078 0.64635 0.0
C483 C 0.60689 0.01368 0.6889 0.0
C484 C 0.5529 0.00852 0.62705 0.0
C485 C 0.56238 0.97978 0.58389 0.0
N486 N 0.58935 0.01019 0.66946 0.0
N487 N 0.57891 0.98349 0.60393 0.0
H488 H 0.89477 0.263 0.78071 0.0
H489 H 0.946 0.19742 0.88646 0.0
H490 H 0.87002 0.18484 0.78222 0.0
H491 H 0.99278 0.25476 0.85748 0.0
H492 H 0.91472 0.19459 0.85182 0.0
H493 H 0.92774 0.26276 0.81262 0.0
C494 C 0.89629 0.24571 0.78752 0.0
C495 C 0.87951 0.22385 0.77848 0.0
C496 C 0.93196 0.2076 0.853 0.0
C497 C 0.91689 0.22381 0.81569 0.0
C498 C 0.94976 0.20927 0.87274 0.0
C499 C 0.97199 0.22638 0.87485 0.0
C500 C 0.93619 0.22358 0.83567 0.0
C501 C 0.97595 0.24125 0.85652 0.0
C502 C 0.9151 0.24567 0.80585 0.0
C503 C 0.88214 0.20227 0.78877 0.0
N504 N 0.95805 0.23975 0.83786 0.0
N505 N 0.90037 0.20284 0.80695 0.0
H506 H 0.48404 0.91357 0.53833 0.0
H507 H 0.5389 0.83142 0.42845 0.0
H508 H 0.51705 0.94569 0.47921 0.0
H509 H 0.48905 0.80069 0.47817 0.0
H510 H 0.53136 0.87341 0.44609 0.0
H511 H 0.48549 0.8719 0.51587 0.0
C512 C 0.49127 0.91176 0.52041 0.0
C513 C 0.5004 0.933 0.51056 0.0
C514 C 0.52194 0.8574 0.45294 0.0
C515 C 0.50267 0.88541 0.48489 0.0
C516 C 0.5263 0.83343 0.44294 0.0
C517 C 0.51478 0.81241 0.45193 0.0
C518 C 0.50616 0.86035 0.47219 0.0
C519 C 0.49852 0.81623 0.47067 0.0
C520 C 0.49214 0.888 0.50759 0.0
C521 C 0.50964 0.92971 0.48731 0.0
N522 N 0.49489 0.83965 0.48025 0.0
N523 N 0.51086 0.90633 0.47536 0.0
H524 H 0.18481 0.33816 0.79879 0.0
H525 H 0.08412 0.22838 0.83052 0.0
H526 H 0.18478 0.26044 0.77074 0.0
H527 H 0.09518 0.3037 0.86996 0.0
H528 H 0.11564 0.24102 0.80311 0.0
H529 H 0.14671 0.32698 0.81932 0.0
C530 C 0.1764 0.31876 0.79662 0.0
C531 C 0.18765 0.30014 0.7831 0.0
C532 C 0.11103 0.25483 0.81763 0.0
C533 C 0.14449 0.28714 0.80671 0.0
C534 C 0.09295 0.24766 0.83328 0.0
C535 C 0.08713 0.26496 0.85278 0.0
C536 C 0.12334 0.27951 0.82136 0.0
C537 C 0.09918 0.28969 0.85532 0.0
C538 C 0.15479 0.31237 0.80843 0.0
C539 C 0.17641 0.27527 0.78096 0.0
N540 N 0.11681 0.29619 0.83989 0.0
N541 N 0.15545 0.26943 0.7928 0.0
H542 H 0.54839 0.54941 0.43931 0.0
H543 H 0.52571 0.69243 0.46504 0.0
H544 H 0.51365 0.58114 0.50237 0.0
H545 H 0.56023 0.66039 0.40174 0.0
H546 H 0.52052 0.65184 0.47869 0.0
H547 H 0.55265 0.58994 0.42507 0.0
C548 C 0.54172 0.56505 0.45013 0.0
C549 C 0.53072 0.56223 0.47195 0.0
C550 C 0.52915 0.65365 0.46177 0.0
C551 C 0.53537 0.60844 0.45593 0.0
C552 C 0.53203 0.67683 0.45388 0.0
C553 C 0.54332 0.67983 0.43212 0.0
C554 C 0.53768 0.63326 0.44784 0.0
C555 C 0.55139 0.65896 0.41861 0.0
C556 C 0.5441 0.58812 0.44202 0.0
C557 C 0.52227 0.5828 0.48541 0.0
N558 N 0.54844 0.63659 0.42671 0.0
N559 N 0.52477 0.60511 0.47717 0.0
H560 H 0.81674 0.7669 0.72547 0.0
H561 H 0.95784 0.74385 0.71246 0.0
H562 H 0.86739 0.76949 0.78946 0.0
H563 H 0.9172 0.77774 0.66028 0.0
H564 H 0.92415 0.74887 0.74022 0.0
H565 H 0.85234 0.76656 0.70042 0.0
C566 C 0.83529 0.76775 0.73447 0.0
C567 C 0.83877 0.76852 0.75994 0.0
C568 C 0.9228 0.75545 0.7228 0.0
C569 C 0.87984 0.76714 0.73072 0.0
C570 C 0.94199 0.75261 0.70699 0.0
C571 C 0.94046 0.76053 0.68415 0.0
C572 C 0.9016 0.76572 0.7154 0.0
C573 C 0.91935 0.77155 0.6778 0.0
C574 C 0.85566 0.76736 0.71998 0.0
C575 C 0.86346 0.76857 0.76999 0.0
N576 N 0.90066 0.77353 0.69321 0.0
N577 N 0.88297 0.76772 0.75537 0.0
H578 H 0.00542 0.94487 0.57061 0.0
H579 H 0.05125 0.81076 0.56188 0.0
H580 H 0.05895 0.91963 0.52124 0.0
H581 H 0.99325 0.83309 0.60753 0.0
H582 H 0.05782 0.85231 0.55064 0.0
H583 H 0.00421 0.9061 0.58798 0.0
C584 C 0.01722 0.93125 0.56374 0.0
C585 C 0.03241 0.93532 0.54465 0.0
C586 C 0.04376 0.84823 0.56325 0.0
C587 C 0.03093 0.89088 0.56407 0.0
C588 C 0.03998 0.82444 0.56974 0.0
C589 C 0.02146 0.81819 0.58556 0.0
C590 C 0.02892 0.86613 0.57252 0.0
C591 C 0.00767 0.83693 0.59524 0.0
C592 C 0.01645 0.9091 0.57355 0.0
C593 C 0.04713 0.91713 0.53609 0.0
N594 N 0.01154 0.85997 0.58841 0.0
N595 N 0.04594 0.89562 0.54579 0.0
H596 H 0.11805 0.68424 0.74704 0.0
H597 H 0.09014 0.74694 0.62983 0.0
H598 H 0.17572 0.71814 0.70682 0.0
H599 H 0.0321 0.72588 0.67642 0.0
H600 H 0.12173 0.73895 0.6597 0.0
H601 H 0.08634 0.70172 0.72373 0.0
C602 C 0.12402 0.69586 0.73365 0.0
C603 C 0.14938 0.69998 0.72879 0.0
C604 C 0.10214 0.73628 0.66361 0.0
C605 C 0.11344 0.71946 0.7018 0.0
C606 C 0.08404 0.7408 0.64648 0.0
C607 C 0.05837 0.73685 0.65049 0.0
C608 C 0.09465 0.72733 0.68488 0.0
C609 C 0.05167 0.72913 0.67256 0.0
C610 C 0.10597 0.70573 0.72031 0.0
C611 C 0.15629 0.71474 0.71111 0.0
N612 N 0.06967 0.72427 0.68879 0.0
N613 N 0.13839 0.72375 0.69808 0.0
H614 H 0.92437 0.56456 0.49644 0.0
H615 H 0.01409 0.68712 0.55882 0.0
H616 H 0.00484 0.56496 0.50457 0.0
H617 H 0.94189 0.66434 0.58484 0.0
H618 H 0.0105 0.64629 0.53241 0.0
H619 H 0.92979 0.60552 0.52193 0.0
C620 C 0.9432 0.57309 0.50355 0.0
C621 C 0.96412 0.56076 0.49859 0.0
C622 C 0.99554 0.6503 0.544 0.0
C623 C 0.97039 0.60836 0.52723 0.0
C624 C -0.00247 0.67357 0.55902 0.0
C625 C 0.97827 0.67912 0.57409 0.0
C626 C 0.97382 0.63282 0.54358 0.0
C627 C 0.95726 0.66079 0.57366 0.0
C628 C 0.94623 0.5966 0.51803 0.0
C629 C 0.98811 0.57358 0.50767 0.0
N630 N 0.95546 0.6386 0.55844 0.0
N631 N 0.99059 0.59666 0.52154 0.0
H632 H 0.7651 0.89886 0.21333 0.0
H633 H 0.91531 0.92894 0.22661 0.0
H634 H 0.81401 0.8434 0.21991 0.0
H635 H 0.86736 0.98635 0.23611 0.0
H636 H 0.87812 0.89734 0.22099 0.0
H637 H 0.80201 0.9311 0.21911 0.0
C638 C 0.78354 0.89343 0.21616 0.0
C639 C 0.78635 0.86826 0.21613 0.0
C640 C 0.8757 0.91684 0.22432 0.0
C641 C 0.82877 0.90515 0.22231 0.0
C642 C 0.89696 0.93496 0.22744 0.0
C643 C 0.89454 0.96044 0.23186 0.0
C644 C 0.85169 0.92412 0.22543 0.0
C645 C 0.87018 0.96697 0.2328 0.0
C646 C 0.80463 0.91187 0.21932 0.0
C647 C 0.81085 0.86242 0.21941 0.0
N648 N 0.8497 0.94893 0.22956 0.0
N649 N 0.83105 0.88068 0.22231 0.0
H650 H 0.77255 0.14071 0.30631 0.0
H651 H 0.8977 0.11967 0.23994 0.0
H652 H 0.79216 0.1696 0.24069 0.0
H653 H 0.86801 0.07161 0.28962 0.0
H654 H 0.86137 0.14157 0.24402 0.0
H655 H 0.80933 0.11842 0.30415 0.0
C656 C 0.78461 0.14239 0.29149 0.0
C657 C 0.77923 0.15698 0.27359 0.0
C658 C 0.86274 0.12626 0.25407 0.0
C659 C 0.82132 0.13172 0.27114 0.0
C660 C 0.8836 0.11374 0.25185 0.0
C661 C 0.88596 0.09364 0.26441 0.0
C662 C 0.844 0.1189 0.26915 0.0
C663 C 0.86694 0.08694 0.27954 0.0
C664 C 0.80549 0.12959 0.29022 0.0
C665 C 0.7954 0.15837 0.25471 0.0
N666 N 0.84675 0.09958 0.28154 0.0
N667 N 0.81571 0.14604 0.25407 0.0
H668 H 0.38542 0.00259 0.98885 0.0
H669 H 0.34842 0.86207 0.01256 0.0
H670 H 0.436 0.94756 0.98448 0.0
H671 H 0.29331 0.91172 0.00595 0.0
H672 H 0.38136 0.89516 0.00686 0.0
H673 H 0.35226 0.97154 -0.00048 0.0
C674 C 0.3896 0.98406 0.99035 0.0
C675 C 0.41347 0.9776 0.98561 0.0
C676 C 0.36209 0.89892 0.00671 0.0
C677 C 0.37567 0.94204 -0.00228 0.0
C678 C 0.34317 0.87998 0.01002 0.0
C679 C 0.31789 0.88395 0.00956 0.0
C680 C 0.3559 0.92219 0.00289 0.0
C681 C 0.31249 0.90773 0.00634 0.0
C682 C 0.37064 0.96633 -0.0037 0.0
C683 C 0.4178 0.95326 0.98762 0.0
N684 N 0.33133 0.92593 0.00302 0.0
N685 N 0.39912 0.93642 0.99349 0.0
H686 H 0.22847 0.32567 0.29846 0.0
H687 H 0.22406 0.43589 0.21898 0.0
H688 H 0.26479 0.32938 0.23168 0.0
H689 H 0.18851 0.43549 0.28677 0.0
H690 H 0.23755 0.39609 0.22308 0.0
H691 H 0.2129 0.3653 0.29474 0.0
C692 C 0.23329 0.33503 0.28314 0.0
C693 C 0.24801 0.32459 0.26542 0.0
C694 C 0.22674 0.40457 0.23708 0.0
C695 C 0.23014 0.36945 0.26082 0.0
C696 C 0.21893 0.42738 0.23474 0.0
C697 C 0.2052 0.43927 0.25265 0.0
C698 C 0.22093 0.3933 0.25754 0.0
C699 C 0.19903 0.42705 0.27251 0.0
C700 C 0.22435 0.35752 0.28095 0.0
C701 C 0.25361 0.33706 0.24578 0.0
N702 N 0.20707 0.40479 0.27449 0.0
N703 N 0.24466 0.35883 0.24398 0.0
H704 H 0.09263 0.04388 0.53184 0.0
H705 H 0.22828 0.09131 0.48953 0.0
H706 H 0.12006 0.00834 0.46591 0.0
H707 H 0.18233 0.13929 0.52978 0.0
H708 H 0.19396 0.0561 0.48743 0.0
H709 H 0.13143 0.07392 0.53875 0.0
C710 C 0.1071 0.04201 0.51916 0.0
C711 C 0.10309 0.02366 0.49823 0.0
C712 C 0.19158 0.07436 0.49682 0.0
C713 C 0.14739 0.0581 0.50589 0.0
C714 C 0.21111 0.09439 0.49806 0.0
C715 C 0.20803 0.11831 0.5096 0.0
C716 C 0.1692 0.07823 0.50778 0.0
C717 C 0.1854 0.12126 0.5204 0.0
C718 C 0.12911 0.0593 0.52297 0.0
C719 C 0.12237 0.02234 0.48219 0.0
N720 N 0.16695 0.1015 0.51929 0.0
N721 N 0.14366 0.03941 0.48628 0.0
H722 H 0.79932 0.1706 0.70043 0.0
H723 H 0.68821 0.1126 0.77398 0.0
H724 H 0.78376 0.20405 0.77235 0.0
H725 H 0.72645 0.06818 0.72119 0.0
H726 H 0.71516 0.15011 0.76663 0.0
H727 H 0.76437 0.13686 0.70105 0.0
C728 C 0.78813 0.1711 0.71608 0.0
C729 C 0.79438 0.18996 0.73641 0.0
C730 C 0.71738 0.13214 0.75646 0.0
C731 C 0.75464 0.15167 0.73727 0.0
C732 C 0.70197 0.11074 0.76055 0.0
C733 C 0.70527 0.08715 0.74837 0.0
C734 C 0.73593 0.12994 0.73979 0.0
C735 C 0.72342 0.08588 0.73121 0.0
C736 C 0.76838 0.15182 0.7165 0.0
C737 C 0.77954 0.18971 0.75638 0.0
N738 N 0.73814 0.10697 0.72748 0.0
N739 N 0.7604 0.17079 0.75637 0.0
H740 H 0.43031 0.02536 0.48787 0.0
H741 H 0.36914 0.13717 0.56063 0.0
H742 H 0.45826 0.06484 0.55937 0.0
H743 H 0.33612 0.09583 0.49121 0.0
H744 H 0.40087 0.10957 0.56056 0.0
H745 H 0.39463 0.04927 0.48889 0.0
C746 C 0.42865 0.03885 0.5039 0.0
C747 C 0.44696 0.04319 0.52365 0.0
C748 C 0.38669 0.10637 0.54533 0.0
C749 C 0.40672 0.07073 0.52485 0.0
C750 C 0.3685 0.12222 0.54531 0.0
C751 C 0.34991 0.11895 0.52581 0.0
C752 C 0.3866 0.08701 0.52563 0.0
C753 C 0.3501 0.09908 0.5066 0.0
C754 C 0.40841 0.05253 0.50446 0.0
C755 C 0.44434 0.06094 0.54388 0.0
N756 N 0.36826 0.08393 0.50692 0.0
N757 N 0.42467 0.07415 0.54392 0.0
H758 H 0.57731 0.45213 0.49134 0.0
H759 H 0.71149 0.43349 0.55025 0.0
H760 H 0.61457 0.49805 0.55688 0.0
H761 H 0.67348 0.38701 0.48533 0.0
H762 H 0.67758 0.45905 0.55146 0.0
H763 H 0.61346 0.42966 0.4876 0.0
C764 C 0.59318 0.45764 0.50486 0.0
C765 C 0.59286 0.47709 0.52444 0.0
C766 C 0.67672 0.44336 0.53685 0.0
C767 C 0.63436 0.45114 0.52039 0.0
C768 C 0.69615 0.42878 0.53608 0.0
C769 C 0.69531 0.40793 0.51772 0.0
C770 C 0.65621 0.4371 0.51915 0.0
C771 C 0.67493 0.40283 0.49986 0.0
C772 C 0.6138 0.44469 0.50277 0.0
C773 C 0.61384 0.48303 0.54164 0.0
N774 N 0.65614 0.4172 0.50112 0.0
N775 N 0.63371 0.4701 0.53921 0.0
H776 H 0.72866 0.1835 0.34128 0.0
H777 H 0.72902 0.31927 0.41945 0.0
H778 H 0.72561 0.2488 0.30709 0.0
H779 H 0.74059 0.25275 0.44885 0.0
H780 H 0.72113 0.29393 0.37822 0.0
H781 H 0.72601 0.20855 0.38091 0.0
C782 C 0.72731 0.20317 0.34217 0.0
C783 C 0.72772 0.21417 0.32098 0.0
C784 C 0.72515 0.28496 0.39382 0.0
C785 C 0.7249 0.24327 0.36646 0.0
C786 C 0.72953 0.29936 0.41727 0.0
C787 C 0.73582 0.28812 0.43747 0.0
C788 C 0.72677 0.25923 0.39085 0.0
C789 C 0.73626 0.26229 0.43374 0.0
C790 C 0.72576 0.21752 0.36481 0.0
C791 C 0.72543 0.23967 0.32309 0.0
N792 N 0.73193 0.24884 0.41099 0.0
N793 N 0.72445 0.25349 0.34552 0.0
H794 H 0.49296 0.00255 0.87015 0.0
H795 H 0.64043 0.0403 0.85822 0.0
H796 H 0.54711 0.02718 0.93215 0.0
H797 H 0.58806 0.00436 0.79738 0.0
H798 H 0.60606 0.03913 0.88506 0.0
H799 H 0.52686 0.00744 0.84275 0.0
C800 C 0.512 0.00951 0.87791 0.0
C801 C 0.51739 0.0148 0.90329 0.0
C802 C 0.60205 0.03147 0.86586 0.0
C803 C 0.55628 0.01989 0.87225 0.0
C804 C 0.62169 0.0321 0.85047 0.0
C805 C 0.61718 0.02234 0.82545 0.0
C806 C 0.57756 0.02115 0.85623 0.0
C807 C 0.59246 0.01199 0.81654 0.0
C808 C 0.53135 0.01207 0.86232 0.0
C809 C 0.54229 0.02325 0.9126 0.0
N810 N 0.57358 0.01171 0.8319 0.0
N811 N 0.56088 0.02548 0.89706 0.0
H812 H 0.27775 0.27024 0.34975 0.0
H813 H 0.30945 0.17311 0.43657 0.0
H814 H 0.32334 0.21342 0.32591 0.0
H815 H 0.24506 0.21249 0.44087 0.0
H816 H 0.31846 0.18893 0.39819 0.0
H817 H 0.27031 0.25179 0.3863 0.0
C818 C 0.28617 0.25379 0.35213 0.0
C819 C 0.30082 0.24314 0.33437 0.0
C820 C 0.30228 0.19385 0.40754 0.0
C821 C 0.29257 0.22194 0.37678 0.0
C822 C 0.29705 0.18476 0.42938 0.0
C823 C 0.27655 0.19158 0.44221 0.0
C824 C 0.28707 0.21007 0.39872 0.0
C825 C 0.2612 0.20682 0.43194 0.0
C826 C 0.28192 0.24325 0.37311 0.0
C827 C 0.3119 0.22227 0.33906 0.0
N828 N 0.26692 0.21566 0.41108 0.0
N829 N 0.30749 0.21227 0.3598 0.0
H830 H 0.50648 0.46507 0.92662 0.0
H831 H 0.46847 0.55712 0.83586 0.0
H832 H 0.53261 0.54422 0.94072 0.0
H833 H 0.47291 0.47918 0.81252 0.0
H834 H 0.48313 0.55268 0.87768 0.0
H835 H 0.48524 0.47008 0.88778 0.0
C836 C 0.50754 0.48353 0.92162 0.0
C837 C 0.52148 0.50422 0.93678 0.0
C838 C 0.48061 0.53655 0.86339 0.0
C839 C 0.4971 0.51013 0.89252 0.0
C840 C 0.47208 0.53903 0.83964 0.0
C841 C 0.46965 0.51852 0.82074 0.0
C842 C 0.48618 0.51331 0.86822 0.0
C843 C 0.47476 0.49552 0.82653 0.0
C844 C 0.49552 0.48637 0.89945 0.0
C845 C 0.52233 0.52774 0.92937 0.0
N846 N 0.48276 0.49353 0.84971 0.0
N847 N 0.5103 0.53008 0.90776 0.0
H848 H 0.78011 0.77508 0.19479 0.0
H849 H 0.78688 0.67652 0.10077 0.0
H850 H 0.71221 0.78501 0.15459 0.0
H851 H 0.74747 0.72092 0.05787 0.0
H852 H 0.77667 0.70208 0.13805 0.0
H853 H 0.78592 0.74107 0.16254 0.0
C854 C 0.76612 0.76966 0.17939 0.0
C855 C 0.74562 0.78279 0.17735 0.0
C856 C 0.77031 0.70622 0.12045 0.0
C857 C 0.7521 0.74393 0.14031 0.0
C858 C 0.77594 0.6915 0.09915 0.0
C859 C 0.76818 0.69664 0.07607 0.0
C860 C 0.75674 0.72618 0.11865 0.0
C861 C 0.75393 0.71622 0.07515 0.0
C862 C 0.76934 0.75014 0.16105 0.0
C863 C 0.72813 0.77519 0.15697 0.0
N864 N 0.7487 0.73025 0.09609 0.0
N865 N 0.73202 0.75657 0.13901 0.0
H866 H 0.01622 0.0491 0.07129 0.0
H867 H 0.99587 0.00466 0.19965 0.0
H868 H 0.03733 0.9799 0.08842 0.0
H869 H 0.94966 0.0537 0.17063 0.0
H870 H 0.01516 -0.00137 0.1609 0.0
H871 H 0.99563 0.05441 0.1095 0.0
C872 C 0.01651 0.03495 0.08295 0.0
C873 C 0.02863 0.01397 0.0764 0.0
C874 C 0.00067 0.01058 0.16296 0.0
C875 C 0.00545 0.02033 0.12054 0.0
C876 C 0.98956 0.014 0.18511 0.0
C877 C 0.97086 0.02951 0.18841 0.0
C878 C 0.99344 0.02313 0.14404 0.0
C879 C 0.96385 0.04142 0.16887 0.0
C880 C 0.00479 0.03809 0.10482 0.0
C881 C 0.02874 -0.00337 0.09271 0.0
N882 N 0.97527 0.03812 0.14758 0.0
N883 N 0.01743 0.00025 0.114 0.0
H884 H 0.29148 0.80637 0.19873 0.0
H885 H 0.2742 0.78596 0.05231 0.0
H886 H 0.31912 0.74711 0.15253 0.0
H887 H 0.25063 0.84788 0.09869 0.0
H888 H 0.28918 0.77042 0.08866 0.0
H889 H 0.27398 0.82037 0.16225 0.0
C890 C 0.29348 0.79613 0.18082 0.0
C891 C 0.30645 0.77554 0.17838 0.0
C892 C 0.28079 0.78744 0.0909 0.0
C893 C 0.28706 0.79155 0.13671 0.0
C894 C 0.27234 0.79642 0.07012 0.0
C895 C 0.26131 0.81839 0.07242 0.0
C896 C 0.27811 0.80045 0.11421 0.0
C897 C 0.2591 0.83093 0.09603 0.0
C898 C 0.28367 0.80418 0.16003 0.0
C899 C 0.30898 0.76299 0.15497 0.0
N900 N 0.26742 0.82178 0.11599 0.0
N901 N 0.29942 0.77124 0.13496 0.0
H902 H 0.06555 0.46641 0.07205 0.0
H903 H 0.10494 0.51087 0.21501 0.0
H904 H 0.01883 0.50579 0.12027 0.0
H905 H 0.15582 0.48643 0.16203 0.0
H906 H 0.07138 0.50519 0.18187 0.0
H907 H 0.09707 0.46968 0.10619 0.0
C908 C 0.06184 0.47561 0.08989 0.0
C909 C 0.03948 0.4858 0.09331 0.0
C910 C 0.0899 0.50104 0.17759 0.0
C911 C 0.07569 0.48979 0.13259 0.0
C912 C 0.10902 0.50414 0.19649 0.0
C913 C 0.1333 0.49924 0.19131 0.0
C914 C 0.09506 0.49271 0.15341 0.0
C915 C 0.13749 0.49064 0.16694 0.0
C916 C 0.07993 0.47761 0.10937 0.0
C917 C 0.03591 0.49786 0.11679 0.0
N918 N 0.11862 0.48767 0.14898 0.0
N919 N 0.0538 0.49948 0.13558 0.0
H920 H 0.40549 0.73627 0.256 0.0
H921 H 0.44084 0.70622 0.38945 0.0
H922 H 0.35166 0.70299 0.30072 0.0
H923 H 0.49566 0.73746 0.34434 0.0
H924 H 0.40836 0.70301 0.35619 0.0
H925 H 0.43912 0.73543 0.28736 0.0
C926 C 0.40075 0.72881 0.27242 0.0
C927 C 0.37571 0.71974 0.27576 0.0
C928 C 0.42752 0.71044 0.3535 0.0
C929 C 0.4141 0.71858 0.31166 0.0
C930 C 0.44613 0.71228 0.37251 0.0
C931 C 0.47107 0.72228 0.36981 0.0
C932 C 0.43378 0.71876 0.33159 0.0
C933 C 0.47671 0.72969 0.34733 0.0
C934 C 0.41997 0.7282 0.29026 0.0
C935 C 0.37071 0.70994 0.29724 0.0
N936 N 0.45818 0.72793 0.32915 0.0
N937 N 0.3897 0.70973 0.31439 0.0
H938 H 0.01262 0.45057 0.98968 0.0
H939 H 0.9781 0.30255 0.98135 0.0
H940 H 0.97318 0.41462 0.04317 0.0
H941 H 0.03429 0.33655 0.93926 0.0
H942 H 0.96929 0.34381 -0.00172 0.0
H943 H 0.01356 0.40934 0.96517 0.0
C944 C 0.00351 0.43399 -0.00417 0.0
C945 C 0.99261 0.43581 0.01827 0.0
C946 C 0.98345 0.34228 0.98523 0.0
C947 C 0.99397 0.38888 0.99079 0.0
C948 C 0.98854 0.31866 0.9755 0.0
C949 C 0.00725 0.31596 0.95903 0.0
C950 C -0.00292 0.36356 0.9785 0.0
C951 C 0.01988 0.33768 0.95206 0.0
C952 C 0.00428 0.41053 0.98204 0.0
C953 C 0.98156 0.41388 0.02584 0.0
N954 N 0.01468 0.36059 0.96196 0.0
N955 N 0.98261 0.39133 0.01219 0.0
H956 H 0.63599 0.83081 0.25208 0.0
H957 H 0.63253 0.74389 0.35617 0.0
H958 H 0.69542 0.78909 0.26861 0.0
H959 H 0.57463 0.78877 0.34282 0.0
H960 H 0.65427 0.75802 0.32233 0.0
H961 H 0.61152 0.81308 0.28296 0.0
C962 C 0.64364 0.81758 0.26203 0.0
C963 C 0.66752 0.81115 0.25787 0.0
C964 C 0.6368 0.76477 0.32674 0.0
C965 C 0.64005 0.79117 0.29336 0.0
C966 C 0.62434 0.75673 0.34612 0.0
C967 C 0.60173 0.76525 0.35248 0.0
C968 C 0.62665 0.78151 0.31348 0.0
C969 C 0.59205 0.7818 0.33866 0.0
C970 C 0.62979 0.80758 0.27971 0.0
C971 C 0.67692 0.79427 0.27129 0.0
N972 N 0.60459 0.78943 0.31985 0.0
N973 N 0.66318 0.7849 0.28854 0.0
H974 H 0.05168 0.05522 0.9442 0.0
H975 H 0.02136 0.19569 0.97197 0.0
H976 H 0.01088 0.08209 0.0049 0.0
H977 H 0.06186 0.16797 0.91115 0.0
H978 H 0.01664 0.1543 0.98405 0.0
H979 H 0.05528 0.09651 0.93167 0.0
C980 C 0.04352 0.06996 0.95486 0.0
C981 C 0.03102 0.06555 0.97553 0.0
C982 C 0.02648 0.15725 0.96801 0.0
C983 C 0.03491 0.11265 0.96144 0.0
C984 C 0.02911 0.18088 0.96104 0.0
C985 C 0.04196 0.18532 0.94045 0.0
C986 C 0.03683 0.1379 0.95434 0.0
C987 C 0.0518 0.16543 0.92714 0.0
C988 C 0.04553 0.09347 0.94774 0.0
C989 C 0.02069 0.08499 0.98883 0.0
N990 N 0.04906 0.14263 0.93433 0.0
N991 N 0.02286 0.10779 0.98155 0.0
H992 H 0.34813 0.30089 0.2514 0.0
H993 H 0.45491 0.22228 0.20081 0.0
H994 H 0.35988 0.23005 0.2718 0.0
H995 H 0.43894 0.28912 0.17431 0.0
H996 H 0.42349 0.22771 0.23041 0.0
H997 H 0.38411 0.29944 0.22647 0.0
C998 C 0.35827 0.28503 0.25073 0.0
C999 C 0.35067 0.26545 0.26367 0.0
C1000 C 0.42695 0.24132 0.21827 0.0
C1001 C 0.39226 0.26384 0.23519 0.0
C1002 C 0.44499 0.23828 0.20135 0.0
C1003 C 0.44954 0.25518 0.18484 0.0
C1004 C 0.41318 0.26141 0.21882 0.0
C1005 C 0.43607 0.27558 0.18659 0.0
C1006 C 0.37892 0.2843 0.23653 0.0
C1007 C 0.36502 0.2457 0.26239 0.0
N1008 N 0.41839 0.27802 0.20312 0.0
N1009 N 0.38494 0.24534 0.24832 0.0
H1010 H 0.50737 0.44542 0.06846 0.0
H1011 H 0.55688 0.31346 0.06362 0.0
H1012 H 0.56129 0.42005 0.01962 0.0
H1013 H 0.49751 0.33497 0.10782 0.0
H1014 H 0.56307 0.35488 0.05211 0.0
H1015 H 0.50789 0.40789 0.08764 0.0
C1016 C 0.51971 0.43211 0.06216 0.0
C1017 C 0.53445 0.43573 0.04264 0.0
C1018 C 0.54882 0.35068 0.06448 0.0
C1019 C 0.53485 0.39265 0.06406 0.0
C1020 C 0.54524 0.32696 0.07113 0.0
C1021 C 0.52639 0.32049 0.08654 0.0
C1022 C 0.53341 0.36827 0.07317 0.0
C1023 C 0.51218 0.33901 0.09583 0.0
C1024 C 0.5199 0.41065 0.07298 0.0
C1025 C 0.54983 0.41792 0.0348 0.0
N1026 N 0.51581 0.36196 0.0888 0.0
N1027 N 0.54953 0.39705 0.04544 0.0
H1028 H 0.69052 0.23254 0.20032 0.0
H1029 H 0.54134 0.22607 0.17394 0.0
H1030 H 0.6369 0.18696 0.23553 0.0
H1031 H 0.59669 0.25019 0.12593 0.0
H1032 H 0.57562 0.2195 0.20256 0.0
H1033 H 0.65572 0.24763 0.17929 0.0
C1034 C 0.67135 0.22617 0.20398 0.0
C1035 C 0.66638 0.20865 0.21961 0.0
C1036 C 0.58017 0.22646 0.18585 0.0
C1037 C 0.62653 0.22533 0.19539 0.0
C1038 C 0.56066 0.2303 0.16959 0.0
C1039 C 0.56616 0.23844 0.1474 0.0
C1040 C 0.60528 0.23122 0.18002 0.0
C1041 C 0.59154 0.24358 0.14265 0.0
C1042 C 0.65151 0.23461 0.19188 0.0
C1043 C 0.64132 0.20064 0.22363 0.0
N1044 N 0.61007 0.23986 0.15875 0.0
N1045 N 0.62222 0.20891 0.21143 0.0
H1046 H 0.42268 0.06634 0.00117 0.0
H1047 H 0.51481 0.19099 0.05235 0.0
H1048 H 0.5025 0.06947 0.99363 0.0
H1049 H 0.45003 0.16493 0.08883 0.0
H1050 H 0.50932 0.15045 0.02516 0.0
H1051 H 0.43071 0.107 0.02708 0.0
C1052 C 0.44195 0.07546 0.00497 0.0
C1053 C 0.46199 0.06398 -0.00443 0.0
C1054 C 0.49647 0.15369 0.03925 0.0
C1055 C 0.47115 0.11121 0.02483 0.0
C1056 C 0.49954 0.17678 0.05473 0.0
C1057 C 0.48286 0.18137 0.07294 0.0
C1058 C 0.47619 0.13541 0.0416 0.0
C1059 C 0.46341 0.16222 0.07517 0.0
C1060 C 0.44646 0.09878 0.01973 0.0
C1061 C 0.48643 0.07746 0.00043 0.0
N1062 N 0.46045 0.14024 0.05953 0.0
N1063 N 0.49035 0.10038 0.01478 0.0
H1064 H 0.27733 0.38154 0.69899 0.0
H1065 H 0.41999 0.43543 0.74176 0.0
H1066 H 0.31985 0.35308 0.75402 0.0
H1067 H 0.36792 0.48433 0.72289 0.0
H1068 H 0.38495 0.40152 0.73871 0.0
H1069 H 0.31193 0.41633 0.70033 0.0
C1070 C 0.29399 0.38265 0.71127 0.0
C1071 C 0.29585 0.36463 0.7265 0.0
C1072 C 0.38122 0.41966 0.73517 0.0
C1073 C 0.33528 0.4037 0.7278 0.0
C1074 C 0.4012 0.439 0.73676 0.0
C1075 C 0.39686 0.46278 0.7326 0.0
C1076 C 0.35673 0.42391 0.72892 0.0
C1077 C 0.37205 0.46631 0.72635 0.0
C1078 C 0.31356 0.40245 0.7121 0.0
C1079 C 0.3177 0.36675 0.74213 0.0
N1080 N 0.35286 0.447 0.72455 0.0
N1081 N 0.33667 0.38583 0.74224 0.0
H1082 H 0.27273 0.64849 0.81203 0.0
H1083 H 0.37437 0.60577 0.72148 0.0
H1084 H 0.26823 0.65346 0.7351 0.0
H1085 H 0.36741 0.57946 0.79063 0.0
H1086 H 0.33723 0.62606 0.72792 0.0
H1087 H 0.3089 0.62574 0.80628 0.0
C1088 C 0.27933 0.64478 0.79394 0.0
C1089 C 0.26742 0.6529 0.77399 0.0
C1090 C 0.34371 0.61581 0.7417 0.0
C1091 C 0.30879 0.62703 0.76736 0.0
C1092 C 0.36504 0.60426 0.73809 0.0
C1093 C 0.37411 0.59088 0.75556 0.0
C1094 C 0.3313 0.61433 0.76311 0.0
C1095 C 0.36105 0.58954 0.77666 0.0
C1096 C 0.29986 0.63169 0.79067 0.0
C1097 C 0.27663 0.64737 0.75094 0.0
N1098 N 0.34037 0.60127 0.77994 0.0
N1099 N 0.29681 0.63498 0.74832 0.0
H1100 H 0.90833 0.49147 0.51918 0.0
H1101 H 0.83515 0.35612 0.4756 0.0
H1102 H 0.9125 0.45172 0.4464 0.0
H1103 H 0.8001 0.41049 0.5212 0.0
H1104 H 0.86804 0.38936 0.46905 0.0
H1105 H 0.87225 0.46083 0.52437 0.0
C1106 C 0.90166 0.47656 0.50418 0.0
C1107 C 0.91388 0.47424 0.48234 0.0
C1108 C 0.85309 0.39403 0.48041 0.0
C1109 C 0.873 0.43872 0.48864 0.0
C1110 C 0.8344 0.37508 0.48425 0.0
C1111 C 0.81487 0.38058 0.49895 0.0
C1112 C 0.85269 0.41861 0.49185 0.0
C1113 C 0.81476 0.40551 0.50963 0.0
C1114 C 0.8811 0.45902 0.50727 0.0
C1115 C 0.90437 0.45408 0.46384 0.0
N1116 N 0.8336 0.42363 0.50612 0.0
N1117 N 0.88478 0.437 0.46753 0.0
H1118 H 0.72221 0.83714 0.79984 0.0
H1119 H 0.72466 0.94628 0.71829 0.0
H1120 H 0.76092 0.83765 0.73407 0.0
H1121 H 0.68204 0.94441 0.78176 0.0
H1122 H 0.73797 0.90664 0.72393 0.0
H1123 H 0.70791 0.87677 0.79418 0.0
C1124 C 0.72787 0.84584 0.78433 0.0
C1125 C 0.74287 0.83446 0.76748 0.0
C1126 C 0.72563 0.91479 0.7366 0.0
C1127 C 0.72639 0.87942 0.76064 0.0
C1128 C 0.71794 0.93749 0.73339 0.0
C1129 C 0.70221 0.94888 0.74964 0.0
C1130 C 0.7177 0.90322 0.75631 0.0
C1131 C 0.69411 0.93638 0.76875 0.0
C1132 C 0.71961 0.86833 0.78102 0.0
C1133 C 0.74952 0.84609 0.74754 0.0
N1134 N 0.70206 0.9143 0.77163 0.0
N1135 N 0.74123 0.86797 0.74465 0.0
H1136 H 0.61444 0.50916 0.95995 0.0
H1137 H 0.6819 0.63862 0.03029 0.0
H1138 H 0.59081 0.54295 0.02849 0.0
H1139 H 0.72372 0.58967 0.98578 0.0
H1140 H 0.64738 0.60435 0.02799 0.0
H1141 H 0.65403 0.53829 0.96739 0.0
C1142 C 0.61784 0.52243 0.97677 0.0
C1143 C 0.59937 0.5237 0.99365 0.0
C1144 C 0.66416 0.601 0.01887 0.0
C1145 C 0.64419 0.55737 0.00194 0.0
C1146 C 0.68382 0.62061 0.02 0.0
C1147 C 0.70566 0.61705 0.00803 0.0
C1148 C 0.66598 0.57768 0.0052 0.0
C1149 C 0.7072 0.59321 -0.00476 0.0
C1150 C 0.64038 0.539 0.981 0.0
C1151 C 0.60462 0.54125 0.01511 0.0
N1152 N 0.68743 0.57447 0.99383 0.0
N1153 N 0.62634 0.55768 0.01845 0.0
H1154 H 0.31807 0.65394 0.21642 0.0
H1155 H 0.18583 0.60284 0.26197 0.0
H1156 H 0.26537 0.70225 0.24319 0.0
H1157 H 0.2393 0.55645 0.23267 0.0
H1158 H 0.2116 0.63917 0.25055 0.0
H1159 H 0.28623 0.61775 0.21667 0.0
C1160 C 0.29952 0.65685 0.22188 0.0
C1161 C 0.29426 0.68097 0.22986 0.0
C1162 C 0.21746 0.62095 0.24632 0.0
C1163 C 0.25788 0.63969 0.23092 0.0
C1164 C 0.20277 0.60021 0.25285 0.0
C1165 C 0.21043 0.57652 0.24837 0.0
C1166 C 0.23998 0.61795 0.23531 0.0
C1167 C 0.23254 0.57423 0.23648 0.0
C1168 C 0.28137 0.63622 0.22215 0.0
C1169 C 0.27003 0.68387 0.23682 0.0
N1170 N 0.24657 0.59466 0.23056 0.0
N1171 N 0.2528 0.66341 0.23757 0.0
H1172 H 0.91249 0.51187 0.05056 0.0
H1173 H 0.84694 0.60887 0.98322 0.0
H1174 H 0.9479 0.55244 -0.00205 0.0
H1175 H 0.81395 0.57168 0.03951 0.0
H1176 H 0.88102 0.58343 0.98342 0.0
H1177 H 0.87332 0.52838 0.04174 0.0
C1178 C 0.91174 0.5238 0.03671 0.0
C1179 C 0.93317 0.53075 0.0248 0.0
C1180 C 0.86617 0.58064 -0.00447 0.0
C1181 C 0.88886 0.5502 0.015 0.0
C1182 C 0.84664 0.59513 -0.00462 0.0
C1183 C 0.82765 0.59265 0.01158 0.0
C1184 C 0.86677 0.56353 0.012 0.0
C1185 C 0.82827 0.57445 0.02686 0.0
C1186 C 0.88948 0.53337 0.03178 0.0
C1187 C 0.93156 0.54655 0.00732 0.0
N1188 N 0.8476 0.56079 0.02685 0.0
N1189 N 0.90983 0.55595 0.00308 0.0
H1190 H 0.07908 0.95423 0.99154 0.0
H1191 H 0.21223 0.93445 0.05185 0.0
H1192 H 0.11513 -0.0013 0.05835 0.0
H1193 H 0.17574 0.88972 0.98533 0.0
H1194 H 0.17829 0.95997 0.05307 0.0
H1195 H 0.11543 0.93204 0.98777 0.0
C1196 C 0.09472 0.95949 0.00534 0.0
C1197 C 0.09399 0.97844 0.0253 0.0
C1198 C 0.17778 0.94469 0.03811 0.0
C1199 C 0.13572 0.9528 0.02119 0.0
C1200 C 0.19722 0.93012 0.03734 0.0
C1201 C 0.1968 0.90976 0.01853 0.0
C1202 C 0.15766 0.93887 0.01996 0.0
C1203 C 0.17685 0.90515 0.00022 0.0
C1204 C 0.11546 0.9467 0.00323 0.0
C1205 C 0.11469 0.98406 0.04282 0.0
N1206 N 0.15802 0.91947 0.0015 0.0
N1207 N 0.13467 0.97129 0.04037 0.0
loop_
_geom_bond_atom_site_label_1
_geom_bond_atom_site_label_2
_geom_bond_distance
_geom_bond_site_symmetry_2
_ccdc_geom_bond_type
H0 C3 0.929 . S
H1 C6 0.929 . S
H2 C8 0.930 . S
C3 H0 0.929 . S
C3 C4 1.398 . S
C3 C5 1.396 . S
C4 C3 1.398 . S
C4 C8 1.407 . S
C5 C3 1.396 . S
C5 C6 1.394 . S
C6 H1 0.929 . S
C6 C5 1.394 . S
C6 C7 1.382 . S
C7 C6 1.382 . S
C7 C8 1.392 . S
C7 N9 1.420 . S
C8 H2 0.930 . S
C8 C4 1.407 . S
C8 C7 1.392 . S
N9 C7 1.420 . S
N9 C10 1.244 . S
C10 N9 1.244 . S
H11 C14 0.929 . S
H12 C17 0.929 . S
H13 C19 0.930 . S
C14 H11 0.929 . S
C14 C15 1.398 . S
C14 C16 1.396 . S
C15 C14 1.398 . S
C15 C19 1.407 . S
C16 C14 1.396 . S
C16 C17 1.394 . S
C17 H12 0.929 . S
C17 C16 1.394 . S
C17 C18 1.382 . S
C18 C17 1.382 . S
C18 C19 1.392 . S
C18 N20 1.420 . S
C19 H13 0.930 . S
C19 C15 1.407 . S
C19 C18 1.392 . S
N20 C18 1.420 . S
N20 C21 1.244 . S
C21 N20 1.244 . S
H22 C25 0.929 . S
H23 C28 0.930 . S
H24 C30 0.930 . S
C25 H22 0.929 . S
C25 C26 1.398 . S
C25 C27 1.396 . S
C26 C25 1.398 . S
C26 C30 1.407 1_455 S
C27 C25 1.396 . S
C27 C28 1.391 1_455 S
C28 H23 0.930 . S
C28 C27 1.391 1_655 S
C28 C29 1.384 . S
C29 C28 1.384 . S
C29 C30 1.392 . S
C29 N31 1.420 . S
C30 H24 0.930 . S
C30 C26 1.407 1_655 S
C30 C29 1.392 . S
N31 C29 1.420 . S
N31 C32 1.244 . S
C32 N31 1.244 . S
H33 C36 0.929 . S
H34 C39 0.929 . S
H35 C41 0.930 . S
C36 H33 0.929 . S
C36 C37 1.398 . S
C36 C38 1.396 . S
C37 C36 1.398 . S
C37 C41 1.407 . S
C38 C36 1.396 . S
C38 C39 1.394 . S
C39 H34 0.929 . S
C39 C38 1.394 . S
C39 C40 1.382 . S
C40 C39 1.382 . S
C40 C41 1.392 . S
C40 N42 1.420 . S
C41 H35 0.930 . S
C41 C37 1.407 . S
C41 C40 1.392 . S
N42 C40 1.420 . S
N42 C43 1.244 . S
C43 N42 1.244 . S
H44 C47 0.947 . S
H45 C50 0.929 . S
H46 C52 0.930 . S
C47 H44 0.947 . S
C47 C48 1.390 1_545 S
C47 C49 1.388 1_545 S
C48 C47 1.390 1_565 S
C48 C52 1.407 . S
C49 C47 1.388 1_565 S
C49 C50 1.394 . S
C50 H45 0.929 . S
C50 C49 1.394 . S
C50 C51 1.382 . S
C51 C50 1.382 . S
C51 C52 1.392 . S
C51 N53 1.420 . S
C52 H46 0.930 . S
C52 C48 1.407 . S
C52 C51 1.392 . S
N53 C51 1.420 . S
N53 C54 1.244 . S
C54 N53 1.244 . S
H55 C58 0.929 . S
H56 C61 0.929 . S
H57 C63 0.930 . S
C58 H55 0.929 . S
C58 C59 1.398 . S
C58 C60 1.396 . S
C59 C58 1.398 . S
C59 C63 1.407 . S
C60 C58 1.396 . S
C60 C61 1.394 . S
C61 H56 0.929 . S
C61 C60 1.394 . S
C61 C62 1.382 . S
C62 C61 1.382 . S
C62 C63 1.392 . S
C62 N64 1.420 . S
C63 H57 0.930 . S
C63 C59 1.407 . S
C63 C62 1.392 . S
N64 C62 1.420 . S
N64 C65 1.244 . S
C65 N64 1.244 . S
H66 C69 0.929 . S
H67 C72 0.929 1_455 S
H68 C74 0.930 . S
C69 H66 0.929 . S
C69 C70 1.398 . S
C69 C71 1.396 . S
C70 C69 1.398 . S
C70 C74 1.407 . S
C71 C69 1.396 . S
C71 C72 1.394 . S
C72 H67 0.929 1_655 S
C72 C71 1.394 . S
C72 C73 1.382 . S
C73 C72 1.382 . S
C73 C74 1.392 . S
C73 N75 1.420 1_655 S
C74 H68 0.930 . S
C74 C70 1.407 . S
C74 C73 1.392 . S
N75 C73 1.420 1_455 S
N75 C76 1.244 . S
C76 N75 1.244 . S
H77 C80 0.929 . S
H78 C83 0.929 . S
H79 C85 0.930 . S
C80 H77 0.929 . S
C80 C81 1.398 . S
C80 C82 1.396 . S
C81 C80 1.398 . S
C81 C85 1.407 . S
C82 C80 1.396 . S
C82 C83 1.394 . S
C83 H78 0.929 . S
C83 C82 1.394 . S
C83 C84 1.382 . S
C84 C83 1.382 . S
C84 C85 1.392 . S
C84 N86 1.420 . S
C85 H79 0.930 . S
C85 C81 1.407 . S
C85 C84 1.392 . S
N86 C84 1.420 . S
N86 C87 1.244 . S
C87 N86 1.244 . S
H88 C91 0.929 . S
H89 C94 0.929 . S
H90 C96 0.930 . S
C91 H88 0.929 . S
C91 C92 1.398 . S
C91 C93 1.396 . S
C92 C91 1.398 . S
C92 C96 1.407 . S
C93 C91 1.396 . S
C93 C94 1.394 . S
C94 H89 0.929 . S
C94 C93 1.394 . S
C94 C95 1.382 . S
C95 C94 1.382 . S
C95 C96 1.392 . S
C95 N97 1.420 . S
C96 H90 0.930 . S
C96 C92 1.407 . S
C96 C95 1.392 . S
N97 C95 1.420 . S
N97 C98 1.244 . S
C98 N97 1.244 . S
H99 C102 0.929 . S
H100 C105 0.929 1_545 S
H101 C107 0.930 . S
C102 H99 0.929 . S
C102 C103 1.398 . S
C102 C104 1.396 . S
C103 C102 1.398 . S
C103 C107 1.407 . S
C104 C102 1.396 . S
C104 C105 1.394 . S
C105 H100 0.929 1_565 S
C105 C104 1.394 . S
C105 C106 1.382 . S
C106 C105 1.382 . S
C106 C107 1.392 . S
C106 N108 1.420 1_565 S
C107 H101 0.930 . S
C107 C103 1.407 . S
C107 C106 1.392 . S
N108 C106 1.420 1_545 S
N108 C109 1.244 . S
C109 N108 1.244 . S
H110 C113 0.929 . S
H111 C116 0.929 . S
H112 C118 0.930 . S
C113 H110 0.929 . S
C113 C114 1.398 . S
C113 C115 1.396 . S
C114 C113 1.398 . S
C114 C118 1.407 . S
C115 C113 1.396 . S
C115 C116 1.394 . S
C116 H111 0.929 . S
C116 C115 1.394 . S
C116 C117 1.382 . S
C117 C116 1.382 . S
C117 C118 1.392 . S
C117 N119 1.420 . S
C118 H112 0.930 . S
C118 C114 1.407 . S
C118 C117 1.392 . S
N119 C117 1.420 . S
N119 C120 1.244 . S
C120 N119 1.244 . S
H121 C124 0.929 . S
H122 C127 0.929 . S
H123 C129 0.930 . S
C124 H121 0.929 . S
C124 C125 1.398 . S
C124 C126 1.396 . S
C125 C124 1.398 . S
C125 C129 1.407 . S
C126 C124 1.396 . S
C126 C127 1.394 . S
C127 H122 0.929 . S
C127 C126 1.394 . S
C127 C128 1.382 . S
C128 C127 1.382 . S
C128 C129 1.392 . S
C128 N130 1.420 . S
C129 H123 0.930 . S
C129 C125 1.407 . S
C129 C128 1.392 . S
N130 C128 1.420 . S
N130 C131 1.244 . S
C131 N130 1.244 . S
H132 C135 0.929 . S
H133 C138 0.929 . S
H134 C140 0.930 . S
C135 H132 0.929 . S
C135 C136 1.398 . S
C135 C137 1.396 . S
C136 C135 1.398 . S
C136 C140 1.407 . S
C137 C135 1.396 . S
C137 C138 1.394 . S
C138 H133 0.929 . S
C138 C137 1.394 . S
C138 C139 1.382 . S
C139 C138 1.382 . S
C139 C140 1.392 . S
C139 N141 1.420 . S
C140 H134 0.930 . S
C140 C136 1.407 . S
C140 C139 1.392 . S
N141 C139 1.420 . S
N141 C142 1.244 . S
C142 N141 1.244 . S
H143 C146 0.929 . S
H144 C149 0.929 . S
H145 C151 0.930 . S
C146 H143 0.929 . S
C146 C147 1.398 . S
C146 C148 1.396 . S
C147 C146 1.398 . S
C147 C151 1.407 . S
C148 C146 1.396 . S
C148 C149 1.394 1_556 S
C149 H144 0.929 . S
C149 C148 1.394 1_554 S
C149 C150 1.382 1_554 S
C150 C149 1.382 1_556 S
C150 C151 1.392 . S
C150 N152 1.420 1_556 S
C151 H145 0.930 . S
C151 C147 1.407 . S
C151 C150 1.392 . S
N152 C150 1.420 1_554 S
N152 C153 1.244 . S
C153 N152 1.244 . S
H154 C157 0.929 . S
H155 C160 0.929 . S
H156 C162 0.930 . S
C157 H154 0.929 . S
C157 C158 1.398 . S
C157 C159 1.396 . S
C158 C157 1.398 . S
C158 C162 1.407 . S
C159 C157 1.396 . S
C159 C160 1.394 . S
C160 H155 0.929 . S
C160 C159 1.394 . S
C160 C161 1.382 . S
C161 C160 1.382 . S
C161 C162 1.392 . S
C161 N163 1.420 . S
C162 H156 0.930 . S
C162 C158 1.407 . S
C162 C161 1.392 . S
N163 C161 1.420 . S
N163 C164 1.244 . S
C164 N163 1.244 . S
H165 C168 0.929 1_554 S
H166 C171 0.929 . S
H167 C173 0.930 1_565 S
C168 H165 0.929 1_556 S
C168 C169 1.398 . S
C168 C170 1.396 . S
C169 C168 1.398 . S
C169 C173 1.407 . S
C170 C168 1.396 . S
C170 C171 1.394 . S
C171 H166 0.929 . S
C171 C170 1.394 . S
C171 C172 1.382 . S
C172 C171 1.382 . S
C172 C173 1.392 . S
C172 N174 1.420 . S
C173 H167 0.930 1_545 S
C173 C169 1.407 . S
C173 C172 1.392 . S
N174 C172 1.420 . S
N174 C175 1.244 . S
C175 N174 1.244 . S
Mg176 O177 2.028 . S
Mg176 O183 1.986 1_554 S
Mg176 O185 2.114 . S
Mg176 O186 2.251 . S
Mg176 O189 2.010 . S
O177 Mg176 2.028 . S
O177 C180 1.250 . S
O178 Mg179 2.028 . S
O178 C180 1.248 . S
Mg179 O178 2.028 . S
Mg179 O184 2.032 1_554 S
Mg179 O186 2.079 . S
C180 O177 1.250 . S
C180 O178 1.248 . S
C181 O182 1.264 . S
C181 O189 1.249 . S
O182 C181 1.264 . S
O183 Mg176 1.986 1_556 S
O183 C187 1.246 . S
O184 Mg179 2.032 1_556 S
O184 C187 1.259 . S
O185 Mg176 2.114 . S
O185 C188 1.252 . S
O186 Mg176 2.251 . S
O186 Mg179 2.079 . S
O186 C188 1.273 . S
C187 O183 1.246 . S
C187 O184 1.259 . S
C188 O185 1.252 . S
C188 O186 1.273 . S
O189 Mg176 2.010 . S
O189 C181 1.249 . S
Mg190 O191 2.028 . S
Mg190 O197 1.986 . S
Mg190 O199 2.114 . S
Mg190 O200 2.251 . S
Mg190 O203 2.010 . S
O191 Mg190 2.028 . S
O191 C194 1.250 . S
O192 Mg193 2.028 . S
O192 C194 1.248 . S
Mg193 O192 2.028 . S
Mg193 O198 2.032 . S
Mg193 O200 2.079 . S
C194 O191 1.250 . S
C194 O192 1.248 . S
C195 O196 1.264 . S
C195 O203 1.249 . S
O196 C195 1.264 . S
O197 Mg190 1.986 . S
O197 C201 1.246 . S
O198 Mg193 2.032 . S
O198 C201 1.259 . S
O199 Mg190 2.114 . S
O199 C202 1.252 . S
O200 Mg190 2.251 . S
O200 Mg193 2.079 . S
O200 C202 1.273 . S
C201 O197 1.246 . S
C201 O198 1.259 . S
C202 O199 1.252 . S
C202 O200 1.273 . S
O203 Mg190 2.010 . S
O203 C195 1.249 . S
Mg204 O205 2.029 1_554 S
Mg204 O211 1.986 1_554 S
Mg204 O213 2.114 . S
Mg204 O214 2.251 . S
Mg204 O217 2.010 . S
O205 Mg204 2.029 1_556 S
O205 C208 1.252 . S
O206 Mg207 2.028 . S
O206 C208 1.248 . S
Mg207 O206 2.028 . S
Mg207 O212 2.032 . S
Mg207 O214 2.079 1_556 S
C208 O205 1.252 . S
C208 O206 1.248 . S
C209 O210 1.264 . S
C209 O217 1.249 . S
O210 C209 1.264 . S
O211 Mg204 1.986 1_556 S
O211 C215 1.246 . S
O212 Mg207 2.032 . S
O212 C215 1.259 . S
O213 Mg204 2.114 . S
O213 C216 1.252 . S
O214 Mg204 2.251 . S
O214 Mg207 2.079 1_554 S
O214 C216 1.273 . S
C215 O211 1.246 . S
C215 O212 1.259 . S
C216 O213 1.252 . S
C216 O214 1.273 . S
O217 Mg204 2.010 . S
O217 C209 1.249 . S
Mg218 O219 2.028 . S
Mg218 O225 1.986 . S
Mg218 O227 2.114 . S
Mg218 O228 2.251 . S
Mg218 O231 2.010 . S
O219 Mg218 2.028 . S
O219 C222 1.250 1_545 S
O220 Mg221 2.028 . S
O220 C222 1.248 . S
Mg221 O220 2.028 . S
Mg221 O226 2.032 1_565 S
Mg221 O228 2.079 1_565 S
C222 O219 1.250 1_565 S
C222 O220 1.248 . S
C223 O224 1.264 . S
C223 O231 1.249 . S
O224 C223 1.264 . S
O225 Mg218 1.986 . S
O225 C229 1.246 . S
O226 Mg221 2.032 1_545 S
O226 C229 1.259 . S
O227 Mg218 2.114 . S
O227 C230 1.252 . S
O228 Mg218 2.251 . S
O228 Mg221 2.079 1_545 S
O228 C230 1.273 . S
C229 O225 1.246 . S
C229 O226 1.259 . S
C230 O227 1.252 . S
C230 O228 1.273 . S
O231 Mg218 2.010 . S
O231 C223 1.249 . S
Mg232 O233 2.028 . S
Mg232 O239 1.986 . S
Mg232 O241 2.114 . S
Mg232 O242 2.251 . S
Mg232 O245 2.010 . S
O233 Mg232 2.028 . S
O233 C236 1.250 . S
O234 Mg235 2.028 . S
O234 C236 1.248 . S
Mg235 O234 2.028 . S
Mg235 O240 2.032 . S
Mg235 O242 2.079 . S
C236 O233 1.250 . S
C236 O234 1.248 . S
C237 O238 1.264 . S
C237 O245 1.249 . S
O238 C237 1.264 . S
O239 Mg232 1.986 . S
O239 C243 1.246 . S
O240 Mg235 2.032 . S
O240 C243 1.259 . S
O241 Mg232 2.114 . S
O241 C244 1.252 . S
O242 Mg232 2.251 . S
O242 Mg235 2.079 . S
O242 C244 1.273 . S
C243 O239 1.246 . S
C243 O240 1.259 . S
C244 O241 1.252 . S
C244 O242 1.273 . S
O245 Mg232 2.010 . S
O245 C237 1.249 . S
Mg246 O247 2.028 . S
Mg246 O253 1.986 . S
Mg246 O255 2.114 . S
Mg246 O256 2.251 . S
Mg246 O259 2.010 . S
O247 Mg246 2.028 . S
O247 C250 1.250 . S
O248 Mg249 2.028 . S
O248 C250 1.248 . S
Mg249 O248 2.028 . S
Mg249 O254 2.032 . S
Mg249 O256 2.079 . S
C250 O247 1.250 . S
C250 O248 1.248 . S
C251 O252 1.264 . S
C251 O259 1.249 . S
O252 C251 1.264 . S
O253 Mg246 1.986 . S
O253 C257 1.246 . S
O254 Mg249 2.032 . S
O254 C257 1.259 . S
O255 Mg246 2.114 . S
O255 C258 1.252 . S
O256 Mg246 2.251 . S
O256 Mg249 2.079 . S
O256 C258 1.273 . S
C257 O253 1.246 . S
C257 O254 1.259 . S
C258 O255 1.252 . S
C258 O256 1.273 . S
O259 Mg246 2.010 . S
O259 C251 1.249 . S
Mg260 O261 2.028 . S
Mg260 O267 1.986 . S
Mg260 O269 2.114 . S
Mg260 O270 2.251 . S
Mg260 O273 2.010 . S
O261 Mg260 2.028 . S
O261 C264 1.250 . S
O262 Mg263 2.028 . S
O262 C264 1.248 . S
Mg263 O262 2.028 . S
Mg263 O268 2.032 . S
Mg263 O270 2.079 . S
C264 O261 1.250 . S
C264 O262 1.248 . S
C265 O266 1.264 . S
C265 O273 1.249 . S
O266 C265 1.264 . S
O267 Mg260 1.986 . S
O267 C271 1.246 . S
O268 Mg263 2.032 . S
O268 C271 1.259 . S
O269 Mg260 2.114 . S
O269 C272 1.252 . S
O270 Mg260 2.251 . S
O270 Mg263 2.079 . S
O270 C272 1.273 . S
C271 O267 1.246 . S
C271 O268 1.259 . S
C272 O269 1.252 . S
C272 O270 1.273 . S
O273 Mg260 2.010 . S
O273 C265 1.249 . S
Mg274 O275 2.028 1_545 S
Mg274 O281 1.986 1_545 S
Mg274 O283 2.114 . S
Mg274 O284 2.251 . S
Mg274 O287 2.010 . S
O275 Mg274 2.028 1_565 S
O275 C278 1.250 . S
O276 Mg277 2.028 . S
O276 C278 1.248 . S
Mg277 O276 2.028 . S
Mg277 O282 2.032 . S
Mg277 O284 2.079 1_565 S
C278 O275 1.250 . S
C278 O276 1.248 . S
C279 O280 1.264 . S
C279 O287 1.249 . S
O280 C279 1.264 . S
O281 Mg274 1.986 1_565 S
O281 C285 1.246 . S
O282 Mg277 2.032 . S
O282 C285 1.259 . S
O283 Mg274 2.114 . S
O283 C286 1.252 . S
O284 Mg274 2.251 . S
O284 Mg277 2.079 1_545 S
O284 C286 1.273 . S
C285 O281 1.246 . S
C285 O282 1.259 . S
C286 O283 1.252 . S
C286 O284 1.273 . S
O287 Mg274 2.010 . S
O287 C279 1.249 . S
Mg288 O289 2.028 . S
Mg288 O295 1.986 . S
Mg288 O297 2.114 . S
Mg288 O298 2.251 . S
Mg288 O301 2.010 . S
O289 Mg288 2.028 . S
O289 C292 1.250 1_455 S
O290 Mg291 2.028 . S
O290 C292 1.248 . S
Mg291 O290 2.028 . S
Mg291 O296 2.032 . S
Mg291 O298 2.079 1_655 S
C292 O289 1.250 1_655 S
C292 O290 1.248 . S
C293 O294 1.264 . S
C293 O301 1.249 . S
O294 C293 1.264 . S
O295 Mg288 1.986 . S
O295 C299 1.246 . S
O296 Mg291 2.032 . S
O296 C299 1.259 1_655 S
O297 Mg288 2.114 . S
O297 C300 1.252 . S
O298 Mg288 2.251 . S
O298 Mg291 2.079 1_455 S
O298 C300 1.273 . S
C299 O295 1.246 . S
C299 O296 1.259 1_455 S
C300 O297 1.252 . S
C300 O298 1.273 . S
O301 Mg288 2.010 . S
O301 C293 1.249 . S
Mg302 O303 2.028 . S
Mg302 O309 1.986 . S
Mg302 O311 2.114 . S
Mg302 O312 2.251 . S
Mg302 O315 2.010 . S
O303 Mg302 2.028 . S
O303 C306 1.250 . S
O304 Mg305 2.028 . S
O304 C306 1.248 . S
Mg305 O304 2.028 . S
Mg305 O310 2.032 . S
Mg305 O312 2.079 . S
C306 O303 1.250 . S
C306 O304 1.248 . S
C307 O308 1.264 . S
C307 O315 1.249 . S
O308 C307 1.264 . S
O309 Mg302 1.986 . S
O309 C313 1.246 . S
O310 Mg305 2.032 . S
O310 C313 1.259 . S
O311 Mg302 2.114 . S
O311 C314 1.252 . S
O312 Mg302 2.251 . S
O312 Mg305 2.079 . S
O312 C314 1.273 . S
C313 O309 1.246 . S
C313 O310 1.259 . S
C314 O311 1.252 . S
C314 O312 1.273 . S
O315 Mg302 2.010 . S
O315 C307 1.249 . S
Mg316 O317 2.028 1_655 S
Mg316 O323 1.986 1_655 S
Mg316 O325 2.114 . S
Mg316 O326 2.251 1_655 S
Mg316 O329 2.010 . S
O317 Mg316 2.028 1_455 S
O317 C320 1.250 . S
O318 Mg319 2.028 . S
O318 C320 1.248 . S
Mg319 O318 2.028 . S
Mg319 O324 2.032 . S
Mg319 O326 2.079 . S
C320 O317 1.250 . S
C320 O318 1.248 . S
C321 O322 1.264 . S
C321 O329 1.249 . S
O322 C321 1.264 . S
O323 Mg316 1.986 1_455 S
O323 C327 1.246 . S
O324 Mg319 2.032 . S
O324 C327 1.259 . S
O325 Mg316 2.114 . S
O325 C328 1.252 . S
O326 Mg316 2.251 1_455 S
O326 Mg319 2.079 . S
O326 C328 1.273 1_455 S
C327 O323 1.246 . S
C327 O324 1.259 . S
C328 O325 1.252 . S
C328 O326 1.273 1_655 S
O329 Mg316 2.010 . S
O329 C321 1.249 . S
Mg330 O331 2.028 . S
Mg330 O337 1.986 . S
Mg330 O339 2.114 . S
Mg330 O340 2.251 . S
Mg330 O343 2.010 . S
O331 Mg330 2.028 . S
O331 C334 1.250 . S
O332 Mg333 2.028 . S
O332 C334 1.248 . S
Mg333 O332 2.028 . S
Mg333 O338 2.032 . S
Mg333 O340 2.079 . S
C334 O331 1.250 . S
C334 O332 1.248 . S
C335 O336 1.264 . S
C335 O343 1.249 . S
O336 C335 1.264 . S
O337 Mg330 1.986 . S
O337 C341 1.246 . S
O338 Mg333 2.032 . S
O338 C341 1.259 . S
O339 Mg330 2.114 . S
O339 C342 1.252 . S
O340 Mg330 2.251 . S
O340 Mg333 2.079 . S
O340 C342 1.273 . S
C341 O337 1.246 . S
C341 O338 1.259 . S
C342 O339 1.252 . S
C342 O340 1.273 . S
O343 Mg330 2.010 . S
O343 C335 1.249 . S
H344 C350 0.930 . S
H345 C354 0.930 . S
H346 C359 0.929 . S
H347 C357 0.929 . S
H348 C352 0.929 . S
H349 C358 0.929 . S
C350 H344 0.930 . S
C350 C351 1.367 . S
C350 C358 1.378 . S
C351 C350 1.367 . S
C351 C359 1.433 . S
C352 H348 0.929 . S
C352 C354 1.378 . S
C352 C356 1.350 . S
C353 C356 1.463 . S
C353 C358 1.350 . S
C353 N361 1.427 . S
C354 H345 0.930 . S
C354 C352 1.378 . S
C354 C355 1.367 . S
C355 C354 1.367 . S
C355 C357 1.433 . S
C356 C352 1.350 . S
C356 C353 1.463 . S
C356 N360 1.427 . S
C357 H347 0.929 . S
C357 C355 1.433 . S
C357 N360 1.384 . S
C358 H349 0.929 . S
C358 C350 1.378 . S
C358 C353 1.350 . S
C359 H346 0.929 . S
C359 C351 1.433 . S
C359 N361 1.384 . S
N360 C356 1.427 . S
N360 C357 1.384 . S
N361 C353 1.427 . S
N361 C359 1.384 . S
H362 C368 0.930 . S
H363 C372 0.930 . S
H364 C377 0.889 1_655 S
H365 C375 0.929 . S
H366 C370 0.929 . S
H367 C376 0.929 . S
C368 H362 0.930 . S
C368 C369 1.367 . S
C368 C376 1.378 . S
C369 C368 1.367 . S
C369 C377 1.433 . S
C370 H366 0.929 . S
C370 C372 1.378 . S
C370 C374 1.350 . S
C371 C374 1.463 . S
C371 C376 1.350 . S
C371 N379 1.427 . S
C372 H363 0.930 . S
C372 C370 1.378 . S
C372 C373 1.367 . S
C373 C372 1.367 . S
C373 C375 1.433 . S
C374 C370 1.350 . S
C374 C371 1.463 . S
C374 N378 1.427 . S
C375 H365 0.929 . S
C375 C373 1.433 . S
C375 N378 1.384 . S
C376 H367 0.929 . S
C376 C368 1.378 . S
C376 C371 1.350 . S
C377 H364 0.889 1_455 S
C377 C369 1.433 . S
C377 N379 1.384 . S
N378 C374 1.427 . S
N378 C375 1.384 . S
N379 C371 1.427 . S
N379 C377 1.384 . S
H380 C386 0.930 . S
H381 C390 0.930 . S
H382 C395 0.929 . S
H383 C393 0.929 . S
H384 C388 0.929 . S
H385 C394 0.929 . S
C386 H380 0.930 . S
C386 C387 1.367 . S
C386 C394 1.378 . S
C387 C386 1.367 . S
C387 C395 1.433 . S
C388 H384 0.929 . S
C388 C390 1.378 . S
C388 C392 1.350 . S
C389 C392 1.463 . S
C389 C394 1.350 . S
C389 N397 1.427 . S
C390 H381 0.930 . S
C390 C388 1.378 . S
C390 C391 1.367 . S
C391 C390 1.367 . S
C391 C393 1.433 . S
C392 C388 1.350 . S
C392 C389 1.463 . S
C392 N396 1.427 . S
C393 H383 0.929 . S
C393 C391 1.433 . S
C393 N396 1.384 . S
C394 H385 0.929 . S
C394 C386 1.378 . S
C394 C389 1.350 . S
C395 H382 0.929 . S
C395 C387 1.433 . S
C395 N397 1.384 . S
N396 C392 1.427 . S
N396 C393 1.384 . S
N397 C389 1.427 . S
N397 C395 1.384 . S
H398 C404 0.930 . S
H399 C408 0.930 1_565 S
H400 C413 0.929 . S
H401 C411 0.929 . S
H402 C406 0.929 . S
H403 C412 0.929 . S
C404 H398 0.930 . S
C404 C405 1.367 1_545 S
C404 C412 1.378 . S
C405 C404 1.367 1_565 S
C405 C413 1.433 . S
C406 H402 0.929 . S
C406 C408 1.378 1_465 S
C406 C410 1.350 1_565 S
C407 C410 1.463 . S
C407 C412 1.350 . S
C407 N415 1.427 1_545 S
C408 H399 0.930 1_545 S
C408 C406 1.378 1_645 S
C408 C409 1.367 . S
C409 C408 1.367 . S
C409 C411 1.433 . S
C410 C406 1.350 1_545 S
C410 C407 1.463 . S
C410 N414 1.427 1_455 S
C411 H401 0.929 . S
C411 C409 1.433 . S
C411 N414 1.384 . S
C412 H403 0.929 . S
C412 C404 1.378 . S
C412 C407 1.350 . S
C413 H400 0.929 . S
C413 C405 1.433 . S
C413 N415 1.384 . S
N414 C410 1.427 1_655 S
N414 C411 1.384 . S
N415 C407 1.427 1_565 S
N415 C413 1.384 . S
H416 C422 0.930 . S
H417 C426 0.930 . S
H418 C431 0.929 . S
H419 C429 0.929 . S
H420 C424 0.929 . S
H421 C430 0.929 . S
C422 H416 0.930 . S
C422 C423 1.367 . S
C422 C430 1.378 . S
C423 C422 1.367 . S
C423 C431 1.433 . S
C424 H420 0.929 . S
C424 C426 1.378 . S
C424 C428 1.350 . S
C425 C428 1.463 . S
C425 C430 1.350 . S
C425 N433 1.427 . S
C426 H417 0.930 . S
C426 C424 1.378 . S
C426 C427 1.367 . S
C427 C426 1.367 . S
C427 C429 1.433 . S
C428 C424 1.350 . S
C428 C425 1.463 . S
C428 N432 1.427 . S
C429 H419 0.929 . S
C429 C427 1.433 . S
C429 N432 1.384 . S
C430 H421 0.929 . S
C430 C422 1.378 . S
C430 C425 1.350 . S
C431 H418 0.929 . S
C431 C423 1.433 . S
C431 N433 1.384 . S
N432 C428 1.427 . S
N432 C429 1.384 . S
N433 C425 1.427 . S
N433 C431 1.384 . S
H434 C440 0.930 . S
H435 C444 0.930 . S
H436 C449 0.929 . S
H437 C447 0.929 . S
H438 C442 0.929 . S
H439 C448 0.929 . S
C440 H434 0.930 . S
C440 C441 1.367 . S
C440 C448 1.378 . S
C441 C440 1.367 . S
C441 C449 1.433 . S
C442 H438 0.929 . S
C442 C444 1.378 . S
C442 C446 1.350 . S
C443 C446 1.463 . S
C443 C448 1.350 . S
C443 N451 1.427 . S
C444 H435 0.930 . S
C444 C442 1.378 . S
C444 C445 1.367 . S
C445 C444 1.367 . S
C445 C447 1.433 . S
C446 C442 1.350 . S
C446 C443 1.463 . S
C446 N450 1.427 . S
C447 H437 0.929 . S
C447 C445 1.433 . S
C447 N450 1.384 . S
C448 H439 0.929 . S
C448 C440 1.378 . S
C448 C443 1.350 . S
C449 H436 0.929 . S
C449 C441 1.433 . S
C449 N451 1.384 . S
N450 C446 1.427 . S
N450 C447 1.384 . S
N451 C443 1.427 . S
N451 C449 1.384 . S
H452 C458 0.930 . S
H453 C462 0.930 . S
H454 C467 0.929 . S
H455 C465 0.929 . S
H456 C460 0.929 . S
H457 C466 0.929 . S
C458 H452 0.930 . S
C458 C459 1.367 . S
C458 C466 1.378 . S
C459 C458 1.367 . S
C459 C467 1.433 . S
C460 H456 0.929 . S
C460 C462 1.378 . S
C460 C464 1.350 . S
C461 C464 1.463 . S
C461 C466 1.350 . S
C461 N469 1.427 . S
C462 H453 0.930 . S
C462 C460 1.378 . S
C462 C463 1.367 . S
C463 C462 1.367 . S
C463 C465 1.433 . S
C464 C460 1.350 . S
C464 C461 1.463 . S
C464 N468 1.427 . S
C465 H455 0.929 . S
C465 C463 1.433 . S
C465 N468 1.384 . S
C466 H457 0.929 . S
C466 C458 1.378 . S
C466 C461 1.350 . S
C467 H454 0.929 . S
C467 C459 1.433 . S
C467 N469 1.384 . S
N468 C464 1.427 . S
N468 C465 1.384 . S
N469 C461 1.427 . S
N469 C467 1.384 . S
H470 C476 0.930 . S
H471 C480 0.930 . S
H472 C485 0.929 . S
H473 C483 0.929 . S
H474 C478 0.929 . S
H475 C484 0.929 . S
C476 H470 0.930 . S
C476 C477 1.367 1_545 S
C476 C484 1.378 . S
C477 C476 1.367 1_565 S
C477 C485 1.433 . S
C478 H474 0.929 . S
C478 C480 1.378 . S
C478 C482 1.350 . S
C479 C482 1.463 . S
C479 C484 1.350 1_565 S
C479 N487 1.427 . S
C480 H471 0.930 . S
C480 C478 1.378 . S
C480 C481 1.367 . S
C481 C480 1.367 . S
C481 C483 1.433 1_565 S
C482 C478 1.350 . S
C482 C479 1.463 . S
C482 N486 1.427 1_565 S
C483 H473 0.929 . S
C483 C481 1.433 1_545 S
C483 N486 1.384 . S
C484 H475 0.929 . S
C484 C476 1.378 . S
C484 C479 1.350 1_545 S
C485 H472 0.929 . S
C485 C477 1.433 . S
C485 N487 1.384 . S
N486 C482 1.427 1_545 S
N486 C483 1.384 . S
N487 C479 1.427 . S
N487 C485 1.384 . S
H488 C494 0.930 . S
H489 C498 0.930 . S
H490 C503 0.929 . S
H491 C501 0.929 . S
H492 C496 0.929 . S
H493 C502 0.929 . S
C494 H488 0.930 . S
C494 C495 1.367 . S
C494 C502 1.378 . S
C495 C494 1.367 . S
C495 C503 1.433 . S
C496 H492 0.929 . S
C496 C498 1.378 . S
C496 C500 1.350 . S
C497 C500 1.463 . S
C497 C502 1.350 . S
C497 N505 1.427 . S
C498 H489 0.930 . S
C498 C496 1.378 . S
C498 C499 1.367 . S
C499 C498 1.367 . S
C499 C501 1.433 . S
C500 C496 1.350 . S
C500 C497 1.463 . S
C500 N504 1.427 . S
C501 H491 0.929 . S
C501 C499 1.433 . S
C501 N504 1.384 . S
C502 H493 0.929 . S
C502 C494 1.378 . S
C502 C497 1.350 . S
C503 H490 0.929 . S
C503 C495 1.433 . S
C503 N505 1.384 . S
N504 C500 1.427 . S
N504 C501 1.384 . S
N505 C497 1.427 . S
N505 C503 1.384 . S
H506 C512 0.930 . S
H507 C516 0.930 . S
H508 C521 0.929 . S
H509 C519 0.929 . S
H510 C514 0.929 . S
H511 C520 0.929 . S
C512 H506 0.930 . S
C512 C513 1.367 . S
C512 C520 1.378 . S
C513 C512 1.367 . S
C513 C521 1.433 . S
C514 H510 0.929 . S
C514 C516 1.378 . S
C514 C518 1.350 . S
C515 C518 1.463 . S
C515 C520 1.350 . S
C515 N523 1.427 . S
C516 H507 0.930 . S
C516 C514 1.378 . S
C516 C517 1.367 . S
C517 C516 1.367 . S
C517 C519 1.433 . S
C518 C514 1.350 . S
C518 C515 1.463 . S
C518 N522 1.427 . S
C519 H509 0.929 . S
C519 C517 1.433 . S
C519 N522 1.384 . S
C520 H511 0.929 . S
C520 C512 1.378 . S
C520 C515 1.350 . S
C521 H508 0.929 . S
C521 C513 1.433 . S
C521 N523 1.384 . S
N522 C518 1.427 . S
N522 C519 1.384 . S
N523 C515 1.427 . S
N523 C521 1.384 . S
H524 C530 0.930 . S
H525 C534 0.930 . S
H526 C539 0.929 . S
H527 C537 0.929 . S
H528 C532 0.929 . S
H529 C538 0.929 . S
C530 H524 0.930 . S
C530 C531 1.367 . S
C530 C538 1.378 . S
C531 C530 1.367 . S
C531 C539 1.433 . S
C532 H528 0.929 . S
C532 C534 1.378 . S
C532 C536 1.350 . S
C533 C536 1.463 . S
C533 C538 1.350 . S
C533 N541 1.427 . S
C534 H525 0.930 . S
C534 C532 1.378 . S
C534 C535 1.367 . S
C535 C534 1.367 . S
C535 C537 1.433 . S
C536 C532 1.350 . S
C536 C533 1.463 . S
C536 N540 1.427 . S
C537 H527 0.929 . S
C537 C535 1.433 . S
C537 N540 1.384 . S
C538 H529 0.929 . S
C538 C530 1.378 . S
C538 C533 1.350 . S
C539 H526 0.929 . S
C539 C531 1.433 . S
C539 N541 1.384 . S
N540 C536 1.427 . S
N540 C537 1.384 . S
N541 C533 1.427 . S
N541 C539 1.384 . S
H542 C548 0.930 . S
H543 C552 0.930 . S
H544 C557 0.929 . S
H545 C555 0.929 . S
H546 C550 0.929 . S
H547 C556 0.929 . S
C548 H542 0.930 . S
C548 C549 1.367 . S
C548 C556 1.378 . S
C549 C548 1.367 . S
C549 C557 1.433 . S
C550 H546 0.929 . S
C550 C552 1.378 . S
C550 C554 1.350 . S
C551 C554 1.463 . S
C551 C556 1.350 . S
C551 N559 1.427 . S
C552 H543 0.930 . S
C552 C550 1.378 . S
C552 C553 1.367 . S
C553 C552 1.367 . S
C553 C555 1.433 . S
C554 C550 1.350 . S
C554 C551 1.463 . S
C554 N558 1.427 . S
C555 H545 0.929 . S
C555 C553 1.433 . S
C555 N558 1.384 . S
C556 H547 0.929 . S
C556 C548 1.378 . S
C556 C551 1.350 . S
C557 H544 0.929 . S
C557 C549 1.433 . S
C557 N559 1.384 . S
N558 C554 1.427 . S
N558 C555 1.384 . S
N559 C551 1.427 . S
N559 C557 1.384 . S
H560 C566 0.930 . S
H561 C570 0.930 . S
H562 C575 0.929 . S
H563 C573 0.929 . S
H564 C568 0.929 . S
H565 C574 0.929 . S
C566 H560 0.930 . S
C566 C567 1.367 . S
C566 C574 1.378 . S
C567 C566 1.367 . S
C567 C575 1.433 . S
C568 H564 0.929 . S
C568 C570 1.378 . S
C568 C572 1.350 . S
C569 C572 1.463 . S
C569 C574 1.350 . S
C569 N577 1.427 . S
C570 H561 0.930 . S
C570 C568 1.378 . S
C570 C571 1.367 . S
C571 C570 1.367 . S
C571 C573 1.433 . S
C572 C568 1.350 . S
C572 C569 1.463 . S
C572 N576 1.427 . S
C573 H563 0.929 . S
C573 C571 1.433 . S
C573 N576 1.384 . S
C574 H565 0.929 . S
C574 C566 1.378 . S
C574 C569 1.350 . S
C575 H562 0.929 . S
C575 C567 1.433 . S
C575 N577 1.384 . S
N576 C572 1.427 . S
N576 C573 1.384 . S
N577 C569 1.427 . S
N577 C575 1.384 . S
H578 C584 0.930 . S
H579 C588 0.930 . S
H580 C593 0.929 . S
H581 C591 0.929 . S
H582 C586 0.929 . S
H583 C592 0.929 . S
C584 H578 0.930 . S
C584 C585 1.367 . S
C584 C592 1.378 . S
C585 C584 1.367 . S
C585 C593 1.433 . S
C586 H582 0.929 . S
C586 C588 1.378 . S
C586 C590 1.350 . S
C587 C590 1.463 . S
C587 C592 1.350 . S
C587 N595 1.427 . S
C588 H579 0.930 . S
C588 C586 1.378 . S
C588 C589 1.367 . S
C589 C588 1.367 . S
C589 C591 1.433 . S
C590 C586 1.350 . S
C590 C587 1.463 . S
C590 N594 1.427 . S
C591 H581 0.929 . S
C591 C589 1.433 . S
C591 N594 1.384 . S
C592 H583 0.929 . S
C592 C584 1.378 . S
C592 C587 1.350 . S
C593 H580 0.929 . S
C593 C585 1.433 . S
C593 N595 1.384 . S
N594 C590 1.427 . S
N594 C591 1.384 . S
N595 C587 1.427 . S
N595 C593 1.384 . S
H596 C602 0.930 . S
H597 C606 0.930 . S
H598 C611 0.929 . S
H599 C609 0.929 . S
H600 C604 0.929 . S
H601 C610 0.929 . S
C602 H596 0.930 . S
C602 C603 1.367 . S
C602 C610 1.378 . S
C603 C602 1.367 . S
C603 C611 1.433 . S
C604 H600 0.929 . S
C604 C606 1.378 . S
C604 C608 1.350 . S
C605 C608 1.463 . S
C605 C610 1.350 . S
C605 N613 1.427 . S
C606 H597 0.930 . S
C606 C604 1.378 . S
C606 C607 1.367 . S
C607 C606 1.367 . S
C607 C609 1.433 . S
C608 C604 1.350 . S
C608 C605 1.463 . S
C608 N612 1.427 . S
C609 H599 0.929 . S
C609 C607 1.433 . S
C609 N612 1.384 . S
C610 H601 0.929 . S
C610 C602 1.378 . S
C610 C605 1.350 . S
C611 H598 0.929 . S
C611 C603 1.433 . S
C611 N613 1.384 . S
N612 C608 1.427 . S
N612 C609 1.384 . S
N613 C605 1.427 . S
N613 C611 1.384 . S
H614 C620 0.930 . S
H615 C624 0.930 . S
H616 C629 0.938 . S
H617 C627 0.929 . S
H618 C622 0.929 . S
H619 C628 0.929 . S
C620 H614 0.930 . S
C620 C621 1.367 . S
C620 C628 1.378 . S
C621 C620 1.367 . S
C621 C629 1.426 1_655 S
C622 H618 0.929 . S
C622 C624 1.378 . S
C622 C626 1.350 1_455 S
C623 C626 1.463 . S
C623 C628 1.350 . S
C623 N631 1.427 1_655 S
C624 H615 0.930 . S
C624 C622 1.378 . S
C624 C625 1.367 1_455 S
C625 C624 1.367 1_655 S
C625 C627 1.433 . S
C626 C622 1.350 1_655 S
C626 C623 1.463 . S
C626 N630 1.427 . S
C627 H617 0.929 . S
C627 C625 1.433 . S
C627 N630 1.384 . S
C628 H619 0.929 . S
C628 C620 1.378 . S
C628 C623 1.350 . S
C629 H616 0.938 . S
C629 C621 1.426 1_455 S
C629 N631 1.383 . S
N630 C626 1.427 . S
N630 C627 1.384 . S
N631 C623 1.427 1_455 S
N631 C629 1.383 . S
H632 C638 0.930 . S
H633 C642 0.930 . S
H634 C647 0.929 . S
H635 C645 0.929 . S
H636 C640 0.929 . S
H637 C646 0.929 . S
C638 H632 0.930 . S
C638 C639 1.367 . S
C638 C646 1.378 . S
C639 C638 1.367 . S
C639 C647 1.433 . S
C640 H636 0.929 . S
C640 C642 1.378 . S
C640 C644 1.350 . S
C641 C644 1.463 . S
C641 C646 1.350 . S
C641 N649 1.427 . S
C642 H633 0.930 . S
C642 C640 1.378 . S
C642 C643 1.367 . S
C643 C642 1.367 . S
C643 C645 1.433 . S
C644 C640 1.350 . S
C644 C641 1.463 . S
C644 N648 1.427 . S
C645 H635 0.929 . S
C645 C643 1.433 . S
C645 N648 1.384 . S
C646 H637 0.929 . S
C646 C638 1.378 . S
C646 C641 1.350 . S
C647 H634 0.929 . S
C647 C639 1.433 . S
C647 N649 1.384 . S
N648 C644 1.427 . S
N648 C645 1.384 . S
N649 C641 1.427 . S
N649 C647 1.384 . S
H650 C656 0.930 . S
H651 C660 0.930 . S
H652 C665 0.929 . S
H653 C663 0.929 . S
H654 C658 0.929 . S
H655 C664 0.929 . S
C656 H650 0.930 . S
C656 C657 1.367 . S
C656 C664 1.378 . S
C657 C656 1.367 . S
C657 C665 1.433 . S
C658 H654 0.929 . S
C658 C660 1.378 . S
C658 C662 1.350 . S
C659 C662 1.463 . S
C659 C664 1.350 . S
C659 N667 1.427 . S
C660 H651 0.930 . S
C660 C658 1.378 . S
C660 C661 1.367 . S
C661 C660 1.367 . S
C661 C663 1.433 . S
C662 C658 1.350 . S
C662 C659 1.463 . S
C662 N666 1.427 . S
C663 H653 0.929 . S
C663 C661 1.433 . S
C663 N666 1.384 . S
C664 H655 0.929 . S
C664 C656 1.378 . S
C664 C659 1.350 . S
C665 H652 0.929 . S
C665 C657 1.433 . S
C665 N667 1.384 . S
N666 C662 1.427 . S
N666 C663 1.384 . S
N667 C659 1.427 . S
N667 C665 1.384 . S
H668 C674 0.930 . S
H669 C678 0.930 . S
H670 C683 0.929 . S
H671 C681 0.929 . S
H672 C676 0.929 . S
H673 C682 0.929 1_545 S
C674 H668 0.930 . S
C674 C675 1.367 1_545 S
C674 C682 1.378 1_546 S
C675 C674 1.367 1_565 S
C675 C683 1.433 . S
C676 H672 0.929 . S
C676 C678 1.378 . S
C676 C680 1.350 . S
C677 C680 1.463 . S
C677 C682 1.350 . S
C677 N685 1.427 1_554 S
C678 H669 0.930 . S
C678 C676 1.378 . S
C678 C679 1.367 . S
C679 C678 1.367 . S
C679 C681 1.433 . S
C680 C676 1.350 . S
C680 C677 1.463 . S
C680 N684 1.427 . S
C681 H671 0.929 . S
C681 C679 1.433 . S
C681 N684 1.384 . S
C682 H673 0.929 1_565 S
C682 C674 1.378 1_564 S
C682 C677 1.350 . S
C683 H670 0.929 . S
C683 C675 1.433 . S
C683 N685 1.384 . S
N684 C680 1.427 . S
N684 C681 1.384 . S
N685 C677 1.427 1_556 S
N685 C683 1.384 . S
H686 C692 0.930 . S
H687 C696 0.930 . S
H688 C701 0.929 . S
H689 C699 0.929 . S
H690 C694 0.929 . S
H691 C700 0.929 . S
C692 H686 0.930 . S
C692 C693 1.367 . S
C692 C700 1.378 . S
C693 C692 1.367 . S
C693 C701 1.433 . S
C694 H690 0.929 . S
C694 C696 1.378 . S
C694 C698 1.350 . S
C695 C698 1.463 . S
C695 C700 1.350 . S
C695 N703 1.427 . S
C696 H687 0.930 . S
C696 C694 1.378 . S
C696 C697 1.367 . S
C697 C696 1.367 . S
C697 C699 1.433 . S
C698 C694 1.350 . S
C698 C695 1.463 . S
C698 N702 1.427 . S
C699 H689 0.929 . S
C699 C697 1.433 . S
C699 N702 1.384 . S
C700 H691 0.929 . S
C700 C692 1.378 . S
C700 C695 1.350 . S
C701 H688 0.929 . S
C701 C693 1.433 . S
C701 N703 1.384 . S
N702 C698 1.427 . S
N702 C699 1.384 . S
N703 C695 1.427 . S
N703 C701 1.384 . S
H704 C710 0.930 . S
H705 C714 0.930 . S
H706 C719 0.929 1_565 S
H707 C717 0.929 . S
H708 C712 0.929 . S
H709 C718 0.929 . S
C710 H704 0.930 . S
C710 C711 1.367 . S
C710 C718 1.378 . S
C711 C710 1.367 . S
C711 C719 1.433 . S
C712 H708 0.929 . S
C712 C714 1.378 . S
C712 C716 1.350 . S
C713 C716 1.463 . S
C713 C718 1.350 . S
C713 N721 1.427 . S
C714 H705 0.930 . S
C714 C712 1.378 . S
C714 C715 1.367 . S
C715 C714 1.367 . S
C715 C717 1.433 . S
C716 C712 1.350 . S
C716 C713 1.463 . S
C716 N720 1.427 . S
C717 H707 0.929 . S
C717 C715 1.433 . S
C717 N720 1.384 . S
C718 H709 0.929 . S
C718 C710 1.378 . S
C718 C713 1.350 . S
C719 H706 0.929 1_545 S
C719 C711 1.433 . S
C719 N721 1.384 . S
N720 C716 1.427 . S
N720 C717 1.384 . S
N721 C713 1.427 . S
N721 C719 1.384 . S
H722 C728 0.930 . S
H723 C732 0.930 . S
H724 C737 0.929 . S
H725 C735 0.929 . S
H726 C730 0.929 . S
H727 C736 0.929 . S
C728 H722 0.930 . S
C728 C729 1.367 . S
C728 C736 1.378 . S
C729 C728 1.367 . S
C729 C737 1.433 . S
C730 H726 0.929 . S
C730 C732 1.378 . S
C730 C734 1.350 . S
C731 C734 1.463 . S
C731 C736 1.350 . S
C731 N739 1.427 . S
C732 H723 0.930 . S
C732 C730 1.378 . S
C732 C733 1.367 . S
C733 C732 1.367 . S
C733 C735 1.433 . S
C734 C730 1.350 . S
C734 C731 1.463 . S
C734 N738 1.427 . S
C735 H725 0.929 . S
C735 C733 1.433 . S
C735 N738 1.384 . S
C736 H727 0.929 . S
C736 C728 1.378 . S
C736 C731 1.350 . S
C737 H724 0.929 . S
C737 C729 1.433 . S
C737 N739 1.384 . S
N738 C734 1.427 . S
N738 C735 1.384 . S
N739 C731 1.427 . S
N739 C737 1.384 . S
H740 C746 0.930 . S
H741 C750 0.930 . S
H742 C755 0.929 . S
H743 C753 0.929 . S
H744 C748 0.929 . S
H745 C754 0.929 . S
C746 H740 0.930 . S
C746 C747 1.367 . S
C746 C754 1.378 . S
C747 C746 1.367 . S
C747 C755 1.433 . S
C748 H744 0.929 . S
C748 C750 1.378 . S
C748 C752 1.350 . S
C749 C752 1.463 . S
C749 C754 1.350 . S
C749 N757 1.427 . S
C750 H741 0.930 . S
C750 C748 1.378 . S
C750 C751 1.367 . S
C751 C750 1.367 . S
C751 C753 1.433 . S
C752 C748 1.350 . S
C752 C749 1.463 . S
C752 N756 1.427 . S
C753 H743 0.929 . S
C753 C751 1.433 . S
C753 N756 1.384 . S
C754 H745 0.929 . S
C754 C746 1.378 . S
C754 C749 1.350 . S
C755 H742 0.929 . S
C755 C747 1.433 . S
C755 N757 1.384 . S
N756 C752 1.427 . S
N756 C753 1.384 . S
N757 C749 1.427 . S
N757 C755 1.384 . S
H758 C764 0.930 . S
H759 C768 0.930 . S
H760 C773 0.929 . S
H761 C771 0.929 . S
H762 C766 0.929 . S
H763 C772 0.929 . S
C764 H758 0.930 . S
C764 C765 1.367 . S
C764 C772 1.378 . S
C765 C764 1.367 . S
C765 C773 1.433 . S
C766 H762 0.929 . S
C766 C768 1.378 . S
C766 C770 1.350 . S
C767 C770 1.463 . S
C767 C772 1.350 . S
C767 N775 1.427 . S
C768 H759 0.930 . S
C768 C766 1.378 . S
C768 C769 1.367 . S
C769 C768 1.367 . S
C769 C771 1.433 . S
C770 C766 1.350 . S
C770 C767 1.463 . S
C770 N774 1.427 . S
C771 H761 0.929 . S
C771 C769 1.433 . S
C771 N774 1.384 . S
C772 H763 0.929 . S
C772 C764 1.378 . S
C772 C767 1.350 . S
C773 H760 0.929 . S
C773 C765 1.433 . S
C773 N775 1.384 . S
N774 C770 1.427 . S
N774 C771 1.384 . S
N775 C767 1.427 . S
N775 C773 1.384 . S
H776 C782 0.930 . S
H777 C786 0.930 . S
H778 C791 0.929 . S
H779 C789 0.929 . S
H780 C784 0.929 . S
H781 C790 0.929 . S
C782 H776 0.930 . S
C782 C783 1.367 . S
C782 C790 1.378 . S
C783 C782 1.367 . S
C783 C791 1.433 . S
C784 H780 0.929 . S
C784 C786 1.378 . S
C784 C788 1.350 . S
C785 C788 1.463 . S
C785 C790 1.350 . S
C785 N793 1.427 . S
C786 H777 0.930 . S
C786 C784 1.378 . S
C786 C787 1.367 . S
C787 C786 1.367 . S
C787 C789 1.433 . S
C788 C784 1.350 . S
C788 C785 1.463 . S
C788 N792 1.427 . S
C789 H779 0.929 . S
C789 C787 1.433 . S
C789 N792 1.384 . S
C790 H781 0.929 . S
C790 C782 1.378 . S
C790 C785 1.350 . S
C791 H778 0.929 . S
C791 C783 1.433 . S
C791 N793 1.384 . S
N792 C788 1.427 . S
N792 C789 1.384 . S
N793 C785 1.427 . S
N793 C791 1.384 . S
H794 C800 0.930 . S
H795 C804 0.930 . S
H796 C809 0.929 . S
H797 C807 0.929 . S
H798 C802 0.929 . S
H799 C808 0.929 . S
C800 H794 0.930 . S
C800 C801 1.367 1_565 S
C800 C808 1.378 . S
C801 C800 1.367 1_545 S
C801 C809 1.433 . S
C802 H798 0.929 . S
C802 C804 1.378 . S
C802 C806 1.350 . S
C803 C806 1.463 . S
C803 C808 1.350 1_545 S
C803 N811 1.427 . S
C804 H795 0.930 . S
C804 C802 1.378 . S
C804 C805 1.367 . S
C805 C804 1.367 . S
C805 C807 1.433 1_545 S
C806 C802 1.350 . S
C806 C803 1.463 . S
C806 N810 1.427 1_545 S
C807 H797 0.929 . S
C807 C805 1.433 1_565 S
C807 N810 1.384 . S
C808 H799 0.929 . S
C808 C800 1.378 . S
C808 C803 1.350 1_565 S
C809 H796 0.929 . S
C809 C801 1.433 . S
C809 N811 1.384 . S
N810 C806 1.427 1_565 S
N810 C807 1.384 . S
N811 C803 1.427 . S
N811 C809 1.384 . S
H812 C818 0.930 . S
H813 C822 0.930 . S
H814 C827 0.929 . S
H815 C825 0.929 . S
H816 C820 0.929 . S
H817 C826 0.929 . S
C818 H812 0.930 . S
C818 C819 1.367 . S
C818 C826 1.378 . S
C819 C818 1.367 . S
C819 C827 1.433 . S
C820 H816 0.929 . S
C820 C822 1.378 . S
C820 C824 1.350 . S
C821 C824 1.463 . S
C821 C826 1.350 . S
C821 N829 1.427 . S
C822 H813 0.930 . S
C822 C820 1.378 . S
C822 C823 1.367 . S
C823 C822 1.367 . S
C823 C825 1.433 . S
C824 C820 1.350 . S
C824 C821 1.463 . S
C824 N828 1.427 . S
C825 H815 0.929 . S
C825 C823 1.433 . S
C825 N828 1.384 . S
C826 H817 0.929 . S
C826 C818 1.378 . S
C826 C821 1.350 . S
C827 H814 0.929 . S
C827 C819 1.433 . S
C827 N829 1.384 . S
N828 C824 1.427 . S
N828 C825 1.384 . S
N829 C821 1.427 . S
N829 C827 1.384 . S
H830 C836 0.930 . S
H831 C840 0.930 . S
H832 C845 0.929 . S
H833 C843 0.929 . S
H834 C838 0.929 . S
H835 C844 0.929 . S
C836 H830 0.930 . S
C836 C837 1.367 . S
C836 C844 1.378 . S
C837 C836 1.367 . S
C837 C845 1.433 . S
C838 H834 0.929 . S
C838 C840 1.378 . S
C838 C842 1.350 . S
C839 C842 1.463 . S
C839 C844 1.350 . S
C839 N847 1.427 . S
C840 H831 0.930 . S
C840 C838 1.378 . S
C840 C841 1.367 . S
C841 C840 1.367 . S
C841 C843 1.433 . S
C842 C838 1.350 . S
C842 C839 1.463 . S
C842 N846 1.427 . S
C843 H833 0.929 . S
C843 C841 1.433 . S
C843 N846 1.384 . S
C844 H835 0.929 . S
C844 C836 1.378 . S
C844 C839 1.350 . S
C845 H832 0.929 . S
C845 C837 1.433 . S
C845 N847 1.384 . S
N846 C842 1.427 . S
N846 C843 1.384 . S
N847 C839 1.427 . S
N847 C845 1.384 . S
H848 C854 0.930 . S
H849 C858 0.930 . S
H850 C863 0.929 . S
H851 C861 0.929 . S
H852 C856 0.929 . S
H853 C862 0.929 . S
C854 H848 0.930 . S
C854 C855 1.367 . S
C854 C862 1.378 . S
C855 C854 1.367 . S
C855 C863 1.433 . S
C856 H852 0.929 . S
C856 C858 1.378 . S
C856 C860 1.350 . S
C857 C860 1.463 . S
C857 C862 1.350 . S
C857 N865 1.427 . S
C858 H849 0.930 . S
C858 C856 1.378 . S
C858 C859 1.367 . S
C859 C858 1.367 . S
C859 C861 1.433 . S
C860 C856 1.350 . S
C860 C857 1.463 . S
C860 N864 1.427 . S
C861 H851 0.929 . S
C861 C859 1.433 . S
C861 N864 1.384 . S
C862 H853 0.929 . S
C862 C854 1.378 . S
C862 C857 1.350 . S
C863 H850 0.929 . S
C863 C855 1.433 . S
C863 N865 1.384 . S
N864 C860 1.427 . S
N864 C861 1.384 . S
N865 C857 1.427 . S
N865 C863 1.384 . S
H866 C872 0.930 . S
H867 C876 0.930 . S
H868 C881 0.929 . S
H869 C879 0.929 . S
H870 C874 0.904 1_455 S
H871 C880 0.929 . S
C872 H866 0.930 . S
C872 C873 1.367 . S
C872 C880 1.378 1_455 S
C873 C872 1.367 . S
C873 C881 1.433 . S
C874 H870 0.904 1_655 S
C874 C876 1.394 . S
C874 C878 1.359 . S
C875 C878 1.463 1_455 S
C875 C880 1.350 1_455 S
C875 N883 1.427 . S
C876 H867 0.930 . S
C876 C874 1.394 . S
C876 C877 1.367 . S
C877 C876 1.367 . S
C877 C879 1.433 . S
C878 C874 1.359 . S
C878 C875 1.463 1_655 S
C878 N882 1.427 . S
C879 H869 0.929 . S
C879 C877 1.433 . S
C879 N882 1.384 . S
C880 H871 0.929 . S
C880 C872 1.378 1_655 S
C880 C875 1.350 1_655 S
C881 H868 0.929 . S
C881 C873 1.433 . S
C881 N883 1.384 . S
N882 C878 1.427 . S
N882 C879 1.384 . S
N883 C875 1.427 . S
N883 C881 1.384 . S
H884 C890 0.930 . S
H885 C894 0.930 . S
H886 C899 0.929 . S
H887 C897 0.929 . S
H888 C892 0.929 . S
H889 C898 0.929 . S
C890 H884 0.930 . S
C890 C891 1.367 . S
C890 C898 1.378 . S
C891 C890 1.367 . S
C891 C899 1.433 . S
C892 H888 0.929 . S
C892 C894 1.378 . S
C892 C896 1.350 . S
C893 C896 1.463 . S
C893 C898 1.350 . S
C893 N901 1.427 . S
C894 H885 0.930 . S
C894 C892 1.378 . S
C894 C895 1.367 . S
C895 C894 1.367 . S
C895 C897 1.433 . S
C896 C892 1.350 . S
C896 C893 1.463 . S
C896 N900 1.427 . S
C897 H887 0.929 . S
C897 C895 1.433 . S
C897 N900 1.384 . S
C898 H889 0.929 . S
C898 C890 1.378 . S
C898 C893 1.350 . S
C899 H886 0.929 . S
C899 C891 1.433 . S
C899 N901 1.384 . S
N900 C896 1.427 . S
N900 C897 1.384 . S
N901 C893 1.427 . S
N901 C899 1.384 . S
H902 C908 0.930 . S
H903 C912 0.930 . S
H904 C917 0.929 . S
H905 C915 0.929 . S
H906 C910 0.929 . S
H907 C916 0.929 . S
C908 H902 0.930 . S
C908 C909 1.367 . S
C908 C916 1.378 . S
C909 C908 1.367 . S
C909 C917 1.433 . S
C910 H906 0.929 . S
C910 C912 1.378 . S
C910 C914 1.350 . S
C911 C914 1.463 . S
C911 C916 1.350 . S
C911 N919 1.427 . S
C912 H903 0.930 . S
C912 C910 1.378 . S
C912 C913 1.367 . S
C913 C912 1.367 . S
C913 C915 1.433 . S
C914 C910 1.350 . S
C914 C911 1.463 . S
C914 N918 1.427 . S
C915 H905 0.929 . S
C915 C913 1.433 . S
C915 N918 1.384 . S
C916 H907 0.929 . S
C916 C908 1.378 . S
C916 C911 1.350 . S
C917 H904 0.929 . S
C917 C909 1.433 . S
C917 N919 1.384 . S
N918 C914 1.427 . S
N918 C915 1.384 . S
N919 C911 1.427 . S
N919 C917 1.384 . S
H920 C926 0.930 . S
H921 C930 0.930 . S
H922 C935 0.929 . S
H923 C933 0.929 . S
H924 C928 0.929 . S
H925 C934 0.929 . S
C926 H920 0.930 . S
C926 C927 1.367 . S
C926 C934 1.378 . S
C927 C926 1.367 . S
C927 C935 1.433 . S
C928 H924 0.929 . S
C928 C930 1.378 . S
C928 C932 1.350 . S
C929 C932 1.463 . S
C929 C934 1.350 . S
C929 N937 1.427 . S
C930 H921 0.930 . S
C930 C928 1.378 . S
C930 C931 1.367 . S
C931 C930 1.367 . S
C931 C933 1.433 . S
C932 C928 1.350 . S
C932 C929 1.463 . S
C932 N936 1.427 . S
C933 H923 0.929 . S
C933 C931 1.433 . S
C933 N936 1.384 . S
C934 H925 0.929 . S
C934 C926 1.378 . S
C934 C929 1.350 . S
C935 H922 0.929 . S
C935 C927 1.433 . S
C935 N937 1.384 . S
N936 C932 1.427 . S
N936 C933 1.384 . S
N937 C929 1.427 . S
N937 C935 1.384 . S
H938 C944 0.930 . S
H939 C948 0.930 . S
H940 C953 0.929 . S
H941 C951 0.929 . S
H942 C946 0.929 . S
H943 C952 0.929 . S
C944 H938 0.930 . S
C944 C945 1.367 . S
C944 C952 1.378 1_554 S
C945 C944 1.367 . S
C945 C953 1.433 1_455 S
C946 H942 0.929 . S
C946 C948 1.378 . S
C946 C950 1.350 1_655 S
C947 C950 1.463 . S
C947 C952 1.350 . S
C947 N955 1.427 1_455 S
C948 H939 0.930 . S
C948 C946 1.378 . S
C948 C949 1.367 1_655 S
C949 C948 1.367 1_455 S
C949 C951 1.433 . S
C950 C946 1.350 1_455 S
C950 C947 1.463 . S
C950 N954 1.427 . S
C951 H941 0.929 . S
C951 C949 1.433 . S
C951 N954 1.384 . S
C952 H943 0.929 . S
C952 C944 1.378 1_556 S
C952 C947 1.350 . S
C953 H940 0.929 . S
C953 C945 1.433 1_655 S
C953 N955 1.384 1_554 S
N954 C950 1.427 . S
N954 C951 1.384 . S
N955 C947 1.427 1_655 S
N955 C953 1.384 1_556 S
H956 C962 0.930 . S
H957 C966 0.930 . S
H958 C971 0.929 . S
H959 C969 0.929 . S
H960 C964 0.929 . S
H961 C970 0.929 . S
C962 H956 0.930 . S
C962 C963 1.367 . S
C962 C970 1.378 . S
C963 C962 1.367 . S
C963 C971 1.433 . S
C964 H960 0.929 . S
C964 C966 1.378 . S
C964 C968 1.350 . S
C965 C968 1.463 . S
C965 C970 1.350 . S
C965 N973 1.427 . S
C966 H957 0.930 . S
C966 C964 1.378 . S
C966 C967 1.367 . S
C967 C966 1.367 . S
C967 C969 1.433 . S
C968 C964 1.350 . S
C968 C965 1.463 . S
C968 N972 1.427 . S
C969 H959 0.929 . S
C969 C967 1.433 . S
C969 N972 1.384 . S
C970 H961 0.929 . S
C970 C962 1.378 . S
C970 C965 1.350 . S
C971 H958 0.929 . S
C971 C963 1.433 . S
C971 N973 1.384 . S
N972 C968 1.427 . S
N972 C969 1.384 . S
N973 C965 1.427 . S
N973 C971 1.384 . S
H974 C980 0.930 . S
H975 C984 0.930 . S
H976 C989 0.929 . S
H977 C987 0.929 . S
H978 C982 0.929 . S
H979 C988 0.929 . S
C980 H974 0.930 . S
C980 C981 1.367 . S
C980 C988 1.378 . S
C981 C980 1.367 . S
C981 C989 1.433 1_556 S
C982 H978 0.929 . S
C982 C984 1.378 . S
C982 C986 1.350 . S
C983 C986 1.463 . S
C983 C988 1.350 . S
C983 N991 1.427 . S
C984 H975 0.930 . S
C984 C982 1.378 . S
C984 C985 1.367 . S
C985 C984 1.367 . S
C985 C987 1.433 . S
C986 C982 1.350 . S
C986 C983 1.463 . S
C986 N990 1.427 . S
C987 H977 0.929 . S
C987 C985 1.433 . S
C987 N990 1.384 . S
C988 H979 0.929 . S
C988 C980 1.378 . S
C988 C983 1.350 . S
C989 H976 0.929 . S
C989 C981 1.433 1_554 S
C989 N991 1.384 1_554 S
N990 C986 1.427 . S
N990 C987 1.384 . S
N991 C983 1.427 . S
N991 C989 1.384 1_556 S
H992 C998 0.930 . S
H993 C1002 0.930 . S
H994 C1007 0.929 . S
H995 C1005 0.929 . S
H996 C1000 0.929 . S
H997 C1006 0.929 . S
C998 H992 0.930 . S
C998 C999 1.367 . S
C998 C1006 1.378 . S
C999 C998 1.367 . S
C999 C1007 1.433 . S
C1000 H996 0.929 . S
C1000 C1002 1.378 . S
C1000 C1004 1.350 . S
C1001 C1004 1.463 . S
C1001 C1006 1.350 . S
C1001 N1009 1.427 . S
C1002 H993 0.930 . S
C1002 C1000 1.378 . S
C1002 C1003 1.367 . S
C1003 C1002 1.367 . S
C1003 C1005 1.433 . S
C1004 C1000 1.350 . S
C1004 C1001 1.463 . S
C1004 N1008 1.427 . S
C1005 H995 0.929 . S
C1005 C1003 1.433 . S
C1005 N1008 1.384 . S
C1006 H997 0.929 . S
C1006 C998 1.378 . S
C1006 C1001 1.350 . S
C1007 H994 0.929 . S
C1007 C999 1.433 . S
C1007 N1009 1.384 . S
N1008 C1004 1.427 . S
N1008 C1005 1.384 . S
N1009 C1001 1.427 . S
N1009 C1007 1.384 . S
H1010 C1016 0.930 . S
H1011 C1020 0.930 . S
H1012 C1025 0.929 . S
H1013 C1023 0.929 . S
H1014 C1018 0.929 . S
H1015 C1024 0.929 . S
C1016 H1010 0.930 . S
C1016 C1017 1.367 . S
C1016 C1024 1.378 . S
C1017 C1016 1.367 . S
C1017 C1025 1.433 . S
C1018 H1014 0.929 . S
C1018 C1020 1.378 . S
C1018 C1022 1.350 . S
C1019 C1022 1.463 . S
C1019 C1024 1.350 . S
C1019 N1027 1.427 . S
C1020 H1011 0.930 . S
C1020 C1018 1.378 . S
C1020 C1021 1.367 . S
C1021 C1020 1.367 . S
C1021 C1023 1.433 . S
C1022 C1018 1.350 . S
C1022 C1019 1.463 . S
C1022 N1026 1.427 . S
C1023 H1013 0.929 . S
C1023 C1021 1.433 . S
C1023 N1026 1.384 . S
C1024 H1015 0.929 . S
C1024 C1016 1.378 . S
C1024 C1019 1.350 . S
C1025 H1012 0.929 . S
C1025 C1017 1.433 . S
C1025 N1027 1.384 . S
N1026 C1022 1.427 . S
N1026 C1023 1.384 . S
N1027 C1019 1.427 . S
N1027 C1025 1.384 . S
H1028 C1034 0.930 . S
H1029 C1038 0.930 . S
H1030 C1043 0.929 . S
H1031 C1041 0.929 . S
H1032 C1036 0.929 . S
H1033 C1042 0.929 . S
C1034 H1028 0.930 . S
C1034 C1035 1.367 . S
C1034 C1042 1.378 . S
C1035 C1034 1.367 . S
C1035 C1043 1.433 . S
C1036 H1032 0.929 . S
C1036 C1038 1.378 . S
C1036 C1040 1.350 . S
C1037 C1040 1.463 . S
C1037 C1042 1.350 . S
C1037 N1045 1.427 . S
C1038 H1029 0.930 . S
C1038 C1036 1.378 . S
C1038 C1039 1.367 . S
C1039 C1038 1.367 . S
C1039 C1041 1.433 . S
C1040 C1036 1.350 . S
C1040 C1037 1.463 . S
C1040 N1044 1.427 . S
C1041 H1031 0.929 . S
C1041 C1039 1.433 . S
C1041 N1044 1.384 . S
C1042 H1033 0.929 . S
C1042 C1034 1.378 . S
C1042 C1037 1.350 . S
C1043 H1030 0.929 . S
C1043 C1035 1.433 . S
C1043 N1045 1.384 . S
N1044 C1040 1.427 . S
N1044 C1041 1.384 . S
N1045 C1037 1.427 . S
N1045 C1043 1.384 . S
H1046 C1052 0.930 . S
H1047 C1056 0.930 . S
H1048 C1061 0.929 . S
H1049 C1059 0.929 . S
H1050 C1054 0.929 . S
H1051 C1060 0.929 . S
C1052 H1046 0.930 . S
C1052 C1053 1.367 . S
C1052 C1060 1.378 . S
C1053 C1052 1.367 . S
C1053 C1061 1.433 . S
C1054 H1050 0.929 . S
C1054 C1056 1.378 . S
C1054 C1058 1.350 . S
C1055 C1058 1.463 . S
C1055 C1060 1.350 . S
C1055 N1063 1.427 . S
C1056 H1047 0.930 . S
C1056 C1054 1.378 . S
C1056 C1057 1.367 . S
C1057 C1056 1.367 . S
C1057 C1059 1.433 . S
C1058 C1054 1.350 . S
C1058 C1055 1.463 . S
C1058 N1062 1.427 . S
C1059 H1049 0.929 . S
C1059 C1057 1.433 . S
C1059 N1062 1.384 . S
C1060 H1051 0.929 . S
C1060 C1052 1.378 . S
C1060 C1055 1.350 . S
C1061 H1048 0.929 . S
C1061 C1053 1.433 . S
C1061 N1063 1.384 . S
N1062 C1058 1.427 . S
N1062 C1059 1.384 . S
N1063 C1055 1.427 . S
N1063 C1061 1.384 . S
H1064 C1070 0.930 . S
H1065 C1074 0.930 . S
H1066 C1079 0.929 . S
H1067 C1077 0.929 . S
H1068 C1072 0.929 . S
H1069 C1078 0.929 . S
C1070 H1064 0.930 . S
C1070 C1071 1.367 . S
C1070 C1078 1.378 . S
C1071 C1070 1.367 . S
C1071 C1079 1.433 . S
C1072 H1068 0.929 . S
C1072 C1074 1.378 . S
C1072 C1076 1.350 . S
C1073 C1076 1.463 . S
C1073 C1078 1.350 . S
C1073 N1081 1.427 . S
C1074 H1065 0.930 . S
C1074 C1072 1.378 . S
C1074 C1075 1.367 . S
C1075 C1074 1.367 . S
C1075 C1077 1.433 . S
C1076 C1072 1.350 . S
C1076 C1073 1.463 . S
C1076 N1080 1.427 . S
C1077 H1067 0.929 . S
C1077 C1075 1.433 . S
C1077 N1080 1.384 . S
C1078 H1069 0.929 . S
C1078 C1070 1.378 . S
C1078 C1073 1.350 . S
C1079 H1066 0.929 . S
C1079 C1071 1.433 . S
C1079 N1081 1.384 . S
N1080 C1076 1.427 . S
N1080 C1077 1.384 . S
N1081 C1073 1.427 . S
N1081 C1079 1.384 . S
H1082 C1088 0.930 . S
H1083 C1092 0.930 . S
H1084 C1097 0.929 . S
H1085 C1095 0.929 . S
H1086 C1090 0.929 . S
H1087 C1096 0.929 . S
C1088 H1082 0.930 . S
C1088 C1089 1.367 . S
C1088 C1096 1.378 . S
C1089 C1088 1.367 . S
C1089 C1097 1.433 . S
C1090 H1086 0.929 . S
C1090 C1092 1.378 . S
C1090 C1094 1.350 . S
C1091 C1094 1.463 . S
C1091 C1096 1.350 . S
C1091 N1099 1.427 . S
C1092 H1083 0.930 . S
C1092 C1090 1.378 . S
C1092 C1093 1.367 . S
C1093 C1092 1.367 . S
C1093 C1095 1.433 . S
C1094 C1090 1.350 . S
C1094 C1091 1.463 . S
C1094 N1098 1.427 . S
C1095 H1085 0.929 . S
C1095 C1093 1.433 . S
C1095 N1098 1.384 . S
C1096 H1087 0.929 . S
C1096 C1088 1.378 . S
C1096 C1091 1.350 . S
C1097 H1084 0.929 . S
C1097 C1089 1.433 . S
C1097 N1099 1.384 . S
N1098 C1094 1.427 . S
N1098 C1095 1.384 . S
N1099 C1091 1.427 . S
N1099 C1097 1.384 . S
H1100 C1106 0.930 . S
H1101 C1110 0.930 . S
H1102 C1115 0.929 . S
H1103 C1113 0.929 . S
H1104 C1108 0.929 . S
H1105 C1114 0.929 . S
C1106 H1100 0.930 . S
C1106 C1107 1.367 . S
C1106 C1114 1.378 . S
C1107 C1106 1.367 . S
C1107 C1115 1.433 . S
C1108 H1104 0.929 . S
C1108 C1110 1.378 . S
C1108 C1112 1.350 . S
C1109 C1112 1.463 . S
C1109 C1114 1.350 . S
C1109 N1117 1.427 . S
C1110 H1101 0.930 . S
C1110 C1108 1.378 . S
C1110 C1111 1.367 . S
C1111 C1110 1.367 . S
C1111 C1113 1.433 . S
C1112 C1108 1.350 . S
C1112 C1109 1.463 . S
C1112 N1116 1.427 . S
C1113 H1103 0.929 . S
C1113 C1111 1.433 . S
C1113 N1116 1.384 . S
C1114 H1105 0.929 . S
C1114 C1106 1.378 . S
C1114 C1109 1.350 . S
C1115 H1102 0.929 . S
C1115 C1107 1.433 . S
C1115 N1117 1.384 . S
N1116 C1112 1.427 . S
N1116 C1113 1.384 . S
N1117 C1109 1.427 . S
N1117 C1115 1.384 . S
H1118 C1124 0.930 . S
H1119 C1128 0.930 . S
H1120 C1133 0.929 . S
H1121 C1131 0.929 . S
H1122 C1126 0.929 . S
H1123 C1132 0.929 . S
C1124 H1118 0.930 . S
C1124 C1125 1.367 . S
C1124 C1132 1.378 . S
C1125 C1124 1.367 . S
C1125 C1133 1.433 . S
C1126 H1122 0.929 . S
C1126 C1128 1.378 . S
C1126 C1130 1.350 . S
C1127 C1130 1.463 . S
C1127 C1132 1.350 . S
C1127 N1135 1.427 . S
C1128 H1119 0.930 . S
C1128 C1126 1.378 . S
C1128 C1129 1.367 . S
C1129 C1128 1.367 . S
C1129 C1131 1.433 . S
C1130 C1126 1.350 . S
C1130 C1127 1.463 . S
C1130 N1134 1.427 . S
C1131 H1121 0.929 . S
C1131 C1129 1.433 . S
C1131 N1134 1.384 . S
C1132 H1123 0.929 . S
C1132 C1124 1.378 . S
C1132 C1127 1.350 . S
C1133 H1120 0.929 . S
C1133 C1125 1.433 . S
C1133 N1135 1.384 . S
N1134 C1130 1.427 . S
N1134 C1131 1.384 . S
N1135 C1127 1.427 . S
N1135 C1133 1.384 . S
H1136 C1142 0.930 . S
H1137 C1146 0.930 . S
H1138 C1151 0.929 . S
H1139 C1149 0.929 . S
H1140 C1144 0.929 . S
H1141 C1150 0.929 . S
C1142 H1136 0.930 . S
C1142 C1143 1.367 . S
C1142 C1150 1.378 . S
C1143 C1142 1.367 . S
C1143 C1151 1.433 1_556 S
C1144 H1140 0.929 . S
C1144 C1146 1.378 . S
C1144 C1148 1.350 1_554 S
C1145 C1148 1.463 . S
C1145 C1150 1.350 . S
C1145 N1153 1.427 1_556 S
C1146 H1137 0.930 . S
C1146 C1144 1.378 . S
C1146 C1147 1.367 1_554 S
C1147 C1146 1.367 1_556 S
C1147 C1149 1.433 . S
C1148 C1144 1.350 1_556 S
C1148 C1145 1.463 . S
C1148 N1152 1.427 . S
C1149 H1139 0.929 . S
C1149 C1147 1.433 . S
C1149 N1152 1.384 . S
C1150 H1141 0.929 . S
C1150 C1142 1.378 . S
C1150 C1145 1.350 . S
C1151 H1138 0.929 . S
C1151 C1143 1.433 1_554 S
C1151 N1153 1.384 . S
N1152 C1148 1.427 . S
N1152 C1149 1.384 . S
N1153 C1145 1.427 1_554 S
N1153 C1151 1.384 . S
H1154 C1160 0.930 . S
H1155 C1164 0.930 . S
H1156 C1169 0.929 . S
H1157 C1167 0.929 . S
H1158 C1162 0.929 . S
H1159 C1168 0.929 . S
C1160 H1154 0.930 . S
C1160 C1161 1.367 . S
C1160 C1168 1.378 . S
C1161 C1160 1.367 . S
C1161 C1169 1.433 . S
C1162 H1158 0.929 . S
C1162 C1164 1.378 . S
C1162 C1166 1.350 . S
C1163 C1166 1.463 . S
C1163 C1168 1.350 . S
C1163 N1171 1.427 . S
C1164 H1155 0.930 . S
C1164 C1162 1.378 . S
C1164 C1165 1.367 . S
C1165 C1164 1.367 . S
C1165 C1167 1.433 . S
C1166 C1162 1.350 . S
C1166 C1163 1.463 . S
C1166 N1170 1.427 . S
C1167 H1157 0.929 . S
C1167 C1165 1.433 . S
C1167 N1170 1.384 . S
C1168 H1159 0.929 . S
C1168 C1160 1.378 . S
C1168 C1163 1.350 . S
C1169 H1156 0.929 . S
C1169 C1161 1.433 . S
C1169 N1171 1.384 . S
N1170 C1166 1.427 . S
N1170 C1167 1.384 . S
N1171 C1163 1.427 . S
N1171 C1169 1.384 . S
H1172 C1178 0.930 . S
H1173 C1182 0.930 . S
H1174 C1187 0.929 . S
H1175 C1185 0.929 . S
H1176 C1180 0.929 . S
H1177 C1186 0.929 . S
C1178 H1172 0.930 . S
C1178 C1179 1.367 . S
C1178 C1186 1.378 . S
C1179 C1178 1.367 . S
C1179 C1187 1.433 . S
C1180 H1176 0.929 . S
C1180 C1182 1.378 . S
C1180 C1184 1.350 1_556 S
C1181 C1184 1.463 . S
C1181 C1186 1.350 . S
C1181 N1189 1.427 . S
C1182 H1173 0.930 . S
C1182 C1180 1.378 . S
C1182 C1183 1.367 1_556 S
C1183 C1182 1.367 1_554 S
C1183 C1185 1.433 . S
C1184 C1180 1.350 1_554 S
C1184 C1181 1.463 . S
C1184 N1188 1.427 . S
C1185 H1175 0.929 . S
C1185 C1183 1.433 . S
C1185 N1188 1.384 . S
C1186 H1177 0.929 . S
C1186 C1178 1.378 . S
C1186 C1181 1.350 . S
C1187 H1174 0.929 . S
C1187 C1179 1.433 . S
C1187 N1189 1.384 . S
N1188 C1184 1.427 . S
N1188 C1185 1.384 . S
N1189 C1181 1.427 . S
N1189 C1187 1.384 . S
H1190 C1196 0.930 . S
H1191 C1200 0.930 . S
H1192 C1205 0.929 . S
H1193 C1203 0.929 . S
H1194 C1198 0.929 . S
H1195 C1204 0.929 . S
C1196 H1190 0.930 . S
C1196 C1197 1.367 1_565 S
C1196 C1204 1.378 . S
C1197 C1196 1.367 1_545 S
C1197 C1205 1.433 . S
C1198 H1194 0.929 . S
C1198 C1200 1.378 . S
C1198 C1202 1.350 . S
C1199 C1202 1.463 . S
C1199 C1204 1.350 . S
C1199 N1207 1.427 . S
C1200 H1191 0.930 . S
C1200 C1198 1.378 . S
C1200 C1201 1.367 . S
C1201 C1200 1.367 . S
C1201 C1203 1.433 . S
C1202 C1198 1.350 . S
C1202 C1199 1.463 . S
C1202 N1206 1.427 . S
C1203 H1193 0.929 . S
C1203 C1201 1.433 . S
C1203 N1206 1.384 . S
C1204 H1195 0.929 . S
C1204 C1196 1.378 . S
C1204 C1199 1.350 . S
C1205 H1192 0.929 . S
C1205 C1197 1.433 . S
C1205 N1207 1.384 1_545 S
N1206 C1202 1.427 . S
N1206 C1203 1.384 . S
N1207 C1199 1.427 . S
N1207 C1205 1.384 1_565 S
C355 C187 1.512 . S
C351 C60 1.554 . S
C373 C195 1.147 . S
C369 C76 1.347 . S
C387 C81 1.634 . S
C391 C215 1.613 . S
C409 C229 1.553 . S
C405 C48 1.597 . S
C427 C244 1.532 . S
C423 C115 1.528 . S
C445 C258 1.613 . S
C441 C136 1.613 . S
C459 C131 1.411 . S
C463 C272 1.409 . S
C481 C278 1.486 . S
C477 C104 1.523 . S
C495 C126 1.534 . S
C499 C292 1.506 . S
C517 C313 1.437 . S
C513 C103 1.452 . S
C531 C120 1.391 . S
C535 C293 1.175 . S
C553 C314 1.437 . S
C549 C142 1.440 . S
C567 C82 1.481 . S
C571 C321 1.233 . S
C585 C54 1.790 . S
C589 C327 1.763 . S
C603 C65 1.414 . S
C607 C320 1.373 . S
C621 C71 1.244 . S
C625 C328 1.252 . S
C639 C37 1.576 . S
C643 C222 1.538 . S
C657 C158 1.936 . S
C661 C223 1.720 . S
C679 C180 1.367 . S
C675 C169 1.419 1_565 S
C697 C201 1.241 . S
C693 C98 1.242 . S
C711 C49 1.708 1_545 S
C715 C236 1.689 . S
C733 C286 1.452 . S
C729 C125 1.446 . S
C751 C237 1.151 . S
C747 C109 1.342 . S
C769 C265 1.496 . S
C765 C137 1.803 . S
C787 C271 1.520 . S
C783 C159 1.553 . S
C801 C175 1.350 . S
C805 C279 1.122 . S
C819 C92 1.633 . S
C823 C243 1.611 . S
C841 C257 1.563 . S
C837 C147 1.599 . S
C855 C38 1.523 . S
C859 C216 1.529 . S
C877 C230 1.613 . S
C873 C4 1.614 . S
C895 C188 1.406 . S
C891 C21 1.409 . S
C913 C194 1.491 . S
C909 C27 1.516 . S
C927 C16 1.532 . S
C931 C306 1.498 . S
C945 C26 1.452 . S
C949 C299 1.431 . S
C963 C43 1.391 . S
C967 C307 1.175 . S
C981 C10 1.441 1_556 S
C985 C300 1.436 . S
C1003 C335 1.216 . S
C999 C93 1.478 . S
C1021 C341 1.763 . S
C1017 C153 1.791 . S
C1039 C334 1.371 . S
C1035 C164 1.410 . S
C1053 C170 1.241 1_554 S
C1057 C342 1.252 . S
C1071 C114 1.577 . S
C1075 C250 1.540 . S
C1093 C251 1.714 . S
C1089 C59 1.937 . S
C1111 C264 1.369 . S
C1107 C70 1.418 . S
C1129 C285 1.243 . S
C1125 C87 1.251 . S
C1143 C148 1.704 . S
C1147 C208 1.686 . S
C1165 C202 1.452 . S
C1161 C15 1.451 . S
C1179 C32 1.341 . S
C1183 C209 1.176 . S
C1201 C181 1.501 . S
C1197 C5 1.803 . S
