# Generated by pormake.
# Topology nom, (4,4)-cn, num edge types: 1
# Building blocks:
#     Node 0, Type 0, BuildingBlock: NAHDIM_clean_linker_0, # of connection points: 4
#     Node 1, Type 0, BuildingBlock: NAHDIM_clean_linker_0, # of connection points: 4
#     Node 2, Type 0, BuildingBlock: NAHDIM_clean_linker_0, # of connection points: 4
#     Node 3, Type 0, BuildingBlock: NAHDIM_clean_linker_0, # of connection points: 4
#     Node 4, Type 0, BuildingBlock: NAHDIM_clean_linker_0, # of connection points: 4
#     Node 5, Type 0, BuildingBlock: NAHDIM_clean_linker_0, # of connection points: 4
#     Node 6, Type 1, BuildingBlock: CEKHIL_clean_sbu_0, # of connection points: 4
#     Node 7, Type 1, BuildingBlock: CEKHIL_clean_sbu_0, # of connection points: 4
#     Node 8, Type 1, BuildingBlock: CEKHIL_clean_sbu_0, # of connection points: 4
#     Node 9, Type 1, BuildingBlock: CEKHIL_clean_sbu_0, # of connection points: 4
#     Node 10, Type 1, BuildingBlock: CEKHIL_clean_sbu_0, # of connection points: 4
#     Node 11, Type 1, BuildingBlock: CEKHIL_clean_sbu_0, # of connection points: 4
#     Edge 12, Type (0, 1), BuildingBlock: TEMPAE_clean_linker_10, # of connection points: 2
#     Edge 13, Type (0, 1), BuildingBlock: TEMPAE_clean_linker_10, # of connection points: 2
#     Edge 14, Type (0, 1), BuildingBlock: TEMPAE_clean_linker_10, # of connection points: 2
#     Edge 15, Type (0, 1), BuildingBlock: TEMPAE_clean_linker_10, # of connection points: 2
#     Edge 16, Type (0, 1), BuildingBlock: TEMPAE_clean_linker_10, # of connection points: 2
#     Edge 17, Type (0, 1), BuildingBlock: TEMPAE_clean_linker_10, # of connection points: 2
#     Edge 18, Type (0, 1), BuildingBlock: TEMPAE_clean_linker_10, # of connection points: 2
#     Edge 19, Type (0, 1), BuildingBlock: TEMPAE_clean_linker_10, # of connection points: 2
#     Edge 20, Type (0, 1), BuildingBlock: TEMPAE_clean_linker_10, # of connection points: 2
#     Edge 21, Type (0, 1), BuildingBlock: TEMPAE_clean_linker_10, # of connection points: 2
#     Edge 22, Type (0, 1), BuildingBlock: TEMPAE_clean_linker_10, # of connection points: 2
#     Edge 23, Type (0, 1), BuildingBlock: TEMPAE_clean_linker_10, # of connection points: 2
#     Edge 24, Type (0, 1), BuildingBlock: TEMPAE_clean_linker_10, # of connection points: 2
#     Edge 25, Type (0, 1), BuildingBlock: TEMPAE_clean_linker_10, # of connection points: 2
#     Edge 26, Type (0, 1), BuildingBlock: TEMPAE_clean_linker_10, # of connection points: 2
#     Edge 27, Type (0, 1), BuildingBlock: TEMPAE_clean_linker_10, # of connection points: 2
#     Edge 28, Type (0, 1), BuildingBlock: TEMPAE_clean_linker_10, # of connection points: 2
#     Edge 29, Type (0, 1), BuildingBlock: TEMPAE_clean_linker_10, # of connection points: 2
#     Edge 30, Type (0, 1), BuildingBlock: TEMPAE_clean_linker_10, # of connection points: 2
#     Edge 31, Type (0, 1), BuildingBlock: TEMPAE_clean_linker_10, # of connection points: 2
#     Edge 32, Type (0, 1), BuildingBlock: TEMPAE_clean_linker_10, # of connection points: 2
#     Edge 33, Type (0, 1), BuildingBlock: TEMPAE_clean_linker_10, # of connection points: 2
#     Edge 34, Type (0, 1), BuildingBlock: TEMPAE_clean_linker_10, # of connection points: 2
#     Edge 35, Type (0, 1), BuildingBlock: TEMPAE_clean_linker_10, # of connection points: 2
# Relax obj value: 0.044
# Max RMSD: 0.128
# Mean RMSD: 0.097
data_MOF--net-nom--node1-CEKHIL_clean_sbu_0--node2-NAHDIM_clean_linker_0--edge1-TEMPAE_clean_linker_10
_symmetry_space_group_name_H-M    P1
_symmetry_Int_Tables_number       1
_symmetry_cell_setting            triclinic
loop_
_symmetry_equiv_pos_as_xyz
'x, y, z'
_cell_length_a     58.99057
_cell_length_b     58.282262
_cell_length_c     70.723338
_cell_angle_alpha  90.121573
_cell_angle_beta   90.120536
_cell_angle_gamma 121.1958
loop_
_atom_site_label
_atom_site_type_symbol
_atom_site_fract_x
_atom_site_fract_y
_atom_site_fract_z
_atom_type_partial_charge
C0 C 0.15722 0.6083 0.23706 0.0
C1 C 0.17115 0.61028 0.25588 0.0
C2 C 0.13198 0.59174 0.27624 0.0
C3 C 0.1223 0.56435 0.27314 0.0
C4 C 0.09627 0.54485 0.27814 0.0
C5 C 0.07948 0.55297 0.28603 0.0
C6 C 0.08937 0.58056 0.2894 0.0
C7 C 0.11572 0.59949 0.28484 0.0
C8 C 0.08661 0.51562 0.27473 0.0
C9 C 0.072 0.59027 0.29728 0.0
C10 C 0.91883 0.47128 0.18257 0.0
C11 C 0.93822 0.48739 0.19769 0.0
C12 C 0.95831 0.48121 0.226 0.0
C13 C 0.9681 0.5072 0.23322 0.0
C14 C 0.9836 0.51582 0.24973 0.0
C15 C 0.98978 0.49827 0.25905 0.0
C16 C 0.98006 0.47215 0.25178 0.0
C17 C 0.96422 0.4639 0.23543 0.0
C18 C 0.99335 0.54369 0.25725 0.0
C19 C 0.98655 0.45304 0.26122 0.0
C20 C 0.88026 0.455 0.3536 0.0
C21 C 0.89745 0.48273 0.35161 0.0
C22 C 0.92497 0.49392 0.35141 0.0
C23 C 0.93539 0.47694 0.35328 0.0
C24 C 0.91813 0.4492 0.35648 0.0
C25 C 0.89067 0.43858 0.35677 0.0
C26 C 0.94288 0.52375 0.3486 0.0
C27 C 0.92869 0.43069 0.3588 0.0
C28 C 0.0638 0.5832 0.4458 0.0
C29 C 0.08383 0.57672 0.43729 0.0
C30 C 0.05676 0.54202 0.41364 0.0
C31 C 0.05346 0.559 0.40129 0.0
C32 C 0.03757 0.54878 0.38505 0.0
C33 C 0.02552 0.52119 0.3806 0.0
C34 C 0.02929 0.50415 0.39271 0.0
C35 C 0.04472 0.5148 0.40915 0.0
C36 C 0.03352 0.56754 0.37274 0.0
C37 C 0.01691 0.47468 0.38835 0.0
C38 C 0.05113 0.53296 0.28958 0.0
C39 C 0.03405 0.52332 0.27398 0.0
C40 C 0.00664 0.50734 0.2763 0.0
C41 C 0.99579 0.50132 0.29469 0.0
C42 C 0.96825 0.48689 0.29756 0.0
C43 C 0.95779 0.48215 0.31571 0.0
C44 C 0.97448 0.49146 0.3317 0.0
C45 C 0.96405 0.48798 0.35015 0.0
C46 C 0.9811 0.49713 0.36576 0.0
C47 C 0.00858 0.51015 0.36346 0.0
C48 C 0.01943 0.51426 0.34507 0.0
C49 C 0.04697 0.52764 0.34217 0.0
C50 C 0.05745 0.53342 0.32399 0.0
C51 C 0.04076 0.52561 0.30805 0.0
C52 C 0.01295 0.51042 0.31062 0.0
C53 C 0.00227 0.50511 0.32915 0.0
C54 C 0.83109 0.42731 0.32313 0.0
C55 C 0.84039 0.44884 0.33854 0.0
O56 O 0.15661 0.61133 0.27088 0.0
O57 O 0.07094 0.55084 0.43004 0.0
O58 O 0.85361 0.44359 0.35253 0.0
O59 O 0.94318 0.47209 0.21008 0.0
H60 H 0.17335 0.59255 0.25744 0.0
H61 H 0.13753 0.58951 0.23647 0.0
H62 H 0.15438 0.62562 0.23544 0.0
H63 H 0.1691 0.60801 0.22499 0.0
H64 H 0.13488 0.55802 0.26686 0.0
H65 H 0.12347 0.62066 0.28726 0.0
H66 H 0.07269 0.50822 0.26255 0.0
H67 H 0.10315 0.51231 0.27156 0.0
H68 H 0.0757 0.50349 0.28727 0.0
H69 H 0.08139 0.61237 0.29606 0.0
H70 H 0.0526 0.58049 0.28981 0.0
H71 H 0.06812 0.58492 0.31245 0.0
H72 H 0.9567 0.50566 0.19273 0.0
H73 H 0.9305 0.47823 0.16906 0.0
H74 H 0.91705 0.45107 0.18247 0.0
H75 H 0.88666 0.47611 0.18808 0.0
H76 H 0.9636 0.52082 0.22612 0.0
H77 H 0.95658 0.4439 0.22977 0.0
H78 H 0.98807 0.54273 0.27241 0.0
H79 H 0.01529 0.55589 0.25625 0.0
H80 H 0.98495 0.55405 0.24933 0.0
H81 H 0.97893 0.43409 0.25309 0.0
H82 H 0.00835 0.46271 0.26288 0.0
H83 H 0.97775 0.44811 0.27557 0.0
H84 H 0.85375 0.46853 0.33172 0.0
H85 H 0.88939 0.49563 0.35011 0.0
H86 H 0.87715 0.41725 0.3587 0.0
H87 H 0.95256 0.52757 0.33457 0.0
H88 H 0.93189 0.53449 0.34931 0.0
H89 H 0.95877 0.53221 0.3595 0.0
H90 H 0.91274 0.40976 0.36192 0.0
H91 H 0.93893 0.4307 0.34564 0.0
H92 H 0.94351 0.43805 0.37043 0.0
H93 H 0.09496 0.59124 0.42579 0.0
H94 H 0.07436 0.60363 0.45214 0.0
H95 H 0.0501 0.58269 0.43483 0.0
H96 H 0.05171 0.56845 0.4569 0.0
H97 H 0.0629 0.58021 0.40424 0.0
H98 H 0.04741 0.50183 0.41866 0.0
H99 H 0.04452 0.57109 0.35931 0.0
H100 H 0.01221 0.5585 0.36916 0.0
H101 H 0.04065 0.58725 0.3797 0.0
H102 H 0.02388 0.46471 0.39814 0.0
H103 H 0.99503 0.46458 0.3895 0.0
H104 H 0.02156 0.47193 0.37361 0.0
H105 H 0.04215 0.52895 0.25984 0.0
H106 H 0.95445 0.47951 0.2858 0.0
H107 H 0.93643 0.47123 0.31703 0.0
H108 H 0.97292 0.49483 0.37984 0.0
H109 H 0.06075 0.53431 0.35393 0.0
H110 H 0.0788 0.54429 0.32256 0.0
H111 H 0.81768 0.40705 0.32912 0.0
H112 H 0.82045 0.43115 0.31176 0.0
H113 H 0.84847 0.42767 0.31677 0.0
C114 C 0.4149 0.86931 0.57361 0.0
C115 C 0.41023 0.8572 0.55367 0.0
C116 C 0.42401 0.89808 0.5353 0.0
C117 C 0.45151 0.90872 0.53609 0.0
C118 C 0.46935 0.9352 0.5305 0.0
C119 C 0.45951 0.95149 0.52433 0.0
C120 C 0.43184 0.94078 0.52338 0.0
C121 C 0.41446 0.91402 0.52858 0.0
C122 C 0.49874 0.94582 0.5313 0.0
C123 C 0.42062 0.9577 0.5172 0.0
C124 C 0.5503 0.05344 0.61979 0.0
C125 C 0.5468 0.0769 0.61442 0.0
C126 C 0.54557 0.07296 0.58032 0.0
C127 C 0.51981 0.06628 0.5755 0.0
C128 C 0.50762 0.05164 0.55895 0.0
C129 C 0.5214 0.0432 0.54724 0.0
C130 C 0.54762 0.05034 0.552 0.0
C131 C 0.55957 0.06568 0.56832 0.0
C132 C 0.4799 0.04491 0.55413 0.0
C133 C 0.56278 0.04116 0.54019 0.0
C134 C 0.58699 0.14583 0.44821 0.0
C135 C 0.56009 0.13655 0.45111 0.0
C136 C 0.54143 0.10897 0.45199 0.0
C137 C 0.55008 0.09045 0.45042 0.0
C138 C 0.57699 0.09983 0.44634 0.0
C139 C 0.59505 0.1275 0.44497 0.0
C140 C 0.5127 0.09971 0.4554 0.0
C141 C 0.58692 0.08073 0.44422 0.0
C142 C 0.47718 0.89922 0.39747 0.0
C143 C 0.48299 0.92039 0.38231 0.0
C144 C 0.48141 0.95588 0.40021 0.0
C145 C 0.46643 0.96776 0.40368 0.0
C146 C 0.47429 0.98797 0.41742 0.0
C147 C 0.49776 0.99643 0.42792 0.0
C148 C 0.51348 0.98512 0.42409 0.0
C149 C 0.50518 0.96499 0.4103 0.0
C150 C 0.45719 -0.00027 0.42111 0.0
C151 C 0.53872 0.99378 0.43498 0.0
C152 C 0.47818 0.97996 0.5194 0.0
C153 C 0.49006 0.99834 0.53421 0.0
C154 C 0.5079 0.02549 0.53071 0.0
C155 C 0.51349 0.03485 0.51188 0.0
C156 C 0.53053 0.06217 0.50783 0.0
C157 C 0.53651 0.07104 0.48925 0.0
C158 C 0.52551 0.05297 0.47396 0.0
C159 C 0.5317 0.06175 0.45499 0.0
C160 C 0.52148 0.04305 0.44021 0.0
C161 C 0.50507 0.01564 0.44385 0.0
C162 C 0.49774 0.00663 0.46265 0.0
C163 C 0.48062 0.97928 0.46673 0.0
C164 C 0.47403 0.97051 0.48528 0.0
C165 C 0.48448 0.9887 0.50048 0.0
C166 C 0.50193 0.01632 0.49671 0.0
C167 C 0.50822 0.02534 0.47775 0.0
C168 C 0.63372 0.20584 0.47107 0.0
C169 C 0.60613 0.19021 0.4621 0.0
O170 O 0.40603 0.87278 0.54101 0.0
O171 O 0.47197 0.93556 0.38731 0.0
O172 O 0.60567 0.1723 0.44895 0.0
O173 O 0.55723 0.08617 0.59659 0.0
H174 H 0.42773 0.85613 0.54924 0.0
H175 H 0.43275 0.8898 0.57385 0.0
H176 H 0.39756 0.87055 0.57822 0.0
H177 H 0.41819 0.85692 0.58388 0.0
H178 H 0.45927 0.89656 0.54098 0.0
H179 H 0.39322 0.90559 0.52794 0.0
H180 H 0.50788 0.96106 0.54273 0.0
H181 H 0.50309 0.92973 0.5341 0.0
H182 H 0.50823 0.95579 0.51778 0.0
H183 H 0.39879 0.94715 0.51903 0.0
H184 H 0.42993 0.97672 0.52543 0.0
H185 H 0.42524 0.963 0.50207 0.0
H186 H 0.52526 0.06974 0.61444 0.0
H187 H 0.54208 0.04581 0.63408 0.0
H188 H 0.53957 0.03668 0.60956 0.0
H189 H 0.57163 0.05985 0.6197 0.0
H190 H 0.50932 0.07261 0.58463 0.0
H191 H 0.57954 0.07115 0.57221 0.0
H192 H 0.46589 0.02312 0.55622 0.0
H193 H 0.47342 0.05614 0.56309 0.0
H194 H 0.47871 0.04945 0.53904 0.0
H195 H 0.58159 0.04565 0.54708 0.0
H196 H 0.55049 0.01923 0.53751 0.0
H197 H 0.56758 0.05139 0.52629 0.0
H198 H 0.59197 0.1792 0.47381 0.0
H199 H 0.55377 0.15086 0.45295 0.0
H200 H 0.61584 0.13501 0.44237 0.0
H201 H 0.50781 0.0938 0.47043 0.0
H202 H 0.50839 0.11577 0.45235 0.0
H203 H 0.4996 0.08191 0.44651 0.0
H204 H 0.60879 0.0914 0.44259 0.0
H205 H 0.58119 0.06737 0.45672 0.0
H206 H 0.57761 0.06788 0.43157 0.0
H207 H 0.50483 0.93365 0.38088 0.0
H208 H 0.48507 0.88639 0.39302 0.0
H209 H 0.48678 0.90895 0.41107 0.0
H210 H 0.45553 0.88631 0.39996 0.0
H211 H 0.44822 0.96078 0.39579 0.0
H212 H 0.51725 0.95631 0.40779 0.0
H213 H 0.44973 0.99527 0.43586 0.0
H214 H 0.46919 0.02189 0.41966 0.0
H215 H 0.44 0.99169 0.41129 0.0
H216 H 0.54973 0.9845 0.4294 0.0
H217 H 0.55185 0.01593 0.43445 0.0
H218 H 0.53394 0.98807 0.45006 0.0
H219 H 0.48566 0.99132 0.5487 0.0
H220 H 0.53952 0.07699 0.519 0.0
H221 H 0.55005 0.09228 0.48708 0.0
H222 H 0.52698 0.0498 0.42575 0.0
H223 H 0.47205 0.96432 0.45562 0.0
H224 H 0.46083 0.94922 0.48756 0.0
H225 H 0.64905 0.2171 0.46015 0.0
H226 H 0.63457 0.22019 0.48182 0.0
H227 H 0.63831 0.19172 0.47817 0.0
C228 C 0.55938 0.41287 0.73453 0.0
C229 C 0.57153 0.41228 0.71549 0.0
C230 C 0.54838 0.42836 0.69578 0.0
C231 C 0.56577 0.45608 0.69833 0.0
C232 C 0.55794 0.47435 0.6936 0.0
C233 C 0.53206 0.46466 0.68653 0.0
C234 C 0.51461 0.43675 0.6838 0.0
C235 C 0.52328 0.41904 0.68809 0.0
C236 C 0.57722 0.50399 0.69633 0.0
C237 C 0.48659 0.42551 0.67678 0.0
C238 C 0.45945 0.53969 0.79451 0.0
C239 C 0.46337 0.52502 0.77885 0.0
C240 C 0.4826 0.53295 0.74729 0.0
C241 C 0.46749 0.50629 0.74091 0.0
C242 C 0.47367 0.49836 0.72389 0.0
C243 C 0.49599 0.51725 0.71336 0.0
C244 C 0.51142 0.54409 0.71989 0.0
C245 C 0.50407 0.55169 0.73654 0.0
C246 C 0.45637 0.46969 0.71728 0.0
C247 C 0.53593 0.56468 0.70952 0.0
C248 C 0.44124 0.57123 0.61666 0.0
C249 C 0.4287 0.54323 0.61746 0.0
C250 C 0.44361 0.5308 0.61833 0.0
C251 C 0.47162 0.54679 0.61839 0.0
C252 C 0.48428 0.57494 0.61643 0.0
C253 C 0.46882 0.58682 0.6154 0.0
C254 C 0.42945 0.50064 0.6198 0.0
C255 C 0.51408 0.59247 0.61621 0.0
C256 C 0.54947 0.44214 0.56365 0.0
C257 C 0.56018 0.46576 0.5498 0.0
C258 C 0.53443 0.48444 0.56152 0.0
C259 C 0.50754 0.47258 0.56564 0.0
C260 C 0.49907 0.4816 0.58092 0.0
C261 C 0.51804 0.50372 0.59183 0.0
C262 C 0.54519 0.51691 0.58686 0.0
C263 C 0.55316 0.50683 0.57191 0.0
C264 C 0.46994 0.46706 0.58566 0.0
C265 C 0.56587 0.54134 0.59754 0.0
C266 C 0.52272 0.4835 0.68287 0.0
C267 C 0.51515 0.4928 0.6984 0.0
C268 C 0.50383 0.50856 0.69606 0.0
C269 C 0.49974 0.51516 0.67763 0.0
C270 C 0.48705 0.52966 0.67463 0.0
C271 C 0.48318 0.53606 0.65644 0.0
C272 C 0.49177 0.52813 0.64052 0.0
C273 C 0.48745 0.5341 0.62196 0.0
C274 C 0.49677 0.52651 0.60646 0.0
C275 C 0.5096 0.51217 0.60892 0.0
C276 C 0.51327 0.50518 0.62736 0.0
C277 C 0.52504 0.48976 0.63034 0.0
C278 C 0.52845 0.48291 0.64851 0.0
C279 C 0.52 0.49098 0.6644 0.0
C280 C 0.50826 0.50668 0.66176 0.0
C281 C 0.5046 0.5135 0.64321 0.0
C282 C 0.41824 0.60025 0.64537 0.0
C283 C 0.40749 0.57786 0.63053 0.0
O284 O 0.55485 0.40996 0.70079 0.0
O285 O 0.5418 0.47363 0.54761 0.0
O286 O 0.42717 0.58364 0.6174 0.0
O287 O 0.47713 0.54132 0.76367 0.0
H288 H 0.59111 0.43103 0.71386 0.0
H289 H 0.55694 0.43049 0.73531 0.0
H290 H 0.53965 0.39435 0.73633 0.0
H291 H 0.57249 0.41448 0.74641 0.0
H292 H 0.58549 0.46364 0.70389 0.0
H293 H 0.51008 0.39764 0.68611 0.0
H294 H 0.57058 0.5114 0.70831 0.0
H295 H 0.59762 0.50852 0.69942 0.0
H296 H 0.57772 0.5152 0.6835 0.0
H297 H 0.47459 0.40329 0.67776 0.0
H298 H 0.47665 0.43402 0.68506 0.0
H299 H 0.48696 0.43123 0.66179 0.0
H300 H 0.47094 0.51178 0.78319 0.0
H301 H 0.4182 0.52221 0.7955 0.0
H302 H 0.47125 0.53872 0.80668 0.0
H303 H 0.47343 0.56173 0.79185 0.0
H304 H 0.45067 0.49162 0.74902 0.0
H305 H 0.51559 0.57222 0.74158 0.0
H306 H 0.45215 0.46896 0.7019 0.0
H307 H 0.46692 0.45877 0.71963 0.0
H308 H 0.43726 0.45903 0.72501 0.0
H309 H 0.54816 0.58304 0.71815 0.0
H310 H 0.54831 0.55619 0.70548 0.0
H311 H 0.53005 0.57058 0.69634 0.0
H312 H 0.40175 0.55898 0.63824 0.0
H313 H 0.40725 0.53114 0.61764 0.0
H314 H 0.47824 0.60843 0.61443 0.0
H315 H 0.43296 0.49506 0.63403 0.0
H316 H 0.40774 0.49097 0.61757 0.0
H317 H 0.43745 0.49257 0.60923 0.0
H318 H 0.52089 0.61398 0.61416 0.0
H319 H 0.5223 0.59025 0.62975 0.0
H320 H 0.52223 0.5859 0.60468 0.0
H321 H 0.57905 0.48275 0.55551 0.0
H322 H 0.56389 0.43547 0.56554 0.0
H323 H 0.54608 0.44824 0.57775 0.0
H324 H 0.53041 0.42498 0.55837 0.0
H325 H 0.49329 0.45547 0.55731 0.0
H326 H 0.57393 0.5165 0.56827 0.0
H327 H 0.46693 0.46175 0.6009 0.0
H328 H 0.46213 0.48044 0.58288 0.0
H329 H 0.45822 0.44845 0.57716 0.0
H330 H 0.58495 0.55212 0.58979 0.0
H331 H 0.55881 0.55542 0.60017 0.0
H332 H 0.56955 0.53512 0.61146 0.0
H333 H 0.51763 0.48723 0.71256 0.0
H334 H 0.47985 0.53612 0.68632 0.0
H335 H 0.47335 0.54732 0.65504 0.0
H336 H 0.49345 0.53127 0.59229 0.0
H337 H 0.53167 0.48268 0.61867 0.0
H338 H 0.53774 0.47112 0.64994 0.0
H339 H 0.40274 0.59609 0.65602 0.0
H340 H 0.43545 0.60148 0.6528 0.0
H341 H 0.42483 0.61995 0.63866 0.0
C342 C 0.15372 0.53113 0.90276 0.0
C343 C 0.1677 0.54943 0.88582 0.0
C344 C 0.1305 0.53362 0.86425 0.0
C345 C 0.12634 0.55521 0.86386 0.0
C346 C 0.10125 0.55109 0.85953 0.0
C347 C 0.0799 0.52477 0.8558 0.0
C348 C 0.08429 0.50305 0.85579 0.0
C349 C 0.10976 0.50791 0.85965 0.0
C350 C 0.0975 0.57481 0.85918 0.0
C351 C 0.06199 0.47461 0.85225 0.0
C352 C 0.9818 0.54656 0.96227 0.0
C353 C 0.97053 0.5194 0.9524 0.0
C354 C 0.9753 0.51917 0.91827 0.0
C355 C 0.97867 0.49727 0.91566 0.0
C356 C 0.9905 0.49489 0.89914 0.0
C357 C 0.99954 0.51514 0.88517 0.0
C358 C 0.99623 0.53733 0.8879 0.0
C359 C 0.98355 0.53868 0.90425 0.0
C360 C 0.99317 0.4707 0.89657 0.0
C361 C 0.00622 0.55974 0.87365 0.0
C362 C 0.87964 0.46431 0.79755 0.0
C363 C 0.88584 0.44442 0.80081 0.0
C364 C 0.91203 0.4503 0.79926 0.0
C365 C 0.93237 0.47667 0.79461 0.0
C366 C 0.92586 0.49625 0.79017 0.0
C367 C 0.89942 0.48965 0.79146 0.0
C368 C 0.91816 0.4287 0.80343 0.0
C369 C 0.94698 0.52446 0.78492 0.0
C370 C 0.04538 0.45672 0.6983 0.0
C371 C 0.06486 0.48431 0.70692 0.0
C372 C 0.04023 0.49578 0.72934 0.0
C373 C 0.03375 0.47526 0.7425 0.0
C374 C 0.02074 0.47402 0.75944 0.0
C375 C 0.01514 0.49436 0.76366 0.0
C376 C 0.02216 0.51533 0.75057 0.0
C377 C 0.03416 0.51543 0.73345 0.0
C378 C 0.01279 0.45079 0.77269 0.0
C379 C 0.01681 0.53756 0.7545 0.0
C380 C 0.05271 0.51967 0.85299 0.0
C381 C 0.03881 0.5196 0.86901 0.0
C382 C 0.01254 0.51325 0.86772 0.0
C383 C 0.99939 0.50593 0.85003 0.0
C384 C 0.97257 0.49801 0.84838 0.0
C385 C 0.95988 0.49118 0.83091 0.0
C386 C 0.97343 0.49172 0.8144 0.0
C387 C 0.96057 0.4846 0.7966 0.0
C388 C 0.97459 0.48539 0.78047 0.0
C389 C 0.00142 0.49347 0.78152 0.0
C390 C 0.01466 0.50077 0.79923 0.0
C391 C 0.04171 0.50941 0.80086 0.0
C392 C 0.05426 0.51568 0.81843 0.0
C393 C 0.04036 0.51399 0.83501 0.0
C394 C 0.01343 0.50654 0.8336 0.0
C395 C 0.00049 0.49962 0.81573 0.0
C396 C 0.825 0.45754 0.8239 0.0
C397 C 0.83749 0.44325 0.81425 0.0
O398 O 0.15424 0.53699 0.86927 0.0
O399 O 0.05165 0.49715 0.71237 0.0
O400 O 0.85499 0.45994 0.80053 0.0
O401 O 0.96374 0.52171 0.93402 0.0
H402 H 0.16796 0.5685 0.88792 0.0
H403 H 0.13325 0.52724 0.90402 0.0
H404 H 0.15265 0.51164 0.901 0.0
H405 H 0.1645 0.54082 0.91609 0.0
H406 H 0.14268 0.57529 0.86682 0.0
H407 H 0.11335 0.49146 0.85986 0.0
H408 H 0.08572 0.57397 0.87166 0.0
H409 H 0.11669 0.59421 0.85952 0.0
H410 H 0.08633 0.57412 0.84631 0.0
H411 H 0.06802 0.45976 0.85503 0.0
H412 H 0.04474 0.46979 0.86133 0.0
H413 H 0.0554 0.47242 0.8373 0.0
H414 H 0.98637 0.51435 0.95246 0.0
H415 H 0.98831 0.54576 0.97688 0.0
H416 H 0.99924 0.56215 0.95435 0.0
H417 H 0.96666 0.55247 0.96289 0.0
H418 H 0.97165 0.48188 0.92641 0.0
H419 H 0.98065 0.5554 0.90642 0.0
H420 H 0.01442 0.477 0.89734 0.0
H421 H 0.98227 0.45524 0.90757 0.0
H422 H 0.98563 0.46155 0.88242 0.0
H423 H 0.00607 0.57745 0.87933 0.0
H424 H 0.02672 0.56615 0.86924 0.0
H425 H 0.99343 0.55254 0.86086 0.0
H426 H 0.84835 0.43941 0.82553 0.0
H427 H 0.87034 0.42443 0.80483 0.0
H428 H 0.89428 0.50467 0.78863 0.0
H429 H 0.92852 0.43292 0.81726 0.0
H430 H 0.89993 0.40847 0.80403 0.0
H431 H 0.93158 0.42859 0.79248 0.0
H432 H 0.93866 0.53737 0.78196 0.0
H433 H 0.96168 0.53365 0.79659 0.0
H434 H 0.95768 0.52397 0.77219 0.0
H435 H 0.07463 0.48141 0.71941 0.0
H436 H 0.05626 0.44703 0.69322 0.0
H437 H 0.03077 0.44338 0.70898 0.0
H438 H 0.03426 0.45851 0.68627 0.0
H439 H 0.03827 0.45986 0.73955 0.0
H440 H 0.03916 0.53114 0.72319 0.0
H441 H 0.02607 0.45784 0.78522 0.0
H442 H 0.9922 0.44258 0.77775 0.0
H443 H 0.01415 0.43436 0.76586 0.0
H444 H 0.02795 0.55481 0.74479 0.0
H445 H 0.99535 0.52972 0.75257 0.0
H446 H 0.02216 0.54482 0.7693 0.0
H447 H 0.04859 0.52454 0.8827 0.0
H448 H 0.96103 0.49697 0.86058 0.0
H449 H 0.93925 0.48542 0.83057 0.0
H450 H 0.96452 0.47984 0.76688 0.0
H451 H 0.05345 0.51122 0.78859 0.0
H452 H 0.07504 0.52196 0.81887 0.0
H453 H 0.81426 0.46274 0.81346 0.0
H454 H 0.81092 0.44457 0.83502 0.0
H455 H 0.84071 0.47636 0.83068 0.0
C456 C 0.44848 0.85585 0.91274 0.0
C457 C 0.44903 0.8479 0.93337 0.0
C458 C 0.48037 0.89265 0.94636 0.0
C459 C 0.46227 0.90115 0.94926 0.0
C460 C 0.47116 0.92794 0.9539 0.0
C461 C 0.4987 0.94668 0.95531 0.0
C462 C 0.51697 0.93824 0.9522 0.0
C463 C 0.50749 0.91118 0.94813 0.0
C464 C 0.45112 0.9362 0.95733 0.0
C465 C 0.54649 0.95779 0.95307 0.0
C466 C 0.48468 0.05904 0.85793 0.0
C467 C 0.51118 0.0677 0.86756 0.0
C468 C 0.51265 0.06202 0.90145 0.0
C469 C 0.53365 0.05743 0.90297 0.0
C470 C 0.53575 0.04394 0.91868 0.0
C471 C 0.5161 0.03445 0.93293 0.0
C472 C 0.49499 0.03931 0.93143 0.0
C473 C 0.49392 0.05363 0.91587 0.0
C474 C 0.55881 0.03963 0.91997 0.0
C475 C 0.47324 0.02892 0.94601 0.0
C476 C 0.57266 0.14345 0.02717 0.0
C477 C 0.59155 0.13668 0.02239 0.0
C478 C 0.58493 0.10984 0.02245 0.0
C479 C 0.55881 0.08946 0.02716 0.0
C480 C 0.54041 0.09648 0.03342 0.0
C481 C 0.54774 0.12355 0.03355 0.0
C482 C 0.60535 0.10313 0.01642 0.0
C483 C 0.51256 0.07528 0.03884 0.0
C484 C 0.5459 0.90774 0.08247 0.0
C485 C 0.52885 0.92021 0.08533 0.0
C486 C 0.54411 0.96585 0.07558 0.0
C487 C 0.56753 0.98653 0.06779 0.0
C488 C 0.56704 0.00418 0.05455 0.0
C489 C 0.54251 0.00151 0.04957 0.0
C490 C 0.51896 0.98187 0.05862 0.0
C491 C 0.51997 0.96394 0.07133 0.0
C492 C 0.59261 0.02501 0.0454 0.0
C493 C 0.49264 0.97926 0.05442 0.0
C494 C 0.50831 0.97512 0.95998 0.0
C495 C 0.50864 0.99161 0.94555 0.0
C496 C 0.51703 0.01849 0.94896 0.0
C497 C 0.52548 0.02937 0.96731 0.0
C498 C 0.53427 0.05636 0.97124 0.0
C499 C 0.54195 0.06669 0.98942 0.0
C500 C 0.54168 0.05059 0.00435 0.0
C501 C 0.54971 0.06104 0.02286 0.0
C502 C 0.54936 0.04458 0.03736 0.0
C503 C 0.5413 0.01776 0.03385 0.0
C504 C 0.5331 0.00694 0.01542 0.0
C505 C 0.52488 0.98008 0.01134 0.0
C506 C 0.51642 0.96952 0.99329 0.0
C507 C 0.51656 0.98558 0.97844 0.0
C508 C 0.52512 0.0128 0.98212 0.0
C509 C 0.53326 0.02344 0.00065 0.0
C510 C 0.5762 0.1975 0.00197 0.0
C511 C 0.59201 0.18592 0.01052 0.0
O512 O 0.47268 0.86695 0.9418 0.0
O513 O 0.54529 0.9478 0.08696 0.0
O514 O 0.57758 0.16877 0.02516 0.0
O515 O 0.50999 0.07447 0.88619 0.0
H516 H 0.43199 0.84643 0.94116 0.0
H517 H 0.45043 0.87582 0.91214 0.0
H518 H 0.46509 0.85678 0.90469 0.0
H519 H 0.42946 0.84124 0.90577 0.0
H520 H 0.4412 0.88707 0.94812 0.0
H521 H 0.52129 0.90443 0.94588 0.0
H522 H 0.45261 0.95001 0.94596 0.0
H523 H 0.43048 0.91875 0.95761 0.0
H524 H 0.45536 0.94719 0.97097 0.0
H525 H 0.55794 0.94874 0.94798 0.0
H526 H 0.55186 0.97578 0.94441 0.0
H527 H 0.55249 0.96461 0.96788 0.0
H528 H 0.51403 0.05023 0.86693 0.0
H529 H 0.4684 0.0417 0.86556 0.0
H530 H 0.48072 0.07572 0.85802 0.0
H531 H 0.48476 0.05283 0.84308 0.0
H532 H 0.54845 0.06454 0.89191 0.0
H533 H 0.47788 0.05749 0.91454 0.0
H534 H 0.5681 0.04549 0.93421 0.0
H535 H 0.55158 0.01802 0.91791 0.0
H536 H 0.57414 0.05126 0.90913 0.0
H537 H 0.45651 0.03126 0.94144 0.0
H538 H 0.4655 0.00738 0.94888 0.0
H539 H 0.48131 0.04007 0.95947 0.0
H540 H 0.59473 0.17465 0.99888 0.0
H541 H 0.61124 0.15227 0.01817 0.0
H542 H 0.53351 0.12912 0.03758 0.0
H543 H 0.60041 0.09421 0.00201 0.0
H544 H 0.62564 0.12115 0.01616 0.0
H545 H 0.60517 0.08806 0.02611 0.0
H546 H 0.50108 0.08408 0.04437 0.0
H547 H 0.50206 0.06269 0.02629 0.0
H548 H 0.51308 0.06191 0.04977 0.0
H549 H 0.51594 0.91499 0.07256 0.0
H550 H 0.53315 0.88562 0.08089 0.0
H551 H 0.55792 0.91592 0.06944 0.0
H552 H 0.55954 0.91238 0.09467 0.0
H553 H 0.5861 0.98802 0.07146 0.0
H554 H 0.50195 0.94834 0.07789 0.0
H555 H 0.59075 0.02296 0.02977 0.0
H556 H 0.59676 0.04535 0.0491 0.0
H557 H 0.60973 0.02335 0.04996 0.0
H558 H 0.47748 0.96689 0.06517 0.0
H559 H 0.4948 0.99934 0.05386 0.0
H560 H 0.48535 0.96957 0.0404 0.0
H561 H 0.50208 0.98334 0.93146 0.0
H562 H 0.53515 0.06978 0.96032 0.0
H563 H 0.54818 0.08755 0.99155 0.0
H564 H 0.55568 0.05281 0.05147 0.0
H565 H 0.52471 0.96679 0.02207 0.0
H566 H 0.50993 0.94861 0.99112 0.0
H567 H 0.58749 0.21146 0.99026 0.0
H568 H 0.55714 0.18099 0.99618 0.0
H569 H 0.57177 0.20843 0.01283 0.0
C570 C 0.62109 0.47837 0.07256 0.0
C571 C 0.61933 0.46409 0.09117 0.0
C572 C 0.60201 0.48507 0.11162 0.0
C573 C 0.5755 0.46441 0.1137 0.0
C574 C 0.55603 0.47015 0.11899 0.0
C575 C 0.56323 0.49714 0.12198 0.0
C576 C 0.59003 0.51797 0.11997 0.0
C577 C 0.60916 0.51155 0.1152 0.0
C578 C 0.52778 0.44741 0.12143 0.0
C579 C 0.59844 0.54704 0.12261 0.0
C580 C 0.42991 0.47185 0.02607 0.0
C581 C 0.45041 0.49899 0.03459 0.0
C582 C 0.45886 0.50368 0.06833 0.0
C583 C 0.48515 0.52508 0.06923 0.0
C584 C 0.50116 0.52827 0.08493 0.0
C585 C 0.49073 0.50923 0.09975 0.0
C586 C 0.46407 0.48764 0.09881 0.0
C587 C 0.44828 0.48559 0.08328 0.0
C588 C 0.52925 0.55185 0.08558 0.0
C589 C 0.45234 0.46636 0.11393 0.0
C590 C 0.44746 0.57463 0.19671 0.0
C591 C 0.47372 0.59141 0.19082 0.0
C592 C 0.49092 0.58162 0.18933 0.0
C593 C 0.48148 0.55442 0.19365 0.0
C594 C 0.45543 0.53789 0.2006 0.0
C595 C 0.43881 0.54839 0.20226 0.0
C596 C 0.51891 0.6001 0.18259 0.0
C597 C 0.44488 0.50893 0.20556 0.0
C598 C 0.63254 0.52158 0.25464 0.0
C599 C 0.6023 0.50593 0.25593 0.0
C600 C 0.57696 0.52559 0.24531 0.0
C601 C 0.58339 0.55073 0.23855 0.0
C602 C 0.56791 0.55313 0.22451 0.0
C603 C 0.545 0.52979 0.21762 0.0
C604 C 0.53737 0.50446 0.2255 0.0
C605 C 0.55366 0.5026 0.23912 0.0
C606 C 0.57657 0.58048 0.21657 0.0
C607 C 0.51243 0.47928 0.21916 0.0
C608 C 0.54276 0.50369 0.12692 0.0
C609 C 0.52668 0.5037 0.11239 0.0
C610 C 0.50798 0.51111 0.11577 0.0
C611 C 0.50557 0.51932 0.13412 0.0
C612 C 0.48806 0.52834 0.13784 0.0
C613 C 0.48557 0.536 0.156 0.0
C614 C 0.50054 0.53499 0.17115 0.0
C615 C 0.49829 0.54292 0.18964 0.0
C616 C 0.51276 0.54078 0.20449 0.0
C617 C 0.53012 0.53159 0.20131 0.0
C618 C 0.53343 0.5246 0.18277 0.0
C619 C 0.55157 0.51638 0.1789 0.0
C620 C 0.55456 0.50938 0.16067 0.0
C621 C 0.53964 0.51045 0.14555 0.0
C622 C 0.52116 0.51856 0.14911 0.0
C623 C 0.51833 0.52599 0.1677 0.0
C624 C 0.39944 0.5812 0.17401 0.0
C625 C 0.42729 0.59773 0.1825 0.0
O626 O 0.62116 0.48012 0.10632 0.0
O627 O 0.59377 0.52399 0.25756 0.0
O628 O 0.42997 0.58313 0.19687 0.0
O629 O 0.44335 0.50002 0.05311 0.0
H630 H 0.60007 0.44475 0.09154 0.0
H631 H 0.6045 0.48214 0.07154 0.0
H632 H 0.64012 0.4979 0.0718 0.0
H633 H 0.61965 0.46577 0.06027 0.0
H634 H 0.57004 0.44377 0.11155 0.0
H635 H 0.62975 0.52729 0.11366 0.0
H636 H 0.51522 0.4484 0.11014 0.0
H637 H 0.52595 0.42747 0.1207 0.0
H638 H 0.51993 0.4493 0.13523 0.0
H639 H 0.61925 0.56088 0.11814 0.0
H640 H 0.58526 0.5517 0.11439 0.0
H641 H 0.59668 0.55091 0.13775 0.0
H642 H 0.46997 0.50033 0.03413 0.0
H643 H 0.43539 0.47003 0.01136 0.0
H644 H 0.42904 0.45542 0.03459 0.0
H645 H 0.40993 0.46943 0.02598 0.0
H646 H 0.49303 0.53931 0.0577 0.0
H647 H 0.42785 0.46922 0.08239 0.0
H648 H 0.54316 0.54471 0.08309 0.0
H649 H 0.53286 0.56707 0.07467 0.0
H650 H 0.53378 0.56157 0.09973 0.0
H651 H 0.43307 0.44872 0.10949 0.0
H652 H 0.46617 0.45944 0.11754 0.0
H653 H 0.44903 0.47487 0.12694 0.0
H654 H 0.44135 0.6014 0.17076 0.0
H655 H 0.48067 0.61208 0.18722 0.0
H656 H 0.41859 0.53578 0.20711 0.0
H657 H 0.52107 0.59413 0.1681 0.0
H658 H 0.52424 0.62139 0.18227 0.0
H659 H 0.53316 0.59841 0.1919 0.0
H660 H 0.42406 0.49865 0.21058 0.0
H661 H 0.4459 0.49806 0.19298 0.0
H662 H 0.4574 0.50772 0.21679 0.0
H663 H 0.59463 0.49405 0.2426 0.0
H664 H 0.63993 0.50761 0.253 0.0
H665 H 0.63896 0.53503 0.24215 0.0
H666 H 0.64154 0.53402 0.26754 0.0
H667 H 0.60126 0.56836 0.2437 0.0
H668 H 0.54836 0.48323 0.24487 0.0
H669 H 0.57848 0.58026 0.20096 0.0
H670 H 0.56132 0.58567 0.21968 0.0
H671 H 0.5958 0.59638 0.2226 0.0
H672 H 0.50681 0.46229 0.22897 0.0
H673 H 0.49571 0.48284 0.21811 0.0
H674 H 0.51558 0.47339 0.20493 0.0
H675 H 0.52878 0.49787 0.09822 0.0
H676 H 0.47612 0.52964 0.12674 0.0
H677 H 0.47165 0.54263 0.158 0.0
H678 H 0.51069 0.54661 0.21867 0.0
H679 H 0.56376 0.51533 0.18992 0.0
H680 H 0.56871 0.50307 0.15858 0.0
H681 H 0.3841 0.57614 0.18497 0.0
H682 H 0.39679 0.59251 0.16247 0.0
H683 H 0.39652 0.56221 0.16801 0.0
Co684 Co 0.62479 0.39231 0.39787 0.0
O685 O 0.64664 0.38902 0.37939 0.0
O686 O 0.65878 0.42549 0.39655 0.0
C687 C 0.61202 0.35301 0.41212 0.0
O688 O 0.60804 0.40259 0.41884 0.0
Co689 Co 0.56482 0.35323 0.39813 0.0
O690 O 0.56726 0.3673 0.42407 0.0
C691 C 0.58762 0.39534 0.36928 0.0
C692 C 0.66482 0.41334 0.38385 0.0
C693 C 0.58691 0.39005 0.42889 0.0
O694 O 0.61006 0.40517 0.37774 0.0
O695 O 0.56687 0.37358 0.37453 0.0
O696 O 0.63432 0.37454 0.4164 0.0
O697 O 0.59885 0.35526 0.39825 0.0
Co698 Co 0.23819 0.62292 0.57997 0.0
O699 O 0.26407 0.62471 0.5972 0.0
O700 O 0.24224 0.59218 0.57623 0.0
C701 C 0.26293 0.66596 0.57065 0.0
O702 O 0.21088 0.6154 0.5594 0.0
Co703 Co 0.21389 0.65792 0.58748 0.0
O704 O 0.19859 0.64593 0.56184 0.0
C705 C 0.1976 0.61023 0.61086 0.0
C706 C 0.26008 0.6027 0.58957 0.0
C707 C 0.19828 0.62652 0.55325 0.0
O708 O 0.20964 0.60291 0.59942 0.0
O709 O 0.19893 0.63281 0.60955 0.0
O710 O 0.26594 0.64752 0.56287 0.0
O711 O 0.24669 0.65824 0.58473 0.0
Co712 Co 0.63709 0.25146 0.74721 0.0
O713 O 0.64019 0.27747 0.729 0.0
O714 O 0.60369 0.24973 0.7448 0.0
C715 C 0.67468 0.28015 0.76286 0.0
O716 O 0.62593 0.22299 0.76755 0.0
Co717 Co 0.67735 0.23352 0.75133 0.0
O718 O 0.65939 0.2172 0.77555 0.0
C719 C 0.63826 0.21162 0.72008 0.0
C720 C 0.6157 0.26946 0.73295 0.0
C721 C 0.63619 0.21291 0.77826 0.0
O722 O 0.6272 0.22406 0.72658 0.0
O723 O 0.65915 0.21372 0.72738 0.0
O724 O 0.6526 0.2791 0.76647 0.0
O725 O 0.67387 0.26482 0.74925 0.0
Co726 Co 0.3998 0.61955 0.90874 0.0
O727 O 0.37587 0.62195 0.89139 0.0
O728 O 0.36498 0.5879 0.91068 0.0
C729 C 0.41712 0.66162 0.91994 0.0
O730 O 0.41759 0.60972 0.92913 0.0
Co731 Co 0.46024 0.65509 0.90704 0.0
O732 O 0.4605 0.64113 0.93255 0.0
C733 C 0.43208 0.61058 0.87961 0.0
C734 C 0.35762 0.59897 0.89807 0.0
C735 C 0.4398 0.61976 0.93798 0.0
O736 O 0.41025 0.60248 0.88854 0.0
O737 O 0.45381 0.63202 0.88408 0.0
O738 O 0.39519 0.642 0.92678 0.0
O739 O 0.42753 0.65555 0.90619 0.0
Co740 Co 0.77997 0.39476 0.06809 0.0
O741 O 0.75165 0.39054 0.08405 0.0
O742 O 0.77933 0.42751 0.0684 0.0
C743 C 0.75488 0.35559 0.05262 0.0
O744 O 0.81058 0.4069 0.04966 0.0
Co745 Co 0.80133 0.35691 0.06863 0.0
O746 O 0.81892 0.37405 0.0445 0.0
C747 C 0.81707 0.39725 0.09899 0.0
C748 C 0.75878 0.41488 0.07932 0.0
C749 C 0.8223 0.39689 0.04052 0.0
O750 O 0.80464 0.40694 0.09044 0.0
O751 O 0.81733 0.37661 0.09307 0.0
O752 O 0.75517 0.37713 0.04753 0.0
O753 O 0.76887 0.3579 0.06746 0.0
Co754 Co 0.3997 0.78337 0.22922 0.0
O755 O 0.39324 0.75548 0.21165 0.0
O756 O 0.42756 0.77518 0.23117 0.0
C757 C 0.35796 0.76235 0.24039 0.0
O758 O 0.41209 0.81148 0.25014 0.0
Co759 Co 0.37146 0.81495 0.22544 0.0
O760 O 0.38683 0.83 0.25055 0.0
C761 C 0.41503 0.82676 0.19949 0.0
C762 C 0.41446 0.75696 0.21831 0.0
C763 C 0.40484 0.82679 0.25766 0.0
O764 O 0.42002 0.81126 0.20925 0.0
O765 O 0.39531 0.82959 0.20287 0.0
O766 O 0.37521 0.75694 0.247 0.0
O767 O 0.36583 0.779 0.22638 0.0
C768 C 0.20347 0.65968 0.26325 0.0
C769 C 0.19864 0.63514 0.25582 0.0
C770 C 0.22885 0.68282 0.26244 0.0
C771 C 0.24959 0.68157 0.25346 0.0
C772 C 0.2447 0.65701 0.24565 0.0
C773 C 0.21933 0.63411 0.247 0.0
C774 C 0.23346 0.70858 0.27115 0.0
C775 C 0.2662 0.65496 0.23566 0.0
C776 C 0.31 0.74256 0.23301 0.0
C777 C 0.32978 0.7457 0.24561 0.0
C778 C 0.28339 0.72261 0.23593 0.0
C779 C 0.2765 0.70584 0.25199 0.0
C780 C 0.29613 0.71047 0.26554 0.0
C781 C 0.32262 0.73023 0.2621 0.0
C782 C 0.26306 0.71818 0.22109 0.0
C783 C 0.28947 0.69343 0.28307 0.0
H784 H 0.18744 0.66084 0.26969 0.0
H785 H 0.21548 0.61532 0.24092 0.0
H786 H 0.2498 0.71623 0.28166 0.0
H787 H 0.23961 0.72415 0.2601 0.0
H788 H 0.21548 0.70594 0.27827 0.0
H789 H 0.25898 0.63448 0.23005 0.0
H790 H 0.27414 0.66935 0.22374 0.0
H791 H 0.28289 0.66038 0.24554 0.0
H792 H 0.31547 0.75449 0.22024 0.0
H793 H 0.33788 0.73283 0.27196 0.0
H794 H 0.24513 0.71621 0.22773 0.0
H795 H 0.25682 0.69916 0.21342 0.0
H796 H 0.27094 0.73475 0.21064 0.0
H797 H 0.27165 0.69129 0.29005 0.0
H798 H 0.3061 0.70199 0.29341 0.0
H799 H 0.28486 0.67303 0.27907 0.0
C800 C 0.58492 0.21825 0.46291 0.0
C801 C 0.59942 0.20935 0.45287 0.0
C802 C 0.58199 0.2391 0.45596 0.0
C803 C 0.59413 0.2515 0.43866 0.0
C804 C 0.60753 0.24157 0.42796 0.0
C805 C 0.61015 0.22071 0.43525 0.0
C806 C 0.5675 0.24905 0.46776 0.0
C807 C 0.62079 0.25427 0.40946 0.0
C808 C 0.58268 0.30292 0.41441 0.0
C809 C 0.60511 0.32693 0.42041 0.0
C810 C 0.57811 0.27802 0.4208 0.0
C811 C 0.59659 0.27731 0.43325 0.0
C812 C 0.61866 0.30157 0.43988 0.0
C813 C 0.62251 0.32602 0.43349 0.0
C814 C 0.55411 0.25253 0.41374 0.0
C815 C 0.63892 0.30174 0.45311 0.0
H816 H 0.5768 0.20964 0.47661 0.0
H817 H 0.62161 0.21406 0.42756 0.0
H818 H 0.58206 0.26849 0.47442 0.0
H819 H 0.55413 0.25256 0.4588 0.0
H820 H 0.55566 0.23472 0.47914 0.0
H821 H 0.62744 0.24215 0.40178 0.0
H822 H 0.60712 0.2569 0.40018 0.0
H823 H 0.63833 0.27448 0.41222 0.0
H824 H 0.5691 0.30353 0.40437 0.0
H825 H 0.63982 0.34449 0.43829 0.0
H826 H 0.54344 0.23893 0.42573 0.0
H827 H 0.56049 0.24182 0.40418 0.0
H828 H 0.54016 0.2565 0.4059 0.0
H829 H 0.62909 0.28996 0.46599 0.0
H830 H 0.65442 0.32236 0.45747 0.0
H831 H 0.64873 0.29213 0.44608 0.0
C832 C 0.38605 0.59449 0.60778 0.0
C833 C 0.38334 0.57522 0.62088 0.0
C834 C 0.36379 0.59462 0.60093 0.0
C835 C 0.33824 0.57508 0.60743 0.0
C836 C 0.33527 0.55461 0.61975 0.0
C837 C 0.3579 0.55504 0.62644 0.0
C838 C 0.36782 0.61682 0.58781 0.0
C839 C 0.30838 0.53334 0.62691 0.0
C840 C 0.29194 0.60144 0.6118 0.0
C841 C 0.27686 0.59187 0.59517 0.0
C842 C 0.31118 0.59513 0.61627 0.0
C843 C 0.3155 0.57878 0.60379 0.0
C844 C 0.29936 0.56778 0.58748 0.0
C845 C 0.28012 0.57446 0.58334 0.0
C846 C 0.32778 0.60713 0.63391 0.0
C847 C 0.30328 0.55007 0.57397 0.0
H848 H 0.40571 0.61021 0.60355 0.0
H849 H 0.35574 0.54017 0.63663 0.0
H850 H 0.35387 0.60854 0.57568 0.0
H851 H 0.36364 0.63084 0.59551 0.0
H852 H 0.38838 0.62839 0.58229 0.0
H853 H 0.30896 0.51653 0.63378 0.0
H854 H 0.30129 0.54235 0.63743 0.0
H855 H 0.29372 0.5252 0.61519 0.0
H856 H 0.28931 0.61468 0.62111 0.0
H857 H 0.26852 0.56706 0.57045 0.0
H858 H 0.34872 0.62124 0.62993 0.0
H859 H 0.32735 0.59118 0.6427 0.0
H860 H 0.32086 0.61818 0.64264 0.0
H861 H 0.32218 0.56232 0.56625 0.0
H862 H 0.28692 0.54023 0.56345 0.0
H863 H 0.3047 0.53438 0.58179 0.0
C864 C 0.80796 0.39279 0.81482 0.0
C865 C 0.81621 0.4171 0.80555 0.0
C866 C 0.78642 0.36863 0.80802 0.0
C867 C 0.77265 0.36892 0.7917 0.0
C868 C 0.7814 0.3933 0.78195 0.0
C869 C 0.80306 0.41711 0.78902 0.0
C870 C 0.77774 0.34303 0.81874 0.0
C871 C 0.7672 0.39444 0.76452 0.0
C872 C 0.7242 0.30507 0.76524 0.0
C873 C 0.69984 0.30067 0.77178 0.0
C874 C 0.74822 0.32674 0.77205 0.0
C875 C 0.74774 0.34429 0.7857 0.0
C876 C 0.7232 0.33921 0.79292 0.0
C877 C 0.69956 0.31745 0.78589 0.0
C878 C 0.77402 0.33146 0.76411 0.0
C879 C 0.72185 0.35739 0.80755 0.0
H880 H 0.81801 0.39278 0.82767 0.0
H881 H 0.80928 0.43594 0.78194 0.0
H882 H 0.7582 0.33603 0.82538 0.0
H883 H 0.77527 0.32699 0.80895 0.0
H884 H 0.79209 0.34573 0.83 0.0
H885 H 0.77766 0.41457 0.75784 0.0
H886 H 0.7652 0.3794 0.75396 0.0
H887 H 0.74689 0.38942 0.76834 0.0
H888 H 0.72452 0.29213 0.75434 0.0
H889 H 0.6808 0.31408 0.79107 0.0
H890 H 0.78784 0.33409 0.77573 0.0
H891 H 0.78366 0.35022 0.75572 0.0
H892 H 0.77112 0.31471 0.75486 0.0
H893 H 0.73435 0.35956 0.81996 0.0
H894 H 0.7013 0.3498 0.81247 0.0
H895 H 0.72976 0.37769 0.8015 0.0
C896 C 0.42163 0.79785 0.92863 0.0
C897 C 0.44588 0.82034 0.93409 0.0
C898 C 0.41831 0.77226 0.92776 0.0
C899 C 0.43951 0.76885 0.93312 0.0
C900 C 0.46367 0.79117 0.93949 0.0
C901 C 0.46677 0.81673 0.93959 0.0
C902 C 0.39241 0.74906 0.92046 0.0
C903 C 0.48641 0.78813 0.94589 0.0
C904 C 0.41919 0.6964 0.94177 0.0
C905 C 0.42615 0.68975 0.92457 0.0
C906 C 0.42481 0.72258 0.94523 0.0
C907 C 0.4368 0.74218 0.93088 0.0
C908 C 0.44457 0.73571 0.91372 0.0
C909 C 0.43952 0.70966 0.91091 0.0
C910 C 0.41709 0.72901 0.96396 0.0
C911 C 0.4568 0.75583 0.89788 0.0
H912 H 0.40538 0.80047 0.92454 0.0
H913 H 0.48564 0.83382 0.9439 0.0
H914 H 0.39604 0.74054 0.90758 0.0
H915 H 0.38349 0.73287 0.93115 0.0
H916 H 0.37787 0.7551 0.91694 0.0
H917 H 0.50274 0.80684 0.95236 0.0
H918 H 0.47941 0.77166 0.95634 0.0
H919 H 0.49446 0.7827 0.93366 0.0
H920 H 0.40897 0.68101 0.95238 0.0
H921 H 0.44473 0.70451 0.89753 0.0
H922 H 0.40019 0.73204 0.96188 0.0
H923 H 0.43378 0.74792 0.96988 0.0
H924 H 0.41122 0.71271 0.97443 0.0
H925 H 0.44246 0.76143 0.89287 0.0
H926 H 0.46252 0.74788 0.88568 0.0
H927 H 0.47464 0.77442 0.90301 0.0
C928 C 0.63841 0.43584 0.0819 0.0
C929 C 0.6413 0.45788 0.09205 0.0
C930 C 0.65892 0.43038 0.0812 0.0
C931 C 0.68283 0.44719 0.09114 0.0
C932 C 0.6858 0.46926 0.10167 0.0
C933 C 0.66518 0.47464 0.10174 0.0
C934 C 0.65516 0.40694 0.06949 0.0
C935 C 0.71083 0.48731 0.11271 0.0
C936 C 0.72409 0.41532 0.09918 0.0
C937 C 0.7423 0.42626 0.0843 0.0
C938 C 0.70559 0.42319 0.10231 0.0
C939 C 0.7049 0.44191 0.08996 0.0
C940 C 0.72399 0.45385 0.07542 0.0
C941 C 0.74269 0.4461 0.07291 0.0
C942 C 0.68602 0.41055 0.11828 0.0
C943 C 0.72363 0.47354 0.06175 0.0
H944 H 0.62017 0.42313 0.07417 0.0
H945 H 0.66785 0.49204 0.10934 0.0
H946 H 0.67069 0.41411 0.05844 0.0
H947 H 0.65734 0.39267 0.07854 0.0
H948 H 0.63543 0.39597 0.06249 0.0
H949 H 0.70934 0.50257 0.12115 0.0
H950 H 0.71527 0.47518 0.12241 0.0
H951 H 0.72782 0.49781 0.10291 0.0
H952 H 0.72388 0.4001 0.10809 0.0
H953 H 0.75664 0.45447 0.06132 0.0
H954 H 0.66596 0.3967 0.11242 0.0
H955 H 0.68494 0.42616 0.12655 0.0
H956 H 0.6913 0.39906 0.12798 0.0
H957 H 0.70529 0.46318 0.05307 0.0
H958 H 0.74097 0.48245 0.05212 0.0
H959 H 0.72342 0.48997 0.06952 0.0
C960 C 0.36131 0.82271 0.54787 0.0
C961 C 0.38658 0.82877 0.55385 0.0
C962 C 0.33942 0.79642 0.54888 0.0
C963 C 0.34268 0.77597 0.55668 0.0
C964 C 0.36803 0.782 0.56287 0.0
C965 C 0.38968 0.80825 0.56123 0.0
C966 C 0.31278 0.79058 0.54178 0.0
C967 C 0.37222 0.76084 0.57161 0.0
C968 C 0.28489 0.71442 0.57899 0.0
C969 C 0.28035 0.69449 0.56581 0.0
C970 C 0.30455 0.74129 0.57588 0.0
C971 C 0.31954 0.74837 0.55901 0.0
C972 C 0.31381 0.72856 0.54511 0.0
C973 C 0.29445 0.70175 0.54878 0.0
C974 C 0.31036 0.76178 0.59117 0.0
C975 C 0.32891 0.73547 0.52673 0.0
H976 H 0.35855 0.83846 0.54243 0.0
H977 H 0.40908 0.81297 0.56607 0.0
H978 H 0.30456 0.77378 0.53145 0.0
H979 H 0.29862 0.78424 0.5537 0.0
H980 H 0.31395 0.80829 0.53491 0.0
H981 H 0.39318 0.76889 0.57582 0.0
H982 H 0.35956 0.75237 0.58432 0.0
H983 H 0.36626 0.74409 0.56148 0.0
H984 H 0.27407 0.70884 0.5922 0.0
H985 H 0.29079 0.68636 0.5385 0.0
H986 H 0.31033 0.77935 0.58521 0.0
H987 H 0.33042 0.76914 0.59711 0.0
H988 H 0.29576 0.75339 0.60287 0.0
H989 H 0.32971 0.75312 0.52012 0.0
H990 H 0.31988 0.71849 0.51651 0.0
H991 H 0.34962 0.74088 0.52952 0.0
C992 C 0.59801 0.39149 0.72496 0.0
C993 C 0.57618 0.38901 0.71516 0.0
C994 C 0.60217 0.36996 0.72619 0.0
C995 C 0.58429 0.34539 0.71709 0.0
C996 C 0.56242 0.3428 0.70689 0.0
C997 C 0.55832 0.36448 0.70633 0.0
C998 C 0.62543 0.37336 0.73758 0.0
C999 C 0.54327 0.31708 0.69671 0.0
C1000 C 0.61387 0.30168 0.71077 0.0
C1001 C 0.60365 0.28484 0.72652 0.0
C1002 C 0.60609 0.32017 0.70662 0.0
C1003 C 0.58833 0.32234 0.71887 0.0
C1004 C 0.57682 0.3043 0.73417 0.0
C1005 C 0.58438 0.28549 0.73766 0.0
C1006 C 0.61812 0.33846 0.68981 0.0
C1007 C 0.55819 0.30626 0.74778 0.0
H1008 H 0.61158 0.41026 0.73202 0.0
H1009 H 0.54111 0.36214 0.69899 0.0
H1010 H 0.6183 0.35823 0.74903 0.0
H1011 H 0.63868 0.36997 0.72843 0.0
H1012 H 0.63722 0.39365 0.74402 0.0
H1013 H 0.52836 0.31894 0.68832 0.0
H1014 H 0.55421 0.31114 0.68709 0.0
H1015 H 0.53269 0.30065 0.70707 0.0
H1016 H 0.62863 0.30106 0.70205 0.0
H1017 H 0.57656 0.2726 0.74993 0.0
H1018 H 0.63291 0.35899 0.69478 0.0
H1019 H 0.60267 0.33979 0.68176 0.0
H1020 H 0.62818 0.33152 0.68013 0.0
H1021 H 0.5693 0.32511 0.75609 0.0
H1022 H 0.54894 0.28913 0.75777 0.0
H1023 H 0.54226 0.30704 0.74001 0.0
C1024 C 0.2028 0.53938 0.87498 0.0
C1025 C 0.19607 0.5559 0.8849 0.0
C1026 C 0.22889 0.54462 0.87518 0.0
C1027 C 0.24846 0.56641 0.88599 0.0
C1028 C 0.2417 0.58298 0.89615 0.0
C1029 C 0.21563 0.57754 0.89545 0.0
C1030 C 0.23543 0.52668 0.86404 0.0
C1031 C 0.26191 0.60618 0.90809 0.0
C1032 C 0.30952 0.56772 0.90446 0.0
C1033 C 0.32942 0.58757 0.89309 0.0
C1034 C 0.28284 0.55976 0.90179 0.0
C1035 C 0.27593 0.57167 0.88721 0.0
C1036 C 0.29576 0.59045 0.87493 0.0
C1037 C 0.32233 0.59834 0.87811 0.0
C1038 C 0.26231 0.53982 0.91529 0.0
C1039 C 0.28909 0.60321 0.85901 0.0
H1040 H 0.18764 0.52222 0.86716 0.0
H1041 H 0.21033 0.58997 0.90345 0.0
H1042 H 0.25229 0.53889 0.85441 0.0
H1043 H 0.24165 0.51606 0.8738 0.0
H1044 H 0.21832 0.51151 0.85552 0.0
H1045 H 0.25345 0.61718 0.91506 0.0
H1046 H 0.26985 0.59874 0.91917 0.0
H1047 H 0.27885 0.62049 0.8992 0.0
H1048 H 0.31489 0.55934 0.91609 0.0
H1049 H 0.33763 0.61356 0.86918 0.0
H1050 H 0.24526 0.52356 0.90739 0.0
H1051 H 0.2546 0.55004 0.92412 0.0
H1052 H 0.2705 0.5307 0.92479 0.0
H1053 H 0.27215 0.58765 0.8506 0.0
H1054 H 0.30617 0.61494 0.84941 0.0
H1055 H 0.28304 0.61687 0.86494 0.0
C1056 C 0.64182 0.21503 0.0077 0.0
C1057 C 0.61863 0.2082 0.01765 0.0
C1058 C 0.66632 0.2373 0.01305 0.0
C1059 C 0.66752 0.2533 0.02855 0.0
C1060 C 0.64431 0.24593 0.03905 0.0
C1061 C 0.62015 0.2234 0.03351 0.0
C1062 C 0.69069 0.24433 0.00167 0.0
C1063 C 0.64473 0.26255 0.05561 0.0
C1064 C 0.73172 0.30543 0.0523 0.0
C1065 C 0.73535 0.32918 0.04447 0.0
C1066 C 0.71042 0.28031 0.04658 0.0
C1067 C 0.69234 0.27907 0.03282 0.0
C1068 C 0.69682 0.30292 0.02413 0.0
C1069 C 0.71833 0.32766 0.03 0.0
C1070 C 0.70649 0.25526 0.05594 0.0
C1071 C 0.67803 0.30246 0.00936 0.0
H1072 H 0.64067 0.20328 0.99543 0.0
H1073 H 0.60223 0.21813 0.0412 0.0
H1074 H 0.69706 0.263 0.9936 0.0
H1075 H 0.70731 0.24819 0.01116 0.0
H1076 H 0.68706 0.22818 0.99152 0.0
H1077 H 0.62534 0.25317 0.06299 0.0
H1078 H 0.66019 0.26549 0.06595 0.0
H1079 H 0.64979 0.28269 0.05061 0.0
H1080 H 0.7449 0.30647 0.06342 0.0
H1081 H 0.72112 0.34593 0.02379 0.0
H1082 H 0.70257 0.23973 0.04518 0.0
H1083 H 0.68896 0.24685 0.06534 0.0
H1084 H 0.72398 0.25927 0.06453 0.0
H1085 H 0.67504 0.28819 0.99786 0.0
H1086 H 0.68532 0.32254 0.00307 0.0
H1087 H 0.6584 0.29545 0.01586 0.0
C1088 C 0.44691 0.64769 0.17944 0.0
C1089 C 0.43196 0.62419 0.18999 0.0
C1090 C 0.44836 0.67165 0.18469 0.0
C1091 C 0.4342 0.67198 0.20072 0.0
C1092 C 0.42019 0.64867 0.21197 0.0
C1093 C 0.41923 0.62503 0.20646 0.0
C1094 C 0.46368 0.69612 0.1724 0.0
C1095 C 0.40476 0.64815 0.22914 0.0
C1096 C 0.44324 0.73697 0.22073 0.0
C1097 C 0.4216 0.73708 0.21256 0.0
C1098 C 0.44818 0.71631 0.21662 0.0
C1099 C 0.43094 0.69529 0.20421 0.0
C1100 C 0.40959 0.69582 0.19551 0.0
C1101 C 0.40528 0.71673 0.19972 0.0
C1102 C 0.47133 0.71655 0.22595 0.0
C1103 C 0.39067 0.67377 0.18222 0.0
H1104 H 0.45671 0.64708 0.16667 0.0
H1105 H 0.40754 0.60685 0.21458 0.0
H1106 H 0.44962 0.69967 0.16435 0.0
H1107 H 0.47611 0.71419 0.18121 0.0
H1108 H 0.47662 0.69378 0.16217 0.0
H1109 H 0.39744 0.62953 0.23753 0.0
H1110 H 0.4172 0.66568 0.23841 0.0
H1111 H 0.38746 0.64948 0.22458 0.0
H1112 H 0.45593 0.75265 0.23065 0.0
H1113 H 0.38854 0.71667 0.19331 0.0
H1114 H 0.48351 0.71395 0.2152 0.0
H1115 H 0.46394 0.69948 0.2359 0.0
H1116 H 0.48418 0.73545 0.23389 0.0
H1117 H 0.40175 0.67164 0.17037 0.0
H1118 H 0.37549 0.67756 0.17624 0.0
H1119 H 0.38038 0.65435 0.18983 0.0
C1120 C 0.80114 0.43029 0.36065 0.0
C1121 C 0.81688 0.44902 0.34685 0.0
C1122 C 0.77781 0.42849 0.36704 0.0
C1123 C 0.76975 0.4455 0.35918 0.0
C1124 C 0.78585 0.46489 0.34558 0.0
C1125 C 0.8092 0.46635 0.33952 0.0
C1126 C 0.76116 0.40754 0.38159 0.0
C1127 C 0.77782 0.48322 0.33679 0.0
C1128 C 0.69538 0.41377 0.35962 0.0
C1129 C 0.69165 0.42524 0.37585 0.0
C1130 C 0.72084 0.4214 0.35342 0.0
C1131 C 0.74313 0.44084 0.36381 0.0
C1132 C 0.73957 0.45372 0.37954 0.0
C1133 C 0.71375 0.44581 0.38536 0.0
C1134 C 0.72378 0.40745 0.33639 0.0
C1135 C 0.76289 0.47459 0.39091 0.0
H1136 H 0.80674 0.41655 0.36611 0.0
H1137 H 0.82114 0.48056 0.32863 0.0
H1138 H 0.75619 0.41674 0.39338 0.0
H1139 H 0.74222 0.39198 0.37504 0.0
H1140 H 0.77134 0.39757 0.3875 0.0
H1141 H 0.79391 0.49918 0.3281 0.0
H1142 H 0.7602 0.47132 0.32761 0.0
H1143 H 0.77216 0.49278 0.34789 0.0
H1144 H 0.67831 0.39806 0.3521 0.0
H1145 H 0.71091 0.45469 0.39793 0.0
H1146 H 0.73142 0.39448 0.34096 0.0
H1147 H 0.73833 0.42235 0.32633 0.0
H1148 H 0.70469 0.39477 0.32884 0.0
H1149 H 0.77177 0.46479 0.39892 0.0
H1150 H 0.75707 0.48514 0.40112 0.0
H1151 H 0.77846 0.48963 0.38145 0.0
C1152 C 0.12916 0.60194 0.45261 0.0
C1153 C 0.10329 0.57959 0.45249 0.0
C1154 C 0.14617 0.60717 0.46804 0.0
C1155 C 0.13691 0.58991 0.48389 0.0
C1156 C 0.11134 0.5665 0.48341 0.0
C1157 C 0.09488 0.56155 0.46766 0.0
C1158 C 0.17343 0.63214 0.46788 0.0
C1159 C 0.10064 0.54769 0.50006 0.0
C1160 C 0.18555 0.59953 0.5231 0.0
C1161 C 0.18233 0.61634 0.53564 0.0
C1162 C 0.17084 0.59058 0.50617 0.0
C1163 C 0.15235 0.5984 0.50185 0.0
C1164 C 0.14875 0.61498 0.51461 0.0
C1165 C 0.16382 0.62381 0.53125 0.0
C1166 C 0.17535 0.57312 0.4928 0.0
C1167 C 0.12904 0.62359 0.51063 0.0
H1168 H 0.13577 0.61594 0.44093 0.0
H1169 H 0.07488 0.54426 0.46761 0.0
H1170 H 0.17392 0.6472 0.47777 0.0
H1171 H 0.18853 0.62755 0.47278 0.0
H1172 H 0.17903 0.64123 0.45359 0.0
H1173 H 0.08195 0.52873 0.49653 0.0
H1174 H 0.11541 0.54276 0.50516 0.0
H1175 H 0.09666 0.55765 0.51188 0.0
H1176 H 0.19985 0.59372 0.52634 0.0
H1177 H 0.16098 0.63659 0.54088 0.0
H1178 H 0.18267 0.58348 0.47905 0.0
H1179 H 0.1564 0.55414 0.48998 0.0
H1180 H 0.18993 0.56822 0.49846 0.0
H1181 H 0.13453 0.63553 0.49744 0.0
H1182 H 0.12806 0.63585 0.52229 0.0
H1183 H 0.10898 0.60571 0.50846 0.0
C1184 C 0.54757 0.09692 0.64617 0.0
C1185 C 0.56039 0.09911 0.629 0.0
C1186 C 0.56027 0.11586 0.66067 0.0
C1187 C 0.58635 0.13776 0.65785 0.0
C1188 C 0.59929 0.14038 0.64046 0.0
C1189 C 0.58634 0.12078 0.62636 0.0
C1190 C 0.54603 0.11204 0.67918 0.0
C1191 C 0.62695 0.16368 0.63684 0.0
C1192 C 0.61003 0.19744 0.69092 0.0
C1193 C 0.62578 0.19337 0.70374 0.0
C1194 C 0.59757 0.17985 0.67564 0.0
C1195 C 0.60042 0.15733 0.67341 0.0
C1196 C 0.6163 0.15313 0.68632 0.0
C1197 C 0.62904 0.17138 0.7012 0.0
C1198 C 0.58127 0.1853 0.66191 0.0
C1199 C 0.61938 0.12904 0.68465 0.0
H1200 H 0.52773 0.07993 0.64837 0.0
H1201 H 0.59665 0.12238 0.61331 0.0
H1202 H 0.5574 0.10985 0.69083 0.0
H1203 H 0.5447 0.12993 0.68243 0.0
H1204 H 0.52568 0.09409 0.67901 0.0
H1205 H 0.63352 0.1638 0.62211 0.0
H1206 H 0.62789 0.18291 0.63958 0.0
H1207 H 0.64113 0.16276 0.64667 0.0
H1208 H 0.60762 0.21453 0.69275 0.0
H1209 H 0.641 0.16801 0.71117 0.0
H1210 H 0.5603 0.16862 0.66229 0.0
H1211 H 0.5885 0.18631 0.64728 0.0
H1212 H 0.58201 0.20434 0.66514 0.0
H1213 H 0.59966 0.11034 0.68555 0.0
H1214 H 0.63236 0.12865 0.69589 0.0
H1215 H 0.62786 0.12896 0.67069 0.0
C1216 C 0.42748 0.49544 0.80061 0.0
C1217 C 0.43574 0.51252 0.77725 0.0
C1218 C 0.42882 0.51599 0.82016 0.0
C1219 C 0.43246 0.54833 0.81603 0.0
C1220 C 0.43301 0.56061 0.79249 0.0
C1221 C 0.43185 0.54159 0.77203 0.0
C1222 C 0.42769 0.50654 0.83989 0.0
C1223 C 0.43403 0.5865 0.78996 0.0
C1224 C 0.40826 0.57387 0.85563 0.0
C1225 C 0.43217 0.59442 0.8634 0.0
C1226 C 0.40813 0.55875 0.84011 0.0
C1227 C 0.43244 0.56406 0.83234 0.0
C1228 C 0.45661 0.58459 0.84013 0.0
C1229 C 0.45621 0.59962 0.85552 0.0
C1230 C 0.38198 0.53736 0.83182 0.0
C1231 C 0.48288 0.59061 0.83228 0.0
H1232 H 0.42788 0.4773 0.80293 0.0
H1233 H 0.43408 0.54953 0.75789 0.0
H1234 H 0.4445 0.52251 0.84816 0.0
H1235 H 0.40911 0.50271 0.84665 0.0
H1236 H 0.42845 0.48791 0.83997 0.0
H1237 H 0.43324 0.5906 0.77474 0.0
H1238 H 0.41717 0.58566 0.79754 0.0
H1239 H 0.45256 0.60293 0.79639 0.0
H1240 H 0.38957 0.56978 0.8615 0.0
H1241 H 0.47482 0.61535 0.86145 0.0
H1242 H 0.38036 0.51755 0.8326 0.0
H1243 H 0.38096 0.54163 0.81665 0.0
H1244 H 0.36477 0.53603 0.83926 0.0
H1245 H 0.48427 0.57235 0.83303 0.0
H1246 H 0.49996 0.60709 0.84007 0.0
H1247 H 0.48435 0.59635 0.81719 0.0
C1248 C 0.95112 0.48753 0.97976 0.0
C1249 C 0.94681 0.49798 0.96322 0.0
C1250 C 0.92999 0.46992 0.99139 0.0
C1251 C 0.90377 0.46223 0.98624 0.0
C1252 C 0.89914 0.47202 0.96927 0.0
C1253 C 0.92073 0.49013 0.95811 0.0
C1254 C 0.93585 0.46037 0.00956 0.0
C1255 C 0.87142 0.46389 0.96314 0.0
C1256 C 0.84904 0.4013 0.01175 0.0
C1257 C 0.84182 0.41334 0.0258 0.0
C1258 C 0.86852 0.41691 0.99833 0.0
C1259 C 0.88148 0.44523 0.99925 0.0
C1260 C 0.87401 0.45746 0.01324 0.0
C1261 C 0.85408 0.44136 0.0262 0.0
C1262 C 0.87552 0.40314 0.98335 0.0
C1263 C 0.88767 0.4876 0.01492 0.0
H1264 H 0.97126 0.49387 0.98388 0.0
H1265 H 0.91717 0.49839 0.94552 0.0
H1266 H 0.92944 0.46757 0.0218 0.0
H1267 H 0.92451 0.43814 0.01005 0.0
H1268 H 0.95726 0.46761 0.01124 0.0
H1269 H 0.87096 0.47118 0.94872 0.0
H1270 H 0.85837 0.44173 0.96335 0.0
H1271 H 0.86301 0.47216 0.97318 0.0
H1272 H 0.83947 0.37964 0.01126 0.0
H1273 H 0.84872 0.45083 0.03707 0.0
H1274 H 0.89625 0.40815 0.98539 0.0
H1275 H 0.87428 0.4104 0.96911 0.0
H1276 H 0.86228 0.38098 0.98369 0.0
H1277 H 0.90908 0.49623 0.01786 0.0
H1278 H 0.87918 0.49394 0.02636 0.0
H1279 H 0.88609 0.49628 0.00139 0.0
C1280 C 0.48588 0.88668 0.10095 0.0
C1281 C 0.51183 0.9086 0.10277 0.0
C1282 C 0.47036 0.87401 0.11693 0.0
C1283 C 0.48111 0.88343 0.13519 0.0
C1284 C 0.50725 0.90568 0.13714 0.0
C1285 C 0.52239 0.91787 0.1209 0.0
C1286 C 0.44263 0.85024 0.11427 0.0
C1287 C 0.51936 0.91632 0.15638 0.0
C1288 C 0.43201 0.86353 0.17548 0.0
C1289 C 0.43273 0.84191 0.18351 0.0
C1290 C 0.44806 0.87759 0.16001 0.0
C1291 C 0.46506 0.86966 0.15223 0.0
C1292 C 0.4661 0.84804 0.16036 0.0
C1293 C 0.45005 0.83453 0.17598 0.0
C1294 C 0.44662 0.90073 0.15186 0.0
C1295 C 0.4838 0.83884 0.15233 0.0
H1296 H 0.47786 0.87917 0.08697 0.0
H1297 H 0.54264 0.93446 0.12236 0.0
H1298 H 0.44095 0.83225 0.12101 0.0
H1299 H 0.42812 0.8541 0.12129 0.0
H1300 H 0.43709 0.84567 0.09911 0.0
H1301 H 0.53957 0.93439 0.15545 0.0
H1302 H 0.50664 0.92151 0.16463 0.0
H1303 H 0.52055 0.90062 0.16436 0.0
H1304 H 0.41886 0.86954 0.18129 0.0
H1305 H 0.45068 0.81779 0.18202 0.0
H1306 H 0.43939 0.89613 0.13704 0.0
H1307 H 0.46667 0.91905 0.15158 0.0
H1308 H 0.43324 0.90511 0.16005 0.0
H1309 H 0.47795 0.83204 0.1375 0.0
H1310 H 0.4828 0.82213 0.16058 0.0
H1311 H 0.50466 0.85576 0.15211 0.0
C1312 C 0.58857 0.46107 0.27025 0.0
C1313 C 0.59341 0.48711 0.27267 0.0
C1314 C 0.5842 0.44444 0.28584 0.0
C1315 C 0.58474 0.45415 0.3043 0.0
C1316 C 0.58837 0.47997 0.30678 0.0
C1317 C 0.59296 0.49627 0.29094 0.0
C1318 C 0.5807 0.41717 0.28259 0.0
C1319 C 0.58893 0.49097 0.32623 0.0
C1320 C 0.56199 0.40522 0.34551 0.0
C1321 C 0.58631 0.40998 0.3526 0.0
C1322 C 0.56106 0.41957 0.32985 0.0
C1323 C 0.58496 0.43879 0.32099 0.0
C1324 C 0.60949 0.44343 0.32798 0.0
C1325 C 0.60986 0.42911 0.34372 0.0
C1326 C 0.5346 0.41433 0.32286 0.0
C1327 C 0.63543 0.46351 0.3188 0.0
H1328 H 0.58929 0.4541 0.25617 0.0
H1329 H 0.59712 0.51654 0.29292 0.0
H1330 H 0.59849 0.41724 0.28781 0.0
H1331 H 0.56344 0.4016 0.29063 0.0
H1332 H 0.57785 0.41145 0.2674 0.0
H1333 H 0.58843 0.50975 0.32563 0.0
H1334 H 0.57188 0.47597 0.33472 0.0
H1335 H 0.60728 0.4953 0.33373 0.0
H1336 H 0.54373 0.39055 0.35234 0.0
H1337 H 0.62875 0.43278 0.34895 0.0
H1338 H 0.53156 0.40758 0.3079 0.0
H1339 H 0.53421 0.43315 0.32334 0.0
H1340 H 0.51784 0.39887 0.33138 0.0
H1341 H 0.63527 0.45818 0.30371 0.0
H1342 H 0.65276 0.46447 0.32584 0.0
H1343 H 0.63808 0.48379 0.31922 0.0
C1344 C 0.48862 0.91005 0.34848 0.0
C1345 C 0.47168 0.90692 0.36344 0.0
C1346 C 0.47846 0.89737 0.331 0.0
C1347 C 0.45071 0.88083 0.32852 0.0
C1348 C 0.43349 0.87745 0.34359 0.0
C1349 C 0.44418 0.89072 0.36082 0.0
C1350 C 0.49741 0.90177 0.31515 0.0
C1351 C 0.4038 0.85968 0.34156 0.0
C1352 C 0.42109 0.8663 0.27912 0.0
C1353 C 0.41759 0.84102 0.27542 0.0
C1354 C 0.4324 0.87974 0.29619 0.0
C1355 C 0.43965 0.86723 0.31008 0.0
C1356 C 0.43607 0.84165 0.30643 0.0
C1357 C 0.42542 0.829 0.289 0.0
C1358 C 0.43653 0.90729 0.29937 0.0
C1359 C 0.44295 0.8274 0.32109 0.0
H1360 H 0.50988 0.9225 0.35045 0.0
H1361 H 0.43105 0.88831 0.37235 0.0
H1362 H 0.49503 0.88236 0.31077 0.0
H1363 H 0.49282 0.91014 0.30265 0.0
H1364 H 0.51842 0.91565 0.31927 0.0
H1365 H 0.39321 0.85861 0.35481 0.0
H1366 H 0.39658 0.86731 0.33011 0.0
H1367 H 0.39852 0.83908 0.33751 0.0
H1368 H 0.41519 0.87568 0.26856 0.0
H1369 H 0.42245 0.80932 0.28622 0.0
H1370 H 0.4576 0.92179 0.3029 0.0
H1371 H 0.4245 0.90684 0.31156 0.0
H1372 H 0.43098 0.91473 0.28679 0.0
H1373 H 0.46421 0.83984 0.325 0.0
H1374 H 0.43889 0.80755 0.31606 0.0
H1375 H 0.43132 0.82442 0.33414 0.0
C1376 C 0.58811 0.45454 0.52937 0.0
C1377 C 0.56608 0.45756 0.53092 0.0
C1378 C 0.59297 0.44467 0.51272 0.0
C1379 C 0.57573 0.43828 0.49705 0.0
C1380 C 0.55397 0.44212 0.49826 0.0
C1381 C 0.54911 0.45123 0.51527 0.0
C1382 C 0.61597 0.44017 0.51216 0.0
C1383 C 0.53546 0.43603 0.4817 0.0
C1384 C 0.59888 0.43055 0.4486 0.0
C1385 C 0.5849 0.40258 0.44649 0.0
C1386 C 0.59611 0.44253 0.46499 0.0
C1387 C 0.5795 0.42609 0.47976 0.0
C1388 C 0.56591 0.39783 0.47789 0.0
C1389 C 0.56854 0.38643 0.46119 0.0
C1390 C 0.61046 0.47273 0.46634 0.0
C1391 C 0.5485 0.3796 0.49351 0.0
H1392 H 0.60113 0.4592 0.54147 0.0
H1393 H 0.53183 0.45313 0.51628 0.0
H1394 H 0.60844 0.41849 0.51009 0.0
H1395 H 0.62903 0.45095 0.50002 0.0
H1396 H 0.62799 0.44697 0.52534 0.0
H1397 H 0.52097 0.44242 0.48434 0.0
H1398 H 0.54694 0.44627 0.46881 0.0
H1399 H 0.52435 0.41417 0.47874 0.0
H1400 H 0.61143 0.44309 0.43721 0.0
H1401 H 0.55792 0.36478 0.4597 0.0
H1402 H 0.62335 0.47982 0.47906 0.0
H1403 H 0.59586 0.4792 0.46789 0.0
H1404 H 0.62284 0.48266 0.4537 0.0
H1405 H 0.55989 0.38463 0.50694 0.0
H1406 H 0.54047 0.35808 0.49023 0.0
H1407 H 0.53163 0.38261 0.49588 0.0
C1408 C 0.07861 0.51003 0.67616 0.0
C1409 C 0.0858 0.50183 0.69259 0.0
C1410 C 0.09771 0.52684 0.66296 0.0
C1411 C 0.12476 0.53609 0.66641 0.0
C1412 C 0.13219 0.52783 0.68292 0.0
C1413 C 0.11259 0.51068 0.69578 0.0
C1414 C 0.08895 0.53501 0.64545 0.0
C1415 C 0.16088 0.53756 0.68718 0.0
C1416 C 0.17099 0.56384 0.6242 0.0
C1417 C 0.18056 0.59139 0.62579 0.0
C1418 C 0.15326 0.54561 0.63756 0.0
C1419 C 0.14524 0.55521 0.65301 0.0
C1420 C 0.15564 0.58309 0.65508 0.0
C1421 C 0.173 0.6008 0.64138 0.0
C1422 C 0.14236 0.51599 0.63478 0.0
C1423 C 0.14792 0.59417 0.67153 0.0
H1424 H 0.05796 0.50345 0.67372 0.0
H1425 H 0.11825 0.50447 0.70848 0.0
H1426 H 0.09752 0.55703 0.64551 0.0
H1427 H 0.09636 0.53003 0.63261 0.0
H1428 H 0.06704 0.52498 0.64441 0.0
H1429 H 0.16331 0.52872 0.70037 0.0
H1430 H 0.16977 0.53247 0.6753 0.0
H1431 H 0.17223 0.55973 0.68864 0.0
H1432 H 0.17668 0.55638 0.61218 0.0
H1433 H 0.18054 0.62209 0.64283 0.0
H1434 H 0.12067 0.50553 0.63225 0.0
H1435 H 0.14548 0.50724 0.64771 0.0
H1436 H 0.15169 0.51189 0.62264 0.0
H1437 H 0.12648 0.58704 0.67066 0.0
H1438 H 0.15924 0.61645 0.67182 0.0
H1439 H 0.15127 0.58679 0.68507 0.0
C1440 C 0.54453 0.08589 0.84122 0.0
C1441 C 0.5335 0.09106 0.857 0.0
C1442 C 0.56282 0.10676 0.82961 0.0
C1443 C 0.5704 0.13354 0.83394 0.0
C1444 C 0.56003 0.13903 0.85021 0.0
C1445 C 0.5414 0.11769 0.86141 0.0
C1446 C 0.57309 0.1 0.81223 0.0
C1447 C 0.56789 0.16735 0.85541 0.0
C1448 C 0.63123 0.18782 0.80828 0.0
C1449 C 0.61965 0.19408 0.79336 0.0
C1450 C 0.61549 0.16883 0.82202 0.0
C1451 C 0.58753 0.15543 0.82058 0.0
C1452 C 0.57576 0.162 0.80573 0.0
C1453 C 0.59195 0.18141 0.79243 0.0
C1454 C 0.62874 0.16274 0.83787 0.0
C1455 C 0.54602 0.14788 0.80352 0.0
H1456 H 0.53811 0.0653 0.83761 0.0
H1457 H 0.5326 0.12182 0.87337 0.0
H1458 H 0.56619 0.10549 0.79936 0.0
H1459 H 0.59507 0.11177 0.8121 0.0
H1460 H 0.56632 0.07833 0.81141 0.0
H1461 H 0.56033 0.1685 0.86954 0.0
H1462 H 0.58978 0.1806 0.85538 0.0
H1463 H 0.55991 0.17529 0.84474 0.0
H1464 H 0.65262 0.19769 0.80917 0.0
H1465 H 0.58282 0.186 0.78091 0.0
H1466 H 0.62407 0.14175 0.83658 0.0
H1467 H 0.62101 0.16458 0.85172 0.0
H1468 H 0.65062 0.17632 0.83781 0.0
H1469 H 0.53772 0.12611 0.80123 0.0
H1470 H 0.54002 0.15578 0.79146 0.0
H1471 H 0.53699 0.15008 0.81662 0.0
C1472 C 0.43633 0.53259 0.02709 0.0
C1473 C 0.45192 0.52149 0.02287 0.0
C1474 C 0.43563 0.55122 0.0149 0.0
C1475 C 0.45019 0.55822 0.99782 0.0
C1476 C 0.46637 0.54751 0.99371 0.0
C1477 C 0.46712 0.52938 0.00632 0.0
C1478 C 0.41848 0.56255 0.01992 0.0
C1479 C 0.48182 0.55406 0.9755 0.0
C1480 C 0.42362 0.57699 0.95553 0.0
C1481 C 0.44168 0.60467 0.95412 0.0
C1482 C 0.426 0.56178 0.96985 0.0
C1483 C 0.4466 0.57463 0.98339 0.0
C1484 C 0.46434 0.60272 0.98249 0.0
C1485 C 0.46187 0.61739 0.9677 0.0
C1486 C 0.40696 0.53179 0.9701 0.0
C1487 C 0.48613 0.61718 0.99695 0.0
H1488 H 0.42418 0.52629 0.03969 0.0
H1489 H 0.47885 0.52052 0.00291 0.0
H1490 H 0.42967 0.58465 0.01807 0.0
H1491 H 0.40111 0.5541 0.01027 0.0
H1492 H 0.41118 0.55785 0.0347 0.0
H1493 H 0.49467 0.54533 0.97496 0.0
H1494 H 0.46788 0.54615 0.96334 0.0
H1495 H 0.49441 0.57609 0.97371 0.0
H1496 H 0.40807 0.56697 0.94503 0.0
H1497 H 0.47574 0.63881 0.96677 0.0
H1498 H 0.39668 0.52557 0.98392 0.0
H1499 H 0.41806 0.52132 0.96834 0.0
H1500 H 0.39179 0.52497 0.95872 0.0
H1501 H 0.47779 0.61221 0.01144 0.0
H1502 H 0.49692 0.6393 0.99515 0.0
H1503 H 0.50055 0.61044 0.99576 0.0
C1504 C 0.91793 0.51056 0.18265 0.0
C1505 C 0.91775 0.49126 0.20364 0.0
C1506 C 0.89892 0.49023 0.16279 0.0
C1507 C 0.87738 0.45433 0.16522 0.0
C1508 C 0.87247 0.43759 0.18766 0.0
C1509 C 0.89064 0.45616 0.20835 0.0
C1510 C 0.90149 0.50317 0.14411 0.0
C1511 C 0.85292 0.40828 0.18917 0.0
C1512 C 0.8235 0.4245 0.12799 0.0
C1513 C 0.83201 0.4109 0.11637 0.0
C1514 C 0.83776 0.43805 0.14432 0.0
C1515 C 0.86144 0.43869 0.14878 0.0
C1516 C 0.87006 0.4249 0.13719 0.0
C1517 C 0.85504 0.41086 0.12121 0.0
C1518 C 0.82736 0.45153 0.15687 0.0
C1519 C 0.89548 0.42557 0.14136 0.0
H1520 H 0.93266 0.5316 0.18096 0.0
H1521 H 0.88936 0.44618 0.22154 0.0
H1522 H 0.90286 0.49082 0.13273 0.0
H1523 H 0.88356 0.50427 0.14143 0.0
H1524 H 0.91919 0.52374 0.144 0.0
H1525 H 0.85048 0.40174 0.20413 0.0
H1526 H 0.83364 0.40375 0.18316 0.0
H1527 H 0.85993 0.39713 0.1807 0.0
H1528 H 0.8055 0.42428 0.12443 0.0
H1529 H 0.86175 0.40049 0.11219 0.0
H1530 H 0.84143 0.47352 0.15692 0.0
H1531 H 0.82576 0.44445 0.17165 0.0
H1532 H 0.80764 0.44751 0.15218 0.0
H1533 H 0.91235 0.44663 0.141 0.0
H1534 H 0.89931 0.41357 0.13105 0.0
H1535 H 0.89472 0.4177 0.15576 0.0
loop_
_geom_bond_atom_site_label_1
_geom_bond_atom_site_label_2
_geom_bond_distance
_geom_bond_site_symmetry_2
_ccdc_geom_bond_type
C0 C1 1.560 . S
C0 H61 0.959 . S
C0 H62 0.959 . S
C0 H63 0.960 . S
C1 C0 1.560 . S
C1 O56 1.426 . S
C1 H60 0.980 . S
C2 C3 1.407 . S
C2 C7 1.418 . S
C2 O56 1.334 . S
C3 C2 1.407 . S
C3 C4 1.360 . S
C3 H64 0.929 . S
C4 C3 1.360 . S
C4 C5 1.401 . S
C4 C8 1.527 . S
C5 C4 1.401 . S
C5 C6 1.405 . S
C5 C38 1.587 . S
C6 C5 1.405 . S
C6 C7 1.332 . S
C6 C9 1.496 . S
C7 C2 1.418 . S
C7 C6 1.332 . S
C7 H65 0.929 . S
C8 C4 1.527 . S
C8 H66 0.959 . S
C8 H67 0.961 . S
C8 H68 0.961 . S
C9 C6 1.496 . S
C9 H69 0.960 . S
C9 H70 0.960 . S
C9 H71 0.961 . S
C10 C11 1.517 . S
C10 H73 0.961 . S
C10 H74 0.960 . S
C10 H75 0.959 . S
C11 C10 1.517 . S
C11 O59 1.468 . S
C11 H72 0.980 . S
C12 C13 1.349 . S
C12 C17 1.367 . S
C12 O59 1.408 . S
C13 C12 1.349 . S
C13 C14 1.407 . S
C13 H76 0.930 . S
C14 C13 1.407 . S
C14 C15 1.449 . S
C14 C18 1.529 . S
C15 C14 1.449 . S
C15 C16 1.384 . S
C15 C40 1.553 1_655 S
C16 C15 1.384 . S
C16 C17 1.364 . S
C16 C19 1.450 . S
C17 C12 1.367 . S
C17 C16 1.364 . S
C17 H77 0.931 . S
C18 C14 1.529 . S
C18 H78 0.938 1_655 S
C18 H79 0.959 1_655 S
C18 H80 0.989 . S
C19 C16 1.450 . S
C19 H81 0.960 . S
C19 H82 0.960 1_655 S
C19 H83 0.960 . S
C20 C21 1.309 . S
C20 C25 1.304 . S
C20 O58 1.435 . S
C21 C20 1.309 . S
C21 C22 1.476 . S
C21 H85 0.930 . S
C22 C21 1.476 . S
C22 C23 1.400 . S
C22 C26 1.567 . S
C23 C22 1.400 . S
C23 C24 1.373 . S
C23 C45 1.432 . S
C24 C23 1.373 . S
C24 C25 1.339 . S
C24 C27 1.530 . S
C25 C20 1.304 . S
C25 C24 1.339 . S
C25 H86 0.930 . S
C26 C22 1.567 . S
C26 H87 0.961 . S
C26 H88 0.960 . S
C26 H89 0.958 . S
C27 C24 1.530 . S
C27 H90 0.961 . S
C27 H91 0.960 . S
C27 H92 0.960 . S
C28 C29 1.530 . S
C28 H94 0.961 . S
C28 H95 0.961 . S
C28 H96 0.959 . S
C29 C28 1.530 . S
C29 O57 1.412 . S
C29 H93 0.980 . S
C30 C31 1.288 . S
C30 C35 1.377 . S
C30 O57 1.393 . S
C31 C30 1.288 . S
C31 C32 1.369 . S
C31 H97 0.932 . S
C32 C31 1.369 . S
C32 C33 1.398 . S
C32 C36 1.527 . S
C33 C32 1.398 . S
C33 C34 1.380 . S
C33 C47 1.497 . S
C34 C33 1.380 . S
C34 C35 1.383 . S
C34 C37 1.603 . S
C35 C30 1.377 . S
C35 C34 1.383 . S
C35 H98 0.929 . S
C36 C32 1.527 . S
C36 H99 0.961 . S
C36 H100 0.959 . S
C36 H101 0.959 . S
C37 C34 1.603 . S
C37 H102 0.960 . S
C37 H103 0.962 . S
C37 H104 0.961 . S
C38 C5 1.587 . S
C38 C39 1.360 . S
C38 C51 1.412 . S
C39 C38 1.360 . S
C39 C40 1.365 . S
C39 H105 0.929 . S
C40 C15 1.553 1_455 S
C40 C39 1.365 . S
C40 C41 1.404 . S
C41 C40 1.404 . S
C41 C42 1.395 1_455 S
C41 C52 1.451 . S
C42 C41 1.395 1_655 S
C42 C43 1.322 . S
C42 H106 0.930 . S
C43 C42 1.322 . S
C43 C44 1.459 . S
C43 H107 0.929 . S
C44 C43 1.459 . S
C44 C45 1.445 . S
C44 C53 1.395 1_655 S
C45 C23 1.432 . S
C45 C44 1.445 . S
C45 C46 1.370 . S
C46 C45 1.370 . S
C46 C47 1.438 1_655 S
C46 H108 0.930 . S
C47 C33 1.497 . S
C47 C46 1.438 1_455 S
C47 C48 1.360 . S
C48 C47 1.360 . S
C48 C49 1.401 . S
C48 C53 1.446 . S
C49 C48 1.401 . S
C49 C50 1.347 . S
C49 H109 0.929 . S
C50 C49 1.347 . S
C50 C51 1.455 . S
C50 H110 0.930 . S
C51 C38 1.412 . S
C51 C50 1.455 . S
C51 C52 1.331 . S
C52 C41 1.451 . S
C52 C51 1.331 . S
C52 C53 1.497 . S
C53 C44 1.395 1_455 S
C53 C48 1.446 . S
C53 C52 1.497 . S
C54 C55 1.582 . S
C54 H111 0.962 . S
C54 H112 0.959 . S
C54 H113 0.958 . S
C55 C54 1.582 . S
C55 O58 1.458 . S
C55 H84 0.980 . S
O56 C1 1.426 . S
O56 C2 1.334 . S
O57 C29 1.412 . S
O57 C30 1.393 . S
O58 C20 1.435 . S
O58 C55 1.458 . S
O59 C11 1.468 . S
O59 C12 1.408 . S
H60 C1 0.980 . S
H61 C0 0.959 . S
H62 C0 0.959 . S
H63 C0 0.960 . S
H64 C3 0.929 . S
H65 C7 0.929 . S
H66 C8 0.959 . S
H67 C8 0.961 . S
H68 C8 0.961 . S
H69 C9 0.960 . S
H70 C9 0.960 . S
H71 C9 0.961 . S
H72 C11 0.980 . S
H73 C10 0.961 . S
H74 C10 0.960 . S
H75 C10 0.959 . S
H76 C13 0.930 . S
H77 C17 0.931 . S
H78 C18 0.938 1_455 S
H79 C18 0.959 1_455 S
H80 C18 0.989 . S
H81 C19 0.960 . S
H82 C19 0.960 1_455 S
H83 C19 0.960 . S
H84 C55 0.980 . S
H85 C21 0.930 . S
H86 C25 0.930 . S
H87 C26 0.961 . S
H88 C26 0.960 . S
H89 C26 0.958 . S
H90 C27 0.961 . S
H91 C27 0.960 . S
H92 C27 0.960 . S
H93 C29 0.980 . S
H94 C28 0.961 . S
H95 C28 0.961 . S
H96 C28 0.959 . S
H97 C31 0.932 . S
H98 C35 0.929 . S
H99 C36 0.961 . S
H100 C36 0.959 . S
H101 C36 0.959 . S
H102 C37 0.960 . S
H103 C37 0.962 . S
H104 C37 0.961 . S
H105 C39 0.929 . S
H106 C42 0.930 . S
H107 C43 0.929 . S
H108 C46 0.930 . S
H109 C49 0.929 . S
H110 C50 0.930 . S
H111 C54 0.962 . S
H112 C54 0.959 . S
H113 C54 0.958 . S
C114 C115 1.560 . S
C114 H175 0.959 . S
C114 H176 0.959 . S
C114 H177 0.960 . S
C115 C114 1.560 . S
C115 O170 1.426 . S
C115 H174 0.980 . S
C116 C117 1.407 . S
C116 C121 1.418 . S
C116 O170 1.334 . S
C117 C116 1.407 . S
C117 C118 1.360 . S
C117 H178 0.929 . S
C118 C117 1.360 . S
C118 C119 1.401 . S
C118 C122 1.527 . S
C119 C118 1.401 . S
C119 C120 1.405 . S
C119 C152 1.587 . S
C120 C119 1.405 . S
C120 C121 1.332 . S
C120 C123 1.496 . S
C121 C116 1.418 . S
C121 C120 1.332 . S
C121 H179 0.929 . S
C122 C118 1.527 . S
C122 H180 0.959 . S
C122 H181 0.961 . S
C122 H182 0.961 . S
C123 C120 1.496 . S
C123 H183 0.960 . S
C123 H184 0.960 . S
C123 H185 0.961 . S
C124 C125 1.517 . S
C124 H187 0.961 . S
C124 H188 0.960 . S
C124 H189 0.959 . S
C125 C124 1.517 . S
C125 O173 1.468 . S
C125 H186 0.980 . S
C126 C127 1.349 . S
C126 C131 1.367 . S
C126 O173 1.408 . S
C127 C126 1.349 . S
C127 C128 1.407 . S
C127 H190 0.930 . S
C128 C127 1.407 . S
C128 C129 1.449 . S
C128 C132 1.535 . S
C129 C128 1.449 . S
C129 C130 1.384 . S
C129 C154 1.553 . S
C130 C129 1.384 . S
C130 C131 1.364 . S
C130 C133 1.450 . S
C131 C126 1.367 . S
C131 C130 1.364 . S
C131 H191 0.931 . S
C132 C128 1.535 . S
C132 H192 0.959 . S
C132 H193 0.961 . S
C132 H194 0.959 . S
C133 C130 1.450 . S
C133 H195 0.960 . S
C133 H196 0.960 . S
C133 H197 0.960 . S
C134 C135 1.309 . S
C134 C139 1.304 . S
C134 O172 1.435 . S
C135 C134 1.309 . S
C135 C136 1.476 . S
C135 H199 0.930 . S
C136 C135 1.476 . S
C136 C137 1.400 . S
C136 C140 1.567 . S
C137 C136 1.400 . S
C137 C138 1.373 . S
C137 C159 1.432 . S
C138 C137 1.373 . S
C138 C139 1.339 . S
C138 C141 1.530 . S
C139 C134 1.304 . S
C139 C138 1.339 . S
C139 H200 0.930 . S
C140 C136 1.567 . S
C140 H201 0.961 . S
C140 H202 0.960 . S
C140 H203 0.958 . S
C141 C138 1.530 . S
C141 H204 0.961 . S
C141 H205 0.960 . S
C141 H206 0.960 . S
C142 C143 1.530 . S
C142 H208 0.961 . S
C142 H209 0.961 . S
C142 H210 0.959 . S
C143 C142 1.530 . S
C143 O171 1.412 . S
C143 H207 0.980 . S
C144 C145 1.288 . S
C144 C149 1.377 . S
C144 O171 1.393 . S
C145 C144 1.288 . S
C145 C146 1.369 . S
C145 H211 0.932 . S
C146 C145 1.369 . S
C146 C147 1.398 . S
C146 C150 1.527 1_565 S
C147 C146 1.398 . S
C147 C148 1.380 . S
C147 C161 1.497 1_565 S
C148 C147 1.380 . S
C148 C149 1.383 . S
C148 C151 1.603 . S
C149 C144 1.377 . S
C149 C148 1.383 . S
C149 H212 0.929 . S
C150 C146 1.527 1_545 S
C150 H213 0.961 . S
C150 H214 0.959 . S
C150 H215 0.959 1_545 S
C151 C148 1.603 . S
C151 H216 0.960 . S
C151 H217 0.962 . S
C151 H218 0.961 . S
C152 C119 1.587 . S
C152 C153 1.360 . S
C152 C165 1.412 . S
C153 C152 1.360 . S
C153 C154 1.365 1_565 S
C153 H219 0.929 . S
C154 C129 1.553 . S
C154 C153 1.365 1_545 S
C154 C155 1.404 . S
C155 C154 1.404 . S
C155 C156 1.395 . S
C155 C166 1.451 . S
C156 C155 1.395 . S
C156 C157 1.322 . S
C156 H220 0.930 . S
C157 C156 1.322 . S
C157 C158 1.459 . S
C157 H221 0.929 . S
C158 C157 1.459 . S
C158 C159 1.445 . S
C158 C167 1.395 . S
C159 C137 1.432 . S
C159 C158 1.445 . S
C159 C160 1.370 . S
C160 C159 1.370 . S
C160 C161 1.438 . S
C160 H222 0.930 . S
C161 C147 1.497 1_545 S
C161 C160 1.438 . S
C161 C162 1.362 . S
C162 C161 1.362 . S
C162 C163 1.396 1_545 S
C162 C167 1.448 . S
C163 C162 1.396 1_565 S
C163 C164 1.347 . S
C163 H223 0.929 . S
C164 C163 1.347 . S
C164 C165 1.455 . S
C164 H224 0.930 . S
C165 C152 1.412 . S
C165 C164 1.455 . S
C165 C166 1.331 1_565 S
C166 C155 1.451 . S
C166 C165 1.331 1_545 S
C166 C167 1.497 . S
C167 C158 1.395 . S
C167 C162 1.448 . S
C167 C166 1.497 . S
C168 C169 1.582 . S
C168 H225 0.962 . S
C168 H226 0.959 . S
C168 H227 0.958 . S
C169 C168 1.582 . S
C169 O172 1.458 . S
C169 H198 0.980 . S
O170 C115 1.426 . S
O170 C116 1.334 . S
O171 C143 1.412 . S
O171 C144 1.393 . S
O172 C134 1.435 . S
O172 C169 1.458 . S
O173 C125 1.468 . S
O173 C126 1.408 . S
H174 C115 0.980 . S
H175 C114 0.959 . S
H176 C114 0.959 . S
H177 C114 0.960 . S
H178 C117 0.929 . S
H179 C121 0.929 . S
H180 C122 0.959 . S
H181 C122 0.961 . S
H182 C122 0.961 . S
H183 C123 0.960 . S
H184 C123 0.960 . S
H185 C123 0.961 . S
H186 C125 0.980 . S
H187 C124 0.961 . S
H188 C124 0.960 . S
H189 C124 0.959 . S
H190 C127 0.930 . S
H191 C131 0.931 . S
H192 C132 0.959 . S
H193 C132 0.961 . S
H194 C132 0.959 . S
H195 C133 0.960 . S
H196 C133 0.960 . S
H197 C133 0.960 . S
H198 C169 0.980 . S
H199 C135 0.930 . S
H200 C139 0.930 . S
H201 C140 0.961 . S
H202 C140 0.960 . S
H203 C140 0.958 . S
H204 C141 0.961 . S
H205 C141 0.960 . S
H206 C141 0.960 . S
H207 C143 0.980 . S
H208 C142 0.961 . S
H209 C142 0.961 . S
H210 C142 0.959 . S
H211 C145 0.932 . S
H212 C149 0.929 . S
H213 C150 0.961 . S
H214 C150 0.959 . S
H215 C150 0.959 1_565 S
H216 C151 0.960 . S
H217 C151 0.962 . S
H218 C151 0.961 . S
H219 C153 0.929 . S
H220 C156 0.930 . S
H221 C157 0.929 . S
H222 C160 0.930 . S
H223 C163 0.929 . S
H224 C164 0.930 . S
H225 C168 0.962 . S
H226 C168 0.959 . S
H227 C168 0.958 . S
C228 C229 1.560 . S
C228 H289 0.959 . S
C228 H290 0.959 . S
C228 H291 0.960 . S
C229 C228 1.560 . S
C229 O284 1.426 . S
C229 H288 0.980 . S
C230 C231 1.407 . S
C230 C235 1.418 . S
C230 O284 1.334 . S
C231 C230 1.407 . S
C231 C232 1.360 . S
C231 H292 0.929 . S
C232 C231 1.360 . S
C232 C233 1.401 . S
C232 C236 1.527 . S
C233 C232 1.401 . S
C233 C234 1.405 . S
C233 C266 1.587 . S
C234 C233 1.405 . S
C234 C235 1.332 . S
C234 C237 1.496 . S
C235 C230 1.418 . S
C235 C234 1.332 . S
C235 H293 0.929 . S
C236 C232 1.527 . S
C236 H294 0.959 . S
C236 H295 0.961 . S
C236 H296 0.961 . S
C237 C234 1.496 . S
C237 H297 0.960 . S
C237 H298 0.960 . S
C237 H299 0.961 . S
C238 C239 1.517 . S
C238 H301 0.961 . S
C238 H302 0.960 . S
C238 H303 0.959 . S
C239 C238 1.517 . S
C239 O287 1.468 . S
C239 H300 0.980 . S
C240 C241 1.349 . S
C240 C245 1.367 . S
C240 O287 1.408 . S
C241 C240 1.349 . S
C241 C242 1.407 . S
C241 H304 0.930 . S
C242 C241 1.407 . S
C242 C243 1.449 . S
C242 C246 1.535 . S
C243 C242 1.449 . S
C243 C244 1.384 . S
C243 C268 1.553 . S
C244 C243 1.384 . S
C244 C245 1.364 . S
C244 C247 1.450 . S
C245 C240 1.367 . S
C245 C244 1.364 . S
C245 H305 0.931 . S
C246 C242 1.535 . S
C246 H306 0.959 . S
C246 H307 0.961 . S
C246 H308 0.959 . S
C247 C244 1.450 . S
C247 H309 0.960 . S
C247 H310 0.960 . S
C247 H311 0.960 . S
C248 C249 1.309 . S
C248 C253 1.304 . S
C248 O286 1.435 . S
C249 C248 1.309 . S
C249 C250 1.476 . S
C249 H313 0.930 . S
C250 C249 1.476 . S
C250 C251 1.400 . S
C250 C254 1.567 . S
C251 C250 1.400 . S
C251 C252 1.373 . S
C251 C273 1.432 . S
C252 C251 1.373 . S
C252 C253 1.339 . S
C252 C255 1.530 . S
C253 C248 1.304 . S
C253 C252 1.339 . S
C253 H314 0.930 . S
C254 C250 1.567 . S
C254 H315 0.961 . S
C254 H316 0.960 . S
C254 H317 0.958 . S
C255 C252 1.530 . S
C255 H318 0.961 . S
C255 H319 0.960 . S
C255 H320 0.960 . S
C256 C257 1.530 . S
C256 H322 0.961 . S
C256 H323 0.961 . S
C256 H324 0.959 . S
C257 C256 1.530 . S
C257 O285 1.412 . S
C257 H321 0.980 . S
C258 C259 1.288 . S
C258 C263 1.377 . S
C258 O285 1.393 . S
C259 C258 1.288 . S
C259 C260 1.369 . S
C259 H325 0.932 . S
C260 C259 1.369 . S
C260 C261 1.398 . S
C260 C264 1.527 . S
C261 C260 1.398 . S
C261 C262 1.380 . S
C261 C275 1.497 . S
C262 C261 1.380 . S
C262 C263 1.383 . S
C262 C265 1.603 . S
C263 C258 1.377 . S
C263 C262 1.383 . S
C263 H326 0.929 . S
C264 C260 1.527 . S
C264 H327 0.961 . S
C264 H328 0.959 . S
C264 H329 0.959 . S
C265 C262 1.603 . S
C265 H330 0.960 . S
C265 H331 0.962 . S
C265 H332 0.961 . S
C266 C233 1.587 . S
C266 C267 1.360 . S
C266 C279 1.412 . S
C267 C266 1.360 . S
C267 C268 1.365 . S
C267 H333 0.929 . S
C268 C243 1.553 . S
C268 C267 1.365 . S
C268 C269 1.404 . S
C269 C268 1.404 . S
C269 C270 1.395 . S
C269 C280 1.451 . S
C270 C269 1.395 . S
C270 C271 1.322 . S
C270 H334 0.930 . S
C271 C270 1.322 . S
C271 C272 1.459 . S
C271 H335 0.929 . S
C272 C271 1.459 . S
C272 C273 1.445 . S
C272 C281 1.395 . S
C273 C251 1.432 . S
C273 C272 1.445 . S
C273 C274 1.370 . S
C274 C273 1.370 . S
C274 C275 1.438 . S
C274 H336 0.930 . S
C275 C261 1.497 . S
C275 C274 1.438 . S
C275 C276 1.360 . S
C276 C275 1.360 . S
C276 C277 1.401 . S
C276 C281 1.446 . S
C277 C276 1.401 . S
C277 C278 1.347 . S
C277 H337 0.929 . S
C278 C277 1.347 . S
C278 C279 1.455 . S
C278 H338 0.930 . S
C279 C266 1.412 . S
C279 C278 1.455 . S
C279 C280 1.331 . S
C280 C269 1.451 . S
C280 C279 1.331 . S
C280 C281 1.497 . S
C281 C272 1.395 . S
C281 C276 1.446 . S
C281 C280 1.497 . S
C282 C283 1.582 . S
C282 H339 0.962 . S
C282 H340 0.959 . S
C282 H341 0.958 . S
C283 C282 1.582 . S
C283 O286 1.458 . S
C283 H312 0.980 . S
O284 C229 1.426 . S
O284 C230 1.334 . S
O285 C257 1.412 . S
O285 C258 1.393 . S
O286 C248 1.435 . S
O286 C283 1.458 . S
O287 C239 1.468 . S
O287 C240 1.408 . S
H288 C229 0.980 . S
H289 C228 0.959 . S
H290 C228 0.959 . S
H291 C228 0.960 . S
H292 C231 0.929 . S
H293 C235 0.929 . S
H294 C236 0.959 . S
H295 C236 0.961 . S
H296 C236 0.961 . S
H297 C237 0.960 . S
H298 C237 0.960 . S
H299 C237 0.961 . S
H300 C239 0.980 . S
H301 C238 0.961 . S
H302 C238 0.960 . S
H303 C238 0.959 . S
H304 C241 0.930 . S
H305 C245 0.931 . S
H306 C246 0.959 . S
H307 C246 0.961 . S
H308 C246 0.959 . S
H309 C247 0.960 . S
H310 C247 0.960 . S
H311 C247 0.960 . S
H312 C283 0.980 . S
H313 C249 0.930 . S
H314 C253 0.930 . S
H315 C254 0.961 . S
H316 C254 0.960 . S
H317 C254 0.958 . S
H318 C255 0.961 . S
H319 C255 0.960 . S
H320 C255 0.960 . S
H321 C257 0.980 . S
H322 C256 0.961 . S
H323 C256 0.961 . S
H324 C256 0.959 . S
H325 C259 0.932 . S
H326 C263 0.929 . S
H327 C264 0.961 . S
H328 C264 0.959 . S
H329 C264 0.959 . S
H330 C265 0.960 . S
H331 C265 0.962 . S
H332 C265 0.961 . S
H333 C267 0.929 . S
H334 C270 0.930 . S
H335 C271 0.929 . S
H336 C274 0.930 . S
H337 C277 0.929 . S
H338 C278 0.930 . S
H339 C282 0.962 . S
H340 C282 0.959 . S
H341 C282 0.958 . S
C342 C343 1.560 . S
C342 H403 0.959 . S
C342 H404 0.959 . S
C342 H405 0.960 . S
C343 C342 1.560 . S
C343 O398 1.426 . S
C343 H402 0.980 . S
C344 C345 1.407 . S
C344 C349 1.418 . S
C344 O398 1.334 . S
C345 C344 1.407 . S
C345 C346 1.360 . S
C345 H406 0.929 . S
C346 C345 1.360 . S
C346 C347 1.401 . S
C346 C350 1.527 . S
C347 C346 1.401 . S
C347 C348 1.405 . S
C347 C380 1.587 . S
C348 C347 1.405 . S
C348 C349 1.332 . S
C348 C351 1.496 . S
C349 C344 1.418 . S
C349 C348 1.332 . S
C349 H407 0.929 . S
C350 C346 1.527 . S
C350 H408 0.959 . S
C350 H409 0.961 . S
C350 H410 0.961 . S
C351 C348 1.496 . S
C351 H411 0.960 . S
C351 H412 0.960 . S
C351 H413 0.961 . S
C352 C353 1.517 . S
C352 H415 0.961 . S
C352 H416 0.960 . S
C352 H417 0.959 . S
C353 C352 1.517 . S
C353 O401 1.468 . S
C353 H414 0.980 . S
C354 C355 1.349 . S
C354 C359 1.367 . S
C354 O401 1.408 . S
C355 C354 1.349 . S
C355 C356 1.407 . S
C355 H418 0.930 . S
C356 C355 1.407 . S
C356 C357 1.449 . S
C356 C360 1.535 . S
C357 C356 1.449 . S
C357 C358 1.384 . S
C357 C382 1.553 1_655 S
C358 C357 1.384 . S
C358 C359 1.364 . S
C358 C361 1.450 . S
C359 C354 1.367 . S
C359 C358 1.364 . S
C359 H419 0.931 . S
C360 C356 1.535 . S
C360 H420 0.959 1_655 S
C360 H421 0.961 1_655 S
C360 H422 0.959 . S
C361 C358 1.450 . S
C361 H423 0.960 . S
C361 H424 0.960 1_655 S
C361 H425 0.960 . S
C362 C363 1.309 . S
C362 C367 1.304 . S
C362 O400 1.435 . S
C363 C362 1.309 . S
C363 C364 1.476 . S
C363 H427 0.930 . S
C364 C363 1.476 . S
C364 C365 1.400 . S
C364 C368 1.567 . S
C365 C364 1.400 . S
C365 C366 1.373 . S
C365 C387 1.432 . S
C366 C365 1.373 . S
C366 C367 1.339 . S
C366 C369 1.530 . S
C367 C362 1.304 . S
C367 C366 1.339 . S
C367 H428 0.930 . S
C368 C364 1.567 . S
C368 H429 0.961 . S
C368 H430 0.960 . S
C368 H431 0.958 . S
C369 C366 1.530 . S
C369 H432 0.961 . S
C369 H433 0.960 . S
C369 H434 0.960 . S
C370 C371 1.530 . S
C370 H436 0.961 . S
C370 H437 0.961 . S
C370 H438 0.959 . S
C371 C370 1.530 . S
C371 O399 1.412 . S
C371 H435 0.980 . S
C372 C373 1.288 . S
C372 C377 1.377 . S
C372 O399 1.393 . S
C373 C372 1.288 . S
C373 C374 1.369 . S
C373 H439 0.932 . S
C374 C373 1.369 . S
C374 C375 1.398 . S
C374 C378 1.527 . S
C375 C374 1.398 . S
C375 C376 1.380 . S
C375 C389 1.497 . S
C376 C375 1.380 . S
C376 C377 1.383 . S
C376 C379 1.603 . S
C377 C372 1.377 . S
C377 C376 1.383 . S
C377 H440 0.929 . S
C378 C374 1.527 . S
C378 H441 0.961 . S
C378 H442 0.959 1_455 S
C378 H443 0.959 . S
C379 C376 1.603 . S
C379 H444 0.960 . S
C379 H445 0.962 . S
C379 H446 0.961 . S
C380 C347 1.587 . S
C380 C381 1.360 . S
C380 C393 1.412 . S
C381 C380 1.360 . S
C381 C382 1.365 . S
C381 H447 0.929 . S
C382 C357 1.553 1_455 S
C382 C381 1.365 . S
C382 C383 1.404 . S
C383 C382 1.404 . S
C383 C384 1.395 1_455 S
C383 C394 1.451 . S
C384 C383 1.395 1_655 S
C384 C385 1.322 . S
C384 H448 0.930 . S
C385 C384 1.322 . S
C385 C386 1.459 . S
C385 H449 0.929 . S
C386 C385 1.459 . S
C386 C387 1.445 . S
C386 C395 1.395 1_655 S
C387 C365 1.432 . S
C387 C386 1.445 . S
C387 C388 1.370 . S
C388 C387 1.370 . S
C388 C389 1.438 1_655 S
C388 H450 0.930 . S
C389 C375 1.497 . S
C389 C388 1.438 1_455 S
C389 C390 1.360 . S
C390 C389 1.360 . S
C390 C391 1.401 . S
C390 C395 1.446 . S
C391 C390 1.401 . S
C391 C392 1.347 . S
C391 H451 0.929 . S
C392 C391 1.347 . S
C392 C393 1.455 . S
C392 H452 0.930 . S
C393 C380 1.412 . S
C393 C392 1.455 . S
C393 C394 1.331 . S
C394 C383 1.451 . S
C394 C393 1.331 . S
C394 C395 1.497 . S
C395 C386 1.395 1_455 S
C395 C390 1.446 . S
C395 C394 1.497 . S
C396 C397 1.582 . S
C396 H453 0.962 . S
C396 H454 0.959 . S
C396 H455 0.958 . S
C397 C396 1.582 . S
C397 O400 1.458 . S
C397 H426 0.980 . S
O398 C343 1.426 . S
O398 C344 1.334 . S
O399 C371 1.412 . S
O399 C372 1.393 . S
O400 C362 1.435 . S
O400 C397 1.458 . S
O401 C353 1.468 . S
O401 C354 1.408 . S
H402 C343 0.980 . S
H403 C342 0.959 . S
H404 C342 0.959 . S
H405 C342 0.960 . S
H406 C345 0.929 . S
H407 C349 0.929 . S
H408 C350 0.959 . S
H409 C350 0.961 . S
H410 C350 0.961 . S
H411 C351 0.960 . S
H412 C351 0.960 . S
H413 C351 0.961 . S
H414 C353 0.980 . S
H415 C352 0.961 . S
H416 C352 0.960 . S
H417 C352 0.959 . S
H418 C355 0.930 . S
H419 C359 0.931 . S
H420 C360 0.959 1_455 S
H421 C360 0.961 1_455 S
H422 C360 0.959 . S
H423 C361 0.960 . S
H424 C361 0.960 1_455 S
H425 C361 0.960 . S
H426 C397 0.980 . S
H427 C363 0.930 . S
H428 C367 0.930 . S
H429 C368 0.961 . S
H430 C368 0.960 . S
H431 C368 0.958 . S
H432 C369 0.961 . S
H433 C369 0.960 . S
H434 C369 0.960 . S
H435 C371 0.980 . S
H436 C370 0.961 . S
H437 C370 0.961 . S
H438 C370 0.959 . S
H439 C373 0.932 . S
H440 C377 0.929 . S
H441 C378 0.961 . S
H442 C378 0.959 1_655 S
H443 C378 0.959 . S
H444 C379 0.960 . S
H445 C379 0.962 . S
H446 C379 0.961 . S
H447 C381 0.929 . S
H448 C384 0.930 . S
H449 C385 0.929 . S
H450 C388 0.930 . S
H451 C391 0.929 . S
H452 C392 0.930 . S
H453 C396 0.962 . S
H454 C396 0.959 . S
H455 C396 0.958 . S
C456 C457 1.560 . S
C456 H517 0.959 . S
C456 H518 0.959 . S
C456 H519 0.960 . S
C457 C456 1.560 . S
C457 O512 1.426 . S
C457 H516 0.980 . S
C458 C459 1.407 . S
C458 C463 1.418 . S
C458 O512 1.334 . S
C459 C458 1.407 . S
C459 C460 1.360 . S
C459 H520 0.929 . S
C460 C459 1.360 . S
C460 C461 1.401 . S
C460 C464 1.527 . S
C461 C460 1.401 . S
C461 C462 1.405 . S
C461 C494 1.587 . S
C462 C461 1.405 . S
C462 C463 1.332 . S
C462 C465 1.496 . S
C463 C458 1.418 . S
C463 C462 1.332 . S
C463 H521 0.929 . S
C464 C460 1.527 . S
C464 H522 0.959 . S
C464 H523 0.961 . S
C464 H524 0.961 . S
C465 C462 1.496 . S
C465 H525 0.960 . S
C465 H526 0.960 . S
C465 H527 0.961 . S
C466 C467 1.517 . S
C466 H529 0.961 . S
C466 H530 0.960 . S
C466 H531 0.959 . S
C467 C466 1.517 . S
C467 O515 1.468 . S
C467 H528 0.980 . S
C468 C469 1.349 . S
C468 C473 1.367 . S
C468 O515 1.408 . S
C469 C468 1.349 . S
C469 C470 1.407 . S
C469 H532 0.930 . S
C470 C469 1.407 . S
C470 C471 1.449 . S
C470 C474 1.535 . S
C471 C470 1.449 . S
C471 C472 1.384 . S
C471 C496 1.553 . S
C472 C471 1.384 . S
C472 C473 1.364 . S
C472 C475 1.450 . S
C473 C468 1.367 . S
C473 C472 1.364 . S
C473 H533 0.931 . S
C474 C470 1.535 . S
C474 H534 0.959 . S
C474 H535 0.961 . S
C474 H536 0.959 . S
C475 C472 1.450 . S
C475 H537 0.960 . S
C475 H538 0.960 . S
C475 H539 0.960 . S
C476 C477 1.309 . S
C476 C481 1.304 . S
C476 O514 1.435 . S
C477 C476 1.309 . S
C477 C478 1.476 . S
C477 H541 0.930 . S
C478 C477 1.476 . S
C478 C479 1.400 . S
C478 C482 1.567 . S
C479 C478 1.400 . S
C479 C480 1.373 . S
C479 C501 1.432 . S
C480 C479 1.373 . S
C480 C481 1.339 . S
C480 C483 1.530 . S
C481 C476 1.304 . S
C481 C480 1.339 . S
C481 H542 0.930 . S
C482 C478 1.567 . S
C482 H543 0.961 . S
C482 H544 0.960 . S
C482 H545 0.958 . S
C483 C480 1.530 . S
C483 H546 0.961 . S
C483 H547 0.960 . S
C483 H548 0.960 . S
C484 C485 1.530 . S
C484 H550 0.961 . S
C484 H551 0.961 . S
C484 H552 0.959 . S
C485 C484 1.530 . S
C485 O513 1.412 . S
C485 H549 0.980 . S
C486 C487 1.288 . S
C486 C491 1.377 . S
C486 O513 1.393 . S
C487 C486 1.288 . S
C487 C488 1.369 . S
C487 H553 0.932 . S
C488 C487 1.369 . S
C488 C489 1.398 . S
C488 C492 1.527 1_565 S
C489 C488 1.398 . S
C489 C490 1.380 . S
C489 C503 1.497 1_565 S
C490 C489 1.380 . S
C490 C491 1.383 . S
C490 C493 1.603 . S
C491 C486 1.377 . S
C491 C490 1.383 . S
C491 H554 0.929 . S
C492 C488 1.527 1_545 S
C492 H555 0.961 . S
C492 H556 0.959 . S
C492 H557 0.959 1_545 S
C493 C490 1.603 . S
C493 H558 0.960 . S
C493 H559 0.962 . S
C493 H560 0.961 . S
C494 C461 1.587 . S
C494 C495 1.360 . S
C494 C507 1.412 . S
C495 C494 1.360 . S
C495 C496 1.365 1_565 S
C495 H561 0.929 . S
C496 C471 1.553 . S
C496 C495 1.365 1_545 S
C496 C497 1.404 . S
C497 C496 1.404 . S
C497 C498 1.395 . S
C497 C508 1.451 1_545 S
C498 C497 1.395 . S
C498 C499 1.322 . S
C498 H562 0.930 . S
C499 C498 1.322 . S
C499 C500 1.459 . S
C499 H563 0.929 . S
C500 C499 1.459 . S
C500 C501 1.445 1_556 S
C500 C509 1.395 . S
C501 C479 1.432 . S
C501 C500 1.445 1_554 S
C501 C502 1.370 . S
C502 C501 1.370 . S
C502 C503 1.438 . S
C502 H564 0.930 . S
C503 C489 1.497 1_545 S
C503 C502 1.438 . S
C503 C504 1.360 1_545 S
C504 C503 1.360 1_565 S
C504 C505 1.401 . S
C504 C509 1.446 1_564 S
C505 C504 1.401 . S
C505 C506 1.347 1_554 S
C505 H565 0.929 . S
C506 C505 1.347 1_556 S
C506 C507 1.455 . S
C506 H566 0.930 . S
C507 C494 1.412 . S
C507 C506 1.455 . S
C507 C508 1.330 . S
C508 C497 1.451 1_565 S
C508 C507 1.330 . S
C508 C509 1.497 1_565 S
C509 C500 1.395 . S
C509 C504 1.446 1_546 S
C509 C508 1.497 1_545 S
C510 C511 1.582 . S
C510 H567 0.962 . S
C510 H568 0.959 . S
C510 H569 0.958 . S
C511 C510 1.582 . S
C511 O514 1.458 . S
C511 H540 0.980 . S
O512 C457 1.426 . S
O512 C458 1.334 . S
O513 C485 1.412 . S
O513 C486 1.393 . S
O514 C476 1.435 . S
O514 C511 1.458 . S
O515 C467 1.468 . S
O515 C468 1.408 . S
H516 C457 0.980 . S
H517 C456 0.959 . S
H518 C456 0.959 . S
H519 C456 0.960 . S
H520 C459 0.929 . S
H521 C463 0.929 . S
H522 C464 0.959 . S
H523 C464 0.961 . S
H524 C464 0.961 . S
H525 C465 0.960 . S
H526 C465 0.960 . S
H527 C465 0.961 . S
H528 C467 0.980 . S
H529 C466 0.961 . S
H530 C466 0.960 . S
H531 C466 0.959 . S
H532 C469 0.930 . S
H533 C473 0.931 . S
H534 C474 0.959 . S
H535 C474 0.961 . S
H536 C474 0.959 . S
H537 C475 0.960 . S
H538 C475 0.960 . S
H539 C475 0.960 . S
H540 C511 0.980 . S
H541 C477 0.930 . S
H542 C481 0.930 . S
H543 C482 0.961 . S
H544 C482 0.960 . S
H545 C482 0.958 . S
H546 C483 0.961 . S
H547 C483 0.960 . S
H548 C483 0.960 . S
H549 C485 0.980 . S
H550 C484 0.961 . S
H551 C484 0.961 . S
H552 C484 0.959 . S
H553 C487 0.932 . S
H554 C491 0.929 . S
H555 C492 0.961 . S
H556 C492 0.959 . S
H557 C492 0.959 1_565 S
H558 C493 0.960 . S
H559 C493 0.962 . S
H560 C493 0.961 . S
H561 C495 0.929 . S
H562 C498 0.930 . S
H563 C499 0.929 . S
H564 C502 0.930 . S
H565 C505 0.929 . S
H566 C506 0.930 . S
H567 C510 0.962 . S
H568 C510 0.959 . S
H569 C510 0.958 . S
C570 C571 1.560 . S
C570 H631 0.959 . S
C570 H632 0.959 . S
C570 H633 0.960 . S
C571 C570 1.560 . S
C571 O626 1.426 . S
C571 H630 0.980 . S
C572 C573 1.407 . S
C572 C577 1.418 . S
C572 O626 1.334 . S
C573 C572 1.407 . S
C573 C574 1.360 . S
C573 H634 0.929 . S
C574 C573 1.360 . S
C574 C575 1.401 . S
C574 C578 1.527 . S
C575 C574 1.401 . S
C575 C576 1.405 . S
C575 C608 1.587 . S
C576 C575 1.405 . S
C576 C577 1.332 . S
C576 C579 1.496 . S
C577 C572 1.418 . S
C577 C576 1.332 . S
C577 H635 0.929 . S
C578 C574 1.527 . S
C578 H636 0.959 . S
C578 H637 0.961 . S
C578 H638 0.961 . S
C579 C576 1.496 . S
C579 H639 0.960 . S
C579 H640 0.960 . S
C579 H641 0.961 . S
C580 C581 1.517 . S
C580 H643 0.961 . S
C580 H644 0.960 . S
C580 H645 0.959 . S
C581 C580 1.517 . S
C581 O629 1.468 . S
C581 H642 0.980 . S
C582 C583 1.349 . S
C582 C587 1.367 . S
C582 O629 1.408 . S
C583 C582 1.349 . S
C583 C584 1.407 . S
C583 H646 0.930 . S
C584 C583 1.407 . S
C584 C585 1.449 . S
C584 C588 1.535 . S
C585 C584 1.449 . S
C585 C586 1.384 . S
C585 C610 1.553 . S
C586 C585 1.384 . S
C586 C587 1.364 . S
C586 C589 1.450 . S
C587 C582 1.367 . S
C587 C586 1.364 . S
C587 H647 0.931 . S
C588 C584 1.535 . S
C588 H648 0.959 . S
C588 H649 0.961 . S
C588 H650 0.959 . S
C589 C586 1.450 . S
C589 H651 0.960 . S
C589 H652 0.960 . S
C589 H653 0.960 . S
C590 C591 1.309 . S
C590 C595 1.304 . S
C590 O628 1.435 . S
C591 C590 1.309 . S
C591 C592 1.476 . S
C591 H655 0.930 . S
C592 C591 1.476 . S
C592 C593 1.400 . S
C592 C596 1.567 . S
C593 C592 1.400 . S
C593 C594 1.373 . S
C593 C615 1.432 . S
C594 C593 1.373 . S
C594 C595 1.339 . S
C594 C597 1.530 . S
C595 C590 1.304 . S
C595 C594 1.339 . S
C595 H656 0.930 . S
C596 C592 1.567 . S
C596 H657 0.961 . S
C596 H658 0.960 . S
C596 H659 0.958 . S
C597 C594 1.530 . S
C597 H660 0.961 . S
C597 H661 0.960 . S
C597 H662 0.960 . S
C598 C599 1.530 . S
C598 H664 0.961 . S
C598 H665 0.961 . S
C598 H666 0.959 . S
C599 C598 1.530 . S
C599 O627 1.412 . S
C599 H663 0.980 . S
C600 C601 1.288 . S
C600 C605 1.377 . S
C600 O627 1.393 . S
C601 C600 1.288 . S
C601 C602 1.369 . S
C601 H667 0.932 . S
C602 C601 1.369 . S
C602 C603 1.398 . S
C602 C606 1.527 . S
C603 C602 1.398 . S
C603 C604 1.380 . S
C603 C617 1.497 . S
C604 C603 1.380 . S
C604 C605 1.383 . S
C604 C607 1.603 . S
C605 C600 1.377 . S
C605 C604 1.383 . S
C605 H668 0.929 . S
C606 C602 1.527 . S
C606 H669 0.961 . S
C606 H670 0.959 . S
C606 H671 0.959 . S
C607 C604 1.603 . S
C607 H672 0.960 . S
C607 H673 0.962 . S
C607 H674 0.961 . S
C608 C575 1.587 . S
C608 C609 1.360 . S
C608 C621 1.412 . S
C609 C608 1.360 . S
C609 C610 1.365 . S
C609 H675 0.929 . S
C610 C585 1.553 . S
C610 C609 1.365 . S
C610 C611 1.404 . S
C611 C610 1.404 . S
C611 C612 1.395 . S
C611 C622 1.451 . S
C612 C611 1.395 . S
C612 C613 1.322 . S
C612 H676 0.930 . S
C613 C612 1.322 . S
C613 C614 1.459 . S
C613 H677 0.929 . S
C614 C613 1.459 . S
C614 C615 1.445 . S
C614 C623 1.395 . S
C615 C593 1.432 . S
C615 C614 1.445 . S
C615 C616 1.370 . S
C616 C615 1.370 . S
C616 C617 1.438 . S
C616 H678 0.930 . S
C617 C603 1.497 . S
C617 C616 1.438 . S
C617 C618 1.360 . S
C618 C617 1.360 . S
C618 C619 1.401 . S
C618 C623 1.446 . S
C619 C618 1.401 . S
C619 C620 1.347 . S
C619 H679 0.929 . S
C620 C619 1.347 . S
C620 C621 1.455 . S
C620 H680 0.930 . S
C621 C608 1.412 . S
C621 C620 1.455 . S
C621 C622 1.331 . S
C622 C611 1.451 . S
C622 C621 1.331 . S
C622 C623 1.497 . S
C623 C614 1.395 . S
C623 C618 1.446 . S
C623 C622 1.497 . S
C624 C625 1.582 . S
C624 H681 0.962 . S
C624 H682 0.959 . S
C624 H683 0.958 . S
C625 C624 1.582 . S
C625 O628 1.458 . S
C625 H654 0.980 . S
O626 C571 1.426 . S
O626 C572 1.334 . S
O627 C599 1.412 . S
O627 C600 1.393 . S
O628 C590 1.435 . S
O628 C625 1.458 . S
O629 C581 1.468 . S
O629 C582 1.408 . S
H630 C571 0.980 . S
H631 C570 0.959 . S
H632 C570 0.959 . S
H633 C570 0.960 . S
H634 C573 0.929 . S
H635 C577 0.929 . S
H636 C578 0.959 . S
H637 C578 0.961 . S
H638 C578 0.961 . S
H639 C579 0.960 . S
H640 C579 0.960 . S
H641 C579 0.961 . S
H642 C581 0.980 . S
H643 C580 0.961 . S
H644 C580 0.960 . S
H645 C580 0.959 . S
H646 C583 0.930 . S
H647 C587 0.931 . S
H648 C588 0.959 . S
H649 C588 0.961 . S
H650 C588 0.959 . S
H651 C589 0.960 . S
H652 C589 0.960 . S
H653 C589 0.960 . S
H654 C625 0.980 . S
H655 C591 0.930 . S
H656 C595 0.930 . S
H657 C596 0.961 . S
H658 C596 0.960 . S
H659 C596 0.958 . S
H660 C597 0.961 . S
H661 C597 0.960 . S
H662 C597 0.960 . S
H663 C599 0.980 . S
H664 C598 0.961 . S
H665 C598 0.961 . S
H666 C598 0.959 . S
H667 C601 0.932 . S
H668 C605 0.929 . S
H669 C606 0.961 . S
H670 C606 0.959 . S
H671 C606 0.959 . S
H672 C607 0.960 . S
H673 C607 0.962 . S
H674 C607 0.961 . S
H675 C609 0.929 . S
H676 C612 0.930 . S
H677 C613 0.929 . S
H678 C616 0.930 . S
H679 C619 0.929 . S
H680 C620 0.930 . S
H681 C624 0.962 . S
H682 C624 0.959 . S
H683 C624 0.958 . S
Co684 O685 2.216 . S
Co684 O686 2.091 . S
Co684 O688 2.004 . S
Co684 O694 2.021 . S
Co684 O696 2.137 . S
Co684 O697 2.244 . S
O685 Co684 2.216 . S
O685 C692 1.247 . S
O686 Co684 2.091 . S
O686 C692 1.261 . S
C687 O696 1.247 . S
C687 O697 1.272 . S
O688 Co684 2.004 . S
O688 C693 1.259 . S
Co689 O690 2.061 . S
Co689 O695 2.052 . S
Co689 O697 2.135 . S
O690 Co689 2.061 . S
O690 C693 1.235 . S
C691 O694 1.238 . S
C691 O695 1.241 . S
C692 O685 1.247 . S
C692 O686 1.261 . S
C693 O688 1.259 . S
C693 O690 1.235 . S
O694 Co684 2.021 . S
O694 C691 1.238 . S
O695 Co689 2.052 . S
O695 C691 1.241 . S
O696 Co684 2.137 . S
O696 C687 1.247 . S
O697 Co684 2.244 . S
O697 C687 1.272 . S
O697 Co689 2.135 . S
Co698 O699 2.216 . S
Co698 O700 2.091 . S
Co698 O702 2.004 . S
Co698 O708 2.021 . S
Co698 O710 2.137 . S
Co698 O711 2.244 . S
O699 Co698 2.216 . S
O699 C706 1.247 . S
O700 Co698 2.091 . S
O700 C706 1.261 . S
C701 O710 1.247 . S
C701 O711 1.272 . S
O702 Co698 2.004 . S
O702 C707 1.259 . S
Co703 O704 2.061 . S
Co703 O709 2.052 . S
Co703 O711 2.135 . S
O704 Co703 2.061 . S
O704 C707 1.235 . S
C705 O708 1.238 . S
C705 O709 1.241 . S
C706 O699 1.247 . S
C706 O700 1.261 . S
C707 O702 1.259 . S
C707 O704 1.235 . S
O708 Co698 2.021 . S
O708 C705 1.238 . S
O709 Co703 2.052 . S
O709 C705 1.241 . S
O710 Co698 2.137 . S
O710 C701 1.247 . S
O711 Co698 2.244 . S
O711 C701 1.272 . S
O711 Co703 2.135 . S
Co712 O713 2.216 . S
Co712 O714 2.091 . S
Co712 O716 2.004 . S
Co712 O722 2.021 . S
Co712 O724 2.137 . S
Co712 O725 2.244 . S
O713 Co712 2.216 . S
O713 C720 1.247 . S
O714 Co712 2.091 . S
O714 C720 1.261 . S
C715 O724 1.247 . S
C715 O725 1.272 . S
O716 Co712 2.004 . S
O716 C721 1.259 . S
Co717 O718 2.061 . S
Co717 O723 2.052 . S
Co717 O725 2.135 . S
O718 Co717 2.061 . S
O718 C721 1.235 . S
C719 O722 1.238 . S
C719 O723 1.241 . S
C720 O713 1.247 . S
C720 O714 1.261 . S
C721 O716 1.259 . S
C721 O718 1.235 . S
O722 Co712 2.021 . S
O722 C719 1.238 . S
O723 Co717 2.052 . S
O723 C719 1.241 . S
O724 Co712 2.137 . S
O724 C715 1.247 . S
O725 Co712 2.244 . S
O725 C715 1.272 . S
O725 Co717 2.135 . S
Co726 O727 2.216 . S
Co726 O728 2.091 . S
Co726 O730 2.004 . S
Co726 O736 2.021 . S
Co726 O738 2.137 . S
Co726 O739 2.244 . S
O727 Co726 2.216 . S
O727 C734 1.247 . S
O728 Co726 2.091 . S
O728 C734 1.261 . S
C729 O738 1.247 . S
C729 O739 1.272 . S
O730 Co726 2.004 . S
O730 C735 1.259 . S
Co731 O732 2.061 . S
Co731 O737 2.052 . S
Co731 O739 2.135 . S
O732 Co731 2.061 . S
O732 C735 1.235 . S
C733 O736 1.238 . S
C733 O737 1.241 . S
C734 O727 1.247 . S
C734 O728 1.261 . S
C735 O730 1.259 . S
C735 O732 1.235 . S
O736 Co726 2.021 . S
O736 C733 1.238 . S
O737 Co731 2.052 . S
O737 C733 1.241 . S
O738 Co726 2.137 . S
O738 C729 1.247 . S
O739 Co726 2.244 . S
O739 C729 1.272 . S
O739 Co731 2.135 . S
Co740 O741 2.216 . S
Co740 O742 2.091 . S
Co740 O744 2.004 . S
Co740 O750 2.021 . S
Co740 O752 2.137 . S
Co740 O753 2.244 . S
O741 Co740 2.216 . S
O741 C748 1.247 . S
O742 Co740 2.091 . S
O742 C748 1.261 . S
C743 O752 1.247 . S
C743 O753 1.272 . S
O744 Co740 2.004 . S
O744 C749 1.259 . S
Co745 O746 2.061 . S
Co745 O751 2.052 . S
Co745 O753 2.135 . S
O746 Co745 2.061 . S
O746 C749 1.235 . S
C747 O750 1.238 . S
C747 O751 1.241 . S
C748 O741 1.247 . S
C748 O742 1.261 . S
C749 O744 1.259 . S
C749 O746 1.235 . S
O750 Co740 2.021 . S
O750 C747 1.238 . S
O751 Co745 2.052 . S
O751 C747 1.241 . S
O752 Co740 2.137 . S
O752 C743 1.247 . S
O753 Co740 2.244 . S
O753 C743 1.272 . S
O753 Co745 2.135 . S
Co754 O755 2.216 . S
Co754 O756 2.091 . S
Co754 O758 2.004 . S
Co754 O764 2.021 . S
Co754 O766 2.137 . S
Co754 O767 2.244 . S
O755 Co754 2.216 . S
O755 C762 1.247 . S
O756 Co754 2.091 . S
O756 C762 1.261 . S
C757 O766 1.247 . S
C757 O767 1.272 . S
O758 Co754 2.004 . S
O758 C763 1.259 . S
Co759 O760 2.061 . S
Co759 O765 2.052 . S
Co759 O767 2.135 . S
O760 Co759 2.061 . S
O760 C763 1.235 . S
C761 O764 1.238 . S
C761 O765 1.241 . S
C762 O755 1.247 . S
C762 O756 1.261 . S
C763 O758 1.259 . S
C763 O760 1.235 . S
O764 Co754 2.021 . S
O764 C761 1.238 . S
O765 Co759 2.052 . S
O765 C761 1.241 . S
O766 Co754 2.137 . S
O766 C757 1.247 . S
O767 Co754 2.244 . S
O767 C757 1.272 . S
O767 Co759 2.135 . S
C768 C769 1.391 . S
C768 C770 1.394 . S
C768 H784 0.931 . S
C769 C768 1.391 . S
C769 C773 1.376 . S
C770 C768 1.394 . S
C770 C771 1.369 . S
C770 C774 1.531 . S
C771 C770 1.369 . S
C771 C772 1.410 . S
C771 C779 1.503 . S
C772 C771 1.410 . S
C772 C773 1.392 . S
C772 C775 1.511 . S
C773 C769 1.376 . S
C773 C772 1.392 . S
C773 H785 0.929 . S
C774 C770 1.531 . S
C774 H786 0.960 . S
C774 H787 0.962 . S
C774 H788 0.960 . S
C775 C772 1.511 . S
C775 H789 0.961 . S
C775 H790 0.961 . S
C775 H791 0.961 . S
C776 C777 1.370 . S
C776 C778 1.363 . S
C776 H792 0.931 . S
C777 C776 1.370 . S
C777 C781 1.408 . S
C778 C776 1.363 . S
C778 C779 1.370 . S
C778 C782 1.524 . S
C779 C771 1.503 . S
C779 C778 1.370 . S
C779 C780 1.403 . S
C780 C779 1.403 . S
C780 C781 1.404 . S
C780 C783 1.539 . S
C781 C777 1.408 . S
C781 C780 1.404 . S
C781 H793 0.930 . S
C782 C778 1.524 . S
C782 H794 0.956 . S
C782 H795 0.961 . S
C782 H796 0.961 . S
C783 C780 1.539 . S
C783 H797 0.958 . S
C783 H798 0.961 . S
C783 H799 0.960 . S
H784 C768 0.931 . S
H785 C773 0.929 . S
H786 C774 0.960 . S
H787 C774 0.962 . S
H788 C774 0.960 . S
H789 C775 0.961 . S
H790 C775 0.961 . S
H791 C775 0.961 . S
H792 C776 0.931 . S
H793 C781 0.930 . S
H794 C782 0.956 . S
H795 C782 0.961 . S
H796 C782 0.961 . S
H797 C783 0.958 . S
H798 C783 0.961 . S
H799 C783 0.960 . S
C800 C801 1.391 . S
C800 C802 1.394 . S
C800 H816 0.931 . S
C801 C800 1.391 . S
C801 C805 1.376 . S
C802 C800 1.394 . S
C802 C803 1.369 . S
C802 C806 1.531 . S
C803 C802 1.369 . S
C803 C804 1.410 . S
C803 C811 1.503 . S
C804 C803 1.410 . S
C804 C805 1.392 . S
C804 C807 1.511 . S
C805 C801 1.376 . S
C805 C804 1.392 . S
C805 H817 0.929 . S
C806 C802 1.531 . S
C806 H818 0.960 . S
C806 H819 0.962 . S
C806 H820 0.960 . S
C807 C804 1.511 . S
C807 H821 0.961 . S
C807 H822 0.961 . S
C807 H823 0.961 . S
C808 C809 1.370 . S
C808 C810 1.363 . S
C808 H824 0.931 . S
C809 C808 1.370 . S
C809 C813 1.408 . S
C810 C808 1.363 . S
C810 C811 1.370 . S
C810 C814 1.524 . S
C811 C803 1.503 . S
C811 C810 1.370 . S
C811 C812 1.403 . S
C812 C811 1.403 . S
C812 C813 1.404 . S
C812 C815 1.539 . S
C813 C809 1.408 . S
C813 C812 1.404 . S
C813 H825 0.930 . S
C814 C810 1.524 . S
C814 H826 0.956 . S
C814 H827 0.961 . S
C814 H828 0.961 . S
C815 C812 1.539 . S
C815 H829 0.958 . S
C815 H830 0.961 . S
C815 H831 0.960 . S
H816 C800 0.931 . S
H817 C805 0.929 . S
H818 C806 0.960 . S
H819 C806 0.962 . S
H820 C806 0.960 . S
H821 C807 0.961 . S
H822 C807 0.961 . S
H823 C807 0.961 . S
H824 C808 0.931 . S
H825 C813 0.930 . S
H826 C814 0.956 . S
H827 C814 0.961 . S
H828 C814 0.961 . S
H829 C815 0.958 . S
H830 C815 0.961 . S
H831 C815 0.960 . S
C832 C833 1.391 . S
C832 C834 1.394 . S
C832 H848 0.931 . S
C833 C832 1.391 . S
C833 C837 1.376 . S
C834 C832 1.394 . S
C834 C835 1.369 . S
C834 C838 1.531 . S
C835 C834 1.369 . S
C835 C836 1.410 . S
C835 C843 1.503 . S
C836 C835 1.410 . S
C836 C837 1.392 . S
C836 C839 1.511 . S
C837 C833 1.376 . S
C837 C836 1.392 . S
C837 H849 0.929 . S
C838 C834 1.531 . S
C838 H850 0.960 . S
C838 H851 0.962 . S
C838 H852 0.960 . S
C839 C836 1.511 . S
C839 H853 0.961 . S
C839 H854 0.961 . S
C839 H855 0.961 . S
C840 C841 1.370 . S
C840 C842 1.363 . S
C840 H856 0.931 . S
C841 C840 1.370 . S
C841 C845 1.408 . S
C842 C840 1.363 . S
C842 C843 1.370 . S
C842 C846 1.524 . S
C843 C835 1.503 . S
C843 C842 1.370 . S
C843 C844 1.403 . S
C844 C843 1.403 . S
C844 C845 1.404 . S
C844 C847 1.539 . S
C845 C841 1.408 . S
C845 C844 1.404 . S
C845 H857 0.930 . S
C846 C842 1.524 . S
C846 H858 0.956 . S
C846 H859 0.961 . S
C846 H860 0.961 . S
C847 C844 1.539 . S
C847 H861 0.958 . S
C847 H862 0.961 . S
C847 H863 0.960 . S
H848 C832 0.931 . S
H849 C837 0.929 . S
H850 C838 0.960 . S
H851 C838 0.962 . S
H852 C838 0.960 . S
H853 C839 0.961 . S
H854 C839 0.961 . S
H855 C839 0.961 . S
H856 C840 0.931 . S
H857 C845 0.930 . S
H858 C846 0.956 . S
H859 C846 0.961 . S
H860 C846 0.961 . S
H861 C847 0.958 . S
H862 C847 0.961 . S
H863 C847 0.960 . S
C864 C865 1.391 . S
C864 C866 1.394 . S
C864 H880 0.931 . S
C865 C864 1.391 . S
C865 C869 1.376 . S
C866 C864 1.394 . S
C866 C867 1.369 . S
C866 C870 1.531 . S
C867 C866 1.369 . S
C867 C868 1.410 . S
C867 C875 1.503 . S
C868 C867 1.410 . S
C868 C869 1.392 . S
C868 C871 1.511 . S
C869 C865 1.376 . S
C869 C868 1.392 . S
C869 H881 0.929 . S
C870 C866 1.531 . S
C870 H882 0.960 . S
C870 H883 0.962 . S
C870 H884 0.960 . S
C871 C868 1.511 . S
C871 H885 0.961 . S
C871 H886 0.961 . S
C871 H887 0.961 . S
C872 C873 1.370 . S
C872 C874 1.363 . S
C872 H888 0.931 . S
C873 C872 1.370 . S
C873 C877 1.408 . S
C874 C872 1.363 . S
C874 C875 1.370 . S
C874 C878 1.524 . S
C875 C867 1.503 . S
C875 C874 1.370 . S
C875 C876 1.403 . S
C876 C875 1.403 . S
C876 C877 1.404 . S
C876 C879 1.539 . S
C877 C873 1.408 . S
C877 C876 1.404 . S
C877 H889 0.930 . S
C878 C874 1.524 . S
C878 H890 0.956 . S
C878 H891 0.961 . S
C878 H892 0.961 . S
C879 C876 1.539 . S
C879 H893 0.958 . S
C879 H894 0.961 . S
C879 H895 0.960 . S
H880 C864 0.931 . S
H881 C869 0.929 . S
H882 C870 0.960 . S
H883 C870 0.962 . S
H884 C870 0.960 . S
H885 C871 0.961 . S
H886 C871 0.961 . S
H887 C871 0.961 . S
H888 C872 0.931 . S
H889 C877 0.930 . S
H890 C878 0.956 . S
H891 C878 0.961 . S
H892 C878 0.961 . S
H893 C879 0.958 . S
H894 C879 0.961 . S
H895 C879 0.960 . S
C896 C897 1.391 . S
C896 C898 1.394 . S
C896 H912 0.931 . S
C897 C896 1.391 . S
C897 C901 1.376 . S
C898 C896 1.394 . S
C898 C899 1.369 . S
C898 C902 1.531 . S
C899 C898 1.369 . S
C899 C900 1.410 . S
C899 C907 1.503 . S
C900 C899 1.410 . S
C900 C901 1.392 . S
C900 C903 1.511 . S
C901 C897 1.376 . S
C901 C900 1.392 . S
C901 H913 0.929 . S
C902 C898 1.531 . S
C902 H914 0.960 . S
C902 H915 0.962 . S
C902 H916 0.960 . S
C903 C900 1.511 . S
C903 H917 0.961 . S
C903 H918 0.961 . S
C903 H919 0.961 . S
C904 C905 1.370 . S
C904 C906 1.363 . S
C904 H920 0.931 . S
C905 C904 1.370 . S
C905 C909 1.408 . S
C906 C904 1.363 . S
C906 C907 1.370 . S
C906 C910 1.524 . S
C907 C899 1.503 . S
C907 C906 1.370 . S
C907 C908 1.403 . S
C908 C907 1.403 . S
C908 C909 1.404 . S
C908 C911 1.539 . S
C909 C905 1.408 . S
C909 C908 1.404 . S
C909 H921 0.930 . S
C910 C906 1.524 . S
C910 H922 0.956 . S
C910 H923 0.961 . S
C910 H924 0.961 . S
C911 C908 1.539 . S
C911 H925 0.958 . S
C911 H926 0.961 . S
C911 H927 0.960 . S
H912 C896 0.931 . S
H913 C901 0.929 . S
H914 C902 0.960 . S
H915 C902 0.962 . S
H916 C902 0.960 . S
H917 C903 0.961 . S
H918 C903 0.961 . S
H919 C903 0.961 . S
H920 C904 0.931 . S
H921 C909 0.930 . S
H922 C910 0.956 . S
H923 C910 0.961 . S
H924 C910 0.961 . S
H925 C911 0.958 . S
H926 C911 0.961 . S
H927 C911 0.960 . S
C928 C929 1.391 . S
C928 C930 1.394 . S
C928 H944 0.931 . S
C929 C928 1.391 . S
C929 C933 1.376 . S
C930 C928 1.394 . S
C930 C931 1.369 . S
C930 C934 1.531 . S
C931 C930 1.369 . S
C931 C932 1.410 . S
C931 C939 1.503 . S
C932 C931 1.410 . S
C932 C933 1.392 . S
C932 C935 1.511 . S
C933 C929 1.376 . S
C933 C932 1.392 . S
C933 H945 0.929 . S
C934 C930 1.531 . S
C934 H946 0.960 . S
C934 H947 0.962 . S
C934 H948 0.960 . S
C935 C932 1.511 . S
C935 H949 0.961 . S
C935 H950 0.961 . S
C935 H951 0.961 . S
C936 C937 1.370 . S
C936 C938 1.363 . S
C936 H952 0.931 . S
C937 C936 1.370 . S
C937 C941 1.408 . S
C938 C936 1.363 . S
C938 C939 1.370 . S
C938 C942 1.524 . S
C939 C931 1.503 . S
C939 C938 1.370 . S
C939 C940 1.403 . S
C940 C939 1.403 . S
C940 C941 1.404 . S
C940 C943 1.539 . S
C941 C937 1.408 . S
C941 C940 1.404 . S
C941 H953 0.930 . S
C942 C938 1.524 . S
C942 H954 0.956 . S
C942 H955 0.961 . S
C942 H956 0.961 . S
C943 C940 1.539 . S
C943 H957 0.958 . S
C943 H958 0.961 . S
C943 H959 0.960 . S
H944 C928 0.931 . S
H945 C933 0.929 . S
H946 C934 0.960 . S
H947 C934 0.962 . S
H948 C934 0.960 . S
H949 C935 0.961 . S
H950 C935 0.961 . S
H951 C935 0.961 . S
H952 C936 0.931 . S
H953 C941 0.930 . S
H954 C942 0.956 . S
H955 C942 0.961 . S
H956 C942 0.961 . S
H957 C943 0.958 . S
H958 C943 0.961 . S
H959 C943 0.960 . S
C960 C961 1.391 . S
C960 C962 1.394 . S
C960 H976 0.931 . S
C961 C960 1.391 . S
C961 C965 1.376 . S
C962 C960 1.394 . S
C962 C963 1.369 . S
C962 C966 1.531 . S
C963 C962 1.369 . S
C963 C964 1.410 . S
C963 C971 1.503 . S
C964 C963 1.410 . S
C964 C965 1.392 . S
C964 C967 1.511 . S
C965 C961 1.376 . S
C965 C964 1.392 . S
C965 H977 0.929 . S
C966 C962 1.531 . S
C966 H978 0.960 . S
C966 H979 0.962 . S
C966 H980 0.960 . S
C967 C964 1.511 . S
C967 H981 0.961 . S
C967 H982 0.961 . S
C967 H983 0.961 . S
C968 C969 1.370 . S
C968 C970 1.363 . S
C968 H984 0.931 . S
C969 C968 1.370 . S
C969 C973 1.408 . S
C970 C968 1.363 . S
C970 C971 1.370 . S
C970 C974 1.524 . S
C971 C963 1.503 . S
C971 C970 1.370 . S
C971 C972 1.403 . S
C972 C971 1.403 . S
C972 C973 1.404 . S
C972 C975 1.539 . S
C973 C969 1.408 . S
C973 C972 1.404 . S
C973 H985 0.930 . S
C974 C970 1.524 . S
C974 H986 0.956 . S
C974 H987 0.961 . S
C974 H988 0.961 . S
C975 C972 1.539 . S
C975 H989 0.958 . S
C975 H990 0.961 . S
C975 H991 0.960 . S
H976 C960 0.931 . S
H977 C965 0.929 . S
H978 C966 0.960 . S
H979 C966 0.962 . S
H980 C966 0.960 . S
H981 C967 0.961 . S
H982 C967 0.961 . S
H983 C967 0.961 . S
H984 C968 0.931 . S
H985 C973 0.930 . S
H986 C974 0.956 . S
H987 C974 0.961 . S
H988 C974 0.961 . S
H989 C975 0.958 . S
H990 C975 0.961 . S
H991 C975 0.960 . S
C992 C993 1.391 . S
C992 C994 1.394 . S
C992 H1008 0.931 . S
C993 C992 1.391 . S
C993 C997 1.376 . S
C994 C992 1.394 . S
C994 C995 1.369 . S
C994 C998 1.531 . S
C995 C994 1.369 . S
C995 C996 1.410 . S
C995 C1003 1.503 . S
C996 C995 1.410 . S
C996 C997 1.392 . S
C996 C999 1.511 . S
C997 C993 1.376 . S
C997 C996 1.392 . S
C997 H1009 0.929 . S
C998 C994 1.531 . S
C998 H1010 0.960 . S
C998 H1011 0.962 . S
C998 H1012 0.960 . S
C999 C996 1.511 . S
C999 H1013 0.961 . S
C999 H1014 0.961 . S
C999 H1015 0.961 . S
C1000 C1001 1.370 . S
C1000 C1002 1.363 . S
C1000 H1016 0.931 . S
C1001 C1000 1.370 . S
C1001 C1005 1.408 . S
C1002 C1000 1.363 . S
C1002 C1003 1.370 . S
C1002 C1006 1.524 . S
C1003 C995 1.503 . S
C1003 C1002 1.370 . S
C1003 C1004 1.403 . S
C1004 C1003 1.403 . S
C1004 C1005 1.404 . S
C1004 C1007 1.539 . S
C1005 C1001 1.408 . S
C1005 C1004 1.404 . S
C1005 H1017 0.930 . S
C1006 C1002 1.524 . S
C1006 H1018 0.956 . S
C1006 H1019 0.961 . S
C1006 H1020 0.961 . S
C1007 C1004 1.539 . S
C1007 H1021 0.958 . S
C1007 H1022 0.961 . S
C1007 H1023 0.960 . S
H1008 C992 0.931 . S
H1009 C997 0.929 . S
H1010 C998 0.960 . S
H1011 C998 0.962 . S
H1012 C998 0.960 . S
H1013 C999 0.961 . S
H1014 C999 0.961 . S
H1015 C999 0.961 . S
H1016 C1000 0.931 . S
H1017 C1005 0.930 . S
H1018 C1006 0.956 . S
H1019 C1006 0.961 . S
H1020 C1006 0.961 . S
H1021 C1007 0.958 . S
H1022 C1007 0.961 . S
H1023 C1007 0.960 . S
C1024 C1025 1.391 . S
C1024 C1026 1.394 . S
C1024 H1040 0.931 . S
C1025 C1024 1.391 . S
C1025 C1029 1.376 . S
C1026 C1024 1.394 . S
C1026 C1027 1.369 . S
C1026 C1030 1.531 . S
C1027 C1026 1.369 . S
C1027 C1028 1.410 . S
C1027 C1035 1.503 . S
C1028 C1027 1.410 . S
C1028 C1029 1.392 . S
C1028 C1031 1.511 . S
C1029 C1025 1.376 . S
C1029 C1028 1.392 . S
C1029 H1041 0.929 . S
C1030 C1026 1.531 . S
C1030 H1042 0.960 . S
C1030 H1043 0.962 . S
C1030 H1044 0.960 . S
C1031 C1028 1.511 . S
C1031 H1045 0.961 . S
C1031 H1046 0.961 . S
C1031 H1047 0.961 . S
C1032 C1033 1.370 . S
C1032 C1034 1.363 . S
C1032 H1048 0.931 . S
C1033 C1032 1.370 . S
C1033 C1037 1.408 . S
C1034 C1032 1.363 . S
C1034 C1035 1.370 . S
C1034 C1038 1.524 . S
C1035 C1027 1.503 . S
C1035 C1034 1.370 . S
C1035 C1036 1.403 . S
C1036 C1035 1.403 . S
C1036 C1037 1.404 . S
C1036 C1039 1.539 . S
C1037 C1033 1.408 . S
C1037 C1036 1.404 . S
C1037 H1049 0.930 . S
C1038 C1034 1.524 . S
C1038 H1050 0.956 . S
C1038 H1051 0.961 . S
C1038 H1052 0.961 . S
C1039 C1036 1.539 . S
C1039 H1053 0.958 . S
C1039 H1054 0.961 . S
C1039 H1055 0.960 . S
H1040 C1024 0.931 . S
H1041 C1029 0.929 . S
H1042 C1030 0.960 . S
H1043 C1030 0.962 . S
H1044 C1030 0.960 . S
H1045 C1031 0.961 . S
H1046 C1031 0.961 . S
H1047 C1031 0.961 . S
H1048 C1032 0.931 . S
H1049 C1037 0.930 . S
H1050 C1038 0.956 . S
H1051 C1038 0.961 . S
H1052 C1038 0.961 . S
H1053 C1039 0.958 . S
H1054 C1039 0.961 . S
H1055 C1039 0.960 . S
C1056 C1057 1.391 . S
C1056 C1058 1.394 . S
C1056 H1072 0.931 . S
C1057 C1056 1.391 . S
C1057 C1061 1.376 . S
C1058 C1056 1.394 . S
C1058 C1059 1.369 . S
C1058 C1062 1.531 . S
C1059 C1058 1.369 . S
C1059 C1060 1.410 . S
C1059 C1067 1.503 . S
C1060 C1059 1.410 . S
C1060 C1061 1.392 . S
C1060 C1063 1.511 . S
C1061 C1057 1.376 . S
C1061 C1060 1.392 . S
C1061 H1073 0.929 . S
C1062 C1058 1.531 . S
C1062 H1074 0.960 . S
C1062 H1075 0.962 . S
C1062 H1076 0.960 . S
C1063 C1060 1.511 . S
C1063 H1077 0.961 . S
C1063 H1078 0.961 . S
C1063 H1079 0.961 . S
C1064 C1065 1.370 . S
C1064 C1066 1.363 . S
C1064 H1080 0.931 . S
C1065 C1064 1.370 . S
C1065 C1069 1.408 . S
C1066 C1064 1.363 . S
C1066 C1067 1.370 . S
C1066 C1070 1.524 . S
C1067 C1059 1.503 . S
C1067 C1066 1.370 . S
C1067 C1068 1.403 . S
C1068 C1067 1.403 . S
C1068 C1069 1.404 . S
C1068 C1071 1.539 . S
C1069 C1065 1.408 . S
C1069 C1068 1.404 . S
C1069 H1081 0.930 . S
C1070 C1066 1.524 . S
C1070 H1082 0.956 . S
C1070 H1083 0.961 . S
C1070 H1084 0.961 . S
C1071 C1068 1.539 . S
C1071 H1085 0.958 . S
C1071 H1086 0.961 . S
C1071 H1087 0.960 . S
H1072 C1056 0.931 . S
H1073 C1061 0.929 . S
H1074 C1062 0.960 . S
H1075 C1062 0.962 . S
H1076 C1062 0.960 . S
H1077 C1063 0.961 . S
H1078 C1063 0.961 . S
H1079 C1063 0.961 . S
H1080 C1064 0.931 . S
H1081 C1069 0.930 . S
H1082 C1070 0.956 . S
H1083 C1070 0.961 . S
H1084 C1070 0.961 . S
H1085 C1071 0.958 . S
H1086 C1071 0.961 . S
H1087 C1071 0.960 . S
C1088 C1089 1.391 . S
C1088 C1090 1.394 . S
C1088 H1104 0.931 . S
C1089 C1088 1.391 . S
C1089 C1093 1.376 . S
C1090 C1088 1.394 . S
C1090 C1091 1.369 . S
C1090 C1094 1.531 . S
C1091 C1090 1.369 . S
C1091 C1092 1.410 . S
C1091 C1099 1.503 . S
C1092 C1091 1.410 . S
C1092 C1093 1.392 . S
C1092 C1095 1.511 . S
C1093 C1089 1.376 . S
C1093 C1092 1.392 . S
C1093 H1105 0.929 . S
C1094 C1090 1.531 . S
C1094 H1106 0.960 . S
C1094 H1107 0.962 . S
C1094 H1108 0.960 . S
C1095 C1092 1.511 . S
C1095 H1109 0.961 . S
C1095 H1110 0.961 . S
C1095 H1111 0.961 . S
C1096 C1097 1.370 . S
C1096 C1098 1.363 . S
C1096 H1112 0.931 . S
C1097 C1096 1.370 . S
C1097 C1101 1.408 . S
C1098 C1096 1.363 . S
C1098 C1099 1.370 . S
C1098 C1102 1.524 . S
C1099 C1091 1.503 . S
C1099 C1098 1.370 . S
C1099 C1100 1.403 . S
C1100 C1099 1.403 . S
C1100 C1101 1.404 . S
C1100 C1103 1.539 . S
C1101 C1097 1.408 . S
C1101 C1100 1.404 . S
C1101 H1113 0.930 . S
C1102 C1098 1.524 . S
C1102 H1114 0.956 . S
C1102 H1115 0.961 . S
C1102 H1116 0.961 . S
C1103 C1100 1.539 . S
C1103 H1117 0.958 . S
C1103 H1118 0.961 . S
C1103 H1119 0.960 . S
H1104 C1088 0.931 . S
H1105 C1093 0.929 . S
H1106 C1094 0.960 . S
H1107 C1094 0.962 . S
H1108 C1094 0.960 . S
H1109 C1095 0.961 . S
H1110 C1095 0.961 . S
H1111 C1095 0.961 . S
H1112 C1096 0.931 . S
H1113 C1101 0.930 . S
H1114 C1102 0.956 . S
H1115 C1102 0.961 . S
H1116 C1102 0.961 . S
H1117 C1103 0.958 . S
H1118 C1103 0.961 . S
H1119 C1103 0.960 . S
C1120 C1121 1.391 . S
C1120 C1122 1.394 . S
C1120 H1136 0.931 . S
C1121 C1120 1.391 . S
C1121 C1125 1.376 . S
C1122 C1120 1.394 . S
C1122 C1123 1.369 . S
C1122 C1126 1.531 . S
C1123 C1122 1.369 . S
C1123 C1124 1.410 . S
C1123 C1131 1.503 . S
C1124 C1123 1.410 . S
C1124 C1125 1.392 . S
C1124 C1127 1.511 . S
C1125 C1121 1.376 . S
C1125 C1124 1.392 . S
C1125 H1137 0.929 . S
C1126 C1122 1.531 . S
C1126 H1138 0.960 . S
C1126 H1139 0.962 . S
C1126 H1140 0.960 . S
C1127 C1124 1.511 . S
C1127 H1141 0.961 . S
C1127 H1142 0.961 . S
C1127 H1143 0.961 . S
C1128 C1129 1.370 . S
C1128 C1130 1.363 . S
C1128 H1144 0.931 . S
C1129 C1128 1.370 . S
C1129 C1133 1.408 . S
C1130 C1128 1.363 . S
C1130 C1131 1.370 . S
C1130 C1134 1.524 . S
C1131 C1123 1.503 . S
C1131 C1130 1.370 . S
C1131 C1132 1.403 . S
C1132 C1131 1.403 . S
C1132 C1133 1.404 . S
C1132 C1135 1.539 . S
C1133 C1129 1.408 . S
C1133 C1132 1.404 . S
C1133 H1145 0.930 . S
C1134 C1130 1.524 . S
C1134 H1146 0.956 . S
C1134 H1147 0.961 . S
C1134 H1148 0.961 . S
C1135 C1132 1.539 . S
C1135 H1149 0.958 . S
C1135 H1150 0.961 . S
C1135 H1151 0.960 . S
H1136 C1120 0.931 . S
H1137 C1125 0.929 . S
H1138 C1126 0.960 . S
H1139 C1126 0.962 . S
H1140 C1126 0.960 . S
H1141 C1127 0.961 . S
H1142 C1127 0.961 . S
H1143 C1127 0.961 . S
H1144 C1128 0.931 . S
H1145 C1133 0.930 . S
H1146 C1134 0.956 . S
H1147 C1134 0.961 . S
H1148 C1134 0.961 . S
H1149 C1135 0.958 . S
H1150 C1135 0.961 . S
H1151 C1135 0.960 . S
C1152 C1153 1.391 . S
C1152 C1154 1.394 . S
C1152 H1168 0.931 . S
C1153 C1152 1.391 . S
C1153 C1157 1.376 . S
C1154 C1152 1.394 . S
C1154 C1155 1.369 . S
C1154 C1158 1.531 . S
C1155 C1154 1.369 . S
C1155 C1156 1.410 . S
C1155 C1163 1.503 . S
C1156 C1155 1.410 . S
C1156 C1157 1.392 . S
C1156 C1159 1.511 . S
C1157 C1153 1.376 . S
C1157 C1156 1.392 . S
C1157 H1169 0.929 . S
C1158 C1154 1.531 . S
C1158 H1170 0.960 . S
C1158 H1171 0.962 . S
C1158 H1172 0.960 . S
C1159 C1156 1.511 . S
C1159 H1173 0.961 . S
C1159 H1174 0.961 . S
C1159 H1175 0.961 . S
C1160 C1161 1.370 . S
C1160 C1162 1.363 . S
C1160 H1176 0.931 . S
C1161 C1160 1.370 . S
C1161 C1165 1.408 . S
C1162 C1160 1.363 . S
C1162 C1163 1.370 . S
C1162 C1166 1.524 . S
C1163 C1155 1.503 . S
C1163 C1162 1.370 . S
C1163 C1164 1.403 . S
C1164 C1163 1.403 . S
C1164 C1165 1.404 . S
C1164 C1167 1.539 . S
C1165 C1161 1.408 . S
C1165 C1164 1.404 . S
C1165 H1177 0.930 . S
C1166 C1162 1.524 . S
C1166 H1178 0.956 . S
C1166 H1179 0.961 . S
C1166 H1180 0.961 . S
C1167 C1164 1.539 . S
C1167 H1181 0.958 . S
C1167 H1182 0.961 . S
C1167 H1183 0.960 . S
H1168 C1152 0.931 . S
H1169 C1157 0.929 . S
H1170 C1158 0.960 . S
H1171 C1158 0.962 . S
H1172 C1158 0.960 . S
H1173 C1159 0.961 . S
H1174 C1159 0.961 . S
H1175 C1159 0.961 . S
H1176 C1160 0.931 . S
H1177 C1165 0.930 . S
H1178 C1166 0.956 . S
H1179 C1166 0.961 . S
H1180 C1166 0.961 . S
H1181 C1167 0.958 . S
H1182 C1167 0.961 . S
H1183 C1167 0.960 . S
C1184 C1185 1.391 . S
C1184 C1186 1.394 . S
C1184 H1200 0.931 . S
C1185 C1184 1.391 . S
C1185 C1189 1.376 . S
C1186 C1184 1.394 . S
C1186 C1187 1.369 . S
C1186 C1190 1.531 . S
C1187 C1186 1.369 . S
C1187 C1188 1.410 . S
C1187 C1195 1.503 . S
C1188 C1187 1.410 . S
C1188 C1189 1.392 . S
C1188 C1191 1.511 . S
C1189 C1185 1.376 . S
C1189 C1188 1.392 . S
C1189 H1201 0.929 . S
C1190 C1186 1.531 . S
C1190 H1202 0.960 . S
C1190 H1203 0.962 . S
C1190 H1204 0.960 . S
C1191 C1188 1.511 . S
C1191 H1205 0.961 . S
C1191 H1206 0.961 . S
C1191 H1207 0.961 . S
C1192 C1193 1.370 . S
C1192 C1194 1.363 . S
C1192 H1208 0.931 . S
C1193 C1192 1.370 . S
C1193 C1197 1.408 . S
C1194 C1192 1.363 . S
C1194 C1195 1.370 . S
C1194 C1198 1.524 . S
C1195 C1187 1.503 . S
C1195 C1194 1.370 . S
C1195 C1196 1.403 . S
C1196 C1195 1.403 . S
C1196 C1197 1.404 . S
C1196 C1199 1.539 . S
C1197 C1193 1.408 . S
C1197 C1196 1.404 . S
C1197 H1209 0.930 . S
C1198 C1194 1.524 . S
C1198 H1210 0.956 . S
C1198 H1211 0.961 . S
C1198 H1212 0.961 . S
C1199 C1196 1.539 . S
C1199 H1213 0.958 . S
C1199 H1214 0.961 . S
C1199 H1215 0.960 . S
H1200 C1184 0.931 . S
H1201 C1189 0.929 . S
H1202 C1190 0.960 . S
H1203 C1190 0.962 . S
H1204 C1190 0.960 . S
H1205 C1191 0.961 . S
H1206 C1191 0.961 . S
H1207 C1191 0.961 . S
H1208 C1192 0.931 . S
H1209 C1197 0.930 . S
H1210 C1198 0.956 . S
H1211 C1198 0.961 . S
H1212 C1198 0.961 . S
H1213 C1199 0.958 . S
H1214 C1199 0.961 . S
H1215 C1199 0.960 . S
C1216 C1217 1.391 . S
C1216 C1218 1.394 . S
C1216 H1232 0.931 . S
C1217 C1216 1.391 . S
C1217 C1221 1.376 . S
C1218 C1216 1.394 . S
C1218 C1219 1.369 . S
C1218 C1222 1.531 . S
C1219 C1218 1.369 . S
C1219 C1220 1.410 . S
C1219 C1227 1.503 . S
C1220 C1219 1.410 . S
C1220 C1221 1.392 . S
C1220 C1223 1.511 . S
C1221 C1217 1.376 . S
C1221 C1220 1.392 . S
C1221 H1233 0.929 . S
C1222 C1218 1.531 . S
C1222 H1234 0.960 . S
C1222 H1235 0.962 . S
C1222 H1236 0.960 . S
C1223 C1220 1.511 . S
C1223 H1237 0.961 . S
C1223 H1238 0.961 . S
C1223 H1239 0.961 . S
C1224 C1225 1.370 . S
C1224 C1226 1.363 . S
C1224 H1240 0.931 . S
C1225 C1224 1.370 . S
C1225 C1229 1.408 . S
C1226 C1224 1.363 . S
C1226 C1227 1.370 . S
C1226 C1230 1.524 . S
C1227 C1219 1.503 . S
C1227 C1226 1.370 . S
C1227 C1228 1.403 . S
C1228 C1227 1.403 . S
C1228 C1229 1.404 . S
C1228 C1231 1.539 . S
C1229 C1225 1.408 . S
C1229 C1228 1.404 . S
C1229 H1241 0.930 . S
C1230 C1226 1.524 . S
C1230 H1242 0.956 . S
C1230 H1243 0.961 . S
C1230 H1244 0.961 . S
C1231 C1228 1.539 . S
C1231 H1245 0.958 . S
C1231 H1246 0.961 . S
C1231 H1247 0.960 . S
H1232 C1216 0.931 . S
H1233 C1221 0.929 . S
H1234 C1222 0.960 . S
H1235 C1222 0.962 . S
H1236 C1222 0.960 . S
H1237 C1223 0.961 . S
H1238 C1223 0.961 . S
H1239 C1223 0.961 . S
H1240 C1224 0.931 . S
H1241 C1229 0.930 . S
H1242 C1230 0.956 . S
H1243 C1230 0.961 . S
H1244 C1230 0.961 . S
H1245 C1231 0.958 . S
H1246 C1231 0.961 . S
H1247 C1231 0.960 . S
C1248 C1249 1.391 . S
C1248 C1250 1.394 . S
C1248 H1264 0.931 . S
C1249 C1248 1.391 . S
C1249 C1253 1.376 . S
C1250 C1248 1.394 . S
C1250 C1251 1.369 . S
C1250 C1254 1.531 . S
C1251 C1250 1.369 . S
C1251 C1252 1.410 . S
C1251 C1259 1.503 . S
C1252 C1251 1.410 . S
C1252 C1253 1.392 . S
C1252 C1255 1.511 . S
C1253 C1249 1.376 . S
C1253 C1252 1.392 . S
C1253 H1265 0.929 . S
C1254 C1250 1.531 . S
C1254 H1266 0.936 1_556 S
C1254 H1267 0.962 . S
C1254 H1268 0.960 . S
C1255 C1252 1.511 . S
C1255 H1269 0.961 . S
C1255 H1270 0.961 . S
C1255 H1271 0.961 . S
C1256 C1257 1.370 . S
C1256 C1258 1.363 1_554 S
C1256 H1272 0.931 . S
C1257 C1256 1.370 . S
C1257 C1261 1.408 . S
C1258 C1256 1.363 1_556 S
C1258 C1259 1.370 . S
C1258 C1262 1.524 . S
C1259 C1251 1.503 . S
C1259 C1258 1.370 . S
C1259 C1260 1.403 1_556 S
C1260 C1259 1.403 1_554 S
C1260 C1261 1.404 . S
C1260 C1263 1.539 1_554 S
C1261 C1257 1.408 . S
C1261 C1260 1.404 . S
C1261 H1273 0.930 . S
C1262 C1258 1.524 . S
C1262 H1274 0.956 . S
C1262 H1275 0.961 . S
C1262 H1276 0.961 . S
C1263 C1260 1.539 1_556 S
C1263 H1277 0.958 1_556 S
C1263 H1278 0.961 1_556 S
C1263 H1279 0.960 . S
H1264 C1248 0.931 . S
H1265 C1253 0.929 . S
H1266 C1254 0.936 1_554 S
H1267 C1254 0.962 . S
H1268 C1254 0.960 . S
H1269 C1255 0.961 . S
H1270 C1255 0.961 . S
H1271 C1255 0.961 . S
H1272 C1256 0.931 . S
H1273 C1261 0.930 . S
H1274 C1262 0.956 . S
H1275 C1262 0.961 . S
H1276 C1262 0.961 . S
H1277 C1263 0.958 1_554 S
H1278 C1263 0.961 1_554 S
H1279 C1263 0.960 . S
C1280 C1281 1.391 . S
C1280 C1282 1.394 . S
C1280 H1296 0.931 . S
C1281 C1280 1.391 . S
C1281 C1285 1.376 . S
C1282 C1280 1.394 . S
C1282 C1283 1.369 . S
C1282 C1286 1.531 . S
C1283 C1282 1.369 . S
C1283 C1284 1.410 . S
C1283 C1291 1.503 . S
C1284 C1283 1.410 . S
C1284 C1285 1.392 . S
C1284 C1287 1.511 . S
C1285 C1281 1.376 . S
C1285 C1284 1.392 . S
C1285 H1297 0.929 . S
C1286 C1282 1.531 . S
C1286 H1298 0.960 . S
C1286 H1299 0.962 . S
C1286 H1300 0.960 . S
C1287 C1284 1.511 . S
C1287 H1301 0.961 . S
C1287 H1302 0.961 . S
C1287 H1303 0.961 . S
C1288 C1289 1.370 . S
C1288 C1290 1.363 . S
C1288 H1304 0.931 . S
C1289 C1288 1.370 . S
C1289 C1293 1.408 . S
C1290 C1288 1.363 . S
C1290 C1291 1.370 . S
C1290 C1294 1.524 . S
C1291 C1283 1.503 . S
C1291 C1290 1.370 . S
C1291 C1292 1.403 . S
C1292 C1291 1.403 . S
C1292 C1293 1.404 . S
C1292 C1295 1.539 . S
C1293 C1289 1.408 . S
C1293 C1292 1.404 . S
C1293 H1305 0.930 . S
C1294 C1290 1.524 . S
C1294 H1306 0.956 . S
C1294 H1307 0.961 . S
C1294 H1308 0.961 . S
C1295 C1292 1.539 . S
C1295 H1309 0.958 . S
C1295 H1310 0.961 . S
C1295 H1311 0.960 . S
H1296 C1280 0.931 . S
H1297 C1285 0.929 . S
H1298 C1286 0.960 . S
H1299 C1286 0.962 . S
H1300 C1286 0.960 . S
H1301 C1287 0.961 . S
H1302 C1287 0.961 . S
H1303 C1287 0.961 . S
H1304 C1288 0.931 . S
H1305 C1293 0.930 . S
H1306 C1294 0.956 . S
H1307 C1294 0.961 . S
H1308 C1294 0.961 . S
H1309 C1295 0.958 . S
H1310 C1295 0.961 . S
H1311 C1295 0.960 . S
C1312 C1313 1.391 . S
C1312 C1314 1.394 . S
C1312 H1328 0.931 . S
C1313 C1312 1.391 . S
C1313 C1317 1.376 . S
C1314 C1312 1.394 . S
C1314 C1315 1.369 . S
C1314 C1318 1.531 . S
C1315 C1314 1.369 . S
C1315 C1316 1.410 . S
C1315 C1323 1.503 . S
C1316 C1315 1.410 . S
C1316 C1317 1.392 . S
C1316 C1319 1.511 . S
C1317 C1313 1.376 . S
C1317 C1316 1.392 . S
C1317 H1329 0.929 . S
C1318 C1314 1.531 . S
C1318 H1330 0.960 . S
C1318 H1331 0.962 . S
C1318 H1332 0.960 . S
C1319 C1316 1.511 . S
C1319 H1333 0.961 . S
C1319 H1334 0.961 . S
C1319 H1335 0.961 . S
C1320 C1321 1.370 . S
C1320 C1322 1.363 . S
C1320 H1336 0.931 . S
C1321 C1320 1.370 . S
C1321 C1325 1.408 . S
C1322 C1320 1.363 . S
C1322 C1323 1.370 . S
C1322 C1326 1.524 . S
C1323 C1315 1.503 . S
C1323 C1322 1.370 . S
C1323 C1324 1.403 . S
C1324 C1323 1.403 . S
C1324 C1325 1.404 . S
C1324 C1327 1.539 . S
C1325 C1321 1.408 . S
C1325 C1324 1.404 . S
C1325 H1337 0.930 . S
C1326 C1322 1.524 . S
C1326 H1338 0.956 . S
C1326 H1339 0.961 . S
C1326 H1340 0.961 . S
C1327 C1324 1.539 . S
C1327 H1341 0.958 . S
C1327 H1342 0.961 . S
C1327 H1343 0.960 . S
H1328 C1312 0.931 . S
H1329 C1317 0.929 . S
H1330 C1318 0.960 . S
H1331 C1318 0.962 . S
H1332 C1318 0.960 . S
H1333 C1319 0.961 . S
H1334 C1319 0.961 . S
H1335 C1319 0.961 . S
H1336 C1320 0.931 . S
H1337 C1325 0.930 . S
H1338 C1326 0.956 . S
H1339 C1326 0.961 . S
H1340 C1326 0.961 . S
H1341 C1327 0.958 . S
H1342 C1327 0.961 . S
H1343 C1327 0.960 . S
C1344 C1345 1.391 . S
C1344 C1346 1.394 . S
C1344 H1360 0.931 . S
C1345 C1344 1.391 . S
C1345 C1349 1.376 . S
C1346 C1344 1.394 . S
C1346 C1347 1.369 . S
C1346 C1350 1.531 . S
C1347 C1346 1.369 . S
C1347 C1348 1.410 . S
C1347 C1355 1.503 . S
C1348 C1347 1.410 . S
C1348 C1349 1.392 . S
C1348 C1351 1.511 . S
C1349 C1345 1.376 . S
C1349 C1348 1.392 . S
C1349 H1361 0.929 . S
C1350 C1346 1.531 . S
C1350 H1362 0.960 . S
C1350 H1363 0.962 . S
C1350 H1364 0.960 . S
C1351 C1348 1.511 . S
C1351 H1365 0.961 . S
C1351 H1366 0.961 . S
C1351 H1367 0.961 . S
C1352 C1353 1.370 . S
C1352 C1354 1.363 . S
C1352 H1368 0.931 . S
C1353 C1352 1.370 . S
C1353 C1357 1.408 . S
C1354 C1352 1.363 . S
C1354 C1355 1.370 . S
C1354 C1358 1.524 . S
C1355 C1347 1.503 . S
C1355 C1354 1.370 . S
C1355 C1356 1.403 . S
C1356 C1355 1.403 . S
C1356 C1357 1.404 . S
C1356 C1359 1.539 . S
C1357 C1353 1.408 . S
C1357 C1356 1.404 . S
C1357 H1369 0.930 . S
C1358 C1354 1.524 . S
C1358 H1370 0.956 . S
C1358 H1371 0.961 . S
C1358 H1372 0.961 . S
C1359 C1356 1.539 . S
C1359 H1373 0.958 . S
C1359 H1374 0.961 . S
C1359 H1375 0.960 . S
H1360 C1344 0.931 . S
H1361 C1349 0.929 . S
H1362 C1350 0.960 . S
H1363 C1350 0.962 . S
H1364 C1350 0.960 . S
H1365 C1351 0.961 . S
H1366 C1351 0.961 . S
H1367 C1351 0.961 . S
H1368 C1352 0.931 . S
H1369 C1357 0.930 . S
H1370 C1358 0.956 . S
H1371 C1358 0.961 . S
H1372 C1358 0.961 . S
H1373 C1359 0.958 . S
H1374 C1359 0.961 . S
H1375 C1359 0.960 . S
C1376 C1377 1.391 . S
C1376 C1378 1.394 . S
C1376 H1392 0.931 . S
C1377 C1376 1.391 . S
C1377 C1381 1.376 . S
C1378 C1376 1.394 . S
C1378 C1379 1.369 . S
C1378 C1382 1.531 . S
C1379 C1378 1.369 . S
C1379 C1380 1.410 . S
C1379 C1387 1.503 . S
C1380 C1379 1.410 . S
C1380 C1381 1.392 . S
C1380 C1383 1.511 . S
C1381 C1377 1.376 . S
C1381 C1380 1.392 . S
C1381 H1393 0.929 . S
C1382 C1378 1.531 . S
C1382 H1394 0.960 . S
C1382 H1395 0.962 . S
C1382 H1396 0.960 . S
C1383 C1380 1.511 . S
C1383 H1397 0.961 . S
C1383 H1398 0.961 . S
C1383 H1399 0.961 . S
C1384 C1385 1.370 . S
C1384 C1386 1.363 . S
C1384 H1400 0.931 . S
C1385 C1384 1.370 . S
C1385 C1389 1.408 . S
C1386 C1384 1.363 . S
C1386 C1387 1.370 . S
C1386 C1390 1.524 . S
C1387 C1379 1.503 . S
C1387 C1386 1.370 . S
C1387 C1388 1.403 . S
C1388 C1387 1.403 . S
C1388 C1389 1.404 . S
C1388 C1391 1.539 . S
C1389 C1385 1.408 . S
C1389 C1388 1.404 . S
C1389 H1401 0.930 . S
C1390 C1386 1.524 . S
C1390 H1402 0.956 . S
C1390 H1403 0.961 . S
C1390 H1404 0.961 . S
C1391 C1388 1.539 . S
C1391 H1405 0.958 . S
C1391 H1406 0.961 . S
C1391 H1407 0.960 . S
H1392 C1376 0.931 . S
H1393 C1381 0.929 . S
H1394 C1382 0.960 . S
H1395 C1382 0.962 . S
H1396 C1382 0.960 . S
H1397 C1383 0.961 . S
H1398 C1383 0.961 . S
H1399 C1383 0.961 . S
H1400 C1384 0.931 . S
H1401 C1389 0.930 . S
H1402 C1390 0.956 . S
H1403 C1390 0.961 . S
H1404 C1390 0.961 . S
H1405 C1391 0.958 . S
H1406 C1391 0.961 . S
H1407 C1391 0.960 . S
C1408 C1409 1.391 . S
C1408 C1410 1.394 . S
C1408 H1424 0.931 . S
C1409 C1408 1.391 . S
C1409 C1413 1.376 . S
C1410 C1408 1.394 . S
C1410 C1411 1.369 . S
C1410 C1414 1.531 . S
C1411 C1410 1.369 . S
C1411 C1412 1.410 . S
C1411 C1419 1.503 . S
C1412 C1411 1.410 . S
C1412 C1413 1.392 . S
C1412 C1415 1.511 . S
C1413 C1409 1.376 . S
C1413 C1412 1.392 . S
C1413 H1425 0.929 . S
C1414 C1410 1.531 . S
C1414 H1426 0.960 . S
C1414 H1427 0.962 . S
C1414 H1428 0.960 . S
C1415 C1412 1.511 . S
C1415 H1429 0.961 . S
C1415 H1430 0.961 . S
C1415 H1431 0.961 . S
C1416 C1417 1.370 . S
C1416 C1418 1.363 . S
C1416 H1432 0.931 . S
C1417 C1416 1.370 . S
C1417 C1421 1.408 . S
C1418 C1416 1.363 . S
C1418 C1419 1.370 . S
C1418 C1422 1.524 . S
C1419 C1411 1.503 . S
C1419 C1418 1.370 . S
C1419 C1420 1.403 . S
C1420 C1419 1.403 . S
C1420 C1421 1.404 . S
C1420 C1423 1.539 . S
C1421 C1417 1.408 . S
C1421 C1420 1.404 . S
C1421 H1433 0.930 . S
C1422 C1418 1.524 . S
C1422 H1434 0.956 . S
C1422 H1435 0.961 . S
C1422 H1436 0.961 . S
C1423 C1420 1.539 . S
C1423 H1437 0.958 . S
C1423 H1438 0.961 . S
C1423 H1439 0.960 . S
H1424 C1408 0.931 . S
H1425 C1413 0.929 . S
H1426 C1414 0.960 . S
H1427 C1414 0.962 . S
H1428 C1414 0.960 . S
H1429 C1415 0.961 . S
H1430 C1415 0.961 . S
H1431 C1415 0.961 . S
H1432 C1416 0.931 . S
H1433 C1421 0.930 . S
H1434 C1422 0.956 . S
H1435 C1422 0.961 . S
H1436 C1422 0.961 . S
H1437 C1423 0.958 . S
H1438 C1423 0.961 . S
H1439 C1423 0.960 . S
C1440 C1441 1.391 . S
C1440 C1442 1.394 . S
C1440 H1456 0.931 . S
C1441 C1440 1.391 . S
C1441 C1445 1.376 . S
C1442 C1440 1.394 . S
C1442 C1443 1.369 . S
C1442 C1446 1.531 . S
C1443 C1442 1.369 . S
C1443 C1444 1.410 . S
C1443 C1451 1.503 . S
C1444 C1443 1.410 . S
C1444 C1445 1.392 . S
C1444 C1447 1.511 . S
C1445 C1441 1.376 . S
C1445 C1444 1.392 . S
C1445 H1457 0.929 . S
C1446 C1442 1.531 . S
C1446 H1458 0.960 . S
C1446 H1459 0.962 . S
C1446 H1460 0.960 . S
C1447 C1444 1.511 . S
C1447 H1461 0.961 . S
C1447 H1462 0.961 . S
C1447 H1463 0.961 . S
C1448 C1449 1.370 . S
C1448 C1450 1.363 . S
C1448 H1464 0.931 . S
C1449 C1448 1.370 . S
C1449 C1453 1.408 . S
C1450 C1448 1.363 . S
C1450 C1451 1.370 . S
C1450 C1454 1.524 . S
C1451 C1443 1.503 . S
C1451 C1450 1.370 . S
C1451 C1452 1.403 . S
C1452 C1451 1.403 . S
C1452 C1453 1.404 . S
C1452 C1455 1.539 . S
C1453 C1449 1.408 . S
C1453 C1452 1.404 . S
C1453 H1465 0.930 . S
C1454 C1450 1.524 . S
C1454 H1466 0.956 . S
C1454 H1467 0.961 . S
C1454 H1468 0.961 . S
C1455 C1452 1.539 . S
C1455 H1469 0.958 . S
C1455 H1470 0.961 . S
C1455 H1471 0.960 . S
H1456 C1440 0.931 . S
H1457 C1445 0.929 . S
H1458 C1446 0.960 . S
H1459 C1446 0.962 . S
H1460 C1446 0.960 . S
H1461 C1447 0.961 . S
H1462 C1447 0.961 . S
H1463 C1447 0.961 . S
H1464 C1448 0.931 . S
H1465 C1453 0.930 . S
H1466 C1454 0.956 . S
H1467 C1454 0.961 . S
H1468 C1454 0.961 . S
H1469 C1455 0.958 . S
H1470 C1455 0.961 . S
H1471 C1455 0.960 . S
C1472 C1473 1.391 . S
C1472 C1474 1.394 . S
C1472 H1488 0.931 . S
C1473 C1472 1.391 . S
C1473 C1477 1.376 . S
C1474 C1472 1.394 . S
C1474 C1475 1.369 . S
C1474 C1478 1.531 . S
C1475 C1474 1.369 . S
C1475 C1476 1.410 . S
C1475 C1483 1.503 1_554 S
C1476 C1475 1.410 . S
C1476 C1477 1.392 . S
C1476 C1479 1.511 1_554 S
C1477 C1473 1.376 . S
C1477 C1476 1.392 . S
C1477 H1489 0.929 . S
C1478 C1474 1.531 . S
C1478 H1490 0.960 . S
C1478 H1491 0.962 . S
C1478 H1492 0.960 . S
C1479 C1476 1.511 1_556 S
C1479 H1493 0.961 . S
C1479 H1494 0.961 . S
C1479 H1495 0.961 . S
C1480 C1481 1.370 . S
C1480 C1482 1.363 . S
C1480 H1496 0.931 . S
C1481 C1480 1.370 . S
C1481 C1485 1.408 . S
C1482 C1480 1.363 . S
C1482 C1483 1.370 . S
C1482 C1486 1.524 . S
C1483 C1475 1.503 1_556 S
C1483 C1482 1.370 . S
C1483 C1484 1.403 . S
C1484 C1483 1.403 . S
C1484 C1485 1.404 . S
C1484 C1487 1.539 . S
C1485 C1481 1.408 . S
C1485 C1484 1.404 . S
C1485 H1497 0.930 . S
C1486 C1482 1.524 . S
C1486 H1498 0.956 . S
C1486 H1499 0.961 . S
C1486 H1500 0.961 . S
C1487 C1484 1.539 . S
C1487 H1501 0.958 1_556 S
C1487 H1502 0.961 . S
C1487 H1503 0.960 1_556 S
H1488 C1472 0.931 . S
H1489 C1477 0.929 . S
H1490 C1478 0.960 . S
H1491 C1478 0.962 . S
H1492 C1478 0.960 . S
H1493 C1479 0.961 . S
H1494 C1479 0.961 . S
H1495 C1479 0.961 . S
H1496 C1480 0.931 . S
H1497 C1485 0.930 . S
H1498 C1486 0.956 . S
H1499 C1486 0.961 . S
H1500 C1486 0.961 . S
H1501 C1487 0.958 1_554 S
H1502 C1487 0.961 . S
H1503 C1487 0.960 1_554 S
C1504 C1505 1.391 . S
C1504 C1506 1.394 . S
C1504 H1520 0.931 . S
C1505 C1504 1.391 . S
C1505 C1509 1.376 . S
C1506 C1504 1.394 . S
C1506 C1507 1.369 . S
C1506 C1510 1.531 . S
C1507 C1506 1.369 . S
C1507 C1508 1.410 . S
C1507 C1515 1.503 . S
C1508 C1507 1.410 . S
C1508 C1509 1.392 . S
C1508 C1511 1.511 . S
C1509 C1505 1.376 . S
C1509 C1508 1.392 . S
C1509 H1521 0.929 . S
C1510 C1506 1.531 . S
C1510 H1522 0.960 . S
C1510 H1523 0.962 . S
C1510 H1524 0.960 . S
C1511 C1508 1.511 . S
C1511 H1525 0.961 . S
C1511 H1526 0.961 . S
C1511 H1527 0.961 . S
C1512 C1513 1.370 . S
C1512 C1514 1.363 . S
C1512 H1528 0.931 . S
C1513 C1512 1.370 . S
C1513 C1517 1.408 . S
C1514 C1512 1.363 . S
C1514 C1515 1.370 . S
C1514 C1518 1.524 . S
C1515 C1507 1.503 . S
C1515 C1514 1.370 . S
C1515 C1516 1.403 . S
C1516 C1515 1.403 . S
C1516 C1517 1.404 . S
C1516 C1519 1.539 . S
C1517 C1513 1.408 . S
C1517 C1516 1.404 . S
C1517 H1529 0.930 . S
C1518 C1514 1.524 . S
C1518 H1530 0.956 . S
C1518 H1531 0.961 . S
C1518 H1532 0.961 . S
C1519 C1516 1.539 . S
C1519 H1533 0.958 . S
C1519 H1534 0.961 . S
C1519 H1535 0.960 . S
H1520 C1504 0.931 . S
H1521 C1509 0.929 . S
H1522 C1510 0.960 . S
H1523 C1510 0.962 . S
H1524 C1510 0.960 . S
H1525 C1511 0.961 . S
H1526 C1511 0.961 . S
H1527 C1511 0.961 . S
H1528 C1512 0.931 . S
H1529 C1517 0.930 . S
H1530 C1518 0.956 . S
H1531 C1518 0.961 . S
H1532 C1518 0.961 . S
H1533 C1519 0.958 . S
H1534 C1519 0.961 . S
H1535 C1519 0.960 . S
C777 C757 1.673 . S
C769 C1 1.343 . S
C801 C169 1.505 . S
C809 C687 1.805 . S
C833 C283 1.558 . S
C841 C706 1.808 . S
C865 C397 1.324 . S
C873 C715 1.663 . S
C905 C729 1.510 . S
C897 C457 1.110 . S
C929 C571 1.114 . S
C937 C748 1.597 . S
C961 C115 1.320 . S
C969 C701 1.646 . S
C993 C229 1.097 . S
C1001 C720 1.548 . S
C1025 C343 1.213 . S
C1033 C734 1.522 . S
C1065 C743 1.599 . S
C1057 C511 1.240 . S
C1097 C762 1.784 . S
C1089 C625 1.467 . S
C1129 C692 1.800 . S
C1121 C55 1.540 . S
C1153 C29 1.153 . S
C1161 C707 1.431 . S
C1185 C125 0.832 . S
C1193 C719 1.503 . S
C1225 C733 1.454 . S
C1217 C239 0.915 . S
C1249 C353 0.832 . S
C1257 C749 1.464 . S
C1289 C761 1.358 . S
C1281 C485 1.037 . S
C1321 C691 1.439 . S
C1313 C599 1.066 . S
C1353 C763 1.442 . S
C1345 C143 1.124 . S
C1377 C257 1.116 . S
C1385 C693 1.461 . S
C1417 C705 1.372 . S
C1409 C371 1.088 . S
C1441 C467 0.814 . S
C1449 C721 1.467 . S
C1473 C581 1.028 . S
C1481 C735 1.481 . S
C1505 C11 0.898 . S
C1513 C747 1.524 . S
