# Generated by pormake.
# Topology zzz, (3,6)-cn, num edge types: 1
# Building blocks:
#     Node 0, Type 0, BuildingBlock: ESEHIV_clean_linker_0, # of connection points: 3
#     Node 1, Type 0, BuildingBlock: ESEHIV_clean_linker_0, # of connection points: 3
#     Node 2, Type 0, BuildingBlock: ESEHIV_clean_linker_0, # of connection points: 3
#     Node 3, Type 0, BuildingBlock: ESEHIV_clean_linker_0, # of connection points: 3
#     Node 4, Type 0, BuildingBlock: ESEHIV_clean_linker_0, # of connection points: 3
#     Node 5, Type 0, BuildingBlock: ESEHIV_clean_linker_0, # of connection points: 3
#     Node 6, Type 0, BuildingBlock: ESEHIV_clean_linker_0, # of connection points: 3
#     Node 7, Type 0, BuildingBlock: ESEHIV_clean_linker_0, # of connection points: 3
#     Node 8, Type 1, BuildingBlock: PAMTOO_clean_sbu_0, # of connection points: 6
#     Node 9, Type 1, BuildingBlock: PAMTOO_clean_sbu_0, # of connection points: 6
#     Node 10, Type 1, BuildingBlock: PAMTOO_clean_sbu_0, # of connection points: 6
#     Node 11, Type 1, BuildingBlock: PAMTOO_clean_sbu_0, # of connection points: 6
#     Edge 12, Type (0, 1), BuildingBlock: AJUNOK_clean_linker_0, # of connection points: 2
#     Edge 13, Type (0, 1), BuildingBlock: AJUNOK_clean_linker_0, # of connection points: 2
#     Edge 14, Type (0, 1), BuildingBlock: AJUNOK_clean_linker_0, # of connection points: 2
#     Edge 15, Type (0, 1), BuildingBlock: AJUNOK_clean_linker_0, # of connection points: 2
#     Edge 16, Type (0, 1), BuildingBlock: AJUNOK_clean_linker_0, # of connection points: 2
#     Edge 17, Type (0, 1), BuildingBlock: AJUNOK_clean_linker_0, # of connection points: 2
#     Edge 18, Type (0, 1), BuildingBlock: AJUNOK_clean_linker_0, # of connection points: 2
#     Edge 19, Type (0, 1), BuildingBlock: AJUNOK_clean_linker_0, # of connection points: 2
#     Edge 20, Type (0, 1), BuildingBlock: AJUNOK_clean_linker_0, # of connection points: 2
#     Edge 21, Type (0, 1), BuildingBlock: AJUNOK_clean_linker_0, # of connection points: 2
#     Edge 22, Type (0, 1), BuildingBlock: AJUNOK_clean_linker_0, # of connection points: 2
#     Edge 23, Type (0, 1), BuildingBlock: AJUNOK_clean_linker_0, # of connection points: 2
#     Edge 24, Type (0, 1), BuildingBlock: AJUNOK_clean_linker_0, # of connection points: 2
#     Edge 25, Type (0, 1), BuildingBlock: AJUNOK_clean_linker_0, # of connection points: 2
#     Edge 26, Type (0, 1), BuildingBlock: AJUNOK_clean_linker_0, # of connection points: 2
#     Edge 27, Type (0, 1), BuildingBlock: AJUNOK_clean_linker_0, # of connection points: 2
#     Edge 28, Type (0, 1), BuildingBlock: AJUNOK_clean_linker_0, # of connection points: 2
#     Edge 29, Type (0, 1), BuildingBlock: AJUNOK_clean_linker_0, # of connection points: 2
#     Edge 30, Type (0, 1), BuildingBlock: AJUNOK_clean_linker_0, # of connection points: 2
#     Edge 31, Type (0, 1), BuildingBlock: AJUNOK_clean_linker_0, # of connection points: 2
#     Edge 32, Type (0, 1), BuildingBlock: AJUNOK_clean_linker_0, # of connection points: 2
#     Edge 33, Type (0, 1), BuildingBlock: AJUNOK_clean_linker_0, # of connection points: 2
#     Edge 34, Type (0, 1), BuildingBlock: AJUNOK_clean_linker_0, # of connection points: 2
#     Edge 35, Type (0, 1), BuildingBlock: AJUNOK_clean_linker_0, # of connection points: 2
# Relax obj value: 0.475
# Max RMSD: 0.308
# Mean RMSD: 0.227
data_MOF--net-zzz--node1-PAMTOO_clean_sbu_0--node2-ESEHIV_clean_linker_0--edge1-AJUNOK_clean_linker_0
_symmetry_space_group_name_H-M    P1
_symmetry_Int_Tables_number       1
_symmetry_cell_setting            triclinic
loop_
_symmetry_equiv_pos_as_xyz
'x, y, z'
_cell_length_a     37.409762
_cell_length_b     29.972037
_cell_length_c     11.83423
_cell_angle_alpha  92.669175
_cell_angle_beta   75.852469
_cell_angle_gamma 84.246042
loop_
_atom_site_label
_atom_site_type_symbol
_atom_site_fract_x
_atom_site_fract_y
_atom_site_fract_z
_atom_type_partial_charge
H0 H 0.85585 0.42593 0.59265 0.0
H1 H 0.7585 0.4646 0.47648 0.0
H2 H 0.78986 0.55319 0.72319 0.0
C3 C 0.83093 0.44901 0.60115 0.0
C4 C 0.82506 0.48915 0.67404 0.0
C5 C 0.80705 0.44073 0.52947 0.0
C6 C 0.77607 0.47097 0.53495 0.0
C7 C 0.76984 0.51176 0.60216 0.0
C8 C 0.79437 0.52126 0.67222 0.0
H9 H 0.12258 0.78959 0.39961 0.0
H10 H 0.10497 0.67296 0.20609 0.0
H11 H 1.02105 0.72964 0.51177 0.0
C12 C 0.106 0.76248 0.39164 0.0
C13 C 0.07154 0.76232 0.47245 0.0
C14 C 0.11814 0.7306 0.29565 0.0
C15 C 0.09584 0.69714 0.28143 0.0
C16 C 0.0609 0.69617 0.35872 0.0
C17 C 0.04818 0.72978 0.45271 0.0
H18 H 0.70678 0.07266 0.43039 0.0
H19 H 0.81459 0.07886 0.20914 0.0
H20 H 0.80111 0.99393 0.50042 0.0
C21 C 0.73643 0.06205 0.40991 0.0
C22 C 0.75032 0.03138 0.47851 0.0
C23 C 0.75948 0.07943 0.31529 0.0
C24 C 0.79743 0.06553 0.28478 0.0
C25 C 0.8135 0.03497 0.35035 0.0
C26 C 0.78949 0.01717 0.44792 0.0
H27 H 0.49251 0.66821 0.38949 0.0
H28 H 0.54722 0.78122 0.46305 0.0
H29 H 0.4778 0.78913 0.21963 0.0
C30 C 0.49682 0.70321 0.37945 0.0
C31 C 0.48082 0.7268 0.30198 0.0
C32 C 0.5175 0.72314 0.44746 0.0
C33 C 0.52889 0.76605 0.41853 0.0
C34 C 0.51539 0.78934 0.3316 0.0
C35 C 0.48953 0.77045 0.28082 0.0
H36 H 0.18655 0.57783 0.25515 0.0
H37 H 0.28488 0.54616 0.3708 0.0
H38 H 0.26113 0.45824 0.10635 0.0
C39 C 0.21268 0.55683 0.24461 0.0
C40 C 0.2216 0.51849 0.1649 0.0
C41 C 0.23536 0.56618 0.31886 0.0
C42 C 0.26812 0.53886 0.3105 0.0
C43 C 0.27756 0.49964 0.23631 0.0
C44 C 0.25417 0.48891 0.16303 0.0
H45 H 0.96382 0.23357 0.39038 0.0
H46 H 0.98437 0.35261 0.56451 0.0
H47 H 0.0614 0.29722 0.24198 0.0
C48 C 0.98022 0.26147 0.38984 0.0
C49 C 1.01218 0.26258 0.2987 0.0
C50 C 0.97004 0.29393 0.4843 0.0
C51 C 0.99211 0.32818 0.48951 0.0
C52 C 1.02521 0.3298 0.40384 0.0
C53 C 0.03576 0.29645 0.30809 0.0
H54 H 0.35203 0.93166 0.2993 0.0
H55 H 0.24474 0.92451 0.52823 0.0
H56 H 0.26203 0.0327 0.2989 0.0
C57 C 0.32272 0.94387 0.32847 0.0
C58 C 0.3098 0.98253 0.28206 0.0
C59 C 0.30002 0.92357 0.41924 0.0
C60 C 0.26246 0.94039 0.45869 0.0
C61 C 0.24809 0.97978 0.41736 0.0
C62 C 0.27216 1.00147 0.32893 0.0
H63 H 0.53727 0.36239 0.46285 0.0
H64 H 0.51374 0.23361 0.34054 0.0
H65 H 0.56907 0.24495 0.62014 0.0
C66 C 0.53854 0.32617 0.4675 0.0
C67 C 0.55701 0.30591 0.54371 0.0
C68 C 0.52584 0.30093 0.38641 0.0
C69 C 0.52417 0.25396 0.40055 0.0
C70 C 0.53795 0.23358 0.49143 0.0
C71 C 0.55591 0.26008 0.55721 0.0
Dy72 Dy 1.00988 0.0257 0.81923 0.0
Dy73 Dy 0.05697 0.99083 0.9951 0.0
C74 C 0.09939 0.01286 0.7333 0.0
O75 O 1.01175 0.95039 0.80579 0.0
O76 O 0.06574 0.93355 0.85755 0.0
O77 O 0.99849 0.06249 0.67732 0.0
O78 O 0.95925 0.01916 0.76694 0.0
O79 O 0.99709 0.98183 0.08476 0.0
O80 O 0.97101 0.03802 0.9982 0.0
O81 O 0.03934 0.0628 0.05994 0.0
O82 O 1.02299 0.09035 0.89943 0.0
O83 O 0.06939 0.94358 0.11556 0.0
O84 O 0.10087 1.0005 0.07959 0.0
C85 C 0.04081 0.92182 0.80417 0.0
O86 O 0.06818 0.01121 0.70093 0.0
O87 O 0.09929 0.01303 0.84451 0.0
C88 C 0.93551 0.08741 0.71023 0.0
C89 C 0.89992 0.17491 0.72909 0.0
C90 C 0.90242 0.15365 0.83058 0.0
C91 C 0.92087 0.11024 0.82095 0.0
C92 C 0.92701 0.10534 0.61207 0.0
C93 C 0.90905 0.14878 0.62139 0.0
C94 C 0.96514 0.05029 0.69351 0.0
C95 C 0.96819 0.01031 0.08153 0.0
C96 C 0.03134 0.0967 1.00077 0.0
C97 C 0.13282 0.93162 0.10168 0.0
C98 C 0.18165 0.85236 0.06615 0.0
C99 C 0.17044 0.87655 0.17696 0.0
C100 C 0.1458 0.91562 0.19458 0.0
C101 C 0.14876 0.9124 0.9877 0.0
C102 C 0.17354 0.87312 0.96976 0.0
C103 C 0.09854 0.96221 0.12676 0.0
H104 H 0.89447 0.17241 0.91503 0.0
H105 H 0.92674 0.09639 0.89827 0.0
H106 H 0.93771 0.08781 0.52634 0.0
H107 H 0.90721 0.16364 0.54101 0.0
H108 H 0.17597 0.86236 0.25423 0.0
H109 H 0.13395 0.9305 0.28275 0.0
H110 H 0.13929 0.92512 0.91451 0.0
H111 H 0.18229 0.85595 0.88327 0.0
Dy112 Dy 0.52853 0.9676 0.8043 0.0
Dy113 Dy 0.53364 0.04537 0.99368 0.0
C114 C 0.52742 0.07029 0.73811 0.0
O115 O 0.58819 0.98058 0.73853 0.0
O116 O 0.59406 0.02445 0.89665 0.0
O117 O 0.52953 0.93879 0.63241 0.0
O118 O 0.51826 0.89857 0.78129 0.0
O119 O 0.5223 0.98297 0.08922 0.0
O120 O 0.55407 0.93475 0.93811 0.0
O121 O 0.4718 0.04848 1.0158 0.0
O122 O 0.47075 0.97971 0.92535 0.0
O123 O 0.54764 0.06258 0.15422 0.0
O124 O 0.52514 0.11501 0.06193 0.0
C125 C 0.60863 1.00278 0.7927 0.0
O126 O 0.51251 0.03271 0.72753 0.0
O127 O 0.54305 0.07754 0.82401 0.0
C128 C 0.48215 0.89159 0.64862 0.0
C129 C 0.41285 0.8729 0.61804 0.0
C130 C 0.41963 0.91737 0.63986 0.0
C131 C 0.4538 0.9266 0.65541 0.0
C132 C 0.47549 0.84694 0.62912 0.0
C133 C 0.44116 0.83761 0.61156 0.0
C134 C 0.51709 0.90202 0.67311 0.0
C135 C 0.5394 0.94285 0.05071 0.0
C136 C 0.45342 0.01518 0.99424 0.0
C137 C 0.57139 0.13111 0.15948 0.0
C138 C 0.64112 0.15435 0.17225 0.0
C139 C 0.62878 0.16144 0.07102 0.0
C140 C 0.59407 0.1495 0.0641 0.0
C141 C 0.58226 0.12861 0.26403 0.0
C142 C 0.61686 0.13994 0.27028 0.0
C143 C 0.54095 0.10573 0.14629 0.0
H144 H 0.39866 0.94535 0.64221 0.0
H145 H 0.458 0.96122 0.67321 0.0
H146 H 0.49671 0.81951 0.6281 0.0
H147 H 0.43669 0.80314 0.59328 0.0
H148 H 0.64709 0.17283 0.995 0.0
H149 H 0.58633 0.15141 0.98188 0.0
H150 H 0.56555 0.11346 0.33709 0.0
H151 H 0.62627 0.13272 0.34777 0.0
Dy152 Dy 0.55344 0.53421 0.9901 0.0
Dy153 Dy 0.49005 0.49532 0.86037 0.0
C154 C 0.51483 0.44488 0.07854 0.0
O155 O 0.57863 0.46755 0.8972 0.0
O156 O 0.5481 0.47688 0.75482 0.0
O157 O 0.6094 0.54594 0.99695 0.0
O158 O 0.56199 0.57483 0.13451 0.0
O159 O 0.50432 0.5561 0.76526 0.0
O160 O 0.55272 0.57815 0.83747 0.0
O161 O 0.46434 0.56231 0.95062 0.0
O162 O 0.4956 0.5575 0.09326 0.0
O163 O 0.43429 0.48531 0.84772 0.0
O164 O 0.48234 0.45141 0.72036 0.0
C165 C 0.5737 0.45497 0.79539 0.0
O166 O 0.5407 0.47164 0.08037 0.0
O167 O 0.49149 0.45081 1.01101 0.0
C168 C 0.62003 0.56275 0.1871 0.0
C169 C 0.66343 0.56174 0.35507 0.0
C170 C 0.62449 0.57123 0.38961 0.0
C171 C 0.60316 0.572 0.30714 0.0
C172 C 0.65882 0.55259 0.15221 0.0
C173 C 0.68015 0.55191 0.23481 0.0
C174 C 0.5981 0.56914 0.09803 0.0
C175 C 0.5302 0.58286 0.76686 0.0
C176 C 0.46969 0.57748 0.04999 0.0
C177 C 0.42573 0.46292 0.65824 0.0
C178 C 0.38497 0.45898 0.48377 0.0
C179 C 0.42409 0.45346 0.45305 0.0
C180 C 0.44418 0.45511 0.53892 0.0
C181 C 0.38674 0.46917 0.68894 0.0
C182 C 0.3667 0.46736 0.60323 0.0
C183 C 0.44619 0.45904 0.75167 0.0
H184 H 0.61023 0.57903 0.48016 0.0
H185 H 0.57343 0.58087 0.33769 0.0
H186 H 0.67286 0.54596 0.0605 0.0
H187 H 0.7099 0.5435 0.20398 0.0
H188 H 0.43941 0.44694 0.36293 0.0
H189 H 0.47419 0.44932 0.51164 0.0
H190 H 0.37159 0.47458 0.77994 0.0
H191 H 0.33669 0.47271 0.63094 0.0
Dy192 Dy 1.02691 0.55482 0.86937 0.0
Dy193 Dy 1.01698 0.46028 0.98993 0.0
C194 C 0.04883 0.4607 0.70805 0.0
O195 O 0.97522 0.53691 0.82642 0.0
O196 O 0.96089 0.48189 0.95334 0.0
O197 O 0.03281 0.60301 0.73824 0.0
O198 O 1.02406 0.62541 0.92011 0.0
O199 O 1.02244 0.51313 0.12402 0.0
O200 O 0.9895 0.56398 0.04902 0.0
O201 O 0.0773 0.46542 0.9754 0.0
O202 O 0.08054 0.53821 0.92326 0.0
O203 O 0.99422 0.42759 0.14446 0.0
O204 O 1.02516 0.38768 0.98664 0.0
C205 C 0.95233 0.50909 0.87643 0.0
O206 O 0.05078 0.50452 0.71358 0.0
O207 O 0.03532 0.43926 0.80032 0.0
C208 C 0.06553 0.66142 0.78112 0.0
C209 C 0.13933 0.67294 0.68257 0.0
C210 C 0.11276 0.67929 0.61704 0.0
C211 C 0.07606 0.67345 0.66632 0.0
C212 C 0.09035 0.66374 0.85302 0.0
C213 C 0.12724 0.67013 0.80378 0.0
C214 C 0.03324 0.63638 0.81268 0.0
C215 C 1.00426 0.55325 0.13454 0.0
C216 C 0.09524 0.50113 0.95882 0.0
C217 C 0.97317 0.35956 0.10675 0.0
C218 C 0.90057 0.33691 0.17462 0.0
C219 C 0.9162 0.34404 0.05685 0.0
C220 C 0.95243 0.3558 0.02313 0.0
C221 C 0.95929 0.34633 0.21857 0.0
C222 C 0.92377 0.33401 0.2517 0.0
C223 C 1.0037 0.38742 0.09148 0.0
H224 H 0.1211 0.6816 0.52339 0.0
H225 H 0.05727 0.67161 0.61033 0.0
H226 H 0.08264 0.65547 0.94328 0.0
H227 H 0.14713 0.66615 0.85653 0.0
H228 H 0.89885 0.347 0.99584 0.0
H229 H 0.96249 0.36662 0.9361 0.0
H230 H 0.97384 0.35166 0.28515 0.0
H231 H 0.91267 0.33023 0.34352 0.0
C232 C 0.17795 0.98612 0.45045 0.0
C233 C 0.20947 0.99926 0.48294 0.0
C234 C 0.14208 0.99292 0.52867 0.0
C235 C 0.13628 0.01212 0.64415 0.0
H236 H 0.1814 0.9682 0.36623 0.0
H237 H 0.11917 0.98064 0.50052 0.0
S238 S 0.20963 0.0538 0.77054 0.0
N239 N 0.23203 0.03398 0.63678 0.0
N240 N 0.16573 0.04637 0.78304 0.0
C241 C 0.16752 0.02685 0.67551 0.0
C242 C 0.20368 0.02048 0.59553 0.0
C243 C 0.56676 0.16138 0.54963 0.0
C244 C 0.53571 0.18529 0.52262 0.0
C245 C 0.56394 0.12259 0.61174 0.0
C246 C 0.53001 0.1048 0.64939 0.0
H247 H 0.59342 0.17436 0.52852 0.0
H248 H 0.58843 0.10755 0.6354 0.0
S249 S 0.44087 0.15006 0.59049 0.0
N250 N 0.47018 0.1852 0.53063 0.0
N251 N 0.46511 0.11141 0.64544 0.0
C252 C 0.49924 0.1257 0.61509 0.0
C253 C 0.50204 0.16596 0.55216 0.0
C254 C 0.30365 0.44322 0.34879 0.0
C255 C 0.31003 0.47023 0.2533 0.0
C256 C 0.32939 0.43678 0.41744 0.0
C257 C 0.36266 0.45712 0.3937 0.0
H258 H 0.27665 0.43166 0.3794 0.0
H259 H 0.32191 0.41827 0.49457 0.0
S260 S 0.39533 0.52335 0.13883 0.0
N261 N 0.35439 0.51092 0.12697 0.0
N262 N 0.40263 0.49979 0.25572 0.0
C263 C 0.37128 0.47949 0.28985 0.0
C264 C 0.34513 0.4855 0.21946 0.0
C265 C 0.03374 0.41075 0.42781 0.0
C266 C 0.04804 0.36531 0.42858 0.0
C267 C 0.03866 0.44418 0.50908 0.0
C268 C 0.05793 0.43321 0.59422 0.0
H269 H 1.01454 0.41934 0.37477 0.0
H270 H 1.0235 0.47727 0.51426 0.0
S271 S 0.10727 0.32163 0.61699 0.0
N272 N 0.08753 0.31332 0.50844 0.0
N273 N 0.09668 0.37554 0.66069 0.0
C274 C 0.07644 0.38939 0.58516 0.0
C275 C 0.07171 0.35565 0.50199 0.0
C276 C 0.87692 0.06125 0.29072 0.0
C277 C 0.85541 0.02485 0.31185 0.0
C278 C 0.9138 0.05566 0.22174 0.0
C279 C 0.9318 0.01315 0.17261 0.0
H280 H 0.86418 0.09515 0.32125 0.0
H281 H 0.92792 0.08533 0.20289 0.0
S282 S 0.89001 0.90586 0.20925 0.0
N283 N 0.8563 0.94402 0.28254 0.0
N284 N 0.92608 0.93324 0.15754 0.0
C285 C 0.91185 0.97587 0.20013 0.0
C286 C 0.87372 0.98173 0.26875 0.0
C287 C 0.50731 0.87302 0.31351 0.0
C288 C 0.52915 0.83118 0.28069 0.0
C289 C 0.51234 0.90962 0.24223 0.0
C290 C 0.53863 0.90566 0.1327 0.0
H291 H 0.4845 0.87667 0.39102 0.0
H292 H 0.4938 0.94041 0.2702 0.0
S293 S 0.6036 0.80343 1.00797 0.0
N294 N 0.57905 0.78859 0.1336 0.0
N295 N 0.58811 0.8564 0.99899 0.0
C296 C 0.56156 0.86443 0.10122 0.0
C297 C 0.55687 0.82756 0.17499 0.0
C298 C 0.7481 0.56804 0.48038 0.0
C299 C 0.73962 0.54386 0.58082 0.0
C300 C 0.7223 0.57665 0.41278 0.0
C301 C 0.68695 0.5612 0.44219 0.0
H302 H 0.77626 0.57567 0.4462 0.0
H303 H 0.73112 0.59303 0.33261 0.0
S304 S 0.64934 0.50402 0.71033 0.0
N305 N 0.69186 0.51137 0.71701 0.0
N306 N 0.64351 0.52609 0.59004 0.0
C307 C 0.67681 0.54166 0.55009 0.0
C308 C 0.70302 0.53364 0.61951 0.0
C309 C 0.05227 0.61488 0.33414 0.0
C310 C 0.03848 0.66029 0.33287 0.0
C311 C 0.03891 0.58013 0.27773 0.0
C312 C 1.01151 0.58931 0.21583 0.0
H313 H 0.07529 0.6064 0.37279 0.0
H314 H 0.05201 0.54614 0.27641 0.0
S315 S 0.96358 0.70248 0.19694 0.0
N316 N 0.99386 0.7123 0.27331 0.0
N317 N 0.96843 0.64743 0.1679 0.0
C318 C 0.99565 0.63441 0.22125 0.0
C319 C 1.00923 0.66974 0.27937 0.0
C320 C 0.90627 0.27531 0.56976 0.0
C321 C 0.94036 0.28607 0.58656 0.0
C322 C 0.8861 0.24571 0.64081 0.0
C323 C 0.90102 0.22418 0.72482 0.0
H324 H 0.89802 0.28438 0.49192 0.0
H325 H 0.86305 0.23291 0.61465 0.0
S326 S 0.98137 0.25565 0.83078 0.0
N327 N 0.98127 0.28549 0.71724 0.0
N328 N 0.94488 0.22767 0.84621 0.0
C329 C 0.93027 0.24283 0.75888 0.0
C330 C 0.95009 0.27405 0.68896 0.0
C331 C 0.34887 0.86111 0.42602 0.0
C332 C 0.31846 0.89197 0.48664 0.0
C333 C 0.37829 0.84859 0.47636 0.0
C334 C 0.37744 0.86566 0.58959 0.0
H335 H 0.35234 0.85163 0.33416 0.0
H336 H 0.40354 0.83046 0.42134 0.0
S337 S 0.29832 0.93241 0.79972 0.0
N338 N 0.28519 0.9289 0.6765 0.0
N339 N 0.33969 0.90313 0.77206 0.0
C340 C 0.34406 0.88845 0.65851 0.0
C341 C 0.31451 0.9021 0.60681 0.0
C342 C 0.59504 0.36926 0.55067 0.0
C343 C 0.57687 0.33444 0.60787 0.0
C344 C 0.6004 0.40732 0.61436 0.0
C345 C 0.58937 0.4106 0.73672 0.0
H346 H 0.60099 0.36965 0.4564 0.0
H347 H 0.60887 0.43633 0.56779 0.0
S348 S 0.55592 0.32061 0.92545 0.0
N349 N 0.55753 0.30046 0.79221 0.0
N350 N 0.57128 0.37035 0.91084 0.0
C351 C 0.57913 0.37201 0.79334 0.0
C352 C 0.57195 0.33404 0.72902 0.0
C353 C 0.21478 0.64346 0.41678 0.0
C354 C 0.22068 0.59692 0.42398 0.0
C355 C 0.1938 0.67115 0.51406 0.0
C356 C 0.1767 0.65256 0.6176 0.0
H357 H 0.22453 0.65786 0.33419 0.0
H358 H 0.18675 0.70638 0.50504 0.0
S359 S 0.19134 0.53343 0.68539 0.0
N360 N 0.2146 0.53442 0.54797 0.0
N361 N 0.17358 0.5859 0.72821 0.0
C362 C 0.18694 0.60692 0.62989 0.0
C363 C 0.2089 0.57902 0.53244 0.0
C364 C 0.14249 0.74828 0.09093 0.0
C365 C 0.14975 0.73912 0.19905 0.0
C366 C 0.16178 0.77925 0.02237 0.0
C367 C 0.18776 0.80244 0.06314 0.0
H368 H 0.1182 0.73743 0.0682 0.0
H369 H 0.15074 0.79124 0.95159 0.0
S370 S 0.23005 0.77096 0.30303 0.0
N371 N 0.19416 0.74189 0.31744 0.0
N372 N 0.23163 0.79807 0.18389 0.0
C373 C 0.2026 0.78294 0.14957 0.0
C374 C 0.1824 0.75256 0.22161 0.0
C375 C 0.72176 0.15074 0.30204 0.0
C376 C 0.74202 0.11033 0.24605 0.0
C377 C 0.69165 0.17057 0.26426 0.0
C378 C 0.6809 0.15013 0.17034 0.0
H379 H 0.72637 0.16397 0.38346 0.0
H380 H 0.67383 0.19836 0.31798 0.0
S381 S 0.73019 0.04956 0.98093 0.0
N382 N 0.75386 0.05535 0.08059 0.0
N383 N 0.69675 0.09193 1.01058 0.0
C384 C 0.70439 0.11364 0.10374 0.0
C385 C 0.73517 0.0937 0.14179 0.0
C386 C 0.43906 0.66792 0.28743 0.0
C387 C 0.45973 0.70162 0.23376 0.0
C388 C 0.43723 0.62811 0.22331 0.0
C389 C 0.45326 0.62264 0.1027 0.0
H390 H 0.42948 0.66912 0.38179 0.0
H391 H 0.42706 0.59987 0.27015 0.0
S392 S 0.49499 0.70903 0.91537 0.0
N393 N 0.48676 0.73212 0.04957 0.0
N394 N 0.47929 0.65949 0.92863 0.0
C395 C 0.46581 0.66027 0.04576 0.0
C396 C 0.46965 0.69977 0.11138 0.0
C397 C 0.83149 0.42666 0.31641 0.0
C398 C 0.81969 0.40897 0.42541 0.0
C399 C 0.85121 0.3989 0.21874 0.0
C400 C 0.86121 0.35305 0.22933 0.0
H401 H 0.82834 0.46267 0.30894 0.0
H402 H 0.86394 0.41502 0.14125 0.0
S403 S 0.82082 0.28853 0.47932 0.0
N404 N 0.80739 0.3417 0.52776 0.0
N405 N 0.84562 0.28905 0.34302 0.0
C406 C 0.84263 0.33395 0.33054 0.0
C407 C 0.82238 0.36227 0.43045 0.0
C408 C 0.05381 0.19763 0.17107 0.0
C409 C 1.02 0.226 0.20076 0.0
C410 C 0.05793 0.15677 0.10161 0.0
C411 C 1.02873 0.14306 0.05678 0.0
H412 H 0.07641 0.20547 0.20809 0.0
H413 H 0.08379 0.13492 0.08619 0.0
S414 S 0.93453 0.20431 0.10937 0.0
N415 N 0.95697 0.237 0.17674 0.0
N416 N 0.96498 0.16095 0.04795 0.0
C417 C 0.99547 0.17188 0.08137 0.0
C418 C 0.99111 0.21311 0.15246 0.0
C419 C 0.35555 0.9778 0.08567 0.0
C420 C 0.33893 1.00258 0.19344 0.0
C421 C 0.39141 0.98396 1.019 0.0
C422 C 0.41279 0.0152 0.05649 0.0
H423 H 0.34182 0.95088 0.05688 0.0
H424 H 0.40315 0.96233 0.93997 0.0
S425 S 0.38143 0.09047 0.32951 0.0
N426 N 0.34626 0.06103 0.33159 0.0
N427 N 0.41292 0.07335 0.20695 0.0
C428 C 0.39551 0.04221 0.16059 0.0
C429 C 0.35895 0.03572 0.22863 0.0
C430 C 0.55323 0.34782 0.22813 0.0
C431 C 0.52229 0.32606 0.28143 0.0
C432 C 0.54968 0.38658 0.16828 0.0
C433 C 0.51569 0.40355 0.14657 0.0
H434 H 0.58017 0.3374 0.24331 0.0
H435 H 0.57437 0.40296 0.13675 0.0
S436 S 0.42692 0.35448 0.24674 0.0
N437 N 0.4564 0.32312 0.30232 0.0
N438 N 0.45093 0.39144 0.17092 0.0
C439 C 0.48505 0.37938 0.18808 0.0
C440 C 0.4881 0.34161 0.25853 0.0
C441 C 0.17908 0.54542 0.0398 0.0
C442 C 0.19437 0.50964 0.09333 0.0
C443 C 0.14833 0.54165 0.9925 0.0
C444 C 0.13132 0.50167 0.99462 0.0
H445 H 0.19007 0.57754 0.03875 0.0
H446 H 0.13697 0.57116 0.95801 0.0
S447 S 0.16157 0.39688 0.11954 0.0
N448 N 0.19065 0.43225 0.14223 0.0
N449 N 0.13376 0.42444 0.05092 0.0
C450 C 0.14745 0.4648 0.04301 0.0
C451 C 0.17872 0.46887 0.09226 0.0
C452 C 1.02741 0.82682 0.59329 0.0
C453 C 0.06083 0.79803 0.57245 0.0
C454 C 1.02056 0.86567 0.67148 0.0
C455 C 0.04672 0.87742 0.73297 0.0
H456 H 1.00721 0.82063 0.54432 0.0
H457 H 0.99497 0.88747 0.68054 0.0
S458 S 0.13707 0.81033 0.71842 0.0
N459 N 0.11907 0.78214 0.62714 0.0
N460 N 0.10636 0.85423 0.77297 0.0
C461 C 0.07935 0.8474 0.71746 0.0
C462 C 0.08632 0.80809 0.63781 0.0
C463 C 0.70561 0.97771 0.57606 0.0
C464 C 0.72154 0.01826 0.58199 0.0
C465 C 0.6701 0.97198 0.64803 0.0
C466 C 0.64869 1.00649 0.72968 0.0
H467 H 0.71941 0.95141 0.50932 0.0
H468 H 0.65865 0.94083 0.63602 0.0
S469 S 0.67627 0.1204 0.77215 0.0
N470 N 0.71218 0.09375 0.67449 0.0
N471 N 0.64631 0.08337 0.80737 0.0
C472 C 0.66489 0.04659 0.7387 0.0
C473 C 0.7009 0.05229 0.66595 0.0
C474 C 0.49175 0.67694 0.61054 0.0
C475 C 0.52274 0.69694 0.5496 0.0
C476 C 0.49539 0.63972 0.67501 0.0
C477 C 0.52963 0.62307 0.69512 0.0
H478 H 0.4643 0.68778 0.59988 0.0
H479 H 0.47048 0.62444 0.71199 0.0
S480 S 0.61838 0.6711 0.58481 0.0
N481 N 0.5888 0.70055 0.52546 0.0
N482 N 0.59451 0.63542 0.66643 0.0
C483 C 0.56037 0.64641 0.64838 0.0
C484 C 0.55717 0.68245 0.57264 0.0
C485 C 0.86709 0.46416 0.80419 0.0
C486 C 0.85372 0.49799 0.74039 0.0
C487 C 0.89759 0.46879 0.853 0.0
C488 C 0.91666 0.50725 0.83893 0.0
H489 H 0.85439 0.43317 0.81401 0.0
H490 H 0.9072 0.44111 0.89785 0.0
S491 S 0.892 0.60664 0.68403 0.0
N492 N 0.86146 0.57201 0.66996 0.0
N493 N 0.9182 0.58101 0.7608 0.0
C494 C 0.90271 0.54199 0.77878 0.0
C495 C 0.87149 0.53735 0.73004 0.0
loop_
_geom_bond_atom_site_label_1
_geom_bond_atom_site_label_2
_geom_bond_distance
_geom_bond_site_symmetry_2
_ccdc_geom_bond_type
H0 C3 0.931 . S
H1 C6 0.928 . S
H2 C8 0.930 . S
C3 H0 0.931 . S
C3 C4 1.413 . S
C3 C5 1.360 . S
C4 C3 1.413 . S
C4 C8 1.429 . S
C5 C3 1.360 . S
C5 C6 1.372 . S
C6 H1 0.928 . S
C6 C5 1.372 . S
C6 C7 1.404 . S
C7 C6 1.404 . S
C7 C8 1.391 . S
C8 H2 0.930 . S
C8 C4 1.429 . S
C8 C7 1.391 . S
H9 C12 0.932 . S
H10 C15 0.928 . S
H11 C17 0.928 . S
C12 H9 0.932 . S
C12 C13 1.413 . S
C12 C14 1.360 . S
C13 C12 1.413 . S
C13 C17 1.431 1_655 S
C14 C12 1.360 . S
C14 C15 1.376 . S
C15 H10 0.928 . S
C15 C14 1.376 . S
C15 C16 1.405 . S
C16 C15 1.405 . S
C16 C17 1.387 1_655 S
C17 H11 0.928 . S
C17 C13 1.431 1_455 S
C17 C16 1.387 1_455 S
H18 C21 0.930 . S
H19 C24 0.928 . S
H20 C26 0.930 . S
C21 H18 0.930 . S
C21 C22 1.413 . S
C21 C23 1.360 . S
C22 C21 1.413 . S
C22 C26 1.427 1_565 S
C23 C21 1.360 . S
C23 C24 1.370 . S
C24 H19 0.928 . S
C24 C23 1.370 . S
C24 C25 1.405 . S
C25 C24 1.405 . S
C25 C26 1.393 1_565 S
C26 H20 0.930 . S
C26 C22 1.427 1_545 S
C26 C25 1.393 1_545 S
H27 C30 0.931 . S
H28 C33 0.928 . S
H29 C35 0.930 . S
C30 H27 0.931 . S
C30 C31 1.413 . S
C30 C32 1.360 . S
C31 C30 1.413 . S
C31 C35 1.429 . S
C32 C30 1.360 . S
C32 C33 1.372 . S
C33 H28 0.928 . S
C33 C32 1.372 . S
C33 C34 1.404 . S
C34 C33 1.404 . S
C34 C35 1.391 . S
C35 H29 0.930 . S
C35 C31 1.429 . S
C35 C34 1.391 . S
H36 C39 0.931 . S
H37 C42 0.928 . S
H38 C44 0.930 . S
C39 H36 0.931 . S
C39 C40 1.413 . S
C39 C41 1.360 1_556 S
C40 C39 1.413 . S
C40 C44 1.429 . S
C41 C39 1.360 1_554 S
C41 C42 1.372 . S
C42 H37 0.928 . S
C42 C41 1.372 . S
C42 C43 1.404 . S
C43 C42 1.404 . S
C43 C44 1.391 1_554 S
C44 H38 0.930 . S
C44 C40 1.429 . S
C44 C43 1.391 1_556 S
H45 C48 0.930 . S
H46 C51 0.928 . S
H47 C53 0.930 . S
C48 H45 0.930 . S
C48 C49 1.414 . S
C48 C50 1.360 . S
C49 C48 1.414 . S
C49 C53 1.427 1_655 S
C50 C48 1.360 . S
C50 C51 1.370 . S
C51 H46 0.928 . S
C51 C50 1.370 . S
C51 C52 1.404 . S
C52 C51 1.404 . S
C52 C53 1.394 1_655 S
C53 H47 0.930 . S
C53 C49 1.427 1_455 S
C53 C52 1.394 1_455 S
H54 C57 0.931 . S
H55 C60 0.928 . S
H56 C62 0.930 . S
C57 H54 0.931 . S
C57 C58 1.413 . S
C57 C59 1.360 . S
C58 C57 1.413 . S
C58 C62 1.431 1_565 S
C59 C57 1.360 . S
C59 C60 1.374 . S
C60 H55 0.928 . S
C60 C59 1.374 . S
C60 C61 1.404 . S
C61 C60 1.404 . S
C61 C62 1.388 1_565 S
C62 H56 0.930 . S
C62 C58 1.431 1_545 S
C62 C61 1.388 1_545 S
H63 C66 0.931 . S
H64 C69 0.928 . S
H65 C71 0.930 . S
C66 H63 0.931 . S
C66 C67 1.413 . S
C66 C68 1.360 . S
C67 C66 1.413 . S
C67 C71 1.429 . S
C68 C66 1.360 . S
C68 C69 1.372 . S
C69 H64 0.928 . S
C69 C68 1.372 . S
C69 C70 1.404 . S
C70 C69 1.404 . S
C70 C71 1.391 . S
C71 H65 0.930 . S
C71 C67 1.429 . S
C71 C70 1.391 . S
Dy72 O75 2.307 1_545 S
Dy72 O77 2.395 . S
Dy72 O78 2.379 . S
Dy72 O80 2.339 . S
Dy72 O82 2.298 . S
Dy72 O86 2.275 1_655 S
Dy72 C94 2.738 . S
Dy73 O76 2.298 1_554 S
Dy73 O79 2.275 1_454 S
Dy73 O81 2.307 1_565 S
Dy73 O83 2.398 . S
Dy73 O84 2.379 . S
Dy73 O87 2.339 1_554 S
Dy73 C103 2.738 . S
C74 O86 1.254 1_565 S
C74 O87 1.257 . S
O75 Dy72 2.307 1_565 S
O75 C85 1.266 . S
O76 Dy73 2.298 1_556 S
O76 C85 1.236 1_455 S
O77 Dy72 2.395 . S
O77 C94 1.255 . S
O78 Dy72 2.379 . S
O78 C94 1.249 . S
O79 Dy73 2.275 1_656 S
O79 C95 1.254 1_565 S
O80 Dy72 2.339 . S
O80 C95 1.257 . S
O81 Dy73 2.307 1_545 S
O81 C96 1.266 1_554 S
O82 Dy72 2.298 . S
O82 C96 1.236 1_655 S
O83 Dy73 2.398 . S
O83 C103 1.262 . S
O84 Dy73 2.379 . S
O84 C103 1.249 . S
C85 O75 1.266 . S
C85 O76 1.236 1_655 S
O86 Dy72 2.275 1_455 S
O86 C74 1.254 1_545 S
O87 Dy73 2.339 1_556 S
O87 C74 1.257 . S
C88 C91 1.344 . S
C88 C92 1.328 . S
C88 C94 1.516 . S
C89 C90 1.304 . S
C89 C93 1.323 . S
C90 C89 1.304 . S
C90 C91 1.371 . S
C90 H104 0.930 1_655 S
C91 C88 1.344 . S
C91 C90 1.371 . S
C91 H105 0.931 1_655 S
C92 C88 1.328 . S
C92 C93 1.433 . S
C92 H106 0.931 . S
C93 C89 1.323 . S
C93 C92 1.433 . S
C93 H107 0.933 . S
C94 Dy72 2.738 . S
C94 O77 1.255 . S
C94 O78 1.249 . S
C94 C88 1.516 . S
C95 O79 1.254 1_545 S
C95 O80 1.257 . S
C96 O81 1.266 1_556 S
C96 O82 1.236 1_455 S
C97 C100 1.344 . S
C97 C101 1.328 . S
C97 C103 1.516 . S
C98 C99 1.304 . S
C98 C102 1.323 . S
C99 C98 1.304 . S
C99 C100 1.371 . S
C99 H108 0.930 1_455 S
C100 C97 1.344 . S
C100 C99 1.371 . S
C100 H109 0.931 1_455 S
C101 C97 1.328 . S
C101 C102 1.433 . S
C101 H110 0.931 . S
C102 C98 1.323 . S
C102 C101 1.433 . S
C102 H111 0.933 . S
C103 Dy73 2.738 . S
C103 O83 1.262 . S
C103 O84 1.249 . S
C103 C97 1.516 . S
H104 C90 0.930 1_455 S
H105 C91 0.931 1_455 S
H106 C92 0.931 . S
H107 C93 0.933 . S
H108 C99 0.930 1_655 S
H109 C100 0.931 1_655 S
H110 C101 0.931 . S
H111 C102 0.933 . S
Dy112 O115 2.307 . S
Dy112 O117 2.395 . S
Dy112 O118 2.379 . S
Dy112 O120 2.339 . S
Dy112 O122 2.298 . S
Dy112 O126 2.275 1_565 S
Dy112 C134 2.738 . S
Dy113 O116 2.298 1_554 S
Dy113 O119 2.275 1_544 S
Dy113 O121 2.307 . S
Dy113 O123 2.395 . S
Dy113 O124 2.379 . S
Dy113 O127 2.339 1_554 S
Dy113 C143 2.738 . S
C114 O126 1.254 . S
C114 O127 1.257 . S
O115 Dy112 2.307 . S
O115 C125 1.266 . S
O116 Dy113 2.298 1_556 S
O116 C125 1.236 1_545 S
O117 Dy112 2.395 . S
O117 C134 1.255 . S
O118 Dy112 2.379 . S
O118 C134 1.249 . S
O119 Dy113 2.275 1_566 S
O119 C135 1.254 . S
O120 Dy112 2.339 . S
O120 C135 1.257 . S
O121 Dy113 2.307 . S
O121 C136 1.266 1_554 S
O122 Dy112 2.298 . S
O122 C136 1.236 1_565 S
O123 Dy113 2.395 . S
O123 C143 1.255 . S
O124 Dy113 2.379 . S
O124 C143 1.249 . S
C125 O115 1.266 . S
C125 O116 1.236 1_565 S
O126 Dy112 2.275 1_545 S
O126 C114 1.254 . S
O127 Dy113 2.339 1_556 S
O127 C114 1.257 . S
C128 C131 1.344 . S
C128 C132 1.328 . S
C128 C134 1.516 . S
C129 C130 1.304 . S
C129 C133 1.323 . S
C130 C129 1.304 . S
C130 C131 1.371 . S
C130 H144 0.930 1_565 S
C131 C128 1.344 . S
C131 C130 1.371 . S
C131 H145 0.931 1_565 S
C132 C128 1.328 . S
C132 C133 1.433 . S
C132 H146 0.931 . S
C133 C129 1.323 . S
C133 C132 1.433 . S
C133 H147 0.933 . S
C134 Dy112 2.738 . S
C134 O117 1.255 . S
C134 O118 1.249 . S
C134 C128 1.516 . S
C135 O119 1.254 . S
C135 O120 1.257 . S
C136 O121 1.266 1_556 S
C136 O122 1.236 1_545 S
C137 C140 1.344 . S
C137 C141 1.328 . S
C137 C143 1.516 . S
C138 C139 1.304 . S
C138 C142 1.323 . S
C139 C138 1.304 . S
C139 C140 1.371 . S
C139 H148 0.930 1_545 S
C140 C137 1.344 . S
C140 C139 1.371 . S
C140 H149 0.931 1_545 S
C141 C137 1.328 . S
C141 C142 1.433 . S
C141 H150 0.931 . S
C142 C138 1.323 . S
C142 C141 1.433 . S
C142 H151 0.933 . S
C143 Dy113 2.738 . S
C143 O123 1.255 . S
C143 O124 1.249 . S
C143 C137 1.516 . S
H144 C130 0.930 1_545 S
H145 C131 0.931 1_545 S
H146 C132 0.931 . S
H147 C133 0.933 . S
H148 C139 0.930 1_565 S
H149 C140 0.931 1_565 S
H150 C141 0.931 . S
H151 C142 0.933 . S
Dy152 O155 2.307 . S
Dy152 O157 2.395 1_556 S
Dy152 O158 2.379 . S
Dy152 O160 2.339 . S
Dy152 O162 2.298 . S
Dy152 O166 2.275 . S
Dy152 C174 2.738 1_556 S
Dy153 O156 2.298 . S
Dy153 O159 2.275 . S
Dy153 O161 2.307 1_556 S
Dy153 O163 2.395 . S
Dy153 O164 2.379 . S
Dy153 O167 2.339 1_556 S
Dy153 C183 2.738 . S
C154 O166 1.254 1_554 S
C154 O167 1.257 . S
O155 Dy152 2.307 . S
O155 C165 1.266 . S
O156 Dy153 2.298 . S
O156 C165 1.236 . S
O157 Dy152 2.395 1_554 S
O157 C174 1.255 . S
O158 Dy152 2.379 . S
O158 C174 1.249 1_556 S
O159 Dy153 2.275 . S
O159 C175 1.254 . S
O160 Dy152 2.339 . S
O160 C175 1.257 . S
O161 Dy153 2.307 1_554 S
O161 C176 1.266 . S
O162 Dy152 2.298 . S
O162 C176 1.236 1_556 S
O163 Dy153 2.395 . S
O163 C183 1.255 . S
O164 Dy153 2.379 . S
O164 C183 1.249 . S
C165 O155 1.266 . S
C165 O156 1.236 . S
O166 Dy152 2.275 . S
O166 C154 1.254 1_556 S
O167 Dy153 2.339 1_554 S
O167 C154 1.257 . S
C168 C171 1.344 . S
C168 C172 1.328 . S
C168 C174 1.516 . S
C169 C170 1.304 . S
C169 C173 1.323 . S
C170 C169 1.304 . S
C170 C171 1.371 . S
C170 H184 0.930 . S
C171 C168 1.344 . S
C171 C170 1.371 . S
C171 H185 0.931 . S
C172 C168 1.328 . S
C172 C173 1.433 . S
C172 H186 0.931 1_554 S
C173 C169 1.323 . S
C173 C172 1.433 . S
C173 H187 0.933 . S
C174 Dy152 2.738 1_554 S
C174 O157 1.255 . S
C174 O158 1.249 1_554 S
C174 C168 1.516 . S
C175 O159 1.254 . S
C175 O160 1.257 . S
C176 O161 1.266 . S
C176 O162 1.236 1_554 S
C177 C180 1.344 . S
C177 C181 1.328 . S
C177 C183 1.516 . S
C178 C179 1.304 . S
C178 C182 1.323 . S
C179 C178 1.304 . S
C179 C180 1.371 . S
C179 H188 0.930 . S
C180 C177 1.344 . S
C180 C179 1.371 . S
C180 H189 0.931 . S
C181 C177 1.328 . S
C181 C182 1.433 . S
C181 H190 0.931 . S
C182 C178 1.323 . S
C182 C181 1.433 . S
C182 H191 0.933 . S
C183 Dy153 2.738 . S
C183 O163 1.255 . S
C183 O164 1.249 . S
C183 C177 1.516 . S
H184 C170 0.930 . S
H185 C171 0.931 . S
H186 C172 0.931 1_556 S
H187 C173 0.933 . S
H188 C179 0.930 . S
H189 C180 0.931 . S
H190 C181 0.931 . S
H191 C182 0.933 . S
Dy192 O195 2.307 1_455 S
Dy192 O197 2.395 . S
Dy192 O198 2.379 . S
Dy192 O200 2.339 . S
Dy192 O202 2.298 . S
Dy192 O206 2.275 . S
Dy192 C214 2.738 . S
Dy193 O196 2.293 1_554 S
Dy193 O199 2.275 . S
Dy193 O201 2.307 1_654 S
Dy193 O203 2.400 . S
Dy193 O204 2.381 . S
Dy193 O207 2.333 1_554 S
Dy193 C223 2.742 . S
C194 O206 1.254 1_655 S
C194 O207 1.257 . S
O195 Dy192 2.307 1_655 S
O195 C205 1.266 . S
O196 Dy193 2.293 1_556 S
O196 C205 1.236 . S
O197 Dy192 2.395 . S
O197 C214 1.255 . S
O198 Dy192 2.379 . S
O198 C214 1.249 . S
O199 Dy193 2.275 . S
O199 C215 1.254 1_655 S
O200 Dy192 2.339 . S
O200 C215 1.257 1_556 S
O201 Dy193 2.307 1_456 S
O201 C216 1.266 . S
O202 Dy192 2.298 . S
O202 C216 1.236 . S
O203 Dy193 2.400 . S
O203 C223 1.255 . S
O204 Dy193 2.381 . S
O204 C223 1.249 . S
C205 O195 1.266 . S
C205 O196 1.236 . S
O206 Dy192 2.275 . S
O206 C194 1.254 1_455 S
O207 Dy193 2.333 1_556 S
O207 C194 1.257 . S
C208 C211 1.344 . S
C208 C212 1.328 . S
C208 C214 1.516 . S
C209 C210 1.304 . S
C209 C213 1.323 . S
C210 C209 1.304 . S
C210 C211 1.371 . S
C210 H224 0.930 . S
C211 C208 1.344 . S
C211 C210 1.371 . S
C211 H225 0.931 . S
C212 C208 1.328 . S
C212 C213 1.433 . S
C212 H226 0.931 . S
C213 C209 1.323 . S
C213 C212 1.433 . S
C213 H227 0.933 . S
C214 Dy192 2.738 . S
C214 O197 1.255 . S
C214 O198 1.249 . S
C214 C208 1.516 . S
C215 O199 1.254 1_455 S
C215 O200 1.257 1_554 S
C216 O201 1.266 . S
C216 O202 1.236 . S
C217 C220 1.344 . S
C217 C221 1.328 . S
C217 C223 1.516 . S
C218 C219 1.304 . S
C218 C222 1.323 . S
C219 C218 1.304 . S
C219 C220 1.371 . S
C219 H228 0.930 . S
C220 C217 1.344 . S
C220 C219 1.371 . S
C220 H229 0.931 . S
C221 C217 1.328 . S
C221 C222 1.433 . S
C221 H230 0.931 . S
C222 C218 1.323 . S
C222 C221 1.433 . S
C222 H231 0.933 . S
C223 Dy193 2.742 . S
C223 O203 1.255 . S
C223 O204 1.249 . S
C223 C217 1.516 . S
H224 C210 0.930 . S
H225 C211 0.931 . S
H226 C212 0.931 . S
H227 C213 0.933 . S
H228 C219 0.930 . S
H229 C220 0.931 . S
H230 C221 0.931 . S
H231 C222 0.933 . S
C232 C233 1.371 . S
C232 C234 1.419 . S
C232 H236 0.930 . S
C233 C232 1.371 . S
C233 C242 1.429 . S
C234 C232 1.419 . S
C234 C235 1.363 . S
C234 H237 0.929 . S
C235 C234 1.363 . S
C235 C241 1.429 . S
H236 C232 0.930 . S
H237 C234 0.929 . S
S238 N239 1.613 . S
S238 N240 1.610 . S
N239 S238 1.613 . S
N239 C242 1.350 . S
N240 S238 1.610 . S
N240 C241 1.351 . S
C241 C235 1.429 . S
C241 N240 1.351 . S
C241 C242 1.433 . S
C242 C233 1.429 . S
C242 N239 1.350 . S
C242 C241 1.433 . S
C243 C244 1.369 . S
C243 C245 1.419 . S
C243 H247 0.930 . S
C244 C243 1.369 . S
C244 C253 1.429 . S
C245 C243 1.419 . S
C245 C246 1.363 . S
C245 H248 0.929 . S
C246 C245 1.363 . S
C246 C252 1.428 . S
H247 C243 0.930 . S
H248 C245 0.929 . S
S249 N250 1.613 . S
S249 N251 1.610 . S
N250 S249 1.613 . S
N250 C253 1.350 . S
N251 S249 1.610 . S
N251 C252 1.351 . S
C252 C246 1.428 . S
C252 N251 1.351 . S
C252 C253 1.434 . S
C253 C244 1.429 . S
C253 N250 1.350 . S
C253 C252 1.434 . S
C254 C255 1.369 . S
C254 C256 1.419 . S
C254 H258 0.930 . S
C255 C254 1.369 . S
C255 C264 1.429 . S
C256 C254 1.419 . S
C256 C257 1.363 . S
C256 H259 0.929 . S
C257 C256 1.363 . S
C257 C263 1.428 . S
H258 C254 0.930 . S
H259 C256 0.929 . S
S260 N261 1.613 . S
S260 N262 1.610 . S
N261 S260 1.613 . S
N261 C264 1.350 . S
N262 S260 1.610 . S
N262 C263 1.351 . S
C263 C257 1.428 . S
C263 N262 1.351 . S
C263 C264 1.434 . S
C264 C255 1.429 . S
C264 N261 1.350 . S
C264 C263 1.434 . S
C265 C266 1.374 1_655 S
C265 C267 1.423 . S
C265 H269 0.930 . S
C266 C265 1.374 1_455 S
C266 C275 1.432 . S
C267 C265 1.423 . S
C267 C268 1.361 1_655 S
C267 H270 0.927 . S
C268 C267 1.361 1_455 S
C268 C274 1.428 . S
H269 C265 0.930 . S
H270 C267 0.927 . S
S271 N272 1.613 . S
S271 N273 1.610 . S
N272 S271 1.613 . S
N272 C275 1.350 . S
N273 S271 1.610 . S
N273 C274 1.351 . S
C274 C268 1.428 . S
C274 N273 1.351 . S
C274 C275 1.434 . S
C275 C266 1.432 . S
C275 N272 1.350 . S
C275 C274 1.434 . S
C276 C277 1.370 1_545 S
C276 C278 1.419 . S
C276 H280 0.930 . S
C277 C276 1.370 1_565 S
C277 C286 1.428 . S
C278 C276 1.419 . S
C278 C279 1.377 . S
C278 H281 0.929 . S
C279 C278 1.377 . S
C279 C285 1.411 1_545 S
H280 C276 0.930 . S
H281 C278 0.929 . S
S282 N283 1.613 . S
S282 N284 1.610 . S
N283 S282 1.613 . S
N283 C286 1.350 . S
N284 S282 1.610 . S
N284 C285 1.351 . S
C285 C279 1.411 1_565 S
C285 N284 1.351 . S
C285 C286 1.434 . S
C286 C277 1.428 . S
C286 N283 1.350 . S
C286 C285 1.434 . S
C287 C288 1.369 . S
C287 C289 1.419 . S
C287 H291 0.930 . S
C288 C287 1.369 . S
C288 C297 1.429 . S
C289 C287 1.419 . S
C289 C290 1.363 . S
C289 H292 0.929 1_554 S
C290 C289 1.363 . S
C290 C296 1.428 . S
H291 C287 0.930 . S
H292 C289 0.929 1_556 S
S293 N294 1.613 . S
S293 N295 1.610 . S
N294 S293 1.613 . S
N294 C297 1.350 . S
N295 S293 1.610 . S
N295 C296 1.351 . S
C296 C290 1.428 . S
C296 N295 1.351 . S
C296 C297 1.434 . S
C297 C288 1.429 . S
C297 N294 1.350 . S
C297 C296 1.434 . S
C298 C299 1.369 . S
C298 C300 1.419 . S
C298 H302 0.930 . S
C299 C298 1.369 . S
C299 C308 1.429 . S
C300 C298 1.419 . S
C300 C301 1.363 . S
C300 H303 0.929 . S
C301 C300 1.363 . S
C301 C307 1.428 . S
H302 C298 0.930 . S
H303 C300 0.929 . S
S304 N305 1.613 . S
S304 N306 1.610 . S
N305 S304 1.613 . S
N305 C308 1.350 . S
N306 S304 1.610 . S
N306 C307 1.351 . S
C307 C301 1.428 . S
C307 N306 1.351 . S
C307 C308 1.434 . S
C308 C299 1.429 . S
C308 N305 1.350 . S
C308 C307 1.434 . S
C309 C310 1.360 1_455 S
C309 C311 1.419 . S
C309 H313 0.930 . S
C310 C309 1.360 1_655 S
C310 C319 1.447 . S
C311 C309 1.419 . S
C311 C312 1.363 1_455 S
C311 H314 0.929 . S
C312 C311 1.363 1_655 S
C312 C318 1.428 . S
H313 C309 0.930 . S
H314 C311 0.929 . S
S315 N316 1.613 . S
S315 N317 1.610 . S
N316 S315 1.613 . S
N316 C319 1.350 . S
N317 S315 1.610 . S
N317 C318 1.351 . S
C318 C312 1.428 . S
C318 N317 1.351 . S
C318 C319 1.434 . S
C319 C310 1.447 . S
C319 N316 1.350 . S
C319 C318 1.434 . S
C320 C321 1.369 1_655 S
C320 C322 1.419 . S
C320 H324 0.930 . S
C321 C320 1.369 1_455 S
C321 C330 1.429 . S
C322 C320 1.419 . S
C322 C323 1.363 . S
C322 H325 0.929 . S
C323 C322 1.363 . S
C323 C329 1.428 . S
H324 C320 0.930 . S
H325 C322 0.929 . S
S326 N327 1.613 . S
S326 N328 1.610 . S
N327 S326 1.613 . S
N327 C330 1.350 . S
N328 S326 1.610 . S
N328 C329 1.351 1_455 S
C329 C323 1.428 . S
C329 N328 1.351 1_655 S
C329 C330 1.434 1_655 S
C330 C321 1.429 . S
C330 N327 1.350 . S
C330 C329 1.434 1_455 S
C331 C332 1.369 . S
C331 C333 1.419 . S
C331 H335 0.930 . S
C332 C331 1.369 . S
C332 C341 1.429 1_565 S
C333 C331 1.419 . S
C333 C334 1.363 . S
C333 H336 0.929 . S
C334 C333 1.363 . S
C334 C340 1.428 . S
H335 C331 0.930 . S
H336 C333 0.929 . S
S337 N338 1.613 . S
S337 N339 1.610 . S
N338 S337 1.613 . S
N338 C341 1.350 . S
N339 S337 1.610 . S
N339 C340 1.351 1_545 S
C340 C334 1.428 . S
C340 N339 1.351 1_565 S
C340 C341 1.434 1_565 S
C341 C332 1.429 1_545 S
C341 N338 1.350 . S
C341 C340 1.434 1_545 S
C342 C343 1.369 . S
C342 C344 1.419 . S
C342 H346 0.930 . S
C343 C342 1.369 . S
C343 C352 1.429 . S
C344 C342 1.419 . S
C344 C345 1.363 . S
C344 H347 0.929 . S
C345 C344 1.363 . S
C345 C351 1.428 . S
H346 C342 0.930 . S
H347 C344 0.929 . S
S348 N349 1.613 . S
S348 N350 1.610 . S
N349 S348 1.613 . S
N349 C352 1.350 . S
N350 S348 1.610 . S
N350 C351 1.351 . S
C351 C345 1.428 . S
C351 N350 1.351 . S
C351 C352 1.434 . S
C352 C343 1.429 . S
C352 N349 1.350 . S
C352 C351 1.434 . S
C353 C354 1.369 . S
C353 C355 1.419 . S
C353 H357 0.930 . S
C354 C353 1.369 . S
C354 C363 1.429 . S
C355 C353 1.419 . S
C355 C356 1.363 . S
C355 H358 0.929 . S
C356 C355 1.363 . S
C356 C362 1.428 . S
H357 C353 0.930 . S
H358 C355 0.929 . S
S359 N360 1.613 . S
S359 N361 1.610 . S
N360 S359 1.613 . S
N360 C363 1.350 . S
N361 S359 1.610 . S
N361 C362 1.351 . S
C362 C356 1.428 . S
C362 N361 1.351 . S
C362 C363 1.434 . S
C363 C354 1.429 . S
C363 N360 1.350 . S
C363 C362 1.434 . S
C364 C365 1.369 . S
C364 C366 1.419 1_655 S
C364 H368 0.930 . S
C365 C364 1.369 . S
C365 C374 1.429 1_655 S
C366 C364 1.419 1_455 S
C366 C367 1.363 . S
C366 H369 0.929 . S
C367 C366 1.363 . S
C367 C373 1.428 . S
H368 C364 0.930 . S
H369 C366 0.929 . S
S370 N371 1.613 . S
S370 N372 1.610 . S
N371 S370 1.613 . S
N371 C374 1.350 . S
N372 S370 1.610 . S
N372 C373 1.351 . S
C373 C367 1.428 . S
C373 N372 1.351 . S
C373 C374 1.434 . S
C374 C365 1.429 1_455 S
C374 N371 1.350 . S
C374 C373 1.434 . S
C375 C376 1.369 . S
C375 C377 1.419 . S
C375 H379 0.930 . S
C376 C375 1.369 . S
C376 C385 1.429 1_545 S
C377 C375 1.419 . S
C377 C378 1.363 . S
C377 H380 0.929 . S
C378 C377 1.363 . S
C378 C384 1.428 . S
H379 C375 0.930 . S
H380 C377 0.929 . S
S381 N382 1.613 . S
S381 N383 1.610 . S
N382 S381 1.613 . S
N382 C385 1.350 . S
N383 S381 1.610 . S
N383 C384 1.351 1_565 S
C384 C378 1.428 . S
C384 N383 1.351 1_545 S
C384 C385 1.434 1_545 S
C385 C376 1.429 1_565 S
C385 N382 1.350 . S
C385 C384 1.434 1_565 S
C386 C387 1.369 . S
C386 C388 1.419 . S
C386 H390 0.930 . S
C387 C386 1.369 . S
C387 C396 1.429 . S
C388 C386 1.419 . S
C388 C389 1.363 . S
C388 H391 0.929 . S
C389 C388 1.363 . S
C389 C395 1.428 . S
H390 C386 0.930 . S
H391 C388 0.929 . S
S392 N393 1.613 . S
S392 N394 1.610 . S
N393 S392 1.613 . S
N393 C396 1.350 1_556 S
N394 S392 1.610 . S
N394 C395 1.351 1_556 S
C395 C389 1.428 . S
C395 N394 1.351 1_554 S
C395 C396 1.434 . S
C396 C387 1.429 . S
C396 N393 1.350 1_554 S
C396 C395 1.434 . S
C397 C398 1.369 . S
C397 C399 1.419 . S
C397 H401 0.930 . S
C398 C397 1.369 . S
C398 C407 1.429 . S
C399 C397 1.419 . S
C399 C400 1.363 . S
C399 H402 0.929 . S
C400 C399 1.363 . S
C400 C406 1.428 . S
H401 C397 0.930 . S
H402 C399 0.929 . S
S403 N404 1.613 . S
S403 N405 1.610 . S
N404 S403 1.613 . S
N404 C407 1.350 . S
N405 S403 1.610 . S
N405 C406 1.351 . S
C406 C400 1.428 . S
C406 N405 1.351 . S
C406 C407 1.434 . S
C407 C398 1.429 . S
C407 N404 1.350 . S
C407 C406 1.434 . S
C408 C409 1.369 . S
C408 C410 1.419 . S
C408 H412 0.930 . S
C409 C408 1.369 . S
C409 C418 1.429 1_454 S
C410 C408 1.419 . S
C410 C411 1.363 1_554 S
C410 H413 0.929 . S
C411 C410 1.363 1_556 S
C411 C417 1.428 1_455 S
H412 C408 0.930 . S
H413 C410 0.929 . S
S414 N415 1.613 . S
S414 N416 1.610 . S
N415 S414 1.613 . S
N415 C418 1.350 . S
N416 S414 1.610 . S
N416 C417 1.351 . S
C417 C411 1.428 1_655 S
C417 N416 1.351 . S
C417 C418 1.434 . S
C418 C409 1.429 1_656 S
C418 N415 1.350 . S
C418 C417 1.434 . S
C419 C420 1.369 1_566 S
C419 C421 1.413 1_565 S
C419 H423 0.930 . S
C420 C419 1.369 1_544 S
C420 C429 1.429 . S
C421 C419 1.413 1_545 S
C421 C422 1.371 1_556 S
C421 H424 0.927 1_545 S
C422 C421 1.371 1_554 S
C422 C428 1.428 . S
H423 C419 0.930 . S
H424 C421 0.927 1_565 S
S425 N426 1.613 . S
S425 N427 1.610 . S
N426 S425 1.613 . S
N426 C429 1.350 . S
N427 S425 1.610 . S
N427 C428 1.351 . S
C428 C422 1.428 . S
C428 N427 1.351 . S
C428 C429 1.434 . S
C429 C420 1.429 . S
C429 N426 1.350 . S
C429 C428 1.434 . S
C430 C431 1.369 . S
C430 C432 1.419 . S
C430 H434 0.930 . S
C431 C430 1.369 . S
C431 C440 1.429 . S
C432 C430 1.419 . S
C432 C433 1.363 . S
C432 H435 0.929 . S
C433 C432 1.363 . S
C433 C439 1.428 . S
H434 C430 0.930 . S
H435 C432 0.929 . S
S436 N437 1.613 . S
S436 N438 1.610 . S
N437 S436 1.613 . S
N437 C440 1.350 . S
N438 S436 1.610 . S
N438 C439 1.351 . S
C439 C433 1.428 . S
C439 N438 1.351 . S
C439 C440 1.434 . S
C440 C431 1.429 . S
C440 N437 1.350 . S
C440 C439 1.434 . S
C441 C442 1.369 . S
C441 C443 1.419 . S
C441 H445 0.930 . S
C442 C441 1.369 . S
C442 C451 1.429 . S
C443 C441 1.419 . S
C443 C444 1.363 . S
C443 H446 0.929 . S
C444 C443 1.363 . S
C444 C450 1.428 . S
H445 C441 0.930 . S
H446 C443 0.929 . S
S447 N448 1.613 . S
S447 N449 1.610 . S
N448 S447 1.613 . S
N448 C451 1.350 . S
N449 S447 1.610 . S
N449 C450 1.351 . S
C450 C444 1.428 . S
C450 N449 1.351 . S
C450 C451 1.434 . S
C451 C442 1.429 . S
C451 N448 1.350 . S
C451 C450 1.434 . S
C452 C453 1.369 . S
C452 C454 1.419 . S
C452 H456 0.930 . S
C453 C452 1.369 . S
C453 C462 1.429 1_655 S
C454 C452 1.419 . S
C454 C455 1.363 . S
C454 H457 0.929 . S
C455 C454 1.363 . S
C455 C461 1.428 1_655 S
H456 C452 0.930 . S
H457 C454 0.929 . S
S458 N459 1.613 . S
S458 N460 1.610 . S
N459 S458 1.613 . S
N459 C462 1.350 . S
N460 S458 1.610 . S
N460 C461 1.351 . S
C461 C455 1.428 1_455 S
C461 N460 1.351 . S
C461 C462 1.434 . S
C462 C453 1.429 1_455 S
C462 N459 1.350 . S
C462 C461 1.434 . S
C463 C464 1.369 . S
C463 C465 1.419 . S
C463 H467 0.930 . S
C464 C463 1.369 . S
C464 C473 1.429 . S
C465 C463 1.419 . S
C465 C466 1.363 . S
C465 H468 0.929 . S
C466 C465 1.363 . S
C466 C472 1.428 . S
H467 C463 0.930 . S
H468 C465 0.929 . S
S469 N470 1.619 . S
S469 N471 1.616 . S
N470 S469 1.619 . S
N470 C473 1.350 . S
N471 S469 1.616 . S
N471 C472 1.351 . S
C472 C466 1.428 . S
C472 N471 1.351 . S
C472 C473 1.434 . S
C473 C464 1.429 . S
C473 N470 1.350 . S
C473 C472 1.434 . S
C474 C475 1.369 . S
C474 C476 1.419 . S
C474 H478 0.930 . S
C475 C474 1.369 . S
C475 C484 1.429 . S
C476 C474 1.419 . S
C476 C477 1.363 . S
C476 H479 0.929 . S
C477 C476 1.363 . S
C477 C483 1.428 . S
H478 C474 0.930 . S
H479 C476 0.929 . S
S480 N481 1.613 . S
S480 N482 1.610 . S
N481 S480 1.613 . S
N481 C484 1.350 . S
N482 S480 1.610 . S
N482 C483 1.351 . S
C483 C477 1.428 . S
C483 N482 1.351 . S
C483 C484 1.434 . S
C484 C475 1.429 . S
C484 N481 1.350 . S
C484 C483 1.434 . S
C485 C486 1.369 . S
C485 C487 1.419 . S
C485 H489 0.930 . S
C486 C485 1.369 . S
C486 C495 1.429 . S
C487 C485 1.419 . S
C487 C488 1.363 . S
C487 H490 0.929 . S
C488 C487 1.363 . S
C488 C494 1.428 . S
H489 C485 0.930 . S
H490 C487 0.929 . S
S491 N492 1.613 . S
S491 N493 1.610 . S
N492 S491 1.613 . S
N492 C495 1.350 . S
N493 S491 1.610 . S
N493 C494 1.351 . S
C494 C488 1.428 . S
C494 N493 1.351 . S
C494 C495 1.434 . S
C495 C486 1.429 . S
C495 N492 1.350 . S
C495 C494 1.434 . S
C233 C61 2.063 . S
C235 C74 2.187 . S
C246 C114 2.050 . S
C244 C70 1.985 . S
C257 C178 2.127 . S
C255 C43 1.999 . S
C268 C194 1.983 1_455 S
C266 C52 1.663 1_455 S
C279 C95 2.194 1_554 S
C277 C25 2.071 . S
C288 C34 1.989 . S
C290 C135 2.051 1_554 S
C299 C7 1.997 . S
C301 C169 2.130 . S
C310 C16 1.681 . S
C312 C215 1.977 1_655 S
C323 C89 0.697 . S
C321 C50 0.695 1_455 S
C334 C129 0.877 . S
C332 C59 0.915 . S
C345 C165 0.901 . S
C343 C67 0.931 . S
C354 C41 1.077 . S
C356 C209 0.976 . S
C365 C14 0.686 . S
C367 C98 0.709 . S
C378 C138 0.877 . S
C376 C23 0.919 1_545 S
C389 C176 0.903 . S
C387 C31 0.927 . S
C398 C5 1.081 . S
C400 C218 0.993 . S
C409 C49 1.929 1_455 S
C411 C96 2.234 . S
C420 C58 2.018 1_545 S
C422 C136 2.279 1_554 S
C433 C154 1.851 . S
C431 C68 1.793 . S
C444 C216 2.580 . S
C442 C40 2.237 . S
C453 C13 1.924 . S
C455 C85 2.239 . S
C466 C125 2.278 . S
C464 C22 2.029 . S
C477 C175 1.856 . S
C475 C32 1.782 . S
C486 C4 2.236 . S
C488 C205 2.584 . S
