# Generated by pormake.
# Topology ssa, (4,4)-cn, num edge types: 1
# Building blocks:
#     Node 0, Type 0, BuildingBlock: KOZSID_clean_sbu_0, # of connection points: 4
#     Node 1, Type 0, BuildingBlock: KOZSID_clean_sbu_0, # of connection points: 4
#     Node 2, Type 0, BuildingBlock: KOZSID_clean_sbu_0, # of connection points: 4
#     Node 3, Type 0, BuildingBlock: KOZSID_clean_sbu_0, # of connection points: 4
#     Node 4, Type 0, BuildingBlock: KOZSID_clean_sbu_0, # of connection points: 4
#     Node 5, Type 0, BuildingBlock: KOZSID_clean_sbu_0, # of connection points: 4
#     Node 6, Type 1, BuildingBlock: NAWXER_clean_linker_0, # of connection points: 4
#     Node 7, Type 1, BuildingBlock: NAWXER_clean_linker_0, # of connection points: 4
#     Node 8, Type 1, BuildingBlock: NAWXER_clean_linker_0, # of connection points: 4
#     Node 9, Type 1, BuildingBlock: NAWXER_clean_linker_0, # of connection points: 4
#     Node 10, Type 1, BuildingBlock: NAWXER_clean_linker_0, # of connection points: 4
#     Node 11, Type 1, BuildingBlock: NAWXER_clean_linker_0, # of connection points: 4
#     Edge 12, Type (0, 1), BuildingBlock: AJUNOK_clean_linker_0, # of connection points: 2
#     Edge 13, Type (0, 1), BuildingBlock: AJUNOK_clean_linker_0, # of connection points: 2
#     Edge 14, Type (0, 1), BuildingBlock: AJUNOK_clean_linker_0, # of connection points: 2
#     Edge 15, Type (0, 1), BuildingBlock: AJUNOK_clean_linker_0, # of connection points: 2
#     Edge 16, Type (0, 1), BuildingBlock: AJUNOK_clean_linker_0, # of connection points: 2
#     Edge 17, Type (0, 1), BuildingBlock: AJUNOK_clean_linker_0, # of connection points: 2
#     Edge 18, Type (0, 1), BuildingBlock: AJUNOK_clean_linker_0, # of connection points: 2
#     Edge 19, Type (0, 1), BuildingBlock: AJUNOK_clean_linker_0, # of connection points: 2
#     Edge 20, Type (0, 1), BuildingBlock: AJUNOK_clean_linker_0, # of connection points: 2
#     Edge 21, Type (0, 1), BuildingBlock: AJUNOK_clean_linker_0, # of connection points: 2
#     Edge 22, Type (0, 1), BuildingBlock: AJUNOK_clean_linker_0, # of connection points: 2
#     Edge 23, Type (0, 1), BuildingBlock: AJUNOK_clean_linker_0, # of connection points: 2
#     Edge 24, Type (0, 1), BuildingBlock: AJUNOK_clean_linker_0, # of connection points: 2
#     Edge 25, Type (0, 1), BuildingBlock: AJUNOK_clean_linker_0, # of connection points: 2
#     Edge 26, Type (0, 1), BuildingBlock: AJUNOK_clean_linker_0, # of connection points: 2
#     Edge 27, Type (0, 1), BuildingBlock: AJUNOK_clean_linker_0, # of connection points: 2
#     Edge 28, Type (0, 1), BuildingBlock: AJUNOK_clean_linker_0, # of connection points: 2
#     Edge 29, Type (0, 1), BuildingBlock: AJUNOK_clean_linker_0, # of connection points: 2
#     Edge 30, Type (0, 1), BuildingBlock: AJUNOK_clean_linker_0, # of connection points: 2
#     Edge 31, Type (0, 1), BuildingBlock: AJUNOK_clean_linker_0, # of connection points: 2
#     Edge 32, Type (0, 1), BuildingBlock: AJUNOK_clean_linker_0, # of connection points: 2
#     Edge 33, Type (0, 1), BuildingBlock: AJUNOK_clean_linker_0, # of connection points: 2
#     Edge 34, Type (0, 1), BuildingBlock: AJUNOK_clean_linker_0, # of connection points: 2
#     Edge 35, Type (0, 1), BuildingBlock: AJUNOK_clean_linker_0, # of connection points: 2
# Relax obj value: 0.007
# Max RMSD: 0.025
# Mean RMSD: 0.013
data_MOF--net-ssa--node1-KOZSID_clean_sbu_0--node2-NAWXER_clean_linker_0--edge1-AJUNOK_clean_linker_0
_symmetry_space_group_name_H-M    P1
_symmetry_Int_Tables_number       1
_symmetry_cell_setting            triclinic
loop_
_symmetry_equiv_pos_as_xyz
'x, y, z'
_cell_length_a     50.327685
_cell_length_b     51.693305
_cell_length_c     35.838625
_cell_angle_alpha  87.099678
_cell_angle_beta   89.978894
_cell_angle_gamma 122.80403
loop_
_atom_site_label
_atom_site_type_symbol
_atom_site_fract_x
_atom_site_fract_y
_atom_site_fract_z
_atom_type_partial_charge
C0 C 0.94875 0.51392 0.99597 0.0
C1 C 0.92212 0.50805 0.01575 0.0
C2 C 0.91898 0.49032 0.04706 0.0
C3 C 0.9439 0.48662 0.04478 0.0
N4 N 0.96308 0.50134 0.01419 0.0
Co5 Co 0.00208 0.50211 0.99992 0.0
N6 N 0.99586 0.47384 0.04409 0.0
C7 C 0.97096 0.45946 0.06876 0.0
C8 C 0.97389 0.44211 0.0967 0.0
C9 C 0.00266 0.44619 0.08989 0.0
C10 C 0.01571 0.46602 0.0582 0.0
N11 N 0.04176 0.50375 0.98653 0.0
C12 C 0.05781 0.49408 0.00698 0.0
C13 C 0.08627 0.50273 0.9893 0.0
C14 C 0.08846 0.5187 0.95675 0.0
C15 C 0.06151 0.51915 0.95656 0.0
N16 N 0.00781 0.52975 0.95509 0.0
C17 C 0.03098 0.54131 0.92822 0.0
C18 C 0.02714 0.55693 0.89893 0.0
C19 C 0.99955 0.55478 0.90715 0.0
C20 C 0.98824 0.53817 0.9414 0.0
N21 N 0.02765 0.53818 0.03047 0.0
C22 C 0.06756 0.58591 0.07666 0.0
C23 C 0.07603 0.58723 0.03921 0.0
C24 C 0.05567 0.56344 0.0166 0.0
C25 C 0.03829 0.5611 0.09026 0.0
C26 C 0.0189 0.53757 0.06691 0.0
N27 N 0.97638 0.4658 0.9693 0.0
C28 C 0.96943 0.43925 0.91273 0.0
C29 C 0.93788 0.41745 0.92286 0.0
C30 C 0.92612 0.41953 0.95698 0.0
C31 C 0.94573 0.4434 0.97984 0.0
C32 C 0.98808 0.46316 0.93609 0.0
H33 H 0.93528 0.44338 0.00562 0.0
H34 H 0.01168 0.47945 0.92625 0.0
H35 H 0.06333 0.56564 0.98822 0.0
H36 H 0.9973 0.51875 0.07923 0.0
C37 C 0.94797 0.46677 0.06849 0.0
C38 C 0.95798 0.52946 0.95875 0.0
C39 C 0.04797 0.47874 0.0443 0.0
C40 C 0.05524 0.53588 0.93032 0.0
H41 H 0.906 0.51493 0.00763 0.0
H42 H 0.90003 0.48025 0.06812 0.0
H43 H 0.95792 0.42954 0.12048 0.0
H44 H 0.01349 0.43681 0.10718 0.0
H45 H 0.10426 0.49901 0.99933 0.0
H46 H 0.10806 0.52991 0.93653 0.0
H47 H 0.04207 0.56769 0.87395 0.0
H48 H 0.98864 0.56369 0.88927 0.0
H49 H 0.09836 0.60644 0.02749 0.0
H50 H 0.03086 0.55937 0.11915 0.0
H51 H 0.9794 0.43838 0.88638 0.0
H52 H 0.9018 0.40279 0.96599 0.0
C53 C 0.54307 0.01349 0.56797 0.0
C54 C 0.54302 0.00175 0.60371 0.0
C55 C 0.51476 0.9743 0.60911 0.0
C56 C 0.49911 0.97091 0.57664 0.0
N57 N 0.51592 0.99424 0.55043 0.0
Co58 Co 0.50078 1.00031 0.50091 0.0
N59 N 0.45796 0.9615 0.5105 0.0
C60 C 0.44791 0.94185 0.54123 0.0
C61 C 0.41814 0.91608 0.53859 0.0
C62 C 0.40886 0.91905 0.50372 0.0
C63 C 0.43363 0.9466 0.48715 0.0
N64 N 0.48546 0.00673 0.45177 0.0
C65 C 0.45823 0.98767 0.43438 0.0
C66 C 0.45732 1.00027 0.39968 0.0
C67 C 0.48532 0.02808 0.3946 0.0
C68 C 0.50162 0.03085 0.42638 0.0
N69 N 0.54377 0.03874 0.49094 0.0
C70 C 0.5541 0.05776 0.45962 0.0
C71 C 0.58447 0.08277 0.46141 0.0
C72 C 0.59392 0.07988 0.49621 0.0
C73 C 0.56859 0.05325 0.51374 0.0
N74 N 0.51483 0.9758 0.47652 0.0
C75 C 0.52798 0.93749 0.43814 0.0
C76 C 0.53567 0.96595 0.42198 0.0
C77 C 0.52909 0.98465 0.44155 0.0
C78 C 0.51454 0.92893 0.47428 0.0
C79 C 0.5085 0.94841 0.49296 0.0
N80 N 0.4867 0.02482 0.52534 0.0
C81 C 0.49108 0.07341 0.53142 0.0
C82 C 0.47425 0.06283 0.56564 0.0
C83 C 0.46197 0.03224 0.57808 0.0
C84 C 0.46849 0.01384 0.55774 0.0
C85 C 0.49675 0.05411 0.51175 0.0
H86 H 0.45908 0.99103 0.56927 0.0
H87 H 0.51003 0.06372 0.48611 0.0
H88 H 0.53505 0.00582 0.42742 0.0
H89 H 0.49812 0.94053 0.52038 0.0
C90 C 0.46783 0.94729 0.57102 0.0
C91 C 0.5685 0.04385 0.55281 0.0
C92 C 0.4338 0.95663 0.44841 0.0
C93 C 0.53349 0.0535 0.43096 0.0
H94 H 0.56105 0.01236 0.62428 0.0
H95 H 0.50613 0.95922 0.63428 0.0
H96 H 0.40522 0.89686 0.55902 0.0
H97 H 0.38681 0.9024 0.4914 0.0
H98 H 0.43883 0.98986 0.37957 0.0
H99 H 0.49351 0.04363 0.36984 0.0
H100 H 0.59763 0.10162 0.44059 0.0
H101 H 0.61648 0.0961 0.5079 0.0
H102 H 0.54582 0.9734 0.39384 0.0
H103 H 0.50851 0.90718 0.48803 0.0
H104 H 0.50074 0.09684 0.52035 0.0
H105 H 0.44769 0.02256 0.60369 0.0
C106 C 0.55624 0.53965 0.94766 0.0
C107 C 0.56625 0.56105 0.91743 0.0
C108 C 0.54177 0.56456 0.90974 0.0
C109 C 0.51842 0.54539 0.93581 0.0
N110 N 0.52672 0.53021 0.96005 0.0
Co111 Co 0.50006 0.50015 0.00239 0.0
N112 N 0.46267 0.50209 0.98796 0.0
C113 C 0.46046 0.51729 0.95751 0.0
C114 C 0.43199 0.51492 0.95574 0.0
C115 C 0.41526 0.49759 0.98723 0.0
C116 C 0.43463 0.49049 0.00646 0.0
N117 N 0.4738 0.47122 0.04582 0.0
C118 C 0.44512 0.46352 0.05941 0.0
C119 C 0.43633 0.44495 0.09223 0.0
C120 C 0.46062 0.44122 0.10008 0.0
C121 C 0.48276 0.45778 0.07182 0.0
N122 N 0.53705 0.49712 0.01578 0.0
C123 C 0.53801 0.47931 0.04406 0.0
C124 C 0.56511 0.47913 0.04389 0.0
C125 C 0.58229 0.49741 0.01324 0.0
C126 C 0.56477 0.50809 0.99663 0.0
N127 N 0.51442 0.53503 0.035 0.0
C128 C 0.52957 0.58194 0.08382 0.0
C129 C 0.53545 0.55895 0.09328 0.0
C130 C 0.52765 0.53582 0.0687 0.0
C131 C 0.51701 0.58158 0.049 0.0
C132 C 0.50991 0.55832 0.02515 0.0
N133 N 0.48572 0.46526 0.96968 0.0
C134 C 0.4747 0.41438 0.95997 0.0
C135 C 0.4735 0.41897 0.92151 0.0
C136 C 0.47677 0.44625 0.90766 0.0
C137 C 0.48242 0.46876 0.93211 0.0
C138 C 0.48091 0.43772 0.98342 0.0
H139 H 0.48471 0.48905 0.91975 0.0
H140 H 0.48247 0.4332 0.01237 0.0
H141 H 0.53221 0.51866 0.07773 0.0
H142 H 0.50028 0.55941 0.99914 0.0
C143 C 0.4872 0.53779 0.93495 0.0
C144 C 0.57459 0.52725 0.96169 0.0
C145 C 0.42649 0.47494 0.04356 0.0
C146 C 0.51251 0.46196 0.06942 0.0
H147 H 0.58847 0.57202 0.90165 0.0
H148 H 0.54057 0.57824 0.88673 0.0
H149 H 0.425 0.52606 0.93525 0.0
H150 H 0.39201 0.49194 0.99596 0.0
H151 H 0.41496 0.43578 0.10924 0.0
H152 H 0.46234 0.42872 0.12411 0.0
H153 H 0.57116 0.46636 0.06304 0.0
H154 H 0.60474 0.50156 0.00374 0.0
H155 H 0.54604 0.55875 0.11951 0.0
H156 H 0.512 0.59887 0.04036 0.0
H157 H 0.47203 0.39335 0.97176 0.0
H158 H 0.47537 0.45036 0.87799 0.0
C159 C 0.94633 0.4363 0.51473 0.0
C160 C 0.91886 0.41407 0.49827 0.0
C161 C 0.91596 0.42787 0.46646 0.0
C162 C 0.94184 0.45753 0.46516 0.0
N163 N 0.96141 0.46336 0.49389 0.0
Co164 Co 0.00174 0.50338 0.50297 0.0
N165 N 0.99564 0.52459 0.45857 0.0
C166 C 0.97037 0.51263 0.43641 0.0
C167 C 0.97339 0.53265 0.40761 0.0
C168 C 0.00255 0.55876 0.41122 0.0
C169 C 0.01568 0.55303 0.44202 0.0
N170 N 0.0427 0.5432 0.51115 0.0
C171 C 0.05863 0.56951 0.48887 0.0
C172 C 0.08772 0.59079 0.50317 0.0
C173 C 0.09045 0.57731 0.53538 0.0
C174 C 0.06312 0.54865 0.53878 0.0
N175 N 0.00727 0.48233 0.54811 0.0
C176 C 0.03127 0.49518 0.57215 0.0
C177 C 0.02711 0.47611 0.60263 0.0
C178 C 0.99845 0.44967 0.59827 0.0
C179 C 0.98685 0.45402 0.56499 0.0
N180 N 0.02525 0.49177 0.47072 0.0
C181 C 0.06297 0.48323 0.42155 0.0
C182 C 0.07211 0.49123 0.45804 0.0
C183 C 0.0528 0.49495 0.48218 0.0
C184 C 0.03402 0.47804 0.4105 0.0
C185 C 0.01568 0.48252 0.43533 0.0
N186 N 0.97827 0.51513 0.5353 0.0
C187 C 0.97426 0.53682 0.59173 0.0
C188 C 0.94286 0.5264 0.58495 0.0
C189 C 0.92968 0.51122 0.55246 0.0
C190 C 0.94782 0.50628 0.5279 0.0
C191 C 0.99138 0.53086 0.56681 0.0
H192 H 0.93646 0.49478 0.50346 0.0
H193 H 0.01493 0.53868 0.57415 0.0
H194 H 0.06101 0.5011 0.50969 0.0
H195 H 0.99429 0.47919 0.42492 0.0
C196 C 0.94649 0.48132 0.44001 0.0
C197 C 0.95562 0.43137 0.5516 0.0
C198 C 0.04806 0.5744 0.45286 0.0
C199 C 0.05654 0.52578 0.56646 0.0
H200 H 0.90204 0.39065 0.50899 0.0
H201 H 0.89657 0.41789 0.44749 0.0
H202 H 0.95708 0.52821 0.38545 0.0
H203 H 0.01348 0.57926 0.39249 0.0
H204 H 0.10558 0.61336 0.49106 0.0
H205 H 0.11046 0.58686 0.55346 0.0
H206 H 0.04254 0.48124 0.62594 0.0
H207 H 0.98705 0.42986 0.61803 0.0
H208 H 0.09425 0.49495 0.46774 0.0
H209 H 0.02613 0.47166 0.38238 0.0
H210 H 0.98525 0.54867 0.61676 0.0
H211 H 0.9054 0.50309 0.54612 0.0
C212 C 0.45906 0.99124 0.0683 0.0
C213 C 0.4581 0.00574 0.09936 0.0
C214 C 0.48642 0.0333 0.09947 0.0
C215 C 0.5029 0.03414 0.06847 0.0
N216 N 0.48653 0.00906 0.04809 0.0
Co217 Co 0.50165 1.00025 0.00155 0.0
N218 N 0.54444 0.03937 0.00367 0.0
C219 C 0.5547 0.06031 0.03008 0.0
C220 C 0.58471 0.08554 0.02289 0.0
C221 C 0.59394 0.08077 0.98951 0.0
C222 C 0.56888 0.05282 0.97826 0.0
N223 N 0.51683 0.99148 0.95497 0.0
C224 C 0.544 0.00963 0.9343 0.0
C225 C 0.54468 0.9956 0.90265 0.0
C226 C 0.51663 0.96776 0.90291 0.0
C227 C 0.50052 0.96644 0.93455 0.0
N228 N 0.45881 0.96112 0.99942 0.0
C229 C 0.44879 0.94015 0.97305 0.0
C230 C 0.41908 0.91461 0.98038 0.0
C231 C 0.4097 0.91919 0.01372 0.0
C232 C 0.43427 0.94756 0.02479 0.0
N233 N 0.48722 0.02291 0.97039 0.0
C234 C 0.47543 0.05904 0.92075 0.0
C235 C 0.46467 0.02874 0.91342 0.0
C236 C 0.47084 0.01115 0.93851 0.0
C237 C 0.4904 0.07044 0.95412 0.0
C238 C 0.49563 0.05197 0.97862 0.0
N239 N 0.51622 0.97766 0.03269 0.0
C240 C 0.51566 0.93128 0.04786 0.0
C241 C 0.53223 0.9434 0.08033 0.0
C242 C 0.54175 0.97345 0.08775 0.0
C243 C 0.53336 0.98992 0.06393 0.0
C244 C 0.50824 0.94874 0.02448 0.0
H245 H 0.54069 0.01237 0.0717 0.0
H246 H 0.49553 0.9381 1.0003 0.0
H247 H 0.46298 0.98849 0.93095 0.0
H248 H 0.50734 0.06206 0.00349 0.0
C249 C 0.53447 0.057 0.05931 0.0
C250 C 0.43428 0.9597 0.06075 0.0
C251 C 0.56855 0.04106 0.9421 0.0
C252 C 0.46905 0.94356 0.94385 0.0
H253 H 0.43928 0.99679 0.12045 0.0
H254 H 0.49448 0.05019 0.12038 0.0
H255 H 0.59777 0.10562 0.03916 0.0
H256 H 0.61614 0.09652 0.97445 0.0
H257 H 0.56308 0.005 0.88096 0.0
H258 H 0.50838 0.95109 0.8817 0.0
H259 H 0.40638 0.89437 0.96431 0.0
H260 H 0.38769 0.90281 0.02866 0.0
H261 H 0.45269 0.01911 0.88783 0.0
H262 H 0.49859 0.09377 0.96092 0.0
H263 H 0.50779 0.90809 0.04082 0.0
H264 H 0.55555 0.98427 0.1119 0.0
C265 C 0.51921 0.56727 0.49307 0.0
C266 C 0.51537 0.58892 0.50922 0.0
C267 C 0.49593 0.57435 0.54006 0.0
C268 C 0.4892 0.54484 0.54099 0.0
N269 N 0.50384 0.5399 0.51318 0.0
Co270 Co 0.49983 0.50024 0.50272 0.0
N271 N 0.46865 0.47779 0.54571 0.0
C272 C 0.45724 0.48953 0.56912 0.0
C273 C 0.43806 0.46907 0.59763 0.0
C274 C 0.43778 0.44293 0.59269 0.0
C275 C 0.45678 0.44896 0.5612 0.0
N276 N 0.4955 0.46049 0.49196 0.0
C277 C 0.48013 0.43311 0.51204 0.0
C278 C 0.48352 0.41132 0.49552 0.0
C279 C 0.50259 0.42578 0.46437 0.0
C280 C 0.50956 0.45539 0.46362 0.0
N281 N 0.53133 0.52277 0.46004 0.0
C282 C 0.54331 0.51117 0.43724 0.0
C283 C 0.563 0.53178 0.40914 0.0
C284 C 0.56311 0.55788 0.41377 0.0
C285 C 0.54349 0.5517 0.44469 0.0
N286 N 0.53471 0.50979 0.53691 0.0
C287 C 0.5822 0.52014 0.58713 0.0
C288 C 0.58043 0.50798 0.55262 0.0
C289 C 0.55695 0.50337 0.52801 0.0
C290 C 0.55984 0.52712 0.59602 0.0
C291 C 0.53647 0.52174 0.57078 0.0
N292 N 0.46496 0.49066 0.46852 0.0
C293 C 0.44166 0.47607 0.40803 0.0
C294 C 0.41747 0.4801 0.41831 0.0
C295 C 0.41729 0.48936 0.45418 0.0
C296 C 0.44098 0.49431 0.47872 0.0
C297 C 0.46491 0.48138 0.43335 0.0
H298 H 0.4396 0.50144 0.50561 0.0
H299 H 0.48288 0.4783 0.42351 0.0
H300 H 0.55696 0.49404 0.50224 0.0
H301 H 0.51992 0.52712 0.57955 0.0
C302 C 0.46763 0.52072 0.56596 0.0
C303 C 0.53477 0.57276 0.45661 0.0
C304 C 0.4652 0.42781 0.54883 0.0
C305 C 0.53208 0.47974 0.43957 0.0
H306 H 0.52456 0.61239 0.49876 0.0
H307 H 0.48676 0.58378 0.55866 0.0
H308 H 0.42692 0.47319 0.62039 0.0
H309 H 0.42593 0.42227 0.61108 0.0
H310 H 0.4744 0.38787 0.50602 0.0
H311 H 0.51165 0.41631 0.44566 0.0
H312 H 0.57441 0.52772 0.38663 0.0
H313 H 0.57522 0.57854 0.39543 0.0
H314 H 0.59663 0.50136 0.54483 0.0
H315 H 0.56032 0.53668 0.6224 0.0
H316 H 0.44311 0.46954 0.38022 0.0
H317 H 0.39892 0.49277 0.46328 0.0
C318 C 0.321 0.49278 0.12915 0.0
C319 C 0.32851 0.47041 0.13495 0.0
C320 C 0.29686 0.49118 0.15053 0.0
C321 C 0.28012 0.46745 0.17843 0.0
C322 C 0.31123 0.44622 0.16225 0.0
C323 C 0.28729 0.44479 0.1839 0.0
C324 C 0.25527 0.46663 0.20153 0.0
C325 C 0.29358 0.44282 0.31495 0.0
C326 C 0.32531 0.46741 0.31071 0.0
C327 C 0.27087 0.44167 0.29146 0.0
C328 C 0.27962 0.46476 0.26296 0.0
C329 C 0.33412 0.49043 0.28204 0.0
C330 C 0.31145 0.48906 0.25823 0.0
C331 C 0.25491 0.46488 0.24093 0.0
C332 C 0.13398 0.45767 0.28457 0.0
C333 C 0.14595 0.47551 0.31593 0.0
C334 C 0.15394 0.45451 0.26069 0.0
C335 C 0.18655 0.47001 0.2669 0.0
C336 C 0.17829 0.48981 0.32298 0.0
C337 C 0.19832 0.48741 0.29857 0.0
C338 C 0.20876 0.46715 0.24271 0.0
C339 C 0.16487 0.50028 0.15465 0.0
C340 C 0.13981 0.47385 0.13888 0.0
C341 C 0.1871 0.49849 0.17617 0.0
C342 C 0.18519 0.47049 0.18141 0.0
C343 C 0.13817 0.44584 0.14444 0.0
C344 C 0.16095 0.44433 0.16489 0.0
C345 C 0.20886 0.46843 0.20318 0.0
H346 H 0.33363 0.51135 0.10783 0.0
H347 H 0.29158 0.50877 0.14569 0.0
H348 H 0.31649 0.42862 0.16708 0.0
H349 H 0.2743 0.42596 0.20481 0.0
H350 H 0.28619 0.42507 0.33723 0.0
H351 H 0.24635 0.42296 0.29585 0.0
H352 H 0.35847 0.50968 0.27843 0.0
H353 H 0.31859 0.50749 0.23694 0.0
H354 H 0.1091 0.44595 0.27856 0.0
H355 H 0.14353 0.43933 0.2381 0.0
H356 H 0.18818 0.50253 0.34773 0.0
H357 H 0.22319 0.49911 0.30472 0.0
H358 H 0.16778 0.52252 0.14983 0.0
H359 H 0.20606 0.51904 0.18821 0.0
H360 H 0.11917 0.42495 0.13306 0.0
H361 H 0.15927 0.42255 0.16857 0.0
N362 N 0.23214 0.46824 0.18411 0.0
N363 N 0.2318 0.46528 0.25986 0.0
C364 C 0.86133 0.31187 0.79585 0.0
C365 C 0.85134 0.32145 0.82593 0.0
C366 C 0.8392 0.28885 0.77346 0.0
C367 C 0.80663 0.27577 0.77971 0.0
C368 C 0.81871 0.30756 0.8328 0.0
C369 C 0.79668 0.28508 0.80997 0.0
C370 C 0.78243 0.25141 0.75641 0.0
C371 C 0.8448 0.33362 0.67777 0.0
C372 C 0.85875 0.32811 0.64773 0.0
C373 C 0.82043 0.3091 0.69994 0.0
C374 C 0.8102 0.2785 0.69346 0.0
C375 C 0.84737 0.2974 0.64019 0.0
C376 C 0.82352 0.27291 0.66293 0.0
C377 C 0.78456 0.25209 0.7169 0.0
C378 C 0.65554 0.14466 0.67845 0.0
C379 C 0.66442 0.13357 0.64902 0.0
C380 C 0.6784 0.16716 0.70073 0.0
C381 C 0.71066 0.17867 0.69456 0.0
C382 C 0.69677 0.14581 0.64218 0.0
C383 C 0.71959 0.16805 0.66472 0.0
C384 C 0.73542 0.20304 0.71736 0.0
C385 C 0.67408 0.12288 0.80132 0.0
C386 C 0.66004 0.12996 0.82961 0.0
C387 C 0.69751 0.14629 0.777 0.0
C388 C 0.70697 0.17711 0.7803 0.0
C389 C 0.66941 0.16076 0.8326 0.0
C390 C 0.69275 0.18408 0.80836 0.0
C391 C 0.73318 0.20263 0.75675 0.0
H392 H 0.88625 0.32238 0.78926 0.0
H393 H 0.84763 0.28141 0.75119 0.0
H394 H 0.81011 0.31398 0.85602 0.0
H395 H 0.77173 0.27507 0.81589 0.0
H396 H 0.85273 0.35693 0.68423 0.0
H397 H 0.80964 0.31416 0.72215 0.0
H398 H 0.85651 0.29216 0.61637 0.0
H399 H 0.8155 0.24953 0.65665 0.0
H400 H 0.63086 0.13592 0.68427 0.0
H401 H 0.6708 0.17578 0.72248 0.0
H402 H 0.70455 0.13859 0.61899 0.0
H403 H 0.74431 0.177 0.65879 0.0
H404 H 0.66705 0.09929 0.79812 0.0
H405 H 0.7086 0.14038 0.7561 0.0
H406 H 0.65917 0.16692 0.85429 0.0
H407 H 0.69987 0.2077 0.81168 0.0
N408 N 0.75668 0.22681 0.77448 0.0
N409 N 0.76112 0.22772 0.69913 0.0
C410 C 0.56835 0.68778 0.21024 0.0
C411 C 0.54805 0.67715 0.18005 0.0
C412 C 0.57015 0.71042 0.23195 0.0
C413 C 0.55079 0.7219 0.22456 0.0
C414 C 0.52974 0.68948 0.1717 0.0
C415 C 0.53101 0.71156 0.19381 0.0
C416 C 0.55122 0.74519 0.24764 0.0
C417 C 0.52433 0.6634 0.32587 0.0
C418 C 0.54355 0.66983 0.35697 0.0
C419 C 0.52629 0.68731 0.30346 0.0
C420 C 0.54858 0.71821 0.31057 0.0
C421 C 0.56533 0.70077 0.36453 0.0
C422 C 0.5678 0.72469 0.34156 0.0
C423 C 0.55095 0.7439 0.28722 0.0
C424 C 0.52026 0.83679 0.32455 0.0
C425 C 0.54232 0.85299 0.35193 0.0
C426 C 0.52291 0.8163 0.30329 0.0
C427 C 0.54772 0.8117 0.309 0.0
C428 C 0.56674 0.84788 0.35814 0.0
C429 C 0.56928 0.82724 0.33701 0.0
C430 C 0.5507 0.79004 0.28663 0.0
C431 C 0.56936 0.86937 0.20834 0.0
C432 C 0.54932 0.86071 0.17788 0.0
C433 C 0.57034 0.84702 0.23086 0.0
C434 C 0.55066 0.81562 0.2238 0.0
C435 C 0.53045 0.82951 0.17013 0.0
C436 C 0.53108 0.80718 0.1929 0.0
C437 C 0.55099 0.79132 0.24715 0.0
H438 H 0.58298 0.67877 0.21674 0.0
H439 H 0.58654 0.71881 0.25453 0.0
H440 H 0.51402 0.68162 0.14841 0.0
H441 H 0.51613 0.72026 0.18715 0.0
H442 H 0.50776 0.63989 0.31873 0.0
H443 H 0.51034 0.68156 0.28057 0.0
H444 H 0.58022 0.70651 0.38851 0.0
H445 H 0.58481 0.74832 0.34801 0.0
H446 H 0.50113 0.8402 0.31936 0.0
H447 H 0.50554 0.804 0.28243 0.0
H448 H 0.58368 0.85963 0.37959 0.0
H449 H 0.58831 0.82368 0.34223 0.0
H450 H 0.58447 0.89341 0.2144 0.0
H451 H 0.58662 0.85435 0.25356 0.0
H452 H 0.51481 0.82236 0.14675 0.0
H453 H 0.51594 0.78319 0.18659 0.0
N454 N 0.55108 0.76878 0.22938 0.0
N455 N 0.55098 0.76655 0.30507 0.0
C456 C 0.87306 0.5581 0.71889 0.0
C457 C 0.86198 0.5374 0.69015 0.0
C458 C 0.85176 0.55946 0.74259 0.0
C459 C 0.81897 0.53939 0.73879 0.0
C460 C 0.8292 0.51792 0.68598 0.0
C461 C 0.80801 0.51886 0.71001 0.0
C462 C 0.79554 0.54038 0.76279 0.0
C463 C 0.85203 0.51913 0.84047 0.0
C464 C 0.86616 0.53896 0.86978 0.0
C465 C 0.82944 0.52 0.81875 0.0
C466 C 0.82129 0.54154 0.82483 0.0
C467 C 0.85681 0.55947 0.87699 0.0
C468 C 0.83479 0.56087 0.85461 0.0
C469 C 0.79723 0.5427 0.80207 0.0
C470 C 0.67113 0.51225 0.85296 0.0
C471 C 0.67673 0.5386 0.87016 0.0
C472 C 0.69469 0.51354 0.83073 0.0
C473 C 0.72444 0.54104 0.82573 0.0
C474 C 0.70653 0.56629 0.86439 0.0
C475 C 0.73036 0.56731 0.84298 0.0
C476 C 0.74944 0.54225 0.80278 0.0
C477 C 0.6856 0.55202 0.72197 0.0
C478 C 0.67461 0.53142 0.69332 0.0
C479 C 0.70889 0.55439 0.74559 0.0
C480 C 0.72084 0.53554 0.74148 0.0
C481 C 0.68644 0.51264 0.68915 0.0
C482 C 0.70924 0.51461 0.71307 0.0
C483 C 0.74728 0.539 0.76386 0.0
H484 H 0.89815 0.57309 0.72329 0.0
H485 H 0.86096 0.5762 0.76377 0.0
H486 H 0.81984 0.50203 0.66383 0.0
H487 H 0.78288 0.5034 0.70607 0.0
H488 H 0.85843 0.50286 0.83423 0.0
H489 H 0.81831 0.50366 0.7973 0.0
H490 H 0.8661 0.57417 0.90026 0.0
H491 H 0.82826 0.57708 0.86065 0.0
H492 H 0.64861 0.49049 0.85698 0.0
H493 H 0.68982 0.49297 0.81776 0.0
H494 H 0.71141 0.58733 0.87596 0.0
H495 H 0.75318 0.5888 0.83913 0.0
H496 H 0.67696 0.56698 0.72522 0.0
H497 H 0.71826 0.57173 0.76599 0.0
H498 H 0.67822 0.49664 0.66712 0.0
H499 H 0.71817 0.49997 0.709 0.0
N500 N 0.77051 0.53836 0.7456 0.0
N501 N 0.77425 0.54395 0.82038 0.0
C502 C 0.16627 0.67347 0.20575 0.0
C503 C 0.15207 0.68007 0.17624 0.0
C504 C 0.18709 0.69661 0.2288 0.0
C505 C 0.19388 0.72674 0.22305 0.0
C506 C 0.15861 0.71011 0.17071 0.0
C507 C 0.17956 0.7333 0.19369 0.0
C508 C 0.21765 0.7519 0.24564 0.0
C509 C 0.13621 0.68958 0.32584 0.0
C510 C 0.14304 0.67324 0.3523 0.0
C511 C 0.16055 0.71408 0.30359 0.0
C512 C 0.19205 0.72268 0.30777 0.0
C513 C 0.17444 0.68174 0.35649 0.0
C514 C 0.19883 0.70652 0.33464 0.0
C515 C 0.21804 0.74908 0.28504 0.0
C516 C 0.3254 0.87497 0.32456 0.0
C517 C 0.34062 0.86662 0.35079 0.0
C518 C 0.30163 0.85285 0.30277 0.0
C519 C 0.29273 0.82194 0.3066 0.0
C520 C 0.33139 0.8356 0.35496 0.0
C521 C 0.30759 0.81347 0.33317 0.0
C522 C 0.26683 0.79807 0.28458 0.0
C523 C 0.34298 0.84966 0.19012 0.0
C524 C 0.34058 0.87384 0.17444 0.0
C525 C 0.31917 0.82669 0.21432 0.0
C526 C 0.29213 0.82697 0.22255 0.0
C527 C 0.31349 0.87414 0.18332 0.0
C528 C 0.28927 0.85065 0.20671 0.0
C529 C 0.26593 0.80118 0.24534 0.0
H530 H 0.16138 0.65043 0.21087 0.0
H531 H 0.19844 0.69106 0.25059 0.0
H532 H 0.14806 0.71581 0.14805 0.0
H533 H 0.18469 0.75643 0.18844 0.0
H534 H 0.11209 0.68339 0.32245 0.0
H535 H 0.15484 0.72658 0.28349 0.0
H536 H 0.18008 0.66942 0.37698 0.0
H537 H 0.22297 0.71289 0.33845 0.0
H538 H 0.33182 0.89864 0.32097 0.0
H539 H 0.28975 0.85983 0.28357 0.0
H540 H 0.34212 0.82832 0.37559 0.0
H541 H 0.30077 0.78969 0.33708 0.0
H542 H 0.36276 0.84785 0.18284 0.0
H543 H 0.32138 0.80815 0.22573 0.0
H544 H 0.31084 0.89239 0.17188 0.0
H545 H 0.26832 0.85096 0.21253 0.0
N546 N 0.24156 0.77797 0.22732 0.0
N547 N 0.24279 0.77209 0.30299 0.0
C548 C 0.44282 0.1358 0.79323 0.0
C549 C 0.4655 0.14493 0.8209 0.0
C550 C 0.44032 0.15782 0.77204 0.0
C551 C 0.46076 0.18936 0.77785 0.0
C552 C 0.48517 0.17639 0.82747 0.0
C553 C 0.48284 0.19835 0.80614 0.0
C554 C 0.45874 0.2132 0.75576 0.0
C555 C 0.48762 0.16871 0.6756 0.0
C556 C 0.46325 0.14961 0.65184 0.0
C557 C 0.48562 0.1898 0.69628 0.0
C558 C 0.45932 0.19238 0.69346 0.0
C559 C 0.43745 0.153 0.64809 0.0
C560 C 0.4356 0.17436 0.66859 0.0
C561 C 0.4567 0.2139 0.71647 0.0
C562 C 0.47868 0.33935 0.68004 0.0
C563 C 0.45932 0.33245 0.64902 0.0
C564 C 0.47768 0.31583 0.70222 0.0
C565 C 0.45616 0.28473 0.69509 0.0
C566 C 0.43812 0.30136 0.64157 0.0
C567 C 0.43655 0.27778 0.66438 0.0
C568 C 0.45551 0.25944 0.71752 0.0
C569 C 0.43679 0.31082 0.80144 0.0
C570 C 0.46235 0.32696 0.825 0.0
C571 C 0.43505 0.28853 0.77908 0.0
C572 C 0.45872 0.28195 0.78034 0.0
C573 C 0.48569 0.32 0.8266 0.0
C574 C 0.48372 0.29748 0.80473 0.0
C575 C 0.45764 0.25871 0.7569 0.0
H576 H 0.42713 0.11167 0.78788 0.0
H577 H 0.42229 0.15014 0.75133 0.0
H578 H 0.50217 0.18402 0.84943 0.0
H579 H 0.49848 0.22248 0.81161 0.0
H580 H 0.50835 0.16748 0.67809 0.0
H581 H 0.50461 0.20409 0.71458 0.0
H582 H 0.41842 0.13874 0.62983 0.0
H583 H 0.41528 0.17626 0.66575 0.0
H584 H 0.49477 0.36295 0.68719 0.0
H585 H 0.49421 0.32217 0.72452 0.0
H586 H 0.4231 0.29522 0.61769 0.0
H587 H 0.42011 0.25405 0.65784 0.0
H588 H 0.41845 0.31576 0.79999 0.0
H589 H 0.4153 0.27645 0.76087 0.0
H590 H 0.50537 0.3319 0.84497 0.0
H591 H 0.50207 0.29255 0.80633 0.0
N592 N 0.45935 0.23575 0.77436 0.0
N593 N 0.45491 0.23681 0.69888 0.0
C594 C 0.08309 0.45953 0.06042 0.0
C595 C 0.07111 0.47758 0.06897 0.0
C596 C 0.10541 0.45875 0.08297 0.0
C597 C 0.11603 0.47538 0.11555 0.0
H598 H 0.07542 0.44622 0.03582 0.0
H599 H 0.11464 0.44522 0.07446 0.0
S600 S 0.08958 0.52447 0.1512 0.0
N601 N 0.0705 0.51192 0.11209 0.0
N602 N 0.11097 0.50913 0.15603 0.0
C603 C 0.1034 0.49293 0.12483 0.0
C604 C 0.08118 0.49419 0.1013 0.0
C605 C 0.59254 0.0917 0.58817 0.0
C606 C 0.5931 0.06619 0.57767 0.0
C607 C 0.61557 0.11324 0.61135 0.0
C608 C 0.64003 0.11006 0.62484 0.0
H609 H 0.57417 0.09501 0.57829 0.0
H610 H 0.61443 0.13277 0.61834 0.0
S611 S 0.65117 0.04653 0.60567 0.0
N612 N 0.61973 0.03873 0.58205 0.0
N613 N 0.66255 0.07856 0.62658 0.0
C614 C 0.64061 0.08441 0.61454 0.0
C615 C 0.61726 0.06264 0.59074 0.0
C616 C 0.55062 0.63706 0.09595 0.0
C617 C 0.53619 0.60617 0.10981 0.0
C618 C 0.55504 0.66004 0.1191 0.0
C619 C 0.54561 0.65309 0.15705 0.0
H620 H 0.5583 0.6435 0.06684 0.0
H621 H 0.56563 0.68339 0.10717 0.0
S622 S 0.506 0.57614 0.20719 0.0
N623 N 0.5117 0.56994 0.16401 0.0
N624 N 0.52106 0.61354 0.20766 0.0
C625 C 0.53172 0.62259 0.17156 0.0
C626 C 0.5268 0.59904 0.14792 0.0
C627 C 0.89645 0.50379 0.62924 0.0
C628 C 0.92341 0.53006 0.61241 0.0
C629 C 0.87728 0.50648 0.65499 0.0
C630 C 0.88408 0.53556 0.66447 0.0
H631 H 0.89024 0.48098 0.62256 0.0
H632 H 0.8569 0.48554 0.66753 0.0
S633 S 0.95165 0.61142 0.62661 0.0
N634 N 0.95616 0.58593 0.60649 0.0
N635 N 0.91952 0.59122 0.65391 0.0
C636 C 0.91114 0.56205 0.64774 0.0
C637 C 0.93092 0.55923 0.62189 0.0
C638 C 0.3786 0.92762 0.08723 0.0
C639 C 0.41087 0.93914 0.09097 0.0
C640 C 0.35615 0.90691 0.11457 0.0
C641 C 0.36522 0.89752 0.14714 0.0
H642 H 0.37062 0.93414 0.06255 0.0
H643 H 0.33142 0.89761 0.10959 0.0
S644 S 0.44767 0.92468 0.17201 0.0
N645 N 0.45126 0.94146 0.13024 0.0
N646 N 0.40945 0.90419 0.18296 0.0
C647 C 0.39776 0.91028 0.15195 0.0
C648 C 0.42048 0.93078 0.12364 0.0
C649 C 0.43478 0.37757 0.58702 0.0
C650 C 0.46387 0.40424 0.57557 0.0
C651 C 0.43353 0.35468 0.61114 0.0
C652 C 0.46136 0.35748 0.62416 0.0
H653 H 0.41291 0.37435 0.5771 0.0
H654 H 0.41055 0.33467 0.61968 0.0
S655 S 0.54357 0.42284 0.60027 0.0
N656 N 0.52101 0.43242 0.57833 0.0
N657 N 0.51903 0.3889 0.62211 0.0
C658 C 0.49066 0.38409 0.61237 0.0
C659 C 0.49181 0.40753 0.58834 0.0
C660 C 0.5074 0.88548 0.41403 0.0
C661 C 0.53264 0.91624 0.41688 0.0
C662 C 0.51069 0.86523 0.39287 0.0
C663 C 0.5395 0.87485 0.37426 0.0
H664 H 0.48474 0.87714 0.42774 0.0
H665 H 0.4906 0.84178 0.39126 0.0
S666 S 0.61296 0.95281 0.37341 0.0
N667 N 0.58753 0.9552 0.39977 0.0
N668 N 0.59371 0.91711 0.36 0.0
C669 C 0.56502 0.90543 0.37719 0.0
C670 C 0.56158 0.92614 0.39844 0.0
C671 C 0.59519 0.51738 0.90426 0.0
C672 C 0.6013 0.53155 0.93835 0.0
C673 C 0.61974 0.52017 0.88223 0.0
C674 C 0.65132 0.537 0.89366 0.0
H675 H 0.57118 0.50385 0.89472 0.0
H676 H 0.61386 0.50906 0.85598 0.0
S677 S 0.67927 0.57854 0.98111 0.0
N678 N 0.64083 0.56387 0.98211 0.0
N679 N 0.68692 0.56768 0.94213 0.0
C680 C 0.65762 0.55145 0.9278 0.0
C681 C 0.63263 0.54906 0.94977 0.0
C682 C 0.08203 0.63029 0.43126 0.0
C683 C 0.07108 0.59937 0.42576 0.0
C684 C 0.10497 0.65416 0.40683 0.0
C685 C 0.11756 0.64773 0.37629 0.0
H686 H 0.07312 0.63599 0.4549 0.0
H687 H 0.11335 0.67781 0.41219 0.0
S688 S 0.09466 0.5705 0.34815 0.0
N689 N 0.07304 0.56345 0.38656 0.0
N690 N 0.11627 0.60841 0.34062 0.0
C691 C 0.10617 0.6169 0.36995 0.0
C692 C 0.08279 0.59265 0.3947 0.0
C693 C 0.44322 0.07464 0.88484 0.0
C694 C 0.47283 0.07951 0.89299 0.0
C695 C 0.44091 0.09551 0.86067 0.0
C696 C 0.46815 0.12174 0.84379 0.0
H697 H 0.42188 0.05513 0.8981 0.0
H698 H 0.41777 0.09161 0.85609 0.0
S699 S 0.55075 0.14217 0.85274 0.0
N700 N 0.52952 0.11069 0.88044 0.0
N701 N 0.52529 0.14952 0.83422 0.0
C702 C 0.49773 0.12592 0.85054 0.0
C703 C 0.50004 0.10488 0.87534 0.0
C704 C 0.38716 0.49919 0.38482 0.0
C705 C 0.39334 0.47589 0.39122 0.0
C706 C 0.36552 0.49646 0.35824 0.0
C707 C 0.34881 0.47005 0.33764 0.0
H708 H 0.3994 0.51984 0.40018 0.0
H709 H 0.36148 0.51497 0.35414 0.0
S710 S 0.35532 0.40193 0.34482 0.0
N711 N 0.38041 0.4252 0.37537 0.0
N712 N 0.33939 0.41996 0.32563 0.0
C713 C 0.35434 0.44636 0.3441 0.0
C714 C 0.37671 0.44932 0.37081 0.0
C715 C 0.88987 0.39183 0.8843 0.0
C716 C 0.91687 0.39325 0.89749 0.0
C717 C 0.86925 0.3689 0.86075 0.0
C718 C 0.87453 0.34616 0.8499 0.0
H719 H 0.88479 0.40875 0.89207 0.0
H720 H 0.84901 0.36909 0.85087 0.0
S721 S 0.94129 0.33907 0.87894 0.0
N722 N 0.94782 0.37006 0.89882 0.0
N723 N 0.90848 0.32611 0.8557 0.0
C724 C 0.9015 0.34733 0.8632 0.0
C725 C 0.92277 0.37104 0.88675 0.0
C726 C 0.907 0.50625 0.92561 0.0
C727 C 0.93473 0.53272 0.93685 0.0
C728 C 0.88489 0.50852 0.90437 0.0
C729 C 0.88982 0.5374 0.89322 0.0
H730 H 0.90245 0.4836 0.93322 0.0
H731 H 0.86368 0.48739 0.8968 0.0
S732 S 0.95918 0.61371 0.91594 0.0
N733 N 0.96575 0.58853 0.9367 0.0
N734 N 0.92526 0.59317 0.8949 0.0
C735 C 0.9176 0.5641 0.90455 0.0
C736 C 0.93979 0.56166 0.92679 0.0
C737 C 0.38162 0.93142 0.41735 0.0
C738 C 0.41071 0.93427 0.42251 0.0
C739 C 0.35924 0.9097 0.39377 0.0
C740 C 0.36518 0.89003 0.37474 0.0
H741 H 0.3761 0.94589 0.43189 0.0
H742 H 0.33688 0.90791 0.39093 0.0
S743 S 0.43885 0.88993 0.37796 0.0
N744 N 0.44496 0.91673 0.40634 0.0
N745 N 0.40311 0.87598 0.36173 0.0
C746 C 0.39451 0.89309 0.37948 0.0
C747 C 0.41724 0.91523 0.40342 0.0
C748 C 0.44388 0.36555 0.89892 0.0
C749 C 0.47033 0.39603 0.8958 0.0
C750 C 0.44099 0.34343 0.87518 0.0
C751 C 0.46479 0.351 0.84816 0.0
H752 H 0.42534 0.35882 0.9198 0.0
H753 H 0.4204 0.3201 0.87852 0.0
S754 S 0.53871 0.42756 0.82908 0.0
N755 N 0.52058 0.4327 0.86359 0.0
N756 N 0.5154 0.39102 0.81939 0.0
C757 C 0.49128 0.3814 0.84477 0.0
C758 C 0.49399 0.40397 0.8685 0.0
C759 C 0.07453 0.45397 0.37805 0.0
C760 C 0.08419 0.48166 0.39462 0.0
C761 C 0.09453 0.45221 0.35249 0.0
C762 C 0.12466 0.47826 0.34205 0.0
H763 H 0.05158 0.43342 0.38541 0.0
H764 H 0.08649 0.43011 0.34135 0.0
S765 S 0.1593 0.557 0.37517 0.0
N766 N 0.12491 0.53586 0.39814 0.0
N767 N 0.16183 0.53328 0.34842 0.0
C768 C 0.13403 0.50636 0.35771 0.0
C769 C 0.11396 0.50788 0.38439 0.0
C770 C 0.58589 0.08277 0.89188 0.0
C771 C 0.5914 0.06223 0.91205 0.0
C772 C 0.6079 0.10415 0.86465 0.0
C773 C 0.63614 0.10565 0.8567 0.0
H774 H 0.56458 0.08247 0.89757 0.0
H775 H 0.60288 0.11976 0.84985 0.0
S776 S 0.66146 0.05689 0.90286 0.0
N777 N 0.62665 0.04447 0.92288 0.0
N778 N 0.66837 0.0848 0.87187 0.0
C779 C 0.64164 0.08489 0.87661 0.0
C780 C 0.61919 0.06317 0.90433 0.0
C781 C 0.56629 0.62295 0.41838 0.0
C782 C 0.53684 0.59675 0.42988 0.0
C783 C 0.56827 0.64628 0.39442 0.0
C784 C 0.54082 0.64446 0.38173 0.0
H785 H 0.58791 0.6255 0.42818 0.0
H786 H 0.59149 0.66588 0.38578 0.0
S787 S 0.45802 0.58128 0.40663 0.0
N788 N 0.47976 0.57035 0.42786 0.0
N789 N 0.48324 0.61489 0.38459 0.0
C790 C 0.5112 0.61848 0.39376 0.0
C791 C 0.50928 0.59453 0.41751 0.0
C792 C 0.46163 0.10331 0.57157 0.0
C793 C 0.47032 0.08388 0.58848 0.0
C794 C 0.45893 0.12414 0.59232 0.0
C795 C 0.46497 0.12645 0.63075 0.0
H796 H 0.45688 0.10244 0.54203 0.0
H797 H 0.45266 0.13896 0.57797 0.0
S798 S 0.48794 0.0804 0.68855 0.0
N799 N 0.48508 0.06843 0.64603 0.0
N800 N 0.47888 0.10669 0.6852 0.0
C801 C 0.47321 0.10683 0.64812 0.0
C802 C 0.47611 0.08575 0.62699 0.0
C803 C 0.37106 0.44746 0.07003 0.0
C804 C 0.4017 0.47407 0.06694 0.0
C805 C 0.34753 0.44636 0.09239 0.0
C806 C 0.35393 0.47195 0.11205 0.0
H807 H 0.36532 0.42744 0.0551 0.0
H808 H 0.32408 0.42551 0.09395 0.0
S809 S 0.43127 0.54642 0.1143 0.0
N810 N 0.43777 0.52604 0.08598 0.0
N811 N 0.39362 0.52421 0.12795 0.0
C812 C 0.38468 0.49861 0.10926 0.0
C813 C 0.40858 0.49961 0.08669 0.0
C814 C 0.90512 0.40441 0.58979 0.0
C815 C 0.93177 0.40501 0.57677 0.0
C816 C 0.88175 0.37953 0.61269 0.0
C817 C 0.88425 0.35437 0.62367 0.0
H818 H 0.90225 0.42326 0.58194 0.0
H819 H 0.86132 0.37985 0.62137 0.0
S820 S 0.9503 0.34564 0.5973 0.0
N821 N 0.95946 0.37858 0.57569 0.0
N822 N 0.91655 0.33248 0.62047 0.0
C823 C 0.91114 0.35499 0.61098 0.0
C824 C 0.93464 0.38014 0.58713 0.0
C825 C 0.549 0.90613 0.09187 0.0
C826 C 0.53896 0.92442 0.10629 0.0
C827 C 0.55306 0.88612 0.11534 0.0
C828 C 0.5476 0.88393 0.15414 0.0
H829 H 0.55346 0.90702 0.06211 0.0
H830 H 0.56023 0.87202 0.10304 0.0
S831 S 0.52089 0.92638 0.20624 0.0
N832 N 0.52339 0.93865 0.16214 0.0
N833 N 0.53185 0.9015 0.20622 0.0
C834 C 0.53835 0.90252 0.16916 0.0
C835 C 0.53386 0.92269 0.14526 0.0
C836 C 0.59803 0.5152 0.65223 0.0
C837 C 0.60658 0.52465 0.61417 0.0
C838 C 0.62034 0.51812 0.67801 0.0
C839 C 0.65182 0.5303 0.66651 0.0
H840 H 0.57377 0.50482 0.66203 0.0
H841 H 0.61279 0.51014 0.70691 0.0
S842 S 0.68715 0.56089 0.5713 0.0
N843 N 0.64954 0.54892 0.56718 0.0
N844 N 0.69104 0.55332 0.61555 0.0
C845 C 0.66089 0.54038 0.62893 0.0
C846 C 0.63837 0.5378 0.60276 0.0
C847 C 0.08006 0.62719 0.12019 0.0
C848 C 0.08942 0.60987 0.10175 0.0
C849 C 0.10054 0.64999 0.14408 0.0
C850 C 0.13081 0.65582 0.15086 0.0
H851 H 0.05688 0.62326 0.11582 0.0
H852 H 0.0925 0.66293 0.15766 0.0
S853 S 0.16601 0.61603 0.10996 0.0
N854 N 0.13055 0.59961 0.09215 0.0
N855 N 0.16901 0.64228 0.13719 0.0
C856 C 0.14025 0.63838 0.13282 0.0
C857 C 0.11957 0.61547 0.10819 0.0
loop_
_geom_bond_atom_site_label_1
_geom_bond_atom_site_label_2
_geom_bond_distance
_geom_bond_site_symmetry_2
_ccdc_geom_bond_type
C0 C1 1.443 . S
C0 N4 1.376 1_556 S
C0 C38 1.389 . S
C1 C0 1.443 . S
C1 C2 1.340 1_556 S
C1 H41 0.951 . S
C2 C1 1.340 1_554 S
C2 C3 1.439 . S
C2 H42 0.950 . S
C3 C2 1.439 . S
C3 N4 1.374 . S
C3 C37 1.395 . S
N4 C0 1.376 1_554 S
N4 C3 1.374 . S
N4 Co5 1.968 1_655 S
Co5 N4 1.968 1_455 S
Co5 N6 2.023 1_455 S
Co5 N11 2.049 1_554 S
Co5 N16 1.967 1_554 S
Co5 N21 2.301 . S
Co5 N27 2.265 1_454 S
N6 Co5 2.023 1_655 S
N6 C7 1.376 . S
N6 C10 1.383 1_655 S
C7 N6 1.376 . S
C7 C8 1.446 . S
C7 C37 1.391 . S
C8 C7 1.446 . S
C8 C9 1.339 1_655 S
C8 H43 0.949 . S
C9 C8 1.339 1_455 S
C9 C10 1.439 . S
C9 H44 0.950 . S
C10 N6 1.383 1_455 S
C10 C9 1.439 . S
C10 C39 1.392 . S
N11 Co5 2.049 1_556 S
N11 C12 1.376 1_556 S
N11 C15 1.374 . S
C12 N11 1.376 1_554 S
C12 C13 1.443 . S
C12 C39 1.389 . S
C13 C12 1.443 . S
C13 C14 1.340 1_554 S
C13 H45 0.951 . S
C14 C13 1.340 1_556 S
C14 C15 1.439 . S
C14 H46 0.950 . S
C15 N11 1.374 . S
C15 C14 1.439 . S
C15 C40 1.395 . S
N16 Co5 1.967 1_556 S
N16 C17 1.376 . S
N16 C20 1.383 1_455 S
C17 N16 1.376 . S
C17 C18 1.446 . S
C17 C40 1.391 . S
C18 C17 1.446 . S
C18 C19 1.339 1_455 S
C18 H47 0.949 . S
C19 C18 1.339 1_655 S
C19 C20 1.439 . S
C19 H48 0.950 . S
C20 N16 1.383 1_655 S
C20 C19 1.439 . S
C20 C38 1.392 . S
N21 Co5 2.301 . S
N21 C24 1.332 . S
N21 C26 1.332 . S
C22 C23 1.386 . S
C22 C25 1.388 . S
C23 C22 1.386 . S
C23 C24 1.382 . S
C23 H49 0.950 . S
C24 N21 1.332 . S
C24 C23 1.382 . S
C24 H35 0.952 1_554 S
C25 C22 1.388 . S
C25 C26 1.382 . S
C25 H50 0.950 . S
C26 N21 1.332 . S
C26 C25 1.382 . S
C26 H36 0.948 . S
N27 Co5 2.265 1_656 S
N27 C31 1.332 . S
N27 C32 1.332 . S
C28 C29 1.388 . S
C28 C32 1.382 . S
C28 H51 0.950 . S
C29 C28 1.388 . S
C29 C30 1.386 . S
C30 C29 1.386 . S
C30 C31 1.382 . S
C30 H52 0.950 . S
C31 N27 1.332 . S
C31 C30 1.382 . S
C31 H33 0.952 1_556 S
C32 N27 1.332 . S
C32 C28 1.382 . S
C32 H34 0.948 . S
H33 C31 0.952 1_554 S
H34 C32 0.948 . S
H35 C24 0.952 1_556 S
H36 C26 0.948 . S
C37 C3 1.395 . S
C37 C7 1.391 . S
C38 C0 1.389 . S
C38 C20 1.392 . S
C39 C10 1.392 . S
C39 C12 1.389 . S
C40 C15 1.395 . S
C40 C17 1.391 . S
H41 C1 0.951 . S
H42 C2 0.950 . S
H43 C8 0.949 . S
H44 C9 0.950 . S
H45 C13 0.951 . S
H46 C14 0.950 . S
H47 C18 0.949 . S
H48 C19 0.950 . S
H49 C23 0.950 . S
H50 C25 0.950 . S
H51 C28 0.950 . S
H52 C30 0.950 . S
C53 C54 1.443 . S
C53 N57 1.376 1_545 S
C53 C91 1.389 . S
C54 C53 1.443 . S
C54 C55 1.340 1_545 S
C54 H94 0.951 . S
C55 C54 1.340 1_565 S
C55 C56 1.439 . S
C55 H95 0.950 . S
C56 C55 1.439 . S
C56 N57 1.374 . S
C56 C90 1.395 . S
N57 C53 1.376 1_565 S
N57 C56 1.374 . S
N57 Co58 2.001 1_565 S
Co58 N57 2.001 1_545 S
Co58 N59 1.981 1_545 S
Co58 N64 2.015 . S
Co58 N69 2.009 . S
Co58 N74 2.256 1_545 S
Co58 N80 2.309 . S
N59 Co58 1.981 1_565 S
N59 C60 1.376 . S
N59 C63 1.383 . S
C60 N59 1.376 . S
C60 C61 1.446 . S
C60 C90 1.391 . S
C61 C60 1.446 . S
C61 C62 1.339 . S
C61 H96 0.949 . S
C62 C61 1.339 . S
C62 C63 1.439 . S
C62 H97 0.950 . S
C63 N59 1.383 . S
C63 C62 1.439 . S
C63 C92 1.392 . S
N64 Co58 2.015 . S
N64 C65 1.376 1_545 S
N64 C68 1.374 . S
C65 N64 1.376 1_565 S
C65 C66 1.443 . S
C65 C92 1.389 . S
C66 C65 1.443 . S
C66 C67 1.340 1_565 S
C66 H98 0.951 . S
C67 C66 1.340 1_545 S
C67 C68 1.439 . S
C67 H99 0.950 . S
C68 N64 1.374 . S
C68 C67 1.439 . S
C68 C93 1.395 . S
N69 Co58 2.009 . S
N69 C70 1.376 . S
N69 C73 1.383 . S
C70 N69 1.376 . S
C70 C71 1.446 . S
C70 C93 1.391 . S
C71 C70 1.446 . S
C71 C72 1.339 . S
C71 H100 0.949 . S
C72 C71 1.339 . S
C72 C73 1.439 . S
C72 H101 0.950 . S
C73 N69 1.383 . S
C73 C72 1.439 . S
C73 C91 1.392 . S
N74 Co58 2.256 1_565 S
N74 C77 1.332 . S
N74 C79 1.332 . S
C75 C76 1.386 . S
C75 C78 1.388 . S
C76 C75 1.386 . S
C76 C77 1.382 . S
C76 H102 0.950 . S
C77 N74 1.332 . S
C77 C76 1.382 . S
C77 H88 0.952 1_565 S
C78 C75 1.388 . S
C78 C79 1.382 . S
C78 H103 0.950 . S
C79 N74 1.332 . S
C79 C78 1.382 . S
C79 H89 0.948 . S
N80 Co58 2.309 . S
N80 C84 1.332 . S
N80 C85 1.332 . S
C81 C82 1.388 . S
C81 C85 1.382 . S
C81 H104 0.950 . S
C82 C81 1.388 . S
C82 C83 1.386 . S
C83 C82 1.386 . S
C83 C84 1.382 . S
C83 H105 0.950 . S
C84 N80 1.332 . S
C84 C83 1.382 . S
C84 H86 0.952 1_545 S
C85 N80 1.332 . S
C85 C81 1.382 . S
C85 H87 0.948 . S
H86 C84 0.952 1_565 S
H87 C85 0.948 . S
H88 C77 0.952 1_545 S
H89 C79 0.948 . S
C90 C56 1.395 . S
C90 C60 1.391 . S
C91 C53 1.389 . S
C91 C73 1.392 . S
C92 C63 1.392 . S
C92 C65 1.389 . S
C93 C68 1.395 . S
C93 C70 1.391 . S
H94 C54 0.951 . S
H95 C55 0.950 . S
H96 C61 0.949 . S
H97 C62 0.950 . S
H98 C66 0.951 . S
H99 C67 0.950 . S
H100 C71 0.949 . S
H101 C72 0.950 . S
H102 C76 0.950 . S
H103 C78 0.950 . S
H104 C81 0.950 . S
H105 C83 0.950 . S
C106 C107 1.443 . S
C106 N110 1.376 . S
C106 C144 1.389 . S
C107 C106 1.443 . S
C107 C108 1.340 . S
C107 H147 0.951 . S
C108 C107 1.340 . S
C108 C109 1.439 . S
C108 H148 0.950 . S
C109 C108 1.439 . S
C109 N110 1.374 . S
C109 C143 1.395 . S
N110 C106 1.376 . S
N110 C109 1.374 . S
N110 Co111 1.987 1_556 S
Co111 N110 1.987 1_554 S
Co111 N112 1.990 1_554 S
Co111 N117 2.029 . S
Co111 N122 2.000 . S
Co111 N127 2.296 . S
Co111 N133 2.269 1_554 S
N112 Co111 1.990 1_556 S
N112 C113 1.376 . S
N112 C116 1.383 1_556 S
C113 N112 1.376 . S
C113 C114 1.446 . S
C113 C143 1.391 . S
C114 C113 1.446 . S
C114 C115 1.339 . S
C114 H149 0.949 . S
C115 C114 1.339 . S
C115 C116 1.439 1_556 S
C115 H150 0.950 1_556 S
C116 N112 1.383 1_554 S
C116 C115 1.439 1_554 S
C116 C145 1.392 . S
N117 Co111 2.029 . S
N117 C118 1.376 . S
N117 C121 1.374 . S
C118 N117 1.376 . S
C118 C119 1.443 . S
C118 C145 1.389 . S
C119 C118 1.443 . S
C119 C120 1.340 . S
C119 H151 0.951 . S
C120 C119 1.340 . S
C120 C121 1.439 . S
C120 H152 0.950 . S
C121 N117 1.374 . S
C121 C120 1.439 . S
C121 C146 1.395 . S
N122 Co111 2.000 . S
N122 C123 1.376 . S
N122 C126 1.383 1_554 S
C123 N122 1.376 . S
C123 C124 1.446 . S
C123 C146 1.391 . S
C124 C123 1.446 . S
C124 C125 1.339 . S
C124 H153 0.949 . S
C125 C124 1.339 . S
C125 C126 1.439 1_554 S
C125 H154 0.950 1_554 S
C126 N122 1.383 1_556 S
C126 C125 1.439 1_556 S
C126 C144 1.392 . S
N127 Co111 2.296 . S
N127 C130 1.332 . S
N127 C132 1.332 . S
C128 C129 1.386 . S
C128 C131 1.388 . S
C129 C128 1.386 . S
C129 C130 1.382 . S
C129 H155 0.950 . S
C130 N127 1.332 . S
C130 C129 1.382 . S
C130 H141 0.952 . S
C131 C128 1.388 . S
C131 C132 1.382 . S
C131 H156 0.950 . S
C132 N127 1.332 . S
C132 C131 1.382 . S
C132 H142 0.948 . S
N133 Co111 2.269 1_556 S
N133 C137 1.332 . S
N133 C138 1.332 . S
C134 C135 1.388 . S
C134 C138 1.382 . S
C134 H157 0.950 . S
C135 C134 1.388 . S
C135 C136 1.386 . S
C136 C135 1.386 . S
C136 C137 1.382 . S
C136 H158 0.950 . S
C137 N133 1.332 . S
C137 C136 1.382 . S
C137 H139 0.952 . S
C138 N133 1.332 . S
C138 C134 1.382 . S
C138 H140 0.971 . S
H139 C137 0.952 . S
H140 C138 0.971 . S
H141 C130 0.952 . S
H142 C132 0.948 . S
C143 C109 1.395 . S
C143 C113 1.391 . S
C144 C106 1.389 . S
C144 C126 1.392 . S
C145 C116 1.392 . S
C145 C118 1.389 . S
C146 C121 1.395 . S
C146 C123 1.391 . S
H147 C107 0.951 . S
H148 C108 0.950 . S
H149 C114 0.949 . S
H150 C115 0.950 1_554 S
H151 C119 0.951 . S
H152 C120 0.950 . S
H153 C124 0.949 . S
H154 C125 0.950 1_556 S
H155 C129 0.950 . S
H156 C131 0.950 . S
H157 C134 0.950 . S
H158 C136 0.950 . S
C159 C160 1.443 . S
C159 N163 1.376 . S
C159 C197 1.389 . S
C160 C159 1.443 . S
C160 C161 1.340 . S
C160 H200 0.951 . S
C161 C160 1.340 . S
C161 C162 1.439 . S
C161 H201 0.950 . S
C162 C161 1.439 . S
C162 N163 1.374 . S
C162 C196 1.395 . S
N163 C159 1.376 . S
N163 C162 1.374 . S
N163 Co164 1.981 1_655 S
Co164 N163 1.981 1_455 S
Co164 N165 1.977 1_455 S
Co164 N170 2.036 . S
Co164 N175 2.013 . S
Co164 N180 2.316 . S
Co164 N186 2.250 1_455 S
N165 Co164 1.977 1_655 S
N165 C166 1.376 . S
N165 C169 1.383 1_655 S
C166 N165 1.376 . S
C166 C167 1.446 . S
C166 C196 1.391 . S
C167 C166 1.446 . S
C167 C168 1.339 1_655 S
C167 H202 0.949 . S
C168 C167 1.339 1_455 S
C168 C169 1.439 . S
C168 H203 0.950 . S
C169 N165 1.383 1_455 S
C169 C168 1.439 . S
C169 C198 1.392 . S
N170 Co164 2.036 . S
N170 C171 1.376 . S
N170 C174 1.374 . S
C171 N170 1.376 . S
C171 C172 1.443 . S
C171 C198 1.389 . S
C172 C171 1.443 . S
C172 C173 1.340 . S
C172 H204 0.951 . S
C173 C172 1.340 . S
C173 C174 1.439 . S
C173 H205 0.950 . S
C174 N170 1.374 . S
C174 C173 1.439 . S
C174 C199 1.395 . S
N175 Co164 2.013 . S
N175 C176 1.376 . S
N175 C179 1.383 1_455 S
C176 N175 1.376 . S
C176 C177 1.446 . S
C176 C199 1.391 . S
C177 C176 1.446 . S
C177 C178 1.339 1_455 S
C177 H206 0.949 . S
C178 C177 1.339 1_655 S
C178 C179 1.439 . S
C178 H207 0.950 . S
C179 N175 1.383 1_655 S
C179 C178 1.439 . S
C179 C197 1.392 . S
N180 Co164 2.316 . S
N180 C183 1.332 . S
N180 C185 1.332 . S
C181 C182 1.386 . S
C181 C184 1.388 . S
C182 C181 1.386 . S
C182 C183 1.382 . S
C182 H208 0.950 . S
C183 N180 1.332 . S
C183 C182 1.382 . S
C183 H194 0.952 . S
C184 C181 1.388 . S
C184 C185 1.382 . S
C184 H209 0.950 . S
C185 N180 1.332 . S
C185 C184 1.382 . S
C185 H195 0.948 . S
N186 Co164 2.250 1_655 S
N186 C190 1.332 . S
N186 C191 1.332 . S
C187 C188 1.388 . S
C187 C191 1.382 . S
C187 H210 0.950 . S
C188 C187 1.388 . S
C188 C189 1.386 . S
C189 C188 1.386 . S
C189 C190 1.382 . S
C189 H211 0.950 . S
C190 N186 1.332 . S
C190 C189 1.382 . S
C190 H192 0.952 . S
C191 N186 1.332 . S
C191 C187 1.382 . S
C191 H193 0.948 . S
H192 C190 0.952 . S
H193 C191 0.948 . S
H194 C183 0.952 . S
H195 C185 0.948 . S
C196 C162 1.395 . S
C196 C166 1.391 . S
C197 C159 1.389 . S
C197 C179 1.392 . S
C198 C169 1.392 . S
C198 C171 1.389 . S
C199 C174 1.395 . S
C199 C176 1.391 . S
H200 C160 0.951 . S
H201 C161 0.950 . S
H202 C167 0.949 . S
H203 C168 0.950 . S
H204 C172 0.951 . S
H205 C173 0.950 . S
H206 C177 0.949 . S
H207 C178 0.950 . S
H208 C182 0.950 . S
H209 C184 0.950 . S
H210 C187 0.950 . S
H211 C189 0.950 . S
C212 C213 1.443 . S
C212 N216 1.376 1_565 S
C212 C250 1.389 . S
C213 C212 1.443 . S
C213 C214 1.340 1_565 S
C213 H253 0.951 . S
C214 C213 1.340 1_545 S
C214 C215 1.439 . S
C214 H254 0.950 . S
C215 C214 1.439 . S
C215 N216 1.374 . S
C215 C249 1.395 . S
N216 C212 1.376 1_545 S
N216 C215 1.374 . S
N216 Co217 2.040 . S
Co217 N216 2.040 . S
Co217 N218 2.013 . S
Co217 N223 1.977 1_544 S
Co217 N228 1.977 1_544 S
Co217 N233 2.297 1_554 S
Co217 N239 2.269 1_545 S
N218 Co217 2.013 . S
N218 C219 1.376 . S
N218 C222 1.383 1_554 S
C219 N218 1.376 . S
C219 C220 1.446 . S
C219 C249 1.391 . S
C220 C219 1.446 . S
C220 C221 1.339 1_554 S
C220 H255 0.949 . S
C221 C220 1.339 1_556 S
C221 C222 1.439 . S
C221 H256 0.950 . S
C222 N218 1.383 1_556 S
C222 C221 1.439 . S
C222 C251 1.392 . S
N223 Co217 1.977 1_566 S
N223 C224 1.376 1_565 S
N223 C227 1.374 . S
C224 N223 1.376 1_545 S
C224 C225 1.443 . S
C224 C251 1.389 . S
C225 C224 1.443 . S
C225 C226 1.340 1_545 S
C225 H257 0.951 . S
C226 C225 1.340 1_565 S
C226 C227 1.439 . S
C226 H258 0.950 . S
C227 N223 1.374 . S
C227 C226 1.439 . S
C227 C252 1.395 . S
N228 Co217 1.977 1_566 S
N228 C229 1.376 . S
N228 C232 1.383 1_556 S
C229 N228 1.376 . S
C229 C230 1.446 . S
C229 C252 1.391 . S
C230 C229 1.446 . S
C230 C231 1.339 1_556 S
C230 H259 0.949 . S
C231 C230 1.339 1_554 S
C231 C232 1.439 . S
C231 H260 0.950 . S
C232 N228 1.383 1_554 S
C232 C231 1.439 . S
C232 C250 1.392 . S
N233 Co217 2.297 1_556 S
N233 C236 1.332 . S
N233 C238 1.332 . S
C234 C235 1.386 . S
C234 C237 1.388 . S
C235 C234 1.386 . S
C235 C236 1.382 . S
C235 H261 0.950 . S
C236 N233 1.332 . S
C236 C235 1.382 . S
C236 H247 0.952 1_545 S
C237 C234 1.388 . S
C237 C238 1.382 . S
C237 H262 0.950 . S
C238 N233 1.332 . S
C238 C237 1.382 . S
C238 H248 0.948 . S
N239 Co217 2.269 1_565 S
N239 C243 1.332 . S
N239 C244 1.332 . S
C240 C241 1.388 . S
C240 C244 1.382 . S
C240 H263 0.950 . S
C241 C240 1.388 . S
C241 C242 1.386 . S
C242 C241 1.386 . S
C242 C243 1.382 . S
C242 H264 0.950 . S
C243 N239 1.332 . S
C243 C242 1.382 . S
C243 H245 0.952 1_565 S
C244 N239 1.332 . S
C244 C240 1.382 . S
C244 H246 0.948 . S
H245 C243 0.952 1_545 S
H246 C244 0.948 . S
H247 C236 0.952 1_565 S
H248 C238 0.948 . S
C249 C215 1.395 . S
C249 C219 1.391 . S
C250 C212 1.389 . S
C250 C232 1.392 . S
C251 C222 1.392 . S
C251 C224 1.389 . S
C252 C227 1.395 . S
C252 C229 1.391 . S
H253 C213 0.951 . S
H254 C214 0.950 . S
H255 C220 0.949 . S
H256 C221 0.950 . S
H257 C225 0.951 . S
H258 C226 0.950 . S
H259 C230 0.949 . S
H260 C231 0.950 . S
H261 C235 0.950 . S
H262 C237 0.950 . S
H263 C240 0.950 . S
H264 C242 0.950 . S
C265 C266 1.443 . S
C265 N269 1.376 . S
C265 C303 1.389 . S
C266 C265 1.443 . S
C266 C267 1.340 . S
C266 H306 0.951 . S
C267 C266 1.340 . S
C267 C268 1.439 . S
C267 H307 0.950 . S
C268 C267 1.439 . S
C268 N269 1.374 . S
C268 C302 1.395 . S
N269 C265 1.376 . S
N269 C268 1.374 . S
N269 Co270 2.008 . S
Co270 N269 2.008 . S
Co270 N271 1.995 . S
Co270 N276 2.008 . S
Co270 N281 1.995 . S
Co270 N286 2.282 . S
Co270 N292 2.282 . S
N271 Co270 1.995 . S
N271 C272 1.376 . S
N271 C275 1.383 . S
C272 N271 1.376 . S
C272 C273 1.446 . S
C272 C302 1.391 . S
C273 C272 1.446 . S
C273 C274 1.339 . S
C273 H308 0.949 . S
C274 C273 1.339 . S
C274 C275 1.439 . S
C274 H309 0.950 . S
C275 N271 1.383 . S
C275 C274 1.439 . S
C275 C304 1.392 . S
N276 Co270 2.008 . S
N276 C277 1.376 . S
N276 C280 1.374 . S
C277 N276 1.376 . S
C277 C278 1.443 . S
C277 C304 1.389 . S
C278 C277 1.443 . S
C278 C279 1.340 . S
C278 H310 0.951 . S
C279 C278 1.340 . S
C279 C280 1.439 . S
C279 H311 0.950 . S
C280 N276 1.374 . S
C280 C279 1.439 . S
C280 C305 1.395 . S
N281 Co270 1.995 . S
N281 C282 1.376 . S
N281 C285 1.383 . S
C282 N281 1.376 . S
C282 C283 1.446 . S
C282 C305 1.391 . S
C283 C282 1.446 . S
C283 C284 1.339 . S
C283 H312 0.949 . S
C284 C283 1.339 . S
C284 C285 1.439 . S
C284 H313 0.950 . S
C285 N281 1.383 . S
C285 C284 1.439 . S
C285 C303 1.392 . S
N286 Co270 2.282 . S
N286 C289 1.332 . S
N286 C291 1.332 . S
C287 C288 1.386 . S
C287 C290 1.388 . S
C288 C287 1.386 . S
C288 C289 1.382 . S
C288 H314 0.950 . S
C289 N286 1.332 . S
C289 C288 1.382 . S
C289 H300 0.952 . S
C290 C287 1.388 . S
C290 C291 1.382 . S
C290 H315 0.950 . S
C291 N286 1.332 . S
C291 C290 1.382 . S
C291 H301 0.948 . S
N292 Co270 2.282 . S
N292 C296 1.332 . S
N292 C297 1.332 . S
C293 C294 1.388 . S
C293 C297 1.382 . S
C293 H316 0.950 . S
C294 C293 1.388 . S
C294 C295 1.386 . S
C295 C294 1.386 . S
C295 C296 1.382 . S
C295 H317 0.950 . S
C296 N292 1.332 . S
C296 C295 1.382 . S
C296 H298 0.952 . S
C297 N292 1.332 . S
C297 C293 1.382 . S
C297 H299 0.948 . S
H298 C296 0.952 . S
H299 C297 0.948 . S
H300 C289 0.952 . S
H301 C291 0.948 . S
C302 C268 1.395 . S
C302 C272 1.391 . S
C303 C265 1.389 . S
C303 C285 1.392 . S
C304 C275 1.392 . S
C304 C277 1.389 . S
C305 C280 1.395 . S
C305 C282 1.391 . S
H306 C266 0.951 . S
H307 C267 0.950 . S
H308 C273 0.949 . S
H309 C274 0.950 . S
H310 C278 0.951 . S
H311 C279 0.950 . S
H312 C283 0.949 . S
H313 C284 0.950 . S
H314 C288 0.950 . S
H315 C290 0.950 . S
H316 C293 0.950 . S
H317 C295 0.950 . S
C318 C319 1.384 . S
C318 C320 1.384 . S
C318 H346 0.931 . S
C319 C318 1.384 . S
C319 C322 1.382 . S
C320 C318 1.384 . S
C320 C321 1.381 . S
C320 H347 0.930 . S
C321 C320 1.381 . S
C321 C323 1.381 . S
C321 C324 1.487 . S
C322 C319 1.382 . S
C322 C323 1.387 . S
C322 H348 0.930 . S
C323 C321 1.381 . S
C323 C322 1.387 . S
C323 H349 0.931 . S
C324 C321 1.487 . S
C324 C331 1.399 . S
C324 N362 1.343 . S
C325 C326 1.384 . S
C325 C327 1.384 . S
C325 H350 0.931 . S
C326 C325 1.384 . S
C326 C329 1.382 . S
C327 C325 1.384 . S
C327 C328 1.381 . S
C327 H351 0.930 . S
C328 C327 1.381 . S
C328 C330 1.381 . S
C328 C331 1.487 . S
C329 C326 1.382 . S
C329 C330 1.387 . S
C329 H352 0.930 . S
C330 C328 1.381 . S
C330 C329 1.387 . S
C330 H353 0.931 . S
C331 C324 1.399 . S
C331 C328 1.487 . S
C331 N363 1.343 . S
C332 C333 1.384 . S
C332 C334 1.384 . S
C332 H354 0.931 . S
C333 C332 1.384 . S
C333 C336 1.382 . S
C334 C332 1.384 . S
C334 C335 1.381 . S
C334 H355 0.930 . S
C335 C334 1.381 . S
C335 C337 1.381 . S
C335 C338 1.487 . S
C336 C333 1.382 . S
C336 C337 1.387 . S
C336 H356 0.930 . S
C337 C335 1.381 . S
C337 C336 1.387 . S
C337 H357 0.931 . S
C338 C335 1.487 . S
C338 C345 1.399 . S
C338 N363 1.343 . S
C339 C340 1.384 . S
C339 C341 1.384 . S
C339 H358 0.931 . S
C340 C339 1.384 . S
C340 C343 1.382 . S
C341 C339 1.384 . S
C341 C342 1.381 . S
C341 H359 0.930 . S
C342 C341 1.381 . S
C342 C344 1.381 . S
C342 C345 1.487 . S
C343 C340 1.382 . S
C343 C344 1.387 . S
C343 H360 0.930 . S
C344 C342 1.381 . S
C344 C343 1.387 . S
C344 H361 0.931 . S
C345 C338 1.399 . S
C345 C342 1.487 . S
C345 N362 1.343 . S
H346 C318 0.931 . S
H347 C320 0.930 . S
H348 C322 0.930 . S
H349 C323 0.931 . S
H350 C325 0.931 . S
H351 C327 0.930 . S
H352 C329 0.930 . S
H353 C330 0.931 . S
H354 C332 0.931 . S
H355 C334 0.930 . S
H356 C336 0.930 . S
H357 C337 0.931 . S
H358 C339 0.931 . S
H359 C341 0.930 . S
H360 C343 0.930 . S
H361 C344 0.931 . S
N362 C324 1.343 . S
N362 C345 1.343 . S
N363 C331 1.343 . S
N363 C338 1.343 . S
C364 C365 1.384 . S
C364 C366 1.384 . S
C364 H392 0.931 . S
C365 C364 1.384 . S
C365 C368 1.382 . S
C366 C364 1.384 . S
C366 C367 1.381 . S
C366 H393 0.930 . S
C367 C366 1.381 . S
C367 C369 1.381 . S
C367 C370 1.487 . S
C368 C365 1.382 . S
C368 C369 1.387 . S
C368 H394 0.930 . S
C369 C367 1.381 . S
C369 C368 1.387 . S
C369 H395 0.931 . S
C370 C367 1.487 . S
C370 C377 1.399 . S
C370 N408 1.343 . S
C371 C372 1.384 . S
C371 C373 1.384 . S
C371 H396 0.931 . S
C372 C371 1.384 . S
C372 C375 1.382 . S
C373 C371 1.384 . S
C373 C374 1.381 . S
C373 H397 0.930 . S
C374 C373 1.381 . S
C374 C376 1.381 . S
C374 C377 1.487 . S
C375 C372 1.382 . S
C375 C376 1.387 . S
C375 H398 0.930 . S
C376 C374 1.381 . S
C376 C375 1.387 . S
C376 H399 0.931 . S
C377 C370 1.399 . S
C377 C374 1.487 . S
C377 N409 1.343 . S
C378 C379 1.384 . S
C378 C380 1.384 . S
C378 H400 0.931 . S
C379 C378 1.384 . S
C379 C382 1.382 . S
C380 C378 1.384 . S
C380 C381 1.381 . S
C380 H401 0.930 . S
C381 C380 1.381 . S
C381 C383 1.381 . S
C381 C384 1.487 . S
C382 C379 1.382 . S
C382 C383 1.387 . S
C382 H402 0.930 . S
C383 C381 1.381 . S
C383 C382 1.387 . S
C383 H403 0.931 . S
C384 C381 1.487 . S
C384 C391 1.399 . S
C384 N409 1.343 . S
C385 C386 1.384 . S
C385 C387 1.384 . S
C385 H404 0.931 . S
C386 C385 1.384 . S
C386 C389 1.382 . S
C387 C385 1.384 . S
C387 C388 1.381 . S
C387 H405 0.930 . S
C388 C387 1.381 . S
C388 C390 1.381 . S
C388 C391 1.487 . S
C389 C386 1.382 . S
C389 C390 1.387 . S
C389 H406 0.930 . S
C390 C388 1.381 . S
C390 C389 1.387 . S
C390 H407 0.931 . S
C391 C384 1.399 . S
C391 C388 1.487 . S
C391 N408 1.343 . S
H392 C364 0.931 . S
H393 C366 0.930 . S
H394 C368 0.930 . S
H395 C369 0.931 . S
H396 C371 0.931 . S
H397 C373 0.930 . S
H398 C375 0.930 . S
H399 C376 0.931 . S
H400 C378 0.931 . S
H401 C380 0.930 . S
H402 C382 0.930 . S
H403 C383 0.931 . S
H404 C385 0.931 . S
H405 C387 0.930 . S
H406 C389 0.930 . S
H407 C390 0.931 . S
N408 C370 1.343 . S
N408 C391 1.343 . S
N409 C377 1.343 . S
N409 C384 1.343 . S
C410 C411 1.384 . S
C410 C412 1.384 . S
C410 H438 0.931 . S
C411 C410 1.384 . S
C411 C414 1.382 . S
C412 C410 1.384 . S
C412 C413 1.381 . S
C412 H439 0.930 . S
C413 C412 1.381 . S
C413 C415 1.381 . S
C413 C416 1.487 . S
C414 C411 1.382 . S
C414 C415 1.387 . S
C414 H440 0.930 . S
C415 C413 1.381 . S
C415 C414 1.387 . S
C415 H441 0.931 . S
C416 C413 1.487 . S
C416 C423 1.399 . S
C416 N454 1.343 . S
C417 C418 1.384 . S
C417 C419 1.384 . S
C417 H442 0.931 . S
C418 C417 1.384 . S
C418 C421 1.382 . S
C419 C417 1.384 . S
C419 C420 1.381 . S
C419 H443 0.930 . S
C420 C419 1.381 . S
C420 C422 1.381 . S
C420 C423 1.487 . S
C421 C418 1.382 . S
C421 C422 1.387 . S
C421 H444 0.930 . S
C422 C420 1.381 . S
C422 C421 1.387 . S
C422 H445 0.931 . S
C423 C416 1.399 . S
C423 C420 1.487 . S
C423 N455 1.343 . S
C424 C425 1.384 . S
C424 C426 1.384 . S
C424 H446 0.931 . S
C425 C424 1.384 . S
C425 C428 1.382 . S
C426 C424 1.384 . S
C426 C427 1.381 . S
C426 H447 0.930 . S
C427 C426 1.381 . S
C427 C429 1.381 . S
C427 C430 1.487 . S
C428 C425 1.382 . S
C428 C429 1.387 . S
C428 H448 0.930 . S
C429 C427 1.381 . S
C429 C428 1.387 . S
C429 H449 0.931 . S
C430 C427 1.487 . S
C430 C437 1.399 . S
C430 N455 1.343 . S
C431 C432 1.384 . S
C431 C433 1.384 . S
C431 H450 0.931 . S
C432 C431 1.384 . S
C432 C435 1.382 . S
C433 C431 1.384 . S
C433 C434 1.381 . S
C433 H451 0.930 . S
C434 C433 1.381 . S
C434 C436 1.381 . S
C434 C437 1.487 . S
C435 C432 1.382 . S
C435 C436 1.387 . S
C435 H452 0.930 . S
C436 C434 1.381 . S
C436 C435 1.387 . S
C436 H453 0.931 . S
C437 C430 1.399 . S
C437 C434 1.487 . S
C437 N454 1.343 . S
H438 C410 0.931 . S
H439 C412 0.930 . S
H440 C414 0.930 . S
H441 C415 0.931 . S
H442 C417 0.931 . S
H443 C419 0.930 . S
H444 C421 0.930 . S
H445 C422 0.931 . S
H446 C424 0.931 . S
H447 C426 0.930 . S
H448 C428 0.930 . S
H449 C429 0.931 . S
H450 C431 0.931 . S
H451 C433 0.930 . S
H452 C435 0.930 . S
H453 C436 0.931 . S
N454 C416 1.343 . S
N454 C437 1.343 . S
N455 C423 1.343 . S
N455 C430 1.343 . S
C456 C457 1.384 . S
C456 C458 1.384 . S
C456 H484 0.931 . S
C457 C456 1.384 . S
C457 C460 1.382 . S
C458 C456 1.384 . S
C458 C459 1.381 . S
C458 H485 0.930 . S
C459 C458 1.381 . S
C459 C461 1.381 . S
C459 C462 1.487 . S
C460 C457 1.382 . S
C460 C461 1.387 . S
C460 H486 0.930 . S
C461 C459 1.381 . S
C461 C460 1.387 . S
C461 H487 0.931 . S
C462 C459 1.487 . S
C462 C469 1.399 . S
C462 N500 1.343 . S
C463 C464 1.384 . S
C463 C465 1.384 . S
C463 H488 0.931 . S
C464 C463 1.384 . S
C464 C467 1.382 . S
C465 C463 1.384 . S
C465 C466 1.381 . S
C465 H489 0.930 . S
C466 C465 1.381 . S
C466 C468 1.381 . S
C466 C469 1.487 . S
C467 C464 1.382 . S
C467 C468 1.387 . S
C467 H490 0.930 . S
C468 C466 1.381 . S
C468 C467 1.387 . S
C468 H491 0.931 . S
C469 C462 1.399 . S
C469 C466 1.487 . S
C469 N501 1.343 . S
C470 C471 1.384 . S
C470 C472 1.384 . S
C470 H492 0.931 . S
C471 C470 1.384 . S
C471 C474 1.382 . S
C472 C470 1.384 . S
C472 C473 1.381 . S
C472 H493 0.930 . S
C473 C472 1.381 . S
C473 C475 1.381 . S
C473 C476 1.487 . S
C474 C471 1.382 . S
C474 C475 1.387 . S
C474 H494 0.930 . S
C475 C473 1.381 . S
C475 C474 1.387 . S
C475 H495 0.931 . S
C476 C473 1.487 . S
C476 C483 1.399 . S
C476 N501 1.343 . S
C477 C478 1.384 . S
C477 C479 1.384 . S
C477 H496 0.931 . S
C478 C477 1.384 . S
C478 C481 1.382 . S
C479 C477 1.384 . S
C479 C480 1.381 . S
C479 H497 0.930 . S
C480 C479 1.381 . S
C480 C482 1.381 . S
C480 C483 1.487 . S
C481 C478 1.382 . S
C481 C482 1.387 . S
C481 H498 0.930 . S
C482 C480 1.381 . S
C482 C481 1.387 . S
C482 H499 0.931 . S
C483 C476 1.399 . S
C483 C480 1.487 . S
C483 N500 1.343 . S
H484 C456 0.931 . S
H485 C458 0.930 . S
H486 C460 0.930 . S
H487 C461 0.931 . S
H488 C463 0.931 . S
H489 C465 0.930 . S
H490 C467 0.930 . S
H491 C468 0.931 . S
H492 C470 0.931 . S
H493 C472 0.930 . S
H494 C474 0.930 . S
H495 C475 0.931 . S
H496 C477 0.931 . S
H497 C479 0.930 . S
H498 C481 0.930 . S
H499 C482 0.931 . S
N500 C462 1.343 . S
N500 C483 1.343 . S
N501 C469 1.343 . S
N501 C476 1.343 . S
C502 C503 1.384 . S
C502 C504 1.384 . S
C502 H530 0.931 . S
C503 C502 1.384 . S
C503 C506 1.382 . S
C504 C502 1.384 . S
C504 C505 1.381 . S
C504 H531 0.930 . S
C505 C504 1.381 . S
C505 C507 1.381 . S
C505 C508 1.487 . S
C506 C503 1.382 . S
C506 C507 1.387 . S
C506 H532 0.930 . S
C507 C505 1.381 . S
C507 C506 1.387 . S
C507 H533 0.931 . S
C508 C505 1.487 . S
C508 C515 1.399 . S
C508 N546 1.343 . S
C509 C510 1.384 . S
C509 C511 1.384 . S
C509 H534 0.931 . S
C510 C509 1.384 . S
C510 C513 1.382 . S
C511 C509 1.384 . S
C511 C512 1.381 . S
C511 H535 0.930 . S
C512 C511 1.381 . S
C512 C514 1.381 . S
C512 C515 1.487 . S
C513 C510 1.382 . S
C513 C514 1.387 . S
C513 H536 0.930 . S
C514 C512 1.381 . S
C514 C513 1.387 . S
C514 H537 0.931 . S
C515 C508 1.399 . S
C515 C512 1.487 . S
C515 N547 1.343 . S
C516 C517 1.384 . S
C516 C518 1.384 . S
C516 H538 0.931 . S
C517 C516 1.384 . S
C517 C520 1.382 . S
C518 C516 1.384 . S
C518 C519 1.381 . S
C518 H539 0.930 . S
C519 C518 1.381 . S
C519 C521 1.381 . S
C519 C522 1.487 . S
C520 C517 1.382 . S
C520 C521 1.387 . S
C520 H540 0.930 . S
C521 C519 1.381 . S
C521 C520 1.387 . S
C521 H541 0.931 . S
C522 C519 1.487 . S
C522 C529 1.399 . S
C522 N547 1.343 . S
C523 C524 1.384 . S
C523 C525 1.384 . S
C523 H542 0.931 . S
C524 C523 1.384 . S
C524 C527 1.382 . S
C525 C523 1.384 . S
C525 C526 1.381 . S
C525 H543 0.930 . S
C526 C525 1.381 . S
C526 C528 1.381 . S
C526 C529 1.487 . S
C527 C524 1.382 . S
C527 C528 1.387 . S
C527 H544 0.930 . S
C528 C526 1.381 . S
C528 C527 1.387 . S
C528 H545 0.931 . S
C529 C522 1.399 . S
C529 C526 1.487 . S
C529 N546 1.343 . S
H530 C502 0.931 . S
H531 C504 0.930 . S
H532 C506 0.930 . S
H533 C507 0.931 . S
H534 C509 0.931 . S
H535 C511 0.930 . S
H536 C513 0.930 . S
H537 C514 0.931 . S
H538 C516 0.931 . S
H539 C518 0.930 . S
H540 C520 0.930 . S
H541 C521 0.931 . S
H542 C523 0.931 . S
H543 C525 0.930 . S
H544 C527 0.930 . S
H545 C528 0.931 . S
N546 C508 1.343 . S
N546 C529 1.343 . S
N547 C515 1.343 . S
N547 C522 1.343 . S
C548 C549 1.384 . S
C548 C550 1.384 . S
C548 H576 0.931 . S
C549 C548 1.384 . S
C549 C552 1.382 . S
C550 C548 1.384 . S
C550 C551 1.381 . S
C550 H577 0.930 . S
C551 C550 1.381 . S
C551 C553 1.381 . S
C551 C554 1.487 . S
C552 C549 1.382 . S
C552 C553 1.387 . S
C552 H578 0.930 . S
C553 C551 1.381 . S
C553 C552 1.387 . S
C553 H579 0.931 . S
C554 C551 1.487 . S
C554 C561 1.399 . S
C554 N592 1.343 . S
C555 C556 1.384 . S
C555 C557 1.384 . S
C555 H580 0.931 . S
C556 C555 1.384 . S
C556 C559 1.382 . S
C557 C555 1.384 . S
C557 C558 1.381 . S
C557 H581 0.930 . S
C558 C557 1.381 . S
C558 C560 1.381 . S
C558 C561 1.487 . S
C559 C556 1.382 . S
C559 C560 1.387 . S
C559 H582 0.930 . S
C560 C558 1.381 . S
C560 C559 1.387 . S
C560 H583 0.931 . S
C561 C554 1.399 . S
C561 C558 1.487 . S
C561 N593 1.343 . S
C562 C563 1.384 . S
C562 C564 1.384 . S
C562 H584 0.931 . S
C563 C562 1.384 . S
C563 C566 1.382 . S
C564 C562 1.384 . S
C564 C565 1.381 . S
C564 H585 0.930 . S
C565 C564 1.381 . S
C565 C567 1.381 . S
C565 C568 1.487 . S
C566 C563 1.382 . S
C566 C567 1.387 . S
C566 H586 0.930 . S
C567 C565 1.381 . S
C567 C566 1.387 . S
C567 H587 0.931 . S
C568 C565 1.487 . S
C568 C575 1.399 . S
C568 N593 1.343 . S
C569 C570 1.384 . S
C569 C571 1.384 . S
C569 H588 0.931 . S
C570 C569 1.384 . S
C570 C573 1.382 . S
C571 C569 1.384 . S
C571 C572 1.381 . S
C571 H589 0.930 . S
C572 C571 1.381 . S
C572 C574 1.381 . S
C572 C575 1.487 . S
C573 C570 1.382 . S
C573 C574 1.387 . S
C573 H590 0.930 . S
C574 C572 1.381 . S
C574 C573 1.387 . S
C574 H591 0.931 . S
C575 C568 1.399 . S
C575 C572 1.487 . S
C575 N592 1.343 . S
H576 C548 0.931 . S
H577 C550 0.930 . S
H578 C552 0.930 . S
H579 C553 0.931 . S
H580 C555 0.931 . S
H581 C557 0.930 . S
H582 C559 0.930 . S
H583 C560 0.931 . S
H584 C562 0.931 . S
H585 C564 0.930 . S
H586 C566 0.930 . S
H587 C567 0.931 . S
H588 C569 0.931 . S
H589 C571 0.930 . S
H590 C573 0.930 . S
H591 C574 0.931 . S
N592 C554 1.343 . S
N592 C575 1.343 . S
N593 C561 1.343 . S
N593 C568 1.343 . S
C594 C595 1.369 . S
C594 C596 1.419 . S
C594 H598 0.930 . S
C595 C594 1.369 . S
C595 C604 1.429 . S
C596 C594 1.419 . S
C596 C597 1.363 . S
C596 H599 0.929 . S
C597 C596 1.363 . S
C597 C603 1.428 . S
H598 C594 0.930 . S
H599 C596 0.929 . S
S600 N601 1.613 . S
S600 N602 1.610 . S
N601 S600 1.613 . S
N601 C604 1.350 . S
N602 S600 1.610 . S
N602 C603 1.351 . S
C603 C597 1.428 . S
C603 N602 1.351 . S
C603 C604 1.434 . S
C604 C595 1.429 . S
C604 N601 1.350 . S
C604 C603 1.434 . S
C605 C606 1.369 . S
C605 C607 1.419 . S
C605 H609 0.930 . S
C606 C605 1.369 . S
C606 C615 1.429 . S
C607 C605 1.419 . S
C607 C608 1.363 . S
C607 H610 0.929 . S
C608 C607 1.363 . S
C608 C614 1.428 . S
H609 C605 0.930 . S
H610 C607 0.929 . S
S611 N612 1.613 . S
S611 N613 1.610 . S
N612 S611 1.613 . S
N612 C615 1.350 . S
N613 S611 1.610 . S
N613 C614 1.351 . S
C614 C608 1.428 . S
C614 N613 1.351 . S
C614 C615 1.434 . S
C615 C606 1.429 . S
C615 N612 1.350 . S
C615 C614 1.434 . S
C616 C617 1.369 . S
C616 C618 1.419 . S
C616 H620 0.930 . S
C617 C616 1.369 . S
C617 C626 1.429 . S
C618 C616 1.419 . S
C618 C619 1.363 . S
C618 H621 0.929 . S
C619 C618 1.363 . S
C619 C625 1.428 . S
H620 C616 0.930 . S
H621 C618 0.929 . S
S622 N623 1.613 . S
S622 N624 1.610 . S
N623 S622 1.613 . S
N623 C626 1.350 . S
N624 S622 1.610 . S
N624 C625 1.351 . S
C625 C619 1.428 . S
C625 N624 1.351 . S
C625 C626 1.434 . S
C626 C617 1.429 . S
C626 N623 1.350 . S
C626 C625 1.434 . S
C627 C628 1.369 . S
C627 C629 1.419 . S
C627 H631 0.930 . S
C628 C627 1.369 . S
C628 C637 1.429 . S
C629 C627 1.419 . S
C629 C630 1.363 . S
C629 H632 0.929 . S
C630 C629 1.363 . S
C630 C636 1.428 . S
H631 C627 0.930 . S
H632 C629 0.929 . S
S633 N634 1.613 . S
S633 N635 1.610 . S
N634 S633 1.613 . S
N634 C637 1.350 . S
N635 S633 1.610 . S
N635 C636 1.351 . S
C636 C630 1.428 . S
C636 N635 1.351 . S
C636 C637 1.434 . S
C637 C628 1.429 . S
C637 N634 1.350 . S
C637 C636 1.434 . S
C638 C639 1.369 . S
C638 C640 1.419 . S
C638 H642 0.930 . S
C639 C638 1.369 . S
C639 C648 1.429 . S
C640 C638 1.419 . S
C640 C641 1.363 . S
C640 H643 0.929 . S
C641 C640 1.363 . S
C641 C647 1.428 . S
H642 C638 0.930 . S
H643 C640 0.929 . S
S644 N645 1.613 . S
S644 N646 1.610 . S
N645 S644 1.613 . S
N645 C648 1.350 . S
N646 S644 1.610 . S
N646 C647 1.351 . S
C647 C641 1.428 . S
C647 N646 1.351 . S
C647 C648 1.434 . S
C648 C639 1.429 . S
C648 N645 1.350 . S
C648 C647 1.434 . S
C649 C650 1.369 . S
C649 C651 1.419 . S
C649 H653 0.930 . S
C650 C649 1.369 . S
C650 C659 1.429 . S
C651 C649 1.419 . S
C651 C652 1.363 . S
C651 H654 0.929 . S
C652 C651 1.363 . S
C652 C658 1.428 . S
H653 C649 0.930 . S
H654 C651 0.929 . S
S655 N656 1.613 . S
S655 N657 1.610 . S
N656 S655 1.613 . S
N656 C659 1.350 . S
N657 S655 1.610 . S
N657 C658 1.351 . S
C658 C652 1.428 . S
C658 N657 1.351 . S
C658 C659 1.434 . S
C659 C650 1.429 . S
C659 N656 1.350 . S
C659 C658 1.434 . S
C660 C661 1.369 . S
C660 C662 1.419 . S
C660 H664 0.930 . S
C661 C660 1.369 . S
C661 C670 1.429 . S
C662 C660 1.419 . S
C662 C663 1.363 . S
C662 H665 0.929 . S
C663 C662 1.363 . S
C663 C669 1.428 . S
H664 C660 0.930 . S
H665 C662 0.929 . S
S666 N667 1.613 . S
S666 N668 1.610 . S
N667 S666 1.613 . S
N667 C670 1.350 . S
N668 S666 1.610 . S
N668 C669 1.351 . S
C669 C663 1.428 . S
C669 N668 1.351 . S
C669 C670 1.434 . S
C670 C661 1.429 . S
C670 N667 1.350 . S
C670 C669 1.434 . S
C671 C672 1.369 . S
C671 C673 1.419 . S
C671 H675 0.930 . S
C672 C671 1.369 . S
C672 C681 1.429 . S
C673 C671 1.419 . S
C673 C674 1.363 . S
C673 H676 0.929 . S
C674 C673 1.363 . S
C674 C680 1.428 . S
H675 C671 0.930 . S
H676 C673 0.929 . S
S677 N678 1.613 . S
S677 N679 1.610 . S
N678 S677 1.613 . S
N678 C681 1.350 . S
N679 S677 1.610 . S
N679 C680 1.351 . S
C680 C674 1.428 . S
C680 N679 1.351 . S
C680 C681 1.434 . S
C681 C672 1.429 . S
C681 N678 1.350 . S
C681 C680 1.434 . S
C682 C683 1.369 . S
C682 C684 1.419 . S
C682 H686 0.930 . S
C683 C682 1.369 . S
C683 C692 1.429 . S
C684 C682 1.419 . S
C684 C685 1.363 . S
C684 H687 0.929 . S
C685 C684 1.363 . S
C685 C691 1.428 . S
H686 C682 0.930 . S
H687 C684 0.929 . S
S688 N689 1.613 . S
S688 N690 1.610 . S
N689 S688 1.613 . S
N689 C692 1.350 . S
N690 S688 1.610 . S
N690 C691 1.351 . S
C691 C685 1.428 . S
C691 N690 1.351 . S
C691 C692 1.434 . S
C692 C683 1.429 . S
C692 N689 1.350 . S
C692 C691 1.434 . S
C693 C694 1.369 . S
C693 C695 1.419 . S
C693 H697 0.930 . S
C694 C693 1.369 . S
C694 C703 1.429 . S
C695 C693 1.419 . S
C695 C696 1.363 . S
C695 H698 0.929 . S
C696 C695 1.363 . S
C696 C702 1.428 . S
H697 C693 0.930 . S
H698 C695 0.929 . S
S699 N700 1.613 . S
S699 N701 1.610 . S
N700 S699 1.613 . S
N700 C703 1.350 . S
N701 S699 1.610 . S
N701 C702 1.351 . S
C702 C696 1.428 . S
C702 N701 1.351 . S
C702 C703 1.434 . S
C703 C694 1.429 . S
C703 N700 1.350 . S
C703 C702 1.434 . S
C704 C705 1.369 . S
C704 C706 1.419 . S
C704 H708 0.930 . S
C705 C704 1.369 . S
C705 C714 1.429 . S
C706 C704 1.419 . S
C706 C707 1.363 . S
C706 H709 0.929 . S
C707 C706 1.363 . S
C707 C713 1.428 . S
H708 C704 0.930 . S
H709 C706 0.929 . S
S710 N711 1.613 . S
S710 N712 1.610 . S
N711 S710 1.613 . S
N711 C714 1.350 . S
N712 S710 1.610 . S
N712 C713 1.351 . S
C713 C707 1.428 . S
C713 N712 1.351 . S
C713 C714 1.434 . S
C714 C705 1.429 . S
C714 N711 1.350 . S
C714 C713 1.434 . S
C715 C716 1.369 . S
C715 C717 1.419 . S
C715 H719 0.930 . S
C716 C715 1.369 . S
C716 C725 1.429 . S
C717 C715 1.419 . S
C717 C718 1.363 . S
C717 H720 0.929 . S
C718 C717 1.363 . S
C718 C724 1.428 . S
H719 C715 0.930 . S
H720 C717 0.929 . S
S721 N722 1.613 . S
S721 N723 1.610 . S
N722 S721 1.613 . S
N722 C725 1.350 . S
N723 S721 1.610 . S
N723 C724 1.351 . S
C724 C718 1.428 . S
C724 N723 1.351 . S
C724 C725 1.434 . S
C725 C716 1.429 . S
C725 N722 1.350 . S
C725 C724 1.434 . S
C726 C727 1.369 . S
C726 C728 1.419 . S
C726 H730 0.930 . S
C727 C726 1.369 . S
C727 C736 1.429 . S
C728 C726 1.419 . S
C728 C729 1.363 . S
C728 H731 0.929 . S
C729 C728 1.363 . S
C729 C735 1.428 . S
H730 C726 0.930 . S
H731 C728 0.929 . S
S732 N733 1.613 . S
S732 N734 1.610 . S
N733 S732 1.613 . S
N733 C736 1.350 . S
N734 S732 1.610 . S
N734 C735 1.351 . S
C735 C729 1.428 . S
C735 N734 1.351 . S
C735 C736 1.434 . S
C736 C727 1.429 . S
C736 N733 1.350 . S
C736 C735 1.434 . S
C737 C738 1.369 . S
C737 C739 1.419 . S
C737 H741 0.930 . S
C738 C737 1.369 . S
C738 C747 1.429 . S
C739 C737 1.419 . S
C739 C740 1.363 . S
C739 H742 0.929 . S
C740 C739 1.363 . S
C740 C746 1.428 . S
H741 C737 0.930 . S
H742 C739 0.929 . S
S743 N744 1.613 . S
S743 N745 1.610 . S
N744 S743 1.613 . S
N744 C747 1.350 . S
N745 S743 1.610 . S
N745 C746 1.351 . S
C746 C740 1.428 . S
C746 N745 1.351 . S
C746 C747 1.434 . S
C747 C738 1.429 . S
C747 N744 1.350 . S
C747 C746 1.434 . S
C748 C749 1.369 . S
C748 C750 1.419 . S
C748 H752 0.930 . S
C749 C748 1.369 . S
C749 C758 1.429 . S
C750 C748 1.419 . S
C750 C751 1.363 . S
C750 H753 0.929 . S
C751 C750 1.363 . S
C751 C757 1.428 . S
H752 C748 0.930 . S
H753 C750 0.929 . S
S754 N755 1.613 . S
S754 N756 1.610 . S
N755 S754 1.613 . S
N755 C758 1.350 . S
N756 S754 1.610 . S
N756 C757 1.351 . S
C757 C751 1.428 . S
C757 N756 1.351 . S
C757 C758 1.434 . S
C758 C749 1.429 . S
C758 N755 1.350 . S
C758 C757 1.434 . S
C759 C760 1.369 . S
C759 C761 1.419 . S
C759 H763 0.930 . S
C760 C759 1.369 . S
C760 C769 1.429 . S
C761 C759 1.419 . S
C761 C762 1.363 . S
C761 H764 0.929 . S
C762 C761 1.363 . S
C762 C768 1.428 . S
H763 C759 0.930 . S
H764 C761 0.929 . S
S765 N766 1.613 . S
S765 N767 1.610 . S
N766 S765 1.613 . S
N766 C769 1.350 . S
N767 S765 1.610 . S
N767 C768 1.351 . S
C768 C762 1.428 . S
C768 N767 1.351 . S
C768 C769 1.434 . S
C769 C760 1.429 . S
C769 N766 1.350 . S
C769 C768 1.434 . S
C770 C771 1.369 . S
C770 C772 1.419 . S
C770 H774 0.930 . S
C771 C770 1.369 . S
C771 C780 1.429 . S
C772 C770 1.419 . S
C772 C773 1.363 . S
C772 H775 0.929 . S
C773 C772 1.363 . S
C773 C779 1.428 . S
H774 C770 0.930 . S
H775 C772 0.929 . S
S776 N777 1.613 . S
S776 N778 1.610 . S
N777 S776 1.613 . S
N777 C780 1.350 . S
N778 S776 1.610 . S
N778 C779 1.351 . S
C779 C773 1.428 . S
C779 N778 1.351 . S
C779 C780 1.434 . S
C780 C771 1.429 . S
C780 N777 1.350 . S
C780 C779 1.434 . S
C781 C782 1.369 . S
C781 C783 1.419 . S
C781 H785 0.930 . S
C782 C781 1.369 . S
C782 C791 1.429 . S
C783 C781 1.419 . S
C783 C784 1.363 . S
C783 H786 0.929 . S
C784 C783 1.363 . S
C784 C790 1.428 . S
H785 C781 0.930 . S
H786 C783 0.929 . S
S787 N788 1.613 . S
S787 N789 1.610 . S
N788 S787 1.613 . S
N788 C791 1.350 . S
N789 S787 1.610 . S
N789 C790 1.351 . S
C790 C784 1.428 . S
C790 N789 1.351 . S
C790 C791 1.434 . S
C791 C782 1.429 . S
C791 N788 1.350 . S
C791 C790 1.434 . S
C792 C793 1.369 . S
C792 C794 1.419 . S
C792 H796 0.930 . S
C793 C792 1.369 . S
C793 C802 1.429 . S
C794 C792 1.419 . S
C794 C795 1.363 . S
C794 H797 0.929 . S
C795 C794 1.363 . S
C795 C801 1.428 . S
H796 C792 0.930 . S
H797 C794 0.929 . S
S798 N799 1.613 . S
S798 N800 1.610 . S
N799 S798 1.613 . S
N799 C802 1.350 . S
N800 S798 1.610 . S
N800 C801 1.351 . S
C801 C795 1.428 . S
C801 N800 1.351 . S
C801 C802 1.434 . S
C802 C793 1.429 . S
C802 N799 1.350 . S
C802 C801 1.434 . S
C803 C804 1.369 . S
C803 C805 1.419 . S
C803 H807 0.930 . S
C804 C803 1.369 . S
C804 C813 1.429 . S
C805 C803 1.419 . S
C805 C806 1.363 . S
C805 H808 0.929 . S
C806 C805 1.363 . S
C806 C812 1.428 . S
H807 C803 0.930 . S
H808 C805 0.929 . S
S809 N810 1.613 . S
S809 N811 1.610 . S
N810 S809 1.613 . S
N810 C813 1.350 . S
N811 S809 1.610 . S
N811 C812 1.351 . S
C812 C806 1.428 . S
C812 N811 1.351 . S
C812 C813 1.434 . S
C813 C804 1.429 . S
C813 N810 1.350 . S
C813 C812 1.434 . S
C814 C815 1.369 . S
C814 C816 1.419 . S
C814 H818 0.930 . S
C815 C814 1.369 . S
C815 C824 1.429 . S
C816 C814 1.419 . S
C816 C817 1.363 . S
C816 H819 0.929 . S
C817 C816 1.363 . S
C817 C823 1.428 . S
H818 C814 0.930 . S
H819 C816 0.929 . S
S820 N821 1.613 . S
S820 N822 1.610 . S
N821 S820 1.613 . S
N821 C824 1.350 . S
N822 S820 1.610 . S
N822 C823 1.351 . S
C823 C817 1.428 . S
C823 N822 1.351 . S
C823 C824 1.434 . S
C824 C815 1.429 . S
C824 N821 1.350 . S
C824 C823 1.434 . S
C825 C826 1.369 . S
C825 C827 1.419 . S
C825 H829 0.930 . S
C826 C825 1.369 . S
C826 C835 1.429 . S
C827 C825 1.419 . S
C827 C828 1.363 . S
C827 H830 0.929 . S
C828 C827 1.363 . S
C828 C834 1.428 . S
H829 C825 0.930 . S
H830 C827 0.929 . S
S831 N832 1.613 . S
S831 N833 1.610 . S
N832 S831 1.613 . S
N832 C835 1.350 . S
N833 S831 1.610 . S
N833 C834 1.351 . S
C834 C828 1.428 . S
C834 N833 1.351 . S
C834 C835 1.434 . S
C835 C826 1.429 . S
C835 N832 1.350 . S
C835 C834 1.434 . S
C836 C837 1.369 . S
C836 C838 1.419 . S
C836 H840 0.930 . S
C837 C836 1.369 . S
C837 C846 1.429 . S
C838 C836 1.419 . S
C838 C839 1.363 . S
C838 H841 0.929 . S
C839 C838 1.363 . S
C839 C845 1.428 . S
H840 C836 0.930 . S
H841 C838 0.929 . S
S842 N843 1.613 . S
S842 N844 1.610 . S
N843 S842 1.613 . S
N843 C846 1.350 . S
N844 S842 1.610 . S
N844 C845 1.351 . S
C845 C839 1.428 . S
C845 N844 1.351 . S
C845 C846 1.434 . S
C846 C837 1.429 . S
C846 N843 1.350 . S
C846 C845 1.434 . S
C847 C848 1.369 . S
C847 C849 1.419 . S
C847 H851 0.930 . S
C848 C847 1.369 . S
C848 C857 1.429 . S
C849 C847 1.419 . S
C849 C850 1.363 . S
C849 H852 0.929 . S
C850 C849 1.363 . S
C850 C856 1.428 . S
H851 C847 0.930 . S
H852 C849 0.929 . S
S853 N854 1.613 . S
S853 N855 1.610 . S
N854 S853 1.613 . S
N854 C857 1.350 . S
N855 S853 1.610 . S
N855 C856 1.351 . S
C856 C850 1.428 . S
C856 N855 1.351 . S
C856 C857 1.434 . S
C857 C848 1.429 . S
C857 N854 1.350 . S
C857 C856 1.434 . S
C595 C39 1.806 . S
C597 C340 1.771 . S
C606 C91 1.755 . S
C608 C379 1.737 . S
C619 C411 1.593 . S
C617 C128 1.638 . S
C630 C457 1.553 . S
C628 C188 1.581 . S
C641 C524 1.670 . S
C639 C250 1.686 . S
C652 C563 1.748 . S
C650 C304 1.788 . S
C661 C75 1.692 . S
C663 C425 1.658 . S
C672 C144 1.789 . S
C674 C471 1.764 . S
C685 C510 1.689 . S
C683 C198 1.729 . S
C696 C549 1.558 . S
C694 C234 1.611 . S
C705 C294 1.567 . S
C707 C326 1.536 . S
C718 C365 1.561 . S
C716 C29 1.586 . S
C729 C464 1.775 . S
C727 C38 1.802 . S
C738 C92 1.755 . S
C740 C517 1.719 . S
C751 C570 1.590 . S
C749 C135 1.639 . S
C760 C181 1.586 . S
C762 C333 1.547 . S
C771 C251 1.687 . S
C773 C386 1.651 . S
C782 C303 1.788 . S
C784 C418 1.748 . S
C793 C82 1.692 . S
C795 C556 1.657 . S
C806 C319 1.760 . S
C804 C145 1.791 . S
C815 C197 1.726 . S
C817 C372 1.710 . S
C826 C241 1.607 . S
C828 C432 1.563 . S
C837 C287 1.568 . S
C839 C478 1.535 . S
C848 C22 1.589 . S
C850 C503 1.573 . S
