# Generated by pormake.
# Topology cml, (3,6)-cn, num edge types: 1
# Building blocks:
#     Node 0, Type 0, BuildingBlock: CUQRIR_clean_linker_1, # of connection points: 3
#     Node 1, Type 0, BuildingBlock: CUQRIR_clean_linker_1, # of connection points: 3
#     Node 2, Type 0, BuildingBlock: CUQRIR_clean_linker_1, # of connection points: 3
#     Node 3, Type 0, BuildingBlock: CUQRIR_clean_linker_1, # of connection points: 3
#     Node 4, Type 0, BuildingBlock: CUQRIR_clean_linker_1, # of connection points: 3
#     Node 5, Type 0, BuildingBlock: CUQRIR_clean_linker_1, # of connection points: 3
#     Node 6, Type 0, BuildingBlock: CUQRIR_clean_linker_1, # of connection points: 3
#     Node 7, Type 0, BuildingBlock: CUQRIR_clean_linker_1, # of connection points: 3
#     Node 8, Type 1, BuildingBlock: OJICUG_clean_sbu_0, # of connection points: 6
#     Node 9, Type 1, BuildingBlock: OJICUG_clean_sbu_0, # of connection points: 6
#     Node 10, Type 1, BuildingBlock: OJICUG_clean_sbu_0, # of connection points: 6
#     Node 11, Type 1, BuildingBlock: OJICUG_clean_sbu_0, # of connection points: 6
#     Edge 12, Type (0, 1), BuildingBlock: OJICUG_clean_linker_0, # of connection points: 2
#     Edge 13, Type (0, 1), BuildingBlock: OJICUG_clean_linker_0, # of connection points: 2
#     Edge 14, Type (0, 1), BuildingBlock: OJICUG_clean_linker_0, # of connection points: 2
#     Edge 15, Type (0, 1), BuildingBlock: OJICUG_clean_linker_0, # of connection points: 2
#     Edge 16, Type (0, 1), BuildingBlock: OJICUG_clean_linker_0, # of connection points: 2
#     Edge 17, Type (0, 1), BuildingBlock: OJICUG_clean_linker_0, # of connection points: 2
#     Edge 18, Type (0, 1), BuildingBlock: OJICUG_clean_linker_0, # of connection points: 2
#     Edge 19, Type (0, 1), BuildingBlock: OJICUG_clean_linker_0, # of connection points: 2
#     Edge 20, Type (0, 1), BuildingBlock: OJICUG_clean_linker_0, # of connection points: 2
#     Edge 21, Type (0, 1), BuildingBlock: OJICUG_clean_linker_0, # of connection points: 2
#     Edge 22, Type (0, 1), BuildingBlock: OJICUG_clean_linker_0, # of connection points: 2
#     Edge 23, Type (0, 1), BuildingBlock: OJICUG_clean_linker_0, # of connection points: 2
#     Edge 24, Type (0, 1), BuildingBlock: OJICUG_clean_linker_0, # of connection points: 2
#     Edge 25, Type (0, 1), BuildingBlock: OJICUG_clean_linker_0, # of connection points: 2
#     Edge 26, Type (0, 1), BuildingBlock: OJICUG_clean_linker_0, # of connection points: 2
#     Edge 27, Type (0, 1), BuildingBlock: OJICUG_clean_linker_0, # of connection points: 2
#     Edge 28, Type (0, 1), BuildingBlock: OJICUG_clean_linker_0, # of connection points: 2
#     Edge 29, Type (0, 1), BuildingBlock: OJICUG_clean_linker_0, # of connection points: 2
#     Edge 30, Type (0, 1), BuildingBlock: OJICUG_clean_linker_0, # of connection points: 2
#     Edge 31, Type (0, 1), BuildingBlock: OJICUG_clean_linker_0, # of connection points: 2
#     Edge 32, Type (0, 1), BuildingBlock: OJICUG_clean_linker_0, # of connection points: 2
#     Edge 33, Type (0, 1), BuildingBlock: OJICUG_clean_linker_0, # of connection points: 2
#     Edge 34, Type (0, 1), BuildingBlock: OJICUG_clean_linker_0, # of connection points: 2
#     Edge 35, Type (0, 1), BuildingBlock: OJICUG_clean_linker_0, # of connection points: 2
# Relax obj value: 0.002
# Max RMSD: 0.055
# Mean RMSD: 0.044
data_MOF--net-cml--node1-OJICUG_clean_sbu_0--node2-CUQRIR_clean_linker_1--edge1-OJICUG_clean_linker_0
_symmetry_space_group_name_H-M    P1
_symmetry_Int_Tables_number       1
_symmetry_cell_setting            triclinic
loop_
_symmetry_equiv_pos_as_xyz
'x, y, z'
_cell_length_a     27.653842
_cell_length_b     26.526061
_cell_length_c     22.58072
_cell_angle_alpha  90.025356
_cell_angle_beta   90.004389
_cell_angle_gamma 90.020095
loop_
_atom_site_label
_atom_site_type_symbol
_atom_site_fract_x
_atom_site_fract_y
_atom_site_fract_z
_atom_type_partial_charge
C0 C 0.22788 0.34972 0.04813 0.0
N1 N 0.26551 0.38225 0.0494 0.0
N2 N 0.20566 0.3507 0.99462 0.0
C3 C 0.2125 0.31772 0.09977 0.0
C4 C 0.23127 0.38525 0.96337 0.0
N5 N 0.26747 0.40452 0.99681 0.0
C6 C 0.22264 0.39776 0.89916 0.0
H7 H 0.23285 0.2817 0.09895 0.0
H8 H 0.17324 0.30925 0.09761 0.0
H9 H 0.22079 0.3371 0.14215 0.0
H10 H 0.19086 0.42308 0.89581 0.0
H11 H 0.2146 0.36295 0.87372 0.0
H12 H 0.25381 0.41733 0.87868 0.0
C13 C 0.74769 0.65596 0.54461 0.0
N14 N 0.71152 0.62163 0.54753 0.0
N15 N 0.77316 0.65032 0.4937 0.0
C16 C 0.7564 0.69696 0.58956 0.0
C17 C 0.75091 0.61142 0.46589 0.0
N18 N 0.71341 0.59412 0.49846 0.0
C19 C 0.76603 0.5896 0.40727 0.0
H20 H 0.76438 0.73316 0.56694 0.0
H21 H 0.78825 0.68675 0.61686 0.0
H22 H 0.7253 0.7022 0.61982 0.0
H23 H 0.80526 0.59543 0.39954 0.0
H24 H 0.74554 0.6084 0.37128 0.0
H25 H 0.7577 0.54869 0.40556 0.0
C26 C 0.75001 0.34931 0.04766 0.0
N27 N 0.71241 0.38184 0.04899 0.0
N28 N 0.77213 0.35023 0.99409 0.0
C29 C 0.76549 0.31739 0.09932 0.0
C30 C 0.74649 0.38476 0.96287 0.0
N31 N 0.71038 0.40408 0.99638 0.0
C32 C 0.755 0.39722 0.89862 0.0
H33 H 0.80476 0.30901 0.09712 0.0
H34 H 0.74518 0.28132 0.09858 0.0
H35 H 0.75721 0.33679 0.14169 0.0
H36 H 0.76327 0.36244 0.87325 0.0
H37 H 0.7866 0.42281 0.89519 0.0
H38 H 0.72368 0.4165 0.87812 0.0
C39 C 0.23062 0.65599 0.54436 0.0
N40 N 0.26679 0.62169 0.54727 0.0
N41 N 0.20517 0.65037 0.49341 0.0
C42 C 0.22188 0.69695 0.58934 0.0
C43 C 0.22746 0.61151 0.46557 0.0
N44 N 0.26494 0.59422 0.49816 0.0
C45 C 0.21237 0.58973 0.40691 0.0
H46 H 0.19008 0.68663 0.61669 0.0
H47 H 0.21381 0.73313 0.56677 0.0
H48 H 0.25301 0.70224 0.61957 0.0
H49 H 0.23287 0.60859 0.37096 0.0
H50 H 0.17314 0.59552 0.39916 0.0
H51 H 0.22073 0.54883 0.40516 0.0
C52 C 0.73206 0.8444 0.04244 0.0
N53 N 0.76836 0.87859 0.04497 0.0
N54 N 0.70651 0.84978 0.99154 0.0
C55 C 0.72321 0.80382 0.08783 0.0
C56 C 0.72888 0.88838 0.96332 0.0
N57 N 0.76652 0.90576 0.99565 0.0
C58 C 0.71356 0.91 0.90469 0.0
H59 H 0.71456 0.76758 0.06565 0.0
H60 H 0.69175 0.81469 0.11548 0.0
H61 H 0.75451 0.79835 0.11773 0.0
H62 H 0.72206 0.95087 0.90269 0.0
H63 H 0.67427 0.90432 0.89728 0.0
H64 H 0.73379 0.89093 0.86866 0.0
C65 C 0.24655 0.15694 0.54303 0.0
N66 N 0.2101 0.12296 0.54564 0.0
N67 N 0.27216 0.15117 0.49226 0.0
C68 C 0.25551 0.19771 0.58822 0.0
C69 C 0.24969 0.11254 0.4642 0.0
N70 N 0.21193 0.09549 0.49652 0.0
C71 C 0.26496 0.09065 0.40566 0.0
H72 H 0.26409 0.23385 0.56583 0.0
H73 H 0.28705 0.18697 0.61578 0.0
H74 H 0.22429 0.20331 0.61821 0.0
H75 H 0.30427 0.0962 0.39824 0.0
H76 H 0.24479 0.10964 0.36955 0.0
H77 H 0.25636 0.0498 0.40383 0.0
C78 C 0.24601 0.84421 0.0422 0.0
N79 N 0.20975 0.87841 0.04474 0.0
N80 N 0.27158 0.84961 0.99133 0.0
C81 C 0.25478 0.80359 0.08757 0.0
C82 C 0.24925 0.88823 0.96312 0.0
N83 N 0.21161 0.9056 0.99543 0.0
C84 C 0.26464 0.90992 0.90455 0.0
H85 H 0.2861 0.81454 0.11543 0.0
H86 H 0.2636 0.76741 0.06538 0.0
H87 H 0.22337 0.79798 0.11724 0.0
H88 H 0.24448 0.89086 0.86845 0.0
H89 H 0.30395 0.90429 0.89722 0.0
H90 H 0.25614 0.95078 0.90257 0.0
C91 C 0.73217 0.15738 0.54254 0.0
N92 N 0.76855 0.12333 0.54515 0.0
N93 N 0.70651 0.15161 0.49179 0.0
C94 C 0.72335 0.19819 0.58769 0.0
C95 C 0.7289 0.11293 0.46374 0.0
N96 N 0.76665 0.09585 0.49604 0.0
C97 C 0.71351 0.09098 0.40527 0.0
H98 H 0.69205 0.18733 0.61561 0.0
H99 H 0.71448 0.23425 0.56531 0.0
H100 H 0.75476 0.204 0.61734 0.0
H101 H 0.73359 0.10997 0.36908 0.0
H102 H 0.67419 0.09649 0.39797 0.0
H103 H 0.72211 0.05014 0.40346 0.0
Sc104 Sc -0.0109 0.81166 0.29758 0.0
Sc105 Sc -0.01077 0.94445 0.3016 0.0
Sc106 Sc -0.01085 0.87523 0.4352 0.0
O107 O -0.01084 0.87708 0.34481 0.0
C108 C 0.91774 0.78477 0.40427 0.0
C109 C 0.91747 0.87961 0.2209 0.0
C110 C 0.91709 0.9667 0.40899 0.0
C111 C 0.06083 0.87956 0.22087 0.0
C112 C 0.06049 0.78473 0.40421 0.0
C113 C 0.06135 0.96662 0.40908 0.0
O114 O 0.93313 0.7786 0.3517 0.0
O115 O 0.93321 0.92142 0.24066 0.0
O116 O 0.93318 0.93165 0.44197 0.0
O117 O 0.04426 0.83717 0.23747 0.0
O118 O 0.04401 0.81799 0.43931 0.0
O119 O 0.04476 0.97542 0.3576 0.0
O120 O 0.04513 0.77863 0.35161 0.0
O121 O 0.04528 0.92139 0.24076 0.0
O122 O 0.04523 0.93155 0.442 0.0
O123 O 0.93389 0.83719 0.2376 0.0
O124 O 0.93419 0.81809 0.43931 0.0
O125 O 0.9337 0.97544 0.3575 0.0
Sc126 Sc -0.01081 0.19094 0.7982 0.0
Sc127 Sc -0.01091 0.05769 0.8012 0.0
Sc128 Sc -0.01088 0.126 0.93489 0.0
O129 O -0.01087 0.12494 0.84474 0.0
C130 C 0.06063 0.21695 0.90468 0.0
C131 C 0.06087 0.12303 0.72126 0.0
C132 C 0.06127 0.03482 0.90835 0.0
C133 C 0.91752 0.12305 0.72109 0.0
C134 C 0.91758 0.21687 0.9045 0.0
C135 C 0.91692 0.03484 0.90835 0.0
O136 O 0.04415 0.22458 0.85292 0.0
O137 O 0.04505 0.08116 0.74066 0.0
O138 O 0.04512 0.0697 0.94154 0.0
O139 O 0.93405 0.16544 0.73791 0.0
O140 O 0.93315 0.18242 0.93865 0.0
O141 O 0.9335 0.02629 0.8568 0.0
O142 O 0.93406 0.22448 0.85273 0.0
O143 O 0.93314 0.08117 0.74066 0.0
O144 O 0.93309 0.06972 0.94151 0.0
O145 O 0.0445 0.16545 0.73815 0.0
O146 O 0.04512 0.18241 0.93875 0.0
O147 O 0.04467 0.0263 0.8568 0.0
Sc148 Sc 0.48907 0.31317 0.29878 0.0
Sc149 Sc 0.48917 0.44584 0.30383 0.0
Sc150 Sc 0.48913 0.37562 0.43689 0.0
O151 O 0.48912 0.37819 0.34656 0.0
C152 C 0.41772 0.28539 0.40501 0.0
C153 C 0.41688 0.38167 0.22322 0.0
C154 C 0.41695 0.46711 0.41139 0.0
C155 C 0.56129 0.3816 0.22313 0.0
C156 C 0.56054 0.28545 0.40493 0.0
C157 C 0.56139 0.46709 0.4114 0.0
O158 O 0.4331 0.27967 0.35239 0.0
O159 O 0.43306 0.42335 0.24278 0.0
O160 O 0.43304 0.43187 0.44408 0.0
O161 O 0.54461 0.33918 0.23952 0.0
O162 O 0.54409 0.31844 0.4404 0.0
O163 O 0.54475 0.47627 0.36004 0.0
O164 O 0.54507 0.2797 0.35234 0.0
O165 O 0.54522 0.42331 0.24273 0.0
O166 O 0.54519 0.4319 0.44411 0.0
O167 O 0.43348 0.33922 0.2396 0.0
O168 O 0.4342 0.31838 0.44047 0.0
O169 O 0.43367 0.47632 0.36008 0.0
Sc170 Sc 0.48911 0.68851 0.79773 0.0
Sc171 Sc 0.48901 0.55561 0.8021 0.0
Sc172 Sc 0.48911 0.62546 0.93545 0.0
O173 O 0.48908 0.62319 0.84512 0.0
C174 C 0.56061 0.71576 0.90416 0.0
C175 C 0.56089 0.6204 0.72148 0.0
C176 C 0.56073 0.53348 0.90967 0.0
C177 C 0.41727 0.62045 0.72143 0.0
C178 C 0.41764 0.71576 0.90415 0.0
C179 C 0.41732 0.53357 0.9097 0.0
O180 O 0.54515 0.72171 0.8516 0.0
O181 O 0.54516 0.5786 0.74127 0.0
O182 O 0.54513 0.56906 0.94225 0.0
O183 O 0.43389 0.66286 0.7379 0.0
O184 O 0.43414 0.68267 0.93942 0.0
O185 O 0.43379 0.52445 0.85826 0.0
O186 O 0.43309 0.7217 0.85159 0.0
O187 O 0.43293 0.57865 0.74124 0.0
O188 O 0.43305 0.56909 0.94229 0.0
O189 O 0.54433 0.66282 0.73794 0.0
O190 O 0.54411 0.68265 0.93942 0.0
O191 O 0.54416 0.52437 0.85826 0.0
C192 C 0.12897 0.3361 0.9413 0.0
C193 C 0.16875 0.31716 0.97282 0.0
H194 H 0.06396 0.31877 0.89369 0.0
C195 C 0.17288 0.26486 0.98132 0.0
H196 H 0.12455 0.37626 0.93508 0.0
C197 C 0.13745 0.23217 0.95964 0.0
C198 C 0.0982 0.25114 0.92727 0.0
H199 H 0.20383 0.24922 1.00411 0.0
H200 H 0.1412 0.19201 0.96711 0.0
C201 C 0.09436 0.3033 0.91789 0.0
C202 C 0.84998 0.69654 0.50564 0.0
C203 C 0.81013 0.68311 0.47058 0.0
H204 H 0.91489 0.74032 0.5123 0.0
C205 C 0.80596 0.70333 0.41328 0.0
H206 H 0.85445 0.68073 0.54945 0.0
C207 C 0.84132 0.73591 0.39117 0.0
C208 C 0.88054 0.75012 0.42683 0.0
H209 H 0.77496 0.69453 0.38592 0.0
H210 H 0.83745 0.75092 0.34681 0.0
C211 C 0.88452 0.73037 0.48431 0.0
C212 C 0.80517 0.26449 0.98099 0.0
C213 C 0.80912 0.31679 0.9723 0.0
H214 H 0.8371 0.19175 0.96704 0.0
C215 C 0.84881 0.33582 0.94068 0.0
H216 H 0.77429 0.24876 1.00386 0.0
C217 C 0.88354 0.30311 0.9174 0.0
C218 C 0.87989 0.25096 0.92698 0.0
H219 H 0.85309 0.37598 0.93431 0.0
H220 H 0.91387 0.31866 0.89312 0.0
C221 C 0.84071 0.2319 0.95943 0.0
C222 C 0.1723 0.7034 0.41306 0.0
C223 C 0.16816 0.68311 0.47034 0.0
H224 H 0.14075 0.75102 0.34667 0.0
C225 C 0.12832 0.69646 0.50543 0.0
H226 H 0.20328 0.69466 0.38568 0.0
C227 C 0.09376 0.73027 0.48417 0.0
C228 C 0.09771 0.75009 0.42672 0.0
H229 H 0.12388 0.6806 0.54922 0.0
H230 H 0.06339 0.74016 0.51218 0.0
C231 C 0.13691 0.73595 0.39102 0.0
C232 C 0.62943 0.80417 1.00443 0.0
C233 C 0.66918 0.81713 0.96895 0.0
H234 H 0.5643 0.76082 0.01193 0.0
C235 C 0.67291 0.79654 0.91177 0.0
H236 H 0.6253 0.82026 0.04816 0.0
C237 C 0.63723 0.76406 0.8902 0.0
C238 C 0.59812 0.7503 0.92627 0.0
H239 H 0.70379 0.80499 0.88409 0.0
H240 H 0.64077 0.74876 0.84591 0.0
C241 C 0.59457 0.77042 0.98363 0.0
C242 C 0.3493 0.19662 0.50501 0.0
C243 C 0.30953 0.18365 0.46956 0.0
H244 H 0.41433 0.24011 0.51255 0.0
C245 C 0.30571 0.20423 0.41241 0.0
H246 H 0.35348 0.1805 0.54871 0.0
C247 C 0.34129 0.23683 0.39089 0.0
C248 C 0.38036 0.25067 0.42699 0.0
H249 H 0.27481 0.19575 0.38477 0.0
H250 H 0.33767 0.25218 0.34665 0.0
C251 C 0.38405 0.23046 0.48426 0.0
C252 C 0.34864 0.80402 1.00436 0.0
C253 C 0.30896 0.81702 0.96879 0.0
H254 H 0.41375 0.76069 0.012 0.0
C255 C 0.30535 0.7965 0.91156 0.0
H256 H 0.35269 0.82006 0.04814 0.0
C257 C 0.34106 0.76406 0.89005 0.0
C258 C 0.3801 0.75026 0.92622 0.0
H259 H 0.27452 0.80496 0.8838 0.0
H260 H 0.3376 0.74881 0.84572 0.0
C261 C 0.38353 0.77031 0.98362 0.0
C262 C 0.67264 0.20448 0.41197 0.0
C263 C 0.66905 0.184 0.4692 0.0
H264 H 0.6404 0.25224 0.34625 0.0
C265 C 0.62939 0.19698 0.50482 0.0
H266 H 0.70345 0.19599 0.38419 0.0
C267 C 0.59453 0.23072 0.48416 0.0
C268 C 0.59799 0.25082 0.42681 0.0
H269 H 0.62538 0.18095 0.54858 0.0
H270 H 0.56435 0.24037 0.51258 0.0
C271 C 0.63695 0.23697 0.39055 0.0
C272 C 0.34031 0.41806 0.9367 0.0
C273 C 0.30594 0.43656 0.97671 0.0
H274 H 0.4022 0.43468 0.88327 0.0
C275 C 0.3084 0.48687 0.99534 0.0
H276 H 0.33869 0.37921 0.92207 0.0
C277 C 0.34507 0.51845 0.97432 0.0
C278 C 0.37901 0.50033 0.93313 0.0
H279 H 0.28152 0.50177 0.02546 0.0
H280 H 0.34623 0.55727 0.98918 0.0
C281 C 0.37626 0.44981 0.91452 0.0
C282 C 0.66565 0.51573 0.50477 0.0
C283 C 0.67534 0.56196 0.47729 0.0
H284 H 0.62169 0.4492 0.50568 0.0
C285 C 0.64783 0.57679 0.42824 0.0
H286 H 0.68728 0.50331 0.54191 0.0
C287 C 0.61108 0.54581 0.40668 0.0
C288 C 0.60081 0.49948 0.43424 0.0
H289 H 0.65482 0.61257 0.4068 0.0
H290 H 0.5904 0.55848 0.36876 0.0
C291 C 0.62842 0.48481 0.48371 0.0
C292 C 0.66978 0.48658 0.99487 0.0
C293 C 0.67196 0.43622 0.97639 0.0
H294 H 0.63221 0.5571 0.9887 0.0
C295 C 0.63736 0.41775 0.93664 0.0
H296 H 0.69684 0.50145 0.02479 0.0
C297 C 0.60144 0.44958 0.91458 0.0
C298 C 0.59897 0.50015 0.93304 0.0
H299 H 0.63876 0.37886 0.92214 0.0
H300 H 0.57532 0.43447 0.88353 0.0
C301 C 0.63314 0.51825 0.97396 0.0
C302 C 0.33056 0.57683 0.42803 0.0
C303 C 0.303 0.56204 0.47706 0.0
H304 H 0.38802 0.55849 0.36865 0.0
C305 C 0.31264 0.51582 0.5046 0.0
H306 H 0.3236 0.6126 0.40655 0.0
C307 C 0.34988 0.48489 0.48362 0.0
C308 C 0.37753 0.49953 0.43417 0.0
H309 H 0.29098 0.50343 0.54172 0.0
H310 H 0.35657 0.4493 0.50563 0.0
C311 C 0.36731 0.54584 0.40655 0.0
C312 C 0.81377 0.98447 1.0023 0.0
C313 C 0.80429 0.93832 0.97449 0.0
H314 H 0.85707 0.05146 1.00334 0.0
C315 C 0.83147 0.92417 0.92484 0.0
H316 H 0.79234 0.99644 0.03982 0.0
C317 C 0.86771 0.95572 0.9031 0.0
C318 C 0.8778 0.00195 0.93106 0.0
H319 H 0.8246 0.8885 0.90307 0.0
H320 H 0.88818 0.94356 0.86478 0.0
C321 C 0.85049 0.01595 0.98106 0.0
C322 C 0.16441 0.01695 0.50332 0.0
C323 C 0.17405 0.06302 0.47543 0.0
H324 H 0.12095 0.95007 0.50439 0.0
C325 C 0.14695 0.07715 0.42573 0.0
H326 H 0.18577 0.00501 0.5409 0.0
C327 C 0.11066 0.04565 0.40398 0.0
C328 C 0.10045 0.99948 0.43196 0.0
H329 H 0.15394 0.11276 0.40391 0.0
H330 H 0.09029 0.0578 0.36559 0.0
C331 C 0.12764 0.98552 0.48206 0.0
C332 C 0.14681 0.92424 0.92449 0.0
C333 C 0.17388 0.93822 0.9743 0.0
H334 H 0.0902 0.94377 0.86437 0.0
C335 C 0.16429 0.98424 1.00236 0.0
H336 H 0.15374 0.88866 0.90254 0.0
C337 C 0.12758 0.01574 0.98118 0.0
C338 C 0.10038 0.0019 0.93102 0.0
H339 H 0.18563 0.99608 0.04001 0.0
H340 H 0.12092 0.05115 1.00366 0.0
C341 C 0.11057 0.95581 0.90283 0.0
C342 C 0.83146 0.0772 0.42515 0.0
C343 C 0.80445 0.06327 0.47501 0.0
H344 H 0.88802 0.05765 0.365 0.0
C345 C 0.81416 0.01734 0.50317 0.0
H346 H 0.82443 0.1127 0.40313 0.0
C347 C 0.85091 0.98585 0.48202 0.0
C348 C 0.87802 0.99962 0.43177 0.0
H349 H 0.79288 0.00556 0.54089 0.0
H350 H 0.85766 0.95052 0.50456 0.0
C351 C 0.86772 0.04565 0.40352 0.0
C352 C 0.33057 0.33903 0.10301 0.0
C353 C 0.3035 0.3828 0.09285 0.0
H354 H 0.3874 0.30419 0.15221 0.0
C355 C 0.31346 0.42638 0.12572 0.0
H356 H 0.3234 0.30517 0.07769 0.0
C357 C 0.35047 0.42631 0.16801 0.0
C358 C 0.37761 0.38231 0.17856 0.0
H359 H 0.29218 0.46014 0.11925 0.0
H360 H 0.35739 0.46048 0.19289 0.0
C361 C 0.3671 0.33864 0.1456 0.0
C362 C 0.63871 0.65912 0.59153 0.0
C363 C 0.67303 0.62034 0.59017 0.0
H364 H 0.57659 0.6899 0.63492 0.0
C365 C 0.67024 0.5811 0.63152 0.0
H366 H 0.64052 0.68956 0.55966 0.0
C367 C 0.63329 0.58049 0.67381 0.0
C368 C 0.59939 0.61992 0.67614 0.0
H369 H 0.69704 0.55137 0.63146 0.0
H370 H 0.6319 0.54986 0.70548 0.0
C371 C 0.60248 0.65926 0.63456 0.0
C372 C 0.64746 0.33871 0.10294 0.0
C373 C 0.67451 0.38248 0.09254 0.0
H374 H 0.59071 0.30396 0.15237 0.0
C375 C 0.66458 0.42614 0.12526 0.0
H376 H 0.6546 0.30478 0.07773 0.0
C377 C 0.62763 0.42616 0.16763 0.0
C378 C 0.60051 0.38216 0.1784 0.0
H379 H 0.68584 0.4599 0.11862 0.0
H380 H 0.62073 0.46039 0.19239 0.0
C381 C 0.61099 0.33841 0.1456 0.0
C382 C 0.30795 0.58118 0.63135 0.0
C383 C 0.30524 0.6204 0.58996 0.0
H384 H 0.34618 0.54996 0.70539 0.0
C385 C 0.3396 0.65917 0.59135 0.0
H386 H 0.28111 0.55147 0.63126 0.0
C387 C 0.37579 0.65931 0.63445 0.0
C388 C 0.3788 0.61999 0.67605 0.0
H389 H 0.33785 0.6896 0.55947 0.0
H390 H 0.40171 0.68994 0.63483 0.0
C391 C 0.34485 0.58058 0.6737 0.0
C392 C 0.8411 0.84136 0.08942 0.0
C393 C 0.80674 0.8801 0.08777 0.0
H394 H 0.90274 0.81043 0.13367 0.0
C395 C 0.80899 0.91912 0.1295 0.0
H396 H 0.83962 0.81102 0.05736 0.0
C397 C 0.84546 0.91956 0.17243 0.0
C398 C 0.87937 0.88014 0.17506 0.0
H399 H 0.78208 0.94874 0.12931 0.0
H400 H 0.84645 0.95003 0.20437 0.0
C401 C 0.87682 0.84104 0.1331 0.0
C402 C 0.13757 0.16079 0.58993 0.0
C403 C 0.1717 0.12181 0.58837 0.0
H404 H 0.07608 0.19219 0.63412 0.0
C405 C 0.16926 0.08293 0.6302 0.0
H406 H 0.13922 0.19103 0.5578 0.0
C407 C 0.13281 0.08283 0.67311 0.0
C408 C 0.0991 0.12244 0.67562 0.0
H409 H 0.196 0.05315 0.63009 0.0
H410 H 0.13164 0.05242 0.7051 0.0
C411 C 0.10186 0.16145 0.63362 0.0
C412 C 0.16944 0.91883 0.12953 0.0
C413 C 0.17142 0.87996 0.08758 0.0
H414 H 0.13223 0.94965 0.20462 0.0
C415 C 0.13686 0.84139 0.08909 0.0
H416 H 0.1965 0.94831 0.12944 0.0
C417 C 0.10119 0.84108 0.13283 0.0
C418 C 0.0989 0.88004 0.17499 0.0
H419 H 0.13814 0.81116 0.05688 0.0
H420 H 0.0751 0.8106 0.13329 0.0
C421 C 0.13302 0.91929 0.17252 0.0
C422 C 0.84131 0.1608 0.58936 0.0
C423 C 0.8069 0.12207 0.58796 0.0
H424 H 0.90298 0.19193 0.6335 0.0
C425 C 0.80898 0.08335 0.63002 0.0
H426 H 0.83992 0.19092 0.55705 0.0
C427 C 0.84538 0.08315 0.673 0.0
C428 C 0.87938 0.12252 0.67535 0.0
H429 H 0.78202 0.05377 0.63001 0.0
H430 H 0.84627 0.05287 0.70517 0.0
C431 C 0.87697 0.16137 0.63312 0.0
loop_
_geom_bond_atom_site_label_1
_geom_bond_atom_site_label_2
_geom_bond_distance
_geom_bond_site_symmetry_2
_ccdc_geom_bond_type
C0 N1 1.317 . S
C0 N2 1.348 1_554 S
C0 C3 1.485 . S
N1 C0 1.317 . S
N1 N5 1.370 1_554 S
N2 C0 1.348 1_556 S
N2 C4 1.346 . S
C3 C0 1.485 . S
C3 H7 0.960 . S
C3 H8 0.961 . S
C3 H9 0.960 . S
C4 N2 1.346 . S
C4 N5 1.307 . S
C4 C6 1.486 . S
N5 N1 1.370 1_556 S
N5 C4 1.307 . S
C6 C4 1.486 . S
C6 H10 0.960 . S
C6 H11 0.960 . S
C6 H12 0.959 . S
H7 C3 0.960 . S
H8 C3 0.961 . S
H9 C3 0.960 . S
H10 C6 0.960 . S
H11 C6 0.960 . S
H12 C6 0.959 . S
C13 N14 1.317 . S
C13 N15 1.348 . S
C13 C16 1.485 . S
N14 C13 1.317 . S
N14 N18 1.370 . S
N15 C13 1.348 . S
N15 C17 1.346 . S
C16 C13 1.485 . S
C16 H20 0.960 . S
C16 H21 0.961 . S
C16 H22 0.960 . S
C17 N15 1.346 . S
C17 N18 1.307 . S
C17 C19 1.486 . S
N18 N14 1.370 . S
N18 C17 1.307 . S
C19 C17 1.486 . S
C19 H23 0.960 . S
C19 H24 0.960 . S
C19 H25 0.959 . S
H20 C16 0.960 . S
H21 C16 0.961 . S
H22 C16 0.960 . S
H23 C19 0.960 . S
H24 C19 0.960 . S
H25 C19 0.959 . S
C26 N27 1.317 . S
C26 N28 1.348 1_554 S
C26 C29 1.485 . S
N27 C26 1.317 . S
N27 N31 1.370 1_554 S
N28 C26 1.348 1_556 S
N28 C30 1.346 . S
C29 C26 1.485 . S
C29 H33 0.960 . S
C29 H34 0.961 . S
C29 H35 0.960 . S
C30 N28 1.346 . S
C30 N31 1.307 . S
C30 C32 1.486 . S
N31 N27 1.370 1_556 S
N31 C30 1.307 . S
C32 C30 1.486 . S
C32 H36 0.960 . S
C32 H37 0.960 . S
C32 H38 0.959 . S
H33 C29 0.960 . S
H34 C29 0.961 . S
H35 C29 0.960 . S
H36 C32 0.960 . S
H37 C32 0.960 . S
H38 C32 0.959 . S
C39 N40 1.317 . S
C39 N41 1.348 . S
C39 C42 1.485 . S
N40 C39 1.317 . S
N40 N44 1.370 . S
N41 C39 1.348 . S
N41 C43 1.346 . S
C42 C39 1.485 . S
C42 H46 0.960 . S
C42 H47 0.961 . S
C42 H48 0.960 . S
C43 N41 1.346 . S
C43 N44 1.307 . S
C43 C45 1.486 . S
N44 N40 1.370 . S
N44 C43 1.307 . S
C45 C43 1.486 . S
C45 H49 0.960 . S
C45 H50 0.960 . S
C45 H51 0.959 . S
H46 C42 0.960 . S
H47 C42 0.961 . S
H48 C42 0.960 . S
H49 C45 0.960 . S
H50 C45 0.960 . S
H51 C45 0.959 . S
C52 N53 1.317 . S
C52 N54 1.348 1_554 S
C52 C55 1.485 . S
N53 C52 1.317 . S
N53 N57 1.370 1_554 S
N54 C52 1.348 1_556 S
N54 C56 1.346 . S
C55 C52 1.485 . S
C55 H59 0.960 . S
C55 H60 0.961 . S
C55 H61 0.960 . S
C56 N54 1.346 . S
C56 N57 1.307 . S
C56 C58 1.486 . S
N57 N53 1.370 1_556 S
N57 C56 1.307 . S
C58 C56 1.486 . S
C58 H62 0.960 . S
C58 H63 0.960 . S
C58 H64 0.959 . S
H59 C55 0.960 . S
H60 C55 0.961 . S
H61 C55 0.960 . S
H62 C58 0.960 . S
H63 C58 0.960 . S
H64 C58 0.959 . S
C65 N66 1.317 . S
C65 N67 1.348 . S
C65 C68 1.485 . S
N66 C65 1.317 . S
N66 N70 1.370 . S
N67 C65 1.348 . S
N67 C69 1.346 . S
C68 C65 1.485 . S
C68 H72 0.960 . S
C68 H73 0.961 . S
C68 H74 0.960 . S
C69 N67 1.346 . S
C69 N70 1.307 . S
C69 C71 1.486 . S
N70 N66 1.370 . S
N70 C69 1.307 . S
C71 C69 1.486 . S
C71 H75 0.960 . S
C71 H76 0.960 . S
C71 H77 0.959 . S
H72 C68 0.960 . S
H73 C68 0.961 . S
H74 C68 0.960 . S
H75 C71 0.960 . S
H76 C71 0.960 . S
H77 C71 0.959 . S
C78 N79 1.317 . S
C78 N80 1.348 1_554 S
C78 C81 1.485 . S
N79 C78 1.317 . S
N79 N83 1.370 1_554 S
N80 C78 1.348 1_556 S
N80 C82 1.346 . S
C81 C78 1.485 . S
C81 H85 0.960 . S
C81 H86 0.961 . S
C81 H87 0.960 . S
C82 N80 1.346 . S
C82 N83 1.307 . S
C82 C84 1.486 . S
N83 N79 1.370 1_556 S
N83 C82 1.307 . S
C84 C82 1.486 . S
C84 H88 0.960 . S
C84 H89 0.960 . S
C84 H90 0.959 . S
H85 C81 0.960 . S
H86 C81 0.961 . S
H87 C81 0.960 . S
H88 C84 0.960 . S
H89 C84 0.960 . S
H90 C84 0.959 . S
C91 N92 1.317 . S
C91 N93 1.348 . S
C91 C94 1.485 . S
N92 C91 1.317 . S
N92 N96 1.370 . S
N93 C91 1.348 . S
N93 C95 1.346 . S
C94 C91 1.485 . S
C94 H98 0.960 . S
C94 H99 0.961 . S
C94 H100 0.960 . S
C95 N93 1.346 . S
C95 N96 1.307 . S
C95 C97 1.486 . S
N96 N92 1.370 . S
N96 C95 1.307 . S
C97 C95 1.486 . S
C97 H101 0.960 . S
C97 H102 0.960 . S
C97 H103 0.959 . S
H98 C94 0.960 . S
H99 C94 0.961 . S
H100 C94 0.960 . S
H101 C97 0.960 . S
H102 C97 0.960 . S
H103 C97 0.959 . S
Sc104 O107 2.025 . S
Sc104 O114 2.105 1_455 S
Sc104 O117 2.105 . S
Sc104 O120 2.105 . S
Sc104 O123 2.105 1_455 S
Sc105 O107 2.025 . S
Sc105 O115 2.105 1_455 S
Sc105 O119 2.105 . S
Sc105 O121 2.105 . S
Sc105 O125 2.105 1_455 S
Sc106 O107 2.025 . S
Sc106 O116 2.105 1_455 S
Sc106 O118 2.105 . S
Sc106 O122 2.105 . S
Sc106 O124 2.105 1_455 S
O107 Sc104 2.025 . S
O107 Sc105 2.025 . S
O107 Sc106 2.025 . S
C108 O114 1.268 . S
C108 O124 1.268 . S
C109 O115 1.268 . S
C109 O123 1.268 . S
C110 O116 1.268 . S
C110 O125 1.268 . S
C111 O117 1.268 . S
C111 O121 1.268 . S
C112 O118 1.268 . S
C112 O120 1.268 . S
C113 O119 1.268 . S
C113 O122 1.268 . S
O114 Sc104 2.105 1_655 S
O114 C108 1.268 . S
O115 Sc105 2.105 1_655 S
O115 C109 1.268 . S
O116 Sc106 2.105 1_655 S
O116 C110 1.268 . S
O117 Sc104 2.105 . S
O117 C111 1.268 . S
O118 Sc106 2.105 . S
O118 C112 1.268 . S
O119 Sc105 2.105 . S
O119 C113 1.268 . S
O120 Sc104 2.105 . S
O120 C112 1.268 . S
O121 Sc105 2.105 . S
O121 C111 1.268 . S
O122 Sc106 2.105 . S
O122 C113 1.268 . S
O123 Sc104 2.105 1_655 S
O123 C109 1.268 . S
O124 Sc106 2.105 1_655 S
O124 C108 1.268 . S
O125 Sc105 2.105 1_655 S
O125 C110 1.268 . S
Sc126 O129 2.025 . S
Sc126 O136 2.105 . S
Sc126 O139 2.105 1_455 S
Sc126 O142 2.105 1_455 S
Sc126 O145 2.105 . S
Sc127 O129 2.025 . S
Sc127 O137 2.105 . S
Sc127 O141 2.105 1_455 S
Sc127 O143 2.105 1_455 S
Sc127 O147 2.105 . S
Sc128 O129 2.025 . S
Sc128 O138 2.105 . S
Sc128 O140 2.105 1_455 S
Sc128 O144 2.105 1_455 S
Sc128 O146 2.105 . S
O129 Sc126 2.025 . S
O129 Sc127 2.025 . S
O129 Sc128 2.025 . S
C130 O136 1.268 . S
C130 O146 1.268 . S
C131 O137 1.268 . S
C131 O145 1.268 . S
C132 O138 1.268 . S
C132 O147 1.268 . S
C133 O139 1.268 . S
C133 O143 1.268 . S
C134 O140 1.268 . S
C134 O142 1.268 . S
C135 O141 1.268 . S
C135 O144 1.268 . S
O136 Sc126 2.105 . S
O136 C130 1.268 . S
O137 Sc127 2.105 . S
O137 C131 1.268 . S
O138 Sc128 2.105 . S
O138 C132 1.268 . S
O139 Sc126 2.105 1_655 S
O139 C133 1.268 . S
O140 Sc128 2.105 1_655 S
O140 C134 1.268 . S
O141 Sc127 2.105 1_655 S
O141 C135 1.268 . S
O142 Sc126 2.105 1_655 S
O142 C134 1.268 . S
O143 Sc127 2.105 1_655 S
O143 C133 1.268 . S
O144 Sc128 2.105 1_655 S
O144 C135 1.268 . S
O145 Sc126 2.105 . S
O145 C131 1.268 . S
O146 Sc128 2.105 . S
O146 C130 1.268 . S
O147 Sc127 2.105 . S
O147 C132 1.268 . S
Sc148 O151 2.025 . S
Sc148 O158 2.105 . S
Sc148 O161 2.105 . S
Sc148 O164 2.105 . S
Sc148 O167 2.105 . S
Sc149 O151 2.025 . S
Sc149 O159 2.105 . S
Sc149 O163 2.105 . S
Sc149 O165 2.105 . S
Sc149 O169 2.105 . S
Sc150 O151 2.025 . S
Sc150 O160 2.105 . S
Sc150 O162 2.105 . S
Sc150 O166 2.105 . S
Sc150 O168 2.105 . S
O151 Sc148 2.025 . S
O151 Sc149 2.025 . S
O151 Sc150 2.025 . S
C152 O158 1.268 . S
C152 O168 1.268 . S
C153 O159 1.268 . S
C153 O167 1.268 . S
C154 O160 1.268 . S
C154 O169 1.268 . S
C155 O161 1.268 . S
C155 O165 1.268 . S
C156 O162 1.268 . S
C156 O164 1.268 . S
C157 O163 1.268 . S
C157 O166 1.268 . S
O158 Sc148 2.105 . S
O158 C152 1.268 . S
O159 Sc149 2.105 . S
O159 C153 1.268 . S
O160 Sc150 2.105 . S
O160 C154 1.268 . S
O161 Sc148 2.105 . S
O161 C155 1.268 . S
O162 Sc150 2.105 . S
O162 C156 1.268 . S
O163 Sc149 2.105 . S
O163 C157 1.268 . S
O164 Sc148 2.105 . S
O164 C156 1.268 . S
O165 Sc149 2.105 . S
O165 C155 1.268 . S
O166 Sc150 2.105 . S
O166 C157 1.268 . S
O167 Sc148 2.105 . S
O167 C153 1.268 . S
O168 Sc150 2.105 . S
O168 C152 1.268 . S
O169 Sc149 2.105 . S
O169 C154 1.268 . S
Sc170 O173 2.025 . S
Sc170 O180 2.105 . S
Sc170 O183 2.105 . S
Sc170 O186 2.105 . S
Sc170 O189 2.105 . S
Sc171 O173 2.025 . S
Sc171 O181 2.105 . S
Sc171 O185 2.105 . S
Sc171 O187 2.105 . S
Sc171 O191 2.105 . S
Sc172 O173 2.025 . S
Sc172 O182 2.105 . S
Sc172 O184 2.105 . S
Sc172 O188 2.105 . S
Sc172 O190 2.105 . S
O173 Sc170 2.025 . S
O173 Sc171 2.025 . S
O173 Sc172 2.025 . S
C174 O180 1.268 . S
C174 O190 1.268 . S
C175 O181 1.268 . S
C175 O189 1.268 . S
C176 O182 1.268 . S
C176 O191 1.268 . S
C177 O183 1.268 . S
C177 O187 1.268 . S
C178 O184 1.268 . S
C178 O186 1.268 . S
C179 O185 1.268 . S
C179 O188 1.268 . S
O180 Sc170 2.105 . S
O180 C174 1.268 . S
O181 Sc171 2.105 . S
O181 C175 1.268 . S
O182 Sc172 2.105 . S
O182 C176 1.268 . S
O183 Sc170 2.105 . S
O183 C177 1.268 . S
O184 Sc172 2.105 . S
O184 C178 1.268 . S
O185 Sc171 2.105 . S
O185 C179 1.268 . S
O186 Sc170 2.105 . S
O186 C178 1.268 . S
O187 Sc171 2.105 . S
O187 C177 1.268 . S
O188 Sc172 2.105 . S
O188 C179 1.268 . S
O189 Sc170 2.105 . S
O189 C175 1.268 . S
O190 Sc172 2.105 . S
O190 C174 1.268 . S
O191 Sc171 2.105 . S
O191 C176 1.268 . S
C192 C193 1.387 . S
C192 H196 0.950 . S
C192 C201 1.390 . S
C193 C192 1.387 . S
C193 C195 1.387 . S
H194 C201 0.950 . S
C195 C193 1.387 . S
C195 C197 1.390 . S
C195 H199 0.950 1_556 S
H196 C192 0.950 . S
C197 C195 1.390 . S
C197 C198 1.387 . S
C197 H200 0.950 . S
C198 C197 1.387 . S
C198 C201 1.387 . S
H199 C195 0.950 1_554 S
H200 C197 0.950 . S
C201 C192 1.390 . S
C201 H194 0.950 . S
C201 C198 1.387 . S
C202 C203 1.387 . S
C202 H206 0.950 . S
C202 C211 1.390 . S
C203 C202 1.387 . S
C203 C205 1.387 . S
H204 C211 0.950 . S
C205 C203 1.387 . S
C205 C207 1.390 . S
C205 H209 0.950 . S
H206 C202 0.950 . S
C207 C205 1.390 . S
C207 C208 1.387 . S
C207 H210 0.950 . S
C208 C207 1.387 . S
C208 C211 1.387 . S
H209 C205 0.950 . S
H210 C207 0.950 . S
C211 C202 1.390 . S
C211 H204 0.950 . S
C211 C208 1.387 . S
C212 C213 1.387 . S
C212 H216 0.950 1_556 S
C212 C221 1.390 . S
C213 C212 1.387 . S
C213 C215 1.387 . S
H214 C221 0.950 . S
C215 C213 1.387 . S
C215 C217 1.390 . S
C215 H219 0.950 . S
H216 C212 0.950 1_554 S
C217 C215 1.390 . S
C217 C218 1.387 . S
C217 H220 0.950 . S
C218 C217 1.387 . S
C218 C221 1.387 . S
H219 C215 0.950 . S
H220 C217 0.950 . S
C221 C212 1.390 . S
C221 H214 0.950 . S
C221 C218 1.387 . S
C222 C223 1.387 . S
C222 H226 0.950 . S
C222 C231 1.390 . S
C223 C222 1.387 . S
C223 C225 1.387 . S
H224 C231 0.950 . S
C225 C223 1.387 . S
C225 C227 1.390 . S
C225 H229 0.950 . S
H226 C222 0.950 . S
C227 C225 1.390 . S
C227 C228 1.387 . S
C227 H230 0.950 . S
C228 C227 1.387 . S
C228 C231 1.387 . S
H229 C225 0.950 . S
H230 C227 0.950 . S
C231 C222 1.390 . S
C231 H224 0.950 . S
C231 C228 1.387 . S
C232 C233 1.387 . S
C232 H236 0.950 1_556 S
C232 C241 1.390 . S
C233 C232 1.387 . S
C233 C235 1.387 . S
H234 C241 0.950 . S
C235 C233 1.387 . S
C235 C237 1.390 . S
C235 H239 0.950 . S
H236 C232 0.950 1_554 S
C237 C235 1.390 . S
C237 C238 1.387 . S
C237 H240 0.950 . S
C238 C237 1.387 . S
C238 C241 1.387 . S
H239 C235 0.950 . S
H240 C237 0.950 . S
C241 C232 1.390 . S
C241 H234 0.950 . S
C241 C238 1.387 . S
C242 C243 1.387 . S
C242 H246 0.950 . S
C242 C251 1.390 . S
C243 C242 1.387 . S
C243 C245 1.387 . S
H244 C251 0.950 . S
C245 C243 1.387 . S
C245 C247 1.390 . S
C245 H249 0.950 . S
H246 C242 0.950 . S
C247 C245 1.390 . S
C247 C248 1.387 . S
C247 H250 0.950 . S
C248 C247 1.387 . S
C248 C251 1.387 . S
H249 C245 0.950 . S
H250 C247 0.950 . S
C251 C242 1.390 . S
C251 H244 0.950 . S
C251 C248 1.387 . S
C252 C253 1.387 . S
C252 H256 0.950 1_556 S
C252 C261 1.390 . S
C253 C252 1.387 . S
C253 C255 1.387 . S
H254 C261 0.950 . S
C255 C253 1.387 . S
C255 C257 1.390 . S
C255 H259 0.950 . S
H256 C252 0.950 1_554 S
C257 C255 1.390 . S
C257 C258 1.387 . S
C257 H260 0.950 . S
C258 C257 1.387 . S
C258 C261 1.387 . S
H259 C255 0.950 . S
H260 C257 0.950 . S
C261 C252 1.390 . S
C261 H254 0.950 . S
C261 C258 1.387 . S
C262 C263 1.387 . S
C262 H266 0.950 . S
C262 C271 1.390 . S
C263 C262 1.387 . S
C263 C265 1.387 . S
H264 C271 0.950 . S
C265 C263 1.387 . S
C265 C267 1.390 . S
C265 H269 0.950 . S
H266 C262 0.950 . S
C267 C265 1.390 . S
C267 C268 1.387 . S
C267 H270 0.950 . S
C268 C267 1.387 . S
C268 C271 1.387 . S
H269 C265 0.950 . S
H270 C267 0.950 . S
C271 C262 1.390 . S
C271 H264 0.950 . S
C271 C268 1.387 . S
C272 C273 1.387 . S
C272 H276 0.950 . S
C272 C281 1.390 . S
C273 C272 1.387 . S
C273 C275 1.398 . S
H274 C281 0.950 . S
C275 C273 1.398 . S
C275 C277 1.399 . S
C275 H279 0.931 1_556 S
H276 C272 0.950 . S
C277 C275 1.399 . S
C277 C278 1.387 . S
C277 H280 0.950 . S
C278 C277 1.387 . S
C278 C281 1.387 . S
H279 C275 0.931 1_554 S
H280 C277 0.950 . S
C281 C272 1.390 . S
C281 H274 0.950 . S
C281 C278 1.387 . S
C282 C283 1.387 . S
C282 H286 0.950 . S
C282 C291 1.390 . S
C283 C282 1.387 . S
C283 C285 1.387 . S
H284 C291 0.950 . S
C285 C283 1.387 . S
C285 C287 1.390 . S
C285 H289 0.950 . S
H286 C282 0.950 . S
C287 C285 1.390 . S
C287 C288 1.387 . S
C287 H290 0.950 . S
C288 C287 1.387 . S
C288 C291 1.387 . S
H289 C285 0.950 . S
H290 C287 0.950 . S
C291 C282 1.390 . S
C291 H284 0.950 . S
C291 C288 1.387 . S
C292 C293 1.387 . S
C292 H296 0.950 . S
C292 C301 1.390 . S
C293 C292 1.387 . S
C293 C295 1.387 . S
H294 C301 0.950 . S
C295 C293 1.387 . S
C295 C297 1.390 . S
C295 H299 0.950 1_556 S
H296 C292 0.950 . S
C297 C295 1.390 . S
C297 C298 1.387 . S
C297 H300 0.950 . S
C298 C297 1.387 . S
C298 C301 1.387 . S
H299 C295 0.950 1_554 S
H300 C297 0.950 . S
C301 C292 1.390 . S
C301 H294 0.950 . S
C301 C298 1.387 . S
C302 C303 1.387 . S
C302 H306 0.950 . S
C302 C311 1.390 . S
C303 C302 1.387 . S
C303 C305 1.387 . S
H304 C311 0.950 . S
C305 C303 1.387 . S
C305 C307 1.390 . S
C305 H309 0.950 . S
H306 C302 0.950 . S
C307 C305 1.390 . S
C307 C308 1.387 . S
C307 H310 0.950 . S
C308 C307 1.387 . S
C308 C311 1.387 . S
H309 C305 0.950 . S
H310 C307 0.950 . S
C311 C302 1.390 . S
C311 H304 0.950 . S
C311 C308 1.387 . S
C312 C313 1.387 . S
C312 H316 0.950 . S
C312 C321 1.390 1_565 S
C313 C312 1.387 . S
C313 C315 1.387 . S
H314 C321 0.950 . S
C315 C313 1.387 . S
C315 C317 1.390 . S
C315 H319 0.947 1_556 S
H316 C312 0.950 . S
C317 C315 1.390 . S
C317 C318 1.387 1_565 S
C317 H320 0.950 . S
C318 C317 1.387 1_545 S
C318 C321 1.387 . S
H319 C315 0.947 1_554 S
H320 C317 0.950 . S
C321 C312 1.390 1_545 S
C321 H314 0.950 . S
C321 C318 1.387 . S
C322 C323 1.387 . S
C322 H326 0.950 . S
C322 C331 1.390 1_545 S
C323 C322 1.387 . S
C323 C325 1.387 . S
H324 C331 0.950 . S
C325 C323 1.387 . S
C325 C327 1.390 . S
C325 H329 0.950 . S
H326 C322 0.950 . S
C327 C325 1.390 . S
C327 C328 1.387 1_545 S
C327 H330 0.950 . S
C328 C327 1.387 1_565 S
C328 C331 1.387 . S
H329 C325 0.950 . S
H330 C327 0.950 . S
C331 C322 1.390 1_565 S
C331 H324 0.950 . S
C331 C328 1.387 . S
C332 C333 1.387 . S
C332 H336 0.950 . S
C332 C341 1.390 . S
C333 C332 1.387 . S
C333 C335 1.387 . S
H334 C341 0.950 . S
C335 C333 1.387 . S
C335 C337 1.390 1_565 S
C335 H339 0.950 1_566 S
H336 C332 0.950 . S
C337 C335 1.390 1_545 S
C337 C338 1.387 . S
C337 H340 0.950 . S
C338 C337 1.387 . S
C338 C341 1.387 1_545 S
H339 C335 0.950 1_544 S
H340 C337 0.950 . S
C341 C332 1.390 . S
C341 H334 0.950 . S
C341 C338 1.387 1_565 S
C342 C343 1.387 . S
C342 H346 0.950 . S
C342 C351 1.390 . S
C343 C342 1.387 . S
C343 C345 1.387 . S
H344 C351 0.950 . S
C345 C343 1.387 . S
C345 C347 1.390 1_545 S
C345 H349 0.954 . S
H346 C342 0.950 . S
C347 C345 1.390 1_565 S
C347 C348 1.387 . S
C347 H350 0.950 . S
C348 C347 1.387 . S
C348 C351 1.387 1_565 S
H349 C345 0.954 . S
H350 C347 0.950 . S
C351 C342 1.390 . S
C351 H344 0.950 . S
C351 C348 1.387 1_545 S
C352 C353 1.387 . S
C352 H356 0.950 . S
C352 C361 1.390 . S
C353 C352 1.387 . S
C353 C355 1.387 . S
H354 C361 0.950 . S
C355 C353 1.387 . S
C355 C357 1.390 . S
C355 H359 0.950 . S
H356 C352 0.950 . S
C357 C355 1.390 . S
C357 C358 1.387 . S
C357 H360 0.950 . S
C358 C357 1.387 . S
C358 C361 1.387 . S
H359 C355 0.950 . S
H360 C357 0.950 . S
C361 C352 1.390 . S
C361 H354 0.950 . S
C361 C358 1.387 . S
C362 C363 1.387 . S
C362 H366 0.950 . S
C362 C371 1.390 . S
C363 C362 1.387 . S
C363 C365 1.387 . S
H364 C371 0.950 . S
C365 C363 1.387 . S
C365 C367 1.390 . S
C365 H369 0.950 . S
H366 C362 0.950 . S
C367 C365 1.390 . S
C367 C368 1.387 . S
C367 H370 0.950 . S
C368 C367 1.387 . S
C368 C371 1.387 . S
H369 C365 0.950 . S
H370 C367 0.950 . S
C371 C362 1.390 . S
C371 H364 0.950 . S
C371 C368 1.387 . S
C372 C373 1.387 . S
C372 H376 0.950 . S
C372 C381 1.390 . S
C373 C372 1.387 . S
C373 C375 1.387 . S
H374 C381 0.950 . S
C375 C373 1.387 . S
C375 C377 1.390 . S
C375 H379 0.950 . S
H376 C372 0.950 . S
C377 C375 1.390 . S
C377 C378 1.387 . S
C377 H380 0.950 . S
C378 C377 1.387 . S
C378 C381 1.387 . S
H379 C375 0.950 . S
H380 C377 0.950 . S
C381 C372 1.390 . S
C381 H374 0.950 . S
C381 C378 1.387 . S
C382 C383 1.387 . S
C382 H386 0.950 . S
C382 C391 1.390 . S
C383 C382 1.387 . S
C383 C385 1.387 . S
H384 C391 0.950 . S
C385 C383 1.387 . S
C385 C387 1.390 . S
C385 H389 0.950 . S
H386 C382 0.950 . S
C387 C385 1.390 . S
C387 C388 1.387 . S
C387 H390 0.950 . S
C388 C387 1.387 . S
C388 C391 1.387 . S
H389 C385 0.950 . S
H390 C387 0.950 . S
C391 C382 1.390 . S
C391 H384 0.950 . S
C391 C388 1.387 . S
C392 C393 1.387 . S
C392 H396 0.950 . S
C392 C401 1.390 . S
C393 C392 1.387 . S
C393 C395 1.387 . S
H394 C401 0.950 . S
C395 C393 1.387 . S
C395 C397 1.390 . S
C395 H399 0.950 . S
H396 C392 0.950 . S
C397 C395 1.390 . S
C397 C398 1.387 . S
C397 H400 0.950 . S
C398 C397 1.387 . S
C398 C401 1.387 . S
H399 C395 0.950 . S
H400 C397 0.950 . S
C401 C392 1.390 . S
C401 H394 0.950 . S
C401 C398 1.387 . S
C402 C403 1.387 . S
C402 H406 0.950 . S
C402 C411 1.390 . S
C403 C402 1.387 . S
C403 C405 1.387 . S
H404 C411 0.950 . S
C405 C403 1.387 . S
C405 C407 1.390 . S
C405 H409 0.950 . S
H406 C402 0.950 . S
C407 C405 1.390 . S
C407 C408 1.387 . S
C407 H410 0.950 . S
C408 C407 1.387 . S
C408 C411 1.387 . S
H409 C405 0.950 . S
H410 C407 0.950 . S
C411 C402 1.390 . S
C411 H404 0.950 . S
C411 C408 1.387 . S
C412 C413 1.387 . S
C412 H416 0.950 . S
C412 C421 1.390 . S
C413 C412 1.387 . S
C413 C415 1.387 . S
H414 C421 0.950 . S
C415 C413 1.387 . S
C415 C417 1.390 . S
C415 H419 0.950 . S
H416 C412 0.950 . S
C417 C415 1.390 . S
C417 C418 1.387 . S
C417 H420 0.950 . S
C418 C417 1.387 . S
C418 C421 1.387 . S
H419 C415 0.950 . S
H420 C417 0.950 . S
C421 C412 1.390 . S
C421 H414 0.950 . S
C421 C418 1.387 . S
C422 C423 1.387 . S
C422 H426 0.950 . S
C422 C431 1.390 . S
C423 C422 1.387 . S
C423 C425 1.387 . S
H424 C431 0.950 . S
C425 C423 1.387 . S
C425 C427 1.390 . S
C425 H429 0.950 . S
H426 C422 0.950 . S
C427 C425 1.390 . S
C427 C428 1.387 . S
C427 H430 0.950 . S
C428 C427 1.387 . S
C428 C431 1.387 . S
H429 C425 0.950 . S
H430 C427 0.950 . S
C431 C422 1.390 . S
C431 H424 0.950 . S
C431 C428 1.387 . S
C193 N2 1.530 . S
C198 C130 1.505 . S
C208 C108 1.504 . S
C203 N15 1.530 . S
C218 C134 1.506 . S
C213 N28 1.523 . S
C228 C112 1.504 . S
C223 N41 1.519 . S
C238 C174 1.504 . S
C233 N54 1.529 . S
C248 C152 1.504 . S
C243 N67 1.529 . S
C253 N80 1.521 . S
C258 C178 1.505 . S
C268 C156 1.504 . S
C263 N93 1.520 . S
C273 N5 1.505 . S
C278 C179 1.497 . S
C288 C157 1.495 . S
C283 N18 1.506 . S
C293 N31 1.504 . S
C298 C176 1.495 . S
C303 N44 1.503 . S
C308 C154 1.495 . S
C318 C135 1.496 . S
C313 N57 1.506 . S
C323 N70 1.506 . S
C328 C113 1.493 . S
C338 C132 1.495 . S
C333 N83 1.502 . S
C348 C110 1.495 . S
C343 N96 1.504 . S
C358 C153 1.493 . S
C353 N1 1.507 . S
C368 C175 1.493 . S
C363 N14 1.507 . S
C373 N27 1.492 . S
C378 C155 1.495 . S
C388 C177 1.493 . S
C383 N40 1.491 . S
C398 C109 1.493 . S
C393 N53 1.509 . S
C403 N66 1.507 . S
C408 C131 1.492 . S
C413 N79 1.492 . S
C418 C111 1.492 . S
C423 N92 1.492 . S
C428 C133 1.496 . S
