# Generated by pormake.
# Topology pyr, (3,6)-cn, num edge types: 1
# Building blocks:
#     Node 0, Type 0, BuildingBlock: KAKCAD_clean_linker_0, # of connection points: 3
#     Node 1, Type 0, BuildingBlock: KAKCAD_clean_linker_0, # of connection points: 3
#     Node 2, Type 0, BuildingBlock: KAKCAD_clean_linker_0, # of connection points: 3
#     Node 3, Type 0, BuildingBlock: KAKCAD_clean_linker_0, # of connection points: 3
#     Node 4, Type 0, BuildingBlock: KAKCAD_clean_linker_0, # of connection points: 3
#     Node 5, Type 0, BuildingBlock: KAKCAD_clean_linker_0, # of connection points: 3
#     Node 6, Type 0, BuildingBlock: KAKCAD_clean_linker_0, # of connection points: 3
#     Node 7, Type 0, BuildingBlock: KAKCAD_clean_linker_0, # of connection points: 3
#     Node 8, Type 1, BuildingBlock: FUNLAD_clean_sbu_0, # of connection points: 6
#     Node 9, Type 1, BuildingBlock: FUNLAD_clean_sbu_0, # of connection points: 6
#     Node 10, Type 1, BuildingBlock: FUNLAD_clean_sbu_0, # of connection points: 6
#     Node 11, Type 1, BuildingBlock: FUNLAD_clean_sbu_0, # of connection points: 6
#     Edge 12, Type (0, 1), BuildingBlock: EZIPEK_clean_linker_0, # of connection points: 2
#     Edge 13, Type (0, 1), BuildingBlock: EZIPEK_clean_linker_0, # of connection points: 2
#     Edge 14, Type (0, 1), BuildingBlock: EZIPEK_clean_linker_0, # of connection points: 2
#     Edge 15, Type (0, 1), BuildingBlock: EZIPEK_clean_linker_0, # of connection points: 2
#     Edge 16, Type (0, 1), BuildingBlock: EZIPEK_clean_linker_0, # of connection points: 2
#     Edge 17, Type (0, 1), BuildingBlock: EZIPEK_clean_linker_0, # of connection points: 2
#     Edge 18, Type (0, 1), BuildingBlock: EZIPEK_clean_linker_0, # of connection points: 2
#     Edge 19, Type (0, 1), BuildingBlock: EZIPEK_clean_linker_0, # of connection points: 2
#     Edge 20, Type (0, 1), BuildingBlock: EZIPEK_clean_linker_0, # of connection points: 2
#     Edge 21, Type (0, 1), BuildingBlock: EZIPEK_clean_linker_0, # of connection points: 2
#     Edge 22, Type (0, 1), BuildingBlock: EZIPEK_clean_linker_0, # of connection points: 2
#     Edge 23, Type (0, 1), BuildingBlock: EZIPEK_clean_linker_0, # of connection points: 2
#     Edge 24, Type (0, 1), BuildingBlock: EZIPEK_clean_linker_0, # of connection points: 2
#     Edge 25, Type (0, 1), BuildingBlock: EZIPEK_clean_linker_0, # of connection points: 2
#     Edge 26, Type (0, 1), BuildingBlock: EZIPEK_clean_linker_0, # of connection points: 2
#     Edge 27, Type (0, 1), BuildingBlock: EZIPEK_clean_linker_0, # of connection points: 2
#     Edge 28, Type (0, 1), BuildingBlock: EZIPEK_clean_linker_0, # of connection points: 2
#     Edge 29, Type (0, 1), BuildingBlock: EZIPEK_clean_linker_0, # of connection points: 2
#     Edge 30, Type (0, 1), BuildingBlock: EZIPEK_clean_linker_0, # of connection points: 2
#     Edge 31, Type (0, 1), BuildingBlock: EZIPEK_clean_linker_0, # of connection points: 2
#     Edge 32, Type (0, 1), BuildingBlock: EZIPEK_clean_linker_0, # of connection points: 2
#     Edge 33, Type (0, 1), BuildingBlock: EZIPEK_clean_linker_0, # of connection points: 2
#     Edge 34, Type (0, 1), BuildingBlock: EZIPEK_clean_linker_0, # of connection points: 2
#     Edge 35, Type (0, 1), BuildingBlock: EZIPEK_clean_linker_0, # of connection points: 2
# Relax obj value: 0.086
# Max RMSD: 0.071
# Mean RMSD: 0.036
data_MOF--net-pry--node1-FUNLAD_clean_sbu_0--node2-KAKCAD_clean_linker_0--edge1-EZIPEK_clean_linker_0
_symmetry_space_group_name_H-M    P1
_symmetry_Int_Tables_number       1
_symmetry_cell_setting            triclinic
loop_
_symmetry_equiv_pos_as_xyz
'x, y, z'
_cell_length_a     34.437728
_cell_length_b     36.586718
_cell_length_c     36.835287
_cell_angle_alpha  90.14836
_cell_angle_beta   90.020569
_cell_angle_gamma 83.512432
loop_
_atom_site_label
_atom_site_type_symbol
_atom_site_fract_x
_atom_site_fract_y
_atom_site_fract_z
_atom_type_partial_charge
C0 C 0.06817 0.13697 0.30028 0.0
C1 C 0.09435 0.11518 0.32296 0.0
C2 C 0.08132 0.15337 0.26859 0.0
C3 C 0.12125 0.14901 0.25881 0.0
C4 C 0.14738 0.12787 0.2823 0.0
C5 C 0.13411 0.11091 0.31342 0.0
C6 C 0.1359 0.16561 0.22431 0.0
C7 C 0.11729 0.19878 0.20911 0.0
C8 C 0.13246 0.21448 0.17773 0.0
C9 C 0.16637 0.19654 0.16145 0.0
C10 C 0.18503 0.16328 0.17524 0.0
C11 C 0.16936 0.14807 0.20638 0.0
C12 C 0.22111 0.14463 0.15719 0.0
C13 C 0.22434 0.14332 0.11904 0.0
C14 C 0.25297 0.12856 0.17792 0.0
C15 C 0.28712 0.1121 0.161 0.0
C16 C 0.29024 0.11118 0.12298 0.0
C17 C 0.11376 0.24974 0.16134 0.0
C18 C 0.07451 0.2536 0.14986 0.0
C19 C 0.13634 0.27865 0.1539 0.0
C20 C 0.1204 0.31023 0.13512 0.0
C21 C 0.08158 0.31361 0.12251 0.0
C22 C 0.05874 0.28496 0.13038 0.0
C23 C 0.25845 0.12677 0.10216 0.0
H24 H 0.03733 0.14094 0.30689 0.0
H25 H 0.0599 0.16893 0.25151 0.0
H26 H 0.17847 0.12445 0.27701 0.0
H27 H 0.15514 0.09459 0.33035 0.0
H28 H 0.0918 0.21314 0.22213 0.0
H29 H 0.18303 0.12183 0.2161 0.0
H30 H 0.17833 0.2087 0.13772 0.0
H31 H 0.20035 0.1549 0.10211 0.0
H32 H 0.25185 0.12936 0.20729 0.0
H33 H 0.31131 0.10034 0.17761 0.0
H34 H 0.05644 0.23173 0.15475 0.0
H35 H 0.16665 0.27661 0.16229 0.0
H36 H 0.26016 0.12633 0.0728 0.0
H37 H 0.02877 0.28668 0.12102 0.0
H38 H 0.13871 0.3318 0.12971 0.0
C39 C 0.37872 0.93556 0.81299 0.0
C40 C 0.41855 0.93142 0.82232 0.0
C41 C 0.36533 0.9184 0.78197 0.0
C42 C 0.39138 0.89707 0.7585 0.0
C43 C 0.43139 0.89297 0.76801 0.0
C44 C 0.44468 0.90964 0.79953 0.0
C45 C 0.37666 0.87983 0.72436 0.0
C46 C 0.3432 0.89693 0.70615 0.0
C47 C 0.32802 0.88095 0.67525 0.0
C48 C 0.3465 0.8475 0.66189 0.0
C49 C 0.38022 0.82985 0.6787 0.0
C50 C 0.39525 0.84627 0.70981 0.0
C51 C 0.39895 0.79413 0.66331 0.0
C52 C 0.37655 0.76478 0.65723 0.0
C53 C 0.43821 0.78995 0.65193 0.0
C54 C 0.45423 0.75774 0.63385 0.0
C55 C 0.43163 0.72855 0.62743 0.0
C56 C 0.29245 0.89905 0.65688 0.0
C57 C 0.25507 0.89321 0.66923 0.0
C58 C 0.29566 0.9216 0.62646 0.0
C59 C 0.26205 0.93816 0.60877 0.0
C60 C 0.22457 0.93213 0.62092 0.0
C61 C 0.22147 0.90945 0.65136 0.0
C62 C 0.39277 0.73233 0.63995 0.0
H63 H 0.35777 0.9519 0.83005 0.0
H64 H 0.33421 0.9217 0.77676 0.0
H65 H 0.45274 0.87733 0.75085 0.0
H66 H 0.47556 0.9058 0.806 0.0
H67 H 0.3289 0.92311 0.71556 0.0
H68 H 0.42062 0.83215 0.72318 0.0
H69 H 0.33471 0.83529 0.63802 0.0
H70 H 0.34623 0.76709 0.66564 0.0
H71 H 0.45612 0.81215 0.65586 0.0
H72 H 0.48421 0.75573 0.62448 0.0
H73 H 0.2519 0.87584 0.69257 0.0
H74 H 0.3242 0.92639 0.6164 0.0
H75 H 0.37465 0.71036 0.6356 0.0
H76 H 0.19297 0.90438 0.66129 0.0
H77 H 0.26526 0.95556 0.58547 0.0
C78 C 0.73612 0.5044 0.98274 0.0
C79 C 0.76159 0.48013 1.00343 0.0
C80 C 0.69737 0.49777 0.97761 0.0
C81 C 0.68356 0.46611 0.9922 0.0
C82 C 0.70897 0.44253 1.01399 0.0
C83 C 0.74743 0.44977 0.01993 0.0
C84 C 0.64422 0.45606 0.98201 0.0
C85 C 0.63012 0.46285 0.94645 0.0
C86 C 0.59561 0.44959 0.93473 0.0
C87 C 0.57436 0.4304 0.95905 0.0
C88 C 0.5884 0.42213 0.9941 0.0
C89 C 0.62282 0.43576 1.0058 0.0
C90 C 0.57227 0.39194 1.01355 0.0
C91 C 0.53159 0.39064 1.01464 0.0
C92 C 0.59736 0.35982 0.02097 0.0
C93 C 0.58234 0.32615 0.02402 0.0
C94 C 0.54214 0.32437 0.02015 0.0
C95 C 0.58466 0.45091 0.89586 0.0
C96 C 0.58486 0.48344 0.87574 0.0
C97 C 0.57509 0.41884 0.87839 0.0
C98 C 0.5658 0.4193 0.84158 0.0
C99 C 0.56602 0.45176 0.82167 0.0
C100 C 0.57543 0.48388 0.83883 0.0
C101 C 0.51655 0.3569 0.01787 0.0
H102 H 0.74646 0.52817 0.97005 0.0
H103 H 0.67852 0.51705 0.96144 0.0
H104 H 0.69989 0.41756 0.02524 0.0
H105 H 0.76668 0.43082 0.03613 0.0
H106 H 0.64748 0.47593 0.92686 0.0
H107 H 0.63368 0.42896 0.03283 0.0
H108 H 0.54849 0.41898 0.94945 0.0
H109 H 0.51169 0.41509 1.00907 0.0
H110 H 0.62879 0.35993 0.02004 0.0
H111 H 0.60235 0.30115 0.02599 0.0
H112 H 0.59214 0.50845 0.88858 0.0
H113 H 0.57551 0.39316 0.89304 0.0
H114 H 0.48539 0.35583 1.01504 0.0
H115 H 0.57574 0.50912 0.82357 0.0
H116 H 0.55879 0.39429 0.82852 0.0
C117 C 0.92529 0.54971 0.33086 0.0
C118 C 0.9647 0.55131 0.32234 0.0
C119 C 0.91283 0.55215 0.36686 0.0
C120 C 0.93971 0.55596 0.39503 0.0
C121 C 0.97974 0.55441 0.38647 0.0
C122 C 0.99209 0.55251 0.35033 0.0
C123 C 0.92518 0.56819 0.43155 0.0
C124 C 0.89116 0.55611 0.44604 0.0
C125 C 0.87149 0.57477 0.47534 0.0
C126 C 0.88773 0.60439 0.49159 0.0
C127 C 0.92246 0.61594 0.47813 0.0
C128 C 0.94108 0.59744 0.44846 0.0
C129 C 0.93571 0.65129 0.48963 0.0
C130 C 0.90886 0.6832 0.49065 0.0
C131 C 0.97587 0.65457 0.49306 0.0
C132 C 0.98909 0.68923 0.49456 0.0
C133 C 0.96226 0.72094 0.49289 0.0
C134 C 0.83153 0.56676 0.48545 0.0
C135 C 0.80476 0.55954 0.45815 0.0
C136 C 0.8189 0.56861 0.52183 0.0
C137 C 0.78027 0.56378 0.53057 0.0
C138 C 0.75389 0.55683 0.50308 0.0
C139 C 0.7664 0.55445 0.46694 0.0
C140 C 0.92209 0.71781 0.49221 0.0
H141 H 0.90383 0.54874 0.30946 0.0
H142 H 0.88177 0.55378 0.37222 0.0
H143 H 1.00123 0.55675 0.40758 0.0
H144 H 0.02269 0.55357 0.34411 0.0
H145 H 0.87883 0.53338 0.43319 0.0
H146 H 0.96589 0.60845 0.43619 0.0
H147 H 0.87217 0.61999 0.51318 0.0
H148 H 0.87782 0.68159 0.48749 0.0
H149 H 0.99712 0.63036 0.49245 0.0
H150 H 0.0202 0.69136 0.49519 0.0
H151 H 0.81305 0.55887 0.42978 0.0
H152 H 0.8388 0.57396 0.54347 0.0
H153 H 0.90112 0.74219 0.4909 0.0
H154 H 0.74621 0.54927 0.44545 0.0
H155 H 0.77089 0.5656 0.55864 0.0
C156 C 0.91959 0.89112 0.7181 0.0
C157 C 0.91836 0.92968 0.71572 0.0
C158 C 0.90625 0.87429 0.74944 0.0
C159 C 0.8909 0.89556 0.7792 0.0
C160 C 0.89009 0.93416 0.77673 0.0
C161 C 0.9037 0.9509 0.7456 0.0
C162 C 0.87471 0.8781 0.81226 0.0
C163 C 0.89349 0.84526 0.82778 0.0
C164 C 0.87879 0.83018 0.85972 0.0
C165 C 0.84441 0.84811 0.87539 0.0
C166 C 0.82446 0.88021 0.86021 0.0
C167 C 0.84005 0.89488 0.8287 0.0
C168 C 0.7875 0.89828 0.8776 0.0
C169 C 0.76124 0.87707 0.89501 0.0
C170 C 0.77837 0.93688 0.87768 0.0
C171 C 0.7444 0.95357 0.8948 0.0
C172 C 0.71889 0.93223 0.91277 0.0
C173 C 0.89854 0.79581 0.87743 0.0
C174 C 0.91279 0.76456 0.85691 0.0
C175 C 0.90077 0.79316 0.91564 0.0
C176 C 0.91521 0.76014 0.93275 0.0
C177 C 0.92816 0.72868 0.91229 0.0
C178 C 0.92734 0.7314 0.87413 0.0
C179 C 0.72769 0.8938 0.9126 0.0
H180 H 0.93081 0.874 0.69557 0.0
H181 H 0.90717 0.84461 0.75001 0.0
H182 H 0.87912 0.9516 0.79911 0.0
H183 H 0.90265 0.98058 0.74477 0.0
H184 H 0.92022 0.83214 0.81575 0.0
H185 H 0.82461 0.91908 0.81627 0.0
H186 H 0.83305 0.83681 0.8998 0.0
H187 H 0.76634 0.84733 0.89496 0.0
H188 H 0.79781 0.95439 0.86513 0.0
H189 H 0.73826 0.98326 0.89444 0.0
H190 H 0.91142 0.76531 0.82755 0.0
H191 H 0.89086 0.81664 0.93252 0.0
H192 H 0.70839 0.87667 0.92599 0.0
H193 H 0.9372 0.70759 0.85766 0.0
H194 H 0.9157 0.75897 0.96213 0.0
C195 C 0.61078 0.09025 0.24698 0.0
C196 C 0.59269 0.1119 0.21897 0.0
C197 C 0.62417 0.10657 0.27851 0.0
C198 C 0.62048 0.14521 0.28295 0.0
C199 C 0.60186 0.1668 0.25485 0.0
C200 C 0.58806 0.15037 0.22341 0.0
C201 C 0.6368 0.16251 0.31625 0.0
C202 C 0.67115 0.14546 0.33305 0.0
C203 C 0.6866 0.16018 0.36464 0.0
C204 C 0.66758 0.19301 0.37918 0.0
C205 C 0.63342 0.21105 0.36338 0.0
C206 C 0.61837 0.19565 0.3317 0.0
C207 C 0.61424 0.24591 0.38064 0.0
C208 C 0.61221 0.24931 0.41881 0.0
C209 C 0.60018 0.2768 0.35969 0.0
C210 C 0.58593 0.31034 0.37646 0.0
C211 C 0.58522 0.31376 0.41456 0.0
C212 C 0.72259 0.14152 0.38279 0.0
C213 C 0.75476 0.12553 0.36236 0.0
C214 C 0.72537 0.14023 0.42099 0.0
C215 C 0.7594 0.12412 0.43819 0.0
C216 C 0.79155 0.1087 0.41771 0.0
C217 C 0.78882 0.10933 0.37963 0.0
C218 C 0.59801 0.2827 0.43547 0.0
H219 H 0.6145 0.06056 0.24445 0.0
H220 H 0.63727 0.08862 0.29955 0.0
H221 H 0.59864 0.19652 0.2567 0.0
H222 H 0.57425 0.16775 0.20224 0.0
H223 H 0.68604 0.12043 0.32159 0.0
H224 H 0.59169 0.20892 0.31981 0.0
H225 H 0.68012 0.20519 0.40265 0.0
H226 H 0.62205 0.22612 0.43598 0.0
H227 H 0.60144 0.27546 0.33034 0.0
H228 H 0.57618 0.33387 0.35969 0.0
H229 H 0.75402 0.12626 0.33299 0.0
H230 H 0.70111 0.15164 0.43774 0.0
H231 H 0.59759 0.28448 0.46483 0.0
H232 H 0.81329 0.09769 0.36326 0.0
H233 H 0.76076 0.12389 0.46757 0.0
C234 C 0.24645 0.57003 0.06964 0.0
C235 C 0.23727 0.56276 0.03351 0.0
C236 C 0.28411 0.57691 0.07896 0.0
C237 C 0.31332 0.57668 0.05228 0.0
C238 C 0.3039 0.57014 1.01589 0.0
C239 C 0.26607 0.56295 1.00657 0.0
C240 C 0.35326 0.58356 0.06302 0.0
C241 C 0.37031 0.56627 0.09407 0.0
C242 C 0.40499 0.57683 0.10852 0.0
C243 C 0.4238 0.60347 0.09042 0.0
C244 C 0.40737 0.62096 0.05928 0.0
C245 C 0.37217 0.61061 0.0454 0.0
C246 C 0.42332 0.65457 0.04655 0.0
C247 C 0.39854 0.68773 0.04422 0.0
C248 C 0.46398 0.65529 0.04369 0.0
C249 C 0.47966 0.68879 0.04147 0.0
C250 C 0.45483 0.72186 0.04207 0.0
C251 C 0.41779 0.5656 0.14564 0.0
C252 C 0.39008 0.56665 0.1738 0.0
C253 C 0.45778 0.55905 0.15421 0.0
C254 C 0.46984 0.55588 0.19037 0.0
C255 C 0.44204 0.55906 0.21829 0.0
C256 C 0.40216 0.56337 0.20987 0.0
C257 C 0.41424 0.72118 0.04211 0.0
H258 H 0.22446 0.57005 0.09068 0.0
H259 H 0.29037 0.58259 0.10712 0.0
H260 H 0.32593 0.5699 0.99487 0.0
H261 H 0.25931 0.55727 0.97853 0.0
H262 H 0.35549 0.54582 0.10809 0.0
H263 H 0.35834 0.62519 0.02237 0.0
H264 H 0.44928 0.61336 0.1027 0.0
H265 H 0.36717 0.68808 0.0469 0.0
H266 H 0.48366 0.63006 0.0454 0.0
H267 H 0.51109 0.68902 0.04135 0.0
H268 H 0.35911 0.57227 0.16821 0.0
H269 H 0.47972 0.55788 0.13304 0.0
H270 H 0.39479 0.74662 0.04256 0.0
H271 H 0.38046 0.56586 0.23129 0.0
H272 H 0.50077 0.55234 0.19665 0.0
C273 C 0.09772 0.3224 0.54337 0.0
C274 C 0.05714 0.3219 0.54528 0.0
C275 C 0.11366 0.3558 0.54375 0.0
C276 C 0.08917 0.38913 0.54626 0.0
C277 C 0.04838 0.38851 0.54574 0.0
C278 C 0.03245 0.35506 0.54528 0.0
C279 C 0.10601 0.42332 0.55601 0.0
C280 C 0.14024 0.43268 0.53944 0.0
C281 C 0.15958 0.46151 0.55344 0.0
C282 C 0.14441 0.48087 0.58425 0.0
C283 C 0.11074 0.47121 0.60145 0.0
C284 C 0.0912 0.44315 0.58654 0.0
C285 C 0.09992 0.48477 0.63841 0.0
C286 C 0.12879 0.48395 0.66551 0.0
C287 C 0.06037 0.49224 0.64829 0.0
C288 C 0.04979 0.49591 0.6848 0.0
C289 C 0.07864 0.49233 0.71179 0.0
C290 C 0.1985 0.46814 0.53963 0.0
C291 C 0.22828 0.4387 0.53645 0.0
C292 C 0.20743 0.5042 0.53381 0.0
C293 C 0.24583 0.51083 0.52661 0.0
C294 C 0.27586 0.48154 0.52564 0.0
C295 C 0.26674 0.44538 0.52969 0.0
C296 C 0.11818 0.48768 0.702 0.0
H297 H 0.11706 0.29689 0.54333 0.0
H298 H 0.14515 0.35539 0.54466 0.0
H299 H 0.02889 0.41385 0.54758 0.0
H300 H 1.00104 0.35498 0.54664 0.0
H301 H 0.15255 0.41678 0.51648 0.0
H302 H 0.06651 0.43417 0.60093 0.0
H303 H 0.16029 0.50181 0.59631 0.0
H304 H 0.15945 0.47772 0.65882 0.0
H305 H 0.03758 0.49319 0.62792 0.0
H306 H 0.01913 0.49968 0.69211 0.0
H307 H 0.22225 0.41069 0.54126 0.0
H308 H 0.18493 0.52731 0.53606 0.0
H309 H 0.1407 0.48488 0.72267 0.0
H310 H 0.28964 0.4225 0.5291 0.0
H311 H 0.25245 0.5389 0.52348 0.0
C312 C 0.04098 0.04532 0.45516 0.0
N313 N 0.01423 0.10009 0.55308 0.0
C314 C 0.04888 0.11342 0.54656 0.0
C315 C 0.0521 0.15075 0.55036 0.0
C316 C 0.01938 0.17446 0.56094 0.0
C317 C 0.98463 0.16001 0.56992 0.0
C318 C 0.98266 0.12226 0.56571 0.0
Zn319 Zn 0.00922 0.04889 0.5334 0.0
C320 C 0.935 0.04793 0.49082 0.0
N321 N 1.00148 0.94421 0.48658 0.0
C322 C 0.03352 0.92154 0.47581 0.0
C323 C 0.96609 0.93157 0.49076 0.0
C324 C 0.96238 0.8944 0.48626 0.0
C325 C 0.99542 0.87018 0.47762 0.0
C326 C 0.03114 0.88393 0.47127 0.0
Zn327 Zn 0.00651 0.99519 0.50657 0.0
O328 O 0.03368 0.06589 0.4828 0.0
C329 C 0.081 0.99631 0.54925 0.0
O330 O 0.0342 1.01182 0.45714 0.0
H331 H 0.9412 0.94983 0.50005 0.0
H332 H 0.07339 0.09554 0.53595 0.0
H333 H 0.06141 0.93219 0.47297 0.0
O334 O 0.0665 0.02952 0.55401 0.0
O335 O 0.06217 0.97539 0.53 0.0
H336 H 0.95533 0.11109 0.57036 0.0
O337 O 0.97916 0.97885 0.5561 0.0
O338 O 0.98411 0.03124 0.58382 0.0
O339 O 0.95076 1.01564 0.48347 0.0
O340 O 0.95233 0.06786 0.51243 0.0
C341 C 0.97429 0.99865 0.58453 0.0
H342 H 0.07923 0.16133 0.54322 0.0
H343 H 0.95892 0.17793 0.57811 0.0
H344 H 0.93454 0.8843 0.49153 0.0
H345 H 0.05713 0.86558 0.46473 0.0
C346 C 0.57882 0.99704 0.98937 0.0
N347 N 0.51197 0.101 0.98958 0.0
C348 C 0.54626 0.11467 0.99695 0.0
C349 C 0.54801 0.15246 0.99708 0.0
C350 C 0.51422 0.1761 0.98946 0.0
C351 C 0.48006 0.16145 0.97895 0.0
C352 C 0.47956 0.12333 0.97921 0.0
Zn353 Zn 0.50746 0.04916 1.00713 0.0
C354 C 0.47243 1.00072 0.95498 0.0
N355 N 0.49989 0.94357 0.05126 0.0
C356 C 0.53157 0.92065 0.06233 0.0
C357 C 0.46476 0.93096 0.04523 0.0
C358 C 0.46101 0.89366 0.04809 0.0
C359 C 0.49371 0.86924 0.0572 0.0
C360 C 0.52908 0.8829 0.06553 0.0
Zn361 Zn 0.50508 0.99527 0.03344 0.0
O362 O 0.56341 0.02976 0.98356 0.0
C363 C 0.53993 0.04349 0.08583 0.0
O364 O 0.56145 0.97651 1.01029 0.0
H365 H 0.44017 0.94947 0.03583 0.0
H366 H 0.57144 0.09648 1.00569 0.0
H367 H 0.55927 0.93127 0.0666 0.0
O368 O 0.53436 0.06404 0.05803 0.0
O369 O 0.53134 1.01056 0.08388 0.0
H370 H 0.45255 0.11182 0.97383 0.0
O371 O 0.44867 1.01489 0.05655 0.0
O372 O 0.45157 0.06803 0.03019 0.0
O373 O 0.4791 0.98016 0.98263 0.0
O374 O 0.48016 0.03394 0.95705 0.0
C375 C 0.43364 0.04776 0.05079 0.0
H376 H 0.57477 0.16322 1.00517 0.0
H377 H 0.45361 0.17931 0.97286 0.0
H378 H 0.4334 0.88369 0.04147 0.0
H379 H 0.55478 0.86443 0.07259 0.0
C380 C 0.53717 0.45371 0.48863 0.0
N381 N 0.5267 0.48977 0.59772 0.0
C382 C 0.51291 0.45813 0.60862 0.0
C383 C 0.51766 0.44655 0.64466 0.0
C384 C 0.53675 0.4679 0.66909 0.0
C385 C 0.5511 0.49997 0.65707 0.0
C386 C 0.54567 0.51051 0.62108 0.0
Zn387 Zn 0.51854 0.50974 0.54667 0.0
C388 C 0.59125 0.53711 0.51906 0.0
N389 N 0.5027 0.55595 0.44169 0.0
C390 C 0.53036 0.5439 0.41669 0.0
C391 C 0.46814 0.57503 0.43171 0.0
C392 C 0.45917 0.58021 0.395 0.0
C393 C 0.48618 0.56562 0.36887 0.0
C394 C 0.52263 0.5485 0.37982 0.0
Zn395 Zn 0.51036 0.53634 0.49291 0.0
O396 O 0.53698 0.45628 0.52314 0.0
C397 C 0.43799 0.50825 0.52057 0.0
O398 O 0.52698 0.48238 0.46996 0.0
H399 H 0.44657 0.58415 0.45208 0.0
H400 H 0.49787 0.44219 0.5895 0.0
H401 H 0.55744 0.52847 0.42521 0.0
O402 O 0.46015 0.49781 0.547 0.0
O403 O 0.45132 0.52523 0.49416 0.0
H404 H 0.55625 0.53561 0.61193 0.0
O405 O 0.49339 0.59002 0.51621 0.0
O406 O 0.4994 0.56352 0.5695 0.0
O407 O 0.56947 0.54711 0.49225 0.0
O408 O 0.57724 0.52147 0.54595 0.0
C409 C 0.49071 0.59243 0.55067 0.0
H410 H 0.50634 0.42159 0.65348 0.0
H411 H 0.56592 0.51689 0.67551 0.0
H412 H 0.43074 0.59349 0.38706 0.0
H413 H 0.54387 0.53694 0.36004 0.0
C414 C 0.97845 0.58933 0.98629 0.0
N415 N 0.98892 0.54739 0.09406 0.0
C416 C 0.00785 0.57454 0.10896 0.0
C417 C 0.0071 0.58012 0.14657 0.0
C418 C 0.98622 0.55782 0.16845 0.0
C419 C 0.96572 0.53124 0.15226 0.0
C420 C 0.96774 0.52624 0.11493 0.0
Zn421 Zn 0.99704 0.53088 0.04148 0.0
C422 C 0.92479 0.50408 1.01104 0.0
N423 N 0.01464 0.48909 0.93458 0.0
C424 C 0.98813 0.50286 0.90929 0.0
C425 C 0.04919 0.46981 0.92479 0.0
C426 C 0.05936 0.46607 0.88818 0.0
C427 C 0.03357 0.4823 0.8619 0.0
C428 C 0.99709 0.49976 0.87249 0.0
Zn429 Zn 1.00584 0.50629 0.98665 0.0
O430 O 0.97808 0.58536 0.02067 0.0
C431 C 0.07775 0.53351 1.01653 0.0
O432 O 0.98933 0.56149 0.96648 0.0
H433 H 0.06987 0.45933 0.94539 0.0
H434 H 0.02483 0.59078 0.09194 0.0
H435 H 0.96101 0.51836 0.91769 0.0
O436 O 0.0554 0.5432 0.04304 0.0
O437 O 0.06482 0.51715 0.98948 0.0
H438 H 0.95379 0.50414 0.10294 0.0
O439 O 0.02231 0.4512 1.00782 0.0
O440 O 0.01633 0.47647 0.06174 0.0
O441 O 0.94686 0.49585 0.98397 0.0
O442 O 0.93852 0.51837 0.03898 0.0
C443 C 0.02487 0.44794 0.04224 0.0
H444 H 0.02334 0.60079 0.15854 0.0
H445 H 0.94958 0.51352 0.16858 0.0
H446 H 0.08776 0.45245 0.88054 0.0
H447 H 0.97672 0.51252 0.8526 0.0
C448 C 0.09541 0.10523 0.39151 0.0
C449 C 0.08054 0.09691 0.35676 0.0
C450 C 0.03744 0.05652 0.3867 0.0
C451 C 0.05583 0.06134 0.42077 0.0
N452 N 0.10902 0.08436 0.4531 0.0
N453 N 0.04327 0.05774 0.32113 0.0
C454 C 0.08675 0.08403 0.42242 0.0
C455 C 0.05325 0.07053 0.35433 0.0
N456 N 0.1166 0.13438 0.39546 0.0
N457 N 1.00357 0.04039 0.3852 0.0
H458 H 0.05486 0.06639 0.29688 0.0
H459 H 0.02664 0.03585 0.31796 0.0
H460 H 0.98983 0.03126 0.40812 0.0
H461 H 0.98688 0.03972 0.36166 0.0
H462 H 0.12478 0.14397 0.42068 0.0
H463 H 0.12243 0.1514 0.37394 0.0
H464 H 0.13417 0.09767 0.45464 0.0
H465 H 0.10501 0.06793 0.47559 0.0
C466 C 0.41824 0.94064 0.89089 0.0
C467 C 0.43248 0.94957 0.85616 0.0
C468 C 0.47535 0.99021 0.88625 0.0
C469 C 0.45743 0.98486 0.92042 0.0
N470 N 0.40492 0.96077 0.95274 0.0
N471 N 0.46879 0.98947 0.8207 0.0
C472 C 0.42691 0.96168 0.92198 0.0
C473 C 0.45934 0.97631 0.85383 0.0
N474 N 0.3976 0.9111 0.89461 0.0
N475 N 0.50902 1.00664 0.88462 0.0
H476 H 0.45714 0.98078 0.79645 0.0
H477 H 0.48504 1.01163 0.81765 0.0
H478 H 0.52305 1.01562 0.90747 0.0
H479 H 0.52537 1.00765 0.86091 0.0
H480 H 0.38999 0.90107 0.91977 0.0
H481 H 0.3917 0.89424 0.87288 0.0
H482 H 0.38001 0.9471 0.95424 0.0
H483 H 0.40886 0.97709 0.97533 0.0
C484 C 0.58702 0.43997 0.75729 0.0
C485 C 0.55705 0.45193 0.78246 0.0
C486 C 0.51173 0.47005 0.73286 0.0
C487 C 0.54159 0.45775 0.70772 0.0
N488 N 0.6043 0.42421 0.69487 0.0
N489 N 0.48915 0.47106 0.79527 0.0
C490 C 0.5782 0.44041 0.71965 0.0
C491 C 0.51877 0.46463 0.77054 0.0
N492 N 0.6242 0.42962 0.76935 0.0
N493 N 0.47734 0.4883 0.72074 0.0
H494 H 0.49349 0.46792 0.82318 0.0
H495 H 0.45984 0.47666 0.78813 0.0
H496 H 0.47062 0.49167 0.69325 0.0
H497 H 0.45633 0.50195 0.73777 0.0
H498 H 0.64828 0.42465 0.75225 0.0
H499 H 0.63164 0.42831 0.79681 0.0
H500 H 0.63001 0.40805 0.70191 0.0
H501 H 0.5986 0.4243 0.66704 0.0
C502 C 0.99792 0.52584 0.26544 0.0
C503 C 0.97617 0.55537 0.28396 0.0
C504 C 0.96509 0.58931 0.227 0.0
C505 C 0.98725 0.55999 0.20856 0.0
N506 N 0.03344 0.5054 0.21093 0.0
N507 N 0.94869 0.61903 0.28468 0.0
C508 C 0.00661 0.5299 0.22812 0.0
C509 C 0.96291 0.58842 0.26543 0.0
N510 N 0.00851 0.49335 0.28295 0.0
N511 N 0.94446 0.61696 0.20781 0.0
H512 H 0.94714 0.61944 0.31297 0.0
H513 H 0.94207 0.64485 0.27293 0.0
H514 H 0.94553 0.61878 0.1796 0.0
H515 H 0.92411 0.63665 0.21965 0.0
H516 H 0.02047 0.4695 0.26973 0.0
H517 H 1.0027 0.48935 0.31035 0.0
H518 H 0.05113 0.4848 0.22443 0.0
H519 H 0.0407 0.50793 0.18361 0.0
C520 C 0.32862 0.0594 0.08806 0.0
C521 C 0.32709 0.09451 0.10489 0.0
C522 C 0.39647 0.09666 0.09006 0.0
C523 C 0.39692 0.06339 0.0698 0.0
N524 N 0.36117 1.01612 0.04487 0.0
N525 N 0.3577 0.14938 0.11682 0.0
C526 C 0.3624 0.04547 0.06768 0.0
C527 C 0.36052 0.11393 0.10442 0.0
N528 N 0.29811 0.03892 0.09226 0.0
N529 N 0.4307 0.11096 0.09721 0.0
H530 H 0.33207 0.1629 0.12781 0.0
H531 H 0.37967 0.16643 0.11332 0.0
H532 H 0.45789 0.09884 0.08833 0.0
H533 H 0.43273 0.13275 0.1151 0.0
H534 H 0.29916 1.01154 0.08417 0.0
H535 H 0.27284 0.04831 0.10665 0.0
H536 H 0.33568 1.00441 0.03905 0.0
H537 H 0.38489 1.00549 0.02911 0.0
C538 C 0.18007 0.93971 0.56579 0.0
C539 C 0.1885 0.94968 0.60203 0.0
C540 C 0.12529 0.98841 0.60466 0.0
C541 C 0.1187 0.98149 0.56718 0.0
N542 N 0.14526 0.95721 0.51022 0.0
N543 N 0.17291 0.99033 0.65288 0.0
C544 C 0.14766 0.95899 0.5472 0.0
C545 C 0.16223 0.97611 0.62051 0.0
N546 N 0.20213 0.91091 0.54942 0.0
N547 N 0.09575 1.00487 0.6259 0.0
H548 H 0.19989 0.98255 0.66512 0.0
H549 H 0.15668 1.01247 0.66566 0.0
H550 H 0.06768 1.01305 0.61631 0.0
H551 H 0.0979 1.00681 0.65404 0.0
H552 H 0.19475 0.89995 0.52455 0.0
H553 H 0.22563 0.89567 0.56223 0.0
H554 H 0.16744 0.94404 0.49407 0.0
H555 H 0.12324 0.97233 0.49534 0.0
C556 C 0.83271 0.45907 0.99213 0.0
C557 C 0.80354 0.48575 1.00647 0.0
C558 C 0.85363 0.52618 0.02006 0.0
C559 C 0.88312 0.49764 1.00991 0.0
N560 N 0.90048 0.43353 0.99483 0.0
N561 N 0.78742 0.54117 0.04164 0.0
C562 C 0.87264 0.46305 0.99839 0.0
C563 C 0.81435 0.51828 0.02276 0.0
N564 N 0.8225 0.43073 0.97125 0.0
N565 N 0.86258 0.56127 0.0253 0.0
H566 H 0.75853 0.53583 0.04503 0.0
H567 H 0.79479 0.56336 0.05697 0.0
H568 H 0.8906 0.5689 0.02183 0.0
H569 H 0.84138 0.58361 0.02918 0.0
H570 H 0.84291 0.41273 0.95729 0.0
H571 H 0.79362 0.42745 0.96477 0.0
H572 H 0.89367 0.40693 0.98983 0.0
H573 H 0.9299 0.43471 1.00087 0.0
C574 C 0.68395 0.5834 0.51005 0.0
C575 C 0.71268 0.55243 0.51161 0.0
C576 C 0.66185 0.51136 0.51894 0.0
C577 C 0.63311 0.54246 0.51843 0.0
N578 N 0.61669 0.6082 0.52142 0.0
N579 N 0.73043 0.48815 0.52426 0.0
C580 C 0.64413 0.57858 0.51626 0.0
C581 C 0.70203 0.51677 0.5183 0.0
N582 N 0.69468 0.61725 0.50169 0.0
N583 N 0.65077 0.4766 0.51806 0.0
H584 H 0.76021 0.49098 0.52311 0.0
H585 H 0.72464 0.46236 0.53324 0.0
H586 H 0.62172 0.47121 0.51878 0.0
H587 H 0.67016 0.45303 0.5138 0.0
H588 H 0.67477 0.64003 0.49577 0.0
H589 H 0.72374 0.62214 0.4985 0.0
H590 H 0.62344 0.63512 0.52389 0.0
H591 H 0.58731 0.60563 0.52649 0.0
C592 C 0.08288 0.35459 0.06676 0.0
C593 C 0.06545 0.3468 0.10051 0.0
C594 C 0.01658 0.40059 0.09097 0.0
C595 C 0.03761 0.41156 0.06033 0.0
N596 N 0.09568 0.40118 0.02311 0.0
N597 N 0.0194 0.36711 0.14777 0.0
C598 C 0.07201 0.38905 0.04916 0.0
C599 C 0.03323 0.37109 0.11342 0.0
N600 N 0.10908 0.32862 0.0508 0.0
N601 N 0.97985 0.41737 0.09795 0.0
H602 H 0.0313 0.34663 0.16546 0.0
H603 H 0.99876 0.38634 0.1599 0.0
H604 H 0.96566 0.43745 0.08103 0.0
H605 H 0.9618 0.40834 0.11794 0.0
H606 H 0.11973 0.33128 0.02458 0.0
H607 H 0.117 0.30277 0.06219 0.0
H608 H 0.1232 0.38774 1.01696 0.0
H609 H 0.08981 0.42645 1.01013 0.0
C610 C 0.52957 0.27608 0.97508 0.0
C611 C 0.52827 0.2885 1.01171 0.0
C612 C 0.5078 0.22992 0.03168 0.0
C613 C 0.51429 0.21597 0.99591 0.0
N614 N 0.53225 0.22422 0.93358 0.0
N615 N 0.51726 0.27817 0.07517 0.0
C616 C 0.52494 0.23877 0.96747 0.0
C617 C 0.51724 0.26581 0.0401 0.0
N618 N 0.53519 0.30008 0.94764 0.0
N619 N 0.4925 0.20877 0.05743 0.0
H620 H 0.52264 0.30485 0.08196 0.0
H621 H 0.51399 0.26166 0.09767 0.0
H622 H 0.4858 0.18215 0.05226 0.0
H623 H 0.4836 0.21838 0.08305 0.0
H624 H 0.53237 0.2939 0.92024 0.0
H625 H 0.53985 0.32739 0.95213 0.0
H626 H 0.54485 0.2379 0.91268 0.0
H627 H 0.52762 0.19735 0.92677 0.0
C628 C 0.97523 0.77322 0.45288 0.0
C629 C 0.97602 0.75747 0.48815 0.0
C630 C 0.99851 0.81306 0.51371 0.0
C631 C 0.99288 0.8302 0.47957 0.0
N632 N 0.97449 0.82869 0.41667 0.0
N633 N 0.98659 0.76183 0.55262 0.0
C634 C 0.98115 0.81079 0.44899 0.0
C635 C 0.98768 0.77705 0.51881 0.0
N636 N 0.96944 0.75197 0.42318 0.0
N637 N 0.01432 0.83236 0.54058 0.0
H638 H 0.97952 0.7352 0.55694 0.0
H639 H 0.99029 0.776 0.57664 0.0
H640 H 0.02199 0.82212 0.56629 0.0
H641 H 0.02199 0.82212 0.56629 0.0
H642 H 0.97221 0.76072 0.39654 0.0
H643 H 0.96492 0.72432 0.42505 0.0
H644 H 0.96151 0.81748 0.39435 0.0
H645 H 0.98009 0.85585 0.41278 0.0
C646 C 0.43043 0.68472 0.57377 0.0
C647 C 0.44802 0.69442 0.60688 0.0
C648 C 0.49756 0.64072 0.59925 0.0
C649 C 0.47671 0.62832 0.56909 0.0
N650 N 0.4178 0.63549 0.53287 0.0
N651 N 0.49446 0.67695 0.65459 0.0
C652 C 0.44167 0.64955 0.55767 0.0
C653 C 0.48059 0.67112 0.62056 0.0
N654 N 0.40374 0.70951 0.55693 0.0
N655 N 0.53435 0.62446 0.60682 0.0
H656 H 0.48231 0.69813 0.67148 0.0
H657 H 0.51542 0.65859 0.66738 0.0
H658 H 0.54855 0.60337 0.59098 0.0
H659 H 0.55234 0.6346 0.62628 0.0
H660 H 0.3929 0.70527 0.53103 0.0
H661 H 0.3956 0.7359 0.5671 0.0
H662 H 0.39005 0.64824 0.52648 0.0
H663 H 0.4237 0.6093 0.52159 0.0
C664 C 0.90601 0.96988 0.65941 0.0
C665 C 0.93271 0.94791 0.6822 0.0
C666 C 0.9861 0.95779 0.63981 0.0
C667 C 0.96007 0.9823 0.61882 0.0
N668 N 0.89611 1.0152 0.61098 0.0
N669 N 0.99956 0.92685 0.69744 0.0
C670 C 0.92029 0.9895 0.62948 0.0
C671 C 0.97315 0.94348 0.67325 0.0
N672 N 0.86675 0.97065 0.66536 0.0
N673 N 0.02316 0.94751 0.62745 0.0
H674 H 0.99144 0.91643 0.72229 0.0
H675 H 0.02969 0.92638 0.69448 0.0
H676 H 0.0341 0.95786 0.60368 0.0
H677 H 0.04206 0.92661 0.63917 0.0
H678 H 0.84553 0.9828 0.64768 0.0
H679 H 0.85518 0.9563 0.68645 0.0
H680 H 0.86797 0.02477 0.61955 0.0
H681 H 0.90521 0.02904 0.58833 0.0
C682 C 0.54341 0.07794 0.18478 0.0
C683 C 0.57912 0.09408 0.18491 0.0
C684 C 0.59133 0.0727 0.1218 0.0
C685 C 0.55427 0.05904 0.12069 0.0
N686 N 0.49247 0.05332 0.14967 0.0
N687 N 0.63542 0.11018 0.15238 0.0
C688 C 0.52974 0.06269 0.15192 0.0
C689 C 0.60251 0.09248 0.153 0.0
N690 N 0.52257 0.07693 0.21628 0.0
N691 N 0.61667 0.06521 0.09354 0.0
H692 H 0.64571 0.12323 0.17506 0.0
H693 H 0.6512 0.11407 0.12888 0.0
H694 H 0.60969 0.05009 0.07096 0.0
H695 H 0.64562 0.07084 0.09377 0.0
H696 H 0.49907 0.06165 0.21942 0.0
H697 H 0.53027 0.08957 0.24022 0.0
H698 H 0.47141 0.05949 0.16969 0.0
H699 H 0.48135 0.04187 0.12648 0.0
C700 C 0.4645 0.59415 0.27122 0.0
C701 C 0.45449 0.56051 0.25659 0.0
C702 C 0.4618 0.53158 0.31629 0.0
C703 C 0.47477 0.5643 0.33029 0.0
N704 N 0.49368 0.62499 0.32099 0.0
N705 N 0.44884 0.49581 0.26302 0.0
C706 C 0.47761 0.59515 0.30772 0.0
C707 C 0.45463 0.52877 0.27852 0.0
N708 N 0.46027 0.62536 0.25055 0.0
N709 N 0.45527 0.50362 0.33932 0.0
H710 H 0.44304 0.49291 0.23542 0.0
H711 H 0.45281 0.47085 0.27677 0.0
H712 H 0.46056 0.50443 0.36718 0.0
H713 H 0.44173 0.48084 0.33142 0.0
H714 H 0.46282 0.6515 0.26086 0.0
H715 H 0.45132 0.62565 0.22349 0.0
H716 H 0.50062 0.64665 0.30486 0.0
H717 H 0.50279 0.62691 0.34788 0.0
C718 C 0.05707 0.45584 0.76388 0.0
C719 C 0.06743 0.48975 0.75035 0.0
C720 C 0.05994 0.51711 0.81093 0.0
C721 C 0.0461 0.48433 0.82366 0.0
N722 N 0.02675 0.42412 0.81214 0.0
N723 N 0.07439 0.55396 0.75905 0.0
C724 C 0.04338 0.45408 0.80011 0.0
C725 C 0.06772 0.52079 0.77336 0.0
N726 N 0.06142 0.42511 0.74238 0.0
N727 N 0.0666 0.54427 0.83498 0.0
H728 H 0.0808 0.55746 0.73168 0.0
H729 H 0.07073 0.57856 0.77356 0.0
H730 H 0.06092 0.54274 0.86272 0.0
H731 H 0.08064 0.56702 0.82806 0.0
H732 H 0.05855 0.39878 0.75189 0.0
H733 H 0.07096 0.42533 0.71552 0.0
H734 H 0.01983 0.40297 0.79521 0.0
H735 H 0.01716 0.4216 0.83879 0.0
C736 C 0.64518 0.94334 0.91931 0.0
C737 C 0.68287 0.94994 0.93175 0.0
C738 C 0.65186 0.99198 0.97838 0.0
C739 C 0.61463 0.98163 0.96901 0.0
N740 N 0.57601 0.94453 0.93238 0.0
N741 N 0.72208 0.9757 0.97747 0.0
C742 C 0.6114 0.9563 0.9401 0.0
C743 C 0.68621 0.97306 0.96243 0.0
N744 N 0.64148 0.92614 0.8867 0.0
N745 N 0.65448 0.02028 1.00215 0.0
H746 H 0.74782 0.96165 0.96727 0.0
H747 H 0.72593 0.98896 1.00205 0.0
H748 H 0.62998 0.03485 1.01398 0.0
H749 H 0.68038 0.03156 1.00733 0.0
H750 H 0.61468 0.92398 0.87424 0.0
H751 H 0.66532 0.91714 0.87025 0.0
H752 H 0.5726 0.92291 0.91465 0.0
H753 H 0.55019 0.95474 0.94546 0.0
C754 C 0.82962 0.05891 0.45532 0.0
C755 C 0.82841 0.09277 0.43626 0.0
C756 C 0.89802 0.09508 0.45006 0.0
C757 C 0.89816 0.06327 0.4722 0.0
N758 N 0.86236 1.0181 0.50051 0.0
N759 N 0.85965 0.14647 0.42097 0.0
C760 C 0.86347 0.04598 0.47602 0.0
C761 C 0.86214 0.1118 0.43518 0.0
N762 N 0.79882 0.03853 0.45276 0.0
N763 N 0.93247 0.10841 0.44176 0.0
H764 H 0.83399 0.15974 0.40987 0.0
H765 H 0.88199 0.16332 0.42312 0.0
H766 H 0.95952 0.09659 0.45126 0.0
H767 H 0.93472 0.12894 0.42258 0.0
H768 H 0.79954 1.01186 0.46272 0.0
H769 H 0.77365 0.04705 0.43789 0.0
H770 H 0.83683 1.00699 0.50742 0.0
H771 H 0.88631 1.00822 0.51641 0.0
C772 C 0.16995 0.58039 1.00828 0.0
C773 C 0.1975 0.55369 0.02472 0.0
C774 C 0.14637 0.51364 0.03549 0.0
C775 C 0.11919 0.53971 0.01789 0.0
N776 N 0.10584 0.59392 0.98091 0.0
N777 N 0.21445 0.49189 0.04656 0.0
C778 C 0.13126 0.57185 1.00208 0.0
C779 C 0.18644 0.51931 0.03602 0.0
N780 N 0.18028 0.61443 1.00013 0.0
N781 N 0.1337 0.48397 0.05249 0.0
H782 H 0.24417 0.4951 0.04696 0.0
H783 H 0.20876 0.46504 0.05168 0.0
H784 H 0.10463 0.47849 0.052 0.0
H785 H 0.15133 0.46619 0.06921 0.0
H786 H 0.16034 0.63642 0.99202 0.0
H787 H 0.20846 0.62159 1.00392 0.0
H788 H 0.11398 0.61578 0.96574 0.0
H789 H 0.0772 0.58848 0.97606 0.0
C790 C 0.33421 0.50559 0.55377 0.0
C791 C 0.31729 0.48891 0.52371 0.0
C792 C 0.38065 0.4819 0.49275 0.0
C793 C 0.39641 0.50191 0.52123 0.0
N794 N 0.38582 0.54007 0.57471 0.0
N795 N 0.32229 0.46676 0.46198 0.0
C796 C 0.37254 0.51583 0.55061 0.0
C797 C 0.33991 0.47867 0.49237 0.0
N798 N 0.31429 0.51043 0.58585 0.0
N799 N 0.4048 0.46466 0.46697 0.0
H800 H 0.29246 0.46417 0.46073 0.0
H801 H 0.33651 0.46256 0.43711 0.0
H802 H 0.43493 0.46576 0.46669 0.0
H803 H 0.39554 0.44652 0.44782 0.0
H804 H 0.32697 0.51882 0.6097 0.0
H805 H 0.28634 0.50272 0.58965 0.0
H806 H 0.36808 0.55401 0.59436 0.0
H807 H 0.41336 0.5492 0.5728 0.0
C808 C 0.9771 0.68825 0.95068 0.0
C809 C 0.94125 0.69277 0.93111 0.0
C810 C 0.93022 0.62923 0.9472 0.0
C811 C 0.96478 0.6256 0.96875 0.0
N812 N 0.01826 0.65355 0.99524 0.0
N813 N 0.88036 0.66983 0.91599 0.0
C814 C 0.98725 0.65578 0.97187 0.0
C815 C 0.91698 0.66378 0.93071 0.0
N816 N 1.00229 0.71443 0.9478 0.0
N817 N 0.9099 0.59955 0.9424 0.0
H818 H 0.86952 0.6946 0.90381 0.0
H819 H 0.85942 0.65157 0.91844 0.0
H820 H 0.91663 0.5747 0.95604 0.0
H821 H 0.88765 0.59875 0.92337 0.0
H822 H 0.03067 0.71122 0.95797 0.0
H823 H 0.99602 0.73829 0.93245 0.0
H824 H 0.03323 0.67582 1.00189 0.0
H825 H 0.02739 0.63001 1.01023 0.0
C826 C 0.4731 0.77262 0.0818 0.0
C827 C 0.47099 0.75738 0.04645 0.0
C828 C 0.49433 0.81213 0.02002 0.0
C829 C 0.49102 0.82928 0.05466 0.0
N830 N 0.47628 0.82741 0.11847 0.0
N831 N 0.47804 0.76202 0.98164 0.0
C832 C 0.48059 0.80981 0.08568 0.0
C833 C 0.48163 0.77679 1.01546 0.0
N834 N 0.4682 0.75135 0.11158 0.0
N835 N 0.50978 0.8297 0.99163 0.0
H836 H 0.46993 0.7357 0.97747 0.0
H837 H 0.48086 0.77644 0.95765 0.0
H838 H 0.519 0.8558 0.99404 0.0
H839 H 0.51649 0.81743 0.96656 0.0
H840 H 0.47321 0.75954 0.13808 0.0
H841 H 0.4621 0.72411 0.10971 0.0
H842 H 0.46412 0.81633 0.14123 0.0
H843 H 0.48296 0.85424 0.12248 0.0
C844 C 0.04125 0.27081 0.58555 0.0
C845 C 0.04099 0.28648 0.55031 0.0
C846 C 0.01544 0.23224 0.52477 0.0
C847 C 0.02124 0.21457 0.55891 0.0
N848 N 0.04024 0.21559 0.62176 0.0
N849 N 0.02922 0.28276 0.48602 0.0
C850 C 0.03385 0.23361 0.58946 0.0
C851 C 0.02796 0.26757 0.51983 0.0
N852 N 0.04829 0.29169 0.61517 0.0
N853 N 0.99793 0.2151 0.49718 0.0
H854 H 0.03723 0.30904 0.4816 0.0
H855 H 0.02456 0.26868 0.46211 0.0
H856 H 0.98888 0.18897 0.49981 0.0
H857 H 0.98941 0.22777 0.47273 0.0
H858 H 0.04519 0.28316 0.64185 0.0
H859 H 0.05424 0.31895 0.6132 0.0
H860 H 0.05396 0.22632 0.64391 0.0
H861 H 0.03354 0.18879 0.62587 0.0
C862 C 0.59717 0.37856 0.43257 0.0
C863 C 0.57235 0.35003 0.43285 0.0
C864 C 0.5259 0.38835 0.47222 0.0
C865 C 0.5495 0.41777 0.46987 0.0
N866 N 0.60484 0.44283 0.44333 0.0
N867 N 0.51042 0.32962 0.44831 0.0
C868 C 0.58422 0.41346 0.44857 0.0
C869 C 0.53601 0.35543 0.45155 0.0
N870 N 0.63399 0.37176 0.41841 0.0
N871 N 0.49366 0.39189 0.49415 0.0
H872 H 0.51674 0.30542 0.43336 0.0
H873 H 0.4818 0.33332 0.45783 0.0
H874 H 0.48386 0.41618 0.50783 0.0
H875 H 0.47781 0.37019 0.50059 0.0
H876 H 0.65525 0.38968 0.42115 0.0
H877 H 0.6446 0.34675 0.40644 0.0
H878 H 0.62744 0.44288 0.42457 0.0
H879 H 0.5978 0.46826 0.45591 0.0
loop_
_geom_bond_atom_site_label_1
_geom_bond_atom_site_label_2
_geom_bond_distance
_geom_bond_site_symmetry_2
_ccdc_geom_bond_type
C0 C1 1.386 . S
C0 C2 1.397 . S
C0 H24 0.931 . S
C1 C0 1.386 . S
C1 C5 1.397 . S
C2 C0 1.397 . S
C2 C3 1.384 . S
C2 H25 0.930 . S
C3 C2 1.384 . S
C3 C4 1.377 . S
C3 C6 1.481 . S
C4 C3 1.377 . S
C4 C5 1.389 . S
C4 H26 0.929 . S
C5 C1 1.397 . S
C5 C4 1.389 . S
C5 H27 0.931 . S
C6 C3 1.481 . S
C6 C7 1.387 . S
C6 C11 1.390 . S
C7 C6 1.387 . S
C7 C8 1.401 . S
C7 H28 0.930 . S
C8 C7 1.401 . S
C8 C9 1.376 . S
C8 C17 1.511 . S
C9 C8 1.376 . S
C9 C10 1.392 . S
C9 H30 0.931 . S
C10 C9 1.392 . S
C10 C11 1.361 . S
C10 C12 1.500 . S
C11 C6 1.390 . S
C11 C10 1.361 . S
C11 H29 0.931 . S
C12 C10 1.500 . S
C12 C13 1.371 . S
C12 C14 1.365 . S
C13 C12 1.371 . S
C13 C23 1.386 . S
C13 H31 0.931 . S
C14 C12 1.365 . S
C14 C15 1.409 . S
C14 H32 0.929 . S
C15 C14 1.409 . S
C15 C16 1.380 . S
C15 H33 0.930 . S
C16 C15 1.380 . S
C16 C23 1.357 . S
C17 C8 1.511 . S
C17 C18 1.341 . S
C17 C19 1.371 . S
C18 C17 1.341 . S
C18 C22 1.394 . S
C18 H34 0.930 . S
C19 C17 1.371 . S
C19 C20 1.392 . S
C19 H35 0.931 . S
C20 C19 1.392 . S
C20 C21 1.331 . S
C20 H38 0.932 . S
C21 C20 1.331 . S
C21 C22 1.336 . S
C22 C18 1.394 . S
C22 C21 1.336 . S
C22 H37 0.929 . S
C23 C13 1.386 . S
C23 C16 1.357 . S
C23 H36 0.928 . S
H24 C0 0.931 . S
H25 C2 0.930 . S
H26 C4 0.929 . S
H27 C5 0.931 . S
H28 C7 0.930 . S
H29 C11 0.931 . S
H30 C9 0.931 . S
H31 C13 0.931 . S
H32 C14 0.929 . S
H33 C15 0.930 . S
H34 C18 0.930 . S
H35 C19 0.931 . S
H36 C23 0.928 . S
H37 C22 0.929 . S
H38 C20 0.932 . S
C39 C40 1.386 . S
C39 C41 1.397 . S
C39 H63 0.931 . S
C40 C39 1.386 . S
C40 C44 1.397 . S
C41 C39 1.397 . S
C41 C42 1.384 . S
C41 H64 0.930 . S
C42 C41 1.384 . S
C42 C43 1.377 . S
C42 C45 1.481 . S
C43 C42 1.377 . S
C43 C44 1.389 . S
C43 H65 0.929 . S
C44 C40 1.397 . S
C44 C43 1.389 . S
C44 H66 0.931 . S
C45 C42 1.481 . S
C45 C46 1.387 . S
C45 C50 1.390 . S
C46 C45 1.387 . S
C46 C47 1.401 . S
C46 H67 0.930 . S
C47 C46 1.401 . S
C47 C48 1.376 . S
C47 C56 1.511 . S
C48 C47 1.376 . S
C48 C49 1.392 . S
C48 H69 0.931 . S
C49 C48 1.392 . S
C49 C50 1.361 . S
C49 C51 1.500 . S
C50 C45 1.390 . S
C50 C49 1.361 . S
C50 H68 0.931 . S
C51 C49 1.500 . S
C51 C52 1.371 . S
C51 C53 1.365 . S
C52 C51 1.371 . S
C52 C62 1.386 . S
C52 H70 0.931 . S
C53 C51 1.365 . S
C53 C54 1.409 . S
C53 H71 0.929 . S
C54 C53 1.409 . S
C54 C55 1.380 . S
C54 H72 0.930 . S
C55 C54 1.380 . S
C55 C62 1.357 . S
C56 C47 1.511 . S
C56 C57 1.341 . S
C56 C58 1.371 . S
C57 C56 1.341 . S
C57 C61 1.394 . S
C57 H73 0.930 . S
C58 C56 1.371 . S
C58 C59 1.392 . S
C58 H74 0.931 . S
C59 C58 1.392 . S
C59 C60 1.331 . S
C59 H77 0.932 . S
C60 C59 1.331 . S
C60 C61 1.336 . S
C61 C57 1.394 . S
C61 C60 1.336 . S
C61 H76 0.929 . S
C62 C52 1.386 . S
C62 C55 1.357 . S
C62 H75 0.928 . S
H63 C39 0.931 . S
H64 C41 0.930 . S
H65 C43 0.929 . S
H66 C44 0.931 . S
H67 C46 0.930 . S
H68 C50 0.931 . S
H69 C48 0.931 . S
H70 C52 0.931 . S
H71 C53 0.929 . S
H72 C54 0.930 . S
H73 C57 0.930 . S
H74 C58 0.931 . S
H75 C62 0.928 . S
H76 C61 0.929 . S
H77 C59 0.932 . S
C78 C79 1.386 . S
C78 C80 1.397 . S
C78 H102 0.931 . S
C79 C78 1.386 . S
C79 C83 1.397 . S
C80 C78 1.397 . S
C80 C81 1.384 . S
C80 H103 0.930 . S
C81 C80 1.384 . S
C81 C82 1.377 . S
C81 C84 1.481 . S
C82 C81 1.377 . S
C82 C83 1.389 . S
C82 H104 0.929 . S
C83 C79 1.397 . S
C83 C82 1.389 . S
C83 H105 0.931 . S
C84 C81 1.481 . S
C84 C85 1.387 . S
C84 C89 1.390 . S
C85 C84 1.387 . S
C85 C86 1.401 . S
C85 H106 0.930 . S
C86 C85 1.401 . S
C86 C87 1.376 . S
C86 C95 1.511 . S
C87 C86 1.376 . S
C87 C88 1.392 . S
C87 H108 0.931 . S
C88 C87 1.392 . S
C88 C89 1.361 . S
C88 C90 1.500 . S
C89 C84 1.390 . S
C89 C88 1.361 . S
C89 H107 0.931 . S
C90 C88 1.500 . S
C90 C91 1.371 . S
C90 C92 1.365 . S
C91 C90 1.371 . S
C91 C101 1.386 . S
C91 H109 0.931 . S
C92 C90 1.365 . S
C92 C93 1.409 . S
C92 H110 0.929 . S
C93 C92 1.409 . S
C93 C94 1.380 . S
C93 H111 0.930 . S
C94 C93 1.380 . S
C94 C101 1.357 . S
C95 C86 1.511 . S
C95 C96 1.341 . S
C95 C97 1.371 . S
C96 C95 1.341 . S
C96 C100 1.394 . S
C96 H112 0.930 . S
C97 C95 1.371 . S
C97 C98 1.392 . S
C97 H113 0.931 . S
C98 C97 1.392 . S
C98 C99 1.331 . S
C98 H116 0.932 . S
C99 C98 1.331 . S
C99 C100 1.336 . S
C100 C96 1.394 . S
C100 C99 1.336 . S
C100 H115 0.929 . S
C101 C91 1.386 . S
C101 C94 1.357 . S
C101 H114 0.928 . S
H102 C78 0.931 . S
H103 C80 0.930 . S
H104 C82 0.929 . S
H105 C83 0.931 . S
H106 C85 0.930 . S
H107 C89 0.931 . S
H108 C87 0.931 . S
H109 C91 0.931 . S
H110 C92 0.929 . S
H111 C93 0.930 . S
H112 C96 0.930 . S
H113 C97 0.931 . S
H114 C101 0.928 . S
H115 C100 0.929 . S
H116 C98 0.932 . S
C117 C118 1.386 . S
C117 C119 1.397 . S
C117 H141 0.931 . S
C118 C117 1.386 . S
C118 C122 1.397 . S
C119 C117 1.397 . S
C119 C120 1.384 . S
C119 H142 0.930 . S
C120 C119 1.384 . S
C120 C121 1.377 . S
C120 C123 1.481 . S
C121 C120 1.377 . S
C121 C122 1.389 . S
C121 H143 0.929 . S
C122 C118 1.397 . S
C122 C121 1.389 . S
C122 H144 0.931 . S
C123 C120 1.481 . S
C123 C124 1.387 . S
C123 C128 1.390 . S
C124 C123 1.387 . S
C124 C125 1.401 . S
C124 H145 0.930 . S
C125 C124 1.401 . S
C125 C126 1.376 . S
C125 C134 1.511 . S
C126 C125 1.376 . S
C126 C127 1.392 . S
C126 H147 0.931 . S
C127 C126 1.392 . S
C127 C128 1.361 . S
C127 C129 1.500 . S
C128 C123 1.390 . S
C128 C127 1.361 . S
C128 H146 0.931 . S
C129 C127 1.500 . S
C129 C130 1.371 . S
C129 C131 1.365 . S
C130 C129 1.371 . S
C130 C140 1.386 . S
C130 H148 0.931 . S
C131 C129 1.365 . S
C131 C132 1.409 . S
C131 H149 0.929 . S
C132 C131 1.409 . S
C132 C133 1.380 . S
C132 H150 0.930 . S
C133 C132 1.380 . S
C133 C140 1.357 . S
C134 C125 1.511 . S
C134 C135 1.341 . S
C134 C136 1.371 . S
C135 C134 1.341 . S
C135 C139 1.394 . S
C135 H151 0.930 . S
C136 C134 1.371 . S
C136 C137 1.392 . S
C136 H152 0.931 . S
C137 C136 1.392 . S
C137 C138 1.331 . S
C137 H155 0.932 . S
C138 C137 1.331 . S
C138 C139 1.336 . S
C139 C135 1.394 . S
C139 C138 1.336 . S
C139 H154 0.929 . S
C140 C130 1.386 . S
C140 C133 1.357 . S
C140 H153 0.928 . S
H141 C117 0.931 . S
H142 C119 0.930 . S
H143 C121 0.929 . S
H144 C122 0.931 . S
H145 C124 0.930 . S
H146 C128 0.931 . S
H147 C126 0.931 . S
H148 C130 0.931 . S
H149 C131 0.929 . S
H150 C132 0.930 . S
H151 C135 0.930 . S
H152 C136 0.931 . S
H153 C140 0.928 . S
H154 C139 0.929 . S
H155 C137 0.932 . S
C156 C157 1.386 . S
C156 C158 1.397 . S
C156 H180 0.931 . S
C157 C156 1.386 . S
C157 C161 1.397 . S
C158 C156 1.397 . S
C158 C159 1.384 . S
C158 H181 0.930 . S
C159 C158 1.384 . S
C159 C160 1.377 . S
C159 C162 1.481 . S
C160 C159 1.377 . S
C160 C161 1.389 . S
C160 H182 0.929 . S
C161 C157 1.397 . S
C161 C160 1.389 . S
C161 H183 0.931 . S
C162 C159 1.481 . S
C162 C163 1.387 . S
C162 C167 1.390 . S
C163 C162 1.387 . S
C163 C164 1.401 . S
C163 H184 0.930 . S
C164 C163 1.401 . S
C164 C165 1.376 . S
C164 C173 1.511 . S
C165 C164 1.376 . S
C165 C166 1.392 . S
C165 H186 0.931 . S
C166 C165 1.392 . S
C166 C167 1.361 . S
C166 C168 1.500 . S
C167 C162 1.390 . S
C167 C166 1.361 . S
C167 H185 0.931 . S
C168 C166 1.500 . S
C168 C169 1.371 . S
C168 C170 1.365 . S
C169 C168 1.371 . S
C169 C179 1.386 . S
C169 H187 0.931 . S
C170 C168 1.365 . S
C170 C171 1.409 . S
C170 H188 0.929 . S
C171 C170 1.409 . S
C171 C172 1.380 . S
C171 H189 0.930 . S
C172 C171 1.380 . S
C172 C179 1.357 . S
C173 C164 1.511 . S
C173 C174 1.341 . S
C173 C175 1.371 . S
C174 C173 1.341 . S
C174 C178 1.394 . S
C174 H190 0.930 . S
C175 C173 1.371 . S
C175 C176 1.392 . S
C175 H191 0.931 . S
C176 C175 1.392 . S
C176 C177 1.331 . S
C176 H194 0.932 . S
C177 C176 1.331 . S
C177 C178 1.336 . S
C178 C174 1.394 . S
C178 C177 1.336 . S
C178 H193 0.929 . S
C179 C169 1.386 . S
C179 C172 1.357 . S
C179 H192 0.928 . S
H180 C156 0.931 . S
H181 C158 0.930 . S
H182 C160 0.929 . S
H183 C161 0.931 . S
H184 C163 0.930 . S
H185 C167 0.931 . S
H186 C165 0.931 . S
H187 C169 0.931 . S
H188 C170 0.929 . S
H189 C171 0.930 . S
H190 C174 0.930 . S
H191 C175 0.931 . S
H192 C179 0.928 . S
H193 C178 0.929 . S
H194 C176 0.932 . S
C195 C196 1.386 . S
C195 C197 1.397 . S
C195 H219 0.931 . S
C196 C195 1.386 . S
C196 C200 1.397 . S
C197 C195 1.397 . S
C197 C198 1.384 . S
C197 H220 0.930 . S
C198 C197 1.384 . S
C198 C199 1.377 . S
C198 C201 1.481 . S
C199 C198 1.377 . S
C199 C200 1.389 . S
C199 H221 0.929 . S
C200 C196 1.397 . S
C200 C199 1.389 . S
C200 H222 0.931 . S
C201 C198 1.481 . S
C201 C202 1.387 . S
C201 C206 1.390 . S
C202 C201 1.387 . S
C202 C203 1.401 . S
C202 H223 0.930 . S
C203 C202 1.401 . S
C203 C204 1.376 . S
C203 C212 1.511 . S
C204 C203 1.376 . S
C204 C205 1.392 . S
C204 H225 0.931 . S
C205 C204 1.392 . S
C205 C206 1.361 . S
C205 C207 1.500 . S
C206 C201 1.390 . S
C206 C205 1.361 . S
C206 H224 0.931 . S
C207 C205 1.500 . S
C207 C208 1.371 . S
C207 C209 1.365 . S
C208 C207 1.371 . S
C208 C218 1.386 . S
C208 H226 0.931 . S
C209 C207 1.365 . S
C209 C210 1.409 . S
C209 H227 0.929 . S
C210 C209 1.409 . S
C210 C211 1.380 . S
C210 H228 0.930 . S
C211 C210 1.380 . S
C211 C218 1.357 . S
C212 C203 1.511 . S
C212 C213 1.341 . S
C212 C214 1.371 . S
C213 C212 1.341 . S
C213 C217 1.394 . S
C213 H229 0.930 . S
C214 C212 1.371 . S
C214 C215 1.392 . S
C214 H230 0.931 . S
C215 C214 1.392 . S
C215 C216 1.331 . S
C215 H233 0.932 . S
C216 C215 1.331 . S
C216 C217 1.336 . S
C217 C213 1.394 . S
C217 C216 1.336 . S
C217 H232 0.929 . S
C218 C208 1.386 . S
C218 C211 1.357 . S
C218 H231 0.928 . S
H219 C195 0.931 . S
H220 C197 0.930 . S
H221 C199 0.929 . S
H222 C200 0.931 . S
H223 C202 0.930 . S
H224 C206 0.931 . S
H225 C204 0.931 . S
H226 C208 0.931 . S
H227 C209 0.929 . S
H228 C210 0.930 . S
H229 C213 0.930 . S
H230 C214 0.931 . S
H231 C218 0.928 . S
H232 C217 0.929 . S
H233 C215 0.932 . S
C234 C235 1.386 . S
C234 C236 1.397 . S
C234 H258 0.931 . S
C235 C234 1.386 . S
C235 C239 1.397 . S
C236 C234 1.397 . S
C236 C237 1.384 . S
C236 H259 0.930 . S
C237 C236 1.384 . S
C237 C238 1.377 . S
C237 C240 1.481 . S
C238 C237 1.377 . S
C238 C239 1.389 . S
C238 H260 0.929 . S
C239 C235 1.397 . S
C239 C238 1.389 . S
C239 H261 0.931 1_554 S
C240 C237 1.481 . S
C240 C241 1.387 . S
C240 C245 1.390 . S
C241 C240 1.387 . S
C241 C242 1.401 . S
C241 H262 0.930 . S
C242 C241 1.401 . S
C242 C243 1.376 . S
C242 C251 1.511 . S
C243 C242 1.376 . S
C243 C244 1.392 . S
C243 H264 0.931 . S
C244 C243 1.392 . S
C244 C245 1.361 . S
C244 C246 1.500 . S
C245 C240 1.390 . S
C245 C244 1.361 . S
C245 H263 0.931 . S
C246 C244 1.500 . S
C246 C247 1.371 . S
C246 C248 1.365 . S
C247 C246 1.371 . S
C247 C257 1.386 . S
C247 H265 0.931 . S
C248 C246 1.365 . S
C248 C249 1.409 . S
C248 H266 0.929 . S
C249 C248 1.409 . S
C249 C250 1.380 . S
C249 H267 0.930 1_554 S
C250 C249 1.380 . S
C250 C257 1.357 . S
C251 C242 1.511 . S
C251 C252 1.341 . S
C251 C253 1.371 . S
C252 C251 1.341 . S
C252 C256 1.394 . S
C252 H268 0.930 . S
C253 C251 1.371 . S
C253 C254 1.392 . S
C253 H269 0.931 . S
C254 C253 1.392 . S
C254 C255 1.331 . S
C254 H272 0.932 . S
C255 C254 1.331 . S
C255 C256 1.336 . S
C256 C252 1.394 . S
C256 C255 1.336 . S
C256 H271 0.929 . S
C257 C247 1.386 . S
C257 C250 1.357 . S
C257 H270 0.928 . S
H258 C234 0.931 . S
H259 C236 0.930 . S
H260 C238 0.929 . S
H261 C239 0.931 1_556 S
H262 C241 0.930 . S
H263 C245 0.931 . S
H264 C243 0.931 . S
H265 C247 0.931 . S
H266 C248 0.929 . S
H267 C249 0.930 1_556 S
H268 C252 0.930 . S
H269 C253 0.931 . S
H270 C257 0.928 . S
H271 C256 0.929 . S
H272 C254 0.932 . S
C273 C274 1.386 . S
C273 C275 1.397 . S
C273 H297 0.931 . S
C274 C273 1.386 . S
C274 C278 1.397 . S
C275 C273 1.397 . S
C275 C276 1.384 . S
C275 H298 0.930 . S
C276 C275 1.384 . S
C276 C277 1.377 . S
C276 C279 1.481 . S
C277 C276 1.377 . S
C277 C278 1.389 . S
C277 H299 0.929 . S
C278 C274 1.397 . S
C278 C277 1.389 . S
C278 H300 0.931 . S
C279 C276 1.481 . S
C279 C280 1.387 . S
C279 C284 1.390 . S
C280 C279 1.387 . S
C280 C281 1.401 . S
C280 H301 0.930 . S
C281 C280 1.401 . S
C281 C282 1.376 . S
C281 C290 1.511 . S
C282 C281 1.376 . S
C282 C283 1.392 . S
C282 H303 0.931 . S
C283 C282 1.392 . S
C283 C284 1.361 . S
C283 C285 1.500 . S
C284 C279 1.390 . S
C284 C283 1.361 . S
C284 H302 0.931 . S
C285 C283 1.500 . S
C285 C286 1.371 . S
C285 C287 1.365 . S
C286 C285 1.371 . S
C286 C296 1.386 . S
C286 H304 0.931 . S
C287 C285 1.365 . S
C287 C288 1.409 . S
C287 H305 0.929 . S
C288 C287 1.409 . S
C288 C289 1.380 . S
C288 H306 0.930 . S
C289 C288 1.380 . S
C289 C296 1.357 . S
C290 C281 1.511 . S
C290 C291 1.341 . S
C290 C292 1.371 . S
C291 C290 1.341 . S
C291 C295 1.394 . S
C291 H307 0.930 . S
C292 C290 1.371 . S
C292 C293 1.392 . S
C292 H308 0.931 . S
C293 C292 1.392 . S
C293 C294 1.331 . S
C293 H311 0.932 . S
C294 C293 1.331 . S
C294 C295 1.336 . S
C295 C291 1.394 . S
C295 C294 1.336 . S
C295 H310 0.929 . S
C296 C286 1.386 . S
C296 C289 1.357 . S
C296 H309 0.928 . S
H297 C273 0.931 . S
H298 C275 0.930 . S
H299 C277 0.929 . S
H300 C278 0.931 . S
H301 C280 0.930 . S
H302 C284 0.931 . S
H303 C282 0.931 . S
H304 C286 0.931 . S
H305 C287 0.929 . S
H306 C288 0.930 . S
H307 C291 0.930 . S
H308 C292 0.931 . S
H309 C296 0.928 . S
H310 C295 0.929 . S
H311 C293 0.932 . S
C312 O328 1.251 . S
C312 O330 1.254 1_545 S
N313 C314 1.333 . S
N313 C318 1.307 . S
N313 Zn319 2.020 . S
C314 N313 1.333 . S
C314 C315 1.379 . S
C314 H332 0.952 . S
C315 C314 1.379 . S
C315 C316 1.390 . S
C315 H342 0.949 . S
C316 C315 1.390 . S
C316 C317 1.357 . S
C317 C316 1.357 . S
C317 C318 1.370 . S
C317 H343 0.950 . S
C318 N313 1.307 . S
C318 C317 1.370 . S
C318 H336 0.948 1_455 S
Zn319 N313 2.020 . S
Zn319 O328 2.039 . S
Zn319 O334 2.034 . S
Zn319 O338 2.025 1_455 S
Zn319 O340 2.024 1_455 S
C320 O339 1.246 1_545 S
C320 O340 1.249 . S
N321 C322 1.307 . S
N321 C323 1.333 . S
N321 Zn327 2.020 . S
C322 N321 1.307 . S
C322 C326 1.370 . S
C322 H333 0.948 1_655 S
C323 N321 1.333 . S
C323 C324 1.379 . S
C323 H331 0.952 . S
C324 C323 1.379 . S
C324 C325 1.390 . S
C324 H344 0.949 . S
C325 C324 1.390 . S
C325 C326 1.357 . S
C326 C322 1.370 . S
C326 C325 1.357 . S
C326 H345 0.950 1_655 S
Zn327 N321 2.020 . S
Zn327 O330 2.025 1_655 S
Zn327 O335 2.024 1_655 S
Zn327 O337 2.039 . S
Zn327 O339 2.034 . S
O328 C312 1.251 . S
O328 Zn319 2.039 . S
C329 O334 1.246 1_565 S
C329 O335 1.249 . S
O330 C312 1.254 1_565 S
O330 Zn327 2.025 1_455 S
H331 C323 0.952 . S
H332 C314 0.952 . S
H333 C322 0.948 1_455 S
O334 Zn319 2.034 . S
O334 C329 1.246 1_545 S
O335 Zn327 2.024 1_455 S
O335 C329 1.249 . S
H336 C318 0.948 1_655 S
O337 Zn327 2.039 . S
O337 C341 1.251 . S
O338 Zn319 2.025 1_655 S
O338 C341 1.254 1_545 S
O339 C320 1.246 1_565 S
O339 Zn327 2.034 . S
O340 Zn319 2.024 1_655 S
O340 C320 1.249 . S
C341 O337 1.251 . S
C341 O338 1.254 1_565 S
H342 C315 0.949 . S
H343 C317 0.950 . S
H344 C324 0.949 . S
H345 C326 0.950 1_455 S
C346 O362 1.251 1_565 S
C346 O364 1.254 . S
N347 C348 1.333 . S
N347 C352 1.307 . S
N347 Zn353 2.020 . S
C348 N347 1.333 . S
C348 C349 1.379 . S
C348 H366 0.952 . S
C349 C348 1.379 . S
C349 C350 1.390 . S
C349 H376 0.949 . S
C350 C349 1.390 . S
C350 C351 1.357 . S
C351 C350 1.357 . S
C351 C352 1.370 . S
C351 H377 0.950 . S
C352 N347 1.307 . S
C352 C351 1.370 . S
C352 H370 0.948 . S
Zn353 N347 2.020 . S
Zn353 O362 2.039 . S
Zn353 O368 2.034 1_556 S
Zn353 O372 2.025 1_556 S
Zn353 O374 2.024 . S
C354 O373 1.246 . S
C354 O374 1.249 1_565 S
N355 C356 1.307 . S
N355 C357 1.333 . S
N355 Zn361 2.020 . S
C356 N355 1.307 . S
C356 C360 1.370 . S
C356 H367 0.948 . S
C357 N355 1.333 . S
C357 C358 1.379 . S
C357 H365 0.952 . S
C358 C357 1.379 . S
C358 C359 1.390 . S
C358 H378 0.949 . S
C359 C358 1.390 . S
C359 C360 1.357 . S
C360 C356 1.370 . S
C360 C359 1.357 . S
C360 H379 0.950 . S
Zn361 N355 2.020 . S
Zn361 O364 2.025 1_554 S
Zn361 O369 2.024 . S
Zn361 O371 2.039 . S
Zn361 O373 2.034 1_554 S
O362 C346 1.251 1_545 S
O362 Zn353 2.039 . S
C363 O368 1.246 . S
C363 O369 1.249 1_545 S
O364 C346 1.254 . S
O364 Zn361 2.025 1_556 S
H365 C357 0.952 . S
H366 C348 0.952 . S
H367 C356 0.948 . S
O368 Zn353 2.034 1_554 S
O368 C363 1.246 . S
O369 Zn361 2.024 . S
O369 C363 1.249 1_565 S
H370 C352 0.948 . S
O371 Zn361 2.039 . S
O371 C375 1.251 1_565 S
O372 Zn353 2.025 1_554 S
O372 C375 1.254 . S
O373 C354 1.246 . S
O373 Zn361 2.034 1_556 S
O374 Zn353 2.024 . S
O374 C354 1.249 1_545 S
C375 O371 1.251 1_545 S
C375 O372 1.254 . S
H376 C349 0.949 . S
H377 C351 0.950 . S
H378 C358 0.949 . S
H379 C360 0.950 . S
C380 O396 1.251 . S
C380 O398 1.254 . S
N381 C382 1.333 . S
N381 C386 1.307 . S
N381 Zn387 2.020 . S
C382 N381 1.333 . S
C382 C383 1.379 . S
C382 H400 0.952 . S
C383 C382 1.379 . S
C383 C384 1.390 . S
C383 H410 0.949 . S
C384 C383 1.390 . S
C384 C385 1.357 . S
C385 C384 1.357 . S
C385 C386 1.370 . S
C385 H411 0.950 . S
C386 N381 1.307 . S
C386 C385 1.370 . S
C386 H404 0.948 . S
Zn387 N381 2.020 . S
Zn387 O396 2.039 . S
Zn387 O402 2.034 . S
Zn387 O406 2.025 . S
Zn387 O408 2.024 . S
C388 O407 1.246 . S
C388 O408 1.249 . S
N389 C390 1.307 . S
N389 C391 1.333 . S
N389 Zn395 2.020 . S
C390 N389 1.307 . S
C390 C394 1.370 . S
C390 H401 0.948 . S
C391 N389 1.333 . S
C391 C392 1.379 . S
C391 H399 0.952 . S
C392 C391 1.379 . S
C392 C393 1.390 . S
C392 H412 0.949 . S
C393 C392 1.390 . S
C393 C394 1.357 . S
C394 C390 1.370 . S
C394 C393 1.357 . S
C394 H413 0.950 . S
Zn395 N389 2.020 . S
Zn395 O398 2.025 . S
Zn395 O403 2.024 . S
Zn395 O405 2.039 . S
Zn395 O407 2.034 . S
O396 C380 1.251 . S
O396 Zn387 2.039 . S
C397 O402 1.246 . S
C397 O403 1.249 . S
O398 C380 1.254 . S
O398 Zn395 2.025 . S
H399 C391 0.952 . S
H400 C382 0.952 . S
H401 C390 0.948 . S
O402 Zn387 2.034 . S
O402 C397 1.246 . S
O403 Zn395 2.024 . S
O403 C397 1.249 . S
H404 C386 0.948 . S
O405 Zn395 2.039 . S
O405 C409 1.251 . S
O406 Zn387 2.025 . S
O406 C409 1.254 . S
O407 C388 1.246 . S
O407 Zn395 2.034 . S
O408 Zn387 2.024 . S
O408 C388 1.249 . S
C409 O405 1.251 . S
C409 O406 1.254 . S
H410 C383 0.949 . S
H411 C385 0.950 . S
H412 C392 0.949 . S
H413 C394 0.950 . S
C414 O430 1.251 1_556 S
C414 O432 1.254 . S
N415 C416 1.333 . S
N415 C420 1.307 . S
N415 Zn421 2.020 . S
C416 N415 1.333 . S
C416 C417 1.379 . S
C416 H434 0.952 . S
C417 C416 1.379 . S
C417 C418 1.390 . S
C417 H444 0.949 . S
C418 C417 1.390 . S
C418 C419 1.357 . S
C419 C418 1.357 . S
C419 C420 1.370 . S
C419 H445 0.950 . S
C420 N415 1.307 . S
C420 C419 1.370 . S
C420 H438 0.948 . S
Zn421 N415 2.020 . S
Zn421 O430 2.039 . S
Zn421 O436 2.034 1_655 S
Zn421 O440 2.025 1_655 S
Zn421 O442 2.024 . S
C422 O441 1.246 . S
C422 O442 1.249 1_556 S
N423 C424 1.307 . S
N423 C425 1.333 . S
N423 Zn429 2.020 . S
C424 N423 1.307 . S
C424 C428 1.370 . S
C424 H435 0.948 . S
C425 N423 1.333 . S
C425 C426 1.379 . S
C425 H433 0.952 . S
C426 C425 1.379 . S
C426 C427 1.390 . S
C426 H446 0.949 . S
C427 C426 1.390 . S
C427 C428 1.357 . S
C428 C424 1.370 . S
C428 C427 1.357 . S
C428 H447 0.950 . S
Zn429 N423 2.020 . S
Zn429 O432 2.025 1_455 S
Zn429 O437 2.024 . S
Zn429 O439 2.039 . S
Zn429 O441 2.034 1_455 S
O430 C414 1.251 1_554 S
O430 Zn421 2.039 . S
C431 O436 1.246 . S
C431 O437 1.249 1_554 S
O432 C414 1.254 . S
O432 Zn429 2.025 1_655 S
H433 C425 0.952 . S
H434 C416 0.952 . S
H435 C424 0.948 . S
O436 Zn421 2.034 1_455 S
O436 C431 1.246 . S
O437 Zn429 2.024 . S
O437 C431 1.249 1_556 S
H438 C420 0.948 . S
O439 Zn429 2.039 . S
O439 C443 1.251 1_556 S
O440 Zn421 2.025 1_455 S
O440 C443 1.254 . S
O441 C422 1.246 . S
O441 Zn429 2.034 1_655 S
O442 Zn421 2.024 . S
O442 C422 1.249 1_554 S
C443 O439 1.251 1_554 S
C443 O440 1.254 . S
H444 C417 0.949 . S
H445 C419 0.950 . S
H446 C426 0.949 . S
H447 C428 0.950 . S
C448 C449 1.363 . S
C448 C454 1.379 . S
C448 N456 1.356 . S
C449 C448 1.363 . S
C449 C455 1.363 . S
C450 C451 1.363 . S
C450 C455 1.379 . S
C450 N457 1.356 1_445 S
C451 C450 1.363 . S
C451 C454 1.363 . S
N452 C454 1.356 . S
N452 H464 0.984 . S
N452 H465 0.985 . S
N453 C455 1.356 . S
N453 H458 0.984 . S
N453 H459 0.985 1_445 S
C454 C448 1.379 . S
C454 C451 1.363 . S
C454 N452 1.356 . S
C455 C449 1.363 . S
C455 C450 1.379 . S
C455 N453 1.356 . S
N456 C448 1.356 . S
N456 H462 0.984 . S
N456 H463 0.984 . S
N457 C450 1.356 1_665 S
N457 H460 0.984 . S
N457 H461 0.985 . S
H458 N453 0.984 . S
H459 N453 0.985 1_665 S
H460 N457 0.984 . S
H461 N457 0.985 . S
H462 N456 0.984 . S
H463 N456 0.984 . S
H464 N452 0.984 . S
H465 N452 0.985 . S
C466 C467 1.363 . S
C466 C472 1.379 . S
C466 N474 1.356 . S
C467 C466 1.363 . S
C467 C473 1.363 . S
C468 C469 1.363 . S
C468 C473 1.379 . S
C468 N475 1.356 1_565 S
C469 C468 1.363 . S
C469 C472 1.363 . S
N470 C472 1.356 . S
N470 H482 0.984 . S
N470 H483 0.985 . S
N471 C473 1.356 . S
N471 H476 0.984 . S
N471 H477 0.985 1_565 S
C472 C466 1.379 . S
C472 C469 1.363 . S
C472 N470 1.356 . S
C473 C467 1.363 . S
C473 C468 1.379 . S
C473 N471 1.356 . S
N474 C466 1.356 . S
N474 H480 0.984 . S
N474 H481 0.984 . S
N475 C468 1.356 1_545 S
N475 H478 0.984 . S
N475 H479 0.985 . S
H476 N471 0.984 . S
H477 N471 0.985 1_545 S
H478 N475 0.984 . S
H479 N475 0.985 . S
H480 N474 0.984 . S
H481 N474 0.984 . S
H482 N470 0.984 . S
H483 N470 0.985 . S
C484 C485 1.363 . S
C484 C490 1.379 . S
C484 N492 1.356 . S
C485 C484 1.363 . S
C485 C491 1.363 . S
C486 C487 1.363 . S
C486 C491 1.379 . S
C486 N493 1.356 . S
C487 C486 1.363 . S
C487 C490 1.363 . S
N488 C490 1.356 . S
N488 H500 0.984 . S
N488 H501 0.985 . S
N489 C491 1.356 . S
N489 H494 0.984 . S
N489 H495 0.985 . S
C490 C484 1.379 . S
C490 C487 1.363 . S
C490 N488 1.356 . S
C491 C485 1.363 . S
C491 C486 1.379 . S
C491 N489 1.356 . S
N492 C484 1.356 . S
N492 H498 0.984 . S
N492 H499 0.984 . S
N493 C486 1.356 . S
N493 H496 0.984 . S
N493 H497 0.985 . S
H494 N489 0.984 . S
H495 N489 0.985 . S
H496 N493 0.984 . S
H497 N493 0.985 . S
H498 N492 0.984 . S
H499 N492 0.984 . S
H500 N488 0.984 . S
H501 N488 0.985 . S
C502 C503 1.363 . S
C502 C508 1.379 . S
C502 N510 1.356 . S
C503 C502 1.363 . S
C503 C509 1.363 . S
C504 C505 1.363 . S
C504 C509 1.379 . S
C504 N511 1.356 . S
C505 C504 1.363 . S
C505 C508 1.363 . S
N506 C508 1.356 . S
N506 H518 0.984 . S
N506 H519 0.985 . S
N507 C509 1.356 . S
N507 H512 0.984 . S
N507 H513 0.985 . S
C508 C502 1.379 . S
C508 C505 1.363 . S
C508 N506 1.356 . S
C509 C503 1.363 . S
C509 C504 1.379 . S
C509 N507 1.356 . S
N510 C502 1.356 . S
N510 H516 0.984 . S
N510 H517 0.984 . S
N511 C504 1.356 . S
N511 H514 0.984 . S
N511 H515 0.985 . S
H512 N507 0.984 . S
H513 N507 0.985 . S
H514 N511 0.984 . S
H515 N511 0.985 . S
H516 N510 0.984 . S
H517 N510 0.984 . S
H518 N506 0.984 . S
H519 N506 0.985 . S
C520 C521 1.363 . S
C520 C526 1.379 . S
C520 N528 1.356 1_545 S
C521 C520 1.363 . S
C521 C527 1.363 . S
C522 C523 1.363 . S
C522 C527 1.379 . S
C522 N529 1.356 . S
C523 C522 1.363 . S
C523 C526 1.363 . S
N524 C526 1.356 1_565 S
N524 H536 0.984 . S
N524 H537 0.985 . S
N525 C527 1.356 . S
N525 H530 0.984 . S
N525 H531 0.985 . S
C526 C520 1.379 . S
C526 C523 1.363 . S
C526 N524 1.356 1_545 S
C527 C521 1.363 . S
C527 C522 1.379 . S
C527 N525 1.356 . S
N528 C520 1.356 1_565 S
N528 H534 0.984 . S
N528 H535 0.984 1_565 S
N529 C522 1.356 . S
N529 H532 0.984 . S
N529 H533 0.985 . S
H530 N525 0.984 . S
H531 N525 0.985 . S
H532 N529 0.984 . S
H533 N529 0.985 . S
H534 N528 0.984 . S
H535 N528 0.984 1_545 S
H536 N524 0.984 . S
H537 N524 0.985 . S
C538 C539 1.363 . S
C538 C544 1.379 . S
C538 N546 1.356 . S
C539 C538 1.363 . S
C539 C545 1.363 . S
C540 C541 1.363 . S
C540 C545 1.379 . S
C540 N547 1.356 1_565 S
C541 C540 1.363 . S
C541 C544 1.363 . S
N542 C544 1.356 . S
N542 H554 0.984 . S
N542 H555 0.985 . S
N543 C545 1.356 . S
N543 H548 0.984 . S
N543 H549 0.985 1_565 S
C544 C538 1.379 . S
C544 C541 1.363 . S
C544 N542 1.356 . S
C545 C539 1.363 . S
C545 C540 1.379 . S
C545 N543 1.356 . S
N546 C538 1.356 . S
N546 H552 0.984 . S
N546 H553 0.984 . S
N547 C540 1.356 1_545 S
N547 H550 0.984 . S
N547 H551 0.985 . S
H548 N543 0.984 . S
H549 N543 0.985 1_545 S
H550 N547 0.984 . S
H551 N547 0.985 . S
H552 N546 0.984 . S
H553 N546 0.984 . S
H554 N542 0.984 . S
H555 N542 0.985 . S
C556 C557 1.363 . S
C556 C562 1.379 . S
C556 N564 1.356 . S
C557 C556 1.363 . S
C557 C563 1.363 1_556 S
C558 C559 1.363 1_554 S
C558 C563 1.379 . S
C558 N565 1.356 . S
C559 C558 1.363 1_556 S
C559 C562 1.363 . S
N560 C562 1.356 . S
N560 H572 0.984 . S
N560 H573 0.985 . S
N561 C563 1.356 . S
N561 H566 0.984 . S
N561 H567 0.985 . S
C562 C556 1.379 . S
C562 C559 1.363 . S
C562 N560 1.356 . S
C563 C557 1.363 1_554 S
C563 C558 1.379 . S
C563 N561 1.356 . S
N564 C556 1.356 . S
N564 H570 0.984 . S
N564 H571 0.984 . S
N565 C558 1.356 . S
N565 H568 0.984 . S
N565 H569 0.985 . S
H566 N561 0.984 . S
H567 N561 0.985 . S
H568 N565 0.984 . S
H569 N565 0.985 . S
H570 N564 0.984 . S
H571 N564 0.984 . S
H572 N560 0.984 . S
H573 N560 0.985 . S
C574 C575 1.363 . S
C574 C580 1.379 . S
C574 N582 1.356 . S
C575 C574 1.363 . S
C575 C581 1.363 . S
C576 C577 1.363 . S
C576 C581 1.379 . S
C576 N583 1.356 . S
C577 C576 1.363 . S
C577 C580 1.363 . S
N578 C580 1.356 . S
N578 H590 0.984 . S
N578 H591 0.985 . S
N579 C581 1.356 . S
N579 H584 0.984 . S
N579 H585 0.985 . S
C580 C574 1.379 . S
C580 C577 1.363 . S
C580 N578 1.356 . S
C581 C575 1.363 . S
C581 C576 1.379 . S
C581 N579 1.356 . S
N582 C574 1.356 . S
N582 H588 0.984 . S
N582 H589 0.984 . S
N583 C576 1.356 . S
N583 H586 0.984 . S
N583 H587 0.985 . S
H584 N579 0.984 . S
H585 N579 0.985 . S
H586 N583 0.984 . S
H587 N583 0.985 . S
H588 N582 0.984 . S
H589 N582 0.984 . S
H590 N578 0.984 . S
H591 N578 0.985 . S
C592 C593 1.363 . S
C592 C598 1.379 . S
C592 N600 1.356 . S
C593 C592 1.363 . S
C593 C599 1.363 . S
C594 C595 1.363 . S
C594 C599 1.379 . S
C594 N601 1.356 1_455 S
C595 C594 1.363 . S
C595 C598 1.363 . S
N596 C598 1.356 1_556 S
N596 H608 0.984 . S
N596 H609 0.985 . S
N597 C599 1.356 . S
N597 H602 0.984 . S
N597 H603 0.985 1_455 S
C598 C592 1.379 . S
C598 C595 1.363 . S
C598 N596 1.356 1_554 S
C599 C593 1.363 . S
C599 C594 1.379 . S
C599 N597 1.356 . S
N600 C592 1.356 . S
N600 H606 0.984 1_554 S
N600 H607 0.984 . S
N601 C594 1.356 1_655 S
N601 H604 0.981 1_655 S
N601 H605 0.985 . S
H602 N597 0.984 . S
H603 N597 0.985 1_655 S
H604 N601 0.981 1_455 S
H605 N601 0.985 . S
H606 N600 0.984 1_556 S
H607 N600 0.984 . S
H608 N596 0.984 . S
H609 N596 0.985 . S
C610 C611 1.363 . S
C610 C616 1.379 . S
C610 N618 1.356 . S
C611 C610 1.363 . S
C611 C617 1.363 . S
C612 C613 1.363 . S
C612 C617 1.379 . S
C612 N619 1.356 . S
C613 C612 1.363 . S
C613 C616 1.363 . S
N614 C616 1.356 . S
N614 H626 0.984 . S
N614 H627 0.985 . S
N615 C617 1.356 1_554 S
N615 H620 0.984 . S
N615 H621 0.985 . S
C616 C610 1.379 . S
C616 C613 1.363 . S
C616 N614 1.356 . S
C617 C611 1.363 . S
C617 C612 1.379 . S
C617 N615 1.356 1_556 S
N618 C610 1.356 . S
N618 H624 0.984 . S
N618 H625 0.984 . S
N619 C612 1.356 . S
N619 H622 0.984 . S
N619 H623 0.985 1_556 S
H620 N615 0.984 . S
H621 N615 0.985 . S
H622 N619 0.984 . S
H623 N619 0.985 1_554 S
H624 N618 0.984 . S
H625 N618 0.984 . S
H626 N614 0.984 . S
H627 N614 0.985 . S
C628 C629 1.363 . S
C628 C634 1.379 . S
C628 N636 1.356 . S
C629 C628 1.363 . S
C629 C635 1.363 . S
C630 C631 1.363 . S
C630 C635 1.379 . S
C630 N637 1.356 . S
C631 C630 1.363 . S
C631 C634 1.363 . S
N632 C634 1.356 . S
N632 H644 0.984 . S
N632 H645 0.985 . S
N633 C635 1.356 . S
N633 H638 0.984 . S
N633 H639 0.985 . S
C634 C628 1.379 . S
C634 C631 1.363 . S
C634 N632 1.356 . S
C635 C629 1.363 . S
C635 C630 1.379 . S
C635 N633 1.356 . S
N636 C628 1.356 . S
N636 H642 0.984 . S
N636 H643 0.984 . S
N637 C630 1.356 . S
N637 H640 0.984 . S
N637 H641 0.985 . S
H638 N633 0.984 . S
H639 N633 0.985 . S
H640 N637 0.984 . S
H641 N637 0.985 . S
H642 N636 0.984 . S
H643 N636 0.984 . S
H644 N632 0.984 . S
H645 N632 0.985 . S
C646 C647 1.363 . S
C646 C652 1.379 . S
C646 N654 1.356 . S
C647 C646 1.363 . S
C647 C653 1.363 . S
C648 C649 1.363 . S
C648 C653 1.379 . S
C648 N655 1.356 . S
C649 C648 1.363 . S
C649 C652 1.363 . S
N650 C652 1.356 . S
N650 H662 0.984 . S
N650 H663 0.985 . S
N651 C653 1.356 . S
N651 H656 0.984 . S
N651 H657 0.985 . S
C652 C646 1.379 . S
C652 C649 1.363 . S
C652 N650 1.356 . S
C653 C647 1.363 . S
C653 C648 1.379 . S
C653 N651 1.356 . S
N654 C646 1.356 . S
N654 H660 0.984 . S
N654 H661 0.984 . S
N655 C648 1.356 . S
N655 H658 0.984 . S
N655 H659 0.985 . S
H656 N651 0.984 . S
H657 N651 0.985 . S
H658 N655 0.984 . S
H659 N655 0.985 . S
H660 N654 0.984 . S
H661 N654 0.984 . S
H662 N650 0.984 . S
H663 N650 0.985 . S
C664 C665 1.363 . S
C664 C670 1.379 . S
C664 N672 1.356 1_565 S
C665 C664 1.363 . S
C665 C671 1.363 . S
C666 C667 1.363 . S
C666 C671 1.379 . S
C666 N673 1.356 . S
C667 C666 1.363 . S
C667 C670 1.363 . S
N668 C670 1.356 1_545 S
N668 H680 0.984 . S
N668 H681 0.985 . S
N669 C671 1.356 . S
N669 H674 0.984 . S
N669 H675 0.985 . S
C670 C664 1.379 . S
C670 C667 1.363 . S
C670 N668 1.356 1_565 S
C671 C665 1.363 . S
C671 C666 1.379 . S
C671 N669 1.356 . S
N672 C664 1.356 1_545 S
N672 H678 0.984 . S
N672 H679 0.984 1_545 S
N673 C666 1.356 . S
N673 H676 0.984 . S
N673 H677 0.985 1_655 S
H674 N669 0.984 . S
H675 N669 0.985 . S
H676 N673 0.984 . S
H677 N673 0.985 1_455 S
H678 N672 0.984 . S
H679 N672 0.984 1_565 S
H680 N668 0.984 . S
H681 N668 0.985 . S
C682 C683 1.363 . S
C682 C688 1.379 . S
C682 N690 1.356 . S
C683 C682 1.363 . S
C683 C689 1.363 . S
C684 C685 1.363 . S
C684 C689 1.379 . S
C684 N691 1.356 1_545 S
C685 C684 1.363 . S
C685 C688 1.363 . S
N686 C688 1.356 . S
N686 H698 0.984 . S
N686 H699 0.985 . S
N687 C689 1.356 . S
N687 H692 0.984 . S
N687 H693 0.985 1_545 S
C688 C682 1.379 . S
C688 C685 1.363 . S
C688 N686 1.356 . S
C689 C683 1.363 . S
C689 C684 1.379 . S
C689 N687 1.356 . S
N690 C682 1.356 . S
N690 H696 0.984 . S
N690 H697 0.984 . S
N691 C684 1.356 1_565 S
N691 H694 0.984 . S
N691 H695 0.985 . S
H692 N687 0.984 . S
H693 N687 0.985 1_565 S
H694 N691 0.984 . S
H695 N691 0.985 . S
H696 N690 0.984 . S
H697 N690 0.984 . S
H698 N686 0.984 . S
H699 N686 0.985 . S
C700 C701 1.363 . S
C700 C706 1.379 . S
C700 N708 1.356 . S
C701 C700 1.363 . S
C701 C707 1.363 . S
C702 C703 1.363 . S
C702 C707 1.379 . S
C702 N709 1.356 . S
C703 C702 1.363 . S
C703 C706 1.363 . S
N704 C706 1.356 . S
N704 H716 0.984 . S
N704 H717 0.985 . S
N705 C707 1.356 . S
N705 H710 0.984 . S
N705 H711 0.985 . S
C706 C700 1.379 . S
C706 C703 1.363 . S
C706 N704 1.356 . S
C707 C701 1.363 . S
C707 C702 1.379 . S
C707 N705 1.356 . S
N708 C700 1.356 . S
N708 H714 0.984 . S
N708 H715 0.984 . S
N709 C702 1.356 . S
N709 H712 0.984 . S
N709 H713 0.985 . S
H710 N705 0.984 . S
H711 N705 0.985 . S
H712 N709 0.984 . S
H713 N709 0.985 . S
H714 N708 0.984 . S
H715 N708 0.984 . S
H716 N704 0.984 . S
H717 N704 0.985 . S
C718 C719 1.363 . S
C718 C724 1.379 . S
C718 N726 1.356 . S
C719 C718 1.363 . S
C719 C725 1.363 . S
C720 C721 1.363 . S
C720 C725 1.379 . S
C720 N727 1.356 . S
C721 C720 1.363 . S
C721 C724 1.363 . S
N722 C724 1.356 . S
N722 H734 0.984 . S
N722 H735 0.985 . S
N723 C725 1.356 . S
N723 H728 0.984 . S
N723 H729 0.985 . S
C724 C718 1.379 . S
C724 C721 1.363 . S
C724 N722 1.356 . S
C725 C719 1.363 . S
C725 C720 1.379 . S
C725 N723 1.356 . S
N726 C718 1.356 . S
N726 H732 0.984 . S
N726 H733 0.984 . S
N727 C720 1.356 . S
N727 H730 0.984 . S
N727 H731 0.985 . S
H728 N723 0.984 . S
H729 N723 0.985 . S
H730 N727 0.984 . S
H731 N727 0.985 . S
H732 N726 0.984 . S
H733 N726 0.984 . S
H734 N722 0.984 . S
H735 N722 0.985 . S
C736 C737 1.363 . S
C736 C742 1.379 . S
C736 N744 1.356 . S
C737 C736 1.363 . S
C737 C743 1.363 . S
C738 C739 1.363 . S
C738 C743 1.379 . S
C738 N745 1.356 1_566 S
C739 C738 1.363 . S
C739 C742 1.363 . S
N740 C742 1.356 . S
N740 H752 0.984 . S
N740 H753 0.985 . S
N741 C743 1.356 . S
N741 H746 0.984 . S
N741 H747 0.985 1_566 S
C742 C736 1.379 . S
C742 C739 1.363 . S
C742 N740 1.356 . S
C743 C737 1.363 . S
C743 C738 1.379 . S
C743 N741 1.356 . S
N744 C736 1.356 . S
N744 H750 0.984 . S
N744 H751 0.984 . S
N745 C738 1.356 1_544 S
N745 H748 0.984 . S
N745 H749 0.985 . S
H746 N741 0.984 . S
H747 N741 0.985 1_544 S
H748 N745 0.984 . S
H749 N745 0.985 . S
H750 N744 0.984 . S
H751 N744 0.984 . S
H752 N740 0.984 . S
H753 N740 0.985 . S
C754 C755 1.363 . S
C754 C760 1.379 . S
C754 N762 1.356 1_545 S
C755 C754 1.363 . S
C755 C761 1.363 . S
C756 C757 1.363 . S
C756 C761 1.379 . S
C756 N763 1.356 . S
C757 C756 1.363 . S
C757 C760 1.363 . S
N758 C760 1.356 1_565 S
N758 H770 0.984 . S
N758 H771 0.985 . S
N759 C761 1.356 . S
N759 H764 0.984 . S
N759 H765 0.985 . S
C760 C754 1.379 . S
C760 C757 1.363 . S
C760 N758 1.356 1_545 S
C761 C755 1.363 . S
C761 C756 1.379 . S
C761 N759 1.356 . S
N762 C754 1.356 1_565 S
N762 H768 0.984 . S
N762 H769 0.984 1_565 S
N763 C756 1.356 . S
N763 H766 0.984 . S
N763 H767 0.985 . S
H764 N759 0.984 . S
H765 N759 0.985 . S
H766 N763 0.984 . S
H767 N763 0.985 . S
H768 N762 0.984 . S
H769 N762 0.984 1_545 S
H770 N758 0.984 . S
H771 N758 0.985 . S
C772 C773 1.346 1_556 S
C772 C778 1.379 . S
C772 N780 1.370 . S
C773 C772 1.346 1_554 S
C773 C779 1.363 . S
C774 C775 1.363 . S
C774 C779 1.379 . S
C774 N781 1.356 . S
C775 C774 1.363 . S
C775 C778 1.350 1_554 S
N776 C778 1.366 . S
N776 H788 0.984 . S
N776 H789 0.985 . S
N777 C779 1.356 . S
N777 H782 0.984 . S
N777 H783 0.985 . S
C778 C772 1.379 . S
C778 C775 1.350 1_556 S
C778 N776 1.366 . S
C779 C773 1.363 . S
C779 C774 1.379 . S
C779 N777 1.356 . S
N780 C772 1.370 . S
N780 H786 0.984 . S
N780 H787 0.984 . S
N781 C774 1.356 . S
N781 H784 0.984 . S
N781 H785 0.985 . S
H782 N777 0.984 . S
H783 N777 0.985 . S
H784 N781 0.984 . S
H785 N781 0.985 . S
H786 N780 0.984 . S
H787 N780 0.984 . S
H788 N776 0.984 . S
H789 N776 0.985 . S
C790 C791 1.363 . S
C790 C796 1.379 . S
C790 N798 1.356 . S
C791 C790 1.363 . S
C791 C797 1.363 . S
C792 C793 1.363 . S
C792 C797 1.379 . S
C792 N799 1.356 . S
C793 C792 1.363 . S
C793 C796 1.363 . S
N794 C796 1.356 . S
N794 H806 0.984 . S
N794 H807 0.985 . S
N795 C797 1.356 . S
N795 H800 0.984 . S
N795 H801 0.985 . S
C796 C790 1.379 . S
C796 C793 1.363 . S
C796 N794 1.356 . S
C797 C791 1.363 . S
C797 C792 1.379 . S
C797 N795 1.356 . S
N798 C790 1.356 . S
N798 H804 0.984 . S
N798 H805 0.984 . S
N799 C792 1.356 . S
N799 H802 0.984 . S
N799 H803 0.985 . S
H800 N795 0.984 . S
H801 N795 0.985 . S
H802 N799 0.984 . S
H803 N799 0.985 . S
H804 N798 0.984 . S
H805 N798 0.984 . S
H806 N794 0.984 . S
H807 N794 0.985 . S
C808 C809 1.363 . S
C808 C814 1.379 . S
C808 N816 1.356 . S
C809 C808 1.363 . S
C809 C815 1.363 . S
C810 C811 1.363 . S
C810 C815 1.379 . S
C810 N817 1.356 . S
C811 C810 1.363 . S
C811 C814 1.363 . S
N812 C814 1.356 1_554 S
N812 H824 0.984 1_655 S
N812 H825 0.985 . S
N813 C815 1.356 . S
N813 H818 0.984 . S
N813 H819 0.985 . S
C814 C808 1.379 . S
C814 C811 1.363 . S
C814 N812 1.356 1_556 S
C815 C809 1.363 . S
C815 C810 1.379 . S
C815 N813 1.356 . S
N816 C808 1.356 . S
N816 H822 0.998 1_556 S
N816 H823 0.984 . S
N817 C810 1.356 . S
N817 H820 0.984 . S
N817 H821 0.985 . S
H818 N813 0.984 . S
H819 N813 0.985 . S
H820 N817 0.984 . S
H821 N817 0.985 . S
H822 N816 0.998 1_554 S
H823 N816 0.984 . S
H824 N812 0.984 1_455 S
H825 N812 0.985 . S
C826 C827 1.363 . S
C826 C832 1.379 . S
C826 N834 1.356 . S
C827 C826 1.363 . S
C827 C833 1.363 . S
C828 C829 1.363 . S
C828 C833 1.379 . S
C828 N835 1.356 . S
C829 C828 1.363 . S
C829 C832 1.363 . S
N830 C832 1.356 . S
N830 H842 0.984 . S
N830 H843 0.985 . S
N831 C833 1.356 1_556 S
N831 H836 0.984 . S
N831 H837 0.985 . S
C832 C826 1.379 . S
C832 C829 1.363 . S
C832 N830 1.356 . S
C833 C827 1.363 . S
C833 C828 1.379 . S
C833 N831 1.356 1_554 S
N834 C826 1.356 . S
N834 H840 0.984 . S
N834 H841 0.984 . S
N835 C828 1.356 . S
N835 H838 0.984 . S
N835 H839 0.985 1_554 S
H836 N831 0.984 . S
H837 N831 0.985 . S
H838 N835 0.984 . S
H839 N835 0.985 1_556 S
H840 N834 0.984 . S
H841 N834 0.984 . S
H842 N830 0.984 . S
H843 N830 0.985 . S
C844 C845 1.363 . S
C844 C850 1.379 . S
C844 N852 1.356 . S
C845 C844 1.363 . S
C845 C851 1.363 . S
C846 C847 1.363 . S
C846 C851 1.379 . S
C846 N853 1.356 . S
C847 C846 1.363 . S
C847 C850 1.363 . S
N848 C850 1.356 . S
N848 H860 0.984 . S
N848 H861 0.985 . S
N849 C851 1.356 . S
N849 H854 0.984 . S
N849 H855 0.985 . S
C850 C844 1.379 . S
C850 C847 1.363 . S
C850 N848 1.356 . S
C851 C845 1.363 . S
C851 C846 1.379 . S
C851 N849 1.356 . S
N852 C844 1.356 . S
N852 H858 0.984 . S
N852 H859 0.984 . S
N853 C846 1.356 . S
N853 H856 0.984 . S
N853 H857 0.985 . S
H854 N849 0.984 . S
H855 N849 0.985 . S
H856 N853 0.984 . S
H857 N853 0.985 . S
H858 N852 0.984 . S
H859 N852 0.984 . S
H860 N848 0.984 . S
H861 N848 0.985 . S
C862 C863 1.363 . S
C862 C868 1.379 . S
C862 N870 1.356 . S
C863 C862 1.363 . S
C863 C869 1.363 . S
C864 C865 1.363 . S
C864 C869 1.379 . S
C864 N871 1.356 . S
C865 C864 1.363 . S
C865 C868 1.363 . S
N866 C868 1.356 . S
N866 H878 0.984 . S
N866 H879 0.985 . S
N867 C869 1.356 . S
N867 H872 0.984 . S
N867 H873 0.985 . S
C868 C862 1.379 . S
C868 C865 1.363 . S
C868 N866 1.356 . S
C869 C863 1.363 . S
C869 C864 1.379 . S
C869 N867 1.356 . S
N870 C862 1.356 . S
N870 H876 0.984 . S
N870 H877 0.984 . S
N871 C864 1.356 . S
N871 H874 0.984 . S
N871 H875 0.985 . S
H872 N867 0.984 . S
H873 N867 0.985 . S
H874 N871 0.984 . S
H875 N871 0.985 . S
H876 N870 0.984 . S
H877 N870 0.984 . S
H878 N866 0.984 . S
H879 N866 0.985 . S
C449 C1 2.344 . S
C451 C312 2.362 . S
C467 C40 2.296 . S
C469 C354 2.326 . S
C487 C384 1.122 . S
C485 C99 1.115 . S
C503 C118 1.162 . S
C505 C418 1.177 . S
C523 C375 1.901 . S
C521 C16 1.873 . S
C541 C329 1.888 . S
C539 C60 1.860 . S
C559 C422 1.458 . S
C557 C79 1.420 . S
C577 C388 1.486 . S
C575 C138 1.428 . S
C593 C21 2.229 . S
C595 C443 2.244 . S
C613 C350 1.275 . S
C611 C94 1.252 . S
C629 C133 1.227 . S
C631 C325 1.268 . S
C647 C55 2.207 . S
C649 C409 2.227 . S
C667 C341 2.365 . S
C665 C157 2.341 . S
C683 C196 2.302 . S
C685 C363 2.326 . S
C701 C255 1.099 . S
C703 C393 1.119 . S
C719 C289 1.164 . S
C721 C427 1.174 . S
C737 C172 1.876 . S
C739 C346 1.900 . S
C757 C320 1.890 . S
C755 C216 1.876 . S
C775 C431 1.460 . S
C773 C235 1.413 . S
C793 C397 1.486 . S
C791 C294 1.427 . S
C809 C177 2.216 . S
C811 C414 2.245 . S
C829 C359 1.276 . S
C827 C250 1.258 . S
C847 C316 1.272 . S
C845 C274 1.227 . S
C863 C211 2.199 . S
C865 C380 2.222 . S
