# Generated by pormake.
# Topology zzz, (3,6)-cn, num edge types: 1
# Building blocks:
#     Node 0, Type 0, BuildingBlock: CUQRIR_clean_linker_1, # of connection points: 3
#     Node 1, Type 0, BuildingBlock: CUQRIR_clean_linker_1, # of connection points: 3
#     Node 2, Type 0, BuildingBlock: CUQRIR_clean_linker_1, # of connection points: 3
#     Node 3, Type 0, BuildingBlock: CUQRIR_clean_linker_1, # of connection points: 3
#     Node 4, Type 0, BuildingBlock: CUQRIR_clean_linker_1, # of connection points: 3
#     Node 5, Type 0, BuildingBlock: CUQRIR_clean_linker_1, # of connection points: 3
#     Node 6, Type 0, BuildingBlock: CUQRIR_clean_linker_1, # of connection points: 3
#     Node 7, Type 0, BuildingBlock: CUQRIR_clean_linker_1, # of connection points: 3
#     Node 8, Type 1, BuildingBlock: FUNLAD_clean_sbu_0, # of connection points: 6
#     Node 9, Type 1, BuildingBlock: FUNLAD_clean_sbu_0, # of connection points: 6
#     Node 10, Type 1, BuildingBlock: FUNLAD_clean_sbu_0, # of connection points: 6
#     Node 11, Type 1, BuildingBlock: FUNLAD_clean_sbu_0, # of connection points: 6
#     Edge 12, Type (0, 1), BuildingBlock: OJICUG_clean_linker_0, # of connection points: 2
#     Edge 13, Type (0, 1), BuildingBlock: OJICUG_clean_linker_0, # of connection points: 2
#     Edge 14, Type (0, 1), BuildingBlock: OJICUG_clean_linker_0, # of connection points: 2
#     Edge 15, Type (0, 1), BuildingBlock: OJICUG_clean_linker_0, # of connection points: 2
#     Edge 16, Type (0, 1), BuildingBlock: OJICUG_clean_linker_0, # of connection points: 2
#     Edge 17, Type (0, 1), BuildingBlock: OJICUG_clean_linker_0, # of connection points: 2
#     Edge 18, Type (0, 1), BuildingBlock: OJICUG_clean_linker_0, # of connection points: 2
#     Edge 19, Type (0, 1), BuildingBlock: OJICUG_clean_linker_0, # of connection points: 2
#     Edge 20, Type (0, 1), BuildingBlock: OJICUG_clean_linker_0, # of connection points: 2
#     Edge 21, Type (0, 1), BuildingBlock: OJICUG_clean_linker_0, # of connection points: 2
#     Edge 22, Type (0, 1), BuildingBlock: OJICUG_clean_linker_0, # of connection points: 2
#     Edge 23, Type (0, 1), BuildingBlock: OJICUG_clean_linker_0, # of connection points: 2
#     Edge 24, Type (0, 1), BuildingBlock: OJICUG_clean_linker_0, # of connection points: 2
#     Edge 25, Type (0, 1), BuildingBlock: OJICUG_clean_linker_0, # of connection points: 2
#     Edge 26, Type (0, 1), BuildingBlock: OJICUG_clean_linker_0, # of connection points: 2
#     Edge 27, Type (0, 1), BuildingBlock: OJICUG_clean_linker_0, # of connection points: 2
#     Edge 28, Type (0, 1), BuildingBlock: OJICUG_clean_linker_0, # of connection points: 2
#     Edge 29, Type (0, 1), BuildingBlock: OJICUG_clean_linker_0, # of connection points: 2
#     Edge 30, Type (0, 1), BuildingBlock: OJICUG_clean_linker_0, # of connection points: 2
#     Edge 31, Type (0, 1), BuildingBlock: OJICUG_clean_linker_0, # of connection points: 2
#     Edge 32, Type (0, 1), BuildingBlock: OJICUG_clean_linker_0, # of connection points: 2
#     Edge 33, Type (0, 1), BuildingBlock: OJICUG_clean_linker_0, # of connection points: 2
#     Edge 34, Type (0, 1), BuildingBlock: OJICUG_clean_linker_0, # of connection points: 2
#     Edge 35, Type (0, 1), BuildingBlock: OJICUG_clean_linker_0, # of connection points: 2
# Relax obj value: 0.127
# Max RMSD: 0.183
# Mean RMSD: 0.102
data_MOF--net-zzz--node1-FUNLAD_clean_sbu_0--node2-CUQRIR_clean_linker_1--edge1-OJICUG_clean_linker_0
_symmetry_space_group_name_H-M    P1
_symmetry_Int_Tables_number       1
_symmetry_cell_setting            triclinic
loop_
_symmetry_equiv_pos_as_xyz
'x, y, z'
_cell_length_a     34.440341
_cell_length_b     40.643034
_cell_length_c     11.217775
_cell_angle_alpha  82.712806
_cell_angle_beta   81.497196
_cell_angle_gamma 89.342592
loop_
_atom_site_label
_atom_site_type_symbol
_atom_site_fract_x
_atom_site_fract_y
_atom_site_fract_z
_atom_type_partial_charge
C0 C 0.80253 0.47994 0.39393 0.0
N1 N 0.83983 0.47157 0.40951 0.0
N2 N 0.795 0.47237 0.28527 0.0
C3 C 0.77436 0.49714 0.48048 0.0
C4 C 0.82876 0.45898 0.23607 0.0
N5 N 0.85612 0.45851 0.31124 0.0
C6 C 0.83642 0.44968 0.10869 0.0
H7 H 0.74365 0.49005 0.47592 0.0
H8 H 0.7775 0.52434 0.45422 0.0
H9 H 0.78073 0.4911 0.5749 0.0
H10 H 0.8096 0.45084 0.06466 0.0
H11 H 0.8478 0.42404 0.11072 0.0
H12 H 0.85911 0.46655 0.05278 0.0
C13 C 0.95154 0.76673 0.22638 0.0
N14 N 0.95973 0.79929 0.22225 0.0
N15 N 0.95499 0.75806 0.11247 0.0
C16 C 0.94487 0.74277 0.34086 0.0
C17 C 0.96629 0.78647 0.03941 0.0
N18 N 0.96948 0.81145 0.10618 0.0
C19 C 0.97747 0.78889 0.90378 0.0
H20 H 0.97372 0.73522 0.3678 0.0
H21 H 0.92902 0.7203 0.32661 0.0
H22 H 0.92801 0.75477 0.41563 0.0
H23 H 0.95701 0.7739 0.86464 0.0
H24 H 1.00739 0.77874 0.88278 0.0
H25 H 0.97712 0.81499 0.86058 0.0
C26 C 0.7716 0.99507 0.25309 0.0
N27 N 0.73237 8e-05 0.25799 0.0
N28 N 0.79001 0.00031 0.13602 0.0
C29 C 0.79185 0.98497 0.36153 0.0
C30 C 0.76041 0.00897 0.07095 0.0
N31 N 0.72568 0.00893 0.14499 0.0
C32 C 0.76522 0.01673 0.93469 0.0
H33 H 0.80279 0.00757 0.39223 0.0
H34 H 0.81736 0.96894 0.33729 0.0
H35 H 0.7714 0.97178 0.43778 0.0
H36 H 0.76144 0.99353 0.89499 0.0
H37 H 0.7948 0.02722 0.89786 0.0
H38 H 0.74285 0.03459 0.9059 0.0
C39 C 0.53307 0.69707 0.25647 0.0
N40 N 0.52718 0.66402 0.26074 0.0
N41 N 0.52426 0.71347 0.15053 0.0
C42 C 0.54461 0.71336 0.35915 0.0
C43 C 0.51281 0.68903 0.09103 0.0
N44 N 0.51382 0.65913 0.15899 0.0
C45 C 0.50521 0.69384 0.96111 0.0
H46 H 0.53224 0.73869 0.35938 0.0
H47 H 0.57709 0.71525 0.34778 0.0
H48 H 0.53443 0.69843 0.44791 0.0
H49 H 0.52081 0.71611 0.90943 0.0
H50 H 0.47323 0.69701 0.95975 0.0
H51 H 0.51486 0.67193 0.91493 0.0
C52 C 0.25392 0.52245 0.15912 0.0
N53 N 0.21731 0.53229 0.14015 0.0
N54 N 0.26101 0.52957 0.26884 0.0
C55 C 0.28172 0.50424 0.0749 0.0
C56 C 0.22774 0.54422 0.31516 0.0
N57 N 0.20103 0.54579 0.23749 0.0
C58 C 0.21968 0.5536 0.4424 0.0
H59 H 0.27734 0.47717 0.10204 0.0
H60 H 0.31258 0.51039 0.08133 0.0
H61 H 0.27617 0.51035 0.97966 0.0
H62 H 0.24615 0.55175 0.48822 0.0
H63 H 0.19625 0.53723 0.49708 0.0
H64 H 0.20916 0.57951 0.43968 0.0
C65 C 0.08559 0.22909 0.36205 0.0
N66 N 0.07576 0.19662 0.37253 0.0
N67 N 0.06345 0.24396 0.44964 0.0
C68 C 0.11641 0.24623 0.26646 0.0
C69 C 0.03962 0.21959 0.51279 0.0
N70 N 0.04688 0.19077 0.46554 0.0
C71 C 1.01015 0.2239 0.62283 0.0
H72 H 0.1296 0.26741 0.29996 0.0
H73 H 0.1025 0.25598 0.18615 0.0
H74 H 0.13969 0.22858 0.23756 0.0
H75 H 0.99451 0.24776 0.60887 0.0
H76 H 0.02584 0.22457 0.70205 0.0
H77 H 0.98832 0.20335 0.64331 0.0
C78 C 0.28783 -0.001 0.34717 0.0
N79 N 0.32711 0.99402 0.34082 0.0
N80 N 0.26979 0.99359 0.46471 0.0
C81 C 0.26718 0.00925 0.23971 0.0
C82 C 0.29967 0.98483 0.52847 0.0
N83 N 0.33418 0.98502 0.45333 0.0
C84 C 0.29535 0.97671 0.66457 0.0
H85 H 0.24165 0.02515 0.26516 0.0
H86 H 0.25622 0.98671 0.20867 0.0
H87 H 0.28739 0.02265 0.1633 0.0
H88 H 0.26589 0.9661 0.70207 0.0
H89 H 0.29928 -0.00023 0.70498 0.0
H90 H 0.31787 0.9588 0.69195 0.0
C91 C 0.51521 0.29565 0.32521 0.0
N92 N 0.52202 0.3287 0.3172 0.0
N93 N 0.52529 0.27978 0.42991 0.0
C94 C 0.5004 0.27848 0.22971 0.0
C95 C 0.53888 0.30425 0.48459 0.0
N96 N 0.53743 0.33391 0.41529 0.0
C97 C 0.55314 0.2993 0.60616 0.0
H98 H 0.4789 0.25884 0.27324 0.0
H99 H 0.52544 0.26627 0.17889 0.0
H100 H 0.48673 0.29604 0.16452 0.0
H101 H 0.54427 0.2749 0.65819 0.0
H102 H 0.54182 0.31923 0.6608 0.0
H103 H 0.58566 0.30074 0.59164 0.0
C104 C 0.03807 0.93755 0.94382 0.0
N105 N 1.00821 0.95646 0.60271 0.0
C106 C 0.03471 0.9315 0.59189 0.0
C107 C 0.02642 0.90354 0.54108 0.0
C108 C 0.991 0.90115 0.4952 0.0
C109 C 0.96478 0.92808 0.50116 0.0
C110 C 0.97378 0.95547 0.55728 0.0
Zn111 Zn 0.02061 0.9872 0.72426 0.0
C112 C 0.9518 0.99588 0.91354 0.0
N113 N 0.05451 0.03506 0.00711 0.0
C114 C 0.09051 0.03453 0.04409 0.0
C115 C 0.02878 0.05993 0.02988 0.0
C116 C 0.03944 0.08637 0.08532 0.0
C117 C 0.07718 0.08772 0.11711 0.0
C118 C 0.10248 0.0608 0.10053 0.0
Zn119 Zn 0.03995 0.0056 0.88497 0.0
O120 O 0.02882 0.94334 0.83823 0.0
C121 C 0.10871 0.99699 0.69448 0.0
O122 O 0.04637 0.96142 0.99863 0.0
H123 H 1.00071 0.0606 0.99772 0.0
H124 H 0.06143 0.93181 0.63131 0.0
H125 H 0.11075 0.01475 0.02399 0.0
O126 O 0.08092 0.98853 0.64173 0.0
O127 O 0.10055 0.00507 0.80131 0.0
H128 H 0.95266 0.97514 0.56893 0.0
O129 O 0.03213 0.04906 0.77232 0.0
O130 O 1.01162 0.03253 0.61342 0.0
O131 O 0.97932 0.00562 0.96506 0.0
O132 O 0.96028 0.98646 0.80872 0.0
C133 C 0.02069 0.05599 0.66981 0.0
H134 H 0.04726 0.88343 0.54304 0.0
H135 H 0.93735 0.92783 0.46507 0.0
H136 H 0.01864 0.1062 0.09967 0.0
H137 H 0.13169 0.06085 0.12537 0.0
C138 C 0.47825 0.9869 0.64251 0.0
N139 N 0.52568 0.0748 0.71755 0.0
C140 C 0.52959 0.0834 0.595 0.0
C141 C 0.52844 0.1166 0.54533 0.0
C142 C 0.52327 0.14153 0.62202 0.0
C143 C 0.51906 0.13199 0.74847 0.0
C144 C 0.52039 0.09833 0.7945 0.0
Zn145 Zn 0.52821 0.02489 0.77874 0.0
C146 C 0.46399 0.00055 0.97553 0.0
N147 N 0.53356 0.91945 0.8787 0.0
C148 C 0.53117 0.8965 0.80146 0.0
C149 C 0.53588 0.9099 0.99841 0.0
C150 C 0.53614 0.87631 0.04432 0.0
C151 C 0.53289 0.85227 0.96727 0.0
C152 C 0.53033 0.86259 0.84446 0.0
Zn153 Zn 0.53132 0.9696 0.81953 0.0
O154 O 0.48975 0.01542 0.65789 0.0
C155 C 0.5955 0.99375 0.62301 0.0
O156 O 0.49191 0.96126 0.69866 0.0
H157 H 0.5369 0.92833 0.05939 0.0
H158 H 0.53362 0.06442 0.535 0.0
H159 H 0.52938 0.90446 0.70675 0.0
O160 O 0.5783 0.02071 0.64452 0.0
O161 O 0.58144 0.9665 0.68151 0.0
H162 H 0.51738 0.09102 0.89158 0.0
O163 O 0.57032 0.97926 0.93849 0.0
O164 O 0.56723 0.03351 0.90091 0.0
O165 O 0.48165 0.97366 0.95549 0.0
O166 O 0.47764 0.02777 0.91563 0.0
C167 C 0.58145 0.0078 0.95521 0.0
H168 H 0.53119 0.1226 0.44759 0.0
H169 H 0.51543 0.15035 0.81119 0.0
H170 H 0.53772 0.86919 0.13988 0.0
H171 H 0.52779 0.84459 0.78252 0.0
C172 C 0.54977 0.45258 0.62615 0.0
N173 N 0.44127 0.4945 0.7121 0.0
C174 C 0.44957 0.49729 0.58842 0.0
C175 C 0.42008 0.50022 0.51632 0.0
C176 C 0.38089 0.501 0.56987 0.0
C177 C 0.37237 0.49725 0.6979 0.0
C178 C 0.40331 0.49412 0.76798 0.0
Zn179 Zn 0.4924 0.49479 0.7901 0.0
C180 C 0.50888 0.44074 0.95778 0.0
N181 N 0.60883 0.49849 0.86212 0.0
C182 C 0.64645 0.50062 0.80342 0.0
C183 C 0.60136 0.49501 0.98596 0.0
C184 C 0.63154 0.49316 0.0555 0.0
C185 C 0.67051 0.49438 0.99884 0.0
C186 C 0.67804 0.49869 0.87069 0.0
Zn187 Zn 0.55754 0.4979 0.78636 0.0
O188 O 0.51576 0.46172 0.66858 0.0
C189 C 0.54093 0.55181 0.61865 0.0
O190 O 0.57966 0.46471 0.65999 0.0
H191 H 0.57162 0.49303 0.03291 0.0
H192 H 0.47951 0.49833 0.5432 0.0
H193 H 0.65199 0.5032 0.7052 0.0
O194 O 0.50897 0.53668 0.66195 0.0
O195 O 0.5727 0.54074 0.65388 0.0
H196 H 0.39704 0.49227 0.866 0.0
O197 O 0.53431 0.53065 0.9093 0.0
O198 O 0.47043 0.52835 0.91516 0.0
O199 O 0.54101 0.45566 0.91419 0.0
O200 O 0.47712 0.45217 0.92336 0.0
C201 C 0.5003 0.54013 0.95032 0.0
H202 H 0.42813 0.50243 0.41852 0.0
H203 H 0.34235 0.49786 0.74296 0.0
H204 H 0.62423 0.4905 0.15357 0.0
H205 H 0.70785 0.49962 0.82331 0.0
C206 C 0.06208 0.53084 0.54678 0.0
N207 N 0.05071 0.43228 0.7029 0.0
C208 C 0.04317 0.42978 0.5886 0.0
C209 C 0.04893 0.4001 0.53953 0.0
C210 C 0.06196 0.37219 0.60898 0.0
C211 C 0.07053 0.37547 0.72585 0.0
C212 C 0.06467 0.40599 0.77138 0.0
Zn213 Zn 0.03697 0.47697 0.76364 0.0
C214 C 0.10028 0.50901 0.85367 0.0
N215 N 1.00538 0.57391 0.8406 0.0
C216 C 0.98852 0.59849 0.77212 0.0
C217 C 0.01248 0.57766 0.95428 0.0
C218 C 1.00246 0.60683 0.00365 0.0
C219 C 0.98539 0.63286 0.93515 0.0
C220 C 0.97831 0.62841 0.81781 0.0
Zn221 Zn 0.02024 0.52932 0.7818 0.0
O222 O 0.0618 0.50059 0.59231 0.0
C223 C 0.95698 0.49704 0.69228 0.0
O224 O 0.0455 0.55224 0.60984 0.0
H225 H 0.02586 0.55786 0.00758 0.0
H226 H 0.03172 0.4507 0.53547 0.0
H227 H 0.9831 0.59494 0.68205 0.0
O228 O 0.98178 0.47392 0.7037 0.0
O229 O 0.96493 0.52554 0.71825 0.0
H230 H 0.07032 0.40847 0.86216 0.0
O231 O 0.99537 0.50585 0.95332 0.0
O232 O 1.01168 0.45417 0.93581 0.0
O233 O 0.07558 0.53232 0.84288 0.0
O234 O 0.09224 0.48061 0.82661 0.0
C235 C 0.99501 0.47558 0.99878 0.0
H236 H 0.0426 0.39896 0.44839 0.0
H237 H 0.08032 0.35445 0.78298 0.0
H238 H 1.00787 0.60883 0.09515 0.0
H239 H 0.96564 0.64797 0.76114 0.0
C240 C 0.21809 0.01553 0.61123 0.0
C241 C 0.22883 0.99699 0.51386 0.0
H242 H 0.17219 0.02955 0.74616 0.0
C243 C 0.19942 0.9797 0.47267 0.0
H244 H 0.24006 0.02958 0.64338 0.0
C245 C 0.16034 0.98014 0.53003 0.0
C246 C 0.14992 0.9975 0.63107 0.0
H247 H 0.2069 0.96499 0.39871 0.0
H248 H 0.13846 0.96611 0.49724 0.0
C249 C 0.17925 0.01548 0.67009 0.0
C250 C 0.54847 0.22268 0.41589 0.0
C251 C 0.52294 0.24488 0.47303 0.0
H252 H 0.56927 0.1728 0.41934 0.0
C253 C 0.49666 0.23303 0.57701 0.0
H254 H 0.56912 0.23155 0.3361 0.0
C255 C 0.49657 0.19952 0.62521 0.0
C256 C 0.5227 0.17716 0.56979 0.0
H257 H 0.47668 0.24994 0.62181 0.0
H258 H 0.47594 0.19112 0.7056 0.0
C259 C 0.54843 0.18915 0.46377 0.0
C260 C 0.28648 0.49479 0.43565 0.0
C261 C 0.29289 0.51907 0.33363 0.0
H262 H 0.30906 0.47021 0.59189 0.0
C263 C 0.32824 0.53685 0.30857 0.0
H264 H 0.25888 0.4813 0.45717 0.0
C265 C 0.35658 0.53097 0.38575 0.0
C266 C 0.35007 0.50714 0.48981 0.0
H267 H 0.33314 0.5562 0.23206 0.0
H268 H 0.38324 0.54578 0.36556 0.0
C269 C 0.31477 0.48892 0.51347 0.0
C270 C 0.03571 0.29947 0.45515 0.0
C271 C 0.06584 0.27724 0.47721 0.0
H272 H 1.0103 0.34654 0.48201 0.0
C273 C 0.09568 0.28642 0.53917 0.0
H274 H 1.01221 0.29234 0.40908 0.0
C275 C 0.09492 0.31746 0.581 0.0
C276 C 0.0642 0.33966 0.56131 0.0
H277 H 0.11883 0.26914 0.55796 0.0
H278 H 0.11815 0.32398 0.62924 0.0
C279 C 0.03479 0.33037 0.49692 0.0
C280 C 0.84224 0.97773 0.99298 0.0
C281 C 0.83109 0.99676 0.08863 0.0
H282 H 0.88868 0.96292 0.8615 0.0
C283 C 0.86027 0.01422 0.13029 0.0
H284 H 0.82044 0.96357 0.96053 0.0
C285 C 0.89956 0.01347 0.07495 0.0
C286 C 0.91043 0.99555 0.97562 0.0
H287 H 0.85246 0.02929 0.20304 0.0
H288 H 0.92124 0.02766 0.10793 0.0
C289 C 0.88131 0.97738 0.93632 0.0
C290 C 0.55947 0.76752 0.11574 0.0
C291 C 0.52605 0.74866 0.10941 0.0
H292 H 0.58765 0.8154 0.07637 0.0
C293 C 0.49478 0.76435 0.05782 0.0
H294 H 0.58419 0.75596 0.1534 0.0
C295 C 0.4973 0.79788 0.01013 0.0
C296 C 0.53072 0.81664 0.01612 0.0
H297 H 0.46841 0.75055 0.05387 0.0
H298 H 0.47292 0.80929 0.96992 0.0
C299 C 0.56159 0.80134 0.07078 0.0
C300 C 0.72779 0.46164 0.2528 0.0
C301 C 0.76183 0.48115 0.2244 0.0
H302 H 0.67274 0.44987 0.20176 0.0
C303 C 0.76574 0.50562 0.1229 0.0
H304 H 0.72485 0.44216 0.32902 0.0
C305 C 0.7363 0.50997 0.04871 0.0
C306 C 0.70236 0.48999 0.07556 0.0
H307 H 0.79233 0.52045 0.09889 0.0
H308 H 0.7401 0.52886 0.97055 0.0
C309 C 0.69831 0.46599 0.17922 0.0
C310 C 0.99369 0.70743 0.10158 0.0
C311 C 0.96018 0.72538 0.0779 0.0
H312 H 0.02855 0.66468 0.07232 0.0
C313 C 0.93431 0.71277 0.00933 0.0
H314 H 0.01431 0.71733 0.15221 0.0
C315 C 0.94212 0.68251 0.96374 0.0
C316 C 0.97613 0.6646 0.98554 0.0
H317 H 0.90852 0.72668 0.98957 0.0
H318 H 0.92159 0.6732 0.91143 0.0
C319 C 1.0017 0.67739 0.05565 0.0
C320 C 0.01765 0.13586 0.4543 0.0
C321 C 0.03314 0.15834 0.52108 0.0
H322 H 1.00218 0.08501 0.44749 0.0
C323 C 0.03999 0.14765 0.63926 0.0
H324 H 1.01195 0.14387 0.36278 0.0
C325 C 0.03359 0.1148 0.68827 0.0
C326 C 0.02107 0.0914 0.61912 0.0
H327 H 0.05236 0.16442 0.69157 0.0
H328 H 0.04047 0.10758 0.77907 0.0
C329 C 1.01208 0.10235 0.50253 0.0
C330 C 0.39504 0.01314 0.4705 0.0
C331 C 0.37256 0.98402 0.48872 0.0
H332 H 0.44692 0.03668 0.502 0.0
C333 C 0.38742 0.95453 0.54305 0.0
H334 H 0.38393 0.03596 0.42745 0.0
C335 C 0.42348 0.95472 0.5863 0.0
C336 C 0.44497 0.98448 0.57503 0.0
H337 H 0.37051 0.93174 0.55523 0.0
H338 H 0.4335 0.93205 0.63367 0.0
C339 C 0.431 0.0134 0.5129 0.0
C340 C 0.51435 0.38953 0.45051 0.0
C341 C 0.54429 0.36604 0.45021 0.0
H342 H 0.4937 0.43602 0.50018 0.0
C343 C 0.57945 0.37357 0.49141 0.0
H344 H 0.48689 0.3842 0.42059 0.0
C345 C 0.58319 0.40321 0.54108 0.0
C346 C 0.55188 0.42566 0.54848 0.0
H347 H 0.60332 0.356 0.48931 0.0
H348 H 0.60939 0.40759 0.57975 0.0
C349 C 0.51829 0.41913 0.49724 0.0
C350 C 0.14291 0.57475 0.32927 0.0
C351 C 0.15943 0.54733 0.27634 0.0
H352 H 0.09742 0.59119 0.46013 0.0
C353 C 0.137 0.51833 0.28611 0.0
H354 H 0.15952 0.59761 0.32005 0.0
C355 C 0.10105 0.51512 0.36085 0.0
C356 C 0.08788 0.54033 0.43133 0.0
H357 H 0.14917 0.49668 0.24781 0.0
H358 H 0.0862 0.49126 0.37522 0.0
C359 C 0.10727 0.57119 0.40798 0.0
C360 C 0.02618 0.84572 1.00179 0.0
C361 C 0.98787 0.84334 0.06596 0.0
H362 H 0.07326 0.87842 0.91371 0.0
C363 C 0.96941 0.87193 0.10382 0.0
H364 H 0.04138 0.82378 0.97487 0.0
C365 C 0.98873 0.90247 0.07755 0.0
C366 C 0.0263 0.90511 0.00901 0.0
H367 H 0.93986 0.87057 0.15305 0.0
H368 H 0.97309 0.92446 0.10268 0.0
C369 C 0.04494 0.87659 0.97099 0.0
C370 C 0.66455 0.98122 0.12745 0.0
C371 C 0.68743 0.01013 0.10846 0.0
H372 H 0.61232 0.95804 0.09686 0.0
C373 C 0.67292 0.03966 0.05307 0.0
H374 H 0.67534 0.95837 0.1713 0.0
C375 C 0.6368 0.03969 0.00991 0.0
C376 C 0.61488 0.01014 0.02229 0.0
H377 H 0.69011 0.06231 0.04027 0.0
H378 H 0.62705 0.06237 0.96183 0.0
C379 C 0.62856 0.98118 0.08512 0.0
C380 C 0.47232 0.62059 0.07628 0.0
C381 C 0.50689 0.62721 0.12241 0.0
H382 H 0.4424 0.58707 0.98594 0.0
C383 C 0.53579 0.60285 0.12742 0.0
H384 H 0.4494 0.639 0.0734 0.0
C385 C 0.53132 0.57311 0.08189 0.0
C386 C 0.49827 0.5673 0.02687 0.0
H387 H 0.5628 0.60746 0.16126 0.0
H388 H 0.5551 0.55544 0.08311 0.0
C389 C 0.46804 0.59079 0.02823 0.0
C390 C 0.91484 0.43074 0.21714 0.0
C391 C 0.89766 0.45794 0.27001 0.0
H392 H 0.96079 0.41485 0.0865 0.0
C393 C 0.91922 0.48744 0.25894 0.0
H394 H 0.89889 0.40752 0.22727 0.0
C395 C 0.95502 0.49123 0.18348 0.0
C396 C 0.96897 0.46604 0.11383 0.0
H397 H 0.90648 0.50891 0.29725 0.0
H398 H 0.96923 0.51538 0.16845 0.0
C399 C 0.95037 0.43483 0.138 0.0
C400 C 0.07914 0.17659 0.17543 0.0
C401 C 0.08977 0.1729 0.29189 0.0
H402 H 0.0677 0.15208 0.02657 0.0
C403 C 0.10534 0.14259 0.33776 0.0
H404 H 0.06717 0.19982 0.1388 0.0
C405 C 0.10473 0.1149 0.27543 0.0
C406 C 0.08903 0.11762 0.16605 0.0
H407 H 0.11386 0.1395 0.42762 0.0
H408 H 0.11297 0.09096 0.31818 0.0
C409 C 0.07892 0.14917 0.11257 0.0
C410 C 0.37859 0.96698 0.21287 0.0
C411 C 0.35719 0.99563 0.23567 0.0
H412 H 0.42875 0.94601 0.11477 0.0
C413 C 0.37048 0.02623 0.17046 0.0
H414 H 0.36936 0.94329 0.26437 0.0
C415 C 0.40504 0.02809 0.08529 0.0
C416 C 0.42702 -0.00065 0.06442 0.0
H417 H 0.35506 0.04878 0.18943 0.0
H418 H 0.4149 0.05206 0.03757 0.0
C419 C 0.4129 0.96873 0.12827 0.0
C420 C 0.48093 0.36369 0.18728 0.0
C421 C 0.51803 0.35396 0.21721 0.0
H422 H 0.44842 0.39912 0.08171 0.0
C423 C 0.55126 0.37198 0.15914 0.0
H424 H 0.45482 0.35037 0.23336 0.0
C425 C 0.54778 0.39963 0.07463 0.0
C426 C 0.51075 0.41027 0.04574 0.0
H427 H 0.57997 0.36505 0.1821 0.0
H428 H 0.57442 0.41302 0.03349 0.0
C429 C 0.47728 0.3917 0.10187 0.0
C430 C 0.17548 0.55336 0.98969 0.0
C431 C 0.19643 0.52694 0.0417 0.0
H432 H 0.12899 0.56849 0.88912 0.0
C433 C 0.18964 0.4947 0.01599 0.0
H434 H 0.18019 0.57833 0.009 0.0
C435 C 0.15982 0.48878 0.94817 0.0
C436 C 0.1365 0.51506 0.9052 0.0
H437 H 0.20492 0.47384 0.05718 0.0
H438 H 0.15343 0.46347 0.93624 0.0
C439 C 0.14591 0.54756 0.92225 0.0
C440 C 0.93577 0.83289 0.38431 0.0
C441 C 0.96678 0.81666 0.32068 0.0
H442 H 0.91884 0.87218 0.49118 0.0
C443 C 1.00544 0.82544 0.32728 0.0
H444 H 0.9057 0.82663 0.37836 0.0
C445 C 0.01316 0.85256 0.3845 0.0
C446 C 0.98225 0.87071 0.44173 0.0
H447 H 0.0296 0.81353 0.27633 0.0
H448 H 0.04346 0.86031 0.37663 0.0
C449 C 0.94342 0.85959 0.44532 0.0
C450 C 0.68064 0.02718 0.38474 0.0
C451 C 0.70205 -0.00148 0.36241 0.0
H452 H 0.63051 0.0482 0.48278 0.0
C453 C 0.68882 0.96795 0.42793 0.0
H454 H 0.68986 0.05084 0.333 0.0
C455 C 0.65429 0.96613 0.51316 0.0
C456 C 0.63235 0.99489 0.53383 0.0
H457 H 0.70428 0.9454 0.4093 0.0
H458 H 0.64448 0.94219 0.56125 0.0
C459 C 0.64639 0.02548 0.4695 0.0
C460 C 0.5675 0.63064 0.39735 0.0
C461 C 0.53089 0.6384 0.35968 0.0
H462 H 0.60001 0.59666 0.5084 0.0
C463 C 0.49832 0.6185 0.40994 0.0
H464 H 0.5931 0.64561 0.35798 0.0
C465 C 0.50213 0.59079 0.49369 0.0
C466 C 0.53879 0.58205 0.53002 0.0
H467 H 0.46998 0.62405 0.38159 0.0
H468 H 0.47606 0.5759 0.52853 0.0
C469 C 0.57149 0.60253 0.48195 0.0
C470 C 0.86714 0.50987 0.53163 0.0
C471 C 0.86096 0.47746 0.50664 0.0
H472 H 0.90292 0.54181 0.61004 0.0
C473 C 0.88249 0.45143 0.55832 0.0
H474 H 0.85131 0.53041 0.49065 0.0
C475 C 0.912 0.45779 0.62512 0.0
C476 C 0.92081 0.49049 0.6415 0.0
H477 H 0.87823 0.42634 0.53945 0.0
H478 H 0.92933 0.43714 0.65824 0.0
C479 C 0.89697 0.51638 0.59859 0.0
loop_
_geom_bond_atom_site_label_1
_geom_bond_atom_site_label_2
_geom_bond_distance
_geom_bond_site_symmetry_2
_ccdc_geom_bond_type
C0 N1 1.317 . S
C0 N2 1.348 . S
C0 C3 1.485 . S
N1 C0 1.317 . S
N1 N5 1.370 . S
N2 C0 1.348 . S
N2 C4 1.346 . S
C3 C0 1.485 . S
C3 H7 0.960 . S
C3 H8 0.961 . S
C3 H9 0.960 . S
C4 N2 1.346 . S
C4 N5 1.307 . S
C4 C6 1.486 1_554 S
N5 N1 1.370 . S
N5 C4 1.307 . S
C6 C4 1.486 1_556 S
C6 H10 0.960 . S
C6 H11 0.960 . S
C6 H12 0.959 . S
H7 C3 0.960 . S
H8 C3 0.961 . S
H9 C3 0.960 . S
H10 C6 0.960 . S
H11 C6 0.960 . S
H12 C6 0.959 . S
C13 N14 1.317 . S
C13 N15 1.348 1_554 S
C13 C16 1.485 . S
N14 C13 1.317 . S
N14 N18 1.370 1_554 S
N15 C13 1.348 1_556 S
N15 C17 1.346 . S
C16 C13 1.485 . S
C16 H20 0.960 . S
C16 H21 0.961 . S
C16 H22 0.960 . S
C17 N15 1.346 . S
C17 N18 1.307 . S
C17 C19 1.486 . S
N18 N14 1.370 1_556 S
N18 C17 1.307 . S
C19 C17 1.486 . S
C19 H23 0.960 . S
C19 H24 0.960 . S
C19 H25 0.959 . S
H20 C16 0.960 . S
H21 C16 0.961 . S
H22 C16 0.960 . S
H23 C19 0.960 . S
H24 C19 0.960 . S
H25 C19 0.959 . S
C26 N27 1.317 . S
C26 N28 1.348 . S
C26 C29 1.485 . S
N27 C26 1.317 . S
N27 N31 1.369 . S
N28 C26 1.348 . S
N28 C30 1.346 1_565 S
C29 C26 1.485 . S
C29 H33 0.960 1_565 S
C29 H34 0.961 . S
C29 H35 0.960 . S
C30 N28 1.346 1_545 S
C30 N31 1.308 1_545 S
C30 C32 1.486 1_554 S
N31 N27 1.369 . S
N31 C30 1.308 1_565 S
C32 C30 1.486 1_556 S
C32 H36 0.960 1_545 S
C32 H37 0.960 . S
C32 H38 0.959 . S
H33 C29 0.960 1_545 S
H34 C29 0.961 . S
H35 C29 0.960 . S
H36 C32 0.960 1_565 S
H37 C32 0.960 . S
H38 C32 0.959 . S
C39 N40 1.317 . S
C39 N41 1.348 . S
C39 C42 1.485 . S
N40 C39 1.317 . S
N40 N44 1.370 . S
N41 C39 1.348 . S
N41 C43 1.346 . S
C42 C39 1.485 . S
C42 H46 0.960 . S
C42 H47 0.961 . S
C42 H48 0.960 . S
C43 N41 1.346 . S
C43 N44 1.307 . S
C43 C45 1.486 1_554 S
N44 N40 1.370 . S
N44 C43 1.307 . S
C45 C43 1.486 1_556 S
C45 H49 0.960 . S
C45 H50 0.960 . S
C45 H51 0.959 . S
H46 C42 0.960 . S
H47 C42 0.961 . S
H48 C42 0.960 . S
H49 C45 0.960 . S
H50 C45 0.960 . S
H51 C45 0.959 . S
C52 N53 1.317 . S
C52 N54 1.348 . S
C52 C55 1.485 . S
N53 C52 1.317 . S
N53 N57 1.370 . S
N54 C52 1.348 . S
N54 C56 1.346 . S
C55 C52 1.485 . S
C55 H59 0.960 . S
C55 H60 0.961 . S
C55 H61 0.960 . S
C56 N54 1.346 . S
C56 N57 1.307 . S
C56 C58 1.486 . S
N57 N53 1.370 . S
N57 C56 1.307 . S
C58 C56 1.486 . S
C58 H62 0.960 . S
C58 H63 0.960 . S
C58 H64 0.959 . S
H59 C55 0.960 . S
H60 C55 0.961 . S
H61 C55 0.960 . S
H62 C58 0.960 . S
H63 C58 0.960 . S
H64 C58 0.959 . S
C65 N66 1.317 . S
C65 N67 1.348 . S
C65 C68 1.485 . S
N66 C65 1.317 . S
N66 N70 1.370 . S
N67 C65 1.348 . S
N67 C69 1.346 . S
C68 C65 1.485 . S
C68 H72 0.960 . S
C68 H73 0.961 . S
C68 H74 0.960 . S
C69 N67 1.346 . S
C69 N70 1.307 . S
C69 C71 1.486 . S
N70 N66 1.370 . S
N70 C69 1.307 . S
C71 C69 1.486 . S
C71 H75 0.960 . S
C71 H76 0.960 . S
C71 H77 0.959 . S
H72 C68 0.960 . S
H73 C68 0.961 . S
H74 C68 0.960 . S
H75 C71 0.960 . S
H76 C71 0.960 . S
H77 C71 0.959 . S
C78 N79 1.317 . S
C78 N80 1.353 . S
C78 C81 1.485 . S
N79 C78 1.317 . S
N79 N83 1.371 . S
N80 C78 1.353 . S
N80 C82 1.342 1_565 S
C81 C78 1.485 . S
C81 H85 0.960 1_565 S
C81 H86 0.961 . S
C81 H87 0.960 . S
C82 N80 1.342 1_545 S
C82 N83 1.306 1_545 S
C82 C84 1.488 . S
N83 N79 1.371 . S
N83 C82 1.306 1_565 S
C84 C82 1.488 . S
C84 H88 0.960 1_545 S
C84 H89 0.960 . S
C84 H90 0.959 . S
H85 C81 0.960 1_545 S
H86 C81 0.961 . S
H87 C81 0.960 . S
H88 C84 0.960 1_565 S
H89 C84 0.960 . S
H90 C84 0.959 . S
C91 N92 1.317 . S
C91 N93 1.348 . S
C91 C94 1.485 . S
N92 C91 1.317 . S
N92 N96 1.370 . S
N93 C91 1.348 . S
N93 C95 1.346 . S
C94 C91 1.485 . S
C94 H98 0.960 . S
C94 H99 0.961 . S
C94 H100 0.960 . S
C95 N93 1.346 . S
C95 N96 1.307 . S
C95 C97 1.486 . S
N96 N92 1.370 . S
N96 C95 1.307 . S
C97 C95 1.486 . S
C97 H101 0.960 . S
C97 H102 0.960 . S
C97 H103 0.959 . S
H98 C94 0.960 . S
H99 C94 0.961 . S
H100 C94 0.960 . S
H101 C97 0.960 . S
H102 C97 0.960 . S
H103 C97 0.959 . S
C104 O120 1.251 . S
C104 O122 1.254 . S
N105 C106 1.333 1_655 S
N105 C110 1.307 . S
N105 Zn111 2.020 1_655 S
C106 N105 1.333 1_455 S
C106 C107 1.385 . S
C106 H124 0.952 . S
C107 C106 1.385 . S
C107 C108 1.378 1_455 S
C107 H134 0.955 . S
C108 C107 1.378 1_655 S
C108 C109 1.357 . S
C109 C108 1.357 . S
C109 C110 1.370 . S
C109 H135 0.950 . S
C110 N105 1.307 . S
C110 C109 1.370 . S
C110 H128 0.948 1_565 S
Zn111 N105 2.020 1_455 S
Zn111 O120 2.039 . S
Zn111 O126 2.034 . S
Zn111 O130 2.025 1_565 S
Zn111 O132 2.024 1_455 S
C112 O131 1.246 . S
C112 O132 1.249 1_545 S
N113 C114 1.307 . S
N113 C115 1.333 . S
N113 Zn119 2.020 1_554 S
C114 N113 1.307 . S
C114 C118 1.370 . S
C114 H125 0.948 1_545 S
C115 N113 1.333 . S
C115 C116 1.379 . S
C115 H123 0.952 1_554 S
C116 C115 1.379 . S
C116 C117 1.390 . S
C116 H136 0.949 . S
C117 C116 1.390 . S
C117 C118 1.357 . S
C118 C114 1.370 . S
C118 C117 1.357 . S
C118 H137 0.950 . S
Zn119 N113 2.020 1_556 S
Zn119 O122 2.025 1_545 S
Zn119 O127 2.024 . S
Zn119 O129 2.039 . S
Zn119 O131 2.034 1_455 S
O120 C104 1.251 . S
O120 Zn111 2.039 . S
C121 O126 1.246 . S
C121 O127 1.249 1_565 S
O122 C104 1.254 . S
O122 Zn119 2.025 1_565 S
H123 C115 0.952 1_556 S
H124 C106 0.952 . S
H125 C114 0.948 1_565 S
O126 Zn111 2.034 . S
O126 C121 1.246 . S
O127 Zn119 2.024 . S
O127 C121 1.249 1_545 S
H128 C110 0.948 1_545 S
O129 Zn119 2.039 . S
O129 C133 1.251 . S
O130 Zn111 2.025 1_545 S
O130 C133 1.254 . S
O131 C112 1.246 . S
O131 Zn119 2.034 1_655 S
O132 Zn111 2.024 1_655 S
O132 C112 1.249 1_565 S
C133 O129 1.251 . S
C133 O130 1.254 . S
H134 C107 0.955 . S
H135 C109 0.950 . S
H136 C116 0.949 . S
H137 C118 0.950 . S
C138 O154 1.251 1_565 S
C138 O156 1.254 . S
N139 C140 1.333 . S
N139 C144 1.307 . S
N139 Zn145 2.020 . S
C140 N139 1.333 . S
C140 C141 1.379 . S
C140 H158 0.952 . S
C141 C140 1.379 . S
C141 C142 1.390 . S
C141 H168 0.949 . S
C142 C141 1.390 . S
C142 C143 1.357 . S
C143 C142 1.357 . S
C143 C144 1.370 . S
C143 H169 0.950 . S
C144 N139 1.307 . S
C144 C143 1.370 . S
C144 H162 0.948 . S
Zn145 N139 2.020 . S
Zn145 O154 2.039 . S
Zn145 O160 2.034 . S
Zn145 O164 2.025 . S
Zn145 O166 2.024 . S
C146 O165 1.246 1_545 S
C146 O166 1.249 . S
N147 C148 1.307 . S
N147 C149 1.333 . S
N147 Zn153 2.020 . S
C148 N147 1.307 . S
C148 C152 1.370 . S
C148 H159 0.948 . S
C149 N147 1.333 . S
C149 C150 1.379 . S
C149 H157 0.954 . S
C150 C149 1.379 . S
C150 C151 1.390 . S
C150 H170 0.949 1_556 S
C151 C150 1.390 . S
C151 C152 1.357 . S
C152 C148 1.370 . S
C152 C151 1.357 . S
C152 H171 0.950 . S
Zn153 N147 2.020 . S
Zn153 O156 2.025 . S
Zn153 O161 2.024 . S
Zn153 O163 2.039 . S
Zn153 O165 2.034 . S
O154 C138 1.251 1_545 S
O154 Zn145 2.039 . S
C155 O160 1.246 1_565 S
C155 O161 1.249 . S
O156 C138 1.254 . S
O156 Zn153 2.025 . S
H157 C149 0.954 . S
H158 C140 0.952 . S
H159 C148 0.948 . S
O160 Zn145 2.034 . S
O160 C155 1.246 1_545 S
O161 Zn153 2.024 . S
O161 C155 1.249 . S
H162 C144 0.948 . S
O163 Zn153 2.039 . S
O163 C167 1.251 1_565 S
O164 Zn145 2.025 . S
O164 C167 1.254 . S
O165 C146 1.246 1_565 S
O165 Zn153 2.034 . S
O166 Zn145 2.024 . S
O166 C146 1.249 . S
C167 O163 1.251 1_545 S
C167 O164 1.254 . S
H168 C141 0.949 . S
H169 C143 0.950 . S
H170 C150 0.949 1_554 S
H171 C152 0.950 . S
C172 O188 1.251 . S
C172 O190 1.254 . S
N173 C174 1.333 . S
N173 C178 1.307 . S
N173 Zn179 2.020 . S
C174 N173 1.333 . S
C174 C175 1.379 . S
C174 H192 0.952 . S
C175 C174 1.379 . S
C175 C176 1.390 . S
C175 H202 0.949 . S
C176 C175 1.390 . S
C176 C177 1.357 . S
C177 C176 1.357 . S
C177 C178 1.370 . S
C177 H203 0.950 . S
C178 N173 1.307 . S
C178 C177 1.370 . S
C178 H196 0.948 . S
Zn179 N173 2.020 . S
Zn179 O188 2.039 . S
Zn179 O194 2.034 . S
Zn179 O198 2.025 . S
Zn179 O200 2.024 . S
C180 O199 1.246 . S
C180 O200 1.249 . S
N181 C182 1.307 . S
N181 C183 1.333 . S
N181 Zn187 2.020 . S
C182 N181 1.307 . S
C182 C186 1.370 . S
C182 H193 0.948 . S
C183 N181 1.333 . S
C183 C184 1.379 . S
C183 H191 0.952 . S
C184 C183 1.379 . S
C184 C185 1.390 . S
C184 H204 0.949 1_556 S
C185 C184 1.390 . S
C185 C186 1.357 . S
C186 C182 1.370 . S
C186 C185 1.357 . S
C186 H205 0.950 . S
Zn187 N181 2.020 . S
Zn187 O190 2.025 . S
Zn187 O195 2.024 . S
Zn187 O197 2.039 . S
Zn187 O199 2.034 . S
O188 C172 1.251 . S
O188 Zn179 2.039 . S
C189 O194 1.246 . S
C189 O195 1.249 . S
O190 C172 1.254 . S
O190 Zn187 2.025 . S
H191 C183 0.952 . S
H192 C174 0.952 . S
H193 C182 0.948 . S
O194 Zn179 2.034 . S
O194 C189 1.246 . S
O195 Zn187 2.024 . S
O195 C189 1.249 . S
H196 C178 0.948 . S
O197 Zn187 2.039 . S
O197 C201 1.251 . S
O198 Zn179 2.025 . S
O198 C201 1.254 . S
O199 C180 1.246 . S
O199 Zn187 2.034 . S
O200 Zn179 2.024 . S
O200 C180 1.249 . S
C201 O197 1.251 . S
C201 O198 1.254 . S
H202 C175 0.949 . S
H203 C177 0.950 . S
H204 C184 0.949 1_554 S
H205 C186 0.950 . S
C206 O222 1.251 . S
C206 O224 1.254 . S
N207 C208 1.333 . S
N207 C212 1.307 . S
N207 Zn213 2.020 . S
C208 N207 1.333 . S
C208 C209 1.379 . S
C208 H226 0.952 . S
C209 C208 1.379 . S
C209 C210 1.390 . S
C209 H236 0.949 . S
C210 C209 1.390 . S
C210 C211 1.357 . S
C211 C210 1.357 . S
C211 C212 1.370 . S
C211 H237 0.950 . S
C212 N207 1.307 . S
C212 C211 1.370 . S
C212 H230 0.948 1_455 S
Zn213 N207 2.020 . S
Zn213 O222 2.039 . S
Zn213 O228 2.034 1_455 S
Zn213 O232 2.025 1_455 S
Zn213 O234 2.024 . S
C214 O233 1.246 . S
C214 O234 1.249 . S
N215 C216 1.307 . S
N215 C217 1.333 1_455 S
N215 Zn221 2.020 . S
C216 N215 1.307 . S
C216 C220 1.370 . S
C216 H227 0.948 . S
C217 N215 1.333 1_655 S
C217 C218 1.379 . S
C217 H225 0.952 . S
C218 C217 1.379 . S
C218 C219 1.384 1_655 S
C218 H238 0.949 . S
C219 C218 1.384 1_455 S
C219 C220 1.363 . S
C220 C216 1.370 . S
C220 C219 1.363 . S
C220 H239 0.950 . S
Zn221 N215 2.020 . S
Zn221 O224 2.025 . S
Zn221 O229 2.024 1_455 S
Zn221 O231 2.039 1_455 S
Zn221 O233 2.034 . S
O222 C206 1.251 . S
O222 Zn213 2.039 . S
C223 O228 1.246 . S
C223 O229 1.249 . S
O224 C206 1.254 . S
O224 Zn221 2.025 . S
H225 C217 0.952 . S
H226 C208 0.952 . S
H227 C216 0.948 . S
O228 Zn213 2.034 1_655 S
O228 C223 1.246 . S
O229 Zn221 2.024 1_655 S
O229 C223 1.249 . S
H230 C212 0.948 1_655 S
O231 Zn221 2.039 1_655 S
O231 C235 1.251 . S
O232 Zn213 2.025 1_655 S
O232 C235 1.254 . S
O233 C214 1.246 . S
O233 Zn221 2.034 . S
O234 Zn213 2.024 . S
O234 C214 1.249 . S
C235 O231 1.251 . S
C235 O232 1.254 . S
H236 C209 0.949 . S
H237 C211 0.950 . S
H238 C218 0.949 . S
H239 C220 0.950 . S
C240 C241 1.357 1_545 S
C240 H244 0.950 . S
C240 C249 1.390 . S
C241 C240 1.357 1_565 S
C241 C243 1.418 . S
H242 C249 0.950 . S
C243 C241 1.418 . S
C243 C245 1.390 . S
C243 H247 0.950 . S
H244 C240 0.950 . S
C245 C243 1.390 . S
C245 C246 1.387 . S
C245 H248 0.950 . S
C246 C245 1.387 . S
C246 C249 1.387 1_565 S
H247 C243 0.950 . S
H248 C245 0.950 . S
C249 C240 1.390 . S
C249 H242 0.950 . S
C249 C246 1.387 1_545 S
C250 C251 1.387 . S
C250 H254 0.950 . S
C250 C259 1.390 . S
C251 C250 1.387 . S
C251 C253 1.387 . S
H252 C259 0.950 . S
C253 C251 1.387 . S
C253 C255 1.390 . S
C253 H257 0.950 . S
H254 C250 0.950 . S
C255 C253 1.390 . S
C255 C256 1.387 . S
C255 H258 0.950 . S
C256 C255 1.387 . S
C256 C259 1.387 . S
H257 C253 0.950 . S
H258 C255 0.950 . S
C259 C250 1.390 . S
C259 H252 0.950 . S
C259 C256 1.387 . S
C260 C261 1.387 . S
C260 H264 0.950 . S
C260 C269 1.390 . S
C261 C260 1.387 . S
C261 C263 1.387 . S
H262 C269 0.950 . S
C263 C261 1.387 . S
C263 C265 1.390 . S
C263 H267 0.950 . S
H264 C260 0.950 . S
C265 C263 1.390 . S
C265 C266 1.387 . S
C265 H268 0.950 . S
C266 C265 1.387 . S
C266 C269 1.387 . S
H267 C263 0.950 . S
H268 C265 0.950 . S
C269 C260 1.390 . S
C269 H262 0.950 . S
C269 C266 1.387 . S
C270 C271 1.387 . S
C270 H274 0.950 . S
C270 C279 1.390 . S
C271 C270 1.387 . S
C271 C273 1.387 . S
H272 C279 0.950 . S
C273 C271 1.387 . S
C273 C275 1.390 . S
C273 H277 0.950 . S
H274 C270 0.950 . S
C275 C273 1.390 . S
C275 C276 1.387 . S
C275 H278 0.950 . S
C276 C275 1.387 . S
C276 C279 1.387 . S
H277 C273 0.950 . S
H278 C275 0.950 . S
C279 C270 1.390 . S
C279 H272 0.950 . S
C279 C276 1.387 . S
C280 C281 1.387 1_565 S
C280 H284 0.950 . S
C280 C289 1.390 1_554 S
C281 C280 1.387 1_545 S
C281 C283 1.387 . S
H282 C289 0.950 . S
C283 C281 1.387 . S
C283 C285 1.390 1_554 S
C283 H287 0.950 . S
H284 C280 0.950 . S
C285 C283 1.390 1_556 S
C285 C286 1.387 . S
C285 H288 0.950 . S
C286 C285 1.387 . S
C286 C289 1.387 1_545 S
H287 C283 0.950 . S
H288 C285 0.950 . S
C289 C280 1.390 1_556 S
C289 H282 0.950 . S
C289 C286 1.387 1_565 S
C290 C291 1.387 . S
C290 H294 0.950 . S
C290 C299 1.390 . S
C291 C290 1.387 . S
C291 C293 1.387 1_554 S
H292 C299 0.950 . S
C293 C291 1.387 1_556 S
C293 C295 1.390 . S
C293 H297 0.950 . S
H294 C290 0.950 . S
C295 C293 1.390 . S
C295 C296 1.387 . S
C295 H298 0.950 . S
C296 C295 1.387 . S
C296 C299 1.387 1_556 S
H297 C293 0.950 . S
H298 C295 0.950 . S
C299 C290 1.390 . S
C299 H292 0.950 . S
C299 C296 1.387 1_554 S
C300 C301 1.387 . S
C300 H304 0.950 . S
C300 C309 1.390 . S
C301 C300 1.387 . S
C301 C303 1.387 . S
H302 C309 0.950 1_556 S
C303 C301 1.387 . S
C303 C305 1.390 1_554 S
C303 H307 0.950 . S
H304 C300 0.950 . S
C305 C303 1.390 1_556 S
C305 C306 1.387 . S
C305 H308 0.950 . S
C306 C305 1.387 . S
C306 C309 1.387 1_556 S
H307 C303 0.950 . S
H308 C305 0.950 . S
C309 C300 1.390 . S
C309 H302 0.950 1_554 S
C309 C306 1.387 1_554 S
C310 C311 1.387 1_455 S
C310 H314 0.950 . S
C310 C319 1.390 . S
C311 C310 1.387 1_655 S
C311 C313 1.387 . S
H312 C319 0.950 . S
C313 C311 1.387 . S
C313 C315 1.390 . S
C313 H317 0.950 . S
H314 C310 0.950 . S
C315 C313 1.390 . S
C315 C316 1.387 . S
C315 H318 0.950 . S
C316 C315 1.387 . S
C316 C319 1.387 1_655 S
H317 C313 0.950 . S
H318 C315 0.950 . S
C319 C310 1.390 . S
C319 H312 0.950 . S
C319 C316 1.387 1_455 S
C320 C321 1.387 . S
C320 H324 0.950 . S
C320 C329 1.390 . S
C321 C320 1.387 . S
C321 C323 1.387 . S
H322 C329 0.950 . S
C323 C321 1.387 . S
C323 C325 1.390 . S
C323 H327 0.950 . S
H324 C320 0.950 . S
C325 C323 1.390 . S
C325 C326 1.387 . S
C325 H328 0.950 . S
C326 C325 1.387 . S
C326 C329 1.387 . S
H327 C323 0.950 . S
H328 C325 0.950 . S
C329 C320 1.390 . S
C329 H322 0.950 . S
C329 C326 1.387 . S
C330 C331 1.373 1_545 S
C330 H334 0.950 . S
C330 C339 1.390 . S
C331 C330 1.373 1_565 S
C331 C333 1.401 . S
H332 C339 0.950 . S
C333 C331 1.401 . S
C333 C335 1.390 . S
C333 H337 0.950 . S
H334 C330 0.950 . S
C335 C333 1.390 . S
C335 C336 1.387 . S
C335 H338 0.950 . S
C336 C335 1.387 . S
C336 C339 1.387 1_565 S
H337 C333 0.950 . S
H338 C335 0.950 . S
C339 C330 1.390 . S
C339 H332 0.950 . S
C339 C336 1.387 1_545 S
C340 C341 1.387 . S
C340 H344 0.950 . S
C340 C349 1.390 . S
C341 C340 1.387 . S
C341 C343 1.387 . S
H342 C349 0.950 . S
C343 C341 1.387 . S
C343 C345 1.390 . S
C343 H347 0.950 . S
H344 C340 0.950 . S
C345 C343 1.390 . S
C345 C346 1.387 . S
C345 H348 0.950 . S
C346 C345 1.387 . S
C346 C349 1.387 . S
H347 C343 0.950 . S
H348 C345 0.950 . S
C349 C340 1.390 . S
C349 H342 0.950 . S
C349 C346 1.387 . S
C350 C351 1.387 . S
C350 H354 0.950 . S
C350 C359 1.390 . S
C351 C350 1.387 . S
C351 C353 1.387 . S
H352 C359 0.950 . S
C353 C351 1.387 . S
C353 C355 1.390 . S
C353 H357 0.950 . S
H354 C350 0.950 . S
C355 C353 1.390 . S
C355 C356 1.387 . S
C355 H358 0.950 . S
C356 C355 1.387 . S
C356 C359 1.387 . S
H357 C353 0.950 . S
H358 C355 0.950 . S
C359 C350 1.390 . S
C359 H352 0.950 . S
C359 C356 1.387 . S
C360 C361 1.387 . S
C360 H364 0.950 . S
C360 C369 1.390 1_655 S
C361 C360 1.387 . S
C361 C363 1.387 1_556 S
H362 C369 0.950 . S
C363 C361 1.387 1_554 S
C363 C365 1.390 . S
C363 H367 0.950 . S
H364 C360 0.950 . S
C365 C363 1.390 . S
C365 C366 1.387 1_654 S
C365 H368 0.950 . S
C366 C365 1.387 1_456 S
C366 C369 1.387 . S
H367 C363 0.950 . S
H368 C365 0.950 . S
C369 C360 1.390 1_455 S
C369 H362 0.950 . S
C369 C366 1.387 . S
C370 C371 1.367 1_565 S
C370 H374 0.950 . S
C370 C379 1.392 . S
C371 C370 1.367 1_545 S
C371 C373 1.408 . S
H372 C379 0.949 1_556 S
C373 C371 1.408 . S
C373 C375 1.390 1_554 S
C373 H377 0.950 . S
H374 C370 0.950 . S
C375 C373 1.390 1_556 S
C375 C376 1.387 . S
C375 H378 0.950 . S
C376 C375 1.387 . S
C376 C379 1.387 1_546 S
H377 C373 0.950 . S
H378 C375 0.950 . S
C379 C370 1.392 . S
C379 H372 0.949 1_554 S
C379 C376 1.387 1_564 S
C380 C381 1.387 . S
C380 H384 0.950 . S
C380 C389 1.390 . S
C381 C380 1.387 . S
C381 C383 1.387 1_554 S
H382 C389 0.950 . S
C383 C381 1.387 1_556 S
C383 C385 1.390 . S
C383 H387 0.950 . S
H384 C380 0.950 . S
C385 C383 1.390 . S
C385 C386 1.387 . S
C385 H388 0.950 . S
C386 C385 1.387 . S
C386 C389 1.387 1_556 S
H387 C383 0.950 . S
H388 C385 0.950 . S
C389 C380 1.390 . S
C389 H382 0.950 . S
C389 C386 1.387 1_554 S
C390 C391 1.387 . S
C390 H394 0.950 . S
C390 C399 1.390 . S
C391 C390 1.387 . S
C391 C393 1.387 . S
H392 C399 0.950 . S
C393 C391 1.387 . S
C393 C395 1.390 . S
C393 H397 0.950 . S
H394 C390 0.950 . S
C395 C393 1.390 . S
C395 C396 1.387 1_554 S
C395 H398 0.950 1_554 S
C396 C395 1.387 1_556 S
C396 C399 1.387 1_556 S
H397 C393 0.950 . S
H398 C395 0.950 1_556 S
C399 C390 1.390 . S
C399 H392 0.950 . S
C399 C396 1.387 1_554 S
C400 C401 1.387 . S
C400 H404 0.950 . S
C400 C409 1.390 . S
C401 C400 1.387 . S
C401 C403 1.387 . S
H402 C409 0.950 . S
C403 C401 1.387 . S
C403 C405 1.390 . S
C403 H407 0.950 . S
H404 C400 0.950 . S
C405 C403 1.390 . S
C405 C406 1.387 . S
C405 H408 0.950 . S
C406 C405 1.387 . S
C406 C409 1.387 . S
H407 C403 0.950 . S
H408 C405 0.950 . S
C409 C400 1.390 . S
C409 H402 0.950 . S
C409 C406 1.387 . S
C410 C411 1.360 1_565 S
C410 H414 0.950 . S
C410 C419 1.390 . S
C411 C410 1.360 1_545 S
C411 C413 1.414 . S
H412 C419 0.950 . S
C413 C411 1.414 . S
C413 C415 1.390 . S
C413 H417 0.950 . S
H414 C410 0.950 . S
C415 C413 1.390 . S
C415 C416 1.387 . S
C415 H418 0.950 . S
C416 C415 1.387 . S
C416 C419 1.387 1_545 S
H417 C413 0.950 . S
H418 C415 0.950 . S
C419 C410 1.390 . S
C419 H412 0.950 . S
C419 C416 1.387 1_565 S
C420 C421 1.387 . S
C420 H424 0.950 . S
C420 C429 1.390 . S
C421 C420 1.387 . S
C421 C423 1.387 . S
H422 C429 0.950 . S
C423 C421 1.387 . S
C423 C425 1.390 . S
C423 H427 0.950 . S
H424 C420 0.950 . S
C425 C423 1.390 . S
C425 C426 1.387 . S
C425 H428 0.950 . S
C426 C425 1.387 . S
C426 C429 1.387 . S
H427 C423 0.950 . S
H428 C425 0.950 . S
C429 C420 1.390 . S
C429 H422 0.950 . S
C429 C426 1.387 . S
C430 C431 1.387 . S
C430 H434 0.950 . S
C430 C439 1.390 . S
C431 C430 1.387 . S
C431 C433 1.387 . S
H432 C439 0.950 . S
C433 C431 1.387 . S
C433 C435 1.390 . S
C433 H437 0.950 . S
H434 C430 0.950 . S
C435 C433 1.390 . S
C435 C436 1.387 . S
C435 H438 0.950 . S
C436 C435 1.387 . S
C436 C439 1.387 . S
H437 C433 0.950 . S
H438 C435 0.950 . S
C439 C430 1.390 . S
C439 H432 0.950 . S
C439 C436 1.387 . S
C440 C441 1.387 . S
C440 H444 0.950 . S
C440 C449 1.390 . S
C441 C440 1.387 . S
C441 C443 1.387 . S
H442 C449 0.950 . S
C443 C441 1.387 . S
C443 C445 1.390 1_655 S
C443 H447 0.950 1_655 S
H444 C440 0.950 . S
C445 C443 1.390 1_455 S
C445 C446 1.387 1_455 S
C445 H448 0.950 . S
C446 C445 1.387 1_655 S
C446 C449 1.387 . S
H447 C443 0.950 1_455 S
H448 C445 0.950 . S
C449 C440 1.390 . S
C449 H442 0.950 . S
C449 C446 1.387 . S
C450 C451 1.366 1_545 S
C450 H454 0.950 . S
C450 C459 1.390 . S
C451 C450 1.366 1_565 S
C451 C453 1.408 . S
H452 C459 0.950 . S
C453 C451 1.408 . S
C453 C455 1.390 . S
C453 H457 0.950 . S
H454 C450 0.950 . S
C455 C453 1.390 . S
C455 C456 1.387 . S
C455 H458 0.950 . S
C456 C455 1.387 . S
C456 C459 1.387 1_565 S
H457 C453 0.950 . S
H458 C455 0.950 . S
C459 C450 1.390 . S
C459 H452 0.950 . S
C459 C456 1.387 1_545 S
C460 C461 1.387 . S
C460 H464 0.950 . S
C460 C469 1.390 . S
C461 C460 1.387 . S
C461 C463 1.387 . S
H462 C469 0.950 . S
C463 C461 1.387 . S
C463 C465 1.390 . S
C463 H467 0.950 . S
H464 C460 0.950 . S
C465 C463 1.390 . S
C465 C466 1.387 . S
C465 H468 0.950 . S
C466 C465 1.387 . S
C466 C469 1.387 . S
H467 C463 0.950 . S
H468 C465 0.950 . S
C469 C460 1.390 . S
C469 H462 0.950 . S
C469 C466 1.387 . S
C470 C471 1.387 . S
C470 H474 0.950 . S
C470 C479 1.390 . S
C471 C470 1.387 . S
C471 C473 1.387 . S
H472 C479 0.950 . S
C473 C471 1.387 . S
C473 C475 1.390 . S
C473 H477 0.950 . S
H474 C470 0.950 . S
C475 C473 1.390 . S
C475 C476 1.387 . S
C475 H478 0.950 . S
C476 C475 1.387 . S
C476 C479 1.387 . S
H477 C473 0.950 . S
H478 C475 0.950 . S
C479 C470 1.390 . S
C479 H472 0.950 . S
C479 C476 1.387 . S
C241 N80 1.888 . S
C246 C121 1.897 . S
C256 C142 1.534 . S
C251 N93 1.524 . S
C266 C176 1.483 . S
C261 N54 1.473 . S
C276 C210 1.545 . S
C271 N67 1.539 . S
C286 C112 1.898 . S
C281 N28 1.891 1_545 S
C291 N41 1.531 . S
C296 C151 1.538 . S
C301 N2 1.473 . S
C306 C185 1.482 . S
C311 N15 1.546 . S
C316 C219 1.541 1_655 S
C326 C133 0.848 . S
C321 N70 0.840 . S
C336 C138 1.284 . S
C331 N83 1.289 . S
C346 C172 1.193 . S
C341 N96 1.197 . S
C351 N57 0.660 . S
C356 C206 0.657 . S
C361 N18 0.844 . S
C366 C104 0.851 . S
C376 C167 1.284 . S
C371 N31 1.290 1_545 S
C386 C201 1.193 . S
C381 N44 1.200 . S
C391 N5 0.663 . S
C396 C235 0.658 . S
C401 N66 1.429 . S
C406 C117 1.413 . S
C411 N79 1.757 1_545 S
C416 C146 1.762 1_554 S
C426 C180 1.552 1_554 S
C421 N92 1.555 . S
C436 C214 1.605 1_554 S
C431 N53 1.599 . S
C441 N14 1.435 . S
C446 C108 1.418 . S
C456 C155 1.762 . S
C451 N27 1.758 . S
C466 C189 1.551 . S
C461 N40 1.553 . S
C471 N1 1.593 . S
C476 C223 1.605 . S
