# Generated by pormake.
# Topology the, (3,8)-cn, num edge types: 1
# Building blocks:
#     Node 0, Type 0, BuildingBlock: CUQRIR_clean_linker_1, # of connection points: 3
#     Node 1, Type 0, BuildingBlock: CUQRIR_clean_linker_1, # of connection points: 3
#     Node 2, Type 0, BuildingBlock: CUQRIR_clean_linker_1, # of connection points: 3
#     Node 3, Type 0, BuildingBlock: CUQRIR_clean_linker_1, # of connection points: 3
#     Node 4, Type 0, BuildingBlock: CUQRIR_clean_linker_1, # of connection points: 3
#     Node 5, Type 0, BuildingBlock: CUQRIR_clean_linker_1, # of connection points: 3
#     Node 6, Type 0, BuildingBlock: CUQRIR_clean_linker_1, # of connection points: 3
#     Node 7, Type 0, BuildingBlock: CUQRIR_clean_linker_1, # of connection points: 3
#     Node 8, Type 1, BuildingBlock: GIZVER_clean_sbu_0, # of connection points: 8
#     Node 9, Type 1, BuildingBlock: GIZVER_clean_sbu_0, # of connection points: 8
#     Node 10, Type 1, BuildingBlock: GIZVER_clean_sbu_0, # of connection points: 8
#     Edge 11, Type (0, 1), BuildingBlock: AJUNOK_clean_linker_0, # of connection points: 2
#     Edge 12, Type (0, 1), BuildingBlock: AJUNOK_clean_linker_0, # of connection points: 2
#     Edge 13, Type (0, 1), BuildingBlock: AJUNOK_clean_linker_0, # of connection points: 2
#     Edge 14, Type (0, 1), BuildingBlock: AJUNOK_clean_linker_0, # of connection points: 2
#     Edge 15, Type (0, 1), BuildingBlock: AJUNOK_clean_linker_0, # of connection points: 2
#     Edge 16, Type (0, 1), BuildingBlock: AJUNOK_clean_linker_0, # of connection points: 2
#     Edge 17, Type (0, 1), BuildingBlock: AJUNOK_clean_linker_0, # of connection points: 2
#     Edge 18, Type (0, 1), BuildingBlock: AJUNOK_clean_linker_0, # of connection points: 2
#     Edge 19, Type (0, 1), BuildingBlock: AJUNOK_clean_linker_0, # of connection points: 2
#     Edge 20, Type (0, 1), BuildingBlock: AJUNOK_clean_linker_0, # of connection points: 2
#     Edge 21, Type (0, 1), BuildingBlock: AJUNOK_clean_linker_0, # of connection points: 2
#     Edge 22, Type (0, 1), BuildingBlock: AJUNOK_clean_linker_0, # of connection points: 2
#     Edge 23, Type (0, 1), BuildingBlock: AJUNOK_clean_linker_0, # of connection points: 2
#     Edge 24, Type (0, 1), BuildingBlock: AJUNOK_clean_linker_0, # of connection points: 2
#     Edge 25, Type (0, 1), BuildingBlock: AJUNOK_clean_linker_0, # of connection points: 2
#     Edge 26, Type (0, 1), BuildingBlock: AJUNOK_clean_linker_0, # of connection points: 2
#     Edge 27, Type (0, 1), BuildingBlock: AJUNOK_clean_linker_0, # of connection points: 2
#     Edge 28, Type (0, 1), BuildingBlock: AJUNOK_clean_linker_0, # of connection points: 2
#     Edge 29, Type (0, 1), BuildingBlock: AJUNOK_clean_linker_0, # of connection points: 2
#     Edge 30, Type (0, 1), BuildingBlock: AJUNOK_clean_linker_0, # of connection points: 2
#     Edge 31, Type (0, 1), BuildingBlock: AJUNOK_clean_linker_0, # of connection points: 2
#     Edge 32, Type (0, 1), BuildingBlock: AJUNOK_clean_linker_0, # of connection points: 2
#     Edge 33, Type (0, 1), BuildingBlock: AJUNOK_clean_linker_0, # of connection points: 2
#     Edge 34, Type (0, 1), BuildingBlock: AJUNOK_clean_linker_0, # of connection points: 2
# Relax obj value: 0.079
# Max RMSD: 0.239
# Mean RMSD: 0.148
data_MOF--net-the--node1-GIZVER_clean_sbu_0--node2-CUQRIR_clean_linker_1--edge1-AJUNOK_clean_linker_0
_symmetry_space_group_name_H-M    P1
_symmetry_Int_Tables_number       1
_symmetry_cell_setting            triclinic
loop_
_symmetry_equiv_pos_as_xyz
'x, y, z'
_cell_length_a     28.086993
_cell_length_b     26.038195
_cell_length_c     23.491408
_cell_angle_alpha  83.501346
_cell_angle_beta   100.16291
_cell_angle_gamma 112.74071
loop_
_atom_site_label
_atom_site_type_symbol
_atom_site_fract_x
_atom_site_fract_y
_atom_site_fract_z
_atom_type_partial_charge
C0 C 0.35745 0.30174 0.44832 0.0
N1 N 0.3932 0.31202 0.41257 0.0
N2 N 0.34044 0.34411 0.44368 0.0
C3 C 0.34046 0.25112 0.48881 0.0
C4 C 0.36693 0.38049 0.40387 0.0
N5 N 0.39977 0.36144 0.38557 0.0
C6 C 0.35733 0.43236 0.37939 0.0
H7 H 0.31996 0.21342 0.46325 0.0
H8 H 0.31393 0.25392 0.51699 0.0
H9 H 0.37523 0.24628 0.51594 0.0
H10 H 0.38151 0.46714 0.4079 0.0
H11 H 0.3158 0.42626 0.37793 0.0
H12 H 0.3679 0.44463 0.33519 0.0
C13 C 0.70929 0.31363 0.25063 0.0
N14 N 0.74732 0.31143 0.29403 0.0
N15 N 0.72832 0.35562 0.21159 0.0
C16 C 0.65193 0.27944 0.25033 0.0
C17 C 0.78001 0.37756 0.23211 0.0
N18 N 0.79178 0.35282 0.28421 0.0
C19 C 0.81926 0.41823 0.19635 0.0
H20 H 0.63112 0.27317 0.20546 0.0
H21 H 0.63487 0.30198 0.27288 0.0
H22 H 0.64535 0.23803 0.27289 0.0
H23 H 0.81422 0.4588 0.19047 0.0
H24 H 0.8117 0.40232 0.15245 0.0
H25 H 0.85985 0.42409 0.21595 0.0
C26 C 0.84629 0.80826 0.37246 0.0
N27 N 0.84356 0.76702 0.34028 0.0
N28 N 0.81821 0.83775 0.34401 0.0
C29 C 0.86945 0.81443 0.43513 0.0
C30 C 0.7996 0.81384 0.29224 0.0
N31 N 0.81429 0.77028 0.28975 0.0
C32 C 0.75842 0.82604 0.24885 0.0
H33 H 0.83974 0.78608 0.4616 0.0
H34 H 0.88026 0.85782 0.44755 0.0
H35 H 0.90431 0.80295 0.44426 0.0
H36 H 0.75588 0.86603 0.25686 0.0
H37 H 0.71997 0.79184 0.25173 0.0
H38 H 0.76745 0.82822 0.20434 0.0
C39 C 0.35008 0.67517 0.3105 0.0
N40 N 0.39943 0.71379 0.31355 0.0
N41 N 0.32309 0.68528 0.34753 0.0
C42 C 0.32879 0.62594 0.27252 0.0
C43 C 0.35796 0.73216 0.37314 0.0
N44 N 0.4042 0.75011 0.3522 0.0
C45 C 0.34908 0.75726 0.42309 0.0
H46 H 0.28556 0.60726 0.26695 0.0
H47 H 0.34461 0.59399 0.29235 0.0
H48 H 0.34112 0.63855 0.22913 0.0
H49 H 0.38496 0.77163 0.45528 0.0
H50 H 0.31681 0.72721 0.44515 0.0
H51 H 0.33925 0.79411 0.40651 0.0
C52 C 0.38587 0.69302 0.76422 0.0
N53 N 0.43452 0.73251 0.77523 0.0
N54 N 0.35578 0.71122 0.72185 0.0
C55 C 0.36973 0.63416 0.78958 0.0
C56 C 0.38812 0.76342 0.70736 0.0
N57 N 0.43599 0.77661 0.73957 0.0
C58 C 0.37497 0.7989 0.65663 0.0
H59 H 0.38026 0.60892 0.76261 0.0
H60 H 0.32695 0.61539 0.78983 0.0
H61 H 0.39022 0.63281 0.83433 0.0
H62 H 0.38307 0.84103 0.67081 0.0
H63 H 0.33339 0.78051 0.6372 0.0
H64 H 0.40012 0.8038 0.62327 0.0
C65 C 0.37017 0.28588 0.69678 0.0
N66 N 0.3683 0.32508 0.7289 0.0
N67 N 0.41347 0.27402 0.7157 0.0
C68 C 0.33363 0.26567 0.64186 0.0
C69 C 0.43782 0.30761 0.76063 0.0
N70 N 0.41082 0.33891 0.76874 0.0
C71 C 0.49017 0.3128 0.79427 0.0
H72 H 0.29367 0.24183 0.65236 0.0
H73 H 0.3454 0.23873 0.61878 0.0
H74 H 0.33227 0.30194 0.61277 0.0
H75 H 0.52108 0.34834 0.77528 0.0
H76 H 0.4978 0.27428 0.79262 0.0
H77 H 0.49216 0.32132 0.84005 0.0
C78 C 0.75859 0.32448 0.77292 0.0
N79 N 0.79165 0.3187 0.74072 0.0
N80 N 0.77806 0.3756 0.79488 0.0
C81 C 0.70527 0.28127 0.77924 0.0
C82 C 0.82451 0.40098 0.77531 0.0
N83 N 0.83321 0.3664 0.74281 0.0
C84 C 0.85765 0.46202 0.78136 0.0
H85 H 0.67874 0.27973 0.73787 0.0
H86 H 0.68869 0.29069 0.81445 0.0
H87 H 0.70755 0.23949 0.78856 0.0
H88 H 0.88301 0.46755 0.82393 0.0
H89 H 0.83285 0.48667 0.78004 0.0
H90 H 0.88252 0.4788 0.74659 0.0
C91 C 0.78514 0.72847 0.6676 0.0
N92 N 0.80969 0.69225 0.68238 0.0
N93 N 0.81001 0.76884 0.62976 0.0
C94 C 0.74067 0.72819 0.69586 0.0
C95 C 0.85108 0.75688 0.6226 0.0
N96 N 0.85111 0.71057 0.65498 0.0
C97 C 0.89103 0.79027 0.58415 0.0
H98 H 0.7051 0.6917 0.68179 0.0
H99 H 0.73219 0.76659 0.68506 0.0
H100 H 0.74977 0.72391 0.74363 0.0
H101 H 0.92893 0.81146 0.61121 0.0
H102 H 0.87942 0.82248 0.55725 0.0
H103 H 0.89667 0.76216 0.55606 0.0
Co104 Co 0.16955 0.46057 0.579 0.0
Co105 Co 0.11299 0.42613 0.4781 0.0
Co106 Co 0.07027 0.50419 0.5278 0.0
O107 O 0.09592 0.44085 0.54576 0.0
H108 H 0.0722 0.40801 0.56388 0.0
O109 O 0.04716 0.56803 0.51356 0.0
Co110 Co 0.9768 0.56241 0.48819 0.0
Co111 Co 0.03809 0.57818 0.588 0.0
H112 H 0.07282 0.60134 0.49852 0.0
O113 O 0.12271 0.36062 0.47143 0.0
O114 O 0.18243 0.44063 0.50689 0.0
O115 O 0.1164 0.47922 0.41311 0.0
O116 O 0.11895 0.54431 0.46814 0.0
O117 O 1.01334 0.46228 0.4653 0.0
O118 O 0.91333 0.56464 0.46361 0.0
O119 O 0.99143 0.63589 0.47077 0.0
O120 O 0.95329 0.48294 0.49729 0.0
O121 O 1.01983 0.46335 0.58437 0.0
O122 O 0.03904 0.52302 0.65153 0.0
O123 O 0.96925 0.5707 0.56952 0.0
O124 O 0.03866 0.64397 0.60721 0.0
C125 C 0.2175 0.42308 0.62805 0.0
C126 C 0.17421 0.56181 0.58274 0.0
C127 C 0.13113 0.53012 0.42403 0.0
C128 C 0.17064 0.39044 0.49119 0.0
C129 C 0.94112 0.61706 0.45387 0.0
C130 C 0.96541 0.4557 0.46386 0.0
C131 C 1.01631 0.47386 0.63466 0.0
C132 C 0.98852 0.6173 0.59638 0.0
O133 O 0.23449 0.47494 0.61018 0.0
O134 O 0.16766 0.39275 0.61459 0.0
O135 O 0.12678 0.54866 0.58976 0.0
O136 O 0.18391 0.53289 0.55008 0.0
Co137 Co 0.66125 0.95808 0.49785 0.0
Co138 Co 0.69217 0.99591 0.60281 0.0
Co139 Co 0.60884 0.04396 0.532 0.0
O140 O 0.67097 1.02484 0.53143 0.0
H141 H 0.70017 0.05613 0.51914 0.0
O142 O 0.54773 0.06631 0.53111 0.0
Co143 Co 0.5582 0.13638 0.56198 0.0
Co144 Co 0.53205 0.0986 0.45819 0.0
H145 H 0.51751 0.0357 0.54234 0.0
O146 O 0.75836 0.99094 0.62168 0.0
O147 O 0.68619 0.9306 0.57325 0.0
O148 O 0.64287 0.97178 0.65666 0.0
O149 O 0.57767 0.98375 0.59384 0.0
O150 O 0.65226 0.09789 0.59371 0.0
O151 O 0.56257 0.19755 0.59247 0.0
O152 O 0.49246 0.11785 0.57916 0.0
O153 O 0.62861 0.16529 0.55047 0.0
O154 O 0.6422 0.10469 0.47292 0.0
O155 O 0.58262 0.12062 0.40577 0.0
O156 O 0.53889 0.16625 0.48375 0.0
O157 O 0.46821 0.10529 0.43273 0.0
C158 C 0.70417 0.93019 0.45605 0.0
C159 C 0.56122 0.93672 0.47776 0.0
C160 C 0.59482 0.96303 0.64162 0.0
C161 C 0.73451 0.94419 0.59622 0.0
C162 C 0.51414 0.16828 0.59826 0.0
C163 C 0.66055 0.14979 0.58615 0.0
C164 C 0.62967 0.1282 0.42531 0.0
C165 C 0.4929 0.15439 0.45331 0.0
O166 O 0.65704 0.89899 0.46495 0.0
O167 O 0.72515 0.9807 0.47477 0.0
O168 O 0.56484 0.98771 0.46984 0.0
O169 O 0.5941 0.92619 0.51623 0.0
Co170 Co 0.5473 0.59469 0.14364 0.0
Co171 Co 0.50792 0.49566 0.1033 0.0
Co172 Co 0.59323 0.57445 0.02625 0.0
O173 O 0.53369 0.56692 0.0675 0.0
H174 H 0.5063 0.5754 0.04222 0.0
O175 O 0.65332 0.57989 0.98796 0.0
Co176 Co 0.6392 0.53578 0.92329 0.0
Co177 Co 0.67877 0.64043 0.93861 0.0
H178 H 0.68195 0.57679 1.01583 0.0
O179 O 0.44344 0.46302 0.12869 0.0
O180 O 0.51898 0.51764 0.17894 0.0
O181 O 0.54582 0.44673 0.10148 0.0
O182 O 0.61542 0.51868 0.07918 0.0
O183 O 0.54154 0.51311 0.97428 0.0
O184 O 0.63027 0.49295 0.86583 0.0
O185 O 0.69547 0.51619 0.9406 0.0
O186 O 0.57875 0.55049 0.89764 0.0
O187 O 0.57184 0.63147 0.97081 0.0
O188 O 0.63193 0.67836 0.91263 0.0
O189 O 0.67745 0.6014 0.8768 0.0
O190 O 0.74789 0.66498 0.92438 0.0
C191 C 0.5104 0.62771 0.19075 0.0
C192 C 0.64983 0.6246 0.13417 0.0
C193 C 0.59404 0.4683 0.09736 0.0
C194 C 0.47201 0.48023 0.17782 0.0
C195 C 0.67357 0.48962 0.89306 0.0
C196 C 0.53944 0.5166 0.91917 0.0
C197 C 0.58842 0.66784 0.92959 0.0
C198 C 0.72734 0.63002 0.88338 0.0
O199 O 0.55482 0.62364 0.21256 0.0
O200 O 0.48701 0.60647 0.1407 0.0
O201 O 0.64487 0.63434 0.07917 0.0
O202 O 0.61211 0.58813 0.1562 0.0
C203 C 0.30685 0.39424 0.49735 0.0
C204 C 0.29836 0.34723 0.46756 0.0
C205 C 0.26495 0.40637 0.50723 0.0
C206 C 0.21311 0.37104 0.48899 0.0
H207 H 0.34619 0.42382 0.50917 0.0
H208 H 0.27356 0.44547 0.5262 0.0
S209 S 0.17131 0.23882 0.41481 0.0
N210 N 0.23567 0.26318 0.42304 0.0
N211 N 0.15603 0.28379 0.44464 0.0
C212 C 0.2043 0.32127 0.46332 0.0
C213 C 0.24723 0.30975 0.45206 0.0
C214 C 0.73566 0.21805 0.3363 0.0
C215 C 0.73757 0.27202 0.34271 0.0
C216 C 0.70283 0.17112 0.36572 0.0
C217 C 0.67059 0.17706 0.40177 0.0
H218 H 0.75551 0.21166 0.30379 0.0
H219 H 0.69993 0.12995 0.35705 0.0
S220 S 0.66658 0.30996 0.43859 0.0
N221 N 0.7094 0.32896 0.39276 0.0
N222 N 0.64685 0.24139 0.44714 0.0
C223 C 0.67571 0.23117 0.41236 0.0
C224 C 0.7098 0.27861 0.38341 0.0
C225 C 0.84291 0.68656 0.40745 0.0
C226 C 0.86323 0.72365 0.36137 0.0
C227 C 0.86783 0.65153 0.43654 0.0
C228 C 0.91535 0.65419 0.42243 0.0
H229 H 0.80854 0.6862 0.42255 0.0
H230 H 0.85078 0.62365 0.4717 0.0
S231 S 0.98485 0.74436 0.30555 0.0
N232 N 0.93282 0.76018 0.30253 0.0
N233 N 0.98114 0.69607 0.35855 0.0
C234 C 0.936 0.69092 0.37639 0.0
C235 C 0.90962 0.72525 0.34561 0.0
C236 C 0.45118 0.85214 0.36173 0.0
C237 C 0.45011 0.79727 0.37351 0.0
C238 C 0.48746 0.89743 0.39422 0.0
C239 C 0.52365 0.88955 0.44077 0.0
H240 H 0.42201 0.85949 0.32873 0.0
H241 H 0.48604 0.93845 0.38386 0.0
S242 S 0.535 0.75267 0.49018 0.0
N243 N 0.48725 0.73766 0.4352 0.0
N244 N 0.55508 0.82057 0.49615 0.0
C245 C 0.52307 0.83447 0.45209 0.0
C246 C 0.48652 0.78906 0.41865 0.0
C247 C 0.26028 0.65686 0.70417 0.0
C248 C 0.30971 0.67651 0.68606 0.0
C249 C 0.21563 0.62151 0.66968 0.0
C250 C 0.21932 0.60462 0.61622 0.0
H251 H 0.25643 0.66838 0.74549 0.0
H252 H 0.17849 0.60601 0.68577 0.0
S253 S 0.34053 0.6475 0.54922 0.0
N254 N 0.35984 0.67798 0.61163 0.0
N255 N 0.27697 0.61335 0.54606 0.0
C256 C 0.26876 0.62568 0.59736 0.0
C257 C 0.31371 0.66104 0.63251 0.0
C258 C 0.48365 0.27722 0.66373 0.0
C259 C 0.43643 0.24649 0.68492 0.0
C260 C 0.50765 0.25145 0.63524 0.0
C261 C 0.48514 0.19381 0.62588 0.0
H262 H 0.50229 0.32163 0.66954 0.0
H263 H 0.54449 0.27722 0.62075 0.0
S264 S 0.36024 0.09527 0.67151 0.0
N265 N 0.36726 0.15594 0.69422 0.0
N266 N 0.41151 0.10718 0.63921 0.0
C267 C 0.43703 0.16282 0.64565 0.0
C268 C 0.41292 0.1892 0.67547 0.0
C269 C 0.87758 0.38311 0.65628 0.0
C270 C 0.87982 0.3798 0.71669 0.0
C271 C 0.92301 0.40928 0.63033 0.0
C272 C 0.97213 0.43499 0.66371 0.0
H273 H 0.84053 0.36922 0.62852 0.0
H274 H 0.91884 0.41305 0.58355 0.0
S275 S 0.9997 0.43141 0.82381 0.0
N276 N 0.93596 0.39758 0.80938 0.0
N277 N 1.02081 0.45055 0.76045 0.0
C278 C 0.97529 0.42906 0.72415 0.0
C279 C 0.92931 0.4005 0.75059 0.0
C280 C 0.74964 0.80976 0.57733 0.0
C281 C 0.79839 0.81701 0.60953 0.0
C282 C 0.73019 0.85203 0.57189 0.0
C283 C 0.75967 0.90378 0.59678 0.0
H284 H 0.72476 0.76947 0.56057 0.0
H285 H 0.69056 0.8426 0.55062 0.0
S286 S 0.89309 0.94455 0.67948 0.0
N287 N 0.87763 0.8794 0.66336 0.0
N288 N 0.84267 0.9612 0.65019 0.0
C289 C 0.81053 0.91289 0.62514 0.0
C290 C 0.8297 0.86898 0.63189 0.0
C291 C 0.39743 0.22424 0.39128 0.0
C292 C 0.42292 0.27841 0.41086 0.0
C293 C 0.42085 0.18482 0.40421 0.0
C294 C 0.47059 0.19819 0.43759 0.0
H295 H 0.35792 0.2116 0.36857 0.0
H296 H 0.39893 0.14307 0.38949 0.0
S297 S 0.55433 0.33678 0.49557 0.0
N298 N 0.50058 0.34488 0.46237 0.0
N299 N 0.54581 0.27166 0.48648 0.0
C300 C 0.49744 0.25347 0.45497 0.0
C301 C 0.47334 0.29342 0.44151 0.0
C302 C 0.86045 0.34562 0.36596 0.0
C303 C 0.83688 0.37799 0.32793 0.0
C304 C 0.90352 0.3705 0.40897 0.0
C305 C 0.9255 0.42877 0.41419 0.0
H306 H 0.84542 0.30087 0.36281 0.0
H307 H 0.919 0.34401 0.43887 0.0
S308 S 0.88146 0.53278 0.3243 0.0
N309 N 0.83865 0.47203 0.30219 0.0
N310 N 0.92431 0.51792 0.37386 0.0
C311 C 0.90417 0.46135 0.37469 0.0
C312 C 0.85871 0.43629 0.33405 0.0
C313 C 0.8105 0.91811 0.38335 0.0
C314 C 0.79052 0.86122 0.37244 0.0
C315 C 0.78261 0.94046 0.41079 0.0
C316 C 0.73384 0.90648 0.42764 0.0
H317 H 0.84764 0.9452 0.37044 0.0
H318 H 0.79916 0.9846 0.41837 0.0
S319 S 0.66709 0.75351 0.41035 0.0
N320 N 0.72138 0.77102 0.38221 0.0
N321 N 0.66815 0.81195 0.43235 0.0
C322 C 0.71415 0.84911 0.41718 0.0
C323 C 0.74275 0.82675 0.38999 0.0
C324 C 0.26629 0.5915 0.38043 0.0
C325 C 0.2738 0.64753 0.36471 0.0
C326 C 0.21888 0.55358 0.39625 0.0
C327 C 0.17732 0.57034 0.39896 0.0
H328 H 0.29768 0.57699 0.3811 0.0
H329 H 0.21562 0.51113 0.40874 0.0
S330 S 0.17717 0.71259 0.36329 0.0
N331 N 0.23525 0.71778 0.35163 0.0
N332 N 0.14714 0.64717 0.38573 0.0
C333 C 0.18447 0.62646 0.38445 0.0
C334 C 0.23242 0.66485 0.36636 0.0
C335 C 0.48554 0.87823 0.72981 0.0
C336 C 0.48183 0.82318 0.72541 0.0
C337 C 0.52248 0.92405 0.70331 0.0
C338 C 0.55756 0.91622 0.67257 0.0
H339 H 0.4579 0.88543 0.75153 0.0
H340 H 0.52307 0.96553 0.70611 0.0
S341 S 0.56338 0.78103 0.6471 0.0
N342 N 0.51506 0.76409 0.6854 0.0
N343 N 0.58681 0.84976 0.63973 0.0
C344 C 0.55534 0.86173 0.6695 0.0
C345 C 0.51696 0.81529 0.69496 0.0
C346 C 0.2787 0.32458 0.71544 0.0
C347 C 0.33244 0.35367 0.7133 0.0
C348 C 0.2414 0.34709 0.68877 0.0
C349 C 0.25663 0.39985 0.65937 0.0
H350 H 0.2654 0.28305 0.73586 0.0
H351 H 0.20046 0.32265 0.69038 0.0
S352 S 0.39299 0.49125 0.63906 0.0
N353 N 0.39833 0.43569 0.67633 0.0
N354 N 0.33039 0.48051 0.6304 0.0
C355 C 0.31072 0.42974 0.65836 0.0
C356 C 0.34805 0.40605 0.68417 0.0
C357 C 0.74657 0.29158 0.64369 0.0
C358 C 0.77365 0.27906 0.69602 0.0
C359 C 0.71305 0.2497 0.60685 0.0
C360 C 0.70402 0.19294 0.62133 0.0
H361 H 0.74822 0.33381 0.63348 0.0
H362 H 0.69165 0.26193 0.56835 0.0
S363 S 0.76823 0.13866 0.75258 0.0
N364 N 0.79188 0.20682 0.7594 0.0
N365 N 0.72841 0.12715 0.69048 0.0
C366 C 0.7333 0.18007 0.67209 0.0
C367 C 0.76797 0.22327 0.70944 0.0
C368 C 0.86487 0.63366 0.61925 0.0
C369 C 0.88429 0.68137 0.6516 0.0
C370 C 0.89882 0.61242 0.60245 0.0
C371 C 0.95327 0.63858 0.61737 0.0
H372 H 0.82345 0.61474 0.60414 0.0
H373 H 0.88226 0.57644 0.57599 0.0
S374 S 1.02195 0.76186 0.70772 0.0
N375 N 0.95959 0.75168 0.70204 0.0
N376 N 1.02421 0.71242 0.67128 0.0
C377 C 0.97266 0.68484 0.6526 0.0
C378 C 0.93791 0.70606 0.66959 0.0
C379 C 0.40054 0.36411 0.28151 0.0
C380 C 0.42581 0.38441 0.33602 0.0
C381 C 0.41529 0.39563 0.23057 0.0
C382 C 0.45607 0.44856 0.23247 0.0
H383 H 0.36707 0.32516 0.27855 0.0
H384 H 0.39407 0.37854 0.18951 0.0
S385 S 0.53569 0.51844 0.36597 0.0
N386 N 0.49371 0.45895 0.38979 0.0
N387 N 0.523 0.51823 0.29459 0.0
C388 C 0.48297 0.46809 0.28719 0.0
C389 C 0.46753 0.43596 0.3388 0.0
C390 C 0.50039 0.68949 0.79503 0.0
C391 C 0.47794 0.72386 0.81236 0.0
C392 C 0.53726 0.67352 0.83311 0.0
C393 C 0.55128 0.68887 0.89108 0.0
H394 H 0.48803 0.67335 0.75215 0.0
H395 H 0.55345 0.64696 0.81764 0.0
S396 S 0.49969 0.77392 0.95975 0.0
N397 N 0.47055 0.77082 0.89187 0.0
N398 N 0.53797 0.73823 0.96479 0.0
C399 C 0.52811 0.72194 0.90963 0.0
C400 C 0.49177 0.73988 0.87001 0.0
C401 C 0.47354 0.4344 0.78431 0.0
C402 C 0.43282 0.38765 0.80312 0.0
C403 C 0.50477 0.47717 0.82124 0.0
C404 C 0.49871 0.47415 0.88014 0.0
H405 H 0.48341 0.4363 0.74141 0.0
H406 H 0.53604 0.51142 0.80382 0.0
S407 S 0.39734 0.3595 0.95121 0.0
N408 N 0.38686 0.34077 0.88376 0.0
N409 N 0.44698 0.42021 0.95479 0.0
C410 C 0.45713 0.42803 0.89939 0.0
C411 C 0.42422 0.3849 0.86074 0.0
C412 C 0.76959 0.42388 0.87485 0.0
C413 C 0.75057 0.40198 0.81983 0.0
C414 C 0.7442 0.45165 0.89865 0.0
C415 C 0.69894 0.4585 0.86805 0.0
H416 H 0.80443 0.41961 0.89936 0.0
H417 H 0.76035 0.46805 0.94117 0.0
S418 S 0.63583 0.41083 0.72017 0.0
N419 N 0.68604 0.39101 0.73405 0.0
N420 N 0.63723 0.44166 0.77844 0.0
C421 C 0.67986 0.43674 0.81254 0.0
C422 C 0.706 0.40894 0.78847 0.0
C423 C 0.75462 0.61312 0.73665 0.0
C424 C 0.80313 0.65677 0.73409 0.0
C425 C 0.73211 0.60017 0.78769 0.0
C426 C 0.7579 0.63023 0.83775 0.0
H427 H 0.7308 0.59499 0.69701 0.0
H428 H 0.69219 0.57072 0.78573 0.0
S429 S 0.89351 0.73448 0.85721 0.0
N430 N 0.88154 0.71964 0.78839 0.0
N431 N 0.84042 0.69465 0.88521 0.0
C432 C 0.81032 0.66645 0.83822 0.0
C433 C 0.83295 0.67947 0.78609 0.0
C434 C 0.78364 0.73114 0.19289 0.0
C435 C 0.78324 0.72443 0.25322 0.0
C436 C 0.74164 0.69734 0.15415 0.0
C437 C 0.69767 0.65571 0.17454 0.0
H438 H 0.8148 0.76554 0.17552 0.0
H439 H 0.74255 0.70571 0.10806 0.0
S440 S 0.67972 0.6201 0.32968 0.0
N441 N 0.73667 0.67222 0.33127 0.0
N442 N 0.65892 0.60777 0.2606 0.0
C443 C 0.69879 0.64659 0.23532 0.0
C444 C 0.74131 0.68099 0.27408 0.0
C445 C 0.46631 0.6739 0.31463 0.0
C446 C 0.4395 0.70778 0.28654 0.0
C447 C 0.49079 0.65003 0.28379 0.0
C448 C 0.48727 0.65665 0.22299 0.0
H449 H 0.465 0.66224 0.36014 0.0
H450 H 0.50999 0.6235 0.30743 0.0
S451 S 0.4235 0.74318 0.1289 0.0
N452 N 0.4137 0.74912 0.19477 0.0
N453 N 0.45726 0.70245 0.13633 0.0
C454 C 0.46205 0.69182 0.19457 0.0
C455 C 0.43889 0.71776 0.22637 0.0
C456 C 0.66181 0.36448 0.13024 0.0
C457 C 0.69836 0.38637 0.17923 0.0
C458 C 0.62718 0.39047 0.10388 0.0
C459 C 0.62873 0.43943 0.12547 0.0
H460 H 0.65932 0.32644 0.11321 0.0
H461 H 0.59934 0.37246 0.0664 0.0
S462 S 0.7157 0.51185 0.2537 0.0
N463 N 0.73201 0.45812 0.24937 0.0
N464 N 0.66928 0.50828 0.19852 0.0
C465 C 0.66549 0.46187 0.1738 0.0
C466 C 0.69976 0.43504 0.20101 0.0
loop_
_geom_bond_atom_site_label_1
_geom_bond_atom_site_label_2
_geom_bond_distance
_geom_bond_site_symmetry_2
_ccdc_geom_bond_type
C0 N1 1.317 . S
C0 N2 1.348 . S
C0 C3 1.485 . S
N1 C0 1.317 . S
N1 N5 1.370 . S
N2 C0 1.348 . S
N2 C4 1.346 . S
C3 C0 1.485 . S
C3 H7 0.960 . S
C3 H8 0.961 . S
C3 H9 0.960 . S
C4 N2 1.346 . S
C4 N5 1.307 . S
C4 C6 1.486 . S
N5 N1 1.370 . S
N5 C4 1.307 . S
C6 C4 1.486 . S
C6 H10 0.960 . S
C6 H11 0.960 . S
C6 H12 0.959 . S
H7 C3 0.960 . S
H8 C3 0.961 . S
H9 C3 0.960 . S
H10 C6 0.960 . S
H11 C6 0.960 . S
H12 C6 0.959 . S
C13 N14 1.317 . S
C13 N15 1.348 . S
C13 C16 1.485 . S
N14 C13 1.317 . S
N14 N18 1.370 . S
N15 C13 1.348 . S
N15 C17 1.346 . S
C16 C13 1.485 . S
C16 H20 0.960 . S
C16 H21 0.961 . S
C16 H22 0.960 . S
C17 N15 1.346 . S
C17 N18 1.307 . S
C17 C19 1.486 . S
N18 N14 1.370 . S
N18 C17 1.307 . S
C19 C17 1.486 . S
C19 H23 0.960 . S
C19 H24 0.960 . S
C19 H25 0.959 . S
H20 C16 0.960 . S
H21 C16 0.961 . S
H22 C16 0.960 . S
H23 C19 0.960 . S
H24 C19 0.960 . S
H25 C19 0.959 . S
C26 N27 1.317 . S
C26 N28 1.348 . S
C26 C29 1.485 . S
N27 C26 1.317 . S
N27 N31 1.370 . S
N28 C26 1.348 . S
N28 C30 1.346 . S
C29 C26 1.485 . S
C29 H33 0.960 . S
C29 H34 0.961 . S
C29 H35 0.960 . S
C30 N28 1.346 . S
C30 N31 1.307 . S
C30 C32 1.486 . S
N31 N27 1.370 . S
N31 C30 1.307 . S
C32 C30 1.486 . S
C32 H36 0.960 . S
C32 H37 0.960 . S
C32 H38 0.959 . S
H33 C29 0.960 . S
H34 C29 0.961 . S
H35 C29 0.960 . S
H36 C32 0.960 . S
H37 C32 0.960 . S
H38 C32 0.959 . S
C39 N40 1.317 . S
C39 N41 1.348 . S
C39 C42 1.485 . S
N40 C39 1.317 . S
N40 N44 1.370 . S
N41 C39 1.348 . S
N41 C43 1.346 . S
C42 C39 1.485 . S
C42 H46 0.960 . S
C42 H47 0.961 . S
C42 H48 0.960 . S
C43 N41 1.346 . S
C43 N44 1.307 . S
C43 C45 1.486 . S
N44 N40 1.370 . S
N44 C43 1.307 . S
C45 C43 1.486 . S
C45 H49 0.960 . S
C45 H50 0.960 . S
C45 H51 0.959 . S
H46 C42 0.960 . S
H47 C42 0.961 . S
H48 C42 0.960 . S
H49 C45 0.960 . S
H50 C45 0.960 . S
H51 C45 0.959 . S
C52 N53 1.317 . S
C52 N54 1.348 . S
C52 C55 1.485 . S
N53 C52 1.317 . S
N53 N57 1.370 . S
N54 C52 1.348 . S
N54 C56 1.346 . S
C55 C52 1.485 . S
C55 H59 0.960 . S
C55 H60 0.961 . S
C55 H61 0.960 . S
C56 N54 1.346 . S
C56 N57 1.307 . S
C56 C58 1.486 . S
N57 N53 1.370 . S
N57 C56 1.307 . S
C58 C56 1.486 . S
C58 H62 0.960 . S
C58 H63 0.960 . S
C58 H64 0.959 . S
H59 C55 0.960 . S
H60 C55 0.961 . S
H61 C55 0.960 . S
H62 C58 0.960 . S
H63 C58 0.960 . S
H64 C58 0.959 . S
C65 N66 1.317 . S
C65 N67 1.348 . S
C65 C68 1.485 . S
N66 C65 1.317 . S
N66 N70 1.370 . S
N67 C65 1.348 . S
N67 C69 1.346 . S
C68 C65 1.485 . S
C68 H72 0.960 . S
C68 H73 0.961 . S
C68 H74 0.960 . S
C69 N67 1.346 . S
C69 N70 1.307 . S
C69 C71 1.486 . S
N70 N66 1.370 . S
N70 C69 1.307 . S
C71 C69 1.486 . S
C71 H75 0.960 . S
C71 H76 0.960 . S
C71 H77 0.959 . S
H72 C68 0.960 . S
H73 C68 0.961 . S
H74 C68 0.960 . S
H75 C71 0.960 . S
H76 C71 0.960 . S
H77 C71 0.959 . S
C78 N79 1.317 . S
C78 N80 1.348 . S
C78 C81 1.485 . S
N79 C78 1.317 . S
N79 N83 1.370 . S
N80 C78 1.348 . S
N80 C82 1.346 . S
C81 C78 1.485 . S
C81 H85 0.960 . S
C81 H86 0.961 . S
C81 H87 0.960 . S
C82 N80 1.346 . S
C82 N83 1.307 . S
C82 C84 1.486 . S
N83 N79 1.370 . S
N83 C82 1.307 . S
C84 C82 1.486 . S
C84 H88 0.960 . S
C84 H89 0.960 . S
C84 H90 0.959 . S
H85 C81 0.960 . S
H86 C81 0.961 . S
H87 C81 0.960 . S
H88 C84 0.960 . S
H89 C84 0.960 . S
H90 C84 0.959 . S
C91 N92 1.317 . S
C91 N93 1.348 . S
C91 C94 1.485 . S
N92 C91 1.317 . S
N92 N96 1.370 . S
N93 C91 1.348 . S
N93 C95 1.346 . S
C94 C91 1.485 . S
C94 H98 0.960 . S
C94 H99 0.961 . S
C94 H100 0.960 . S
C95 N93 1.346 . S
C95 N96 1.307 . S
C95 C97 1.486 . S
N96 N92 1.370 . S
N96 C95 1.307 . S
C97 C95 1.486 . S
C97 H101 0.960 . S
C97 H102 0.960 . S
C97 H103 0.959 . S
H98 C94 0.960 . S
H99 C94 0.961 . S
H100 C94 0.960 . S
H101 C97 0.960 . S
H102 C97 0.960 . S
H103 C97 0.959 . S
Co104 O107 2.042 . S
Co104 O114 2.264 . S
Co104 O133 2.286 . S
Co104 O134 2.069 . S
Co104 O136 2.015 . S
Co105 O107 2.122 . S
Co105 O113 2.073 . S
Co105 O114 2.327 . S
Co105 O115 1.976 . S
Co106 O107 2.087 . S
Co106 O109 2.087 . S
Co106 O116 2.111 . S
Co106 O117 2.143 1_455 S
Co106 O121 2.108 1_455 S
Co106 O135 2.143 . S
O107 Co104 2.042 . S
O107 Co105 2.122 . S
O107 Co106 2.087 . S
O107 H108 0.980 . S
H108 O107 0.980 . S
O109 Co106 2.087 . S
O109 Co110 2.042 1_455 S
O109 Co111 2.122 1_455 S
O109 H112 0.980 . S
Co110 O109 2.042 1_655 S
Co110 O118 2.286 . S
Co110 O119 2.069 . S
Co110 O120 2.015 . S
Co110 O123 2.264 . S
Co111 O109 2.122 1_655 S
Co111 O122 1.976 . S
Co111 O123 2.327 . S
Co111 O124 2.073 . S
H112 O109 0.980 . S
O113 Co105 2.073 . S
O113 C128 1.245 . S
O114 Co104 2.264 . S
O114 Co105 2.327 . S
O114 C128 1.257 . S
O115 Co105 1.976 . S
O115 C127 1.251 . S
O116 Co106 2.111 . S
O116 C127 1.274 . S
O117 Co106 2.143 1_655 S
O117 C130 1.246 . S
O118 Co110 2.286 . S
O118 C129 1.259 . S
O119 Co110 2.069 . S
O119 C129 1.289 . S
O120 Co110 2.015 . S
O120 C130 1.257 . S
O121 Co106 2.108 1_655 S
O121 C131 1.282 . S
O122 Co111 1.976 . S
O122 C131 1.251 . S
O123 Co110 2.264 . S
O123 Co111 2.327 . S
O123 C132 1.257 . S
O124 Co111 2.073 . S
O124 C132 1.245 . S
C125 O133 1.259 . S
C125 O134 1.289 . S
C126 O135 1.246 . S
C126 O136 1.257 . S
C127 O115 1.251 . S
C127 O116 1.274 . S
C128 O113 1.245 . S
C128 O114 1.257 . S
C129 O118 1.259 . S
C129 O119 1.289 . S
C130 O117 1.246 . S
C130 O120 1.257 . S
C131 O121 1.282 . S
C131 O122 1.251 . S
C132 O123 1.257 . S
C132 O124 1.245 . S
O133 Co104 2.286 . S
O133 C125 1.259 . S
O134 Co104 2.069 . S
O134 C125 1.289 . S
O135 Co106 2.143 . S
O135 C126 1.246 . S
O136 Co104 2.015 . S
O136 C126 1.257 . S
Co137 O140 2.042 . S
Co137 O147 2.264 . S
Co137 O166 2.286 . S
Co137 O167 2.069 . S
Co137 O169 2.015 . S
Co138 O140 2.122 . S
Co138 O146 2.073 . S
Co138 O147 2.327 . S
Co138 O148 1.976 . S
Co139 O140 2.087 1_545 S
Co139 O142 2.087 . S
Co139 O149 2.111 1_545 S
Co139 O150 2.143 . S
Co139 O154 2.111 . S
Co139 O168 2.143 1_545 S
O140 Co137 2.042 . S
O140 Co138 2.122 . S
O140 Co139 2.087 1_565 S
O140 H141 0.980 1_565 S
H141 O140 0.980 1_545 S
O142 Co139 2.087 . S
O142 Co143 2.042 . S
O142 Co144 2.122 . S
O142 H145 0.980 . S
Co143 O142 2.042 . S
Co143 O151 2.286 . S
Co143 O152 2.069 . S
Co143 O153 2.015 . S
Co143 O156 2.264 . S
Co144 O142 2.122 . S
Co144 O155 1.976 . S
Co144 O156 2.327 . S
Co144 O157 2.073 . S
H145 O142 0.980 . S
O146 Co138 2.073 . S
O146 C161 1.245 . S
O147 Co137 2.264 . S
O147 Co138 2.327 . S
O147 C161 1.257 . S
O148 Co138 1.976 . S
O148 C160 1.251 . S
O149 Co139 2.111 1_565 S
O149 C160 1.274 . S
O150 Co139 2.143 . S
O150 C163 1.246 . S
O151 Co143 2.286 . S
O151 C162 1.259 . S
O152 Co143 2.069 . S
O152 C162 1.289 . S
O153 Co143 2.015 . S
O153 C163 1.257 . S
O154 Co139 2.111 . S
O154 C164 1.274 . S
O155 Co144 1.976 . S
O155 C164 1.251 . S
O156 Co143 2.264 . S
O156 Co144 2.327 . S
O156 C165 1.257 . S
O157 Co144 2.073 . S
O157 C165 1.245 . S
C158 O166 1.259 . S
C158 O167 1.289 . S
C159 O168 1.246 . S
C159 O169 1.257 . S
C160 O148 1.251 . S
C160 O149 1.274 . S
C161 O146 1.245 . S
C161 O147 1.257 . S
C162 O151 1.259 . S
C162 O152 1.289 . S
C163 O150 1.246 . S
C163 O153 1.257 . S
C164 O154 1.274 . S
C164 O155 1.251 . S
C165 O156 1.257 . S
C165 O157 1.245 . S
O166 Co137 2.286 . S
O166 C158 1.259 . S
O167 Co137 2.069 . S
O167 C158 1.289 . S
O168 Co139 2.143 1_565 S
O168 C159 1.246 . S
O169 Co137 2.015 . S
O169 C159 1.257 . S
Co170 O173 2.042 . S
Co170 O180 2.264 . S
Co170 O199 2.286 . S
Co170 O200 2.069 . S
Co170 O202 2.015 . S
Co171 O173 2.122 . S
Co171 O179 2.073 . S
Co171 O180 2.327 . S
Co171 O181 1.976 . S
Co172 O173 2.087 . S
Co172 O175 2.087 1_554 S
Co172 O182 2.111 . S
Co172 O183 2.143 1_554 S
Co172 O187 2.111 1_554 S
Co172 O201 2.143 . S
O173 Co170 2.042 . S
O173 Co171 2.122 . S
O173 Co172 2.087 . S
O173 H174 0.980 . S
H174 O173 0.980 . S
O175 Co172 2.087 1_556 S
O175 Co176 2.042 . S
O175 Co177 2.122 . S
O175 H178 0.980 . S
Co176 O175 2.042 . S
Co176 O184 2.286 . S
Co176 O185 2.069 . S
Co176 O186 2.015 . S
Co176 O189 2.264 . S
Co177 O175 2.122 . S
Co177 O188 1.976 . S
Co177 O189 2.327 . S
Co177 O190 2.073 . S
H178 O175 0.980 . S
O179 Co171 2.073 . S
O179 C194 1.245 . S
O180 Co170 2.264 . S
O180 Co171 2.327 . S
O180 C194 1.257 . S
O181 Co171 1.976 . S
O181 C193 1.251 . S
O182 Co172 2.111 . S
O182 C193 1.274 . S
O183 Co172 2.143 1_556 S
O183 C196 1.246 . S
O184 Co176 2.286 . S
O184 C195 1.259 . S
O185 Co176 2.069 . S
O185 C195 1.289 . S
O186 Co176 2.015 . S
O186 C196 1.257 . S
O187 Co172 2.111 1_556 S
O187 C197 1.274 . S
O188 Co177 1.976 . S
O188 C197 1.251 . S
O189 Co176 2.264 . S
O189 Co177 2.327 . S
O189 C198 1.257 . S
O190 Co177 2.073 . S
O190 C198 1.245 . S
C191 O199 1.259 . S
C191 O200 1.289 . S
C192 O201 1.246 . S
C192 O202 1.257 . S
C193 O181 1.251 . S
C193 O182 1.274 . S
C194 O179 1.245 . S
C194 O180 1.257 . S
C195 O184 1.259 . S
C195 O185 1.289 . S
C196 O183 1.246 . S
C196 O186 1.257 . S
C197 O187 1.274 . S
C197 O188 1.251 . S
C198 O189 1.257 . S
C198 O190 1.245 . S
O199 Co170 2.286 . S
O199 C191 1.259 . S
O200 Co170 2.069 . S
O200 C191 1.289 . S
O201 Co172 2.143 . S
O201 C192 1.246 . S
O202 Co170 2.015 . S
O202 C192 1.257 . S
C203 C204 1.369 . S
C203 C205 1.419 . S
C203 H207 0.930 . S
C204 C203 1.369 . S
C204 C213 1.429 . S
C205 C203 1.419 . S
C205 C206 1.363 . S
C205 H208 0.929 . S
C206 C205 1.363 . S
C206 C212 1.428 . S
H207 C203 0.930 . S
H208 C205 0.929 . S
S209 N210 1.613 . S
S209 N211 1.610 . S
N210 S209 1.613 . S
N210 C213 1.350 . S
N211 S209 1.610 . S
N211 C212 1.351 . S
C212 C206 1.428 . S
C212 N211 1.351 . S
C212 C213 1.434 . S
C213 C204 1.429 . S
C213 N210 1.350 . S
C213 C212 1.434 . S
C214 C215 1.369 . S
C214 C216 1.419 . S
C214 H218 0.930 . S
C215 C214 1.369 . S
C215 C224 1.429 . S
C216 C214 1.419 . S
C216 C217 1.363 . S
C216 H219 0.929 . S
C217 C216 1.363 . S
C217 C223 1.428 . S
H218 C214 0.930 . S
H219 C216 0.929 . S
S220 N221 1.613 . S
S220 N222 1.610 . S
N221 S220 1.613 . S
N221 C224 1.350 . S
N222 S220 1.610 . S
N222 C223 1.351 . S
C223 C217 1.428 . S
C223 N222 1.351 . S
C223 C224 1.434 . S
C224 C215 1.429 . S
C224 N221 1.350 . S
C224 C223 1.434 . S
C225 C226 1.369 . S
C225 C227 1.419 . S
C225 H229 0.930 . S
C226 C225 1.369 . S
C226 C235 1.429 . S
C227 C225 1.419 . S
C227 C228 1.363 . S
C227 H230 0.929 . S
C228 C227 1.363 . S
C228 C234 1.428 . S
H229 C225 0.930 . S
H230 C227 0.929 . S
S231 N232 1.613 . S
S231 N233 1.610 . S
N232 S231 1.613 . S
N232 C235 1.350 . S
N233 S231 1.610 . S
N233 C234 1.351 . S
C234 C228 1.428 . S
C234 N233 1.351 . S
C234 C235 1.434 . S
C235 C226 1.429 . S
C235 N232 1.350 . S
C235 C234 1.434 . S
C236 C237 1.369 . S
C236 C238 1.419 . S
C236 H240 0.930 . S
C237 C236 1.369 . S
C237 C246 1.429 . S
C238 C236 1.419 . S
C238 C239 1.363 . S
C238 H241 0.929 . S
C239 C238 1.363 . S
C239 C245 1.428 . S
H240 C236 0.930 . S
H241 C238 0.929 . S
S242 N243 1.613 . S
S242 N244 1.610 . S
N243 S242 1.613 . S
N243 C246 1.350 . S
N244 S242 1.610 . S
N244 C245 1.351 . S
C245 C239 1.428 . S
C245 N244 1.351 . S
C245 C246 1.434 . S
C246 C237 1.429 . S
C246 N243 1.350 . S
C246 C245 1.434 . S
C247 C248 1.369 . S
C247 C249 1.419 . S
C247 H251 0.930 . S
C248 C247 1.369 . S
C248 C257 1.429 . S
C249 C247 1.419 . S
C249 C250 1.363 . S
C249 H252 0.929 . S
C250 C249 1.363 . S
C250 C256 1.428 . S
H251 C247 0.930 . S
H252 C249 0.929 . S
S253 N254 1.613 . S
S253 N255 1.610 . S
N254 S253 1.613 . S
N254 C257 1.350 . S
N255 S253 1.610 . S
N255 C256 1.351 . S
C256 C250 1.428 . S
C256 N255 1.351 . S
C256 C257 1.434 . S
C257 C248 1.429 . S
C257 N254 1.350 . S
C257 C256 1.434 . S
C258 C259 1.369 . S
C258 C260 1.419 . S
C258 H262 0.930 . S
C259 C258 1.369 . S
C259 C268 1.429 . S
C260 C258 1.419 . S
C260 C261 1.363 . S
C260 H263 0.929 . S
C261 C260 1.363 . S
C261 C267 1.428 . S
H262 C258 0.930 . S
H263 C260 0.929 . S
S264 N265 1.613 . S
S264 N266 1.610 . S
N265 S264 1.613 . S
N265 C268 1.350 . S
N266 S264 1.610 . S
N266 C267 1.351 . S
C267 C261 1.428 . S
C267 N266 1.351 . S
C267 C268 1.434 . S
C268 C259 1.429 . S
C268 N265 1.350 . S
C268 C267 1.434 . S
C269 C270 1.369 . S
C269 C271 1.419 . S
C269 H273 0.930 . S
C270 C269 1.369 . S
C270 C279 1.429 . S
C271 C269 1.419 . S
C271 C272 1.363 . S
C271 H274 0.929 . S
C272 C271 1.363 . S
C272 C278 1.428 . S
H273 C269 0.930 . S
H274 C271 0.929 . S
S275 N276 1.613 . S
S275 N277 1.610 . S
N276 S275 1.613 . S
N276 C279 1.350 . S
N277 S275 1.610 . S
N277 C278 1.351 . S
C278 C272 1.428 . S
C278 N277 1.351 . S
C278 C279 1.434 . S
C279 C270 1.429 . S
C279 N276 1.350 . S
C279 C278 1.434 . S
C280 C281 1.369 . S
C280 C282 1.419 . S
C280 H284 0.930 . S
C281 C280 1.369 . S
C281 C290 1.429 . S
C282 C280 1.419 . S
C282 C283 1.363 . S
C282 H285 0.929 . S
C283 C282 1.363 . S
C283 C289 1.428 . S
H284 C280 0.930 . S
H285 C282 0.929 . S
S286 N287 1.613 . S
S286 N288 1.610 . S
N287 S286 1.613 . S
N287 C290 1.350 . S
N288 S286 1.610 . S
N288 C289 1.351 . S
C289 C283 1.428 . S
C289 N288 1.351 . S
C289 C290 1.434 . S
C290 C281 1.429 . S
C290 N287 1.350 . S
C290 C289 1.434 . S
C291 C292 1.369 . S
C291 C293 1.419 . S
C291 H295 0.930 . S
C292 C291 1.369 . S
C292 C301 1.429 . S
C293 C291 1.419 . S
C293 C294 1.363 . S
C293 H296 0.929 . S
C294 C293 1.363 . S
C294 C300 1.428 . S
H295 C291 0.930 . S
H296 C293 0.929 . S
S297 N298 1.613 . S
S297 N299 1.610 . S
N298 S297 1.613 . S
N298 C301 1.350 . S
N299 S297 1.610 . S
N299 C300 1.351 . S
C300 C294 1.428 . S
C300 N299 1.351 . S
C300 C301 1.434 . S
C301 C292 1.429 . S
C301 N298 1.350 . S
C301 C300 1.434 . S
C302 C303 1.369 . S
C302 C304 1.419 . S
C302 H306 0.930 . S
C303 C302 1.369 . S
C303 C312 1.429 . S
C304 C302 1.419 . S
C304 C305 1.363 . S
C304 H307 0.929 . S
C305 C304 1.363 . S
C305 C311 1.428 . S
H306 C302 0.930 . S
H307 C304 0.929 . S
S308 N309 1.613 . S
S308 N310 1.610 . S
N309 S308 1.613 . S
N309 C312 1.350 . S
N310 S308 1.610 . S
N310 C311 1.351 . S
C311 C305 1.428 . S
C311 N310 1.351 . S
C311 C312 1.434 . S
C312 C303 1.429 . S
C312 N309 1.350 . S
C312 C311 1.434 . S
C313 C314 1.369 . S
C313 C315 1.419 . S
C313 H317 0.930 . S
C314 C313 1.369 . S
C314 C323 1.429 . S
C315 C313 1.419 . S
C315 C316 1.363 . S
C315 H318 0.929 . S
C316 C315 1.363 . S
C316 C322 1.428 . S
H317 C313 0.930 . S
H318 C315 0.929 . S
S319 N320 1.613 . S
S319 N321 1.610 . S
N320 S319 1.613 . S
N320 C323 1.350 . S
N321 S319 1.610 . S
N321 C322 1.351 . S
C322 C316 1.428 . S
C322 N321 1.351 . S
C322 C323 1.434 . S
C323 C314 1.429 . S
C323 N320 1.350 . S
C323 C322 1.434 . S
C324 C325 1.369 . S
C324 C326 1.419 . S
C324 H328 0.930 . S
C325 C324 1.369 . S
C325 C334 1.429 . S
C326 C324 1.419 . S
C326 C327 1.363 . S
C326 H329 0.929 . S
C327 C326 1.363 . S
C327 C333 1.428 . S
H328 C324 0.930 . S
H329 C326 0.929 . S
S330 N331 1.613 . S
S330 N332 1.610 . S
N331 S330 1.613 . S
N331 C334 1.350 . S
N332 S330 1.610 . S
N332 C333 1.351 . S
C333 C327 1.428 . S
C333 N332 1.351 . S
C333 C334 1.434 . S
C334 C325 1.429 . S
C334 N331 1.350 . S
C334 C333 1.434 . S
C335 C336 1.369 . S
C335 C337 1.419 . S
C335 H339 0.930 . S
C336 C335 1.369 . S
C336 C345 1.429 . S
C337 C335 1.419 . S
C337 C338 1.363 . S
C337 H340 0.929 . S
C338 C337 1.363 . S
C338 C344 1.428 . S
H339 C335 0.930 . S
H340 C337 0.929 . S
S341 N342 1.613 . S
S341 N343 1.610 . S
N342 S341 1.613 . S
N342 C345 1.350 . S
N343 S341 1.610 . S
N343 C344 1.351 . S
C344 C338 1.428 . S
C344 N343 1.351 . S
C344 C345 1.434 . S
C345 C336 1.429 . S
C345 N342 1.350 . S
C345 C344 1.434 . S
C346 C347 1.369 . S
C346 C348 1.419 . S
C346 H350 0.930 . S
C347 C346 1.369 . S
C347 C356 1.429 . S
C348 C346 1.419 . S
C348 C349 1.363 . S
C348 H351 0.929 . S
C349 C348 1.363 . S
C349 C355 1.428 . S
H350 C346 0.930 . S
H351 C348 0.929 . S
S352 N353 1.613 . S
S352 N354 1.610 . S
N353 S352 1.613 . S
N353 C356 1.350 . S
N354 S352 1.610 . S
N354 C355 1.351 . S
C355 C349 1.428 . S
C355 N354 1.351 . S
C355 C356 1.434 . S
C356 C347 1.429 . S
C356 N353 1.350 . S
C356 C355 1.434 . S
C357 C358 1.369 . S
C357 C359 1.419 . S
C357 H361 0.930 . S
C358 C357 1.369 . S
C358 C367 1.429 . S
C359 C357 1.419 . S
C359 C360 1.363 . S
C359 H362 0.929 . S
C360 C359 1.363 . S
C360 C366 1.428 . S
H361 C357 0.930 . S
H362 C359 0.929 . S
S363 N364 1.613 . S
S363 N365 1.610 . S
N364 S363 1.613 . S
N364 C367 1.350 . S
N365 S363 1.610 . S
N365 C366 1.351 . S
C366 C360 1.428 . S
C366 N365 1.351 . S
C366 C367 1.434 . S
C367 C358 1.429 . S
C367 N364 1.350 . S
C367 C366 1.434 . S
C368 C369 1.369 . S
C368 C370 1.419 . S
C368 H372 0.930 . S
C369 C368 1.369 . S
C369 C378 1.429 . S
C370 C368 1.419 . S
C370 C371 1.363 . S
C370 H373 0.929 . S
C371 C370 1.363 . S
C371 C377 1.428 . S
H372 C368 0.930 . S
H373 C370 0.929 . S
S374 N375 1.613 . S
S374 N376 1.610 . S
N375 S374 1.613 . S
N375 C378 1.350 . S
N376 S374 1.610 . S
N376 C377 1.351 . S
C377 C371 1.428 . S
C377 N376 1.351 . S
C377 C378 1.434 . S
C378 C369 1.429 . S
C378 N375 1.350 . S
C378 C377 1.434 . S
C379 C380 1.369 . S
C379 C381 1.419 . S
C379 H383 0.930 . S
C380 C379 1.369 . S
C380 C389 1.429 . S
C381 C379 1.419 . S
C381 C382 1.363 . S
C381 H384 0.929 . S
C382 C381 1.363 . S
C382 C388 1.428 . S
H383 C379 0.930 . S
H384 C381 0.929 . S
S385 N386 1.613 . S
S385 N387 1.610 . S
N386 S385 1.613 . S
N386 C389 1.350 . S
N387 S385 1.610 . S
N387 C388 1.351 . S
C388 C382 1.428 . S
C388 N387 1.351 . S
C388 C389 1.434 . S
C389 C380 1.429 . S
C389 N386 1.350 . S
C389 C388 1.434 . S
C390 C391 1.369 . S
C390 C392 1.419 . S
C390 H394 0.930 . S
C391 C390 1.369 . S
C391 C400 1.429 . S
C392 C390 1.419 . S
C392 C393 1.363 . S
C392 H395 0.929 . S
C393 C392 1.363 . S
C393 C399 1.428 . S
H394 C390 0.930 . S
H395 C392 0.929 . S
S396 N397 1.613 . S
S396 N398 1.610 . S
N397 S396 1.613 . S
N397 C400 1.350 . S
N398 S396 1.610 . S
N398 C399 1.351 . S
C399 C393 1.428 . S
C399 N398 1.351 . S
C399 C400 1.434 . S
C400 C391 1.429 . S
C400 N397 1.350 . S
C400 C399 1.434 . S
C401 C402 1.369 . S
C401 C403 1.419 . S
C401 H405 0.930 . S
C402 C401 1.369 . S
C402 C411 1.429 . S
C403 C401 1.419 . S
C403 C404 1.363 . S
C403 H406 0.929 . S
C404 C403 1.363 . S
C404 C410 1.428 . S
H405 C401 0.930 . S
H406 C403 0.929 . S
S407 N408 1.613 . S
S407 N409 1.610 . S
N408 S407 1.613 . S
N408 C411 1.350 . S
N409 S407 1.610 . S
N409 C410 1.351 . S
C410 C404 1.428 . S
C410 N409 1.351 . S
C410 C411 1.434 . S
C411 C402 1.429 . S
C411 N408 1.350 . S
C411 C410 1.434 . S
C412 C413 1.369 . S
C412 C414 1.419 . S
C412 H416 0.930 . S
C413 C412 1.369 . S
C413 C422 1.429 . S
C414 C412 1.419 . S
C414 C415 1.363 . S
C414 H417 0.929 . S
C415 C414 1.363 . S
C415 C421 1.428 . S
H416 C412 0.930 . S
H417 C414 0.929 . S
S418 N419 1.613 . S
S418 N420 1.610 . S
N419 S418 1.613 . S
N419 C422 1.350 . S
N420 S418 1.610 . S
N420 C421 1.351 . S
C421 C415 1.428 . S
C421 N420 1.351 . S
C421 C422 1.434 . S
C422 C413 1.429 . S
C422 N419 1.350 . S
C422 C421 1.434 . S
C423 C424 1.369 . S
C423 C425 1.419 . S
C423 H427 0.930 . S
C424 C423 1.369 . S
C424 C433 1.429 . S
C425 C423 1.419 . S
C425 C426 1.363 . S
C425 H428 0.929 . S
C426 C425 1.363 . S
C426 C432 1.428 . S
H427 C423 0.930 . S
H428 C425 0.929 . S
S429 N430 1.613 . S
S429 N431 1.610 . S
N430 S429 1.613 . S
N430 C433 1.350 . S
N431 S429 1.610 . S
N431 C432 1.351 . S
C432 C426 1.428 . S
C432 N431 1.351 . S
C432 C433 1.434 . S
C433 C424 1.429 . S
C433 N430 1.350 . S
C433 C432 1.434 . S
C434 C435 1.369 . S
C434 C436 1.419 . S
C434 H438 0.930 . S
C435 C434 1.369 . S
C435 C444 1.429 . S
C436 C434 1.419 . S
C436 C437 1.363 . S
C436 H439 0.929 . S
C437 C436 1.363 . S
C437 C443 1.428 . S
H438 C434 0.930 . S
H439 C436 0.929 . S
S440 N441 1.613 . S
S440 N442 1.610 . S
N441 S440 1.613 . S
N441 C444 1.350 . S
N442 S440 1.610 . S
N442 C443 1.351 . S
C443 C437 1.428 . S
C443 N442 1.351 . S
C443 C444 1.434 . S
C444 C435 1.429 . S
C444 N441 1.350 . S
C444 C443 1.434 . S
C445 C446 1.369 . S
C445 C447 1.419 . S
C445 H449 0.930 . S
C446 C445 1.369 . S
C446 C455 1.429 . S
C447 C445 1.419 . S
C447 C448 1.363 . S
C447 H450 0.929 . S
C448 C447 1.363 . S
C448 C454 1.428 . S
H449 C445 0.930 . S
H450 C447 0.929 . S
S451 N452 1.613 . S
S451 N453 1.610 . S
N452 S451 1.613 . S
N452 C455 1.350 . S
N453 S451 1.610 . S
N453 C454 1.351 . S
C454 C448 1.428 . S
C454 N453 1.351 . S
C454 C455 1.434 . S
C455 C446 1.429 . S
C455 N452 1.350 . S
C455 C454 1.434 . S
C456 C457 1.369 . S
C456 C458 1.419 . S
C456 H460 0.930 . S
C457 C456 1.369 . S
C457 C466 1.429 . S
C458 C456 1.419 . S
C458 C459 1.363 . S
C458 H461 0.929 . S
C459 C458 1.363 . S
C459 C465 1.428 . S
H460 C456 0.930 . S
H461 C458 0.929 . S
S462 N463 1.613 . S
S462 N464 1.610 . S
N463 S462 1.613 . S
N463 C466 1.350 . S
N464 S462 1.610 . S
N464 C465 1.351 . S
C465 C459 1.428 . S
C465 N464 1.351 . S
C465 C466 1.434 . S
C466 C457 1.429 . S
C466 N463 1.350 . S
C466 C465 1.434 . S
C206 C128 1.322 . S
C204 N2 1.458 . S
C217 C164 1.313 . S
C215 N14 1.377 . S
C228 C129 1.516 . S
C226 N27 1.508 . S
C239 C159 1.663 . S
C237 N44 1.707 . S
C250 C126 1.224 . S
C248 N54 1.278 . S
C259 N67 1.560 . S
C261 C162 1.580 . S
C270 N83 1.016 . S
C272 C131 0.927 . S
C283 C161 1.288 . S
C281 N93 1.317 . S
C294 C165 1.604 . S
C292 N1 1.640 . S
C305 C130 1.190 . S
C303 N18 1.272 . S
C316 C158 1.350 . S
C314 N28 1.349 . S
C327 C127 1.262 . S
C325 N41 1.407 . S
C338 C160 1.745 . S
C336 N57 1.847 . S
C347 N66 1.514 . S
C349 C125 1.469 . S
C358 N79 1.503 . S
C360 C163 1.455 . S
C371 C132 1.479 . S
C369 N96 1.527 . S
C382 C194 1.694 . S
C380 N5 1.791 . S
C391 N53 1.940 . S
C393 C197 1.807 . S
C404 C196 1.798 . S
C402 N70 1.822 . S
C413 N80 1.682 . S
C415 C195 1.647 . S
C426 C198 1.648 . S
C424 N92 1.726 . S
C435 N31 1.613 . S
C437 C192 1.593 . S
C448 C191 2.052 . S
C446 N40 2.013 . S
C457 N15 1.431 . S
C459 C193 1.305 . S
