# Generated by pormake.
# Topology llk, (3,12)-cn, num edge types: 1
# Building blocks:
#     Node 0, Type 0, BuildingBlock: BETDAH_clean_linker_0, # of connection points: 3
#     Node 1, Type 0, BuildingBlock: BETDAH_clean_linker_0, # of connection points: 3
#     Node 2, Type 0, BuildingBlock: BETDAH_clean_linker_0, # of connection points: 3
#     Node 3, Type 0, BuildingBlock: BETDAH_clean_linker_0, # of connection points: 3
#     Node 4, Type 0, BuildingBlock: BETDAH_clean_linker_0, # of connection points: 3
#     Node 5, Type 0, BuildingBlock: BETDAH_clean_linker_0, # of connection points: 3
#     Node 6, Type 0, BuildingBlock: BETDAH_clean_linker_0, # of connection points: 3
#     Node 7, Type 0, BuildingBlock: BETDAH_clean_linker_0, # of connection points: 3
#     Node 8, Type 0, BuildingBlock: BETDAH_clean_linker_0, # of connection points: 3
#     Node 9, Type 0, BuildingBlock: BETDAH_clean_linker_0, # of connection points: 3
#     Node 10, Type 0, BuildingBlock: BETDAH_clean_linker_0, # of connection points: 3
#     Node 11, Type 0, BuildingBlock: BETDAH_clean_linker_0, # of connection points: 3
#     Node 12, Type 0, BuildingBlock: BETDAH_clean_linker_0, # of connection points: 3
#     Node 13, Type 0, BuildingBlock: BETDAH_clean_linker_0, # of connection points: 3
#     Node 14, Type 0, BuildingBlock: BETDAH_clean_linker_0, # of connection points: 3
#     Node 15, Type 0, BuildingBlock: BETDAH_clean_linker_0, # of connection points: 3
#     Node 16, Type 0, BuildingBlock: BETDAH_clean_linker_0, # of connection points: 3
#     Node 17, Type 0, BuildingBlock: BETDAH_clean_linker_0, # of connection points: 3
#     Node 18, Type 0, BuildingBlock: BETDAH_clean_linker_0, # of connection points: 3
#     Node 19, Type 0, BuildingBlock: BETDAH_clean_linker_0, # of connection points: 3
#     Node 20, Type 0, BuildingBlock: BETDAH_clean_linker_0, # of connection points: 3
#     Node 21, Type 0, BuildingBlock: BETDAH_clean_linker_0, # of connection points: 3
#     Node 22, Type 0, BuildingBlock: BETDAH_clean_linker_0, # of connection points: 3
#     Node 23, Type 0, BuildingBlock: BETDAH_clean_linker_0, # of connection points: 3
#     Node 24, Type 1, BuildingBlock: QEWDON_clean_sbu_0, # of connection points: 12
#     Node 25, Type 1, BuildingBlock: QEWDON_clean_sbu_0, # of connection points: 12
#     Node 26, Type 1, BuildingBlock: QEWDON_clean_sbu_0, # of connection points: 12
#     Node 27, Type 1, BuildingBlock: QEWDON_clean_sbu_0, # of connection points: 12
#     Node 28, Type 1, BuildingBlock: QEWDON_clean_sbu_0, # of connection points: 12
#     Node 29, Type 1, BuildingBlock: QEWDON_clean_sbu_0, # of connection points: 12
#     Edge 30, Type (0, 1), None
#     Edge 31, Type (0, 1), None
#     Edge 32, Type (0, 1), None
#     Edge 33, Type (0, 1), None
#     Edge 34, Type (0, 1), None
#     Edge 35, Type (0, 1), None
#     Edge 36, Type (0, 1), None
#     Edge 37, Type (0, 1), None
#     Edge 38, Type (0, 1), None
#     Edge 39, Type (0, 1), None
#     Edge 40, Type (0, 1), None
#     Edge 41, Type (0, 1), None
#     Edge 42, Type (0, 1), None
#     Edge 43, Type (0, 1), None
#     Edge 44, Type (0, 1), None
#     Edge 45, Type (0, 1), None
#     Edge 46, Type (0, 1), None
#     Edge 47, Type (0, 1), None
#     Edge 48, Type (0, 1), None
#     Edge 49, Type (0, 1), None
#     Edge 50, Type (0, 1), None
#     Edge 51, Type (0, 1), None
#     Edge 52, Type (0, 1), None
#     Edge 53, Type (0, 1), None
#     Edge 54, Type (0, 1), None
#     Edge 55, Type (0, 1), None
#     Edge 56, Type (0, 1), None
#     Edge 57, Type (0, 1), None
#     Edge 58, Type (0, 1), None
#     Edge 59, Type (0, 1), None
#     Edge 60, Type (0, 1), None
#     Edge 61, Type (0, 1), None
#     Edge 62, Type (0, 1), None
#     Edge 63, Type (0, 1), None
#     Edge 64, Type (0, 1), None
#     Edge 65, Type (0, 1), None
#     Edge 66, Type (0, 1), None
#     Edge 67, Type (0, 1), None
#     Edge 68, Type (0, 1), None
#     Edge 69, Type (0, 1), None
#     Edge 70, Type (0, 1), None
#     Edge 71, Type (0, 1), None
#     Edge 72, Type (0, 1), None
#     Edge 73, Type (0, 1), None
#     Edge 74, Type (0, 1), None
#     Edge 75, Type (0, 1), None
#     Edge 76, Type (0, 1), None
#     Edge 77, Type (0, 1), None
#     Edge 78, Type (0, 1), None
#     Edge 79, Type (0, 1), None
#     Edge 80, Type (0, 1), None
#     Edge 81, Type (0, 1), None
#     Edge 82, Type (0, 1), None
#     Edge 83, Type (0, 1), None
#     Edge 84, Type (0, 1), None
#     Edge 85, Type (0, 1), None
#     Edge 86, Type (0, 1), None
#     Edge 87, Type (0, 1), None
#     Edge 88, Type (0, 1), None
#     Edge 89, Type (0, 1), None
#     Edge 90, Type (0, 1), None
#     Edge 91, Type (0, 1), None
#     Edge 92, Type (0, 1), None
#     Edge 93, Type (0, 1), None
#     Edge 94, Type (0, 1), None
#     Edge 95, Type (0, 1), None
#     Edge 96, Type (0, 1), None
#     Edge 97, Type (0, 1), None
#     Edge 98, Type (0, 1), None
#     Edge 99, Type (0, 1), None
#     Edge 100, Type (0, 1), None
#     Edge 101, Type (0, 1), None
# Relax obj value: 0.105
# Max RMSD: 0.163
# Mean RMSD: 0.132
data_MOF--net-llk--node1-QEWDON_clean_sbu_0--node2-BETDAH_clean_linker_0--edge1-none
_symmetry_space_group_name_H-M    P1
_symmetry_Int_Tables_number       1
_symmetry_cell_setting            triclinic
loop_
_symmetry_equiv_pos_as_xyz
'x, y, z'
_cell_length_a     23.927231
_cell_length_b     24.09628
_cell_length_c     24.757143
_cell_angle_alpha  90.183703
_cell_angle_beta   90.161048
_cell_angle_gamma 89.884435
loop_
_atom_site_label
_atom_site_type_symbol
_atom_site_fract_x
_atom_site_fract_y
_atom_site_fract_z
_atom_type_partial_charge
H0 H -0.01512 0.27336 0.39923 0.0
H1 H 0.04218 0.35753 0.25817 0.0
H2 H 0.03828 0.17862 0.26105 0.0
C3 C 0.00375 0.27188 0.35946 0.0
C4 C 0.01468 0.22022 0.33514 0.0
C5 C 0.01341 0.32144 0.33165 0.0
C6 C 0.0354 0.31899 0.27937 0.0
C7 C 0.04344 0.26759 0.25288 0.0
C8 C 0.03436 0.21822 0.28164 0.0
N9 N 0.05517 0.2652 0.19643 0.0
C10 C 0.05585 0.31333 0.16543 0.0
H11 H 0.57204 0.04339 0.20114 0.0
H12 H 0.72294 0.05715 0.2926 0.0
H13 H 0.73101 0.01716 0.12346 0.0
C14 C 0.61734 0.04509 0.20208 0.0
C15 C 0.64827 0.03256 0.1559 0.0
C16 C 0.64499 0.0533 0.25092 0.0
C17 C 0.70299 0.05188 0.25357 0.0
C18 C 0.73454 0.03891 0.20778 0.0
C19 C 0.70704 0.02954 0.15864 0.0
N20 N 0.793 0.03057 0.21188 0.0
C21 C 0.82005 0.03117 0.26166 0.0
H22 H -0.01336 0.59631 0.25262 0.0
H23 H 0.02447 0.74115 0.34541 0.0
H24 H 0.03787 0.746 0.17173 0.0
C25 C 0.00121 0.63892 0.25379 0.0
C26 C 0.01209 0.66733 0.20589 0.0
C27 C 0.00637 0.6653 0.30356 0.0
C28 C 0.02272 0.72077 0.30636 0.0
C29 C 0.03463 0.75021 0.25875 0.0
C30 C 0.02999 0.72305 0.2085 0.0
N31 N 0.04828 0.80755 0.26064 0.0
C32 C 0.03198 0.84098 0.30376 0.0
H33 H 0.2128 0.02676 0.35088 0.0
H34 H 0.32962 0.95947 0.23734 0.0
H35 H 0.15557 0.97355 0.1938 0.0
C36 C 0.22142 0.00982 0.31104 0.0
C37 C 0.1782 0.00341 0.27324 0.0
C38 C 0.27544 0.99375 0.2987 0.0
C39 C 0.28715 0.9711 0.24762 0.0
C40 C 0.24402 0.96412 0.20944 0.0
C41 C 0.18903 0.97897 0.22293 0.0
N42 N 0.25565 0.94382 0.15696 0.0
C43 C 0.29817 0.96659 0.12615 0.0
H44 H -0.00156 0.76644 0.59165 0.0
H45 H -0.01523 0.65861 0.7285 0.0
H46 H -0.01002 0.83451 0.75281 0.0
C47 C -0.00855 0.76113 0.63456 0.0
C48 C -0.0098 0.80798 0.66902 0.0
C49 C -0.01213 0.70703 0.65625 0.0
C50 C -0.01643 0.70026 0.71213 0.0
C51 C -0.01377 0.74619 0.74697 0.0
C52 C -0.01255 0.79958 0.72523 0.0
N53 N -0.00644 0.73955 0.8036 0.0
C54 C -0.01166 0.68843 0.82895 0.0
H55 H 0.26832 0.01451 0.62183 0.0
H56 H 0.36097 0.97611 0.76451 0.0
H57 H 0.18033 0.9663 0.76539 0.0
C58 C 0.26859 0.00205 0.66396 0.0
C59 C 0.21841 0.99124 0.68971 0.0
C60 C 0.31933 0.99637 0.69084 0.0
C61 C 0.32085 0.97956 0.74437 0.0
C62 C 0.27075 0.96955 0.77229 0.0
C63 C 0.21918 0.97378 0.74428 0.0
N64 N 0.27226 0.95927 0.82884 0.0
C65 C 0.31681 0.97915 0.85978 0.0
H66 H 0.01639 0.41825 0.74164 0.0
H67 H 0.01233 0.27504 0.63869 0.0
H68 H 0.96824 0.26025 0.80719 0.0
C69 C 0.00989 0.37394 0.73678 0.0
C70 C -0.00695 0.34212 0.78097 0.0
C71 C 0.01612 0.35009 0.68566 0.0
C72 C 0.00754 0.29305 0.67855 0.0
C73 C -0.00956 0.26005 0.72245 0.0
C74 C -0.01768 0.28513 0.77348 0.0
N75 N 0.9797 0.20225 0.71597 0.0
C76 C -0.00101 0.17079 0.67233 0.0
H77 H 0.78171 0.01552 0.62472 0.0
H78 H 0.66925 0.07657 0.74394 0.0
H79 H 0.84 0.039 0.78842 0.0
C80 C 0.77396 0.02697 0.66655 0.0
C81 C 0.81713 0.02503 0.70457 0.0
C82 C 0.72219 0.04791 0.6803 0.0
C83 C 0.71096 0.06263 0.7335 0.0
C84 C 0.75212 0.05662 0.77363 0.0
C85 C 0.80678 0.04048 0.75863 0.0
N86 N 0.73732 0.06395 0.82866 0.0
C87 C 0.68298 0.052 0.8452 0.0
H88 H 0.373 0.26735 0.01994 0.0
H89 H 0.22121 0.36132 0.00895 0.0
H90 H 0.21732 0.18219 -0.00234 0.0
C91 C 0.32773 0.2688 0.0165 0.0
C92 C 0.29854 0.21989 0.00893 0.0
C93 C 0.30026 0.31952 0.01619 0.0
C94 C 0.24205 0.32139 0.00941 0.0
C95 C 0.21126 0.27165 0.00368 0.0
C96 C 0.24002 0.2206 0.00371 0.0
N97 N 0.15228 0.27232 -0.00429 0.0
C98 C 0.12411 0.32051 0.98088 0.0
H99 H 0.3483 0.76515 0.9616 0.0
H100 H 0.21263 0.67353 0.02762 0.0
H101 H 0.2043 0.85267 0.02183 0.0
C102 C 0.30596 0.76476 0.97744 0.0
C103 C 0.2801 0.81469 -0.009 0.0
C104 C 0.28287 0.71443 -0.00733 0.0
C105 C 0.23011 0.7131 0.01572 0.0
C106 C 0.19916 0.76272 0.02149 0.0
C107 C 0.22584 0.81413 0.013 0.0
N108 N 0.14074 0.76008 0.03052 0.0
C109 C 0.11274 0.71488 0.00858 0.0
H110 H 0.8181 0.40629 0.00985 0.0
H111 H 0.72689 0.25996 0.96907 0.0
H112 H 0.90461 0.24944 -0.00259 0.0
C113 C 0.81782 0.36229 0.00039 0.0
C114 C 0.86783 0.33143 0.00211 0.0
C115 C 0.76722 0.33601 -0.01116 0.0
C116 C 0.76668 0.27926 0.97801 0.0
C117 C 0.81573 0.24717 0.98198 0.0
C118 C 0.86671 0.27377 -0.00687 0.0
N119 N 0.81315 0.1882 0.97917 0.0
C120 C 0.76177 0.16113 0.98053 0.0
H121 H 0.78043 0.6082 0.98052 0.0
H122 H 0.70452 0.76738 -0.0086 0.0
H123 H 0.88444 0.75343 -0.0039 0.0
C124 C 0.78514 0.65299 0.98125 0.0
C125 C 0.83828 0.67636 -0.01222 0.0
C126 C 0.73751 0.68629 -0.01559 0.0
C127 C 0.7426 0.74324 -0.01164 0.0
C128 C 0.79564 0.76852 -0.01204 0.0
C129 C 0.84367 0.73469 -0.00941 0.0
N130 N 0.80002 0.82728 -0.01521 0.0
C131 C 0.75183 0.85757 0.9738 0.0
H132 H 0.51801 0.76823 0.895 0.0
H133 H 0.51539 0.86041 0.74736 0.0
H134 H 0.50156 0.68152 0.7441 0.0
C135 C 0.518 0.76866 0.8511 0.0
C136 C 0.5101 0.71922 0.82291 0.0
C137 C 0.51809 0.81943 0.82451 0.0
C138 C 0.51586 0.82075 0.76781 0.0
C139 C 0.51243 0.77054 0.73815 0.0
C140 C 0.50758 0.71992 0.76625 0.0
N141 N 0.51117 0.76961 0.68061 0.0
C142 C 0.52003 0.81593 0.64813 0.0
H143 H 0.15265 0.55237 0.714 0.0
H144 H 0.29307 0.54144 0.81928 0.0
H145 H 0.31647 0.52752 0.64623 0.0
C146 C 0.19771 0.54947 0.71921 0.0
C147 C 0.23202 0.5412 0.67437 0.0
C148 C 0.21943 0.54929 0.77089 0.0
C149 C 0.27702 0.54233 0.77842 0.0
C150 C 0.31304 0.53552 0.73352 0.0
C151 C 0.28994 0.53444 0.68102 0.0
N152 N 0.37159 0.52741 0.74071 0.0
C153 C 0.39488 0.51942 0.79173 0.0
H154 H 0.49904 0.11553 0.75243 0.0
H155 H 0.47214 0.26559 0.84049 0.0
H156 H 0.47587 0.26899 0.66625 0.0
C157 C 0.48822 0.15929 0.75246 0.0
C158 C 0.48444 0.1882 0.7033 0.0
C159 C 0.4841 0.18759 0.80173 0.0
C160 C 0.47372 0.2444 0.80186 0.0
C161 C 0.47176 0.27457 0.75322 0.0
C162 C 0.47622 0.24603 0.70383 0.0
N163 N 0.47229 0.33361 0.75421 0.0
C164 C 0.48874 0.36117 0.80111 0.0
H165 H 0.68693 0.49564 0.91307 0.0
H166 H 0.79213 0.48418 0.77429 0.0
H167 H 0.61486 0.50652 0.75354 0.0
C168 C 0.69117 0.49251 0.86955 0.0
C169 C 0.64394 0.49727 0.83582 0.0
C170 C 0.7443 0.48806 0.84692 0.0
C171 C 0.75041 0.48734 0.79102 0.0
C172 C 0.70425 0.49563 0.75707 0.0
C173 C 0.65063 0.49896 0.7795 0.0
N174 N 0.71194 0.50721 0.70152 0.0
C175 C 0.76454 0.5179 0.68006 0.0
H176 H 0.49349 0.27929 0.09162 0.0
H177 H 0.50185 0.17592 0.232 0.0
H178 H 0.5226 0.3526 0.24748 0.0
C179 C 0.49412 0.27563 0.13536 0.0
C180 C 0.50625 0.32248 0.16638 0.0
C181 C 0.49627 0.22285 0.15836 0.0
C182 C 0.49981 0.21709 0.21462 0.0
C183 C 0.50502 0.2644 0.24783 0.0
C184 C 0.51144 0.31689 0.22305 0.0
N185 N 0.50926 0.25957 0.30522 0.0
C186 C 0.49197 0.21292 0.33436 0.0
H187 H 0.74332 0.48595 0.10615 0.0
H188 H 0.80243 0.50038 0.26819 0.0
H189 H 0.62504 0.49948 0.23593 0.0
C190 C 0.73439 0.48616 0.14914 0.0
C191 C 0.67905 0.48979 0.16663 0.0
C192 C 0.77842 0.49173 0.1858 0.0
C193 C 0.76739 0.49559 0.24092 0.0
C194 C 0.71166 0.49582 0.25985 0.0
C195 C 0.66769 0.49385 0.22223 0.0
N196 N 0.69935 0.50212 0.31577 0.0
C197 C 0.74222 0.50671 0.35336 0.0
H198 H 0.48645 0.91122 0.24201 0.0
H199 H 0.54451 0.77852 0.14238 0.0
H200 H 0.54661 0.75961 0.31523 0.0
C201 C 0.50499 0.87026 0.23869 0.0
C202 C 0.51888 0.83976 0.28546 0.0
C203 C 0.51433 0.84811 0.18731 0.0
C204 C 0.53774 0.79541 0.18244 0.0
C205 C 0.5467 0.76194 0.22795 0.0
C206 C 0.53972 0.78512 0.27985 0.0
N207 N 0.55546 0.70386 0.22095 0.0
C208 C 0.5365 0.67811 0.17366 0.0
H209 H 0.28536 0.55919 0.07218 0.0
H210 H 0.19624 0.56989 0.2212 0.0
H211 H 0.37192 0.53347 0.22237 0.0
C212 C 0.28622 0.56284 0.11586 0.0
C213 C 0.33592 0.55082 0.1442 0.0
C214 C 0.23576 0.56979 0.14387 0.0
C215 C 0.23587 0.56725 0.20022 0.0
C216 C 0.28477 0.55351 0.22868 0.0
C217 C 0.33496 0.54724 0.2007 0.0
N218 N 0.28253 0.5374 0.28359 0.0
C219 C 0.23217 0.52532 0.3086 0.0
H220 H 0.91616 0.76905 0.50625 0.0
H221 H 0.76867 0.863 0.4686 0.0
H222 H 0.76276 0.68462 0.4681 0.0
C223 C 0.87329 0.77039 0.49193 0.0
C224 C 0.84388 0.72047 0.48363 0.0
C225 C 0.84645 0.82191 0.48588 0.0
C226 C 0.78976 0.82328 0.47132 0.0
C227 C 0.75911 0.77388 0.46534 0.0
C228 C 0.78681 0.72267 0.47014 0.0
N229 N 0.69988 0.77455 0.45947 0.0
C230 C 0.66785 0.82298 0.46025 0.0
H231 H 0.9114 0.25467 0.48776 0.0
H232 H 0.75491 0.17134 0.50493 0.0
H233 H 0.76003 0.34929 0.51163 0.0
C234 C 0.86618 0.25697 0.48958 0.0
C235 C 0.83961 0.30871 0.49644 0.0
C236 C 0.83546 0.20753 0.49272 0.0
C237 C 0.77755 0.20984 0.49959 0.0
C238 C 0.74999 0.26089 0.5064 0.0
C239 C 0.78117 0.31013 0.50448 0.0
N240 N 0.6922 0.2629 0.52006 0.0
C241 C 0.65694 0.21805 0.51025 0.0
H242 H 0.26453 0.91896 0.47868 0.0
H243 H 0.15276 0.77999 0.48527 0.0
H244 H 0.32491 0.7604 0.5338 0.0
C245 C 0.25743 0.87534 0.48687 0.0
C246 C 0.3014 0.84225 0.50612 0.0
C247 C 0.20421 0.85269 0.4786 0.0
C248 C 0.19444 0.79672 0.49045 0.0
C249 C 0.23792 0.76302 0.51043 0.0
C250 C 0.29147 0.786 0.5178 0.0
N251 N 0.22847 0.70671 0.52494 0.0
C252 C 0.18404 0.67538 0.50492 0.0
H253 H 0.26372 0.10573 0.4709 0.0
H254 H 0.16372 0.24915 0.50834 0.0
H255 H 0.34208 0.25462 0.53027 0.0
C256 C 0.2611 0.14884 0.48346 0.0
C257 C 0.30987 0.17756 0.49776 0.0
C258 C 0.20844 0.17394 0.48911 0.0
C259 C 0.20439 0.22942 0.5057 0.0
C260 C 0.25291 0.25911 0.51939 0.0
C261 C 0.30515 0.23261 0.5166 0.0
N262 N 0.25012 0.31483 0.53792 0.0
C263 C 0.21044 0.35248 0.51934 0.0
Zn264 Zn 0.93518 0.97031 0.38007 0.0
Zn265 Zn 0.9053 0.10176 0.39947 0.0
O266 O 0.96362 0.04284 0.41139 0.0
H267 H -0.01323 0.04428 0.44325 0.0
C268 C 0.874 0.87424 0.50237 0.0
O269 O 0.86158 0.92048 0.47704 0.0
Zn270 Zn 0.10747 0.078 0.57547 0.0
Zn271 Zn 0.06089 0.95508 0.60993 0.0
O272 O 0.04804 0.02007 0.55868 0.0
H273 H 0.02345 0.01978 0.52776 0.0
Zn274 Zn 0.92154 0.95315 0.58407 0.0
O275 O 0.91628 0.02167 0.53663 0.0
Zn276 Zn 0.91859 0.08595 0.58835 0.0
H277 H 0.89861 0.02144 0.50154 0.0
Zn278 Zn 0.09273 0.95847 0.38636 0.0
O279 O 0.08752 0.02634 0.43388 0.0
H280 H 0.10392 0.02289 0.4693 0.0
Zn281 Zn 0.09239 0.09337 0.38573 0.0
C282 C 0.15827 0.88868 0.46067 0.0
O283 O 0.12723 0.91412 0.49672 0.0
O284 O 0.87646 0.98762 0.32388 0.0
O285 O 0.85047 0.07498 0.34119 0.0
O286 O 0.12692 0.96603 0.66232 0.0
O287 O 0.16681 0.03906 0.62209 0.0
O288 O 0.88073 0.97253 0.65611 0.0
O289 O 0.8902 0.06414 0.66108 0.0
C290 C -0.01014 0.17081 0.35996 0.0
O291 O 0.09124 0.9818 0.30636 0.0
O292 O 0.12319 0.06745 0.31493 0.0
O293 O 0.02646 0.87465 0.60581 0.0
C294 C 0.84827 0.03063 0.31272 0.0
O295 O -0.01448 0.9196 0.33364 0.0
C296 C 0.02485 0.13989 0.62894 0.0
O297 O 0.90043 0.87669 0.54708 0.0
C298 C 0.16709 0.00017 0.65767 0.0
O299 O 0.1519 0.89952 0.41079 0.0
C300 C 0.86384 0.15642 0.5094 0.0
O301 O 0.93765 0.1702 0.36725 0.0
O302 O 0.01776 0.12914 0.37602 0.0
C303 C 0.87217 0.01871 0.68035 0.0
O304 O 0.0775 0.1382 0.6255 0.0
O305 O -0.00278 0.10938 0.59682 0.0
C306 C 0.15896 0.14384 0.47054 0.0
O307 O 0.8713 0.14882 0.55969 0.0
O308 O 0.88466 0.12164 0.47638 0.0
C309 C 0.12258 0.02088 0.29021 0.0
O310 O 0.14818 0.14455 0.42021 0.0
O311 O 0.12999 0.11318 0.50185 0.0
C312 C -0.00012 0.8654 0.64921 0.0
O313 O -0.00863 0.90748 0.68208 0.0
C314 C 0.01402 0.8773 0.34637 0.0
O315 O 0.01828 0.86201 0.39703 0.0
Zn316 Zn 0.40287 0.08235 0.0573 0.0
Zn317 Zn 0.41183 0.10716 0.92727 0.0
O318 O 0.44229 0.05964 -0.01216 0.0
H319 H 0.47355 0.03435 -0.01454 0.0
C320 C 0.51068 0.17694 0.12204 0.0
O321 O 0.47629 0.16467 0.08242 0.0
Zn322 Zn 0.60185 0.93381 0.91066 0.0
Zn323 Zn 0.59789 0.92526 0.02927 0.0
O324 O 0.57449 0.98054 0.97194 0.0
H325 H 0.57745 0.01987 0.97882 0.0
Zn326 Zn 0.59591 0.12797 0.04782 0.0
O327 O 0.5457 0.1313 0.98228 0.0
Zn328 Zn 0.59589 0.12583 0.91848 0.0
H329 H 0.51093 0.1517 0.9827 0.0
Zn330 Zn 0.4112 0.91459 0.05966 0.0
O331 O 0.46562 0.91419 -0.00386 0.0
H332 H 0.505 0.90587 -0.003 0.0
Zn333 Zn 0.41724 0.91344 0.93112 0.0
C334 C 0.49421 0.87591 0.13804 0.0
O335 O 0.52234 0.86977 0.09301 0.0
O336 O 0.34297 0.14163 0.04419 0.0
O337 O 0.36053 0.16528 0.95885 0.0
O338 O 0.66819 0.88032 0.01526 0.0
O339 O 0.67861 0.90336 0.92975 0.0
O340 O 0.68036 0.13881 0.02789 0.0
O341 O 0.67617 0.14545 0.93785 0.0
C342 C 0.35892 0.01185 0.88659 0.0
O343 O 0.33508 0.87829 0.03807 0.0
O344 O 0.34626 0.87124 0.94899 0.0
O345 O 0.63382 0.96323 0.09211 0.0
C346 C 0.33238 0.17022 0.00237 0.0
O347 O 0.37523 0.02456 0.11214 0.0
C348 C 0.62991 0.02709 0.85734 0.0
O349 O 0.56237 0.16501 0.11732 0.0
C350 C 0.69809 0.88371 0.97338 0.0
O351 O 0.44477 0.89531 0.13594 0.0
C352 C 0.50861 0.16304 0.85039 0.0
O353 O 0.35874 0.06385 0.88053 0.0
O354 O 0.3974 0.99064 0.915 0.0
C355 C 0.7038 0.1455 0.98206 0.0
O356 O 0.62339 0.9765 0.84579 0.0
O357 O 0.59574 0.04957 0.88966 0.0
C358 C 0.50997 0.86874 0.85847 0.0
O359 O 0.56113 0.168 0.85761 0.0
O360 O 0.47933 0.1389 0.88631 0.0
C361 C 0.31759 0.86269 -0.00826 0.0
O362 O 0.45842 0.88046 0.86592 0.0
O363 O 0.54381 0.874 0.89795 0.0
C364 C 0.61908 0.01041 0.10904 0.0
O365 O 0.57313 0.03356 0.09066 0.0
C366 C 0.33593 0.99612 0.09189 0.0
O367 O 0.32346 0.00221 0.04061 0.0
Zn368 Zn 0.90481 0.43052 0.90277 0.0
Zn369 Zn 0.8954 0.56614 0.90741 0.0
O370 O 0.95 0.50274 0.90477 0.0
H371 H -0.01156 0.50475 0.91662 0.0
C372 C 0.9178 0.35912 0.02318 0.0
O373 O 0.94281 0.39549 -0.0077 0.0
Zn374 Zn 0.07168 0.59987 0.06621 0.0
Zn375 Zn 0.09168 0.47173 0.0996 0.0
O376 O 0.03901 0.52336 0.06022 0.0
H377 H 0.02705 0.51187 0.02463 0.0
Zn378 Zn 0.93071 0.44486 0.10605 0.0
O379 O 0.9318 0.50806 0.05133 0.0
Zn380 Zn 0.91476 0.57178 0.1002 0.0
H381 H 0.91731 0.50226 0.01532 0.0
Zn382 Zn 0.11538 0.47287 0.89084 0.0
O383 O 0.09989 0.53668 0.94144 0.0
H384 H 0.11924 0.53818 0.97573 0.0
Zn385 Zn 0.08994 0.59964 0.88756 0.0
C386 C 0.10481 0.3736 0.96233 0.0
O387 O 0.07751 0.40687 -0.00503 0.0
O388 O 0.82226 0.44603 0.88593 0.0
O389 O 0.81834 0.53859 0.88483 0.0
O390 O 0.16382 0.50882 0.12241 0.0
O391 O 0.1528 0.5967 0.09614 0.0
O392 O 0.8655 0.45656 0.15888 0.0
O393 O 0.8472 0.54564 0.14276 0.0
C394 C 0.97188 0.63648 0.85199 0.0
O395 O 0.17445 0.49849 0.83783 0.0
O396 O 0.14674 0.58628 0.82595 0.0
O397 O 0.08515 0.38563 0.10947 0.0
C398 C 0.79537 0.49105 0.87917 0.0
O399 O 0.93486 0.36537 0.85498 0.0
C400 C 0.00254 0.63836 0.15409 0.0
O401 O 0.91825 0.36677 0.07384 0.0
C402 C 0.18226 0.55794 0.11711 0.0
O403 O 0.1236 0.39179 0.91797 0.0
C404 C 0.88145 0.6392 0.00953 0.0
O405 O 0.92007 0.6275 0.85801 0.0
O406 O 0.00685 0.60162 0.87087 0.0
C407 C 0.83491 0.4993 0.1646 0.0
O408 O 0.02992 0.65379 0.1131 0.0
O409 O 0.97578 0.59258 0.15387 0.0
C410 C 0.0921 0.6725 0.97328 0.0
O411 O 0.88889 0.64027 0.06024 0.0
O412 O 0.89859 0.59685 0.98354 0.0
C413 C 0.17992 0.54569 0.81572 0.0
O414 O 0.10556 0.67313 0.92387 0.0
O415 O 0.07147 0.62833 -0.00828 0.0
C416 C 0.04801 0.3667 0.14076 0.0
O417 O 0.01116 0.40079 0.16171 0.0
C418 C -0.018 0.37127 0.83245 0.0
O419 O 0.01268 0.41443 0.8457 0.0
Zn420 Zn 0.37618 0.47144 0.96132 0.0
Zn421 Zn 0.4326 0.42737 0.07007 0.0
O422 O 0.44939 0.47351 0.00392 0.0
H423 H 0.47489 0.50434 0.0019 0.0
C424 C 0.51369 0.38496 0.84862 0.0
O425 O 0.48246 0.41209 0.88322 0.0
Zn426 Zn 0.60172 0.60144 0.06348 0.0
Zn427 Zn 0.59011 0.59588 0.93809 0.0
O428 O 0.58267 0.54717 0.00438 0.0
H429 H 0.56836 0.50988 0.00619 0.0
Zn430 Zn 0.6036 0.39265 0.93439 0.0
O431 O 0.56008 0.39895 0.00429 0.0
Zn432 Zn 0.6165 0.40621 0.06534 0.0
H433 H 0.52281 0.38386 0.00671 0.0
Zn434 Zn 0.41745 0.61805 0.92732 0.0
O435 O 0.46804 0.62441 -0.00612 0.0
H436 H 0.50828 0.62502 -0.00704 0.0
Zn437 Zn 0.41848 0.62445 0.0593 0.0
C438 C 0.49742 0.67018 0.85564 0.0
O439 O 0.52672 0.66311 0.89979 0.0
O440 O 0.32325 0.40971 -0.0124 0.0
O441 O 0.37966 0.36768 0.04705 0.0
O442 O 0.66161 0.63979 0.94588 0.0
O443 O 0.66099 0.65427 0.03501 0.0
O444 O 0.68469 0.36814 0.94816 0.0
O445 O 0.69288 0.3773 0.03798 0.0
C446 C 0.38091 0.52219 0.11534 0.0
O447 O 0.3421 0.653 0.94872 0.0
O448 O 0.34568 0.6592 0.03871 0.0
O449 O 0.58153 0.56487 0.86076 0.0
C450 C 0.33477 0.3694 0.01889 0.0
O451 O 0.3731 0.48707 0.87786 0.0
C452 C 0.63975 0.51309 0.12771 0.0
O453 O 0.56344 0.37139 0.8613 0.0
C454 C 0.68263 0.66076 -0.01168 0.0
O455 O 0.44808 0.65098 0.85442 0.0
C456 C 0.53307 0.36817 0.13666 0.0
O457 O 0.38675 0.47056 0.12246 0.0
O458 O 0.41029 0.54565 0.07968 0.0
C459 C 0.71338 0.36519 -0.00846 0.0
O460 O 0.63562 0.5653 0.12691 0.0
O461 O 0.6199 0.48571 0.0882 0.0
C462 C 0.50589 0.65681 0.12773 0.0
O463 O 0.5857 0.36464 0.12977 0.0
O464 O 0.5058 0.39958 0.10446 0.0
C465 C 0.32088 0.66747 -0.00619 0.0
O466 O 0.45358 0.66438 0.12417 0.0
O467 O 0.52944 0.63185 0.08892 0.0
C468 C 0.59091 0.51333 0.86051 0.0
O469 O 0.57512 0.4854 0.90304 0.0
C470 C 0.40889 0.51021 0.84754 0.0
O471 O 0.45594 0.52896 0.86773 0.0
Zn472 Zn 0.90534 0.4495 0.4058 0.0
Zn473 Zn 0.89419 0.58678 0.40899 0.0
O474 O 0.94626 0.52143 0.41706 0.0
H475 H -0.01549 0.52227 0.42893 0.0
C476 C 0.87368 0.35943 0.50541 0.0
O477 O 0.92815 0.35833 0.49889 0.0
Zn478 Zn 0.09835 0.59308 0.57929 0.0
Zn479 Zn 0.10768 0.4597 0.58323 0.0
O480 O 0.0522 0.52436 0.58299 0.0
H481 H 0.01221 0.52156 0.57901 0.0
Zn482 Zn 0.89077 0.46441 0.5714 0.0
O483 O 0.91015 0.53782 0.53615 0.0
Zn484 Zn 0.89936 0.59771 0.59183 0.0
H485 H 0.94206 0.54029 0.51274 0.0
Zn486 Zn 0.11309 0.44826 0.41468 0.0
O487 O 0.08524 0.51866 0.44987 0.0
H488 H 0.0634 0.51902 0.48253 0.0
Zn489 Zn 0.09275 0.58113 0.39581 0.0
C490 C 0.17628 0.39494 0.49552 0.0
O491 O 0.19293 0.4467 0.49829 0.0
O492 O 0.82267 0.46454 0.38573 0.0
O493 O 0.81875 0.5575 0.38357 0.0
O494 O 0.18454 0.48685 0.61253 0.0
O495 O 0.17288 0.57839 0.61175 0.0
O496 O 0.83554 0.47876 0.6312 0.0
O497 O 0.8393 0.57029 0.6454 0.0
C498 C -0.01716 0.63751 0.35015 0.0
O499 O 0.17585 0.47343 0.36489 0.0
O500 O 0.14384 0.55525 0.3352 0.0
O501 O 0.07958 0.38875 0.62341 0.0
C502 C 0.79589 0.50982 0.37875 0.0
O503 O 0.94753 0.37687 0.37997 0.0
C504 C 0.00971 0.65905 0.62617 0.0
O505 O 0.8516 0.40033 0.52977 0.0
C506 C 0.20175 0.53568 0.62357 0.0
O507 O 0.13749 0.38209 0.46282 0.0
C508 C 0.86679 0.66929 0.50731 0.0
O509 O 0.9299 0.6372 0.35509 0.0
O510 O 0.01252 0.60702 0.38075 0.0
C511 C 0.81769 0.5225 0.65384 0.0
O512 O 0.06225 0.65591 0.61994 0.0
O513 O 0.97956 0.61877 0.60978 0.0
C514 C 0.14037 0.64485 0.47796 0.0
O515 O 0.86893 0.6664 0.55827 0.0
O516 O 0.88253 0.62711 0.48011 0.0
C517 C 0.18012 0.51619 0.3353 0.0
O518 O 0.13885 0.64369 0.42705 0.0
O519 O 0.10697 0.61359 0.50303 0.0
C520 C 0.02956 0.38668 0.64032 0.0
O521 O -0.00482 0.42755 0.629 0.0
C522 C -0.0068 0.37512 0.3536 0.0
O523 O 0.01781 0.42168 0.33989 0.0
Zn524 Zn 0.42366 0.95283 0.39171 0.0
Zn525 Zn 0.39109 0.08649 0.40162 0.0
O526 O 0.45468 0.03006 0.40184 0.0
H527 H 0.49268 0.03489 0.38988 0.0
C528 C 0.35606 0.86804 0.51756 0.0
O529 O 0.40212 0.84744 0.49682 0.0
Zn530 Zn 0.58198 0.10936 0.58732 0.0
Zn531 Zn 0.59311 0.97048 0.58625 0.0
O532 O 0.53993 0.03607 0.58552 0.0
H533 H 0.50844 0.02749 0.60815 0.0
Zn534 Zn 0.4254 0.95846 0.57562 0.0
O535 O 0.44545 0.02883 0.53235 0.0
Zn536 Zn 0.42319 0.08678 0.58752 0.0
H537 H 0.4721 0.03209 0.50337 0.0
Zn538 Zn 0.59389 0.97655 0.39873 0.0
O539 O 0.58552 0.04305 0.44882 0.0
H540 H 0.57346 0.03934 0.48577 0.0
Zn541 Zn 0.57962 0.11168 0.40148 0.0
C542 C 0.63509 0.8732 0.45798 0.0
O543 O 0.59481 0.88187 0.49286 0.0
O544 O 0.35074 0.96117 0.35023 0.0
O545 O 0.32816 0.05117 0.35755 0.0
O546 O 0.66289 -0.00018 0.62291 0.0
O547 O 0.6507 0.09188 0.631 0.0
O548 O 0.40807 0.97534 0.65592 0.0
O549 O 0.36529 0.05193 0.62979 0.0
C550 C 0.46887 0.16707 0.3649 0.0
O551 O 0.60713 0.00307 0.32139 0.0
O552 O 0.61122 0.09537 0.32907 0.0
O553 O 0.56852 0.89734 0.62633 0.0
C554 C 0.3197 0.00231 0.33868 0.0
O555 O 0.46829 0.90201 0.34039 0.0
C556 C 0.49545 0.15811 0.65257 0.0
O557 O 0.35789 0.91126 0.54714 0.0
C558 C 0.67757 0.04718 0.64073 0.0
O559 O 0.64221 0.9065 0.41894 0.0
C560 C 0.36082 0.1453 0.50988 0.0
O561 O 0.4166 0.15812 0.36421 0.0
O562 O 0.4993 0.13267 0.39033 0.0
C563 C 0.36948 0.01112 0.66163 0.0
O564 O 0.54002 0.16974 0.62748 0.0
O565 O 0.47568 0.10972 0.64762 0.0
C566 C 0.62397 0.17526 0.48542 0.0
O567 O 0.38064 0.15026 0.55708 0.0
O568 O 0.37809 0.10464 0.4812 0.0
C569 C 0.61532 0.05102 0.3015 0.0
O570 O 0.62191 0.17403 0.43439 0.0
O571 O 0.59887 0.13733 0.51164 0.0
C572 C 0.52932 0.86389 0.61463 0.0
O573 O 0.49807 0.87239 0.57184 0.0
C574 C 0.50502 0.86392 0.33884 0.0
O575 O 0.52818 0.84581 0.38361 0.0
loop_
_geom_bond_atom_site_label_1
_geom_bond_atom_site_label_2
_geom_bond_distance
_geom_bond_site_symmetry_2
_ccdc_geom_bond_type
H0 C3 0.929 . S
H1 C6 0.929 . S
H2 C8 0.930 . S
C3 H0 0.929 . S
C3 C4 1.398 . S
C3 C5 1.396 . S
C4 C3 1.398 . S
C4 C8 1.407 . S
C5 C3 1.396 . S
C5 C6 1.394 . S
C6 H1 0.929 . S
C6 C5 1.394 . S
C6 C7 1.382 . S
C7 C6 1.382 . S
C7 C8 1.392 . S
C7 N9 1.420 . S
C8 H2 0.930 . S
C8 C4 1.407 . S
C8 C7 1.392 . S
N9 C7 1.420 . S
N9 C10 1.244 . S
C10 N9 1.244 . S
H11 C14 0.929 . S
H12 C17 0.929 . S
H13 C19 0.930 . S
C14 H11 0.929 . S
C14 C15 1.398 . S
C14 C16 1.396 . S
C15 C14 1.398 . S
C15 C19 1.407 . S
C16 C14 1.396 . S
C16 C17 1.394 . S
C17 H12 0.929 . S
C17 C16 1.394 . S
C17 C18 1.382 . S
C18 C17 1.382 . S
C18 C19 1.392 . S
C18 N20 1.420 . S
C19 H13 0.930 . S
C19 C15 1.407 . S
C19 C18 1.392 . S
N20 C18 1.420 . S
N20 C21 1.244 . S
C21 N20 1.244 . S
H22 C25 0.929 . S
H23 C28 0.929 . S
H24 C30 0.930 . S
C25 H22 0.929 . S
C25 C26 1.398 . S
C25 C27 1.396 . S
C26 C25 1.398 . S
C26 C30 1.407 . S
C27 C25 1.396 . S
C27 C28 1.394 . S
C28 H23 0.929 . S
C28 C27 1.394 . S
C28 C29 1.382 . S
C29 C28 1.382 . S
C29 C30 1.392 . S
C29 N31 1.420 . S
C30 H24 0.930 . S
C30 C26 1.407 . S
C30 C29 1.392 . S
N31 C29 1.420 . S
N31 C32 1.244 . S
C32 N31 1.244 . S
H33 C36 0.929 . S
H34 C39 0.929 . S
H35 C41 0.930 . S
C36 H33 0.929 . S
C36 C37 1.398 1_545 S
C36 C38 1.397 . S
C37 C36 1.398 1_565 S
C37 C41 1.408 . S
C38 C36 1.397 . S
C38 C39 1.393 1_545 S
C39 H34 0.929 . S
C39 C38 1.393 1_565 S
C39 C40 1.382 . S
C40 C39 1.382 . S
C40 C41 1.392 . S
C40 N42 1.420 . S
C41 H35 0.930 . S
C41 C37 1.408 . S
C41 C40 1.392 . S
N42 C40 1.420 . S
N42 C43 1.244 1_565 S
C43 N42 1.244 1_545 S
H44 C47 0.929 . S
H45 C50 0.929 . S
H46 C52 0.930 . S
C47 H44 0.929 . S
C47 C48 1.398 1_655 S
C47 C49 1.396 1_655 S
C48 C47 1.398 1_455 S
C48 C52 1.407 . S
C49 C47 1.396 1_455 S
C49 C50 1.394 . S
C50 H45 0.929 . S
C50 C49 1.394 . S
C50 C51 1.382 . S
C51 C50 1.382 . S
C51 C52 1.392 . S
C51 N53 1.420 . S
C52 H46 0.930 . S
C52 C48 1.407 . S
C52 C51 1.392 . S
N53 C51 1.420 . S
N53 C54 1.244 1_455 S
C54 N53 1.244 1_655 S
H55 C58 0.933 . S
H56 C61 0.929 . S
H57 C63 0.930 . S
C58 H55 0.933 . S
C58 C59 1.396 1_565 S
C58 C60 1.394 1_565 S
C59 C58 1.396 1_545 S
C59 C63 1.407 . S
C60 C58 1.394 1_545 S
C60 C61 1.394 . S
C61 H56 0.929 . S
C61 C60 1.394 . S
C61 C62 1.382 . S
C62 C61 1.382 . S
C62 C63 1.392 . S
C62 N64 1.420 . S
C63 H57 0.930 . S
C63 C59 1.407 . S
C63 C62 1.392 . S
N64 C62 1.420 . S
N64 C65 1.244 . S
C65 N64 1.244 . S
H66 C69 0.929 . S
H67 C72 0.929 . S
H68 C74 0.930 . S
C69 H66 0.929 . S
C69 C70 1.398 . S
C69 C71 1.396 . S
C70 C69 1.398 . S
C70 C74 1.407 . S
C71 C69 1.396 . S
C71 C72 1.394 . S
C72 H67 0.929 . S
C72 C71 1.394 . S
C72 C73 1.382 . S
C73 C72 1.382 . S
C73 C74 1.392 . S
C73 N75 1.420 . S
C74 H68 0.930 . S
C74 C70 1.407 . S
C74 C73 1.392 . S
N75 C73 1.420 . S
N75 C76 1.244 . S
C76 N75 1.244 . S
H77 C80 0.929 . S
H78 C83 0.929 . S
H79 C85 0.930 . S
C80 H77 0.929 . S
C80 C81 1.398 . S
C80 C82 1.396 . S
C81 C80 1.398 . S
C81 C85 1.407 . S
C82 C80 1.396 . S
C82 C83 1.394 . S
C83 H78 0.929 . S
C83 C82 1.394 . S
C83 C84 1.382 . S
C84 C83 1.382 . S
C84 C85 1.392 . S
C84 N86 1.420 . S
C85 H79 0.930 . S
C85 C81 1.407 . S
C85 C84 1.392 . S
N86 C84 1.420 . S
N86 C87 1.244 . S
C87 N86 1.244 . S
H88 C91 0.929 . S
H89 C94 0.929 . S
H90 C96 0.930 1_556 S
C91 H88 0.929 . S
C91 C92 1.398 . S
C91 C93 1.396 . S
C92 C91 1.398 . S
C92 C96 1.407 . S
C93 C91 1.396 . S
C93 C94 1.394 . S
C94 H89 0.929 . S
C94 C93 1.394 . S
C94 C95 1.382 . S
C95 C94 1.382 . S
C95 C96 1.392 . S
C95 N97 1.420 1_554 S
C96 H90 0.930 1_554 S
C96 C92 1.407 . S
C96 C95 1.392 . S
N97 C95 1.420 1_556 S
N97 C98 1.244 1_556 S
C98 N97 1.244 1_554 S
H99 C102 0.929 . S
H100 C105 0.929 . S
H101 C107 0.930 . S
C102 H99 0.929 . S
C102 C103 1.398 . S
C102 C104 1.396 . S
C103 C102 1.398 . S
C103 C107 1.407 . S
C104 C102 1.396 . S
C104 C105 1.394 . S
C105 H100 0.929 . S
C105 C104 1.394 . S
C105 C106 1.382 . S
C106 C105 1.382 . S
C106 C107 1.392 . S
C106 N108 1.420 . S
C107 H101 0.930 . S
C107 C103 1.407 . S
C107 C106 1.392 . S
N108 C106 1.420 . S
N108 C109 1.244 . S
C109 N108 1.244 . S
H110 C113 0.929 . S
H111 C116 0.929 . S
H112 C118 0.930 . S
C113 H110 0.929 . S
C113 C114 1.397 1_554 S
C113 C115 1.397 . S
C114 C113 1.397 1_556 S
C114 C118 1.410 . S
C115 C113 1.397 . S
C115 C116 1.391 1_554 S
C116 H111 0.929 . S
C116 C115 1.391 1_556 S
C116 C117 1.382 . S
C117 C116 1.382 . S
C117 C118 1.392 . S
C117 N119 1.420 . S
C118 H112 0.930 . S
C118 C114 1.410 . S
C118 C117 1.392 . S
N119 C117 1.420 . S
N119 C120 1.244 1_556 S
C120 N119 1.244 1_554 S
H121 C124 0.932 . S
H122 C127 0.929 . S
H123 C129 0.930 . S
C124 H121 0.932 . S
C124 C125 1.397 1_556 S
C124 C126 1.395 1_556 S
C125 C124 1.397 1_554 S
C125 C129 1.407 . S
C126 C124 1.395 1_554 S
C126 C127 1.394 . S
C127 H122 0.929 . S
C127 C126 1.394 . S
C127 C128 1.382 . S
C128 C127 1.382 . S
C128 C129 1.392 . S
C128 N130 1.420 . S
C129 H123 0.930 . S
C129 C125 1.407 . S
C129 C128 1.392 . S
N130 C128 1.420 . S
N130 C131 1.244 . S
C131 N130 1.244 . S
H132 C135 0.929 . S
H133 C138 0.929 . S
H134 C140 0.930 . S
C135 H132 0.929 . S
C135 C136 1.398 . S
C135 C137 1.396 . S
C136 C135 1.398 . S
C136 C140 1.407 . S
C137 C135 1.396 . S
C137 C138 1.394 . S
C138 H133 0.929 . S
C138 C137 1.394 . S
C138 C139 1.382 . S
C139 C138 1.382 . S
C139 C140 1.392 . S
C139 N141 1.420 . S
C140 H134 0.930 . S
C140 C136 1.407 . S
C140 C139 1.392 . S
N141 C139 1.420 . S
N141 C142 1.244 . S
C142 N141 1.244 . S
H143 C146 0.929 . S
H144 C149 0.929 . S
H145 C151 0.930 . S
C146 H143 0.929 . S
C146 C147 1.398 . S
C146 C148 1.396 . S
C147 C146 1.398 . S
C147 C151 1.407 . S
C148 C146 1.396 . S
C148 C149 1.394 . S
C149 H144 0.929 . S
C149 C148 1.394 . S
C149 C150 1.382 . S
C150 C149 1.382 . S
C150 C151 1.392 . S
C150 N152 1.420 . S
C151 H145 0.930 . S
C151 C147 1.407 . S
C151 C150 1.392 . S
N152 C150 1.420 . S
N152 C153 1.244 . S
C153 N152 1.244 . S
H154 C157 0.929 . S
H155 C160 0.929 . S
H156 C162 0.930 . S
C157 H154 0.929 . S
C157 C158 1.398 . S
C157 C159 1.396 . S
C158 C157 1.398 . S
C158 C162 1.407 . S
C159 C157 1.396 . S
C159 C160 1.394 . S
C160 H155 0.929 . S
C160 C159 1.394 . S
C160 C161 1.382 . S
C161 C160 1.382 . S
C161 C162 1.392 . S
C161 N163 1.420 . S
C162 H156 0.930 . S
C162 C158 1.407 . S
C162 C161 1.392 . S
N163 C161 1.420 . S
N163 C164 1.244 . S
C164 N163 1.244 . S
H165 C168 0.929 . S
H166 C171 0.929 . S
H167 C173 0.930 . S
C168 H165 0.929 . S
C168 C169 1.398 . S
C168 C170 1.396 . S
C169 C168 1.398 . S
C169 C173 1.407 . S
C170 C168 1.396 . S
C170 C171 1.394 . S
C171 H166 0.929 . S
C171 C170 1.394 . S
C171 C172 1.382 . S
C172 C171 1.382 . S
C172 C173 1.392 . S
C172 N174 1.420 . S
C173 H167 0.930 . S
C173 C169 1.407 . S
C173 C172 1.392 . S
N174 C172 1.420 . S
N174 C175 1.244 . S
C175 N174 1.244 . S
H176 C179 0.929 . S
H177 C182 0.929 . S
H178 C184 0.930 . S
C179 H176 0.929 . S
C179 C180 1.398 . S
C179 C181 1.396 . S
C180 C179 1.398 . S
C180 C184 1.407 . S
C181 C179 1.396 . S
C181 C182 1.394 . S
C182 H177 0.929 . S
C182 C181 1.394 . S
C182 C183 1.382 . S
C183 C182 1.382 . S
C183 C184 1.392 . S
C183 N185 1.420 . S
C184 H178 0.930 . S
C184 C180 1.407 . S
C184 C183 1.392 . S
N185 C183 1.420 . S
N185 C186 1.244 . S
C186 N185 1.244 . S
H187 C190 0.929 . S
H188 C193 0.929 . S
H189 C195 0.930 . S
C190 H187 0.929 . S
C190 C191 1.398 . S
C190 C192 1.396 . S
C191 C190 1.398 . S
C191 C195 1.407 . S
C192 C190 1.396 . S
C192 C193 1.394 . S
C193 H188 0.929 . S
C193 C192 1.394 . S
C193 C194 1.382 . S
C194 C193 1.382 . S
C194 C195 1.392 . S
C194 N196 1.420 . S
C195 H189 0.930 . S
C195 C191 1.407 . S
C195 C194 1.392 . S
N196 C194 1.420 . S
N196 C197 1.244 . S
C197 N196 1.244 . S
H198 C201 0.929 . S
H199 C204 0.929 . S
H200 C206 0.930 . S
C201 H198 0.929 . S
C201 C202 1.398 . S
C201 C203 1.396 . S
C202 C201 1.398 . S
C202 C206 1.407 . S
C203 C201 1.396 . S
C203 C204 1.394 . S
C204 H199 0.929 . S
C204 C203 1.394 . S
C204 C205 1.382 . S
C205 C204 1.382 . S
C205 C206 1.392 . S
C205 N207 1.420 . S
C206 H200 0.930 . S
C206 C202 1.407 . S
C206 C205 1.392 . S
N207 C205 1.420 . S
N207 C208 1.244 . S
C208 N207 1.244 . S
H209 C212 0.929 . S
H210 C215 0.929 . S
H211 C217 0.930 . S
C212 H209 0.929 . S
C212 C213 1.398 . S
C212 C214 1.396 . S
C213 C212 1.398 . S
C213 C217 1.407 . S
C214 C212 1.396 . S
C214 C215 1.394 . S
C215 H210 0.929 . S
C215 C214 1.394 . S
C215 C216 1.382 . S
C216 C215 1.382 . S
C216 C217 1.392 . S
C216 N218 1.420 . S
C217 H211 0.930 . S
C217 C213 1.407 . S
C217 C216 1.392 . S
N218 C216 1.420 . S
N218 C219 1.244 . S
C219 N218 1.244 . S
H220 C223 0.929 . S
H221 C226 0.929 . S
H222 C228 0.930 . S
C223 H220 0.929 . S
C223 C224 1.398 . S
C223 C225 1.396 . S
C224 C223 1.398 . S
C224 C228 1.407 . S
C225 C223 1.396 . S
C225 C226 1.394 . S
C226 H221 0.929 . S
C226 C225 1.394 . S
C226 C227 1.382 . S
C227 C226 1.382 . S
C227 C228 1.392 . S
C227 N229 1.420 . S
C228 H222 0.930 . S
C228 C224 1.407 . S
C228 C227 1.392 . S
N229 C227 1.420 . S
N229 C230 1.244 . S
C230 N229 1.244 . S
H231 C234 0.929 . S
H232 C237 0.929 . S
H233 C239 0.930 . S
C234 H231 0.929 . S
C234 C235 1.398 . S
C234 C236 1.396 . S
C235 C234 1.398 . S
C235 C239 1.407 . S
C236 C234 1.396 . S
C236 C237 1.394 . S
C237 H232 0.929 . S
C237 C236 1.394 . S
C237 C238 1.382 . S
C238 C237 1.382 . S
C238 C239 1.392 . S
C238 N240 1.420 . S
C239 H233 0.930 . S
C239 C235 1.407 . S
C239 C238 1.392 . S
N240 C238 1.420 . S
N240 C241 1.244 . S
C241 N240 1.244 . S
H242 C245 0.929 . S
H243 C248 0.929 . S
H244 C250 0.930 . S
C245 H242 0.929 . S
C245 C246 1.398 . S
C245 C247 1.396 . S
C246 C245 1.398 . S
C246 C250 1.407 . S
C247 C245 1.396 . S
C247 C248 1.394 . S
C248 H243 0.929 . S
C248 C247 1.394 . S
C248 C249 1.382 . S
C249 C248 1.382 . S
C249 C250 1.392 . S
C249 N251 1.420 . S
C250 H244 0.930 . S
C250 C246 1.407 . S
C250 C249 1.392 . S
N251 C249 1.420 . S
N251 C252 1.244 . S
C252 N251 1.244 . S
H253 C256 0.929 . S
H254 C259 0.929 . S
H255 C261 0.930 . S
C256 H253 0.929 . S
C256 C257 1.398 . S
C256 C258 1.396 . S
C257 C256 1.398 . S
C257 C261 1.407 . S
C258 C256 1.396 . S
C258 C259 1.394 . S
C259 H254 0.929 . S
C259 C258 1.394 . S
C259 C260 1.382 . S
C260 C259 1.382 . S
C260 C261 1.392 . S
C260 N262 1.420 . S
C261 H255 0.930 . S
C261 C257 1.407 . S
C261 C260 1.392 . S
N262 C260 1.420 . S
N262 C263 1.244 . S
C263 N262 1.244 . S
Zn264 O266 1.933 1_565 S
Zn264 O284 1.985 . S
Zn264 O295 1.955 . S
Zn265 O266 1.911 . S
Zn265 O285 1.970 . S
Zn265 O301 1.945 . S
Zn265 O308 1.981 . S
O266 Zn264 1.933 1_545 S
O266 Zn265 1.911 . S
O266 H267 0.841 1_655 S
H267 O266 0.841 1_455 S
C268 O269 1.246 . S
C268 O297 1.276 . S
O269 C268 1.246 . S
Zn270 O272 1.911 . S
Zn270 O287 1.970 . S
Zn270 O304 1.945 . S
Zn270 O311 1.981 . S
Zn271 O272 1.933 1_565 S
Zn271 O286 1.985 . S
Zn271 O293 1.955 . S
O272 Zn270 1.911 . S
O272 Zn271 1.933 1_545 S
O272 H273 0.841 . S
H273 O272 0.841 . S
Zn274 O275 1.933 1_565 S
Zn274 O288 1.985 . S
Zn274 O297 1.955 . S
O275 Zn274 1.933 1_545 S
O275 Zn276 1.911 . S
O275 H277 0.841 . S
Zn276 O275 1.911 . S
Zn276 O289 1.970 . S
Zn276 O305 1.981 1_655 S
Zn276 O307 1.945 . S
H277 O275 0.841 . S
Zn278 O279 1.933 1_565 S
Zn278 O291 1.985 . S
Zn278 O299 1.955 . S
O279 Zn278 1.933 1_545 S
O279 H280 0.841 . S
O279 Zn281 1.911 . S
H280 O279 0.841 . S
Zn281 O279 1.911 . S
Zn281 O292 1.970 . S
Zn281 O302 1.981 . S
Zn281 O310 1.945 . S
C282 O283 1.246 . S
C282 O299 1.276 . S
O283 C282 1.246 . S
O284 Zn264 1.985 . S
O284 C294 1.245 1_565 S
O285 Zn265 1.970 . S
O285 C294 1.263 . S
O286 Zn271 1.985 . S
O286 C298 1.245 1_565 S
O287 Zn270 1.970 . S
O287 C298 1.263 . S
O288 Zn274 1.985 . S
O288 C303 1.245 1_565 S
O289 Zn276 1.970 . S
O289 C303 1.263 . S
C290 O301 1.262 1_455 S
C290 O302 1.245 . S
O291 Zn278 1.985 . S
O291 C309 1.245 1_565 S
O292 Zn281 1.970 . S
O292 C309 1.263 . S
O293 Zn271 1.955 . S
O293 C312 1.276 . S
C294 O284 1.245 1_545 S
C294 O285 1.263 . S
O295 Zn264 1.955 . S
O295 C314 1.276 1_655 S
C296 O304 1.262 . S
C296 O305 1.245 . S
O297 C268 1.276 . S
O297 Zn274 1.955 . S
C298 O286 1.245 1_545 S
C298 O287 1.263 . S
O299 Zn278 1.955 . S
O299 C282 1.276 . S
C300 O307 1.262 . S
C300 O308 1.245 . S
O301 Zn265 1.945 . S
O301 C290 1.262 1_655 S
O302 Zn281 1.981 . S
O302 C290 1.245 . S
C303 O288 1.245 1_545 S
C303 O289 1.263 . S
O304 Zn270 1.945 . S
O304 C296 1.262 . S
O305 Zn276 1.981 1_455 S
O305 C296 1.245 . S
C306 O310 1.262 . S
C306 O311 1.245 . S
O307 Zn276 1.945 . S
O307 C300 1.262 . S
O308 Zn265 1.981 . S
O308 C300 1.245 . S
C309 O291 1.245 1_545 S
C309 O292 1.263 . S
O310 Zn281 1.945 . S
O310 C306 1.262 . S
O311 Zn270 1.981 . S
O311 C306 1.245 . S
C312 O293 1.276 . S
C312 O313 1.246 1_455 S
O313 C312 1.246 1_655 S
C314 O295 1.276 1_455 S
C314 O315 1.246 . S
O315 C314 1.246 . S
Zn316 O318 1.933 . S
Zn316 O336 1.985 . S
Zn316 O347 1.955 . S
Zn317 O318 1.911 1_556 S
Zn317 O337 1.970 . S
Zn317 O353 1.945 . S
Zn317 O360 1.981 . S
O318 Zn316 1.933 . S
O318 Zn317 1.911 1_554 S
O318 H319 0.841 . S
H319 O318 0.841 . S
C320 O321 1.246 . S
C320 O349 1.276 . S
O321 C320 1.246 . S
Zn322 O324 1.911 1_556 S
Zn322 O339 1.970 . S
Zn322 O356 1.945 . S
Zn322 O363 1.981 . S
Zn323 O324 1.933 . S
Zn323 O338 1.985 . S
Zn323 O345 1.955 . S
O324 Zn322 1.911 1_554 S
O324 Zn323 1.933 . S
O324 H325 0.841 1_565 S
H325 O324 0.841 1_545 S
Zn326 O327 1.933 . S
Zn326 O340 1.985 . S
Zn326 O349 1.955 . S
O327 Zn326 1.933 . S
O327 Zn328 1.911 1_554 S
O327 H329 0.841 . S
Zn328 O327 1.911 1_556 S
Zn328 O341 1.970 . S
Zn328 O357 1.981 . S
Zn328 O359 1.945 . S
H329 O327 0.841 . S
Zn330 O331 1.933 . S
Zn330 O343 1.985 . S
Zn330 O351 1.955 . S
O331 Zn330 1.933 . S
O331 H332 0.841 . S
O331 Zn333 1.911 1_554 S
H332 O331 0.841 . S
Zn333 O331 1.911 1_556 S
Zn333 O344 1.970 . S
Zn333 O354 1.981 . S
Zn333 O362 1.945 . S
C334 O335 1.246 . S
C334 O351 1.276 . S
O335 C334 1.246 . S
O336 Zn316 1.985 . S
O336 C346 1.245 . S
O337 Zn317 1.970 . S
O337 C346 1.263 1_556 S
O338 Zn323 1.985 . S
O338 C350 1.245 . S
O339 Zn322 1.970 . S
O339 C350 1.263 1_556 S
O340 Zn326 1.985 . S
O340 C355 1.245 . S
O341 Zn328 1.970 . S
O341 C355 1.263 1_556 S
C342 O353 1.262 . S
C342 O354 1.245 1_545 S
O343 Zn330 1.985 . S
O343 C361 1.245 . S
O344 Zn333 1.970 . S
O344 C361 1.263 1_556 S
O345 Zn323 1.955 . S
O345 C364 1.276 1_565 S
C346 O336 1.245 . S
C346 O337 1.263 1_554 S
O347 Zn316 1.955 . S
O347 C366 1.276 . S
C348 O356 1.262 1_545 S
C348 O357 1.245 . S
O349 C320 1.276 . S
O349 Zn326 1.955 . S
C350 O338 1.245 . S
C350 O339 1.263 1_554 S
O351 Zn330 1.955 . S
O351 C334 1.276 . S
C352 O359 1.262 . S
C352 O360 1.245 . S
O353 Zn317 1.945 . S
O353 C342 1.262 . S
O354 Zn333 1.981 . S
O354 C342 1.245 1_565 S
C355 O340 1.245 . S
C355 O341 1.263 1_554 S
O356 Zn322 1.945 . S
O356 C348 1.262 1_565 S
O357 Zn328 1.981 . S
O357 C348 1.245 . S
C358 O362 1.262 . S
C358 O363 1.245 . S
O359 Zn328 1.945 . S
O359 C352 1.262 . S
O360 Zn317 1.981 . S
O360 C352 1.245 . S
C361 O343 1.245 . S
C361 O344 1.263 1_554 S
O362 Zn333 1.945 . S
O362 C358 1.262 . S
O363 Zn322 1.981 . S
O363 C358 1.245 . S
C364 O345 1.276 1_545 S
C364 O365 1.246 . S
O365 C364 1.246 . S
C366 O347 1.276 . S
C366 O367 1.246 1_545 S
O367 C366 1.246 1_565 S
Zn368 O370 1.933 . S
Zn368 O388 1.985 . S
Zn368 O399 1.955 . S
Zn369 O370 1.911 . S
Zn369 O389 1.970 . S
Zn369 O405 1.945 . S
Zn369 O412 1.981 . S
O370 Zn368 1.933 . S
O370 Zn369 1.911 . S
O370 H371 0.841 . S
H371 O370 0.841 . S
C372 O373 1.246 1_554 S
C372 O401 1.276 . S
O373 C372 1.246 1_556 S
Zn374 O376 1.911 . S
Zn374 O391 1.970 . S
Zn374 O408 1.945 . S
Zn374 O415 1.981 . S
Zn375 O376 1.933 . S
Zn375 O390 1.985 . S
Zn375 O397 1.955 . S
O376 Zn374 1.911 . S
O376 Zn375 1.933 . S
O376 H377 0.841 . S
H377 O376 0.841 . S
Zn378 O379 1.933 . S
Zn378 O392 1.985 . S
Zn378 O401 1.955 . S
O379 Zn378 1.933 . S
O379 Zn380 1.911 . S
O379 H381 0.841 . S
Zn380 O379 1.911 . S
Zn380 O393 1.970 . S
Zn380 O409 1.981 . S
Zn380 O411 1.945 . S
H381 O379 0.841 . S
Zn382 O383 1.933 . S
Zn382 O395 1.985 . S
Zn382 O403 1.955 . S
O383 Zn382 1.933 . S
O383 H384 0.841 . S
O383 Zn385 1.911 . S
H384 O383 0.841 . S
Zn385 O383 1.911 . S
Zn385 O396 1.970 . S
Zn385 O406 1.981 . S
Zn385 O414 1.945 . S
C386 O387 1.246 . S
C386 O403 1.276 1_554 S
O387 C386 1.246 . S
O388 Zn368 1.985 . S
O388 C398 1.245 . S
O389 Zn369 1.970 . S
O389 C398 1.263 . S
O390 Zn375 1.985 . S
O390 C402 1.245 . S
O391 Zn374 1.970 . S
O391 C402 1.263 . S
O392 Zn378 1.985 . S
O392 C407 1.245 . S
O393 Zn380 1.970 . S
O393 C407 1.263 . S
C394 O405 1.263 1_455 S
C394 O406 1.244 . S
O395 Zn382 1.985 . S
O395 C413 1.245 . S
O396 Zn385 1.970 . S
O396 C413 1.263 . S
O397 Zn375 1.955 . S
O397 C416 1.276 . S
C398 O388 1.245 . S
C398 O389 1.263 . S
O399 Zn368 1.955 . S
O399 C418 1.276 1_655 S
C400 O408 1.262 . S
C400 O409 1.245 1_455 S
O401 C372 1.276 . S
O401 Zn378 1.955 . S
C402 O390 1.245 . S
C402 O391 1.263 . S
O403 Zn382 1.955 . S
O403 C386 1.276 1_556 S
C404 O411 1.262 . S
C404 O412 1.245 1_554 S
O405 Zn369 1.945 . S
O405 C394 1.263 1_655 S
O406 Zn385 1.981 . S
O406 C394 1.244 . S
C407 O392 1.245 . S
C407 O393 1.263 . S
O408 Zn374 1.945 . S
O408 C400 1.262 . S
O409 Zn380 1.981 . S
O409 C400 1.245 1_655 S
C410 O414 1.262 1_554 S
C410 O415 1.245 . S
O411 Zn380 1.945 . S
O411 C404 1.262 . S
O412 Zn369 1.981 . S
O412 C404 1.245 1_556 S
C413 O395 1.245 . S
C413 O396 1.263 . S
O414 Zn385 1.945 . S
O414 C410 1.262 1_556 S
O415 Zn374 1.981 . S
O415 C410 1.245 . S
C416 O397 1.276 . S
C416 O417 1.246 1_455 S
O417 C416 1.246 1_655 S
C418 O399 1.276 1_455 S
C418 O419 1.246 . S
O419 C418 1.246 . S
Zn420 O422 1.933 1_556 S
Zn420 O440 1.985 . S
Zn420 O451 1.955 . S
Zn421 O422 1.911 . S
Zn421 O441 1.970 . S
Zn421 O457 1.945 . S
Zn421 O464 1.981 . S
O422 Zn420 1.933 1_554 S
O422 Zn421 1.911 . S
O422 H423 0.841 . S
H423 O422 0.841 . S
C424 O425 1.246 . S
C424 O453 1.276 . S
O425 C424 1.246 . S
Zn426 O428 1.911 . S
Zn426 O443 1.970 . S
Zn426 O460 1.945 . S
Zn426 O467 1.981 . S
Zn427 O428 1.933 1_556 S
Zn427 O442 1.985 . S
Zn427 O449 1.955 . S
O428 Zn426 1.911 . S
O428 Zn427 1.933 1_554 S
O428 H429 0.841 . S
H429 O428 0.841 . S
Zn430 O431 1.933 1_556 S
Zn430 O444 1.985 . S
Zn430 O453 1.955 . S
O431 Zn430 1.933 1_554 S
O431 Zn432 1.911 . S
O431 H433 0.841 . S
Zn432 O431 1.911 . S
Zn432 O445 1.970 . S
Zn432 O461 1.981 . S
Zn432 O463 1.945 . S
H433 O431 0.841 . S
Zn434 O435 1.933 1_556 S
Zn434 O447 1.985 . S
Zn434 O455 1.955 . S
O435 Zn434 1.933 1_554 S
O435 H436 0.841 . S
O435 Zn437 1.911 . S
H436 O435 0.841 . S
Zn437 O435 1.911 . S
Zn437 O448 1.970 . S
Zn437 O458 1.981 . S
Zn437 O466 1.945 . S
C438 O439 1.246 . S
C438 O455 1.276 . S
O439 C438 1.246 . S
O440 Zn420 1.985 . S
O440 C450 1.245 1_556 S
O441 Zn421 1.970 . S
O441 C450 1.263 . S
O442 Zn427 1.985 . S
O442 C454 1.245 1_556 S
O443 Zn426 1.970 . S
O443 C454 1.263 . S
O444 Zn430 1.985 . S
O444 C459 1.245 1_556 S
O445 Zn432 1.970 . S
O445 C459 1.263 . S
C446 O457 1.262 . S
C446 O458 1.245 . S
O447 Zn434 1.985 . S
O447 C465 1.245 1_556 S
O448 Zn437 1.970 . S
O448 C465 1.263 . S
O449 Zn427 1.955 . S
O449 C468 1.276 . S
C450 O440 1.245 1_554 S
C450 O441 1.263 . S
O451 Zn420 1.955 . S
O451 C470 1.276 . S
C452 O460 1.262 . S
C452 O461 1.245 . S
O453 C424 1.276 . S
O453 Zn430 1.955 . S
C454 O442 1.245 1_554 S
C454 O443 1.263 . S
O455 Zn434 1.955 . S
O455 C438 1.276 . S
C456 O463 1.262 . S
C456 O464 1.245 . S
O457 Zn421 1.945 . S
O457 C446 1.262 . S
O458 Zn437 1.981 . S
O458 C446 1.245 . S
C459 O444 1.245 1_554 S
C459 O445 1.263 . S
O460 Zn426 1.945 . S
O460 C452 1.262 . S
O461 Zn432 1.981 . S
O461 C452 1.245 . S
C462 O466 1.262 . S
C462 O467 1.245 . S
O463 Zn432 1.945 . S
O463 C456 1.262 . S
O464 Zn421 1.981 . S
O464 C456 1.245 . S
C465 O447 1.245 1_554 S
C465 O448 1.263 . S
O466 Zn437 1.945 . S
O466 C462 1.262 . S
O467 Zn426 1.981 . S
O467 C462 1.245 . S
C468 O449 1.276 . S
C468 O469 1.246 . S
O469 C468 1.246 . S
C470 O451 1.276 . S
C470 O471 1.246 . S
O471 C470 1.246 . S
Zn472 O474 1.933 . S
Zn472 O492 1.985 . S
Zn472 O503 1.955 . S
Zn473 O474 1.911 . S
Zn473 O493 1.970 . S
Zn473 O509 1.945 . S
Zn473 O516 1.981 . S
O474 Zn472 1.933 . S
O474 Zn473 1.911 . S
O474 H475 0.841 1_655 S
H475 O474 0.841 1_455 S
C476 O477 1.246 . S
C476 O505 1.276 . S
O477 C476 1.246 . S
Zn478 O480 1.911 . S
Zn478 O495 1.970 . S
Zn478 O512 1.945 . S
Zn478 O519 1.981 . S
Zn479 O480 1.933 . S
Zn479 O494 1.985 . S
Zn479 O501 1.955 . S
O480 Zn478 1.911 . S
O480 Zn479 1.933 . S
O480 H481 0.841 . S
H481 O480 0.841 . S
Zn482 O483 1.933 . S
Zn482 O496 1.985 . S
Zn482 O505 1.955 . S
O483 Zn482 1.933 . S
O483 Zn484 1.911 . S
O483 H485 0.841 . S
Zn484 O483 1.911 . S
Zn484 O497 1.970 . S
Zn484 O513 1.981 . S
Zn484 O515 1.945 . S
H485 O483 0.841 . S
Zn486 O487 1.933 . S
Zn486 O499 1.985 . S
Zn486 O507 1.955 . S
O487 Zn486 1.933 . S
O487 H488 0.841 . S
O487 Zn489 1.911 . S
H488 O487 0.841 . S
Zn489 O487 1.911 . S
Zn489 O500 1.970 . S
Zn489 O510 1.981 . S
Zn489 O518 1.945 . S
C490 O491 1.246 . S
C490 O507 1.276 . S
O491 C490 1.246 . S
O492 Zn472 1.985 . S
O492 C502 1.245 . S
O493 Zn473 1.970 . S
O493 C502 1.263 . S
O494 Zn479 1.985 . S
O494 C506 1.245 . S
O495 Zn478 1.970 . S
O495 C506 1.263 . S
O496 Zn482 1.985 . S
O496 C511 1.245 . S
O497 Zn484 1.970 . S
O497 C511 1.263 . S
C498 O509 1.262 1_455 S
C498 O510 1.245 . S
O499 Zn486 1.985 . S
O499 C517 1.245 . S
O500 Zn489 1.970 . S
O500 C517 1.263 . S
O501 Zn479 1.955 . S
O501 C520 1.276 . S
C502 O492 1.245 . S
C502 O493 1.263 . S
O503 Zn472 1.955 . S
O503 C522 1.276 1_655 S
C504 O512 1.262 . S
C504 O513 1.245 1_455 S
O505 C476 1.276 . S
O505 Zn482 1.955 . S
C506 O494 1.245 . S
C506 O495 1.263 . S
O507 Zn486 1.955 . S
O507 C490 1.276 . S
C508 O515 1.262 . S
C508 O516 1.245 . S
O509 Zn473 1.945 . S
O509 C498 1.262 1_655 S
O510 Zn489 1.981 . S
O510 C498 1.245 . S
C511 O496 1.245 . S
C511 O497 1.263 . S
O512 Zn478 1.945 . S
O512 C504 1.262 . S
O513 Zn484 1.981 . S
O513 C504 1.245 1_655 S
C514 O518 1.262 . S
C514 O519 1.245 . S
O515 Zn484 1.945 . S
O515 C508 1.262 . S
O516 Zn473 1.981 . S
O516 C508 1.245 . S
C517 O499 1.245 . S
C517 O500 1.263 . S
O518 Zn489 1.945 . S
O518 C514 1.262 . S
O519 Zn478 1.981 . S
O519 C514 1.245 . S
C520 O501 1.276 . S
C520 O521 1.246 1_455 S
O521 C520 1.246 1_655 S
C522 O503 1.276 1_455 S
C522 O523 1.246 . S
O523 C522 1.246 . S
Zn524 O526 1.933 1_565 S
Zn524 O544 1.985 . S
Zn524 O555 1.955 . S
Zn525 O526 1.911 . S
Zn525 O545 1.970 . S
Zn525 O561 1.945 . S
Zn525 O568 1.981 . S
O526 Zn524 1.933 1_545 S
O526 Zn525 1.911 . S
O526 H527 0.841 . S
H527 O526 0.841 . S
C528 O529 1.246 . S
C528 O557 1.276 . S
O529 C528 1.246 . S
Zn530 O532 1.911 . S
Zn530 O547 1.970 . S
Zn530 O564 1.945 . S
Zn530 O571 1.981 . S
Zn531 O532 1.933 1_565 S
Zn531 O546 1.985 . S
Zn531 O553 1.955 . S
O532 Zn530 1.911 . S
O532 Zn531 1.933 1_545 S
O532 H533 0.841 . S
H533 O532 0.841 . S
Zn534 O535 1.933 1_565 S
Zn534 O548 1.985 . S
Zn534 O557 1.955 . S
O535 Zn534 1.933 1_545 S
O535 Zn536 1.911 . S
O535 H537 0.841 . S
Zn536 O535 1.911 . S
Zn536 O549 1.970 . S
Zn536 O565 1.981 . S
Zn536 O567 1.945 . S
H537 O535 0.841 . S
Zn538 O539 1.933 1_565 S
Zn538 O551 1.985 . S
Zn538 O559 1.955 . S
O539 Zn538 1.933 1_545 S
O539 H540 0.841 . S
O539 Zn541 1.911 . S
H540 O539 0.841 . S
Zn541 O539 1.911 . S
Zn541 O552 1.970 . S
Zn541 O562 1.981 . S
Zn541 O570 1.945 . S
C542 O543 1.246 . S
C542 O559 1.276 . S
O543 C542 1.246 . S
O544 Zn524 1.985 . S
O544 C554 1.245 1_565 S
O545 Zn525 1.970 . S
O545 C554 1.263 . S
O546 Zn531 1.985 . S
O546 C558 1.245 1_565 S
O547 Zn530 1.970 . S
O547 C558 1.263 . S
O548 Zn534 1.985 . S
O548 C563 1.245 1_565 S
O549 Zn536 1.970 . S
O549 C563 1.263 . S
C550 O561 1.262 . S
C550 O562 1.245 . S
O551 Zn538 1.985 . S
O551 C569 1.245 1_565 S
O552 Zn541 1.970 . S
O552 C569 1.263 . S
O553 Zn531 1.955 . S
O553 C572 1.276 . S
C554 O544 1.245 1_545 S
C554 O545 1.263 . S
O555 Zn524 1.955 . S
O555 C574 1.276 . S
C556 O564 1.262 . S
C556 O565 1.245 . S
O557 C528 1.276 . S
O557 Zn534 1.955 . S
C558 O546 1.245 1_545 S
C558 O547 1.263 . S
O559 Zn538 1.955 . S
O559 C542 1.276 . S
C560 O567 1.262 . S
C560 O568 1.245 . S
O561 Zn525 1.945 . S
O561 C550 1.262 . S
O562 Zn541 1.981 . S
O562 C550 1.245 . S
C563 O548 1.245 1_545 S
C563 O549 1.263 . S
O564 Zn530 1.945 . S
O564 C556 1.262 . S
O565 Zn536 1.981 . S
O565 C556 1.245 . S
C566 O570 1.262 . S
C566 O571 1.245 . S
O567 Zn536 1.945 . S
O567 C560 1.262 . S
O568 Zn525 1.981 . S
O568 C560 1.245 . S
C569 O551 1.245 1_545 S
C569 O552 1.263 . S
O570 Zn541 1.945 . S
O570 C566 1.262 . S
O571 Zn530 1.981 . S
O571 C566 1.245 . S
C572 O553 1.276 . S
C572 O573 1.246 . S
O573 C572 1.246 . S
C574 O555 1.276 . S
C574 O575 1.246 . S
O575 C574 1.246 . S
C306 C258 1.448 . S
C236 C300 1.900 . S
C268 C225 2.040 . S
C247 C282 1.713 . S
C320 C181 2.297 . S
C407 C192 1.652 . S
C203 C334 2.285 . S
C402 C214 1.544 . S
C137 C358 2.372 . S
C413 C148 1.691 . S
C159 C352 2.368 . S
C170 C398 1.134 . S
C454 C126 1.241 . S
C104 C465 1.750 . S
C93 C450 1.455 . S
C459 C115 1.550 . S
C49 C504 1.899 . S
C60 C563 0.765 . S
C71 C520 1.998 . S
C82 C558 1.368 . S
C522 C5 2.033 . S
C569 C16 1.011 . S
C27 C498 1.920 . S
C554 C38 0.960 . S
C290 C4 1.645 . S
C21 C294 1.306 . S
C32 C314 1.685 . S
C37 C309 0.859 1_565 S
C48 C312 1.737 . S
C298 C59 1.203 . S
C76 C296 1.576 . S
C303 C81 1.148 . S
C366 C43 1.641 . S
C10 C416 1.861 . S
C364 C15 1.276 . S
C400 C26 1.999 . S
C65 C342 1.046 . S
C418 C70 1.878 . S
C348 C87 1.517 . S
C394 C54 1.682 1_455 S
C386 C98 1.502 . S
C109 C410 1.448 . S
C346 C92 1.138 . S
C372 C114 1.247 1_554 S
C131 C350 1.252 . S
C125 C404 1.343 . S
C361 C103 1.338 . S
C355 C120 1.502 . S
C438 C136 1.960 . S
C470 C153 1.621 . S
C164 C424 1.936 . S
C468 C169 1.029 . S
C456 C180 1.939 . S
C191 C452 1.445 . S
C208 C462 1.927 . S
C446 C213 1.294 . S
C511 C175 1.644 . S
C142 C572 1.756 . S
C506 C147 1.114 . S
C556 C158 1.754 . S
C502 C197 1.105 . S
C202 C574 1.731 . S
C517 C219 1.462 . S
C550 C186 1.593 . S
C542 C230 1.657 . S
C241 C566 1.660 . S
C508 C224 1.604 . S
C246 C528 1.706 . S
C490 C263 1.393 . S
C560 C257 1.533 . S
C476 C235 1.608 . S
C252 C514 1.401 . S
