# Generated by pormake.
# Topology zzz, (3,6)-cn, num edge types: 1
# Building blocks:
#     Node 0, Type 0, BuildingBlock: BELTOD_clean_linker_0, # of connection points: 3
#     Node 1, Type 0, BuildingBlock: BELTOD_clean_linker_0, # of connection points: 3
#     Node 2, Type 0, BuildingBlock: BELTOD_clean_linker_0, # of connection points: 3
#     Node 3, Type 0, BuildingBlock: BELTOD_clean_linker_0, # of connection points: 3
#     Node 4, Type 0, BuildingBlock: BELTOD_clean_linker_0, # of connection points: 3
#     Node 5, Type 0, BuildingBlock: BELTOD_clean_linker_0, # of connection points: 3
#     Node 6, Type 0, BuildingBlock: BELTOD_clean_linker_0, # of connection points: 3
#     Node 7, Type 0, BuildingBlock: BELTOD_clean_linker_0, # of connection points: 3
#     Node 8, Type 1, BuildingBlock: KUMBOL_clean_sbu_0, # of connection points: 6
#     Node 9, Type 1, BuildingBlock: KUMBOL_clean_sbu_0, # of connection points: 6
#     Node 10, Type 1, BuildingBlock: KUMBOL_clean_sbu_0, # of connection points: 6
#     Node 11, Type 1, BuildingBlock: KUMBOL_clean_sbu_0, # of connection points: 6
#     Edge 12, Type (0, 1), BuildingBlock: KIFKEQ_clean_linker_1, # of connection points: 2
#     Edge 13, Type (0, 1), BuildingBlock: KIFKEQ_clean_linker_1, # of connection points: 2
#     Edge 14, Type (0, 1), BuildingBlock: KIFKEQ_clean_linker_1, # of connection points: 2
#     Edge 15, Type (0, 1), BuildingBlock: KIFKEQ_clean_linker_1, # of connection points: 2
#     Edge 16, Type (0, 1), BuildingBlock: KIFKEQ_clean_linker_1, # of connection points: 2
#     Edge 17, Type (0, 1), BuildingBlock: KIFKEQ_clean_linker_1, # of connection points: 2
#     Edge 18, Type (0, 1), BuildingBlock: KIFKEQ_clean_linker_1, # of connection points: 2
#     Edge 19, Type (0, 1), BuildingBlock: KIFKEQ_clean_linker_1, # of connection points: 2
#     Edge 20, Type (0, 1), BuildingBlock: KIFKEQ_clean_linker_1, # of connection points: 2
#     Edge 21, Type (0, 1), BuildingBlock: KIFKEQ_clean_linker_1, # of connection points: 2
#     Edge 22, Type (0, 1), BuildingBlock: KIFKEQ_clean_linker_1, # of connection points: 2
#     Edge 23, Type (0, 1), BuildingBlock: KIFKEQ_clean_linker_1, # of connection points: 2
#     Edge 24, Type (0, 1), BuildingBlock: KIFKEQ_clean_linker_1, # of connection points: 2
#     Edge 25, Type (0, 1), BuildingBlock: KIFKEQ_clean_linker_1, # of connection points: 2
#     Edge 26, Type (0, 1), BuildingBlock: KIFKEQ_clean_linker_1, # of connection points: 2
#     Edge 27, Type (0, 1), BuildingBlock: KIFKEQ_clean_linker_1, # of connection points: 2
#     Edge 28, Type (0, 1), BuildingBlock: KIFKEQ_clean_linker_1, # of connection points: 2
#     Edge 29, Type (0, 1), BuildingBlock: KIFKEQ_clean_linker_1, # of connection points: 2
#     Edge 30, Type (0, 1), BuildingBlock: KIFKEQ_clean_linker_1, # of connection points: 2
#     Edge 31, Type (0, 1), BuildingBlock: KIFKEQ_clean_linker_1, # of connection points: 2
#     Edge 32, Type (0, 1), BuildingBlock: KIFKEQ_clean_linker_1, # of connection points: 2
#     Edge 33, Type (0, 1), BuildingBlock: KIFKEQ_clean_linker_1, # of connection points: 2
#     Edge 34, Type (0, 1), BuildingBlock: KIFKEQ_clean_linker_1, # of connection points: 2
#     Edge 35, Type (0, 1), BuildingBlock: KIFKEQ_clean_linker_1, # of connection points: 2
# Relax obj value: 0.285
# Max RMSD: 0.211
# Mean RMSD: 0.202
data_MOF--net-zzz--node1-KUMBOL_clean_sbu_0--node2-BELTOD_clean_linker_0--edge1-KIFKEQ_clean_linker_1
_symmetry_space_group_name_H-M    P1
_symmetry_Int_Tables_number       1
_symmetry_cell_setting            triclinic
loop_
_symmetry_equiv_pos_as_xyz
'x, y, z'
_cell_length_a     54.476413
_cell_length_b     54.312636
_cell_length_c     18.811448
_cell_angle_alpha  90.628237
_cell_angle_beta   89.977398
_cell_angle_gamma 89.980419
loop_
_atom_site_label
_atom_site_type_symbol
_atom_site_fract_x
_atom_site_fract_y
_atom_site_fract_z
_atom_type_partial_charge
P0 P 0.7483 0.51484 0.14231 0.0
H1 H 0.76935 0.47407 0.22249 0.0
H2 H 0.80035 0.47273 0.31463 0.0
H3 H 0.79483 0.55151 0.34287 0.0
H4 H 0.76273 0.55267 0.25151 0.0
H5 H 0.70201 0.49124 0.18029 0.0
H6 H 0.66124 0.49496 0.12749 0.0
H7 H 0.68342 0.5625 0.02705 0.0
H8 H 0.72398 0.55845 0.07831 0.0
H9 H 0.77589 0.50067 0.01519 0.0
H10 H 0.76374 0.56712 0.13807 0.0
O11 O 0.74804 0.48594 0.11092 0.0
H12 H 0.80498 0.52202 0.94153 0.0
H13 H 0.79277 0.58908 0.06265 0.0
C14 C 0.7638 0.51359 0.22812 0.0
C15 C 0.77413 0.49112 0.24932 0.0
C16 C 0.79227 0.49036 0.30189 0.0
C17 C 0.80083 0.51209 0.33483 0.0
C18 C 0.78894 0.53439 0.31825 0.0
C19 C 0.77057 0.5351 0.26553 0.0
C20 C 0.71646 0.52437 0.13333 0.0
C21 C 0.69785 0.5074 0.14929 0.0
C22 C 0.67446 0.50948 0.11845 0.0
C23 C 0.66913 0.52869 0.07109 0.0
C24 C 0.68702 0.54704 0.06139 0.0
C25 C 0.71037 0.54488 0.09194 0.0
C26 C 0.76781 0.53208 0.08322 0.0
C27 C 0.77914 0.52001 0.0259 0.0
C28 C 0.79566 0.53247 0.98277 0.0
C29 C 0.80121 0.55746 0.99552 0.0
C30 C 0.78914 0.56982 0.05158 0.0
C31 C 0.77263 0.5572 0.09512 0.0
P32 P 0.99755 0.75574 0.1323 0.0
H33 H 0.03875 0.78121 0.20079 0.0
H34 H 0.04022 0.81522 0.28561 0.0
H35 H 0.96342 0.80506 0.33241 0.0
H36 H 0.96187 0.77072 0.24553 0.0
H37 H 0.03458 0.71696 0.14436 0.0
H38 H 0.03497 0.67501 0.09771 0.0
H39 H 0.95652 0.67888 0.06494 0.0
H40 H 0.9562 0.72015 0.11725 0.0
H41 H 0.97189 0.8036 0.13284 0.0
H42 H 0.9746 0.73837 0.99981 0.0
O43 O 0.02344 0.76139 0.0878 0.0
H44 H 0.94942 0.82478 0.04173 0.0
H45 H 0.95055 0.75905 0.91022 0.0
C46 C 1.00008 0.77338 0.21538 0.0
C47 C 0.02223 0.78566 0.2302 0.0
C48 C 0.02306 0.80541 0.27864 0.0
C49 C 1.00181 0.81337 0.31462 0.0
C50 C 0.98011 0.79952 0.30533 0.0
C51 C 0.97926 0.7797 0.25608 0.0
C52 C 0.99549 0.7222 0.13237 0.0
C53 C 0.01728 0.70845 0.12989 0.0
C54 C 0.01753 0.68448 0.1013 0.0
C55 C 0.99598 0.67365 0.07336 0.0
C56 C 0.97366 0.68639 0.08442 0.0
C57 C 0.97341 0.71021 0.11481 0.0
C58 C 0.97427 0.76882 0.07544 0.0
C59 C 0.96641 0.79317 0.08627 0.0
C60 C 0.95331 0.80541 0.03355 0.0
C61 C 0.9481 0.79369 0.96818 0.0
C62 C 0.95433 0.76872 0.95967 0.0
C63 C 0.96783 0.75666 0.01186 0.0
P64 P 0.76529 0.00774 0.18468 0.0
H65 H 0.7596 0.03385 0.32134 0.0
H66 H 0.72615 0.0321 0.40822 0.0
H67 H 0.7013 0.96385 0.31388 0.0
H68 H 0.73532 0.96509 0.22899 0.0
H69 H 0.80561 0.04046 0.14771 0.0
H70 H 0.84527 0.03304 0.09477 0.0
H71 H 0.83749 0.95515 0.13317 0.0
H72 H 0.79683 0.96287 0.18608 0.0
H73 H 0.71368 0.00955 0.15158 0.0
H74 H 0.77839 0.97731 0.0561 0.0
O75 O 0.76099 0.03803 0.17661 0.0
H76 H 0.68897 0.99358 0.05446 0.0
H77 H 0.75354 0.96073 0.95919 0.0
C78 C 0.74988 0.99986 0.26737 0.0
C79 C 0.74775 0.01784 0.32138 0.0
C80 C 0.72842 0.01695 0.37086 0.0
C81 C 0.7107 0.99815 0.36684 0.0
C82 C 0.71443 0.97878 0.31767 0.0
C83 C 0.73408 0.97941 0.26934 0.0
C84 C 0.79796 1.00225 0.1713 0.0
C85 C 0.81253 0.02178 0.1472 0.0
C86 C 0.83551 0.01748 0.11651 0.0
C87 C 0.84478 0.99342 0.10864 0.0
C88 C 0.83089 0.97391 0.13726 0.0
C89 C 0.80777 0.97832 0.16876 0.0
C90 C 0.74784 0.99427 0.11254 0.0
C91 C 0.72253 0.99856 0.11054 0.0
C92 C 0.70835 0.98913 0.05513 0.0
C93 C 0.71918 0.97532 0.99966 0.0
C94 C 0.74461 0.97105 1.00147 0.0
C95 C 0.75885 0.98049 0.05742 0.0
P96 P 0.5139 0.78123 0.20287 0.0
H97 H 0.47792 0.76244 0.3042 0.0
H98 H 0.48094 0.73041 0.39229 0.0
H99 H 0.56009 0.73343 0.37894 0.0
H100 H 0.55675 0.76535 0.28814 0.0
H101 H 0.48167 0.82328 0.1796 0.0
H102 H 0.48941 0.86309 0.12876 0.0
H103 H 0.56749 0.85224 0.15647 0.0
H104 H 0.55935 0.81123 0.20437 0.0
H105 H 0.5304 0.73009 0.19305 0.0
H106 H 0.53477 0.79528 0.06431 0.0
O107 O 0.48493 0.77672 0.17683 0.0
H108 H 0.55001 0.70637 0.09985 0.0
H109 H 0.55469 0.77133 0.96992 0.0
C110 C 0.51709 0.76625 0.28847 0.0
C111 C 0.49602 0.75687 0.32153 0.0
C112 C 0.4978 0.73835 0.37247 0.0
C113 C 0.52078 0.72871 0.3923 0.0
C114 C 0.54202 0.73986 0.36399 0.0
C115 C 0.54018 0.75852 0.31289 0.0
C116 C 0.5199 0.81398 0.1954 0.0
C117 C 0.50049 0.82959 0.17677 0.0
C118 C 0.50502 0.8527 0.1475 0.0
C119 C 0.5292 0.86113 0.13679 0.0
C120 C 0.54863 0.84631 0.16185 0.0
C121 C 0.54401 0.82296 0.19078 0.0
C122 C 0.53207 0.76484 0.13763 0.0
C123 C 0.53654 0.73965 0.14613 0.0
C124 C 0.54786 0.726 0.09235 0.0
C125 C 0.55446 0.73706 0.02784 0.0
C126 C 0.55013 0.76236 0.01934 0.0
C127 C 0.53888 0.7761 0.07367 0.0
P128 P 0.28246 0.44983 0.05504 0.0
H129 H 0.28084 0.46354 0.90419 0.0
H130 H 0.24775 0.48017 0.83168 0.0
H131 H 0.20568 0.49505 0.02249 0.0
H132 H 0.23948 0.48025 0.09394 0.0
H133 H 0.33325 0.43309 0.06338 0.0
H134 H 0.36823 0.44576 0.13569 0.0
H135 H 0.326 0.50641 0.22122 0.0
H136 H 0.29096 0.49416 0.14581 0.0
H137 H 0.24612 0.41105 0.03965 0.0
H138 H 0.27335 0.45777 0.20884 0.0
O139 O 0.29203 0.42781 0.99891 0.0
H140 H 0.21034 0.40096 0.11167 0.0
H141 H 0.23739 0.44879 0.27925 0.0
C142 C 0.26264 0.47018 1.00471 0.0
C143 C 0.26484 0.47121 0.9305 0.0
C144 C 0.24555 0.48034 0.88885 0.0
C145 C 0.22336 0.48833 0.92036 0.0
C146 C 0.22222 0.48919 0.99531 0.0
C147 C 0.24171 0.48054 0.0368 0.0
C148 C 0.30938 0.46273 0.09857 0.0
C149 C 0.33155 0.44953 0.09605 0.0
C150 C 0.35162 0.45672 0.13776 0.0
C151 C 0.34985 0.47698 0.1845 0.0
C152 C 0.32784 0.49062 0.18597 0.0
C153 C 0.30789 0.48374 0.14257 0.0
C154 C 0.26243 0.4353 0.11837 0.0
C155 C 0.24491 0.41844 0.09325 0.0
C156 C 0.22428 0.4129 0.13423 0.0
C157 C 0.22065 0.4245 0.20064 0.0
C158 C 0.23954 0.43938 0.22857 0.0
C159 C 0.26023 0.44473 0.18777 0.0
P160 P 0.06405 0.27521 0.071 0.0
H161 H 0.07983 0.2557 0.93268 0.0
H162 H 0.0664 0.22055 0.86187 0.0
H163 H 1.00297 0.21267 0.99741 0.0
H164 H 0.01646 0.24851 0.06799 0.0
H165 H 0.07282 0.32778 0.04687 0.0
H166 H 0.06116 0.36431 0.11522 0.0
H167 H 0.01056 0.32067 0.23772 0.0
H168 H 0.02215 0.28408 0.16799 0.0
H169 H 0.06478 0.22178 0.09955 0.0
H170 H 0.0803 0.28927 0.2142 0.0
O171 O 0.09107 0.28376 0.03746 0.0
H172 H 0.06684 0.19905 0.20894 0.0
H173 H 0.08363 0.26624 0.3246 0.0
C174 C 0.04913 0.2551 1.00582 0.0
C175 C 0.0626 0.24703 0.94627 0.0
C176 C 0.05506 0.22651 0.90613 0.0
C177 C 0.03385 0.21324 0.92451 0.0
C178 C 0.01939 0.22236 0.98131 0.0
C179 C 0.02697 0.24306 0.02156 0.0
C180 C 0.04844 0.30299 0.10203 0.0
C181 C 0.05865 0.32608 0.08686 0.0
C182 C 0.05221 0.34702 0.12697 0.0
C183 C 0.03534 0.34548 0.18352 0.0
C184 C 0.02362 0.32269 0.19478 0.0
C185 C 0.0301 0.30169 0.15442 0.0
C186 C 0.07092 0.25751 0.14913 0.0
C187 C 0.0688 0.2318 0.14812 0.0
C188 C 0.07051 0.21863 0.21109 0.0
C189 C 0.07496 0.23084 0.27623 0.0
C190 C 0.07951 0.25633 0.27578 0.0
C191 C 0.0776 0.26952 0.21263 0.0
P192 P 0.25033 0.0757 0.06097 0.0
H193 H 0.26721 0.08468 0.91556 0.0
H194 H 0.30168 0.06828 0.84798 0.0
H195 H 0.31185 0.0119 1.00549 0.0
H196 H 0.27741 0.02891 0.07396 0.0
H197 H 0.19731 0.08221 0.0399 0.0
H198 H 0.16195 0.07009 0.11084 0.0
H199 H 0.2088 0.02417 0.23869 0.0
H200 H 0.24428 0.03658 0.16738 0.0
H201 H 0.3035 0.08438 0.07136 0.0
H202 H 0.24039 0.09103 0.20906 0.0
O203 O 0.2408 0.10105 0.01984 0.0
H204 H 0.33053 0.08981 0.1726 0.0
H205 H 0.26754 0.09713 0.3111 0.0
C206 C 0.26937 0.05792 0.99979 0.0
C207 C 0.27623 0.06827 0.93463 0.0
C208 C 0.29617 0.05885 0.89582 0.0
C209 C 0.30994 0.03887 0.92135 0.0
C210 C 0.30203 0.02756 0.98456 0.0
C211 C 0.28198 0.03698 0.02328 0.0
C212 C 0.22361 0.06043 0.09825 0.0
C213 C 0.19998 0.06899 0.08185 0.0
C214 C 0.17965 0.06203 0.12276 0.0
C215 C 0.18247 0.04643 0.18147 0.0
C216 C 0.20596 0.03657 0.19475 0.0
C217 C 0.22626 0.04337 0.15327 0.0
C218 C 0.2699 0.08566 0.13319 0.0
C219 C 0.29537 0.08723 0.12328 0.0
C220 C 0.3109 0.09081 0.18139 0.0
C221 C 0.30122 0.09334 0.25041 0.0
C222 C 0.27558 0.09456 0.25889 0.0
C223 C 0.26005 0.09093 0.20056 0.0
P224 P 0.43566 0.2425 0.04874 0.0
H225 H 0.4429 0.24306 0.8939 0.0
H226 H 0.46045 0.27413 0.81615 0.0
H227 H 0.48896 0.31295 1.00032 0.0
H228 H 0.47272 0.28099 0.07665 0.0
H229 H 0.40895 0.20054 0.10054 0.0
H230 H 0.42018 0.16518 0.17036 0.0
H231 H 0.49676 0.18543 0.15266 0.0
H232 H 0.4848 0.22205 0.08543 0.0
H233 H 0.41303 0.29089 0.04918 0.0
H234 H 0.43906 0.23966 0.20589 0.0
O235 O 0.41031 0.23643 1.00193 0.0
H236 H 0.40864 0.32245 0.1412 0.0
H237 H 0.43334 0.27057 0.29868 0.0
C238 C 0.4561 0.25978 0.9914 0.0
C239 C 0.45368 0.2578 0.91733 0.0
C240 C 0.4634 0.27596 0.87285 0.0
C241 C 0.47556 0.29677 0.90146 0.0
C242 C 0.4798 0.29742 0.97548 0.0
C243 C 0.47042 0.27901 0.0197 0.0
C244 C 0.44604 0.21367 0.08601 0.0
C245 C 0.42825 0.1971 0.11009 0.0
C246 C 0.43481 0.17665 0.15029 0.0
C247 C 0.45952 0.17192 0.16741 0.0
C248 C 0.4775 0.18838 0.1416 0.0
C249 C 0.47078 0.2092 0.102 0.0
C250 C 0.42677 0.26307 0.12015 0.0
C251 C 0.41704 0.28619 0.10379 0.0
C252 C 0.41431 0.30419 0.15681 0.0
C253 C 0.42097 0.29923 0.22754 0.0
C254 C 0.4286 0.27524 0.24458 0.0
C255 C 0.43175 0.25741 0.19128 0.0
Gd256 Gd 0.98518 0.01449 0.58191 0.0
Gd257 Gd 0.03916 0.00765 0.69702 0.0
C258 C 0.07192 0.073 0.82052 0.0
C259 C 0.11031 0.07966 0.75785 0.0
C260 C 0.0831 0.04626 0.72203 0.0
C261 C 0.0666 0.05302 0.77435 0.0
C262 C 0.10543 0.05909 0.71423 0.0
C263 C 0.09355 0.08662 0.81088 0.0
C264 C 0.05561 0.07837 0.87593 0.0
C265 C 0.03504 0.06352 0.88551 0.0
N266 N 0.04584 0.03946 0.78204 0.0
C267 C 0.03058 0.04391 0.83848 0.0
H268 H 0.01446 0.033 0.84692 0.0
C269 C 0.09505 0.01696 0.63492 0.0
N270 N 0.07785 0.0263 0.68101 0.0
C271 C 0.11742 0.02907 0.62508 0.0
C272 C 0.12249 0.05047 0.66415 0.0
H273 H 0.09105 1.00058 0.60385 0.0
H274 H 0.09777 0.10219 0.84524 0.0
H275 H 0.00757 0.99416 0.42018 0.0
H276 H 0.05897 0.09361 0.91229 0.0
H277 H 0.02247 0.06727 0.92888 0.0
H278 H 0.12723 0.08993 0.75216 0.0
H279 H 0.93183 0.02244 0.66755 0.0
H280 H 0.96489 0.93268 0.35304 0.0
H281 H 1.0003 0.96042 0.33667 0.0
H282 H 0.8966 0.93411 0.51268 0.0
H283 H 0.13064 0.02199 0.58707 0.0
H284 H 0.13983 0.05983 0.6565 0.0
H285 H 0.92641 0.92279 0.41971 0.0
H286 H 0.89177 1.00155 0.67889 0.0
N287 N 0.9783 0.98469 0.49044 0.0
C288 C 0.9683 0.94731 0.39141 0.0
C289 C 0.98832 0.96288 0.38213 0.0
C290 C 0.95225 0.95159 0.44814 0.0
C291 C 0.95765 0.97081 0.49694 0.0
C292 C 0.99272 0.98187 0.43126 0.0
N293 N 0.94592 0.99662 0.59194 0.0
C294 C 0.94095 0.97699 0.54939 0.0
C295 C 0.90548 0.99433 0.64258 0.0
C296 C 0.90076 0.97303 0.60277 0.0
C297 C 0.92816 1.00613 0.63589 0.0
C298 C 0.91837 0.96438 0.55437 0.0
H299 H 0.88319 0.96389 0.60804 0.0
O300 O 0.95562 0.03681 0.53935 0.0
O301 O 0.01124 0.03341 0.65542 0.0
O302 O 1.00419 1.00288 0.76258 0.0
O303 O 0.97352 0.99341 0.68026 0.0
O304 O 0.9747 0.04167 0.66955 0.0
O305 O 0.99309 0.04554 0.51341 0.0
O306 O 0.06822 0.9818 0.7203 0.0
O307 O 0.01205 0.98832 0.62673 0.0
O308 O 0.02111 0.01512 0.51805 0.0
O309 O 0.04891 0.03032 0.60103 0.0
O310 O 0.04811 0.97768 0.61567 0.0
O311 O 0.03747 0.9857 0.79281 0.0
C312 C 0.99662 0.047 0.69008 0.0
C313 C 0.91366 0.94426 0.50894 0.0
C314 C 0.93062 0.93784 0.45598 0.0
C315 C 0.97061 0.0536 0.5167 0.0
C316 C 0.96729 0.07876 0.54641 0.0
C317 C 0.94721 0.08445 0.59086 0.0
C318 C 0.98556 0.09662 0.53627 0.0
C319 C 0.98416 0.11967 0.57081 0.0
C320 C 0.94584 0.10725 0.62561 0.0
C321 C 0.96422 0.12477 0.61594 0.0
C322 C 0.98192 0.9946 0.74641 0.0
C323 C 0.02603 0.97324 0.59506 0.0
C324 C 0.05601 0.97207 0.77233 0.0
C325 C 0.05165 0.94547 0.76379 0.0
C326 C 0.07164 0.92974 0.75104 0.0
C327 C 0.02763 0.93611 0.75871 0.0
C328 C 0.02361 0.91128 0.74098 0.0
C329 C 0.06773 0.90511 0.73251 0.0
C330 C 0.04389 0.89591 0.72723 0.0
C331 C 0.04256 0.02537 0.53461 0.0
H332 H 0.93286 0.07109 0.60036 0.0
H333 H 1.00085 0.09257 0.50114 0.0
H334 H 0.93051 0.11131 0.66047 0.0
H335 H 0.96282 0.14233 0.64352 0.0
H336 H 0.09027 0.93669 0.75355 0.0
H337 H 0.01201 0.94811 0.76756 0.0
H338 H 0.08323 0.89311 0.72234 0.0
H339 H 0.04135 0.87656 0.7147 0.0
Gd340 Gd 0.51085 0.98713 0.59543 0.0
Gd341 Gd 0.50937 0.04576 0.69663 0.0
C342 C 0.44009 0.07671 0.80196 0.0
C343 C 0.43021 0.11115 0.72571 0.0
C344 C 0.46627 0.08596 0.7017 0.0
C345 C 0.46071 0.07129 0.75905 0.0
C346 C 0.45138 0.10638 0.68522 0.0
C347 C 0.42459 0.09636 0.78403 0.0
C348 C 0.43592 0.06254 0.86239 0.0
C349 C 0.45242 0.04392 0.87966 0.0
N350 N 0.47596 0.05231 0.77459 0.0
C351 C 0.47256 0.0392 0.83542 0.0
H352 H 0.48494 0.02468 0.84975 0.0
C353 C 0.49496 0.09695 0.61319 0.0
N354 N 0.48694 0.08099 0.66406 0.0
C355 C 0.48068 0.11723 0.5943 0.0
C356 C 0.4586 0.12179 0.62983 0.0
H357 H 0.512 0.09338 0.58541 0.0
H358 H 0.40851 0.10058 0.81584 0.0
H359 H 0.53468 0.00814 0.4397 0.0
H360 H 0.42025 0.06606 0.89656 0.0
H361 H 0.44956 0.03305 0.92682 0.0
H362 H 0.41841 0.12659 0.71346 0.0
H363 H 0.5058 0.9372 0.69592 0.0
H364 H 0.59812 0.9657 0.38837 0.0
H365 H 0.56958 0.99974 0.36179 0.0
H366 H 0.59792 0.90232 0.56293 0.0
H367 H 0.4867 0.12932 0.55238 0.0
H368 H 0.44762 0.1376 0.6154 0.0
H369 H 0.60899 0.92984 0.46493 0.0
H370 H 0.52883 0.89908 0.72098 0.0
N371 N 0.54344 0.97997 0.51403 0.0
C372 C 0.58283 0.96945 0.42368 0.0
C373 C 0.56673 0.98861 0.40846 0.0
C374 C 0.57846 0.95476 0.48285 0.0
C375 C 0.5582 0.96038 0.52703 0.0
C376 C 0.54688 0.99343 0.45374 0.0
N377 N 0.53155 0.95007 0.61982 0.0
C378 C 0.55207 0.94495 0.58189 0.0
C379 C 0.53566 0.91186 0.68192 0.0
C380 C 0.55765 0.90707 0.64625 0.0
C381 C 0.52263 0.93342 0.66741 0.0
C382 C 0.56589 0.92346 0.59455 0.0
H383 H 0.56772 0.89035 0.65749 0.0
O384 O 0.48613 0.95674 0.57349 0.0
O385 O 0.48812 0.01378 0.6574 0.0
O386 O 0.51668 0.01313 0.77023 0.0
O387 O 0.53241 0.98185 0.69713 0.0
O388 O 0.48144 0.97717 0.67615 0.0
O389 O 0.48953 0.98628 0.49777 0.0
O390 O 0.53205 0.07789 0.71404 0.0
O391 O 0.53244 0.01844 0.63821 0.0
O392 O 0.50673 0.02099 0.52467 0.0
O393 O 0.48616 0.04873 0.59779 0.0
O394 O 0.54055 0.05475 0.61995 0.0
O395 O 0.52675 0.05164 0.79914 0.0
C396 C 0.4746 0.99926 0.69151 0.0
C397 C 0.58689 0.91856 0.55347 0.0
C398 C 0.59318 0.93422 0.49768 0.0
C399 C 0.47644 0.96762 0.51901 0.0
C400 C 0.44958 0.97098 0.5229 0.0
C401 C 0.43481 0.95135 0.54531 0.0
C402 C 0.43873 0.99408 0.51086 0.0
C403 C 0.4134 0.99757 0.5211 0.0
C404 C 0.40974 0.9548 0.55652 0.0
C405 C 0.39906 0.97773 0.54467 0.0
C406 C 0.52823 0.99173 0.76085 0.0
C407 C 0.54701 0.03242 0.60604 0.0
C408 C 0.53888 0.07085 0.77694 0.0
C409 C 0.56544 0.07053 0.78746 0.0
C410 C 0.57724 0.09168 0.81323 0.0
C411 C 0.57926 0.04979 0.76716 0.0
C412 C 0.60495 0.04994 0.7736 0.0
C413 C 0.60272 0.09209 0.81941 0.0
C414 C 0.6165 0.07141 0.80011 0.0
C415 C 0.49308 0.041 0.53413 0.0
H416 H 0.44278 0.93345 0.55549 0.0
H417 H 0.44994 0.00946 0.49434 0.0
H418 H 0.39851 0.9396 0.57416 0.0
H419 H 0.37943 0.9797 0.55196 0.0
H420 H 0.56675 0.1079 0.82805 0.0
H421 H 0.56995 0.03365 0.74631 0.0
H422 H 0.61182 0.10841 0.83982 0.0
H423 H 0.63617 0.07208 0.8081 0.0
Gd424 Gd 0.47838 0.51439 0.676 0.0
Gd425 Gd 0.5375 0.5042 0.58433 0.0
C426 C 0.61191 0.51364 0.69452 0.0
C427 C 0.62819 0.54995 0.63687 0.0
C428 C 0.58831 0.53355 0.60256 0.0
C429 C 0.5905 0.51523 0.65246 0.0
C430 C 0.60741 0.55074 0.59283 0.0
C431 C 0.63043 0.53143 0.68768 0.0
C432 C 0.61434 0.49387 0.74097 0.0
C433 C 0.59607 0.47593 0.74302 0.0
N434 N 0.57225 0.4983 0.65763 0.0
C435 C 0.57524 0.47827 0.70018 0.0
H436 H 0.56146 0.46421 0.70318 0.0
C437 C 0.56674 0.54926 0.50394 0.0
N438 N 0.5681 0.53371 0.56068 0.0
C439 C 0.58517 0.56665 0.49217 0.0
C440 C 0.60542 0.56768 0.53757 0.0
H441 H 0.55095 0.54868 0.46916 0.0
H442 H 0.64683 0.53066 0.72013 0.0
H443 H 0.45501 0.55328 0.55183 0.0
H444 H 0.63043 0.49204 0.77433 0.0
H445 H 0.59795 0.46033 0.77789 0.0
H446 H 0.64292 0.56316 0.63077 0.0
H447 H 0.46497 0.47107 0.79392 0.0
H448 H 0.38351 0.52869 0.49447 0.0
H449 H 0.41779 0.55804 0.48154 0.0
H450 H 0.36969 0.4601 0.64704 0.0
H451 H 0.58367 0.57933 0.4484 0.0
H452 H 0.6197 0.58115 0.52836 0.0
H453 H 0.36595 0.49182 0.55527 0.0
H454 H 0.43146 0.442 0.82069 0.0
N455 N 0.44285 0.5211 0.60572 0.0
C456 C 0.39995 0.52646 0.52615 0.0
C457 C 0.41922 0.54309 0.51889 0.0
C458 C 0.40197 0.50739 0.57506 0.0
C459 C 0.42382 0.50531 0.61499 0.0
C460 C 0.44047 0.54029 0.55965 0.0
N461 N 0.44675 0.48669 0.70512 0.0
C462 C 0.4259 0.48747 0.66613 0.0
C463 C 0.42966 0.45463 0.7769 0.0
C464 C 0.40853 0.45441 0.73497 0.0
C465 C 0.44856 0.47116 0.76168 0.0
C466 C 0.40628 0.47119 0.67941 0.0
H467 H 0.39388 0.4416 0.74684 0.0
O468 O 0.4665 0.52188 0.78401 0.0
O469 O 0.51911 0.51536 0.68417 0.0
O470 O 0.52461 0.46924 0.64126 0.0
O471 O 0.48216 0.47358 0.65331 0.0
O472 O 0.5008 0.50032 0.76895 0.0
O473 O 0.47057 0.55194 0.71041 0.0
O474 O 0.55287 0.4986 0.47947 0.0
O475 O 0.49689 0.50263 0.57674 0.0
O476 O 0.49082 0.5486 0.61597 0.0
O477 O 0.53329 0.54505 0.60821 0.0
O478 O 0.51472 0.51602 0.48915 0.0
O479 O 0.54786 0.46739 0.54899 0.0
C480 C 0.52203 0.5066 0.74533 0.0
C481 C 0.38487 0.47258 0.63811 0.0
C482 C 0.38273 0.49065 0.58596 0.0
C483 C 0.46958 0.5455 0.77706 0.0
C484 C 0.48788 0.55684 0.82546 0.0
C485 C 0.49465 0.54481 0.88843 0.0
C486 C 0.50088 0.57801 0.80513 0.0
C487 C 0.52076 0.58663 0.84589 0.0
C488 C 0.51453 0.55317 0.92858 0.0
C489 C 0.52763 0.57386 0.90736 0.0
C490 C 0.5024 0.46002 0.65414 0.0
C491 C 0.4936 0.51017 0.51446 0.0
C492 C 0.55278 0.47477 0.48466 0.0
C493 C 0.54069 0.46193 0.42528 0.0
C494 C 0.55164 0.46272 0.35791 0.0
C495 C 0.51756 0.45081 0.43338 0.0
C496 C 0.50557 0.44022 0.37435 0.0
C497 C 0.5397 0.45255 0.29909 0.0
C498 C 0.51686 0.44135 0.30708 0.0
C499 C 0.51292 0.55836 0.60627 0.0
H500 H 0.48508 0.52843 0.90555 0.0
H501 H 0.49587 0.58759 0.75701 0.0
H502 H 0.51983 0.54355 0.97626 0.0
H503 H 0.54266 0.58031 0.94031 0.0
H504 H 0.5693 0.47153 0.35071 0.0
H505 H 0.50885 0.45051 0.4852 0.0
H506 H 0.54826 0.45319 0.24719 0.0
H507 H 0.50843 0.43288 0.26079 0.0
Gd508 Gd 0.00816 0.4768 0.68249 0.0
Gd509 Gd 0.01373 0.53613 0.59082 0.0
C510 C 0.99918 0.61099 0.69737 0.0
C511 C 0.96063 0.62305 0.64307 0.0
C512 C 0.98051 0.58467 0.60806 0.0
C513 C 0.99905 0.58899 0.65661 0.0
C514 C 0.96153 0.60205 0.59897 0.0
C515 C 0.97944 0.62752 0.69225 0.0
C516 C 0.0196 0.61624 0.73982 0.0
C517 C 0.03968 0.60036 0.73815 0.0
N518 N 0.01795 0.5727 0.65976 0.0
C519 C 0.03873 0.57886 0.69661 0.0
H520 H 0.05484 0.56757 0.6943 0.0
C521 C 0.96677 0.56168 0.50844 0.0
N522 N 0.98215 0.56446 0.56558 0.0
C523 C 0.94762 0.57835 0.49735 0.0
C524 C 0.94467 0.59836 0.54376 0.0
H525 H 0.96879 0.54603 0.47292 0.0
H526 H 0.97904 0.64427 0.72408 0.0
H527 H 0.97117 0.44627 0.56745 0.0
H528 H 0.02041 0.63291 0.77188 0.0
H529 H 0.056 0.60471 0.76859 0.0
H530 H 0.946 0.63643 0.63765 0.0
H531 H 0.05317 0.46982 0.80151 0.0
H532 H 0.00682 0.37992 0.50169 0.0
H533 H 0.9714 0.40829 0.49598 0.0
H534 H 0.07891 0.37805 0.64706 0.0
H535 H 0.93507 0.57564 0.45338 0.0
H536 H 0.92985 0.61129 0.53502 0.0
H537 H 0.04724 0.36908 0.55719 0.0
H538 H 0.08729 0.44114 0.82607 0.0
N539 N 0.00657 0.44052 0.61209 0.0
C540 C 0.00685 0.39671 0.53336 0.0
C541 C 0.98683 0.41265 0.53007 0.0
C542 C 0.02633 0.40227 0.57919 0.0
C543 C 0.02548 0.42444 0.61905 0.0
C544 C 0.98684 0.43437 0.57072 0.0
N545 N 0.04083 0.45003 0.71004 0.0
C546 C 0.04324 0.4294 0.66949 0.0
C547 C 0.07511 0.43766 0.78164 0.0
C548 C 0.07873 0.41712 0.7376 0.0
C549 C 0.05576 0.45382 0.76768 0.0
C550 C 0.06242 0.4125 0.68156 0.0
H551 H 0.0937 0.40459 0.74859 0.0
O552 O 1.00304 0.46145 0.78695 0.0
O553 O 1.00338 0.51756 0.69063 0.0
O554 O 0.04783 0.52746 0.65774 0.0
O555 O 0.04804 0.48468 0.65809 0.0
O556 O 0.01746 0.50076 0.77906 0.0
O557 O 0.97244 0.46271 0.71326 0.0
O558 O 0.01971 0.55638 0.4937 0.0
O559 O 0.01723 0.49538 0.58144 0.0
O560 O 0.97278 0.48566 0.622 0.0
O561 O 0.97338 0.52831 0.61092 0.0
O562 O 1.00154 0.5127 0.49604 0.0
O563 O 0.05051 0.53971 0.54692 0.0
C564 C 0.01046 0.52146 0.75354 0.0
C565 C 0.06415 0.39112 0.63917 0.0
C566 C 0.04612 0.38601 0.58805 0.0
C567 C 0.97954 0.45856 0.77834 0.0
C568 C 0.96458 0.46914 0.83546 0.0
C569 C 0.96028 0.45524 0.89641 0.0
C570 C 0.9562 0.49357 0.83209 0.0
C571 C 0.94323 0.50409 0.88942 0.0
C572 C 0.94754 0.46554 0.95363 0.0
C573 C 0.93899 0.48971 0.95025 0.0
C574 C 0.05928 0.50609 0.667 0.0
C575 C 0.0088 0.49179 0.51973 0.0
C576 C 0.04247 0.54939 0.48829 0.0
C577 C 0.04914 0.53699 0.42061 0.0
C578 C 0.03793 0.54445 0.3571 0.0
C579 C 0.06548 0.51688 0.419 0.0
C580 C 0.07042 0.50428 0.35483 0.0
C581 C 0.04254 0.53184 0.29356 0.0
C582 C 0.05861 0.51186 0.29228 0.0
C583 C 0.96171 0.50693 0.60853 0.0
H584 H 0.96698 0.43651 0.89994 0.0
H585 H 0.9599 0.50431 0.7851 0.0
H586 H 0.94411 0.45471 1.00056 0.0
H587 H 0.92842 0.49682 0.99469 0.0
H588 H 0.02531 0.55987 0.35675 0.0
H589 H 0.0742 0.51084 0.46756 0.0
H590 H 0.03373 0.53766 0.245 0.0
H591 H 0.06235 0.50281 0.24184 0.0
H592 H 0.13378 0.03789 0.14932 0.0
H593 H 0.18331 0.0456 0.32725 0.0
H594 H 0.09926 0.03376 0.23154 0.0
H595 H 0.14897 0.04095 0.40921 0.0
H596 H 0.07955 0.05934 0.53545 0.0
H597 H 0.11284 0.06392 0.44974 0.0
H598 H 0.08156 1.0058 0.32028 0.0
H599 H 0.04856 1.00094 0.40677 0.0
C600 C 0.13736 0.0386 0.20592 0.0
C601 C 0.16145 0.04205 0.23137 0.0
C602 C 0.11755 0.03606 0.25316 0.0
C603 C 0.12121 0.03717 0.32724 0.0
C604 C 0.14533 0.04034 0.35262 0.0
C605 C 0.16513 0.04266 0.30546 0.0
C606 C 0.07968 0.04761 0.48849 0.0
C607 C 0.06118 0.02986 0.47802 0.0
C608 C 0.09888 0.05015 0.43942 0.0
C609 C 0.10007 0.03514 0.378 0.0
C610 C 0.08115 0.01788 0.36644 0.0
C611 C 0.06204 0.01521 0.41593 0.0
H612 H 0.43626 0.12682 0.17878 0.0
H613 H 0.49752 0.1682 0.26471 0.0
H614 H 0.44388 0.09441 0.26449 0.0
H615 H 0.50594 0.13471 0.34682 0.0
H616 H 0.52397 0.05385 0.42669 0.0
H617 H 0.51686 0.08469 0.33439 0.0
H618 H 0.44312 0.09566 0.41221 0.0
H619 H 0.45055 0.06552 0.50614 0.0
C620 C 0.45136 0.12918 0.21558 0.0
C621 C 0.46599 0.15065 0.2147 0.0
C622 C 0.4558 0.11038 0.26438 0.0
C623 C 0.47544 0.11207 0.31238 0.0
C624 C 0.49074 0.13287 0.31002 0.0
C625 C 0.48596 0.15201 0.26235 0.0
C626 C 0.50613 0.06257 0.42326 0.0
C627 C 0.48771 0.05712 0.47301 0.0
C628 C 0.50216 0.08036 0.37097 0.0
C629 C 0.47946 0.09256 0.36621 0.0
C630 C 0.46076 0.08647 0.41449 0.0
C631 C 0.46497 0.06921 0.46801 0.0
H632 H 0.39817 0.48351 0.15015 0.0
H633 H 0.34868 0.48315 0.32917 0.0
H634 H 0.43279 0.49106 0.23063 0.0
H635 H 0.38342 0.49015 0.40997 0.0
H636 H 0.45846 0.47407 0.52677 0.0
H637 H 0.42341 0.4663 0.44768 0.0
H638 H 0.4464 0.52638 0.31508 0.0
H639 H 0.481 0.53446 0.39498 0.0
C640 C 0.3947 0.48513 0.20672 0.0
C641 C 0.37067 0.48296 0.23326 0.0
C642 C 0.4145 0.48948 0.25277 0.0
C643 C 0.41085 0.49124 0.32668 0.0
C644 C 0.38684 0.48886 0.35335 0.0
C645 C 0.36693 0.48506 0.30708 0.0
C646 C 0.45574 0.48587 0.48145 0.0
C647 C 0.47197 0.50542 0.46836 0.0
C648 C 0.43576 0.48135 0.43598 0.0
C649 C 0.432 0.49587 0.37543 0.0
C650 C 0.44876 0.51489 0.36127 0.0
C651 C 0.4685 0.51957 0.40713 0.0
H652 H 0.06959 0.37821 0.23509 0.0
H653 H 0.9922 0.36162 0.24603 0.0
H654 H 0.06361 0.41309 0.31538 0.0
H655 H 0.98632 0.39632 0.32805 0.0
H656 H 0.97903 0.47508 0.41445 0.0
H657 H 0.98558 0.44032 0.33301 0.0
H658 H 0.0552 0.42561 0.43414 0.0
H659 H 0.04861 0.46077 0.51459 0.0
C660 C 0.0512 0.3821 0.25403 0.0
C661 C 0.03133 0.3671 0.23291 0.0
C662 C 0.04783 0.40208 0.30098 0.0
C663 C 0.02444 0.40792 0.32811 0.0
C664 C 1.00456 0.3928 0.30748 0.0
C665 C 0.00797 0.37267 0.26081 0.0
C666 C 0.99566 0.46428 0.41935 0.0
C667 C 0.01291 0.4701 0.47239 0.0
C668 C 0.9994 0.44424 0.37289 0.0
C669 C 0.02077 0.4297 0.3772 0.0
C670 C 0.03851 0.43625 0.42876 0.0
C671 C 0.03464 0.45622 0.47565 0.0
H672 H 0.88665 0.02174 0.10376 0.0
H673 H 0.85504 0.9554 0.01454 0.0
H674 H 0.92058 0.01865 0.02078 0.0
H675 H 0.88998 0.95133 0.9342 0.0
H676 H 0.93754 0.97053 0.73888 0.0
H677 H 0.90614 0.9679 0.83041 0.0
H678 H 0.95656 0.99983 0.98289 0.0
H679 H 0.98719 1.00397 0.88993 0.0
C680 C 0.88705 1.00624 0.06706 0.0
C681 C 0.86771 0.98904 0.06569 0.0
C682 C 0.90685 1.00426 0.0197 0.0
C683 C 0.90824 0.9848 0.96965 0.0
C684 C 0.8895 0.96688 0.97066 0.0
C685 C 0.86954 0.96899 0.01781 0.0
C686 C 0.94179 0.9774 0.7916 0.0
C687 C 0.96455 0.98869 0.80557 0.0
C688 C 0.92386 0.97544 0.8449 0.0
C689 C 0.92834 0.98419 0.91454 0.0
C690 C 0.95189 0.99368 0.92968 0.0
C691 C 0.96967 0.9959 0.8761 0.0
H692 H 0.56792 0.87124 0.0464 0.0
H693 H 0.50086 0.90326 0.12827 0.0
H694 H 0.5726 0.90566 0.96671 0.0
H695 H 0.50405 0.93612 0.0435 0.0
H696 H 0.51491 0.99943 0.90084 0.0
H697 H 0.51954 0.97135 0.9994 0.0
H698 H 0.55954 0.92094 0.86233 0.0
H699 H 0.55702 0.95032 0.7668 0.0
C700 C 0.55419 0.88564 0.04814 0.0
C701 C 0.53377 0.88394 0.09385 0.0
C702 C 0.55663 0.90534 1.00086 0.0
C703 C 0.53847 0.92381 0.99648 0.0
C704 C 0.51866 0.92265 0.0446 0.0
C705 C 0.51654 0.90329 0.0929 0.0
C706 C 0.52499 0.98253 0.89197 0.0
C707 C 0.53451 0.97667 0.82439 0.0
C708 C 0.52743 0.9661 0.94867 0.0
C709 C 0.53917 0.94311 0.93935 0.0
C710 C 0.55023 0.93819 0.87285 0.0
C711 C 0.54832 0.95492 0.8169 0.0
H712 H 0.66429 0.54056 0.93043 0.0
H713 H 0.62211 0.51524 0.10976 0.0
H714 H 0.62826 0.53702 0.85498 0.0
H715 H 0.58585 0.51178 0.03395 0.0
H716 H 0.53577 0.47946 0.85845 0.0
H717 H 0.56998 0.48666 0.9399 0.0
H718 H 0.58855 0.55289 0.82655 0.0
H719 H 0.55447 0.54525 0.74451 0.0
C720 C 0.6472 0.53471 0.95433 0.0
C721 C 0.64625 0.52827 0.02666 0.0
C722 C 0.62644 0.53263 0.91073 0.0
C723 C 0.604 0.52402 0.93791 0.0
C724 C 0.60287 0.51807 0.01061 0.0
C725 C 0.62369 0.52011 0.05429 0.0
C726 C 0.54726 0.49551 0.851 0.0
C727 C 0.54303 0.5113 0.79372 0.0
C728 C 0.56675 0.49981 0.8981 0.0
C729 C 0.58229 0.52031 0.88991 0.0
C730 C 0.57736 0.53665 0.83392 0.0
C731 C 0.55789 0.53226 0.78661 0.0
H732 H 0.96093 0.63669 0.05382 0.0
H733 H 0.03375 0.65791 0.98634 0.0
H734 H 0.96315 0.60045 0.97549 0.0
H735 H 0.03614 0.62137 0.91155 0.0
H736 H 0.0427 0.53951 0.84993 0.0
H737 H 0.03813 0.57536 0.92873 0.0
H738 H 0.96627 0.58911 0.84105 0.0
H739 H 0.97125 0.55334 0.76071 0.0
C740 C 0.97742 0.63381 0.02277 0.0
C741 C 0.99727 0.65047 0.02808 0.0
C742 C 0.97866 0.61291 0.97778 0.0
C743 C 0.99991 0.60784 0.93755 0.0
C744 C 0.01965 0.6244 0.94268 0.0
C745 C 0.0183 0.64539 0.98653 0.0
C746 C 0.02604 0.55037 0.84702 0.0
C747 C 0.0077 0.54414 0.79763 0.0
C748 C 0.02338 0.57088 0.89224 0.0
C749 C 1.00193 0.58532 0.89097 0.0
C750 C 0.98305 0.57845 0.84346 0.0
C751 C 0.98599 0.55817 0.79687 0.0
H752 H 0.0538 0.24812 0.39918 0.0
H753 H 0.08769 0.18319 0.30735 0.0
H754 H 0.03823 0.22371 0.4965 0.0
H755 H 0.07043 0.15845 0.40144 0.0
H756 H 0.03423 0.11485 0.5649 0.0
H757 H 0.06349 0.14464 0.51816 0.0
H758 H 1.0044 0.19701 0.49204 0.0
H759 H 0.97567 0.16766 0.54042 0.0
C760 C 0.05854 0.22877 0.40053 0.0
C761 C 0.07141 0.21749 0.34409 0.0
C762 C 0.04927 0.21467 0.45604 0.0
C763 C 0.05228 0.18896 0.45564 0.0
C764 C 0.06754 0.17817 0.4036 0.0
C765 C 0.07717 0.19233 0.34877 0.0
C766 C 0.02771 0.13297 0.55053 0.0
C767 C 1.00264 0.13886 0.55532 0.0
C768 C 0.04444 0.15002 0.52368 0.0
C769 C 0.03633 0.17316 0.5003 0.0
C770 C 0.01151 0.17957 0.51029 0.0
C771 C 0.9949 0.16265 0.53777 0.0
H772 H 0.29252 0.06673 0.36948 0.0
H773 H 0.34741 0.11273 0.27169 0.0
H774 H 0.32251 0.05239 0.45381 0.0
H775 H 0.37779 0.09829 0.35723 0.0
H776 H 0.42255 0.02589 0.40518 0.0
H777 H 0.39709 0.05864 0.3593 0.0
H778 H 0.35175 0.05578 0.54775 0.0
H779 H 0.37722 0.02251 0.59322 0.0
C780 C 0.31076 0.07463 0.36778 0.0
C781 C 0.31765 0.09053 0.31284 0.0
C782 C 0.32809 0.06637 0.41652 0.0
C783 C 0.35275 0.07382 0.4116 0.0
C784 C 0.35906 0.09177 0.36145 0.0
C785 C 0.34167 0.10004 0.31247 0.0
C786 C 0.40763 0.03274 0.43795 0.0
C787 C 0.40149 0.02116 0.50195 0.0
C788 C 0.39303 0.05169 0.41175 0.0
C789 C 0.37198 0.0595 0.44908 0.0
C790 C 0.36746 0.04975 0.51681 0.0
C791 C 0.382 0.03067 0.54282 0.0
H792 H 0.39179 0.34043 0.24611 0.0
H793 H 0.45716 0.30516 0.32635 0.0
H794 H 0.40314 0.3783 0.30932 0.0
H795 H 0.46814 0.34231 0.38919 0.0
H796 H 0.49414 0.40798 0.48014 0.0
H797 H 0.46361 0.37535 0.47304 0.0
H798 H 0.43552 0.40638 0.27868 0.0
H799 H 0.46512 0.43965 0.28804 0.0
C800 C 0.40823 0.34052 0.27847 0.0
C801 C 0.42379 0.31982 0.27981 0.0
C802 C 0.41466 0.36218 0.31493 0.0
C803 C 0.43673 0.36353 0.3536 0.0
C804 C 0.45085 0.34203 0.3608 0.0
C805 C 0.44451 0.32051 0.32431 0.0
C806 C 0.48075 0.40846 0.43763 0.0
C807 C 0.48267 0.42575 0.38286 0.0
C808 C 0.46334 0.38962 0.43327 0.0
C809 C 0.44778 0.38765 0.37377 0.0
C810 C 0.44736 0.40706 0.32487 0.0
C811 C 0.46461 0.426 0.32959 0.0
H812 H 0.20866 0.42398 0.34312 0.0
H813 H 0.17646 0.42754 0.13349 0.0
H814 H 0.16924 0.43587 0.39533 0.0
H815 H 0.13754 0.4391 0.18513 0.0
H816 H 0.11535 0.50371 0.41877 0.0
H817 H 0.14914 0.47575 0.39389 0.0
H818 H 0.10196 0.43209 0.25763 0.0
H819 H 0.06802 0.4603 0.28254 0.0
C820 C 0.19309 0.42671 0.30829 0.0
C821 C 0.19588 0.42511 0.23402 0.0
C822 C 0.17052 0.43352 0.3382 0.0
C823 C 0.15031 0.43878 0.29441 0.0
C824 C 0.15257 0.43495 0.22069 0.0
C825 C 0.17505 0.42823 0.19089 0.0
C826 C 0.11194 0.48772 0.38531 0.0
C827 C 0.08918 0.48449 0.35141 0.0
C828 C 0.13133 0.47158 0.37117 0.0
C829 C 0.12836 0.45183 0.32292 0.0
C830 C 0.10496 0.4474 0.29397 0.0
C831 C 0.08557 0.46358 0.30803 0.0
H832 H 0.91691 0.83373 0.95949 0.0
H833 H 0.96619 0.78863 0.83366 0.0
H834 H 0.92106 0.86674 0.87337 0.0
H835 H 0.97053 0.82097 0.74973 0.0
H836 H 1.00149 0.87963 0.64629 0.0
H837 H 0.96655 0.85307 0.6715 0.0
H838 H 0.95577 0.89167 0.87161 0.0
H839 H 0.98941 0.91876 0.84409 0.0
C840 C 0.92795 0.83051 0.9124 0.0
C841 C 0.94206 0.80892 0.90527 0.0
C842 C 0.93035 0.84944 0.86297 0.0
C843 C 0.94713 0.84713 0.8063 0.0
C844 C 0.95766 0.82387 0.79284 0.0
C845 C 0.95518 0.80501 0.8418 0.0
C846 C 0.99093 0.88294 0.69425 0.0
C847 C 0.99865 0.9006 0.74448 0.0
C848 C 0.97094 0.86771 0.7089 0.0
C849 C 0.95904 0.86928 0.77531 0.0
C850 C 0.96449 0.88949 0.82023 0.0
C851 C 0.98408 0.90505 0.80477 0.0
H852 H 0.73154 0.97734 0.85805 0.0
H853 H 0.67253 0.95697 0.99868 0.0
H854 H 0.70264 0.98043 0.76038 0.0
H855 H 0.64341 0.96234 0.90441 0.0
H856 H 0.59182 1.00149 0.7954 0.0
H857 H 0.61979 0.96729 0.80894 0.0
H858 H 0.67964 0.01344 0.73823 0.0
H859 H 0.65121 0.04634 0.71692 0.0
C860 C 0.71247 0.97287 0.8678 0.0
C861 C 0.70404 0.96831 0.93701 0.0
C862 C 0.69572 0.97502 0.81183 0.0
C863 C 0.67027 0.97365 0.82498 0.0
C864 C 0.6626 0.9645 0.89131 0.0
C865 C 0.67937 0.96171 0.9465 0.0
C866 C 0.61077 1.00404 0.77977 0.0
C867 C 0.61965 0.02728 0.75978 0.0
C868 C 0.62701 0.98438 0.78852 0.0
C869 C 0.65249 0.98802 0.78101 0.0
C870 C 0.66043 0.0098 0.74795 0.0
C871 C 0.64409 0.02913 0.7369 0.0
H872 H 0.58682 0.69866 0.02956 0.0
H873 H 0.53937 0.73918 0.88908 0.0
H874 H 0.58627 0.66401 0.94808 0.0
H875 H 0.54021 0.70507 0.80429 0.0
H876 H 0.49861 0.62962 0.8116 0.0
H877 H 0.51633 0.67019 0.82061 0.0
H878 H 0.58831 0.63804 0.84939 0.0
H879 H 0.57 0.59705 0.84291 0.0
C880 C 0.57711 0.70052 0.97966 0.0
C881 C 0.56221 0.72113 0.96732 0.0
C882 C 0.57702 0.68068 0.93205 0.0
C883 C 0.56224 0.68123 0.87066 0.0
C884 C 0.55097 0.70363 0.85248 0.0
C885 C 0.55071 0.72336 0.90083 0.0
C886 C 0.51835 0.63117 0.81727 0.0
C887 C 0.53281 0.61027 0.82908 0.0
C888 C 0.52868 0.65459 0.822 0.0
C889 C 0.55376 0.65756 0.83825 0.0
C890 C 0.56879 0.63647 0.83946 0.0
C891 C 0.55835 0.61299 0.83572 0.0
H892 H 0.81333 0.55167 0.85482 0.0
H893 H 0.83587 0.59032 0.04556 0.0
H894 H 0.85412 0.55494 0.80794 0.0
H895 H 0.87629 0.59638 0.99519 0.0
H896 H 0.93859 0.53922 0.99407 0.0
H897 H 0.90689 0.56982 0.99951 0.0
H898 H 0.89282 0.55903 0.77466 0.0
H899 H 0.92295 0.52625 0.77186 0.0
C900 C 0.82688 0.56167 0.88583 0.0
C901 C 0.82183 0.56904 0.95608 0.0
C902 C 0.85052 0.56398 0.85832 0.0
C903 C 0.86953 0.57422 0.90015 0.0
C904 C 0.8628 0.58661 0.96352 0.0
C905 C 0.8393 0.58353 0.99215 0.0
C906 C 0.9288 0.54348 0.94563 0.0
C907 C 0.93188 0.52892 0.88423 0.0
C908 C 0.91065 0.56155 0.94816 0.0
C909 C 0.89545 0.56567 0.88871 0.0
C910 C 0.90264 0.55504 0.82317 0.0
C911 C 0.92032 0.53637 0.8212 0.0
H912 H 0.98856 0.19469 0.88437 0.0
H913 H 0.06578 0.1769 0.88107 0.0
H914 H 0.97947 0.15544 0.82514 0.0
H915 H 0.05675 0.13774 0.8229 0.0
H916 H 0.03542 0.07778 0.66224 0.0
H917 H 0.04374 0.11834 0.71481 0.0
H918 H 0.97833 0.11212 0.84334 0.0
H919 H 0.96997 0.07185 0.78947 0.0
C920 C 1.00361 0.18241 0.87139 0.0
C921 C 0.02794 0.18926 0.88735 0.0
C922 C 0.99841 0.15979 0.83741 0.0
C923 C 0.01735 0.1432 0.81871 0.0
C924 C 0.04165 0.15008 0.83482 0.0
C925 C 0.04685 0.17268 0.86845 0.0
C926 C 0.02302 0.08502 0.70233 0.0
C927 C 1.00246 0.07129 0.72339 0.0
C928 C 0.02772 0.10834 0.73251 0.0
C929 C 0.01186 0.11867 0.78418 0.0
C930 C 0.99093 0.10506 0.80355 0.0
C931 C 0.98622 0.08181 0.77319 0.0
H932 H 0.32021 0.03648 0.77753 0.0
H933 H 0.35335 0.02458 0.98283 0.0
H934 H 0.3592 0.02658 0.71987 0.0
H935 H 0.39218 0.01464 0.92525 0.0
H936 H 0.45254 0.97575 0.80037 0.0
H937 H 0.41217 0.98374 0.85257 0.0
H938 H 0.4006 0.04237 0.70286 0.0
H939 H 0.44084 0.03383 0.64986 0.0
C940 C 0.33576 0.03177 0.81053 0.0
C941 C 0.33339 0.03124 0.88514 0.0
C942 C 0.3582 0.02612 0.77732 0.0
C943 C 0.37896 0.01969 0.81766 0.0
C944 C 0.37654 0.019 0.89215 0.0
C945 C 0.35414 0.02466 0.92532 0.0
C946 C 0.44133 0.99037 0.77885 0.0
C947 C 0.45018 1.00475 0.72286 0.0
C948 C 0.41822 0.99504 0.80887 0.0
C949 C 0.40311 0.01395 0.78278 0.0
C950 C 0.41159 0.02761 0.72436 0.0
C951 C 0.43483 0.023 0.69461 0.0
H952 H 0.45105 0.31385 0.78343 0.0
H953 H 0.5142 0.32974 0.91516 0.0
H954 H 0.45929 0.35027 0.71433 0.0
H955 H 0.52122 0.36736 0.84953 0.0
H956 H 0.53883 0.42772 0.69491 0.0
H957 H 0.53397 0.38702 0.74611 0.0
H958 H 0.45538 0.39252 0.71883 0.0
H959 H 0.46052 0.4323 0.66365 0.0
C960 C 0.46688 0.32489 0.79762 0.0
C961 C 0.48187 0.3185 0.85568 0.0
C962 C 0.47135 0.34625 0.75841 0.0
C963 C 0.49078 0.36228 0.77633 0.0
C964 C 0.50618 0.35558 0.83318 0.0
C965 C 0.50189 0.33402 0.87188 0.0
C966 C 0.52054 0.42016 0.69903 0.0
C967 C 0.50002 0.43382 0.6769 0.0
C968 C 0.51769 0.39677 0.72924 0.0
C969 C 0.49421 0.38632 0.73833 0.0
C970 C 0.47383 0.39958 0.71287 0.0
C971 C 0.47673 0.42277 0.682 0.0
H972 H 0.21003 0.46807 0.79056 0.0
H973 H 0.18518 0.52084 0.94856 0.0
H974 H 0.17302 0.4748 0.7225 0.0
H975 H 0.14707 0.52571 0.88399 0.0
H976 H 0.08472 0.54289 0.73708 0.0
H977 H 0.12535 0.54087 0.78971 0.0
H978 H 0.13223 0.46541 0.71646 0.0
H979 H 0.09257 0.46842 0.65855 0.0
C980 C 0.19686 0.48128 0.81097 0.0
C981 C 0.201 0.49382 0.87593 0.0
C982 C 0.17516 0.48478 0.77222 0.0
C983 C 0.1565 0.5006 0.79749 0.0
C984 C 0.16085 0.51354 0.86166 0.0
C985 C 0.18277 0.51039 0.89978 0.0
C986 C 0.09513 0.52611 0.73047 0.0
C987 C 0.08512 0.5058 0.6937 0.0
C988 C 0.11843 0.52473 0.76206 0.0
C989 C 0.13237 0.50284 0.75878 0.0
C990 C 0.12254 0.48278 0.71998 0.0
C991 C 0.09947 0.48436 0.68731 0.0
H992 H 0.98467 0.82366 0.45077 0.0
H993 H 0.01959 0.85747 0.27088 0.0
H994 H 0.98859 0.86241 0.51845 0.0
H995 H 0.02258 0.89613 0.33618 0.0
H996 H 0.05281 0.95256 0.48991 0.0
H997 H 0.04558 0.91433 0.42525 0.0
H998 H 0.97752 0.90443 0.53962 0.0
H999 H 0.98571 0.94257 0.6072 0.0
C1000 C 0.99293 0.83943 0.42542 0.0
C1001 C 1.00226 0.83724 0.3558 0.0
C1002 C 0.99511 0.86176 0.46411 0.0
C1003 C 0.00641 0.8826 0.43381 0.0
C1004 C 0.01459 0.8805 0.36288 0.0
C1005 C 0.01275 0.85824 0.32495 0.0
C1006 C 0.03616 0.94235 0.50075 0.0
C1007 C 0.01944 0.95105 0.55192 0.0
C1008 C 0.03186 0.92036 0.46323 0.0
C1009 C 0.01067 0.90613 0.47565 0.0
C1010 C 0.99408 0.91466 0.52821 0.0
C1011 C 0.99852 0.93677 0.56623 0.0
H1012 H 0.70301 1.00589 0.51061 0.0
H1013 H 0.66459 0.99665 0.31168 0.0
H1014 H 0.66354 0.01276 0.57186 0.0
H1015 H 0.62552 1.00437 0.37206 0.0
H1016 H 0.56894 0.05443 0.49415 0.0
H1017 H 0.60875 0.04477 0.43987 0.0
H1018 H 0.62009 0.98739 0.59319 0.0
H1019 H 0.57966 0.99652 0.64589 0.0
C1020 C 0.68616 1.00515 0.48014 0.0
C1021 C 0.68693 1.00051 0.40635 0.0
C1022 C 0.6636 0.00903 0.51516 0.0
C1023 C 0.64142 0.00913 0.47673 0.0
C1024 C 0.64225 1.00438 0.40315 0.0
C1025 C 0.66464 0.99984 0.36864 0.0
C1026 C 0.57985 0.03962 0.51583 0.0
C1027 C 0.57091 0.02578 0.57289 0.0
C1028 C 0.60264 0.03411 0.48487 0.0
C1029 C 0.61751 0.01521 0.51189 0.0
C1030 C 0.60904 1.00201 0.57105 0.0
C1031 C 0.58585 0.00709 0.60081 0.0
H1032 H 0.49092 0.71467 0.50368 0.0
H1033 H 0.55352 0.69012 0.38089 0.0
H1034 H 0.48975 0.67506 0.56343 0.0
H1035 H 0.55265 0.65081 0.44209 0.0
H1036 H 0.5542 0.58762 0.60227 0.0
H1037 H 0.55775 0.62964 0.55822 0.0
H1038 H 0.47924 0.63239 0.52897 0.0
H1039 H 0.47577 0.59037 0.57133 0.0
C1040 C 0.50454 0.70097 0.48948 0.0
C1041 C 0.52218 0.7058 0.43653 0.0
C1042 C 0.50387 0.67818 0.524 0.0
C1043 C 0.52096 0.65956 0.5073 0.0
C1044 C 0.53931 0.66474 0.4569 0.0
C1045 C 0.53986 0.68745 0.42188 0.0
C1046 C 0.53772 0.59702 0.58551 0.0
C1047 C 0.5148 0.58504 0.58781 0.0
C1048 C 0.53975 0.62124 0.56065 0.0
C1049 C 0.51883 0.63441 0.539 0.0
C1050 C 0.49578 0.62291 0.54518 0.0
C1051 C 0.4938 0.59863 0.56919 0.0
H1052 H 0.81022 0.5376 0.46046 0.0
H1053 H 0.84277 0.4854 0.31373 0.0
H1054 H 0.84714 0.53578 0.53465 0.0
H1055 H 0.87945 0.48383 0.38634 0.0
H1056 H 0.93558 0.46819 0.55156 0.0
H1057 H 0.89587 0.46922 0.49314 0.0
H1058 H 0.88942 0.54677 0.5434 0.0
H1059 H 0.92867 0.54524 0.60576 0.0
C1060 C 0.82522 0.52579 0.44385 0.0
C1061 C 0.82322 0.51139 0.3814 0.0
C1062 C 0.84648 0.52476 0.48639 0.0
C1063 C 0.8664 0.5094 0.46741 0.0
C1064 C 0.8644 0.49533 0.40437 0.0
C1065 C 0.84323 0.49627 0.36232 0.0
C1066 C 0.92562 0.48539 0.5513 0.0
C1067 C 0.93583 0.50678 0.58186 0.0
C1068 C 0.90282 0.48609 0.51678 0.0
C1069 C 0.88945 0.50824 0.51144 0.0
C1070 C 0.89902 0.52934 0.54581 0.0
C1071 C 0.92178 0.52855 0.5809 0.0
loop_
_geom_bond_atom_site_label_1
_geom_bond_atom_site_label_2
_geom_bond_distance
_geom_bond_site_symmetry_2
_ccdc_geom_bond_type
P0 O11 1.490 . S
P0 C14 1.812 . S
P0 C20 1.803 . S
P0 C26 1.819 . S
H1 C15 0.941 . S
H2 C16 0.939 . S
H3 C18 0.940 . S
H4 C19 0.940 . S
H5 C21 0.939 . S
H6 C22 0.942 . S
H7 C24 0.940 . S
H8 C25 0.939 . S
H9 C27 0.941 . S
H10 C31 0.939 . S
O11 P0 1.490 . S
H12 C28 0.939 . S
H13 C30 0.940 . S
C14 P0 1.812 . S
C14 C15 1.389 . S
C14 C19 1.391 . S
C15 H1 0.941 . S
C15 C14 1.389 . S
C15 C16 1.397 . S
C16 H2 0.939 . S
C16 C15 1.397 . S
C16 C17 1.378 . S
C17 C16 1.378 . S
C17 C18 1.378 . S
C18 H3 0.940 . S
C18 C17 1.378 . S
C18 C19 1.396 . S
C19 H4 0.940 . S
C19 C14 1.391 . S
C19 C18 1.396 . S
C20 P0 1.803 . S
C20 C21 1.378 . S
C20 C25 1.400 . S
C21 H5 0.939 . S
C21 C20 1.378 . S
C21 C22 1.361 . S
C22 H6 0.942 . S
C22 C21 1.361 . S
C22 C23 1.369 . S
C23 C22 1.369 . S
C23 C24 1.404 . S
C24 H7 0.940 . S
C24 C23 1.404 . S
C24 C25 1.389 . S
C25 H8 0.939 . S
C25 C20 1.400 . S
C25 C24 1.389 . S
C26 P0 1.819 . S
C26 C27 1.391 . S
C26 C31 1.391 . S
C27 H9 0.941 . S
C27 C26 1.391 . S
C27 C28 1.396 . S
C28 H12 0.939 . S
C28 C27 1.396 . S
C28 C29 1.397 . S
C29 C28 1.397 . S
C29 C30 1.385 . S
C30 H13 0.940 . S
C30 C29 1.385 . S
C30 C31 1.388 . S
C31 H10 0.939 . S
C31 C26 1.391 . S
C31 C30 1.388 . S
P32 O43 1.510 . S
P32 C46 1.812 . S
P32 C52 1.803 . S
P32 C58 1.819 . S
H33 C47 0.941 . S
H34 C48 0.939 . S
H35 C50 0.940 . S
H36 C51 0.940 . S
H37 C53 0.939 . S
H38 C54 0.942 . S
H39 C56 0.940 . S
H40 C57 0.939 . S
H41 C59 0.941 . S
H42 C63 0.939 . S
O43 P32 1.510 . S
H44 C60 0.939 . S
H45 C62 0.940 . S
C46 P32 1.812 . S
C46 C47 1.389 . S
C46 C51 1.391 . S
C47 H33 0.941 . S
C47 C46 1.389 . S
C47 C48 1.397 . S
C48 H34 0.939 . S
C48 C47 1.397 . S
C48 C49 1.378 . S
C49 C48 1.378 . S
C49 C50 1.378 . S
C50 H35 0.940 . S
C50 C49 1.378 . S
C50 C51 1.396 . S
C51 H36 0.940 . S
C51 C46 1.391 . S
C51 C50 1.396 . S
C52 P32 1.803 . S
C52 C53 1.378 . S
C52 C57 1.400 . S
C53 H37 0.939 . S
C53 C52 1.378 . S
C53 C54 1.361 . S
C54 H38 0.942 . S
C54 C53 1.361 . S
C54 C55 1.369 . S
C55 C54 1.369 . S
C55 C56 1.404 . S
C56 H39 0.940 . S
C56 C55 1.404 . S
C56 C57 1.389 . S
C57 H40 0.939 . S
C57 C52 1.400 . S
C57 C56 1.389 . S
C58 P32 1.819 . S
C58 C59 1.391 . S
C58 C63 1.391 . S
C59 H41 0.941 . S
C59 C58 1.391 . S
C59 C60 1.396 . S
C60 H44 0.939 . S
C60 C59 1.396 . S
C60 C61 1.397 . S
C61 C60 1.397 . S
C61 C62 1.385 . S
C62 H45 0.940 . S
C62 C61 1.385 . S
C62 C63 1.388 . S
C63 H42 0.939 . S
C63 C58 1.391 . S
C63 C62 1.388 . S
P64 O75 1.490 1_565 S
P64 C78 1.812 . S
P64 C84 1.803 . S
P64 C90 1.819 . S
H65 C79 0.941 . S
H66 C80 0.939 . S
H67 C82 0.940 . S
H68 C83 0.940 . S
H69 C85 0.939 . S
H70 C86 0.942 . S
H71 C88 0.940 . S
H72 C89 0.939 . S
H73 C91 0.941 . S
H74 C95 0.939 . S
O75 P64 1.490 1_545 S
H76 C92 0.939 . S
H77 C94 0.940 . S
C78 P64 1.812 . S
C78 C79 1.389 . S
C78 C83 1.391 . S
C79 H65 0.941 . S
C79 C78 1.389 . S
C79 C80 1.397 . S
C80 H66 0.939 . S
C80 C79 1.397 . S
C80 C81 1.378 . S
C81 C80 1.378 . S
C81 C82 1.378 . S
C82 H67 0.940 . S
C82 C81 1.378 . S
C82 C83 1.396 . S
C83 H68 0.940 . S
C83 C78 1.391 . S
C83 C82 1.396 . S
C84 P64 1.803 . S
C84 C85 1.378 . S
C84 C89 1.400 . S
C85 H69 0.939 . S
C85 C84 1.378 . S
C85 C86 1.361 . S
C86 H70 0.942 . S
C86 C85 1.361 . S
C86 C87 1.369 . S
C87 C86 1.369 . S
C87 C88 1.404 . S
C88 H71 0.940 . S
C88 C87 1.404 . S
C88 C89 1.389 . S
C89 H72 0.939 . S
C89 C84 1.400 . S
C89 C88 1.389 . S
C90 P64 1.819 . S
C90 C91 1.391 . S
C90 C95 1.391 . S
C91 H73 0.941 . S
C91 C90 1.391 . S
C91 C92 1.396 . S
C92 H76 0.939 . S
C92 C91 1.396 . S
C92 C93 1.397 . S
C93 C92 1.397 . S
C93 C94 1.385 . S
C94 H77 0.940 . S
C94 C93 1.385 . S
C94 C95 1.388 . S
C95 H74 0.939 . S
C95 C90 1.391 . S
C95 C94 1.388 . S
P96 O107 1.490 . S
P96 C110 1.812 . S
P96 C116 1.803 . S
P96 C122 1.819 . S
H97 C111 0.941 . S
H98 C112 0.939 . S
H99 C114 0.940 . S
H100 C115 0.940 . S
H101 C117 0.939 . S
H102 C118 0.942 . S
H103 C120 0.940 . S
H104 C121 0.939 . S
H105 C123 0.941 . S
H106 C127 0.939 . S
O107 P96 1.490 . S
H108 C124 0.939 . S
H109 C126 0.940 . S
C110 P96 1.812 . S
C110 C111 1.389 . S
C110 C115 1.391 . S
C111 H97 0.941 . S
C111 C110 1.389 . S
C111 C112 1.397 . S
C112 H98 0.939 . S
C112 C111 1.397 . S
C112 C113 1.378 . S
C113 C112 1.378 . S
C113 C114 1.378 . S
C114 H99 0.940 . S
C114 C113 1.378 . S
C114 C115 1.396 . S
C115 H100 0.940 . S
C115 C110 1.391 . S
C115 C114 1.396 . S
C116 P96 1.803 . S
C116 C117 1.378 . S
C116 C121 1.400 . S
C117 H101 0.939 . S
C117 C116 1.378 . S
C117 C118 1.361 . S
C118 H102 0.942 . S
C118 C117 1.361 . S
C118 C119 1.369 . S
C119 C118 1.369 . S
C119 C120 1.404 . S
C120 H103 0.940 . S
C120 C119 1.404 . S
C120 C121 1.389 . S
C121 H104 0.939 . S
C121 C116 1.400 . S
C121 C120 1.389 . S
C122 P96 1.819 . S
C122 C123 1.391 . S
C122 C127 1.391 . S
C123 H105 0.941 . S
C123 C122 1.391 . S
C123 C124 1.396 . S
C124 H108 0.939 . S
C124 C123 1.396 . S
C124 C125 1.397 . S
C125 C124 1.397 . S
C125 C126 1.385 . S
C126 H109 0.940 . S
C126 C125 1.385 . S
C126 C127 1.388 . S
C127 H106 0.939 . S
C127 C122 1.391 . S
C127 C126 1.388 . S
P128 O139 1.490 . S
P128 C142 1.812 1_554 S
P128 C148 1.803 . S
P128 C154 1.819 . S
H129 C143 0.941 . S
H130 C144 0.939 . S
H131 C146 0.940 . S
H132 C147 0.940 . S
H133 C149 0.939 . S
H134 C150 0.942 . S
H135 C152 0.940 . S
H136 C153 0.939 1_556 S
H137 C155 0.941 . S
H138 C159 0.939 . S
O139 P128 1.490 . S
H140 C156 0.939 . S
H141 C158 0.940 . S
C142 P128 1.812 1_556 S
C142 C143 1.389 . S
C142 C147 1.391 . S
C143 H129 0.941 . S
C143 C142 1.389 . S
C143 C144 1.397 . S
C144 H130 0.939 . S
C144 C143 1.397 . S
C144 C145 1.378 . S
C145 C144 1.378 . S
C145 C146 1.378 . S
C146 H131 0.940 . S
C146 C145 1.378 . S
C146 C147 1.396 . S
C147 H132 0.940 . S
C147 C142 1.391 . S
C147 C146 1.396 . S
C148 P128 1.803 . S
C148 C149 1.378 . S
C148 C153 1.400 . S
C149 H133 0.939 . S
C149 C148 1.378 . S
C149 C150 1.361 . S
C150 H134 0.942 . S
C150 C149 1.361 . S
C150 C151 1.369 . S
C151 C150 1.369 . S
C151 C152 1.404 . S
C152 H135 0.940 . S
C152 C151 1.404 . S
C152 C153 1.389 . S
C153 H136 0.939 1_554 S
C153 C148 1.400 . S
C153 C152 1.389 . S
C154 P128 1.819 . S
C154 C155 1.391 . S
C154 C159 1.391 . S
C155 H137 0.941 . S
C155 C154 1.391 . S
C155 C156 1.396 . S
C156 H140 0.939 . S
C156 C155 1.396 . S
C156 C157 1.397 . S
C157 C156 1.397 . S
C157 C158 1.385 . S
C158 H141 0.940 . S
C158 C157 1.385 . S
C158 C159 1.388 . S
C159 H138 0.939 . S
C159 C154 1.391 . S
C159 C158 1.388 . S
P160 O171 1.490 . S
P160 C174 1.812 1_554 S
P160 C180 1.803 . S
P160 C186 1.819 . S
H161 C175 0.941 . S
H162 C176 0.939 . S
H163 C178 0.940 . S
H164 C179 0.940 . S
H165 C181 0.939 . S
H166 C182 0.942 . S
H167 C184 0.940 . S
H168 C185 0.939 1_556 S
H169 C187 0.941 . S
H170 C191 0.939 . S
O171 P160 1.490 . S
H172 C188 0.939 . S
H173 C190 0.940 . S
C174 P160 1.812 1_556 S
C174 C175 1.389 . S
C174 C179 1.391 . S
C175 H161 0.941 . S
C175 C174 1.389 . S
C175 C176 1.397 . S
C176 H162 0.939 . S
C176 C175 1.397 . S
C176 C177 1.378 . S
C177 C176 1.378 . S
C177 C178 1.378 . S
C178 H163 0.940 . S
C178 C177 1.378 . S
C178 C179 1.396 . S
C179 H164 0.940 . S
C179 C174 1.391 . S
C179 C178 1.396 . S
C180 P160 1.803 . S
C180 C181 1.378 . S
C180 C185 1.400 . S
C181 H165 0.939 . S
C181 C180 1.378 . S
C181 C182 1.361 . S
C182 H166 0.942 . S
C182 C181 1.361 . S
C182 C183 1.369 . S
C183 C182 1.369 . S
C183 C184 1.404 . S
C184 H167 0.940 . S
C184 C183 1.404 . S
C184 C185 1.389 . S
C185 H168 0.939 1_554 S
C185 C180 1.400 . S
C185 C184 1.389 . S
C186 P160 1.819 . S
C186 C187 1.391 . S
C186 C191 1.391 . S
C187 H169 0.941 . S
C187 C186 1.391 . S
C187 C188 1.396 . S
C188 H172 0.939 . S
C188 C187 1.396 . S
C188 C189 1.397 . S
C189 C188 1.397 . S
C189 C190 1.385 . S
C190 H173 0.940 . S
C190 C189 1.385 . S
C190 C191 1.388 . S
C191 H170 0.939 . S
C191 C186 1.391 . S
C191 C190 1.388 . S
P192 O203 1.490 . S
P192 C206 1.812 1_554 S
P192 C212 1.803 . S
P192 C218 1.819 . S
H193 C207 0.941 . S
H194 C208 0.939 . S
H195 C210 0.940 . S
H196 C211 0.940 . S
H197 C213 0.939 . S
H198 C214 0.942 . S
H199 C216 0.940 . S
H200 C217 0.939 1_556 S
H201 C219 0.941 . S
H202 C223 0.939 . S
O203 P192 1.490 . S
H204 C220 0.939 . S
H205 C222 0.940 . S
C206 P192 1.812 1_556 S
C206 C207 1.389 . S
C206 C211 1.391 . S
C207 H193 0.941 . S
C207 C206 1.389 . S
C207 C208 1.397 . S
C208 H194 0.939 . S
C208 C207 1.397 . S
C208 C209 1.378 . S
C209 C208 1.378 . S
C209 C210 1.378 . S
C210 H195 0.940 . S
C210 C209 1.378 . S
C210 C211 1.396 . S
C211 H196 0.940 . S
C211 C206 1.391 . S
C211 C210 1.396 . S
C212 P192 1.803 . S
C212 C213 1.378 . S
C212 C217 1.400 . S
C213 H197 0.939 . S
C213 C212 1.378 . S
C213 C214 1.361 . S
C214 H198 0.942 . S
C214 C213 1.361 . S
C214 C215 1.369 . S
C215 C214 1.369 . S
C215 C216 1.404 . S
C216 H199 0.940 . S
C216 C215 1.404 . S
C216 C217 1.389 . S
C217 H200 0.939 1_554 S
C217 C212 1.400 . S
C217 C216 1.389 . S
C218 P192 1.819 . S
C218 C219 1.391 . S
C218 C223 1.391 . S
C219 H201 0.941 . S
C219 C218 1.391 . S
C219 C220 1.396 . S
C220 H204 0.939 . S
C220 C219 1.396 . S
C220 C221 1.397 . S
C221 C220 1.397 . S
C221 C222 1.385 . S
C222 H205 0.940 . S
C222 C221 1.385 . S
C222 C223 1.388 . S
C223 H202 0.939 . S
C223 C218 1.391 . S
C223 C222 1.388 . S
P224 O235 1.490 . S
P224 C238 1.812 1_554 S
P224 C244 1.803 . S
P224 C250 1.819 . S
H225 C239 0.941 . S
H226 C240 0.939 . S
H227 C242 0.940 . S
H228 C243 0.940 . S
H229 C245 0.939 . S
H230 C246 0.942 . S
H231 C248 0.940 . S
H232 C249 0.939 1_556 S
H233 C251 0.941 . S
H234 C255 0.939 . S
O235 P224 1.490 . S
H236 C252 0.939 . S
H237 C254 0.940 . S
C238 P224 1.812 1_556 S
C238 C239 1.389 . S
C238 C243 1.391 . S
C239 H225 0.941 . S
C239 C238 1.389 . S
C239 C240 1.397 . S
C240 H226 0.939 . S
C240 C239 1.397 . S
C240 C241 1.378 . S
C241 C240 1.378 . S
C241 C242 1.378 . S
C242 H227 0.940 . S
C242 C241 1.378 . S
C242 C243 1.396 . S
C243 H228 0.940 . S
C243 C238 1.391 . S
C243 C242 1.396 . S
C244 P224 1.803 . S
C244 C245 1.378 . S
C244 C249 1.400 . S
C245 H229 0.939 . S
C245 C244 1.378 . S
C245 C246 1.361 . S
C246 H230 0.942 . S
C246 C245 1.361 . S
C246 C247 1.369 . S
C247 C246 1.369 . S
C247 C248 1.404 . S
C248 H231 0.940 . S
C248 C247 1.404 . S
C248 C249 1.389 . S
C249 H232 0.939 1_554 S
C249 C244 1.400 . S
C249 C248 1.389 . S
C250 P224 1.819 . S
C250 C251 1.391 . S
C250 C255 1.391 . S
C251 H233 0.941 . S
C251 C250 1.391 . S
C251 C252 1.396 . S
C252 H236 0.939 . S
C252 C251 1.396 . S
C252 C253 1.397 . S
C253 C252 1.397 . S
C253 C254 1.385 . S
C254 H237 0.940 . S
C254 C253 1.385 . S
C254 C255 1.388 . S
C255 H234 0.939 . S
C255 C250 1.391 . S
C255 C254 1.388 . S
Gd256 N287 2.643 1_545 S
Gd256 N293 2.601 . S
Gd256 O300 2.545 . S
Gd256 O301 2.606 1_655 S
Gd256 O303 2.429 . S
Gd256 O304 2.545 1_655 S
Gd256 O305 2.412 . S
Gd256 O307 2.362 1_545 S
Gd256 O308 2.324 1_655 S
Gd256 C315 2.828 . S
Gd257 N266 2.661 1_565 S
Gd257 N270 2.601 . S
Gd257 O301 2.362 1_565 S
Gd257 O302 2.324 1_455 S
Gd257 O306 2.545 . S
Gd257 O307 2.606 1_455 S
Gd257 O309 2.429 . S
Gd257 O310 2.545 . S
Gd257 O311 2.412 . S
Gd257 C324 2.828 . S
C258 C261 1.417 . S
C258 C263 1.431 . S
C258 C264 1.412 . S
C259 C262 1.437 . S
C259 C263 1.317 . S
C259 H278 0.929 . S
C260 C261 1.426 . S
C260 C262 1.413 . S
C260 N270 1.359 1_545 S
C261 C258 1.417 . S
C261 C260 1.426 . S
C261 N266 1.350 . S
C262 C259 1.437 . S
C262 C260 1.413 . S
C262 C272 1.396 . S
C263 C258 1.431 . S
C263 C259 1.317 . S
C263 H274 0.930 . S
C264 C258 1.412 . S
C264 C265 1.355 . S
C264 H276 0.930 . S
C265 C264 1.355 . S
C265 C267 1.402 . S
C265 H277 0.930 1_455 S
N266 Gd257 2.661 1_545 S
N266 C261 1.350 . S
N266 C267 1.307 . S
C267 C265 1.402 . S
C267 N266 1.307 . S
C267 H268 0.930 1_455 S
H268 C267 0.930 1_655 S
C269 N270 1.334 . S
C269 C271 1.394 . S
C269 H273 0.930 . S
N270 Gd257 2.601 . S
N270 C260 1.359 1_565 S
N270 C269 1.334 . S
C271 C269 1.394 . S
C271 C272 1.354 1_565 S
C271 H283 0.930 . S
C272 C262 1.396 . S
C272 C271 1.354 1_545 S
C272 H284 0.930 . S
H273 C269 0.930 . S
H274 C263 0.930 . S
H275 C292 0.930 . S
H276 C264 0.930 . S
H277 C265 0.930 1_655 S
H278 C259 0.929 . S
H279 C297 0.930 . S
H280 C288 0.930 . S
H281 C289 0.930 . S
H282 C313 0.929 . S
H283 C271 0.930 . S
H284 C272 0.930 . S
H285 C314 0.930 . S
H286 C295 0.930 . S
N287 Gd256 2.643 1_565 S
N287 C291 1.357 . S
N287 C292 1.321 1_655 S
C288 H280 0.930 . S
C288 C289 1.355 1_655 S
C288 C290 1.412 . S
C289 H281 0.930 . S
C289 C288 1.355 1_455 S
C289 C292 1.402 . S
C290 C288 1.412 . S
C290 C291 1.417 . S
C290 C314 1.431 . S
C291 N287 1.357 . S
C291 C290 1.417 . S
C291 C294 1.426 1_565 S
C292 H275 0.930 . S
C292 N287 1.321 1_455 S
C292 C289 1.402 . S
N293 Gd256 2.601 . S
N293 C294 1.359 . S
N293 C297 1.334 . S
C294 C291 1.426 1_545 S
C294 N293 1.359 . S
C294 C298 1.413 . S
C295 H286 0.930 . S
C295 C296 1.359 . S
C295 C297 1.394 . S
C296 C295 1.359 . S
C296 C298 1.391 . S
C296 H299 0.929 . S
C297 H279 0.930 . S
C297 N293 1.334 . S
C297 C295 1.394 . S
C298 C294 1.413 . S
C298 C296 1.391 . S
C298 C313 1.437 1_545 S
H299 C296 0.929 . S
O300 Gd256 2.545 . S
O300 C315 1.258 . S
O301 Gd256 2.606 1_455 S
O301 Gd257 2.362 1_545 S
O301 C312 1.284 . S
O302 Gd257 2.324 1_655 S
O302 C322 1.254 1_565 S
O303 Gd256 2.429 . S
O303 C322 1.268 . S
O304 Gd256 2.545 1_455 S
O304 C312 1.250 . S
O305 Gd256 2.412 . S
O305 C315 1.252 . S
O306 Gd257 2.545 . S
O306 C324 1.258 . S
O307 Gd256 2.362 1_565 S
O307 Gd257 2.606 1_655 S
O307 C323 1.284 . S
O308 Gd256 2.324 1_455 S
O308 C331 1.254 . S
O309 Gd257 2.429 . S
O309 C331 1.268 1_565 S
O310 Gd257 2.545 . S
O310 C323 1.250 1_455 S
O311 Gd257 2.412 . S
O311 C324 1.252 . S
C312 O301 1.284 . S
C312 O304 1.250 . S
C313 H282 0.929 . S
C313 C298 1.437 1_565 S
C313 C314 1.317 . S
C314 H285 0.930 . S
C314 C290 1.431 . S
C314 C313 1.317 . S
C315 Gd256 2.828 . S
C315 O300 1.258 . S
C315 O305 1.252 . S
C315 C316 1.497 . S
C316 C315 1.497 . S
C316 C317 1.395 . S
C316 C318 1.380 . S
C317 C316 1.395 . S
C317 C320 1.398 . S
C317 H332 0.930 . S
C318 C316 1.380 . S
C318 C319 1.391 . S
C318 H333 0.930 1_655 S
C319 C318 1.391 . S
C319 C321 1.387 . S
C320 C317 1.398 . S
C320 C321 1.380 . S
C320 H334 0.930 . S
C321 C319 1.387 . S
C321 C320 1.380 . S
C321 H335 0.930 . S
C322 O302 1.254 1_545 S
C322 O303 1.268 . S
C323 O307 1.284 . S
C323 O310 1.250 1_655 S
C324 Gd257 2.828 . S
C324 O306 1.258 . S
C324 O311 1.252 . S
C324 C325 1.497 . S
C325 C324 1.497 . S
C325 C326 1.395 . S
C325 C327 1.380 . S
C326 C325 1.395 . S
C326 C329 1.398 . S
C326 H336 0.930 . S
C327 C325 1.380 . S
C327 C328 1.391 . S
C327 H337 0.920 1_455 S
C328 C327 1.391 . S
C328 C330 1.387 . S
C329 C326 1.398 . S
C329 C330 1.380 . S
C329 H338 0.930 . S
C330 C328 1.387 . S
C330 C329 1.380 . S
C330 H339 0.930 . S
C331 O308 1.254 . S
C331 O309 1.268 1_545 S
H332 C317 0.930 . S
H333 C318 0.930 1_455 S
H334 C320 0.930 . S
H335 C321 0.930 . S
H336 C326 0.930 . S
H337 C327 0.920 1_655 S
H338 C329 0.930 . S
H339 C330 0.930 . S
Gd340 N371 2.661 . S
Gd340 N377 2.601 . S
Gd340 O384 2.545 . S
Gd340 O385 2.606 1_565 S
Gd340 O387 2.429 . S
Gd340 O388 2.545 1_565 S
Gd340 O389 2.412 . S
Gd340 O391 2.362 . S
Gd340 O392 2.324 1_565 S
Gd340 C399 2.828 . S
Gd341 N350 2.661 . S
Gd341 N354 2.601 . S
Gd341 O385 2.362 . S
Gd341 O386 2.324 1_545 S
Gd341 O390 2.545 . S
Gd341 O391 2.606 1_545 S
Gd341 O393 2.429 . S
Gd341 O394 2.545 . S
Gd341 O395 2.412 . S
Gd341 C408 2.828 . S
C342 C345 1.417 . S
C342 C347 1.431 . S
C342 C348 1.412 . S
C343 C346 1.437 . S
C343 C347 1.317 . S
C343 H362 0.929 . S
C344 C345 1.426 . S
C344 C346 1.413 . S
C344 N354 1.359 . S
C345 C342 1.417 . S
C345 C344 1.426 . S
C345 N350 1.350 . S
C346 C343 1.437 . S
C346 C344 1.413 . S
C346 C356 1.391 . S
C347 C342 1.431 . S
C347 C343 1.317 . S
C347 H358 0.930 . S
C348 C342 1.412 . S
C348 C349 1.355 . S
C348 H360 0.930 . S
C349 C348 1.355 . S
C349 C351 1.402 . S
C349 H361 0.930 1_545 S
N350 Gd341 2.661 . S
N350 C345 1.350 . S
N350 C351 1.307 . S
C351 C349 1.402 . S
C351 N350 1.307 . S
C351 H352 0.930 1_545 S
H352 C351 0.930 1_565 S
C353 N354 1.334 . S
C353 C355 1.394 . S
C353 H357 0.930 . S
N354 Gd341 2.601 . S
N354 C344 1.359 . S
N354 C353 1.334 . S
C355 C353 1.394 . S
C355 C356 1.359 . S
C355 H367 0.930 . S
C356 C346 1.391 . S
C356 C355 1.359 . S
C356 H368 0.929 . S
H357 C353 0.930 . S
H358 C347 0.930 . S
H359 C376 0.930 . S
H360 C348 0.930 . S
H361 C349 0.930 1_565 S
H362 C343 0.929 . S
H363 C381 0.930 . S
H364 C372 0.930 . S
H365 C373 0.930 . S
H366 C397 0.929 . S
H367 C355 0.930 . S
H368 C356 0.929 . S
H369 C398 0.930 . S
H370 C379 0.930 . S
N371 Gd340 2.661 . S
N371 C375 1.350 . S
N371 C376 1.307 1_565 S
C372 H364 0.930 . S
C372 C373 1.355 1_565 S
C372 C374 1.412 . S
C373 H365 0.930 . S
C373 C372 1.355 1_545 S
C373 C376 1.402 . S
C374 C372 1.412 . S
C374 C375 1.417 . S
C374 C398 1.431 . S
C375 N371 1.350 . S
C375 C374 1.417 . S
C375 C378 1.426 . S
C376 H359 0.930 . S
C376 N371 1.307 1_545 S
C376 C373 1.402 . S
N377 Gd340 2.601 . S
N377 C378 1.359 . S
N377 C381 1.334 . S
C378 C375 1.426 . S
C378 N377 1.359 . S
C378 C382 1.413 . S
C379 H370 0.930 . S
C379 C380 1.359 . S
C379 C381 1.394 . S
C380 C379 1.359 . S
C380 C382 1.391 . S
C380 H383 0.929 . S
C381 H363 0.930 . S
C381 N377 1.334 . S
C381 C379 1.394 . S
C382 C378 1.413 . S
C382 C380 1.391 . S
C382 C397 1.437 . S
H383 C380 0.929 . S
O384 Gd340 2.545 . S
O384 C399 1.258 . S
O385 Gd340 2.606 1_545 S
O385 Gd341 2.362 . S
O385 C396 1.284 . S
O386 Gd341 2.324 1_565 S
O386 C406 1.254 . S
O387 Gd340 2.429 . S
O387 C406 1.268 . S
O388 Gd340 2.545 1_545 S
O388 C396 1.250 . S
O389 Gd340 2.412 . S
O389 C399 1.252 . S
O390 Gd341 2.545 . S
O390 C408 1.258 . S
O391 Gd340 2.362 . S
O391 Gd341 2.606 1_565 S
O391 C407 1.284 . S
O392 Gd340 2.324 1_545 S
O392 C415 1.254 . S
O393 Gd341 2.429 . S
O393 C415 1.268 . S
O394 Gd341 2.545 . S
O394 C407 1.250 1_545 S
O395 Gd341 2.412 . S
O395 C408 1.252 . S
C396 O385 1.284 . S
C396 O388 1.250 . S
C397 H366 0.929 . S
C397 C382 1.437 . S
C397 C398 1.317 . S
C398 H369 0.930 . S
C398 C374 1.431 . S
C398 C397 1.317 . S
C399 Gd340 2.828 . S
C399 O384 1.258 . S
C399 O389 1.252 . S
C399 C400 1.497 . S
C400 C399 1.497 . S
C400 C401 1.395 . S
C400 C402 1.380 . S
C401 C400 1.395 . S
C401 C404 1.398 . S
C401 H416 0.930 . S
C402 C400 1.380 . S
C402 C403 1.391 . S
C402 H417 0.930 1_565 S
C403 C402 1.391 . S
C403 C405 1.387 . S
C404 C401 1.398 . S
C404 C405 1.380 . S
C404 H418 0.930 . S
C405 C403 1.387 . S
C405 C404 1.380 . S
C405 H419 0.930 . S
C406 O386 1.254 . S
C406 O387 1.268 . S
C407 O391 1.284 . S
C407 O394 1.250 1_565 S
C408 Gd341 2.828 . S
C408 O390 1.258 . S
C408 O395 1.252 . S
C408 C409 1.497 . S
C409 C408 1.497 . S
C409 C410 1.395 . S
C409 C411 1.380 . S
C410 C409 1.395 . S
C410 C413 1.398 . S
C410 H420 0.930 . S
C411 C409 1.380 . S
C411 C412 1.391 . S
C411 H421 0.930 . S
C412 C411 1.391 . S
C412 C414 1.387 . S
C413 C410 1.398 . S
C413 C414 1.380 . S
C413 H422 0.930 . S
C414 C412 1.387 . S
C414 C413 1.380 . S
C414 H423 0.930 . S
C415 O392 1.254 . S
C415 O393 1.268 . S
H416 C401 0.930 . S
H417 C402 0.930 1_545 S
H418 C404 0.930 . S
H419 C405 0.930 . S
H420 C410 0.930 . S
H421 C411 0.930 . S
H422 C413 0.930 . S
H423 C414 0.930 . S
Gd424 N455 2.661 . S
Gd424 N461 2.601 . S
Gd424 O468 2.545 . S
Gd424 O469 2.606 . S
Gd424 O471 2.429 . S
Gd424 O472 2.545 . S
Gd424 O473 2.412 . S
Gd424 O475 2.362 . S
Gd424 O476 2.324 . S
Gd424 C483 2.828 . S
Gd425 N434 2.661 . S
Gd425 N438 2.601 . S
Gd425 O469 2.362 . S
Gd425 O470 2.324 . S
Gd425 O474 2.545 . S
Gd425 O475 2.606 . S
Gd425 O477 2.429 . S
Gd425 O478 2.545 . S
Gd425 O479 2.412 . S
Gd425 C492 2.828 . S
C426 C429 1.417 . S
C426 C431 1.431 . S
C426 C432 1.412 . S
C427 C430 1.437 . S
C427 C431 1.317 . S
C427 H446 0.929 . S
C428 C429 1.426 . S
C428 C430 1.413 . S
C428 N438 1.359 . S
C429 C426 1.417 . S
C429 C428 1.426 . S
C429 N434 1.350 . S
C430 C427 1.437 . S
C430 C428 1.413 . S
C430 C440 1.391 . S
C431 C426 1.431 . S
C431 C427 1.317 . S
C431 H442 0.930 . S
C432 C426 1.412 . S
C432 C433 1.355 . S
C432 H444 0.930 . S
C433 C432 1.355 . S
C433 C435 1.402 . S
C433 H445 0.930 . S
N434 Gd425 2.661 . S
N434 C429 1.350 . S
N434 C435 1.307 . S
C435 C433 1.402 . S
C435 N434 1.307 . S
C435 H436 0.930 . S
H436 C435 0.930 . S
C437 N438 1.334 . S
C437 C439 1.394 . S
C437 H441 0.930 . S
N438 Gd425 2.601 . S
N438 C428 1.359 . S
N438 C437 1.334 . S
C439 C437 1.394 . S
C439 C440 1.359 . S
C439 H451 0.930 . S
C440 C430 1.391 . S
C440 C439 1.359 . S
C440 H452 0.929 . S
H441 C437 0.930 . S
H442 C431 0.930 . S
H443 C460 0.930 . S
H444 C432 0.930 . S
H445 C433 0.930 . S
H446 C427 0.929 . S
H447 C465 0.930 . S
H448 C456 0.930 . S
H449 C457 0.930 . S
H450 C481 0.929 . S
H451 C439 0.930 . S
H452 C440 0.929 . S
H453 C482 0.930 . S
H454 C463 0.930 . S
N455 Gd424 2.661 . S
N455 C459 1.350 . S
N455 C460 1.307 . S
C456 H448 0.930 . S
C456 C457 1.355 . S
C456 C458 1.412 . S
C457 H449 0.930 . S
C457 C456 1.355 . S
C457 C460 1.402 . S
C458 C456 1.412 . S
C458 C459 1.417 . S
C458 C482 1.431 . S
C459 N455 1.350 . S
C459 C458 1.417 . S
C459 C462 1.426 . S
C460 H443 0.930 . S
C460 N455 1.307 . S
C460 C457 1.402 . S
N461 Gd424 2.601 . S
N461 C462 1.359 . S
N461 C465 1.334 . S
C462 C459 1.426 . S
C462 N461 1.359 . S
C462 C466 1.413 . S
C463 H454 0.930 . S
C463 C464 1.359 . S
C463 C465 1.394 . S
C464 C463 1.359 . S
C464 C466 1.391 . S
C464 H467 0.929 . S
C465 H447 0.930 . S
C465 N461 1.334 . S
C465 C463 1.394 . S
C466 C462 1.413 . S
C466 C464 1.391 . S
C466 C481 1.437 . S
H467 C464 0.929 . S
O468 Gd424 2.545 . S
O468 C483 1.258 . S
O469 Gd424 2.606 . S
O469 Gd425 2.362 . S
O469 C480 1.284 . S
O470 Gd425 2.324 . S
O470 C490 1.254 . S
O471 Gd424 2.429 . S
O471 C490 1.268 . S
O472 Gd424 2.545 . S
O472 C480 1.250 . S
O473 Gd424 2.412 . S
O473 C483 1.252 . S
O474 Gd425 2.545 . S
O474 C492 1.258 . S
O475 Gd424 2.362 . S
O475 Gd425 2.606 . S
O475 C491 1.284 . S
O476 Gd424 2.324 . S
O476 C499 1.254 . S
O477 Gd425 2.429 . S
O477 C499 1.268 . S
O478 Gd425 2.545 . S
O478 C491 1.250 . S
O479 Gd425 2.412 . S
O479 C492 1.252 . S
C480 O469 1.284 . S
C480 O472 1.250 . S
C481 H450 0.929 . S
C481 C466 1.437 . S
C481 C482 1.317 . S
C482 H453 0.930 . S
C482 C458 1.431 . S
C482 C481 1.317 . S
C483 Gd424 2.828 . S
C483 O468 1.258 . S
C483 O473 1.252 . S
C483 C484 1.497 . S
C484 C483 1.497 . S
C484 C485 1.395 . S
C484 C486 1.380 . S
C485 C484 1.395 . S
C485 C488 1.398 . S
C485 H500 0.930 . S
C486 C484 1.380 . S
C486 C487 1.391 . S
C486 H501 0.930 . S
C487 C486 1.391 . S
C487 C489 1.387 . S
C488 C485 1.398 . S
C488 C489 1.380 . S
C488 H502 0.930 1_556 S
C489 C487 1.387 . S
C489 C488 1.380 . S
C489 H503 0.930 . S
C490 O470 1.254 . S
C490 O471 1.268 . S
C491 O475 1.284 . S
C491 O478 1.250 . S
C492 Gd425 2.828 . S
C492 O474 1.258 . S
C492 O479 1.252 . S
C492 C493 1.497 . S
C493 C492 1.497 . S
C493 C494 1.395 . S
C493 C495 1.380 . S
C494 C493 1.395 . S
C494 C497 1.398 . S
C494 H504 0.930 . S
C495 C493 1.380 . S
C495 C496 1.391 . S
C495 H505 0.930 . S
C496 C495 1.391 . S
C496 C498 1.387 . S
C497 C494 1.398 . S
C497 C498 1.380 . S
C497 H506 0.930 . S
C498 C496 1.387 . S
C498 C497 1.380 . S
C498 H507 0.930 . S
C499 O476 1.254 . S
C499 O477 1.268 . S
H500 C485 0.930 . S
H501 C486 0.930 . S
H502 C488 0.930 1_554 S
H503 C489 0.930 . S
H504 C494 0.930 . S
H505 C495 0.930 . S
H506 C497 0.930 . S
H507 C498 0.930 . S
Gd508 N539 2.661 . S
Gd508 N545 2.601 . S
Gd508 O552 2.545 . S
Gd508 O553 2.607 1_655 S
Gd508 O555 2.429 1_655 S
Gd508 O556 2.545 . S
Gd508 O557 2.412 . S
Gd508 O559 2.362 1_655 S
Gd508 O560 2.324 . S
Gd508 C567 2.828 . S
Gd509 N518 2.661 . S
Gd509 N522 2.601 . S
Gd509 O553 2.360 . S
Gd509 O554 2.324 . S
Gd509 O558 2.545 . S
Gd509 O559 2.606 . S
Gd509 O561 2.429 1_455 S
Gd509 O562 2.545 . S
Gd509 O563 2.412 . S
Gd509 C576 2.828 . S
C510 C513 1.417 . S
C510 C515 1.431 . S
C510 C516 1.412 . S
C511 C514 1.437 . S
C511 C515 1.317 . S
C511 H530 0.929 . S
C512 C513 1.426 . S
C512 C514 1.413 . S
C512 N522 1.359 . S
C513 C510 1.417 . S
C513 C512 1.426 . S
C513 N518 1.350 . S
C514 C511 1.437 . S
C514 C512 1.413 . S
C514 C524 1.391 . S
C515 C510 1.431 . S
C515 C511 1.317 . S
C515 H526 0.930 . S
C516 C510 1.412 . S
C516 C517 1.355 . S
C516 H528 0.930 . S
C517 C516 1.355 . S
C517 C519 1.402 . S
C517 H529 0.930 . S
N518 Gd509 2.661 . S
N518 C513 1.350 . S
N518 C519 1.307 . S
C519 C517 1.402 . S
C519 N518 1.307 . S
C519 H520 0.930 . S
H520 C519 0.930 . S
C521 N522 1.334 . S
C521 C523 1.393 1_455 S
C521 H525 0.930 1_455 S
N522 Gd509 2.601 . S
N522 C512 1.359 . S
N522 C521 1.334 . S
C523 C521 1.393 1_655 S
C523 C524 1.350 1_655 S
C523 H535 0.941 . S
C524 C514 1.391 . S
C524 C523 1.350 1_455 S
C524 H536 0.929 . S
H525 C521 0.930 1_655 S
H526 C515 0.930 . S
H527 C544 0.930 . S
H528 C516 0.930 . S
H529 C517 0.930 . S
H530 C511 0.929 . S
H531 C549 0.930 . S
H532 C540 0.930 . S
H533 C541 0.930 . S
H534 C565 0.929 . S
H535 C523 0.941 . S
H536 C524 0.929 . S
H537 C566 0.930 . S
H538 C547 0.930 . S
N539 Gd508 2.661 . S
N539 C543 1.350 . S
N539 C544 1.307 . S
C540 H532 0.930 . S
C540 C541 1.355 . S
C540 C542 1.412 . S
C541 H533 0.930 . S
C541 C540 1.355 . S
C541 C544 1.402 . S
C542 C540 1.412 . S
C542 C543 1.417 . S
C542 C566 1.431 . S
C543 N539 1.350 . S
C543 C542 1.417 . S
C543 C546 1.426 . S
C544 H527 0.930 . S
C544 N539 1.307 . S
C544 C541 1.402 . S
N545 Gd508 2.601 . S
N545 C546 1.359 . S
N545 C549 1.334 1_655 S
C546 C543 1.426 . S
C546 N545 1.359 . S
C546 C550 1.413 . S
C547 H538 0.930 . S
C547 C548 1.359 1_455 S
C547 C549 1.394 . S
C548 C547 1.359 1_655 S
C548 C550 1.391 . S
C548 H551 0.931 . S
C549 H531 0.930 . S
C549 N545 1.334 1_455 S
C549 C547 1.394 . S
C550 C546 1.413 . S
C550 C548 1.391 . S
C550 C565 1.437 . S
H551 C548 0.931 . S
O552 Gd508 2.545 . S
O552 C567 1.258 . S
O553 Gd508 2.607 1_455 S
O553 Gd509 2.360 . S
O553 C564 1.286 1_455 S
O554 Gd509 2.324 . S
O554 C574 1.254 . S
O555 Gd508 2.429 1_455 S
O555 C574 1.268 . S
O556 Gd508 2.545 . S
O556 C564 1.250 . S
O557 Gd508 2.412 . S
O557 C567 1.252 . S
O558 Gd509 2.545 . S
O558 C576 1.258 . S
O559 Gd508 2.362 1_455 S
O559 Gd509 2.606 . S
O559 C575 1.284 . S
O560 Gd508 2.324 . S
O560 C583 1.254 . S
O561 Gd509 2.429 1_655 S
O561 C583 1.268 . S
O562 Gd509 2.545 . S
O562 C575 1.250 . S
O563 Gd509 2.412 . S
O563 C576 1.252 . S
C564 O553 1.286 1_655 S
C564 O556 1.250 . S
C565 H534 0.929 . S
C565 C550 1.437 . S
C565 C566 1.317 . S
C566 H537 0.930 . S
C566 C542 1.431 . S
C566 C565 1.317 . S
C567 Gd508 2.828 . S
C567 O552 1.258 . S
C567 O557 1.252 . S
C567 C568 1.497 . S
C568 C567 1.497 . S
C568 C569 1.395 . S
C568 C570 1.380 . S
C569 C568 1.395 . S
C569 C572 1.398 . S
C569 H584 0.930 . S
C570 C568 1.380 . S
C570 C571 1.391 . S
C570 H585 0.930 . S
C571 C570 1.391 . S
C571 C573 1.387 . S
C572 C569 1.398 . S
C572 C573 1.380 . S
C572 H586 0.930 1_556 S
C573 C571 1.387 . S
C573 C572 1.380 . S
C573 H587 0.930 . S
C574 O554 1.254 . S
C574 O555 1.268 . S
C575 O559 1.284 . S
C575 O562 1.250 . S
C576 Gd509 2.828 . S
C576 O558 1.258 . S
C576 O563 1.252 . S
C576 C577 1.497 . S
C577 C576 1.497 . S
C577 C578 1.395 . S
C577 C579 1.380 . S
C578 C577 1.395 . S
C578 C581 1.398 . S
C578 H588 0.930 . S
C579 C577 1.380 . S
C579 C580 1.391 . S
C579 H589 0.930 . S
C580 C579 1.391 . S
C580 C582 1.387 . S
C581 C578 1.398 . S
C581 C582 1.380 . S
C581 H590 0.930 . S
C582 C580 1.387 . S
C582 C581 1.380 . S
C582 H591 0.930 . S
C583 O560 1.254 . S
C583 O561 1.268 . S
H584 C569 0.930 . S
H585 C570 0.930 . S
H586 C572 0.930 1_554 S
H587 C573 0.930 . S
H588 C578 0.930 . S
H589 C579 0.930 . S
H590 C581 0.930 . S
H591 C582 0.930 . S
H592 C600 0.950 . S
H593 C605 0.950 . S
H594 C602 0.950 . S
H595 C604 0.950 . S
H596 C606 0.950 . S
H597 C608 0.950 . S
H598 C610 0.950 . S
H599 C611 0.950 . S
C600 H592 0.950 . S
C600 C601 1.386 . S
C600 C602 1.391 . S
C601 C600 1.386 . S
C601 C605 1.393 . S
C602 H594 0.950 . S
C602 C600 1.391 . S
C602 C603 1.400 . S
C603 C602 1.400 . S
C603 C604 1.398 . S
C603 C609 1.491 . S
C604 H595 0.950 . S
C604 C603 1.398 . S
C604 C605 1.391 . S
C605 H593 0.950 . S
C605 C601 1.393 . S
C605 C604 1.391 . S
C606 H596 0.950 . S
C606 C607 1.386 . S
C606 C608 1.391 . S
C607 C606 1.386 . S
C607 C611 1.393 . S
C608 H597 0.950 . S
C608 C606 1.391 . S
C608 C609 1.400 . S
C609 C603 1.491 . S
C609 C608 1.400 . S
C609 C610 1.398 . S
C610 H598 0.950 . S
C610 C609 1.398 . S
C610 C611 1.391 . S
C611 H599 0.950 . S
C611 C607 1.393 . S
C611 C610 1.391 . S
H612 C620 0.950 . S
H613 C625 0.950 . S
H614 C622 0.950 . S
H615 C624 0.950 . S
H616 C626 0.950 . S
H617 C628 0.950 . S
H618 C630 0.950 . S
H619 C631 0.950 . S
C620 H612 0.950 . S
C620 C621 1.386 . S
C620 C622 1.391 . S
C621 C620 1.386 . S
C621 C625 1.393 . S
C622 H614 0.950 . S
C622 C620 1.391 . S
C622 C623 1.400 . S
C623 C622 1.400 . S
C623 C624 1.398 . S
C623 C629 1.491 . S
C624 H615 0.950 . S
C624 C623 1.398 . S
C624 C625 1.391 . S
C625 H613 0.950 . S
C625 C621 1.393 . S
C625 C624 1.391 . S
C626 H616 0.950 . S
C626 C627 1.386 . S
C626 C628 1.391 . S
C627 C626 1.386 . S
C627 C631 1.393 . S
C628 H617 0.950 . S
C628 C626 1.391 . S
C628 C629 1.400 . S
C629 C623 1.491 . S
C629 C628 1.400 . S
C629 C630 1.398 . S
C630 H618 0.950 . S
C630 C629 1.398 . S
C630 C631 1.391 . S
C631 H619 0.950 . S
C631 C627 1.393 . S
C631 C630 1.391 . S
H632 C640 0.950 . S
H633 C645 0.950 . S
H634 C642 0.950 . S
H635 C644 0.950 . S
H636 C646 0.950 . S
H637 C648 0.950 . S
H638 C650 0.950 . S
H639 C651 0.950 . S
C640 H632 0.950 . S
C640 C641 1.386 . S
C640 C642 1.391 . S
C641 C640 1.386 . S
C641 C645 1.393 . S
C642 H634 0.950 . S
C642 C640 1.391 . S
C642 C643 1.400 . S
C643 C642 1.400 . S
C643 C644 1.398 . S
C643 C649 1.491 . S
C644 H635 0.950 . S
C644 C643 1.398 . S
C644 C645 1.391 . S
C645 H633 0.950 . S
C645 C641 1.393 . S
C645 C644 1.391 . S
C646 H636 0.950 . S
C646 C647 1.386 . S
C646 C648 1.391 . S
C647 C646 1.386 . S
C647 C651 1.393 . S
C648 H637 0.950 . S
C648 C646 1.391 . S
C648 C649 1.400 . S
C649 C643 1.491 . S
C649 C648 1.400 . S
C649 C650 1.398 . S
C650 H638 0.950 . S
C650 C649 1.398 . S
C650 C651 1.391 . S
C651 H639 0.950 . S
C651 C647 1.393 . S
C651 C650 1.391 . S
H652 C660 0.950 . S
H653 C665 0.950 . S
H654 C662 0.950 . S
H655 C664 0.950 . S
H656 C666 0.950 1_655 S
H657 C668 0.950 . S
H658 C670 0.950 . S
H659 C671 0.950 . S
C660 H652 0.950 . S
C660 C661 1.386 . S
C660 C662 1.391 . S
C661 C660 1.386 . S
C661 C665 1.393 . S
C662 H654 0.950 . S
C662 C660 1.391 . S
C662 C663 1.400 . S
C663 C662 1.400 . S
C663 C664 1.398 . S
C663 C669 1.491 . S
C664 H655 0.950 . S
C664 C663 1.398 . S
C664 C665 1.391 . S
C665 H653 0.950 . S
C665 C661 1.393 . S
C665 C664 1.391 . S
C666 H656 0.950 1_455 S
C666 C667 1.386 . S
C666 C668 1.391 . S
C667 C666 1.386 . S
C667 C671 1.393 . S
C668 H657 0.950 . S
C668 C666 1.391 . S
C668 C669 1.400 . S
C669 C663 1.491 . S
C669 C668 1.400 . S
C669 C670 1.398 . S
C670 H658 0.950 . S
C670 C669 1.398 . S
C670 C671 1.391 . S
C671 H659 0.950 . S
C671 C667 1.393 . S
C671 C670 1.391 . S
H672 C680 0.950 . S
H673 C685 0.950 . S
H674 C682 0.950 . S
H675 C684 0.950 . S
H676 C686 0.950 1_545 S
H677 C688 0.950 . S
H678 C690 0.950 . S
H679 C691 0.950 . S
C680 H672 0.950 . S
C680 C681 1.386 . S
C680 C682 1.391 . S
C681 C680 1.386 . S
C681 C685 1.393 . S
C682 H674 0.950 . S
C682 C680 1.391 . S
C682 C683 1.400 1_554 S
C683 C682 1.400 1_556 S
C683 C684 1.398 . S
C683 C689 1.491 . S
C684 H675 0.950 . S
C684 C683 1.398 . S
C684 C685 1.391 1_556 S
C685 H673 0.950 . S
C685 C681 1.393 . S
C685 C684 1.391 1_554 S
C686 H676 0.950 1_565 S
C686 C687 1.386 . S
C686 C688 1.391 . S
C687 C686 1.386 . S
C687 C691 1.393 . S
C688 H677 0.950 . S
C688 C686 1.391 . S
C688 C689 1.400 . S
C689 C683 1.491 . S
C689 C688 1.400 . S
C689 C690 1.398 . S
C690 H678 0.950 . S
C690 C689 1.398 . S
C690 C691 1.391 . S
C691 H679 0.950 . S
C691 C687 1.393 . S
C691 C690 1.391 . S
H692 C700 0.950 . S
H693 C705 0.950 . S
H694 C702 0.950 . S
H695 C704 0.950 . S
H696 C706 0.950 . S
H697 C708 0.950 . S
H698 C710 0.950 . S
H699 C711 0.950 . S
C700 H692 0.950 . S
C700 C701 1.386 . S
C700 C702 1.391 1_554 S
C701 C700 1.386 . S
C701 C705 1.393 . S
C702 H694 0.950 . S
C702 C700 1.391 1_556 S
C702 C703 1.400 . S
C703 C702 1.400 . S
C703 C704 1.398 1_556 S
C703 C709 1.491 . S
C704 H695 0.950 . S
C704 C703 1.398 1_554 S
C704 C705 1.391 . S
C705 H693 0.950 . S
C705 C701 1.393 . S
C705 C704 1.391 . S
C706 H696 0.950 . S
C706 C707 1.386 . S
C706 C708 1.391 . S
C707 C706 1.386 . S
C707 C711 1.393 . S
C708 H697 0.950 . S
C708 C706 1.391 . S
C708 C709 1.400 . S
C709 C703 1.491 . S
C709 C708 1.400 . S
C709 C710 1.398 . S
C710 H698 0.950 . S
C710 C709 1.398 . S
C710 C711 1.391 . S
C711 H699 0.950 . S
C711 C707 1.393 . S
C711 C710 1.391 . S
H712 C720 0.950 . S
H713 C725 0.950 . S
H714 C722 0.950 . S
H715 C724 0.950 . S
H716 C726 0.950 . S
H717 C728 0.950 . S
H718 C730 0.950 . S
H719 C731 0.950 . S
C720 H712 0.950 . S
C720 C721 1.386 . S
C720 C722 1.391 1_554 S
C721 C720 1.386 . S
C721 C725 1.393 . S
C722 H714 0.950 . S
C722 C720 1.391 1_556 S
C722 C723 1.400 . S
C723 C722 1.400 . S
C723 C724 1.398 1_556 S
C723 C729 1.491 . S
C724 H715 0.950 . S
C724 C723 1.398 1_554 S
C724 C725 1.391 . S
C725 H713 0.950 . S
C725 C721 1.393 . S
C725 C724 1.391 . S
C726 H716 0.950 . S
C726 C727 1.386 . S
C726 C728 1.391 . S
C727 C726 1.386 . S
C727 C731 1.393 . S
C728 H717 0.950 . S
C728 C726 1.391 . S
C728 C729 1.400 . S
C729 C723 1.491 . S
C729 C728 1.400 . S
C729 C730 1.398 . S
C730 H718 0.950 . S
C730 C729 1.398 . S
C730 C731 1.391 . S
C731 H719 0.950 . S
C731 C727 1.393 . S
C731 C730 1.391 . S
H732 C740 0.950 . S
H733 C745 0.950 . S
H734 C742 0.950 1_556 S
H735 C744 0.950 . S
H736 C746 0.950 1_455 S
H737 C748 0.950 . S
H738 C750 0.950 . S
H739 C751 0.950 . S
C740 H732 0.950 . S
C740 C741 1.386 . S
C740 C742 1.391 . S
C741 C740 1.386 . S
C741 C745 1.393 . S
C742 H734 0.950 1_554 S
C742 C740 1.391 . S
C742 C743 1.400 1_554 S
C743 C742 1.400 1_556 S
C743 C744 1.398 . S
C743 C749 1.491 . S
C744 H735 0.950 . S
C744 C743 1.398 . S
C744 C745 1.391 1_556 S
C745 H733 0.950 . S
C745 C741 1.393 . S
C745 C744 1.391 1_554 S
C746 H736 0.950 1_655 S
C746 C747 1.386 . S
C746 C748 1.391 . S
C747 C746 1.386 . S
C747 C751 1.393 . S
C748 H737 0.950 . S
C748 C746 1.391 . S
C748 C749 1.400 . S
C749 C743 1.491 . S
C749 C748 1.400 . S
C749 C750 1.398 . S
C750 H738 0.950 . S
C750 C749 1.398 . S
C750 C751 1.391 . S
C751 H739 0.950 . S
C751 C747 1.393 . S
C751 C750 1.391 . S
H752 C760 0.950 . S
H753 C765 0.950 . S
H754 C762 0.950 . S
H755 C764 0.950 . S
H756 C766 0.950 . S
H757 C768 0.950 . S
H758 C770 0.950 1_655 S
H759 C771 0.950 . S
C760 H752 0.950 . S
C760 C761 1.386 . S
C760 C762 1.391 . S
C761 C760 1.386 . S
C761 C765 1.393 . S
C762 H754 0.950 . S
C762 C760 1.391 . S
C762 C763 1.400 . S
C763 C762 1.400 . S
C763 C764 1.398 . S
C763 C769 1.491 . S
C764 H755 0.950 . S
C764 C763 1.398 . S
C764 C765 1.391 . S
C765 H753 0.950 . S
C765 C761 1.393 . S
C765 C764 1.391 . S
C766 H756 0.950 . S
C766 C767 1.391 . S
C766 C768 1.391 . S
C767 C766 1.391 . S
C767 C771 1.390 1_455 S
C768 H757 0.950 . S
C768 C766 1.391 . S
C768 C769 1.400 . S
C769 C763 1.491 . S
C769 C768 1.400 . S
C769 C770 1.398 . S
C770 H758 0.950 1_455 S
C770 C769 1.398 . S
C770 C771 1.391 1_455 S
C771 H759 0.950 . S
C771 C767 1.390 1_655 S
C771 C770 1.391 1_655 S
H772 C780 0.950 . S
H773 C785 0.950 . S
H774 C782 0.950 . S
H775 C784 0.950 . S
H776 C786 0.950 . S
H777 C788 0.950 . S
H778 C790 0.950 . S
H779 C791 0.950 . S
C780 H772 0.950 . S
C780 C781 1.386 . S
C780 C782 1.391 . S
C781 C780 1.386 . S
C781 C785 1.393 . S
C782 H774 0.950 . S
C782 C780 1.391 . S
C782 C783 1.400 . S
C783 C782 1.400 . S
C783 C784 1.398 . S
C783 C789 1.491 . S
C784 H775 0.950 . S
C784 C783 1.398 . S
C784 C785 1.391 . S
C785 H773 0.950 . S
C785 C781 1.393 . S
C785 C784 1.391 . S
C786 H776 0.950 . S
C786 C787 1.411 . S
C786 C788 1.391 . S
C787 C786 1.411 . S
C787 C791 1.385 1_545 S
C788 H777 0.950 . S
C788 C786 1.391 . S
C788 C789 1.400 . S
C789 C783 1.491 . S
C789 C788 1.400 . S
C789 C790 1.398 . S
C790 H778 0.950 . S
C790 C789 1.398 . S
C790 C791 1.391 1_545 S
C791 H779 0.950 . S
C791 C787 1.385 1_565 S
C791 C790 1.391 1_565 S
H792 C800 0.950 . S
H793 C805 0.950 . S
H794 C802 0.950 . S
H795 C804 0.950 . S
H796 C806 0.950 . S
H797 C808 0.950 . S
H798 C810 0.950 . S
H799 C811 0.950 . S
C800 H792 0.950 . S
C800 C801 1.386 . S
C800 C802 1.391 . S
C801 C800 1.386 . S
C801 C805 1.393 . S
C802 H794 0.950 . S
C802 C800 1.391 . S
C802 C803 1.400 . S
C803 C802 1.400 . S
C803 C804 1.398 . S
C803 C809 1.491 . S
C804 H795 0.950 . S
C804 C803 1.398 . S
C804 C805 1.391 . S
C805 H793 0.950 . S
C805 C801 1.393 . S
C805 C804 1.391 . S
C806 H796 0.950 . S
C806 C807 1.386 . S
C806 C808 1.391 . S
C807 C806 1.386 . S
C807 C811 1.393 . S
C808 H797 0.950 . S
C808 C806 1.391 . S
C808 C809 1.400 . S
C809 C803 1.491 . S
C809 C808 1.400 . S
C809 C810 1.398 . S
C810 H798 0.950 . S
C810 C809 1.398 . S
C810 C811 1.391 . S
C811 H799 0.950 . S
C811 C807 1.393 . S
C811 C810 1.391 . S
H812 C820 0.950 . S
H813 C825 0.950 . S
H814 C822 0.950 . S
H815 C824 0.950 . S
H816 C826 0.950 . S
H817 C828 0.950 . S
H818 C830 0.950 . S
H819 C831 0.950 . S
C820 H812 0.950 . S
C820 C821 1.386 . S
C820 C822 1.391 . S
C821 C820 1.386 . S
C821 C825 1.393 . S
C822 H814 0.950 . S
C822 C820 1.391 . S
C822 C823 1.400 . S
C823 C822 1.400 . S
C823 C824 1.398 . S
C823 C829 1.491 . S
C824 H815 0.950 . S
C824 C823 1.398 . S
C824 C825 1.391 . S
C825 H813 0.950 . S
C825 C821 1.393 . S
C825 C824 1.391 . S
C826 H816 0.950 . S
C826 C827 1.386 . S
C826 C828 1.391 . S
C827 C826 1.386 . S
C827 C831 1.393 . S
C828 H817 0.950 . S
C828 C826 1.391 . S
C828 C829 1.400 . S
C829 C823 1.491 . S
C829 C828 1.400 . S
C829 C830 1.398 . S
C830 H818 0.950 . S
C830 C829 1.398 . S
C830 C831 1.391 . S
C831 H819 0.950 . S
C831 C827 1.393 . S
C831 C830 1.391 . S
H832 C840 0.950 . S
H833 C845 0.950 . S
H834 C842 0.950 . S
H835 C844 0.950 . S
H836 C846 0.950 . S
H837 C848 0.950 . S
H838 C850 0.950 1_554 S
H839 C851 0.950 . S
C840 H832 0.950 . S
C840 C841 1.386 . S
C840 C842 1.391 . S
C841 C840 1.386 . S
C841 C845 1.393 1_554 S
C842 H834 0.950 . S
C842 C840 1.391 . S
C842 C843 1.400 1_554 S
C843 C842 1.400 1_556 S
C843 C844 1.398 . S
C843 C849 1.491 . S
C844 H835 0.950 . S
C844 C843 1.398 . S
C844 C845 1.391 . S
C845 H833 0.950 . S
C845 C841 1.393 1_556 S
C845 C844 1.391 . S
C846 H836 0.950 . S
C846 C847 1.386 1_655 S
C846 C848 1.391 . S
C847 C846 1.386 1_455 S
C847 C851 1.393 . S
C848 H837 0.950 . S
C848 C846 1.391 . S
C848 C849 1.400 . S
C849 C843 1.491 . S
C849 C848 1.400 . S
C849 C850 1.398 . S
C850 H838 0.950 1_556 S
C850 C849 1.398 . S
C850 C851 1.391 1_655 S
C851 H839 0.950 . S
C851 C847 1.393 . S
C851 C850 1.391 1_455 S
H852 C860 0.950 . S
H853 C865 0.950 . S
H854 C862 0.950 . S
H855 C864 0.950 1_556 S
H856 C866 0.950 . S
H857 C868 0.950 . S
H858 C870 0.950 . S
H859 C871 0.950 . S
C860 H852 0.950 . S
C860 C861 1.386 . S
C860 C862 1.391 1_554 S
C861 C860 1.386 . S
C861 C865 1.393 . S
C862 H854 0.950 . S
C862 C860 1.391 1_556 S
C862 C863 1.400 . S
C863 C862 1.400 . S
C863 C864 1.398 1_556 S
C863 C869 1.491 . S
C864 H855 0.950 1_554 S
C864 C863 1.398 1_554 S
C864 C865 1.391 . S
C865 H853 0.950 . S
C865 C861 1.393 . S
C865 C864 1.391 . S
C866 H856 0.950 . S
C866 C867 1.386 1_565 S
C866 C868 1.391 . S
C867 C866 1.386 1_545 S
C867 C871 1.393 . S
C868 H857 0.950 . S
C868 C866 1.391 . S
C868 C869 1.400 . S
C869 C863 1.491 . S
C869 C868 1.400 . S
C869 C870 1.398 1_565 S
C870 H858 0.950 . S
C870 C869 1.398 1_545 S
C870 C871 1.391 . S
C871 H859 0.950 . S
C871 C867 1.393 . S
C871 C870 1.391 . S
H872 C880 0.950 . S
H873 C885 0.950 . S
H874 C882 0.950 . S
H875 C884 0.950 . S
H876 C886 0.950 . S
H877 C888 0.950 1_554 S
H878 C890 0.950 . S
H879 C891 0.950 . S
C880 H872 0.950 . S
C880 C881 1.386 1_556 S
C880 C882 1.391 . S
C881 C880 1.386 1_554 S
C881 C885 1.393 . S
C882 H874 0.950 . S
C882 C880 1.391 . S
C882 C883 1.400 . S
C883 C882 1.400 . S
C883 C884 1.398 1_556 S
C883 C889 1.491 . S
C884 H875 0.950 . S
C884 C883 1.398 1_554 S
C884 C885 1.391 . S
C885 H873 0.950 . S
C885 C881 1.393 . S
C885 C884 1.391 . S
C886 H876 0.950 . S
C886 C887 1.386 . S
C886 C888 1.391 . S
C887 C886 1.386 . S
C887 C891 1.393 . S
C888 H877 0.950 1_556 S
C888 C886 1.391 . S
C888 C889 1.400 . S
C889 C883 1.491 . S
C889 C888 1.400 . S
C889 C890 1.398 . S
C890 H878 0.950 . S
C890 C889 1.398 . S
C890 C891 1.391 . S
C891 H879 0.950 . S
C891 C887 1.393 . S
C891 C890 1.391 . S
H892 C900 0.950 . S
H893 C905 0.950 . S
H894 C902 0.950 . S
H895 C904 0.950 . S
H896 C906 0.950 . S
H897 C908 0.950 1_554 S
H898 C910 0.950 . S
H899 C911 0.950 . S
C900 H892 0.950 . S
C900 C901 1.386 1_556 S
C900 C902 1.391 . S
C901 C900 1.386 1_554 S
C901 C905 1.393 . S
C902 H894 0.950 . S
C902 C900 1.391 . S
C902 C903 1.400 . S
C903 C902 1.400 . S
C903 C904 1.398 1_556 S
C903 C909 1.491 . S
C904 H895 0.950 . S
C904 C903 1.398 1_554 S
C904 C905 1.391 . S
C905 H893 0.950 . S
C905 C901 1.393 . S
C905 C904 1.391 . S
C906 H896 0.950 . S
C906 C907 1.386 . S
C906 C908 1.391 . S
C907 C906 1.386 . S
C907 C911 1.393 . S
C908 H897 0.950 1_556 S
C908 C906 1.391 . S
C908 C909 1.400 . S
C909 C903 1.491 . S
C909 C908 1.400 . S
C909 C910 1.398 . S
C910 H898 0.950 . S
C910 C909 1.398 . S
C910 C911 1.391 . S
C911 H899 0.950 . S
C911 C907 1.393 . S
C911 C910 1.391 . S
H912 C920 0.950 . S
H913 C925 0.950 . S
H914 C922 0.950 . S
H915 C924 0.950 . S
H916 C926 0.950 . S
H917 C928 0.950 . S
H918 C930 0.950 . S
H919 C931 0.950 1_655 S
C920 H912 0.950 . S
C920 C921 1.386 . S
C920 C922 1.391 . S
C921 C920 1.386 . S
C921 C925 1.393 . S
C922 H914 0.950 . S
C922 C920 1.391 . S
C922 C923 1.400 . S
C923 C922 1.400 . S
C923 C924 1.398 . S
C923 C929 1.491 . S
C924 H915 0.950 . S
C924 C923 1.398 . S
C924 C925 1.391 . S
C925 H913 0.950 . S
C925 C921 1.393 . S
C925 C924 1.391 . S
C926 H916 0.950 . S
C926 C927 1.386 . S
C926 C928 1.391 . S
C927 C926 1.386 . S
C927 C931 1.393 . S
C928 H917 0.950 . S
C928 C926 1.391 . S
C928 C929 1.400 . S
C929 C923 1.491 . S
C929 C928 1.400 . S
C929 C930 1.398 . S
C930 H918 0.950 . S
C930 C929 1.398 . S
C930 C931 1.391 . S
C931 H919 0.950 1_455 S
C931 C927 1.393 . S
C931 C930 1.391 . S
H932 C940 0.950 . S
H933 C945 0.950 . S
H934 C942 0.950 . S
H935 C944 0.950 . S
H936 C946 0.950 . S
H937 C948 0.950 . S
H938 C950 0.950 . S
H939 C951 0.950 . S
C940 H932 0.950 . S
C940 C941 1.386 . S
C940 C942 1.391 . S
C941 C940 1.386 . S
C941 C945 1.393 . S
C942 H934 0.950 . S
C942 C940 1.391 . S
C942 C943 1.400 . S
C943 C942 1.400 . S
C943 C944 1.398 . S
C943 C949 1.491 . S
C944 H935 0.950 . S
C944 C943 1.398 . S
C944 C945 1.391 . S
C945 H933 0.950 . S
C945 C941 1.393 . S
C945 C944 1.391 . S
C946 H936 0.950 . S
C946 C947 1.386 . S
C946 C948 1.391 . S
C947 C946 1.386 . S
C947 C951 1.393 . S
C948 H937 0.950 . S
C948 C946 1.391 . S
C948 C949 1.400 . S
C949 C943 1.491 . S
C949 C948 1.400 . S
C949 C950 1.398 . S
C950 H938 0.950 . S
C950 C949 1.398 . S
C950 C951 1.391 . S
C951 H939 0.950 . S
C951 C947 1.393 . S
C951 C950 1.391 . S
H952 C960 0.950 . S
H953 C965 0.950 . S
H954 C962 0.950 . S
H955 C964 0.950 . S
H956 C966 0.950 . S
H957 C968 0.950 . S
H958 C970 0.950 . S
H959 C971 0.950 . S
C960 H952 0.950 . S
C960 C961 1.386 . S
C960 C962 1.391 . S
C961 C960 1.386 . S
C961 C965 1.393 . S
C962 H954 0.950 . S
C962 C960 1.391 . S
C962 C963 1.400 . S
C963 C962 1.400 . S
C963 C964 1.398 . S
C963 C969 1.491 . S
C964 H955 0.950 . S
C964 C963 1.398 . S
C964 C965 1.391 . S
C965 H953 0.950 . S
C965 C961 1.393 . S
C965 C964 1.391 . S
C966 H956 0.950 . S
C966 C967 1.386 . S
C966 C968 1.391 . S
C967 C966 1.386 . S
C967 C971 1.393 . S
C968 H957 0.950 . S
C968 C966 1.391 . S
C968 C969 1.400 . S
C969 C963 1.491 . S
C969 C968 1.400 . S
C969 C970 1.398 . S
C970 H958 0.950 . S
C970 C969 1.398 . S
C970 C971 1.391 . S
C971 H959 0.950 . S
C971 C967 1.393 . S
C971 C970 1.391 . S
H972 C980 0.950 . S
H973 C985 0.950 . S
H974 C982 0.950 . S
H975 C984 0.950 . S
H976 C986 0.950 . S
H977 C988 0.950 . S
H978 C990 0.950 . S
H979 C991 0.950 . S
C980 H972 0.950 . S
C980 C981 1.386 . S
C980 C982 1.391 . S
C981 C980 1.386 . S
C981 C985 1.393 . S
C982 H974 0.950 . S
C982 C980 1.391 . S
C982 C983 1.400 . S
C983 C982 1.400 . S
C983 C984 1.398 . S
C983 C989 1.491 . S
C984 H975 0.950 . S
C984 C983 1.398 . S
C984 C985 1.391 . S
C985 H973 0.950 . S
C985 C981 1.393 . S
C985 C984 1.391 . S
C986 H976 0.950 . S
C986 C987 1.386 . S
C986 C988 1.391 . S
C987 C986 1.386 . S
C987 C991 1.393 . S
C988 H977 0.950 . S
C988 C986 1.391 . S
C988 C989 1.400 . S
C989 C983 1.491 . S
C989 C988 1.400 . S
C989 C990 1.398 . S
C990 H978 0.950 . S
C990 C989 1.398 . S
C990 C991 1.391 . S
C991 H979 0.950 . S
C991 C987 1.393 . S
C991 C990 1.391 . S
H992 C1000 0.950 . S
H993 C1005 0.950 . S
H994 C1002 0.950 . S
H995 C1004 0.950 . S
H996 C1006 0.950 . S
H997 C1008 0.950 . S
H998 C1010 0.950 . S
H999 C1011 0.950 . S
C1000 H992 0.950 . S
C1000 C1001 1.386 . S
C1000 C1002 1.391 . S
C1001 C1000 1.386 . S
C1001 C1005 1.393 . S
C1002 H994 0.950 . S
C1002 C1000 1.391 . S
C1002 C1003 1.400 . S
C1003 C1002 1.400 . S
C1003 C1004 1.398 . S
C1003 C1009 1.491 . S
C1004 H995 0.950 . S
C1004 C1003 1.398 . S
C1004 C1005 1.391 . S
C1005 H993 0.950 . S
C1005 C1001 1.393 . S
C1005 C1004 1.391 . S
C1006 H996 0.950 . S
C1006 C1007 1.386 . S
C1006 C1008 1.391 . S
C1007 C1006 1.386 . S
C1007 C1011 1.393 . S
C1008 H997 0.950 . S
C1008 C1006 1.391 . S
C1008 C1009 1.400 . S
C1009 C1003 1.491 . S
C1009 C1008 1.400 . S
C1009 C1010 1.398 . S
C1010 H998 0.950 . S
C1010 C1009 1.398 . S
C1010 C1011 1.391 . S
C1011 H999 0.950 . S
C1011 C1007 1.393 . S
C1011 C1010 1.391 . S
H1012 C1020 0.950 . S
H1013 C1025 0.950 . S
H1014 C1022 0.950 . S
H1015 C1024 0.950 . S
H1016 C1026 0.950 . S
H1017 C1028 0.950 . S
H1018 C1030 0.950 . S
H1019 C1031 0.950 . S
C1020 H1012 0.950 . S
C1020 C1021 1.386 . S
C1020 C1022 1.391 . S
C1021 C1020 1.386 . S
C1021 C1025 1.393 . S
C1022 H1014 0.950 . S
C1022 C1020 1.391 . S
C1022 C1023 1.400 . S
C1023 C1022 1.400 . S
C1023 C1024 1.398 . S
C1023 C1029 1.491 . S
C1024 H1015 0.950 . S
C1024 C1023 1.398 . S
C1024 C1025 1.391 . S
C1025 H1013 0.950 . S
C1025 C1021 1.393 . S
C1025 C1024 1.391 . S
C1026 H1016 0.950 . S
C1026 C1027 1.386 . S
C1026 C1028 1.391 . S
C1027 C1026 1.386 . S
C1027 C1031 1.393 . S
C1028 H1017 0.950 . S
C1028 C1026 1.391 . S
C1028 C1029 1.400 . S
C1029 C1023 1.491 . S
C1029 C1028 1.400 . S
C1029 C1030 1.398 . S
C1030 H1018 0.950 . S
C1030 C1029 1.398 . S
C1030 C1031 1.391 . S
C1031 H1019 0.950 . S
C1031 C1027 1.393 . S
C1031 C1030 1.391 . S
H1032 C1040 0.950 . S
H1033 C1045 0.950 . S
H1034 C1042 0.950 . S
H1035 C1044 0.950 . S
H1036 C1046 0.950 . S
H1037 C1048 0.950 . S
H1038 C1050 0.950 . S
H1039 C1051 0.950 . S
C1040 H1032 0.950 . S
C1040 C1041 1.386 . S
C1040 C1042 1.391 . S
C1041 C1040 1.386 . S
C1041 C1045 1.393 . S
C1042 H1034 0.950 . S
C1042 C1040 1.391 . S
C1042 C1043 1.400 . S
C1043 C1042 1.400 . S
C1043 C1044 1.398 . S
C1043 C1049 1.491 . S
C1044 H1035 0.950 . S
C1044 C1043 1.398 . S
C1044 C1045 1.391 . S
C1045 H1033 0.950 . S
C1045 C1041 1.393 . S
C1045 C1044 1.391 . S
C1046 H1036 0.950 . S
C1046 C1047 1.386 . S
C1046 C1048 1.391 . S
C1047 C1046 1.386 . S
C1047 C1051 1.393 . S
C1048 H1037 0.950 . S
C1048 C1046 1.391 . S
C1048 C1049 1.400 . S
C1049 C1043 1.491 . S
C1049 C1048 1.400 . S
C1049 C1050 1.398 . S
C1050 H1038 0.950 . S
C1050 C1049 1.398 . S
C1050 C1051 1.391 . S
C1051 H1039 0.950 . S
C1051 C1047 1.393 . S
C1051 C1050 1.391 . S
H1052 C1060 0.950 . S
H1053 C1065 0.950 . S
H1054 C1062 0.950 . S
H1055 C1064 0.950 . S
H1056 C1066 0.950 . S
H1057 C1068 0.950 . S
H1058 C1070 0.950 . S
H1059 C1071 0.950 . S
C1060 H1052 0.950 . S
C1060 C1061 1.386 . S
C1060 C1062 1.391 . S
C1061 C1060 1.386 . S
C1061 C1065 1.393 . S
C1062 H1054 0.950 . S
C1062 C1060 1.391 . S
C1062 C1063 1.400 . S
C1063 C1062 1.400 . S
C1063 C1064 1.398 . S
C1063 C1069 1.491 . S
C1064 H1055 0.950 . S
C1064 C1063 1.398 . S
C1064 C1065 1.391 . S
C1065 H1053 0.950 . S
C1065 C1061 1.393 . S
C1065 C1064 1.391 . S
C1066 H1056 0.950 . S
C1066 C1067 1.386 . S
C1066 C1068 1.391 . S
C1067 C1066 1.386 . S
C1067 C1071 1.393 . S
C1068 H1057 0.950 . S
C1068 C1066 1.391 . S
C1068 C1069 1.400 . S
C1069 C1063 1.491 . S
C1069 C1068 1.400 . S
C1069 C1070 1.398 . S
C1070 H1058 0.950 . S
C1070 C1069 1.398 . S
C1070 C1071 1.391 . S
C1071 H1059 0.950 . S
C1071 C1067 1.393 . S
C1071 C1070 1.391 . S
C601 C215 2.140 . S
C607 C331 2.159 . S
C627 C415 2.175 . S
C621 C247 2.156 . S
C647 C491 2.091 . S
C641 C151 2.260 . S
C667 C575 2.093 . S
C661 C183 2.248 . S
C687 C322 2.140 1_565 S
C681 C87 2.026 . S
C701 C119 2.040 . S
C707 C406 2.181 . S
C721 C23 2.120 . S
C727 C480 2.082 . S
C741 C55 2.120 . S
C747 C564 2.067 . S
C767 C319 0.607 1_455 S
C761 C189 0.607 . S
C787 C403 0.563 1_545 S
C781 C221 0.545 . S
C807 C496 0.529 . S
C801 C253 0.524 . S
C821 C157 0.563 . S
C827 C580 0.579 . S
C841 C61 0.642 . S
C847 C328 0.639 . S
C867 C412 0.557 . S
C861 C93 0.690 . S
C887 C487 0.584 . S
C881 C125 0.654 . S
C901 C29 0.708 . S
C907 C571 0.593 . S
C921 C177 2.508 . S
C927 C312 2.552 . S
C941 C209 2.451 . S
C947 C396 2.502 . S
C967 C490 2.565 . S
C961 C241 2.355 . S
C987 C574 2.591 . S
C981 C145 2.379 . S
C1001 C49 2.403 . S
C1007 C323 2.556 . S
C1027 C407 2.517 . S
C1021 C81 2.365 . S
C1047 C499 2.565 . S
C1041 C113 2.253 . S
C1061 C17 2.301 . S
C1067 C583 2.589 . S
