# Generated by pormake.
# Topology eea, (3,6)-cn, num edge types: 1
# Building blocks:
#     Node 0, Type 0, BuildingBlock: KAKCAD_clean_linker_0, # of connection points: 3
#     Node 1, Type 0, BuildingBlock: KAKCAD_clean_linker_0, # of connection points: 3
#     Node 2, Type 0, BuildingBlock: KAKCAD_clean_linker_0, # of connection points: 3
#     Node 3, Type 0, BuildingBlock: KAKCAD_clean_linker_0, # of connection points: 3
#     Node 4, Type 0, BuildingBlock: KAKCAD_clean_linker_0, # of connection points: 3
#     Node 5, Type 0, BuildingBlock: KAKCAD_clean_linker_0, # of connection points: 3
#     Node 6, Type 0, BuildingBlock: KAKCAD_clean_linker_0, # of connection points: 3
#     Node 7, Type 0, BuildingBlock: KAKCAD_clean_linker_0, # of connection points: 3
#     Node 8, Type 0, BuildingBlock: KAKCAD_clean_linker_0, # of connection points: 3
#     Node 9, Type 0, BuildingBlock: KAKCAD_clean_linker_0, # of connection points: 3
#     Node 10, Type 0, BuildingBlock: KAKCAD_clean_linker_0, # of connection points: 3
#     Node 11, Type 0, BuildingBlock: KAKCAD_clean_linker_0, # of connection points: 3
#     Node 12, Type 0, BuildingBlock: KAKCAD_clean_linker_0, # of connection points: 3
#     Node 13, Type 0, BuildingBlock: KAKCAD_clean_linker_0, # of connection points: 3
#     Node 14, Type 0, BuildingBlock: KAKCAD_clean_linker_0, # of connection points: 3
#     Node 15, Type 0, BuildingBlock: KAKCAD_clean_linker_0, # of connection points: 3
#     Node 16, Type 0, BuildingBlock: KAKCAD_clean_linker_0, # of connection points: 3
#     Node 17, Type 0, BuildingBlock: KAKCAD_clean_linker_0, # of connection points: 3
#     Node 18, Type 1, BuildingBlock: KUMBOL_clean_sbu_0, # of connection points: 6
#     Node 19, Type 1, BuildingBlock: KUMBOL_clean_sbu_0, # of connection points: 6
#     Node 20, Type 1, BuildingBlock: KUMBOL_clean_sbu_0, # of connection points: 6
#     Node 21, Type 1, BuildingBlock: KUMBOL_clean_sbu_0, # of connection points: 6
#     Node 22, Type 1, BuildingBlock: KUMBOL_clean_sbu_0, # of connection points: 6
#     Node 23, Type 1, BuildingBlock: KUMBOL_clean_sbu_0, # of connection points: 6
#     Node 24, Type 1, BuildingBlock: KUMBOL_clean_sbu_0, # of connection points: 6
#     Node 25, Type 1, BuildingBlock: KUMBOL_clean_sbu_0, # of connection points: 6
#     Node 26, Type 1, BuildingBlock: KUMBOL_clean_sbu_0, # of connection points: 6
#     Edge 27, Type (0, 1), BuildingBlock: CIFDUS_clean_linker_0, # of connection points: 2
#     Edge 28, Type (0, 1), BuildingBlock: CIFDUS_clean_linker_0, # of connection points: 2
#     Edge 29, Type (0, 1), BuildingBlock: CIFDUS_clean_linker_0, # of connection points: 2
#     Edge 30, Type (0, 1), BuildingBlock: CIFDUS_clean_linker_0, # of connection points: 2
#     Edge 31, Type (0, 1), BuildingBlock: CIFDUS_clean_linker_0, # of connection points: 2
#     Edge 32, Type (0, 1), BuildingBlock: CIFDUS_clean_linker_0, # of connection points: 2
#     Edge 33, Type (0, 1), BuildingBlock: CIFDUS_clean_linker_0, # of connection points: 2
#     Edge 34, Type (0, 1), BuildingBlock: CIFDUS_clean_linker_0, # of connection points: 2
#     Edge 35, Type (0, 1), BuildingBlock: CIFDUS_clean_linker_0, # of connection points: 2
#     Edge 36, Type (0, 1), BuildingBlock: CIFDUS_clean_linker_0, # of connection points: 2
#     Edge 37, Type (0, 1), BuildingBlock: CIFDUS_clean_linker_0, # of connection points: 2
#     Edge 38, Type (0, 1), BuildingBlock: CIFDUS_clean_linker_0, # of connection points: 2
#     Edge 39, Type (0, 1), BuildingBlock: CIFDUS_clean_linker_0, # of connection points: 2
#     Edge 40, Type (0, 1), BuildingBlock: CIFDUS_clean_linker_0, # of connection points: 2
#     Edge 41, Type (0, 1), BuildingBlock: CIFDUS_clean_linker_0, # of connection points: 2
#     Edge 42, Type (0, 1), BuildingBlock: CIFDUS_clean_linker_0, # of connection points: 2
#     Edge 43, Type (0, 1), BuildingBlock: CIFDUS_clean_linker_0, # of connection points: 2
#     Edge 44, Type (0, 1), BuildingBlock: CIFDUS_clean_linker_0, # of connection points: 2
#     Edge 45, Type (0, 1), BuildingBlock: CIFDUS_clean_linker_0, # of connection points: 2
#     Edge 46, Type (0, 1), BuildingBlock: CIFDUS_clean_linker_0, # of connection points: 2
#     Edge 47, Type (0, 1), BuildingBlock: CIFDUS_clean_linker_0, # of connection points: 2
#     Edge 48, Type (0, 1), BuildingBlock: CIFDUS_clean_linker_0, # of connection points: 2
#     Edge 49, Type (0, 1), BuildingBlock: CIFDUS_clean_linker_0, # of connection points: 2
#     Edge 50, Type (0, 1), BuildingBlock: CIFDUS_clean_linker_0, # of connection points: 2
#     Edge 51, Type (0, 1), BuildingBlock: CIFDUS_clean_linker_0, # of connection points: 2
#     Edge 52, Type (0, 1), BuildingBlock: CIFDUS_clean_linker_0, # of connection points: 2
#     Edge 53, Type (0, 1), BuildingBlock: CIFDUS_clean_linker_0, # of connection points: 2
#     Edge 54, Type (0, 1), BuildingBlock: CIFDUS_clean_linker_0, # of connection points: 2
#     Edge 55, Type (0, 1), BuildingBlock: CIFDUS_clean_linker_0, # of connection points: 2
#     Edge 56, Type (0, 1), BuildingBlock: CIFDUS_clean_linker_0, # of connection points: 2
#     Edge 57, Type (0, 1), BuildingBlock: CIFDUS_clean_linker_0, # of connection points: 2
#     Edge 58, Type (0, 1), BuildingBlock: CIFDUS_clean_linker_0, # of connection points: 2
#     Edge 59, Type (0, 1), BuildingBlock: CIFDUS_clean_linker_0, # of connection points: 2
#     Edge 60, Type (0, 1), BuildingBlock: CIFDUS_clean_linker_0, # of connection points: 2
#     Edge 61, Type (0, 1), BuildingBlock: CIFDUS_clean_linker_0, # of connection points: 2
#     Edge 62, Type (0, 1), BuildingBlock: CIFDUS_clean_linker_0, # of connection points: 2
#     Edge 63, Type (0, 1), BuildingBlock: CIFDUS_clean_linker_0, # of connection points: 2
#     Edge 64, Type (0, 1), BuildingBlock: CIFDUS_clean_linker_0, # of connection points: 2
#     Edge 65, Type (0, 1), BuildingBlock: CIFDUS_clean_linker_0, # of connection points: 2
#     Edge 66, Type (0, 1), BuildingBlock: CIFDUS_clean_linker_0, # of connection points: 2
#     Edge 67, Type (0, 1), BuildingBlock: CIFDUS_clean_linker_0, # of connection points: 2
#     Edge 68, Type (0, 1), BuildingBlock: CIFDUS_clean_linker_0, # of connection points: 2
#     Edge 69, Type (0, 1), BuildingBlock: CIFDUS_clean_linker_0, # of connection points: 2
#     Edge 70, Type (0, 1), BuildingBlock: CIFDUS_clean_linker_0, # of connection points: 2
#     Edge 71, Type (0, 1), BuildingBlock: CIFDUS_clean_linker_0, # of connection points: 2
#     Edge 72, Type (0, 1), BuildingBlock: CIFDUS_clean_linker_0, # of connection points: 2
#     Edge 73, Type (0, 1), BuildingBlock: CIFDUS_clean_linker_0, # of connection points: 2
#     Edge 74, Type (0, 1), BuildingBlock: CIFDUS_clean_linker_0, # of connection points: 2
#     Edge 75, Type (0, 1), BuildingBlock: CIFDUS_clean_linker_0, # of connection points: 2
#     Edge 76, Type (0, 1), BuildingBlock: CIFDUS_clean_linker_0, # of connection points: 2
#     Edge 77, Type (0, 1), BuildingBlock: CIFDUS_clean_linker_0, # of connection points: 2
#     Edge 78, Type (0, 1), BuildingBlock: CIFDUS_clean_linker_0, # of connection points: 2
#     Edge 79, Type (0, 1), BuildingBlock: CIFDUS_clean_linker_0, # of connection points: 2
#     Edge 80, Type (0, 1), BuildingBlock: CIFDUS_clean_linker_0, # of connection points: 2
# Relax obj value: 0.009
# Max RMSD: 0.091
# Mean RMSD: 0.066
data_MOF--net-eea--node1-KUMBOL_clean_sbu_0--node2-KAKCAD_clean_linker_0--edge1-CIFDUS_clean_linker_0
_symmetry_space_group_name_H-M    P1
_symmetry_Int_Tables_number       1
_symmetry_cell_setting            triclinic
loop_
_symmetry_equiv_pos_as_xyz
'x, y, z'
_cell_length_a     56.199924
_cell_length_b     57.470174
_cell_length_c     80.769888
_cell_angle_alpha  90.248382
_cell_angle_beta   90.094506
_cell_angle_gamma 120.01689
loop_
_atom_site_label
_atom_site_type_symbol
_atom_site_fract_x
_atom_site_fract_y
_atom_site_fract_z
_atom_type_partial_charge
C0 C 0.28055 0.15207 0.49082 0.0
C1 C 0.30061 0.14504 0.4946 0.0
C2 C 0.26903 0.1476 0.47494 0.0
C3 C 0.27707 0.13571 0.46255 0.0
C4 C 0.29718 0.12887 0.46625 0.0
C5 C 0.30896 0.13366 0.48202 0.0
C6 C 0.26444 0.13024 0.44582 0.0
C7 C 0.26157 0.15005 0.43745 0.0
C8 C 0.24959 0.14499 0.4216 0.0
C9 C 0.24072 0.11983 0.41412 0.0
C10 C 0.24305 0.09956 0.42236 0.0
C11 C 0.25506 0.10506 0.43823 0.0
C12 C 0.23242 0.07259 0.41449 0.0
C13 C 0.20863 0.06136 0.40451 0.0
C14 C 0.24596 0.05785 0.4168 0.0
C15 C 0.23599 0.03263 0.40936 0.0
C16 C 0.21248 0.02162 0.39912 0.0
C17 C 0.24466 0.16519 0.41322 0.0
C18 C 0.23538 0.17994 0.42235 0.0
C19 C 0.24721 0.16849 0.39593 0.0
C20 C 0.23919 0.18497 0.38788 0.0
C21 C 0.22863 0.19866 0.39698 0.0
C22 C 0.22764 0.19659 0.41434 0.0
C23 C 0.19898 0.0364 0.39681 0.0
H24 H 0.27332 0.16055 0.50019 0.0
H25 H 0.25339 0.15289 0.47244 0.0
H26 H 0.30407 0.12008 0.45686 0.0
H27 H 0.32485 0.12862 0.48426 0.0
H28 H 0.26902 0.16956 0.44323 0.0
H29 H 0.2564 0.0895 0.44498 0.0
H30 H 0.23148 0.11587 0.40192 0.0
H31 H 0.19721 0.07173 0.40269 0.0
H32 H 0.26449 0.06586 0.42423 0.0
H33 H 0.24671 0.02173 0.41177 0.0
H34 H 0.233 0.17784 0.43566 0.0
H35 H 0.25484 0.15785 0.38855 0.0
H36 H 0.18104 0.02889 0.38889 0.0
H37 H 0.22027 0.2074 0.42177 0.0
H38 H 0.24028 0.18617 0.37451 0.0
C39 C 0.88182 0.15948 0.48281 0.0
C40 C 0.86894 0.13725 0.49339 0.0
C41 C 0.8894 0.15649 0.46678 0.0
C42 C 0.88449 0.13126 0.46108 0.0
C43 C 0.87273 0.10937 0.47202 0.0
C44 C 0.86489 0.1123 0.48793 0.0
C45 C 0.8906 0.12743 0.44365 0.0
C46 C 0.91396 0.14752 0.43556 0.0
C47 C 0.9194 0.14421 0.41898 0.0
C48 C 0.90142 0.12015 0.41065 0.0
C49 C 0.87815 0.09965 0.41853 0.0
C50 C 0.87276 0.10367 0.43496 0.0
C51 C 0.85958 0.07404 0.40961 0.0
C52 C 0.85384 0.07398 0.39262 0.0
C53 C 0.84767 0.04934 0.41799 0.0
C54 C 0.8303 0.02531 0.40966 0.0
C55 C 0.82467 0.02533 0.39271 0.0
C56 C 0.9436 0.16591 0.41022 0.0
C57 C 0.95182 0.19309 0.41301 0.0
C58 C 0.95816 0.1596 0.39861 0.0
C59 C 0.97986 0.17983 0.38969 0.0
C60 C 0.988 0.207 0.39239 0.0
C61 C 0.97385 0.21336 0.40431 0.0
C62 C 0.83676 0.04988 0.38424 0.0
H63 H 0.88499 0.1789 0.48667 0.0
H64 H 0.89817 0.17376 0.45869 0.0
H65 H 0.86931 0.08983 0.46825 0.0
H66 H 0.85536 0.09493 0.49594 0.0
H67 H 0.92821 0.16556 0.44227 0.0
H68 H 0.8542 0.08848 0.44088 0.0
H69 H 0.90551 0.11737 0.39792 0.0
H70 H 0.86219 0.09259 0.3858 0.0
H71 H 0.85199 0.04848 0.43097 0.0
H72 H 0.82145 0.00662 0.41646 0.0
H73 H 0.94097 0.19877 0.42173 0.0
H74 H 0.95284 0.13897 0.39634 0.0
H75 H 0.83246 0.0505 0.37123 0.0
H76 H 0.97986 0.23405 0.40702 0.0
H77 H 0.99001 0.17404 0.38054 0.0
C78 C 0.90117 0.75526 0.48603 0.0
C79 C 0.87489 0.73591 0.49151 0.0
C80 C 0.90505 0.76569 0.47001 0.0
C81 C 0.88278 0.75693 0.45893 0.0
C82 C 0.85638 0.73792 0.46453 0.0
C83 C 0.85248 0.72761 0.48062 0.0
C84 C 0.88724 0.76723 0.44155 0.0
C85 C 0.9111 0.77234 0.43285 0.0
C86 C 0.91566 0.78202 0.41652 0.0
C87 C 0.89583 0.78639 0.40873 0.0
C88 C 0.87206 0.78173 0.41723 0.0
C89 C 0.86787 0.77218 0.43357 0.0
C90 C 0.85254 0.7887 0.40945 0.0
C91 C 0.85542 0.81405 0.4123 0.0
C92 C 0.83114 0.77034 0.39916 0.0
C93 C 0.81299 0.77735 0.39172 0.0
C94 C 0.81589 0.80293 0.39442 0.0
C95 C 0.94157 0.78831 0.40785 0.0
C96 C 0.96716 0.8044 0.41562 0.0
C97 C 0.941 0.77833 0.39184 0.0
C98 C 0.96549 0.78409 0.38385 0.0
C99 C 0.99107 0.80046 0.39155 0.0
C100 C 0.99162 0.8106 0.40751 0.0
C101 C 0.83733 0.82106 0.40493 0.0
H102 H 0.91883 0.76243 0.49418 0.0
H103 H 0.92559 0.78074 0.46635 0.0
H104 H 0.83876 0.73041 0.45634 0.0
H105 H 0.832 0.71251 0.48437 0.0
H106 H 0.92608 0.76833 0.43865 0.0
H107 H 0.84977 0.7692 0.44015 0.0
H108 H 0.89931 0.79427 0.39625 0.0
H109 H 0.87174 0.82847 0.42026 0.0
H110 H 0.82855 0.75062 0.39683 0.0
H111 H 0.797 0.76285 0.38364 0.0
H112 H 0.96825 0.81245 0.42793 0.0
H113 H 0.92157 0.76576 0.38561 0.0
H114 H 0.84003 0.84068 0.4077 0.0
H115 H 0.01101 0.82303 0.41382 0.0
H116 H 0.96445 0.77598 0.37157 0.0
C117 C 0.14073 0.24137 0.53532 0.0
C118 C 0.13575 0.26175 0.5298 0.0
C119 C 0.13602 0.23296 0.55182 0.0
C120 C 0.12628 0.24475 0.56326 0.0
C121 C 0.12158 0.26531 0.55778 0.0
C122 C 0.12617 0.27364 0.54128 0.0
C123 C 0.12095 0.23566 0.58082 0.0
C124 C 0.13879 0.22928 0.58931 0.0
C125 C 0.13417 0.2213 0.60597 0.0
C126 C 0.1115 0.2199 0.61424 0.0
C127 C 0.09304 0.2257 0.60593 0.0
C128 C 0.09795 0.23341 0.58919 0.0
C129 C 0.06868 0.22379 0.61464 0.0
C130 C 0.05411 0.20367 0.62647 0.0
C131 C 0.05969 0.24211 0.61114 0.0
C132 C 0.03685 0.24035 0.61915 0.0
C133 C 0.0225 0.22053 0.63117 0.0
C134 C 0.15276 0.21387 0.61463 0.0
C135 C 0.15948 0.19577 0.60719 0.0
C136 C 0.16358 0.2244 0.63039 0.0
C137 C 0.18079 0.21695 0.63854 0.0
C138 C 0.18704 0.19843 0.63121 0.0
C139 C 0.17627 0.18801 0.61544 0.0
C140 C 0.03141 0.20213 0.63467 0.0
H141 H 0.14838 0.23195 0.52689 0.0
H142 H 0.13963 0.2169 0.55555 0.0
H143 H 0.11444 0.27513 0.56627 0.0
H144 H 0.12174 0.28913 0.53748 0.0
H145 H 0.1567 0.23109 0.58309 0.0
H146 H 0.08348 0.23711 0.58248 0.0
H147 H 0.1082 0.2141 0.62714 0.0
H148 H 0.06007 0.1889 0.62933 0.0
H149 H 0.07046 0.2581 0.60229 0.0
H150 H 0.03036 0.25455 0.61579 0.0
H151 H 0.15135 0.18725 0.5951 0.0
H152 H 0.15887 0.23853 0.63635 0.0
H153 H 0.02108 0.18668 0.64389 0.0
H154 H 0.181 0.17394 0.6094 0.0
H155 H 0.18881 0.22529 0.65068 0.0
C156 C 0.70912 0.83513 0.53973 0.0
C157 C 0.71866 0.85481 0.5274 0.0
C158 C 0.7182 0.84201 0.556 0.0
C159 C 0.73742 0.86871 0.56026 0.0
C160 C 0.74581 0.88873 0.54808 0.0
C161 C 0.73637 0.88181 0.53173 0.0
C162 C 0.75012 0.87484 0.57701 0.0
C163 C 0.75748 0.85713 0.58419 0.0
C164 C 0.76903 0.86181 0.60008 0.0
C165 C 0.77404 0.88507 0.6087 0.0
C166 C 0.76731 0.90342 0.60168 0.0
C167 C 0.7552 0.89806 0.5858 0.0
C168 C 0.77347 0.9283 0.61091 0.0
C169 C 0.77051 0.92792 0.62824 0.0
C170 C 0.7834 0.95284 0.60257 0.0
C171 C 0.79045 0.97643 0.61135 0.0
C172 C 0.78804 0.97605 0.62867 0.0
C173 C 0.77586 0.84231 0.60753 0.0
C174 C 0.75814 0.81454 0.60528 0.0
C175 C 0.80023 0.85118 0.61669 0.0
C176 C 0.80687 0.8327 0.62326 0.0
C177 C 0.78937 0.80501 0.62071 0.0
C178 C 0.76487 0.79612 0.61175 0.0
C179 C 0.77796 0.9516 0.63703 0.0
H180 H 0.69509 0.81422 0.53668 0.0
H181 H 0.71077 0.82622 0.56516 0.0
H182 H 0.76064 0.90946 0.551 0.0
H183 H 0.7439 0.89728 0.52235 0.0
H184 H 0.75472 0.83981 0.5772 0.0
H185 H 0.74923 0.91161 0.5804 0.0
H186 H 0.78336 0.88894 0.62088 0.0
H187 H 0.76236 0.90931 0.63505 0.0
H188 H 0.78637 0.954 0.58929 0.0
H189 H 0.79835 0.99512 0.60463 0.0
H190 H 0.73894 0.807 0.59859 0.0
H191 H 0.8145 0.87242 0.61846 0.0
H192 H 0.77553 0.95075 0.65036 0.0
H193 H 0.75076 0.77486 0.60984 0.0
H194 H 0.82602 0.8401 0.63 0.0
C195 C 0.10464 0.84697 0.53258 0.0
C196 C 0.13154 0.858 0.52642 0.0
C197 C 0.10006 0.85231 0.54885 0.0
C198 C 0.12228 0.86844 0.55946 0.0
C199 C 0.1491 0.87955 0.55318 0.0
C200 C 0.15362 0.87482 0.53688 0.0
C201 C 0.11796 0.87307 0.57716 0.0
C202 C 0.09609 0.85307 0.58633 0.0
C203 C 0.09362 0.85658 0.60332 0.0
C204 C 0.11359 0.88 0.61135 0.0
C205 C 0.13533 0.90058 0.60241 0.0
C206 C 0.13673 0.89714 0.58524 0.0
C207 C 0.15694 0.92544 0.61087 0.0
C208 C 0.15054 0.9367 0.62446 0.0
C209 C 0.18432 0.93822 0.60535 0.0
C210 C 0.20451 0.96188 0.61285 0.0
C211 C 0.19817 0.97324 0.62642 0.0
C212 C 0.07029 0.83549 0.61272 0.0
C213 C 0.04319 0.82648 0.6075 0.0
C214 C 0.07494 0.82423 0.62689 0.0
C215 C 0.05282 0.80394 0.63556 0.0
C216 C 0.02572 0.79502 0.63039 0.0
C217 C 0.02107 0.80659 0.61636 0.0
C218 C 0.17089 0.96011 0.63221 0.0
H219 H 0.08707 0.83373 0.525 0.0
H220 H 0.07907 0.84366 0.55307 0.0
H221 H 0.16689 0.89158 0.56093 0.0
H222 H 0.17463 0.88431 0.53257 0.0
H223 H 0.08143 0.83425 0.58049 0.0
H224 H 0.15257 0.91338 0.57811 0.0
H225 H 0.11207 0.88204 0.62459 0.0
H226 H 0.1297 0.9277 0.62902 0.0
H227 H 0.19036 0.92995 0.5952 0.0
H228 H 0.22505 0.97142 0.60778 0.0
H229 H 0.03915 0.83495 0.59662 0.0
H230 H 0.09569 0.83081 0.63107 0.0
H231 H 0.16514 0.96781 0.64279 0.0
H232 H 1.00034 0.79981 0.61206 0.0
H233 H 0.05684 0.79523 0.64632 0.0
C234 C 0.92477 0.47634 0.82271 0.0
C235 C 0.94552 0.47155 0.8285 0.0
C236 C 0.91761 0.47304 0.80595 0.0
C237 C 0.93104 0.46482 0.7947 0.0
C238 C 0.95179 0.46005 0.80053 0.0
C239 C 0.95892 0.46334 0.81725 0.0
C240 C 0.92365 0.46122 0.77689 0.0
C241 C 0.91908 0.47994 0.76848 0.0
C242 C 0.91349 0.47713 0.75144 0.0
C243 C 0.91271 0.45554 0.74275 0.0
C244 C 0.91631 0.43605 0.75109 0.0
C245 C 0.92157 0.43909 0.76821 0.0
C246 C 0.91363 0.41204 0.7422 0.0
C247 C 0.89485 0.40018 0.72906 0.0
C248 C 0.92893 0.40001 0.74728 0.0
C249 C 0.92452 0.37606 0.74004 0.0
C250 C 0.90523 0.36382 0.72716 0.0
C251 C 0.90817 0.49664 0.74273 0.0
C252 C 0.88815 0.50233 0.74869 0.0
C253 C 0.92291 0.50954 0.72841 0.0
C254 C 0.91794 0.52812 0.72028 0.0
C255 C 0.89778 0.53363 0.72618 0.0
C256 C 0.88281 0.52049 0.74038 0.0
C257 C 0.89101 0.37665 0.72149 0.0
H258 H 0.91435 0.48304 0.83108 0.0
H259 H 0.90143 0.47669 0.80182 0.0
H260 H 0.96276 0.45404 0.79211 0.0
H261 H 0.97488 0.45936 0.82138 0.0
H262 H 0.92059 0.49711 0.77506 0.0
H263 H 0.92346 0.42388 0.77499 0.0
H264 H 0.90891 0.45385 0.72953 0.0
H265 H 0.88244 0.40855 0.72483 0.0
H266 H 0.94414 0.40883 0.75706 0.0
H267 H 0.93577 0.36685 0.74491 0.0
H268 H 0.87646 0.4925 0.75969 0.0
H269 H 0.93853 0.50553 0.72366 0.0
H270 H 0.87655 0.3684 0.71131 0.0
H271 H 0.86733 0.52466 0.7452 0.0
H272 H 0.92971 0.53807 0.70934 0.0
C273 C 0.54696 0.50306 0.80832 0.0
C274 C 0.5372 0.48406 0.8211 0.0
C275 C 0.55441 0.49704 0.79309 0.0
C276 C 0.55176 0.47171 0.79024 0.0
C277 C 0.54236 0.45282 0.80311 0.0
C278 C 0.53541 0.45906 0.81849 0.0
C279 C 0.55788 0.46486 0.77365 0.0
C280 C 0.58257 0.48259 0.76564 0.0
C281 C 0.58794 0.47707 0.74952 0.0
C282 C 0.56796 0.45373 0.7414 0.0
C283 C 0.54327 0.43571 0.74922 0.0
C284 C 0.53851 0.44122 0.76546 0.0
C285 C 0.52248 0.41139 0.74016 0.0
C286 C 0.5158 0.41324 0.72361 0.0
C287 C 0.50987 0.3861 0.74775 0.0
C288 C 0.49128 0.3631 0.7389 0.0
C289 C 0.48462 0.36488 0.7223 0.0
C290 C 0.6141 0.49565 0.74097 0.0
C291 C 0.62617 0.52365 0.74275 0.0
C292 C 0.62685 0.48546 0.73056 0.0
C293 C 0.65059 0.50277 0.72182 0.0
C294 C 0.66252 0.53077 0.72345 0.0
C295 C 0.65016 0.54097 0.73419 0.0
C296 C 0.49708 0.39029 0.7148 0.0
H297 H 0.54857 0.5225 0.81009 0.0
H298 H 0.56147 0.51191 0.78335 0.0
H299 H 0.54029 0.43321 0.80124 0.0
H300 H 0.52782 0.44408 0.82817 0.0
H301 H 0.59775 0.50048 0.77212 0.0
H302 H 0.51925 0.42769 0.77147 0.0
H303 H 0.57155 0.44953 0.72885 0.0
H304 H 0.52494 0.43254 0.71749 0.0
H305 H 0.51489 0.38402 0.76041 0.0
H306 H 0.48249 0.34384 0.74503 0.0
H307 H 0.61686 0.53227 0.75055 0.0
H308 H 0.61849 0.46402 0.72912 0.0
H309 H 0.49212 0.39254 0.70216 0.0
H310 H 0.65906 0.5624 0.73609 0.0
H311 H 0.65936 0.49412 0.71361 0.0
C312 C 0.56565 0.08451 0.81904 0.0
C313 C 0.53908 0.06813 0.82525 0.0
C314 C 0.56954 0.09542 0.80316 0.0
C315 C 0.54693 0.08967 0.79287 0.0
C316 C 0.52028 0.07368 0.79934 0.0
C317 C 0.51643 0.06326 0.8154 0.0
C318 C 0.55121 0.09944 0.77532 0.0
C319 C 0.5739 0.10225 0.76622 0.0
C320 C 0.57796 0.11081 0.7497 0.0
C321 C 0.559 0.11643 0.74206 0.0
C322 C 0.53626 0.11401 0.7508 0.0
C323 C 0.53256 0.10554 0.76743 0.0
C324 C 0.51657 0.12051 0.7425 0.0
C325 C 0.52622 0.14332 0.73238 0.0
C326 C 0.48804 0.10381 0.74438 0.0
C327 C 0.46963 0.10972 0.73627 0.0
C328 C 0.47931 0.1326 0.72619 0.0
C329 C 0.60189 0.1135 0.74033 0.0
C330 C 0.62871 0.12941 0.74656 0.0
C331 C 0.59802 0.09994 0.72518 0.0
C332 C 0.6205 0.10176 0.7166 0.0
C333 C 0.64731 0.11766 0.72282 0.0
C334 C 0.65125 0.13171 0.73779 0.0
C335 C 0.50785 0.14932 0.72437 0.0
H336 H 0.58347 0.08876 0.82646 0.0
H337 H 0.5904 0.10825 0.79897 0.0
H338 H 0.50227 0.06838 0.79185 0.0
H339 H 0.49571 0.05047 0.81987 0.0
H340 H 0.58814 0.09698 0.77174 0.0
H341 H 0.51545 0.10434 0.77429 0.0
H342 H 0.56199 0.12269 0.72923 0.0
H343 H 0.54807 0.15674 0.73077 0.0
H344 H 0.47991 0.08597 0.75197 0.0
H345 H 0.4478 0.09657 0.73811 0.0
H346 H 0.63221 0.14012 0.7582 0.0
H347 H 0.57753 0.08746 0.72018 0.0
H348 H 0.51602 0.16699 0.71663 0.0
H349 H 0.6717 0.14387 0.74292 0.0
H350 H 0.61695 0.0907 0.7051 0.0
C351 C 0.80543 0.58164 0.86767 0.0
C352 C 0.80332 0.60471 0.86464 0.0
C353 C 0.80298 0.57167 0.88377 0.0
C354 C 0.79779 0.58418 0.89713 0.0
C355 C 0.79577 0.60715 0.8942 0.0
C356 C 0.79886 0.61749 0.87825 0.0
C357 C 0.79424 0.57344 0.91417 0.0
C358 C 0.81462 0.56959 0.92161 0.0
C359 C 0.81226 0.56171 0.93825 0.0
C360 C 0.78883 0.55686 0.94726 0.0
C361 C 0.76766 0.55954 0.93982 0.0
C362 C 0.77079 0.56815 0.92328 0.0
C363 C 0.74207 0.55277 0.94914 0.0
C364 C 0.73053 0.53089 0.96008 0.0
C365 C 0.72845 0.56747 0.94681 0.0
C366 C 0.70357 0.55998 0.95481 0.0
C367 C 0.69174 0.5377 0.96547 0.0
C368 C 0.83463 0.55941 0.94649 0.0
C369 C 0.84449 0.54334 0.93963 0.0
C370 C 0.84627 0.57336 0.96135 0.0
C371 C 0.86762 0.57162 0.96907 0.0
C372 C 0.87741 0.55545 0.96229 0.0
C373 C 0.86548 0.54114 0.94756 0.0
C374 C 0.70583 0.52357 0.9682 0.0
H375 H 0.80849 0.57093 0.85761 0.0
H376 H 0.80451 0.55383 0.88574 0.0
H377 H 0.79217 0.61739 0.90435 0.0
H378 H 0.79801 0.63575 0.8767 0.0
H379 H 0.83287 0.5739 0.91468 0.0
H380 H 0.75474 0.57028 0.91726 0.0
H381 H 0.78718 0.55096 0.96012 0.0
H382 H 0.74015 0.51886 0.96208 0.0
H383 H 0.73687 0.5847 0.93869 0.0
H384 H 0.69324 0.57121 0.95224 0.0
H385 H 0.83577 0.53231 0.92822 0.0
H386 H 0.83912 0.58598 0.96684 0.0
H387 H 0.69762 0.50657 0.97649 0.0
H388 H 0.87278 0.52868 0.94202 0.0
H389 H 0.87642 0.58281 0.98042 0.0
C390 C 0.37337 0.16573 0.87707 0.0
C391 C 0.38525 0.18482 0.8644 0.0
C392 C 0.38282 0.1723 0.89329 0.0
C393 C 0.40424 0.19818 0.89732 0.0
C394 C 0.41576 0.21757 0.88482 0.0
C395 C 0.40641 0.21092 0.86846 0.0
C396 C 0.41449 0.20436 0.91458 0.0
C397 C 0.41922 0.18599 0.92326 0.0
C398 C 0.42616 0.18966 0.94015 0.0
C399 C 0.42911 0.21273 0.94821 0.0
C400 C 0.42572 0.23199 0.93948 0.0
C401 C 0.41837 0.22767 0.92264 0.0
C402 C 0.42987 0.25667 0.94795 0.0
C403 C 0.41729 0.25516 0.96325 0.0
C404 C 0.44683 0.28197 0.94087 0.0
C405 C 0.45149 0.30535 0.94905 0.0
C406 C 0.43891 0.30384 0.96433 0.0
C407 C 0.43025 0.16933 0.94918 0.0
C408 C 0.41511 0.14198 0.9447 0.0
C409 C 0.44971 0.177 0.96204 0.0
C410 C 0.454 0.15792 0.97008 0.0
C411 C 0.43949 0.1307 0.9652 0.0
C412 C 0.41999 0.12308 0.95237 0.0
C413 C 0.42157 0.27856 0.9713 0.0
H414 H 0.3565 0.1457 0.8745 0.0
H415 H 0.37318 0.15711 0.90276 0.0
H416 H 0.43237 0.23765 0.88762 0.0
H417 H 0.41609 0.22605 0.85899 0.0
H418 H 0.41763 0.16882 0.91665 0.0
H419 H 0.41476 0.24197 0.91599 0.0
H420 H 0.43418 0.2159 0.96127 0.0
H421 H 0.40398 0.23586 0.96891 0.0
H422 H 0.45685 0.28368 0.92913 0.0
H423 H 0.46477 0.32465 0.94339 0.0
H424 H 0.39943 0.13499 0.93517 0.0
H425 H 0.46206 0.19785 0.96576 0.0
H426 H 0.41168 0.27694 0.98308 0.0
H427 H 0.40869 0.10254 0.94794 0.0
H428 H 0.4688 0.16465 0.98011 0.0
C429 C 0.77141 0.17958 0.86599 0.0
C430 C 0.79826 0.19107 0.85965 0.0
C431 C 0.76688 0.18456 0.88236 0.0
C432 C 0.78911 0.20074 0.89296 0.0
C433 C 0.8159 0.21208 0.88657 0.0
C434 C 0.82036 0.20774 0.87016 0.0
C435 C 0.78479 0.20555 0.91065 0.0
C436 C 0.76275 0.18578 0.91986 0.0
C437 C 0.75997 0.18975 0.93677 0.0
C438 C 0.7797 0.21348 0.94466 0.0
C439 C 0.80166 0.23371 0.93568 0.0
C440 C 0.80351 0.22976 0.91864 0.0
C441 C 0.82299 0.25886 0.94397 0.0
C442 C 0.81598 0.27158 0.95643 0.0
C443 C 0.85069 0.27069 0.93917 0.0
C444 C 0.8706 0.29504 0.94611 0.0
C445 C 0.86348 0.30809 0.9582 0.0
C446 C 0.73662 0.16883 0.94627 0.0
C447 C 0.70949 0.15948 0.94098 0.0
C448 C 0.74132 0.15809 0.96068 0.0
C449 C 0.71925 0.13801 0.9695 0.0
C450 C 0.69212 0.12878 0.96427 0.0
C451 C 0.6874 0.13982 0.95001 0.0
C452 C 0.83606 0.29588 0.96352 0.0
H453 H 0.7538 0.16636 0.85843 0.0
H454 H 0.7459 0.17569 0.88664 0.0
H455 H 0.83373 0.22412 0.89429 0.0
H456 H 0.84134 0.21757 0.86579 0.0
H457 H 0.74816 0.16683 0.91414 0.0
H458 H 0.81962 0.24582 0.91153 0.0
H459 H 0.7779 0.21608 0.9578 0.0
H460 H 0.79486 0.26321 0.96036 0.0
H461 H 0.85706 0.26117 0.92997 0.0
H462 H 0.89166 0.30376 0.94195 0.0
H463 H 0.7054 0.16753 0.92992 0.0
H464 H 0.76209 0.16492 0.96493 0.0
H465 H 0.82997 0.30559 0.97276 0.0
H466 H 0.66665 0.13278 0.94564 0.0
H467 H 0.72335 0.12971 0.98044 0.0
C468 C 0.59345 0.80872 0.159 0.0
C469 C 0.61 0.7985 0.1648 0.0
C470 C 0.58431 0.80467 0.14258 0.0
C471 C 0.59192 0.79076 0.13134 0.0
C472 C 0.60832 0.78037 0.13716 0.0
C473 C 0.61701 0.78396 0.15368 0.0
C474 C 0.58322 0.78756 0.1136 0.0
C475 C 0.58073 0.80796 0.10559 0.0
C476 C 0.57233 0.80513 0.089 0.0
C477 C 0.56719 0.78204 0.08015 0.0
C478 C 0.56898 0.76109 0.08785 0.0
C479 C 0.57702 0.76406 0.10462 0.0
C480 C 0.56145 0.73589 0.07844 0.0
C481 C 0.54006 0.72587 0.06665 0.0
C482 C 0.57558 0.72175 0.08097 0.0
C483 C 0.56851 0.6983 0.07193 0.0
C484 C 0.54736 0.68853 0.05995 0.0
C485 C 0.56679 0.8252 0.08113 0.0
C486 C 0.55028 0.83364 0.08924 0.0
C487 C 0.57578 0.83414 0.06496 0.0
C488 C 0.56759 0.85041 0.05682 0.0
C489 C 0.55004 0.8578 0.06466 0.0
C490 C 0.54187 0.84967 0.08105 0.0
C491 C 0.53335 0.70277 0.05743 0.0
H492 H 0.58788 0.82035 0.16703 0.0
H493 H 0.57124 0.81252 0.13874 0.0
H494 H 0.61491 0.76981 0.12891 0.0
H495 H 0.62928 0.7753 0.15768 0.0
H496 H 0.58554 0.82629 0.11215 0.0
H497 H 0.57754 0.74767 0.11084 0.0
H498 H 0.56106 0.78016 0.06728 0.0
H499 H 0.52823 0.73575 0.06456 0.0
H500 H 0.59231 0.7289 0.08982 0.0
H501 H 0.57951 0.68771 0.07449 0.0
H502 H 0.54292 0.82691 0.10167 0.0
H503 H 0.58868 0.82807 0.05848 0.0
H504 H 0.51722 0.69624 0.04822 0.0
H505 H 0.52867 0.85544 0.08746 0.0
H506 H 0.5742 0.85642 0.04419 0.0
C507 C 0.20891 0.83205 0.14655 0.0
C508 C 0.20239 0.81403 0.15973 0.0
C509 C 0.21695 0.8268 0.13129 0.0
C510 C 0.21812 0.80318 0.12885 0.0
C511 C 0.2122 0.78545 0.14216 0.0
C512 C 0.20466 0.79097 0.15755 0.0
C513 C 0.22399 0.79645 0.11218 0.0
C514 C 0.24663 0.81547 0.10317 0.0
C515 C 0.25123 0.81014 0.08681 0.0
C516 C 0.23287 0.78487 0.07973 0.0
C517 C 0.21015 0.76533 0.08868 0.0
C518 C 0.20595 0.77151 0.10491 0.0
C519 C 0.19015 0.73884 0.08104 0.0
C520 C 0.18312 0.73671 0.06412 0.0
C521 C 0.17711 0.7155 0.0908 0.0
C522 C 0.15698 0.69107 0.08403 0.0
C523 C 0.14976 0.68915 0.06723 0.0
C524 C 0.2747 0.83127 0.07709 0.0
C525 C 0.28342 0.85863 0.07962 0.0
C526 C 0.28856 0.82448 0.06521 0.0
C527 C 0.3103 0.84445 0.05605 0.0
C528 C 0.31915 0.87182 0.05874 0.0
C529 C 0.3055 0.87854 0.0708 0.0
C530 C 0.16333 0.71207 0.05727 0.0
H531 H 0.20738 0.85 0.14801 0.0
H532 H 0.22126 0.84071 0.1212 0.0
H533 H 0.21311 0.76718 0.14058 0.0
H534 H 0.19962 0.77678 0.16755 0.0
H535 H 0.26075 0.83443 0.10908 0.0
H536 H 0.18795 0.75734 0.11176 0.0
H537 H 0.23607 0.78049 0.06716 0.0
H538 H 0.19228 0.75419 0.05621 0.0
H539 H 0.18236 0.71605 0.10376 0.0
H540 H 0.14705 0.67358 0.09192 0.0
H541 H 0.27311 0.86488 0.08837 0.0
H542 H 0.28286 0.80373 0.06303 0.0
H543 H 0.15798 0.71112 0.04429 0.0
H544 H 0.31196 0.89928 0.07366 0.0
H545 H 0.31998 0.83829 0.0468 0.0
C546 C 0.22581 0.41057 0.15429 0.0
C547 C 0.19869 0.39073 0.15812 0.0
C548 C 0.23261 0.42136 0.13831 0.0
C549 C 0.21245 0.41269 0.12579 0.0
C550 C 0.18549 0.39268 0.12957 0.0
C551 C 0.17874 0.38179 0.14545 0.0
C552 C 0.21928 0.42419 0.10878 0.0
C553 C 0.24369 0.42895 0.101 0.0
C554 C 0.24956 0.43868 0.08472 0.0
C555 C 0.23084 0.44377 0.07621 0.0
C556 C 0.20676 0.44016 0.0839 0.0
C557 C 0.20116 0.43018 0.10019 0.0
C558 C 0.18813 0.4477 0.07509 0.0
C559 C 0.19899 0.4699 0.06437 0.0
C560 C 0.15947 0.43318 0.07744 0.0
C561 C 0.14231 0.44091 0.06953 0.0
C562 C 0.15326 0.46322 0.05887 0.0
C563 C 0.27587 0.44485 0.07674 0.0
C564 C 0.30091 0.46095 0.08501 0.0
C565 C 0.27628 0.43625 0.06045 0.0
C566 C 0.30128 0.44415 0.05247 0.0
C567 C 0.32629 0.4612 0.06052 0.0
C568 C 0.32584 0.46918 0.07695 0.0
C569 C 0.18183 0.47735 0.05627 0.0
H570 H 0.24171 0.41818 0.1637 0.0
H571 H 0.25357 0.43688 0.13585 0.0
H572 H 0.16957 0.3851 0.12015 0.0
H573 H 0.15782 0.36604 0.1477 0.0
H574 H 0.25787 0.42451 0.10745 0.0
H575 H 0.18304 0.42779 0.10644 0.0
H576 H 0.23542 0.4511 0.06362 0.0
H577 H 0.22091 0.48198 0.06239 0.0
H578 H 0.15019 0.41576 0.08541 0.0
H579 H 0.1205 0.42967 0.07207 0.0
H580 H 0.30121 0.468 0.09751 0.0
H581 H 0.25725 0.42369 0.05384 0.0
H582 H 0.19113 0.49435 0.04798 0.0
H583 H 0.34485 0.48211 0.0835 0.0
H584 H 0.30107 0.43772 0.03981 0.0
C585 C 0.47786 0.92102 0.20337 0.0
C586 C 0.46821 0.93854 0.19899 0.0
C587 C 0.47183 0.90858 0.2189 0.0
C588 C 0.45618 0.91347 0.23055 0.0
C589 C 0.44607 0.93054 0.22597 0.0
C590 C 0.45177 0.94265 0.21041 0.0
C591 C 0.45109 0.9017 0.24758 0.0
C592 C 0.47135 0.89852 0.2559 0.0
C593 C 0.46744 0.88933 0.27232 0.0
C594 C 0.44298 0.88324 0.28051 0.0
C595 C 0.42217 0.88569 0.27241 0.0
C596 C 0.42638 0.89471 0.25591 0.0
C597 C 0.39625 0.87928 0.28125 0.0
C598 C 0.38362 0.85729 0.29208 0.0
C599 C 0.38401 0.89525 0.27902 0.0
C600 C 0.35988 0.88941 0.2874 0.0
C601 C 0.34731 0.86751 0.29832 0.0
C602 C 0.48933 0.88691 0.28115 0.0
C603 C 0.50006 0.87151 0.27442 0.0
C604 C 0.49968 0.90012 0.29638 0.0
C605 C 0.52074 0.8984 0.30456 0.0
C606 C 0.53143 0.88293 0.29786 0.0
C607 C 0.5207 0.86928 0.28279 0.0
C608 C 0.35951 0.8515 0.30051 0.0
H609 H 0.49073 0.91745 0.19499 0.0
H610 H 0.47963 0.89524 0.2218 0.0
H611 H 0.43427 0.93522 0.23456 0.0
H612 H 0.44345 0.95553 0.20743 0.0
H613 H 0.49073 0.90422 0.24991 0.0
H614 H 0.41016 0.89599 0.24947 0.0
H615 H 0.4403 0.87673 0.29328 0.0
H616 H 0.39223 0.84434 0.29397 0.0
H617 H 0.39325 0.91252 0.27093 0.0
H618 H 0.35092 0.90197 0.28514 0.0
H619 H 0.49236 0.86106 0.26272 0.0
H620 H 0.49184 0.91221 0.3018 0.0
H621 H 0.35061 0.8346 0.30889 0.0
H622 H 0.52876 0.85741 0.2773 0.0
H623 H 0.52867 0.90913 0.31614 0.0
C624 C 0.04046 0.50404 0.20814 0.0
C625 C 0.04756 0.52577 0.19752 0.0
C626 C 0.05172 0.5084 0.22405 0.0
C627 C 0.07071 0.53456 0.22955 0.0
C628 C 0.07844 0.55615 0.2186 0.0
C629 C 0.06677 0.55182 0.20282 0.0
C630 C 0.08194 0.53936 0.24673 0.0
C631 C 0.08717 0.52052 0.25449 0.0
C632 C 0.09704 0.52449 0.27085 0.0
C633 C 0.10241 0.548 0.27931 0.0
C634 C 0.09808 0.56743 0.27166 0.0
C635 C 0.08741 0.56275 0.25548 0.0
C636 C 0.10571 0.59302 0.28039 0.0
C637 C 0.10029 0.59326 0.29736 0.0
C638 C 0.11961 0.61757 0.27192 0.0
C639 C 0.1281 0.6418 0.28027 0.0
C640 C 0.12298 0.64204 0.29727 0.0
C641 C 0.10229 0.50434 0.27895 0.0
C642 C 0.08448 0.47671 0.27623 0.0
C643 C 0.12533 0.51257 0.28931 0.0
C644 C 0.13064 0.49364 0.29657 0.0
C645 C 0.11326 0.46615 0.29342 0.0
C646 C 0.09001 0.45782 0.28331 0.0
C647 C 0.10894 0.61753 0.30573 0.0
H648 H 0.02546 0.48378 0.20435 0.0
H649 H 0.0449 0.49129 0.23216 0.0
H650 H 0.09351 0.57648 0.22219 0.0
H651 H 0.07274 0.56884 0.19474 0.0
H652 H 0.0842 0.50301 0.24765 0.0
H653 H 0.08297 0.57724 0.24985 0.0
H654 H 0.11034 0.55138 0.29186 0.0
H655 H 0.08927 0.57465 0.30418 0.0
H656 H 0.12451 0.6181 0.25891 0.0
H657 H 0.13913 0.66043 0.27347 0.0
H658 H 0.06626 0.46964 0.26859 0.0
H659 H 0.13974 0.53367 0.29146 0.0
H660 H 0.10435 0.61713 0.31879 0.0
H661 H 0.07619 0.43667 0.28083 0.0
H662 H 0.14889 0.50053 0.30416 0.0
C663 C 0.452 0.51076 0.201 0.0
C664 C 0.47966 0.51942 0.19731 0.0
C665 C 0.44484 0.51696 0.21636 0.0
C666 C 0.46519 0.53176 0.22834 0.0
C667 C 0.49276 0.54045 0.22447 0.0
C668 C 0.4999 0.5348 0.20914 0.0
C669 C 0.45827 0.53775 0.24506 0.0
C670 C 0.43424 0.51918 0.25333 0.0
C671 C 0.42977 0.52384 0.26981 0.0
C672 C 0.44973 0.54684 0.27818 0.0
C673 C 0.47347 0.56608 0.27 0.0
C674 C 0.47694 0.56167 0.25329 0.0
C675 C 0.49485 0.59059 0.27882 0.0
C676 C 0.48766 0.60296 0.29136 0.0
C677 C 0.5228 0.60196 0.27467 0.0
C678 C 0.5428 0.62547 0.2824 0.0
C679 C 0.53562 0.63796 0.29488 0.0
C680 C 0.40395 0.50515 0.27831 0.0
C681 C 0.37861 0.49919 0.27135 0.0
C682 C 0.40454 0.49489 0.29397 0.0
C683 C 0.38018 0.47937 0.3027 0.0
C684 C 0.35498 0.47438 0.29602 0.0
C685 C 0.35434 0.4841 0.2802 0.0
C686 C 0.50777 0.62606 0.29942 0.0
H687 H 0.43584 0.49875 0.19221 0.0
H688 H 0.42341 0.51013 0.2188 0.0
H689 H 0.50907 0.5513 0.23341 0.0
H690 H 0.52147 0.54242 0.20665 0.0
H691 H 0.41938 0.50069 0.24725 0.0
H692 H 0.49442 0.57696 0.2466 0.0
H693 H 0.4465 0.54972 0.29107 0.0
H694 H 0.46642 0.59511 0.29485 0.0
H695 H 0.52942 0.59276 0.26541 0.0
H696 H 0.56384 0.63401 0.27831 0.0
H697 H 0.37771 0.50702 0.25933 0.0
H698 H 0.42389 0.4992 0.29953 0.0
H699 H 0.50131 0.63455 0.30922 0.0
H700 H 0.33505 0.48019 0.27473 0.0
H701 H 0.38111 0.47198 0.31486 0.0
Gd702 Gd 0.5175 0.0163 0.03179 0.0
Gd703 Gd 0.49466 0.98298 0.99074 0.0
C704 C 0.41156 0.90661 0.98398 0.0
C705 C 0.42497 0.87354 0.97717 0.0
C706 C 0.45976 0.92018 0.98212 0.0
C707 C 0.43952 0.92655 0.98516 0.0
C708 C 0.45275 0.89374 0.97769 0.0
C709 C 0.4044 0.87996 0.98035 0.0
C710 C 0.39166 0.91422 0.98599 0.0
C711 C 0.39989 0.94128 0.98842 0.0
N712 N 0.44718 0.95255 0.98839 0.0
C713 C 0.42789 0.96033 0.98934 0.0
H714 H 0.4339 0.98113 0.99129 0.0
C715 C 0.50691 0.93563 0.97765 0.0
N716 N 0.48635 0.94021 0.98259 0.0
C717 C 0.50102 0.90971 0.97326 0.0
C718 C 0.47384 0.88859 0.97347 0.0
H719 H 0.52796 0.95189 0.97751 0.0
H720 H 0.38302 0.86432 0.97952 0.0
H721 H 0.57819 0.01752 0.03181 0.0
H722 H 0.36995 0.89951 0.98524 0.0
H723 H 0.38469 0.94748 0.98966 0.0
H724 H 0.41915 0.85305 0.97395 0.0
H725 H 0.48469 0.04824 0.04421 0.0
H726 H 0.6425 0.09898 0.03742 0.0
H727 H 0.62736 0.05085 0.03335 0.0
H728 H 0.59401 0.14647 0.04764 0.0
H729 H 0.51741 0.90605 0.96969 0.0
H730 H 0.4693 0.86855 0.96998 0.0
H731 H 0.62985 0.13459 0.04262 0.0
H732 H 0.4956 0.09445 0.05132 0.0
N733 N 0.5651 0.04633 0.03447 0.0
C734 C 0.62076 0.08438 0.03673 0.0
C735 C 0.6123 0.05724 0.03449 0.0
C736 C 0.60103 0.09225 0.03858 0.0
C737 C 0.57301 0.07245 0.03748 0.0
C738 C 0.58424 0.03834 0.03362 0.0
N739 N 0.52631 0.0593 0.03978 0.0
C740 C 0.55295 0.07915 0.04027 0.0
C741 C 0.51193 0.09045 0.04818 0.0
C742 C 0.53921 0.11136 0.04802 0.0
C743 C 0.50583 0.06431 0.04422 0.0
C744 C 0.56018 0.1058 0.04426 0.0
H745 H 0.5439 0.13158 0.05114 0.0
O746 O 0.49532 0.00631 0.05508 0.0
O747 O 0.48469 0.98278 0.01725 0.0
O748 O 0.48184 0.01439 0.99559 0.0
O749 O 0.51313 0.04478 0.01487 0.0
O750 O 0.47199 0.00131 0.03402 0.0
O751 O 0.5307 0.00113 0.05234 0.0
O752 O 0.51794 0.99606 0.96793 0.0
O753 O 0.52737 0.01636 1.00529 0.0
O754 O 0.53105 0.98569 0.0269 0.0
O755 O 0.50077 0.95489 1.00731 0.0
O756 O 0.5402 0.99829 0.98826 0.0
O757 O 0.47888 0.99465 0.96959 0.0
C758 C 0.46372 0.98193 0.02344 0.0
C759 C 0.58803 0.12582 0.04474 0.0
C760 C 0.60843 0.11906 0.04188 0.0
C761 C 0.5119 -0.00013 0.06235 0.0
C762 C 0.52106 0.01087 0.07911 0.0
C763 C 0.54116 0.03789 0.08134 0.0
C764 C 0.50939 0.99431 0.09301 0.0
C765 C 0.51788 0.00469 0.10917 0.0
C766 C 0.54973 0.04829 0.09724 0.0
C767 C 0.53833 0.03189 0.11104 0.0
C768 C 0.49471 0.03833 1.00295 0.0
C769 C 0.54841 0.01746 0.99901 0.0
C770 C 0.49953 0.99926 0.96011 0.0
C771 C 0.49313 0.98835 0.94315 0.0
C772 C 0.4812 0.96064 0.94035 0.0
C773 C 0.50057 0.00589 0.92956 0.0
C774 C 0.49671 0.99577 0.91325 0.0
C775 C 0.47721 0.95053 0.92422 0.0
C776 C 0.48508 0.96794 0.91076 0.0
C777 C 0.51934 0.96207 0.01924 0.0
H778 H 0.55027 0.05089 0.07079 0.0
H779 H 0.49353 0.97354 0.09121 0.0
H780 H 0.56539 0.06915 0.09889 0.0
H781 H 0.54589 0.0405 0.12319 0.0
H782 H 0.47529 0.94685 0.9506 0.0
H783 H 0.50996 0.02736 0.93166 0.0
H784 H 0.46814 0.92913 0.92215 0.0
H785 H 0.48178 0.95964 0.89835 0.0
Gd786 Gd 0.98909 0.49438 0.03229 0.0
Gd787 Gd 0.02309 0.50366 0.99237 0.0
C788 C 0.09539 0.48886 0.99071 0.0
C789 C 0.13356 0.53354 0.98518 0.0
C790 C 0.08712 0.5262 0.98738 0.0
C791 C 0.0772 0.49911 0.99059 0.0
C792 C 0.11527 0.5434 0.98405 0.0
C793 C 0.12365 0.50635 0.98854 0.0
C794 C 0.08455 0.46116 0.99234 0.0
C795 C 0.05617 0.44426 0.99313 0.0
N796 N 0.04967 0.48249 0.99249 0.0
C797 C 0.03891 0.45526 0.99305 0.0
H798 H 0.01715 0.44168 0.99388 0.0
C799 C 0.07727 0.56052 0.98044 0.0
N800 N 0.06903 0.5353 0.98632 0.0
C801 C 0.10491 0.57817 0.97689 0.0
C802 C 0.12409 0.56976 0.97901 0.0
H803 H 0.06282 0.5676 0.9795 0.0
H804 H 0.13791 0.49886 0.98884 0.0
H805 H 0.99956 0.55909 0.03496 0.0
H806 H 0.09785 0.45255 0.99249 0.0
H807 H 0.04755 0.42273 0.99399 0.0
H808 H 0.1553 0.54657 0.9829 0.0
H809 H 0.94191 0.43136 0.04482 0.0
H810 H 0.92257 0.55472 0.02788 0.0
H811 H 0.97279 0.5813 0.03195 0.0
H812 H 0.85777 0.46086 0.02996 0.0
H813 H 0.11145 0.59838 0.97277 0.0
H814 H 0.14552 0.58352 0.97631 0.0
H815 H 0.87996 0.50978 0.02666 0.0
H816 H 0.89169 0.40246 0.04532 0.0
N817 N 0.96544 0.5191 0.03188 0.0
C818 C 0.9343 0.54454 0.02915 0.0
C819 C 0.96261 0.55958 0.03145 0.0
C820 C 0.92134 0.51652 0.02918 0.0
C821 C 0.93757 0.50418 0.03079 0.0
C822 C 0.97787 0.54657 0.03302 0.0
N823 N 0.941 0.46541 0.03508 0.0
C824 C 0.92503 0.47653 0.03231 0.0
C825 C 0.90073 0.42313 0.04137 0.0
C826 C 0.88402 0.43353 0.03677 0.0
C827 C 0.92925 0.43963 0.04097 0.0
C828 C 0.89605 0.46073 0.03272 0.0
H829 H 0.86189 0.42078 0.03723 0.0
O830 O 0.98614 0.47068 0.0539 0.0
O831 O 0.0169 0.48473 0.01714 0.0
O832 O 0.98894 0.46067 0.99323 0.0
O833 O 0.9679 0.45376 0.01904 0.0
O834 O 0.03 0.50068 0.0406 0.0
O835 O 0.99442 0.51187 0.05661 0.0
O836 O 0.99435 0.49631 0.97221 0.0
O837 O 0.98929 0.50435 1.00583 0.0
O838 O 0.02351 0.53753 0.03063 0.0
O839 O 0.05115 0.5396 0.0085 0.0
O840 O 0.01282 0.53696 0.99088 0.0
O841 O 0.0327 0.49832 0.96702 0.0
C842 C 0.036 0.49176 0.02768 0.0
C843 C 0.88 0.47277 0.02999 0.0
C844 C 0.89263 0.50063 0.02818 0.0
C845 C 0.99054 0.49016 0.06409 0.0
C846 C 0.97444 0.48328 0.07927 0.0
C847 C 0.94691 0.477 0.07926 0.0
C848 C 0.98797 0.48568 0.09428 0.0
C849 C 0.97436 0.48246 0.10934 0.0
C850 C 0.93304 0.47309 0.09423 0.0
C851 C 0.94674 0.47605 0.10923 0.0
C852 C 0.96983 0.44549 1.004 0.0
C853 C 0.99102 0.52549 0.99998 0.0
C854 C 0.01072 0.49684 0.96079 0.0
C855 C 0.01483 0.5144 0.94669 0.0
C856 C 0.02517 0.54202 0.94908 0.0
C857 C 0.00853 0.50358 0.93065 0.0
C858 C 0.01346 0.52051 0.91707 0.0
C859 C 0.0305 0.55891 0.93557 0.0
C860 C 0.02488 0.54826 0.91958 0.0
C861 C 0.04651 0.54991 0.02198 0.0
H862 H 0.93639 0.47576 0.0678 0.0
H863 H 0.00951 0.4913 0.09428 0.0
H864 H 0.91181 0.46832 0.09422 0.0
H865 H 0.93587 0.47351 0.12075 0.0
H866 H 0.02889 0.55052 0.96134 0.0
H867 H 0.99989 0.48215 0.92873 0.0
H868 H 0.03871 0.58023 0.93751 0.0
H869 H 0.02868 0.56153 0.90919 0.0
Gd870 Gd 0.49425 0.50545 0.98932 0.0
Gd871 Gd 0.52088 0.49923 0.02905 0.0
C872 C 0.5968 0.4904 0.03223 0.0
C873 C 0.57692 0.44263 0.03747 0.0
C874 C 0.54741 0.4621 0.03483 0.0
C875 C 0.57022 0.48719 0.03199 0.0
C876 C 0.55062 0.43977 0.03814 0.0
C877 C 0.59995 0.46787 0.03447 0.0
C878 C 0.61949 0.51631 0.03084 0.0
C879 C 0.61543 0.53833 0.03007 0.0
N880 N 0.56661 0.50873 0.03019 0.0
C881 C 0.5887 0.53418 0.03001 0.0
H882 H 0.58597 0.55144 0.02951 0.0
C883 C 0.49993 0.43697 0.0412 0.0
N884 N 0.52218 0.45991 0.0354 0.0
C885 C 0.50211 0.41425 0.0445 0.0
C886 C 0.52745 0.41551 0.04266 0.0
H887 H 0.48029 0.43602 0.04246 0.0
H888 H 0.62019 0.46993 0.03449 0.0
H889 H 0.43577 0.44474 0.98261 0.0
H890 H 0.64024 0.51961 0.03091 0.0
H891 H 0.63286 0.55851 0.02947 0.0
H892 H 0.57977 0.42562 0.03977 0.0
H893 H 0.52004 0.571 0.97848 0.0
H894 H 0.36731 0.45657 0.98881 0.0
H895 H 0.38618 0.42643 0.98407 0.0
H896 H 0.40792 0.55207 0.98976 0.0
H897 H 0.48428 0.39581 0.04846 0.0
H898 H 0.5291 0.3979 0.04531 0.0
H899 H 0.37571 0.50349 0.99149 0.0
H900 H 0.50403 0.60397 0.97758 0.0
N901 N 0.44595 0.48529 0.98772 0.0
C902 C 0.38937 0.46487 0.98837 0.0
C903 C 0.39993 0.4478 0.9857 0.0
C904 C 0.40735 0.49258 0.98956 0.0
C905 C 0.43593 0.5024 0.98891 0.0
C906 C 0.42836 0.4584 0.98516 0.0
N907 N 0.48132 0.53863 0.98622 0.0
C908 C 0.45413 0.52986 0.98815 0.0
C909 C 0.48985 0.58326 0.98076 0.0
C910 C 0.46256 0.57511 0.98451 0.0
C911 C 0.49877 0.56453 0.98117 0.0
C912 C 0.44413 0.548 0.98774 0.0
H913 H 0.45565 0.58965 0.9841 0.0
O914 O 0.51851 0.52684 0.96798 0.0
O915 O 0.5326 0.51654 1.00402 0.0
O916 O 0.54096 0.54313 0.02276 0.0
O917 O 0.50711 0.54242 1.00613 0.0
O918 O 0.52857 0.49845 0.98129 0.0
O919 O 0.48093 0.48824 0.96472 0.0
O920 O 0.49833 0.48755 0.05202 0.0
O921 O 0.48236 0.48747 0.01416 0.0
O922 O 0.4791 0.46135 0.99366 0.0
O923 O 0.51019 0.46249 0.01312 0.0
O924 O 0.48611 0.50562 0.03674 0.0
O925 O 0.54066 0.52061 0.0518 0.0
C926 C 0.54424 0.50881 0.9939 0.0
C927 C 0.4159 0.53837 0.9897 0.0
C928 C 0.39755 0.5107 0.99065 0.0
C929 C 0.50207 0.50821 0.95756 0.0
C930 C 0.49772 0.51712 0.94143 0.0
C931 C 0.48766 0.53493 0.94015 0.0
C932 C 0.5053 0.5086 0.92707 0.0
C933 C 0.50394 0.51854 0.91137 0.0
C934 C 0.48624 0.54499 0.92473 0.0
C935 C 0.49462 0.5372 0.91049 0.0
C936 C 0.52783 0.5549 0.01672 0.0
C937 C 0.47046 0.49507 0.02417 0.0
C938 C 0.51904 0.50538 0.06077 0.0
C939 C 0.52337 0.49564 0.07657 0.0
C940 C 0.53566 0.47967 0.07723 0.0
C941 C 0.5129 0.50068 0.09105 0.0
C942 C 0.514 0.48923 0.10621 0.0
C943 C 0.53663 0.468 0.09211 0.0
C944 C 0.52562 0.47242 0.10645 0.0
C945 C 0.49165 0.45021 1.00135 0.0
H946 H 0.48119 0.54126 0.95102 0.0
H947 H 0.51228 0.49419 0.92825 0.0
H948 H 0.47893 0.55915 0.92382 0.0
H949 H 0.49407 0.54618 0.89886 0.0
H950 H 0.54417 0.47591 0.06628 0.0
H951 H 0.504 0.51358 0.09041 0.0
H952 H 0.5457 0.45525 0.0925 0.0
H953 H 0.52609 0.46246 0.11768 0.0
Gd954 Gd 0.18342 0.34701 0.36627 0.0
Gd955 Gd 0.16666 0.32093 0.3239 0.0
C956 C 0.07561 0.25533 0.32225 0.0
C957 C 0.07822 0.21457 0.32424 0.0
C958 C 0.12008 0.25823 0.32289 0.0
C959 C 0.10463 0.27078 0.32227 0.0
C960 C 0.10696 0.22987 0.32318 0.0
C961 C 0.06256 0.2273 0.3238 0.0
C962 C 0.06051 0.26839 0.3202 0.0
C963 C 0.07431 0.29593 0.31732 0.0
N964 N 0.11789 0.29796 0.32082 0.0
C965 C 0.10302 0.31034 0.31731 0.0
H966 H 0.11274 0.33128 0.31424 0.0
C967 C 0.16305 0.26148 0.31849 0.0
N968 N 0.14779 0.27357 0.32178 0.0
C969 C 0.15107 0.23354 0.31883 0.0
C970 C 0.12298 0.21765 0.32164 0.0
H971 H 0.1847 0.27321 0.31571 0.0
H972 H 0.04035 0.21521 0.3241 0.0
H973 H 0.23795 0.33677 0.36688 0.0
H974 H 0.03824 0.25727 0.32016 0.0
H975 H 0.06283 0.30611 0.31496 0.0
H976 H 0.06786 0.19284 0.32477 0.0
H977 H 0.16208 0.38739 0.38272 0.0
H978 H 0.31099 0.41343 0.36854 0.0
H979 H 0.28819 0.36388 0.36714 0.0
H980 H 0.27767 0.47429 0.37784 0.0
H981 H 0.16352 0.22428 0.31678 0.0
H982 H 0.11369 0.19597 0.32178 0.0
H983 H 0.30681 0.45461 0.37192 0.0
H984 H 0.18161 0.43562 0.38935 0.0
N985 N 0.23172 0.37043 0.36725 0.0
C986 C 0.28876 0.40159 0.36833 0.0
C987 C 0.27597 0.37363 0.36756 0.0
C988 C 0.27272 0.41386 0.36965 0.0
C989 C 0.24383 0.39751 0.36937 0.0
C990 C 0.24728 0.35826 0.36723 0.0
N991 N 0.19979 0.39212 0.37375 0.0
C992 C 0.22737 0.40869 0.37258 0.0
C993 C 0.19467 0.42838 0.38447 0.0
C994 C 0.22256 0.44621 0.38182 0.0
C995 C 0.18371 0.40112 0.38078 0.0
C996 C 0.23945 0.43634 0.3763 0.0
H997 H 0.23107 0.46731 0.38482 0.0
O998 O 0.162 0.31667 0.38519 0.0
O999 O 0.15199 0.31556 0.34996 0.0
O1000 O 0.15437 0.35227 0.32723 0.0
O1001 O 0.17012 0.37348 0.35292 0.0
O1002 O 0.13903 0.33582 0.36576 0.0
O1003 O 0.19526 0.35511 0.3923 0.0
O1004 O 0.18874 0.31637 0.30309 0.0
O1005 O 0.201 0.34732 0.34149 0.0
O1006 O 0.18856 0.31091 0.36368 0.0
O1007 O 0.19422 0.30707 0.33551 0.0
O1008 O 0.19776 0.364 0.31954 0.0
O1009 O 0.16176 0.33261 0.29929 0.0
C1010 C 0.13107 0.31616 0.35523 0.0
C1011 C 0.26808 0.45294 0.37531 0.0
C1012 C 0.28468 0.44172 0.37197 0.0
C1013 C 0.1758 0.33211 0.39746 0.0
C1014 C 0.15965 0.33285 0.41155 0.0
C1015 C 0.14071 0.34171 0.40931 0.0
C1016 C 0.16344 0.32515 0.42742 0.0
C1017 C 0.1489 0.32711 0.44103 0.0
C1018 C 0.12622 0.34356 0.42277 0.0
C1019 C 0.1304 0.3365 0.43856 0.0
C1020 C 0.15874 0.37118 0.33817 0.0
C1021 C 0.21224 0.36824 0.33268 0.0
C1022 C 0.17851 0.32603 0.29244 0.0
C1023 C 0.17025 0.31326 0.27606 0.0
C1024 C 0.15021 0.28609 0.27434 0.0
C1025 C 0.18115 0.32925 0.26186 0.0
C1026 C 0.17169 0.31825 0.24602 0.0
C1027 C 0.14103 0.27503 0.25858 0.0
C1028 C 0.15152 0.29104 0.24449 0.0
C1029 C 0.19408 0.29985 0.35104 0.0
H1030 H 0.13713 0.34724 0.39719 0.0
H1031 H 0.17796 0.31817 0.42923 0.0
H1032 H 0.11176 0.35057 0.42097 0.0
H1033 H 0.11898 0.33811 0.44886 0.0
H1034 H 0.1414 0.27362 0.28515 0.0
H1035 H 0.19637 0.35038 0.26315 0.0
H1036 H 0.1255 0.25407 0.25727 0.0
H1037 H 0.14397 0.28218 0.23238 0.0
Gd1038 Gd 0.64553 0.82683 0.36589 0.0
Gd1039 Gd 0.68611 0.83971 0.328 0.0
C1040 C 0.76943 0.84389 0.32914 0.0
C1041 C 0.80096 0.89108 0.32354 0.0
C1042 C 0.75175 0.87411 0.3247 0.0
C1043 C 0.74721 0.84872 0.3282 0.0
C1044 C 0.7786 0.89542 0.32179 0.0
C1045 C 0.79638 0.86536 0.32725 0.0
C1046 C 0.76385 0.81751 0.33143 0.0
C1047 C 0.73662 0.79665 0.33214 0.0
N1048 N 0.72091 0.82841 0.32969 0.0
C1049 C 0.71529 0.80245 0.33104 0.0
H1050 H 0.69439 0.7861 0.33168 0.0
C1051 C 0.73277 0.90101 0.31681 0.0
N1052 N 0.72965 0.87749 0.32298 0.0
C1053 C 0.759 0.92275 0.31376 0.0
C1054 C 0.78207 0.92011 0.31656 0.0
H1055 H 0.71505 0.90318 0.31454 0.0
H1056 H 0.81374 0.86211 0.32812 0.0
H1057 H 0.66099 0.89465 0.3688 0.0
H1058 H 0.78034 0.81297 0.33229 0.0
H1059 H 0.73204 0.77611 0.33363 0.0
H1060 H 0.82178 0.90728 0.32156 0.0
H1061 H 0.595 0.76225 0.37052 0.0
H1062 H 0.58597 0.89455 0.36573 0.0
H1063 H 0.63641 0.91866 0.3679 0.0
H1064 H 0.51709 0.80214 0.36509 0.0
H1065 H 0.76141 0.94153 0.30928 0.0
H1066 H 0.80236 0.93697 0.31417 0.0
H1067 H 0.54199 0.85138 0.36443 0.0
H1068 H 0.54467 0.73632 0.37086 0.0
N1069 N 0.62529 0.85495 0.3671 0.0
C1070 C 0.59668 0.88327 0.36621 0.0
C1071 C 0.62511 0.89692 0.36745 0.0
C1072 C 0.58233 0.85526 0.36583 0.0
C1073 C 0.59721 0.84136 0.36638 0.0
C1074 C 0.63911 0.88259 0.36796 0.0
N1075 N 0.59724 0.80014 0.3669 0.0
C1076 C 0.58295 0.81338 0.36634 0.0
C1077 C 0.5551 0.75793 0.36946 0.0
C1078 C 0.54007 0.771 0.36763 0.0
C1079 C 0.58374 0.77286 0.36937 0.0
C1080 C 0.55387 0.799 0.36631 0.0
H1081 H 0.51782 0.75936 0.36767 0.0
O1082 O 0.64032 0.79408 0.38159 0.0
O1083 O 0.67663 0.81986 0.35263 0.0
O1084 O 0.65671 0.7948 0.33074 0.0
O1085 O 0.62249 0.79406 0.34692 0.0
O1086 O 0.68622 0.83539 0.37651 0.0
O1087 O 0.64007 0.82957 0.39229 0.0
O1088 O 0.67154 0.8451 0.30409 0.0
O1089 O 0.64842 0.8358 0.33944 0.0
O1090 O 0.68038 0.86938 0.36697 0.0
O1091 O 0.71108 0.87509 0.34558 0.0
O1092 O 0.66926 0.8679 0.32396 0.0
O1093 O 0.68544 0.81665 0.30638 0.0
C1094 C 0.69435 0.82707 0.36414 0.0
C1095 C 0.53935 0.8129 0.36533 0.0
C1096 C 0.55354 0.84092 0.36502 0.0
C1097 C 0.63862 0.80638 0.3948 0.0
C1098 C 0.63463 0.79463 0.41132 0.0
C1099 C 0.61986 0.76663 0.4131 0.0
C1100 C 0.64751 0.81113 0.42517 0.0
C1101 C 0.64635 0.79956 0.44063 0.0
C1102 C 0.61805 0.75513 0.42854 0.0
C1103 C 0.63137 0.77144 0.44222 0.0
C1104 C 0.63109 0.78276 0.33607 0.0
C1105 C 0.64783 0.85547 0.33315 0.0
C1106 C 0.67699 0.82855 0.29631 0.0
C1107 C 0.69234 0.83845 0.28077 0.0
C1108 C 0.72049 0.85731 0.28114 0.0
C1109 C 0.67884 0.82921 0.26545 0.0
C1110 C 0.69349 0.83896 0.25053 0.0
C1111 C 0.73493 0.86753 0.26649 0.0
C1112 C 0.72156 0.8586 0.2513 0.0
C1113 C 0.70403 0.88355 0.35907 0.0
H1114 H 0.60995 0.75364 0.40253 0.0
H1115 H 0.65955 0.83277 0.42375 0.0
H1116 H 0.60666 0.7335 0.42987 0.0
H1117 H 0.63007 0.7621 0.45406 0.0
H1118 H 0.7314 0.86413 0.29271 0.0
H1119 H 0.6572 0.81417 0.26518 0.0
H1120 H 0.75659 0.88238 0.26692 0.0
H1121 H 0.7333 0.86714 0.24012 0.0
Gd1122 Gd 0.15872 0.84353 0.32721 0.0
Gd1123 Gd 0.1808 0.82416 0.36515 0.0
C1124 C 0.2643 0.82898 0.36856 0.0
C1125 C 0.25125 0.782 0.37137 0.0
C1126 C 0.21619 0.79483 0.3692 0.0
C1127 C 0.23627 0.82147 0.36785 0.0
C1128 C 0.22342 0.77485 0.37156 0.0
C1129 C 0.27167 0.80903 0.36981 0.0
C1130 C 0.28401 0.85634 0.36871 0.0
C1131 C 0.27551 0.87537 0.369 0.0
N1132 N 0.22837 0.84019 0.36711 0.0
C1133 C 0.24746 0.86687 0.3685 0.0
H1134 H 0.24129 0.88185 0.36872 0.0
C1135 C 0.16926 0.76346 0.37364 0.0
N1136 N 0.18958 0.78874 0.36956 0.0
C1137 C 0.17539 0.74294 0.37613 0.0
C1138 C 0.20253 0.74854 0.37476 0.0
H1139 H 0.14823 0.75899 0.37463 0.0
H1140 H 0.29309 0.81439 0.3702 0.0
H1141 H 0.09884 0.78536 0.32294 0.0
H1142 H 0.30576 0.86296 0.36919 0.0
H1143 H 0.29054 0.89659 0.36957 0.0
H1144 H 0.25723 0.76691 0.37296 0.0
H1145 H 0.19129 0.90972 0.32034 0.0
H1146 H 0.03375 0.80331 0.32099 0.0
H1147 H 0.04954 0.77012 0.32107 0.0
H1148 H 0.08129 0.89955 0.31911 0.0
H1149 H 0.15916 0.7228 0.37899 0.0
H1150 H 0.20722 0.73262 0.3767 0.0
H1151 H 0.0458 0.85172 0.32041 0.0
H1152 H 0.1799 0.94576 0.31704 0.0
N1153 N 0.11119 0.82693 0.32445 0.0
C1154 C 0.05551 0.81017 0.32184 0.0
C1155 C 0.06434 0.79139 0.32183 0.0
C1156 C 0.07495 0.8376 0.32234 0.0
C1157 C 0.10302 0.84544 0.32352 0.0
C1158 C 0.09243 0.80018 0.32289 0.0
N1159 N 0.14965 0.87882 0.32312 0.0
C1160 C 0.1229 0.87227 0.32279 0.0
C1161 C 0.16367 0.92518 0.31872 0.0
C1162 C 0.13624 0.91891 0.31907 0.0
C1163 C 0.17004 0.90473 0.32054 0.0
C1164 C 0.11542 0.89213 0.32089 0.0
H1165 H 0.13134 0.93478 0.31758 0.0
O1166 O 0.18272 0.85916 0.30487 0.0
O1167 O 0.19191 0.83967 0.33957 0.0
O1168 O 0.19377 0.86866 0.36448 0.0
O1169 O 0.16252 0.87249 0.34728 0.0
O1170 O 0.20383 0.87443 0.32632 0.0
O1171 O 0.14481 0.82089 0.30416 0.0
O1172 O 0.15723 0.80971 0.38777 0.0
O1173 O 0.1477 0.8279 0.35268 0.0
O1174 O 0.14649 0.79942 0.32732 0.0
O1175 O 0.17546 0.79371 0.34554 0.0
O1176 O 0.13547 0.79348 0.36623 0.0
O1177 O 0.19589 0.84708 0.38807 0.0
C1178 C 0.21255 0.86123 0.3348 0.0
C1179 C 0.08747 0.88457 0.32043 0.0
C1180 C 0.06727 0.85734 0.32118 0.0
C1181 C 0.16554 0.83896 0.29574 0.0
C1182 C 0.1596 0.84577 0.2794 0.0
C1183 C 0.14743 0.86176 0.27779 0.0
C1184 C 0.16786 0.83746 0.26524 0.0
C1185 C 0.16476 0.84568 0.24936 0.0
C1186 C 0.14404 0.86986 0.26214 0.0
C1187 C 0.15287 0.86218 0.24805 0.0
C1188 C 0.18146 0.88176 0.35905 0.0
C1189 C 0.12691 0.8065 0.35743 0.0
C1190 C 0.17547 0.8293 0.39683 0.0
C1191 C 0.18246 0.82134 0.41252 0.0
C1192 C 0.19431 0.80492 0.41252 0.0
C1193 C 0.17636 0.82937 0.42763 0.0
C1194 C 0.18188 0.82079 0.44274 0.0
C1195 C 0.19935 0.79595 0.42738 0.0
C1196 C 0.19303 0.80361 0.44237 0.0
C1197 C 0.1584 0.78594 0.3327 0.0
H1198 H 0.14098 0.86831 0.28861 0.0
H1199 H 0.1768 0.8247 0.26671 0.0
H1200 H 0.13496 0.88252 0.26093 0.0
H1201 H 0.15078 0.86965 0.23619 0.0
H1202 H 0.19946 0.79881 0.40109 0.0
H1203 H 0.16766 0.84248 0.42757 0.0
H1204 H 0.20813 0.78293 0.42727 0.0
H1205 H 0.19681 0.79597 0.45371 0.0
Gd1206 Gd 0.8509 0.68481 0.69772 0.0
Gd1207 Gd 0.82795 0.65137 0.65664 0.0
C1208 C 0.7423 0.57891 0.64928 0.0
C1209 C 0.75231 0.54288 0.64455 0.0
C1210 C 0.7895 0.58868 0.64895 0.0
C1211 C 0.77068 0.59728 0.65086 0.0
C1212 C 0.7806 0.5615 0.64542 0.0
C1213 C 0.73319 0.55157 0.6465 0.0
C1214 C 0.72401 0.58872 0.65001 0.0
C1215 C 0.73425 0.61633 0.65161 0.0
N1216 N 0.7802 0.62385 0.65336 0.0
C1217 C 0.7626 0.63375 0.65305 0.0
H1218 H 0.77024 0.65502 0.65439 0.0
C1219 C 0.83605 0.60035 0.64604 0.0
N1220 N 0.81663 0.60722 0.64978 0.0
C1221 C 0.82824 0.5736 0.64256 0.0
C1222 C 0.8004 0.55401 0.64245 0.0
H1223 H 0.85759 0.61543 0.64623 0.0
H1224 H 0.71146 0.53711 0.6454 0.0
H1225 H 0.90997 0.68326 0.69685 0.0
H1226 H 0.70204 0.57528 0.64889 0.0
H1227 H 0.72034 0.6242 0.65183 0.0
H1228 H 0.74504 0.52184 0.642 0.0
H1229 H 0.82114 0.71767 0.71347 0.0
H1230 H 0.97695 0.76353 0.70246 0.0
H1231 H 0.9597 0.71504 0.69804 0.0
H1232 H 0.9322 0.81367 0.71558 0.0
H1233 H 0.84369 0.56809 0.63998 0.0
H1234 H 0.7944 0.53332 0.63969 0.0
H1235 H 0.96646 0.80037 0.70877 0.0
H1236 H 0.83422 0.76371 0.7225 0.0
N1237 N 0.89883 0.71341 0.6999 0.0
C1238 C 0.95501 0.74965 0.70189 0.0
C1239 C 0.94536 0.72229 0.69946 0.0
C1240 C 0.93621 0.75857 0.70423 0.0
C1241 C 0.90789 0.73966 0.70326 0.0
C1242 C 0.91706 0.7043 0.69879 0.0
N1243 N 0.86182 0.72798 0.70676 0.0
C1244 C 0.88873 0.7472 0.70688 0.0
C1245 C 0.84974 0.75939 0.718 0.0
C1246 C 0.87719 0.77983 0.71717 0.0
C1247 C 0.8424 0.73335 0.71287 0.0
C1248 C 0.89718 0.77376 0.71185 0.0
H1249 H 0.88284 0.79998 0.72116 0.0
O1250 O 0.82625 0.67053 0.72002 0.0
O1251 O 0.81711 0.65297 0.68278 0.0
O1252 O 0.81911 0.68566 0.65996 0.0
O1253 O 0.84624 0.71417 0.68158 0.0
O1254 O 0.80643 0.67376 0.69923 0.0
O1255 O 0.86539 0.67215 0.71901 0.0
O1256 O 0.85134 0.66034 0.6339 0.0
O1257 O 0.86111 0.68396 0.67134 0.0
O1258 O 0.86148 0.65188 0.69307 0.0
O1259 O 0.82871 0.62178 0.67443 0.0
O1260 O 0.87306 0.66419 0.65504 0.0
O1261 O 0.81537 0.66485 0.63488 0.0
C1262 C 0.79709 0.65465 0.68839 0.0
C1263 C 0.92529 0.79306 0.712 0.0
C1264 C 0.9448 0.78548 0.70814 0.0
C1265 C 0.84434 0.66727 0.72815 0.0
C1266 C 0.85014 0.6781 0.74514 0.0
C1267 C 0.86309 0.7059 0.74793 0.0
C1268 C 0.84151 0.66051 0.75872 0.0
C1269 C 0.84514 0.67074 0.77497 0.0
C1270 C 0.86665 0.71607 0.76401 0.0
C1271 C 0.85755 0.69862 0.77746 0.0
C1272 C 0.83058 0.70889 0.66819 0.0
C1273 C 0.8818 0.68397 0.66539 0.0
C1274 C 0.83508 0.66622 0.62568 0.0
C1275 C 0.8277 0.65507 0.6088 0.0
C1276 C 0.81486 0.62725 0.6061 0.0
C1277 C 0.83465 0.67247 0.59515 0.0
C1278 C 0.82918 0.66202 0.57892 0.0
C1279 C 0.8094 0.61689 0.59 0.0
C1280 C 0.81664 0.63415 0.57647 0.0
C1281 C 0.84703 0.62763 0.68633 0.0
H1282 H 0.87029 0.71976 0.73772 0.0
H1283 H 0.83155 0.63899 0.75667 0.0
H1284 H 0.87646 0.73754 0.76606 0.0
H1285 H 0.8606 0.70692 0.78987 0.0
H1286 H 0.80934 0.61358 0.61641 0.0
H1287 H 0.84459 0.69401 0.59713 0.0
H1288 H 0.79963 0.59541 0.58799 0.0
H1289 H 0.81229 0.62576 0.56406 0.0
Gd1290 Gd 0.31765 0.15964 0.69793 0.0
Gd1291 Gd 0.35425 0.17487 0.65851 0.0
C1292 C 0.40374 0.13133 0.65312 0.0
C1293 C 0.44839 0.16442 0.664 0.0
C1294 C 0.4117 0.17508 0.66146 0.0
C1295 C 0.39417 0.1496 0.65556 0.0
C1296 C 0.43941 0.18319 0.66505 0.0
C1297 C 0.43052 0.13846 0.65806 0.0
C1298 C 0.3866 0.10701 0.64502 0.0
C1299 C 0.36169 0.10247 0.63842 0.0
N1300 N 0.36853 0.14355 0.65082 0.0
C1301 C 0.35345 0.12151 0.6409 0.0
H1302 H 0.33458 0.11811 0.63514 0.0
C1303 C 0.42077 0.21946 0.66411 0.0
N1304 N 0.40231 0.19264 0.66228 0.0
C1305 C 0.44832 0.22855 0.66789 0.0
C1306 C 0.45753 0.21017 0.66889 0.0
H1307 H 0.41479 0.23423 0.66206 0.0
H1308 H 0.43801 0.12447 0.65663 0.0
H1309 H 0.32067 0.21922 0.69959 0.0
H1310 H 0.3931 0.09238 0.64297 0.0
H1311 H 0.34893 0.08443 0.63127 0.0
H1312 H 0.46939 0.17011 0.66709 0.0
H1313 H 0.28008 0.09425 0.70711 0.0
H1314 H 0.23867 0.20566 0.70189 0.0
H1315 H 0.28887 0.23697 0.70112 0.0
H1316 H 0.1837 0.1098 0.7059 0.0
H1317 H 0.46251 0.2498 0.66969 0.0
H1318 H 0.47895 0.21723 0.67167 0.0
H1319 H 0.19946 0.15804 0.70328 0.0
H1320 H 0.23112 0.06002 0.71097 0.0
N1321 N 0.28889 0.17826 0.69949 0.0
C1322 C 0.25257 0.19775 0.70133 0.0
C1323 C 0.28089 0.21549 0.70096 0.0
C1324 C 0.24257 0.17003 0.70148 0.0
C1325 C 0.26155 0.1608 0.70074 0.0
C1326 C 0.29887 0.20533 0.70011 0.0
N1327 N 0.27178 0.12589 0.70233 0.0
C1328 C 0.25268 0.13373 0.70219 0.0
C1329 C 0.23689 0.08064 0.70839 0.0
C1330 C 0.21678 0.08809 0.70724 0.0
C1331 C 0.26452 0.10002 0.70624 0.0
C1332 C 0.2246 0.11501 0.70444 0.0
H1333 H 0.19539 0.07308 0.70902 0.0
O1334 O 0.32553 0.14424 0.7205 0.0
O1335 O 0.35448 0.16368 0.68473 0.0
O1336 O 0.32116 0.13033 0.66013 0.0
O1337 O 0.28968 0.12837 0.67958 0.0
O1338 O 0.33059 0.12845 0.69777 0.0
O1339 O 0.32499 0.18158 0.72106 0.0
O1340 O 0.37458 0.2083 0.64137 0.0
O1341 O 0.3249 0.18118 0.67402 0.0
O1342 O 0.35299 0.20165 0.69921 0.0
O1343 O 0.37065 0.21487 0.67273 0.0
O1344 O 0.31343 0.16826 0.64973 0.0
O1345 O 0.342 0.16968 0.63278 0.0
C1346 C 0.35267 0.14178 0.68921 0.0
C1347 C 0.20542 0.1239 0.70436 0.0
C1348 C 0.2144 0.15137 0.70287 0.0
C1349 C 0.32744 0.1638 0.72963 0.0
C1350 C 0.31323 0.15635 0.7455 0.0
C1351 C 0.28476 0.13887 0.74642 0.0
C1352 C 0.32868 0.16658 0.76004 0.0
C1353 C 0.31585 0.15887 0.77547 0.0
C1354 C 0.27196 0.13116 0.76181 0.0
C1355 C 0.28746 0.14094 0.77633 0.0
C1356 C 0.29656 0.11801 0.66717 0.0
C1357 C 0.30658 0.17551 0.66309 0.0
C1358 C 0.36042 0.19394 0.62868 0.0
C1359 C 0.37501 0.19593 0.61326 0.0
C1360 C 0.40156 0.19943 0.61333 0.0
C1361 C 0.36105 0.19224 0.59818 0.0
C1362 C 0.37329 0.19151 0.58322 0.0
C1363 C 0.414 0.19921 0.59842 0.0
C1364 C 0.39988 0.19503 0.58343 0.0
C1365 C 0.36964 0.22003 0.68871 0.0
H1366 H 0.2725 0.13108 0.73533 0.0
H1367 H 0.3507 0.18015 0.75938 0.0
H1368 H 0.25003 0.1175 0.76249 0.0
H1369 H 0.27734 0.1347 0.78821 0.0
H1370 H 0.41247 0.20196 0.62487 0.0
H1371 H 0.3403 0.189 0.59813 0.0
H1372 H 0.43448 0.2019 0.59848 0.0
H1373 H 0.40969 0.19456 0.572 0.0
Gd1374 Gd 0.82469 0.17714 0.65755 0.0
Gd1375 Gd 0.84411 0.15818 0.69675 0.0
C1376 C 0.92543 0.15886 0.70093 0.0
C1377 C 0.91015 0.11139 0.70408 0.0
C1378 C 0.87678 0.1263 0.70146 0.0
C1379 C 0.89779 0.1526 0.70008 0.0
C1380 C 0.88269 0.10547 0.70401 0.0
C1381 C 0.9315 0.13804 0.7025 0.0
C1382 C 0.94611 0.18589 0.70069 0.0
C1383 C 0.93892 0.20588 0.70033 0.0
N1384 N 0.89117 0.17222 0.69887 0.0
C1385 C 0.91119 0.19865 0.69967 0.0
H1386 H 0.90599 0.21434 0.69932 0.0
C1387 C 0.82931 0.09649 0.70552 0.0
N1388 N 0.85054 0.12138 0.70156 0.0
C1389 C 0.83411 0.07511 0.70806 0.0
C1390 C 0.86087 0.07952 0.70703 0.0
H1391 H 0.80859 0.09301 0.70624 0.0
H1392 H 0.95261 0.14242 0.70301 0.0
H1393 H 0.76226 0.12111 0.65508 0.0
H1394 H 0.9676 0.19155 0.70124 0.0
H1395 H 0.95472 0.22687 0.70048 0.0
H1396 H 0.91513 0.09562 0.70583 0.0
H1397 H 0.86129 0.24283 0.64961 0.0
H1398 H 0.70163 0.14473 0.65054 0.0
H1399 H 0.71391 0.10912 0.65288 0.0
H1400 H 0.7551 0.24055 0.64559 0.0
H1401 H 0.81718 0.05527 0.71077 0.0
H1402 H 0.86455 0.06296 0.70905 0.0
H1403 H 0.7172 0.19385 0.6479 0.0
H1404 H 0.85338 0.28086 0.64484 0.0
N1405 N 0.77775 0.16338 0.65446 0.0
C1406 C 0.72303 0.15019 0.65152 0.0
C1407 C 0.72988 0.13004 0.65279 0.0
C1408 C 0.74393 0.1771 0.65107 0.0
C1409 C 0.77145 0.18311 0.65249 0.0
C1410 C 0.75749 0.137 0.65402 0.0
N1411 N 0.81881 0.21406 0.65199 0.0
C1412 C 0.79267 0.20929 0.65117 0.0
C1413 C 0.83611 0.26084 0.64664 0.0
C1414 C 0.80931 0.25642 0.64636 0.0
C1415 C 0.84052 0.23926 0.64928 0.0
C1416 C 0.78716 0.23035 0.64844 0.0
H1417 H 0.80594 0.27316 0.64426 0.0
O1418 O 0.84741 0.19176 0.63461 0.0
O1419 O 0.85593 0.17163 0.67095 0.0
O1420 O 0.8587 0.20326 0.6954 0.0
O1421 O 0.82924 0.20727 0.67671 0.0
O1422 O 0.87061 0.20547 0.65664 0.0
O1423 O 0.81187 0.15166 0.63574 0.0
O1424 O 0.82088 0.1447 0.71956 0.0
O1425 O 0.81304 0.16379 0.68338 0.0
O1426 O 0.80868 0.13237 0.65918 0.0
O1427 O 0.83655 0.12599 0.67786 0.0
O1428 O 0.79804 0.13051 0.69825 0.0
O1429 O 0.85988 0.18177 0.71939 0.0
C1430 C 0.87765 0.19171 0.66588 0.0
C1431 C 0.75979 0.22463 0.64757 0.0
C1432 C 0.73821 0.19805 0.64889 0.0
C1433 C 0.83099 0.1699 0.62643 0.0
C1434 C 0.82238 0.17347 0.60998 0.0
C1435 C 0.80081 0.17888 0.60807 0.0
C1436 C 0.83548 0.17068 0.59596 0.0
C1437 C 0.82657 0.17256 0.58004 0.0
C1438 C 0.79207 0.18098 0.59224 0.0
C1439 C 0.8047 0.17761 0.57827 0.0
C1440 C 0.84706 0.2165 0.68906 0.0
C1441 C 0.79117 0.14409 0.68868 0.0
C1442 C 0.83954 0.16441 0.7284 0.0
C1443 C 0.84682 0.15666 0.74411 0.0
C1444 C 0.85869 0.14026 0.74404 0.0
C1445 C 0.8412 0.165 0.75929 0.0
C1446 C 0.84738 0.15681 0.77436 0.0
C1447 C 0.86435 0.13169 0.75884 0.0
C1448 C 0.85861 0.13971 0.77389 0.0
C1449 C 0.81903 0.11793 0.66526 0.0
H1450 H 0.79061 0.1812 0.61877 0.0
H1451 H 0.85211 0.16641 0.59742 0.0
H1452 H 0.77534 0.18503 0.59078 0.0
H1453 H 0.79754 0.1791 0.56607 0.0
H1454 H 0.86341 0.13388 0.73258 0.0
H1455 H 0.83243 0.17804 0.75933 0.0
H1456 H 0.87317 0.11871 0.75866 0.0
H1457 H 0.86289 0.13239 0.78519 0.0
H1458 H 0.36519 0.87205 0.04678 0.0
H1459 H 0.32628 0.92061 0.04895 0.0
H1460 H 0.36701 0.9583 0.03724 0.0
H1461 H 0.4152 0.9789 0.02868 0.0
H1462 H 0.45308 0.92996 0.02434 0.0
H1463 H 0.41079 0.89069 0.0339 0.0
C1464 C 0.36518 0.89057 0.04436 0.0
C1465 C 0.34273 0.89348 0.04935 0.0
C1466 C 0.38851 0.91216 0.03712 0.0
C1467 C 0.34351 0.9179 0.046 0.0
C1468 C 0.36675 0.9395 0.03909 0.0
C1469 C 0.41392 0.95947 0.02955 0.0
C1470 C 0.43708 0.95725 0.02587 0.0
C1471 C 0.38961 0.93708 0.03503 0.0
C1472 C 0.43538 0.93207 0.02698 0.0
C1473 C 0.41127 0.90968 0.03258 0.0
H1474 H 0.10022 0.43261 0.04736 0.0
H1475 H 0.16553 0.51501 0.05283 0.0
H1476 H 0.13616 0.53063 0.04116 0.0
H1477 H 0.09057 0.52145 0.03186 0.0
H1478 H 0.02389 0.4398 0.02901 0.0
H1479 H 0.05486 0.42336 0.03732 0.0
C1480 C 0.10806 0.454 0.0461 0.0
C1481 C 0.13525 0.47247 0.05104 0.0
C1482 C 0.09072 0.46304 0.03981 0.0
C1483 C 0.14499 0.50013 0.04894 0.0
C1484 C 0.12809 0.50919 0.04237 0.0
C1485 C 0.08313 0.50004 0.03266 0.0
C1486 C 0.05541 0.48175 0.02919 0.0
C1487 C 0.10082 0.49089 0.03802 0.0
C1488 C 0.04549 0.45412 0.03098 0.0
C1489 C 0.06311 0.44479 0.03593 0.0
H1490 H 0.58107 0.6702 0.04877 0.0
H1491 H 0.49595 0.64995 0.04933 0.0
H1492 H 0.48308 0.60875 0.034 0.0
H1493 H 0.49528 0.57651 0.0222 0.0
H1494 H 0.57947 0.5945 0.02441 0.0
H1495 H 0.59329 0.63825 0.03698 0.0
C1496 C 0.55964 0.65672 0.04574 0.0
C1497 C 0.53962 0.66344 0.05031 0.0
C1498 C 0.55214 0.63248 0.03739 0.0
C1499 C 0.51202 0.64578 0.04581 0.0
C1500 C 0.50453 0.62198 0.03712 0.0
C1501 C 0.5167 0.59024 0.02521 0.0
C1502 C 0.53637 0.58242 0.02237 0.0
C1503 C 0.52434 0.61495 0.03302 0.0
C1504 C 0.56398 0.60014 0.02654 0.0
C1505 C 0.57188 0.6251 0.03376 0.0
H1506 H 0.87502 0.32545 0.99039 0.0
H1507 H 0.89907 0.35112 0.94005 0.0
H1508 H 0.93421 0.39541 0.94983 0.0
H1509 H 0.95784 0.42694 0.97246 0.0
H1510 H 0.93567 0.40148 0.02301 0.0
H1511 H 0.89997 0.35723 0.0134 0.0
C1512 C 0.88792 0.34082 0.9816 0.0
C1513 C 0.88451 0.33498 0.96452 0.0
C1514 C 0.90836 0.3663 0.98734 0.0
C1515 C 0.90149 0.35501 0.95326 0.0
C1516 C 0.92154 0.38037 0.95884 0.0
C1517 C 0.9454 0.41172 0.98145 0.0
C1518 C 0.94924 0.41785 0.99849 0.0
C1519 C 0.92521 0.38621 0.97583 0.0
C1520 C 0.93276 0.39773 0.00985 0.0
C1521 C 0.91244 0.37226 1.00434 0.0
H1522 H 0.6703 0.568 0.97768 0.0
H1523 H 0.65056 0.48583 0.96981 0.0
H1524 H 0.6043 0.46979 0.98008 0.0
H1525 H 0.56786 0.47891 0.98863 0.0
H1526 H 0.58608 0.56057 0.99509 0.0
H1527 H 0.63432 0.57706 0.98788 0.0
C1528 C 0.6559 0.54659 0.97819 0.0
C1529 C 0.66409 0.52823 0.97289 0.0
C1530 C 0.62894 0.53739 0.98379 0.0
C1531 C 0.64515 0.50052 0.97397 0.0
C1532 C 0.61852 0.49126 0.97972 0.0
C1533 C 0.58263 0.50027 0.9888 0.0
C1534 C 0.57383 0.51853 0.99272 0.0
C1535 C 0.61003 0.50948 0.98434 0.0
C1536 C 0.59275 0.54621 0.99248 0.0
C1537 C 0.6202 0.55559 0.98823 0.0
H1538 H 0.48813 0.1383 0.978 0.0
H1539 H 0.40319 0.07701 0.97047 0.0
H1540 H 0.41306 0.04315 0.98093 0.0
H1541 H 0.44589 0.03056 0.99172 0.0
H1542 H 0.52917 0.09239 1.00241 0.0
H1543 H 0.5195 0.12658 0.99177 0.0
C1544 C 0.4715 0.11772 0.97896 0.0
C1545 C 0.44502 0.11041 0.97308 0.0
C1546 C 0.47698 0.09837 0.98561 0.0
C1547 C 0.42402 0.08334 0.97431 0.0
C1548 C 0.42953 0.06388 0.98047 0.0
C1549 C 0.46187 0.05153 0.9917 0.0
C1550 C 0.48828 0.05896 0.99752 0.0
C1551 C 0.456 0.07111 0.98596 0.0
C1552 C 0.5087 0.08622 0.99786 0.0
C1553 C 0.50321 0.10575 0.99175 0.0
H1554 H 0.64726 0.12855 0.97702 0.0
H1555 H 0.68492 0.07956 0.97122 0.0
H1556 H 0.6445 0.04119 0.98327 0.0
H1557 H 0.59677 0.02053 0.99293 0.0
H1558 H 0.55926 0.06952 0.99919 0.0
H1559 H 0.60137 0.10907 0.98993 0.0
C1560 C 0.64662 0.10951 0.97858 0.0
C1561 C 0.66878 0.10668 0.97312 0.0
C1562 C 0.62341 0.08762 0.98565 0.0
C1563 C 0.66802 0.0821 0.97535 0.0
C1564 C 0.64493 0.06018 0.98219 0.0
C1565 C 0.59812 0.04003 0.99255 0.0
C1566 C 0.5751 0.04219 0.9968 0.0
C1567 C 0.62229 0.06256 0.98704 0.0
C1568 C 0.57685 0.06742 0.99623 0.0
C1569 C 0.60086 0.09 0.99076 0.0
H1570 H 0.87949 0.51094 0.97148 0.0
H1571 H 0.92726 0.59744 0.9711 0.0
H1572 H 0.96643 0.59602 0.98327 0.0
H1573 H 0.98784 0.57 0.99298 0.0
H1574 H 0.9394 0.48356 0.99433 0.0
H1575 H 0.89987 0.48505 0.98297 0.0
C1576 C 0.8985 0.52943 0.97409 0.0
C1577 C 0.90061 0.55426 0.97028 0.0
C1578 C 0.92082 0.52845 0.9813 0.0
C1579 C 0.92518 0.57811 0.97395 0.0
C1580 C 0.94759 0.57729 0.98086 0.0
C1581 C 0.9685 0.55157 0.99092 0.0
C1582 C 0.96642 0.52678 0.99471 0.0
C1583 C 0.94575 0.55259 0.98445 0.0
C1584 C 0.94139 0.50295 0.99179 0.0
C1585 C 0.9188 0.50377 0.9852 0.0
H1586 H 0.48801 0.34645 0.97288 0.0
H1587 H 0.40084 0.3166 0.97495 0.0
H1588 H 0.40922 0.35929 0.98701 0.0
H1589 H 0.44176 0.40622 0.99542 0.0
H1590 H 0.52866 0.43431 0.99559 0.0
H1591 H 0.52015 0.39134 0.98414 0.0
C1592 C 0.47091 0.34935 0.97605 0.0
C1593 C 0.4439 0.32873 0.97285 0.0
C1594 C 0.47589 0.37367 0.98324 0.0
C1595 C 0.42181 0.33235 0.97727 0.0
C1596 C 0.4266 0.35674 0.9841 0.0
C1597 C 0.45872 0.40275 0.993 0.0
C1598 C 0.48579 0.42337 0.996 0.0
C1599 C 0.45358 0.37771 0.98688 0.0
C1600 C 0.50767 0.41867 0.99322 0.0
C1601 C 0.50282 0.39416 0.98667 0.0
H1602 H 0.15195 0.66144 0.04041 0.0
H1603 H 0.09774 0.65923 0.07882 0.0
H1604 H 0.06076 0.61652 0.06795 0.0
H1605 H 0.04414 0.57953 0.04787 0.0
H1606 H 0.0996 0.57965 0.01099 0.0
H1607 H 0.13556 0.62338 0.02074 0.0
C1608 C 0.13196 0.6516 0.04629 0.0
C1609 C 0.12749 0.66342 0.06034 0.0
C1610 C 0.11096 0.62675 0.04018 0.0
C1611 C 0.10165 0.65039 0.06803 0.0
C1612 C 0.08051 0.62602 0.0618 0.0
C1613 C 0.06395 0.58914 0.0418 0.0
C1614 C 0.06858 0.57656 0.02815 0.0
C1615 C 0.08496 0.61395 0.04792 0.0
C1616 C 0.09482 0.58922 0.02091 0.0
C1617 C 0.11564 0.61417 0.02668 0.0
H1618 H 0.34553 0.43304 0.0432 0.0
H1619 H 0.36654 0.51325 0.05811 0.0
H1620 H 0.41191 0.53126 0.04566 0.0
H1621 H 0.4472 0.52378 0.03314 0.0
H1622 H 0.42825 0.44358 0.02017 0.0
H1623 H 0.38042 0.42593 0.02886 0.0
C1624 C 0.35998 0.45447 0.0435 0.0
C1625 C 0.35287 0.47179 0.05172 0.0
C1626 C 0.38634 0.46465 0.0366 0.0
C1627 C 0.37175 0.49951 0.05209 0.0
C1628 C 0.39763 0.50983 0.04492 0.0
C1629 C 0.43232 0.50253 0.03184 0.0
C1630 C 0.44082 0.48505 0.02561 0.0
C1631 C 0.40537 0.49254 0.0375 0.0
C1632 C 0.42179 0.45746 0.02442 0.0
C1633 C 0.3946 0.44737 0.02961 0.0
H1634 H 0.57932 0.90277 0.04631 0.0
H1635 H 0.49716 0.84723 0.0628 0.0
H1636 H 0.47968 0.87308 0.04849 0.0
H1637 H 0.48824 0.91298 0.03249 0.0
H1638 H 0.57087 0.97025 0.01793 0.0
H1639 H 0.58771 0.942 0.02983 0.0
C1640 C 0.55757 0.89623 0.04661 0.0
C1641 C 0.53956 0.87325 0.05563 0.0
C1642 C 0.54777 0.91141 0.03858 0.0
C1643 C 0.51145 0.86509 0.05609 0.0
C1644 C 0.50143 0.87975 0.04784 0.0
C1645 C 0.50981 0.91886 0.03171 0.0
C1646 C 0.52837 0.94329 0.02429 0.0
C1647 C 0.51943 0.9031 0.03919 0.0
C1648 C 0.55636 0.9513 0.02356 0.0
C1649 C 0.56595 0.93527 0.03042 0.0
H1650 H 0.03513 0.20838 0.38244 0.0
H1651 H 0.99359 0.25448 0.38111 0.0
H1652 H 0.03351 0.29155 0.36801 0.0
H1653 H 0.08162 0.31224 0.35887 0.0
H1654 H 0.12251 0.26574 0.35985 0.0
H1655 H 0.08095 0.227 0.37043 0.0
C1656 C 0.03442 0.22622 0.37896 0.0
C1657 C 0.0114 0.22865 0.38306 0.0
C1658 C 0.05728 0.24735 0.3712 0.0
C1659 C 0.01125 0.25223 0.37859 0.0
C1660 C 0.03399 0.2734 0.37094 0.0
C1661 C 0.08109 0.29338 0.36109 0.0
C1662 C 0.10476 0.2916 0.35838 0.0
C1663 C 0.05732 0.27139 0.36749 0.0
C1664 C 0.10425 0.26733 0.36153 0.0
C1665 C 0.08061 0.24529 0.36775 0.0
H1666 H 0.76053 0.77131 0.38756 0.0
H1667 H 0.82816 0.85259 0.38287 0.0
H1668 H 0.7969 0.86696 0.37249 0.0
H1669 H 0.74968 0.85732 0.36654 0.0
H1670 H 0.68266 0.77583 0.36906 0.0
H1671 H 0.71427 0.76067 0.37831 0.0
C1672 C 0.76864 0.79209 0.38403 0.0
C1673 C 0.7968 0.81087 0.38649 0.0
C1674 C 0.75055 0.80027 0.3777 0.0
C1675 C 0.80657 0.83773 0.38177 0.0
C1676 C 0.7887 0.84602 0.37568 0.0
C1677 C 0.74221 0.83618 0.36879 0.0
C1678 C 0.71409 0.81759 0.36682 0.0
C1679 C 0.76057 0.82761 0.37392 0.0
C1680 C 0.70439 0.79034 0.37013 0.0
C1681 C 0.72243 0.78174 0.37552 0.0
H1682 H 0.24252 -0.00017 0.3871 0.0
H1683 H 0.15886 0.98283 0.39262 0.0
H1684 H 0.14206 0.93916 0.37938 0.0
H1685 H 0.15091 0.90459 0.36736 0.0
H1686 H 0.23421 0.92013 0.36474 0.0
H1687 H 0.25127 0.96527 0.37599 0.0
C1688 C 0.22056 0.98652 0.38569 0.0
C1689 C 0.20211 0.99487 0.39095 0.0
C1690 C 0.21091 0.96097 0.37864 0.0
C1691 C 0.17374 0.97736 0.38849 0.0
C1692 C 0.16401 0.95218 0.38103 0.0
C1693 C 0.17277 0.91798 0.36926 0.0
C1694 C 0.19131 0.90911 0.36544 0.0
C1695 C 0.18239 0.94367 0.37618 0.0
C1696 C 0.21957 0.92645 0.3679 0.0
C1697 C 0.22934 0.95228 0.37425 0.0
H1698 H 0.52954 0.67947 0.30642 0.0
H1699 H 0.59016 0.65464 0.30122 0.0
H1700 H 0.6253 0.69758 0.31259 0.0
H1701 H 0.63901 0.74251 0.32424 0.0
H1702 H 0.57673 0.76437 0.33204 0.0
H1703 H 0.54206 0.72198 0.31994 0.0
C1704 C 0.55022 0.68298 0.30806 0.0
C1705 C 0.55694 0.66361 0.30276 0.0
C1706 C 0.57019 0.70732 0.31517 0.0
C1707 C 0.58425 0.66923 0.30474 0.0
C1708 C 0.60444 0.69378 0.31141 0.0
C1709 C 0.61784 0.73791 0.32325 0.0
C1710 C 0.61051 0.75662 0.32893 0.0
C1711 C 0.59769 0.71306 0.3166 0.0
C1712 C 0.58295 0.75032 0.32779 0.0
C1713 C 0.56306 0.72607 0.32083 0.0
H1714 H 0.33372 0.90293 0.31177 0.0
H1715 H 0.30252 0.81798 0.30497 0.0
H1716 H 0.25915 0.80808 0.31785 0.0
H1717 H 0.2282 0.82382 0.32852 0.0
H1718 H 0.25902 0.90892 0.33338 0.0
H1719 H 0.30417 0.91845 0.32374 0.0
C1720 C 0.31743 0.88222 0.313 0.0
C1721 C 0.32144 0.86131 0.30717 0.0
C1722 C 0.2923 0.87667 0.32007 0.0
C1723 C 0.30022 0.83457 0.30937 0.0
C1724 C 0.27526 0.82885 0.31666 0.0
C1725 C 0.24502 0.84437 0.32779 0.0
C1726 C 0.24045 0.86569 0.33178 0.0
C1727 C 0.27083 0.84976 0.32175 0.0
C1728 C 0.26219 0.89225 0.33045 0.0
C1729 C 0.28795 0.8977 0.32488 0.0
H1730 H 0.12695 0.46084 0.32499 0.0
H1731 H 0.11581 0.42742 0.27575 0.0
H1732 H 0.1292 0.39545 0.2854 0.0
H1733 H 0.14499 0.378 0.30731 0.0
H1734 H 0.1541 0.40889 0.35713 0.0
H1735 H 0.14122 0.44145 0.34768 0.0
C1736 C 0.12748 0.4465 0.31645 0.0
C1737 C 0.12038 0.44634 0.29972 0.0
C1738 C 0.13504 0.42802 0.32211 0.0
C1739 C 0.1209 0.42764 0.28872 0.0
C1740 C 0.1287 0.4095 0.2942 0.0
C1741 C 0.14386 0.39152 0.31627 0.0
C1742 C 0.15058 0.3909 0.33298 0.0
C1743 C 0.13585 0.4096 0.31082 0.0
C1744 C 0.14943 0.40906 0.3442 0.0
C1745 C 0.14186 0.42759 0.3388 0.0
H1746 H 0.33472 0.42538 0.31013 0.0
H1747 H 0.31798 0.49014 0.30311 0.0
H1748 H 0.27357 0.46419 0.31685 0.0
H1749 H 0.2375 0.42123 0.32794 0.0
H1750 H 0.25203 0.3547 0.33192 0.0
H1751 H 0.29949 0.38317 0.32277 0.0
C1752 C 0.32146 0.43387 0.31188 0.0
C1753 C 0.32933 0.45944 0.30557 0.0
C1754 C 0.29568 0.41854 0.31936 0.0
C1755 C 0.31204 0.47029 0.30773 0.0
C1756 C 0.28675 0.45554 0.31561 0.0
C1757 C 0.25146 0.41336 0.32726 0.0
C1758 C 0.2419 0.3864 0.3312 0.0
C1759 C 0.27809 0.4294 0.3211 0.0
C1760 C 0.25951 0.37581 0.32964 0.0
C1761 C 0.28645 0.39194 0.32415 0.0
H1762 H 0.53414 0.83883 0.3074 0.0
H1763 H 0.5807 0.92538 0.30694 0.0
H1764 H 0.62043 0.92469 0.31885 0.0
H1765 H 0.64299 0.89932 0.32765 0.0
H1766 H 0.59602 0.8129 0.32898 0.0
H1767 H 0.55541 0.81356 0.31879 0.0
C1768 C 0.55298 0.85749 0.31001 0.0
C1769 C 0.55464 0.88212 0.30616 0.0
C1770 C 0.57564 0.85694 0.31706 0.0
C1771 C 0.57898 0.90619 0.3098 0.0
C1772 C 0.60171 0.9058 0.31656 0.0
C1773 C 0.62371 0.8807 0.32591 0.0
C1774 C 0.62241 0.85612 0.32924 0.0
C1775 C 0.60043 0.8813 0.32 0.0
C1776 C 0.59742 0.83208 0.32681 0.0
C1777 C 0.57424 0.83246 0.32083 0.0
H1778 H 0.11635 0.68322 0.28719 0.0
H1779 H 0.14959 0.65844 0.3271 0.0
H1780 H 0.1647 0.70133 0.34139 0.0
H1781 H 0.16868 0.74601 0.3422 0.0
H1782 H 0.13248 0.76888 0.30291 0.0
H1783 H 0.11929 0.72706 0.28842 0.0
C1784 C 0.12709 0.6873 0.29896 0.0
C1785 C 0.13199 0.66783 0.30605 0.0
C1786 C 0.13539 0.71175 0.30714 0.0
C1787 C 0.14547 0.67314 0.32145 0.0
C1788 C 0.15422 0.69767 0.32957 0.0
C1789 C 0.15759 0.74173 0.33064 0.0
C1790 C 0.15122 0.76052 0.32393 0.0
C1791 C 0.14925 0.71713 0.32252 0.0
C1792 C 0.13743 0.75479 0.30858 0.0
C1793 C 0.12983 0.73081 0.30022 0.0
H1794 H 0.77438 0.98733 0.40291 0.0
H1795 H 0.83193 0.00649 0.36301 0.0
H1796 H 0.8 0.96417 0.34897 0.0
H1797 H 0.75573 0.92134 0.34845 0.0
H1798 H 0.69826 0.90397 0.38837 0.0
H1799 H 0.73026 0.94562 0.40202 0.0
C1800 C 0.77999 0.98215 0.39119 0.0
C1801 C 0.80548 -0.00015 0.38406 0.0
C1802 C 0.76151 0.95807 0.38316 0.0
C1803 C 0.81232 0.99316 0.36871 0.0
C1804 C 0.79413 0.96895 0.36072 0.0
C1805 C 0.75001 0.92681 0.35996 0.0
C1806 C 0.72419 0.9095 0.36703 0.0
C1807 C 0.7686 0.95121 0.36784 0.0
C1808 C 0.71764 0.91683 0.38231 0.0
C1809 C 0.73603 0.94073 0.39026 0.0
H1810 H 0.00418 0.76515 0.37769 0.0
H1811 H 0.03668 0.84964 0.38693 0.0
H1812 H 0.08087 0.85969 0.37499 0.0
H1813 H 0.1116 0.84392 0.36413 0.0
H1814 H 0.07987 0.75898 0.35747 0.0
H1815 H 0.03416 0.74962 0.3659 0.0
C1816 C 0.02084 0.78578 0.37687 0.0
C1817 C 0.01719 0.80661 0.3832 0.0
C1818 C 0.04642 0.79131 0.37044 0.0
C1819 C 0.03908 0.83324 0.38226 0.0
C1820 C 0.06432 0.83899 0.3754 0.0
C1821 C 0.09449 0.82346 0.36419 0.0
C1822 C 0.09891 0.80215 0.35994 0.0
C1823 C 0.06844 0.81814 0.36975 0.0
C1824 C 0.0768 0.77567 0.36054 0.0
C1825 C 0.05071 0.77031 0.36543 0.0
H1826 H 0.24901 0.23134 0.36982 0.0
H1827 H 0.18216 0.19964 0.40486 0.0
H1828 H 0.16468 0.22678 0.39271 0.0
H1829 H 0.16991 0.26155 0.37358 0.0
H1830 H 0.23526 0.29311 0.33779 0.0
H1831 H 0.25139 0.26329 0.34842 0.0
C1832 C 0.23043 0.23011 0.37464 0.0
C1833 C 0.21734 0.21397 0.38853 0.0
C1834 C 0.22018 0.24561 0.36743 0.0
C1835 C 0.1932 0.21256 0.39456 0.0
C1836 C 0.183 0.22786 0.38753 0.0
C1837 C 0.18756 0.26168 0.36801 0.0
C1838 C 0.2017 0.27957 0.35515 0.0
C1839 C 0.19663 0.24482 0.37422 0.0
C1840 C 0.22415 0.27938 0.34775 0.0
C1841 C 0.23343 0.26252 0.3539 0.0
H1842 H 0.67567 0.57892 0.70967 0.0
H1843 H 0.70666 0.52428 0.71619 0.0
H1844 H 0.74949 0.55607 0.7027 0.0
H1845 H 0.78043 0.60179 0.69237 0.0
H1846 H 0.75121 0.65812 0.68931 0.0
H1847 H 0.70549 0.62341 0.69813 0.0
C1848 C 0.6918 0.57395 0.70826 0.0
C1849 C 0.68792 0.5493 0.71418 0.0
C1850 C 0.71679 0.59272 0.70108 0.0
C1851 C 0.70885 0.54298 0.71171 0.0
C1852 C 0.73351 0.56125 0.70408 0.0
C1853 C 0.76378 0.60613 0.6932 0.0
C1854 C 0.76884 0.63222 0.68999 0.0
C1855 C 0.73798 0.58646 0.6991 0.0
C1856 C 0.74748 0.63799 0.69158 0.0
C1857 C 0.72148 0.61824 0.69671 0.0
H1858 H 0.43136 0.09868 0.71007 0.0
H1859 H 0.48337 0.18195 0.72372 0.0
H1860 H 0.45017 0.19287 0.71183 0.0
H1861 H 0.40427 0.17805 0.6998 0.0
H1862 H 0.3522 0.09482 0.68642 0.0
H1863 H 0.38728 0.08455 0.696 0.0
C1864 C 0.43542 0.11921 0.71047 0.0
C1865 C 0.45973 0.13937 0.71797 0.0
C1866 C 0.41612 0.12535 0.70369 0.0
C1867 C 0.4649 0.166 0.71801 0.0
C1868 C 0.44583 0.17226 0.7113 0.0
C1869 C 0.40097 0.15782 0.69865 0.0
C1870 C 0.37597 0.13726 0.69215 0.0
C1871 C 0.42113 0.15203 0.70439 0.0
C1872 C 0.37152 0.11099 0.69115 0.0
C1873 C 0.39149 0.10511 0.69671 0.0
H1874 H 0.85606 0.32344 0.71558 0.0
H1875 H 0.94059 0.34402 0.72297 0.0
H1876 H 0.92967 0.29968 0.71299 0.0
H1877 H 0.8961 0.25497 0.70176 0.0
H1878 H 0.81334 0.23727 0.69138 0.0
H1879 H 0.82388 0.28089 0.7025 0.0
C1880 C 0.87239 0.31867 0.71471 0.0
C1881 C 0.89913 0.3373 0.72016 0.0
C1882 C 0.86627 0.29352 0.7084 0.0
C1883 C 0.91965 0.33007 0.71925 0.0
C1884 C 0.9135 0.30472 0.7134 0.0
C1885 C 0.88041 0.26069 0.70207 0.0
C1886 C 0.85391 0.24285 0.69602 0.0
C1887 C 0.88684 0.28623 0.708 0.0
C1888 C 0.83386 0.25062 0.69609 0.0
C1889 C 0.83985 0.27557 0.70243 0.0
H1890 H 0.19221 0.01358 0.64043 0.0
H1891 H 0.25336 0.99088 0.63023 0.0
H1892 H 0.28912 0.03376 0.64125 0.0
H1893 H 0.30329 0.07796 0.65389 0.0
H1894 H 0.24151 0.09855 0.66641 0.0
H1895 H 0.20575 0.0559 0.65494 0.0
C1896 C 0.21321 0.01762 0.64086 0.0
C1897 C 0.21984 0.99885 0.63422 0.0
C1898 C 0.2337 0.04206 0.64769 0.0
C1899 C 0.24748 0.00503 0.63476 0.0
C1900 C 0.26804 0.02954 0.64122 0.0
C1901 C 0.28205 0.07321 0.6539 0.0
C1902 C 0.27517 0.0917 0.66057 0.0
C1903 C 0.26144 0.04832 0.6476 0.0
C1904 C 0.24741 0.08483 0.66112 0.0
C1905 C 0.22691 0.06042 0.65458 0.0
H1906 H 0.97487 0.17582 0.64129 0.0
H1907 H 0.0159 0.26258 0.64104 0.0
H1908 H 0.97531 0.2611 0.65267 0.0
H1909 H 0.92708 0.23535 0.66119 0.0
H1910 H 0.88617 0.14891 0.66244 0.0
H1911 H 0.92805 0.15012 0.65277 0.0
C1912 C 0.97522 0.19445 0.64406 0.0
C1913 C 0.99842 0.21927 0.63987 0.0
C1914 C 0.95181 0.19354 0.65104 0.0
C1915 C 0.99817 0.24312 0.64355 0.0
C1916 C 0.975 0.24235 0.65038 0.0
C1917 C 0.92754 0.21683 0.65956 0.0
C1918 C 0.90373 0.19214 0.66262 0.0
C1919 C 0.95154 0.2177 0.65385 0.0
C1920 C 0.90439 0.1682 0.66039 0.0
C1921 C 0.92827 0.1689 0.65473 0.0
H1922 H 0.80957 0.80431 0.65121 0.0
H1923 H 0.78578 0.76174 0.60452 0.0
H1924 H 0.79647 0.72835 0.61519 0.0
H1925 H 0.81184 0.71104 0.63772 0.0
H1926 H 0.83773 0.75436 0.68405 0.0
H1927 H 0.827 0.78777 0.67358 0.0
C1928 C 0.80698 0.78785 0.64335 0.0
C1929 C 0.7967 0.78534 0.62716 0.0
C1930 C 0.81334 0.76882 0.64952 0.0
C1931 C 0.79321 0.76381 0.61713 0.0
C1932 C 0.79943 0.74481 0.62318 0.0
C1933 C 0.81507 0.7277 0.64561 0.0
C1934 C 0.8251 0.72984 0.66183 0.0
C1935 C 0.8093 0.74702 0.63938 0.0
C1936 C 0.82969 0.75194 0.67166 0.0
C1937 C 0.82362 0.77114 0.66564 0.0
H1938 H 0.981 0.79486 0.64315 0.0
H1939 H 0.0182 0.74553 0.63694 0.0
H1940 H 0.9775 0.70705 0.6487 0.0
H1941 H 0.92977 0.68654 0.6584 0.0
H1942 H 0.89292 0.73605 0.66517 0.0
H1943 H 0.93508 0.77545 0.65586 0.0
C1944 C 0.98018 0.7757 0.64455 0.0
C1945 C 1.00229 0.77281 0.63908 0.0
C1946 C 0.95683 0.75377 0.65141 0.0
C1947 C 1.00133 0.74811 0.6411 0.0
C1948 C 0.97807 0.72613 0.64775 0.0
C1949 C 0.93123 0.70608 0.65805 0.0
C1950 C 0.90841 0.70846 0.66248 0.0
C1951 C 0.95549 0.72859 0.65261 0.0
C1952 C 0.91034 0.73378 0.662 0.0
C1953 C 0.93439 0.75629 0.65655 0.0
H1954 H 0.23707 0.22999 0.64579 0.0
H1955 H 0.17645 0.1473 0.63587 0.0
H1956 H 0.20694 0.13261 0.64744 0.0
H1957 H 0.25271 0.14357 0.65744 0.0
H1958 H 0.31478 0.22612 0.66533 0.0
H1959 H 0.28198 0.2407 0.65778 0.0
C1960 C 0.23042 0.20875 0.64644 0.0
C1961 C 0.20465 0.18976 0.63986 0.0
C1962 C 0.24836 0.20048 0.65278 0.0
C1963 C 0.19634 0.1623 0.64065 0.0
C1964 C 0.21372 0.15389 0.6473 0.0
C1965 C 0.25865 0.16464 0.65802 0.0
C1966 C 0.28563 0.1837 0.66257 0.0
C1967 C 0.24002 0.17281 0.65302 0.0
C1968 C 0.29372 0.21109 0.66249 0.0
C1969 C 0.27507 0.2194 0.65797 0.0
H1970 H 0.77141 0.01177 0.62244 0.0
H1971 H 0.82191 0.99628 0.65563 0.0
H1972 H 0.83612 0.03888 0.67014 0.0
H1973 H 0.8354 0.08137 0.67248 0.0
H1974 H 0.7825 0.09486 0.63985 0.0
H1975 H 0.76851 0.05253 0.62587 0.0
C1976 C 0.78557 0.0178 0.63284 0.0
C1977 C 0.79582 0.00117 0.6379 0.0
C1978 C 0.79335 0.04203 0.64115 0.0
C1979 C 0.81376 0.00885 0.65156 0.0
C1980 C 0.82195 0.03321 0.65979 0.0
C1981 C 0.82046 0.07488 0.66253 0.0
C1982 C 0.81 0.09141 0.65739 0.0
C1983 C 0.812 0.05007 0.65461 0.0
C1984 C 0.79103 0.08275 0.64418 0.0
C1985 C 0.78292 0.05844 0.63611 0.0
H1986 H 0.4376 0.32241 0.73379 0.0
H1987 H 0.48646 0.35213 0.68957 0.0
H1988 H 0.45389 0.31138 0.67456 0.0
H1989 H 0.41195 0.26648 0.67434 0.0
H1990 H 0.36642 0.23633 0.71984 0.0
H1991 H 0.39677 0.27817 0.73366 0.0
C1992 C 0.4414 0.31994 0.72092 0.0
C1993 C 0.46462 0.34033 0.71293 0.0
C1994 C 0.42298 0.29629 0.71247 0.0
C1995 C 0.46864 0.33693 0.69607 0.0
C1996 C 0.45007 0.31352 0.68747 0.0
C1997 C 0.40894 0.26867 0.68732 0.0
C1998 C 0.38729 0.2474 0.69599 0.0
C1999 C 0.42723 0.29287 0.6956 0.0
C2000 C 0.38309 0.25175 0.7127 0.0
C2001 C 0.40053 0.27584 0.72076 0.0
H2002 H 0.69452 0.16155 0.71247 0.0
H2003 H 0.65288 0.07504 0.71406 0.0
H2004 H 0.69307 0.07549 0.7021 0.0
H2005 H 0.74139 0.10067 0.69336 0.0
H2006 H 0.78279 0.18706 0.69112 0.0
H2007 H 0.74139 0.18658 0.70073 0.0
C2008 C 0.69427 0.14285 0.71004 0.0
C2009 C 0.67095 0.11829 0.71425 0.0
C2010 C 0.71736 0.14326 0.70298 0.0
C2011 C 0.67063 0.09415 0.7109 0.0
C2012 C 0.69361 0.09441 0.70411 0.0
C2013 C 0.7411 0.11932 0.69471 0.0
C2014 C 0.76505 0.14384 0.69144 0.0
C2015 C 0.71725 0.11885 0.70038 0.0
C2016 C 0.76456 0.16791 0.69329 0.0
C2017 C 0.74092 0.16765 0.69897 0.0
H2018 H 0.84955 0.52658 0.7141 0.0
H2019 H 0.93539 0.58551 0.71969 0.0
H2020 H 0.92735 0.6199 0.70749 0.0
H2021 H 0.89554 0.63351 0.69637 0.0
H2022 H 0.8102 0.57421 0.689 0.0
H2023 H 0.8183 0.53947 0.70068 0.0
C2024 C 0.86642 0.54696 0.71256 0.0
C2025 C 0.89295 0.55373 0.71786 0.0
C2026 C 0.8617 0.56645 0.7053 0.0
C2027 C 0.91482 0.58 0.71565 0.0
C2028 C 0.91022 0.59961 0.70875 0.0
C2029 C 0.87876 0.61296 0.69732 0.0
C2030 C 0.85227 0.60639 0.69213 0.0
C2031 C 0.8837 0.59313 0.70372 0.0
C2032 C 0.83077 0.57965 0.69302 0.0
C2033 C 0.83537 0.55985 0.69972 0.0
H2034 H 0.47469 0.92119 0.16833 0.0
H2035 H 0.48043 0.99027 0.1936 0.0
H2036 H 0.49375 0.01549 0.16796 0.0
H2037 H 0.50528 0.01887 0.13868 0.0
H2038 H 0.50329 0.95161 0.11341 0.0
H2039 H 0.48672 0.92481 0.13862 0.0
C2040 C 0.47903 0.94181 0.16828 0.0
C2041 C 0.47625 0.95358 0.183 0.0
C2042 C 0.48733 0.95661 0.15345 0.0
C2043 C 0.4817 0.9803 0.18251 0.0
C2044 C 0.48959 0.99492 0.16784 0.0
C2045 C 0.50152 0.99844 0.13866 0.0
C2046 C 0.5059 0.9875 0.12413 0.0
C2047 C 0.49266 0.98337 0.15328 0.0
C2048 C 0.49999 0.96062 0.12432 0.0
C2049 C 0.49071 0.94531 0.13881 0.0
H2050 H 0.04305 0.49092 0.17326 0.0
H2051 H 0.02129 0.55095 0.18566 0.0
H2052 H 0.99638 0.54259 0.15946 0.0
H2053 H 0.97996 0.51752 0.13334 0.0
H2054 H 0.00345 0.45912 0.12007 0.0
H2055 H 0.02862 0.46746 0.14628 0.0
C2056 C 0.03283 0.50212 0.17015 0.0
C2057 C 0.03381 0.52141 0.1813 0.0
C2058 C 0.01883 0.49741 0.155 0.0
C2059 C 0.02086 0.5361 0.17716 0.0
C2060 C 0.00655 0.53125 0.16226 0.0
C2061 C 0.99046 0.50653 0.1363 0.0
C2062 C 0.98953 0.48741 0.12508 0.0
C2063 C 0.00522 0.51182 0.15116 0.0
C2064 C 0.00376 0.47375 0.12871 0.0
C2065 C 0.01811 0.47852 0.14364 0.0
H2066 H 0.45813 0.5155 0.16613 0.0
H2067 H 0.51941 0.50606 0.19291 0.0
H2068 H 0.53609 0.49769 0.1672 0.0
H2069 H 0.53438 0.49409 0.13733 0.0
H2070 H 0.46993 0.49761 0.11022 0.0
H2071 H 0.45381 0.5077 0.13583 0.0
C2072 C 0.47486 0.51123 0.16637 0.0
C2073 C 0.48784 0.51206 0.18149 0.0
C2074 C 0.48402 0.50562 0.15148 0.0
C2075 C 0.50955 0.5065 0.18148 0.0
C2076 C 0.51903 0.50147 0.16677 0.0
C2077 C 0.51639 0.4964 0.13694 0.0
C2078 C 0.50348 0.49495 0.12174 0.0
C2079 C 0.50657 0.50117 0.15172 0.0
C2080 C 0.48072 0.499 0.12162 0.0
C2081 C 0.47125 0.50453 0.13632 0.0
H2082 H 0.99728 0.49672 0.84094 0.0
H2083 H 0.91212 0.45616 0.85559 0.0
H2084 H 0.92584 0.46541 0.8847 0.0
H2085 H 0.96219 0.48757 0.90581 0.0
H2086 H 0.04707 0.52977 0.89093 0.0
H2087 H 0.03345 0.51662 0.86203 0.0
C2088 C 0.98173 0.48951 0.85052 0.0
C2089 C 0.95375 0.47586 0.84616 0.0
C2090 C 0.98976 0.49507 0.86715 0.0
C2091 C 0.93381 0.46703 0.85867 0.0
C2092 C 0.94162 0.47217 0.87529 0.0
C2093 C 0.97759 0.49338 0.89621 0.0
C2094 C 0.00549 0.50943 0.90026 0.0
C2095 C 0.96953 0.48649 0.87965 0.0
C2096 C 0.02547 0.51733 0.88789 0.0
C2097 C 0.01768 0.50994 0.87144 0.0
H2098 H 0.55453 0.48333 0.85253 0.0
H2099 H 0.49811 0.49804 0.82447 0.0
H2100 H 0.48177 0.5084 0.84994 0.0
H2101 H 0.48359 0.51341 0.87993 0.0
H2102 H 0.54376 0.50394 0.90799 0.0
H2103 H 0.55771 0.4904 0.88291 0.0
C2104 C 0.53859 0.48871 0.85209 0.0
C2105 C 0.52745 0.48991 0.83673 0.0
C2106 C 0.52977 0.49532 0.86677 0.0
C2107 C 0.50701 0.49713 0.83619 0.0
C2108 C 0.49764 0.50298 0.85073 0.0
C2109 C 0.50014 0.50895 0.88066 0.0
C2110 C 0.51249 0.5099 0.89604 0.0
C2111 C 0.50899 0.50232 0.86607 0.0
C2112 C 0.53332 0.50303 0.89653 0.0
C2113 C 0.54161 0.49552 0.8821 0.0
H2114 H 0.50942 0.06906 0.85179 0.0
H2115 H 0.56004 0.03696 0.83497 0.0
H2116 H 0.55251 0.01277 0.861 0.0
H2117 H 0.52994 0.99912 0.88806 0.0
H2118 H 0.48102 0.03251 0.90579 0.0
H2119 H 0.48972 0.05813 0.88008 0.0
C2120 C 0.51881 0.05681 0.85391 0.0
C2121 C 0.53513 0.05464 0.84148 0.0
C2122 C 0.51476 0.04328 0.86907 0.0
C2123 C 0.54748 0.03898 0.84439 0.0
C2124 C 0.54313 0.0251 0.85925 0.0
C2125 C 0.52138 0.01219 0.88631 0.0
C2126 C 0.50467 0.01378 0.89868 0.0
C2127 C 0.52662 0.02691 0.8716 0.0
C2128 C 0.49398 0.03103 0.89642 0.0
C2129 C 0.49882 0.04552 0.8817 0.0
H2130 H 0.15672 0.31245 0.51755 0.0
H2131 H 0.12397 0.22994 0.50212 0.0
H2132 H 0.12832 0.24331 0.47315 0.0
H2133 H 0.1379 0.27808 0.4521 0.0
H2134 H 0.16767 0.35982 0.46783 0.0
H2135 H 0.16798 0.3472 0.49669 0.0
C2136 C 0.1504 0.29733 0.50787 0.0
C2137 C 0.13987 0.27018 0.5121 0.0
C2138 C 0.15241 0.30507 0.49123 0.0
C2139 C 0.1324 0.25102 0.49931 0.0
C2140 C 0.13471 0.25863 0.48269 0.0
C2141 C 0.14491 0.29312 0.46187 0.0
C2142 C 0.1528 0.31982 0.45796 0.0
C2143 C 0.14429 0.28553 0.47849 0.0
C2144 C 0.16153 0.33915 0.47065 0.0
C2145 C 0.1616 0.33192 0.48712 0.0
H2146 H 0.6922 0.87012 0.50545 0.0
H2147 H 0.72889 0.8202 0.51068 0.0
H2148 H 0.71184 0.80051 0.48336 0.0
H2149 H 0.68269 0.79412 0.45941 0.0
H2150 H 0.64459 0.84265 0.45384 0.0
H2151 H 0.66616 0.86656 0.47974 0.0
C2152 C 0.69677 0.85528 0.5004 0.0
C2153 C 0.71144 0.84631 0.51 0.0
C2154 C 0.68642 0.84365 0.48476 0.0
C2155 C 0.71732 0.82707 0.50348 0.0
C2156 C 0.70758 0.81582 0.48791 0.0
C2157 C 0.67929 0.81006 0.46385 0.0
C2158 C 0.66178 0.81636 0.45502 0.0
C2159 C 0.69146 0.82337 0.47869 0.0
C2160 C 0.65792 0.83743 0.46058 0.0
C2161 C 0.67015 0.85098 0.47538 0.0
H2162 H 0.17421 0.85168 0.51649 0.0
H2163 H 0.10079 0.84906 0.49791 0.0
H2164 H 0.10972 0.83744 0.47036 0.0
H2165 H 0.1384 0.8275 0.4516 0.0
H2166 H 0.21396 0.83493 0.47037 0.0
H2167 H 0.20441 0.84596 0.49769 0.0
C2168 C 0.16037 0.84925 0.50642 0.0
C2169 C 0.13689 0.85141 0.50942 0.0
C2170 C 0.16603 0.84342 0.49056 0.0
C2171 C 0.11885 0.84718 0.49614 0.0
C2172 C 0.12406 0.84076 0.4803 0.0
C2173 C 0.15296 0.83189 0.4616 0.0
C2174 C 0.17661 0.82978 0.45894 0.0
C2175 C 0.14761 0.83877 0.47737 0.0
C2176 C 0.19519 0.83555 0.47211 0.0
C2177 C 0.18986 0.84206 0.48776 0.0
H2178 H 0.65963 0.80702 0.17597 0.0
H2179 H 0.58433 0.80187 0.19302 0.0
H2180 H 0.60307 0.81343 0.22103 0.0
H2181 H 0.6417 0.82668 0.24056 0.0
H2182 H 0.71507 0.8278 0.22351 0.0
H2183 H 0.69583 0.81553 0.19575 0.0
C2184 C 0.64693 0.80778 0.1858 0.0
C2185 C 0.6206 0.80373 0.18219 0.0
C2186 C 0.65753 0.81381 0.20197 0.0
C2187 C 0.60491 0.80546 0.19522 0.0
C2188 C 0.61552 0.81186 0.21133 0.0
C2189 C 0.65331 0.82384 0.23084 0.0
C2190 C 0.68009 0.82877 0.23411 0.0
C2191 C 0.64195 0.81635 0.21483 0.0
C2192 C 0.69477 0.82497 0.2213 0.0
C2193 C 0.68373 0.81777 0.2054 0.0
H2194 H 0.22222 0.81778 0.19102 0.0
H2195 H 0.15809 0.82028 0.16313 0.0
H2196 H 0.13972 0.82841 0.18852 0.0
H2197 H 0.14223 0.83541 0.21836 0.0
H2198 H 0.20919 0.83782 0.24618 0.0
H2199 H 0.22544 0.82618 0.22126 0.0
C2200 C 0.20418 0.82002 0.1906 0.0
C2201 C 0.19149 0.81852 0.17531 0.0
C2202 C 0.1941 0.82532 0.20522 0.0
C2203 C 0.16824 0.82158 0.1748 0.0
C2204 C 0.15771 0.82614 0.18929 0.0
C2205 C 0.16066 0.83387 0.21903 0.0
C2206 C 0.17439 0.83771 0.23426 0.0
C2207 C 0.17062 0.82829 0.20454 0.0
C2208 C 0.19776 0.83464 0.23479 0.0
C2209 C 0.20732 0.82824 0.22046 0.0
H2210 H 0.22901 0.37988 0.18037 0.0
H2211 H 0.15081 0.37632 0.1746 0.0
H2212 H 0.13597 0.3543 0.20127 0.0
H2213 H 0.14409 0.33391 0.22579 0.0
H2214 H 0.22287 0.3398 0.23274 0.0
H2215 H 0.23884 0.36354 0.2063 0.0
C2216 C 0.20889 0.37472 0.18502 0.0
C2217 C 0.1909 0.37933 0.17517 0.0
C2218 C 0.20056 0.36243 0.20064 0.0
C2219 C 0.16485 0.37231 0.18154 0.0
C2220 C 0.15637 0.35988 0.19692 0.0
C2221 C 0.16482 0.34066 0.22153 0.0
C2222 C 0.18227 0.33503 0.23101 0.0
C2223 C 0.17384 0.35444 0.20645 0.0
C2224 C 0.20916 0.34399 0.22555 0.0
C2225 C 0.21821 0.35744 0.21044 0.0
H2226 H 0.83417 0.60327 0.83852 0.0
H2227 H 0.77747 0.63046 0.8517 0.0
H2228 H 0.78474 0.65233 0.82508 0.0
H2229 H 0.80899 0.66601 0.79852 0.0
H2230 H 0.86242 0.63596 0.78407 0.0
H2231 H 0.85369 0.61197 0.81043 0.0
C2232 C 0.82287 0.61343 0.83554 0.0
C2233 C 0.80583 0.61565 0.84752 0.0
C2234 C 0.8264 0.62534 0.81986 0.0
C2235 C 0.79161 0.62917 0.84318 0.0
C2236 C 0.79546 0.64149 0.8278 0.0
C2237 C 0.81838 0.65387 0.8011 0.0
C2238 C 0.83646 0.65284 0.78954 0.0
C2239 C 0.81315 0.64011 0.81618 0.0
C2240 C 0.84837 0.63692 0.79285 0.0
C2241 C 0.84353 0.6234 0.80794 0.0
H2242 H 0.37747 0.21514 0.84144 0.0
H2243 H 0.3704 0.13746 0.84847 0.0
H2244 H 0.34888 0.12285 0.82134 0.0
H2245 H 0.32948 0.13114 0.79629 0.0
H2246 H 0.33852 0.20918 0.78838 0.0
H2247 H 0.36244 0.22498 0.81507 0.0
C2248 C 0.37172 0.1952 0.83692 0.0
C2249 C 0.37508 0.17727 0.84714 0.0
C2250 C 0.35964 0.18699 0.82119 0.0
C2251 C 0.36736 0.15144 0.84107 0.0
C2252 C 0.3552 0.14309 0.82551 0.0
C2253 C 0.33692 0.15163 0.80046 0.0
C2254 C 0.33212 0.16898 0.79074 0.0
C2255 C 0.35073 0.16049 0.81563 0.0
C2256 C 0.342 0.19559 0.7959 0.0
C2257 C 0.35557 0.20454 0.8111 0.0
H2258 H 0.84178 0.18682 0.8486 0.0
H2259 H 0.76648 0.18192 0.83156 0.0
H2260 H 0.77498 0.17133 0.80364 0.0
H2261 H 0.80368 0.1626 0.7841 0.0
H2262 H 0.88095 0.17229 0.80134 0.0
H2263 H 0.87208 0.18277 0.829 0.0
C2264 C 0.82741 0.18414 0.83881 0.0
C2265 C 0.80349 0.18526 0.84239 0.0
C2266 C 0.83281 0.17894 0.8227 0.0
C2267 C 0.78486 0.18076 0.82939 0.0
C2268 C 0.78983 0.17494 0.81333 0.0
C2269 C 0.81875 0.1674 0.79385 0.0
C2270 C 0.84269 0.16603 0.79066 0.0
C2271 C 0.81373 0.17387 0.80984 0.0
C2272 C 0.86197 0.17236 0.80349 0.0
C2273 C 0.85701 0.17851 0.81934 0.0
H2274 H 0.31285 0.18649 0.5163 0.0
H2275 H 0.31539 0.11285 0.51132 0.0
H2276 H 0.33825 0.12099 0.53804 0.0
H2277 H 0.35877 0.14951 0.56261 0.0
H2278 H 0.35318 0.22105 0.56893 0.0
H2279 H 0.32968 0.21295 0.54209 0.0
C2280 C 0.31797 0.17196 0.52113 0.0
C2281 C 0.3128 0.14933 0.51153 0.0
C2282 C 0.3306 0.1764 0.53677 0.0
C2283 C 0.31983 0.13089 0.51809 0.0
C2284 C 0.33272 0.13537 0.53348 0.0
C2285 C 0.35235 0.16326 0.55805 0.0
C2286 C 0.35796 0.18602 0.56747 0.0
C2287 C 0.33853 0.15821 0.54282 0.0
C2288 C 0.34915 0.20349 0.56173 0.0
C2289 C 0.33578 0.19887 0.54642 0.0
H2290 H 0.89515 0.17511 0.51754 0.0
H2291 H 0.8179 0.10441 0.50546 0.0
H2292 H 0.79828 0.1086 0.53145 0.0
H2293 H 0.80234 0.13342 0.55709 0.0
H2294 H 0.87969 0.20298 0.57007 0.0
H2295 H 0.90014 0.19832 0.54431 0.0
C2296 C 0.87405 0.16066 0.52066 0.0
C2297 C 0.85795 0.13953 0.50961 0.0
C2298 C 0.86294 0.16306 0.53574 0.0
C2299 C 0.83074 0.12072 0.51384 0.0
C2300 C 0.81947 0.12317 0.52865 0.0
C2301 C 0.8237 0.14743 0.55424 0.0
C2302 C 0.83951 0.16864 0.56522 0.0
C2303 C 0.83526 0.14438 0.5396 0.0
C2304 C 0.86724 0.18654 0.56167 0.0
C2305 C 0.87885 0.18391 0.54697 0.0
H2306 H 0.83441 0.72523 0.5141 0.0
H2307 H 0.90707 0.71906 0.50659 0.0
H2308 H 0.90061 0.69763 0.53351 0.0
H2309 H 0.87277 0.67807 0.55859 0.0
H2310 H 0.80043 0.68434 0.56638 0.0
H2311 H 0.80815 0.70817 0.54003 0.0
C2312 C 0.8488 0.71916 0.51835 0.0
C2313 C 0.87115 0.72371 0.50826 0.0
C2314 C 0.84499 0.70683 0.53392 0.0
C2315 C 0.88983 0.71606 0.51411 0.0
C2316 C 0.88608 0.70366 0.52949 0.0
C2317 C 0.85903 0.68511 0.55458 0.0
C2318 C 0.83618 0.67971 0.56433 0.0
C2319 C 0.86361 0.69869 0.53943 0.0
C2320 C 0.8183 0.68861 0.55907 0.0
C2321 C 0.82263 0.70205 0.54398 0.0
loop_
_geom_bond_atom_site_label_1
_geom_bond_atom_site_label_2
_geom_bond_distance
_geom_bond_site_symmetry_2
_ccdc_geom_bond_type
C0 C1 1.386 . S
C0 C2 1.397 . S
C0 H24 0.931 . S
C1 C0 1.386 . S
C1 C5 1.397 . S
C2 C0 1.397 . S
C2 C3 1.384 . S
C2 H25 0.930 . S
C3 C2 1.384 . S
C3 C4 1.377 . S
C3 C6 1.481 . S
C4 C3 1.377 . S
C4 C5 1.389 . S
C4 H26 0.929 . S
C5 C1 1.397 . S
C5 C4 1.389 . S
C5 H27 0.931 . S
C6 C3 1.481 . S
C6 C7 1.387 . S
C6 C11 1.390 . S
C7 C6 1.387 . S
C7 C8 1.401 . S
C7 H28 0.930 . S
C8 C7 1.401 . S
C8 C9 1.376 . S
C8 C17 1.511 . S
C9 C8 1.376 . S
C9 C10 1.392 . S
C9 H30 0.931 . S
C10 C9 1.392 . S
C10 C11 1.361 . S
C10 C12 1.500 . S
C11 C6 1.390 . S
C11 C10 1.361 . S
C11 H29 0.931 . S
C12 C10 1.500 . S
C12 C13 1.371 . S
C12 C14 1.365 . S
C13 C12 1.371 . S
C13 C23 1.386 . S
C13 H31 0.931 . S
C14 C12 1.365 . S
C14 C15 1.409 . S
C14 H32 0.929 . S
C15 C14 1.409 . S
C15 C16 1.380 . S
C15 H33 0.930 . S
C16 C15 1.380 . S
C16 C23 1.357 . S
C17 C8 1.511 . S
C17 C18 1.341 . S
C17 C19 1.371 . S
C18 C17 1.341 . S
C18 C22 1.394 . S
C18 H34 0.930 . S
C19 C17 1.371 . S
C19 C20 1.392 . S
C19 H35 0.931 . S
C20 C19 1.392 . S
C20 C21 1.331 . S
C20 H38 0.932 . S
C21 C20 1.331 . S
C21 C22 1.336 . S
C22 C18 1.394 . S
C22 C21 1.336 . S
C22 H37 0.929 . S
C23 C13 1.386 . S
C23 C16 1.357 . S
C23 H36 0.928 . S
H24 C0 0.931 . S
H25 C2 0.930 . S
H26 C4 0.929 . S
H27 C5 0.931 . S
H28 C7 0.930 . S
H29 C11 0.931 . S
H30 C9 0.931 . S
H31 C13 0.931 . S
H32 C14 0.929 . S
H33 C15 0.930 . S
H34 C18 0.930 . S
H35 C19 0.931 . S
H36 C23 0.928 . S
H37 C22 0.929 . S
H38 C20 0.932 . S
C39 C40 1.386 . S
C39 C41 1.397 . S
C39 H63 0.931 . S
C40 C39 1.386 . S
C40 C44 1.397 . S
C41 C39 1.397 . S
C41 C42 1.384 . S
C41 H64 0.930 . S
C42 C41 1.384 . S
C42 C43 1.377 . S
C42 C45 1.481 . S
C43 C42 1.377 . S
C43 C44 1.389 . S
C43 H65 0.929 . S
C44 C40 1.397 . S
C44 C43 1.389 . S
C44 H66 0.931 . S
C45 C42 1.481 . S
C45 C46 1.387 . S
C45 C50 1.390 . S
C46 C45 1.387 . S
C46 C47 1.401 . S
C46 H67 0.930 . S
C47 C46 1.401 . S
C47 C48 1.376 . S
C47 C56 1.511 . S
C48 C47 1.376 . S
C48 C49 1.392 . S
C48 H69 0.931 . S
C49 C48 1.392 . S
C49 C50 1.361 . S
C49 C51 1.500 . S
C50 C45 1.390 . S
C50 C49 1.361 . S
C50 H68 0.931 . S
C51 C49 1.500 . S
C51 C52 1.371 . S
C51 C53 1.365 . S
C52 C51 1.371 . S
C52 C62 1.386 . S
C52 H70 0.931 . S
C53 C51 1.365 . S
C53 C54 1.409 . S
C53 H71 0.929 . S
C54 C53 1.409 . S
C54 C55 1.380 . S
C54 H72 0.930 . S
C55 C54 1.380 . S
C55 C62 1.357 . S
C56 C47 1.511 . S
C56 C57 1.341 . S
C56 C58 1.371 . S
C57 C56 1.341 . S
C57 C61 1.394 . S
C57 H73 0.930 . S
C58 C56 1.371 . S
C58 C59 1.392 . S
C58 H74 0.931 . S
C59 C58 1.392 . S
C59 C60 1.331 . S
C59 H77 0.932 . S
C60 C59 1.331 . S
C60 C61 1.336 . S
C61 C57 1.394 . S
C61 C60 1.336 . S
C61 H76 0.929 . S
C62 C52 1.386 . S
C62 C55 1.357 . S
C62 H75 0.928 . S
H63 C39 0.931 . S
H64 C41 0.930 . S
H65 C43 0.929 . S
H66 C44 0.931 . S
H67 C46 0.930 . S
H68 C50 0.931 . S
H69 C48 0.931 . S
H70 C52 0.931 . S
H71 C53 0.929 . S
H72 C54 0.930 . S
H73 C57 0.930 . S
H74 C58 0.931 . S
H75 C62 0.928 . S
H76 C61 0.929 . S
H77 C59 0.932 . S
C78 C79 1.386 . S
C78 C80 1.397 . S
C78 H102 0.931 . S
C79 C78 1.386 . S
C79 C83 1.397 . S
C80 C78 1.397 . S
C80 C81 1.384 . S
C80 H103 0.930 . S
C81 C80 1.384 . S
C81 C82 1.377 . S
C81 C84 1.481 . S
C82 C81 1.377 . S
C82 C83 1.389 . S
C82 H104 0.929 . S
C83 C79 1.397 . S
C83 C82 1.389 . S
C83 H105 0.931 . S
C84 C81 1.481 . S
C84 C85 1.387 . S
C84 C89 1.390 . S
C85 C84 1.387 . S
C85 C86 1.401 . S
C85 H106 0.930 . S
C86 C85 1.401 . S
C86 C87 1.376 . S
C86 C95 1.511 . S
C87 C86 1.376 . S
C87 C88 1.392 . S
C87 H108 0.931 . S
C88 C87 1.392 . S
C88 C89 1.361 . S
C88 C90 1.500 . S
C89 C84 1.390 . S
C89 C88 1.361 . S
C89 H107 0.931 . S
C90 C88 1.500 . S
C90 C91 1.371 . S
C90 C92 1.365 . S
C91 C90 1.371 . S
C91 C101 1.386 . S
C91 H109 0.931 . S
C92 C90 1.365 . S
C92 C93 1.409 . S
C92 H110 0.929 . S
C93 C92 1.409 . S
C93 C94 1.380 . S
C93 H111 0.930 . S
C94 C93 1.380 . S
C94 C101 1.357 . S
C95 C86 1.511 . S
C95 C96 1.341 . S
C95 C97 1.371 . S
C96 C95 1.341 . S
C96 C100 1.394 . S
C96 H112 0.930 . S
C97 C95 1.371 . S
C97 C98 1.392 . S
C97 H113 0.931 . S
C98 C97 1.392 . S
C98 C99 1.331 . S
C98 H116 0.932 . S
C99 C98 1.331 . S
C99 C100 1.336 . S
C100 C96 1.394 . S
C100 C99 1.336 . S
C100 H115 0.929 . S
C101 C91 1.386 . S
C101 C94 1.357 . S
C101 H114 0.928 . S
H102 C78 0.931 . S
H103 C80 0.930 . S
H104 C82 0.929 . S
H105 C83 0.931 . S
H106 C85 0.930 . S
H107 C89 0.931 . S
H108 C87 0.931 . S
H109 C91 0.931 . S
H110 C92 0.929 . S
H111 C93 0.930 . S
H112 C96 0.930 . S
H113 C97 0.931 . S
H114 C101 0.928 . S
H115 C100 0.929 . S
H116 C98 0.932 . S
C117 C118 1.386 . S
C117 C119 1.397 . S
C117 H141 0.931 . S
C118 C117 1.386 . S
C118 C122 1.397 . S
C119 C117 1.397 . S
C119 C120 1.384 . S
C119 H142 0.930 . S
C120 C119 1.384 . S
C120 C121 1.377 . S
C120 C123 1.481 . S
C121 C120 1.377 . S
C121 C122 1.389 . S
C121 H143 0.929 . S
C122 C118 1.397 . S
C122 C121 1.389 . S
C122 H144 0.931 . S
C123 C120 1.481 . S
C123 C124 1.387 . S
C123 C128 1.390 . S
C124 C123 1.387 . S
C124 C125 1.401 . S
C124 H145 0.930 . S
C125 C124 1.401 . S
C125 C126 1.376 . S
C125 C134 1.511 . S
C126 C125 1.376 . S
C126 C127 1.392 . S
C126 H147 0.931 . S
C127 C126 1.392 . S
C127 C128 1.361 . S
C127 C129 1.500 . S
C128 C123 1.390 . S
C128 C127 1.361 . S
C128 H146 0.931 . S
C129 C127 1.500 . S
C129 C130 1.371 . S
C129 C131 1.365 . S
C130 C129 1.371 . S
C130 C140 1.386 . S
C130 H148 0.931 . S
C131 C129 1.365 . S
C131 C132 1.409 . S
C131 H149 0.929 . S
C132 C131 1.409 . S
C132 C133 1.380 . S
C132 H150 0.930 . S
C133 C132 1.380 . S
C133 C140 1.357 . S
C134 C125 1.511 . S
C134 C135 1.341 . S
C134 C136 1.371 . S
C135 C134 1.341 . S
C135 C139 1.394 . S
C135 H151 0.930 . S
C136 C134 1.371 . S
C136 C137 1.392 . S
C136 H152 0.931 . S
C137 C136 1.392 . S
C137 C138 1.331 . S
C137 H155 0.932 . S
C138 C137 1.331 . S
C138 C139 1.336 . S
C139 C135 1.394 . S
C139 C138 1.336 . S
C139 H154 0.929 . S
C140 C130 1.386 . S
C140 C133 1.357 . S
C140 H153 0.928 . S
H141 C117 0.931 . S
H142 C119 0.930 . S
H143 C121 0.929 . S
H144 C122 0.931 . S
H145 C124 0.930 . S
H146 C128 0.931 . S
H147 C126 0.931 . S
H148 C130 0.931 . S
H149 C131 0.929 . S
H150 C132 0.930 . S
H151 C135 0.930 . S
H152 C136 0.931 . S
H153 C140 0.928 . S
H154 C139 0.929 . S
H155 C137 0.932 . S
C156 C157 1.386 . S
C156 C158 1.397 . S
C156 H180 0.931 . S
C157 C156 1.386 . S
C157 C161 1.397 . S
C158 C156 1.397 . S
C158 C159 1.384 . S
C158 H181 0.930 . S
C159 C158 1.384 . S
C159 C160 1.377 . S
C159 C162 1.481 . S
C160 C159 1.377 . S
C160 C161 1.389 . S
C160 H182 0.929 . S
C161 C157 1.397 . S
C161 C160 1.389 . S
C161 H183 0.931 . S
C162 C159 1.481 . S
C162 C163 1.387 . S
C162 C167 1.390 . S
C163 C162 1.387 . S
C163 C164 1.401 . S
C163 H184 0.930 . S
C164 C163 1.401 . S
C164 C165 1.376 . S
C164 C173 1.511 . S
C165 C164 1.376 . S
C165 C166 1.392 . S
C165 H186 0.931 . S
C166 C165 1.392 . S
C166 C167 1.361 . S
C166 C168 1.500 . S
C167 C162 1.390 . S
C167 C166 1.361 . S
C167 H185 0.931 . S
C168 C166 1.500 . S
C168 C169 1.371 . S
C168 C170 1.365 . S
C169 C168 1.371 . S
C169 C179 1.386 . S
C169 H187 0.931 . S
C170 C168 1.365 . S
C170 C171 1.409 . S
C170 H188 0.929 . S
C171 C170 1.409 . S
C171 C172 1.380 . S
C171 H189 0.930 . S
C172 C171 1.380 . S
C172 C179 1.357 . S
C173 C164 1.511 . S
C173 C174 1.341 . S
C173 C175 1.371 . S
C174 C173 1.341 . S
C174 C178 1.394 . S
C174 H190 0.930 . S
C175 C173 1.371 . S
C175 C176 1.392 . S
C175 H191 0.931 . S
C176 C175 1.392 . S
C176 C177 1.331 . S
C176 H194 0.932 . S
C177 C176 1.331 . S
C177 C178 1.336 . S
C178 C174 1.394 . S
C178 C177 1.336 . S
C178 H193 0.929 . S
C179 C169 1.386 . S
C179 C172 1.357 . S
C179 H192 0.928 . S
H180 C156 0.931 . S
H181 C158 0.930 . S
H182 C160 0.929 . S
H183 C161 0.931 . S
H184 C163 0.930 . S
H185 C167 0.931 . S
H186 C165 0.931 . S
H187 C169 0.931 . S
H188 C170 0.929 . S
H189 C171 0.930 . S
H190 C174 0.930 . S
H191 C175 0.931 . S
H192 C179 0.928 . S
H193 C178 0.929 . S
H194 C176 0.932 . S
C195 C196 1.386 . S
C195 C197 1.397 . S
C195 H219 0.931 . S
C196 C195 1.386 . S
C196 C200 1.397 . S
C197 C195 1.397 . S
C197 C198 1.384 . S
C197 H220 0.930 . S
C198 C197 1.384 . S
C198 C199 1.377 . S
C198 C201 1.481 . S
C199 C198 1.377 . S
C199 C200 1.389 . S
C199 H221 0.929 . S
C200 C196 1.397 . S
C200 C199 1.389 . S
C200 H222 0.931 . S
C201 C198 1.481 . S
C201 C202 1.387 . S
C201 C206 1.390 . S
C202 C201 1.387 . S
C202 C203 1.401 . S
C202 H223 0.930 . S
C203 C202 1.401 . S
C203 C204 1.376 . S
C203 C212 1.511 . S
C204 C203 1.376 . S
C204 C205 1.392 . S
C204 H225 0.931 . S
C205 C204 1.392 . S
C205 C206 1.361 . S
C205 C207 1.500 . S
C206 C201 1.390 . S
C206 C205 1.361 . S
C206 H224 0.931 . S
C207 C205 1.500 . S
C207 C208 1.371 . S
C207 C209 1.365 . S
C208 C207 1.371 . S
C208 C218 1.386 . S
C208 H226 0.931 . S
C209 C207 1.365 . S
C209 C210 1.409 . S
C209 H227 0.929 . S
C210 C209 1.409 . S
C210 C211 1.380 . S
C210 H228 0.930 . S
C211 C210 1.380 . S
C211 C218 1.357 . S
C212 C203 1.511 . S
C212 C213 1.341 . S
C212 C214 1.371 . S
C213 C212 1.341 . S
C213 C217 1.394 . S
C213 H229 0.930 . S
C214 C212 1.371 . S
C214 C215 1.392 . S
C214 H230 0.931 . S
C215 C214 1.392 . S
C215 C216 1.331 . S
C215 H233 0.932 . S
C216 C215 1.331 . S
C216 C217 1.336 . S
C217 C213 1.394 . S
C217 C216 1.336 . S
C217 H232 0.929 . S
C218 C208 1.386 . S
C218 C211 1.357 . S
C218 H231 0.928 . S
H219 C195 0.931 . S
H220 C197 0.930 . S
H221 C199 0.929 . S
H222 C200 0.931 . S
H223 C202 0.930 . S
H224 C206 0.931 . S
H225 C204 0.931 . S
H226 C208 0.931 . S
H227 C209 0.929 . S
H228 C210 0.930 . S
H229 C213 0.930 . S
H230 C214 0.931 . S
H231 C218 0.928 . S
H232 C217 0.929 . S
H233 C215 0.932 . S
C234 C235 1.386 . S
C234 C236 1.397 . S
C234 H258 0.931 . S
C235 C234 1.386 . S
C235 C239 1.397 . S
C236 C234 1.397 . S
C236 C237 1.384 . S
C236 H259 0.930 . S
C237 C236 1.384 . S
C237 C238 1.377 . S
C237 C240 1.481 . S
C238 C237 1.377 . S
C238 C239 1.389 . S
C238 H260 0.929 . S
C239 C235 1.397 . S
C239 C238 1.389 . S
C239 H261 0.931 . S
C240 C237 1.481 . S
C240 C241 1.387 . S
C240 C245 1.390 . S
C241 C240 1.387 . S
C241 C242 1.401 . S
C241 H262 0.930 . S
C242 C241 1.401 . S
C242 C243 1.376 . S
C242 C251 1.511 . S
C243 C242 1.376 . S
C243 C244 1.392 . S
C243 H264 0.931 . S
C244 C243 1.392 . S
C244 C245 1.361 . S
C244 C246 1.500 . S
C245 C240 1.390 . S
C245 C244 1.361 . S
C245 H263 0.931 . S
C246 C244 1.500 . S
C246 C247 1.371 . S
C246 C248 1.365 . S
C247 C246 1.371 . S
C247 C257 1.386 . S
C247 H265 0.931 . S
C248 C246 1.365 . S
C248 C249 1.409 . S
C248 H266 0.929 . S
C249 C248 1.409 . S
C249 C250 1.380 . S
C249 H267 0.930 . S
C250 C249 1.380 . S
C250 C257 1.357 . S
C251 C242 1.511 . S
C251 C252 1.341 . S
C251 C253 1.371 . S
C252 C251 1.341 . S
C252 C256 1.394 . S
C252 H268 0.930 . S
C253 C251 1.371 . S
C253 C254 1.392 . S
C253 H269 0.931 . S
C254 C253 1.392 . S
C254 C255 1.331 . S
C254 H272 0.932 . S
C255 C254 1.331 . S
C255 C256 1.336 . S
C256 C252 1.394 . S
C256 C255 1.336 . S
C256 H271 0.929 . S
C257 C247 1.386 . S
C257 C250 1.357 . S
C257 H270 0.928 . S
H258 C234 0.931 . S
H259 C236 0.930 . S
H260 C238 0.929 . S
H261 C239 0.931 . S
H262 C241 0.930 . S
H263 C245 0.931 . S
H264 C243 0.931 . S
H265 C247 0.931 . S
H266 C248 0.929 . S
H267 C249 0.930 . S
H268 C252 0.930 . S
H269 C253 0.931 . S
H270 C257 0.928 . S
H271 C256 0.929 . S
H272 C254 0.932 . S
C273 C274 1.386 . S
C273 C275 1.397 . S
C273 H297 0.931 . S
C274 C273 1.386 . S
C274 C278 1.397 . S
C275 C273 1.397 . S
C275 C276 1.384 . S
C275 H298 0.930 . S
C276 C275 1.384 . S
C276 C277 1.377 . S
C276 C279 1.481 . S
C277 C276 1.377 . S
C277 C278 1.389 . S
C277 H299 0.929 . S
C278 C274 1.397 . S
C278 C277 1.389 . S
C278 H300 0.931 . S
C279 C276 1.481 . S
C279 C280 1.387 . S
C279 C284 1.390 . S
C280 C279 1.387 . S
C280 C281 1.401 . S
C280 H301 0.930 . S
C281 C280 1.401 . S
C281 C282 1.376 . S
C281 C290 1.511 . S
C282 C281 1.376 . S
C282 C283 1.392 . S
C282 H303 0.931 . S
C283 C282 1.392 . S
C283 C284 1.361 . S
C283 C285 1.500 . S
C284 C279 1.390 . S
C284 C283 1.361 . S
C284 H302 0.931 . S
C285 C283 1.500 . S
C285 C286 1.371 . S
C285 C287 1.365 . S
C286 C285 1.371 . S
C286 C296 1.386 . S
C286 H304 0.931 . S
C287 C285 1.365 . S
C287 C288 1.409 . S
C287 H305 0.929 . S
C288 C287 1.409 . S
C288 C289 1.380 . S
C288 H306 0.930 . S
C289 C288 1.380 . S
C289 C296 1.357 . S
C290 C281 1.511 . S
C290 C291 1.341 . S
C290 C292 1.371 . S
C291 C290 1.341 . S
C291 C295 1.394 . S
C291 H307 0.930 . S
C292 C290 1.371 . S
C292 C293 1.392 . S
C292 H308 0.931 . S
C293 C292 1.392 . S
C293 C294 1.331 . S
C293 H311 0.932 . S
C294 C293 1.331 . S
C294 C295 1.336 . S
C295 C291 1.394 . S
C295 C294 1.336 . S
C295 H310 0.929 . S
C296 C286 1.386 . S
C296 C289 1.357 . S
C296 H309 0.928 . S
H297 C273 0.931 . S
H298 C275 0.930 . S
H299 C277 0.929 . S
H300 C278 0.931 . S
H301 C280 0.930 . S
H302 C284 0.931 . S
H303 C282 0.931 . S
H304 C286 0.931 . S
H305 C287 0.929 . S
H306 C288 0.930 . S
H307 C291 0.930 . S
H308 C292 0.931 . S
H309 C296 0.928 . S
H310 C295 0.929 . S
H311 C293 0.932 . S
C312 C313 1.386 . S
C312 C314 1.397 . S
C312 H336 0.931 . S
C313 C312 1.386 . S
C313 C317 1.397 . S
C314 C312 1.397 . S
C314 C315 1.384 . S
C314 H337 0.930 . S
C315 C314 1.384 . S
C315 C316 1.377 . S
C315 C318 1.481 . S
C316 C315 1.377 . S
C316 C317 1.389 . S
C316 H338 0.929 . S
C317 C313 1.397 . S
C317 C316 1.389 . S
C317 H339 0.931 . S
C318 C315 1.481 . S
C318 C319 1.387 . S
C318 C323 1.390 . S
C319 C318 1.387 . S
C319 C320 1.401 . S
C319 H340 0.930 . S
C320 C319 1.401 . S
C320 C321 1.376 . S
C320 C329 1.511 . S
C321 C320 1.376 . S
C321 C322 1.392 . S
C321 H342 0.931 . S
C322 C321 1.392 . S
C322 C323 1.361 . S
C322 C324 1.500 . S
C323 C318 1.390 . S
C323 C322 1.361 . S
C323 H341 0.931 . S
C324 C322 1.500 . S
C324 C325 1.371 . S
C324 C326 1.365 . S
C325 C324 1.371 . S
C325 C335 1.386 . S
C325 H343 0.931 . S
C326 C324 1.365 . S
C326 C327 1.409 . S
C326 H344 0.929 . S
C327 C326 1.409 . S
C327 C328 1.380 . S
C327 H345 0.930 . S
C328 C327 1.380 . S
C328 C335 1.357 . S
C329 C320 1.511 . S
C329 C330 1.341 . S
C329 C331 1.371 . S
C330 C329 1.341 . S
C330 C334 1.394 . S
C330 H346 0.930 . S
C331 C329 1.371 . S
C331 C332 1.392 . S
C331 H347 0.931 . S
C332 C331 1.392 . S
C332 C333 1.331 . S
C332 H350 0.932 . S
C333 C332 1.331 . S
C333 C334 1.336 . S
C334 C330 1.394 . S
C334 C333 1.336 . S
C334 H349 0.929 . S
C335 C325 1.386 . S
C335 C328 1.357 . S
C335 H348 0.928 . S
H336 C312 0.931 . S
H337 C314 0.930 . S
H338 C316 0.929 . S
H339 C317 0.931 . S
H340 C319 0.930 . S
H341 C323 0.931 . S
H342 C321 0.931 . S
H343 C325 0.931 . S
H344 C326 0.929 . S
H345 C327 0.930 . S
H346 C330 0.930 . S
H347 C331 0.931 . S
H348 C335 0.928 . S
H349 C334 0.929 . S
H350 C332 0.932 . S
C351 C352 1.386 . S
C351 C353 1.397 . S
C351 H375 0.931 . S
C352 C351 1.386 . S
C352 C356 1.397 . S
C353 C351 1.397 . S
C353 C354 1.384 . S
C353 H376 0.930 . S
C354 C353 1.384 . S
C354 C355 1.377 . S
C354 C357 1.481 . S
C355 C354 1.377 . S
C355 C356 1.389 . S
C355 H377 0.929 . S
C356 C352 1.397 . S
C356 C355 1.389 . S
C356 H378 0.931 . S
C357 C354 1.481 . S
C357 C358 1.387 . S
C357 C362 1.390 . S
C358 C357 1.387 . S
C358 C359 1.401 . S
C358 H379 0.930 . S
C359 C358 1.401 . S
C359 C360 1.376 . S
C359 C368 1.511 . S
C360 C359 1.376 . S
C360 C361 1.392 . S
C360 H381 0.931 . S
C361 C360 1.392 . S
C361 C362 1.361 . S
C361 C363 1.500 . S
C362 C357 1.390 . S
C362 C361 1.361 . S
C362 H380 0.931 . S
C363 C361 1.500 . S
C363 C364 1.371 . S
C363 C365 1.365 . S
C364 C363 1.371 . S
C364 C374 1.386 . S
C364 H382 0.931 . S
C365 C363 1.365 . S
C365 C366 1.409 . S
C365 H383 0.929 . S
C366 C365 1.409 . S
C366 C367 1.380 . S
C366 H384 0.930 . S
C367 C366 1.380 . S
C367 C374 1.357 . S
C368 C359 1.511 . S
C368 C369 1.341 . S
C368 C370 1.371 . S
C369 C368 1.341 . S
C369 C373 1.394 . S
C369 H385 0.930 . S
C370 C368 1.371 . S
C370 C371 1.392 . S
C370 H386 0.931 . S
C371 C370 1.392 . S
C371 C372 1.331 . S
C371 H389 0.932 . S
C372 C371 1.331 . S
C372 C373 1.336 . S
C373 C369 1.394 . S
C373 C372 1.336 . S
C373 H388 0.929 . S
C374 C364 1.386 . S
C374 C367 1.357 . S
C374 H387 0.928 . S
H375 C351 0.931 . S
H376 C353 0.930 . S
H377 C355 0.929 . S
H378 C356 0.931 . S
H379 C358 0.930 . S
H380 C362 0.931 . S
H381 C360 0.931 . S
H382 C364 0.931 . S
H383 C365 0.929 . S
H384 C366 0.930 . S
H385 C369 0.930 . S
H386 C370 0.931 . S
H387 C374 0.928 . S
H388 C373 0.929 . S
H389 C371 0.932 . S
C390 C391 1.386 . S
C390 C392 1.397 . S
C390 H414 0.931 . S
C391 C390 1.386 . S
C391 C395 1.397 . S
C392 C390 1.397 . S
C392 C393 1.384 . S
C392 H415 0.930 . S
C393 C392 1.384 . S
C393 C394 1.377 . S
C393 C396 1.481 . S
C394 C393 1.377 . S
C394 C395 1.389 . S
C394 H416 0.929 . S
C395 C391 1.397 . S
C395 C394 1.389 . S
C395 H417 0.931 . S
C396 C393 1.481 . S
C396 C397 1.387 . S
C396 C401 1.390 . S
C397 C396 1.387 . S
C397 C398 1.401 . S
C397 H418 0.930 . S
C398 C397 1.401 . S
C398 C399 1.376 . S
C398 C407 1.511 . S
C399 C398 1.376 . S
C399 C400 1.392 . S
C399 H420 0.931 . S
C400 C399 1.392 . S
C400 C401 1.361 . S
C400 C402 1.500 . S
C401 C396 1.390 . S
C401 C400 1.361 . S
C401 H419 0.931 . S
C402 C400 1.500 . S
C402 C403 1.371 . S
C402 C404 1.365 . S
C403 C402 1.371 . S
C403 C413 1.386 . S
C403 H421 0.931 . S
C404 C402 1.365 . S
C404 C405 1.409 . S
C404 H422 0.929 . S
C405 C404 1.409 . S
C405 C406 1.380 . S
C405 H423 0.930 . S
C406 C405 1.380 . S
C406 C413 1.357 . S
C407 C398 1.511 . S
C407 C408 1.341 . S
C407 C409 1.371 . S
C408 C407 1.341 . S
C408 C412 1.394 . S
C408 H424 0.930 . S
C409 C407 1.371 . S
C409 C410 1.392 . S
C409 H425 0.931 . S
C410 C409 1.392 . S
C410 C411 1.331 . S
C410 H428 0.932 . S
C411 C410 1.331 . S
C411 C412 1.336 . S
C412 C408 1.394 . S
C412 C411 1.336 . S
C412 H427 0.929 . S
C413 C403 1.386 . S
C413 C406 1.357 . S
C413 H426 0.928 . S
H414 C390 0.931 . S
H415 C392 0.930 . S
H416 C394 0.929 . S
H417 C395 0.931 . S
H418 C397 0.930 . S
H419 C401 0.931 . S
H420 C399 0.931 . S
H421 C403 0.931 . S
H422 C404 0.929 . S
H423 C405 0.930 . S
H424 C408 0.930 . S
H425 C409 0.931 . S
H426 C413 0.928 . S
H427 C412 0.929 . S
H428 C410 0.932 . S
C429 C430 1.386 . S
C429 C431 1.397 . S
C429 H453 0.931 . S
C430 C429 1.386 . S
C430 C434 1.397 . S
C431 C429 1.397 . S
C431 C432 1.384 . S
C431 H454 0.930 . S
C432 C431 1.384 . S
C432 C433 1.377 . S
C432 C435 1.481 . S
C433 C432 1.377 . S
C433 C434 1.389 . S
C433 H455 0.929 . S
C434 C430 1.397 . S
C434 C433 1.389 . S
C434 H456 0.931 . S
C435 C432 1.481 . S
C435 C436 1.387 . S
C435 C440 1.390 . S
C436 C435 1.387 . S
C436 C437 1.401 . S
C436 H457 0.930 . S
C437 C436 1.401 . S
C437 C438 1.376 . S
C437 C446 1.511 . S
C438 C437 1.376 . S
C438 C439 1.392 . S
C438 H459 0.931 . S
C439 C438 1.392 . S
C439 C440 1.361 . S
C439 C441 1.500 . S
C440 C435 1.390 . S
C440 C439 1.361 . S
C440 H458 0.931 . S
C441 C439 1.500 . S
C441 C442 1.371 . S
C441 C443 1.365 . S
C442 C441 1.371 . S
C442 C452 1.386 . S
C442 H460 0.931 . S
C443 C441 1.365 . S
C443 C444 1.409 . S
C443 H461 0.929 . S
C444 C443 1.409 . S
C444 C445 1.380 . S
C444 H462 0.930 . S
C445 C444 1.380 . S
C445 C452 1.357 . S
C446 C437 1.511 . S
C446 C447 1.341 . S
C446 C448 1.371 . S
C447 C446 1.341 . S
C447 C451 1.394 . S
C447 H463 0.930 . S
C448 C446 1.371 . S
C448 C449 1.392 . S
C448 H464 0.931 . S
C449 C448 1.392 . S
C449 C450 1.331 . S
C449 H467 0.932 . S
C450 C449 1.331 . S
C450 C451 1.336 . S
C451 C447 1.394 . S
C451 C450 1.336 . S
C451 H466 0.929 . S
C452 C442 1.386 . S
C452 C445 1.357 . S
C452 H465 0.928 . S
H453 C429 0.931 . S
H454 C431 0.930 . S
H455 C433 0.929 . S
H456 C434 0.931 . S
H457 C436 0.930 . S
H458 C440 0.931 . S
H459 C438 0.931 . S
H460 C442 0.931 . S
H461 C443 0.929 . S
H462 C444 0.930 . S
H463 C447 0.930 . S
H464 C448 0.931 . S
H465 C452 0.928 . S
H466 C451 0.929 . S
H467 C449 0.932 . S
C468 C469 1.386 . S
C468 C470 1.397 . S
C468 H492 0.931 . S
C469 C468 1.386 . S
C469 C473 1.397 . S
C470 C468 1.397 . S
C470 C471 1.384 . S
C470 H493 0.930 . S
C471 C470 1.384 . S
C471 C472 1.377 . S
C471 C474 1.481 . S
C472 C471 1.377 . S
C472 C473 1.389 . S
C472 H494 0.929 . S
C473 C469 1.397 . S
C473 C472 1.389 . S
C473 H495 0.931 . S
C474 C471 1.481 . S
C474 C475 1.387 . S
C474 C479 1.390 . S
C475 C474 1.387 . S
C475 C476 1.401 . S
C475 H496 0.930 . S
C476 C475 1.401 . S
C476 C477 1.376 . S
C476 C485 1.511 . S
C477 C476 1.376 . S
C477 C478 1.392 . S
C477 H498 0.931 . S
C478 C477 1.392 . S
C478 C479 1.361 . S
C478 C480 1.500 . S
C479 C474 1.390 . S
C479 C478 1.361 . S
C479 H497 0.931 . S
C480 C478 1.500 . S
C480 C481 1.371 . S
C480 C482 1.365 . S
C481 C480 1.371 . S
C481 C491 1.386 . S
C481 H499 0.931 . S
C482 C480 1.365 . S
C482 C483 1.409 . S
C482 H500 0.929 . S
C483 C482 1.409 . S
C483 C484 1.380 . S
C483 H501 0.930 . S
C484 C483 1.380 . S
C484 C491 1.357 . S
C485 C476 1.511 . S
C485 C486 1.341 . S
C485 C487 1.371 . S
C486 C485 1.341 . S
C486 C490 1.394 . S
C486 H502 0.930 . S
C487 C485 1.371 . S
C487 C488 1.392 . S
C487 H503 0.931 . S
C488 C487 1.392 . S
C488 C489 1.331 . S
C488 H506 0.932 . S
C489 C488 1.331 . S
C489 C490 1.336 . S
C490 C486 1.394 . S
C490 C489 1.336 . S
C490 H505 0.929 . S
C491 C481 1.386 . S
C491 C484 1.357 . S
C491 H504 0.928 . S
H492 C468 0.931 . S
H493 C470 0.930 . S
H494 C472 0.929 . S
H495 C473 0.931 . S
H496 C475 0.930 . S
H497 C479 0.931 . S
H498 C477 0.931 . S
H499 C481 0.931 . S
H500 C482 0.929 . S
H501 C483 0.930 . S
H502 C486 0.930 . S
H503 C487 0.931 . S
H504 C491 0.928 . S
H505 C490 0.929 . S
H506 C488 0.932 . S
C507 C508 1.386 . S
C507 C509 1.397 . S
C507 H531 0.931 . S
C508 C507 1.386 . S
C508 C512 1.397 . S
C509 C507 1.397 . S
C509 C510 1.384 . S
C509 H532 0.930 . S
C510 C509 1.384 . S
C510 C511 1.377 . S
C510 C513 1.481 . S
C511 C510 1.377 . S
C511 C512 1.389 . S
C511 H533 0.929 . S
C512 C508 1.397 . S
C512 C511 1.389 . S
C512 H534 0.931 . S
C513 C510 1.481 . S
C513 C514 1.387 . S
C513 C518 1.390 . S
C514 C513 1.387 . S
C514 C515 1.401 . S
C514 H535 0.930 . S
C515 C514 1.401 . S
C515 C516 1.376 . S
C515 C524 1.511 . S
C516 C515 1.376 . S
C516 C517 1.392 . S
C516 H537 0.931 . S
C517 C516 1.392 . S
C517 C518 1.361 . S
C517 C519 1.500 . S
C518 C513 1.390 . S
C518 C517 1.361 . S
C518 H536 0.931 . S
C519 C517 1.500 . S
C519 C520 1.371 . S
C519 C521 1.365 . S
C520 C519 1.371 . S
C520 C530 1.386 . S
C520 H538 0.931 . S
C521 C519 1.365 . S
C521 C522 1.409 . S
C521 H539 0.929 . S
C522 C521 1.409 . S
C522 C523 1.380 . S
C522 H540 0.930 . S
C523 C522 1.380 . S
C523 C530 1.357 . S
C524 C515 1.511 . S
C524 C525 1.341 . S
C524 C526 1.371 . S
C525 C524 1.341 . S
C525 C529 1.394 . S
C525 H541 0.930 . S
C526 C524 1.371 . S
C526 C527 1.392 . S
C526 H542 0.931 . S
C527 C526 1.392 . S
C527 C528 1.331 . S
C527 H545 0.932 . S
C528 C527 1.331 . S
C528 C529 1.336 . S
C529 C525 1.394 . S
C529 C528 1.336 . S
C529 H544 0.929 . S
C530 C520 1.386 . S
C530 C523 1.357 . S
C530 H543 0.928 . S
H531 C507 0.931 . S
H532 C509 0.930 . S
H533 C511 0.929 . S
H534 C512 0.931 . S
H535 C514 0.930 . S
H536 C518 0.931 . S
H537 C516 0.931 . S
H538 C520 0.931 . S
H539 C521 0.929 . S
H540 C522 0.930 . S
H541 C525 0.930 . S
H542 C526 0.931 . S
H543 C530 0.928 . S
H544 C529 0.929 . S
H545 C527 0.932 . S
C546 C547 1.386 . S
C546 C548 1.397 . S
C546 H570 0.931 . S
C547 C546 1.386 . S
C547 C551 1.397 . S
C548 C546 1.397 . S
C548 C549 1.384 . S
C548 H571 0.930 . S
C549 C548 1.384 . S
C549 C550 1.377 . S
C549 C552 1.481 . S
C550 C549 1.377 . S
C550 C551 1.389 . S
C550 H572 0.929 . S
C551 C547 1.397 . S
C551 C550 1.389 . S
C551 H573 0.931 . S
C552 C549 1.481 . S
C552 C553 1.387 . S
C552 C557 1.390 . S
C553 C552 1.387 . S
C553 C554 1.401 . S
C553 H574 0.930 . S
C554 C553 1.401 . S
C554 C555 1.376 . S
C554 C563 1.511 . S
C555 C554 1.376 . S
C555 C556 1.392 . S
C555 H576 0.931 . S
C556 C555 1.392 . S
C556 C557 1.361 . S
C556 C558 1.500 . S
C557 C552 1.390 . S
C557 C556 1.361 . S
C557 H575 0.931 . S
C558 C556 1.500 . S
C558 C559 1.371 . S
C558 C560 1.365 . S
C559 C558 1.371 . S
C559 C569 1.386 . S
C559 H577 0.931 . S
C560 C558 1.365 . S
C560 C561 1.409 . S
C560 H578 0.929 . S
C561 C560 1.409 . S
C561 C562 1.380 . S
C561 H579 0.930 . S
C562 C561 1.380 . S
C562 C569 1.357 . S
C563 C554 1.511 . S
C563 C564 1.341 . S
C563 C565 1.371 . S
C564 C563 1.341 . S
C564 C568 1.394 . S
C564 H580 0.930 . S
C565 C563 1.371 . S
C565 C566 1.392 . S
C565 H581 0.931 . S
C566 C565 1.392 . S
C566 C567 1.331 . S
C566 H584 0.932 . S
C567 C566 1.331 . S
C567 C568 1.336 . S
C568 C564 1.394 . S
C568 C567 1.336 . S
C568 H583 0.929 . S
C569 C559 1.386 . S
C569 C562 1.357 . S
C569 H582 0.928 . S
H570 C546 0.931 . S
H571 C548 0.930 . S
H572 C550 0.929 . S
H573 C551 0.931 . S
H574 C553 0.930 . S
H575 C557 0.931 . S
H576 C555 0.931 . S
H577 C559 0.931 . S
H578 C560 0.929 . S
H579 C561 0.930 . S
H580 C564 0.930 . S
H581 C565 0.931 . S
H582 C569 0.928 . S
H583 C568 0.929 . S
H584 C566 0.932 . S
C585 C586 1.386 . S
C585 C587 1.397 . S
C585 H609 0.931 . S
C586 C585 1.386 . S
C586 C590 1.397 . S
C587 C585 1.397 . S
C587 C588 1.384 . S
C587 H610 0.930 . S
C588 C587 1.384 . S
C588 C589 1.377 . S
C588 C591 1.481 . S
C589 C588 1.377 . S
C589 C590 1.389 . S
C589 H611 0.929 . S
C590 C586 1.397 . S
C590 C589 1.389 . S
C590 H612 0.931 . S
C591 C588 1.481 . S
C591 C592 1.387 . S
C591 C596 1.390 . S
C592 C591 1.387 . S
C592 C593 1.401 . S
C592 H613 0.930 . S
C593 C592 1.401 . S
C593 C594 1.376 . S
C593 C602 1.511 . S
C594 C593 1.376 . S
C594 C595 1.392 . S
C594 H615 0.931 . S
C595 C594 1.392 . S
C595 C596 1.361 . S
C595 C597 1.500 . S
C596 C591 1.390 . S
C596 C595 1.361 . S
C596 H614 0.931 . S
C597 C595 1.500 . S
C597 C598 1.371 . S
C597 C599 1.365 . S
C598 C597 1.371 . S
C598 C608 1.386 . S
C598 H616 0.931 . S
C599 C597 1.365 . S
C599 C600 1.409 . S
C599 H617 0.929 . S
C600 C599 1.409 . S
C600 C601 1.380 . S
C600 H618 0.930 . S
C601 C600 1.380 . S
C601 C608 1.357 . S
C602 C593 1.511 . S
C602 C603 1.341 . S
C602 C604 1.371 . S
C603 C602 1.341 . S
C603 C607 1.394 . S
C603 H619 0.930 . S
C604 C602 1.371 . S
C604 C605 1.392 . S
C604 H620 0.931 . S
C605 C604 1.392 . S
C605 C606 1.331 . S
C605 H623 0.932 . S
C606 C605 1.331 . S
C606 C607 1.336 . S
C607 C603 1.394 . S
C607 C606 1.336 . S
C607 H622 0.929 . S
C608 C598 1.386 . S
C608 C601 1.357 . S
C608 H621 0.928 . S
H609 C585 0.931 . S
H610 C587 0.930 . S
H611 C589 0.929 . S
H612 C590 0.931 . S
H613 C592 0.930 . S
H614 C596 0.931 . S
H615 C594 0.931 . S
H616 C598 0.931 . S
H617 C599 0.929 . S
H618 C600 0.930 . S
H619 C603 0.930 . S
H620 C604 0.931 . S
H621 C608 0.928 . S
H622 C607 0.929 . S
H623 C605 0.932 . S
C624 C625 1.386 . S
C624 C626 1.397 . S
C624 H648 0.931 . S
C625 C624 1.386 . S
C625 C629 1.397 . S
C626 C624 1.397 . S
C626 C627 1.384 . S
C626 H649 0.930 . S
C627 C626 1.384 . S
C627 C628 1.377 . S
C627 C630 1.481 . S
C628 C627 1.377 . S
C628 C629 1.389 . S
C628 H650 0.929 . S
C629 C625 1.397 . S
C629 C628 1.389 . S
C629 H651 0.931 . S
C630 C627 1.481 . S
C630 C631 1.387 . S
C630 C635 1.390 . S
C631 C630 1.387 . S
C631 C632 1.401 . S
C631 H652 0.930 . S
C632 C631 1.401 . S
C632 C633 1.376 . S
C632 C641 1.511 . S
C633 C632 1.376 . S
C633 C634 1.392 . S
C633 H654 0.931 . S
C634 C633 1.392 . S
C634 C635 1.361 . S
C634 C636 1.500 . S
C635 C630 1.390 . S
C635 C634 1.361 . S
C635 H653 0.931 . S
C636 C634 1.500 . S
C636 C637 1.371 . S
C636 C638 1.365 . S
C637 C636 1.371 . S
C637 C647 1.386 . S
C637 H655 0.931 . S
C638 C636 1.365 . S
C638 C639 1.409 . S
C638 H656 0.929 . S
C639 C638 1.409 . S
C639 C640 1.380 . S
C639 H657 0.930 . S
C640 C639 1.380 . S
C640 C647 1.357 . S
C641 C632 1.511 . S
C641 C642 1.341 . S
C641 C643 1.371 . S
C642 C641 1.341 . S
C642 C646 1.394 . S
C642 H658 0.930 . S
C643 C641 1.371 . S
C643 C644 1.392 . S
C643 H659 0.931 . S
C644 C643 1.392 . S
C644 C645 1.331 . S
C644 H662 0.932 . S
C645 C644 1.331 . S
C645 C646 1.336 . S
C646 C642 1.394 . S
C646 C645 1.336 . S
C646 H661 0.929 . S
C647 C637 1.386 . S
C647 C640 1.357 . S
C647 H660 0.928 . S
H648 C624 0.931 . S
H649 C626 0.930 . S
H650 C628 0.929 . S
H651 C629 0.931 . S
H652 C631 0.930 . S
H653 C635 0.931 . S
H654 C633 0.931 . S
H655 C637 0.931 . S
H656 C638 0.929 . S
H657 C639 0.930 . S
H658 C642 0.930 . S
H659 C643 0.931 . S
H660 C647 0.928 . S
H661 C646 0.929 . S
H662 C644 0.932 . S
C663 C664 1.386 . S
C663 C665 1.397 . S
C663 H687 0.931 . S
C664 C663 1.386 . S
C664 C668 1.397 . S
C665 C663 1.397 . S
C665 C666 1.384 . S
C665 H688 0.930 . S
C666 C665 1.384 . S
C666 C667 1.377 . S
C666 C669 1.481 . S
C667 C666 1.377 . S
C667 C668 1.389 . S
C667 H689 0.929 . S
C668 C664 1.397 . S
C668 C667 1.389 . S
C668 H690 0.931 . S
C669 C666 1.481 . S
C669 C670 1.387 . S
C669 C674 1.390 . S
C670 C669 1.387 . S
C670 C671 1.401 . S
C670 H691 0.930 . S
C671 C670 1.401 . S
C671 C672 1.376 . S
C671 C680 1.511 . S
C672 C671 1.376 . S
C672 C673 1.392 . S
C672 H693 0.931 . S
C673 C672 1.392 . S
C673 C674 1.361 . S
C673 C675 1.500 . S
C674 C669 1.390 . S
C674 C673 1.361 . S
C674 H692 0.931 . S
C675 C673 1.500 . S
C675 C676 1.371 . S
C675 C677 1.365 . S
C676 C675 1.371 . S
C676 C686 1.386 . S
C676 H694 0.931 . S
C677 C675 1.365 . S
C677 C678 1.409 . S
C677 H695 0.929 . S
C678 C677 1.409 . S
C678 C679 1.380 . S
C678 H696 0.930 . S
C679 C678 1.380 . S
C679 C686 1.357 . S
C680 C671 1.511 . S
C680 C681 1.341 . S
C680 C682 1.371 . S
C681 C680 1.341 . S
C681 C685 1.394 . S
C681 H697 0.930 . S
C682 C680 1.371 . S
C682 C683 1.392 . S
C682 H698 0.931 . S
C683 C682 1.392 . S
C683 C684 1.331 . S
C683 H701 0.932 . S
C684 C683 1.331 . S
C684 C685 1.336 . S
C685 C681 1.394 . S
C685 C684 1.336 . S
C685 H700 0.929 . S
C686 C676 1.386 . S
C686 C679 1.357 . S
C686 H699 0.928 . S
H687 C663 0.931 . S
H688 C665 0.930 . S
H689 C667 0.929 . S
H690 C668 0.931 . S
H691 C670 0.930 . S
H692 C674 0.931 . S
H693 C672 0.931 . S
H694 C676 0.931 . S
H695 C677 0.929 . S
H696 C678 0.930 . S
H697 C681 0.930 . S
H698 C682 0.931 . S
H699 C686 0.928 . S
H700 C685 0.929 . S
H701 C683 0.932 . S
Gd702 N733 2.661 . S
Gd702 N739 2.601 . S
Gd702 O746 2.545 . S
Gd702 O747 2.606 1_545 S
Gd702 O749 2.429 . S
Gd702 O750 2.545 1_545 S
Gd702 O751 2.412 . S
Gd702 O753 2.362 1_554 S
Gd702 O754 2.324 1_545 S
Gd702 C761 2.828 . S
Gd703 N712 2.661 . S
Gd703 N716 2.601 . S
Gd703 O747 2.362 1_556 S
Gd703 O748 2.324 1_565 S
Gd703 O752 2.545 . S
Gd703 O753 2.606 1_565 S
Gd703 O755 2.429 . S
Gd703 O756 2.545 1_565 S
Gd703 O757 2.412 . S
Gd703 C770 2.828 . S
C704 C707 1.417 . S
C704 C709 1.431 . S
C704 C710 1.412 . S
C705 C708 1.437 . S
C705 C709 1.317 . S
C705 H724 0.929 . S
C706 C707 1.426 . S
C706 C708 1.413 . S
C706 N716 1.359 . S
C707 C704 1.417 . S
C707 C706 1.426 . S
C707 N712 1.350 . S
C708 C705 1.437 . S
C708 C706 1.413 . S
C708 C718 1.391 . S
C709 C704 1.431 . S
C709 C705 1.317 . S
C709 H720 0.930 . S
C710 C704 1.412 . S
C710 C711 1.355 . S
C710 H722 0.930 . S
C711 C710 1.355 . S
C711 C713 1.402 . S
C711 H723 0.930 . S
N712 Gd703 2.661 . S
N712 C707 1.350 . S
N712 C713 1.307 . S
C713 C711 1.402 . S
C713 N712 1.307 . S
C713 H714 0.930 . S
H714 C713 0.930 . S
C715 N716 1.334 . S
C715 C717 1.394 . S
C715 H719 0.930 . S
N716 Gd703 2.601 . S
N716 C706 1.359 . S
N716 C715 1.334 . S
C717 C715 1.394 . S
C717 C718 1.359 . S
C717 H729 0.930 . S
C718 C708 1.391 . S
C718 C717 1.359 . S
C718 H730 0.929 . S
H719 C715 0.930 . S
H720 C709 0.930 . S
H721 C738 0.930 . S
H722 C710 0.930 . S
H723 C711 0.930 . S
H724 C705 0.929 . S
H725 C743 0.930 . S
H726 C734 0.930 . S
H727 C735 0.930 . S
H728 C759 0.929 . S
H729 C717 0.930 . S
H730 C718 0.929 . S
H731 C760 0.930 . S
H732 C741 0.930 . S
N733 Gd702 2.661 . S
N733 C737 1.350 . S
N733 C738 1.307 . S
C734 H726 0.930 . S
C734 C735 1.355 . S
C734 C736 1.412 . S
C735 H727 0.930 . S
C735 C734 1.355 . S
C735 C738 1.402 . S
C736 C734 1.412 . S
C736 C737 1.417 . S
C736 C760 1.431 . S
C737 N733 1.350 . S
C737 C736 1.417 . S
C737 C740 1.426 . S
C738 H721 0.930 . S
C738 N733 1.307 . S
C738 C735 1.402 . S
N739 Gd702 2.601 . S
N739 C740 1.359 . S
N739 C743 1.334 . S
C740 C737 1.426 . S
C740 N739 1.359 . S
C740 C744 1.413 . S
C741 H732 0.930 . S
C741 C742 1.359 . S
C741 C743 1.394 . S
C742 C741 1.359 . S
C742 C744 1.391 . S
C742 H745 0.929 . S
C743 H725 0.930 . S
C743 N739 1.334 . S
C743 C741 1.394 . S
C744 C740 1.413 . S
C744 C742 1.391 . S
C744 C759 1.437 . S
H745 C742 0.929 . S
O746 Gd702 2.545 . S
O746 C761 1.258 . S
O747 Gd702 2.606 1_565 S
O747 Gd703 2.362 1_554 S
O747 C758 1.284 . S
O748 Gd703 2.324 1_545 S
O748 C768 1.254 . S
O749 Gd702 2.429 . S
O749 C768 1.268 1_554 S
O750 Gd702 2.545 1_565 S
O750 C758 1.250 . S
O751 Gd702 2.412 . S
O751 C761 1.252 . S
O752 Gd703 2.545 . S
O752 C770 1.258 . S
O753 Gd702 2.362 1_556 S
O753 Gd703 2.606 1_545 S
O753 C769 1.284 . S
O754 Gd702 2.324 1_565 S
O754 C777 1.254 . S
O755 Gd703 2.429 . S
O755 C777 1.268 1_556 S
O756 Gd703 2.545 1_545 S
O756 C769 1.250 . S
O757 Gd703 2.412 . S
O757 C770 1.252 . S
C758 O747 1.284 . S
C758 O750 1.250 . S
C759 H728 0.929 . S
C759 C744 1.437 . S
C759 C760 1.317 . S
C760 H731 0.930 . S
C760 C736 1.431 . S
C760 C759 1.317 . S
C761 Gd702 2.828 . S
C761 O746 1.258 . S
C761 O751 1.252 . S
C761 C762 1.497 . S
C762 C761 1.497 . S
C762 C763 1.395 . S
C762 C764 1.380 1_545 S
C763 C762 1.395 . S
C763 C766 1.398 . S
C763 H778 0.930 . S
C764 C762 1.380 1_565 S
C764 C765 1.391 . S
C764 H779 0.930 . S
C765 C764 1.391 . S
C765 C767 1.387 1_565 S
C766 C763 1.398 . S
C766 C767 1.380 . S
C766 H780 0.930 . S
C767 C765 1.387 1_545 S
C767 C766 1.380 . S
C767 H781 0.930 . S
C768 O748 1.254 . S
C768 O749 1.268 1_556 S
C769 O753 1.284 . S
C769 O756 1.250 . S
C770 Gd703 2.828 . S
C770 O752 1.258 . S
C770 O757 1.252 . S
C770 C771 1.497 . S
C771 C770 1.497 . S
C771 C772 1.395 . S
C771 C773 1.380 1_565 S
C772 C771 1.395 . S
C772 C775 1.398 . S
C772 H782 0.930 . S
C773 C771 1.380 1_545 S
C773 C774 1.391 . S
C773 H783 0.930 . S
C774 C773 1.391 . S
C774 C776 1.387 1_545 S
C775 C772 1.398 . S
C775 C776 1.380 . S
C775 H784 0.930 . S
C776 C774 1.387 1_565 S
C776 C775 1.380 . S
C776 H785 0.930 . S
C777 O754 1.254 . S
C777 O755 1.268 1_554 S
H778 C763 0.930 . S
H779 C764 0.930 . S
H780 C766 0.930 . S
H781 C767 0.930 . S
H782 C772 0.930 . S
H783 C773 0.930 . S
H784 C775 0.930 . S
H785 C776 0.930 . S
Gd786 N817 2.661 . S
Gd786 N823 2.601 . S
Gd786 O830 2.545 . S
Gd786 O831 2.606 1_655 S
Gd786 O833 2.429 . S
Gd786 O834 2.545 1_655 S
Gd786 O835 2.412 . S
Gd786 O837 2.362 1_554 S
Gd786 O838 2.324 1_655 S
Gd786 C845 2.828 . S
Gd787 N796 2.661 . S
Gd787 N800 2.601 . S
Gd787 O831 2.362 1_556 S
Gd787 O832 2.324 1_455 S
Gd787 O836 2.545 . S
Gd787 O837 2.606 1_455 S
Gd787 O839 2.429 . S
Gd787 O840 2.545 1_455 S
Gd787 O841 2.412 . S
Gd787 C854 2.828 . S
C788 C791 1.417 . S
C788 C793 1.431 . S
C788 C794 1.412 . S
C789 C792 1.437 . S
C789 C793 1.317 . S
C789 H808 0.929 . S
C790 C791 1.426 . S
C790 C792 1.413 . S
C790 N800 1.359 . S
C791 C788 1.417 . S
C791 C790 1.426 . S
C791 N796 1.350 . S
C792 C789 1.437 . S
C792 C790 1.413 . S
C792 C802 1.391 . S
C793 C788 1.431 . S
C793 C789 1.317 . S
C793 H804 0.930 . S
C794 C788 1.412 . S
C794 C795 1.355 . S
C794 H806 0.930 . S
C795 C794 1.355 . S
C795 C797 1.402 . S
C795 H807 0.930 . S
N796 Gd787 2.661 . S
N796 C791 1.350 . S
N796 C797 1.307 . S
C797 C795 1.402 . S
C797 N796 1.307 . S
C797 H798 0.930 . S
H798 C797 0.930 . S
C799 N800 1.334 . S
C799 C801 1.394 . S
C799 H803 0.930 . S
N800 Gd787 2.601 . S
N800 C790 1.359 . S
N800 C799 1.334 . S
C801 C799 1.394 . S
C801 C802 1.359 . S
C801 H813 0.930 . S
C802 C792 1.391 . S
C802 C801 1.359 . S
C802 H814 0.929 . S
H803 C799 0.930 . S
H804 C793 0.930 . S
H805 C822 0.930 . S
H806 C794 0.930 . S
H807 C795 0.930 . S
H808 C789 0.929 . S
H809 C827 0.930 . S
H810 C818 0.930 . S
H811 C819 0.930 . S
H812 C843 0.929 . S
H813 C801 0.930 . S
H814 C802 0.929 . S
H815 C844 0.930 . S
H816 C825 0.930 . S
N817 Gd786 2.661 . S
N817 C821 1.350 . S
N817 C822 1.307 . S
C818 H810 0.930 . S
C818 C819 1.355 . S
C818 C820 1.412 . S
C819 H811 0.930 . S
C819 C818 1.355 . S
C819 C822 1.402 . S
C820 C818 1.412 . S
C820 C821 1.417 . S
C820 C844 1.431 . S
C821 N817 1.350 . S
C821 C820 1.417 . S
C821 C824 1.426 . S
C822 H805 0.930 . S
C822 N817 1.307 . S
C822 C819 1.402 . S
N823 Gd786 2.601 . S
N823 C824 1.359 . S
N823 C827 1.334 . S
C824 C821 1.426 . S
C824 N823 1.359 . S
C824 C828 1.413 . S
C825 H816 0.930 . S
C825 C826 1.359 . S
C825 C827 1.394 . S
C826 C825 1.359 . S
C826 C828 1.391 . S
C826 H829 0.929 . S
C827 H809 0.930 . S
C827 N823 1.334 . S
C827 C825 1.394 . S
C828 C824 1.413 . S
C828 C826 1.391 . S
C828 C843 1.437 . S
H829 C826 0.929 . S
O830 Gd786 2.545 . S
O830 C845 1.258 . S
O831 Gd786 2.606 1_455 S
O831 Gd787 2.362 1_554 S
O831 C842 1.284 . S
O832 Gd787 2.324 1_655 S
O832 C852 1.254 . S
O833 Gd786 2.429 . S
O833 C852 1.268 1_554 S
O834 Gd786 2.545 1_455 S
O834 C842 1.250 . S
O835 Gd786 2.412 . S
O835 C845 1.252 . S
O836 Gd787 2.545 . S
O836 C854 1.258 . S
O837 Gd786 2.362 1_556 S
O837 Gd787 2.606 1_655 S
O837 C853 1.284 . S
O838 Gd786 2.324 1_455 S
O838 C861 1.254 . S
O839 Gd787 2.429 . S
O839 C861 1.268 1_556 S
O840 Gd787 2.545 1_655 S
O840 C853 1.250 . S
O841 Gd787 2.412 . S
O841 C854 1.252 . S
C842 O831 1.284 . S
C842 O834 1.250 . S
C843 H812 0.929 . S
C843 C828 1.437 . S
C843 C844 1.317 . S
C844 H815 0.930 . S
C844 C820 1.431 . S
C844 C843 1.317 . S
C845 Gd786 2.828 . S
C845 O830 1.258 . S
C845 O835 1.252 . S
C845 C846 1.497 . S
C846 C845 1.497 . S
C846 C847 1.395 . S
C846 C848 1.380 1_655 S
C847 C846 1.395 . S
C847 C850 1.398 . S
C847 H862 0.930 . S
C848 C846 1.380 1_455 S
C848 C849 1.391 . S
C848 H863 0.930 . S
C849 C848 1.391 . S
C849 C851 1.387 1_455 S
C850 C847 1.398 . S
C850 C851 1.380 . S
C850 H864 0.930 . S
C851 C849 1.387 1_655 S
C851 C850 1.380 . S
C851 H865 0.930 . S
C852 O832 1.254 . S
C852 O833 1.268 1_556 S
C853 O837 1.284 . S
C853 O840 1.250 . S
C854 Gd787 2.828 . S
C854 O836 1.258 . S
C854 O841 1.252 . S
C854 C855 1.497 . S
C855 C854 1.497 . S
C855 C856 1.395 . S
C855 C857 1.380 1_455 S
C856 C855 1.395 . S
C856 C859 1.398 . S
C856 H866 0.930 . S
C857 C855 1.380 1_655 S
C857 C858 1.391 . S
C857 H867 0.930 . S
C858 C857 1.391 . S
C858 C860 1.387 1_655 S
C859 C856 1.398 . S
C859 C860 1.380 . S
C859 H868 0.930 . S
C860 C858 1.387 1_455 S
C860 C859 1.380 . S
C860 H869 0.930 . S
C861 O838 1.254 . S
C861 O839 1.268 1_554 S
H862 C847 0.930 . S
H863 C848 0.930 . S
H864 C850 0.930 . S
H865 C851 0.930 . S
H866 C856 0.930 . S
H867 C857 0.930 . S
H868 C859 0.930 . S
H869 C860 0.930 . S
Gd870 N901 2.661 . S
Gd870 N907 2.601 . S
Gd870 O914 2.545 . S
Gd870 O915 2.606 . S
Gd870 O917 2.429 . S
Gd870 O918 2.545 . S
Gd870 O919 2.412 . S
Gd870 O921 2.362 1_556 S
Gd870 O922 2.324 . S
Gd870 C929 2.828 . S
Gd871 N880 2.661 . S
Gd871 N884 2.601 . S
Gd871 O915 2.362 1_554 S
Gd871 O916 2.324 . S
Gd871 O920 2.545 . S
Gd871 O921 2.606 . S
Gd871 O923 2.429 . S
Gd871 O924 2.545 . S
Gd871 O925 2.412 . S
Gd871 C938 2.828 . S
C872 C875 1.417 . S
C872 C877 1.431 . S
C872 C878 1.412 . S
C873 C876 1.437 . S
C873 C877 1.317 . S
C873 H892 0.929 . S
C874 C875 1.426 . S
C874 C876 1.413 . S
C874 N884 1.359 . S
C875 C872 1.417 . S
C875 C874 1.426 . S
C875 N880 1.350 . S
C876 C873 1.437 . S
C876 C874 1.413 . S
C876 C886 1.391 . S
C877 C872 1.431 . S
C877 C873 1.317 . S
C877 H888 0.930 . S
C878 C872 1.412 . S
C878 C879 1.355 . S
C878 H890 0.930 . S
C879 C878 1.355 . S
C879 C881 1.402 . S
C879 H891 0.930 . S
N880 Gd871 2.661 . S
N880 C875 1.350 . S
N880 C881 1.307 . S
C881 C879 1.402 . S
C881 N880 1.307 . S
C881 H882 0.930 . S
H882 C881 0.930 . S
C883 N884 1.334 . S
C883 C885 1.394 . S
C883 H887 0.930 . S
N884 Gd871 2.601 . S
N884 C874 1.359 . S
N884 C883 1.334 . S
C885 C883 1.394 . S
C885 C886 1.359 . S
C885 H897 0.930 . S
C886 C876 1.391 . S
C886 C885 1.359 . S
C886 H898 0.929 . S
H887 C883 0.930 . S
H888 C877 0.930 . S
H889 C906 0.930 . S
H890 C878 0.930 . S
H891 C879 0.930 . S
H892 C873 0.929 . S
H893 C911 0.930 . S
H894 C902 0.930 . S
H895 C903 0.930 . S
H896 C927 0.929 . S
H897 C885 0.930 . S
H898 C886 0.929 . S
H899 C928 0.930 . S
H900 C909 0.930 . S
N901 Gd870 2.661 . S
N901 C905 1.350 . S
N901 C906 1.307 . S
C902 H894 0.930 . S
C902 C903 1.355 . S
C902 C904 1.412 . S
C903 H895 0.930 . S
C903 C902 1.355 . S
C903 C906 1.402 . S
C904 C902 1.412 . S
C904 C905 1.417 . S
C904 C928 1.431 . S
C905 N901 1.350 . S
C905 C904 1.417 . S
C905 C908 1.426 . S
C906 H889 0.930 . S
C906 N901 1.307 . S
C906 C903 1.402 . S
N907 Gd870 2.601 . S
N907 C908 1.359 . S
N907 C911 1.334 . S
C908 C905 1.426 . S
C908 N907 1.359 . S
C908 C912 1.413 . S
C909 H900 0.930 . S
C909 C910 1.359 . S
C909 C911 1.394 . S
C910 C909 1.359 . S
C910 C912 1.391 . S
C910 H913 0.929 . S
C911 H893 0.930 . S
C911 N907 1.334 . S
C911 C909 1.394 . S
C912 C908 1.413 . S
C912 C910 1.391 . S
C912 C927 1.437 . S
H913 C910 0.929 . S
O914 Gd870 2.545 . S
O914 C929 1.258 . S
O915 Gd870 2.606 . S
O915 Gd871 2.362 1_556 S
O915 C926 1.284 . S
O916 Gd871 2.324 . S
O916 C936 1.254 . S
O917 Gd870 2.429 . S
O917 C936 1.268 1_556 S
O918 Gd870 2.545 . S
O918 C926 1.250 . S
O919 Gd870 2.412 . S
O919 C929 1.252 . S
O920 Gd871 2.545 . S
O920 C938 1.258 . S
O921 Gd870 2.362 1_554 S
O921 Gd871 2.606 . S
O921 C937 1.284 . S
O922 Gd870 2.324 . S
O922 C945 1.254 . S
O923 Gd871 2.429 . S
O923 C945 1.268 1_554 S
O924 Gd871 2.545 . S
O924 C937 1.250 . S
O925 Gd871 2.412 . S
O925 C938 1.252 . S
C926 O915 1.284 . S
C926 O918 1.250 . S
C927 H896 0.929 . S
C927 C912 1.437 . S
C927 C928 1.317 . S
C928 H899 0.930 . S
C928 C904 1.431 . S
C928 C927 1.317 . S
C929 Gd870 2.828 . S
C929 O914 1.258 . S
C929 O919 1.252 . S
C929 C930 1.497 . S
C930 C929 1.497 . S
C930 C931 1.395 . S
C930 C932 1.380 . S
C931 C930 1.395 . S
C931 C934 1.398 . S
C931 H946 0.930 . S
C932 C930 1.380 . S
C932 C933 1.391 . S
C932 H947 0.930 . S
C933 C932 1.391 . S
C933 C935 1.387 . S
C934 C931 1.398 . S
C934 C935 1.380 . S
C934 H948 0.930 . S
C935 C933 1.387 . S
C935 C934 1.380 . S
C935 H949 0.930 . S
C936 O916 1.254 . S
C936 O917 1.268 1_554 S
C937 O921 1.284 . S
C937 O924 1.250 . S
C938 Gd871 2.828 . S
C938 O920 1.258 . S
C938 O925 1.252 . S
C938 C939 1.497 . S
C939 C938 1.497 . S
C939 C940 1.395 . S
C939 C941 1.380 . S
C940 C939 1.395 . S
C940 C943 1.398 . S
C940 H950 0.930 . S
C941 C939 1.380 . S
C941 C942 1.391 . S
C941 H951 0.930 . S
C942 C941 1.391 . S
C942 C944 1.387 . S
C943 C940 1.398 . S
C943 C944 1.380 . S
C943 H952 0.930 . S
C944 C942 1.387 . S
C944 C943 1.380 . S
C944 H953 0.930 . S
C945 O922 1.254 . S
C945 O923 1.268 1_556 S
H946 C931 0.930 . S
H947 C932 0.930 . S
H948 C934 0.930 . S
H949 C935 0.930 . S
H950 C940 0.930 . S
H951 C941 0.930 . S
H952 C943 0.930 . S
H953 C944 0.930 . S
Gd954 N985 2.661 . S
Gd954 N991 2.601 . S
Gd954 O998 2.545 . S
Gd954 O999 2.606 . S
Gd954 O1001 2.429 . S
Gd954 O1002 2.545 . S
Gd954 O1003 2.412 . S
Gd954 O1005 2.362 . S
Gd954 O1006 2.324 . S
Gd954 C1013 2.828 . S
Gd955 N964 2.661 . S
Gd955 N968 2.601 . S
Gd955 O999 2.362 . S
Gd955 O1000 2.324 . S
Gd955 O1004 2.545 . S
Gd955 O1005 2.606 . S
Gd955 O1007 2.429 . S
Gd955 O1008 2.545 . S
Gd955 O1009 2.412 . S
Gd955 C1022 2.828 . S
C956 C959 1.417 . S
C956 C961 1.431 . S
C956 C962 1.412 . S
C957 C960 1.437 . S
C957 C961 1.317 . S
C957 H976 0.929 . S
C958 C959 1.426 . S
C958 C960 1.413 . S
C958 N968 1.359 . S
C959 C956 1.417 . S
C959 C958 1.426 . S
C959 N964 1.350 . S
C960 C957 1.437 . S
C960 C958 1.413 . S
C960 C970 1.391 . S
C961 C956 1.431 . S
C961 C957 1.317 . S
C961 H972 0.930 . S
C962 C956 1.412 . S
C962 C963 1.355 . S
C962 H974 0.930 . S
C963 C962 1.355 . S
C963 C965 1.402 . S
C963 H975 0.930 . S
N964 Gd955 2.661 . S
N964 C959 1.350 . S
N964 C965 1.307 . S
C965 C963 1.402 . S
C965 N964 1.307 . S
C965 H966 0.930 . S
H966 C965 0.930 . S
C967 N968 1.334 . S
C967 C969 1.394 . S
C967 H971 0.930 . S
N968 Gd955 2.601 . S
N968 C958 1.359 . S
N968 C967 1.334 . S
C969 C967 1.394 . S
C969 C970 1.359 . S
C969 H981 0.930 . S
C970 C960 1.391 . S
C970 C969 1.359 . S
C970 H982 0.929 . S
H971 C967 0.930 . S
H972 C961 0.930 . S
H973 C990 0.930 . S
H974 C962 0.930 . S
H975 C963 0.930 . S
H976 C957 0.929 . S
H977 C995 0.930 . S
H978 C986 0.930 . S
H979 C987 0.930 . S
H980 C1011 0.929 . S
H981 C969 0.930 . S
H982 C970 0.929 . S
H983 C1012 0.930 . S
H984 C993 0.930 . S
N985 Gd954 2.661 . S
N985 C989 1.350 . S
N985 C990 1.307 . S
C986 H978 0.930 . S
C986 C987 1.355 . S
C986 C988 1.412 . S
C987 H979 0.930 . S
C987 C986 1.355 . S
C987 C990 1.402 . S
C988 C986 1.412 . S
C988 C989 1.417 . S
C988 C1012 1.431 . S
C989 N985 1.350 . S
C989 C988 1.417 . S
C989 C992 1.426 . S
C990 H973 0.930 . S
C990 N985 1.307 . S
C990 C987 1.402 . S
N991 Gd954 2.601 . S
N991 C992 1.359 . S
N991 C995 1.334 . S
C992 C989 1.426 . S
C992 N991 1.359 . S
C992 C996 1.413 . S
C993 H984 0.930 . S
C993 C994 1.359 . S
C993 C995 1.394 . S
C994 C993 1.359 . S
C994 C996 1.391 . S
C994 H997 0.929 . S
C995 H977 0.930 . S
C995 N991 1.334 . S
C995 C993 1.394 . S
C996 C992 1.413 . S
C996 C994 1.391 . S
C996 C1011 1.437 . S
H997 C994 0.929 . S
O998 Gd954 2.545 . S
O998 C1013 1.258 . S
O999 Gd954 2.606 . S
O999 Gd955 2.362 . S
O999 C1010 1.284 . S
O1000 Gd955 2.324 . S
O1000 C1020 1.254 . S
O1001 Gd954 2.429 . S
O1001 C1020 1.268 . S
O1002 Gd954 2.545 . S
O1002 C1010 1.250 . S
O1003 Gd954 2.412 . S
O1003 C1013 1.252 . S
O1004 Gd955 2.545 . S
O1004 C1022 1.258 . S
O1005 Gd954 2.362 . S
O1005 Gd955 2.606 . S
O1005 C1021 1.284 . S
O1006 Gd954 2.324 . S
O1006 C1029 1.254 . S
O1007 Gd955 2.429 . S
O1007 C1029 1.268 . S
O1008 Gd955 2.545 . S
O1008 C1021 1.250 . S
O1009 Gd955 2.412 . S
O1009 C1022 1.252 . S
C1010 O999 1.284 . S
C1010 O1002 1.250 . S
C1011 H980 0.929 . S
C1011 C996 1.437 . S
C1011 C1012 1.317 . S
C1012 H983 0.930 . S
C1012 C988 1.431 . S
C1012 C1011 1.317 . S
C1013 Gd954 2.828 . S
C1013 O998 1.258 . S
C1013 O1003 1.252 . S
C1013 C1014 1.497 . S
C1014 C1013 1.497 . S
C1014 C1015 1.395 . S
C1014 C1016 1.380 . S
C1015 C1014 1.395 . S
C1015 C1018 1.398 . S
C1015 H1030 0.930 . S
C1016 C1014 1.380 . S
C1016 C1017 1.391 . S
C1016 H1031 0.930 . S
C1017 C1016 1.391 . S
C1017 C1019 1.387 . S
C1018 C1015 1.398 . S
C1018 C1019 1.380 . S
C1018 H1032 0.930 . S
C1019 C1017 1.387 . S
C1019 C1018 1.380 . S
C1019 H1033 0.930 . S
C1020 O1000 1.254 . S
C1020 O1001 1.268 . S
C1021 O1005 1.284 . S
C1021 O1008 1.250 . S
C1022 Gd955 2.828 . S
C1022 O1004 1.258 . S
C1022 O1009 1.252 . S
C1022 C1023 1.497 . S
C1023 C1022 1.497 . S
C1023 C1024 1.395 . S
C1023 C1025 1.380 . S
C1024 C1023 1.395 . S
C1024 C1027 1.398 . S
C1024 H1034 0.930 . S
C1025 C1023 1.380 . S
C1025 C1026 1.391 . S
C1025 H1035 0.930 . S
C1026 C1025 1.391 . S
C1026 C1028 1.387 . S
C1027 C1024 1.398 . S
C1027 C1028 1.380 . S
C1027 H1036 0.930 . S
C1028 C1026 1.387 . S
C1028 C1027 1.380 . S
C1028 H1037 0.930 . S
C1029 O1006 1.254 . S
C1029 O1007 1.268 . S
H1030 C1015 0.930 . S
H1031 C1016 0.930 . S
H1032 C1018 0.930 . S
H1033 C1019 0.930 . S
H1034 C1024 0.930 . S
H1035 C1025 0.930 . S
H1036 C1027 0.930 . S
H1037 C1028 0.930 . S
Gd1038 N1069 2.661 . S
Gd1038 N1075 2.601 . S
Gd1038 O1082 2.545 . S
Gd1038 O1083 2.606 . S
Gd1038 O1085 2.429 . S
Gd1038 O1086 2.545 . S
Gd1038 O1087 2.412 . S
Gd1038 O1089 2.362 . S
Gd1038 O1090 2.324 . S
Gd1038 C1097 2.828 . S
Gd1039 N1048 2.661 . S
Gd1039 N1052 2.601 . S
Gd1039 O1083 2.362 . S
Gd1039 O1084 2.324 . S
Gd1039 O1088 2.545 . S
Gd1039 O1089 2.606 . S
Gd1039 O1091 2.429 . S
Gd1039 O1092 2.545 . S
Gd1039 O1093 2.412 . S
Gd1039 C1106 2.828 . S
C1040 C1043 1.417 . S
C1040 C1045 1.431 . S
C1040 C1046 1.412 . S
C1041 C1044 1.437 . S
C1041 C1045 1.317 . S
C1041 H1060 0.929 . S
C1042 C1043 1.426 . S
C1042 C1044 1.413 . S
C1042 N1052 1.359 . S
C1043 C1040 1.417 . S
C1043 C1042 1.426 . S
C1043 N1048 1.350 . S
C1044 C1041 1.437 . S
C1044 C1042 1.413 . S
C1044 C1054 1.391 . S
C1045 C1040 1.431 . S
C1045 C1041 1.317 . S
C1045 H1056 0.930 . S
C1046 C1040 1.412 . S
C1046 C1047 1.355 . S
C1046 H1058 0.930 . S
C1047 C1046 1.355 . S
C1047 C1049 1.402 . S
C1047 H1059 0.930 . S
N1048 Gd1039 2.661 . S
N1048 C1043 1.350 . S
N1048 C1049 1.307 . S
C1049 C1047 1.402 . S
C1049 N1048 1.307 . S
C1049 H1050 0.930 . S
H1050 C1049 0.930 . S
C1051 N1052 1.334 . S
C1051 C1053 1.394 . S
C1051 H1055 0.930 . S
N1052 Gd1039 2.601 . S
N1052 C1042 1.359 . S
N1052 C1051 1.334 . S
C1053 C1051 1.394 . S
C1053 C1054 1.359 . S
C1053 H1065 0.930 . S
C1054 C1044 1.391 . S
C1054 C1053 1.359 . S
C1054 H1066 0.929 . S
H1055 C1051 0.930 . S
H1056 C1045 0.930 . S
H1057 C1074 0.930 . S
H1058 C1046 0.930 . S
H1059 C1047 0.930 . S
H1060 C1041 0.929 . S
H1061 C1079 0.930 . S
H1062 C1070 0.930 . S
H1063 C1071 0.930 . S
H1064 C1095 0.929 . S
H1065 C1053 0.930 . S
H1066 C1054 0.929 . S
H1067 C1096 0.930 . S
H1068 C1077 0.930 . S
N1069 Gd1038 2.661 . S
N1069 C1073 1.350 . S
N1069 C1074 1.307 . S
C1070 H1062 0.930 . S
C1070 C1071 1.355 . S
C1070 C1072 1.412 . S
C1071 H1063 0.930 . S
C1071 C1070 1.355 . S
C1071 C1074 1.402 . S
C1072 C1070 1.412 . S
C1072 C1073 1.417 . S
C1072 C1096 1.431 . S
C1073 N1069 1.350 . S
C1073 C1072 1.417 . S
C1073 C1076 1.426 . S
C1074 H1057 0.930 . S
C1074 N1069 1.307 . S
C1074 C1071 1.402 . S
N1075 Gd1038 2.601 . S
N1075 C1076 1.359 . S
N1075 C1079 1.334 . S
C1076 C1073 1.426 . S
C1076 N1075 1.359 . S
C1076 C1080 1.413 . S
C1077 H1068 0.930 . S
C1077 C1078 1.359 . S
C1077 C1079 1.394 . S
C1078 C1077 1.359 . S
C1078 C1080 1.391 . S
C1078 H1081 0.929 . S
C1079 H1061 0.930 . S
C1079 N1075 1.334 . S
C1079 C1077 1.394 . S
C1080 C1076 1.413 . S
C1080 C1078 1.391 . S
C1080 C1095 1.437 . S
H1081 C1078 0.929 . S
O1082 Gd1038 2.545 . S
O1082 C1097 1.258 . S
O1083 Gd1038 2.606 . S
O1083 Gd1039 2.362 . S
O1083 C1094 1.284 . S
O1084 Gd1039 2.324 . S
O1084 C1104 1.254 . S
O1085 Gd1038 2.429 . S
O1085 C1104 1.268 . S
O1086 Gd1038 2.545 . S
O1086 C1094 1.250 . S
O1087 Gd1038 2.412 . S
O1087 C1097 1.252 . S
O1088 Gd1039 2.545 . S
O1088 C1106 1.258 . S
O1089 Gd1038 2.362 . S
O1089 Gd1039 2.606 . S
O1089 C1105 1.284 . S
O1090 Gd1038 2.324 . S
O1090 C1113 1.254 . S
O1091 Gd1039 2.429 . S
O1091 C1113 1.268 . S
O1092 Gd1039 2.545 . S
O1092 C1105 1.250 . S
O1093 Gd1039 2.412 . S
O1093 C1106 1.252 . S
C1094 O1083 1.284 . S
C1094 O1086 1.250 . S
C1095 H1064 0.929 . S
C1095 C1080 1.437 . S
C1095 C1096 1.317 . S
C1096 H1067 0.930 . S
C1096 C1072 1.431 . S
C1096 C1095 1.317 . S
C1097 Gd1038 2.828 . S
C1097 O1082 1.258 . S
C1097 O1087 1.252 . S
C1097 C1098 1.497 . S
C1098 C1097 1.497 . S
C1098 C1099 1.395 . S
C1098 C1100 1.380 . S
C1099 C1098 1.395 . S
C1099 C1102 1.398 . S
C1099 H1114 0.930 . S
C1100 C1098 1.380 . S
C1100 C1101 1.391 . S
C1100 H1115 0.930 . S
C1101 C1100 1.391 . S
C1101 C1103 1.387 . S
C1102 C1099 1.398 . S
C1102 C1103 1.380 . S
C1102 H1116 0.930 . S
C1103 C1101 1.387 . S
C1103 C1102 1.380 . S
C1103 H1117 0.930 . S
C1104 O1084 1.254 . S
C1104 O1085 1.268 . S
C1105 O1089 1.284 . S
C1105 O1092 1.250 . S
C1106 Gd1039 2.828 . S
C1106 O1088 1.258 . S
C1106 O1093 1.252 . S
C1106 C1107 1.497 . S
C1107 C1106 1.497 . S
C1107 C1108 1.395 . S
C1107 C1109 1.380 . S
C1108 C1107 1.395 . S
C1108 C1111 1.398 . S
C1108 H1118 0.930 . S
C1109 C1107 1.380 . S
C1109 C1110 1.391 . S
C1109 H1119 0.930 . S
C1110 C1109 1.391 . S
C1110 C1112 1.387 . S
C1111 C1108 1.398 . S
C1111 C1112 1.380 . S
C1111 H1120 0.930 . S
C1112 C1110 1.387 . S
C1112 C1111 1.380 . S
C1112 H1121 0.930 . S
C1113 O1090 1.254 . S
C1113 O1091 1.268 . S
H1114 C1099 0.930 . S
H1115 C1100 0.930 . S
H1116 C1102 0.930 . S
H1117 C1103 0.930 . S
H1118 C1108 0.930 . S
H1119 C1109 0.930 . S
H1120 C1111 0.930 . S
H1121 C1112 0.930 . S
Gd1122 N1153 2.661 . S
Gd1122 N1159 2.601 . S
Gd1122 O1166 2.545 . S
Gd1122 O1167 2.606 . S
Gd1122 O1169 2.429 . S
Gd1122 O1170 2.545 . S
Gd1122 O1171 2.412 . S
Gd1122 O1173 2.362 . S
Gd1122 O1174 2.324 . S
Gd1122 C1181 2.828 . S
Gd1123 N1132 2.661 . S
Gd1123 N1136 2.601 . S
Gd1123 O1167 2.362 . S
Gd1123 O1168 2.324 . S
Gd1123 O1172 2.545 . S
Gd1123 O1173 2.606 . S
Gd1123 O1175 2.429 . S
Gd1123 O1176 2.545 . S
Gd1123 O1177 2.412 . S
Gd1123 C1190 2.828 . S
C1124 C1127 1.417 . S
C1124 C1129 1.431 . S
C1124 C1130 1.412 . S
C1125 C1128 1.437 . S
C1125 C1129 1.317 . S
C1125 H1144 0.929 . S
C1126 C1127 1.426 . S
C1126 C1128 1.413 . S
C1126 N1136 1.359 . S
C1127 C1124 1.417 . S
C1127 C1126 1.426 . S
C1127 N1132 1.350 . S
C1128 C1125 1.437 . S
C1128 C1126 1.413 . S
C1128 C1138 1.391 . S
C1129 C1124 1.431 . S
C1129 C1125 1.317 . S
C1129 H1140 0.930 . S
C1130 C1124 1.412 . S
C1130 C1131 1.355 . S
C1130 H1142 0.930 . S
C1131 C1130 1.355 . S
C1131 C1133 1.402 . S
C1131 H1143 0.930 . S
N1132 Gd1123 2.661 . S
N1132 C1127 1.350 . S
N1132 C1133 1.307 . S
C1133 C1131 1.402 . S
C1133 N1132 1.307 . S
C1133 H1134 0.930 . S
H1134 C1133 0.930 . S
C1135 N1136 1.334 . S
C1135 C1137 1.394 . S
C1135 H1139 0.930 . S
N1136 Gd1123 2.601 . S
N1136 C1126 1.359 . S
N1136 C1135 1.334 . S
C1137 C1135 1.394 . S
C1137 C1138 1.359 . S
C1137 H1149 0.930 . S
C1138 C1128 1.391 . S
C1138 C1137 1.359 . S
C1138 H1150 0.929 . S
H1139 C1135 0.930 . S
H1140 C1129 0.930 . S
H1141 C1158 0.930 . S
H1142 C1130 0.930 . S
H1143 C1131 0.930 . S
H1144 C1125 0.929 . S
H1145 C1163 0.930 . S
H1146 C1154 0.930 . S
H1147 C1155 0.930 . S
H1148 C1179 0.929 . S
H1149 C1137 0.930 . S
H1150 C1138 0.929 . S
H1151 C1180 0.930 . S
H1152 C1161 0.930 . S
N1153 Gd1122 2.661 . S
N1153 C1157 1.350 . S
N1153 C1158 1.307 . S
C1154 H1146 0.930 . S
C1154 C1155 1.355 . S
C1154 C1156 1.412 . S
C1155 H1147 0.930 . S
C1155 C1154 1.355 . S
C1155 C1158 1.402 . S
C1156 C1154 1.412 . S
C1156 C1157 1.417 . S
C1156 C1180 1.431 . S
C1157 N1153 1.350 . S
C1157 C1156 1.417 . S
C1157 C1160 1.426 . S
C1158 H1141 0.930 . S
C1158 N1153 1.307 . S
C1158 C1155 1.402 . S
N1159 Gd1122 2.601 . S
N1159 C1160 1.359 . S
N1159 C1163 1.334 . S
C1160 C1157 1.426 . S
C1160 N1159 1.359 . S
C1160 C1164 1.413 . S
C1161 H1152 0.930 . S
C1161 C1162 1.359 . S
C1161 C1163 1.394 . S
C1162 C1161 1.359 . S
C1162 C1164 1.391 . S
C1162 H1165 0.929 . S
C1163 H1145 0.930 . S
C1163 N1159 1.334 . S
C1163 C1161 1.394 . S
C1164 C1160 1.413 . S
C1164 C1162 1.391 . S
C1164 C1179 1.437 . S
H1165 C1162 0.929 . S
O1166 Gd1122 2.545 . S
O1166 C1181 1.258 . S
O1167 Gd1122 2.606 . S
O1167 Gd1123 2.362 . S
O1167 C1178 1.284 . S
O1168 Gd1123 2.324 . S
O1168 C1188 1.254 . S
O1169 Gd1122 2.429 . S
O1169 C1188 1.268 . S
O1170 Gd1122 2.545 . S
O1170 C1178 1.250 . S
O1171 Gd1122 2.412 . S
O1171 C1181 1.252 . S
O1172 Gd1123 2.545 . S
O1172 C1190 1.258 . S
O1173 Gd1122 2.362 . S
O1173 Gd1123 2.606 . S
O1173 C1189 1.284 . S
O1174 Gd1122 2.324 . S
O1174 C1197 1.254 . S
O1175 Gd1123 2.429 . S
O1175 C1197 1.268 . S
O1176 Gd1123 2.545 . S
O1176 C1189 1.250 . S
O1177 Gd1123 2.412 . S
O1177 C1190 1.252 . S
C1178 O1167 1.284 . S
C1178 O1170 1.250 . S
C1179 H1148 0.929 . S
C1179 C1164 1.437 . S
C1179 C1180 1.317 . S
C1180 H1151 0.930 . S
C1180 C1156 1.431 . S
C1180 C1179 1.317 . S
C1181 Gd1122 2.828 . S
C1181 O1166 1.258 . S
C1181 O1171 1.252 . S
C1181 C1182 1.497 . S
C1182 C1181 1.497 . S
C1182 C1183 1.395 . S
C1182 C1184 1.380 . S
C1183 C1182 1.395 . S
C1183 C1186 1.398 . S
C1183 H1198 0.930 . S
C1184 C1182 1.380 . S
C1184 C1185 1.391 . S
C1184 H1199 0.930 . S
C1185 C1184 1.391 . S
C1185 C1187 1.387 . S
C1186 C1183 1.398 . S
C1186 C1187 1.380 . S
C1186 H1200 0.930 . S
C1187 C1185 1.387 . S
C1187 C1186 1.380 . S
C1187 H1201 0.930 . S
C1188 O1168 1.254 . S
C1188 O1169 1.268 . S
C1189 O1173 1.284 . S
C1189 O1176 1.250 . S
C1190 Gd1123 2.828 . S
C1190 O1172 1.258 . S
C1190 O1177 1.252 . S
C1190 C1191 1.497 . S
C1191 C1190 1.497 . S
C1191 C1192 1.395 . S
C1191 C1193 1.380 . S
C1192 C1191 1.395 . S
C1192 C1195 1.398 . S
C1192 H1202 0.930 . S
C1193 C1191 1.380 . S
C1193 C1194 1.391 . S
C1193 H1203 0.930 . S
C1194 C1193 1.391 . S
C1194 C1196 1.387 . S
C1195 C1192 1.398 . S
C1195 C1196 1.380 . S
C1195 H1204 0.930 . S
C1196 C1194 1.387 . S
C1196 C1195 1.380 . S
C1196 H1205 0.930 . S
C1197 O1174 1.254 . S
C1197 O1175 1.268 . S
H1198 C1183 0.930 . S
H1199 C1184 0.930 . S
H1200 C1186 0.930 . S
H1201 C1187 0.930 . S
H1202 C1192 0.930 . S
H1203 C1193 0.930 . S
H1204 C1195 0.930 . S
H1205 C1196 0.930 . S
Gd1206 N1237 2.661 . S
Gd1206 N1243 2.601 . S
Gd1206 O1250 2.545 . S
Gd1206 O1251 2.606 . S
Gd1206 O1253 2.429 . S
Gd1206 O1254 2.545 . S
Gd1206 O1255 2.412 . S
Gd1206 O1257 2.362 . S
Gd1206 O1258 2.324 . S
Gd1206 C1265 2.828 . S
Gd1207 N1216 2.661 . S
Gd1207 N1220 2.601 . S
Gd1207 O1251 2.362 . S
Gd1207 O1252 2.324 . S
Gd1207 O1256 2.545 . S
Gd1207 O1257 2.606 . S
Gd1207 O1259 2.429 . S
Gd1207 O1260 2.545 . S
Gd1207 O1261 2.412 . S
Gd1207 C1274 2.828 . S
C1208 C1211 1.417 . S
C1208 C1213 1.431 . S
C1208 C1214 1.412 . S
C1209 C1212 1.437 . S
C1209 C1213 1.317 . S
C1209 H1228 0.929 . S
C1210 C1211 1.426 . S
C1210 C1212 1.413 . S
C1210 N1220 1.359 . S
C1211 C1208 1.417 . S
C1211 C1210 1.426 . S
C1211 N1216 1.350 . S
C1212 C1209 1.437 . S
C1212 C1210 1.413 . S
C1212 C1222 1.391 . S
C1213 C1208 1.431 . S
C1213 C1209 1.317 . S
C1213 H1224 0.930 . S
C1214 C1208 1.412 . S
C1214 C1215 1.355 . S
C1214 H1226 0.930 . S
C1215 C1214 1.355 . S
C1215 C1217 1.402 . S
C1215 H1227 0.930 . S
N1216 Gd1207 2.661 . S
N1216 C1211 1.350 . S
N1216 C1217 1.307 . S
C1217 C1215 1.402 . S
C1217 N1216 1.307 . S
C1217 H1218 0.930 . S
H1218 C1217 0.930 . S
C1219 N1220 1.334 . S
C1219 C1221 1.394 . S
C1219 H1223 0.930 . S
N1220 Gd1207 2.601 . S
N1220 C1210 1.359 . S
N1220 C1219 1.334 . S
C1221 C1219 1.394 . S
C1221 C1222 1.359 . S
C1221 H1233 0.930 . S
C1222 C1212 1.391 . S
C1222 C1221 1.359 . S
C1222 H1234 0.929 . S
H1223 C1219 0.930 . S
H1224 C1213 0.930 . S
H1225 C1242 0.930 . S
H1226 C1214 0.930 . S
H1227 C1215 0.930 . S
H1228 C1209 0.929 . S
H1229 C1247 0.930 . S
H1230 C1238 0.930 . S
H1231 C1239 0.930 . S
H1232 C1263 0.929 . S
H1233 C1221 0.930 . S
H1234 C1222 0.929 . S
H1235 C1264 0.930 . S
H1236 C1245 0.930 . S
N1237 Gd1206 2.661 . S
N1237 C1241 1.350 . S
N1237 C1242 1.307 . S
C1238 H1230 0.930 . S
C1238 C1239 1.355 . S
C1238 C1240 1.412 . S
C1239 H1231 0.930 . S
C1239 C1238 1.355 . S
C1239 C1242 1.402 . S
C1240 C1238 1.412 . S
C1240 C1241 1.417 . S
C1240 C1264 1.431 . S
C1241 N1237 1.350 . S
C1241 C1240 1.417 . S
C1241 C1244 1.426 . S
C1242 H1225 0.930 . S
C1242 N1237 1.307 . S
C1242 C1239 1.402 . S
N1243 Gd1206 2.601 . S
N1243 C1244 1.359 . S
N1243 C1247 1.334 . S
C1244 C1241 1.426 . S
C1244 N1243 1.359 . S
C1244 C1248 1.413 . S
C1245 H1236 0.930 . S
C1245 C1246 1.359 . S
C1245 C1247 1.394 . S
C1246 C1245 1.359 . S
C1246 C1248 1.391 . S
C1246 H1249 0.929 . S
C1247 H1229 0.930 . S
C1247 N1243 1.334 . S
C1247 C1245 1.394 . S
C1248 C1244 1.413 . S
C1248 C1246 1.391 . S
C1248 C1263 1.437 . S
H1249 C1246 0.929 . S
O1250 Gd1206 2.545 . S
O1250 C1265 1.258 . S
O1251 Gd1206 2.606 . S
O1251 Gd1207 2.362 . S
O1251 C1262 1.284 . S
O1252 Gd1207 2.324 . S
O1252 C1272 1.254 . S
O1253 Gd1206 2.429 . S
O1253 C1272 1.268 . S
O1254 Gd1206 2.545 . S
O1254 C1262 1.250 . S
O1255 Gd1206 2.412 . S
O1255 C1265 1.252 . S
O1256 Gd1207 2.545 . S
O1256 C1274 1.258 . S
O1257 Gd1206 2.362 . S
O1257 Gd1207 2.606 . S
O1257 C1273 1.284 . S
O1258 Gd1206 2.324 . S
O1258 C1281 1.254 . S
O1259 Gd1207 2.429 . S
O1259 C1281 1.268 . S
O1260 Gd1207 2.545 . S
O1260 C1273 1.250 . S
O1261 Gd1207 2.412 . S
O1261 C1274 1.252 . S
C1262 O1251 1.284 . S
C1262 O1254 1.250 . S
C1263 H1232 0.929 . S
C1263 C1248 1.437 . S
C1263 C1264 1.317 . S
C1264 H1235 0.930 . S
C1264 C1240 1.431 . S
C1264 C1263 1.317 . S
C1265 Gd1206 2.828 . S
C1265 O1250 1.258 . S
C1265 O1255 1.252 . S
C1265 C1266 1.497 . S
C1266 C1265 1.497 . S
C1266 C1267 1.395 . S
C1266 C1268 1.380 . S
C1267 C1266 1.395 . S
C1267 C1270 1.398 . S
C1267 H1282 0.930 . S
C1268 C1266 1.380 . S
C1268 C1269 1.391 . S
C1268 H1283 0.930 . S
C1269 C1268 1.391 . S
C1269 C1271 1.387 . S
C1270 C1267 1.398 . S
C1270 C1271 1.380 . S
C1270 H1284 0.930 . S
C1271 C1269 1.387 . S
C1271 C1270 1.380 . S
C1271 H1285 0.930 . S
C1272 O1252 1.254 . S
C1272 O1253 1.268 . S
C1273 O1257 1.284 . S
C1273 O1260 1.250 . S
C1274 Gd1207 2.828 . S
C1274 O1256 1.258 . S
C1274 O1261 1.252 . S
C1274 C1275 1.497 . S
C1275 C1274 1.497 . S
C1275 C1276 1.395 . S
C1275 C1277 1.380 . S
C1276 C1275 1.395 . S
C1276 C1279 1.398 . S
C1276 H1286 0.930 . S
C1277 C1275 1.380 . S
C1277 C1278 1.391 . S
C1277 H1287 0.930 . S
C1278 C1277 1.391 . S
C1278 C1280 1.387 . S
C1279 C1276 1.398 . S
C1279 C1280 1.380 . S
C1279 H1288 0.930 . S
C1280 C1278 1.387 . S
C1280 C1279 1.380 . S
C1280 H1289 0.930 . S
C1281 O1258 1.254 . S
C1281 O1259 1.268 . S
H1282 C1267 0.930 . S
H1283 C1268 0.930 . S
H1284 C1270 0.930 . S
H1285 C1271 0.930 . S
H1286 C1276 0.930 . S
H1287 C1277 0.930 . S
H1288 C1279 0.930 . S
H1289 C1280 0.930 . S
Gd1290 N1321 2.661 . S
Gd1290 N1327 2.601 . S
Gd1290 O1334 2.545 . S
Gd1290 O1335 2.606 . S
Gd1290 O1337 2.429 . S
Gd1290 O1338 2.545 . S
Gd1290 O1339 2.412 . S
Gd1290 O1341 2.362 . S
Gd1290 O1342 2.324 . S
Gd1290 C1349 2.828 . S
Gd1291 N1300 2.661 . S
Gd1291 N1304 2.601 . S
Gd1291 O1335 2.362 . S
Gd1291 O1336 2.324 . S
Gd1291 O1340 2.545 . S
Gd1291 O1341 2.606 . S
Gd1291 O1343 2.429 . S
Gd1291 O1344 2.545 . S
Gd1291 O1345 2.412 . S
Gd1291 C1358 2.828 . S
C1292 C1295 1.417 . S
C1292 C1297 1.431 . S
C1292 C1298 1.412 . S
C1293 C1296 1.437 . S
C1293 C1297 1.317 . S
C1293 H1312 0.929 . S
C1294 C1295 1.426 . S
C1294 C1296 1.413 . S
C1294 N1304 1.359 . S
C1295 C1292 1.417 . S
C1295 C1294 1.426 . S
C1295 N1300 1.350 . S
C1296 C1293 1.437 . S
C1296 C1294 1.413 . S
C1296 C1306 1.391 . S
C1297 C1292 1.431 . S
C1297 C1293 1.317 . S
C1297 H1308 0.930 . S
C1298 C1292 1.412 . S
C1298 C1299 1.355 . S
C1298 H1310 0.930 . S
C1299 C1298 1.355 . S
C1299 C1301 1.402 . S
C1299 H1311 0.930 . S
N1300 Gd1291 2.661 . S
N1300 C1295 1.350 . S
N1300 C1301 1.307 . S
C1301 C1299 1.402 . S
C1301 N1300 1.307 . S
C1301 H1302 0.930 . S
H1302 C1301 0.930 . S
C1303 N1304 1.334 . S
C1303 C1305 1.394 . S
C1303 H1307 0.930 . S
N1304 Gd1291 2.601 . S
N1304 C1294 1.359 . S
N1304 C1303 1.334 . S
C1305 C1303 1.394 . S
C1305 C1306 1.359 . S
C1305 H1317 0.930 . S
C1306 C1296 1.391 . S
C1306 C1305 1.359 . S
C1306 H1318 0.929 . S
H1307 C1303 0.930 . S
H1308 C1297 0.930 . S
H1309 C1326 0.930 . S
H1310 C1298 0.930 . S
H1311 C1299 0.930 . S
H1312 C1293 0.929 . S
H1313 C1331 0.930 . S
H1314 C1322 0.930 . S
H1315 C1323 0.930 . S
H1316 C1347 0.929 . S
H1317 C1305 0.930 . S
H1318 C1306 0.929 . S
H1319 C1348 0.930 . S
H1320 C1329 0.930 . S
N1321 Gd1290 2.661 . S
N1321 C1325 1.350 . S
N1321 C1326 1.307 . S
C1322 H1314 0.930 . S
C1322 C1323 1.355 . S
C1322 C1324 1.412 . S
C1323 H1315 0.930 . S
C1323 C1322 1.355 . S
C1323 C1326 1.402 . S
C1324 C1322 1.412 . S
C1324 C1325 1.417 . S
C1324 C1348 1.431 . S
C1325 N1321 1.350 . S
C1325 C1324 1.417 . S
C1325 C1328 1.426 . S
C1326 H1309 0.930 . S
C1326 N1321 1.307 . S
C1326 C1323 1.402 . S
N1327 Gd1290 2.601 . S
N1327 C1328 1.359 . S
N1327 C1331 1.334 . S
C1328 C1325 1.426 . S
C1328 N1327 1.359 . S
C1328 C1332 1.413 . S
C1329 H1320 0.930 . S
C1329 C1330 1.359 . S
C1329 C1331 1.394 . S
C1330 C1329 1.359 . S
C1330 C1332 1.391 . S
C1330 H1333 0.929 . S
C1331 H1313 0.930 . S
C1331 N1327 1.334 . S
C1331 C1329 1.394 . S
C1332 C1328 1.413 . S
C1332 C1330 1.391 . S
C1332 C1347 1.437 . S
H1333 C1330 0.929 . S
O1334 Gd1290 2.545 . S
O1334 C1349 1.258 . S
O1335 Gd1290 2.606 . S
O1335 Gd1291 2.362 . S
O1335 C1346 1.284 . S
O1336 Gd1291 2.324 . S
O1336 C1356 1.254 . S
O1337 Gd1290 2.429 . S
O1337 C1356 1.268 . S
O1338 Gd1290 2.545 . S
O1338 C1346 1.250 . S
O1339 Gd1290 2.412 . S
O1339 C1349 1.252 . S
O1340 Gd1291 2.545 . S
O1340 C1358 1.258 . S
O1341 Gd1290 2.362 . S
O1341 Gd1291 2.606 . S
O1341 C1357 1.284 . S
O1342 Gd1290 2.324 . S
O1342 C1365 1.254 . S
O1343 Gd1291 2.429 . S
O1343 C1365 1.268 . S
O1344 Gd1291 2.545 . S
O1344 C1357 1.250 . S
O1345 Gd1291 2.412 . S
O1345 C1358 1.252 . S
C1346 O1335 1.284 . S
C1346 O1338 1.250 . S
C1347 H1316 0.929 . S
C1347 C1332 1.437 . S
C1347 C1348 1.317 . S
C1348 H1319 0.930 . S
C1348 C1324 1.431 . S
C1348 C1347 1.317 . S
C1349 Gd1290 2.828 . S
C1349 O1334 1.258 . S
C1349 O1339 1.252 . S
C1349 C1350 1.497 . S
C1350 C1349 1.497 . S
C1350 C1351 1.395 . S
C1350 C1352 1.380 . S
C1351 C1350 1.395 . S
C1351 C1354 1.398 . S
C1351 H1366 0.930 . S
C1352 C1350 1.380 . S
C1352 C1353 1.391 . S
C1352 H1367 0.930 . S
C1353 C1352 1.391 . S
C1353 C1355 1.387 . S
C1354 C1351 1.398 . S
C1354 C1355 1.380 . S
C1354 H1368 0.930 . S
C1355 C1353 1.387 . S
C1355 C1354 1.380 . S
C1355 H1369 0.930 . S
C1356 O1336 1.254 . S
C1356 O1337 1.268 . S
C1357 O1341 1.284 . S
C1357 O1344 1.250 . S
C1358 Gd1291 2.828 . S
C1358 O1340 1.258 . S
C1358 O1345 1.252 . S
C1358 C1359 1.497 . S
C1359 C1358 1.497 . S
C1359 C1360 1.395 . S
C1359 C1361 1.380 . S
C1360 C1359 1.395 . S
C1360 C1363 1.398 . S
C1360 H1370 0.930 . S
C1361 C1359 1.380 . S
C1361 C1362 1.391 . S
C1361 H1371 0.930 . S
C1362 C1361 1.391 . S
C1362 C1364 1.387 . S
C1363 C1360 1.398 . S
C1363 C1364 1.380 . S
C1363 H1372 0.930 . S
C1364 C1362 1.387 . S
C1364 C1363 1.380 . S
C1364 H1373 0.930 . S
C1365 O1342 1.254 . S
C1365 O1343 1.268 . S
H1366 C1351 0.930 . S
H1367 C1352 0.930 . S
H1368 C1354 0.930 . S
H1369 C1355 0.930 . S
H1370 C1360 0.930 . S
H1371 C1361 0.930 . S
H1372 C1363 0.930 . S
H1373 C1364 0.930 . S
Gd1374 N1405 2.661 . S
Gd1374 N1411 2.601 . S
Gd1374 O1418 2.545 . S
Gd1374 O1419 2.606 . S
Gd1374 O1421 2.429 . S
Gd1374 O1422 2.545 . S
Gd1374 O1423 2.412 . S
Gd1374 O1425 2.362 . S
Gd1374 O1426 2.324 . S
Gd1374 C1433 2.828 . S
Gd1375 N1384 2.661 . S
Gd1375 N1388 2.601 . S
Gd1375 O1419 2.362 . S
Gd1375 O1420 2.324 . S
Gd1375 O1424 2.545 . S
Gd1375 O1425 2.606 . S
Gd1375 O1427 2.429 . S
Gd1375 O1428 2.545 . S
Gd1375 O1429 2.412 . S
Gd1375 C1442 2.828 . S
C1376 C1379 1.417 . S
C1376 C1381 1.431 . S
C1376 C1382 1.412 . S
C1377 C1380 1.437 . S
C1377 C1381 1.317 . S
C1377 H1396 0.929 . S
C1378 C1379 1.426 . S
C1378 C1380 1.413 . S
C1378 N1388 1.359 . S
C1379 C1376 1.417 . S
C1379 C1378 1.426 . S
C1379 N1384 1.350 . S
C1380 C1377 1.437 . S
C1380 C1378 1.413 . S
C1380 C1390 1.391 . S
C1381 C1376 1.431 . S
C1381 C1377 1.317 . S
C1381 H1392 0.930 . S
C1382 C1376 1.412 . S
C1382 C1383 1.355 . S
C1382 H1394 0.930 . S
C1383 C1382 1.355 . S
C1383 C1385 1.402 . S
C1383 H1395 0.930 . S
N1384 Gd1375 2.661 . S
N1384 C1379 1.350 . S
N1384 C1385 1.307 . S
C1385 C1383 1.402 . S
C1385 N1384 1.307 . S
C1385 H1386 0.930 . S
H1386 C1385 0.930 . S
C1387 N1388 1.334 . S
C1387 C1389 1.394 . S
C1387 H1391 0.930 . S
N1388 Gd1375 2.601 . S
N1388 C1378 1.359 . S
N1388 C1387 1.334 . S
C1389 C1387 1.394 . S
C1389 C1390 1.359 . S
C1389 H1401 0.930 . S
C1390 C1380 1.391 . S
C1390 C1389 1.359 . S
C1390 H1402 0.929 . S
H1391 C1387 0.930 . S
H1392 C1381 0.930 . S
H1393 C1410 0.930 . S
H1394 C1382 0.930 . S
H1395 C1383 0.930 . S
H1396 C1377 0.929 . S
H1397 C1415 0.930 . S
H1398 C1406 0.930 . S
H1399 C1407 0.930 . S
H1400 C1431 0.929 . S
H1401 C1389 0.930 . S
H1402 C1390 0.929 . S
H1403 C1432 0.930 . S
H1404 C1413 0.930 . S
N1405 Gd1374 2.661 . S
N1405 C1409 1.350 . S
N1405 C1410 1.307 . S
C1406 H1398 0.930 . S
C1406 C1407 1.355 . S
C1406 C1408 1.412 . S
C1407 H1399 0.930 . S
C1407 C1406 1.355 . S
C1407 C1410 1.402 . S
C1408 C1406 1.412 . S
C1408 C1409 1.417 . S
C1408 C1432 1.431 . S
C1409 N1405 1.350 . S
C1409 C1408 1.417 . S
C1409 C1412 1.426 . S
C1410 H1393 0.930 . S
C1410 N1405 1.307 . S
C1410 C1407 1.402 . S
N1411 Gd1374 2.601 . S
N1411 C1412 1.359 . S
N1411 C1415 1.334 . S
C1412 C1409 1.426 . S
C1412 N1411 1.359 . S
C1412 C1416 1.413 . S
C1413 H1404 0.930 . S
C1413 C1414 1.359 . S
C1413 C1415 1.394 . S
C1414 C1413 1.359 . S
C1414 C1416 1.391 . S
C1414 H1417 0.929 . S
C1415 H1397 0.930 . S
C1415 N1411 1.334 . S
C1415 C1413 1.394 . S
C1416 C1412 1.413 . S
C1416 C1414 1.391 . S
C1416 C1431 1.437 . S
H1417 C1414 0.929 . S
O1418 Gd1374 2.545 . S
O1418 C1433 1.258 . S
O1419 Gd1374 2.606 . S
O1419 Gd1375 2.362 . S
O1419 C1430 1.284 . S
O1420 Gd1375 2.324 . S
O1420 C1440 1.254 . S
O1421 Gd1374 2.429 . S
O1421 C1440 1.268 . S
O1422 Gd1374 2.545 . S
O1422 C1430 1.250 . S
O1423 Gd1374 2.412 . S
O1423 C1433 1.252 . S
O1424 Gd1375 2.545 . S
O1424 C1442 1.258 . S
O1425 Gd1374 2.362 . S
O1425 Gd1375 2.606 . S
O1425 C1441 1.284 . S
O1426 Gd1374 2.324 . S
O1426 C1449 1.254 . S
O1427 Gd1375 2.429 . S
O1427 C1449 1.268 . S
O1428 Gd1375 2.545 . S
O1428 C1441 1.250 . S
O1429 Gd1375 2.412 . S
O1429 C1442 1.252 . S
C1430 O1419 1.284 . S
C1430 O1422 1.250 . S
C1431 H1400 0.929 . S
C1431 C1416 1.437 . S
C1431 C1432 1.317 . S
C1432 H1403 0.930 . S
C1432 C1408 1.431 . S
C1432 C1431 1.317 . S
C1433 Gd1374 2.828 . S
C1433 O1418 1.258 . S
C1433 O1423 1.252 . S
C1433 C1434 1.497 . S
C1434 C1433 1.497 . S
C1434 C1435 1.395 . S
C1434 C1436 1.380 . S
C1435 C1434 1.395 . S
C1435 C1438 1.398 . S
C1435 H1450 0.930 . S
C1436 C1434 1.380 . S
C1436 C1437 1.391 . S
C1436 H1451 0.930 . S
C1437 C1436 1.391 . S
C1437 C1439 1.387 . S
C1438 C1435 1.398 . S
C1438 C1439 1.380 . S
C1438 H1452 0.930 . S
C1439 C1437 1.387 . S
C1439 C1438 1.380 . S
C1439 H1453 0.930 . S
C1440 O1420 1.254 . S
C1440 O1421 1.268 . S
C1441 O1425 1.284 . S
C1441 O1428 1.250 . S
C1442 Gd1375 2.828 . S
C1442 O1424 1.258 . S
C1442 O1429 1.252 . S
C1442 C1443 1.497 . S
C1443 C1442 1.497 . S
C1443 C1444 1.395 . S
C1443 C1445 1.380 . S
C1444 C1443 1.395 . S
C1444 C1447 1.398 . S
C1444 H1454 0.930 . S
C1445 C1443 1.380 . S
C1445 C1446 1.391 . S
C1445 H1455 0.930 . S
C1446 C1445 1.391 . S
C1446 C1448 1.387 . S
C1447 C1444 1.398 . S
C1447 C1448 1.380 . S
C1447 H1456 0.930 . S
C1448 C1446 1.387 . S
C1448 C1447 1.380 . S
C1448 H1457 0.930 . S
C1449 O1426 1.254 . S
C1449 O1427 1.268 . S
H1450 C1435 0.930 . S
H1451 C1436 0.930 . S
H1452 C1438 0.930 . S
H1453 C1439 0.930 . S
H1454 C1444 0.930 . S
H1455 C1445 0.930 . S
H1456 C1447 0.930 . S
H1457 C1448 0.930 . S
H1458 C1464 0.930 . S
H1459 C1467 0.930 . S
H1460 C1468 0.930 . S
H1461 C1469 0.930 . S
H1462 C1472 0.930 . S
H1463 C1473 0.930 . S
C1464 H1458 0.930 . S
C1464 C1465 1.355 . S
C1464 C1466 1.415 . S
C1465 C1464 1.355 . S
C1465 C1467 1.419 . S
C1466 C1464 1.415 . S
C1466 C1471 1.425 . S
C1466 C1473 1.409 . S
C1467 H1459 0.930 . S
C1467 C1465 1.419 . S
C1467 C1468 1.362 . S
C1468 H1460 0.930 . S
C1468 C1467 1.362 . S
C1468 C1471 1.409 . S
C1469 H1461 0.930 . S
C1469 C1470 1.355 . S
C1469 C1471 1.415 . S
C1470 C1469 1.355 . S
C1470 C1472 1.419 . S
C1471 C1466 1.425 . S
C1471 C1468 1.409 . S
C1471 C1469 1.415 . S
C1472 H1462 0.930 . S
C1472 C1470 1.419 . S
C1472 C1473 1.362 . S
C1473 H1463 0.930 . S
C1473 C1466 1.409 . S
C1473 C1472 1.362 . S
H1474 C1480 0.930 . S
H1475 C1483 0.930 . S
H1476 C1484 0.930 . S
H1477 C1485 0.930 . S
H1478 C1488 0.930 . S
H1479 C1489 0.930 . S
C1480 H1474 0.930 . S
C1480 C1481 1.355 . S
C1480 C1482 1.415 . S
C1481 C1480 1.355 . S
C1481 C1483 1.419 . S
C1482 C1480 1.415 . S
C1482 C1487 1.425 . S
C1482 C1489 1.409 . S
C1483 H1475 0.930 . S
C1483 C1481 1.419 . S
C1483 C1484 1.362 . S
C1484 H1476 0.930 . S
C1484 C1483 1.362 . S
C1484 C1487 1.409 . S
C1485 H1477 0.930 . S
C1485 C1486 1.355 . S
C1485 C1487 1.415 . S
C1486 C1485 1.355 . S
C1486 C1488 1.419 . S
C1487 C1482 1.425 . S
C1487 C1484 1.409 . S
C1487 C1485 1.415 . S
C1488 H1478 0.930 . S
C1488 C1486 1.419 . S
C1488 C1489 1.362 . S
C1489 H1479 0.930 . S
C1489 C1482 1.409 . S
C1489 C1488 1.362 . S
H1490 C1496 0.930 . S
H1491 C1499 0.930 . S
H1492 C1500 0.930 . S
H1493 C1501 0.930 . S
H1494 C1504 0.930 . S
H1495 C1505 0.930 . S
C1496 H1490 0.930 . S
C1496 C1497 1.355 . S
C1496 C1498 1.415 . S
C1497 C1496 1.355 . S
C1497 C1499 1.419 . S
C1498 C1496 1.415 . S
C1498 C1503 1.425 . S
C1498 C1505 1.409 . S
C1499 H1491 0.930 . S
C1499 C1497 1.419 . S
C1499 C1500 1.362 . S
C1500 H1492 0.930 . S
C1500 C1499 1.362 . S
C1500 C1503 1.409 . S
C1501 H1493 0.930 . S
C1501 C1502 1.355 . S
C1501 C1503 1.415 . S
C1502 C1501 1.355 . S
C1502 C1504 1.419 . S
C1503 C1498 1.425 . S
C1503 C1500 1.409 . S
C1503 C1501 1.415 . S
C1504 H1494 0.930 . S
C1504 C1502 1.419 . S
C1504 C1505 1.362 . S
C1505 H1495 0.930 . S
C1505 C1498 1.409 . S
C1505 C1504 1.362 . S
H1506 C1512 0.930 . S
H1507 C1515 0.930 . S
H1508 C1516 0.930 . S
H1509 C1517 0.930 . S
H1510 C1520 0.930 1_554 S
H1511 C1521 0.930 1_554 S
C1512 H1506 0.930 . S
C1512 C1513 1.355 . S
C1512 C1514 1.415 . S
C1513 C1512 1.355 . S
C1513 C1515 1.419 . S
C1514 C1512 1.415 . S
C1514 C1519 1.425 . S
C1514 C1521 1.409 . S
C1515 H1507 0.930 . S
C1515 C1513 1.419 . S
C1515 C1516 1.362 . S
C1516 H1508 0.930 . S
C1516 C1515 1.362 . S
C1516 C1519 1.409 . S
C1517 H1509 0.930 . S
C1517 C1518 1.355 . S
C1517 C1519 1.415 . S
C1518 C1517 1.355 . S
C1518 C1520 1.419 . S
C1519 C1514 1.425 . S
C1519 C1516 1.409 . S
C1519 C1517 1.415 . S
C1520 H1510 0.930 1_556 S
C1520 C1518 1.419 . S
C1520 C1521 1.362 . S
C1521 H1511 0.930 1_556 S
C1521 C1514 1.409 . S
C1521 C1520 1.362 . S
H1522 C1528 0.930 . S
H1523 C1531 0.930 . S
H1524 C1532 0.930 . S
H1525 C1533 0.930 . S
H1526 C1536 0.930 . S
H1527 C1537 0.930 . S
C1528 H1522 0.930 . S
C1528 C1529 1.355 . S
C1528 C1530 1.415 . S
C1529 C1528 1.355 . S
C1529 C1531 1.419 . S
C1530 C1528 1.415 . S
C1530 C1535 1.425 . S
C1530 C1537 1.409 . S
C1531 H1523 0.930 . S
C1531 C1529 1.419 . S
C1531 C1532 1.362 . S
C1532 H1524 0.930 . S
C1532 C1531 1.362 . S
C1532 C1535 1.409 . S
C1533 H1525 0.930 . S
C1533 C1534 1.355 . S
C1533 C1535 1.415 . S
C1534 C1533 1.355 . S
C1534 C1536 1.419 . S
C1535 C1530 1.425 . S
C1535 C1532 1.409 . S
C1535 C1533 1.415 . S
C1536 H1526 0.930 . S
C1536 C1534 1.419 . S
C1536 C1537 1.362 . S
C1537 H1527 0.930 . S
C1537 C1530 1.409 . S
C1537 C1536 1.362 . S
H1538 C1544 0.930 . S
H1539 C1547 0.930 . S
H1540 C1548 0.930 . S
H1541 C1549 0.930 . S
H1542 C1552 0.930 1_554 S
H1543 C1553 0.930 . S
C1544 H1538 0.930 . S
C1544 C1545 1.355 . S
C1544 C1546 1.415 . S
C1545 C1544 1.355 . S
C1545 C1547 1.419 . S
C1546 C1544 1.415 . S
C1546 C1551 1.425 . S
C1546 C1553 1.409 . S
C1547 H1539 0.930 . S
C1547 C1545 1.419 . S
C1547 C1548 1.362 . S
C1548 H1540 0.930 . S
C1548 C1547 1.362 . S
C1548 C1551 1.409 . S
C1549 H1541 0.930 . S
C1549 C1550 1.355 . S
C1549 C1551 1.415 . S
C1550 C1549 1.355 . S
C1550 C1552 1.419 . S
C1551 C1546 1.425 . S
C1551 C1548 1.409 . S
C1551 C1549 1.415 . S
C1552 H1542 0.930 1_556 S
C1552 C1550 1.419 . S
C1552 C1553 1.362 . S
C1553 H1543 0.930 . S
C1553 C1546 1.409 . S
C1553 C1552 1.362 . S
H1554 C1560 0.930 . S
H1555 C1563 0.930 . S
H1556 C1564 0.930 . S
H1557 C1565 0.930 . S
H1558 C1568 0.930 . S
H1559 C1569 0.930 . S
C1560 H1554 0.930 . S
C1560 C1561 1.355 . S
C1560 C1562 1.415 . S
C1561 C1560 1.355 . S
C1561 C1563 1.419 . S
C1562 C1560 1.415 . S
C1562 C1567 1.425 . S
C1562 C1569 1.409 . S
C1563 H1555 0.930 . S
C1563 C1561 1.419 . S
C1563 C1564 1.362 . S
C1564 H1556 0.930 . S
C1564 C1563 1.362 . S
C1564 C1567 1.409 . S
C1565 H1557 0.930 . S
C1565 C1566 1.355 . S
C1565 C1567 1.415 . S
C1566 C1565 1.355 . S
C1566 C1568 1.419 . S
C1567 C1562 1.425 . S
C1567 C1564 1.409 . S
C1567 C1565 1.415 . S
C1568 H1558 0.930 . S
C1568 C1566 1.419 . S
C1568 C1569 1.362 . S
C1569 H1559 0.930 . S
C1569 C1562 1.409 . S
C1569 C1568 1.362 . S
H1570 C1576 0.930 . S
H1571 C1579 0.930 . S
H1572 C1580 0.930 . S
H1573 C1581 0.930 . S
H1574 C1584 0.930 . S
H1575 C1585 0.930 . S
C1576 H1570 0.930 . S
C1576 C1577 1.355 . S
C1576 C1578 1.415 . S
C1577 C1576 1.355 . S
C1577 C1579 1.419 . S
C1578 C1576 1.415 . S
C1578 C1583 1.425 . S
C1578 C1585 1.409 . S
C1579 H1571 0.930 . S
C1579 C1577 1.419 . S
C1579 C1580 1.362 . S
C1580 H1572 0.930 . S
C1580 C1579 1.362 . S
C1580 C1583 1.409 . S
C1581 H1573 0.930 . S
C1581 C1582 1.355 . S
C1581 C1583 1.415 . S
C1582 C1581 1.355 . S
C1582 C1584 1.419 . S
C1583 C1578 1.425 . S
C1583 C1580 1.409 . S
C1583 C1581 1.415 . S
C1584 H1574 0.930 . S
C1584 C1582 1.419 . S
C1584 C1585 1.362 . S
C1585 H1575 0.930 . S
C1585 C1578 1.409 . S
C1585 C1584 1.362 . S
H1586 C1592 0.930 . S
H1587 C1595 0.930 . S
H1588 C1596 0.917 1_554 S
H1589 C1597 0.912 1_554 S
H1590 C1600 0.930 . S
H1591 C1601 0.930 . S
C1592 H1586 0.930 . S
C1592 C1593 1.355 . S
C1592 C1594 1.415 . S
C1593 C1592 1.355 . S
C1593 C1595 1.419 . S
C1594 C1592 1.415 . S
C1594 C1599 1.425 . S
C1594 C1601 1.409 . S
C1595 H1587 0.930 . S
C1595 C1593 1.419 . S
C1595 C1596 1.362 . S
C1596 H1588 0.917 1_556 S
C1596 C1595 1.362 . S
C1596 C1599 1.409 . S
C1597 H1589 0.912 1_556 S
C1597 C1598 1.355 . S
C1597 C1599 1.415 . S
C1598 C1597 1.355 . S
C1598 C1600 1.419 . S
C1599 C1594 1.425 . S
C1599 C1596 1.409 . S
C1599 C1597 1.415 . S
C1600 H1590 0.930 . S
C1600 C1598 1.419 . S
C1600 C1601 1.362 . S
C1601 H1591 0.930 . S
C1601 C1594 1.409 . S
C1601 C1600 1.362 . S
H1602 C1608 0.930 . S
H1603 C1611 0.930 . S
H1604 C1612 0.930 . S
H1605 C1613 0.930 . S
H1606 C1616 0.930 . S
H1607 C1617 0.930 . S
C1608 H1602 0.930 . S
C1608 C1609 1.355 . S
C1608 C1610 1.415 . S
C1609 C1608 1.355 . S
C1609 C1611 1.419 . S
C1610 C1608 1.415 . S
C1610 C1615 1.425 . S
C1610 C1617 1.409 . S
C1611 H1603 0.930 . S
C1611 C1609 1.419 . S
C1611 C1612 1.362 . S
C1612 H1604 0.930 . S
C1612 C1611 1.362 . S
C1612 C1615 1.409 . S
C1613 H1605 0.930 . S
C1613 C1614 1.355 . S
C1613 C1615 1.415 . S
C1614 C1613 1.355 . S
C1614 C1616 1.419 . S
C1615 C1610 1.425 . S
C1615 C1612 1.409 . S
C1615 C1613 1.415 . S
C1616 H1606 0.930 . S
C1616 C1614 1.419 . S
C1616 C1617 1.362 . S
C1617 H1607 0.930 . S
C1617 C1610 1.409 . S
C1617 C1616 1.362 . S
H1618 C1624 0.930 . S
H1619 C1627 0.930 . S
H1620 C1628 0.930 . S
H1621 C1629 0.930 . S
H1622 C1632 0.930 . S
H1623 C1633 0.930 . S
C1624 H1618 0.930 . S
C1624 C1625 1.355 . S
C1624 C1626 1.415 . S
C1625 C1624 1.355 . S
C1625 C1627 1.419 . S
C1626 C1624 1.415 . S
C1626 C1631 1.425 . S
C1626 C1633 1.409 . S
C1627 H1619 0.930 . S
C1627 C1625 1.419 . S
C1627 C1628 1.362 . S
C1628 H1620 0.930 . S
C1628 C1627 1.362 . S
C1628 C1631 1.409 . S
C1629 H1621 0.930 . S
C1629 C1630 1.355 . S
C1629 C1631 1.415 . S
C1630 C1629 1.355 . S
C1630 C1632 1.419 . S
C1631 C1626 1.425 . S
C1631 C1628 1.409 . S
C1631 C1629 1.415 . S
C1632 H1622 0.930 . S
C1632 C1630 1.419 . S
C1632 C1633 1.362 . S
C1633 H1623 0.930 . S
C1633 C1626 1.409 . S
C1633 C1632 1.362 . S
H1634 C1640 0.930 . S
H1635 C1643 0.930 . S
H1636 C1644 0.930 . S
H1637 C1645 0.930 . S
H1638 C1648 0.930 . S
H1639 C1649 0.930 . S
C1640 H1634 0.930 . S
C1640 C1641 1.355 . S
C1640 C1642 1.415 . S
C1641 C1640 1.355 . S
C1641 C1643 1.419 . S
C1642 C1640 1.415 . S
C1642 C1647 1.425 . S
C1642 C1649 1.409 . S
C1643 H1635 0.930 . S
C1643 C1641 1.419 . S
C1643 C1644 1.362 . S
C1644 H1636 0.930 . S
C1644 C1643 1.362 . S
C1644 C1647 1.409 . S
C1645 H1637 0.930 . S
C1645 C1646 1.355 . S
C1645 C1647 1.415 . S
C1646 C1645 1.355 . S
C1646 C1648 1.419 . S
C1647 C1642 1.425 . S
C1647 C1644 1.409 . S
C1647 C1645 1.415 . S
C1648 H1638 0.930 . S
C1648 C1646 1.419 . S
C1648 C1649 1.362 . S
C1649 H1639 0.930 . S
C1649 C1642 1.409 . S
C1649 C1648 1.362 . S
H1650 C1656 0.930 . S
H1651 C1659 0.930 1_655 S
H1652 C1660 0.930 . S
H1653 C1661 0.930 . S
H1654 C1664 0.930 . S
H1655 C1665 0.930 . S
C1656 H1650 0.930 . S
C1656 C1657 1.355 . S
C1656 C1658 1.415 . S
C1657 C1656 1.355 . S
C1657 C1659 1.419 . S
C1658 C1656 1.415 . S
C1658 C1663 1.425 . S
C1658 C1665 1.409 . S
C1659 H1651 0.930 1_455 S
C1659 C1657 1.419 . S
C1659 C1660 1.362 . S
C1660 H1652 0.930 . S
C1660 C1659 1.362 . S
C1660 C1663 1.409 . S
C1661 H1653 0.930 . S
C1661 C1662 1.355 . S
C1661 C1663 1.415 . S
C1662 C1661 1.355 . S
C1662 C1664 1.419 . S
C1663 C1658 1.425 . S
C1663 C1660 1.409 . S
C1663 C1661 1.415 . S
C1664 H1654 0.930 . S
C1664 C1662 1.419 . S
C1664 C1665 1.362 . S
C1665 H1655 0.930 . S
C1665 C1658 1.409 . S
C1665 C1664 1.362 . S
H1666 C1672 0.930 . S
H1667 C1675 0.930 . S
H1668 C1676 0.930 . S
H1669 C1677 0.930 . S
H1670 C1680 0.930 . S
H1671 C1681 0.930 . S
C1672 H1666 0.930 . S
C1672 C1673 1.355 . S
C1672 C1674 1.415 . S
C1673 C1672 1.355 . S
C1673 C1675 1.419 . S
C1674 C1672 1.415 . S
C1674 C1679 1.425 . S
C1674 C1681 1.409 . S
C1675 H1667 0.930 . S
C1675 C1673 1.419 . S
C1675 C1676 1.362 . S
C1676 H1668 0.930 . S
C1676 C1675 1.362 . S
C1676 C1679 1.409 . S
C1677 H1669 0.930 . S
C1677 C1678 1.355 . S
C1677 C1679 1.415 . S
C1678 C1677 1.355 . S
C1678 C1680 1.419 . S
C1679 C1674 1.425 . S
C1679 C1676 1.409 . S
C1679 C1677 1.415 . S
C1680 H1670 0.930 . S
C1680 C1678 1.419 . S
C1680 C1681 1.362 . S
C1681 H1671 0.930 . S
C1681 C1674 1.409 . S
C1681 C1680 1.362 . S
H1682 C1688 0.930 1_545 S
H1683 C1691 0.930 . S
H1684 C1692 0.930 . S
H1685 C1693 0.930 . S
H1686 C1696 0.930 . S
H1687 C1697 0.930 . S
C1688 H1682 0.930 1_565 S
C1688 C1689 1.355 1_565 S
C1688 C1690 1.415 . S
C1689 C1688 1.355 1_545 S
C1689 C1691 1.419 1_545 S
C1690 C1688 1.415 . S
C1690 C1695 1.425 . S
C1690 C1697 1.409 . S
C1691 H1683 0.930 . S
C1691 C1689 1.419 1_565 S
C1691 C1692 1.362 . S
C1692 H1684 0.930 . S
C1692 C1691 1.362 . S
C1692 C1695 1.409 . S
C1693 H1685 0.930 . S
C1693 C1694 1.355 . S
C1693 C1695 1.415 . S
C1694 C1693 1.355 . S
C1694 C1696 1.419 . S
C1695 C1690 1.425 . S
C1695 C1692 1.409 . S
C1695 C1693 1.415 . S
C1696 H1686 0.930 . S
C1696 C1694 1.419 . S
C1696 C1697 1.362 . S
C1697 H1687 0.930 . S
C1697 C1690 1.409 . S
C1697 C1696 1.362 . S
H1698 C1704 0.930 . S
H1699 C1707 0.930 . S
H1700 C1708 0.930 . S
H1701 C1709 0.930 . S
H1702 C1712 0.930 . S
H1703 C1713 0.930 . S
C1704 H1698 0.930 . S
C1704 C1705 1.355 . S
C1704 C1706 1.415 . S
C1705 C1704 1.355 . S
C1705 C1707 1.419 . S
C1706 C1704 1.415 . S
C1706 C1711 1.425 . S
C1706 C1713 1.409 . S
C1707 H1699 0.930 . S
C1707 C1705 1.419 . S
C1707 C1708 1.362 . S
C1708 H1700 0.930 . S
C1708 C1707 1.362 . S
C1708 C1711 1.409 . S
C1709 H1701 0.930 . S
C1709 C1710 1.355 . S
C1709 C1711 1.415 . S
C1710 C1709 1.355 . S
C1710 C1712 1.419 . S
C1711 C1706 1.425 . S
C1711 C1708 1.409 . S
C1711 C1709 1.415 . S
C1712 H1702 0.930 . S
C1712 C1710 1.419 . S
C1712 C1713 1.362 . S
C1713 H1703 0.930 . S
C1713 C1706 1.409 . S
C1713 C1712 1.362 . S
H1714 C1720 0.930 . S
H1715 C1723 0.930 . S
H1716 C1724 0.930 . S
H1717 C1725 0.930 . S
H1718 C1728 0.930 . S
H1719 C1729 0.930 . S
C1720 H1714 0.930 . S
C1720 C1721 1.355 . S
C1720 C1722 1.415 . S
C1721 C1720 1.355 . S
C1721 C1723 1.419 . S
C1722 C1720 1.415 . S
C1722 C1727 1.425 . S
C1722 C1729 1.409 . S
C1723 H1715 0.930 . S
C1723 C1721 1.419 . S
C1723 C1724 1.362 . S
C1724 H1716 0.930 . S
C1724 C1723 1.362 . S
C1724 C1727 1.409 . S
C1725 H1717 0.930 . S
C1725 C1726 1.355 . S
C1725 C1727 1.415 . S
C1726 C1725 1.355 . S
C1726 C1728 1.419 . S
C1727 C1722 1.425 . S
C1727 C1724 1.409 . S
C1727 C1725 1.415 . S
C1728 H1718 0.930 . S
C1728 C1726 1.419 . S
C1728 C1729 1.362 . S
C1729 H1719 0.930 . S
C1729 C1722 1.409 . S
C1729 C1728 1.362 . S
H1730 C1736 0.930 . S
H1731 C1739 0.930 . S
H1732 C1740 0.930 . S
H1733 C1741 0.930 . S
H1734 C1744 0.930 . S
H1735 C1745 0.930 . S
C1736 H1730 0.930 . S
C1736 C1737 1.355 . S
C1736 C1738 1.415 . S
C1737 C1736 1.355 . S
C1737 C1739 1.419 . S
C1738 C1736 1.415 . S
C1738 C1743 1.425 . S
C1738 C1745 1.409 . S
C1739 H1731 0.930 . S
C1739 C1737 1.419 . S
C1739 C1740 1.362 . S
C1740 H1732 0.930 . S
C1740 C1739 1.362 . S
C1740 C1743 1.409 . S
C1741 H1733 0.930 . S
C1741 C1742 1.355 . S
C1741 C1743 1.415 . S
C1742 C1741 1.355 . S
C1742 C1744 1.419 . S
C1743 C1738 1.425 . S
C1743 C1740 1.409 . S
C1743 C1741 1.415 . S
C1744 H1734 0.930 . S
C1744 C1742 1.419 . S
C1744 C1745 1.362 . S
C1745 H1735 0.930 . S
C1745 C1738 1.409 . S
C1745 C1744 1.362 . S
H1746 C1752 0.930 . S
H1747 C1755 0.930 . S
H1748 C1756 0.930 . S
H1749 C1757 0.930 . S
H1750 C1760 0.930 . S
H1751 C1761 0.930 . S
C1752 H1746 0.930 . S
C1752 C1753 1.355 . S
C1752 C1754 1.415 . S
C1753 C1752 1.355 . S
C1753 C1755 1.419 . S
C1754 C1752 1.415 . S
C1754 C1759 1.425 . S
C1754 C1761 1.409 . S
C1755 H1747 0.930 . S
C1755 C1753 1.419 . S
C1755 C1756 1.362 . S
C1756 H1748 0.930 . S
C1756 C1755 1.362 . S
C1756 C1759 1.409 . S
C1757 H1749 0.930 . S
C1757 C1758 1.355 . S
C1757 C1759 1.415 . S
C1758 C1757 1.355 . S
C1758 C1760 1.419 . S
C1759 C1754 1.425 . S
C1759 C1756 1.409 . S
C1759 C1757 1.415 . S
C1760 H1750 0.930 . S
C1760 C1758 1.419 . S
C1760 C1761 1.362 . S
C1761 H1751 0.930 . S
C1761 C1754 1.409 . S
C1761 C1760 1.362 . S
H1762 C1768 0.930 . S
H1763 C1771 0.930 . S
H1764 C1772 0.930 . S
H1765 C1773 0.930 . S
H1766 C1776 0.930 . S
H1767 C1777 0.930 . S
C1768 H1762 0.930 . S
C1768 C1769 1.355 . S
C1768 C1770 1.415 . S
C1769 C1768 1.355 . S
C1769 C1771 1.419 . S
C1770 C1768 1.415 . S
C1770 C1775 1.425 . S
C1770 C1777 1.409 . S
C1771 H1763 0.930 . S
C1771 C1769 1.419 . S
C1771 C1772 1.362 . S
C1772 H1764 0.930 . S
C1772 C1771 1.362 . S
C1772 C1775 1.409 . S
C1773 H1765 0.930 . S
C1773 C1774 1.355 . S
C1773 C1775 1.415 . S
C1774 C1773 1.355 . S
C1774 C1776 1.419 . S
C1775 C1770 1.425 . S
C1775 C1772 1.409 . S
C1775 C1773 1.415 . S
C1776 H1766 0.930 . S
C1776 C1774 1.419 . S
C1776 C1777 1.362 . S
C1777 H1767 0.930 . S
C1777 C1770 1.409 . S
C1777 C1776 1.362 . S
H1778 C1784 0.930 . S
H1779 C1787 0.930 . S
H1780 C1788 0.930 . S
H1781 C1789 0.930 . S
H1782 C1792 0.930 . S
H1783 C1793 0.930 . S
C1784 H1778 0.930 . S
C1784 C1785 1.355 . S
C1784 C1786 1.415 . S
C1785 C1784 1.355 . S
C1785 C1787 1.419 . S
C1786 C1784 1.415 . S
C1786 C1791 1.425 . S
C1786 C1793 1.409 . S
C1787 H1779 0.930 . S
C1787 C1785 1.419 . S
C1787 C1788 1.362 . S
C1788 H1780 0.930 . S
C1788 C1787 1.362 . S
C1788 C1791 1.409 . S
C1789 H1781 0.930 . S
C1789 C1790 1.355 . S
C1789 C1791 1.415 . S
C1790 C1789 1.355 . S
C1790 C1792 1.419 . S
C1791 C1786 1.425 . S
C1791 C1788 1.409 . S
C1791 C1789 1.415 . S
C1792 H1782 0.930 . S
C1792 C1790 1.419 . S
C1792 C1793 1.362 . S
C1793 H1783 0.930 . S
C1793 C1786 1.409 . S
C1793 C1792 1.362 . S
H1794 C1800 0.930 . S
H1795 C1803 0.929 1_545 S
H1796 C1804 0.930 . S
H1797 C1805 0.930 . S
H1798 C1808 0.930 . S
H1799 C1809 0.930 . S
C1800 H1794 0.930 . S
C1800 C1801 1.353 1_565 S
C1800 C1802 1.415 . S
C1801 C1800 1.353 1_545 S
C1801 C1803 1.396 1_545 S
C1802 C1800 1.415 . S
C1802 C1807 1.425 . S
C1802 C1809 1.409 . S
C1803 H1795 0.929 1_565 S
C1803 C1801 1.396 1_565 S
C1803 C1804 1.362 . S
C1804 H1796 0.930 . S
C1804 C1803 1.362 . S
C1804 C1807 1.409 . S
C1805 H1797 0.930 . S
C1805 C1806 1.355 . S
C1805 C1807 1.415 . S
C1806 C1805 1.355 . S
C1806 C1808 1.419 . S
C1807 C1802 1.425 . S
C1807 C1804 1.409 . S
C1807 C1805 1.415 . S
C1808 H1798 0.930 . S
C1808 C1806 1.419 . S
C1808 C1809 1.362 . S
C1809 H1799 0.930 . S
C1809 C1802 1.409 . S
C1809 C1808 1.362 . S
H1810 C1816 0.930 . S
H1811 C1819 0.930 1_655 S
H1812 C1820 0.930 . S
H1813 C1821 0.930 . S
H1814 C1824 0.930 . S
H1815 C1825 0.930 . S
C1816 H1810 0.930 . S
C1816 C1817 1.355 . S
C1816 C1818 1.415 . S
C1817 C1816 1.355 . S
C1817 C1819 1.419 . S
C1818 C1816 1.415 . S
C1818 C1823 1.425 . S
C1818 C1825 1.409 . S
C1819 H1811 0.930 1_455 S
C1819 C1817 1.419 . S
C1819 C1820 1.362 . S
C1820 H1812 0.930 . S
C1820 C1819 1.362 . S
C1820 C1823 1.409 . S
C1821 H1813 0.930 . S
C1821 C1822 1.355 . S
C1821 C1823 1.415 . S
C1822 C1821 1.355 . S
C1822 C1824 1.419 . S
C1823 C1818 1.425 . S
C1823 C1820 1.409 . S
C1823 C1821 1.415 . S
C1824 H1814 0.930 . S
C1824 C1822 1.419 . S
C1824 C1825 1.362 . S
C1825 H1815 0.930 . S
C1825 C1818 1.409 . S
C1825 C1824 1.362 . S
H1826 C1832 0.930 . S
H1827 C1835 0.930 . S
H1828 C1836 0.930 . S
H1829 C1837 0.930 . S
H1830 C1840 0.930 . S
H1831 C1841 0.930 . S
C1832 H1826 0.930 . S
C1832 C1833 1.355 . S
C1832 C1834 1.415 . S
C1833 C1832 1.355 . S
C1833 C1835 1.419 . S
C1834 C1832 1.415 . S
C1834 C1839 1.425 . S
C1834 C1841 1.409 . S
C1835 H1827 0.930 . S
C1835 C1833 1.419 . S
C1835 C1836 1.362 . S
C1836 H1828 0.930 . S
C1836 C1835 1.362 . S
C1836 C1839 1.409 . S
C1837 H1829 0.930 . S
C1837 C1838 1.355 . S
C1837 C1839 1.415 . S
C1838 C1837 1.355 . S
C1838 C1840 1.419 . S
C1839 C1834 1.425 . S
C1839 C1836 1.409 . S
C1839 C1837 1.415 . S
C1840 H1830 0.930 . S
C1840 C1838 1.419 . S
C1840 C1841 1.362 . S
C1841 H1831 0.930 . S
C1841 C1834 1.409 . S
C1841 C1840 1.362 . S
H1842 C1848 0.930 . S
H1843 C1851 0.930 . S
H1844 C1852 0.930 . S
H1845 C1853 0.930 . S
H1846 C1856 0.930 . S
H1847 C1857 0.930 . S
C1848 H1842 0.930 . S
C1848 C1849 1.355 . S
C1848 C1850 1.415 . S
C1849 C1848 1.355 . S
C1849 C1851 1.419 . S
C1850 C1848 1.415 . S
C1850 C1855 1.425 . S
C1850 C1857 1.409 . S
C1851 H1843 0.930 . S
C1851 C1849 1.419 . S
C1851 C1852 1.362 . S
C1852 H1844 0.930 . S
C1852 C1851 1.362 . S
C1852 C1855 1.409 . S
C1853 H1845 0.930 . S
C1853 C1854 1.355 . S
C1853 C1855 1.415 . S
C1854 C1853 1.355 . S
C1854 C1856 1.419 . S
C1855 C1850 1.425 . S
C1855 C1852 1.409 . S
C1855 C1853 1.415 . S
C1856 H1846 0.930 . S
C1856 C1854 1.419 . S
C1856 C1857 1.362 . S
C1857 H1847 0.930 . S
C1857 C1850 1.409 . S
C1857 C1856 1.362 . S
H1858 C1864 0.930 . S
H1859 C1867 0.930 . S
H1860 C1868 0.930 . S
H1861 C1869 0.930 . S
H1862 C1872 0.930 . S
H1863 C1873 0.930 . S
C1864 H1858 0.930 . S
C1864 C1865 1.355 . S
C1864 C1866 1.415 . S
C1865 C1864 1.355 . S
C1865 C1867 1.419 . S
C1866 C1864 1.415 . S
C1866 C1871 1.425 . S
C1866 C1873 1.409 . S
C1867 H1859 0.930 . S
C1867 C1865 1.419 . S
C1867 C1868 1.362 . S
C1868 H1860 0.930 . S
C1868 C1867 1.362 . S
C1868 C1871 1.409 . S
C1869 H1861 0.930 . S
C1869 C1870 1.355 . S
C1869 C1871 1.415 . S
C1870 C1869 1.355 . S
C1870 C1872 1.419 . S
C1871 C1866 1.425 . S
C1871 C1868 1.409 . S
C1871 C1869 1.415 . S
C1872 H1862 0.930 . S
C1872 C1870 1.419 . S
C1872 C1873 1.362 . S
C1873 H1863 0.930 . S
C1873 C1866 1.409 . S
C1873 C1872 1.362 . S
H1874 C1880 0.930 . S
H1875 C1883 0.930 . S
H1876 C1884 0.930 . S
H1877 C1885 0.930 . S
H1878 C1888 0.930 . S
H1879 C1889 0.930 . S
C1880 H1874 0.930 . S
C1880 C1881 1.355 . S
C1880 C1882 1.415 . S
C1881 C1880 1.355 . S
C1881 C1883 1.419 . S
C1882 C1880 1.415 . S
C1882 C1887 1.425 . S
C1882 C1889 1.409 . S
C1883 H1875 0.930 . S
C1883 C1881 1.419 . S
C1883 C1884 1.362 . S
C1884 H1876 0.930 . S
C1884 C1883 1.362 . S
C1884 C1887 1.409 . S
C1885 H1877 0.930 . S
C1885 C1886 1.355 . S
C1885 C1887 1.415 . S
C1886 C1885 1.355 . S
C1886 C1888 1.419 . S
C1887 C1882 1.425 . S
C1887 C1884 1.409 . S
C1887 C1885 1.415 . S
C1888 H1878 0.930 . S
C1888 C1886 1.419 . S
C1888 C1889 1.362 . S
C1889 H1879 0.930 . S
C1889 C1882 1.409 . S
C1889 C1888 1.362 . S
H1890 C1896 0.930 . S
H1891 C1899 0.930 1_565 S
H1892 C1900 0.930 . S
H1893 C1901 0.930 . S
H1894 C1904 0.930 . S
H1895 C1905 0.930 . S
C1896 H1890 0.930 . S
C1896 C1897 1.347 1_545 S
C1896 C1898 1.415 . S
C1897 C1896 1.347 1_565 S
C1897 C1899 1.422 1_565 S
C1898 C1896 1.415 . S
C1898 C1903 1.425 . S
C1898 C1905 1.409 . S
C1899 H1891 0.930 1_545 S
C1899 C1897 1.422 1_545 S
C1899 C1900 1.362 . S
C1900 H1892 0.930 . S
C1900 C1899 1.362 . S
C1900 C1903 1.409 . S
C1901 H1893 0.930 . S
C1901 C1902 1.355 . S
C1901 C1903 1.415 . S
C1902 C1901 1.355 . S
C1902 C1904 1.419 . S
C1903 C1898 1.425 . S
C1903 C1900 1.409 . S
C1903 C1901 1.415 . S
C1904 H1894 0.930 . S
C1904 C1902 1.419 . S
C1904 C1905 1.362 . S
C1905 H1895 0.930 . S
C1905 C1898 1.409 . S
C1905 C1904 1.362 . S
H1906 C1912 0.930 . S
H1907 C1915 0.890 1_455 S
H1908 C1916 0.930 . S
H1909 C1917 0.930 . S
H1910 C1920 0.930 . S
H1911 C1921 0.930 . S
C1912 H1906 0.930 . S
C1912 C1913 1.355 . S
C1912 C1914 1.415 . S
C1913 C1912 1.355 . S
C1913 C1915 1.421 . S
C1914 C1912 1.415 . S
C1914 C1919 1.425 . S
C1914 C1921 1.409 . S
C1915 H1907 0.890 1_655 S
C1915 C1913 1.421 . S
C1915 C1916 1.402 . S
C1916 H1908 0.930 . S
C1916 C1915 1.402 . S
C1916 C1919 1.409 . S
C1917 H1909 0.930 . S
C1917 C1918 1.355 . S
C1917 C1919 1.415 . S
C1918 C1917 1.355 . S
C1918 C1920 1.419 . S
C1919 C1914 1.425 . S
C1919 C1916 1.409 . S
C1919 C1917 1.415 . S
C1920 H1910 0.930 . S
C1920 C1918 1.419 . S
C1920 C1921 1.362 . S
C1921 H1911 0.930 . S
C1921 C1914 1.409 . S
C1921 C1920 1.362 . S
H1922 C1928 0.930 . S
H1923 C1931 0.930 . S
H1924 C1932 0.930 . S
H1925 C1933 0.930 . S
H1926 C1936 0.930 . S
H1927 C1937 0.930 . S
C1928 H1922 0.930 . S
C1928 C1929 1.355 . S
C1928 C1930 1.415 . S
C1929 C1928 1.355 . S
C1929 C1931 1.419 . S
C1930 C1928 1.415 . S
C1930 C1935 1.425 . S
C1930 C1937 1.409 . S
C1931 H1923 0.930 . S
C1931 C1929 1.419 . S
C1931 C1932 1.362 . S
C1932 H1924 0.930 . S
C1932 C1931 1.362 . S
C1932 C1935 1.409 . S
C1933 H1925 0.930 . S
C1933 C1934 1.355 . S
C1933 C1935 1.415 . S
C1934 C1933 1.355 . S
C1934 C1936 1.419 . S
C1935 C1930 1.425 . S
C1935 C1932 1.409 . S
C1935 C1933 1.415 . S
C1936 H1926 0.930 . S
C1936 C1934 1.419 . S
C1936 C1937 1.362 . S
C1937 H1927 0.930 . S
C1937 C1930 1.409 . S
C1937 C1936 1.362 . S
H1938 C1944 0.930 . S
H1939 C1947 0.921 1_455 S
H1940 C1948 0.930 . S
H1941 C1949 0.930 . S
H1942 C1952 0.930 . S
H1943 C1953 0.930 . S
C1944 H1938 0.930 . S
C1944 C1945 1.355 . S
C1944 C1946 1.415 . S
C1945 C1944 1.355 . S
C1945 C1947 1.422 . S
C1946 C1944 1.415 . S
C1946 C1951 1.425 . S
C1946 C1953 1.409 . S
C1947 H1939 0.921 1_655 S
C1947 C1945 1.422 . S
C1947 C1948 1.368 . S
C1948 H1940 0.930 . S
C1948 C1947 1.368 . S
C1948 C1951 1.409 . S
C1949 H1941 0.930 . S
C1949 C1950 1.355 . S
C1949 C1951 1.415 . S
C1950 C1949 1.355 . S
C1950 C1952 1.419 . S
C1951 C1946 1.425 . S
C1951 C1948 1.409 . S
C1951 C1949 1.415 . S
C1952 H1942 0.930 . S
C1952 C1950 1.419 . S
C1952 C1953 1.362 . S
C1953 H1943 0.930 . S
C1953 C1946 1.409 . S
C1953 C1952 1.362 . S
H1954 C1960 0.930 . S
H1955 C1963 0.930 . S
H1956 C1964 0.930 . S
H1957 C1965 0.930 . S
H1958 C1968 0.930 . S
H1959 C1969 0.930 . S
C1960 H1954 0.930 . S
C1960 C1961 1.355 . S
C1960 C1962 1.415 . S
C1961 C1960 1.355 . S
C1961 C1963 1.419 . S
C1962 C1960 1.415 . S
C1962 C1967 1.425 . S
C1962 C1969 1.409 . S
C1963 H1955 0.930 . S
C1963 C1961 1.419 . S
C1963 C1964 1.362 . S
C1964 H1956 0.930 . S
C1964 C1963 1.362 . S
C1964 C1967 1.409 . S
C1965 H1957 0.930 . S
C1965 C1966 1.355 . S
C1965 C1967 1.415 . S
C1966 C1965 1.355 . S
C1966 C1968 1.419 . S
C1967 C1962 1.425 . S
C1967 C1964 1.409 . S
C1967 C1965 1.415 . S
C1968 H1958 0.930 . S
C1968 C1966 1.419 . S
C1968 C1969 1.362 . S
C1969 H1959 0.930 . S
C1969 C1962 1.409 . S
C1969 C1968 1.362 . S
H1970 C1976 0.930 . S
H1971 C1979 0.930 1_565 S
H1972 C1980 0.930 . S
H1973 C1981 0.930 . S
H1974 C1984 0.930 . S
H1975 C1985 0.930 . S
C1976 H1970 0.930 . S
C1976 C1977 1.355 1_545 S
C1976 C1978 1.415 . S
C1977 C1976 1.355 1_565 S
C1977 C1979 1.419 1_565 S
C1978 C1976 1.415 . S
C1978 C1983 1.425 . S
C1978 C1985 1.409 . S
C1979 H1971 0.930 1_545 S
C1979 C1977 1.419 1_545 S
C1979 C1980 1.362 . S
C1980 H1972 0.930 . S
C1980 C1979 1.362 . S
C1980 C1983 1.409 . S
C1981 H1973 0.930 . S
C1981 C1982 1.355 . S
C1981 C1983 1.415 . S
C1982 C1981 1.355 . S
C1982 C1984 1.419 . S
C1983 C1978 1.425 . S
C1983 C1980 1.409 . S
C1983 C1981 1.415 . S
C1984 H1974 0.930 . S
C1984 C1982 1.419 . S
C1984 C1985 1.362 . S
C1985 H1975 0.930 . S
C1985 C1978 1.409 . S
C1985 C1984 1.362 . S
H1986 C1992 0.930 . S
H1987 C1995 0.930 . S
H1988 C1996 0.930 . S
H1989 C1997 0.930 . S
H1990 C2000 0.930 . S
H1991 C2001 0.930 . S
C1992 H1986 0.930 . S
C1992 C1993 1.355 . S
C1992 C1994 1.415 . S
C1993 C1992 1.355 . S
C1993 C1995 1.419 . S
C1994 C1992 1.415 . S
C1994 C1999 1.425 . S
C1994 C2001 1.409 . S
C1995 H1987 0.930 . S
C1995 C1993 1.419 . S
C1995 C1996 1.362 . S
C1996 H1988 0.930 . S
C1996 C1995 1.362 . S
C1996 C1999 1.409 . S
C1997 H1989 0.930 . S
C1997 C1998 1.355 . S
C1997 C1999 1.415 . S
C1998 C1997 1.355 . S
C1998 C2000 1.419 . S
C1999 C1994 1.425 . S
C1999 C1996 1.409 . S
C1999 C1997 1.415 . S
C2000 H1990 0.930 . S
C2000 C1998 1.419 . S
C2000 C2001 1.362 . S
C2001 H1991 0.930 . S
C2001 C1994 1.409 . S
C2001 C2000 1.362 . S
H2002 C2008 0.930 . S
H2003 C2011 0.930 . S
H2004 C2012 0.930 . S
H2005 C2013 0.930 . S
H2006 C2016 0.930 . S
H2007 C2017 0.930 . S
C2008 H2002 0.930 . S
C2008 C2009 1.355 . S
C2008 C2010 1.415 . S
C2009 C2008 1.355 . S
C2009 C2011 1.419 . S
C2010 C2008 1.415 . S
C2010 C2015 1.425 . S
C2010 C2017 1.409 . S
C2011 H2003 0.930 . S
C2011 C2009 1.419 . S
C2011 C2012 1.362 . S
C2012 H2004 0.930 . S
C2012 C2011 1.362 . S
C2012 C2015 1.409 . S
C2013 H2005 0.930 . S
C2013 C2014 1.355 . S
C2013 C2015 1.415 . S
C2014 C2013 1.355 . S
C2014 C2016 1.419 . S
C2015 C2010 1.425 . S
C2015 C2012 1.409 . S
C2015 C2013 1.415 . S
C2016 H2006 0.930 . S
C2016 C2014 1.419 . S
C2016 C2017 1.362 . S
C2017 H2007 0.930 . S
C2017 C2010 1.409 . S
C2017 C2016 1.362 . S
H2018 C2024 0.930 . S
H2019 C2027 0.930 . S
H2020 C2028 0.930 . S
H2021 C2029 0.930 . S
H2022 C2032 0.930 . S
H2023 C2033 0.930 . S
C2024 H2018 0.930 . S
C2024 C2025 1.355 . S
C2024 C2026 1.415 . S
C2025 C2024 1.355 . S
C2025 C2027 1.419 . S
C2026 C2024 1.415 . S
C2026 C2031 1.425 . S
C2026 C2033 1.409 . S
C2027 H2019 0.930 . S
C2027 C2025 1.419 . S
C2027 C2028 1.362 . S
C2028 H2020 0.930 . S
C2028 C2027 1.362 . S
C2028 C2031 1.409 . S
C2029 H2021 0.930 . S
C2029 C2030 1.355 . S
C2029 C2031 1.415 . S
C2030 C2029 1.355 . S
C2030 C2032 1.419 . S
C2031 C2026 1.425 . S
C2031 C2028 1.409 . S
C2031 C2029 1.415 . S
C2032 H2022 0.930 . S
C2032 C2030 1.419 . S
C2032 C2033 1.362 . S
C2033 H2023 0.930 . S
C2033 C2026 1.409 . S
C2033 C2032 1.362 . S
H2034 C2040 0.930 . S
H2035 C2043 0.930 . S
H2036 C2044 0.930 . S
H2037 C2045 0.930 . S
H2038 C2048 0.930 . S
H2039 C2049 0.930 . S
C2040 H2034 0.930 . S
C2040 C2041 1.355 . S
C2040 C2042 1.415 . S
C2041 C2040 1.355 . S
C2041 C2043 1.419 . S
C2042 C2040 1.415 . S
C2042 C2047 1.425 . S
C2042 C2049 1.409 . S
C2043 H2035 0.930 . S
C2043 C2041 1.419 . S
C2043 C2044 1.362 . S
C2044 H2036 0.930 . S
C2044 C2043 1.362 . S
C2044 C2047 1.409 . S
C2045 H2037 0.930 . S
C2045 C2046 1.355 . S
C2045 C2047 1.415 . S
C2046 C2045 1.355 . S
C2046 C2048 1.419 . S
C2047 C2042 1.425 . S
C2047 C2044 1.409 . S
C2047 C2045 1.415 . S
C2048 H2038 0.930 . S
C2048 C2046 1.419 . S
C2048 C2049 1.362 . S
C2049 H2039 0.930 . S
C2049 C2042 1.409 . S
C2049 C2048 1.362 . S
H2050 C2056 0.930 . S
H2051 C2059 0.930 . S
H2052 C2060 0.930 . S
H2053 C2061 0.930 . S
H2054 C2064 0.930 . S
H2055 C2065 0.930 . S
C2056 H2050 0.930 . S
C2056 C2057 1.355 . S
C2056 C2058 1.415 . S
C2057 C2056 1.355 . S
C2057 C2059 1.419 . S
C2058 C2056 1.415 . S
C2058 C2063 1.425 . S
C2058 C2065 1.409 . S
C2059 H2051 0.930 . S
C2059 C2057 1.419 . S
C2059 C2060 1.362 . S
C2060 H2052 0.930 . S
C2060 C2059 1.362 . S
C2060 C2063 1.409 . S
C2061 H2053 0.930 . S
C2061 C2062 1.355 . S
C2061 C2063 1.415 . S
C2062 C2061 1.355 . S
C2062 C2064 1.419 . S
C2063 C2058 1.425 . S
C2063 C2060 1.409 . S
C2063 C2061 1.415 . S
C2064 H2054 0.930 . S
C2064 C2062 1.419 . S
C2064 C2065 1.362 . S
C2065 H2055 0.930 . S
C2065 C2058 1.409 . S
C2065 C2064 1.362 . S
H2066 C2072 0.930 . S
H2067 C2075 0.930 . S
H2068 C2076 0.930 . S
H2069 C2077 0.930 . S
H2070 C2080 0.930 . S
H2071 C2081 0.930 . S
C2072 H2066 0.930 . S
C2072 C2073 1.355 . S
C2072 C2074 1.415 . S
C2073 C2072 1.355 . S
C2073 C2075 1.419 . S
C2074 C2072 1.415 . S
C2074 C2079 1.425 . S
C2074 C2081 1.409 . S
C2075 H2067 0.930 . S
C2075 C2073 1.419 . S
C2075 C2076 1.362 . S
C2076 H2068 0.930 . S
C2076 C2075 1.362 . S
C2076 C2079 1.409 . S
C2077 H2069 0.930 . S
C2077 C2078 1.355 . S
C2077 C2079 1.415 . S
C2078 C2077 1.355 . S
C2078 C2080 1.419 . S
C2079 C2074 1.425 . S
C2079 C2076 1.409 . S
C2079 C2077 1.415 . S
C2080 H2070 0.930 . S
C2080 C2078 1.419 . S
C2080 C2081 1.362 . S
C2081 H2071 0.930 . S
C2081 C2074 1.409 . S
C2081 C2080 1.362 . S
H2082 C2088 0.930 . S
H2083 C2091 0.930 . S
H2084 C2092 0.930 . S
H2085 C2093 0.930 . S
H2086 C2096 0.930 . S
H2087 C2097 0.930 . S
C2088 H2082 0.930 . S
C2088 C2089 1.355 . S
C2088 C2090 1.415 . S
C2089 C2088 1.355 . S
C2089 C2091 1.419 . S
C2090 C2088 1.415 . S
C2090 C2095 1.425 . S
C2090 C2097 1.409 1_655 S
C2091 H2083 0.930 . S
C2091 C2089 1.419 . S
C2091 C2092 1.362 . S
C2092 H2084 0.930 . S
C2092 C2091 1.362 . S
C2092 C2095 1.409 . S
C2093 H2085 0.930 . S
C2093 C2094 1.355 . S
C2093 C2095 1.415 . S
C2094 C2093 1.355 . S
C2094 C2096 1.419 1_655 S
C2095 C2090 1.425 . S
C2095 C2092 1.409 . S
C2095 C2093 1.415 . S
C2096 H2086 0.930 . S
C2096 C2094 1.419 1_455 S
C2096 C2097 1.362 . S
C2097 H2087 0.930 . S
C2097 C2090 1.409 1_455 S
C2097 C2096 1.362 . S
H2098 C2104 0.930 . S
H2099 C2107 0.930 . S
H2100 C2108 0.930 . S
H2101 C2109 0.930 . S
H2102 C2112 0.930 . S
H2103 C2113 0.930 . S
C2104 H2098 0.930 . S
C2104 C2105 1.355 . S
C2104 C2106 1.415 . S
C2105 C2104 1.355 . S
C2105 C2107 1.419 . S
C2106 C2104 1.415 . S
C2106 C2111 1.425 . S
C2106 C2113 1.409 . S
C2107 H2099 0.930 . S
C2107 C2105 1.419 . S
C2107 C2108 1.362 . S
C2108 H2100 0.930 . S
C2108 C2107 1.362 . S
C2108 C2111 1.409 . S
C2109 H2101 0.930 . S
C2109 C2110 1.355 . S
C2109 C2111 1.415 . S
C2110 C2109 1.355 . S
C2110 C2112 1.419 . S
C2111 C2106 1.425 . S
C2111 C2108 1.409 . S
C2111 C2109 1.415 . S
C2112 H2102 0.930 . S
C2112 C2110 1.419 . S
C2112 C2113 1.362 . S
C2113 H2103 0.930 . S
C2113 C2106 1.409 . S
C2113 C2112 1.362 . S
H2114 C2120 0.930 . S
H2115 C2123 0.930 . S
H2116 C2124 0.930 . S
H2117 C2125 0.930 . S
H2118 C2128 0.930 . S
H2119 C2129 0.930 . S
C2120 H2114 0.930 . S
C2120 C2121 1.355 . S
C2120 C2122 1.415 . S
C2121 C2120 1.355 . S
C2121 C2123 1.419 . S
C2122 C2120 1.415 . S
C2122 C2127 1.425 . S
C2122 C2129 1.409 . S
C2123 H2115 0.930 . S
C2123 C2121 1.419 . S
C2123 C2124 1.362 . S
C2124 H2116 0.930 . S
C2124 C2123 1.362 . S
C2124 C2127 1.409 . S
C2125 H2117 0.930 . S
C2125 C2126 1.355 . S
C2125 C2127 1.415 . S
C2126 C2125 1.355 . S
C2126 C2128 1.419 . S
C2127 C2122 1.425 . S
C2127 C2124 1.409 . S
C2127 C2125 1.415 . S
C2128 H2118 0.930 . S
C2128 C2126 1.419 . S
C2128 C2129 1.362 . S
C2129 H2119 0.930 . S
C2129 C2122 1.409 . S
C2129 C2128 1.362 . S
H2130 C2136 0.930 . S
H2131 C2139 0.930 . S
H2132 C2140 0.930 . S
H2133 C2141 0.930 . S
H2134 C2144 0.930 . S
H2135 C2145 0.930 . S
C2136 H2130 0.930 . S
C2136 C2137 1.355 . S
C2136 C2138 1.415 . S
C2137 C2136 1.355 . S
C2137 C2139 1.419 . S
C2138 C2136 1.415 . S
C2138 C2143 1.425 . S
C2138 C2145 1.409 . S
C2139 H2131 0.930 . S
C2139 C2137 1.419 . S
C2139 C2140 1.362 . S
C2140 H2132 0.930 . S
C2140 C2139 1.362 . S
C2140 C2143 1.409 . S
C2141 H2133 0.930 . S
C2141 C2142 1.355 . S
C2141 C2143 1.415 . S
C2142 C2141 1.355 . S
C2142 C2144 1.419 . S
C2143 C2138 1.425 . S
C2143 C2140 1.409 . S
C2143 C2141 1.415 . S
C2144 H2134 0.930 . S
C2144 C2142 1.419 . S
C2144 C2145 1.362 . S
C2145 H2135 0.930 . S
C2145 C2138 1.409 . S
C2145 C2144 1.362 . S
H2146 C2152 0.930 . S
H2147 C2155 0.930 . S
H2148 C2156 0.930 . S
H2149 C2157 0.930 . S
H2150 C2160 0.930 . S
H2151 C2161 0.930 . S
C2152 H2146 0.930 . S
C2152 C2153 1.355 . S
C2152 C2154 1.415 . S
C2153 C2152 1.355 . S
C2153 C2155 1.419 . S
C2154 C2152 1.415 . S
C2154 C2159 1.425 . S
C2154 C2161 1.409 . S
C2155 H2147 0.930 . S
C2155 C2153 1.419 . S
C2155 C2156 1.362 . S
C2156 H2148 0.930 . S
C2156 C2155 1.362 . S
C2156 C2159 1.409 . S
C2157 H2149 0.930 . S
C2157 C2158 1.355 . S
C2157 C2159 1.415 . S
C2158 C2157 1.355 . S
C2158 C2160 1.419 . S
C2159 C2154 1.425 . S
C2159 C2156 1.409 . S
C2159 C2157 1.415 . S
C2160 H2150 0.930 . S
C2160 C2158 1.419 . S
C2160 C2161 1.362 . S
C2161 H2151 0.930 . S
C2161 C2154 1.409 . S
C2161 C2160 1.362 . S
H2162 C2168 0.930 . S
H2163 C2171 0.930 . S
H2164 C2172 0.930 . S
H2165 C2173 0.930 . S
H2166 C2176 0.930 . S
H2167 C2177 0.930 . S
C2168 H2162 0.930 . S
C2168 C2169 1.355 . S
C2168 C2170 1.415 . S
C2169 C2168 1.355 . S
C2169 C2171 1.419 . S
C2170 C2168 1.415 . S
C2170 C2175 1.425 . S
C2170 C2177 1.409 . S
C2171 H2163 0.930 . S
C2171 C2169 1.419 . S
C2171 C2172 1.362 . S
C2172 H2164 0.930 . S
C2172 C2171 1.362 . S
C2172 C2175 1.409 . S
C2173 H2165 0.930 . S
C2173 C2174 1.355 . S
C2173 C2175 1.415 . S
C2174 C2173 1.355 . S
C2174 C2176 1.419 . S
C2175 C2170 1.425 . S
C2175 C2172 1.409 . S
C2175 C2173 1.415 . S
C2176 H2166 0.930 . S
C2176 C2174 1.419 . S
C2176 C2177 1.362 . S
C2177 H2167 0.930 . S
C2177 C2170 1.409 . S
C2177 C2176 1.362 . S
H2178 C2184 0.930 . S
H2179 C2187 0.930 . S
H2180 C2188 0.930 . S
H2181 C2189 0.930 . S
H2182 C2192 0.930 . S
H2183 C2193 0.930 . S
C2184 H2178 0.930 . S
C2184 C2185 1.355 . S
C2184 C2186 1.415 . S
C2185 C2184 1.355 . S
C2185 C2187 1.419 . S
C2186 C2184 1.415 . S
C2186 C2191 1.425 . S
C2186 C2193 1.409 . S
C2187 H2179 0.930 . S
C2187 C2185 1.419 . S
C2187 C2188 1.362 . S
C2188 H2180 0.930 . S
C2188 C2187 1.362 . S
C2188 C2191 1.409 . S
C2189 H2181 0.930 . S
C2189 C2190 1.355 . S
C2189 C2191 1.415 . S
C2190 C2189 1.355 . S
C2190 C2192 1.419 . S
C2191 C2186 1.425 . S
C2191 C2188 1.409 . S
C2191 C2189 1.415 . S
C2192 H2182 0.930 . S
C2192 C2190 1.419 . S
C2192 C2193 1.362 . S
C2193 H2183 0.930 . S
C2193 C2186 1.409 . S
C2193 C2192 1.362 . S
H2194 C2200 0.930 . S
H2195 C2203 0.930 . S
H2196 C2204 0.930 . S
H2197 C2205 0.930 . S
H2198 C2208 0.930 . S
H2199 C2209 0.930 . S
C2200 H2194 0.930 . S
C2200 C2201 1.355 . S
C2200 C2202 1.415 . S
C2201 C2200 1.355 . S
C2201 C2203 1.419 . S
C2202 C2200 1.415 . S
C2202 C2207 1.425 . S
C2202 C2209 1.409 . S
C2203 H2195 0.930 . S
C2203 C2201 1.419 . S
C2203 C2204 1.362 . S
C2204 H2196 0.930 . S
C2204 C2203 1.362 . S
C2204 C2207 1.409 . S
C2205 H2197 0.930 . S
C2205 C2206 1.355 . S
C2205 C2207 1.415 . S
C2206 C2205 1.355 . S
C2206 C2208 1.419 . S
C2207 C2202 1.425 . S
C2207 C2204 1.409 . S
C2207 C2205 1.415 . S
C2208 H2198 0.930 . S
C2208 C2206 1.419 . S
C2208 C2209 1.362 . S
C2209 H2199 0.930 . S
C2209 C2202 1.409 . S
C2209 C2208 1.362 . S
H2210 C2216 0.930 . S
H2211 C2219 0.930 . S
H2212 C2220 0.930 . S
H2213 C2221 0.930 . S
H2214 C2224 0.930 . S
H2215 C2225 0.930 . S
C2216 H2210 0.930 . S
C2216 C2217 1.355 . S
C2216 C2218 1.415 . S
C2217 C2216 1.355 . S
C2217 C2219 1.419 . S
C2218 C2216 1.415 . S
C2218 C2223 1.425 . S
C2218 C2225 1.409 . S
C2219 H2211 0.930 . S
C2219 C2217 1.419 . S
C2219 C2220 1.362 . S
C2220 H2212 0.930 . S
C2220 C2219 1.362 . S
C2220 C2223 1.409 . S
C2221 H2213 0.930 . S
C2221 C2222 1.355 . S
C2221 C2223 1.415 . S
C2222 C2221 1.355 . S
C2222 C2224 1.419 . S
C2223 C2218 1.425 . S
C2223 C2220 1.409 . S
C2223 C2221 1.415 . S
C2224 H2214 0.930 . S
C2224 C2222 1.419 . S
C2224 C2225 1.362 . S
C2225 H2215 0.930 . S
C2225 C2218 1.409 . S
C2225 C2224 1.362 . S
H2226 C2232 0.930 . S
H2227 C2235 0.930 . S
H2228 C2236 0.930 . S
H2229 C2237 0.930 . S
H2230 C2240 0.930 . S
H2231 C2241 0.930 . S
C2232 H2226 0.930 . S
C2232 C2233 1.355 . S
C2232 C2234 1.415 . S
C2233 C2232 1.355 . S
C2233 C2235 1.419 . S
C2234 C2232 1.415 . S
C2234 C2239 1.425 . S
C2234 C2241 1.409 . S
C2235 H2227 0.930 . S
C2235 C2233 1.419 . S
C2235 C2236 1.362 . S
C2236 H2228 0.930 . S
C2236 C2235 1.362 . S
C2236 C2239 1.409 . S
C2237 H2229 0.930 . S
C2237 C2238 1.355 . S
C2237 C2239 1.415 . S
C2238 C2237 1.355 . S
C2238 C2240 1.419 . S
C2239 C2234 1.425 . S
C2239 C2236 1.409 . S
C2239 C2237 1.415 . S
C2240 H2230 0.930 . S
C2240 C2238 1.419 . S
C2240 C2241 1.362 . S
C2241 H2231 0.930 . S
C2241 C2234 1.409 . S
C2241 C2240 1.362 . S
H2242 C2248 0.930 . S
H2243 C2251 0.930 . S
H2244 C2252 0.930 . S
H2245 C2253 0.930 . S
H2246 C2256 0.930 . S
H2247 C2257 0.930 . S
C2248 H2242 0.930 . S
C2248 C2249 1.355 . S
C2248 C2250 1.415 . S
C2249 C2248 1.355 . S
C2249 C2251 1.419 . S
C2250 C2248 1.415 . S
C2250 C2255 1.425 . S
C2250 C2257 1.409 . S
C2251 H2243 0.930 . S
C2251 C2249 1.419 . S
C2251 C2252 1.362 . S
C2252 H2244 0.930 . S
C2252 C2251 1.362 . S
C2252 C2255 1.409 . S
C2253 H2245 0.930 . S
C2253 C2254 1.355 . S
C2253 C2255 1.415 . S
C2254 C2253 1.355 . S
C2254 C2256 1.419 . S
C2255 C2250 1.425 . S
C2255 C2252 1.409 . S
C2255 C2253 1.415 . S
C2256 H2246 0.930 . S
C2256 C2254 1.419 . S
C2256 C2257 1.362 . S
C2257 H2247 0.930 . S
C2257 C2250 1.409 . S
C2257 C2256 1.362 . S
H2258 C2264 0.930 . S
H2259 C2267 0.930 . S
H2260 C2268 0.930 . S
H2261 C2269 0.930 . S
H2262 C2272 0.930 . S
H2263 C2273 0.930 . S
C2264 H2258 0.930 . S
C2264 C2265 1.355 . S
C2264 C2266 1.415 . S
C2265 C2264 1.355 . S
C2265 C2267 1.419 . S
C2266 C2264 1.415 . S
C2266 C2271 1.425 . S
C2266 C2273 1.409 . S
C2267 H2259 0.930 . S
C2267 C2265 1.419 . S
C2267 C2268 1.362 . S
C2268 H2260 0.930 . S
C2268 C2267 1.362 . S
C2268 C2271 1.409 . S
C2269 H2261 0.930 . S
C2269 C2270 1.355 . S
C2269 C2271 1.415 . S
C2270 C2269 1.355 . S
C2270 C2272 1.419 . S
C2271 C2266 1.425 . S
C2271 C2268 1.409 . S
C2271 C2269 1.415 . S
C2272 H2262 0.930 . S
C2272 C2270 1.419 . S
C2272 C2273 1.362 . S
C2273 H2263 0.930 . S
C2273 C2266 1.409 . S
C2273 C2272 1.362 . S
H2274 C2280 0.930 . S
H2275 C2283 0.930 . S
H2276 C2284 0.930 . S
H2277 C2285 0.930 . S
H2278 C2288 0.930 . S
H2279 C2289 0.930 . S
C2280 H2274 0.930 . S
C2280 C2281 1.355 . S
C2280 C2282 1.415 . S
C2281 C2280 1.355 . S
C2281 C2283 1.419 . S
C2282 C2280 1.415 . S
C2282 C2287 1.425 . S
C2282 C2289 1.409 . S
C2283 H2275 0.930 . S
C2283 C2281 1.419 . S
C2283 C2284 1.362 . S
C2284 H2276 0.930 . S
C2284 C2283 1.362 . S
C2284 C2287 1.409 . S
C2285 H2277 0.930 . S
C2285 C2286 1.355 . S
C2285 C2287 1.415 . S
C2286 C2285 1.355 . S
C2286 C2288 1.419 . S
C2287 C2282 1.425 . S
C2287 C2284 1.409 . S
C2287 C2285 1.415 . S
C2288 H2278 0.930 . S
C2288 C2286 1.419 . S
C2288 C2289 1.362 . S
C2289 H2279 0.930 . S
C2289 C2282 1.409 . S
C2289 C2288 1.362 . S
H2290 C2296 0.930 . S
H2291 C2299 0.930 . S
H2292 C2300 0.930 . S
H2293 C2301 0.930 . S
H2294 C2304 0.930 . S
H2295 C2305 0.930 . S
C2296 H2290 0.930 . S
C2296 C2297 1.355 . S
C2296 C2298 1.415 . S
C2297 C2296 1.355 . S
C2297 C2299 1.419 . S
C2298 C2296 1.415 . S
C2298 C2303 1.425 . S
C2298 C2305 1.409 . S
C2299 H2291 0.930 . S
C2299 C2297 1.419 . S
C2299 C2300 1.362 . S
C2300 H2292 0.930 . S
C2300 C2299 1.362 . S
C2300 C2303 1.409 . S
C2301 H2293 0.930 . S
C2301 C2302 1.355 . S
C2301 C2303 1.415 . S
C2302 C2301 1.355 . S
C2302 C2304 1.419 . S
C2303 C2298 1.425 . S
C2303 C2300 1.409 . S
C2303 C2301 1.415 . S
C2304 H2294 0.930 . S
C2304 C2302 1.419 . S
C2304 C2305 1.362 . S
C2305 H2295 0.930 . S
C2305 C2298 1.409 . S
C2305 C2304 1.362 . S
H2306 C2312 0.930 . S
H2307 C2315 0.930 . S
H2308 C2316 0.930 . S
H2309 C2317 0.930 . S
H2310 C2320 0.930 . S
H2311 C2321 0.930 . S
C2312 H2306 0.930 . S
C2312 C2313 1.355 . S
C2312 C2314 1.415 . S
C2313 C2312 1.355 . S
C2313 C2315 1.419 . S
C2314 C2312 1.415 . S
C2314 C2319 1.425 . S
C2314 C2321 1.409 . S
C2315 H2307 0.930 . S
C2315 C2313 1.419 . S
C2315 C2316 1.362 . S
C2316 H2308 0.930 . S
C2316 C2315 1.362 . S
C2316 C2319 1.409 . S
C2317 H2309 0.930 . S
C2317 C2318 1.355 . S
C2317 C2319 1.415 . S
C2318 C2317 1.355 . S
C2318 C2320 1.419 . S
C2319 C2314 1.425 . S
C2319 C2316 1.409 . S
C2319 C2317 1.415 . S
C2320 H2310 0.930 . S
C2320 C2318 1.419 . S
C2320 C2321 1.362 . S
C2321 H2311 0.930 . S
C2321 C2314 1.409 . S
C2321 C2320 1.362 . S
C1465 C528 1.443 . S
C1470 C758 1.394 . S
C1481 C562 1.488 . S
C1486 C842 1.377 . S
C1497 C484 1.476 . S
C1502 C936 1.414 . S
C1513 C445 1.427 . S
C1518 C852 1.364 . S
C1534 C926 1.312 . S
C1529 C367 1.434 . S
C1545 C411 1.411 . S
C1550 C768 1.369 . S
C1566 C769 1.368 . S
C1561 C450 1.462 . S
C1582 C853 1.433 . S
C1577 C372 1.486 . S
C1593 C406 1.495 . S
C1598 C945 1.458 . S
C1609 C523 1.446 . S
C1614 C861 1.419 . S
C1625 C567 1.406 . S
C1630 C937 1.306 . S
C1646 C777 1.342 . S
C1641 C489 1.402 . S
C1662 C1010 1.384 . S
C1657 C60 1.444 1_455 S
C1673 C94 1.495 . S
C1678 C1094 1.379 . S
C1689 C16 1.466 . S
C1694 C1188 1.397 . S
C1705 C679 1.450 . S
C1710 C1104 1.427 . S
C1721 C601 1.427 . S
C1726 C1178 1.379 . S
C1737 C645 1.395 . S
C1742 C1020 1.324 . S
C1753 C684 1.428 . S
C1758 C1021 1.361 . S
C1769 C606 1.486 . S
C1774 C1105 1.391 . S
C1790 C1197 1.417 . S
C1785 C640 1.475 . S
C1801 C55 1.448 . S
C1806 C1113 1.362 . S
C1822 C1189 1.297 . S
C1817 C99 1.414 1_455 S
C1833 C21 1.402 . S
C1838 C1029 1.343 . S
C1854 C1262 1.328 . S
C1849 C294 1.422 . S
C1865 C328 1.482 . S
C1870 C1346 1.432 . S
C1886 C1440 1.452 . S
C1881 C250 1.487 . S
C1902 C1356 1.416 . S
C1897 C211 1.451 . S
C1918 C1430 1.340 . S
C1913 C133 1.445 1_655 S
C1929 C177 1.395 . S
C1934 C1272 1.322 . S
C1945 C216 1.459 1_655 S
C1950 C1273 1.354 . S
C1961 C138 1.464 . S
C1966 C1357 1.368 . S
C1982 C1449 1.397 . S
C1977 C172 1.463 . S
C1993 C289 1.439 . S
C1998 C1365 1.389 . S
C2009 C333 1.430 . S
C2014 C1441 1.336 . S
C2025 C255 1.442 . S
C2030 C1281 1.414 . S
C2041 C586 1.470 . S
C2046 C765 1.409 . S
C2062 C849 1.344 . S
C2057 C625 1.498 . S
C2073 C664 1.484 . S
C2078 C942 1.385 . S
C2089 C235 1.500 . S
C2094 C858 1.301 . S
C2105 C274 1.468 . S
C2110 C933 1.392 . S
C2126 C774 1.391 . S
C2121 C313 1.467 . S
C2137 C118 1.471 . S
C2142 C1017 1.305 . S
C2153 C157 1.489 . S
C2158 C1101 1.325 . S
C2169 C196 1.478 . S
C2174 C1194 1.293 . S
C2185 C469 1.499 . S
C2190 C1110 1.306 . S
C2206 C1185 1.363 . S
C2201 C508 1.469 . S
C2217 C547 1.473 . S
C2222 C1026 1.329 . S
C2233 C352 1.470 . S
C2238 C1269 1.409 . S
C2249 C391 1.494 . S
C2254 C1353 1.397 . S
C2270 C1446 1.290 . S
C2265 C430 1.477 . S
C2281 C1 1.509 . S
C2286 C1362 1.341 . S
C2297 C40 1.468 . S
C2302 C1437 1.285 . S
C2313 C79 1.469 . S
C2318 C1278 1.321 . S
