# Generated by pormake.
# Topology anh, (6,3)-cn, num edge types: 1
# Building blocks:
#     Node 0, Type 0, BuildingBlock: NUHQIS_clean_sbu_0, # of connection points: 6
#     Node 1, Type 0, BuildingBlock: NUHQIS_clean_sbu_0, # of connection points: 6
#     Node 2, Type 0, BuildingBlock: NUHQIS_clean_sbu_0, # of connection points: 6
#     Node 3, Type 1, BuildingBlock: ESEHIV_clean_linker_0, # of connection points: 3
#     Node 4, Type 1, BuildingBlock: ESEHIV_clean_linker_0, # of connection points: 3
#     Node 5, Type 1, BuildingBlock: ESEHIV_clean_linker_0, # of connection points: 3
#     Node 6, Type 1, BuildingBlock: ESEHIV_clean_linker_0, # of connection points: 3
#     Node 7, Type 1, BuildingBlock: ESEHIV_clean_linker_0, # of connection points: 3
#     Node 8, Type 1, BuildingBlock: ESEHIV_clean_linker_0, # of connection points: 3
#     Edge 9, Type (0, 1), BuildingBlock: UVAHIK_clean_linker_0, # of connection points: 2
#     Edge 10, Type (0, 1), BuildingBlock: UVAHIK_clean_linker_0, # of connection points: 2
#     Edge 11, Type (0, 1), BuildingBlock: UVAHIK_clean_linker_0, # of connection points: 2
#     Edge 12, Type (0, 1), BuildingBlock: UVAHIK_clean_linker_0, # of connection points: 2
#     Edge 13, Type (0, 1), BuildingBlock: UVAHIK_clean_linker_0, # of connection points: 2
#     Edge 14, Type (0, 1), BuildingBlock: UVAHIK_clean_linker_0, # of connection points: 2
#     Edge 15, Type (0, 1), BuildingBlock: UVAHIK_clean_linker_0, # of connection points: 2
#     Edge 16, Type (0, 1), BuildingBlock: UVAHIK_clean_linker_0, # of connection points: 2
#     Edge 17, Type (0, 1), BuildingBlock: UVAHIK_clean_linker_0, # of connection points: 2
#     Edge 18, Type (0, 1), BuildingBlock: UVAHIK_clean_linker_0, # of connection points: 2
#     Edge 19, Type (0, 1), BuildingBlock: UVAHIK_clean_linker_0, # of connection points: 2
#     Edge 20, Type (0, 1), BuildingBlock: UVAHIK_clean_linker_0, # of connection points: 2
#     Edge 21, Type (0, 1), BuildingBlock: UVAHIK_clean_linker_0, # of connection points: 2
#     Edge 22, Type (0, 1), BuildingBlock: UVAHIK_clean_linker_0, # of connection points: 2
#     Edge 23, Type (0, 1), BuildingBlock: UVAHIK_clean_linker_0, # of connection points: 2
#     Edge 24, Type (0, 1), BuildingBlock: UVAHIK_clean_linker_0, # of connection points: 2
#     Edge 25, Type (0, 1), BuildingBlock: UVAHIK_clean_linker_0, # of connection points: 2
#     Edge 26, Type (0, 1), BuildingBlock: UVAHIK_clean_linker_0, # of connection points: 2
# Relax obj value: 0.237
# Max RMSD: 0.188
# Mean RMSD: 0.155
data_MOF--net-anh--node1-NUHQIS_clean_sbu_0--node2-ESEHIV_clean_linker_0--edge1-UVAHIK_clean_linker_0
_symmetry_space_group_name_H-M    P1
_symmetry_Int_Tables_number       1
_symmetry_cell_setting            triclinic
loop_
_symmetry_equiv_pos_as_xyz
'x, y, z'
_cell_length_a     36.965736
_cell_length_b     37.039556
_cell_length_c     68.669723
_cell_angle_alpha  90.358063
_cell_angle_beta   92.441108
_cell_angle_gamma 119.96512
loop_
_atom_site_label
_atom_site_type_symbol
_atom_site_fract_x
_atom_site_fract_y
_atom_site_fract_z
_atom_type_partial_charge
Tb0 Tb 0.1309 0.56131 0.15146 0.0
Eu1 Eu 1.0809 0.61118 0.14925 0.0
C2 C 0.10804 0.58999 0.18887 0.0
C3 C 1.03157 0.50906 0.152 0.0
C4 C 0.22032 0.54551 0.15391 0.0
C5 C 0.28469 0.54775 0.1646 0.0
C6 C 0.24108 0.52765 0.16381 0.0
C7 C 0.24346 0.5836 0.14475 0.0
C8 C 0.28701 0.60374 0.14556 0.0
C9 C 0.30809 0.58613 0.15559 0.0
C10 C 0.17528 0.52765 0.15544 0.0
O11 O 0.13691 0.58295 0.12156 0.0
O12 O 1.07658 0.58533 0.11878 0.0
O13 O 0.14811 0.66355 0.14617 0.0
O14 O 0.18059 0.62742 0.15669 0.0
C15 C 0.10712 0.58347 0.11066 0.0
O16 O 1.04869 0.63951 0.13385 0.0
O17 O 1.04881 0.63675 0.1653 0.0
O18 O 0.11182 0.62168 0.17914 0.0
O19 O 0.10372 0.55722 0.17943 0.0
O20 O 1.06557 0.50991 0.14605 0.0
O21 O 1.03268 0.54425 0.15663 0.0
C22 C 0.18234 0.66293 0.15203 0.0
O23 O 0.16562 0.54369 0.16983 0.0
O24 O 0.15364 0.52463 0.13937 0.0
C25 C 0.98492 0.61596 0.14915 0.0
C26 C 0.90166 0.55673 0.15636 0.0
C27 C 0.92378 0.54761 0.14291 0.0
C28 C 0.96497 0.57683 0.13939 0.0
C29 C 0.96236 0.62602 0.16189 0.0
C30 C 0.92087 0.59667 0.1654 0.0
C31 C 1.03072 0.64118 0.14956 0.0
H32 H 0.30007 0.53308 0.17213 0.0
H33 H 0.22361 0.4986 0.17121 0.0
H34 H 0.22787 0.59823 0.13737 0.0
H35 H 0.30421 0.63338 0.1386 0.0
H36 H 0.90953 0.51747 0.13537 0.0
H37 H 0.9819 0.56788 0.1298 0.0
H38 H 0.97752 0.65564 0.16992 0.0
H39 H 0.90451 0.60454 0.17582 0.0
Tb40 Tb 0.66656 0.1096 0.48368 0.0
Eu41 Eu 0.56604 0.05812 0.47858 0.0
C42 C 0.61225 0.0793 0.51957 0.0
C43 C 0.61901 1.00878 0.48247 0.0
C44 C 0.76601 0.19556 0.50058 0.0
C45 C 0.82962 0.25936 0.51048 0.0
C46 C 0.80956 0.21798 0.50335 0.0
C47 C 0.74263 0.21374 0.50627 0.0
C48 C 0.76243 0.25518 0.51272 0.0
C49 C 0.80637 0.27928 0.51428 0.0
C50 C 0.74421 0.15443 0.49066 0.0
O51 O 0.65242 0.08927 0.45281 0.0
O52 O 0.58896 0.08567 0.44953 0.0
O53 O 0.58102 0.1244 0.48661 0.0
O54 O 0.65014 0.15918 0.47958 0.0
C55 C 0.62199 0.08844 0.44173 0.0
O56 O 0.50803 1.01373 0.46269 0.0
O57 O 0.50596 1.0421 0.49005 0.0
O58 O 0.58434 1.04827 0.50856 0.0
O59 O 0.64189 0.11223 0.51161 0.0
O60 O 0.6529 1.04464 0.4876 0.0
O61 O 0.58439 1.00784 0.47601 0.0
C62 C 0.61596 0.15968 0.4841 0.0
O63 O 0.71994 0.12386 0.50151 0.0
O64 O 0.72536 0.15319 0.47396 0.0
C65 C 0.46045 0.97069 0.48503 0.0
C66 C 0.41495 0.889 0.49822 0.0
C67 C 0.39429 0.90774 0.48867 0.0
C68 C 0.41696 0.94835 0.48207 0.0
C69 C 0.48102 0.95271 0.49516 0.0
C70 C 0.45848 0.91212 0.50166 0.0
C71 C 0.48518 1.01206 0.47703 0.0
H72 H 0.86339 0.27609 0.51219 0.0
H73 H 0.82806 0.20403 0.49944 0.0
H74 H 0.70888 0.19649 0.50481 0.0
H75 H 0.74285 0.26862 0.51518 0.0
H76 H 0.36079 0.89038 0.48554 0.0
H77 H 0.40072 0.96186 0.47426 0.0
H78 H 0.51469 0.96975 0.49766 0.0
H79 H 0.47513 0.89854 0.50902 0.0
Tb80 Tb 0.63253 0.62917 0.81395 0.0
Eu81 Eu 0.58426 0.52888 0.80906 0.0
C82 C 0.61331 0.57395 0.85036 0.0
C83 C 0.68761 0.58393 0.81493 0.0
C84 C 0.63817 0.72757 0.82225 0.0
C85 C 0.62558 0.7708 0.8447 0.0
C86 C 0.65113 0.75545 0.83842 0.0
C87 C 0.59974 0.71596 0.81228 0.0
C88 C 0.57436 0.73093 0.81858 0.0
C89 C 0.58654 0.75782 0.83503 0.0
C90 C 0.66153 0.70645 0.81716 0.0
O91 O 0.63906 0.61317 0.78393 0.0
O92 O 0.57685 0.55305 0.78012 0.0
O93 O 0.53255 0.54188 0.81733 0.0
O94 O 0.56551 0.61179 0.81138 0.0
C95 C 0.60822 0.58504 0.77252 0.0
O96 O 0.57313 0.47273 0.79326 0.0
O97 O 0.54041 0.46759 0.81952 0.0
O98 O 0.61279 0.54506 0.83925 0.0
O99 O 0.61201 0.60569 0.84281 0.0
O100 O 0.68536 0.61765 0.81918 0.0
O101 O 0.65393 0.54899 0.80859 0.0
C102 C 0.53148 0.5768 0.81564 0.0
O103 O 0.66607 0.68481 0.83096 0.0
O104 O 0.65029 0.68585 0.80046 0.0
C105 C 0.56934 0.4247 0.81609 0.0
C106 C 0.60851 0.3818 0.8312 0.0
C107 C 0.57037 0.36039 0.82003 0.0
C108 C 0.55094 0.38178 0.81247 0.0
C109 C 0.60654 0.44584 0.8278 0.0
C110 C 0.62604 0.42462 0.83526 0.0
C111 C 0.55157 0.44854 0.80714 0.0
H112 H 0.63589 0.7921 0.85724 0.0
H113 H 0.68046 0.76453 0.84643 0.0
H114 H 0.58851 0.69436 0.79983 0.0
H115 H 0.54501 0.72143 0.81049 0.0
H116 H 0.55649 0.32745 0.81641 0.0
H117 H 0.5223 0.3651 0.80343 0.0
H118 H 0.62109 0.47904 0.83079 0.0
H119 H 0.65524 0.44183 0.84386 0.0
H120 H 0.56005 1.03345 0.2278 0.0
H121 H 0.67714 0.14733 0.22717 0.0
H122 H 0.61387 0.0829 0.17273 0.0
C123 C 0.58469 0.05714 0.21953 0.0
C124 C 0.58207 1.05285 0.19899 0.0
C125 C 0.61876 0.09062 0.22977 0.0
C126 C 0.65108 0.12132 0.21922 0.0
C127 C 0.65021 0.11973 0.19865 0.0
C128 C 0.61489 0.08529 0.18848 0.0
H129 H 0.61119 0.64042 0.55723 0.0
H130 H 0.62566 0.53257 0.55824 0.0
H131 H 0.61923 0.58531 0.50318 0.0
C132 C 0.61468 0.61687 0.5495 0.0
C133 C 0.61514 0.61759 0.52896 0.0
C134 C 0.61844 0.58658 0.56025 0.0
C135 C 0.62249 0.5558 0.55005 0.0
C136 C 0.62261 0.55415 0.5295 0.0
C137 C 0.61902 0.58565 0.51893 0.0
H138 H 1.0594 0.58626 0.89524 0.0
H139 H 0.16937 0.57527 0.89659 0.0
H140 H 0.11326 0.58239 0.84122 0.0
C141 C 1.08311 0.58397 0.88749 0.0
C142 C 1.08177 0.58498 0.86693 0.0
C143 C 0.11427 0.58043 0.89834 0.0
C144 C 0.14529 0.57782 0.88823 0.0
C145 C 0.14591 0.57818 0.86763 0.0
C146 C 0.11361 0.58188 0.85699 0.0
H147 H 0.98375 0.57784 0.39286 0.0
H148 H 0.11363 0.61247 0.39987 0.0
H149 H 1.04212 0.59463 0.45021 0.0
C150 C 1.01121 0.58568 0.40222 0.0
C151 C 1.00914 0.58704 0.42255 0.0
C152 C 1.04909 0.59522 0.39402 0.0
C153 C 1.08445 0.60499 0.40625 0.0
C154 C 1.08224 0.60498 0.42658 0.0
C155 C 1.0445 0.59604 0.43452 0.0
H156 H 0.60775 0.10481 0.73426 0.0
H157 H 0.50907 0.97744 0.72359 0.0
H158 H 0.545 1.02808 0.78202 0.0
C159 C 0.58464 0.075 0.7396 0.0
C160 C 0.57937 0.07045 0.75972 0.0
C161 C 0.55954 1.04167 0.72632 0.0
C162 C 0.5282 1.00374 0.73348 0.0
C163 C 0.52198 0.9993 0.75353 0.0
C164 C 0.54814 1.03246 0.76646 0.0
H165 H 0.58941 0.55433 0.0605 0.0
H166 H 0.59979 0.44437 0.05442 0.0
H167 H 0.57714 0.48046 0.11026 0.0
C168 C 0.58875 0.52733 0.06684 0.0
C169 C 0.58203 0.52039 0.08672 0.0
C170 C 0.59502 0.50007 0.05504 0.0
C171 C 0.59417 0.4651 0.06335 0.0
C172 C 0.58805 0.45786 0.08335 0.0
C173 C 0.58149 0.48546 0.09482 0.0
C174 C 0.37754 0.60733 0.17264 0.0
C175 C 0.3542 0.60643 0.15576 0.0
C176 C 0.42007 0.6206 0.17185 0.0
C177 C 0.50791 0.66217 0.1378 0.0
H178 H 0.51913 0.56942 0.15632 0.0
C179 C 0.55189 0.567 0.09137 0.0
C180 C 0.57553 0.54967 0.09897 0.0
C181 C 0.54329 0.59231 0.10307 0.0
C182 C 0.51751 0.59641 0.15152 0.0
H183 H 0.35761 0.62156 0.1252 0.0
H184 H 0.43097 0.6437 0.12364 0.0
H185 H 0.46765 0.58313 0.1699 0.0
H186 H 0.61081 0.54757 0.12465 0.0
H187 H 0.59346 0.59005 0.14547 0.0
H188 H 0.5548 0.67217 0.11783 0.0
C189 C 0.41712 0.63512 0.13766 0.0
C190 C 0.48792 0.6044 0.15933 0.0
C191 C 0.37478 0.62207 0.13848 0.0
C192 C 0.59165 0.55957 0.11844 0.0
C193 C 0.58234 0.58437 0.13029 0.0
C194 C 0.53717 0.65383 0.12982 0.0
C195 C 0.43988 0.63291 0.15411 0.0
C196 C 0.48069 0.63539 0.15151 0.0
C197 C 0.55752 0.60038 0.12276 0.0
C198 C 0.54003 0.61908 0.1357 0.0
H199 H 0.36257 0.59632 0.18628 0.0
H200 H 0.43688 0.61913 0.18484 0.0
H201 H 0.50392 0.68708 0.13189 0.0
H202 H 0.53833 0.55956 0.07659 0.0
H203 H 0.52318 0.60337 0.09701 0.0
C204 C 0.86418 0.35125 0.50737 0.0
C205 C 0.82703 0.32562 0.51675 0.0
C206 C 0.87784 0.39338 0.50508 0.0
C207 C 0.9022 0.48584 0.50645 0.0
H208 H 0.82699 0.47961 0.46369 0.0
C209 C 0.97045 0.59936 0.44813 0.0
C210 C 0.96977 0.57535 0.43202 0.0
C211 C 0.94029 0.58144 0.46197 0.0
C212 C 0.84775 0.48248 0.47597 0.0
H213 H 0.77886 0.3266 0.5336 0.0
H214 H 0.80096 0.39954 0.52784 0.0
H215 H 0.80326 0.42343 0.48693 0.0
H216 H 0.93378 0.51649 0.41602 0.0
H217 H 0.88092 0.48515 0.44005 0.0
H218 H 0.94799 0.54272 0.49462 0.0
C219 C 0.81938 0.38656 0.52253 0.0
C220 C 0.83415 0.45052 0.48932 0.0
C221 C 0.80649 0.3446 0.5255 0.0
C222 C 0.93499 0.53557 0.42833 0.0
C223 C 0.90466 0.51768 0.44214 0.0
C224 C 0.91557 0.51811 0.49335 0.0
C225 C 0.85429 0.41071 0.51169 0.0
C226 C 0.86228 0.45071 0.50379 0.0
C227 C 0.909 0.53939 0.45979 0.0
C228 C 0.88942 0.51521 0.47718 0.0
H229 H 0.88106 0.33851 0.50024 0.0
H230 H 0.90476 0.41149 0.4965 0.0
H231 H 0.92441 0.48635 0.51744 0.0
H232 H 0.9968 0.63042 0.45109 0.0
H233 H 0.94401 0.59899 0.47531 0.0
C234 C 0.51573 0.74674 0.84109 0.0
C235 C 0.55908 0.77403 0.8407 0.0
C236 C 0.48813 0.7621 0.83961 0.0
C237 C 0.48341 0.8599 0.83393 0.0
H238 H 0.42532 0.80643 0.78462 0.0
C239 C 0.4925 0.92287 0.75702 0.0
C240 C 0.49145 0.95919 0.76174 0.0
C241 C 0.47485 0.88889 0.7692 0.0
C242 C 0.4404 0.8213 0.79857 0.0
H243 H 0.60791 0.83878 0.84139 0.0
H244 H 0.5601 0.86583 0.83884 0.0
H245 H 0.44665 0.76938 0.80713 0.0
H246 H 0.46569 0.98633 0.78091 0.0
H247 H 0.43506 0.92698 0.80229 0.0
H248 H 0.48113 0.91345 0.82443 0.0
C249 C 0.54705 0.83254 0.84024 0.0
C250 C 0.4524 0.79997 0.81161 0.0
C251 C 0.57462 0.81712 0.84166 0.0
C252 C 0.46757 0.95885 0.77722 0.0
C253 C 0.45002 0.92493 0.78943 0.0
C254 C 0.47134 0.8812 0.82091 0.0
C255 C 0.5036 0.80502 0.8378 0.0
C256 C 0.47687 0.82031 0.82871 0.0
C257 C 0.45599 0.89084 0.78627 0.0
C258 C 0.4526 0.8632 0.80247 0.0
H259 H 0.50318 0.71334 0.8408 0.0
H260 H 0.45484 0.74021 0.83812 0.0
H261 H 0.50156 0.87602 0.84717 0.0
H262 H 0.51069 0.9223 0.74518 0.0
H263 H 0.48018 0.86317 0.76635 0.0
C264 C 0.82667 0.53405 0.16134 0.0
C265 C 0.85868 0.5243 0.16072 0.0
C266 C 0.78515 0.50233 0.1622 0.0
C267 C 0.69761 0.43162 0.16369 0.0
H268 H 0.68106 0.35825 0.11959 0.0
C269 C 0.57322 0.40583 0.10961 0.0
C270 C 0.59502 0.42592 0.09306 0.0
C271 C 0.58937 0.38787 0.12262 0.0
C272 C 0.68467 0.37761 0.13224 0.0
H273 H 0.87303 0.47445 0.16274 0.0
H274 H 0.80041 0.41886 0.16425 0.0
H275 H 0.74747 0.39161 0.13822 0.0
H276 H 0.64678 0.43648 0.07557 0.0
H277 H 0.67436 0.40533 0.09778 0.0
H278 H 0.63696 0.42206 0.15613 0.0
C279 C 0.80725 0.45087 0.1637 0.0
C280 C 0.72283 0.39669 0.14306 0.0
C281 C 0.84876 0.48263 0.16274 0.0
C282 C 0.6292 0.42163 0.08819 0.0
C283 C 0.64508 0.40343 0.10106 0.0
C284 C 0.65968 0.41296 0.15273 0.0
C285 C 0.77479 0.46018 0.16255 0.0
C286 C 0.73096 0.42703 0.15766 0.0
C287 C 0.62739 0.38957 0.11919 0.0
C288 C 0.65464 0.38928 0.13566 0.0
H289 H 0.83333 0.56585 0.15979 0.0
H290 H 0.76106 0.51082 0.16098 0.0
H291 H 0.70243 0.45357 0.1754 0.0
H292 H 0.5458 0.40724 0.11339 0.0
H293 H 0.5744 0.37645 0.13622 0.0
C294 C 0.4061 0.81756 0.49685 0.0
C295 C 0.39143 0.84423 0.50265 0.0
C296 C 0.37957 0.77438 0.49643 0.0
C297 C 0.27021 0.69122 0.50551 0.0
H298 H 0.26721 0.66783 0.45018 0.0
C299 C 0.1273 0.63942 0.45674 0.0
C300 C 0.11912 0.61475 0.43972 0.0
C301 C 0.16216 0.64964 0.46904 0.0
C302 C 0.2678 0.67268 0.46579 0.0
H303 H 0.33996 0.84694 0.51508 0.0
H304 H 0.2934 0.77199 0.51396 0.0
H305 H 0.33176 0.72041 0.46645 0.0
H306 H 0.14044 0.58013 0.42266 0.0
H307 H 0.20267 0.59941 0.44398 0.0
H308 H 0.20494 0.64593 0.50425 0.0
C309 C 0.32523 0.78395 0.50978 0.0
C310 C 0.30504 0.70294 0.4752 0.0
C311 C 0.35167 0.82702 0.51016 0.0
C312 C 0.14628 0.59977 0.4355 0.0
C313 C 0.18157 0.61035 0.4478 0.0
C314 C 0.23293 0.66089 0.49608 0.0
C315 C 0.33803 0.7573 0.50178 0.0
C316 C 0.30567 0.71486 0.49476 0.0
C317 C 0.19007 0.6358 0.46458 0.0
C318 C 0.23074 0.65387 0.47581 0.0
H319 H 0.43675 0.82999 0.49106 0.0
H320 H 0.39044 0.75459 0.49042 0.0
H321 H 0.2701 0.69905 0.52073 0.0
H322 H 0.10751 0.65214 0.46026 0.0
H323 H 0.16842 0.67036 0.48151 0.0
C324 C 0.67428 0.37812 0.83294 0.0
C325 C 0.63175 0.36021 0.83679 0.0
C326 C 0.6937 0.35404 0.83366 0.0
C327 C 0.67331 0.24588 0.84239 0.0
H328 H 0.70002 0.25098 0.78813 0.0
C329 C 0.58753 0.11179 0.79013 0.0
C330 C 0.60566 0.10524 0.7739 0.0
C331 C 0.61136 0.14454 0.80342 0.0
C332 C 0.69414 0.2494 0.80351 0.0
H333 H 0.57789 0.30527 0.84699 0.0
H334 H 0.61111 0.26297 0.84783 0.0
H335 H 0.70775 0.31244 0.80465 0.0
H336 H 0.66361 0.12746 0.75925 0.0
H337 H 0.7051 0.18641 0.78222 0.0
H338 H 0.65551 0.18136 0.84043 0.0
C339 C 0.62983 0.29549 0.84432 0.0
C340 C 0.69862 0.28484 0.81307 0.0
C341 C 0.61044 0.31949 0.84355 0.0
C342 C 0.64857 0.13203 0.77145 0.0
C343 C 0.67244 0.16537 0.78471 0.0
C344 C 0.66879 0.21041 0.8328 0.0
C345 C 0.67085 0.31173 0.83822 0.0
C346 C 0.68464 0.28229 0.83203 0.0
C347 C 0.65389 0.17209 0.80073 0.0
C348 C 0.67569 0.21109 0.8128 0.0
H349 H 0.69158 0.40959 0.82777 0.0
H350 H 0.72546 0.36751 0.8291 0.0
H351 H 0.66341 0.24338 0.85719 0.0
H352 H 0.55443 0.09244 0.79228 0.0
H353 H 0.59574 0.14963 0.81524 0.0
C354 C 0.5835 0.92909 0.47947 0.0
C355 C 0.61905 0.96787 0.48492 0.0
C356 C 0.58279 0.89092 0.48241 0.0
C357 C 0.6528 0.84455 0.49533 0.0
H358 H 0.54687 0.74554 0.50354 0.0
C359 C 0.64127 0.68054 0.50654 0.0
C360 C 0.61139 0.65259 0.51916 0.0
C361 C 0.6417 0.71762 0.5008 0.0
C362 C 0.57706 0.77266 0.50149 0.0
H363 H 0.68191 0.99544 0.49802 0.0
H364 H 0.68056 0.92972 0.50343 0.0
H365 H 0.54925 0.81117 0.49786 0.0
H366 H 0.55754 0.64215 0.53483 0.0
H367 H 0.55836 0.70543 0.52522 0.0
H368 H 0.68071 0.80608 0.49971 0.0
C369 C 0.65316 0.92847 0.49644 0.0
C370 C 0.57835 0.81087 0.49786 0.0
C371 C 0.65392 0.96668 0.4934 0.0
C372 C 0.5811 0.66244 0.52508 0.0
C373 C 0.5815 0.6992 0.51941 0.0
C374 C 0.65152 0.80628 0.49906 0.0
C375 C 0.6175 0.88949 0.49109 0.0
C376 C 0.61625 0.84795 0.49474 0.0
C377 C 0.61219 0.72824 0.50738 0.0
C378 C 0.61362 0.76934 0.50238 0.0
H379 H 0.55582 0.92806 0.47291 0.0
H380 H 0.55476 0.86242 0.47762 0.0
H381 H 0.6828 0.87151 0.49278 0.0
H382 H 0.6655 0.67474 0.50178 0.0
H383 H 0.66564 0.73818 0.4913 0.0
C384 C 0.76757 0.62252 0.81993 0.0
C385 C 0.72914 0.58473 0.81806 0.0
C386 C 0.80605 0.62327 0.82327 0.0
C387 C 0.85524 0.5525 0.82569 0.0
H388 H 0.94988 0.65296 0.84819 0.0
C389 C 1.01955 0.56279 0.84172 0.0
C390 C 1.04635 0.58956 0.85708 0.0
C391 C 0.9824 0.56303 0.83543 0.0
C392 C 0.92403 0.62407 0.84217 0.0
H393 H 0.70234 0.51774 0.81864 0.0
H394 H 0.76808 0.51878 0.82524 0.0
H395 H 0.88422 0.65059 0.84182 0.0
H396 H 1.0547 0.63905 0.877 0.0
H397 H 0.99121 0.63862 0.8669 0.0
H398 H 0.89489 0.52537 0.82711 0.0
C399 C 0.76933 0.54836 0.82348 0.0
C400 C 0.88564 0.62298 0.83805 0.0
C401 C 0.73093 0.54766 0.81976 0.0
C402 C 1.03524 0.6176 0.86523 0.0
C403 C 0.99828 0.61758 0.85917 0.0
C404 C 0.89359 0.55338 0.83012 0.0
C405 C 0.80813 0.58622 0.82537 0.0
C406 C 0.84999 0.58719 0.82968 0.0
C407 C 0.97035 0.58998 0.84428 0.0
C408 C 0.92908 0.58917 0.8386 0.0
H409 H 0.76807 0.65189 0.81863 0.0
H410 H 0.83425 0.6534 0.82401 0.0
H411 H 0.82976 0.52421 0.81898 0.0
H412 H 1.02635 0.54043 0.83504 0.0
H413 H 0.96297 0.54157 0.8237 0.0
C414 C 0.26221 0.70335 0.15604 0.0
C415 C 0.22409 0.70346 0.1544 0.0
C416 C 0.3011 0.74073 0.1588 0.0
C417 C 0.35238 0.8606 0.1597 0.0
H418 H 0.44589 0.85378 0.1828 0.0
C419 C 0.51908 1.01245 0.17411 0.0
C420 C 0.54524 1.01289 0.18981 0.0
C421 C 0.48127 0.97534 0.1682 0.0
C422 C 0.42037 0.85709 0.17661 0.0
H423 H 0.19829 0.74459 0.1546 0.0
H424 H 0.26498 0.80897 0.16019 0.0
H425 H 0.37939 0.79117 0.17712 0.0
H426 H 0.5518 0.97271 0.21075 0.0
H427 H 0.48719 0.91029 0.20131 0.0
H428 H 0.3933 0.92713 0.16027 0.0
C429 C 0.26551 0.78017 0.15875 0.0
C430 C 0.38152 0.82019 0.17288 0.0
C431 C 0.22662 0.74273 0.15562 0.0
C432 C 0.5328 0.97441 0.19873 0.0
C433 C 0.49525 0.9378 0.19304 0.0
C434 C 0.39123 0.89773 0.16374 0.0
C435 C 0.30395 0.78027 0.1605 0.0
C436 C 0.34627 0.82072 0.16433 0.0
C437 C 0.46803 0.93711 0.17777 0.0
C438 C 0.42629 0.89703 0.17243 0.0
H439 H 0.26217 0.67415 0.15507 0.0
H440 H 0.32898 0.73815 0.15942 0.0
H441 H 0.32718 0.86357 0.15282 0.0
H442 H 0.52699 1.04112 0.16682 0.0
H443 H 0.46233 0.97693 0.15616 0.0
C444 C 0.65365 0.23966 0.48388 0.0
C445 C 0.61713 0.2012 0.48677 0.0
C446 C 0.65498 0.27825 0.48681 0.0
C447 C 0.58533 0.32621 0.49435 0.0
H448 H 0.6908 0.42439 0.50963 0.0
C449 C 0.59762 0.49088 0.50573 0.0
C450 C 0.62652 0.51868 0.52025 0.0
C451 C 0.59728 0.45363 0.50013 0.0
C452 C 0.66072 0.3975 0.50556 0.0
H453 H 0.55326 0.17467 0.49532 0.0
H454 H 0.55564 0.24096 0.50073 0.0
H455 H 0.68807 0.35836 0.50408 0.0
H456 H 0.6789 0.52865 0.53948 0.0
H457 H 0.67816 0.46505 0.53015 0.0
H458 H 0.5578 0.36525 0.49658 0.0
C459 C 0.58337 0.24172 0.49575 0.0
C460 C 0.65926 0.35907 0.50201 0.0
C461 C 0.58202 0.20315 0.49274 0.0
C462 C 0.65602 0.50846 0.52827 0.0
C463 C 0.6557 0.47152 0.52274 0.0
C464 C 0.58677 0.36468 0.49801 0.0
C465 C 0.6199 0.28038 0.49289 0.0
C466 C 0.6215 0.32226 0.4964 0.0
C467 C 0.62592 0.44265 0.50877 0.0
C468 C 0.62447 0.40134 0.50385 0.0
H469 H 0.68154 0.2401 0.47932 0.0
H470 H 0.68375 0.30648 0.48403 0.0
H471 H 0.55549 0.29953 0.48978 0.0
H472 H 0.57404 0.49698 0.49928 0.0
H473 H 0.57408 0.43323 0.4891 0.0
C474 C 0.48994 0.61394 0.82222 0.0
C475 C 0.49076 0.57672 0.81884 0.0
C476 C 0.45232 0.61369 0.82594 0.0
C477 C 0.33804 0.54006 0.83819 0.0
H478 H 0.32812 0.63821 0.83035 0.0
C479 C 0.19404 0.54728 0.86618 0.0
C480 C 0.181 0.57442 0.85834 0.0
C481 C 0.23011 0.54727 0.8602 0.0
C482 C 0.32965 0.61009 0.83249 0.0
H483 H 0.45072 0.50969 0.81652 0.0
H484 H 0.38588 0.50903 0.82215 0.0
H485 H 0.39171 0.6388 0.82207 0.0
H486 H 0.1967 0.62202 0.83698 0.0
H487 H 0.25859 0.62103 0.82592 0.0
H488 H 0.27551 0.51067 0.84775 0.0
C489 C 0.41438 0.53893 0.82261 0.0
C490 C 0.36709 0.61062 0.82796 0.0
C491 C 0.45207 0.53921 0.81913 0.0
C492 C 0.20504 0.60041 0.84345 0.0
C493 C 0.24133 0.60024 0.8373 0.0
C494 C 0.30057 0.53938 0.84249 0.0
C495 C 0.41338 0.57615 0.82632 0.0
C496 C 0.37251 0.57565 0.8308 0.0
C497 C 0.25518 0.574 0.84574 0.0
C498 C 0.29536 0.57449 0.84 0.0
H499 H 0.51872 0.64354 0.82243 0.0
H500 H 0.45425 0.64329 0.8289 0.0
H501 H 0.33979 0.5123 0.84106 0.0
H502 H 0.17667 0.52624 0.87749 0.0
H503 H 0.23879 0.5268 0.86757 0.0
C504 C 0.95713 0.46617 0.16356 0.0
C505 C 0.99153 0.4677 0.15454 0.0
C506 C 0.92036 0.42788 0.16665 0.0
C507 C 0.87688 0.31068 0.16756 0.0
H508 H 0.77023 0.3067 0.16851 0.0
C509 C 0.72874 0.16494 0.1959 0.0
C510 C 0.68795 0.1543 0.18899 0.0
C511 C 0.76452 0.20125 0.19008 0.0
C512 C 0.79948 0.30673 0.16815 0.0
H513 H 1.01258 0.42843 0.14157 0.0
H514 H 0.94857 0.36232 0.14633 0.0
H515 H 0.83309 0.37182 0.16158 0.0
H516 H 0.65404 0.1747 0.16993 0.0
H517 H 0.71635 0.23767 0.1594 0.0
H518 H 0.84331 0.24552 0.17376 0.0
C519 C 0.9502 0.39079 0.15149 0.0
C520 C 0.83615 0.34473 0.1644 0.0
C521 C 0.98723 0.42912 0.14858 0.0
C522 C 0.68464 0.18112 0.17543 0.0
C523 C 0.72069 0.21786 0.16963 0.0
C524 C 0.84029 0.27275 0.17133 0.0
C525 C 0.9158 0.38918 0.16063 0.0
C526 C 0.87588 0.34778 0.16415 0.0
C527 C 0.76154 0.22912 0.17705 0.0
C528 C 0.80065 0.2698 0.17189 0.0
H529 H 0.95876 0.49473 0.16861 0.0
H530 H 0.89575 0.42868 0.17425 0.0
H531 H 0.90627 0.31088 0.16773 0.0
H532 H 0.73298 0.1456 0.20647 0.0
H533 H 0.79461 0.20816 0.19653 0.0
C534 C 0.14526 0.59162 0.07986 0.0
C535 C 0.10831 0.58259 0.08892 0.0
C536 C 0.14648 0.59132 0.05943 0.0
C537 C 1.07969 0.54749 0.01423 0.0
H538 H 0.17069 0.63902 -0.01109 0.0
C539 C 1.07643 0.56027 0.92996 0.0
C540 C 0.11424 0.57958 0.92033 0.0
C541 C 1.07618 0.56044 0.9504 0.0
C542 C 0.14533 0.6127 -0.00438 0.0
H543 H 1.04348 0.56568 0.08337 0.0
H544 H 1.0454 0.56426 0.04781 0.0
H545 H 0.16967 0.63921 0.02438 0.0
H546 H 0.18173 0.61412 0.92532 0.0
H547 H 0.18135 0.61241 0.96068 0.0
H548 H 1.05581 0.52013 0.98572 0.0
C549 C 1.07355 0.57184 0.05654 0.0
C550 C 0.1447 0.613 0.01607 0.0
C551 C 1.07252 0.57286 0.07696 0.0
C552 C 0.15185 0.59844 0.93198 0.0
C553 C 0.15161 0.59808 0.95245 0.0
C554 C 1.08064 0.5468 -0.00619 0.0
C555 C 0.11059 0.58124 0.04747 0.0
C556 C 0.11172 0.58055 0.02567 0.0
C557 C 0.11374 0.57931 0.96207 0.0
C558 C 0.11332 0.57955 0.98407 0.0
H559 H 0.17348 0.59933 0.08856 0.0
H560 H 0.17545 0.59843 0.05297 0.0
H561 H 1.0541 0.52167 0.02112 0.0
H562 H 1.04667 0.54466 0.92172 0.0
H563 H 1.04622 0.54613 0.95697 0.0
C564 C 0.65979 0.09612 0.41071 0.0
C565 C 0.62385 0.08949 0.42001 0.0
C566 C 0.66078 0.09685 0.39025 0.0
C567 C 0.5906 0.0617 0.34527 0.0
H568 H 0.68802 0.14457 0.31978 0.0
C569 C 0.58529 0.08318 0.26196 0.0
C570 C 0.62093 0.09269 0.25164 0.0
C571 C 0.58679 0.0835 0.2824 0.0
C572 C 0.66068 0.12081 0.3266 0.0
H573 H 0.56074 0.07852 0.41481 0.0
H574 H 0.56252 0.07977 0.37948 0.0
H575 H 0.68893 0.14309 0.35535 0.0
H576 H 0.68623 0.11001 0.25501 0.0
H577 H 0.68881 0.11014 0.29059 0.0
H578 H 0.56237 1.03905 0.31668 0.0
C579 C 0.58991 0.08408 0.38791 0.0
C580 C 0.66123 0.12001 0.34707 0.0
C581 C 0.58902 0.08364 0.40828 0.0
C582 C 0.65829 0.10302 0.26242 0.0
C583 C 0.65975 0.10313 0.2829 0.0
C584 C 0.59011 0.06234 0.32485 0.0
C585 C 0.62572 0.09059 0.37855 0.0
C586 C 0.62604 0.09065 0.35671 0.0
C587 C 0.62393 0.09309 0.29324 0.0
C588 C 0.625 0.09211 0.31514 0.0
H589 H 0.68722 0.10076 0.41922 0.0
H590 H 0.68881 0.10166 0.38357 0.0
H591 H 0.56317 1.03812 0.35211 0.0
H592 H 0.55614 0.07573 0.2542 0.0
H593 H 0.55873 0.07651 0.28971 0.0
C594 C 0.64808 0.60977 0.74191 0.0
C595 C 0.60982 0.58765 0.75089 0.0
C596 C 0.64944 0.61019 0.72149 0.0
C597 C 0.58297 0.55508 0.67588 0.0
H598 H 0.67261 0.64824 0.65083 0.0
C599 C 0.60036 0.54973 0.59249 0.0
C600 C 0.61803 0.58707 0.58221 0.0
C601 C 0.60015 0.55018 0.61292 0.0
C602 C 0.64686 0.6221 0.65742 0.0
H603 H 0.54281 0.54986 0.74538 0.0
H604 H 0.54471 0.5524 0.71008 0.0
H605 H 0.66965 0.64974 0.68596 0.0
H606 H 0.64983 0.65448 0.58605 0.0
H607 H 0.64682 0.65514 0.62119 0.0
H608 H 0.5587 0.52859 0.64733 0.0
C609 C 0.57411 0.56802 0.71858 0.0
C610 C 0.6456 0.6226 0.67783 0.0
C611 C 0.57289 0.56685 0.73896 0.0
C612 C 0.6352 0.62487 0.59317 0.0
C613 C 0.63422 0.62529 0.61358 0.0
C614 C 0.58375 0.55497 0.65548 0.0
C615 C 0.61244 0.58922 0.70941 0.0
C616 C 0.61371 0.58902 0.68748 0.0
C617 C 0.6168 0.58795 0.62388 0.0
C618 C 0.61582 0.58836 0.64582 0.0
H619 H 0.67717 0.62586 0.75067 0.0
H620 H 0.67974 0.6263 0.71526 0.0
H621 H 0.55821 0.52809 0.68249 0.0
H622 H 0.58614 0.5198 0.58479 0.0
H623 H 0.5871 0.52063 0.62006 0.0
C624 C 0.5714 1.04751 0.54877 0.0
C625 C 0.60883 0.07736 0.54091 0.0
C626 C 0.56771 1.04481 0.56889 0.0
C627 C 0.61621 0.10307 0.61573 0.0
H628 H 0.54969 0.99348 0.63696 0.0
C629 C 0.60709 0.07008 0.69841 0.0
C630 C 0.56641 1.04648 0.70506 0.0
C631 C 0.61357 0.07484 0.67848 0.0
C632 C 0.56817 1.02427 0.63119 0.0
H633 H 0.67182 0.12788 0.54792 0.0
H634 H 0.66592 0.12234 0.58322 0.0
H635 H 0.55986 0.99992 0.60208 0.0
H636 H 0.50066 1.00984 0.69578 0.0
H637 H 0.51231 1.01699 0.66098 0.0
H638 H 0.6252 0.12703 0.64514 0.0
C639 C 0.63904 0.10158 0.57381 0.0
C640 C 0.57388 1.02807 0.61121 0.0
C641 C 0.64254 0.10466 0.55359 0.0
C642 C 0.53245 1.02756 0.69124 0.0
C643 C 0.53904 1.03181 0.67131 0.0
C644 C 0.61097 0.09917 0.6358 0.0
C645 C 0.60158 0.07147 0.5817 0.0
C646 C 0.59748 0.06755 0.60316 0.0
C647 C 0.57963 1.05554 0.66476 0.0
C648 C 0.58648 0.05976 0.64365 0.0
H649 H 0.54465 1.02632 0.53938 0.0
H650 H 0.53804 1.02197 0.57437 0.0
H651 H 0.63413 0.13399 0.61006 0.0
H652 H 0.63409 0.08443 0.70857 0.0
H653 H 0.64521 0.09292 0.67376 0.0
C654 C 0.60297 0.53014 0.87911 0.0
C655 C 0.61436 0.56939 0.87162 0.0
C656 C 0.60454 0.52508 0.89911 0.0
C657 C 0.60831 0.57451 0.94662 0.0
H658 H 0.63875 0.49438 0.96581 0.0
C659 C 0.62825 0.55044 0.02839 0.0
C660 C 0.60332 0.50908 0.03416 0.0
C661 C 0.63337 0.55956 0.0087 0.0
C662 C 0.63016 0.51678 0.9606 0.0
H663 H 0.63636 0.63423 0.87915 0.0
H664 H 0.6404 0.62573 0.91434 0.0
H665 H 0.64176 0.50884 0.93115 0.0
H666 H 0.56561 0.44474 0.02375 0.0
H667 H 0.57583 0.46074 -0.01075 0.0
H668 H 0.59755 0.58282 0.9763 0.0
C669 C 0.62938 0.59863 0.90469 0.0
C670 C 0.63165 0.52496 0.94077 0.0
C671 C 0.62722 0.60358 0.88457 0.0
C672 C 0.58523 0.47684 0.01981 0.0
C673 C 0.59093 0.48597 9e-05 0.0
C674 C 0.6075 0.56678 0.96651 0.0
C675 C 0.61819 0.55928 0.91218 0.0
C676 C 0.61995 0.55333 0.93348 0.0
C677 C 0.6144 0.52746 -0.00559 0.0
C678 C 0.61779 0.53739 0.97358 0.0
H679 H 0.5924 0.50303 0.8695 0.0
H680 H 0.59455 0.49412 0.90432 0.0
H681 H 0.59858 0.59611 0.94151 0.0
H682 H 0.64361 0.57591 0.03908 0.0
H683 H 0.65211 0.59172 0.00462 0.0
C684 C 1.08333 0.55167 0.21972 0.0
C685 C 0.10413 0.58961 0.21014 0.0
C686 C 1.07715 0.55135 0.23967 0.0
C687 C 0.1186 0.61251 0.28488 0.0
H688 H 1.00556 0.54985 0.30225 0.0
C689 C 1.08282 0.63025 0.36374 0.0
C690 C 1.05223 0.59484 0.37269 0.0
C691 C 0.08811 0.62922 0.34379 0.0
C692 C 1.03741 0.56697 0.29775 0.0
H693 H 0.13583 0.65691 0.21392 0.0
H694 H 0.12606 0.65629 0.24895 0.0
H695 H 1.0182 0.54754 0.26779 0.0
H696 H 1.00305 0.53069 0.36809 0.0
H697 H 1.01314 0.52809 0.33329 0.0
H698 H 0.13834 0.63103 0.3147 0.0
C699 C 0.11416 0.6269 0.24095 0.0
C700 C 1.04455 0.56573 0.278 0.0
C701 C 0.11961 0.62722 0.22094 0.0
C702 C 1.02656 0.55848 0.36138 0.0
C703 C 1.03233 0.55715 0.34145 0.0
C704 C 0.11162 0.61318 0.30466 0.0
C705 C 0.09245 0.58897 0.25041 0.0
C706 C 0.08514 0.5888 0.2714 0.0
C707 C 1.06348 0.59242 0.33242 0.0
C708 C 1.07087 0.59079 0.31135 0.0
H709 H 1.07087 0.52221 0.21172 0.0
H710 H 1.0605 0.52174 0.24672 0.0
H711 H 0.15024 0.6302 0.28012 0.0
H712 H 0.10276 0.65872 0.37222 0.0
H713 H 0.11163 0.65733 0.33732 0.0
loop_
_geom_bond_atom_site_label_1
_geom_bond_atom_site_label_2
_geom_bond_distance
_geom_bond_site_symmetry_2
_ccdc_geom_bond_type
Tb0 C10 2.825 . S
Tb0 O11 2.347 . S
Tb0 O14 2.366 . S
Tb0 O19 2.418 . S
Tb0 O20 2.384 1_455 S
Tb0 O23 2.479 . S
Tb0 O24 2.471 . S
Eu1 O12 2.419 . S
Eu1 O13 2.384 1_655 S
Eu1 O16 2.479 . S
Eu1 O17 2.471 . S
Eu1 O18 2.347 1_655 S
Eu1 O21 2.366 . S
Eu1 C31 2.825 . S
C2 O18 1.259 . S
C2 O19 1.265 . S
C3 O20 1.255 . S
C3 O21 1.265 . S
C4 C6 1.380 . S
C4 C7 1.374 . S
C4 C10 1.507 . S
C5 C6 1.384 . S
C5 C9 1.387 . S
C5 H32 0.930 . S
C6 C4 1.380 . S
C6 C5 1.384 . S
C6 H33 0.931 . S
C7 C4 1.374 . S
C7 C8 1.390 . S
C7 H34 0.930 . S
C8 C7 1.390 . S
C8 C9 1.391 . S
C8 H35 0.930 . S
C9 C5 1.387 . S
C9 C8 1.391 . S
C10 Tb0 2.825 . S
C10 C4 1.507 . S
C10 O23 1.238 . S
C10 O24 1.247 . S
O11 Tb0 2.347 . S
O11 C15 1.259 . S
O12 Eu1 2.419 . S
O12 C15 1.262 1_655 S
O13 Eu1 2.384 1_455 S
O13 C22 1.255 . S
O14 Tb0 2.366 . S
O14 C22 1.265 . S
C15 O11 1.259 . S
C15 O12 1.262 1_455 S
O16 Eu1 2.479 . S
O16 C31 1.238 . S
O17 Eu1 2.471 . S
O17 C31 1.247 . S
O18 Eu1 2.347 1_455 S
O18 C2 1.259 . S
O19 Tb0 2.418 . S
O19 C2 1.265 . S
O20 Tb0 2.384 1_655 S
O20 C3 1.255 . S
O21 Eu1 2.366 . S
O21 C3 1.265 . S
C22 O13 1.255 . S
C22 O14 1.265 . S
O23 Tb0 2.479 . S
O23 C10 1.238 . S
O24 Tb0 2.471 . S
O24 C10 1.247 . S
C25 C28 1.380 . S
C25 C29 1.374 . S
C25 C31 1.507 . S
C26 C27 1.387 . S
C26 C30 1.391 . S
C27 C26 1.387 . S
C27 C28 1.384 . S
C27 H36 0.930 . S
C28 C25 1.380 . S
C28 C27 1.384 . S
C28 H37 0.931 . S
C29 C25 1.374 . S
C29 C30 1.390 . S
C29 H38 0.930 . S
C30 C26 1.391 . S
C30 C29 1.390 . S
C30 H39 0.930 . S
C31 Eu1 2.825 . S
C31 O16 1.238 . S
C31 O17 1.247 . S
C31 C25 1.507 . S
H32 C5 0.930 . S
H33 C6 0.931 . S
H34 C7 0.930 . S
H35 C8 0.930 . S
H36 C27 0.930 . S
H37 C28 0.931 . S
H38 C29 0.930 . S
H39 C30 0.930 . S
Tb40 C50 2.825 . S
Tb40 O51 2.347 . S
Tb40 O54 2.366 . S
Tb40 O59 2.418 . S
Tb40 O60 2.384 1_545 S
Tb40 O63 2.479 . S
Tb40 O64 2.471 . S
Eu41 O52 2.418 . S
Eu41 O53 2.384 . S
Eu41 O56 2.479 1_545 S
Eu41 O57 2.471 1_545 S
Eu41 O58 2.347 . S
Eu41 O61 2.366 1_545 S
Eu41 C71 2.825 1_545 S
C42 O58 1.259 . S
C42 O59 1.265 . S
C43 O60 1.255 . S
C43 O61 1.265 . S
C44 C46 1.380 . S
C44 C47 1.374 . S
C44 C50 1.507 . S
C45 C46 1.384 . S
C45 C49 1.387 . S
C45 H72 0.930 . S
C46 C44 1.380 . S
C46 C45 1.384 . S
C46 H73 0.931 . S
C47 C44 1.374 . S
C47 C48 1.390 . S
C47 H74 0.930 . S
C48 C47 1.390 . S
C48 C49 1.391 . S
C48 H75 0.930 . S
C49 C45 1.387 . S
C49 C48 1.391 . S
C50 Tb40 2.825 . S
C50 C44 1.507 . S
C50 O63 1.238 . S
C50 O64 1.247 . S
O51 Tb40 2.347 . S
O51 C55 1.259 . S
O52 Eu41 2.418 . S
O52 C55 1.265 . S
O53 Eu41 2.384 . S
O53 C62 1.255 . S
O54 Tb40 2.366 . S
O54 C62 1.265 . S
C55 O51 1.259 . S
C55 O52 1.265 . S
O56 Eu41 2.479 1_565 S
O56 C71 1.238 . S
O57 Eu41 2.471 1_565 S
O57 C71 1.247 . S
O58 Eu41 2.347 . S
O58 C42 1.259 . S
O59 Tb40 2.418 . S
O59 C42 1.265 . S
O60 Tb40 2.384 1_565 S
O60 C43 1.255 . S
O61 Eu41 2.366 1_565 S
O61 C43 1.265 . S
C62 O53 1.255 . S
C62 O54 1.265 . S
O63 Tb40 2.479 . S
O63 C50 1.238 . S
O64 Tb40 2.471 . S
O64 C50 1.247 . S
C65 C68 1.380 . S
C65 C69 1.374 . S
C65 C71 1.507 . S
C66 C67 1.387 . S
C66 C70 1.391 . S
C67 C66 1.387 . S
C67 C68 1.384 . S
C67 H76 0.930 . S
C68 C65 1.380 . S
C68 C67 1.384 . S
C68 H77 0.931 . S
C69 C65 1.374 . S
C69 C70 1.390 . S
C69 H78 0.930 . S
C70 C66 1.391 . S
C70 C69 1.390 . S
C70 H79 0.930 . S
C71 Eu41 2.825 1_565 S
C71 O56 1.238 . S
C71 O57 1.247 . S
C71 C65 1.507 . S
H72 C45 0.930 . S
H73 C46 0.931 . S
H74 C47 0.930 . S
H75 C48 0.930 . S
H76 C67 0.930 . S
H77 C68 0.931 . S
H78 C69 0.930 . S
H79 C70 0.930 . S
Tb80 C90 2.825 . S
Tb80 O91 2.347 . S
Tb80 O94 2.366 . S
Tb80 O99 2.418 . S
Tb80 O100 2.384 . S
Tb80 O103 2.479 . S
Tb80 O104 2.471 . S
Eu81 O92 2.418 . S
Eu81 O93 2.384 . S
Eu81 O96 2.479 . S
Eu81 O97 2.471 . S
Eu81 O98 2.347 . S
Eu81 O101 2.366 . S
Eu81 C111 2.825 . S
C82 O98 1.259 . S
C82 O99 1.265 . S
C83 O100 1.255 . S
C83 O101 1.265 . S
C84 C86 1.380 . S
C84 C87 1.374 . S
C84 C90 1.507 . S
C85 C86 1.384 . S
C85 C89 1.387 . S
C85 H112 0.930 . S
C86 C84 1.380 . S
C86 C85 1.384 . S
C86 H113 0.931 . S
C87 C84 1.374 . S
C87 C88 1.390 . S
C87 H114 0.930 . S
C88 C87 1.390 . S
C88 C89 1.391 . S
C88 H115 0.930 . S
C89 C85 1.387 . S
C89 C88 1.391 . S
C90 Tb80 2.825 . S
C90 C84 1.507 . S
C90 O103 1.238 . S
C90 O104 1.247 . S
O91 Tb80 2.347 . S
O91 C95 1.259 . S
O92 Eu81 2.418 . S
O92 C95 1.265 . S
O93 Eu81 2.384 . S
O93 C102 1.255 . S
O94 Tb80 2.366 . S
O94 C102 1.265 . S
C95 O91 1.259 . S
C95 O92 1.265 . S
O96 Eu81 2.479 . S
O96 C111 1.238 . S
O97 Eu81 2.471 . S
O97 C111 1.247 . S
O98 Eu81 2.347 . S
O98 C82 1.259 . S
O99 Tb80 2.418 . S
O99 C82 1.265 . S
O100 Tb80 2.384 . S
O100 C83 1.255 . S
O101 Eu81 2.366 . S
O101 C83 1.265 . S
C102 O93 1.255 . S
C102 O94 1.265 . S
O103 Tb80 2.479 . S
O103 C90 1.238 . S
O104 Tb80 2.471 . S
O104 C90 1.247 . S
C105 C108 1.380 . S
C105 C109 1.374 . S
C105 C111 1.507 . S
C106 C107 1.387 . S
C106 C110 1.391 . S
C107 C106 1.387 . S
C107 C108 1.384 . S
C107 H116 0.930 . S
C108 C105 1.380 . S
C108 C107 1.384 . S
C108 H117 0.931 . S
C109 C105 1.374 . S
C109 C110 1.390 . S
C109 H118 0.930 . S
C110 C106 1.391 . S
C110 C109 1.390 . S
C110 H119 0.930 . S
C111 Eu81 2.825 . S
C111 O96 1.238 . S
C111 O97 1.247 . S
C111 C105 1.507 . S
H112 C85 0.930 . S
H113 C86 0.931 . S
H114 C87 0.930 . S
H115 C88 0.930 . S
H116 C107 0.930 . S
H117 C108 0.931 . S
H118 C109 0.930 . S
H119 C110 0.930 . S
H120 C123 0.931 . S
H121 C126 0.928 . S
H122 C128 0.930 . S
C123 H120 0.931 . S
C123 C124 1.413 . S
C123 C125 1.360 1_565 S
C124 C123 1.413 . S
C124 C128 1.429 1_565 S
C125 C123 1.360 1_545 S
C125 C126 1.372 . S
C126 H121 0.928 . S
C126 C125 1.372 . S
C126 C127 1.404 . S
C127 C126 1.404 . S
C127 C128 1.391 . S
C128 H122 0.930 . S
C128 C124 1.429 1_545 S
C128 C127 1.391 . S
H129 C132 0.931 . S
H130 C135 0.928 . S
H131 C137 0.930 . S
C132 H129 0.931 . S
C132 C133 1.413 . S
C132 C134 1.360 . S
C133 C132 1.413 . S
C133 C137 1.429 . S
C134 C132 1.360 . S
C134 C135 1.372 . S
C135 H130 0.928 . S
C135 C134 1.372 . S
C135 C136 1.404 . S
C136 C135 1.404 . S
C136 C137 1.391 . S
C137 H131 0.930 . S
C137 C133 1.429 . S
C137 C136 1.391 . S
H138 C141 0.931 . S
H139 C144 0.928 . S
H140 C146 0.930 . S
C141 H138 0.931 . S
C141 C142 1.413 . S
C141 C143 1.360 1_655 S
C142 C141 1.413 . S
C142 C146 1.429 1_655 S
C143 C141 1.360 1_455 S
C143 C144 1.372 . S
C144 H139 0.928 . S
C144 C143 1.372 . S
C144 C145 1.404 . S
C145 C144 1.404 . S
C145 C146 1.391 . S
C146 H140 0.930 . S
C146 C142 1.429 1_455 S
C146 C145 1.391 . S
H147 C150 0.931 . S
H148 C153 0.928 . S
H149 C155 0.930 . S
C150 H147 0.931 . S
C150 C151 1.413 . S
C150 C152 1.360 1_655 S
C151 C150 1.413 . S
C151 C155 1.429 1_655 S
C152 C150 1.360 1_455 S
C152 C153 1.372 . S
C153 H148 0.928 . S
C153 C152 1.372 . S
C153 C154 1.404 . S
C154 C153 1.404 . S
C154 C155 1.391 . S
C155 H149 0.930 . S
C155 C151 1.429 1_455 S
C155 C154 1.391 . S
H156 C159 0.931 . S
H157 C162 0.928 . S
H158 C164 0.930 . S
C159 H156 0.931 . S
C159 C160 1.413 . S
C159 C161 1.384 . S
C160 C159 1.413 . S
C160 C164 1.404 1_545 S
C161 C159 1.384 . S
C161 C162 1.347 1_545 S
C162 H157 0.928 . S
C162 C161 1.347 1_565 S
C162 C163 1.404 . S
C163 C162 1.404 . S
C163 C164 1.415 . S
C164 H158 0.930 . S
C164 C160 1.404 1_565 S
C164 C163 1.415 . S
H165 C168 0.931 . S
H166 C171 0.928 . S
H167 C173 0.930 . S
C168 H165 0.931 . S
C168 C169 1.413 . S
C168 C170 1.360 . S
C169 C168 1.413 . S
C169 C173 1.429 . S
C170 C168 1.360 . S
C170 C171 1.372 . S
C171 H166 0.928 . S
C171 C170 1.372 . S
C171 C172 1.404 . S
C172 C171 1.404 . S
C172 C173 1.391 . S
C173 H167 0.930 . S
C173 C169 1.429 . S
C173 C172 1.391 . S
C174 C175 1.349 . S
C174 C176 1.327 . S
C174 H199 0.950 . S
C175 C174 1.349 . S
C175 C191 1.349 . S
C176 C174 1.327 . S
C176 C195 1.429 . S
C176 H200 0.950 . S
C177 C194 1.574 . S
C177 C196 1.368 . S
C177 H201 0.949 . S
H178 C182 0.949 . S
C179 C180 1.349 . S
C179 C181 1.327 . S
C179 H202 0.950 . S
C180 C179 1.349 . S
C180 C192 1.349 . S
C181 C179 1.327 . S
C181 C197 1.429 . S
C181 H203 0.950 . S
C182 H178 0.949 . S
C182 C190 1.574 . S
C182 C198 1.368 . S
H183 C191 0.950 . S
H184 C189 0.950 . S
H185 C190 0.949 . S
H186 C192 0.950 . S
H187 C193 0.950 . S
H188 C194 0.949 . S
C189 H184 0.950 . S
C189 C191 1.327 . S
C189 C195 1.429 . S
C190 C182 1.574 . S
C190 H185 0.949 . S
C190 C196 1.368 . S
C191 C175 1.349 . S
C191 H183 0.950 . S
C191 C189 1.327 . S
C192 C180 1.349 . S
C192 H186 0.950 . S
C192 C193 1.327 . S
C193 H187 0.950 . S
C193 C192 1.327 . S
C193 C197 1.429 . S
C194 C177 1.574 . S
C194 H188 0.949 . S
C194 C198 1.368 . S
C195 C176 1.429 . S
C195 C189 1.429 . S
C195 C196 1.523 . S
C196 C177 1.368 . S
C196 C190 1.368 . S
C196 C195 1.523 . S
C197 C181 1.429 . S
C197 C193 1.429 . S
C197 C198 1.523 . S
C198 C182 1.368 . S
C198 C194 1.368 . S
C198 C197 1.523 . S
H199 C174 0.950 . S
H200 C176 0.950 . S
H201 C177 0.949 . S
H202 C179 0.950 . S
H203 C181 0.950 . S
C204 C205 1.349 . S
C204 C206 1.327 . S
C204 H229 0.950 . S
C205 C204 1.349 . S
C205 C221 1.349 . S
C206 C204 1.327 . S
C206 C225 1.429 . S
C206 H230 0.950 . S
C207 C224 1.574 . S
C207 C226 1.368 . S
C207 H231 0.949 . S
H208 C212 0.949 . S
C209 C210 1.349 . S
C209 C211 1.327 . S
C209 H232 0.950 . S
C210 C209 1.349 . S
C210 C222 1.349 . S
C211 C209 1.327 . S
C211 C227 1.429 . S
C211 H233 0.950 . S
C212 H208 0.949 . S
C212 C220 1.574 . S
C212 C228 1.368 . S
H213 C221 0.950 . S
H214 C219 0.950 . S
H215 C220 0.949 . S
H216 C222 0.950 . S
H217 C223 0.950 . S
H218 C224 0.949 . S
C219 H214 0.950 . S
C219 C221 1.327 . S
C219 C225 1.429 . S
C220 C212 1.574 . S
C220 H215 0.949 . S
C220 C226 1.368 . S
C221 C205 1.349 . S
C221 H213 0.950 . S
C221 C219 1.327 . S
C222 C210 1.349 . S
C222 H216 0.950 . S
C222 C223 1.327 . S
C223 H217 0.950 . S
C223 C222 1.327 . S
C223 C227 1.429 . S
C224 C207 1.574 . S
C224 H218 0.949 . S
C224 C228 1.368 . S
C225 C206 1.429 . S
C225 C219 1.429 . S
C225 C226 1.523 . S
C226 C207 1.368 . S
C226 C220 1.368 . S
C226 C225 1.523 . S
C227 C211 1.429 . S
C227 C223 1.429 . S
C227 C228 1.523 . S
C228 C212 1.368 . S
C228 C224 1.368 . S
C228 C227 1.523 . S
H229 C204 0.950 . S
H230 C206 0.950 . S
H231 C207 0.949 . S
H232 C209 0.950 . S
H233 C211 0.950 . S
C234 C235 1.349 . S
C234 C236 1.327 . S
C234 H259 0.950 . S
C235 C234 1.349 . S
C235 C251 1.349 . S
C236 C234 1.327 . S
C236 C255 1.429 . S
C236 H260 0.950 . S
C237 C254 1.574 . S
C237 C256 1.368 . S
C237 H261 0.949 . S
H238 C242 0.949 . S
C239 C240 1.349 . S
C239 C241 1.327 . S
C239 H262 0.950 . S
C240 C239 1.349 . S
C240 C252 1.349 . S
C241 C239 1.327 . S
C241 C257 1.429 . S
C241 H263 0.950 . S
C242 H238 0.949 . S
C242 C250 1.574 . S
C242 C258 1.368 . S
H243 C251 0.950 . S
H244 C249 0.950 . S
H245 C250 0.949 . S
H246 C252 0.950 . S
H247 C253 0.950 . S
H248 C254 0.949 . S
C249 H244 0.950 . S
C249 C251 1.327 . S
C249 C255 1.429 . S
C250 C242 1.574 . S
C250 H245 0.949 . S
C250 C256 1.368 . S
C251 C235 1.349 . S
C251 H243 0.950 . S
C251 C249 1.327 . S
C252 C240 1.349 . S
C252 H246 0.950 . S
C252 C253 1.327 . S
C253 H247 0.950 . S
C253 C252 1.327 . S
C253 C257 1.429 . S
C254 C237 1.574 . S
C254 H248 0.949 . S
C254 C258 1.368 . S
C255 C236 1.429 . S
C255 C249 1.429 . S
C255 C256 1.523 . S
C256 C237 1.368 . S
C256 C250 1.368 . S
C256 C255 1.523 . S
C257 C241 1.429 . S
C257 C253 1.429 . S
C257 C258 1.523 . S
C258 C242 1.368 . S
C258 C254 1.368 . S
C258 C257 1.523 . S
H259 C234 0.950 . S
H260 C236 0.950 . S
H261 C237 0.949 . S
H262 C239 0.950 . S
H263 C241 0.950 . S
C264 C265 1.349 . S
C264 C266 1.327 . S
C264 H289 0.950 . S
C265 C264 1.349 . S
C265 C281 1.349 . S
C266 C264 1.327 . S
C266 C285 1.429 . S
C266 H290 0.950 . S
C267 C284 1.574 . S
C267 C286 1.368 . S
C267 H291 0.949 . S
H268 C272 0.949 . S
C269 C270 1.349 . S
C269 C271 1.327 . S
C269 H292 0.950 . S
C270 C269 1.349 . S
C270 C282 1.349 . S
C271 C269 1.327 . S
C271 C287 1.429 . S
C271 H293 0.950 . S
C272 H268 0.949 . S
C272 C280 1.574 . S
C272 C288 1.368 . S
H273 C281 0.950 . S
H274 C279 0.950 . S
H275 C280 0.949 . S
H276 C282 0.950 . S
H277 C283 0.950 . S
H278 C284 0.949 . S
C279 H274 0.950 . S
C279 C281 1.327 . S
C279 C285 1.429 . S
C280 C272 1.574 . S
C280 H275 0.949 . S
C280 C286 1.368 . S
C281 C265 1.349 . S
C281 H273 0.950 . S
C281 C279 1.327 . S
C282 C270 1.349 . S
C282 H276 0.950 . S
C282 C283 1.327 . S
C283 H277 0.950 . S
C283 C282 1.327 . S
C283 C287 1.429 . S
C284 C267 1.574 . S
C284 H278 0.949 . S
C284 C288 1.368 . S
C285 C266 1.429 . S
C285 C279 1.429 . S
C285 C286 1.523 . S
C286 C267 1.368 . S
C286 C280 1.368 . S
C286 C285 1.523 . S
C287 C271 1.429 . S
C287 C283 1.429 . S
C287 C288 1.523 . S
C288 C272 1.368 . S
C288 C284 1.368 . S
C288 C287 1.523 . S
H289 C264 0.950 . S
H290 C266 0.950 . S
H291 C267 0.949 . S
H292 C269 0.950 . S
H293 C271 0.950 . S
C294 C295 1.349 . S
C294 C296 1.327 . S
C294 H319 0.950 . S
C295 C294 1.349 . S
C295 C311 1.349 . S
C296 C294 1.327 . S
C296 C315 1.429 . S
C296 H320 0.950 . S
C297 C314 1.574 . S
C297 C316 1.368 . S
C297 H321 0.949 . S
H298 C302 0.949 . S
C299 C300 1.349 . S
C299 C301 1.327 . S
C299 H322 0.950 . S
C300 C299 1.349 . S
C300 C312 1.349 . S
C301 C299 1.327 . S
C301 C317 1.429 . S
C301 H323 0.950 . S
C302 H298 0.949 . S
C302 C310 1.574 . S
C302 C318 1.368 . S
H303 C311 0.950 . S
H304 C309 0.950 . S
H305 C310 0.949 . S
H306 C312 0.950 . S
H307 C313 0.950 . S
H308 C314 0.949 . S
C309 H304 0.950 . S
C309 C311 1.327 . S
C309 C315 1.429 . S
C310 C302 1.574 . S
C310 H305 0.949 . S
C310 C316 1.368 . S
C311 C295 1.349 . S
C311 H303 0.950 . S
C311 C309 1.327 . S
C312 C300 1.349 . S
C312 H306 0.950 . S
C312 C313 1.327 . S
C313 H307 0.950 . S
C313 C312 1.327 . S
C313 C317 1.429 . S
C314 C297 1.574 . S
C314 H308 0.949 . S
C314 C318 1.368 . S
C315 C296 1.429 . S
C315 C309 1.429 . S
C315 C316 1.523 . S
C316 C297 1.368 . S
C316 C310 1.368 . S
C316 C315 1.523 . S
C317 C301 1.429 . S
C317 C313 1.429 . S
C317 C318 1.523 . S
C318 C302 1.368 . S
C318 C314 1.368 . S
C318 C317 1.523 . S
H319 C294 0.950 . S
H320 C296 0.950 . S
H321 C297 0.949 . S
H322 C299 0.950 . S
H323 C301 0.950 . S
C324 C325 1.349 . S
C324 C326 1.327 . S
C324 H349 0.950 . S
C325 C324 1.349 . S
C325 C341 1.349 . S
C326 C324 1.327 . S
C326 C345 1.429 . S
C326 H350 0.950 . S
C327 C344 1.574 . S
C327 C346 1.368 . S
C327 H351 0.949 . S
H328 C332 0.949 . S
C329 C330 1.349 . S
C329 C331 1.327 . S
C329 H352 0.950 . S
C330 C329 1.349 . S
C330 C342 1.349 . S
C331 C329 1.327 . S
C331 C347 1.429 . S
C331 H353 0.950 . S
C332 H328 0.949 . S
C332 C340 1.574 . S
C332 C348 1.368 . S
H333 C341 0.950 . S
H334 C339 0.950 . S
H335 C340 0.949 . S
H336 C342 0.950 . S
H337 C343 0.950 . S
H338 C344 0.949 . S
C339 H334 0.950 . S
C339 C341 1.327 . S
C339 C345 1.429 . S
C340 C332 1.574 . S
C340 H335 0.949 . S
C340 C346 1.368 . S
C341 C325 1.349 . S
C341 H333 0.950 . S
C341 C339 1.327 . S
C342 C330 1.349 . S
C342 H336 0.950 . S
C342 C343 1.327 . S
C343 H337 0.950 . S
C343 C342 1.327 . S
C343 C347 1.429 . S
C344 C327 1.574 . S
C344 H338 0.949 . S
C344 C348 1.368 . S
C345 C326 1.429 . S
C345 C339 1.429 . S
C345 C346 1.523 . S
C346 C327 1.368 . S
C346 C340 1.368 . S
C346 C345 1.523 . S
C347 C331 1.429 . S
C347 C343 1.429 . S
C347 C348 1.523 . S
C348 C332 1.368 . S
C348 C344 1.368 . S
C348 C347 1.523 . S
H349 C324 0.950 . S
H350 C326 0.950 . S
H351 C327 0.949 . S
H352 C329 0.950 . S
H353 C331 0.950 . S
C354 C355 1.349 . S
C354 C356 1.327 . S
C354 H379 0.950 . S
C355 C354 1.349 . S
C355 C371 1.349 . S
C356 C354 1.327 . S
C356 C375 1.429 . S
C356 H380 0.950 . S
C357 C374 1.574 . S
C357 C376 1.368 . S
C357 H381 0.949 . S
H358 C362 0.949 . S
C359 C360 1.349 . S
C359 C361 1.327 . S
C359 H382 0.950 . S
C360 C359 1.349 . S
C360 C372 1.349 . S
C361 C359 1.327 . S
C361 C377 1.429 . S
C361 H383 0.950 . S
C362 H358 0.949 . S
C362 C370 1.574 . S
C362 C378 1.368 . S
H363 C371 0.950 . S
H364 C369 0.950 . S
H365 C370 0.949 . S
H366 C372 0.950 . S
H367 C373 0.950 . S
H368 C374 0.949 . S
C369 H364 0.950 . S
C369 C371 1.327 . S
C369 C375 1.429 . S
C370 C362 1.574 . S
C370 H365 0.949 . S
C370 C376 1.368 . S
C371 C355 1.349 . S
C371 H363 0.950 . S
C371 C369 1.327 . S
C372 C360 1.349 . S
C372 H366 0.950 . S
C372 C373 1.327 . S
C373 H367 0.950 . S
C373 C372 1.327 . S
C373 C377 1.429 . S
C374 C357 1.574 . S
C374 H368 0.949 . S
C374 C378 1.368 . S
C375 C356 1.429 . S
C375 C369 1.429 . S
C375 C376 1.523 . S
C376 C357 1.368 . S
C376 C370 1.368 . S
C376 C375 1.523 . S
C377 C361 1.429 . S
C377 C373 1.429 . S
C377 C378 1.523 . S
C378 C362 1.368 . S
C378 C374 1.368 . S
C378 C377 1.523 . S
H379 C354 0.950 . S
H380 C356 0.950 . S
H381 C357 0.949 . S
H382 C359 0.950 . S
H383 C361 0.950 . S
C384 C385 1.349 . S
C384 C386 1.327 . S
C384 H409 0.950 . S
C385 C384 1.349 . S
C385 C401 1.349 . S
C386 C384 1.327 . S
C386 C405 1.429 . S
C386 H410 0.950 . S
C387 C404 1.574 . S
C387 C406 1.368 . S
C387 H411 0.949 . S
H388 C392 0.949 . S
C389 C390 1.349 . S
C389 C391 1.327 . S
C389 H412 0.950 . S
C390 C389 1.349 . S
C390 C402 1.349 . S
C391 C389 1.327 . S
C391 C407 1.429 . S
C391 H413 0.950 . S
C392 H388 0.949 . S
C392 C400 1.574 . S
C392 C408 1.368 . S
H393 C401 0.950 . S
H394 C399 0.950 . S
H395 C400 0.949 . S
H396 C402 0.950 . S
H397 C403 0.950 . S
H398 C404 0.949 . S
C399 H394 0.950 . S
C399 C401 1.327 . S
C399 C405 1.429 . S
C400 C392 1.574 . S
C400 H395 0.949 . S
C400 C406 1.368 . S
C401 C385 1.349 . S
C401 H393 0.950 . S
C401 C399 1.327 . S
C402 C390 1.349 . S
C402 H396 0.950 . S
C402 C403 1.327 . S
C403 H397 0.950 . S
C403 C402 1.327 . S
C403 C407 1.429 . S
C404 C387 1.574 . S
C404 H398 0.949 . S
C404 C408 1.368 . S
C405 C386 1.429 . S
C405 C399 1.429 . S
C405 C406 1.523 . S
C406 C387 1.368 . S
C406 C400 1.368 . S
C406 C405 1.523 . S
C407 C391 1.429 . S
C407 C403 1.429 . S
C407 C408 1.523 . S
C408 C392 1.368 . S
C408 C404 1.368 . S
C408 C407 1.523 . S
H409 C384 0.950 . S
H410 C386 0.950 . S
H411 C387 0.949 . S
H412 C389 0.950 . S
H413 C391 0.950 . S
C414 C415 1.349 . S
C414 C416 1.327 . S
C414 H439 0.950 . S
C415 C414 1.349 . S
C415 C431 1.349 . S
C416 C414 1.327 . S
C416 C435 1.429 . S
C416 H440 0.950 . S
C417 C434 1.574 . S
C417 C436 1.368 . S
C417 H441 0.949 . S
H418 C422 0.949 . S
C419 C420 1.349 . S
C419 C421 1.327 . S
C419 H442 0.950 . S
C420 C419 1.349 . S
C420 C432 1.349 . S
C421 C419 1.327 . S
C421 C437 1.429 . S
C421 H443 0.950 . S
C422 H418 0.949 . S
C422 C430 1.574 . S
C422 C438 1.368 . S
H423 C431 0.950 . S
H424 C429 0.950 . S
H425 C430 0.949 . S
H426 C432 0.950 . S
H427 C433 0.950 . S
H428 C434 0.949 . S
C429 H424 0.950 . S
C429 C431 1.327 . S
C429 C435 1.429 . S
C430 C422 1.574 . S
C430 H425 0.949 . S
C430 C436 1.368 . S
C431 C415 1.349 . S
C431 H423 0.950 . S
C431 C429 1.327 . S
C432 C420 1.349 . S
C432 H426 0.950 . S
C432 C433 1.327 . S
C433 H427 0.950 . S
C433 C432 1.327 . S
C433 C437 1.429 . S
C434 C417 1.574 . S
C434 H428 0.949 . S
C434 C438 1.368 . S
C435 C416 1.429 . S
C435 C429 1.429 . S
C435 C436 1.523 . S
C436 C417 1.368 . S
C436 C430 1.368 . S
C436 C435 1.523 . S
C437 C421 1.429 . S
C437 C433 1.429 . S
C437 C438 1.523 . S
C438 C422 1.368 . S
C438 C434 1.368 . S
C438 C437 1.523 . S
H439 C414 0.950 . S
H440 C416 0.950 . S
H441 C417 0.949 . S
H442 C419 0.950 . S
H443 C421 0.950 . S
C444 C445 1.349 . S
C444 C446 1.327 . S
C444 H469 0.950 . S
C445 C444 1.349 . S
C445 C461 1.349 . S
C446 C444 1.327 . S
C446 C465 1.429 . S
C446 H470 0.950 . S
C447 C464 1.574 . S
C447 C466 1.368 . S
C447 H471 0.949 . S
H448 C452 0.949 . S
C449 C450 1.349 . S
C449 C451 1.327 . S
C449 H472 0.950 . S
C450 C449 1.349 . S
C450 C462 1.349 . S
C451 C449 1.327 . S
C451 C467 1.429 . S
C451 H473 0.950 . S
C452 H448 0.949 . S
C452 C460 1.574 . S
C452 C468 1.368 . S
H453 C461 0.950 . S
H454 C459 0.950 . S
H455 C460 0.949 . S
H456 C462 0.950 . S
H457 C463 0.950 . S
H458 C464 0.949 . S
C459 H454 0.950 . S
C459 C461 1.327 . S
C459 C465 1.429 . S
C460 C452 1.574 . S
C460 H455 0.949 . S
C460 C466 1.368 . S
C461 C445 1.349 . S
C461 H453 0.950 . S
C461 C459 1.327 . S
C462 C450 1.349 . S
C462 H456 0.950 . S
C462 C463 1.327 . S
C463 H457 0.950 . S
C463 C462 1.327 . S
C463 C467 1.429 . S
C464 C447 1.574 . S
C464 H458 0.949 . S
C464 C468 1.368 . S
C465 C446 1.429 . S
C465 C459 1.429 . S
C465 C466 1.523 . S
C466 C447 1.368 . S
C466 C460 1.368 . S
C466 C465 1.523 . S
C467 C451 1.429 . S
C467 C463 1.429 . S
C467 C468 1.523 . S
C468 C452 1.368 . S
C468 C464 1.368 . S
C468 C467 1.523 . S
H469 C444 0.950 . S
H470 C446 0.950 . S
H471 C447 0.949 . S
H472 C449 0.950 . S
H473 C451 0.950 . S
C474 C475 1.349 . S
C474 C476 1.327 . S
C474 H499 0.950 . S
C475 C474 1.349 . S
C475 C491 1.349 . S
C476 C474 1.327 . S
C476 C495 1.429 . S
C476 H500 0.950 . S
C477 C494 1.574 . S
C477 C496 1.368 . S
C477 H501 0.949 . S
H478 C482 0.949 . S
C479 C480 1.349 . S
C479 C481 1.327 . S
C479 H502 0.950 . S
C480 C479 1.349 . S
C480 C492 1.349 . S
C481 C479 1.327 . S
C481 C497 1.429 . S
C481 H503 0.950 . S
C482 H478 0.949 . S
C482 C490 1.574 . S
C482 C498 1.368 . S
H483 C491 0.950 . S
H484 C489 0.950 . S
H485 C490 0.949 . S
H486 C492 0.950 . S
H487 C493 0.950 . S
H488 C494 0.949 . S
C489 H484 0.950 . S
C489 C491 1.327 . S
C489 C495 1.429 . S
C490 C482 1.574 . S
C490 H485 0.949 . S
C490 C496 1.368 . S
C491 C475 1.349 . S
C491 H483 0.950 . S
C491 C489 1.327 . S
C492 C480 1.349 . S
C492 H486 0.950 . S
C492 C493 1.327 . S
C493 H487 0.950 . S
C493 C492 1.327 . S
C493 C497 1.429 . S
C494 C477 1.574 . S
C494 H488 0.949 . S
C494 C498 1.368 . S
C495 C476 1.429 . S
C495 C489 1.429 . S
C495 C496 1.523 . S
C496 C477 1.368 . S
C496 C490 1.368 . S
C496 C495 1.523 . S
C497 C481 1.429 . S
C497 C493 1.429 . S
C497 C498 1.523 . S
C498 C482 1.368 . S
C498 C494 1.368 . S
C498 C497 1.523 . S
H499 C474 0.950 . S
H500 C476 0.950 . S
H501 C477 0.949 . S
H502 C479 0.950 . S
H503 C481 0.950 . S
C504 C505 1.349 . S
C504 C506 1.327 . S
C504 H529 0.950 . S
C505 C504 1.349 . S
C505 C521 1.349 . S
C506 C504 1.327 . S
C506 C525 1.429 . S
C506 H530 0.950 . S
C507 C524 1.574 . S
C507 C526 1.368 . S
C507 H531 0.949 . S
H508 C512 0.949 . S
C509 C510 1.349 . S
C509 C511 1.327 . S
C509 H532 0.950 . S
C510 C509 1.349 . S
C510 C522 1.349 . S
C511 C509 1.327 . S
C511 C527 1.429 . S
C511 H533 0.950 . S
C512 H508 0.949 . S
C512 C520 1.574 . S
C512 C528 1.368 . S
H513 C521 0.950 . S
H514 C519 0.950 . S
H515 C520 0.949 . S
H516 C522 0.950 . S
H517 C523 0.950 . S
H518 C524 0.949 . S
C519 H514 0.950 . S
C519 C521 1.327 . S
C519 C525 1.429 . S
C520 C512 1.574 . S
C520 H515 0.949 . S
C520 C526 1.368 . S
C521 C505 1.349 . S
C521 H513 0.950 . S
C521 C519 1.327 . S
C522 C510 1.349 . S
C522 H516 0.950 . S
C522 C523 1.327 . S
C523 H517 0.950 . S
C523 C522 1.327 . S
C523 C527 1.429 . S
C524 C507 1.574 . S
C524 H518 0.949 . S
C524 C528 1.368 . S
C525 C506 1.429 . S
C525 C519 1.429 . S
C525 C526 1.523 . S
C526 C507 1.368 . S
C526 C520 1.368 . S
C526 C525 1.523 . S
C527 C511 1.429 . S
C527 C523 1.429 . S
C527 C528 1.523 . S
C528 C512 1.368 . S
C528 C524 1.368 . S
C528 C527 1.523 . S
H529 C504 0.950 . S
H530 C506 0.950 . S
H531 C507 0.949 . S
H532 C509 0.950 . S
H533 C511 0.950 . S
C534 C535 1.349 . S
C534 C536 1.327 . S
C534 H559 0.950 . S
C535 C534 1.349 . S
C535 C551 1.349 1_455 S
C536 C534 1.327 . S
C536 C555 1.429 . S
C536 H560 0.950 . S
C537 C554 1.574 . S
C537 C556 1.368 1_655 S
C537 H561 0.949 . S
H538 C542 0.949 . S
C539 C540 1.349 1_655 S
C539 C541 1.327 . S
C539 H562 0.950 . S
C540 C539 1.349 1_455 S
C540 C552 1.349 . S
C541 C539 1.327 . S
C541 C557 1.429 1_655 S
C541 H563 0.950 . S
C542 H538 0.949 . S
C542 C550 1.574 . S
C542 C558 1.368 . S
H543 C551 0.950 . S
H544 C549 0.950 . S
H545 C550 0.949 . S
H546 C552 0.950 . S
H547 C553 0.950 . S
H548 C554 0.947 . S
C549 H544 0.950 . S
C549 C551 1.327 . S
C549 C555 1.429 1_655 S
C550 C542 1.574 . S
C550 H545 0.949 . S
C550 C556 1.368 . S
C551 C535 1.349 1_655 S
C551 H543 0.950 . S
C551 C549 1.327 . S
C552 C540 1.349 . S
C552 H546 0.950 . S
C552 C553 1.327 . S
C553 H547 0.950 . S
C553 C552 1.327 . S
C553 C557 1.429 . S
C554 C537 1.574 . S
C554 H548 0.947 . S
C554 C558 1.368 1_655 S
C555 C536 1.429 . S
C555 C549 1.429 1_455 S
C555 C556 1.523 . S
C556 C537 1.368 1_455 S
C556 C550 1.368 . S
C556 C555 1.523 . S
C557 C541 1.429 1_455 S
C557 C553 1.429 . S
C557 C558 1.523 1_556 S
C558 C542 1.368 . S
C558 C554 1.368 1_455 S
C558 C557 1.523 1_554 S
H559 C534 0.950 . S
H560 C536 0.950 . S
H561 C537 0.949 . S
H562 C539 0.950 . S
H563 C541 0.950 . S
C564 C565 1.349 . S
C564 C566 1.327 . S
C564 H589 0.950 . S
C565 C564 1.349 . S
C565 C581 1.349 . S
C566 C564 1.327 . S
C566 C585 1.429 . S
C566 H590 0.950 . S
C567 C584 1.572 1_545 S
C567 C586 1.368 . S
C567 H591 0.949 1_545 S
H568 C572 0.949 . S
C569 C570 1.349 1_565 S
C569 C571 1.327 . S
C569 H592 0.950 . S
C570 C569 1.349 1_545 S
C570 C582 1.349 . S
C571 C569 1.327 . S
C571 C587 1.429 1_565 S
C571 H593 0.950 . S
C572 H568 0.949 . S
C572 C580 1.574 . S
C572 C588 1.368 . S
H573 C581 0.950 1_565 S
H574 C579 0.950 1_565 S
H575 C580 0.949 . S
H576 C582 0.950 . S
H577 C583 0.950 . S
H578 C584 0.963 . S
C579 H574 0.950 1_545 S
C579 C581 1.327 . S
C579 C585 1.429 . S
C580 C572 1.574 . S
C580 H575 0.949 . S
C580 C586 1.368 . S
C581 C565 1.349 . S
C581 H573 0.950 1_545 S
C581 C579 1.327 . S
C582 C570 1.349 . S
C582 H576 0.950 . S
C582 C583 1.327 . S
C583 H577 0.950 . S
C583 C582 1.327 . S
C583 C587 1.429 . S
C584 C567 1.572 1_565 S
C584 H578 0.963 . S
C584 C588 1.356 1_565 S
C585 C566 1.429 . S
C585 C579 1.429 . S
C585 C586 1.523 . S
C586 C567 1.368 . S
C586 C580 1.368 . S
C586 C585 1.523 . S
C587 C571 1.429 1_545 S
C587 C583 1.429 . S
C587 C588 1.523 . S
C588 C572 1.368 . S
C588 C584 1.356 1_545 S
C588 C587 1.523 . S
H589 C564 0.950 . S
H590 C566 0.950 . S
H591 C567 0.949 1_565 S
H592 C569 0.950 . S
H593 C571 0.950 . S
C594 C595 1.349 . S
C594 C596 1.327 . S
C594 H619 0.950 . S
C595 C594 1.349 . S
C595 C611 1.349 . S
C596 C594 1.327 . S
C596 C615 1.429 . S
C596 H620 0.950 . S
C597 C614 1.574 . S
C597 C616 1.368 . S
C597 H621 0.949 . S
H598 C602 0.949 . S
C599 C600 1.349 . S
C599 C601 1.327 . S
C599 H622 0.950 . S
C600 C599 1.349 . S
C600 C612 1.349 . S
C601 C599 1.327 . S
C601 C617 1.429 . S
C601 H623 0.950 . S
C602 H598 0.949 . S
C602 C610 1.574 . S
C602 C618 1.368 . S
H603 C611 0.950 . S
H604 C609 0.950 . S
H605 C610 0.949 . S
H606 C612 0.950 . S
H607 C613 0.950 . S
H608 C614 0.949 . S
C609 H604 0.950 . S
C609 C611 1.327 . S
C609 C615 1.429 . S
C610 C602 1.574 . S
C610 H605 0.949 . S
C610 C616 1.368 . S
C611 C595 1.349 . S
C611 H603 0.950 . S
C611 C609 1.327 . S
C612 C600 1.349 . S
C612 H606 0.950 . S
C612 C613 1.327 . S
C613 H607 0.950 . S
C613 C612 1.327 . S
C613 C617 1.429 . S
C614 C597 1.574 . S
C614 H608 0.949 . S
C614 C618 1.368 . S
C615 C596 1.429 . S
C615 C609 1.429 . S
C615 C616 1.523 . S
C616 C597 1.368 . S
C616 C610 1.368 . S
C616 C615 1.523 . S
C617 C601 1.429 . S
C617 C613 1.429 . S
C617 C618 1.523 . S
C618 C602 1.368 . S
C618 C614 1.368 . S
C618 C617 1.523 . S
H619 C594 0.950 . S
H620 C596 0.950 . S
H621 C597 0.949 . S
H622 C599 0.950 . S
H623 C601 0.950 . S
C624 C625 1.349 . S
C624 C626 1.327 1_545 S
C624 H649 0.950 1_545 S
C625 C624 1.349 . S
C625 C641 1.349 . S
C626 C624 1.327 1_565 S
C626 C645 1.424 1_565 S
C626 H650 0.955 . S
C627 C644 1.574 . S
C627 C646 1.368 . S
C627 H651 0.949 . S
H628 C632 0.949 . S
C629 C630 1.349 . S
C629 C631 1.327 . S
C629 H652 0.950 . S
C630 C629 1.349 . S
C630 C642 1.349 1_545 S
C631 C629 1.327 . S
C631 C647 1.429 . S
C631 H653 0.950 . S
C632 H628 0.949 . S
C632 C640 1.574 . S
C632 C648 1.368 1_565 S
H633 C641 0.950 . S
H634 C639 0.950 . S
H635 C640 0.949 . S
H636 C642 0.950 . S
H637 C643 0.950 . S
H638 C644 0.949 . S
C639 H634 0.950 . S
C639 C641 1.327 . S
C639 C645 1.429 . S
C640 C632 1.574 . S
C640 H635 0.949 . S
C640 C646 1.368 1_565 S
C641 C625 1.349 . S
C641 H633 0.950 . S
C641 C639 1.327 . S
C642 C630 1.349 1_565 S
C642 H636 0.950 . S
C642 C643 1.327 . S
C643 H637 0.950 . S
C643 C642 1.327 . S
C643 C647 1.429 1_565 S
C644 C627 1.574 . S
C644 H638 0.949 . S
C644 C648 1.368 . S
C645 C626 1.424 1_545 S
C645 C639 1.429 . S
C645 C646 1.523 . S
C646 C627 1.368 . S
C646 C640 1.368 1_545 S
C646 C645 1.523 . S
C647 C631 1.429 . S
C647 C643 1.429 1_545 S
C647 C648 1.523 . S
C648 C632 1.368 1_545 S
C648 C644 1.368 . S
C648 C647 1.523 . S
H649 C624 0.950 1_565 S
H650 C626 0.955 . S
H651 C627 0.949 . S
H652 C629 0.950 . S
H653 C631 0.950 . S
C654 C655 1.349 . S
C654 C656 1.327 . S
C654 H679 0.950 . S
C655 C654 1.349 . S
C655 C671 1.349 . S
C656 C654 1.327 . S
C656 C675 1.429 . S
C656 H680 0.950 . S
C657 C674 1.574 . S
C657 C676 1.368 . S
C657 H681 0.949 . S
H658 C662 0.949 . S
C659 C660 1.349 . S
C659 C661 1.327 . S
C659 H682 0.950 . S
C660 C659 1.349 . S
C660 C672 1.349 . S
C661 C659 1.327 . S
C661 C677 1.429 . S
C661 H683 0.950 . S
C662 H658 0.949 . S
C662 C670 1.574 . S
C662 C678 1.368 . S
H663 C671 0.950 . S
H664 C669 0.950 . S
H665 C670 0.949 . S
H666 C672 0.950 . S
H667 C673 0.950 . S
H668 C674 0.949 . S
C669 H664 0.950 . S
C669 C671 1.327 . S
C669 C675 1.429 . S
C670 C662 1.574 . S
C670 H665 0.949 . S
C670 C676 1.368 . S
C671 C655 1.349 . S
C671 H663 0.950 . S
C671 C669 1.327 . S
C672 C660 1.349 . S
C672 H666 0.950 . S
C672 C673 1.327 . S
C673 H667 0.950 . S
C673 C672 1.327 . S
C673 C677 1.429 . S
C674 C657 1.574 . S
C674 H668 0.949 . S
C674 C678 1.368 . S
C675 C656 1.429 . S
C675 C669 1.429 . S
C675 C676 1.523 . S
C676 C657 1.368 . S
C676 C670 1.368 . S
C676 C675 1.523 . S
C677 C661 1.429 . S
C677 C673 1.429 . S
C677 C678 1.523 1_554 S
C678 C662 1.368 . S
C678 C674 1.368 . S
C678 C677 1.523 1_556 S
H679 C654 0.950 . S
H680 C656 0.950 . S
H681 C657 0.949 . S
H682 C659 0.950 . S
H683 C661 0.950 . S
C684 C685 1.349 . S
C684 C686 1.327 . S
C684 H709 0.950 . S
C685 C684 1.349 . S
C685 C701 1.349 . S
C686 C684 1.327 . S
C686 C705 1.429 . S
C686 H710 0.950 . S
C687 C704 1.574 . S
C687 C706 1.368 . S
C687 H711 0.949 . S
H688 C692 0.949 . S
C689 C690 1.349 . S
C689 C691 1.327 . S
C689 H712 0.950 1_455 S
C690 C689 1.349 . S
C690 C702 1.349 . S
C691 C689 1.327 . S
C691 C707 1.429 . S
C691 H713 0.950 . S
C692 H688 0.949 . S
C692 C700 1.574 . S
C692 C708 1.368 . S
H693 C701 0.950 . S
H694 C699 0.950 . S
H695 C700 0.949 . S
H696 C702 0.950 . S
H697 C703 0.950 . S
H698 C704 0.949 . S
C699 H694 0.950 . S
C699 C701 1.327 . S
C699 C705 1.429 . S
C700 C692 1.574 . S
C700 H695 0.949 . S
C700 C706 1.368 . S
C701 C685 1.349 . S
C701 H693 0.950 . S
C701 C699 1.327 . S
C702 C690 1.349 . S
C702 H696 0.950 . S
C702 C703 1.327 . S
C703 H697 0.950 . S
C703 C702 1.327 . S
C703 C707 1.429 . S
C704 C687 1.574 . S
C704 H698 0.949 . S
C704 C708 1.368 . S
C705 C686 1.429 . S
C705 C699 1.429 . S
C705 C706 1.523 . S
C706 C687 1.368 . S
C706 C700 1.368 . S
C706 C705 1.523 . S
C707 C691 1.429 . S
C707 C703 1.429 . S
C707 C708 1.523 . S
C708 C692 1.368 . S
C708 C704 1.368 . S
C708 C707 1.523 . S
H709 C684 0.950 . S
H710 C686 0.950 . S
H711 C687 0.949 . S
H712 C689 0.950 1_655 S
H713 C691 0.950 . S
C175 C9 0.431 . S
C180 C169 0.365 . S
C205 C49 0.329 . S
C210 C151 0.254 . S
C235 C89 0.308 . S
C240 C163 0.250 . S
C265 C26 0.435 . S
C270 C172 0.288 . S
C300 C154 0.346 . S
C295 C66 0.474 . S
C330 C160 0.389 . S
C325 C106 0.506 . S
C355 C43 2.805 . S
C360 C133 2.791 . S
C385 C83 2.917 . S
C390 C142 2.894 . S
C415 C22 2.968 . S
C420 C124 2.939 . S
C450 C136 2.916 . S
C445 C62 2.949 . S
C480 C145 2.805 . S
C475 C102 2.830 . S
C505 C3 2.788 . S
C510 C127 2.771 . S
C540 C143 1.791 . S
C535 C15 1.730 . S
C565 C55 1.741 . S
C570 C125 1.789 . S
C595 C95 1.738 . S
C600 C134 1.786 . S
C630 C161 1.071 . S
C625 C42 1.053 . S
C660 C170 1.074 . S
C655 C82 1.058 . S
C685 C2 1.054 . S
C690 C152 1.066 . S
