# Generated by pormake.
# Topology zzz, (3,6)-cn, num edge types: 1
# Building blocks:
#     Node 0, Type 0, BuildingBlock: ESEHIV_clean_linker_0, # of connection points: 3
#     Node 1, Type 0, BuildingBlock: ESEHIV_clean_linker_0, # of connection points: 3
#     Node 2, Type 0, BuildingBlock: ESEHIV_clean_linker_0, # of connection points: 3
#     Node 3, Type 0, BuildingBlock: ESEHIV_clean_linker_0, # of connection points: 3
#     Node 4, Type 0, BuildingBlock: ESEHIV_clean_linker_0, # of connection points: 3
#     Node 5, Type 0, BuildingBlock: ESEHIV_clean_linker_0, # of connection points: 3
#     Node 6, Type 0, BuildingBlock: ESEHIV_clean_linker_0, # of connection points: 3
#     Node 7, Type 0, BuildingBlock: ESEHIV_clean_linker_0, # of connection points: 3
#     Node 8, Type 1, BuildingBlock: KUMBOL_clean_sbu_1, # of connection points: 6
#     Node 9, Type 1, BuildingBlock: KUMBOL_clean_sbu_1, # of connection points: 6
#     Node 10, Type 1, BuildingBlock: KUMBOL_clean_sbu_1, # of connection points: 6
#     Node 11, Type 1, BuildingBlock: KUMBOL_clean_sbu_1, # of connection points: 6
#     Edge 12, Type (0, 1), BuildingBlock: XUDNAN_clean_linker_2, # of connection points: 2
#     Edge 13, Type (0, 1), BuildingBlock: XUDNAN_clean_linker_2, # of connection points: 2
#     Edge 14, Type (0, 1), BuildingBlock: XUDNAN_clean_linker_2, # of connection points: 2
#     Edge 15, Type (0, 1), BuildingBlock: XUDNAN_clean_linker_2, # of connection points: 2
#     Edge 16, Type (0, 1), BuildingBlock: XUDNAN_clean_linker_2, # of connection points: 2
#     Edge 17, Type (0, 1), BuildingBlock: XUDNAN_clean_linker_2, # of connection points: 2
#     Edge 18, Type (0, 1), BuildingBlock: XUDNAN_clean_linker_2, # of connection points: 2
#     Edge 19, Type (0, 1), BuildingBlock: XUDNAN_clean_linker_2, # of connection points: 2
#     Edge 20, Type (0, 1), BuildingBlock: XUDNAN_clean_linker_2, # of connection points: 2
#     Edge 21, Type (0, 1), BuildingBlock: XUDNAN_clean_linker_2, # of connection points: 2
#     Edge 22, Type (0, 1), BuildingBlock: XUDNAN_clean_linker_2, # of connection points: 2
#     Edge 23, Type (0, 1), BuildingBlock: XUDNAN_clean_linker_2, # of connection points: 2
#     Edge 24, Type (0, 1), BuildingBlock: XUDNAN_clean_linker_2, # of connection points: 2
#     Edge 25, Type (0, 1), BuildingBlock: XUDNAN_clean_linker_2, # of connection points: 2
#     Edge 26, Type (0, 1), BuildingBlock: XUDNAN_clean_linker_2, # of connection points: 2
#     Edge 27, Type (0, 1), BuildingBlock: XUDNAN_clean_linker_2, # of connection points: 2
#     Edge 28, Type (0, 1), BuildingBlock: XUDNAN_clean_linker_2, # of connection points: 2
#     Edge 29, Type (0, 1), BuildingBlock: XUDNAN_clean_linker_2, # of connection points: 2
#     Edge 30, Type (0, 1), BuildingBlock: XUDNAN_clean_linker_2, # of connection points: 2
#     Edge 31, Type (0, 1), BuildingBlock: XUDNAN_clean_linker_2, # of connection points: 2
#     Edge 32, Type (0, 1), BuildingBlock: XUDNAN_clean_linker_2, # of connection points: 2
#     Edge 33, Type (0, 1), BuildingBlock: XUDNAN_clean_linker_2, # of connection points: 2
#     Edge 34, Type (0, 1), BuildingBlock: XUDNAN_clean_linker_2, # of connection points: 2
#     Edge 35, Type (0, 1), BuildingBlock: XUDNAN_clean_linker_2, # of connection points: 2
# Relax obj value: 0.357
# Max RMSD: 0.204
# Mean RMSD: 0.184
data_MOF--net-zzz--node1-KUMBOL_clean_sbu_1--node2-ESEHIV_clean_linker_0--edge1-XUDNAN_clean_linker_2
_symmetry_space_group_name_H-M    P1
_symmetry_Int_Tables_number       1
_symmetry_cell_setting            triclinic
loop_
_symmetry_equiv_pos_as_xyz
'x, y, z'
_cell_length_a     43.414835
_cell_length_b     43.620896
_cell_length_c     16.263403
_cell_angle_alpha  89.946703
_cell_angle_beta   90.250059
_cell_angle_gamma 90.455299
loop_
_atom_site_label
_atom_site_type_symbol
_atom_site_fract_x
_atom_site_fract_y
_atom_site_fract_z
_atom_type_partial_charge
H0 H 0.80534 0.58496 0.25257 0.0
H1 H 0.72071 0.59201 0.11632 0.0
H2 H 0.734 0.51772 0.2864 0.0
C3 C 0.78201 0.57757 0.23961 0.0
C4 C 0.77063 0.55219 0.2838 0.0
C5 C 0.76536 0.59077 0.17408 0.0
C6 C 0.7351 0.5804 0.16069 0.0
C7 C 0.72414 0.55295 0.19515 0.0
C8 C 0.74194 0.5389 0.25858 0.0
H9 H 0.94639 0.81909 0.2261 0.0
H10 H 0.93809 0.73349 0.10012 0.0
H11 H 1.00484 0.74417 0.29598 0.0
C12 C 0.95304 0.7954 0.21945 0.0
C13 C 0.97561 0.78381 0.27309 0.0
C14 C 0.94071 0.77798 0.1543 0.0
C15 C 0.94851 0.74702 0.14871 0.0
C16 C 0.97255 0.73446 0.19559 0.0
C17 C 0.9861 0.75312 0.25922 0.0
H18 H 0.74588 0.93151 0.29848 0.0
H19 H 0.81731 0.93267 0.11935 0.0
H20 H 0.79705 0.01472 0.25771 0.0
C21 C 0.76449 0.94359 0.26803 0.0
C22 C 0.76819 0.97495 0.28367 0.0
C23 C 0.78049 0.92887 0.20505 0.0
C24 C 0.80552 0.94412 0.16901 0.0
C25 C 0.81311 0.97479 0.18905 0.0
C26 C 0.79339 0.99059 0.2454 0.0
H27 H 0.58488 0.71341 0.24808 0.0
H28 H 0.50352 0.76848 0.22505 0.0
H29 H 0.5868 0.79387 0.09737 0.0
C30 C 0.57349 0.73335 0.22373 0.0
C31 C 0.58924 0.75221 0.16735 0.0
C32 C 0.54261 0.73834 0.24576 0.0
C33 C 0.52755 0.76446 0.21152 0.0
C34 C 0.54374 0.78507 0.1583 0.0
C35 C 0.57465 0.77884 0.13941 0.0
H36 H 0.22286 0.56886 0.13137 0.0
H37 H 0.30844 0.56644 0.25981 0.0
H38 H 0.2806 0.48922 0.11014 0.0
C39 C 0.24457 0.55751 0.14252 0.0
C40 C 0.24984 0.52866 0.10666 0.0
C41 C 0.26549 0.57102 0.19754 0.0
C42 C 0.29262 0.55567 0.21684 0.0
C43 C 0.29844 0.52587 0.18861 0.0
C44 C 0.27662 0.51213 0.133 0.0
H45 H 0.10817 0.24201 0.09343 0.0
H46 H 0.09297 0.31348 0.2698 0.0
H47 H 0.02457 0.29464 0.08527 0.0
C48 C 0.09411 0.26019 0.11796 0.0
C49 C 0.06524 0.26549 0.08115 0.0
C50 C 0.10402 0.27624 0.18848 0.0
C51 C 0.08639 0.30117 0.21477 0.0
C52 C 0.05828 0.30897 0.17811 0.0
C53 C 0.04687 0.29004 0.1124 0.0
H54 H 0.32425 0.06869 0.10486 0.0
H55 H 0.25324 0.07142 0.28446 0.0
H56 H 0.24341 0.01211 0.07229 0.0
C57 C 0.30101 0.06229 0.1225 0.0
C58 C 0.28504 0.04037 0.07567 0.0
C59 C 0.28975 0.07351 0.19682 0.0
C60 C 0.26103 0.06352 0.22491 0.0
C61 C 0.24342 0.04183 0.18036 0.0
C62 C 0.25603 0.02955 0.10603 0.0
H63 H 0.4426 0.30568 0.14658 0.0
H64 H 0.50113 0.22962 0.0911 0.0
H65 H 0.43197 0.22181 0.28008 0.0
C66 C 0.44881 0.28205 0.15716 0.0
C67 C 0.43639 0.26608 0.22453 0.0
C68 C 0.47109 0.26908 0.10571 0.0
C69 C 0.48208 0.23906 0.12525 0.0
C70 C 0.46915 0.22233 0.19282 0.0
C71 C 0.44381 0.23513 0.23355 0.0
C72 C 0.08941 0.05407 0.86699 0.0
C73 C 0.06251 0.0594 0.99662 0.0
C74 C 0.06516 0.04577 0.91832 0.0
C75 C 0.08367 0.08222 0.02091 0.0
C76 C 0.11118 0.07633 0.89209 0.0
C77 C 0.10789 0.0907 0.96876 0.0
N78 N 0.09147 0.04058 0.79174 0.0
C79 C 0.11635 0.04584 0.74242 0.0
C80 C 0.13577 0.08328 0.83959 0.0
C81 C 0.13859 0.06766 0.765 0.0
Gd82 Gd 0.999 0.04543 0.59909 0.0
Gd83 Gd 0.0526 1.00495 0.75875 0.0
N84 N 0.045 0.02354 0.89325 0.0
C85 C 0.03917 0.0491 0.04917 0.0
C86 C 0.02396 0.01168 0.9471 0.0
C87 C 0.02019 0.02475 0.02485 0.0
H88 H 1.01049 0.99165 0.93138 0.0
H89 H 1.00299 0.01566 0.06648 0.0
H90 H 0.03341 0.02902 0.4231 0.0
H91 H 0.11852 0.03371 0.68486 0.0
H92 H 0.02111 1.00484 0.28939 0.0
H93 H 0.03636 0.05901 0.10973 0.0
H94 H 0.08186 0.09303 0.08064 0.0
H95 H 0.93052 0.05982 0.68682 0.0
H96 H 0.15297 0.10027 0.8567 0.0
H97 H 0.15787 0.07244 0.72489 0.0
H98 H 0.91367 0.97867 0.3104 0.0
H99 H 0.12425 0.10805 0.98887 0.0
H100 H 0.85998 0.01373 0.54927 0.0
H101 H 0.87609 0.04484 0.66937 0.0
N102 N 0.9459 0.03465 0.58304 0.0
C103 C 0.93725 0.01884 0.51482 0.0
C104 C 0.92416 0.04494 0.63657 0.0
C105 C 0.8841 0.01947 0.55804 0.0
C106 C 0.89311 0.037 0.62593 0.0
C107 C 0.90616 1.0108 0.50027 0.0
H108 H 0.87426 0.98894 0.41516 0.0
N109 N 0.98856 0.02207 0.47172 0.0
C110 C 0.95928 0.01272 0.45656 0.0
C111 C 0.97373 0.99576 0.32081 0.0
C112 C 0.95108 0.99887 0.38119 0.0
C113 C 1.0105 0.02016 0.41204 0.0
C114 C 1.00355 1.00665 0.33614 0.0
O115 O 0.05501 0.05661 0.72883 0.0
O116 O 1.00545 0.06983 0.72146 0.0
O117 O 0.02306 0.08054 0.53213 0.0
O118 O 0.97488 0.08688 0.56056 0.0
O119 O 1.00153 0.99713 0.78704 0.0
O120 O 0.97978 0.04016 0.72941 0.0
O121 O 1.00847 0.9948 0.57123 0.0
O122 O 0.01617 0.97357 0.69901 0.0
O123 O 0.07144 0.97614 0.85481 0.0
O124 O 0.08751 0.9711 0.73046 0.0
O125 O 0.05087 0.04461 0.57123 0.0
O126 O 0.06924 1.00031 0.62808 0.0
C127 C 0.0331 0.07578 0.74922 0.0
C128 C 0.97921 0.01751 0.78345 0.0
C129 C 1.00895 0.13031 0.57021 0.0
C130 C 0.04787 0.17129 0.58142 0.0
C131 C 0.9964 0.178 0.63821 0.0
C132 C 0.98761 0.14886 0.61073 0.0
C133 C 0.02601 0.18944 0.62238 0.0
C134 C 0.03923 0.14115 0.55997 0.0
C135 C 1.00047 0.09986 0.53642 0.0
C136 C 0.92041 0.98962 0.36758 0.0
C137 C 0.89799 0.99547 0.42724 0.0
H138 H 0.96831 0.98554 0.26174 0.0
C139 C 1.00995 0.97055 0.61961 0.0
C140 C 0.06966 0.021 0.5696 0.0
C141 C 0.08027 0.92656 0.80787 0.0
C142 C 0.0421 0.88576 0.82442 0.0
C143 C 0.09658 0.8737 0.80986 0.0
C144 C 0.10379 0.9049 0.80399 0.0
C145 C 0.06603 0.86412 0.82088 0.0
C146 C 0.04964 0.91689 0.81586 0.0
C147 C 0.08703 0.95941 0.80394 0.0
H148 H 0.97982 0.19227 0.66928 0.0
H149 H 0.96421 0.14097 0.62082 0.0
H150 H 0.03104 0.21287 0.63964 0.0
H151 H 0.05596 0.12594 0.53332 0.0
H152 H 0.11479 0.85691 0.80764 0.0
H153 H 0.12758 0.9121 0.79703 0.0
H154 H 0.06147 0.8399 0.82919 0.0
H155 H 0.03168 0.93396 0.81679 0.0
C156 C 0.48088 0.90514 0.59337 0.0
C157 C 0.4262 0.91075 0.56693 0.0
C158 C 0.45596 0.9236 0.57464 0.0
C159 C 0.42175 0.87926 0.58124 0.0
C160 C 0.47674 0.87333 0.60471 0.0
C161 C 0.44696 0.86059 0.60006 0.0
N162 N 0.50936 0.9181 0.59721 0.0
C163 C 0.53495 0.90044 0.60648 0.0
C164 C 0.50274 0.85523 0.61874 0.0
C165 C 0.53201 0.8688 0.61859 0.0
Gd166 Gd 0.53433 0.03269 0.74994 0.0
Gd167 Gd 0.51168 0.97148 0.58324 0.0
N168 N 0.46106 0.9539 0.5606 0.0
C169 C 0.40191 0.92985 0.5436 0.0
C170 C 0.4378 0.97231 0.53341 0.0
C171 C 0.4078 0.96069 0.52615 0.0
H172 H 0.44216 0.99629 0.52115 0.0
H173 H 0.38917 0.97554 0.50784 0.0
H174 H 0.5721 0.09049 0.65853 0.0
H175 H 0.5576 0.91094 0.6059 0.0
H176 H 0.57009 0.14706 0.65272 0.0
H177 H 0.37865 0.92091 0.53756 0.0
H178 H 0.399 0.86901 0.5763 0.0
H179 H 0.49266 0.01167 0.91366 0.0
H180 H 0.50052 0.8307 0.6279 0.0
H181 H 0.55229 0.85491 0.62764 0.0
H182 H 0.49476 0.17348 0.8556 0.0
H183 H 0.44327 0.83624 0.60932 0.0
H184 H 0.45253 0.0918 0.01869 0.0
H185 H 0.45964 0.03561 0.01822 0.0
N186 N 0.5029 0.0537 0.85268 0.0
C187 C 0.49995 0.0846 0.85333 0.0
C188 C 0.48937 0.03615 0.91233 0.0
C189 C 0.46674 0.08138 0.97194 0.0
C190 C 0.47078 0.04965 0.97204 0.0
C191 C 0.48158 0.09932 0.91247 0.0
H192 H 0.46517 0.14317 0.95627 0.0
N193 N 0.53605 0.08658 0.74617 0.0
C194 C 0.51687 0.1016 0.79762 0.0
C195 C 0.53444 0.15032 0.74396 0.0
C196 C 0.51555 0.13389 0.7982 0.0
C197 C 0.55578 0.10252 0.69649 0.0
C198 C 0.55488 0.13455 0.69349 0.0
O199 O 0.53499 0.95372 0.69814 0.0
O200 O 0.51602 0.98621 0.79502 0.0
O201 O 0.57058 1.00373 0.79859 0.0
O202 O 0.56692 0.05118 0.83827 0.0
O203 O 0.47171 0.983 0.66952 0.0
O204 O 0.48218 0.02809 0.74122 0.0
O205 O 0.53369 0.05008 0.61811 0.0
O206 O 0.49534 0.02056 0.56063 0.0
O207 O 0.51176 0.9471 0.46636 0.0
O208 O 0.53613 0.99019 0.47882 0.0
O209 O 0.56656 0.02762 0.64103 0.0
O210 O 0.56245 0.9761 0.61784 0.0
C211 C 0.52398 0.95845 0.77203 0.0
C212 C 0.46327 1.00587 0.71781 0.0
C213 C 0.58357 0.01463 0.93676 0.0
C214 C 0.60814 0.98004 0.03521 0.0
C215 C 0.57427 0.02052 0.08286 0.0
C216 C 0.56923 0.02997 1.00196 0.0
C217 C 0.59364 0.99585 0.09963 0.0
C218 C 0.60245 0.98949 0.95375 0.0
C219 C 0.57981 0.02464 0.85072 0.0
C220 C 0.4962 0.14869 0.85444 0.0
C221 C 0.47934 0.13144 0.91174 0.0
H222 H 0.53401 0.17515 0.74215 0.0
C223 C 0.51236 0.04577 0.5616 0.0
C224 C 0.57838 1.00192 0.6134 0.0
C225 C 0.51372 0.97959 0.35105 0.0
C226 C 0.47828 0.01404 0.28118 0.0
C227 C 0.5163 0.9857 0.20318 0.0
C228 C 0.52742 0.97246 0.27571 0.0
C229 C 0.49223 1.00683 0.20585 0.0
C230 C 0.48862 0.99945 0.35293 0.0
C231 C 0.527 0.96868 0.42862 0.0
H232 H 0.56335 0.03257 0.13293 0.0
H233 H 0.55432 0.04933 0.99069 0.0
H234 H 0.59759 0.98966 0.16312 0.0
H235 H 0.61272 0.97733 0.9028 0.0
H236 H 0.52665 0.97999 0.14488 0.0
H237 H 0.54688 0.95709 0.27314 0.0
H238 H 0.48437 0.01721 0.14915 0.0
H239 H 0.47855 1.00518 0.41155 0.0
C240 C 0.40489 0.52608 0.82535 0.0
C241 C 0.39759 0.49528 0.94737 0.0
C242 C 0.41693 0.50828 0.88694 0.0
C243 C 0.36557 0.49926 0.94152 0.0
C244 C 0.37292 0.53138 0.82085 0.0
C245 C 0.35322 0.51725 0.8781 0.0
N246 N 0.42482 0.54008 0.77342 0.0
C247 C 0.41434 0.56122 0.71804 0.0
C248 C 0.36192 0.55161 0.76093 0.0
C249 C 0.38279 0.56688 0.70992 0.0
Gd250 Gd 0.53716 0.49223 0.62991 0.0
Gd251 Gd 0.47764 0.52777 0.78505 0.0
N252 N 0.44791 0.50569 0.89131 0.0
C253 C 0.41115 0.47979 1.01346 0.0
C254 C 0.46131 0.492 0.95786 0.0
C255 C 0.44322 0.47854 0.0193 0.0
H256 H 0.48605 0.49131 0.96349 0.0
H257 H 0.45401 0.46749 0.07145 0.0
H258 H 0.49619 0.45148 0.48577 0.0
H259 H 0.43024 0.57354 0.67904 0.0
H260 H 0.48831 0.45173 0.33668 0.0
H261 H 0.39716 0.46963 0.06148 0.0
H262 H 0.35027 0.48931 0.98696 0.0
H263 H 0.60026 0.53431 0.66237 0.0
H264 H 0.33752 0.55628 0.75523 0.0
H265 H 0.37464 0.58317 0.66473 0.0
H266 H 0.56136 0.52571 0.23725 0.0
H267 H 0.32857 0.52086 0.87543 0.0
H268 H 0.63149 0.57026 0.43224 0.0
H269 H 0.63719 0.56573 0.58321 0.0
N270 N 0.57329 0.52205 0.55788 0.0
C271 C 0.57045 0.52326 0.47491 0.0
C272 C 0.59734 0.53639 0.59673 0.0
C273 C 0.61514 0.55653 0.46682 0.0
C274 C 0.6184 0.55409 0.552 0.0
C275 C 0.59111 0.54084 0.42707 0.0
H276 H 0.60258 0.55583 0.30373 0.0
N277 N 0.52938 0.48782 0.48559 0.0
C278 C 0.54745 0.50605 0.43769 0.0
C279 C 0.52208 0.48716 0.31491 0.0
C280 C 0.54423 0.5063 0.3512 0.0
C281 C 0.50927 0.46755 0.44945 0.0
C282 C 0.50484 0.46737 0.36425 0.0
O283 O 0.48922 0.47743 0.80812 0.0
O284 O 0.50086 0.45861 0.68026 0.0
O285 O 0.57144 0.46187 0.57944 0.0
O286 O 0.5626 0.46124 0.70999 0.0
O287 O 0.51937 0.50276 0.83519 0.0
O288 O 0.55496 0.51808 0.74277 0.0
O289 O 0.53278 0.54435 0.62266 0.0
O290 O 0.483 0.55347 0.66374 0.0
O291 O 0.51196 0.56389 0.79863 0.0
O292 O 0.47194 0.56289 0.87796 0.0
O293 O 0.48666 0.48179 0.59951 0.0
O294 O 0.45684 0.51967 0.65734 0.0
C295 C 0.49347 0.45409 0.75809 0.0
C296 C 0.54783 0.5109 0.81885 0.0
C297 C 0.57073 0.41424 0.64409 0.0
C298 C 0.53785 0.37189 0.59764 0.0
C299 C 0.58749 0.36194 0.66279 0.0
C300 C 0.59282 0.39344 0.67173 0.0
C301 C 0.56034 0.35114 0.62547 0.0
C302 C 0.54334 0.40336 0.60893 0.0
C303 C 0.5758 0.44747 0.64863 0.0
C304 C 0.56379 0.5249 0.30353 0.0
C305 C 0.58729 0.54201 0.34135 0.0
H306 H 0.51881 0.48677 0.24881 0.0
C307 C 0.50765 0.56115 0.62109 0.0
C308 C 0.46187 0.49904 0.59984 0.0
C309 C 0.52024 0.57673 0.93787 0.0
C310 C 0.56985 0.59411 0.99569 0.0
C311 C 0.53061 0.5703 0.08327 0.0
C312 C 0.51085 0.56702 1.01617 0.0
C313 C 0.5595 0.5841 0.07379 0.0
C314 C 0.55 0.589 0.92776 0.0
C315 C 0.49948 0.57416 0.86575 0.0
H316 H 0.60468 0.34582 0.68364 0.0
H317 H 0.61414 0.40152 0.69931 0.0
H318 H 0.55748 0.32669 0.617 0.0
H319 H 0.52634 0.41985 0.58978 0.0
H320 H 0.52317 0.56288 0.1436 0.0
H321 H 0.4883 0.5569 0.0258 0.0
H322 H 0.57279 0.5876 0.12922 0.0
H323 H 0.55701 0.59482 0.86612 0.0
C324 C 0.024 0.45916 0.91685 0.0
C325 C 0.01826 0.48971 0.03988 0.0
C326 C 1.01158 0.48424 0.95626 0.0
C327 C 0.03953 0.47102 0.08094 0.0
C328 C 0.04295 0.43853 0.96011 0.0
C329 C 0.05158 0.4452 0.04152 0.0
N330 N 0.01582 0.45382 0.83755 0.0
C331 C 0.02322 0.42691 0.79998 0.0
C332 C 0.05196 0.41151 0.92077 0.0
C333 C 0.04159 0.40543 0.84082 0.0
Gd334 Gd 0.02717 0.54661 0.61557 0.0
Gd335 Gd 0.98608 0.4915 0.77282 0.0
N336 N 0.99067 0.50145 0.91505 0.0
C337 C 1.00215 0.51274 0.08078 0.0
C338 C 0.97247 0.52141 0.95714 0.0
C339 C 0.97848 0.528 0.03984 0.0
H340 H 0.95341 0.53248 0.92687 0.0
H341 H 0.96464 0.54455 0.07219 0.0
H342 H 0.03303 0.51029 0.43556 0.0
H343 H 0.01537 0.4223 0.73804 0.0
H344 H 1.00755 0.51053 0.29977 0.0
H345 H 1.00661 0.51769 0.14501 0.0
H346 H 0.0458 0.47575 0.14409 0.0
H347 H 1.00273 0.61219 0.71247 0.0
H348 H 0.06635 0.39496 0.95206 0.0
H349 H 0.04792 0.38435 0.81046 0.0
H350 H 0.93459 0.59228 0.31758 0.0
H351 H 0.06683 0.43011 0.0751 0.0
H352 H 0.93172 0.65103 0.56536 0.0
H353 H 0.96282 0.65068 0.69287 0.0
N354 N 0.99137 0.58702 0.60382 0.0
C355 C 0.97612 0.58825 0.53019 0.0
C356 C 0.98789 0.61011 0.65972 0.0
C357 C 0.94849 0.6331 0.57511 0.0
C358 C 0.96585 0.63285 0.64741 0.0
C359 C 0.95412 0.61122 0.51439 0.0
H360 H 0.92224 0.62981 0.42477 0.0
N361 N 1.00516 0.54574 0.48417 0.0
C362 C 0.98345 0.56733 0.46856 0.0
C363 C 0.97714 0.54761 0.33045 0.0
C364 C 0.96864 0.5686 0.39125 0.0
C365 C 0.01454 0.52613 0.42414 0.0
C366 C 1.00037 0.52646 0.34682 0.0
O367 O 0.03859 0.48719 0.76014 0.0
O368 O 0.05394 0.53625 0.73265 0.0
O369 O 0.07431 0.54727 0.56943 0.0
O370 O 0.04606 0.5876 0.56022 0.0
O371 O 0.9811 0.54273 0.80127 0.0
O372 O 0.02496 0.56438 0.74784 0.0
O373 O 0.98218 0.52197 0.58475 0.0
O374 O 0.95877 0.52811 0.70582 0.0
O375 O 0.95072 0.46818 0.84366 0.0
O376 O 0.95137 0.46337 0.71172 0.0
O377 O 0.03669 0.49627 0.58187 0.0
O378 O 0.99837 0.46893 0.65077 0.0
C379 C 0.05928 0.50939 0.7661 0.0
C380 C 1.00347 0.5633 0.80504 0.0
C381 C 0.09711 0.59594 0.59517 0.0
C382 C 0.13966 0.63229 0.58474 0.0
C383 C 0.11767 0.62062 0.71793 0.0
C384 C 0.09648 0.60073 0.68056 0.0
C385 C 0.13948 0.63617 0.67034 0.0
C386 C 0.11846 0.61205 0.54752 0.0
C387 C 0.07362 0.57668 0.55487 0.0
C388 C 0.94623 0.59096 0.37657 0.0
C389 C 0.93912 0.61227 0.43777 0.0
H390 H 0.96633 0.5479 0.27026 0.0
C391 C 0.95673 0.52629 0.62566 0.0
C392 C 0.01898 0.47148 0.59117 0.0
C393 C 0.90355 0.46981 0.77387 0.0
C394 C 0.86639 0.51105 0.79343 0.0
C395 C 0.84942 0.45979 0.75117 0.0
C396 C 0.87978 0.44954 0.75261 0.0
C397 C 0.84264 0.49004 0.77263 0.0
C398 C 0.89691 0.50055 0.79098 0.0
C399 C 0.93552 0.45945 0.77852 0.0
H400 H 0.11722 0.62392 0.78388 0.0
H401 H 0.07936 0.58949 0.71813 0.0
H402 H 0.15617 0.65111 0.70005 0.0
H403 H 0.11888 0.60848 0.48152 0.0
H404 H 0.83094 0.444 0.73565 0.0
H405 H 0.88465 0.42585 0.73794 0.0
H406 H 0.81862 0.49622 0.77555 0.0
H407 H 0.91584 0.51593 0.80435 0.0
H408 H 0.19793 0.07771 0.2467 0.0
H409 H 0.22157 0.98266 0.20578 0.0
H410 H 0.17777 0.96655 0.29413 0.0
H411 H 0.18074 0.06912 0.45596 0.0
H412 H 0.15006 0.09658 0.45659 0.0
H413 H 0.18085 0.10003 0.38272 0.0
H414 H 0.14041 0.09905 0.26214 0.0
H415 H 0.10964 0.09574 0.3361 0.0
H416 H 0.1134 0.06762 0.25592 0.0
H417 H 0.1345 0.96164 0.40373 0.0
H418 H 0.09464 0.96802 0.51052 0.0
H419 H 0.09863 0.06654 0.47718 0.0
C420 C 0.1935 0.05341 0.25447 0.0
C421 C 0.21333 0.03147 0.21819 0.0
C422 C 0.20663 0.99997 0.23117 0.0
C423 C 0.18186 0.99064 0.28213 0.0
C424 C 0.1636 0.01301 0.31941 0.0
C425 C 0.16893 0.04377 0.30485 0.0
C426 C 0.14735 0.06347 0.35542 0.0
C427 C 0.16581 0.08354 0.41615 0.0
C428 C 0.12648 0.08265 0.29909 0.0
C429 C 0.12884 0.03928 0.40112 0.0
C430 C 0.1387 1.01022 0.38019 0.0
C431 C 0.12647 0.98433 0.41915 0.0
C432 C 0.10385 0.98823 0.48032 0.0
C433 C 0.09314 0.01778 0.50237 0.0
C434 C 0.10579 0.04359 0.46116 0.0
H435 H 0.47441 0.2085 0.35746 0.0
H436 H 0.49454 0.17036 0.11751 0.0
H437 H 0.51034 0.12172 0.18565 0.0
H438 H 0.53284 0.16991 0.47863 0.0
H439 H 0.50726 0.16467 0.56455 0.0
H440 H 0.50246 0.1969 0.49666 0.0
H441 H 0.44556 0.18005 0.47174 0.0
H442 H 0.45078 0.14748 0.53829 0.0
H443 H 0.43752 0.14192 0.43413 0.0
H444 H 0.52551 0.07697 0.28696 0.0
H445 H 0.53144 0.0403 0.40154 0.0
H446 H 0.49163 0.10539 0.56953 0.0
C447 C 0.48189 0.19003 0.31819 0.0
C448 C 0.48266 0.19358 0.231 0.0
C449 C 0.49377 0.16869 0.1839 0.0
C450 C 0.50264 0.14084 0.2224 0.0
C451 C 0.50016 0.13801 0.30823 0.0
C452 C 0.48976 0.16208 0.3551 0.0
C453 C 0.48672 0.15307 0.44518 0.0
C454 C 0.50861 0.17228 0.49943 0.0
C455 C 0.45315 0.15579 0.474 0.0
C456 C 0.49676 0.11989 0.44259 0.0
C457 C 0.50527 0.11179 0.36355 0.0
C458 C 0.51765 0.08295 0.34789 0.0
C459 C 0.52032 0.06184 0.41332 0.0
C460 C 0.50968 0.06881 0.49336 0.0
C461 C 0.4986 0.09871 0.50828 0.0
H462 H 0.35647 0.54979 0.21876 0.0
H463 H 0.30214 0.46711 0.25392 0.0
H464 H 0.34112 0.44847 0.35395 0.0
H465 H 0.43479 0.51818 0.25863 0.0
H466 H 0.44645 0.55204 0.31443 0.0
H467 H 0.41875 0.55487 0.23191 0.0
H468 H 0.38049 0.58088 0.33138 0.0
H469 H 0.40782 0.57767 0.41432 0.0
H470 H 0.3697 0.56151 0.42502 0.0
H471 H 0.38484 0.44166 0.46404 0.0
H472 H 0.4254 0.44839 0.57115 0.0
H473 H 0.4454 0.53925 0.47768 0.0
C474 C 0.35302 0.52731 0.24563 0.0
C475 C 0.32587 0.50996 0.22744 0.0
C476 C 0.32272 0.48072 0.26478 0.0
C477 C 0.34471 0.47012 0.32277 0.0
C478 C 0.36984 0.48902 0.34373 0.0
C479 C 0.37402 0.51705 0.30565 0.0
C480 C 0.40032 0.53504 0.34548 0.0
C481 C 0.42664 0.54034 0.28395 0.0
C482 C 0.38889 0.56557 0.38115 0.0
C483 C 0.41004 0.5132 0.41339 0.0
C484 C 0.39284 0.48636 0.41023 0.0
C485 C 0.39817 0.46271 0.4667 0.0
C486 C 0.42122 0.46672 0.52762 0.0
C487 C 0.43818 0.49451 0.53369 0.0
C488 C 0.4325 0.51791 0.47531 0.0
H489 H 0.08063 0.36678 0.21423 0.0
H490 H 0.99972 0.3093 0.24515 0.0
H491 H 0.98025 0.34552 0.35016 0.0
H492 H 0.09228 0.38219 0.42172 0.0
H493 H 0.10536 0.42124 0.40933 0.0
H494 H 0.11056 0.39403 0.32744 0.0
H495 H 0.08102 0.42928 0.22646 0.0
H496 H 0.07636 0.45695 0.30768 0.0
H497 H 0.04301 0.4422 0.25399 0.0
H498 H 0.97298 0.38529 0.4657 0.0
H499 H 0.97559 0.4262 0.56931 0.0
H500 H 0.06228 0.45814 0.46702 0.0
C501 C 0.05816 0.3624 0.24063 0.0
C502 C 0.04145 0.33515 0.21936 0.0
C503 C 0.01262 0.33013 0.25777 0.0
C504 C 1.00164 0.35048 0.31876 0.0
C505 C 0.01964 0.37602 0.34134 0.0
C506 C 0.04712 0.38226 0.3023 0.0
C507 C 0.06313 0.41007 0.34117 0.0
C508 C 0.0947 0.40135 0.37703 0.0
C509 C 0.06611 0.4362 0.2785 0.0
C510 C 0.04064 0.41851 0.40901 0.0
C511 C 0.01569 0.39854 0.40791 0.0
C512 C 0.99233 0.40109 0.46601 0.0
C513 C 0.9942 0.42457 0.52544 0.0
C514 C 0.01919 0.44592 0.5277 0.0
C515 C 0.04274 0.44258 0.46781 0.0
H516 H 0.86707 0.94829 0.13249 0.0
H517 H 0.81893 0.03516 0.13371 0.0
H518 H 0.85773 0.05633 0.03752 0.0
H519 H 0.94486 0.97613 0.10872 0.0
H520 H 0.95611 0.94725 0.03631 0.0
H521 H 0.92716 0.93863 0.11231 0.0
H522 H 0.88929 0.92209 1.00117 0.0
H523 H 0.91491 0.93147 0.91759 0.0
H524 H 0.87764 0.9487 0.92236 0.0
H525 H 0.90107 0.06685 0.93167 0.0
H526 H 0.9428 0.0657 0.82947 0.0
H527 H 0.95886 0.96992 0.8857 0.0
C528 C 0.86448 0.9719 0.11336 0.0
C529 C 0.83931 0.98984 0.14166 0.0
C530 C 0.83784 0.02079 0.11493 0.0
C531 C 0.85978 0.03299 0.05932 0.0
C532 C 0.88325 0.01407 0.03004 0.0
C533 C 0.88565 0.98415 0.05654 0.0
C534 C 0.91107 0.96754 1.0107 0.0
C535 C 0.93626 0.9567 0.07055 0.0
C536 C 0.89747 0.94082 0.96017 0.0
C537 C 0.92308 0.99277 0.95464 0.0
C538 C 0.90685 0.01953 0.967 0.0
C539 C 0.91367 0.04588 0.92171 0.0
C540 C 0.93739 0.04487 0.86279 0.0
C541 C 0.95417 0.01759 0.8477 0.0
C542 C 0.94674 0.99122 0.89512 0.0
H543 H 0.56532 0.84432 0.14324 0.0
H544 H 0.4909 0.78473 0.06283 0.0
H545 H 0.47541 0.82375 0.95958 0.0
H546 H 0.52475 0.91813 0.11046 0.0
H547 H 0.55917 0.93714 0.07563 0.0
H548 H 0.56163 0.90636 0.14973 0.0
H549 H 0.59932 0.87779 0.05411 0.0
H550 H 0.59667 0.90716 0.97627 0.0
H551 H 0.58735 0.86809 0.95119 0.0
H552 H 0.47241 0.86817 0.85182 0.0
H553 H 0.47978 0.91357 0.76181 0.0
H554 H 0.55671 0.94337 0.91208 0.0
C555 C 0.54508 0.83984 0.10585 0.0
C556 C 0.52908 0.8114 0.11254 0.0
C557 C 0.50313 0.80645 0.0608 0.0
C558 C 0.49441 0.82845 1.0011 0.0
C559 C 0.51164 0.85562 0.99385 0.0
C560 C 0.53613 0.86149 0.04614 0.0
C561 C 0.55212 0.89143 0.02361 0.0
C562 C 0.54931 0.91464 0.09408 0.0
C563 C 0.58588 0.88581 1.00008 0.0
C564 C 0.53344 0.90148 0.94939 0.0
C565 C 0.51006 0.88059 0.93297 0.0
C566 C 0.49059 0.88458 0.86509 0.0
C567 C 0.49513 0.91031 0.81351 0.0
C568 C 0.51905 0.93185 0.829 0.0
C569 C 0.53818 0.92741 0.89862 0.0
H570 H 0.71269 0.54592 0.03021 0.0
H571 H 0.67082 0.52962 0.26793 0.0
H572 H 0.62186 0.51496 0.19743 0.0
H573 H 0.65032 0.58159 0.93668 0.0
H574 H 0.65491 0.56491 0.83636 0.0
H575 H 0.68774 0.57014 0.90299 0.0
H576 H 0.70093 0.51289 0.89458 0.0
H577 H 0.66886 0.50707 0.82546 0.0
H578 H 0.67186 0.48449 0.918 0.0
H579 H 0.576 0.50516 0.0982 0.0
H580 H 0.53884 0.50051 0.98393 0.0
H581 H 0.61031 0.52615 0.81108 0.0
C582 C 0.69333 0.53897 0.06786 0.0
C583 C 0.69583 0.53896 0.15528 0.0
C584 C 0.66983 0.5295 0.20139 0.0
C585 C 0.6418 0.52148 0.16163 0.0
C586 C 0.63996 0.52297 0.07556 0.0
C587 C 0.66527 0.53126 0.02936 0.0
C588 C 0.65739 0.53196 0.93797 0.0
C589 C 0.66289 0.56403 0.90133 0.0
C590 C 0.67585 0.50765 0.89126 0.0
C591 C 0.62331 0.52374 0.93955 0.0
C592 C 0.6138 0.51811 0.01934 0.0
C593 C 0.5834 0.50961 0.03587 0.0
C594 C 0.5623 0.50702 0.96998 0.0
C595 C 0.57122 0.51313 0.88757 0.0
C596 C 0.60239 0.52148 0.87284 0.0
H597 H 0.94025 0.68229 0.14607 0.0
H598 H 0.0331 0.71884 0.1655 0.0
H599 H 0.05155 0.67685 0.07614 0.0
H600 H 0.96014 0.60018 0.13183 0.0
H601 H 0.93108 0.59167 0.05587 0.0
H602 H 0.92473 0.62146 0.13053 0.0
H603 H 0.91455 0.66057 0.01717 0.0
H604 H 0.92093 0.63267 0.93766 0.0
H605 H 0.94315 0.66762 0.93919 0.0
H606 H 0.0586 0.63416 0.9678 0.0
H607 H 0.0544 0.59428 0.86083 0.0
H608 H 0.9561 0.58717 0.90388 0.0
C609 C 0.9647 0.68103 0.13384 0.0
C610 C 0.9852 0.70418 0.16447 0.0
C611 C 0.01689 0.70139 0.14531 0.0
C612 C 0.02752 0.67769 0.09328 0.0
C613 C 1.00631 0.65655 0.06034 0.0
C614 C 0.97556 0.65784 0.08095 0.0
C615 C 0.95694 0.63405 0.03253 0.0
C616 C 0.94233 0.61046 0.09114 0.0
C617 C 0.93243 0.64965 0.97854 0.0
C618 C 0.9818 0.6194 0.97993 0.0
C619 C 1.01019 0.63256 0.99749 0.0
C620 C 0.03646 0.62366 0.95465 0.0
C621 C 0.03376 0.60095 0.89316 0.0
C622 C 1.00498 0.58695 0.87339 0.0
C623 C 0.97864 0.59659 0.91803 0.0
H624 H 0.12385 0.21646 0.19858 0.0
H625 H 0.13966 0.30477 0.31265 0.0
H626 H 0.14422 0.27969 0.44688 0.0
H627 H 0.07637 0.18894 0.29495 0.0
H628 H 0.088 0.14981 0.31224 0.0
H629 H 0.10355 0.17036 0.22786 0.0
H630 H 0.1581 0.15963 0.27933 0.0
H631 H 0.14333 0.14005 0.36874 0.0
H632 H 0.17012 0.17123 0.38111 0.0
H633 H 0.12046 0.25091 0.5629 0.0
H634 H 0.08187 0.22148 0.64069 0.0
H635 H 0.0818 0.1524 0.44872 0.0
C636 C 0.13 0.23065 0.25033 0.0
C637 C 0.12746 0.26283 0.24642 0.0
C638 C 0.13818 0.28002 0.31515 0.0
C639 C 0.14145 0.26586 0.39209 0.0
C640 C 0.1367 0.23427 0.39731 0.0
C641 C 0.1334 0.21656 0.32693 0.0
C642 C 0.12293 0.18444 0.34793 0.0
C643 C 0.09609 0.17286 0.2927 0.0
C644 C 0.15034 0.16259 0.34385 0.0
C645 C 0.11346 0.18922 0.43629 0.0
C646 C 0.12374 0.21716 0.46607 0.0
C647 C 0.11317 0.22857 0.54104 0.0
C648 C 0.09054 0.2119 0.5841 0.0
C649 C 0.07771 0.18459 0.55064 0.0
C650 C 0.09099 0.17256 0.47831 0.0
H651 H 0.30859 0.05352 0.34392 0.0
H652 H 0.32339 0.12569 0.16667 0.0
H653 H 0.37827 0.12765 0.20334 0.0
H654 H 0.38252 0.07373 0.48782 0.0
H655 H 0.38818 0.03316 0.50057 0.0
H656 H 0.3497 0.04845 0.49762 0.0
H657 H 0.33611 1.01066 0.38198 0.0
H658 H 0.37426 0.99589 0.37735 0.0
H659 H 0.35716 0.01213 0.28651 0.0
H660 H 0.42993 0.10548 0.20576 0.0
H661 H 0.47326 0.06928 0.19982 0.0
H662 H 0.42622 1.00971 0.37247 0.0
C663 C 0.32299 0.07155 0.31863 0.0
C664 C 0.31223 0.08897 0.25174 0.0
C665 C 0.33142 0.11212 0.2182 0.0
C666 C 0.36281 0.1131 0.23822 0.0
C667 C 0.37414 0.09152 0.29382 0.0
C668 C 0.35452 0.07207 0.33702 0.0
C669 C 0.37227 0.04635 0.37774 0.0
C670 C 0.37322 0.05069 0.47149 0.0
C671 C 0.35918 0.01445 0.35441 0.0
C672 C 0.40373 0.05177 0.34106 0.0
C673 C 0.40481 0.07851 0.29542 0.0
C674 C 0.42977 0.08525 0.24431 0.0
C675 C 0.45405 0.06427 0.24005 0.0
C676 C 0.45321 0.03684 0.28658 0.0
C677 C 0.42794 0.03099 0.33851 0.0
H678 H 0.43861 0.25037 0.38926 0.0
H679 H 0.40577 0.32227 0.22738 0.0
H680 H 0.41765 0.36013 0.33397 0.0
H681 H 0.41855 0.29816 0.59871 0.0
H682 H 0.4516 0.28033 0.64542 0.0
H683 H 0.42685 0.25854 0.57738 0.0
H684 H 0.47433 0.24458 0.49199 0.0
H685 H 0.49924 0.26722 0.55546 0.0
H686 H 0.49752 0.27459 0.44639 0.0
H687 H 0.45842 0.38661 0.40757 0.0
H688 H 0.50621 0.40153 0.47518 0.0
H689 H 0.50592 0.31681 0.61421 0.0
C690 C 0.43189 0.27367 0.37712 0.0
C691 C 0.424 0.28355 0.29655 0.0
C692 C 0.41425 0.31422 0.28615 0.0
C693 C 0.4205 0.33599 0.34717 0.0
C694 C 0.43422 0.32622 0.42023 0.0
C695 C 0.43755 0.29546 0.43849 0.0
C696 C 0.45736 0.29111 0.51493 0.0
C697 C 0.43739 0.28148 0.58847 0.0
C698 C 0.48368 0.26808 0.50115 0.0
C699 C 0.46945 0.32342 0.52621 0.0
C700 C 0.45518 0.34345 0.47227 0.0
C701 C 0.46784 0.37213 0.4554 0.0
C702 C 0.49512 0.38067 0.49512 0.0
C703 C 0.50905 0.36154 0.55497 0.0
C704 C 0.49563 0.33255 0.57087 0.0
H705 H 0.27624 0.58194 0.3599 0.0
H706 H 0.23314 0.62168 0.14434 0.0
H707 H 0.2061 0.65826 0.23296 0.0
H708 H 0.22005 0.57498 0.47144 0.0
H709 H 0.23567 0.58572 0.57037 0.0
H710 H 0.26084 0.57245 0.49214 0.0
H711 H 0.29329 0.62225 0.50276 0.0
H712 H 0.26812 0.63577 0.58268 0.0
H713 H 0.27495 0.659 0.49278 0.0
H714 H 0.1708 0.67448 0.33923 0.0
H715 H 0.13278 0.66898 0.45028 0.0
H716 H 0.20025 0.62312 0.60131 0.0
C717 C 0.26278 0.59961 0.33053 0.0
C718 C 0.25665 0.59869 0.24518 0.0
C719 C 0.23786 0.62157 0.20977 0.0
C720 C 0.22275 0.6428 0.2597 0.0
C721 C 0.22733 0.64143 0.34466 0.0
C722 C 0.24779 0.62097 0.37966 0.0
C723 C 0.24423 0.61952 0.47216 0.0
C724 C 0.23987 0.58623 0.50309 0.0
C725 C 0.27178 0.63508 0.51511 0.0
C726 C 0.21542 0.63838 0.48209 0.0
C727 C 0.20693 0.6522 0.40856 0.0
C728 C 0.17782 0.66504 0.39787 0.0
C729 C 0.15628 0.66178 0.46108 0.0
C730 C 0.16408 0.64597 0.53392 0.0
C731 C 0.19446 0.63618 0.54681 0.0
H732 H 0.94574 0.76196 0.99165 0.0
H733 H 0.90542 0.83105 0.14838 0.0
H734 H 0.91302 0.8691 0.03972 0.0
H735 H 1.00147 0.78936 0.93744 0.0
H736 H 1.0047 0.78229 0.82856 0.0
H737 H 0.98079 0.75799 0.88932 0.0
H738 H 0.93356 0.76939 0.79831 0.0
H739 H 0.95766 0.79316 0.73392 0.0
H740 H 0.92286 0.80845 0.77712 0.0
H741 H 0.95149 0.89854 0.97059 0.0
H742 H 0.99984 0.9176 0.91577 0.0
H743 H 0.01194 0.83217 0.78387 0.0
C744 C 0.93632 0.78444 1.00164 0.0
C745 C 0.92719 0.79398 0.08116 0.0
C746 C 0.91442 0.82352 0.08988 0.0
C747 C 0.91826 0.84532 0.02762 0.0
C748 C 0.93314 0.8366 0.95548 0.0
C749 C 0.93982 0.80622 0.93917 0.0
C750 C 0.96097 0.80353 0.8653 0.0
C751 C 0.9886 0.78211 0.8814 0.0
C752 C 0.94266 0.79303 0.78915 0.0
C753 C 0.97086 0.83666 0.85619 0.0
C754 C 0.95349 0.85553 0.90611 0.0
C755 C 0.96341 0.88508 0.92533 0.0
C756 C 0.99151 0.89556 0.89436 0.0
C757 C 1.00987 0.87649 0.84421 0.0
C758 C 0.99846 0.8473 0.82181 0.0
H759 H 0.77236 0.92346 0.04017 0.0
H760 H 0.74935 0.8779 0.2674 0.0
H761 H 0.69567 0.87295 0.22199 0.0
H762 H 0.72661 0.97129 0.03878 0.0
H763 H 0.71288 0.974 0.93421 0.0
H764 H 0.74961 0.95767 0.9542 0.0
H765 H 0.73431 0.90721 0.8816 0.0
H766 H 0.69751 0.92386 0.85681 0.0
H767 H 0.69921 0.88755 0.90954 0.0
H768 H 0.64708 0.89945 0.19501 0.0
H769 H 0.60783 0.9379 0.16306 0.0
H770 H 0.66046 0.96665 0.95025 0.0
C771 C 0.75657 0.9102 0.07743 0.0
C772 C 0.76393 0.90378 0.16024 0.0
C773 C 0.74352 0.8847 0.20519 0.0
C774 C 0.71271 0.88206 0.18 0.0
C775 C 0.70396 0.89612 0.10644 0.0
C776 C 0.72573 0.90796 0.05246 0.0
C777 C 0.71058 0.92741 0.98654 0.0
C778 C 0.7258 0.95945 0.97827 0.0
C779 C 0.71038 0.91049 0.90373 0.0
C780 C 0.67837 0.92933 0.0208 0.0
C781 C 0.67455 0.91028 0.08805 0.0
C782 C 0.64911 0.91307 0.13963 0.0
C783 C 0.62704 0.93544 0.12162 0.0
C784 C 0.63035 0.95488 0.05228 0.0
C785 C 0.65625 0.95122 1.00111 0.0
H786 H 0.63492 0.71409 0.22721 0.0
H787 H 0.60744 0.76231 1.00647 0.0
H788 H 0.63126 0.72362 0.92325 0.0
H789 H 0.69715 0.65562 0.1023 0.0
H790 H 0.68375 0.62647 0.17256 0.0
H791 H 0.69106 0.66484 0.209 0.0
H792 H 0.63554 0.66418 0.26795 0.0
H793 H 0.62902 0.62683 0.22721 0.0
H794 H 0.60349 0.65759 0.19856 0.0
H795 H 0.62283 0.67434 0.87063 0.0
H796 H 0.58878 0.63112 0.86324 0.0
H797 H 0.61879 0.60208 0.10637 0.0
C798 C 0.63489 0.71671 0.16114 0.0
C799 C 0.61717 0.7401 0.12418 0.0
C800 C 0.61979 0.74439 0.03818 0.0
C801 C 0.63349 0.72203 0.98941 0.0
C802 C 0.64377 0.69513 0.02679 0.0
C803 C 0.64624 0.69291 0.11183 0.0
C804 C 0.6485 0.65948 0.13777 0.0
C805 C 0.68214 0.65114 0.15633 0.0
C806 C 0.62784 0.65163 0.21207 0.0
C807 C 0.63769 0.64398 0.05918 0.0
C808 C 0.63832 0.6645 0.99413 0.0
C809 C 0.62284 0.65806 0.92088 0.0
C810 C 0.60284 0.63288 0.91776 0.0
C811 C 0.59863 0.61354 0.98725 0.0
C812 C 0.61929 0.6174 0.05435 0.0
H813 H 0.74824 0.59799 1.01035 0.0
H814 H 0.82079 0.62439 0.18121 0.0
H815 H 0.85771 0.62336 0.06839 0.0
H816 H 0.77417 0.54534 0.92933 0.0
H817 H 0.7651 0.54982 0.82161 0.0
H818 H 0.74254 0.569 0.89621 0.0
H819 H 0.75371 0.62136 0.82879 0.0
H820 H 0.77605 0.60224 0.7511 0.0
H821 H 0.79288 0.63325 0.80956 0.0
H822 H 0.88587 0.59184 0.9744 0.0
H823 H 0.90197 0.54752 0.89796 0.0
H824 H 0.81406 0.54592 0.76942 0.0
C825 C 0.77138 0.60527 0.0247 0.0
C826 C 0.78188 0.60821 0.1072 0.0
C827 C 0.81229 0.61932 0.1201 0.0
C828 C 0.83352 0.61943 0.05552 0.0
C829 C 0.82353 0.61024 0.97756 0.0
C830 C 0.79264 0.60542 0.96038 0.0
C831 C 0.78831 0.58992 0.87742 0.0
C832 C 0.76633 0.56186 0.88166 0.0
C833 C 0.77709 0.61308 0.8129 0.0
C834 C 0.82117 0.58074 0.86022 0.0
C835 C 0.8413 0.59401 0.91632 0.0
C836 C 0.87104 0.58296 0.92645 0.0
C837 C 0.87997 0.55717 0.88195 0.0
C838 C 0.85942 0.54243 0.82607 0.0
C839 C 0.83042 0.55599 0.81177 0.0
H840 H 0.02258 0.21659 0.07671 0.0
H841 H 0.09149 0.26337 0.9302 0.0
H842 H 0.09052 0.22073 0.83036 0.0
H843 H 0.05009 0.14225 0.0496 0.0
H844 H 0.01356 0.12266 0.03933 0.0
H845 H 0.01623 0.15785 0.09698 0.0
H846 H 0.97459 0.18308 1.00644 0.0
H847 H 0.97048 0.14767 0.95022 0.0
H848 H 0.9787 0.18287 0.89616 0.0
H849 H 0.08852 0.16879 0.75771 0.0
H850 H 0.07766 0.11688 0.70257 0.0
H851 H 1.00571 0.10448 0.88338 0.0
C852 C 0.03638 0.21852 0.02164 0.0
C853 C 0.05655 0.2442 1.01074 0.0
C854 C 0.07525 0.24471 0.93932 0.0
C855 C 0.07514 0.22024 0.88256 0.0
C856 C 0.05592 0.19495 0.89642 0.0
C857 C 0.03614 0.19425 0.96289 0.0
C858 C 0.01807 0.16393 0.96326 0.0
C859 C 0.02488 0.14559 0.04198 0.0
C860 C 0.98339 0.16974 0.95344 0.0
C861 C 0.03099 0.14772 0.88756 0.0
C862 C 0.05331 0.16584 0.85102 0.0
C863 C 0.07048 0.15486 0.78476 0.0
C864 C 0.06422 0.12519 0.75376 0.0
C865 C 0.0403 0.10672 0.7867 0.0
C866 C 0.02358 0.11829 0.85507 0.0
H867 H 0.31872 0.07325 0.96226 0.0
H868 H 0.29216 0.98002 0.02315 0.0
H869 H 0.33144 0.96084 0.92552 0.0
H870 H 0.34281 0.06151 0.74598 0.0
H871 H 0.3751 0.08741 0.7573 0.0
H872 H 0.34065 0.09327 0.81652 0.0
H873 H 0.37293 0.09228 0.95121 0.0
H874 H 0.40715 0.08671 0.8915 0.0
H875 H 0.39729 0.05988 0.97192 0.0
H876 H 0.37841 0.9523 0.82775 0.0
H877 H 0.42759 0.95503 0.75135 0.0
H878 H 0.42759 0.05404 0.77335 0.0
C879 C 0.32051 0.0487 0.95391 0.0
C880 C 0.30188 0.02822 1.00103 0.0
C881 C 0.3054 0.99634 0.98735 0.0
C882 C 0.32805 0.98526 0.9324 0.0
C883 C 0.34734 1.00623 0.89157 0.0
C884 C 0.34363 0.03738 0.90206 0.0
C885 C 0.36927 0.05539 0.85991 0.0
C886 C 0.35617 0.07559 0.79082 0.0
C887 C 0.38775 0.07468 0.92241 0.0
C888 C 0.38859 0.02964 0.82506 0.0
C889 C 0.37518 1.00142 0.84181 0.0
C890 C 0.38888 0.97436 0.81471 0.0
C891 C 0.4169 0.97615 0.7709 0.0
C892 C 0.43173 1.00474 0.75592 0.0
C893 C 0.41703 0.03178 0.78342 0.0
H894 H 0.49547 0.32729 0.1178 0.0
H895 H 0.47024 0.25836 0.93796 0.0
H896 H 0.47535 0.29732 0.82698 0.0
H897 H 0.45252 0.38651 0.03367 0.0
H898 H 0.47991 0.41651 0.05745 0.0
H899 H 0.47866 0.38235 0.11936 0.0
H900 H 0.53667 0.37353 0.09138 0.0
H901 H 0.53784 0.40789 0.02978 0.0
H902 H 0.55017 0.37197 0.98678 0.0
H903 H 0.47687 0.34713 0.73697 0.0
H904 H 0.47918 0.39974 0.67828 0.0
H905 H 0.5026 0.43568 0.91881 0.0
C906 C 0.49211 0.32005 0.05469 0.0
C907 C 0.48296 0.28933 0.03694 0.0
C908 C 0.47802 0.28129 0.95345 0.0
C909 C 0.4805 0.30352 0.89001 0.0
C910 C 0.48805 0.33392 0.91047 0.0
C911 C 0.49427 0.34196 0.99107 0.0
C912 C 0.5001 0.37632 0.99857 0.0
C913 C 0.47637 0.39128 0.05564 0.0
C914 C 0.53316 0.3828 0.02838 0.0
C915 C 0.49566 0.38669 0.91005 0.0
C916 C 0.48889 0.36197 0.85972 0.0
C917 C 0.48286 0.36638 0.77589 0.0
C918 C 0.48427 0.39642 0.74285 0.0
C919 C 0.49152 0.42207 0.79307 0.0
C920 C 0.49704 0.4168 0.8781 0.0
H921 H 0.21626 0.56178 0.99239 0.0
H922 H 0.22665 0.4691 0.08474 0.0
H923 H 0.18099 0.45302 1.00215 0.0
H924 H 0.1352 0.56362 1.01034 0.0
H925 H 0.12948 0.58698 0.92017 0.0
H926 H 0.16498 0.58986 0.97736 0.0
H927 H 0.19569 0.57805 0.84537 0.0
H928 H 0.16036 0.57487 0.78746 0.0
H929 H 0.1872 0.54362 0.78811 0.0
H930 H 0.13106 0.44818 0.90992 0.0
H931 H 0.08411 0.45539 0.82541 0.0
H932 H 0.10355 0.55264 0.81084 0.0
C933 C 0.20921 0.53795 0.99566 0.0
C934 C 0.22547 0.51683 0.0466 0.0
C935 C 0.21525 0.48584 0.04628 0.0
C936 C 0.189 0.47656 0.99982 0.0
C937 C 0.17286 0.49846 0.95366 0.0
C938 C 0.18279 0.52858 0.95157 0.0
C939 C 0.16074 0.54838 0.9019 0.0
C940 C 0.14678 0.5737 0.95566 0.0
C941 C 0.17697 0.56204 0.82624 0.0
C942 C 0.13644 0.52492 0.87667 0.0
C943 C 0.14396 0.49611 0.90583 0.0
C944 C 0.12503 0.47083 0.88824 0.0
C945 C 0.09797 0.47518 0.8409 0.0
C946 C 0.08908 0.50466 0.81303 0.0
C947 C 0.10911 0.52972 0.83106 0.0
H948 H 0.99363 0.84464 0.25582 0.0
H949 H 0.98324 0.77395 0.44111 0.0
H950 H 0.99177 0.81316 0.55004 0.0
H951 H 0.05149 0.89265 0.36146 0.0
H952 H 0.03415 0.92774 0.32629 0.0
H953 H 0.03087 0.89346 0.26502 0.0
H954 H 0.97156 0.89874 0.26504 0.0
H955 H 0.97462 0.93257 0.3276 0.0
H956 H 0.95143 0.90071 0.36166 0.0
H957 H 0.99656 0.86301 0.64047 0.0
H958 H 1.00086 0.9152 0.69941 0.0
H959 H 1.00778 0.95316 0.45418 0.0
C960 C 0.99373 0.8371 0.31927 0.0
C961 C 0.98783 0.80568 0.339 0.0
C962 C 0.98817 0.79741 0.4234 0.0
C963 C 0.99267 0.81978 0.48594 0.0
C964 C 0.997 0.85066 0.46395 0.0
C965 C 0.99795 0.85912 0.38216 0.0
C966 C 1.00126 0.89384 0.37371 0.0
C967 C 0.03123 0.90242 0.32897 0.0
C968 C 0.97304 0.90723 0.32936 0.0
C969 C 1.00236 0.9039 0.46341 0.0
C970 C 0.99974 0.8787 0.51478 0.0
C971 C 0.99918 0.8826 0.6002 0.0
C972 C 1.00189 0.91252 0.63351 0.0
C973 C 1.00546 0.93877 0.58255 0.0
C974 C 1.00532 0.93399 0.49586 0.0
H975 H 0.7057 0.9653 0.27048 0.0
H976 H 0.77274 0.01687 0.41363 0.0
H977 H 0.73115 0.03145 0.51079 0.0
H978 H 0.63746 0.01268 0.30749 0.0
H979 H 0.61283 0.9793 0.31364 0.0
H980 H 0.64692 0.97862 0.25073 0.0
H981 H 0.66474 0.93007 0.32972 0.0
H982 H 0.6311 0.93164 0.39383 0.0
H983 H 0.66894 0.9317 0.43996 0.0
H984 H 0.68051 0.03815 0.59671 0.0
H985 H 0.62915 0.03484 0.66253 0.0
H986 H 0.59825 0.9721 0.47259 0.0
C987 C 0.71185 0.97996 0.32182 0.0
C988 C 0.74297 0.98975 0.33406 0.0
C989 C 0.74935 1.00926 0.40175 0.0
C990 C 0.72577 0.01738 0.45779 0.0
C991 C 0.69582 1.00568 0.44604 0.0
C992 C 0.68899 0.98732 0.3793 0.0
C993 C 0.65598 0.97534 0.3829 0.0
C994 C 0.63718 0.9872 0.30934 0.0
C995 C 0.65515 0.9401 0.38686 0.0
C996 C 0.64502 0.98944 0.46286 0.0
C997 C 0.66804 1.00749 0.49758 0.0
C998 C 0.66265 0.02384 0.56993 0.0
C999 C 0.63332 0.02179 0.60711 0.0
C1000 C 0.60964 1.00284 0.57385 0.0
C1001 C 0.61588 0.98635 0.50074 0.0
H1002 H 0.55019 0.67512 0.24895 0.0
H1003 H 0.50106 0.74759 0.37376 0.0
H1004 H 0.48399 0.7099 0.47921 0.0
H1005 H 0.50008 0.61066 0.2951 0.0
H1006 H 0.53164 0.58494 0.31312 0.0
H1007 H 0.53612 0.61643 0.24237 0.0
H1008 H 0.58353 0.63526 0.32346 0.0
H1009 H 0.57954 0.60463 0.39614 0.0
H1010 H 0.58049 0.64369 0.43142 0.0
H1011 H 0.47505 0.66278 0.57789 0.0
H1012 H 0.47645 0.61411 0.65667 0.0
H1013 H 0.53644 0.57512 0.47328 0.0
C1014 C 0.53582 0.68344 0.2982 0.0
C1015 C 0.52741 0.71495 0.30251 0.0
C1016 C 0.50778 0.72385 0.36767 0.0
C1017 C 0.49815 0.70249 0.42849 0.0
C1018 C 0.50834 0.67208 0.42415 0.0
C1019 C 0.52679 0.66273 0.36018 0.0
C1020 C 0.53709 0.62976 0.37222 0.0
C1021 C 0.52554 0.60924 0.3015 0.0
C1022 C 0.57226 0.62827 0.38141 0.0
C1023 C 0.52144 0.62157 0.45262 0.0
C1024 C 0.50465 0.64611 0.48157 0.0
C1025 C 0.48827 0.64366 0.55518 0.0
C1026 C 0.48921 0.61579 0.59975 0.0
C1027 C 0.50693 0.59057 0.57225 0.0
C1028 C 0.52316 0.59383 0.49731 0.0
H1029 H 0.79726 0.58025 0.41877 0.0
H1030 H 0.79524 0.49421 0.28635 0.0
H1031 H 0.8404 0.47663 0.36705 0.0
H1032 H 0.87549 0.59028 0.4254 0.0
H1033 H 0.87851 0.60568 0.52821 0.0
H1034 H 0.84348 0.6102 0.47011 0.0
H1035 H 0.81192 0.58424 0.58466 0.0
H1036 H 0.84652 0.58009 0.64523 0.0
H1037 H 0.82299 0.54693 0.6216 0.0
H1038 H 0.89123 0.47204 0.44731 0.0
H1039 H 0.93889 0.4782 0.52995 0.0
H1040 H 0.90673 0.56576 0.61888 0.0
C1041 C 0.80557 0.55721 0.40904 0.0
C1042 C 0.79208 0.53837 0.34688 0.0
C1043 C 0.80441 0.50876 0.33466 0.0
C1044 C 0.83037 0.49874 0.37987 0.0
C1045 C 0.8437 0.5183 0.43856 0.0
C1046 C 0.83119 0.54667 0.45468 0.0
C1047 C 0.85053 0.56385 0.51857 0.0
C1048 C 0.86275 0.59431 0.48348 0.0
C1049 C 0.83187 0.5691 0.59723 0.0
C1050 C 0.87658 0.5413 0.53394 0.0
C1051 C 0.87218 0.51514 0.48702 0.0
C1052 C 0.89434 0.49209 0.48565 0.0
C1053 C 0.92144 0.49578 0.53291 0.0
C1054 C 0.92631 0.52203 0.58273 0.0
C1055 C 0.9033 0.54497 0.58355 0.0
loop_
_geom_bond_atom_site_label_1
_geom_bond_atom_site_label_2
_geom_bond_distance
_geom_bond_site_symmetry_2
_ccdc_geom_bond_type
H0 C3 0.931 . S
H1 C6 0.928 . S
H2 C8 0.930 . S
C3 H0 0.931 . S
C3 C4 1.413 . S
C3 C5 1.360 . S
C4 C3 1.413 . S
C4 C8 1.429 . S
C5 C3 1.360 . S
C5 C6 1.372 . S
C6 H1 0.928 . S
C6 C5 1.372 . S
C6 C7 1.404 . S
C7 C6 1.404 . S
C7 C8 1.391 . S
C8 H2 0.930 . S
C8 C4 1.429 . S
C8 C7 1.391 . S
H9 C12 0.931 . S
H10 C15 0.928 . S
H11 C17 0.930 . S
C12 H9 0.931 . S
C12 C13 1.413 . S
C12 C14 1.360 . S
C13 C12 1.413 . S
C13 C17 1.429 . S
C14 C12 1.360 . S
C14 C15 1.372 . S
C15 H10 0.928 . S
C15 C14 1.372 . S
C15 C16 1.404 . S
C16 C15 1.404 . S
C16 C17 1.391 . S
C17 H11 0.930 . S
C17 C13 1.429 . S
C17 C16 1.391 . S
H18 C21 0.931 . S
H19 C24 0.928 . S
H20 C26 0.930 . S
C21 H18 0.931 . S
C21 C22 1.413 . S
C21 C23 1.360 . S
C22 C21 1.413 . S
C22 C26 1.429 . S
C23 C21 1.360 . S
C23 C24 1.372 . S
C24 H19 0.928 . S
C24 C23 1.372 . S
C24 C25 1.404 . S
C25 C24 1.404 . S
C25 C26 1.391 . S
C26 H20 0.930 . S
C26 C22 1.429 . S
C26 C25 1.391 . S
H27 C30 0.931 . S
H28 C33 0.928 . S
H29 C35 0.930 . S
C30 H27 0.931 . S
C30 C31 1.413 . S
C30 C32 1.360 . S
C31 C30 1.413 . S
C31 C35 1.429 . S
C32 C30 1.360 . S
C32 C33 1.372 . S
C33 H28 0.928 . S
C33 C32 1.372 . S
C33 C34 1.404 . S
C34 C33 1.404 . S
C34 C35 1.391 . S
C35 H29 0.930 . S
C35 C31 1.429 . S
C35 C34 1.391 . S
H36 C39 0.931 . S
H37 C42 0.928 . S
H38 C44 0.930 . S
C39 H36 0.931 . S
C39 C40 1.413 1_554 S
C39 C41 1.360 . S
C40 C39 1.413 1_556 S
C40 C44 1.429 . S
C41 C39 1.360 . S
C41 C42 1.372 . S
C42 H37 0.928 . S
C42 C41 1.372 . S
C42 C43 1.404 . S
C43 C42 1.404 . S
C43 C44 1.391 1_554 S
C44 H38 0.930 . S
C44 C40 1.429 . S
C44 C43 1.391 1_556 S
H45 C48 0.931 . S
H46 C51 0.928 . S
H47 C53 0.930 . S
C48 H45 0.931 . S
C48 C49 1.413 1_554 S
C48 C50 1.360 . S
C49 C48 1.413 1_556 S
C49 C53 1.429 . S
C50 C48 1.360 . S
C50 C51 1.372 . S
C51 H46 0.928 . S
C51 C50 1.372 . S
C51 C52 1.404 . S
C52 C51 1.404 . S
C52 C53 1.391 1_554 S
C53 H47 0.930 . S
C53 C49 1.429 . S
C53 C52 1.391 1_556 S
H54 C57 0.931 . S
H55 C60 0.928 . S
H56 C62 0.930 . S
C57 H54 0.931 . S
C57 C58 1.413 1_554 S
C57 C59 1.360 . S
C58 C57 1.413 1_556 S
C58 C62 1.429 . S
C59 C57 1.360 . S
C59 C60 1.372 . S
C60 H55 0.928 . S
C60 C59 1.372 . S
C60 C61 1.404 . S
C61 C60 1.404 . S
C61 C62 1.391 1_554 S
C62 H56 0.930 . S
C62 C58 1.429 . S
C62 C61 1.391 1_556 S
H63 C66 0.931 . S
H64 C69 0.928 . S
H65 C71 0.930 . S
C66 H63 0.931 . S
C66 C67 1.413 . S
C66 C68 1.360 1_554 S
C67 C66 1.413 . S
C67 C71 1.429 . S
C68 C66 1.360 1_556 S
C68 C69 1.372 . S
C69 H64 0.928 . S
C69 C68 1.372 . S
C69 C70 1.404 1_556 S
C70 C69 1.404 1_554 S
C70 C71 1.391 . S
C71 H65 0.930 . S
C71 C67 1.429 . S
C71 C70 1.391 . S
C72 C74 1.422 . S
C72 C76 1.415 . S
C72 N78 1.369 . S
C73 C74 1.421 . S
C73 C75 1.417 1_556 S
C73 C85 1.422 1_556 S
C74 C72 1.422 . S
C74 C73 1.421 . S
C74 N84 1.359 . S
C75 C73 1.417 1_554 S
C75 C77 1.329 1_554 S
C75 H94 0.930 . S
C76 C72 1.415 . S
C76 C77 1.437 . S
C76 C80 1.413 . S
C77 C75 1.329 1_556 S
C77 C76 1.437 . S
C77 H99 0.929 . S
N78 C72 1.369 . S
N78 C79 1.338 1_545 S
N78 Gd83 2.622 1_545 S
C79 N78 1.338 1_565 S
C79 C81 1.378 1_565 S
C79 H91 0.929 . S
C80 C76 1.413 . S
C80 C81 1.348 . S
C80 H96 0.931 . S
C81 C79 1.378 1_545 S
C81 C80 1.348 . S
C81 H97 0.930 . S
Gd82 N102 2.622 . S
Gd82 N109 2.570 . S
Gd82 O116 2.353 1_655 S
Gd82 O117 2.468 . S
Gd82 O118 2.427 . S
Gd82 O120 2.388 . S
Gd82 O121 2.386 1_545 S
Gd82 O125 2.307 1_655 S
Gd82 C135 2.805 . S
Gd83 N78 2.622 1_565 S
Gd83 N84 2.570 1_565 S
Gd83 O115 2.386 1_565 S
Gd83 O119 2.304 1_465 S
Gd83 O122 2.353 . S
Gd83 O123 2.468 . S
Gd83 O124 2.427 . S
Gd83 O126 2.388 . S
Gd83 C147 2.805 . S
N84 C74 1.359 . S
N84 Gd83 2.570 1_545 S
N84 C86 1.343 . S
C85 C73 1.422 1_554 S
C85 C87 1.321 . S
C85 H93 0.931 . S
C86 N84 1.343 . S
C86 C87 1.390 1_556 S
C86 H88 0.931 . S
C87 C85 1.321 . S
C87 C86 1.390 1_554 S
C87 H89 0.930 . S
H88 C86 0.931 . S
H89 C87 0.930 . S
H90 C113 0.931 1_455 S
H91 C79 0.929 . S
H92 C114 0.930 1_455 S
H93 C85 0.931 . S
H94 C75 0.930 . S
H95 C104 0.929 . S
H96 C80 0.931 . S
H97 C81 0.930 . S
H98 C136 0.930 . S
H99 C77 0.929 . S
H100 C105 0.931 . S
H101 C106 0.930 . S
N102 Gd82 2.622 . S
N102 C103 1.353 1_545 S
N102 C104 1.338 . S
C103 N102 1.353 1_565 S
C103 C107 1.429 . S
C103 C110 1.426 . S
C104 H95 0.929 . S
C104 N102 1.338 . S
C104 C106 1.378 . S
C105 H100 0.931 . S
C105 C106 1.348 1_565 S
C105 C107 1.413 . S
C106 H101 0.930 . S
C106 C104 1.378 . S
C106 C105 1.348 1_545 S
C107 C103 1.429 . S
C107 C105 1.413 . S
C107 C137 1.437 . S
H108 C137 0.929 . S
N109 Gd82 2.570 . S
N109 C110 1.359 1_545 S
N109 C113 1.343 . S
C110 C103 1.426 . S
C110 N109 1.359 1_565 S
C110 C112 1.421 . S
C111 C112 1.422 . S
C111 C114 1.321 . S
C111 H138 0.931 . S
C112 C110 1.421 . S
C112 C111 1.422 . S
C112 C136 1.417 . S
C113 H90 0.931 1_655 S
C113 N109 1.343 . S
C113 C114 1.390 1_545 S
C114 H92 0.930 1_655 S
C114 C111 1.321 . S
C114 C113 1.390 1_565 S
O115 Gd83 2.386 1_545 S
O115 C127 1.265 . S
O116 Gd82 2.353 1_455 S
O116 C127 1.242 . S
O117 Gd82 2.468 . S
O117 C135 1.263 . S
O118 Gd82 2.427 . S
O118 C135 1.252 . S
O119 Gd83 2.304 1_645 S
O119 C128 1.264 . S
O120 Gd82 2.388 . S
O120 C128 1.252 . S
O121 Gd82 2.386 1_565 S
O121 C139 1.265 . S
O122 Gd83 2.353 . S
O122 C139 1.242 1_455 S
O123 Gd83 2.468 . S
O123 C147 1.263 . S
O124 Gd83 2.427 . S
O124 C147 1.252 . S
O125 Gd82 2.307 1_455 S
O125 C140 1.261 . S
O126 Gd83 2.388 . S
O126 C140 1.252 1_565 S
C127 O115 1.265 . S
C127 O116 1.242 . S
C128 O119 1.264 . S
C128 O120 1.252 . S
C129 C132 1.394 . S
C129 C134 1.370 . S
C129 C135 1.500 . S
C130 C133 1.383 . S
C130 C134 1.395 . S
C131 C132 1.396 . S
C131 C133 1.365 . S
C131 H148 0.929 . S
C132 C129 1.394 . S
C132 C131 1.396 . S
C132 H149 0.930 . S
C133 C130 1.383 . S
C133 C131 1.365 . S
C133 H150 0.931 . S
C134 C129 1.370 . S
C134 C130 1.395 . S
C134 H151 0.930 1_655 S
C135 Gd82 2.805 . S
C135 O117 1.263 . S
C135 O118 1.252 . S
C135 C129 1.500 . S
C136 H98 0.930 . S
C136 C112 1.417 . S
C136 C137 1.329 . S
C137 C107 1.437 . S
C137 H108 0.929 . S
C137 C136 1.329 . S
H138 C111 0.931 . S
C139 O121 1.265 . S
C139 O122 1.242 1_655 S
C140 O125 1.261 . S
C140 O126 1.252 1_545 S
C141 C144 1.394 . S
C141 C146 1.370 . S
C141 C147 1.500 . S
C142 C145 1.383 . S
C142 C146 1.395 . S
C143 C144 1.396 . S
C143 C145 1.365 . S
C143 H152 0.929 . S
C144 C141 1.394 . S
C144 C143 1.396 . S
C144 H153 0.930 . S
C145 C142 1.383 . S
C145 C143 1.365 . S
C145 H154 0.931 . S
C146 C141 1.370 . S
C146 C142 1.395 . S
C146 H155 0.930 . S
C147 Gd83 2.805 . S
C147 O123 1.263 . S
C147 O124 1.252 . S
C147 C141 1.500 . S
H148 C131 0.929 . S
H149 C132 0.930 . S
H150 C133 0.931 . S
H151 C134 0.930 1_455 S
H152 C143 0.929 . S
H153 C144 0.930 . S
H154 C145 0.931 . S
H155 C146 0.930 . S
C156 C158 1.422 . S
C156 C160 1.415 . S
C156 N162 1.369 . S
C157 C158 1.421 . S
C157 C159 1.417 . S
C157 C169 1.422 . S
C158 C156 1.422 . S
C158 C157 1.421 . S
C158 N168 1.359 . S
C159 C157 1.417 . S
C159 C161 1.329 . S
C159 H178 0.930 . S
C160 C156 1.415 . S
C160 C161 1.437 . S
C160 C164 1.413 . S
C161 C159 1.329 . S
C161 C160 1.437 . S
C161 H183 0.929 . S
N162 C156 1.369 . S
N162 C163 1.338 . S
N162 Gd167 2.622 . S
C163 N162 1.338 . S
C163 C165 1.378 . S
C163 H175 0.929 . S
C164 C160 1.413 . S
C164 C165 1.348 . S
C164 H180 0.931 . S
C165 C163 1.378 . S
C165 C164 1.348 . S
C165 H181 0.930 . S
Gd166 N186 2.622 . S
Gd166 N193 2.570 . S
Gd166 O200 2.353 1_545 S
Gd166 O201 2.468 . S
Gd166 O202 2.427 . S
Gd166 O204 2.388 . S
Gd166 O205 2.386 . S
Gd166 O209 2.307 . S
Gd166 C219 2.805 . S
Gd167 N162 2.622 . S
Gd167 N168 2.570 . S
Gd167 O199 2.386 . S
Gd167 O203 2.307 1_565 S
Gd167 O206 2.353 1_565 S
Gd167 O207 2.468 . S
Gd167 O208 2.427 . S
Gd167 O210 2.388 . S
Gd167 C231 2.805 . S
N168 C158 1.359 . S
N168 Gd167 2.570 . S
N168 C170 1.343 . S
C169 C157 1.422 . S
C169 C171 1.321 . S
C169 H177 0.931 . S
C170 N168 1.343 . S
C170 C171 1.390 . S
C170 H172 0.931 . S
C171 C169 1.321 . S
C171 C170 1.390 . S
C171 H173 0.930 . S
H172 C170 0.931 . S
H173 C171 0.930 . S
H174 C197 0.931 . S
H175 C163 0.929 . S
H176 C198 0.930 . S
H177 C169 0.931 . S
H178 C159 0.930 . S
H179 C188 0.929 . S
H180 C164 0.931 . S
H181 C165 0.930 . S
H182 C220 0.930 . S
H183 C161 0.929 . S
H184 C189 0.931 . S
H185 C190 0.930 . S
N186 Gd166 2.622 . S
N186 C187 1.369 . S
N186 C188 1.338 . S
C187 N186 1.369 . S
C187 C191 1.415 . S
C187 C194 1.422 . S
C188 H179 0.929 . S
C188 N186 1.338 . S
C188 C190 1.378 . S
C189 H184 0.931 . S
C189 C190 1.348 . S
C189 C191 1.413 . S
C190 H185 0.930 . S
C190 C188 1.378 . S
C190 C189 1.348 . S
C191 C187 1.415 . S
C191 C189 1.413 . S
C191 C221 1.437 . S
H192 C221 0.929 . S
N193 Gd166 2.570 . S
N193 C194 1.359 . S
N193 C197 1.343 . S
C194 C187 1.422 . S
C194 N193 1.359 . S
C194 C196 1.421 . S
C195 C196 1.422 . S
C195 C198 1.321 . S
C195 H222 0.931 . S
C196 C194 1.421 . S
C196 C195 1.422 . S
C196 C220 1.417 . S
C197 H174 0.931 . S
C197 N193 1.343 . S
C197 C198 1.390 . S
C198 H176 0.930 . S
C198 C195 1.321 . S
C198 C197 1.390 . S
O199 Gd167 2.386 . S
O199 C211 1.265 . S
O200 Gd166 2.353 1_565 S
O200 C211 1.242 . S
O201 Gd166 2.468 . S
O201 C219 1.263 . S
O202 Gd166 2.427 . S
O202 C219 1.252 . S
O203 Gd167 2.307 1_545 S
O203 C212 1.261 . S
O204 Gd166 2.388 . S
O204 C212 1.252 . S
O205 Gd166 2.386 . S
O205 C223 1.265 . S
O206 Gd167 2.353 1_545 S
O206 C223 1.242 . S
O207 Gd167 2.468 . S
O207 C231 1.263 . S
O208 Gd167 2.427 . S
O208 C231 1.252 . S
O209 Gd166 2.307 . S
O209 C224 1.261 1_545 S
O210 Gd167 2.388 . S
O210 C224 1.252 . S
C211 O199 1.265 . S
C211 O200 1.242 . S
C212 O203 1.261 . S
C212 O204 1.252 . S
C213 C216 1.394 1_556 S
C213 C218 1.370 . S
C213 C219 1.500 . S
C214 C217 1.383 . S
C214 C218 1.395 1_554 S
C215 C216 1.396 . S
C215 C217 1.365 . S
C215 H232 0.929 . S
C216 C213 1.394 1_554 S
C216 C215 1.396 . S
C216 H233 0.930 . S
C217 C214 1.383 . S
C217 C215 1.365 . S
C217 H234 0.931 . S
C218 C213 1.370 . S
C218 C214 1.395 1_556 S
C218 H235 0.930 . S
C219 Gd166 2.805 . S
C219 O201 1.263 . S
C219 O202 1.252 . S
C219 C213 1.500 . S
C220 H182 0.930 . S
C220 C196 1.417 . S
C220 C221 1.329 . S
C221 C191 1.437 . S
C221 H192 0.929 . S
C221 C220 1.329 . S
H222 C195 0.931 . S
C223 O205 1.265 . S
C223 O206 1.242 . S
C224 O209 1.261 1_565 S
C224 O210 1.252 . S
C225 C228 1.394 . S
C225 C230 1.370 . S
C225 C231 1.500 . S
C226 C229 1.383 . S
C226 C230 1.395 . S
C227 C228 1.396 . S
C227 C229 1.365 . S
C227 H236 0.929 . S
C228 C225 1.394 . S
C228 C227 1.396 . S
C228 H237 0.930 . S
C229 C226 1.383 . S
C229 C227 1.365 . S
C229 H238 0.931 . S
C230 C225 1.370 . S
C230 C226 1.395 . S
C230 H239 0.930 . S
C231 Gd167 2.805 . S
C231 O207 1.263 . S
C231 O208 1.252 . S
C231 C225 1.500 . S
H232 C215 0.929 . S
H233 C216 0.930 . S
H234 C217 0.931 . S
H235 C218 0.930 . S
H236 C227 0.929 . S
H237 C228 0.930 . S
H238 C229 0.931 . S
H239 C230 0.930 . S
C240 C242 1.422 . S
C240 C244 1.415 . S
C240 N246 1.369 . S
C241 C242 1.421 . S
C241 C243 1.417 1_556 S
C241 C253 1.422 1_556 S
C242 C240 1.422 . S
C242 C241 1.421 . S
C242 N252 1.359 . S
C243 C241 1.417 1_554 S
C243 C245 1.329 1_554 S
C243 H262 0.930 . S
C244 C240 1.415 . S
C244 C245 1.437 . S
C244 C248 1.413 . S
C245 C243 1.329 1_556 S
C245 C244 1.437 . S
C245 H267 0.929 . S
N246 C240 1.369 . S
N246 C247 1.338 . S
N246 Gd251 2.622 . S
C247 N246 1.338 . S
C247 C249 1.378 . S
C247 H259 0.929 . S
C248 C244 1.413 . S
C248 C249 1.348 . S
C248 H264 0.931 . S
C249 C247 1.378 . S
C249 C248 1.348 . S
C249 H265 0.930 . S
Gd250 N270 2.622 . S
Gd250 N277 2.570 . S
Gd250 O284 2.353 . S
Gd250 O285 2.468 . S
Gd250 O286 2.427 . S
Gd250 O288 2.388 . S
Gd250 O289 2.386 . S
Gd250 O293 2.307 . S
Gd250 C303 2.805 . S
Gd251 N246 2.622 . S
Gd251 N252 2.570 . S
Gd251 O283 2.386 . S
Gd251 O287 2.307 . S
Gd251 O290 2.353 . S
Gd251 O291 2.468 . S
Gd251 O292 2.427 . S
Gd251 O294 2.388 . S
Gd251 C315 2.805 . S
N252 C242 1.359 . S
N252 Gd251 2.570 . S
N252 C254 1.343 . S
C253 C241 1.422 1_554 S
C253 C255 1.321 . S
C253 H261 0.931 . S
C254 N252 1.343 . S
C254 C255 1.390 1_556 S
C254 H256 0.931 . S
C255 C253 1.321 . S
C255 C254 1.390 1_554 S
C255 H257 0.930 . S
H256 C254 0.931 . S
H257 C255 0.930 . S
H258 C281 0.931 . S
H259 C247 0.929 . S
H260 C282 0.930 . S
H261 C253 0.931 . S
H262 C243 0.930 . S
H263 C272 0.929 . S
H264 C248 0.931 . S
H265 C249 0.930 . S
H266 C304 0.930 . S
H267 C245 0.929 . S
H268 C273 0.931 . S
H269 C274 0.930 . S
N270 Gd250 2.622 . S
N270 C271 1.369 . S
N270 C272 1.338 . S
C271 N270 1.369 . S
C271 C275 1.415 . S
C271 C278 1.422 . S
C272 H263 0.929 . S
C272 N270 1.338 . S
C272 C274 1.378 . S
C273 H268 0.931 . S
C273 C274 1.348 . S
C273 C275 1.413 . S
C274 H269 0.930 . S
C274 C272 1.378 . S
C274 C273 1.348 . S
C275 C271 1.415 . S
C275 C273 1.413 . S
C275 C305 1.437 . S
H276 C305 0.929 . S
N277 Gd250 2.570 . S
N277 C278 1.359 . S
N277 C281 1.343 . S
C278 C271 1.422 . S
C278 N277 1.359 . S
C278 C280 1.421 . S
C279 C280 1.422 . S
C279 C282 1.321 . S
C279 H306 0.931 . S
C280 C278 1.421 . S
C280 C279 1.422 . S
C280 C304 1.417 . S
C281 H258 0.931 . S
C281 N277 1.343 . S
C281 C282 1.390 . S
C282 H260 0.930 . S
C282 C279 1.321 . S
C282 C281 1.390 . S
O283 Gd251 2.386 . S
O283 C295 1.265 . S
O284 Gd250 2.353 . S
O284 C295 1.242 . S
O285 Gd250 2.468 . S
O285 C303 1.263 . S
O286 Gd250 2.427 . S
O286 C303 1.252 . S
O287 Gd251 2.307 . S
O287 C296 1.261 . S
O288 Gd250 2.388 . S
O288 C296 1.252 . S
O289 Gd250 2.386 . S
O289 C307 1.265 . S
O290 Gd251 2.353 . S
O290 C307 1.242 . S
O291 Gd251 2.468 . S
O291 C315 1.263 . S
O292 Gd251 2.427 . S
O292 C315 1.252 . S
O293 Gd250 2.307 . S
O293 C308 1.261 . S
O294 Gd251 2.388 . S
O294 C308 1.252 . S
C295 O283 1.265 . S
C295 O284 1.242 . S
C296 O287 1.261 . S
C296 O288 1.252 . S
C297 C300 1.394 . S
C297 C302 1.370 . S
C297 C303 1.500 . S
C298 C301 1.383 . S
C298 C302 1.395 . S
C299 C300 1.396 . S
C299 C301 1.365 . S
C299 H316 0.929 . S
C300 C297 1.394 . S
C300 C299 1.396 . S
C300 H317 0.930 . S
C301 C298 1.383 . S
C301 C299 1.365 . S
C301 H318 0.931 . S
C302 C297 1.370 . S
C302 C298 1.395 . S
C302 H319 0.930 . S
C303 Gd250 2.805 . S
C303 O285 1.263 . S
C303 O286 1.252 . S
C303 C297 1.500 . S
C304 H266 0.930 . S
C304 C280 1.417 . S
C304 C305 1.329 . S
C305 C275 1.437 . S
C305 H276 0.929 . S
C305 C304 1.329 . S
H306 C279 0.931 . S
C307 O289 1.265 . S
C307 O290 1.242 . S
C308 O293 1.261 . S
C308 O294 1.252 . S
C309 C312 1.394 . S
C309 C314 1.370 . S
C309 C315 1.500 . S
C310 C313 1.383 . S
C310 C314 1.395 . S
C311 C312 1.396 . S
C311 C313 1.365 . S
C311 H320 0.929 . S
C312 C309 1.394 . S
C312 C311 1.396 . S
C312 H321 0.930 . S
C313 C310 1.383 . S
C313 C311 1.365 . S
C313 H322 0.931 . S
C314 C309 1.370 . S
C314 C310 1.395 . S
C314 H323 0.930 . S
C315 Gd251 2.805 . S
C315 O291 1.263 . S
C315 O292 1.252 . S
C315 C309 1.500 . S
H316 C299 0.929 . S
H317 C300 0.930 . S
H318 C301 0.931 . S
H319 C302 0.930 . S
H320 C311 0.929 . S
H321 C312 0.930 . S
H322 C313 0.931 . S
H323 C314 0.930 . S
C324 C326 1.422 . S
C324 C328 1.415 . S
C324 N330 1.369 1_455 S
C325 C326 1.421 . S
C325 C327 1.417 1_556 S
C325 C337 1.422 1_556 S
C326 C324 1.422 . S
C326 C325 1.421 . S
C326 N336 1.359 . S
C327 C325 1.417 1_554 S
C327 C329 1.329 1_554 S
C327 H346 0.930 . S
C328 C324 1.415 . S
C328 C329 1.437 . S
C328 C332 1.413 . S
C329 C327 1.329 1_556 S
C329 C328 1.437 . S
C329 H351 0.929 . S
N330 C324 1.369 1_655 S
N330 C331 1.338 . S
N330 Gd335 2.622 . S
C331 N330 1.338 . S
C331 C333 1.378 1_655 S
C331 H343 0.929 . S
C332 C328 1.413 . S
C332 C333 1.348 . S
C332 H348 0.931 . S
C333 C331 1.378 1_455 S
C333 C332 1.348 . S
C333 H349 0.930 . S
Gd334 N354 2.622 . S
Gd334 N361 2.570 . S
Gd334 O368 2.353 . S
Gd334 O369 2.468 . S
Gd334 O370 2.427 . S
Gd334 O372 2.388 . S
Gd334 O373 2.386 1_455 S
Gd334 O377 2.307 . S
Gd334 C387 2.805 . S
Gd335 N330 2.622 . S
Gd335 N336 2.570 1_655 S
Gd335 O367 2.386 1_655 S
Gd335 O371 2.307 . S
Gd335 O374 2.353 . S
Gd335 O375 2.468 . S
Gd335 O376 2.427 . S
Gd335 O378 2.388 . S
Gd335 C399 2.805 . S
N336 C326 1.359 . S
N336 Gd335 2.570 1_455 S
N336 C338 1.343 . S
C337 C325 1.422 1_554 S
C337 C339 1.321 . S
C337 H345 0.931 . S
C338 N336 1.343 . S
C338 C339 1.390 1_556 S
C338 H340 0.930 1_455 S
C339 C337 1.321 . S
C339 C338 1.390 1_554 S
C339 H341 0.930 . S
H340 C338 0.930 1_655 S
H341 C339 0.930 . S
H342 C365 0.931 . S
H343 C331 0.929 . S
H344 C366 0.930 . S
H345 C337 0.931 . S
H346 C327 0.930 . S
H347 C356 0.929 . S
H348 C332 0.931 . S
H349 C333 0.930 . S
H350 C388 0.930 . S
H351 C329 0.929 . S
H352 C357 0.931 . S
H353 C358 0.930 . S
N354 Gd334 2.622 . S
N354 C355 1.355 1_455 S
N354 C356 1.338 . S
C355 N354 1.355 1_655 S
C355 C359 1.427 . S
C355 C362 1.426 . S
C356 H347 0.929 . S
C356 N354 1.338 . S
C356 C358 1.378 . S
C357 H352 0.931 . S
C357 C358 1.348 1_655 S
C357 C359 1.413 . S
C358 H353 0.930 . S
C358 C356 1.378 . S
C358 C357 1.348 1_455 S
C359 C355 1.427 . S
C359 C357 1.413 . S
C359 C389 1.437 . S
H360 C389 0.929 . S
N361 Gd334 2.570 . S
N361 C362 1.359 1_455 S
N361 C365 1.343 . S
C362 C355 1.426 . S
C362 N361 1.359 1_655 S
C362 C364 1.421 . S
C363 C364 1.422 . S
C363 C366 1.321 . S
C363 H390 0.931 . S
C364 C362 1.421 . S
C364 C363 1.422 . S
C364 C388 1.417 . S
C365 H342 0.931 . S
C365 N361 1.343 . S
C365 C366 1.390 1_455 S
C366 H344 0.930 . S
C366 C363 1.321 . S
C366 C365 1.390 1_655 S
O367 Gd335 2.386 1_455 S
O367 C379 1.265 . S
O368 Gd334 2.353 . S
O368 C379 1.242 . S
O369 Gd334 2.468 . S
O369 C387 1.263 . S
O370 Gd334 2.427 . S
O370 C387 1.252 . S
O371 Gd335 2.307 . S
O371 C380 1.261 1_655 S
O372 Gd334 2.388 . S
O372 C380 1.252 . S
O373 Gd334 2.386 1_655 S
O373 C391 1.265 . S
O374 Gd335 2.353 . S
O374 C391 1.242 . S
O375 Gd335 2.468 . S
O375 C399 1.263 . S
O376 Gd335 2.427 . S
O376 C399 1.252 . S
O377 Gd334 2.307 . S
O377 C392 1.261 . S
O378 Gd335 2.388 . S
O378 C392 1.252 1_655 S
C379 O367 1.265 . S
C379 O368 1.242 . S
C380 O371 1.261 1_455 S
C380 O372 1.252 . S
C381 C384 1.394 . S
C381 C386 1.370 . S
C381 C387 1.500 . S
C382 C385 1.383 . S
C382 C386 1.395 . S
C383 C384 1.396 . S
C383 C385 1.365 . S
C383 H400 0.929 . S
C384 C381 1.394 . S
C384 C383 1.396 . S
C384 H401 0.930 . S
C385 C382 1.383 . S
C385 C383 1.365 . S
C385 H402 0.931 . S
C386 C381 1.370 . S
C386 C382 1.395 . S
C386 H403 0.930 . S
C387 Gd334 2.805 . S
C387 O369 1.263 . S
C387 O370 1.252 . S
C387 C381 1.500 . S
C388 H350 0.930 . S
C388 C364 1.417 . S
C388 C389 1.329 . S
C389 C359 1.437 . S
C389 H360 0.929 . S
C389 C388 1.329 . S
H390 C363 0.931 . S
C391 O373 1.265 . S
C391 O374 1.242 . S
C392 O377 1.261 . S
C392 O378 1.252 1_455 S
C393 C396 1.394 . S
C393 C398 1.370 . S
C393 C399 1.500 . S
C394 C397 1.383 . S
C394 C398 1.395 . S
C395 C396 1.396 . S
C395 C397 1.365 . S
C395 H404 0.929 . S
C396 C393 1.394 . S
C396 C395 1.396 . S
C396 H405 0.930 . S
C397 C394 1.383 . S
C397 C395 1.365 . S
C397 H406 0.931 . S
C398 C393 1.370 . S
C398 C394 1.395 . S
C398 H407 0.930 . S
C399 Gd335 2.805 . S
C399 O375 1.263 . S
C399 O376 1.252 . S
C399 C393 1.500 . S
H400 C383 0.929 . S
H401 C384 0.930 . S
H402 C385 0.931 . S
H403 C386 0.930 . S
H404 C395 0.929 . S
H405 C396 0.930 . S
H406 C397 0.931 . S
H407 C398 0.930 . S
H408 C420 0.930 . S
H409 C422 0.930 1_565 S
H410 C423 0.943 . S
H411 C427 0.959 . S
H412 C427 0.959 . S
H413 C427 0.961 . S
H414 C428 0.960 . S
H415 C428 0.961 . S
H416 C428 0.959 . S
H417 C431 0.929 . S
H418 C432 0.931 . S
H419 C434 0.930 . S
C420 H408 0.930 . S
C420 C421 1.399 . S
C420 C425 1.399 . S
C421 C420 1.399 . S
C421 C422 1.376 . S
C422 H409 0.930 1_545 S
C422 C421 1.376 . S
C422 C423 1.384 1_545 S
C423 H410 0.943 . S
C423 C422 1.384 1_565 S
C423 C424 1.381 1_565 S
C424 C423 1.381 1_545 S
C424 C425 1.394 . S
C424 C430 1.465 . S
C425 C420 1.399 . S
C425 C424 1.394 . S
C425 C426 1.516 . S
C426 C425 1.516 . S
C426 C427 1.502 . S
C426 C428 1.561 . S
C426 C429 1.526 . S
C427 H411 0.959 . S
C427 H412 0.959 . S
C427 H413 0.961 . S
C427 C426 1.502 . S
C428 H414 0.960 . S
C428 H415 0.961 . S
C428 H416 0.959 . S
C428 C426 1.561 . S
C429 C426 1.526 . S
C429 C430 1.396 . S
C429 C434 1.390 . S
C430 C424 1.465 . S
C430 C429 1.396 . S
C430 C431 1.399 1_545 S
C431 H417 0.929 . S
C431 C430 1.399 1_565 S
C431 C432 1.385 . S
C432 H418 0.931 . S
C432 C431 1.385 . S
C432 C433 1.389 1_565 S
C433 C432 1.389 1_545 S
C433 C434 1.387 . S
C434 H419 0.930 . S
C434 C429 1.390 . S
C434 C433 1.387 . S
H435 C447 0.930 . S
H436 C449 0.930 . S
H437 C450 0.930 . S
H438 C454 0.959 . S
H439 C454 0.959 . S
H440 C454 0.961 . S
H441 C455 0.960 . S
H442 C455 0.961 . S
H443 C455 0.959 . S
H444 C458 0.929 . S
H445 C459 0.931 . S
H446 C461 0.930 . S
C447 H435 0.930 . S
C447 C448 1.399 . S
C447 C452 1.399 . S
C448 C447 1.399 . S
C448 C449 1.376 . S
C449 H436 0.930 . S
C449 C448 1.376 . S
C449 C450 1.388 . S
C450 H437 0.930 . S
C450 C449 1.388 . S
C450 C451 1.390 . S
C451 C450 1.390 . S
C451 C452 1.394 . S
C451 C457 1.465 . S
C452 C447 1.399 . S
C452 C451 1.394 . S
C452 C453 1.516 . S
C453 C452 1.516 . S
C453 C454 1.502 . S
C453 C455 1.561 . S
C453 C456 1.526 . S
C454 H438 0.959 . S
C454 H439 0.959 . S
C454 H440 0.961 . S
C454 C453 1.502 . S
C455 H441 0.960 . S
C455 H442 0.961 . S
C455 H443 0.959 . S
C455 C453 1.561 . S
C456 C453 1.526 . S
C456 C457 1.396 . S
C456 C461 1.390 . S
C457 C451 1.465 . S
C457 C456 1.396 . S
C457 C458 1.399 . S
C458 H444 0.929 . S
C458 C457 1.399 . S
C458 C459 1.385 . S
C459 H445 0.931 . S
C459 C458 1.385 . S
C459 C460 1.389 . S
C460 C459 1.389 . S
C460 C461 1.387 . S
C461 H446 0.930 . S
C461 C456 1.390 . S
C461 C460 1.387 . S
H462 C474 0.930 . S
H463 C476 0.930 . S
H464 C477 0.930 . S
H465 C481 0.959 . S
H466 C481 0.959 . S
H467 C481 0.961 . S
H468 C482 0.960 . S
H469 C482 0.961 . S
H470 C482 0.959 . S
H471 C485 0.929 . S
H472 C486 0.931 . S
H473 C488 0.930 . S
C474 H462 0.930 . S
C474 C475 1.399 . S
C474 C479 1.399 . S
C475 C474 1.399 . S
C475 C476 1.376 . S
C476 H463 0.930 . S
C476 C475 1.376 . S
C476 C477 1.388 . S
C477 H464 0.930 . S
C477 C476 1.388 . S
C477 C478 1.390 . S
C478 C477 1.390 . S
C478 C479 1.394 . S
C478 C484 1.465 . S
C479 C474 1.399 . S
C479 C478 1.394 . S
C479 C480 1.516 . S
C480 C479 1.516 . S
C480 C481 1.502 . S
C480 C482 1.561 . S
C480 C483 1.526 . S
C481 H465 0.959 . S
C481 H466 0.959 . S
C481 H467 0.961 . S
C481 C480 1.502 . S
C482 H468 0.960 . S
C482 H469 0.961 . S
C482 H470 0.959 . S
C482 C480 1.561 . S
C483 C480 1.526 . S
C483 C484 1.396 . S
C483 C488 1.390 . S
C484 C478 1.465 . S
C484 C483 1.396 . S
C484 C485 1.399 . S
C485 H471 0.929 . S
C485 C484 1.399 . S
C485 C486 1.385 . S
C486 H472 0.931 . S
C486 C485 1.385 . S
C486 C487 1.389 . S
C487 C486 1.389 . S
C487 C488 1.387 . S
C488 H473 0.930 . S
C488 C483 1.390 . S
C488 C487 1.387 . S
H489 C501 0.930 . S
H490 C503 0.930 . S
H491 C504 0.930 1_655 S
H492 C508 0.959 . S
H493 C508 0.959 . S
H494 C508 0.961 . S
H495 C509 0.960 . S
H496 C509 0.961 . S
H497 C509 0.998 . S
H498 C512 0.929 . S
H499 C513 0.940 . S
H500 C515 0.930 . S
C501 H489 0.930 . S
C501 C502 1.399 . S
C501 C506 1.399 . S
C502 C501 1.399 . S
C502 C503 1.376 . S
C503 H490 0.930 . S
C503 C502 1.376 . S
C503 C504 1.388 . S
C504 H491 0.930 1_455 S
C504 C503 1.388 . S
C504 C505 1.390 . S
C505 C504 1.390 . S
C505 C506 1.394 . S
C505 C511 1.465 . S
C506 C501 1.399 . S
C506 C505 1.394 . S
C506 C507 1.516 . S
C507 C506 1.516 . S
C507 C508 1.502 . S
C507 C509 1.561 . S
C507 C510 1.526 . S
C508 H492 0.959 . S
C508 H493 0.959 . S
C508 H494 0.961 . S
C508 C507 1.502 . S
C509 H495 0.960 . S
C509 H496 0.961 . S
C509 H497 0.998 . S
C509 C507 1.561 . S
C510 C507 1.526 . S
C510 C511 1.396 . S
C510 C515 1.390 . S
C511 C505 1.465 . S
C511 C510 1.396 . S
C511 C512 1.399 1_455 S
C512 H498 0.929 . S
C512 C511 1.399 1_655 S
C512 C513 1.386 . S
C513 H499 0.940 . S
C513 C512 1.386 . S
C513 C514 1.380 1_655 S
C514 C513 1.380 1_455 S
C514 C515 1.387 . S
C515 H500 0.930 . S
C515 C510 1.390 . S
C515 C514 1.387 . S
H516 C528 0.930 . S
H517 C530 0.930 . S
H518 C531 0.930 . S
H519 C535 0.959 . S
H520 C535 0.959 . S
H521 C535 0.961 . S
H522 C536 0.960 1_554 S
H523 C536 0.961 . S
H524 C536 0.959 . S
H525 C539 0.929 . S
H526 C540 0.931 . S
H527 C542 0.930 . S
C528 H516 0.930 . S
C528 C529 1.399 . S
C528 C533 1.399 . S
C529 C528 1.399 . S
C529 C530 1.376 1_565 S
C530 H517 0.930 . S
C530 C529 1.376 1_545 S
C530 C531 1.388 . S
C531 H518 0.930 . S
C531 C530 1.388 . S
C531 C532 1.390 1_545 S
C532 C531 1.390 1_565 S
C532 C533 1.394 . S
C532 C538 1.465 1_564 S
C533 C528 1.399 . S
C533 C532 1.394 . S
C533 C534 1.516 . S
C534 C533 1.516 . S
C534 C535 1.502 . S
C534 C536 1.561 1_554 S
C534 C537 1.526 1_554 S
C535 H519 0.959 . S
C535 H520 0.959 . S
C535 H521 0.961 . S
C535 C534 1.502 . S
C536 H522 0.960 1_556 S
C536 H523 0.961 . S
C536 H524 0.959 . S
C536 C534 1.561 1_556 S
C537 C534 1.526 1_556 S
C537 C538 1.396 1_565 S
C537 C542 1.390 . S
C538 C532 1.465 1_546 S
C538 C537 1.396 1_545 S
C538 C539 1.399 . S
C539 H525 0.929 . S
C539 C538 1.399 . S
C539 C540 1.385 . S
C540 H526 0.931 . S
C540 C539 1.385 . S
C540 C541 1.389 1_545 S
C541 C540 1.389 1_565 S
C541 C542 1.387 . S
C542 H527 0.930 . S
C542 C537 1.390 . S
C542 C541 1.387 . S
H543 C555 0.930 . S
H544 C557 0.930 . S
H545 C558 0.930 . S
H546 C562 0.959 . S
H547 C562 0.959 . S
H548 C562 0.961 . S
H549 C563 0.960 . S
H550 C563 0.961 . S
H551 C563 0.959 . S
H552 C566 0.929 . S
H553 C567 0.931 . S
H554 C569 0.930 . S
C555 H543 0.930 . S
C555 C556 1.399 . S
C555 C560 1.399 . S
C556 C555 1.399 . S
C556 C557 1.376 . S
C557 H544 0.930 . S
C557 C556 1.376 . S
C557 C558 1.388 . S
C558 H545 0.930 . S
C558 C557 1.388 . S
C558 C559 1.390 . S
C559 C558 1.390 . S
C559 C560 1.394 . S
C559 C565 1.465 1_554 S
C560 C555 1.399 . S
C560 C559 1.394 . S
C560 C561 1.516 . S
C561 C560 1.516 . S
C561 C562 1.502 . S
C561 C563 1.561 . S
C561 C564 1.526 1_554 S
C562 H546 0.959 . S
C562 H547 0.959 . S
C562 H548 0.961 . S
C562 C561 1.502 . S
C563 H549 0.960 . S
C563 H550 0.961 . S
C563 H551 0.959 . S
C563 C561 1.561 . S
C564 C561 1.526 1_556 S
C564 C565 1.396 . S
C564 C569 1.390 . S
C565 C559 1.465 1_556 S
C565 C564 1.396 . S
C565 C566 1.399 . S
C566 H552 0.929 . S
C566 C565 1.399 . S
C566 C567 1.385 . S
C567 H553 0.931 . S
C567 C566 1.385 . S
C567 C568 1.389 . S
C568 C567 1.389 . S
C568 C569 1.387 . S
C569 H554 0.930 . S
C569 C564 1.390 . S
C569 C568 1.387 . S
H570 C582 0.930 . S
H571 C584 0.930 . S
H572 C585 0.930 . S
H573 C589 0.959 . S
H574 C589 0.959 . S
H575 C589 0.961 1_554 S
H576 C590 0.960 . S
H577 C590 0.961 . S
H578 C590 0.959 . S
H579 C593 0.929 . S
H580 C594 0.931 . S
H581 C596 0.930 . S
C582 H570 0.930 . S
C582 C583 1.399 . S
C582 C587 1.399 . S
C583 C582 1.399 . S
C583 C584 1.376 . S
C584 H571 0.930 . S
C584 C583 1.376 . S
C584 C585 1.388 . S
C585 H572 0.930 . S
C585 C584 1.388 . S
C585 C586 1.390 . S
C586 C585 1.390 . S
C586 C587 1.394 . S
C586 C592 1.465 . S
C587 C582 1.399 . S
C587 C586 1.394 . S
C587 C588 1.516 . S
C588 C587 1.516 . S
C588 C589 1.502 1_554 S
C588 C590 1.561 . S
C588 C591 1.526 1_554 S
C589 H573 0.959 . S
C589 H574 0.959 . S
C589 H575 0.961 1_556 S
C589 C588 1.502 1_556 S
C590 H576 0.960 . S
C590 H577 0.961 . S
C590 H578 0.959 . S
C590 C588 1.561 . S
C591 C588 1.526 1_556 S
C591 C592 1.396 1_556 S
C591 C596 1.390 . S
C592 C586 1.465 . S
C592 C591 1.396 1_554 S
C592 C593 1.399 1_554 S
C593 H579 0.929 . S
C593 C592 1.399 1_556 S
C593 C594 1.385 . S
C594 H580 0.931 . S
C594 C593 1.385 . S
C594 C595 1.389 . S
C595 C594 1.389 . S
C595 C596 1.387 . S
C596 H581 0.930 . S
C596 C591 1.390 . S
C596 C595 1.387 . S
H597 C609 0.930 . S
H598 C611 0.930 . S
H599 C612 0.930 . S
H600 C616 0.959 . S
H601 C616 0.959 . S
H602 C616 0.961 . S
H603 C617 0.960 . S
H604 C617 0.961 . S
H605 C617 0.959 . S
H606 C620 0.929 . S
H607 C621 0.931 . S
H608 C623 0.930 . S
C609 H597 0.930 . S
C609 C610 1.399 . S
C609 C614 1.399 . S
C610 C609 1.399 . S
C610 C611 1.376 . S
C611 H598 0.930 . S
C611 C610 1.376 . S
C611 C612 1.388 . S
C612 H599 0.930 . S
C612 C611 1.388 . S
C612 C613 1.390 . S
C613 C612 1.390 . S
C613 C614 1.394 . S
C613 C619 1.465 1_554 S
C614 C609 1.399 . S
C614 C613 1.394 . S
C614 C615 1.516 . S
C615 C614 1.516 . S
C615 C616 1.502 1_655 S
C615 C617 1.561 . S
C615 C618 1.526 1_554 S
C616 H600 0.959 . S
C616 H601 0.959 . S
C616 H602 0.961 . S
C616 C615 1.502 1_455 S
C617 H603 0.960 . S
C617 H604 0.961 . S
C617 H605 0.959 . S
C617 C615 1.561 . S
C618 C615 1.526 1_556 S
C618 C619 1.396 . S
C618 C623 1.390 . S
C619 C613 1.465 1_556 S
C619 C618 1.396 . S
C619 C620 1.399 . S
C620 H606 0.929 . S
C620 C619 1.399 . S
C620 C621 1.385 . S
C621 H607 0.931 . S
C621 C620 1.385 . S
C621 C622 1.389 . S
C622 C621 1.389 . S
C622 C623 1.387 . S
C623 H608 0.930 . S
C623 C618 1.390 . S
C623 C622 1.387 . S
H624 C636 0.930 . S
H625 C638 0.930 . S
H626 C639 0.930 1_655 S
H627 C643 0.959 . S
H628 C643 0.959 . S
H629 C643 0.961 . S
H630 C644 0.960 . S
H631 C644 0.961 . S
H632 C644 0.959 . S
H633 C647 0.929 . S
H634 C648 0.931 . S
H635 C650 0.930 . S
C636 H624 0.930 . S
C636 C637 1.399 . S
C636 C641 1.399 . S
C637 C636 1.399 . S
C637 C638 1.376 . S
C638 H625 0.930 . S
C638 C637 1.376 . S
C638 C639 1.388 . S
C639 H626 0.930 1_455 S
C639 C638 1.388 . S
C639 C640 1.390 . S
C640 C639 1.390 . S
C640 C641 1.394 . S
C640 C646 1.465 . S
C641 C636 1.399 . S
C641 C640 1.394 . S
C641 C642 1.516 . S
C642 C641 1.516 . S
C642 C643 1.502 . S
C642 C644 1.561 . S
C642 C645 1.526 . S
C643 H627 0.959 . S
C643 H628 0.959 . S
C643 H629 0.961 . S
C643 C642 1.502 . S
C644 H630 0.960 . S
C644 H631 0.961 . S
C644 H632 0.959 . S
C644 C642 1.561 . S
C645 C642 1.526 . S
C645 C646 1.396 . S
C645 C650 1.390 . S
C646 C640 1.465 . S
C646 C645 1.396 . S
C646 C647 1.399 1_455 S
C647 H633 0.929 . S
C647 C646 1.399 1_655 S
C647 C648 1.385 . S
C648 H634 0.931 . S
C648 C647 1.385 . S
C648 C649 1.389 . S
C649 C648 1.389 . S
C649 C650 1.387 1_655 S
C650 H635 0.930 . S
C650 C645 1.390 . S
C650 C649 1.387 1_455 S
H651 C663 0.930 . S
H652 C665 0.930 . S
H653 C666 0.930 . S
H654 C670 0.959 . S
H655 C670 0.959 . S
H656 C670 0.961 . S
H657 C671 0.960 . S
H658 C671 0.961 . S
H659 C671 0.959 1_565 S
H660 C674 0.929 . S
H661 C675 0.931 . S
H662 C677 0.930 . S
C663 H651 0.930 . S
C663 C664 1.399 . S
C663 C668 1.399 . S
C664 C663 1.399 . S
C664 C665 1.376 . S
C665 H652 0.930 . S
C665 C664 1.376 . S
C665 C666 1.388 . S
C666 H653 0.930 . S
C666 C665 1.388 . S
C666 C667 1.390 . S
C667 C666 1.390 . S
C667 C668 1.394 . S
C667 C673 1.465 . S
C668 C663 1.399 . S
C668 C667 1.394 . S
C668 C669 1.516 . S
C669 C668 1.516 . S
C669 C670 1.502 . S
C669 C671 1.561 . S
C669 C672 1.526 . S
C670 H654 0.959 . S
C670 H655 0.959 . S
C670 H656 0.961 . S
C670 C669 1.502 . S
C671 H657 0.960 . S
C671 H658 0.961 . S
C671 H659 0.959 1_545 S
C671 C669 1.561 . S
C672 C669 1.526 . S
C672 C673 1.396 . S
C672 C677 1.390 . S
C673 C667 1.465 . S
C673 C672 1.396 . S
C673 C674 1.399 1_545 S
C674 H660 0.929 . S
C674 C673 1.399 1_565 S
C674 C675 1.385 . S
C675 H661 0.931 . S
C675 C674 1.385 . S
C675 C676 1.389 . S
C676 C675 1.389 . S
C676 C677 1.387 1_565 S
C677 H662 0.930 . S
C677 C672 1.390 . S
C677 C676 1.387 1_545 S
H678 C690 0.930 . S
H679 C692 0.930 . S
H680 C693 0.930 . S
H681 C697 0.959 . S
H682 C697 0.959 . S
H683 C697 0.961 . S
H684 C698 0.960 . S
H685 C698 0.961 . S
H686 C698 0.959 . S
H687 C701 0.929 . S
H688 C702 0.931 . S
H689 C704 0.930 . S
C690 H678 0.930 . S
C690 C691 1.399 . S
C690 C695 1.399 . S
C691 C690 1.399 . S
C691 C692 1.376 . S
C692 H679 0.930 . S
C692 C691 1.376 . S
C692 C693 1.388 . S
C693 H680 0.930 . S
C693 C692 1.388 . S
C693 C694 1.390 . S
C694 C693 1.390 . S
C694 C695 1.394 . S
C694 C700 1.465 . S
C695 C690 1.399 . S
C695 C694 1.394 . S
C695 C696 1.516 . S
C696 C695 1.516 . S
C696 C697 1.502 . S
C696 C698 1.561 . S
C696 C699 1.526 . S
C697 H681 0.959 . S
C697 H682 0.959 . S
C697 H683 0.961 . S
C697 C696 1.502 . S
C698 H684 0.960 . S
C698 H685 0.961 . S
C698 H686 0.959 . S
C698 C696 1.561 . S
C699 C696 1.526 . S
C699 C700 1.396 . S
C699 C704 1.390 . S
C700 C694 1.465 . S
C700 C699 1.396 . S
C700 C701 1.399 . S
C701 H687 0.929 . S
C701 C700 1.399 . S
C701 C702 1.385 . S
C702 H688 0.931 . S
C702 C701 1.385 . S
C702 C703 1.389 . S
C703 C702 1.389 . S
C703 C704 1.387 . S
C704 H689 0.930 . S
C704 C699 1.390 . S
C704 C703 1.387 . S
H705 C717 0.930 . S
H706 C719 0.930 . S
H707 C720 0.930 . S
H708 C724 0.959 . S
H709 C724 0.959 . S
H710 C724 0.961 . S
H711 C725 0.960 . S
H712 C725 0.961 . S
H713 C725 0.959 . S
H714 C728 0.929 . S
H715 C729 0.931 . S
H716 C731 0.930 . S
C717 H705 0.930 . S
C717 C718 1.399 . S
C717 C722 1.399 . S
C718 C717 1.399 . S
C718 C719 1.376 . S
C719 H706 0.930 . S
C719 C718 1.376 . S
C719 C720 1.388 . S
C720 H707 0.930 . S
C720 C719 1.388 . S
C720 C721 1.390 . S
C721 C720 1.390 . S
C721 C722 1.394 . S
C721 C727 1.465 . S
C722 C717 1.399 . S
C722 C721 1.394 . S
C722 C723 1.516 . S
C723 C722 1.516 . S
C723 C724 1.502 . S
C723 C725 1.561 . S
C723 C726 1.526 . S
C724 H708 0.959 . S
C724 H709 0.959 . S
C724 H710 0.961 . S
C724 C723 1.502 . S
C725 H711 0.960 . S
C725 H712 0.961 . S
C725 H713 0.959 . S
C725 C723 1.561 . S
C726 C723 1.526 . S
C726 C727 1.396 . S
C726 C731 1.390 . S
C727 C721 1.465 . S
C727 C726 1.396 . S
C727 C728 1.399 . S
C728 H714 0.929 . S
C728 C727 1.399 . S
C728 C729 1.385 . S
C729 H715 0.931 . S
C729 C728 1.385 . S
C729 C730 1.389 . S
C730 C729 1.389 . S
C730 C731 1.387 . S
C731 H716 0.930 . S
C731 C726 1.390 . S
C731 C730 1.387 . S
H732 C744 0.930 . S
H733 C746 0.930 . S
H734 C747 0.930 . S
H735 C751 0.967 . S
H736 C751 0.948 1_556 S
H737 C751 0.962 . S
H738 C752 0.960 . S
H739 C752 0.961 . S
H740 C752 0.959 . S
H741 C755 0.941 . S
H742 C756 0.931 . S
H743 C758 0.930 . S
C744 H732 0.930 . S
C744 C745 1.399 . S
C744 C749 1.399 . S
C745 C744 1.399 . S
C745 C746 1.376 . S
C746 H733 0.930 . S
C746 C745 1.376 . S
C746 C747 1.388 . S
C747 H734 0.930 . S
C747 C746 1.388 . S
C747 C748 1.390 . S
C748 C747 1.390 . S
C748 C749 1.394 . S
C748 C754 1.465 . S
C749 C744 1.399 . S
C749 C748 1.394 . S
C749 C750 1.516 . S
C750 C749 1.516 . S
C750 C751 1.505 1_655 S
C750 C752 1.561 1_554 S
C750 C753 1.526 1_655 S
C751 H735 0.967 . S
C751 H736 0.948 1_554 S
C751 H737 0.962 . S
C751 C750 1.505 1_455 S
C752 H738 0.960 . S
C752 H739 0.961 . S
C752 H740 0.959 . S
C752 C750 1.561 1_556 S
C753 C750 1.526 1_455 S
C753 C754 1.396 1_455 S
C753 C758 1.390 1_554 S
C754 C748 1.465 . S
C754 C753 1.396 1_655 S
C754 C755 1.402 . S
C755 H741 0.941 . S
C755 C754 1.402 . S
C755 C756 1.371 1_655 S
C756 H742 0.931 . S
C756 C755 1.371 1_455 S
C756 C757 1.389 1_554 S
C757 C756 1.389 1_556 S
C757 C758 1.387 . S
C758 H743 0.930 . S
C758 C753 1.390 1_556 S
C758 C757 1.387 . S
H759 C771 0.930 . S
H760 C773 0.930 . S
H761 C774 0.930 . S
H762 C778 0.959 1_554 S
H763 C778 0.959 . S
H764 C778 0.961 . S
H765 C779 0.960 . S
H766 C779 0.961 . S
H767 C779 0.959 1_554 S
H768 C782 0.929 . S
H769 C783 0.931 . S
H770 C785 0.930 . S
C771 H759 0.930 . S
C771 C772 1.399 . S
C771 C776 1.399 . S
C772 C771 1.399 . S
C772 C773 1.376 . S
C773 H760 0.930 . S
C773 C772 1.376 . S
C773 C774 1.388 . S
C774 H761 0.930 . S
C774 C773 1.388 . S
C774 C775 1.390 . S
C775 C774 1.390 . S
C775 C776 1.394 . S
C775 C781 1.454 1_565 S
C776 C771 1.399 . S
C776 C775 1.394 . S
C776 C777 1.516 . S
C777 C776 1.516 . S
C777 C778 1.502 1_564 S
C777 C779 1.561 1_554 S
C777 C780 1.526 1_565 S
C778 H762 0.959 1_556 S
C778 H763 0.959 . S
C778 H764 0.961 . S
C778 C777 1.502 1_546 S
C779 H765 0.960 . S
C779 H766 0.961 . S
C779 H767 0.959 1_556 S
C779 C777 1.561 1_556 S
C780 C777 1.526 1_545 S
C780 C781 1.397 . S
C780 C785 1.390 1_554 S
C781 C775 1.454 1_545 S
C781 C780 1.397 . S
C781 C782 1.409 . S
C782 H768 0.929 . S
C782 C781 1.409 . S
C782 C783 1.385 . S
C783 H769 0.931 . S
C783 C782 1.385 . S
C783 C784 1.389 1_554 S
C784 C783 1.389 1_556 S
C784 C785 1.387 . S
C785 H770 0.930 . S
C785 C780 1.390 1_556 S
C785 C784 1.387 . S
H786 C798 0.930 . S
H787 C800 0.930 . S
H788 C801 0.930 . S
H789 C805 0.959 . S
H790 C805 0.959 . S
H791 C805 0.961 . S
H792 C806 0.960 . S
H793 C806 0.961 . S
H794 C806 0.959 . S
H795 C809 0.929 . S
H796 C810 0.931 . S
H797 C812 0.930 . S
C798 H786 0.930 . S
C798 C799 1.399 . S
C798 C803 1.399 . S
C799 C798 1.399 . S
C799 C800 1.376 . S
C800 H787 0.930 . S
C800 C799 1.376 . S
C800 C801 1.388 . S
C801 H788 0.930 . S
C801 C800 1.388 . S
C801 C802 1.390 . S
C802 C801 1.390 . S
C802 C803 1.394 . S
C802 C808 1.465 . S
C803 C798 1.399 . S
C803 C802 1.394 . S
C803 C804 1.516 . S
C804 C803 1.516 . S
C804 C805 1.502 . S
C804 C806 1.561 . S
C804 C807 1.526 . S
C805 H789 0.959 . S
C805 H790 0.959 . S
C805 H791 0.961 . S
C805 C804 1.502 . S
C806 H792 0.960 . S
C806 H793 0.961 . S
C806 H794 0.959 . S
C806 C804 1.561 . S
C807 C804 1.526 . S
C807 C808 1.396 . S
C807 C812 1.390 . S
C808 C802 1.465 . S
C808 C807 1.396 . S
C808 C809 1.399 . S
C809 H795 0.929 . S
C809 C808 1.399 . S
C809 C810 1.385 1_554 S
C810 H796 0.931 . S
C810 C809 1.385 1_556 S
C810 C811 1.389 . S
C811 C810 1.389 . S
C811 C812 1.387 1_556 S
C812 H797 0.930 . S
C812 C807 1.390 . S
C812 C811 1.387 1_554 S
H813 C825 0.930 . S
H814 C827 0.930 . S
H815 C828 0.930 . S
H816 C832 0.959 . S
H817 C832 0.959 . S
H818 C832 0.961 . S
H819 C833 0.960 1_554 S
H820 C833 0.961 . S
H821 C833 0.959 . S
H822 C836 0.929 . S
H823 C837 0.931 . S
H824 C839 0.930 . S
C825 H813 0.930 . S
C825 C826 1.399 . S
C825 C830 1.399 . S
C826 C825 1.399 . S
C826 C827 1.376 . S
C827 H814 0.930 . S
C827 C826 1.376 . S
C827 C828 1.388 . S
C828 H815 0.930 . S
C828 C827 1.388 . S
C828 C829 1.390 . S
C829 C828 1.390 . S
C829 C830 1.394 . S
C829 C835 1.465 . S
C830 C825 1.399 . S
C830 C829 1.394 . S
C830 C831 1.516 . S
C831 C830 1.516 . S
C831 C832 1.502 . S
C831 C833 1.561 1_554 S
C831 C834 1.526 . S
C832 H816 0.959 . S
C832 H817 0.959 . S
C832 H818 0.961 . S
C832 C831 1.502 . S
C833 H819 0.960 1_556 S
C833 H820 0.961 . S
C833 H821 0.959 . S
C833 C831 1.561 1_556 S
C834 C831 1.526 . S
C834 C835 1.396 . S
C834 C839 1.390 1_554 S
C835 C829 1.465 . S
C835 C834 1.396 . S
C835 C836 1.399 . S
C836 H822 0.929 . S
C836 C835 1.399 . S
C836 C837 1.385 . S
C837 H823 0.931 . S
C837 C836 1.385 . S
C837 C838 1.389 1_554 S
C838 C837 1.389 1_556 S
C838 C839 1.387 . S
C839 H824 0.930 . S
C839 C834 1.390 1_556 S
C839 C838 1.387 . S
H840 C852 0.930 . S
H841 C854 0.930 1_554 S
H842 C855 0.930 . S
H843 C859 0.959 . S
H844 C859 0.959 . S
H845 C859 0.961 . S
H846 C860 0.960 . S
H847 C860 0.961 . S
H848 C860 0.959 . S
H849 C863 0.929 . S
H850 C864 0.931 . S
H851 C866 0.930 . S
C852 H840 0.930 . S
C852 C853 1.399 . S
C852 C857 1.399 . S
C853 C852 1.399 . S
C853 C854 1.376 . S
C854 H841 0.930 1_556 S
C854 C853 1.376 . S
C854 C855 1.388 . S
C855 H842 0.930 . S
C855 C854 1.388 . S
C855 C856 1.390 . S
C856 C855 1.390 . S
C856 C857 1.394 . S
C856 C862 1.465 . S
C857 C852 1.399 . S
C857 C856 1.394 . S
C857 C858 1.516 . S
C858 C857 1.516 . S
C858 C859 1.502 1_455 S
C858 C860 1.561 . S
C858 C861 1.526 . S
C859 H843 0.959 . S
C859 H844 0.959 . S
C859 H845 0.961 . S
C859 C858 1.502 1_655 S
C860 H846 0.960 . S
C860 H847 0.961 . S
C860 H848 0.959 . S
C860 C858 1.561 . S
C861 C858 1.526 . S
C861 C862 1.396 . S
C861 C866 1.390 . S
C862 C856 1.465 . S
C862 C861 1.396 . S
C862 C863 1.399 . S
C863 H849 0.929 . S
C863 C862 1.399 . S
C863 C864 1.385 . S
C864 H850 0.931 . S
C864 C863 1.385 . S
C864 C865 1.389 . S
C865 C864 1.389 . S
C865 C866 1.387 . S
C866 H851 0.930 . S
C866 C861 1.390 . S
C866 C865 1.387 . S
H867 C879 0.930 . S
H868 C881 0.930 1_565 S
H869 C882 0.930 . S
H870 C886 0.959 . S
H871 C886 0.959 . S
H872 C886 0.961 . S
H873 C887 0.960 . S
H874 C887 0.961 . S
H875 C887 0.959 . S
H876 C890 0.929 . S
H877 C891 0.931 . S
H878 C893 0.930 . S
C879 H867 0.930 . S
C879 C880 1.399 . S
C879 C884 1.399 . S
C880 C879 1.399 . S
C880 C881 1.376 . S
C881 H868 0.930 1_545 S
C881 C880 1.376 . S
C881 C882 1.388 1_545 S
C882 H869 0.930 . S
C882 C881 1.388 1_565 S
C882 C883 1.390 1_565 S
C883 C882 1.390 1_545 S
C883 C884 1.394 . S
C883 C889 1.465 . S
C884 C879 1.399 . S
C884 C883 1.394 . S
C884 C885 1.516 . S
C885 C884 1.516 . S
C885 C886 1.502 . S
C885 C887 1.561 . S
C885 C888 1.526 . S
C886 H870 0.959 . S
C886 H871 0.959 . S
C886 H872 0.961 . S
C886 C885 1.502 . S
C887 H873 0.960 . S
C887 H874 0.961 . S
C887 H875 0.959 . S
C887 C885 1.561 . S
C888 C885 1.526 . S
C888 C889 1.396 . S
C888 C893 1.390 . S
C889 C883 1.465 . S
C889 C888 1.396 . S
C889 C890 1.399 1_545 S
C890 H876 0.929 . S
C890 C889 1.399 1_565 S
C890 C891 1.385 . S
C891 H877 0.931 . S
C891 C890 1.385 . S
C891 C892 1.389 1_565 S
C892 C891 1.389 1_545 S
C892 C893 1.387 . S
C893 H878 0.930 . S
C893 C888 1.390 . S
C893 C892 1.387 . S
H894 C906 0.930 . S
H895 C908 0.930 . S
H896 C909 0.930 . S
H897 C913 0.959 . S
H898 C913 0.959 . S
H899 C913 0.961 1_554 S
H900 C914 0.960 1_554 S
H901 C914 0.961 1_554 S
H902 C914 0.959 . S
H903 C917 0.929 . S
H904 C918 0.931 . S
H905 C920 0.930 . S
C906 H894 0.930 . S
C906 C907 1.399 . S
C906 C911 1.399 . S
C907 C906 1.399 . S
C907 C908 1.376 . S
C908 H895 0.930 . S
C908 C907 1.376 . S
C908 C909 1.388 . S
C909 H896 0.930 . S
C909 C908 1.388 . S
C909 C910 1.390 . S
C910 C909 1.390 . S
C910 C911 1.394 . S
C910 C916 1.465 . S
C911 C906 1.399 . S
C911 C910 1.394 . S
C911 C912 1.516 . S
C912 C911 1.516 . S
C912 C913 1.502 . S
C912 C914 1.561 . S
C912 C915 1.526 . S
C913 H897 0.959 . S
C913 H898 0.959 . S
C913 H899 0.961 1_556 S
C913 C912 1.502 . S
C914 H900 0.960 1_556 S
C914 H901 0.961 1_556 S
C914 H902 0.959 . S
C914 C912 1.561 . S
C915 C912 1.526 . S
C915 C916 1.396 . S
C915 C920 1.390 . S
C916 C910 1.465 . S
C916 C915 1.396 . S
C916 C917 1.399 . S
C917 H903 0.929 . S
C917 C916 1.399 . S
C917 C918 1.385 . S
C918 H904 0.931 . S
C918 C917 1.385 . S
C918 C919 1.389 . S
C919 C918 1.389 . S
C919 C920 1.387 . S
C920 H905 0.930 . S
C920 C915 1.390 . S
C920 C919 1.387 . S
H921 C933 0.930 . S
H922 C935 0.930 . S
H923 C936 0.930 . S
H924 C940 0.959 . S
H925 C940 0.959 . S
H926 C940 0.961 1_554 S
H927 C941 0.960 . S
H928 C941 0.961 . S
H929 C941 0.959 . S
H930 C944 0.929 . S
H931 C945 0.931 . S
H932 C947 0.930 . S
C933 H921 0.930 . S
C933 C934 1.399 . S
C933 C938 1.399 . S
C934 C933 1.399 . S
C934 C935 1.376 . S
C935 H922 0.930 . S
C935 C934 1.376 . S
C935 C936 1.388 . S
C936 H923 0.930 . S
C936 C935 1.388 . S
C936 C937 1.390 . S
C937 C936 1.390 . S
C937 C938 1.394 . S
C937 C943 1.465 . S
C938 C933 1.399 . S
C938 C937 1.394 . S
C938 C939 1.516 . S
C939 C938 1.516 . S
C939 C940 1.502 . S
C939 C941 1.561 . S
C939 C942 1.526 . S
C940 H924 0.959 . S
C940 H925 0.959 . S
C940 H926 0.961 1_556 S
C940 C939 1.502 . S
C941 H927 0.960 . S
C941 H928 0.961 . S
C941 H929 0.959 . S
C941 C939 1.561 . S
C942 C939 1.526 . S
C942 C943 1.396 . S
C942 C947 1.390 . S
C943 C937 1.465 . S
C943 C942 1.396 . S
C943 C944 1.399 . S
C944 H930 0.929 . S
C944 C943 1.399 . S
C944 C945 1.385 . S
C945 H931 0.931 . S
C945 C944 1.385 . S
C945 C946 1.389 . S
C946 C945 1.389 . S
C946 C947 1.387 . S
C947 H932 0.930 . S
C947 C942 1.390 . S
C947 C946 1.387 . S
H948 C960 0.930 . S
H949 C962 0.930 . S
H950 C963 0.930 . S
H951 C967 0.959 . S
H952 C967 0.959 . S
H953 C967 0.961 . S
H954 C968 0.960 . S
H955 C968 0.961 . S
H956 C968 0.959 . S
H957 C971 0.929 . S
H958 C972 0.931 . S
H959 C974 0.942 . S
C960 H948 0.930 . S
C960 C961 1.399 . S
C960 C965 1.399 . S
C961 C960 1.399 . S
C961 C962 1.376 . S
C962 H949 0.930 . S
C962 C961 1.376 . S
C962 C963 1.388 . S
C963 H950 0.930 . S
C963 C962 1.388 . S
C963 C964 1.390 . S
C964 C963 1.390 . S
C964 C965 1.394 . S
C964 C970 1.465 . S
C965 C960 1.399 . S
C965 C964 1.394 . S
C965 C966 1.516 . S
C966 C965 1.516 . S
C966 C967 1.502 1_655 S
C966 C968 1.561 . S
C966 C969 1.526 . S
C967 H951 0.959 . S
C967 H952 0.959 . S
C967 H953 0.961 . S
C967 C966 1.502 1_455 S
C968 H954 0.960 . S
C968 H955 0.961 . S
C968 H956 0.959 . S
C968 C966 1.561 . S
C969 C966 1.526 . S
C969 C970 1.396 . S
C969 C974 1.390 . S
C970 C964 1.465 . S
C970 C969 1.396 . S
C970 C971 1.399 . S
C971 H957 0.929 . S
C971 C970 1.399 . S
C971 C972 1.385 . S
C972 H958 0.931 . S
C972 C971 1.385 . S
C972 C973 1.389 . S
C973 C972 1.389 . S
C973 C974 1.387 . S
C974 H959 0.942 . S
C974 C969 1.390 . S
C974 C973 1.387 . S
H975 C987 0.930 . S
H976 C989 0.930 . S
H977 C990 0.930 . S
H978 C994 0.959 . S
H979 C994 0.959 . S
H980 C994 0.961 . S
H981 C995 0.960 . S
H982 C995 0.961 . S
H983 C995 0.959 . S
H984 C998 0.929 . S
H985 C999 0.931 . S
H986 C1001 0.930 1_545 S
C987 H975 0.930 . S
C987 C988 1.399 . S
C987 C992 1.399 . S
C988 C987 1.399 . S
C988 C989 1.376 . S
C989 H976 0.930 . S
C989 C988 1.376 . S
C989 C990 1.388 . S
C990 H977 0.930 . S
C990 C989 1.388 . S
C990 C991 1.390 . S
C991 C990 1.390 . S
C991 C992 1.394 . S
C991 C997 1.465 . S
C992 C987 1.399 . S
C992 C991 1.394 . S
C992 C993 1.516 . S
C993 C992 1.516 . S
C993 C994 1.502 1_565 S
C993 C995 1.561 . S
C993 C996 1.526 . S
C994 H978 0.959 . S
C994 H979 0.959 . S
C994 H980 0.961 . S
C994 C993 1.502 1_545 S
C995 H981 0.960 . S
C995 H982 0.961 . S
C995 H983 0.959 . S
C995 C993 1.561 . S
C996 C993 1.526 . S
C996 C997 1.396 . S
C996 C1001 1.390 . S
C997 C991 1.465 . S
C997 C996 1.396 . S
C997 C998 1.399 . S
C998 H984 0.929 . S
C998 C997 1.399 . S
C998 C999 1.385 . S
C999 H985 0.931 . S
C999 C998 1.385 . S
C999 C1000 1.389 . S
C1000 C999 1.389 . S
C1000 C1001 1.387 . S
C1001 H986 0.930 1_565 S
C1001 C996 1.390 . S
C1001 C1000 1.387 . S
H1002 C1014 0.930 . S
H1003 C1016 0.930 . S
H1004 C1017 0.930 . S
H1005 C1021 0.959 . S
H1006 C1021 0.959 . S
H1007 C1021 0.961 . S
H1008 C1022 0.960 . S
H1009 C1022 0.961 . S
H1010 C1022 0.959 . S
H1011 C1025 0.929 . S
H1012 C1026 0.931 . S
H1013 C1028 0.930 . S
C1014 H1002 0.930 . S
C1014 C1015 1.399 . S
C1014 C1019 1.399 . S
C1015 C1014 1.399 . S
C1015 C1016 1.376 . S
C1016 H1003 0.930 . S
C1016 C1015 1.376 . S
C1016 C1017 1.388 . S
C1017 H1004 0.930 . S
C1017 C1016 1.388 . S
C1017 C1018 1.390 . S
C1018 C1017 1.390 . S
C1018 C1019 1.394 . S
C1018 C1024 1.465 . S
C1019 C1014 1.399 . S
C1019 C1018 1.394 . S
C1019 C1020 1.516 . S
C1020 C1019 1.516 . S
C1020 C1021 1.502 . S
C1020 C1022 1.561 . S
C1020 C1023 1.526 . S
C1021 H1005 0.959 . S
C1021 H1006 0.959 . S
C1021 H1007 0.961 . S
C1021 C1020 1.502 . S
C1022 H1008 0.960 . S
C1022 H1009 0.961 . S
C1022 H1010 0.959 . S
C1022 C1020 1.561 . S
C1023 C1020 1.526 . S
C1023 C1024 1.396 . S
C1023 C1028 1.390 . S
C1024 C1018 1.465 . S
C1024 C1023 1.396 . S
C1024 C1025 1.399 . S
C1025 H1011 0.929 . S
C1025 C1024 1.399 . S
C1025 C1026 1.385 . S
C1026 H1012 0.931 . S
C1026 C1025 1.385 . S
C1026 C1027 1.389 . S
C1027 C1026 1.389 . S
C1027 C1028 1.387 . S
C1028 H1013 0.930 . S
C1028 C1023 1.390 . S
C1028 C1027 1.387 . S
H1029 C1041 0.930 . S
H1030 C1043 0.930 . S
H1031 C1044 0.930 . S
H1032 C1048 0.959 . S
H1033 C1048 0.959 . S
H1034 C1048 0.961 . S
H1035 C1049 0.960 . S
H1036 C1049 0.961 . S
H1037 C1049 0.959 . S
H1038 C1052 0.929 . S
H1039 C1053 0.931 . S
H1040 C1055 0.930 . S
C1041 H1029 0.930 . S
C1041 C1042 1.399 . S
C1041 C1046 1.399 . S
C1042 C1041 1.399 . S
C1042 C1043 1.376 . S
C1043 H1030 0.930 . S
C1043 C1042 1.376 . S
C1043 C1044 1.388 . S
C1044 H1031 0.930 . S
C1044 C1043 1.388 . S
C1044 C1045 1.390 . S
C1045 C1044 1.390 . S
C1045 C1046 1.394 . S
C1045 C1051 1.465 . S
C1046 C1041 1.399 . S
C1046 C1045 1.394 . S
C1046 C1047 1.516 . S
C1047 C1046 1.516 . S
C1047 C1048 1.502 . S
C1047 C1049 1.561 . S
C1047 C1050 1.526 . S
C1048 H1032 0.959 . S
C1048 H1033 0.959 . S
C1048 H1034 0.961 . S
C1048 C1047 1.502 . S
C1049 H1035 0.960 . S
C1049 H1036 0.961 . S
C1049 H1037 0.959 . S
C1049 C1047 1.561 . S
C1050 C1047 1.526 . S
C1050 C1051 1.396 . S
C1050 C1055 1.390 . S
C1051 C1045 1.465 . S
C1051 C1050 1.396 . S
C1051 C1052 1.399 . S
C1052 H1038 0.929 . S
C1052 C1051 1.399 . S
C1052 C1053 1.385 . S
C1053 H1039 0.931 . S
C1053 C1052 1.385 . S
C1053 C1054 1.389 . S
C1054 C1053 1.389 . S
C1054 C1055 1.387 . S
C1055 H1040 0.930 . S
C1055 C1050 1.390 . S
C1055 C1054 1.387 . S
C421 C61 1.876 . S
C433 C140 1.949 . S
C460 C223 1.969 . S
C448 C70 1.896 . S
C487 C308 1.984 . S
C475 C43 1.810 . S
C514 C392 1.953 . S
C502 C52 1.803 . S
C541 C128 1.958 1_565 S
C529 C25 1.819 . S
C556 C34 1.825 . S
C568 C211 2.001 . S
C583 C7 1.874 . S
C595 C296 1.973 . S
C610 C16 1.797 . S
C622 C380 1.969 1_655 S
C649 C130 0.443 . S
C637 C50 0.515 . S
C676 C226 0.448 . S
C664 C59 0.409 . S
C703 C298 0.551 . S
C691 C67 0.450 . S
C718 C41 0.455 . S
C730 C382 0.421 . S
C745 C14 0.524 . S
C757 C142 0.608 . S
C784 C214 0.437 1_556 S
C772 C23 0.476 . S
C811 C310 0.436 . S
C799 C31 0.447 . S
C826 C5 0.554 . S
C838 C394 0.622 . S
C853 C49 1.859 . S
C865 C127 2.111 . S
C880 C58 1.871 . S
C892 C212 2.079 . S
C919 C295 2.104 . S
C907 C68 1.942 . S
C946 C379 2.115 . S
C934 C40 1.955 . S
C961 C13 1.927 . S
C973 C139 2.092 . S
C1000 C224 2.101 . S
C988 C22 1.918 . S
C1027 C307 2.106 . S
C1015 C32 1.942 . S
C1042 C4 1.933 . S
C1054 C391 2.117 . S
