# Generated by pormake.
# Topology zzz, (3,6)-cn, num edge types: 1
# Building blocks:
#     Node 0, Type 0, BuildingBlock: PAMTOO_clean_linker_0, # of connection points: 3
#     Node 1, Type 0, BuildingBlock: PAMTOO_clean_linker_0, # of connection points: 3
#     Node 2, Type 0, BuildingBlock: PAMTOO_clean_linker_0, # of connection points: 3
#     Node 3, Type 0, BuildingBlock: PAMTOO_clean_linker_0, # of connection points: 3
#     Node 4, Type 0, BuildingBlock: PAMTOO_clean_linker_0, # of connection points: 3
#     Node 5, Type 0, BuildingBlock: PAMTOO_clean_linker_0, # of connection points: 3
#     Node 6, Type 0, BuildingBlock: PAMTOO_clean_linker_0, # of connection points: 3
#     Node 7, Type 0, BuildingBlock: PAMTOO_clean_linker_0, # of connection points: 3
#     Node 8, Type 1, BuildingBlock: MIFKUJ_clean_sbu_0, # of connection points: 6
#     Node 9, Type 1, BuildingBlock: MIFKUJ_clean_sbu_0, # of connection points: 6
#     Node 10, Type 1, BuildingBlock: MIFKUJ_clean_sbu_0, # of connection points: 6
#     Node 11, Type 1, BuildingBlock: MIFKUJ_clean_sbu_0, # of connection points: 6
#     Edge 12, Type (0, 1), BuildingBlock: UVAHIK_clean_linker_0, # of connection points: 2
#     Edge 13, Type (0, 1), BuildingBlock: UVAHIK_clean_linker_0, # of connection points: 2
#     Edge 14, Type (0, 1), BuildingBlock: UVAHIK_clean_linker_0, # of connection points: 2
#     Edge 15, Type (0, 1), BuildingBlock: UVAHIK_clean_linker_0, # of connection points: 2
#     Edge 16, Type (0, 1), BuildingBlock: UVAHIK_clean_linker_0, # of connection points: 2
#     Edge 17, Type (0, 1), BuildingBlock: UVAHIK_clean_linker_0, # of connection points: 2
#     Edge 18, Type (0, 1), BuildingBlock: UVAHIK_clean_linker_0, # of connection points: 2
#     Edge 19, Type (0, 1), BuildingBlock: UVAHIK_clean_linker_0, # of connection points: 2
#     Edge 20, Type (0, 1), BuildingBlock: UVAHIK_clean_linker_0, # of connection points: 2
#     Edge 21, Type (0, 1), BuildingBlock: UVAHIK_clean_linker_0, # of connection points: 2
#     Edge 22, Type (0, 1), BuildingBlock: UVAHIK_clean_linker_0, # of connection points: 2
#     Edge 23, Type (0, 1), BuildingBlock: UVAHIK_clean_linker_0, # of connection points: 2
#     Edge 24, Type (0, 1), BuildingBlock: UVAHIK_clean_linker_0, # of connection points: 2
#     Edge 25, Type (0, 1), BuildingBlock: UVAHIK_clean_linker_0, # of connection points: 2
#     Edge 26, Type (0, 1), BuildingBlock: UVAHIK_clean_linker_0, # of connection points: 2
#     Edge 27, Type (0, 1), BuildingBlock: UVAHIK_clean_linker_0, # of connection points: 2
#     Edge 28, Type (0, 1), BuildingBlock: UVAHIK_clean_linker_0, # of connection points: 2
#     Edge 29, Type (0, 1), BuildingBlock: UVAHIK_clean_linker_0, # of connection points: 2
#     Edge 30, Type (0, 1), BuildingBlock: UVAHIK_clean_linker_0, # of connection points: 2
#     Edge 31, Type (0, 1), BuildingBlock: UVAHIK_clean_linker_0, # of connection points: 2
#     Edge 32, Type (0, 1), BuildingBlock: UVAHIK_clean_linker_0, # of connection points: 2
#     Edge 33, Type (0, 1), BuildingBlock: UVAHIK_clean_linker_0, # of connection points: 2
#     Edge 34, Type (0, 1), BuildingBlock: UVAHIK_clean_linker_0, # of connection points: 2
#     Edge 35, Type (0, 1), BuildingBlock: UVAHIK_clean_linker_0, # of connection points: 2
# Relax obj value: 0.112
# Max RMSD: 0.116
# Mean RMSD: 0.084
data_MOF--net-zzz--node1-MIFKUJ_clean_sbu_0--node2-PAMTOO_clean_linker_0--edge1-UVAHIK_clean_linker_0
_symmetry_space_group_name_H-M    P1
_symmetry_Int_Tables_number       1
_symmetry_cell_setting            triclinic
loop_
_symmetry_equiv_pos_as_xyz
'x, y, z'
_cell_length_a     65.38827
_cell_length_b     65.006683
_cell_length_c     20.402637
_cell_angle_alpha  89.875279
_cell_angle_beta   89.964964
_cell_angle_gamma 89.980183
loop_
_atom_site_label
_atom_site_type_symbol
_atom_site_fract_x
_atom_site_fract_y
_atom_site_fract_z
_atom_type_partial_charge
H0 H 0.79873 0.47777 0.08307 0.0
H1 H 0.73943 0.49012 0.00117 0.0
H2 H 0.75088 0.50187 0.20536 0.0
H3 H 0.70169 0.49281 0.17577 0.0
C4 C 0.70721 0.48956 0.12531 0.0
O5 O 0.72322 0.50272 0.11109 0.0
H6 H 0.71221 0.47316 0.12482 0.0
C7 C 0.78289 0.48233 0.08939 0.0
C8 C 0.77638 0.48932 0.15088 0.0
C9 C 0.7698 0.48254 0.03502 0.0
C10 C 0.74968 0.48961 0.04279 0.0
C11 C 0.74274 0.49616 0.10437 0.0
C12 C 0.75617 0.49633 0.15827 0.0
H13 H 0.98947 0.79326 0.06808 0.0
H14 H 0.98792 0.73071 0.00056 0.0
H15 H 0.96664 0.74549 0.19463 0.0
H16 H 0.98194 0.69482 0.17672 0.0
C17 C 0.98666 0.70118 0.12843 0.0
O18 O 0.97247 0.71571 0.1089 0.0
H19 H 1.00209 0.70812 0.13552 0.0
C20 C 0.98623 0.77713 0.07708 0.0
C21 C 0.97743 0.77123 0.1368 0.0
C22 C 0.99034 0.76265 0.02806 0.0
C23 C 0.98534 0.74197 0.03874 0.0
C24 C 0.97721 0.73572 0.09924 0.0
C25 C 0.97336 0.75033 0.14856 0.0
H26 H 0.72006 0.02798 0.07441 0.0
H27 H 0.77886 0.01625 0.98756 0.0
H28 H 0.76898 0.00399 0.19253 0.0
H29 H 0.81756 0.0134 0.15998 0.0
C30 C 0.81202 0.01653 0.10945 0.0
O31 O 0.79592 0.00343 0.09596 0.0
H32 H 0.80709 0.03295 0.10833 0.0
C33 C 0.73599 0.02356 0.07935 0.0
C34 C 0.74302 0.01653 0.14024 0.0
C35 C 0.74864 0.02348 0.02386 0.0
C36 C 0.7689 0.01662 0.03 0.0
C37 C 0.77634 0.00999 0.09097 0.0
C38 C 0.76332 0.00962 0.14594 0.0
H39 H 0.49255 0.70547 0.13023 0.0
H40 H 0.50317 0.75638 -0.00039 0.0
H41 H 0.53055 0.75581 0.19158 0.0
H42 H 0.52222 0.80089 0.14701 0.0
C43 C 0.51569 0.79527 0.10005 0.0
O44 O 0.52552 0.77726 0.08269 0.0
H45 H 0.49905 0.79262 0.10867 0.0
C46 C 0.49914 0.72051 0.12077 0.0
C47 C 0.51163 0.72955 0.16834 0.0
C48 C 0.49613 0.72989 0.05969 0.0
C49 C 0.50531 0.74897 0.04674 0.0
C50 C 0.51733 0.75853 0.09481 0.0
C51 C 0.52088 0.74861 0.15516 0.0
H52 H 0.21534 0.52714 0.14529 0.0
H53 H 0.27604 0.5186 0.21993 0.0
H54 H 0.26479 0.51356 0.01253 0.0
H55 H 0.30588 0.4869 0.06152 0.0
C56 C 0.30128 0.49231 0.11102 0.0
O57 O 0.29285 0.51174 0.10538 0.0
H58 H 0.28995 0.48099 0.13022 0.0
C59 C 0.23145 0.5243 0.13615 0.0
C60 C 0.23833 0.52093 0.07198 0.0
C61 C 0.24487 0.52344 0.18931 0.0
C62 C 0.26558 0.51927 0.17884 0.0
C63 C 0.27275 0.5156 0.11509 0.0
C64 C 0.25912 0.51628 0.06165 0.0
H65 H 0.98137 0.21441 0.10065 0.0
H66 H 0.99369 0.26921 0.21116 0.0
H67 H 0.01414 0.26443 0.01112 0.0
H68 H 0.04213 0.2958 0.0994 0.0
C69 C 0.03151 0.29238 0.14054 0.0
O70 O 0.0123 0.28842 0.11534 0.0
H71 H 0.03777 0.27873 0.16695 0.0
C72 C 0.98724 0.23 0.10308 0.0
C73 C 0.99734 0.23826 0.0485 0.0
C74 C 0.9861 0.24085 0.16218 0.0
C75 C 0.99446 0.26066 0.16574 0.0
C76 C 0.00438 0.26926 0.11118 0.0
C77 C 0.00612 0.25793 0.05274 0.0
H78 H 0.3026 0.01267 0.12019 0.0
H79 H 0.24344 0.99662 0.19719 0.0
H80 H 0.25255 1.00115 0.98879 0.0
H81 H 0.20118 0.00527 0.0332 0.0
C82 C 0.21022 0.00848 0.07806 0.0
O83 O 0.2257 0.99403 0.08262 0.0
H84 H 0.21666 0.02427 0.07245 0.0
C85 C 0.28652 0.0094 0.11239 0.0
C86 C 0.2791 0.00789 0.04824 0.0
C87 C 0.27391 0.00515 0.16637 0.0
C88 C 0.25335 1.00003 0.15597 0.0
C89 C 0.24554 0.99908 0.09208 0.0
C90 C 0.2585 0.0026 0.03812 0.0
H91 H 0.51578 0.29645 0.09437 0.0
H92 H 0.51586 0.23937 0.20119 0.0
H93 H 0.48814 0.24264 0.00993 0.0
H94 H 0.46737 0.20806 0.10035 0.0
C95 C 0.47856 0.2118 0.13954 0.0
O96 O 0.49652 0.21849 0.1108 0.0
H97 H 0.47155 0.22407 0.17036 0.0
C98 C 0.51197 0.28022 0.09733 0.0
C99 C 0.50131 0.27099 0.04577 0.0
C100 C 0.51738 0.26896 0.15322 0.0
C101 C 0.512 0.24815 0.15773 0.0
C102 C 0.50152 0.23862 0.10602 0.0
C103 C 0.49628 0.25001 0.04969 0.0
Zn104 Zn 0.00517 0.02513 0.57869 0.0
Zn105 Zn 0.01481 0.9723 0.60906 0.0
C106 C 0.99537 0.05345 0.67605 0.0
O107 O 0.97762 0.04962 0.64851 0.0
C108 C 0.00825 0.9545 0.48513 0.0
O109 O 0.02832 0.95512 0.4868 0.0
O110 O 0.9946 0.04638 0.51541 0.0
O111 O 0.03216 0.01499 0.54082 0.0
O112 O 0.04142 0.98445 0.57901 0.0
C113 C 0.00653 0.06172 0.50971 0.0
O114 O 0.02464 0.06083 0.53748 0.0
O115 O 0.01085 0.04304 0.6579 0.0
C116 C 0.00579 0.93257 0.65066 0.0
O117 O 0.98773 0.93958 0.63334 0.0
O118 O 0.02107 0.94466 0.64908 0.0
O119 O 0.99763 0.98725 0.67581 0.0
O120 O 0.9816 0.0061 0.60265 0.0
O121 O 0.99824 0.9637 0.52981 0.0
C122 C 0.04525 1.00059 0.54603 0.0
C123 C 0.98187 0.99724 0.65824 0.0
Zn124 Zn 0.48773 0.99083 0.57722 0.0
Zn125 Zn 0.53387 0.00711 0.61592 0.0
C126 C 0.46446 0.98597 0.68901 0.0
O127 O 0.46658 0.96722 0.66608 0.0
C128 C 0.55655 0.01439 0.50304 0.0
O129 O 0.55323 0.03292 0.52633 0.0
O130 O 0.46201 0.98207 0.52989 0.0
O131 O 0.49855 0.01431 0.52225 0.0
O132 O 0.51481 0.03118 0.59949 0.0
C133 C 0.44815 0.99574 0.53493 0.0
O134 O 0.45271 0.01352 0.56165 0.0
O135 O 0.47525 1.00023 0.66356 0.0
C136 C 0.57303 0.00404 0.66314 0.0
O137 O 0.5693 0.98586 0.63776 0.0
O138 O 0.55866 0.01723 0.66499 0.0
O139 O 0.52449 0.98212 0.66729 0.0
O140 O 0.5053 0.96589 0.59515 0.0
O141 O 0.54745 0.99923 0.52986 0.0
C142 C 0.50516 0.03116 0.54544 0.0
C143 C 0.51635 0.96563 0.64639 0.0
Zn144 Zn 0.51704 0.4827 0.57093 0.0
Zn145 Zn 0.49655 0.51948 0.6441 0.0
C146 C 0.5194 0.45101 0.66046 0.0
O147 O 0.53832 0.45408 0.64103 0.0
C148 C 0.49411 0.55136 0.55223 0.0
O149 O 0.47486 0.54812 0.5676 0.0
O150 O 0.52956 0.46188 0.50959 0.0
O151 O 0.49482 0.49646 0.51753 0.0
O152 O 0.47508 0.50119 0.60284 0.0
C153 C 0.5167 0.44797 0.49489 0.0
O154 O 0.49751 0.45047 0.51238 0.0
O155 O 0.50563 0.46356 0.64149 0.0
C156 C 0.48588 0.54348 0.76137 0.0
O157 O 0.50043 0.53311 0.79109 0.0
O158 O 0.48129 0.53904 0.70267 0.0
O159 O 0.52006 0.50744 0.69638 0.0
O160 O 0.53958 0.49945 0.61221 0.0
O161 O 0.50762 0.53934 0.57581 0.0
C162 C 0.47702 0.49813 0.54173 0.0
C163 C 0.53772 0.50404 0.67249 0.0
Zn164 Zn 0.02834 0.51245 0.58842 0.0
Zn165 Zn 0.98335 0.49336 0.62969 0.0
C166 C 0.05426 0.52287 0.68831 0.0
O167 O 0.04927 0.54034 0.65996 0.0
C168 C 0.96275 0.48813 0.5121 0.0
O169 O 0.96568 0.4692 0.53276 0.0
O170 O 0.05123 0.52371 0.53199 0.0
O171 O 0.01993 0.48645 0.54059 0.0
O172 O 1.00224 0.46934 0.61469 0.0
C173 C 0.0665 0.51157 0.53376 0.0
O174 O 0.06447 0.49355 0.56235 0.0
O175 O 0.04454 0.50669 0.67197 0.0
C176 C 0.94343 0.49663 0.67028 0.0
O177 O 0.94773 0.51494 0.64656 0.0
O178 O 0.95761 0.48326 0.6736 0.0
O179 O 0.99279 0.51694 0.68567 0.0
O180 O 0.00815 0.53525 0.60932 0.0
O181 O 0.97151 0.50274 0.54262 0.0
C182 C 0.01305 0.46954 0.56294 0.0
C183 C 0.99875 0.53423 0.66382 0.0
C184 C 0.19152 0.98881 0.1679 0.0
C185 C 0.19605 0.00755 0.13665 0.0
C186 C 0.17701 0.98798 0.21837 0.0
C187 C 0.14704 0.02105 0.33345 0.0
H188 H 0.11057 0.97406 0.33815 0.0
C189 C 0.0702 0.02019 0.47576 0.0
C190 C 0.06478 1.00198 0.50888 0.0
C191 C 0.08765 0.02089 0.43598 0.0
C192 C 0.12079 0.98717 0.3381 0.0
H193 H 0.18842 0.03991 0.13212 0.0
H194 H 0.16287 0.03849 0.21909 0.0
H195 H 0.13821 0.9751 0.25825 0.0
H196 H 0.07386 0.97036 0.52719 0.0
H197 H 0.10421 0.97162 0.45778 0.0
H198 H 0.12913 0.03332 0.41231 0.0
C199 C 0.17099 0.02452 0.20652 0.0
C200 C 0.13671 0.98776 0.2923 0.0
C201 C 0.18559 0.02536 0.15643 0.0
C202 C 0.07754 0.98466 0.50252 0.0
C203 C 0.09488 0.98532 0.46232 0.0
C204 C 0.131 0.02052 0.37894 0.0
C205 C 0.16638 0.00579 0.23797 0.0
C206 C 0.15 0.00477 0.28901 0.0
C207 C 0.1 0.00335 0.4279 0.0
C208 C 0.11762 0.00362 0.38157 0.0
H209 H 0.19902 0.97473 0.15289 0.0
H210 H 0.17405 0.97331 0.24178 0.0
H211 H 0.15715 0.03424 0.33327 0.0
H212 H 0.06075 0.03383 0.47946 0.0
H213 H 0.09108 0.03498 0.40976 0.0
C214 C 0.47794 0.17341 0.15992 0.0
C215 C 0.48275 0.19326 0.18195 0.0
C216 C 0.48147 0.15628 0.19998 0.0
C217 C 0.4896 0.14143 0.37384 0.0
H218 H 0.50732 0.08988 0.2973 0.0
C219 C 0.51046 0.06927 0.52951 0.0
C220 C 0.50298 0.05034 0.50635 0.0
C221 C 0.50878 0.08711 0.49115 0.0
C222 C 0.50222 0.10413 0.31939 0.0
H223 H 0.49568 0.2108 0.26176 0.0
H224 H 0.50222 0.18087 0.33166 0.0
H225 H 0.50339 0.12013 0.22775 0.0
H226 H 0.48766 0.03547 0.4248 0.0
H227 H 0.48475 0.06644 0.35846 0.0
H228 H 0.4885 0.12532 0.4656 0.0
C229 C 0.49525 0.17851 0.28413 0.0
C230 C 0.49993 0.12149 0.27947 0.0
C231 C 0.49165 0.19564 0.24407 0.0
C232 C 0.49368 0.04974 0.44423 0.0
C233 C 0.49211 0.06749 0.40588 0.0
C234 C 0.492 0.12407 0.41386 0.0
C235 C 0.49008 0.15859 0.2628 0.0
C236 C 0.49338 0.14033 0.30598 0.0
C237 C 0.49971 0.08638 0.42865 0.0
C238 C 0.49812 0.10515 0.38697 0.0
H239 H 0.47118 0.17117 0.112 0.0
H240 H 0.47706 0.14125 0.18212 0.0
H241 H 0.48428 0.15559 0.39591 0.0
H242 H 0.51774 0.07029 0.57705 0.0
H243 H 0.5149 0.10141 0.50992 0.0
C244 C 0.33938 0.49488 0.13092 0.0
C245 C 0.3195 0.49302 0.15625 0.0
C246 C 0.35626 0.49549 0.17304 0.0
C247 C 0.37134 0.50695 0.34337 0.0
H248 H 0.41905 0.47402 0.30194 0.0
C249 C 0.43891 0.49789 0.52478 0.0
C250 C 0.45878 0.49736 0.49846 0.0
C251 C 0.42179 0.49729 0.48362 0.0
C252 C 0.40599 0.48354 0.31391 0.0
H253 H 0.30154 0.49098 0.24511 0.0
H254 H 0.33101 0.4922 0.31902 0.0
H255 H 0.38961 0.47356 0.22884 0.0
H256 H 0.47618 0.49593 0.40801 0.0
H257 H 0.44646 0.49533 0.33646 0.0
H258 H 0.38777 0.51717 0.42796 0.0
C259 C 0.33359 0.4931 0.26666 0.0
C260 C 0.38908 0.48324 0.27197 0.0
C261 C 0.31674 0.49232 0.22447 0.0
C262 C 0.46111 0.49625 0.43005 0.0
C263 C 0.44402 0.49577 0.38893 0.0
C264 C 0.38832 0.50737 0.38514 0.0
C265 C 0.35357 0.49455 0.24142 0.0
C266 C 0.37155 0.49494 0.28615 0.0
C267 C 0.4241 0.49624 0.41509 0.0
C268 C 0.40589 0.49568 0.37097 0.0
H269 H 0.34186 0.49575 0.0785 0.0
H270 H 0.37141 0.49693 0.15207 0.0
H271 H 0.35817 0.51633 0.3553 0.0
H272 H 0.43656 0.49868 0.57726 0.0
H273 H 0.40672 0.49738 0.50568 0.0
C274 C 0.02265 0.30738 0.25101 0.0
C275 C 0.03032 0.31025 0.18734 0.0
C276 C 0.02116 0.32398 0.2943 0.0
C277 C 0.04211 0.37558 0.32603 0.0
H278 H 0.99275 0.38363 0.42823 0.0
C279 C 0.02644 0.45114 0.46407 0.0
C280 C 0.01619 0.45039 0.52466 0.0
C281 C 0.02867 0.43346 0.42597 0.0
C282 C 0.00679 0.38145 0.40093 0.0
H283 H 0.042 0.33268 0.11829 0.0
H284 H 0.03962 0.36173 0.1941 0.0
H285 H 0.99556 0.35393 0.35584 0.0
H286 H 1.00054 0.43025 0.59311 0.0
H287 H 0.00484 0.39923 0.52716 0.0
H288 H 0.05348 0.40293 0.37123 0.0
C289 C 0.03497 0.34661 0.21088 0.0
C290 C 0.00836 0.36445 0.35925 0.0
C291 C 0.03629 0.33004 0.16744 0.0
C292 C 0.00849 0.43139 0.54665 0.0
C293 C 0.01082 0.41363 0.50856 0.0
C294 C 0.04062 0.39248 0.36804 0.0
C295 C 0.02739 0.34378 0.27482 0.0
C296 C 0.02596 0.36144 0.32083 0.0
C297 C 0.02085 0.41446 0.44749 0.0
C298 C 0.02285 0.39579 0.40554 0.0
H299 H 0.01791 0.29226 0.26735 0.0
H300 H 0.01539 0.32127 0.34334 0.0
H301 H 0.05602 0.3735 0.29791 0.0
H302 H 0.0325 0.4655 0.44532 0.0
H303 H 0.03615 0.43484 0.37881 0.0
C304 C 0.8455 1.00033 0.07481 0.0
C305 C 0.82898 0.01337 0.06034 0.0
C306 C 0.86155 0.99794 0.03006 0.0
C307 C 0.87555 0.00486 0.85514 0.0
H308 H 0.93095 0.00534 0.92272 0.0
C309 C 0.94659 0.01019 0.68545 0.0
C310 C 0.96389 0.99852 0.70267 0.0
C311 C 0.92985 0.01166 0.7281 0.0
C312 C 0.91559 0.0049 0.90298 0.0
H313 H 0.81573 0.03337 0.98691 0.0
H314 H 0.84382 0.02934 0.90853 0.0
H315 H 0.90223 0.00811 0.99821 0.0
H316 H 0.97694 0.97893 0.77809 0.0
H317 H 0.94774 0.98122 0.85173 0.0
H318 H 0.88893 1.00164 0.75984 0.0
C319 C 0.84445 0.02097 0.95444 0.0
C320 C 0.89909 0.0065 0.94636 0.0
C321 C 0.82842 0.02339 -0.00066 0.0
C322 C 0.96394 0.98817 0.76329 0.0
C323 C 0.94721 0.98959 0.80581 0.0
C324 C 0.89206 0.00322 0.8117 0.0
C325 C 0.86134 0.00839 0.96955 0.0
C326 C 0.87885 0.00649 0.92306 0.0
C327 C 0.92997 1.00143 0.78898 0.0
C328 C 0.91232 0.00321 0.83505 0.0
H329 H 0.8461 0.99218 0.12113 0.0
H330 H 0.87411 0.98784 0.04279 0.0
H331 H 0.86016 0.00455 0.83555 0.0
H332 H 0.946 0.01837 0.63918 0.0
H333 H 0.91696 0.02111 0.71377 0.0
C334 C 0.50555 0.81072 0.99111 0.0
C335 C 0.51813 0.8112 0.04682 0.0
C336 C 0.50682 0.82628 0.94371 0.0
C337 C 0.52302 0.88037 0.926 0.0
H338 H 0.51762 0.87008 0.73968 0.0
C339 C 0.53243 0.94568 0.73801 0.0
C340 C 0.51849 0.94648 0.68561 0.0
C341 C 0.53353 0.92835 0.77849 0.0
C342 C 0.51895 0.87323 0.79159 0.0
H343 H 0.54275 0.82748 0.09494 0.0
H344 H 0.54514 0.85461 0.0121 0.0
H345 H 0.51771 0.84119 0.81659 0.0
H346 H 0.49512 0.92935 0.63373 0.0
H347 H 0.49685 0.89915 0.70504 0.0
H348 H 0.52398 0.91233 0.90154 0.0
C349 C 0.53393 0.84253 0.00562 0.0
C350 C 0.51903 0.85666 0.83568 0.0
C351 C 0.53266 0.82696 0.05289 0.0
C352 C 0.50607 0.92924 0.67355 0.0
C353 C 0.50711 0.91188 0.71434 0.0
C354 C 0.5229 0.89689 0.88208 0.0
C355 C 0.52078 0.84259 0.951 0.0
C356 C 0.52109 0.86004 0.90347 0.0
C357 C 0.52065 0.91136 0.76796 0.0
C358 C 0.5209 0.89357 0.81427 0.0
H359 H 0.49436 0.79858 0.9852 0.0
H360 H 0.4964 0.82588 0.90249 0.0
H361 H 0.52419 0.88359 0.97793 0.0
H362 H 0.5424 0.95858 0.74838 0.0
H363 H 0.54445 0.92834 0.81838 0.0
C364 C 0.67296 0.50432 0.09165 0.0
C365 C 0.69023 0.49245 0.07611 0.0
C366 C 0.65697 0.50646 0.0466 0.0
C367 C 0.64414 0.50243 0.87084 0.0
H368 H 0.58876 0.49504 0.93458 0.0
C369 C 0.57458 0.49561 0.69566 0.0
C370 C 0.55589 0.50418 0.7161 0.0
C371 C 0.59134 0.49485 0.73834 0.0
C372 C 0.60408 0.49748 0.91593 0.0
H373 H 0.70472 0.47413 0.00085 0.0
H374 H 0.67686 0.478 0.92159 0.0
H375 H 0.61728 0.49294 0.01088 0.0
H376 H 0.54042 0.51921 0.79691 0.0
H377 H 0.56964 0.51841 0.87039 0.0
H378 H 0.63095 0.50718 0.77596 0.0
C379 C 0.67562 0.48559 0.96862 0.0
C380 C 0.62045 0.49622 0.9598 0.0
C381 C 0.69153 0.48331 0.01395 0.0
C382 C 0.5545 0.51234 0.77968 0.0
C383 C 0.57128 0.51175 0.82208 0.0
C384 C 0.62773 0.50386 0.82695 0.0
C385 C 0.65804 0.49701 0.98471 0.0
C386 C 0.64068 0.49865 0.93782 0.0
C387 C 0.58988 0.50278 0.80236 0.0
C388 C 0.60746 0.50139 0.84889 0.0
H389 H 0.67173 0.51173 0.13898 0.0
H390 H 0.64378 0.5156 0.06011 0.0
H391 H 0.65954 0.50458 0.85249 0.0
H392 H 0.57615 0.48906 0.64714 0.0
H393 H 0.6053 0.48759 0.72158 0.0
C394 C 1.00112 0.68601 0.02426 0.0
C395 C 0.9878 0.68432 0.07801 0.0
C396 C 1.00194 0.67049 0.97686 0.0
C397 C 0.99058 0.61548 0.95371 0.0
H398 H 0.99341 0.62833 0.76821 0.0
C399 C 0.98313 0.55201 0.76015 0.0
C400 C 0.99611 0.55277 0.70526 0.0
C401 C 0.98165 0.56871 0.80276 0.0
C402 C 0.99286 0.62447 0.81984 0.0
H403 H 0.96429 0.66564 0.12317 0.0
H404 H 0.96576 0.6384 0.04072 0.0
H405 H 0.99188 0.6562 0.84832 0.0
H406 H 0.0173 0.57203 0.65108 0.0
H407 H 0.01502 0.60116 0.72635 0.0
H408 H 0.99182 0.58385 0.92584 0.0
C409 C 0.97585 0.65151 0.03569 0.0
C410 C 0.99196 0.64045 0.86574 0.0
C411 C 0.97496 0.66709 0.08279 0.0
C412 C 0.00715 0.57094 0.6929 0.0
C413 C 0.00578 0.58767 0.73597 0.0
C414 C 0.99158 0.59954 0.90799 0.0
C415 C 0.98942 0.65298 0.98232 0.0
C416 C 0.99068 0.63612 0.93321 0.0
C417 C 0.99324 0.58662 0.79206 0.0
C418 C 0.99257 0.6038 0.8404 0.0
H419 H 0.01101 0.69928 0.01924 0.0
H420 H 0.01263 0.67204 0.93659 0.0
H421 H 0.99 0.61161 0.00535 0.0
H422 H 0.97419 0.53837 0.77073 0.0
H423 H 0.97145 0.56752 0.84442 0.0
C424 C 0.99213 0.2273 0.27456 0.0
C425 C 0.97885 0.22982 0.22121 0.0
C426 C 0.98868 0.21166 0.3203 0.0
C427 C 0.96634 0.16027 0.31672 0.0
H428 H 0.98816 0.15752 0.49307 0.0
C429 C 0.97979 0.08305 0.45286 0.0
C430 C 0.99932 0.08134 0.48111 0.0
C431 C 0.97276 0.10208 0.42979 0.0
C432 C 0.98193 0.15808 0.44391 0.0
H433 H 0.95025 0.21996 0.17809 0.0
H434 H 0.94383 0.19301 0.25913 0.0
H435 H 0.98213 0.19102 0.44217 0.0
H436 H 0.02677 0.09823 0.50727 0.0
H437 H 0.0146 0.13117 0.46675 0.0
H438 H 0.96684 0.12737 0.31762 0.0
C439 C 0.95726 0.20261 0.26462 0.0
C440 C 0.97846 0.17725 0.41481 0.0
C441 C 0.96081 0.21813 0.2186 0.0
C442 C 0.01166 0.09897 0.48564 0.0
C443 C 0.0046 0.11793 0.46316 0.0
C444 C 0.9697 0.14114 0.34595 0.0
C445 C 0.97179 0.1984 0.31362 0.0
C446 C 0.97131 0.17856 0.34999 0.0
C447 C 0.98507 0.11973 0.43522 0.0
C448 C 0.97822 0.13986 0.40891 0.0
H449 H 0.00622 0.23602 0.27737 0.0
H450 H 1.00026 0.20885 0.35716 0.0
H451 H 0.96112 0.16062 0.26637 0.0
H452 H 0.96988 0.06976 0.44903 0.0
H453 H 0.95764 0.10304 0.40837 0.0
C454 C 0.29616 0.02025 0.25265 0.0
C455 C 0.28327 0.00427 0.2322 0.0
C456 C 0.30926 0.01745 0.30574 0.0
C457 C 0.33748 0.97548 0.3822 0.0
H458 H 0.35883 0.02025 0.48673 0.0
C459 C 0.42173 0.98012 0.46158 0.0
C460 C 0.42676 0.99149 0.51752 0.0
C461 C 0.4013 0.97853 0.44175 0.0
C462 C 0.35293 0.00734 0.4592 0.0
H463 H 0.27261 0.97348 0.25418 0.0
H464 H 0.2954 0.96862 0.34819 0.0
H465 H 0.32633 0.02433 0.43115 0.0
H466 H 0.4146 0.00839 0.60031 0.0
H467 H 0.37901 0.0049 0.56753 0.0
H468 H 0.36418 0.95853 0.40994 0.0
C469 C 0.29558 0.98321 0.3225 0.0
C470 C 0.33433 0.00981 0.42666 0.0
C471 C 0.28238 0.98607 0.26927 0.0
C472 C 0.41108 0.99995 0.55595 0.0
C473 C 0.3907 0.998 0.53704 0.0
C474 C 0.35602 0.97292 0.4153 0.0
C475 C 0.30976 0.99857 0.33953 0.0
C476 C 0.3268 0.99424 0.38566 0.0
C477 C 0.38557 0.98794 0.47838 0.0
C478 C 0.36435 0.98911 0.45224 0.0
H479 H 0.29705 0.03445 0.22483 0.0
H480 H 0.32006 0.02957 0.31696 0.0
H481 H 0.33219 0.96318 0.35075 0.0
H482 H 0.43362 0.97343 0.43141 0.0
H483 H 0.398 0.97082 0.39598 0.0
C484 C 0.54543 0.29083 0.19682 0.0
C485 C 0.52723 0.27993 0.20785 0.0
C486 C 0.55182 0.30586 0.24106 0.0
C487 C 0.53858 0.3313 0.4004 0.0
H488 H 0.55038 0.38098 0.30166 0.0
C489 C 0.51046 0.41077 0.47534 0.0
C490 C 0.5234 0.4279 0.46882 0.0
C491 C 0.51664 0.39148 0.45348 0.0
C492 C 0.54757 0.36721 0.33028 0.0
H493 H 0.50226 0.27484 0.27539 0.0
H494 H 0.51294 0.30142 0.35196 0.0
H495 H 0.55188 0.34784 0.24731 0.0
H496 H 0.5531 0.43823 0.43492 0.0
H497 H 0.56372 0.4043 0.39426 0.0
H498 H 0.53281 0.3511 0.48217 0.0
C499 C 0.52266 0.29821 0.31023 0.0
C500 C 0.54849 0.34812 0.29924 0.0
C501 C 0.51646 0.28296 0.26638 0.0
C502 C 0.54277 0.4253 0.44014 0.0
C503 C 0.54886 0.40595 0.41716 0.0
C504 C 0.53746 0.35043 0.43124 0.0
C505 C 0.53987 0.31054 0.2964 0.0
C506 C 0.54325 0.32998 0.33325 0.0
C507 C 0.53583 0.38886 0.42386 0.0
C508 C 0.54121 0.3686 0.39576 0.0
H509 H 0.55398 0.28863 0.15185 0.0
H510 H 0.56542 0.31468 0.22973 0.0
H511 H 0.53488 0.31763 0.42843 0.0
H512 H 0.49552 0.41218 0.49788 0.0
H513 H 0.50614 0.37867 0.45825 0.0
C514 C 0.23111 0.54509 0.27914 0.0
C515 C 0.23617 0.52553 0.25531 0.0
C516 C 0.21686 0.54715 0.32984 0.0
C517 C 0.18345 0.51665 0.44419 0.0
H518 H 0.14372 0.5587 0.39994 0.0
C519 C 0.10353 0.51377 0.55723 0.0
C520 C 0.0871 0.51858 0.51577 0.0
C521 C 0.12347 0.51892 0.53968 0.0
C522 C 0.15456 0.54677 0.41277 0.0
H523 H 0.23154 0.49284 0.267 0.0
H524 H 0.20645 0.4962 0.35399 0.0
H525 H 0.17695 0.55894 0.34727 0.0
H526 H 0.07829 0.53306 0.42463 0.0
H527 H 0.11333 0.54078 0.3909 0.0
H528 H 0.1605 0.50327 0.50468 0.0
C529 C 0.21368 0.51005 0.33576 0.0
C530 C 0.17388 0.54714 0.38348 0.0
C531 C 0.2281 0.50804 0.28583 0.0
C532 C 0.0908 0.52921 0.45722 0.0
C533 C 0.1109 0.53378 0.43843 0.0
C534 C 0.16402 0.51601 0.47237 0.0
C535 C 0.20713 0.52967 0.35629 0.0
C536 C 0.18836 0.53169 0.39722 0.0
C537 C 0.12756 0.52831 0.47892 0.0
C538 C 0.14907 0.53073 0.45566 0.0
H539 H 0.23702 0.55877 0.25537 0.0
H540 H 0.21256 0.56246 0.3454 0.0
H541 H 0.19432 0.50475 0.45717 0.0
H542 H 0.10096 0.50586 0.60332 0.0
H543 H 0.13568 0.51508 0.57334 0.0
C544 C 0.01563 0.78308 0.96428 0.0
C545 C 0.99858 0.76998 0.96482 0.0
C546 C 0.02017 0.79477 0.90882 0.0
C547 C 0.99049 0.82035 0.78472 0.0
H548 H 0.04294 0.84327 0.73425 0.0
C549 C 0.99389 0.89632 0.64431 0.0
C550 C 0.00815 0.91066 0.66771 0.0
C551 C 0.99521 0.87568 0.66253 0.0
C552 C 0.02817 0.83704 0.74786 0.0
H553 H 0.97418 0.75707 0.90628 0.0
H554 H 0.98215 0.77752 0.80862 0.0
H555 H 0.04167 0.81103 0.7961 0.0
H556 H 0.0355 0.91464 0.72605 0.0
H557 H 0.03734 0.87869 0.76068 0.0
H558 H 0.97693 0.84677 0.74078 0.0
C559 C 0.99189 0.7789 0.85132 0.0
C560 C 0.02745 0.81851 0.78284 0.0
C561 C 0.98741 0.7671 0.9069 0.0
C562 C 0.02426 0.90388 0.70765 0.0
C563 C 0.02539 0.88323 0.72688 0.0
C564 C 0.9912 0.83885 0.75025 0.0
C565 C 0.00764 0.79365 0.85303 0.0
C566 C 0.00861 0.81033 0.80341 0.0
C567 C 0.01061 0.86897 0.70558 0.0
C568 C 0.01006 0.84778 0.73312 0.0
H569 H 0.02452 0.78541 0.00845 0.0
H570 H 0.03234 0.80603 0.91199 0.0
H571 H 0.97572 0.81471 0.80082 0.0
H572 H 0.98157 0.90105 0.6121 0.0
H573 H 0.98387 0.86506 0.64386 0.0
C574 C 0.72546 0.04457 0.95333 0.0
C575 C 0.73942 0.02823 0.95924 0.0
C576 C 0.71177 0.04528 0.90096 0.0
C577 C 0.68554 0.007 0.80268 0.0
H578 H 0.65589 0.05422 0.73559 0.0
C579 C 0.61031 0.99636 0.66462 0.0
C580 C 0.59408 0.00924 0.68337 0.0
C581 C 0.63028 1.00072 0.68373 0.0
C582 C 0.66402 0.04091 0.75409 0.0
H583 H 0.75196 1.00145 0.91054 0.0
H584 H 0.7285 0.00305 0.81775 0.0
H585 H 0.68903 0.05917 0.78903 0.0
H586 H 0.58613 0.03723 0.73495 0.0
H587 H 0.62115 0.04458 0.77043 0.0
H588 H 0.66039 0.9888 0.7705 0.0
C589 C 0.72766 0.01495 0.85475 0.0
C590 C 0.68302 0.04372 0.78438 0.0
C591 C 0.74128 0.01416 0.90748 0.0
C592 C 0.59833 0.02696 0.7202 0.0
C593 C 0.61839 0.03125 0.73992 0.0
C594 C 0.66666 0.00421 0.77251 0.0
C595 C 0.71191 0.02972 0.85324 0.0
C596 C 0.69379 0.02682 0.81031 0.0
C597 C 0.63454 0.01798 0.72267 0.0
C598 C 0.65546 0.02114 0.74903 0.0
H599 H 0.72397 0.05584 0.99211 0.0
H600 H 0.69993 0.05692 0.90143 0.0
H601 H 0.69308 0.99366 0.82342 0.0
H602 H 0.60762 0.9828 0.63505 0.0
H603 H 0.64239 0.99042 0.66849 0.0
C604 C 0.49566 0.71209 0.9519 0.0
C605 C 0.4852 0.71818 0.00865 0.0
C606 C 0.48836 0.69568 0.91446 0.0
C607 C 0.46063 0.64829 0.94803 0.0
H608 H 0.47246 0.63704 0.76546 0.0
C609 C 0.4837 0.56864 0.85379 0.0
C610 C 0.47768 0.56257 0.79069 0.0
C611 C 0.47862 0.58815 0.87733 0.0
C612 C 0.46869 0.63998 0.81629 0.0
H613 H 0.45781 0.7138 0.06664 0.0
H614 H 0.44469 0.68553 0.00024 0.0
H615 H 0.47325 0.67244 0.80506 0.0
H616 H 0.46054 0.57179 0.70425 0.0
H617 H 0.45169 0.60581 0.7456 0.0
H618 H 0.45667 0.61582 0.95975 0.0
C619 C 0.45879 0.69296 0.98554 0.0
C620 C 0.46932 0.66024 0.83904 0.0
C621 C 0.46618 0.70924 0.02318 0.0
C622 C 0.4655 0.576 0.75306 0.0
C623 C 0.46052 0.59555 0.77649 0.0
C624 C 0.46004 0.62807 0.92533 0.0
C625 C 0.47042 0.6852 0.93315 0.0
C626 C 0.4659 0.66456 0.90561 0.0
C627 C 0.46745 0.60201 0.8382 0.0
C628 C 0.4647 0.62362 0.85973 0.0
H629 H 0.51045 0.71865 0.9401 0.0
H630 H 0.49775 0.69008 0.87457 0.0
H631 H 0.45815 0.65096 -0.0002 0.0
H632 H 0.49306 0.55868 0.88401 0.0
H633 H 0.48435 0.59273 0.92489 0.0
C634 C 0.79188 0.46074 0.96335 0.0
C635 C 0.77834 0.4774 0.9698 0.0
C636 C 0.80489 0.45943 0.90933 0.0
C637 C 0.83067 0.49651 0.80475 0.0
H638 H 0.85902 0.44816 0.74064 0.0
C639 C 0.90623 0.5046 0.66673 0.0
C640 C 0.92211 0.49164 0.688 0.0
C641 C 0.88605 0.50066 0.68463 0.0
C642 C 0.85123 0.46179 0.75817 0.0
H643 H 0.76575 0.50415 0.92076 0.0
H644 H 0.78801 0.50151 0.82513 0.0
H645 H 0.82608 0.44433 0.79631 0.0
H646 H 0.92923 0.46388 0.74233 0.0
H647 H 0.89386 0.45729 0.77565 0.0
H648 H 0.85601 0.51391 0.76946 0.0
C649 C 0.78907 0.48982 0.8629 0.0
C650 C 0.83235 0.45961 0.78977 0.0
C651 C 0.77614 0.49122 0.9173 0.0
C652 C 0.9173 0.4742 0.72565 0.0
C653 C 0.89703 0.47034 0.74415 0.0
C654 C 0.84943 0.49867 0.77318 0.0
C655 C 0.80446 0.47469 0.86043 0.0
C656 C 0.82212 0.47692 0.81506 0.0
C657 C 0.88124 0.48377 0.7248 0.0
C658 C 0.8602 0.48132 0.751 0.0
H659 H 0.79359 0.44965 0.0027 0.0
H660 H 0.81647 0.44753 0.90919 0.0
H661 H 0.82355 0.51016 0.82476 0.0
H662 H 0.90937 0.51793 0.6364 0.0
H663 H 0.87421 0.51106 0.6678 0.0
C664 C 0.01863 0.21654 0.97409 0.0
C665 C 0.99952 0.22501 0.99013 0.0
C666 C 0.01983 0.19915 0.93365 0.0
C667 C 0.98819 0.15434 0.8983 0.0
H668 H 0.02778 0.14122 0.76324 0.0
C669 C 0.97995 0.08253 0.73838 0.0
C670 C 0.99752 0.07173 0.71873 0.0
C671 C 0.98158 0.10113 0.77187 0.0
C672 C 0.01682 0.14456 0.80159 0.0
H673 H 0.96694 0.22327 0.97267 0.0
H674 H 0.96901 0.19335 0.90093 0.0
H675 H 0.02812 0.17535 0.81422 0.0
H676 H 0.03068 0.07183 0.7203 0.0
H677 H 0.03355 0.10431 0.78031 0.0
H678 H 0.97701 0.12371 0.887 0.0
C679 C 0.98303 0.19977 0.92034 0.0
C680 C 0.01696 0.16414 0.83042 0.0
C681 C 0.98185 0.21703 0.96066 0.0
C682 C 0.01684 0.07973 0.73508 0.0
C683 C 0.01848 0.09844 0.76877 0.0
C684 C 0.98814 0.13484 0.87001 0.0
C685 C 1.0019 0.19003 0.90903 0.0
C686 C 1.00238 0.16932 0.87829 0.0
C687 C 1.00084 0.10946 0.787 0.0
C688 C 1.00221 0.12976 0.82051 0.0
H689 H 0.03242 0.22227 0.99714 0.0
H690 H 0.03458 0.19198 0.92577 0.0
H691 H 0.97714 0.15764 0.93645 0.0
H692 H 0.96482 0.07688 0.72643 0.0
H693 H 0.96766 0.10928 0.78416 0.0
C694 C 0.29824 0.99316 0.9533 0.0
C695 C 0.29385 0.01006 0.99353 0.0
C696 C 0.31557 0.9933 0.91295 0.0
C697 C 0.36642 0.01872 0.90318 0.0
H698 H 0.37125 0.98633 0.7447 0.0
C699 C 0.44111 0.01118 0.74608 0.0
C700 C 0.44629 0.9908 0.72982 0.0
C701 C 0.42228 0.0156 0.77598 0.0
C702 C 0.3701 0.99544 0.78895 0.0
H703 H 0.30314 0.04088 0.02 0.0
H704 H 0.33279 0.04163 0.94729 0.0
H705 H 0.33772 0.99113 0.79491 0.0
H706 H 0.43594 0.95907 0.7345 0.0
H707 H 0.40329 0.96685 0.78563 0.0
H708 H 0.3989 0.02304 0.89651 0.0
C709 C 0.32337 0.02794 0.94829 0.0
C710 C 0.3509 0.99814 0.81795 0.0
C711 C 0.30623 0.02766 0.98927 0.0
C712 C 0.43252 0.97496 0.7461 0.0
C713 C 0.41369 0.9794 0.77492 0.0
C714 C 0.38559 0.01624 0.8736 0.0
C715 C 0.32877 0.01046 0.9115 0.0
C716 C 0.34882 0.00945 0.87631 0.0
C717 C 0.40819 0.99976 0.78916 0.0
C718 C 0.38768 0.00419 0.81704 0.0
H719 H 0.28911 0.97929 0.95657 0.0
H720 H 0.31923 0.97945 0.88605 0.0
H721 H 0.36561 0.02724 0.94861 0.0
H722 H 0.4513 0.02375 0.73387 0.0
H723 H 0.41842 0.03144 0.78666 0.0
C724 C 0.48202 0.30027 0.99741 0.0
C725 C 0.49587 0.28397 0.98893 0.0
C726 C 0.48113 0.31633 0.95178 0.0
C727 C 0.51655 0.34328 0.84609 0.0
H728 H 0.4693 0.37391 0.78529 0.0
C729 C 0.52714 0.41436 0.68432 0.0
C730 C 0.51423 0.43139 0.69345 0.0
C731 C 0.52288 0.39557 0.71428 0.0
C732 C 0.48265 0.36567 0.80252 0.0
H733 H 0.51881 0.27094 0.92502 0.0
H734 H 0.51728 0.29902 0.84472 0.0
H735 H 0.46449 0.34143 0.84459 0.0
H736 H 0.48639 0.44195 0.73991 0.0
H737 H 0.47933 0.40915 0.79539 0.0
H738 H 0.53477 0.36762 0.80758 0.0
C739 C 0.50707 0.29937 0.88653 0.0
C740 C 0.47988 0.34699 0.83598 0.0
C741 C 0.5078 0.2832 0.93192 0.0
C742 C 0.49667 0.4291 0.73245 0.0
C743 C 0.49258 0.41026 0.76372 0.0
C744 C 0.51931 0.36197 0.81363 0.0
C745 C 0.49433 0.3165 0.89742 0.0
C746 C 0.49683 0.33556 0.85784 0.0
C747 C 0.50581 0.39329 0.75556 0.0
C748 C 0.50244 0.37343 0.79098 0.0
H749 H 0.47293 0.30128 0.04171 0.0
H750 H 0.47128 0.32935 0.96179 0.0
H751 H 0.52991 0.33516 0.86392 0.0
H752 H 0.54051 0.41542 0.65313 0.0
H753 H 0.53307 0.38278 0.70481 0.0
C754 C 0.2213 0.50636 0.97128 0.0
C755 C 0.22321 0.52217 0.01772 0.0
C756 C 0.20463 0.50609 0.92787 0.0
C757 C 0.16165 0.539 0.86601 0.0
H758 H 0.13519 0.48676 0.83214 0.0
C759 C 0.08926 0.53608 0.70906 0.0
C760 C 0.07395 0.52165 0.72385 0.0
C761 C 0.10838 0.535 0.73884 0.0
C762 C 0.14223 0.50152 0.84174 0.0
H763 H 0.20998 0.55072 0.0523 0.0
H764 H 0.18093 0.54999 0.97917 0.0
H765 H 0.1673 0.48756 0.89286 0.0
H766 H 0.06677 0.49455 0.78112 0.0
H767 H 0.09992 0.49341 0.83727 0.0
H768 H 0.13616 0.55318 0.81958 0.0
C769 C 0.1922 0.53787 0.97483 0.0
C770 C 0.1609 0.50195 0.87558 0.0
C771 C 0.20882 0.53821 0.01746 0.0
C772 C 0.07824 0.50598 0.76925 0.0
C773 C 0.09734 0.50523 0.80076 0.0
C774 C 0.1429 0.53861 0.83351 0.0
C775 C 0.1896 0.52163 0.93015 0.0
C776 C 0.17076 0.52075 0.88882 0.0
C777 C 0.11266 0.51985 0.78617 0.0
C778 C 0.13283 0.51989 0.82084 0.0
H779 H 0.23212 0.49374 0.97054 0.0
H780 H 0.20334 0.49351 0.89342 0.0
H781 H 0.16886 0.55377 0.87395 0.0
H782 H 0.08671 0.54801 0.67281 0.0
H783 H 0.11986 0.54608 0.72404 0.0
C784 C 0.98228 0.78903 0.24462 0.0
C785 C 0.97213 0.78757 0.18424 0.0
C786 C 0.98099 0.80717 0.28154 0.0
C787 C 0.97432 0.86221 0.25088 0.0
H788 H 0.97482 0.86719 0.44017 0.0
C789 C 0.00843 0.93148 0.38756 0.0
C790 C 0.99823 0.93893 0.44326 0.0
C791 C 1.00133 0.91401 0.35505 0.0
C792 C 0.97442 0.86606 0.38722 0.0
H793 H 0.95141 0.80295 0.11749 0.0
H794 H 0.94881 0.83435 0.18222 0.0
H795 H 0.9688 0.83352 0.38987 0.0
H796 H 0.97206 0.93435 0.50704 0.0
H797 H 0.95978 0.90357 0.45049 0.0
H798 H 0.9805 0.89454 0.24804 0.0
C799 C 0.95809 0.8218 0.20064 0.0
C800 C 0.97116 0.84677 0.3585 0.0
C801 C 0.95943 0.80379 0.16388 0.0
C802 C 0.98019 0.92908 0.46397 0.0
C803 C 0.97326 0.91134 0.43207 0.0
C804 C 0.97776 0.88138 0.27952 0.0
C805 C 0.96953 0.82406 0.25845 0.0
C806 C 0.97128 0.84461 0.28996 0.0
C807 C 0.98402 0.9034 0.37808 0.0
C808 C 0.97814 0.88349 0.34795 0.0
H809 H 0.99231 0.77678 0.26089 0.0
H810 H 0.99004 0.80846 0.32578 0.0
H811 H 0.97479 0.86107 0.19795 0.0
H812 H 0.02242 0.93869 0.37064 0.0
H813 H 0.01001 0.9082 0.31382 0.0
C814 C 0.72257 0.99635 0.22222 0.0
C815 C 0.72811 0.01541 0.19489 0.0
C816 C 0.70462 0.99453 0.25961 0.0
C817 C 0.65447 0.01934 0.26856 0.0
H818 H 0.64611 0.98855 0.42922 0.0
C819 C 0.58175 0.02829 0.42283 0.0
C820 C 0.57383 0.01131 0.45709 0.0
C821 C 0.60011 0.02674 0.38835 0.0
C822 C 0.64812 0.99691 0.38371 0.0
H823 H 0.72035 0.04774 0.18955 0.0
H824 H 0.68936 0.04469 0.25545 0.0
H825 H 0.68031 0.9902 0.38015 0.0
H826 H 0.57868 0.97911 0.48024 0.0
H827 H 0.61077 0.97628 0.41877 0.0
H828 H 0.62249 0.02601 0.27127 0.0
C829 C 0.69854 0.03106 0.24709 0.0
C830 C 0.66774 0.99794 0.35589 0.0
C831 C 0.71637 0.03287 0.21 0.0
C832 C 0.58429 0.99243 0.45379 0.0
C833 C 0.60281 0.99089 0.41933 0.0
C834 C 0.63494 0.01819 0.29593 0.0
C835 C 0.69197 0.01175 0.26987 0.0
C836 C 0.67117 0.00955 0.29876 0.0
C837 C 0.61112 0.00815 0.38712 0.0
C838 C 0.63154 0.00734 0.35458 0.0
H839 H 0.73124 0.98263 0.21059 0.0
H840 H 0.69996 0.97945 0.27667 0.0
H841 H 0.65649 0.02794 0.2235 0.0
H842 H 0.57411 0.04307 0.42459 0.0
H843 H 0.6061 0.04044 0.36495 0.0
C844 C 0.53439 0.70879 0.24133 0.0
C845 C 0.51528 0.71791 0.22955 0.0
C846 C 0.53631 0.69304 0.28805 0.0
C847 C 0.50843 0.66579 0.42275 0.0
H848 H 0.53502 0.61708 0.35354 0.0
C849 C 0.48459 0.58487 0.50067 0.0
C850 C 0.49981 0.57036 0.51613 0.0
C851 C 0.48971 0.60373 0.47249 0.0
C852 C 0.52782 0.63063 0.37409 0.0
H853 H 0.48357 0.71882 0.25941 0.0
H854 H 0.48682 0.69171 0.34109 0.0
H855 H 0.53889 0.65 0.2968 0.0
H856 H 0.53237 0.56414 0.51208 0.0
H857 H 0.5413 0.59721 0.46112 0.0
H858 H 0.49658 0.6462 0.4982 0.0
C859 C 0.50043 0.69661 0.31516 0.0
C860 C 0.5301 0.64954 0.34178 0.0
C861 C 0.49851 0.71218 0.26837 0.0
C862 C 0.52029 0.57497 0.50072 0.0
C863 C 0.5254 0.59388 0.47167 0.0
C864 C 0.50606 0.64691 0.45469 0.0
C865 C 0.51915 0.68628 0.32389 0.0
C866 C 0.5199 0.66722 0.36462 0.0
C867 C 0.51017 0.6086 0.4584 0.0
C868 C 0.5152 0.629 0.42959 0.0
H869 H 0.54746 0.71277 0.21121 0.0
H870 H 0.551 0.68558 0.2941 0.0
H871 H 0.5007 0.67915 0.44247 0.0
H872 H 0.46866 0.58188 0.51162 0.0
H873 H 0.47758 0.61457 0.4616 0.0
C874 C 0.8038 0.47281 0.2173 0.0
C875 C 0.79168 0.49019 0.20445 0.0
C876 C 0.82175 0.47455 0.25375 0.0
C877 C 0.8521 0.5065 0.3659 0.0
H878 H 0.89774 0.48096 0.27564 0.0
C879 C 0.93528 0.51098 0.4655 0.0
C880 C 0.94587 0.49214 0.46544 0.0
C881 C 0.91689 0.51311 0.43071 0.0
C882 C 0.88518 0.48806 0.30183 0.0
H883 H 0.78796 0.52271 0.22375 0.0
H884 H 0.81942 0.52574 0.28891 0.0
H885 H 0.86369 0.47931 0.2281 0.0
H886 H 0.94602 0.46116 0.42646 0.0
H887 H 0.91426 0.46481 0.36618 0.0
H888 H 0.87363 0.51478 0.44062 0.0
C889 C 0.815 0.51079 0.27036 0.0
C890 C 0.86564 0.4871 0.27458 0.0
C891 C 0.79695 0.50904 0.23351 0.0
C892 C 0.93828 0.47589 0.42732 0.0
C893 C 0.92004 0.47803 0.39251 0.0
C894 C 0.87172 0.50733 0.39361 0.0
C895 C 0.82801 0.49371 0.27832 0.0
C896 C 0.84881 0.49594 0.30683 0.0
C897 C 0.90885 0.4965 0.39482 0.0
C898 C 0.88844 0.49777 0.36242 0.0
H899 H 0.80001 0.45808 0.1957 0.0
H900 H 0.83122 0.46102 0.26035 0.0
H901 H 0.83941 0.5135 0.39172 0.0
H902 H 0.94063 0.52373 0.49495 0.0
H903 H 0.90878 0.52762 0.43293 0.0
loop_
_geom_bond_atom_site_label_1
_geom_bond_atom_site_label_2
_geom_bond_distance
_geom_bond_site_symmetry_2
_ccdc_geom_bond_type
H0 C7 0.929 . S
H1 C10 0.930 . S
H2 C12 0.929 . S
H3 C4 0.969 . S
C4 H3 0.969 . S
C4 O5 1.550 1_556 S
C4 H6 0.973 . S
O5 C4 1.550 1_554 S
O5 C11 1.412 . S
H6 C4 0.973 . S
C7 H0 0.929 . S
C7 C8 1.400 . S
C7 C9 1.351 1_554 S
C8 C7 1.400 . S
C8 C12 1.377 . S
C9 C7 1.351 1_556 S
C9 C10 1.376 . S
C10 H1 0.930 . S
C10 C9 1.376 . S
C10 C11 1.383 1_556 S
C11 O5 1.412 . S
C11 C10 1.383 1_554 S
C11 C12 1.394 . S
C12 H2 0.929 . S
C12 C8 1.377 . S
C12 C11 1.394 . S
H13 C20 0.929 . S
H14 C23 0.930 . S
H15 C25 0.929 . S
H16 C17 0.969 . S
C17 H16 0.969 . S
C17 O18 1.550 1_556 S
C17 H19 0.973 . S
O18 C17 1.550 1_554 S
O18 C24 1.412 . S
H19 C17 0.973 . S
C20 H13 0.929 . S
C20 C21 1.400 . S
C20 C22 1.364 1_554 S
C21 C20 1.400 . S
C21 C25 1.377 . S
C22 C20 1.364 1_556 S
C22 C23 1.374 . S
C23 H14 0.930 . S
C23 C22 1.374 . S
C23 C24 1.383 1_556 S
C24 O18 1.412 . S
C24 C23 1.383 1_554 S
C24 C25 1.394 . S
C25 H15 0.929 . S
C25 C21 1.377 . S
C25 C24 1.394 . S
H26 C33 0.928 . S
H27 C36 0.930 . S
H28 C38 0.928 1_565 S
H29 C30 0.969 . S
C30 H29 0.969 . S
C30 O31 1.550 1_546 S
C30 H32 0.973 1_545 S
O31 C30 1.550 1_564 S
O31 C37 1.405 1_565 S
H32 C30 0.973 1_565 S
C33 H26 0.928 . S
C33 C34 1.400 1_565 S
C33 C35 1.364 1_564 S
C34 C33 1.400 1_545 S
C34 C38 1.377 . S
C35 C33 1.364 1_546 S
C35 C36 1.374 1_545 S
C36 H27 0.930 . S
C36 C35 1.374 1_565 S
C36 C37 1.382 1_566 S
C37 O31 1.405 1_545 S
C37 C36 1.382 1_544 S
C37 C38 1.394 . S
C38 H28 0.928 1_545 S
C38 C34 1.377 . S
C38 C37 1.394 . S
H39 C46 0.929 . S
H40 C49 0.930 . S
H41 C51 0.929 . S
H42 C43 0.969 . S
C43 H42 0.969 . S
C43 O44 1.550 1_556 S
C43 H45 0.973 . S
O44 C43 1.550 1_554 S
O44 C50 1.412 . S
H45 C43 0.973 . S
C46 H39 0.929 . S
C46 C47 1.400 . S
C46 C48 1.364 1_554 S
C47 C46 1.400 . S
C47 C51 1.377 . S
C48 C46 1.364 1_556 S
C48 C49 1.374 . S
C49 H40 0.930 . S
C49 C48 1.374 . S
C49 C50 1.383 1_556 S
C50 O44 1.412 . S
C50 C49 1.383 1_554 S
C50 C51 1.394 . S
C51 H41 0.929 . S
C51 C47 1.377 . S
C51 C50 1.394 . S
H52 C59 0.929 . S
H53 C62 0.930 . S
H54 C64 0.929 . S
H55 C56 0.969 . S
C56 H55 0.969 . S
C56 O57 1.550 . S
C56 H58 0.973 . S
O57 C56 1.550 . S
O57 C63 1.412 . S
H58 C56 0.973 . S
C59 H52 0.929 . S
C59 C60 1.400 . S
C59 C61 1.364 . S
C60 C59 1.400 . S
C60 C64 1.377 . S
C61 C59 1.364 . S
C61 C62 1.374 . S
C62 H53 0.930 . S
C62 C61 1.374 . S
C62 C63 1.383 . S
C63 O57 1.412 . S
C63 C62 1.383 . S
C63 C64 1.394 . S
C64 H54 0.929 . S
C64 C60 1.377 . S
C64 C63 1.394 . S
H65 C72 0.929 . S
H66 C75 0.930 . S
H67 C77 0.929 . S
H68 C69 0.969 . S
C69 H68 0.969 . S
C69 O70 1.550 . S
C69 H71 0.973 . S
O70 C69 1.550 . S
O70 C76 1.412 . S
H71 C69 0.973 . S
C72 H65 0.929 . S
C72 C73 1.400 . S
C72 C74 1.364 . S
C73 C72 1.400 . S
C73 C77 1.377 . S
C74 C72 1.364 . S
C74 C75 1.374 . S
C75 H66 0.930 . S
C75 C74 1.374 . S
C75 C76 1.383 . S
C76 O70 1.412 . S
C76 C75 1.383 . S
C76 C77 1.394 . S
C77 H67 0.929 . S
C77 C73 1.377 . S
C77 C76 1.394 . S
H78 C85 0.929 1_565 S
H79 C88 0.930 . S
H80 C90 0.928 1_565 S
H81 C82 0.969 . S
C82 H81 0.969 . S
C82 O83 1.550 1_545 S
C82 H84 0.973 1_545 S
O83 C82 1.550 1_565 S
O83 C89 1.402 1_565 S
H84 C82 0.973 1_565 S
C85 H78 0.929 1_545 S
C85 C86 1.400 . S
C85 C87 1.364 . S
C86 C85 1.400 . S
C86 C90 1.377 . S
C87 C85 1.364 . S
C87 C88 1.374 1_545 S
C88 H79 0.930 . S
C88 C87 1.374 1_565 S
C88 C89 1.382 1_565 S
C89 O83 1.402 1_545 S
C89 C88 1.382 1_545 S
C89 C90 1.394 . S
C90 H80 0.928 1_545 S
C90 C86 1.377 . S
C90 C89 1.394 . S
H91 C98 0.929 . S
H92 C101 0.930 . S
H93 C103 0.929 . S
H94 C95 0.969 . S
C95 H94 0.969 . S
C95 O96 1.550 . S
C95 H97 0.973 . S
O96 C95 1.550 . S
O96 C102 1.412 . S
H97 C95 0.973 . S
C98 H91 0.929 . S
C98 C99 1.400 . S
C98 C100 1.364 . S
C99 C98 1.400 . S
C99 C103 1.377 . S
C100 C98 1.364 . S
C100 C101 1.374 . S
C101 H92 0.930 . S
C101 C100 1.374 . S
C101 C102 1.383 . S
C102 O96 1.412 . S
C102 C101 1.383 . S
C102 C103 1.394 . S
C103 H93 0.929 . S
C103 C99 1.377 . S
C103 C102 1.394 . S
Zn104 O110 1.969 1_455 S
Zn104 O111 1.965 . S
Zn104 O115 2.024 . S
Zn104 O120 1.969 1_455 S
Zn105 O112 1.942 1_655 S
Zn105 O118 1.958 1_655 S
Zn105 O119 1.978 . S
Zn105 O121 2.041 . S
C106 O107 1.236 . S
C106 O115 1.058 . S
O107 C106 1.236 . S
C108 O109 1.229 1_655 S
C108 O121 1.058 . S
O109 C108 1.229 1_455 S
O110 Zn104 1.969 1_655 S
O110 C113 1.267 1_655 S
O111 Zn104 1.965 . S
O111 C122 1.260 1_545 S
O112 Zn105 1.942 1_455 S
O112 C122 1.258 . S
C113 O110 1.267 1_455 S
C113 O114 1.228 . S
O114 C113 1.228 . S
O115 Zn104 2.024 . S
O115 C106 1.058 . S
C116 O117 1.228 . S
C116 O118 1.267 1_655 S
O117 C116 1.228 . S
O118 Zn105 1.958 1_455 S
O118 C116 1.267 1_455 S
O119 Zn105 1.978 . S
O119 C123 1.260 1_565 S
O120 Zn104 1.969 1_655 S
O120 C123 1.258 . S
O121 Zn105 2.041 . S
O121 C108 1.058 . S
C122 O111 1.260 1_565 S
C122 O112 1.258 . S
C123 O119 1.260 1_545 S
C123 O120 1.258 . S
Zn124 O130 1.969 . S
Zn124 O131 1.965 1_565 S
Zn124 O135 2.024 1_565 S
Zn124 O140 1.969 . S
Zn125 O132 1.969 . S
Zn125 O138 1.969 . S
Zn125 O139 1.965 1_545 S
Zn125 O141 2.024 1_545 S
C126 O127 1.229 1_545 S
C126 O135 1.058 . S
O127 C126 1.229 1_565 S
C128 O129 1.229 1_565 S
C128 O141 1.058 . S
O129 C128 1.229 1_545 S
O130 Zn124 1.969 . S
O130 C133 1.267 . S
O131 Zn124 1.965 1_545 S
O131 C142 1.260 . S
O132 Zn125 1.969 . S
O132 C142 1.258 . S
C133 O130 1.267 . S
C133 O134 1.228 1_565 S
O134 C133 1.228 1_545 S
O135 Zn124 2.024 1_545 S
O135 C126 1.058 . S
C136 O137 1.228 1_545 S
C136 O138 1.267 . S
O137 C136 1.228 1_565 S
O138 Zn125 1.969 . S
O138 C136 1.267 . S
O139 Zn125 1.965 1_565 S
O139 C143 1.260 . S
O140 Zn124 1.969 . S
O140 C143 1.258 . S
O141 Zn125 2.024 1_565 S
O141 C128 1.058 . S
C142 O131 1.260 . S
C142 O132 1.258 . S
C143 O139 1.260 . S
C143 O140 1.258 . S
Zn144 O150 1.969 . S
Zn144 O151 1.965 . S
Zn144 O155 2.024 . S
Zn144 O160 1.969 . S
Zn145 O152 1.969 . S
Zn145 O158 1.969 . S
Zn145 O159 1.965 . S
Zn145 O161 2.024 . S
C146 O147 1.229 . S
C146 O155 1.058 . S
O147 C146 1.229 . S
C148 O149 1.229 . S
C148 O161 1.058 . S
O149 C148 1.229 . S
O150 Zn144 1.969 . S
O150 C153 1.267 . S
O151 Zn144 1.965 . S
O151 C162 1.260 . S
O152 Zn145 1.969 . S
O152 C162 1.258 . S
C153 O150 1.267 . S
C153 O154 1.228 . S
O154 C153 1.228 . S
O155 Zn144 2.024 . S
O155 C146 1.058 . S
C156 O157 1.228 . S
C156 O158 1.267 . S
O157 C156 1.228 . S
O158 Zn145 1.969 . S
O158 C156 1.267 . S
O159 Zn145 1.965 . S
O159 C163 1.260 . S
O160 Zn144 1.969 . S
O160 C163 1.258 . S
O161 Zn145 2.024 . S
O161 C148 1.058 . S
C162 O151 1.260 . S
C162 O152 1.258 . S
C163 O159 1.260 . S
C163 O160 1.258 . S
Zn164 O170 1.969 . S
Zn164 O171 1.965 . S
Zn164 O175 2.024 . S
Zn164 O180 1.969 . S
Zn165 O172 1.969 . S
Zn165 O178 1.969 . S
Zn165 O179 1.965 . S
Zn165 O181 2.024 . S
C166 O167 1.229 . S
C166 O175 1.058 . S
O167 C166 1.229 . S
C168 O169 1.229 . S
C168 O181 1.058 . S
O169 C168 1.229 . S
O170 Zn164 1.969 . S
O170 C173 1.267 . S
O171 Zn164 1.965 . S
O171 C182 1.260 . S
O172 Zn165 1.969 . S
O172 C182 1.258 1_655 S
C173 O170 1.267 . S
C173 O174 1.228 . S
O174 C173 1.228 . S
O175 Zn164 2.024 . S
O175 C166 1.058 . S
C176 O177 1.228 . S
C176 O178 1.267 . S
O177 C176 1.228 . S
O178 Zn165 1.969 . S
O178 C176 1.267 . S
O179 Zn165 1.965 . S
O179 C183 1.246 1_655 S
O180 Zn164 1.969 . S
O180 C183 1.281 . S
O181 Zn165 2.024 . S
O181 C168 1.058 . S
C182 O171 1.260 . S
C182 O172 1.258 1_455 S
C183 O179 1.246 1_455 S
C183 O180 1.281 . S
C184 C185 1.352 1_565 S
C184 C186 1.327 . S
C184 H209 0.950 . S
C185 C184 1.352 1_545 S
C185 C201 1.345 . S
C186 C184 1.327 . S
C186 C205 1.436 . S
C186 H210 0.950 . S
C187 C204 1.574 . S
C187 C206 1.353 1_545 S
C187 H211 0.949 . S
H188 C192 0.949 . S
C189 C190 1.349 1_545 S
C189 C191 1.327 . S
C189 H212 0.950 . S
C190 C189 1.349 1_565 S
C190 C202 1.349 . S
C191 C189 1.327 . S
C191 C207 1.396 1_545 S
C191 H213 0.950 . S
C192 H188 0.949 . S
C192 C200 1.574 . S
C192 C208 1.398 . S
H193 C201 0.950 . S
H194 C199 0.950 . S
H195 C200 0.949 . S
H196 C202 0.950 . S
H197 C203 0.950 . S
H198 C204 0.949 . S
C199 H194 0.950 . S
C199 C201 1.327 . S
C199 C205 1.421 1_545 S
C200 C192 1.574 . S
C200 H195 0.949 . S
C200 C206 1.384 . S
C201 C185 1.345 . S
C201 H193 0.950 . S
C201 C199 1.327 . S
C202 C190 1.349 . S
C202 H196 0.950 . S
C202 C203 1.327 . S
C203 H197 0.950 . S
C203 C202 1.327 . S
C203 C207 1.463 . S
C204 C187 1.574 . S
C204 H198 0.949 . S
C204 C208 1.339 1_545 S
C205 C186 1.436 . S
C205 C199 1.421 1_565 S
C205 C206 1.523 . S
C206 C187 1.353 1_565 S
C206 C200 1.384 . S
C206 C205 1.523 . S
C207 C191 1.396 1_565 S
C207 C203 1.463 . S
C207 C208 1.523 . S
C208 C192 1.398 . S
C208 C204 1.339 1_565 S
C208 C207 1.523 . S
H209 C184 0.950 . S
H210 C186 0.950 . S
H211 C187 0.949 . S
H212 C189 0.950 . S
H213 C191 0.950 . S
C214 C215 1.349 . S
C214 C216 1.327 . S
C214 H239 0.950 . S
C215 C214 1.349 . S
C215 C231 1.349 . S
C216 C214 1.327 . S
C216 C235 1.429 . S
C216 H240 0.950 . S
C217 C234 1.574 . S
C217 C236 1.368 . S
C217 H241 0.949 . S
H218 C222 0.949 . S
C219 C220 1.349 . S
C219 C221 1.327 . S
C219 H242 0.950 . S
C220 C219 1.349 . S
C220 C232 1.349 . S
C221 C219 1.327 . S
C221 C237 1.429 . S
C221 H243 0.950 . S
C222 H218 0.949 . S
C222 C230 1.574 . S
C222 C238 1.368 . S
H223 C231 0.950 . S
H224 C229 0.950 . S
H225 C230 0.949 . S
H226 C232 0.950 . S
H227 C233 0.950 . S
H228 C234 0.949 . S
C229 H224 0.950 . S
C229 C231 1.327 . S
C229 C235 1.429 . S
C230 C222 1.574 . S
C230 H225 0.949 . S
C230 C236 1.368 . S
C231 C215 1.349 . S
C231 H223 0.950 . S
C231 C229 1.327 . S
C232 C220 1.349 . S
C232 H226 0.950 . S
C232 C233 1.327 . S
C233 H227 0.950 . S
C233 C232 1.327 . S
C233 C237 1.429 . S
C234 C217 1.574 . S
C234 H228 0.949 . S
C234 C238 1.368 . S
C235 C216 1.429 . S
C235 C229 1.429 . S
C235 C236 1.523 . S
C236 C217 1.368 . S
C236 C230 1.368 . S
C236 C235 1.523 . S
C237 C221 1.429 . S
C237 C233 1.429 . S
C237 C238 1.523 . S
C238 C222 1.368 . S
C238 C234 1.368 . S
C238 C237 1.523 . S
H239 C214 0.950 . S
H240 C216 0.950 . S
H241 C217 0.949 . S
H242 C219 0.950 . S
H243 C221 0.950 . S
C244 C245 1.349 . S
C244 C246 1.327 . S
C244 H269 0.950 . S
C245 C244 1.349 . S
C245 C261 1.349 . S
C246 C244 1.327 . S
C246 C265 1.429 . S
C246 H270 0.950 . S
C247 C264 1.574 . S
C247 C266 1.368 . S
C247 H271 0.949 . S
H248 C252 0.949 . S
C249 C250 1.349 . S
C249 C251 1.327 . S
C249 H272 0.950 . S
C250 C249 1.349 . S
C250 C262 1.349 . S
C251 C249 1.327 . S
C251 C267 1.429 . S
C251 H273 0.950 . S
C252 H248 0.949 . S
C252 C260 1.574 . S
C252 C268 1.368 . S
H253 C261 0.950 . S
H254 C259 0.950 . S
H255 C260 0.949 . S
H256 C262 0.950 . S
H257 C263 0.950 . S
H258 C264 0.949 . S
C259 H254 0.950 . S
C259 C261 1.327 . S
C259 C265 1.429 . S
C260 C252 1.574 . S
C260 H255 0.949 . S
C260 C266 1.368 . S
C261 C245 1.349 . S
C261 H253 0.950 . S
C261 C259 1.327 . S
C262 C250 1.349 . S
C262 H256 0.950 . S
C262 C263 1.327 . S
C263 H257 0.950 . S
C263 C262 1.327 . S
C263 C267 1.429 . S
C264 C247 1.574 . S
C264 H258 0.949 . S
C264 C268 1.368 . S
C265 C246 1.429 . S
C265 C259 1.429 . S
C265 C266 1.523 . S
C266 C247 1.368 . S
C266 C260 1.368 . S
C266 C265 1.523 . S
C267 C251 1.429 . S
C267 C263 1.429 . S
C267 C268 1.523 . S
C268 C252 1.368 . S
C268 C264 1.368 . S
C268 C267 1.523 . S
H269 C244 0.950 . S
H270 C246 0.950 . S
H271 C247 0.949 . S
H272 C249 0.950 . S
H273 C251 0.950 . S
C274 C275 1.349 . S
C274 C276 1.327 . S
C274 H299 0.950 . S
C275 C274 1.349 . S
C275 C291 1.349 . S
C276 C274 1.327 . S
C276 C295 1.429 . S
C276 H300 0.950 . S
C277 C294 1.574 . S
C277 C296 1.368 . S
C277 H301 0.949 . S
H278 C282 0.949 . S
C279 C280 1.349 . S
C279 C281 1.327 . S
C279 H302 0.950 1_455 S
C280 C279 1.349 . S
C280 C292 1.349 . S
C281 C279 1.327 . S
C281 C297 1.429 . S
C281 H303 0.950 . S
C282 H278 0.949 . S
C282 C290 1.574 . S
C282 C298 1.368 . S
H283 C291 0.950 . S
H284 C289 0.950 . S
H285 C290 0.949 . S
H286 C292 0.950 . S
H287 C293 0.950 . S
H288 C294 0.949 . S
C289 H284 0.950 . S
C289 C291 1.327 . S
C289 C295 1.429 . S
C290 C282 1.574 . S
C290 H285 0.949 . S
C290 C296 1.368 . S
C291 C275 1.349 . S
C291 H283 0.950 . S
C291 C289 1.327 . S
C292 C280 1.349 . S
C292 H286 0.950 . S
C292 C293 1.327 . S
C293 H287 0.950 . S
C293 C292 1.327 . S
C293 C297 1.429 . S
C294 C277 1.574 . S
C294 H288 0.949 . S
C294 C298 1.368 . S
C295 C276 1.429 . S
C295 C289 1.429 . S
C295 C296 1.523 . S
C296 C277 1.368 . S
C296 C290 1.368 . S
C296 C295 1.523 . S
C297 C281 1.429 . S
C297 C293 1.429 . S
C297 C298 1.523 . S
C298 C282 1.368 . S
C298 C294 1.368 . S
C298 C297 1.523 . S
H299 C274 0.950 . S
H300 C276 0.950 . S
H301 C277 0.949 . S
H302 C279 0.950 1_655 S
H303 C281 0.950 . S
C304 C305 1.352 . S
C304 C306 1.327 . S
C304 H329 0.950 1_556 S
C305 C304 1.352 . S
C305 C321 1.346 1_545 S
C306 C304 1.327 . S
C306 C325 1.445 . S
C306 H330 0.950 . S
C307 C324 1.574 . S
C307 C326 1.343 1_565 S
C307 H331 0.949 . S
H308 C312 0.949 . S
C309 C310 1.349 1_565 S
C309 C311 1.327 . S
C309 H332 0.950 . S
C310 C309 1.349 1_545 S
C310 C322 1.349 . S
C311 C309 1.327 . S
C311 C327 1.429 1_565 S
C311 H333 0.950 . S
C312 H308 0.949 . S
C312 C320 1.574 . S
C312 C328 1.407 . S
H313 C321 0.950 . S
H314 C319 0.950 . S
H315 C320 0.949 . S
H316 C322 0.950 . S
H317 C323 0.950 . S
H318 C324 0.949 . S
C319 H314 0.950 . S
C319 C321 1.327 . S
C319 C325 1.413 1_565 S
C320 C312 1.574 . S
C320 H315 0.949 . S
C320 C326 1.394 . S
C321 C305 1.346 1_565 S
C321 H313 0.950 . S
C321 C319 1.327 . S
C322 C310 1.349 . S
C322 H316 0.950 . S
C322 C323 1.327 . S
C323 H317 0.950 . S
C323 C322 1.327 . S
C323 C327 1.429 . S
C324 C307 1.574 . S
C324 H318 0.949 . S
C324 C328 1.330 1_565 S
C325 C306 1.445 . S
C325 C319 1.413 1_545 S
C325 C326 1.523 . S
C326 C307 1.343 1_545 S
C326 C320 1.394 . S
C326 C325 1.523 . S
C327 C311 1.429 1_545 S
C327 C323 1.429 . S
C327 C328 1.524 . S
C328 C312 1.407 . S
C328 C324 1.330 1_545 S
C328 C327 1.524 . S
H329 C304 0.950 1_554 S
H330 C306 0.950 . S
H331 C307 0.949 . S
H332 C309 0.950 . S
H333 C311 0.950 . S
C334 C335 1.349 . S
C334 C336 1.327 . S
C334 H359 0.950 . S
C335 C334 1.349 . S
C335 C351 1.349 . S
C336 C334 1.327 . S
C336 C355 1.429 . S
C336 H360 0.950 . S
C337 C354 1.574 . S
C337 C356 1.368 . S
C337 H361 0.949 . S
H338 C342 0.949 . S
C339 C340 1.349 . S
C339 C341 1.327 . S
C339 H362 0.950 . S
C340 C339 1.349 . S
C340 C352 1.349 . S
C341 C339 1.327 . S
C341 C357 1.429 . S
C341 H363 0.950 . S
C342 H338 0.949 . S
C342 C350 1.574 . S
C342 C358 1.368 . S
H343 C351 0.950 1_554 S
H344 C349 0.950 . S
H345 C350 0.949 . S
H346 C352 0.950 . S
H347 C353 0.950 . S
H348 C354 0.949 . S
C349 H344 0.950 . S
C349 C351 1.327 . S
C349 C355 1.429 . S
C350 C342 1.574 . S
C350 H345 0.949 . S
C350 C356 1.368 . S
C351 C335 1.349 . S
C351 H343 0.950 1_556 S
C351 C349 1.327 . S
C352 C340 1.349 . S
C352 H346 0.950 . S
C352 C353 1.327 . S
C353 H347 0.950 . S
C353 C352 1.327 . S
C353 C357 1.429 . S
C354 C337 1.574 . S
C354 H348 0.949 . S
C354 C358 1.368 . S
C355 C336 1.429 . S
C355 C349 1.429 . S
C355 C356 1.523 . S
C356 C337 1.368 . S
C356 C350 1.368 . S
C356 C355 1.523 . S
C357 C341 1.429 . S
C357 C353 1.429 . S
C357 C358 1.523 . S
C358 C342 1.368 . S
C358 C354 1.368 . S
C358 C357 1.523 . S
H359 C334 0.950 . S
H360 C336 0.950 . S
H361 C337 0.949 . S
H362 C339 0.950 . S
H363 C341 0.950 . S
C364 C365 1.349 . S
C364 C366 1.327 . S
C364 H389 0.950 1_556 S
C365 C364 1.349 . S
C365 C381 1.349 . S
C366 C364 1.327 . S
C366 C385 1.429 . S
C366 H390 0.950 . S
C367 C384 1.574 . S
C367 C386 1.368 . S
C367 H391 0.949 . S
H368 C372 0.949 . S
C369 C370 1.349 . S
C369 C371 1.327 . S
C369 H392 0.950 . S
C370 C369 1.349 . S
C370 C382 1.349 . S
C371 C369 1.327 . S
C371 C387 1.429 . S
C371 H393 0.950 . S
C372 H368 0.949 . S
C372 C380 1.574 . S
C372 C388 1.368 . S
H373 C381 0.950 . S
H374 C379 0.950 . S
H375 C380 0.949 . S
H376 C382 0.950 . S
H377 C383 0.950 . S
H378 C384 0.949 . S
C379 H374 0.950 . S
C379 C381 1.327 . S
C379 C385 1.429 . S
C380 C372 1.574 . S
C380 H375 0.949 . S
C380 C386 1.368 . S
C381 C365 1.349 . S
C381 H373 0.950 . S
C381 C379 1.327 . S
C382 C370 1.349 . S
C382 H376 0.950 . S
C382 C383 1.327 . S
C383 H377 0.950 . S
C383 C382 1.327 . S
C383 C387 1.429 . S
C384 C367 1.574 . S
C384 H378 0.949 . S
C384 C388 1.368 . S
C385 C366 1.429 . S
C385 C379 1.429 . S
C385 C386 1.523 . S
C386 C367 1.368 . S
C386 C380 1.368 . S
C386 C385 1.523 . S
C387 C371 1.429 . S
C387 C383 1.429 . S
C387 C388 1.523 . S
C388 C372 1.368 . S
C388 C384 1.368 . S
C388 C387 1.523 . S
H389 C364 0.950 1_554 S
H390 C366 0.950 . S
H391 C367 0.949 . S
H392 C369 0.950 . S
H393 C371 0.950 . S
C394 C395 1.349 . S
C394 C396 1.327 . S
C394 H419 0.950 . S
C395 C394 1.349 . S
C395 C411 1.349 . S
C396 C394 1.327 . S
C396 C415 1.429 . S
C396 H420 0.950 . S
C397 C414 1.574 . S
C397 C416 1.368 . S
C397 H421 0.949 . S
H398 C402 0.949 . S
C399 C400 1.349 . S
C399 C401 1.327 . S
C399 H422 0.950 . S
C400 C399 1.349 . S
C400 C412 1.349 . S
C401 C399 1.327 . S
C401 C417 1.429 . S
C401 H423 0.950 . S
C402 H398 0.949 . S
C402 C410 1.574 . S
C402 C418 1.368 . S
H403 C411 0.950 1_554 S
H404 C409 0.950 . S
H405 C410 0.949 . S
H406 C412 0.950 1_455 S
H407 C413 0.950 . S
H408 C414 0.949 . S
C409 H404 0.950 . S
C409 C411 1.327 . S
C409 C415 1.429 . S
C410 C402 1.574 . S
C410 H405 0.949 . S
C410 C416 1.368 . S
C411 C395 1.349 . S
C411 H403 0.950 1_556 S
C411 C409 1.327 . S
C412 C400 1.349 . S
C412 H406 0.950 1_655 S
C412 C413 1.327 . S
C413 H407 0.950 . S
C413 C412 1.327 . S
C413 C417 1.429 . S
C414 C397 1.574 . S
C414 H408 0.949 . S
C414 C418 1.368 . S
C415 C396 1.429 . S
C415 C409 1.429 . S
C415 C416 1.523 . S
C416 C397 1.368 . S
C416 C410 1.368 . S
C416 C415 1.523 . S
C417 C401 1.429 . S
C417 C413 1.429 . S
C417 C418 1.523 . S
C418 C402 1.368 . S
C418 C414 1.368 . S
C418 C417 1.523 . S
H419 C394 0.950 . S
H420 C396 0.950 . S
H421 C397 0.949 . S
H422 C399 0.950 . S
H423 C401 0.950 . S
C424 C425 1.349 . S
C424 C426 1.327 . S
C424 H449 0.950 . S
C425 C424 1.349 . S
C425 C441 1.349 . S
C426 C424 1.327 . S
C426 C445 1.429 . S
C426 H450 0.950 . S
C427 C444 1.574 . S
C427 C446 1.368 . S
C427 H451 0.949 . S
H428 C432 0.949 . S
C429 C430 1.349 . S
C429 C431 1.327 . S
C429 H452 0.950 . S
C430 C429 1.349 . S
C430 C442 1.349 . S
C431 C429 1.327 . S
C431 C447 1.429 . S
C431 H453 0.950 . S
C432 H428 0.949 . S
C432 C440 1.574 . S
C432 C448 1.368 . S
H433 C441 0.950 . S
H434 C439 0.950 . S
H435 C440 0.949 . S
H436 C442 0.950 . S
H437 C443 0.950 . S
H438 C444 0.949 . S
C439 H434 0.950 . S
C439 C441 1.327 . S
C439 C445 1.429 . S
C440 C432 1.574 . S
C440 H435 0.949 . S
C440 C446 1.368 . S
C441 C425 1.349 . S
C441 H433 0.950 . S
C441 C439 1.327 . S
C442 C430 1.349 . S
C442 H436 0.950 . S
C442 C443 1.327 . S
C443 H437 0.950 . S
C443 C442 1.327 . S
C443 C447 1.429 . S
C444 C427 1.574 . S
C444 H438 0.949 . S
C444 C448 1.368 . S
C445 C426 1.429 . S
C445 C439 1.429 . S
C445 C446 1.523 . S
C446 C427 1.368 . S
C446 C440 1.368 . S
C446 C445 1.523 . S
C447 C431 1.429 . S
C447 C443 1.429 . S
C447 C448 1.523 . S
C448 C432 1.368 . S
C448 C444 1.368 . S
C448 C447 1.523 . S
H449 C424 0.950 . S
H450 C426 0.950 . S
H451 C427 0.949 . S
H452 C429 0.950 . S
H453 C431 0.950 . S
C454 C455 1.351 . S
C454 C456 1.327 . S
C454 H479 0.950 . S
C455 C454 1.351 . S
C455 C471 1.347 1_545 S
C456 C454 1.327 . S
C456 C475 1.429 1_545 S
C456 H480 0.950 . S
C457 C474 1.574 . S
C457 C476 1.368 . S
C457 H481 0.949 . S
H458 C462 0.949 . S
C459 C460 1.349 . S
C459 C461 1.327 . S
C459 H482 0.950 . S
C460 C459 1.349 . S
C460 C472 1.349 1_565 S
C461 C459 1.327 . S
C461 C477 1.429 . S
C461 H483 0.950 . S
C462 H458 0.949 . S
C462 C470 1.574 . S
C462 C478 1.368 1_545 S
H463 C471 0.950 . S
H464 C469 0.950 . S
H465 C470 0.949 . S
H466 C472 0.950 . S
H467 C473 0.950 . S
H468 C474 0.949 . S
C469 H464 0.950 . S
C469 C471 1.327 . S
C469 C475 1.429 . S
C470 C462 1.574 . S
C470 H465 0.949 . S
C470 C476 1.368 1_545 S
C471 C455 1.347 1_565 S
C471 H463 0.950 . S
C471 C469 1.327 . S
C472 C460 1.349 1_545 S
C472 H466 0.950 . S
C472 C473 1.327 . S
C473 H467 0.950 . S
C473 C472 1.327 . S
C473 C477 1.429 1_545 S
C474 C457 1.574 . S
C474 H468 0.949 . S
C474 C478 1.368 . S
C475 C456 1.429 1_565 S
C475 C469 1.429 . S
C475 C476 1.523 . S
C476 C457 1.368 . S
C476 C470 1.368 1_565 S
C476 C475 1.523 . S
C477 C461 1.429 . S
C477 C473 1.429 1_565 S
C477 C478 1.523 . S
C478 C462 1.368 1_565 S
C478 C474 1.368 . S
C478 C477 1.523 . S
H479 C454 0.950 . S
H480 C456 0.950 . S
H481 C457 0.949 . S
H482 C459 0.950 . S
H483 C461 0.950 . S
C484 C485 1.349 . S
C484 C486 1.327 . S
C484 H509 0.950 . S
C485 C484 1.349 . S
C485 C501 1.349 . S
C486 C484 1.327 . S
C486 C505 1.429 . S
C486 H510 0.950 . S
C487 C504 1.574 . S
C487 C506 1.368 . S
C487 H511 0.949 . S
H488 C492 0.949 . S
C489 C490 1.349 . S
C489 C491 1.327 . S
C489 H512 0.950 . S
C490 C489 1.349 . S
C490 C502 1.349 . S
C491 C489 1.327 . S
C491 C507 1.429 . S
C491 H513 0.950 . S
C492 H488 0.949 . S
C492 C500 1.574 . S
C492 C508 1.368 . S
H493 C501 0.950 . S
H494 C499 0.950 . S
H495 C500 0.949 . S
H496 C502 0.950 . S
H497 C503 0.950 . S
H498 C504 0.949 . S
C499 H494 0.950 . S
C499 C501 1.327 . S
C499 C505 1.429 . S
C500 C492 1.574 . S
C500 H495 0.949 . S
C500 C506 1.368 . S
C501 C485 1.349 . S
C501 H493 0.950 . S
C501 C499 1.327 . S
C502 C490 1.349 . S
C502 H496 0.950 . S
C502 C503 1.327 . S
C503 H497 0.950 . S
C503 C502 1.327 . S
C503 C507 1.429 . S
C504 C487 1.574 . S
C504 H498 0.949 . S
C504 C508 1.368 . S
C505 C486 1.429 . S
C505 C499 1.429 . S
C505 C506 1.523 . S
C506 C487 1.368 . S
C506 C500 1.368 . S
C506 C505 1.523 . S
C507 C491 1.429 . S
C507 C503 1.429 . S
C507 C508 1.523 . S
C508 C492 1.368 . S
C508 C504 1.368 . S
C508 C507 1.523 . S
H509 C484 0.950 . S
H510 C486 0.950 . S
H511 C487 0.949 . S
H512 C489 0.950 . S
H513 C491 0.950 . S
C514 C515 1.349 . S
C514 C516 1.327 . S
C514 H539 0.950 . S
C515 C514 1.349 . S
C515 C531 1.349 . S
C516 C514 1.327 . S
C516 C535 1.429 . S
C516 H540 0.950 . S
C517 C534 1.574 . S
C517 C536 1.368 . S
C517 H541 0.949 . S
H518 C522 0.949 . S
C519 C520 1.349 . S
C519 C521 1.327 . S
C519 H542 0.950 . S
C520 C519 1.349 . S
C520 C532 1.349 . S
C521 C519 1.327 . S
C521 C537 1.429 . S
C521 H543 0.950 . S
C522 H518 0.949 . S
C522 C530 1.574 . S
C522 C538 1.368 . S
H523 C531 0.950 . S
H524 C529 0.950 . S
H525 C530 0.949 . S
H526 C532 0.950 . S
H527 C533 0.950 . S
H528 C534 0.949 . S
C529 H524 0.950 . S
C529 C531 1.327 . S
C529 C535 1.429 . S
C530 C522 1.574 . S
C530 H525 0.949 . S
C530 C536 1.368 . S
C531 C515 1.349 . S
C531 H523 0.950 . S
C531 C529 1.327 . S
C532 C520 1.349 . S
C532 H526 0.950 . S
C532 C533 1.327 . S
C533 H527 0.950 . S
C533 C532 1.327 . S
C533 C537 1.429 . S
C534 C517 1.574 . S
C534 H528 0.949 . S
C534 C538 1.368 . S
C535 C516 1.429 . S
C535 C529 1.429 . S
C535 C536 1.523 . S
C536 C517 1.368 . S
C536 C530 1.368 . S
C536 C535 1.523 . S
C537 C521 1.429 . S
C537 C533 1.429 . S
C537 C538 1.523 . S
C538 C522 1.368 . S
C538 C534 1.368 . S
C538 C537 1.523 . S
H539 C514 0.950 . S
H540 C516 0.950 . S
H541 C517 0.949 . S
H542 C519 0.950 . S
H543 C521 0.950 . S
C544 C545 1.349 . S
C544 C546 1.327 . S
C544 H569 0.950 . S
C545 C544 1.349 . S
C545 C561 1.349 . S
C546 C544 1.327 . S
C546 C565 1.429 . S
C546 H570 0.950 . S
C547 C564 1.574 . S
C547 C566 1.368 . S
C547 H571 0.949 . S
H548 C552 0.949 1_455 S
C549 C550 1.378 . S
C549 C551 1.327 . S
C549 H572 0.950 . S
C550 C549 1.378 . S
C550 C562 1.330 1_655 S
C551 C549 1.327 . S
C551 C567 1.429 . S
C551 H573 0.950 . S
C552 H548 0.949 1_655 S
C552 C560 1.574 . S
C552 C568 1.368 . S
H553 C561 0.950 1_554 S
H554 C559 0.950 . S
H555 C560 0.949 . S
H556 C562 0.950 . S
H557 C563 0.950 . S
H558 C564 0.949 . S
C559 H554 0.950 . S
C559 C561 1.327 . S
C559 C565 1.429 . S
C560 C552 1.574 . S
C560 H555 0.949 . S
C560 C566 1.368 . S
C561 C545 1.349 . S
C561 H553 0.950 1_556 S
C561 C559 1.327 . S
C562 C550 1.330 1_455 S
C562 H556 0.950 . S
C562 C563 1.327 . S
C563 H557 0.950 . S
C563 C562 1.327 . S
C563 C567 1.429 1_455 S
C564 C547 1.574 . S
C564 H558 0.949 . S
C564 C568 1.368 . S
C565 C546 1.429 . S
C565 C559 1.429 . S
C565 C566 1.523 . S
C566 C547 1.368 . S
C566 C560 1.368 . S
C566 C565 1.523 . S
C567 C551 1.429 . S
C567 C563 1.429 1_655 S
C567 C568 1.523 . S
C568 C552 1.368 . S
C568 C564 1.368 . S
C568 C567 1.523 . S
H569 C544 0.950 . S
H570 C546 0.950 . S
H571 C547 0.949 . S
H572 C549 0.950 . S
H573 C551 0.950 . S
C574 C575 1.346 . S
C574 C576 1.327 . S
C574 H599 0.950 . S
C575 C574 1.346 . S
C575 C591 1.352 1_545 S
C576 C574 1.327 . S
C576 C595 1.429 . S
C576 H600 0.950 . S
C577 C594 1.574 . S
C577 C596 1.368 1_565 S
C577 H601 0.949 . S
H578 C582 0.949 . S
C579 C580 1.349 1_565 S
C579 C581 1.327 . S
C579 H602 0.950 . S
C580 C579 1.349 1_545 S
C580 C592 1.349 . S
C581 C579 1.327 . S
C581 C597 1.429 1_565 S
C581 H603 0.950 . S
C582 H578 0.949 . S
C582 C590 1.574 . S
C582 C598 1.368 . S
H583 C591 0.950 1_554 S
H584 C589 0.950 . S
H585 C590 0.949 . S
H586 C592 0.950 . S
H587 C593 0.950 . S
H588 C594 0.949 . S
C589 H584 0.950 . S
C589 C591 1.327 . S
C589 C595 1.429 1_565 S
C590 C582 1.574 . S
C590 H585 0.949 . S
C590 C596 1.368 . S
C591 C575 1.352 1_565 S
C591 H583 0.950 1_556 S
C591 C589 1.327 . S
C592 C580 1.349 . S
C592 H586 0.950 . S
C592 C593 1.327 . S
C593 H587 0.950 . S
C593 C592 1.327 . S
C593 C597 1.429 . S
C594 C577 1.574 . S
C594 H588 0.949 . S
C594 C598 1.368 1_565 S
C595 C576 1.429 . S
C595 C589 1.429 1_545 S
C595 C596 1.523 . S
C596 C577 1.368 1_545 S
C596 C590 1.368 . S
C596 C595 1.523 . S
C597 C581 1.429 1_545 S
C597 C593 1.429 . S
C597 C598 1.523 . S
C598 C582 1.368 . S
C598 C594 1.368 1_545 S
C598 C597 1.523 . S
H599 C574 0.950 . S
H600 C576 0.950 . S
H601 C577 0.949 . S
H602 C579 0.950 . S
H603 C581 0.950 . S
C604 C605 1.349 . S
C604 C606 1.327 . S
C604 H629 0.950 . S
C605 C604 1.349 . S
C605 C621 1.341 1_556 S
C606 C604 1.327 . S
C606 C625 1.429 . S
C606 H630 0.950 . S
C607 C624 1.574 . S
C607 C626 1.368 . S
C607 H631 0.949 . S
H608 C612 0.949 . S
C609 C610 1.349 . S
C609 C611 1.327 . S
C609 H632 0.950 . S
C610 C609 1.349 . S
C610 C622 1.349 . S
C611 C609 1.327 . S
C611 C627 1.429 . S
C611 H633 0.950 . S
C612 H608 0.949 . S
C612 C620 1.574 . S
C612 C628 1.368 . S
H613 C621 0.964 . S
H614 C619 0.947 1_554 S
H615 C620 0.949 . S
H616 C622 0.950 . S
H617 C623 0.950 . S
H618 C624 0.949 . S
C619 H614 0.947 1_556 S
C619 C621 1.321 1_556 S
C619 C625 1.429 . S
C620 C612 1.574 . S
C620 H615 0.949 . S
C620 C626 1.368 . S
C621 C605 1.341 1_554 S
C621 H613 0.964 . S
C621 C619 1.321 1_554 S
C622 C610 1.349 . S
C622 H616 0.950 . S
C622 C623 1.327 . S
C623 H617 0.950 . S
C623 C622 1.327 . S
C623 C627 1.429 . S
C624 C607 1.574 . S
C624 H618 0.949 . S
C624 C628 1.368 . S
C625 C606 1.429 . S
C625 C619 1.429 . S
C625 C626 1.523 . S
C626 C607 1.368 . S
C626 C620 1.368 . S
C626 C625 1.523 . S
C627 C611 1.429 . S
C627 C623 1.429 . S
C627 C628 1.523 . S
C628 C612 1.368 . S
C628 C624 1.368 . S
C628 C627 1.523 . S
H629 C604 0.950 . S
H630 C606 0.950 . S
H631 C607 0.949 . S
H632 C609 0.950 . S
H633 C611 0.950 . S
C634 C635 1.349 . S
C634 C636 1.327 . S
C634 H659 0.950 . S
C635 C634 1.349 . S
C635 C651 1.349 . S
C636 C634 1.327 . S
C636 C655 1.429 . S
C636 H660 0.950 . S
C637 C654 1.574 . S
C637 C656 1.368 . S
C637 H661 0.949 . S
H638 C642 0.949 . S
C639 C640 1.349 . S
C639 C641 1.327 . S
C639 H662 0.950 . S
C640 C639 1.349 . S
C640 C652 1.349 . S
C641 C639 1.327 . S
C641 C657 1.429 . S
C641 H663 0.950 . S
C642 H638 0.949 . S
C642 C650 1.574 . S
C642 C658 1.368 . S
H643 C651 0.950 1_554 S
H644 C649 0.950 . S
H645 C650 0.949 . S
H646 C652 0.950 . S
H647 C653 0.950 . S
H648 C654 0.949 . S
C649 H644 0.950 . S
C649 C651 1.327 . S
C649 C655 1.429 . S
C650 C642 1.574 . S
C650 H645 0.949 . S
C650 C656 1.368 . S
C651 C635 1.349 . S
C651 H643 0.950 1_556 S
C651 C649 1.327 . S
C652 C640 1.349 . S
C652 H646 0.950 . S
C652 C653 1.327 . S
C653 H647 0.950 . S
C653 C652 1.327 . S
C653 C657 1.429 . S
C654 C637 1.574 . S
C654 H648 0.949 . S
C654 C658 1.368 . S
C655 C636 1.429 . S
C655 C649 1.429 . S
C655 C656 1.523 . S
C656 C637 1.368 . S
C656 C650 1.368 . S
C656 C655 1.523 . S
C657 C641 1.429 . S
C657 C653 1.429 . S
C657 C658 1.523 . S
C658 C642 1.368 . S
C658 C654 1.368 . S
C658 C657 1.523 . S
H659 C634 0.950 . S
H660 C636 0.950 . S
H661 C637 0.949 . S
H662 C639 0.950 . S
H663 C641 0.950 . S
C664 C665 1.349 1_556 S
C664 C666 1.327 . S
C664 H689 0.950 . S
C665 C664 1.349 1_554 S
C665 C681 1.349 . S
C666 C664 1.327 . S
C666 C685 1.429 . S
C666 H690 0.950 . S
C667 C684 1.574 . S
C667 C686 1.368 . S
C667 H691 0.949 1_556 S
H668 C672 0.949 . S
C669 C670 1.349 . S
C669 C671 1.327 . S
C669 H692 0.950 . S
C670 C669 1.349 . S
C670 C682 1.349 . S
C671 C669 1.327 . S
C671 C687 1.429 . S
C671 H693 0.950 . S
C672 H668 0.949 . S
C672 C680 1.574 . S
C672 C688 1.368 . S
H673 C681 0.950 . S
H674 C679 0.950 . S
H675 C680 0.949 . S
H676 C682 0.950 . S
H677 C683 0.950 . S
H678 C684 0.949 . S
C679 H674 0.950 . S
C679 C681 1.327 . S
C679 C685 1.429 1_554 S
C680 C672 1.574 . S
C680 H675 0.949 . S
C680 C686 1.368 . S
C681 C665 1.349 . S
C681 H673 0.950 . S
C681 C679 1.327 . S
C682 C670 1.349 . S
C682 H676 0.950 . S
C682 C683 1.327 . S
C683 H677 0.950 . S
C683 C682 1.327 . S
C683 C687 1.429 . S
C684 C667 1.574 . S
C684 H678 0.949 . S
C684 C688 1.368 . S
C685 C666 1.429 . S
C685 C679 1.429 1_556 S
C685 C686 1.523 . S
C686 C667 1.368 . S
C686 C680 1.368 . S
C686 C685 1.523 . S
C687 C671 1.429 . S
C687 C683 1.429 . S
C687 C688 1.523 . S
C688 C672 1.368 . S
C688 C684 1.368 . S
C688 C687 1.523 . S
H689 C664 0.950 . S
H690 C666 0.950 . S
H691 C667 0.949 1_554 S
H692 C669 0.950 . S
H693 C671 0.950 . S
C694 C695 1.329 1_566 S
C694 C696 1.327 . S
C694 H719 0.950 . S
C695 C694 1.329 1_544 S
C695 C711 1.370 . S
C696 C694 1.327 . S
C696 C715 1.429 1_565 S
C696 H720 0.950 . S
C697 C714 1.574 . S
C697 C716 1.368 . S
C697 H721 0.949 . S
H698 C702 0.949 . S
C699 C700 1.349 . S
C699 C701 1.327 . S
C699 H722 0.950 . S
C700 C699 1.349 . S
C700 C712 1.349 1_545 S
C701 C699 1.327 . S
C701 C717 1.429 . S
C701 H723 0.950 . S
C702 H698 0.949 . S
C702 C710 1.574 . S
C702 C718 1.368 1_565 S
H703 C711 0.950 . S
H704 C709 0.950 . S
H705 C710 0.949 . S
H706 C712 0.950 . S
H707 C713 0.950 . S
H708 C714 0.949 . S
C709 H704 0.950 . S
C709 C711 1.327 . S
C709 C715 1.429 1_554 S
C710 C702 1.574 . S
C710 H705 0.949 . S
C710 C716 1.368 1_565 S
C711 C695 1.370 . S
C711 H703 0.950 . S
C711 C709 1.327 . S
C712 C700 1.349 1_565 S
C712 H706 0.950 . S
C712 C713 1.327 . S
C713 H707 0.950 . S
C713 C712 1.327 . S
C713 C717 1.429 1_565 S
C714 C697 1.574 . S
C714 H708 0.949 . S
C714 C718 1.368 . S
C715 C696 1.429 1_545 S
C715 C709 1.429 1_556 S
C715 C716 1.523 . S
C716 C697 1.368 . S
C716 C710 1.368 1_545 S
C716 C715 1.523 . S
C717 C701 1.429 . S
C717 C713 1.429 1_545 S
C717 C718 1.523 . S
C718 C702 1.368 1_545 S
C718 C714 1.368 . S
C718 C717 1.523 . S
H719 C694 0.950 . S
H720 C696 0.950 . S
H721 C697 0.949 . S
H722 C699 0.950 . S
H723 C701 0.950 . S
C724 C725 1.349 1_556 S
C724 C726 1.327 . S
C724 H749 0.950 . S
C725 C724 1.349 1_554 S
C725 C741 1.349 . S
C726 C724 1.327 . S
C726 C745 1.429 . S
C726 H750 0.950 . S
C727 C744 1.574 . S
C727 C746 1.368 . S
C727 H751 0.949 1_556 S
H728 C732 0.949 . S
C729 C730 1.349 . S
C729 C731 1.327 . S
C729 H752 0.950 . S
C730 C729 1.349 . S
C730 C742 1.349 . S
C731 C729 1.327 . S
C731 C747 1.429 . S
C731 H753 0.950 . S
C732 H728 0.949 . S
C732 C740 1.574 . S
C732 C748 1.368 . S
H733 C741 0.950 . S
H734 C739 0.950 . S
H735 C740 0.949 . S
H736 C742 0.950 . S
H737 C743 0.950 . S
H738 C744 0.949 . S
C739 H734 0.950 . S
C739 C741 1.327 . S
C739 C745 1.429 1_554 S
C740 C732 1.574 . S
C740 H735 0.949 . S
C740 C746 1.368 . S
C741 C725 1.349 . S
C741 H733 0.950 . S
C741 C739 1.327 . S
C742 C730 1.349 . S
C742 H736 0.950 . S
C742 C743 1.327 . S
C743 H737 0.950 . S
C743 C742 1.327 . S
C743 C747 1.429 . S
C744 C727 1.574 . S
C744 H738 0.949 . S
C744 C748 1.368 . S
C745 C726 1.429 . S
C745 C739 1.429 1_556 S
C745 C746 1.523 . S
C746 C727 1.368 . S
C746 C740 1.368 . S
C746 C745 1.523 . S
C747 C731 1.429 . S
C747 C743 1.429 . S
C747 C748 1.523 . S
C748 C732 1.368 . S
C748 C744 1.368 . S
C748 C747 1.523 . S
H749 C724 0.950 . S
H750 C726 0.950 . S
H751 C727 0.949 1_554 S
H752 C729 0.950 . S
H753 C731 0.950 . S
C754 C755 1.349 . S
C754 C756 1.327 . S
C754 H779 0.950 . S
C755 C754 1.349 . S
C755 C771 1.349 1_554 S
C756 C754 1.327 . S
C756 C775 1.429 1_554 S
C756 H780 0.950 . S
C757 C774 1.574 . S
C757 C776 1.368 . S
C757 H781 0.949 . S
H758 C762 0.949 . S
C759 C760 1.349 . S
C759 C761 1.327 . S
C759 H782 0.950 . S
C760 C759 1.349 . S
C760 C772 1.349 . S
C761 C759 1.327 . S
C761 C777 1.429 . S
C761 H783 0.950 . S
C762 H758 0.949 . S
C762 C770 1.574 . S
C762 C778 1.368 . S
H763 C771 0.950 . S
H764 C769 0.950 . S
H765 C770 0.959 . S
H766 C772 0.950 . S
H767 C773 0.950 . S
H768 C774 0.949 . S
C769 H764 0.950 . S
C769 C771 1.327 . S
C769 C775 1.429 . S
C770 C762 1.574 . S
C770 H765 0.959 . S
C770 C776 1.368 . S
C771 C755 1.349 1_556 S
C771 H763 0.950 . S
C771 C769 1.327 . S
C772 C760 1.349 . S
C772 H766 0.950 . S
C772 C773 1.327 . S
C773 H767 0.950 . S
C773 C772 1.327 . S
C773 C777 1.429 . S
C774 C757 1.574 . S
C774 H768 0.949 . S
C774 C778 1.368 . S
C775 C756 1.429 1_556 S
C775 C769 1.429 . S
C775 C776 1.523 . S
C776 C757 1.368 . S
C776 C770 1.368 . S
C776 C775 1.523 . S
C777 C761 1.429 . S
C777 C773 1.429 . S
C777 C778 1.523 . S
C778 C762 1.368 . S
C778 C774 1.368 . S
C778 C777 1.523 . S
H779 C754 0.950 . S
H780 C756 0.950 . S
H781 C757 0.949 . S
H782 C759 0.950 . S
H783 C761 0.950 . S
C784 C785 1.349 . S
C784 C786 1.327 . S
C784 H809 0.950 . S
C785 C784 1.349 . S
C785 C801 1.349 . S
C786 C784 1.327 . S
C786 C805 1.429 . S
C786 H810 0.950 . S
C787 C804 1.574 . S
C787 C806 1.368 . S
C787 H811 0.949 . S
H788 C792 0.949 . S
C789 C790 1.349 . S
C789 C791 1.327 . S
C789 H812 0.950 . S
C790 C789 1.349 . S
C790 C802 1.349 . S
C791 C789 1.327 . S
C791 C807 1.429 . S
C791 H813 0.950 . S
C792 H788 0.949 . S
C792 C800 1.574 . S
C792 C808 1.368 . S
H793 C801 0.950 . S
H794 C799 0.950 . S
H795 C800 0.949 . S
H796 C802 0.950 1_455 S
H797 C803 0.932 1_455 S
H798 C804 0.949 . S
C799 H794 0.950 . S
C799 C801 1.327 . S
C799 C805 1.429 . S
C800 C792 1.574 . S
C800 H795 0.949 . S
C800 C806 1.368 . S
C801 C785 1.349 . S
C801 H793 0.950 . S
C801 C799 1.327 . S
C802 C790 1.349 . S
C802 H796 0.950 1_655 S
C802 C803 1.327 . S
C803 H797 0.932 1_655 S
C803 C802 1.327 . S
C803 C807 1.429 . S
C804 C787 1.574 . S
C804 H798 0.949 . S
C804 C808 1.368 . S
C805 C786 1.429 . S
C805 C799 1.429 . S
C805 C806 1.523 . S
C806 C787 1.368 . S
C806 C800 1.368 . S
C806 C805 1.523 . S
C807 C791 1.429 . S
C807 C803 1.429 . S
C807 C808 1.523 . S
C808 C792 1.368 . S
C808 C804 1.368 . S
C808 C807 1.523 . S
H809 C784 0.950 . S
H810 C786 0.950 . S
H811 C787 0.949 . S
H812 C789 0.950 . S
H813 C791 0.950 . S
C814 C815 1.361 . S
C814 C816 1.327 . S
C814 H839 0.950 . S
C815 C814 1.361 . S
C815 C831 1.337 1_565 S
C816 C814 1.327 . S
C816 C835 1.429 . S
C816 H840 0.950 . S
C817 C834 1.574 . S
C817 C836 1.368 1_545 S
C817 H841 0.949 . S
H818 C822 0.949 . S
C819 C820 1.349 1_545 S
C819 C821 1.327 . S
C819 H842 0.950 . S
C820 C819 1.349 1_565 S
C820 C832 1.349 . S
C821 C819 1.327 . S
C821 C837 1.429 1_545 S
C821 H843 0.950 . S
C822 H818 0.949 . S
C822 C830 1.574 . S
C822 C838 1.368 . S
H823 C831 0.950 . S
H824 C829 0.950 . S
H825 C830 0.949 . S
H826 C832 0.950 . S
H827 C833 0.950 . S
H828 C834 0.949 . S
C829 H824 0.950 . S
C829 C831 1.327 . S
C829 C835 1.429 1_545 S
C830 C822 1.574 . S
C830 H825 0.949 . S
C830 C836 1.368 . S
C831 C815 1.337 1_545 S
C831 H823 0.950 . S
C831 C829 1.327 . S
C832 C820 1.349 . S
C832 H826 0.950 . S
C832 C833 1.327 . S
C833 H827 0.950 . S
C833 C832 1.327 . S
C833 C837 1.429 . S
C834 C817 1.574 . S
C834 H828 0.949 . S
C834 C838 1.368 1_545 S
C835 C816 1.429 . S
C835 C829 1.429 1_565 S
C835 C836 1.523 . S
C836 C817 1.368 1_565 S
C836 C830 1.368 . S
C836 C835 1.523 . S
C837 C821 1.429 1_565 S
C837 C833 1.429 . S
C837 C838 1.523 . S
C838 C822 1.368 . S
C838 C834 1.368 1_565 S
C838 C837 1.523 . S
H839 C814 0.950 . S
H840 C816 0.950 . S
H841 C817 0.949 . S
H842 C819 0.950 . S
H843 C821 0.950 . S
C844 C845 1.349 . S
C844 C846 1.327 . S
C844 H869 0.950 . S
C845 C844 1.349 . S
C845 C861 1.349 . S
C846 C844 1.327 . S
C846 C865 1.429 . S
C846 H870 0.950 . S
C847 C864 1.574 . S
C847 C866 1.368 . S
C847 H871 0.949 . S
H848 C852 0.949 . S
C849 C850 1.349 . S
C849 C851 1.327 . S
C849 H872 0.950 . S
C850 C849 1.349 . S
C850 C862 1.349 . S
C851 C849 1.327 . S
C851 C867 1.429 . S
C851 H873 0.950 . S
C852 H848 0.949 . S
C852 C860 1.574 . S
C852 C868 1.368 . S
H853 C861 0.950 . S
H854 C859 0.950 . S
H855 C860 0.949 . S
H856 C862 0.950 . S
H857 C863 0.950 . S
H858 C864 0.949 . S
C859 H854 0.950 . S
C859 C861 1.327 . S
C859 C865 1.429 . S
C860 C852 1.574 . S
C860 H855 0.949 . S
C860 C866 1.368 . S
C861 C845 1.349 . S
C861 H853 0.950 . S
C861 C859 1.327 . S
C862 C850 1.349 . S
C862 H856 0.950 . S
C862 C863 1.327 . S
C863 H857 0.950 . S
C863 C862 1.327 . S
C863 C867 1.429 . S
C864 C847 1.574 . S
C864 H858 0.949 . S
C864 C868 1.368 . S
C865 C846 1.429 . S
C865 C859 1.429 . S
C865 C866 1.523 . S
C866 C847 1.368 . S
C866 C860 1.368 . S
C866 C865 1.523 . S
C867 C851 1.429 . S
C867 C863 1.429 . S
C867 C868 1.523 . S
C868 C852 1.368 . S
C868 C864 1.368 . S
C868 C867 1.523 . S
H869 C844 0.950 . S
H870 C846 0.950 . S
H871 C847 0.949 . S
H872 C849 0.950 . S
H873 C851 0.950 . S
C874 C875 1.349 . S
C874 C876 1.327 . S
C874 H899 0.950 . S
C875 C874 1.349 . S
C875 C891 1.349 . S
C876 C874 1.327 . S
C876 C895 1.429 . S
C876 H900 0.950 . S
C877 C894 1.574 . S
C877 C896 1.368 . S
C877 H901 0.949 . S
H878 C882 0.949 . S
C879 C880 1.349 . S
C879 C881 1.327 . S
C879 H902 0.950 . S
C880 C879 1.349 . S
C880 C892 1.349 . S
C881 C879 1.327 . S
C881 C897 1.429 . S
C881 H903 0.950 . S
C882 H878 0.949 . S
C882 C890 1.574 . S
C882 C898 1.368 . S
H883 C891 0.950 . S
H884 C889 0.950 . S
H885 C890 0.949 . S
H886 C892 0.950 . S
H887 C893 0.950 . S
H888 C894 0.949 . S
C889 H884 0.950 . S
C889 C891 1.327 . S
C889 C895 1.429 . S
C890 C882 1.574 . S
C890 H885 0.949 . S
C890 C896 1.368 . S
C891 C875 1.349 . S
C891 H883 0.950 . S
C891 C889 1.327 . S
C892 C880 1.349 . S
C892 H886 0.950 . S
C892 C893 1.327 . S
C893 H887 0.950 . S
C893 C892 1.327 . S
C893 C897 1.429 . S
C894 C877 1.574 . S
C894 H888 0.949 . S
C894 C898 1.368 . S
C895 C876 1.429 . S
C895 C889 1.429 . S
C895 C896 1.523 . S
C896 C877 1.368 . S
C896 C890 1.368 . S
C896 C895 1.523 . S
C897 C881 1.429 . S
C897 C893 1.429 . S
C897 C898 1.523 . S
C898 C882 1.368 . S
C898 C894 1.368 . S
C898 C897 1.523 . S
H899 C874 0.950 . S
H900 C876 0.950 . S
H901 C877 0.949 . S
H902 C879 0.950 . S
H903 C881 0.950 . S
C185 C82 1.356 . S
C190 C122 1.440 . S
C220 C142 1.531 . S
C215 C95 1.450 . S
C250 C162 1.437 . S
C245 C56 1.353 . S
C280 C182 1.528 . S
C275 C69 1.455 . S
C310 C123 1.439 . S
C305 C30 1.354 . S
C335 C43 1.409 . S
C340 C143 1.537 . S
C365 C4 1.354 . S
C370 C163 1.437 . S
C395 C17 1.408 . S
C400 C183 1.522 1_655 S
C430 C113 0.700 . S
C425 C74 0.692 . S
C460 C133 0.689 . S
C455 C87 0.683 . S
C490 C153 0.708 . S
C485 C100 0.704 . S
C515 C61 0.690 . S
C520 C173 0.695 . S
C545 C22 0.696 . S
C550 C116 0.716 . S
C580 C136 0.689 . S
C575 C35 0.683 . S
C610 C156 0.708 . S
C605 C48 0.704 . S
C635 C9 0.701 . S
C640 C176 0.695 . S
C665 C73 1.548 . S
C670 C106 1.493 . S
C695 C86 1.488 . S
C700 C126 1.437 . S
C730 C146 1.488 . S
C725 C99 1.539 . S
C760 C166 1.429 . S
C755 C60 1.479 . S
C785 C21 1.545 . S
C790 C108 1.501 . S
C820 C128 1.438 . S
C815 C34 1.488 1_565 S
C850 C148 1.488 . S
C845 C47 1.536 . S
C875 C8 1.480 . S
C880 C168 1.429 . S
