# Generated by pormake.
# Topology zzz, (3,6)-cn, num edge types: 1
# Building blocks:
#     Node 0, Type 0, BuildingBlock: BELTOD_clean_linker_0, # of connection points: 3
#     Node 1, Type 0, BuildingBlock: BELTOD_clean_linker_0, # of connection points: 3
#     Node 2, Type 0, BuildingBlock: BELTOD_clean_linker_0, # of connection points: 3
#     Node 3, Type 0, BuildingBlock: BELTOD_clean_linker_0, # of connection points: 3
#     Node 4, Type 0, BuildingBlock: BELTOD_clean_linker_0, # of connection points: 3
#     Node 5, Type 0, BuildingBlock: BELTOD_clean_linker_0, # of connection points: 3
#     Node 6, Type 0, BuildingBlock: BELTOD_clean_linker_0, # of connection points: 3
#     Node 7, Type 0, BuildingBlock: BELTOD_clean_linker_0, # of connection points: 3
#     Node 8, Type 1, BuildingBlock: KUMBUR_clean_sbu_0, # of connection points: 6
#     Node 9, Type 1, BuildingBlock: KUMBUR_clean_sbu_0, # of connection points: 6
#     Node 10, Type 1, BuildingBlock: KUMBUR_clean_sbu_0, # of connection points: 6
#     Node 11, Type 1, BuildingBlock: KUMBUR_clean_sbu_0, # of connection points: 6
#     Edge 12, Type (0, 1), BuildingBlock: EZIPEK_clean_linker_0, # of connection points: 2
#     Edge 13, Type (0, 1), BuildingBlock: EZIPEK_clean_linker_0, # of connection points: 2
#     Edge 14, Type (0, 1), BuildingBlock: EZIPEK_clean_linker_0, # of connection points: 2
#     Edge 15, Type (0, 1), BuildingBlock: EZIPEK_clean_linker_0, # of connection points: 2
#     Edge 16, Type (0, 1), BuildingBlock: EZIPEK_clean_linker_0, # of connection points: 2
#     Edge 17, Type (0, 1), BuildingBlock: EZIPEK_clean_linker_0, # of connection points: 2
#     Edge 18, Type (0, 1), BuildingBlock: EZIPEK_clean_linker_0, # of connection points: 2
#     Edge 19, Type (0, 1), BuildingBlock: EZIPEK_clean_linker_0, # of connection points: 2
#     Edge 20, Type (0, 1), BuildingBlock: EZIPEK_clean_linker_0, # of connection points: 2
#     Edge 21, Type (0, 1), BuildingBlock: EZIPEK_clean_linker_0, # of connection points: 2
#     Edge 22, Type (0, 1), BuildingBlock: EZIPEK_clean_linker_0, # of connection points: 2
#     Edge 23, Type (0, 1), BuildingBlock: EZIPEK_clean_linker_0, # of connection points: 2
#     Edge 24, Type (0, 1), BuildingBlock: EZIPEK_clean_linker_0, # of connection points: 2
#     Edge 25, Type (0, 1), BuildingBlock: EZIPEK_clean_linker_0, # of connection points: 2
#     Edge 26, Type (0, 1), BuildingBlock: EZIPEK_clean_linker_0, # of connection points: 2
#     Edge 27, Type (0, 1), BuildingBlock: EZIPEK_clean_linker_0, # of connection points: 2
#     Edge 28, Type (0, 1), BuildingBlock: EZIPEK_clean_linker_0, # of connection points: 2
#     Edge 29, Type (0, 1), BuildingBlock: EZIPEK_clean_linker_0, # of connection points: 2
#     Edge 30, Type (0, 1), BuildingBlock: EZIPEK_clean_linker_0, # of connection points: 2
#     Edge 31, Type (0, 1), BuildingBlock: EZIPEK_clean_linker_0, # of connection points: 2
#     Edge 32, Type (0, 1), BuildingBlock: EZIPEK_clean_linker_0, # of connection points: 2
#     Edge 33, Type (0, 1), BuildingBlock: EZIPEK_clean_linker_0, # of connection points: 2
#     Edge 34, Type (0, 1), BuildingBlock: EZIPEK_clean_linker_0, # of connection points: 2
#     Edge 35, Type (0, 1), BuildingBlock: EZIPEK_clean_linker_0, # of connection points: 2
# Relax obj value: 0.333
# Max RMSD: 0.214
# Mean RMSD: 0.205
data_MOF--net-zzz--node1-KUMBUR_clean_sbu_0--node2-BELTOD_clean_linker_0--edge1-EZIPEK_clean_linker_0
_symmetry_space_group_name_H-M    P1
_symmetry_Int_Tables_number       1
_symmetry_cell_setting            triclinic
loop_
_symmetry_equiv_pos_as_xyz
'x, y, z'
_cell_length_a     40.737497
_cell_length_b     40.846971
_cell_length_c     14.41495
_cell_angle_alpha  90.591866
_cell_angle_beta   90.151063
_cell_angle_gamma 90.032972
loop_
_atom_site_label
_atom_site_type_symbol
_atom_site_fract_x
_atom_site_fract_y
_atom_site_fract_z
_atom_type_partial_charge
P0 P 0.72131 0.53167 0.33311 0.0
H1 H 0.74702 0.49862 0.49969 0.0
H2 H 0.80126 0.50267 0.56953 0.0
H3 H 0.81385 0.59824 0.45241 0.0
H4 H 0.75933 0.59406 0.37957 0.0
H5 H 0.66434 0.48786 0.30414 0.0
H6 H 0.62358 0.48649 0.18121 0.0
H7 H 0.64268 0.58771 0.12306 0.0
H8 H 0.68347 0.58964 0.24874 0.0
H9 H 0.77113 0.492 0.2457 0.0
H10 H 0.73524 0.59121 0.22393 0.0
O11 O 0.72173 0.49104 0.34556 0.0
H12 H 0.8153 0.50516 0.14103 0.0
H13 H 0.77813 0.60346 0.11214 0.0
C14 C 0.74851 0.54537 0.4297 0.0
C15 C 0.7606 0.52108 0.49 0.0
C16 C 0.7922 0.52314 0.52976 0.0
C17 C 0.81281 0.55006 0.51336 0.0
C18 C 0.79916 0.57659 0.46427 0.0
C19 C 0.7675 0.57429 0.42317 0.0
C20 C 0.67964 0.53829 0.28369 0.0
C21 C 0.65985 0.51032 0.26722 0.0
C22 C 0.6361 0.50933 0.19612 0.0
C23 C 0.63057 0.53649 0.1395 0.0
C24 C 0.64709 0.56586 0.16315 0.0
C25 C 0.67094 0.56685 0.23503 0.0
C26 C 0.74845 0.53992 0.23901 0.0
C27 C 0.77162 0.51613 0.21545 0.0
C28 C 0.79706 0.52376 0.15632 0.0
C29 C 0.79952 0.5552 0.11858 0.0
C30 C 0.7762 0.57903 0.14014 0.0
C31 C 0.75106 0.57156 0.20172 0.0
P32 P 0.99296 0.72686 0.33899 0.0
H33 H 0.01983 0.75088 0.51938 0.0
H34 H 0.01893 0.80558 0.58821 0.0
H35 H 0.93432 0.82982 0.42419 0.0
H36 H 0.93467 0.7747 0.35525 0.0
H37 H 0.04115 0.68141 0.25914 0.0
H38 H 0.03945 0.63987 0.1393 0.0
H39 H 0.93393 0.6412 0.14448 0.0
H40 H 0.93532 0.68374 0.26817 0.0
H41 H 0.037 0.77098 0.2443 0.0
H42 H 0.93658 0.73779 0.21792 0.0
O43 O 0.03296 0.72634 0.36491 0.0
H44 H 0.02815 0.80848 0.11695 0.0
H45 H 0.92759 0.77608 0.09089 0.0
C46 C 0.97821 0.75763 0.42744 0.0
C47 C 1.00005 0.76705 0.49958 0.0
C48 C 0.99972 0.79889 0.53951 0.0
C49 C 0.97698 0.82278 0.51119 0.0
C50 C 0.95248 0.8124 0.44779 0.0
C51 C 0.95283 0.78037 0.40767 0.0
C52 C 0.98835 0.68658 0.27674 0.0
C53 C 0.0172 0.67259 0.23847 0.0
C54 C 0.01642 0.64867 0.16747 0.0
C55 C 0.98671 0.63718 0.12993 0.0
C56 C 0.95746 0.64957 0.1705 0.0
C57 C 0.95825 0.67392 0.24247 0.0
C58 C 0.98771 0.75122 0.23885 0.0
C59 C 0.01335 0.77116 0.20988 0.0
C60 C 0.00824 0.79253 0.13761 0.0
C61 C 0.97725 0.79456 0.09502 0.0
C62 C 0.95165 0.77426 0.12259 0.0
C63 C 0.95697 0.7524 0.19427 0.0
P64 P 0.79577 0.99857 0.35621 0.0
H65 H 0.77093 0.03555 0.51861 0.0
H66 H 0.7155 0.03469 0.58093 0.0
H67 H 0.70169 0.937 0.47392 0.0
H68 H 0.75797 0.93725 0.41316 0.0
H69 H 0.85709 0.03689 0.33794 0.0
H70 H 0.89713 0.03732 0.21294 0.0
H71 H 0.865 0.9416 0.12455 0.0
H72 H 0.82733 0.9396 0.25552 0.0
H73 H 0.75095 0.0396 0.25185 0.0
H74 H 0.77538 0.93672 0.26466 0.0
O75 O 0.79717 0.03938 0.36491 0.0
H76 H 0.71117 0.02729 0.13066 0.0
H77 H 0.73728 0.92501 0.13847 0.0
C78 C 0.76889 0.9873 0.45449 0.0
C79 C 0.75686 0.01323 0.51037 0.0
C80 C 0.72465 0.01301 0.54568 0.0
C81 C 0.7035 0.98644 0.52875 0.0
C82 C 0.71696 0.95835 0.48577 0.0
C83 C 0.74947 0.95857 0.45082 0.0
C84 C 0.83651 0.98916 0.30458 0.0
C85 C 0.8589 0.0153 0.29414 0.0
C86 C 0.88181 0.01586 0.22097 0.0
C87 C 0.88332 0.9903 0.15498 0.0
C88 C 0.86386 0.96239 0.17168 0.0
C89 C 0.84161 0.96148 0.24683 0.0
C90 C 0.76789 0.98949 0.26347 0.0
C91 C 0.74865 0.01458 0.22725 0.0
C92 C 0.72577 0.00753 0.15871 0.0
C93 C 0.72212 0.97534 0.12509 0.0
C94 C 0.7404 0.94998 0.16295 0.0
C95 C 0.76281 0.95699 0.23319 0.0
P96 P 0.532 0.80247 0.34848 0.0
H97 H 0.50725 0.78279 0.53192 0.0
H98 H 0.50905 0.72865 0.60195 0.0
H99 H 0.59297 0.70377 0.43529 0.0
H100 H 0.59231 0.75832 0.36782 0.0
H101 H 0.48591 0.85151 0.28455 0.0
H102 H 0.48865 0.88919 0.15757 0.0
H103 H 0.59396 0.88095 0.15368 0.0
H104 H 0.59139 0.8412 0.28191 0.0
H105 H 0.48553 0.76668 0.23291 0.0
H106 H 0.58967 0.78719 0.23372 0.0
O107 O 0.49193 0.80247 0.37316 0.0
H108 H 0.49357 0.72687 0.11028 0.0
H109 H 0.59792 0.74594 0.1123 0.0
C110 C 0.54833 0.77494 0.43892 0.0
C111 C 0.52703 0.7665 0.51215 0.0
C112 C 0.52778 0.73515 0.55223 0.0
C113 C 0.55039 0.71142 0.52184 0.0
C114 C 0.5747 0.72122 0.45872 0.0
C115 C 0.5741 0.75276 0.41934 0.0
C116 C 0.53845 0.8426 0.29484 0.0
C117 C 0.51004 0.8579 0.25957 0.0
C118 C 0.51137 0.87927 0.18461 0.0
C119 C 0.5413 0.88727 0.14304 0.0
C120 C 0.57033 0.8745 0.18252 0.0
C121 C 0.5689 0.85222 0.2573 0.0
C122 C 0.53715 0.7787 0.2453 0.0
C123 C 0.51003 0.76309 0.2059 0.0
C124 C 0.51464 0.74066 0.13483 0.0
C125 C 0.54653 0.7332 0.10387 0.0
C126 C 0.57328 0.75136 0.13603 0.0
C127 C 0.56847 0.77452 0.20599 0.0
P128 P 0.30395 0.42794 0.04125 0.0
H129 H 0.2672 0.40012 0.8843 0.0
H130 H 0.21652 0.41556 0.81288 0.0
H131 H 0.22456 0.51052 0.94633 0.0
H132 H 0.27503 0.49457 0.01425 0.0
H133 H 0.36913 0.40448 0.09682 0.0
H134 H 0.40793 0.42309 0.21564 0.0
H135 H 0.35485 0.5137 0.24363 0.0
H136 H 0.31545 0.49491 0.12501 0.0
H137 H 0.23492 0.40424 0.0482 0.0
H138 H 0.31062 0.42771 0.24816 0.0
O139 O 0.31737 0.39251 0.99697 0.0
H140 H 0.19403 0.42866 0.15025 0.0
H141 H 0.2696 0.4512 0.35075 0.0
C142 C 0.27641 0.44633 0.95368 0.0
C143 C 0.25943 0.42534 0.89203 0.0
C144 C 0.22973 0.43472 0.84915 0.0
C145 C 0.21614 0.46656 0.85989 0.0
C146 C 0.23383 0.48734 0.9228 0.0
C147 C 0.26349 0.4778 0.96595 0.0
C148 C 0.3393 0.44843 0.09805 0.0
C149 C 0.36626 0.42897 0.12506 0.0
C150 C 0.38838 0.43942 0.19468 0.0
C151 C 0.38436 0.46976 0.24026 0.0
C152 C 0.35862 0.49016 0.21011 0.0
C153 C 0.33632 0.47961 0.1404 0.0
C154 C 0.27626 0.41853 0.13503 0.0
C155 C 0.24285 0.41369 0.11476 0.0
C156 C 0.21928 0.42714 0.17363 0.0
C157 C 0.22944 0.44333 0.25475 0.0
C158 C 0.26174 0.43977 0.28625 0.0
C159 C 0.28523 0.42677 0.22651 0.0
P160 P 0.08242 0.30071 0.02832 0.0
H161 H 0.10897 0.2644 0.86723 0.0
H162 H 0.09498 0.21229 0.79283 0.0
H163 H 1.00442 0.20982 0.94542 0.0
H164 H 0.01893 0.26217 0.02251 0.0
H165 H 0.11733 0.34824 0.13964 0.0
H166 H 0.10164 0.3889 0.25526 0.0
H167 H 1.00052 0.37955 0.17091 0.0
H168 H 0.01631 0.33612 0.05773 0.0
H169 H 0.12824 0.24629 0.05615 0.0
H170 H 0.05267 0.29671 0.21227 0.0
O171 O 0.11846 0.31103 0.98207 0.0
H172 H 0.12079 0.19819 0.15503 0.0
H173 H 0.04585 0.2499 0.30825 0.0
C174 C 0.06461 0.26886 0.94935 0.0
C175 C 0.08547 0.25355 0.88348 0.0
C176 C 0.07781 0.22294 0.84177 0.0
C177 C 0.0489 0.20583 0.86422 0.0
C178 C 0.02724 0.22167 0.92716 0.0
C179 C 0.03516 0.25227 0.96995 0.0
C180 C 0.06828 0.33872 0.08789 0.0
C181 C 0.09171 0.35518 0.14359 0.0
C182 C 0.08265 0.37854 0.21111 0.0
C183 C 0.04964 0.38737 0.22521 0.0
C184 C 0.02615 0.37299 0.16415 0.0
C185 C 0.0352 0.34838 0.09799 0.0
C186 C 0.09063 0.27495 0.12526 0.0
C187 C 0.11155 0.24785 0.11439 0.0
C188 C 0.10738 0.22047 0.17058 0.0
C189 C 0.08194 0.22044 0.23593 0.0
C190 C 0.06517 0.24942 0.25661 0.0
C191 C 0.06922 0.27642 0.2011 0.0
P192 P 0.24398 0.09889 0.05115 0.0
H193 H 0.26806 0.11916 0.86616 0.0
H194 H 0.31481 0.10076 0.77375 0.0
H195 H 0.32471 0.01646 0.94901 0.0
H196 H 0.27396 0.03222 0.03021 0.0
H197 H 0.18773 0.13251 0.13155 0.0
H198 H 0.14773 0.11863 0.24469 0.0
H199 H 0.18052 0.01853 0.23646 0.0
H200 H 0.22284 0.03368 0.1272 0.0
H201 H 0.31541 0.11223 0.05001 0.0
H202 H 0.24006 0.10075 0.25774 0.0
O203 O 0.23455 0.13588 0.01087 0.0
H204 H 0.35569 0.08961 0.1574 0.0
H205 H 0.27974 0.07715 0.36191 0.0
C206 C 0.26741 0.07761 0.95835 0.0
C207 C 0.27904 0.09578 0.88235 0.0
C208 C 0.30667 0.0856 0.83044 0.0
C209 C 0.32517 0.05782 0.85579 0.0
C210 C 0.31202 0.03842 0.92767 0.0
C211 C 0.28298 0.04756 0.97533 0.0
C212 C 0.20699 0.08369 0.11165 0.0
C213 C 0.18489 0.10688 0.14822 0.0
C214 C 0.16065 0.0984 0.21327 0.0
C215 C 0.15463 0.06549 0.23936 0.0
C216 C 0.17921 0.04291 0.20875 0.0
C217 C 0.20445 0.05167 0.14577 0.0
C218 C 0.27405 0.10469 0.14207 0.0
C219 C 0.30755 0.10601 0.11929 0.0
C220 C 0.33072 0.09341 0.18094 0.0
C221 C 0.32004 0.07997 0.26494 0.0
C222 C 0.28809 0.08625 0.29568 0.0
C223 C 0.2652 0.09921 0.23469 0.0
P224 P 0.41518 0.2323 0.04535 0.0
H225 H 0.39679 0.25691 0.86063 0.0
H226 H 0.41519 0.30531 0.77648 0.0
H227 H 0.49878 0.31362 0.95853 0.0
H228 H 0.48037 0.26507 0.04269 0.0
H229 H 0.3841 0.17914 0.14309 0.0
H230 H 0.40372 0.14039 0.25763 0.0
H231 H 0.50373 0.16623 0.19292 0.0
H232 H 0.48357 0.20828 0.08567 0.0
H233 H 0.39764 0.3019 0.04529 0.0
H234 H 0.41562 0.22858 0.25383 0.0
O235 O 0.3788 0.22159 1.00106 0.0
H236 H 0.4218 0.3431 0.14808 0.0
H237 H 0.43934 0.26974 0.35483 0.0
C238 C 0.43734 0.25642 0.95817 0.0
C239 C 0.41998 0.26796 0.8802 0.0
C240 C 0.4303 0.29608 0.83232 0.0
C241 C 0.45838 0.3136 0.86087 0.0
C242 C 0.47711 0.3007 0.93435 0.0
C243 C 0.4668 0.2725 0.98202 0.0
C244 C 0.43224 0.19646 0.10339 0.0
C245 C 0.41034 0.17619 0.15175 0.0
C246 C 0.42162 0.1541 0.2184 0.0
C247 C 0.45542 0.14994 0.23535 0.0
C248 C 0.47753 0.1689 0.18274 0.0
C249 C 0.46605 0.19263 0.11988 0.0
C250 C 0.40813 0.26157 0.13741 0.0
C251 C 0.40541 0.29468 0.11398 0.0
C252 C 0.41916 0.31824 0.17248 0.0
C253 C 0.43408 0.30853 0.2554 0.0
C254 C 0.42899 0.27705 0.28889 0.0
C255 C 0.41569 0.25344 0.22976 0.0
Tb256 Tb 0.04428 1.00436 0.74237 0.0
C257 C 0.92244 0.97985 0.53995 0.0
C258 C 0.94212 0.94712 0.41054 0.0
C259 C 0.88592 0.94095 0.46218 0.0
C260 C 0.94765 0.97094 0.48075 0.0
C261 C 0.89099 0.96554 0.52928 0.0
C262 C 0.91145 0.93172 0.40302 0.0
C263 C 0.8703 1.00396 0.64244 0.0
N264 N 0.92791 1.00418 0.603 0.0
C265 C 0.9016 0.01763 0.64966 0.0
C266 C 0.86504 0.97745 0.583 0.0
Tb267 Tb 0.97979 0.02733 0.60105 0.0
N268 N 0.97696 0.98674 0.48842 0.0
C269 C 1.00098 0.98071 0.4238 0.0
C270 C 0.96714 0.94024 0.34744 0.0
C271 C 0.99644 0.95752 0.35311 0.0
H272 H 0.9047 0.03914 0.69319 0.0
H273 H 0.01584 0.95271 0.30363 0.0
H274 H 0.90691 0.91339 0.34963 0.0
H275 H 0.85009 0.01437 0.68139 0.0
H276 H 0.02423 0.9929 0.42548 0.0
H277 H 1.00388 0.08353 0.02599 0.0
H278 H 0.96386 0.92209 0.29307 0.0
H279 H 0.11966 0.99406 0.64774 0.0
H280 H 0.99608 0.05405 0.88136 0.0
H281 H 0.17622 1.00427 0.69571 0.0
H282 H 0.862 0.92971 0.45335 0.0
H283 H 0.05948 0.09082 0.09133 0.0
H284 H 0.11969 0.08214 0.07494 0.0
H285 H 0.84057 0.96728 0.57609 0.0
H286 H 0.16643 0.06135 0.98365 0.0
N287 N 0.04687 0.04293 0.86042 0.0
C288 C 0.02064 0.05614 0.90711 0.0
C289 C 0.05629 0.07758 0.02647 0.0
C290 C 0.08317 0.0651 0.97773 0.0
C291 C 0.02493 0.07356 0.98996 0.0
C292 C 0.07772 0.04822 0.89325 0.0
H293 H 0.18776 0.03355 0.84281 0.0
N294 N 0.09793 0.02159 0.75904 0.0
C295 C 0.15622 0.01422 0.73644 0.0
C296 C 0.10406 0.03719 0.84093 0.0
C297 C 0.12381 0.00941 0.70796 0.0
C298 C 0.1626 0.03049 0.81969 0.0
C299 C 0.13643 0.04202 0.87316 0.0
O300 O 0.07687 0.9649 0.75068 0.0
O301 O 1.00198 0.98455 0.66428 0.0
O302 O 0.95697 0.015 0.73625 0.0
O303 O 0.9999 0.99747 0.8292 0.0
O304 O 0.04514 0.9605 0.65265 0.0
O305 O 0.05068 0.98224 0.87206 0.0
O306 O 0.94478 0.0642 0.58011 0.0
O307 O 0.02247 0.04815 0.67666 0.0
O308 O 0.06933 0.02199 0.61658 0.0
O309 O 0.02611 0.03754 0.5218 0.0
O310 O 0.97827 0.07004 0.69312 0.0
O311 O 0.97357 0.04566 0.46651 0.0
C312 C 0.01498 0.95893 0.62756 0.0
C313 C 0.0739 0.92937 0.87575 0.0
C314 C 0.04626 0.88092 0.92748 0.0
C315 C 0.04519 0.91123 0.88429 0.0
C316 C 0.07626 0.8679 0.9578 0.0
C317 C 0.10399 0.9165 0.90557 0.0
C318 C 0.10518 0.88562 0.94591 0.0
C319 C 0.96834 1.00427 0.81669 0.0
C320 C 0.0731 0.96232 0.83973 0.0
C321 C 0.14178 0.05776 0.95844 0.0
C322 C 0.11525 0.06935 0.01045 0.0
C323 C 0.00886 0.07399 0.71164 0.0
C324 C 0.95297 0.09961 0.45582 0.0
C325 C 0.98251 0.11235 0.42244 0.0
C326 C 0.9834 0.14416 0.38793 0.0
C327 C 0.95495 0.16343 0.38725 0.0
C328 C 0.92452 0.119 0.45525 0.0
C329 C 0.92558 0.15085 0.42123 0.0
C330 C 0.05811 0.03236 0.53597 0.0
C331 C 0.95106 0.06641 0.4923 0.0
H332 H 0.02203 0.92116 0.8612 0.0
H333 H 0.07708 0.84449 0.99244 0.0
H334 H 0.12643 0.93053 0.89876 0.0
H335 H 0.12833 0.87581 0.96984 0.0
H336 H 1.00463 0.09762 0.42217 0.0
H337 H 0.95551 0.18803 0.35988 0.0
H338 H 0.90153 0.10946 0.48122 0.0
H339 H 0.90358 0.16569 0.42071 0.0
Tb340 Tb 0.52218 0.04881 0.73925 0.0
C341 C 0.55269 0.92916 0.54472 0.0
C342 C 0.58077 0.94844 0.40769 0.0
C343 C 0.59538 0.89591 0.47178 0.0
C344 C 0.55708 0.95321 0.47846 0.0
C345 C 0.57063 0.89951 0.53832 0.0
C346 C 0.60065 0.92047 0.40715 0.0
C347 C 0.53418 0.8761 0.65059 0.0
N348 N 0.52808 0.93276 0.60735 0.0
C349 C 0.51733 0.90579 0.65522 0.0
C350 C 0.56154 0.87322 0.59386 0.0
Tb351 Tb 0.49927 0.98117 0.60142 0.0
N352 N 0.53604 0.97925 0.47709 0.0
C353 C 0.53588 0.9989 0.39969 0.0
C354 C 0.58264 0.97082 0.33579 0.0
C355 C 0.55971 0.99575 0.33093 0.0
H356 H 0.49603 0.90697 0.69961 0.0
H357 H 0.55988 0.01229 0.27271 0.0
H358 H 0.61891 0.91672 0.35351 0.0
H359 H 0.52598 0.85547 0.69097 0.0
H360 H 0.51757 0.01704 0.38568 0.0
H361 H 0.43096 0.01331 0.99402 0.0
H362 H 0.6006 0.96807 0.28112 0.0
H363 H 0.54081 0.12054 0.65009 0.0
H364 H 0.47032 1.00307 0.87019 0.0
H365 H 0.52869 0.17838 0.68228 0.0
H366 H 0.60948 0.87348 0.46671 0.0
H367 H 0.41696 0.06992 0.03945 0.0
H368 H 0.42628 0.12997 0.01929 0.0
H369 H 0.57437 0.85002 0.58965 0.0
H370 H 0.45166 0.17493 0.93111 0.0
N371 N 0.47963 0.05361 0.84312 0.0
C372 C 0.46531 0.02808 0.8891 0.0
C373 C 0.43492 0.06568 0.98552 0.0
C374 C 0.44975 0.09172 0.93945 0.0
C375 C 0.44255 0.0337 0.95966 0.0
C376 C 0.47147 0.08481 0.86591 0.0
H377 H 0.4894 0.19318 0.8062 0.0
N378 N 0.50488 0.1021 0.74287 0.0
C379 C 0.51545 0.15942 0.71845 0.0
C380 C 0.48469 0.1099 0.81439 0.0
C381 C 0.52145 0.1265 0.698 0.0
C382 C 0.4935 0.16764 0.78881 0.0
C383 C 0.47812 0.14277 0.83847 0.0
O384 O 0.56493 0.07706 0.75365 0.0
O385 O 0.54161 1.00617 0.66185 0.0
O386 O 0.51076 0.96225 0.74495 0.0
O387 O 0.53138 0.00669 0.82824 0.0
O388 O 0.56268 0.05038 0.63924 0.0
O389 O 0.54011 0.05851 0.87333 0.0
O390 O 0.46187 0.94694 0.62494 0.0
O391 O 0.48159 0.01656 0.7046 0.0
O392 O 0.50252 0.0711 0.61273 0.0
O393 O 0.49214 0.02588 0.51685 0.0
O394 O 0.45036 1.00433 0.60232 0.0
O395 O 0.48016 0.95532 0.48689 0.0
C396 C 0.56532 0.01984 0.61901 0.0
C397 C 0.59497 0.07478 0.89059 0.0
C398 C 0.6399 0.04293 0.94914 0.0
C399 C 0.61093 0.04485 0.89822 0.0
C400 C 0.65376 0.07134 0.98882 0.0
C401 C 0.60868 0.10321 0.9297 0.0
C402 C 0.63821 0.10149 0.97845 0.0
C403 C 0.52401 0.97526 0.82214 0.0
C404 C 0.56374 0.07694 0.8434 0.0
C405 C 0.45719 0.14981 0.91298 0.0
C406 C 0.44297 0.12434 0.96327 0.0
C407 C 0.45265 0.02293 0.67412 0.0
C408 C 0.42494 0.93911 0.50185 0.0
C409 C 0.41161 0.96629 0.45728 0.0
C410 C 0.37868 0.96638 0.43039 0.0
C411 C 0.35934 0.93838 0.44315 0.0
C412 C 0.40555 0.91119 0.51492 0.0
C413 C 0.37292 0.91074 0.48463 0.0
C414 C 0.49422 0.0581 0.53147 0.0
C415 C 0.45865 0.93987 0.53717 0.0
H416 H 0.60016 0.02298 0.8684 0.0
H417 H 0.67643 0.07008 0.0281 0.0
H418 H 0.5964 0.12661 0.92306 0.0
H419 H 0.64881 0.1234 0.00899 0.0
H420 H 0.42672 0.9874 0.44386 0.0
H421 H 0.33391 0.938 0.42104 0.0
H422 H 0.41563 0.88984 0.54864 0.0
H423 H 0.35805 0.88908 0.49427 0.0
Tb424 Tb 0.543 0.4927 0.60954 0.0
C425 C 0.40633 0.50987 0.74016 0.0
C426 C 0.38135 0.53989 0.61373 0.0
C427 C 0.34671 0.51242 0.72519 0.0
C428 C 0.40959 0.52918 0.66199 0.0
C429 C 0.37467 0.50182 0.77324 0.0
C430 C 0.35005 0.53126 0.64546 0.0
C431 C 0.39997 0.47667 0.9056 0.0
N432 N 0.43386 0.50064 0.78676 0.0
C433 C 0.43063 0.48568 0.87147 0.0
C434 C 0.37182 0.48455 0.85598 0.0
Tb435 Tb 0.48199 0.52415 0.73426 0.0
N436 N 0.44014 0.53843 0.63498 0.0
C437 C 0.44372 0.55856 0.56023 0.0
C438 C 0.38525 0.55968 0.53607 0.0
C439 C 0.41661 0.56894 0.50904 0.0
H440 H 0.45172 0.48124 0.9145 0.0
H441 H 0.41999 0.58435 0.44918 0.0
H442 H 0.3282 0.53959 0.60976 0.0
H443 H 0.3981 0.46452 0.97169 0.0
H444 H 0.46743 0.5661 0.53744 0.0
H445 H 0.58455 0.41697 0.89813 0.0
H446 H 0.3642 0.56824 0.49717 0.0
H447 H 0.58772 0.55082 0.49371 0.0
H448 H 0.54505 0.45162 0.81838 0.0
H449 H 0.64506 0.56098 0.46189 0.0
H450 H 0.32233 0.50665 0.75012 0.0
H451 H 0.64218 0.41483 0.84545 0.0
H452 H 0.6861 0.43765 0.74353 0.0
H453 H 0.34798 0.47821 0.88379 0.0
H454 H 0.70276 0.47839 0.62857 0.0
N455 N 0.57823 0.46697 0.71301 0.0
C456 C 0.56941 0.45013 0.79092 0.0
C457 C 0.62455 0.42962 0.80821 0.0
C458 C 0.63433 0.44941 0.73487 0.0
C459 C 0.5921 0.43077 0.83812 0.0
C460 C 0.61039 0.46835 0.68899 0.0
H461 H 0.68788 0.52568 0.52883 0.0
N462 N 0.59626 0.51173 0.5904 0.0
C463 C 0.63836 0.54163 0.509 0.0
C464 C 0.61978 0.49164 0.62537 0.0
C465 C 0.60545 0.53621 0.53056 0.0
C466 C 0.6624 0.52139 0.5457 0.0
C467 C 0.65335 0.49603 0.60443 0.0
O468 O 0.55242 0.50065 0.46864 0.0
O469 O 0.49266 0.51171 0.59246 0.0
O470 O 0.47463 0.47049 0.7467 0.0
O471 O 0.51951 0.44831 0.66785 0.0
O472 O 0.50267 0.46707 0.53742 0.0
O473 O 0.56706 0.45569 0.53454 0.0
O474 O 0.48071 0.53068 0.87993 0.0
O475 O 0.53363 0.5128 0.75206 0.0
O476 O 0.54425 0.54763 0.59321 0.0
O477 O 0.50006 0.56971 0.67332 0.0
O478 O 0.53342 0.51322 0.75263 0.0
O479 O 0.46833 0.57034 0.78524 0.0
C480 C 0.47966 0.48819 0.54604 0.0
C481 C 0.55591 0.45381 0.37409 0.0
C482 C 0.52818 0.40811 0.30032 0.0
C483 C 0.53907 0.42409 0.38067 0.0
C484 C 0.53596 0.42066 0.21282 0.0
C485 C 0.56305 0.46669 0.28668 0.0
C486 C 0.55357 0.44985 0.2062 0.0
C487 C 0.49273 0.44498 0.71987 0.0
C488 C 0.5658 0.47198 0.45726 0.0
C489 C 0.67696 0.4756 0.64482 0.0
C490 C 0.66747 0.45231 0.70996 0.0
C491 C 0.55298 0.53507 0.78916 0.0
C492 C 0.46106 0.58117 0.94762 0.0
C493 C 0.47574 0.61173 0.94905 0.0
C494 C 0.47498 0.63105 0.0289 0.0
C495 C 0.45452 0.62189 0.10279 0.0
C496 C 0.4418 0.57104 0.02236 0.0
C497 C 0.43769 0.59199 0.09883 0.0
C498 C 0.52639 0.57326 0.62087 0.0
C499 C 0.46836 0.55968 0.8699 0.0
H500 H 0.53291 0.4141 0.44783 0.0
H501 H 0.52764 0.40834 0.15012 0.0
H502 H 0.57566 0.48991 0.28104 0.0
H503 H 0.55924 0.45982 0.13882 0.0
H504 H 0.49093 0.61896 0.89108 0.0
H505 H 0.45299 0.63693 0.16495 0.0
H506 H 0.43013 0.5472 0.02147 0.0
H507 H 0.42268 0.58445 0.15663 0.0
Tb508 Tb 0.02962 0.53729 0.6275 0.0
C509 C 0.99651 0.40083 0.73844 0.0
C510 C 0.95523 0.38546 0.62454 0.0
C511 C 0.98084 0.3436 0.71844 0.0
C512 C 0.97377 0.40969 0.67174 0.0
C513 C 1.00067 0.3675 0.76118 0.0
C514 C 0.95816 0.35256 0.65026 0.0
C515 C 0.04425 0.38345 0.86514 0.0
N516 N 0.01583 0.42468 0.77655 0.0
C517 C 0.03894 0.41613 0.84196 0.0
C518 C 0.02496 0.35902 0.82506 0.0
Tb519 Tb 0.99702 0.47755 0.75208 0.0
N520 N 0.97214 0.44168 0.64742 0.0
C521 C 0.95524 0.45012 0.56892 0.0
C522 C 0.93562 0.39477 0.54969 0.0
C523 C 0.93636 0.42711 0.52022 0.0
H524 H 0.05251 0.43429 0.88129 0.0
H525 H 0.92257 0.43435 0.45952 0.0
H526 H 0.94382 0.33371 0.61556 0.0
H527 H 0.06271 0.37727 0.91613 0.0
H528 H 0.95639 0.47441 0.54223 0.0
H529 H 0.09131 0.59948 0.91333 0.0
H530 H 0.92115 0.3769 0.51144 0.0
H531 H 0.98481 0.56723 0.4487 0.0
H532 H 0.07088 0.55228 0.82662 0.0
H533 H 0.96834 0.62094 0.39165 0.0
H534 H 0.98347 0.31799 0.73587 0.0
H535 H 0.077 0.65525 0.8626 0.0
H536 H 0.04835 0.69113 0.74943 0.0
H537 H 0.02893 0.33373 0.84415 0.0
H538 H 0.01418 0.69682 0.61008 0.0
N539 N 0.04519 0.57946 0.72548 0.0
C540 C 0.06482 0.57591 0.80186 0.0
C541 C 0.06786 0.63425 0.82394 0.0
C542 C 0.04791 0.63812 0.74585 0.0
C543 C 0.07613 0.60293 0.85245 0.0
C544 C 0.03651 0.60992 0.69782 0.0
H545 H 0.98353 0.671 0.47911 0.0
N546 N 1.00669 0.58551 0.5741 0.0
C547 C 0.98157 0.61912 0.45661 0.0
C548 C 0.01674 0.61306 0.62 0.0
C549 C 0.9907 0.58853 0.49025 0.0
C550 C 0.99031 0.64727 0.50579 0.0
C551 C 0.00865 0.64458 0.58726 0.0
O552 O 0.03492 0.53713 0.48213 0.0
O553 O 0.01784 0.48575 0.6104 0.0
O554 O 0.05199 0.47527 0.77288 0.0
O555 O 0.07472 0.51897 0.69352 0.0
O556 O 0.01834 0.48597 0.60974 0.0
O557 O 0.07601 0.54917 0.57388 0.0
O558 O 1.00145 0.47001 0.8958 0.0
O559 O 0.01731 0.52748 0.76953 0.0
O560 O 0.97567 0.54582 0.61494 0.0
O561 O 0.95286 0.50114 0.69053 0.0
O562 O 0.97236 0.51907 0.82005 0.0
O563 O 0.95872 0.45355 0.81971 0.0
C564 C 0.04029 0.46624 0.57454 0.0
C565 C 0.08555 0.55361 0.40849 0.0
C566 C 0.13827 0.54036 0.34067 0.0
C567 C 0.11943 0.5496 0.41762 0.0
C568 C 0.12381 0.54286 0.25165 0.0
C569 C 0.07151 0.55625 0.32016 0.0
C570 C 0.09104 0.55223 0.24171 0.0
C571 C 0.07791 0.49293 0.74709 0.0
C572 C 0.06489 0.54759 0.48928 0.0
C573 C 0.02001 0.67254 0.63478 0.0
C574 C 0.03953 0.66931 0.71393 0.0
C575 C 0.99408 0.54143 0.8144 0.0
C576 C 0.95169 0.46554 0.97703 0.0
C577 C 0.92816 0.49003 0.96494 0.0
C578 C 0.9064 0.49772 0.03586 0.0
C579 C 0.90807 0.48085 0.12018 0.0
C580 C 0.95338 0.44869 0.06108 0.0
C581 C 0.93151 0.45632 0.13252 0.0
C582 C 0.94982 0.52792 0.63921 0.0
C583 C 0.97294 0.45572 0.90058 0.0
H584 H 0.13002 0.55135 0.48571 0.0
H585 H 0.13734 0.53623 0.18968 0.0
H586 H 0.04536 0.55996 0.31215 0.0
H587 H 0.08022 0.55387 0.17327 0.0
H588 H 0.92544 0.50235 0.89954 0.0
H589 H 0.89123 0.48668 0.17604 0.0
H590 H 0.97122 0.42934 0.07075 0.0
H591 H 0.93264 0.44316 0.19722 0.0
C592 C 0.10266 0.07907 0.34135 0.0
C593 C 0.12567 0.05579 0.30519 0.0
C594 C 0.10181 0.01579 0.41522 0.0
C595 C 0.0826 0.04053 0.45959 0.0
N596 N 0.07123 0.09804 0.47338 0.0
N597 N 0.1249 0.99807 0.26928 0.0
C598 C 0.08495 0.07274 0.42502 0.0
C599 C 0.11954 0.02277 0.33175 0.0
N600 N 0.09213 0.10399 0.28696 0.0
N601 N 0.10375 0.98541 0.45274 0.0
H602 H 0.13027 1.00284 0.19997 0.0
H603 H 0.1183 0.97383 0.28131 0.0
H604 H 0.0923 0.97957 0.51466 0.0
H605 H 0.11965 0.96741 0.42766 0.0
H606 H 0.07327 0.11956 0.30731 0.0
H607 H 0.09756 0.10494 0.21645 0.0
H608 H 0.07685 0.12224 0.45796 0.0
H609 H 0.0577 0.09483 0.53397 0.0
C610 C 0.45359 0.0938 0.3119 0.0
C611 C 0.46703 0.12592 0.30839 0.0
C612 C 0.50339 0.11041 0.43747 0.0
C613 C 0.4852 0.08123 0.45318 0.0
N614 N 0.43583 0.0515 0.41496 0.0
N615 N 0.49957 0.1668 0.3899 0.0
C616 C 0.45838 0.07455 0.39269 0.0
C617 C 0.49049 0.1349 0.37754 0.0
N618 N 0.43673 0.08121 0.23786 0.0
N619 N 0.53398 0.11411 0.47422 0.0
H620 H 0.48891 0.18594 0.35328 0.0
H621 H 0.51479 0.17433 0.44442 0.0
H622 H 0.54562 0.09535 0.50991 0.0
H623 H 0.54895 0.13407 0.45904 0.0
H624 H 0.42869 0.05698 0.23464 0.0
H625 H 0.43448 0.09376 0.17572 0.0
H626 H 0.41554 0.04647 0.37336 0.0
H627 H 0.43491 0.04138 0.48062 0.0
C628 C 0.39833 0.4691 0.41326 0.0
C629 C 0.40637 0.47918 0.32177 0.0
C630 C 0.45834 0.50248 0.38307 0.0
C631 C 0.45214 0.48943 0.47305 0.0
N632 N 0.41704 0.45685 0.56949 0.0
N633 N 0.44484 0.50408 0.21812 0.0
C634 C 0.42208 0.47218 0.48708 0.0
C635 C 0.43647 0.49583 0.30672 0.0
N636 N 0.36814 0.45567 0.42905 0.0
N637 N 0.48559 0.52115 0.37025 0.0
H638 H 0.42908 0.50073 0.16165 0.0
H639 H 0.46792 0.51252 0.19894 0.0
H640 H 0.50237 0.52513 0.4231 0.0
H641 H 0.49036 0.53459 0.31089 0.0
H642 H 0.3591 0.45054 0.49474 0.0
H643 H 0.35091 0.45174 0.37642 0.0
H644 H 0.3978 0.44078 0.58215 0.0
H645 H 0.43344 0.45873 0.62454 0.0
C646 C 0.05674 0.44126 0.3165 0.0
C647 C 0.04113 0.41014 0.30737 0.0
C648 C 0.02739 0.41479 0.47428 0.0
C649 C 0.03788 0.44798 0.48028 0.0
N650 N 0.08358 0.47862 0.42258 0.0
N651 N 1.00713 0.36949 0.38162 0.0
C652 C 0.05815 0.45784 0.405 0.0
C653 C 0.0243 0.39812 0.38659 0.0
N654 N 0.07065 0.45521 0.24047 0.0
N655 N 0.0289 0.39635 0.55194 0.0
H656 H 1.00593 0.3548 0.32235 0.0
H657 H 0.99227 0.36169 0.43598 0.0
H658 H 0.03997 0.40546 0.61206 0.0
H659 H 0.02501 0.37111 0.55162 0.0
H660 H 0.07997 0.479 0.24133 0.0
H661 H 0.06987 0.44419 0.17486 0.0
H662 H 0.10219 0.48257 0.37466 0.0
H663 H 0.08896 0.48737 0.48911 0.0
C664 C 0.89843 0.02455 1.00559 0.0
C665 C 0.90395 0.99368 0.06747 0.0
C666 C 0.94463 0.97207 0.9535 0.0
C667 C 0.94491 1.0011 0.89919 0.0
N668 N 0.92389 0.05605 0.87753 0.0
N669 N 0.93632 0.94662 0.10252 0.0
C670 C 0.92342 0.02724 0.92403 0.0
C671 C 0.92791 0.97032 0.04105 0.0
N672 N 0.872 0.05044 0.02269 0.0
N673 N 0.95954 0.94463 0.91905 0.0
H674 H 0.92598 0.94472 0.1683 0.0
H675 H 0.95626 0.93131 0.0919 0.0
H676 H 0.97141 0.94407 0.85532 0.0
H677 H 0.95668 0.92157 0.94824 0.0
H678 H 0.85477 0.04827 0.07563 0.0
H679 H 0.88589 0.03615 0.01539 0.0
H680 H 0.90783 0.07503 0.895 0.0
H681 H 0.94084 0.06167 0.82651 0.0
C682 C 0.53025 0.94321 0.07657 0.0
C683 C 0.54118 0.91066 0.06214 0.0
C684 C 0.54777 0.92272 0.89539 0.0
C685 C 0.53214 0.95383 0.9065 0.0
N686 N 0.51282 0.99496 0.0167 0.0
N687 N 0.55709 0.86805 0.95478 0.0
C688 C 0.5248 0.96439 0.99961 0.0
C689 C 0.54923 0.90012 0.97082 0.0
N690 N 0.52641 0.95456 0.1655 0.0
N691 N 0.56394 0.91565 0.81514 0.0
H692 H 0.55867 0.85085 0.00759 0.0
H693 H 0.55937 0.858 0.88836 0.0
H694 H 0.56479 0.93184 0.76021 0.0
H695 H 0.57931 0.89545 0.80692 0.0
H696 H 0.52054 0.9786 0.18277 0.0
H697 H 0.53122 0.94044 0.22378 0.0
H698 H 0.51949 0.0152 0.9787 0.0
H699 H 0.49788 1.00066 0.07309 0.0
C700 C 0.57883 0.55018 0.04611 0.0
C701 C 0.60937 0.53367 0.05261 0.0
C702 C 0.60483 0.5217 0.88502 0.0
C703 C 0.57157 0.53204 0.88167 0.0
N704 N 0.54113 0.57726 0.94382 0.0
N705 N 0.6497 0.49982 0.97471 0.0
C706 C 0.56198 0.55192 0.95871 0.0
C707 C 0.62135 0.51752 0.97167 0.0
N708 N 0.56539 0.56416 0.12344 0.0
N709 N 0.6234 0.52462 0.80762 0.0
H710 H 0.664 0.49763 0.03436 0.0
H711 H 0.65763 0.4858 0.91815 0.0
H712 H 0.6143 0.53672 0.74975 0.0
H713 H 0.64871 0.52072 0.80725 0.0
H714 H 0.5413 0.57272 0.1243 0.0
H715 H 0.57708 0.5642 0.18795 0.0
H716 H 0.53808 0.59605 0.9924 0.0
H717 H 0.53185 0.58235 0.87816 0.0
C718 C 0.97725 0.62165 0.95717 0.0
C719 C 0.98743 0.61262 0.04822 0.0
C720 C 0.00836 0.56029 0.98094 0.0
C721 C 0.9958 0.56793 0.89121 0.0
N722 N 0.96378 0.60497 0.79892 0.0
N723 N 1.00683 0.56992 0.14779 0.0
C724 C 0.97892 0.59838 0.88115 0.0
C725 C 1.00148 0.581 0.05995 0.0
N726 N 0.96701 0.65299 0.9421 0.0
N727 N 0.02752 0.53323 0.99093 0.0
H728 H 1.00141 0.58384 0.20686 0.0
H729 H 0.01326 0.54585 0.16246 0.0
H730 H 0.03327 0.51802 0.93523 0.0
H731 H 0.04041 0.52781 0.05131 0.0
H732 H 0.96285 0.66246 0.87633 0.0
H733 H 0.96514 0.67048 0.99498 0.0
H734 H 0.94764 0.62442 0.7896 0.0
H735 H 0.9658 0.58967 0.74107 0.0
C736 C 0.04355 0.17403 0.21025 0.0
C737 C 0.06671 0.19011 0.26904 0.0
C738 C 0.03782 0.17163 0.40665 0.0
C739 C 0.01392 0.15691 0.34812 0.0
N740 N 0.99803 0.13602 0.19758 0.0
N741 N 0.09218 0.19589 0.41812 0.0
C742 C 0.01824 0.15531 0.25082 0.0
C743 C 0.06603 0.1857 0.36593 0.0
N744 N 0.04422 0.17865 0.11648 0.0
N745 N 0.03298 0.17311 0.5004 0.0
H746 H 0.11294 0.20625 0.38773 0.0
H747 H 0.0946 0.19133 0.48872 0.0
H748 H 0.01285 0.16233 0.53255 0.0
H749 H 0.04797 0.18632 0.54584 0.0
H750 H 0.02532 0.17154 0.07194 0.0
H751 H 0.06317 0.19065 0.08268 0.0
H752 H 1.00184 0.13143 0.12732 0.0
H753 H 0.97885 0.12232 0.22525 0.0
C754 C 0.34828 0.05355 0.39943 0.0
C755 C 0.33771 0.05202 0.30602 0.0
C756 C 0.35771 0.99578 0.292 0.0
C757 C 0.36466 0.99595 0.38796 0.0
N758 N 0.36204 0.02308 0.53738 0.0
N759 N 0.32326 0.01804 0.17336 0.0
C760 C 0.35856 0.0243 0.44325 0.0
C761 C 0.34007 0.02219 0.25459 0.0
N762 N 0.34921 0.08298 0.44524 0.0
N763 N 0.36805 0.97056 0.23629 0.0
H764 H 0.30748 0.03573 0.14804 0.0
H765 H 0.32166 0.99571 0.13798 0.0
H766 H 0.38109 0.95052 0.2613 0.0
H767 H 0.36634 0.97117 0.16413 0.0
H768 H 0.35978 0.08615 0.51058 0.0
H769 H 0.34208 0.10482 0.41411 0.0
H770 H 0.35496 0.04206 0.58177 0.0
H771 H 0.36946 1.00197 0.57164 0.0
C772 C 0.45183 0.35756 0.34212 0.0
C773 C 0.46052 0.32896 0.29342 0.0
C774 C 0.51687 0.34859 0.27781 0.0
C775 C 0.50608 0.37977 0.30805 0.0
N776 N 0.46252 0.41495 0.36292 0.0
N777 N 0.50125 0.29594 0.214 0.0
C778 C 0.47357 0.38443 0.34064 0.0
C779 C 0.49324 0.32372 0.26252 0.0
N780 N 0.42247 0.3591 0.38756 0.0
N781 N 0.54957 0.34288 0.26417 0.0
H782 H 0.48517 0.27634 0.20495 0.0
H783 H 0.52336 0.29294 0.17884 0.0
H784 H 0.5674 0.36086 0.27542 0.0
H785 H 0.55921 0.31974 0.25028 0.0
H786 H 0.41601 0.37827 0.43209 0.0
H787 H 0.40612 0.3394 0.38807 0.0
H788 H 0.43793 0.4196 0.37569 0.0
H789 H 0.47701 0.43589 0.35966 0.0
C790 C 0.21426 0.5025 0.25037 0.0
C791 C 0.20999 0.47099 0.29033 0.0
C792 C 0.17227 0.49388 0.40321 0.0
C793 C 0.17052 0.5231 0.35056 0.0
N794 N 0.19772 0.55989 0.24852 0.0
N795 N 0.18359 0.43581 0.40044 0.0
C796 C 0.19448 0.5289 0.28214 0.0
C797 C 0.18855 0.46637 0.36542 0.0
N798 N 0.23614 0.50659 0.17968 0.0
N799 N 0.16199 0.49332 0.49298 0.0
H800 H 0.19599 0.41512 0.37592 0.0
H801 H 0.16522 0.43072 0.44841 0.0
H802 H 0.15879 0.51454 0.53196 0.0
H803 H 0.1635 0.47264 0.53416 0.0
H804 H 0.23849 0.52781 0.14113 0.0
H805 H 0.25197 0.48813 0.1578 0.0
H806 H 0.21507 0.56702 0.2 0.0
H807 H 0.18369 0.57925 0.27483 0.0
C808 C 0.97434 0.85198 0.06614 0.0
C809 C 0.97232 0.82041 0.02737 0.0
C810 C 1.00571 0.83672 0.89673 0.0
C811 C 0.01561 0.86427 0.95043 0.0
N812 N 0.00988 0.8988 0.08687 0.0
N813 N 0.97743 0.78413 0.89762 0.0
C814 C 0.99927 0.8729 0.034 0.0
C815 C 0.9842 0.81379 0.93762 0.0
N816 N 0.95532 0.85959 0.14097 0.0
N817 N 0.01829 0.83194 0.80992 0.0
H818 H 0.9613 0.7677 0.92885 0.0
H819 H 0.98755 0.77577 0.83561 0.0
H820 H 0.03433 0.84864 0.77964 0.0
H821 H 0.01151 0.81273 0.76602 0.0
H822 H 0.95508 0.88249 0.17309 0.0
H823 H 0.93796 0.84303 0.1659 0.0
H824 H 1.00206 0.90302 0.1547 0.0
H825 H 0.0278 0.91519 0.06486 0.0
C826 C 0.70932 0.98442 0.96406 0.0
C827 C 0.69963 0.9698 0.04744 0.0
C828 C 0.64398 0.98945 0.03037 0.0
C829 C 0.65612 0.01125 0.96225 0.0
N830 N 0.69636 0.02468 0.84661 0.0
N831 N 0.65724 0.94532 0.13684 0.0
C832 C 0.68738 0.00645 0.92134 0.0
C833 C 0.66631 0.96718 0.07076 0.0
N834 N 0.74066 0.97966 0.93364 0.0
N835 N 0.61245 0.99215 0.06175 0.0
H836 H 0.67448 0.92987 0.16747 0.0
H837 H 0.63308 0.94071 0.15585 0.0
H838 H 0.59551 0.00849 0.03424 0.0
H839 H 0.60282 0.97844 0.11556 0.0
H840 H 0.7504 0.9899 0.874 0.0
H841 H 0.75656 0.96382 0.9683 0.0
H842 H 0.71943 0.02391 0.81599 0.0
H843 H 0.6799 0.04031 0.8135 0.0
C844 C 0.53432 0.69964 0.97162 0.0
C845 C 0.55109 0.70185 0.05605 0.0
C846 C 0.52396 0.65326 0.11232 0.0
C847 C 0.50089 0.65631 0.03878 0.0
N848 N 0.48338 0.68365 0.8984 0.0
N849 N 0.57485 0.67339 0.18296 0.0
C850 C 0.50631 0.67927 0.96642 0.0
C851 C 0.55079 0.67532 0.11723 0.0
N852 N 0.54357 0.71966 0.90143 0.0
N853 N 0.51867 0.62994 0.17743 0.0
H854 H 0.59398 0.6904 0.18526 0.0
H855 H 0.57747 0.6543 0.22957 0.0
H856 H 0.53293 0.62662 0.23667 0.0
H857 H 0.53293 0.62662 0.23667 0.0
H858 H 0.53373 0.71825 0.83473 0.0
H859 H 0.56342 0.73566 0.90989 0.0
H860 H 0.48527 0.70153 0.84774 0.0
H861 H 0.46093 0.67137 0.89767 0.0
C862 C 0.85688 0.57082 0.10144 0.0
C863 C 0.82735 0.56162 0.05729 0.0
C864 C 0.85468 0.52019 0.96484 0.0
C865 C 0.8825 0.52439 0.02374 0.0
N866 N 0.91529 0.56048 0.11917 0.0
N867 N 0.79999 0.54002 0.92427 0.0
C868 C 0.8855 0.55251 0.0815 0.0
C869 C 0.82771 0.54161 0.97752 0.0
N870 N 0.85623 0.59445 0.16897 0.0
N871 N 0.85289 0.4944 0.90388 0.0
H872 H 0.78 0.55532 0.93824 0.0
H873 H 0.79737 0.52548 0.86507 0.0
H874 H 0.8717 0.47744 0.89513 0.0
H875 H 0.83233 0.48896 0.8637 0.0
H876 H 0.87606 0.60031 0.21167 0.0
H877 H 0.83502 0.60802 0.18219 0.0
H878 H 0.91951 0.58125 0.15981 0.0
H879 H 0.93651 0.54721 0.1037 0.0
C880 C 0.01215 0.16945 0.76103 0.0
C881 C 0.04046 0.1726 0.81793 0.0
C882 C 0.05478 0.11563 0.76863 0.0
C883 C 0.02254 0.10925 0.73452 0.0
N884 N 0.97276 0.13579 0.68023 0.0
N885 N 0.08857 0.14585 0.87918 0.0
C886 C 1.00183 0.13781 0.72657 0.0
C887 C 0.06174 0.14486 0.82247 0.0
N888 N 0.9965 0.1972 0.73231 0.0
N889 N 0.07981 0.09603 0.74082 0.0
H890 H 0.09391 0.1659 0.92204 0.0
H891 H 0.10369 0.12561 0.88905 0.0
H892 H 0.07601 0.07713 0.69323 0.0
H893 H 0.10435 0.10132 0.75553 0.0
H894 H 0.97842 0.19732 0.6811 0.0
H895 H 1.00405 0.2207 0.75168 0.0
H896 H 0.95376 0.15258 0.6895 0.0
H897 H 0.96896 0.11906 0.62692 0.0
C898 C 0.38235 0.0739 0.7908 0.0
C899 C 0.35814 0.04945 0.80898 0.0
C900 C 0.3988 0.00827 0.75632 0.0
C901 C 0.42129 0.03284 0.72694 0.0
N902 N 0.42653 0.08997 0.68879 0.0
N903 N 0.34139 0.9941 0.7724 0.0
C904 C 0.41061 0.06597 0.73545 0.0
C905 C 0.36581 0.01679 0.78127 0.0
N906 N 0.37948 0.10443 0.8292 0.0
N907 N 0.40889 0.97661 0.76265 0.0
H908 H 0.31669 0.99992 0.78172 0.0
H909 H 0.34538 0.97088 0.74386 0.0
H910 H 0.43344 0.97015 0.75535 0.0
H911 H 0.39391 0.95804 0.78797 0.0
H912 H 0.39697 0.1227 0.81983 0.0
H913 H 0.36189 0.11023 0.87906 0.0
H914 H 0.41823 0.1141 0.68706 0.0
H915 H 0.44598 0.08493 0.64462 0.0
C916 C 0.47656 0.35111 0.72824 0.0
C917 C 0.46612 0.34709 0.8216 0.0
C918 C 0.47676 0.40576 0.84952 0.0
C919 C 0.48336 0.411 0.75375 0.0
N920 N 0.48278 0.38804 0.59856 0.0
N921 N 0.44726 0.37355 0.96188 0.0
C922 C 0.48146 0.38343 0.69208 0.0
C923 C 0.46341 0.37534 0.87921 0.0
N924 N 0.48263 0.3241 0.67445 0.0
N925 N 0.48545 0.42878 0.9142 0.0
H926 H 0.43623 0.35207 0.9848 0.0
H927 H 0.44178 0.39421 1.00207 0.0
H928 H 0.49746 0.45041 0.8973 0.0
H929 H 0.48387 0.42475 0.98538 0.0
H930 H 0.49369 0.32526 0.60947 0.0
H931 H 0.47924 0.30031 0.69829 0.0
H932 H 0.47859 0.36941 0.55009 0.0
H933 H 0.48442 0.41112 0.56931 0.0
C934 C 0.16386 0.50318 0.84839 0.0
C935 C 0.18219 0.47577 0.81615 0.0
C936 C 0.13113 0.45888 0.7305 0.0
C937 C 0.1125 0.48326 0.77843 0.0
N938 N 0.11206 0.5188 0.91249 0.0
N939 N 0.18515 0.43925 0.68392 0.0
C940 C 0.12913 0.50241 0.84604 0.0
C941 C 0.16623 0.4563 0.74565 0.0
N942 N 0.17875 0.53258 0.86304 0.0
N943 N 0.11517 0.43753 0.67263 0.0
H944 H 0.21047 0.44287 0.6803 0.0
H945 H 0.17594 0.42538 0.62883 0.0
H946 H 0.08984 0.43829 0.66337 0.0
H947 H 0.12618 0.41722 0.64171 0.0
H948 H 0.16555 0.55348 0.88225 0.0
H949 H 0.20238 0.53705 0.83827 0.0
H950 H 0.12372 0.53234 0.96488 0.0
H951 H 0.08717 0.51438 0.9219 0.0
C952 C 1.00707 0.87672 0.48669 0.0
C953 C 0.98273 0.85912 0.53542 0.0
C954 C 0.97226 0.91013 0.62837 0.0
C955 C 1.00029 0.92616 0.58924 0.0
N956 N 0.0462 0.92086 0.4838 0.0
N957 N 0.94328 0.85884 0.65879 0.0
C958 C 0.0181 0.90813 0.51966 0.0
C959 C 0.96551 0.8759 0.60764 0.0
N960 N 0.01911 0.86397 0.40555 0.0
N961 N 0.9516 0.92746 0.68429 0.0
H962 H 0.93732 0.83449 0.64394 0.0
H963 H 0.93263 0.86794 0.71937 0.0
H964 H 0.95531 0.95201 0.69979 0.0
H965 H 0.92913 0.91857 0.70738 0.0
H966 H 0.03358 0.87735 0.36003 0.0
H967 H 0.01191 0.84126 0.37866 0.0
H968 H 0.06305 0.90709 0.44561 0.0
H969 H 0.05291 0.94508 0.49352 0.0
C970 C 0.65349 0.98129 0.63547 0.0
C971 C 0.66696 0.98989 0.54834 0.0
C972 C 0.61456 0.01696 0.50866 0.0
C973 C 0.59938 1.00614 0.59233 0.0
N974 N 0.60627 0.97763 0.73686 0.0
N975 N 0.65735 0.00897 0.39352 0.0
C976 C 0.61935 0.98774 0.65541 0.0
C977 C 0.64647 1.00542 0.48248 0.0
N978 N 0.67385 0.96814 0.70084 0.0
N979 N 0.59932 0.03986 0.45536 0.0
H980 H 0.68048 1.00112 0.37169 0.0
H981 H 0.64227 0.01672 0.33954 0.0
H982 H 0.57577 0.04852 0.46869 0.0
H983 H 0.61088 0.05167 0.40066 0.0
H984 H 0.66731 0.9641 0.76941 0.0
H985 H 0.6984 0.96261 0.68758 0.0
H986 H 0.61755 0.96134 0.78181 0.0
H987 H 0.58327 0.98489 0.75861 0.0
C988 C 0.52546 0.65546 0.48955 0.0
C989 C 0.54592 0.67564 0.54619 0.0
C990 C 0.5574 0.62769 0.64562 0.0
C991 C 0.53594 0.60778 0.59063 0.0
N992 N 0.50967 0.60062 0.44279 0.0
N993 N 0.57988 0.68188 0.68167 0.0
C994 C 0.52263 0.62122 0.50799 0.0
C995 C 0.56162 0.66189 0.62503 0.0
N996 N 0.50805 0.66919 0.4186 0.0
N997 N 0.57543 0.61331 0.71385 0.0
H998 H 0.58405 0.70649 0.66704 0.0
H999 H 0.58939 0.67494 0.74551 0.0
H1000 H 0.57482 0.58826 0.72464 0.0
H1001 H 0.59335 0.62511 0.75329 0.0
H1002 H 0.48945 0.65702 0.3825 0.0
H1003 H 0.51038 0.69367 0.39985 0.0
H1004 H 0.50119 0.60781 0.37801 0.0
H1005 H 0.51155 0.5755 0.44967 0.0
C1006 C 0.8744 0.54411 0.47884 0.0
C1007 C 0.84874 0.54912 0.54462 0.0
C1008 C 0.89057 0.54682 0.67063 0.0
C1009 C 0.91549 0.53775 0.60588 0.0
N1010 N 0.93017 0.5262 0.44685 0.0
N1011 N 0.83262 0.55621 0.70365 0.0
C1012 C 0.90718 0.53653 0.50949 0.0
C1013 C 0.85704 0.5508 0.64062 0.0
N1014 N 0.86751 0.54653 0.38625 0.0
N1015 N 0.89923 0.55299 0.76072 0.0
H1016 H 0.80847 0.56137 0.68456 0.0
H1017 H 0.8359 0.55473 0.77485 0.0
H1018 H 0.92319 0.5508 0.78441 0.0
H1019 H 0.8837 0.56306 0.81048 0.0
H1020 H 0.88543 0.54792 0.33511 0.0
H1021 H 0.84384 0.54946 0.36016 0.0
H1022 H 0.92495 0.52039 0.37791 0.0
H1023 H 0.95437 0.52116 0.46487 0.0
loop_
_geom_bond_atom_site_label_1
_geom_bond_atom_site_label_2
_geom_bond_distance
_geom_bond_site_symmetry_2
_ccdc_geom_bond_type
P0 O11 1.490 . S
P0 C14 1.812 . S
P0 C20 1.803 . S
P0 C26 1.819 . S
H1 C15 0.941 . S
H2 C16 0.939 . S
H3 C18 0.940 . S
H4 C19 0.940 . S
H5 C21 0.939 . S
H6 C22 0.942 . S
H7 C24 0.940 . S
H8 C25 0.939 . S
H9 C27 0.941 . S
H10 C31 0.939 . S
O11 P0 1.490 . S
H12 C28 0.939 . S
H13 C30 0.940 . S
C14 P0 1.812 . S
C14 C15 1.389 . S
C14 C19 1.391 . S
C15 H1 0.941 . S
C15 C14 1.389 . S
C15 C16 1.397 . S
C16 H2 0.939 . S
C16 C15 1.397 . S
C16 C17 1.378 . S
C17 C16 1.378 . S
C17 C18 1.378 . S
C18 H3 0.940 . S
C18 C17 1.378 . S
C18 C19 1.396 . S
C19 H4 0.940 . S
C19 C14 1.391 . S
C19 C18 1.396 . S
C20 P0 1.803 . S
C20 C21 1.378 . S
C20 C25 1.400 . S
C21 H5 0.939 . S
C21 C20 1.378 . S
C21 C22 1.361 . S
C22 H6 0.942 . S
C22 C21 1.361 . S
C22 C23 1.369 . S
C23 C22 1.369 . S
C23 C24 1.404 . S
C24 H7 0.940 . S
C24 C23 1.404 . S
C24 C25 1.389 . S
C25 H8 0.939 . S
C25 C20 1.400 . S
C25 C24 1.389 . S
C26 P0 1.819 . S
C26 C27 1.391 . S
C26 C31 1.391 . S
C27 H9 0.941 . S
C27 C26 1.391 . S
C27 C28 1.396 . S
C28 H12 0.939 . S
C28 C27 1.396 . S
C28 C29 1.397 . S
C29 C28 1.397 . S
C29 C30 1.385 . S
C30 H13 0.940 . S
C30 C29 1.385 . S
C30 C31 1.388 . S
C31 H10 0.939 . S
C31 C26 1.391 . S
C31 C30 1.388 . S
P32 O43 1.490 1_655 S
P32 C46 1.812 . S
P32 C52 1.803 . S
P32 C58 1.819 . S
H33 C47 0.941 1_455 S
H34 C48 0.939 . S
H35 C50 0.940 . S
H36 C51 0.940 . S
H37 C53 0.939 1_455 S
H38 C54 0.942 . S
H39 C56 0.940 . S
H40 C57 0.939 . S
H41 C59 0.941 1_455 S
H42 C63 0.939 . S
O43 P32 1.490 1_455 S
H44 C60 0.939 . S
H45 C62 0.940 . S
C46 P32 1.812 . S
C46 C47 1.389 . S
C46 C51 1.391 . S
C47 H33 0.941 1_655 S
C47 C46 1.389 . S
C47 C48 1.397 . S
C48 H34 0.939 . S
C48 C47 1.397 . S
C48 C49 1.378 . S
C49 C48 1.378 . S
C49 C50 1.378 . S
C50 H35 0.940 . S
C50 C49 1.378 . S
C50 C51 1.396 . S
C51 H36 0.940 . S
C51 C46 1.391 . S
C51 C50 1.396 . S
C52 P32 1.803 . S
C52 C53 1.378 . S
C52 C57 1.400 . S
C53 H37 0.939 1_655 S
C53 C52 1.378 . S
C53 C54 1.361 . S
C54 H38 0.942 . S
C54 C53 1.361 . S
C54 C55 1.369 . S
C55 C54 1.369 . S
C55 C56 1.404 . S
C56 H39 0.940 . S
C56 C55 1.404 . S
C56 C57 1.389 . S
C57 H40 0.939 . S
C57 C52 1.400 . S
C57 C56 1.389 . S
C58 P32 1.819 . S
C58 C59 1.391 . S
C58 C63 1.391 . S
C59 H41 0.941 1_655 S
C59 C58 1.391 . S
C59 C60 1.396 . S
C60 H44 0.939 . S
C60 C59 1.396 . S
C60 C61 1.397 . S
C61 C60 1.397 . S
C61 C62 1.385 . S
C62 H45 0.940 . S
C62 C61 1.385 . S
C62 C63 1.388 . S
C63 H42 0.939 . S
C63 C58 1.391 . S
C63 C62 1.388 . S
P64 O75 1.490 . S
P64 C78 1.812 1_545 S
P64 C84 1.803 1_545 S
P64 C90 1.819 1_545 S
H65 C79 0.941 . S
H66 C80 0.939 1_545 S
H67 C82 0.940 . S
H68 C83 0.940 . S
H69 C85 0.939 . S
H70 C86 0.942 1_545 S
H71 C88 0.940 . S
H72 C89 0.939 . S
H73 C91 0.941 1_545 S
H74 C95 0.939 . S
O75 P64 1.490 . S
H76 C92 0.939 . S
H77 C94 0.940 . S
C78 P64 1.812 1_565 S
C78 C79 1.389 1_565 S
C78 C83 1.391 . S
C79 H65 0.941 . S
C79 C78 1.389 1_545 S
C79 C80 1.397 1_545 S
C80 H66 0.939 1_565 S
C80 C79 1.397 1_565 S
C80 C81 1.378 . S
C81 C80 1.378 . S
C81 C82 1.378 . S
C82 H67 0.940 . S
C82 C81 1.378 . S
C82 C83 1.396 . S
C83 H68 0.940 . S
C83 C78 1.391 . S
C83 C82 1.396 . S
C84 P64 1.803 1_565 S
C84 C85 1.378 1_565 S
C84 C89 1.400 . S
C85 H69 0.939 . S
C85 C84 1.378 1_545 S
C85 C86 1.361 1_545 S
C86 H70 0.942 1_565 S
C86 C85 1.361 1_565 S
C86 C87 1.369 . S
C87 C86 1.369 . S
C87 C88 1.404 . S
C88 H71 0.940 . S
C88 C87 1.404 . S
C88 C89 1.389 . S
C89 H72 0.939 . S
C89 C84 1.400 . S
C89 C88 1.389 . S
C90 P64 1.819 1_565 S
C90 C91 1.391 . S
C90 C95 1.391 . S
C91 H73 0.941 1_565 S
C91 C90 1.391 . S
C91 C92 1.396 . S
C92 H76 0.939 . S
C92 C91 1.396 . S
C92 C93 1.397 . S
C93 C92 1.397 . S
C93 C94 1.385 . S
C94 H77 0.940 . S
C94 C93 1.385 . S
C94 C95 1.388 . S
C95 H74 0.939 . S
C95 C90 1.391 . S
C95 C94 1.388 . S
P96 O107 1.490 . S
P96 C110 1.812 . S
P96 C116 1.803 . S
P96 C122 1.819 . S
H97 C111 0.941 . S
H98 C112 0.939 . S
H99 C114 0.940 . S
H100 C115 0.940 . S
H101 C117 0.939 . S
H102 C118 0.942 . S
H103 C120 0.940 . S
H104 C121 0.939 . S
H105 C123 0.941 . S
H106 C127 0.939 . S
O107 P96 1.490 . S
H108 C124 0.939 . S
H109 C126 0.940 . S
C110 P96 1.812 . S
C110 C111 1.389 . S
C110 C115 1.391 . S
C111 H97 0.941 . S
C111 C110 1.389 . S
C111 C112 1.397 . S
C112 H98 0.939 . S
C112 C111 1.397 . S
C112 C113 1.378 . S
C113 C112 1.378 . S
C113 C114 1.378 . S
C114 H99 0.940 . S
C114 C113 1.378 . S
C114 C115 1.396 . S
C115 H100 0.940 . S
C115 C110 1.391 . S
C115 C114 1.396 . S
C116 P96 1.803 . S
C116 C117 1.378 . S
C116 C121 1.400 . S
C117 H101 0.939 . S
C117 C116 1.378 . S
C117 C118 1.361 . S
C118 H102 0.942 . S
C118 C117 1.361 . S
C118 C119 1.369 . S
C119 C118 1.369 . S
C119 C120 1.404 . S
C120 H103 0.940 . S
C120 C119 1.404 . S
C120 C121 1.389 . S
C121 H104 0.939 . S
C121 C116 1.400 . S
C121 C120 1.389 . S
C122 P96 1.819 . S
C122 C123 1.391 . S
C122 C127 1.391 . S
C123 H105 0.941 . S
C123 C122 1.391 . S
C123 C124 1.396 . S
C124 H108 0.939 . S
C124 C123 1.396 . S
C124 C125 1.397 . S
C125 C124 1.397 . S
C125 C126 1.385 . S
C126 H109 0.940 . S
C126 C125 1.385 . S
C126 C127 1.388 . S
C127 H106 0.939 . S
C127 C122 1.391 . S
C127 C126 1.388 . S
P128 O139 1.490 . S
P128 C142 1.812 1_554 S
P128 C148 1.803 . S
P128 C154 1.819 . S
H129 C143 0.941 . S
H130 C144 0.939 . S
H131 C146 0.940 . S
H132 C147 0.940 . S
H133 C149 0.939 . S
H134 C150 0.942 . S
H135 C152 0.940 . S
H136 C153 0.939 1_556 S
H137 C155 0.941 . S
H138 C159 0.939 . S
O139 P128 1.490 . S
H140 C156 0.939 . S
H141 C158 0.940 . S
C142 P128 1.812 1_556 S
C142 C143 1.389 . S
C142 C147 1.391 . S
C143 H129 0.941 . S
C143 C142 1.389 . S
C143 C144 1.397 . S
C144 H130 0.939 . S
C144 C143 1.397 . S
C144 C145 1.378 . S
C145 C144 1.378 . S
C145 C146 1.378 . S
C146 H131 0.940 . S
C146 C145 1.378 . S
C146 C147 1.396 . S
C147 H132 0.940 . S
C147 C142 1.391 . S
C147 C146 1.396 . S
C148 P128 1.803 . S
C148 C149 1.378 . S
C148 C153 1.400 . S
C149 H133 0.939 . S
C149 C148 1.378 . S
C149 C150 1.361 . S
C150 H134 0.942 . S
C150 C149 1.361 . S
C150 C151 1.369 . S
C151 C150 1.369 . S
C151 C152 1.404 . S
C152 H135 0.940 . S
C152 C151 1.404 . S
C152 C153 1.389 . S
C153 H136 0.939 1_554 S
C153 C148 1.400 . S
C153 C152 1.389 . S
C154 P128 1.819 . S
C154 C155 1.391 . S
C154 C159 1.391 . S
C155 H137 0.941 . S
C155 C154 1.391 . S
C155 C156 1.396 . S
C156 H140 0.939 . S
C156 C155 1.396 . S
C156 C157 1.397 . S
C157 C156 1.397 . S
C157 C158 1.385 . S
C158 H141 0.940 . S
C158 C157 1.385 . S
C158 C159 1.388 . S
C159 H138 0.939 . S
C159 C154 1.391 . S
C159 C158 1.388 . S
P160 O171 1.490 . S
P160 C174 1.812 1_554 S
P160 C180 1.803 . S
P160 C186 1.819 . S
H161 C175 0.941 . S
H162 C176 0.939 . S
H163 C178 0.940 . S
H164 C179 0.940 . S
H165 C181 0.939 . S
H166 C182 0.942 . S
H167 C184 0.940 . S
H168 C185 0.939 1_556 S
H169 C187 0.941 . S
H170 C191 0.939 . S
O171 P160 1.490 . S
H172 C188 0.939 . S
H173 C190 0.940 . S
C174 P160 1.812 1_556 S
C174 C175 1.389 . S
C174 C179 1.391 . S
C175 H161 0.941 . S
C175 C174 1.389 . S
C175 C176 1.397 . S
C176 H162 0.939 . S
C176 C175 1.397 . S
C176 C177 1.378 . S
C177 C176 1.378 . S
C177 C178 1.378 . S
C178 H163 0.940 . S
C178 C177 1.378 . S
C178 C179 1.396 . S
C179 H164 0.940 . S
C179 C174 1.391 . S
C179 C178 1.396 . S
C180 P160 1.803 . S
C180 C181 1.378 . S
C180 C185 1.400 . S
C181 H165 0.939 . S
C181 C180 1.378 . S
C181 C182 1.361 . S
C182 H166 0.942 . S
C182 C181 1.361 . S
C182 C183 1.369 . S
C183 C182 1.369 . S
C183 C184 1.404 . S
C184 H167 0.940 . S
C184 C183 1.404 . S
C184 C185 1.389 . S
C185 H168 0.939 1_554 S
C185 C180 1.400 . S
C185 C184 1.389 . S
C186 P160 1.819 . S
C186 C187 1.391 . S
C186 C191 1.391 . S
C187 H169 0.941 . S
C187 C186 1.391 . S
C187 C188 1.396 . S
C188 H172 0.939 . S
C188 C187 1.396 . S
C188 C189 1.397 . S
C189 C188 1.397 . S
C189 C190 1.385 . S
C190 H173 0.940 . S
C190 C189 1.385 . S
C190 C191 1.388 . S
C191 H170 0.939 . S
C191 C186 1.391 . S
C191 C190 1.388 . S
P192 O203 1.490 . S
P192 C206 1.812 1_554 S
P192 C212 1.803 . S
P192 C218 1.819 . S
H193 C207 0.941 . S
H194 C208 0.939 . S
H195 C210 0.940 . S
H196 C211 0.940 . S
H197 C213 0.939 . S
H198 C214 0.942 . S
H199 C216 0.940 . S
H200 C217 0.939 1_556 S
H201 C219 0.941 . S
H202 C223 0.939 . S
O203 P192 1.490 . S
H204 C220 0.939 . S
H205 C222 0.940 . S
C206 P192 1.812 1_556 S
C206 C207 1.389 . S
C206 C211 1.391 . S
C207 H193 0.941 . S
C207 C206 1.389 . S
C207 C208 1.397 . S
C208 H194 0.939 . S
C208 C207 1.397 . S
C208 C209 1.378 . S
C209 C208 1.378 . S
C209 C210 1.378 . S
C210 H195 0.940 . S
C210 C209 1.378 . S
C210 C211 1.396 . S
C211 H196 0.940 . S
C211 C206 1.391 . S
C211 C210 1.396 . S
C212 P192 1.803 . S
C212 C213 1.378 . S
C212 C217 1.400 . S
C213 H197 0.939 . S
C213 C212 1.378 . S
C213 C214 1.361 . S
C214 H198 0.942 . S
C214 C213 1.361 . S
C214 C215 1.369 . S
C215 C214 1.369 . S
C215 C216 1.404 . S
C216 H199 0.940 . S
C216 C215 1.404 . S
C216 C217 1.389 . S
C217 H200 0.939 1_554 S
C217 C212 1.400 . S
C217 C216 1.389 . S
C218 P192 1.819 . S
C218 C219 1.391 . S
C218 C223 1.391 . S
C219 H201 0.941 . S
C219 C218 1.391 . S
C219 C220 1.396 . S
C220 H204 0.939 . S
C220 C219 1.396 . S
C220 C221 1.397 . S
C221 C220 1.397 . S
C221 C222 1.385 . S
C222 H205 0.940 . S
C222 C221 1.385 . S
C222 C223 1.388 . S
C223 H202 0.939 . S
C223 C218 1.391 . S
C223 C222 1.388 . S
P224 O235 1.490 . S
P224 C238 1.812 1_554 S
P224 C244 1.803 . S
P224 C250 1.819 . S
H225 C239 0.941 . S
H226 C240 0.939 . S
H227 C242 0.940 . S
H228 C243 0.940 . S
H229 C245 0.939 . S
H230 C246 0.942 . S
H231 C248 0.940 . S
H232 C249 0.939 1_556 S
H233 C251 0.941 . S
H234 C255 0.939 . S
O235 P224 1.490 . S
H236 C252 0.939 . S
H237 C254 0.940 . S
C238 P224 1.812 1_556 S
C238 C239 1.389 . S
C238 C243 1.391 . S
C239 H225 0.941 . S
C239 C238 1.389 . S
C239 C240 1.397 . S
C240 H226 0.939 . S
C240 C239 1.397 . S
C240 C241 1.378 . S
C241 C240 1.378 . S
C241 C242 1.378 . S
C242 H227 0.940 . S
C242 C241 1.378 . S
C242 C243 1.396 . S
C243 H228 0.940 . S
C243 C238 1.391 . S
C243 C242 1.396 . S
C244 P224 1.803 . S
C244 C245 1.378 . S
C244 C249 1.400 . S
C245 H229 0.939 . S
C245 C244 1.378 . S
C245 C246 1.361 . S
C246 H230 0.942 . S
C246 C245 1.361 . S
C246 C247 1.369 . S
C247 C246 1.369 . S
C247 C248 1.404 . S
C248 H231 0.940 . S
C248 C247 1.404 . S
C248 C249 1.389 . S
C249 H232 0.939 1_554 S
C249 C244 1.400 . S
C249 C248 1.389 . S
C250 P224 1.819 . S
C250 C251 1.391 . S
C250 C255 1.391 . S
C251 H233 0.941 . S
C251 C250 1.391 . S
C251 C252 1.396 . S
C252 H236 0.939 . S
C252 C251 1.396 . S
C252 C253 1.397 . S
C253 C252 1.397 . S
C253 C254 1.385 . S
C254 H237 0.940 . S
C254 C253 1.385 . S
C254 C255 1.388 . S
C255 H234 0.939 . S
C255 C250 1.391 . S
C255 C254 1.388 . S
Tb256 N287 2.660 1_565 S
Tb256 N294 2.600 . S
Tb256 O300 2.546 . S
Tb256 O301 2.610 1_455 S
Tb256 O303 2.320 1_455 S
Tb256 O304 2.552 . S
Tb256 O305 2.413 . S
Tb256 O307 2.362 1_565 S
Tb256 O308 2.421 . S
Tb256 C320 2.833 . S
C257 C260 1.439 . S
C257 C261 1.417 . S
C257 N264 1.350 1_565 S
C258 C260 1.417 . S
C258 C262 1.432 . S
C258 C270 1.410 . S
C259 C261 1.444 . S
C259 C262 1.317 . S
C259 H282 0.929 . S
C260 C257 1.439 . S
C260 C258 1.417 . S
C260 N268 1.360 . S
C261 C257 1.417 . S
C261 C259 1.444 . S
C261 C266 1.385 1_565 S
C262 C258 1.432 . S
C262 C259 1.317 . S
C262 H274 0.930 . S
C263 C265 1.392 . S
C263 C266 1.370 . S
C263 H275 0.931 . S
N264 C257 1.350 1_545 S
N264 C265 1.327 . S
N264 Tb267 2.600 . S
C265 C263 1.392 . S
C265 N264 1.327 . S
C265 H272 0.930 . S
C266 C261 1.385 1_545 S
C266 C263 1.370 . S
C266 H285 0.930 . S
Tb267 N264 2.600 . S
Tb267 N268 2.660 1_545 S
Tb267 O301 2.362 1_545 S
Tb267 O302 2.421 . S
Tb267 O306 2.546 . S
Tb267 O307 2.610 1_655 S
Tb267 O309 2.320 1_655 S
Tb267 O310 2.551 1_655 S
Tb267 O311 2.413 . S
Tb267 C331 2.833 . S
N268 C260 1.360 . S
N268 Tb267 2.660 1_565 S
N268 C269 1.305 . S
C269 N268 1.305 . S
C269 C271 1.407 . S
C269 H276 0.930 1_655 S
C270 C258 1.410 . S
C270 C271 1.345 . S
C270 H278 0.930 . S
C271 C269 1.407 . S
C271 C270 1.345 . S
C271 H273 0.930 1_655 S
H272 C265 0.930 . S
H273 C271 0.930 1_455 S
H274 C262 0.930 . S
H275 C263 0.931 . S
H276 C269 0.930 1_455 S
H277 C291 0.930 1_655 S
H278 C270 0.930 . S
H279 C297 0.930 . S
H280 C288 0.930 1_655 S
H281 C295 0.931 . S
H282 C259 0.929 . S
H283 C289 0.930 . S
H284 C322 0.930 . S
H285 C266 0.930 . S
H286 C321 0.929 . S
N287 Tb256 2.660 1_545 S
N287 C288 1.305 . S
N287 C292 1.360 . S
C288 H280 0.930 1_455 S
C288 N287 1.305 . S
C288 C291 1.407 1_556 S
C289 H283 0.930 . S
C289 C290 1.410 . S
C289 C291 1.345 . S
C290 C289 1.410 . S
C290 C292 1.417 1_554 S
C290 C322 1.432 . S
C291 H277 0.930 1_455 S
C291 C288 1.407 1_554 S
C291 C289 1.345 . S
C292 N287 1.360 . S
C292 C290 1.417 1_556 S
C292 C296 1.432 . S
H293 C298 0.930 . S
N294 Tb256 2.600 . S
N294 C296 1.359 1_565 S
N294 C297 1.327 . S
C295 H281 0.931 . S
C295 C297 1.392 . S
C295 C298 1.370 1_565 S
C296 C292 1.432 . S
C296 N294 1.359 1_545 S
C296 C299 1.414 . S
C297 H279 0.930 . S
C297 N294 1.327 . S
C297 C295 1.392 . S
C298 H293 0.930 . S
C298 C295 1.370 1_545 S
C298 C299 1.385 . S
C299 C296 1.414 . S
C299 C298 1.385 . S
C299 C321 1.444 1_556 S
O300 Tb256 2.546 . S
O300 C320 1.251 . S
O301 Tb256 2.610 1_655 S
O301 Tb267 2.362 1_565 S
O301 C312 1.283 . S
O302 Tb267 2.421 . S
O302 C319 1.262 . S
O303 Tb256 2.320 1_655 S
O303 C319 1.260 1_565 S
O304 Tb256 2.552 . S
O304 C312 1.243 1_455 S
O305 Tb256 2.413 . S
O305 C320 1.256 . S
O306 Tb267 2.546 . S
O306 C331 1.251 . S
O307 Tb256 2.362 1_545 S
O307 Tb267 2.610 1_455 S
O307 C323 1.283 . S
O308 Tb256 2.421 . S
O308 C330 1.262 1_565 S
O309 Tb267 2.320 1_455 S
O309 C330 1.260 . S
O310 Tb267 2.551 1_455 S
O310 C323 1.245 . S
O311 Tb267 2.413 . S
O311 C331 1.256 . S
C312 O301 1.283 . S
C312 O304 1.243 1_655 S
C313 C315 1.382 . S
C313 C317 1.393 . S
C313 C320 1.500 . S
C314 C315 1.400 1_554 S
C314 C316 1.384 . S
C315 C313 1.382 . S
C315 C314 1.400 1_556 S
C315 H332 0.930 . S
C316 C314 1.384 . S
C316 C318 1.392 1_554 S
C316 H333 0.931 . S
C317 C313 1.393 . S
C317 C318 1.401 . S
C317 H334 0.930 . S
C318 C316 1.392 1_556 S
C318 C317 1.401 . S
C318 H335 0.930 . S
C319 O302 1.262 . S
C319 O303 1.260 1_545 S
C320 Tb256 2.833 . S
C320 O300 1.251 . S
C320 O305 1.256 . S
C320 C313 1.500 . S
C321 H286 0.929 . S
C321 C299 1.444 1_554 S
C321 C322 1.317 . S
C322 H284 0.930 . S
C322 C290 1.432 . S
C322 C321 1.317 . S
C323 O307 1.283 . S
C323 O310 1.245 . S
C324 C325 1.382 . S
C324 C328 1.393 . S
C324 C331 1.500 . S
C325 C324 1.382 . S
C325 C326 1.400 . S
C325 H336 0.930 1_655 S
C326 C325 1.400 . S
C326 C327 1.384 . S
C327 C326 1.384 . S
C327 C329 1.392 . S
C327 H337 0.931 . S
C328 C324 1.393 . S
C328 C329 1.401 . S
C328 H338 0.930 . S
C329 C327 1.392 . S
C329 C328 1.401 . S
C329 H339 0.930 . S
C330 O308 1.262 1_545 S
C330 O309 1.260 . S
C331 Tb267 2.833 . S
C331 O306 1.251 . S
C331 O311 1.256 . S
C331 C324 1.500 . S
H332 C315 0.930 . S
H333 C316 0.931 . S
H334 C317 0.930 . S
H335 C318 0.930 . S
H336 C325 0.930 1_455 S
H337 C327 0.931 . S
H338 C328 0.930 . S
H339 C329 0.930 . S
Tb340 N371 2.660 . S
Tb340 N378 2.600 . S
Tb340 O384 2.546 . S
Tb340 O385 2.610 1_545 S
Tb340 O387 2.320 1_545 S
Tb340 O388 2.552 . S
Tb340 O389 2.413 . S
Tb340 O391 2.362 . S
Tb340 O392 2.421 . S
Tb340 C404 2.833 . S
C341 C344 1.432 . S
C341 C345 1.414 . S
C341 N348 1.359 . S
C342 C344 1.417 . S
C342 C346 1.432 . S
C342 C354 1.410 . S
C343 C345 1.444 . S
C343 C346 1.317 . S
C343 H366 0.929 . S
C344 C341 1.432 . S
C344 C342 1.417 . S
C344 N352 1.360 . S
C345 C341 1.414 . S
C345 C343 1.444 . S
C345 C350 1.385 . S
C346 C342 1.432 . S
C346 C343 1.317 . S
C346 H358 0.930 . S
C347 C349 1.392 . S
C347 C350 1.370 . S
C347 H359 0.931 . S
N348 C341 1.359 . S
N348 C349 1.327 . S
N348 Tb351 2.600 . S
C349 C347 1.392 . S
C349 N348 1.327 . S
C349 H356 0.930 . S
C350 C345 1.385 . S
C350 C347 1.370 . S
C350 H369 0.930 . S
Tb351 N348 2.600 . S
Tb351 N352 2.660 . S
Tb351 O385 2.362 . S
Tb351 O386 2.421 . S
Tb351 O390 2.546 . S
Tb351 O391 2.610 1_565 S
Tb351 O393 2.320 1_565 S
Tb351 O394 2.545 1_565 S
Tb351 O395 2.413 . S
Tb351 C415 2.833 . S
N352 C344 1.360 . S
N352 Tb351 2.660 . S
N352 C353 1.307 1_565 S
C353 N352 1.307 1_545 S
C353 C355 1.407 1_545 S
C353 H360 0.928 . S
C354 C342 1.410 . S
C354 C355 1.345 . S
C354 H362 0.930 . S
C355 C353 1.407 1_565 S
C355 C354 1.345 . S
C355 H357 0.930 1_565 S
H356 C349 0.930 . S
H357 C355 0.930 1_545 S
H358 C346 0.930 . S
H359 C347 0.931 . S
H360 C353 0.928 . S
H361 C375 0.930 1_565 S
H362 C354 0.930 . S
H363 C381 0.930 . S
H364 C372 0.930 1_565 S
H365 C379 0.931 . S
H366 C343 0.929 . S
H367 C373 0.930 . S
H368 C406 0.930 . S
H369 C350 0.930 . S
H370 C405 0.929 . S
N371 Tb340 2.660 . S
N371 C372 1.305 . S
N371 C376 1.360 . S
C372 H364 0.930 1_545 S
C372 N371 1.305 . S
C372 C375 1.407 1_556 S
C373 H367 0.930 . S
C373 C374 1.410 . S
C373 C375 1.345 . S
C374 C373 1.410 . S
C374 C376 1.417 1_554 S
C374 C406 1.432 . S
C375 H361 0.930 1_545 S
C375 C372 1.407 1_554 S
C375 C373 1.345 . S
C376 N371 1.360 . S
C376 C374 1.417 1_556 S
C376 C380 1.432 . S
H377 C382 0.930 . S
N378 Tb340 2.600 . S
N378 C380 1.359 . S
N378 C381 1.327 . S
C379 H365 0.931 . S
C379 C381 1.392 . S
C379 C382 1.370 . S
C380 C376 1.432 . S
C380 N378 1.359 . S
C380 C383 1.414 . S
C381 H363 0.930 . S
C381 N378 1.327 . S
C381 C379 1.392 . S
C382 H377 0.930 . S
C382 C379 1.370 . S
C382 C383 1.385 . S
C383 C380 1.414 . S
C383 C382 1.385 . S
C383 C405 1.444 1_556 S
O384 Tb340 2.546 . S
O384 C404 1.251 . S
O385 Tb340 2.610 1_565 S
O385 Tb351 2.362 . S
O385 C396 1.283 . S
O386 Tb351 2.421 . S
O386 C403 1.262 . S
O387 Tb340 2.320 1_565 S
O387 C403 1.260 . S
O388 Tb340 2.552 . S
O388 C396 1.243 1_545 S
O389 Tb340 2.413 . S
O389 C404 1.256 . S
O390 Tb351 2.546 . S
O390 C415 1.251 . S
O391 Tb340 2.362 . S
O391 Tb351 2.610 1_545 S
O391 C407 1.283 . S
O392 Tb340 2.421 . S
O392 C414 1.262 . S
O393 Tb351 2.320 1_545 S
O393 C414 1.260 . S
O394 Tb351 2.545 1_545 S
O394 C407 1.256 . S
O395 Tb351 2.413 . S
O395 C415 1.256 . S
C396 O385 1.283 . S
C396 O388 1.243 1_565 S
C397 C399 1.382 . S
C397 C401 1.393 . S
C397 C404 1.500 . S
C398 C399 1.400 1_554 S
C398 C400 1.384 . S
C399 C397 1.382 . S
C399 C398 1.400 1_556 S
C399 H416 0.930 . S
C400 C398 1.384 . S
C400 C402 1.392 1_554 S
C400 H417 0.931 . S
C401 C397 1.393 . S
C401 C402 1.401 . S
C401 H418 0.930 . S
C402 C400 1.392 1_556 S
C402 C401 1.401 . S
C402 H419 0.930 . S
C403 O386 1.262 . S
C403 O387 1.260 . S
C404 Tb340 2.833 . S
C404 O384 1.251 . S
C404 O389 1.256 . S
C404 C397 1.500 . S
C405 H370 0.929 . S
C405 C383 1.444 1_554 S
C405 C406 1.317 . S
C406 H368 0.930 . S
C406 C374 1.432 . S
C406 C405 1.317 . S
C407 O391 1.283 . S
C407 O394 1.256 . S
C408 C409 1.382 . S
C408 C412 1.393 . S
C408 C415 1.500 . S
C409 C408 1.382 . S
C409 C410 1.400 . S
C409 H420 0.930 1_565 S
C410 C409 1.400 . S
C410 C411 1.384 . S
C411 C410 1.384 . S
C411 C413 1.392 . S
C411 H421 0.931 . S
C412 C408 1.393 . S
C412 C413 1.401 . S
C412 H422 0.930 . S
C413 C411 1.392 . S
C413 C412 1.401 . S
C413 H423 0.930 . S
C414 O392 1.262 . S
C414 O393 1.260 . S
C415 Tb351 2.833 . S
C415 O390 1.251 . S
C415 O395 1.256 . S
C415 C408 1.500 . S
H416 C399 0.930 . S
H417 C400 0.931 . S
H418 C401 0.930 . S
H419 C402 0.930 . S
H420 C409 0.930 1_545 S
H421 C411 0.931 . S
H422 C412 0.930 . S
H423 C413 0.930 . S
Tb424 N455 2.660 . S
Tb424 N462 2.600 . S
Tb424 O468 2.546 . S
Tb424 O469 2.610 . S
Tb424 O471 2.320 . S
Tb424 O472 2.552 . S
Tb424 O473 2.413 . S
Tb424 O475 2.362 . S
Tb424 O476 2.421 . S
Tb424 C488 2.833 . S
C425 C428 1.432 . S
C425 C429 1.414 . S
C425 N432 1.359 . S
C426 C428 1.417 . S
C426 C430 1.432 . S
C426 C438 1.410 . S
C427 C429 1.444 . S
C427 C430 1.317 . S
C427 H450 0.929 . S
C428 C425 1.432 . S
C428 C426 1.417 . S
C428 N436 1.360 . S
C429 C425 1.414 . S
C429 C427 1.444 . S
C429 C434 1.385 . S
C430 C426 1.432 . S
C430 C427 1.317 . S
C430 H442 0.930 . S
C431 C433 1.392 . S
C431 C434 1.370 . S
C431 H443 0.931 . S
N432 C425 1.359 . S
N432 C433 1.327 . S
N432 Tb435 2.600 . S
C433 C431 1.392 . S
C433 N432 1.327 . S
C433 H440 0.930 . S
C434 C429 1.385 . S
C434 C431 1.370 . S
C434 H453 0.930 . S
Tb435 N432 2.600 . S
Tb435 N436 2.660 . S
Tb435 O469 2.362 . S
Tb435 O470 2.421 . S
Tb435 O474 2.546 . S
Tb435 O475 2.610 . S
Tb435 O477 2.320 . S
Tb435 O478 2.552 . S
Tb435 O479 2.413 . S
Tb435 C499 2.833 . S
N436 C428 1.360 . S
N436 Tb435 2.660 . S
N436 C437 1.305 . S
C437 N436 1.305 . S
C437 C439 1.407 . S
C437 H444 0.930 . S
C438 C426 1.410 . S
C438 C439 1.345 . S
C438 H446 0.930 . S
C439 C437 1.407 . S
C439 C438 1.345 . S
C439 H441 0.930 . S
H440 C433 0.930 . S
H441 C439 0.930 . S
H442 C430 0.930 . S
H443 C431 0.931 . S
H444 C437 0.930 . S
H445 C459 0.930 . S
H446 C438 0.930 . S
H447 C465 0.930 . S
H448 C456 0.930 . S
H449 C463 0.931 . S
H450 C427 0.929 . S
H451 C457 0.930 . S
H452 C490 0.930 . S
H453 C434 0.930 . S
H454 C489 0.929 . S
N455 Tb424 2.660 . S
N455 C456 1.305 . S
N455 C460 1.360 . S
C456 H448 0.930 . S
C456 N455 1.305 . S
C456 C459 1.407 . S
C457 H451 0.930 . S
C457 C458 1.410 . S
C457 C459 1.345 . S
C458 C457 1.410 . S
C458 C460 1.417 . S
C458 C490 1.432 . S
C459 H445 0.930 . S
C459 C456 1.407 . S
C459 C457 1.345 . S
C460 N455 1.360 . S
C460 C458 1.417 . S
C460 C464 1.432 . S
H461 C466 0.930 . S
N462 Tb424 2.600 . S
N462 C464 1.359 . S
N462 C465 1.327 . S
C463 H449 0.931 . S
C463 C465 1.392 . S
C463 C466 1.370 . S
C464 C460 1.432 . S
C464 N462 1.359 . S
C464 C467 1.414 . S
C465 H447 0.930 . S
C465 N462 1.327 . S
C465 C463 1.392 . S
C466 H461 0.930 . S
C466 C463 1.370 . S
C466 C467 1.385 . S
C467 C464 1.414 . S
C467 C466 1.385 . S
C467 C489 1.444 . S
O468 Tb424 2.546 . S
O468 C488 1.251 . S
O469 Tb424 2.610 . S
O469 Tb435 2.362 . S
O469 C480 1.283 . S
O470 Tb435 2.421 . S
O470 C487 1.262 . S
O471 Tb424 2.320 . S
O471 C487 1.260 . S
O472 Tb424 2.552 . S
O472 C480 1.243 . S
O473 Tb424 2.413 . S
O473 C488 1.256 . S
O474 Tb435 2.546 . S
O474 C499 1.251 . S
O475 Tb424 2.362 . S
O475 Tb435 2.610 . S
O475 C491 1.283 . S
O476 Tb424 2.421 . S
O476 C498 1.262 . S
O477 Tb435 2.320 . S
O477 C498 1.260 . S
O478 Tb435 2.552 . S
O478 C491 1.243 . S
O479 Tb435 2.413 . S
O479 C499 1.256 . S
C480 O469 1.283 . S
C480 O472 1.243 . S
C481 C483 1.382 . S
C481 C485 1.393 . S
C481 C488 1.500 . S
C482 C483 1.400 . S
C482 C484 1.384 . S
C483 C481 1.382 . S
C483 C482 1.400 . S
C483 H500 0.930 . S
C484 C482 1.384 . S
C484 C486 1.392 . S
C484 H501 0.931 . S
C485 C481 1.393 . S
C485 C486 1.401 . S
C485 H502 0.930 . S
C486 C484 1.392 . S
C486 C485 1.401 . S
C486 H503 0.930 . S
C487 O470 1.262 . S
C487 O471 1.260 . S
C488 Tb424 2.833 . S
C488 O468 1.251 . S
C488 O473 1.256 . S
C488 C481 1.500 . S
C489 H454 0.929 . S
C489 C467 1.444 . S
C489 C490 1.317 . S
C490 H452 0.930 . S
C490 C458 1.432 . S
C490 C489 1.317 . S
C491 O475 1.283 . S
C491 O478 1.243 . S
C492 C493 1.382 . S
C492 C496 1.393 1_556 S
C492 C499 1.500 . S
C493 C492 1.382 . S
C493 C494 1.400 1_556 S
C493 H504 0.930 . S
C494 C493 1.400 1_554 S
C494 C495 1.384 . S
C495 C494 1.384 . S
C495 C497 1.392 . S
C495 H505 0.931 . S
C496 C492 1.393 1_554 S
C496 C497 1.401 . S
C496 H506 0.930 . S
C497 C495 1.392 . S
C497 C496 1.401 . S
C497 H507 0.930 . S
C498 O476 1.262 . S
C498 O477 1.260 . S
C499 Tb435 2.833 . S
C499 O474 1.251 . S
C499 O479 1.256 . S
C499 C492 1.500 . S
H500 C483 0.930 . S
H501 C484 0.931 . S
H502 C485 0.930 . S
H503 C486 0.930 . S
H504 C493 0.930 . S
H505 C495 0.931 . S
H506 C496 0.930 . S
H507 C497 0.930 . S
Tb508 N539 2.660 . S
Tb508 N546 2.600 . S
Tb508 O552 2.546 . S
Tb508 O553 2.610 . S
Tb508 O555 2.320 . S
Tb508 O556 2.552 . S
Tb508 O557 2.413 . S
Tb508 O559 2.350 1_455 S
Tb508 O560 2.421 1_455 S
Tb508 C572 2.833 . S
C509 C512 1.432 . S
C509 C513 1.414 . S
C509 N516 1.359 . S
C510 C512 1.417 . S
C510 C514 1.432 . S
C510 C522 1.410 . S
C511 C513 1.444 . S
C511 C514 1.317 . S
C511 H534 0.929 . S
C512 C509 1.432 . S
C512 C510 1.417 . S
C512 N520 1.360 . S
C513 C509 1.414 . S
C513 C511 1.444 . S
C513 C518 1.385 1_655 S
C514 C510 1.432 . S
C514 C511 1.317 . S
C514 H526 0.930 . S
C515 C517 1.392 . S
C515 C518 1.370 . S
C515 H527 0.931 . S
N516 C509 1.359 . S
N516 C517 1.327 1_655 S
N516 Tb519 2.600 . S
C517 C515 1.392 . S
C517 N516 1.327 1_455 S
C517 H524 0.930 . S
C518 C513 1.385 1_455 S
C518 C515 1.370 . S
C518 H537 0.930 . S
Tb519 N516 2.600 . S
Tb519 N520 2.660 . S
Tb519 O553 2.362 1_655 S
Tb519 O554 2.421 1_655 S
Tb519 O558 2.546 . S
Tb519 O559 2.617 . S
Tb519 O561 2.320 . S
Tb519 O562 2.552 . S
Tb519 O563 2.413 . S
Tb519 C583 2.833 . S
N520 C512 1.360 . S
N520 Tb519 2.660 . S
N520 C521 1.305 . S
C521 N520 1.305 . S
C521 C523 1.407 . S
C521 H528 0.930 . S
C522 C510 1.410 . S
C522 C523 1.345 . S
C522 H530 0.930 . S
C523 C521 1.407 . S
C523 C522 1.345 . S
C523 H525 0.930 . S
H524 C517 0.930 . S
H525 C523 0.930 . S
H526 C514 0.930 . S
H527 C515 0.931 . S
H528 C521 0.930 . S
H529 C543 0.930 . S
H530 C522 0.930 . S
H531 C549 0.930 . S
H532 C540 0.930 . S
H533 C547 0.931 . S
H534 C511 0.929 . S
H535 C541 0.930 . S
H536 C574 0.930 . S
H537 C518 0.930 . S
H538 C573 0.929 . S
N539 Tb508 2.660 . S
N539 C540 1.305 . S
N539 C544 1.360 . S
C540 H532 0.930 . S
C540 N539 1.305 . S
C540 C543 1.407 . S
C541 H535 0.930 . S
C541 C542 1.410 . S
C541 C543 1.345 . S
C542 C541 1.410 . S
C542 C544 1.417 . S
C542 C574 1.432 . S
C543 H529 0.930 . S
C543 C540 1.407 . S
C543 C541 1.345 . S
C544 N539 1.360 . S
C544 C542 1.417 . S
C544 C548 1.432 . S
H545 C550 0.930 . S
N546 Tb508 2.600 . S
N546 C548 1.359 . S
N546 C549 1.327 1_455 S
C547 H533 0.931 . S
C547 C549 1.392 . S
C547 C550 1.370 1_655 S
C548 C544 1.432 . S
C548 N546 1.359 . S
C548 C551 1.414 . S
C549 H531 0.930 . S
C549 N546 1.327 1_655 S
C549 C547 1.392 . S
C550 H545 0.930 . S
C550 C547 1.370 1_455 S
C550 C551 1.385 . S
C551 C548 1.414 . S
C551 C550 1.385 . S
C551 C573 1.444 . S
O552 Tb508 2.546 . S
O552 C572 1.251 . S
O553 Tb508 2.610 . S
O553 Tb519 2.362 1_455 S
O553 C564 1.283 . S
O554 Tb519 2.421 1_455 S
O554 C571 1.262 . S
O555 Tb508 2.320 . S
O555 C571 1.260 . S
O556 Tb508 2.552 . S
O556 C564 1.243 . S
O557 Tb508 2.413 . S
O557 C572 1.256 . S
O558 Tb519 2.546 . S
O558 C583 1.251 . S
O559 Tb508 2.350 1_655 S
O559 Tb519 2.617 . S
O559 C575 1.292 . S
O560 Tb508 2.421 1_655 S
O560 C582 1.262 . S
O561 Tb519 2.320 . S
O561 C582 1.260 . S
O562 Tb519 2.552 . S
O562 C575 1.243 . S
O563 Tb519 2.413 . S
O563 C583 1.256 . S
C564 O553 1.283 . S
C564 O556 1.243 . S
C565 C567 1.382 . S
C565 C569 1.393 . S
C565 C572 1.500 . S
C566 C567 1.400 . S
C566 C568 1.384 . S
C567 C565 1.382 . S
C567 C566 1.400 . S
C567 H584 0.930 . S
C568 C566 1.384 . S
C568 C570 1.392 . S
C568 H585 0.931 . S
C569 C565 1.393 . S
C569 C570 1.401 . S
C569 H586 0.930 . S
C570 C568 1.392 . S
C570 C569 1.401 . S
C570 H587 0.930 . S
C571 O554 1.262 . S
C571 O555 1.260 . S
C572 Tb508 2.833 . S
C572 O552 1.251 . S
C572 O557 1.256 . S
C572 C565 1.500 . S
C573 H538 0.929 . S
C573 C551 1.444 . S
C573 C574 1.317 . S
C574 H536 0.930 . S
C574 C542 1.432 . S
C574 C573 1.317 . S
C575 O559 1.292 . S
C575 O562 1.243 . S
C576 C577 1.382 . S
C576 C580 1.393 1_556 S
C576 C583 1.500 . S
C577 C576 1.382 . S
C577 C578 1.400 1_556 S
C577 H588 0.930 . S
C578 C577 1.400 1_554 S
C578 C579 1.384 . S
C579 C578 1.384 . S
C579 C581 1.392 . S
C579 H589 0.931 . S
C580 C576 1.393 1_554 S
C580 C581 1.401 . S
C580 H590 0.930 . S
C581 C579 1.392 . S
C581 C580 1.401 . S
C581 H591 0.930 . S
C582 O560 1.262 . S
C582 O561 1.260 . S
C583 Tb519 2.833 . S
C583 O558 1.251 . S
C583 O563 1.256 . S
C583 C576 1.500 . S
H584 C567 0.930 . S
H585 C568 0.931 . S
H586 C569 0.930 . S
H587 C570 0.930 . S
H588 C577 0.930 . S
H589 C579 0.931 . S
H590 C580 0.930 . S
H591 C581 0.930 . S
C592 C593 1.363 . S
C592 C598 1.379 . S
C592 N600 1.356 . S
C593 C592 1.363 . S
C593 C599 1.363 . S
C594 C595 1.363 . S
C594 C599 1.379 . S
C594 N601 1.356 1_545 S
C595 C594 1.363 . S
C595 C598 1.363 . S
N596 C598 1.356 . S
N596 H608 0.984 . S
N596 H609 0.985 . S
N597 C599 1.364 . S
N597 H602 0.992 . S
N597 H603 0.969 1_545 S
C598 C592 1.379 . S
C598 C595 1.363 . S
C598 N596 1.356 . S
C599 C593 1.363 . S
C599 C594 1.379 . S
C599 N597 1.364 . S
N600 C592 1.356 . S
N600 H606 0.984 . S
N600 H607 0.984 . S
N601 C594 1.356 1_565 S
N601 H604 0.984 . S
N601 H605 0.985 . S
H602 N597 0.992 . S
H603 N597 0.969 1_565 S
H604 N601 0.984 . S
H605 N601 0.985 . S
H606 N600 0.984 . S
H607 N600 0.984 . S
H608 N596 0.984 . S
H609 N596 0.985 . S
C610 C611 1.363 . S
C610 C616 1.379 . S
C610 N618 1.356 . S
C611 C610 1.363 . S
C611 C617 1.363 . S
C612 C613 1.363 . S
C612 C617 1.379 . S
C612 N619 1.356 . S
C613 C612 1.363 . S
C613 C616 1.363 . S
N614 C616 1.356 . S
N614 H626 0.984 . S
N614 H627 0.985 . S
N615 C617 1.356 . S
N615 H620 0.984 . S
N615 H621 0.985 . S
C616 C610 1.379 . S
C616 C613 1.363 . S
C616 N614 1.356 . S
C617 C611 1.363 . S
C617 C612 1.379 . S
C617 N615 1.356 . S
N618 C610 1.356 . S
N618 H624 0.984 . S
N618 H625 0.984 . S
N619 C612 1.356 . S
N619 H622 0.984 . S
N619 H623 0.985 . S
H620 N615 0.984 . S
H621 N615 0.985 . S
H622 N619 0.984 . S
H623 N619 0.985 . S
H624 N618 0.984 . S
H625 N618 0.984 . S
H626 N614 0.984 . S
H627 N614 0.985 . S
C628 C629 1.363 . S
C628 C634 1.379 . S
C628 N636 1.356 . S
C629 C628 1.363 . S
C629 C635 1.363 . S
C630 C631 1.363 . S
C630 C635 1.379 . S
C630 N637 1.356 . S
C631 C630 1.363 . S
C631 C634 1.363 . S
N632 C634 1.356 . S
N632 H644 0.984 . S
N632 H645 0.985 . S
N633 C635 1.356 . S
N633 H638 0.984 . S
N633 H639 0.985 . S
C634 C628 1.379 . S
C634 C631 1.363 . S
C634 N632 1.356 . S
C635 C629 1.363 . S
C635 C630 1.379 . S
C635 N633 1.356 . S
N636 C628 1.356 . S
N636 H642 0.984 . S
N636 H643 0.984 . S
N637 C630 1.356 . S
N637 H640 0.984 . S
N637 H641 0.985 . S
H638 N633 0.984 . S
H639 N633 0.985 . S
H640 N637 0.984 . S
H641 N637 0.985 . S
H642 N636 0.984 . S
H643 N636 0.984 . S
H644 N632 0.984 . S
H645 N632 0.985 . S
C646 C647 1.363 . S
C646 C652 1.379 . S
C646 N654 1.356 . S
C647 C646 1.363 . S
C647 C653 1.363 . S
C648 C649 1.363 . S
C648 C653 1.379 . S
C648 N655 1.356 . S
C649 C648 1.363 . S
C649 C652 1.363 . S
N650 C652 1.356 . S
N650 H662 0.984 . S
N650 H663 0.985 . S
N651 C653 1.356 . S
N651 H656 0.984 . S
N651 H657 0.985 . S
C652 C646 1.379 . S
C652 C649 1.363 . S
C652 N650 1.356 . S
C653 C647 1.363 . S
C653 C648 1.379 . S
C653 N651 1.356 . S
N654 C646 1.356 . S
N654 H660 0.984 . S
N654 H661 0.984 . S
N655 C648 1.356 . S
N655 H658 0.984 1_455 S
N655 H659 0.985 1_455 S
H656 N651 0.984 . S
H657 N651 0.985 . S
H658 N655 0.984 1_655 S
H659 N655 0.985 1_655 S
H660 N654 0.984 . S
H661 N654 0.984 . S
H662 N650 0.984 . S
H663 N650 0.985 . S
C664 C665 1.363 . S
C664 C670 1.383 1_554 S
C664 N672 1.356 1_565 S
C665 C664 1.363 . S
C665 C671 1.363 . S
C666 C667 1.363 . S
C666 C671 1.379 1_556 S
C666 N673 1.356 . S
C667 C666 1.363 . S
C667 C670 1.373 . S
N668 C670 1.344 1_545 S
N668 H680 0.984 . S
N668 H681 0.985 . S
N669 C671 1.356 . S
N669 H674 0.984 . S
N669 H675 0.985 . S
C670 C664 1.383 1_556 S
C670 C667 1.373 . S
C670 N668 1.344 1_565 S
C671 C665 1.363 . S
C671 C666 1.379 1_554 S
C671 N669 1.356 . S
N672 C664 1.356 1_545 S
N672 H678 0.984 . S
N672 H679 0.984 1_545 S
N673 C666 1.356 . S
N673 H676 0.984 . S
N673 H677 0.985 . S
H674 N669 0.984 . S
H675 N669 0.985 . S
H676 N673 0.984 . S
H677 N673 0.985 . S
H678 N672 0.984 . S
H679 N672 0.984 1_565 S
H680 N668 0.984 . S
H681 N668 0.985 . S
C682 C683 1.363 . S
C682 C688 1.379 1_554 S
C682 N690 1.356 . S
C683 C682 1.363 . S
C683 C689 1.363 . S
C684 C685 1.363 . S
C684 C689 1.379 1_556 S
C684 N691 1.356 . S
C685 C684 1.363 . S
C685 C688 1.363 . S
N686 C688 1.356 . S
N686 H698 0.984 . S
N686 H699 0.985 . S
N687 C689 1.356 . S
N687 H692 0.984 . S
N687 H693 0.985 . S
C688 C682 1.379 1_556 S
C688 C685 1.363 . S
C688 N686 1.356 . S
C689 C683 1.363 . S
C689 C684 1.379 1_554 S
C689 N687 1.356 . S
N690 C682 1.356 . S
N690 H696 0.984 . S
N690 H697 0.984 . S
N691 C684 1.356 . S
N691 H694 0.984 . S
N691 H695 0.985 . S
H692 N687 0.984 . S
H693 N687 0.985 . S
H694 N691 0.984 . S
H695 N691 0.985 . S
H696 N690 0.984 . S
H697 N690 0.984 . S
H698 N686 0.984 . S
H699 N686 0.985 . S
C700 C701 1.363 . S
C700 C706 1.379 1_554 S
C700 N708 1.356 . S
C701 C700 1.363 . S
C701 C707 1.363 . S
C702 C703 1.363 . S
C702 C707 1.379 1_556 S
C702 N709 1.356 . S
C703 C702 1.363 . S
C703 C706 1.363 . S
N704 C706 1.356 . S
N704 H716 0.984 . S
N704 H717 0.985 . S
N705 C707 1.356 . S
N705 H710 0.984 . S
N705 H711 0.985 . S
C706 C700 1.379 1_556 S
C706 C703 1.363 . S
C706 N704 1.356 . S
C707 C701 1.363 . S
C707 C702 1.379 1_554 S
C707 N705 1.356 . S
N708 C700 1.356 . S
N708 H714 0.984 . S
N708 H715 0.984 . S
N709 C702 1.356 . S
N709 H712 0.984 . S
N709 H713 0.985 . S
H710 N705 0.984 . S
H711 N705 0.985 . S
H712 N709 0.984 . S
H713 N709 0.985 . S
H714 N708 0.984 . S
H715 N708 0.984 . S
H716 N704 0.984 . S
H717 N704 0.985 . S
C718 C719 1.363 . S
C718 C724 1.379 1_554 S
C718 N726 1.356 . S
C719 C718 1.363 . S
C719 C725 1.363 . S
C720 C721 1.363 . S
C720 C725 1.379 1_556 S
C720 N727 1.356 1_655 S
C721 C720 1.363 . S
C721 C724 1.363 . S
N722 C724 1.356 . S
N722 H734 0.984 . S
N722 H735 0.985 . S
N723 C725 1.356 . S
N723 H728 0.984 . S
N723 H729 0.985 . S
C724 C718 1.379 1_556 S
C724 C721 1.363 . S
C724 N722 1.356 . S
C725 C719 1.363 . S
C725 C720 1.379 1_554 S
C725 N723 1.356 . S
N726 C718 1.356 . S
N726 H732 0.984 . S
N726 H733 0.984 . S
N727 C720 1.356 1_455 S
N727 H730 0.984 . S
N727 H731 0.985 . S
H728 N723 0.984 . S
H729 N723 0.985 . S
H730 N727 0.984 . S
H731 N727 0.985 . S
H732 N726 0.984 . S
H733 N726 0.984 . S
H734 N722 0.984 . S
H735 N722 0.985 . S
C736 C737 1.363 . S
C736 C742 1.379 . S
C736 N744 1.356 . S
C737 C736 1.363 . S
C737 C743 1.363 . S
C738 C739 1.339 1_455 S
C738 C743 1.379 . S
C738 N745 1.356 . S
C739 C738 1.339 1_655 S
C739 C742 1.357 1_655 S
N740 C742 1.356 1_655 S
N740 H752 0.984 . S
N740 H753 0.985 . S
N741 C743 1.356 . S
N741 H746 0.984 . S
N741 H747 0.985 . S
C742 C736 1.379 . S
C742 C739 1.357 1_455 S
C742 N740 1.356 1_455 S
C743 C737 1.363 . S
C743 C738 1.379 . S
C743 N741 1.356 . S
N744 C736 1.356 . S
N744 H750 0.984 . S
N744 H751 0.984 . S
N745 C738 1.356 . S
N745 H748 0.984 1_455 S
N745 H749 0.985 . S
H746 N741 0.984 . S
H747 N741 0.985 . S
H748 N745 0.984 1_655 S
H749 N745 0.985 . S
H750 N744 0.984 . S
H751 N744 0.984 . S
H752 N740 0.984 . S
H753 N740 0.985 . S
C754 C755 1.363 . S
C754 C760 1.379 . S
C754 N762 1.356 . S
C755 C754 1.363 . S
C755 C761 1.363 . S
C756 C757 1.363 . S
C756 C761 1.379 1_565 S
C756 N763 1.356 . S
C757 C756 1.363 . S
C757 C760 1.363 1_565 S
N758 C760 1.356 . S
N758 H770 0.984 . S
N758 H771 0.985 1_545 S
N759 C761 1.356 . S
N759 H764 0.984 . S
N759 H765 0.985 . S
C760 C754 1.379 . S
C760 C757 1.363 1_545 S
C760 N758 1.356 . S
C761 C755 1.363 . S
C761 C756 1.379 1_545 S
C761 N759 1.356 . S
N762 C754 1.356 . S
N762 H768 0.984 . S
N762 H769 0.984 . S
N763 C756 1.356 . S
N763 H766 0.984 . S
N763 H767 0.985 . S
H764 N759 0.984 . S
H765 N759 0.985 . S
H766 N763 0.984 . S
H767 N763 0.985 . S
H768 N762 0.984 . S
H769 N762 0.984 . S
H770 N758 0.984 . S
H771 N758 0.985 1_565 S
C772 C773 1.363 . S
C772 C778 1.379 . S
C772 N780 1.356 . S
C773 C772 1.363 . S
C773 C779 1.363 . S
C774 C775 1.363 . S
C774 C779 1.379 . S
C774 N781 1.356 . S
C775 C774 1.363 . S
C775 C778 1.363 . S
N776 C778 1.356 . S
N776 H788 0.984 . S
N776 H789 0.985 . S
N777 C779 1.356 . S
N777 H782 0.984 . S
N777 H783 0.985 . S
C778 C772 1.379 . S
C778 C775 1.363 . S
C778 N776 1.356 . S
C779 C773 1.363 . S
C779 C774 1.379 . S
C779 N777 1.356 . S
N780 C772 1.356 . S
N780 H786 0.984 . S
N780 H787 0.984 . S
N781 C774 1.356 . S
N781 H784 0.984 . S
N781 H785 0.985 . S
H782 N777 0.984 . S
H783 N777 0.985 . S
H784 N781 0.984 . S
H785 N781 0.985 . S
H786 N780 0.984 . S
H787 N780 0.984 . S
H788 N776 0.984 . S
H789 N776 0.985 . S
C790 C791 1.363 . S
C790 C796 1.379 . S
C790 N798 1.356 . S
C791 C790 1.363 . S
C791 C797 1.363 . S
C792 C793 1.363 . S
C792 C797 1.379 . S
C792 N799 1.356 . S
C793 C792 1.363 . S
C793 C796 1.363 . S
N794 C796 1.356 . S
N794 H806 0.984 . S
N794 H807 0.985 . S
N795 C797 1.356 . S
N795 H800 0.984 . S
N795 H801 0.985 . S
C796 C790 1.379 . S
C796 C793 1.363 . S
C796 N794 1.356 . S
C797 C791 1.363 . S
C797 C792 1.379 . S
C797 N795 1.356 . S
N798 C790 1.356 . S
N798 H804 0.984 . S
N798 H805 0.984 . S
N799 C792 1.356 . S
N799 H802 0.984 . S
N799 H803 0.985 . S
H800 N795 0.984 . S
H801 N795 0.985 . S
H802 N799 0.984 . S
H803 N799 0.985 . S
H804 N798 0.984 . S
H805 N798 0.984 . S
H806 N794 0.984 . S
H807 N794 0.985 . S
C808 C809 1.363 . S
C808 C814 1.379 . S
C808 N816 1.356 . S
C809 C808 1.363 . S
C809 C815 1.363 . S
C810 C811 1.363 . S
C810 C815 1.379 1_455 S
C810 N817 1.356 1_554 S
C811 C810 1.363 . S
C811 C814 1.363 1_455 S
N812 C814 1.356 . S
N812 H824 0.984 . S
N812 H825 0.985 1_655 S
N813 C815 1.356 . S
N813 H818 0.984 . S
N813 H819 0.985 . S
C814 C808 1.379 . S
C814 C811 1.363 1_655 S
C814 N812 1.356 . S
C815 C809 1.363 . S
C815 C810 1.379 1_655 S
C815 N813 1.356 . S
N816 C808 1.356 . S
N816 H822 0.984 . S
N816 H823 0.984 . S
N817 C810 1.356 1_556 S
N817 H820 0.984 . S
N817 H821 0.985 . S
H818 N813 0.984 . S
H819 N813 0.985 . S
H820 N817 0.984 . S
H821 N817 0.985 . S
H822 N816 0.984 . S
H823 N816 0.984 . S
H824 N812 0.984 . S
H825 N812 0.985 1_455 S
C826 C827 1.363 . S
C826 C832 1.379 1_565 S
C826 N834 1.356 . S
C827 C826 1.363 . S
C827 C833 1.363 . S
C828 C829 1.363 1_565 S
C828 C833 1.379 . S
C828 N835 1.356 1_565 S
C829 C828 1.363 1_545 S
C829 C832 1.363 . S
N830 C832 1.356 1_556 S
N830 H842 0.984 . S
N830 H843 0.985 . S
N831 C833 1.356 . S
N831 H836 0.984 . S
N831 H837 0.985 . S
C832 C826 1.379 1_545 S
C832 C829 1.363 . S
C832 N830 1.356 1_554 S
C833 C827 1.363 . S
C833 C828 1.379 . S
C833 N831 1.356 . S
N834 C826 1.356 . S
N834 H840 0.984 1_554 S
N834 H841 0.984 . S
N835 C828 1.356 1_545 S
N835 H838 0.984 . S
N835 H839 0.985 1_545 S
H836 N831 0.984 . S
H837 N831 0.985 . S
H838 N835 0.984 . S
H839 N835 0.985 1_565 S
H840 N834 0.984 1_556 S
H841 N834 0.984 . S
H842 N830 0.984 . S
H843 N830 0.985 . S
C844 C845 1.363 1_556 S
C844 C850 1.379 . S
C844 N852 1.356 . S
C845 C844 1.363 1_554 S
C845 C851 1.363 . S
C846 C847 1.363 . S
C846 C851 1.379 . S
C846 N853 1.356 . S
C847 C846 1.363 . S
C847 C850 1.363 1_554 S
N848 C850 1.356 . S
N848 H860 0.984 . S
N848 H861 0.985 . S
N849 C851 1.356 . S
N849 H854 0.984 . S
N849 H855 0.985 . S
C850 C844 1.379 . S
C850 C847 1.363 1_556 S
C850 N848 1.356 . S
C851 C845 1.363 . S
C851 C846 1.379 . S
C851 N849 1.356 . S
N852 C844 1.356 . S
N852 H858 0.984 . S
N852 H859 0.984 . S
N853 C846 1.356 . S
N853 H856 0.984 . S
N853 H857 0.985 . S
H854 N849 0.984 . S
H855 N849 0.985 . S
H856 N853 0.984 . S
H857 N853 0.985 . S
H858 N852 0.984 . S
H859 N852 0.984 . S
H860 N848 0.984 . S
H861 N848 0.985 . S
C862 C863 1.363 . S
C862 C868 1.379 . S
C862 N870 1.356 . S
C863 C862 1.363 . S
C863 C869 1.363 . S
C864 C865 1.363 1_556 S
C864 C869 1.379 1_556 S
C864 N871 1.356 . S
C865 C864 1.363 1_554 S
C865 C868 1.363 . S
N866 C868 1.356 . S
N866 H878 0.984 . S
N866 H879 0.985 . S
N867 C869 1.356 1_556 S
N867 H872 0.984 . S
N867 H873 0.985 . S
C868 C862 1.379 . S
C868 C865 1.363 . S
C868 N866 1.356 . S
C869 C863 1.363 . S
C869 C864 1.379 1_554 S
C869 N867 1.356 1_554 S
N870 C862 1.356 . S
N870 H876 0.984 . S
N870 H877 0.984 . S
N871 C864 1.356 . S
N871 H874 0.984 . S
N871 H875 0.985 . S
H872 N867 0.984 . S
H873 N867 0.985 . S
H874 N871 0.984 . S
H875 N871 0.985 . S
H876 N870 0.984 . S
H877 N870 0.984 . S
H878 N866 0.984 . S
H879 N866 0.985 . S
C880 C881 1.363 . S
C880 C886 1.379 . S
C880 N888 1.356 . S
C881 C880 1.363 . S
C881 C887 1.363 . S
C882 C883 1.363 . S
C882 C887 1.379 . S
C882 N889 1.356 . S
C883 C882 1.363 . S
C883 C886 1.363 . S
N884 C886 1.356 . S
N884 H896 0.984 1_455 S
N884 H897 0.985 . S
N885 C887 1.356 . S
N885 H890 0.984 . S
N885 H891 0.985 . S
C886 C880 1.379 . S
C886 C883 1.363 . S
C886 N884 1.356 . S
C887 C881 1.363 . S
C887 C882 1.379 . S
C887 N885 1.356 . S
N888 C880 1.356 . S
N888 H894 0.984 . S
N888 H895 0.984 . S
N889 C882 1.356 . S
N889 H892 0.984 . S
N889 H893 0.985 . S
H890 N885 0.984 . S
H891 N885 0.985 . S
H892 N889 0.984 . S
H893 N889 0.985 . S
H894 N888 0.984 . S
H895 N888 0.984 . S
H896 N884 0.984 1_655 S
H897 N884 0.985 . S
C898 C899 1.363 . S
C898 C904 1.379 . S
C898 N906 1.356 . S
C899 C898 1.363 . S
C899 C905 1.363 . S
C900 C901 1.363 . S
C900 C905 1.379 . S
C900 N907 1.356 1_545 S
C901 C900 1.363 . S
C901 C904 1.363 . S
N902 C904 1.356 . S
N902 H914 0.984 . S
N902 H915 0.985 . S
N903 C905 1.356 . S
N903 H908 0.984 . S
N903 H909 0.985 1_545 S
C904 C898 1.379 . S
C904 C901 1.363 . S
C904 N902 1.356 . S
C905 C899 1.363 . S
C905 C900 1.379 . S
C905 N903 1.356 . S
N906 C898 1.356 . S
N906 H912 0.984 . S
N906 H913 0.984 . S
N907 C900 1.356 1_565 S
N907 H910 0.984 . S
N907 H911 0.985 . S
H908 N903 0.984 . S
H909 N903 0.985 1_565 S
H910 N907 0.984 . S
H911 N907 0.985 . S
H912 N906 0.984 . S
H913 N906 0.984 . S
H914 N902 0.984 . S
H915 N902 0.985 . S
C916 C917 1.363 . S
C916 C922 1.379 . S
C916 N924 1.356 . S
C917 C916 1.363 . S
C917 C923 1.363 . S
C918 C919 1.363 . S
C918 C923 1.379 . S
C918 N925 1.356 . S
C919 C918 1.363 . S
C919 C922 1.363 . S
N920 C922 1.356 . S
N920 H932 0.984 . S
N920 H933 0.985 . S
N921 C923 1.356 . S
N921 H926 0.984 . S
N921 H927 0.985 . S
C922 C916 1.379 . S
C922 C919 1.363 . S
C922 N920 1.356 . S
C923 C917 1.363 . S
C923 C918 1.379 . S
C923 N921 1.356 . S
N924 C916 1.356 . S
N924 H930 0.984 . S
N924 H931 0.984 . S
N925 C918 1.356 . S
N925 H928 0.984 . S
N925 H929 0.985 . S
H926 N921 0.984 . S
H927 N921 0.985 . S
H928 N925 0.984 . S
H929 N925 0.985 . S
H930 N924 0.984 . S
H931 N924 0.984 . S
H932 N920 0.984 . S
H933 N920 0.985 . S
C934 C935 1.363 . S
C934 C940 1.379 . S
C934 N942 1.356 . S
C935 C934 1.363 . S
C935 C941 1.363 . S
C936 C937 1.363 . S
C936 C941 1.379 . S
C936 N943 1.356 . S
C937 C936 1.363 . S
C937 C940 1.363 . S
N938 C940 1.356 . S
N938 H950 0.984 . S
N938 H951 0.985 . S
N939 C941 1.356 . S
N939 H944 0.984 . S
N939 H945 0.985 . S
C940 C934 1.379 . S
C940 C937 1.363 . S
C940 N938 1.356 . S
C941 C935 1.363 . S
C941 C936 1.379 . S
C941 N939 1.356 . S
N942 C934 1.356 . S
N942 H948 0.984 . S
N942 H949 0.984 . S
N943 C936 1.356 . S
N943 H946 0.984 . S
N943 H947 0.985 . S
H944 N939 0.984 . S
H945 N939 0.985 . S
H946 N943 0.984 . S
H947 N943 0.985 . S
H948 N942 0.984 . S
H949 N942 0.984 . S
H950 N938 0.984 . S
H951 N938 0.985 . S
C952 C953 1.363 . S
C952 C958 1.379 . S
C952 N960 1.356 . S
C953 C952 1.363 . S
C953 C959 1.363 . S
C954 C955 1.363 . S
C954 C959 1.379 . S
C954 N961 1.356 . S
C955 C954 1.363 . S
C955 C958 1.363 . S
N956 C958 1.356 . S
N956 H968 0.984 1_655 S
N956 H969 0.985 . S
N957 C959 1.356 . S
N957 H962 0.984 . S
N957 H963 0.985 . S
C958 C952 1.379 . S
C958 C955 1.363 . S
C958 N956 1.356 . S
C959 C953 1.363 . S
C959 C954 1.379 . S
C959 N957 1.356 . S
N960 C952 1.356 . S
N960 H966 0.984 . S
N960 H967 0.984 . S
N961 C954 1.356 . S
N961 H964 0.984 . S
N961 H965 0.985 . S
H962 N957 0.984 . S
H963 N957 0.985 . S
H964 N961 0.984 . S
H965 N961 0.985 . S
H966 N960 0.984 . S
H967 N960 0.984 . S
H968 N956 0.984 1_455 S
H969 N956 0.985 . S
C970 C971 1.363 . S
C970 C976 1.379 . S
C970 N978 1.356 . S
C971 C970 1.363 . S
C971 C977 1.363 . S
C972 C973 1.363 . S
C972 C977 1.379 . S
C972 N979 1.356 . S
C973 C972 1.363 . S
C973 C976 1.363 . S
N974 C976 1.356 . S
N974 H986 0.984 . S
N974 H987 0.985 . S
N975 C977 1.356 . S
N975 H980 0.984 . S
N975 H981 0.985 . S
C976 C970 1.379 . S
C976 C973 1.363 . S
C976 N974 1.356 . S
C977 C971 1.363 . S
C977 C972 1.379 . S
C977 N975 1.356 . S
N978 C970 1.356 . S
N978 H984 0.984 . S
N978 H985 0.984 . S
N979 C972 1.356 . S
N979 H982 0.984 . S
N979 H983 0.985 . S
H980 N975 0.984 . S
H981 N975 0.985 . S
H982 N979 0.984 . S
H983 N979 0.985 . S
H984 N978 0.984 . S
H985 N978 0.984 . S
H986 N974 0.984 . S
H987 N974 0.985 . S
C988 C989 1.363 . S
C988 C994 1.379 . S
C988 N996 1.356 . S
C989 C988 1.363 . S
C989 C995 1.363 . S
C990 C991 1.363 . S
C990 C995 1.379 . S
C990 N997 1.356 . S
C991 C990 1.363 . S
C991 C994 1.363 . S
N992 C994 1.356 . S
N992 H1004 0.984 . S
N992 H1005 0.985 . S
N993 C995 1.356 . S
N993 H998 0.984 . S
N993 H999 0.985 . S
C994 C988 1.379 . S
C994 C991 1.363 . S
C994 N992 1.356 . S
C995 C989 1.363 . S
C995 C990 1.379 . S
C995 N993 1.356 . S
N996 C988 1.356 . S
N996 H1002 0.984 . S
N996 H1003 0.984 . S
N997 C990 1.356 . S
N997 H1000 0.984 . S
N997 H1001 0.985 . S
H998 N993 0.984 . S
H999 N993 0.985 . S
H1000 N997 0.984 . S
H1001 N997 0.985 . S
H1002 N996 0.984 . S
H1003 N996 0.984 . S
H1004 N992 0.984 . S
H1005 N992 0.985 . S
C1006 C1007 1.363 . S
C1006 C1012 1.379 . S
C1006 N1014 1.356 . S
C1007 C1006 1.363 . S
C1007 C1013 1.363 . S
C1008 C1009 1.363 . S
C1008 C1013 1.379 . S
C1008 N1015 1.356 . S
C1009 C1008 1.363 . S
C1009 C1012 1.363 . S
N1010 C1012 1.356 . S
N1010 H1022 0.984 . S
N1010 H1023 0.985 . S
N1011 C1013 1.356 . S
N1011 H1016 0.984 . S
N1011 H1017 0.985 . S
C1012 C1006 1.379 . S
C1012 C1009 1.363 . S
C1012 N1010 1.356 . S
C1013 C1007 1.363 . S
C1013 C1008 1.379 . S
C1013 N1011 1.356 . S
N1014 C1006 1.356 . S
N1014 H1020 0.984 . S
N1014 H1021 0.984 . S
N1015 C1008 1.356 . S
N1015 H1018 0.984 . S
N1015 H1019 0.985 . S
H1016 N1011 0.984 . S
H1017 N1011 0.985 . S
H1018 N1015 0.984 . S
H1019 N1015 0.985 . S
H1020 N1014 0.984 . S
H1021 N1014 0.984 . S
H1022 N1010 0.984 . S
H1023 N1010 0.985 . S
C593 C215 2.412 . S
C595 C330 2.476 . S
C613 C414 2.484 . S
C611 C247 2.421 . S
C631 C480 2.316 . S
C629 C151 2.498 . S
C649 C564 2.313 . S
C647 C183 2.491 . S
C667 C319 2.477 1_565 S
C665 C87 2.311 . S
C683 C119 2.307 . S
C685 C403 2.484 . S
C701 C23 2.375 . S
C703 C491 2.316 . S
C719 C55 2.378 . S
C721 C575 2.313 . S
C739 C326 1.122 . S
C737 C189 1.051 . S
C757 C410 1.032 . S
C755 C221 0.998 . S
C775 C482 1.003 . S
C773 C253 0.976 . S
C791 C157 1.023 . S
C793 C566 1.056 . S
C809 C61 0.872 . S
C811 C314 1.093 . S
C829 C398 1.032 . S
C827 C93 0.849 . S
C847 C494 1.003 . S
C845 C125 0.832 . S
C863 C29 0.852 . S
C865 C578 1.056 . S
C881 C177 2.720 . S
C883 C323 2.830 . S
C899 C209 2.692 . S
C901 C407 2.807 . S
C919 C487 2.950 . S
C917 C241 2.608 . S
C937 C571 2.970 . S
C935 C145 2.633 . S
C953 C49 2.645 . S
C955 C312 2.830 . S
C973 C396 2.807 . S
C971 C81 2.628 . S
C991 C498 2.950 . S
C989 C113 2.533 . S
C1007 C17 2.549 . S
C1009 C582 2.970 . S
