# Generated by pormake.
# Topology tsx, (6,3)-cn, num edge types: 1
# Building blocks:
#     Node 0, Type 0, BuildingBlock: VOLQOD_clean_sbu_1, # of connection points: 6
#     Node 1, Type 0, BuildingBlock: VOLQOD_clean_sbu_1, # of connection points: 6
#     Node 2, Type 1, BuildingBlock: INOVEN_clean_linker_0, # of connection points: 3
#     Node 3, Type 1, BuildingBlock: INOVEN_clean_linker_0, # of connection points: 3
#     Node 4, Type 1, BuildingBlock: INOVEN_clean_linker_0, # of connection points: 3
#     Node 5, Type 1, BuildingBlock: INOVEN_clean_linker_0, # of connection points: 3
#     Edge 6, Type (0, 1), BuildingBlock: MIFKUJ_clean_linker_0, # of connection points: 2
#     Edge 7, Type (0, 1), BuildingBlock: MIFKUJ_clean_linker_0, # of connection points: 2
#     Edge 8, Type (0, 1), BuildingBlock: MIFKUJ_clean_linker_0, # of connection points: 2
#     Edge 9, Type (0, 1), BuildingBlock: MIFKUJ_clean_linker_0, # of connection points: 2
#     Edge 10, Type (0, 1), BuildingBlock: MIFKUJ_clean_linker_0, # of connection points: 2
#     Edge 11, Type (0, 1), BuildingBlock: MIFKUJ_clean_linker_0, # of connection points: 2
#     Edge 12, Type (0, 1), BuildingBlock: MIFKUJ_clean_linker_0, # of connection points: 2
#     Edge 13, Type (0, 1), BuildingBlock: MIFKUJ_clean_linker_0, # of connection points: 2
#     Edge 14, Type (0, 1), BuildingBlock: MIFKUJ_clean_linker_0, # of connection points: 2
#     Edge 15, Type (0, 1), BuildingBlock: MIFKUJ_clean_linker_0, # of connection points: 2
#     Edge 16, Type (0, 1), BuildingBlock: MIFKUJ_clean_linker_0, # of connection points: 2
#     Edge 17, Type (0, 1), BuildingBlock: MIFKUJ_clean_linker_0, # of connection points: 2
# Relax obj value: 0.049
# Max RMSD: 0.108
# Mean RMSD: 0.097
data_MOF--net-tsx--node1-VOLQOD_clean_sbu_1--node2-INOVEN_clean_linker_0--edge1-MIFKUJ_clean_linker_0
_symmetry_space_group_name_H-M    P1
_symmetry_Int_Tables_number       1
_symmetry_cell_setting            triclinic
loop_
_symmetry_equiv_pos_as_xyz
'x, y, z'
_cell_length_a     27.131286
_cell_length_b     28.123542
_cell_length_c     48.555644
_cell_angle_alpha  90.339257
_cell_angle_beta   97.951386
_cell_angle_gamma 89.794267
loop_
_atom_site_label
_atom_site_type_symbol
_atom_site_fract_x
_atom_site_fract_y
_atom_site_fract_z
_atom_type_partial_charge
O0 O 0.05363 0.01798 0.07292 0.0
Zn1 Zn 0.06627 0.01706 0.03279 0.0
O2 O 0.00363 0.0168 0.00735 0.0
Zn3 Zn 0.00106 0.95991 0.98389 0.0
Zn4 Zn 0.94743 0.01648 0.02854 0.0
Zn5 Zn -0.0005 0.07358 0.98404 0.0
O6 O 0.9976 0.97707 0.94353 0.0
O7 O 0.99813 0.05598 0.94358 0.0
O8 O 0.10846 0.95994 0.02698 0.0
O9 O 0.06218 0.91965 0.99351 0.0
O10 O 0.94261 0.91881 0.98867 0.0
O11 O 0.90707 0.95684 0.02096 0.0
O12 O 0.90108 0.07166 0.01847 0.0
O13 O 0.10728 0.07407 0.02601 0.0
O14 O 0.93786 0.11146 0.98768 0.0
O15 O 0.05852 0.11621 0.99445 0.0
C16 C 0.01394 0.01934 0.08423 0.0
C17 C 0.99729 0.01639 0.93064 0.0
C18 C 0.90898 0.92174 0.00446 0.0
C19 C 0.10172 0.92419 0.01073 0.0
C20 C 0.90228 0.10652 0.00198 0.0
C21 C 0.09903 0.11063 0.01074 0.0
O22 O 0.97114 0.01955 0.06963 0.0
O23 O 0.5455 0.5141 0.56996 0.0
Zn24 Zn 0.56181 0.51359 0.53071 0.0
O25 O 0.50122 0.51584 0.50358 0.0
Zn26 Zn 0.49757 0.45863 0.4803 0.0
Zn27 Zn 0.44275 0.51924 0.52308 0.0
Zn28 Zn 0.5027 0.57192 0.48008 0.0
O29 O 0.49365 0.47505 0.43971 0.0
O30 O 0.49976 0.55375 0.43975 0.0
O31 O 0.6026 0.45483 0.52558 0.0
O32 O 0.55821 0.4174 0.49021 0.0
O33 O 0.43789 0.4191 0.48536 0.0
O34 O 0.39867 0.46205 0.51415 0.0
O35 O 0.40262 0.57888 0.51339 0.0
O36 O 0.60521 0.57033 0.52665 0.0
O37 O 0.44511 0.61575 0.48398 0.0
O38 O 0.56532 0.60953 0.49069 0.0
C39 C 0.50483 0.51727 0.58018 0.0
C40 C 0.49579 0.51413 0.42681 0.0
C41 C 0.40177 0.42503 0.49922 0.0
C42 C 0.59651 0.42002 0.50856 0.0
C43 C 0.40852 0.61409 0.4978 0.0
C44 C 0.60227 0.60499 0.50973 0.0
O45 O 0.46313 0.5199 0.56458 0.0
H46 H 0.03824 0.02147 0.46282 0.0
H47 H 0.09255 0.96856 0.38915 0.0
H48 H 0.96903 0.06582 0.38203 0.0
N49 N 0.96462 0.07589 0.43502 0.0
N50 N 0.96881 0.08738 0.46009 0.0
C51 C 0.03634 0.02037 0.44039 0.0
C52 C 0.06995 0.99174 0.42802 0.0
C53 C 6e-05 0.04729 0.42366 0.0
C54 C 0.99756 0.04545 0.3947 0.0
C55 C 0.03104 0.01747 0.38203 0.0
C56 C 0.06694 0.99065 0.39885 0.0
H57 H 0.99273 0.98793 0.55458 0.0
H58 H 0.94533 0.94399 0.63167 0.0
H59 H 0.0659 0.04246 0.63247 0.0
N60 N 0.06519 0.04375 0.57667 0.0
N61 N 0.10091 0.06697 0.5888 0.0
C62 C 0.99644 0.98891 0.57709 0.0
C63 C 0.96423 0.96223 0.59124 0.0
C64 C 0.03335 0.01749 0.59175 0.0
C65 C 0.03764 0.02018 0.62095 0.0
C66 C 0.00576 0.9939 0.63542 0.0
C67 C 0.96958 0.96469 0.62045 0.0
H68 H 0.50039 0.47562 0.95474 0.0
H69 H 0.54982 0.43251 0.87788 0.0
H70 H 0.46394 0.56078 0.88152 0.0
N71 N 0.45309 0.55321 0.9354 0.0
N72 N 0.45289 0.59688 0.93118 0.0
C73 C 0.50235 0.48158 0.93288 0.0
C74 C 0.52829 0.44957 0.91789 0.0
C75 C 0.47955 0.52178 0.9199 0.0
C76 C 0.48192 0.52973 0.89156 0.0
C77 C 0.50689 0.49743 0.87615 0.0
C78 C 0.53008 0.45747 0.88952 0.0
H79 H 0.50078 0.48027 0.05108 0.0
H80 H 0.43972 0.44551 0.12552 0.0
H81 H 0.56131 0.54412 0.12907 0.0
N82 N 0.56814 0.54045 0.07399 0.0
N83 N 0.6027 0.56472 0.08643 0.0
C84 C 0.50082 0.48417 0.07331 0.0
C85 C 0.46596 0.45965 0.08653 0.0
C86 C 0.53528 0.51449 0.08848 0.0
C87 C 0.53521 0.52002 0.11732 0.0
C88 C 0.50044 0.49563 0.13087 0.0
C89 C 0.46595 0.46549 0.11524 0.0
H90 H 0.19611 0.0968 0.00565 0.0
H91 H 0.26167 0.15686 0.00842 0.0
H92 H 0.15488 0.26556 0.02259 0.0
H93 H 0.08865 0.20586 0.01737 0.0
H94 H 0.21531 0.30253 0.99408 0.0
H95 H 0.23891 0.20612 0.07706 0.0
H96 H 0.25151 0.13147 0.10359 0.0
H97 H 0.3864 0.1047 0.06903 0.0
H98 H 0.37427 0.17896 0.04206 0.0
H99 H 0.36575 0.45809 0.08635 0.0
H100 H 0.30663 0.39977 0.06352 0.0
H101 H 0.42556 0.32952 0.02866 0.0
H102 H 0.48483 0.38849 0.05112 0.0
H103 H 0.36685 0.27129 0.06127 0.0
H104 H 0.34654 0.37985 0.9851 0.0
H105 H 0.33267 0.45867 0.96339 0.0
H106 H 0.18895 0.46719 0.99068 0.0
H107 H 0.20227 0.38874 0.01296 0.0
C108 C 0.18683 0.13366 0.00911 0.0
C109 C 0.13782 0.14697 0.01166 0.0
C110 C 0.22423 0.16791 0.01084 0.0
C111 C 0.21364 0.21565 0.01655 0.0
C112 C 0.16415 0.22902 0.01827 0.0
C113 C 0.12639 0.19498 0.01548 0.0
C114 C 0.2542 0.25126 0.0221 0.0
C115 C 0.24826 0.2957 0.0089 0.0
C116 C 0.29792 0.24222 0.04099 0.0
C117 C 0.30539 0.19776 0.05732 0.0
C118 C 0.2711 0.18415 0.07502 0.0
C119 C 0.27817 0.14194 0.09014 0.0
C120 C 0.31965 0.11329 0.08793 0.0
C121 C 0.35424 0.12688 0.07067 0.0
C122 C 0.34731 0.16902 0.05548 0.0
C123 C 0.37907 0.43053 0.07352 0.0
C124 C 0.42974 0.42733 0.0706 0.0
C125 C 0.34535 0.39754 0.06039 0.0
C126 C 0.3619 0.36063 0.0444 0.0
C127 C 0.41226 0.358 0.04085 0.0
C128 C 0.44591 0.39155 0.05362 0.0
C129 C 0.32716 0.32244 0.03378 0.0
C130 C 0.33422 0.27762 0.04609 0.0
C131 C 0.28409 0.33159 0.01466 0.0
C132 C 0.27556 0.37846 0.00086 0.0
C133 C 0.31211 0.39865 0.98664 0.0
C134 C 0.30432 0.44325 0.97421 0.0
C135 C 0.25999 0.46795 0.97569 0.0
C136 C 0.22328 0.44802 0.98954 0.0
C137 C 0.2309 0.40344 0.00205 0.0
H138 H 0.25406 0.50251 0.96608 0.0
H139 H 0.32505 0.08061 0.09964 0.0
H140 H 0.09277 0.83156 0.99398 0.0
H141 H 0.16016 0.77545 0.98875 0.0
H142 H 0.26845 0.88117 0.02031 0.0
H143 H 0.20128 0.9372 0.02633 0.0
H144 H 0.27284 0.8372 0.96348 0.0
H145 H 0.26729 0.7989 0.05965 0.0
H146 H 0.22569 0.77554 0.09952 0.0
H147 H 0.17834 0.64483 0.05812 0.0
H148 H 0.21901 0.66774 0.0178 0.0
H149 H 0.47306 0.68754 0.9429 0.0
H150 H 0.4211 0.74434 0.96454 0.0
H151 H 0.31262 0.63389 0.97005 0.0
H152 H 0.36646 0.57674 0.95043 0.0
H153 H 0.31377 0.68495 0.01261 0.0
H154 H 0.3043 0.72222 0.91556 0.0
H155 H 0.33611 0.74297 0.87198 0.0
H156 H 0.39947 0.87135 0.90969 0.0
H157 H 0.36851 0.85107 0.95361 0.0
C158 C 0.13092 0.84257 0.00024 0.0
C159 C 0.14185 0.88875 0.01046 0.0
C160 C 0.16925 0.81048 0.99735 0.0
C161 C 0.21902 0.82435 0.00422 0.0
C162 C 0.23013 0.86995 0.01508 0.0
C163 C 0.19178 0.90176 0.01853 0.0
C164 C 0.25913 0.79269 0.99745 0.0
C165 C 0.28271 0.80431 0.97451 0.0
C166 C 0.27018 0.74918 0.01131 0.0
C167 C 0.24584 0.73527 0.03559 0.0
C168 C 0.2476 0.76539 0.05892 0.0
C169 C 0.22428 0.75217 0.08164 0.0
C170 C 0.19929 0.70878 0.08133 0.0
C171 C 0.19767 0.67845 0.05833 0.0
C172 C 0.22091 0.69152 0.03555 0.0
C173 C 0.4384 0.67563 0.94919 0.0
C174 C 0.42366 0.62821 0.94516 0.0
C175 C 0.40853 0.70798 0.9613 0.0
C176 C 0.36222 0.69379 0.96834 0.0
C177 C 0.3481 0.64584 0.96486 0.0
C178 C 0.37876 0.6132 0.95359 0.0
C179 C 0.32753 0.72899 0.97824 0.0
C180 C 0.30467 0.71806 0.0017 0.0
C181 C 0.31587 0.77263 0.9643 0.0
C182 C 0.33462 0.78485 0.93795 0.0
C183 C 0.32533 0.7547 0.9146 0.0
C184 C 0.34315 0.7664 0.88984 0.0
C185 C 0.36994 0.80837 0.8881 0.0
C186 C 0.37882 0.8388 0.91109 0.0
C187 C 0.36113 0.82724 0.93592 0.0
H188 H 0.38369 0.81737 0.86891 0.0
H189 H 0.18126 0.69861 0.09894 0.0
H190 H 0.90823 0.83625 0.9771 0.0
H191 H 0.85264 0.76901 0.98071 0.0
H192 H 0.77337 0.8507 0.03603 0.0
H193 H 0.82835 0.91809 0.03246 0.0
H194 H 0.84305 0.72059 0.02716 0.0
H195 H 0.65281 0.81766 0.02796 0.0
H196 H 0.60707 0.88571 0.0049 0.0
H197 H 0.69005 0.87242 0.93609 0.0
H198 H 0.73578 0.80385 0.95851 0.0
H199 H 0.68195 0.61193 0.10943 0.0
H200 H 0.73438 0.6649 0.08597 0.0
H201 H 0.64563 0.63363 0.00721 0.0
H202 H 0.59334 0.58069 0.03062 0.0
H203 H 0.65864 0.72877 0.01591 0.0
H204 H 0.76021 0.59113 0.01824 0.0
H205 H 0.8056 0.52082 0.03865 0.0
H206 H 0.89926 0.6106 0.09533 0.0
H207 H 0.85395 0.68144 0.07555 0.0
C208 C 0.87855 0.84016 0.98975 0.0
C209 C 0.8729 0.88249 0.00462 0.0
C210 C 0.8469 0.80167 0.9918 0.0
C211 C 0.80876 0.80501 0.00848 0.0
C212 C 0.80214 0.84762 0.02271 0.0
C213 C 0.83384 0.88603 0.02078 0.0
C214 C 0.77829 0.763 0.01298 0.0
C215 C 0.80271 0.72215 0.02445 0.0
C216 C 0.72568 0.76474 0.00881 0.0
C217 C 0.69798 0.80575 0.99504 0.0
C218 C 0.66113 0.82907 0.00784 0.0
C219 C 0.63523 0.86779 0.99489 0.0
C220 C 0.64573 0.88345 0.96908 0.0
C221 C 0.68207 0.86036 0.95613 0.0
C222 C 0.70805 0.82161 0.96897 0.0
C223 C 0.67428 0.61607 0.08708 0.0
C224 C 0.63407 0.59239 0.07188 0.0
C225 C 0.70414 0.64604 0.0737 0.0
C226 C 0.69404 0.65279 0.04483 0.0
C227 C 0.65407 0.62868 0.02948 0.0
C228 C 0.62438 0.59843 0.04286 0.0
C229 C 0.72353 0.6874 0.03121 0.0
C230 C 0.69893 0.72687 0.01811 0.0
C231 C 0.77594 0.68411 0.03351 0.0
C232 C 0.80344 0.64162 0.0455 0.0
C233 C 0.79023 0.59588 0.0352 0.0
C234 C 0.816 0.55592 0.04663 0.0
C235 C 0.85524 0.56123 0.0683 0.0
C236 C 0.86885 0.60654 0.07854 0.0
C237 C 0.84318 0.64662 0.0672 0.0
H238 H 0.87515 0.53025 0.07712 0.0
H239 H 0.62565 0.91344 0.9591 0.0
H240 H 0.81121 0.09863 0.01991 0.0
H241 H 0.73992 0.15242 0.00988 0.0
H242 H 0.82822 0.24637 0.96673 0.0
H243 H 0.89908 0.19249 0.97603 0.0
H244 H 0.71963 0.2441 0.02055 0.0
H245 H 0.7607 0.28661 0.90911 0.0
H246 H 0.80025 0.24829 0.87187 0.0
H247 H 0.76891 0.1106 0.90291 0.0
H248 H 0.72856 0.14806 0.94008 0.0
H249 H 0.59628 0.45197 0.96457 0.0
H250 H 0.65079 0.38728 0.98364 0.0
H251 H 0.57603 0.29115 0.92197 0.0
H252 H 0.52278 0.35641 0.90225 0.0
H253 H 0.6689 0.28427 0.92128 0.0
H254 H 0.56836 0.28032 0.994 0.0
H255 H 0.52344 0.31233 0.03087 0.0
H256 H 0.6611 0.36163 0.07616 0.0
H257 H 0.70686 0.33019 0.03944 0.0
C258 C 0.81556 0.13096 0.00848 0.0
C259 C 0.8606 0.14096 0.9984 0.0
C260 C 0.77483 0.16169 0.00286 0.0
C261 C 0.77856 0.2029 0.98715 0.0
C262 C 0.82426 0.21422 0.9784 0.0
C263 C 0.86476 0.18338 0.98376 0.0
C264 C 0.73421 0.2329 0.9785 0.0
C265 C 0.7083 0.25286 0.99887 0.0
C266 C 0.71858 0.24307 0.95013 0.0
C267 C 0.74197 0.22019 0.92751 0.0
C268 C 0.76201 0.24816 0.90789 0.0
C269 C 0.78462 0.22659 0.88682 0.0
C270 C 0.78721 0.17705 0.88507 0.0
C271 C 0.76703 0.14897 0.90434 0.0
C272 C 0.74432 0.17035 0.92542 0.0
C273 C 0.59089 0.41674 0.95552 0.0
C274 C 0.55568 0.40902 0.9319 0.0
C275 C 0.62186 0.37972 0.96649 0.0
C276 C 0.61737 0.33417 0.95437 0.0
C277 C 0.58034 0.326 0.93162 0.0
C278 C 0.54996 0.36318 0.92037 0.0
C279 C 0.65468 0.29669 0.96336 0.0
C280 C 0.67956 0.27529 0.943 0.0
C281 C 0.6683 0.28434 0.99163 0.0
C282 C 0.641 0.30313 0.01386 0.0
C283 C 0.58903 0.29824 0.01174 0.0
C284 C 0.56342 0.31624 0.03263 0.0
C285 C 0.58938 0.33912 0.05581 0.0
C286 C 0.64104 0.3439 0.05819 0.0
C287 C 0.66685 0.32588 0.03737 0.0
H288 H 0.56952 0.35304 0.07197 0.0
H289 H 0.80479 0.16042 0.86876 0.0
H290 H 0.678 0.61579 0.5526 0.0
H291 H 0.74004 0.67882 0.55904 0.0
H292 H 0.67942 0.73907 0.47999 0.0
H293 H 0.6162 0.67675 0.47369 0.0
H294 H 0.81276 0.70609 0.53218 0.0
H295 H 0.69083 0.86024 0.48446 0.0
H296 H 0.60213 0.88264 0.47445 0.0
H297 H 0.5695 0.79756 0.54278 0.0
H298 H 0.6581 0.77513 0.55339 0.0
H299 H 0.9709 0.90647 0.54521 0.0
H300 H 0.90899 0.85063 0.5227 0.0
H301 H 0.80903 0.89028 0.58083 0.0
H302 H 0.86908 0.94832 0.60213 0.0
H303 H 0.7574 0.87441 0.53261 0.0
H304 H 0.89057 0.79124 0.59084 0.0
H305 H 0.97824 0.76844 0.60518 0.0
H306 H 0.98588 0.71016 0.52393 0.0
H307 H 0.89837 0.73311 0.50904 0.0
C308 C 0.67793 0.64227 0.53649 0.0
C309 C 0.64183 0.64147 0.51276 0.0
C310 C 0.71358 0.67821 0.54016 0.0
C311 C 0.71404 0.71396 0.52015 0.0
C312 C 0.67922 0.71231 0.49593 0.0
C313 C 0.64318 0.6766 0.49235 0.0
C314 C 0.74991 0.75371 0.52539 0.0
C315 C 0.80068 0.74292 0.53204 0.0
C316 C 0.73418 0.80178 0.5253 0.0
C317 C 0.68095 0.81558 0.51947 0.0
C318 C 0.66472 0.84644 0.49739 0.0
C319 C 0.61449 0.85912 0.49161 0.0
C320 C 0.58018 0.84136 0.50789 0.0
C321 C 0.59609 0.81111 0.53011 0.0
C322 C 0.6463 0.79837 0.536 0.0
C323 C 0.93527 0.90415 0.55278 0.0
C324 C 0.92534 0.9313 0.57584 0.0
C325 C 0.9001 0.87184 0.54005 0.0
C326 C 0.8548 0.86547 0.55047 0.0
C327 C 0.84383 0.8943 0.57251 0.0
C328 C 0.87857 0.92703 0.58496 0.0
C329 C 0.82011 0.82669 0.54002 0.0
C330 C 0.76958 0.83765 0.53225 0.0
C331 C 0.83586 0.77865 0.53972 0.0
C332 C 0.88817 0.76427 0.54877 0.0
C333 C 0.91105 0.77374 0.57602 0.0
C334 C 0.96069 0.7608 0.58424 0.0
C335 C 0.98765 0.738 0.56545 0.0
C336 C 0.96498 0.72792 0.53843 0.0
C337 C 0.91537 0.74084 0.5301 0.0
H338 H 0.02609 0.72804 0.57184 0.0
H339 H 0.54131 0.85113 0.50331 0.0
H340 H 0.59539 0.33998 0.47621 0.0
H341 H 0.66059 0.28019 0.47622 0.0
H342 H 0.75042 0.35428 0.54314 0.0
H343 H 0.68547 0.41491 0.54306 0.0
H344 H 0.80361 0.33159 0.50249 0.0
H345 H 0.69626 0.24882 0.55495 0.0
H346 H 0.61632 0.21783 0.56583 0.0
H347 H 0.60167 0.13121 0.49206 0.0
H348 H 0.68111 0.16227 0.48045 0.0
H349 H 0.9796 0.13627 0.50773 0.0
H350 H 0.91837 0.19102 0.52404 0.0
H351 H 0.81323 0.15599 0.45187 0.0
H352 H 0.87419 0.10263 0.43535 0.0
H353 H 0.77284 0.1579 0.50403 0.0
H354 H 0.87194 0.25038 0.44849 0.0
H355 H 0.94764 0.28666 0.43509 0.0
H356 H 0.97571 0.35707 0.51439 0.0
H357 H 0.90057 0.32044 0.52847 0.0
C358 C 0.6288 0.34352 0.49111 0.0
C359 C 0.63515 0.38239 0.50961 0.0
C360 C 0.66597 0.30905 0.4912 0.0
C361 C 0.71016 0.31241 0.50992 0.0
C362 C 0.71653 0.35089 0.5286 0.0
C363 C 0.67931 0.38547 0.52853 0.0
C364 C 0.75066 0.27715 0.50869 0.0
C365 C 0.79729 0.29361 0.50357 0.0
C366 C 0.74209 0.22758 0.50963 0.0
C367 C 0.69459 0.20815 0.51674 0.0
C368 C 0.67586 0.22338 0.54094 0.0
C369 C 0.63063 0.20578 0.54725 0.0
C370 C 0.60389 0.17264 0.52962 0.0
C371 C 0.62242 0.1569 0.50569 0.0
C372 C 0.6676 0.17445 0.49926 0.0
C373 C 0.94324 0.14027 0.49557 0.0
C374 C 0.93184 0.11593 0.47023 0.0
C375 C 0.90845 0.17139 0.50482 0.0
C376 C 0.86147 0.17763 0.48903 0.0
C377 C 0.84932 0.15168 0.4643 0.0
C378 C 0.88427 0.12141 0.45483 0.0
C379 C 0.82525 0.21251 0.49738 0.0
C380 C 0.77945 0.19591 0.50374 0.0
C381 C 0.83455 0.26197 0.49762 0.0
C382 C 0.88107 0.28204 0.48971 0.0
C383 C 0.89468 0.27295 0.46326 0.0
C384 C 0.93731 0.29384 0.45546 0.0
C385 C 0.96639 0.32427 0.47384 0.0
C386 C 0.95307 0.33362 0.50014 0.0
C387 C 0.91055 0.3127 0.50806 0.0
H388 H -0.00063 0.34041 0.46776 0.0
H389 H 0.56884 0.15911 0.53452 0.0
H390 H 0.31901 0.42506 0.52567 0.0
H391 H 0.26516 0.3578 0.53191 0.0
H392 H 0.34654 0.27042 0.48035 0.0
H393 H 0.40102 0.3374 0.47413 0.0
H394 H 0.20334 0.29691 0.49838 0.0
H395 H 0.36292 0.16187 0.51269 0.0
H396 H 0.45454 0.15984 0.52372 0.0
H397 H 0.45126 0.2881 0.57187 0.0
H398 H 0.35967 0.29052 0.56139 0.0
H399 H 0.09591 0.07779 0.53259 0.0
H400 H 0.14825 0.13082 0.50918 0.0
H401 H 0.22848 0.17182 0.58875 0.0
H402 H 0.17668 0.11816 0.61208 0.0
H403 H 0.2908 0.16211 0.54988 0.0
H404 H 0.13212 0.24049 0.55813 0.0
H405 H 0.04025 0.24082 0.5503 0.0
H406 H 0.04171 0.2287 0.46224 0.0
H407 H 0.13369 0.22799 0.46958 0.0
C408 C 0.32509 0.39179 0.51529 0.0
C409 C 0.36484 0.38648 0.49974 0.0
C410 C 0.29404 0.35344 0.51875 0.0
C411 C 0.30226 0.30904 0.50685 0.0
C412 C 0.33993 0.30432 0.48992 0.0
C413 C 0.37101 0.34269 0.48641 0.0
C414 C 0.27466 0.26697 0.51461 0.0
C415 C 0.22247 0.26715 0.50931 0.0
C416 C 0.29961 0.22824 0.52901 0.0
C417 C 0.35456 0.22664 0.53597 0.0
C418 C 0.38179 0.18952 0.5257 0.0
C419 C 0.43369 0.18832 0.53184 0.0
C420 C 0.45872 0.22392 0.54839 0.0
C421 C 0.43186 0.26065 0.55896 0.0
C422 C 0.37997 0.26197 0.55291 0.0
C423 C 0.12512 0.09772 0.545 0.0
C424 C 0.13239 0.09446 0.57421 0.0
C425 C 0.15494 0.12796 0.53163 0.0
C426 C 0.19195 0.15556 0.54726 0.0
C427 C 0.20028 0.15074 0.57629 0.0
C428 C 0.17067 0.12044 0.5896 0.0
C429 C 0.21953 0.19232 0.53395 0.0
C430 C 0.27172 0.19122 0.53828 0.0
C431 C 0.19462 0.23045 0.51899 0.0
C432 C 0.13961 0.23387 0.51441 0.0
C433 C 0.1128 0.238 0.5371 0.0
C434 C 0.06079 0.23816 0.53276 0.0
C435 C 0.03528 0.2345 0.50582 0.0
C436 C 0.06163 0.23136 0.4831 0.0
C437 C 0.11368 0.23122 0.48733 0.0
H438 H 0.99507 0.23419 0.50255 0.0
H439 H 0.49889 0.22298 0.55307 0.0
H440 H 0.41046 0.69577 0.46768 0.0
H441 H 0.3529 0.76278 0.46552 0.0
H442 H 0.26882 0.69197 0.52229 0.0
H443 H 0.32604 0.62419 0.52436 0.0
H444 H 0.20847 0.7292 0.47936 0.0
H445 H 0.34177 0.7858 0.54476 0.0
H446 H 0.42903 0.80275 0.56368 0.0
H447 H 0.44091 0.89725 0.49581 0.0
H448 H 0.35386 0.8804 0.47624 0.0
H449 H 0.05658 0.93535 0.47232 0.0
H450 H 0.11458 0.87584 0.49492 0.0
H451 H 0.22434 0.91834 0.4436 0.0
H452 H 0.16758 0.97896 0.42191 0.0
H453 H 0.26867 0.89508 0.49394 0.0
H454 H 0.14054 0.82518 0.42496 0.0
H455 H 0.05356 0.80715 0.40577 0.0
H456 H 0.03268 0.73702 0.48161 0.0
H457 H 0.11945 0.75509 0.50134 0.0
C458 C 0.3798 0.69431 0.47976 0.0
C459 C 0.37299 0.65452 0.49623 0.0
C460 C 0.34708 0.73288 0.47865 0.0
C461 C 0.30702 0.73275 0.49411 0.0
C462 C 0.29967 0.69293 0.51033 0.0
C463 C 0.33244 0.65423 0.51147 0.0
C464 C 0.27202 0.77366 0.49239 0.0
C465 C 0.22146 0.76541 0.48317 0.0
C466 C 0.28899 0.82094 0.49717 0.0
C467 C 0.34129 0.83161 0.50895 0.0
C468 C 0.36306 0.80998 0.53376 0.0
C469 C 0.41248 0.81961 0.54462 0.0
C470 C 0.4405 0.85103 0.53094 0.0
C471 C 0.41913 0.87294 0.50639 0.0
C472 C 0.36971 0.86343 0.49543 0.0
C473 C 0.09357 0.93285 0.46643 0.0
C474 C 0.10722 0.96124 0.44498 0.0
C475 C 0.12652 0.89855 0.47918 0.0
C476 C 0.1734 0.89187 0.47049 0.0
C477 C 0.18827 0.92254 0.45052 0.0
C478 C 0.15559 0.95691 0.43794 0.0
C479 C 0.20552 0.85063 0.48006 0.0
C480 C 0.25557 0.8588 0.49075 0.0
C481 C 0.1881 0.80323 0.47669 0.0
C482 C 0.13622 0.79191 0.46471 0.0
C483 C 0.11729 0.80612 0.43757 0.0
C484 C 0.06806 0.79587 0.4266 0.0
C485 C 0.03758 0.77106 0.44249 0.0
C486 C 0.05631 0.7563 0.46935 0.0
C487 C 0.10551 0.7665 0.48043 0.0
H488 H -0.00053 0.76319 0.43397 0.0
H489 H 0.47873 0.85846 0.53942 0.0
H490 H 0.09643 0.00409 0.12263 0.0
H491 H 0.1007 0.0013 0.17323 0.0
H492 H 0.94394 0.0339 0.16602 0.0
H493 H 0.93905 0.03551 0.1155 0.0
H494 H 0.08526 0.06392 0.21127 0.0
H495 H 0.89205 0.97941 0.21645 0.0
H496 H 0.83319 0.92498 0.18888 0.0
H497 H 0.95356 0.86095 0.15301 0.0
H498 H 0.0132 0.91455 0.18063 0.0
H499 H 0.01838 0.09244 0.34608 0.0
H500 H 0.01657 0.09076 0.29559 0.0
H501 H 0.03796 0.93869 0.29802 0.0
H502 H 0.03837 0.93993 0.34845 0.0
H503 H 0.96908 0.963 0.25558 0.0
H504 H 0.13422 0.01098 0.29119 0.0
H505 H 0.1987 0.05912 0.31918 0.0
H506 H 0.14523 0.18416 0.2741 0.0
H507 H 0.07992 0.13685 0.24609 0.0
C508 C 0.06286 0.01071 0.1318 0.0
C509 C 0.01732 0.01967 0.11497 0.0
C510 C 0.06538 0.00918 0.16075 0.0
C511 C 0.0225 0.01668 0.17343 0.0
C512 C 0.97731 0.02695 0.15671 0.0
C513 C 0.97464 0.02806 0.12779 0.0
C514 C 0.02494 0.01374 0.20413 0.0
C515 C 0.05984 0.04185 0.22093 0.0
C516 C 0.99247 0.98422 0.21684 0.0
C517 C 0.957 0.95132 0.20042 0.0
C518 C 0.90597 0.95358 0.20277 0.0
C519 C 0.87247 0.92289 0.18712 0.0
C520 C 0.88961 0.88963 0.16914 0.0
C521 C 0.94031 0.88685 0.16686 0.0
C522 C 0.97397 0.91741 0.18249 0.0
C523 C 0.02215 0.05858 0.33583 0.0
C524 C 0.02874 0.01634 0.35128 0.0
C525 C 0.02156 0.05773 0.30701 0.0
C526 C 0.02775 0.01467 0.29309 0.0
C527 C 0.03332 0.97233 0.30836 0.0
C528 C 0.03396 0.97315 0.33719 0.0
C529 C 0.0287 0.01387 0.26261 0.0
C530 C 0.99445 0.98508 0.24587 0.0
C531 C 0.06254 0.04188 0.25001 0.0
C532 C 0.10189 0.07044 0.26672 0.0
C533 C 0.13596 0.04881 0.28739 0.0
C534 C 0.1727 0.07594 0.30323 0.0
C535 C 0.17599 0.12469 0.29846 0.0
C536 C 0.1426 0.1464 0.27779 0.0
C537 C 0.10574 0.11944 0.2619 0.0
H538 H 0.20447 0.14564 0.31075 0.0
H539 H 0.8636 0.86595 0.15702 0.0
H540 H 0.9977 0.9389 0.89633 0.0
H541 H 0.00165 0.93799 0.84646 0.0
H542 H 0.00245 0.09134 0.84583 0.0
H543 H 0.99788 0.09272 0.89578 0.0
H544 H 0.94076 0.05586 0.80221 0.0
H545 H 0.10902 0.03008 0.84346 0.0
H546 H 0.17733 0.99172 0.8743 0.0
H547 H 0.14537 0.85861 0.83194 0.0
H548 H 0.07634 0.89602 0.80108 0.0
H549 H 0.01374 0.07446 0.66743 0.0
H550 H 0.01513 0.08051 0.71789 0.0
H551 H 0.00637 0.92777 0.72304 0.0
H552 H 0.00563 0.92146 0.67266 0.0
H553 H 0.07483 0.96641 0.76451 0.0
H554 H 0.90445 0.99234 0.7245 0.0
H555 H 0.83641 0.03125 0.69373 0.0
H556 H 0.87351 0.1653 0.73397 0.0
H557 H 0.9423 0.12728 0.76473 0.0
C558 C 0.99856 0.97251 0.88564 0.0
C559 C 0.99771 0.01591 0.90014 0.0
C560 C 0.00108 0.97189 0.85712 0.0
C561 C 0.00311 0.01459 0.84252 0.0
C562 C 0.00113 0.05798 0.85674 0.0
C563 C 0.99859 0.05867 0.88531 0.0
C564 C 0.00721 0.01379 0.81238 0.0
C565 C 0.97052 0.03695 0.794 0.0
C566 C 0.04559 0.98839 0.80166 0.0
C567 C 0.08719 0.96578 0.82012 0.0
C568 C 0.11629 0.99254 0.84086 0.0
C569 C 0.15519 0.97098 0.85832 0.0
C570 C 0.16561 0.92273 0.85513 0.0
C571 C 0.13721 0.89597 0.83441 0.0
C572 C 0.09823 0.91734 0.81691 0.0
C573 C 0.01273 0.04217 0.67939 0.0
C574 C 0.00936 0.99749 0.66613 0.0
C575 C 0.01317 0.04569 0.70814 0.0
C576 C 0.01034 0.0046 0.72412 0.0
C577 C 0.00844 0.9599 0.71105 0.0
C578 C 0.00769 0.95637 0.68229 0.0
C579 C 0.00821 0.00818 0.75439 0.0
C580 C 0.04527 0.98553 0.77277 0.0
C581 C 0.97029 0.03417 0.76512 0.0
C582 C 0.92888 0.05707 0.7467 0.0
C583 C 0.89839 0.0302 0.72662 0.0
C584 C 0.85963 0.05208 0.70921 0.0
C585 C 0.85074 0.10075 0.71183 0.0
C586 C 0.88051 0.12762 0.73193 0.0
C587 C 0.91937 0.10592 0.74936 0.0
H588 H 0.8207 0.11762 0.69835 0.0
H589 H 0.19575 0.9061 0.86867 0.0
H590 H 0.58592 0.50774 0.62019 0.0
H591 H 0.58738 0.50791 0.67061 0.0
H592 H 0.42825 0.52818 0.66004 0.0
H593 H 0.42635 0.52844 0.60958 0.0
H594 H 0.47612 0.58593 0.70083 0.0
H595 H 0.47637 0.42025 0.67545 0.0
H596 H 0.50696 0.34871 0.65349 0.0
H597 H 0.64877 0.36267 0.70441 0.0
H598 H 0.61923 0.43473 0.72642 0.0
H599 H 0.4298 0.52141 0.8363 0.0
H600 H 0.43125 0.52892 0.78625 0.0
H601 H 0.58858 0.49762 0.79806 0.0
H602 H 0.58713 0.4895 0.84807 0.0
H603 H 0.54313 0.44693 0.75653 0.0
H604 H 0.54306 0.61126 0.78294 0.0
H605 H 0.51324 0.68313 0.80491 0.0
H606 H 0.37271 0.67276 0.75238 0.0
H607 H 0.40145 0.60041 0.73034 0.0
C608 C 0.55119 0.5123 0.62854 0.0
C609 C 0.50597 0.51785 0.61079 0.0
C610 C 0.55211 0.51227 0.65737 0.0
C611 C 0.50786 0.51763 0.66903 0.0
C612 C 0.46281 0.52397 0.65144 0.0
C613 C 0.46181 0.5239 0.62259 0.0
C614 C 0.50846 0.51605 0.69958 0.0
C615 C 0.49023 0.55535 0.71302 0.0
C616 C 0.528 0.4766 0.71549 0.0
C617 C 0.54575 0.43315 0.70237 0.0
C618 C 0.51421 0.40828 0.68181 0.0
C619 C 0.53133 0.3676 0.66938 0.0
C620 C 0.57982 0.35123 0.67749 0.0
C621 C 0.61124 0.37544 0.69812 0.0
C622 C 0.59432 0.41617 0.71059 0.0
C623 C 0.4648 0.51679 0.82824 0.0
C624 C 0.50834 0.50484 0.84606 0.0
C625 C 0.46562 0.52111 0.79965 0.0
C626 C 0.51014 0.51426 0.78841 0.0
C627 C 0.55379 0.50295 0.80625 0.0
C628 C 0.55291 0.49827 0.83479 0.0
C629 C 0.51082 0.51689 0.75793 0.0
C630 C 0.52921 0.47768 0.74445 0.0
C631 C 0.49159 0.55652 0.74203 0.0
C632 C 0.47426 0.60015 0.75517 0.0
C633 C 0.50566 0.62409 0.77622 0.0
C634 C 0.48898 0.66495 0.78866 0.0
C635 C 0.44107 0.68243 0.7801 0.0
C636 C 0.40979 0.65915 0.75902 0.0
C637 C 0.42628 0.61824 0.74652 0.0
H638 H 0.42822 0.71407 0.78976 0.0
H639 H 0.59301 0.31973 0.66785 0.0
H640 H 0.51999 0.5862 0.39362 0.0
H641 H 0.52035 0.58427 0.34339 0.0
H642 H 0.46864 0.43915 0.34049 0.0
H643 H 0.46973 0.4403 0.39088 0.0
H644 H 0.53828 0.44696 0.3093 0.0
H645 H 0.3901 0.5348 0.3192 0.0
H646 H 0.34021 0.59827 0.33728 0.0
H647 H 0.42611 0.70412 0.30201 0.0
H648 H 0.47695 0.64126 0.28402 0.0
H649 H 0.41946 0.50477 0.15835 0.0
H650 H 0.41823 0.50872 0.2085 0.0
H651 H 0.57875 0.50527 0.22233 0.0
H652 H 0.58023 0.49937 0.17216 0.0
H653 H 0.45194 0.57041 0.24767 0.0
H654 H 0.61713 0.4428 0.28133 0.0
H655 H 0.65893 0.37412 0.26262 0.0
H656 H 0.52393 0.33841 0.2096 0.0
H657 H 0.48118 0.40643 0.22826 0.0
C658 C 0.50849 0.55391 0.3823 0.0
C659 C 0.49467 0.51344 0.39625 0.0
C660 C 0.50857 0.55292 0.35354 0.0
C661 C 0.49391 0.51176 0.33808 0.0
C662 C 0.48014 0.4713 0.35198 0.0
C663 C 0.48064 0.47206 0.38078 0.0
C664 C 0.4935 0.51062 0.30747 0.0
C665 C 0.51941 0.474 0.29586 0.0
C666 C 0.46828 0.54546 0.28982 0.0
C667 C 0.43761 0.58333 0.30048 0.0
C668 C 0.39856 0.57162 0.31546 0.0
C669 C 0.37008 0.60748 0.32567 0.0
C670 C 0.38006 0.6552 0.32085 0.0
C671 C 0.41846 0.66714 0.30575 0.0
C672 C 0.44709 0.63141 0.29552 0.0
C673 C 0.45452 0.50449 0.17206 0.0
C674 C 0.49994 0.50124 0.16128 0.0
C675 C 0.45375 0.50722 0.20071 0.0
C676 C 0.49835 0.50673 0.21917 0.0
C677 C 0.54385 0.50501 0.20847 0.0
C678 C 0.54465 0.5021 0.17979 0.0
C679 C 0.49704 0.50701 0.2496 0.0
C680 C 0.47092 0.5435 0.26117 0.0
C681 C 0.52093 0.47134 0.26713 0.0
C682 C 0.54616 0.43003 0.25598 0.0
C683 C 0.59635 0.42019 0.26574 0.0
C684 C 0.6202 0.38139 0.25514 0.0
C685 C 0.59415 0.35202 0.23487 0.0
C686 C 0.54413 0.36129 0.22522 0.0
C687 C 0.52009 0.4 0.23578 0.0
H688 H 0.6127 0.32203 0.22667 0.0
H689 H 0.35797 0.68291 0.32878 0.0
loop_
_geom_bond_atom_site_label_1
_geom_bond_atom_site_label_2
_geom_bond_distance
_geom_bond_site_symmetry_2
_ccdc_geom_bond_type
O0 Zn1 1.953 1_565 S
O0 C16 1.225 1_565 S
Zn1 O0 1.953 1_545 S
Zn1 O2 1.949 . S
Zn1 O8 1.919 1_545 S
Zn1 O13 1.924 . S
O2 Zn1 1.949 . S
O2 Zn3 1.923 1_444 S
O2 Zn4 1.950 1_455 S
O2 Zn5 1.945 1_554 S
Zn3 O2 1.923 1_666 S
Zn3 O6 1.933 . S
Zn3 O9 1.941 1_655 S
Zn3 O10 1.965 . S
Zn4 O2 1.950 1_655 S
Zn4 O11 1.938 1_545 S
Zn4 O12 1.906 . S
Zn4 O22 1.953 . S
Zn5 O2 1.945 1_556 S
Zn5 O7 1.932 . S
Zn5 O14 1.977 1_455 S
Zn5 O15 1.910 . S
O6 Zn3 1.933 . S
O6 C17 1.226 1_665 S
O7 Zn5 1.932 . S
O7 C17 1.307 . S
O8 Zn1 1.919 1_565 S
O8 C19 1.253 . S
O9 Zn3 1.941 1_455 S
O9 C19 1.283 1_556 S
O10 Zn3 1.965 . S
O10 C18 1.303 1_556 S
O11 Zn4 1.938 1_565 S
O11 C18 1.247 . S
O12 Zn4 1.906 . S
O12 C20 1.304 1_554 S
O13 Zn1 1.924 . S
O13 C21 1.311 . S
O14 Zn5 1.977 1_655 S
O14 C20 1.272 . S
O15 Zn5 1.910 . S
O15 C21 1.231 1_556 S
C16 O0 1.225 1_545 S
C16 O22 1.298 1_455 S
C17 O6 1.226 1_445 S
C17 O7 1.307 . S
C18 O10 1.303 1_554 S
C18 O11 1.247 . S
C19 O8 1.253 . S
C19 O9 1.283 1_554 S
C20 O12 1.304 1_556 S
C20 O14 1.272 . S
C21 O13 1.311 . S
C21 O15 1.231 1_554 S
O22 Zn4 1.953 . S
O22 C16 1.298 1_655 S
O23 Zn24 1.953 . S
O23 C39 1.225 . S
Zn24 O23 1.953 . S
Zn24 O25 1.949 . S
Zn24 O31 1.919 . S
Zn24 O36 1.924 . S
O25 Zn24 1.949 . S
O25 Zn26 1.923 . S
O25 Zn27 1.950 . S
O25 Zn28 1.945 . S
Zn26 O25 1.923 . S
Zn26 O29 1.933 . S
Zn26 O32 1.941 . S
Zn26 O33 1.965 . S
Zn27 O25 1.950 . S
Zn27 O34 1.938 . S
Zn27 O35 1.906 . S
Zn27 O45 1.953 . S
Zn28 O25 1.945 . S
Zn28 O30 1.932 . S
Zn28 O37 1.977 . S
Zn28 O38 1.910 . S
O29 Zn26 1.933 . S
O29 C40 1.226 . S
O30 Zn28 1.932 . S
O30 C40 1.307 . S
O31 Zn24 1.919 . S
O31 C42 1.253 . S
O32 Zn26 1.941 . S
O32 C42 1.283 . S
O33 Zn26 1.965 . S
O33 C41 1.303 . S
O34 Zn27 1.938 . S
O34 C41 1.247 . S
O35 Zn27 1.906 . S
O35 C43 1.304 . S
O36 Zn24 1.924 . S
O36 C44 1.311 . S
O37 Zn28 1.977 . S
O37 C43 1.272 . S
O38 Zn28 1.910 . S
O38 C44 1.231 . S
C39 O23 1.225 . S
C39 O45 1.298 . S
C40 O29 1.226 . S
C40 O30 1.307 . S
C41 O33 1.303 . S
C41 O34 1.247 . S
C42 O31 1.253 . S
C42 O32 1.283 . S
C43 O35 1.304 . S
C43 O37 1.272 . S
C44 O36 1.311 . S
C44 O38 1.231 . S
O45 Zn27 1.953 . S
O45 C39 1.298 . S
H46 C51 0.929 . S
H47 C56 0.931 . S
H48 C54 0.930 . S
N49 N50 1.234 . S
N49 C53 1.453 . S
N50 N49 1.234 . S
C51 H46 0.929 . S
C51 C52 1.373 . S
C51 C53 1.368 1_465 S
C52 C51 1.373 . S
C52 C56 1.397 . S
C53 N49 1.453 . S
C53 C51 1.368 1_645 S
C53 C54 1.373 . S
C54 H48 0.930 . S
C54 C53 1.373 . S
C54 C55 1.371 1_655 S
C55 C54 1.371 1_455 S
C55 C56 1.383 1_545 S
C56 H47 0.931 . S
C56 C52 1.397 . S
C56 C55 1.383 1_565 S
H57 C62 0.929 . S
H58 C67 0.931 . S
H59 C65 0.930 . S
N60 N61 1.234 . S
N60 C64 1.453 . S
N61 N60 1.234 . S
C62 H57 0.929 . S
C62 C63 1.373 . S
C62 C64 1.368 1_665 S
C63 C62 1.373 . S
C63 C67 1.397 . S
C64 N60 1.453 . S
C64 C62 1.368 1_445 S
C64 C65 1.373 . S
C65 H59 0.930 . S
C65 C64 1.373 . S
C65 C66 1.371 . S
C66 C65 1.371 . S
C66 C67 1.383 1_445 S
C67 H58 0.931 . S
C67 C63 1.397 . S
C67 C66 1.383 1_665 S
H68 C73 0.929 . S
H69 C78 0.931 . S
H70 C76 0.930 . S
N71 N72 1.234 . S
N71 C75 1.453 . S
N72 N71 1.234 . S
C73 H68 0.929 . S
C73 C74 1.373 . S
C73 C75 1.368 . S
C74 C73 1.373 . S
C74 C78 1.397 . S
C75 N71 1.453 . S
C75 C73 1.368 . S
C75 C76 1.373 . S
C76 H70 0.930 . S
C76 C75 1.373 . S
C76 C77 1.371 . S
C77 C76 1.371 . S
C77 C78 1.383 . S
C78 H69 0.931 . S
C78 C74 1.397 . S
C78 C77 1.383 . S
H79 C84 0.929 . S
H80 C89 0.931 . S
H81 C87 0.930 . S
N82 N83 1.234 . S
N82 C86 1.453 . S
N83 N82 1.234 . S
C84 H79 0.929 . S
C84 C85 1.373 . S
C84 C86 1.368 . S
C85 C84 1.373 . S
C85 C89 1.397 . S
C86 N82 1.453 . S
C86 C84 1.368 . S
C86 C87 1.373 . S
C87 H81 0.930 . S
C87 C86 1.373 . S
C87 C88 1.371 . S
C88 C87 1.371 . S
C88 C89 1.383 . S
C89 H80 0.931 . S
C89 C85 1.397 . S
C89 C88 1.383 . S
H90 C108 0.951 . S
H91 C110 0.951 . S
H92 C112 0.950 . S
H93 C113 0.950 . S
H94 C115 0.950 . S
H95 C118 0.950 . S
H96 C119 0.950 . S
H97 C121 0.950 . S
H98 C122 0.950 . S
H99 C123 0.951 . S
H100 C125 0.951 . S
H101 C127 0.950 . S
H102 C128 0.950 . S
H103 C130 0.950 . S
H104 C133 0.950 . S
H105 C134 0.950 . S
H106 C136 0.950 . S
H107 C137 0.950 . S
C108 H90 0.951 . S
C108 C109 1.366 . S
C108 C110 1.388 . S
C109 C108 1.366 . S
C109 C113 1.385 . S
C110 H91 0.951 . S
C110 C108 1.388 . S
C110 C111 1.366 . S
C111 C110 1.366 . S
C111 C112 1.414 . S
C111 C114 1.499 . S
C112 H92 0.950 . S
C112 C111 1.414 . S
C112 C113 1.374 . S
C113 H93 0.950 . S
C113 C109 1.385 . S
C113 C112 1.374 . S
C114 C111 1.499 . S
C114 C115 1.373 . S
C114 C116 1.389 . S
C115 H94 0.950 . S
C115 C114 1.373 . S
C115 C131 1.377 . S
C116 C114 1.389 . S
C116 C117 1.524 . S
C116 C130 1.377 . S
C117 C116 1.524 . S
C117 C118 1.397 . S
C117 C122 1.363 . S
C118 H95 0.950 . S
C118 C117 1.397 . S
C118 C119 1.334 . S
C119 H96 0.950 . S
C119 C118 1.334 . S
C119 C120 1.287 . S
C120 C119 1.287 . S
C120 C121 1.524 . S
C120 H139 0.913 . S
C121 H97 0.950 . S
C121 C120 1.524 . S
C121 C122 1.415 . S
C122 H98 0.950 . S
C122 C117 1.363 . S
C122 C121 1.415 . S
C123 H99 0.951 . S
C123 C124 1.366 . S
C123 C125 1.388 . S
C124 C123 1.366 . S
C124 C128 1.385 . S
C125 H100 0.951 . S
C125 C123 1.388 . S
C125 C126 1.366 . S
C126 C125 1.366 . S
C126 C127 1.414 . S
C126 C129 1.499 . S
C127 H101 0.950 . S
C127 C126 1.414 . S
C127 C128 1.374 . S
C128 H102 0.950 . S
C128 C124 1.385 . S
C128 C127 1.374 . S
C129 C126 1.499 . S
C129 C130 1.373 . S
C129 C131 1.389 . S
C130 H103 0.950 . S
C130 C116 1.377 . S
C130 C129 1.373 . S
C131 C115 1.377 . S
C131 C129 1.389 . S
C131 C132 1.524 . S
C132 C131 1.524 . S
C132 C133 1.397 . S
C132 C137 1.363 . S
C133 H104 0.950 . S
C133 C132 1.397 . S
C133 C134 1.334 . S
C134 H105 0.950 . S
C134 C133 1.334 . S
C134 C135 1.287 . S
C135 C134 1.287 . S
C135 C136 1.524 . S
C135 H138 0.999 . S
C136 H106 0.950 . S
C136 C135 1.524 . S
C136 C137 1.415 . S
C137 H107 0.950 . S
C137 C132 1.363 . S
C137 C136 1.415 . S
H138 C135 0.999 . S
H139 C120 0.913 . S
H140 C158 0.951 . S
H141 C160 0.951 . S
H142 C162 0.950 . S
H143 C163 0.950 1_554 S
H144 C165 0.950 . S
H145 C168 0.950 . S
H146 C169 0.950 . S
H147 C171 0.950 . S
H148 C172 0.950 . S
H149 C173 0.951 . S
H150 C175 0.951 . S
H151 C177 0.950 . S
H152 C178 0.950 . S
H153 C180 0.950 . S
H154 C183 0.950 . S
H155 C184 0.950 . S
H156 C186 0.950 . S
H157 C187 0.950 . S
C158 H140 0.951 . S
C158 C159 1.366 . S
C158 C160 1.388 . S
C159 C158 1.366 . S
C159 C163 1.385 . S
C160 H141 0.951 . S
C160 C158 1.388 . S
C160 C161 1.366 . S
C161 C160 1.366 . S
C161 C162 1.414 . S
C161 C164 1.499 . S
C162 H142 0.950 . S
C162 C161 1.414 . S
C162 C163 1.374 . S
C163 H143 0.950 1_556 S
C163 C159 1.385 . S
C163 C162 1.374 . S
C164 C161 1.499 . S
C164 C165 1.373 . S
C164 C166 1.389 . S
C165 H144 0.950 . S
C165 C164 1.373 . S
C165 C181 1.377 . S
C166 C164 1.389 . S
C166 C167 1.524 1_556 S
C166 C180 1.377 . S
C167 C166 1.524 1_554 S
C167 C168 1.397 . S
C167 C172 1.363 1_554 S
C168 H145 0.950 . S
C168 C167 1.397 . S
C168 C169 1.334 . S
C169 H146 0.950 . S
C169 C168 1.334 . S
C169 C170 1.287 . S
C170 C169 1.287 . S
C170 C171 1.524 . S
C170 H189 0.913 . S
C171 H147 0.950 . S
C171 C170 1.524 . S
C171 C172 1.415 1_554 S
C172 H148 0.950 . S
C172 C167 1.363 1_556 S
C172 C171 1.415 1_556 S
C173 H149 0.951 . S
C173 C174 1.366 . S
C173 C175 1.388 . S
C174 C173 1.366 . S
C174 C178 1.385 . S
C175 H150 0.951 . S
C175 C173 1.388 . S
C175 C176 1.366 . S
C176 C175 1.366 . S
C176 C177 1.414 . S
C176 C179 1.499 . S
C177 H151 0.950 . S
C177 C176 1.414 . S
C177 C178 1.374 . S
C178 H152 0.950 . S
C178 C174 1.385 . S
C178 C177 1.374 . S
C179 C176 1.499 . S
C179 C180 1.373 . S
C179 C181 1.389 . S
C180 H153 0.950 . S
C180 C166 1.377 . S
C180 C179 1.373 . S
C181 C165 1.377 . S
C181 C179 1.389 . S
C181 C182 1.524 . S
C182 C181 1.524 . S
C182 C183 1.397 . S
C182 C187 1.363 . S
C183 H154 0.950 . S
C183 C182 1.397 . S
C183 C184 1.334 . S
C184 H155 0.950 . S
C184 C183 1.334 . S
C184 C185 1.287 . S
C185 C184 1.287 . S
C185 C186 1.524 . S
C185 H188 0.999 . S
C186 H156 0.950 . S
C186 C185 1.524 . S
C186 C187 1.415 . S
C187 H157 0.950 . S
C187 C182 1.363 . S
C187 C186 1.415 . S
H188 C185 0.999 . S
H189 C170 0.913 . S
H190 C208 0.951 1_556 S
H191 C210 0.951 1_556 S
H192 C212 0.950 . S
H193 C213 0.950 . S
H194 C215 0.950 . S
H195 C218 0.950 . S
H196 C219 0.950 . S
H197 C221 0.950 . S
H198 C222 0.951 1_556 S
H199 C223 0.951 . S
H200 C225 0.951 . S
H201 C227 0.950 . S
H202 C228 0.950 . S
H203 C230 0.950 . S
H204 C233 0.950 . S
H205 C234 0.950 . S
H206 C236 0.950 . S
H207 C237 0.950 . S
C208 H190 0.951 1_554 S
C208 C209 1.366 . S
C208 C210 1.388 . S
C209 C208 1.366 . S
C209 C213 1.385 . S
C210 H191 0.951 1_554 S
C210 C208 1.388 . S
C210 C211 1.366 . S
C211 C210 1.366 . S
C211 C212 1.414 . S
C211 C214 1.499 . S
C212 H192 0.950 . S
C212 C211 1.414 . S
C212 C213 1.374 . S
C213 H193 0.950 . S
C213 C209 1.385 . S
C213 C212 1.374 . S
C214 C211 1.499 . S
C214 C215 1.373 . S
C214 C216 1.389 . S
C215 H194 0.950 . S
C215 C214 1.373 . S
C215 C231 1.377 . S
C216 C214 1.389 . S
C216 C217 1.524 . S
C216 C230 1.377 . S
C217 C216 1.524 . S
C217 C218 1.397 . S
C217 C222 1.362 . S
C218 H195 0.950 . S
C218 C217 1.397 . S
C218 C219 1.334 . S
C219 H196 0.950 . S
C219 C218 1.334 . S
C219 C220 1.287 . S
C220 C219 1.287 . S
C220 C221 1.524 1_554 S
C220 H239 0.913 . S
C221 H197 0.950 . S
C221 C220 1.524 1_556 S
C221 C222 1.415 1_556 S
C222 H198 0.951 1_554 S
C222 C217 1.362 . S
C222 C221 1.415 1_554 S
C223 H199 0.951 . S
C223 C224 1.366 . S
C223 C225 1.388 . S
C224 C223 1.366 . S
C224 C228 1.385 . S
C225 H200 0.951 . S
C225 C223 1.388 . S
C225 C226 1.366 . S
C226 C225 1.366 . S
C226 C227 1.414 . S
C226 C229 1.499 . S
C227 H201 0.950 . S
C227 C226 1.414 . S
C227 C228 1.374 . S
C228 H202 0.950 . S
C228 C224 1.385 . S
C228 C227 1.374 . S
C229 C226 1.499 . S
C229 C230 1.373 . S
C229 C231 1.389 . S
C230 H203 0.950 . S
C230 C216 1.377 . S
C230 C229 1.373 . S
C231 C215 1.377 . S
C231 C229 1.389 . S
C231 C232 1.524 . S
C232 C231 1.524 . S
C232 C233 1.397 . S
C232 C237 1.363 . S
C233 H204 0.950 . S
C233 C232 1.397 . S
C233 C234 1.334 . S
C234 H205 0.950 . S
C234 C233 1.334 . S
C234 C235 1.287 . S
C235 C234 1.287 . S
C235 C236 1.524 . S
C235 H238 0.999 . S
C236 H206 0.950 . S
C236 C235 1.524 . S
C236 C237 1.415 . S
C237 H207 0.950 . S
C237 C232 1.363 . S
C237 C236 1.415 . S
H238 C235 0.999 . S
H239 C220 0.913 . S
H240 C258 0.951 . S
H241 C260 0.951 . S
H242 C262 0.950 . S
H243 C263 0.950 1_554 S
H244 C265 0.950 1_554 S
H245 C268 0.950 . S
H246 C269 0.950 . S
H247 C271 0.950 . S
H248 C272 0.950 . S
H249 C273 0.951 . S
H250 C275 0.951 . S
H251 C277 0.950 . S
H252 C278 0.950 . S
H253 C280 0.950 . S
H254 C283 0.950 1_556 S
H255 C284 0.950 . S
H256 C286 0.950 . S
H257 C287 0.950 . S
C258 H240 0.951 . S
C258 C259 1.366 . S
C258 C260 1.388 . S
C259 C258 1.366 . S
C259 C263 1.385 . S
C260 H241 0.951 . S
C260 C258 1.388 . S
C260 C261 1.366 . S
C261 C260 1.366 . S
C261 C262 1.414 . S
C261 C264 1.499 . S
C262 H242 0.950 . S
C262 C261 1.414 . S
C262 C263 1.374 . S
C263 H243 0.950 1_556 S
C263 C259 1.385 . S
C263 C262 1.374 . S
C264 C261 1.499 . S
C264 C265 1.373 . S
C264 C266 1.389 . S
C265 H244 0.950 1_556 S
C265 C264 1.373 . S
C265 C281 1.377 . S
C266 C264 1.389 . S
C266 C267 1.524 . S
C266 C280 1.377 . S
C267 C266 1.524 . S
C267 C268 1.397 . S
C267 C272 1.363 . S
C268 H245 0.950 . S
C268 C267 1.397 . S
C268 C269 1.334 . S
C269 H246 0.950 . S
C269 C268 1.334 . S
C269 C270 1.287 . S
C270 C269 1.287 . S
C270 C271 1.524 . S
C270 H289 0.913 . S
C271 H247 0.950 . S
C271 C270 1.524 . S
C271 C272 1.415 . S
C272 H248 0.950 . S
C272 C267 1.363 . S
C272 C271 1.415 . S
C273 H249 0.951 . S
C273 C274 1.366 . S
C273 C275 1.388 . S
C274 C273 1.366 . S
C274 C278 1.385 . S
C275 H250 0.951 . S
C275 C273 1.388 . S
C275 C276 1.366 . S
C276 C275 1.366 . S
C276 C277 1.414 . S
C276 C279 1.499 . S
C277 H251 0.950 . S
C277 C276 1.414 . S
C277 C278 1.374 . S
C278 H252 0.950 . S
C278 C274 1.385 . S
C278 C277 1.374 . S
C279 C276 1.499 . S
C279 C280 1.373 . S
C279 C281 1.389 . S
C280 H253 0.950 . S
C280 C266 1.377 . S
C280 C279 1.373 . S
C281 C265 1.377 . S
C281 C279 1.389 . S
C281 C282 1.524 1_556 S
C282 C281 1.524 1_554 S
C282 C283 1.397 . S
C282 C287 1.363 . S
C283 H254 0.950 1_554 S
C283 C282 1.397 . S
C283 C284 1.334 . S
C284 H255 0.950 . S
C284 C283 1.334 . S
C284 C285 1.287 . S
C285 C284 1.287 . S
C285 C286 1.524 . S
C285 H288 0.999 . S
C286 H256 0.950 . S
C286 C285 1.524 . S
C286 C287 1.415 . S
C287 H257 0.950 . S
C287 C282 1.363 . S
C287 C286 1.415 . S
H288 C285 0.999 . S
H289 C270 0.913 . S
H290 C308 0.951 . S
H291 C310 0.951 . S
H292 C312 0.950 . S
H293 C313 0.950 . S
H294 C315 0.950 . S
H295 C318 0.950 . S
H296 C319 0.950 . S
H297 C321 0.950 . S
H298 C322 0.950 . S
H299 C323 0.951 . S
H300 C325 0.951 . S
H301 C327 0.950 . S
H302 C328 0.950 . S
H303 C330 0.950 . S
H304 C333 0.950 . S
H305 C334 0.950 . S
H306 C336 0.950 . S
H307 C337 0.950 . S
C308 H290 0.951 . S
C308 C309 1.366 . S
C308 C310 1.388 . S
C309 C308 1.366 . S
C309 C313 1.385 . S
C310 H291 0.951 . S
C310 C308 1.388 . S
C310 C311 1.366 . S
C311 C310 1.366 . S
C311 C312 1.414 . S
C311 C314 1.499 . S
C312 H292 0.950 . S
C312 C311 1.414 . S
C312 C313 1.374 . S
C313 H293 0.950 . S
C313 C309 1.385 . S
C313 C312 1.374 . S
C314 C311 1.499 . S
C314 C315 1.373 . S
C314 C316 1.389 . S
C315 H294 0.950 . S
C315 C314 1.373 . S
C315 C331 1.377 . S
C316 C314 1.389 . S
C316 C317 1.524 . S
C316 C330 1.377 . S
C317 C316 1.524 . S
C317 C318 1.397 . S
C317 C322 1.363 . S
C318 H295 0.950 . S
C318 C317 1.397 . S
C318 C319 1.334 . S
C319 H296 0.950 . S
C319 C318 1.334 . S
C319 C320 1.287 . S
C320 C319 1.287 . S
C320 C321 1.524 . S
C320 H339 0.913 . S
C321 H297 0.950 . S
C321 C320 1.524 . S
C321 C322 1.415 . S
C322 H298 0.950 . S
C322 C317 1.363 . S
C322 C321 1.415 . S
C323 H299 0.951 . S
C323 C324 1.366 . S
C323 C325 1.388 . S
C324 C323 1.366 . S
C324 C328 1.385 . S
C325 H300 0.951 . S
C325 C323 1.388 . S
C325 C326 1.366 . S
C326 C325 1.366 . S
C326 C327 1.414 . S
C326 C329 1.499 . S
C327 H301 0.950 . S
C327 C326 1.414 . S
C327 C328 1.374 . S
C328 H302 0.950 . S
C328 C324 1.385 . S
C328 C327 1.374 . S
C329 C326 1.499 . S
C329 C330 1.373 . S
C329 C331 1.389 . S
C330 H303 0.950 . S
C330 C316 1.377 . S
C330 C329 1.373 . S
C331 C315 1.377 . S
C331 C329 1.389 . S
C331 C332 1.524 . S
C332 C331 1.524 . S
C332 C333 1.397 . S
C332 C337 1.363 . S
C333 H304 0.950 . S
C333 C332 1.397 . S
C333 C334 1.334 . S
C334 H305 0.950 . S
C334 C333 1.334 . S
C334 C335 1.287 . S
C335 C334 1.287 . S
C335 C336 1.524 . S
C335 H338 0.999 1_655 S
C336 H306 0.950 . S
C336 C335 1.524 . S
C336 C337 1.415 . S
C337 H307 0.950 . S
C337 C332 1.363 . S
C337 C336 1.415 . S
H338 C335 0.999 1_455 S
H339 C320 0.913 . S
H340 C358 0.951 . S
H341 C360 0.951 . S
H342 C362 0.950 . S
H343 C363 0.950 . S
H344 C365 0.950 . S
H345 C368 0.950 . S
H346 C369 0.950 . S
H347 C371 0.950 . S
H348 C372 0.950 . S
H349 C373 0.951 . S
H350 C375 0.951 . S
H351 C377 0.950 . S
H352 C378 0.950 . S
H353 C380 0.950 . S
H354 C383 0.950 . S
H355 C384 0.950 . S
H356 C386 0.950 . S
H357 C387 0.950 . S
C358 H340 0.951 . S
C358 C359 1.366 . S
C358 C360 1.388 . S
C359 C358 1.366 . S
C359 C363 1.385 . S
C360 H341 0.951 . S
C360 C358 1.388 . S
C360 C361 1.366 . S
C361 C360 1.366 . S
C361 C362 1.414 . S
C361 C364 1.499 . S
C362 H342 0.950 . S
C362 C361 1.414 . S
C362 C363 1.374 . S
C363 H343 0.950 . S
C363 C359 1.385 . S
C363 C362 1.374 . S
C364 C361 1.499 . S
C364 C365 1.373 . S
C364 C366 1.389 . S
C365 H344 0.950 . S
C365 C364 1.373 . S
C365 C381 1.377 . S
C366 C364 1.389 . S
C366 C367 1.524 . S
C366 C380 1.377 . S
C367 C366 1.524 . S
C367 C368 1.397 . S
C367 C372 1.363 . S
C368 H345 0.950 . S
C368 C367 1.397 . S
C368 C369 1.334 . S
C369 H346 0.950 . S
C369 C368 1.334 . S
C369 C370 1.287 . S
C370 C369 1.287 . S
C370 C371 1.524 . S
C370 H389 0.913 . S
C371 H347 0.950 . S
C371 C370 1.524 . S
C371 C372 1.415 . S
C372 H348 0.950 . S
C372 C367 1.363 . S
C372 C371 1.415 . S
C373 H349 0.951 . S
C373 C374 1.366 . S
C373 C375 1.388 . S
C374 C373 1.366 . S
C374 C378 1.385 . S
C375 H350 0.951 . S
C375 C373 1.388 . S
C375 C376 1.366 . S
C376 C375 1.366 . S
C376 C377 1.414 . S
C376 C379 1.499 . S
C377 H351 0.950 . S
C377 C376 1.414 . S
C377 C378 1.374 . S
C378 H352 0.950 . S
C378 C374 1.385 . S
C378 C377 1.374 . S
C379 C376 1.499 . S
C379 C380 1.373 . S
C379 C381 1.389 . S
C380 H353 0.950 . S
C380 C366 1.377 . S
C380 C379 1.373 . S
C381 C365 1.377 . S
C381 C379 1.389 . S
C381 C382 1.524 . S
C382 C381 1.524 . S
C382 C383 1.397 . S
C382 C387 1.363 . S
C383 H354 0.950 . S
C383 C382 1.397 . S
C383 C384 1.334 . S
C384 H355 0.950 . S
C384 C383 1.334 . S
C384 C385 1.287 . S
C385 C384 1.287 . S
C385 C386 1.524 . S
C385 H388 0.999 . S
C386 H356 0.950 . S
C386 C385 1.524 . S
C386 C387 1.415 . S
C387 H357 0.950 . S
C387 C382 1.363 . S
C387 C386 1.415 . S
H388 C385 0.999 . S
H389 C370 0.913 . S
H390 C408 0.951 . S
H391 C410 0.951 . S
H392 C412 0.950 . S
H393 C413 0.950 . S
H394 C415 0.950 . S
H395 C418 0.950 . S
H396 C419 0.950 . S
H397 C421 0.950 . S
H398 C422 0.950 . S
H399 C423 0.951 . S
H400 C425 0.951 . S
H401 C427 0.950 . S
H402 C428 0.950 . S
H403 C430 0.950 . S
H404 C433 0.950 . S
H405 C434 0.950 . S
H406 C436 0.950 . S
H407 C437 0.950 . S
C408 H390 0.951 . S
C408 C409 1.366 . S
C408 C410 1.388 . S
C409 C408 1.366 . S
C409 C413 1.385 . S
C410 H391 0.951 . S
C410 C408 1.388 . S
C410 C411 1.366 . S
C411 C410 1.366 . S
C411 C412 1.414 . S
C411 C414 1.499 . S
C412 H392 0.950 . S
C412 C411 1.414 . S
C412 C413 1.374 . S
C413 H393 0.950 . S
C413 C409 1.385 . S
C413 C412 1.374 . S
C414 C411 1.499 . S
C414 C415 1.373 . S
C414 C416 1.389 . S
C415 H394 0.950 . S
C415 C414 1.373 . S
C415 C431 1.377 . S
C416 C414 1.389 . S
C416 C417 1.524 . S
C416 C430 1.377 . S
C417 C416 1.524 . S
C417 C418 1.397 . S
C417 C422 1.363 . S
C418 H395 0.950 . S
C418 C417 1.397 . S
C418 C419 1.334 . S
C419 H396 0.950 . S
C419 C418 1.334 . S
C419 C420 1.287 . S
C420 C419 1.287 . S
C420 C421 1.524 . S
C420 H439 0.913 . S
C421 H397 0.950 . S
C421 C420 1.524 . S
C421 C422 1.415 . S
C422 H398 0.950 . S
C422 C417 1.363 . S
C422 C421 1.415 . S
C423 H399 0.951 . S
C423 C424 1.366 . S
C423 C425 1.388 . S
C424 C423 1.366 . S
C424 C428 1.385 . S
C425 H400 0.951 . S
C425 C423 1.388 . S
C425 C426 1.366 . S
C426 C425 1.366 . S
C426 C427 1.414 . S
C426 C429 1.499 . S
C427 H401 0.950 . S
C427 C426 1.414 . S
C427 C428 1.374 . S
C428 H402 0.950 . S
C428 C424 1.385 . S
C428 C427 1.374 . S
C429 C426 1.499 . S
C429 C430 1.373 . S
C429 C431 1.389 . S
C430 H403 0.950 . S
C430 C416 1.377 . S
C430 C429 1.373 . S
C431 C415 1.377 . S
C431 C429 1.389 . S
C431 C432 1.524 . S
C432 C431 1.524 . S
C432 C433 1.397 . S
C432 C437 1.363 . S
C433 H404 0.950 . S
C433 C432 1.397 . S
C433 C434 1.334 . S
C434 H405 0.950 . S
C434 C433 1.334 . S
C434 C435 1.287 . S
C435 C434 1.287 . S
C435 C436 1.524 . S
C435 H438 0.999 . S
C436 H406 0.950 . S
C436 C435 1.524 . S
C436 C437 1.415 . S
C437 H407 0.950 . S
C437 C432 1.363 . S
C437 C436 1.415 . S
H438 C435 0.999 . S
H439 C420 0.913 . S
H440 C458 0.951 . S
H441 C460 0.951 . S
H442 C462 0.950 . S
H443 C463 0.950 . S
H444 C465 0.950 . S
H445 C468 0.950 . S
H446 C469 0.950 . S
H447 C471 0.950 . S
H448 C472 0.950 . S
H449 C473 0.951 . S
H450 C475 0.951 . S
H451 C477 0.950 . S
H452 C478 0.950 . S
H453 C480 0.950 . S
H454 C483 0.950 . S
H455 C484 0.950 . S
H456 C486 0.950 . S
H457 C487 0.950 . S
C458 H440 0.951 . S
C458 C459 1.366 . S
C458 C460 1.388 . S
C459 C458 1.366 . S
C459 C463 1.385 . S
C460 H441 0.951 . S
C460 C458 1.388 . S
C460 C461 1.366 . S
C461 C460 1.366 . S
C461 C462 1.414 . S
C461 C464 1.499 . S
C462 H442 0.950 . S
C462 C461 1.414 . S
C462 C463 1.374 . S
C463 H443 0.950 . S
C463 C459 1.385 . S
C463 C462 1.374 . S
C464 C461 1.499 . S
C464 C465 1.373 . S
C464 C466 1.389 . S
C465 H444 0.950 . S
C465 C464 1.373 . S
C465 C481 1.377 . S
C466 C464 1.389 . S
C466 C467 1.524 . S
C466 C480 1.377 . S
C467 C466 1.524 . S
C467 C468 1.397 . S
C467 C472 1.363 . S
C468 H445 0.950 . S
C468 C467 1.397 . S
C468 C469 1.334 . S
C469 H446 0.950 . S
C469 C468 1.334 . S
C469 C470 1.287 . S
C470 C469 1.287 . S
C470 C471 1.524 . S
C470 H489 0.913 . S
C471 H447 0.950 . S
C471 C470 1.524 . S
C471 C472 1.415 . S
C472 H448 0.950 . S
C472 C467 1.363 . S
C472 C471 1.415 . S
C473 H449 0.951 . S
C473 C474 1.366 . S
C473 C475 1.388 . S
C474 C473 1.366 . S
C474 C478 1.385 . S
C475 H450 0.951 . S
C475 C473 1.388 . S
C475 C476 1.366 . S
C476 C475 1.366 . S
C476 C477 1.414 . S
C476 C479 1.499 . S
C477 H451 0.950 . S
C477 C476 1.414 . S
C477 C478 1.374 . S
C478 H452 0.950 . S
C478 C474 1.385 . S
C478 C477 1.374 . S
C479 C476 1.499 . S
C479 C480 1.373 . S
C479 C481 1.389 . S
C480 H453 0.950 . S
C480 C466 1.377 . S
C480 C479 1.373 . S
C481 C465 1.377 . S
C481 C479 1.389 . S
C481 C482 1.524 . S
C482 C481 1.524 . S
C482 C483 1.397 . S
C482 C487 1.363 . S
C483 H454 0.950 . S
C483 C482 1.397 . S
C483 C484 1.334 . S
C484 H455 0.950 . S
C484 C483 1.334 . S
C484 C485 1.287 . S
C485 C484 1.287 . S
C485 C486 1.524 . S
C485 H488 0.999 . S
C486 H456 0.950 . S
C486 C485 1.524 . S
C486 C487 1.415 . S
C487 H457 0.950 . S
C487 C482 1.363 . S
C487 C486 1.415 . S
H488 C485 0.999 . S
H489 C470 0.913 . S
H490 C508 0.952 . S
H491 C510 0.951 . S
H492 C512 0.950 . S
H493 C513 0.950 . S
H494 C515 0.950 . S
H495 C518 0.950 . S
H496 C519 0.950 . S
H497 C521 0.950 . S
H498 C522 0.950 . S
H499 C523 0.951 . S
H500 C525 0.951 . S
H501 C527 0.950 . S
H502 C528 0.950 . S
H503 C530 0.954 . S
H504 C533 0.950 . S
H505 C534 0.950 . S
H506 C536 0.950 . S
H507 C537 0.950 . S
C508 H490 0.952 . S
C508 C509 1.364 1_665 S
C508 C510 1.388 . S
C509 C508 1.364 1_445 S
C509 C513 1.385 . S
C510 H491 0.951 . S
C510 C508 1.388 . S
C510 C511 1.366 1_665 S
C511 C510 1.366 1_445 S
C511 C512 1.414 . S
C511 C514 1.499 . S
C512 H492 0.950 . S
C512 C511 1.414 . S
C512 C513 1.374 . S
C513 H493 0.950 . S
C513 C509 1.385 . S
C513 C512 1.374 . S
C514 C511 1.499 . S
C514 C515 1.373 . S
C514 C516 1.389 1_455 S
C515 H494 0.950 . S
C515 C514 1.373 . S
C515 C531 1.377 . S
C516 C514 1.389 1_655 S
C516 C517 1.524 1_545 S
C516 C530 1.376 1_545 S
C517 C516 1.524 1_565 S
C517 C518 1.397 1_565 S
C517 C522 1.363 . S
C518 H495 0.950 . S
C518 C517 1.397 1_545 S
C518 C519 1.334 . S
C519 H496 0.950 . S
C519 C518 1.334 . S
C519 C520 1.287 1_545 S
C520 C519 1.287 1_565 S
C520 C521 1.524 . S
C520 H539 0.913 . S
C521 H497 0.950 . S
C521 C520 1.524 . S
C521 C522 1.415 . S
C522 H498 0.950 . S
C522 C517 1.363 . S
C522 C521 1.415 . S
C523 H499 0.951 . S
C523 C524 1.366 . S
C523 C525 1.388 . S
C524 C523 1.366 . S
C524 C528 1.385 1_445 S
C525 H500 0.951 . S
C525 C523 1.388 . S
C525 C526 1.366 . S
C526 C525 1.366 . S
C526 C527 1.414 1_445 S
C526 C529 1.499 . S
C527 H501 0.950 . S
C527 C526 1.414 1_665 S
C527 C528 1.374 . S
C528 H502 0.950 . S
C528 C524 1.385 1_665 S
C528 C527 1.374 . S
C529 C526 1.499 . S
C529 C530 1.371 1_445 S
C529 C531 1.389 . S
C530 H503 0.954 . S
C530 C516 1.376 1_565 S
C530 C529 1.371 1_665 S
C531 C515 1.377 . S
C531 C529 1.389 . S
C531 C532 1.524 . S
C532 C531 1.524 . S
C532 C533 1.397 1_545 S
C532 C537 1.363 . S
C533 H504 0.950 . S
C533 C532 1.397 1_565 S
C533 C534 1.334 . S
C534 H505 0.950 . S
C534 C533 1.334 . S
C534 C535 1.287 1_565 S
C535 C534 1.287 1_545 S
C535 C536 1.524 . S
C535 H538 0.999 . S
C536 H506 0.950 . S
C536 C535 1.524 . S
C536 C537 1.415 . S
C537 H507 0.950 . S
C537 C532 1.363 . S
C537 C536 1.415 . S
H538 C535 0.999 . S
H539 C520 0.913 . S
H540 C558 0.951 . S
H541 C560 0.951 . S
H542 C562 0.950 . S
H543 C563 0.950 . S
H544 C565 0.950 . S
H545 C568 0.950 . S
H546 C569 0.950 . S
H547 C571 0.950 . S
H548 C572 0.950 . S
H549 C573 0.951 . S
H550 C575 0.951 . S
H551 C577 0.950 . S
H552 C578 0.950 . S
H553 C580 0.950 1_565 S
H554 C583 0.950 . S
H555 C584 0.950 . S
H556 C586 0.950 . S
H557 C587 0.950 . S
C558 H540 0.951 . S
C558 C559 1.366 1_565 S
C558 C560 1.388 . S
C559 C558 1.366 1_545 S
C559 C563 1.385 1_455 S
C560 H541 0.951 . S
C560 C558 1.388 . S
C560 C561 1.366 1_565 S
C561 C560 1.366 1_545 S
C561 C562 1.414 1_455 S
C561 C564 1.499 . S
C562 H542 0.950 . S
C562 C561 1.414 1_655 S
C562 C563 1.374 . S
C563 H543 0.950 . S
C563 C559 1.385 1_655 S
C563 C562 1.374 . S
C564 C561 1.499 . S
C564 C565 1.373 1_455 S
C564 C566 1.389 . S
C565 H544 0.950 . S
C565 C564 1.373 1_655 S
C565 C581 1.377 . S
C566 C564 1.389 . S
C566 C567 1.526 . S
C566 C580 1.377 . S
C567 C566 1.526 . S
C567 C568 1.412 . S
C567 C572 1.347 1_545 S
C568 H545 0.950 . S
C568 C567 1.412 . S
C568 C569 1.334 . S
C569 H546 0.950 . S
C569 C568 1.334 . S
C569 C570 1.287 . S
C570 C569 1.287 . S
C570 C571 1.524 1_545 S
C570 H589 0.913 . S
C571 H547 0.950 . S
C571 C570 1.524 1_565 S
C571 C572 1.415 . S
C572 H548 0.950 . S
C572 C567 1.347 1_565 S
C572 C571 1.415 . S
C573 H549 0.951 . S
C573 C574 1.366 1_655 S
C573 C575 1.388 . S
C574 C573 1.366 1_455 S
C574 C578 1.385 1_545 S
C575 H550 0.951 . S
C575 C573 1.388 . S
C575 C576 1.366 1_655 S
C576 C575 1.366 1_455 S
C576 C577 1.414 1_545 S
C576 C579 1.499 . S
C577 H551 0.950 . S
C577 C576 1.414 1_565 S
C577 C578 1.374 . S
C578 H552 0.950 . S
C578 C574 1.385 1_565 S
C578 C577 1.374 . S
C579 C576 1.499 . S
C579 C580 1.373 . S
C579 C581 1.389 1_455 S
C580 H553 0.950 1_545 S
C580 C566 1.377 . S
C580 C579 1.373 . S
C581 C565 1.377 . S
C581 C579 1.389 1_655 S
C581 C582 1.524 . S
C582 C581 1.524 . S
C582 C583 1.397 1_545 S
C582 C587 1.363 . S
C583 H554 0.950 . S
C583 C582 1.397 1_565 S
C583 C584 1.334 . S
C584 H555 0.950 . S
C584 C583 1.334 . S
C584 C585 1.287 1_565 S
C585 C584 1.287 1_545 S
C585 C586 1.524 . S
C585 H588 0.999 . S
C586 H556 0.950 . S
C586 C585 1.524 . S
C586 C587 1.415 . S
C587 H557 0.950 . S
C587 C582 1.363 . S
C587 C586 1.415 . S
H588 C585 0.999 . S
H589 C570 0.913 . S
H590 C608 0.951 . S
H591 C610 0.951 . S
H592 C612 0.950 . S
H593 C613 0.950 . S
H594 C615 0.950 . S
H595 C618 0.950 . S
H596 C619 0.950 . S
H597 C621 0.950 . S
H598 C622 0.950 . S
H599 C623 0.951 . S
H600 C625 0.951 . S
H601 C627 0.950 . S
H602 C628 0.950 . S
H603 C630 0.950 . S
H604 C633 0.950 . S
H605 C634 0.950 . S
H606 C636 0.950 . S
H607 C637 0.950 . S
C608 H590 0.951 . S
C608 C609 1.366 . S
C608 C610 1.388 . S
C609 C608 1.366 . S
C609 C613 1.385 . S
C610 H591 0.951 . S
C610 C608 1.388 . S
C610 C611 1.366 . S
C611 C610 1.366 . S
C611 C612 1.414 . S
C611 C614 1.499 . S
C612 H592 0.950 . S
C612 C611 1.414 . S
C612 C613 1.374 . S
C613 H593 0.950 . S
C613 C609 1.385 . S
C613 C612 1.374 . S
C614 C611 1.499 . S
C614 C615 1.373 . S
C614 C616 1.389 . S
C615 H594 0.950 . S
C615 C614 1.373 . S
C615 C631 1.377 . S
C616 C614 1.389 . S
C616 C617 1.524 . S
C616 C630 1.377 . S
C617 C616 1.524 . S
C617 C618 1.397 . S
C617 C622 1.363 . S
C618 H595 0.950 . S
C618 C617 1.397 . S
C618 C619 1.334 . S
C619 H596 0.950 . S
C619 C618 1.334 . S
C619 C620 1.287 . S
C620 C619 1.287 . S
C620 C621 1.524 . S
C620 H639 0.913 . S
C621 H597 0.950 . S
C621 C620 1.524 . S
C621 C622 1.415 . S
C622 H598 0.950 . S
C622 C617 1.363 . S
C622 C621 1.415 . S
C623 H599 0.951 . S
C623 C624 1.366 . S
C623 C625 1.388 . S
C624 C623 1.366 . S
C624 C628 1.385 . S
C625 H600 0.951 . S
C625 C623 1.388 . S
C625 C626 1.366 . S
C626 C625 1.366 . S
C626 C627 1.414 . S
C626 C629 1.499 . S
C627 H601 0.950 . S
C627 C626 1.414 . S
C627 C628 1.374 . S
C628 H602 0.950 . S
C628 C624 1.385 . S
C628 C627 1.374 . S
C629 C626 1.499 . S
C629 C630 1.373 . S
C629 C631 1.389 . S
C630 H603 0.950 . S
C630 C616 1.377 . S
C630 C629 1.373 . S
C631 C615 1.377 . S
C631 C629 1.389 . S
C631 C632 1.524 . S
C632 C631 1.524 . S
C632 C633 1.397 . S
C632 C637 1.363 . S
C633 H604 0.950 . S
C633 C632 1.397 . S
C633 C634 1.334 . S
C634 H605 0.950 . S
C634 C633 1.334 . S
C634 C635 1.287 . S
C635 C634 1.287 . S
C635 C636 1.524 . S
C635 H638 0.999 . S
C636 H606 0.950 . S
C636 C635 1.524 . S
C636 C637 1.415 . S
C637 H607 0.950 . S
C637 C632 1.363 . S
C637 C636 1.415 . S
H638 C635 0.999 . S
H639 C620 0.913 . S
H640 C658 0.951 . S
H641 C660 0.951 . S
H642 C662 0.950 . S
H643 C663 0.950 . S
H644 C665 0.950 . S
H645 C668 0.950 . S
H646 C669 0.950 . S
H647 C671 0.950 . S
H648 C672 0.950 . S
H649 C673 0.951 . S
H650 C675 0.951 . S
H651 C677 0.950 . S
H652 C678 0.950 . S
H653 C680 0.950 . S
H654 C683 0.950 . S
H655 C684 0.950 . S
H656 C686 0.950 . S
H657 C687 0.950 . S
C658 H640 0.951 . S
C658 C659 1.366 . S
C658 C660 1.388 . S
C659 C658 1.366 . S
C659 C663 1.385 . S
C660 H641 0.951 . S
C660 C658 1.388 . S
C660 C661 1.366 . S
C661 C660 1.366 . S
C661 C662 1.414 . S
C661 C664 1.499 . S
C662 H642 0.950 . S
C662 C661 1.414 . S
C662 C663 1.374 . S
C663 H643 0.950 . S
C663 C659 1.385 . S
C663 C662 1.374 . S
C664 C661 1.499 . S
C664 C665 1.373 . S
C664 C666 1.389 . S
C665 H644 0.950 . S
C665 C664 1.373 . S
C665 C681 1.377 . S
C666 C664 1.389 . S
C666 C667 1.524 . S
C666 C680 1.377 . S
C667 C666 1.524 . S
C667 C668 1.397 . S
C667 C672 1.363 . S
C668 H645 0.950 . S
C668 C667 1.397 . S
C668 C669 1.334 . S
C669 H646 0.950 . S
C669 C668 1.334 . S
C669 C670 1.287 . S
C670 C669 1.287 . S
C670 C671 1.524 . S
C670 H689 0.913 . S
C671 H647 0.950 . S
C671 C670 1.524 . S
C671 C672 1.415 . S
C672 H648 0.950 . S
C672 C667 1.363 . S
C672 C671 1.415 . S
C673 H649 0.951 . S
C673 C674 1.366 . S
C673 C675 1.388 . S
C674 C673 1.366 . S
C674 C678 1.385 . S
C675 H650 0.951 . S
C675 C673 1.388 . S
C675 C676 1.366 . S
C676 C675 1.366 . S
C676 C677 1.414 . S
C676 C679 1.499 . S
C677 H651 0.950 . S
C677 C676 1.414 . S
C677 C678 1.374 . S
C678 H652 0.950 . S
C678 C674 1.385 . S
C678 C677 1.374 . S
C679 C676 1.499 . S
C679 C680 1.373 . S
C679 C681 1.389 . S
C680 H653 0.950 . S
C680 C666 1.377 . S
C680 C679 1.373 . S
C681 C665 1.377 . S
C681 C679 1.389 . S
C681 C682 1.524 . S
C682 C681 1.524 . S
C682 C683 1.397 . S
C682 C687 1.363 . S
C683 H654 0.950 . S
C683 C682 1.397 . S
C683 C684 1.334 . S
C684 H655 0.950 . S
C684 C683 1.334 . S
C684 C685 1.287 . S
C685 C684 1.287 . S
C685 C686 1.524 . S
C685 H688 0.999 . S
C686 H656 0.950 . S
C686 C685 1.524 . S
C686 C687 1.415 . S
C687 H657 0.950 . S
C687 C682 1.363 . S
C687 C686 1.415 . S
H688 C685 0.999 . S
H689 C670 0.913 . S
C124 C85 1.521 . S
C109 C21 1.519 . S
C159 C19 1.379 1_556 S
C174 N72 1.359 . S
C209 C18 1.345 . S
C224 N83 1.336 . S
C259 C20 1.500 . S
C274 C74 1.506 . S
C309 C44 1.518 . S
C324 C63 1.521 . S
C359 C42 1.379 . S
C374 N50 1.359 . S
C424 N61 1.336 . S
C409 C41 1.344 . S
C474 C52 1.506 . S
C459 C43 1.501 . S
C509 C16 1.527 . S
C524 C55 1.521 . S
C559 C17 1.486 . S
C574 C66 1.480 . S
C624 C77 1.520 . S
C609 C39 1.526 . S
C659 C40 1.486 . S
C674 C88 1.479 . S
