# Generated by pormake.
# Topology anh, (6,3)-cn, num edge types: 1
# Building blocks:
#     Node 0, Type 0, BuildingBlock: CUKXOW_clean_sbu_0, # of connection points: 6
#     Node 1, Type 0, BuildingBlock: CUKXOW_clean_sbu_0, # of connection points: 6
#     Node 2, Type 0, BuildingBlock: CUKXOW_clean_sbu_0, # of connection points: 6
#     Node 3, Type 1, BuildingBlock: VETTIZ_charged_linker_0, # of connection points: 3
#     Node 4, Type 1, BuildingBlock: VETTIZ_charged_linker_0, # of connection points: 3
#     Node 5, Type 1, BuildingBlock: VETTIZ_charged_linker_0, # of connection points: 3
#     Node 6, Type 1, BuildingBlock: VETTIZ_charged_linker_0, # of connection points: 3
#     Node 7, Type 1, BuildingBlock: VETTIZ_charged_linker_0, # of connection points: 3
#     Node 8, Type 1, BuildingBlock: VETTIZ_charged_linker_0, # of connection points: 3
#     Edge 9, Type (0, 1), BuildingBlock: MIFKUJ_clean_linker_0, # of connection points: 2
#     Edge 10, Type (0, 1), BuildingBlock: MIFKUJ_clean_linker_0, # of connection points: 2
#     Edge 11, Type (0, 1), BuildingBlock: MIFKUJ_clean_linker_0, # of connection points: 2
#     Edge 12, Type (0, 1), BuildingBlock: MIFKUJ_clean_linker_0, # of connection points: 2
#     Edge 13, Type (0, 1), BuildingBlock: MIFKUJ_clean_linker_0, # of connection points: 2
#     Edge 14, Type (0, 1), BuildingBlock: MIFKUJ_clean_linker_0, # of connection points: 2
#     Edge 15, Type (0, 1), BuildingBlock: MIFKUJ_clean_linker_0, # of connection points: 2
#     Edge 16, Type (0, 1), BuildingBlock: MIFKUJ_clean_linker_0, # of connection points: 2
#     Edge 17, Type (0, 1), BuildingBlock: MIFKUJ_clean_linker_0, # of connection points: 2
#     Edge 18, Type (0, 1), BuildingBlock: MIFKUJ_clean_linker_0, # of connection points: 2
#     Edge 19, Type (0, 1), BuildingBlock: MIFKUJ_clean_linker_0, # of connection points: 2
#     Edge 20, Type (0, 1), BuildingBlock: MIFKUJ_clean_linker_0, # of connection points: 2
#     Edge 21, Type (0, 1), BuildingBlock: MIFKUJ_clean_linker_0, # of connection points: 2
#     Edge 22, Type (0, 1), BuildingBlock: MIFKUJ_clean_linker_0, # of connection points: 2
#     Edge 23, Type (0, 1), BuildingBlock: MIFKUJ_clean_linker_0, # of connection points: 2
#     Edge 24, Type (0, 1), BuildingBlock: MIFKUJ_clean_linker_0, # of connection points: 2
#     Edge 25, Type (0, 1), BuildingBlock: MIFKUJ_clean_linker_0, # of connection points: 2
#     Edge 26, Type (0, 1), BuildingBlock: MIFKUJ_clean_linker_0, # of connection points: 2
# Relax obj value: 0.136
# Max RMSD: 0.196
# Mean RMSD: 0.141
data_MOF--net-anh--node1-CUKXOW_clean_sbu_0--node2-VETTIZ_charged_linker_0--edge1-MIFKUJ_clean_linker_0
_symmetry_space_group_name_H-M    P1
_symmetry_Int_Tables_number       1
_symmetry_cell_setting            triclinic
loop_
_symmetry_equiv_pos_as_xyz
'x, y, z'
_cell_length_a     43.408492
_cell_length_b     42.320284
_cell_length_c     81.25441
_cell_angle_alpha  95.535768
_cell_angle_beta   90.180089
_cell_angle_gamma 115.99743
loop_
_atom_site_label
_atom_site_type_symbol
_atom_site_fract_x
_atom_site_fract_y
_atom_site_fract_z
_atom_type_partial_charge
Tb0 Tb 0.07667 0.52232 0.15419 0.0
C1 C 0.05167 0.48364 0.18636 0.0
Tb2 Tb 0.0248 0.4414 0.15083 0.0
O3 O 0.0362 0.53475 0.14454 0.0
O4 O 0.02316 0.49068 0.15707 0.0
O5 O 0.07623 0.51037 0.17972 0.0
C6 C 0.96506 0.38364 0.14882 0.0
O7 O 0.02683 0.45629 0.1774 0.0
C8 C 0.09014 0.45146 0.15057 0.0
C9 C 0.05433 0.47928 0.11896 0.0
O10 O 0.99173 0.38912 0.15812 0.0
O11 O 0.97231 0.4104 0.1404 0.0
O12 O 0.06381 0.42044 0.1485 0.0
O13 O 0.07764 0.47327 0.15229 0.0
O14 O 0.02822 0.45331 0.12515 0.0
O15 O 0.07855 0.50645 0.12818 0.0
C16 C 0.13243 0.58436 0.15812 0.0
O17 O 0.13013 0.55593 0.14949 0.0
O18 O 0.10325 0.5779 0.16468 0.0
C19 C 1.01071 0.50661 0.14887 0.0
Tb20 Tb 0.50814 0.00838 0.50422 0.0
C21 C 0.53946 0.0363 0.4709 0.0
Tb22 Tb 0.58188 0.06508 0.50583 0.0
O23 O 0.48939 0.04617 0.49788 0.0
O24 O 0.5343 0.06306 0.51276 0.0
O25 O 0.51354 0.0115 0.47779 0.0
C26 C 0.63572 0.12726 0.50395 0.0
O27 O 0.56768 0.0598 0.47947 0.0
C28 C 0.57514 1.00017 0.50415 0.0
C29 C 0.55114 0.03571 0.53852 0.0
O30 O 0.63721 0.09971 0.50893 0.0
O31 O 0.60417 0.11963 0.49995 0.0
O32 O 0.60199 0.02754 0.51087 0.0
O33 O 0.55583 0.01058 0.49716 0.0
O34 O 0.57275 0.06443 0.53206 0.0
O35 O 0.52665 0.00862 0.52934 0.0
C36 C 0.451 0.94889 0.50576 0.0
O37 O 0.45606 0.97989 0.51258 0.0
O38 O 0.47791 0.95149 0.49802 0.0
C39 C 0.51562 0.0734 0.50513 0.0
Tb40 Tb 0.52252 0.5215 0.83086 0.0
C41 C 0.55782 0.51382 0.86287 0.0
Tb42 Tb 0.59618 0.53175 0.82972 0.0
O43 O 0.5006 0.46493 0.83319 0.0
O44 O 0.54715 0.48997 0.82199 0.0
O45 O 0.53381 0.52174 0.85698 0.0
C46 C 0.65618 0.52889 0.82879 0.0
O47 O 0.58245 0.51211 0.85376 0.0
C48 C 0.58892 0.59073 0.83233 0.0
C49 C 0.56176 0.53852 0.79766 0.0
O50 O 0.64842 0.54834 0.83971 0.0
O51 O 0.63003 0.51071 0.81857 0.0
O52 O 0.6145 0.58748 0.82557 0.0
O53 O 0.57105 0.56283 0.83874 0.0
O54 O 0.5848 0.52941 0.80356 0.0
O55 O 0.53808 0.54177 0.80697 0.0
C56 C 0.46763 0.53405 0.82998 0.0
O57 O 0.47847 0.52101 0.81749 0.0
O58 O 0.48705 0.53901 0.84303 0.0
C59 C 0.52739 0.46177 0.82783 0.0
C60 C 0.61749 0.10271 0.19078 0.0
C61 C 0.64672 0.1309 0.19886 0.0
C62 C 0.64807 0.13786 0.21621 0.0
C63 C 0.5921 0.0886 0.21733 0.0
C64 C 0.59062 0.08169 0.20028 0.0
C65 C 0.55838 0.04932 0.19398 0.0
H66 H 0.40795 0.91451 0.21164 0.0
C67 C 0.56067 0.06167 0.22363 0.0
C68 C 0.54071 0.0384 0.21004 0.0
H69 H 0.4503 0.93411 0.16357 0.0
H70 H 0.49971 0.98633 0.17599 0.0
H71 H 0.47466 0.92707 0.22985 0.0
H72 H 0.42721 0.99608 0.22485 0.0
H73 H 0.44238 1.00317 0.2456 0.0
H74 H 0.41079 0.95984 0.23726 0.0
H75 H 0.43969 0.92507 0.2421 0.0
H76 H 0.48377 0.9538 0.24878 0.0
C77 C 0.56883 0.02127 0.18559 0.0
C78 C 0.53758 0.06066 0.18242 0.0
C79 C 0.54338 0.06511 0.2856 0.0
C80 C 0.51742 0.04278 0.29519 0.0
C81 C 0.48872 0.01383 0.28705 0.0
C82 C 0.48599 0.00709 0.26978 0.0
C83 C 0.51235 0.02926 0.26041 0.0
C84 C 0.54038 0.05776 0.26832 0.0
C85 C 0.56626 0.07785 0.25632 0.0
C86 C 0.54911 0.05656 0.23994 0.0
C87 C 0.51758 0.02827 0.24246 0.0
C88 C 0.60033 0.07595 0.26039 0.0
C89 C 0.56915 0.11581 0.25747 0.0
C90 C 0.42757 0.93031 0.20371 0.0
C91 C 0.42506 0.92049 0.18659 0.0
C92 C 0.45171 0.94122 0.17681 0.0
C93 C 0.48029 0.97149 0.18405 0.0
C94 C 0.48239 0.98082 0.20127 0.0
C95 C 0.45622 0.96017 0.21074 0.0
C96 C 0.4629 0.97281 0.22885 0.0
C97 C 0.49734 1.00472 0.22881 0.0
C98 C 0.50875 0.00957 0.21266 0.0
C99 C 0.46518 0.94327 0.238 0.0
C100 C 0.43434 0.98337 0.2346 0.0
H101 H 0.62363 0.12374 0.23861 0.0
H102 H 0.61603 0.0966 0.17746 0.0
H103 H 0.53745 0.08579 0.1878 0.0
H104 H 0.51036 0.04129 0.1806 0.0
H105 H 0.54896 0.06504 0.17012 0.0
H106 H 0.59175 0.02219 0.19219 0.0
H107 H 0.57528 0.02588 0.17254 0.0
H108 H 0.54882 0.99394 0.1859 0.0
H109 H 0.56569 0.08772 0.29138 0.0
H110 H 0.46864 0.99568 0.29404 0.0
H111 H 0.46362 0.98449 0.26443 0.0
H112 H 0.59542 0.0509 0.26561 0.0
H113 H 0.61692 0.09819 0.26962 0.0
H114 H 0.61497 0.07573 0.24931 0.0
H115 H 0.54357 0.11545 0.25917 0.0
H116 H 0.57821 0.12872 0.2461 0.0
H117 H 0.5864 0.13275 0.26816 0.0
H118 H 0.67026 0.1596 0.22263 0.0
C119 C 0.62092 0.11703 0.22546 0.0
C120 C 0.55082 0.63126 0.51782 0.0
C121 C 0.5529 0.66323 0.52595 0.0
C122 C 0.55298 0.66745 0.54333 0.0
C123 C 0.55125 0.60988 0.54453 0.0
C124 C 0.55027 0.60491 0.52743 0.0
C125 C 0.54967 0.5696 0.52135 0.0
H126 H 0.56122 0.42204 0.54222 0.0
C127 C 0.55229 0.57909 0.55109 0.0
C128 C 0.55152 0.5551 0.53764 0.0
H129 H 0.54795 0.44461 0.49274 0.0
H130 H 0.54648 0.49959 0.50397 0.0
H131 H 0.61497 0.4987 0.5561 0.0
H132 H 0.50549 0.44166 0.5572 0.0
H133 H 0.519 0.46679 0.57655 0.0
H134 H 0.53407 0.43403 0.57047 0.0
H135 H 0.59432 0.46439 0.56925 0.0
H136 H 0.60455 0.50994 0.57594 0.0
C137 C 0.58161 0.57644 0.51123 0.0
C138 C 0.5154 0.54668 0.51141 0.0
C139 C 0.56164 0.5786 0.6135 0.0
C140 C 0.56508 0.55478 0.62342 0.0
C141 C 0.56588 0.52386 0.61576 0.0
C142 C 0.5634 0.51677 0.59851 0.0
C143 C 0.56012 0.54085 0.58872 0.0
C144 C 0.55932 0.57114 0.59624 0.0
C145 C 0.55634 0.59393 0.58383 0.0
C146 C 0.55507 0.57205 0.56763 0.0
C147 C 0.55726 0.54111 0.57061 0.0
C148 C 0.5891 0.62982 0.58605 0.0
C149 C 0.52218 0.59672 0.58641 0.0
C150 C 0.55846 0.43896 0.53372 0.0
C151 C 0.55544 0.42937 0.5166 0.0
C152 C 0.55064 0.45162 0.50602 0.0
C153 C 0.54985 0.48348 0.51255 0.0
C154 C 0.55346 0.49283 0.52984 0.0
C155 C 0.55726 0.47021 0.53999 0.0
C156 C 0.55937 0.48265 0.55799 0.0
C157 C 0.55659 0.51681 0.5572 0.0
C158 C 0.5534 0.52326 0.54073 0.0
C159 C 0.59495 0.4891 0.56536 0.0
C160 C 0.52812 0.45493 0.56612 0.0
H161 H 0.55248 0.64635 0.56578 0.0
H162 H 0.55067 0.62739 0.50445 0.0
H163 H 0.49374 0.54897 0.51782 0.0
H164 H 0.50901 0.51828 0.51013 0.0
H165 H 0.51592 0.55527 0.49887 0.0
H166 H 0.60497 0.59769 0.51795 0.0
H167 H 0.57884 0.58495 0.49902 0.0
H168 H 0.58663 0.55304 0.50912 0.0
H169 H 0.56127 0.60276 0.61902 0.0
H170 H 0.56798 0.50482 0.62313 0.0
H171 H 0.56415 0.49274 0.59351 0.0
H172 H 0.61141 0.62685 0.59113 0.0
H173 H 0.58522 0.6496 0.59469 0.0
H174 H 0.5977 0.64094 0.5742 0.0
H175 H 0.50176 0.57138 0.58982 0.0
H176 H 0.51165 0.60168 0.57507 0.0
H177 H 0.52531 0.61771 0.5965 0.0
H178 H 0.55411 0.6916 0.5498 0.0
C179 C 0.55204 0.64107 0.55261 0.0
C180 C 0.20813 0.66348 0.85985 0.0
C181 C 0.23835 0.66494 0.86696 0.0
C182 C 0.2381 0.6562 0.88334 0.0
C183 C 0.17705 0.63855 0.8838 0.0
C184 C 0.17775 0.64928 0.86821 0.0
C185 C 0.14247 0.6392 0.86089 0.0
H186 H 0.97089 0.56007 0.8675 0.0
C187 C 0.14081 0.6199 0.88795 0.0
C188 C 0.12048 0.61989 0.87448 0.0
H189 H 0.02734 0.61365 0.82693 0.0
H190 H 0.08088 0.62479 0.84108 0.0
H191 H 1.01252 0.51673 0.87202 0.0
H192 H 0.02176 0.61487 0.89708 0.0
H193 H 0.02419 0.58867 0.91213 0.0
H194 H 0.98611 0.57271 0.89878 0.0
H195 H 0.98585 0.51773 0.88867 0.0
H196 H 0.02709 0.51809 0.89236 0.0
C197 C 0.13669 0.61427 0.84465 0.0
C198 C 0.13949 0.67369 0.85866 0.0
C199 C 0.10982 0.56801 0.94291 0.0
C200 C 0.07821 0.547 0.94951 0.0
C201 C 0.04769 0.53669 0.93976 0.0
C202 C 0.04848 0.54788 0.92406 0.0
C203 C 0.08012 0.56934 0.91783 0.0
C204 C 0.11016 0.57853 0.92705 0.0
C205 C 0.14148 0.59936 0.91782 0.0
C206 C 0.12507 0.60226 0.90184 0.0
C207 C 0.08917 0.58479 0.90201 0.0
C208 C 0.16202 0.57732 0.91489 0.0
C209 C 0.16187 0.63596 0.92781 0.0
C210 C 0.99491 0.57406 0.86171 0.0
C211 C 0.99536 0.58633 0.84624 0.0
C212 C 0.02674 0.60401 0.83886 0.0
C213 C 0.05765 0.6106 0.84715 0.0
C214 C 0.05693 0.59892 0.86286 0.0
C215 C 0.02586 0.58047 0.86974 0.0
C216 C 0.02988 0.56945 0.88633 0.0
C217 C 0.06864 0.58515 0.88849 0.0
C218 C 0.08426 0.60247 0.87477 0.0
C219 C 1.01284 0.52843 0.88493 0.0
C220 C 1.01458 0.58705 0.89935 0.0
H221 H 0.20887 0.63592 0.90398 0.0
H222 H 0.20737 0.67047 0.84743 0.0
H223 H 0.15236 0.69403 0.86935 0.0
H224 H 0.11271 0.67006 0.8582 0.0
H225 H 0.15187 0.68495 0.84728 0.0
H226 H 0.15159 0.59863 0.84519 0.0
H227 H 0.14485 0.62947 0.83377 0.0
H228 H 0.10979 0.5941 0.84237 0.0
H229 H 0.13385 0.5765 0.94993 0.0
H230 H 0.02301 0.51965 0.94418 0.0
H231 H 0.02434 0.5393 0.91739 0.0
H232 H 0.14518 0.54851 0.91484 0.0
H233 H 0.18261 0.58488 0.9247 0.0
H234 H 0.17343 0.57977 0.90264 0.0
H235 H 0.14423 0.64729 0.93228 0.0
H236 H 0.18047 0.65558 0.92038 0.0
H237 H 0.17585 0.63381 0.9388 0.0
H238 H 0.26073 0.6567 0.88922 0.0
C239 C 0.20768 0.64335 0.89183 0.0
C240 C 0.9407 0.46472 0.46572 0.0
C241 C 0.91121 0.43772 0.45732 0.0
C242 C 0.90748 0.43541 0.43998 0.0
C243 C 0.9626 0.48608 0.43948 0.0
C244 C 0.96584 0.48888 0.45656 0.0
C245 C 0.9983 0.52014 0.46342 0.0
H246 H 0.1496 0.65571 0.44887 0.0
C247 C 0.99316 0.5149 0.43366 0.0
C248 C 1.01396 0.53539 0.44762 0.0
H249 H 0.10941 0.62447 0.4963 0.0
H250 H 0.05678 0.57879 0.48261 0.0
H251 H 0.12275 0.57583 0.42976 0.0
H252 H 0.08361 0.6535 0.43353 0.0
H253 H 0.06943 0.63 0.41382 0.0
H254 H 0.11492 0.65501 0.41889 0.0
H255 H 0.1431 0.6179 0.42171 0.0
H256 H 0.11034 0.58015 0.40976 0.0
C257 C 0.02048 0.50612 0.47244 0.0
C258 C 0.98843 0.54579 0.47456 0.0
C259 C 1.01213 0.5177 0.37204 0.0
C260 C 0.03778 0.54158 0.36282 0.0
C261 C 0.06363 0.57271 0.37132 0.0
C262 C 0.06488 0.57903 0.38859 0.0
C263 C 0.03988 0.55421 0.39759 0.0
C264 C 1.01344 0.52478 0.38928 0.0
C265 C 0.98764 0.5028 0.40084 0.0
C266 C 1.00393 0.52314 0.4175 0.0
C267 C 0.03479 0.55281 0.41549 0.0
C268 C 0.98623 0.46542 0.39898 0.0
C269 C 0.95285 0.50332 0.39691 0.0
C270 C 0.12953 0.63878 0.45629 0.0
C271 C 0.13368 0.64302 0.47361 0.0
C272 C 0.10669 0.62136 0.48291 0.0
C273 C 0.07632 0.59487 0.47493 0.0
C274 C 0.07297 0.59033 0.45751 0.0
C275 C 0.09916 0.61254 0.44854 0.0
C276 C 0.09109 0.60473 0.4302 0.0
C277 C 0.05589 0.57361 0.42955 0.0
C278 C 0.04548 0.56507 0.44554 0.0
C279 C 0.1182 0.59424 0.4223 0.0
C280 C 0.08987 0.63744 0.42365 0.0
H281 H 0.92895 0.456 0.41782 0.0
H282 H 0.94388 0.46717 0.47908 0.0
H283 H 0.96387 0.5449 0.46993 0.0
H284 H 1.00734 0.57375 0.47462 0.0
H285 H 0.98512 0.53882 0.48748 0.0
H286 H 0.01997 0.48222 0.46516 0.0
H287 H 1.01068 0.49865 0.48479 0.0
H288 H 0.04781 0.52519 0.47403 0.0
H289 H 0.99173 0.49355 0.36609 0.0
H290 H 0.08303 0.59239 0.36466 0.0
H291 H 0.08546 0.60291 0.39429 0.0
H292 H 1.0126 0.46727 0.39882 0.0
H293 H 0.97222 0.45008 0.38722 0.0
H294 H 0.974 0.44995 0.40928 0.0
H295 H 0.95631 0.52657 0.39043 0.0
H296 H 0.93968 0.50588 0.40826 0.0
H297 H 0.93542 0.47923 0.38883 0.0
H298 H 0.88496 0.41457 0.43333 0.0
C299 C 0.93306 0.45938 0.43101 0.0
C300 C 0.55622 0.93402 0.81655 0.0
C301 C 0.55897 0.90483 0.80795 0.0
C302 C 0.56119 0.90307 0.79066 0.0
C303 C 0.55956 0.95948 0.79062 0.0
C304 C 0.55686 0.9613 0.80761 0.0
C305 C 0.55582 0.9954 0.81446 0.0
H306 H 0.57175 0.15798 0.7991 0.0
C307 C 0.56133 0.99229 0.78496 0.0
C308 C 0.55951 0.01393 0.79884 0.0
H309 H 0.55018 0.11426 0.84585 0.0
H310 H 0.55052 0.05969 0.83312 0.0
H311 H 0.62605 0.12918 0.78713 0.0
H312 H 0.51739 0.09167 0.77913 0.0
H313 H 0.53117 0.07917 0.76046 0.0
H314 H 0.54765 0.1255 0.76793 0.0
H315 H 0.60731 0.14908 0.77431 0.0
H316 H 0.61638 0.11308 0.76608 0.0
C317 C 0.5866 0.01599 0.82701 0.0
C318 C 0.52061 0.98605 0.82196 0.0
C319 C 0.57182 0.0082 0.72359 0.0
C320 C 0.57533 0.03629 0.7146 0.0
C321 C 0.57746 0.06777 0.72322 0.0
C322 C 0.57573 0.07113 0.74045 0.0
C323 C 0.57174 0.04269 0.74925 0.0
C324 C 0.57017 0.01203 0.74085 0.0
C325 C 0.56665 0.98494 0.75233 0.0
C326 C 0.56533 1.00408 0.76896 0.0
C327 C 0.56829 0.03776 0.76703 0.0
C328 C 0.59912 0.97835 0.75128 0.0
C329 C 0.53238 0.95168 0.74749 0.0
C330 C 0.56757 0.13682 0.80666 0.0
C331 C 0.56163 0.14045 0.82348 0.0
C332 C 0.55517 0.11199 0.83285 0.0
C333 C 0.55535 0.08046 0.82543 0.0
C334 C 0.56146 0.0773 0.80845 0.0
C335 C 0.56695 0.10526 0.79942 0.0
C336 C 0.57048 0.09718 0.7814 0.0
C337 C 0.56694 0.05994 0.78094 0.0
C338 C 0.56208 0.04817 0.7968 0.0
C339 C 0.60678 0.12351 0.77683 0.0
C340 C 0.54039 0.09862 0.7716 0.0
H341 H 0.56327 0.92695 0.76884 0.0
H342 H 0.55458 0.93595 0.82988 0.0
H343 H 0.49976 0.96432 0.81396 0.0
H344 H 0.51373 0.00832 0.82288 0.0
H345 H 0.52004 0.97713 0.83442 0.0
H346 H 0.61054 0.01672 0.82179 0.0
H347 H 0.58251 1.00318 0.83864 0.0
H348 H 0.59152 0.04377 0.83014 0.0
H349 H 0.57056 0.98383 0.71735 0.0
H350 H 0.57973 0.08965 0.71659 0.0
H351 H 0.57731 0.09572 0.74619 0.0
H352 H 0.62145 1.00141 0.74718 0.0
H353 H 0.59468 0.955 0.74236 0.0
H354 H 0.60799 0.9748 0.76345 0.0
H355 H 0.51183 0.95935 0.74427 0.0
H356 H 0.52244 0.93495 0.75767 0.0
H357 H 0.53508 0.93535 0.73656 0.0
H358 H 0.56312 0.88075 0.78384 0.0
C359 C 0.56136 0.93002 0.78198 0.0
C360 C 0.64059 0.48308 0.14297 0.0
C361 C 0.6693 0.48245 0.13474 0.0
C362 C 0.66851 0.47984 0.1174 0.0
C363 C 0.61265 0.47976 0.11634 0.0
C364 C 0.61227 0.48165 0.13341 0.0
C365 C 0.57905 0.48238 0.13929 0.0
H366 H 0.42251 0.47596 0.11488 0.0
C367 C 0.58082 0.47957 0.10967 0.0
C368 C 0.56025 0.48085 0.12292 0.0
H369 H 0.45755 0.48336 0.1654 0.0
H370 H 0.51181 0.48461 0.15584 0.0
H371 H 0.49028 0.5343 0.1048 0.0
H372 H 0.44754 0.42113 0.09942 0.0
H373 H 0.46599 0.4344 0.08059 0.0
H374 H 0.43212 0.44536 0.08754 0.0
H375 H 0.45871 0.50768 0.08869 0.0
H376 H 0.50411 0.52355 0.08577 0.0
C377 C 0.58814 0.51725 0.15032 0.0
C378 C 0.55901 0.44955 0.14834 0.0
C379 C 0.56696 0.47841 0.04737 0.0
C380 C 0.54129 0.47932 0.03708 0.0
C381 C 0.51196 0.47972 0.04432 0.0
C382 C 0.50826 0.47921 0.06141 0.0
C383 C 0.53426 0.47859 0.07155 0.0
C384 C 0.56294 0.47821 0.06447 0.0
C385 C 0.58813 0.47811 0.07714 0.0
C386 C 0.56996 0.47883 0.09307 0.0
C387 C 0.53846 0.47891 0.08968 0.0
C388 C 0.622 0.51241 0.07652 0.0
C389 C 0.5915 0.44308 0.07341 0.0
C390 C 0.4416 0.47758 0.12399 0.0
C391 C 0.43533 0.47898 0.14085 0.0
C392 C 0.46156 0.48206 0.15226 0.0
C393 C 0.49293 0.48263 0.1467 0.0
C394 C 0.49839 0.48065 0.12957 0.0
C395 C 0.47271 0.47869 0.11873 0.0
C396 C 0.48203 0.47841 0.10109 0.0
C397 C 0.5171 0.47941 0.10274 0.0
C398 C 0.52743 0.48061 0.11941 0.0
C399 C 0.4837 0.51249 0.0946 0.0
C400 C 0.45557 0.44322 0.09152 0.0
H401 H 0.64245 0.47671 0.09511 0.0
H402 H 0.64045 0.48505 0.15635 0.0
H403 H 0.55566 0.42514 0.14048 0.0
H404 H 0.53314 0.44661 0.15125 0.0
H405 H 0.57298 0.45109 0.1601 0.0
H406 H 0.60559 0.54016 0.14396 0.0
H407 H 0.60128 0.51774 0.16217 0.0
H408 H 0.56519 0.52126 0.1532 0.0
H409 H 0.58969 0.4777 0.04226 0.0
H410 H 0.49201 0.48106 0.0368 0.0
H411 H 0.48526 0.47949 0.06601 0.0
H412 H 0.61677 0.53454 0.07316 0.0
H413 H 0.63893 0.50844 0.06716 0.0
H414 H 0.63642 0.52246 0.08861 0.0
H415 H 0.5675 0.42155 0.0673 0.0
H416 H 0.59549 0.43253 0.08475 0.0
H417 H 0.61264 0.44639 0.06504 0.0
H418 H 0.68994 0.47914 0.11082 0.0
C419 C 0.64068 0.47844 0.10825 0.0
H420 H 0.14822 0.51159 0.16273 0.0
H421 H 0.20796 0.51996 0.16361 0.0
H422 H 0.17495 0.41446 0.13908 0.0
H423 H 0.11556 0.40596 0.13863 0.0
H424 H 0.2183 0.4225 0.16191 0.0
H425 H 0.22019 0.49564 0.11984 0.0
H426 H 0.21161 0.5433 0.10844 0.0
H427 H 0.28371 0.61966 0.14527 0.0
H428 H 0.29237 0.57236 0.15713 0.0
H429 H 0.37205 0.42769 0.13007 0.0
H430 H 0.31604 0.42703 0.13423 0.0
H431 H 0.36416 0.52522 0.16597 0.0
H432 H 0.42076 0.52582 0.16182 0.0
H433 H 0.31588 0.52563 0.14267 0.0
H434 H 0.31706 0.45032 0.18274 0.0
H435 H 0.3247 0.40105 0.19292 0.0
H436 H 0.24551 0.32702 0.15807 0.0
H437 H 0.23773 0.3759 0.14751 0.0
C438 C 0.15385 0.49047 0.15729 0.0
C439 C 0.12704 0.45828 0.1504 0.0
C440 C 0.18815 0.4952 0.15781 0.0
C441 C 0.19662 0.46801 0.15125 0.0
C442 C 0.16964 0.43598 0.14431 0.0
C443 C 0.13549 0.43116 0.14397 0.0
C444 C 0.23307 0.47208 0.15183 0.0
C445 C 0.23943 0.44498 0.15752 0.0
C446 C 0.2614 0.50178 0.14661 0.0
C447 C 0.25668 0.5304 0.13945 0.0
C448 C 0.23408 0.52257 0.12558 0.0
C449 C 0.22921 0.54952 0.11904 0.0
C450 C 0.24708 0.58447 0.12617 0.0
C451 C 0.26989 0.59255 0.13983 0.0
C452 C 0.2748 0.5657 0.14645 0.0
C453 C 0.37073 0.44887 0.13819 0.0
C454 C 0.40101 0.47659 0.14576 0.0
C455 C 0.33856 0.44853 0.14053 0.0
C456 C 0.33545 0.47602 0.15046 0.0
C457 C 0.36562 0.50364 0.15824 0.0
C458 C 0.39798 0.50377 0.15603 0.0
C459 C 0.30068 0.47562 0.15237 0.0
C460 C 0.2947 0.50337 0.14718 0.0
C461 C 0.27252 0.44633 0.15787 0.0
C462 C 0.27699 0.41683 0.16425 0.0
C463 C 0.30144 0.42356 0.17717 0.0
C464 C 0.30577 0.3957 0.18302 0.0
C465 C 0.28565 0.36093 0.17613 0.0
C466 C 0.2611 0.35396 0.16339 0.0
C467 C 0.25668 0.38173 0.15748 0.0
H468 H 0.28904 0.33939 0.18068 0.0
H469 H 0.24328 0.60531 0.1211 0.0
H470 H 0.70362 0.14659 0.51088 0.0
H471 H 0.75228 0.20287 0.50636 0.0
H472 H 0.68202 0.24093 0.48892 0.0
H473 H 0.63354 0.18495 0.49335 0.0
H474 H 0.73262 0.24772 0.46753 0.0
H475 H 0.7235 0.27324 0.52604 0.0
H476 H 0.72164 0.26196 0.55532 0.0
H477 H 0.82235 0.26653 0.55358 0.0
H478 H 0.82462 0.27735 0.52421 0.0
H479 H 0.84334 0.42109 0.45673 0.0
H480 H 0.79771 0.37151 0.46844 0.0
H481 H 0.8732 0.34393 0.48918 0.0
H482 H 0.91907 0.39454 0.47797 0.0
H483 H 0.82172 0.33087 0.50947 0.0
H484 H 0.83187 0.30404 0.45179 0.0
H485 H 0.8351 0.31341 0.42224 0.0
H486 H 0.73389 0.30778 0.42186 0.0
H487 H 0.73029 0.29897 0.4515 0.0
C488 C 0.69868 0.16716 0.50623 0.0
C489 C 0.66501 0.16152 0.50235 0.0
C490 C 0.72639 0.19926 0.50373 0.0
C491 C 0.72065 0.22601 0.49736 0.0
C492 C 0.68693 0.22057 0.49383 0.0
C493 C 0.65932 0.18863 0.49636 0.0
C494 C 0.74967 0.25881 0.49326 0.0
C495 C 0.75183 0.26618 0.47674 0.0
C496 C 0.77536 0.28206 0.5052 0.0
C497 C 0.77408 0.27576 0.52288 0.0
C498 C 0.74513 0.27155 0.53186 0.0
C499 C 0.74403 0.2653 0.54848 0.0
C500 C 0.77182 0.26344 0.55629 0.0
C501 C 0.80082 0.26793 0.54751 0.0
C502 C 0.80205 0.27416 0.53088 0.0
C503 C 0.85012 0.40477 0.46405 0.0
C504 C 0.88447 0.41118 0.46636 0.0
C505 C 0.82413 0.37646 0.47068 0.0
C506 C 0.83204 0.35353 0.47931 0.0
C507 C 0.86655 0.3612 0.48249 0.0
C508 C 0.89266 0.38999 0.47609 0.0
C509 C 0.8042 0.32015 0.48379 0.0
C510 C 0.80242 0.31249 0.50029 0.0
C511 C 0.77899 0.29621 0.47179 0.0
C512 C 0.78095 0.30118 0.45391 0.0
C513 C 0.8104 0.30504 0.44544 0.0
C514 C 0.81229 0.31024 0.42867 0.0
C515 C 0.78475 0.31127 0.42019 0.0
C516 C 0.75522 0.30703 0.42845 0.0
C517 C 0.75324 0.30192 0.44524 0.0
H518 H 0.78626 0.31529 0.40721 0.0
H519 H 0.77091 0.25859 0.56916 0.0
H520 H 0.63009 0.65304 0.82088 0.0
H521 H 0.62125 0.70636 0.82131 0.0
H522 H 0.5256 0.65441 0.84483 0.0
H523 H 0.53506 0.60127 0.84499 0.0
H524 H 0.52349 0.69126 0.81631 0.0
H525 H 0.58595 0.71233 0.86809 0.0
H526 H 0.63298 0.71589 0.88641 0.0
H527 H 0.7064 0.79583 0.85942 0.0
H528 H 0.65983 0.79236 0.84075 0.0
H529 H 0.50877 0.85391 0.82394 0.0
H530 H 0.50989 0.80018 0.83258 0.0
H531 H 0.61481 0.83738 0.81856 0.0
H532 H 0.61366 0.89071 0.81004 0.0
H533 H 0.6064 0.8056 0.84601 0.0
H534 H 0.54675 0.78283 0.79318 0.0
H535 H 0.50169 0.77809 0.77324 0.0
H536 H 0.42526 0.6993 0.79956 0.0
H537 H 0.46979 0.70468 0.82009 0.0
C538 C 0.60724 0.65298 0.82623 0.0
C539 C 0.58313 0.62284 0.83283 0.0
C540 C 0.60224 0.68349 0.82647 0.0
C541 C 0.57283 0.68443 0.83315 0.0
C542 C 0.54846 0.65425 0.83961 0.0
C543 C 0.55381 0.62386 0.83964 0.0
C544 C 0.56779 0.71702 0.83316 0.0
C545 C 0.54108 0.71617 0.82309 0.0
C546 C 0.59131 0.7496 0.8417 0.0
C547 C 0.61939 0.75188 0.85294 0.0
C548 C 0.61214 0.73046 0.86597 0.0
C549 C 0.63872 0.7325 0.87643 0.0
C550 C 0.67266 0.75602 0.87406 0.0
C551 C 0.68009 0.7776 0.86123 0.0
C552 C 0.65361 0.77564 0.85072 0.0
C553 C 0.53229 0.85094 0.82321 0.0
C554 C 0.56123 0.87644 0.81646 0.0
C555 C 0.53283 0.82014 0.82798 0.0
C556 C 0.56231 0.81446 0.82605 0.0
C557 C 0.59178 0.84105 0.82021 0.0
C558 C 0.59116 0.87156 0.81536 0.0
C559 C 0.56226 0.78014 0.82894 0.0
C560 C 0.58823 0.78065 0.83949 0.0
C561 C 0.53829 0.74732 0.82062 0.0
C562 C 0.51149 0.74478 0.80844 0.0
C563 C 0.52026 0.76504 0.79495 0.0
C564 C 0.49481 0.76222 0.78351 0.0
C565 C 0.46055 0.73871 0.78525 0.0
C566 C 0.45172 0.71787 0.79838 0.0
C567 C 0.47702 0.72089 0.80994 0.0
H568 H 0.4409 0.73643 0.77634 0.0
H569 H 0.6932 0.75757 0.88218 0.0
H570 H 0.98404 0.54809 0.1369 0.0
H571 H 0.92501 0.5412 0.1376 0.0
H572 H 0.89457 0.44498 0.16053 0.0
H573 H 0.9541 0.4525 0.16044 0.0
H574 H 0.84756 0.44268 0.1329 0.0
H575 H 0.90469 0.51282 0.18391 0.0
H576 H 0.95168 0.56325 0.20012 0.0
H577 H 0.9276 0.63573 0.1757 0.0
H578 H 0.88126 0.5858 0.15886 0.0
H579 H 0.68095 0.43026 0.14713 0.0
H580 H 0.7372 0.43132 0.15259 0.0
H581 H 0.78703 0.54133 0.14426 0.0
H582 H 0.73097 0.5403 0.13926 0.0
H583 H 0.82382 0.53305 0.16649 0.0
H584 H 0.77265 0.4702 0.11448 0.0
H585 H 0.72944 0.42446 0.09462 0.0
H586 H 0.74546 0.34387 0.11626 0.0
H587 H 0.7885 0.3891 0.13636 0.0
C588 C 0.96483 0.52535 0.14205 0.0
C589 C 0.97399 0.50076 0.14851 0.0
C590 C 0.93097 0.52145 0.14245 0.0
C591 C 0.90506 0.4926 0.14915 0.0
C592 C 0.91389 0.46743 0.15525 0.0
C593 C 0.94801 0.4717 0.15513 0.0
C594 C 0.86925 0.4896 0.15016 0.0
C595 C 0.84216 0.462 0.1405 0.0
C596 C 0.86227 0.5155 0.1596 0.0
C597 C 0.88964 0.54552 0.17001 0.0
C598 C 0.90957 0.5395 0.18188 0.0
C599 C 0.93608 0.568 0.1912 0.0
C600 C 0.94255 0.60264 0.18899 0.0
C601 C 0.92255 0.60887 0.17741 0.0
C602 C 0.8962 0.58048 0.16795 0.0
C603 C 0.70389 0.45501 0.1472 0.0
C604 C 0.70135 0.48545 0.14319 0.0
C605 C 0.73621 0.45549 0.15 0.0
C606 C 0.7669 0.48625 0.14853 0.0
C607 C 0.76414 0.51716 0.14551 0.0
C608 C 0.73193 0.5167 0.1428 0.0
C609 C 0.80171 0.48609 0.14913 0.0
C610 C 0.82881 0.51326 0.15905 0.0
C611 C 0.80889 0.46035 0.13951 0.0
C612 C 0.78312 0.43303 0.12731 0.0
C613 C 0.76663 0.4427 0.11518 0.0
C614 C 0.74224 0.41685 0.10381 0.0
C615 C 0.73448 0.38124 0.10426 0.0
C616 C 0.75127 0.37144 0.11601 0.0
C617 C 0.77562 0.39718 0.12743 0.0
H618 H 0.71562 0.36127 0.09544 0.0
H619 H 0.96307 0.62465 0.19624 0.0
H620 H 0.43756 0.88433 0.49019 0.0
H621 H 0.38325 0.83076 0.48846 0.0
H622 H 0.33831 0.88586 0.51985 0.0
H623 H 0.39289 0.93975 0.52166 0.0
H624 H 0.318 0.81663 0.52711 0.0
H625 H 0.32311 0.87759 0.47971 0.0
H626 H 0.34931 0.90792 0.45536 0.0
H627 H 0.35249 0.8135 0.43271 0.0
H628 H 0.32675 0.78275 0.45705 0.0
H629 H 0.14328 0.6953 0.49851 0.0
H630 H 0.19797 0.74592 0.50809 0.0
H631 H 0.25199 0.70205 0.47609 0.0
H632 H 0.19763 0.65197 0.46642 0.0
H633 H 0.2661 0.76798 0.47036 0.0
H634 H 0.26018 0.7068 0.51818 0.0
H635 H 0.23356 0.67716 0.54262 0.0
H636 H 0.23033 0.77211 0.56446 0.0
H637 H 0.25651 0.8022 0.54003 0.0
C638 C 0.41618 0.88494 0.49682 0.0
C639 C 0.41913 0.91614 0.5059 0.0
C640 C 0.38523 0.85437 0.49584 0.0
C641 C 0.35673 0.85454 0.50388 0.0
C642 C 0.36006 0.88527 0.51357 0.0
C643 C 0.39109 0.91598 0.51452 0.0
C644 C 0.32299 0.82333 0.50115 0.0
C645 C 0.30634 0.80614 0.51474 0.0
C646 C 0.30807 0.80964 0.48499 0.0
C647 C 0.32327 0.82797 0.47026 0.0
C648 C 0.32962 0.86337 0.46958 0.0
C649 C 0.34436 0.88063 0.45578 0.0
C650 C 0.35263 0.86268 0.44251 0.0
C651 C 0.3461 0.82739 0.44301 0.0
C652 C 0.33141 0.81002 0.4568 0.0
C653 C 0.16698 0.69618 0.49388 0.0
C654 C 0.1664 0.67012 0.48162 0.0
C655 C 0.19814 0.725 0.49934 0.0
C656 C 0.22899 0.72776 0.49273 0.0
C657 C 0.22846 0.70053 0.48126 0.0
C658 C 0.19746 0.672 0.47574 0.0
C659 C 0.26135 0.76049 0.49626 0.0
C660 C 0.27765 0.77829 0.48276 0.0
C661 C 0.27567 0.77467 0.51249 0.0
C662 C 0.25997 0.75663 0.52719 0.0
C663 C 0.25351 0.72127 0.52812 0.0
C664 C 0.23856 0.7044 0.54199 0.0
C665 C 0.23017 0.72271 0.55507 0.0
C666 C 0.2368 0.75795 0.55432 0.0
C667 C 0.25172 0.77493 0.54047 0.0
H668 H 0.2186 0.70961 0.5658 0.0
H669 H 0.36405 0.87609 0.43183 0.0
H670 H 0.47956 0.3972 0.83432 0.0
H671 H 0.48641 0.34315 0.83537 0.0
H672 H 0.59192 0.398 0.82257 0.0
H673 H 0.58429 0.45151 0.82057 0.0
H674 H 0.56506 0.33428 0.80727 0.0
H675 H 0.56463 0.38293 0.86281 0.0
H676 H 0.53983 0.40613 0.8853 0.0
H677 H 0.45434 0.30382 0.88518 0.0
H678 H 0.47746 0.28047 0.86192 0.0
H679 H 0.61468 0.20613 0.82662 0.0
H680 H 0.61092 0.26237 0.83088 0.0
H681 H 0.5028 0.20626 0.8387 0.0
H682 H 0.50685 0.14989 0.83488 0.0
H683 H 0.5325 0.27138 0.8576 0.0
H684 H 0.52962 0.22524 0.80066 0.0
H685 H 0.55212 0.20206 0.77705 0.0
H686 H 0.64414 0.29987 0.78059 0.0
H687 H 0.62248 0.32336 0.80445 0.0
C688 C 0.50417 0.39768 0.8316 0.0
C689 C 0.53163 0.42884 0.82754 0.0
C690 C 0.50812 0.36677 0.83231 0.0
C691 C 0.53997 0.36658 0.82949 0.0
C692 C 0.56715 0.39743 0.82494 0.0
C693 C 0.56291 0.42817 0.82389 0.0
C694 C 0.54503 0.33442 0.83148 0.0
C695 C 0.55841 0.32094 0.8184 0.0
C696 C 0.53577 0.31642 0.8459 0.0
C697 C 0.52268 0.32999 0.86046 0.0
C698 C 0.54041 0.36538 0.86747 0.0
C699 C 0.52658 0.37861 0.88034 0.0
C700 C 0.49566 0.35642 0.88676 0.0
C701 C 0.47833 0.32098 0.88022 0.0
C702 C 0.49167 0.30778 0.8671 0.0
C703 C 0.59043 0.20598 0.82987 0.0
C704 C 0.56108 0.17381 0.8305 0.0
C705 C 0.58821 0.23806 0.83217 0.0
C706 C 0.55641 0.23853 0.83473 0.0
C707 C 0.52759 0.20658 0.83669 0.0
C708 C 0.52991 0.1744 0.83457 0.0
C709 C 0.55253 0.27152 0.83341 0.0
C710 C 0.53934 0.28503 0.84657 0.0
C711 C 0.56195 0.28965 0.81909 0.0
C712 C 0.57455 0.27594 0.80443 0.0
C713 C 0.55472 0.24174 0.79645 0.0
C714 C 0.56733 0.22854 0.78303 0.0
C715 C 0.59956 0.24946 0.77734 0.0
C716 C 0.6192 0.28368 0.78503 0.0
C717 C 0.60677 0.29695 0.7985 0.0
H718 H 0.6093 0.23919 0.76697 0.0
H719 H 0.48511 0.3667 0.89679 0.0
H720 H 0.52731 0.9416 0.48526 0.0
H721 H 0.52014 0.88051 0.48412 0.0
H722 H 0.60758 0.91513 0.51843 0.0
H723 H 0.61402 0.97576 0.52006 0.0
H724 H 0.60892 0.87058 0.49067 0.0
H725 H 0.53005 0.87653 0.53147 0.0
H726 H 0.4806 0.88561 0.54137 0.0
H727 H 0.41362 0.80162 0.50559 0.0
H728 H 0.46286 0.79275 0.49512 0.0
H729 H 0.60481 0.72919 0.52985 0.0
H730 H 0.60582 0.78248 0.52033 0.0
H731 H 0.5091 0.71976 0.49304 0.0
H732 H 0.50788 0.66595 0.50292 0.0
H733 H 0.50694 0.77437 0.51147 0.0
H734 H 0.58343 0.76316 0.47263 0.0
H735 H 0.63217 0.75319 0.46236 0.0
H736 H 0.70233 0.84528 0.49329 0.0
H737 H 0.65398 0.85555 0.50393 0.0
C738 C 0.54454 0.936 0.49279 0.0
C739 C 0.57079 0.9633 0.50301 0.0
C740 C 0.54063 0.90118 0.49201 0.0
C741 C 0.56325 0.89323 0.50125 0.0
C742 C 0.58986 0.92065 0.51118 0.0
C743 C 0.59348 0.95527 0.51213 0.0
C744 C 0.55942 0.85646 0.50077 0.0
C745 C 0.58669 0.84952 0.49526 0.0
C746 C 0.5298 0.82866 0.50615 0.0
C747 C 0.50026 0.83432 0.51234 0.0
C748 C 0.50487 0.86033 0.52554 0.0
C749 C 0.47686 0.8654 0.53128 0.0
C750 C 0.444 0.84427 0.52408 0.0
C751 C 0.4391 0.81806 0.51111 0.0
C752 C 0.46707 0.81305 0.50525 0.0
C753 C 0.58421 0.72666 0.52146 0.0
C754 C 0.55638 0.69349 0.51702 0.0
C755 C 0.5848 0.75716 0.51598 0.0
C756 C 0.55767 0.75528 0.50583 0.0
C757 C 0.5304 0.7219 0.50081 0.0
C758 C 0.52985 0.69116 0.50629 0.0
C759 C 0.55696 0.78864 0.50182 0.0
C760 C 0.52889 0.79507 0.50651 0.0
C761 C 0.58573 0.81595 0.49554 0.0
C762 C 0.615 0.81002 0.48914 0.0
C763 C 0.60923 0.78117 0.47733 0.0
C764 C 0.6368 0.77548 0.47143 0.0
C765 C 0.67032 0.79856 0.47718 0.0
C766 C 0.67634 0.82743 0.48883 0.0
C767 C 0.64886 0.83323 0.49479 0.0
H768 H 0.69163 0.79411 0.4726 0.0
H769 H 0.42233 0.84816 0.52857 0.0
H770 H 0.71372 0.5706 0.84786 0.0
H771 H 0.7721 0.57865 0.84307 0.0
H772 H 0.7348 0.50086 0.80029 0.0
H773 H 0.67602 0.49249 0.80512 0.0
H774 H 0.78225 0.49282 0.81984 0.0
H775 H 0.7753 0.58421 0.79339 0.0
H776 H 0.76098 0.63355 0.78991 0.0
H777 H 0.83018 0.69573 0.83105 0.0
H778 H 0.84455 0.64659 0.83496 0.0
H779 H 0.96538 0.55172 0.81607 0.0
H780 H 0.90821 0.54066 0.80493 0.0
H781 H 0.8967 0.6016 0.84816 0.0
H782 H 0.95312 0.61215 0.85929 0.0
H783 H 0.87382 0.61481 0.81796 0.0
H784 H 0.86616 0.51596 0.848 0.0
H785 H 0.87965 0.46618 0.85186 0.0
H786 H 0.83744 0.41819 0.80289 0.0
H787 H 0.82414 0.468 0.79868 0.0
C788 C 0.71794 0.55503 0.83752 0.0
C789 C 0.69058 0.53106 0.82682 0.0
C790 C 0.75125 0.55983 0.83471 0.0
C791 C 0.75772 0.54089 0.82111 0.0
C792 C 0.73026 0.51594 0.81074 0.0
C793 C 0.69683 0.51115 0.81354 0.0
C794 C 0.79335 0.54723 0.81809 0.0
C795 C 0.80222 0.5193 0.81894 0.0
C796 C 0.81928 0.58176 0.81681 0.0
C797 C 0.81093 0.6116 0.81449 0.0
C798 C 0.78732 0.60832 0.80176 0.0
C799 C 0.77921 0.63627 0.79971 0.0
C800 C 0.79464 0.66774 0.81026 0.0
C801 C 0.81827 0.67134 0.82288 0.0
C802 C 0.82646 0.64346 0.825 0.0
C803 C 0.95067 0.56309 0.82296 0.0
C804 C 0.96314 0.58252 0.83852 0.0
C805 C 0.91823 0.5568 0.81664 0.0
C806 C 0.89844 0.57035 0.82577 0.0
C807 C 0.91175 0.59114 0.84092 0.0
C808 C 0.94375 0.59695 0.84731 0.0
C809 C 0.86263 0.56079 0.82061 0.0
C810 C 0.85371 0.58813 0.81819 0.0
C811 C 0.83669 0.52574 0.82037 0.0
C812 C 0.84462 0.49588 0.82294 0.0
C813 C 0.86005 0.49494 0.83801 0.0
C814 C 0.86761 0.4667 0.84027 0.0
C815 C 0.85953 0.4391 0.82761 0.0
C816 C 0.84378 0.43963 0.81267 0.0
C817 C 0.83624 0.46785 0.81034 0.0
H818 H 0.86537 0.41725 0.82938 0.0
H819 H 0.78832 0.68935 0.80865 0.0
H820 H 0.19415 0.59934 0.14496 0.0
H821 H 0.24488 0.65665 0.14678 0.0
H822 H 0.19064 0.70407 0.17643 0.0
H823 H 0.13969 0.64682 0.17445 0.0
H824 H 0.22486 0.74468 0.15256 0.0
H825 H 0.24902 0.68252 0.19346 0.0
H826 H 0.25668 0.63323 0.20357 0.0
H827 H 0.33936 0.65084 0.17124 0.0
H828 H 0.33165 0.69972 0.16061 0.0
H829 H 0.35772 0.90062 0.19248 0.0
H830 H 0.3091 0.8436 0.18408 0.0
H831 H 0.37558 0.80953 0.15614 0.0
H832 H 0.42472 0.86663 0.16486 0.0
H833 H 0.33715 0.76115 0.17609 0.0
H834 H 0.31548 0.82538 0.13629 0.0
H835 H 0.30792 0.87462 0.12604 0.0
H836 H 0.22153 0.8536 0.15626 0.0
H837 H 0.22886 0.80453 0.16688 0.0
C838 C 0.19313 0.62202 0.15188 0.0
C839 C 0.16312 0.61875 0.15961 0.0
C840 C 0.22211 0.65468 0.15294 0.0
C841 C 0.22163 0.68459 0.16184 0.0
C842 C 0.19155 0.68135 0.16949 0.0
C843 C 0.16255 0.64866 0.16843 0.0
C844 C 0.25243 0.71931 0.16322 0.0
C845 C 0.24934 0.74837 0.15784 0.0
C846 C 0.28467 0.72382 0.16961 0.0
C847 C 0.28943 0.6945 0.17607 0.0
C848 C 0.26859 0.67566 0.18836 0.0
C849 C 0.27297 0.6478 0.1942 0.0
C850 C 0.29841 0.63882 0.188 0.0
C851 C 0.31965 0.65781 0.17602 0.0
C852 C 0.31523 0.68554 0.17005 0.0
C853 C 0.36192 0.88113 0.18439 0.0
C854 C 0.39503 0.888 0.17938 0.0
C855 C 0.33406 0.84862 0.1795 0.0
C856 C 0.33863 0.82232 0.1694 0.0
C857 C 0.37147 0.82949 0.16392 0.0
C858 C 0.39944 0.86218 0.16878 0.0
C859 C 0.30946 0.78667 0.16565 0.0
C860 C 0.3128 0.7574 0.17061 0.0
C861 C 0.27747 0.78194 0.15886 0.0
C862 C 0.27289 0.81141 0.15247 0.0
C863 C 0.29503 0.83141 0.14085 0.0
C864 C 0.29075 0.85928 0.13496 0.0
C865 C 0.2643 0.86728 0.14052 0.0
C866 C 0.24202 0.84738 0.15197 0.0
C867 C 0.2462 0.81951 0.15791 0.0
H868 H 0.26103 0.88886 0.13594 0.0
H869 H 0.30173 0.61721 0.19252 0.0
H870 H 0.56518 0.13275 0.52258 0.0
H871 H 0.57529 0.19416 0.52159 0.0
H872 H 0.4887 0.15924 0.48665 0.0
H873 H 0.47969 0.09803 0.48698 0.0
H874 H 0.53781 0.21723 0.47789 0.0
H875 H 0.48405 0.18245 0.52887 0.0
H876 H 0.47678 0.15855 0.55585 0.0
H877 H 0.57519 0.24097 0.57369 0.0
H878 H 0.58324 0.26511 0.54673 0.0
H879 H 0.5102 0.3747 0.49472 0.0
H880 H 0.50638 0.31479 0.48971 0.0
H881 H 0.59902 0.34803 0.52022 0.0
H882 H 0.60298 0.40755 0.52514 0.0
H883 H 0.54629 0.29083 0.53059 0.0
H884 H 0.59806 0.32668 0.47916 0.0
H885 H 0.60331 0.35001 0.45212 0.0
H886 H 0.5056 0.26521 0.43515 0.0
H887 H 0.49952 0.24164 0.46218 0.0
C888 C 0.54857 0.13825 0.51455 0.0
C889 C 0.52174 0.11062 0.50481 0.0
C890 C 0.55416 0.17335 0.51409 0.0
C891 C 0.53244 0.18146 0.50422 0.0
C892 C 0.50583 0.15381 0.49436 0.0
C893 C 0.50055 0.11878 0.49465 0.0
C894 C 0.5369 0.21856 0.50446 0.0
C895 C 0.53925 0.23317 0.48941 0.0
C896 C 0.53923 0.2397 0.51947 0.0
C897 C 0.53438 0.22538 0.53573 0.0
C898 C 0.50423 0.19534 0.53851 0.0
C899 C 0.49996 0.18177 0.55381 0.0
C900 C 0.52554 0.19818 0.56646 0.0
C901 C 0.55541 0.22826 0.56387 0.0
C902 C 0.55983 0.24191 0.54859 0.0
C903 C 0.53026 0.36942 0.49991 0.0
C904 C 0.55672 0.39571 0.51043 0.0
C905 C 0.52801 0.33516 0.49711 0.0
C906 C 0.55228 0.3268 0.50472 0.0
C907 C 0.57984 0.35371 0.51434 0.0
C908 C 0.58211 0.38775 0.51711 0.0
C909 C 0.54753 0.28961 0.50405 0.0
C910 C 0.54493 0.27492 0.51906 0.0
C911 C 0.54461 0.26841 0.48901 0.0
C912 C 0.54816 0.28263 0.47277 0.0
C913 C 0.57753 0.3132 0.46973 0.0
C914 C 0.58069 0.32643 0.45438 0.0
C915 C 0.55476 0.30917 0.44194 0.0
C916 C 0.52564 0.27859 0.44481 0.0
C917 C 0.52233 0.26527 0.46013 0.0
H918 H 0.55727 0.31944 0.43007 0.0
H919 H 0.52219 0.18763 0.5783 0.0
H920 H 0.43602 0.55183 0.85535 0.0
H921 H 0.39845 0.58112 0.85399 0.0
H922 H 0.40691 0.57953 0.80108 0.0
H923 H 0.44373 0.54914 0.80228 0.0
H924 H 0.42152 0.6518 0.82738 0.0
H925 H 0.34056 0.53463 0.8022 0.0
H926 H 0.31242 0.46954 0.80095 0.0
H927 H 0.27674 0.47635 0.84979 0.0
H928 H 0.30514 0.54153 0.85141 0.0
H929 H 0.23489 0.64078 0.83418 0.0
H930 H 0.2785 0.63065 0.81938 0.0
H931 H 0.35062 0.6829 0.86109 0.0
H932 H 0.3076 0.69544 0.87576 0.0
H933 H 0.29585 0.58635 0.83231 0.0
H934 H 0.43144 0.70149 0.85045 0.0
H935 H 0.46166 0.76645 0.85172 0.0
H936 H 0.38819 0.76553 0.81595 0.0
H937 H 0.35762 0.7005 0.81437 0.0
C938 C 0.4294 0.55724 0.84342 0.0
C939 C 0.44231 0.54802 0.8289 0.0
C940 C 0.40823 0.5741 0.84267 0.0
C941 C 0.40027 0.58247 0.82745 0.0
C942 C 0.41296 0.57318 0.8129 0.0
C943 C 0.43361 0.55562 0.8136 0.0
C944 C 0.37837 0.60077 0.82705 0.0
C945 C 0.39395 0.6378 0.82819 0.0
C946 C 0.34257 0.58204 0.82796 0.0
C947 C 0.32522 0.5429 0.82697 0.0
C948 C 0.32698 0.52223 0.81272 0.0
C949 C 0.31093 0.48533 0.81193 0.0
C950 C 0.29287 0.46882 0.82529 0.0
C951 C 0.29076 0.48918 0.83945 0.0
C952 C 0.3068 0.52609 0.8403 0.0
C953 C 0.26045 0.65198 0.84 0.0
C954 C 0.26738 0.66832 0.85642 0.0
C955 C 0.28539 0.64585 0.83146 0.0
C956 C 0.31759 0.65549 0.8392 0.0
C957 C 0.32593 0.6753 0.85483 0.0
C958 C 0.30109 0.68195 0.86332 0.0
C959 C 0.33883 0.63806 0.83284 0.0
C960 C 0.3232 0.60088 0.83081 0.0
C961 C 0.37455 0.65685 0.83108 0.0
C962 C 0.39213 0.69607 0.83236 0.0
C963 C 0.42169 0.71512 0.84287 0.0
C964 C 0.4389 0.75197 0.84364 0.0
C965 C 0.42687 0.77012 0.83392 0.0
C966 C 0.39743 0.75145 0.8235 0.0
C967 C 0.38006 0.71459 0.82272 0.0
H968 H 0.44038 0.79863 0.83445 0.0
H969 H 0.28045 0.44025 0.82466 0.0
H970 H 0.90497 0.37585 0.1344 0.0
H971 H 0.84705 0.33001 0.13815 0.0
H972 H 0.88985 0.28001 0.16893 0.0
H973 H 0.94764 0.32556 0.16515 0.0
H974 H 0.83827 0.23161 0.14826 0.0
H975 H 0.8604 0.33615 0.18472 0.0
H976 H 0.87467 0.39902 0.19209 0.0
H977 H 0.783 0.38492 0.16569 0.0
H978 H 0.76903 0.32228 0.15735 0.0
H979 H 0.71317 0.14432 0.20433 0.0
H980 H 0.76336 0.18436 0.1907 0.0
H981 H 0.69781 0.20795 0.15915 0.0
H982 H 0.64717 0.16727 0.1727 0.0
H983 H 0.75574 0.26886 0.17574 0.0
H984 H 0.73195 0.16183 0.14141 0.0
H985 H 0.71852 0.0988 0.13542 0.0
H986 H 0.81325 0.11774 0.16046 0.0
H987 H 0.82703 0.18082 0.16683 0.0
C988 C 0.90197 0.35472 0.14174 0.0
C989 C 0.93067 0.35416 0.14952 0.0
C990 C 0.86892 0.32869 0.14393 0.0
C991 C 0.86414 0.3018 0.15395 0.0
C992 C 0.89295 0.30049 0.16114 0.0
C993 C 0.92593 0.32655 0.15901 0.0
C994 C 0.82923 0.27597 0.15773 0.0
C995 C 0.82025 0.23977 0.15428 0.0
C996 C 0.80544 0.28671 0.16529 0.0
C997 C 0.81401 0.32456 0.17012 0.0
C998 C 0.84359 0.34654 0.18018 0.0
C999 C 0.85166 0.38218 0.18451 0.0
C1000 C 0.82995 0.39604 0.17918 0.0
C1001 C 0.80005 0.37424 0.16957 0.0
C1002 C 0.79212 0.33869 0.16498 0.0
C1003 C 0.70947 0.1578 0.19438 0.0
C1004 C 0.67642 0.15281 0.18954 0.0
C1005 C 0.73808 0.18056 0.18658 0.0
C1006 C 0.73424 0.19902 0.1739 0.0
C1007 C 0.70122 0.19385 0.1689 0.0
C1008 C 0.67241 0.17055 0.17655 0.0
C1009 C 0.76516 0.22466 0.16649 0.0
C1010 C 0.77346 0.26079 0.16934 0.0
C1011 C 0.78852 0.21397 0.15855 0.0
C1012 C 0.78041 0.17605 0.1547 0.0
C1013 C 0.7498 0.15252 0.14576 0.0
C1014 C 0.74214 0.11678 0.14227 0.0
C1015 C 0.76499 0.10426 0.14758 0.0
C1016 C 0.79557 0.12748 0.15636 0.0
C1017 C 0.80334 0.16324 0.15989 0.0
H1018 H 0.75901 0.07658 0.14486 0.0
H1019 H 0.83619 0.42362 0.18258 0.0
H1020 H 0.11205 0.49831 0.10186 0.0
H1021 H 0.11736 0.5032 0.07219 0.0
H1022 H 1.00773 0.46621 0.06597 0.0
H1023 H 1.00222 0.45917 0.09558 0.0
H1024 H 0.02785 0.44205 0.04028 0.0
H1025 H 0.06741 0.55733 0.07013 0.0
H1026 H 0.10212 0.60647 0.09123 0.0
H1027 H 0.19446 0.61452 0.06891 0.0
H1028 H 0.16028 0.5651 0.04779 0.0
H1029 H 0.02901 0.53897 0.97204 0.0
H1030 H 0.02626 0.52061 -0.00028 0.0
H1031 H 0.12217 0.51447 0.994 0.0
H1032 H 0.12426 0.53055 0.96576 0.0
H1033 H 0.11154 0.55862 0.02477 0.0
H1034 H 0.06671 0.44325 0.99319 0.0
H1035 H 0.02806 0.39655 0.9721 0.0
H1036 H 0.94052 0.39277 -0.00212 0.0
H1037 H 0.97867 0.43988 0.019 0.0
C1038 C 0.08908 0.49079 0.09408 0.0
C1039 C 0.05677 0.47871 0.10092 0.0
C1040 C 0.09213 0.49378 0.07716 0.0
C1041 C 0.06308 0.48612 0.0669 0.0
C1042 C 0.03055 0.47249 0.07364 0.0
C1043 C 0.02739 0.46851 0.09053 0.0
C1044 C 0.06682 0.49393 0.04939 0.0
C1045 C 0.046 0.46764 0.03694 0.0
C1046 C 0.09071 0.52725 0.04494 0.0
C1047 C 0.11131 0.55729 0.05748 0.0
C1048 C 0.09513 0.56946 0.06978 0.0
C1049 C 0.1147 0.59737 0.08173 0.0
C1050 C 0.15048 0.61354 0.08144 0.0
C1051 C 0.16675 0.60193 0.06914 0.0
C1052 C 0.14729 0.57399 0.05716 0.0
C1053 C 0.04921 0.53296 0.97641 0.0
C1054 C 0.07679 0.53611 0.9665 0.0
C1055 C 0.04767 0.52275 0.99232 0.0
C1056 C 0.07392 0.5161 -0.00123 0.0
C1057 C 0.10169 0.51953 0.98913 0.0
C1058 C 0.10294 0.52904 0.97306 0.0
C1059 C 0.07268 0.50679 0.01586 0.0
C1060 C 0.09377 0.53295 0.02819 0.0
C1061 C 0.04851 0.47375 0.02023 0.0
C1062 C 0.02555 0.44535 0.00758 0.0
C1063 C 0.03922 0.43273 0.99427 0.0
C1064 C 0.0174 0.40612 0.98233 0.0
C1065 C 0.98186 0.39177 0.98362 0.0
C1066 C 0.96806 0.40394 -0.00312 0.0
C1067 C 0.98977 0.43057 0.00885 0.0
H1068 H 0.96501 0.37117 0.97437 0.0
H1069 H 0.16559 0.63511 0.09072 0.0
H1070 H 0.59196 0.06835 0.45078 0.0
H1071 H 0.58804 0.0723 0.42116 0.0
H1072 H 0.47784 0.01324 0.42079 0.0
H1073 H 0.48173 0.00801 0.45034 0.0
H1074 H 0.49969 0.9906 0.39507 0.0
H1075 H 0.51956 0.10549 0.41954 0.0
H1076 H 0.54897 0.16158 0.43762 0.0
H1077 H 0.64083 0.18692 0.41112 0.0
H1078 H 0.61211 0.13072 0.39301 0.0
H1079 H 0.46657 0.03349 0.31685 0.0
H1080 H 0.47079 0.03574 0.34696 0.0
H1081 H 0.57964 0.06813 0.34549 0.0
H1082 H 0.57559 0.06456 0.31529 0.0
H1083 H 0.55757 0.10565 0.37189 0.0
H1084 H 0.5352 0.98764 0.34804 0.0
H1085 H 0.50299 0.93216 0.32991 0.0
H1086 H 0.41154 0.91422 0.35569 0.0
H1087 H 0.44312 0.96994 0.37381 0.0
C1088 C 0.56688 0.05617 0.44439 0.0
C1089 C 0.53713 0.03792 0.45289 0.0
C1090 C 0.56465 0.05865 0.42747 0.0
C1091 C 0.53258 0.04369 0.41879 0.0
C1092 C 0.50287 0.02509 0.42722 0.0
C1093 C 0.50512 0.0221 0.44411 0.0
C1094 C 0.53009 0.04683 0.40084 0.0
C1095 C 0.51193 0.01588 0.39009 0.0
C1096 C 0.54647 0.07974 0.39424 0.0
C1097 C 0.56376 0.11372 0.40501 0.0
C1098 C 0.54611 0.12291 0.41764 0.0
C1099 C 0.56264 0.15474 0.42788 0.0
C1100 C 0.59677 0.17776 0.42554 0.0
C1101 C 0.6144 0.16904 0.41292 0.0
C1102 C 0.59799 0.13722 0.40265 0.0
C1103 C 0.49144 0.04102 0.32288 0.0
C1104 C 0.52066 0.04837 0.31359 0.0
C1105 C 0.49381 0.04257 0.3401 0.0
C1106 C 0.52547 0.05185 0.34836 0.0
C1107 C 0.55501 0.06103 0.33928 0.0
C1108 C 0.55262 0.05909 0.32203 0.0
C1109 C 0.52726 0.04953 0.36634 0.0
C1110 C 0.54528 0.08054 0.37701 0.0
C1111 C 0.51033 0.01681 0.37293 0.0
C1112 C 0.49143 0.98313 0.36216 0.0
C1113 C 0.50815 0.97202 0.34975 0.0
C1114 C 0.49002 0.94051 0.33949 0.0
C1115 C 0.45521 0.91973 0.34161 0.0
C1116 C 0.43849 0.93037 0.35404 0.0
C1117 C 0.45649 0.9619 0.36431 0.0
H1118 H 0.44122 0.89534 0.33366 0.0
H1119 H 0.60954 0.20238 0.43349 0.0
H1120 H 0.60576 0.53396 0.77461 0.0
H1121 H 0.60705 0.54537 0.74573 0.0
H1122 H 0.5221 0.57168 0.75224 0.0
H1123 H 0.52024 0.55983 0.78117 0.0
H1124 H 0.51243 0.52763 0.72466 0.0
H1125 H 0.60236 0.63625 0.7487 0.0
H1126 H 0.65499 0.67442 0.76583 0.0
H1127 H 0.71261 0.63324 0.73541 0.0
H1128 H 0.66021 0.5944 0.71823 0.0
H1129 H 0.52652 0.57799 0.64313 0.0
H1130 H 0.52738 0.5844 0.67344 0.0
H1131 H 0.60907 0.55263 0.67521 0.0
H1132 H 0.60888 0.54697 0.64499 0.0
H1133 H 0.61874 0.60672 0.69921 0.0
H1134 H 0.52755 0.49308 0.67784 0.0
H1135 H 0.47486 0.45375 0.66098 0.0
H1136 H 0.41972 0.50459 0.68682 0.0
H1137 H 0.47227 0.54457 0.70369 0.0
C1138 C 0.58739 0.54229 0.76996 0.0
C1139 C 0.56286 0.54594 0.78021 0.0
C1140 C 0.58832 0.54903 0.75346 0.0
C1141 C 0.56497 0.55984 0.74691 0.0
C1142 C 0.54044 0.5635 0.75709 0.0
C1143 C 0.53943 0.55671 0.77361 0.0
C1144 C 0.56533 0.56571 0.72923 0.0
C1145 C 0.53547 0.54552 0.71916 0.0
C1146 C 0.59557 0.58862 0.72203 0.0
C1147 C 0.62727 0.61222 0.73223 0.0
C1148 C 0.6262 0.63515 0.74572 0.0
C1149 C 0.65601 0.65694 0.75544 0.0
C1150 C 0.68711 0.65621 0.75173 0.0
C1151 C 0.68849 0.63376 0.73827 0.0
C1152 C 0.65875 0.61189 0.72852 0.0
C1153 C 0.54506 0.573 0.65 0.0
C1154 C 0.56739 0.56161 0.64171 0.0
C1155 C 0.54539 0.57648 0.66729 0.0
C1156 C 0.56801 0.56857 0.67652 0.0
C1157 C 0.59136 0.55877 0.66829 0.0
C1158 C 0.591 0.55522 0.65104 0.0
C1159 C 0.56603 0.56821 0.69468 0.0
C1160 C 0.59558 0.58937 0.70481 0.0
C1161 C 0.53552 0.54619 0.70196 0.0
C1162 C 0.50391 0.52208 0.69188 0.0
C1163 C 0.50426 0.49606 0.67983 0.0
C1164 C 0.47441 0.47362 0.67029 0.0
C1165 C 0.44399 0.47674 0.67279 0.0
C1166 C 0.44333 0.50225 0.68488 0.0
C1167 C 0.47312 0.5248 0.69443 0.0
H1168 H 0.4209 0.45934 0.6654 0.0
H1169 H 0.71016 0.67308 0.75927 0.0
H1170 H 0.59721 0.08572 0.56161 0.0
H1171 H 0.60231 0.082 0.59122 0.0
H1172 H 0.51769 0.97754 0.58573 0.0
H1173 H 0.51209 0.9811 0.55614 0.0
H1174 H 0.51131 0.01763 0.61203 0.0
H1175 H 0.59894 0.98793 0.59078 0.0
H1176 H 0.64961 0.99579 0.57487 0.0
H1177 H 0.71022 0.09317 0.6051 0.0
H1178 H 0.65976 0.08616 0.62104 0.0
H1179 H 0.53418 0.97954 0.69287 0.0
H1180 H 0.53172 0.97565 0.6626 0.0
H1181 H 0.61398 0.08125 0.66471 0.0
H1182 H 0.61718 0.08499 0.69494 0.0
H1183 H 0.621 0.03684 0.63987 0.0
H1184 H 0.53234 0.06797 0.65988 0.0
H1185 H 0.48152 0.06024 0.67565 0.0
H1186 H 0.42274 0.95963 0.64748 0.0
H1187 H 0.47339 0.96655 0.63169 0.0
C1188 C 0.57967 0.06192 0.56667 0.0
C1189 C 0.55425 0.0337 0.55648 0.0
C1190 C 0.58274 0.05978 0.5836 0.0
C1191 C 0.56063 0.02932 0.59063 0.0
C1192 C 0.53506 1.00124 0.58054 0.0
C1193 C 0.53195 1.00335 0.56361 0.0
C1194 C 0.56373 0.02709 0.6086 0.0
C1195 C 0.53513 0.02123 0.61807 0.0
C1196 C 0.595 0.03246 0.61651 0.0
C1197 C 0.62548 0.03667 0.60701 0.0
C1198 C 0.62301 0.01116 0.59396 0.0
C1199 C 0.6517 0.01544 0.58495 0.0
C1200 C 0.6831 0.045 0.58895 0.0
C1201 C 0.68588 0.0703 0.602 0.0
C1202 C 0.65724 0.06617 0.61104 0.0
C1203 C 0.55215 1.00168 0.68687 0.0
C1204 C 0.57569 0.03269 0.69627 0.0
C1205 C 0.55054 0.99952 0.6696 0.0
C1206 C 0.57235 0.02836 0.66145 0.0
C1207 C 0.59682 0.05876 0.67077 0.0
C1208 C 0.59842 0.06096 0.68803 0.0
C1209 C 0.56866 0.02759 0.64327 0.0
C1210 C 0.59713 0.03295 0.63378 0.0
C1211 C 0.53726 0.02172 0.63532 0.0
C1212 C 0.50675 0.01761 0.64474 0.0
C1213 C 0.50865 0.04408 0.65714 0.0
C1214 C 0.47986 0.03986 0.66607 0.0
C1215 C 0.44894 0.00942 0.6626 0.0
C1216 C 0.44672 0.98317 0.65017 0.0
C1217 C 0.47545 0.98723 0.64122 0.0
H1218 H 0.42668 0.00621 0.66952 0.0
H1219 H 0.70529 0.04827 0.58196 0.0
H1220 H 0.61276 0.52885 0.88378 0.0
H1221 H 0.6124 0.5215 0.91324 0.0
H1222 H 0.50159 0.47451 0.91055 0.0
H1223 H 0.50214 0.48407 0.88133 0.0
H1224 H 0.52219 0.51837 0.9359 0.0
H1225 H 0.55368 0.4247 0.91573 0.0
H1226 H 0.58875 0.39953 0.90072 0.0
H1227 H 0.67884 0.4747 0.92927 0.0
H1228 H 0.6444 0.50019 0.94445 0.0
H1229 H 0.49153 0.44579 0.01219 0.0
H1230 H 0.49705 0.45105 0.98257 0.0
H1231 H 0.60519 0.51962 0.99106 0.0
H1232 H 0.5998 0.51551 0.02084 0.0
H1233 H 0.589 0.46705 0.96357 0.0
H1234 H 0.55658 0.55695 0.98512 0.0
H1235 H 0.52152 0.58065 0.00096 0.0
H1236 H 0.43266 0.51184 0.96979 0.0
H1237 H 0.46711 0.48732 0.95392 0.0
C1238 C 0.58836 0.51673 0.88949 0.0
C1239 C 0.55748 0.50718 0.88036 0.0
C1240 C 0.58813 0.51221 0.90631 0.0
C1241 C 0.55693 0.49689 0.91417 0.0
C1242 C 0.52603 0.4865 0.90485 0.0
C1243 C 0.52632 0.49193 0.88816 0.0
C1244 C 0.55635 0.49381 0.93227 0.0
C1245 C 0.53636 0.50651 0.94182 0.0
C1246 C 0.57585 0.47968 0.94028 0.0
C1247 C 0.59656 0.46458 0.93105 0.0
C1248 C 0.58103 0.43601 0.91868 0.0
C1249 C 0.60074 0.42165 0.91018 0.0
C1250 C 0.63598 0.43567 0.91396 0.0
C1251 C 0.65156 0.46393 0.92632 0.0
C1252 C 0.63195 0.47826 0.93491 0.0
C1253 C 0.51647 0.46223 0.00782 0.0
C1254 C 0.54515 0.48052 0.01895 0.0
C1255 C 0.51959 0.46501 0.99087 0.0
C1256 C 0.55145 0.48596 0.98469 0.0
C1257 C 0.5804 0.50328 0.99563 0.0
C1258 C 0.57726 0.50077 0.01263 0.0
C1259 C 0.55414 0.49059 0.96686 0.0
C1260 C 0.5747 0.47857 0.95749 0.0
C1261 C 0.5351 0.50521 0.95898 0.0
C1262 C 0.51436 0.52005 0.96844 0.0
C1263 C 0.5295 0.54665 0.98173 0.0
C1264 C 0.50975 0.56027 0.9907 0.0
C1265 C 0.47486 0.54769 0.98641 0.0
C1266 C 0.45968 0.52153 0.97312 0.0
C1267 C 0.47931 0.50778 0.96412 0.0
H1268 H 0.45962 0.55827 0.99337 0.0
H1269 H 0.65117 0.42453 0.90735 0.0
H1270 H 0.9981 0.44455 0.20463 0.0
H1271 H 0.99462 0.45085 0.23469 0.0
H1272 H 0.09847 0.53335 0.23944 0.0
H1273 H 0.10225 0.52745 0.20935 0.0
H1274 H 0.08203 0.48123 0.26257 0.0
H1275 H 0.0362 0.55662 0.24083 0.0
H1276 H 0.99627 0.56751 0.22317 0.0
H1277 H 0.91045 0.49085 0.24597 0.0
H1278 H 0.94987 0.4792 0.26361 0.0
H1279 H 0.09377 0.55931 0.3436 0.0
H1280 H 0.09447 0.54714 0.31387 0.0
H1281 H 0.98391 0.49068 0.31077 0.0
H1282 H 0.98269 0.50611 0.34031 0.0
H1283 H 1.00094 0.52495 0.28638 0.0
H1284 H 0.04044 0.44857 0.30836 0.0
H1285 H 0.07559 0.43114 0.32589 0.0
H1286 H 0.16638 0.49865 0.30277 0.0
H1287 H 0.13184 0.51688 0.28524 0.0
C1288 C 0.02036 0.46383 0.21205 0.0
C1289 C 0.05043 0.48564 0.20459 0.0
C1290 C 0.01823 0.46745 0.22921 0.0
C1291 C 0.04619 0.49275 0.2392 0.0
C1292 C 0.07663 0.51372 0.23188 0.0
C1293 C 0.07868 0.51039 0.2147 0.0
C1294 C 0.04338 0.49818 0.25726 0.0
C1295 C 0.06459 0.49111 0.26785 0.0
C1296 C 0.01955 0.50962 0.26402 0.0
C1297 C 0.99597 0.51682 0.25342 0.0
C1298 C 1.00881 0.54189 0.24197 0.0
C1299 C 0.98626 0.54823 0.23199 0.0
C1300 C 0.95083 0.52981 0.23343 0.0
C1301 C 0.93789 0.50506 0.24486 0.0
C1302 C 0.96032 0.49861 0.25486 0.0
C1303 C 0.06945 0.54498 0.33664 0.0
C1304 C 0.03814 0.53377 0.34454 0.0
C1305 C 0.06996 0.53733 0.31959 0.0
C1306 C 0.0393 0.51713 0.31006 0.0
C1307 C 1.00798 0.50606 0.31784 0.0
C1308 C 1.00737 0.51454 0.33484 0.0
C1309 C 0.03993 0.50839 0.29193 0.0
C1310 C 0.0183 0.51481 0.28125 0.0
C1311 C 0.06266 0.49529 0.2851 0.0
C1312 C 0.08356 0.48432 0.29558 0.0
C1313 C 0.06793 0.45989 0.30709 0.0
C1314 C 0.08775 0.44984 0.31702 0.0
C1315 C 0.12321 0.46384 0.31547 0.0
C1316 C 0.13892 0.48785 0.30396 0.0
C1317 C 0.11922 0.49802 0.29401 0.0
H1318 H 0.1385 0.45603 0.32317 0.0
H1319 H 0.93337 0.53476 0.22574 0.0
loop_
_geom_bond_atom_site_label_1
_geom_bond_atom_site_label_2
_geom_bond_distance
_geom_bond_site_symmetry_2
_ccdc_geom_bond_type
Tb0 O3 2.453 1_455 S
Tb0 O4 2.596 1_455 S
Tb0 O5 2.374 . S
Tb0 O13 2.343 . S
Tb0 O15 2.353 . S
Tb0 O17 2.427 . S
Tb0 O18 2.513 . S
C1 O5 1.251 . S
C1 O7 1.263 . S
Tb2 O4 2.343 1_455 S
Tb2 O7 2.353 . S
Tb2 O10 2.427 1_455 S
Tb2 O11 2.513 1_455 S
Tb2 O12 2.453 . S
Tb2 O13 2.596 . S
Tb2 O14 2.374 . S
O3 Tb0 2.453 1_655 S
O3 C19 1.245 . S
O4 Tb0 2.596 1_655 S
O4 Tb2 2.343 1_655 S
O4 C19 1.259 . S
O5 Tb0 2.374 . S
O5 C1 1.251 . S
C6 O10 1.275 . S
C6 O11 1.246 . S
O7 C1 1.263 . S
O7 Tb2 2.353 . S
C8 O12 1.245 . S
C8 O13 1.259 . S
C9 O14 1.250 . S
C9 O15 1.263 . S
O10 Tb2 2.427 1_655 S
O10 C6 1.275 . S
O11 Tb2 2.513 1_655 S
O11 C6 1.246 . S
O12 Tb2 2.453 . S
O12 C8 1.245 . S
O13 Tb0 2.343 . S
O13 Tb2 2.596 . S
O13 C8 1.259 . S
O14 Tb2 2.374 . S
O14 C9 1.250 . S
O15 Tb0 2.353 . S
O15 C9 1.263 . S
C16 O17 1.275 . S
C16 O18 1.246 . S
O17 Tb0 2.427 . S
O17 C16 1.275 . S
O18 Tb0 2.513 . S
O18 C16 1.246 . S
C19 O3 1.245 . S
C19 O4 1.259 . S
Tb20 O23 2.453 . S
Tb20 O24 2.596 . S
Tb20 O25 2.374 . S
Tb20 O33 2.343 1_545 S
Tb20 O35 2.353 . S
Tb20 O37 2.427 1_545 S
Tb20 O38 2.513 1_545 S
C21 O25 1.251 . S
C21 O27 1.263 . S
Tb22 O24 2.343 . S
Tb22 O27 2.353 . S
Tb22 O30 2.427 . S
Tb22 O31 2.513 . S
Tb22 O32 2.453 1_545 S
Tb22 O33 2.596 1_545 S
Tb22 O34 2.374 . S
O23 Tb20 2.453 . S
O23 C39 1.245 . S
O24 Tb20 2.596 . S
O24 Tb22 2.343 . S
O24 C39 1.259 . S
O25 Tb20 2.374 . S
O25 C21 1.251 . S
C26 O30 1.275 . S
C26 O31 1.246 . S
O27 C21 1.263 . S
O27 Tb22 2.353 . S
C28 O32 1.245 . S
C28 O33 1.259 . S
C29 O34 1.250 . S
C29 O35 1.263 . S
O30 Tb22 2.427 . S
O30 C26 1.275 . S
O31 Tb22 2.513 . S
O31 C26 1.246 . S
O32 Tb22 2.453 1_565 S
O32 C28 1.245 . S
O33 Tb20 2.343 1_565 S
O33 Tb22 2.596 1_565 S
O33 C28 1.259 . S
O34 Tb22 2.374 . S
O34 C29 1.250 . S
O35 Tb20 2.353 . S
O35 C29 1.263 . S
C36 O37 1.275 . S
C36 O38 1.246 . S
O37 Tb20 2.427 1_565 S
O37 C36 1.275 . S
O38 Tb20 2.513 1_565 S
O38 C36 1.246 . S
C39 O23 1.245 . S
C39 O24 1.259 . S
Tb40 O43 2.453 . S
Tb40 O44 2.596 . S
Tb40 O45 2.374 . S
Tb40 O53 2.343 . S
Tb40 O55 2.353 . S
Tb40 O57 2.427 . S
Tb40 O58 2.513 . S
C41 O45 1.251 . S
C41 O47 1.263 . S
Tb42 O44 2.343 . S
Tb42 O47 2.353 . S
Tb42 O50 2.427 . S
Tb42 O51 2.513 . S
Tb42 O52 2.453 . S
Tb42 O53 2.596 . S
Tb42 O54 2.374 . S
O43 Tb40 2.453 . S
O43 C59 1.245 . S
O44 Tb40 2.596 . S
O44 Tb42 2.343 . S
O44 C59 1.259 . S
O45 Tb40 2.374 . S
O45 C41 1.251 . S
C46 O50 1.275 . S
C46 O51 1.246 . S
O47 C41 1.263 . S
O47 Tb42 2.353 . S
C48 O52 1.245 . S
C48 O53 1.259 . S
C49 O54 1.250 . S
C49 O55 1.263 . S
O50 Tb42 2.427 . S
O50 C46 1.275 . S
O51 Tb42 2.513 . S
O51 C46 1.246 . S
O52 Tb42 2.453 . S
O52 C48 1.245 . S
O53 Tb40 2.343 . S
O53 Tb42 2.596 . S
O53 C48 1.259 . S
O54 Tb42 2.374 . S
O54 C49 1.250 . S
O55 Tb40 2.353 . S
O55 C49 1.263 . S
C56 O57 1.275 . S
C56 O58 1.246 . S
O57 Tb40 2.427 . S
O57 C56 1.275 . S
O58 Tb40 2.513 . S
O58 C56 1.246 . S
C59 O43 1.245 . S
C59 O44 1.259 . S
C60 C61 1.391 . S
C60 C64 1.391 . S
C60 H102 0.948 . S
C61 C60 1.391 . S
C61 C62 1.391 . S
C62 C61 1.391 . S
C62 H118 0.947 . S
C62 C119 1.392 . S
C63 C64 1.391 . S
C63 C67 1.397 . S
C63 C119 1.419 . S
C64 C60 1.391 . S
C64 C63 1.391 . S
C64 C65 1.399 . S
C65 C64 1.399 . S
C65 C68 1.396 . S
C65 C77 1.453 . S
C65 C78 1.684 . S
H66 C90 0.948 . S
C67 C63 1.397 . S
C67 C68 1.394 . S
C67 C86 1.723 . S
C68 C65 1.396 . S
C68 C67 1.394 . S
C68 C98 1.723 . S
H69 C92 0.947 . S
H70 C93 0.948 . S
H71 C99 0.982 . S
H72 C100 0.979 . S
H73 C100 0.980 . S
H74 C100 0.983 . S
H75 C99 0.979 . S
H76 C99 0.977 . S
C77 C65 1.453 . S
C77 H106 0.982 . S
C77 H107 0.979 . S
C77 H108 0.977 . S
C78 C65 1.684 . S
C78 H103 0.979 . S
C78 H104 0.980 . S
C78 H105 0.983 . S
C79 C80 1.391 . S
C79 C84 1.391 . S
C79 H109 0.948 . S
C80 C79 1.391 . S
C80 C81 1.391 . S
C81 C80 1.391 . S
C81 C82 1.392 . S
C81 H110 0.947 . S
C82 C81 1.392 . S
C82 C83 1.419 . S
C82 H111 0.948 1_545 S
C83 C82 1.419 . S
C83 C84 1.391 . S
C83 C87 1.397 . S
C84 C79 1.391 . S
C84 C83 1.391 . S
C84 C85 1.399 . S
C85 C84 1.399 . S
C85 C86 1.396 . S
C85 C88 1.453 . S
C85 C89 1.684 . S
C86 C67 1.723 . S
C86 C85 1.396 . S
C86 C87 1.394 . S
C87 C83 1.397 . S
C87 C86 1.394 . S
C87 C97 1.723 . S
C88 C85 1.453 . S
C88 H112 0.982 . S
C88 H113 0.979 . S
C88 H114 0.977 . S
C89 C85 1.684 . S
C89 H115 0.979 . S
C89 H116 0.980 . S
C89 H117 0.983 . S
C90 H66 0.948 . S
C90 C91 1.391 . S
C90 C95 1.391 . S
C91 C90 1.391 . S
C91 C92 1.391 . S
C92 H69 0.947 . S
C92 C91 1.391 . S
C92 C93 1.392 . S
C93 H70 0.948 . S
C93 C92 1.392 . S
C93 C94 1.419 . S
C94 C93 1.419 . S
C94 C95 1.391 . S
C94 C98 1.397 1_565 S
C95 C90 1.391 . S
C95 C94 1.391 . S
C95 C96 1.399 . S
C96 C95 1.399 . S
C96 C97 1.396 1_565 S
C96 C99 1.453 . S
C96 C100 1.684 . S
C97 C87 1.723 . S
C97 C96 1.396 1_545 S
C97 C98 1.394 . S
C98 C68 1.723 . S
C98 C94 1.397 1_545 S
C98 C97 1.394 . S
C99 H71 0.982 . S
C99 H75 0.979 . S
C99 H76 0.977 . S
C99 C96 1.453 . S
C100 H72 0.979 . S
C100 H73 0.980 . S
C100 H74 0.983 . S
C100 C96 1.684 . S
H101 C119 0.948 . S
H102 C60 0.948 . S
H103 C78 0.979 . S
H104 C78 0.980 . S
H105 C78 0.983 . S
H106 C77 0.982 . S
H107 C77 0.979 . S
H108 C77 0.977 . S
H109 C79 0.948 . S
H110 C81 0.947 . S
H111 C82 0.948 1_565 S
H112 C88 0.982 . S
H113 C88 0.979 . S
H114 C88 0.977 . S
H115 C89 0.979 . S
H116 C89 0.980 . S
H117 C89 0.983 . S
H118 C62 0.947 . S
C119 C62 1.392 . S
C119 C63 1.419 . S
C119 H101 0.948 . S
C120 C121 1.391 . S
C120 C124 1.391 . S
C120 H162 0.948 . S
C121 C120 1.391 . S
C121 C122 1.391 . S
C122 C121 1.391 . S
C122 H178 0.947 . S
C122 C179 1.392 . S
C123 C124 1.391 . S
C123 C127 1.397 . S
C123 C179 1.419 . S
C124 C120 1.391 . S
C124 C123 1.391 . S
C124 C125 1.399 . S
C125 C124 1.399 . S
C125 C128 1.396 . S
C125 C137 1.453 . S
C125 C138 1.684 . S
H126 C150 0.948 . S
C127 C123 1.397 . S
C127 C128 1.394 . S
C127 C146 1.723 . S
C128 C125 1.396 . S
C128 C127 1.394 . S
C128 C158 1.723 . S
H129 C152 0.947 . S
H130 C153 0.948 . S
H131 C159 0.982 . S
H132 C160 0.979 . S
H133 C160 0.980 . S
H134 C160 0.983 . S
H135 C159 0.979 . S
H136 C159 0.977 . S
C137 C125 1.453 . S
C137 H166 0.982 . S
C137 H167 0.979 . S
C137 H168 0.977 . S
C138 C125 1.684 . S
C138 H163 0.979 . S
C138 H164 0.980 . S
C138 H165 0.983 . S
C139 C140 1.391 . S
C139 C144 1.391 . S
C139 H169 0.948 . S
C140 C139 1.391 . S
C140 C141 1.391 . S
C141 C140 1.391 . S
C141 C142 1.392 . S
C141 H170 0.947 . S
C142 C141 1.392 . S
C142 C143 1.419 . S
C142 H171 0.948 . S
C143 C142 1.419 . S
C143 C144 1.391 . S
C143 C147 1.397 . S
C144 C139 1.391 . S
C144 C143 1.391 . S
C144 C145 1.399 . S
C145 C144 1.399 . S
C145 C146 1.396 . S
C145 C148 1.453 . S
C145 C149 1.684 . S
C146 C127 1.723 . S
C146 C145 1.396 . S
C146 C147 1.394 . S
C147 C143 1.397 . S
C147 C146 1.394 . S
C147 C157 1.723 . S
C148 C145 1.453 . S
C148 H172 0.982 . S
C148 H173 0.979 . S
C148 H174 0.977 . S
C149 C145 1.684 . S
C149 H175 0.979 . S
C149 H176 0.980 . S
C149 H177 0.983 . S
C150 H126 0.948 . S
C150 C151 1.391 . S
C150 C155 1.391 . S
C151 C150 1.391 . S
C151 C152 1.391 . S
C152 H129 0.947 . S
C152 C151 1.391 . S
C152 C153 1.392 . S
C153 H130 0.948 . S
C153 C152 1.392 . S
C153 C154 1.419 . S
C154 C153 1.419 . S
C154 C155 1.391 . S
C154 C158 1.397 . S
C155 C150 1.391 . S
C155 C154 1.391 . S
C155 C156 1.399 . S
C156 C155 1.399 . S
C156 C157 1.396 . S
C156 C159 1.453 . S
C156 C160 1.684 . S
C157 C147 1.723 . S
C157 C156 1.396 . S
C157 C158 1.394 . S
C158 C128 1.723 . S
C158 C154 1.397 . S
C158 C157 1.394 . S
C159 H131 0.982 . S
C159 H135 0.979 . S
C159 H136 0.977 . S
C159 C156 1.453 . S
C160 H132 0.979 . S
C160 H133 0.980 . S
C160 H134 0.983 . S
C160 C156 1.684 . S
H161 C179 0.948 . S
H162 C120 0.948 . S
H163 C138 0.979 . S
H164 C138 0.980 . S
H165 C138 0.983 . S
H166 C137 0.982 . S
H167 C137 0.979 . S
H168 C137 0.977 . S
H169 C139 0.948 . S
H170 C141 0.947 . S
H171 C142 0.948 . S
H172 C148 0.982 . S
H173 C148 0.979 . S
H174 C148 0.977 . S
H175 C149 0.979 . S
H176 C149 0.980 . S
H177 C149 0.983 . S
H178 C122 0.947 . S
C179 C122 1.392 . S
C179 C123 1.419 . S
C179 H161 0.948 . S
C180 C181 1.391 . S
C180 C184 1.391 . S
C180 H222 0.948 . S
C181 C180 1.391 . S
C181 C182 1.391 . S
C182 C181 1.391 . S
C182 H238 0.947 . S
C182 C239 1.392 . S
C183 C184 1.391 . S
C183 C187 1.397 . S
C183 C239 1.419 . S
C184 C180 1.391 . S
C184 C183 1.391 . S
C184 C185 1.399 . S
C185 C184 1.399 . S
C185 C188 1.396 . S
C185 C197 1.453 . S
C185 C198 1.684 . S
H186 C210 0.948 . S
C187 C183 1.397 . S
C187 C188 1.394 . S
C187 C206 1.723 . S
C188 C185 1.396 . S
C188 C187 1.394 . S
C188 C218 1.723 . S
H189 C212 0.947 . S
H190 C213 0.948 . S
H191 C219 0.982 . S
H192 C220 0.979 . S
H193 C220 0.980 . S
H194 C220 0.983 1_655 S
H195 C219 0.979 . S
H196 C219 0.977 . S
C197 C185 1.453 . S
C197 H226 0.982 . S
C197 H227 0.979 . S
C197 H228 0.977 . S
C198 C185 1.684 . S
C198 H223 0.979 . S
C198 H224 0.980 . S
C198 H225 0.983 . S
C199 C200 1.391 . S
C199 C204 1.391 . S
C199 H229 0.948 . S
C200 C199 1.391 . S
C200 C201 1.391 . S
C201 C200 1.391 . S
C201 C202 1.392 . S
C201 H230 0.947 . S
C202 C201 1.392 . S
C202 C203 1.419 . S
C202 H231 0.948 . S
C203 C202 1.419 . S
C203 C204 1.391 . S
C203 C207 1.397 . S
C204 C199 1.391 . S
C204 C203 1.391 . S
C204 C205 1.399 . S
C205 C204 1.399 . S
C205 C206 1.396 . S
C205 C208 1.453 . S
C205 C209 1.684 . S
C206 C187 1.723 . S
C206 C205 1.396 . S
C206 C207 1.394 . S
C207 C203 1.397 . S
C207 C206 1.394 . S
C207 C217 1.723 . S
C208 C205 1.453 . S
C208 H232 0.982 . S
C208 H233 0.979 . S
C208 H234 0.977 . S
C209 C205 1.684 . S
C209 H235 0.979 . S
C209 H236 0.980 . S
C209 H237 0.983 . S
C210 H186 0.948 . S
C210 C211 1.391 . S
C210 C215 1.391 1_655 S
C211 C210 1.391 . S
C211 C212 1.390 . S
C212 H189 0.947 . S
C212 C211 1.390 . S
C212 C213 1.393 1_655 S
C213 H190 0.948 . S
C213 C212 1.393 1_455 S
C213 C214 1.419 . S
C214 C213 1.419 . S
C214 C215 1.391 . S
C214 C218 1.397 . S
C215 C210 1.391 1_455 S
C215 C214 1.391 . S
C215 C216 1.399 . S
C216 C215 1.399 . S
C216 C217 1.396 . S
C216 C219 1.453 1_455 S
C216 C220 1.684 . S
C217 C207 1.723 . S
C217 C216 1.396 . S
C217 C218 1.394 . S
C218 C188 1.723 . S
C218 C214 1.397 . S
C218 C217 1.394 . S
C219 H191 0.982 . S
C219 H195 0.979 . S
C219 H196 0.977 . S
C219 C216 1.453 1_655 S
C220 H192 0.979 . S
C220 H193 0.980 . S
C220 H194 0.983 1_455 S
C220 C216 1.684 . S
H221 C239 0.948 . S
H222 C180 0.948 . S
H223 C198 0.979 . S
H224 C198 0.980 . S
H225 C198 0.983 . S
H226 C197 0.982 . S
H227 C197 0.979 . S
H228 C197 0.977 . S
H229 C199 0.948 . S
H230 C201 0.947 . S
H231 C202 0.948 . S
H232 C208 0.982 . S
H233 C208 0.979 . S
H234 C208 0.977 . S
H235 C209 0.979 . S
H236 C209 0.980 . S
H237 C209 0.983 . S
H238 C182 0.947 . S
C239 C182 1.392 . S
C239 C183 1.419 . S
C239 H221 0.948 . S
C240 C241 1.391 . S
C240 C244 1.391 . S
C240 H282 0.948 . S
C241 C240 1.391 . S
C241 C242 1.391 . S
C242 C241 1.391 . S
C242 H298 0.947 . S
C242 C299 1.392 . S
C243 C244 1.391 . S
C243 C247 1.397 . S
C243 C299 1.419 . S
C244 C240 1.391 . S
C244 C243 1.391 . S
C244 C245 1.399 . S
C245 C244 1.399 . S
C245 C248 1.396 . S
C245 C257 1.453 . S
C245 C258 1.684 . S
H246 C270 0.948 . S
C247 C243 1.397 . S
C247 C248 1.394 . S
C247 C266 1.723 . S
C248 C245 1.396 . S
C248 C247 1.394 . S
C248 C278 1.723 1_655 S
H249 C272 0.947 . S
H250 C273 0.948 . S
H251 C279 0.982 . S
H252 C280 0.979 . S
H253 C280 0.980 . S
H254 C280 0.983 . S
H255 C279 0.979 . S
H256 C279 0.977 . S
C257 C245 1.453 . S
C257 H286 0.982 1_655 S
C257 H287 0.979 . S
C257 H288 0.977 1_655 S
C258 C245 1.684 . S
C258 H283 0.979 . S
C258 H284 0.980 . S
C258 H285 0.983 . S
C259 C260 1.391 1_655 S
C259 C264 1.391 . S
C259 H289 0.948 . S
C260 C259 1.391 1_455 S
C260 C261 1.391 . S
C261 C260 1.391 . S
C261 C262 1.392 . S
C261 H290 0.947 . S
C262 C261 1.392 . S
C262 C263 1.419 . S
C262 H291 0.948 . S
C263 C262 1.419 . S
C263 C264 1.391 1_455 S
C263 C267 1.397 . S
C264 C259 1.391 . S
C264 C263 1.391 1_655 S
C264 C265 1.399 . S
C265 C264 1.399 . S
C265 C266 1.396 . S
C265 C268 1.453 . S
C265 C269 1.684 . S
C266 C247 1.723 . S
C266 C265 1.396 . S
C266 C267 1.394 1_655 S
C267 C263 1.397 . S
C267 C266 1.394 1_455 S
C267 C277 1.723 . S
C268 C265 1.453 . S
C268 H292 0.982 . S
C268 H293 0.979 . S
C268 H294 0.977 . S
C269 C265 1.684 . S
C269 H295 0.979 . S
C269 H296 0.980 . S
C269 H297 0.983 . S
C270 H246 0.948 . S
C270 C271 1.391 . S
C270 C275 1.391 . S
C271 C270 1.391 . S
C271 C272 1.391 . S
C272 H249 0.947 . S
C272 C271 1.391 . S
C272 C273 1.392 . S
C273 H250 0.948 . S
C273 C272 1.392 . S
C273 C274 1.419 . S
C274 C273 1.419 . S
C274 C275 1.391 . S
C274 C278 1.397 . S
C275 C270 1.391 . S
C275 C274 1.391 . S
C275 C276 1.399 . S
C276 C275 1.399 . S
C276 C277 1.396 . S
C276 C279 1.453 . S
C276 C280 1.684 . S
C277 C267 1.723 . S
C277 C276 1.396 . S
C277 C278 1.394 . S
C278 C248 1.723 1_455 S
C278 C274 1.397 . S
C278 C277 1.394 . S
C279 H251 0.982 . S
C279 H255 0.979 . S
C279 H256 0.977 . S
C279 C276 1.453 . S
C280 H252 0.979 . S
C280 H253 0.980 . S
C280 H254 0.983 . S
C280 C276 1.684 . S
H281 C299 0.948 . S
H282 C240 0.948 . S
H283 C258 0.979 . S
H284 C258 0.980 . S
H285 C258 0.983 . S
H286 C257 0.982 1_455 S
H287 C257 0.979 . S
H288 C257 0.977 1_455 S
H289 C259 0.948 . S
H290 C261 0.947 . S
H291 C262 0.948 . S
H292 C268 0.982 . S
H293 C268 0.979 . S
H294 C268 0.977 . S
H295 C269 0.979 . S
H296 C269 0.980 . S
H297 C269 0.983 . S
H298 C242 0.947 . S
C299 C242 1.392 . S
C299 C243 1.419 . S
C299 H281 0.948 . S
C300 C301 1.391 . S
C300 C304 1.391 . S
C300 H342 0.948 . S
C301 C300 1.391 . S
C301 C302 1.391 . S
C302 C301 1.391 . S
C302 H358 0.947 . S
C302 C359 1.392 . S
C303 C304 1.391 . S
C303 C307 1.397 . S
C303 C359 1.419 . S
C304 C300 1.391 . S
C304 C303 1.391 . S
C304 C305 1.399 . S
C305 C304 1.399 . S
C305 C308 1.396 1_565 S
C305 C317 1.453 1_565 S
C305 C318 1.687 . S
H306 C330 0.948 . S
C307 C303 1.397 . S
C307 C308 1.394 1_565 S
C307 C326 1.723 . S
C308 C305 1.396 1_545 S
C308 C307 1.394 1_545 S
C308 C338 1.723 . S
H309 C332 0.947 . S
H310 C333 0.948 . S
H311 C339 0.982 . S
H312 C340 0.979 . S
H313 C340 0.980 . S
H314 C340 0.983 . S
H315 C339 0.979 . S
H316 C339 0.977 . S
C317 C305 1.453 1_545 S
C317 H346 0.982 . S
C317 H347 0.979 . S
C317 H348 0.977 . S
C318 C305 1.687 . S
C318 H343 0.980 . S
C318 H344 0.969 1_565 S
C318 H345 0.990 . S
C319 C320 1.391 1_565 S
C319 C324 1.391 . S
C319 H349 0.948 . S
C320 C319 1.391 1_545 S
C320 C321 1.391 . S
C321 C320 1.391 . S
C321 C322 1.392 . S
C321 H350 0.947 . S
C322 C321 1.392 . S
C322 C323 1.419 . S
C322 H351 0.948 . S
C323 C322 1.419 . S
C323 C324 1.391 1_545 S
C323 C327 1.397 . S
C324 C319 1.391 . S
C324 C323 1.391 1_565 S
C324 C325 1.399 . S
C325 C324 1.399 . S
C325 C326 1.396 . S
C325 C328 1.453 . S
C325 C329 1.684 . S
C326 C307 1.723 . S
C326 C325 1.396 . S
C326 C327 1.394 1_565 S
C327 C323 1.397 . S
C327 C326 1.394 1_545 S
C327 C337 1.723 . S
C328 C325 1.453 . S
C328 H352 0.982 . S
C328 H353 0.979 . S
C328 H354 0.977 . S
C329 C325 1.684 . S
C329 H355 0.979 . S
C329 H356 0.980 . S
C329 H357 0.983 . S
C330 H306 0.948 . S
C330 C331 1.391 . S
C330 C335 1.391 . S
C331 C330 1.391 . S
C331 C332 1.391 . S
C332 H309 0.947 . S
C332 C331 1.391 . S
C332 C333 1.392 . S
C333 H310 0.948 . S
C333 C332 1.392 . S
C333 C334 1.419 . S
C334 C333 1.419 . S
C334 C335 1.391 . S
C334 C338 1.397 . S
C335 C330 1.391 . S
C335 C334 1.391 . S
C335 C336 1.399 . S
C336 C335 1.399 . S
C336 C337 1.396 . S
C336 C339 1.453 . S
C336 C340 1.684 . S
C337 C327 1.723 . S
C337 C336 1.396 . S
C337 C338 1.394 . S
C338 C308 1.723 . S
C338 C334 1.397 . S
C338 C337 1.394 . S
C339 H311 0.982 . S
C339 H315 0.979 . S
C339 H316 0.977 . S
C339 C336 1.453 . S
C340 H312 0.979 . S
C340 H313 0.980 . S
C340 H314 0.983 . S
C340 C336 1.684 . S
H341 C359 0.948 . S
H342 C300 0.948 . S
H343 C318 0.980 . S
H344 C318 0.969 1_545 S
H345 C318 0.990 . S
H346 C317 0.982 . S
H347 C317 0.979 . S
H348 C317 0.977 . S
H349 C319 0.948 . S
H350 C321 0.947 . S
H351 C322 0.948 . S
H352 C328 0.982 . S
H353 C328 0.979 . S
H354 C328 0.977 . S
H355 C329 0.979 . S
H356 C329 0.980 . S
H357 C329 0.983 . S
H358 C302 0.947 . S
C359 C302 1.392 . S
C359 C303 1.419 . S
C359 H341 0.948 . S
C360 C361 1.391 . S
C360 C364 1.391 . S
C360 H402 0.948 . S
C361 C360 1.391 . S
C361 C362 1.391 . S
C362 C361 1.391 . S
C362 H418 0.947 . S
C362 C419 1.392 . S
C363 C364 1.391 . S
C363 C367 1.397 . S
C363 C419 1.419 . S
C364 C360 1.391 . S
C364 C363 1.391 . S
C364 C365 1.399 . S
C365 C364 1.399 . S
C365 C368 1.396 . S
C365 C377 1.453 . S
C365 C378 1.684 . S
H366 C390 0.948 . S
C367 C363 1.397 . S
C367 C368 1.394 . S
C367 C386 1.723 . S
C368 C365 1.396 . S
C368 C367 1.394 . S
C368 C398 1.723 . S
H369 C392 0.947 . S
H370 C393 0.948 . S
H371 C399 0.982 . S
H372 C400 0.979 . S
H373 C400 0.980 . S
H374 C400 0.983 . S
H375 C399 0.979 . S
H376 C399 0.977 . S
C377 C365 1.453 . S
C377 H406 0.982 . S
C377 H407 0.979 . S
C377 H408 0.977 . S
C378 C365 1.684 . S
C378 H403 0.979 . S
C378 H404 0.980 . S
C378 H405 0.983 . S
C379 C380 1.391 . S
C379 C384 1.391 . S
C379 H409 0.948 . S
C380 C379 1.391 . S
C380 C381 1.391 . S
C381 C380 1.391 . S
C381 C382 1.392 . S
C381 H410 0.947 . S
C382 C381 1.392 . S
C382 C383 1.419 . S
C382 H411 0.948 . S
C383 C382 1.419 . S
C383 C384 1.391 . S
C383 C387 1.397 . S
C384 C379 1.391 . S
C384 C383 1.391 . S
C384 C385 1.399 . S
C385 C384 1.399 . S
C385 C386 1.396 . S
C385 C388 1.453 . S
C385 C389 1.684 . S
C386 C367 1.723 . S
C386 C385 1.396 . S
C386 C387 1.394 . S
C387 C383 1.397 . S
C387 C386 1.394 . S
C387 C397 1.723 . S
C388 C385 1.453 . S
C388 H412 0.982 . S
C388 H413 0.979 . S
C388 H414 0.977 . S
C389 C385 1.684 . S
C389 H415 0.979 . S
C389 H416 0.980 . S
C389 H417 0.983 . S
C390 H366 0.948 . S
C390 C391 1.391 . S
C390 C395 1.391 . S
C391 C390 1.391 . S
C391 C392 1.391 . S
C392 H369 0.947 . S
C392 C391 1.391 . S
C392 C393 1.392 . S
C393 H370 0.948 . S
C393 C392 1.392 . S
C393 C394 1.419 . S
C394 C393 1.419 . S
C394 C395 1.391 . S
C394 C398 1.397 . S
C395 C390 1.391 . S
C395 C394 1.391 . S
C395 C396 1.399 . S
C396 C395 1.399 . S
C396 C397 1.396 . S
C396 C399 1.453 . S
C396 C400 1.684 . S
C397 C387 1.723 . S
C397 C396 1.396 . S
C397 C398 1.394 . S
C398 C368 1.723 . S
C398 C394 1.397 . S
C398 C397 1.394 . S
C399 H371 0.982 . S
C399 H375 0.979 . S
C399 H376 0.977 . S
C399 C396 1.453 . S
C400 H372 0.979 . S
C400 H373 0.980 . S
C400 H374 0.983 . S
C400 C396 1.684 . S
H401 C419 0.948 . S
H402 C360 0.948 . S
H403 C378 0.979 . S
H404 C378 0.980 . S
H405 C378 0.983 . S
H406 C377 0.982 . S
H407 C377 0.979 . S
H408 C377 0.977 . S
H409 C379 0.948 . S
H410 C381 0.947 . S
H411 C382 0.948 . S
H412 C388 0.982 . S
H413 C388 0.979 . S
H414 C388 0.977 . S
H415 C389 0.979 . S
H416 C389 0.980 . S
H417 C389 0.983 . S
H418 C362 0.947 . S
C419 C362 1.392 . S
C419 C363 1.419 . S
C419 H401 0.948 . S
H420 C438 0.951 . S
H421 C440 0.951 . S
H422 C442 0.950 . S
H423 C443 0.950 . S
H424 C445 0.950 . S
H425 C448 0.950 . S
H426 C449 0.950 . S
H427 C451 0.950 . S
H428 C452 0.950 . S
H429 C453 0.951 . S
H430 C455 0.951 . S
H431 C457 0.950 . S
H432 C458 0.950 . S
H433 C460 0.950 . S
H434 C463 0.950 . S
H435 C464 0.950 . S
H436 C466 0.950 . S
H437 C467 0.950 . S
C438 H420 0.951 . S
C438 C439 1.366 . S
C438 C440 1.388 . S
C439 C438 1.366 . S
C439 C443 1.385 . S
C440 H421 0.951 . S
C440 C438 1.388 . S
C440 C441 1.366 . S
C441 C440 1.366 . S
C441 C442 1.414 . S
C441 C444 1.499 . S
C442 H422 0.950 . S
C442 C441 1.414 . S
C442 C443 1.374 . S
C443 H423 0.950 . S
C443 C439 1.385 . S
C443 C442 1.374 . S
C444 C441 1.499 . S
C444 C445 1.373 . S
C444 C446 1.389 . S
C445 H424 0.950 . S
C445 C444 1.373 . S
C445 C461 1.377 . S
C446 C444 1.389 . S
C446 C447 1.524 . S
C446 C460 1.377 . S
C447 C446 1.524 . S
C447 C448 1.397 . S
C447 C452 1.363 . S
C448 H425 0.950 . S
C448 C447 1.397 . S
C448 C449 1.334 . S
C449 H426 0.950 . S
C449 C448 1.334 . S
C449 C450 1.287 . S
C450 C449 1.287 . S
C450 C451 1.524 . S
C450 H469 0.913 . S
C451 H427 0.950 . S
C451 C450 1.524 . S
C451 C452 1.415 . S
C452 H428 0.950 . S
C452 C447 1.363 . S
C452 C451 1.415 . S
C453 H429 0.951 . S
C453 C454 1.366 . S
C453 C455 1.388 . S
C454 C453 1.366 . S
C454 C458 1.385 . S
C455 H430 0.951 . S
C455 C453 1.388 . S
C455 C456 1.366 . S
C456 C455 1.366 . S
C456 C457 1.414 . S
C456 C459 1.499 . S
C457 H431 0.950 . S
C457 C456 1.414 . S
C457 C458 1.374 . S
C458 H432 0.950 . S
C458 C454 1.385 . S
C458 C457 1.374 . S
C459 C456 1.499 . S
C459 C460 1.373 . S
C459 C461 1.389 . S
C460 H433 0.950 . S
C460 C446 1.377 . S
C460 C459 1.373 . S
C461 C445 1.377 . S
C461 C459 1.389 . S
C461 C462 1.524 . S
C462 C461 1.524 . S
C462 C463 1.397 . S
C462 C467 1.363 . S
C463 H434 0.950 . S
C463 C462 1.397 . S
C463 C464 1.334 . S
C464 H435 0.950 . S
C464 C463 1.334 . S
C464 C465 1.287 . S
C465 C464 1.287 . S
C465 C466 1.524 . S
C465 H468 0.999 . S
C466 H436 0.950 . S
C466 C465 1.524 . S
C466 C467 1.415 . S
C467 H437 0.950 . S
C467 C462 1.363 . S
C467 C466 1.415 . S
H468 C465 0.999 . S
H469 C450 0.913 . S
H470 C488 0.951 . S
H471 C490 0.951 . S
H472 C492 0.950 . S
H473 C493 0.950 . S
H474 C495 0.950 . S
H475 C498 0.950 . S
H476 C499 0.950 . S
H477 C501 0.950 . S
H478 C502 0.950 . S
H479 C503 0.951 . S
H480 C505 0.951 . S
H481 C507 0.950 . S
H482 C508 0.950 . S
H483 C510 0.950 . S
H484 C513 0.950 . S
H485 C514 0.950 . S
H486 C516 0.950 . S
H487 C517 0.950 . S
C488 H470 0.951 . S
C488 C489 1.366 . S
C488 C490 1.388 . S
C489 C488 1.366 . S
C489 C493 1.385 . S
C490 H471 0.951 . S
C490 C488 1.388 . S
C490 C491 1.366 . S
C491 C490 1.366 . S
C491 C492 1.414 . S
C491 C494 1.499 . S
C492 H472 0.950 . S
C492 C491 1.414 . S
C492 C493 1.374 . S
C493 H473 0.950 . S
C493 C489 1.385 . S
C493 C492 1.374 . S
C494 C491 1.499 . S
C494 C495 1.373 . S
C494 C496 1.389 . S
C495 H474 0.950 . S
C495 C494 1.373 . S
C495 C511 1.377 . S
C496 C494 1.389 . S
C496 C497 1.524 . S
C496 C510 1.377 . S
C497 C496 1.524 . S
C497 C498 1.397 . S
C497 C502 1.363 . S
C498 H475 0.950 . S
C498 C497 1.397 . S
C498 C499 1.334 . S
C499 H476 0.950 . S
C499 C498 1.334 . S
C499 C500 1.287 . S
C500 C499 1.287 . S
C500 C501 1.524 . S
C500 H519 0.913 . S
C501 H477 0.950 . S
C501 C500 1.524 . S
C501 C502 1.415 . S
C502 H478 0.950 . S
C502 C497 1.363 . S
C502 C501 1.415 . S
C503 H479 0.951 . S
C503 C504 1.366 . S
C503 C505 1.388 . S
C504 C503 1.366 . S
C504 C508 1.385 . S
C505 H480 0.951 . S
C505 C503 1.388 . S
C505 C506 1.366 . S
C506 C505 1.366 . S
C506 C507 1.414 . S
C506 C509 1.499 . S
C507 H481 0.950 . S
C507 C506 1.414 . S
C507 C508 1.374 . S
C508 H482 0.950 . S
C508 C504 1.385 . S
C508 C507 1.374 . S
C509 C506 1.499 . S
C509 C510 1.373 . S
C509 C511 1.389 . S
C510 H483 0.950 . S
C510 C496 1.377 . S
C510 C509 1.373 . S
C511 C495 1.377 . S
C511 C509 1.389 . S
C511 C512 1.524 . S
C512 C511 1.524 . S
C512 C513 1.397 . S
C512 C517 1.363 . S
C513 H484 0.950 . S
C513 C512 1.397 . S
C513 C514 1.334 . S
C514 H485 0.950 . S
C514 C513 1.334 . S
C514 C515 1.287 . S
C515 C514 1.287 . S
C515 C516 1.524 . S
C515 H518 0.999 . S
C516 H486 0.950 . S
C516 C515 1.524 . S
C516 C517 1.415 . S
C517 H487 0.950 . S
C517 C512 1.363 . S
C517 C516 1.415 . S
H518 C515 0.999 . S
H519 C500 0.913 . S
H520 C538 0.951 . S
H521 C540 0.951 . S
H522 C542 0.950 . S
H523 C543 0.950 . S
H524 C545 0.950 . S
H525 C548 0.950 . S
H526 C549 0.950 . S
H527 C551 0.950 . S
H528 C552 0.950 . S
H529 C553 0.951 . S
H530 C555 0.951 . S
H531 C557 0.950 . S
H532 C558 0.950 . S
H533 C560 0.950 . S
H534 C563 0.950 . S
H535 C564 0.950 . S
H536 C566 0.950 . S
H537 C567 0.950 . S
C538 H520 0.951 . S
C538 C539 1.366 . S
C538 C540 1.388 . S
C539 C538 1.366 . S
C539 C543 1.385 . S
C540 H521 0.951 . S
C540 C538 1.388 . S
C540 C541 1.366 . S
C541 C540 1.366 . S
C541 C542 1.414 . S
C541 C544 1.499 . S
C542 H522 0.950 . S
C542 C541 1.414 . S
C542 C543 1.374 . S
C543 H523 0.950 . S
C543 C539 1.385 . S
C543 C542 1.374 . S
C544 C541 1.499 . S
C544 C545 1.373 . S
C544 C546 1.389 . S
C545 H524 0.950 . S
C545 C544 1.373 . S
C545 C561 1.377 . S
C546 C544 1.389 . S
C546 C547 1.524 . S
C546 C560 1.377 . S
C547 C546 1.524 . S
C547 C548 1.397 . S
C547 C552 1.363 . S
C548 H525 0.950 . S
C548 C547 1.397 . S
C548 C549 1.334 . S
C549 H526 0.950 . S
C549 C548 1.334 . S
C549 C550 1.287 . S
C550 C549 1.287 . S
C550 C551 1.524 . S
C550 H569 0.913 . S
C551 H527 0.950 . S
C551 C550 1.524 . S
C551 C552 1.415 . S
C552 H528 0.950 . S
C552 C547 1.363 . S
C552 C551 1.415 . S
C553 H529 0.951 . S
C553 C554 1.366 . S
C553 C555 1.388 . S
C554 C553 1.366 . S
C554 C558 1.385 . S
C555 H530 0.951 . S
C555 C553 1.388 . S
C555 C556 1.366 . S
C556 C555 1.366 . S
C556 C557 1.414 . S
C556 C559 1.499 . S
C557 H531 0.950 . S
C557 C556 1.414 . S
C557 C558 1.374 . S
C558 H532 0.950 . S
C558 C554 1.385 . S
C558 C557 1.374 . S
C559 C556 1.499 . S
C559 C560 1.373 . S
C559 C561 1.389 . S
C560 H533 0.950 . S
C560 C546 1.377 . S
C560 C559 1.373 . S
C561 C545 1.377 . S
C561 C559 1.389 . S
C561 C562 1.524 . S
C562 C561 1.524 . S
C562 C563 1.397 . S
C562 C567 1.363 . S
C563 H534 0.950 . S
C563 C562 1.397 . S
C563 C564 1.334 . S
C564 H535 0.950 . S
C564 C563 1.334 . S
C564 C565 1.287 . S
C565 C564 1.287 . S
C565 C566 1.524 . S
C565 H568 0.999 . S
C566 H536 0.950 . S
C566 C565 1.524 . S
C566 C567 1.415 . S
C567 H537 0.950 . S
C567 C562 1.363 . S
C567 C566 1.415 . S
H568 C565 0.999 . S
H569 C550 0.913 . S
H570 C588 0.951 . S
H571 C590 0.951 . S
H572 C592 0.950 . S
H573 C593 0.950 . S
H574 C595 0.950 . S
H575 C598 0.950 . S
H576 C599 0.950 . S
H577 C601 0.950 . S
H578 C602 0.950 . S
H579 C603 0.951 . S
H580 C605 0.951 . S
H581 C607 0.950 . S
H582 C608 0.950 . S
H583 C610 0.950 . S
H584 C613 0.950 . S
H585 C614 0.950 . S
H586 C616 0.950 . S
H587 C617 0.950 . S
C588 H570 0.951 . S
C588 C589 1.366 . S
C588 C590 1.388 . S
C589 C588 1.366 . S
C589 C593 1.385 . S
C590 H571 0.951 . S
C590 C588 1.388 . S
C590 C591 1.366 . S
C591 C590 1.366 . S
C591 C592 1.414 . S
C591 C594 1.499 . S
C592 H572 0.950 . S
C592 C591 1.414 . S
C592 C593 1.374 . S
C593 H573 0.950 . S
C593 C589 1.385 . S
C593 C592 1.374 . S
C594 C591 1.499 . S
C594 C595 1.373 . S
C594 C596 1.389 . S
C595 H574 0.950 . S
C595 C594 1.373 . S
C595 C611 1.377 . S
C596 C594 1.389 . S
C596 C597 1.524 . S
C596 C610 1.377 . S
C597 C596 1.524 . S
C597 C598 1.397 . S
C597 C602 1.363 . S
C598 H575 0.950 . S
C598 C597 1.397 . S
C598 C599 1.334 . S
C599 H576 0.950 . S
C599 C598 1.334 . S
C599 C600 1.287 . S
C600 C599 1.287 . S
C600 C601 1.524 . S
C600 H619 0.913 . S
C601 H577 0.950 . S
C601 C600 1.524 . S
C601 C602 1.415 . S
C602 H578 0.950 . S
C602 C597 1.363 . S
C602 C601 1.415 . S
C603 H579 0.951 . S
C603 C604 1.366 . S
C603 C605 1.388 . S
C604 C603 1.366 . S
C604 C608 1.385 . S
C605 H580 0.951 . S
C605 C603 1.388 . S
C605 C606 1.366 . S
C606 C605 1.366 . S
C606 C607 1.414 . S
C606 C609 1.499 . S
C607 H581 0.950 . S
C607 C606 1.414 . S
C607 C608 1.374 . S
C608 H582 0.950 . S
C608 C604 1.385 . S
C608 C607 1.374 . S
C609 C606 1.499 . S
C609 C610 1.373 . S
C609 C611 1.389 . S
C610 H583 0.950 . S
C610 C596 1.377 . S
C610 C609 1.373 . S
C611 C595 1.377 . S
C611 C609 1.389 . S
C611 C612 1.524 . S
C612 C611 1.524 . S
C612 C613 1.397 . S
C612 C617 1.363 . S
C613 H584 0.950 . S
C613 C612 1.397 . S
C613 C614 1.334 . S
C614 H585 0.950 . S
C614 C613 1.334 . S
C614 C615 1.287 . S
C615 C614 1.287 . S
C615 C616 1.524 . S
C615 H618 0.999 . S
C616 H586 0.950 . S
C616 C615 1.524 . S
C616 C617 1.415 . S
C617 H587 0.950 . S
C617 C612 1.363 . S
C617 C616 1.415 . S
H618 C615 0.999 . S
H619 C600 0.913 . S
H620 C638 0.951 . S
H621 C640 0.951 . S
H622 C642 0.950 . S
H623 C643 0.950 . S
H624 C645 0.950 . S
H625 C648 0.950 . S
H626 C649 0.950 . S
H627 C651 0.950 . S
H628 C652 0.950 . S
H629 C653 0.951 . S
H630 C655 0.951 . S
H631 C657 0.950 . S
H632 C658 0.950 . S
H633 C660 0.950 . S
H634 C663 0.950 . S
H635 C664 0.950 . S
H636 C666 0.950 . S
H637 C667 0.950 . S
C638 H620 0.951 . S
C638 C639 1.366 . S
C638 C640 1.388 . S
C639 C638 1.366 . S
C639 C643 1.385 . S
C640 H621 0.951 . S
C640 C638 1.388 . S
C640 C641 1.366 . S
C641 C640 1.366 . S
C641 C642 1.414 . S
C641 C644 1.499 . S
C642 H622 0.950 . S
C642 C641 1.414 . S
C642 C643 1.374 . S
C643 H623 0.950 . S
C643 C639 1.385 . S
C643 C642 1.374 . S
C644 C641 1.499 . S
C644 C645 1.373 . S
C644 C646 1.389 . S
C645 H624 0.950 . S
C645 C644 1.373 . S
C645 C661 1.377 . S
C646 C644 1.389 . S
C646 C647 1.524 . S
C646 C660 1.377 . S
C647 C646 1.524 . S
C647 C648 1.397 . S
C647 C652 1.363 . S
C648 H625 0.950 . S
C648 C647 1.397 . S
C648 C649 1.334 . S
C649 H626 0.950 . S
C649 C648 1.334 . S
C649 C650 1.287 . S
C650 C649 1.287 . S
C650 C651 1.524 . S
C650 H669 0.913 . S
C651 H627 0.950 . S
C651 C650 1.524 . S
C651 C652 1.415 . S
C652 H628 0.950 . S
C652 C647 1.363 . S
C652 C651 1.415 . S
C653 H629 0.951 . S
C653 C654 1.366 . S
C653 C655 1.388 . S
C654 C653 1.366 . S
C654 C658 1.385 . S
C655 H630 0.951 . S
C655 C653 1.388 . S
C655 C656 1.366 . S
C656 C655 1.366 . S
C656 C657 1.414 . S
C656 C659 1.499 . S
C657 H631 0.950 . S
C657 C656 1.414 . S
C657 C658 1.374 . S
C658 H632 0.950 . S
C658 C654 1.385 . S
C658 C657 1.374 . S
C659 C656 1.499 . S
C659 C660 1.373 . S
C659 C661 1.389 . S
C660 H633 0.950 . S
C660 C646 1.377 . S
C660 C659 1.373 . S
C661 C645 1.377 . S
C661 C659 1.389 . S
C661 C662 1.524 . S
C662 C661 1.524 . S
C662 C663 1.397 . S
C662 C667 1.363 . S
C663 H634 0.950 . S
C663 C662 1.397 . S
C663 C664 1.334 . S
C664 H635 0.950 . S
C664 C663 1.334 . S
C664 C665 1.287 . S
C665 C664 1.287 . S
C665 C666 1.524 . S
C665 H668 0.999 . S
C666 H636 0.950 . S
C666 C665 1.524 . S
C666 C667 1.415 . S
C667 H637 0.950 . S
C667 C662 1.363 . S
C667 C666 1.415 . S
H668 C665 0.999 . S
H669 C650 0.913 . S
H670 C688 0.951 . S
H671 C690 0.951 . S
H672 C692 0.950 . S
H673 C693 0.950 . S
H674 C695 0.950 . S
H675 C698 0.950 . S
H676 C699 0.950 . S
H677 C701 0.950 . S
H678 C702 0.950 . S
H679 C703 0.951 . S
H680 C705 0.951 . S
H681 C707 0.950 . S
H682 C708 0.950 . S
H683 C710 0.950 . S
H684 C713 0.950 . S
H685 C714 0.950 . S
H686 C716 0.950 . S
H687 C717 0.950 . S
C688 H670 0.951 . S
C688 C689 1.366 . S
C688 C690 1.388 . S
C689 C688 1.366 . S
C689 C693 1.385 . S
C690 H671 0.951 . S
C690 C688 1.388 . S
C690 C691 1.366 . S
C691 C690 1.366 . S
C691 C692 1.414 . S
C691 C694 1.499 . S
C692 H672 0.950 . S
C692 C691 1.414 . S
C692 C693 1.374 . S
C693 H673 0.950 . S
C693 C689 1.385 . S
C693 C692 1.374 . S
C694 C691 1.499 . S
C694 C695 1.373 . S
C694 C696 1.389 . S
C695 H674 0.950 . S
C695 C694 1.373 . S
C695 C711 1.377 . S
C696 C694 1.389 . S
C696 C697 1.524 . S
C696 C710 1.377 . S
C697 C696 1.524 . S
C697 C698 1.397 . S
C697 C702 1.363 . S
C698 H675 0.950 . S
C698 C697 1.397 . S
C698 C699 1.334 . S
C699 H676 0.950 . S
C699 C698 1.334 . S
C699 C700 1.287 . S
C700 C699 1.287 . S
C700 C701 1.524 . S
C700 H719 0.913 . S
C701 H677 0.950 . S
C701 C700 1.524 . S
C701 C702 1.415 . S
C702 H678 0.950 . S
C702 C697 1.363 . S
C702 C701 1.415 . S
C703 H679 0.951 . S
C703 C704 1.366 . S
C703 C705 1.388 . S
C704 C703 1.366 . S
C704 C708 1.385 . S
C705 H680 0.951 . S
C705 C703 1.388 . S
C705 C706 1.366 . S
C706 C705 1.366 . S
C706 C707 1.414 . S
C706 C709 1.499 . S
C707 H681 0.950 . S
C707 C706 1.414 . S
C707 C708 1.374 . S
C708 H682 0.950 . S
C708 C704 1.385 . S
C708 C707 1.374 . S
C709 C706 1.499 . S
C709 C710 1.373 . S
C709 C711 1.389 . S
C710 H683 0.950 . S
C710 C696 1.377 . S
C710 C709 1.373 . S
C711 C695 1.377 . S
C711 C709 1.389 . S
C711 C712 1.524 . S
C712 C711 1.524 . S
C712 C713 1.397 . S
C712 C717 1.363 . S
C713 H684 0.950 . S
C713 C712 1.397 . S
C713 C714 1.334 . S
C714 H685 0.950 . S
C714 C713 1.334 . S
C714 C715 1.287 . S
C715 C714 1.287 . S
C715 C716 1.524 . S
C715 H718 0.999 . S
C716 H686 0.950 . S
C716 C715 1.524 . S
C716 C717 1.415 . S
C717 H687 0.950 . S
C717 C712 1.363 . S
C717 C716 1.415 . S
H718 C715 0.999 . S
H719 C700 0.913 . S
H720 C738 0.951 . S
H721 C740 0.951 . S
H722 C742 0.950 . S
H723 C743 0.950 . S
H724 C745 0.950 . S
H725 C748 0.950 . S
H726 C749 0.950 . S
H727 C751 0.950 . S
H728 C752 0.950 . S
H729 C753 0.951 . S
H730 C755 0.951 . S
H731 C757 0.950 . S
H732 C758 0.950 . S
H733 C760 0.950 . S
H734 C763 0.950 . S
H735 C764 0.950 . S
H736 C766 0.950 . S
H737 C767 0.950 . S
C738 H720 0.951 . S
C738 C739 1.366 . S
C738 C740 1.388 . S
C739 C738 1.366 . S
C739 C743 1.385 . S
C740 H721 0.951 . S
C740 C738 1.388 . S
C740 C741 1.366 . S
C741 C740 1.366 . S
C741 C742 1.414 . S
C741 C744 1.499 . S
C742 H722 0.950 . S
C742 C741 1.414 . S
C742 C743 1.374 . S
C743 H723 0.950 . S
C743 C739 1.385 . S
C743 C742 1.374 . S
C744 C741 1.499 . S
C744 C745 1.373 . S
C744 C746 1.389 . S
C745 H724 0.950 . S
C745 C744 1.373 . S
C745 C761 1.377 . S
C746 C744 1.389 . S
C746 C747 1.524 . S
C746 C760 1.377 . S
C747 C746 1.524 . S
C747 C748 1.397 . S
C747 C752 1.363 . S
C748 H725 0.950 . S
C748 C747 1.397 . S
C748 C749 1.334 . S
C749 H726 0.950 . S
C749 C748 1.334 . S
C749 C750 1.287 . S
C750 C749 1.287 . S
C750 C751 1.524 . S
C750 H769 0.913 . S
C751 H727 0.950 . S
C751 C750 1.524 . S
C751 C752 1.415 . S
C752 H728 0.950 . S
C752 C747 1.363 . S
C752 C751 1.415 . S
C753 H729 0.951 . S
C753 C754 1.366 . S
C753 C755 1.388 . S
C754 C753 1.366 . S
C754 C758 1.385 . S
C755 H730 0.951 . S
C755 C753 1.388 . S
C755 C756 1.366 . S
C756 C755 1.366 . S
C756 C757 1.414 . S
C756 C759 1.499 . S
C757 H731 0.950 . S
C757 C756 1.414 . S
C757 C758 1.374 . S
C758 H732 0.950 . S
C758 C754 1.385 . S
C758 C757 1.374 . S
C759 C756 1.499 . S
C759 C760 1.373 . S
C759 C761 1.389 . S
C760 H733 0.950 . S
C760 C746 1.377 . S
C760 C759 1.373 . S
C761 C745 1.377 . S
C761 C759 1.389 . S
C761 C762 1.524 . S
C762 C761 1.524 . S
C762 C763 1.397 . S
C762 C767 1.363 . S
C763 H734 0.950 . S
C763 C762 1.397 . S
C763 C764 1.334 . S
C764 H735 0.950 . S
C764 C763 1.334 . S
C764 C765 1.287 . S
C765 C764 1.287 . S
C765 C766 1.524 . S
C765 H768 0.999 . S
C766 H736 0.950 . S
C766 C765 1.524 . S
C766 C767 1.415 . S
C767 H737 0.950 . S
C767 C762 1.363 . S
C767 C766 1.415 . S
H768 C765 0.999 . S
H769 C750 0.913 . S
H770 C788 0.951 . S
H771 C790 0.951 . S
H772 C792 0.950 . S
H773 C793 0.950 . S
H774 C795 0.950 . S
H775 C798 0.950 . S
H776 C799 0.950 . S
H777 C801 0.950 . S
H778 C802 0.950 . S
H779 C803 0.951 . S
H780 C805 0.951 . S
H781 C807 0.950 . S
H782 C808 0.950 . S
H783 C810 0.950 . S
H784 C813 0.950 . S
H785 C814 0.950 . S
H786 C816 0.950 . S
H787 C817 0.950 . S
C788 H770 0.951 . S
C788 C789 1.366 . S
C788 C790 1.388 . S
C789 C788 1.366 . S
C789 C793 1.385 . S
C790 H771 0.951 . S
C790 C788 1.388 . S
C790 C791 1.366 . S
C791 C790 1.366 . S
C791 C792 1.414 . S
C791 C794 1.499 . S
C792 H772 0.950 . S
C792 C791 1.414 . S
C792 C793 1.374 . S
C793 H773 0.950 . S
C793 C789 1.385 . S
C793 C792 1.374 . S
C794 C791 1.499 . S
C794 C795 1.373 . S
C794 C796 1.389 . S
C795 H774 0.950 . S
C795 C794 1.373 . S
C795 C811 1.377 . S
C796 C794 1.389 . S
C796 C797 1.524 . S
C796 C810 1.377 . S
C797 C796 1.524 . S
C797 C798 1.397 . S
C797 C802 1.363 . S
C798 H775 0.950 . S
C798 C797 1.397 . S
C798 C799 1.334 . S
C799 H776 0.950 . S
C799 C798 1.334 . S
C799 C800 1.287 . S
C800 C799 1.287 . S
C800 C801 1.524 . S
C800 H819 0.913 . S
C801 H777 0.950 . S
C801 C800 1.524 . S
C801 C802 1.415 . S
C802 H778 0.950 . S
C802 C797 1.363 . S
C802 C801 1.415 . S
C803 H779 0.951 . S
C803 C804 1.366 . S
C803 C805 1.388 . S
C804 C803 1.366 . S
C804 C808 1.385 . S
C805 H780 0.951 . S
C805 C803 1.388 . S
C805 C806 1.366 . S
C806 C805 1.366 . S
C806 C807 1.414 . S
C806 C809 1.499 . S
C807 H781 0.950 . S
C807 C806 1.414 . S
C807 C808 1.374 . S
C808 H782 0.950 . S
C808 C804 1.385 . S
C808 C807 1.374 . S
C809 C806 1.499 . S
C809 C810 1.373 . S
C809 C811 1.389 . S
C810 H783 0.950 . S
C810 C796 1.377 . S
C810 C809 1.373 . S
C811 C795 1.377 . S
C811 C809 1.389 . S
C811 C812 1.524 . S
C812 C811 1.524 . S
C812 C813 1.397 . S
C812 C817 1.363 . S
C813 H784 0.950 . S
C813 C812 1.397 . S
C813 C814 1.334 . S
C814 H785 0.950 . S
C814 C813 1.334 . S
C814 C815 1.287 . S
C815 C814 1.287 . S
C815 C816 1.524 . S
C815 H818 0.999 . S
C816 H786 0.950 . S
C816 C815 1.524 . S
C816 C817 1.415 . S
C817 H787 0.950 . S
C817 C812 1.363 . S
C817 C816 1.415 . S
H818 C815 0.999 . S
H819 C800 0.913 . S
H820 C838 0.951 . S
H821 C840 0.951 . S
H822 C842 0.950 . S
H823 C843 0.950 . S
H824 C845 0.950 . S
H825 C848 0.950 . S
H826 C849 0.950 . S
H827 C851 0.950 . S
H828 C852 0.950 . S
H829 C853 0.951 . S
H830 C855 0.951 . S
H831 C857 0.950 . S
H832 C858 0.950 . S
H833 C860 0.950 . S
H834 C863 0.950 . S
H835 C864 0.950 . S
H836 C866 0.950 . S
H837 C867 0.950 . S
C838 H820 0.951 . S
C838 C839 1.366 . S
C838 C840 1.388 . S
C839 C838 1.366 . S
C839 C843 1.385 . S
C840 H821 0.951 . S
C840 C838 1.388 . S
C840 C841 1.366 . S
C841 C840 1.366 . S
C841 C842 1.414 . S
C841 C844 1.499 . S
C842 H822 0.950 . S
C842 C841 1.414 . S
C842 C843 1.374 . S
C843 H823 0.950 . S
C843 C839 1.385 . S
C843 C842 1.374 . S
C844 C841 1.499 . S
C844 C845 1.373 . S
C844 C846 1.389 . S
C845 H824 0.950 . S
C845 C844 1.373 . S
C845 C861 1.377 . S
C846 C844 1.389 . S
C846 C847 1.524 . S
C846 C860 1.377 . S
C847 C846 1.524 . S
C847 C848 1.397 . S
C847 C852 1.363 . S
C848 H825 0.950 . S
C848 C847 1.397 . S
C848 C849 1.334 . S
C849 H826 0.950 . S
C849 C848 1.334 . S
C849 C850 1.287 . S
C850 C849 1.287 . S
C850 C851 1.524 . S
C850 H869 0.913 . S
C851 H827 0.950 . S
C851 C850 1.524 . S
C851 C852 1.415 . S
C852 H828 0.950 . S
C852 C847 1.363 . S
C852 C851 1.415 . S
C853 H829 0.951 . S
C853 C854 1.366 . S
C853 C855 1.388 . S
C854 C853 1.366 . S
C854 C858 1.385 . S
C855 H830 0.951 . S
C855 C853 1.388 . S
C855 C856 1.366 . S
C856 C855 1.366 . S
C856 C857 1.414 . S
C856 C859 1.499 . S
C857 H831 0.950 . S
C857 C856 1.414 . S
C857 C858 1.374 . S
C858 H832 0.950 . S
C858 C854 1.385 . S
C858 C857 1.374 . S
C859 C856 1.499 . S
C859 C860 1.373 . S
C859 C861 1.389 . S
C860 H833 0.950 . S
C860 C846 1.377 . S
C860 C859 1.373 . S
C861 C845 1.377 . S
C861 C859 1.389 . S
C861 C862 1.524 . S
C862 C861 1.524 . S
C862 C863 1.397 . S
C862 C867 1.363 . S
C863 H834 0.950 . S
C863 C862 1.397 . S
C863 C864 1.334 . S
C864 H835 0.950 . S
C864 C863 1.334 . S
C864 C865 1.287 . S
C865 C864 1.287 . S
C865 C866 1.524 . S
C865 H868 0.999 . S
C866 H836 0.950 . S
C866 C865 1.524 . S
C866 C867 1.415 . S
C867 H837 0.950 . S
C867 C862 1.363 . S
C867 C866 1.415 . S
H868 C865 0.999 . S
H869 C850 0.913 . S
H870 C888 0.951 . S
H871 C890 0.951 . S
H872 C892 0.950 . S
H873 C893 0.950 . S
H874 C895 0.950 . S
H875 C898 0.950 . S
H876 C899 0.950 . S
H877 C901 0.950 . S
H878 C902 0.950 . S
H879 C903 0.951 . S
H880 C905 0.951 . S
H881 C907 0.950 . S
H882 C908 0.950 . S
H883 C910 0.950 . S
H884 C913 0.950 . S
H885 C914 0.950 . S
H886 C916 0.950 . S
H887 C917 0.950 . S
C888 H870 0.951 . S
C888 C889 1.366 . S
C888 C890 1.388 . S
C889 C888 1.366 . S
C889 C893 1.385 . S
C890 H871 0.951 . S
C890 C888 1.388 . S
C890 C891 1.366 . S
C891 C890 1.366 . S
C891 C892 1.414 . S
C891 C894 1.499 . S
C892 H872 0.950 . S
C892 C891 1.414 . S
C892 C893 1.374 . S
C893 H873 0.950 . S
C893 C889 1.385 . S
C893 C892 1.374 . S
C894 C891 1.499 . S
C894 C895 1.373 . S
C894 C896 1.389 . S
C895 H874 0.950 . S
C895 C894 1.373 . S
C895 C911 1.377 . S
C896 C894 1.389 . S
C896 C897 1.524 . S
C896 C910 1.377 . S
C897 C896 1.524 . S
C897 C898 1.397 . S
C897 C902 1.363 . S
C898 H875 0.950 . S
C898 C897 1.397 . S
C898 C899 1.334 . S
C899 H876 0.950 . S
C899 C898 1.334 . S
C899 C900 1.287 . S
C900 C899 1.287 . S
C900 C901 1.524 . S
C900 H919 0.913 . S
C901 H877 0.950 . S
C901 C900 1.524 . S
C901 C902 1.415 . S
C902 H878 0.950 . S
C902 C897 1.363 . S
C902 C901 1.415 . S
C903 H879 0.951 . S
C903 C904 1.366 . S
C903 C905 1.388 . S
C904 C903 1.366 . S
C904 C908 1.385 . S
C905 H880 0.951 . S
C905 C903 1.388 . S
C905 C906 1.366 . S
C906 C905 1.366 . S
C906 C907 1.414 . S
C906 C909 1.499 . S
C907 H881 0.950 . S
C907 C906 1.414 . S
C907 C908 1.374 . S
C908 H882 0.950 . S
C908 C904 1.385 . S
C908 C907 1.374 . S
C909 C906 1.499 . S
C909 C910 1.373 . S
C909 C911 1.389 . S
C910 H883 0.950 . S
C910 C896 1.377 . S
C910 C909 1.373 . S
C911 C895 1.377 . S
C911 C909 1.389 . S
C911 C912 1.524 . S
C912 C911 1.524 . S
C912 C913 1.397 . S
C912 C917 1.363 . S
C913 H884 0.950 . S
C913 C912 1.397 . S
C913 C914 1.334 . S
C914 H885 0.950 . S
C914 C913 1.334 . S
C914 C915 1.287 . S
C915 C914 1.287 . S
C915 C916 1.524 . S
C915 H918 0.999 . S
C916 H886 0.950 . S
C916 C915 1.524 . S
C916 C917 1.415 . S
C917 H887 0.950 . S
C917 C912 1.363 . S
C917 C916 1.415 . S
H918 C915 0.999 . S
H919 C900 0.913 . S
H920 C938 0.951 . S
H921 C940 0.951 . S
H922 C942 0.950 . S
H923 C943 0.950 . S
H924 C945 0.950 . S
H925 C948 0.950 . S
H926 C949 0.950 . S
H927 C951 0.950 . S
H928 C952 0.950 . S
H929 C953 0.951 . S
H930 C955 0.951 . S
H931 C957 0.950 . S
H932 C958 0.950 . S
H933 C960 0.950 . S
H934 C963 0.950 . S
H935 C964 0.950 . S
H936 C966 0.950 . S
H937 C967 0.950 . S
C938 H920 0.951 . S
C938 C939 1.366 . S
C938 C940 1.388 . S
C939 C938 1.366 . S
C939 C943 1.385 . S
C940 H921 0.951 . S
C940 C938 1.388 . S
C940 C941 1.366 . S
C941 C940 1.366 . S
C941 C942 1.414 . S
C941 C944 1.499 . S
C942 H922 0.950 . S
C942 C941 1.414 . S
C942 C943 1.374 . S
C943 H923 0.950 . S
C943 C939 1.385 . S
C943 C942 1.374 . S
C944 C941 1.499 . S
C944 C945 1.373 . S
C944 C946 1.389 . S
C945 H924 0.950 . S
C945 C944 1.373 . S
C945 C961 1.377 . S
C946 C944 1.389 . S
C946 C947 1.524 . S
C946 C960 1.377 . S
C947 C946 1.524 . S
C947 C948 1.397 . S
C947 C952 1.363 . S
C948 H925 0.950 . S
C948 C947 1.397 . S
C948 C949 1.334 . S
C949 H926 0.950 . S
C949 C948 1.334 . S
C949 C950 1.287 . S
C950 C949 1.287 . S
C950 C951 1.524 . S
C950 H969 0.913 . S
C951 H927 0.950 . S
C951 C950 1.524 . S
C951 C952 1.415 . S
C952 H928 0.950 . S
C952 C947 1.363 . S
C952 C951 1.415 . S
C953 H929 0.951 . S
C953 C954 1.366 . S
C953 C955 1.388 . S
C954 C953 1.366 . S
C954 C958 1.385 . S
C955 H930 0.951 . S
C955 C953 1.388 . S
C955 C956 1.366 . S
C956 C955 1.366 . S
C956 C957 1.414 . S
C956 C959 1.499 . S
C957 H931 0.950 . S
C957 C956 1.414 . S
C957 C958 1.374 . S
C958 H932 0.950 . S
C958 C954 1.385 . S
C958 C957 1.374 . S
C959 C956 1.499 . S
C959 C960 1.373 . S
C959 C961 1.389 . S
C960 H933 0.950 . S
C960 C946 1.377 . S
C960 C959 1.373 . S
C961 C945 1.377 . S
C961 C959 1.389 . S
C961 C962 1.524 . S
C962 C961 1.524 . S
C962 C963 1.397 . S
C962 C967 1.363 . S
C963 H934 0.950 . S
C963 C962 1.397 . S
C963 C964 1.334 . S
C964 H935 0.950 . S
C964 C963 1.334 . S
C964 C965 1.287 . S
C965 C964 1.287 . S
C965 C966 1.524 . S
C965 H968 0.999 . S
C966 H936 0.950 . S
C966 C965 1.524 . S
C966 C967 1.415 . S
C967 H937 0.950 . S
C967 C962 1.363 . S
C967 C966 1.415 . S
H968 C965 0.999 . S
H969 C950 0.913 . S
H970 C988 0.951 . S
H971 C990 0.951 . S
H972 C992 0.950 . S
H973 C993 0.950 . S
H974 C995 0.950 . S
H975 C998 0.950 . S
H976 C999 0.950 . S
H977 C1001 0.950 . S
H978 C1002 0.950 . S
H979 C1003 0.951 . S
H980 C1005 0.951 . S
H981 C1007 0.950 . S
H982 C1008 0.950 . S
H983 C1010 0.950 . S
H984 C1013 0.950 . S
H985 C1014 0.950 . S
H986 C1016 0.950 . S
H987 C1017 0.950 . S
C988 H970 0.951 . S
C988 C989 1.366 . S
C988 C990 1.388 . S
C989 C988 1.366 . S
C989 C993 1.385 . S
C990 H971 0.951 . S
C990 C988 1.388 . S
C990 C991 1.366 . S
C991 C990 1.366 . S
C991 C992 1.414 . S
C991 C994 1.499 . S
C992 H972 0.950 . S
C992 C991 1.414 . S
C992 C993 1.374 . S
C993 H973 0.950 . S
C993 C989 1.385 . S
C993 C992 1.374 . S
C994 C991 1.499 . S
C994 C995 1.373 . S
C994 C996 1.389 . S
C995 H974 0.950 . S
C995 C994 1.373 . S
C995 C1011 1.377 . S
C996 C994 1.389 . S
C996 C997 1.524 . S
C996 C1010 1.377 . S
C997 C996 1.524 . S
C997 C998 1.397 . S
C997 C1002 1.363 . S
C998 H975 0.950 . S
C998 C997 1.397 . S
C998 C999 1.334 . S
C999 H976 0.950 . S
C999 C998 1.334 . S
C999 C1000 1.287 . S
C1000 C999 1.287 . S
C1000 C1001 1.524 . S
C1000 H1019 0.913 . S
C1001 H977 0.950 . S
C1001 C1000 1.524 . S
C1001 C1002 1.415 . S
C1002 H978 0.950 . S
C1002 C997 1.363 . S
C1002 C1001 1.415 . S
C1003 H979 0.951 . S
C1003 C1004 1.366 . S
C1003 C1005 1.388 . S
C1004 C1003 1.366 . S
C1004 C1008 1.385 . S
C1005 H980 0.951 . S
C1005 C1003 1.388 . S
C1005 C1006 1.366 . S
C1006 C1005 1.366 . S
C1006 C1007 1.414 . S
C1006 C1009 1.499 . S
C1007 H981 0.950 . S
C1007 C1006 1.414 . S
C1007 C1008 1.374 . S
C1008 H982 0.950 . S
C1008 C1004 1.385 . S
C1008 C1007 1.374 . S
C1009 C1006 1.499 . S
C1009 C1010 1.373 . S
C1009 C1011 1.389 . S
C1010 H983 0.950 . S
C1010 C996 1.377 . S
C1010 C1009 1.373 . S
C1011 C995 1.377 . S
C1011 C1009 1.389 . S
C1011 C1012 1.524 . S
C1012 C1011 1.524 . S
C1012 C1013 1.397 . S
C1012 C1017 1.363 . S
C1013 H984 0.950 . S
C1013 C1012 1.397 . S
C1013 C1014 1.334 . S
C1014 H985 0.950 . S
C1014 C1013 1.334 . S
C1014 C1015 1.287 . S
C1015 C1014 1.287 . S
C1015 C1016 1.524 . S
C1015 H1018 0.999 . S
C1016 H986 0.950 . S
C1016 C1015 1.524 . S
C1016 C1017 1.415 . S
C1017 H987 0.950 . S
C1017 C1012 1.363 . S
C1017 C1016 1.415 . S
H1018 C1015 0.999 . S
H1019 C1000 0.913 . S
H1020 C1038 0.951 . S
H1021 C1040 0.951 . S
H1022 C1042 0.950 . S
H1023 C1043 0.950 . S
H1024 C1045 0.950 . S
H1025 C1048 0.950 . S
H1026 C1049 0.950 . S
H1027 C1051 0.950 . S
H1028 C1052 0.950 . S
H1029 C1053 0.951 . S
H1030 C1055 0.947 1_554 S
H1031 C1057 0.939 1_554 S
H1032 C1058 0.950 . S
H1033 C1060 0.950 . S
H1034 C1063 0.950 . S
H1035 C1064 0.975 . S
H1036 C1066 0.950 . S
H1037 C1067 0.950 . S
C1038 H1020 0.951 . S
C1038 C1039 1.366 . S
C1038 C1040 1.388 . S
C1039 C1038 1.366 . S
C1039 C1043 1.385 . S
C1040 H1021 0.951 . S
C1040 C1038 1.388 . S
C1040 C1041 1.366 . S
C1041 C1040 1.366 . S
C1041 C1042 1.414 . S
C1041 C1044 1.499 . S
C1042 H1022 0.950 . S
C1042 C1041 1.414 . S
C1042 C1043 1.374 . S
C1043 H1023 0.950 . S
C1043 C1039 1.385 . S
C1043 C1042 1.374 . S
C1044 C1041 1.499 . S
C1044 C1045 1.373 . S
C1044 C1046 1.389 . S
C1045 H1024 0.950 . S
C1045 C1044 1.373 . S
C1045 C1061 1.377 . S
C1046 C1044 1.389 . S
C1046 C1047 1.524 . S
C1046 C1060 1.377 . S
C1047 C1046 1.524 . S
C1047 C1048 1.397 . S
C1047 C1052 1.363 . S
C1048 H1025 0.950 . S
C1048 C1047 1.397 . S
C1048 C1049 1.334 . S
C1049 H1026 0.950 . S
C1049 C1048 1.334 . S
C1049 C1050 1.287 . S
C1050 C1049 1.287 . S
C1050 C1051 1.524 . S
C1050 H1069 0.913 . S
C1051 H1027 0.950 . S
C1051 C1050 1.524 . S
C1051 C1052 1.415 . S
C1052 H1028 0.950 . S
C1052 C1047 1.363 . S
C1052 C1051 1.415 . S
C1053 H1029 0.951 . S
C1053 C1054 1.366 . S
C1053 C1055 1.395 . S
C1054 C1053 1.366 . S
C1054 C1058 1.385 . S
C1055 H1030 0.947 1_556 S
C1055 C1053 1.395 . S
C1055 C1056 1.362 1_556 S
C1056 C1055 1.362 1_554 S
C1056 C1057 1.402 1_554 S
C1056 C1059 1.499 . S
C1057 H1031 0.939 1_556 S
C1057 C1056 1.402 1_556 S
C1057 C1058 1.398 . S
C1058 H1032 0.950 . S
C1058 C1054 1.385 . S
C1058 C1057 1.398 . S
C1059 C1056 1.499 . S
C1059 C1060 1.373 . S
C1059 C1061 1.389 . S
C1060 H1033 0.950 . S
C1060 C1046 1.377 . S
C1060 C1059 1.373 . S
C1061 C1045 1.377 . S
C1061 C1059 1.389 . S
C1061 C1062 1.513 1_455 S
C1062 C1061 1.513 1_655 S
C1062 C1063 1.387 1_655 S
C1062 C1067 1.383 . S
C1063 H1034 0.950 . S
C1063 C1062 1.387 1_455 S
C1063 C1064 1.317 1_454 S
C1064 H1035 0.975 . S
C1064 C1063 1.317 1_656 S
C1064 C1065 1.280 1_556 S
C1065 C1064 1.280 1_554 S
C1065 C1066 1.524 . S
C1065 H1068 0.999 1_554 S
C1066 H1036 0.950 . S
C1066 C1065 1.524 . S
C1066 C1067 1.415 . S
C1067 H1037 0.950 . S
C1067 C1062 1.383 . S
C1067 C1066 1.415 . S
H1068 C1065 0.999 1_556 S
H1069 C1050 0.913 . S
H1070 C1088 0.951 . S
H1071 C1090 0.951 . S
H1072 C1092 0.950 . S
H1073 C1093 0.950 . S
H1074 C1095 0.950 . S
H1075 C1098 0.950 . S
H1076 C1099 0.950 . S
H1077 C1101 0.950 . S
H1078 C1102 0.950 . S
H1079 C1103 0.951 . S
H1080 C1105 0.951 . S
H1081 C1107 0.950 . S
H1082 C1108 0.950 . S
H1083 C1110 0.950 . S
H1084 C1113 0.950 . S
H1085 C1114 0.950 . S
H1086 C1116 0.954 . S
H1087 C1117 0.950 . S
C1088 H1070 0.951 . S
C1088 C1089 1.366 . S
C1088 C1090 1.388 . S
C1089 C1088 1.366 . S
C1089 C1093 1.385 . S
C1090 H1071 0.951 . S
C1090 C1088 1.388 . S
C1090 C1091 1.366 . S
C1091 C1090 1.366 . S
C1091 C1092 1.414 . S
C1091 C1094 1.499 . S
C1092 H1072 0.950 . S
C1092 C1091 1.414 . S
C1092 C1093 1.374 . S
C1093 H1073 0.950 . S
C1093 C1089 1.385 . S
C1093 C1092 1.374 . S
C1094 C1091 1.499 . S
C1094 C1095 1.373 . S
C1094 C1096 1.389 . S
C1095 H1074 0.950 . S
C1095 C1094 1.373 . S
C1095 C1111 1.377 . S
C1096 C1094 1.389 . S
C1096 C1097 1.524 . S
C1096 C1110 1.377 . S
C1097 C1096 1.524 . S
C1097 C1098 1.397 . S
C1097 C1102 1.363 . S
C1098 H1075 0.950 . S
C1098 C1097 1.397 . S
C1098 C1099 1.334 . S
C1099 H1076 0.950 . S
C1099 C1098 1.334 . S
C1099 C1100 1.287 . S
C1100 C1099 1.287 . S
C1100 C1101 1.524 . S
C1100 H1119 0.913 . S
C1101 H1077 0.950 . S
C1101 C1100 1.524 . S
C1101 C1102 1.415 . S
C1102 H1078 0.950 . S
C1102 C1097 1.363 . S
C1102 C1101 1.415 . S
C1103 H1079 0.951 . S
C1103 C1104 1.366 . S
C1103 C1105 1.388 . S
C1104 C1103 1.366 . S
C1104 C1108 1.385 . S
C1105 H1080 0.951 . S
C1105 C1103 1.388 . S
C1105 C1106 1.366 . S
C1106 C1105 1.366 . S
C1106 C1107 1.414 . S
C1106 C1109 1.499 . S
C1107 H1081 0.950 . S
C1107 C1106 1.414 . S
C1107 C1108 1.374 . S
C1108 H1082 0.950 . S
C1108 C1104 1.385 . S
C1108 C1107 1.374 . S
C1109 C1106 1.499 . S
C1109 C1110 1.373 . S
C1109 C1111 1.389 . S
C1110 H1083 0.950 . S
C1110 C1096 1.377 . S
C1110 C1109 1.373 . S
C1111 C1095 1.377 . S
C1111 C1109 1.389 . S
C1111 C1112 1.524 . S
C1112 C1111 1.524 . S
C1112 C1113 1.397 1_545 S
C1112 C1117 1.363 . S
C1113 H1084 0.950 . S
C1113 C1112 1.397 1_565 S
C1113 C1114 1.334 . S
C1114 H1085 0.950 . S
C1114 C1113 1.334 . S
C1114 C1115 1.287 . S
C1115 C1114 1.287 . S
C1115 C1116 1.524 . S
C1115 H1118 0.999 . S
C1116 H1086 0.954 . S
C1116 C1115 1.524 . S
C1116 C1117 1.415 1_565 S
C1117 H1087 0.950 . S
C1117 C1112 1.363 . S
C1117 C1116 1.415 1_545 S
H1118 C1115 0.999 . S
H1119 C1100 0.913 . S
H1120 C1138 0.951 . S
H1121 C1140 0.951 . S
H1122 C1142 0.950 . S
H1123 C1143 0.950 . S
H1124 C1145 0.950 . S
H1125 C1148 0.950 . S
H1126 C1149 0.950 . S
H1127 C1151 0.950 . S
H1128 C1152 0.950 . S
H1129 C1153 0.951 . S
H1130 C1155 0.951 . S
H1131 C1157 0.950 . S
H1132 C1158 0.950 . S
H1133 C1160 0.950 . S
H1134 C1163 0.950 . S
H1135 C1164 0.950 . S
H1136 C1166 0.950 . S
H1137 C1167 0.950 . S
C1138 H1120 0.951 . S
C1138 C1139 1.366 . S
C1138 C1140 1.388 . S
C1139 C1138 1.366 . S
C1139 C1143 1.385 . S
C1140 H1121 0.951 . S
C1140 C1138 1.388 . S
C1140 C1141 1.366 . S
C1141 C1140 1.366 . S
C1141 C1142 1.414 . S
C1141 C1144 1.499 . S
C1142 H1122 0.950 . S
C1142 C1141 1.414 . S
C1142 C1143 1.374 . S
C1143 H1123 0.950 . S
C1143 C1139 1.385 . S
C1143 C1142 1.374 . S
C1144 C1141 1.499 . S
C1144 C1145 1.373 . S
C1144 C1146 1.389 . S
C1145 H1124 0.950 . S
C1145 C1144 1.373 . S
C1145 C1161 1.377 . S
C1146 C1144 1.389 . S
C1146 C1147 1.524 . S
C1146 C1160 1.377 . S
C1147 C1146 1.524 . S
C1147 C1148 1.397 . S
C1147 C1152 1.363 . S
C1148 H1125 0.950 . S
C1148 C1147 1.397 . S
C1148 C1149 1.334 . S
C1149 H1126 0.950 . S
C1149 C1148 1.334 . S
C1149 C1150 1.287 . S
C1150 C1149 1.287 . S
C1150 C1151 1.524 . S
C1150 H1169 0.913 . S
C1151 H1127 0.950 . S
C1151 C1150 1.524 . S
C1151 C1152 1.415 . S
C1152 H1128 0.950 . S
C1152 C1147 1.363 . S
C1152 C1151 1.415 . S
C1153 H1129 0.951 . S
C1153 C1154 1.366 . S
C1153 C1155 1.388 . S
C1154 C1153 1.366 . S
C1154 C1158 1.385 . S
C1155 H1130 0.951 . S
C1155 C1153 1.388 . S
C1155 C1156 1.366 . S
C1156 C1155 1.366 . S
C1156 C1157 1.414 . S
C1156 C1159 1.499 . S
C1157 H1131 0.950 . S
C1157 C1156 1.414 . S
C1157 C1158 1.374 . S
C1158 H1132 0.950 . S
C1158 C1154 1.385 . S
C1158 C1157 1.374 . S
C1159 C1156 1.499 . S
C1159 C1160 1.373 . S
C1159 C1161 1.389 . S
C1160 H1133 0.950 . S
C1160 C1146 1.377 . S
C1160 C1159 1.373 . S
C1161 C1145 1.377 . S
C1161 C1159 1.389 . S
C1161 C1162 1.524 . S
C1162 C1161 1.524 . S
C1162 C1163 1.397 . S
C1162 C1167 1.363 . S
C1163 H1134 0.950 . S
C1163 C1162 1.397 . S
C1163 C1164 1.334 . S
C1164 H1135 0.950 . S
C1164 C1163 1.334 . S
C1164 C1165 1.287 . S
C1165 C1164 1.287 . S
C1165 C1166 1.524 . S
C1165 H1168 0.999 . S
C1166 H1136 0.950 . S
C1166 C1165 1.524 . S
C1166 C1167 1.415 . S
C1167 H1137 0.950 . S
C1167 C1162 1.363 . S
C1167 C1166 1.415 . S
H1168 C1165 0.999 . S
H1169 C1150 0.913 . S
H1170 C1188 0.951 . S
H1171 C1190 0.951 . S
H1172 C1192 0.950 . S
H1173 C1193 0.950 . S
H1174 C1195 0.950 . S
H1175 C1198 0.950 1_565 S
H1176 C1199 0.950 . S
H1177 C1201 0.950 . S
H1178 C1202 0.950 . S
H1179 C1203 0.951 . S
H1180 C1205 0.951 . S
H1181 C1207 0.950 . S
H1182 C1208 0.950 . S
H1183 C1210 0.950 . S
H1184 C1213 0.950 . S
H1185 C1214 0.950 . S
H1186 C1216 0.950 . S
H1187 C1217 0.950 . S
C1188 H1170 0.951 . S
C1188 C1189 1.366 . S
C1188 C1190 1.388 . S
C1189 C1188 1.366 . S
C1189 C1193 1.385 1_545 S
C1190 H1171 0.951 . S
C1190 C1188 1.388 . S
C1190 C1191 1.366 . S
C1191 C1190 1.366 . S
C1191 C1192 1.414 1_545 S
C1191 C1194 1.499 . S
C1192 H1172 0.950 . S
C1192 C1191 1.414 1_565 S
C1192 C1193 1.374 . S
C1193 H1173 0.950 . S
C1193 C1189 1.385 1_565 S
C1193 C1192 1.374 . S
C1194 C1191 1.499 . S
C1194 C1195 1.373 . S
C1194 C1196 1.389 . S
C1195 H1174 0.950 . S
C1195 C1194 1.373 . S
C1195 C1211 1.377 . S
C1196 C1194 1.389 . S
C1196 C1197 1.524 . S
C1196 C1210 1.377 . S
C1197 C1196 1.524 . S
C1197 C1198 1.397 . S
C1197 C1202 1.363 . S
C1198 H1175 0.950 1_545 S
C1198 C1197 1.397 . S
C1198 C1199 1.334 . S
C1199 H1176 0.950 . S
C1199 C1198 1.334 . S
C1199 C1200 1.287 . S
C1200 C1199 1.287 . S
C1200 C1201 1.524 . S
C1200 H1219 0.913 . S
C1201 H1177 0.950 . S
C1201 C1200 1.524 . S
C1201 C1202 1.415 . S
C1202 H1178 0.950 . S
C1202 C1197 1.363 . S
C1202 C1201 1.415 . S
C1203 H1179 0.951 . S
C1203 C1204 1.366 1_565 S
C1203 C1205 1.388 . S
C1204 C1203 1.366 1_545 S
C1204 C1208 1.385 . S
C1205 H1180 0.951 . S
C1205 C1203 1.388 . S
C1205 C1206 1.366 1_565 S
C1206 C1205 1.366 1_545 S
C1206 C1207 1.414 . S
C1206 C1209 1.499 . S
C1207 H1181 0.950 . S
C1207 C1206 1.414 . S
C1207 C1208 1.374 . S
C1208 H1182 0.950 . S
C1208 C1204 1.385 . S
C1208 C1207 1.374 . S
C1209 C1206 1.499 . S
C1209 C1210 1.373 . S
C1209 C1211 1.389 . S
C1210 H1183 0.950 . S
C1210 C1196 1.377 . S
C1210 C1209 1.373 . S
C1211 C1195 1.377 . S
C1211 C1209 1.389 . S
C1211 C1212 1.524 1_545 S
C1212 C1211 1.524 1_565 S
C1212 C1213 1.397 1_565 S
C1212 C1217 1.363 . S
C1213 H1184 0.950 . S
C1213 C1212 1.397 1_545 S
C1213 C1214 1.334 . S
C1214 H1185 0.950 . S
C1214 C1213 1.334 . S
C1214 C1215 1.287 1_545 S
C1215 C1214 1.287 1_565 S
C1215 C1216 1.524 . S
C1215 H1218 0.999 . S
C1216 H1186 0.950 . S
C1216 C1215 1.524 . S
C1216 C1217 1.415 . S
C1217 H1187 0.950 . S
C1217 C1212 1.363 . S
C1217 C1216 1.415 . S
H1218 C1215 0.999 . S
H1219 C1200 0.913 . S
H1220 C1238 0.951 . S
H1221 C1240 0.951 . S
H1222 C1242 0.950 . S
H1223 C1243 0.950 . S
H1224 C1245 0.950 . S
H1225 C1248 0.950 . S
H1226 C1249 0.950 . S
H1227 C1251 0.950 . S
H1228 C1252 0.950 . S
H1229 C1253 0.951 . S
H1230 C1255 0.951 . S
H1231 C1257 0.950 . S
H1232 C1258 0.950 . S
H1233 C1260 0.950 . S
H1234 C1263 0.950 . S
H1235 C1264 0.950 1_554 S
H1236 C1266 0.950 . S
H1237 C1267 0.950 . S
C1238 H1220 0.951 . S
C1238 C1239 1.366 . S
C1238 C1240 1.388 . S
C1239 C1238 1.366 . S
C1239 C1243 1.385 . S
C1240 H1221 0.951 . S
C1240 C1238 1.388 . S
C1240 C1241 1.366 . S
C1241 C1240 1.366 . S
C1241 C1242 1.414 . S
C1241 C1244 1.499 . S
C1242 H1222 0.950 . S
C1242 C1241 1.414 . S
C1242 C1243 1.374 . S
C1243 H1223 0.950 . S
C1243 C1239 1.385 . S
C1243 C1242 1.374 . S
C1244 C1241 1.499 . S
C1244 C1245 1.373 . S
C1244 C1246 1.389 . S
C1245 H1224 0.950 . S
C1245 C1244 1.373 . S
C1245 C1261 1.377 . S
C1246 C1244 1.389 . S
C1246 C1247 1.524 . S
C1246 C1260 1.377 . S
C1247 C1246 1.524 . S
C1247 C1248 1.397 . S
C1247 C1252 1.363 . S
C1248 H1225 0.950 . S
C1248 C1247 1.397 . S
C1248 C1249 1.334 . S
C1249 H1226 0.950 . S
C1249 C1248 1.334 . S
C1249 C1250 1.287 . S
C1250 C1249 1.287 . S
C1250 C1251 1.524 . S
C1250 H1269 0.913 . S
C1251 H1227 0.950 . S
C1251 C1250 1.524 . S
C1251 C1252 1.415 . S
C1252 H1228 0.950 . S
C1252 C1247 1.363 . S
C1252 C1251 1.415 . S
C1253 H1229 0.951 . S
C1253 C1254 1.366 . S
C1253 C1255 1.388 1_554 S
C1254 C1253 1.366 . S
C1254 C1258 1.385 . S
C1255 H1230 0.951 . S
C1255 C1253 1.388 1_556 S
C1255 C1256 1.366 . S
C1256 C1255 1.366 . S
C1256 C1257 1.414 . S
C1256 C1259 1.499 . S
C1257 H1231 0.950 . S
C1257 C1256 1.414 . S
C1257 C1258 1.374 1_556 S
C1258 H1232 0.950 . S
C1258 C1254 1.385 . S
C1258 C1257 1.374 1_554 S
C1259 C1256 1.499 . S
C1259 C1260 1.373 . S
C1259 C1261 1.389 . S
C1260 H1233 0.950 . S
C1260 C1246 1.377 . S
C1260 C1259 1.373 . S
C1261 C1245 1.377 . S
C1261 C1259 1.389 . S
C1261 C1262 1.524 . S
C1262 C1261 1.524 . S
C1262 C1263 1.397 . S
C1262 C1267 1.363 . S
C1263 H1234 0.950 . S
C1263 C1262 1.397 . S
C1263 C1264 1.334 . S
C1264 H1235 0.950 1_556 S
C1264 C1263 1.334 . S
C1264 C1265 1.287 . S
C1265 C1264 1.287 . S
C1265 C1266 1.524 . S
C1265 H1268 0.999 . S
C1266 H1236 0.950 . S
C1266 C1265 1.524 . S
C1266 C1267 1.415 . S
C1267 H1237 0.950 . S
C1267 C1262 1.363 . S
C1267 C1266 1.415 . S
H1268 C1265 0.999 . S
H1269 C1250 0.913 . S
H1270 C1288 0.951 . S
H1271 C1290 0.951 . S
H1272 C1292 0.950 . S
H1273 C1293 0.950 . S
H1274 C1295 0.950 . S
H1275 C1298 0.950 . S
H1276 C1299 0.950 . S
H1277 C1301 0.950 . S
H1278 C1302 0.950 . S
H1279 C1303 0.951 . S
H1280 C1305 0.951 . S
H1281 C1307 0.950 . S
H1282 C1308 0.950 . S
H1283 C1310 0.950 . S
H1284 C1313 0.950 . S
H1285 C1314 0.950 . S
H1286 C1316 0.950 . S
H1287 C1317 0.950 . S
C1288 H1270 0.951 . S
C1288 C1289 1.366 1_655 S
C1288 C1290 1.388 . S
C1289 C1288 1.366 1_455 S
C1289 C1293 1.385 . S
C1290 H1271 0.951 . S
C1290 C1288 1.388 . S
C1290 C1291 1.366 1_655 S
C1291 C1290 1.366 1_455 S
C1291 C1292 1.414 . S
C1291 C1294 1.499 . S
C1292 H1272 0.950 . S
C1292 C1291 1.414 . S
C1292 C1293 1.374 . S
C1293 H1273 0.950 . S
C1293 C1289 1.385 . S
C1293 C1292 1.374 . S
C1294 C1291 1.499 . S
C1294 C1295 1.373 . S
C1294 C1296 1.389 1_455 S
C1295 H1274 0.950 . S
C1295 C1294 1.373 . S
C1295 C1311 1.377 . S
C1296 C1294 1.389 1_655 S
C1296 C1297 1.524 . S
C1296 C1310 1.377 . S
C1297 C1296 1.524 . S
C1297 C1298 1.397 . S
C1297 C1302 1.363 . S
C1298 H1275 0.950 . S
C1298 C1297 1.397 . S
C1298 C1299 1.334 . S
C1299 H1276 0.950 . S
C1299 C1298 1.334 . S
C1299 C1300 1.287 . S
C1300 C1299 1.287 . S
C1300 C1301 1.524 . S
C1300 H1319 0.913 . S
C1301 H1277 0.950 . S
C1301 C1300 1.524 . S
C1301 C1302 1.415 . S
C1302 H1278 0.950 . S
C1302 C1297 1.363 . S
C1302 C1301 1.415 . S
C1303 H1279 0.951 . S
C1303 C1304 1.375 . S
C1303 C1305 1.388 . S
C1304 C1303 1.375 . S
C1304 C1308 1.378 1_455 S
C1305 H1280 0.951 . S
C1305 C1303 1.388 . S
C1305 C1306 1.366 . S
C1306 C1305 1.366 . S
C1306 C1307 1.414 1_455 S
C1306 C1309 1.499 . S
C1307 H1281 0.950 . S
C1307 C1306 1.414 1_655 S
C1307 C1308 1.374 . S
C1308 H1282 0.950 . S
C1308 C1304 1.378 1_655 S
C1308 C1307 1.374 . S
C1309 C1306 1.499 . S
C1309 C1310 1.373 1_455 S
C1309 C1311 1.389 . S
C1310 H1283 0.950 . S
C1310 C1296 1.377 . S
C1310 C1309 1.373 1_655 S
C1311 C1295 1.377 . S
C1311 C1309 1.389 . S
C1311 C1312 1.524 . S
C1312 C1311 1.524 . S
C1312 C1313 1.397 . S
C1312 C1317 1.363 . S
C1313 H1284 0.950 . S
C1313 C1312 1.397 . S
C1313 C1314 1.334 . S
C1314 H1285 0.950 . S
C1314 C1313 1.334 . S
C1314 C1315 1.287 . S
C1315 C1314 1.287 . S
C1315 C1316 1.524 . S
C1315 H1318 0.999 . S
C1316 H1286 0.950 . S
C1316 C1315 1.524 . S
C1316 C1317 1.415 . S
C1317 H1287 0.950 . S
C1317 C1312 1.363 . S
C1317 C1316 1.415 . S
H1318 C1315 0.999 . S
H1319 C1300 0.913 . S
C439 C8 1.992 . S
C454 C391 2.089 . S
C489 C26 1.276 . S
C504 C241 1.227 . S
C539 C48 1.438 . S
C554 C301 1.406 . S
C589 C19 1.731 . S
C604 C361 1.698 . S
C654 C271 1.524 . S
C639 C36 1.480 . S
C704 C331 1.766 . S
C689 C59 1.669 . S
C739 C28 1.463 . S
C754 C121 1.431 . S
C789 C46 1.206 . S
C804 C211 1.229 . S
C839 C16 1.564 . S
C854 C91 1.618 . S
C904 C151 1.713 . S
C889 C39 1.632 . S
C954 C181 0.930 . S
C939 C56 0.954 . S
C989 C6 1.312 . S
C1004 C61 1.259 . S
C1054 C200 1.409 . S
C1039 C9 1.400 . S
C1089 C21 1.492 . S
C1104 C80 1.479 . S
C1139 C49 1.472 . S
C1154 C140 1.454 . S
C1204 C320 1.431 . S
C1189 C29 1.455 . S
C1254 C380 1.572 . S
C1239 C41 1.571 . S
C1289 C1 1.496 . S
C1304 C260 1.482 . S
