# Generated by pormake.
# Topology pth, (4,4)-cn, num edge types: 1
# Building blocks:
#     Node 0, Type 0, BuildingBlock: GALJAG_clean_sbu_0, # of connection points: 4
#     Node 1, Type 0, BuildingBlock: GALJAG_clean_sbu_0, # of connection points: 4
#     Node 2, Type 0, BuildingBlock: GALJAG_clean_sbu_0, # of connection points: 4
#     Node 3, Type 1, BuildingBlock: NAHDIM_clean_linker_0, # of connection points: 4
#     Node 4, Type 1, BuildingBlock: NAHDIM_clean_linker_0, # of connection points: 4
#     Node 5, Type 1, BuildingBlock: NAHDIM_clean_linker_0, # of connection points: 4
#     Edge 6, Type (0, 1), BuildingBlock: AJUNOK_clean_linker_0, # of connection points: 2
#     Edge 7, Type (0, 1), BuildingBlock: AJUNOK_clean_linker_0, # of connection points: 2
#     Edge 8, Type (0, 1), BuildingBlock: AJUNOK_clean_linker_0, # of connection points: 2
#     Edge 9, Type (0, 1), BuildingBlock: AJUNOK_clean_linker_0, # of connection points: 2
#     Edge 10, Type (0, 1), BuildingBlock: AJUNOK_clean_linker_0, # of connection points: 2
#     Edge 11, Type (0, 1), BuildingBlock: AJUNOK_clean_linker_0, # of connection points: 2
#     Edge 12, Type (0, 1), BuildingBlock: AJUNOK_clean_linker_0, # of connection points: 2
#     Edge 13, Type (0, 1), BuildingBlock: AJUNOK_clean_linker_0, # of connection points: 2
#     Edge 14, Type (0, 1), BuildingBlock: AJUNOK_clean_linker_0, # of connection points: 2
#     Edge 15, Type (0, 1), BuildingBlock: AJUNOK_clean_linker_0, # of connection points: 2
#     Edge 16, Type (0, 1), BuildingBlock: AJUNOK_clean_linker_0, # of connection points: 2
#     Edge 17, Type (0, 1), BuildingBlock: AJUNOK_clean_linker_0, # of connection points: 2
# Relax obj value: 0.024
# Max RMSD: 0.068
# Mean RMSD: 0.066
data_MOF--net-pth--node1-GALJAG_clean_sbu_0--node2-NAHDIM_clean_linker_0--edge1-AJUNOK_clean_linker_0
_symmetry_space_group_name_H-M    P1
_symmetry_Int_Tables_number       1
_symmetry_cell_setting            triclinic
loop_
_symmetry_equiv_pos_as_xyz
'x, y, z'
_cell_length_a     26.381027
_cell_length_b     26.33001
_cell_length_c     64.214977
_cell_angle_alpha  89.800771
_cell_angle_beta   90.969317
_cell_angle_gamma 120.01062
loop_
_atom_site_label
_atom_site_type_symbol
_atom_site_fract_x
_atom_site_fract_y
_atom_site_fract_z
_atom_type_partial_charge
In0 In 0.03779 0.03972 0.06028 0.0
O1 O 0.01204 0.10259 0.0747 0.0
O2 O 0.08704 0.10209 0.08702 0.0
C3 C 0.95465 0.98434 0.03056 0.0
C4 C 0.13043 0.10575 0.03624 0.0
C5 C 0.01495 0.94661 0.08419 0.0
O6 O 0.94993 0.01535 0.04454 0.0
O7 O 0.00096 0.98158 0.03174 0.0
O8 O 0.06078 0.9732 0.07356 0.0
O9 O 0.98155 0.96793 0.08304 0.0
C10 C 0.05451 0.12441 0.08759 0.0
O11 O 0.1285 0.06633 0.04805 0.0
O12 O 0.08562 0.11128 0.0366 0.0
In13 In 0.04866 0.03929 0.39724 0.0
O14 O 0.10814 0.13384 0.38646 0.0
O15 O 0.02166 0.08801 0.37418 0.0
C16 C 0.13106 0.04056 0.42311 0.0
C17 C 0.96853 0.02613 0.42541 0.0
C18 C 0.0189 0.9437 0.37327 0.0
O19 O 0.14063 0.0538 0.40409 0.0
O20 O 0.0809 0.02824 0.42898 0.0
O21 O 0.98239 0.95886 0.37833 0.0
O22 O 0.07061 0.9786 0.37923 0.0
C23 C 0.06955 0.13557 0.37516 0.0
O24 O 0.96358 0.98414 0.41441 0.0
O25 O 0.01405 0.0748 0.42213 0.0
In26 In 0.02026 0.03356 0.73115 0.0
O27 O 0.97374 0.93504 0.73742 0.0
O28 O 0.93903 0.98458 0.75088 0.0
C29 C 0.09685 0.01726 0.70854 0.0
C30 C 0.95218 0.06412 0.70878 0.0
C31 C 0.08052 0.11533 0.76086 0.0
O32 O 0.06241 0.0321 0.7004 0.0
O33 O 0.093 0.01138 0.72801 0.0
O34 O 0.07807 0.12793 0.74207 0.0
O35 O 0.05379 0.06111 0.76465 0.0
C36 C 0.93398 0.93483 0.74815 0.0
O37 O -0.00031 0.10145 0.71741 0.0
O38 O 0.94116 0.01183 0.71029 0.0
C39 C 0.87417 0.66514 0.36245 0.0
C40 C 0.92903 0.69982 0.34939 0.0
C41 C 0.93919 0.66402 0.31592 0.0
C42 C -9e-05 0.68661 0.31594 0.0
C43 C 0.02443 0.66015 0.30394 0.0
C44 C 0.98723 0.60968 0.29189 0.0
C45 C 0.92601 0.58795 0.29141 0.0
C46 C 0.90297 0.61629 0.30315 0.0
C47 C 0.08993 0.68554 0.30441 0.0
C48 C 0.88461 0.53369 0.27906 0.0
C49 C 0.12113 0.40022 0.37563 0.0
C50 C 0.09005 0.36144 0.35659 0.0
C51 C 0.10066 0.4149 0.32441 0.0
C52 C 0.04162 0.38887 0.31807 0.0
C53 C 0.02286 0.41779 0.30425 0.0
C54 C 0.06416 0.47335 0.29642 0.0
C55 C 0.12408 0.49837 0.30203 0.0
C56 C 0.14161 0.46843 0.31585 0.0
C57 C 0.95893 0.38932 0.29813 0.0
C58 C 0.16936 0.5573 0.29377 0.0
C59 C 0.06248 0.37166 0.15741 0.0
C60 C 0.00748 0.36082 0.16358 0.0
C61 C 0.00158 0.40031 0.17648 0.0
C62 C 0.05221 0.45221 0.18327 0.0
C63 C 0.10824 0.46266 0.17771 0.0
C64 C 0.11291 0.42193 0.16502 0.0
C65 C 0.94115 0.38738 0.18238 0.0
C66 C 0.16303 0.5176 0.18475 0.0
C67 C 0.93449 0.68043 0.10962 0.0
C68 C 0.95604 0.72759 0.12674 0.0
C69 C 0.00783 0.69589 0.15118 0.0
C70 C 0.95795 0.64558 0.15851 0.0
C71 C 0.96349 0.60739 0.17245 0.0
C72 C 0.01983 0.62032 0.17945 0.0
C73 C 0.06988 0.67183 0.17264 0.0
C74 C 0.06314 0.70884 0.15853 0.0
C75 C 0.90928 0.55263 0.1794 0.0
C76 C 0.13058 0.68717 0.17997 0.0
C77 C 0.01161 0.57756 0.28074 0.0
C78 C 0.0266 0.54201 0.29247 0.0
C79 C 0.04476 0.50639 0.28287 0.0
C80 C 0.04543 0.50381 0.26092 0.0
C81 C 0.05848 0.46469 0.2507 0.0
C82 C 0.05795 0.46185 0.22905 0.0
C83 C 0.04636 0.49945 0.21686 0.0
C84 C 0.04596 0.49725 0.19488 0.0
C85 C 0.03703 0.53709 0.18326 0.0
C86 C 0.0269 0.57847 0.19296 0.0
C87 C 0.02425 0.57961 0.21489 0.0
C88 C 0.01163 0.61902 0.22513 0.0
C89 C 0.00743 0.61848 0.24671 0.0
C90 C 0.01707 0.57948 0.25886 0.0
C91 C 0.03244 0.54125 0.2489 0.0
C92 C 0.0345 0.54021 0.22687 0.0
C93 C 0.13434 0.38544 0.11717 0.0
C94 C 0.11284 0.33783 0.134 0.0
O95 O 0.91436 0.68642 0.32852 0.0
O96 O 0.00518 0.73263 0.13685 0.0
O97 O 0.06435 0.33313 0.14384 0.0
O98 O 0.11949 0.38961 0.3387 0.0
H99 H 0.95959 0.68453 0.35466 0.0
H100 H 0.8576 0.61741 0.3606 0.0
H101 H 0.83879 0.6739 0.35743 0.0
H102 H 0.88464 0.67672 0.37921 0.0
H103 H 0.02804 0.72474 0.32541 0.0
H104 H 0.85617 0.59965 0.30316 0.0
H105 H 0.10081 0.656 0.31336 0.0
H106 H 0.11321 0.72968 0.31183 0.0
H107 H 0.10634 0.6888 0.28837 0.0
H108 H 0.83801 0.51833 0.28249 0.0
H109 H 0.89371 0.4976 0.28247 0.0
H110 H 0.89123 0.54324 0.26217 0.0
H111 H 0.04514 0.35531 0.35651 0.0
H112 H 0.09929 0.37717 0.39016 0.0
H113 H 0.11901 0.44125 0.3746 0.0
H114 H 0.16792 0.41248 0.37654 0.0
H115 H 0.01016 0.34597 0.32385 0.0
H116 H 0.18721 0.48758 0.32055 0.0
H117 H 0.95398 0.38614 0.2809 0.0
H118 H 0.94089 0.41696 0.30359 0.0
H119 H 0.93271 0.34474 0.3048 0.0
H120 H 0.21418 0.57084 0.2997 0.0
H121 H 0.1582 0.59117 0.29829 0.0
H122 H 0.16921 0.55575 0.27649 0.0
H123 H 0.14842 0.34919 0.14573 0.0
H124 H 0.96889 0.32165 0.15785 0.0
H125 H 0.15597 0.43038 0.16086 0.0
H126 H 0.93898 0.39127 0.19951 0.0
H127 H 0.90661 0.34282 0.17735 0.0
H128 H 0.93177 0.4201 0.17503 0.0
H129 H 0.20347 0.51907 0.17929 0.0
H130 H 0.1648 0.52041 0.20202 0.0
H131 H 0.16208 0.55674 0.17877 0.0
H132 H 0.92079 0.71563 0.13821 0.0
H133 H 0.89588 0.67754 0.10126 0.0
H134 H 0.92115 0.63676 0.11635 0.0
H135 H 0.96959 0.69087 0.09822 0.0
H136 H 0.91466 0.63519 0.15324 0.0
H137 H 0.10129 0.74789 0.15292 0.0
H138 H 0.90645 0.55276 0.19663 0.0
H139 H 0.91201 0.51337 0.17495 0.0
H140 H 0.86856 0.54864 0.17247 0.0
H141 H 0.16464 0.73092 0.17441 0.0
H142 H 0.14079 0.65365 0.17419 0.0
H143 H 0.1326 0.68677 0.19725 0.0
H144 H 0.02383 0.54184 0.30932 0.0
H145 H 0.06824 0.43512 0.25934 0.0
H146 H 0.06739 0.43028 0.22198 0.0
H147 H 0.03763 0.53564 0.16637 0.0
H148 H 0.00396 0.65007 0.21654 0.0
H149 H 0.99688 0.64925 0.25379 0.0
H150 H 0.09871 0.37614 0.10569 0.0
H151 H 0.17187 0.38737 0.10885 0.0
H152 H 0.14935 0.42927 0.12412 0.0
C153 C 0.20703 0.91523 0.64239 0.0
C154 C 0.24709 0.96553 0.65724 0.0
C155 C 0.33732 0.02736 0.63787 0.0
C156 C 0.37218 0.08305 0.62943 0.0
C157 C 0.4264 0.09902 0.62058 0.0
C158 C 0.44552 0.05757 0.61976 0.0
C159 C 0.41053 0.00105 0.62826 0.0
C160 C 0.35706 0.98666 0.63738 0.0
C161 C 0.46307 0.15999 0.61198 0.0
C162 C 0.42954 0.95569 0.62765 0.0
C163 C 0.78954 0.17769 0.71126 0.0
C164 C 0.78033 0.137 0.69284 0.0
C165 C 0.74431 0.14964 0.65915 0.0
C166 C 0.70699 0.09027 0.65409 0.0
C167 C 0.66174 0.07356 0.63923 0.0
C168 C 0.65405 0.11718 0.62916 0.0
C169 C 0.69331 0.17714 0.63355 0.0
C170 C 0.73839 0.1926 0.64839 0.0
C171 C 0.6217 0.00931 0.63445 0.0
C172 C 0.68688 0.22473 0.62283 0.0
C173 C 0.75898 0.05171 0.50248 0.0
C174 C 0.71339 0.00462 0.5131 0.0
C175 C 0.66731 0.00963 0.52139 0.0
C176 C 0.66717 0.06308 0.51936 0.0
C177 C 0.71313 0.11076 0.5089 0.0
C178 C 0.75848 0.10436 0.50056 0.0
C179 C 0.61866 0.95763 0.53235 0.0
C180 C 0.71433 0.16838 0.50662 0.0
C181 C 0.23868 0.91309 0.47658 0.0
C182 C 0.27429 0.98019 0.47614 0.0
C183 C 0.3762 0.01146 0.48075 0.0
C184 C 0.38831 0.96747 0.48664 0.0
C185 C 0.4349 0.97975 0.50042 0.0
C186 C 0.47071 0.03773 0.50799 0.0
C187 C 0.45959 0.08272 0.5014 0.0
C188 C 0.41195 0.06882 0.48792 0.0
C189 C 0.44543 0.93069 0.50703 0.0
C190 C 0.4977 0.14526 0.50872 0.0
C191 C 0.50168 0.07268 0.6098 0.0
C192 C 0.55085 0.08946 0.62266 0.0
C193 C 0.60403 0.10009 0.61447 0.0
C194 C 0.60853 0.0936 0.59286 0.0
C195 C 0.66071 0.10177 0.58423 0.0
C196 C 0.66415 0.09368 0.56302 0.0
C197 C 0.61588 0.07822 0.54959 0.0
C198 C 0.61835 0.06824 0.52813 0.0
C199 C 0.57104 0.05657 0.51496 0.0
C200 C 0.51958 0.05124 0.52284 0.0
C201 C 0.51465 0.05678 0.54451 0.0
C202 C 0.46195 0.04698 0.55321 0.0
C203 C 0.45743 0.05175 0.57459 0.0
C204 C 0.50576 0.06767 0.58805 0.0
C205 C 0.55935 0.07795 0.57959 0.0
C206 C 0.56345 0.07147 0.55786 0.0
C207 C 0.8395 0.99402 0.51313 0.0
C208 C 0.81129 -0.00012 0.49288 0.0
O209 O 0.28511 0.01488 0.64608 0.0
O210 O 0.32935 0.99841 0.46833 0.0
O211 O 0.80417 0.04854 0.49394 0.0
O212 O 0.78595 0.16685 0.67443 0.0
H213 H 0.27259 0.95108 0.66705 0.0
H214 H 0.23302 0.90215 0.63268 0.0
H215 H 0.18205 0.92852 0.63179 0.0
H216 H 0.17568 0.87631 0.65142 0.0
H217 H 0.35677 0.11424 0.6299 0.0
H218 H 0.33095 0.94333 0.64383 0.0
H219 H 0.50833 0.18045 0.61853 0.0
H220 H 0.44459 0.1887 0.61552 0.0
H221 H 0.46588 0.15749 0.59483 0.0
H222 H 0.39505 0.91213 0.63319 0.0
H223 H 0.4692 0.97047 0.63767 0.0
H224 H 0.44121 0.95079 0.61154 0.0
H225 H 0.73488 0.09972 0.69443 0.0
H226 H 0.78683 0.15513 0.72621 0.0
H227 H 0.75488 0.18993 0.71097 0.0
H228 H 0.8327 0.21861 0.71053 0.0
H229 H 0.71307 0.05696 0.66174 0.0
H230 H 0.76809 0.23833 0.65218 0.0
H231 H 0.62093 0.00132 0.61745 0.0
H232 H 0.57639 0.9963 0.63897 0.0
H233 H 0.63531 0.98097 0.64283 0.0
H234 H 0.72143 0.26935 0.62779 0.0
H235 H 0.6434 0.21946 0.62629 0.0
H236 H 0.68892 0.22071 0.6057 0.0
H237 H 0.768 0.95973 0.49043 0.0
H238 H 0.71321 0.96377 0.51508 0.0
H239 H 0.79388 0.14054 0.49244 0.0
H240 H 0.61935 0.9683 0.5491 0.0
H241 H 0.62268 0.91773 0.53111 0.0
H242 H 0.5755 0.94767 0.5257 0.0
H243 H 0.75469 0.20222 0.49897 0.0
H244 H 0.71135 0.18489 0.52218 0.0
H245 H 0.67573 0.16169 0.49722 0.0
H246 H 0.27867 0.9968 0.49241 0.0
H247 H 0.19358 0.89803 0.48201 0.0
H248 H 0.25935 0.89584 0.48754 0.0
H249 H 0.23615 0.89456 0.46082 0.0
H250 H 0.3607 0.92339 0.48065 0.0
H251 H 0.4021 0.10244 0.48305 0.0
H252 H 0.44963 0.93019 0.52426 0.0
H253 H 0.48716 0.93805 0.50041 0.0
H254 H 0.40967 0.88708 0.50169 0.0
H255 H 0.48745 0.17602 0.50027 0.0
H256 H 0.54461 0.15941 0.50657 0.0
H257 H 0.49114 0.14826 0.5256 0.0
H258 H 0.54744 0.09344 0.63933 0.0
H259 H 0.69926 0.11377 0.59383 0.0
H260 H 0.70522 0.09998 0.55723 0.0
H261 H 0.57361 0.04966 0.49845 0.0
H262 H 0.42337 0.03479 0.54362 0.0
H263 H 0.41557 0.04305 0.58041 0.0
H264 H 0.84534 0.9551 0.51228 0.0
H265 H 0.81128 0.98832 0.52657 0.0
H266 H 0.88287 0.03383 0.51594 0.0
C267 C 0.70146 0.67923 0.74456 0.0
C268 C 0.71696 0.71719 0.76424 0.0
C269 C 0.67787 0.65859 0.79584 0.0
C270 C 0.6422 0.68067 0.80267 0.0
C271 C 0.59845 0.65 0.81735 0.0
C272 C 0.5911 0.59697 0.82565 0.0
C273 C 0.62846 0.5759 0.8194 0.0
C274 C 0.67162 0.60727 0.80465 0.0
C275 C 0.56014 0.67425 0.82405 0.0
C276 C 0.62244 0.51996 0.82821 0.0
C277 C 0.11617 0.27657 0.84003 0.0
C278 C 0.17111 0.28338 0.82978 0.0
C279 C 0.26495 0.37509 0.82778 0.0
C280 C 0.30223 0.35138 0.82905 0.0
C281 C 0.362 0.38735 0.83401 0.0
C282 C 0.38437 0.44777 0.83798 0.0
C283 C 0.34741 0.47208 0.83552 0.0
C284 C 0.28825 0.43537 0.8302 0.0
C285 C 0.40079 0.36058 0.83574 0.0
C286 C 0.3699 0.53652 0.83926 0.0
C287 C 0.37269 0.35705 0.97067 0.0
C288 C 0.42319 0.35953 0.96272 0.0
C289 C 0.46338 0.40816 0.95127 0.0
C290 C 0.45326 0.45551 0.94792 0.0
C291 C 0.40438 0.45473 0.95694 0.0
C292 C 0.36464 0.40533 0.96821 0.0
C293 C 0.51572 0.40812 0.94213 0.0
C294 C 0.39296 0.505 0.95394 0.0
C295 C 0.78205 0.89287 0.94806 0.0
C296 C 0.77049 0.85598 0.9678 0.0
C297 C 0.72157 0.75372 0.95496 0.0
C298 C 0.72859 0.70502 0.95205 0.0
C299 C 0.68339 0.65263 0.94342 0.0
C300 C 0.62994 0.64918 0.93749 0.0
C301 C 0.62228 0.69813 0.94047 0.0
C302 C 0.66813 0.74992 0.94918 0.0
C303 C 0.69278 0.60113 0.94047 0.0
C304 C 0.56557 0.69573 0.93439 0.0
C305 C 0.54437 0.56314 0.84082 0.0
C306 C 0.4892 0.521 0.83311 0.0
C307 C 0.4445 0.4849 0.84661 0.0
C308 C 0.45591 0.4885 0.86831 0.0
C309 C 0.41373 0.44935 0.88222 0.0
C310 C 0.42568 0.453 0.9035 0.0
C311 C 0.47892 0.49805 0.91181 0.0
C312 C 0.49112 0.50298 0.93346 0.0
C313 C 0.54142 0.55188 0.9414 0.0
C314 C 0.58169 0.59468 0.92808 0.0
C315 C 0.57348 0.58693 0.90626 0.0
C316 C 0.61604 0.62569 0.89237 0.0
C317 C 0.60734 0.61723 0.87091 0.0
C318 C 0.55457 0.57141 0.86257 0.0
C319 C 0.51061 0.53292 0.87631 0.0
C320 C 0.52107 0.53925 0.89814 0.0
C321 C 0.30713 0.22352 0.95981 0.0
C322 C 0.32371 0.25331 0.98133 0.0
O323 O 0.7196 0.68596 0.78124 0.0
O324 O 0.76756 0.80314 0.96321 0.0
O325 O 0.33017 0.30891 0.98037 0.0
O326 O 0.20643 0.34156 0.82429 0.0
H327 H 0.68152 0.72791 0.76582 0.0
H328 H 0.65717 0.64014 0.74606 0.0
H329 H 0.73307 0.66376 0.74206 0.0
H330 H 0.70103 0.70441 0.7307 0.0
H331 H 0.64877 0.72215 0.79693 0.0
H332 H 0.70013 0.59125 0.79961 0.0
H333 H 0.51373 0.64235 0.82007 0.0
H334 H 0.57222 0.71677 0.81651 0.0
H335 H 0.56346 0.68053 0.84121 0.0
H336 H 0.65491 0.50944 0.82173 0.0
H337 H 0.57773 0.48287 0.8248 0.0
H338 H 0.62828 0.52393 0.84541 0.0
H339 H 0.19374 0.27045 0.84167 0.0
H340 H 0.08736 0.23045 0.84497 0.0
H341 H 0.09132 0.28921 0.82908 0.0
H342 H 0.1287 0.30524 0.85404 0.0
H343 H 0.28478 0.30497 0.8263 0.0
H344 H 0.25923 0.45326 0.82872 0.0
H345 H 0.44187 0.38748 0.82709 0.0
H346 H 0.37883 0.31491 0.82962 0.0
H347 H 0.41304 0.36012 0.85233 0.0
H348 H 0.33542 0.54848 0.83671 0.0
H349 H 0.40658 0.56298 0.82863 0.0
H350 H 0.38714 0.54847 0.85547 0.0
H351 H 0.36548 0.25693 0.98695 0.0
H352 H 0.43106 0.32332 0.96497 0.0
H353 H 0.32602 0.40342 0.97465 0.0
H354 H 0.51242 0.40786 0.92487 0.0
H355 H 0.51922 0.36952 0.94711 0.0
H356 H 0.55653 0.44868 0.94687 0.0
H357 H 0.35548 0.49968 0.96323 0.0
H358 H 0.38343 0.50809 0.93722 0.0
H359 H 0.43259 0.54695 0.95843 0.0
H360 H 0.72844 0.84749 0.97459 0.0
H361 H 0.78518 0.93548 0.95191 0.0
H362 H 0.7458 0.86977 0.93652 0.0
H363 H 0.82339 0.90143 0.94072 0.0
H364 H 0.76992 0.7083 0.95656 0.0
H365 H 0.66172 0.78702 0.95127 0.0
H366 H 0.68635 0.58803 0.92379 0.0
H367 H 0.65983 0.56307 0.94944 0.0
H368 H 0.73726 0.6111 0.94563 0.0
H369 H 0.5658 0.7369 0.93832 0.0
H370 H 0.52851 0.65866 0.94241 0.0
H371 H 0.55759 0.68774 0.91737 0.0
H372 H 0.48071 0.51683 0.81643 0.0
H373 H 0.37139 0.41466 0.87681 0.0
H374 H 0.392 0.42089 0.9134 0.0
H375 H 0.5492 0.55678 0.95811 0.0
H376 H 0.65697 0.66231 0.89796 0.0
H377 H 0.64192 0.64783 0.86094 0.0
H378 H 0.29999 0.17827 0.96087 0.0
H379 H 0.34248 0.24793 0.94852 0.0
H380 H 0.26646 0.22137 0.95365 0.0
C381 C 0.02954 0.19793 0.10111 0.0
C382 C 0.06776 0.17522 0.10109 0.0
C383 C 0.04351 0.24909 0.11224 0.0
C384 C 0.09617 0.27947 0.12387 0.0
H385 H 0.98904 0.17683 0.09209 0.0
H386 H 0.01346 0.26582 0.11134 0.0
S387 S 0.21094 0.2379 0.12919 0.0
N388 N 0.16016 0.18649 0.11403 0.0
N389 N 0.18649 0.28291 0.13477 0.0
C390 C 0.13435 0.25674 0.12424 0.0
C391 C 0.12005 0.20449 0.11297 0.0
C392 C 0.93654 0.06689 0.45408 0.0
C393 C 0.92646 0.01856 0.44174 0.0
C394 C 0.89907 0.06074 0.47028 0.0
C395 C 0.84961 0.00612 0.47463 0.0
H396 H 0.97416 0.10981 0.45142 0.0
H397 H 0.90922 0.09897 0.47961 0.0
S398 S 0.80419 0.86557 0.4472 0.0
N399 N 0.8637 0.91402 0.43512 0.0
N400 N 0.79332 0.90252 0.46561 0.0
C401 C 0.8391 0.95739 0.46245 0.0
C402 C 0.87732 0.96362 0.44595 0.0
C403 C 0.82822 0.87967 0.75674 0.0
C404 C 0.8814 0.88018 0.75451 0.0
C405 C 0.77596 0.82731 0.76027 0.0
C406 C 0.77499 0.77354 0.76202 0.0
H407 H 0.82645 0.91969 0.75493 0.0
H408 H 0.73578 0.82881 0.76122 0.0
S409 S 0.90374 0.75239 0.75952 0.0
N410 N 0.93084 0.82327 0.75552 0.0
N411 N 0.83282 0.72488 0.76284 0.0
C412 C 0.82844 0.77393 0.76076 0.0
C413 C 0.88156 0.8272 0.75682 0.0
C414 C 0.03906 0.87091 0.0964 0.0
C415 C 0.00025 0.89291 0.09614 0.0
C416 C 0.02496 0.81844 0.10654 0.0
C417 C 0.97169 0.78608 0.11702 0.0
H418 H 0.08037 0.89385 0.08842 0.0
H419 H 0.05573 0.80261 0.10595 0.0
S420 S 0.85448 0.82421 0.12082 0.0
N421 N 0.90599 0.87812 0.10722 0.0
N422 N 0.87956 0.77935 0.12624 0.0
C423 C 0.93251 0.80763 0.11693 0.0
C424 C 0.94685 0.86114 0.10659 0.0
C425 C 0.21547 0.02368 0.42841 0.0
C426 C 0.17231 0.03339 0.43696 0.0
C427 C 0.24951 0.00839 0.4411 0.0
C428 C 0.24253 0.0036 0.46286 0.0
H429 H 0.22119 0.0252 0.41171 0.0
H430 H 0.28034 0.99867 0.43374 0.0
S431 S 0.13767 0.0279 0.49298 0.0
N432 N 0.12592 0.03942 0.46854 0.0
N433 N 0.19032 0.0114 0.49238 0.0
C434 C 0.20077 0.01509 0.47161 0.0
C435 C 0.16575 0.03004 0.45869 0.0
C436 C 0.12154 0.14518 0.79696 0.0
C437 C 0.10872 0.16044 0.77738 0.0
C438 C 0.14391 0.18592 0.81338 0.0
C439 C 0.15405 0.24337 0.81088 0.0
H440 H 0.11338 0.10113 0.79975 0.0
H441 H 0.1519 0.17189 0.82835 0.0
S442 S 0.12624 0.3048 0.76272 0.0
N443 N 0.10783 0.23698 0.75632 0.0
N444 N 0.14829 0.31299 0.78731 0.0
C445 C 0.14164 0.25927 0.7913 0.0
C446 C 0.1196 0.21802 0.7745 0.0
C447 C 0.92607 0.13855 0.69674 0.0
C448 C 0.90867 0.07965 0.70091 0.0
C449 C 0.8846 0.1561 0.69297 0.0
C450 C 0.82414 0.11563 0.69375 0.0
H451 H 0.97204 0.17171 0.69707 0.0
H452 H 0.89996 0.20215 0.69031 0.0
S453 S 0.75589 0.95521 0.70209 0.0
N454 N 0.82696 0.97993 0.70378 0.0
N455 N 0.74911 0.01319 0.6973 0.0
C456 C 0.80625 0.05609 0.69678 0.0
C457 C 0.84849 0.03804 0.70023 0.0
C458 C 0.85439 0.94928 0.01546 0.0
C459 C 0.90924 0.9528 0.01423 0.0
C460 C 0.81019 0.91816 0.0005 0.0
C461 C 0.81907 0.88921 0.98378 0.0
H462 H 0.84525 0.97026 0.02818 0.0
H463 H 0.76857 0.91649 0.00209 0.0
S464 S 0.95632 0.88849 0.97261 0.0
N465 N 0.97096 0.92695 0.99435 0.0
N466 N 0.88807 0.8689 0.96623 0.0
C467 C 0.87428 0.8937 0.98208 0.0
C468 C 0.9192 0.92519 0.99733 0.0
C469 C 0.9452 0.85217 0.3548 0.0
C470 C 0.00094 0.88544 0.36417 0.0
C471 C 0.92358 0.79344 0.34907 0.0
C472 C 0.95625 0.76533 0.35304 0.0
H473 H 0.9174 0.87114 0.35239 0.0
H474 H 0.88005 0.76922 0.3422 0.0
S475 S 0.10694 0.83476 0.3755 0.0
N476 N 0.09047 0.88752 0.3755 0.0
N477 N 0.04907 0.77677 0.36541 0.0
C478 C 0.01322 0.79902 0.36144 0.0
C479 C 0.0357 0.85912 0.36687 0.0
C480 C 0.14324 0.01868 0.67476 0.0
C481 C 0.13708 0.00592 0.69616 0.0
C482 C 0.17944 0.00658 0.66252 0.0
C483 C 0.21058 0.98078 0.67114 0.0
H484 H 0.11971 0.03794 0.66734 0.0
H485 H 0.18262 0.01691 0.64608 0.0
S486 S 0.21014 0.93944 0.72649 0.0
N487 N 0.16602 0.96698 0.72559 0.0
N488 N 0.23328 0.94341 0.7025 0.0
C489 C 0.20517 0.9682 0.69257 0.0
C490 C 0.16868 0.981 0.70509 0.0
C491 C 0.17821 0.18473 0.00986 0.0
C492 C 0.18076 0.14292 0.02287 0.0
C493 C 0.22448 0.22039 0.99683 0.0
C494 C 0.27569 0.21636 0.99646 0.0
H495 H 0.13988 0.18976 0.00957 0.0
H496 H 0.21992 0.25112 0.98682 0.0
S497 S 0.30365 0.11259 0.02692 0.0
N498 N 0.23815 0.09847 0.03421 0.0
N499 N 0.32536 0.16579 0.00966 0.0
C500 C 0.27865 0.17435 0.00922 0.0
C501 C 0.2313 0.13777 0.02249 0.0
C502 C 0.02607 0.19689 0.36481 0.0
C503 C 0.07601 0.19102 0.36704 0.0
C504 C 0.03105 0.25147 0.36076 0.0
C505 C 0.08612 0.30213 0.35844 0.0
H506 H 0.98283 0.15967 0.36731 0.0
H507 H 0.99147 0.25428 0.36009 0.0
S508 S 0.22978 0.3082 0.35959 0.0
N509 N 0.18187 0.23904 0.3647 0.0
N510 N 0.19123 0.34142 0.35619 0.0
C511 C 0.13619 0.296 0.35915 0.0
C512 C 0.13114 0.24053 0.3637 0.0
loop_
_geom_bond_atom_site_label_1
_geom_bond_atom_site_label_2
_geom_bond_distance
_geom_bond_site_symmetry_2
_ccdc_geom_bond_type
In0 O1 2.294 1_455 S
In0 O2 2.326 . S
In0 O6 2.266 1_445 S
In0 O7 2.326 1_445 S
In0 O8 2.266 1_545 S
In0 O9 2.326 1_445 S
In0 O11 2.294 . S
In0 O12 2.326 . S
O1 In0 2.294 1_655 S
O1 C10 1.240 1_655 S
O2 In0 2.326 . S
O2 C10 1.252 . S
C3 O6 1.252 . S
C3 O7 1.260 . S
C4 O11 1.240 . S
C4 O12 1.252 . S
C5 O8 1.252 . S
C5 O9 1.260 1_455 S
O6 In0 2.266 1_665 S
O6 C3 1.252 . S
O7 In0 2.326 1_665 S
O7 C3 1.260 . S
O8 In0 2.266 1_565 S
O8 C5 1.252 . S
O9 In0 2.326 1_665 S
O9 C5 1.260 1_655 S
C10 O1 1.240 1_455 S
C10 O2 1.252 . S
O11 In0 2.294 . S
O11 C4 1.240 . S
O12 In0 2.326 . S
O12 C4 1.252 . S
In13 O14 2.294 . S
In13 O15 2.326 1_455 S
In13 O19 2.266 . S
In13 O20 2.326 1_545 S
In13 O21 2.266 1_445 S
In13 O22 2.326 . S
In13 O24 2.294 1_455 S
In13 O25 2.336 . S
O14 In13 2.294 . S
O14 C23 1.240 . S
O15 In13 2.326 1_655 S
O15 C23 1.252 1_655 S
C16 O19 1.252 . S
C16 O20 1.260 1_545 S
C17 O24 1.240 . S
C17 O25 1.243 1_655 S
C18 O21 1.252 1_455 S
C18 O22 1.260 1_565 S
O19 In13 2.266 . S
O19 C16 1.252 . S
O20 In13 2.326 1_565 S
O20 C16 1.260 1_565 S
O21 In13 2.266 1_665 S
O21 C18 1.252 1_655 S
O22 In13 2.326 . S
O22 C18 1.260 1_545 S
C23 O14 1.240 . S
C23 O15 1.252 1_455 S
O24 In13 2.294 1_655 S
O24 C17 1.240 . S
O25 In13 2.336 . S
O25 C17 1.243 1_455 S
In26 O27 2.294 1_445 S
In26 O28 2.326 1_455 S
In26 O32 2.266 1_545 S
In26 O33 2.326 . S
In26 O34 2.266 . S
In26 O35 2.326 . S
In26 O37 2.294 1_455 S
In26 O38 2.326 1_445 S
O27 In26 2.294 1_665 S
O27 C36 1.240 . S
O28 In26 2.326 1_655 S
O28 C36 1.252 1_545 S
C29 O32 1.252 1_545 S
C29 O33 1.260 . S
C30 O37 1.240 . S
C30 O38 1.252 1_545 S
C31 O34 1.252 . S
C31 O35 1.260 . S
O32 In26 2.266 1_565 S
O32 C29 1.252 1_565 S
O33 In26 2.326 . S
O33 C29 1.260 . S
O34 In26 2.266 . S
O34 C31 1.252 . S
O35 In26 2.326 . S
O35 C31 1.260 . S
C36 O27 1.240 . S
C36 O28 1.252 1_565 S
O37 In26 2.294 1_655 S
O37 C30 1.240 . S
O38 In26 2.326 1_665 S
O38 C30 1.252 1_565 S
C39 C40 1.560 . S
C39 H100 0.959 . S
C39 H101 0.959 . S
C39 H102 0.960 . S
C40 C39 1.560 . S
C40 O95 1.426 . S
C40 H99 0.980 1_655 S
C41 C42 1.407 1_655 S
C41 C46 1.418 . S
C41 O95 1.334 . S
C42 C41 1.407 1_455 S
C42 C43 1.360 . S
C42 H103 0.929 . S
C43 C42 1.360 . S
C43 C44 1.401 . S
C43 C47 1.527 . S
C44 C43 1.401 . S
C44 C45 1.405 1_455 S
C44 C77 1.587 . S
C45 C44 1.405 1_655 S
C45 C46 1.332 . S
C45 C48 1.496 . S
C46 C41 1.418 . S
C46 C45 1.332 . S
C46 H104 0.929 . S
C47 C43 1.527 . S
C47 H105 0.959 . S
C47 H106 0.961 . S
C47 H107 0.961 . S
C48 C45 1.496 . S
C48 H108 0.960 . S
C48 H109 0.960 . S
C48 H110 0.961 . S
C49 C50 1.517 . S
C49 H112 0.961 . S
C49 H113 0.960 . S
C49 H114 0.959 . S
C50 C49 1.517 . S
C50 O98 1.468 . S
C50 H111 0.980 . S
C51 C52 1.349 . S
C51 C56 1.367 . S
C51 O98 1.408 . S
C52 C51 1.349 . S
C52 C53 1.407 . S
C52 H115 0.930 . S
C53 C52 1.407 . S
C53 C54 1.449 . S
C53 C57 1.535 1_455 S
C54 C53 1.449 . S
C54 C55 1.384 . S
C54 C79 1.553 . S
C55 C54 1.384 . S
C55 C56 1.364 . S
C55 C58 1.450 . S
C56 C51 1.367 . S
C56 C55 1.364 . S
C56 H116 0.931 . S
C57 C53 1.535 1_655 S
C57 H117 0.959 . S
C57 H118 0.961 . S
C57 H119 0.959 . S
C58 C55 1.450 . S
C58 H120 0.960 . S
C58 H121 0.960 . S
C58 H122 0.960 . S
C59 C60 1.309 . S
C59 C64 1.304 . S
C59 O97 1.435 . S
C60 C59 1.309 . S
C60 C61 1.476 . S
C60 H124 0.930 1_455 S
C61 C60 1.476 . S
C61 C62 1.400 . S
C61 C65 1.567 1_455 S
C62 C61 1.400 . S
C62 C63 1.373 . S
C62 C84 1.432 . S
C63 C62 1.373 . S
C63 C64 1.339 . S
C63 C66 1.530 . S
C64 C59 1.304 . S
C64 C63 1.339 . S
C64 H125 0.930 . S
C65 C61 1.567 1_655 S
C65 H126 0.961 . S
C65 H127 0.960 . S
C65 H128 0.958 . S
C66 C63 1.530 . S
C66 H129 0.961 . S
C66 H130 0.960 . S
C66 H131 0.960 . S
C67 C68 1.530 1_655 S
C67 H133 0.961 . S
C67 H134 0.961 . S
C67 H135 0.959 . S
C68 C67 1.530 1_455 S
C68 O96 1.412 1_455 S
C68 H132 0.980 . S
C69 C70 1.288 . S
C69 C74 1.377 1_655 S
C69 O96 1.393 . S
C70 C69 1.288 . S
C70 C71 1.369 . S
C70 H136 0.932 . S
C71 C70 1.369 . S
C71 C72 1.398 1_655 S
C71 C75 1.527 . S
C72 C71 1.398 1_455 S
C72 C73 1.380 . S
C72 C86 1.497 . S
C73 C72 1.380 . S
C73 C74 1.383 . S
C73 C76 1.603 . S
C74 C69 1.377 1_455 S
C74 C73 1.383 . S
C74 H137 0.929 . S
C75 C71 1.527 . S
C75 H138 0.961 . S
C75 H139 0.959 . S
C75 H140 0.959 . S
C76 C73 1.603 . S
C76 H141 0.960 . S
C76 H142 0.962 . S
C76 H143 0.961 . S
C77 C44 1.587 . S
C77 C78 1.360 . S
C77 C90 1.412 . S
C78 C77 1.360 . S
C78 C79 1.365 . S
C78 H144 0.929 . S
C79 C54 1.553 . S
C79 C78 1.365 . S
C79 C80 1.404 . S
C80 C79 1.404 . S
C80 C81 1.395 . S
C80 C91 1.451 . S
C81 C80 1.395 . S
C81 C82 1.322 . S
C81 H145 0.930 . S
C82 C81 1.322 . S
C82 C83 1.459 . S
C82 H146 0.929 . S
C83 C82 1.459 . S
C83 C84 1.445 . S
C83 C92 1.395 . S
C84 C62 1.432 . S
C84 C83 1.445 . S
C84 C85 1.370 . S
C85 C84 1.370 . S
C85 C86 1.438 . S
C85 H147 0.930 . S
C86 C72 1.497 . S
C86 C85 1.438 . S
C86 C87 1.360 . S
C87 C86 1.360 . S
C87 C88 1.401 . S
C87 C92 1.446 . S
C88 C87 1.401 . S
C88 C89 1.347 . S
C88 H148 0.929 . S
C89 C88 1.347 . S
C89 C90 1.455 . S
C89 H149 0.930 . S
C90 C77 1.412 . S
C90 C89 1.455 . S
C90 C91 1.331 . S
C91 C80 1.451 . S
C91 C90 1.331 . S
C91 C92 1.497 . S
C92 C83 1.395 . S
C92 C87 1.446 . S
C92 C91 1.497 . S
C93 C94 1.582 . S
C93 H150 0.962 . S
C93 H151 0.959 . S
C93 H152 0.958 . S
C94 C93 1.582 . S
C94 O97 1.458 . S
C94 H123 0.980 . S
O95 C40 1.426 . S
O95 C41 1.334 . S
O96 C68 1.412 1_655 S
O96 C69 1.393 . S
O97 C59 1.435 . S
O97 C94 1.458 . S
O98 C50 1.468 . S
O98 C51 1.408 . S
H99 C40 0.980 1_455 S
H100 C39 0.959 . S
H101 C39 0.959 . S
H102 C39 0.960 . S
H103 C42 0.929 . S
H104 C46 0.929 . S
H105 C47 0.959 . S
H106 C47 0.961 . S
H107 C47 0.961 . S
H108 C48 0.960 . S
H109 C48 0.960 . S
H110 C48 0.961 . S
H111 C50 0.980 . S
H112 C49 0.961 . S
H113 C49 0.960 . S
H114 C49 0.959 . S
H115 C52 0.930 . S
H116 C56 0.931 . S
H117 C57 0.959 . S
H118 C57 0.961 . S
H119 C57 0.959 . S
H120 C58 0.960 . S
H121 C58 0.960 . S
H122 C58 0.960 . S
H123 C94 0.980 . S
H124 C60 0.930 1_655 S
H125 C64 0.930 . S
H126 C65 0.961 . S
H127 C65 0.960 . S
H128 C65 0.958 . S
H129 C66 0.961 . S
H130 C66 0.960 . S
H131 C66 0.960 . S
H132 C68 0.980 . S
H133 C67 0.961 . S
H134 C67 0.961 . S
H135 C67 0.959 . S
H136 C70 0.932 . S
H137 C74 0.929 . S
H138 C75 0.961 . S
H139 C75 0.959 . S
H140 C75 0.959 . S
H141 C76 0.960 . S
H142 C76 0.962 . S
H143 C76 0.961 . S
H144 C78 0.929 . S
H145 C81 0.930 . S
H146 C82 0.929 . S
H147 C85 0.930 . S
H148 C88 0.929 . S
H149 C89 0.930 . S
H150 C93 0.962 . S
H151 C93 0.959 . S
H152 C93 0.958 . S
C153 C154 1.560 1_565 S
C153 H214 0.959 . S
C153 H215 0.959 . S
C153 H216 0.960 . S
C154 C153 1.560 1_545 S
C154 O209 1.426 1_545 S
C154 H213 0.980 . S
C155 C156 1.407 . S
C155 C160 1.418 1_545 S
C155 O209 1.334 1_545 S
C156 C155 1.407 . S
C156 C157 1.360 . S
C156 H217 0.929 . S
C157 C156 1.360 . S
C157 C158 1.401 . S
C157 C161 1.527 . S
C158 C157 1.401 . S
C158 C159 1.405 1_545 S
C158 C191 1.587 . S
C159 C158 1.405 1_565 S
C159 C160 1.332 . S
C159 C162 1.496 . S
C160 C155 1.418 1_565 S
C160 C159 1.332 . S
C160 H218 0.929 . S
C161 C157 1.527 . S
C161 H219 0.959 . S
C161 H220 0.961 . S
C161 H221 0.961 . S
C162 C159 1.496 . S
C162 H222 0.960 . S
C162 H223 0.960 . S
C162 H224 0.961 . S
C163 C164 1.517 . S
C163 H226 0.961 . S
C163 H227 0.960 . S
C163 H228 0.959 . S
C164 C163 1.517 . S
C164 O212 1.468 . S
C164 H225 0.980 . S
C165 C166 1.349 . S
C165 C170 1.367 . S
C165 O212 1.408 . S
C166 C165 1.349 . S
C166 C167 1.407 . S
C166 H229 0.930 . S
C167 C166 1.407 . S
C167 C168 1.449 . S
C167 C171 1.535 1_545 S
C168 C167 1.449 . S
C168 C169 1.384 . S
C168 C193 1.553 . S
C169 C168 1.384 . S
C169 C170 1.364 . S
C169 C172 1.450 . S
C170 C165 1.367 . S
C170 C169 1.364 . S
C170 H230 0.931 . S
C171 C167 1.535 1_565 S
C171 H231 0.959 . S
C171 H232 0.961 . S
C171 H233 0.959 . S
C172 C169 1.450 . S
C172 H234 0.960 . S
C172 H235 0.960 . S
C172 H236 0.960 . S
C173 C174 1.309 . S
C173 C178 1.304 . S
C173 O211 1.435 . S
C174 C173 1.309 . S
C174 C175 1.476 . S
C174 H238 0.930 . S
C175 C174 1.476 . S
C175 C176 1.400 . S
C175 C179 1.567 1_545 S
C176 C175 1.400 . S
C176 C177 1.373 . S
C176 C198 1.432 . S
C177 C176 1.373 . S
C177 C178 1.339 . S
C177 C180 1.530 . S
C178 C173 1.304 . S
C178 C177 1.339 . S
C178 H239 0.930 . S
C179 C175 1.567 1_565 S
C179 H240 0.961 . S
C179 H241 0.960 . S
C179 H242 0.958 . S
C180 C177 1.530 . S
C180 H243 0.961 . S
C180 H244 0.960 . S
C180 H245 0.960 . S
C181 C182 1.530 1_565 S
C181 H247 0.961 1_565 S
C181 H248 0.961 . S
C181 H249 0.959 . S
C182 C181 1.530 1_545 S
C182 O210 1.412 1_545 S
C182 H246 0.980 . S
C183 C184 1.288 1_545 S
C183 C188 1.377 . S
C183 O210 1.393 1_545 S
C184 C183 1.288 1_565 S
C184 C185 1.369 . S
C184 H250 0.932 . S
C185 C184 1.369 . S
C185 C186 1.398 1_565 S
C185 C189 1.527 . S
C186 C185 1.398 1_545 S
C186 C187 1.380 . S
C186 C200 1.497 . S
C187 C186 1.380 . S
C187 C188 1.383 . S
C187 C190 1.603 . S
C188 C183 1.377 . S
C188 C187 1.383 . S
C188 H251 0.929 . S
C189 C185 1.527 . S
C189 H252 0.961 . S
C189 H253 0.959 . S
C189 H254 0.959 . S
C190 C187 1.603 . S
C190 H255 0.960 . S
C190 H256 0.962 . S
C190 H257 0.961 . S
C191 C158 1.587 . S
C191 C192 1.360 . S
C191 C204 1.412 . S
C192 C191 1.360 . S
C192 C193 1.365 . S
C192 H258 0.929 . S
C193 C168 1.553 . S
C193 C192 1.365 . S
C193 C194 1.404 . S
C194 C193 1.404 . S
C194 C195 1.395 . S
C194 C205 1.451 . S
C195 C194 1.395 . S
C195 C196 1.322 . S
C195 H259 0.930 . S
C196 C195 1.322 . S
C196 C197 1.459 . S
C196 H260 0.929 . S
C197 C196 1.459 . S
C197 C198 1.445 . S
C197 C206 1.395 . S
C198 C176 1.432 . S
C198 C197 1.445 . S
C198 C199 1.370 . S
C199 C198 1.370 . S
C199 C200 1.438 . S
C199 H261 0.930 . S
C200 C186 1.497 . S
C200 C199 1.438 . S
C200 C201 1.360 . S
C201 C200 1.360 . S
C201 C202 1.401 . S
C201 C206 1.446 . S
C202 C201 1.401 . S
C202 C203 1.347 . S
C202 H262 0.929 . S
C203 C202 1.347 . S
C203 C204 1.455 . S
C203 H263 0.930 . S
C204 C191 1.412 . S
C204 C203 1.455 . S
C204 C205 1.331 . S
C205 C194 1.451 . S
C205 C204 1.331 . S
C205 C206 1.497 . S
C206 C197 1.395 . S
C206 C201 1.446 . S
C206 C205 1.497 . S
C207 C208 1.582 . S
C207 H264 0.962 . S
C207 H265 0.959 . S
C207 H266 0.958 . S
C208 C207 1.582 . S
C208 O211 1.458 . S
C208 H237 0.980 . S
O209 C154 1.426 1_565 S
O209 C155 1.334 1_565 S
O210 C182 1.412 1_565 S
O210 C183 1.393 1_565 S
O211 C173 1.435 . S
O211 C208 1.458 . S
O212 C164 1.468 . S
O212 C165 1.408 . S
H213 C154 0.980 . S
H214 C153 0.959 . S
H215 C153 0.959 . S
H216 C153 0.960 . S
H217 C156 0.929 . S
H218 C160 0.929 . S
H219 C161 0.959 . S
H220 C161 0.961 . S
H221 C161 0.961 . S
H222 C162 0.960 . S
H223 C162 0.960 . S
H224 C162 0.961 . S
H225 C164 0.980 . S
H226 C163 0.961 . S
H227 C163 0.960 . S
H228 C163 0.959 . S
H229 C166 0.930 . S
H230 C170 0.931 . S
H231 C171 0.959 . S
H232 C171 0.961 . S
H233 C171 0.959 . S
H234 C172 0.960 . S
H235 C172 0.960 . S
H236 C172 0.960 . S
H237 C208 0.980 . S
H238 C174 0.930 . S
H239 C178 0.930 . S
H240 C179 0.961 . S
H241 C179 0.960 . S
H242 C179 0.958 . S
H243 C180 0.961 . S
H244 C180 0.960 . S
H245 C180 0.960 . S
H246 C182 0.980 . S
H247 C181 0.961 1_545 S
H248 C181 0.961 . S
H249 C181 0.959 . S
H250 C184 0.932 . S
H251 C188 0.929 . S
H252 C189 0.961 . S
H253 C189 0.959 . S
H254 C189 0.959 . S
H255 C190 0.960 . S
H256 C190 0.962 . S
H257 C190 0.961 . S
H258 C192 0.929 . S
H259 C195 0.930 . S
H260 C196 0.929 . S
H261 C199 0.930 . S
H262 C202 0.929 . S
H263 C203 0.930 . S
H264 C207 0.962 . S
H265 C207 0.959 . S
H266 C207 0.958 . S
C267 C268 1.560 . S
C267 H328 0.959 . S
C267 H329 0.959 . S
C267 H330 0.960 . S
C268 C267 1.560 . S
C268 O323 1.426 . S
C268 H327 0.980 . S
C269 C270 1.407 . S
C269 C274 1.418 . S
C269 O323 1.334 . S
C270 C269 1.407 . S
C270 C271 1.360 . S
C270 H331 0.929 . S
C271 C270 1.360 . S
C271 C272 1.401 . S
C271 C275 1.527 . S
C272 C271 1.401 . S
C272 C273 1.405 . S
C272 C305 1.587 . S
C273 C272 1.405 . S
C273 C274 1.332 . S
C273 C276 1.496 . S
C274 C269 1.418 . S
C274 C273 1.332 . S
C274 H332 0.929 . S
C275 C271 1.527 . S
C275 H333 0.959 . S
C275 H334 0.961 . S
C275 H335 0.961 . S
C276 C273 1.496 . S
C276 H336 0.960 . S
C276 H337 0.960 . S
C276 H338 0.961 . S
C277 C278 1.517 . S
C277 H340 0.961 . S
C277 H341 0.960 . S
C277 H342 0.959 . S
C278 C277 1.517 . S
C278 O326 1.468 . S
C278 H339 0.980 . S
C279 C280 1.349 . S
C279 C284 1.367 . S
C279 O326 1.408 . S
C280 C279 1.349 . S
C280 C281 1.407 . S
C280 H343 0.930 . S
C281 C280 1.407 . S
C281 C282 1.449 . S
C281 C285 1.535 . S
C282 C281 1.449 . S
C282 C283 1.384 . S
C282 C307 1.553 . S
C283 C282 1.384 . S
C283 C284 1.364 . S
C283 C286 1.450 . S
C284 C279 1.367 . S
C284 C283 1.364 . S
C284 H344 0.931 . S
C285 C281 1.535 . S
C285 H345 0.959 . S
C285 H346 0.961 . S
C285 H347 0.959 . S
C286 C283 1.450 . S
C286 H348 0.960 . S
C286 H349 0.960 . S
C286 H350 0.960 . S
C287 C288 1.309 . S
C287 C292 1.304 . S
C287 O325 1.435 . S
C288 C287 1.309 . S
C288 C289 1.476 . S
C288 H352 0.930 . S
C289 C288 1.476 . S
C289 C290 1.400 . S
C289 C293 1.567 . S
C290 C289 1.400 . S
C290 C291 1.373 . S
C290 C312 1.432 . S
C291 C290 1.373 . S
C291 C292 1.339 . S
C291 C294 1.530 . S
C292 C287 1.304 . S
C292 C291 1.339 . S
C292 H353 0.930 . S
C293 C289 1.567 . S
C293 H354 0.961 . S
C293 H355 0.960 . S
C293 H356 0.958 . S
C294 C291 1.530 . S
C294 H357 0.961 . S
C294 H358 0.960 . S
C294 H359 0.960 . S
C295 C296 1.530 . S
C295 H361 0.961 1_556 S
C295 H362 0.961 . S
C295 H363 0.959 1_556 S
C296 C295 1.530 . S
C296 O324 1.412 . S
C296 H360 0.980 . S
C297 C298 1.288 . S
C297 C302 1.377 . S
C297 O324 1.393 . S
C298 C297 1.288 . S
C298 C299 1.369 . S
C298 H364 0.932 . S
C299 C298 1.369 . S
C299 C300 1.398 . S
C299 C303 1.527 . S
C300 C299 1.398 . S
C300 C301 1.380 . S
C300 C314 1.497 . S
C301 C300 1.380 . S
C301 C302 1.383 . S
C301 C304 1.603 . S
C302 C297 1.377 . S
C302 C301 1.383 . S
C302 H365 0.929 . S
C303 C299 1.527 . S
C303 H366 0.961 . S
C303 H367 0.959 . S
C303 H368 0.959 . S
C304 C301 1.603 . S
C304 H369 0.960 . S
C304 H370 0.962 . S
C304 H371 0.961 . S
C305 C272 1.587 . S
C305 C306 1.360 . S
C305 C318 1.412 . S
C306 C305 1.360 . S
C306 C307 1.365 . S
C306 H372 0.929 . S
C307 C282 1.553 . S
C307 C306 1.365 . S
C307 C308 1.404 . S
C308 C307 1.404 . S
C308 C309 1.395 . S
C308 C319 1.451 . S
C309 C308 1.395 . S
C309 C310 1.322 . S
C309 H373 0.930 . S
C310 C309 1.322 . S
C310 C311 1.459 . S
C310 H374 0.929 . S
C311 C310 1.459 . S
C311 C312 1.445 . S
C311 C320 1.395 . S
C312 C290 1.432 . S
C312 C311 1.445 . S
C312 C313 1.370 . S
C313 C312 1.370 . S
C313 C314 1.438 . S
C313 H375 0.930 . S
C314 C300 1.497 . S
C314 C313 1.438 . S
C314 C315 1.360 . S
C315 C314 1.360 . S
C315 C316 1.401 . S
C315 C320 1.446 . S
C316 C315 1.401 . S
C316 C317 1.347 . S
C316 H376 0.929 . S
C317 C316 1.347 . S
C317 C318 1.455 . S
C317 H377 0.930 . S
C318 C305 1.412 . S
C318 C317 1.455 . S
C318 C319 1.331 . S
C319 C308 1.451 . S
C319 C318 1.331 . S
C319 C320 1.497 . S
C320 C311 1.395 . S
C320 C315 1.446 . S
C320 C319 1.497 . S
C321 C322 1.582 . S
C321 H378 0.962 1_556 S
C321 H379 0.959 . S
C321 H380 0.958 1_556 S
C322 C321 1.582 . S
C322 O325 1.458 . S
C322 H351 0.980 . S
O323 C268 1.426 . S
O323 C269 1.334 . S
O324 C296 1.412 . S
O324 C297 1.393 . S
O325 C287 1.435 . S
O325 C322 1.458 . S
O326 C278 1.468 . S
O326 C279 1.408 . S
H327 C268 0.980 . S
H328 C267 0.959 . S
H329 C267 0.959 . S
H330 C267 0.960 . S
H331 C270 0.929 . S
H332 C274 0.929 . S
H333 C275 0.959 . S
H334 C275 0.961 . S
H335 C275 0.961 . S
H336 C276 0.960 . S
H337 C276 0.960 . S
H338 C276 0.961 . S
H339 C278 0.980 . S
H340 C277 0.961 . S
H341 C277 0.960 . S
H342 C277 0.959 . S
H343 C280 0.930 . S
H344 C284 0.931 . S
H345 C285 0.959 . S
H346 C285 0.961 . S
H347 C285 0.959 . S
H348 C286 0.960 . S
H349 C286 0.960 . S
H350 C286 0.960 . S
H351 C322 0.980 . S
H352 C288 0.930 . S
H353 C292 0.930 . S
H354 C293 0.961 . S
H355 C293 0.960 . S
H356 C293 0.958 . S
H357 C294 0.961 . S
H358 C294 0.960 . S
H359 C294 0.960 . S
H360 C296 0.980 . S
H361 C295 0.961 1_554 S
H362 C295 0.961 . S
H363 C295 0.959 1_554 S
H364 C298 0.932 . S
H365 C302 0.929 . S
H366 C303 0.961 . S
H367 C303 0.959 . S
H368 C303 0.959 . S
H369 C304 0.960 . S
H370 C304 0.962 . S
H371 C304 0.961 . S
H372 C306 0.929 . S
H373 C309 0.930 . S
H374 C310 0.929 . S
H375 C313 0.930 . S
H376 C316 0.929 . S
H377 C317 0.930 . S
H378 C321 0.962 1_554 S
H379 C321 0.959 . S
H380 C321 0.958 1_554 S
C381 C382 1.369 1_655 S
C381 C383 1.419 . S
C381 H385 0.930 . S
C382 C381 1.369 1_455 S
C382 C391 1.429 . S
C383 C381 1.419 . S
C383 C384 1.363 1_655 S
C383 H386 0.929 . S
C384 C383 1.363 1_455 S
C384 C390 1.428 . S
H385 C381 0.930 . S
H386 C383 0.929 . S
S387 N388 1.613 . S
S387 N389 1.610 . S
N388 S387 1.613 . S
N388 C391 1.350 . S
N389 S387 1.610 . S
N389 C390 1.351 . S
C390 C384 1.428 . S
C390 N389 1.351 . S
C390 C391 1.434 . S
C391 C382 1.429 . S
C391 N388 1.350 . S
C391 C390 1.434 . S
C392 C393 1.369 . S
C392 C394 1.419 . S
C392 H396 0.930 . S
C393 C392 1.369 . S
C393 C402 1.429 1_545 S
C394 C392 1.419 . S
C394 C395 1.363 . S
C394 H397 0.929 . S
C395 C394 1.363 . S
C395 C401 1.428 1_545 S
H396 C392 0.930 . S
H397 C394 0.929 . S
S398 N399 1.613 . S
S398 N400 1.610 . S
N399 S398 1.613 . S
N399 C402 1.350 . S
N400 S398 1.610 . S
N400 C401 1.351 . S
C401 C395 1.428 1_565 S
C401 N400 1.351 . S
C401 C402 1.434 . S
C402 C393 1.429 1_565 S
C402 N399 1.350 . S
C402 C401 1.434 . S
C403 C404 1.369 . S
C403 C405 1.419 . S
C403 H407 0.930 . S
C404 C403 1.369 . S
C404 C413 1.429 . S
C405 C403 1.419 . S
C405 C406 1.363 . S
C405 H408 0.929 . S
C406 C405 1.363 . S
C406 C412 1.428 . S
H407 C403 0.930 . S
H408 C405 0.929 . S
S409 N410 1.613 . S
S409 N411 1.610 . S
N410 S409 1.613 . S
N410 C413 1.350 . S
N411 S409 1.610 . S
N411 C412 1.351 . S
C412 C406 1.428 . S
C412 N411 1.351 . S
C412 C413 1.434 . S
C413 C404 1.429 . S
C413 N410 1.350 . S
C413 C412 1.434 . S
C414 C415 1.369 . S
C414 C416 1.419 . S
C414 H418 0.930 . S
C415 C414 1.369 . S
C415 C424 1.429 1_455 S
C416 C414 1.419 . S
C416 C417 1.363 . S
C416 H419 0.929 . S
C417 C416 1.363 . S
C417 C423 1.436 . S
H418 C414 0.930 . S
H419 C416 0.929 . S
S420 N421 1.613 . S
S420 N422 1.610 . S
N421 S420 1.613 . S
N421 C424 1.350 . S
N422 S420 1.610 . S
N422 C423 1.348 1_655 S
C423 C417 1.436 . S
C423 N422 1.348 1_455 S
C423 C424 1.429 1_455 S
C424 C415 1.429 1_655 S
C424 N421 1.350 . S
C424 C423 1.429 1_655 S
C425 C426 1.369 . S
C425 C427 1.419 . S
C425 H429 0.930 . S
C426 C425 1.369 . S
C426 C435 1.429 . S
C427 C425 1.419 . S
C427 C428 1.363 . S
C427 H430 0.929 . S
C428 C427 1.363 . S
C428 C434 1.428 . S
H429 C425 0.930 . S
H430 C427 0.929 . S
S431 N432 1.613 . S
S431 N433 1.610 . S
N432 S431 1.613 . S
N432 C435 1.350 . S
N433 S431 1.610 . S
N433 C434 1.351 . S
C434 C428 1.428 . S
C434 N433 1.351 . S
C434 C435 1.434 . S
C435 C426 1.429 . S
C435 N432 1.350 . S
C435 C434 1.434 . S
C436 C437 1.369 . S
C436 C438 1.419 . S
C436 H440 0.930 . S
C437 C436 1.369 . S
C437 C446 1.429 . S
C438 C436 1.419 . S
C438 C439 1.363 . S
C438 H441 0.929 . S
C439 C438 1.363 . S
C439 C445 1.428 . S
H440 C436 0.930 . S
H441 C438 0.929 . S
S442 N443 1.613 . S
S442 N444 1.610 . S
N443 S442 1.613 . S
N443 C446 1.350 . S
N444 S442 1.610 . S
N444 C445 1.351 . S
C445 C439 1.428 . S
C445 N444 1.351 . S
C445 C446 1.434 . S
C446 C437 1.429 . S
C446 N443 1.350 . S
C446 C445 1.434 . S
C447 C448 1.369 . S
C447 C449 1.419 . S
C447 H451 0.930 . S
C448 C447 1.369 . S
C448 C457 1.429 1_545 S
C449 C447 1.419 . S
C449 C450 1.363 . S
C449 H452 0.929 . S
C450 C449 1.363 . S
C450 C456 1.428 1_545 S
H451 C447 0.930 . S
H452 C449 0.929 . S
S453 N454 1.613 . S
S453 N455 1.610 . S
N454 S453 1.613 . S
N454 C457 1.350 . S
N455 S453 1.610 . S
N455 C456 1.351 . S
C456 C450 1.428 1_565 S
C456 N455 1.351 . S
C456 C457 1.434 . S
C457 C448 1.429 1_565 S
C457 N454 1.350 . S
C457 C456 1.434 . S
C458 C459 1.369 . S
C458 C460 1.419 . S
C458 H462 0.930 . S
C459 C458 1.369 . S
C459 C468 1.429 . S
C460 C458 1.419 . S
C460 C461 1.363 . S
C460 H463 0.929 . S
C461 C460 1.363 . S
C461 C467 1.428 . S
H462 C458 0.930 . S
H463 C460 0.929 . S
S464 N465 1.613 . S
S464 N466 1.610 . S
N465 S464 1.613 . S
N465 C468 1.350 . S
N466 S464 1.610 . S
N466 C467 1.351 . S
C467 C461 1.428 . S
C467 N466 1.351 . S
C467 C468 1.434 . S
C468 C459 1.429 . S
C468 N465 1.350 . S
C468 C467 1.434 . S
C469 C470 1.369 1_655 S
C469 C471 1.419 . S
C469 H473 0.930 . S
C470 C469 1.369 1_455 S
C470 C479 1.429 . S
C471 C469 1.419 . S
C471 C472 1.363 1_655 S
C471 H474 0.929 . S
C472 C471 1.363 1_455 S
C472 C478 1.428 . S
H473 C469 0.930 . S
H474 C471 0.929 . S
S475 N476 1.613 . S
S475 N477 1.610 . S
N476 S475 1.613 . S
N476 C479 1.350 . S
N477 S475 1.610 . S
N477 C478 1.351 . S
C478 C472 1.428 . S
C478 N477 1.351 . S
C478 C479 1.434 . S
C479 C470 1.429 . S
C479 N476 1.350 . S
C479 C478 1.434 . S
C480 C481 1.369 . S
C480 C482 1.419 . S
C480 H484 0.930 . S
C481 C480 1.369 . S
C481 C490 1.429 . S
C482 C480 1.419 . S
C482 C483 1.363 . S
C482 H485 0.929 . S
C483 C482 1.363 . S
C483 C489 1.428 . S
H484 C480 0.930 . S
H485 C482 0.929 . S
S486 N487 1.613 . S
S486 N488 1.610 . S
N487 S486 1.613 . S
N487 C490 1.350 . S
N488 S486 1.610 . S
N488 C489 1.351 . S
C489 C483 1.428 . S
C489 N488 1.351 . S
C489 C490 1.434 . S
C490 C481 1.429 . S
C490 N487 1.350 . S
C490 C489 1.434 . S
C491 C492 1.369 . S
C491 C493 1.419 . S
C491 H495 0.930 . S
C492 C491 1.369 . S
C492 C501 1.429 . S
C493 C491 1.419 . S
C493 C494 1.345 1_554 S
C493 H496 0.929 . S
C494 C493 1.345 1_556 S
C494 C500 1.421 1_556 S
H495 C491 0.930 . S
H496 C493 0.929 . S
S497 N498 1.613 . S
S497 N499 1.610 1_554 S
N498 S497 1.613 . S
N498 C501 1.350 . S
N499 S497 1.610 1_556 S
N499 C500 1.351 1_556 S
C500 C494 1.421 1_554 S
C500 N499 1.351 1_554 S
C500 C501 1.434 . S
C501 C492 1.429 . S
C501 N498 1.350 . S
C501 C500 1.434 . S
C502 C503 1.369 1_655 S
C502 C504 1.419 . S
C502 H506 0.930 . S
C503 C502 1.369 1_455 S
C503 C512 1.429 . S
C504 C502 1.419 . S
C504 C505 1.363 1_655 S
C504 H507 0.929 . S
C505 C504 1.363 1_455 S
C505 C511 1.428 . S
H506 C502 0.930 . S
H507 C504 0.929 . S
S508 N509 1.613 . S
S508 N510 1.610 . S
N509 S508 1.613 . S
N509 C512 1.350 . S
N510 S508 1.610 . S
N510 C511 1.351 . S
C511 C505 1.428 . S
C511 N510 1.351 . S
C511 C512 1.434 . S
C512 C503 1.429 . S
C512 N509 1.350 . S
C512 C511 1.434 . S
C384 C94 1.122 . S
C382 C10 1.604 . S
C393 C17 1.609 . S
C395 C208 1.151 . S
C404 C36 1.414 . S
C406 C268 1.169 . S
C415 C5 1.510 . S
C417 C68 1.130 . S
C428 C182 1.131 . S
C426 C16 1.520 . S
C437 C31 1.530 . S
C439 C278 0.963 . S
C450 C164 0.990 . S
C448 C30 1.535 . S
C459 C3 1.514 . S
C461 C296 1.131 1_554 S
C472 C40 1.182 1_455 S
C470 C18 1.418 . S
C483 C154 1.166 . S
C481 C29 1.418 . S
C494 C322 1.174 . S
C492 C4 1.607 . S
C503 C23 1.521 . S
C505 C50 0.955 . S
