# Generated by pormake.
# Topology ctn, (3,4)-cn, num edge types: 1
# Building blocks:
#     Node 0, Type 0, BuildingBlock: BELTOD_clean_linker_0, # of connection points: 3
#     Node 1, Type 0, BuildingBlock: BELTOD_clean_linker_0, # of connection points: 3
#     Node 2, Type 0, BuildingBlock: BELTOD_clean_linker_0, # of connection points: 3
#     Node 3, Type 0, BuildingBlock: BELTOD_clean_linker_0, # of connection points: 3
#     Node 4, Type 0, BuildingBlock: BELTOD_clean_linker_0, # of connection points: 3
#     Node 5, Type 0, BuildingBlock: BELTOD_clean_linker_0, # of connection points: 3
#     Node 6, Type 0, BuildingBlock: BELTOD_clean_linker_0, # of connection points: 3
#     Node 7, Type 0, BuildingBlock: BELTOD_clean_linker_0, # of connection points: 3
#     Node 8, Type 0, BuildingBlock: BELTOD_clean_linker_0, # of connection points: 3
#     Node 9, Type 0, BuildingBlock: BELTOD_clean_linker_0, # of connection points: 3
#     Node 10, Type 0, BuildingBlock: BELTOD_clean_linker_0, # of connection points: 3
#     Node 11, Type 0, BuildingBlock: BELTOD_clean_linker_0, # of connection points: 3
#     Node 12, Type 0, BuildingBlock: BELTOD_clean_linker_0, # of connection points: 3
#     Node 13, Type 0, BuildingBlock: BELTOD_clean_linker_0, # of connection points: 3
#     Node 14, Type 0, BuildingBlock: BELTOD_clean_linker_0, # of connection points: 3
#     Node 15, Type 0, BuildingBlock: BELTOD_clean_linker_0, # of connection points: 3
#     Node 16, Type 1, BuildingBlock: QUQFOY_clean_sbu_1, # of connection points: 4
#     Node 17, Type 1, BuildingBlock: QUQFOY_clean_sbu_1, # of connection points: 4
#     Node 18, Type 1, BuildingBlock: QUQFOY_clean_sbu_1, # of connection points: 4
#     Node 19, Type 1, BuildingBlock: QUQFOY_clean_sbu_1, # of connection points: 4
#     Node 20, Type 1, BuildingBlock: QUQFOY_clean_sbu_1, # of connection points: 4
#     Node 21, Type 1, BuildingBlock: QUQFOY_clean_sbu_1, # of connection points: 4
#     Node 22, Type 1, BuildingBlock: QUQFOY_clean_sbu_1, # of connection points: 4
#     Node 23, Type 1, BuildingBlock: QUQFOY_clean_sbu_1, # of connection points: 4
#     Node 24, Type 1, BuildingBlock: QUQFOY_clean_sbu_1, # of connection points: 4
#     Node 25, Type 1, BuildingBlock: QUQFOY_clean_sbu_1, # of connection points: 4
#     Node 26, Type 1, BuildingBlock: QUQFOY_clean_sbu_1, # of connection points: 4
#     Node 27, Type 1, BuildingBlock: QUQFOY_clean_sbu_1, # of connection points: 4
#     Edge 28, Type (0, 1), BuildingBlock: XIVTED_clean_linker_0, # of connection points: 2
#     Edge 29, Type (0, 1), BuildingBlock: XIVTED_clean_linker_0, # of connection points: 2
#     Edge 30, Type (0, 1), BuildingBlock: XIVTED_clean_linker_0, # of connection points: 2
#     Edge 31, Type (0, 1), BuildingBlock: XIVTED_clean_linker_0, # of connection points: 2
#     Edge 32, Type (0, 1), BuildingBlock: XIVTED_clean_linker_0, # of connection points: 2
#     Edge 33, Type (0, 1), BuildingBlock: XIVTED_clean_linker_0, # of connection points: 2
#     Edge 34, Type (0, 1), BuildingBlock: XIVTED_clean_linker_0, # of connection points: 2
#     Edge 35, Type (0, 1), BuildingBlock: XIVTED_clean_linker_0, # of connection points: 2
#     Edge 36, Type (0, 1), BuildingBlock: XIVTED_clean_linker_0, # of connection points: 2
#     Edge 37, Type (0, 1), BuildingBlock: XIVTED_clean_linker_0, # of connection points: 2
#     Edge 38, Type (0, 1), BuildingBlock: XIVTED_clean_linker_0, # of connection points: 2
#     Edge 39, Type (0, 1), BuildingBlock: XIVTED_clean_linker_0, # of connection points: 2
#     Edge 40, Type (0, 1), BuildingBlock: XIVTED_clean_linker_0, # of connection points: 2
#     Edge 41, Type (0, 1), BuildingBlock: XIVTED_clean_linker_0, # of connection points: 2
#     Edge 42, Type (0, 1), BuildingBlock: XIVTED_clean_linker_0, # of connection points: 2
#     Edge 43, Type (0, 1), BuildingBlock: XIVTED_clean_linker_0, # of connection points: 2
#     Edge 44, Type (0, 1), BuildingBlock: XIVTED_clean_linker_0, # of connection points: 2
#     Edge 45, Type (0, 1), BuildingBlock: XIVTED_clean_linker_0, # of connection points: 2
#     Edge 46, Type (0, 1), BuildingBlock: XIVTED_clean_linker_0, # of connection points: 2
#     Edge 47, Type (0, 1), BuildingBlock: XIVTED_clean_linker_0, # of connection points: 2
#     Edge 48, Type (0, 1), BuildingBlock: XIVTED_clean_linker_0, # of connection points: 2
#     Edge 49, Type (0, 1), BuildingBlock: XIVTED_clean_linker_0, # of connection points: 2
#     Edge 50, Type (0, 1), BuildingBlock: XIVTED_clean_linker_0, # of connection points: 2
#     Edge 51, Type (0, 1), BuildingBlock: XIVTED_clean_linker_0, # of connection points: 2
#     Edge 52, Type (0, 1), BuildingBlock: XIVTED_clean_linker_0, # of connection points: 2
#     Edge 53, Type (0, 1), BuildingBlock: XIVTED_clean_linker_0, # of connection points: 2
#     Edge 54, Type (0, 1), BuildingBlock: XIVTED_clean_linker_0, # of connection points: 2
#     Edge 55, Type (0, 1), BuildingBlock: XIVTED_clean_linker_0, # of connection points: 2
#     Edge 56, Type (0, 1), BuildingBlock: XIVTED_clean_linker_0, # of connection points: 2
#     Edge 57, Type (0, 1), BuildingBlock: XIVTED_clean_linker_0, # of connection points: 2
#     Edge 58, Type (0, 1), BuildingBlock: XIVTED_clean_linker_0, # of connection points: 2
#     Edge 59, Type (0, 1), BuildingBlock: XIVTED_clean_linker_0, # of connection points: 2
#     Edge 60, Type (0, 1), BuildingBlock: XIVTED_clean_linker_0, # of connection points: 2
#     Edge 61, Type (0, 1), BuildingBlock: XIVTED_clean_linker_0, # of connection points: 2
#     Edge 62, Type (0, 1), BuildingBlock: XIVTED_clean_linker_0, # of connection points: 2
#     Edge 63, Type (0, 1), BuildingBlock: XIVTED_clean_linker_0, # of connection points: 2
#     Edge 64, Type (0, 1), BuildingBlock: XIVTED_clean_linker_0, # of connection points: 2
#     Edge 65, Type (0, 1), BuildingBlock: XIVTED_clean_linker_0, # of connection points: 2
#     Edge 66, Type (0, 1), BuildingBlock: XIVTED_clean_linker_0, # of connection points: 2
#     Edge 67, Type (0, 1), BuildingBlock: XIVTED_clean_linker_0, # of connection points: 2
#     Edge 68, Type (0, 1), BuildingBlock: XIVTED_clean_linker_0, # of connection points: 2
#     Edge 69, Type (0, 1), BuildingBlock: XIVTED_clean_linker_0, # of connection points: 2
#     Edge 70, Type (0, 1), BuildingBlock: XIVTED_clean_linker_0, # of connection points: 2
#     Edge 71, Type (0, 1), BuildingBlock: XIVTED_clean_linker_0, # of connection points: 2
#     Edge 72, Type (0, 1), BuildingBlock: XIVTED_clean_linker_0, # of connection points: 2
#     Edge 73, Type (0, 1), BuildingBlock: XIVTED_clean_linker_0, # of connection points: 2
#     Edge 74, Type (0, 1), BuildingBlock: XIVTED_clean_linker_0, # of connection points: 2
#     Edge 75, Type (0, 1), BuildingBlock: XIVTED_clean_linker_0, # of connection points: 2
# Relax obj value: 0.037
# Max RMSD: 0.151
# Mean RMSD: 0.067
data_MOF--net-ctn--node1-QUQFOY_clean_sbu_1--node2-BELTOD_clean_linker_0--edge1-XIVTED_clean_linker_0
_symmetry_space_group_name_H-M    P1
_symmetry_Int_Tables_number       1
_symmetry_cell_setting            triclinic
loop_
_symmetry_equiv_pos_as_xyz
'x, y, z'
_cell_length_a     62.271736
_cell_length_b     62.697265
_cell_length_c     62.255815
_cell_angle_alpha  92.114894
_cell_angle_beta   90.158344
_cell_angle_gamma 95.437799
loop_
_atom_site_label
_atom_site_type_symbol
_atom_site_fract_x
_atom_site_fract_y
_atom_site_fract_z
_atom_type_partial_charge
P0 P 0.07922 0.11057 0.0778 0.0
H1 H 0.07923 0.08379 0.11496 0.0
H2 H 0.05121 0.07158 0.14035 0.0
H3 H 0.00641 0.10919 0.10918 0.0
H4 H 0.03452 0.12148 0.08395 0.0
H5 H 0.1221 0.10547 0.06092 0.0
H6 H 0.13911 0.0744 0.04653 0.0
H7 H 0.0806 0.03381 0.0581 0.0
H8 H 0.06366 0.06495 0.07237 0.0
H9 H 0.08238 0.15443 0.06249 0.0
H10 H 0.05043 0.09259 0.04338 0.0
O11 O 0.0978 0.12808 0.08967 0.0
H12 H 0.0654 0.17055 0.03242 0.0
H13 H 0.03368 0.10848 0.01302 0.0
C14 C 0.0588 0.10305 0.09724 0.0
C15 C 0.06338 0.08942 0.11362 0.0
C16 C 0.04735 0.08242 0.12807 0.0
C17 C 0.02653 0.08921 0.12656 0.0
C18 C 0.0223 0.1037 0.11073 0.0
C19 C 0.03833 0.11059 0.09619 0.0
C20 C 0.09185 0.08741 0.06822 0.0
C21 C 0.11302 0.08985 0.06054 0.0
C22 C 0.12265 0.07212 0.05218 0.0
C23 C 0.11121 0.05165 0.0513 0.0
C24 C 0.08992 0.04931 0.05891 0.0
C25 C 0.08025 0.0671 0.06709 0.0
C26 C 0.06778 0.1223 0.05502 0.0
C27 C 0.07192 0.14427 0.05166 0.0
C28 C 0.06228 0.15344 0.03439 0.0
C29 C 0.04823 0.14078 0.02029 0.0
C30 C 0.04427 0.1187 0.02369 0.0
C31 C 0.05395 0.10957 0.04093 0.0
P32 P 0.29808 0.68327 0.175 0.0
H33 H 0.31181 0.69513 0.13195 0.0
H34 H 0.30243 0.72312 0.10845 0.0
H35 H 0.26033 0.74614 0.15746 0.0
H36 H 0.26929 0.71753 0.1806 0.0
H37 H 0.33509 0.66518 0.19368 0.0
H38 H 0.35977 0.67747 0.2232 0.0
H39 H 0.32894 0.73624 0.22965 0.0
H40 H 0.30434 0.72387 0.20029 0.0
H41 H 0.25187 0.67715 0.16417 0.0
H42 H 0.29342 0.66189 0.21585 0.0
O43 O 0.30793 0.66395 0.1599 0.0
H44 H 0.22062 0.66071 0.18312 0.0
H45 H 0.26263 0.6446 0.23431 0.0
C46 C 0.29105 0.7041 0.15789 0.0
C47 C 0.30046 0.70611 0.13759 0.0
C48 C 0.2952 0.72227 0.12423 0.0
C49 C 0.28062 0.73694 0.13106 0.0
C50 C 0.27135 0.73495 0.15156 0.0
C51 C 0.27657 0.71869 0.16486 0.0
C52 C 0.31814 0.69378 0.19446 0.0
C53 C 0.33391 0.68088 0.20118 0.0
C54 C 0.34786 0.68782 0.21818 0.0
C55 C 0.34628 0.70782 0.22871 0.0
C56 C 0.33072 0.72087 0.22165 0.0
C57 C 0.31665 0.71382 0.20481 0.0
C58 C 0.2749 0.67146 0.18894 0.0
C59 C 0.25427 0.67047 0.17969 0.0
C60 C 0.23642 0.66083 0.19044 0.0
C61 C 0.23901 0.65155 0.21042 0.0
C62 C 0.25987 0.65214 0.21931 0.0
C63 C 0.2776 0.66196 0.20866 0.0
P64 P 0.97548 0.48168 0.05309 0.0
H65 H 0.9874 0.46762 0.0101 0.0
H66 H 0.97767 0.43503 0.98839 0.0
H67 H 0.94002 0.40848 0.04095 0.0
H68 H 0.95016 0.44129 0.06283 0.0
H69 H 0.96511 0.52069 0.07633 0.0
H70 H 0.9373 0.54517 0.07085 0.0
H71 H 0.90957 0.50294 0.01957 0.0
H72 H 0.93733 0.47883 0.02489 0.0
H73 H 0.01614 0.47574 0.07392 0.0
H74 H 0.94949 0.47639 0.09223 0.0
O75 O 0.99675 0.49539 0.04219 0.0
H76 H 0.02638 0.47248 0.11137 0.0
H77 H 0.95951 0.47263 0.1299 0.0
C78 C 0.96983 0.45668 0.03818 0.0
C79 C 0.9773 0.4547 0.01709 0.0
C80 C 0.97151 0.43613 0.0046 0.0
C81 C 0.95793 0.41923 0.0129 0.0
C82 C 0.95064 0.42116 0.03419 0.0
C83 C 0.95643 0.43985 0.04669 0.0
C84 C 0.95317 0.4978 0.05123 0.0
C85 C 0.95278 0.51654 0.06418 0.0
C86 C 0.93689 0.5305 0.06106 0.0
C87 C 0.92133 0.52603 0.04469 0.0
C88 C 0.9215 0.50695 0.03213 0.0
C89 C 0.93731 0.49303 0.0353 0.0
C90 C 0.98218 0.47694 0.08047 0.0
C91 C 0.00368 0.47497 0.08604 0.0
C92 C 0.00946 0.47285 0.10746 0.0
C93 C 0.99378 0.47246 0.1237 0.0
C94 C 0.97203 0.47327 0.11784 0.0
C95 C 0.96627 0.47541 0.09634 0.0
P96 P 0.67663 0.82494 0.20183 0.0
H97 H 0.71999 0.83471 0.18464 0.0
H98 H 0.74991 0.86092 0.19556 0.0
H99 H 0.7119 0.88272 0.24862 0.0
H100 H 0.68255 0.85596 0.23814 0.0
H101 H 0.65771 0.79709 0.1672 0.0
H102 H 0.66883 0.76506 0.14878 0.0
H103 H 0.72363 0.7662 0.19173 0.0
H104 H 0.71238 0.79861 0.21006 0.0
H105 H 0.63633 0.84146 0.21489 0.0
H106 H 0.67804 0.79585 0.23757 0.0
O107 O 0.6637 0.83762 0.18336 0.0
H108 H 0.61282 0.83507 0.24564 0.0
H109 H 0.65456 0.78948 0.26873 0.0
C110 C 0.69932 0.84288 0.21097 0.0
C111 C 0.71832 0.8448 0.19892 0.0
C112 C 0.73531 0.86002 0.20502 0.0
C113 C 0.73338 0.87392 0.22305 0.0
C114 C 0.71418 0.87198 0.23497 0.0
C115 C 0.69731 0.85666 0.22894 0.0
C116 C 0.68455 0.80052 0.18955 0.0
C117 C 0.67209 0.79044 0.1727 0.0
C118 C 0.67837 0.77197 0.16233 0.0
C119 C 0.69717 0.76309 0.16876 0.0
C120 C 0.70924 0.77282 0.18623 0.0
C121 C 0.70284 0.79132 0.19669 0.0
C122 C 0.65869 0.81884 0.22377 0.0
C123 C 0.64033 0.82991 0.22641 0.0
C124 C 0.62702 0.82641 0.24415 0.0
C125 C 0.63191 0.81186 0.25969 0.0
C126 C 0.65029 0.80065 0.25693 0.0
C127 C 0.66368 0.80426 0.23915 0.0
P128 P 0.07984 0.92438 0.43285 0.0
H129 H 0.12642 0.92934 0.44033 0.0
H130 H 0.15166 0.96038 0.45061 0.0
H131 H 0.09908 0.00077 0.45086 0.0
H132 H 0.074 0.96963 0.44124 0.0
H133 H 0.08221 0.88203 0.45062 0.0
H134 H 0.07051 0.8669 0.48475 0.0
H135 H 0.04578 0.92678 0.504 0.0
H136 H 0.05744 0.94177 0.46972 0.0
H137 H 0.08043 0.94704 0.3932 0.0
H138 H 0.03218 0.92011 0.43662 0.0
O139 O 0.09254 0.90658 0.41833 0.0
H140 H 0.0523 0.96045 0.37146 0.0
H141 H 0.00389 0.93337 0.41485 0.0
C142 C 0.09847 0.94731 0.43958 0.0
C143 C 0.12041 0.94492 0.44247 0.0
C144 C 0.13481 0.96269 0.44827 0.0
C145 C 0.12741 0.98309 0.45144 0.0
C146 C 0.1053 0.98528 0.44874 0.0
C147 C 0.09096 0.96751 0.44301 0.0
C148 C 0.07054 0.91296 0.45761 0.0
C149 C 0.07423 0.89189 0.46214 0.0
C150 C 0.06768 0.88331 0.48173 0.0
C151 C 0.05726 0.89567 0.49708 0.0
C152 C 0.05358 0.9168 0.49242 0.0
C153 C 0.06028 0.9254 0.47289 0.0
C154 C 0.05844 0.93279 0.41661 0.0
C155 C 0.06375 0.94391 0.39797 0.0
C156 C 0.04764 0.9515 0.38552 0.0
C157 C 0.02585 0.94802 0.39146 0.0
C158 C 0.02055 0.93658 0.41004 0.0
C159 C 0.03673 0.92892 0.42246 0.0
P160 P 0.26599 0.76978 0.74977 0.0
H161 H 0.27571 0.81342 0.76818 0.0
H162 H 0.26621 0.83044 0.8024 0.0
H163 H 0.23255 0.77055 0.82107 0.0
H164 H 0.24247 0.75361 0.78701 0.0
H165 H 0.26711 0.73075 0.72247 0.0
H166 H 0.28309 0.697 0.72749 0.0
H167 H 0.30723 0.72093 0.7898 0.0
H168 H 0.29118 0.75438 0.78474 0.0
H169 H 0.24508 0.79814 0.72222 0.0
H170 H 0.23032 0.73571 0.7482 0.0
O171 O 0.28373 0.78578 0.73634 0.0
H172 H 0.20808 0.79758 0.70907 0.0
H173 H 0.19345 0.73462 0.73447 0.0
C174 C 0.26016 0.78217 0.77532 0.0
C175 C 0.26649 0.80392 0.77975 0.0
C176 C 0.26084 0.81368 0.79921 0.0
C177 C 0.24866 0.80183 0.81449 0.0
C178 C 0.24222 0.78004 0.80982 0.0
C179 C 0.24785 0.77034 0.79036 0.0
C180 C 0.27731 0.74477 0.75352 0.0
C181 C 0.27566 0.7286 0.73728 0.0
C182 C 0.28496 0.70942 0.7401 0.0
C183 C 0.29623 0.7062 0.75916 0.0
C184 C 0.29825 0.7227 0.77515 0.0
C185 C 0.28905 0.74186 0.77227 0.0
C186 C 0.24059 0.76675 0.7357 0.0
C187 C 0.23406 0.78397 0.72441 0.0
C188 C 0.21286 0.78362 0.7169 0.0
C189 C 0.19772 0.76608 0.72074 0.0
C190 C 0.2046 0.7485 0.73144 0.0
C191 C 0.22578 0.74894 0.73904 0.0
P192 P 0.96105 0.53893 0.53719 0.0
H193 H 0.99322 0.56956 0.51735 0.0
H194 H 0.0122 0.56866 0.48306 0.0
H195 H 0.97804 0.5071 0.46657 0.0
H196 H 0.95863 0.50825 0.50044 0.0
H197 H 0.97188 0.55523 0.58084 0.0
H198 H 0.97225 0.59063 0.59833 0.0
H199 H 0.95099 0.6159 0.53895 0.0
H200 H 0.95182 0.58055 0.52133 0.0
H201 H 0.94187 0.49471 0.53336 0.0
H202 H 0.91923 0.55778 0.53543 0.0
O203 O 0.97437 0.52336 0.55264 0.0
H204 H 0.90469 0.47875 0.52774 0.0
H205 H 0.88222 0.54175 0.53077 0.0
C206 C 0.97387 0.53931 0.51127 0.0
C207 C 0.9893 0.55614 0.50617 0.0
C208 C 0.00024 0.55559 0.48661 0.0
C209 C 0.99644 0.53787 0.47221 0.0
C210 C 0.9812 0.52096 0.47743 0.0
C211 C 0.97 0.52169 0.49678 0.0
C212 C 0.96207 0.56534 0.54974 0.0
C213 C 0.96754 0.56844 0.57153 0.0
C214 C 0.96747 0.5887 0.58159 0.0
C215 C 0.96152 0.60619 0.57012 0.0
C216 C 0.95599 0.60294 0.54823 0.0
C217 C 0.95636 0.58272 0.53814 0.0
C218 C 0.93347 0.52746 0.53474 0.0
C219 C 0.92898 0.50513 0.53273 0.0
C220 C 0.90782 0.49602 0.52952 0.0
C221 C 0.89083 0.50914 0.52881 0.0
C222 C 0.89519 0.53142 0.5313 0.0
C223 C 0.9164 0.54054 0.53398 0.0
P224 P 0.83379 0.88155 0.869 0.0
H225 H 0.83997 0.89548 0.82444 0.0
H226 H 0.86119 0.88246 0.79466 0.0
H227 H 0.88514 0.83588 0.83594 0.0
H228 H 0.8629 0.84804 0.86498 0.0
H229 H 0.81474 0.91803 0.88854 0.0
H230 H 0.78383 0.93694 0.87919 0.0
H231 H 0.7718 0.89458 0.82319 0.0
H232 H 0.80252 0.87526 0.83313 0.0
H233 H 0.85067 0.86314 0.90727 0.0
H234 H 0.79635 0.84958 0.86415 0.0
O235 O 0.85055 0.89819 0.88417 0.0
H236 H 0.83942 0.83075 0.92663 0.0
H237 H 0.78497 0.81728 0.88351 0.0
C238 C 0.84907 0.8721 0.84668 0.0
C239 C 0.84935 0.88209 0.82689 0.0
C240 C 0.86182 0.87484 0.80993 0.0
C241 C 0.87472 0.85785 0.8127 0.0
C242 C 0.8749 0.84847 0.83288 0.0
C243 C 0.86221 0.8555 0.84963 0.0
C244 C 0.81131 0.89566 0.86119 0.0
C245 C 0.80559 0.91292 0.87414 0.0
C246 C 0.78792 0.92378 0.86871 0.0
C247 C 0.77551 0.91751 0.85022 0.0
C248 C 0.78099 0.89982 0.83753 0.0
C249 C 0.79868 0.88891 0.84306 0.0
C250 C 0.82412 0.85901 0.88454 0.0
C251 C 0.83614 0.8534 0.90218 0.0
C252 C 0.8298 0.8348 0.91312 0.0
C253 C 0.8113 0.82154 0.9066 0.0
C254 C 0.79913 0.82737 0.88908 0.0
C255 C 0.80562 0.84585 0.87801 0.0
P256 P 0.3358 0.37453 0.37106 0.0
H257 H 0.34352 0.39131 0.3278 0.0
H258 H 0.36662 0.381 0.29841 0.0
H259 H 0.39018 0.33258 0.33772 0.0
H260 H 0.36595 0.342 0.36627 0.0
H261 H 0.31495 0.40895 0.39235 0.0
H262 H 0.28409 0.42797 0.38313 0.0
H263 H 0.27565 0.38989 0.32385 0.0
H264 H 0.30623 0.37033 0.33368 0.0
H265 H 0.35122 0.35435 0.40897 0.0
H266 H 0.29913 0.34225 0.36301 0.0
O267 O 0.35164 0.39052 0.38773 0.0
H268 H 0.33892 0.32138 0.42687 0.0
H269 H 0.28671 0.3093 0.38088 0.0
C270 C 0.35226 0.3668 0.3489 0.0
C271 C 0.3532 0.37808 0.32985 0.0
C272 C 0.36679 0.37239 0.31315 0.0
C273 C 0.38024 0.35575 0.31548 0.0
C274 C 0.37965 0.34499 0.33495 0.0
C275 C 0.3658 0.35044 0.35142 0.0
C276 C 0.31333 0.38873 0.36337 0.0
C277 C 0.30659 0.4048 0.37727 0.0
C278 C 0.28894 0.41573 0.37193 0.0
C279 C 0.27757 0.41074 0.35254 0.0
C280 C 0.28401 0.39415 0.33889 0.0
C281 C 0.30166 0.38313 0.34436 0.0
C282 C 0.32583 0.35098 0.38494 0.0
C283 C 0.33699 0.34474 0.40288 0.0
C284 C 0.33006 0.32581 0.41298 0.0
C285 C 0.31181 0.31281 0.4053 0.0
C286 C 0.30064 0.31916 0.38733 0.0
C287 C 0.30772 0.338 0.37711 0.0
P288 P 0.47709 0.98677 0.56408 0.0
H289 H 0.49745 0.97275 0.52453 0.0
H290 H 0.49079 0.94091 0.50102 0.0
H291 H 0.44157 0.91517 0.5443 0.0
H292 H 0.44871 0.94714 0.56812 0.0
H293 H 0.46179 0.02295 0.58872 0.0
H294 H 0.43311 0.04614 0.58196 0.0
H295 H 0.41363 0.00694 0.52543 0.0
H296 H 0.44232 0.98424 0.53199 0.0
H297 H 0.51681 0.98204 0.5871 0.0
H298 H 0.44884 0.97802 0.60119 0.0
O299 O 0.49836 0.00204 0.55511 0.0
H300 H 0.52489 0.97682 0.62472 0.0
H301 H 0.45673 0.9723 0.63904 0.0
C302 C 0.47372 0.96218 0.54815 0.0
C303 C 0.48543 0.96016 0.52915 0.0
C304 C 0.48144 0.94201 0.51559 0.0
C305 C 0.46548 0.9256 0.52068 0.0
C306 C 0.45407 0.92746 0.54002 0.0
C307 C 0.45812 0.94569 0.55363 0.0
C308 C 0.45397 0.00163 0.56112 0.0
C309 C 0.45105 0.01914 0.57513 0.0
C310 C 0.43466 0.03237 0.57126 0.0
C311 C 0.42119 0.02843 0.55309 0.0
C312 C 0.42391 0.01056 0.53941 0.0
C313 C 0.44022 0.99739 0.5433 0.0
C314 C 0.48231 0.98104 0.59156 0.0
C315 C 0.50359 0.97987 0.59832 0.0
C316 C 0.50817 0.97661 0.61983 0.0
C317 C 0.49146 0.97425 0.63497 0.0
C318 C 0.46998 0.97441 0.62786 0.0
C319 C 0.46545 0.97767 0.60626 0.0
P320 P 0.17065 0.32853 0.7026 0.0
H321 H 0.1901 0.3647 0.67908 0.0
H322 H 0.21989 0.39201 0.68745 0.0
H323 H 0.23234 0.36065 0.74626 0.0
H324 H 0.20239 0.33341 0.7378 0.0
H325 H 0.15339 0.30508 0.66412 0.0
H326 H 0.16422 0.27406 0.64377 0.0
H327 H 0.216 0.26909 0.6892 0.0
H328 H 0.20518 0.30065 0.70938 0.0
H329 H 0.16247 0.35311 0.74185 0.0
H330 H 0.14699 0.2886 0.71625 0.0
O331 O 0.15341 0.34038 0.6875 0.0
H332 H 0.14011 0.34501 0.77312 0.0
H333 H 0.12388 0.2806 0.7471 0.0
C334 C 0.19375 0.34739 0.70809 0.0
C335 C 0.19928 0.36367 0.69375 0.0
C336 C 0.21639 0.37919 0.69848 0.0
C337 C 0.2283 0.3786 0.71763 0.0
C338 C 0.22319 0.36174 0.73159 0.0
C339 C 0.20615 0.34614 0.72674 0.0
C340 C 0.17871 0.30536 0.68803 0.0
C341 C 0.1671 0.29738 0.66971 0.0
C342 C 0.1732 0.27946 0.6582 0.0
C343 C 0.19096 0.26902 0.66489 0.0
C344 C 0.2024 0.2769 0.6835 0.0
C345 C 0.19623 0.2949 0.69505 0.0
C346 C 0.15679 0.32133 0.72696 0.0
C347 C 0.1546 0.33705 0.74317 0.0
C348 C 0.1416 0.33246 0.76094 0.0
C349 C 0.13011 0.31217 0.76259 0.0
C350 C 0.13277 0.29627 0.74653 0.0
C351 C 0.14593 0.30085 0.72881 0.0
P352 P 0.78235 0.18037 0.67636 0.0
H353 H 0.79681 0.19627 0.63481 0.0
H354 H 0.78892 0.22748 0.61488 0.0
H355 H 0.74806 0.24698 0.66661 0.0
H356 H 0.75591 0.21555 0.68638 0.0
H357 H 0.79948 0.1561 0.71039 0.0
H358 H 0.82538 0.16583 0.73935 0.0
H359 H 0.83952 0.22836 0.71266 0.0
H360 H 0.81256 0.21892 0.68473 0.0
H361 H 0.74275 0.15736 0.65952 0.0
H362 H 0.76735 0.18217 0.7212 0.0
O363 O 0.79004 0.16152 0.65921 0.0
H364 H 0.70942 0.14304 0.67646 0.0
H365 H 0.73534 0.16629 0.73852 0.0
C366 C 0.77659 0.20342 0.66182 0.0
C367 C 0.78608 0.20721 0.6418 0.0
C368 C 0.78168 0.22514 0.63052 0.0
C369 C 0.76778 0.23965 0.63915 0.0
C370 C 0.75855 0.23592 0.6594 0.0
C371 C 0.76305 0.218 0.67072 0.0
C372 C 0.80363 0.18697 0.69582 0.0
C373 C 0.80819 0.17191 0.71085 0.0
C374 C 0.82319 0.17747 0.72731 0.0
C375 C 0.83441 0.19807 0.72868 0.0
C376 C 0.83072 0.21262 0.71265 0.0
C377 C 0.81537 0.20717 0.69647 0.0
C378 C 0.75787 0.17005 0.68918 0.0
C379 C 0.74111 0.15938 0.67678 0.0
C380 C 0.72209 0.15109 0.68656 0.0
C381 C 0.71962 0.15309 0.70902 0.0
C382 C 0.73632 0.16451 0.72121 0.0
C383 C 0.75504 0.17324 0.71133 0.0
P384 P 0.57945 0.6145 0.58281 0.0
H385 H 0.58009 0.59462 0.62413 0.0
H386 H 0.55173 0.58382 0.64975 0.0
H387 H 0.50534 0.61248 0.61098 0.0
H388 H 0.5337 0.62332 0.58554 0.0
H389 H 0.61868 0.60498 0.56067 0.0
H390 H 0.6317 0.57154 0.54672 0.0
H391 H 0.5742 0.53601 0.57009 0.0
H392 H 0.56113 0.56944 0.58369 0.0
H393 H 0.58307 0.65892 0.56918 0.0
H394 H 0.55244 0.5976 0.54657 0.0
O395 O 0.5999 0.63035 0.59384 0.0
H396 H 0.56743 0.67608 0.53896 0.0
H397 H 0.53696 0.61457 0.51617 0.0
C398 C 0.55898 0.60953 0.60284 0.0
C399 C 0.56387 0.59882 0.62133 0.0
C400 C 0.54765 0.59257 0.63586 0.0
C401 C 0.52629 0.59714 0.63223 0.0
C402 C 0.52167 0.60883 0.61423 0.0
C403 C 0.53789 0.61492 0.5996 0.0
C404 C 0.58924 0.58966 0.57369 0.0
C405 C 0.60898 0.58997 0.56294 0.0
C406 C 0.61631 0.5709 0.55487 0.0
C407 C 0.60399 0.55118 0.55744 0.0
C408 C 0.58417 0.55094 0.56818 0.0
C409 C 0.57673 0.57006 0.57601 0.0
C410 C 0.56913 0.62698 0.55991 0.0
C411 C 0.57322 0.64911 0.55754 0.0
C412 C 0.56434 0.65888 0.54022 0.0
C413 C 0.55102 0.64667 0.52513 0.0
C414 C 0.54703 0.62444 0.52759 0.0
C415 C 0.556 0.6147 0.54486 0.0
P416 P 0.5767 0.43664 0.92878 0.0
H417 H 0.62363 0.44246 0.9234 0.0
H418 H 0.65069 0.47202 0.93328 0.0
H419 H 0.60036 0.50852 0.95886 0.0
H420 H 0.57363 0.4786 0.94963 0.0
H421 H 0.589 0.39959 0.95152 0.0
H422 H 0.57736 0.38414 0.98556 0.0
H423 H 0.53435 0.43383 0.99527 0.0
H424 H 0.54571 0.44881 0.96101 0.0
H425 H 0.57136 0.47518 0.90436 0.0
H426 H 0.53282 0.41731 0.92088 0.0
O427 O 0.58751 0.41833 0.91316 0.0
H428 H 0.54062 0.48714 0.88531 0.0
H429 H 0.50205 0.42908 0.9014 0.0
C430 C 0.59663 0.45851 0.93552 0.0
C431 C 0.61846 0.45686 0.93109 0.0
C432 C 0.6339 0.47383 0.93666 0.0
C433 C 0.62772 0.49272 0.9468 0.0
C434 C 0.60577 0.49414 0.95134 0.0
C435 C 0.59042 0.47711 0.94592 0.0
C436 C 0.56783 0.42502 0.95356 0.0
C437 C 0.57693 0.40702 0.96091 0.0
C438 C 0.57042 0.39835 0.98049 0.0
C439 C 0.55483 0.40769 0.9931 0.0
C440 C 0.54609 0.42601 0.98578 0.0
C441 C 0.5526 0.43463 0.96622 0.0
C442 C 0.55418 0.44563 0.91461 0.0
C443 C 0.55622 0.46516 0.90418 0.0
C444 C 0.53864 0.472 0.89326 0.0
C445 C 0.5189 0.45915 0.89211 0.0
C446 C 0.51707 0.43932 0.9021 0.0
C447 C 0.53459 0.43263 0.91327 0.0
P448 P 0.76676 0.26239 0.26507 0.0
H449 H 0.79097 0.29062 0.29701 0.0
H450 H 0.78123 0.3055 0.33221 0.0
H451 H 0.71738 0.27237 0.32543 0.0
H452 H 0.72722 0.25747 0.29045 0.0
H453 H 0.77577 0.22864 0.23361 0.0
H454 H 0.79053 0.19402 0.23705 0.0
H455 H 0.79374 0.20472 0.30602 0.0
H456 H 0.77871 0.23876 0.30252 0.0
H457 H 0.74925 0.29646 0.24245 0.0
H458 H 0.73188 0.22935 0.2522 0.0
O459 O 0.78688 0.2782 0.25472 0.0
H460 H 0.71402 0.29945 0.22627 0.0
H461 H 0.69675 0.23198 0.23542 0.0
C462 C 0.75965 0.27341 0.2909 0.0
C463 C 0.77486 0.28666 0.30307 0.0
C464 C 0.76933 0.29501 0.32322 0.0
C465 C 0.74848 0.29022 0.33145 0.0
C466 C 0.73343 0.27662 0.31933 0.0
C467 C 0.73905 0.26812 0.29931 0.0
C468 C 0.77577 0.23613 0.26778 0.0
C469 C 0.77939 0.22333 0.24947 0.0
C470 C 0.78801 0.20365 0.25145 0.0
C471 C 0.79327 0.19653 0.27183 0.0
C472 C 0.78951 0.20946 0.29012 0.0
C473 C 0.78092 0.22907 0.28811 0.0
C474 C 0.74332 0.26262 0.24816 0.0
C475 C 0.73811 0.28217 0.24038 0.0
C476 C 0.71792 0.28385 0.23112 0.0
C477 C 0.70246 0.26598 0.22962 0.0
C478 C 0.70816 0.24613 0.23656 0.0
C479 C 0.72838 0.24451 0.24589 0.0
P480 P 0.4738 0.04427 0.0585 0.0
H481 H 0.50661 0.07367 0.03776 0.0
H482 H 0.52536 0.07114 0.00338 0.0
H483 H 0.49581 0.00649 0.99278 0.0
H484 H 0.47649 0.0093 0.02679 0.0
H485 H 0.47147 0.06617 0.10043 0.0
H486 H 0.46765 0.10358 0.11136 0.0
H487 H 0.46355 0.11959 0.04474 0.0
H488 H 0.46643 0.08196 0.03385 0.0
H489 H 0.44673 0.01357 0.08347 0.0
H490 H 0.44279 0.0456 0.02368 0.0
O491 O 0.48631 0.03282 0.07815 0.0
H492 H 0.41124 0.99435 0.07647 0.0
H493 H 0.40757 0.02611 0.01625 0.0
C494 C 0.48939 0.04202 0.03435 0.0
C495 C 0.50389 0.05906 0.02793 0.0
C496 C 0.51469 0.05758 0.00836 0.0
C497 C 0.51174 0.03873 0.99537 0.0
C498 C 0.49825 0.02122 0.00249 0.0
C499 C 0.48715 0.02287 0.02184 0.0
C500 C 0.47017 0.07155 0.06633 0.0
C501 C 0.46966 0.07769 0.08818 0.0
C502 C 0.46728 0.09896 0.09441 0.0
C503 C 0.46549 0.11432 0.07883 0.0
C504 C 0.46508 0.10797 0.05698 0.0
C505 C 0.46694 0.08658 0.05079 0.0
C506 C 0.44745 0.03068 0.0539 0.0
C507 C 0.43824 0.0164 0.0688 0.0
C508 C 0.418 0.00538 0.06473 0.0
C509 C 0.40665 0.00857 0.04571 0.0
C510 C 0.41576 0.02342 0.03113 0.0
C511 C 0.43596 0.03445 0.03527 0.0
O512 O 0.23525 0.86572 0.97376 0.0
Cd513 Cd 0.24261 0.87669 0.00481 0.0
Cd514 Cd 0.22404 0.91396 0.98544 0.0
O515 O 0.22163 0.89308 0.959 0.0
O516 O 0.25966 0.8533 0.01381 0.0
O517 O 0.22991 0.86065 0.03038 0.0
C518 C 0.24614 0.84933 0.029 0.0
C519 C 0.19578 0.93452 0.99413 0.0
C520 C 0.22729 0.87412 0.95764 0.0
C521 C 0.26845 0.92098 0.00469 0.0
O522 O 0.25388 0.92872 0.99396 0.0
O523 O 0.26612 0.90168 0.01039 0.0
O524 O 0.20773 0.93829 0.97758 0.0
O525 O 0.19927 0.91828 0.0054 0.0
O526 O 0.13757 0.54542 0.30101 0.0
Cd527 Cd 0.12561 0.51806 0.31605 0.0
Cd528 Cd 0.08855 0.52735 0.29005 0.0
O529 O 0.11066 0.55098 0.27937 0.0
O530 O 0.15133 0.51261 0.33324 0.0
O531 O 0.13749 0.48987 0.30786 0.0
C532 C 0.15219 0.49491 0.3223 0.0
C533 C 0.06627 0.50983 0.26346 0.0
C534 C 0.12969 0.55599 0.28638 0.0
C535 C 0.08355 0.5256 0.33824 0.0
O536 O 0.07567 0.53024 0.32036 0.0
O537 O 0.10242 0.5196 0.33943 0.0
O538 O 0.06325 0.52875 0.27087 0.0
O539 O 0.08198 0.50052 0.27141 0.0
O540 O 0.75674 0.68245 0.99328 0.0
Cd541 Cd 0.74773 0.65839 0.01415 0.0
Cd542 Cd 0.77992 0.63881 0.9921 0.0
O543 O 0.78497 0.66861 0.97908 0.0
O544 O 0.7268 0.67127 0.03344 0.0
O545 O 0.75819 0.66218 0.04494 0.0
C546 C 0.7402 0.67016 0.04904 0.0
C547 C 0.80975 0.62253 0.00377 0.0
C548 C 0.77304 0.68391 0.98101 0.0
C549 C 0.73518 0.61679 0.98931 0.0
O550 O 0.75415 0.61781 0.98175 0.0
O551 O 0.72997 0.63081 0.00306 0.0
O552 O 0.80552 0.62399 0.98364 0.0
O553 O 0.79718 0.63088 0.01755 0.0
O554 O 0.91386 0.00332 0.28104 0.0
Cd555 Cd 0.8948 0.01257 0.25656 0.0
Cd556 Cd 0.87229 0.02473 0.29067 0.0
O557 O 0.89796 0.01725 0.30909 0.0
O558 O 0.91301 0.00805 0.23091 0.0
O559 O 0.9041 0.03998 0.24165 0.0
C560 C 0.9145 0.02843 0.22845 0.0
C561 C 0.8617 0.05914 0.28873 0.0
C562 C 0.9131 0.00726 0.30118 0.0
C563 C 0.85061 0.99009 0.2621 0.0
O564 O 0.85032 -0.00018 0.28035 0.0
O565 O 0.86632 0.99406 0.24941 0.0
O566 O 0.85639 0.04741 0.30487 0.0
O567 O 0.87382 0.05151 0.27405 0.0
O568 O 0.25045 0.17695 0.49308 0.0
Cd569 Cd 0.2403 0.15439 0.51508 0.0
Cd570 Cd 0.27498 0.13415 0.49767 0.0
O571 O 0.28017 0.16303 0.48279 0.0
O572 O 0.21839 0.1683 0.53229 0.0
O573 O 0.24929 0.16031 0.54607 0.0
C574 C 0.23115 0.16849 0.54862 0.0
C575 C 0.30511 0.1192 0.51078 0.0
C576 C 0.26778 0.17798 0.48228 0.0
C577 C 0.23052 0.11102 0.49295 0.0
O578 O 0.25018 0.11192 0.4874 0.0
O579 O 0.22372 0.12589 0.50472 0.0
O580 O 0.30113 0.11961 0.4905 0.0
O581 O 0.29208 0.12779 0.5239 0.0
O582 O 0.4056 0.50542 0.77952 0.0
Cd583 Cd 0.38878 0.51577 0.75403 0.0
Cd584 Cd 0.36598 0.5311 0.78607 0.0
O585 O 0.39096 0.52372 0.80562 0.0
O586 O 0.40818 0.51124 0.72928 0.0
O587 O 0.39971 0.54328 0.74029 0.0
C588 C 0.41045 0.53172 0.72742 0.0
C589 C 0.3567 0.56593 0.78305 0.0
C590 C 0.4049 0.51139 0.7992 0.0
C591 C 0.34369 0.49599 0.75812 0.0
O592 O 0.34333 0.50648 0.77597 0.0
O593 O 0.35991 0.49872 0.74584 0.0
O594 O 0.35072 0.55478 0.7994 0.0
O595 O 0.36856 0.55742 0.76871 0.0
O596 O 0.72695 0.36531 0.48527 0.0
Cd597 Cd 0.72852 0.3804 0.51554 0.0
Cd598 Cd 0.70638 0.40803 0.49022 0.0
O599 O 0.7033 0.38276 0.46829 0.0
O600 O 0.74884 0.36239 0.52926 0.0
O601 O 0.7157 0.36421 0.54094 0.0
C602 C 0.73408 0.35649 0.54273 0.0
C603 C 0.67764 0.42718 0.5003 0.0
C604 C 0.71526 0.36748 0.46885 0.0
C605 C 0.74879 0.42491 0.50772 0.0
O606 O 0.73587 0.42579 0.49208 0.0
O607 O 0.74641 0.40959 0.52052 0.0
O608 O 0.68614 0.42876 0.48149 0.0
O609 O 0.68473 0.41363 0.51311 0.0
O610 O 0.6282 0.05103 0.80742 0.0
Cd611 Cd 0.62048 0.02338 0.82377 0.0
Cd612 Cd 0.5796 0.02817 0.80229 0.0
O613 O 0.5981 0.0533 0.78914 0.0
O614 O 0.6487 0.0199 0.83747 0.0
O615 O 0.63296 0.99592 0.81421 0.0
C616 C 0.64914 0.00205 0.82669 0.0
C617 C 0.55711 0.00823 0.77743 0.0
C618 C 0.61742 0.06022 0.79378 0.0
C619 C 0.58057 0.02728 0.85084 0.0
O620 O 0.56985 0.03018 0.83396 0.0
O621 O 0.60027 0.02371 0.84978 0.0
O622 O 0.55232 0.0264 0.78544 0.0
O623 O 0.57452 0.00086 0.78415 0.0
O624 O 0.94206 0.2723 0.91699 0.0
Cd625 Cd 0.94919 0.2459 0.89824 0.0
Cd626 Cd 0.9685 0.27562 0.87229 0.0
O627 O 0.96 0.29588 0.89671 0.0
O628 O 0.94845 0.22127 0.91745 0.0
O629 O 0.97841 0.23576 0.90256 0.0
C630 C 0.96909 0.22181 0.91513 0.0
C631 C 0.00251 0.28346 0.8573 0.0
C632 C 0.94885 0.29156 0.91329 0.0
C633 C 0.93164 0.24643 0.85349 0.0
O634 O 0.94488 0.26287 0.85128 0.0
O635 O 0.93109 0.23642 0.87091 0.0
O636 O 0.987 0.29523 0.8543 0.0
O637 O 0.99882 0.26701 0.8691 0.0
O638 O 0.44898 0.78083 0.4209 0.0
Cd639 Cd 0.45486 0.75381 0.40261 0.0
Cd640 Cd 0.47673 0.78198 0.37671 0.0
O641 O 0.46929 0.80298 0.40106 0.0
O642 O 0.45293 0.72923 0.42195 0.0
O643 O 0.48347 0.74252 0.4072 0.0
C644 C 0.47352 0.72896 0.41978 0.0
C645 C 0.51111 0.78765 0.36197 0.0
C646 C 0.45741 0.79961 0.41736 0.0
C647 C 0.43865 0.75464 0.35744 0.0
O648 O 0.453 0.77018 0.35527 0.0
O649 O 0.43686 0.74511 0.37511 0.0
O650 O 0.49656 0.80051 0.3589 0.0
O651 O 0.50629 0.7714 0.37377 0.0
O652 O 0.9842 0.79132 0.70294 0.0
Cd653 Cd 0.00379 0.7754 0.68271 0.0
Cd654 Cd 0.98459 0.79684 0.65185 0.0
O655 O 0.96879 0.80908 0.67812 0.0
O656 O 0.02609 0.76462 0.70127 0.0
O657 O 0.0339 0.78741 0.67547 0.0
C658 C 0.04044 0.77589 0.69054 0.0
C659 C -0.00024 0.82042 0.62684 0.0
C660 C 0.97092 0.80442 0.69767 0.0
C661 C 0.97948 0.74864 0.6483 0.0
O662 O 0.97554 0.76605 0.63995 0.0
O663 O 0.99021 0.74888 0.66568 0.0
O664 O 0.97919 0.81575 0.62789 0.0
O665 O 0.01186 0.81201 0.64047 0.0
O666 O 0.49284 0.3017 0.2001 0.0
Cd667 Cd 0.51421 0.28925 0.17855 0.0
Cd668 Cd 0.48846 0.30842 0.15027 0.0
O669 O 0.47488 0.32012 0.17775 0.0
O670 O 0.53488 0.27644 0.19753 0.0
O671 O 0.54496 0.30231 0.17553 0.0
C672 C 0.55015 0.28891 0.18948 0.0
C673 C 0.50263 0.33166 0.12463 0.0
C674 C 0.47852 0.31439 0.19666 0.0
C675 C 0.48906 0.26156 0.14427 0.0
O676 O 0.47904 0.27746 0.13952 0.0
O677 O 0.50399 0.26355 0.15832 0.0
O678 O 0.48208 0.32719 0.12658 0.0
O679 O 0.51525 0.32327 0.13778 0.0
H680 H 0.23498 0.84181 0.82192 0.0
H681 H 0.23433 0.83219 0.94961 0.0
H682 H 0.24915 0.78514 0.85449 0.0
H683 H 0.21851 0.88878 0.91779 0.0
H684 H 0.23705 0.81388 0.91468 0.0
H685 H 0.22676 0.85866 0.85662 0.0
C686 C 0.2364 0.83292 0.83637 0.0
C687 C 0.24288 0.81206 0.8353 0.0
C688 C 0.23282 0.83025 0.91531 0.0
C689 C 0.2333 0.83117 0.87503 0.0
C690 C 0.23123 0.84073 0.93528 0.0
C691 C 0.22637 0.86215 0.93667 0.0
C692 C 0.22968 0.84125 0.89649 0.0
C693 C 0.22237 0.8723 0.91751 0.0
C694 C 0.23155 0.8425 0.85615 0.0
C695 C 0.24405 0.80116 0.8545 0.0
N696 N 0.22432 0.86182 0.8982 0.0
N697 N 0.23942 0.81089 0.87356 0.0
H698 H 0.0023 0.56754 0.44112 0.0
H699 H 0.08861 0.50589 0.37607 0.0
H700 H 0.01918 0.50517 0.45815 0.0
H701 H 0.04931 0.54923 0.34538 0.0
H702 H 0.0672 0.50901 0.40873 0.0
H703 H 0.02347 0.56469 0.40804 0.0
C704 C 0.01052 0.5533 0.43786 0.0
C705 C 0.00901 0.53652 0.45222 0.0
C706 C 0.06327 0.51779 0.39481 0.0
C707 C 0.03325 0.53327 0.41484 0.0
C708 C 0.07551 0.5161 0.37622 0.0
C709 C 0.07067 0.52729 0.35799 0.0
C710 C 0.04636 0.53107 0.3953 0.0
C711 C 0.05347 0.54023 0.35905 0.0
C712 C 0.02245 0.55163 0.41902 0.0
C713 C 0.01984 0.51835 0.44733 0.0
N714 N 0.042 0.54191 0.37748 0.0
N715 N 0.03165 0.51726 0.42911 0.0
H716 H 0.77114 0.80583 0.91986 0.0
H717 H 0.81003 0.69563 0.95897 0.0
H718 H 0.83743 0.79115 0.91804 0.0
H719 H 0.74853 0.71759 0.97639 0.0
H720 H 0.81916 0.72902 0.94063 0.0
H721 H 0.76139 0.77199 0.93749 0.0
C722 C 0.78361 0.79545 0.92314 0.0
C723 C 0.80513 0.8013 0.91757 0.0
C724 C 0.80367 0.72652 0.94847 0.0
C725 C 0.79412 0.76264 0.93761 0.0
C726 C 0.7984 0.70742 0.95888 0.0
C727 C 0.77849 0.7038 0.96929 0.0
C728 C 0.78886 0.74207 0.94828 0.0
C729 C 0.76409 0.71972 0.96866 0.0
C730 C 0.77807 0.77622 0.93327 0.0
C731 C 0.8207 0.78736 0.92231 0.0
N732 N 0.76955 0.73814 0.95829 0.0
N733 N 0.81487 0.76864 0.93198 0.0
H734 H 0.02253 0.94741 0.34764 0.0
H735 H 0.91577 0.0094 0.34543 0.0
H736 H 0.99046 0.96771 0.40518 0.0
H737 H 0.9483 0.98715 0.28889 0.0
H738 H 0.94297 0.99491 0.36786 0.0
H739 H 0.99534 0.96238 0.32606 0.0
C740 C 0.00979 0.9551 0.35574 0.0
C741 C 0.00884 0.95639 0.37826 0.0
C742 C 0.94412 0.99325 0.35053 0.0
C743 C 0.97744 0.9735 0.35359 0.0
C744 C 0.92864 0.00157 0.33773 0.0
C745 C 0.92971 -0.00052 0.31522 0.0
C746 C 0.96077 0.98282 0.34075 0.0
C747 C 0.94674 0.98913 0.30614 0.0
C748 C 0.99419 0.96358 0.34341 0.0
C749 C 0.99171 0.9662 0.38786 0.0
N750 N 0.96153 0.9812 0.31891 0.0
N751 N 0.97671 0.97445 0.37548 0.0
H752 H 0.23208 0.25978 0.6546 0.0
H753 H 0.19096 0.17539 0.56236 0.0
H754 H 0.16522 0.23592 0.64555 0.0
H755 H 0.25793 0.18536 0.58138 0.0
H756 H 0.18144 0.19639 0.594 0.0
H757 H 0.24233 0.23155 0.62951 0.0
C758 C 0.21958 0.24841 0.64764 0.0
C759 C 0.19772 0.25046 0.65193 0.0
C760 C 0.19821 0.19381 0.59147 0.0
C761 C 0.20932 0.21836 0.62299 0.0
C762 C 0.20366 0.18185 0.57336 0.0
C763 C 0.22528 0.1788 0.56918 0.0
C764 C 0.21454 0.20318 0.60536 0.0
C765 C 0.24106 0.18737 0.58405 0.0
C766 C 0.22545 0.23235 0.63325 0.0
C767 C 0.18223 0.23533 0.64231 0.0
N768 N 0.23542 0.1995 0.60135 0.0
N769 N 0.18831 0.22012 0.62812 0.0
H770 H 0.49267 0.61758 0.6492 0.0
H771 H 0.43742 0.51136 0.70102 0.0
H772 H 0.5197 0.55667 0.64689 0.0
H773 H 0.41898 0.57434 0.71851 0.0
H774 H 0.46498 0.52761 0.67749 0.0
H775 H 0.46318 0.60195 0.67151 0.0
C776 C 0.49239 0.60095 0.65341 0.0
C777 C 0.5087 0.58842 0.64632 0.0
C778 C 0.45489 0.53791 0.68642 0.0
C779 C 0.47508 0.57048 0.67156 0.0
C780 C 0.43905 0.52862 0.6998 0.0
C781 C 0.42593 0.54152 0.71184 0.0
C782 C 0.45763 0.56027 0.68491 0.0
C783 C 0.42881 0.56381 0.70956 0.0
C784 C 0.47563 0.59208 0.66616 0.0
C785 C 0.50764 0.56699 0.65227 0.0
N786 N 0.4444 0.57252 0.69637 0.0
N787 N 0.49109 0.55869 0.66446 0.0
H788 H 0.79598 0.26652 0.61691 0.0
H789 H 0.70556 0.33562 0.57055 0.0
H790 H 0.72874 0.25589 0.63374 0.0
H791 H 0.77264 0.34217 0.55236 0.0
H792 H 0.71366 0.30841 0.59604 0.0
H793 H 0.7877 0.29632 0.5953 0.0
C794 C 0.77944 0.27045 0.61601 0.0
C795 C 0.763 0.25856 0.62697 0.0
C796 C 0.72658 0.31592 0.58652 0.0
C797 C 0.75334 0.29285 0.6023 0.0
C798 C 0.72197 0.33145 0.57202 0.0
C799 C 0.73841 0.34105 0.55921 0.0
C800 C 0.74777 0.31008 0.58819 0.0
C801 C 0.7594 0.33509 0.56176 0.0
C802 C 0.77471 0.28755 0.60375 0.0
C803 C 0.74192 0.26469 0.62561 0.0
N804 N 0.76343 0.31998 0.57586 0.0
N805 N 0.73765 0.28134 0.61337 0.0
H806 H 0.47254 0.99415 0.66889 0.0
H807 H 0.56665 0.9745 0.75084 0.0
H808 H 0.52267 0.95294 0.6541 0.0
H809 H 0.51767 0.01758 0.76346 0.0
H810 H 0.54716 0.96122 0.71805 0.0
H811 H 0.48498 0.99738 0.70609 0.0
C812 C 0.48589 0.98541 0.67353 0.0
C813 C 0.49675 0.97349 0.65822 0.0
C814 C 0.54053 0.97335 0.72817 0.0
C815 C 0.51144 0.97755 0.70083 0.0
C816 C 0.55161 0.98088 0.74693 0.0
C817 C 0.54394 0.99739 0.75972 0.0
C818 C 0.52169 0.98242 0.72223 0.0
C819 C 0.52435 0.00505 0.75392 0.0
C820 C 0.49312 0.9874 0.69479 0.0
C821 C 0.51412 0.96271 0.66524 0.0
N822 N 0.51405 0.99767 0.73549 0.0
N823 N 0.52111 0.96522 0.68596 0.0
H824 H 0.86071 0.17337 0.75108 0.0
H825 H 0.9184 0.2703 0.82123 0.0
H826 H 0.84178 0.23785 0.74885 0.0
H827 H 0.91154 0.2061 0.8447 0.0
H828 H 0.89478 0.25822 0.79094 0.0
H829 H 0.88369 0.18464 0.78217 0.0
C830 C 0.86124 0.18984 0.75708 0.0
C831 C 0.84919 0.20465 0.74713 0.0
C832 C 0.8984 0.2468 0.80276 0.0
C833 C 0.87594 0.21764 0.78239 0.0
C834 C 0.91192 0.25364 0.82 0.0
C835 C 0.91689 0.23917 0.83552 0.0
C836 C 0.89009 0.22524 0.80074 0.0
C837 C 0.90799 0.21778 0.83315 0.0
C838 C 0.87445 0.19623 0.77479 0.0
C839 C 0.85104 0.22589 0.75551 0.0
N840 N 0.89512 0.21138 0.81594 0.0
N841 N 0.86423 0.23175 0.77253 0.0
H842 H 0.46226 0.92591 0.47695 0.0
H843 H 0.44396 0.79833 0.45941 0.0
H844 H 0.45722 0.88291 0.52966 0.0
H845 H 0.46418 0.8422 0.40991 0.0
H846 H 0.44267 0.82902 0.48492 0.0
H847 H 0.45691 0.8952 0.45178 0.0
C848 C 0.46008 0.90997 0.48324 0.0
C849 C 0.46059 0.90696 0.50545 0.0
C850 C 0.44723 0.83186 0.46842 0.0
C851 C 0.45417 0.87163 0.47663 0.0
C852 C 0.44786 0.8144 0.45385 0.0
C853 C 0.45437 0.81772 0.43256 0.0
C854 C 0.4529 0.85272 0.46153 0.0
C855 C 0.4593 0.83886 0.42622 0.0
C856 C 0.45691 0.89243 0.46885 0.0
C857 C 0.45699 0.88596 0.51267 0.0
N858 N 0.45853 0.8555 0.44064 0.0
N859 N 0.45409 0.86904 0.49828 0.0
H860 H 0.12065 0.27573 0.78563 0.0
H861 H 0.01698 0.32086 0.83928 0.0
H862 H 0.10216 0.33976 0.77849 0.0
H863 H 0.0357 0.25783 0.85132 0.0
H864 H 0.04996 0.32854 0.81911 0.0
H865 H 0.09137 0.26917 0.81152 0.0
C866 C 0.11056 0.28844 0.78959 0.0
C867 C 0.11388 0.30832 0.77981 0.0
C868 C 0.04702 0.31305 0.82624 0.0
C869 C 0.08048 0.30095 0.80942 0.0
C870 C 0.02813 0.30864 0.83777 0.0
C871 C 0.0235 0.2886 0.84682 0.0
C872 C 0.06139 0.29723 0.82347 0.0
C873 C 0.03865 0.27347 0.84452 0.0
C874 C 0.09393 0.28471 0.80444 0.0
C875 C 0.10047 0.32428 0.78578 0.0
N876 N 0.05687 0.27801 0.83285 0.0
N877 N 0.08433 0.32019 0.80003 0.0
H878 H 0.5689 0.6782 0.4994 0.0
H879 H 0.45671 0.69562 0.4434 0.0
H880 H 0.50938 0.63922 0.51064 0.0
H881 H 0.51728 0.72925 0.42532 0.0
H882 H 0.47613 0.67396 0.46715 0.0
H883 H 0.5507 0.69656 0.47157 0.0
C884 C 0.55202 0.67349 0.49598 0.0
C885 C 0.54062 0.6572 0.50741 0.0
C886 C 0.48523 0.68595 0.45787 0.0
C887 C 0.51973 0.67806 0.47557 0.0
C888 C 0.47413 0.69834 0.44429 0.0
C889 C 0.48538 0.71436 0.43245 0.0
C890 C 0.50775 0.68972 0.45984 0.0
C891 C 0.50797 0.71709 0.43418 0.0
C892 C 0.54168 0.68387 0.48001 0.0
C893 C 0.51885 0.65154 0.50212 0.0
N894 N 0.51841 0.70502 0.4478 0.0
N895 N 0.5091 0.66205 0.4867 0.0
H896 H 0.88399 0.81657 0.80336 0.0
H897 H 0.94883 0.84022 0.69595 0.0
H898 H 0.89609 0.88104 0.78102 0.0
H899 H 0.96135 0.78884 0.73716 0.0
H900 H 0.92492 0.85373 0.72358 0.0
H901 H 0.9077 0.80422 0.77546 0.0
C902 C 0.89169 0.82821 0.79272 0.0
C903 C 0.88817 0.85 0.79485 0.0
C904 C 0.93301 0.83956 0.72652 0.0
C905 C 0.91492 0.83569 0.76238 0.0
C906 C 0.94658 0.83182 0.71079 0.0
C907 C 0.95712 0.81341 0.7143 0.0
C908 C 0.92965 0.82851 0.7456 0.0
C909 C 0.95366 0.80316 0.73383 0.0
C910 C 0.90514 0.82107 0.77671 0.0
C911 C 0.8981 0.86408 0.77997 0.0
N912 N 0.94008 0.81074 0.74866 0.0
N913 N 0.91101 0.85668 0.76433 0.0
H914 H 0.07918 0.87126 0.52369 0.0
H915 H 0.97846 0.84513 0.6004 0.0
H916 H 0.01873 0.89893 0.51737 0.0
H917 H 0.042 0.82679 0.61417 0.0
H918 H 0.99318 0.86523 0.57014 0.0
H919 H 0.06611 0.85484 0.55685 0.0
C920 C 0.06316 0.87388 0.5293 0.0
C921 C 0.04998 0.8864 0.51771 0.0
C922 C 0.00397 0.85696 0.57985 0.0
C923 C 0.03495 0.86774 0.55564 0.0
C924 C 0.99556 0.84545 0.59714 0.0
C925 C 0.00901 0.83417 0.60976 0.0
C926 C 0.02596 0.85703 0.57495 0.0
C927 C 0.03106 0.83526 0.60484 0.0
C928 C 0.05576 0.86462 0.54829 0.0
C929 C 0.02948 0.88953 0.52587 0.0
N930 N 0.03883 0.84632 0.58768 0.0
N931 N 0.02255 0.88014 0.54424 0.0
H932 H 0.18023 0.78231 0.68477 0.0
H933 H 0.05839 0.75565 0.72317 0.0
H934 H 0.16232 0.75206 0.74416 0.0
H935 H 0.07533 0.79374 0.66828 0.0
H936 H 0.09653 0.75287 0.72996 0.0
H937 H 0.14203 0.78525 0.67725 0.0
C938 C 0.16831 0.77626 0.69622 0.0
C939 C 0.17457 0.76686 0.71512 0.0
C940 C 0.09196 0.76189 0.71645 0.0
C941 C 0.13082 0.77007 0.70652 0.0
C942 C 0.07015 0.7635 0.71256 0.0
C943 C 0.06364 0.77497 0.69513 0.0
C944 C 0.1075 0.77172 0.70277 0.0
C945 C 0.07964 0.78479 0.68194 0.0
C946 C 0.1465 0.77791 0.69189 0.0
C947 C 0.15834 0.75908 0.72921 0.0
N948 N 0.10085 0.78289 0.68599 0.0
N949 N 0.13728 0.76089 0.72463 0.0
H950 H 0.97259 0.64577 0.55346 0.0
H951 H 0.97442 0.70909 0.66551 0.0
H952 H 0.94972 0.61585 0.61161 0.0
H953 H 0.96988 0.74097 0.60561 0.0
H954 H 0.96715 0.67453 0.64614 0.0
H955 H 0.97337 0.68075 0.57217 0.0
C956 C 0.96749 0.6465 0.57006 0.0
C957 C 0.96123 0.6277 0.58098 0.0
C958 C 0.96751 0.6891 0.63728 0.0
C959 C 0.96258 0.66774 0.60257 0.0
C960 C 0.97171 0.70881 0.6483 0.0
C961 C 0.97285 0.7279 0.63712 0.0
C962 C 0.96485 0.68846 0.61487 0.0
C963 C 0.96911 0.72662 0.61484 0.0
C964 C 0.96803 0.6665 0.58074 0.0
C965 C 0.95517 0.62977 0.60263 0.0
N966 N 0.96557 0.70719 0.60437 0.0
N967 N 0.9562 0.64939 0.61276 0.0
H968 H 0.74723 0.88804 0.26351 0.0
H969 H 0.84266 0.97034 0.22252 0.0
H970 H 0.75967 0.89848 0.1963 0.0
H971 H 0.81851 0.97195 0.28746 0.0
H972 H 0.81423 0.94199 0.21292 0.0
H973 H 0.77527 0.91676 0.27293 0.0
C974 C 0.75577 0.8964 0.25071 0.0
C975 C 0.75098 0.89081 0.22905 0.0
C976 C 0.81512 0.94862 0.22924 0.0
C977 C 0.78337 0.92353 0.23979 0.0
C978 C 0.83136 0.96478 0.23476 0.0
C979 C 0.83298 0.97354 0.25584 0.0
C980 C 0.80052 0.94098 0.24497 0.0
C981 C 0.81784 0.96572 0.271 0.0
C982 C 0.77184 0.91275 0.25612 0.0
C983 C 0.76296 0.90197 0.2132 0.0
N984 N 0.80231 0.9498 0.2653 0.0
N985 N 0.7786 0.91777 0.21889 0.0
H986 H 0.78502 0.16662 0.30254 0.0
H987 H 0.86939 0.08774 0.25666 0.0
H988 H 0.82406 0.17964 0.24648 0.0
H989 H 0.83414 0.07836 0.31571 0.0
H990 H 0.85291 0.12127 0.25233 0.0
H991 H 0.80252 0.13388 0.30711 0.0
C992 C 0.79733 0.16264 0.29121 0.0
C993 C 0.80311 0.176 0.27413 0.0
C994 C 0.84886 0.11191 0.26627 0.0
C995 C 0.82314 0.1383 0.27919 0.0
C996 C 0.8583 0.09279 0.26879 0.0
C997 C 0.85313 0.0802 0.28658 0.0
C998 C 0.83407 0.11845 0.2816 0.0
C999 C 0.83863 0.08753 0.30175 0.0
C1000 C 0.80728 0.14388 0.2938 0.0
C1001 C 0.81889 0.16974 0.25974 0.0
N1002 N 0.82956 0.1061 0.29887 0.0
N1003 N 0.82838 0.15137 0.26262 0.0
H1004 H 0.39557 0.96605 0.05227 0.0
H1005 H 0.27906 0.9636 0.99717 0.0
H1006 H 0.37031 0.02211 0.02747 0.0
H1007 H 0.30342 0.90917 0.02633 0.0
H1008 H 0.31234 0.98539 0.00778 0.0
H1009 H 0.36168 0.94509 0.04288 0.0
C1010 C 0.38281 0.97402 0.04505 0.0
C1011 C 0.38579 0.9959 0.0407 0.0
C1012 C 0.31036 0.96868 0.01186 0.0
C1013 C 0.34699 0.97186 0.02952 0.0
C1014 C 0.29138 0.95622 0.00578 0.0
C1015 C 0.28843 0.9345 0.01083 0.0
C1016 C 0.3265 0.95933 0.02302 0.0
C1017 C 0.30494 0.92582 0.02206 0.0
C1018 C 0.36349 0.96199 0.03954 0.0
C1019 C 0.36881 0.00523 0.03089 0.0
N1020 N 0.32324 0.93825 0.02773 0.0
N1021 N 0.35014 0.99315 0.0256 0.0
H1022 H 0.2745 0.45375 0.35868 0.0
H1023 H 0.1576 0.45446 0.30542 0.0
H1024 H 0.23894 0.39595 0.33286 0.0
H1025 H 0.18763 0.50497 0.34754 0.0
H1026 H 0.18828 0.43343 0.31173 0.0
H1027 H 0.2439 0.47362 0.35082 0.0
C1028 C 0.2602 0.44517 0.35146 0.0
C1029 C 0.25925 0.42305 0.34671 0.0
C1030 C 0.18804 0.4491 0.31959 0.0
C1031 C 0.2241 0.44591 0.33729 0.0
C1032 C 0.17058 0.4611 0.31599 0.0
C1033 C 0.17004 0.48148 0.32599 0.0
C1034 C 0.20509 0.45773 0.33306 0.0
C1035 C 0.18729 0.48932 0.33952 0.0
C1036 C 0.24274 0.45658 0.34688 0.0
C1037 C 0.24046 0.413 0.33673 0.0
N1038 N 0.20409 0.47749 0.34257 0.0
N1039 N 0.22358 0.4245 0.33239 0.0
H1040 H 0.12098 0.01585 0.48039 0.0
H1041 H 0.23862 0.07684 0.46636 0.0
H1042 H 0.1685 0.99349 0.43679 0.0
H1043 H 0.18814 0.1024 0.504 0.0
H1044 H 0.21365 0.04567 0.45608 0.0
H1045 H 0.14586 0.04718 0.48997 0.0
C1046 C 0.1366 0.01758 0.47272 0.0
C1047 C 0.1426 0.00202 0.45768 0.0
C1048 C 0.20804 0.05813 0.46655 0.0
C1049 C 0.17134 0.03779 0.46882 0.0
C1050 C 0.22229 0.07594 0.47244 0.0
C1051 C 0.21549 0.09229 0.48609 0.0
C1052 C 0.18686 0.05659 0.47443 0.0
C1053 C 0.19412 0.09023 0.49344 0.0
C1054 C 0.15085 0.03544 0.47828 0.0
C1055 C 0.16326 0.00494 0.44863 0.0
N1056 N 0.18061 0.07269 0.48756 0.0
N1057 N 0.17688 0.02248 0.45433 0.0
H1058 H 0.69533 0.11551 0.69674 0.0
H1059 H 0.64871 0.09075 0.80832 0.0
H1060 H 0.69975 0.16592 0.74637 0.0
H1061 H 0.61134 0.06924 0.75183 0.0
H1062 H 0.67013 0.11678 0.78666 0.0
H1063 H 0.66646 0.09643 0.71672 0.0
C1064 C 0.69009 0.12287 0.71157 0.0
C1065 C 0.70038 0.14239 0.71988 0.0
C1066 C 0.65698 0.1066 0.77915 0.0
C1067 C 0.66777 0.12001 0.74317 0.0
C1068 C 0.64485 0.09175 0.79143 0.0
C1069 C 0.62831 0.07789 0.78178 0.0
C1070 C 0.65295 0.10702 0.757 0.0
C1071 C 0.62391 0.07975 0.75985 0.0
C1072 C 0.67363 0.11182 0.72302 0.0
C1073 C 0.69294 0.15065 0.73955 0.0
N1074 N 0.6365 0.09376 0.74804 0.0
N1075 N 0.67739 0.13921 0.75073 0.0
H1076 H 0.41309 0.04357 0.51371 0.0
H1077 H 0.31558 0.11006 0.55227 0.0
H1078 H 0.39308 0.04784 0.57991 0.0
H1079 H 0.33667 0.10336 0.48658 0.0
H1080 H 0.34497 0.08939 0.56356 0.0
H1081 H 0.38613 0.06729 0.50424 0.0
C1082 C 0.4029 0.04942 0.52626 0.0
C1083 C 0.40515 0.04347 0.54759 0.0
C1084 C 0.34319 0.09258 0.54671 0.0
C1085 C 0.37425 0.07098 0.53688 0.0
C1086 C 0.32648 0.10442 0.54027 0.0
C1087 C 0.32359 0.10833 0.51844 0.0
C1088 C 0.35707 0.08469 0.53118 0.0
C1089 C 0.33816 0.10063 0.50356 0.0
C1090 C 0.38757 0.06311 0.52087 0.0
C1091 C 0.39188 0.05203 0.56327 0.0
N1092 N 0.35416 0.08914 0.5102 0.0
N1093 N 0.37687 0.06527 0.55758 0.0
H1094 H 0.60494 0.51291 0.57722 0.0
H1095 H 0.65996 0.45693 0.47668 0.0
H1096 H 0.6204 0.5436 0.51759 0.0
H1097 H 0.65991 0.43198 0.5404 0.0
H1098 H 0.63896 0.48545 0.48996 0.0
H1099 H 0.61916 0.48022 0.56258 0.0
C1100 C 0.61116 0.51269 0.56099 0.0
C1101 C 0.61169 0.53101 0.54864 0.0
C1102 C 0.64337 0.47364 0.50102 0.0
C1103 C 0.62781 0.49379 0.53182 0.0
C1104 C 0.65528 0.45726 0.49343 0.0
C1105 C 0.66193 0.44217 0.50751 0.0
C1106 C 0.63801 0.475 0.52287 0.0
C1107 C 0.65524 0.44335 0.52901 0.0
C1108 C 0.61932 0.49409 0.55269 0.0
C1109 C 0.62 0.52993 0.52776 0.0
N1110 N 0.64379 0.45965 0.5361 0.0
N1111 N 0.62775 0.51166 0.52002 0.0
H1112 H 0.77147 0.29285 0.36911 0.0
H1113 H 0.69187 0.36575 0.43124 0.0
H1114 H 0.71162 0.30878 0.34163 0.0
H1115 H 0.7435 0.33706 0.4624 0.0
H1116 H 0.69851 0.34499 0.39828 0.0
H1117 H 0.76159 0.30941 0.40341 0.0
C1118 C 0.75625 0.29986 0.37033 0.0
C1119 C 0.74238 0.29954 0.35252 0.0
C1120 C 0.70823 0.3431 0.41241 0.0
C1121 C 0.73093 0.31847 0.39167 0.0
C1122 C 0.70445 0.35494 0.43124 0.0
C1123 C 0.71725 0.35328 0.44959 0.0
C1124 C 0.72508 0.3297 0.41187 0.0
C1125 C 0.73327 0.33894 0.44864 0.0
C1126 C 0.75054 0.30917 0.38992 0.0
C1127 C 0.72271 0.30858 0.35502 0.0
N1128 N 0.73687 0.32789 0.43004 0.0
N1129 N 0.71764 0.31783 0.37419 0.0
H1130 H 0.51088 0.06675 0.96301 0.0
H1131 H 0.59287 0.00981 0.8879 0.0
H1132 H 0.53613 0.00777 0.97966 0.0
H1133 H 0.54485 0.04737 0.86217 0.0
H1134 H 0.57614 0.01256 0.92328 0.0
H1135 H 0.52738 0.06378 0.9274 0.0
C1136 C 0.52005 0.05328 0.95917 0.0
C1137 C 0.52223 0.03748 0.97418 0.0
C1138 C 0.56925 0.02012 0.90985 0.0
C1139 C 0.54109 0.03404 0.93377 0.0
C1140 C 0.57881 0.01864 0.8897 0.0
C1141 C 0.5702 0.02836 0.87209 0.0
C1142 C 0.55124 0.03178 0.91249 0.0
C1143 C 0.55192 0.03954 0.87531 0.0
C1144 C 0.52928 0.05151 0.93887 0.0
C1145 C 0.53404 0.02021 0.96843 0.0
N1146 N 0.54313 0.0411 0.8952 0.0
N1147 N 0.54318 0.01901 0.94869 0.0
H1148 H 0.27073 0.29754 0.41609 0.0
H1149 H 0.30613 0.18855 0.46209 0.0
H1150 H 0.3367 0.28196 0.41832 0.0
H1151 H 0.24356 0.21101 0.47357 0.0
H1152 H 0.31655 0.22091 0.4425 0.0
H1153 H 0.25946 0.26407 0.43375 0.0
C1154 C 0.28281 0.28701 0.42021 0.0
C1155 C 0.30468 0.29255 0.41582 0.0
C1156 C 0.30053 0.21873 0.44928 0.0
C1157 C 0.29195 0.25431 0.43599 0.0
C1158 C 0.29453 0.20022 0.46041 0.0
C1159 C 0.27395 0.19707 0.46957 0.0
C1160 C 0.28582 0.23417 0.44714 0.0
C1161 C 0.25963 0.21279 0.46687 0.0
C1162 C 0.2764 0.26799 0.43037 0.0
C1163 C 0.3197 0.27843 0.42166 0.0
N1164 N 0.26583 0.23066 0.45589 0.0
N1165 N 0.31305 0.25994 0.4314 0.0
H1166 H 0.49334 0.43576 0.8624 0.0
H1167 H 0.4174 0.52829 0.83921 0.0
H1168 H 0.50285 0.49837 0.89398 0.0
H1169 H 0.42747 0.47651 0.79383 0.0
H1170 H 0.44414 0.51513 0.86333 0.0
H1171 H 0.46415 0.44801 0.84104 0.0
C1172 C 0.48912 0.45203 0.86496 0.0
C1173 C 0.50054 0.46612 0.87988 0.0
C1174 C 0.4404 0.50669 0.84809 0.0
C1175 C 0.46724 0.48022 0.85555 0.0
C1176 C 0.42513 0.51412 0.83439 0.0
C1177 C 0.42032 0.50355 0.81445 0.0
C1178 C 0.45056 0.48837 0.84191 0.0
C1179 C 0.43081 0.48527 0.80896 0.0
C1180 C 0.47258 0.45904 0.8527 0.0
C1181 C 0.49455 0.4871 0.88246 0.0
N1182 N 0.44537 0.47824 0.82263 0.0
N1183 N 0.47826 0.49354 0.87042 0.0
H1184 H 0.67283 0.72739 0.15262 0.0
H1185 H 0.76822 0.68588 0.08126 0.0
H1186 H 0.73841 0.7566 0.15632 0.0
H1187 H 0.7005 0.67411 0.06564 0.0
H1188 H 0.75875 0.70467 0.11482 0.0
H1189 H 0.68424 0.70038 0.12697 0.0
C1190 C 0.68968 0.728 0.14819 0.0
C1191 C 0.7046 0.74455 0.15629 0.0
C1192 C 0.74601 0.69767 0.10414 0.0
C1193 C 0.71779 0.71359 0.12703 0.0
C1194 C 0.75138 0.68691 0.0851 0.0
C1195 C 0.7351 0.67871 0.07061 0.0
C1196 C 0.72423 0.69987 0.10874 0.0
C1197 C 0.71355 0.68047 0.07626 0.0
C1198 C 0.69619 0.71255 0.1336 0.0
C1199 C 0.72635 0.74418 0.15044 0.0
N1200 N 0.70875 0.69094 0.09482 0.0
N1201 N 0.73226 0.7291 0.13592 0.0
H1202 H 0.01723 0.04765 0.13738 0.0
H1203 H 0.92318 0.07108 0.21964 0.0
H1204 H 0.99611 0.11074 0.14807 0.0
H1205 H 0.93871 0.00775 0.19951 0.0
H1206 H 0.9496 0.08638 0.1939 0.0
H1207 H 0.98876 0.03316 0.16097 0.0
C1208 C 0.00665 0.05848 0.14482 0.0
C1209 C 0.00914 0.08045 0.14088 0.0
C1210 C 0.94707 0.06914 0.19504 0.0
C1211 C 0.97625 0.06393 0.16781 0.0
C1212 C 0.93199 0.0604 0.2097 0.0
C1213 C 0.92881 0.03811 0.2118 0.0
C1214 C 0.9591 0.05546 0.18257 0.0
C1215 C 0.94066 0.02502 0.19852 0.0
C1216 C 0.99026 0.05018 0.15816 0.0
C1217 C 0.99468 0.09368 0.15062 0.0
N1218 N 0.95534 0.03389 0.18461 0.0
N1219 N 0.9789 0.08523 0.16376 0.0
H1220 H 0.30795 0.76088 0.10503 0.0
H1221 H 0.21969 0.83371 0.0615 0.0
H1222 H 0.24136 0.7528 0.12484 0.0
H1223 H 0.28153 0.82742 0.03195 0.0
H1224 H 0.22767 0.80666 0.08729 0.0
H1225 H 0.29899 0.78823 0.08069 0.0
C1226 C 0.29139 0.76475 0.10419 0.0
C1227 C 0.27535 0.7543 0.11686 0.0
C1228 C 0.2394 0.81124 0.07509 0.0
C1229 C 0.26501 0.786 0.08915 0.0
C1230 C 0.23487 0.82664 0.06041 0.0
C1231 C 0.24994 0.8328 0.04454 0.0
C1232 C 0.25921 0.8022 0.07394 0.0
C1233 C 0.26938 0.82316 0.04385 0.0
C1234 C 0.2863 0.78047 0.09033 0.0
C1235 C 0.25429 0.76051 0.11548 0.0
N1236 N 0.27346 0.80844 0.05836 0.0
N1237 N 0.2497 0.77594 0.10182 0.0
H1238 H 0.97811 0.49593 0.15705 0.0
H1239 H 0.07278 0.47427 0.238 0.0
H1240 H 0.02501 0.45102 0.1427 0.0
H1241 H 0.02884 0.52289 0.24823 0.0
H1242 H 0.052 0.46107 0.20588 0.0
H1243 H 0.99266 0.50106 0.1934 0.0
C1244 C 0.9912 0.4868 0.16164 0.0
C1245 C 0.00049 0.47319 0.14667 0.0
C1246 C 0.0468 0.47448 0.21532 0.0
C1247 C 0.01763 0.47942 0.18826 0.0
C1248 C 0.05861 0.48197 0.23366 0.0
C1249 C 0.05268 0.49987 0.24563 0.0
C1250 C 0.02893 0.48493 0.20901 0.0
C1251 C 0.03417 0.50922 0.23932 0.0
C1252 C -0.00035 0.4899 0.18239 0.0
C1253 C 0.01764 0.46202 0.15356 0.0
N1254 N 0.02308 0.50175 0.22139 0.0
N1255 N 0.02582 0.46556 0.17379 0.0
H1256 H 0.36805 0.74722 0.23717 0.0
H1257 H 0.41074 0.71805 0.35283 0.0
H1258 H 0.35607 0.68431 0.263 0.0
H1259 H 0.43406 0.77504 0.31992 0.0
H1260 H 0.38821 0.70641 0.32145 0.0
H1261 H 0.39009 0.75872 0.26882 0.0
C1262 C 0.37006 0.73585 0.24954 0.0
C1263 C 0.36027 0.71479 0.24746 0.0
C1264 C 0.39828 0.72146 0.32114 0.0
C1265 C 0.38541 0.72781 0.28373 0.0
C1266 C 0.41106 0.72815 0.33907 0.0
C1267 C 0.42434 0.74754 0.33901 0.0
C1268 C 0.39863 0.73434 0.30312 0.0
C1269 C 0.42415 0.75995 0.32069 0.0
C1270 C 0.3827 0.74238 0.26755 0.0
C1271 C 0.36355 0.70063 0.26386 0.0
N1272 N 0.41148 0.75316 0.30354 0.0
N1273 N 0.37577 0.70743 0.28137 0.0
H1274 H 0.9453 0.4176 0.97083 0.0
H1275 H 0.94026 0.28983 0.95656 0.0
H1276 H 0.9555 0.37685 0.02356 0.0
H1277 H 0.94839 0.33366 0.90472 0.0
H1278 H 0.93809 0.32057 0.98192 0.0
H1279 H 0.93849 0.38588 0.94711 0.0
C1280 C 0.94608 0.40194 0.97743 0.0
C1281 C 0.95142 0.39988 -0.00089 0.0
C1282 C 0.94011 0.32335 0.96495 0.0
C1283 C 0.94344 0.36342 0.97203 0.0
C1284 C 0.94124 0.30586 0.95049 0.0
C1285 C 0.94474 0.30926 0.92857 0.0
C1286 C 0.94221 0.34425 0.95729 0.0
C1287 C 0.94596 0.33033 0.92153 0.0
C1288 C 0.94209 0.38383 0.9639 0.0
C1289 C 0.95152 0.37915 0.00693 0.0
N1290 N 0.94478 0.34699 0.93584 0.0
N1291 N 0.94783 0.36168 0.99332 0.0
H1292 H 0.61423 0.84239 0.28447 0.0
H1293 H 0.54078 0.7587 0.35338 0.0
H1294 H 0.61744 0.77399 0.27813 0.0
H1295 H 0.52927 0.82485 0.34616 0.0
H1296 H 0.57354 0.76467 0.3316 0.0
H1297 H 0.58781 0.83677 0.31299 0.0
C1298 C 0.60939 0.82616 0.28913 0.0
C1299 C 0.61773 0.8086 0.27862 0.0
C1300 C 0.56392 0.77789 0.33502 0.0
C1301 C 0.58753 0.80204 0.31142 0.0
C1302 C 0.54532 0.77452 0.3475 0.0
C1303 C 0.53221 0.79126 0.35134 0.0
C1304 C 0.56945 0.79818 0.32663 0.0
C1305 C 0.53877 0.81144 0.34335 0.0
C1306 C 0.59437 0.82297 0.30548 0.0
C1307 C 0.61135 0.78797 0.28576 0.0
N1308 N 0.55685 0.8143 0.33132 0.0
N1309 N 0.59642 0.78522 0.30159 0.0
H1310 H 0.0061 0.13267 0.00741 0.0
H1311 H 0.01309 0.22287 0.91923 0.0
H1312 H 0.06485 0.17163 0.99307 0.0
H1313 H 0.95369 0.18867 0.93974 0.0
H1314 H 0.03313 0.20145 0.94299 0.0
H1315 H 0.98751 0.15022 0.97948 0.0
C1316 C 0.01517 0.14476 0.99822 0.0
C1317 C 0.03707 0.15072 0.00264 0.0
C1318 C 0.01572 0.19855 0.94216 0.0
C1319 C 0.01576 0.17113 0.97075 0.0
C1320 C 0.00429 0.21071 0.92854 0.0
C1321 C 0.98168 0.20766 0.92762 0.0
C1322 C 0.00446 0.1832 0.95485 0.0
C1323 C 0.9711 0.19169 0.94005 0.0
C1324 C 0.0045 0.15488 0.98235 0.0
C1325 C 0.04788 0.16674 0.99041 0.0
N1326 N 0.98256 0.18015 0.9532 0.0
N1327 N 0.03711 0.17643 0.97506 0.0
H1328 H 0.39236 0.31576 0.30423 0.0
H1329 H 0.45551 0.34949 0.19874 0.0
H1330 H 0.40193 0.38194 0.28634 0.0
H1331 H 0.47106 0.29577 0.23529 0.0
H1332 H 0.43197 0.36012 0.22795 0.0
H1333 H 0.41741 0.30646 0.27616 0.0
C1334 C 0.39979 0.32841 0.29458 0.0
C1335 C 0.395 0.34976 0.29791 0.0
C1336 C 0.44066 0.34609 0.22958 0.0
C1337 C 0.42329 0.33895 0.26523 0.0
C1338 C 0.45402 0.33998 0.21293 0.0
C1339 C 0.46525 0.32172 0.21462 0.0
C1340 C 0.43815 0.33358 0.24779 0.0
C1341 C 0.46278 0.31002 0.23338 0.0
C1342 C 0.41402 0.32302 0.27847 0.0
C1343 C 0.40476 0.36524 0.28429 0.0
N1344 N 0.44931 0.31601 0.24915 0.0
N1345 N 0.41835 0.3595 0.26849 0.0
H1346 H 0.51365 0.40263 0.00863 0.0
H1347 H 0.54492 0.34119 0.11311 0.0
H1348 H 0.57898 0.39089 0.02425 0.0
H1349 H 0.4799 0.35269 0.09596 0.0
H1350 H 0.55821 0.36125 0.08202 0.0
H1351 H 0.50148 0.38628 0.04191 0.0
C1352 C 0.52549 0.39679 0.01916 0.0
C1353 C 0.54739 0.39814 0.01359 0.0
C1354 C 0.54106 0.35948 0.08516 0.0
C1355 C 0.53348 0.37906 0.05171 0.0
C1356 C 0.53347 0.34808 0.10293 0.0
C1357 C 0.51126 0.34516 0.10707 0.0
C1358 C 0.52632 0.368 0.07148 0.0
C1359 C 0.49715 0.35443 0.09334 0.0
C1360 C 0.5185 0.38733 0.03813 0.0
C1361 C 0.56191 0.38993 0.02773 0.0
N1362 N 0.50491 0.36533 0.07614 0.0
N1363 N 0.55469 0.38071 0.04612 0.0
H1364 H 0.66488 0.24783 0.2466 0.0
H1365 H 0.58711 0.30933 0.17267 0.0
H1366 H 0.68868 0.29043 0.19727 0.0
H1367 H 0.56492 0.26366 0.21987 0.0
H1368 H 0.62446 0.30363 0.18177 0.0
H1369 H 0.62815 0.25378 0.23679 0.0
C1370 C 0.66241 0.25821 0.23348 0.0
C1371 C 0.67999 0.26853 0.22268 0.0
C1372 C 0.61138 0.29492 0.19014 0.0
C1373 C 0.63772 0.27588 0.21165 0.0
C1374 C 0.59008 0.29823 0.18502 0.0
C1375 C 0.57286 0.28695 0.19551 0.0
C1376 C 0.61544 0.28025 0.20587 0.0
C1377 C 0.57765 0.2727 0.21133 0.0
C1378 C 0.64137 0.26179 0.22801 0.0
C1379 C 0.67566 0.28227 0.20617 0.0
N1380 N 0.59844 0.26975 0.21598 0.0
N1381 N 0.65497 0.28557 0.20118 0.0
H1382 H 0.43768 0.13368 0.10546 0.0
H1383 H 0.51782 0.23386 0.13192 0.0
H1384 H 0.49503 0.14643 0.06763 0.0
H1385 H 0.44986 0.24219 0.13033 0.0
H1386 H 0.51034 0.19897 0.11315 0.0
H1387 H 0.44179 0.17121 0.1193 0.0
C1388 C 0.45094 0.1445 0.09991 0.0
C1389 C 0.46604 0.13717 0.08543 0.0
C1390 C 0.4971 0.20851 0.11682 0.0
C1391 C 0.47108 0.17941 0.10142 0.0
C1392 C 0.50131 0.22828 0.12763 0.0
C1393 C 0.48439 0.24078 0.13265 0.0
C1394 C 0.47577 0.20093 0.11157 0.0
C1395 C 0.4633 0.23295 0.12662 0.0
C1396 C 0.45322 0.16578 0.1077 0.0
C1397 C 0.48301 0.15162 0.0787 0.0
N1398 N 0.45949 0.21326 0.11664 0.0
N1399 N 0.48532 0.172 0.08706 0.0
H1400 H 0.25947 0.39719 0.69147 0.0
H1401 H 0.30874 0.48186 0.78224 0.0
H1402 H 0.2361 0.39952 0.75663 0.0
H1403 H 0.33774 0.47296 0.72001 0.0
H1404 H 0.28041 0.45348 0.77233 0.0
H1405 H 0.2869 0.42657 0.70093 0.0
C1406 C 0.2601 0.40392 0.70776 0.0
C1407 C 0.24551 0.39588 0.7233 0.0
C1408 C 0.29296 0.45778 0.76084 0.0
C1409 C 0.27686 0.42949 0.73426 0.0
C1410 C 0.30909 0.47404 0.76645 0.0
C1411 C 0.3257 0.47977 0.75196 0.0
C1412 C 0.29336 0.44723 0.74057 0.0
C1413 C 0.32532 0.46905 0.73174 0.0
C1414 C 0.27581 0.42063 0.71318 0.0
C1415 C 0.24721 0.40505 0.74422 0.0
N1416 N 0.30944 0.45329 0.72666 0.0
N1417 N 0.26255 0.42141 0.74908 0.0
H1418 H 0.31853 0.68271 0.73023 0.0
H1419 H 0.33366 0.58902 0.81138 0.0
H1420 H 0.29585 0.68309 0.79567 0.0
H1421 H 0.36258 0.59169 0.74849 0.0
H1422 H 0.31959 0.62343 0.80577 0.0
H1423 H 0.33426 0.64909 0.73625 0.0
C1424 C 0.31678 0.67567 0.74583 0.0
C1425 C 0.30585 0.68574 0.76247 0.0
C1426 C 0.32909 0.61656 0.79322 0.0
C1427 C 0.32395 0.64735 0.76953 0.0
C1428 C 0.33716 0.5969 0.79643 0.0
C1429 C 0.34929 0.58742 0.78037 0.0
C1430 C 0.33305 0.62683 0.77375 0.0
C1431 C 0.35331 0.5984 0.76131 0.0
C1432 C 0.32589 0.65656 0.74931 0.0
C1433 C 0.30434 0.67604 0.78245 0.0
N1434 N 0.34511 0.61747 0.75849 0.0
N1435 N 0.31322 0.65738 0.78539 0.0
H1436 H 0.85728 0.50973 0.55661 0.0
H1437 H 0.77075 0.4475 0.47666 0.0
H1438 H 0.87419 0.48694 0.49331 0.0
H1439 H 0.76962 0.43833 0.54503 0.0
H1440 H 0.80455 0.4708 0.48135 0.0
H1441 H 0.82062 0.49191 0.55123 0.0
C1442 C 0.85312 0.50112 0.54154 0.0
C1443 C 0.86857 0.49953 0.52541 0.0
C1444 C 0.7967 0.46383 0.49529 0.0
C1445 C 0.82704 0.47969 0.51904 0.0
C1446 C 0.77743 0.45069 0.49267 0.0
C1447 C 0.76756 0.4409 0.51049 0.0
C1448 C 0.80578 0.46752 0.51589 0.0
C1449 C 0.77689 0.44544 0.53088 0.0
C1450 C 0.83235 0.49099 0.5385 0.0
C1451 C 0.86262 0.48828 0.50613 0.0
N1452 N 0.79551 0.45847 0.53305 0.0
N1453 N 0.84222 0.47879 0.50342 0.0
H1454 H 0.73566 0.90164 0.83405 0.0
H1455 H 0.68763 0.01487 0.84596 0.0
H1456 H 0.77313 0.96085 0.85301 0.0
H1457 H 0.65345 0.96066 0.81196 0.0
H1458 H 0.71847 0.99431 0.84993 0.0
H1459 H 0.70494 0.92201 0.82651 0.0
C1460 C 0.73752 0.91891 0.83645 0.0
C1461 C 0.75698 0.92951 0.84441 0.0
C1462 C 0.7043 0.98687 0.84152 0.0
C1463 C 0.72184 0.9528 0.83611 0.0
C1464 C 0.6866 0.99859 0.83931 0.0
C1465 C 0.66789 0.98944 0.82866 0.0
C1466 C 0.70333 0.96568 0.83321 0.0
C1467 C 0.66758 0.96831 0.82028 0.0
C1468 C 0.71994 0.93049 0.83222 0.0
C1469 C 0.75834 0.9519 0.84739 0.0
N1470 N 0.68503 0.95705 0.82285 0.0
N1471 N 0.74101 0.96274 0.84337 0.0
H1472 H 0.66355 0.50768 0.92412 0.0
H1473 H 0.69524 0.60657 0.00624 0.0
H1474 H 0.62919 0.51921 0.98296 0.0
H1475 H 0.73849 0.58609 0.95715 0.0
H1476 H 0.66926 0.57644 0.99573 0.0
H1477 H 0.6899 0.53784 0.93413 0.0
C1478 C 0.66159 0.51643 0.9392 0.0
C1479 C 0.64405 0.51087 0.95269 0.0
C1480 C 0.68443 0.57852 0.98726 0.0
C1481 C 0.67397 0.54565 0.96401 0.0
C1482 C 0.69927 0.59578 0.99319 0.0
C1483 C 0.71912 0.59886 0.98258 0.0
C1484 C 0.68936 0.56426 0.97047 0.0
C1485 C 0.72342 0.5843 0.96581 0.0
C1486 C 0.67659 0.53372 0.94483 0.0
C1487 C 0.6422 0.52309 0.97185 0.0
N1488 N 0.70863 0.56764 0.96024 0.0
N1489 N 0.65692 0.53991 0.97689 0.0
H1490 H 0.20394 0.62694 0.19283 0.0
H1491 H 0.16619 0.57811 0.30312 0.0
H1492 H 0.23135 0.65105 0.25382 0.0
H1493 H 0.12474 0.57325 0.2471 0.0
H1494 H 0.1908 0.60425 0.2851 0.0
H1495 H 0.17502 0.60674 0.21198 0.0
C1496 C 0.20376 0.62828 0.21021 0.0
C1497 C 0.22031 0.64059 0.2217 0.0
C1498 C 0.1762 0.59766 0.27685 0.0
C1499 C 0.18746 0.61709 0.24368 0.0
C1500 C 0.16218 0.58269 0.28709 0.0
C1501 C 0.14346 0.57341 0.27653 0.0
C1502 C 0.17168 0.6031 0.25574 0.0
C1503 C 0.139 0.58002 0.25582 0.0
C1504 C 0.18726 0.61664 0.22113 0.0
C1505 C 0.21928 0.64137 0.24426 0.0
N1506 N 0.15318 0.59426 0.24596 0.0
N1507 N 0.2033 0.62959 0.2545 0.0
H1508 H 0.89756 0.54909 0.07285 0.0
H1509 H 0.83968 0.60561 0.97817 0.0
H1510 H 0.90992 0.5389 0.00526 0.0
H1511 H 0.82109 0.61226 0.04466 0.0
H1512 H 0.86778 0.58366 0.98872 0.0
H1513 H 0.8716 0.57454 0.06372 0.0
C1514 C 0.89487 0.55227 0.05613 0.0
C1515 C 0.90574 0.5417 0.03978 0.0
C1516 C 0.85765 0.58995 0.00107 0.0
C1517 C 0.87621 0.57072 0.02925 0.0
C1518 C 0.84158 0.60256 0.99505 0.0
C1519 C 0.8279 0.61069 0.01054 0.0
C1520 C 0.86012 0.58531 0.02278 0.0
C1521 C 0.83125 0.60626 0.03219 0.0
C1522 C 0.88003 0.56672 0.05093 0.0
C1523 C 0.90161 0.54635 0.01837 0.0
N1524 N 0.84698 0.59374 0.03767 0.0
N1525 N 0.8872 0.56046 0.01376 0.0
H1526 H 0.11053 0.01128 0.06708 0.0
H1527 H 0.18477 0.96916 0.97287 0.0
H1528 H 0.1349 0.04937 0.01456 0.0
H1529 H 0.17081 0.93437 0.03054 0.0
H1530 H 0.16207 0.99641 0.98577 0.0
H1531 H 0.12841 0.98095 0.05197 0.0
C1532 C 0.11951 0.0132 0.0523 0.0
C1533 C 0.12138 0.03291 0.04213 0.0
C1534 C 0.16383 0.98277 0.99557 0.0
C1535 C 0.1418 0.99837 0.02479 0.0
C1536 C 0.17675 0.96712 0.98818 0.0
C1537 C 0.17985 0.94952 0.00073 0.0
C1538 C 0.1539 0.98089 0.01571 0.0
C1539 C 0.16892 0.94772 0.02038 0.0
C1540 C 0.12977 0.99593 0.04374 0.0
C1541 C 0.13333 0.03458 0.0231 0.0
N1542 N 0.15653 0.96331 0.02735 0.0
N1543 N 0.14308 0.01755 0.01508 0.0
loop_
_geom_bond_atom_site_label_1
_geom_bond_atom_site_label_2
_geom_bond_distance
_geom_bond_site_symmetry_2
_ccdc_geom_bond_type
P0 O11 1.490 . S
P0 C14 1.812 . S
P0 C20 1.803 . S
P0 C26 1.819 . S
H1 C15 0.941 . S
H2 C16 0.939 . S
H3 C18 0.940 . S
H4 C19 0.940 . S
H5 C21 0.939 . S
H6 C22 0.942 . S
H7 C24 0.940 . S
H8 C25 0.939 . S
H9 C27 0.941 . S
H10 C31 0.939 . S
O11 P0 1.490 . S
H12 C28 0.939 . S
H13 C30 0.940 . S
C14 P0 1.812 . S
C14 C15 1.389 . S
C14 C19 1.391 . S
C15 H1 0.941 . S
C15 C14 1.389 . S
C15 C16 1.397 . S
C16 H2 0.939 . S
C16 C15 1.397 . S
C16 C17 1.378 . S
C17 C16 1.378 . S
C17 C18 1.378 . S
C18 H3 0.940 . S
C18 C17 1.378 . S
C18 C19 1.396 . S
C19 H4 0.940 . S
C19 C14 1.391 . S
C19 C18 1.396 . S
C20 P0 1.803 . S
C20 C21 1.378 . S
C20 C25 1.400 . S
C21 H5 0.939 . S
C21 C20 1.378 . S
C21 C22 1.361 . S
C22 H6 0.942 . S
C22 C21 1.361 . S
C22 C23 1.369 . S
C23 C22 1.369 . S
C23 C24 1.404 . S
C24 H7 0.940 . S
C24 C23 1.404 . S
C24 C25 1.389 . S
C25 H8 0.939 . S
C25 C20 1.400 . S
C25 C24 1.389 . S
C26 P0 1.819 . S
C26 C27 1.391 . S
C26 C31 1.391 . S
C27 H9 0.941 . S
C27 C26 1.391 . S
C27 C28 1.396 . S
C28 H12 0.939 . S
C28 C27 1.396 . S
C28 C29 1.397 . S
C29 C28 1.397 . S
C29 C30 1.385 . S
C30 H13 0.940 . S
C30 C29 1.385 . S
C30 C31 1.388 . S
C31 H10 0.939 . S
C31 C26 1.391 . S
C31 C30 1.388 . S
P32 O43 1.490 . S
P32 C46 1.812 . S
P32 C52 1.803 . S
P32 C58 1.819 . S
H33 C47 0.941 . S
H34 C48 0.939 . S
H35 C50 0.940 . S
H36 C51 0.940 . S
H37 C53 0.939 . S
H38 C54 0.942 . S
H39 C56 0.940 . S
H40 C57 0.939 . S
H41 C59 0.941 . S
H42 C63 0.939 . S
O43 P32 1.490 . S
H44 C60 0.939 . S
H45 C62 0.940 . S
C46 P32 1.812 . S
C46 C47 1.389 . S
C46 C51 1.391 . S
C47 H33 0.941 . S
C47 C46 1.389 . S
C47 C48 1.397 . S
C48 H34 0.939 . S
C48 C47 1.397 . S
C48 C49 1.378 . S
C49 C48 1.378 . S
C49 C50 1.378 . S
C50 H35 0.940 . S
C50 C49 1.378 . S
C50 C51 1.396 . S
C51 H36 0.940 . S
C51 C46 1.391 . S
C51 C50 1.396 . S
C52 P32 1.803 . S
C52 C53 1.378 . S
C52 C57 1.400 . S
C53 H37 0.939 . S
C53 C52 1.378 . S
C53 C54 1.361 . S
C54 H38 0.942 . S
C54 C53 1.361 . S
C54 C55 1.369 . S
C55 C54 1.369 . S
C55 C56 1.404 . S
C56 H39 0.940 . S
C56 C55 1.404 . S
C56 C57 1.389 . S
C57 H40 0.939 . S
C57 C52 1.400 . S
C57 C56 1.389 . S
C58 P32 1.819 . S
C58 C59 1.391 . S
C58 C63 1.391 . S
C59 H41 0.941 . S
C59 C58 1.391 . S
C59 C60 1.396 . S
C60 H44 0.939 . S
C60 C59 1.396 . S
C60 C61 1.397 . S
C61 C60 1.397 . S
C61 C62 1.385 . S
C62 H45 0.940 . S
C62 C61 1.385 . S
C62 C63 1.388 . S
C63 H42 0.939 . S
C63 C58 1.391 . S
C63 C62 1.388 . S
P64 O75 1.490 . S
P64 C78 1.812 . S
P64 C84 1.803 . S
P64 C90 1.819 . S
H65 C79 0.941 . S
H66 C80 0.939 . S
H67 C82 0.940 . S
H68 C83 0.940 . S
H69 C85 0.939 . S
H70 C86 0.942 . S
H71 C88 0.940 . S
H72 C89 0.939 . S
H73 C91 0.941 . S
H74 C95 0.939 . S
O75 P64 1.490 . S
H76 C92 0.939 . S
H77 C94 0.940 . S
C78 P64 1.812 . S
C78 C79 1.389 . S
C78 C83 1.391 . S
C79 H65 0.941 . S
C79 C78 1.389 . S
C79 C80 1.397 . S
C80 H66 0.939 . S
C80 C79 1.397 . S
C80 C81 1.378 . S
C81 C80 1.378 . S
C81 C82 1.378 . S
C82 H67 0.940 . S
C82 C81 1.378 . S
C82 C83 1.396 . S
C83 H68 0.940 . S
C83 C78 1.391 . S
C83 C82 1.396 . S
C84 P64 1.803 . S
C84 C85 1.378 . S
C84 C89 1.400 . S
C85 H69 0.939 . S
C85 C84 1.378 . S
C85 C86 1.361 . S
C86 H70 0.942 . S
C86 C85 1.361 . S
C86 C87 1.369 . S
C87 C86 1.369 . S
C87 C88 1.404 . S
C88 H71 0.940 . S
C88 C87 1.404 . S
C88 C89 1.389 . S
C89 H72 0.939 . S
C89 C84 1.400 . S
C89 C88 1.389 . S
C90 P64 1.819 . S
C90 C91 1.391 . S
C90 C95 1.391 . S
C91 H73 0.941 . S
C91 C90 1.391 . S
C91 C92 1.396 . S
C92 H76 0.939 . S
C92 C91 1.396 . S
C92 C93 1.397 . S
C93 C92 1.397 . S
C93 C94 1.385 . S
C94 H77 0.940 . S
C94 C93 1.385 . S
C94 C95 1.388 . S
C95 H74 0.939 . S
C95 C90 1.391 . S
C95 C94 1.388 . S
P96 O107 1.490 . S
P96 C110 1.812 . S
P96 C116 1.803 . S
P96 C122 1.819 . S
H97 C111 0.941 . S
H98 C112 0.939 . S
H99 C114 0.940 . S
H100 C115 0.940 . S
H101 C117 0.939 . S
H102 C118 0.942 . S
H103 C120 0.940 . S
H104 C121 0.939 . S
H105 C123 0.941 . S
H106 C127 0.939 . S
O107 P96 1.490 . S
H108 C124 0.939 . S
H109 C126 0.940 . S
C110 P96 1.812 . S
C110 C111 1.389 . S
C110 C115 1.391 . S
C111 H97 0.941 . S
C111 C110 1.389 . S
C111 C112 1.397 . S
C112 H98 0.939 . S
C112 C111 1.397 . S
C112 C113 1.378 . S
C113 C112 1.378 . S
C113 C114 1.378 . S
C114 H99 0.940 . S
C114 C113 1.378 . S
C114 C115 1.396 . S
C115 H100 0.940 . S
C115 C110 1.391 . S
C115 C114 1.396 . S
C116 P96 1.803 . S
C116 C117 1.378 . S
C116 C121 1.400 . S
C117 H101 0.939 . S
C117 C116 1.378 . S
C117 C118 1.361 . S
C118 H102 0.942 . S
C118 C117 1.361 . S
C118 C119 1.369 . S
C119 C118 1.369 . S
C119 C120 1.404 . S
C120 H103 0.940 . S
C120 C119 1.404 . S
C120 C121 1.389 . S
C121 H104 0.939 . S
C121 C116 1.400 . S
C121 C120 1.389 . S
C122 P96 1.819 . S
C122 C123 1.391 . S
C122 C127 1.391 . S
C123 H105 0.941 . S
C123 C122 1.391 . S
C123 C124 1.396 . S
C124 H108 0.939 . S
C124 C123 1.396 . S
C124 C125 1.397 . S
C125 C124 1.397 . S
C125 C126 1.385 . S
C126 H109 0.940 . S
C126 C125 1.385 . S
C126 C127 1.388 . S
C127 H106 0.939 . S
C127 C122 1.391 . S
C127 C126 1.388 . S
P128 O139 1.490 . S
P128 C142 1.812 . S
P128 C148 1.803 . S
P128 C154 1.819 . S
H129 C143 0.941 . S
H130 C144 0.939 . S
H131 C146 0.940 1_545 S
H132 C147 0.940 . S
H133 C149 0.939 . S
H134 C150 0.942 . S
H135 C152 0.940 . S
H136 C153 0.939 . S
H137 C155 0.941 . S
H138 C159 0.939 . S
O139 P128 1.490 . S
H140 C156 0.939 . S
H141 C158 0.940 . S
C142 P128 1.812 . S
C142 C143 1.389 . S
C142 C147 1.391 . S
C143 H129 0.941 . S
C143 C142 1.389 . S
C143 C144 1.397 . S
C144 H130 0.939 . S
C144 C143 1.397 . S
C144 C145 1.378 . S
C145 C144 1.378 . S
C145 C146 1.378 . S
C146 H131 0.940 1_565 S
C146 C145 1.378 . S
C146 C147 1.396 . S
C147 H132 0.940 . S
C147 C142 1.391 . S
C147 C146 1.396 . S
C148 P128 1.803 . S
C148 C149 1.378 . S
C148 C153 1.400 . S
C149 H133 0.939 . S
C149 C148 1.378 . S
C149 C150 1.361 . S
C150 H134 0.942 . S
C150 C149 1.361 . S
C150 C151 1.369 . S
C151 C150 1.369 . S
C151 C152 1.404 . S
C152 H135 0.940 . S
C152 C151 1.404 . S
C152 C153 1.389 . S
C153 H136 0.939 . S
C153 C148 1.400 . S
C153 C152 1.389 . S
C154 P128 1.819 . S
C154 C155 1.391 . S
C154 C159 1.391 . S
C155 H137 0.941 . S
C155 C154 1.391 . S
C155 C156 1.396 . S
C156 H140 0.939 . S
C156 C155 1.396 . S
C156 C157 1.397 . S
C157 C156 1.397 . S
C157 C158 1.385 . S
C158 H141 0.940 . S
C158 C157 1.385 . S
C158 C159 1.388 . S
C159 H138 0.939 . S
C159 C154 1.391 . S
C159 C158 1.388 . S
P160 O171 1.490 . S
P160 C174 1.812 . S
P160 C180 1.803 . S
P160 C186 1.819 . S
H161 C175 0.941 . S
H162 C176 0.939 . S
H163 C178 0.940 . S
H164 C179 0.940 . S
H165 C181 0.939 . S
H166 C182 0.942 . S
H167 C184 0.940 . S
H168 C185 0.939 . S
H169 C187 0.941 . S
H170 C191 0.939 . S
O171 P160 1.490 . S
H172 C188 0.939 . S
H173 C190 0.940 . S
C174 P160 1.812 . S
C174 C175 1.389 . S
C174 C179 1.391 . S
C175 H161 0.941 . S
C175 C174 1.389 . S
C175 C176 1.397 . S
C176 H162 0.939 . S
C176 C175 1.397 . S
C176 C177 1.378 . S
C177 C176 1.378 . S
C177 C178 1.378 . S
C178 H163 0.940 . S
C178 C177 1.378 . S
C178 C179 1.396 . S
C179 H164 0.940 . S
C179 C174 1.391 . S
C179 C178 1.396 . S
C180 P160 1.803 . S
C180 C181 1.378 . S
C180 C185 1.400 . S
C181 H165 0.939 . S
C181 C180 1.378 . S
C181 C182 1.361 . S
C182 H166 0.942 . S
C182 C181 1.361 . S
C182 C183 1.369 . S
C183 C182 1.369 . S
C183 C184 1.404 . S
C184 H167 0.940 . S
C184 C183 1.404 . S
C184 C185 1.389 . S
C185 H168 0.939 . S
C185 C180 1.400 . S
C185 C184 1.389 . S
C186 P160 1.819 . S
C186 C187 1.391 . S
C186 C191 1.391 . S
C187 H169 0.941 . S
C187 C186 1.391 . S
C187 C188 1.396 . S
C188 H172 0.939 . S
C188 C187 1.396 . S
C188 C189 1.397 . S
C189 C188 1.397 . S
C189 C190 1.385 . S
C190 H173 0.940 . S
C190 C189 1.385 . S
C190 C191 1.388 . S
C191 H170 0.939 . S
C191 C186 1.391 . S
C191 C190 1.388 . S
P192 O203 1.490 . S
P192 C206 1.812 . S
P192 C212 1.803 . S
P192 C218 1.819 . S
H193 C207 0.941 . S
H194 C208 0.939 . S
H195 C210 0.940 . S
H196 C211 0.940 . S
H197 C213 0.939 . S
H198 C214 0.942 . S
H199 C216 0.940 . S
H200 C217 0.939 . S
H201 C219 0.941 . S
H202 C223 0.939 . S
O203 P192 1.490 . S
H204 C220 0.939 . S
H205 C222 0.940 . S
C206 P192 1.812 . S
C206 C207 1.389 . S
C206 C211 1.391 . S
C207 H193 0.941 . S
C207 C206 1.389 . S
C207 C208 1.397 . S
C208 H194 0.939 . S
C208 C207 1.397 . S
C208 C209 1.378 . S
C209 C208 1.378 . S
C209 C210 1.378 . S
C210 H195 0.940 . S
C210 C209 1.378 . S
C210 C211 1.396 . S
C211 H196 0.940 . S
C211 C206 1.391 . S
C211 C210 1.396 . S
C212 P192 1.803 . S
C212 C213 1.378 . S
C212 C217 1.400 . S
C213 H197 0.939 . S
C213 C212 1.378 . S
C213 C214 1.361 . S
C214 H198 0.942 . S
C214 C213 1.361 . S
C214 C215 1.369 . S
C215 C214 1.369 . S
C215 C216 1.404 . S
C216 H199 0.940 . S
C216 C215 1.404 . S
C216 C217 1.389 . S
C217 H200 0.939 . S
C217 C212 1.400 . S
C217 C216 1.389 . S
C218 P192 1.819 . S
C218 C219 1.391 . S
C218 C223 1.391 . S
C219 H201 0.941 . S
C219 C218 1.391 . S
C219 C220 1.396 . S
C220 H204 0.939 . S
C220 C219 1.396 . S
C220 C221 1.397 . S
C221 C220 1.397 . S
C221 C222 1.385 . S
C222 H205 0.940 . S
C222 C221 1.385 . S
C222 C223 1.388 . S
C223 H202 0.939 . S
C223 C218 1.391 . S
C223 C222 1.388 . S
P224 O235 1.490 . S
P224 C238 1.812 . S
P224 C244 1.803 . S
P224 C250 1.819 . S
H225 C239 0.941 . S
H226 C240 0.939 . S
H227 C242 0.940 . S
H228 C243 0.940 . S
H229 C245 0.939 . S
H230 C246 0.942 . S
H231 C248 0.940 . S
H232 C249 0.939 . S
H233 C251 0.941 . S
H234 C255 0.939 . S
O235 P224 1.490 . S
H236 C252 0.939 . S
H237 C254 0.940 . S
C238 P224 1.812 . S
C238 C239 1.389 . S
C238 C243 1.391 . S
C239 H225 0.941 . S
C239 C238 1.389 . S
C239 C240 1.397 . S
C240 H226 0.939 . S
C240 C239 1.397 . S
C240 C241 1.378 . S
C241 C240 1.378 . S
C241 C242 1.378 . S
C242 H227 0.940 . S
C242 C241 1.378 . S
C242 C243 1.396 . S
C243 H228 0.940 . S
C243 C238 1.391 . S
C243 C242 1.396 . S
C244 P224 1.803 . S
C244 C245 1.378 . S
C244 C249 1.400 . S
C245 H229 0.939 . S
C245 C244 1.378 . S
C245 C246 1.361 . S
C246 H230 0.942 . S
C246 C245 1.361 . S
C246 C247 1.369 . S
C247 C246 1.369 . S
C247 C248 1.404 . S
C248 H231 0.940 . S
C248 C247 1.404 . S
C248 C249 1.389 . S
C249 H232 0.939 . S
C249 C244 1.400 . S
C249 C248 1.389 . S
C250 P224 1.819 . S
C250 C251 1.391 . S
C250 C255 1.391 . S
C251 H233 0.941 . S
C251 C250 1.391 . S
C251 C252 1.396 . S
C252 H236 0.939 . S
C252 C251 1.396 . S
C252 C253 1.397 . S
C253 C252 1.397 . S
C253 C254 1.385 . S
C254 H237 0.940 . S
C254 C253 1.385 . S
C254 C255 1.388 . S
C255 H234 0.939 . S
C255 C250 1.391 . S
C255 C254 1.388 . S
P256 O267 1.490 . S
P256 C270 1.812 . S
P256 C276 1.803 . S
P256 C282 1.819 . S
H257 C271 0.941 . S
H258 C272 0.939 . S
H259 C274 0.940 . S
H260 C275 0.940 . S
H261 C277 0.939 . S
H262 C278 0.942 . S
H263 C280 0.940 . S
H264 C281 0.939 . S
H265 C283 0.941 . S
H266 C287 0.939 . S
O267 P256 1.490 . S
H268 C284 0.939 . S
H269 C286 0.940 . S
C270 P256 1.812 . S
C270 C271 1.389 . S
C270 C275 1.391 . S
C271 H257 0.941 . S
C271 C270 1.389 . S
C271 C272 1.397 . S
C272 H258 0.939 . S
C272 C271 1.397 . S
C272 C273 1.378 . S
C273 C272 1.378 . S
C273 C274 1.378 . S
C274 H259 0.940 . S
C274 C273 1.378 . S
C274 C275 1.396 . S
C275 H260 0.940 . S
C275 C270 1.391 . S
C275 C274 1.396 . S
C276 P256 1.803 . S
C276 C277 1.378 . S
C276 C281 1.400 . S
C277 H261 0.939 . S
C277 C276 1.378 . S
C277 C278 1.361 . S
C278 H262 0.942 . S
C278 C277 1.361 . S
C278 C279 1.369 . S
C279 C278 1.369 . S
C279 C280 1.404 . S
C280 H263 0.940 . S
C280 C279 1.404 . S
C280 C281 1.389 . S
C281 H264 0.939 . S
C281 C276 1.400 . S
C281 C280 1.389 . S
C282 P256 1.819 . S
C282 C283 1.391 . S
C282 C287 1.391 . S
C283 H265 0.941 . S
C283 C282 1.391 . S
C283 C284 1.396 . S
C284 H268 0.939 . S
C284 C283 1.396 . S
C284 C285 1.397 . S
C285 C284 1.397 . S
C285 C286 1.385 . S
C286 H269 0.940 . S
C286 C285 1.385 . S
C286 C287 1.388 . S
C287 H266 0.939 . S
C287 C282 1.391 . S
C287 C286 1.388 . S
P288 O299 1.490 . S
P288 C302 1.812 . S
P288 C308 1.803 . S
P288 C314 1.819 . S
H289 C303 0.941 . S
H290 C304 0.939 . S
H291 C306 0.940 . S
H292 C307 0.940 . S
H293 C309 0.939 . S
H294 C310 0.942 . S
H295 C312 0.940 . S
H296 C313 0.939 . S
H297 C315 0.941 . S
H298 C319 0.939 . S
O299 P288 1.490 . S
H300 C316 0.939 . S
H301 C318 0.940 . S
C302 P288 1.812 . S
C302 C303 1.389 . S
C302 C307 1.391 . S
C303 H289 0.941 . S
C303 C302 1.389 . S
C303 C304 1.397 . S
C304 H290 0.939 . S
C304 C303 1.397 . S
C304 C305 1.378 . S
C305 C304 1.378 . S
C305 C306 1.378 . S
C306 H291 0.940 . S
C306 C305 1.378 . S
C306 C307 1.396 . S
C307 H292 0.940 . S
C307 C302 1.391 . S
C307 C306 1.396 . S
C308 P288 1.803 . S
C308 C309 1.378 . S
C308 C313 1.400 . S
C309 H293 0.939 . S
C309 C308 1.378 . S
C309 C310 1.361 . S
C310 H294 0.942 . S
C310 C309 1.361 . S
C310 C311 1.369 . S
C311 C310 1.369 . S
C311 C312 1.404 . S
C312 H295 0.940 . S
C312 C311 1.404 . S
C312 C313 1.389 . S
C313 H296 0.939 . S
C313 C308 1.400 . S
C313 C312 1.389 . S
C314 P288 1.819 . S
C314 C315 1.391 . S
C314 C319 1.391 . S
C315 H297 0.941 . S
C315 C314 1.391 . S
C315 C316 1.396 . S
C316 H300 0.939 . S
C316 C315 1.396 . S
C316 C317 1.397 . S
C317 C316 1.397 . S
C317 C318 1.385 . S
C318 H301 0.940 . S
C318 C317 1.385 . S
C318 C319 1.388 . S
C319 H298 0.939 . S
C319 C314 1.391 . S
C319 C318 1.388 . S
P320 O331 1.490 . S
P320 C334 1.812 . S
P320 C340 1.803 . S
P320 C346 1.819 . S
H321 C335 0.941 . S
H322 C336 0.939 . S
H323 C338 0.940 . S
H324 C339 0.940 . S
H325 C341 0.939 . S
H326 C342 0.942 . S
H327 C344 0.940 . S
H328 C345 0.939 . S
H329 C347 0.941 . S
H330 C351 0.939 . S
O331 P320 1.490 . S
H332 C348 0.939 . S
H333 C350 0.940 . S
C334 P320 1.812 . S
C334 C335 1.389 . S
C334 C339 1.391 . S
C335 H321 0.941 . S
C335 C334 1.389 . S
C335 C336 1.397 . S
C336 H322 0.939 . S
C336 C335 1.397 . S
C336 C337 1.378 . S
C337 C336 1.378 . S
C337 C338 1.378 . S
C338 H323 0.940 . S
C338 C337 1.378 . S
C338 C339 1.396 . S
C339 H324 0.940 . S
C339 C334 1.391 . S
C339 C338 1.396 . S
C340 P320 1.803 . S
C340 C341 1.378 . S
C340 C345 1.400 . S
C341 H325 0.939 . S
C341 C340 1.378 . S
C341 C342 1.361 . S
C342 H326 0.942 . S
C342 C341 1.361 . S
C342 C343 1.369 . S
C343 C342 1.369 . S
C343 C344 1.404 . S
C344 H327 0.940 . S
C344 C343 1.404 . S
C344 C345 1.389 . S
C345 H328 0.939 . S
C345 C340 1.400 . S
C345 C344 1.389 . S
C346 P320 1.819 . S
C346 C347 1.391 . S
C346 C351 1.391 . S
C347 H329 0.941 . S
C347 C346 1.391 . S
C347 C348 1.396 . S
C348 H332 0.939 . S
C348 C347 1.396 . S
C348 C349 1.397 . S
C349 C348 1.397 . S
C349 C350 1.385 . S
C350 H333 0.940 . S
C350 C349 1.385 . S
C350 C351 1.388 . S
C351 H330 0.939 . S
C351 C346 1.391 . S
C351 C350 1.388 . S
P352 O363 1.490 . S
P352 C366 1.812 . S
P352 C372 1.803 . S
P352 C378 1.819 . S
H353 C367 0.941 . S
H354 C368 0.939 . S
H355 C370 0.940 . S
H356 C371 0.940 . S
H357 C373 0.939 . S
H358 C374 0.942 . S
H359 C376 0.940 . S
H360 C377 0.939 . S
H361 C379 0.941 . S
H362 C383 0.939 . S
O363 P352 1.490 . S
H364 C380 0.939 . S
H365 C382 0.940 . S
C366 P352 1.812 . S
C366 C367 1.389 . S
C366 C371 1.391 . S
C367 H353 0.941 . S
C367 C366 1.389 . S
C367 C368 1.397 . S
C368 H354 0.939 . S
C368 C367 1.397 . S
C368 C369 1.378 . S
C369 C368 1.378 . S
C369 C370 1.378 . S
C370 H355 0.940 . S
C370 C369 1.378 . S
C370 C371 1.396 . S
C371 H356 0.940 . S
C371 C366 1.391 . S
C371 C370 1.396 . S
C372 P352 1.803 . S
C372 C373 1.378 . S
C372 C377 1.400 . S
C373 H357 0.939 . S
C373 C372 1.378 . S
C373 C374 1.361 . S
C374 H358 0.942 . S
C374 C373 1.361 . S
C374 C375 1.369 . S
C375 C374 1.369 . S
C375 C376 1.404 . S
C376 H359 0.940 . S
C376 C375 1.404 . S
C376 C377 1.389 . S
C377 H360 0.939 . S
C377 C372 1.400 . S
C377 C376 1.389 . S
C378 P352 1.819 . S
C378 C379 1.391 . S
C378 C383 1.391 . S
C379 H361 0.941 . S
C379 C378 1.391 . S
C379 C380 1.396 . S
C380 H364 0.939 . S
C380 C379 1.396 . S
C380 C381 1.397 . S
C381 C380 1.397 . S
C381 C382 1.385 . S
C382 H365 0.940 . S
C382 C381 1.385 . S
C382 C383 1.388 . S
C383 H362 0.939 . S
C383 C378 1.391 . S
C383 C382 1.388 . S
P384 O395 1.490 . S
P384 C398 1.812 . S
P384 C404 1.803 . S
P384 C410 1.819 . S
H385 C399 0.941 . S
H386 C400 0.939 . S
H387 C402 0.940 . S
H388 C403 0.940 . S
H389 C405 0.939 . S
H390 C406 0.942 . S
H391 C408 0.940 . S
H392 C409 0.939 . S
H393 C411 0.941 . S
H394 C415 0.939 . S
O395 P384 1.490 . S
H396 C412 0.939 . S
H397 C414 0.940 . S
C398 P384 1.812 . S
C398 C399 1.389 . S
C398 C403 1.391 . S
C399 H385 0.941 . S
C399 C398 1.389 . S
C399 C400 1.397 . S
C400 H386 0.939 . S
C400 C399 1.397 . S
C400 C401 1.378 . S
C401 C400 1.378 . S
C401 C402 1.378 . S
C402 H387 0.940 . S
C402 C401 1.378 . S
C402 C403 1.396 . S
C403 H388 0.940 . S
C403 C398 1.391 . S
C403 C402 1.396 . S
C404 P384 1.803 . S
C404 C405 1.378 . S
C404 C409 1.400 . S
C405 H389 0.939 . S
C405 C404 1.378 . S
C405 C406 1.361 . S
C406 H390 0.942 . S
C406 C405 1.361 . S
C406 C407 1.369 . S
C407 C406 1.369 . S
C407 C408 1.404 . S
C408 H391 0.940 . S
C408 C407 1.404 . S
C408 C409 1.389 . S
C409 H392 0.939 . S
C409 C404 1.400 . S
C409 C408 1.389 . S
C410 P384 1.819 . S
C410 C411 1.391 . S
C410 C415 1.391 . S
C411 H393 0.941 . S
C411 C410 1.391 . S
C411 C412 1.396 . S
C412 H396 0.939 . S
C412 C411 1.396 . S
C412 C413 1.397 . S
C413 C412 1.397 . S
C413 C414 1.385 . S
C414 H397 0.940 . S
C414 C413 1.385 . S
C414 C415 1.388 . S
C415 H394 0.939 . S
C415 C410 1.391 . S
C415 C414 1.388 . S
P416 O427 1.490 . S
P416 C430 1.812 . S
P416 C436 1.803 . S
P416 C442 1.819 . S
H417 C431 0.941 . S
H418 C432 0.939 . S
H419 C434 0.940 . S
H420 C435 0.940 . S
H421 C437 0.939 . S
H422 C438 0.942 . S
H423 C440 0.940 . S
H424 C441 0.939 . S
H425 C443 0.941 . S
H426 C447 0.939 . S
O427 P416 1.490 . S
H428 C444 0.939 . S
H429 C446 0.940 . S
C430 P416 1.812 . S
C430 C431 1.389 . S
C430 C435 1.391 . S
C431 H417 0.941 . S
C431 C430 1.389 . S
C431 C432 1.397 . S
C432 H418 0.939 . S
C432 C431 1.397 . S
C432 C433 1.378 . S
C433 C432 1.378 . S
C433 C434 1.378 . S
C434 H419 0.940 . S
C434 C433 1.378 . S
C434 C435 1.396 . S
C435 H420 0.940 . S
C435 C430 1.391 . S
C435 C434 1.396 . S
C436 P416 1.803 . S
C436 C437 1.378 . S
C436 C441 1.400 . S
C437 H421 0.939 . S
C437 C436 1.378 . S
C437 C438 1.361 . S
C438 H422 0.942 . S
C438 C437 1.361 . S
C438 C439 1.369 . S
C439 C438 1.369 . S
C439 C440 1.404 . S
C440 H423 0.940 . S
C440 C439 1.404 . S
C440 C441 1.389 . S
C441 H424 0.939 . S
C441 C436 1.400 . S
C441 C440 1.389 . S
C442 P416 1.819 . S
C442 C443 1.391 . S
C442 C447 1.391 . S
C443 H425 0.941 . S
C443 C442 1.391 . S
C443 C444 1.396 . S
C444 H428 0.939 . S
C444 C443 1.396 . S
C444 C445 1.397 . S
C445 C444 1.397 . S
C445 C446 1.385 . S
C446 H429 0.940 . S
C446 C445 1.385 . S
C446 C447 1.388 . S
C447 H426 0.939 . S
C447 C442 1.391 . S
C447 C446 1.388 . S
P448 O459 1.490 . S
P448 C462 1.812 . S
P448 C468 1.803 . S
P448 C474 1.819 . S
H449 C463 0.941 . S
H450 C464 0.939 . S
H451 C466 0.940 . S
H452 C467 0.940 . S
H453 C469 0.939 . S
H454 C470 0.942 . S
H455 C472 0.940 . S
H456 C473 0.939 . S
H457 C475 0.941 . S
H458 C479 0.939 . S
O459 P448 1.490 . S
H460 C476 0.939 . S
H461 C478 0.940 . S
C462 P448 1.812 . S
C462 C463 1.389 . S
C462 C467 1.391 . S
C463 H449 0.941 . S
C463 C462 1.389 . S
C463 C464 1.397 . S
C464 H450 0.939 . S
C464 C463 1.397 . S
C464 C465 1.378 . S
C465 C464 1.378 . S
C465 C466 1.378 . S
C466 H451 0.940 . S
C466 C465 1.378 . S
C466 C467 1.396 . S
C467 H452 0.940 . S
C467 C462 1.391 . S
C467 C466 1.396 . S
C468 P448 1.803 . S
C468 C469 1.378 . S
C468 C473 1.400 . S
C469 H453 0.939 . S
C469 C468 1.378 . S
C469 C470 1.361 . S
C470 H454 0.942 . S
C470 C469 1.361 . S
C470 C471 1.369 . S
C471 C470 1.369 . S
C471 C472 1.404 . S
C472 H455 0.940 . S
C472 C471 1.404 . S
C472 C473 1.389 . S
C473 H456 0.939 . S
C473 C468 1.400 . S
C473 C472 1.389 . S
C474 P448 1.819 . S
C474 C475 1.391 . S
C474 C479 1.391 . S
C475 H457 0.941 . S
C475 C474 1.391 . S
C475 C476 1.396 . S
C476 H460 0.939 . S
C476 C475 1.396 . S
C476 C477 1.397 . S
C477 C476 1.397 . S
C477 C478 1.385 . S
C478 H461 0.940 . S
C478 C477 1.385 . S
C478 C479 1.388 . S
C479 H458 0.939 . S
C479 C474 1.391 . S
C479 C478 1.388 . S
P480 O491 1.490 . S
P480 C494 1.812 . S
P480 C500 1.803 . S
P480 C506 1.819 . S
H481 C495 0.941 . S
H482 C496 0.939 . S
H483 C498 0.940 . S
H484 C499 0.940 . S
H485 C501 0.907 1_554 S
H486 C502 0.942 1_554 S
H487 C504 0.940 . S
H488 C505 0.939 . S
H489 C507 0.941 . S
H490 C511 0.939 . S
O491 P480 1.490 . S
H492 C508 0.939 . S
H493 C510 0.940 . S
C494 P480 1.812 . S
C494 C495 1.389 . S
C494 C499 1.391 . S
C495 H481 0.941 . S
C495 C494 1.389 . S
C495 C496 1.397 . S
C496 H482 0.939 . S
C496 C495 1.397 . S
C496 C497 1.378 . S
C497 C496 1.378 . S
C497 C498 1.378 . S
C498 H483 0.940 . S
C498 C497 1.378 . S
C498 C499 1.396 . S
C499 H484 0.940 . S
C499 C494 1.391 . S
C499 C498 1.396 . S
C500 P480 1.803 . S
C500 C501 1.378 . S
C500 C505 1.400 . S
C501 H485 0.907 1_556 S
C501 C500 1.378 . S
C501 C502 1.361 . S
C502 H486 0.942 1_556 S
C502 C501 1.361 . S
C502 C503 1.369 . S
C503 C502 1.369 . S
C503 C504 1.404 . S
C504 H487 0.940 . S
C504 C503 1.404 . S
C504 C505 1.389 . S
C505 H488 0.939 . S
C505 C500 1.400 . S
C505 C504 1.389 . S
C506 P480 1.819 . S
C506 C507 1.391 . S
C506 C511 1.391 . S
C507 H489 0.941 . S
C507 C506 1.391 . S
C507 C508 1.396 . S
C508 H492 0.939 . S
C508 C507 1.396 . S
C508 C509 1.397 . S
C509 C508 1.397 . S
C509 C510 1.385 . S
C510 H493 0.940 . S
C510 C509 1.385 . S
C510 C511 1.388 . S
C511 H490 0.939 . S
C511 C506 1.391 . S
C511 C510 1.388 . S
O512 Cd513 2.223 . S
O512 C520 1.315 . S
Cd513 O512 2.223 . S
Cd513 O516 2.297 . S
Cd513 O517 2.439 . S
Cd513 O523 2.240 . S
Cd514 O515 2.240 . S
Cd514 O522 2.223 . S
Cd514 O524 2.297 . S
Cd514 O525 2.439 . S
O515 Cd514 2.240 . S
O515 C520 1.279 . S
O516 Cd513 2.297 . S
O516 C518 1.247 . S
O517 Cd513 2.439 . S
O517 C518 1.208 . S
C518 O516 1.247 . S
C518 O517 1.208 . S
C519 O524 1.247 . S
C519 O525 1.208 . S
C520 O512 1.315 . S
C520 O515 1.279 . S
C521 O522 1.315 . S
C521 O523 1.279 . S
O522 Cd514 2.223 . S
O522 C521 1.315 . S
O523 Cd513 2.240 . S
O523 C521 1.279 . S
O524 Cd514 2.297 . S
O524 C519 1.247 . S
O525 Cd514 2.439 . S
O525 C519 1.208 . S
O526 Cd527 2.223 . S
O526 C534 1.315 . S
Cd527 O526 2.223 . S
Cd527 O530 2.297 . S
Cd527 O531 2.439 . S
Cd527 O537 2.240 . S
Cd528 O529 2.240 . S
Cd528 O536 2.223 . S
Cd528 O538 2.297 . S
Cd528 O539 2.439 . S
O529 Cd528 2.240 . S
O529 C534 1.279 . S
O530 Cd527 2.297 . S
O530 C532 1.247 . S
O531 Cd527 2.439 . S
O531 C532 1.208 . S
C532 O530 1.247 . S
C532 O531 1.208 . S
C533 O538 1.247 . S
C533 O539 1.208 . S
C534 O526 1.315 . S
C534 O529 1.279 . S
C535 O536 1.315 . S
C535 O537 1.279 . S
O536 Cd528 2.223 . S
O536 C535 1.315 . S
O537 Cd527 2.240 . S
O537 C535 1.279 . S
O538 Cd528 2.297 . S
O538 C533 1.247 . S
O539 Cd528 2.439 . S
O539 C533 1.208 . S
O540 Cd541 2.223 1_556 S
O540 C548 1.315 . S
Cd541 O540 2.223 1_554 S
Cd541 O544 2.297 . S
Cd541 O545 2.439 . S
Cd541 O551 2.240 . S
Cd542 O543 2.240 . S
Cd542 O550 2.223 . S
Cd542 O552 2.297 1_556 S
Cd542 O553 2.439 1_556 S
O543 Cd542 2.240 . S
O543 C548 1.279 . S
O544 Cd541 2.297 . S
O544 C546 1.247 . S
O545 Cd541 2.439 . S
O545 C546 1.208 . S
C546 O544 1.247 . S
C546 O545 1.208 . S
C547 O552 1.247 . S
C547 O553 1.208 . S
C548 O540 1.315 . S
C548 O543 1.279 . S
C549 O550 1.315 . S
C549 O551 1.279 1_556 S
O550 Cd542 2.223 . S
O550 C549 1.315 . S
O551 Cd541 2.240 . S
O551 C549 1.279 1_554 S
O552 Cd542 2.297 1_554 S
O552 C547 1.247 . S
O553 Cd542 2.439 1_554 S
O553 C547 1.208 . S
O554 Cd555 2.223 . S
O554 C562 1.315 . S
Cd555 O554 2.223 . S
Cd555 O558 2.297 . S
Cd555 O559 2.439 . S
Cd555 O565 2.240 . S
Cd556 O557 2.240 . S
Cd556 O564 2.223 . S
Cd556 O566 2.297 . S
Cd556 O567 2.439 . S
O557 Cd556 2.240 . S
O557 C562 1.279 . S
O558 Cd555 2.297 . S
O558 C560 1.247 . S
O559 Cd555 2.439 . S
O559 C560 1.208 . S
C560 O558 1.247 . S
C560 O559 1.208 . S
C561 O566 1.247 . S
C561 O567 1.208 . S
C562 O554 1.315 . S
C562 O557 1.279 . S
C563 O564 1.315 . S
C563 O565 1.279 . S
O564 Cd556 2.223 . S
O564 C563 1.315 . S
O565 Cd555 2.240 . S
O565 C563 1.279 . S
O566 Cd556 2.297 . S
O566 C561 1.247 . S
O567 Cd556 2.439 . S
O567 C561 1.208 . S
O568 Cd569 2.223 . S
O568 C576 1.315 . S
Cd569 O568 2.223 . S
Cd569 O572 2.297 . S
Cd569 O573 2.439 . S
Cd569 O579 2.240 . S
Cd570 O571 2.240 . S
Cd570 O578 2.223 . S
Cd570 O580 2.297 . S
Cd570 O581 2.439 . S
O571 Cd570 2.240 . S
O571 C576 1.279 . S
O572 Cd569 2.297 . S
O572 C574 1.247 . S
O573 Cd569 2.439 . S
O573 C574 1.208 . S
C574 O572 1.247 . S
C574 O573 1.208 . S
C575 O580 1.247 . S
C575 O581 1.208 . S
C576 O568 1.315 . S
C576 O571 1.279 . S
C577 O578 1.315 . S
C577 O579 1.279 . S
O578 Cd570 2.223 . S
O578 C577 1.315 . S
O579 Cd569 2.240 . S
O579 C577 1.279 . S
O580 Cd570 2.297 . S
O580 C575 1.247 . S
O581 Cd570 2.439 . S
O581 C575 1.208 . S
O582 Cd583 2.223 . S
O582 C590 1.315 . S
Cd583 O582 2.223 . S
Cd583 O586 2.297 . S
Cd583 O587 2.439 . S
Cd583 O593 2.240 . S
Cd584 O585 2.240 . S
Cd584 O592 2.223 . S
Cd584 O594 2.297 . S
Cd584 O595 2.439 . S
O585 Cd584 2.240 . S
O585 C590 1.279 . S
O586 Cd583 2.297 . S
O586 C588 1.247 . S
O587 Cd583 2.439 . S
O587 C588 1.208 . S
C588 O586 1.247 . S
C588 O587 1.208 . S
C589 O594 1.247 . S
C589 O595 1.208 . S
C590 O582 1.315 . S
C590 O585 1.279 . S
C591 O592 1.315 . S
C591 O593 1.279 . S
O592 Cd584 2.223 . S
O592 C591 1.315 . S
O593 Cd583 2.240 . S
O593 C591 1.279 . S
O594 Cd584 2.297 . S
O594 C589 1.247 . S
O595 Cd584 2.439 . S
O595 C589 1.208 . S
O596 Cd597 2.223 . S
O596 C604 1.315 . S
Cd597 O596 2.223 . S
Cd597 O600 2.297 . S
Cd597 O601 2.439 . S
Cd597 O607 2.240 . S
Cd598 O599 2.240 . S
Cd598 O606 2.223 . S
Cd598 O608 2.297 . S
Cd598 O609 2.439 . S
O599 Cd598 2.240 . S
O599 C604 1.279 . S
O600 Cd597 2.297 . S
O600 C602 1.247 . S
O601 Cd597 2.439 . S
O601 C602 1.208 . S
C602 O600 1.247 . S
C602 O601 1.208 . S
C603 O608 1.247 . S
C603 O609 1.208 . S
C604 O596 1.315 . S
C604 O599 1.279 . S
C605 O606 1.315 . S
C605 O607 1.279 . S
O606 Cd598 2.223 . S
O606 C605 1.315 . S
O607 Cd597 2.240 . S
O607 C605 1.279 . S
O608 Cd598 2.297 . S
O608 C603 1.247 . S
O609 Cd598 2.439 . S
O609 C603 1.208 . S
O610 Cd611 2.223 1_545 S
O610 C618 1.315 . S
Cd611 O610 2.223 1_565 S
Cd611 O614 2.297 . S
Cd611 O615 2.439 . S
Cd611 O621 2.240 1_565 S
Cd612 O613 2.240 . S
Cd612 O620 2.223 . S
Cd612 O622 2.297 . S
Cd612 O623 2.439 1_545 S
O613 Cd612 2.240 . S
O613 C618 1.279 . S
O614 Cd611 2.297 . S
O614 C616 1.247 . S
O615 Cd611 2.439 . S
O615 C616 1.208 . S
C616 O614 1.247 . S
C616 O615 1.208 . S
C617 O622 1.247 1_565 S
C617 O623 1.208 . S
C618 O610 1.315 . S
C618 O613 1.279 . S
C619 O620 1.315 . S
C619 O621 1.279 . S
O620 Cd612 2.223 . S
O620 C619 1.315 . S
O621 Cd611 2.240 1_545 S
O621 C619 1.279 . S
O622 Cd612 2.297 . S
O622 C617 1.247 1_545 S
O623 Cd612 2.439 1_565 S
O623 C617 1.208 . S
O624 Cd625 2.223 . S
O624 C632 1.315 . S
Cd625 O624 2.223 . S
Cd625 O628 2.297 1_655 S
Cd625 O629 2.439 1_655 S
Cd625 O635 2.240 . S
Cd626 O627 2.240 . S
Cd626 O634 2.223 1_455 S
Cd626 O636 2.297 . S
Cd626 O637 2.439 . S
O627 Cd626 2.240 . S
O627 C632 1.279 1_455 S
O628 Cd625 2.297 1_455 S
O628 C630 1.247 . S
O629 Cd625 2.439 1_455 S
O629 C630 1.208 . S
C630 O628 1.247 . S
C630 O629 1.208 . S
C631 O636 1.247 . S
C631 O637 1.208 . S
C632 O624 1.315 . S
C632 O627 1.279 1_655 S
C633 O634 1.315 . S
C633 O635 1.279 . S
O634 Cd626 2.223 1_655 S
O634 C633 1.315 . S
O635 Cd625 2.240 . S
O635 C633 1.279 . S
O636 Cd626 2.297 . S
O636 C631 1.247 . S
O637 Cd626 2.439 . S
O637 C631 1.208 . S
O638 Cd639 2.223 . S
O638 C646 1.315 . S
Cd639 O638 2.223 . S
Cd639 O642 2.297 . S
Cd639 O643 2.439 . S
Cd639 O649 2.240 . S
Cd640 O641 2.240 . S
Cd640 O648 2.223 . S
Cd640 O650 2.297 . S
Cd640 O651 2.439 . S
O641 Cd640 2.240 . S
O641 C646 1.279 . S
O642 Cd639 2.297 . S
O642 C644 1.247 . S
O643 Cd639 2.439 . S
O643 C644 1.208 . S
C644 O642 1.247 . S
C644 O643 1.208 . S
C645 O650 1.247 . S
C645 O651 1.208 . S
C646 O638 1.315 . S
C646 O641 1.279 . S
C647 O648 1.315 . S
C647 O649 1.279 . S
O648 Cd640 2.223 . S
O648 C647 1.315 . S
O649 Cd639 2.240 . S
O649 C647 1.279 . S
O650 Cd640 2.297 . S
O650 C645 1.247 . S
O651 Cd640 2.439 . S
O651 C645 1.208 . S
O652 Cd653 2.223 1_655 S
O652 C660 1.315 . S
Cd653 O652 2.223 1_455 S
Cd653 O656 2.297 . S
Cd653 O657 2.439 . S
Cd653 O663 2.240 . S
Cd654 O655 2.240 . S
Cd654 O662 2.223 . S
Cd654 O664 2.297 1_655 S
Cd654 O665 2.439 1_655 S
O655 Cd654 2.240 . S
O655 C660 1.279 . S
O656 Cd653 2.297 . S
O656 C658 1.247 . S
O657 Cd653 2.439 . S
O657 C658 1.208 . S
C658 O656 1.247 . S
C658 O657 1.208 . S
C659 O664 1.247 . S
C659 O665 1.208 . S
C660 O652 1.315 . S
C660 O655 1.279 . S
C661 O662 1.315 . S
C661 O663 1.279 1_655 S
O662 Cd654 2.223 . S
O662 C661 1.315 . S
O663 Cd653 2.240 . S
O663 C661 1.279 1_455 S
O664 Cd654 2.297 1_455 S
O664 C659 1.247 . S
O665 Cd654 2.439 1_455 S
O665 C659 1.208 . S
O666 Cd667 2.223 . S
O666 C674 1.315 . S
Cd667 O666 2.223 . S
Cd667 O670 2.297 . S
Cd667 O671 2.439 . S
Cd667 O677 2.240 . S
Cd668 O669 2.240 . S
Cd668 O676 2.223 . S
Cd668 O678 2.297 . S
Cd668 O679 2.439 . S
O669 Cd668 2.240 . S
O669 C674 1.279 . S
O670 Cd667 2.297 . S
O670 C672 1.247 . S
O671 Cd667 2.439 . S
O671 C672 1.208 . S
C672 O670 1.247 . S
C672 O671 1.208 . S
C673 O678 1.247 . S
C673 O679 1.208 . S
C674 O666 1.315 . S
C674 O669 1.279 . S
C675 O676 1.315 . S
C675 O677 1.279 . S
O676 Cd668 2.223 . S
O676 C675 1.315 . S
O677 Cd667 2.240 . S
O677 C675 1.279 . S
O678 Cd668 2.297 . S
O678 C673 1.247 . S
O679 Cd668 2.439 . S
O679 C673 1.208 . S
H680 C686 0.930 . S
H681 C690 0.930 1_554 S
H682 C695 0.929 . S
H683 C693 0.929 . S
H684 C688 0.929 . S
H685 C694 0.929 . S
C686 H680 0.930 . S
C686 C687 1.367 . S
C686 C694 1.378 . S
C687 C686 1.367 . S
C687 C695 1.433 . S
C688 H684 0.929 . S
C688 C690 1.378 . S
C688 C692 1.350 . S
C689 C692 1.463 . S
C689 C694 1.350 . S
C689 N697 1.427 . S
C690 H681 0.930 1_556 S
C690 C688 1.378 . S
C690 C691 1.367 . S
C691 C690 1.367 . S
C691 C693 1.433 . S
C692 C688 1.350 . S
C692 C689 1.463 . S
C692 N696 1.427 . S
C693 H683 0.929 . S
C693 C691 1.433 . S
C693 N696 1.384 . S
C694 H685 0.929 . S
C694 C686 1.378 . S
C694 C689 1.350 . S
C695 H682 0.929 . S
C695 C687 1.433 . S
C695 N697 1.384 . S
N696 C692 1.427 . S
N696 C693 1.384 . S
N697 C689 1.427 . S
N697 C695 1.384 . S
H698 C704 0.930 . S
H699 C708 0.930 . S
H700 C713 0.929 . S
H701 C711 0.929 . S
H702 C706 0.929 . S
H703 C712 0.929 . S
C704 H698 0.930 . S
C704 C705 1.367 . S
C704 C712 1.378 1_655 S
C705 C704 1.367 . S
C705 C713 1.433 . S
C706 H702 0.929 . S
C706 C708 1.378 . S
C706 C710 1.350 . S
C707 C710 1.463 . S
C707 C712 1.350 . S
C707 N715 1.427 . S
C708 H699 0.930 . S
C708 C706 1.378 . S
C708 C709 1.367 . S
C709 C708 1.367 . S
C709 C711 1.433 . S
C710 C706 1.350 . S
C710 C707 1.463 . S
C710 N714 1.427 . S
C711 H701 0.929 . S
C711 C709 1.433 . S
C711 N714 1.384 . S
C712 H703 0.929 . S
C712 C704 1.378 1_455 S
C712 C707 1.350 . S
C713 H700 0.929 . S
C713 C705 1.433 . S
C713 N715 1.384 1_655 S
N714 C710 1.427 . S
N714 C711 1.384 . S
N715 C707 1.427 . S
N715 C713 1.384 1_455 S
H716 C722 0.930 . S
H717 C726 0.930 . S
H718 C731 0.929 . S
H719 C729 0.929 . S
H720 C724 0.929 . S
H721 C730 0.929 . S
C722 H716 0.930 . S
C722 C723 1.367 . S
C722 C730 1.378 . S
C723 C722 1.367 . S
C723 C731 1.433 . S
C724 H720 0.929 . S
C724 C726 1.378 . S
C724 C728 1.350 . S
C725 C728 1.463 . S
C725 C730 1.350 . S
C725 N733 1.427 . S
C726 H717 0.930 . S
C726 C724 1.378 . S
C726 C727 1.367 . S
C727 C726 1.367 . S
C727 C729 1.433 . S
C728 C724 1.350 . S
C728 C725 1.463 . S
C728 N732 1.427 . S
C729 H719 0.929 . S
C729 C727 1.433 . S
C729 N732 1.384 . S
C730 H721 0.929 . S
C730 C722 1.378 . S
C730 C725 1.350 . S
C731 H718 0.929 . S
C731 C723 1.433 . S
C731 N733 1.384 . S
N732 C728 1.427 . S
N732 C729 1.384 . S
N733 C725 1.427 . S
N733 C731 1.384 . S
H734 C740 0.930 . S
H735 C744 0.930 . S
H736 C749 0.929 . S
H737 C747 0.929 . S
H738 C742 0.929 . S
H739 C748 0.929 . S
C740 H734 0.930 . S
C740 C741 1.367 . S
C740 C748 1.378 1_455 S
C741 C740 1.367 . S
C741 C749 1.433 . S
C742 H738 0.929 . S
C742 C744 1.378 . S
C742 C746 1.350 . S
C743 C746 1.463 1_565 S
C743 C748 1.350 . S
C743 N751 1.427 . S
C744 H735 0.930 . S
C744 C742 1.378 . S
C744 C745 1.367 . S
C745 C744 1.367 . S
C745 C747 1.433 . S
C746 C742 1.350 . S
C746 C743 1.463 1_545 S
C746 N750 1.427 1_545 S
C747 H737 0.929 . S
C747 C745 1.433 . S
C747 N750 1.384 1_545 S
C748 H739 0.929 . S
C748 C740 1.378 1_655 S
C748 C743 1.350 . S
C749 H736 0.929 . S
C749 C741 1.433 . S
C749 N751 1.384 1_455 S
N750 C746 1.427 1_565 S
N750 C747 1.384 1_565 S
N751 C743 1.427 . S
N751 C749 1.384 1_655 S
H752 C758 0.930 . S
H753 C762 0.930 . S
H754 C767 0.929 . S
H755 C765 0.929 . S
H756 C760 0.929 . S
H757 C766 0.929 . S
C758 H752 0.930 . S
C758 C759 1.367 . S
C758 C766 1.378 . S
C759 C758 1.367 . S
C759 C767 1.433 . S
C760 H756 0.929 . S
C760 C762 1.378 . S
C760 C764 1.350 . S
C761 C764 1.463 . S
C761 C766 1.350 . S
C761 N769 1.427 . S
C762 H753 0.930 . S
C762 C760 1.378 . S
C762 C763 1.367 . S
C763 C762 1.367 . S
C763 C765 1.433 . S
C764 C760 1.350 . S
C764 C761 1.463 . S
C764 N768 1.427 . S
C765 H755 0.929 . S
C765 C763 1.433 . S
C765 N768 1.384 . S
C766 H757 0.929 . S
C766 C758 1.378 . S
C766 C761 1.350 . S
C767 H754 0.929 . S
C767 C759 1.433 . S
C767 N769 1.384 . S
N768 C764 1.427 . S
N768 C765 1.384 . S
N769 C761 1.427 . S
N769 C767 1.384 . S
H770 C776 0.930 . S
H771 C780 0.930 . S
H772 C785 0.929 . S
H773 C783 0.929 . S
H774 C778 0.929 . S
H775 C784 0.929 . S
C776 H770 0.930 . S
C776 C777 1.367 . S
C776 C784 1.378 . S
C777 C776 1.367 . S
C777 C785 1.433 . S
C778 H774 0.929 . S
C778 C780 1.378 . S
C778 C782 1.350 . S
C779 C782 1.463 . S
C779 C784 1.350 . S
C779 N787 1.427 . S
C780 H771 0.930 . S
C780 C778 1.378 . S
C780 C781 1.367 . S
C781 C780 1.367 . S
C781 C783 1.433 . S
C782 C778 1.350 . S
C782 C779 1.463 . S
C782 N786 1.427 . S
C783 H773 0.929 . S
C783 C781 1.433 . S
C783 N786 1.384 . S
C784 H775 0.929 . S
C784 C776 1.378 . S
C784 C779 1.350 . S
C785 H772 0.929 . S
C785 C777 1.433 . S
C785 N787 1.384 . S
N786 C782 1.427 . S
N786 C783 1.384 . S
N787 C779 1.427 . S
N787 C785 1.384 . S
H788 C794 0.930 . S
H789 C798 0.930 . S
H790 C803 0.929 . S
H791 C801 0.929 . S
H792 C796 0.929 . S
H793 C802 0.929 . S
C794 H788 0.930 . S
C794 C795 1.367 . S
C794 C802 1.378 . S
C795 C794 1.367 . S
C795 C803 1.433 . S
C796 H792 0.929 . S
C796 C798 1.378 . S
C796 C800 1.350 . S
C797 C800 1.463 . S
C797 C802 1.350 . S
C797 N805 1.427 . S
C798 H789 0.930 . S
C798 C796 1.378 . S
C798 C799 1.367 . S
C799 C798 1.367 . S
C799 C801 1.433 . S
C800 C796 1.350 . S
C800 C797 1.463 . S
C800 N804 1.427 . S
C801 H791 0.929 . S
C801 C799 1.433 . S
C801 N804 1.384 . S
C802 H793 0.929 . S
C802 C794 1.378 . S
C802 C797 1.350 . S
C803 H790 0.929 . S
C803 C795 1.433 . S
C803 N805 1.384 . S
N804 C800 1.427 . S
N804 C801 1.384 . S
N805 C797 1.427 . S
N805 C803 1.384 . S
H806 C812 0.930 . S
H807 C816 0.930 . S
H808 C821 0.929 . S
H809 C819 0.929 . S
H810 C814 0.929 . S
H811 C820 0.929 . S
C812 H806 0.930 . S
C812 C813 1.367 . S
C812 C820 1.378 . S
C813 C812 1.367 . S
C813 C821 1.433 . S
C814 H810 0.929 . S
C814 C816 1.378 . S
C814 C818 1.350 . S
C815 C818 1.463 . S
C815 C820 1.350 . S
C815 N823 1.427 . S
C816 H807 0.930 . S
C816 C814 1.378 . S
C816 C817 1.367 . S
C817 C816 1.367 . S
C817 C819 1.433 . S
C818 C814 1.350 . S
C818 C815 1.463 . S
C818 N822 1.427 . S
C819 H809 0.929 . S
C819 C817 1.433 . S
C819 N822 1.384 . S
C820 H811 0.929 . S
C820 C812 1.378 . S
C820 C815 1.350 . S
C821 H808 0.929 . S
C821 C813 1.433 . S
C821 N823 1.384 . S
N822 C818 1.427 . S
N822 C819 1.384 . S
N823 C815 1.427 . S
N823 C821 1.384 . S
H824 C830 0.930 . S
H825 C834 0.930 . S
H826 C839 0.929 . S
H827 C837 0.929 . S
H828 C832 0.929 . S
H829 C838 0.929 . S
C830 H824 0.930 . S
C830 C831 1.367 . S
C830 C838 1.378 . S
C831 C830 1.367 . S
C831 C839 1.433 . S
C832 H828 0.929 . S
C832 C834 1.378 . S
C832 C836 1.350 . S
C833 C836 1.463 . S
C833 C838 1.350 . S
C833 N841 1.427 . S
C834 H825 0.930 . S
C834 C832 1.378 . S
C834 C835 1.367 . S
C835 C834 1.367 . S
C835 C837 1.433 . S
C836 C832 1.350 . S
C836 C833 1.463 . S
C836 N840 1.427 . S
C837 H827 0.929 . S
C837 C835 1.433 . S
C837 N840 1.384 . S
C838 H829 0.929 . S
C838 C830 1.378 . S
C838 C833 1.350 . S
C839 H826 0.929 . S
C839 C831 1.433 . S
C839 N841 1.384 . S
N840 C836 1.427 . S
N840 C837 1.384 . S
N841 C833 1.427 . S
N841 C839 1.384 . S
H842 C848 0.930 . S
H843 C852 0.930 . S
H844 C857 0.929 . S
H845 C855 0.929 . S
H846 C850 0.929 . S
H847 C856 0.929 . S
C848 H842 0.930 . S
C848 C849 1.367 . S
C848 C856 1.378 . S
C849 C848 1.367 . S
C849 C857 1.433 . S
C850 H846 0.929 . S
C850 C852 1.378 . S
C850 C854 1.350 . S
C851 C854 1.463 . S
C851 C856 1.350 . S
C851 N859 1.427 . S
C852 H843 0.930 . S
C852 C850 1.378 . S
C852 C853 1.367 . S
C853 C852 1.367 . S
C853 C855 1.433 . S
C854 C850 1.350 . S
C854 C851 1.463 . S
C854 N858 1.427 . S
C855 H845 0.929 . S
C855 C853 1.433 . S
C855 N858 1.384 . S
C856 H847 0.929 . S
C856 C848 1.378 . S
C856 C851 1.350 . S
C857 H844 0.929 . S
C857 C849 1.433 . S
C857 N859 1.384 . S
N858 C854 1.427 . S
N858 C855 1.384 . S
N859 C851 1.427 . S
N859 C857 1.384 . S
H860 C866 0.930 . S
H861 C870 0.930 . S
H862 C875 0.929 . S
H863 C873 0.929 . S
H864 C868 0.929 . S
H865 C874 0.929 . S
C866 H860 0.930 . S
C866 C867 1.367 . S
C866 C874 1.378 . S
C867 C866 1.367 . S
C867 C875 1.433 . S
C868 H864 0.929 . S
C868 C870 1.378 . S
C868 C872 1.350 . S
C869 C872 1.463 . S
C869 C874 1.350 . S
C869 N877 1.427 . S
C870 H861 0.930 . S
C870 C868 1.378 . S
C870 C871 1.367 . S
C871 C870 1.367 . S
C871 C873 1.433 . S
C872 C868 1.350 . S
C872 C869 1.463 . S
C872 N876 1.427 . S
C873 H863 0.929 . S
C873 C871 1.433 . S
C873 N876 1.384 . S
C874 H865 0.929 . S
C874 C866 1.378 . S
C874 C869 1.350 . S
C875 H862 0.929 . S
C875 C867 1.433 . S
C875 N877 1.384 . S
N876 C872 1.427 . S
N876 C873 1.384 . S
N877 C869 1.427 . S
N877 C875 1.384 . S
H878 C884 0.930 . S
H879 C888 0.930 . S
H880 C893 0.929 . S
H881 C891 0.929 . S
H882 C886 0.929 . S
H883 C892 0.929 . S
C884 H878 0.930 . S
C884 C885 1.367 . S
C884 C892 1.378 . S
C885 C884 1.367 . S
C885 C893 1.433 . S
C886 H882 0.929 . S
C886 C888 1.378 . S
C886 C890 1.350 . S
C887 C890 1.463 . S
C887 C892 1.350 . S
C887 N895 1.427 . S
C888 H879 0.930 . S
C888 C886 1.378 . S
C888 C889 1.367 . S
C889 C888 1.367 . S
C889 C891 1.433 . S
C890 C886 1.350 . S
C890 C887 1.463 . S
C890 N894 1.427 . S
C891 H881 0.929 . S
C891 C889 1.433 . S
C891 N894 1.384 . S
C892 H883 0.929 . S
C892 C884 1.378 . S
C892 C887 1.350 . S
C893 H880 0.929 . S
C893 C885 1.433 . S
C893 N895 1.384 . S
N894 C890 1.427 . S
N894 C891 1.384 . S
N895 C887 1.427 . S
N895 C893 1.384 . S
H896 C902 0.930 . S
H897 C906 0.930 . S
H898 C911 0.929 . S
H899 C909 0.929 . S
H900 C904 0.929 . S
H901 C910 0.929 . S
C902 H896 0.930 . S
C902 C903 1.367 . S
C902 C910 1.378 . S
C903 C902 1.367 . S
C903 C911 1.433 . S
C904 H900 0.929 . S
C904 C906 1.378 . S
C904 C908 1.350 . S
C905 C908 1.463 . S
C905 C910 1.350 . S
C905 N913 1.427 . S
C906 H897 0.930 . S
C906 C904 1.378 . S
C906 C907 1.367 . S
C907 C906 1.367 . S
C907 C909 1.433 . S
C908 C904 1.350 . S
C908 C905 1.463 . S
C908 N912 1.427 . S
C909 H899 0.929 . S
C909 C907 1.433 . S
C909 N912 1.384 . S
C910 H901 0.929 . S
C910 C902 1.378 . S
C910 C905 1.350 . S
C911 H898 0.929 . S
C911 C903 1.433 . S
C911 N913 1.384 . S
N912 C908 1.427 . S
N912 C909 1.384 . S
N913 C905 1.427 . S
N913 C911 1.384 . S
H914 C920 0.930 . S
H915 C924 0.930 . S
H916 C929 0.929 . S
H917 C927 0.929 . S
H918 C922 0.929 . S
H919 C928 0.929 . S
C920 H914 0.930 . S
C920 C921 1.367 . S
C920 C928 1.378 . S
C921 C920 1.367 . S
C921 C929 1.433 . S
C922 H918 0.929 . S
C922 C924 1.378 . S
C922 C926 1.350 . S
C923 C926 1.463 . S
C923 C928 1.350 . S
C923 N931 1.427 . S
C924 H915 0.930 . S
C924 C922 1.378 . S
C924 C925 1.367 . S
C925 C924 1.367 . S
C925 C927 1.433 . S
C926 C922 1.350 . S
C926 C923 1.463 . S
C926 N930 1.427 . S
C927 H917 0.929 . S
C927 C925 1.433 . S
C927 N930 1.384 . S
C928 H919 0.929 . S
C928 C920 1.378 . S
C928 C923 1.350 . S
C929 H916 0.929 . S
C929 C921 1.433 . S
C929 N931 1.384 . S
N930 C926 1.427 . S
N930 C927 1.384 . S
N931 C923 1.427 . S
N931 C929 1.384 . S
H932 C938 0.930 . S
H933 C942 0.930 . S
H934 C947 0.929 . S
H935 C945 0.929 . S
H936 C940 0.929 . S
H937 C946 0.929 . S
C938 H932 0.930 . S
C938 C939 1.367 . S
C938 C946 1.378 . S
C939 C938 1.367 . S
C939 C947 1.433 . S
C940 H936 0.929 . S
C940 C942 1.378 . S
C940 C944 1.350 . S
C941 C944 1.463 . S
C941 C946 1.350 . S
C941 N949 1.427 . S
C942 H933 0.930 . S
C942 C940 1.378 . S
C942 C943 1.367 . S
C943 C942 1.367 . S
C943 C945 1.433 . S
C944 C940 1.350 . S
C944 C941 1.463 . S
C944 N948 1.427 . S
C945 H935 0.929 . S
C945 C943 1.433 . S
C945 N948 1.384 . S
C946 H937 0.929 . S
C946 C938 1.378 . S
C946 C941 1.350 . S
C947 H934 0.929 . S
C947 C939 1.433 . S
C947 N949 1.384 . S
N948 C944 1.427 . S
N948 C945 1.384 . S
N949 C941 1.427 . S
N949 C947 1.384 . S
H950 C956 0.930 . S
H951 C960 0.930 . S
H952 C965 0.929 . S
H953 C963 0.929 . S
H954 C958 0.929 . S
H955 C964 0.929 . S
C956 H950 0.930 . S
C956 C957 1.367 . S
C956 C964 1.378 . S
C957 C956 1.367 . S
C957 C965 1.433 . S
C958 H954 0.929 . S
C958 C960 1.378 . S
C958 C962 1.350 . S
C959 C962 1.463 . S
C959 C964 1.350 . S
C959 N967 1.427 . S
C960 H951 0.930 . S
C960 C958 1.378 . S
C960 C961 1.367 . S
C961 C960 1.367 . S
C961 C963 1.433 . S
C962 C958 1.350 . S
C962 C959 1.463 . S
C962 N966 1.427 . S
C963 H953 0.929 . S
C963 C961 1.433 . S
C963 N966 1.384 . S
C964 H955 0.929 . S
C964 C956 1.378 . S
C964 C959 1.350 . S
C965 H952 0.929 . S
C965 C957 1.433 . S
C965 N967 1.384 . S
N966 C962 1.427 . S
N966 C963 1.384 . S
N967 C959 1.427 . S
N967 C965 1.384 . S
H968 C974 0.930 . S
H969 C978 0.930 . S
H970 C983 0.929 . S
H971 C981 0.929 . S
H972 C976 0.929 . S
H973 C982 0.929 . S
C974 H968 0.930 . S
C974 C975 1.367 . S
C974 C982 1.378 . S
C975 C974 1.367 . S
C975 C983 1.433 . S
C976 H972 0.929 . S
C976 C978 1.378 1_565 S
C976 C980 1.350 . S
C977 C980 1.463 . S
C977 C982 1.350 . S
C977 N985 1.427 . S
C978 H969 0.930 . S
C978 C976 1.378 1_545 S
C978 C979 1.367 1_545 S
C979 C978 1.367 1_565 S
C979 C981 1.433 . S
C980 C976 1.350 . S
C980 C977 1.463 . S
C980 N984 1.427 . S
C981 H971 0.929 . S
C981 C979 1.433 . S
C981 N984 1.384 . S
C982 H973 0.929 . S
C982 C974 1.378 . S
C982 C977 1.350 . S
C983 H970 0.929 . S
C983 C975 1.433 . S
C983 N985 1.384 . S
N984 C980 1.427 . S
N984 C981 1.384 . S
N985 C977 1.427 . S
N985 C983 1.384 . S
H986 C992 0.930 . S
H987 C996 0.930 . S
H988 C1001 0.929 . S
H989 C999 0.929 . S
H990 C994 0.929 . S
H991 C1000 0.929 . S
C992 H986 0.930 . S
C992 C993 1.367 . S
C992 C1000 1.378 . S
C993 C992 1.367 . S
C993 C1001 1.433 . S
C994 H990 0.929 . S
C994 C996 1.378 . S
C994 C998 1.350 . S
C995 C998 1.463 . S
C995 C1000 1.350 . S
C995 N1003 1.427 . S
C996 H987 0.930 . S
C996 C994 1.378 . S
C996 C997 1.367 . S
C997 C996 1.367 . S
C997 C999 1.433 . S
C998 C994 1.350 . S
C998 C995 1.463 . S
C998 N1002 1.427 . S
C999 H989 0.929 . S
C999 C997 1.433 . S
C999 N1002 1.384 . S
C1000 H991 0.929 . S
C1000 C992 1.378 . S
C1000 C995 1.350 . S
C1001 H988 0.929 . S
C1001 C993 1.433 . S
C1001 N1003 1.384 . S
N1002 C998 1.427 . S
N1002 C999 1.384 . S
N1003 C995 1.427 . S
N1003 C1001 1.384 . S
H1004 C1010 0.930 . S
H1005 C1014 0.930 . S
H1006 C1019 0.929 . S
H1007 C1017 0.929 . S
H1008 C1012 0.929 1_545 S
H1009 C1018 0.929 . S
C1010 H1004 0.930 . S
C1010 C1011 1.367 . S
C1010 C1018 1.378 1_545 S
C1011 C1010 1.367 . S
C1011 C1019 1.433 . S
C1012 H1008 0.929 1_565 S
C1012 C1014 1.378 . S
C1012 C1016 1.350 1_554 S
C1013 C1016 1.463 1_545 S
C1013 C1018 1.350 1_545 S
C1013 N1021 1.427 . S
C1014 H1005 0.930 . S
C1014 C1012 1.378 . S
C1014 C1015 1.367 . S
C1015 C1014 1.367 . S
C1015 C1017 1.433 . S
C1016 C1012 1.350 1_556 S
C1016 C1013 1.463 1_565 S
C1016 N1020 1.427 . S
C1017 H1007 0.929 . S
C1017 C1015 1.433 . S
C1017 N1020 1.384 1_554 S
C1018 H1009 0.929 . S
C1018 C1010 1.378 1_565 S
C1018 C1013 1.350 1_565 S
C1019 H1006 0.929 . S
C1019 C1011 1.433 . S
C1019 N1021 1.384 . S
N1020 C1016 1.427 . S
N1020 C1017 1.384 1_556 S
N1021 C1013 1.427 . S
N1021 C1019 1.384 . S
H1022 C1028 0.930 . S
H1023 C1032 0.930 . S
H1024 C1037 0.929 . S
H1025 C1035 0.929 . S
H1026 C1030 0.929 . S
H1027 C1036 0.929 . S
C1028 H1022 0.930 . S
C1028 C1029 1.367 . S
C1028 C1036 1.378 . S
C1029 C1028 1.367 . S
C1029 C1037 1.433 . S
C1030 H1026 0.929 . S
C1030 C1032 1.378 . S
C1030 C1034 1.350 . S
C1031 C1034 1.463 . S
C1031 C1036 1.350 . S
C1031 N1039 1.427 . S
C1032 H1023 0.930 . S
C1032 C1030 1.378 . S
C1032 C1033 1.367 . S
C1033 C1032 1.367 . S
C1033 C1035 1.433 . S
C1034 C1030 1.350 . S
C1034 C1031 1.463 . S
C1034 N1038 1.427 . S
C1035 H1025 0.929 . S
C1035 C1033 1.433 . S
C1035 N1038 1.384 . S
C1036 H1027 0.929 . S
C1036 C1028 1.378 . S
C1036 C1031 1.350 . S
C1037 H1024 0.929 . S
C1037 C1029 1.433 . S
C1037 N1039 1.384 . S
N1038 C1034 1.427 . S
N1038 C1035 1.384 . S
N1039 C1031 1.427 . S
N1039 C1037 1.384 . S
H1040 C1046 0.930 . S
H1041 C1050 0.930 . S
H1042 C1055 0.929 . S
H1043 C1053 0.929 . S
H1044 C1048 0.929 . S
H1045 C1054 0.929 . S
C1046 H1040 0.930 . S
C1046 C1047 1.367 . S
C1046 C1054 1.378 . S
C1047 C1046 1.367 . S
C1047 C1055 1.433 . S
C1048 H1044 0.929 . S
C1048 C1050 1.378 . S
C1048 C1052 1.350 . S
C1049 C1052 1.463 . S
C1049 C1054 1.350 . S
C1049 N1057 1.427 . S
C1050 H1041 0.930 . S
C1050 C1048 1.378 . S
C1050 C1051 1.367 . S
C1051 C1050 1.367 . S
C1051 C1053 1.433 . S
C1052 C1048 1.350 . S
C1052 C1049 1.463 . S
C1052 N1056 1.427 . S
C1053 H1043 0.929 . S
C1053 C1051 1.433 . S
C1053 N1056 1.384 . S
C1054 H1045 0.929 . S
C1054 C1046 1.378 . S
C1054 C1049 1.350 . S
C1055 H1042 0.929 . S
C1055 C1047 1.433 . S
C1055 N1057 1.384 . S
N1056 C1052 1.427 . S
N1056 C1053 1.384 . S
N1057 C1049 1.427 . S
N1057 C1055 1.384 . S
H1058 C1064 0.930 . S
H1059 C1068 0.930 . S
H1060 C1073 0.929 . S
H1061 C1071 0.929 . S
H1062 C1066 0.929 . S
H1063 C1072 0.929 . S
C1064 H1058 0.930 . S
C1064 C1065 1.367 . S
C1064 C1072 1.378 . S
C1065 C1064 1.367 . S
C1065 C1073 1.433 . S
C1066 H1062 0.929 . S
C1066 C1068 1.378 . S
C1066 C1070 1.350 . S
C1067 C1070 1.463 . S
C1067 C1072 1.350 . S
C1067 N1075 1.427 . S
C1068 H1059 0.930 . S
C1068 C1066 1.378 . S
C1068 C1069 1.367 . S
C1069 C1068 1.367 . S
C1069 C1071 1.433 . S
C1070 C1066 1.350 . S
C1070 C1067 1.463 . S
C1070 N1074 1.427 . S
C1071 H1061 0.929 . S
C1071 C1069 1.433 . S
C1071 N1074 1.384 . S
C1072 H1063 0.929 . S
C1072 C1064 1.378 . S
C1072 C1067 1.350 . S
C1073 H1060 0.929 . S
C1073 C1065 1.433 . S
C1073 N1075 1.384 . S
N1074 C1070 1.427 . S
N1074 C1071 1.384 . S
N1075 C1067 1.427 . S
N1075 C1073 1.384 . S
H1076 C1082 0.930 . S
H1077 C1086 0.930 . S
H1078 C1091 0.925 1_565 S
H1079 C1089 0.929 . S
H1080 C1084 0.929 . S
H1081 C1090 0.929 . S
C1082 H1076 0.930 . S
C1082 C1083 1.367 . S
C1082 C1090 1.378 1_565 S
C1083 C1082 1.367 . S
C1083 C1091 1.433 1_565 S
C1084 H1080 0.929 . S
C1084 C1086 1.378 . S
C1084 C1088 1.350 . S
C1085 C1088 1.463 . S
C1085 C1090 1.350 . S
C1085 N1093 1.427 . S
C1086 H1077 0.930 . S
C1086 C1084 1.378 . S
C1086 C1087 1.367 . S
C1087 C1086 1.367 . S
C1087 C1089 1.433 . S
C1088 C1084 1.350 . S
C1088 C1085 1.463 . S
C1088 N1092 1.427 . S
C1089 H1079 0.929 . S
C1089 C1087 1.433 . S
C1089 N1092 1.384 . S
C1090 H1081 0.929 . S
C1090 C1082 1.378 1_545 S
C1090 C1085 1.350 . S
C1091 H1078 0.925 1_545 S
C1091 C1083 1.433 1_545 S
C1091 N1093 1.384 . S
N1092 C1088 1.427 . S
N1092 C1089 1.384 . S
N1093 C1085 1.427 . S
N1093 C1091 1.384 . S
H1094 C1100 0.930 . S
H1095 C1104 0.930 . S
H1096 C1109 0.929 . S
H1097 C1107 0.929 . S
H1098 C1102 0.929 . S
H1099 C1108 0.929 . S
C1100 H1094 0.930 . S
C1100 C1101 1.367 . S
C1100 C1108 1.378 . S
C1101 C1100 1.367 . S
C1101 C1109 1.433 . S
C1102 H1098 0.929 . S
C1102 C1104 1.378 . S
C1102 C1106 1.350 . S
C1103 C1106 1.463 . S
C1103 C1108 1.350 . S
C1103 N1111 1.427 . S
C1104 H1095 0.930 . S
C1104 C1102 1.378 . S
C1104 C1105 1.367 . S
C1105 C1104 1.367 . S
C1105 C1107 1.433 . S
C1106 C1102 1.350 . S
C1106 C1103 1.463 . S
C1106 N1110 1.427 . S
C1107 H1097 0.929 . S
C1107 C1105 1.433 . S
C1107 N1110 1.384 . S
C1108 H1099 0.929 . S
C1108 C1100 1.378 . S
C1108 C1103 1.350 . S
C1109 H1096 0.929 . S
C1109 C1101 1.433 . S
C1109 N1111 1.384 . S
N1110 C1106 1.427 . S
N1110 C1107 1.384 . S
N1111 C1103 1.427 . S
N1111 C1109 1.384 . S
H1112 C1118 0.930 . S
H1113 C1122 0.930 . S
H1114 C1127 0.929 . S
H1115 C1125 0.929 . S
H1116 C1120 0.929 . S
H1117 C1126 0.929 . S
C1118 H1112 0.930 . S
C1118 C1119 1.367 . S
C1118 C1126 1.378 . S
C1119 C1118 1.367 . S
C1119 C1127 1.433 . S
C1120 H1116 0.929 . S
C1120 C1122 1.378 . S
C1120 C1124 1.350 . S
C1121 C1124 1.463 . S
C1121 C1126 1.350 . S
C1121 N1129 1.427 . S
C1122 H1113 0.930 . S
C1122 C1120 1.378 . S
C1122 C1123 1.367 . S
C1123 C1122 1.367 . S
C1123 C1125 1.433 . S
C1124 C1120 1.350 . S
C1124 C1121 1.463 . S
C1124 N1128 1.427 . S
C1125 H1115 0.929 . S
C1125 C1123 1.433 . S
C1125 N1128 1.384 . S
C1126 H1117 0.929 . S
C1126 C1118 1.378 . S
C1126 C1121 1.350 . S
C1127 H1114 0.929 . S
C1127 C1119 1.433 . S
C1127 N1129 1.384 . S
N1128 C1124 1.427 . S
N1128 C1125 1.384 . S
N1129 C1121 1.427 . S
N1129 C1127 1.384 . S
H1130 C1136 0.930 . S
H1131 C1140 0.930 . S
H1132 C1145 0.929 . S
H1133 C1143 0.929 . S
H1134 C1138 0.929 . S
H1135 C1144 0.929 . S
C1136 H1130 0.930 . S
C1136 C1137 1.367 . S
C1136 C1144 1.378 . S
C1137 C1136 1.367 . S
C1137 C1145 1.433 . S
C1138 H1134 0.929 . S
C1138 C1140 1.378 . S
C1138 C1142 1.350 . S
C1139 C1142 1.463 . S
C1139 C1144 1.350 . S
C1139 N1147 1.427 . S
C1140 H1131 0.930 . S
C1140 C1138 1.378 . S
C1140 C1141 1.367 . S
C1141 C1140 1.367 . S
C1141 C1143 1.433 . S
C1142 C1138 1.350 . S
C1142 C1139 1.463 . S
C1142 N1146 1.427 . S
C1143 H1133 0.929 . S
C1143 C1141 1.433 . S
C1143 N1146 1.384 . S
C1144 H1135 0.929 . S
C1144 C1136 1.378 . S
C1144 C1139 1.350 . S
C1145 H1132 0.929 . S
C1145 C1137 1.433 . S
C1145 N1147 1.384 . S
N1146 C1142 1.427 . S
N1146 C1143 1.384 . S
N1147 C1139 1.427 . S
N1147 C1145 1.384 . S
H1148 C1154 0.930 . S
H1149 C1158 0.930 . S
H1150 C1163 0.929 . S
H1151 C1161 0.929 . S
H1152 C1156 0.929 . S
H1153 C1162 0.929 . S
C1154 H1148 0.930 . S
C1154 C1155 1.367 . S
C1154 C1162 1.378 . S
C1155 C1154 1.367 . S
C1155 C1163 1.433 . S
C1156 H1152 0.929 . S
C1156 C1158 1.378 . S
C1156 C1160 1.350 . S
C1157 C1160 1.463 . S
C1157 C1162 1.350 . S
C1157 N1165 1.427 . S
C1158 H1149 0.930 . S
C1158 C1156 1.378 . S
C1158 C1159 1.367 . S
C1159 C1158 1.367 . S
C1159 C1161 1.433 . S
C1160 C1156 1.350 . S
C1160 C1157 1.463 . S
C1160 N1164 1.427 . S
C1161 H1151 0.929 . S
C1161 C1159 1.433 . S
C1161 N1164 1.384 . S
C1162 H1153 0.929 . S
C1162 C1154 1.378 . S
C1162 C1157 1.350 . S
C1163 H1150 0.929 . S
C1163 C1155 1.433 . S
C1163 N1165 1.384 . S
N1164 C1160 1.427 . S
N1164 C1161 1.384 . S
N1165 C1157 1.427 . S
N1165 C1163 1.384 . S
H1166 C1172 0.930 . S
H1167 C1176 0.930 . S
H1168 C1181 0.929 . S
H1169 C1179 0.929 . S
H1170 C1174 0.929 . S
H1171 C1180 0.929 . S
C1172 H1166 0.930 . S
C1172 C1173 1.367 . S
C1172 C1180 1.378 . S
C1173 C1172 1.367 . S
C1173 C1181 1.433 . S
C1174 H1170 0.929 . S
C1174 C1176 1.378 . S
C1174 C1178 1.350 . S
C1175 C1178 1.463 . S
C1175 C1180 1.350 . S
C1175 N1183 1.427 . S
C1176 H1167 0.930 . S
C1176 C1174 1.378 . S
C1176 C1177 1.367 . S
C1177 C1176 1.367 . S
C1177 C1179 1.433 . S
C1178 C1174 1.350 . S
C1178 C1175 1.463 . S
C1178 N1182 1.427 . S
C1179 H1169 0.929 . S
C1179 C1177 1.433 . S
C1179 N1182 1.384 . S
C1180 H1171 0.929 . S
C1180 C1172 1.378 . S
C1180 C1175 1.350 . S
C1181 H1168 0.929 . S
C1181 C1173 1.433 . S
C1181 N1183 1.384 . S
N1182 C1178 1.427 . S
N1182 C1179 1.384 . S
N1183 C1175 1.427 . S
N1183 C1181 1.384 . S
H1184 C1190 0.930 . S
H1185 C1194 0.930 . S
H1186 C1199 0.929 . S
H1187 C1197 0.929 . S
H1188 C1192 0.929 . S
H1189 C1198 0.929 . S
C1190 H1184 0.930 . S
C1190 C1191 1.367 . S
C1190 C1198 1.378 . S
C1191 C1190 1.367 . S
C1191 C1199 1.433 . S
C1192 H1188 0.929 . S
C1192 C1194 1.378 . S
C1192 C1196 1.350 . S
C1193 C1196 1.463 . S
C1193 C1198 1.350 . S
C1193 N1201 1.427 . S
C1194 H1185 0.930 . S
C1194 C1192 1.378 . S
C1194 C1195 1.367 . S
C1195 C1194 1.367 . S
C1195 C1197 1.433 . S
C1196 C1192 1.350 . S
C1196 C1193 1.463 . S
C1196 N1200 1.427 . S
C1197 H1187 0.929 . S
C1197 C1195 1.433 . S
C1197 N1200 1.384 . S
C1198 H1189 0.929 . S
C1198 C1190 1.378 . S
C1198 C1193 1.350 . S
C1199 H1186 0.929 . S
C1199 C1191 1.433 . S
C1199 N1201 1.384 . S
N1200 C1196 1.427 . S
N1200 C1197 1.384 . S
N1201 C1193 1.427 . S
N1201 C1199 1.384 . S
H1202 C1208 0.930 . S
H1203 C1212 0.930 . S
H1204 C1217 0.929 . S
H1205 C1215 0.929 . S
H1206 C1210 0.929 . S
H1207 C1216 0.929 . S
C1208 H1202 0.930 . S
C1208 C1209 1.367 . S
C1208 C1216 1.378 . S
C1209 C1208 1.367 . S
C1209 C1217 1.433 . S
C1210 H1206 0.929 . S
C1210 C1212 1.378 . S
C1210 C1214 1.350 . S
C1211 C1214 1.463 1_455 S
C1211 C1216 1.350 . S
C1211 N1219 1.427 . S
C1212 H1203 0.930 . S
C1212 C1210 1.378 . S
C1212 C1213 1.367 . S
C1213 C1212 1.367 . S
C1213 C1215 1.433 . S
C1214 C1210 1.350 . S
C1214 C1211 1.463 1_655 S
C1214 N1218 1.427 . S
C1215 H1205 0.929 . S
C1215 C1213 1.433 . S
C1215 N1218 1.384 . S
C1216 H1207 0.929 . S
C1216 C1208 1.378 . S
C1216 C1211 1.350 . S
C1217 H1204 0.929 . S
C1217 C1209 1.433 . S
C1217 N1219 1.384 . S
N1218 C1214 1.427 . S
N1218 C1215 1.384 . S
N1219 C1211 1.427 . S
N1219 C1217 1.384 . S
H1220 C1226 0.930 . S
H1221 C1230 0.930 . S
H1222 C1235 0.929 . S
H1223 C1233 0.929 . S
H1224 C1228 0.929 . S
H1225 C1234 0.929 . S
C1226 H1220 0.930 . S
C1226 C1227 1.367 . S
C1226 C1234 1.378 . S
C1227 C1226 1.367 . S
C1227 C1235 1.433 . S
C1228 H1224 0.929 . S
C1228 C1230 1.378 . S
C1228 C1232 1.350 . S
C1229 C1232 1.463 . S
C1229 C1234 1.350 . S
C1229 N1237 1.427 . S
C1230 H1221 0.930 . S
C1230 C1228 1.378 . S
C1230 C1231 1.367 . S
C1231 C1230 1.367 . S
C1231 C1233 1.433 . S
C1232 C1228 1.350 . S
C1232 C1229 1.463 . S
C1232 N1236 1.427 . S
C1233 H1223 0.929 . S
C1233 C1231 1.433 . S
C1233 N1236 1.384 . S
C1234 H1225 0.929 . S
C1234 C1226 1.378 . S
C1234 C1229 1.350 . S
C1235 H1222 0.929 . S
C1235 C1227 1.433 . S
C1235 N1237 1.384 . S
N1236 C1232 1.427 . S
N1236 C1233 1.384 . S
N1237 C1229 1.427 . S
N1237 C1235 1.384 . S
H1238 C1244 0.930 . S
H1239 C1248 0.930 . S
H1240 C1253 0.929 . S
H1241 C1251 0.929 . S
H1242 C1246 0.929 . S
H1243 C1252 0.929 . S
C1244 H1238 0.930 . S
C1244 C1245 1.367 . S
C1244 C1252 1.378 . S
C1245 C1244 1.367 . S
C1245 C1253 1.433 . S
C1246 H1242 0.929 . S
C1246 C1248 1.378 . S
C1246 C1250 1.350 . S
C1247 C1250 1.463 1_655 S
C1247 C1252 1.350 . S
C1247 N1255 1.427 . S
C1248 H1239 0.930 . S
C1248 C1246 1.378 . S
C1248 C1249 1.367 . S
C1249 C1248 1.367 . S
C1249 C1251 1.433 . S
C1250 C1246 1.350 . S
C1250 C1247 1.463 1_455 S
C1250 N1254 1.427 . S
C1251 H1241 0.929 . S
C1251 C1249 1.433 . S
C1251 N1254 1.384 . S
C1252 H1243 0.929 . S
C1252 C1244 1.378 . S
C1252 C1247 1.350 . S
C1253 H1240 0.929 . S
C1253 C1245 1.433 . S
C1253 N1255 1.384 . S
N1254 C1250 1.427 . S
N1254 C1251 1.384 . S
N1255 C1247 1.427 . S
N1255 C1253 1.384 . S
H1256 C1262 0.930 . S
H1257 C1266 0.930 . S
H1258 C1271 0.929 . S
H1259 C1269 0.929 . S
H1260 C1264 0.929 . S
H1261 C1270 0.929 . S
C1262 H1256 0.930 . S
C1262 C1263 1.367 . S
C1262 C1270 1.378 . S
C1263 C1262 1.367 . S
C1263 C1271 1.433 . S
C1264 H1260 0.929 . S
C1264 C1266 1.378 . S
C1264 C1268 1.350 . S
C1265 C1268 1.463 . S
C1265 C1270 1.350 . S
C1265 N1273 1.427 . S
C1266 H1257 0.930 . S
C1266 C1264 1.378 . S
C1266 C1267 1.367 . S
C1267 C1266 1.367 . S
C1267 C1269 1.433 . S
C1268 C1264 1.350 . S
C1268 C1265 1.463 . S
C1268 N1272 1.427 . S
C1269 H1259 0.929 . S
C1269 C1267 1.433 . S
C1269 N1272 1.384 . S
C1270 H1261 0.929 . S
C1270 C1262 1.378 . S
C1270 C1265 1.350 . S
C1271 H1258 0.929 . S
C1271 C1263 1.433 . S
C1271 N1273 1.384 . S
N1272 C1268 1.427 . S
N1272 C1269 1.384 . S
N1273 C1265 1.427 . S
N1273 C1271 1.384 . S
H1274 C1280 0.930 . S
H1275 C1284 0.930 . S
H1276 C1289 0.929 . S
H1277 C1287 0.929 . S
H1278 C1282 0.929 . S
H1279 C1288 0.929 . S
C1280 H1274 0.930 . S
C1280 C1281 1.367 . S
C1280 C1288 1.378 1_554 S
C1281 C1280 1.367 . S
C1281 C1289 1.433 . S
C1282 H1278 0.929 . S
C1282 C1284 1.378 . S
C1282 C1286 1.350 . S
C1283 C1286 1.463 . S
C1283 C1288 1.350 . S
C1283 N1291 1.427 1_556 S
C1284 H1275 0.930 . S
C1284 C1282 1.378 . S
C1284 C1285 1.367 . S
C1285 C1284 1.367 . S
C1285 C1287 1.433 . S
C1286 C1282 1.350 . S
C1286 C1283 1.463 . S
C1286 N1290 1.427 . S
C1287 H1277 0.929 . S
C1287 C1285 1.433 . S
C1287 N1290 1.384 . S
C1288 H1279 0.929 . S
C1288 C1280 1.378 1_556 S
C1288 C1283 1.350 . S
C1289 H1276 0.929 . S
C1289 C1281 1.433 . S
C1289 N1291 1.384 . S
N1290 C1286 1.427 . S
N1290 C1287 1.384 . S
N1291 C1283 1.427 1_554 S
N1291 C1289 1.384 . S
H1292 C1298 0.930 . S
H1293 C1302 0.930 . S
H1294 C1307 0.929 . S
H1295 C1305 0.929 . S
H1296 C1300 0.929 . S
H1297 C1306 0.929 . S
C1298 H1292 0.930 . S
C1298 C1299 1.367 . S
C1298 C1306 1.378 . S
C1299 C1298 1.367 . S
C1299 C1307 1.433 . S
C1300 H1296 0.929 . S
C1300 C1302 1.378 . S
C1300 C1304 1.350 . S
C1301 C1304 1.463 . S
C1301 C1306 1.350 . S
C1301 N1309 1.427 . S
C1302 H1293 0.930 . S
C1302 C1300 1.378 . S
C1302 C1303 1.367 . S
C1303 C1302 1.367 . S
C1303 C1305 1.433 . S
C1304 C1300 1.350 . S
C1304 C1301 1.463 . S
C1304 N1308 1.427 . S
C1305 H1295 0.929 . S
C1305 C1303 1.433 . S
C1305 N1308 1.384 . S
C1306 H1297 0.929 . S
C1306 C1298 1.378 . S
C1306 C1301 1.350 . S
C1307 H1294 0.929 . S
C1307 C1299 1.433 . S
C1307 N1309 1.384 . S
N1308 C1304 1.427 . S
N1308 C1305 1.384 . S
N1309 C1301 1.427 . S
N1309 C1307 1.384 . S
H1310 C1316 0.930 . S
H1311 C1320 0.930 . S
H1312 C1325 0.929 . S
H1313 C1323 0.929 . S
H1314 C1318 0.929 1_554 S
H1315 C1324 0.929 . S
C1316 H1310 0.930 . S
C1316 C1317 1.367 . S
C1316 C1324 1.378 . S
C1317 C1316 1.367 . S
C1317 C1325 1.433 . S
C1318 H1314 0.929 1_556 S
C1318 C1320 1.378 . S
C1318 C1322 1.350 1_556 S
C1319 C1322 1.463 . S
C1319 C1324 1.350 . S
C1319 N1327 1.427 . S
C1320 H1311 0.930 . S
C1320 C1318 1.378 . S
C1320 C1321 1.367 . S
C1321 C1320 1.367 . S
C1321 C1323 1.433 . S
C1322 C1318 1.350 1_554 S
C1322 C1319 1.463 . S
C1322 N1326 1.427 1_554 S
C1323 H1313 0.929 . S
C1323 C1321 1.433 . S
C1323 N1326 1.384 . S
C1324 H1315 0.929 . S
C1324 C1316 1.378 . S
C1324 C1319 1.350 . S
C1325 H1312 0.929 . S
C1325 C1317 1.433 . S
C1325 N1327 1.384 . S
N1326 C1322 1.427 1_556 S
N1326 C1323 1.384 . S
N1327 C1319 1.427 . S
N1327 C1325 1.384 . S
H1328 C1334 0.930 . S
H1329 C1338 0.930 . S
H1330 C1343 0.929 . S
H1331 C1341 0.929 . S
H1332 C1336 0.929 . S
H1333 C1342 0.929 . S
C1334 H1328 0.930 . S
C1334 C1335 1.367 . S
C1334 C1342 1.378 . S
C1335 C1334 1.367 . S
C1335 C1343 1.433 . S
C1336 H1332 0.929 . S
C1336 C1338 1.378 . S
C1336 C1340 1.350 . S
C1337 C1340 1.463 . S
C1337 C1342 1.350 . S
C1337 N1345 1.427 . S
C1338 H1329 0.930 . S
C1338 C1336 1.378 . S
C1338 C1339 1.367 . S
C1339 C1338 1.367 . S
C1339 C1341 1.433 . S
C1340 C1336 1.350 . S
C1340 C1337 1.463 . S
C1340 N1344 1.427 . S
C1341 H1331 0.929 . S
C1341 C1339 1.433 . S
C1341 N1344 1.384 . S
C1342 H1333 0.929 . S
C1342 C1334 1.378 . S
C1342 C1337 1.350 . S
C1343 H1330 0.929 . S
C1343 C1335 1.433 . S
C1343 N1345 1.384 . S
N1344 C1340 1.427 . S
N1344 C1341 1.384 . S
N1345 C1337 1.427 . S
N1345 C1343 1.384 . S
H1346 C1352 0.930 . S
H1347 C1356 0.930 . S
H1348 C1361 0.929 . S
H1349 C1359 0.929 . S
H1350 C1354 0.929 . S
H1351 C1360 0.929 . S
C1352 H1346 0.930 . S
C1352 C1353 1.367 . S
C1352 C1360 1.378 1_556 S
C1353 C1352 1.367 . S
C1353 C1361 1.433 . S
C1354 H1350 0.929 . S
C1354 C1356 1.378 . S
C1354 C1358 1.350 . S
C1355 C1358 1.463 . S
C1355 C1360 1.350 . S
C1355 N1363 1.427 1_554 S
C1356 H1347 0.930 . S
C1356 C1354 1.378 . S
C1356 C1357 1.367 . S
C1357 C1356 1.367 . S
C1357 C1359 1.433 . S
C1358 C1354 1.350 . S
C1358 C1355 1.463 . S
C1358 N1362 1.427 . S
C1359 H1349 0.929 . S
C1359 C1357 1.433 . S
C1359 N1362 1.384 . S
C1360 H1351 0.929 . S
C1360 C1352 1.378 1_554 S
C1360 C1355 1.350 . S
C1361 H1348 0.929 . S
C1361 C1353 1.433 . S
C1361 N1363 1.384 . S
N1362 C1358 1.427 . S
N1362 C1359 1.384 . S
N1363 C1355 1.427 1_556 S
N1363 C1361 1.384 . S
H1364 C1370 0.930 . S
H1365 C1374 0.930 . S
H1366 C1379 0.929 . S
H1367 C1377 0.929 . S
H1368 C1372 0.929 . S
H1369 C1378 0.929 . S
C1370 H1364 0.930 . S
C1370 C1371 1.367 . S
C1370 C1378 1.378 . S
C1371 C1370 1.367 . S
C1371 C1379 1.433 . S
C1372 H1368 0.929 . S
C1372 C1374 1.378 . S
C1372 C1376 1.350 . S
C1373 C1376 1.463 . S
C1373 C1378 1.350 . S
C1373 N1381 1.427 . S
C1374 H1365 0.930 . S
C1374 C1372 1.378 . S
C1374 C1375 1.367 . S
C1375 C1374 1.367 . S
C1375 C1377 1.433 . S
C1376 C1372 1.350 . S
C1376 C1373 1.463 . S
C1376 N1380 1.427 . S
C1377 H1367 0.929 . S
C1377 C1375 1.433 . S
C1377 N1380 1.384 . S
C1378 H1369 0.929 . S
C1378 C1370 1.378 . S
C1378 C1373 1.350 . S
C1379 H1366 0.929 . S
C1379 C1371 1.433 . S
C1379 N1381 1.384 . S
N1380 C1376 1.427 . S
N1380 C1377 1.384 . S
N1381 C1373 1.427 . S
N1381 C1379 1.384 . S
H1382 C1388 0.906 1_556 S
H1383 C1392 0.930 . S
H1384 C1397 0.929 . S
H1385 C1395 0.929 . S
H1386 C1390 0.929 . S
H1387 C1396 0.929 . S
C1388 H1382 0.906 1_554 S
C1388 C1389 1.367 . S
C1388 C1396 1.378 . S
C1389 C1388 1.367 . S
C1389 C1397 1.435 . S
C1390 H1386 0.929 . S
C1390 C1392 1.378 . S
C1390 C1394 1.350 . S
C1391 C1394 1.463 . S
C1391 C1396 1.350 . S
C1391 N1399 1.427 . S
C1392 H1383 0.930 . S
C1392 C1390 1.378 . S
C1392 C1393 1.367 . S
C1393 C1392 1.367 . S
C1393 C1395 1.433 . S
C1394 C1390 1.350 . S
C1394 C1391 1.463 . S
C1394 N1398 1.427 . S
C1395 H1385 0.929 . S
C1395 C1393 1.433 . S
C1395 N1398 1.384 . S
C1396 H1387 0.929 . S
C1396 C1388 1.378 . S
C1396 C1391 1.350 . S
C1397 H1384 0.929 . S
C1397 C1389 1.435 . S
C1397 N1399 1.384 . S
N1398 C1394 1.427 . S
N1398 C1395 1.384 . S
N1399 C1391 1.427 . S
N1399 C1397 1.384 . S
H1400 C1406 0.930 . S
H1401 C1410 0.930 . S
H1402 C1415 0.929 . S
H1403 C1413 0.929 . S
H1404 C1408 0.929 . S
H1405 C1414 0.929 . S
C1406 H1400 0.930 . S
C1406 C1407 1.367 . S
C1406 C1414 1.378 . S
C1407 C1406 1.367 . S
C1407 C1415 1.433 . S
C1408 H1404 0.929 . S
C1408 C1410 1.378 . S
C1408 C1412 1.350 . S
C1409 C1412 1.463 . S
C1409 C1414 1.350 . S
C1409 N1417 1.427 . S
C1410 H1401 0.930 . S
C1410 C1408 1.378 . S
C1410 C1411 1.367 . S
C1411 C1410 1.367 . S
C1411 C1413 1.433 . S
C1412 C1408 1.350 . S
C1412 C1409 1.463 . S
C1412 N1416 1.427 . S
C1413 H1403 0.929 . S
C1413 C1411 1.433 . S
C1413 N1416 1.384 . S
C1414 H1405 0.929 . S
C1414 C1406 1.378 . S
C1414 C1409 1.350 . S
C1415 H1402 0.929 . S
C1415 C1407 1.433 . S
C1415 N1417 1.384 . S
N1416 C1412 1.427 . S
N1416 C1413 1.384 . S
N1417 C1409 1.427 . S
N1417 C1415 1.384 . S
H1418 C1424 0.930 . S
H1419 C1428 0.930 . S
H1420 C1433 0.929 . S
H1421 C1431 0.929 . S
H1422 C1426 0.929 . S
H1423 C1432 0.929 . S
C1424 H1418 0.930 . S
C1424 C1425 1.367 . S
C1424 C1432 1.378 . S
C1425 C1424 1.367 . S
C1425 C1433 1.433 . S
C1426 H1422 0.929 . S
C1426 C1428 1.378 . S
C1426 C1430 1.350 . S
C1427 C1430 1.463 . S
C1427 C1432 1.350 . S
C1427 N1435 1.427 . S
C1428 H1419 0.930 . S
C1428 C1426 1.378 . S
C1428 C1429 1.367 . S
C1429 C1428 1.367 . S
C1429 C1431 1.433 . S
C1430 C1426 1.350 . S
C1430 C1427 1.463 . S
C1430 N1434 1.427 . S
C1431 H1421 0.929 . S
C1431 C1429 1.433 . S
C1431 N1434 1.384 . S
C1432 H1423 0.929 . S
C1432 C1424 1.378 . S
C1432 C1427 1.350 . S
C1433 H1420 0.929 . S
C1433 C1425 1.433 . S
C1433 N1435 1.384 . S
N1434 C1430 1.427 . S
N1434 C1431 1.384 . S
N1435 C1427 1.427 . S
N1435 C1433 1.384 . S
H1436 C1442 0.930 . S
H1437 C1446 0.930 . S
H1438 C1451 0.929 . S
H1439 C1449 0.929 . S
H1440 C1444 0.929 . S
H1441 C1450 0.929 . S
C1442 H1436 0.930 . S
C1442 C1443 1.367 . S
C1442 C1450 1.378 . S
C1443 C1442 1.367 . S
C1443 C1451 1.433 . S
C1444 H1440 0.929 . S
C1444 C1446 1.378 . S
C1444 C1448 1.350 . S
C1445 C1448 1.463 . S
C1445 C1450 1.350 . S
C1445 N1453 1.427 . S
C1446 H1437 0.930 . S
C1446 C1444 1.378 . S
C1446 C1447 1.367 . S
C1447 C1446 1.367 . S
C1447 C1449 1.433 . S
C1448 C1444 1.350 . S
C1448 C1445 1.463 . S
C1448 N1452 1.427 . S
C1449 H1439 0.929 . S
C1449 C1447 1.433 . S
C1449 N1452 1.384 . S
C1450 H1441 0.929 . S
C1450 C1442 1.378 . S
C1450 C1445 1.350 . S
C1451 H1438 0.929 . S
C1451 C1443 1.433 . S
C1451 N1453 1.384 . S
N1452 C1448 1.427 . S
N1452 C1449 1.384 . S
N1453 C1445 1.427 . S
N1453 C1451 1.384 . S
H1454 C1460 0.930 . S
H1455 C1464 0.930 . S
H1456 C1469 0.929 . S
H1457 C1467 0.929 . S
H1458 C1462 0.929 . S
H1459 C1468 0.929 . S
C1460 H1454 0.930 . S
C1460 C1461 1.367 . S
C1460 C1468 1.378 . S
C1461 C1460 1.367 . S
C1461 C1469 1.433 . S
C1462 H1458 0.929 . S
C1462 C1464 1.378 . S
C1462 C1466 1.350 . S
C1463 C1466 1.463 . S
C1463 C1468 1.350 . S
C1463 N1471 1.427 . S
C1464 H1455 0.930 . S
C1464 C1462 1.378 . S
C1464 C1465 1.367 . S
C1465 C1464 1.367 . S
C1465 C1467 1.433 . S
C1466 C1462 1.350 . S
C1466 C1463 1.463 . S
C1466 N1470 1.427 . S
C1467 H1457 0.929 . S
C1467 C1465 1.433 . S
C1467 N1470 1.384 . S
C1468 H1459 0.929 . S
C1468 C1460 1.378 . S
C1468 C1463 1.350 . S
C1469 H1456 0.929 . S
C1469 C1461 1.433 . S
C1469 N1471 1.384 . S
N1470 C1466 1.427 . S
N1470 C1467 1.384 . S
N1471 C1463 1.427 . S
N1471 C1469 1.384 . S
H1472 C1478 0.930 . S
H1473 C1482 0.930 1_554 S
H1474 C1487 0.929 . S
H1475 C1485 0.929 . S
H1476 C1480 0.929 . S
H1477 C1486 0.929 . S
C1478 H1472 0.930 . S
C1478 C1479 1.367 . S
C1478 C1486 1.378 . S
C1479 C1478 1.367 . S
C1479 C1487 1.433 . S
C1480 H1476 0.929 . S
C1480 C1482 1.378 . S
C1480 C1484 1.350 . S
C1481 C1484 1.463 . S
C1481 C1486 1.350 . S
C1481 N1489 1.427 . S
C1482 H1473 0.930 1_556 S
C1482 C1480 1.378 . S
C1482 C1483 1.367 . S
C1483 C1482 1.367 . S
C1483 C1485 1.433 . S
C1484 C1480 1.350 . S
C1484 C1481 1.463 . S
C1484 N1488 1.427 . S
C1485 H1475 0.929 . S
C1485 C1483 1.433 . S
C1485 N1488 1.384 . S
C1486 H1477 0.929 . S
C1486 C1478 1.378 . S
C1486 C1481 1.350 . S
C1487 H1474 0.929 . S
C1487 C1479 1.433 . S
C1487 N1489 1.384 . S
N1488 C1484 1.427 . S
N1488 C1485 1.384 . S
N1489 C1481 1.427 . S
N1489 C1487 1.384 . S
H1490 C1496 0.930 . S
H1491 C1500 0.930 . S
H1492 C1505 0.929 . S
H1493 C1503 0.929 . S
H1494 C1498 0.929 . S
H1495 C1504 0.929 . S
C1496 H1490 0.930 . S
C1496 C1497 1.367 . S
C1496 C1504 1.378 . S
C1497 C1496 1.367 . S
C1497 C1505 1.433 . S
C1498 H1494 0.929 . S
C1498 C1500 1.378 . S
C1498 C1502 1.350 . S
C1499 C1502 1.463 . S
C1499 C1504 1.350 . S
C1499 N1507 1.427 . S
C1500 H1491 0.930 . S
C1500 C1498 1.378 . S
C1500 C1501 1.367 . S
C1501 C1500 1.367 . S
C1501 C1503 1.433 . S
C1502 C1498 1.350 . S
C1502 C1499 1.463 . S
C1502 N1506 1.427 . S
C1503 H1493 0.929 . S
C1503 C1501 1.433 . S
C1503 N1506 1.384 . S
C1504 H1495 0.929 . S
C1504 C1496 1.378 . S
C1504 C1499 1.350 . S
C1505 H1492 0.929 . S
C1505 C1497 1.433 . S
C1505 N1507 1.384 . S
N1506 C1502 1.427 . S
N1506 C1503 1.384 . S
N1507 C1499 1.427 . S
N1507 C1505 1.384 . S
H1508 C1514 0.930 . S
H1509 C1518 0.930 . S
H1510 C1523 0.929 . S
H1511 C1521 0.929 . S
H1512 C1516 0.929 . S
H1513 C1522 0.929 . S
C1514 H1508 0.930 . S
C1514 C1515 1.367 . S
C1514 C1522 1.378 . S
C1515 C1514 1.367 . S
C1515 C1523 1.433 . S
C1516 H1512 0.929 . S
C1516 C1518 1.378 . S
C1516 C1520 1.350 . S
C1517 C1520 1.463 . S
C1517 C1522 1.350 . S
C1517 N1525 1.427 . S
C1518 H1509 0.930 . S
C1518 C1516 1.378 . S
C1518 C1519 1.367 . S
C1519 C1518 1.367 . S
C1519 C1521 1.433 . S
C1520 C1516 1.350 . S
C1520 C1517 1.463 . S
C1520 N1524 1.427 . S
C1521 H1511 0.929 . S
C1521 C1519 1.433 . S
C1521 N1524 1.384 . S
C1522 H1513 0.929 . S
C1522 C1514 1.378 . S
C1522 C1517 1.350 . S
C1523 H1510 0.929 . S
C1523 C1515 1.433 . S
C1523 N1525 1.384 . S
N1524 C1520 1.427 . S
N1524 C1521 1.384 . S
N1525 C1517 1.427 . S
N1525 C1523 1.384 . S
H1526 C1532 0.930 . S
H1527 C1536 0.930 . S
H1528 C1541 0.929 . S
H1529 C1539 0.929 . S
H1530 C1534 0.929 . S
H1531 C1540 0.929 . S
C1532 H1526 0.930 . S
C1532 C1533 1.367 . S
C1532 C1540 1.378 . S
C1533 C1532 1.367 . S
C1533 C1541 1.433 . S
C1534 H1530 0.929 . S
C1534 C1536 1.378 1_545 S
C1534 C1538 1.350 . S
C1535 C1538 1.463 . S
C1535 C1540 1.350 . S
C1535 N1543 1.427 . S
C1536 H1527 0.930 . S
C1536 C1534 1.378 1_565 S
C1536 C1537 1.367 . S
C1537 C1536 1.367 . S
C1537 C1539 1.433 . S
C1538 C1534 1.350 . S
C1538 C1535 1.463 . S
C1538 N1542 1.427 1_545 S
C1539 H1529 0.929 . S
C1539 C1537 1.433 . S
C1539 N1542 1.384 . S
C1540 H1531 0.929 . S
C1540 C1532 1.378 . S
C1540 C1535 1.350 . S
C1541 H1528 0.929 . S
C1541 C1533 1.433 . S
C1541 N1543 1.384 . S
N1542 C1538 1.427 1_565 S
N1542 C1539 1.384 . S
N1543 C1535 1.427 . S
N1543 C1541 1.384 . S
C691 C520 1.572 1_556 S
C687 C177 1.542 . S
C709 C535 1.729 . S
C705 C209 1.682 . S
C723 C253 1.596 . S
C727 C548 1.654 . S
C745 C562 1.557 . S
C741 C157 1.621 . S
C763 C574 1.633 . S
C759 C343 1.679 . S
C781 C588 1.329 . S
C777 C401 1.359 . S
C795 C369 1.730 . S
C799 C602 1.735 . S
C817 C617 1.469 . S
C813 C317 1.382 . S
C831 C375 1.619 . S
C835 C633 1.659 . S
C853 C646 1.552 . S
C849 C305 1.487 . S
C867 C349 1.593 . S
C871 C631 1.566 . S
C889 C644 1.525 . S
C885 C413 1.546 . S
C903 C241 1.776 . S
C907 C660 1.807 . S
C921 C151 1.580 . S
C925 C659 1.540 . S
C939 C189 1.697 . S
C943 C658 1.679 . S
C957 C215 1.557 . S
C961 C661 1.609 . S
C975 C113 1.680 . S
C979 C563 1.675 1_565 S
C993 C471 1.471 . S
C997 C561 1.467 . S
C1015 C521 1.539 . S
C1011 C509 1.474 . S
C1033 C532 1.723 . S
C1029 C279 1.683 . S
C1047 C145 1.598 1_545 S
C1051 C577 1.562 . S
C1069 C618 1.895 . S
C1065 C381 1.849 . S
C1087 C575 1.527 . S
C1083 C311 1.429 . S
C1105 C603 1.513 . S
C1101 C407 1.545 . S
C1123 C604 1.576 . S
C1119 C465 1.540 . S
C1137 C497 1.673 . S
C1141 C619 1.722 . S
C1155 C285 1.597 . S
C1159 C576 1.654 . S
C1177 C590 1.550 . S
C1173 C445 1.620 . S
C1191 C119 1.684 . S
C1195 C546 1.640 . S
C1213 C560 1.338 . S
C1209 C17 1.356 . S
C1231 C518 1.737 . S
C1227 C49 1.725 . S
C1249 C533 1.470 . S
C1245 C93 1.376 . S
C1263 C55 1.618 . S
C1267 C647 1.661 . S
C1281 C81 1.479 . S
C1285 C632 1.548 . S
C1299 C125 1.590 . S
C1303 C645 1.573 . S
C1317 C29 1.545 . S
C1321 C630 1.528 . S
C1339 C674 1.807 . S
C1335 C273 1.776 . S
C1357 C673 1.544 . S
C1353 C439 1.580 . S
C1375 C672 1.688 . S
C1371 C477 1.707 . S
C1389 C503 1.558 1_554 S
C1393 C675 1.606 . S
C1407 C337 1.675 . S
C1411 C591 1.677 . S
C1429 C589 1.462 . S
C1425 C183 1.461 . S
C1447 C605 1.546 . S
C1443 C221 1.475 . S
C1465 C616 1.722 . S
C1461 C247 1.695 . S
C1479 C433 1.601 . S
C1483 C549 1.560 . S
C1501 C534 1.895 . S
C1497 C61 1.849 . S
C1515 C87 1.440 . S
C1519 C547 1.517 . S
C1537 C519 1.515 . S
C1533 C23 1.545 . S
