# Generated by pormake.
# Topology eea, (3,6)-cn, num edge types: 1
# Building blocks:
#     Node 0, Type 0, BuildingBlock: MIDCAF_clean_linker_0, # of connection points: 3
#     Node 1, Type 0, BuildingBlock: MIDCAF_clean_linker_0, # of connection points: 3
#     Node 2, Type 0, BuildingBlock: MIDCAF_clean_linker_0, # of connection points: 3
#     Node 3, Type 0, BuildingBlock: MIDCAF_clean_linker_0, # of connection points: 3
#     Node 4, Type 0, BuildingBlock: MIDCAF_clean_linker_0, # of connection points: 3
#     Node 5, Type 0, BuildingBlock: MIDCAF_clean_linker_0, # of connection points: 3
#     Node 6, Type 0, BuildingBlock: MIDCAF_clean_linker_0, # of connection points: 3
#     Node 7, Type 0, BuildingBlock: MIDCAF_clean_linker_0, # of connection points: 3
#     Node 8, Type 0, BuildingBlock: MIDCAF_clean_linker_0, # of connection points: 3
#     Node 9, Type 0, BuildingBlock: MIDCAF_clean_linker_0, # of connection points: 3
#     Node 10, Type 0, BuildingBlock: MIDCAF_clean_linker_0, # of connection points: 3
#     Node 11, Type 0, BuildingBlock: MIDCAF_clean_linker_0, # of connection points: 3
#     Node 12, Type 0, BuildingBlock: MIDCAF_clean_linker_0, # of connection points: 3
#     Node 13, Type 0, BuildingBlock: MIDCAF_clean_linker_0, # of connection points: 3
#     Node 14, Type 0, BuildingBlock: MIDCAF_clean_linker_0, # of connection points: 3
#     Node 15, Type 0, BuildingBlock: MIDCAF_clean_linker_0, # of connection points: 3
#     Node 16, Type 0, BuildingBlock: MIDCAF_clean_linker_0, # of connection points: 3
#     Node 17, Type 0, BuildingBlock: MIDCAF_clean_linker_0, # of connection points: 3
#     Node 18, Type 1, BuildingBlock: KUMBOL_clean_sbu_0, # of connection points: 6
#     Node 19, Type 1, BuildingBlock: KUMBOL_clean_sbu_0, # of connection points: 6
#     Node 20, Type 1, BuildingBlock: KUMBOL_clean_sbu_0, # of connection points: 6
#     Node 21, Type 1, BuildingBlock: KUMBOL_clean_sbu_0, # of connection points: 6
#     Node 22, Type 1, BuildingBlock: KUMBOL_clean_sbu_0, # of connection points: 6
#     Node 23, Type 1, BuildingBlock: KUMBOL_clean_sbu_0, # of connection points: 6
#     Node 24, Type 1, BuildingBlock: KUMBOL_clean_sbu_0, # of connection points: 6
#     Node 25, Type 1, BuildingBlock: KUMBOL_clean_sbu_0, # of connection points: 6
#     Node 26, Type 1, BuildingBlock: KUMBOL_clean_sbu_0, # of connection points: 6
#     Edge 27, Type (0, 1), BuildingBlock: XIVTED_clean_linker_0, # of connection points: 2
#     Edge 28, Type (0, 1), BuildingBlock: XIVTED_clean_linker_0, # of connection points: 2
#     Edge 29, Type (0, 1), BuildingBlock: XIVTED_clean_linker_0, # of connection points: 2
#     Edge 30, Type (0, 1), BuildingBlock: XIVTED_clean_linker_0, # of connection points: 2
#     Edge 31, Type (0, 1), BuildingBlock: XIVTED_clean_linker_0, # of connection points: 2
#     Edge 32, Type (0, 1), BuildingBlock: XIVTED_clean_linker_0, # of connection points: 2
#     Edge 33, Type (0, 1), BuildingBlock: XIVTED_clean_linker_0, # of connection points: 2
#     Edge 34, Type (0, 1), BuildingBlock: XIVTED_clean_linker_0, # of connection points: 2
#     Edge 35, Type (0, 1), BuildingBlock: XIVTED_clean_linker_0, # of connection points: 2
#     Edge 36, Type (0, 1), BuildingBlock: XIVTED_clean_linker_0, # of connection points: 2
#     Edge 37, Type (0, 1), BuildingBlock: XIVTED_clean_linker_0, # of connection points: 2
#     Edge 38, Type (0, 1), BuildingBlock: XIVTED_clean_linker_0, # of connection points: 2
#     Edge 39, Type (0, 1), BuildingBlock: XIVTED_clean_linker_0, # of connection points: 2
#     Edge 40, Type (0, 1), BuildingBlock: XIVTED_clean_linker_0, # of connection points: 2
#     Edge 41, Type (0, 1), BuildingBlock: XIVTED_clean_linker_0, # of connection points: 2
#     Edge 42, Type (0, 1), BuildingBlock: XIVTED_clean_linker_0, # of connection points: 2
#     Edge 43, Type (0, 1), BuildingBlock: XIVTED_clean_linker_0, # of connection points: 2
#     Edge 44, Type (0, 1), BuildingBlock: XIVTED_clean_linker_0, # of connection points: 2
#     Edge 45, Type (0, 1), BuildingBlock: XIVTED_clean_linker_0, # of connection points: 2
#     Edge 46, Type (0, 1), BuildingBlock: XIVTED_clean_linker_0, # of connection points: 2
#     Edge 47, Type (0, 1), BuildingBlock: XIVTED_clean_linker_0, # of connection points: 2
#     Edge 48, Type (0, 1), BuildingBlock: XIVTED_clean_linker_0, # of connection points: 2
#     Edge 49, Type (0, 1), BuildingBlock: XIVTED_clean_linker_0, # of connection points: 2
#     Edge 50, Type (0, 1), BuildingBlock: XIVTED_clean_linker_0, # of connection points: 2
#     Edge 51, Type (0, 1), BuildingBlock: XIVTED_clean_linker_0, # of connection points: 2
#     Edge 52, Type (0, 1), BuildingBlock: XIVTED_clean_linker_0, # of connection points: 2
#     Edge 53, Type (0, 1), BuildingBlock: XIVTED_clean_linker_0, # of connection points: 2
#     Edge 54, Type (0, 1), BuildingBlock: XIVTED_clean_linker_0, # of connection points: 2
#     Edge 55, Type (0, 1), BuildingBlock: XIVTED_clean_linker_0, # of connection points: 2
#     Edge 56, Type (0, 1), BuildingBlock: XIVTED_clean_linker_0, # of connection points: 2
#     Edge 57, Type (0, 1), BuildingBlock: XIVTED_clean_linker_0, # of connection points: 2
#     Edge 58, Type (0, 1), BuildingBlock: XIVTED_clean_linker_0, # of connection points: 2
#     Edge 59, Type (0, 1), BuildingBlock: XIVTED_clean_linker_0, # of connection points: 2
#     Edge 60, Type (0, 1), BuildingBlock: XIVTED_clean_linker_0, # of connection points: 2
#     Edge 61, Type (0, 1), BuildingBlock: XIVTED_clean_linker_0, # of connection points: 2
#     Edge 62, Type (0, 1), BuildingBlock: XIVTED_clean_linker_0, # of connection points: 2
#     Edge 63, Type (0, 1), BuildingBlock: XIVTED_clean_linker_0, # of connection points: 2
#     Edge 64, Type (0, 1), BuildingBlock: XIVTED_clean_linker_0, # of connection points: 2
#     Edge 65, Type (0, 1), BuildingBlock: XIVTED_clean_linker_0, # of connection points: 2
#     Edge 66, Type (0, 1), BuildingBlock: XIVTED_clean_linker_0, # of connection points: 2
#     Edge 67, Type (0, 1), BuildingBlock: XIVTED_clean_linker_0, # of connection points: 2
#     Edge 68, Type (0, 1), BuildingBlock: XIVTED_clean_linker_0, # of connection points: 2
#     Edge 69, Type (0, 1), BuildingBlock: XIVTED_clean_linker_0, # of connection points: 2
#     Edge 70, Type (0, 1), BuildingBlock: XIVTED_clean_linker_0, # of connection points: 2
#     Edge 71, Type (0, 1), BuildingBlock: XIVTED_clean_linker_0, # of connection points: 2
#     Edge 72, Type (0, 1), BuildingBlock: XIVTED_clean_linker_0, # of connection points: 2
#     Edge 73, Type (0, 1), BuildingBlock: XIVTED_clean_linker_0, # of connection points: 2
#     Edge 74, Type (0, 1), BuildingBlock: XIVTED_clean_linker_0, # of connection points: 2
#     Edge 75, Type (0, 1), BuildingBlock: XIVTED_clean_linker_0, # of connection points: 2
#     Edge 76, Type (0, 1), BuildingBlock: XIVTED_clean_linker_0, # of connection points: 2
#     Edge 77, Type (0, 1), BuildingBlock: XIVTED_clean_linker_0, # of connection points: 2
#     Edge 78, Type (0, 1), BuildingBlock: XIVTED_clean_linker_0, # of connection points: 2
#     Edge 79, Type (0, 1), BuildingBlock: XIVTED_clean_linker_0, # of connection points: 2
#     Edge 80, Type (0, 1), BuildingBlock: XIVTED_clean_linker_0, # of connection points: 2
# Relax obj value: 0.009
# Max RMSD: 0.094
# Mean RMSD: 0.062
data_MOF--net-eea--node1-KUMBOL_clean_sbu_0--node2-MIDCAF_clean_linker_0--edge1-XIVTED_clean_linker_0
_symmetry_space_group_name_H-M    P1
_symmetry_Int_Tables_number       1
_symmetry_cell_setting            triclinic
loop_
_symmetry_equiv_pos_as_xyz
'x, y, z'
_cell_length_a     62.674379
_cell_length_b     64.254414
_cell_length_c     89.420164
_cell_angle_alpha  90.203176
_cell_angle_beta   90.186452
_cell_angle_gamma 119.98953
loop_
_atom_site_label
_atom_site_type_symbol
_atom_site_fract_x
_atom_site_fract_y
_atom_site_fract_z
_atom_type_partial_charge
C0 C 0.23699 0.03699 0.40306 0.0
C1 C 0.23065 0.0348 0.38779 0.0
C2 C 0.22879 0.05348 0.38093 0.0
C3 C 0.23278 0.07365 0.38916 0.0
H4 H 0.22341 0.13099 0.3863 0.0
H5 H 0.21215 0.15825 0.37472 0.0
H6 H 0.22859 0.19871 0.41598 0.0
H7 H 0.24044 0.17165 0.42759 0.0
H8 H 0.2658 0.1581 0.45435 0.0
H9 H 0.2829 0.16474 0.47957 0.0
H10 H 0.28168 0.09697 0.47737 0.0
H11 H 0.26516 0.09054 0.4521 0.0
H12 H 0.24567 0.05816 0.42305 0.0
H13 H 0.23826 0.02281 0.40877 0.0
H14 H 0.22436 0.05261 0.36914 0.0
H15 H 0.23108 0.08761 0.38347 0.0
N16 N 0.23673 0.1128 0.40707 0.0
N17 N 0.24843 0.13564 0.42918 0.0
N18 N 0.25118 0.10058 0.42749 0.0
C19 C 0.23959 0.13216 0.41493 0.0
C20 C 0.2543 0.11992 0.43555 0.0
C21 C 0.24244 0.09692 0.41323 0.0
C22 C 0.23286 0.14905 0.40793 0.0
C23 C 0.22467 0.14567 0.39297 0.0
C24 C 0.21802 0.16124 0.38632 0.0
C25 C 0.21933 0.18062 0.39442 0.0
C26 C 0.22761 0.18411 0.40936 0.0
C27 C 0.2343 0.16851 0.41604 0.0
C28 C 0.26415 0.12381 0.45109 0.0
C29 C 0.26914 0.14457 0.45923 0.0
C30 C 0.27884 0.14834 0.47375 0.0
C31 C 0.28376 0.13144 0.48052 0.0
C32 C 0.27853 0.11058 0.47244 0.0
C33 C 0.26889 0.10683 0.45793 0.0
C34 C 0.23886 0.07573 0.40446 0.0
C35 C 0.24111 0.05723 0.41128 0.0
C36 C 0.96884 0.18473 0.40378 0.0
C37 C 0.96851 0.18571 0.38809 0.0
C38 C 0.94661 0.17027 0.38038 0.0
C39 C 0.92557 0.15387 0.38818 0.0
H40 H 0.86877 0.08391 0.38354 0.0
H41 H 0.83963 0.04716 0.37061 0.0
H42 H 0.79545 0.02222 0.41055 0.0
H43 H 0.82439 0.05926 0.42348 0.0
H44 H 0.85359 0.08967 0.45572 0.0
H45 H 0.84406 0.09749 0.48097 0.0
H46 H 0.88318 0.1736 0.4722 0.0
H47 H 0.89339 0.16595 0.4471 0.0
H48 H 0.94842 0.16831 0.42372 0.0
H49 H 0.98546 0.19657 0.41 0.0
H50 H 0.94588 0.17064 0.36828 0.0
H51 H 0.90905 0.14202 0.38188 0.0
N52 N 0.8871 0.11423 0.40515 0.0
N53 N 0.86305 0.10157 0.42682 0.0
N54 N 0.89948 0.13911 0.42643 0.0
C55 C 0.86683 0.09735 0.41242 0.0
C56 C 0.87919 0.12244 0.43388 0.0
C57 C 0.90357 0.13505 0.41205 0.0
C58 C 0.84903 0.07468 0.40461 0.0
C59 C 0.85288 0.07064 0.38963 0.0
C60 C 0.83619 0.04944 0.3822 0.0
C61 C 0.81517 0.03165 0.38952 0.0
C62 C 0.81128 0.03565 0.40449 0.0
C63 C 0.82799 0.05688 0.41195 0.0
C64 C 0.87425 0.12719 0.4494 0.0
C65 C 0.86032 0.10809 0.45921 0.0
C66 C 0.85495 0.11254 0.47367 0.0
C67 C 0.86286 0.13613 0.4785 0.0
C68 C 0.87682 0.15524 0.46873 0.0
C69 C 0.88273 0.15085 0.4544 0.0
C70 C 0.9258 0.15291 0.4039 0.0
C71 C 0.94761 0.16868 0.41163 0.0
C72 C 0.80913 0.78024 0.40526 0.0
C73 C 0.80924 0.78236 0.38961 0.0
C74 C 0.82666 0.77948 0.38135 0.0
C75 C 0.84377 0.77491 0.38859 0.0
H76 H 0.90874 0.77381 0.38182 0.0
H77 H 0.94623 0.78213 0.36873 0.0
H78 H 0.97959 0.78031 0.41063 0.0
H79 H 0.94203 0.77192 0.42381 0.0
H80 H 0.9025 0.74346 0.45156 0.0
H81 H 0.8929 0.72624 0.47662 0.0
H82 H 0.82569 0.72941 0.47625 0.0
H83 H 0.83495 0.74614 0.45124 0.0
H84 H 0.82529 0.7738 0.42456 0.0
H85 H 0.79581 0.78214 0.41194 0.0
H86 H 0.82732 0.78115 0.36929 0.0
H87 H 0.85702 0.77296 0.38188 0.0
N88 N 0.88252 0.77156 0.40486 0.0
N89 N 0.8953 0.75962 0.42631 0.0
N90 N 0.85802 0.75997 0.42636 0.0
C91 C 0.89944 0.76761 0.41191 0.0
C92 C 0.87453 0.75563 0.43361 0.0
C93 C 0.86182 0.76792 0.41201 0.0
C94 C 0.92225 0.77219 0.40393 0.0
C95 C 0.92401 0.77514 0.38829 0.0
C96 C 0.9455 0.77979 0.38074 0.0
C97 C 0.96596 0.78193 0.38861 0.0
C98 C 0.96426 0.77901 0.40424 0.0
C99 C 0.94263 0.77403 0.41179 0.0
C100 C 0.86947 0.74612 0.44922 0.0
C101 C 0.8857 0.74057 0.45682 0.0
C102 C 0.88026 0.73078 0.47127 0.0
C103 C 0.85841 0.72622 0.47849 0.0
C104 C 0.84246 0.73221 0.47098 0.0
C105 C 0.84789 0.74199 0.4566 0.0
C106 C 0.84362 0.77272 0.40426 0.0
C107 C 0.82597 0.77531 0.41249 0.0
C108 C 0.03182 0.21875 0.59745 0.0
C109 C 0.02456 0.20588 0.61094 0.0
C110 C 0.03901 0.1966 0.61669 0.0
C111 C 0.06048 0.20061 0.60933 0.0
H112 H 0.1216 0.18226 0.60663 0.0
H113 H 0.15225 0.17473 0.6184 0.0
H114 H 0.21009 0.24308 0.60194 0.0
H115 H 0.17949 0.24923 0.58925 0.0
H116 H 0.16044 0.24848 0.55149 0.0
H117 H 0.17037 0.26607 0.52671 0.0
H118 H 0.10086 0.26477 0.52482 0.0
H119 H 0.09058 0.24663 0.5496 0.0
H120 H 0.05813 0.23275 0.57975 0.0
H121 H 0.02096 0.22587 0.59258 0.0
H122 H 0.03406 0.18673 0.62709 0.0
H123 H 0.07132 0.19349 0.61424 0.0
N124 N 0.10782 0.21439 0.59548 0.0
N125 N 0.13504 0.23077 0.57529 0.0
N126 N 0.09694 0.22936 0.57461 0.0
C127 C 0.12975 0.22035 0.58901 0.0
C128 C 0.11868 0.23513 0.56791 0.0
C129 C 0.09134 0.21903 0.58841 0.0
C130 C 0.14816 0.21621 0.5969 0.0
C131 C 0.14093 0.19555 0.60554 0.0
C132 C 0.15863 0.19137 0.61239 0.0
C133 C 0.18405 0.20811 0.61115 0.0
C134 C 0.19099 0.22919 0.60285 0.0
C135 C 0.17336 0.23294 0.59564 0.0
C136 C 0.12468 0.24611 0.55269 0.0
C137 C 0.14718 0.2519 0.54586 0.0
C138 C 0.15298 0.26217 0.53161 0.0
C139 C 0.13651 0.26702 0.5237 0.0
C140 C 0.11392 0.26109 0.53046 0.0
C141 C 0.10809 0.25081 0.54476 0.0
C142 C 0.06794 0.21379 0.59593 0.0
C143 C 0.05312 0.22256 0.59002 0.0
C144 C 0.75761 0.79982 0.59351 0.0
C145 C 0.77622 0.80745 0.60451 0.0
C146 C 0.79 0.83212 0.60798 0.0
C147 C 0.78522 0.84863 0.60077 0.0
H148 H 0.7845 0.91177 0.60958 0.0
H149 H 0.79409 0.94903 0.62222 0.0
H150 H 0.77228 0.97247 0.58275 0.0
H151 H 0.76213 0.93497 0.57016 0.0
H152 H 0.75464 0.90253 0.53895 0.0
H153 H 0.73609 0.8941 0.51397 0.0
H154 H 0.69682 0.81825 0.52364 0.0
H155 H 0.7158 0.82652 0.54856 0.0
H156 H 0.73868 0.80994 0.5777 0.0
H157 H 0.74626 0.78098 0.59069 0.0
H158 H 0.80485 0.83888 0.6161 0.0
H159 H 0.79631 0.86748 0.60369 0.0
N160 N 0.76923 0.88036 0.5884 0.0
N161 N 0.7551 0.89194 0.5675 0.0
N162 N 0.75135 0.85372 0.56817 0.0
C163 C 0.76558 0.89702 0.58134 0.0
C164 C 0.74792 0.87036 0.56085 0.0
C165 C 0.76222 0.85872 0.58191 0.0
C166 C 0.77244 0.92023 0.58882 0.0
C167 C 0.78179 0.92485 0.60353 0.0
C168 C 0.78744 0.94632 0.61079 0.0
C169 C 0.78392 0.96376 0.60353 0.0
C170 C 0.77486 0.95928 0.58876 0.0
C171 C 0.76917 0.93779 0.5815 0.0
C172 C 0.73667 0.86518 0.54573 0.0
C173 C 0.74208 0.88405 0.53576 0.0
C174 C 0.7316 0.87925 0.52144 0.0
C175 C 0.71507 0.85556 0.51693 0.0
C176 C 0.70947 0.83669 0.5269 0.0
C177 C 0.7204 0.84143 0.54111 0.0
C178 C 0.76683 0.841 0.58969 0.0
C179 C 0.75313 0.81642 0.5861 0.0
C180 C 0.18281 0.94896 0.59566 0.0
C181 C 0.1754 0.95964 0.60677 0.0
C182 C 0.15027 0.94803 0.61063 0.0
C183 C 0.13323 0.92637 0.60378 0.0
H184 H 0.07984 0.85115 0.61633 0.0
H185 H 0.04372 0.82259 0.63045 0.0
H186 H 0.00323 0.79415 0.58926 0.0
H187 H 0.03961 0.8224 0.575 0.0
H188 H 0.0806 0.82681 0.54714 0.0
H189 H 0.08824 0.81821 0.52175 0.0
H190 H 0.15575 0.88662 0.52065 0.0
H191 H 0.14802 0.89543 0.54585 0.0
H192 H 0.17199 0.91987 0.58009 0.0
H193 H 0.20196 0.95689 0.59252 0.0
H194 H 0.14354 0.95578 0.61881 0.0
H195 H 0.11408 0.91802 0.60705 0.0
N196 N 0.10177 0.87726 0.59266 0.0
N197 N 0.08855 0.8515 0.57177 0.0
N198 N 0.12614 0.88791 0.57112 0.0
C199 C 0.08477 0.85638 0.58604 0.0
C200 C 0.10927 0.86719 0.56422 0.0
C201 C 0.12245 0.89313 0.58529 0.0
C202 C 0.06263 0.83905 0.59451 0.0
C203 C 0.06325 0.83885 0.61025 0.0
C204 C 0.04262 0.82245 0.61836 0.0
C205 C 0.02069 0.80623 0.61095 0.0
C206 C 0.01988 0.80659 0.59524 0.0
C207 C 0.04073 0.82265 0.58709 0.0
C208 C 0.11366 0.86183 0.54865 0.0
C209 C 0.09705 0.84007 0.54149 0.0
C210 C 0.1015 0.83507 0.52693 0.0
C211 C 0.12262 0.85171 0.51909 0.0
C212 C 0.13912 0.87351 0.52622 0.0
C213 C 0.13473 0.87849 0.54077 0.0
C214 C 0.14068 0.91596 0.59262 0.0
C215 C 0.16563 0.92757 0.58857 0.0
C216 C 0.88906 0.36358 0.74321 0.0
C217 C 0.87907 0.3586 0.72866 0.0
C218 C 0.87479 0.37566 0.72153 0.0
C219 C 0.88044 0.39718 0.72874 0.0
H220 H 0.86276 0.45255 0.72959 0.0
H221 H 0.85283 0.4803 0.71729 0.0
H222 H 0.91071 0.53924 0.74244 0.0
H223 H 0.91969 0.51114 0.7553 0.0
H224 H 0.93054 0.4929 0.7884 0.0
H225 H 0.95045 0.50165 0.8129 0.0
H226 H 0.94596 0.43234 0.8127 0.0
H227 H 0.9266 0.42375 0.78818 0.0
H228 H 0.90245 0.38829 0.7616 0.0
H229 H 0.89225 0.35071 0.74914 0.0
H230 H 0.86742 0.37258 0.71026 0.0
H231 H 0.87703 0.40993 0.72283 0.0
N232 N 0.89173 0.4412 0.74419 0.0
N233 N 0.9095 0.46788 0.76443 0.0
N234 N 0.90842 0.43085 0.76437 0.0
C235 C 0.89792 0.46251 0.75089 0.0
C236 C 0.91472 0.45205 0.77129 0.0
C237 C 0.897 0.42529 0.75081 0.0
C238 C 0.89202 0.47961 0.74344 0.0
C239 C 0.87335 0.47144 0.73251 0.0
C240 C 0.86777 0.48745 0.72536 0.0
C241 C 0.881 0.51219 0.72874 0.0
C242 C 0.89976 0.52033 0.73968 0.0
C243 C 0.90505 0.50422 0.74702 0.0
C244 C 0.92694 0.45761 0.78622 0.0
C245 C 0.93383 0.47952 0.79355 0.0
C246 C 0.94513 0.4845 0.80766 0.0
C247 C 0.94986 0.46772 0.81479 0.0
C248 C 0.94297 0.44585 0.80746 0.0
C249 C 0.93169 0.44086 0.79338 0.0
C250 C 0.89059 0.40224 0.74326 0.0
C251 C 0.89478 0.38513 0.75041 0.0
C252 C 0.63783 0.51539 0.7388 0.0
C253 C 0.63701 0.51522 0.72309 0.0
C254 C 0.61515 0.49859 0.71578 0.0
C255 C 0.59462 0.48223 0.724 0.0
H256 H 0.54578 0.40241 0.72844 0.0
H257 H 0.51677 0.36408 0.71704 0.0
H258 H 0.45803 0.36214 0.74342 0.0
H259 H 0.48755 0.39971 0.75547 0.0
H260 H 0.5247 0.42332 0.79302 0.0
H261 H 0.51599 0.43274 0.81802 0.0
H262 H 0.55394 0.50815 0.80718 0.0
H263 H 0.56333 0.49888 0.78226 0.0
H264 H 0.61825 0.50003 0.75915 0.0
H265 H 0.65442 0.52814 0.74471 0.0
H266 H 0.61404 0.49806 0.70368 0.0
H267 H 0.57809 0.46954 0.71802 0.0
N268 N 0.55702 0.44358 0.74217 0.0
N269 N 0.53306 0.43304 0.76391 0.0
N270 N 0.56943 0.4705 0.76248 0.0
C271 C 0.53682 0.42745 0.74985 0.0
C272 C 0.54927 0.45449 0.77032 0.0
C273 C 0.57341 0.46512 0.74838 0.0
C274 C 0.51899 0.4041 0.74287 0.0
C275 C 0.52666 0.39372 0.73182 0.0
C276 C 0.50987 0.37174 0.72518 0.0
C277 C 0.48478 0.35975 0.72915 0.0
C278 C 0.47717 0.37034 0.7402 0.0
C279 C 0.4941 0.39207 0.74708 0.0
C280 C 0.5447 0.46036 0.78564 0.0
C281 C 0.53133 0.44193 0.79598 0.0
C282 C 0.52643 0.4473 0.81032 0.0
C283 C 0.53427 0.47115 0.81451 0.0
C284 C 0.54764 0.4896 0.8042 0.0
C285 C 0.55309 0.48429 0.78998 0.0
C286 C 0.59529 0.48253 0.73974 0.0
C287 C 0.61709 0.4994 0.74705 0.0
C288 C 0.47073 0.09874 0.73765 0.0
C289 C 0.4757 0.1108 0.72388 0.0
C290 C 0.49892 0.11891 0.71735 0.0
C291 C 0.51661 0.11488 0.72434 0.0
H292 H 0.57578 0.0997 0.71518 0.0
H293 H 0.61332 0.10767 0.70202 0.0
H294 H 0.65142 0.12012 0.74423 0.0
H295 H 0.61376 0.11156 0.75747 0.0
H296 H 0.57092 0.07157 0.78354 0.0
H297 H 0.56257 0.05456 0.80863 0.0
H298 H 0.49742 0.06119 0.81077 0.0
H299 H 0.5058 0.07839 0.78579 0.0
H300 H 0.48385 0.08558 0.75529 0.0
H301 H 0.45318 0.09251 0.74311 0.0
H302 H 0.50332 0.12808 0.7067 0.0
H303 H 0.53422 0.12131 0.71893 0.0
N304 N 0.55149 0.10335 0.73851 0.0
N305 N 0.56478 0.09128 0.75968 0.0
N306 N 0.52673 0.09007 0.75991 0.0
C307 C 0.56879 0.09978 0.74541 0.0
C308 C 0.54373 0.08628 0.76701 0.0
C309 C 0.53043 0.09866 0.74569 0.0
C310 C 0.59172 0.10495 0.7374 0.0
C311 C 0.59215 0.10415 0.72167 0.0
C312 C 0.61361 0.10862 0.71412 0.0
C313 C 0.63531 0.11458 0.72209 0.0
C314 C 0.63501 0.11573 0.73779 0.0
C315 C 0.6134 0.11069 0.74536 0.0
C316 C 0.53906 0.07639 0.78252 0.0
C317 C 0.55485 0.06952 0.78935 0.0
C318 C 0.54998 0.0596 0.80375 0.0
C319 C 0.52928 0.05644 0.81178 0.0
C320 C 0.51368 0.06359 0.80503 0.0
C321 C 0.51844 0.07334 0.79061 0.0
C322 C 0.51163 0.10284 0.73813 0.0
C323 C 0.48845 0.0949 0.74469 0.0
C324 C 0.70035 0.55535 0.93167 0.0
C325 C 0.69346 0.54291 0.94532 0.0
C326 C 0.70799 0.53372 0.95105 0.0
C327 C 0.72915 0.53732 0.94348 0.0
H328 H 0.79257 0.53126 0.94852 0.0
H329 H 0.8238 0.52537 0.96118 0.0
H330 H 0.8747 0.5623 0.92535 0.0
H331 H 0.84379 0.56831 0.91275 0.0
H332 H 0.82506 0.57937 0.88327 0.0
H333 H 0.83398 0.5961 0.85824 0.0
H334 H 0.76549 0.59689 0.8577 0.0
H335 H 0.75624 0.57967 0.88275 0.0
H336 H 0.72602 0.56853 0.9136 0.0
H337 H 0.68942 0.56241 0.92682 0.0
H338 H 0.70331 0.52418 0.96157 0.0
H339 H 0.74003 0.53022 0.94834 0.0
N340 N 0.77571 0.54991 0.92888 0.0
N341 N 0.80116 0.56361 0.90779 0.0
N342 N 0.7637 0.56351 0.90784 0.0
C343 C 0.79689 0.55453 0.92188 0.0
C344 C 0.7847 0.56809 0.90063 0.0
C345 C 0.75901 0.55439 0.92196 0.0
C346 C 0.81557 0.55034 0.92959 0.0
C347 C 0.81041 0.53812 0.94332 0.0
C348 C 0.82828 0.53462 0.95056 0.0
C349 C 0.85183 0.54347 0.94433 0.0
C350 C 0.8569 0.55554 0.93058 0.0
C351 C 0.83903 0.55884 0.92329 0.0
C352 C 0.78991 0.57816 0.88517 0.0
C353 C 0.8118 0.58304 0.87787 0.0
C354 C 0.81702 0.59281 0.86348 0.0
C355 C 0.80055 0.59803 0.8559 0.0
C356 C 0.77852 0.59291 0.8631 0.0
C357 C 0.77328 0.58314 0.87754 0.0
C358 C 0.73618 0.54997 0.92988 0.0
C359 C 0.72132 0.55874 0.92403 0.0
C360 C 0.41682 0.13272 0.93342 0.0
C361 C 0.43666 0.14081 0.94357 0.0
C362 C 0.45039 0.16558 0.94685 0.0
C363 C 0.44452 0.18173 0.94015 0.0
H364 H 0.4583 0.25372 0.94215 0.0
H365 H 0.47018 0.29265 0.95334 0.0
H366 H 0.41194 0.29488 0.92856 0.0
H367 H 0.40115 0.25673 0.91681 0.0
H368 H 0.41038 0.23272 0.87919 0.0
H369 H 0.39237 0.22362 0.85404 0.0
H370 H 0.35168 0.14821 0.86477 0.0
H371 H 0.37026 0.15712 0.88987 0.0
H372 H 0.39594 0.14207 0.91869 0.0
H373 H 0.4054 0.1138 0.93082 0.0
H374 H 0.46608 0.17268 0.95437 0.0
H375 H 0.45567 0.20067 0.94282 0.0
N376 N 0.42668 0.21274 0.92847 0.0
N377 N 0.41028 0.22288 0.90798 0.0
N378 N 0.40765 0.18518 0.90876 0.0
C379 C 0.42185 0.22872 0.92149 0.0
C380 C 0.40321 0.20122 0.90153 0.0
C381 C 0.4195 0.19088 0.9222 0.0
C382 C 0.42888 0.2522 0.92854 0.0
C383 C 0.44811 0.2626 0.93909 0.0
C384 C 0.45479 0.28491 0.94559 0.0
C385 C 0.44209 0.29714 0.9419 0.0
C386 C 0.42261 0.28644 0.93146 0.0
C387 C 0.41627 0.2644 0.92477 0.0
C388 C 0.3917 0.19562 0.88649 0.0
C389 C 0.39756 0.2142 0.87621 0.0
C390 C 0.3874 0.20903 0.86182 0.0
C391 C 0.37074 0.18526 0.85756 0.0
C392 C 0.3645 0.16668 0.86786 0.0
C393 C 0.37516 0.17178 0.88216 0.0
C394 C 0.42506 0.17362 0.92977 0.0
C395 C 0.41124 0.14894 0.92651 0.0
C396 C 0.85399 0.28418 0.93233 0.0
C397 C 0.84579 0.29548 0.94248 0.0
C398 C 0.82037 0.28401 0.94563 0.0
C399 C 0.80379 0.26199 0.93887 0.0
H400 H 0.73661 0.19753 0.94633 0.0
H401 H 0.69964 0.168 0.95933 0.0
H402 H 0.68785 0.11497 0.92564 0.0
H403 H 0.72482 0.14431 0.91267 0.0
H404 H 0.75718 0.16211 0.88224 0.0
H405 H 0.768 0.15387 0.85758 0.0
H406 H 0.83669 0.2212 0.85947 0.0
H407 H 0.82622 0.22926 0.88409 0.0
H408 H 0.8444 0.25442 0.91758 0.0
H409 H 0.87337 0.2919 0.92983 0.0
H410 H 0.81308 0.29216 0.95311 0.0
H411 H 0.78439 0.25378 0.9415 0.0
N412 N 0.77291 0.2123 0.92761 0.0
N413 N 0.76296 0.18591 0.90715 0.0
N414 N 0.80013 0.22263 0.90743 0.0
C415 C 0.75706 0.19105 0.92081 0.0
C416 C 0.78443 0.20168 0.90034 0.0
C417 C 0.79454 0.22813 0.92102 0.0
C418 C 0.73389 0.17336 0.92843 0.0
C419 C 0.72614 0.1796 0.94164 0.0
C420 C 0.70482 0.1627 0.94908 0.0
C421 C 0.69082 0.13906 0.94359 0.0
C422 C 0.69838 0.13292 0.9303 0.0
C423 C 0.71955 0.14984 0.92279 0.0
C424 C 0.7908 0.19635 0.88528 0.0
C425 C 0.77462 0.17515 0.87743 0.0
C426 C 0.78076 0.17048 0.86321 0.0
C427 C 0.80327 0.18682 0.8565 0.0
C428 C 0.81938 0.20799 0.86435 0.0
C429 C 0.81326 0.21268 0.8785 0.0
C430 C 0.81207 0.2511 0.92855 0.0
C431 C 0.83735 0.26248 0.92535 0.0
C432 C 0.57184 0.70904 0.07546 0.0
C433 C 0.55295 0.69893 0.06459 0.0
C434 C 0.53993 0.71098 0.0613 0.0
C435 C 0.54587 0.73262 0.06845 0.0
H436 H 0.55093 0.79756 0.05859 0.0
H437 H 0.54124 0.82496 0.04563 0.0
H438 H 0.56689 0.87289 0.08381 0.0
H439 H 0.57723 0.8457 0.09672 0.0
H440 H 0.60447 0.83431 0.12359 0.0
H441 H 0.62477 0.84406 0.14798 0.0
H442 H 0.61945 0.77441 0.14919 0.0
H443 H 0.59976 0.76487 0.12473 0.0
H444 H 0.5922 0.73781 0.09103 0.0
H445 H 0.58265 0.70066 0.07816 0.0
H446 H 0.52489 0.70363 0.0533 0.0
H447 H 0.53546 0.74136 0.06559 0.0
N448 N 0.56531 0.78121 0.07999 0.0
N449 N 0.58245 0.80815 0.10014 0.0
N450 N 0.58254 0.77163 0.10026 0.0
C451 C 0.57102 0.80251 0.08654 0.0
C452 C 0.58823 0.79276 0.10711 0.0
C453 C 0.57101 0.76571 0.08673 0.0
C454 C 0.56489 0.81933 0.07876 0.0
C455 C 0.55453 0.81391 0.06429 0.0
C456 C 0.54879 0.8296 0.05685 0.0
C457 C 0.55317 0.85115 0.06366 0.0
C458 C 0.56354 0.85661 0.07813 0.0
C459 C 0.56934 0.84091 0.08558 0.0
C460 C 0.60048 0.79881 0.12208 0.0
C461 C 0.60763 0.82105 0.12903 0.0
C462 C 0.61916 0.82661 0.1431 0.0
C463 C 0.62384 0.81006 0.15061 0.0
C464 C 0.61655 0.78778 0.14368 0.0
C465 C 0.60509 0.78225 0.12963 0.0
C466 C 0.56468 0.74262 0.0793 0.0
C467 C 0.57747 0.73048 0.08282 0.0
C468 C 0.29762 0.86125 0.07222 0.0
C469 C 0.30459 0.85385 0.05918 0.0
C470 C 0.29026 0.82975 0.05456 0.0
C471 C 0.26937 0.81359 0.06264 0.0
H472 H 0.21315 0.74039 0.06501 0.0
H473 H 0.18452 0.70201 0.05348 0.0
H474 H 0.12483 0.70034 0.07864 0.0
H475 H 0.15389 0.73797 0.0908 0.0
H476 H 0.1898 0.76441 0.12874 0.0
H477 H 0.18085 0.77521 0.15331 0.0
H478 H 0.21693 0.84967 0.14037 0.0
H479 H 0.22669 0.83909 0.11594 0.0
H480 H 0.2721 0.8515 0.09031 0.0
H481 H 0.30838 0.87958 0.07624 0.0
H482 H 0.29492 0.82345 0.04452 0.0
H483 H 0.25874 0.79524 0.05863 0.0
N484 N 0.22411 0.78172 0.07829 0.0
N485 N 0.19864 0.77231 0.09931 0.0
N486 N 0.23468 0.81001 0.09767 0.0
C487 C 0.20339 0.76594 0.08573 0.0
C488 C 0.21424 0.79427 0.1054 0.0
C489 C 0.23985 0.80382 0.08412 0.0
C490 C 0.18587 0.74226 0.07886 0.0
C491 C 0.19392 0.73173 0.06812 0.0
C492 C 0.17734 0.70971 0.06139 0.0
C493 C 0.15206 0.69778 0.06495 0.0
C494 C 0.1441 0.70847 0.07572 0.0
C495 C 0.16079 0.73024 0.08268 0.0
C496 C 0.20895 0.80089 0.12036 0.0
C497 C 0.19593 0.78311 0.13114 0.0
C498 C 0.19091 0.78927 0.14524 0.0
C499 C 0.19822 0.81326 0.14874 0.0
C500 C 0.21109 0.83104 0.13796 0.0
C501 C 0.21671 0.82497 0.124 0.0
C502 C 0.26231 0.82101 0.07565 0.0
C503 C 0.27684 0.84505 0.08037 0.0
C504 C 0.13825 0.42998 0.06828 0.0
C505 C 0.14513 0.4504 0.0593 0.0
C506 C 0.17056 0.46651 0.05736 0.0
C507 C 0.1883 0.4623 0.06408 0.0
H508 H 0.24583 0.4411 0.05036 0.0
H509 H 0.28314 0.44885 0.03707 0.0
H510 H 0.32111 0.45954 0.07917 0.0
H511 H 0.28358 0.45116 0.09256 0.0
H512 H 0.24028 0.41025 0.11828 0.0
H513 H 0.232 0.39299 0.14331 0.0
H514 H 0.16622 0.39853 0.14544 0.0
H515 H 0.17452 0.41595 0.12053 0.0
H516 H 0.14997 0.41042 0.08225 0.0
H517 H 0.11911 0.41657 0.06981 0.0
H518 H 0.17697 0.48272 0.05088 0.0
H519 H 0.20763 0.4751 0.06237 0.0
N520 N 0.2214 0.44377 0.07378 0.0
N521 N 0.23432 0.4307 0.09466 0.0
N522 N 0.19582 0.4286 0.09478 0.0
C523 C 0.23865 0.44002 0.08059 0.0
C524 C 0.21292 0.42492 0.10186 0.0
C525 C 0.19997 0.43814 0.08081 0.0
C526 C 0.26166 0.44547 0.07255 0.0
C527 C 0.26213 0.44517 0.05681 0.0
C528 C 0.28347 0.44951 0.04918 0.0
C529 C 0.30505 0.45485 0.05707 0.0
C530 C 0.30479 0.45562 0.07279 0.0
C531 C 0.28325 0.4507 0.08045 0.0
C532 C 0.2081 0.41455 0.11726 0.0
C533 C 0.22407 0.40787 0.12407 0.0
C534 C 0.21924 0.39782 0.13843 0.0
C535 C 0.19842 0.39432 0.14646 0.0
C536 C 0.18259 0.4012 0.13971 0.0
C537 C 0.1873 0.41107 0.12532 0.0
C538 C 0.18122 0.44225 0.0733 0.0
C539 C 0.15601 0.42621 0.07536 0.0
C540 C 0.36277 0.88518 0.26187 0.0
C541 C 0.35566 0.8717 0.27514 0.0
C542 C 0.37114 0.86371 0.28102 0.0
C543 C 0.39316 0.86912 0.27388 0.0
H544 H 0.45565 0.86321 0.279 0.0
H545 H 0.4854 0.85476 0.29121 0.0
H546 H 0.53826 0.89367 0.25662 0.0
H547 H 0.5088 0.90232 0.24448 0.0
H548 H 0.49183 0.91641 0.21561 0.0
H549 H 0.50184 0.93434 0.19096 0.0
H550 H 0.43333 0.93507 0.18975 0.0
H551 H 0.42295 0.91659 0.21444 0.0
H552 H 0.38948 0.90082 0.24445 0.0
H553 H 0.35116 0.89139 0.25692 0.0
H554 H 0.36638 0.85349 0.29129 0.0
H555 H 0.40458 0.86269 0.27881 0.0
N556 N 0.44012 0.88334 0.25985 0.0
N557 N 0.46672 0.89894 0.2394 0.0
N558 N 0.42912 0.89859 0.2392 0.0
C559 C 0.46171 0.88867 0.25315 0.0
C560 C 0.45059 0.90392 0.23229 0.0
C561 C 0.42373 0.88828 0.253 0.0
C562 C 0.47973 0.88347 0.26072 0.0
C563 C 0.47363 0.87003 0.274 0.0
C564 C 0.49064 0.86506 0.28098 0.0
C565 C 0.51425 0.87358 0.27492 0.0
C566 C 0.52037 0.8871 0.2617 0.0
C567 C 0.50335 0.89191 0.25467 0.0
C568 C 0.45655 0.91502 0.21714 0.0
C569 C 0.4788 0.92034 0.21016 0.0
C570 C 0.48466 0.93081 0.19599 0.0
C571 C 0.46849 0.93633 0.18833 0.0
C572 C 0.44614 0.93087 0.19523 0.0
C573 C 0.44025 0.92039 0.20946 0.0
C574 C 0.40025 0.88254 0.26057 0.0
C575 C 0.38471 0.89045 0.25465 0.0
C576 C 0.09434 0.46721 0.26124 0.0
C577 C 0.10397 0.47146 0.27587 0.0
C578 C 0.10658 0.49159 0.28374 0.0
C579 C 0.09973 0.50708 0.27715 0.0
H580 H 0.10311 0.57203 0.28384 0.0
H581 H 0.11266 0.60979 0.29603 0.0
H582 H 0.07751 0.62551 0.25965 0.0
H583 H 0.06833 0.58819 0.24736 0.0
H584 H 0.0529 0.55774 0.21896 0.0
H585 H 0.0346 0.55006 0.19419 0.0
H586 H 0.03425 0.48271 0.19221 0.0
H587 H 0.05317 0.4906 0.21702 0.0
H588 H 0.08018 0.47886 0.24334 0.0
H589 H 0.0924 0.45207 0.25478 0.0
H590 H 0.1136 0.49521 0.2951 0.0
H591 H 0.10194 0.52234 0.2836 0.0
N592 N 0.08677 0.53951 0.26292 0.0
N593 N 0.06992 0.54977 0.2428 0.0
N594 N 0.07233 0.51457 0.24168 0.0
C595 C 0.08035 0.55481 0.25663 0.0
C596 C 0.06582 0.52974 0.23523 0.0
C597 C 0.08281 0.51933 0.25554 0.0
C598 C 0.08513 0.5771 0.26453 0.0
C599 C 0.09733 0.58348 0.27846 0.0
C600 C 0.10269 0.60506 0.2855 0.0
C601 C 0.09601 0.62073 0.27875 0.0
C602 C 0.08331 0.61405 0.26502 0.0
C603 C 0.07794 0.59254 0.258 0.0
C604 C 0.05452 0.52477 0.22007 0.0
C605 C 0.04895 0.54125 0.21332 0.0
C606 C 0.03828 0.53678 0.1991 0.0
C607 C 0.03279 0.5157 0.19124 0.0
C608 C 0.03845 0.49924 0.19791 0.0
C609 C 0.04919 0.50372 0.21218 0.0
C610 C 0.09005 0.50282 0.26252 0.0
C611 C 0.08744 0.48268 0.25465 0.0
C612 C 0.50836 0.62349 0.26178 0.0
C613 C 0.51279 0.62427 0.27721 0.0
C614 C 0.49998 0.60317 0.28562 0.0
C615 C 0.48264 0.58166 0.27871 0.0
H616 H 0.41836 0.51313 0.28641 0.0
H617 H 0.38151 0.48477 0.30011 0.0
H618 H 0.34109 0.46023 0.25856 0.0
H619 H 0.37806 0.48825 0.24476 0.0
H620 H 0.4204 0.49309 0.21658 0.0
H621 H 0.43041 0.48569 0.19142 0.0
H622 H 0.49344 0.55739 0.1907 0.0
H623 H 0.48381 0.56472 0.21572 0.0
H624 H 0.48854 0.60184 0.24286 0.0
H625 H 0.5181 0.63957 0.25509 0.0
H626 H 0.50309 0.60345 0.29756 0.0
H627 H 0.47283 0.56566 0.28545 0.0
N628 N 0.44033 0.54122 0.26327 0.0
N629 N 0.42663 0.51702 0.24163 0.0
N630 N 0.46326 0.55423 0.2412 0.0
C631 C 0.42331 0.52072 0.25625 0.0
C632 C 0.44674 0.53368 0.23405 0.0
C633 C 0.46024 0.55812 0.25575 0.0
C634 C 0.40115 0.50293 0.26448 0.0
C635 C 0.40165 0.50164 0.28018 0.0
C636 C 0.3806 0.48537 0.28803 0.0
C637 C 0.35846 0.47043 0.28039 0.0
C638 C 0.3579 0.47171 0.26472 0.0
C639 C 0.3791 0.48761 0.25683 0.0
C640 C 0.45139 0.52943 0.21832 0.0
C641 C 0.4363 0.50733 0.21103 0.0
C642 C 0.44199 0.5031 0.19657 0.0
C643 C 0.46291 0.52084 0.1891 0.0
C644 C 0.4775 0.54313 0.19623 0.0
C645 C 0.47184 0.54737 0.2106 0.0
C646 C 0.47834 0.5808 0.26321 0.0
C647 C 0.49153 0.6019 0.25481 0.0
Gd648 Gd 0.50875 0.01368 0.01756 0.0
Gd649 Gd 0.48551 0.97684 0.98309 0.0
C650 C 0.41084 0.90776 0.98106 0.0
C651 C 0.4227 0.87734 0.97775 0.0
C652 C 0.45397 0.91961 0.97931 0.0
C653 C 0.43593 0.92571 0.98119 0.0
C654 C 0.44759 0.89541 0.97725 0.0
C655 C 0.40435 0.88351 0.97966 0.0
C656 C 0.39304 0.91478 0.98191 0.0
C657 C 0.40045 0.93919 0.9823 0.0
N658 N 0.44287 0.94931 0.98236 0.0
C659 C 0.42557 0.95631 0.98229 0.0
H660 H 0.43097 0.97509 0.98265 0.0
C661 C 0.49604 0.93267 0.97523 0.0
N662 N 0.47776 0.93753 0.97876 0.0
C663 C 0.49067 0.90894 0.97319 0.0
C664 C 0.46637 0.89019 0.97438 0.0
H665 H 0.51489 0.94708 0.97438 0.0
H666 H 0.38519 0.86944 0.97968 0.0
H667 H 0.56355 0.01599 0.01749 0.0
H668 H 0.37358 0.90155 0.98189 0.0
H669 H 0.38683 0.94484 0.98265 0.0
H670 H 0.41743 0.85862 0.97633 0.0
H671 H 0.4793 0.04286 0.02747 0.0
H672 H 0.62052 0.08969 0.01826 0.0
H673 H 0.6076 0.04649 0.01729 0.0
H674 H 0.57619 0.13191 0.02501 0.0
H675 H 0.50528 0.90513 0.97072 0.0
H676 H 0.46223 0.87182 0.97275 0.0
H677 H 0.6086 0.12152 0.02094 0.0
H678 H 0.48866 0.08456 0.03186 0.0
N679 N 0.55135 0.04153 0.01805 0.0
C680 C 0.6011 0.07635 0.01831 0.0
C681 C 0.59388 0.05199 0.01781 0.0
C682 C 0.58317 0.08317 0.01941 0.0
C683 C 0.55814 0.06508 0.01936 0.0
C684 C 0.56881 0.03472 0.01794 0.0
N685 N 0.51631 0.05285 0.02231 0.0
C686 C 0.54 0.07094 0.02158 0.0
C687 C 0.50327 0.081 0.0289 0.0
C688 C 0.52743 0.09995 0.02747 0.0
C689 C 0.49804 0.0574 0.02643 0.0
C690 C 0.54623 0.09503 0.02399 0.0
H691 H 0.53145 0.11821 0.02942 0.0
O692 O 0.49126 0.00835 0.03927 0.0
O693 O 0.47797 0.9812 0.0068 0.0
O694 O 0.4742 0.00546 0.98468 0.0
O695 O 0.50243 0.03586 0.00052 0.0
O696 O 0.46831 0.00098 0.02047 0.0
O697 O 0.52348 0.0046 0.03692 0.0
O698 O 0.50361 0.98223 0.96158 0.0
O699 O 0.51609 0.00938 0.99381 0.0
O700 O 0.52039 0.98538 0.01571 0.0
O701 O 0.49138 0.95467 0.00044 0.0
O702 O 0.52601 0.98966 0.98027 0.0
O703 O 0.47098 0.98543 0.96338 0.0
C704 C 0.4598 0.98193 0.01229 0.0
C705 C 0.57103 0.11326 0.02334 0.0
C706 C 0.58948 0.10734 0.02103 0.0
C707 C 0.50745 0.0047 0.04613 0.0
C708 C 0.51718 0.01765 0.06038 0.0
C709 C 0.53393 0.04241 0.06049 0.0
C710 C 0.50965 0.00518 0.07402 0.0
C711 C 0.51894 0.01737 0.08776 0.0
C712 C 0.54304 0.05463 0.074 0.0
C713 C 0.53565 0.04229 0.08753 0.0
C714 C 0.48551 0.02793 0.98977 0.0
C715 C 0.53435 0.00885 0.98832 0.0
C716 C 0.48763 0.98589 0.95446 0.0
C717 C 0.47904 0.97366 0.93987 0.0
C718 C 0.4627 0.94884 0.93914 0.0
C719 C 0.48774 0.98685 0.92652 0.0
C720 C 0.48039 0.97524 0.91245 0.0
C721 C 0.4552 0.93726 0.9253 0.0
C722 C 0.46397 0.95028 0.91206 0.0
C723 C 0.50865 0.96273 0.01098 0.0
H724 H 0.53997 0.05227 0.05014 0.0
H725 H 0.49691 0.98598 0.07389 0.0
H726 H 0.55589 0.07378 0.074 0.0
H727 H 0.54284 0.05234 0.09784 0.0
H728 H 0.45581 0.93843 0.94926 0.0
H729 H 0.50058 0.00601 0.9271 0.0
H730 H 0.44254 0.91808 0.92481 0.0
H731 H 0.45764 0.9408 0.9015 0.0
Gd732 Gd 0.97831 0.49197 0.01854 0.0
Gd733 Gd 0.0189 0.50368 0.986 0.0
C734 C 0.08764 0.49623 0.98787 0.0
C735 C 0.12039 0.53743 0.98418 0.0
C736 C 0.07757 0.52766 0.98423 0.0
C737 C 0.0701 0.50382 0.98681 0.0
C738 C 0.10275 0.54466 0.98248 0.0
C739 C 0.11284 0.51325 0.9869 0.0
C740 C 0.07928 0.47169 0.98947 0.0
C741 C 0.05401 0.45536 0.9894 0.0
N742 N 0.0456 0.48785 0.98752 0.0
C743 C 0.03734 0.46376 0.98818 0.0
H744 H 0.01789 0.45089 0.9882 0.0
C745 C 0.06625 0.55655 0.97796 0.0
N746 N 0.06004 0.53394 0.98252 0.0
C747 C 0.09098 0.57408 0.9761 0.0
C748 C 0.10936 0.5682 0.97859 0.0
H749 H 0.05211 0.56122 0.97612 0.0
H750 H 0.1266 0.50781 0.98785 0.0
H751 H 0.97939 0.54476 0.01668 0.0
H752 H 0.09215 0.46514 0.9904 0.0
H753 H 0.04734 0.4363 0.99034 0.0
H754 H 0.13985 0.55026 0.98303 0.0
H755 H 0.94479 0.43437 0.02832 0.0
H756 H 0.9052 0.53057 0.01346 0.0
H757 H 0.95 0.55942 0.01431 0.0
H758 H 0.85727 0.44526 0.01989 0.0
H759 H 0.09586 0.59211 0.97281 0.0
H760 H 0.1285 0.58179 0.97711 0.0
H761 H 0.87067 0.4878 0.01529 0.0
H762 H 0.90093 0.40342 0.03109 0.0
N763 N 0.95166 0.5078 0.0167 0.0
C764 C 0.91804 0.52399 0.01447 0.0
C765 C 0.9433 0.54033 0.01499 0.0
C766 C 0.90963 0.49939 0.01577 0.0
C767 C 0.92713 0.49178 0.01699 0.0
C768 C 0.95993 0.5319 0.01635 0.0
N769 N 0.93706 0.46162 0.02154 0.0
C770 C 0.91958 0.4679 0.01949 0.0
C771 C 0.90591 0.42146 0.02774 0.0
C772 C 0.88762 0.42731 0.02488 0.0
C773 C 0.93071 0.43901 0.02619 0.0
C774 C 0.89434 0.45088 0.02095 0.0
H775 H 0.86842 0.41371 0.02613 0.0
O776 O 0.98001 0.47961 0.04085 0.0
O777 O 0.01212 0.49317 0.00989 0.0
O778 O 0.98821 0.46442 0.98723 0.0
O779 O 0.95636 0.4635 0.00121 0.0
O780 O 0.99006 0.46468 0.02351 0.0
O781 O 0.98536 0.51534 0.03773 0.0
O782 O 0.01679 0.51575 0.96365 0.0
O783 O 0.98534 0.5026 0.99476 0.0
O784 O 0.00929 0.53115 0.01761 0.0
O785 O 0.041 0.53238 0.00326 0.0
O786 O 0.00698 0.53095 0.98103 0.0
O787 O 0.01062 0.47977 0.96693 0.0
C788 C 0.01044 0.47486 0.01621 0.0
C789 C 0.87676 0.45812 0.01898 0.0
C790 C 0.8844 0.48234 0.01637 0.0
C791 C 0.98299 0.49909 0.04733 0.0
C792 C 0.96728 0.49555 0.06033 0.0
C793 C 0.94282 0.49017 0.05848 0.0
C794 C 0.97683 0.49733 0.07479 0.0
C795 C 0.96205 0.49371 0.08744 0.0
C796 C 0.928 0.48642 0.07093 0.0
C797 C 0.93747 0.48812 0.08532 0.0
C798 C 0.96471 0.454 0.99125 0.0
C799 C 0.98675 0.52077 0.98848 0.0
C800 C 0.01277 0.49585 0.95726 0.0
C801 C 0.0273 0.49841 0.94382 0.0
C802 C 0.05214 0.50478 0.94496 0.0
C803 C 0.01615 0.4945 0.92965 0.0
C804 C 0.0297 0.49692 0.91658 0.0
C805 C 0.06574 0.50733 0.93209 0.0
C806 C 0.05467 0.50346 0.91799 0.0
C807 C 0.03274 0.54168 0.01343 0.0
H808 H 0.9352 0.4889 0.04747 0.0
H809 H 0.99587 0.50188 0.07614 0.0
H810 H 0.90908 0.48213 0.06942 0.0
H811 H 0.92546 0.48484 0.09478 0.0
H812 H 0.061 0.50777 0.95575 0.0
H813 H -0.00317 0.48925 0.92885 0.0
H814 H 0.08496 0.51237 0.93304 0.0
H815 H 0.06576 0.50585 0.90819 0.0
Gd816 Gd 0.48888 0.5075 0.98456 0.0
Gd817 Gd 0.51046 0.49151 0.01882 0.0
C818 C 0.58485 0.49466 0.02085 0.0
C819 C 0.57266 0.45259 0.02391 0.0
C820 C 0.54163 0.46465 0.0223 0.0
C821 C 0.55982 0.48832 0.02062 0.0
C822 C 0.54782 0.44657 0.02437 0.0
C823 C 0.59115 0.4766 0.02213 0.0
C824 C 0.6028 0.51901 0.02027 0.0
C825 C 0.59556 0.53633 0.02009 0.0
N826 N 0.55305 0.5053 0.01964 0.0
C827 C 0.57049 0.52913 0.02002 0.0
H828 H 0.56523 0.54274 0.01983 0.0
C829 C 0.4995 0.43701 0.02648 0.0
N830 N 0.51789 0.45955 0.02285 0.0
C831 C 0.5047 0.41843 0.0286 0.0
C832 C 0.52893 0.42315 0.02733 0.0
H833 H 0.48072 0.43323 0.02737 0.0
H834 H 0.61028 0.4811 0.02218 0.0
H835 H 0.43389 0.45666 0.98353 0.0
H836 H 0.62223 0.52464 0.02038 0.0
H837 H 0.60929 0.55523 0.01996 0.0
H838 H 0.57779 0.43892 0.02533 0.0
H839 H 0.51901 0.56573 0.97566 0.0
H840 H 0.37741 0.47552 0.98368 0.0
H841 H 0.3899 0.44458 0.98367 0.0
H842 H 0.42256 0.56122 0.97874 0.0
H843 H 0.49001 0.40048 0.03116 0.0
H844 H 0.53292 0.40874 0.02901 0.0
H845 H 0.38981 0.51919 0.98205 0.0
H846 H 0.51009 0.59874 0.97201 0.0
N847 N 0.4464 0.49415 0.98395 0.0
C848 C 0.3968 0.48095 0.98365 0.0
C849 C 0.40377 0.46344 0.98359 0.0
C850 C 0.41492 0.50524 0.98309 0.0
C851 C 0.43989 0.51132 0.98313 0.0
C852 C 0.42879 0.47039 0.9835 0.0
N853 N 0.48189 0.53976 0.9806 0.0
C854 C 0.45824 0.53491 0.98136 0.0
C855 C 0.49535 0.5809 0.97473 0.0
C856 C 0.47126 0.57647 0.97626 0.0
C857 C 0.50034 0.56217 0.97678 0.0
C858 C 0.45226 0.55317 0.97938 0.0
H859 H 0.46743 0.59099 0.97463 0.0
O860 O 0.50811 0.5194 0.96341 0.0
O861 O 0.51887 0.50385 0.9953 0.0
O862 O 0.52214 0.53126 0.01811 0.0
O863 O 0.49503 0.53542 0.00206 0.0
O864 O 0.52956 0.53393 0.9824 0.0
O865 O 0.47328 0.48621 0.96428 0.0
O866 O 0.4923 0.47836 0.04019 0.0
O867 O 0.48051 0.49502 0.00802 0.0
O868 O 0.47719 0.46766 0.98534 0.0
O869 O 0.50475 0.46402 0.00125 0.0
O870 O 0.46963 0.46521 0.02111 0.0
O871 O 0.52461 0.51373 0.03878 0.0
C872 C 0.53744 0.52234 0.99024 0.0
C873 C 0.42752 0.54742 0.98007 0.0
C874 C 0.40887 0.52348 0.98195 0.0
C875 C 0.49104 0.5015 0.95577 0.0
C876 C 0.48396 0.50773 0.94147 0.0
C877 C 0.47208 0.52127 0.94126 0.0
C878 C 0.49017 0.501 0.92786 0.0
C879 C 0.48502 0.50818 0.91401 0.0
C880 C 0.46692 0.52849 0.9277 0.0
C881 C 0.4735 0.52225 0.91421 0.0
C882 C 0.51126 0.54316 0.0132 0.0
C883 C 0.46183 0.47672 0.01312 0.0
C884 C 0.50832 0.49736 0.04754 0.0
C885 C 0.51764 0.49301 0.06161 0.0
C886 C 0.53486 0.48517 0.06146 0.0
C887 C 0.50924 0.49679 0.07536 0.0
C888 C 0.51813 0.49292 0.08897 0.0
C889 C 0.54358 0.48108 0.07486 0.0
C890 C 0.53533 0.48492 0.08852 0.0
C891 C 0.4883 0.45597 0.99025 0.0
H892 H 0.46706 0.52651 0.95156 0.0
H893 H 0.49894 0.49014 0.92816 0.0
H894 H 0.45804 0.53925 0.92764 0.0
H895 H 0.46985 0.52886 0.90397 0.0
H896 H 0.54158 0.48224 0.05101 0.0
H897 H 0.49615 0.50315 0.07544 0.0
H898 H 0.55682 0.47493 0.07466 0.0
H899 H 0.54228 0.48142 0.09874 0.0
Gd900 Gd 0.17467 0.34575 0.35201 0.0
Gd901 Gd 0.15378 0.30944 0.31697 0.0
C902 C 0.07955 0.23997 0.31358 0.0
C903 C 0.09195 0.20987 0.31078 0.0
C904 C 0.12284 0.25222 0.31276 0.0
C905 C 0.10456 0.25807 0.31419 0.0
C906 C 0.11679 0.22811 0.31071 0.0
C907 C 0.07335 0.2158 0.31222 0.0
C908 C 0.06156 0.24678 0.3139 0.0
C909 C 0.06875 0.27114 0.3142 0.0
N910 N 0.11126 0.28161 0.31532 0.0
C911 C 0.09382 0.28841 0.31469 0.0
H912 H 0.09904 0.30714 0.31502 0.0
C913 C 0.16518 0.26572 0.3095 0.0
N914 N 0.14657 0.2703 0.31261 0.0
C915 C 0.16014 0.24209 0.30747 0.0
C916 C 0.13586 0.22316 0.30825 0.0
H917 H 0.184 0.28025 0.30898 0.0
H918 H 0.05424 0.20162 0.31189 0.0
H919 H 0.22929 0.3479 0.35434 0.0
H920 H 0.04214 0.23344 0.3135 0.0
H921 H 0.05501 0.27664 0.31413 0.0
H922 H 0.08692 0.19121 0.30935 0.0
H923 H 0.14454 0.37515 0.35961 0.0
H924 H 0.28634 0.42155 0.35558 0.0
H925 H 0.27335 0.37831 0.35529 0.0
H926 H 0.24175 0.46405 0.359 0.0
H927 H 0.17499 0.23849 0.30532 0.0
H928 H 0.13199 0.20487 0.30663 0.0
H929 H 0.27436 0.45349 0.35678 0.0
H930 H 0.15366 0.41701 0.36297 0.0
N931 N 0.2172 0.3735 0.35366 0.0
C932 C 0.26692 0.40825 0.35515 0.0
C933 C 0.25965 0.38387 0.35504 0.0
C934 C 0.24898 0.41513 0.35524 0.0
C935 C 0.22395 0.39708 0.35461 0.0
C936 C 0.23458 0.36664 0.35451 0.0
N937 N 0.18196 0.38498 0.35606 0.0
C938 C 0.20571 0.40302 0.35587 0.0
C939 C 0.16848 0.41334 0.36092 0.0
C940 C 0.19278 0.43222 0.36009 0.0
C941 C 0.16338 0.38966 0.35907 0.0
C942 C 0.21182 0.42717 0.35777 0.0
H943 H 0.19669 0.45054 0.36158 0.0
O944 O 0.15602 0.34083 0.37328 0.0
O945 O 0.14497 0.3137 0.34042 0.0
O946 O 0.14193 0.33761 0.31842 0.0
O947 O 0.16993 0.36802 0.33431 0.0
O948 O 0.13388 0.33242 0.35399 0.0
O949 O 0.18752 0.33572 0.37185 0.0
O950 O 0.17305 0.31549 0.29583 0.0
O951 O 0.18347 0.34138 0.32862 0.0
O952 O 0.18637 0.31747 0.35071 0.0
O953 O 0.15885 0.28713 0.33456 0.0
O954 O 0.19455 0.32259 0.31509 0.0
O955 O 0.14068 0.31917 0.29709 0.0
C956 C 0.12628 0.31381 0.34547 0.0
C957 C 0.23668 0.44536 0.3577 0.0
C958 C 0.25524 0.43934 0.35643 0.0
C959 C 0.17119 0.33625 0.3806 0.0
C960 C 0.18026 0.34864 0.39511 0.0
C961 C 0.1962 0.37355 0.39563 0.0
C962 C 0.173 0.3355 0.40855 0.0
C963 C 0.18177 0.34719 0.4225 0.0
C964 C 0.20478 0.38526 0.40935 0.0
C965 C 0.19767 0.37228 0.42266 0.0
C966 C 0.15326 0.36011 0.32343 0.0
C967 C 0.20216 0.34117 0.32364 0.0
C968 C 0.15765 0.31966 0.28844 0.0
C969 C 0.14953 0.30781 0.2737 0.0
C970 C 0.13342 0.28297 0.27274 0.0
C971 C 0.15833 0.32135 0.26046 0.0
C972 C 0.15131 0.31002 0.24629 0.0
C973 C 0.12624 0.27168 0.2588 0.0
C974 C 0.13511 0.28502 0.24569 0.0
C975 C 0.17526 0.29502 0.3456 0.0
H976 H 0.20198 0.38392 0.38545 0.0
H977 H 0.16088 0.31619 0.4081 0.0
H978 H 0.217 0.40453 0.40967 0.0
H979 H 0.20443 0.38198 0.43312 0.0
H980 H 0.12645 0.27231 0.28276 0.0
H981 H 0.17096 0.34054 0.26121 0.0
H982 H 0.11374 0.25249 0.25814 0.0
H983 H 0.12904 0.27575 0.23504 0.0
Gd984 Gd 0.64686 0.827 0.3456 0.0
Gd985 Gd 0.68499 0.83453 0.31251 0.0
C986 C 0.69527 0.77571 0.29051 0.0
C987 C 0.73224 0.78097 0.3029 0.0
C988 C 0.71584 0.80717 0.30907 0.0
C989 C 0.69671 0.79484 0.29909 0.0
C990 C 0.73423 0.8008 0.3108 0.0
C991 C 0.71278 0.76844 0.29276 0.0
C992 C 0.67683 0.76505 0.27957 0.0
C993 C 0.66109 0.77417 0.277 0.0
N994 N 0.68029 0.80251 0.29713 0.0
C995 C 0.6634 0.79333 0.2857 0.0
H996 H 0.6512 0.80029 0.28356 0.0
C997 C 0.73767 0.84105 0.32477 0.0
N998 N 0.7173 0.82636 0.31638 0.0
C999 C 0.75638 0.83547 0.32686 0.0
C1000 C 0.75447 0.81504 0.32005 0.0
H1001 H 0.73941 0.85688 0.33012 0.0
H1002 H 0.71184 0.75362 0.28639 0.0
H1003 H 0.63996 0.87511 0.34143 0.0
H1004 H 0.67511 0.75031 0.27275 0.0
H1005 H 0.64721 0.76652 0.26828 0.0
H1006 H 0.74602 0.77564 0.30421 0.0
H1007 H 0.61909 0.76959 0.35763 0.0
H1008 H 0.56309 0.85149 0.33817 0.0
H1009 H 0.6065 0.88433 0.33838 0.0
H1010 H 0.52468 0.76682 0.3469 0.0
H1011 H 0.77219 0.84689 0.33381 0.0
H1012 H 0.76898 0.81074 0.3217 0.0
H1013 H 0.53268 0.80749 0.34101 0.0
H1014 H 0.57711 0.73529 0.36042 0.0
N1015 N 0.61589 0.8373 0.3428 0.0
C1016 C 0.57772 0.84732 0.33959 0.0
C1017 C 0.60219 0.8659 0.33973 0.0
C1018 C 0.57242 0.82365 0.3417 0.0
C1019 C 0.59217 0.81921 0.34348 0.0
C1020 C 0.62114 0.86057 0.34144 0.0
N1021 N 0.60724 0.79326 0.34932 0.0
C1022 C 0.58768 0.79642 0.3468 0.0
C1023 C 0.57982 0.75233 0.35647 0.0
C1024 C 0.55955 0.75494 0.35301 0.0
C1025 C 0.60364 0.77188 0.35485 0.0
C1026 C 0.5633 0.77731 0.34841 0.0
H1027 H 0.54112 0.7398 0.35436 0.0
O1028 O 0.65932 0.82408 0.36787 0.0
O1029 O 0.68134 0.82897 0.33701 0.0
O1030 O 0.65677 0.79494 0.31543 0.0
O1031 O 0.62578 0.7958 0.3296 0.0
O1032 O 0.66009 0.80123 0.35146 0.0
O1033 O 0.64598 0.84856 0.36418 0.0
O1034 O 0.71924 0.86273 0.30308 0.0
O1035 O 0.65716 0.84222 0.32285 0.0
O1036 O 0.67359 0.86637 0.34114 0.0
O1037 O 0.70559 0.86506 0.32925 0.0
O1038 O 0.65094 0.82985 0.30087 0.0
O1039 O 0.68483 0.8536 0.29247 0.0
C1040 C 0.67982 0.81086 0.34357 0.0
C1041 C 0.54353 0.78133 0.34588 0.0
C1042 C 0.54809 0.80448 0.34253 0.0
C1043 C 0.65322 0.83861 0.37404 0.0
C1044 C 0.63846 0.82978 0.38774 0.0
C1045 C 0.61277 0.81533 0.3869 0.0
C1046 C 0.65027 0.83491 0.40175 0.0
C1047 C 0.63659 0.82527 0.41497 0.0
C1048 C 0.59907 0.80569 0.39985 0.0
C1049 C 0.61082 0.8104 0.41376 0.0
C1050 C 0.63383 0.78494 0.32045 0.0
C1051 C 0.64253 0.83653 0.31182 0.0
C1052 C 0.70862 0.86517 0.29124 0.0
C1053 C 0.71893 0.86409 0.27651 0.0
C1054 C 0.74402 0.87118 0.27541 0.0
C1055 C 0.70409 0.85626 0.26347 0.0
C1056 C 0.71414 0.85523 0.24956 0.0
C1057 C 0.75404 0.87023 0.2617 0.0
C1058 C 0.7393 0.86233 0.24889 0.0
C1059 C 0.69716 0.87637 0.33765 0.0
H1060 H 0.60331 0.81136 0.37626 0.0
H1061 H 0.67008 0.84649 0.40228 0.0
H1062 H 0.57927 0.7943 0.3991 0.0
H1063 H 0.59964 0.80205 0.42351 0.0
H1064 H 0.75594 0.87749 0.28516 0.0
H1065 H 0.68471 0.85068 0.26415 0.0
H1066 H 0.7734 0.87577 0.26099 0.0
H1067 H 0.74775 0.86219 0.23837 0.0
Gd1068 Gd 0.14912 0.83541 0.31225 0.0
Gd1069 Gd 0.17169 0.82363 0.34752 0.0
C1070 C 0.24149 0.81773 0.34668 0.0
C1071 C 0.2255 0.77552 0.35226 0.0
C1072 C 0.19795 0.79189 0.35118 0.0
C1073 C 0.21741 0.81414 0.34762 0.0
C1074 C 0.20184 0.77246 0.35401 0.0
C1075 C 0.24532 0.79814 0.34858 0.0
C1076 C 0.26108 0.84104 0.34443 0.0
C1077 C 0.25646 0.86013 0.34376 0.0
N1078 N 0.21304 0.83266 0.34611 0.0
C1079 C 0.23225 0.85564 0.34479 0.0
H1080 H 0.22904 0.87059 0.3441 0.0
C1081 C 0.15662 0.76934 0.35907 0.0
N1082 N 0.17548 0.78974 0.353 0.0
C1083 C 0.15946 0.74946 0.36192 0.0
C1084 C 0.18206 0.75087 0.35912 0.0
H1085 H 0.13915 0.76816 0.36135 0.0
H1086 H 0.26363 0.80048 0.34773 0.0
H1087 H 0.14006 0.80075 0.28258 0.0
H1088 H 0.27984 0.84456 0.34362 0.0
H1089 H 0.27153 0.87831 0.34234 0.0
H1090 H 0.22883 0.76074 0.35421 0.0
H1091 H 0.12669 0.86652 0.33028 0.0
H1092 H 0.06263 0.75962 0.27322 0.0
H1093 H 0.10538 0.7696 0.26759 0.0
H1094 H 0.0293 0.79553 0.30582 0.0
H1095 H 0.14425 0.73311 0.36631 0.0
H1096 H 0.18428 0.73552 0.36144 0.0
H1097 H 0.03422 0.76925 0.28774 0.0
H1098 H 0.08693 0.8643 0.33447 0.0
N1099 N 0.11692 0.80651 0.29725 0.0
C1100 C 0.07774 0.77293 0.27995 0.0
C1101 C 0.10183 0.77852 0.27673 0.0
C1102 C 0.07362 0.7856 0.29127 0.0
C1103 C 0.09396 0.80274 0.29968 0.0
C1104 C 0.12137 0.79595 0.28529 0.0
N1105 N 0.11177 0.83509 0.31656 0.0
C1106 C 0.0913 0.81763 0.30966 0.0
C1107 C 0.08786 0.85099 0.32748 0.0
C1108 C 0.06647 0.8324 0.32103 0.0
C1109 C 0.11049 0.8522 0.32502 0.0
C1110 C 0.06805 0.81565 0.31177 0.0
H1111 H 0.04896 0.83148 0.32299 0.0
O1112 O 0.15106 0.86608 0.3007 0.0
O1113 O 0.18202 0.83936 0.32476 0.0
O1114 O 0.18772 0.8636 0.34519 0.0
O1115 O 0.16546 0.86931 0.32635 0.0
O1116 O 0.17581 0.82497 0.30323 0.0
O1117 O 0.16984 0.8487 0.29157 0.0
O1118 O 0.15299 0.819 0.36884 0.0
O1119 O 0.14256 0.8291 0.33669 0.0
O1120 O 0.13421 0.79522 0.31413 0.0
O1121 O 0.15896 0.79102 0.33245 0.0
O1122 O 0.13102 0.79915 0.35014 0.0
O1123 O 0.19172 0.84396 0.36729 0.0
C1124 C 0.19027 0.83136 0.31467 0.0
C1125 C 0.04736 0.79754 0.3042 0.0
C1126 C 0.05015 0.78254 0.29394 0.0
C1127 C 0.16296 0.86438 0.2893 0.0
C1128 C 0.1539 0.86541 0.27405 0.0
C1129 C 0.14046 0.8773 0.27203 0.0
C1130 C 0.1598 0.85603 0.26134 0.0
C1131 C 0.15247 0.85868 0.24678 0.0
C1132 C 0.13316 0.87997 0.25779 0.0
C1133 C 0.13923 0.871 0.2453 0.0
C1134 C 0.18101 0.87716 0.33779 0.0
C1135 C 0.12373 0.81092 0.34203 0.0
C1136 C 0.1729 0.8335 0.37613 0.0
C1137 C 0.17682 0.82466 0.3905 0.0
C1138 C 0.18955 0.81188 0.39101 0.0
C1139 C 0.16755 0.82879 0.40383 0.0
C1140 C 0.17085 0.82011 0.41763 0.0
C1141 C 0.19289 0.80324 0.40459 0.0
C1142 C 0.18365 0.80729 0.41779 0.0
C1143 C 0.14278 0.78273 0.32126 0.0
H1144 H 0.13586 0.88492 0.28146 0.0
H1145 H 0.17006 0.84673 0.26281 0.0
H1146 H 0.12304 0.88942 0.25638 0.0
H1147 H 0.13393 0.87429 0.23442 0.0
H1148 H 0.19699 0.80866 0.38094 0.0
H1149 H 0.15754 0.8385 0.40341 0.0
H1150 H 0.2028 0.79346 0.40489 0.0
H1151 H 0.1869 0.80069 0.42818 0.0
Gd1152 Gd 0.83888 0.67834 0.68473 0.0
Gd1153 Gd 0.81923 0.64282 0.6495 0.0
C1154 C 0.74553 0.57284 0.64593 0.0
C1155 C 0.7585 0.54327 0.64246 0.0
C1156 C 0.78895 0.58569 0.64482 0.0
C1157 C 0.77045 0.59117 0.64656 0.0
C1158 C 0.78323 0.56176 0.64237 0.0
C1159 C 0.73967 0.5488 0.64426 0.0
C1160 C 0.72729 0.5793 0.64647 0.0
C1161 C 0.73415 0.60357 0.64696 0.0
N1162 N 0.77681 0.6146 0.64789 0.0
C1163 C 0.75913 0.62109 0.64743 0.0
H1164 H 0.76409 0.63975 0.64786 0.0
C1165 C 0.83133 0.59991 0.64105 0.0
N1166 N 0.81256 0.60402 0.64464 0.0
C1167 C 0.82662 0.57648 0.63856 0.0
C1168 C 0.80249 0.55727 0.63942 0.0
H1169 H 0.85003 0.61468 0.64048 0.0
H1170 H 0.72064 0.53444 0.64391 0.0
H1171 H 0.89402 0.68144 0.68644 0.0
H1172 H 0.70794 0.56577 0.64606 0.0
H1173 H 0.7202 0.60882 0.64702 0.0
H1174 H 0.75372 0.52473 0.64075 0.0
H1175 H 0.8081 0.70655 0.69363 0.0
H1176 H 0.95016 0.75545 0.68785 0.0
H1177 H 0.93791 0.7124 0.68716 0.0
H1178 H 0.90437 0.79654 0.69285 0.0
H1179 H 0.84159 0.57325 0.63602 0.0
H1180 H 0.79887 0.53913 0.63745 0.0
H1181 H 0.93745 0.7868 0.68978 0.0
H1182 H 0.81654 0.74804 0.69787 0.0
N1183 N 0.8813 0.70658 0.68623 0.0
C1184 C 0.93081 0.74191 0.6875 0.0
C1185 C 0.92397 0.71763 0.68716 0.0
C1186 C 0.91257 0.74838 0.68797 0.0
C1187 C 0.88765 0.73003 0.68742 0.0
C1188 C 0.89898 0.7001 0.68676 0.0
N1189 N 0.84554 0.71719 0.68938 0.0
C1190 C 0.86915 0.73552 0.6891 0.0
C1191 C 0.8315 0.74479 0.69534 0.0
C1192 C 0.85562 0.764 0.69436 0.0
C1193 C 0.82679 0.72132 0.69297 0.0
C1194 C 0.87486 0.75948 0.69143 0.0
H1195 H 0.85923 0.78215 0.69623 0.0
O1196 O 0.81993 0.67257 0.70599 0.0
O1197 O 0.8098 0.64606 0.67297 0.0
O1198 O 0.80683 0.67061 0.65081 0.0
O1199 O 0.83329 0.70069 0.66745 0.0
O1200 O 0.79793 0.66427 0.6864 0.0
O1201 O 0.85224 0.6688 0.70455 0.0
O1202 O 0.83839 0.6489 0.62829 0.0
O1203 O 0.8483 0.675 0.66129 0.0
O1204 O 0.85117 0.65047 0.68349 0.0
O1205 O 0.82496 0.62043 0.66673 0.0
O1206 O 0.86019 0.65682 0.64788 0.0
O1207 O 0.80611 0.65272 0.62972 0.0
C1208 C 0.79079 0.64569 0.67792 0.0
C1209 C 0.89959 0.77798 0.69124 0.0
C1210 C 0.91842 0.77243 0.68949 0.0
C1211 C 0.83556 0.66862 0.7133 0.0
C1212 C 0.84431 0.68104 0.72782 0.0
C1213 C 0.85973 0.70604 0.72837 0.0
C1214 C 0.83742 0.66786 0.74126 0.0
C1215 C 0.84612 0.67961 0.75519 0.0
C1216 C 0.86818 0.7178 0.74208 0.0
C1217 C 0.86148 0.70476 0.75538 0.0
C1218 C 0.81742 0.69292 0.65613 0.0
C1219 C 0.86733 0.6754 0.65637 0.0
C1220 C 0.82293 0.65312 0.621 0.0
C1221 C 0.81447 0.6412 0.60631 0.0
C1222 C 0.7989 0.61625 0.60542 0.0
C1223 C 0.82182 0.65485 0.59306 0.0
C1224 C 0.81345 0.64362 0.57895 0.0
C1225 C 0.79076 0.605 0.59154 0.0
C1226 C 0.79792 0.61849 0.57842 0.0
C1227 C 0.84073 0.6282 0.67812 0.0
H1228 H 0.86526 0.71645 0.71821 0.0
H1229 H 0.82572 0.64849 0.74081 0.0
H1230 H 0.88 0.73712 0.74241 0.0
H1231 H 0.86817 0.71447 0.76585 0.0
H1232 H 0.79303 0.6055 0.61545 0.0
H1233 H 0.83365 0.67418 0.59377 0.0
H1234 H 0.77882 0.5857 0.59094 0.0
H1235 H 0.79146 0.60917 0.56782 0.0
Gd1236 Gd 0.30853 0.15271 0.68542 0.0
Gd1237 Gd 0.34909 0.16532 0.65269 0.0
C1238 C 0.41795 0.15805 0.65423 0.0
C1239 C 0.45067 0.19943 0.65118 0.0
C1240 C 0.40782 0.18953 0.65116 0.0
C1241 C 0.40038 0.16561 0.65338 0.0
C1242 C 0.433 0.20664 0.64961 0.0
C1243 C 0.44315 0.17516 0.65352 0.0
C1244 C 0.40963 0.13344 0.65526 0.0
C1245 C 0.38438 0.11706 0.65483 0.0
N1246 N 0.37588 0.14956 0.65379 0.0
C1247 C 0.36768 0.12546 0.65385 0.0
H1248 H 0.34824 0.11255 0.65358 0.0
C1249 C 0.39644 0.21849 0.6452 0.0
N1250 N 0.39025 0.19577 0.64951 0.0
C1251 C 0.42118 0.23613 0.64355 0.0
C1252 C 0.43958 0.23028 0.64599 0.0
H1253 H 0.38229 0.22315 0.64341 0.0
H1254 H 0.45694 0.16973 0.65432 0.0
H1255 H 0.30897 0.20517 0.68383 0.0
H1256 H 0.42252 0.12689 0.65599 0.0
H1257 H 0.37774 0.09796 0.6553 0.0
H1258 H 0.47014 0.21235 0.65019 0.0
H1259 H 0.27569 0.09475 0.69463 0.0
H1260 H 0.23445 0.19025 0.68172 0.0
H1261 H 0.27917 0.21944 0.68201 0.0
H1262 H 0.18741 0.10482 0.68785 0.0
H1263 H 0.42604 0.25424 0.64045 0.0
H1264 H 0.45873 0.24395 0.64466 0.0
H1265 H 0.20029 0.14734 0.68367 0.0
H1266 H 0.23202 0.06345 0.69758 0.0
N1267 N 0.28151 0.16813 0.68409 0.0
C1268 C 0.24746 0.18385 0.68249 0.0
C1269 C 0.27269 0.20038 0.68269 0.0
C1270 C 0.23933 0.1593 0.68372 0.0
C1271 C 0.25705 0.15193 0.6846 0.0
C1272 C 0.28954 0.19219 0.68372 0.0
N1273 N 0.26747 0.12191 0.6884 0.0
C1274 C 0.24978 0.12802 0.68678 0.0
C1275 C 0.23675 0.08151 0.69444 0.0
C1276 C 0.21823 0.0872 0.692 0.0
C1277 C 0.26145 0.09926 0.69278 0.0
C1278 C 0.22464 0.11079 0.68836 0.0
H1279 H 0.19912 0.07344 0.69334 0.0
O1280 O 0.31196 0.14067 0.70749 0.0
O1281 O 0.34223 0.15413 0.67643 0.0
O1282 O 0.31843 0.12607 0.65364 0.0
O1283 O 0.28656 0.12468 0.66788 0.0
O1284 O 0.32042 0.12534 0.68993 0.0
O1285 O 0.3144 0.17528 0.70495 0.0
O1286 O 0.34725 0.17805 0.63051 0.0
O1287 O 0.31553 0.16407 0.6617 0.0
O1288 O 0.33925 0.19193 0.68458 0.0
O1289 O 0.37108 0.19336 0.67027 0.0
O1290 O 0.33726 0.19272 0.64819 0.0
O1291 O 0.34057 0.14183 0.63339 0.0
C1292 C 0.34063 0.13568 0.68246 0.0
C1293 C 0.20684 0.11784 0.68683 0.0
C1294 C 0.21418 0.14205 0.68448 0.0
C1295 C 0.31375 0.15944 0.71429 0.0
C1296 C 0.29832 0.1545 0.72764 0.0
C1297 C 0.27268 0.14376 0.72633 0.0
C1298 C 0.30929 0.15965 0.7419 0.0
C1299 C 0.29472 0.15355 0.75493 0.0
C1300 C 0.25809 0.13767 0.73907 0.0
C1301 C 0.26892 0.14228 0.75326 0.0
C1302 C 0.29494 0.11555 0.65769 0.0
C1303 C 0.31699 0.18241 0.6556 0.0
C1304 C 0.34303 0.15824 0.6239 0.0
C1305 C 0.35766 0.16095 0.61049 0.0
C1306 C 0.38264 0.16784 0.61167 0.0
C1307 C 0.34649 0.15665 0.5963 0.0
C1308 C 0.36016 0.15919 0.58327 0.0
C1309 C 0.39635 0.1705 0.59884 0.0
C1310 C 0.38527 0.16625 0.58473 0.0
C1311 C 0.36273 0.20249 0.68048 0.0
H1312 H 0.26392 0.13986 0.7155 0.0
H1313 H 0.32917 0.16846 0.74276 0.0
H1314 H 0.23826 0.12908 0.73796 0.0
H1315 H 0.25693 0.13664 0.76289 0.0
H1316 H 0.39151 0.17114 0.62247 0.0
H1317 H 0.32708 0.151 0.59547 0.0
H1318 H 0.41567 0.17594 0.59982 0.0
H1319 H 0.39645 0.16876 0.57496 0.0
Gd1320 Gd 0.81855 0.16757 0.65006 0.0
Gd1321 Gd 0.8413 0.15228 0.68419 0.0
C1322 C 0.91642 0.15693 0.68586 0.0
C1323 C 0.90502 0.11495 0.68823 0.0
C1324 C 0.87339 0.12628 0.68711 0.0
C1325 C 0.89125 0.15013 0.68572 0.0
C1326 C 0.88005 0.10843 0.68872 0.0
C1327 C 0.92319 0.13917 0.68679 0.0
C1328 C 0.93401 0.1814 0.68544 0.0
C1329 C 0.92631 0.19837 0.68542 0.0
N1330 N 0.88404 0.16679 0.68497 0.0
C1331 C 0.90113 0.19072 0.6854 0.0
H1332 H 0.89552 0.20408 0.68531 0.0
C1333 C 0.83136 0.09776 0.69077 0.0
N1334 N 0.8495 0.12068 0.68766 0.0
C1335 C 0.837 0.07939 0.69235 0.0
C1336 C 0.86143 0.0847 0.69114 0.0
H1337 H 0.81243 0.09355 0.69161 0.0
H1338 H 0.94242 0.14402 0.68676 0.0
H1339 H 0.76389 0.11642 0.64874 0.0
H1340 H 0.95352 0.18737 0.68547 0.0
H1341 H 0.93976 0.21736 0.68536 0.0
H1342 H 0.91051 0.10149 0.6893 0.0
H1343 H 0.84834 0.22636 0.64236 0.0
H1344 H 0.70682 0.13445 0.649 0.0
H1345 H 0.71978 0.10387 0.64875 0.0
H1346 H 0.75118 0.22034 0.64524 0.0
H1347 H 0.82252 0.06117 0.69448 0.0
H1348 H 0.86577 0.07045 0.69242 0.0
H1349 H 0.71873 0.17804 0.64787 0.0
H1350 H 0.83899 0.25921 0.63954 0.0
N1351 N 0.77599 0.15382 0.64937 0.0
C1352 C 0.72625 0.14009 0.649 0.0
C1353 C 0.7335 0.12278 0.64881 0.0
C1354 C 0.74418 0.16446 0.64866 0.0
C1355 C 0.76922 0.17082 0.64873 0.0
C1356 C 0.75858 0.13 0.64879 0.0
N1357 N 0.81117 0.19973 0.64662 0.0
C1358 C 0.7874 0.19455 0.64728 0.0
C1359 C 0.82432 0.24112 0.64178 0.0
C1360 C 0.80006 0.23628 0.64315 0.0
C1361 C 0.82954 0.22247 0.64336 0.0
C1362 C 0.78118 0.2127 0.6457 0.0
H1363 H 0.79605 0.25074 0.64187 0.0
O1364 O 0.83748 0.17987 0.62886 0.0
O1365 O 0.84909 0.1647 0.66067 0.0
O1366 O 0.85231 0.1919 0.68327 0.0
O1367 O 0.82359 0.19451 0.66789 0.0
O1368 O 0.85912 0.19444 0.64759 0.0
O1369 O 0.80312 0.14618 0.62979 0.0
O1370 O 0.82377 0.13873 0.70568 0.0
O1371 O 0.81076 0.15487 0.67349 0.0
O1372 O 0.80728 0.12791 0.651 0.0
O1373 O 0.83616 0.12539 0.66628 0.0
O1374 O 0.80061 0.12547 0.68683 0.0
O1375 O 0.85502 0.17473 0.70411 0.0
C1376 C 0.86742 0.18324 0.65548 0.0
C1377 C 0.75633 0.20663 0.6463 0.0
C1378 C 0.73786 0.18255 0.64779 0.0
C1379 C 0.8206 0.16176 0.62125 0.0
C1380 C 0.81313 0.16777 0.60702 0.0
C1381 C 0.80096 0.18104 0.60693 0.0
C1382 C 0.81939 0.16125 0.59336 0.0
C1383 C 0.81403 0.1684 0.57956 0.0
C1384 C 0.79553 0.18817 0.59342 0.0
C1385 C 0.80217 0.18216 0.57988 0.0
C1386 C 0.8405 0.20304 0.67861 0.0
C1387 C 0.79237 0.13648 0.67873 0.0
C1388 C 0.83925 0.15809 0.71297 0.0
C1389 C 0.84913 0.15444 0.72706 0.0
C1390 C 0.86604 0.14621 0.72688 0.0
C1391 C 0.84153 0.15916 0.74085 0.0
C1392 C 0.85086 0.15576 0.75446 0.0
C1393 C 0.87522 0.14264 0.74026 0.0
C1394 C 0.86773 0.14734 0.75394 0.0
C1395 C 0.8192 0.11684 0.65557 0.0
H1396 H 0.79596 0.18617 0.61729 0.0
H1397 H 0.82842 0.15063 0.59358 0.0
H1398 H 0.78642 0.19872 0.59345 0.0
H1399 H 0.79834 0.18876 0.56969 0.0
H1400 H 0.8721 0.14252 0.71641 0.0
H1401 H 0.82867 0.16579 0.74095 0.0
H1402 H 0.88818 0.13616 0.74003 0.0
H1403 H 0.87496 0.14409 0.76413 0.0
H1404 H 0.34027 0.84696 0.04581 0.0
H1405 H 0.4182 0.98323 0.01757 0.0
H1406 H 0.31895 0.90062 0.05232 0.0
H1407 H 0.44583 0.93391 0.01528 0.0
H1408 H 0.37923 0.95106 0.02721 0.0
H1409 H 0.37657 0.87646 0.03195 0.0
C1410 C 0.34309 0.86487 0.04425 0.0
C1411 C 0.32653 0.87131 0.05039 0.0
C1412 C 0.39363 0.94708 0.02446 0.0
C1413 C 0.36813 0.9052 0.0345 0.0
C1414 C 0.41585 0.96544 0.01887 0.0
C1415 C 0.43516 0.96118 0.0155 0.0
C1416 C 0.39068 0.92421 0.02695 0.0
C1417 C 0.43126 0.93786 0.01754 0.0
C1418 C 0.36389 0.88172 0.03638 0.0
C1419 C 0.33134 0.89488 0.04807 0.0
N1420 N 0.4095 0.92026 0.02323 0.0
N1421 N 0.35161 0.91088 0.04036 0.0
H1422 H 0.1483 0.47582 0.03337 0.0
H1423 H 0.00745 0.43383 0.02619 0.0
H1424 H 0.09747 0.4354 0.06871 0.0
H1425 H 0.06025 0.50823 0.01792 0.0
H1426 H 0.04067 0.42827 0.03631 0.0
H1427 H 0.11665 0.48284 0.02237 0.0
C1428 C 0.13074 0.46848 0.03896 0.0
C1429 C 0.12594 0.45484 0.05215 0.0
C1430 C 0.04498 0.44571 0.03207 0.0
C1431 C 0.08926 0.46214 0.03903 0.0
C1432 C 0.02612 0.4489 0.02626 0.0
C1433 C 0.03118 0.47137 0.02085 0.0
C1434 C 0.06922 0.46506 0.03234 0.0
C1435 C 0.05566 0.49043 0.02152 0.0
C1436 C 0.11264 0.47243 0.03253 0.0
C1437 C 0.10226 0.44542 0.0584 0.0
N1438 N 0.07388 0.48679 0.02702 0.0
N1439 N 0.08485 0.44902 0.05172 0.0
H1440 H 0.53662 0.68527 0.03554 0.0
H1441 H 0.54319 0.56496 0.03669 0.0
H1442 H 0.55538 0.65995 0.07545 0.0
H1443 H 0.49397 0.57413 0.00707 0.0
H1444 H 0.55328 0.60269 0.04912 0.0
H1445 H 0.52608 0.64744 0.02309 0.0
C1446 C 0.53839 0.6718 0.04178 0.0
C1447 C 0.54686 0.67601 0.0567 0.0
C1448 C 0.54034 0.59645 0.03986 0.0
C1449 C 0.53546 0.6328 0.04219 0.0
C1450 C 0.53458 0.57491 0.03269 0.0
C1451 C 0.51786 0.56636 0.02062 0.0
C1452 C 0.52961 0.6098 0.03483 0.0
C1453 C 0.50729 0.58014 0.01608 0.0
C1454 C 0.53248 0.65023 0.03458 0.0
C1455 C 0.54936 0.65791 0.06391 0.0
N1456 N 0.51346 0.60125 0.02312 0.0
N1457 N 0.54381 0.6372 0.05658 0.0
H1458 H 0.88903 0.33248 0.93093 0.0
H1459 H 0.91477 0.42645 0.99588 0.0
H1460 H 0.8436 0.31299 0.97045 0.0
H1461 H 0.9738 0.42815 0.97017 0.0
H1462 H 0.88611 0.38769 0.98448 0.0
H1463 H 0.9181 0.3704 0.94297 0.0
C1464 C 0.88512 0.33591 0.94216 0.0
C1465 C 0.86362 0.31909 0.94963 0.0
C1466 C 0.90538 0.39651 0.98143 0.0
C1467 C 0.89676 0.36322 0.96327 0.0
C1468 C 0.92185 0.41862 0.98802 0.0
C1469 C 0.94697 0.43049 0.98429 0.0
C1470 C 0.91388 0.38643 0.9707 0.0
C1471 C 0.95471 0.41967 0.97353 0.0
C1472 C 0.90175 0.35774 0.94898 0.0
C1473 C 0.85953 0.32531 0.96404 0.0
N1474 N 0.93822 0.39836 0.96706 0.0
N1475 N 0.87582 0.34687 0.97032 0.0
H1476 H 0.67965 0.57664 0.95007 0.0
H1477 H 0.54979 0.48675 0.98746 0.0
H1478 H 0.65715 0.50273 0.95954 0.0
H1479 H 0.57971 0.56324 0.98404 0.0
H1480 H 0.58894 0.4917 0.97816 0.0
H1481 H 0.64305 0.57163 0.96283 0.0
C1482 C 0.66695 0.5593 0.9548 0.0
C1483 C 0.67146 0.54004 0.95359 0.0
C1484 C 0.58704 0.50743 0.97962 0.0
C1485 C 0.62926 0.53412 0.9684 0.0
C1486 C 0.56476 0.50462 0.98504 0.0
C1487 C 0.56166 0.52468 0.98673 0.0
C1488 C 0.60612 0.53041 0.97557 0.0
C1489 C 0.58142 0.54733 0.98301 0.0
C1490 C 0.64608 0.55647 0.9622 0.0
C1491 C 0.6545 0.51811 0.96023 0.0
N1492 N 0.60267 0.54956 0.97756 0.0
N1493 N 0.63406 0.51568 0.96723 0.0
H1494 H 0.43282 0.09964 0.93126 0.0
H1495 H 0.50379 0.07573 0.99652 0.0
H1496 H 0.45585 0.14256 0.97172 0.0
H1497 H 0.45142 0.01891 0.96768 0.0
H1498 H 0.49115 0.10283 0.98577 0.0
H1499 H 0.44397 0.07198 0.94272 0.0
C1500 C 0.43998 0.10324 0.94259 0.0
C1501 C 0.44327 0.12362 0.95049 0.0
C1502 C 0.48235 0.08438 0.98189 0.0
C1503 C 0.45682 0.09219 0.96348 0.0
C1504 C 0.48947 0.06882 0.98807 0.0
C1505 C 0.47836 0.04479 0.98324 0.0
C1506 C 0.46443 0.07605 0.97052 0.0
C1507 C 0.46042 0.03719 0.97187 0.0
C1508 C 0.4465 0.08745 0.94907 0.0
C1509 C 0.45334 0.12744 0.96501 0.0
N1510 N 0.45412 0.05279 0.96585 0.0
N1511 N 0.45988 0.11198 0.97099 0.0
H1512 H 0.67738 0.09218 0.94906 0.0
H1513 H 0.5473 0.05662 0.986 0.0
H1514 H 0.65395 0.14397 0.957 0.0
H1515 H 0.57618 0.0085 0.98185 0.0
H1516 H 0.5866 0.08956 0.97672 0.0
H1517 H 0.64069 0.06183 0.96184 0.0
C1518 C 0.66445 0.09717 0.95345 0.0
C1519 C 0.66872 0.12067 0.95181 0.0
C1520 C 0.58444 0.07186 0.97802 0.0
C1521 C 0.62646 0.08584 0.96665 0.0
C1522 C 0.56209 0.05312 0.98342 0.0
C1523 C 0.55866 0.0299 0.98488 0.0
C1524 C 0.60327 0.06718 0.9738 0.0
C1525 C 0.57816 0.02619 0.98099 0.0
C1526 C 0.64354 0.07984 0.96086 0.0
C1527 C 0.65149 0.12613 0.95804 0.0
N1528 N 0.59951 0.04454 0.97558 0.0
N1529 N 0.63104 0.10882 0.96507 0.0
H1530 H 0.90076 0.57674 0.94789 0.0
H1531 H 0.93795 0.48594 0.98502 0.0
H1532 H 0.84727 0.50343 0.95858 0.0
H1533 H 0.98794 0.56194 0.9804 0.0
H1534 H 0.90436 0.4915 0.97551 0.0
H1535 H 0.93279 0.57127 0.95966 0.0
C1536 C 0.89574 0.55944 0.95268 0.0
C1537 C 0.87125 0.54047 0.95212 0.0
C1538 C 0.92262 0.507 0.9767 0.0
C1539 C 0.90804 0.53406 0.96575 0.0
C1540 C 0.94176 0.50385 0.98223 0.0
C1541 C 0.96563 0.52363 0.98385 0.0
C1542 C 0.92751 0.53003 0.97245 0.0
C1543 C 0.96972 0.54629 0.97953 0.0
C1544 C 0.91405 0.55636 0.9595 0.0
C1545 C 0.86585 0.51859 0.9588 0.0
N1546 N 0.95091 0.54887 0.97404 0.0
N1547 N 0.8841 0.51593 0.96523 0.0
H1548 H 0.44016 0.33541 0.92943 0.0
H1549 H 0.50706 0.42638 0.99647 0.0
H1550 H 0.4601 0.31352 0.97035 0.0
H1551 H 0.45522 0.43245 0.96747 0.0
H1552 H 0.49546 0.3876 0.985 0.0
H1553 H 0.45081 0.3737 0.94125 0.0
C1554 C 0.44657 0.33845 0.94092 0.0
C1555 C 0.44905 0.3209 0.94887 0.0
C1556 C 0.48654 0.39739 0.98124 0.0
C1557 C 0.46203 0.36524 0.96227 0.0
C1558 C 0.49303 0.4195 0.98784 0.0
C1559 C 0.48173 0.43256 0.9832 0.0
C1560 C 0.46908 0.3885 0.96963 0.0
C1561 C 0.46429 0.42298 0.97154 0.0
C1562 C 0.45279 0.36044 0.9476 0.0
C1563 C 0.45821 0.32646 0.96361 0.0
N1564 N 0.45859 0.40159 0.9651 0.0
N1565 N 0.46447 0.34816 0.96979 0.0
H1566 H 0.10909 0.65982 0.07621 0.0
H1567 H 0.08241 0.57039 0.00807 0.0
H1568 H 0.15372 0.68199 0.03632 0.0
H1569 H 0.02407 0.56588 0.03587 0.0
H1570 H 0.11115 0.60849 0.02022 0.0
H1571 H 0.07996 0.62255 0.06351 0.0
C1572 C 0.11283 0.65711 0.06478 0.0
C1573 C 0.13415 0.67449 0.05742 0.0
C1574 C 0.09201 0.59919 0.02357 0.0
C1575 C 0.10092 0.63109 0.04297 0.0
C1576 C 0.0755 0.57746 0.01657 0.0
C1577 C 0.05054 0.56496 0.02068 0.0
C1578 C 0.08374 0.60829 0.03508 0.0
C1579 C 0.04302 0.57485 0.03218 0.0
C1580 C 0.09617 0.63564 0.05758 0.0
C1581 C 0.13798 0.6692 0.04269 0.0
N1582 N 0.05955 0.59579 0.03903 0.0
N1583 N 0.12167 0.648 0.03602 0.0
H1584 H 0.30897 0.42622 0.03582 0.0
H1585 H 0.45182 0.51322 0.01852 0.0
H1586 H 0.3523 0.49282 0.05982 0.0
H1587 H 0.41782 0.43608 0.0167 0.0
H1588 H 0.41295 0.50888 0.028 0.0
H1589 H 0.34649 0.43246 0.02319 0.0
C1590 C 0.32635 0.44226 0.03832 0.0
C1591 C 0.32756 0.45896 0.04894 0.0
C1592 C 0.41398 0.49295 0.02534 0.0
C1593 C 0.37042 0.46639 0.03437 0.0
C1594 C 0.43604 0.49541 0.01982 0.0
C1595 C 0.4379 0.47494 0.01668 0.0
C1596 C 0.39362 0.46989 0.02756 0.0
C1597 C 0.41705 0.45228 0.01889 0.0
C1598 C 0.34772 0.44576 0.03115 0.0
C1599 C 0.35061 0.47941 0.05181 0.0
N1600 N 0.39575 0.45034 0.02411 0.0
N1601 N 0.37111 0.48262 0.04452 0.0
H1602 H 0.57918 0.90057 0.06335 0.0
H1603 H 0.48544 0.91349 0.00805 0.0
H1604 H 0.51315 0.83989 0.04557 0.0
H1605 H 0.54735 0.97346 0.02984 0.0
H1606 H 0.49651 0.88623 0.02041 0.0
H1607 H 0.56873 0.9275 0.05015 0.0
C1608 C 0.5624 0.89287 0.05676 0.0
C1609 C 0.54702 0.86784 0.05564 0.0
C1610 C 0.50769 0.90537 0.02244 0.0
C1611 C 0.53508 0.89872 0.04025 0.0
C1612 C 0.50145 0.92098 0.01533 0.0
C1613 C 0.51548 0.94587 0.01786 0.0
C1614 C 0.52814 0.9147 0.03216 0.0
C1615 C 0.53591 0.95444 0.02754 0.0
C1616 C 0.55651 0.90829 0.04913 0.0
C1617 C 0.52575 0.85901 0.04664 0.0
N1618 N 0.54158 0.93891 0.03432 0.0
N1619 N 0.52042 0.8744 0.03932 0.0
H1620 H 0.97278 0.21835 0.36707 0.0
H1621 H 0.11505 0.26712 0.34974 0.0
H1622 H 0.01499 0.19202 0.39015 0.0
H1623 H 0.08264 0.3125 0.34805 0.0
H1624 H 0.07546 0.2338 0.3584 0.0
H1625 H 0.01034 0.24769 0.35409 0.0
C1626 C 0.98993 0.21863 0.36929 0.0
C1627 C 0.99089 0.20291 0.37977 0.0
C1628 C 0.07699 0.25098 0.3559 0.0
C1629 C 0.03366 0.23603 0.36482 0.0
C1630 C 0.09944 0.26987 0.35084 0.0
C1631 C 0.10193 0.29246 0.34806 0.0
C1632 C 0.05695 0.25472 0.35804 0.0
C1633 C 0.08133 0.29527 0.35 0.0
C1634 C 0.01129 0.23536 0.36192 0.0
C1635 C 0.01357 0.20403 0.38227 0.0
N1636 N 0.05966 0.27662 0.35484 0.0
N1637 N 0.03407 0.22027 0.37482 0.0
H1638 H 0.79656 0.81604 0.39734 0.0
H1639 H 0.68697 0.77311 0.33787 0.0
H1640 H 0.78108 0.76085 0.36453 0.0
H1641 H 0.71891 0.84131 0.36075 0.0
H1642 H 0.71963 0.7667 0.3483 0.0
H1643 H 0.76637 0.82398 0.3851 0.0
C1644 C 0.78676 0.80555 0.38757 0.0
C1645 C 0.79132 0.78769 0.38199 0.0
C1646 C 0.71967 0.78319 0.3509 0.0
C1647 C 0.75661 0.79666 0.3679 0.0
C1648 C 0.70112 0.78685 0.34492 0.0
C1649 C 0.70082 0.80804 0.34815 0.0
C1650 C 0.7375 0.80053 0.36057 0.0
C1651 C 0.719 0.82502 0.35772 0.0
C1652 C 0.76964 0.81019 0.38052 0.0
C1653 C 0.77826 0.77487 0.36916 0.0
N1654 N 0.73656 0.82087 0.36363 0.0
N1655 N 0.76137 0.77945 0.36263 0.0
H1656 H 0.25449 0.00875 0.3895 0.0
H1657 H 0.16675 0.90958 0.32945 0.0
H1658 H 0.19506 0.01084 0.36631 0.0
H1659 H 0.21755 0.9018 0.35846 0.0
H1660 H 0.18057 0.9493 0.3404 0.0
H1661 H 0.24444 0.97183 0.37601 0.0
C1662 C 0.23929 0.00145 0.3816 0.0
C1663 C 0.22551 0.01291 0.37914 0.0
C1664 C 0.18877 0.93892 0.34429 0.0
C1665 C 0.21411 0.97072 0.36347 0.0
C1666 C 0.18096 0.91627 0.338 0.0
C1667 C 0.19082 0.90218 0.34311 0.0
C1668 C 0.20666 0.9476 0.35571 0.0
C1669 C 0.20923 0.91187 0.35422 0.0
C1670 C 0.23366 0.98043 0.37383 0.0
C1671 C 0.20637 0.00283 0.36849 0.0
N1672 N 0.21645 0.93389 0.36018 0.0
N1673 N 0.20118 0.98229 0.3611 0.0
H1674 H 0.55473 0.63481 0.29268 0.0
H1675 H 0.58393 0.76494 0.31845 0.0
H1676 H 0.51103 0.6657 0.27811 0.0
H1677 H 0.64245 0.74949 0.3102 0.0
H1678 H 0.55423 0.72528 0.30854 0.0
H1679 H 0.58467 0.67379 0.3039 0.0
C1680 C 0.55142 0.64979 0.29196 0.0
C1681 C 0.53054 0.64723 0.28449 0.0
C1682 C 0.57357 0.7306 0.30893 0.0
C1683 C 0.5642 0.69137 0.29737 0.0
C1684 C 0.59053 0.75316 0.31464 0.0
C1685 C 0.61573 0.76058 0.31505 0.0
C1686 C 0.58177 0.71512 0.30386 0.0
C1687 C 0.62321 0.74454 0.30994 0.0
C1688 C 0.56848 0.67195 0.29827 0.0
C1689 C 0.52701 0.66709 0.28375 0.0
N1690 N 0.60626 0.72246 0.30461 0.0
N1691 N 0.54359 0.68831 0.29021 0.0
H1692 H 0.32153 0.82899 0.28783 0.0
H1693 H 0.2295 0.8762 0.31144 0.0
H1694 H 0.33613 0.90112 0.27983 0.0
H1695 H 0.2089 0.80146 0.31132 0.0
H1696 H 0.271 0.88666 0.30319 0.0
H1697 H 0.28257 0.81959 0.29968 0.0
C1698 C 0.31666 0.84292 0.28866 0.0
C1699 C 0.33215 0.86587 0.28273 0.0
C1700 C 0.25756 0.868 0.30517 0.0
C1701 C 0.28741 0.85515 0.29626 0.0
C1702 C 0.23401 0.86209 0.31002 0.0
C1703 C 0.21617 0.83804 0.31248 0.0
C1704 C 0.26318 0.84967 0.30258 0.0
C1705 C 0.22246 0.82026 0.3099 0.0
C1706 C 0.29433 0.83749 0.29536 0.0
C1707 C 0.32466 0.88309 0.28402 0.0
N1708 N 0.24548 0.82642 0.30514 0.0
N1709 N 0.30288 0.87739 0.29062 0.0
H1710 H 0.08005 0.42226 0.27411 0.0
H1711 H 0.17602 0.40912 0.327 0.0
H1712 H 0.1441 0.4828 0.29379 0.0
H1713 H 0.11484 0.34958 0.3044 0.0
H1714 H 0.16401 0.43637 0.31571 0.0
H1715 H 0.09212 0.39534 0.28569 0.0
C1716 C 0.09675 0.42993 0.28079 0.0
C1717 C 0.1111 0.45488 0.28293 0.0
C1718 C 0.15321 0.41733 0.31325 0.0
C1719 C 0.12489 0.42405 0.29642 0.0
C1720 C 0.15998 0.40173 0.31976 0.0
C1721 C 0.14632 0.37695 0.31675 0.0
C1722 C 0.13264 0.40811 0.30364 0.0
C1723 C 0.12594 0.3685 0.30707 0.0
C1724 C 0.10356 0.41452 0.28748 0.0
C1725 C 0.1323 0.4637 0.29196 0.0
N1726 N 0.11972 0.38403 0.30089 0.0
N1727 N 0.13855 0.44831 0.29836 0.0
H1728 H 0.31229 0.46482 0.27841 0.0
H1729 H 0.24572 0.34229 0.32165 0.0
H1730 H 0.35371 0.43746 0.30133 0.0
H1731 H 0.21354 0.38777 0.31883 0.0
H1732 H 0.28508 0.37583 0.31321 0.0
H1733 H 0.2751 0.43554 0.29169 0.0
C1734 C 0.31352 0.45266 0.28626 0.0
C1735 C 0.33603 0.45344 0.28874 0.0
C1736 C 0.26954 0.37861 0.31469 0.0
C1737 C 0.29367 0.4199 0.30384 0.0
C1738 C 0.24715 0.35952 0.3195 0.0
C1739 C 0.22656 0.36244 0.32112 0.0
C1740 C 0.2711 0.40052 0.31092 0.0
C1741 C 0.22913 0.38495 0.31796 0.0
C1742 C 0.29239 0.43613 0.29391 0.0
C1743 C 0.33671 0.43745 0.29913 0.0
N1744 N 0.25094 0.40308 0.31279 0.0
N1745 N 0.31577 0.42111 0.30615 0.0
H1746 H 0.50615 0.83106 0.28721 0.0
H1747 H 0.64815 0.88091 0.30852 0.0
H1748 H 0.56384 0.90393 0.27926 0.0
H1749 H 0.59353 0.80573 0.30806 0.0
H1750 H 0.61645 0.89052 0.30072 0.0
H1751 H 0.53675 0.82232 0.29804 0.0
C1752 C 0.5252 0.84529 0.28785 0.0
C1753 C 0.53242 0.86824 0.28221 0.0
C1754 C 0.61128 0.87193 0.30251 0.0
C1755 C 0.56761 0.85827 0.2945 0.0
C1756 C 0.6293 0.86651 0.30709 0.0
C1757 C 0.62309 0.84261 0.30945 0.0
C1758 C 0.58694 0.85324 0.30013 0.0
C1759 C 0.59874 0.82443 0.3068 0.0
C1760 C 0.54269 0.84023 0.29395 0.0
C1761 C 0.55745 0.88588 0.28324 0.0
N1762 N 0.58148 0.83011 0.30238 0.0
N1763 N 0.57411 0.88053 0.28923 0.0
H1764 H 0.09409 0.63136 0.30841 0.0
H1765 H 0.1467 0.77124 0.29272 0.0
H1766 H 0.11397 0.66398 0.2648 0.0
H1767 H 0.12355 0.74009 0.33636 0.0
H1768 H 0.13499 0.73175 0.28252 0.0
H1769 H 0.10556 0.67074 0.31923 0.0
C1770 C 0.10094 0.6468 0.30112 0.0
C1771 C 0.10294 0.64434 0.28565 0.0
C1772 C 0.13231 0.7334 0.29433 0.0
C1773 C 0.11593 0.68932 0.29793 0.0
C1774 C 0.1387 0.75593 0.30009 0.0
C1775 C 0.13557 0.75875 0.3153 0.0
C1776 C 0.12287 0.71348 0.30389 0.0
C1777 C 0.1263 0.73857 0.32457 0.0
C1778 C 0.10736 0.66922 0.3073 0.0
C1779 C 0.11172 0.66491 0.27674 0.0
N1780 N 0.12018 0.71668 0.3187 0.0
N1781 N 0.11787 0.68646 0.283 0.0
H1782 H 0.76458 0.0071 0.39088 0.0
H1783 H 0.74743 0.90249 0.33438 0.0
H1784 H 0.8252 0.00464 0.36989 0.0
H1785 H 0.68701 0.9046 0.35598 0.0
H1786 H 0.77611 0.94059 0.34656 0.0
H1787 H 0.73588 0.97002 0.37776 0.0
C1788 C 0.77189 -0.00128 0.38358 0.0
C1789 C 0.79742 0.00907 0.38154 0.0
C1790 C 0.75657 0.93276 0.34859 0.0
C1791 C 0.76452 0.96662 0.36629 0.0
C1792 C 0.74015 0.911 0.3416 0.0
C1793 C 0.71471 0.90024 0.34415 0.0
C1794 C 0.74755 0.94389 0.35823 0.0
C1795 C 0.70643 0.91216 0.35366 0.0
C1796 C 0.75546 0.9776 0.376 0.0
C1797 C 0.80571 -0.00246 0.3717 0.0
N1798 N 0.72278 0.93326 0.36037 0.0
N1799 N 0.78934 0.97695 0.36448 0.0
H1800 H 0.97055 0.76215 0.36234 0.0
H1801 H 0.11801 0.84193 0.35998 0.0
H1802 H 0.0139 0.81401 0.39644 0.0
H1803 H 0.07697 0.77618 0.33488 0.0
H1804 H 0.07931 0.83609 0.37061 0.0
H1805 H 0.00865 0.77099 0.34946 0.0
C1806 C 0.98806 0.7755 0.36708 0.0
C1807 C 0.98898 0.78727 0.38056 0.0
C1808 C 0.07869 0.82311 0.36261 0.0
C1809 C 0.0327 0.79753 0.3658 0.0
C1810 C 0.10072 0.82659 0.35643 0.0
C1811 C 0.10047 0.8099 0.34619 0.0
C1812 C 0.05627 0.80265 0.35862 0.0
C1813 C 0.07777 0.78976 0.34244 0.0
C1814 C 0.0098 0.78045 0.35975 0.0
C1815 C 0.01227 0.80427 0.3862 0.0
N1816 N 0.05654 0.78675 0.34858 0.0
N1817 N 0.03314 0.80891 0.3788 0.0
H1818 H 0.18062 0.16926 0.37526 0.0
H1819 H 0.21253 0.3056 0.36558 0.0
H1820 H 0.24183 0.22971 0.39715 0.0
H1821 H 0.15325 0.24603 0.34177 0.0
H1822 H 0.22302 0.27784 0.37743 0.0
H1823 H 0.16996 0.19684 0.36307 0.0
C1824 C 0.1919 0.18834 0.37746 0.0
C1825 C 0.21222 0.19715 0.38724 0.0
C1826 C 0.20776 0.27081 0.36958 0.0
C1827 C 0.19991 0.22884 0.3734 0.0
C1828 C 0.20172 0.28668 0.36278 0.0
C1829 C 0.18201 0.27821 0.35256 0.0
C1830 C 0.19399 0.24618 0.36622 0.0
C1831 C 0.16874 0.25345 0.34945 0.0
C1832 C 0.18571 0.20407 0.37054 0.0
C1833 C 0.22585 0.22203 0.38985 0.0
N1834 N 0.17495 0.2383 0.35627 0.0
N1835 N 0.21947 0.23698 0.38297 0.0
H1836 H 0.63901 0.54616 0.70151 0.0
H1837 H 0.78145 0.59959 0.68239 0.0
H1838 H 0.68434 0.52365 0.72477 0.0
H1839 H 0.74637 0.64263 0.681 0.0
H1840 H 0.74285 0.56563 0.6917 0.0
H1841 H 0.67555 0.576 0.68791 0.0
C1842 C 0.65663 0.54737 0.70363 0.0
C1843 C 0.65876 0.53259 0.71434 0.0
C1844 C 0.74357 0.58242 0.68912 0.0
C1845 C 0.70037 0.56626 0.69869 0.0
C1846 C 0.76546 0.60169 0.68369 0.0
C1847 C 0.76694 0.62383 0.68083 0.0
C1848 C 0.72305 0.58532 0.69152 0.0
C1849 C 0.74585 0.62578 0.68302 0.0
C1850 C 0.67741 0.56438 0.69592 0.0
C1851 C 0.68201 0.53491 0.71671 0.0
N1852 N 0.72475 0.60676 0.6882 0.0
N1853 N 0.70193 0.55138 0.70891 0.0
H1854 H 0.48173 0.15136 0.70959 0.0
H1855 H 0.33822 0.0936 0.6893 0.0
H1856 H 0.4261 0.07919 0.72108 0.0
H1857 H 0.38991 0.16942 0.68583 0.0
H1858 H 0.37146 0.08727 0.69826 0.0
H1859 H 0.4497 0.15752 0.6981 0.0
C1860 C 0.46284 0.13675 0.70962 0.0
C1861 C 0.45664 0.11475 0.71642 0.0
C1862 C 0.37565 0.10529 0.69543 0.0
C1863 C 0.41984 0.12174 0.70332 0.0
C1864 C 0.35669 0.10888 0.69027 0.0
C1865 C 0.36142 0.13197 0.68652 0.0
C1866 C 0.39961 0.12499 0.69705 0.0
C1867 C 0.38559 0.15124 0.68825 0.0
C1868 C 0.44454 0.14034 0.70313 0.0
C1869 C 0.43176 0.09657 0.7162 0.0
N1870 N 0.40381 0.14732 0.69336 0.0
N1871 N 0.41436 0.10047 0.70979 0.0
H1872 H 0.8393 0.32996 0.71065 0.0
H1873 H 0.87899 0.23063 0.69758 0.0
H1874 H 0.90555 0.33507 0.72903 0.0
H1875 H 0.81611 0.22841 0.67603 0.0
H1876 H 0.88856 0.26854 0.70951 0.0
H1877 H 0.83024 0.29259 0.69806 0.0
C1878 C 0.85204 0.32333 0.71198 0.0
C1879 C 0.87324 0.33576 0.72095 0.0
C1880 C 0.87272 0.25982 0.70212 0.0
C1881 C 0.86277 0.29271 0.70668 0.0
C1882 C 0.86721 0.23811 0.6953 0.0
C1883 C 0.84677 0.22631 0.68569 0.0
C1884 C 0.85763 0.26981 0.69941 0.0
C1885 C 0.8322 0.23695 0.68322 0.0
C1886 C 0.84677 0.3019 0.70484 0.0
C1887 C 0.88881 0.32599 0.72243 0.0
N1888 N 0.83789 0.25805 0.69005 0.0
N1889 N 0.88326 0.30508 0.71539 0.0
H1890 H 0.21794 -0.00249 0.59512 0.0
H1891 H 0.24516 0.08743 0.66257 0.0
H1892 H 0.17495 0.97494 0.63566 0.0
H1893 H 0.30399 0.091 0.63567 0.0
H1894 H 0.21656 0.04917 0.65061 0.0
H1895 H 0.24737 0.03484 0.60766 0.0
C1896 C 0.21465 0.00015 0.60665 0.0
C1897 C 0.19368 0.98271 0.61425 0.0
C1898 C 0.23578 0.0583 0.64743 0.0
C1899 C 0.22713 0.02607 0.62848 0.0
C1900 C 0.25221 0.0801 0.65432 0.0
C1901 C 0.27725 0.09233 0.65043 0.0
C1902 C 0.24424 0.04892 0.63622 0.0
C1903 C 0.28495 0.08221 0.63919 0.0
C1904 C 0.23146 0.02162 0.61376 0.0
C1905 C 0.19038 0.98783 0.62913 0.0
N1906 N 0.26849 0.06119 0.63241 0.0
N1907 N 0.20679 0.00906 0.63569 0.0
H1908 H 0.0103 0.23929 0.61574 0.0
H1909 H 0.88045 0.14815 0.6527 0.0
H1910 H 0.98815 0.16534 0.62482 0.0
H1911 H 0.90939 0.22449 0.64928 0.0
H1912 H 0.9198 0.15363 0.64346 0.0
H1913 H 0.97342 0.23382 0.62838 0.0
C1914 C -0.00238 0.22184 0.62035 0.0
C1915 C 0.00232 0.2027 0.61908 0.0
C1916 C 0.91766 0.16922 0.64491 0.0
C1917 C 0.95981 0.19629 0.63375 0.0
C1918 C 0.89525 0.16611 0.65031 0.0
C1919 C 0.89181 0.18597 0.65199 0.0
C1920 C 0.93654 0.19229 0.64087 0.0
C1921 C 0.91137 0.20873 0.64827 0.0
C1922 C 0.9766 0.21876 0.62768 0.0
C1923 C 0.98537 0.18063 0.62557 0.0
N1924 N 0.93276 0.21125 0.64284 0.0
N1925 N 0.96479 0.17797 0.63251 0.0
H1926 H 0.77298 0.76599 0.59312 0.0
H1927 H 0.8348 0.74053 0.66296 0.0
H1928 H 0.79158 0.8086 0.63362 0.0
H1929 H 0.78582 0.68426 0.63258 0.0
H1930 H 0.82387 0.76798 0.65084 0.0
H1931 H 0.78206 0.73782 0.60594 0.0
C1932 C 0.77874 0.76941 0.60472 0.0
C1933 C 0.78145 0.78987 0.61223 0.0
C1934 C 0.81542 0.74956 0.64692 0.0
C1935 C 0.79259 0.75787 0.62684 0.0
C1936 C 0.82155 0.73381 0.65389 0.0
C1937 C 0.81093 0.70986 0.649 0.0
C1938 C 0.79899 0.74149 0.63474 0.0
C1939 C 0.7944 0.70248 0.63684 0.0
C1940 C 0.78407 0.75334 0.612 0.0
C1941 C 0.78964 0.79345 0.6272 0.0
N1942 N 0.78906 0.71826 0.63008 0.0
N1943 N 0.79505 0.77772 0.63396 0.0
H1944 H 0.01872 0.77498 0.63229 0.0
H1945 H 0.87638 0.72136 0.65169 0.0
H1946 H 0.97329 0.7977 0.60935 0.0
H1947 H 0.91183 0.67867 0.65326 0.0
H1948 H 0.91481 0.75534 0.64225 0.0
H1949 H 0.98228 0.74508 0.64589 0.0
C1950 C 0.0011 0.77379 0.63023 0.0
C1951 C -0.00108 0.78867 0.61961 0.0
C1952 C 0.91421 0.73862 0.64488 0.0
C1953 C 0.9574 0.75489 0.63528 0.0
C1954 C 0.89242 0.71934 0.6504 0.0
C1955 C 0.89109 0.6973 0.65336 0.0
C1956 C 0.93479 0.73582 0.64249 0.0
C1957 C 0.91223 0.69545 0.65117 0.0
C1958 C 0.98037 0.75674 0.63795 0.0
C1959 C 0.97566 0.78637 0.61732 0.0
N1960 N 0.93324 0.71446 0.6459 0.0
N1961 N 0.95578 0.76983 0.62513 0.0
H1962 H 0.23209 0.22452 0.60212 0.0
H1963 H 0.2675 0.14829 0.65357 0.0
H1964 H 0.18045 0.18108 0.63635 0.0
H1965 H 0.31911 0.22316 0.64576 0.0
H1966 H 0.23416 0.15429 0.64384 0.0
H1967 H 0.26344 0.21863 0.6142 0.0
C1968 C 0.22717 0.21396 0.61222 0.0
C1969 C 0.20327 0.20369 0.61823 0.0
C1970 C 0.25277 0.1694 0.64445 0.0
C1971 C 0.23935 0.19593 0.63171 0.0
C1972 C 0.27173 0.16606 0.6501 0.0
C1973 C 0.29598 0.18547 0.65095 0.0
C1974 C 0.25836 0.192 0.63896 0.0
C1975 C 0.30061 0.20783 0.64557 0.0
C1976 C 0.24519 0.21045 0.61903 0.0
C1977 C 0.19829 0.18924 0.63106 0.0
N1978 N 0.28206 0.21045 0.63969 0.0
N1979 N 0.21609 0.18565 0.63729 0.0
H1980 H 0.82265 0.99166 0.6224 0.0
H1981 H 0.78133 0.08968 0.63613 0.0
H1982 H 0.75763 0.98743 0.60267 0.0
H1983 H 0.84382 0.09169 0.65809 0.0
H1984 H 0.77262 0.05242 0.62362 0.0
H1985 H 0.83086 0.0284 0.63548 0.0
C1986 C 0.81001 -0.00163 0.62086 0.0
C1987 C 0.78939 0.98637 0.6114 0.0
C1988 C 0.78818 0.06095 0.63122 0.0
C1989 C 0.79886 0.02866 0.62624 0.0
C1990 C 0.79319 0.08227 0.63838 0.0
C1991 C 0.81328 0.09383 0.64826 0.0
C1992 C 0.80343 0.05111 0.63388 0.0
C1993 C 0.82798 0.08332 0.6507 0.0
C1994 C 0.81479 0.01944 0.62829 0.0
C1995 C 0.77393 -0.0038 0.60967 0.0
N1996 N 0.82279 0.0626 0.64354 0.0
N1997 N 0.77897 0.01673 0.61701 0.0
H1998 H 0.48528 0.34429 0.7003 0.0
H1999 H 0.35372 0.22682 0.70265 0.0
H2000 H 0.44252 0.32164 0.74093 0.0
H2001 H 0.41242 0.231 0.67534 0.0
H2002 H 0.38327 0.26488 0.71459 0.0
H2003 H 0.45603 0.30601 0.68872 0.0
C2004 C 0.46996 0.33135 0.7069 0.0
C2005 C 0.4667 0.33648 0.72177 0.0
C2006 C 0.38957 0.25745 0.70591 0.0
C2007 C 0.43252 0.29274 0.70819 0.0
C2008 C 0.37272 0.23575 0.69904 0.0
C2009 C 0.38042 0.22574 0.68773 0.0
C2010 C 0.41423 0.26951 0.7013 0.0
C2011 C 0.40541 0.23819 0.68369 0.0
C2012 C 0.45315 0.30951 0.70018 0.0
C2013 C 0.44581 0.31896 0.72941 0.0
N2014 N 0.42135 0.2595 0.69036 0.0
N2015 N 0.42949 0.298 0.72252 0.0
H2016 H 0.68193 0.15333 0.72497 0.0
H2017 H 0.7488 0.09516 0.68161 0.0
H2018 H 0.64049 0.08628 0.7011 0.0
H2019 H 0.78114 0.17206 0.68436 0.0
H2020 H 0.70965 0.09053 0.6905 0.0
H2021 H 0.71951 0.15985 0.71226 0.0
C2022 C 0.68077 0.14002 0.71703 0.0
C2023 C 0.65809 0.11921 0.71409 0.0
C2024 C 0.7252 0.10842 0.68895 0.0
C2025 C 0.70098 0.1264 0.69968 0.0
C2026 C 0.7475 0.11106 0.68389 0.0
C2027 C 0.76806 0.134 0.68202 0.0
C2028 C 0.72369 0.12887 0.69274 0.0
C2029 C 0.76558 0.15406 0.68537 0.0
C2030 C 0.70215 0.14382 0.70972 0.0
C2031 C 0.65758 0.1026 0.70364 0.0
N2032 N 0.74388 0.15103 0.69077 0.0
N2033 N 0.67873 0.10638 0.69697 0.0
H2034 H 0.86544 0.51032 0.69959 0.0
H2035 H 0.8718 0.63697 0.70195 0.0
H2036 H 0.88338 0.55344 0.73984 0.0
H2037 H 0.82417 0.58071 0.67113 0.0
H2038 H 0.88164 0.60887 0.71412 0.0
H2039 H 0.85536 0.53815 0.68722 0.0
C2040 C 0.86713 0.52547 0.70591 0.0
C2041 C 0.87523 0.52932 0.7209 0.0
C2042 C 0.86911 0.60274 0.70466 0.0
C2043 C 0.86433 0.56168 0.70652 0.0
C2044 C 0.86349 0.61878 0.69764 0.0
C2045 C 0.84726 0.61134 0.68533 0.0
C2046 C 0.85872 0.57911 0.69926 0.0
C2047 C 0.83708 0.58744 0.68037 0.0
C2048 C 0.86149 0.54143 0.69877 0.0
C2049 C 0.87764 0.54979 0.72825 0.0
N2050 N 0.84308 0.57222 0.68729 0.0
N2051 N 0.87232 0.56521 0.72098 0.0
H2052 H 0.43853 0.9276 0.16365 0.0
H2053 H 0.54807 0.02358 0.11222 0.0
H2054 H 0.51377 0.97158 0.17862 0.0
H2055 H 0.47296 0.98156 0.09662 0.0
H2056 H 0.53558 0.00391 0.13643 0.0
H2057 H 0.45039 0.94659 0.13904 0.0
C2058 C 0.4575 0.94132 0.16182 0.0
C2059 C 0.47517 0.94789 0.17329 0.0
C2060 C 0.52178 -0.00107 0.12774 0.0
C2061 C 0.48893 0.96956 0.14502 0.0
C2062 C 0.52889 0.01026 0.11389 0.0
C2063 C 0.51153 0.00441 0.10233 0.0
C2064 C 0.49705 0.9815 0.13019 0.0
C2065 C 0.48704 0.98657 0.10513 0.0
C2066 C 0.46429 0.95205 0.14771 0.0
C2067 C 0.49955 0.96558 0.17012 0.0
N2068 N 0.48051 0.97584 0.11878 0.0
N2069 N 0.50566 0.97574 0.15634 0.0
H2070 H 0.99633 0.52421 0.18158 0.0
H2071 H 0.99344 0.47857 0.09775 0.0
H2072 H 0.04283 0.49663 0.16644 0.0
H2073 H 0.95398 0.51411 0.11219 0.0
H2074 H 0.01021 0.48302 0.12304 0.0
H2075 H 0.97888 0.51835 0.15648 0.0
C2076 C 0.00296 0.51699 0.17296 0.0
C2077 C 0.02124 0.51109 0.17613 0.0
C2078 C -0.00214 0.48981 0.12066 0.0
C2079 C 0.00106 0.50405 0.14731 0.0
C2080 C 0.98837 0.48741 0.1062 0.0
C2081 C 0.97225 0.49599 0.10279 0.0
C2082 C 0.99116 0.50085 0.13184 0.0
C2083 C 0.96604 0.5069 0.1143 0.0
C2084 C 0.99288 0.51355 0.15863 0.0
C2085 C 0.02865 0.50127 0.16456 0.0
N2086 N 0.97551 0.50902 0.12827 0.0
N2087 N 0.01859 0.49814 0.15065 0.0
H2088 H 0.43324 0.4972 0.1648 0.0
H2089 H 0.54612 0.51461 0.11389 0.0
H2090 H 0.50917 0.53351 0.17936 0.0
H2091 H 0.47132 0.48161 0.09748 0.0
H2092 H 0.53237 0.52091 0.13808 0.0
H2093 H 0.44619 0.49031 0.14029 0.0
C2094 C 0.4526 0.50364 0.16288 0.0
C2095 C 0.47014 0.51609 0.17416 0.0
C2096 C 0.51891 0.5123 0.12921 0.0
C2097 C 0.4851 0.50838 0.14611 0.0
C2098 C 0.52675 0.50857 0.11539 0.0
C2099 C 0.50985 0.49743 0.10362 0.0
C2100 C 0.49391 0.5048 0.1314 0.0
C2101 C 0.48504 0.49043 0.10619 0.0
C2102 C 0.45999 0.49982 0.14885 0.0
C2103 C 0.495 0.5242 0.17096 0.0
N2104 N 0.4778 0.49415 0.11981 0.0
N2105 N 0.50169 0.52019 0.15729 0.0
H2106 H 0.94228 0.48984 0.83896 0.0
H2107 H 0.03596 0.47398 0.89248 0.0
H2108 H 0.98487 0.45734 0.82495 0.0
H2109 H -0.00351 0.5098 0.90628 0.0
H2110 H 0.01709 0.46755 0.86775 0.0
H2111 H 0.96173 0.49733 0.86366 0.0
C2112 C 0.95583 0.48442 0.84102 0.0
C2113 C 0.96186 0.47287 0.82982 0.0
C2114 C 0.01254 0.47683 0.87617 0.0
C2115 C 0.98403 0.48115 0.85819 0.0
C2116 C 0.02343 0.48063 0.8903 0.0
C2117 C 0.01791 0.49254 0.90152 0.0
C2118 C 0.99592 0.48495 0.87314 0.0
C2119 C 0.00111 0.50031 0.89806 0.0
C2120 C 0.96683 0.48857 0.85517 0.0
C2121 C 0.97932 0.46595 0.83327 0.0
N2122 N 0.99075 0.49641 0.88419 0.0
N2123 N 0.98973 0.47018 0.84711 0.0
H2124 H 0.54317 0.45848 0.84209 0.0
H2125 H 0.46121 0.49955 0.88671 0.0
H2126 H 0.5105 0.496 0.82077 0.0
H2127 H 0.52433 0.50119 0.90763 0.0
H2128 H 0.47392 0.49127 0.86276 0.0
H2129 H 0.5314 0.46709 0.8666 0.0
C2130 C 0.53351 0.46852 0.8426 0.0
C2131 C 0.52785 0.47664 0.82943 0.0
C2132 C 0.48495 0.49346 0.87262 0.0
C2133 C 0.51397 0.48607 0.85728 0.0
C2134 C 0.47783 0.49838 0.88636 0.0
C2135 C 0.49184 0.50151 0.8994 0.0
C2136 C 0.50593 0.49103 0.87181 0.0
C2137 C 0.51268 0.49873 0.89806 0.0
C2138 C 0.5269 0.47347 0.85654 0.0
C2139 C 0.51536 0.48959 0.83067 0.0
N2140 N 0.51903 0.49357 0.88455 0.0
N2141 N 0.50862 0.4937 0.84433 0.0
H2142 H 0.53326 0.01804 0.8217 0.0
H2143 H 0.48583 0.01922 0.90492 0.0
H2144 H 0.51242 0.0693 0.83662 0.0
H2145 H 0.49601 0.96222 0.8873 0.0
H2146 H 0.49897 0.0399 0.88082 0.0
H2147 H 0.52311 -0.00052 0.8464 0.0
C2148 C 0.52675 0.02555 0.83019 0.0
C2149 C 0.5237 0.04531 0.82698 0.0
C2150 C 0.49838 0.02289 0.88225 0.0
C2151 C 0.51181 0.02391 0.85543 0.0
C2152 C 0.49102 0.01114 0.89605 0.0
C2153 C 0.48964 0.98884 0.89816 0.0
C2154 C 0.50464 0.0124 0.87047 0.0
C2155 C 0.49641 0.97918 0.88616 0.0
C2156 C 0.52079 0.01481 0.8443 0.0
C2157 C 0.51481 0.05395 0.83847 0.0
N2158 N 0.50358 0.99098 0.87289 0.0
N2159 N 0.50922 0.04324 0.85214 0.0
H2160 H 0.18162 0.30271 0.51397 0.0
H2161 H 0.13635 0.30975 0.43095 0.0
H2162 H 0.10663 0.25768 0.49884 0.0
H2163 H 0.21092 0.35366 0.44704 0.0
H2164 H 0.12503 0.28955 0.45527 0.0
H2165 H 0.19247 0.32082 0.48925 0.0
C2166 C 0.16741 0.29646 0.50544 0.0
C2167 C 0.14314 0.27847 0.50859 0.0
C2168 C 0.14387 0.30359 0.45345 0.0
C2169 C 0.1555 0.29954 0.48005 0.0
C2170 C 0.1504 0.31504 0.43952 0.0
C2171 C 0.17463 0.33363 0.43691 0.0
C2172 C 0.16169 0.31068 0.46488 0.0
C2173 C 0.19193 0.33979 0.44855 0.0
C2174 C 0.17362 0.30696 0.49129 0.0
C2175 C 0.12552 0.27162 0.49704 0.0
N2176 N 0.18513 0.32843 0.46196 0.0
N2177 N 0.13204 0.28211 0.48332 0.0
H2178 H 0.66607 0.83019 0.51003 0.0
H2179 H 0.68278 0.83237 0.42205 0.0
H2180 H 0.73775 0.86981 0.48982 0.0
H2181 H 0.61893 0.82977 0.44229 0.0
H2182 H 0.70225 0.84018 0.44672 0.0
H2183 H 0.6471 0.82307 0.48509 0.0
C2184 C 0.67777 0.83724 0.50031 0.0
C2185 C 0.70346 0.85062 0.50192 0.0
C2186 C 0.68398 0.83791 0.44568 0.0
C2187 C 0.68201 0.84239 0.47348 0.0
C2188 C 0.67284 0.83361 0.43157 0.0
C2189 C 0.64901 0.83034 0.42992 0.0
C2190 C 0.67107 0.83848 0.45831 0.0
C2191 C 0.63702 0.83159 0.4429 0.0
C2192 C 0.66698 0.83331 0.48613 0.0
C2193 C 0.71786 0.85952 0.48901 0.0
N2194 N 0.64808 0.83537 0.45652 0.0
N2195 N 0.70695 0.8551 0.47529 0.0
H2196 H 0.11557 0.80879 0.50788 0.0
H2197 H 0.17166 0.86137 0.42706 0.0
H2198 H 0.14142 0.88225 0.49507 0.0
H2199 H 0.14852 0.7889 0.44088 0.0
H2200 H 0.1583 0.86873 0.45124 0.0
H2201 H 0.12523 0.80061 0.48285 0.0
C2202 C 0.12307 0.82317 0.49978 0.0
C2203 C 0.12771 0.84628 0.50368 0.0
C2204 C 0.15607 0.85119 0.44896 0.0
C2205 C 0.13912 0.83706 0.4749 0.0
C2206 C 0.16355 0.84692 0.4351 0.0
C2207 C 0.16139 0.82451 0.43191 0.0
C2208 C 0.14625 0.83291 0.45975 0.0
C2209 C 0.15096 0.80658 0.44289 0.0
C2210 C 0.12874 0.81852 0.48549 0.0
C2211 C 0.13784 0.86425 0.49269 0.0
N2212 N 0.14387 0.81118 0.45628 0.0
N2213 N 0.14321 0.85928 0.47885 0.0
H2214 H 0.65838 0.79915 0.16098 0.0
H2215 H 0.67846 0.86552 0.24022 0.0
H2216 H 0.61838 0.83469 0.17427 0.0
H2217 H 0.71476 0.82631 0.22712 0.0
H2218 H 0.65551 0.85385 0.21653 0.0
H2219 H 0.67868 0.80866 0.18536 0.0
C2220 C 0.65369 0.8088 0.16905 0.0
C2221 C 0.6365 0.81602 0.16549 0.0
C2222 C 0.66845 0.84775 0.21887 0.0
C2223 C 0.6601 0.82733 0.19356 0.0
C2224 C 0.68145 0.85427 0.23245 0.0
C2225 C 0.69876 0.84706 0.23567 0.0
C2226 C 0.67273 0.83387 0.20841 0.0
C2227 C 0.70199 0.8327 0.22505 0.0
C2228 C 0.66543 0.81436 0.18299 0.0
C2229 C 0.63167 0.82897 0.17639 0.0
N2230 N 0.68922 0.82668 0.21193 0.0
N2231 N 0.64339 0.83419 0.1899 0.0
H2232 H 0.17175 0.83575 0.15384 0.0
H2233 H 0.1938 0.85439 0.24129 0.0
H2234 H 0.2099 0.8051 0.17694 0.0
H2235 H 0.12589 0.84157 0.2205 0.0
H2236 H 0.20486 0.84224 0.21784 0.0
H2237 H 0.16023 0.84525 0.17808 0.0
C2238 C 0.17781 0.83116 0.16403 0.0
C2239 C 0.19174 0.8196 0.16341 0.0
C2240 C 0.18754 0.8421 0.21852 0.0
C2241 C 0.17895 0.8307 0.19116 0.0
C2242 C 0.18106 0.84888 0.23195 0.0
C2243 C 0.15894 0.84948 0.23301 0.0
C2244 C 0.17208 0.83632 0.20594 0.0
C2245 C 0.14351 0.84231 0.22027 0.0
C2246 C 0.17114 0.83646 0.17784 0.0
C2247 C 0.19903 0.81394 0.17697 0.0
N2248 N 0.15051 0.83641 0.2073 0.0
N2249 N 0.19276 0.81974 0.19031 0.0
H2250 H 0.18118 0.40686 0.17127 0.0
H2251 H 0.168 0.29778 0.22132 0.0
H2252 H 0.20314 0.35636 0.15651 0.0
H2253 H 0.1559 0.3537 0.23873 0.0
H2254 H 0.18053 0.31894 0.1975 0.0
H2255 H 0.17126 0.38759 0.19583 0.0
C2256 C 0.18389 0.3917 0.17315 0.0
C2257 C 0.193 0.38325 0.1617 0.0
C2258 C 0.17525 0.32669 0.20652 0.0
C2259 C 0.18171 0.36108 0.18996 0.0
C2260 C 0.16797 0.31455 0.22014 0.0
C2261 C 0.16069 0.32385 0.23208 0.0
C2262 C 0.17513 0.34833 0.20464 0.0
C2263 C 0.16147 0.34588 0.2299 0.0
C2264 C 0.17835 0.38079 0.18724 0.0
C2265 C 0.19642 0.36371 0.16497 0.0
N2266 N 0.16834 0.35726 0.21644 0.0
N2267 N 0.19066 0.35327 0.17871 0.0
H2268 H 0.76959 0.58873 0.83161 0.0
H2269 H 0.8762 0.68631 0.77921 0.0
H2270 H 0.84548 0.63283 0.84535 0.0
H2271 H 0.80114 0.64196 0.7641 0.0
H2272 H 0.865 0.6661 0.80331 0.0
H2273 H 0.78035 0.6074 0.80686 0.0
C2274 C 0.78849 0.60238 0.82948 0.0
C2275 C 0.80664 0.60911 0.84068 0.0
C2276 C 0.85092 0.66069 0.79475 0.0
C2277 C 0.81913 0.63047 0.81222 0.0
C2278 C 0.8573 0.67232 0.78096 0.0
C2279 C 0.83956 0.66603 0.76958 0.0
C2280 C 0.82653 0.64253 0.79735 0.0
C2281 C 0.81548 0.64737 0.77248 0.0
C2282 C 0.79464 0.61293 0.81529 0.0
C2283 C 0.83088 0.62672 0.8371 0.0
N2284 N 0.80964 0.63639 0.78609 0.0
N2285 N 0.83635 0.63675 0.82326 0.0
H2286 H 0.39484 0.19483 0.83095 0.0
H2287 H 0.27881 0.16497 0.78081 0.0
H2288 H 0.32217 0.16407 0.84981 0.0
H2289 H 0.33704 0.15379 0.76413 0.0
H2290 H 0.29692 0.17152 0.80576 0.0
H2291 H 0.37651 0.18687 0.80574 0.0
C2292 C 0.37503 0.18639 0.82973 0.0
C2293 C 0.3599 0.17999 0.84236 0.0
C2294 C 0.30564 0.1676 0.79659 0.0
C2295 C 0.339 0.17133 0.81379 0.0
C2296 C 0.29526 0.16369 0.78231 0.0
C2297 C 0.30618 0.15857 0.77017 0.0
C2298 C 0.32746 0.16699 0.79879 0.0
C2299 C 0.32804 0.15803 0.77295 0.0
C2300 C 0.36462 0.1818 0.81541 0.0
C2301 C 0.33436 0.1691 0.84028 0.0
N2302 N 0.33802 0.16233 0.78693 0.0
N2303 N 0.32468 0.16532 0.82624 0.0
H2304 H 0.84862 0.19558 0.84695 0.0
H2305 H 0.80476 0.14638 0.76336 0.0
H2306 H 0.77368 0.16684 0.83158 0.0
H2307 H 0.87962 0.177 0.7793 0.0
H2308 H 0.79279 0.15387 0.788 0.0
H2309 H 0.85997 0.1887 0.82214 0.0
C2310 C 0.83453 0.18793 0.83835 0.0
C2311 C 0.81014 0.18193 0.84142 0.0
C2312 C 0.81184 0.15895 0.78608 0.0
C2313 C 0.82306 0.17372 0.81281 0.0
C2314 C 0.81873 0.15483 0.77197 0.0
C2315 C 0.84324 0.16094 0.7692 0.0
C2316 C 0.82958 0.16933 0.79754 0.0
C2317 C 0.86043 0.17158 0.78092 0.0
C2318 C 0.84102 0.18389 0.82415 0.0
C2319 C 0.79265 0.17157 0.82981 0.0
N2320 N 0.85328 0.17539 0.79451 0.0
N2321 N 0.79946 0.16786 0.81604 0.0
H2322 H 0.27329 0.15076 0.50504 0.0
H2323 H 0.36718 0.13652 0.55931 0.0
H2324 H 0.31902 0.12167 0.49104 0.0
H2325 H 0.32624 0.17102 0.57279 0.0
H2326 H 0.34863 0.12986 0.53447 0.0
H2327 H 0.29149 0.15742 0.53007 0.0
C2328 C 0.28723 0.14588 0.50718 0.0
C2329 C 0.29457 0.13559 0.49586 0.0
C2330 C 0.34367 0.13889 0.54284 0.0
C2331 C 0.31531 0.14294 0.52461 0.0
C2332 C 0.35438 0.14282 0.55704 0.0
C2333 C 0.3484 0.15448 0.56819 0.0
C2334 C 0.32677 0.14661 0.53969 0.0
C2335 C 0.33125 0.16175 0.56462 0.0
C2336 C 0.29752 0.14957 0.52152 0.0
C2337 C 0.31247 0.1293 0.49943 0.0
N2338 N 0.32109 0.15775 0.55069 0.0
N2339 N 0.32219 0.13307 0.51345 0.0
H2340 H 0.83883 0.16057 0.48505 0.0
H2341 H 0.85378 0.16212 0.5731 0.0
H2342 H 0.87085 0.12211 0.50591 0.0
H2343 H 0.79049 0.16012 0.55216 0.0
H2344 H 0.86532 0.15326 0.5488 0.0
H2345 H 0.82654 0.16743 0.5098 0.0
C2346 C 0.84338 0.1537 0.49487 0.0
C2347 C 0.85584 0.14075 0.49347 0.0
C2348 C 0.8489 0.15475 0.54962 0.0
C2349 C 0.84214 0.14877 0.52177 0.0
C2350 C 0.84212 0.15966 0.56353 0.0
C2351 C 0.82109 0.16211 0.56489 0.0
C2352 C 0.83492 0.15278 0.53685 0.0
C2353 C 0.80721 0.15915 0.55181 0.0
C2354 C 0.83626 0.1575 0.50895 0.0
C2355 C 0.86117 0.1321 0.50654 0.0
N2356 N 0.8145 0.15491 0.53838 0.0
N2357 N 0.85449 0.13644 0.52018 0.0
H2358 H 0.81293 0.692 0.48861 0.0
H2359 H 0.85882 0.68145 0.57078 0.0
H2360 H 0.88877 0.73392 0.50292 0.0
H2361 H 0.78427 0.63792 0.55459 0.0
H2362 H 0.87011 0.70243 0.54669 0.0
H2363 H 0.80219 0.67346 0.51321 0.0
C2364 C 0.82735 0.69749 0.49695 0.0
C2365 C 0.85183 0.71472 0.4936 0.0
C2366 C 0.85128 0.6883 0.54843 0.0
C2367 C 0.83958 0.69314 0.522 0.0
C2368 C 0.84477 0.67642 0.56223 0.0
C2369 C 0.82057 0.6577 0.56474 0.0
C2370 C 0.83344 0.68156 0.53705 0.0
C2371 C 0.80325 0.65189 0.55314 0.0
C2372 C 0.8212 0.68674 0.51102 0.0
C2373 C 0.86971 0.7206 0.50488 0.0
N2374 N 0.81001 0.66369 0.53987 0.0
N2375 N 0.86323 0.70988 0.51855 0.0
loop_
_geom_bond_atom_site_label_1
_geom_bond_atom_site_label_2
_geom_bond_distance
_geom_bond_site_symmetry_2
_ccdc_geom_bond_type
C0 C1 1.384 . S
C0 H13 0.947 . S
C0 C35 1.382 . S
C1 C0 1.384 . S
C1 C2 1.378 . S
C2 C1 1.378 . S
C2 C3 1.378 . S
C2 H14 0.952 . S
C3 C2 1.378 . S
C3 H15 0.950 . S
C3 C34 1.383 . S
H4 C23 0.947 . S
H5 C24 0.946 . S
H6 C26 0.953 . S
H7 C27 0.945 . S
H8 C29 0.952 . S
H9 C30 0.949 . S
H10 C32 0.950 . S
H11 C33 0.948 . S
H12 C35 0.951 . S
H13 C0 0.947 . S
H14 C2 0.952 . S
H15 C3 0.950 . S
N16 C19 1.382 . S
N16 C21 1.363 . S
N17 C19 1.371 . S
N17 C20 1.372 . S
N18 C20 1.361 . S
N18 C21 1.377 . S
C19 N16 1.382 . S
C19 N17 1.371 . S
C19 C22 1.480 . S
C20 N17 1.372 . S
C20 N18 1.361 . S
C20 C28 1.457 . S
C21 N16 1.363 . S
C21 N18 1.377 . S
C21 C34 1.479 . S
C22 C19 1.480 . S
C22 C23 1.383 . S
C22 C27 1.385 . S
C23 H4 0.947 . S
C23 C22 1.383 . S
C23 C24 1.388 . S
C24 H5 0.946 . S
C24 C23 1.388 . S
C24 C25 1.384 . S
C25 C24 1.384 . S
C25 C26 1.377 . S
C26 H6 0.953 . S
C26 C25 1.377 . S
C26 C27 1.369 . S
C27 H7 0.945 . S
C27 C22 1.385 . S
C27 C26 1.369 . S
C28 C20 1.457 . S
C28 C29 1.372 . S
C28 C33 1.364 . S
C29 H8 0.952 . S
C29 C28 1.372 . S
C29 C30 1.389 . S
C30 H9 0.949 . S
C30 C29 1.389 . S
C30 C31 1.387 . S
C31 C30 1.387 . S
C31 C32 1.372 . S
C32 H10 0.950 . S
C32 C31 1.372 . S
C32 C33 1.379 . S
C33 H11 0.948 . S
C33 C28 1.364 . S
C33 C32 1.379 . S
C34 C3 1.383 . S
C34 C21 1.479 . S
C34 C35 1.398 . S
C35 C0 1.382 . S
C35 H12 0.951 . S
C35 C34 1.398 . S
C36 C37 1.384 . S
C36 H49 0.947 . S
C36 C71 1.382 . S
C37 C36 1.384 . S
C37 C38 1.378 . S
C38 C37 1.378 . S
C38 C39 1.378 . S
C38 H50 0.952 . S
C39 C38 1.378 . S
C39 H51 0.950 . S
C39 C70 1.383 . S
H40 C59 0.947 . S
H41 C60 0.946 . S
H42 C62 0.953 . S
H43 C63 0.945 . S
H44 C65 0.952 . S
H45 C66 0.949 . S
H46 C68 0.950 . S
H47 C69 0.948 . S
H48 C71 0.951 . S
H49 C36 0.947 . S
H50 C38 0.952 . S
H51 C39 0.950 . S
N52 C55 1.382 . S
N52 C57 1.363 . S
N53 C55 1.371 . S
N53 C56 1.372 . S
N54 C56 1.361 . S
N54 C57 1.377 . S
C55 N52 1.382 . S
C55 N53 1.371 . S
C55 C58 1.480 . S
C56 N53 1.372 . S
C56 N54 1.361 . S
C56 C64 1.457 . S
C57 N52 1.363 . S
C57 N54 1.377 . S
C57 C70 1.479 . S
C58 C55 1.480 . S
C58 C59 1.383 . S
C58 C63 1.385 . S
C59 H40 0.947 . S
C59 C58 1.383 . S
C59 C60 1.388 . S
C60 H41 0.946 . S
C60 C59 1.388 . S
C60 C61 1.384 . S
C61 C60 1.384 . S
C61 C62 1.377 . S
C62 H42 0.953 . S
C62 C61 1.377 . S
C62 C63 1.369 . S
C63 H43 0.945 . S
C63 C58 1.385 . S
C63 C62 1.369 . S
C64 C56 1.457 . S
C64 C65 1.372 . S
C64 C69 1.364 . S
C65 H44 0.952 . S
C65 C64 1.372 . S
C65 C66 1.389 . S
C66 H45 0.949 . S
C66 C65 1.389 . S
C66 C67 1.387 . S
C67 C66 1.387 . S
C67 C68 1.372 . S
C68 H46 0.950 . S
C68 C67 1.372 . S
C68 C69 1.379 . S
C69 H47 0.948 . S
C69 C64 1.364 . S
C69 C68 1.379 . S
C70 C39 1.383 . S
C70 C57 1.479 . S
C70 C71 1.398 . S
C71 C36 1.382 . S
C71 H48 0.951 . S
C71 C70 1.398 . S
C72 C73 1.384 . S
C72 H85 0.947 . S
C72 C107 1.382 . S
C73 C72 1.384 . S
C73 C74 1.378 . S
C74 C73 1.378 . S
C74 C75 1.378 . S
C74 H86 0.952 . S
C75 C74 1.378 . S
C75 H87 0.950 . S
C75 C106 1.383 . S
H76 C95 0.947 . S
H77 C96 0.946 . S
H78 C98 0.953 . S
H79 C99 0.945 . S
H80 C101 0.952 . S
H81 C102 0.949 . S
H82 C104 0.950 . S
H83 C105 0.948 . S
H84 C107 0.951 . S
H85 C72 0.947 . S
H86 C74 0.952 . S
H87 C75 0.950 . S
N88 C91 1.382 . S
N88 C93 1.363 . S
N89 C91 1.371 . S
N89 C92 1.372 . S
N90 C92 1.361 . S
N90 C93 1.377 . S
C91 N88 1.382 . S
C91 N89 1.371 . S
C91 C94 1.480 . S
C92 N89 1.372 . S
C92 N90 1.361 . S
C92 C100 1.457 . S
C93 N88 1.363 . S
C93 N90 1.377 . S
C93 C106 1.479 . S
C94 C91 1.480 . S
C94 C95 1.383 . S
C94 C99 1.385 . S
C95 H76 0.947 . S
C95 C94 1.383 . S
C95 C96 1.388 . S
C96 H77 0.946 . S
C96 C95 1.388 . S
C96 C97 1.384 . S
C97 C96 1.384 . S
C97 C98 1.377 . S
C98 H78 0.953 . S
C98 C97 1.377 . S
C98 C99 1.369 . S
C99 H79 0.945 . S
C99 C94 1.385 . S
C99 C98 1.369 . S
C100 C92 1.457 . S
C100 C101 1.372 . S
C100 C105 1.364 . S
C101 H80 0.952 . S
C101 C100 1.372 . S
C101 C102 1.389 . S
C102 H81 0.949 . S
C102 C101 1.389 . S
C102 C103 1.387 . S
C103 C102 1.387 . S
C103 C104 1.372 . S
C104 H82 0.950 . S
C104 C103 1.372 . S
C104 C105 1.379 . S
C105 H83 0.948 . S
C105 C100 1.364 . S
C105 C104 1.379 . S
C106 C75 1.383 . S
C106 C93 1.479 . S
C106 C107 1.398 . S
C107 C72 1.382 . S
C107 H84 0.951 . S
C107 C106 1.398 . S
C108 C109 1.384 . S
C108 H121 0.947 . S
C108 C143 1.382 . S
C109 C108 1.384 . S
C109 C110 1.378 . S
C110 C109 1.378 . S
C110 C111 1.378 . S
C110 H122 0.952 . S
C111 C110 1.378 . S
C111 H123 0.950 . S
C111 C142 1.383 . S
H112 C131 0.947 . S
H113 C132 0.946 . S
H114 C134 0.953 . S
H115 C135 0.945 . S
H116 C137 0.952 . S
H117 C138 0.949 . S
H118 C140 0.950 . S
H119 C141 0.948 . S
H120 C143 0.951 . S
H121 C108 0.947 . S
H122 C110 0.952 . S
H123 C111 0.950 . S
N124 C127 1.382 . S
N124 C129 1.363 . S
N125 C127 1.371 . S
N125 C128 1.372 . S
N126 C128 1.361 . S
N126 C129 1.377 . S
C127 N124 1.382 . S
C127 N125 1.371 . S
C127 C130 1.480 . S
C128 N125 1.372 . S
C128 N126 1.361 . S
C128 C136 1.457 . S
C129 N124 1.363 . S
C129 N126 1.377 . S
C129 C142 1.479 . S
C130 C127 1.480 . S
C130 C131 1.383 . S
C130 C135 1.385 . S
C131 H112 0.947 . S
C131 C130 1.383 . S
C131 C132 1.388 . S
C132 H113 0.946 . S
C132 C131 1.388 . S
C132 C133 1.384 . S
C133 C132 1.384 . S
C133 C134 1.377 . S
C134 H114 0.953 . S
C134 C133 1.377 . S
C134 C135 1.369 . S
C135 H115 0.945 . S
C135 C130 1.385 . S
C135 C134 1.369 . S
C136 C128 1.457 . S
C136 C137 1.372 . S
C136 C141 1.364 . S
C137 H116 0.952 . S
C137 C136 1.372 . S
C137 C138 1.389 . S
C138 H117 0.949 . S
C138 C137 1.389 . S
C138 C139 1.387 . S
C139 C138 1.387 . S
C139 C140 1.372 . S
C140 H118 0.950 . S
C140 C139 1.372 . S
C140 C141 1.379 . S
C141 H119 0.948 . S
C141 C136 1.364 . S
C141 C140 1.379 . S
C142 C111 1.383 . S
C142 C129 1.479 . S
C142 C143 1.398 . S
C143 C108 1.382 . S
C143 H120 0.951 . S
C143 C142 1.398 . S
C144 C145 1.384 . S
C144 H157 0.947 . S
C144 C179 1.382 . S
C145 C144 1.384 . S
C145 C146 1.378 . S
C146 C145 1.378 . S
C146 C147 1.378 . S
C146 H158 0.952 . S
C147 C146 1.378 . S
C147 H159 0.950 . S
C147 C178 1.383 . S
H148 C167 0.947 . S
H149 C168 0.946 . S
H150 C170 0.953 . S
H151 C171 0.945 . S
H152 C173 0.952 . S
H153 C174 0.949 . S
H154 C176 0.950 . S
H155 C177 0.948 . S
H156 C179 0.951 . S
H157 C144 0.947 . S
H158 C146 0.952 . S
H159 C147 0.950 . S
N160 C163 1.382 . S
N160 C165 1.363 . S
N161 C163 1.371 . S
N161 C164 1.372 . S
N162 C164 1.361 . S
N162 C165 1.377 . S
C163 N160 1.382 . S
C163 N161 1.371 . S
C163 C166 1.480 . S
C164 N161 1.372 . S
C164 N162 1.361 . S
C164 C172 1.457 . S
C165 N160 1.363 . S
C165 N162 1.377 . S
C165 C178 1.479 . S
C166 C163 1.480 . S
C166 C167 1.383 . S
C166 C171 1.385 . S
C167 H148 0.947 . S
C167 C166 1.383 . S
C167 C168 1.388 . S
C168 H149 0.946 . S
C168 C167 1.388 . S
C168 C169 1.384 . S
C169 C168 1.384 . S
C169 C170 1.377 . S
C170 H150 0.953 . S
C170 C169 1.377 . S
C170 C171 1.369 . S
C171 H151 0.945 . S
C171 C166 1.385 . S
C171 C170 1.369 . S
C172 C164 1.457 . S
C172 C173 1.372 . S
C172 C177 1.364 . S
C173 H152 0.952 . S
C173 C172 1.372 . S
C173 C174 1.389 . S
C174 H153 0.949 . S
C174 C173 1.389 . S
C174 C175 1.387 . S
C175 C174 1.387 . S
C175 C176 1.372 . S
C176 H154 0.950 . S
C176 C175 1.372 . S
C176 C177 1.379 . S
C177 H155 0.948 . S
C177 C172 1.364 . S
C177 C176 1.379 . S
C178 C147 1.383 . S
C178 C165 1.479 . S
C178 C179 1.398 . S
C179 C144 1.382 . S
C179 H156 0.951 . S
C179 C178 1.398 . S
C180 C181 1.384 . S
C180 H193 0.947 . S
C180 C215 1.382 . S
C181 C180 1.384 . S
C181 C182 1.378 . S
C182 C181 1.378 . S
C182 C183 1.378 . S
C182 H194 0.952 . S
C183 C182 1.378 . S
C183 H195 0.950 . S
C183 C214 1.383 . S
H184 C203 0.947 . S
H185 C204 0.946 . S
H186 C206 0.953 . S
H187 C207 0.945 . S
H188 C209 0.952 . S
H189 C210 0.949 . S
H190 C212 0.950 . S
H191 C213 0.948 . S
H192 C215 0.951 . S
H193 C180 0.947 . S
H194 C182 0.952 . S
H195 C183 0.950 . S
N196 C199 1.382 . S
N196 C201 1.363 . S
N197 C199 1.371 . S
N197 C200 1.372 . S
N198 C200 1.361 . S
N198 C201 1.377 . S
C199 N196 1.382 . S
C199 N197 1.371 . S
C199 C202 1.480 . S
C200 N197 1.372 . S
C200 N198 1.361 . S
C200 C208 1.457 . S
C201 N196 1.363 . S
C201 N198 1.377 . S
C201 C214 1.479 . S
C202 C199 1.480 . S
C202 C203 1.383 . S
C202 C207 1.385 . S
C203 H184 0.947 . S
C203 C202 1.383 . S
C203 C204 1.388 . S
C204 H185 0.946 . S
C204 C203 1.388 . S
C204 C205 1.384 . S
C205 C204 1.384 . S
C205 C206 1.377 . S
C206 H186 0.953 . S
C206 C205 1.377 . S
C206 C207 1.369 . S
C207 H187 0.945 . S
C207 C202 1.385 . S
C207 C206 1.369 . S
C208 C200 1.457 . S
C208 C209 1.372 . S
C208 C213 1.364 . S
C209 H188 0.952 . S
C209 C208 1.372 . S
C209 C210 1.389 . S
C210 H189 0.949 . S
C210 C209 1.389 . S
C210 C211 1.387 . S
C211 C210 1.387 . S
C211 C212 1.372 . S
C212 H190 0.950 . S
C212 C211 1.372 . S
C212 C213 1.379 . S
C213 H191 0.948 . S
C213 C208 1.364 . S
C213 C212 1.379 . S
C214 C183 1.383 . S
C214 C201 1.479 . S
C214 C215 1.398 . S
C215 C180 1.382 . S
C215 H192 0.951 . S
C215 C214 1.398 . S
C216 C217 1.384 . S
C216 H229 0.947 . S
C216 C251 1.382 . S
C217 C216 1.384 . S
C217 C218 1.378 . S
C218 C217 1.378 . S
C218 C219 1.378 . S
C218 H230 0.952 . S
C219 C218 1.378 . S
C219 H231 0.950 . S
C219 C250 1.383 . S
H220 C239 0.947 . S
H221 C240 0.946 . S
H222 C242 0.953 . S
H223 C243 0.945 . S
H224 C245 0.952 . S
H225 C246 0.949 . S
H226 C248 0.950 . S
H227 C249 0.948 . S
H228 C251 0.951 . S
H229 C216 0.947 . S
H230 C218 0.952 . S
H231 C219 0.950 . S
N232 C235 1.382 . S
N232 C237 1.363 . S
N233 C235 1.371 . S
N233 C236 1.372 . S
N234 C236 1.361 . S
N234 C237 1.377 . S
C235 N232 1.382 . S
C235 N233 1.371 . S
C235 C238 1.480 . S
C236 N233 1.372 . S
C236 N234 1.361 . S
C236 C244 1.457 . S
C237 N232 1.363 . S
C237 N234 1.377 . S
C237 C250 1.479 . S
C238 C235 1.480 . S
C238 C239 1.383 . S
C238 C243 1.385 . S
C239 H220 0.947 . S
C239 C238 1.383 . S
C239 C240 1.388 . S
C240 H221 0.946 . S
C240 C239 1.388 . S
C240 C241 1.384 . S
C241 C240 1.384 . S
C241 C242 1.377 . S
C242 H222 0.953 . S
C242 C241 1.377 . S
C242 C243 1.369 . S
C243 H223 0.945 . S
C243 C238 1.385 . S
C243 C242 1.369 . S
C244 C236 1.457 . S
C244 C245 1.372 . S
C244 C249 1.364 . S
C245 H224 0.952 . S
C245 C244 1.372 . S
C245 C246 1.389 . S
C246 H225 0.949 . S
C246 C245 1.389 . S
C246 C247 1.387 . S
C247 C246 1.387 . S
C247 C248 1.372 . S
C248 H226 0.950 . S
C248 C247 1.372 . S
C248 C249 1.379 . S
C249 H227 0.948 . S
C249 C244 1.364 . S
C249 C248 1.379 . S
C250 C219 1.383 . S
C250 C237 1.479 . S
C250 C251 1.398 . S
C251 C216 1.382 . S
C251 H228 0.951 . S
C251 C250 1.398 . S
C252 C253 1.384 . S
C252 H265 0.947 . S
C252 C287 1.382 . S
C253 C252 1.384 . S
C253 C254 1.378 . S
C254 C253 1.378 . S
C254 C255 1.378 . S
C254 H266 0.952 . S
C255 C254 1.378 . S
C255 H267 0.950 . S
C255 C286 1.383 . S
H256 C275 0.947 . S
H257 C276 0.946 . S
H258 C278 0.953 . S
H259 C279 0.945 . S
H260 C281 0.952 . S
H261 C282 0.949 . S
H262 C284 0.950 . S
H263 C285 0.948 . S
H264 C287 0.951 . S
H265 C252 0.947 . S
H266 C254 0.952 . S
H267 C255 0.950 . S
N268 C271 1.382 . S
N268 C273 1.363 . S
N269 C271 1.371 . S
N269 C272 1.372 . S
N270 C272 1.361 . S
N270 C273 1.377 . S
C271 N268 1.382 . S
C271 N269 1.371 . S
C271 C274 1.480 . S
C272 N269 1.372 . S
C272 N270 1.361 . S
C272 C280 1.457 . S
C273 N268 1.363 . S
C273 N270 1.377 . S
C273 C286 1.479 . S
C274 C271 1.480 . S
C274 C275 1.383 . S
C274 C279 1.385 . S
C275 H256 0.947 . S
C275 C274 1.383 . S
C275 C276 1.388 . S
C276 H257 0.946 . S
C276 C275 1.388 . S
C276 C277 1.384 . S
C277 C276 1.384 . S
C277 C278 1.377 . S
C278 H258 0.953 . S
C278 C277 1.377 . S
C278 C279 1.369 . S
C279 H259 0.945 . S
C279 C274 1.385 . S
C279 C278 1.369 . S
C280 C272 1.457 . S
C280 C281 1.372 . S
C280 C285 1.364 . S
C281 H260 0.952 . S
C281 C280 1.372 . S
C281 C282 1.389 . S
C282 H261 0.949 . S
C282 C281 1.389 . S
C282 C283 1.387 . S
C283 C282 1.387 . S
C283 C284 1.372 . S
C284 H262 0.950 . S
C284 C283 1.372 . S
C284 C285 1.379 . S
C285 H263 0.948 . S
C285 C280 1.364 . S
C285 C284 1.379 . S
C286 C255 1.383 . S
C286 C273 1.479 . S
C286 C287 1.398 . S
C287 C252 1.382 . S
C287 H264 0.951 . S
C287 C286 1.398 . S
C288 C289 1.384 . S
C288 H301 0.947 . S
C288 C323 1.382 . S
C289 C288 1.384 . S
C289 C290 1.378 . S
C290 C289 1.378 . S
C290 C291 1.378 . S
C290 H302 0.952 . S
C291 C290 1.378 . S
C291 H303 0.950 . S
C291 C322 1.383 . S
H292 C311 0.947 . S
H293 C312 0.946 . S
H294 C314 0.953 . S
H295 C315 0.945 . S
H296 C317 0.952 . S
H297 C318 0.949 . S
H298 C320 0.950 . S
H299 C321 0.948 . S
H300 C323 0.951 . S
H301 C288 0.947 . S
H302 C290 0.952 . S
H303 C291 0.950 . S
N304 C307 1.382 . S
N304 C309 1.363 . S
N305 C307 1.371 . S
N305 C308 1.372 . S
N306 C308 1.361 . S
N306 C309 1.377 . S
C307 N304 1.382 . S
C307 N305 1.371 . S
C307 C310 1.480 . S
C308 N305 1.372 . S
C308 N306 1.361 . S
C308 C316 1.457 . S
C309 N304 1.363 . S
C309 N306 1.377 . S
C309 C322 1.479 . S
C310 C307 1.480 . S
C310 C311 1.383 . S
C310 C315 1.385 . S
C311 H292 0.947 . S
C311 C310 1.383 . S
C311 C312 1.388 . S
C312 H293 0.946 . S
C312 C311 1.388 . S
C312 C313 1.384 . S
C313 C312 1.384 . S
C313 C314 1.377 . S
C314 H294 0.953 . S
C314 C313 1.377 . S
C314 C315 1.369 . S
C315 H295 0.945 . S
C315 C310 1.385 . S
C315 C314 1.369 . S
C316 C308 1.457 . S
C316 C317 1.372 . S
C316 C321 1.364 . S
C317 H296 0.952 . S
C317 C316 1.372 . S
C317 C318 1.389 . S
C318 H297 0.949 . S
C318 C317 1.389 . S
C318 C319 1.387 . S
C319 C318 1.387 . S
C319 C320 1.372 . S
C320 H298 0.950 . S
C320 C319 1.372 . S
C320 C321 1.379 . S
C321 H299 0.948 . S
C321 C316 1.364 . S
C321 C320 1.379 . S
C322 C291 1.383 . S
C322 C309 1.479 . S
C322 C323 1.398 . S
C323 C288 1.382 . S
C323 H300 0.951 . S
C323 C322 1.398 . S
C324 C325 1.384 . S
C324 H337 0.947 . S
C324 C359 1.382 . S
C325 C324 1.384 . S
C325 C326 1.378 . S
C326 C325 1.378 . S
C326 C327 1.378 . S
C326 H338 0.952 . S
C327 C326 1.378 . S
C327 H339 0.950 . S
C327 C358 1.383 . S
H328 C347 0.947 . S
H329 C348 0.946 . S
H330 C350 0.953 . S
H331 C351 0.945 . S
H332 C353 0.952 . S
H333 C354 0.949 . S
H334 C356 0.950 . S
H335 C357 0.948 . S
H336 C359 0.951 . S
H337 C324 0.947 . S
H338 C326 0.952 . S
H339 C327 0.950 . S
N340 C343 1.382 . S
N340 C345 1.363 . S
N341 C343 1.371 . S
N341 C344 1.372 . S
N342 C344 1.361 . S
N342 C345 1.377 . S
C343 N340 1.382 . S
C343 N341 1.371 . S
C343 C346 1.480 . S
C344 N341 1.372 . S
C344 N342 1.361 . S
C344 C352 1.457 . S
C345 N340 1.363 . S
C345 N342 1.377 . S
C345 C358 1.479 . S
C346 C343 1.480 . S
C346 C347 1.383 . S
C346 C351 1.385 . S
C347 H328 0.947 . S
C347 C346 1.383 . S
C347 C348 1.388 . S
C348 H329 0.946 . S
C348 C347 1.388 . S
C348 C349 1.384 . S
C349 C348 1.384 . S
C349 C350 1.377 . S
C350 H330 0.953 . S
C350 C349 1.377 . S
C350 C351 1.369 . S
C351 H331 0.945 . S
C351 C346 1.385 . S
C351 C350 1.369 . S
C352 C344 1.457 . S
C352 C353 1.372 . S
C352 C357 1.364 . S
C353 H332 0.952 . S
C353 C352 1.372 . S
C353 C354 1.389 . S
C354 H333 0.949 . S
C354 C353 1.389 . S
C354 C355 1.387 . S
C355 C354 1.387 . S
C355 C356 1.372 . S
C356 H334 0.950 . S
C356 C355 1.372 . S
C356 C357 1.379 . S
C357 H335 0.948 . S
C357 C352 1.364 . S
C357 C356 1.379 . S
C358 C327 1.383 . S
C358 C345 1.479 . S
C358 C359 1.398 . S
C359 C324 1.382 . S
C359 H336 0.951 . S
C359 C358 1.398 . S
C360 C361 1.384 . S
C360 H373 0.947 . S
C360 C395 1.382 . S
C361 C360 1.384 . S
C361 C362 1.378 . S
C362 C361 1.378 . S
C362 C363 1.378 . S
C362 H374 0.952 . S
C363 C362 1.378 . S
C363 H375 0.950 . S
C363 C394 1.383 . S
H364 C383 0.947 . S
H365 C384 0.946 . S
H366 C386 0.953 . S
H367 C387 0.945 . S
H368 C389 0.952 . S
H369 C390 0.949 . S
H370 C392 0.950 . S
H371 C393 0.948 . S
H372 C395 0.951 . S
H373 C360 0.947 . S
H374 C362 0.952 . S
H375 C363 0.950 . S
N376 C379 1.382 . S
N376 C381 1.363 . S
N377 C379 1.371 . S
N377 C380 1.372 . S
N378 C380 1.361 . S
N378 C381 1.377 . S
C379 N376 1.382 . S
C379 N377 1.371 . S
C379 C382 1.480 . S
C380 N377 1.372 . S
C380 N378 1.361 . S
C380 C388 1.457 . S
C381 N376 1.363 . S
C381 N378 1.377 . S
C381 C394 1.479 . S
C382 C379 1.480 . S
C382 C383 1.383 . S
C382 C387 1.385 . S
C383 H364 0.947 . S
C383 C382 1.383 . S
C383 C384 1.388 . S
C384 H365 0.946 . S
C384 C383 1.388 . S
C384 C385 1.384 . S
C385 C384 1.384 . S
C385 C386 1.377 . S
C386 H366 0.953 . S
C386 C385 1.377 . S
C386 C387 1.369 . S
C387 H367 0.945 . S
C387 C382 1.385 . S
C387 C386 1.369 . S
C388 C380 1.457 . S
C388 C389 1.372 . S
C388 C393 1.364 . S
C389 H368 0.952 . S
C389 C388 1.372 . S
C389 C390 1.389 . S
C390 H369 0.949 . S
C390 C389 1.389 . S
C390 C391 1.387 . S
C391 C390 1.387 . S
C391 C392 1.372 . S
C392 H370 0.950 . S
C392 C391 1.372 . S
C392 C393 1.379 . S
C393 H371 0.948 . S
C393 C388 1.364 . S
C393 C392 1.379 . S
C394 C363 1.383 . S
C394 C381 1.479 . S
C394 C395 1.398 . S
C395 C360 1.382 . S
C395 H372 0.951 . S
C395 C394 1.398 . S
C396 C397 1.384 . S
C396 H409 0.947 . S
C396 C431 1.382 . S
C397 C396 1.384 . S
C397 C398 1.378 . S
C398 C397 1.378 . S
C398 C399 1.378 . S
C398 H410 0.952 . S
C399 C398 1.378 . S
C399 H411 0.950 . S
C399 C430 1.383 . S
H400 C419 0.947 . S
H401 C420 0.946 . S
H402 C422 0.953 . S
H403 C423 0.945 . S
H404 C425 0.952 . S
H405 C426 0.949 . S
H406 C428 0.950 . S
H407 C429 0.948 . S
H408 C431 0.951 . S
H409 C396 0.947 . S
H410 C398 0.952 . S
H411 C399 0.950 . S
N412 C415 1.382 . S
N412 C417 1.363 . S
N413 C415 1.371 . S
N413 C416 1.372 . S
N414 C416 1.361 . S
N414 C417 1.377 . S
C415 N412 1.382 . S
C415 N413 1.371 . S
C415 C418 1.480 . S
C416 N413 1.372 . S
C416 N414 1.361 . S
C416 C424 1.457 . S
C417 N412 1.363 . S
C417 N414 1.377 . S
C417 C430 1.479 . S
C418 C415 1.480 . S
C418 C419 1.383 . S
C418 C423 1.385 . S
C419 H400 0.947 . S
C419 C418 1.383 . S
C419 C420 1.388 . S
C420 H401 0.946 . S
C420 C419 1.388 . S
C420 C421 1.384 . S
C421 C420 1.384 . S
C421 C422 1.377 . S
C422 H402 0.953 . S
C422 C421 1.377 . S
C422 C423 1.369 . S
C423 H403 0.945 . S
C423 C418 1.385 . S
C423 C422 1.369 . S
C424 C416 1.457 . S
C424 C425 1.372 . S
C424 C429 1.364 . S
C425 H404 0.952 . S
C425 C424 1.372 . S
C425 C426 1.389 . S
C426 H405 0.949 . S
C426 C425 1.389 . S
C426 C427 1.387 . S
C427 C426 1.387 . S
C427 C428 1.372 . S
C428 H406 0.950 . S
C428 C427 1.372 . S
C428 C429 1.379 . S
C429 H407 0.948 . S
C429 C424 1.364 . S
C429 C428 1.379 . S
C430 C399 1.383 . S
C430 C417 1.479 . S
C430 C431 1.398 . S
C431 C396 1.382 . S
C431 H408 0.951 . S
C431 C430 1.398 . S
C432 C433 1.384 . S
C432 H445 0.947 . S
C432 C467 1.382 . S
C433 C432 1.384 . S
C433 C434 1.378 . S
C434 C433 1.378 . S
C434 C435 1.378 . S
C434 H446 0.952 . S
C435 C434 1.378 . S
C435 H447 0.950 . S
C435 C466 1.383 . S
H436 C455 0.947 . S
H437 C456 0.946 . S
H438 C458 0.953 . S
H439 C459 0.945 . S
H440 C461 0.952 . S
H441 C462 0.949 . S
H442 C464 0.950 . S
H443 C465 0.948 . S
H444 C467 0.951 . S
H445 C432 0.947 . S
H446 C434 0.952 . S
H447 C435 0.950 . S
N448 C451 1.382 . S
N448 C453 1.363 . S
N449 C451 1.371 . S
N449 C452 1.372 . S
N450 C452 1.361 . S
N450 C453 1.377 . S
C451 N448 1.382 . S
C451 N449 1.371 . S
C451 C454 1.480 . S
C452 N449 1.372 . S
C452 N450 1.361 . S
C452 C460 1.457 . S
C453 N448 1.363 . S
C453 N450 1.377 . S
C453 C466 1.479 . S
C454 C451 1.480 . S
C454 C455 1.383 . S
C454 C459 1.385 . S
C455 H436 0.947 . S
C455 C454 1.383 . S
C455 C456 1.388 . S
C456 H437 0.946 . S
C456 C455 1.388 . S
C456 C457 1.384 . S
C457 C456 1.384 . S
C457 C458 1.377 . S
C458 H438 0.953 . S
C458 C457 1.377 . S
C458 C459 1.369 . S
C459 H439 0.945 . S
C459 C454 1.385 . S
C459 C458 1.369 . S
C460 C452 1.457 . S
C460 C461 1.372 . S
C460 C465 1.364 . S
C461 H440 0.952 . S
C461 C460 1.372 . S
C461 C462 1.389 . S
C462 H441 0.949 . S
C462 C461 1.389 . S
C462 C463 1.387 . S
C463 C462 1.387 . S
C463 C464 1.372 . S
C464 H442 0.950 . S
C464 C463 1.372 . S
C464 C465 1.379 . S
C465 H443 0.948 . S
C465 C460 1.364 . S
C465 C464 1.379 . S
C466 C435 1.383 . S
C466 C453 1.479 . S
C466 C467 1.398 . S
C467 C432 1.382 . S
C467 H444 0.951 . S
C467 C466 1.398 . S
C468 C469 1.384 . S
C468 H481 0.947 . S
C468 C503 1.382 . S
C469 C468 1.384 . S
C469 C470 1.378 . S
C470 C469 1.378 . S
C470 C471 1.378 . S
C470 H482 0.952 . S
C471 C470 1.378 . S
C471 H483 0.950 . S
C471 C502 1.383 . S
H472 C491 0.947 . S
H473 C492 0.946 . S
H474 C494 0.953 . S
H475 C495 0.945 . S
H476 C497 0.952 . S
H477 C498 0.949 . S
H478 C500 0.950 . S
H479 C501 0.948 . S
H480 C503 0.951 . S
H481 C468 0.947 . S
H482 C470 0.952 . S
H483 C471 0.950 . S
N484 C487 1.382 . S
N484 C489 1.363 . S
N485 C487 1.371 . S
N485 C488 1.372 . S
N486 C488 1.361 . S
N486 C489 1.377 . S
C487 N484 1.382 . S
C487 N485 1.371 . S
C487 C490 1.480 . S
C488 N485 1.372 . S
C488 N486 1.361 . S
C488 C496 1.457 . S
C489 N484 1.363 . S
C489 N486 1.377 . S
C489 C502 1.479 . S
C490 C487 1.480 . S
C490 C491 1.383 . S
C490 C495 1.385 . S
C491 H472 0.947 . S
C491 C490 1.383 . S
C491 C492 1.388 . S
C492 H473 0.946 . S
C492 C491 1.388 . S
C492 C493 1.384 . S
C493 C492 1.384 . S
C493 C494 1.377 . S
C494 H474 0.953 . S
C494 C493 1.377 . S
C494 C495 1.369 . S
C495 H475 0.945 . S
C495 C490 1.385 . S
C495 C494 1.369 . S
C496 C488 1.457 . S
C496 C497 1.372 . S
C496 C501 1.364 . S
C497 H476 0.952 . S
C497 C496 1.372 . S
C497 C498 1.389 . S
C498 H477 0.949 . S
C498 C497 1.389 . S
C498 C499 1.387 . S
C499 C498 1.387 . S
C499 C500 1.372 . S
C500 H478 0.950 . S
C500 C499 1.372 . S
C500 C501 1.379 . S
C501 H479 0.948 . S
C501 C496 1.364 . S
C501 C500 1.379 . S
C502 C471 1.383 . S
C502 C489 1.479 . S
C502 C503 1.398 . S
C503 C468 1.382 . S
C503 H480 0.951 . S
C503 C502 1.398 . S
C504 C505 1.384 . S
C504 H517 0.947 . S
C504 C539 1.382 . S
C505 C504 1.384 . S
C505 C506 1.378 . S
C506 C505 1.378 . S
C506 C507 1.378 . S
C506 H518 0.952 . S
C507 C506 1.378 . S
C507 H519 0.950 . S
C507 C538 1.383 . S
H508 C527 0.947 . S
H509 C528 0.946 . S
H510 C530 0.953 . S
H511 C531 0.945 . S
H512 C533 0.952 . S
H513 C534 0.949 . S
H514 C536 0.950 . S
H515 C537 0.948 . S
H516 C539 0.951 . S
H517 C504 0.947 . S
H518 C506 0.952 . S
H519 C507 0.950 . S
N520 C523 1.382 . S
N520 C525 1.363 . S
N521 C523 1.371 . S
N521 C524 1.372 . S
N522 C524 1.361 . S
N522 C525 1.377 . S
C523 N520 1.382 . S
C523 N521 1.371 . S
C523 C526 1.480 . S
C524 N521 1.372 . S
C524 N522 1.361 . S
C524 C532 1.457 . S
C525 N520 1.363 . S
C525 N522 1.377 . S
C525 C538 1.479 . S
C526 C523 1.480 . S
C526 C527 1.383 . S
C526 C531 1.385 . S
C527 H508 0.947 . S
C527 C526 1.383 . S
C527 C528 1.388 . S
C528 H509 0.946 . S
C528 C527 1.388 . S
C528 C529 1.384 . S
C529 C528 1.384 . S
C529 C530 1.377 . S
C530 H510 0.953 . S
C530 C529 1.377 . S
C530 C531 1.369 . S
C531 H511 0.945 . S
C531 C526 1.385 . S
C531 C530 1.369 . S
C532 C524 1.457 . S
C532 C533 1.372 . S
C532 C537 1.364 . S
C533 H512 0.952 . S
C533 C532 1.372 . S
C533 C534 1.389 . S
C534 H513 0.949 . S
C534 C533 1.389 . S
C534 C535 1.387 . S
C535 C534 1.387 . S
C535 C536 1.372 . S
C536 H514 0.950 . S
C536 C535 1.372 . S
C536 C537 1.379 . S
C537 H515 0.948 . S
C537 C532 1.364 . S
C537 C536 1.379 . S
C538 C507 1.383 . S
C538 C525 1.479 . S
C538 C539 1.398 . S
C539 C504 1.382 . S
C539 H516 0.951 . S
C539 C538 1.398 . S
C540 C541 1.384 . S
C540 H553 0.947 . S
C540 C575 1.382 . S
C541 C540 1.384 . S
C541 C542 1.378 . S
C542 C541 1.378 . S
C542 C543 1.378 . S
C542 H554 0.952 . S
C543 C542 1.378 . S
C543 H555 0.950 . S
C543 C574 1.383 . S
H544 C563 0.947 . S
H545 C564 0.946 . S
H546 C566 0.953 . S
H547 C567 0.945 . S
H548 C569 0.952 . S
H549 C570 0.949 . S
H550 C572 0.950 . S
H551 C573 0.948 . S
H552 C575 0.951 . S
H553 C540 0.947 . S
H554 C542 0.952 . S
H555 C543 0.950 . S
N556 C559 1.382 . S
N556 C561 1.363 . S
N557 C559 1.371 . S
N557 C560 1.372 . S
N558 C560 1.361 . S
N558 C561 1.377 . S
C559 N556 1.382 . S
C559 N557 1.371 . S
C559 C562 1.480 . S
C560 N557 1.372 . S
C560 N558 1.361 . S
C560 C568 1.457 . S
C561 N556 1.363 . S
C561 N558 1.377 . S
C561 C574 1.479 . S
C562 C559 1.480 . S
C562 C563 1.383 . S
C562 C567 1.385 . S
C563 H544 0.947 . S
C563 C562 1.383 . S
C563 C564 1.388 . S
C564 H545 0.946 . S
C564 C563 1.388 . S
C564 C565 1.384 . S
C565 C564 1.384 . S
C565 C566 1.377 . S
C566 H546 0.953 . S
C566 C565 1.377 . S
C566 C567 1.369 . S
C567 H547 0.945 . S
C567 C562 1.385 . S
C567 C566 1.369 . S
C568 C560 1.457 . S
C568 C569 1.372 . S
C568 C573 1.364 . S
C569 H548 0.952 . S
C569 C568 1.372 . S
C569 C570 1.389 . S
C570 H549 0.949 . S
C570 C569 1.389 . S
C570 C571 1.387 . S
C571 C570 1.387 . S
C571 C572 1.372 . S
C572 H550 0.950 . S
C572 C571 1.372 . S
C572 C573 1.379 . S
C573 H551 0.948 . S
C573 C568 1.364 . S
C573 C572 1.379 . S
C574 C543 1.383 . S
C574 C561 1.479 . S
C574 C575 1.398 . S
C575 C540 1.382 . S
C575 H552 0.951 . S
C575 C574 1.398 . S
C576 C577 1.384 . S
C576 H589 0.947 . S
C576 C611 1.382 . S
C577 C576 1.384 . S
C577 C578 1.378 . S
C578 C577 1.378 . S
C578 C579 1.378 . S
C578 H590 0.952 . S
C579 C578 1.378 . S
C579 H591 0.950 . S
C579 C610 1.383 . S
H580 C599 0.947 . S
H581 C600 0.946 . S
H582 C602 0.953 . S
H583 C603 0.945 . S
H584 C605 0.952 . S
H585 C606 0.949 . S
H586 C608 0.950 . S
H587 C609 0.948 . S
H588 C611 0.951 . S
H589 C576 0.947 . S
H590 C578 0.952 . S
H591 C579 0.950 . S
N592 C595 1.382 . S
N592 C597 1.363 . S
N593 C595 1.371 . S
N593 C596 1.372 . S
N594 C596 1.361 . S
N594 C597 1.377 . S
C595 N592 1.382 . S
C595 N593 1.371 . S
C595 C598 1.480 . S
C596 N593 1.372 . S
C596 N594 1.361 . S
C596 C604 1.457 . S
C597 N592 1.363 . S
C597 N594 1.377 . S
C597 C610 1.479 . S
C598 C595 1.480 . S
C598 C599 1.383 . S
C598 C603 1.385 . S
C599 H580 0.947 . S
C599 C598 1.383 . S
C599 C600 1.388 . S
C600 H581 0.946 . S
C600 C599 1.388 . S
C600 C601 1.384 . S
C601 C600 1.384 . S
C601 C602 1.377 . S
C602 H582 0.953 . S
C602 C601 1.377 . S
C602 C603 1.369 . S
C603 H583 0.945 . S
C603 C598 1.385 . S
C603 C602 1.369 . S
C604 C596 1.457 . S
C604 C605 1.372 . S
C604 C609 1.364 . S
C605 H584 0.952 . S
C605 C604 1.372 . S
C605 C606 1.389 . S
C606 H585 0.949 . S
C606 C605 1.389 . S
C606 C607 1.387 . S
C607 C606 1.387 . S
C607 C608 1.372 . S
C608 H586 0.950 . S
C608 C607 1.372 . S
C608 C609 1.379 . S
C609 H587 0.948 . S
C609 C604 1.364 . S
C609 C608 1.379 . S
C610 C579 1.383 . S
C610 C597 1.479 . S
C610 C611 1.398 . S
C611 C576 1.382 . S
C611 H588 0.951 . S
C611 C610 1.398 . S
C612 C613 1.384 . S
C612 H625 0.947 . S
C612 C647 1.382 . S
C613 C612 1.384 . S
C613 C614 1.378 . S
C614 C613 1.378 . S
C614 C615 1.378 . S
C614 H626 0.952 . S
C615 C614 1.378 . S
C615 H627 0.950 . S
C615 C646 1.383 . S
H616 C635 0.947 . S
H617 C636 0.946 . S
H618 C638 0.953 . S
H619 C639 0.945 . S
H620 C641 0.952 . S
H621 C642 0.949 . S
H622 C644 0.950 . S
H623 C645 0.948 . S
H624 C647 0.951 . S
H625 C612 0.947 . S
H626 C614 0.952 . S
H627 C615 0.950 . S
N628 C631 1.382 . S
N628 C633 1.363 . S
N629 C631 1.371 . S
N629 C632 1.372 . S
N630 C632 1.361 . S
N630 C633 1.377 . S
C631 N628 1.382 . S
C631 N629 1.371 . S
C631 C634 1.480 . S
C632 N629 1.372 . S
C632 N630 1.361 . S
C632 C640 1.457 . S
C633 N628 1.363 . S
C633 N630 1.377 . S
C633 C646 1.479 . S
C634 C631 1.480 . S
C634 C635 1.383 . S
C634 C639 1.385 . S
C635 H616 0.947 . S
C635 C634 1.383 . S
C635 C636 1.388 . S
C636 H617 0.946 . S
C636 C635 1.388 . S
C636 C637 1.384 . S
C637 C636 1.384 . S
C637 C638 1.377 . S
C638 H618 0.953 . S
C638 C637 1.377 . S
C638 C639 1.369 . S
C639 H619 0.945 . S
C639 C634 1.385 . S
C639 C638 1.369 . S
C640 C632 1.457 . S
C640 C641 1.372 . S
C640 C645 1.364 . S
C641 H620 0.952 . S
C641 C640 1.372 . S
C641 C642 1.389 . S
C642 H621 0.949 . S
C642 C641 1.389 . S
C642 C643 1.387 . S
C643 C642 1.387 . S
C643 C644 1.372 . S
C644 H622 0.950 . S
C644 C643 1.372 . S
C644 C645 1.379 . S
C645 H623 0.948 . S
C645 C640 1.364 . S
C645 C644 1.379 . S
C646 C615 1.383 . S
C646 C633 1.479 . S
C646 C647 1.398 . S
C647 C612 1.382 . S
C647 H624 0.951 . S
C647 C646 1.398 . S
Gd648 N679 2.661 . S
Gd648 N685 2.601 . S
Gd648 O692 2.545 . S
Gd648 O693 2.606 1_545 S
Gd648 O695 2.429 . S
Gd648 O696 2.545 1_545 S
Gd648 O697 2.412 . S
Gd648 O699 2.362 1_554 S
Gd648 O700 2.324 1_545 S
Gd648 C707 2.828 . S
Gd649 N658 2.661 . S
Gd649 N662 2.601 . S
Gd649 O693 2.362 1_556 S
Gd649 O694 2.324 1_565 S
Gd649 O698 2.545 . S
Gd649 O699 2.606 1_565 S
Gd649 O701 2.429 . S
Gd649 O702 2.545 1_565 S
Gd649 O703 2.412 . S
Gd649 C716 2.828 . S
C650 C653 1.417 . S
C650 C655 1.431 . S
C650 C656 1.412 . S
C651 C654 1.437 . S
C651 C655 1.317 . S
C651 H670 0.929 . S
C652 C653 1.426 . S
C652 C654 1.413 . S
C652 N662 1.359 . S
C653 C650 1.417 . S
C653 C652 1.426 . S
C653 N658 1.350 . S
C654 C651 1.437 . S
C654 C652 1.413 . S
C654 C664 1.391 . S
C655 C650 1.431 . S
C655 C651 1.317 . S
C655 H666 0.930 . S
C656 C650 1.412 . S
C656 C657 1.355 . S
C656 H668 0.930 . S
C657 C656 1.355 . S
C657 C659 1.402 . S
C657 H669 0.930 . S
N658 Gd649 2.661 . S
N658 C653 1.350 . S
N658 C659 1.307 . S
C659 C657 1.402 . S
C659 N658 1.307 . S
C659 H660 0.930 . S
H660 C659 0.930 . S
C661 N662 1.334 . S
C661 C663 1.394 . S
C661 H665 0.930 . S
N662 Gd649 2.601 . S
N662 C652 1.359 . S
N662 C661 1.334 . S
C663 C661 1.394 . S
C663 C664 1.359 . S
C663 H675 0.930 . S
C664 C654 1.391 . S
C664 C663 1.359 . S
C664 H676 0.929 . S
H665 C661 0.930 . S
H666 C655 0.930 . S
H667 C684 0.930 . S
H668 C656 0.930 . S
H669 C657 0.930 . S
H670 C651 0.929 . S
H671 C689 0.930 . S
H672 C680 0.930 . S
H673 C681 0.930 . S
H674 C705 0.929 . S
H675 C663 0.930 . S
H676 C664 0.929 . S
H677 C706 0.930 . S
H678 C687 0.930 . S
N679 Gd648 2.661 . S
N679 C683 1.350 . S
N679 C684 1.307 . S
C680 H672 0.930 . S
C680 C681 1.355 . S
C680 C682 1.412 . S
C681 H673 0.930 . S
C681 C680 1.355 . S
C681 C684 1.402 . S
C682 C680 1.412 . S
C682 C683 1.417 . S
C682 C706 1.431 . S
C683 N679 1.350 . S
C683 C682 1.417 . S
C683 C686 1.426 . S
C684 H667 0.930 . S
C684 N679 1.307 . S
C684 C681 1.402 . S
N685 Gd648 2.601 . S
N685 C686 1.359 . S
N685 C689 1.334 . S
C686 C683 1.426 . S
C686 N685 1.359 . S
C686 C690 1.413 . S
C687 H678 0.930 . S
C687 C688 1.359 . S
C687 C689 1.394 . S
C688 C687 1.359 . S
C688 C690 1.391 . S
C688 H691 0.929 . S
C689 H671 0.930 . S
C689 N685 1.334 . S
C689 C687 1.394 . S
C690 C686 1.413 . S
C690 C688 1.391 . S
C690 C705 1.437 . S
H691 C688 0.929 . S
O692 Gd648 2.545 . S
O692 C707 1.258 . S
O693 Gd648 2.606 1_565 S
O693 Gd649 2.362 1_554 S
O693 C704 1.284 . S
O694 Gd649 2.324 1_545 S
O694 C714 1.254 . S
O695 Gd648 2.429 . S
O695 C714 1.268 1_554 S
O696 Gd648 2.545 1_565 S
O696 C704 1.250 . S
O697 Gd648 2.412 . S
O697 C707 1.252 . S
O698 Gd649 2.545 . S
O698 C716 1.258 . S
O699 Gd648 2.362 1_556 S
O699 Gd649 2.606 1_545 S
O699 C715 1.284 . S
O700 Gd648 2.324 1_565 S
O700 C723 1.254 . S
O701 Gd649 2.429 . S
O701 C723 1.268 1_556 S
O702 Gd649 2.545 1_545 S
O702 C715 1.250 . S
O703 Gd649 2.412 . S
O703 C716 1.252 . S
C704 O693 1.284 . S
C704 O696 1.250 . S
C705 H674 0.929 . S
C705 C690 1.437 . S
C705 C706 1.317 . S
C706 H677 0.930 . S
C706 C682 1.431 . S
C706 C705 1.317 . S
C707 Gd648 2.828 . S
C707 O692 1.258 . S
C707 O697 1.252 . S
C707 C708 1.497 . S
C708 C707 1.497 . S
C708 C709 1.395 . S
C708 C710 1.380 1_545 S
C709 C708 1.395 . S
C709 C712 1.398 . S
C709 H724 0.930 . S
C710 C708 1.380 1_565 S
C710 C711 1.391 . S
C710 H725 0.930 . S
C711 C710 1.391 . S
C711 C713 1.387 1_565 S
C712 C709 1.398 . S
C712 C713 1.380 . S
C712 H726 0.930 . S
C713 C711 1.387 1_545 S
C713 C712 1.380 . S
C713 H727 0.930 . S
C714 O694 1.254 . S
C714 O695 1.268 1_556 S
C715 O699 1.284 . S
C715 O702 1.250 . S
C716 Gd649 2.828 . S
C716 O698 1.258 . S
C716 O703 1.252 . S
C716 C717 1.497 . S
C717 C716 1.497 . S
C717 C718 1.395 . S
C717 C719 1.380 1_565 S
C718 C717 1.395 . S
C718 C721 1.398 . S
C718 H728 0.930 . S
C719 C717 1.380 1_545 S
C719 C720 1.391 . S
C719 H729 0.930 . S
C720 C719 1.391 . S
C720 C722 1.387 1_545 S
C721 C718 1.398 . S
C721 C722 1.380 . S
C721 H730 0.930 . S
C722 C720 1.387 1_565 S
C722 C721 1.380 . S
C722 H731 0.930 . S
C723 O700 1.254 . S
C723 O701 1.268 1_554 S
H724 C709 0.930 . S
H725 C710 0.930 . S
H726 C712 0.930 . S
H727 C713 0.930 . S
H728 C718 0.930 . S
H729 C719 0.930 . S
H730 C721 0.930 . S
H731 C722 0.930 . S
Gd732 N763 2.661 . S
Gd732 N769 2.601 . S
Gd732 O776 2.545 . S
Gd732 O777 2.606 1_655 S
Gd732 O779 2.429 . S
Gd732 O780 2.545 1_655 S
Gd732 O781 2.412 . S
Gd732 O783 2.362 1_554 S
Gd732 O784 2.324 1_655 S
Gd732 C791 2.828 . S
Gd733 N742 2.661 . S
Gd733 N746 2.601 . S
Gd733 O777 2.362 1_556 S
Gd733 O778 2.324 1_455 S
Gd733 O782 2.545 . S
Gd733 O783 2.606 1_455 S
Gd733 O785 2.429 . S
Gd733 O786 2.545 1_455 S
Gd733 O787 2.412 . S
Gd733 C800 2.828 . S
C734 C737 1.417 . S
C734 C739 1.431 . S
C734 C740 1.412 . S
C735 C738 1.437 . S
C735 C739 1.317 . S
C735 H754 0.929 . S
C736 C737 1.426 . S
C736 C738 1.413 . S
C736 N746 1.359 . S
C737 C734 1.417 . S
C737 C736 1.426 . S
C737 N742 1.350 . S
C738 C735 1.437 . S
C738 C736 1.413 . S
C738 C748 1.391 . S
C739 C734 1.431 . S
C739 C735 1.317 . S
C739 H750 0.930 . S
C740 C734 1.412 . S
C740 C741 1.355 . S
C740 H752 0.930 . S
C741 C740 1.355 . S
C741 C743 1.402 . S
C741 H753 0.930 . S
N742 Gd733 2.661 . S
N742 C737 1.350 . S
N742 C743 1.307 . S
C743 C741 1.402 . S
C743 N742 1.307 . S
C743 H744 0.930 . S
H744 C743 0.930 . S
C745 N746 1.334 . S
C745 C747 1.394 . S
C745 H749 0.930 . S
N746 Gd733 2.601 . S
N746 C736 1.359 . S
N746 C745 1.334 . S
C747 C745 1.394 . S
C747 C748 1.359 . S
C747 H759 0.930 . S
C748 C738 1.391 . S
C748 C747 1.359 . S
C748 H760 0.929 . S
H749 C745 0.930 . S
H750 C739 0.930 . S
H751 C768 0.930 . S
H752 C740 0.930 . S
H753 C741 0.930 . S
H754 C735 0.929 . S
H755 C773 0.930 . S
H756 C764 0.930 . S
H757 C765 0.930 . S
H758 C789 0.929 . S
H759 C747 0.930 . S
H760 C748 0.929 . S
H761 C790 0.930 . S
H762 C771 0.930 . S
N763 Gd732 2.661 . S
N763 C767 1.350 . S
N763 C768 1.307 . S
C764 H756 0.930 . S
C764 C765 1.355 . S
C764 C766 1.412 . S
C765 H757 0.930 . S
C765 C764 1.355 . S
C765 C768 1.402 . S
C766 C764 1.412 . S
C766 C767 1.417 . S
C766 C790 1.431 . S
C767 N763 1.350 . S
C767 C766 1.417 . S
C767 C770 1.426 . S
C768 H751 0.930 . S
C768 N763 1.307 . S
C768 C765 1.402 . S
N769 Gd732 2.601 . S
N769 C770 1.359 . S
N769 C773 1.334 . S
C770 C767 1.426 . S
C770 N769 1.359 . S
C770 C774 1.413 . S
C771 H762 0.930 . S
C771 C772 1.359 . S
C771 C773 1.394 . S
C772 C771 1.359 . S
C772 C774 1.391 . S
C772 H775 0.929 . S
C773 H755 0.930 . S
C773 N769 1.334 . S
C773 C771 1.394 . S
C774 C770 1.413 . S
C774 C772 1.391 . S
C774 C789 1.437 . S
H775 C772 0.929 . S
O776 Gd732 2.545 . S
O776 C791 1.258 . S
O777 Gd732 2.606 1_455 S
O777 Gd733 2.362 1_554 S
O777 C788 1.284 . S
O778 Gd733 2.324 1_655 S
O778 C798 1.254 . S
O779 Gd732 2.429 . S
O779 C798 1.268 1_554 S
O780 Gd732 2.545 1_455 S
O780 C788 1.250 . S
O781 Gd732 2.412 . S
O781 C791 1.252 . S
O782 Gd733 2.545 . S
O782 C800 1.258 . S
O783 Gd732 2.362 1_556 S
O783 Gd733 2.606 1_655 S
O783 C799 1.284 . S
O784 Gd732 2.324 1_455 S
O784 C807 1.254 . S
O785 Gd733 2.429 . S
O785 C807 1.268 1_556 S
O786 Gd733 2.545 1_655 S
O786 C799 1.250 . S
O787 Gd733 2.412 . S
O787 C800 1.252 . S
C788 O777 1.284 . S
C788 O780 1.250 . S
C789 H758 0.929 . S
C789 C774 1.437 . S
C789 C790 1.317 . S
C790 H761 0.930 . S
C790 C766 1.431 . S
C790 C789 1.317 . S
C791 Gd732 2.828 . S
C791 O776 1.258 . S
C791 O781 1.252 . S
C791 C792 1.497 . S
C792 C791 1.497 . S
C792 C793 1.395 . S
C792 C794 1.380 1_655 S
C793 C792 1.395 . S
C793 C796 1.398 . S
C793 H808 0.930 . S
C794 C792 1.380 1_455 S
C794 C795 1.391 . S
C794 H809 0.930 . S
C795 C794 1.391 . S
C795 C797 1.387 1_455 S
C796 C793 1.398 . S
C796 C797 1.380 . S
C796 H810 0.930 . S
C797 C795 1.387 1_655 S
C797 C796 1.380 . S
C797 H811 0.930 . S
C798 O778 1.254 . S
C798 O779 1.268 1_556 S
C799 O783 1.284 . S
C799 O786 1.250 . S
C800 Gd733 2.828 . S
C800 O782 1.258 . S
C800 O787 1.252 . S
C800 C801 1.497 . S
C801 C800 1.497 . S
C801 C802 1.395 . S
C801 C803 1.380 1_455 S
C802 C801 1.395 . S
C802 C805 1.398 . S
C802 H812 0.930 . S
C803 C801 1.380 1_655 S
C803 C804 1.391 . S
C803 H813 0.930 . S
C804 C803 1.391 . S
C804 C806 1.387 1_655 S
C805 C802 1.398 . S
C805 C806 1.380 . S
C805 H814 0.930 . S
C806 C804 1.387 1_455 S
C806 C805 1.380 . S
C806 H815 0.930 . S
C807 O784 1.254 . S
C807 O785 1.268 1_554 S
H808 C793 0.930 . S
H809 C794 0.930 . S
H810 C796 0.930 . S
H811 C797 0.930 . S
H812 C802 0.930 . S
H813 C803 0.930 . S
H814 C805 0.930 . S
H815 C806 0.930 . S
Gd816 N847 2.661 . S
Gd816 N853 2.601 . S
Gd816 O860 2.545 . S
Gd816 O861 2.606 . S
Gd816 O863 2.429 . S
Gd816 O864 2.545 . S
Gd816 O865 2.412 . S
Gd816 O867 2.362 1_556 S
Gd816 O868 2.324 . S
Gd816 C875 2.828 . S
Gd817 N826 2.661 . S
Gd817 N830 2.601 . S
Gd817 O861 2.362 1_554 S
Gd817 O862 2.324 . S
Gd817 O866 2.545 . S
Gd817 O867 2.606 . S
Gd817 O869 2.429 . S
Gd817 O870 2.545 . S
Gd817 O871 2.412 . S
Gd817 C884 2.828 . S
C818 C821 1.417 . S
C818 C823 1.431 . S
C818 C824 1.412 . S
C819 C822 1.437 . S
C819 C823 1.317 . S
C819 H838 0.929 . S
C820 C821 1.426 . S
C820 C822 1.413 . S
C820 N830 1.359 . S
C821 C818 1.417 . S
C821 C820 1.426 . S
C821 N826 1.350 . S
C822 C819 1.437 . S
C822 C820 1.413 . S
C822 C832 1.391 . S
C823 C818 1.431 . S
C823 C819 1.317 . S
C823 H834 0.930 . S
C824 C818 1.412 . S
C824 C825 1.355 . S
C824 H836 0.930 . S
C825 C824 1.355 . S
C825 C827 1.402 . S
C825 H837 0.930 . S
N826 Gd817 2.661 . S
N826 C821 1.350 . S
N826 C827 1.307 . S
C827 C825 1.402 . S
C827 N826 1.307 . S
C827 H828 0.930 . S
H828 C827 0.930 . S
C829 N830 1.334 . S
C829 C831 1.394 . S
C829 H833 0.930 . S
N830 Gd817 2.601 . S
N830 C820 1.359 . S
N830 C829 1.334 . S
C831 C829 1.394 . S
C831 C832 1.359 . S
C831 H843 0.930 . S
C832 C822 1.391 . S
C832 C831 1.359 . S
C832 H844 0.929 . S
H833 C829 0.930 . S
H834 C823 0.930 . S
H835 C852 0.930 . S
H836 C824 0.930 . S
H837 C825 0.930 . S
H838 C819 0.929 . S
H839 C857 0.930 . S
H840 C848 0.930 . S
H841 C849 0.930 . S
H842 C873 0.929 . S
H843 C831 0.930 . S
H844 C832 0.929 . S
H845 C874 0.930 . S
H846 C855 0.930 . S
N847 Gd816 2.661 . S
N847 C851 1.350 . S
N847 C852 1.307 . S
C848 H840 0.930 . S
C848 C849 1.355 . S
C848 C850 1.412 . S
C849 H841 0.930 . S
C849 C848 1.355 . S
C849 C852 1.402 . S
C850 C848 1.412 . S
C850 C851 1.417 . S
C850 C874 1.431 . S
C851 N847 1.350 . S
C851 C850 1.417 . S
C851 C854 1.426 . S
C852 H835 0.930 . S
C852 N847 1.307 . S
C852 C849 1.402 . S
N853 Gd816 2.601 . S
N853 C854 1.359 . S
N853 C857 1.334 . S
C854 C851 1.426 . S
C854 N853 1.359 . S
C854 C858 1.413 . S
C855 H846 0.930 . S
C855 C856 1.359 . S
C855 C857 1.394 . S
C856 C855 1.359 . S
C856 C858 1.391 . S
C856 H859 0.929 . S
C857 H839 0.930 . S
C857 N853 1.334 . S
C857 C855 1.394 . S
C858 C854 1.413 . S
C858 C856 1.391 . S
C858 C873 1.437 . S
H859 C856 0.929 . S
O860 Gd816 2.545 . S
O860 C875 1.258 . S
O861 Gd816 2.606 . S
O861 Gd817 2.362 1_556 S
O861 C872 1.284 . S
O862 Gd817 2.324 . S
O862 C882 1.254 . S
O863 Gd816 2.429 . S
O863 C882 1.268 1_556 S
O864 Gd816 2.545 . S
O864 C872 1.250 . S
O865 Gd816 2.412 . S
O865 C875 1.252 . S
O866 Gd817 2.545 . S
O866 C884 1.258 . S
O867 Gd816 2.362 1_554 S
O867 Gd817 2.606 . S
O867 C883 1.284 . S
O868 Gd816 2.324 . S
O868 C891 1.254 . S
O869 Gd817 2.429 . S
O869 C891 1.268 1_554 S
O870 Gd817 2.545 . S
O870 C883 1.250 . S
O871 Gd817 2.412 . S
O871 C884 1.252 . S
C872 O861 1.284 . S
C872 O864 1.250 . S
C873 H842 0.929 . S
C873 C858 1.437 . S
C873 C874 1.317 . S
C874 H845 0.930 . S
C874 C850 1.431 . S
C874 C873 1.317 . S
C875 Gd816 2.828 . S
C875 O860 1.258 . S
C875 O865 1.252 . S
C875 C876 1.497 . S
C876 C875 1.497 . S
C876 C877 1.395 . S
C876 C878 1.380 . S
C877 C876 1.395 . S
C877 C880 1.398 . S
C877 H892 0.930 . S
C878 C876 1.380 . S
C878 C879 1.391 . S
C878 H893 0.930 . S
C879 C878 1.391 . S
C879 C881 1.387 . S
C880 C877 1.398 . S
C880 C881 1.380 . S
C880 H894 0.930 . S
C881 C879 1.387 . S
C881 C880 1.380 . S
C881 H895 0.930 . S
C882 O862 1.254 . S
C882 O863 1.268 1_554 S
C883 O867 1.284 . S
C883 O870 1.250 . S
C884 Gd817 2.828 . S
C884 O866 1.258 . S
C884 O871 1.252 . S
C884 C885 1.497 . S
C885 C884 1.497 . S
C885 C886 1.395 . S
C885 C887 1.380 . S
C886 C885 1.395 . S
C886 C889 1.398 . S
C886 H896 0.930 . S
C887 C885 1.380 . S
C887 C888 1.391 . S
C887 H897 0.930 . S
C888 C887 1.391 . S
C888 C890 1.387 . S
C889 C886 1.398 . S
C889 C890 1.380 . S
C889 H898 0.930 . S
C890 C888 1.387 . S
C890 C889 1.380 . S
C890 H899 0.930 . S
C891 O868 1.254 . S
C891 O869 1.268 1_556 S
H892 C877 0.930 . S
H893 C878 0.930 . S
H894 C880 0.930 . S
H895 C881 0.930 . S
H896 C886 0.930 . S
H897 C887 0.930 . S
H898 C889 0.930 . S
H899 C890 0.930 . S
Gd900 N931 2.661 . S
Gd900 N937 2.601 . S
Gd900 O944 2.545 . S
Gd900 O945 2.606 . S
Gd900 O947 2.429 . S
Gd900 O948 2.545 . S
Gd900 O949 2.412 . S
Gd900 O951 2.362 . S
Gd900 O952 2.324 . S
Gd900 C959 2.828 . S
Gd901 N910 2.661 . S
Gd901 N914 2.601 . S
Gd901 O945 2.362 . S
Gd901 O946 2.324 . S
Gd901 O950 2.545 . S
Gd901 O951 2.606 . S
Gd901 O953 2.429 . S
Gd901 O954 2.545 . S
Gd901 O955 2.412 . S
Gd901 C968 2.828 . S
C902 C905 1.417 . S
C902 C907 1.431 . S
C902 C908 1.412 . S
C903 C906 1.437 . S
C903 C907 1.317 . S
C903 H922 0.929 . S
C904 C905 1.426 . S
C904 C906 1.413 . S
C904 N914 1.359 . S
C905 C902 1.417 . S
C905 C904 1.426 . S
C905 N910 1.350 . S
C906 C903 1.437 . S
C906 C904 1.413 . S
C906 C916 1.391 . S
C907 C902 1.431 . S
C907 C903 1.317 . S
C907 H918 0.930 . S
C908 C902 1.412 . S
C908 C909 1.355 . S
C908 H920 0.930 . S
C909 C908 1.355 . S
C909 C911 1.402 . S
C909 H921 0.930 . S
N910 Gd901 2.661 . S
N910 C905 1.350 . S
N910 C911 1.307 . S
C911 C909 1.402 . S
C911 N910 1.307 . S
C911 H912 0.930 . S
H912 C911 0.930 . S
C913 N914 1.334 . S
C913 C915 1.394 . S
C913 H917 0.930 . S
N914 Gd901 2.601 . S
N914 C904 1.359 . S
N914 C913 1.334 . S
C915 C913 1.394 . S
C915 C916 1.359 . S
C915 H927 0.930 . S
C916 C906 1.391 . S
C916 C915 1.359 . S
C916 H928 0.929 . S
H917 C913 0.930 . S
H918 C907 0.930 . S
H919 C936 0.930 . S
H920 C908 0.930 . S
H921 C909 0.930 . S
H922 C903 0.929 . S
H923 C941 0.930 . S
H924 C932 0.930 . S
H925 C933 0.930 . S
H926 C957 0.929 . S
H927 C915 0.930 . S
H928 C916 0.929 . S
H929 C958 0.930 . S
H930 C939 0.930 . S
N931 Gd900 2.661 . S
N931 C935 1.350 . S
N931 C936 1.307 . S
C932 H924 0.930 . S
C932 C933 1.355 . S
C932 C934 1.412 . S
C933 H925 0.930 . S
C933 C932 1.355 . S
C933 C936 1.402 . S
C934 C932 1.412 . S
C934 C935 1.417 . S
C934 C958 1.431 . S
C935 N931 1.350 . S
C935 C934 1.417 . S
C935 C938 1.426 . S
C936 H919 0.930 . S
C936 N931 1.307 . S
C936 C933 1.402 . S
N937 Gd900 2.601 . S
N937 C938 1.359 . S
N937 C941 1.334 . S
C938 C935 1.426 . S
C938 N937 1.359 . S
C938 C942 1.413 . S
C939 H930 0.930 . S
C939 C940 1.359 . S
C939 C941 1.394 . S
C940 C939 1.359 . S
C940 C942 1.391 . S
C940 H943 0.929 . S
C941 H923 0.930 . S
C941 N937 1.334 . S
C941 C939 1.394 . S
C942 C938 1.413 . S
C942 C940 1.391 . S
C942 C957 1.437 . S
H943 C940 0.929 . S
O944 Gd900 2.545 . S
O944 C959 1.258 . S
O945 Gd900 2.606 . S
O945 Gd901 2.362 . S
O945 C956 1.284 . S
O946 Gd901 2.324 . S
O946 C966 1.254 . S
O947 Gd900 2.429 . S
O947 C966 1.268 . S
O948 Gd900 2.545 . S
O948 C956 1.250 . S
O949 Gd900 2.412 . S
O949 C959 1.252 . S
O950 Gd901 2.545 . S
O950 C968 1.258 . S
O951 Gd900 2.362 . S
O951 Gd901 2.606 . S
O951 C967 1.284 . S
O952 Gd900 2.324 . S
O952 C975 1.254 . S
O953 Gd901 2.429 . S
O953 C975 1.268 . S
O954 Gd901 2.545 . S
O954 C967 1.250 . S
O955 Gd901 2.412 . S
O955 C968 1.252 . S
C956 O945 1.284 . S
C956 O948 1.250 . S
C957 H926 0.929 . S
C957 C942 1.437 . S
C957 C958 1.317 . S
C958 H929 0.930 . S
C958 C934 1.431 . S
C958 C957 1.317 . S
C959 Gd900 2.828 . S
C959 O944 1.258 . S
C959 O949 1.252 . S
C959 C960 1.497 . S
C960 C959 1.497 . S
C960 C961 1.395 . S
C960 C962 1.380 . S
C961 C960 1.395 . S
C961 C964 1.398 . S
C961 H976 0.930 . S
C962 C960 1.380 . S
C962 C963 1.391 . S
C962 H977 0.930 . S
C963 C962 1.391 . S
C963 C965 1.387 . S
C964 C961 1.398 . S
C964 C965 1.380 . S
C964 H978 0.930 . S
C965 C963 1.387 . S
C965 C964 1.380 . S
C965 H979 0.930 . S
C966 O946 1.254 . S
C966 O947 1.268 . S
C967 O951 1.284 . S
C967 O954 1.250 . S
C968 Gd901 2.828 . S
C968 O950 1.258 . S
C968 O955 1.252 . S
C968 C969 1.497 . S
C969 C968 1.497 . S
C969 C970 1.395 . S
C969 C971 1.380 . S
C970 C969 1.395 . S
C970 C973 1.398 . S
C970 H980 0.930 . S
C971 C969 1.380 . S
C971 C972 1.391 . S
C971 H981 0.930 . S
C972 C971 1.391 . S
C972 C974 1.387 . S
C973 C970 1.398 . S
C973 C974 1.380 . S
C973 H982 0.930 . S
C974 C972 1.387 . S
C974 C973 1.380 . S
C974 H983 0.930 . S
C975 O952 1.254 . S
C975 O953 1.268 . S
H976 C961 0.930 . S
H977 C962 0.930 . S
H978 C964 0.930 . S
H979 C965 0.930 . S
H980 C970 0.930 . S
H981 C971 0.930 . S
H982 C973 0.930 . S
H983 C974 0.930 . S
Gd984 N1015 2.661 . S
Gd984 N1021 2.601 . S
Gd984 O1028 2.545 . S
Gd984 O1029 2.606 . S
Gd984 O1031 2.429 . S
Gd984 O1032 2.545 . S
Gd984 O1033 2.412 . S
Gd984 O1035 2.362 . S
Gd984 O1036 2.324 . S
Gd984 C1043 2.828 . S
Gd985 N994 2.661 . S
Gd985 N998 2.601 . S
Gd985 O1029 2.362 . S
Gd985 O1030 2.324 . S
Gd985 O1034 2.545 . S
Gd985 O1035 2.606 . S
Gd985 O1037 2.429 . S
Gd985 O1038 2.545 . S
Gd985 O1039 2.412 . S
Gd985 C1052 2.828 . S
C986 C989 1.417 . S
C986 C991 1.431 . S
C986 C992 1.412 . S
C987 C990 1.437 . S
C987 C991 1.317 . S
C987 H1006 0.929 . S
C988 C989 1.426 . S
C988 C990 1.413 . S
C988 N998 1.359 . S
C989 C986 1.417 . S
C989 C988 1.426 . S
C989 N994 1.350 . S
C990 C987 1.437 . S
C990 C988 1.413 . S
C990 C1000 1.391 . S
C991 C986 1.431 . S
C991 C987 1.317 . S
C991 H1002 0.930 . S
C992 C986 1.412 . S
C992 C993 1.355 . S
C992 H1004 0.930 . S
C993 C992 1.355 . S
C993 C995 1.402 . S
C993 H1005 0.930 . S
N994 Gd985 2.661 . S
N994 C989 1.350 . S
N994 C995 1.307 . S
C995 C993 1.402 . S
C995 N994 1.307 . S
C995 H996 0.930 . S
H996 C995 0.930 . S
C997 N998 1.334 . S
C997 C999 1.394 . S
C997 H1001 0.930 . S
N998 Gd985 2.601 . S
N998 C988 1.359 . S
N998 C997 1.334 . S
C999 C997 1.394 . S
C999 C1000 1.359 . S
C999 H1011 0.930 . S
C1000 C990 1.391 . S
C1000 C999 1.359 . S
C1000 H1012 0.929 . S
H1001 C997 0.930 . S
H1002 C991 0.930 . S
H1003 C1020 0.930 . S
H1004 C992 0.930 . S
H1005 C993 0.930 . S
H1006 C987 0.929 . S
H1007 C1025 0.930 . S
H1008 C1016 0.930 . S
H1009 C1017 0.930 . S
H1010 C1041 0.929 . S
H1011 C999 0.930 . S
H1012 C1000 0.929 . S
H1013 C1042 0.930 . S
H1014 C1023 0.930 . S
N1015 Gd984 2.661 . S
N1015 C1019 1.350 . S
N1015 C1020 1.307 . S
C1016 H1008 0.930 . S
C1016 C1017 1.355 . S
C1016 C1018 1.412 . S
C1017 H1009 0.930 . S
C1017 C1016 1.355 . S
C1017 C1020 1.402 . S
C1018 C1016 1.412 . S
C1018 C1019 1.417 . S
C1018 C1042 1.431 . S
C1019 N1015 1.350 . S
C1019 C1018 1.417 . S
C1019 C1022 1.426 . S
C1020 H1003 0.930 . S
C1020 N1015 1.307 . S
C1020 C1017 1.402 . S
N1021 Gd984 2.601 . S
N1021 C1022 1.359 . S
N1021 C1025 1.334 . S
C1022 C1019 1.426 . S
C1022 N1021 1.359 . S
C1022 C1026 1.413 . S
C1023 H1014 0.930 . S
C1023 C1024 1.359 . S
C1023 C1025 1.394 . S
C1024 C1023 1.359 . S
C1024 C1026 1.391 . S
C1024 H1027 0.929 . S
C1025 H1007 0.930 . S
C1025 N1021 1.334 . S
C1025 C1023 1.394 . S
C1026 C1022 1.413 . S
C1026 C1024 1.391 . S
C1026 C1041 1.437 . S
H1027 C1024 0.929 . S
O1028 Gd984 2.545 . S
O1028 C1043 1.258 . S
O1029 Gd984 2.606 . S
O1029 Gd985 2.362 . S
O1029 C1040 1.284 . S
O1030 Gd985 2.324 . S
O1030 C1050 1.254 . S
O1031 Gd984 2.429 . S
O1031 C1050 1.268 . S
O1032 Gd984 2.545 . S
O1032 C1040 1.250 . S
O1033 Gd984 2.412 . S
O1033 C1043 1.252 . S
O1034 Gd985 2.545 . S
O1034 C1052 1.258 . S
O1035 Gd984 2.362 . S
O1035 Gd985 2.606 . S
O1035 C1051 1.284 . S
O1036 Gd984 2.324 . S
O1036 C1059 1.254 . S
O1037 Gd985 2.429 . S
O1037 C1059 1.268 . S
O1038 Gd985 2.545 . S
O1038 C1051 1.250 . S
O1039 Gd985 2.412 . S
O1039 C1052 1.252 . S
C1040 O1029 1.284 . S
C1040 O1032 1.250 . S
C1041 H1010 0.929 . S
C1041 C1026 1.437 . S
C1041 C1042 1.317 . S
C1042 H1013 0.930 . S
C1042 C1018 1.431 . S
C1042 C1041 1.317 . S
C1043 Gd984 2.828 . S
C1043 O1028 1.258 . S
C1043 O1033 1.252 . S
C1043 C1044 1.497 . S
C1044 C1043 1.497 . S
C1044 C1045 1.395 . S
C1044 C1046 1.380 . S
C1045 C1044 1.395 . S
C1045 C1048 1.398 . S
C1045 H1060 0.930 . S
C1046 C1044 1.380 . S
C1046 C1047 1.391 . S
C1046 H1061 0.930 . S
C1047 C1046 1.391 . S
C1047 C1049 1.387 . S
C1048 C1045 1.398 . S
C1048 C1049 1.380 . S
C1048 H1062 0.930 . S
C1049 C1047 1.387 . S
C1049 C1048 1.380 . S
C1049 H1063 0.930 . S
C1050 O1030 1.254 . S
C1050 O1031 1.268 . S
C1051 O1035 1.284 . S
C1051 O1038 1.250 . S
C1052 Gd985 2.828 . S
C1052 O1034 1.258 . S
C1052 O1039 1.252 . S
C1052 C1053 1.497 . S
C1053 C1052 1.497 . S
C1053 C1054 1.395 . S
C1053 C1055 1.380 . S
C1054 C1053 1.395 . S
C1054 C1057 1.398 . S
C1054 H1064 0.930 . S
C1055 C1053 1.380 . S
C1055 C1056 1.391 . S
C1055 H1065 0.930 . S
C1056 C1055 1.391 . S
C1056 C1058 1.387 . S
C1057 C1054 1.398 . S
C1057 C1058 1.380 . S
C1057 H1066 0.930 . S
C1058 C1056 1.387 . S
C1058 C1057 1.380 . S
C1058 H1067 0.930 . S
C1059 O1036 1.254 . S
C1059 O1037 1.268 . S
H1060 C1045 0.930 . S
H1061 C1046 0.930 . S
H1062 C1048 0.930 . S
H1063 C1049 0.930 . S
H1064 C1054 0.930 . S
H1065 C1055 0.930 . S
H1066 C1057 0.930 . S
H1067 C1058 0.930 . S
Gd1068 N1099 2.661 . S
Gd1068 N1105 2.601 . S
Gd1068 O1112 2.545 . S
Gd1068 O1113 2.606 . S
Gd1068 O1115 2.429 . S
Gd1068 O1116 2.545 . S
Gd1068 O1117 2.412 . S
Gd1068 O1119 2.362 . S
Gd1068 O1120 2.324 . S
Gd1068 C1127 2.828 . S
Gd1069 N1078 2.661 . S
Gd1069 N1082 2.601 . S
Gd1069 O1113 2.362 . S
Gd1069 O1114 2.324 . S
Gd1069 O1118 2.545 . S
Gd1069 O1119 2.606 . S
Gd1069 O1121 2.429 . S
Gd1069 O1122 2.545 . S
Gd1069 O1123 2.412 . S
Gd1069 C1136 2.828 . S
C1070 C1073 1.417 . S
C1070 C1075 1.431 . S
C1070 C1076 1.412 . S
C1071 C1074 1.437 . S
C1071 C1075 1.317 . S
C1071 H1090 0.929 . S
C1072 C1073 1.426 . S
C1072 C1074 1.413 . S
C1072 N1082 1.359 . S
C1073 C1070 1.417 . S
C1073 C1072 1.426 . S
C1073 N1078 1.350 . S
C1074 C1071 1.437 . S
C1074 C1072 1.413 . S
C1074 C1084 1.391 . S
C1075 C1070 1.431 . S
C1075 C1071 1.317 . S
C1075 H1086 0.930 . S
C1076 C1070 1.412 . S
C1076 C1077 1.355 . S
C1076 H1088 0.930 . S
C1077 C1076 1.355 . S
C1077 C1079 1.402 . S
C1077 H1089 0.930 . S
N1078 Gd1069 2.661 . S
N1078 C1073 1.350 . S
N1078 C1079 1.307 . S
C1079 C1077 1.402 . S
C1079 N1078 1.307 . S
C1079 H1080 0.930 . S
H1080 C1079 0.930 . S
C1081 N1082 1.334 . S
C1081 C1083 1.394 . S
C1081 H1085 0.930 . S
N1082 Gd1069 2.601 . S
N1082 C1072 1.359 . S
N1082 C1081 1.334 . S
C1083 C1081 1.394 . S
C1083 C1084 1.359 . S
C1083 H1095 0.930 . S
C1084 C1074 1.391 . S
C1084 C1083 1.359 . S
C1084 H1096 0.929 . S
H1085 C1081 0.930 . S
H1086 C1075 0.930 . S
H1087 C1104 0.930 . S
H1088 C1076 0.930 . S
H1089 C1077 0.930 . S
H1090 C1071 0.929 . S
H1091 C1109 0.930 . S
H1092 C1100 0.930 . S
H1093 C1101 0.930 . S
H1094 C1125 0.929 . S
H1095 C1083 0.930 . S
H1096 C1084 0.929 . S
H1097 C1126 0.930 . S
H1098 C1107 0.930 . S
N1099 Gd1068 2.661 . S
N1099 C1103 1.350 . S
N1099 C1104 1.307 . S
C1100 H1092 0.930 . S
C1100 C1101 1.355 . S
C1100 C1102 1.412 . S
C1101 H1093 0.930 . S
C1101 C1100 1.355 . S
C1101 C1104 1.402 . S
C1102 C1100 1.412 . S
C1102 C1103 1.417 . S
C1102 C1126 1.431 . S
C1103 N1099 1.350 . S
C1103 C1102 1.417 . S
C1103 C1106 1.426 . S
C1104 H1087 0.930 . S
C1104 N1099 1.307 . S
C1104 C1101 1.402 . S
N1105 Gd1068 2.601 . S
N1105 C1106 1.359 . S
N1105 C1109 1.334 . S
C1106 C1103 1.426 . S
C1106 N1105 1.359 . S
C1106 C1110 1.413 . S
C1107 H1098 0.930 . S
C1107 C1108 1.359 . S
C1107 C1109 1.394 . S
C1108 C1107 1.359 . S
C1108 C1110 1.391 . S
C1108 H1111 0.929 . S
C1109 H1091 0.930 . S
C1109 N1105 1.334 . S
C1109 C1107 1.394 . S
C1110 C1106 1.413 . S
C1110 C1108 1.391 . S
C1110 C1125 1.437 . S
H1111 C1108 0.929 . S
O1112 Gd1068 2.545 . S
O1112 C1127 1.258 . S
O1113 Gd1068 2.606 . S
O1113 Gd1069 2.362 . S
O1113 C1124 1.284 . S
O1114 Gd1069 2.324 . S
O1114 C1134 1.254 . S
O1115 Gd1068 2.429 . S
O1115 C1134 1.268 . S
O1116 Gd1068 2.545 . S
O1116 C1124 1.250 . S
O1117 Gd1068 2.412 . S
O1117 C1127 1.252 . S
O1118 Gd1069 2.545 . S
O1118 C1136 1.258 . S
O1119 Gd1068 2.362 . S
O1119 Gd1069 2.606 . S
O1119 C1135 1.284 . S
O1120 Gd1068 2.324 . S
O1120 C1143 1.254 . S
O1121 Gd1069 2.429 . S
O1121 C1143 1.268 . S
O1122 Gd1069 2.545 . S
O1122 C1135 1.250 . S
O1123 Gd1069 2.412 . S
O1123 C1136 1.252 . S
C1124 O1113 1.284 . S
C1124 O1116 1.250 . S
C1125 H1094 0.929 . S
C1125 C1110 1.437 . S
C1125 C1126 1.317 . S
C1126 H1097 0.930 . S
C1126 C1102 1.431 . S
C1126 C1125 1.317 . S
C1127 Gd1068 2.828 . S
C1127 O1112 1.258 . S
C1127 O1117 1.252 . S
C1127 C1128 1.497 . S
C1128 C1127 1.497 . S
C1128 C1129 1.395 . S
C1128 C1130 1.380 . S
C1129 C1128 1.395 . S
C1129 C1132 1.398 . S
C1129 H1144 0.930 . S
C1130 C1128 1.380 . S
C1130 C1131 1.391 . S
C1130 H1145 0.930 . S
C1131 C1130 1.391 . S
C1131 C1133 1.387 . S
C1132 C1129 1.398 . S
C1132 C1133 1.380 . S
C1132 H1146 0.930 . S
C1133 C1131 1.387 . S
C1133 C1132 1.380 . S
C1133 H1147 0.930 . S
C1134 O1114 1.254 . S
C1134 O1115 1.268 . S
C1135 O1119 1.284 . S
C1135 O1122 1.250 . S
C1136 Gd1069 2.828 . S
C1136 O1118 1.258 . S
C1136 O1123 1.252 . S
C1136 C1137 1.497 . S
C1137 C1136 1.497 . S
C1137 C1138 1.395 . S
C1137 C1139 1.380 . S
C1138 C1137 1.395 . S
C1138 C1141 1.398 . S
C1138 H1148 0.930 . S
C1139 C1137 1.380 . S
C1139 C1140 1.391 . S
C1139 H1149 0.930 . S
C1140 C1139 1.391 . S
C1140 C1142 1.387 . S
C1141 C1138 1.398 . S
C1141 C1142 1.380 . S
C1141 H1150 0.930 . S
C1142 C1140 1.387 . S
C1142 C1141 1.380 . S
C1142 H1151 0.930 . S
C1143 O1120 1.254 . S
C1143 O1121 1.268 . S
H1144 C1129 0.930 . S
H1145 C1130 0.930 . S
H1146 C1132 0.930 . S
H1147 C1133 0.930 . S
H1148 C1138 0.930 . S
H1149 C1139 0.930 . S
H1150 C1141 0.930 . S
H1151 C1142 0.930 . S
Gd1152 N1183 2.661 . S
Gd1152 N1189 2.601 . S
Gd1152 O1196 2.545 . S
Gd1152 O1197 2.606 . S
Gd1152 O1199 2.429 . S
Gd1152 O1200 2.545 . S
Gd1152 O1201 2.412 . S
Gd1152 O1203 2.362 . S
Gd1152 O1204 2.324 . S
Gd1152 C1211 2.828 . S
Gd1153 N1162 2.661 . S
Gd1153 N1166 2.601 . S
Gd1153 O1197 2.362 . S
Gd1153 O1198 2.324 . S
Gd1153 O1202 2.545 . S
Gd1153 O1203 2.606 . S
Gd1153 O1205 2.429 . S
Gd1153 O1206 2.545 . S
Gd1153 O1207 2.412 . S
Gd1153 C1220 2.828 . S
C1154 C1157 1.417 . S
C1154 C1159 1.431 . S
C1154 C1160 1.412 . S
C1155 C1158 1.437 . S
C1155 C1159 1.317 . S
C1155 H1174 0.929 . S
C1156 C1157 1.426 . S
C1156 C1158 1.413 . S
C1156 N1166 1.359 . S
C1157 C1154 1.417 . S
C1157 C1156 1.426 . S
C1157 N1162 1.350 . S
C1158 C1155 1.437 . S
C1158 C1156 1.413 . S
C1158 C1168 1.391 . S
C1159 C1154 1.431 . S
C1159 C1155 1.317 . S
C1159 H1170 0.930 . S
C1160 C1154 1.412 . S
C1160 C1161 1.355 . S
C1160 H1172 0.930 . S
C1161 C1160 1.355 . S
C1161 C1163 1.402 . S
C1161 H1173 0.930 . S
N1162 Gd1153 2.661 . S
N1162 C1157 1.350 . S
N1162 C1163 1.307 . S
C1163 C1161 1.402 . S
C1163 N1162 1.307 . S
C1163 H1164 0.930 . S
H1164 C1163 0.930 . S
C1165 N1166 1.334 . S
C1165 C1167 1.394 . S
C1165 H1169 0.930 . S
N1166 Gd1153 2.601 . S
N1166 C1156 1.359 . S
N1166 C1165 1.334 . S
C1167 C1165 1.394 . S
C1167 C1168 1.359 . S
C1167 H1179 0.930 . S
C1168 C1158 1.391 . S
C1168 C1167 1.359 . S
C1168 H1180 0.929 . S
H1169 C1165 0.930 . S
H1170 C1159 0.930 . S
H1171 C1188 0.930 . S
H1172 C1160 0.930 . S
H1173 C1161 0.930 . S
H1174 C1155 0.929 . S
H1175 C1193 0.930 . S
H1176 C1184 0.930 . S
H1177 C1185 0.930 . S
H1178 C1209 0.929 . S
H1179 C1167 0.930 . S
H1180 C1168 0.929 . S
H1181 C1210 0.930 . S
H1182 C1191 0.930 . S
N1183 Gd1152 2.661 . S
N1183 C1187 1.350 . S
N1183 C1188 1.307 . S
C1184 H1176 0.930 . S
C1184 C1185 1.355 . S
C1184 C1186 1.412 . S
C1185 H1177 0.930 . S
C1185 C1184 1.355 . S
C1185 C1188 1.402 . S
C1186 C1184 1.412 . S
C1186 C1187 1.417 . S
C1186 C1210 1.431 . S
C1187 N1183 1.350 . S
C1187 C1186 1.417 . S
C1187 C1190 1.426 . S
C1188 H1171 0.930 . S
C1188 N1183 1.307 . S
C1188 C1185 1.402 . S
N1189 Gd1152 2.601 . S
N1189 C1190 1.359 . S
N1189 C1193 1.334 . S
C1190 C1187 1.426 . S
C1190 N1189 1.359 . S
C1190 C1194 1.413 . S
C1191 H1182 0.930 . S
C1191 C1192 1.359 . S
C1191 C1193 1.394 . S
C1192 C1191 1.359 . S
C1192 C1194 1.391 . S
C1192 H1195 0.929 . S
C1193 H1175 0.930 . S
C1193 N1189 1.334 . S
C1193 C1191 1.394 . S
C1194 C1190 1.413 . S
C1194 C1192 1.391 . S
C1194 C1209 1.437 . S
H1195 C1192 0.929 . S
O1196 Gd1152 2.545 . S
O1196 C1211 1.258 . S
O1197 Gd1152 2.606 . S
O1197 Gd1153 2.362 . S
O1197 C1208 1.284 . S
O1198 Gd1153 2.324 . S
O1198 C1218 1.254 . S
O1199 Gd1152 2.429 . S
O1199 C1218 1.268 . S
O1200 Gd1152 2.545 . S
O1200 C1208 1.250 . S
O1201 Gd1152 2.412 . S
O1201 C1211 1.252 . S
O1202 Gd1153 2.545 . S
O1202 C1220 1.258 . S
O1203 Gd1152 2.362 . S
O1203 Gd1153 2.606 . S
O1203 C1219 1.284 . S
O1204 Gd1152 2.324 . S
O1204 C1227 1.254 . S
O1205 Gd1153 2.429 . S
O1205 C1227 1.268 . S
O1206 Gd1153 2.545 . S
O1206 C1219 1.250 . S
O1207 Gd1153 2.412 . S
O1207 C1220 1.252 . S
C1208 O1197 1.284 . S
C1208 O1200 1.250 . S
C1209 H1178 0.929 . S
C1209 C1194 1.437 . S
C1209 C1210 1.317 . S
C1210 H1181 0.930 . S
C1210 C1186 1.431 . S
C1210 C1209 1.317 . S
C1211 Gd1152 2.828 . S
C1211 O1196 1.258 . S
C1211 O1201 1.252 . S
C1211 C1212 1.497 . S
C1212 C1211 1.497 . S
C1212 C1213 1.395 . S
C1212 C1214 1.380 . S
C1213 C1212 1.395 . S
C1213 C1216 1.398 . S
C1213 H1228 0.930 . S
C1214 C1212 1.380 . S
C1214 C1215 1.391 . S
C1214 H1229 0.930 . S
C1215 C1214 1.391 . S
C1215 C1217 1.387 . S
C1216 C1213 1.398 . S
C1216 C1217 1.380 . S
C1216 H1230 0.930 . S
C1217 C1215 1.387 . S
C1217 C1216 1.380 . S
C1217 H1231 0.930 . S
C1218 O1198 1.254 . S
C1218 O1199 1.268 . S
C1219 O1203 1.284 . S
C1219 O1206 1.250 . S
C1220 Gd1153 2.828 . S
C1220 O1202 1.258 . S
C1220 O1207 1.252 . S
C1220 C1221 1.497 . S
C1221 C1220 1.497 . S
C1221 C1222 1.395 . S
C1221 C1223 1.380 . S
C1222 C1221 1.395 . S
C1222 C1225 1.398 . S
C1222 H1232 0.930 . S
C1223 C1221 1.380 . S
C1223 C1224 1.391 . S
C1223 H1233 0.930 . S
C1224 C1223 1.391 . S
C1224 C1226 1.387 . S
C1225 C1222 1.398 . S
C1225 C1226 1.380 . S
C1225 H1234 0.930 . S
C1226 C1224 1.387 . S
C1226 C1225 1.380 . S
C1226 H1235 0.930 . S
C1227 O1204 1.254 . S
C1227 O1205 1.268 . S
H1228 C1213 0.930 . S
H1229 C1214 0.930 . S
H1230 C1216 0.930 . S
H1231 C1217 0.930 . S
H1232 C1222 0.930 . S
H1233 C1223 0.930 . S
H1234 C1225 0.930 . S
H1235 C1226 0.930 . S
Gd1236 N1267 2.661 . S
Gd1236 N1273 2.601 . S
Gd1236 O1280 2.545 . S
Gd1236 O1281 2.606 . S
Gd1236 O1283 2.429 . S
Gd1236 O1284 2.545 . S
Gd1236 O1285 2.412 . S
Gd1236 O1287 2.362 . S
Gd1236 O1288 2.324 . S
Gd1236 C1295 2.828 . S
Gd1237 N1246 2.661 . S
Gd1237 N1250 2.601 . S
Gd1237 O1281 2.362 . S
Gd1237 O1282 2.324 . S
Gd1237 O1286 2.545 . S
Gd1237 O1287 2.606 . S
Gd1237 O1289 2.429 . S
Gd1237 O1290 2.545 . S
Gd1237 O1291 2.412 . S
Gd1237 C1304 2.828 . S
C1238 C1241 1.417 . S
C1238 C1243 1.431 . S
C1238 C1244 1.412 . S
C1239 C1242 1.437 . S
C1239 C1243 1.317 . S
C1239 H1258 0.929 . S
C1240 C1241 1.426 . S
C1240 C1242 1.413 . S
C1240 N1250 1.359 . S
C1241 C1238 1.417 . S
C1241 C1240 1.426 . S
C1241 N1246 1.350 . S
C1242 C1239 1.437 . S
C1242 C1240 1.413 . S
C1242 C1252 1.391 . S
C1243 C1238 1.431 . S
C1243 C1239 1.317 . S
C1243 H1254 0.930 . S
C1244 C1238 1.412 . S
C1244 C1245 1.355 . S
C1244 H1256 0.930 . S
C1245 C1244 1.355 . S
C1245 C1247 1.402 . S
C1245 H1257 0.930 . S
N1246 Gd1237 2.661 . S
N1246 C1241 1.350 . S
N1246 C1247 1.307 . S
C1247 C1245 1.402 . S
C1247 N1246 1.307 . S
C1247 H1248 0.930 . S
H1248 C1247 0.930 . S
C1249 N1250 1.334 . S
C1249 C1251 1.394 . S
C1249 H1253 0.930 . S
N1250 Gd1237 2.601 . S
N1250 C1240 1.359 . S
N1250 C1249 1.334 . S
C1251 C1249 1.394 . S
C1251 C1252 1.359 . S
C1251 H1263 0.930 . S
C1252 C1242 1.391 . S
C1252 C1251 1.359 . S
C1252 H1264 0.929 . S
H1253 C1249 0.930 . S
H1254 C1243 0.930 . S
H1255 C1272 0.930 . S
H1256 C1244 0.930 . S
H1257 C1245 0.930 . S
H1258 C1239 0.929 . S
H1259 C1277 0.930 . S
H1260 C1268 0.930 . S
H1261 C1269 0.930 . S
H1262 C1293 0.929 . S
H1263 C1251 0.930 . S
H1264 C1252 0.929 . S
H1265 C1294 0.930 . S
H1266 C1275 0.930 . S
N1267 Gd1236 2.661 . S
N1267 C1271 1.350 . S
N1267 C1272 1.307 . S
C1268 H1260 0.930 . S
C1268 C1269 1.355 . S
C1268 C1270 1.412 . S
C1269 H1261 0.930 . S
C1269 C1268 1.355 . S
C1269 C1272 1.402 . S
C1270 C1268 1.412 . S
C1270 C1271 1.417 . S
C1270 C1294 1.431 . S
C1271 N1267 1.350 . S
C1271 C1270 1.417 . S
C1271 C1274 1.426 . S
C1272 H1255 0.930 . S
C1272 N1267 1.307 . S
C1272 C1269 1.402 . S
N1273 Gd1236 2.601 . S
N1273 C1274 1.359 . S
N1273 C1277 1.334 . S
C1274 C1271 1.426 . S
C1274 N1273 1.359 . S
C1274 C1278 1.413 . S
C1275 H1266 0.930 . S
C1275 C1276 1.359 . S
C1275 C1277 1.394 . S
C1276 C1275 1.359 . S
C1276 C1278 1.391 . S
C1276 H1279 0.929 . S
C1277 H1259 0.930 . S
C1277 N1273 1.334 . S
C1277 C1275 1.394 . S
C1278 C1274 1.413 . S
C1278 C1276 1.391 . S
C1278 C1293 1.437 . S
H1279 C1276 0.929 . S
O1280 Gd1236 2.545 . S
O1280 C1295 1.258 . S
O1281 Gd1236 2.606 . S
O1281 Gd1237 2.362 . S
O1281 C1292 1.284 . S
O1282 Gd1237 2.324 . S
O1282 C1302 1.254 . S
O1283 Gd1236 2.429 . S
O1283 C1302 1.268 . S
O1284 Gd1236 2.545 . S
O1284 C1292 1.250 . S
O1285 Gd1236 2.412 . S
O1285 C1295 1.252 . S
O1286 Gd1237 2.545 . S
O1286 C1304 1.258 . S
O1287 Gd1236 2.362 . S
O1287 Gd1237 2.606 . S
O1287 C1303 1.284 . S
O1288 Gd1236 2.324 . S
O1288 C1311 1.254 . S
O1289 Gd1237 2.429 . S
O1289 C1311 1.268 . S
O1290 Gd1237 2.545 . S
O1290 C1303 1.250 . S
O1291 Gd1237 2.412 . S
O1291 C1304 1.252 . S
C1292 O1281 1.284 . S
C1292 O1284 1.250 . S
C1293 H1262 0.929 . S
C1293 C1278 1.437 . S
C1293 C1294 1.317 . S
C1294 H1265 0.930 . S
C1294 C1270 1.431 . S
C1294 C1293 1.317 . S
C1295 Gd1236 2.828 . S
C1295 O1280 1.258 . S
C1295 O1285 1.252 . S
C1295 C1296 1.497 . S
C1296 C1295 1.497 . S
C1296 C1297 1.395 . S
C1296 C1298 1.380 . S
C1297 C1296 1.395 . S
C1297 C1300 1.398 . S
C1297 H1312 0.930 . S
C1298 C1296 1.380 . S
C1298 C1299 1.391 . S
C1298 H1313 0.930 . S
C1299 C1298 1.391 . S
C1299 C1301 1.387 . S
C1300 C1297 1.398 . S
C1300 C1301 1.380 . S
C1300 H1314 0.930 . S
C1301 C1299 1.387 . S
C1301 C1300 1.380 . S
C1301 H1315 0.930 . S
C1302 O1282 1.254 . S
C1302 O1283 1.268 . S
C1303 O1287 1.284 . S
C1303 O1290 1.250 . S
C1304 Gd1237 2.828 . S
C1304 O1286 1.258 . S
C1304 O1291 1.252 . S
C1304 C1305 1.497 . S
C1305 C1304 1.497 . S
C1305 C1306 1.395 . S
C1305 C1307 1.380 . S
C1306 C1305 1.395 . S
C1306 C1309 1.398 . S
C1306 H1316 0.930 . S
C1307 C1305 1.380 . S
C1307 C1308 1.391 . S
C1307 H1317 0.930 . S
C1308 C1307 1.391 . S
C1308 C1310 1.387 . S
C1309 C1306 1.398 . S
C1309 C1310 1.380 . S
C1309 H1318 0.930 . S
C1310 C1308 1.387 . S
C1310 C1309 1.380 . S
C1310 H1319 0.930 . S
C1311 O1288 1.254 . S
C1311 O1289 1.268 . S
H1312 C1297 0.930 . S
H1313 C1298 0.930 . S
H1314 C1300 0.930 . S
H1315 C1301 0.930 . S
H1316 C1306 0.930 . S
H1317 C1307 0.930 . S
H1318 C1309 0.930 . S
H1319 C1310 0.930 . S
Gd1320 N1351 2.661 . S
Gd1320 N1357 2.601 . S
Gd1320 O1364 2.545 . S
Gd1320 O1365 2.606 . S
Gd1320 O1367 2.429 . S
Gd1320 O1368 2.545 . S
Gd1320 O1369 2.412 . S
Gd1320 O1371 2.362 . S
Gd1320 O1372 2.324 . S
Gd1320 C1379 2.828 . S
Gd1321 N1330 2.661 . S
Gd1321 N1334 2.601 . S
Gd1321 O1365 2.362 . S
Gd1321 O1366 2.324 . S
Gd1321 O1370 2.545 . S
Gd1321 O1371 2.606 . S
Gd1321 O1373 2.429 . S
Gd1321 O1374 2.545 . S
Gd1321 O1375 2.412 . S
Gd1321 C1388 2.828 . S
C1322 C1325 1.417 . S
C1322 C1327 1.431 . S
C1322 C1328 1.412 . S
C1323 C1326 1.437 . S
C1323 C1327 1.317 . S
C1323 H1342 0.929 . S
C1324 C1325 1.426 . S
C1324 C1326 1.413 . S
C1324 N1334 1.359 . S
C1325 C1322 1.417 . S
C1325 C1324 1.426 . S
C1325 N1330 1.350 . S
C1326 C1323 1.437 . S
C1326 C1324 1.413 . S
C1326 C1336 1.391 . S
C1327 C1322 1.431 . S
C1327 C1323 1.317 . S
C1327 H1338 0.930 . S
C1328 C1322 1.412 . S
C1328 C1329 1.355 . S
C1328 H1340 0.930 . S
C1329 C1328 1.355 . S
C1329 C1331 1.402 . S
C1329 H1341 0.930 . S
N1330 Gd1321 2.661 . S
N1330 C1325 1.350 . S
N1330 C1331 1.307 . S
C1331 C1329 1.402 . S
C1331 N1330 1.307 . S
C1331 H1332 0.930 . S
H1332 C1331 0.930 . S
C1333 N1334 1.334 . S
C1333 C1335 1.394 . S
C1333 H1337 0.930 . S
N1334 Gd1321 2.601 . S
N1334 C1324 1.359 . S
N1334 C1333 1.334 . S
C1335 C1333 1.394 . S
C1335 C1336 1.359 . S
C1335 H1347 0.930 . S
C1336 C1326 1.391 . S
C1336 C1335 1.359 . S
C1336 H1348 0.929 . S
H1337 C1333 0.930 . S
H1338 C1327 0.930 . S
H1339 C1356 0.930 . S
H1340 C1328 0.930 . S
H1341 C1329 0.930 . S
H1342 C1323 0.929 . S
H1343 C1361 0.930 . S
H1344 C1352 0.930 . S
H1345 C1353 0.930 . S
H1346 C1377 0.929 . S
H1347 C1335 0.930 . S
H1348 C1336 0.929 . S
H1349 C1378 0.930 . S
H1350 C1359 0.930 . S
N1351 Gd1320 2.661 . S
N1351 C1355 1.350 . S
N1351 C1356 1.307 . S
C1352 H1344 0.930 . S
C1352 C1353 1.355 . S
C1352 C1354 1.412 . S
C1353 H1345 0.930 . S
C1353 C1352 1.355 . S
C1353 C1356 1.402 . S
C1354 C1352 1.412 . S
C1354 C1355 1.417 . S
C1354 C1378 1.431 . S
C1355 N1351 1.350 . S
C1355 C1354 1.417 . S
C1355 C1358 1.426 . S
C1356 H1339 0.930 . S
C1356 N1351 1.307 . S
C1356 C1353 1.402 . S
N1357 Gd1320 2.601 . S
N1357 C1358 1.359 . S
N1357 C1361 1.334 . S
C1358 C1355 1.426 . S
C1358 N1357 1.359 . S
C1358 C1362 1.413 . S
C1359 H1350 0.930 . S
C1359 C1360 1.359 . S
C1359 C1361 1.394 . S
C1360 C1359 1.359 . S
C1360 C1362 1.391 . S
C1360 H1363 0.929 . S
C1361 H1343 0.930 . S
C1361 N1357 1.334 . S
C1361 C1359 1.394 . S
C1362 C1358 1.413 . S
C1362 C1360 1.391 . S
C1362 C1377 1.437 . S
H1363 C1360 0.929 . S
O1364 Gd1320 2.545 . S
O1364 C1379 1.258 . S
O1365 Gd1320 2.606 . S
O1365 Gd1321 2.362 . S
O1365 C1376 1.284 . S
O1366 Gd1321 2.324 . S
O1366 C1386 1.254 . S
O1367 Gd1320 2.429 . S
O1367 C1386 1.268 . S
O1368 Gd1320 2.545 . S
O1368 C1376 1.250 . S
O1369 Gd1320 2.412 . S
O1369 C1379 1.252 . S
O1370 Gd1321 2.545 . S
O1370 C1388 1.258 . S
O1371 Gd1320 2.362 . S
O1371 Gd1321 2.606 . S
O1371 C1387 1.284 . S
O1372 Gd1320 2.324 . S
O1372 C1395 1.254 . S
O1373 Gd1321 2.429 . S
O1373 C1395 1.268 . S
O1374 Gd1321 2.545 . S
O1374 C1387 1.250 . S
O1375 Gd1321 2.412 . S
O1375 C1388 1.252 . S
C1376 O1365 1.284 . S
C1376 O1368 1.250 . S
C1377 H1346 0.929 . S
C1377 C1362 1.437 . S
C1377 C1378 1.317 . S
C1378 H1349 0.930 . S
C1378 C1354 1.431 . S
C1378 C1377 1.317 . S
C1379 Gd1320 2.828 . S
C1379 O1364 1.258 . S
C1379 O1369 1.252 . S
C1379 C1380 1.497 . S
C1380 C1379 1.497 . S
C1380 C1381 1.395 . S
C1380 C1382 1.380 . S
C1381 C1380 1.395 . S
C1381 C1384 1.398 . S
C1381 H1396 0.930 . S
C1382 C1380 1.380 . S
C1382 C1383 1.391 . S
C1382 H1397 0.930 . S
C1383 C1382 1.391 . S
C1383 C1385 1.387 . S
C1384 C1381 1.398 . S
C1384 C1385 1.380 . S
C1384 H1398 0.930 . S
C1385 C1383 1.387 . S
C1385 C1384 1.380 . S
C1385 H1399 0.930 . S
C1386 O1366 1.254 . S
C1386 O1367 1.268 . S
C1387 O1371 1.284 . S
C1387 O1374 1.250 . S
C1388 Gd1321 2.828 . S
C1388 O1370 1.258 . S
C1388 O1375 1.252 . S
C1388 C1389 1.497 . S
C1389 C1388 1.497 . S
C1389 C1390 1.395 . S
C1389 C1391 1.380 . S
C1390 C1389 1.395 . S
C1390 C1393 1.398 . S
C1390 H1400 0.930 . S
C1391 C1389 1.380 . S
C1391 C1392 1.391 . S
C1391 H1401 0.930 . S
C1392 C1391 1.391 . S
C1392 C1394 1.387 . S
C1393 C1390 1.398 . S
C1393 C1394 1.380 . S
C1393 H1402 0.930 . S
C1394 C1392 1.387 . S
C1394 C1393 1.380 . S
C1394 H1403 0.930 . S
C1395 O1372 1.254 . S
C1395 O1373 1.268 . S
H1396 C1381 0.930 . S
H1397 C1382 0.930 . S
H1398 C1384 0.930 . S
H1399 C1385 0.930 . S
H1400 C1390 0.930 . S
H1401 C1391 0.930 . S
H1402 C1393 0.930 . S
H1403 C1394 0.930 . S
H1404 C1410 0.930 . S
H1405 C1414 0.930 . S
H1406 C1419 0.929 . S
H1407 C1417 0.929 . S
H1408 C1412 0.929 . S
H1409 C1418 0.929 . S
C1410 H1404 0.930 . S
C1410 C1411 1.367 . S
C1410 C1418 1.378 . S
C1411 C1410 1.367 . S
C1411 C1419 1.433 . S
C1412 H1408 0.929 . S
C1412 C1414 1.378 . S
C1412 C1416 1.350 . S
C1413 C1416 1.463 . S
C1413 C1418 1.350 . S
C1413 N1421 1.427 . S
C1414 H1405 0.930 . S
C1414 C1412 1.378 . S
C1414 C1415 1.367 . S
C1415 C1414 1.367 . S
C1415 C1417 1.433 . S
C1416 C1412 1.350 . S
C1416 C1413 1.463 . S
C1416 N1420 1.427 . S
C1417 H1407 0.929 . S
C1417 C1415 1.433 . S
C1417 N1420 1.384 . S
C1418 H1409 0.929 . S
C1418 C1410 1.378 . S
C1418 C1413 1.350 . S
C1419 H1406 0.929 . S
C1419 C1411 1.433 . S
C1419 N1421 1.384 . S
N1420 C1416 1.427 . S
N1420 C1417 1.384 . S
N1421 C1413 1.427 . S
N1421 C1419 1.384 . S
H1422 C1428 0.930 . S
H1423 C1432 0.930 . S
H1424 C1437 0.929 . S
H1425 C1435 0.929 1_556 S
H1426 C1430 0.929 . S
H1427 C1436 0.929 . S
C1428 H1422 0.930 . S
C1428 C1429 1.367 . S
C1428 C1436 1.378 . S
C1429 C1428 1.367 . S
C1429 C1437 1.433 . S
C1430 H1426 0.929 . S
C1430 C1432 1.378 . S
C1430 C1434 1.350 . S
C1431 C1434 1.463 . S
C1431 C1436 1.350 . S
C1431 N1439 1.427 . S
C1432 H1423 0.930 . S
C1432 C1430 1.378 . S
C1432 C1433 1.367 . S
C1433 C1432 1.367 . S
C1433 C1435 1.433 . S
C1434 C1430 1.350 . S
C1434 C1431 1.463 . S
C1434 N1438 1.427 . S
C1435 H1425 0.929 1_554 S
C1435 C1433 1.433 . S
C1435 N1438 1.384 . S
C1436 H1427 0.929 . S
C1436 C1428 1.378 . S
C1436 C1431 1.350 . S
C1437 H1424 0.929 . S
C1437 C1429 1.433 . S
C1437 N1439 1.384 . S
N1438 C1434 1.427 . S
N1438 C1435 1.384 . S
N1439 C1431 1.427 . S
N1439 C1437 1.384 . S
H1440 C1446 0.930 . S
H1441 C1450 0.930 . S
H1442 C1455 0.929 . S
H1443 C1453 0.929 . S
H1444 C1448 0.929 . S
H1445 C1454 0.929 . S
C1446 H1440 0.930 . S
C1446 C1447 1.367 . S
C1446 C1454 1.378 . S
C1447 C1446 1.367 . S
C1447 C1455 1.433 . S
C1448 H1444 0.929 . S
C1448 C1450 1.378 . S
C1448 C1452 1.350 . S
C1449 C1452 1.463 . S
C1449 C1454 1.350 . S
C1449 N1457 1.427 . S
C1450 H1441 0.930 . S
C1450 C1448 1.378 . S
C1450 C1451 1.367 . S
C1451 C1450 1.367 . S
C1451 C1453 1.433 . S
C1452 C1448 1.350 . S
C1452 C1449 1.463 . S
C1452 N1456 1.427 . S
C1453 H1443 0.929 . S
C1453 C1451 1.433 . S
C1453 N1456 1.384 . S
C1454 H1445 0.929 . S
C1454 C1446 1.378 . S
C1454 C1449 1.350 . S
C1455 H1442 0.929 . S
C1455 C1447 1.433 . S
C1455 N1457 1.384 . S
N1456 C1452 1.427 . S
N1456 C1453 1.384 . S
N1457 C1449 1.427 . S
N1457 C1455 1.384 . S
H1458 C1464 0.930 . S
H1459 C1468 0.930 . S
H1460 C1473 0.929 . S
H1461 C1471 0.929 . S
H1462 C1466 0.929 . S
H1463 C1472 0.929 . S
C1464 H1458 0.930 . S
C1464 C1465 1.367 . S
C1464 C1472 1.378 . S
C1465 C1464 1.367 . S
C1465 C1473 1.433 . S
C1466 H1462 0.929 . S
C1466 C1468 1.378 . S
C1466 C1470 1.350 . S
C1467 C1470 1.463 . S
C1467 C1472 1.350 . S
C1467 N1475 1.427 . S
C1468 H1459 0.930 . S
C1468 C1466 1.378 . S
C1468 C1469 1.367 . S
C1469 C1468 1.367 . S
C1469 C1471 1.433 . S
C1470 C1466 1.350 . S
C1470 C1467 1.463 . S
C1470 N1474 1.427 . S
C1471 H1461 0.929 . S
C1471 C1469 1.433 . S
C1471 N1474 1.384 . S
C1472 H1463 0.929 . S
C1472 C1464 1.378 . S
C1472 C1467 1.350 . S
C1473 H1460 0.929 . S
C1473 C1465 1.433 . S
C1473 N1475 1.384 . S
N1474 C1470 1.427 . S
N1474 C1471 1.384 . S
N1475 C1467 1.427 . S
N1475 C1473 1.384 . S
H1476 C1482 0.930 . S
H1477 C1486 0.930 . S
H1478 C1491 0.929 . S
H1479 C1489 0.929 . S
H1480 C1484 0.929 . S
H1481 C1490 0.929 . S
C1482 H1476 0.930 . S
C1482 C1483 1.367 . S
C1482 C1490 1.378 . S
C1483 C1482 1.367 . S
C1483 C1491 1.433 . S
C1484 H1480 0.929 . S
C1484 C1486 1.378 . S
C1484 C1488 1.350 . S
C1485 C1488 1.463 . S
C1485 C1490 1.350 . S
C1485 N1493 1.427 . S
C1486 H1477 0.930 . S
C1486 C1484 1.378 . S
C1486 C1487 1.367 . S
C1487 C1486 1.367 . S
C1487 C1489 1.433 . S
C1488 C1484 1.350 . S
C1488 C1485 1.463 . S
C1488 N1492 1.427 . S
C1489 H1479 0.929 . S
C1489 C1487 1.433 . S
C1489 N1492 1.384 . S
C1490 H1481 0.929 . S
C1490 C1482 1.378 . S
C1490 C1485 1.350 . S
C1491 H1478 0.929 . S
C1491 C1483 1.433 . S
C1491 N1493 1.384 . S
N1492 C1488 1.427 . S
N1492 C1489 1.384 . S
N1493 C1485 1.427 . S
N1493 C1491 1.384 . S
H1494 C1500 0.930 . S
H1495 C1504 0.930 1_554 S
H1496 C1509 0.929 . S
H1497 C1507 0.929 . S
H1498 C1502 0.929 . S
H1499 C1508 0.929 . S
C1500 H1494 0.930 . S
C1500 C1501 1.367 . S
C1500 C1508 1.378 . S
C1501 C1500 1.367 . S
C1501 C1509 1.433 . S
C1502 H1498 0.929 . S
C1502 C1504 1.378 . S
C1502 C1506 1.350 . S
C1503 C1506 1.463 . S
C1503 C1508 1.350 . S
C1503 N1511 1.427 . S
C1504 H1495 0.930 1_556 S
C1504 C1502 1.378 . S
C1504 C1505 1.367 . S
C1505 C1504 1.367 . S
C1505 C1507 1.433 . S
C1506 C1502 1.350 . S
C1506 C1503 1.463 . S
C1506 N1510 1.427 . S
C1507 H1497 0.929 . S
C1507 C1505 1.433 . S
C1507 N1510 1.384 . S
C1508 H1499 0.929 . S
C1508 C1500 1.378 . S
C1508 C1503 1.350 . S
C1509 H1496 0.929 . S
C1509 C1501 1.433 . S
C1509 N1511 1.384 . S
N1510 C1506 1.427 . S
N1510 C1507 1.384 . S
N1511 C1503 1.427 . S
N1511 C1509 1.384 . S
H1512 C1518 0.930 . S
H1513 C1522 0.930 . S
H1514 C1527 0.929 . S
H1515 C1525 0.929 . S
H1516 C1520 0.929 . S
H1517 C1526 0.929 . S
C1518 H1512 0.930 . S
C1518 C1519 1.367 . S
C1518 C1526 1.378 . S
C1519 C1518 1.367 . S
C1519 C1527 1.433 . S
C1520 H1516 0.929 . S
C1520 C1522 1.378 . S
C1520 C1524 1.350 . S
C1521 C1524 1.463 . S
C1521 C1526 1.350 . S
C1521 N1529 1.427 . S
C1522 H1513 0.930 . S
C1522 C1520 1.378 . S
C1522 C1523 1.367 . S
C1523 C1522 1.367 . S
C1523 C1525 1.433 . S
C1524 C1520 1.350 . S
C1524 C1521 1.463 . S
C1524 N1528 1.427 . S
C1525 H1515 0.929 . S
C1525 C1523 1.433 . S
C1525 N1528 1.384 . S
C1526 H1517 0.929 . S
C1526 C1518 1.378 . S
C1526 C1521 1.350 . S
C1527 H1514 0.929 . S
C1527 C1519 1.433 . S
C1527 N1529 1.384 . S
N1528 C1524 1.427 . S
N1528 C1525 1.384 . S
N1529 C1521 1.427 . S
N1529 C1527 1.384 . S
H1530 C1536 0.930 . S
H1531 C1540 0.930 . S
H1532 C1545 0.929 . S
H1533 C1543 0.929 . S
H1534 C1538 0.929 . S
H1535 C1544 0.929 . S
C1536 H1530 0.930 . S
C1536 C1537 1.367 . S
C1536 C1544 1.378 . S
C1537 C1536 1.367 . S
C1537 C1545 1.433 . S
C1538 H1534 0.929 . S
C1538 C1540 1.378 . S
C1538 C1542 1.350 . S
C1539 C1542 1.463 . S
C1539 C1544 1.350 . S
C1539 N1547 1.427 . S
C1540 H1531 0.930 . S
C1540 C1538 1.378 . S
C1540 C1541 1.367 . S
C1541 C1540 1.367 . S
C1541 C1543 1.433 . S
C1542 C1538 1.350 . S
C1542 C1539 1.463 . S
C1542 N1546 1.427 . S
C1543 H1533 0.929 . S
C1543 C1541 1.433 . S
C1543 N1546 1.384 . S
C1544 H1535 0.929 . S
C1544 C1536 1.378 . S
C1544 C1539 1.350 . S
C1545 H1532 0.929 . S
C1545 C1537 1.433 . S
C1545 N1547 1.384 . S
N1546 C1542 1.427 . S
N1546 C1543 1.384 . S
N1547 C1539 1.427 . S
N1547 C1545 1.384 . S
H1548 C1554 0.930 . S
H1549 C1558 0.930 1_554 S
H1550 C1563 0.929 . S
H1551 C1561 0.929 . S
H1552 C1556 0.929 . S
H1553 C1562 0.929 . S
C1554 H1548 0.930 . S
C1554 C1555 1.367 . S
C1554 C1562 1.378 . S
C1555 C1554 1.367 . S
C1555 C1563 1.433 . S
C1556 H1552 0.929 . S
C1556 C1558 1.378 . S
C1556 C1560 1.350 . S
C1557 C1560 1.463 . S
C1557 C1562 1.350 . S
C1557 N1565 1.427 . S
C1558 H1549 0.930 1_556 S
C1558 C1556 1.378 . S
C1558 C1559 1.367 . S
C1559 C1558 1.367 . S
C1559 C1561 1.433 . S
C1560 C1556 1.350 . S
C1560 C1557 1.463 . S
C1560 N1564 1.427 . S
C1561 H1551 0.929 . S
C1561 C1559 1.433 . S
C1561 N1564 1.384 . S
C1562 H1553 0.929 . S
C1562 C1554 1.378 . S
C1562 C1557 1.350 . S
C1563 H1550 0.929 . S
C1563 C1555 1.433 . S
C1563 N1565 1.384 . S
N1564 C1560 1.427 . S
N1564 C1561 1.384 . S
N1565 C1557 1.427 . S
N1565 C1563 1.384 . S
H1566 C1572 0.930 . S
H1567 C1576 0.912 1_556 S
H1568 C1581 0.929 . S
H1569 C1579 0.929 . S
H1570 C1574 0.929 . S
H1571 C1580 0.929 . S
C1572 H1566 0.930 . S
C1572 C1573 1.367 . S
C1572 C1580 1.378 . S
C1573 C1572 1.367 . S
C1573 C1581 1.433 . S
C1574 H1570 0.929 . S
C1574 C1576 1.378 . S
C1574 C1578 1.350 . S
C1575 C1578 1.463 . S
C1575 C1580 1.350 . S
C1575 N1583 1.427 . S
C1576 H1567 0.912 1_554 S
C1576 C1574 1.378 . S
C1576 C1577 1.367 . S
C1577 C1576 1.367 . S
C1577 C1579 1.433 . S
C1578 C1574 1.350 . S
C1578 C1575 1.463 . S
C1578 N1582 1.427 . S
C1579 H1569 0.929 . S
C1579 C1577 1.433 . S
C1579 N1582 1.384 . S
C1580 H1571 0.929 . S
C1580 C1572 1.378 . S
C1580 C1575 1.350 . S
C1581 H1568 0.929 . S
C1581 C1573 1.433 . S
C1581 N1583 1.384 . S
N1582 C1578 1.427 . S
N1582 C1579 1.384 . S
N1583 C1575 1.427 . S
N1583 C1581 1.384 . S
H1584 C1590 0.930 . S
H1585 C1594 0.930 . S
H1586 C1599 0.929 . S
H1587 C1597 0.900 1_556 S
H1588 C1592 0.929 . S
H1589 C1598 0.929 . S
C1590 H1584 0.930 . S
C1590 C1591 1.367 . S
C1590 C1598 1.378 . S
C1591 C1590 1.367 . S
C1591 C1599 1.433 . S
C1592 H1588 0.929 . S
C1592 C1594 1.378 . S
C1592 C1596 1.350 . S
C1593 C1596 1.463 . S
C1593 C1598 1.350 . S
C1593 N1601 1.427 . S
C1594 H1585 0.930 . S
C1594 C1592 1.378 . S
C1594 C1595 1.367 . S
C1595 C1594 1.367 . S
C1595 C1597 1.433 . S
C1596 C1592 1.350 . S
C1596 C1593 1.463 . S
C1596 N1600 1.427 . S
C1597 H1587 0.900 1_554 S
C1597 C1595 1.433 . S
C1597 N1600 1.384 . S
C1598 H1589 0.929 . S
C1598 C1590 1.378 . S
C1598 C1593 1.350 . S
C1599 H1586 0.929 . S
C1599 C1591 1.433 . S
C1599 N1601 1.384 . S
N1600 C1596 1.427 . S
N1600 C1597 1.384 . S
N1601 C1593 1.427 . S
N1601 C1599 1.384 . S
H1602 C1608 0.930 . S
H1603 C1612 0.930 . S
H1604 C1617 0.929 . S
H1605 C1615 0.929 . S
H1606 C1610 0.929 . S
H1607 C1616 0.929 . S
C1608 H1602 0.930 . S
C1608 C1609 1.367 . S
C1608 C1616 1.378 . S
C1609 C1608 1.367 . S
C1609 C1617 1.433 . S
C1610 H1606 0.929 . S
C1610 C1612 1.378 . S
C1610 C1614 1.350 . S
C1611 C1614 1.463 . S
C1611 C1616 1.350 . S
C1611 N1619 1.427 . S
C1612 H1603 0.930 . S
C1612 C1610 1.378 . S
C1612 C1613 1.367 . S
C1613 C1612 1.367 . S
C1613 C1615 1.433 . S
C1614 C1610 1.350 . S
C1614 C1611 1.463 . S
C1614 N1618 1.427 . S
C1615 H1605 0.929 . S
C1615 C1613 1.433 . S
C1615 N1618 1.384 . S
C1616 H1607 0.929 . S
C1616 C1608 1.378 . S
C1616 C1611 1.350 . S
C1617 H1604 0.929 . S
C1617 C1609 1.433 . S
C1617 N1619 1.384 . S
N1618 C1614 1.427 . S
N1618 C1615 1.384 . S
N1619 C1611 1.427 . S
N1619 C1617 1.384 . S
H1620 C1626 0.930 . S
H1621 C1630 0.930 . S
H1622 C1635 0.929 . S
H1623 C1633 0.929 . S
H1624 C1628 0.929 . S
H1625 C1634 0.929 . S
C1626 H1620 0.930 . S
C1626 C1627 1.367 . S
C1626 C1634 1.378 1_655 S
C1627 C1626 1.367 . S
C1627 C1635 1.433 1_655 S
C1628 H1624 0.929 . S
C1628 C1630 1.378 . S
C1628 C1632 1.350 . S
C1629 C1632 1.463 . S
C1629 C1634 1.350 . S
C1629 N1637 1.427 . S
C1630 H1621 0.930 . S
C1630 C1628 1.378 . S
C1630 C1631 1.367 . S
C1631 C1630 1.367 . S
C1631 C1633 1.433 . S
C1632 C1628 1.350 . S
C1632 C1629 1.463 . S
C1632 N1636 1.427 . S
C1633 H1623 0.929 . S
C1633 C1631 1.433 . S
C1633 N1636 1.384 . S
C1634 H1625 0.929 . S
C1634 C1626 1.378 1_455 S
C1634 C1629 1.350 . S
C1635 H1622 0.929 . S
C1635 C1627 1.433 1_455 S
C1635 N1637 1.384 . S
N1636 C1632 1.427 . S
N1636 C1633 1.384 . S
N1637 C1629 1.427 . S
N1637 C1635 1.384 . S
H1638 C1644 0.930 . S
H1639 C1648 0.930 . S
H1640 C1653 0.929 . S
H1641 C1651 0.929 . S
H1642 C1646 0.929 . S
H1643 C1652 0.929 . S
C1644 H1638 0.930 . S
C1644 C1645 1.367 . S
C1644 C1652 1.378 . S
C1645 C1644 1.367 . S
C1645 C1653 1.433 . S
C1646 H1642 0.929 . S
C1646 C1648 1.378 . S
C1646 C1650 1.350 . S
C1647 C1650 1.463 . S
C1647 C1652 1.350 . S
C1647 N1655 1.427 . S
C1648 H1639 0.930 . S
C1648 C1646 1.378 . S
C1648 C1649 1.367 . S
C1649 C1648 1.367 . S
C1649 C1651 1.433 . S
C1650 C1646 1.350 . S
C1650 C1647 1.463 . S
C1650 N1654 1.427 . S
C1651 H1641 0.929 . S
C1651 C1649 1.433 . S
C1651 N1654 1.384 . S
C1652 H1643 0.929 . S
C1652 C1644 1.378 . S
C1652 C1647 1.350 . S
C1653 H1640 0.929 . S
C1653 C1645 1.433 . S
C1653 N1655 1.384 . S
N1654 C1650 1.427 . S
N1654 C1651 1.384 . S
N1655 C1647 1.427 . S
N1655 C1653 1.384 . S
H1656 C1662 0.930 . S
H1657 C1666 0.930 . S
H1658 C1671 0.929 . S
H1659 C1669 0.929 . S
H1660 C1664 0.929 . S
H1661 C1670 0.929 . S
C1662 H1656 0.930 . S
C1662 C1663 1.367 . S
C1662 C1670 1.378 1_545 S
C1663 C1662 1.367 . S
C1663 C1671 1.433 . S
C1664 H1660 0.929 . S
C1664 C1666 1.378 . S
C1664 C1668 1.350 . S
C1665 C1668 1.463 . S
C1665 C1670 1.350 . S
C1665 N1673 1.427 . S
C1666 H1657 0.930 . S
C1666 C1664 1.378 . S
C1666 C1667 1.367 . S
C1667 C1666 1.367 . S
C1667 C1669 1.433 . S
C1668 C1664 1.350 . S
C1668 C1665 1.463 . S
C1668 N1672 1.427 . S
C1669 H1659 0.929 . S
C1669 C1667 1.433 . S
C1669 N1672 1.384 . S
C1670 H1661 0.929 . S
C1670 C1662 1.378 1_565 S
C1670 C1665 1.350 . S
C1671 H1658 0.929 . S
C1671 C1663 1.433 . S
C1671 N1673 1.384 1_545 S
N1672 C1668 1.427 . S
N1672 C1669 1.384 . S
N1673 C1665 1.427 . S
N1673 C1671 1.384 1_565 S
H1674 C1680 0.930 . S
H1675 C1684 0.930 . S
H1676 C1689 0.929 . S
H1677 C1687 0.929 . S
H1678 C1682 0.929 . S
H1679 C1688 0.929 . S
C1680 H1674 0.930 . S
C1680 C1681 1.367 . S
C1680 C1688 1.378 . S
C1681 C1680 1.367 . S
C1681 C1689 1.433 . S
C1682 H1678 0.929 . S
C1682 C1684 1.378 . S
C1682 C1686 1.350 . S
C1683 C1686 1.463 . S
C1683 C1688 1.350 . S
C1683 N1691 1.427 . S
C1684 H1675 0.930 . S
C1684 C1682 1.378 . S
C1684 C1685 1.367 . S
C1685 C1684 1.367 . S
C1685 C1687 1.433 . S
C1686 C1682 1.350 . S
C1686 C1683 1.463 . S
C1686 N1690 1.427 . S
C1687 H1677 0.929 . S
C1687 C1685 1.433 . S
C1687 N1690 1.384 . S
C1688 H1679 0.929 . S
C1688 C1680 1.378 . S
C1688 C1683 1.350 . S
C1689 H1676 0.929 . S
C1689 C1681 1.433 . S
C1689 N1691 1.384 . S
N1690 C1686 1.427 . S
N1690 C1687 1.384 . S
N1691 C1683 1.427 . S
N1691 C1689 1.384 . S
H1692 C1698 0.930 . S
H1693 C1702 0.930 . S
H1694 C1707 0.929 . S
H1695 C1705 0.929 . S
H1696 C1700 0.929 . S
H1697 C1706 0.929 . S
C1698 H1692 0.930 . S
C1698 C1699 1.367 . S
C1698 C1706 1.378 . S
C1699 C1698 1.367 . S
C1699 C1707 1.433 . S
C1700 H1696 0.929 . S
C1700 C1702 1.378 . S
C1700 C1704 1.350 . S
C1701 C1704 1.463 . S
C1701 C1706 1.350 . S
C1701 N1709 1.427 . S
C1702 H1693 0.930 . S
C1702 C1700 1.378 . S
C1702 C1703 1.367 . S
C1703 C1702 1.367 . S
C1703 C1705 1.433 . S
C1704 C1700 1.350 . S
C1704 C1701 1.463 . S
C1704 N1708 1.427 . S
C1705 H1695 0.929 . S
C1705 C1703 1.433 . S
C1705 N1708 1.384 . S
C1706 H1697 0.929 . S
C1706 C1698 1.378 . S
C1706 C1701 1.350 . S
C1707 H1694 0.929 . S
C1707 C1699 1.433 . S
C1707 N1709 1.384 . S
N1708 C1704 1.427 . S
N1708 C1705 1.384 . S
N1709 C1701 1.427 . S
N1709 C1707 1.384 . S
H1710 C1716 0.930 . S
H1711 C1720 0.930 . S
H1712 C1725 0.929 . S
H1713 C1723 0.929 . S
H1714 C1718 0.929 . S
H1715 C1724 0.929 . S
C1716 H1710 0.930 . S
C1716 C1717 1.367 . S
C1716 C1724 1.378 . S
C1717 C1716 1.367 . S
C1717 C1725 1.433 . S
C1718 H1714 0.929 . S
C1718 C1720 1.378 . S
C1718 C1722 1.350 . S
C1719 C1722 1.463 . S
C1719 C1724 1.350 . S
C1719 N1727 1.427 . S
C1720 H1711 0.930 . S
C1720 C1718 1.378 . S
C1720 C1721 1.367 . S
C1721 C1720 1.367 . S
C1721 C1723 1.433 . S
C1722 C1718 1.350 . S
C1722 C1719 1.463 . S
C1722 N1726 1.427 . S
C1723 H1713 0.929 . S
C1723 C1721 1.433 . S
C1723 N1726 1.384 . S
C1724 H1715 0.929 . S
C1724 C1716 1.378 . S
C1724 C1719 1.350 . S
C1725 H1712 0.929 . S
C1725 C1717 1.433 . S
C1725 N1727 1.384 . S
N1726 C1722 1.427 . S
N1726 C1723 1.384 . S
N1727 C1719 1.427 . S
N1727 C1725 1.384 . S
H1728 C1734 0.930 . S
H1729 C1738 0.930 . S
H1730 C1743 0.929 . S
H1731 C1741 0.929 . S
H1732 C1736 0.929 . S
H1733 C1742 0.929 . S
C1734 H1728 0.930 . S
C1734 C1735 1.367 . S
C1734 C1742 1.378 . S
C1735 C1734 1.367 . S
C1735 C1743 1.433 . S
C1736 H1732 0.929 . S
C1736 C1738 1.378 . S
C1736 C1740 1.350 . S
C1737 C1740 1.463 . S
C1737 C1742 1.350 . S
C1737 N1745 1.427 . S
C1738 H1729 0.930 . S
C1738 C1736 1.378 . S
C1738 C1739 1.367 . S
C1739 C1738 1.367 . S
C1739 C1741 1.433 . S
C1740 C1736 1.350 . S
C1740 C1737 1.463 . S
C1740 N1744 1.427 . S
C1741 H1731 0.929 . S
C1741 C1739 1.433 . S
C1741 N1744 1.384 . S
C1742 H1733 0.929 . S
C1742 C1734 1.378 . S
C1742 C1737 1.350 . S
C1743 H1730 0.929 . S
C1743 C1735 1.433 . S
C1743 N1745 1.384 . S
N1744 C1740 1.427 . S
N1744 C1741 1.384 . S
N1745 C1737 1.427 . S
N1745 C1743 1.384 . S
H1746 C1752 0.930 . S
H1747 C1756 0.930 . S
H1748 C1761 0.929 . S
H1749 C1759 0.929 . S
H1750 C1754 0.929 . S
H1751 C1760 0.929 . S
C1752 H1746 0.930 . S
C1752 C1753 1.367 . S
C1752 C1760 1.378 . S
C1753 C1752 1.367 . S
C1753 C1761 1.433 . S
C1754 H1750 0.929 . S
C1754 C1756 1.378 . S
C1754 C1758 1.350 . S
C1755 C1758 1.463 . S
C1755 C1760 1.350 . S
C1755 N1763 1.427 . S
C1756 H1747 0.930 . S
C1756 C1754 1.378 . S
C1756 C1757 1.367 . S
C1757 C1756 1.367 . S
C1757 C1759 1.433 . S
C1758 C1754 1.350 . S
C1758 C1755 1.463 . S
C1758 N1762 1.427 . S
C1759 H1749 0.929 . S
C1759 C1757 1.433 . S
C1759 N1762 1.384 . S
C1760 H1751 0.929 . S
C1760 C1752 1.378 . S
C1760 C1755 1.350 . S
C1761 H1748 0.929 . S
C1761 C1753 1.433 . S
C1761 N1763 1.384 . S
N1762 C1758 1.427 . S
N1762 C1759 1.384 . S
N1763 C1755 1.427 . S
N1763 C1761 1.384 . S
H1764 C1770 0.930 . S
H1765 C1774 0.930 . S
H1766 C1779 0.929 . S
H1767 C1777 0.929 . S
H1768 C1772 0.929 . S
H1769 C1778 0.929 . S
C1770 H1764 0.930 . S
C1770 C1771 1.367 . S
C1770 C1778 1.378 . S
C1771 C1770 1.367 . S
C1771 C1779 1.433 . S
C1772 H1768 0.929 . S
C1772 C1774 1.378 . S
C1772 C1776 1.350 . S
C1773 C1776 1.463 . S
C1773 C1778 1.350 . S
C1773 N1781 1.427 . S
C1774 H1765 0.930 . S
C1774 C1772 1.378 . S
C1774 C1775 1.367 . S
C1775 C1774 1.367 . S
C1775 C1777 1.433 . S
C1776 C1772 1.350 . S
C1776 C1773 1.463 . S
C1776 N1780 1.427 . S
C1777 H1767 0.929 . S
C1777 C1775 1.433 . S
C1777 N1780 1.384 . S
C1778 H1769 0.929 . S
C1778 C1770 1.378 . S
C1778 C1773 1.350 . S
C1779 H1766 0.929 . S
C1779 C1771 1.433 . S
C1779 N1781 1.384 . S
N1780 C1776 1.427 . S
N1780 C1777 1.384 . S
N1781 C1773 1.427 . S
N1781 C1779 1.384 . S
H1782 C1788 0.925 1_545 S
H1783 C1792 0.930 . S
H1784 C1797 0.929 . S
H1785 C1795 0.929 . S
H1786 C1790 0.929 . S
H1787 C1796 0.929 . S
C1788 H1782 0.925 1_565 S
C1788 C1789 1.365 1_565 S
C1788 C1796 1.385 . S
C1789 C1788 1.365 1_545 S
C1789 C1797 1.433 . S
C1790 H1786 0.929 . S
C1790 C1792 1.378 . S
C1790 C1794 1.350 . S
C1791 C1794 1.463 . S
C1791 C1796 1.350 . S
C1791 N1799 1.427 . S
C1792 H1783 0.930 . S
C1792 C1790 1.378 . S
C1792 C1793 1.367 . S
C1793 C1792 1.367 . S
C1793 C1795 1.433 . S
C1794 C1790 1.350 . S
C1794 C1791 1.463 . S
C1794 N1798 1.427 . S
C1795 H1785 0.929 . S
C1795 C1793 1.433 . S
C1795 N1798 1.384 . S
C1796 H1787 0.929 . S
C1796 C1788 1.385 . S
C1796 C1791 1.350 . S
C1797 H1784 0.929 . S
C1797 C1789 1.433 . S
C1797 N1799 1.384 1_545 S
N1798 C1794 1.427 . S
N1798 C1795 1.384 . S
N1799 C1791 1.427 . S
N1799 C1797 1.384 1_565 S
H1800 C1806 0.930 . S
H1801 C1810 0.930 . S
H1802 C1815 0.929 . S
H1803 C1813 0.929 . S
H1804 C1808 0.929 . S
H1805 C1814 0.929 . S
C1806 H1800 0.930 . S
C1806 C1807 1.367 . S
C1806 C1814 1.378 1_655 S
C1807 C1806 1.367 . S
C1807 C1815 1.433 1_655 S
C1808 H1804 0.929 . S
C1808 C1810 1.378 . S
C1808 C1812 1.350 . S
C1809 C1812 1.463 . S
C1809 C1814 1.350 . S
C1809 N1817 1.427 . S
C1810 H1801 0.930 . S
C1810 C1808 1.378 . S
C1810 C1811 1.367 . S
C1811 C1810 1.367 . S
C1811 C1813 1.433 . S
C1812 C1808 1.350 . S
C1812 C1809 1.463 . S
C1812 N1816 1.427 . S
C1813 H1803 0.929 . S
C1813 C1811 1.433 . S
C1813 N1816 1.384 . S
C1814 H1805 0.929 . S
C1814 C1806 1.378 1_455 S
C1814 C1809 1.350 . S
C1815 H1802 0.929 . S
C1815 C1807 1.433 1_455 S
C1815 N1817 1.384 . S
N1816 C1812 1.427 . S
N1816 C1813 1.384 . S
N1817 C1809 1.427 . S
N1817 C1815 1.384 . S
H1818 C1824 0.930 . S
H1819 C1828 0.930 . S
H1820 C1833 0.929 . S
H1821 C1831 0.929 . S
H1822 C1826 0.929 . S
H1823 C1832 0.929 . S
C1824 H1818 0.930 . S
C1824 C1825 1.367 . S
C1824 C1832 1.378 . S
C1825 C1824 1.367 . S
C1825 C1833 1.433 . S
C1826 H1822 0.929 . S
C1826 C1828 1.378 . S
C1826 C1830 1.350 . S
C1827 C1830 1.463 . S
C1827 C1832 1.350 . S
C1827 N1835 1.427 . S
C1828 H1819 0.930 . S
C1828 C1826 1.378 . S
C1828 C1829 1.367 . S
C1829 C1828 1.367 . S
C1829 C1831 1.433 . S
C1830 C1826 1.350 . S
C1830 C1827 1.463 . S
C1830 N1834 1.427 . S
C1831 H1821 0.929 . S
C1831 C1829 1.433 . S
C1831 N1834 1.384 . S
C1832 H1823 0.929 . S
C1832 C1824 1.378 . S
C1832 C1827 1.350 . S
C1833 H1820 0.929 . S
C1833 C1825 1.433 . S
C1833 N1835 1.384 . S
N1834 C1830 1.427 . S
N1834 C1831 1.384 . S
N1835 C1827 1.427 . S
N1835 C1833 1.384 . S
H1836 C1842 0.930 . S
H1837 C1846 0.930 . S
H1838 C1851 0.929 . S
H1839 C1849 0.929 . S
H1840 C1844 0.929 . S
H1841 C1850 0.929 . S
C1842 H1836 0.930 . S
C1842 C1843 1.367 . S
C1842 C1850 1.378 . S
C1843 C1842 1.367 . S
C1843 C1851 1.433 . S
C1844 H1840 0.929 . S
C1844 C1846 1.378 . S
C1844 C1848 1.350 . S
C1845 C1848 1.463 . S
C1845 C1850 1.350 . S
C1845 N1853 1.427 . S
C1846 H1837 0.930 . S
C1846 C1844 1.378 . S
C1846 C1847 1.367 . S
C1847 C1846 1.367 . S
C1847 C1849 1.433 . S
C1848 C1844 1.350 . S
C1848 C1845 1.463 . S
C1848 N1852 1.427 . S
C1849 H1839 0.929 . S
C1849 C1847 1.433 . S
C1849 N1852 1.384 . S
C1850 H1841 0.929 . S
C1850 C1842 1.378 . S
C1850 C1845 1.350 . S
C1851 H1838 0.929 . S
C1851 C1843 1.433 . S
C1851 N1853 1.384 . S
N1852 C1848 1.427 . S
N1852 C1849 1.384 . S
N1853 C1845 1.427 . S
N1853 C1851 1.384 . S
H1854 C1860 0.930 . S
H1855 C1864 0.930 . S
H1856 C1869 0.929 . S
H1857 C1867 0.929 . S
H1858 C1862 0.929 . S
H1859 C1868 0.929 . S
C1860 H1854 0.930 . S
C1860 C1861 1.367 . S
C1860 C1868 1.378 . S
C1861 C1860 1.367 . S
C1861 C1869 1.433 . S
C1862 H1858 0.929 . S
C1862 C1864 1.378 . S
C1862 C1866 1.350 . S
C1863 C1866 1.463 . S
C1863 C1868 1.350 . S
C1863 N1871 1.427 . S
C1864 H1855 0.930 . S
C1864 C1862 1.378 . S
C1864 C1865 1.367 . S
C1865 C1864 1.367 . S
C1865 C1867 1.433 . S
C1866 C1862 1.350 . S
C1866 C1863 1.463 . S
C1866 N1870 1.427 . S
C1867 H1857 0.929 . S
C1867 C1865 1.433 . S
C1867 N1870 1.384 . S
C1868 H1859 0.929 . S
C1868 C1860 1.378 . S
C1868 C1863 1.350 . S
C1869 H1856 0.929 . S
C1869 C1861 1.433 . S
C1869 N1871 1.384 . S
N1870 C1866 1.427 . S
N1870 C1867 1.384 . S
N1871 C1863 1.427 . S
N1871 C1869 1.384 . S
H1872 C1878 0.930 . S
H1873 C1882 0.930 . S
H1874 C1887 0.929 . S
H1875 C1885 0.929 . S
H1876 C1880 0.929 . S
H1877 C1886 0.929 . S
C1878 H1872 0.930 . S
C1878 C1879 1.367 . S
C1878 C1886 1.378 . S
C1879 C1878 1.367 . S
C1879 C1887 1.433 . S
C1880 H1876 0.929 . S
C1880 C1882 1.378 . S
C1880 C1884 1.350 . S
C1881 C1884 1.463 . S
C1881 C1886 1.350 . S
C1881 N1889 1.427 . S
C1882 H1873 0.930 . S
C1882 C1880 1.378 . S
C1882 C1883 1.367 . S
C1883 C1882 1.367 . S
C1883 C1885 1.433 . S
C1884 C1880 1.350 . S
C1884 C1881 1.463 . S
C1884 N1888 1.427 . S
C1885 H1875 0.929 . S
C1885 C1883 1.433 . S
C1885 N1888 1.384 . S
C1886 H1877 0.929 . S
C1886 C1878 1.378 . S
C1886 C1881 1.350 . S
C1887 H1874 0.929 . S
C1887 C1879 1.433 . S
C1887 N1889 1.384 . S
N1888 C1884 1.427 . S
N1888 C1885 1.384 . S
N1889 C1881 1.427 . S
N1889 C1887 1.384 . S
H1890 C1896 0.930 . S
H1891 C1900 0.930 . S
H1892 C1905 0.929 . S
H1893 C1903 0.929 . S
H1894 C1898 0.929 . S
H1895 C1904 0.929 . S
C1896 H1890 0.930 . S
C1896 C1897 1.367 1_545 S
C1896 C1904 1.378 . S
C1897 C1896 1.367 1_565 S
C1897 C1905 1.433 . S
C1898 H1894 0.929 . S
C1898 C1900 1.378 . S
C1898 C1902 1.350 . S
C1899 C1902 1.463 . S
C1899 C1904 1.350 . S
C1899 N1907 1.427 . S
C1900 H1891 0.930 . S
C1900 C1898 1.378 . S
C1900 C1901 1.367 . S
C1901 C1900 1.367 . S
C1901 C1903 1.433 . S
C1902 C1898 1.350 . S
C1902 C1899 1.463 . S
C1902 N1906 1.427 . S
C1903 H1893 0.929 . S
C1903 C1901 1.433 . S
C1903 N1906 1.384 . S
C1904 H1895 0.929 . S
C1904 C1896 1.378 . S
C1904 C1899 1.350 . S
C1905 H1892 0.929 . S
C1905 C1897 1.433 . S
C1905 N1907 1.384 1_565 S
N1906 C1902 1.427 . S
N1906 C1903 1.384 . S
N1907 C1899 1.427 . S
N1907 C1905 1.384 1_545 S
H1908 C1914 0.930 . S
H1909 C1918 0.930 . S
H1910 C1923 0.929 . S
H1911 C1921 0.929 . S
H1912 C1916 0.929 . S
H1913 C1922 0.929 . S
C1914 H1908 0.930 . S
C1914 C1915 1.367 1_655 S
C1914 C1922 1.378 . S
C1915 C1914 1.367 1_455 S
C1915 C1923 1.433 . S
C1916 H1912 0.929 . S
C1916 C1918 1.378 . S
C1916 C1920 1.350 . S
C1917 C1920 1.463 . S
C1917 C1922 1.350 . S
C1917 N1925 1.427 . S
C1918 H1909 0.930 . S
C1918 C1916 1.378 . S
C1918 C1919 1.367 . S
C1919 C1918 1.367 . S
C1919 C1921 1.433 . S
C1920 C1916 1.350 . S
C1920 C1917 1.463 . S
C1920 N1924 1.427 . S
C1921 H1911 0.929 . S
C1921 C1919 1.433 . S
C1921 N1924 1.384 . S
C1922 H1913 0.929 . S
C1922 C1914 1.378 . S
C1922 C1917 1.350 . S
C1923 H1910 0.929 . S
C1923 C1915 1.433 . S
C1923 N1925 1.384 1_455 S
N1924 C1920 1.427 . S
N1924 C1921 1.384 . S
N1925 C1917 1.427 . S
N1925 C1923 1.384 1_655 S
H1926 C1932 0.930 . S
H1927 C1936 0.930 . S
H1928 C1941 0.929 . S
H1929 C1939 0.929 . S
H1930 C1934 0.929 . S
H1931 C1940 0.929 . S
C1932 H1926 0.930 . S
C1932 C1933 1.367 . S
C1932 C1940 1.378 . S
C1933 C1932 1.367 . S
C1933 C1941 1.433 . S
C1934 H1930 0.929 . S
C1934 C1936 1.378 . S
C1934 C1938 1.350 . S
C1935 C1938 1.463 . S
C1935 C1940 1.350 . S
C1935 N1943 1.427 . S
C1936 H1927 0.930 . S
C1936 C1934 1.378 . S
C1936 C1937 1.367 . S
C1937 C1936 1.367 . S
C1937 C1939 1.433 . S
C1938 C1934 1.350 . S
C1938 C1935 1.463 . S
C1938 N1942 1.427 . S
C1939 H1929 0.929 . S
C1939 C1937 1.433 . S
C1939 N1942 1.384 . S
C1940 H1931 0.929 . S
C1940 C1932 1.378 . S
C1940 C1935 1.350 . S
C1941 H1928 0.929 . S
C1941 C1933 1.433 . S
C1941 N1943 1.384 . S
N1942 C1938 1.427 . S
N1942 C1939 1.384 . S
N1943 C1935 1.427 . S
N1943 C1941 1.384 . S
H1944 C1950 0.930 . S
H1945 C1954 0.930 . S
H1946 C1959 0.929 . S
H1947 C1957 0.929 . S
H1948 C1952 0.929 . S
H1949 C1958 0.929 . S
C1950 H1944 0.930 . S
C1950 C1951 1.367 . S
C1950 C1958 1.378 1_455 S
C1951 C1950 1.367 . S
C1951 C1959 1.433 1_455 S
C1952 H1948 0.929 . S
C1952 C1954 1.378 . S
C1952 C1956 1.350 . S
C1953 C1956 1.463 . S
C1953 C1958 1.350 . S
C1953 N1961 1.427 . S
C1954 H1945 0.930 . S
C1954 C1952 1.378 . S
C1954 C1955 1.367 . S
C1955 C1954 1.367 . S
C1955 C1957 1.433 . S
C1956 C1952 1.350 . S
C1956 C1953 1.463 . S
C1956 N1960 1.427 . S
C1957 H1947 0.929 . S
C1957 C1955 1.433 . S
C1957 N1960 1.384 . S
C1958 H1949 0.929 . S
C1958 C1950 1.378 1_655 S
C1958 C1953 1.350 . S
C1959 H1946 0.929 . S
C1959 C1951 1.433 1_655 S
C1959 N1961 1.384 . S
N1960 C1956 1.427 . S
N1960 C1957 1.384 . S
N1961 C1953 1.427 . S
N1961 C1959 1.384 . S
H1962 C1968 0.930 . S
H1963 C1972 0.930 . S
H1964 C1977 0.929 . S
H1965 C1975 0.929 . S
H1966 C1970 0.929 . S
H1967 C1976 0.929 . S
C1968 H1962 0.930 . S
C1968 C1969 1.367 . S
C1968 C1976 1.378 . S
C1969 C1968 1.367 . S
C1969 C1977 1.433 . S
C1970 H1966 0.929 . S
C1970 C1972 1.378 . S
C1970 C1974 1.350 . S
C1971 C1974 1.463 . S
C1971 C1976 1.350 . S
C1971 N1979 1.427 . S
C1972 H1963 0.930 . S
C1972 C1970 1.378 . S
C1972 C1973 1.367 . S
C1973 C1972 1.367 . S
C1973 C1975 1.433 . S
C1974 C1970 1.350 . S
C1974 C1971 1.463 . S
C1974 N1978 1.427 . S
C1975 H1965 0.929 . S
C1975 C1973 1.433 . S
C1975 N1978 1.384 . S
C1976 H1967 0.929 . S
C1976 C1968 1.378 . S
C1976 C1971 1.350 . S
C1977 H1964 0.929 . S
C1977 C1969 1.433 . S
C1977 N1979 1.384 . S
N1978 C1974 1.427 . S
N1978 C1975 1.384 . S
N1979 C1971 1.427 . S
N1979 C1977 1.384 . S
H1980 C1986 0.930 . S
H1981 C1990 0.930 . S
H1982 C1995 0.929 . S
H1983 C1993 0.929 . S
H1984 C1988 0.929 . S
H1985 C1994 0.929 . S
C1986 H1980 0.930 . S
C1986 C1987 1.367 . S
C1986 C1994 1.378 1_565 S
C1987 C1986 1.367 . S
C1987 C1995 1.433 . S
C1988 H1984 0.929 . S
C1988 C1990 1.378 . S
C1988 C1992 1.350 . S
C1989 C1992 1.463 . S
C1989 C1994 1.350 . S
C1989 N1997 1.427 . S
C1990 H1981 0.930 . S
C1990 C1988 1.378 . S
C1990 C1991 1.367 . S
C1991 C1990 1.367 . S
C1991 C1993 1.433 . S
C1992 C1988 1.350 . S
C1992 C1989 1.463 . S
C1992 N1996 1.427 . S
C1993 H1983 0.929 . S
C1993 C1991 1.433 . S
C1993 N1996 1.384 . S
C1994 H1985 0.929 . S
C1994 C1986 1.378 1_545 S
C1994 C1989 1.350 . S
C1995 H1982 0.929 . S
C1995 C1987 1.433 . S
C1995 N1997 1.384 1_565 S
N1996 C1992 1.427 . S
N1996 C1993 1.384 . S
N1997 C1989 1.427 . S
N1997 C1995 1.384 1_545 S
H1998 C2004 0.930 . S
H1999 C2008 0.930 . S
H2000 C2013 0.929 . S
H2001 C2011 0.929 . S
H2002 C2006 0.929 . S
H2003 C2012 0.929 . S
C2004 H1998 0.930 . S
C2004 C2005 1.367 . S
C2004 C2012 1.378 . S
C2005 C2004 1.367 . S
C2005 C2013 1.433 . S
C2006 H2002 0.929 . S
C2006 C2008 1.378 . S
C2006 C2010 1.350 . S
C2007 C2010 1.463 . S
C2007 C2012 1.350 . S
C2007 N2015 1.427 . S
C2008 H1999 0.930 . S
C2008 C2006 1.378 . S
C2008 C2009 1.367 . S
C2009 C2008 1.367 . S
C2009 C2011 1.433 . S
C2010 C2006 1.350 . S
C2010 C2007 1.463 . S
C2010 N2014 1.427 . S
C2011 H2001 0.929 . S
C2011 C2009 1.433 . S
C2011 N2014 1.384 . S
C2012 H2003 0.929 . S
C2012 C2004 1.378 . S
C2012 C2007 1.350 . S
C2013 H2000 0.929 . S
C2013 C2005 1.433 . S
C2013 N2015 1.384 . S
N2014 C2010 1.427 . S
N2014 C2011 1.384 . S
N2015 C2007 1.427 . S
N2015 C2013 1.384 . S
H2016 C2022 0.930 . S
H2017 C2026 0.930 . S
H2018 C2031 0.929 . S
H2019 C2029 0.929 . S
H2020 C2024 0.929 . S
H2021 C2030 0.929 . S
C2022 H2016 0.930 . S
C2022 C2023 1.367 . S
C2022 C2030 1.378 . S
C2023 C2022 1.367 . S
C2023 C2031 1.433 . S
C2024 H2020 0.929 . S
C2024 C2026 1.378 . S
C2024 C2028 1.350 . S
C2025 C2028 1.463 . S
C2025 C2030 1.350 . S
C2025 N2033 1.427 . S
C2026 H2017 0.930 . S
C2026 C2024 1.378 . S
C2026 C2027 1.367 . S
C2027 C2026 1.367 . S
C2027 C2029 1.433 . S
C2028 C2024 1.350 . S
C2028 C2025 1.463 . S
C2028 N2032 1.427 . S
C2029 H2019 0.929 . S
C2029 C2027 1.433 . S
C2029 N2032 1.384 . S
C2030 H2021 0.929 . S
C2030 C2022 1.378 . S
C2030 C2025 1.350 . S
C2031 H2018 0.929 . S
C2031 C2023 1.433 . S
C2031 N2033 1.384 . S
N2032 C2028 1.427 . S
N2032 C2029 1.384 . S
N2033 C2025 1.427 . S
N2033 C2031 1.384 . S
H2034 C2040 0.930 . S
H2035 C2044 0.930 . S
H2036 C2049 0.929 . S
H2037 C2047 0.929 . S
H2038 C2042 0.929 . S
H2039 C2048 0.929 . S
C2040 H2034 0.930 . S
C2040 C2041 1.367 . S
C2040 C2048 1.378 . S
C2041 C2040 1.367 . S
C2041 C2049 1.433 . S
C2042 H2038 0.929 . S
C2042 C2044 1.378 . S
C2042 C2046 1.350 . S
C2043 C2046 1.463 . S
C2043 C2048 1.350 . S
C2043 N2051 1.427 . S
C2044 H2035 0.930 . S
C2044 C2042 1.378 . S
C2044 C2045 1.367 . S
C2045 C2044 1.367 . S
C2045 C2047 1.433 . S
C2046 C2042 1.350 . S
C2046 C2043 1.463 . S
C2046 N2050 1.427 . S
C2047 H2037 0.929 . S
C2047 C2045 1.433 . S
C2047 N2050 1.384 . S
C2048 H2039 0.929 . S
C2048 C2040 1.378 . S
C2048 C2043 1.350 . S
C2049 H2036 0.929 . S
C2049 C2041 1.433 . S
C2049 N2051 1.384 . S
N2050 C2046 1.427 . S
N2050 C2047 1.384 . S
N2051 C2043 1.427 . S
N2051 C2049 1.384 . S
H2052 C2058 0.930 . S
H2053 C2062 0.930 1_545 S
H2054 C2067 0.929 . S
H2055 C2065 0.929 . S
H2056 C2060 0.929 . S
H2057 C2066 0.929 . S
C2058 H2052 0.930 . S
C2058 C2059 1.367 . S
C2058 C2066 1.378 . S
C2059 C2058 1.367 . S
C2059 C2067 1.433 . S
C2060 H2056 0.929 . S
C2060 C2062 1.378 . S
C2060 C2064 1.350 . S
C2061 C2064 1.463 . S
C2061 C2066 1.350 . S
C2061 N2069 1.427 . S
C2062 H2053 0.930 1_565 S
C2062 C2060 1.378 . S
C2062 C2063 1.367 . S
C2063 C2062 1.367 . S
C2063 C2065 1.433 . S
C2064 C2060 1.350 . S
C2064 C2061 1.463 . S
C2064 N2068 1.427 . S
C2065 H2055 0.929 . S
C2065 C2063 1.433 . S
C2065 N2068 1.384 . S
C2066 H2057 0.929 . S
C2066 C2058 1.378 . S
C2066 C2061 1.350 . S
C2067 H2054 0.929 . S
C2067 C2059 1.433 . S
C2067 N2069 1.384 . S
N2068 C2064 1.427 . S
N2068 C2065 1.384 . S
N2069 C2061 1.427 . S
N2069 C2067 1.384 . S
H2070 C2076 0.930 . S
H2071 C2080 0.930 . S
H2072 C2085 0.929 . S
H2073 C2083 0.929 1_655 S
H2074 C2078 0.929 . S
H2075 C2084 0.929 . S
C2076 H2070 0.930 . S
C2076 C2077 1.367 . S
C2076 C2084 1.378 . S
C2077 C2076 1.367 . S
C2077 C2085 1.433 . S
C2078 H2074 0.929 . S
C2078 C2080 1.378 . S
C2078 C2082 1.350 . S
C2079 C2082 1.463 . S
C2079 C2084 1.350 . S
C2079 N2087 1.427 . S
C2080 H2071 0.930 . S
C2080 C2078 1.378 . S
C2080 C2081 1.367 . S
C2081 C2080 1.367 . S
C2081 C2083 1.433 . S
C2082 C2078 1.350 . S
C2082 C2079 1.463 . S
C2082 N2086 1.427 . S
C2083 H2073 0.929 1_455 S
C2083 C2081 1.433 . S
C2083 N2086 1.384 . S
C2084 H2075 0.929 . S
C2084 C2076 1.378 . S
C2084 C2079 1.350 . S
C2085 H2072 0.929 . S
C2085 C2077 1.433 . S
C2085 N2087 1.384 . S
N2086 C2082 1.427 . S
N2086 C2083 1.384 . S
N2087 C2079 1.427 . S
N2087 C2085 1.384 . S
H2088 C2094 0.930 . S
H2089 C2098 0.930 . S
H2090 C2103 0.929 . S
H2091 C2101 0.929 . S
H2092 C2096 0.929 . S
H2093 C2102 0.929 . S
C2094 H2088 0.930 . S
C2094 C2095 1.367 . S
C2094 C2102 1.378 . S
C2095 C2094 1.367 . S
C2095 C2103 1.433 . S
C2096 H2092 0.929 . S
C2096 C2098 1.378 . S
C2096 C2100 1.350 . S
C2097 C2100 1.463 . S
C2097 C2102 1.350 . S
C2097 N2105 1.427 . S
C2098 H2089 0.930 . S
C2098 C2096 1.378 . S
C2098 C2099 1.367 . S
C2099 C2098 1.367 . S
C2099 C2101 1.433 . S
C2100 C2096 1.350 . S
C2100 C2097 1.463 . S
C2100 N2104 1.427 . S
C2101 H2091 0.929 . S
C2101 C2099 1.433 . S
C2101 N2104 1.384 . S
C2102 H2093 0.929 . S
C2102 C2094 1.378 . S
C2102 C2097 1.350 . S
C2103 H2090 0.929 . S
C2103 C2095 1.433 . S
C2103 N2105 1.384 . S
N2104 C2100 1.427 . S
N2104 C2101 1.384 . S
N2105 C2097 1.427 . S
N2105 C2103 1.384 . S
H2106 C2112 0.930 . S
H2107 C2116 0.930 . S
H2108 C2121 0.929 . S
H2109 C2119 0.929 . S
H2110 C2114 0.929 . S
H2111 C2120 0.929 . S
C2112 H2106 0.930 . S
C2112 C2113 1.367 . S
C2112 C2120 1.378 . S
C2113 C2112 1.367 . S
C2113 C2121 1.433 . S
C2114 H2110 0.929 . S
C2114 C2116 1.378 . S
C2114 C2118 1.350 . S
C2115 C2118 1.463 . S
C2115 C2120 1.350 . S
C2115 N2123 1.427 . S
C2116 H2107 0.930 . S
C2116 C2114 1.378 . S
C2116 C2117 1.367 . S
C2117 C2116 1.367 . S
C2117 C2119 1.433 . S
C2118 C2114 1.350 . S
C2118 C2115 1.463 . S
C2118 N2122 1.427 . S
C2119 H2109 0.929 . S
C2119 C2117 1.433 . S
C2119 N2122 1.384 . S
C2120 H2111 0.929 . S
C2120 C2112 1.378 . S
C2120 C2115 1.350 . S
C2121 H2108 0.929 . S
C2121 C2113 1.433 . S
C2121 N2123 1.384 . S
N2122 C2118 1.427 . S
N2122 C2119 1.384 . S
N2123 C2115 1.427 . S
N2123 C2121 1.384 . S
H2124 C2130 0.930 . S
H2125 C2134 0.930 . S
H2126 C2139 0.929 . S
H2127 C2137 0.929 . S
H2128 C2132 0.929 . S
H2129 C2138 0.929 . S
C2130 H2124 0.930 . S
C2130 C2131 1.367 . S
C2130 C2138 1.378 . S
C2131 C2130 1.367 . S
C2131 C2139 1.433 . S
C2132 H2128 0.929 . S
C2132 C2134 1.378 . S
C2132 C2136 1.350 . S
C2133 C2136 1.463 . S
C2133 C2138 1.350 . S
C2133 N2141 1.427 . S
C2134 H2125 0.930 . S
C2134 C2132 1.378 . S
C2134 C2135 1.367 . S
C2135 C2134 1.367 . S
C2135 C2137 1.433 . S
C2136 C2132 1.350 . S
C2136 C2133 1.463 . S
C2136 N2140 1.427 . S
C2137 H2127 0.929 . S
C2137 C2135 1.433 . S
C2137 N2140 1.384 . S
C2138 H2129 0.929 . S
C2138 C2130 1.378 . S
C2138 C2133 1.350 . S
C2139 H2126 0.929 . S
C2139 C2131 1.433 . S
C2139 N2141 1.384 . S
N2140 C2136 1.427 . S
N2140 C2137 1.384 . S
N2141 C2133 1.427 . S
N2141 C2139 1.384 . S
H2142 C2148 0.930 . S
H2143 C2152 0.930 . S
H2144 C2157 0.929 . S
H2145 C2155 0.929 . S
H2146 C2150 0.929 . S
H2147 C2156 0.929 . S
C2148 H2142 0.930 . S
C2148 C2149 1.367 . S
C2148 C2156 1.378 . S
C2149 C2148 1.367 . S
C2149 C2157 1.433 . S
C2150 H2146 0.929 . S
C2150 C2152 1.378 . S
C2150 C2154 1.350 . S
C2151 C2154 1.463 . S
C2151 C2156 1.350 . S
C2151 N2159 1.427 . S
C2152 H2143 0.930 . S
C2152 C2150 1.378 . S
C2152 C2153 1.367 . S
C2153 C2152 1.367 . S
C2153 C2155 1.433 . S
C2154 C2150 1.350 . S
C2154 C2151 1.463 . S
C2154 N2158 1.427 . S
C2155 H2145 0.929 . S
C2155 C2153 1.433 . S
C2155 N2158 1.384 . S
C2156 H2147 0.929 . S
C2156 C2148 1.378 . S
C2156 C2151 1.350 . S
C2157 H2144 0.929 . S
C2157 C2149 1.433 . S
C2157 N2159 1.384 . S
N2158 C2154 1.427 . S
N2158 C2155 1.384 . S
N2159 C2151 1.427 . S
N2159 C2157 1.384 . S
H2160 C2166 0.930 . S
H2161 C2170 0.930 . S
H2162 C2175 0.929 . S
H2163 C2173 0.929 . S
H2164 C2168 0.929 . S
H2165 C2174 0.929 . S
C2166 H2160 0.930 . S
C2166 C2167 1.367 . S
C2166 C2174 1.378 . S
C2167 C2166 1.367 . S
C2167 C2175 1.433 . S
C2168 H2164 0.929 . S
C2168 C2170 1.378 . S
C2168 C2172 1.350 . S
C2169 C2172 1.463 . S
C2169 C2174 1.350 . S
C2169 N2177 1.427 . S
C2170 H2161 0.930 . S
C2170 C2168 1.378 . S
C2170 C2171 1.367 . S
C2171 C2170 1.367 . S
C2171 C2173 1.433 . S
C2172 C2168 1.350 . S
C2172 C2169 1.463 . S
C2172 N2176 1.427 . S
C2173 H2163 0.929 . S
C2173 C2171 1.433 . S
C2173 N2176 1.384 . S
C2174 H2165 0.929 . S
C2174 C2166 1.378 . S
C2174 C2169 1.350 . S
C2175 H2162 0.929 . S
C2175 C2167 1.433 . S
C2175 N2177 1.384 . S
N2176 C2172 1.427 . S
N2176 C2173 1.384 . S
N2177 C2169 1.427 . S
N2177 C2175 1.384 . S
H2178 C2184 0.930 . S
H2179 C2188 0.930 . S
H2180 C2193 0.929 . S
H2181 C2191 0.929 . S
H2182 C2186 0.929 . S
H2183 C2192 0.929 . S
C2184 H2178 0.930 . S
C2184 C2185 1.367 . S
C2184 C2192 1.378 . S
C2185 C2184 1.367 . S
C2185 C2193 1.433 . S
C2186 H2182 0.929 . S
C2186 C2188 1.378 . S
C2186 C2190 1.350 . S
C2187 C2190 1.463 . S
C2187 C2192 1.350 . S
C2187 N2195 1.427 . S
C2188 H2179 0.930 . S
C2188 C2186 1.378 . S
C2188 C2189 1.367 . S
C2189 C2188 1.367 . S
C2189 C2191 1.433 . S
C2190 C2186 1.350 . S
C2190 C2187 1.463 . S
C2190 N2194 1.427 . S
C2191 H2181 0.929 . S
C2191 C2189 1.433 . S
C2191 N2194 1.384 . S
C2192 H2183 0.929 . S
C2192 C2184 1.378 . S
C2192 C2187 1.350 . S
C2193 H2180 0.929 . S
C2193 C2185 1.433 . S
C2193 N2195 1.384 . S
N2194 C2190 1.427 . S
N2194 C2191 1.384 . S
N2195 C2187 1.427 . S
N2195 C2193 1.384 . S
H2196 C2202 0.930 . S
H2197 C2206 0.930 . S
H2198 C2211 0.929 . S
H2199 C2209 0.929 . S
H2200 C2204 0.929 . S
H2201 C2210 0.929 . S
C2202 H2196 0.930 . S
C2202 C2203 1.367 . S
C2202 C2210 1.378 . S
C2203 C2202 1.367 . S
C2203 C2211 1.433 . S
C2204 H2200 0.929 . S
C2204 C2206 1.378 . S
C2204 C2208 1.350 . S
C2205 C2208 1.463 . S
C2205 C2210 1.350 . S
C2205 N2213 1.427 . S
C2206 H2197 0.930 . S
C2206 C2204 1.378 . S
C2206 C2207 1.367 . S
C2207 C2206 1.367 . S
C2207 C2209 1.433 . S
C2208 C2204 1.350 . S
C2208 C2205 1.463 . S
C2208 N2212 1.427 . S
C2209 H2199 0.929 . S
C2209 C2207 1.433 . S
C2209 N2212 1.384 . S
C2210 H2201 0.929 . S
C2210 C2202 1.378 . S
C2210 C2205 1.350 . S
C2211 H2198 0.929 . S
C2211 C2203 1.433 . S
C2211 N2213 1.384 . S
N2212 C2208 1.427 . S
N2212 C2209 1.384 . S
N2213 C2205 1.427 . S
N2213 C2211 1.384 . S
H2214 C2220 0.930 . S
H2215 C2224 0.930 . S
H2216 C2229 0.929 . S
H2217 C2227 0.929 . S
H2218 C2222 0.929 . S
H2219 C2228 0.929 . S
C2220 H2214 0.930 . S
C2220 C2221 1.367 . S
C2220 C2228 1.378 . S
C2221 C2220 1.367 . S
C2221 C2229 1.433 . S
C2222 H2218 0.929 . S
C2222 C2224 1.378 . S
C2222 C2226 1.350 . S
C2223 C2226 1.463 . S
C2223 C2228 1.350 . S
C2223 N2231 1.427 . S
C2224 H2215 0.930 . S
C2224 C2222 1.378 . S
C2224 C2225 1.367 . S
C2225 C2224 1.367 . S
C2225 C2227 1.433 . S
C2226 C2222 1.350 . S
C2226 C2223 1.463 . S
C2226 N2230 1.427 . S
C2227 H2217 0.929 . S
C2227 C2225 1.433 . S
C2227 N2230 1.384 . S
C2228 H2219 0.929 . S
C2228 C2220 1.378 . S
C2228 C2223 1.350 . S
C2229 H2216 0.929 . S
C2229 C2221 1.433 . S
C2229 N2231 1.384 . S
N2230 C2226 1.427 . S
N2230 C2227 1.384 . S
N2231 C2223 1.427 . S
N2231 C2229 1.384 . S
H2232 C2238 0.930 . S
H2233 C2242 0.930 . S
H2234 C2247 0.929 . S
H2235 C2245 0.929 . S
H2236 C2240 0.929 . S
H2237 C2246 0.929 . S
C2238 H2232 0.930 . S
C2238 C2239 1.367 . S
C2238 C2246 1.378 . S
C2239 C2238 1.367 . S
C2239 C2247 1.433 . S
C2240 H2236 0.929 . S
C2240 C2242 1.378 . S
C2240 C2244 1.350 . S
C2241 C2244 1.463 . S
C2241 C2246 1.350 . S
C2241 N2249 1.427 . S
C2242 H2233 0.930 . S
C2242 C2240 1.378 . S
C2242 C2243 1.367 . S
C2243 C2242 1.367 . S
C2243 C2245 1.433 . S
C2244 C2240 1.350 . S
C2244 C2241 1.463 . S
C2244 N2248 1.427 . S
C2245 H2235 0.929 . S
C2245 C2243 1.433 . S
C2245 N2248 1.384 . S
C2246 H2237 0.929 . S
C2246 C2238 1.378 . S
C2246 C2241 1.350 . S
C2247 H2234 0.929 . S
C2247 C2239 1.433 . S
C2247 N2249 1.384 . S
N2248 C2244 1.427 . S
N2248 C2245 1.384 . S
N2249 C2241 1.427 . S
N2249 C2247 1.384 . S
H2250 C2256 0.930 . S
H2251 C2260 0.930 . S
H2252 C2265 0.929 . S
H2253 C2263 0.929 . S
H2254 C2258 0.929 . S
H2255 C2264 0.929 . S
C2256 H2250 0.930 . S
C2256 C2257 1.367 . S
C2256 C2264 1.378 . S
C2257 C2256 1.367 . S
C2257 C2265 1.433 . S
C2258 H2254 0.929 . S
C2258 C2260 1.378 . S
C2258 C2262 1.350 . S
C2259 C2262 1.463 . S
C2259 C2264 1.350 . S
C2259 N2267 1.427 . S
C2260 H2251 0.930 . S
C2260 C2258 1.378 . S
C2260 C2261 1.367 . S
C2261 C2260 1.367 . S
C2261 C2263 1.433 . S
C2262 C2258 1.350 . S
C2262 C2259 1.463 . S
C2262 N2266 1.427 . S
C2263 H2253 0.929 . S
C2263 C2261 1.433 . S
C2263 N2266 1.384 . S
C2264 H2255 0.929 . S
C2264 C2256 1.378 . S
C2264 C2259 1.350 . S
C2265 H2252 0.929 . S
C2265 C2257 1.433 . S
C2265 N2267 1.384 . S
N2266 C2262 1.427 . S
N2266 C2263 1.384 . S
N2267 C2259 1.427 . S
N2267 C2265 1.384 . S
H2268 C2274 0.930 . S
H2269 C2278 0.930 . S
H2270 C2283 0.929 . S
H2271 C2281 0.929 . S
H2272 C2276 0.929 . S
H2273 C2282 0.929 . S
C2274 H2268 0.930 . S
C2274 C2275 1.367 . S
C2274 C2282 1.378 . S
C2275 C2274 1.367 . S
C2275 C2283 1.433 . S
C2276 H2272 0.929 . S
C2276 C2278 1.378 . S
C2276 C2280 1.350 . S
C2277 C2280 1.463 . S
C2277 C2282 1.350 . S
C2277 N2285 1.427 . S
C2278 H2269 0.930 . S
C2278 C2276 1.378 . S
C2278 C2279 1.367 . S
C2279 C2278 1.367 . S
C2279 C2281 1.433 . S
C2280 C2276 1.350 . S
C2280 C2277 1.463 . S
C2280 N2284 1.427 . S
C2281 H2271 0.929 . S
C2281 C2279 1.433 . S
C2281 N2284 1.384 . S
C2282 H2273 0.929 . S
C2282 C2274 1.378 . S
C2282 C2277 1.350 . S
C2283 H2270 0.929 . S
C2283 C2275 1.433 . S
C2283 N2285 1.384 . S
N2284 C2280 1.427 . S
N2284 C2281 1.384 . S
N2285 C2277 1.427 . S
N2285 C2283 1.384 . S
H2286 C2292 0.930 . S
H2287 C2296 0.930 . S
H2288 C2301 0.929 . S
H2289 C2299 0.929 . S
H2290 C2294 0.929 . S
H2291 C2300 0.929 . S
C2292 H2286 0.930 . S
C2292 C2293 1.367 . S
C2292 C2300 1.378 . S
C2293 C2292 1.367 . S
C2293 C2301 1.433 . S
C2294 H2290 0.929 . S
C2294 C2296 1.378 . S
C2294 C2298 1.350 . S
C2295 C2298 1.463 . S
C2295 C2300 1.350 . S
C2295 N2303 1.427 . S
C2296 H2287 0.930 . S
C2296 C2294 1.378 . S
C2296 C2297 1.367 . S
C2297 C2296 1.367 . S
C2297 C2299 1.433 . S
C2298 C2294 1.350 . S
C2298 C2295 1.463 . S
C2298 N2302 1.427 . S
C2299 H2289 0.929 . S
C2299 C2297 1.433 . S
C2299 N2302 1.384 . S
C2300 H2291 0.929 . S
C2300 C2292 1.378 . S
C2300 C2295 1.350 . S
C2301 H2288 0.929 . S
C2301 C2293 1.433 . S
C2301 N2303 1.384 . S
N2302 C2298 1.427 . S
N2302 C2299 1.384 . S
N2303 C2295 1.427 . S
N2303 C2301 1.384 . S
H2304 C2310 0.930 . S
H2305 C2314 0.930 . S
H2306 C2319 0.929 . S
H2307 C2317 0.929 . S
H2308 C2312 0.929 . S
H2309 C2318 0.929 . S
C2310 H2304 0.930 . S
C2310 C2311 1.367 . S
C2310 C2318 1.378 . S
C2311 C2310 1.367 . S
C2311 C2319 1.433 . S
C2312 H2308 0.929 . S
C2312 C2314 1.378 . S
C2312 C2316 1.350 . S
C2313 C2316 1.463 . S
C2313 C2318 1.350 . S
C2313 N2321 1.427 . S
C2314 H2305 0.930 . S
C2314 C2312 1.378 . S
C2314 C2315 1.367 . S
C2315 C2314 1.367 . S
C2315 C2317 1.433 . S
C2316 C2312 1.350 . S
C2316 C2313 1.463 . S
C2316 N2320 1.427 . S
C2317 H2307 0.929 . S
C2317 C2315 1.433 . S
C2317 N2320 1.384 . S
C2318 H2309 0.929 . S
C2318 C2310 1.378 . S
C2318 C2313 1.350 . S
C2319 H2306 0.929 . S
C2319 C2311 1.433 . S
C2319 N2321 1.384 . S
N2320 C2316 1.427 . S
N2320 C2317 1.384 . S
N2321 C2313 1.427 . S
N2321 C2319 1.384 . S
H2322 C2328 0.930 . S
H2323 C2332 0.930 . S
H2324 C2337 0.929 . S
H2325 C2335 0.929 . S
H2326 C2330 0.929 . S
H2327 C2336 0.929 . S
C2328 H2322 0.930 . S
C2328 C2329 1.367 . S
C2328 C2336 1.378 . S
C2329 C2328 1.367 . S
C2329 C2337 1.433 . S
C2330 H2326 0.929 . S
C2330 C2332 1.378 . S
C2330 C2334 1.350 . S
C2331 C2334 1.463 . S
C2331 C2336 1.350 . S
C2331 N2339 1.427 . S
C2332 H2323 0.930 . S
C2332 C2330 1.378 . S
C2332 C2333 1.367 . S
C2333 C2332 1.367 . S
C2333 C2335 1.433 . S
C2334 C2330 1.350 . S
C2334 C2331 1.463 . S
C2334 N2338 1.427 . S
C2335 H2325 0.929 . S
C2335 C2333 1.433 . S
C2335 N2338 1.384 . S
C2336 H2327 0.929 . S
C2336 C2328 1.378 . S
C2336 C2331 1.350 . S
C2337 H2324 0.929 . S
C2337 C2329 1.433 . S
C2337 N2339 1.384 . S
N2338 C2334 1.427 . S
N2338 C2335 1.384 . S
N2339 C2331 1.427 . S
N2339 C2337 1.384 . S
H2340 C2346 0.930 . S
H2341 C2350 0.930 . S
H2342 C2355 0.929 . S
H2343 C2353 0.929 . S
H2344 C2348 0.929 . S
H2345 C2354 0.929 . S
C2346 H2340 0.930 . S
C2346 C2347 1.367 . S
C2346 C2354 1.378 . S
C2347 C2346 1.367 . S
C2347 C2355 1.433 . S
C2348 H2344 0.929 . S
C2348 C2350 1.378 . S
C2348 C2352 1.350 . S
C2349 C2352 1.463 . S
C2349 C2354 1.350 . S
C2349 N2357 1.427 . S
C2350 H2341 0.930 . S
C2350 C2348 1.378 . S
C2350 C2351 1.367 . S
C2351 C2350 1.367 . S
C2351 C2353 1.433 . S
C2352 C2348 1.350 . S
C2352 C2349 1.463 . S
C2352 N2356 1.427 . S
C2353 H2343 0.929 . S
C2353 C2351 1.433 . S
C2353 N2356 1.384 . S
C2354 H2345 0.929 . S
C2354 C2346 1.378 . S
C2354 C2349 1.350 . S
C2355 H2342 0.929 . S
C2355 C2347 1.433 . S
C2355 N2357 1.384 . S
N2356 C2352 1.427 . S
N2356 C2353 1.384 . S
N2357 C2349 1.427 . S
N2357 C2355 1.384 . S
H2358 C2364 0.930 . S
H2359 C2368 0.930 . S
H2360 C2373 0.929 . S
H2361 C2371 0.929 . S
H2362 C2366 0.929 . S
H2363 C2372 0.929 . S
C2364 H2358 0.930 . S
C2364 C2365 1.367 . S
C2364 C2372 1.378 . S
C2365 C2364 1.367 . S
C2365 C2373 1.433 . S
C2366 H2362 0.929 . S
C2366 C2368 1.378 . S
C2366 C2370 1.350 . S
C2367 C2370 1.463 . S
C2367 C2372 1.350 . S
C2367 N2375 1.427 . S
C2368 H2359 0.930 . S
C2368 C2366 1.378 . S
C2368 C2369 1.367 . S
C2369 C2368 1.367 . S
C2369 C2371 1.433 . S
C2370 C2366 1.350 . S
C2370 C2367 1.463 . S
C2370 N2374 1.427 . S
C2371 H2361 0.929 . S
C2371 C2369 1.433 . S
C2371 N2374 1.384 . S
C2372 H2363 0.929 . S
C2372 C2364 1.378 . S
C2372 C2367 1.350 . S
C2373 H2360 0.929 . S
C2373 C2365 1.433 . S
C2373 N2375 1.384 . S
N2374 C2370 1.427 . S
N2374 C2371 1.384 . S
N2375 C2367 1.427 . S
N2375 C2373 1.384 . S
C1411 C469 1.446 . S
C1415 C704 1.356 . S
C1429 C505 1.467 . S
C1433 C788 1.384 . S
C1447 C433 1.482 . S
C1451 C882 1.437 . S
C1465 C397 1.437 . S
C1469 C798 1.387 . S
C1487 C872 1.336 . S
C1483 C325 1.408 . S
C1501 C361 1.421 . S
C1505 C714 1.370 . S
C1523 C715 1.376 . S
C1519 C421 1.445 . S
C1541 C799 1.397 . S
C1537 C349 1.465 . S
C1555 C385 1.476 . S
C1559 C891 1.428 . S
C1573 C493 1.435 . S
C1577 C807 1.388 . S
C1591 C529 1.407 . S
C1595 C883 1.324 . S
C1613 C723 1.381 . S
C1609 C457 1.422 . S
C1631 C956 1.366 . S
C1627 C37 1.448 . S
C1645 C73 1.467 . S
C1649 C1040 1.397 . S
C1663 C1 1.481 . S
C1667 C1134 1.431 . S
C1681 C613 1.439 . S
C1685 C1050 1.401 . S
C1699 C541 1.406 . S
C1703 C1124 1.320 . S
C1717 C577 1.421 . S
C1721 C966 1.373 . S
C1735 C637 1.446 . S
C1739 C967 1.366 . S
C1753 C565 1.467 . S
C1757 C1051 1.384 . S
C1775 C1143 1.432 . S
C1771 C601 1.481 . S
C1789 C61 1.435 . S
C1793 C1059 1.395 . S
C1811 C1135 1.322 . S
C1807 C97 1.407 . S
C1825 C25 1.422 . S
C1829 C975 1.369 . S
C1847 C1208 1.359 . S
C1843 C253 1.448 . S
C1861 C289 1.467 . S
C1865 C1292 1.383 . S
C1883 C1386 1.425 . S
C1879 C217 1.479 . S
C1901 C1302 1.387 . S
C1897 C181 1.437 . S
C1919 C1376 1.338 . S
C1915 C109 1.407 . S
C1933 C145 1.421 . S
C1937 C1218 1.371 . S
C1951 C205 1.448 . S
C1955 C1219 1.363 . S
C1969 C133 1.464 . S
C1973 C1303 1.402 . S
C1991 C1395 1.428 . S
C1987 C169 1.481 . S
C2005 C277 1.438 . S
C2009 C1311 1.394 . S
C2023 C313 1.406 . S
C2027 C1387 1.330 . S
C2041 C241 1.422 . S
C2045 C1227 1.372 . S
C2059 C571 1.450 . S
C2063 C711 1.330 . S
C2081 C795 1.373 . S
C2077 C607 1.506 . S
C2095 C643 1.476 . S
C2099 C888 1.346 . S
C2113 C247 1.508 . S
C2117 C804 1.360 . S
C2131 C283 1.477 . S
C2135 C879 1.332 . S
C2153 C720 1.343 . S
C2149 C319 1.449 . S
C2167 C139 1.450 . S
C2171 C963 1.332 . S
C2185 C175 1.507 . S
C2189 C1047 1.373 . S
C2203 C211 1.476 . S
C2207 C1140 1.347 . S
C2221 C463 1.507 . S
C2225 C1056 1.360 . S
C2243 C1131 1.356 . S
C2239 C499 1.474 . S
C2257 C535 1.450 . S
C2261 C972 1.327 . S
C2275 C355 1.450 . S
C2279 C1215 1.333 . S
C2293 C391 1.508 . S
C2297 C1299 1.350 . S
C2315 C1392 1.341 . S
C2311 C427 1.474 . S
C2329 C31 1.508 . S
C2333 C1308 1.364 . S
C2347 C67 1.474 . S
C2351 C1383 1.356 . S
C2365 C103 1.446 . S
C2369 C1224 1.347 . S
