# Generated by pormake.
# Topology nom, (4,4)-cn, num edge types: 1
# Building blocks:
#     Node 0, Type 0, BuildingBlock: MIFKUJ_clean_linker_1, # of connection points: 4
#     Node 1, Type 0, BuildingBlock: MIFKUJ_clean_linker_1, # of connection points: 4
#     Node 2, Type 0, BuildingBlock: MIFKUJ_clean_linker_1, # of connection points: 4
#     Node 3, Type 0, BuildingBlock: MIFKUJ_clean_linker_1, # of connection points: 4
#     Node 4, Type 0, BuildingBlock: MIFKUJ_clean_linker_1, # of connection points: 4
#     Node 5, Type 0, BuildingBlock: MIFKUJ_clean_linker_1, # of connection points: 4
#     Node 6, Type 1, BuildingBlock: NAHDIM_clean_sbu_0, # of connection points: 4
#     Node 7, Type 1, BuildingBlock: NAHDIM_clean_sbu_0, # of connection points: 4
#     Node 8, Type 1, BuildingBlock: NAHDIM_clean_sbu_0, # of connection points: 4
#     Node 9, Type 1, BuildingBlock: NAHDIM_clean_sbu_0, # of connection points: 4
#     Node 10, Type 1, BuildingBlock: NAHDIM_clean_sbu_0, # of connection points: 4
#     Node 11, Type 1, BuildingBlock: NAHDIM_clean_sbu_0, # of connection points: 4
#     Edge 12, Type (0, 1), BuildingBlock: CIFDUS_clean_linker_0, # of connection points: 2
#     Edge 13, Type (0, 1), BuildingBlock: CIFDUS_clean_linker_0, # of connection points: 2
#     Edge 14, Type (0, 1), BuildingBlock: CIFDUS_clean_linker_0, # of connection points: 2
#     Edge 15, Type (0, 1), BuildingBlock: CIFDUS_clean_linker_0, # of connection points: 2
#     Edge 16, Type (0, 1), BuildingBlock: CIFDUS_clean_linker_0, # of connection points: 2
#     Edge 17, Type (0, 1), BuildingBlock: CIFDUS_clean_linker_0, # of connection points: 2
#     Edge 18, Type (0, 1), BuildingBlock: CIFDUS_clean_linker_0, # of connection points: 2
#     Edge 19, Type (0, 1), BuildingBlock: CIFDUS_clean_linker_0, # of connection points: 2
#     Edge 20, Type (0, 1), BuildingBlock: CIFDUS_clean_linker_0, # of connection points: 2
#     Edge 21, Type (0, 1), BuildingBlock: CIFDUS_clean_linker_0, # of connection points: 2
#     Edge 22, Type (0, 1), BuildingBlock: CIFDUS_clean_linker_0, # of connection points: 2
#     Edge 23, Type (0, 1), BuildingBlock: CIFDUS_clean_linker_0, # of connection points: 2
#     Edge 24, Type (0, 1), BuildingBlock: CIFDUS_clean_linker_0, # of connection points: 2
#     Edge 25, Type (0, 1), BuildingBlock: CIFDUS_clean_linker_0, # of connection points: 2
#     Edge 26, Type (0, 1), BuildingBlock: CIFDUS_clean_linker_0, # of connection points: 2
#     Edge 27, Type (0, 1), BuildingBlock: CIFDUS_clean_linker_0, # of connection points: 2
#     Edge 28, Type (0, 1), BuildingBlock: CIFDUS_clean_linker_0, # of connection points: 2
#     Edge 29, Type (0, 1), BuildingBlock: CIFDUS_clean_linker_0, # of connection points: 2
#     Edge 30, Type (0, 1), BuildingBlock: CIFDUS_clean_linker_0, # of connection points: 2
#     Edge 31, Type (0, 1), BuildingBlock: CIFDUS_clean_linker_0, # of connection points: 2
#     Edge 32, Type (0, 1), BuildingBlock: CIFDUS_clean_linker_0, # of connection points: 2
#     Edge 33, Type (0, 1), BuildingBlock: CIFDUS_clean_linker_0, # of connection points: 2
#     Edge 34, Type (0, 1), BuildingBlock: CIFDUS_clean_linker_0, # of connection points: 2
#     Edge 35, Type (0, 1), BuildingBlock: CIFDUS_clean_linker_0, # of connection points: 2
# Relax obj value: 0.020
# Max RMSD: 0.118
# Mean RMSD: 0.105
data_MOF--net-nom--node1-NAHDIM_clean_sbu_0--node2-MIFKUJ_clean_linker_1--edge1-CIFDUS_clean_linker_0
_symmetry_space_group_name_H-M    P1
_symmetry_Int_Tables_number       1
_symmetry_cell_setting            triclinic
loop_
_symmetry_equiv_pos_as_xyz
'x, y, z'
_cell_length_a     47.203972
_cell_length_b     48.601943
_cell_length_c     50.600352
_cell_angle_alpha  90.060455
_cell_angle_beta   90.599319
_cell_angle_gamma 121.01259
loop_
_atom_site_label
_atom_site_type_symbol
_atom_site_fract_x
_atom_site_fract_y
_atom_site_fract_z
_atom_type_partial_charge
H0 H 0.96927 0.45536 0.2772 0.0
H1 H 0.927 0.4277 0.24279 0.0
H2 H 0.89532 0.49604 0.25293 0.0
H3 H 0.93793 0.52376 0.28752 0.0
H4 H 0.02183 0.52592 0.2795 0.0
H5 H 0.91329 0.44821 0.32164 0.0
H6 H 0.85763 0.43498 0.33347 0.0
H7 H 0.8992 0.52386 0.37792 0.0
H8 H 0.95417 0.53802 0.36417 0.0
H9 H 0.03761 0.56087 0.39312 0.0
H10 H 0.07548 0.56963 0.42977 0.0
H11 H 0.11581 0.52179 0.38557 0.0
H12 H 0.07711 0.51217 0.34926 0.0
H13 H 0.98938 0.51087 0.37364 0.0
H14 H 0.08224 0.59408 0.34107 0.0
H15 H 0.1388 0.63221 0.32812 0.0
H16 H 0.13188 0.56654 0.26736 0.0
H17 H 0.07533 0.52759 0.28101 0.0
C18 C 0.95655 0.49145 0.28492 0.0
C19 C 0.95333 0.46449 0.2719 0.0
C20 C 0.92904 0.44858 0.25242 0.0
C21 C 0.90772 0.45957 0.24536 0.0
C22 C 0.9115 0.48713 0.25796 0.0
C23 C 0.93571 0.50292 0.27769 0.0
C24 C 0.98127 0.50654 0.30654 0.0
C25 C 0.01491 0.5224 0.30013 0.0
C26 C 0.97209 0.50445 0.33332 0.0
C27 C 0.93798 0.49448 0.34148 0.0
C28 C 0.91034 0.46508 0.33352 0.0
C29 C 0.87849 0.45732 0.34069 0.0
C30 C 0.87373 0.47849 0.35649 0.0
C31 C 0.90165 0.50732 0.36516 0.0
C32 C 0.93326 0.51528 0.35759 0.0
C33 C 0.05453 0.53593 0.36838 0.0
C34 C 0.05458 0.55224 0.39131 0.0
C35 C 0.07645 0.55747 0.41216 0.0
C36 C 0.09868 0.54641 0.41057 0.0
C37 C 0.09878 0.53032 0.3875 0.0
C38 C 0.07691 0.52512 0.36663 0.0
C39 C 0.03013 0.52885 0.34674 0.0
C40 C 0.99661 0.51448 0.35307 0.0
C41 C 0.03959 0.53512 0.31994 0.0
C42 C 0.07455 0.55753 0.31242 0.0
C43 C 0.09302 0.58737 0.32539 0.0
C44 C 0.12533 0.60931 0.31788 0.0
C45 C 0.13971 0.60225 0.29682 0.0
C46 C 0.12126 0.57259 0.2836 0.0
C47 C 0.089 0.55035 0.29141 0.0
H48 H 0.42901 0.94902 0.53683 0.0
H49 H 0.4025 0.89539 0.55546 0.0
H50 H 0.46714 0.87515 0.51047 0.0
H51 H 0.49477 0.92975 0.49277 0.0
H52 H 0.49089 0.9963 0.54255 0.0
H53 H 0.42006 0.9338 0.46759 0.0
H54 H 0.40063 0.89118 0.4343 0.0
H55 H 0.5001 0.93384 0.40477 0.0
H56 H 0.51909 0.97679 0.43778 0.0
H57 H 0.55149 0.07765 0.449 0.0
H58 H 0.56787 0.13255 0.4359 0.0
H59 H 0.49787 0.13156 0.49063 0.0
H60 H 0.4806 0.07657 0.50287 0.0
H61 H 0.49725 0.02114 0.44698 0.0
H62 H 0.56665 0.0878 0.51834 0.0
H63 H 0.58729 0.12827 0.55374 0.0
H64 H 0.49268 0.07571 0.59209 0.0
H65 H 0.47202 0.0359 0.55646 0.0
C66 C 0.46371 0.94335 0.51324 0.0
C67 C 0.43757 0.93308 0.531 0.0
C68 C 0.42222 0.90228 0.54147 0.0
C69 C 0.43252 0.88086 0.53433 0.0
C70 C 0.45879 0.89115 0.51654 0.0
C71 C 0.47434 0.9222 0.50615 0.0
C72 C 0.48015 0.97664 0.50312 0.0
C73 C 0.49205 0.00174 0.52165 0.0
C74 C 0.48306 0.98381 0.47582 0.0
C75 C 0.47106 0.9583 0.45528 0.0
C76 C 0.43765 0.93391 0.45394 0.0
C77 C 0.42664 0.90946 0.43497 0.0
C78 C 0.44882 0.90889 0.4169 0.0
C79 C 0.48224 0.93367 0.41813 0.0
C80 C 0.49319 0.95819 0.43705 0.0
C81 C 0.51543 0.07325 0.47744 0.0
C82 C 0.5394 0.08912 0.45793 0.0
C83 C 0.5487 0.12038 0.45044 0.0
C84 C 0.53434 0.13624 0.46252 0.0
C85 C 0.50962 0.11996 0.48134 0.0
C86 C 0.49994 0.08864 0.48845 0.0
C87 C 0.50646 0.04072 0.48657 0.0
C88 C 0.49638 0.01583 0.46787 0.0
C89 C 0.50533 0.03364 0.51382 0.0
C90 C 0.51775 0.05887 0.5347 0.0
C91 C 0.55028 0.08522 0.53424 0.0
C92 C 0.56211 0.10817 0.55458 0.0
C93 C 0.54161 0.10518 0.57571 0.0
C94 C 0.50897 0.07893 0.57594 0.0
C95 C 0.49721 0.05599 0.5557 0.0
H96 H 0.53648 0.56012 0.69965 0.0
H97 H 0.52506 0.5852 0.73673 0.0
H98 H 0.42074 0.5293 0.71786 0.0
H99 H 0.43218 0.50374 0.68119 0.0
H100 H 0.51525 0.49638 0.68923 0.0
H101 H 0.4976 0.58058 0.64054 0.0
H102 H 0.45975 0.59994 0.62993 0.0
H103 H 0.38202 0.50272 0.61236 0.0
H104 H 0.41992 0.48369 0.62231 0.0
H105 H 0.47872 0.45477 0.57907 0.0
H106 H 0.50194 0.44359 0.5402 0.0
H107 H 0.60005 0.50173 0.57364 0.0
H108 H 0.57675 0.51255 0.61261 0.0
H109 H 0.48804 0.51046 0.59714 0.0
H110 H 0.49481 0.427 0.62769 0.0
H111 H 0.51326 0.38955 0.63707 0.0
H112 H 0.58567 0.45718 0.69276 0.0
H113 H 0.5679 0.49549 0.6826 0.0
C114 C 0.48528 0.53048 0.6873 0.0
C115 C 0.51112 0.55312 0.70358 0.0
C116 C 0.50458 0.56742 0.72477 0.0
C117 C 0.47204 0.55941 0.73005 0.0
C118 C 0.44612 0.53637 0.71397 0.0
C119 C 0.45265 0.52182 0.69295 0.0
C120 C 0.49288 0.51621 0.66447 0.0
C121 C 0.50995 0.49999 0.66905 0.0
C122 C 0.48347 0.51844 0.63829 0.0
C123 C 0.46139 0.53076 0.63222 0.0
C124 C 0.47243 0.56358 0.63431 0.0
C125 C 0.45093 0.57455 0.62822 0.0
C126 C 0.41807 0.55271 0.62045 0.0
C127 C 0.40718 0.51992 0.61848 0.0
C128 C 0.42877 0.50909 0.62405 0.0
C129 C 0.52601 0.48441 0.59874 0.0
C130 C 0.5052 0.46496 0.57808 0.0
C131 C 0.51844 0.45848 0.55599 0.0
C132 C 0.55276 0.47188 0.55397 0.0
C133 C 0.57353 0.49128 0.57469 0.0
C134 C 0.56024 0.4973 0.59696 0.0
C135 C 0.51231 0.49243 0.62176 0.0
C136 C 0.49396 0.50726 0.61725 0.0
C137 C 0.51854 0.48683 0.64804 0.0
C138 C 0.53053 0.46453 0.65388 0.0
C139 C 0.51521 0.43425 0.64146 0.0
C140 C 0.52559 0.4127 0.64697 0.0
C141 C 0.55103 0.42059 0.66548 0.0
C142 C 0.56594 0.45054 0.67843 0.0
C143 C 0.55584 0.47241 0.6726 0.0
H144 H 0.03706 0.55135 0.77768 0.0
H145 H 0.07664 0.57494 0.74191 0.0
H146 H 0.11296 0.51149 0.75987 0.0
H147 H 0.07355 0.48842 0.79614 0.0
H148 H 0.98717 0.48628 0.78266 0.0
H149 H 0.0905 0.56479 0.82931 0.0
H150 H 0.14726 0.58553 0.84512 0.0
H151 H 0.11634 0.495 0.88319 0.0
H152 H 0.0599 0.47427 0.86709 0.0
H153 H 0.96043 0.43384 0.88806 0.0
H154 H 0.91856 0.4198 0.92229 0.0
H155 H 0.89918 0.49163 0.89217 0.0
H156 H 0.94024 0.50495 0.85757 0.0
H157 H 0.01821 0.49499 0.87762 0.0
H158 H 0.92642 0.41352 0.83602 0.0
H159 H 0.86893 0.37926 0.82223 0.0
H160 H 0.87582 0.45631 0.77477 0.0
H161 H 0.93378 0.49078 0.78881 0.0
C162 C 0.05246 0.51825 0.78959 0.0
C163 C 0.05361 0.54258 0.77393 0.0
C164 C 0.07614 0.55591 0.7534 0.0
C165 C 0.09784 0.54496 0.74787 0.0
C166 C 0.09685 0.52072 0.76377 0.0
C167 C 0.0743 0.50744 0.78444 0.0
C168 C 0.02759 0.50384 0.81073 0.0
C169 C 0.99403 0.48864 0.80343 0.0
C170 C 0.0364 0.50482 0.83771 0.0
C171 C 0.07101 0.51784 0.84677 0.0
C172 C 0.09604 0.54929 0.84077 0.0
C173 C 0.12842 0.56113 0.84985 0.0
C174 C 0.13618 0.54187 0.86542 0.0
C175 C 0.11102 0.51051 0.87151 0.0
C176 C 0.0788 0.49862 0.86226 0.0
C177 C 0.95328 0.47035 0.87033 0.0
C178 C 0.94708 0.44646 0.88884 0.0
C179 C 0.92318 0.4384 0.90822 0.0
C180 C 0.90585 0.45472 0.90972 0.0
C181 C 0.91236 0.47884 0.89137 0.0
C182 C 0.93568 0.48638 0.87166 0.0
C183 C 0.97819 0.47891 0.84951 0.0
C184 C 0.01152 0.49282 0.85682 0.0
C185 C 0.96922 0.47521 0.82248 0.0
C186 C 0.93422 0.45493 0.81386 0.0
C187 C 0.91548 0.42326 0.82295 0.0
C188 C 0.8826 0.40366 0.81502 0.0
C189 C 0.86775 0.41518 0.79762 0.0
C190 C 0.88667 0.44674 0.78811 0.0
C191 C 0.9197 0.46646 0.79616 0.0
H192 H 0.58764 0.06888 0.02861 0.0
H193 H 0.62327 0.12368 0.04476 0.0
H194 H 0.5573 0.15056 0.00933 0.0
H195 H 0.52083 0.09515 0.99439 0.0
H196 H 0.52596 0.02586 0.04031 0.0
H197 H 0.58268 0.08219 0.95978 0.0
H198 H 0.59847 0.12124 0.92413 0.0
H199 H 0.49533 0.08272 0.90472 0.0
H200 H 0.47974 0.04441 0.94087 0.0
H201 H 0.4354 0.94401 0.95608 0.0
H202 H 0.41174 0.8889 0.9394 0.0
H203 H 0.49199 0.88404 0.97626 0.0
H204 H 0.5156 0.939 0.99261 0.0
H205 H 0.49508 0.99721 0.94597 0.0
H206 H 0.43628 0.94169 0.02202 0.0
H207 H 0.41528 0.90212 0.05757 0.0
H208 H 0.51524 0.93802 0.08534 0.0
H209 H 0.53614 0.97745 0.04964 0.0
C210 C 0.5517 0.07792 0.01006 0.0
C211 C 0.58075 0.08654 0.02443 0.0
C212 C 0.6013 0.118 0.03344 0.0
C213 C 0.59331 0.14164 0.02822 0.0
C214 C 0.56407 0.13291 0.01392 0.0
C215 C 0.54337 0.10131 0.00507 0.0
C216 C 0.53011 0.04422 1.00088 0.0
C217 C 0.51954 0.01964 0.01963 0.0
C218 C 0.52016 0.03606 0.9741 0.0
C219 C 0.53002 0.06057 0.95314 0.0
C220 C 0.56349 0.08247 0.94808 0.0
C221 C 0.57246 0.10458 0.92754 0.0
C222 C 0.54814 0.10508 0.91155 0.0
C223 C 0.51466 0.08328 0.91685 0.0
C224 C 0.50571 0.06119 0.93737 0.0
C225 C 0.47705 0.94545 0.97579 0.0
C226 C 0.44781 0.931 0.96057 0.0
C227 C 0.43429 0.89954 0.95116 0.0
C228 C 0.4501 0.88225 0.95648 0.0
C229 C 0.47946 0.89689 0.97162 0.0
C230 C 0.49277 0.92816 0.9812 0.0
C231 C 0.49217 0.97906 0.98527 0.0
C232 C 0.50134 0.00353 0.96667 0.0
C233 C 0.50028 0.98721 0.01222 0.0
C234 C 0.48779 0.96242 0.03312 0.0
C235 C 0.45369 0.94083 0.03561 0.0
C236 C 0.4417 0.91841 0.05602 0.0
C237 C 0.46362 0.91702 0.07422 0.0
C238 C 0.49779 0.93836 0.07146 0.0
C239 C 0.50975 0.961 0.0512 0.0
H240 H 0.47967 0.46597 0.19862 0.0
H241 H 0.49415 0.4408 0.23378 0.0
H242 H 0.59621 0.49424 0.20956 0.0
H243 H 0.58181 0.52053 0.17542 0.0
H244 H 0.50026 0.52876 0.19154 0.0
H245 H 0.51197 0.44768 0.14196 0.0
H246 H 0.54403 0.42367 0.1278 0.0
H247 H 0.61812 0.51495 0.09578 0.0
H248 H 0.58599 0.53863 0.10981 0.0
H249 H 0.54123 0.58566 0.08786 0.0
H250 H 0.52264 0.60529 0.05097 0.0
H251 H 0.42207 0.54864 0.07792 0.0
H252 H 0.44081 0.52907 0.11484 0.0
H253 H 0.52431 0.52462 0.09692 0.0
H254 H 0.52442 0.60769 0.14299 0.0
H255 H 0.50669 0.64346 0.15985 0.0
H256 H 0.42668 0.56398 0.201 0.0
H257 H 0.44412 0.52804 0.18351 0.0
C258 C 0.52955 0.49488 0.18417 0.0
C259 C 0.50518 0.47231 0.20096 0.0
C260 C 0.51346 0.45769 0.22089 0.0
C261 C 0.54635 0.46536 0.22449 0.0
C262 C 0.57071 0.48799 0.20759 0.0
C263 C 0.56244 0.50279 0.18781 0.0
C264 C 0.52053 0.51056 0.16328 0.0
C265 C 0.50491 0.52731 0.17078 0.0
C266 C 0.52839 0.51033 0.13637 0.0
C267 C 0.54675 0.49501 0.12713 0.0
C268 C 0.53513 0.46246 0.1319 0.0
C269 C 0.55348 0.44881 0.12383 0.0
C270 C 0.58363 0.46742 0.11068 0.0
C271 C 0.59479 0.49983 0.10551 0.0
C272 C 0.57651 0.51344 0.11361 0.0
C273 C 0.49242 0.556 0.10412 0.0
C274 C 0.51523 0.57772 0.08595 0.0
C275 C 0.50461 0.58901 0.06499 0.0
C276 C 0.4709 0.57842 0.06158 0.0
C277 C 0.44815 0.55701 0.07999 0.0
C278 C 0.45885 0.54603 0.10117 0.0
C279 C 0.50335 0.54212 0.12512 0.0
C280 C 0.51928 0.52574 0.11765 0.0
C281 C 0.49707 0.54385 0.15214 0.0
C282 C 0.4853 0.56508 0.16167 0.0
C283 C 0.50278 0.59784 0.15534 0.0
C284 C 0.49289 0.61837 0.16528 0.0
C285 C 0.46536 0.60657 0.18183 0.0
C286 C 0.44782 0.57372 0.18811 0.0
C287 C 0.45782 0.55319 0.17822 0.0
C288 C 0.59353 0.31266 0.41088 0.0
O289 O 0.61162 0.33381 0.42926 0.0
O290 O 0.66098 0.38543 0.38604 0.0
Zn291 Zn 0.61244 0.37099 0.38738 0.0
O292 O 0.60027 0.38562 0.42066 0.0
C293 C 0.61912 0.41425 0.34598 0.0
O294 O 0.64809 0.43156 0.35763 0.0
O295 O 0.58886 0.32268 0.38899 0.0
C296 C 0.60563 0.4135 0.42593 0.0
O297 O 0.62138 0.43678 0.40889 0.0
C298 C 0.68544 0.41148 0.39479 0.0
O299 O 0.68047 0.4327 0.40654 0.0
O300 O 0.59898 0.38644 0.3549 0.0
C301 C 0.31469 0.70318 0.58794 0.0
O302 O 0.33101 0.69006 0.59734 0.0
O303 O 0.28656 0.61895 0.5863 0.0
Zn304 Zn 0.257 0.63736 0.58414 0.0
O305 O 0.22975 0.62413 0.55067 0.0
C306 C 0.19815 0.61796 0.61438 0.0
O307 O 0.18797 0.62415 0.59215 0.0
O308 O 0.284 0.6856 0.58272 0.0
C309 C 0.21726 0.59778 0.53798 0.0
O310 O 0.22181 0.57487 0.54668 0.0
C311 C 0.30984 0.62583 0.5703 0.0
O312 O 0.31455 0.64507 0.55043 0.0
O313 O 0.22714 0.62244 0.61576 0.0
C314 C 0.59879 0.29396 0.71626 0.0
O315 O 0.60833 0.28339 0.69637 0.0
O316 O 0.66855 0.28574 0.7494 0.0
Zn317 Zn 0.6196 0.25634 0.74379 0.0
O318 O 0.60906 0.22845 0.71116 0.0
C319 C 0.61783 0.21389 0.78236 0.0
O320 O 0.64289 0.21868 0.76787 0.0
O321 O 0.60005 0.28463 0.73949 0.0
C322 C 0.62862 0.22136 0.70022 0.0
O323 O 0.65824 0.23227 0.71048 0.0
C324 C 0.68854 0.30516 0.73247 0.0
O325 O 0.67765 0.30589 0.70864 0.0
O326 O 0.60223 0.22786 0.77594 0.0
C327 C 0.4039 0.70821 0.90571 0.0
O328 O 0.37457 0.68656 0.91428 0.0
O329 O 0.35263 0.63053 0.8801 0.0
Zn330 Zn 0.4013 0.65112 0.8887 0.0
O331 O 0.40958 0.63433 0.92255 0.0
C332 C 0.41168 0.64113 0.8349 0.0
O333 O 0.38999 0.65011 0.83138 0.0
O334 O 0.42089 0.69896 0.89332 0.0
C335 C 0.39712 0.6047 0.92759 0.0
O336 O 0.3771 0.58316 0.91017 0.0
C337 C 0.32867 0.61628 0.89594 0.0
O338 O 0.33466 0.61363 0.92093 0.0
O339 O 0.42182 0.6409 0.85824 0.0
C340 C 0.69753 0.39115 0.09634 0.0
O341 O 0.70141 0.37255 0.11296 0.0
O342 O 0.72181 0.33758 0.07214 0.0
Zn343 Zn 0.74771 0.38597 0.07208 0.0
O344 O 0.78041 0.40516 0.1024 0.0
C345 C 0.76322 0.38424 0.01699 0.0
O346 O 0.73464 0.35711 0.01678 0.0
O347 O 0.71527 0.40078 0.07579 0.0
C348 C 0.78161 0.39016 0.12253 0.0
O349 O 0.76055 0.35916 0.12437 0.0
C350 C 0.7345 0.32072 0.0667 0.0
O351 O 0.76649 0.33513 0.06274 0.0
O352 O 0.77304 0.40116 0.03801 0.0
C353 C 0.38109 0.70658 0.22272 0.0
O354 O 0.35153 0.70007 0.21532 0.0
O355 O 0.33497 0.73812 0.24761 0.0
Zn356 Zn 0.38374 0.76398 0.23919 0.0
O357 O 0.39255 0.78931 0.20562 0.0
C358 C 0.39763 0.7894 0.29278 0.0
O359 O 0.37235 0.76088 0.29829 0.0
O360 O 0.40045 0.7333 0.23416 0.0
C361 C 0.38233 0.8086 0.20171 0.0
O362 O 0.3641 0.81141 0.2197 0.0
C363 C 0.31134 0.72874 0.23095 0.0
O364 O 0.31803 0.73708 0.20607 0.0
O365 O 0.40759 0.79563 0.26907 0.0
H366 H 0.16085 0.62355 0.24713 0.0
H367 H 0.1945 0.63491 0.32816 0.0
H368 H 0.25035 0.67573 0.31505 0.0
H369 H 0.28957 0.70788 0.28062 0.0
H370 H 0.25599 0.69736 0.19951 0.0
H371 H 0.20014 0.65668 0.21261 0.0
C372 C 0.18054 0.63483 0.26182 0.0
C373 C 0.17369 0.62619 0.28853 0.0
C374 C 0.21249 0.65854 0.25418 0.0
C375 C 0.19921 0.6413 0.30749 0.0
C376 C 0.23111 0.66459 0.30001 0.0
C377 C 0.27004 0.69681 0.26578 0.0
C378 C 0.27703 0.70565 0.2391 0.0
C379 C 0.23801 0.67343 0.27343 0.0
C380 C 0.25134 0.69109 0.22019 0.0
C381 C 0.21939 0.66771 0.22765 0.0
H382 H 0.5388 0.16332 0.41444 0.0
H383 H 0.556 0.18506 0.49778 0.0
H384 H 0.57543 0.24145 0.48909 0.0
H385 H 0.58785 0.28445 0.45801 0.0
H386 H 0.56901 0.26336 0.37464 0.0
H387 H 0.54962 0.20675 0.38308 0.0
C388 C 0.54693 0.18054 0.43059 0.0
C389 C 0.5461 0.17024 0.45668 0.0
C390 C 0.55759 0.21288 0.42547 0.0
C391 C 0.55631 0.19253 0.47756 0.0
C392 C 0.56745 0.22472 0.47261 0.0
C393 C 0.57948 0.2675 0.44164 0.0
C394 C 0.58003 0.27811 0.41573 0.0
C395 C 0.56819 0.23514 0.44667 0.0
C396 C 0.56876 0.25576 0.39479 0.0
C397 C 0.5578 0.22344 0.3996 0.0
H398 H 0.42587 0.59787 0.585 0.0
H399 H 0.35814 0.53162 0.64222 0.0
H400 H 0.31836 0.54804 0.63145 0.0
H401 H 0.30288 0.58101 0.60574 0.0
H402 H 0.36956 0.64613 0.54725 0.0
H403 H 0.4096 0.63016 0.5583 0.0
C404 C 0.40247 0.5873 0.59517 0.0
C405 C 0.39487 0.56378 0.61444 0.0
C406 C 0.3795 0.59642 0.5885 0.0
C407 C 0.36436 0.54977 0.62729 0.0
C408 C 0.34167 0.55913 0.62113 0.0
C409 C 0.32613 0.59168 0.59534 0.0
C410 C 0.33324 0.61478 0.57575 0.0
C411 C 0.34893 0.58233 0.60172 0.0
C412 C 0.36341 0.6282 0.56236 0.0
C413 C 0.38639 0.6192 0.56875 0.0
H414 H 0.84073 0.40692 0.74821 0.0
H415 H 0.81598 0.37588 0.82896 0.0
H416 H 0.75871 0.33876 0.81576 0.0
H417 H 0.71587 0.31478 0.78146 0.0
H418 H 0.7396 0.34615 0.70068 0.0
H419 H 0.79706 0.38363 0.71377 0.0
C420 C 0.82269 0.39229 0.76294 0.0
C421 C 0.83265 0.39404 0.7895 0.0
C422 C 0.7897 0.37098 0.75522 0.0
C423 C 0.80907 0.37466 0.80832 0.0
C424 C 0.77629 0.3535 0.80082 0.0
C425 C 0.73357 0.32974 0.76665 0.0
C426 C 0.72345 0.32756 0.74011 0.0
C427 C 0.7664 0.35132 0.77432 0.0
C428 C 0.74673 0.3473 0.72125 0.0
C429 C 0.77959 0.36877 0.72872 0.0
H430 H 0.48252 0.85664 0.93226 0.0
H431 H 0.38597 0.83315 0.95851 0.0
H432 H 0.36297 0.7775 0.94415 0.0
H433 H 0.37076 0.7352 0.92585 0.0
H434 H 0.4672 0.75846 0.8993 0.0
H435 H 0.48982 0.81458 0.91209 0.0
C436 C 0.45646 0.83927 0.93486 0.0
C437 C 0.43599 0.84891 0.94656 0.0
C438 C 0.44343 0.80735 0.92657 0.0
C439 C 0.40216 0.82635 0.94941 0.0
C440 C 0.38905 0.79452 0.94133 0.0
C441 C 0.39672 0.75254 0.92276 0.0
C442 C 0.41731 0.74259 0.9118 0.0
C443 C 0.40952 0.7847 0.93012 0.0
C444 C 0.45081 0.76546 0.90771 0.0
C445 C 0.46378 0.79754 0.91508 0.0
H446 H 0.59646 0.42796 0.1397 0.0
H447 H 0.61694 0.47612 0.06459 0.0
H448 H 0.65366 0.45648 0.05332 0.0
H449 H 0.6812 0.4269 0.06536 0.0
H450 H 0.66002 0.37826 0.14034 0.0
H451 H 0.62201 0.39646 0.15088 0.0
C452 C 0.60854 0.43374 0.12069 0.0
C453 C 0.60405 0.45358 0.10308 0.0
C454 C 0.62959 0.42237 0.11432 0.0
C455 C 0.62032 0.46125 0.07868 0.0
C456 C 0.64123 0.44993 0.07216 0.0
C457 C 0.6682 0.42019 0.08397 0.0
C458 C 0.67361 0.40138 0.10206 0.0
C459 C 0.64633 0.43075 0.08996 0.0
C460 C 0.65641 0.39278 0.12604 0.0
C461 C 0.63464 0.40319 0.13212 0.0
H462 H 0.36673 0.8411 0.54192 0.0
H463 H 0.46047 0.84665 0.55177 0.0
H464 H 0.43249 0.79271 0.5705 0.0
H465 H 0.38119 0.74371 0.58354 0.0
H466 H 0.28776 0.73895 0.57378 0.0
H467 H 0.31605 0.79331 0.5563 0.0
C468 C 0.38115 0.83073 0.54847 0.0
C469 C 0.41566 0.84795 0.54546 0.0
C470 C 0.36499 0.79995 0.55946 0.0
C471 C 0.43383 0.83378 0.55353 0.0
C472 C 0.41787 0.80305 0.56445 0.0
C473 C 0.36706 0.75471 0.5779 0.0
C474 C 0.33241 0.73726 0.57998 0.0
C475 C 0.38344 0.78589 0.56748 0.0
C476 C 0.31445 0.7518 0.57236 0.0
C477 C 0.33058 0.78286 0.56227 0.0
H478 H 0.55884 0.39987 0.71347 0.0
H479 H 0.56662 0.38898 0.62972 0.0
H480 H 0.58158 0.34856 0.63811 0.0
H481 H 0.5919 0.31608 0.66901 0.0
H482 H 0.58347 0.32578 0.75292 0.0
H483 H 0.56915 0.3668 0.74472 0.0
C484 C 0.56414 0.38881 0.69714 0.0
C485 C 0.5617 0.39735 0.67103 0.0
C486 C 0.57234 0.36526 0.70211 0.0
C487 C 0.56816 0.3826 0.64997 0.0
C488 C 0.57673 0.35953 0.65476 0.0
C489 C 0.58689 0.32708 0.68556 0.0
C490 C 0.58876 0.31784 0.71154 0.0
C491 C 0.5787 0.35056 0.68071 0.0
C492 C 0.58211 0.33236 0.73271 0.0
C493 C 0.57402 0.3559 0.72804 0.0
H494 H 0.19316 0.57468 0.83796 0.0
H495 H 0.15569 0.53668 0.91519 0.0
H496 H 0.21185 0.55604 0.93147 0.0
H497 H 0.27162 0.58379 0.92373 0.0
H498 H 0.3089 0.62148 0.84627 0.0
H499 H 0.25288 0.60237 0.83022 0.0
C500 C 0.19736 0.57092 0.85841 0.0
C501 C 0.17036 0.55432 0.87535 0.0
C502 C 0.22967 0.58199 0.8676 0.0
C503 C 0.17609 0.54916 0.9017 0.0
C504 C 0.20818 0.56031 0.91104 0.0
C505 C 0.26751 0.58782 0.90334 0.0
C506 C 0.29447 0.60408 0.88629 0.0
C507 C 0.23516 0.57669 0.89415 0.0
C508 C 0.28864 0.60902 0.85988 0.0
C509 C 0.25658 0.59813 0.85064 0.0
H510 H 0.66072 0.17619 0.02887 0.0
H511 H 0.57566 0.18267 0.049 0.0
H512 H 0.61186 0.23808 0.06371 0.0
H513 H 0.6675 0.285 0.06996 0.0
H514 H 0.75262 0.27834 0.05043 0.0
H515 H 0.71645 0.22233 0.03713 0.0
C516 C 0.65005 0.18953 0.03682 0.0
C517 C 0.61545 0.17522 0.03768 0.0
C518 C 0.671 0.2213 0.04551 0.0
C519 C 0.60215 0.19317 0.04764 0.0
C520 C 0.62284 0.22481 0.05627 0.0
C521 C 0.67821 0.27126 0.06301 0.0
C522 C 0.71277 0.28595 0.06114 0.0
C523 C 0.65729 0.23916 0.05514 0.0
C524 C 0.72614 0.2677 0.0521 0.0
C525 C 0.70546 0.23568 0.04438 0.0
H526 H 0.40291 0.5955 0.18435 0.0
H527 H 0.50436 0.66694 0.20255 0.0
H528 H 0.4873 0.70386 0.21797 0.0
H529 H 0.44355 0.71645 0.22497 0.0
H530 H 0.34229 0.64481 0.20597 0.0
H531 H 0.35924 0.60731 0.19264 0.0
C532 C 0.42124 0.61899 0.19201 0.0
C533 C 0.45484 0.62847 0.19223 0.0
C534 C 0.41129 0.64012 0.20073 0.0
C535 C 0.47835 0.6592 0.20186 0.0
C536 C 0.46861 0.68028 0.2108 0.0
C537 C 0.42519 0.69254 0.21813 0.0
C538 C 0.39173 0.68353 0.21641 0.0
C539 C 0.43515 0.6711 0.21012 0.0
C540 C 0.36825 0.65249 0.20738 0.0
C541 C 0.3779 0.63097 0.19972 0.0
H542 H 0.81977 0.41983 0.36798 0.0
H543 H 0.85131 0.52023 0.36126 0.0
H544 H 0.79694 0.50867 0.37466 0.0
H545 H 0.73981 0.47001 0.38718 0.0
H546 H 0.70652 0.36914 0.38974 0.0
H547 H 0.76201 0.38088 0.37874 0.0
C548 C 0.81473 0.43918 0.36909 0.0
C549 C 0.83995 0.47093 0.36384 0.0
C550 C 0.78301 0.43229 0.3761 0.0
C551 C 0.83281 0.49565 0.36579 0.0
C552 C 0.80157 0.48906 0.37326 0.0
C553 C 0.74484 0.45067 0.38557 0.0
C554 C 0.7193 0.41883 0.38946 0.0
C555 C 0.77649 0.4575 0.37848 0.0
C556 C 0.72589 0.39388 0.38684 0.0
C557 C 0.75757 0.40057 0.38054 0.0
H558 H 0.13416 0.60022 0.44054 0.0
H559 H 0.11388 0.50344 0.43119 0.0
H560 H 0.14954 0.51093 0.46927 0.0
H561 H 0.18512 0.54453 0.5062 0.0
H562 H 0.20414 0.641 0.51553 0.0
H563 H 0.17009 0.63386 0.47674 0.0
C564 C 0.13737 0.58068 0.44693 0.0
C565 C 0.12127 0.5513 0.43311 0.0
C566 C 0.15761 0.58503 0.46894 0.0
C567 C 0.12623 0.52644 0.44133 0.0
C568 C 0.14646 0.53062 0.46321 0.0
C569 C 0.18188 0.564 0.49971 0.0
C570 C 0.19713 0.59319 0.51388 0.0
C571 C 0.1621 0.55976 0.4773 0.0
C572 C 0.19268 0.61821 0.50511 0.0
C573 C 0.17318 0.61419 0.48288 0.0
H574 H 0.60111 0.13109 0.60126 0.0
H575 H 0.51024 0.13212 0.60005 0.0
H576 H 0.52927 0.1683 0.63824 0.0
H577 H 0.57101 0.19854 0.67257 0.0
H578 H 0.66216 0.19793 0.67381 0.0
H579 H 0.64384 0.16298 0.63483 0.0
C580 C 0.58568 0.13959 0.60913 0.0
C581 C 0.55424 0.1288 0.59788 0.0
C582 C 0.59675 0.16037 0.63115 0.0
C583 C 0.53435 0.13971 0.60856 0.0
C584 C 0.54526 0.16048 0.63033 0.0
C585 C 0.58694 0.19082 0.66433 0.0
C586 C 0.61786 0.20075 0.67622 0.0
C587 C 0.57626 0.17071 0.64194 0.0
C588 C 0.63821 0.19062 0.66513 0.0
C589 C 0.62775 0.17061 0.64282 0.0
H590 H 0.43232 0.58459 0.7293 0.0
H591 H 0.49659 0.56951 0.78056 0.0
H592 H 0.48474 0.59463 0.81732 0.0
H593 H 0.4548 0.61948 0.8352 0.0
H594 H 0.39071 0.63465 0.78361 0.0
H595 H 0.40383 0.61095 0.74677 0.0
C596 C 0.44358 0.58667 0.74857 0.0
C597 C 0.46514 0.57505 0.75224 0.0
C598 C 0.43674 0.6012 0.76956 0.0
C599 C 0.48004 0.57843 0.77719 0.0
C600 C 0.47319 0.59268 0.79823 0.0
C601 C 0.44385 0.61778 0.81587 0.0
C602 C 0.4217 0.62876 0.81227 0.0
C603 C 0.45145 0.60403 0.79468 0.0
C604 C 0.40782 0.62641 0.78703 0.0
C605 C 0.41524 0.61276 0.76591 0.0
H606 H 0.85074 0.39727 0.91886 0.0
H607 H 0.90617 0.49508 0.94697 0.0
H608 H 0.86641 0.48225 0.98247 0.0
H609 H 0.81671 0.44272 0.00613 0.0
H610 H 0.75974 0.34541 0.97662 0.0
H611 H 0.79899 0.35852 0.94089 0.0
C612 C 0.85397 0.41565 0.93283 0.0
C613 C 0.8813 0.44693 0.93063 0.0
C614 C 0.83072 0.40822 0.9528 0.0
C615 C 0.88521 0.47083 0.94845 0.0
C616 C 0.86255 0.46349 0.9687 0.0
C617 C 0.81281 0.42445 0.99179 0.0
C618 C 0.78546 0.39311 0.99412 0.0
C619 C 0.83532 0.43222 0.97115 0.0
C620 C 0.78054 0.36975 0.97524 0.0
C621 C 0.80306 0.37718 0.95487 0.0
H622 H 0.41352 0.90474 0.1073 0.0
H623 H 0.48552 0.87776 0.09096 0.0
H624 H 0.46585 0.84091 0.12836 0.0
H625 H 0.42915 0.81739 0.16626 0.0
H626 H 0.35824 0.8456 0.1835 0.0
H627 H 0.37629 0.88068 0.14501 0.0
C628 C 0.42464 0.89052 0.11179 0.0
C629 C 0.4509 0.89393 0.0964 0.0
C630 C 0.41343 0.86965 0.13347 0.0
C631 C 0.46545 0.87574 0.10266 0.0
C632 C 0.45414 0.8546 0.12397 0.0
C633 C 0.41747 0.83104 0.16153 0.0
C634 C 0.39235 0.82883 0.17775 0.0
C635 C 0.4283 0.85152 0.13961 0.0
C636 C 0.37767 0.84689 0.1714 0.0
C637 C 0.38798 0.86697 0.14938 0.0
H638 H 0.60114 0.49408 0.25624 0.0
H639 H 0.51167 0.40303 0.24173 0.0
H640 H 0.52589 0.37914 0.27812 0.0
H641 H 0.56391 0.38417 0.31421 0.0
H642 H 0.65416 0.47514 0.32718 0.0
H643 H 0.63968 0.49867 0.29096 0.0
C644 C 0.58492 0.46888 0.26072 0.0
C645 C 0.55536 0.45046 0.24619 0.0
C646 C 0.59341 0.45519 0.28143 0.0
C647 C 0.53437 0.41797 0.25277 0.0
C648 C 0.54258 0.4042 0.27349 0.0
C649 C 0.58041 0.40912 0.30907 0.0
C650 C 0.61005 0.42781 0.32348 0.0
C651 C 0.57202 0.42262 0.28803 0.0
C652 C 0.6312 0.4601 0.31647 0.0
C653 C 0.62294 0.47367 0.29575 0.0
H654 H 0.46739 0.91343 0.36535 0.0
H655 H 0.40386 0.84491 0.42345 0.0
H656 H 0.3831 0.80198 0.39047 0.0
H657 H 0.38207 0.78396 0.34495 0.0
H658 H 0.44648 0.85223 0.28707 0.0
H659 H 0.4683 0.89494 0.32035 0.0
C660 C 0.44934 0.88906 0.37094 0.0
C661 C 0.4371 0.88258 0.39688 0.0
C662 C 0.4377 0.86434 0.35193 0.0
C663 C 0.41332 0.85081 0.40355 0.0
C664 C 0.40157 0.82615 0.38474 0.0
C665 C 0.40103 0.80813 0.33961 0.0
C666 C 0.41249 0.81481 0.31348 0.0
C667 C 0.41341 0.83266 0.35882 0.0
C668 C 0.43715 0.84632 0.307 0.0
C669 C 0.44961 0.87082 0.32602 0.0
H670 H 0.53489 0.4147 0.53089 0.0
H671 H 0.60236 0.51658 0.52356 0.0
H672 H 0.62477 0.50769 0.48319 0.0
H673 H 0.62447 0.47088 0.44957 0.0
H674 H 0.55852 0.36874 0.45813 0.0
H675 H 0.53626 0.37776 0.49835 0.0
C676 C 0.55446 0.43489 0.52037 0.0
C677 C 0.56688 0.46622 0.53002 0.0
C678 C 0.56747 0.42955 0.4974 0.0
C679 C 0.59255 0.49223 0.51651 0.0
C680 C 0.60527 0.48716 0.49341 0.0
C681 C 0.60523 0.45062 0.46024 0.0
C682 C 0.59305 0.41922 0.45075 0.0
C683 C 0.59282 0.45593 0.4836 0.0
C684 C 0.56837 0.39317 0.46499 0.0
C685 C 0.55555 0.39829 0.48798 0.0
H686 H 0.08512 0.55985 0.6991 0.0
H687 H 0.16243 0.56037 0.74582 0.0
H688 H 0.20023 0.58286 0.70868 0.0
H689 H 0.21144 0.60286 0.66305 0.0
H690 H 0.13416 0.60332 0.61695 0.0
H691 H 0.09649 0.58055 0.65398 0.0
C692 C 0.11036 0.56522 0.70131 0.0
C693 C 0.1209 0.55849 0.72528 0.0
C694 C 0.13203 0.57846 0.68002 0.0
C695 C 0.15351 0.56496 0.72753 0.0
C696 C 0.17522 0.57803 0.70635 0.0
C697 C 0.18638 0.59805 0.66111 0.0
C698 C 0.1757 0.60484 0.63722 0.0
C699 C 0.16475 0.58491 0.68251 0.0
C700 C 0.14312 0.59842 0.63508 0.0
C701 C 0.12149 0.58533 0.65625 0.0
H702 H 0.59667 0.11983 0.87608 0.0
H703 H 0.52055 0.14017 0.89573 0.0
H704 H 0.53498 0.17537 0.85742 0.0
H705 H 0.56928 0.20031 0.81814 0.0
H706 H 0.64567 0.17991 0.79926 0.0
H707 H 0.63127 0.14518 0.83757 0.0
C708 C 0.5835 0.13229 0.87221 0.0
C709 C 0.55762 0.12739 0.88881 0.0
C710 C 0.59194 0.15249 0.85021 0.0
C711 C 0.54039 0.14326 0.88314 0.0
C712 C 0.5487 0.16349 0.86129 0.0
C713 C 0.58276 0.18826 0.82241 0.0
C714 C 0.6085 0.19276 0.80577 0.0
C715 C 0.57438 0.16821 0.84461 0.0
C716 C 0.62574 0.17696 0.81166 0.0
C717 C 0.61755 0.15704 0.83361 0.0
H718 H 0.42021 0.54086 0.02787 0.0
H719 H 0.49654 0.63922 0.04289 0.0
H720 H 0.47974 0.65615 0.00319 0.0
H721 H 0.44446 0.64279 0.96364 0.0
H722 H 0.36919 0.54415 0.94774 0.0
H723 H 0.38433 0.52756 0.98845 0.0
C724 C 0.43287 0.56604 0.02258 0.0
C725 C 0.45952 0.58879 0.03827 0.0
C726 C 0.42337 0.57552 0.99955 0.0
C727 C 0.47609 0.62127 0.031 0.0
C728 C 0.46646 0.63095 0.00836 0.0
C729 C 0.43123 0.61767 0.96911 0.0
C730 C 0.40573 0.59475 0.95261 0.0
C731 C 0.44032 0.60825 0.99237 0.0
C732 C 0.38899 0.56229 0.96 0.0
C733 C 0.39761 0.55277 0.9833 0.0
H734 H 0.89251 0.48469 0.20338 0.0
H735 H 0.86459 0.39508 0.24158 0.0
H736 H 0.82292 0.36564 0.20715 0.0
H737 H 0.79497 0.36529 0.16583 0.0
H738 H 0.82371 0.45494 0.12714 0.0
H739 H 0.86432 0.48435 0.1621 0.0
C740 C 0.87706 0.45875 0.20425 0.0
C741 C 0.88161 0.44208 0.22494 0.0
C742 C 0.85337 0.44195 0.18425 0.0
C743 C 0.86173 0.40842 0.22569 0.0
C744 C 0.83785 0.39159 0.20606 0.0
C745 C 0.81006 0.39126 0.16505 0.0
C746 C 0.80625 0.40782 0.14385 0.0
C747 C 0.83358 0.40808 0.18516 0.0
C748 C 0.82614 0.44151 0.14316 0.0
C749 C 0.84937 0.4584 0.16319 0.0
loop_
_geom_bond_atom_site_label_1
_geom_bond_atom_site_label_2
_geom_bond_distance
_geom_bond_site_symmetry_2
_ccdc_geom_bond_type
H0 C19 0.949 . S
H1 C20 0.950 . S
H2 C22 0.950 . S
H3 C23 0.950 . S
H4 C25 0.950 . S
H5 C28 0.950 . S
H6 C29 0.950 . S
H7 C31 0.951 . S
H8 C32 0.949 . S
H9 C34 0.949 . S
H10 C35 0.950 . S
H11 C37 0.950 . S
H12 C38 0.950 . S
H13 C40 0.950 . S
H14 C43 0.950 . S
H15 C44 0.950 . S
H16 C46 0.951 . S
H17 C47 0.949 . S
C18 C19 1.376 . S
C18 C23 1.386 . S
C18 C24 1.483 . S
C19 H0 0.949 . S
C19 C18 1.376 . S
C19 C20 1.397 . S
C20 H1 0.950 . S
C20 C19 1.397 . S
C20 C21 1.391 . S
C21 C20 1.391 . S
C21 C22 1.405 . S
C22 H2 0.950 . S
C22 C21 1.405 . S
C22 C23 1.367 . S
C23 H3 0.950 . S
C23 C18 1.386 . S
C23 C22 1.367 . S
C24 C18 1.483 . S
C24 C25 1.382 1_655 S
C24 C26 1.403 . S
C25 H4 0.950 . S
C25 C24 1.382 1_455 S
C25 C41 1.411 . S
C26 C24 1.403 . S
C26 C27 1.489 . S
C26 C40 1.411 . S
C27 C26 1.489 . S
C27 C28 1.383 . S
C27 C32 1.382 . S
C28 H5 0.950 . S
C28 C27 1.383 . S
C28 C29 1.395 . S
C29 H6 0.950 . S
C29 C28 1.395 . S
C29 C30 1.288 . S
C30 C29 1.288 . S
C30 C31 1.392 . S
C31 H7 0.951 . S
C31 C30 1.392 . S
C31 C32 1.392 . S
C32 H8 0.949 . S
C32 C27 1.382 . S
C32 C31 1.392 . S
C33 C34 1.376 . S
C33 C38 1.386 . S
C33 C39 1.483 . S
C34 H9 0.949 . S
C34 C33 1.376 . S
C34 C35 1.397 . S
C35 H10 0.950 . S
C35 C34 1.397 . S
C35 C36 1.391 . S
C36 C35 1.391 . S
C36 C37 1.405 . S
C37 H11 0.950 . S
C37 C36 1.405 . S
C37 C38 1.367 . S
C38 H12 0.950 . S
C38 C33 1.386 . S
C38 C37 1.367 . S
C39 C33 1.483 . S
C39 C40 1.382 1_455 S
C39 C41 1.403 . S
C40 H13 0.950 . S
C40 C26 1.411 . S
C40 C39 1.382 1_655 S
C41 C25 1.411 . S
C41 C39 1.403 . S
C41 C42 1.489 . S
C42 C41 1.489 . S
C42 C43 1.383 . S
C42 C47 1.382 . S
C43 H14 0.950 . S
C43 C42 1.383 . S
C43 C44 1.395 . S
C44 H15 0.950 . S
C44 C43 1.395 . S
C44 C45 1.288 . S
C45 C44 1.288 . S
C45 C46 1.392 . S
C46 H16 0.951 . S
C46 C45 1.392 . S
C46 C47 1.392 . S
C47 H17 0.949 . S
C47 C42 1.382 . S
C47 C46 1.392 . S
H48 C67 0.949 . S
H49 C68 0.950 . S
H50 C70 0.950 . S
H51 C71 0.950 . S
H52 C73 0.950 1_565 S
H53 C76 0.950 . S
H54 C77 0.950 . S
H55 C79 0.951 . S
H56 C80 0.949 . S
H57 C82 0.949 . S
H58 C83 0.950 . S
H59 C85 0.950 . S
H60 C86 0.950 . S
H61 C88 0.950 . S
H62 C91 0.950 . S
H63 C92 0.950 . S
H64 C94 0.951 . S
H65 C95 0.949 . S
C66 C67 1.376 . S
C66 C71 1.386 . S
C66 C72 1.483 . S
C67 H48 0.949 . S
C67 C66 1.376 . S
C67 C68 1.397 . S
C68 H49 0.950 . S
C68 C67 1.397 . S
C68 C69 1.391 . S
C69 C68 1.391 . S
C69 C70 1.405 . S
C70 H50 0.950 . S
C70 C69 1.405 . S
C70 C71 1.367 . S
C71 H51 0.950 . S
C71 C66 1.386 . S
C71 C70 1.367 . S
C72 C66 1.483 . S
C72 C73 1.382 1_565 S
C72 C74 1.403 . S
C73 H52 0.950 1_545 S
C73 C72 1.382 1_545 S
C73 C89 1.411 . S
C74 C72 1.403 . S
C74 C75 1.489 . S
C74 C88 1.411 1_565 S
C75 C74 1.489 . S
C75 C76 1.383 . S
C75 C80 1.382 . S
C76 H53 0.950 . S
C76 C75 1.383 . S
C76 C77 1.395 . S
C77 H54 0.950 . S
C77 C76 1.395 . S
C77 C78 1.288 . S
C78 C77 1.288 . S
C78 C79 1.392 . S
C79 H55 0.951 . S
C79 C78 1.392 . S
C79 C80 1.392 . S
C80 H56 0.949 . S
C80 C75 1.382 . S
C80 C79 1.392 . S
C81 C82 1.376 . S
C81 C86 1.386 . S
C81 C87 1.483 . S
C82 H57 0.949 . S
C82 C81 1.376 . S
C82 C83 1.397 . S
C83 H58 0.950 . S
C83 C82 1.397 . S
C83 C84 1.391 . S
C84 C83 1.391 . S
C84 C85 1.405 . S
C85 H59 0.950 . S
C85 C84 1.405 . S
C85 C86 1.367 . S
C86 H60 0.950 . S
C86 C81 1.386 . S
C86 C85 1.367 . S
C87 C81 1.483 . S
C87 C88 1.382 . S
C87 C89 1.403 . S
C88 H61 0.950 . S
C88 C74 1.411 1_545 S
C88 C87 1.382 . S
C89 C73 1.411 . S
C89 C87 1.403 . S
C89 C90 1.489 . S
C90 C89 1.489 . S
C90 C91 1.383 . S
C90 C95 1.382 . S
C91 H62 0.950 . S
C91 C90 1.383 . S
C91 C92 1.395 . S
C92 H63 0.950 . S
C92 C91 1.395 . S
C92 C93 1.288 . S
C93 C92 1.288 . S
C93 C94 1.392 . S
C94 H64 0.951 . S
C94 C93 1.392 . S
C94 C95 1.392 . S
C95 H65 0.949 . S
C95 C90 1.382 . S
C95 C94 1.392 . S
H96 C115 0.949 . S
H97 C116 0.950 . S
H98 C118 0.950 . S
H99 C119 0.950 . S
H100 C121 0.950 . S
H101 C124 0.950 . S
H102 C125 0.950 . S
H103 C127 0.951 . S
H104 C128 0.949 . S
H105 C130 0.949 . S
H106 C131 0.950 . S
H107 C133 0.950 . S
H108 C134 0.950 . S
H109 C136 0.950 . S
H110 C139 0.950 . S
H111 C140 0.950 . S
H112 C142 0.951 . S
H113 C143 0.949 . S
C114 C115 1.376 . S
C114 C119 1.386 . S
C114 C120 1.483 . S
C115 H96 0.949 . S
C115 C114 1.376 . S
C115 C116 1.397 . S
C116 H97 0.950 . S
C116 C115 1.397 . S
C116 C117 1.391 . S
C117 C116 1.391 . S
C117 C118 1.405 . S
C118 H98 0.950 . S
C118 C117 1.405 . S
C118 C119 1.367 . S
C119 H99 0.950 . S
C119 C114 1.386 . S
C119 C118 1.367 . S
C120 C114 1.483 . S
C120 C121 1.382 . S
C120 C122 1.403 . S
C121 H100 0.950 . S
C121 C120 1.382 . S
C121 C137 1.411 . S
C122 C120 1.403 . S
C122 C123 1.489 . S
C122 C136 1.411 . S
C123 C122 1.489 . S
C123 C124 1.383 . S
C123 C128 1.382 . S
C124 H101 0.950 . S
C124 C123 1.383 . S
C124 C125 1.395 . S
C125 H102 0.950 . S
C125 C124 1.395 . S
C125 C126 1.288 . S
C126 C125 1.288 . S
C126 C127 1.392 . S
C127 H103 0.951 . S
C127 C126 1.392 . S
C127 C128 1.392 . S
C128 H104 0.949 . S
C128 C123 1.382 . S
C128 C127 1.392 . S
C129 C130 1.376 . S
C129 C134 1.386 . S
C129 C135 1.483 . S
C130 H105 0.949 . S
C130 C129 1.376 . S
C130 C131 1.397 . S
C131 H106 0.950 . S
C131 C130 1.397 . S
C131 C132 1.391 . S
C132 C131 1.391 . S
C132 C133 1.405 . S
C133 H107 0.950 . S
C133 C132 1.405 . S
C133 C134 1.367 . S
C134 H108 0.950 . S
C134 C129 1.386 . S
C134 C133 1.367 . S
C135 C129 1.483 . S
C135 C136 1.382 . S
C135 C137 1.403 . S
C136 H109 0.950 . S
C136 C122 1.411 . S
C136 C135 1.382 . S
C137 C121 1.411 . S
C137 C135 1.403 . S
C137 C138 1.489 . S
C138 C137 1.489 . S
C138 C139 1.383 . S
C138 C143 1.382 . S
C139 H110 0.950 . S
C139 C138 1.383 . S
C139 C140 1.395 . S
C140 H111 0.950 . S
C140 C139 1.395 . S
C140 C141 1.288 . S
C141 C140 1.288 . S
C141 C142 1.392 . S
C142 H112 0.951 . S
C142 C141 1.392 . S
C142 C143 1.392 . S
C143 H113 0.949 . S
C143 C138 1.382 . S
C143 C142 1.392 . S
H144 C163 0.949 . S
H145 C164 0.950 . S
H146 C166 0.950 . S
H147 C167 0.950 . S
H148 C169 0.950 . S
H149 C172 0.950 . S
H150 C173 0.950 . S
H151 C175 0.951 . S
H152 C176 0.949 . S
H153 C178 0.949 . S
H154 C179 0.950 . S
H155 C181 0.950 . S
H156 C182 0.950 . S
H157 C184 0.950 . S
H158 C187 0.950 . S
H159 C188 0.950 . S
H160 C190 0.951 . S
H161 C191 0.949 . S
C162 C163 1.376 . S
C162 C167 1.386 . S
C162 C168 1.483 . S
C163 H144 0.949 . S
C163 C162 1.376 . S
C163 C164 1.397 . S
C164 H145 0.950 . S
C164 C163 1.397 . S
C164 C165 1.391 . S
C165 C164 1.391 . S
C165 C166 1.405 . S
C166 H146 0.950 . S
C166 C165 1.405 . S
C166 C167 1.367 . S
C167 H147 0.950 . S
C167 C162 1.386 . S
C167 C166 1.367 . S
C168 C162 1.483 . S
C168 C169 1.382 1_455 S
C168 C170 1.403 . S
C169 H148 0.950 . S
C169 C168 1.382 1_655 S
C169 C185 1.411 . S
C170 C168 1.403 . S
C170 C171 1.489 . S
C170 C184 1.411 . S
C171 C170 1.489 . S
C171 C172 1.383 . S
C171 C176 1.382 . S
C172 H149 0.950 . S
C172 C171 1.383 . S
C172 C173 1.395 . S
C173 H150 0.950 . S
C173 C172 1.395 . S
C173 C174 1.288 . S
C174 C173 1.288 . S
C174 C175 1.392 . S
C175 H151 0.951 . S
C175 C174 1.392 . S
C175 C176 1.392 . S
C176 H152 0.949 . S
C176 C171 1.382 . S
C176 C175 1.392 . S
C177 C178 1.376 . S
C177 C182 1.386 . S
C177 C183 1.483 . S
C178 H153 0.949 . S
C178 C177 1.376 . S
C178 C179 1.397 . S
C179 H154 0.950 . S
C179 C178 1.397 . S
C179 C180 1.391 . S
C180 C179 1.391 . S
C180 C181 1.405 . S
C181 H155 0.950 . S
C181 C180 1.405 . S
C181 C182 1.367 . S
C182 H156 0.950 . S
C182 C177 1.386 . S
C182 C181 1.367 . S
C183 C177 1.483 . S
C183 C184 1.382 1_655 S
C183 C185 1.403 . S
C184 H157 0.950 . S
C184 C170 1.411 . S
C184 C183 1.382 1_455 S
C185 C169 1.411 . S
C185 C183 1.403 . S
C185 C186 1.489 . S
C186 C185 1.489 . S
C186 C187 1.383 . S
C186 C191 1.382 . S
C187 H158 0.950 . S
C187 C186 1.383 . S
C187 C188 1.395 . S
C188 H159 0.950 . S
C188 C187 1.395 . S
C188 C189 1.288 . S
C189 C188 1.288 . S
C189 C190 1.392 . S
C190 H160 0.951 . S
C190 C189 1.392 . S
C190 C191 1.392 . S
C191 H161 0.949 . S
C191 C186 1.382 . S
C191 C190 1.392 . S
H192 C211 0.949 . S
H193 C212 0.950 . S
H194 C214 0.950 . S
H195 C215 0.950 . S
H196 C217 0.950 . S
H197 C220 0.950 . S
H198 C221 0.950 . S
H199 C223 0.951 . S
H200 C224 0.949 . S
H201 C226 0.949 . S
H202 C227 0.950 . S
H203 C229 0.950 . S
H204 C230 0.950 . S
H205 C232 0.953 . S
H206 C235 0.950 . S
H207 C236 0.950 . S
H208 C238 0.951 . S
H209 C239 0.949 . S
C210 C211 1.376 . S
C210 C215 1.386 1_554 S
C210 C216 1.483 1_554 S
C211 H192 0.949 . S
C211 C210 1.376 . S
C211 C212 1.397 . S
C212 H193 0.950 . S
C212 C211 1.397 . S
C212 C213 1.391 . S
C213 C212 1.391 . S
C213 C214 1.405 . S
C214 H194 0.950 . S
C214 C213 1.405 . S
C214 C215 1.367 1_554 S
C215 H195 0.950 . S
C215 C210 1.386 1_556 S
C215 C214 1.367 1_556 S
C216 C210 1.483 1_556 S
C216 C217 1.382 1_556 S
C216 C218 1.403 . S
C217 H196 0.950 . S
C217 C216 1.382 1_554 S
C217 C233 1.411 1_545 S
C218 C216 1.403 . S
C218 C219 1.489 . S
C218 C232 1.401 1_545 S
C219 C218 1.489 . S
C219 C220 1.383 . S
C219 C224 1.382 . S
C220 H197 0.950 . S
C220 C219 1.383 . S
C220 C221 1.395 . S
C221 H198 0.950 . S
C221 C220 1.395 . S
C221 C222 1.288 . S
C222 C221 1.288 . S
C222 C223 1.392 . S
C223 H199 0.951 . S
C223 C222 1.392 . S
C223 C224 1.392 . S
C224 H200 0.949 . S
C224 C219 1.382 . S
C224 C223 1.392 . S
C225 C226 1.376 . S
C225 C230 1.386 . S
C225 C231 1.483 . S
C226 H201 0.949 . S
C226 C225 1.376 . S
C226 C227 1.397 . S
C227 H202 0.950 . S
C227 C226 1.397 . S
C227 C228 1.391 . S
C228 C227 1.391 . S
C228 C229 1.405 . S
C229 H203 0.950 . S
C229 C228 1.405 . S
C229 C230 1.367 . S
C230 H204 0.950 . S
C230 C225 1.386 . S
C230 C229 1.367 . S
C231 C225 1.483 . S
C231 C232 1.389 . S
C231 C233 1.403 1_556 S
C232 H205 0.953 . S
C232 C218 1.401 1_565 S
C232 C231 1.389 . S
C233 C217 1.411 1_565 S
C233 C231 1.403 1_554 S
C233 C234 1.489 . S
C234 C233 1.489 . S
C234 C235 1.383 . S
C234 C239 1.382 . S
C235 H206 0.950 . S
C235 C234 1.383 . S
C235 C236 1.395 . S
C236 H207 0.950 . S
C236 C235 1.395 . S
C236 C237 1.288 . S
C237 C236 1.288 . S
C237 C238 1.392 . S
C238 H208 0.951 . S
C238 C237 1.392 . S
C238 C239 1.392 . S
C239 H209 0.949 . S
C239 C234 1.382 . S
C239 C238 1.392 . S
H240 C259 0.949 . S
H241 C260 0.950 . S
H242 C262 0.950 . S
H243 C263 0.950 . S
H244 C265 0.950 . S
H245 C268 0.950 . S
H246 C269 0.950 . S
H247 C271 0.951 . S
H248 C272 0.949 . S
H249 C274 0.949 . S
H250 C275 0.950 . S
H251 C277 0.950 . S
H252 C278 0.950 . S
H253 C280 0.950 . S
H254 C283 0.950 . S
H255 C284 0.950 . S
H256 C286 0.951 . S
H257 C287 0.949 . S
C258 C259 1.376 . S
C258 C263 1.386 . S
C258 C264 1.483 . S
C259 H240 0.949 . S
C259 C258 1.376 . S
C259 C260 1.397 . S
C260 H241 0.950 . S
C260 C259 1.397 . S
C260 C261 1.391 . S
C261 C260 1.391 . S
C261 C262 1.405 . S
C262 H242 0.950 . S
C262 C261 1.405 . S
C262 C263 1.367 . S
C263 H243 0.950 . S
C263 C258 1.386 . S
C263 C262 1.367 . S
C264 C258 1.483 . S
C264 C265 1.382 . S
C264 C266 1.403 . S
C265 H244 0.950 . S
C265 C264 1.382 . S
C265 C281 1.411 . S
C266 C264 1.403 . S
C266 C267 1.489 . S
C266 C280 1.411 . S
C267 C266 1.489 . S
C267 C268 1.383 . S
C267 C272 1.382 . S
C268 H245 0.950 . S
C268 C267 1.383 . S
C268 C269 1.395 . S
C269 H246 0.950 . S
C269 C268 1.395 . S
C269 C270 1.288 . S
C270 C269 1.288 . S
C270 C271 1.392 . S
C271 H247 0.951 . S
C271 C270 1.392 . S
C271 C272 1.392 . S
C272 H248 0.949 . S
C272 C267 1.382 . S
C272 C271 1.392 . S
C273 C274 1.376 . S
C273 C278 1.386 . S
C273 C279 1.483 . S
C274 H249 0.949 . S
C274 C273 1.376 . S
C274 C275 1.397 . S
C275 H250 0.950 . S
C275 C274 1.397 . S
C275 C276 1.391 . S
C276 C275 1.391 . S
C276 C277 1.405 . S
C277 H251 0.950 . S
C277 C276 1.405 . S
C277 C278 1.367 . S
C278 H252 0.950 . S
C278 C273 1.386 . S
C278 C277 1.367 . S
C279 C273 1.483 . S
C279 C280 1.382 . S
C279 C281 1.403 . S
C280 H253 0.950 . S
C280 C266 1.411 . S
C280 C279 1.382 . S
C281 C265 1.411 . S
C281 C279 1.403 . S
C281 C282 1.489 . S
C282 C281 1.489 . S
C282 C283 1.383 . S
C282 C287 1.382 . S
C283 H254 0.950 . S
C283 C282 1.383 . S
C283 C284 1.395 . S
C284 H255 0.950 . S
C284 C283 1.395 . S
C284 C285 1.288 . S
C285 C284 1.288 . S
C285 C286 1.392 . S
C286 H256 0.951 . S
C286 C285 1.392 . S
C286 C287 1.392 . S
C287 H257 0.949 . S
C287 C282 1.382 . S
C287 C286 1.392 . S
C288 O289 1.160 . S
C288 O295 1.185 . S
O289 C288 1.160 . S
O290 Zn291 1.899 . S
O290 C298 1.284 . S
Zn291 O290 1.899 . S
Zn291 O292 2.032 . S
Zn291 O295 2.086 . S
Zn291 O300 1.977 . S
O292 Zn291 2.032 . S
O292 C296 1.278 . S
C293 O294 1.203 . S
C293 O300 1.267 . S
O294 C293 1.203 . S
O295 C288 1.185 . S
O295 Zn291 2.086 . S
C296 O292 1.278 . S
C296 O297 1.211 . S
O297 C296 1.211 . S
C298 O290 1.284 . S
C298 O299 1.273 . S
O299 C298 1.273 . S
O300 Zn291 1.977 . S
O300 C293 1.267 . S
C301 O302 1.160 . S
C301 O308 1.185 . S
O302 C301 1.160 . S
O303 Zn304 1.899 . S
O303 C311 1.284 . S
Zn304 O303 1.899 . S
Zn304 O305 2.032 . S
Zn304 O308 2.086 . S
Zn304 O313 1.977 . S
O305 Zn304 2.032 . S
O305 C309 1.278 . S
C306 O307 1.203 . S
C306 O313 1.267 . S
O307 C306 1.203 . S
O308 C301 1.185 . S
O308 Zn304 2.086 . S
C309 O305 1.278 . S
C309 O310 1.211 . S
O310 C309 1.211 . S
C311 O303 1.284 . S
C311 O312 1.273 . S
O312 C311 1.273 . S
O313 Zn304 1.977 . S
O313 C306 1.267 . S
C314 O315 1.160 . S
C314 O321 1.185 . S
O315 C314 1.160 . S
O316 Zn317 1.899 . S
O316 C324 1.284 . S
Zn317 O316 1.899 . S
Zn317 O318 2.032 . S
Zn317 O321 2.086 . S
Zn317 O326 1.977 . S
O318 Zn317 2.032 . S
O318 C322 1.278 . S
C319 O320 1.203 . S
C319 O326 1.267 . S
O320 C319 1.203 . S
O321 C314 1.185 . S
O321 Zn317 2.086 . S
C322 O318 1.278 . S
C322 O323 1.211 . S
O323 C322 1.211 . S
C324 O316 1.284 . S
C324 O325 1.273 . S
O325 C324 1.273 . S
O326 Zn317 1.977 . S
O326 C319 1.267 . S
C327 O328 1.160 . S
C327 O334 1.185 . S
O328 C327 1.160 . S
O329 Zn330 1.899 . S
O329 C337 1.284 . S
Zn330 O329 1.899 . S
Zn330 O331 2.032 . S
Zn330 O334 2.086 . S
Zn330 O339 1.977 . S
O331 Zn330 2.032 . S
O331 C335 1.278 . S
C332 O333 1.203 . S
C332 O339 1.267 . S
O333 C332 1.203 . S
O334 C327 1.185 . S
O334 Zn330 2.086 . S
C335 O331 1.278 . S
C335 O336 1.211 . S
O336 C335 1.211 . S
C337 O329 1.284 . S
C337 O338 1.273 . S
O338 C337 1.273 . S
O339 Zn330 1.977 . S
O339 C332 1.267 . S
C340 O341 1.160 . S
C340 O347 1.185 . S
O341 C340 1.160 . S
O342 Zn343 1.899 . S
O342 C350 1.284 . S
Zn343 O342 1.899 . S
Zn343 O344 2.032 . S
Zn343 O347 2.086 . S
Zn343 O352 1.977 . S
O344 Zn343 2.032 . S
O344 C348 1.278 . S
C345 O346 1.203 . S
C345 O352 1.267 . S
O346 C345 1.203 . S
O347 C340 1.185 . S
O347 Zn343 2.086 . S
C348 O344 1.278 . S
C348 O349 1.211 . S
O349 C348 1.211 . S
C350 O342 1.284 . S
C350 O351 1.273 . S
O351 C350 1.273 . S
O352 Zn343 1.977 . S
O352 C345 1.267 . S
C353 O354 1.160 . S
C353 O360 1.185 . S
O354 C353 1.160 . S
O355 Zn356 1.899 . S
O355 C363 1.284 . S
Zn356 O355 1.899 . S
Zn356 O357 2.032 . S
Zn356 O360 2.086 . S
Zn356 O365 1.977 . S
O357 Zn356 2.032 . S
O357 C361 1.278 . S
C358 O359 1.203 . S
C358 O365 1.267 . S
O359 C358 1.203 . S
O360 C353 1.185 . S
O360 Zn356 2.086 . S
C361 O357 1.278 . S
C361 O362 1.211 . S
O362 C361 1.211 . S
C363 O355 1.284 . S
C363 O364 1.273 . S
O364 C363 1.273 . S
O365 Zn356 1.977 . S
O365 C358 1.267 . S
H366 C372 0.930 . S
H367 C375 0.930 . S
H368 C376 0.930 . S
H369 C377 0.930 . S
H370 C380 0.930 . S
H371 C381 0.930 . S
C372 H366 0.930 . S
C372 C373 1.355 . S
C372 C374 1.415 . S
C373 C372 1.355 . S
C373 C375 1.419 . S
C374 C372 1.415 . S
C374 C379 1.425 . S
C374 C381 1.409 . S
C375 H367 0.930 . S
C375 C373 1.419 . S
C375 C376 1.362 . S
C376 H368 0.930 . S
C376 C375 1.362 . S
C376 C379 1.409 . S
C377 H369 0.930 . S
C377 C378 1.355 . S
C377 C379 1.415 . S
C378 C377 1.355 . S
C378 C380 1.419 . S
C379 C374 1.425 . S
C379 C376 1.409 . S
C379 C377 1.415 . S
C380 H370 0.930 . S
C380 C378 1.419 . S
C380 C381 1.362 . S
C381 H371 0.930 . S
C381 C374 1.409 . S
C381 C380 1.362 . S
H382 C388 0.930 . S
H383 C391 0.930 . S
H384 C392 0.930 . S
H385 C393 0.930 . S
H386 C396 0.930 . S
H387 C397 0.930 . S
C388 H382 0.930 . S
C388 C389 1.355 . S
C388 C390 1.415 . S
C389 C388 1.355 . S
C389 C391 1.419 . S
C390 C388 1.415 . S
C390 C395 1.425 . S
C390 C397 1.409 . S
C391 H383 0.930 . S
C391 C389 1.419 . S
C391 C392 1.362 . S
C392 H384 0.930 . S
C392 C391 1.362 . S
C392 C395 1.409 . S
C393 H385 0.930 . S
C393 C394 1.355 . S
C393 C395 1.415 . S
C394 C393 1.355 . S
C394 C396 1.419 . S
C395 C390 1.425 . S
C395 C392 1.409 . S
C395 C393 1.415 . S
C396 H386 0.930 . S
C396 C394 1.419 . S
C396 C397 1.362 . S
C397 H387 0.930 . S
C397 C390 1.409 . S
C397 C396 1.362 . S
H398 C404 0.930 . S
H399 C407 0.930 . S
H400 C408 0.930 . S
H401 C409 0.930 . S
H402 C412 0.930 . S
H403 C413 0.930 . S
C404 H398 0.930 . S
C404 C405 1.355 . S
C404 C406 1.415 . S
C405 C404 1.355 . S
C405 C407 1.419 . S
C406 C404 1.415 . S
C406 C411 1.425 . S
C406 C413 1.409 . S
C407 H399 0.930 . S
C407 C405 1.419 . S
C407 C408 1.362 . S
C408 H400 0.930 . S
C408 C407 1.362 . S
C408 C411 1.409 . S
C409 H401 0.930 . S
C409 C410 1.355 . S
C409 C411 1.415 . S
C410 C409 1.355 . S
C410 C412 1.419 . S
C411 C406 1.425 . S
C411 C408 1.409 . S
C411 C409 1.415 . S
C412 H402 0.930 . S
C412 C410 1.419 . S
C412 C413 1.362 . S
C413 H403 0.930 . S
C413 C406 1.409 . S
C413 C412 1.362 . S
H414 C420 0.930 . S
H415 C423 0.930 . S
H416 C424 0.930 . S
H417 C425 0.930 . S
H418 C428 0.930 . S
H419 C429 0.930 . S
C420 H414 0.930 . S
C420 C421 1.355 . S
C420 C422 1.415 . S
C421 C420 1.355 . S
C421 C423 1.419 . S
C422 C420 1.415 . S
C422 C427 1.425 . S
C422 C429 1.409 . S
C423 H415 0.930 . S
C423 C421 1.419 . S
C423 C424 1.362 . S
C424 H416 0.930 . S
C424 C423 1.362 . S
C424 C427 1.409 . S
C425 H417 0.930 . S
C425 C426 1.355 . S
C425 C427 1.415 . S
C426 C425 1.355 . S
C426 C428 1.419 . S
C427 C422 1.425 . S
C427 C424 1.409 . S
C427 C425 1.415 . S
C428 H418 0.930 . S
C428 C426 1.419 . S
C428 C429 1.362 . S
C429 H419 0.930 . S
C429 C422 1.409 . S
C429 C428 1.362 . S
H430 C436 0.930 . S
H431 C439 0.930 . S
H432 C440 0.930 . S
H433 C441 0.930 . S
H434 C444 0.930 . S
H435 C445 0.930 . S
C436 H430 0.930 . S
C436 C437 1.355 . S
C436 C438 1.415 . S
C437 C436 1.355 . S
C437 C439 1.419 . S
C438 C436 1.415 . S
C438 C443 1.425 . S
C438 C445 1.409 . S
C439 H431 0.930 . S
C439 C437 1.419 . S
C439 C440 1.362 . S
C440 H432 0.930 . S
C440 C439 1.362 . S
C440 C443 1.409 . S
C441 H433 0.930 . S
C441 C442 1.355 . S
C441 C443 1.415 . S
C442 C441 1.355 . S
C442 C444 1.419 . S
C443 C438 1.425 . S
C443 C440 1.409 . S
C443 C441 1.415 . S
C444 H434 0.930 . S
C444 C442 1.419 . S
C444 C445 1.362 . S
C445 H435 0.930 . S
C445 C438 1.409 . S
C445 C444 1.362 . S
H446 C452 0.930 . S
H447 C455 0.930 . S
H448 C456 0.930 . S
H449 C457 0.930 . S
H450 C460 0.930 . S
H451 C461 0.930 . S
C452 H446 0.930 . S
C452 C453 1.355 . S
C452 C454 1.415 . S
C453 C452 1.355 . S
C453 C455 1.419 . S
C454 C452 1.415 . S
C454 C459 1.425 . S
C454 C461 1.409 . S
C455 H447 0.930 . S
C455 C453 1.419 . S
C455 C456 1.362 . S
C456 H448 0.930 . S
C456 C455 1.362 . S
C456 C459 1.409 . S
C457 H449 0.930 . S
C457 C458 1.355 . S
C457 C459 1.415 . S
C458 C457 1.355 . S
C458 C460 1.419 . S
C459 C454 1.425 . S
C459 C456 1.409 . S
C459 C457 1.415 . S
C460 H450 0.930 . S
C460 C458 1.419 . S
C460 C461 1.362 . S
C461 H451 0.930 . S
C461 C454 1.409 . S
C461 C460 1.362 . S
H462 C468 0.930 . S
H463 C471 0.930 . S
H464 C472 0.930 . S
H465 C473 0.930 . S
H466 C476 0.930 . S
H467 C477 0.930 . S
C468 H462 0.930 . S
C468 C469 1.355 . S
C468 C470 1.415 . S
C469 C468 1.355 . S
C469 C471 1.419 . S
C470 C468 1.415 . S
C470 C475 1.425 . S
C470 C477 1.409 . S
C471 H463 0.930 . S
C471 C469 1.419 . S
C471 C472 1.362 . S
C472 H464 0.930 . S
C472 C471 1.362 . S
C472 C475 1.409 . S
C473 H465 0.930 . S
C473 C474 1.355 . S
C473 C475 1.415 . S
C474 C473 1.355 . S
C474 C476 1.419 . S
C475 C470 1.425 . S
C475 C472 1.409 . S
C475 C473 1.415 . S
C476 H466 0.930 . S
C476 C474 1.419 . S
C476 C477 1.362 . S
C477 H467 0.930 . S
C477 C470 1.409 . S
C477 C476 1.362 . S
H478 C484 0.930 . S
H479 C487 0.930 . S
H480 C488 0.930 . S
H481 C489 0.930 . S
H482 C492 0.930 . S
H483 C493 0.930 . S
C484 H478 0.930 . S
C484 C485 1.355 . S
C484 C486 1.415 . S
C485 C484 1.355 . S
C485 C487 1.419 . S
C486 C484 1.415 . S
C486 C491 1.425 . S
C486 C493 1.409 . S
C487 H479 0.930 . S
C487 C485 1.419 . S
C487 C488 1.362 . S
C488 H480 0.930 . S
C488 C487 1.362 . S
C488 C491 1.409 . S
C489 H481 0.930 . S
C489 C490 1.355 . S
C489 C491 1.415 . S
C490 C489 1.355 . S
C490 C492 1.419 . S
C491 C486 1.425 . S
C491 C488 1.409 . S
C491 C489 1.415 . S
C492 H482 0.930 . S
C492 C490 1.419 . S
C492 C493 1.362 . S
C493 H483 0.930 . S
C493 C486 1.409 . S
C493 C492 1.362 . S
H494 C500 0.930 . S
H495 C503 0.930 . S
H496 C504 0.930 . S
H497 C505 0.930 . S
H498 C508 0.930 . S
H499 C509 0.930 . S
C500 H494 0.930 . S
C500 C501 1.355 . S
C500 C502 1.415 . S
C501 C500 1.355 . S
C501 C503 1.419 . S
C502 C500 1.415 . S
C502 C507 1.425 . S
C502 C509 1.409 . S
C503 H495 0.930 . S
C503 C501 1.419 . S
C503 C504 1.362 . S
C504 H496 0.930 . S
C504 C503 1.362 . S
C504 C507 1.409 . S
C505 H497 0.930 . S
C505 C506 1.355 . S
C505 C507 1.415 . S
C506 C505 1.355 . S
C506 C508 1.419 . S
C507 C502 1.425 . S
C507 C504 1.409 . S
C507 C505 1.415 . S
C508 H498 0.930 . S
C508 C506 1.419 . S
C508 C509 1.362 . S
C509 H499 0.930 . S
C509 C502 1.409 . S
C509 C508 1.362 . S
H510 C516 0.930 . S
H511 C519 0.930 . S
H512 C520 0.930 . S
H513 C521 0.930 . S
H514 C524 0.930 . S
H515 C525 0.930 . S
C516 H510 0.930 . S
C516 C517 1.355 . S
C516 C518 1.415 . S
C517 C516 1.355 . S
C517 C519 1.419 . S
C518 C516 1.415 . S
C518 C523 1.425 . S
C518 C525 1.409 . S
C519 H511 0.930 . S
C519 C517 1.419 . S
C519 C520 1.362 . S
C520 H512 0.930 . S
C520 C519 1.362 . S
C520 C523 1.409 . S
C521 H513 0.930 . S
C521 C522 1.355 . S
C521 C523 1.415 . S
C522 C521 1.355 . S
C522 C524 1.419 . S
C523 C518 1.425 . S
C523 C520 1.409 . S
C523 C521 1.415 . S
C524 H514 0.930 . S
C524 C522 1.419 . S
C524 C525 1.362 . S
C525 H515 0.930 . S
C525 C518 1.409 . S
C525 C524 1.362 . S
H526 C532 0.930 . S
H527 C535 0.930 . S
H528 C536 0.930 . S
H529 C537 0.930 . S
H530 C540 0.930 . S
H531 C541 0.930 . S
C532 H526 0.930 . S
C532 C533 1.355 . S
C532 C534 1.415 . S
C533 C532 1.355 . S
C533 C535 1.419 . S
C534 C532 1.415 . S
C534 C539 1.425 . S
C534 C541 1.409 . S
C535 H527 0.930 . S
C535 C533 1.419 . S
C535 C536 1.362 . S
C536 H528 0.930 . S
C536 C535 1.362 . S
C536 C539 1.409 . S
C537 H529 0.930 . S
C537 C538 1.355 . S
C537 C539 1.415 . S
C538 C537 1.355 . S
C538 C540 1.419 . S
C539 C534 1.425 . S
C539 C536 1.409 . S
C539 C537 1.415 . S
C540 H530 0.930 . S
C540 C538 1.419 . S
C540 C541 1.362 . S
C541 H531 0.930 . S
C541 C534 1.409 . S
C541 C540 1.362 . S
H542 C548 0.930 . S
H543 C551 0.930 . S
H544 C552 0.930 . S
H545 C553 0.930 . S
H546 C556 0.930 . S
H547 C557 0.930 . S
C548 H542 0.930 . S
C548 C549 1.355 . S
C548 C550 1.415 . S
C549 C548 1.355 . S
C549 C551 1.419 . S
C550 C548 1.415 . S
C550 C555 1.425 . S
C550 C557 1.409 . S
C551 H543 0.930 . S
C551 C549 1.419 . S
C551 C552 1.362 . S
C552 H544 0.930 . S
C552 C551 1.362 . S
C552 C555 1.409 . S
C553 H545 0.930 . S
C553 C554 1.355 . S
C553 C555 1.415 . S
C554 C553 1.355 . S
C554 C556 1.419 . S
C555 C550 1.425 . S
C555 C552 1.409 . S
C555 C553 1.415 . S
C556 H546 0.930 . S
C556 C554 1.419 . S
C556 C557 1.362 . S
C557 H547 0.930 . S
C557 C550 1.409 . S
C557 C556 1.362 . S
H558 C564 0.930 . S
H559 C567 0.930 . S
H560 C568 0.930 . S
H561 C569 0.930 . S
H562 C572 0.930 . S
H563 C573 0.930 . S
C564 H558 0.930 . S
C564 C565 1.355 . S
C564 C566 1.415 . S
C565 C564 1.355 . S
C565 C567 1.419 . S
C566 C564 1.415 . S
C566 C571 1.425 . S
C566 C573 1.409 . S
C567 H559 0.930 . S
C567 C565 1.419 . S
C567 C568 1.362 . S
C568 H560 0.930 . S
C568 C567 1.362 . S
C568 C571 1.409 . S
C569 H561 0.930 . S
C569 C570 1.355 . S
C569 C571 1.415 . S
C570 C569 1.355 . S
C570 C572 1.419 . S
C571 C566 1.425 . S
C571 C568 1.409 . S
C571 C569 1.415 . S
C572 H562 0.930 . S
C572 C570 1.419 . S
C572 C573 1.362 . S
C573 H563 0.930 . S
C573 C566 1.409 . S
C573 C572 1.362 . S
H574 C580 0.930 . S
H575 C583 0.930 . S
H576 C584 0.930 . S
H577 C585 0.930 . S
H578 C588 0.930 . S
H579 C589 0.930 . S
C580 H574 0.930 . S
C580 C581 1.355 . S
C580 C582 1.415 . S
C581 C580 1.355 . S
C581 C583 1.419 . S
C582 C580 1.415 . S
C582 C587 1.425 . S
C582 C589 1.409 . S
C583 H575 0.930 . S
C583 C581 1.419 . S
C583 C584 1.362 . S
C584 H576 0.930 . S
C584 C583 1.362 . S
C584 C587 1.409 . S
C585 H577 0.930 . S
C585 C586 1.355 . S
C585 C587 1.415 . S
C586 C585 1.355 . S
C586 C588 1.419 . S
C587 C582 1.425 . S
C587 C584 1.409 . S
C587 C585 1.415 . S
C588 H578 0.930 . S
C588 C586 1.419 . S
C588 C589 1.362 . S
C589 H579 0.930 . S
C589 C582 1.409 . S
C589 C588 1.362 . S
H590 C596 0.930 . S
H591 C599 0.930 . S
H592 C600 0.930 . S
H593 C601 0.930 . S
H594 C604 0.930 . S
H595 C605 0.930 . S
C596 H590 0.930 . S
C596 C597 1.355 . S
C596 C598 1.415 . S
C597 C596 1.355 . S
C597 C599 1.419 . S
C598 C596 1.415 . S
C598 C603 1.425 . S
C598 C605 1.409 . S
C599 H591 0.930 . S
C599 C597 1.419 . S
C599 C600 1.362 . S
C600 H592 0.930 . S
C600 C599 1.362 . S
C600 C603 1.409 . S
C601 H593 0.930 . S
C601 C602 1.355 . S
C601 C603 1.415 . S
C602 C601 1.355 . S
C602 C604 1.419 . S
C603 C598 1.425 . S
C603 C600 1.409 . S
C603 C601 1.415 . S
C604 H594 0.930 . S
C604 C602 1.419 . S
C604 C605 1.362 . S
C605 H595 0.930 . S
C605 C598 1.409 . S
C605 C604 1.362 . S
H606 C612 0.930 . S
H607 C615 0.930 . S
H608 C616 0.930 . S
H609 C617 0.907 1_554 S
H610 C620 0.930 . S
H611 C621 0.930 . S
C612 H606 0.930 . S
C612 C613 1.355 . S
C612 C614 1.415 . S
C613 C612 1.355 . S
C613 C615 1.419 . S
C614 C612 1.415 . S
C614 C619 1.425 . S
C614 C621 1.409 . S
C615 H607 0.930 . S
C615 C613 1.419 . S
C615 C616 1.362 . S
C616 H608 0.930 . S
C616 C615 1.362 . S
C616 C619 1.409 . S
C617 H609 0.907 1_556 S
C617 C618 1.350 1_556 S
C617 C619 1.442 . S
C618 C617 1.350 1_554 S
C618 C620 1.419 1_554 S
C619 C614 1.425 . S
C619 C616 1.409 . S
C619 C617 1.442 . S
C620 H610 0.930 . S
C620 C618 1.419 1_556 S
C620 C621 1.362 . S
C621 H611 0.930 . S
C621 C614 1.409 . S
C621 C620 1.362 . S
H622 C628 0.930 . S
H623 C631 0.930 . S
H624 C632 0.930 . S
H625 C633 0.930 . S
H626 C636 0.930 . S
H627 C637 0.930 . S
C628 H622 0.930 . S
C628 C629 1.355 . S
C628 C630 1.415 . S
C629 C628 1.355 . S
C629 C631 1.419 . S
C630 C628 1.415 . S
C630 C635 1.425 . S
C630 C637 1.409 . S
C631 H623 0.930 . S
C631 C629 1.419 . S
C631 C632 1.362 . S
C632 H624 0.930 . S
C632 C631 1.362 . S
C632 C635 1.409 . S
C633 H625 0.930 . S
C633 C634 1.355 . S
C633 C635 1.415 . S
C634 C633 1.355 . S
C634 C636 1.419 . S
C635 C630 1.425 . S
C635 C632 1.409 . S
C635 C633 1.415 . S
C636 H626 0.930 . S
C636 C634 1.419 . S
C636 C637 1.362 . S
C637 H627 0.930 . S
C637 C630 1.409 . S
C637 C636 1.362 . S
H638 C644 0.930 . S
H639 C647 0.930 . S
H640 C648 0.930 . S
H641 C649 0.930 . S
H642 C652 0.930 . S
H643 C653 0.930 . S
C644 H638 0.930 . S
C644 C645 1.355 . S
C644 C646 1.415 . S
C645 C644 1.355 . S
C645 C647 1.419 . S
C646 C644 1.415 . S
C646 C651 1.425 . S
C646 C653 1.409 . S
C647 H639 0.930 . S
C647 C645 1.419 . S
C647 C648 1.362 . S
C648 H640 0.930 . S
C648 C647 1.362 . S
C648 C651 1.409 . S
C649 H641 0.930 . S
C649 C650 1.355 . S
C649 C651 1.415 . S
C650 C649 1.355 . S
C650 C652 1.419 . S
C651 C646 1.425 . S
C651 C648 1.409 . S
C651 C649 1.415 . S
C652 H642 0.930 . S
C652 C650 1.419 . S
C652 C653 1.362 . S
C653 H643 0.930 . S
C653 C646 1.409 . S
C653 C652 1.362 . S
H654 C660 0.930 . S
H655 C663 0.930 . S
H656 C664 0.930 . S
H657 C665 0.930 . S
H658 C668 0.930 . S
H659 C669 0.930 . S
C660 H654 0.930 . S
C660 C661 1.355 . S
C660 C662 1.415 . S
C661 C660 1.355 . S
C661 C663 1.419 . S
C662 C660 1.415 . S
C662 C667 1.425 . S
C662 C669 1.409 . S
C663 H655 0.930 . S
C663 C661 1.419 . S
C663 C664 1.362 . S
C664 H656 0.930 . S
C664 C663 1.362 . S
C664 C667 1.409 . S
C665 H657 0.930 . S
C665 C666 1.355 . S
C665 C667 1.415 . S
C666 C665 1.355 . S
C666 C668 1.419 . S
C667 C662 1.425 . S
C667 C664 1.409 . S
C667 C665 1.415 . S
C668 H658 0.930 . S
C668 C666 1.419 . S
C668 C669 1.362 . S
C669 H659 0.930 . S
C669 C662 1.409 . S
C669 C668 1.362 . S
H670 C676 0.930 . S
H671 C679 0.930 . S
H672 C680 0.930 . S
H673 C681 0.930 . S
H674 C684 0.930 . S
H675 C685 0.930 . S
C676 H670 0.930 . S
C676 C677 1.355 . S
C676 C678 1.415 . S
C677 C676 1.355 . S
C677 C679 1.419 . S
C678 C676 1.415 . S
C678 C683 1.425 . S
C678 C685 1.409 . S
C679 H671 0.930 . S
C679 C677 1.419 . S
C679 C680 1.362 . S
C680 H672 0.930 . S
C680 C679 1.362 . S
C680 C683 1.409 . S
C681 H673 0.930 . S
C681 C682 1.355 . S
C681 C683 1.415 . S
C682 C681 1.355 . S
C682 C684 1.419 . S
C683 C678 1.425 . S
C683 C680 1.409 . S
C683 C681 1.415 . S
C684 H674 0.930 . S
C684 C682 1.419 . S
C684 C685 1.362 . S
C685 H675 0.930 . S
C685 C678 1.409 . S
C685 C684 1.362 . S
H686 C692 0.930 . S
H687 C695 0.930 . S
H688 C696 0.930 . S
H689 C697 0.930 . S
H690 C700 0.930 . S
H691 C701 0.930 . S
C692 H686 0.930 . S
C692 C693 1.355 . S
C692 C694 1.415 . S
C693 C692 1.355 . S
C693 C695 1.419 . S
C694 C692 1.415 . S
C694 C699 1.425 . S
C694 C701 1.409 . S
C695 H687 0.930 . S
C695 C693 1.419 . S
C695 C696 1.362 . S
C696 H688 0.930 . S
C696 C695 1.362 . S
C696 C699 1.409 . S
C697 H689 0.930 . S
C697 C698 1.355 . S
C697 C699 1.415 . S
C698 C697 1.355 . S
C698 C700 1.419 . S
C699 C694 1.425 . S
C699 C696 1.409 . S
C699 C697 1.415 . S
C700 H690 0.930 . S
C700 C698 1.419 . S
C700 C701 1.362 . S
C701 H691 0.930 . S
C701 C694 1.409 . S
C701 C700 1.362 . S
H702 C708 0.930 . S
H703 C711 0.930 . S
H704 C712 0.930 . S
H705 C713 0.930 . S
H706 C716 0.930 . S
H707 C717 0.930 . S
C708 H702 0.930 . S
C708 C709 1.355 . S
C708 C710 1.415 . S
C709 C708 1.355 . S
C709 C711 1.419 . S
C710 C708 1.415 . S
C710 C715 1.425 . S
C710 C717 1.409 . S
C711 H703 0.930 . S
C711 C709 1.419 . S
C711 C712 1.362 . S
C712 H704 0.930 . S
C712 C711 1.362 . S
C712 C715 1.409 . S
C713 H705 0.930 . S
C713 C714 1.355 . S
C713 C715 1.415 . S
C714 C713 1.355 . S
C714 C716 1.419 . S
C715 C710 1.425 . S
C715 C712 1.409 . S
C715 C713 1.415 . S
C716 H706 0.930 . S
C716 C714 1.419 . S
C716 C717 1.362 . S
C717 H707 0.930 . S
C717 C710 1.409 . S
C717 C716 1.362 . S
H718 C724 0.930 . S
H719 C727 0.930 . S
H720 C728 0.930 1_556 S
H721 C729 0.930 . S
H722 C732 0.930 . S
H723 C733 0.930 1_554 S
C724 H718 0.930 . S
C724 C725 1.355 . S
C724 C726 1.415 . S
C725 C724 1.355 . S
C725 C727 1.419 . S
C726 C724 1.415 . S
C726 C731 1.425 1_554 S
C726 C733 1.409 1_554 S
C727 H719 0.930 . S
C727 C725 1.419 . S
C727 C728 1.362 . S
C728 H720 0.930 1_554 S
C728 C727 1.362 . S
C728 C731 1.409 1_554 S
C729 H721 0.930 . S
C729 C730 1.355 . S
C729 C731 1.415 . S
C730 C729 1.355 . S
C730 C732 1.419 . S
C731 C726 1.425 1_556 S
C731 C728 1.409 1_556 S
C731 C729 1.415 . S
C732 H722 0.930 . S
C732 C730 1.419 . S
C732 C733 1.362 . S
C733 H723 0.930 1_556 S
C733 C726 1.409 1_556 S
C733 C732 1.362 . S
H734 C740 0.930 . S
H735 C743 0.930 . S
H736 C744 0.930 . S
H737 C745 0.930 . S
H738 C748 0.930 . S
H739 C749 0.930 . S
C740 H734 0.930 . S
C740 C741 1.355 . S
C740 C742 1.415 . S
C741 C740 1.355 . S
C741 C743 1.419 . S
C742 C740 1.415 . S
C742 C747 1.425 . S
C742 C749 1.409 . S
C743 H735 0.930 . S
C743 C741 1.419 . S
C743 C744 1.362 . S
C744 H736 0.930 . S
C744 C743 1.362 . S
C744 C747 1.409 . S
C745 H737 0.930 . S
C745 C746 1.355 . S
C745 C747 1.415 . S
C746 C745 1.355 . S
C746 C748 1.419 . S
C747 C742 1.425 . S
C747 C744 1.409 . S
C747 C745 1.415 . S
C748 H738 0.930 . S
C748 C746 1.419 . S
C748 C749 1.362 . S
C749 H739 0.930 . S
C749 C742 1.409 . S
C749 C748 1.362 . S
C378 C363 1.607 . S
C373 C45 1.610 . S
C389 C84 1.585 . S
C394 C288 1.529 . S
C405 C126 1.561 . S
C410 C311 1.631 . S
C421 C189 1.475 . S
C426 C324 1.466 . S
C442 C327 1.583 . S
C437 C228 1.634 . S
C453 C270 1.467 . S
C458 C340 1.439 . S
C469 C69 1.522 . S
C474 C301 1.488 . S
C485 C141 1.635 . S
C490 C314 1.568 . S
C501 C174 1.415 . S
C506 C337 1.473 . S
C522 C350 1.650 . S
C517 C213 1.628 . S
C538 C353 1.460 . S
C533 C285 1.571 . S
C554 C298 1.604 . S
C549 C30 1.533 . S
C565 C36 1.479 . S
C570 C309 1.423 . S
C581 C93 1.452 . S
C586 C322 1.447 . S
C602 C332 1.415 . S
C597 C117 1.485 . S
C613 C180 1.477 . S
C618 C345 1.397 . S
C634 C361 1.480 . S
C629 C237 1.496 . S
C650 C293 1.379 . S
C645 C261 1.447 . S
C666 C358 1.441 . S
C661 C78 1.462 . S
C677 C132 1.498 . S
C682 C296 1.438 . S
C698 C306 1.428 . S
C693 C165 1.463 . S
C709 C222 1.468 . S
C714 C319 1.409 . S
C725 C276 1.465 . S
C730 C335 1.448 . S
C741 C21 1.467 . S
C746 C348 1.418 . S
