# Generated by pormake.
# Topology pto, (3,4)-cn, num edge types: 1
# Building blocks:
#     Node 0, Type 0, BuildingBlock: WUSLED_clean_sbu_0, # of connection points: 3
#     Node 1, Type 0, BuildingBlock: WUSLED_clean_sbu_0, # of connection points: 3
#     Node 2, Type 0, BuildingBlock: WUSLED_clean_sbu_0, # of connection points: 3
#     Node 3, Type 0, BuildingBlock: WUSLED_clean_sbu_0, # of connection points: 3
#     Node 4, Type 0, BuildingBlock: WUSLED_clean_sbu_0, # of connection points: 3
#     Node 5, Type 0, BuildingBlock: WUSLED_clean_sbu_0, # of connection points: 3
#     Node 6, Type 0, BuildingBlock: WUSLED_clean_sbu_0, # of connection points: 3
#     Node 7, Type 0, BuildingBlock: WUSLED_clean_sbu_0, # of connection points: 3
#     Node 8, Type 1, BuildingBlock: GIZVER_clean_linker_0, # of connection points: 4
#     Node 9, Type 1, BuildingBlock: GIZVER_clean_linker_0, # of connection points: 4
#     Node 10, Type 1, BuildingBlock: GIZVER_clean_linker_0, # of connection points: 4
#     Node 11, Type 1, BuildingBlock: GIZVER_clean_linker_0, # of connection points: 4
#     Node 12, Type 1, BuildingBlock: GIZVER_clean_linker_0, # of connection points: 4
#     Node 13, Type 1, BuildingBlock: GIZVER_clean_linker_0, # of connection points: 4
#     Edge 14, Type (0, 1), BuildingBlock: UVAHIK_clean_linker_0, # of connection points: 2
#     Edge 15, Type (0, 1), BuildingBlock: UVAHIK_clean_linker_0, # of connection points: 2
#     Edge 16, Type (0, 1), BuildingBlock: UVAHIK_clean_linker_0, # of connection points: 2
#     Edge 17, Type (0, 1), BuildingBlock: UVAHIK_clean_linker_0, # of connection points: 2
#     Edge 18, Type (0, 1), BuildingBlock: UVAHIK_clean_linker_0, # of connection points: 2
#     Edge 19, Type (0, 1), BuildingBlock: UVAHIK_clean_linker_0, # of connection points: 2
#     Edge 20, Type (0, 1), BuildingBlock: UVAHIK_clean_linker_0, # of connection points: 2
#     Edge 21, Type (0, 1), BuildingBlock: UVAHIK_clean_linker_0, # of connection points: 2
#     Edge 22, Type (0, 1), BuildingBlock: UVAHIK_clean_linker_0, # of connection points: 2
#     Edge 23, Type (0, 1), BuildingBlock: UVAHIK_clean_linker_0, # of connection points: 2
#     Edge 24, Type (0, 1), BuildingBlock: UVAHIK_clean_linker_0, # of connection points: 2
#     Edge 25, Type (0, 1), BuildingBlock: UVAHIK_clean_linker_0, # of connection points: 2
#     Edge 26, Type (0, 1), BuildingBlock: UVAHIK_clean_linker_0, # of connection points: 2
#     Edge 27, Type (0, 1), BuildingBlock: UVAHIK_clean_linker_0, # of connection points: 2
#     Edge 28, Type (0, 1), BuildingBlock: UVAHIK_clean_linker_0, # of connection points: 2
#     Edge 29, Type (0, 1), BuildingBlock: UVAHIK_clean_linker_0, # of connection points: 2
#     Edge 30, Type (0, 1), BuildingBlock: UVAHIK_clean_linker_0, # of connection points: 2
#     Edge 31, Type (0, 1), BuildingBlock: UVAHIK_clean_linker_0, # of connection points: 2
#     Edge 32, Type (0, 1), BuildingBlock: UVAHIK_clean_linker_0, # of connection points: 2
#     Edge 33, Type (0, 1), BuildingBlock: UVAHIK_clean_linker_0, # of connection points: 2
#     Edge 34, Type (0, 1), BuildingBlock: UVAHIK_clean_linker_0, # of connection points: 2
#     Edge 35, Type (0, 1), BuildingBlock: UVAHIK_clean_linker_0, # of connection points: 2
#     Edge 36, Type (0, 1), BuildingBlock: UVAHIK_clean_linker_0, # of connection points: 2
#     Edge 37, Type (0, 1), BuildingBlock: UVAHIK_clean_linker_0, # of connection points: 2
# Relax obj value: 0.003
# Max RMSD: 0.031
# Mean RMSD: 0.021
data_MOF--net-pto--node1-WUSLED_clean_sbu_0--node2-GIZVER_clean_linker_0--edge1-UVAHIK_clean_linker_0
_symmetry_space_group_name_H-M    P1
_symmetry_Int_Tables_number       1
_symmetry_cell_setting            triclinic
loop_
_symmetry_equiv_pos_as_xyz
'x, y, z'
_cell_length_a     81.431579
_cell_length_b     65.71055
_cell_length_c     47.873148
_cell_angle_alpha  89.36266
_cell_angle_beta   90.332855
_cell_angle_gamma 90.214158
loop_
_atom_site_label
_atom_site_type_symbol
_atom_site_fract_x
_atom_site_fract_y
_atom_site_fract_z
_atom_type_partial_charge
C0 C 0.24906 0.26509 0.26024 0.0
C1 C 0.26001 0.25098 0.24893 0.0
C2 C 0.25325 0.22648 0.28579 0.0
C3 C 0.26203 0.23182 0.26152 0.0
C4 C 0.24241 0.24081 0.29712 0.0
C5 C 0.24031 0.25988 0.28441 0.0
U6 U 0.26514 0.31189 0.22081 0.0
O7 O 0.25368 0.33015 0.18729 0.0
O8 O 0.25981 0.34435 0.22734 0.0
C9 C 0.25204 0.34616 0.20329 0.0
C10 C 0.24666 0.28533 0.24739 0.0
C11 C 0.23543 0.35515 0.20463 0.0
C12 C 0.20578 0.35296 0.19811 0.0
C13 C 0.22138 0.3442 0.19634 0.0
C14 C 0.21797 0.38362 0.21684 0.0
C15 C 0.2039 0.37274 0.2085 0.0
C16 C 0.23357 0.37494 0.21481 0.0
C17 C 0.31127 0.31227 0.19963 0.0
C18 C 0.33708 0.331 0.20376 0.0
C19 C 0.33119 0.31198 0.16188 0.0
C20 C 0.31605 0.306 0.17291 0.0
C21 C 0.34204 0.32423 0.17736 0.0
C22 C 0.3219 0.32501 0.21483 0.0
C23 C 0.29627 0.30353 0.21264 0.0
O24 O 0.25421 0.30041 0.25994 0.0
O25 O 0.24769 0.28631 0.22001 0.0
O26 O 0.28443 0.29778 0.19563 0.0
O27 O 0.29082 0.31226 0.23536 0.0
H28 H 0.26697 0.25473 0.23035 0.0
H29 H 0.27035 0.22113 0.25204 0.0
H30 H 0.2357 0.23744 0.31608 0.0
H31 H 0.2319 0.27063 0.29356 0.0
H32 H 0.19516 0.34413 0.19177 0.0
H33 H 0.22239 0.32882 0.18862 0.0
H34 H 0.21693 0.39897 0.22465 0.0
H35 H 0.24421 0.38368 0.2213 0.0
H36 H 0.34519 0.34028 0.21637 0.0
H37 H 0.33451 0.30673 0.1413 0.0
H38 H 0.30828 0.29598 0.16076 0.0
H39 H 0.31876 0.32987 0.23566 0.0
C40 C 0.24389 0.76089 0.73608 0.0
C41 C 0.25907 0.76742 0.72546 0.0
C42 C 0.24652 0.79874 0.70799 0.0
C43 C 0.26037 0.78616 0.71148 0.0
C44 C 0.23142 0.79222 0.71921 0.0
C45 C 0.23013 0.77346 0.73308 0.0
U46 U 0.2624 0.71449 0.77284 0.0
O47 O 0.25336 0.69706 0.80919 0.0
O48 O 0.25623 0.68205 0.76883 0.0
C49 C 0.25044 0.68071 0.79435 0.0
C50 C 0.24218 0.74099 0.75008 0.0
C51 C 0.23366 0.67248 0.79638 0.0
C52 C 0.20436 0.67574 0.78752 0.0
C53 C 0.22024 0.68388 0.78652 0.0
C54 C 0.21511 0.64477 0.80848 0.0
C55 C 0.2016 0.65603 0.79836 0.0
C56 C 0.231 0.65294 0.80746 0.0
C57 C 0.30965 0.71349 0.78287 0.0
C58 C 0.32623 0.69596 0.818 0.0
C59 C 0.33917 0.71073 0.77707 0.0
C60 C 0.32386 0.71724 0.76725 0.0
C61 C 0.34061 0.7004 0.80285 0.0
C62 C 0.31087 0.70245 0.80809 0.0
C63 C 0.29403 0.72247 0.77322 0.0
O64 O 0.24822 0.72545 0.73653 0.0
O65 O 0.2458 0.74066 0.77686 0.0
O66 O 0.28392 0.72858 0.79272 0.0
O67 O 0.28657 0.7133 0.75241 0.0
H68 H 0.26985 0.75791 0.7277 0.0
H69 H 0.27214 0.79056 0.70284 0.0
H70 H 0.22058 0.80164 0.71734 0.0
H71 H 0.21835 0.7687 0.74135 0.0
H72 H 0.19424 0.68492 0.77987 0.0
H73 H 0.22209 0.69902 0.77788 0.0
H74 H 0.21347 0.62946 0.81661 0.0
H75 H 0.24124 0.6439 0.81502 0.0
H76 H 0.3269 0.68817 0.83802 0.0
H77 H 0.34994 0.71408 0.76462 0.0
H78 H 0.32316 0.72566 0.74768 0.0
H79 H 0.30004 0.69934 0.82049 0.0
C80 C 0.7321 0.71011 0.21814 0.0
C81 C 0.73097 0.69991 0.19257 0.0
C82 C 0.70122 0.69732 0.19752 0.0
C83 C 0.71564 0.69356 0.18235 0.0
C84 C 0.70257 0.70677 0.22366 0.0
C85 C 0.71785 0.71312 0.2338 0.0
U86 U 0.7793 0.71173 0.22998 0.0
O87 O 0.79575 0.73826 0.22605 0.0
O88 O 0.79289 0.72281 0.26662 0.0
C89 C 0.79872 0.73876 0.25305 0.0
C90 C 0.74764 0.71913 0.22812 0.0
C91 C 0.79662 0.7588 0.26635 0.0
C92 C 0.78616 0.77995 0.30365 0.0
C93 C 0.78767 0.76091 0.29118 0.0
C94 C 0.8023 0.79519 0.26657 0.0
C95 C 0.79349 0.79734 0.29156 0.0
C96 C 0.8039 0.77613 0.25421 0.0
C97 C 0.8086 0.67011 0.20788 0.0
C98 C 0.83613 0.66605 0.22712 0.0
C99 C 0.82874 0.64966 0.18374 0.0
C100 C 0.81294 0.65784 0.18538 0.0
C101 C 0.84052 0.65351 0.20472 0.0
C102 C 0.82036 0.67434 0.22861 0.0
C103 C 0.79183 0.67841 0.20945 0.0
O104 O 0.75483 0.70994 0.2494 0.0
O105 O 0.75798 0.72549 0.20889 0.0
O106 O 0.78908 0.69483 0.19423 0.0
O107 O 0.78557 0.67938 0.23466 0.0
H108 H 0.74182 0.69738 0.18013 0.0
H109 H 0.71504 0.68645 0.16207 0.0
H110 H 0.69177 0.70956 0.23612 0.0
H111 H 0.71847 0.7209 0.25362 0.0
H112 H 0.77952 0.78093 0.32312 0.0
H113 H 0.78192 0.74787 0.30116 0.0
H114 H 0.80792 0.80826 0.25644 0.0
H115 H 0.81088 0.77492 0.23509 0.0
H116 H 0.84476 0.66918 0.24384 0.0
H117 H 0.83174 0.64042 0.16591 0.0
H118 H 0.80408 0.65455 0.16904 0.0
H119 H 0.81732 0.68392 0.2461 0.0
C120 C 0.76121 0.25878 0.74451 0.0
C121 C 0.77165 0.2439 0.75615 0.0
C122 C 0.76554 0.22108 0.71761 0.0
C123 C 0.77376 0.22524 0.74286 0.0
C124 C 0.75521 0.23609 0.70596 0.0
C125 C 0.75302 0.25466 0.71934 0.0
U126 U 0.77544 0.3104 0.77332 0.0
O127 O 0.76303 0.34006 0.77085 0.0
O128 O 0.76807 0.32595 0.81172 0.0
C129 C 0.76023 0.34035 0.79786 0.0
C130 C 0.75826 0.27837 0.75852 0.0
C131 C 0.7429 0.34277 0.80565 0.0
C132 C 0.71483 0.33006 0.8054 0.0
C133 C 0.73118 0.32841 0.79705 0.0
C134 C 0.72164 0.36064 0.83087 0.0
C135 C 0.70987 0.34609 0.82266 0.0
C136 C 0.73803 0.35897 0.82245 0.0
C137 C 0.82149 0.32449 0.76615 0.0
C138 C 0.83445 0.35584 0.78157 0.0
C139 C 0.85055 0.33029 0.75813 0.0
C140 C 0.83661 0.31798 0.75579 0.0
C141 C 0.84966 0.34943 0.7709 0.0
C142 C 0.82045 0.34347 0.77915 0.0
C143 C 0.80708 0.31118 0.76277 0.0
O144 O 0.76461 0.28058 0.78363 0.0
O145 O 0.7597 0.29477 0.74272 0.0
O146 O 0.79585 0.3175 0.74488 0.0
O147 O 0.80087 0.3034 0.78583 0.0
H148 H 0.77811 0.24655 0.77562 0.0
H149 H 0.78165 0.21397 0.75262 0.0
H150 H 0.74889 0.2336 0.68631 0.0
H151 H 0.74487 0.26584 0.70997 0.0
H152 H 0.70608 0.31875 0.79836 0.0
H153 H 0.73474 0.31577 0.78406 0.0
H154 H 0.71829 0.37303 0.84441 0.0
H155 H 0.74693 0.37014 0.82939 0.0
H156 H 0.83332 0.37056 0.7913 0.0
H157 H 0.86208 0.32472 0.75012 0.0
H158 H 0.83763 0.30333 0.74579 0.0
H159 H 0.80884 0.34873 0.78724 0.0
C160 C 0.80772 0.66542 0.7983 0.0
C161 C 0.82085 0.67573 0.78553 0.0
C162 C 0.83974 0.64911 0.80092 0.0
C163 C 0.83672 0.66764 0.78678 0.0
C164 C 0.8265 0.63895 0.81383 0.0
C165 C 0.81064 0.64704 0.8125 0.0
U166 U 0.77848 0.70739 0.77598 0.0
O167 O 0.7539 0.70599 0.75648 0.0
O168 O 0.75732 0.72096 0.79692 0.0
C169 C 0.74685 0.71496 0.77766 0.0
C170 C 0.79095 0.67363 0.79661 0.0
C171 C 0.73139 0.70583 0.78773 0.0
C172 C 0.71569 0.68671 0.82228 0.0
C173 C 0.73082 0.69346 0.81181 0.0
C174 C 0.70165 0.704 0.78416 0.0
C175 C 0.7009 0.69222 0.80884 0.0
C176 C 0.71674 0.71075 0.77378 0.0
C177 C 0.79584 0.75493 0.73961 0.0
C178 C 0.78538 0.77667 0.7021 0.0
C179 C 0.80184 0.79124 0.73916 0.0
C180 C 0.80333 0.77201 0.75168 0.0
C181 C 0.79293 0.79381 0.7141 0.0
C182 C 0.78679 0.75747 0.71473 0.0
C183 C 0.7979 0.73467 0.753 0.0
O184 O 0.78826 0.68983 0.81176 0.0
O185 O 0.78478 0.67511 0.77124 0.0
O186 O 0.79194 0.71897 0.73942 0.0
O187 O 0.79504 0.73378 0.77998 0.0
H188 H 0.81881 0.69001 0.77452 0.0
H189 H 0.84664 0.67597 0.77689 0.0
H190 H 0.82833 0.62453 0.82455 0.0
H191 H 0.80063 0.63885 0.8224 0.0
H192 H 0.71556 0.67778 0.84143 0.0
H193 H 0.74201 0.68947 0.8229 0.0
H194 H 0.69055 0.70822 0.77301 0.0
H195 H 0.71694 0.72023 0.75511 0.0
H196 H 0.77866 0.77798 0.68259 0.0
H197 H 0.80762 0.80411 0.74923 0.0
H198 H 0.8104 0.77047 0.77083 0.0
H199 H 0.78089 0.74462 0.7048 0.0
C200 C 0.7315 0.3104 0.21045 0.0
C201 C 0.73042 0.32835 0.19438 0.0
C202 C 0.70103 0.32257 0.18748 0.0
C203 C 0.71526 0.33443 0.18302 0.0
C204 C 0.70226 0.30481 0.20402 0.0
C205 C 0.71733 0.29882 0.21534 0.0
U206 U 0.77834 0.31294 0.2266 0.0
O207 O 0.79077 0.30284 0.26526 0.0
O208 O 0.79592 0.28765 0.22572 0.0
C209 C 0.7979 0.28745 0.25298 0.0
C210 C 0.74715 0.30302 0.22205 0.0
C211 C 0.79543 0.26756 0.26662 0.0
C212 C 0.77814 0.2383 0.27715 0.0
C213 C 0.78041 0.2572 0.26401 0.0
C214 C 0.80586 0.23997 0.2957 0.0
C215 C 0.79083 0.22945 0.2932 0.0
C216 C 0.80813 0.25885 0.2825 0.0
C217 C 0.8072 0.35572 0.2058 0.0
C218 C 0.83437 0.35924 0.22664 0.0
C219 C 0.82782 0.37712 0.18349 0.0
C220 C 0.81195 0.36886 0.18402 0.0
C221 C 0.8392 0.37247 0.20486 0.0
C222 C 0.81855 0.35085 0.22702 0.0
C223 C 0.79054 0.34684 0.2059 0.0
O224 O 0.75833 0.29766 0.20388 0.0
O225 O 0.75322 0.31312 0.24332 0.0
O226 O 0.7834 0.34567 0.23046 0.0
O227 O 0.78873 0.33022 0.19113 0.0
H228 H 0.74128 0.33748 0.19041 0.0
H229 H 0.71474 0.34811 0.17024 0.0
H230 H 0.69152 0.29553 0.20828 0.0
H231 H 0.71793 0.28498 0.22783 0.0
H232 H 0.76649 0.23053 0.27452 0.0
H233 H 0.77047 0.26374 0.25179 0.0
H234 H 0.8158 0.23378 0.30825 0.0
H235 H 0.81977 0.26671 0.28481 0.0
H236 H 0.8429 0.35516 0.2432 0.0
H237 H 0.83112 0.3874 0.16657 0.0
H238 H 0.80339 0.37272 0.1674 0.0
H239 H 0.81521 0.34053 0.24386 0.0
C240 C 0.24866 0.26617 0.72868 0.0
C241 C 0.2594 0.25161 0.74019 0.0
C242 C 0.25231 0.22787 0.70321 0.0
C243 C 0.26114 0.23262 0.72767 0.0
C244 C 0.24165 0.24261 0.6917 0.0
C245 C 0.23982 0.26152 0.70437 0.0
U246 U 0.26638 0.31246 0.76572 0.0
O247 O 0.26087 0.34504 0.75992 0.0
O248 O 0.25669 0.33024 0.80057 0.0
C249 C 0.25419 0.34647 0.78478 0.0
C250 C 0.24666 0.28631 0.74146 0.0
C251 C 0.23749 0.35548 0.7856 0.0
C252 C 0.2101 0.35733 0.80573 0.0
C253 C 0.2258 0.34877 0.80522 0.0
C254 C 0.21739 0.37962 0.76715 0.0
C255 C 0.20569 0.37283 0.78666 0.0
C256 C 0.23313 0.37112 0.76673 0.0
C257 C 0.31334 0.31095 0.78086 0.0
C258 C 0.32941 0.33478 0.80844 0.0
C259 C 0.34272 0.30622 0.78651 0.0
C260 C 0.32767 0.30003 0.77536 0.0
C261 C 0.34378 0.32351 0.80348 0.0
C262 C 0.31427 0.3285 0.79726 0.0
C263 C 0.29766 0.30314 0.76989 0.0
O264 O 0.24882 0.28707 0.76867 0.0
O265 O 0.25362 0.30156 0.72799 0.0
O266 O 0.29135 0.31292 0.74829 0.0
O267 O 0.28667 0.29772 0.78857 0.0
H268 H 0.26645 0.25489 0.75888 0.0
H269 H 0.2693 0.22161 0.73734 0.0
H270 H 0.23489 0.23969 0.67261 0.0
H271 H 0.23156 0.27261 0.69505 0.0
H272 H 0.20134 0.35164 0.82089 0.0
H273 H 0.22871 0.33683 0.8202 0.0
H274 H 0.21448 0.39176 0.75247 0.0
H275 H 0.2419 0.37683 0.75159 0.0
H276 H 0.3298 0.3481 0.82155 0.0
H277 H 0.35356 0.2974 0.78188 0.0
H278 H 0.32718 0.28649 0.76264 0.0
H279 H 0.30329 0.33711 0.80173 0.0
C280 C 0.22192 0.69872 0.23136 0.0
C281 C 0.22031 0.68491 0.20932 0.0
C282 C 0.19401 0.67318 0.22777 0.0
C283 C 0.20644 0.6723 0.20749 0.0
C284 C 0.19582 0.6869 0.24994 0.0
C285 C 0.20962 0.69953 0.25166 0.0
U286 U 0.2673 0.7143 0.22076 0.0
O287 O 0.27725 0.74428 0.20832 0.0
O288 O 0.28371 0.7309 0.24914 0.0
C289 C 0.28449 0.74698 0.2326 0.0
C290 C 0.23597 0.71284 0.23341 0.0
C291 C 0.28167 0.76679 0.24583 0.0
C292 C 0.26969 0.78744 0.28222 0.0
C293 C 0.27131 0.76868 0.26898 0.0
C294 C 0.28827 0.80279 0.24868 0.0
C295 C 0.27831 0.80469 0.27244 0.0
C296 C 0.28996 0.78402 0.23559 0.0
C297 C 0.2993 0.68069 0.18811 0.0
C298 C 0.32825 0.68968 0.19093 0.0
C299 C 0.3192 0.6633 0.15937 0.0
C300 C 0.30298 0.66608 0.16804 0.0
C301 C 0.33206 0.67508 0.17068 0.0
C302 C 0.31203 0.69251 0.19946 0.0
C303 C 0.28217 0.68384 0.19675 0.0
O304 O 0.24768 0.70754 0.25101 0.0
O305 O 0.24154 0.72045 0.20975 0.0
O306 O 0.27417 0.69796 0.18264 0.0
O307 O 0.27987 0.68481 0.22387 0.0
H308 H 0.22971 0.68397 0.19347 0.0
H309 H 0.2055 0.66173 0.19034 0.0
H310 H 0.18641 0.68815 0.26572 0.0
H311 H 0.2106 0.71014 0.26877 0.0
H312 H 0.26205 0.78825 0.30062 0.0
H313 H 0.26471 0.75559 0.27718 0.0
H314 H 0.29484 0.81581 0.24023 0.0
H315 H 0.29793 0.78289 0.21763 0.0
H316 H 0.33781 0.69885 0.20038 0.0
H317 H 0.3216 0.65217 0.1434 0.0
H318 H 0.29329 0.65692 0.15891 0.0
H319 H 0.30942 0.70396 0.21492 0.0
H320 H 1.00451 0.48039 0.18125 0.0
H321 H 1.0052 0.54596 0.18136 0.0
H322 H 0.96387 0.51334 0.21504 0.0
H323 H 0.02307 0.49949 0.15052 0.0
H324 H 0.02296 0.52659 0.14969 0.0
H325 H 0.04042 0.48075 0.18383 0.0
H326 H 0.07934 0.51454 0.22301 0.0
H327 H 0.03953 0.54637 0.18308 0.0
C328 C 0.99898 0.49469 0.18716 0.0
C329 C 0.98346 0.49466 0.19987 0.0
C330 C 1.00706 0.51316 0.18085 0.0
C331 C 0.99937 0.5317 0.18722 0.0
C332 C 0.98385 0.53185 0.19992 0.0
C333 C 0.97621 0.51328 0.20663 0.0
C334 C 0.02272 0.51315 0.16403 0.0
C335 C 0.03789 0.5135 0.18238 0.0
C336 C 0.04568 0.49516 0.1902 0.0
C337 C 0.0606 0.49543 0.20511 0.0
C338 C 0.06745 0.5142 0.21271 0.0
C339 C 0.06003 0.53261 0.2048 0.0
C340 C 0.04516 0.5322 0.18978 0.0
H341 H 0.03878 0.54471 0.76719 0.0
H342 H 0.04029 0.47929 0.76204 0.0
H343 H 0.07984 0.51166 0.80136 0.0
H344 H 0.02163 0.52646 0.73322 0.0
H345 H 0.02212 0.49942 0.73125 0.0
H346 H 1.004 0.54362 0.76735 0.0
H347 H 0.96407 0.50808 0.80018 0.0
H348 H 1.00478 0.47823 0.76143 0.0
C349 C 0.04469 0.53038 0.77233 0.0
C350 C 0.06001 0.53041 0.78605 0.0
C351 C 0.03732 0.51196 0.76401 0.0
C352 C 0.0455 0.49346 0.76944 0.0
C353 C 0.06072 0.49331 0.7834 0.0
C354 C 0.06768 0.51176 0.79199 0.0
C355 C 0.02194 0.51229 0.74617 0.0
C356 C 1.00646 0.51101 0.76343 0.0
C357 C 0.99859 0.5289 0.7721 0.0
C358 C 0.98339 0.52785 0.78581 0.0
C359 C 0.97622 0.50877 0.79105 0.0
C360 C 0.98369 0.49077 0.78217 0.0
C361 C 0.99899 0.49199 0.76873 0.0
H362 H 0.28582 0.03354 0.4538 0.0
H363 H 0.28484 0.03412 0.54371 0.0
H364 H 0.2622 0.08252 0.49646 0.0
H365 H 0.30572 0.01331 0.48264 0.0
H366 H 0.30368 0.01185 0.5197 0.0
H367 H 0.28884 0.99222 0.45216 0.0
H368 H 0.26316 0.94198 0.49037 0.0
H369 H 0.28218 0.99017 0.54131 0.0
C370 C 0.28184 0.04047 0.47304 0.0
C371 C 0.27305 0.05882 0.47204 0.0
C372 C 0.28595 0.03134 0.49885 0.0
C373 C 0.28129 0.0408 0.52377 0.0
C374 C 0.27255 0.05919 0.52305 0.0
C375 C 0.26826 0.06785 0.49712 0.0
C376 C 0.29657 0.01257 0.49979 0.0
C377 C 0.28637 0.99348 0.49698 0.0
C378 C 0.28381 0.98481 0.47057 0.0
C379 C 0.2753 0.96627 0.46796 0.0
C380 C 0.26902 0.95676 0.49205 0.0
C381 C 0.27145 0.96518 0.51857 0.0
C382 C 0.28005 0.98366 0.52089 0.0
H383 H 0.50378 0.68402 0.95386 0.0
H384 H 0.50227 0.68153 0.04374 0.0
H385 H 0.46195 0.6581 0.99578 0.0
H386 H 0.52103 0.70653 0.98178 0.0
H387 H 0.52016 0.70595 0.01888 0.0
H388 H 0.53837 0.68212 0.95622 0.0
H389 H 0.57963 0.65947 0.0031 0.0
H390 H 0.53804 0.68386 0.0461 0.0
C391 C 0.49777 0.67907 0.97291 0.0
C392 C 0.48211 0.66997 0.9715 0.0
C393 C 0.50524 0.68306 -0.0011 0.0
C394 C 0.49698 0.67762 0.02366 0.0
C395 C 0.4815 0.66818 0.02252 0.0
C396 C 0.47436 0.66412 0.99646 0.0
C397 C 0.52058 0.69605 0.00019 0.0
C398 C 0.53614 0.68357 0.00111 0.0
C399 C 0.54404 0.6783 0.97613 0.0
C400 C 0.55965 0.66924 0.97678 0.0
C401 C 0.56715 0.66517 0.00268 0.0
C402 C 0.5596 0.67049 0.02785 0.0
C403 C 0.54389 0.67932 0.02689 0.0
H404 H 0.79981 0.03479 0.45841 0.0
H405 H 0.79943 0.03252 0.54828 0.0
H406 H 0.77589 0.08189 0.50445 0.0
H407 H 0.81967 0.01388 0.48428 0.0
H408 H 0.81987 0.01334 0.52151 0.0
H409 H 0.80134 0.99148 0.45784 0.0
H410 H 0.78222 0.93953 0.50244 0.0
H411 H 0.80149 0.99051 0.54772 0.0
C412 C 0.79582 0.04101 0.47811 0.0
C413 C 0.78685 0.05923 0.47834 0.0
C414 C 0.8003 0.03123 0.50328 0.0
C415 C 0.7956 0.03971 0.52884 0.0
C416 C 0.78657 0.05787 0.52938 0.0
C417 C 0.78207 0.06731 0.50406 0.0
C418 C 0.81159 0.01311 0.50294 0.0
C419 C 0.80209 0.99336 0.50279 0.0
C420 C 0.79813 0.98399 0.47736 0.0
C421 C 0.79079 0.9646 0.47705 0.0
C422 C 0.78702 0.95494 0.50253 0.0
C423 C 0.79086 0.96407 0.52814 0.0
C424 C 0.79821 0.98345 0.5281 0.0
H425 H 0.50505 0.37947 0.94961 0.0
H426 H 0.50542 0.37781 0.03973 0.0
H427 H 0.46611 0.34942 0.99413 0.0
H428 H 0.52297 0.40244 0.9761 0.0
H429 H 0.5226 0.40253 0.01336 0.0
H430 H 0.54097 0.3791 0.95088 0.0
H431 H 0.57917 0.34956 -0.00179 0.0
H432 H 0.53959 0.37862 0.04101 0.0
C433 C 0.49971 0.37437 0.96917 0.0
C434 C 0.4849 0.36335 0.96892 0.0
C435 C 0.50741 0.37928 0.99469 0.0
C436 C 0.49991 0.37343 0.02002 0.0
C437 C 0.48509 0.36241 0.01991 0.0
C438 C 0.4779 0.35717 0.9943 0.0
C439 C 0.52273 0.39236 0.99493 0.0
C440 C 0.53814 0.3796 0.99583 0.0
C441 C 0.54604 0.37424 0.97084 0.0
C442 C 0.56078 0.36321 0.97167 0.0
C443 C 0.56743 0.35732 -0.00246 0.0
C444 C 0.56001 0.36294 0.0226 0.0
C445 C 0.54527 0.37398 0.02169 0.0
C446 C 0.18288 0.39263 0.23479 0.0
C447 C 0.18734 0.38203 0.21068 0.0
C448 C 0.16752 0.40195 0.23656 0.0
C449 C 0.12594 0.40426 0.20337 0.0
H450 H 0.12511 0.45749 0.23741 0.0
C451 C 0.07397 0.46379 0.18742 0.0
C452 C 0.07045 0.47669 0.20981 0.0
C453 C 0.08638 0.44917 0.18992 0.0
C454 C 0.12502 0.44248 0.22826 0.0
H455 H 0.17912 0.37276 0.1696 0.0
H456 H 0.15244 0.3894 0.17239 0.0
H457 H 0.15057 0.43846 0.23676 0.0
H458 H 0.07603 0.48313 0.25313 0.0
H459 H 0.09752 0.45749 0.25762 0.0
H460 H 0.10038 0.4088 0.1941 0.0
C461 C 0.16065 0.39016 0.19022 0.0
C462 C 0.13967 0.43153 0.22789 0.0
C463 C 0.17598 0.38068 0.18855 0.0
C464 C 0.07862 0.47355 0.23542 0.0
C465 C 0.09099 0.45896 0.23793 0.0
C466 C 0.11126 0.41533 0.20359 0.0
C467 C 0.15628 0.4011 0.21416 0.0
C468 C 0.14038 0.4123 0.21534 0.0
C469 C 0.09549 0.44719 0.21487 0.0
C470 C 0.11065 0.43461 0.21599 0.0
H471 H 0.19125 0.39363 0.25238 0.0
H472 H 0.16448 0.40985 0.25557 0.0
H473 H 0.12596 0.38939 0.19385 0.0
H474 H 0.06799 0.46598 0.16735 0.0
H475 H 0.08957 0.44039 0.17174 0.0
C476 C 0.17415 0.64988 0.77549 0.0
C477 C 0.18477 0.64704 0.79848 0.0
C478 C 0.15859 0.64079 0.77507 0.0
C479 C 0.12714 0.61616 0.82028 0.0
H480 H 0.11409 0.58949 0.75178 0.0
C481 C 0.07871 0.55196 0.81537 0.0
C482 C 0.06938 0.54955 0.79081 0.0
C483 C 0.09046 0.56744 0.81733 0.0
C484 C 0.11732 0.5972 0.77093 0.0
H485 H 0.18708 0.63288 0.83944 0.0
H486 H 0.16008 0.6167 0.83848 0.0
H487 H 0.13935 0.60928 0.75305 0.0
H488 H 0.06423 0.56247 0.74985 0.0
H489 H 0.08445 0.58984 0.75353 0.0
H490 H 0.10525 0.60362 0.83832 0.0
C491 C 0.16373 0.62612 0.82086 0.0
C492 C 0.13187 0.60853 0.77167 0.0
C493 C 0.1793 0.63519 0.82126 0.0
C494 C 0.07115 0.56396 0.76911 0.0
C495 C 0.08292 0.57948 0.77107 0.0
C496 C 0.11255 0.60482 0.81953 0.0
C497 C 0.15324 0.62865 0.79764 0.0
C498 C 0.13711 0.6179 0.79646 0.0
C499 C 0.09315 0.58092 0.79478 0.0
C500 C 0.10759 0.59494 0.79495 0.0
H501 H 0.178 0.65875 0.75747 0.0
H502 H 0.15077 0.64322 0.75697 0.0
H503 H 0.13067 0.62346 0.83959 0.0
H504 H 0.07752 0.54118 0.83254 0.0
H505 H 0.09812 0.56801 0.83587 0.0
C506 C 0.85919 0.62427 0.19359 0.0
C507 C 0.85719 0.64419 0.2035 0.0
C508 C 0.87474 0.61538 0.19268 0.0
C509 C 0.9158 0.61743 0.22449 0.0
H510 H 0.92787 0.58517 0.16051 0.0
C511 C 0.96507 0.5544 0.22692 0.0
C512 C 0.97425 0.55091 0.20267 0.0
C513 C 0.95309 0.56958 0.22725 0.0
C514 C 0.92484 0.59437 0.17837 0.0
H515 H 0.87022 0.6704 0.2199 0.0
H516 H 0.89732 0.65465 0.2188 0.0
H517 H 0.9021 0.6039 0.15985 0.0
H518 H 0.97885 0.56149 0.1604 0.0
H519 H 0.95804 0.5882 0.16107 0.0
H520 H 0.93843 0.60751 0.24322 0.0
C521 C 0.88677 0.64595 0.21183 0.0
C522 C 0.90996 0.6049 0.17812 0.0
C523 C 0.87121 0.65494 0.21254 0.0
C524 C 0.97205 0.56391 0.17945 0.0
C525 C 0.95999 0.57903 0.17973 0.0
C526 C 0.93066 0.60675 0.22483 0.0
C527 C 0.88871 0.62608 0.20184 0.0
C528 C 0.90514 0.61628 0.20134 0.0
C529 C 0.94998 0.58154 0.20328 0.0
C530 C 0.93523 0.59485 0.20192 0.0
H531 H 0.84869 0.61534 0.18702 0.0
H532 H 0.87577 0.59991 0.18533 0.0
H533 H 0.9124 0.626 0.24275 0.0
H534 H 0.96655 0.54464 0.24514 0.0
H535 H 0.94557 0.57104 0.2457 0.0
C536 C 0.86822 0.37345 0.79713 0.0
C537 C 0.86455 0.36259 0.77271 0.0
C538 C 0.88245 0.38542 0.79885 0.0
C539 C 0.91304 0.41199 0.7547 0.0
H540 H 0.93916 0.4128 0.82266 0.0
C541 C 0.97252 0.45909 0.76012 0.0
C542 C 0.9742 0.4714 0.78379 0.0
C543 C 0.96087 0.44338 0.75957 0.0
C544 C 0.93196 0.41282 0.80357 0.0
H545 H 0.87287 0.35617 0.73076 0.0
H546 H 0.8977 0.37676 0.73389 0.0
H547 H 0.91487 0.39096 0.82005 0.0
H548 H 0.96592 0.47579 0.82624 0.0
H549 H 0.9455 0.44863 0.82521 0.0
H550 H 0.92987 0.43406 0.73834 0.0
C551 C 0.88957 0.37612 0.7517 0.0
C552 C 0.91801 0.40034 0.8021 0.0
C553 C 0.87539 0.36413 0.75001 0.0
C554 C 0.9648 0.46669 0.80758 0.0
C555 C 0.95315 0.45102 0.80704 0.0
C556 C 0.92695 0.42446 0.75617 0.0
C557 C 0.89329 0.38691 0.77614 0.0
C558 C 0.90832 0.39986 0.77769 0.0
C559 C 0.95064 0.43962 0.78269 0.0
C560 C 0.93655 0.42514 0.78067 0.0
H561 H 0.8602 0.37247 0.81508 0.0
H562 H 0.88485 0.39372 0.81788 0.0
H563 H 0.90573 0.41225 0.73572 0.0
H564 H 0.97947 0.46236 0.74137 0.0
H565 H 0.95948 0.43463 0.74066 0.0
C566 C 0.27108 0.19709 0.30107 0.0
C567 C 0.25548 0.2062 0.2995 0.0
C568 C 0.27325 0.17845 0.31496 0.0
C569 C 0.25037 0.13392 0.34462 0.0
H570 H 0.28894 0.12873 0.39195 0.0
C571 C 0.25522 0.07927 0.43954 0.0
C572 C 0.27042 0.07006 0.44535 0.0
C573 C 0.25354 0.09292 0.41713 0.0
C574 C 0.27825 0.12975 0.37846 0.0
H575 H 0.22984 0.20232 0.31054 0.0
H576 H 0.23374 0.17035 0.33565 0.0
H577 H 0.28585 0.1586 0.362 0.0
H578 H 0.29558 0.06714 0.43148 0.0
H579 H 0.29264 0.09101 0.39221 0.0
H580 H 0.2425 0.10537 0.36217 0.0
C581 C 0.24427 0.17741 0.32576 0.0
C582 C 0.27646 0.14691 0.36123 0.0
C583 C 0.24208 0.19596 0.31171 0.0
C584 C 0.28368 0.0739 0.42737 0.0
C585 C 0.28205 0.08771 0.40509 0.0
C586 C 0.2521 0.11683 0.36206 0.0
C587 C 0.25991 0.16848 0.3278 0.0
C588 C 0.26239 0.14938 0.34437 0.0
C589 C 0.26708 0.09779 0.40021 0.0
C590 C 0.26596 0.1147 0.37944 0.0
H591 H 0.28172 0.20458 0.29214 0.0
H592 H 0.28544 0.17192 0.31576 0.0
H593 H 0.23952 0.1351 0.33153 0.0
H594 H 0.24479 0.07652 0.45303 0.0
H595 H 0.24188 0.10052 0.41403 0.0
C596 C 0.37009 0.70948 0.81226 0.0
C597 C 0.35712 0.69538 0.81458 0.0
C598 C 0.38537 0.70544 0.82445 0.0
C599 C 0.41161 0.66453 0.85418 0.0
H600 H 0.43098 0.70878 0.89608 0.0
C601 C 0.46149 0.65351 0.93951 0.0
C602 C 0.47244 0.66962 0.94498 0.0
C603 C 0.44945 0.65541 0.91871 0.0
C604 C 0.426 0.69633 0.884 0.0
H605 H 0.35027 0.66565 0.83091 0.0
H606 H 0.37695 0.65872 0.85263 0.0
H607 H 0.40582 0.71447 0.86982 0.0
H608 H 0.48022 0.69964 0.931 0.0
H609 H 0.45973 0.70259 0.89402 0.0
H610 H 0.43174 0.6463 0.86883 0.0
C611 C 0.37529 0.67285 0.84113 0.0
C612 C 0.41148 0.6996 0.86899 0.0
C613 C 0.35994 0.67692 0.82895 0.0
C614 C 0.47205 0.68688 0.92739 0.0
C615 C 0.46009 0.68872 0.90644 0.0
C616 C 0.42622 0.66126 0.86915 0.0
C617 C 0.38811 0.6872 0.83933 0.0
C618 C 0.40401 0.68372 0.85411 0.0
C619 C 0.44816 0.67342 0.9027 0.0
C620 C 0.43352 0.67709 0.88449 0.0
H621 H 0.36833 0.72395 0.80165 0.0
H622 H 0.39503 0.71673 0.82242 0.0
H623 H 0.40626 0.65203 0.84265 0.0
H624 H 0.46162 0.63986 0.95242 0.0
H625 H 0.44052 0.64328 0.91649 0.0
C626 C 0.80588 0.83082 0.30577 0.0
C627 C 0.79233 0.81748 0.30538 0.0
C628 C 0.80508 0.84929 0.31986 0.0
C629 C 0.7761 0.88571 0.35242 0.0
H630 H 0.81439 0.90017 0.39653 0.0
C631 C 0.77515 0.94077 0.44592 0.0
C632 C 0.78905 0.95305 0.45068 0.0
C633 C 0.77485 0.92699 0.42388 0.0
C634 C 0.80369 0.89659 0.38394 0.0
H635 H 0.76708 0.8136 0.31874 0.0
H636 H 0.76589 0.84545 0.34414 0.0
H637 H 0.81531 0.87056 0.3667 0.0
H638 H 0.81314 0.9613 0.43503 0.0
H639 H 0.8125 0.93748 0.39633 0.0
H640 H 0.76434 0.9115 0.37062 0.0
C641 C 0.77708 0.84177 0.3332 0.0
C642 C 0.80421 0.87957 0.3668 0.0
C643 C 0.77784 0.82333 0.31896 0.0
C644 C 0.8022 0.95217 0.43184 0.0
C645 C 0.80192 0.93835 0.40987 0.0
C646 C 0.77555 0.90272 0.36974 0.0
C647 C 0.79076 0.85488 0.33411 0.0
C648 C 0.79038 0.87378 0.351 0.0
C649 C 0.78847 0.92514 0.4062 0.0
C650 C 0.7893 0.90824 0.38588 0.0
H651 H 0.81729 0.82678 0.2958 0.0
H652 H 0.81578 0.85913 0.31976 0.0
H653 H 0.7653 0.88188 0.34023 0.0
H654 H 0.76478 0.94124 0.45996 0.0
H655 H 0.76433 0.91699 0.4217 0.0
C656 C 0.68442 0.36586 0.83467 0.0
C657 C 0.69264 0.34713 0.83284 0.0
C658 C 0.66842 0.36676 0.84514 0.0
C659 C 0.64022 0.33819 0.89103 0.0
H660 H 0.60691 0.37416 0.86024 0.0
C661 C 0.57684 0.34031 0.94093 0.0
C662 C 0.57072 0.35981 0.94635 0.0
C663 C 0.5897 0.33775 0.92211 0.0
C664 C 0.6161 0.3641 0.86914 0.0
H665 H 0.69035 0.31464 0.84053 0.0
H666 H 0.66246 0.31618 0.85831 0.0
H667 H 0.63371 0.37196 0.83761 0.0
H668 H 0.57245 0.39172 0.93512 0.0
H669 H 0.59507 0.38737 0.90244 0.0
H670 H 0.62298 0.33067 0.92293 0.0
C671 C 0.66841 0.33021 0.85185 0.0
C672 C 0.63146 0.36286 0.8562 0.0
C673 C 0.68436 0.32931 0.84136 0.0
C674 C 0.57682 0.3765 0.93102 0.0
C675 C 0.58983 0.37397 0.91236 0.0
C676 C 0.62495 0.33946 0.90396 0.0
C677 C 0.66029 0.34896 0.85415 0.0
C678 C 0.64373 0.34994 0.86709 0.0
C679 C 0.59689 0.35467 0.90861 0.0
C680 C 0.61268 0.35247 0.8933 0.0
H681 H 0.69036 0.37985 0.82802 0.0
H682 H 0.66257 0.38147 0.84685 0.0
H683 H 0.64947 0.32839 0.90033 0.0
H684 H 0.57231 0.32721 0.9525 0.0
H685 H 0.59452 0.32259 0.91917 0.0
C686 C 0.26159 0.83089 0.69438 0.0
C687 C 0.24769 0.81824 0.69196 0.0
C688 C 0.26291 0.84877 0.67838 0.0
C689 C 0.24712 0.87199 0.61311 0.0
H690 H 0.26658 0.9215 0.64199 0.0
C691 C 0.25104 0.94355 0.54433 0.0
C692 C 0.26643 0.95327 0.54366 0.0
C693 C 0.24741 0.92929 0.56527 0.0
C694 C 0.26118 0.90776 0.63361 0.0
H695 H 0.22421 0.81466 0.67088 0.0
H696 H 0.22632 0.84599 0.6436 0.0
H697 H 0.26297 0.89198 0.67295 0.0
H698 H 0.28973 0.95655 0.56525 0.0
H699 H 0.28343 0.93157 0.60183 0.0
H700 H 0.24554 0.8875 0.57377 0.0
C701 C 0.23632 0.84197 0.6576 0.0
C702 C 0.25914 0.89084 0.65132 0.0
C703 C 0.23502 0.82411 0.67353 0.0
C704 C 0.27771 0.94942 0.56538 0.0
C705 C 0.2741 0.93508 0.58631 0.0
C706 C 0.24914 0.88886 0.59549 0.0
C707 C 0.25036 0.85441 0.65957 0.0
C708 C 0.25214 0.87272 0.64123 0.0
C709 C 0.25911 0.92436 0.58595 0.0
C710 C 0.25623 0.90694 0.60545 0.0
H711 H 0.2715 0.82696 0.70862 0.0
H712 H 0.27395 0.85789 0.68026 0.0
H713 H 0.24201 0.85818 0.60446 0.0
H714 H 0.24203 0.94643 0.52804 0.0
H715 H 0.2356 0.92166 0.56475 0.0
C716 C 0.68194 0.67455 0.17059 0.0
C717 C 0.68475 0.69257 0.18549 0.0
C718 C 0.66662 0.67077 0.15818 0.0
C719 C 0.63057 0.69809 0.1307 0.0
H720 H 0.6101 0.64473 0.12978 0.0
C721 C 0.56995 0.68658 0.07193 0.0
C722 C 0.56947 0.6697 0.05415 0.0
C723 C 0.58196 0.688 0.09283 0.0
C724 C 0.61568 0.65971 0.12974 0.0
H725 H 0.67357 0.72068 0.19909 0.0
H726 H 0.64691 0.71395 0.17788 0.0
H727 H 0.63556 0.64986 0.15616 0.0
H728 H 0.5802 0.64018 0.04626 0.0
H729 H 0.60138 0.64289 0.08209 0.0
H730 H 0.61115 0.7079 0.10369 0.0
C731 C 0.65655 0.70279 0.17563 0.0
C732 C 0.63028 0.66263 0.14484 0.0
C733 C 0.67181 0.70653 0.18807 0.0
C734 C 0.5804 0.65354 0.05932 0.0
C735 C 0.59249 0.65503 0.08007 0.0
C736 C 0.61607 0.69517 0.11555 0.0
C737 C 0.65382 0.68498 0.16026 0.0
C738 C 0.63795 0.68184 0.14532 0.0
C739 C 0.59384 0.67266 0.09634 0.0
C740 C 0.60847 0.67592 0.11467 0.0
H741 H 0.69159 0.6634 0.16841 0.0
H742 H 0.66495 0.65698 0.1463 0.0
H743 H 0.63629 0.713 0.13021 0.0
H744 H 0.56179 0.69935 0.06854 0.0
H745 H 0.58238 0.70158 0.10544 0.0
C746 C 0.75441 0.19177 0.68981 0.0
C747 C 0.76772 0.20124 0.70336 0.0
C748 C 0.75657 0.17361 0.67542 0.0
C749 C 0.78888 0.14335 0.64158 0.0
H750 H 0.75442 0.10256 0.63743 0.0
C751 C 0.79652 0.07192 0.57489 0.0
C752 C 0.78355 0.0686 0.55597 0.0
C753 C 0.7946 0.08524 0.59719 0.0
C754 C 0.76415 0.11382 0.63843 0.0
H755 H 0.79374 0.19867 0.71272 0.0
H756 H 0.79739 0.16667 0.68842 0.0
H757 H 0.75127 0.13156 0.6684 0.0
H758 H 0.75809 0.07548 0.54665 0.0
H759 H 0.7547 0.0987 0.58565 0.0
H760 H 0.80167 0.12573 0.61141 0.0
C761 C 0.78531 0.17351 0.68847 0.0
C762 C 0.76233 0.13049 0.65606 0.0
C763 C 0.78317 0.19176 0.70273 0.0
C764 C 0.76831 0.07784 0.56085 0.0
C765 C 0.76635 0.09104 0.58327 0.0
C766 C 0.79075 0.12662 0.62414 0.0
C767 C 0.77208 0.16432 0.67435 0.0
C768 C 0.77455 0.14566 0.65749 0.0
C769 C 0.77963 0.09539 0.60114 0.0
C770 C 0.7783 0.11184 0.62202 0.0
H771 H 0.74227 0.19843 0.69023 0.0
H772 H 0.74612 0.16714 0.66453 0.0
H773 H 0.79843 0.15486 0.64173 0.0
H774 H 0.80845 0.06515 0.57153 0.0
H775 H 0.80499 0.08813 0.61083 0.0
C776 C 0.36792 0.31407 0.15299 0.0
C777 C 0.35873 0.32909 0.16651 0.0
C778 C 0.38358 0.31842 0.14273 0.0
C779 C 0.40976 0.36102 0.11922 0.0
H780 H 0.44387 0.32 0.12204 0.0
C781 C 0.47148 0.37411 0.06367 0.0
C782 C 0.47579 0.35815 0.04589 0.0
C783 C 0.45948 0.37114 0.08419 0.0
C784 C 0.43448 0.33162 0.1211 0.0
H785 H 0.35892 0.36049 0.17995 0.0
H786 H 0.3864 0.36806 0.16223 0.0
H787 H 0.41803 0.31396 0.14638 0.0
H788 H 0.47193 0.32626 0.03695 0.0
H789 H 0.45113 0.321 0.07271 0.0
H790 H 0.42602 0.37844 0.09331 0.0
C791 C 0.38139 0.35293 0.15941 0.0
C792 C 0.41965 0.32815 0.13497 0.0
C793 C 0.36569 0.34855 0.16976 0.0
C794 C 0.46882 0.33881 0.0504 0.0
C795 C 0.45693 0.33581 0.07097 0.0
C796 C 0.42461 0.36451 0.10537 0.0
C797 C 0.39051 0.33791 0.14572 0.0
C798 C 0.40694 0.34259 0.13364 0.0
C799 C 0.45168 0.35212 0.08743 0.0
C800 C 0.437 0.34965 0.10559 0.0
H801 H 0.36305 0.29883 0.15049 0.0
H802 H 0.39013 0.30656 0.13197 0.0
H803 H 0.4002 0.37239 0.11752 0.0
H804 H 0.47657 0.38921 0.06049 0.0
H805 H 0.45586 0.38394 0.09678 0.0
C806 C 0.86252 0.63084 0.82643 0.0
C807 C 0.85655 0.64023 0.80188 0.0
C808 C 0.87797 0.62165 0.82699 0.0
C809 C 0.91763 0.6184 0.78916 0.0
H810 H 0.91997 0.56537 0.82519 0.0
C811 C 0.96954 0.55994 0.7699 0.0
C812 C 0.97362 0.54632 0.79165 0.0
C813 C 0.95711 0.57436 0.77349 0.0
C814 C 0.9197 0.58034 0.8155 0.0
H815 H 0.86233 0.64748 0.75872 0.0
H816 H 0.88927 0.63137 0.75967 0.0
H817 H 0.89461 0.58456 0.8268 0.0
H818 H 0.96901 0.5382 0.83484 0.0
H819 H 0.94774 0.56373 0.84146 0.0
H820 H 0.94273 0.6139 0.77744 0.0
C821 C 0.88208 0.63138 0.77863 0.0
C822 C 0.90508 0.59135 0.81638 0.0
C823 C 0.86661 0.6406 0.77808 0.0
C824 C 0.96601 0.54845 0.81769 0.0
C825 C 0.95371 0.56294 0.82136 0.0
C826 C 0.93232 0.60736 0.78832 0.0
C827 C 0.88787 0.62157 0.803 0.0
C828 C 0.9038 0.61045 0.80306 0.0
C829 C 0.94861 0.57548 0.79895 0.0
C830 C 0.9335 0.58811 0.80134 0.0
H831 H 0.85523 0.63062 0.84529 0.0
H832 H 0.88217 0.61456 0.84626 0.0
H833 H 0.91712 0.63317 0.77895 0.0
H834 H 0.97508 0.55846 0.74951 0.0
H835 H 0.95347 0.58367 0.75573 0.0
C836 C 0.86507 0.38244 0.17967 0.0
C837 C 0.85599 0.38149 0.20453 0.0
C838 C 0.88073 0.39129 0.17927 0.0
C839 C 0.91492 0.40868 0.22572 0.0
H840 H 0.92596 0.44279 0.16191 0.0
C841 C 0.96445 0.47196 0.2271 0.0
C842 C 0.97348 0.47577 0.20265 0.0
C843 C 0.95225 0.45693 0.22766 0.0
C844 C 0.92322 0.43303 0.17968 0.0
H845 H 0.85622 0.38914 0.24844 0.0
H846 H 0.88333 0.40494 0.24768 0.0
H847 H 0.90021 0.42395 0.16204 0.0
H848 H 0.9775 0.46602 0.16017 0.0
H849 H 0.95627 0.4396 0.16119 0.0
H850 H 0.93776 0.4185 0.24372 0.0
C851 C 0.87858 0.39842 0.22858 0.0
C852 C 0.90842 0.42219 0.17977 0.0
C853 C 0.86298 0.38942 0.22903 0.0
C854 C 0.97083 0.46332 0.17938 0.0
C855 C 0.95854 0.44837 0.17986 0.0
C856 C 0.92969 0.41966 0.2257 0.0
C857 C 0.88765 0.39958 0.20366 0.0
C858 C 0.90395 0.41006 0.20293 0.0
C859 C 0.94874 0.44547 0.2037 0.0
C860 C 0.93393 0.43214 0.2028 0.0
H861 H 0.86013 0.37618 0.16054 0.0
H862 H 0.88743 0.39155 0.15979 0.0
H863 H 0.91206 0.39921 0.2437 0.0
H864 H 0.96626 0.48132 0.24535 0.0
H865 H 0.9449 0.45516 0.24632 0.0
C866 C 0.18038 0.38641 0.76251 0.0
C867 C 0.18902 0.38207 0.78739 0.0
C868 C 0.16487 0.39551 0.76325 0.0
C869 C 0.1395 0.42795 0.80755 0.0
H870 H 0.10384 0.41147 0.75867 0.0
C871 C 0.07787 0.46928 0.81183 0.0
C872 C 0.07077 0.47462 0.786 0.0
C873 C 0.09041 0.45484 0.81336 0.0
C874 C 0.11369 0.41636 0.77234 0.0
H875 H 0.18807 0.38386 0.83255 0.0
H876 H 0.16101 0.39964 0.83383 0.0
H877 H 0.12975 0.39281 0.75829 0.0
H878 H 0.07059 0.46837 0.74172 0.0
H879 H 0.0927 0.4434 0.74417 0.0
H880 H 0.12385 0.45184 0.82101 0.0
C881 C 0.16625 0.39606 0.81374 0.0
C882 C 0.12854 0.40565 0.77212 0.0
C883 C 0.1817 0.38685 0.81302 0.0
C884 C 0.07571 0.46431 0.76195 0.0
C885 C 0.08842 0.45002 0.7634 0.0
C886 C 0.12475 0.43872 0.80764 0.0
C887 C 0.15769 0.40062 0.78887 0.0
C888 C 0.14165 0.41139 0.78965 0.0
C889 C 0.09635 0.44565 0.789 0.0
C890 C 0.11163 0.43315 0.78997 0.0
H891 H 0.18559 0.38273 0.74244 0.0
H892 H 0.15866 0.39897 0.7437 0.0
H893 H 0.14943 0.43301 0.82096 0.0
H894 H 0.07424 0.47702 0.83067 0.0
H895 H 0.09588 0.45147 0.83355 0.0
C896 C 0.17275 0.65049 0.24998 0.0
C897 C 0.17915 0.65998 0.2259 0.0
C898 C 0.15863 0.63839 0.24843 0.0
C899 C 0.12194 0.62807 0.20486 0.0
H900 H 0.12142 0.57676 0.24555 0.0
C901 C 0.07337 0.5645 0.18673 0.0
C902 C 0.06924 0.55182 0.20945 0.0
C903 C 0.08522 0.57984 0.1898 0.0
C904 C 0.12118 0.59121 0.23445 0.0
H905 H 0.17558 0.6643 0.18131 0.0
H906 H 0.15099 0.64293 0.17855 0.0
H907 H 0.14543 0.5987 0.2484 0.0
H908 H 0.07321 0.54622 0.25361 0.0
H909 H 0.09343 0.57337 0.25927 0.0
H910 H 0.09766 0.62046 0.19079 0.0
C911 C 0.15687 0.64501 0.19868 0.0
C912 C 0.13502 0.60377 0.23602 0.0
C913 C 0.17106 0.65705 0.2002 0.0
C914 C 0.07625 0.55572 0.23572 0.0
C915 C 0.08797 0.57113 0.23886 0.0
C916 C 0.10802 0.61551 0.20337 0.0
C917 C 0.1505 0.6355 0.22278 0.0
C918 C 0.13561 0.62233 0.2212 0.0
C919 C 0.0931 0.58286 0.2157 0.0
C920 C 0.10748 0.59688 0.21812 0.0
H921 H 0.17875 0.65228 0.27006 0.0
H922 H 0.15399 0.63143 0.26743 0.0
H923 H 0.12193 0.6424 0.19344 0.0
H924 H 0.0683 0.56165 0.16616 0.0
H925 H 0.0889 0.58848 0.17147 0.0
C926 C 0.80555 0.82729 0.69969 0.0
C927 C 0.79189 0.81414 0.70011 0.0
C928 C 0.80486 0.84595 0.68545 0.0
C929 C 0.77604 0.88317 0.65248 0.0
H930 H 0.81429 0.89781 0.60867 0.0
C931 C 0.77521 0.93972 0.55892 0.0
C932 C 0.78915 0.95198 0.5544 0.0
C933 C 0.77489 0.92554 0.58089 0.0
C934 C 0.8036 0.89417 0.62117 0.0
H935 H 0.76655 0.81077 0.68659 0.0
H936 H 0.76554 0.84294 0.66093 0.0
H937 H 0.81508 0.86774 0.6386 0.0
H938 H 0.81333 0.95974 0.57035 0.0
H939 H 0.81267 0.9352 0.60894 0.0
H940 H 0.76442 0.90936 0.63409 0.0
C941 C 0.77674 0.83897 0.67197 0.0
C942 C 0.80405 0.87689 0.63837 0.0
C943 C 0.7774 0.82035 0.68637 0.0
C944 C 0.80235 0.95064 0.57337 0.0
C945 C 0.80206 0.93641 0.59527 0.0
C946 C 0.77557 0.90043 0.63509 0.0
C947 C 0.79053 0.85191 0.67106 0.0
C948 C 0.79024 0.87104 0.65407 0.0
C949 C 0.78854 0.92326 0.59874 0.0
C950 C 0.78931 0.90602 0.61907 0.0
H951 H 0.81698 0.82298 0.70978 0.0
H952 H 0.81565 0.85564 0.68556 0.0
H953 H 0.76526 0.8793 0.66459 0.0
H954 H 0.7648 0.94054 0.54475 0.0
H955 H 0.76431 0.9156 0.58292 0.0
C956 C 0.6749 0.31318 0.16275 0.0
C957 C 0.68499 0.32824 0.17456 0.0
C958 C 0.65965 0.31817 0.15114 0.0
C959 C 0.6359 0.36117 0.12166 0.0
H960 H 0.59962 0.32309 0.12895 0.0
C961 C 0.57419 0.37562 0.06553 0.0
C962 C 0.5691 0.35918 0.04905 0.0
C963 C 0.58624 0.37287 0.08622 0.0
C964 C 0.60962 0.3339 0.12677 0.0
H965 H 0.68693 0.36044 0.18339 0.0
H966 H 0.66019 0.36921 0.16312 0.0
H967 H 0.62523 0.31666 0.15417 0.0
H968 H 0.57164 0.32682 0.04249 0.0
H969 H 0.59243 0.3219 0.0788 0.0
H970 H 0.62035 0.37819 0.09383 0.0
C971 C 0.66418 0.35352 0.16264 0.0
C972 C 0.62434 0.33018 0.14111 0.0
C973 C 0.67951 0.34851 0.17423 0.0
C974 C 0.57532 0.3397 0.05503 0.0
C975 C 0.58721 0.33691 0.07585 0.0
C976 C 0.62114 0.36494 0.10742 0.0
C977 C 0.65402 0.33837 0.15105 0.0
C978 C 0.63781 0.3435 0.13819 0.0
C979 C 0.59327 0.3536 0.09097 0.0
C980 C 0.60796 0.3511 0.10931 0.0
H981 H 0.67888 0.29748 0.16214 0.0
H982 H 0.65239 0.30617 0.14179 0.0
H983 H 0.64604 0.37167 0.11869 0.0
H984 H 0.56972 0.39083 0.06112 0.0
H985 H 0.59054 0.38597 0.09774 0.0
C986 C 0.24089 0.19798 0.67683 0.0
C987 C 0.25434 0.20778 0.68951 0.0
C988 C 0.24292 0.17954 0.66302 0.0
C989 C 0.275 0.14848 0.62956 0.0
H990 H 0.24058 0.10753 0.6282 0.0
C991 C 0.28251 0.07475 0.56759 0.0
C992 C 0.26954 0.07086 0.54886 0.0
C993 C 0.28061 0.08887 0.58896 0.0
C994 C 0.2503 0.11884 0.62843 0.0
H995 H 0.28051 0.20552 0.69781 0.0
H996 H 0.28392 0.17306 0.67471 0.0
H997 H 0.23757 0.13741 0.65762 0.0
H998 H 0.24414 0.0776 0.53896 0.0
H999 H 0.24078 0.10217 0.57641 0.0
H1000 H 0.28766 0.12997 0.60026 0.0
C1001 C 0.27183 0.17984 0.67494 0.0
C1002 C 0.24855 0.13601 0.64516 0.0
C1003 C 0.26982 0.19837 0.68855 0.0
C1004 C 0.25434 0.08038 0.55305 0.0
C1005 C 0.25241 0.09436 0.57456 0.0
C1006 C 0.2768 0.13124 0.61307 0.0
C1007 C 0.25845 0.17029 0.6617 0.0
C1008 C 0.26077 0.15123 0.6456 0.0
C1009 C 0.26568 0.09923 0.59218 0.0
C1010 C 0.26437 0.11638 0.61199 0.0
H1011 H 0.22873 0.20457 0.67751 0.0
H1012 H 0.23236 0.1728 0.65281 0.0
H1013 H 0.28454 0.15999 0.62892 0.0
H1014 H 0.2944 0.06777 0.56473 0.0
H1015 H 0.291 0.09217 0.60242 0.0
C1016 C 0.35977 0.68934 0.15751 0.0
C1017 C 0.34931 0.67241 0.16105 0.0
C1018 C 0.37577 0.68693 0.14765 0.0
C1019 C 0.40045 0.65274 0.10515 0.0
H1020 H 0.43738 0.68343 0.1344 0.0
C1021 C 0.46316 0.64689 0.05277 0.0
C1022 C 0.47123 0.66548 0.04776 0.0
C1023 C 0.45027 0.64566 0.07189 0.0
C1024 C 0.4272 0.67482 0.12588 0.0
H1025 H 0.34783 0.63954 0.1578 0.0
H1026 H 0.37564 0.63541 0.14011 0.0
H1027 H 0.41064 0.6856 0.15706 0.0
H1028 H 0.47285 0.69705 0.05986 0.0
H1029 H 0.45018 0.69512 0.09283 0.0
H1030 H 0.41661 0.64259 0.07332 0.0
C1031 C 0.37137 0.65058 0.1448 0.0
C1032 C 0.41187 0.67606 0.1389 0.0
C1033 C 0.35539 0.65297 0.15484 0.0
C1034 C 0.46697 0.68247 0.06364 0.0
C1035 C 0.45392 0.68133 0.08252 0.0
C1036 C 0.41569 0.65163 0.09201 0.0
C1037 C 0.3817 0.66755 0.1409 0.0
C1038 C 0.39829 0.66521 0.12847 0.0
C1039 C 0.44498 0.6631 0.08606 0.0
C1040 C 0.42925 0.66283 0.10197 0.0
H1041 H 0.35546 0.70458 0.16164 0.0
H1042 H 0.38333 0.70034 0.14447 0.0
H1043 H 0.39019 0.64442 0.09633 0.0
H1044 H 0.46625 0.63357 0.04077 0.0
H1045 H 0.444 0.63123 0.07461 0.0
C1046 C 0.77337 0.20497 0.32089 0.0
C1047 C 0.78834 0.20953 0.30769 0.0
C1048 C 0.77127 0.18662 0.3355 0.0
C1049 C 0.78897 0.13496 0.34579 0.0
H1050 H 0.7682 0.13825 0.41824 0.0
C1051 C 0.79731 0.07499 0.43391 0.0
C1052 C 0.78423 0.07144 0.45239 0.0
C1053 C 0.79589 0.08952 0.41249 0.0
C1054 C 0.77375 0.13692 0.39784 0.0
H1055 H 0.81265 0.19798 0.29873 0.0
H1056 H 0.80914 0.16624 0.32483 0.0
H1057 H 0.76946 0.1683 0.38832 0.0
H1058 H 0.75897 0.07913 0.46149 0.0
H1059 H 0.75645 0.10439 0.42394 0.0
H1060 H 0.79364 0.10362 0.3558 0.0
C1061 C 0.79894 0.17675 0.32363 0.0
C1062 C 0.77449 0.1542 0.38066 0.0
C1063 C 0.80104 0.19509 0.30898 0.0
C1064 C 0.76934 0.08175 0.44781 0.0
C1065 C 0.76792 0.09626 0.42638 0.0
C1066 C 0.78825 0.11764 0.36303 0.0
C1067 C 0.78409 0.17238 0.33733 0.0
C1068 C 0.7823 0.15352 0.35457 0.0
C1069 C 0.78137 0.10081 0.40907 0.0
C1070 C 0.7808 0.11849 0.38942 0.0
H1071 H 0.76337 0.21579 0.32052 0.0
H1072 H 0.7596 0.18364 0.34554 0.0
H1073 H 0.79485 0.13383 0.32563 0.0
H1074 H 0.809 0.06748 0.43707 0.0
H1075 H 0.80653 0.09275 0.39969 0.0
C1076 C 0.36504 0.34961 0.81733 0.0
C1077 C 0.35977 0.32922 0.81649 0.0
C1078 C 0.38029 0.35468 0.82914 0.0
C1079 C 0.42029 0.3317 0.85071 0.0
H1080 H 0.42374 0.37874 0.89854 0.0
C1081 C 0.46919 0.3405 0.93701 0.0
C1082 C 0.47542 0.35996 0.94285 0.0
C1083 C 0.4572 0.33788 0.91636 0.0
C1084 C 0.42309 0.36576 0.88482 0.0
H1085 H 0.36618 0.29828 0.82822 0.0
H1086 H 0.39252 0.30706 0.84902 0.0
H1087 H 0.39818 0.3722 0.87339 0.0
H1088 H 0.47464 0.3918 0.93082 0.0
H1089 H 0.45361 0.38725 0.89453 0.0
H1090 H 0.44502 0.32487 0.86304 0.0
C1091 C 0.38516 0.31914 0.83987 0.0
C1092 C 0.40841 0.36199 0.8704 0.0
C1093 C 0.37 0.31409 0.82801 0.0
C1094 C 0.47015 0.37661 0.9265 0.0
C1095 C 0.45799 0.37403 0.906 0.0
C1096 C 0.43493 0.33541 0.86524 0.0
C1097 C 0.39058 0.33948 0.84048 0.0
C1098 C 0.40669 0.34466 0.85363 0.0
C1099 C 0.45104 0.35472 0.90129 0.0
C1100 C 0.43639 0.35226 0.8829 0.0
H1101 H 0.3575 0.36161 0.80841 0.0
H1102 H 0.38411 0.37048 0.82905 0.0
H1103 H 0.41956 0.31846 0.83747 0.0
H1104 H 0.473 0.32746 0.94946 0.0
H1105 H 0.45204 0.32284 0.91344 0.0
C1106 C 0.26272 0.8309 0.29963 0.0
C1107 C 0.27748 0.82433 0.28762 0.0
C1108 C 0.26226 0.84879 0.31518 0.0
C1109 C 0.28958 0.88268 0.35547 0.0
H1110 H 0.25184 0.91851 0.35515 0.0
C1111 C 0.28865 0.9534 0.42454 0.0
C1112 C 0.27449 0.95541 0.44091 0.0
C1113 C 0.28877 0.94013 0.40191 0.0
C1114 C 0.26245 0.90862 0.35548 0.0
H1115 H 0.3033 0.83172 0.28234 0.0
H1116 H 0.30235 0.86311 0.30862 0.0
H1117 H 0.25257 0.88977 0.3232 0.0
H1118 H 0.24901 0.9463 0.44509 0.0
H1119 H 0.24925 0.923 0.40579 0.0
H1120 H 0.29936 0.90124 0.38798 0.0
C1121 C 0.29118 0.85428 0.30641 0.0
C1122 C 0.26285 0.89212 0.33725 0.0
C1123 C 0.29166 0.83637 0.291 0.0
C1124 C 0.26015 0.9449 0.43303 0.0
C1125 C 0.26026 0.93167 0.41037 0.0
C1126 C 0.2892 0.89917 0.37358 0.0
C1127 C 0.27653 0.86058 0.31905 0.0
C1128 C 0.27636 0.87882 0.33723 0.0
C1129 C 0.27473 0.92863 0.39512 0.0
C1130 C 0.27558 0.91223 0.37402 0.0
H1131 H 0.25152 0.82216 0.29717 0.0
H1132 H 0.25079 0.85307 0.32481 0.0
H1133 H 0.30004 0.87256 0.35645 0.0
H1134 H 0.29993 0.96117 0.43015 0.0
H1135 H 0.30004 0.93836 0.39029 0.0
C1136 C 0.68209 0.66734 0.83344 0.0
C1137 C 0.68471 0.68662 0.82116 0.0
C1138 C 0.66704 0.66253 0.84592 0.0
C1139 C 0.62347 0.67928 0.85066 0.0
H1140 H 0.62518 0.65222 0.92294 0.0
C1141 C 0.57165 0.68327 0.93248 0.0
C1142 C 0.56952 0.66677 0.95103 0.0
C1143 C 0.58397 0.68284 0.91221 0.0
C1144 C 0.62438 0.65942 0.90252 0.0
H1145 H 0.67351 0.71595 0.81256 0.0
H1146 H 0.6474 0.70761 0.83433 0.0
H1147 H 0.65028 0.65689 0.89641 0.0
H1148 H 0.57756 0.6362 0.96131 0.0
H1149 H 0.59884 0.63526 0.92563 0.0
H1150 H 0.59758 0.68229 0.85724 0.0
C1151 C 0.65683 0.69603 0.83383 0.0
C1152 C 0.63883 0.66212 0.88729 0.0
C1153 C 0.67184 0.70083 0.82136 0.0
C1154 C 0.57905 0.64921 0.94744 0.0
C1155 C 0.59131 0.64875 0.92716 0.0
C1156 C 0.60899 0.67658 0.86592 0.0
C1157 C 0.65426 0.67688 0.84648 0.0
C1158 C 0.63862 0.67239 0.86138 0.0
C1159 C 0.59437 0.66588 0.91006 0.0
C1160 C 0.60931 0.66688 0.89225 0.0
H1161 H 0.69166 0.65594 0.83333 0.0
H1162 H 0.66542 0.64754 0.85516 0.0
H1163 H 0.62282 0.68696 0.83055 0.0
H1164 H 0.56463 0.6971 0.93494 0.0
H1165 H 0.58602 0.69636 0.89954 0.0
loop_
_geom_bond_atom_site_label_1
_geom_bond_atom_site_label_2
_geom_bond_distance
_geom_bond_site_symmetry_2
_ccdc_geom_bond_type
C0 C1 1.264 . S
C0 C5 1.479 . S
C0 C10 1.465 . S
C1 C0 1.264 . S
C1 C3 1.339 . S
C1 H28 0.931 . S
C2 C3 1.395 . S
C2 C4 1.320 . S
C3 C1 1.339 . S
C3 C2 1.395 . S
C3 H29 0.929 . S
C4 C2 1.320 . S
C4 C5 1.405 . S
C4 H30 0.930 . S
C5 C0 1.479 . S
C5 C4 1.405 . S
C5 H31 0.931 . S
U6 O7 2.454 . S
U6 O8 2.458 . S
U6 C9 2.984 . S
U6 C10 2.847 . S
U6 C23 2.882 . S
U6 O24 2.441 . S
U6 O25 2.420 . S
U6 O26 2.455 . S
U6 O27 2.449 . S
O7 U6 2.454 . S
O7 C9 1.353 . S
O8 U6 2.458 . S
O8 C9 1.286 . S
C9 U6 2.984 . S
C9 O7 1.353 . S
C9 O8 1.286 . S
C9 C11 1.363 . S
C10 C0 1.465 . S
C10 U6 2.847 . S
C10 O24 1.249 . S
C10 O25 1.202 . S
C11 C9 1.363 . S
C11 C13 1.408 . S
C11 C16 1.342 . S
C12 C13 1.310 . S
C12 C15 1.461 . S
C12 H32 0.932 . S
C13 C11 1.408 . S
C13 C12 1.310 . S
C13 H33 0.930 . S
C14 C15 1.474 . S
C14 C16 1.285 . S
C14 H34 0.929 . S
C15 C12 1.461 . S
C15 C14 1.474 . S
C16 C11 1.342 . S
C16 C14 1.285 . S
C16 H35 0.930 . S
C17 C20 1.424 . S
C17 C22 1.245 . S
C17 C23 1.428 . S
C18 C21 1.260 . S
C18 C22 1.477 . S
C18 H36 0.932 . S
C19 C20 1.384 . S
C19 C21 1.479 . S
C19 H37 0.929 . S
C20 C17 1.424 . S
C20 C19 1.384 . S
C20 H38 0.928 . S
C21 C18 1.260 . S
C21 C19 1.479 . S
C22 C17 1.245 . S
C22 C18 1.477 . S
C22 H39 0.932 . S
C23 U6 2.882 . S
C23 C17 1.428 . S
C23 O26 1.301 . S
C23 O27 1.282 . S
O24 U6 2.441 . S
O24 C10 1.249 . S
O25 U6 2.420 . S
O25 C10 1.202 . S
O26 U6 2.455 . S
O26 C23 1.301 . S
O27 U6 2.449 . S
O27 C23 1.282 . S
H28 C1 0.931 . S
H29 C3 0.929 . S
H30 C4 0.930 . S
H31 C5 0.931 . S
H32 C12 0.932 . S
H33 C13 0.930 . S
H34 C14 0.929 . S
H35 C16 0.930 . S
H36 C18 0.932 . S
H37 C19 0.929 . S
H38 C20 0.928 . S
H39 C22 0.932 . S
C40 C41 1.264 . S
C40 C45 1.479 . S
C40 C50 1.465 . S
C41 C40 1.264 . S
C41 C43 1.339 . S
C41 H68 0.931 . S
C42 C43 1.395 . S
C42 C44 1.320 . S
C43 C41 1.339 . S
C43 C42 1.395 . S
C43 H69 0.929 . S
C44 C42 1.320 . S
C44 C45 1.405 . S
C44 H70 0.930 . S
C45 C40 1.479 . S
C45 C44 1.405 . S
C45 H71 0.931 . S
U46 O47 2.454 . S
U46 O48 2.458 . S
U46 C49 2.984 . S
U46 C50 2.847 . S
U46 C63 2.882 . S
U46 O64 2.441 . S
U46 O65 2.420 . S
U46 O66 2.455 . S
U46 O67 2.449 . S
O47 U46 2.454 . S
O47 C49 1.353 . S
O48 U46 2.458 . S
O48 C49 1.286 . S
C49 U46 2.984 . S
C49 O47 1.353 . S
C49 O48 1.286 . S
C49 C51 1.363 . S
C50 C40 1.465 . S
C50 U46 2.847 . S
C50 O64 1.249 . S
C50 O65 1.202 . S
C51 C49 1.363 . S
C51 C53 1.408 . S
C51 C56 1.342 . S
C52 C53 1.310 . S
C52 C55 1.461 . S
C52 H72 0.932 . S
C53 C51 1.408 . S
C53 C52 1.310 . S
C53 H73 0.930 . S
C54 C55 1.474 . S
C54 C56 1.285 . S
C54 H74 0.929 . S
C55 C52 1.461 . S
C55 C54 1.474 . S
C56 C51 1.342 . S
C56 C54 1.285 . S
C56 H75 0.930 . S
C57 C60 1.424 . S
C57 C62 1.245 . S
C57 C63 1.428 . S
C58 C61 1.260 . S
C58 C62 1.477 . S
C58 H76 0.932 . S
C59 C60 1.384 . S
C59 C61 1.479 . S
C59 H77 0.929 . S
C60 C57 1.424 . S
C60 C59 1.384 . S
C60 H78 0.928 . S
C61 C58 1.260 . S
C61 C59 1.479 . S
C62 C57 1.245 . S
C62 C58 1.477 . S
C62 H79 0.932 . S
C63 U46 2.882 . S
C63 C57 1.428 . S
C63 O66 1.301 . S
C63 O67 1.282 . S
O64 U46 2.441 . S
O64 C50 1.249 . S
O65 U46 2.420 . S
O65 C50 1.202 . S
O66 U46 2.455 . S
O66 C63 1.301 . S
O67 U46 2.449 . S
O67 C63 1.282 . S
H68 C41 0.931 . S
H69 C43 0.929 . S
H70 C44 0.930 . S
H71 C45 0.931 . S
H72 C52 0.932 . S
H73 C53 0.930 . S
H74 C54 0.929 . S
H75 C56 0.930 . S
H76 C58 0.932 . S
H77 C59 0.929 . S
H78 C60 0.928 . S
H79 C62 0.932 . S
C80 C81 1.264 . S
C80 C85 1.479 . S
C80 C90 1.465 . S
C81 C80 1.264 . S
C81 C83 1.339 . S
C81 H108 0.931 . S
C82 C83 1.395 . S
C82 C84 1.320 . S
C83 C81 1.339 . S
C83 C82 1.395 . S
C83 H109 0.929 . S
C84 C82 1.320 . S
C84 C85 1.405 . S
C84 H110 0.930 . S
C85 C80 1.479 . S
C85 C84 1.405 . S
C85 H111 0.931 . S
U86 O87 2.454 . S
U86 O88 2.458 . S
U86 C89 2.984 . S
U86 C90 2.847 . S
U86 C103 2.882 . S
U86 O104 2.441 . S
U86 O105 2.420 . S
U86 O106 2.455 . S
U86 O107 2.449 . S
O87 U86 2.454 . S
O87 C89 1.353 . S
O88 U86 2.458 . S
O88 C89 1.286 . S
C89 U86 2.984 . S
C89 O87 1.353 . S
C89 O88 1.286 . S
C89 C91 1.363 . S
C90 C80 1.465 . S
C90 U86 2.847 . S
C90 O104 1.249 . S
C90 O105 1.202 . S
C91 C89 1.363 . S
C91 C93 1.408 . S
C91 C96 1.342 . S
C92 C93 1.310 . S
C92 C95 1.461 . S
C92 H112 0.932 . S
C93 C91 1.408 . S
C93 C92 1.310 . S
C93 H113 0.930 . S
C94 C95 1.474 . S
C94 C96 1.285 . S
C94 H114 0.929 . S
C95 C92 1.461 . S
C95 C94 1.474 . S
C96 C91 1.342 . S
C96 C94 1.285 . S
C96 H115 0.930 . S
C97 C100 1.424 . S
C97 C102 1.245 . S
C97 C103 1.428 . S
C98 C101 1.260 . S
C98 C102 1.477 . S
C98 H116 0.932 . S
C99 C100 1.384 . S
C99 C101 1.479 . S
C99 H117 0.929 . S
C100 C97 1.424 . S
C100 C99 1.384 . S
C100 H118 0.928 . S
C101 C98 1.260 . S
C101 C99 1.479 . S
C102 C97 1.245 . S
C102 C98 1.477 . S
C102 H119 0.932 . S
C103 U86 2.882 . S
C103 C97 1.428 . S
C103 O106 1.301 . S
C103 O107 1.282 . S
O104 U86 2.441 . S
O104 C90 1.249 . S
O105 U86 2.420 . S
O105 C90 1.202 . S
O106 U86 2.455 . S
O106 C103 1.301 . S
O107 U86 2.449 . S
O107 C103 1.282 . S
H108 C81 0.931 . S
H109 C83 0.929 . S
H110 C84 0.930 . S
H111 C85 0.931 . S
H112 C92 0.932 . S
H113 C93 0.930 . S
H114 C94 0.929 . S
H115 C96 0.930 . S
H116 C98 0.932 . S
H117 C99 0.929 . S
H118 C100 0.928 . S
H119 C102 0.932 . S
C120 C121 1.264 . S
C120 C125 1.479 . S
C120 C130 1.465 . S
C121 C120 1.264 . S
C121 C123 1.339 . S
C121 H148 0.931 . S
C122 C123 1.395 . S
C122 C124 1.320 . S
C123 C121 1.339 . S
C123 C122 1.395 . S
C123 H149 0.929 . S
C124 C122 1.320 . S
C124 C125 1.405 . S
C124 H150 0.930 . S
C125 C120 1.479 . S
C125 C124 1.405 . S
C125 H151 0.931 . S
U126 O127 2.454 . S
U126 O128 2.458 . S
U126 C129 2.984 . S
U126 C130 2.847 . S
U126 C143 2.882 . S
U126 O144 2.441 . S
U126 O145 2.420 . S
U126 O146 2.455 . S
U126 O147 2.449 . S
O127 U126 2.454 . S
O127 C129 1.353 . S
O128 U126 2.458 . S
O128 C129 1.286 . S
C129 U126 2.984 . S
C129 O127 1.353 . S
C129 O128 1.286 . S
C129 C131 1.363 . S
C130 C120 1.465 . S
C130 U126 2.847 . S
C130 O144 1.249 . S
C130 O145 1.202 . S
C131 C129 1.363 . S
C131 C133 1.408 . S
C131 C136 1.342 . S
C132 C133 1.310 . S
C132 C135 1.461 . S
C132 H152 0.932 . S
C133 C131 1.408 . S
C133 C132 1.310 . S
C133 H153 0.930 . S
C134 C135 1.474 . S
C134 C136 1.285 . S
C134 H154 0.929 . S
C135 C132 1.461 . S
C135 C134 1.474 . S
C136 C131 1.342 . S
C136 C134 1.285 . S
C136 H155 0.930 . S
C137 C140 1.424 . S
C137 C142 1.245 . S
C137 C143 1.428 . S
C138 C141 1.260 . S
C138 C142 1.477 . S
C138 H156 0.932 . S
C139 C140 1.384 . S
C139 C141 1.479 . S
C139 H157 0.929 . S
C140 C137 1.424 . S
C140 C139 1.384 . S
C140 H158 0.928 . S
C141 C138 1.260 . S
C141 C139 1.479 . S
C142 C137 1.245 . S
C142 C138 1.477 . S
C142 H159 0.932 . S
C143 U126 2.882 . S
C143 C137 1.428 . S
C143 O146 1.301 . S
C143 O147 1.282 . S
O144 U126 2.441 . S
O144 C130 1.249 . S
O145 U126 2.420 . S
O145 C130 1.202 . S
O146 U126 2.455 . S
O146 C143 1.301 . S
O147 U126 2.449 . S
O147 C143 1.282 . S
H148 C121 0.931 . S
H149 C123 0.929 . S
H150 C124 0.930 . S
H151 C125 0.931 . S
H152 C132 0.932 . S
H153 C133 0.930 . S
H154 C134 0.929 . S
H155 C136 0.930 . S
H156 C138 0.932 . S
H157 C139 0.929 . S
H158 C140 0.928 . S
H159 C142 0.932 . S
C160 C161 1.264 . S
C160 C165 1.479 . S
C160 C170 1.465 . S
C161 C160 1.264 . S
C161 C163 1.339 . S
C161 H188 0.931 . S
C162 C163 1.395 . S
C162 C164 1.320 . S
C163 C161 1.339 . S
C163 C162 1.395 . S
C163 H189 0.929 . S
C164 C162 1.320 . S
C164 C165 1.405 . S
C164 H190 0.930 . S
C165 C160 1.479 . S
C165 C164 1.405 . S
C165 H191 0.931 . S
U166 O167 2.454 . S
U166 O168 2.458 . S
U166 C169 2.984 . S
U166 C170 2.847 . S
U166 C183 2.882 . S
U166 O184 2.441 . S
U166 O185 2.420 . S
U166 O186 2.455 . S
U166 O187 2.449 . S
O167 U166 2.454 . S
O167 C169 1.353 . S
O168 U166 2.458 . S
O168 C169 1.286 . S
C169 U166 2.984 . S
C169 O167 1.353 . S
C169 O168 1.286 . S
C169 C171 1.363 . S
C170 C160 1.465 . S
C170 U166 2.847 . S
C170 O184 1.249 . S
C170 O185 1.202 . S
C171 C169 1.363 . S
C171 C173 1.408 . S
C171 C176 1.342 . S
C172 C173 1.310 . S
C172 C175 1.461 . S
C172 H192 0.932 . S
C173 C171 1.408 . S
C173 C172 1.310 . S
C173 H193 0.930 . S
C174 C175 1.474 . S
C174 C176 1.285 . S
C174 H194 0.929 . S
C175 C172 1.461 . S
C175 C174 1.474 . S
C176 C171 1.342 . S
C176 C174 1.285 . S
C176 H195 0.930 . S
C177 C180 1.424 . S
C177 C182 1.245 . S
C177 C183 1.428 . S
C178 C181 1.260 . S
C178 C182 1.477 . S
C178 H196 0.932 . S
C179 C180 1.384 . S
C179 C181 1.479 . S
C179 H197 0.929 . S
C180 C177 1.424 . S
C180 C179 1.384 . S
C180 H198 0.928 . S
C181 C178 1.260 . S
C181 C179 1.479 . S
C182 C177 1.245 . S
C182 C178 1.477 . S
C182 H199 0.932 . S
C183 U166 2.882 . S
C183 C177 1.428 . S
C183 O186 1.301 . S
C183 O187 1.282 . S
O184 U166 2.441 . S
O184 C170 1.249 . S
O185 U166 2.420 . S
O185 C170 1.202 . S
O186 U166 2.455 . S
O186 C183 1.301 . S
O187 U166 2.449 . S
O187 C183 1.282 . S
H188 C161 0.931 . S
H189 C163 0.929 . S
H190 C164 0.930 . S
H191 C165 0.931 . S
H192 C172 0.932 . S
H193 C173 0.930 . S
H194 C174 0.929 . S
H195 C176 0.930 . S
H196 C178 0.932 . S
H197 C179 0.929 . S
H198 C180 0.928 . S
H199 C182 0.932 . S
C200 C201 1.264 . S
C200 C205 1.479 . S
C200 C210 1.465 . S
C201 C200 1.264 . S
C201 C203 1.339 . S
C201 H228 0.931 . S
C202 C203 1.395 . S
C202 C204 1.320 . S
C203 C201 1.339 . S
C203 C202 1.395 . S
C203 H229 0.929 . S
C204 C202 1.320 . S
C204 C205 1.405 . S
C204 H230 0.930 . S
C205 C200 1.479 . S
C205 C204 1.405 . S
C205 H231 0.931 . S
U206 O207 2.454 . S
U206 O208 2.458 . S
U206 C209 2.984 . S
U206 C210 2.847 . S
U206 C223 2.882 . S
U206 O224 2.441 . S
U206 O225 2.420 . S
U206 O226 2.455 . S
U206 O227 2.449 . S
O207 U206 2.454 . S
O207 C209 1.353 . S
O208 U206 2.458 . S
O208 C209 1.286 . S
C209 U206 2.984 . S
C209 O207 1.353 . S
C209 O208 1.286 . S
C209 C211 1.363 . S
C210 C200 1.465 . S
C210 U206 2.847 . S
C210 O224 1.249 . S
C210 O225 1.202 . S
C211 C209 1.363 . S
C211 C213 1.408 . S
C211 C216 1.342 . S
C212 C213 1.310 . S
C212 C215 1.461 . S
C212 H232 0.932 . S
C213 C211 1.408 . S
C213 C212 1.310 . S
C213 H233 0.930 . S
C214 C215 1.474 . S
C214 C216 1.285 . S
C214 H234 0.929 . S
C215 C212 1.461 . S
C215 C214 1.474 . S
C216 C211 1.342 . S
C216 C214 1.285 . S
C216 H235 0.930 . S
C217 C220 1.424 . S
C217 C222 1.245 . S
C217 C223 1.428 . S
C218 C221 1.260 . S
C218 C222 1.477 . S
C218 H236 0.932 . S
C219 C220 1.384 . S
C219 C221 1.479 . S
C219 H237 0.929 . S
C220 C217 1.424 . S
C220 C219 1.384 . S
C220 H238 0.928 . S
C221 C218 1.260 . S
C221 C219 1.479 . S
C222 C217 1.245 . S
C222 C218 1.477 . S
C222 H239 0.932 . S
C223 U206 2.882 . S
C223 C217 1.428 . S
C223 O226 1.301 . S
C223 O227 1.282 . S
O224 U206 2.441 . S
O224 C210 1.249 . S
O225 U206 2.420 . S
O225 C210 1.202 . S
O226 U206 2.455 . S
O226 C223 1.301 . S
O227 U206 2.449 . S
O227 C223 1.282 . S
H228 C201 0.931 . S
H229 C203 0.929 . S
H230 C204 0.930 . S
H231 C205 0.931 . S
H232 C212 0.932 . S
H233 C213 0.930 . S
H234 C214 0.929 . S
H235 C216 0.930 . S
H236 C218 0.932 . S
H237 C219 0.929 . S
H238 C220 0.928 . S
H239 C222 0.932 . S
C240 C241 1.264 . S
C240 C245 1.479 . S
C240 C250 1.465 . S
C241 C240 1.264 . S
C241 C243 1.339 . S
C241 H268 0.931 . S
C242 C243 1.395 . S
C242 C244 1.320 . S
C243 C241 1.339 . S
C243 C242 1.395 . S
C243 H269 0.929 . S
C244 C242 1.320 . S
C244 C245 1.405 . S
C244 H270 0.930 . S
C245 C240 1.479 . S
C245 C244 1.405 . S
C245 H271 0.931 . S
U246 O247 2.454 . S
U246 O248 2.458 . S
U246 C249 2.984 . S
U246 C250 2.847 . S
U246 C263 2.882 . S
U246 O264 2.441 . S
U246 O265 2.420 . S
U246 O266 2.455 . S
U246 O267 2.449 . S
O247 U246 2.454 . S
O247 C249 1.353 . S
O248 U246 2.458 . S
O248 C249 1.286 . S
C249 U246 2.984 . S
C249 O247 1.353 . S
C249 O248 1.286 . S
C249 C251 1.363 . S
C250 C240 1.465 . S
C250 U246 2.847 . S
C250 O264 1.249 . S
C250 O265 1.202 . S
C251 C249 1.363 . S
C251 C253 1.408 . S
C251 C256 1.342 . S
C252 C253 1.310 . S
C252 C255 1.461 . S
C252 H272 0.932 . S
C253 C251 1.408 . S
C253 C252 1.310 . S
C253 H273 0.930 . S
C254 C255 1.474 . S
C254 C256 1.285 . S
C254 H274 0.929 . S
C255 C252 1.461 . S
C255 C254 1.474 . S
C256 C251 1.342 . S
C256 C254 1.285 . S
C256 H275 0.930 . S
C257 C260 1.424 . S
C257 C262 1.245 . S
C257 C263 1.428 . S
C258 C261 1.260 . S
C258 C262 1.477 . S
C258 H276 0.932 . S
C259 C260 1.384 . S
C259 C261 1.479 . S
C259 H277 0.929 . S
C260 C257 1.424 . S
C260 C259 1.384 . S
C260 H278 0.928 . S
C261 C258 1.260 . S
C261 C259 1.479 . S
C262 C257 1.245 . S
C262 C258 1.477 . S
C262 H279 0.932 . S
C263 U246 2.882 . S
C263 C257 1.428 . S
C263 O266 1.301 . S
C263 O267 1.282 . S
O264 U246 2.441 . S
O264 C250 1.249 . S
O265 U246 2.420 . S
O265 C250 1.202 . S
O266 U246 2.455 . S
O266 C263 1.301 . S
O267 U246 2.449 . S
O267 C263 1.282 . S
H268 C241 0.931 . S
H269 C243 0.929 . S
H270 C244 0.930 . S
H271 C245 0.931 . S
H272 C252 0.932 . S
H273 C253 0.930 . S
H274 C254 0.929 . S
H275 C256 0.930 . S
H276 C258 0.932 . S
H277 C259 0.929 . S
H278 C260 0.928 . S
H279 C262 0.932 . S
C280 C281 1.264 . S
C280 C285 1.479 . S
C280 C290 1.465 . S
C281 C280 1.264 . S
C281 C283 1.339 . S
C281 H308 0.931 . S
C282 C283 1.395 . S
C282 C284 1.320 . S
C283 C281 1.339 . S
C283 C282 1.395 . S
C283 H309 0.929 . S
C284 C282 1.320 . S
C284 C285 1.405 . S
C284 H310 0.930 . S
C285 C280 1.479 . S
C285 C284 1.405 . S
C285 H311 0.931 . S
U286 O287 2.454 . S
U286 O288 2.458 . S
U286 C289 2.984 . S
U286 C290 2.847 . S
U286 C303 2.882 . S
U286 O304 2.441 . S
U286 O305 2.420 . S
U286 O306 2.455 . S
U286 O307 2.449 . S
O287 U286 2.454 . S
O287 C289 1.353 . S
O288 U286 2.458 . S
O288 C289 1.286 . S
C289 U286 2.984 . S
C289 O287 1.353 . S
C289 O288 1.286 . S
C289 C291 1.363 . S
C290 C280 1.465 . S
C290 U286 2.847 . S
C290 O304 1.249 . S
C290 O305 1.202 . S
C291 C289 1.363 . S
C291 C293 1.408 . S
C291 C296 1.342 . S
C292 C293 1.310 . S
C292 C295 1.461 . S
C292 H312 0.932 . S
C293 C291 1.408 . S
C293 C292 1.310 . S
C293 H313 0.930 . S
C294 C295 1.474 . S
C294 C296 1.285 . S
C294 H314 0.929 . S
C295 C292 1.461 . S
C295 C294 1.474 . S
C296 C291 1.342 . S
C296 C294 1.285 . S
C296 H315 0.930 . S
C297 C300 1.424 . S
C297 C302 1.245 . S
C297 C303 1.428 . S
C298 C301 1.260 . S
C298 C302 1.477 . S
C298 H316 0.932 . S
C299 C300 1.384 . S
C299 C301 1.479 . S
C299 H317 0.929 . S
C300 C297 1.424 . S
C300 C299 1.384 . S
C300 H318 0.928 . S
C301 C298 1.260 . S
C301 C299 1.479 . S
C302 C297 1.245 . S
C302 C298 1.477 . S
C302 H319 0.932 . S
C303 U286 2.882 . S
C303 C297 1.428 . S
C303 O306 1.301 . S
C303 O307 1.282 . S
O304 U286 2.441 . S
O304 C290 1.249 . S
O305 U286 2.420 . S
O305 C290 1.202 . S
O306 U286 2.455 . S
O306 C303 1.301 . S
O307 U286 2.449 . S
O307 C303 1.282 . S
H308 C281 0.931 . S
H309 C283 0.929 . S
H310 C284 0.930 . S
H311 C285 0.931 . S
H312 C292 0.932 . S
H313 C293 0.930 . S
H314 C294 0.929 . S
H315 C296 0.930 . S
H316 C298 0.932 . S
H317 C299 0.929 . S
H318 C300 0.928 . S
H319 C302 0.932 . S
H320 C328 0.930 . S
H321 C331 0.930 . S
H322 C333 0.930 . S
H323 C334 0.970 . S
H324 C334 0.970 . S
H325 C336 0.930 . S
H326 C338 0.930 . S
H327 C340 0.930 . S
C328 H320 0.930 . S
C328 C329 1.382 . S
C328 C330 1.426 . S
C329 C328 1.382 . S
C329 C333 1.389 . S
C330 C328 1.426 . S
C330 C331 1.375 . S
C330 C334 1.532 1_655 S
C331 H321 0.930 . S
C331 C330 1.375 . S
C331 C332 1.416 . S
C332 C331 1.416 . S
C332 C333 1.371 . S
C333 H322 0.930 . S
C333 C329 1.389 . S
C333 C332 1.371 . S
C334 H323 0.970 . S
C334 H324 0.970 . S
C334 C330 1.532 1_455 S
C334 C335 1.499 . S
C335 C334 1.499 . S
C335 C336 1.370 . S
C335 C340 1.415 . S
C336 H325 0.930 . S
C336 C335 1.370 . S
C336 C337 1.407 . S
C337 C336 1.407 . S
C337 C338 1.365 . S
C338 H326 0.930 . S
C338 C337 1.365 . S
C338 C339 1.393 . S
C339 C338 1.393 . S
C339 C340 1.387 . S
C340 H327 0.930 . S
C340 C335 1.415 . S
C340 C339 1.387 . S
H341 C349 0.930 . S
H342 C352 0.930 . S
H343 C354 0.930 . S
H344 C355 0.970 . S
H345 C355 0.970 . S
H346 C357 0.930 . S
H347 C359 0.930 . S
H348 C361 0.930 . S
C349 H341 0.930 . S
C349 C350 1.382 . S
C349 C351 1.426 . S
C350 C349 1.382 . S
C350 C354 1.389 . S
C351 C349 1.426 . S
C351 C352 1.375 . S
C351 C355 1.532 . S
C352 H342 0.930 . S
C352 C351 1.375 . S
C352 C353 1.416 . S
C353 C352 1.416 . S
C353 C354 1.371 . S
C354 H343 0.930 . S
C354 C350 1.389 . S
C354 C353 1.371 . S
C355 H344 0.970 . S
C355 H345 0.970 . S
C355 C351 1.532 . S
C355 C356 1.499 1_455 S
C356 C355 1.499 1_655 S
C356 C357 1.370 . S
C356 C361 1.415 . S
C357 H346 0.930 . S
C357 C356 1.370 . S
C357 C358 1.407 . S
C358 C357 1.407 . S
C358 C359 1.365 . S
C359 H347 0.930 . S
C359 C358 1.365 . S
C359 C360 1.393 . S
C360 C359 1.393 . S
C360 C361 1.387 . S
C361 H348 0.930 . S
C361 C356 1.415 . S
C361 C360 1.387 . S
H362 C370 0.930 . S
H363 C373 0.930 . S
H364 C375 0.930 . S
H365 C376 0.970 . S
H366 C376 0.970 . S
H367 C378 0.930 . S
H368 C380 0.930 . S
H369 C382 0.930 . S
C370 H362 0.930 . S
C370 C371 1.382 . S
C370 C372 1.426 . S
C371 C370 1.382 . S
C371 C375 1.389 . S
C372 C370 1.426 . S
C372 C373 1.375 . S
C372 C376 1.532 . S
C373 H363 0.930 . S
C373 C372 1.375 . S
C373 C374 1.416 . S
C374 C373 1.416 . S
C374 C375 1.371 . S
C375 H364 0.930 . S
C375 C371 1.389 . S
C375 C374 1.371 . S
C376 H365 0.970 . S
C376 H366 0.970 . S
C376 C372 1.532 . S
C376 C377 1.499 1_545 S
C377 C376 1.499 1_565 S
C377 C378 1.370 . S
C377 C382 1.415 . S
C378 H367 0.930 . S
C378 C377 1.370 . S
C378 C379 1.407 . S
C379 C378 1.407 . S
C379 C380 1.365 . S
C380 H368 0.930 . S
C380 C379 1.365 . S
C380 C381 1.393 . S
C381 C380 1.393 . S
C381 C382 1.387 . S
C382 H369 0.930 . S
C382 C377 1.415 . S
C382 C381 1.387 . S
H383 C391 0.930 . S
H384 C394 0.930 . S
H385 C396 0.930 . S
H386 C397 0.970 1_556 S
H387 C397 0.970 . S
H388 C399 0.930 . S
H389 C401 0.930 . S
H390 C403 0.930 . S
C391 H383 0.930 . S
C391 C392 1.382 . S
C391 C393 1.426 1_556 S
C392 C391 1.382 . S
C392 C396 1.389 1_556 S
C393 C391 1.426 1_554 S
C393 C394 1.375 . S
C393 C397 1.532 . S
C394 H384 0.930 . S
C394 C393 1.375 . S
C394 C395 1.416 . S
C395 C394 1.416 . S
C395 C396 1.371 . S
C396 H385 0.930 . S
C396 C392 1.389 1_554 S
C396 C395 1.371 . S
C397 H386 0.970 1_554 S
C397 H387 0.970 . S
C397 C393 1.532 . S
C397 C398 1.499 . S
C398 C397 1.499 . S
C398 C399 1.370 1_554 S
C398 C403 1.415 . S
C399 H388 0.930 . S
C399 C398 1.370 1_556 S
C399 C400 1.407 . S
C400 C399 1.407 . S
C400 C401 1.365 1_556 S
C401 H389 0.930 . S
C401 C400 1.365 1_554 S
C401 C402 1.393 . S
C402 C401 1.393 . S
C402 C403 1.387 . S
C403 H390 0.930 . S
C403 C398 1.415 . S
C403 C402 1.387 . S
H404 C412 0.930 . S
H405 C415 0.930 . S
H406 C417 0.930 . S
H407 C418 0.970 . S
H408 C418 0.970 . S
H409 C420 0.930 . S
H410 C422 0.930 . S
H411 C424 0.930 . S
C412 H404 0.930 . S
C412 C413 1.382 . S
C412 C414 1.426 . S
C413 C412 1.382 . S
C413 C417 1.389 . S
C414 C412 1.426 . S
C414 C415 1.375 . S
C414 C418 1.532 . S
C415 H405 0.930 . S
C415 C414 1.375 . S
C415 C416 1.416 . S
C416 C415 1.416 . S
C416 C417 1.371 . S
C417 H406 0.930 . S
C417 C413 1.389 . S
C417 C416 1.371 . S
C418 H407 0.970 . S
C418 H408 0.970 . S
C418 C414 1.532 . S
C418 C419 1.499 1_545 S
C419 C418 1.499 1_565 S
C419 C420 1.370 . S
C419 C424 1.415 . S
C420 H409 0.930 . S
C420 C419 1.370 . S
C420 C421 1.407 . S
C421 C420 1.407 . S
C421 C422 1.365 . S
C422 H410 0.930 . S
C422 C421 1.365 . S
C422 C423 1.393 . S
C423 C422 1.393 . S
C423 C424 1.387 . S
C424 H411 0.930 . S
C424 C419 1.415 . S
C424 C423 1.387 . S
H425 C433 0.930 . S
H426 C436 0.930 . S
H427 C438 0.930 . S
H428 C439 1.003 . S
H429 C439 0.939 1_554 S
H430 C441 0.930 . S
H431 C443 0.930 . S
H432 C445 0.930 . S
C433 H425 0.930 . S
C433 C434 1.382 . S
C433 C435 1.456 . S
C434 C433 1.382 . S
C434 C438 1.389 . S
C435 C433 1.456 . S
C435 C436 1.346 1_556 S
C435 C439 1.532 . S
C436 H426 0.930 . S
C436 C435 1.346 1_554 S
C436 C437 1.416 . S
C437 C436 1.416 . S
C437 C438 1.371 1_554 S
C438 H427 0.930 . S
C438 C434 1.389 . S
C438 C437 1.371 1_556 S
C439 H428 1.003 . S
C439 H429 0.939 1_556 S
C439 C435 1.532 . S
C439 C440 1.499 1_556 S
C440 C439 1.499 1_554 S
C440 C441 1.367 1_554 S
C440 C445 1.418 . S
C441 H430 0.930 . S
C441 C440 1.367 1_556 S
C441 C442 1.407 . S
C442 C441 1.407 . S
C442 C443 1.365 1_556 S
C443 H431 0.930 . S
C443 C442 1.365 1_554 S
C443 C444 1.393 . S
C444 C443 1.393 . S
C444 C445 1.387 . S
C445 H432 0.930 . S
C445 C440 1.418 . S
C445 C444 1.387 . S
C446 C447 1.349 . S
C446 C448 1.327 . S
C446 H471 0.950 . S
C447 C446 1.349 . S
C447 C463 1.349 . S
C448 C446 1.327 . S
C448 C467 1.429 . S
C448 H472 0.950 . S
C449 C466 1.574 . S
C449 C468 1.368 . S
C449 H473 0.949 . S
H450 C454 0.949 . S
C451 C452 1.349 . S
C451 C453 1.327 . S
C451 H474 0.950 . S
C452 C451 1.349 . S
C452 C464 1.349 . S
C453 C451 1.327 . S
C453 C469 1.429 . S
C453 H475 0.950 . S
C454 H450 0.949 . S
C454 C462 1.574 . S
C454 C470 1.368 . S
H455 C463 0.950 . S
H456 C461 0.950 . S
H457 C462 0.949 . S
H458 C464 0.950 . S
H459 C465 0.950 . S
H460 C466 0.949 . S
C461 H456 0.950 . S
C461 C463 1.327 . S
C461 C467 1.429 . S
C462 C454 1.574 . S
C462 H457 0.949 . S
C462 C468 1.368 . S
C463 C447 1.349 . S
C463 H455 0.950 . S
C463 C461 1.327 . S
C464 C452 1.349 . S
C464 H458 0.950 . S
C464 C465 1.327 . S
C465 H459 0.950 . S
C465 C464 1.327 . S
C465 C469 1.429 . S
C466 C449 1.574 . S
C466 H460 0.949 . S
C466 C470 1.368 . S
C467 C448 1.429 . S
C467 C461 1.429 . S
C467 C468 1.523 . S
C468 C449 1.368 . S
C468 C462 1.368 . S
C468 C467 1.523 . S
C469 C453 1.429 . S
C469 C465 1.429 . S
C469 C470 1.523 . S
C470 C454 1.368 . S
C470 C466 1.368 . S
C470 C469 1.523 . S
H471 C446 0.950 . S
H472 C448 0.950 . S
H473 C449 0.949 . S
H474 C451 0.950 . S
H475 C453 0.950 . S
C476 C477 1.349 . S
C476 C478 1.327 . S
C476 H501 0.950 . S
C477 C476 1.349 . S
C477 C493 1.349 . S
C478 C476 1.327 . S
C478 C497 1.429 . S
C478 H502 0.950 . S
C479 C496 1.574 . S
C479 C498 1.368 . S
C479 H503 0.949 . S
H480 C484 0.949 . S
C481 C482 1.349 . S
C481 C483 1.327 . S
C481 H504 0.950 . S
C482 C481 1.349 . S
C482 C494 1.349 . S
C483 C481 1.327 . S
C483 C499 1.429 . S
C483 H505 0.950 . S
C484 H480 0.949 . S
C484 C492 1.574 . S
C484 C500 1.368 . S
H485 C493 0.950 . S
H486 C491 0.950 . S
H487 C492 0.949 . S
H488 C494 0.950 . S
H489 C495 0.950 . S
H490 C496 0.949 . S
C491 H486 0.950 . S
C491 C493 1.327 . S
C491 C497 1.429 . S
C492 C484 1.574 . S
C492 H487 0.949 . S
C492 C498 1.368 . S
C493 C477 1.349 . S
C493 H485 0.950 . S
C493 C491 1.327 . S
C494 C482 1.349 . S
C494 H488 0.950 . S
C494 C495 1.327 . S
C495 H489 0.950 . S
C495 C494 1.327 . S
C495 C499 1.429 . S
C496 C479 1.574 . S
C496 H490 0.949 . S
C496 C500 1.368 . S
C497 C478 1.429 . S
C497 C491 1.429 . S
C497 C498 1.523 . S
C498 C479 1.368 . S
C498 C492 1.368 . S
C498 C497 1.523 . S
C499 C483 1.429 . S
C499 C495 1.429 . S
C499 C500 1.523 . S
C500 C484 1.368 . S
C500 C496 1.368 . S
C500 C499 1.523 . S
H501 C476 0.950 . S
H502 C478 0.950 . S
H503 C479 0.949 . S
H504 C481 0.950 . S
H505 C483 0.950 . S
C506 C507 1.349 . S
C506 C508 1.327 . S
C506 H531 0.950 . S
C507 C506 1.349 . S
C507 C523 1.349 . S
C508 C506 1.327 . S
C508 C527 1.429 . S
C508 H532 0.950 . S
C509 C526 1.574 . S
C509 C528 1.368 . S
C509 H533 0.949 . S
H510 C514 0.949 . S
C511 C512 1.349 . S
C511 C513 1.327 . S
C511 H534 0.950 . S
C512 C511 1.349 . S
C512 C524 1.349 . S
C513 C511 1.327 . S
C513 C529 1.429 . S
C513 H535 0.950 . S
C514 H510 0.949 . S
C514 C522 1.574 . S
C514 C530 1.368 . S
H515 C523 0.950 . S
H516 C521 0.950 . S
H517 C522 0.949 . S
H518 C524 0.950 . S
H519 C525 0.950 . S
H520 C526 0.949 . S
C521 H516 0.950 . S
C521 C523 1.327 . S
C521 C527 1.429 . S
C522 C514 1.574 . S
C522 H517 0.949 . S
C522 C528 1.368 . S
C523 C507 1.349 . S
C523 H515 0.950 . S
C523 C521 1.327 . S
C524 C512 1.349 . S
C524 H518 0.950 . S
C524 C525 1.327 . S
C525 H519 0.950 . S
C525 C524 1.327 . S
C525 C529 1.429 . S
C526 C509 1.574 . S
C526 H520 0.949 . S
C526 C530 1.368 . S
C527 C508 1.429 . S
C527 C521 1.429 . S
C527 C528 1.523 . S
C528 C509 1.368 . S
C528 C522 1.368 . S
C528 C527 1.523 . S
C529 C513 1.429 . S
C529 C525 1.429 . S
C529 C530 1.523 . S
C530 C514 1.368 . S
C530 C526 1.368 . S
C530 C529 1.523 . S
H531 C506 0.950 . S
H532 C508 0.950 . S
H533 C509 0.949 . S
H534 C511 0.950 . S
H535 C513 0.950 . S
C536 C537 1.349 . S
C536 C538 1.327 . S
C536 H561 0.950 . S
C537 C536 1.349 . S
C537 C553 1.349 . S
C538 C536 1.327 . S
C538 C557 1.429 . S
C538 H562 0.950 . S
C539 C556 1.574 . S
C539 C558 1.368 . S
C539 H563 0.949 . S
H540 C544 0.949 . S
C541 C542 1.349 . S
C541 C543 1.327 . S
C541 H564 0.950 . S
C542 C541 1.349 . S
C542 C554 1.349 . S
C543 C541 1.327 . S
C543 C559 1.429 . S
C543 H565 0.950 . S
C544 H540 0.949 . S
C544 C552 1.574 . S
C544 C560 1.368 . S
H545 C553 0.950 . S
H546 C551 0.950 . S
H547 C552 0.949 . S
H548 C554 0.950 . S
H549 C555 0.950 . S
H550 C556 0.949 . S
C551 H546 0.950 . S
C551 C553 1.327 . S
C551 C557 1.429 . S
C552 C544 1.574 . S
C552 H547 0.949 . S
C552 C558 1.368 . S
C553 C537 1.349 . S
C553 H545 0.950 . S
C553 C551 1.327 . S
C554 C542 1.349 . S
C554 H548 0.950 . S
C554 C555 1.327 . S
C555 H549 0.950 . S
C555 C554 1.327 . S
C555 C559 1.429 . S
C556 C539 1.574 . S
C556 H550 0.949 . S
C556 C560 1.368 . S
C557 C538 1.429 . S
C557 C551 1.429 . S
C557 C558 1.523 . S
C558 C539 1.368 . S
C558 C552 1.368 . S
C558 C557 1.523 . S
C559 C543 1.429 . S
C559 C555 1.429 . S
C559 C560 1.523 . S
C560 C544 1.368 . S
C560 C556 1.368 . S
C560 C559 1.523 . S
H561 C536 0.950 . S
H562 C538 0.950 . S
H563 C539 0.949 . S
H564 C541 0.950 . S
H565 C543 0.950 . S
C566 C567 1.349 . S
C566 C568 1.327 . S
C566 H591 0.950 . S
C567 C566 1.349 . S
C567 C583 1.349 . S
C568 C566 1.327 . S
C568 C587 1.429 . S
C568 H592 0.950 . S
C569 C586 1.574 . S
C569 C588 1.368 . S
C569 H593 0.949 . S
H570 C574 0.949 . S
C571 C572 1.349 . S
C571 C573 1.327 . S
C571 H594 0.950 . S
C572 C571 1.349 . S
C572 C584 1.349 . S
C573 C571 1.327 . S
C573 C589 1.429 . S
C573 H595 0.950 . S
C574 H570 0.949 . S
C574 C582 1.574 . S
C574 C590 1.368 . S
H575 C583 0.950 . S
H576 C581 0.950 . S
H577 C582 0.949 . S
H578 C584 0.950 . S
H579 C585 0.950 . S
H580 C586 0.949 . S
C581 H576 0.950 . S
C581 C583 1.327 . S
C581 C587 1.429 . S
C582 C574 1.574 . S
C582 H577 0.949 . S
C582 C588 1.368 . S
C583 C567 1.349 . S
C583 H575 0.950 . S
C583 C581 1.327 . S
C584 C572 1.349 . S
C584 H578 0.950 . S
C584 C585 1.327 . S
C585 H579 0.950 . S
C585 C584 1.327 . S
C585 C589 1.429 . S
C586 C569 1.574 . S
C586 H580 0.949 . S
C586 C590 1.368 . S
C587 C568 1.429 . S
C587 C581 1.429 . S
C587 C588 1.523 . S
C588 C569 1.368 . S
C588 C582 1.368 . S
C588 C587 1.523 . S
C589 C573 1.429 . S
C589 C585 1.429 . S
C589 C590 1.523 . S
C590 C574 1.368 . S
C590 C586 1.368 . S
C590 C589 1.523 . S
H591 C566 0.950 . S
H592 C568 0.950 . S
H593 C569 0.949 . S
H594 C571 0.950 . S
H595 C573 0.950 . S
C596 C597 1.349 . S
C596 C598 1.327 . S
C596 H621 0.950 . S
C597 C596 1.349 . S
C597 C613 1.349 . S
C598 C596 1.327 . S
C598 C617 1.429 . S
C598 H622 0.950 . S
C599 C616 1.574 . S
C599 C618 1.368 . S
C599 H623 0.949 . S
H600 C604 0.949 . S
C601 C602 1.349 . S
C601 C603 1.327 . S
C601 H624 0.950 . S
C602 C601 1.349 . S
C602 C614 1.349 . S
C603 C601 1.327 . S
C603 C619 1.429 . S
C603 H625 0.950 . S
C604 H600 0.949 . S
C604 C612 1.574 . S
C604 C620 1.368 . S
H605 C613 0.950 . S
H606 C611 0.950 . S
H607 C612 0.949 . S
H608 C614 0.950 . S
H609 C615 0.950 . S
H610 C616 0.949 . S
C611 H606 0.950 . S
C611 C613 1.327 . S
C611 C617 1.429 . S
C612 C604 1.574 . S
C612 H607 0.949 . S
C612 C618 1.368 . S
C613 C597 1.349 . S
C613 H605 0.950 . S
C613 C611 1.327 . S
C614 C602 1.349 . S
C614 H608 0.950 . S
C614 C615 1.327 . S
C615 H609 0.950 . S
C615 C614 1.327 . S
C615 C619 1.429 . S
C616 C599 1.574 . S
C616 H610 0.949 . S
C616 C620 1.368 . S
C617 C598 1.429 . S
C617 C611 1.429 . S
C617 C618 1.523 . S
C618 C599 1.368 . S
C618 C612 1.368 . S
C618 C617 1.523 . S
C619 C603 1.429 . S
C619 C615 1.429 . S
C619 C620 1.523 . S
C620 C604 1.368 . S
C620 C616 1.368 . S
C620 C619 1.523 . S
H621 C596 0.950 . S
H622 C598 0.950 . S
H623 C599 0.949 . S
H624 C601 0.950 . S
H625 C603 0.950 . S
C626 C627 1.349 . S
C626 C628 1.327 . S
C626 H651 0.950 . S
C627 C626 1.349 . S
C627 C643 1.349 . S
C628 C626 1.327 . S
C628 C647 1.429 . S
C628 H652 0.950 . S
C629 C646 1.574 . S
C629 C648 1.368 . S
C629 H653 0.949 . S
H630 C634 0.949 . S
C631 C632 1.349 . S
C631 C633 1.327 . S
C631 H654 0.950 . S
C632 C631 1.349 . S
C632 C644 1.349 . S
C633 C631 1.327 . S
C633 C649 1.429 . S
C633 H655 0.950 . S
C634 H630 0.949 . S
C634 C642 1.574 . S
C634 C650 1.368 . S
H635 C643 0.950 . S
H636 C641 0.950 . S
H637 C642 0.949 . S
H638 C644 0.950 . S
H639 C645 0.950 . S
H640 C646 0.949 . S
C641 H636 0.950 . S
C641 C643 1.327 . S
C641 C647 1.429 . S
C642 C634 1.574 . S
C642 H637 0.949 . S
C642 C648 1.368 . S
C643 C627 1.349 . S
C643 H635 0.950 . S
C643 C641 1.327 . S
C644 C632 1.349 . S
C644 H638 0.950 . S
C644 C645 1.327 . S
C645 H639 0.950 . S
C645 C644 1.327 . S
C645 C649 1.429 . S
C646 C629 1.574 . S
C646 H640 0.949 . S
C646 C650 1.368 . S
C647 C628 1.429 . S
C647 C641 1.429 . S
C647 C648 1.523 . S
C648 C629 1.368 . S
C648 C642 1.368 . S
C648 C647 1.523 . S
C649 C633 1.429 . S
C649 C645 1.429 . S
C649 C650 1.523 . S
C650 C634 1.368 . S
C650 C646 1.368 . S
C650 C649 1.523 . S
H651 C626 0.950 . S
H652 C628 0.950 . S
H653 C629 0.949 . S
H654 C631 0.950 . S
H655 C633 0.950 . S
C656 C657 1.349 . S
C656 C658 1.327 . S
C656 H681 0.950 . S
C657 C656 1.349 . S
C657 C673 1.349 . S
C658 C656 1.327 . S
C658 C677 1.429 . S
C658 H682 0.950 . S
C659 C676 1.574 . S
C659 C678 1.368 . S
C659 H683 0.949 . S
H660 C664 0.949 . S
C661 C662 1.349 . S
C661 C663 1.327 . S
C661 H684 0.950 . S
C662 C661 1.349 . S
C662 C674 1.349 . S
C663 C661 1.327 . S
C663 C679 1.429 . S
C663 H685 0.950 . S
C664 H660 0.949 . S
C664 C672 1.574 . S
C664 C680 1.368 . S
H665 C673 0.950 . S
H666 C671 0.950 . S
H667 C672 0.949 . S
H668 C674 0.950 . S
H669 C675 0.950 . S
H670 C676 0.949 . S
C671 H666 0.950 . S
C671 C673 1.327 . S
C671 C677 1.429 . S
C672 C664 1.574 . S
C672 H667 0.949 . S
C672 C678 1.368 . S
C673 C657 1.349 . S
C673 H665 0.950 . S
C673 C671 1.327 . S
C674 C662 1.349 . S
C674 H668 0.950 . S
C674 C675 1.327 . S
C675 H669 0.950 . S
C675 C674 1.327 . S
C675 C679 1.429 . S
C676 C659 1.574 . S
C676 H670 0.949 . S
C676 C680 1.368 . S
C677 C658 1.429 . S
C677 C671 1.429 . S
C677 C678 1.523 . S
C678 C659 1.368 . S
C678 C672 1.368 . S
C678 C677 1.523 . S
C679 C663 1.429 . S
C679 C675 1.429 . S
C679 C680 1.523 . S
C680 C664 1.368 . S
C680 C676 1.368 . S
C680 C679 1.523 . S
H681 C656 0.950 . S
H682 C658 0.950 . S
H683 C659 0.949 . S
H684 C661 0.950 . S
H685 C663 0.950 . S
C686 C687 1.349 . S
C686 C688 1.327 . S
C686 H711 0.950 . S
C687 C686 1.349 . S
C687 C703 1.349 . S
C688 C686 1.327 . S
C688 C707 1.429 . S
C688 H712 0.950 . S
C689 C706 1.574 . S
C689 C708 1.368 . S
C689 H713 0.949 . S
H690 C694 0.949 . S
C691 C692 1.349 . S
C691 C693 1.327 . S
C691 H714 0.950 . S
C692 C691 1.349 . S
C692 C704 1.349 . S
C693 C691 1.327 . S
C693 C709 1.429 . S
C693 H715 0.950 . S
C694 H690 0.949 . S
C694 C702 1.574 . S
C694 C710 1.368 . S
H695 C703 0.950 . S
H696 C701 0.950 . S
H697 C702 0.949 . S
H698 C704 0.950 . S
H699 C705 0.950 . S
H700 C706 0.949 . S
C701 H696 0.950 . S
C701 C703 1.327 . S
C701 C707 1.429 . S
C702 C694 1.574 . S
C702 H697 0.949 . S
C702 C708 1.368 . S
C703 C687 1.349 . S
C703 H695 0.950 . S
C703 C701 1.327 . S
C704 C692 1.349 . S
C704 H698 0.950 . S
C704 C705 1.327 . S
C705 H699 0.950 . S
C705 C704 1.327 . S
C705 C709 1.429 . S
C706 C689 1.574 . S
C706 H700 0.949 . S
C706 C710 1.368 . S
C707 C688 1.429 . S
C707 C701 1.429 . S
C707 C708 1.523 . S
C708 C689 1.368 . S
C708 C702 1.368 . S
C708 C707 1.523 . S
C709 C693 1.429 . S
C709 C705 1.429 . S
C709 C710 1.523 . S
C710 C694 1.368 . S
C710 C706 1.368 . S
C710 C709 1.523 . S
H711 C686 0.950 . S
H712 C688 0.950 . S
H713 C689 0.949 . S
H714 C691 0.950 . S
H715 C693 0.950 . S
C716 C717 1.349 . S
C716 C718 1.327 . S
C716 H741 0.950 . S
C717 C716 1.349 . S
C717 C733 1.349 . S
C718 C716 1.327 . S
C718 C737 1.429 . S
C718 H742 0.950 . S
C719 C736 1.574 . S
C719 C738 1.368 . S
C719 H743 0.949 . S
H720 C724 0.949 . S
C721 C722 1.349 . S
C721 C723 1.327 . S
C721 H744 0.950 . S
C722 C721 1.349 . S
C722 C734 1.349 . S
C723 C721 1.327 . S
C723 C739 1.429 . S
C723 H745 0.950 . S
C724 H720 0.949 . S
C724 C732 1.574 . S
C724 C740 1.368 . S
H725 C733 0.950 . S
H726 C731 0.950 . S
H727 C732 0.949 . S
H728 C734 0.950 . S
H729 C735 0.950 . S
H730 C736 0.949 . S
C731 H726 0.950 . S
C731 C733 1.327 . S
C731 C737 1.429 . S
C732 C724 1.574 . S
C732 H727 0.949 . S
C732 C738 1.368 . S
C733 C717 1.349 . S
C733 H725 0.950 . S
C733 C731 1.327 . S
C734 C722 1.349 . S
C734 H728 0.950 . S
C734 C735 1.327 . S
C735 H729 0.950 . S
C735 C734 1.327 . S
C735 C739 1.429 . S
C736 C719 1.574 . S
C736 H730 0.949 . S
C736 C740 1.368 . S
C737 C718 1.429 . S
C737 C731 1.429 . S
C737 C738 1.523 . S
C738 C719 1.368 . S
C738 C732 1.368 . S
C738 C737 1.523 . S
C739 C723 1.429 . S
C739 C735 1.429 . S
C739 C740 1.523 . S
C740 C724 1.368 . S
C740 C736 1.368 . S
C740 C739 1.523 . S
H741 C716 0.950 . S
H742 C718 0.950 . S
H743 C719 0.949 . S
H744 C721 0.950 . S
H745 C723 0.950 . S
C746 C747 1.349 . S
C746 C748 1.327 . S
C746 H771 0.950 . S
C747 C746 1.349 . S
C747 C763 1.349 . S
C748 C746 1.327 . S
C748 C767 1.429 . S
C748 H772 0.950 . S
C749 C766 1.574 . S
C749 C768 1.368 . S
C749 H773 0.949 . S
H750 C754 0.949 . S
C751 C752 1.349 . S
C751 C753 1.327 . S
C751 H774 0.950 . S
C752 C751 1.349 . S
C752 C764 1.349 . S
C753 C751 1.327 . S
C753 C769 1.429 . S
C753 H775 0.950 . S
C754 H750 0.949 . S
C754 C762 1.574 . S
C754 C770 1.368 . S
H755 C763 0.950 . S
H756 C761 0.950 . S
H757 C762 0.949 . S
H758 C764 0.950 . S
H759 C765 0.950 . S
H760 C766 0.949 . S
C761 H756 0.950 . S
C761 C763 1.327 . S
C761 C767 1.429 . S
C762 C754 1.574 . S
C762 H757 0.949 . S
C762 C768 1.368 . S
C763 C747 1.349 . S
C763 H755 0.950 . S
C763 C761 1.327 . S
C764 C752 1.349 . S
C764 H758 0.950 . S
C764 C765 1.327 . S
C765 H759 0.950 . S
C765 C764 1.327 . S
C765 C769 1.429 . S
C766 C749 1.574 . S
C766 H760 0.949 . S
C766 C770 1.368 . S
C767 C748 1.429 . S
C767 C761 1.429 . S
C767 C768 1.523 . S
C768 C749 1.368 . S
C768 C762 1.368 . S
C768 C767 1.523 . S
C769 C753 1.429 . S
C769 C765 1.429 . S
C769 C770 1.523 . S
C770 C754 1.368 . S
C770 C766 1.368 . S
C770 C769 1.523 . S
H771 C746 0.950 . S
H772 C748 0.950 . S
H773 C749 0.949 . S
H774 C751 0.950 . S
H775 C753 0.950 . S
C776 C777 1.349 . S
C776 C778 1.327 . S
C776 H801 0.950 . S
C777 C776 1.349 . S
C777 C793 1.349 . S
C778 C776 1.327 . S
C778 C797 1.429 . S
C778 H802 0.950 . S
C779 C796 1.574 . S
C779 C798 1.368 . S
C779 H803 0.949 . S
H780 C784 0.949 . S
C781 C782 1.349 . S
C781 C783 1.327 . S
C781 H804 0.950 . S
C782 C781 1.349 . S
C782 C794 1.349 . S
C783 C781 1.327 . S
C783 C799 1.429 . S
C783 H805 0.950 . S
C784 H780 0.949 . S
C784 C792 1.574 . S
C784 C800 1.368 . S
H785 C793 0.950 . S
H786 C791 0.950 . S
H787 C792 0.949 . S
H788 C794 0.950 . S
H789 C795 0.950 . S
H790 C796 0.949 . S
C791 H786 0.950 . S
C791 C793 1.327 . S
C791 C797 1.429 . S
C792 C784 1.574 . S
C792 H787 0.949 . S
C792 C798 1.368 . S
C793 C777 1.349 . S
C793 H785 0.950 . S
C793 C791 1.327 . S
C794 C782 1.349 . S
C794 H788 0.950 . S
C794 C795 1.327 . S
C795 H789 0.950 . S
C795 C794 1.327 . S
C795 C799 1.429 . S
C796 C779 1.574 . S
C796 H790 0.949 . S
C796 C800 1.368 . S
C797 C778 1.429 . S
C797 C791 1.429 . S
C797 C798 1.523 . S
C798 C779 1.368 . S
C798 C792 1.368 . S
C798 C797 1.523 . S
C799 C783 1.429 . S
C799 C795 1.429 . S
C799 C800 1.523 . S
C800 C784 1.368 . S
C800 C796 1.368 . S
C800 C799 1.523 . S
H801 C776 0.950 . S
H802 C778 0.950 . S
H803 C779 0.949 . S
H804 C781 0.950 . S
H805 C783 0.950 . S
C806 C807 1.349 . S
C806 C808 1.327 . S
C806 H831 0.950 . S
C807 C806 1.349 . S
C807 C823 1.349 . S
C808 C806 1.327 . S
C808 C827 1.429 . S
C808 H832 0.950 . S
C809 C826 1.574 . S
C809 C828 1.368 . S
C809 H833 0.949 . S
H810 C814 0.949 . S
C811 C812 1.349 . S
C811 C813 1.327 . S
C811 H834 0.950 . S
C812 C811 1.349 . S
C812 C824 1.349 . S
C813 C811 1.327 . S
C813 C829 1.429 . S
C813 H835 0.950 . S
C814 H810 0.949 . S
C814 C822 1.574 . S
C814 C830 1.368 . S
H815 C823 0.950 . S
H816 C821 0.950 . S
H817 C822 0.949 . S
H818 C824 0.950 . S
H819 C825 0.950 . S
H820 C826 0.949 . S
C821 H816 0.950 . S
C821 C823 1.327 . S
C821 C827 1.429 . S
C822 C814 1.574 . S
C822 H817 0.949 . S
C822 C828 1.368 . S
C823 C807 1.349 . S
C823 H815 0.950 . S
C823 C821 1.327 . S
C824 C812 1.349 . S
C824 H818 0.950 . S
C824 C825 1.327 . S
C825 H819 0.950 . S
C825 C824 1.327 . S
C825 C829 1.429 . S
C826 C809 1.574 . S
C826 H820 0.949 . S
C826 C830 1.368 . S
C827 C808 1.429 . S
C827 C821 1.429 . S
C827 C828 1.523 . S
C828 C809 1.368 . S
C828 C822 1.368 . S
C828 C827 1.523 . S
C829 C813 1.429 . S
C829 C825 1.429 . S
C829 C830 1.523 . S
C830 C814 1.368 . S
C830 C826 1.368 . S
C830 C829 1.523 . S
H831 C806 0.950 . S
H832 C808 0.950 . S
H833 C809 0.949 . S
H834 C811 0.950 . S
H835 C813 0.950 . S
C836 C837 1.349 . S
C836 C838 1.327 . S
C836 H861 0.950 . S
C837 C836 1.349 . S
C837 C853 1.349 . S
C838 C836 1.327 . S
C838 C857 1.429 . S
C838 H862 0.950 . S
C839 C856 1.574 . S
C839 C858 1.368 . S
C839 H863 0.949 . S
H840 C844 0.949 . S
C841 C842 1.349 . S
C841 C843 1.327 . S
C841 H864 0.950 . S
C842 C841 1.349 . S
C842 C854 1.349 . S
C843 C841 1.327 . S
C843 C859 1.429 . S
C843 H865 0.950 . S
C844 H840 0.949 . S
C844 C852 1.574 . S
C844 C860 1.368 . S
H845 C853 0.950 . S
H846 C851 0.950 . S
H847 C852 0.949 . S
H848 C854 0.950 . S
H849 C855 0.950 . S
H850 C856 0.949 . S
C851 H846 0.950 . S
C851 C853 1.327 . S
C851 C857 1.429 . S
C852 C844 1.574 . S
C852 H847 0.949 . S
C852 C858 1.368 . S
C853 C837 1.349 . S
C853 H845 0.950 . S
C853 C851 1.327 . S
C854 C842 1.349 . S
C854 H848 0.950 . S
C854 C855 1.327 . S
C855 H849 0.950 . S
C855 C854 1.327 . S
C855 C859 1.429 . S
C856 C839 1.574 . S
C856 H850 0.949 . S
C856 C860 1.368 . S
C857 C838 1.429 . S
C857 C851 1.429 . S
C857 C858 1.523 . S
C858 C839 1.368 . S
C858 C852 1.368 . S
C858 C857 1.523 . S
C859 C843 1.429 . S
C859 C855 1.429 . S
C859 C860 1.523 . S
C860 C844 1.368 . S
C860 C856 1.368 . S
C860 C859 1.523 . S
H861 C836 0.950 . S
H862 C838 0.950 . S
H863 C839 0.949 . S
H864 C841 0.950 . S
H865 C843 0.950 . S
C866 C867 1.349 . S
C866 C868 1.327 . S
C866 H891 0.950 . S
C867 C866 1.349 . S
C867 C883 1.349 . S
C868 C866 1.327 . S
C868 C887 1.429 . S
C868 H892 0.950 . S
C869 C886 1.574 . S
C869 C888 1.368 . S
C869 H893 0.949 . S
H870 C874 0.949 . S
C871 C872 1.349 . S
C871 C873 1.327 . S
C871 H894 0.950 . S
C872 C871 1.349 . S
C872 C884 1.349 . S
C873 C871 1.327 . S
C873 C889 1.429 . S
C873 H895 0.950 . S
C874 H870 0.949 . S
C874 C882 1.574 . S
C874 C890 1.368 . S
H875 C883 0.950 . S
H876 C881 0.950 . S
H877 C882 0.949 . S
H878 C884 0.950 . S
H879 C885 0.950 . S
H880 C886 0.949 . S
C881 H876 0.950 . S
C881 C883 1.327 . S
C881 C887 1.429 . S
C882 C874 1.574 . S
C882 H877 0.949 . S
C882 C888 1.368 . S
C883 C867 1.349 . S
C883 H875 0.950 . S
C883 C881 1.327 . S
C884 C872 1.349 . S
C884 H878 0.950 . S
C884 C885 1.327 . S
C885 H879 0.950 . S
C885 C884 1.327 . S
C885 C889 1.429 . S
C886 C869 1.574 . S
C886 H880 0.949 . S
C886 C890 1.368 . S
C887 C868 1.429 . S
C887 C881 1.429 . S
C887 C888 1.523 . S
C888 C869 1.368 . S
C888 C882 1.368 . S
C888 C887 1.523 . S
C889 C873 1.429 . S
C889 C885 1.429 . S
C889 C890 1.523 . S
C890 C874 1.368 . S
C890 C886 1.368 . S
C890 C889 1.523 . S
H891 C866 0.950 . S
H892 C868 0.950 . S
H893 C869 0.949 . S
H894 C871 0.950 . S
H895 C873 0.950 . S
C896 C897 1.349 . S
C896 C898 1.327 . S
C896 H921 0.950 . S
C897 C896 1.349 . S
C897 C913 1.349 . S
C898 C896 1.327 . S
C898 C917 1.429 . S
C898 H922 0.950 . S
C899 C916 1.574 . S
C899 C918 1.368 . S
C899 H923 0.949 . S
H900 C904 0.949 . S
C901 C902 1.349 . S
C901 C903 1.327 . S
C901 H924 0.950 . S
C902 C901 1.349 . S
C902 C914 1.349 . S
C903 C901 1.327 . S
C903 C919 1.429 . S
C903 H925 0.950 . S
C904 H900 0.949 . S
C904 C912 1.574 . S
C904 C920 1.368 . S
H905 C913 0.950 . S
H906 C911 0.950 . S
H907 C912 0.949 . S
H908 C914 0.950 . S
H909 C915 0.950 . S
H910 C916 0.949 . S
C911 H906 0.950 . S
C911 C913 1.327 . S
C911 C917 1.429 . S
C912 C904 1.574 . S
C912 H907 0.949 . S
C912 C918 1.368 . S
C913 C897 1.349 . S
C913 H905 0.950 . S
C913 C911 1.327 . S
C914 C902 1.349 . S
C914 H908 0.950 . S
C914 C915 1.327 . S
C915 H909 0.950 . S
C915 C914 1.327 . S
C915 C919 1.429 . S
C916 C899 1.574 . S
C916 H910 0.949 . S
C916 C920 1.368 . S
C917 C898 1.429 . S
C917 C911 1.429 . S
C917 C918 1.523 . S
C918 C899 1.368 . S
C918 C912 1.368 . S
C918 C917 1.523 . S
C919 C903 1.429 . S
C919 C915 1.429 . S
C919 C920 1.523 . S
C920 C904 1.368 . S
C920 C916 1.368 . S
C920 C919 1.523 . S
H921 C896 0.950 . S
H922 C898 0.950 . S
H923 C899 0.949 . S
H924 C901 0.950 . S
H925 C903 0.950 . S
C926 C927 1.349 . S
C926 C928 1.327 . S
C926 H951 0.950 . S
C927 C926 1.349 . S
C927 C943 1.349 . S
C928 C926 1.327 . S
C928 C947 1.429 . S
C928 H952 0.950 . S
C929 C946 1.574 . S
C929 C948 1.368 . S
C929 H953 0.949 . S
H930 C934 0.949 . S
C931 C932 1.349 . S
C931 C933 1.327 . S
C931 H954 0.950 . S
C932 C931 1.349 . S
C932 C944 1.349 . S
C933 C931 1.327 . S
C933 C949 1.429 . S
C933 H955 0.950 . S
C934 H930 0.949 . S
C934 C942 1.574 . S
C934 C950 1.368 . S
H935 C943 0.950 . S
H936 C941 0.950 . S
H937 C942 0.949 . S
H938 C944 0.950 . S
H939 C945 0.950 . S
H940 C946 0.949 . S
C941 H936 0.950 . S
C941 C943 1.327 . S
C941 C947 1.429 . S
C942 C934 1.574 . S
C942 H937 0.949 . S
C942 C948 1.368 . S
C943 C927 1.349 . S
C943 H935 0.950 . S
C943 C941 1.327 . S
C944 C932 1.349 . S
C944 H938 0.950 . S
C944 C945 1.327 . S
C945 H939 0.950 . S
C945 C944 1.327 . S
C945 C949 1.429 . S
C946 C929 1.574 . S
C946 H940 0.949 . S
C946 C950 1.368 . S
C947 C928 1.429 . S
C947 C941 1.429 . S
C947 C948 1.523 . S
C948 C929 1.368 . S
C948 C942 1.368 . S
C948 C947 1.523 . S
C949 C933 1.429 . S
C949 C945 1.429 . S
C949 C950 1.523 . S
C950 C934 1.368 . S
C950 C946 1.368 . S
C950 C949 1.523 . S
H951 C926 0.950 . S
H952 C928 0.950 . S
H953 C929 0.949 . S
H954 C931 0.950 . S
H955 C933 0.950 . S
C956 C957 1.349 . S
C956 C958 1.327 . S
C956 H981 0.950 . S
C957 C956 1.349 . S
C957 C973 1.349 . S
C958 C956 1.327 . S
C958 C977 1.429 . S
C958 H982 0.950 . S
C959 C976 1.574 . S
C959 C978 1.368 . S
C959 H983 0.949 . S
H960 C964 0.949 . S
C961 C962 1.349 . S
C961 C963 1.327 . S
C961 H984 0.950 . S
C962 C961 1.349 . S
C962 C974 1.349 . S
C963 C961 1.327 . S
C963 C979 1.429 . S
C963 H985 0.950 . S
C964 H960 0.949 . S
C964 C972 1.574 . S
C964 C980 1.368 . S
H965 C973 0.950 . S
H966 C971 0.950 . S
H967 C972 0.949 . S
H968 C974 0.950 . S
H969 C975 0.950 . S
H970 C976 0.949 . S
C971 H966 0.950 . S
C971 C973 1.327 . S
C971 C977 1.429 . S
C972 C964 1.574 . S
C972 H967 0.949 . S
C972 C978 1.368 . S
C973 C957 1.349 . S
C973 H965 0.950 . S
C973 C971 1.327 . S
C974 C962 1.349 . S
C974 H968 0.950 . S
C974 C975 1.327 . S
C975 H969 0.950 . S
C975 C974 1.327 . S
C975 C979 1.429 . S
C976 C959 1.574 . S
C976 H970 0.949 . S
C976 C980 1.368 . S
C977 C958 1.429 . S
C977 C971 1.429 . S
C977 C978 1.523 . S
C978 C959 1.368 . S
C978 C972 1.368 . S
C978 C977 1.523 . S
C979 C963 1.429 . S
C979 C975 1.429 . S
C979 C980 1.523 . S
C980 C964 1.368 . S
C980 C976 1.368 . S
C980 C979 1.523 . S
H981 C956 0.950 . S
H982 C958 0.950 . S
H983 C959 0.949 . S
H984 C961 0.950 . S
H985 C963 0.950 . S
C986 C987 1.349 . S
C986 C988 1.327 . S
C986 H1011 0.950 . S
C987 C986 1.349 . S
C987 C1003 1.349 . S
C988 C986 1.327 . S
C988 C1007 1.429 . S
C988 H1012 0.950 . S
C989 C1006 1.574 . S
C989 C1008 1.368 . S
C989 H1013 0.949 . S
H990 C994 0.949 . S
C991 C992 1.349 . S
C991 C993 1.327 . S
C991 H1014 0.950 . S
C992 C991 1.349 . S
C992 C1004 1.349 . S
C993 C991 1.327 . S
C993 C1009 1.429 . S
C993 H1015 0.950 . S
C994 H990 0.949 . S
C994 C1002 1.574 . S
C994 C1010 1.368 . S
H995 C1003 0.950 . S
H996 C1001 0.950 . S
H997 C1002 0.949 . S
H998 C1004 0.950 . S
H999 C1005 0.950 . S
H1000 C1006 0.949 . S
C1001 H996 0.950 . S
C1001 C1003 1.327 . S
C1001 C1007 1.429 . S
C1002 C994 1.574 . S
C1002 H997 0.949 . S
C1002 C1008 1.368 . S
C1003 C987 1.349 . S
C1003 H995 0.950 . S
C1003 C1001 1.327 . S
C1004 C992 1.349 . S
C1004 H998 0.950 . S
C1004 C1005 1.327 . S
C1005 H999 0.950 . S
C1005 C1004 1.327 . S
C1005 C1009 1.429 . S
C1006 C989 1.574 . S
C1006 H1000 0.949 . S
C1006 C1010 1.368 . S
C1007 C988 1.429 . S
C1007 C1001 1.429 . S
C1007 C1008 1.523 . S
C1008 C989 1.368 . S
C1008 C1002 1.368 . S
C1008 C1007 1.523 . S
C1009 C993 1.429 . S
C1009 C1005 1.429 . S
C1009 C1010 1.523 . S
C1010 C994 1.368 . S
C1010 C1006 1.368 . S
C1010 C1009 1.523 . S
H1011 C986 0.950 . S
H1012 C988 0.950 . S
H1013 C989 0.949 . S
H1014 C991 0.950 . S
H1015 C993 0.950 . S
C1016 C1017 1.349 . S
C1016 C1018 1.327 . S
C1016 H1041 0.950 . S
C1017 C1016 1.349 . S
C1017 C1033 1.349 . S
C1018 C1016 1.327 . S
C1018 C1037 1.429 . S
C1018 H1042 0.950 . S
C1019 C1036 1.574 . S
C1019 C1038 1.368 . S
C1019 H1043 0.949 . S
H1020 C1024 0.949 . S
C1021 C1022 1.349 . S
C1021 C1023 1.327 . S
C1021 H1044 0.950 . S
C1022 C1021 1.349 . S
C1022 C1034 1.349 . S
C1023 C1021 1.327 . S
C1023 C1039 1.429 . S
C1023 H1045 0.950 . S
C1024 H1020 0.949 . S
C1024 C1032 1.574 . S
C1024 C1040 1.368 . S
H1025 C1033 0.950 . S
H1026 C1031 0.950 . S
H1027 C1032 0.949 . S
H1028 C1034 0.950 . S
H1029 C1035 0.950 . S
H1030 C1036 0.949 . S
C1031 H1026 0.950 . S
C1031 C1033 1.327 . S
C1031 C1037 1.429 . S
C1032 C1024 1.574 . S
C1032 H1027 0.949 . S
C1032 C1038 1.368 . S
C1033 C1017 1.349 . S
C1033 H1025 0.950 . S
C1033 C1031 1.327 . S
C1034 C1022 1.349 . S
C1034 H1028 0.950 . S
C1034 C1035 1.327 . S
C1035 H1029 0.950 . S
C1035 C1034 1.327 . S
C1035 C1039 1.429 . S
C1036 C1019 1.574 . S
C1036 H1030 0.949 . S
C1036 C1040 1.368 . S
C1037 C1018 1.429 . S
C1037 C1031 1.429 . S
C1037 C1038 1.523 . S
C1038 C1019 1.368 . S
C1038 C1032 1.368 . S
C1038 C1037 1.523 . S
C1039 C1023 1.429 . S
C1039 C1035 1.429 . S
C1039 C1040 1.523 . S
C1040 C1024 1.368 . S
C1040 C1036 1.368 . S
C1040 C1039 1.523 . S
H1041 C1016 0.950 . S
H1042 C1018 0.950 . S
H1043 C1019 0.949 . S
H1044 C1021 0.950 . S
H1045 C1023 0.950 . S
C1046 C1047 1.349 . S
C1046 C1048 1.327 . S
C1046 H1071 0.950 . S
C1047 C1046 1.349 . S
C1047 C1063 1.349 . S
C1048 C1046 1.327 . S
C1048 C1067 1.429 . S
C1048 H1072 0.950 . S
C1049 C1066 1.574 . S
C1049 C1068 1.368 . S
C1049 H1073 0.949 . S
H1050 C1054 0.949 . S
C1051 C1052 1.349 . S
C1051 C1053 1.327 . S
C1051 H1074 0.950 . S
C1052 C1051 1.349 . S
C1052 C1064 1.349 . S
C1053 C1051 1.327 . S
C1053 C1069 1.429 . S
C1053 H1075 0.950 . S
C1054 H1050 0.949 . S
C1054 C1062 1.574 . S
C1054 C1070 1.368 . S
H1055 C1063 0.950 . S
H1056 C1061 0.950 . S
H1057 C1062 0.949 . S
H1058 C1064 0.950 . S
H1059 C1065 0.950 . S
H1060 C1066 0.949 . S
C1061 H1056 0.950 . S
C1061 C1063 1.327 . S
C1061 C1067 1.429 . S
C1062 C1054 1.574 . S
C1062 H1057 0.949 . S
C1062 C1068 1.368 . S
C1063 C1047 1.349 . S
C1063 H1055 0.950 . S
C1063 C1061 1.327 . S
C1064 C1052 1.349 . S
C1064 H1058 0.950 . S
C1064 C1065 1.327 . S
C1065 H1059 0.950 . S
C1065 C1064 1.327 . S
C1065 C1069 1.429 . S
C1066 C1049 1.574 . S
C1066 H1060 0.949 . S
C1066 C1070 1.368 . S
C1067 C1048 1.429 . S
C1067 C1061 1.429 . S
C1067 C1068 1.523 . S
C1068 C1049 1.368 . S
C1068 C1062 1.368 . S
C1068 C1067 1.523 . S
C1069 C1053 1.429 . S
C1069 C1065 1.429 . S
C1069 C1070 1.523 . S
C1070 C1054 1.368 . S
C1070 C1066 1.368 . S
C1070 C1069 1.523 . S
H1071 C1046 0.950 . S
H1072 C1048 0.950 . S
H1073 C1049 0.949 . S
H1074 C1051 0.950 . S
H1075 C1053 0.950 . S
C1076 C1077 1.349 . S
C1076 C1078 1.327 . S
C1076 H1101 0.950 . S
C1077 C1076 1.349 . S
C1077 C1093 1.349 . S
C1078 C1076 1.327 . S
C1078 C1097 1.429 . S
C1078 H1102 0.950 . S
C1079 C1096 1.574 . S
C1079 C1098 1.368 . S
C1079 H1103 0.949 . S
H1080 C1084 0.949 . S
C1081 C1082 1.349 . S
C1081 C1083 1.327 . S
C1081 H1104 0.950 . S
C1082 C1081 1.349 . S
C1082 C1094 1.349 . S
C1083 C1081 1.327 . S
C1083 C1099 1.429 . S
C1083 H1105 0.950 . S
C1084 H1080 0.949 . S
C1084 C1092 1.574 . S
C1084 C1100 1.368 . S
H1085 C1093 0.950 . S
H1086 C1091 0.950 . S
H1087 C1092 0.949 . S
H1088 C1094 0.950 . S
H1089 C1095 0.950 . S
H1090 C1096 0.949 . S
C1091 H1086 0.950 . S
C1091 C1093 1.327 . S
C1091 C1097 1.429 . S
C1092 C1084 1.574 . S
C1092 H1087 0.949 . S
C1092 C1098 1.368 . S
C1093 C1077 1.349 . S
C1093 H1085 0.950 . S
C1093 C1091 1.327 . S
C1094 C1082 1.349 . S
C1094 H1088 0.950 . S
C1094 C1095 1.327 . S
C1095 H1089 0.950 . S
C1095 C1094 1.327 . S
C1095 C1099 1.429 . S
C1096 C1079 1.574 . S
C1096 H1090 0.949 . S
C1096 C1100 1.368 . S
C1097 C1078 1.429 . S
C1097 C1091 1.429 . S
C1097 C1098 1.523 . S
C1098 C1079 1.368 . S
C1098 C1092 1.368 . S
C1098 C1097 1.523 . S
C1099 C1083 1.429 . S
C1099 C1095 1.429 . S
C1099 C1100 1.523 . S
C1100 C1084 1.368 . S
C1100 C1096 1.368 . S
C1100 C1099 1.523 . S
H1101 C1076 0.950 . S
H1102 C1078 0.950 . S
H1103 C1079 0.949 . S
H1104 C1081 0.950 . S
H1105 C1083 0.950 . S
C1106 C1107 1.349 . S
C1106 C1108 1.327 . S
C1106 H1131 0.950 . S
C1107 C1106 1.349 . S
C1107 C1123 1.349 . S
C1108 C1106 1.327 . S
C1108 C1127 1.429 . S
C1108 H1132 0.950 . S
C1109 C1126 1.574 . S
C1109 C1128 1.368 . S
C1109 H1133 0.949 . S
H1110 C1114 0.949 . S
C1111 C1112 1.349 . S
C1111 C1113 1.327 . S
C1111 H1134 0.950 . S
C1112 C1111 1.349 . S
C1112 C1124 1.349 . S
C1113 C1111 1.327 . S
C1113 C1129 1.429 . S
C1113 H1135 0.950 . S
C1114 H1110 0.949 . S
C1114 C1122 1.574 . S
C1114 C1130 1.368 . S
H1115 C1123 0.950 . S
H1116 C1121 0.950 . S
H1117 C1122 0.949 . S
H1118 C1124 0.950 . S
H1119 C1125 0.950 . S
H1120 C1126 0.949 . S
C1121 H1116 0.950 . S
C1121 C1123 1.327 . S
C1121 C1127 1.429 . S
C1122 C1114 1.574 . S
C1122 H1117 0.949 . S
C1122 C1128 1.368 . S
C1123 C1107 1.349 . S
C1123 H1115 0.950 . S
C1123 C1121 1.327 . S
C1124 C1112 1.349 . S
C1124 H1118 0.950 . S
C1124 C1125 1.327 . S
C1125 H1119 0.950 . S
C1125 C1124 1.327 . S
C1125 C1129 1.429 . S
C1126 C1109 1.574 . S
C1126 H1120 0.949 . S
C1126 C1130 1.368 . S
C1127 C1108 1.429 . S
C1127 C1121 1.429 . S
C1127 C1128 1.523 . S
C1128 C1109 1.368 . S
C1128 C1122 1.368 . S
C1128 C1127 1.523 . S
C1129 C1113 1.429 . S
C1129 C1125 1.429 . S
C1129 C1130 1.523 . S
C1130 C1114 1.368 . S
C1130 C1126 1.368 . S
C1130 C1129 1.523 . S
H1131 C1106 0.950 . S
H1132 C1108 0.950 . S
H1133 C1109 0.949 . S
H1134 C1111 0.950 . S
H1135 C1113 0.950 . S
C1136 C1137 1.349 . S
C1136 C1138 1.327 . S
C1136 H1161 0.950 . S
C1137 C1136 1.349 . S
C1137 C1153 1.349 . S
C1138 C1136 1.327 . S
C1138 C1157 1.429 . S
C1138 H1162 0.950 . S
C1139 C1156 1.574 . S
C1139 C1158 1.368 . S
C1139 H1163 0.949 . S
H1140 C1144 0.949 . S
C1141 C1142 1.349 . S
C1141 C1143 1.327 . S
C1141 H1164 0.950 . S
C1142 C1141 1.349 . S
C1142 C1154 1.349 . S
C1143 C1141 1.327 . S
C1143 C1159 1.429 . S
C1143 H1165 0.950 . S
C1144 H1140 0.949 . S
C1144 C1152 1.574 . S
C1144 C1160 1.368 . S
H1145 C1153 0.950 . S
H1146 C1151 0.950 . S
H1147 C1152 0.949 . S
H1148 C1154 0.950 . S
H1149 C1155 0.950 . S
H1150 C1156 0.949 . S
C1151 H1146 0.950 . S
C1151 C1153 1.327 . S
C1151 C1157 1.429 . S
C1152 C1144 1.574 . S
C1152 H1147 0.949 . S
C1152 C1158 1.368 . S
C1153 C1137 1.349 . S
C1153 H1145 0.950 . S
C1153 C1151 1.327 . S
C1154 C1142 1.349 . S
C1154 H1148 0.950 . S
C1154 C1155 1.327 . S
C1155 H1149 0.950 . S
C1155 C1154 1.327 . S
C1155 C1159 1.429 . S
C1156 C1139 1.574 . S
C1156 H1150 0.949 . S
C1156 C1160 1.368 . S
C1157 C1138 1.429 . S
C1157 C1151 1.429 . S
C1157 C1158 1.523 . S
C1158 C1139 1.368 . S
C1158 C1152 1.368 . S
C1158 C1157 1.523 . S
C1159 C1143 1.429 . S
C1159 C1155 1.429 . S
C1159 C1160 1.523 . S
C1160 C1144 1.368 . S
C1160 C1156 1.368 . S
C1160 C1159 1.523 . S
H1161 C1136 0.950 . S
H1162 C1138 0.950 . S
H1163 C1139 0.949 . S
H1164 C1141 0.950 . S
H1165 C1143 0.950 . S
C452 C337 1.584 . S
C447 C15 1.668 . S
C482 C350 1.477 . S
C477 C55 1.614 . S
C512 C332 1.617 . S
C507 C101 1.671 . S
C542 C360 1.516 . S
C537 C141 1.638 . S
C572 C371 1.451 . S
C567 C2 1.526 . S
C602 C392 1.518 . S
C597 C61 1.614 . S
C627 C95 1.584 . S
C632 C421 1.486 . S
C662 C442 1.567 . S
C657 C135 1.644 . S
C692 C381 1.457 . S
C687 C42 1.520 . S
C717 C82 1.652 . S
C722 C402 1.575 . S
C752 C416 1.466 . S
C747 C122 1.570 . S
C782 C437 1.598 . S
C777 C21 1.650 . S
C807 C162 1.655 . S
C812 C358 1.494 . S
C842 C329 1.647 . S
C837 C221 1.728 . S
C867 C255 1.653 . S
C872 C353 1.474 . S
C897 C282 1.668 . S
C902 C339 1.631 . S
C932 C423 1.511 . S
C927 C181 1.589 . S
C962 C444 1.640 . S
C957 C202 1.690 . S
C992 C374 1.431 . S
C987 C242 1.557 . S
C1017 C301 1.679 . S
C1022 C395 1.538 . S
C1052 C413 1.512 . S
C1047 C215 1.599 . S
C1082 C434 1.615 . S
C1077 C261 1.678 . S
C1112 C379 1.437 . S
C1107 C295 1.550 . S
C1137 C175 1.656 . S
C1142 C400 1.516 . S
