# Generated by pormake.
# Topology anh, (6,3)-cn, num edge types: 1
# Building blocks:
#     Node 0, Type 0, BuildingBlock: MIFKUJ_clean_sbu_0, # of connection points: 6
#     Node 1, Type 0, BuildingBlock: MIFKUJ_clean_sbu_0, # of connection points: 6
#     Node 2, Type 0, BuildingBlock: MIFKUJ_clean_sbu_0, # of connection points: 6
#     Node 3, Type 1, BuildingBlock: VETTIZ_charged_linker_0, # of connection points: 3
#     Node 4, Type 1, BuildingBlock: VETTIZ_charged_linker_0, # of connection points: 3
#     Node 5, Type 1, BuildingBlock: VETTIZ_charged_linker_0, # of connection points: 3
#     Node 6, Type 1, BuildingBlock: VETTIZ_charged_linker_0, # of connection points: 3
#     Node 7, Type 1, BuildingBlock: VETTIZ_charged_linker_0, # of connection points: 3
#     Node 8, Type 1, BuildingBlock: VETTIZ_charged_linker_0, # of connection points: 3
#     Edge 9, Type (0, 1), BuildingBlock: MIFKUJ_clean_linker_0, # of connection points: 2
#     Edge 10, Type (0, 1), BuildingBlock: MIFKUJ_clean_linker_0, # of connection points: 2
#     Edge 11, Type (0, 1), BuildingBlock: MIFKUJ_clean_linker_0, # of connection points: 2
#     Edge 12, Type (0, 1), BuildingBlock: MIFKUJ_clean_linker_0, # of connection points: 2
#     Edge 13, Type (0, 1), BuildingBlock: MIFKUJ_clean_linker_0, # of connection points: 2
#     Edge 14, Type (0, 1), BuildingBlock: MIFKUJ_clean_linker_0, # of connection points: 2
#     Edge 15, Type (0, 1), BuildingBlock: MIFKUJ_clean_linker_0, # of connection points: 2
#     Edge 16, Type (0, 1), BuildingBlock: MIFKUJ_clean_linker_0, # of connection points: 2
#     Edge 17, Type (0, 1), BuildingBlock: MIFKUJ_clean_linker_0, # of connection points: 2
#     Edge 18, Type (0, 1), BuildingBlock: MIFKUJ_clean_linker_0, # of connection points: 2
#     Edge 19, Type (0, 1), BuildingBlock: MIFKUJ_clean_linker_0, # of connection points: 2
#     Edge 20, Type (0, 1), BuildingBlock: MIFKUJ_clean_linker_0, # of connection points: 2
#     Edge 21, Type (0, 1), BuildingBlock: MIFKUJ_clean_linker_0, # of connection points: 2
#     Edge 22, Type (0, 1), BuildingBlock: MIFKUJ_clean_linker_0, # of connection points: 2
#     Edge 23, Type (0, 1), BuildingBlock: MIFKUJ_clean_linker_0, # of connection points: 2
#     Edge 24, Type (0, 1), BuildingBlock: MIFKUJ_clean_linker_0, # of connection points: 2
#     Edge 25, Type (0, 1), BuildingBlock: MIFKUJ_clean_linker_0, # of connection points: 2
#     Edge 26, Type (0, 1), BuildingBlock: MIFKUJ_clean_linker_0, # of connection points: 2
# Relax obj value: 0.139
# Max RMSD: 0.185
# Mean RMSD: 0.143
data_MOF--net-anh--node1-MIFKUJ_clean_sbu_0--node2-VETTIZ_charged_linker_0--edge1-MIFKUJ_clean_linker_0
_symmetry_space_group_name_H-M    P1
_symmetry_Int_Tables_number       1
_symmetry_cell_setting            triclinic
loop_
_symmetry_equiv_pos_as_xyz
'x, y, z'
_cell_length_a     45.540721
_cell_length_b     45.565241
_cell_length_c     79.851792
_cell_angle_alpha  93.770273
_cell_angle_beta   90.748096
_cell_angle_gamma 120.02054
loop_
_atom_site_label
_atom_site_type_symbol
_atom_site_fract_x
_atom_site_fract_y
_atom_site_fract_z
_atom_type_partial_charge
Zn0 Zn 0.03493 0.55003 0.16427 0.0
Zn1 Zn 0.93712 0.4825 0.15787 0.0
C2 C 0.09045 0.54789 0.17997 0.0
O3 O 0.09175 0.57361 0.1891 0.0
C4 C 0.90618 0.52543 0.15574 0.0
O5 O 0.92326 0.53508 0.14211 0.0
O6 O 0.06553 0.60066 0.16584 0.0
O7 O 0.01691 0.53708 0.1403 0.0
O8 O 0.96166 0.49961 0.13667 0.0
C9 C 0.08897 0.61055 0.15548 0.0
O10 O 0.08967 0.58783 0.14473 0.0
O11 O 0.06618 0.53135 0.16892 0.0
C12 C 0.90677 0.40925 0.15341 0.0
O13 O 0.93667 0.41542 0.15913 0.0
O14 O 0.90175 0.43393 0.15166 0.0
O15 O 0.96428 0.482 0.17787 0.0
O16 O 0.99908 0.53703 0.18098 0.0
O17 O 0.90984 0.50512 0.16458 0.0
C18 C 0.99031 0.51901 0.13082 0.0
C19 C 0.98802 0.50787 0.18624 0.0
Zn20 Zn 0.54858 0.05768 0.50354 0.0
Zn21 Zn 0.5217 0.95836 0.50407 0.0
C22 C 0.61559 0.10935 0.50637 0.0
O23 O 0.60125 0.11638 0.51899 0.0
C24 C 0.44745 0.91749 0.49569 0.0
O25 O 0.45243 0.93994 0.48492 0.0
O26 O 0.5326 0.09127 0.50172 0.0
O27 O 0.517 0.01525 0.48934 0.0
O28 O 0.53193 0.97809 0.48161 0.0
C29 C 0.53856 0.10609 0.4882 0.0
O30 O 0.55345 0.09793 0.4763 0.0
O31 O 0.59762 0.08213 0.49692 0.0
C32 C 0.54061 0.91067 0.4944 0.0
O33 O 0.51763 0.90491 0.48254 0.0
O34 O 0.5482 0.93434 0.50591 0.0
O35 O 0.5332 0.99205 0.52456 0.0
O36 O 0.54782 0.04664 0.52746 0.0
O37 O 0.47249 0.92117 0.50468 0.0
C38 C 0.52856 0.00307 0.47832 0.0
C39 C 0.54151 0.01926 0.53379 0.0
Zn40 Zn 0.54857 0.49576 0.83491 0.0
Zn41 Zn 0.48333 0.52792 0.83137 0.0
C42 C 0.55425 0.44028 0.84613 0.0
O43 O 0.57859 0.46539 0.8558 0.0
C44 C 0.53135 0.60097 0.83053 0.0
O45 O 0.53901 0.59245 0.81588 0.0
O46 O 0.59983 0.52329 0.83506 0.0
O47 O 0.53124 0.4995 0.81247 0.0
O48 O 0.49524 0.51784 0.8085 0.0
C49 C 0.61535 0.53746 0.82221 0.0
O50 O 0.59785 0.5365 0.80879 0.0
O51 O 0.53688 0.44681 0.836 0.0
C52 C 0.41344 0.50929 0.83771 0.0
O53 O 0.418 0.49624 0.85099 0.0
O54 O 0.43701 0.52225 0.82754 0.0
O55 O 0.48092 0.49919 0.85015 0.0
O56 O 0.53302 0.50902 0.85611 0.0
O57 O 0.51096 0.57772 0.83937 0.0
C58 C 0.51387 0.50661 0.80275 0.0
C59 C 0.50489 0.50552 0.86073 0.0
C60 C 0.58847 0.09593 0.1936 0.0
C61 C 0.62018 0.12149 0.20075 0.0
C62 C 0.6253 0.12679 0.21839 0.0
C63 C 0.56783 0.08141 0.22146 0.0
C64 C 0.56279 0.0762 0.20416 0.0
C65 C 0.52773 0.04769 0.19867 0.0
H66 H 0.37489 0.92197 0.21968 0.0
C67 C 0.53627 0.05651 0.22881 0.0
C68 C 0.51267 0.03661 0.21553 0.0
H69 H 0.40961 0.94907 0.16987 0.0
H70 H 0.46328 0.99509 0.18186 0.0
H71 H 0.44044 0.92809 0.2344 0.0
H72 H 0.40631 0.00077 0.23633 0.0
H73 H 0.42286 0.00177 0.25652 0.0
H74 H 0.38696 0.96291 0.24734 0.0
H75 H 0.40953 0.92586 0.24874 0.0
H76 H 0.45452 0.9508 0.2542 0.0
C77 C 0.53122 0.01955 0.18847 0.0
C78 C 0.50932 0.06261 0.18887 0.0
C79 C 0.53022 0.05449 0.29226 0.0
C80 C 0.50531 0.03264 0.30274 0.0
C81 C 0.47424 0.00602 0.29528 0.0
C82 C 0.4681 0.00128 0.27781 0.0
C83 C 0.49339 0.02307 0.26756 0.0
C84 C 0.52387 0.04903 0.2748 0.0
C85 C 0.54842 0.06861 0.26188 0.0
C86 C 0.52745 0.05026 0.24571 0.0
C87 C 0.4952 0.02383 0.24913 0.0
C88 C 0.57996 0.06428 0.26387 0.0
C89 C 0.55628 0.10591 0.26416 0.0
C90 C 0.39381 0.93817 0.21134 0.0
C91 C 0.38797 0.93197 0.1938 0.0
C92 C 0.41362 0.95319 0.18342 0.0
C93 C 0.44472 0.97993 0.19041 0.0
C94 C 0.45032 0.98545 0.20799 0.0
C95 C 0.42496 0.96487 0.21812 0.0
C96 C 0.43544 0.97406 0.23649 0.0
C97 C 0.4713 0.00365 0.23574 0.0
C98 C 0.47991 0.01015 0.21903 0.0
C99 C 0.43481 0.94319 0.244 0.0
C100 C 0.41166 0.9853 0.24476 0.0
H101 H 0.60478 0.11237 0.24208 0.0
H102 H 0.58383 0.09116 0.18009 0.0
H103 H 0.51675 0.08866 0.19431 0.0
H104 H 0.48143 0.04788 0.18953 0.0
H105 H 0.51581 0.06438 0.17547 0.0
H106 H 0.55266 0.01732 0.19379 0.0
H107 H 0.53622 0.02532 0.17516 0.0
H108 H 0.50874 0.99399 0.18884 0.0
H109 H 0.55431 0.07535 0.29745 0.0
H110 H 0.45481 0.9882 0.30289 0.0
H111 H 0.44405 0.98046 0.27298 0.0
H112 H 0.57301 0.03934 0.26866 0.0
H113 H 0.59955 0.08449 0.27286 0.0
H114 H 0.59151 0.0641 0.25181 0.0
H115 H 0.53295 0.1069 0.26707 0.0
H116 H 0.56526 0.11948 0.2527 0.0
H117 H 0.57544 0.12037 0.27469 0.0
H118 H 0.6493 0.14675 0.2242 0.0
C119 C 0.59932 0.10695 0.22876 0.0
C120 C 0.61448 0.62992 0.5261 0.0
C121 C 0.61939 0.65987 0.535 0.0
C122 C 0.62259 0.66273 0.55271 0.0
C123 C 0.61378 0.60575 0.55238 0.0
C124 C 0.61183 0.60331 0.53502 0.0
C125 C 0.60552 0.56931 0.52758 0.0
H126 H 0.57984 0.41265 0.53986 0.0
C127 C 0.60824 0.57314 0.55783 0.0
C128 C 0.60374 0.55175 0.54337 0.0
H129 H 0.58187 0.45414 0.49251 0.0
H130 H 0.59241 0.50704 0.50726 0.0
H131 H 0.64275 0.48052 0.55916 0.0
H132 H 0.53443 0.43765 0.5567 0.0
H133 H 0.54829 0.45616 0.57728 0.0
H134 H 0.55491 0.42181 0.56971 0.0
H135 H 0.61419 0.44265 0.56883 0.0
H136 H 0.63069 0.48428 0.57967 0.0
C137 C 0.63639 0.57526 0.51734 0.0
C138 C 0.57114 0.55156 0.5172 0.0
C139 C 0.59774 0.55259 0.61979 0.0
C140 C 0.59086 0.52419 0.62853 0.0
C141 C 0.58864 0.49533 0.61962 0.0
C142 C 0.59214 0.49435 0.60223 0.0
C143 C 0.5978 0.52246 0.59359 0.0
C144 C 0.60108 0.55116 0.6024 0.0
C145 C 0.60709 0.57858 0.59111 0.0
C146 C 0.60586 0.56118 0.57401 0.0
C147 C 0.6003 0.52833 0.57557 0.0
C148 C 0.64273 0.60976 0.59593 0.0
C149 C 0.57741 0.58589 0.59274 0.0
C150 C 0.58298 0.43333 0.53269 0.0
C151 C 0.58051 0.42961 0.51506 0.0
C152 C 0.58377 0.45663 0.50613 0.0
C153 C 0.58998 0.48726 0.51472 0.0
C154 C 0.59247 0.49061 0.53241 0.0
C155 C 0.5887 0.46374 0.54106 0.0
C156 C 0.59029 0.47093 0.55977 0.0
C157 C 0.59643 0.5069 0.561 0.0
C158 C 0.59787 0.51841 0.54497 0.0
C159 C 0.62088 0.46935 0.5674 0.0
C160 C 0.55539 0.44531 0.56635 0.0
H161 H 0.62199 0.6395 0.57488 0.0
H162 H 0.61225 0.62705 0.51249 0.0
H163 H 0.5528 0.558 0.52304 0.0
H164 H 0.55831 0.52354 0.51666 0.0
H165 H 0.57445 0.55959 0.5042 0.0
H166 H 0.6605 0.59534 0.52396 0.0
H167 H 0.63475 0.58365 0.50478 0.0
H168 H 0.63921 0.55258 0.51568 0.0
H169 H 0.60013 0.57534 0.62632 0.0
H170 H 0.5831 0.47302 0.62602 0.0
H171 H 0.58965 0.47145 0.59615 0.0
H172 H 0.66023 0.60189 0.6012 0.0
H173 H 0.6413 0.6277 0.60554 0.0
H174 H 0.65554 0.6236 0.58495 0.0
H175 H 0.55284 0.56179 0.59331 0.0
H176 H 0.57394 0.59788 0.58192 0.0
H177 H 0.58101 0.60232 0.60438 0.0
H178 H 0.62592 0.68528 0.5599 0.0
C179 C 0.61993 0.63593 0.56142 0.0
C180 C 0.1306 0.59185 0.85391 0.0
C181 C 0.15758 0.59243 0.86301 0.0
C182 C 0.15747 0.59347 0.88069 0.0
C183 C 0.10328 0.59115 0.8799 0.0
C184 C 0.10382 0.59132 0.86261 0.0
C185 C 0.07264 0.58983 0.85497 0.0
H186 H 0.91596 0.56825 0.86555 0.0
C187 C 0.07104 0.58825 0.88504 0.0
C188 C 0.053 0.58772 0.87052 0.0
H189 H 0.96858 0.58477 0.81945 0.0
H190 H 0.018 0.59045 0.83462 0.0
H191 H 0.93979 0.51906 0.88031 0.0
H192 H 0.97753 0.62664 0.88747 0.0
H193 H 0.98326 0.61428 0.90703 0.0
H194 H 0.94089 0.59651 0.89763 0.0
H195 H 0.91794 0.53699 0.89167 0.0
H196 H 0.94987 0.53105 0.90189 0.0
C197 C 0.05387 0.55715 0.84288 0.0
C198 C 0.08377 0.62319 0.84649 0.0
C199 C 0.04079 0.57366 0.94612 0.0
C200 C 0.01187 0.56849 0.95457 0.0
C201 C 0.98484 0.56793 0.94545 0.0
C202 C 0.98638 0.57198 0.9282 0.0
C203 C 0.01521 0.57654 0.91989 0.0
C204 C 0.0419 0.57764 0.92888 0.0
C205 C 0.07043 0.58265 0.91795 0.0
C206 C 0.05644 0.58442 0.90092 0.0
C207 C 0.02405 0.58058 0.90214 0.0
C208 C 0.07455 0.55092 0.91844 0.0
C209 C 0.10251 0.61677 0.92419 0.0
C210 C 0.93803 0.57271 0.8587 0.0
C211 C 0.93837 0.5754 0.8413 0.0
C212 C 0.96784 0.58234 0.83287 0.0
C213 C 0.99636 0.58557 0.84169 0.0
C214 C 0.99533 0.58211 0.8591 0.0
C215 C 0.96663 0.57633 0.86731 0.0
C216 C 0.97023 0.57472 0.88587 0.0
C217 C 0.00577 0.58011 0.88752 0.0
C218 C 0.02027 0.58404 0.87181 0.0
C219 C 0.94301 0.53875 0.89033 0.0
C220 C 0.96764 0.60433 0.8951 0.0
H221 H 0.13184 0.59322 0.90259 0.0
H222 H 0.13014 0.59139 0.84033 0.0
H223 H 0.10669 0.64492 0.8532 0.0
H224 H 0.06436 0.63099 0.84685 0.0
H225 H 0.09005 0.6209 0.83325 0.0
H226 H 0.05311 0.53523 0.84866 0.0
H227 H 0.06695 0.56034 0.83092 0.0
H228 H 0.02713 0.54942 0.83991 0.0
H229 H 0.06185 0.57388 0.9527 0.0
H230 H 0.96251 0.56453 0.9517 0.0
H231 H 0.96493 0.57116 0.92199 0.0
H232 H 0.04938 0.52739 0.91875 0.0
H233 H 0.08998 0.5529 0.9298 0.0
H234 H 0.08598 0.54633 0.9072 0.0
H235 H 0.09557 0.63552 0.92953 0.0
H236 H 0.11925 0.62944 0.91394 0.0
H237 H 0.11734 0.61309 0.93415 0.0
H238 H 0.17764 0.59341 0.88801 0.0
C239 C 0.1306 0.59296 0.88916 0.0
C240 C 0.95367 0.411 0.46337 0.0
C241 C 0.92812 0.38113 0.4543 0.0
C242 C 0.92828 0.37849 0.43662 0.0
C243 C 0.97878 0.43401 0.43724 0.0
C244 C 0.97883 0.43704 0.45458 0.0
C245 C 0.00843 0.47037 0.462 0.0
H246 H 0.14716 0.6222 0.44787 0.0
C247 C 0.00821 0.46492 0.43181 0.0
C248 C 0.02597 0.48651 0.44624 0.0
H249 H 0.10901 0.58668 0.49608 0.0
H250 H 0.06398 0.53335 0.48222 0.0
H251 H 0.14267 0.55625 0.43335 0.0
H252 H 0.07449 0.59489 0.42838 0.0
H253 H 0.0776 0.57886 0.40826 0.0
H254 H 0.11518 0.61291 0.41931 0.0
H255 H 0.14904 0.58661 0.41857 0.0
H256 H 0.12355 0.54135 0.41305 0.0
C257 C 0.03104 0.46254 0.47332 0.0
C258 C 0.99415 0.49096 0.47134 0.0
C259 C 0.02667 0.47739 0.36936 0.0
C260 C 0.05219 0.50276 0.3604 0.0
C261 C 0.07963 0.53103 0.36949 0.0
C262 C 0.08114 0.53448 0.38707 0.0
C263 C 0.05509 0.50933 0.3958 0.0
C264 C 0.02879 0.4811 0.38696 0.0
C265 C 0.00411 0.45636 0.39841 0.0
C266 C 0.01975 0.47473 0.41557 0.0
C267 C 0.04928 0.50585 0.4139 0.0
C268 C 0.00457 0.42255 0.39561 0.0
C269 C 0.96899 0.45305 0.3948 0.0
C270 C 0.12885 0.60317 0.45548 0.0
C271 C 0.13118 0.60885 0.47303 0.0
C272 C 0.10753 0.58291 0.48249 0.0
C273 C 0.08144 0.55208 0.47442 0.0
C274 C 0.07929 0.54708 0.45674 0.0
C275 C 0.10312 0.57245 0.44768 0.0
C276 C 0.09824 0.56301 0.42913 0.0
C277 C 0.06708 0.52794 0.42834 0.0
C278 C 0.05573 0.51849 0.44449 0.0
C279 C 0.12998 0.5619 0.42308 0.0
C280 C 0.0912 0.58873 0.42068 0.0
H281 H 0.95178 0.4008 0.41466 0.0
H282 H 0.95432 0.4138 0.47696 0.0
H283 H 0.97272 0.48951 0.46376 0.0
H284 H 0.013 0.51828 0.47353 0.0
H285 H 0.98451 0.4808 0.48361 0.0
H286 H 0.03328 0.44099 0.46741 0.0
H287 H 0.02011 0.45541 0.48576 0.0
H288 H 0.05732 0.484 0.47524 0.0
H289 H 0.0051 0.45538 0.36286 0.0
H290 H 0.1001 0.55059 0.36302 0.0
H291 H 0.1025 0.55679 0.39316 0.0
H292 H 0.02955 0.42705 0.39134 0.0
H293 H 0.98486 0.40477 0.38591 0.0
H294 H 0.00114 0.40966 0.40729 0.0
H295 H 0.97192 0.47813 0.3924 0.0
H296 H 0.95239 0.44466 0.4055 0.0
H297 H 0.95555 0.43524 0.38354 0.0
H298 H 0.9086 0.35624 0.42928 0.0
C299 C 0.95334 0.40459 0.42809 0.0
C300 C 0.54356 0.93645 0.8185 0.0
C301 C 0.54792 0.91097 0.80987 0.0
C302 C 0.54817 0.9094 0.7922 0.0
C303 C 0.54049 0.95815 0.7919 0.0
C304 C 0.54006 0.95991 0.80924 0.0
C305 C 0.53613 0.98942 0.8161 0.0
H306 H 0.51324 0.1217 0.79937 0.0
C307 C 0.53605 0.98566 0.7859 0.0
C308 C 0.53327 0.00418 0.79997 0.0
H309 H 0.52692 0.09383 0.84829 0.0
H310 H 0.53123 0.04645 0.8352 0.0
H311 H 0.57158 0.11517 0.78377 0.0
H312 H 0.46392 0.04604 0.78225 0.0
H313 H 0.47715 0.04257 0.76203 0.0
H314 H 0.48283 0.08289 0.77052 0.0
H315 H 0.54227 0.1204 0.77086 0.0
H316 H 0.56043 0.09506 0.76336 0.0
C317 C 0.56857 0.01456 0.827 0.0
C318 C 0.50316 0.97522 0.82573 0.0
C319 C 0.53545 0.999 0.72319 0.0
C320 C 0.5309 0.02145 0.71365 0.0
C321 C 0.52416 0.04554 0.72201 0.0
C322 C 0.52261 0.04766 0.73951 0.0
C323 C 0.52779 0.02543 0.74888 0.0
C324 C 0.53366 0.00137 0.74068 0.0
C325 C 0.53773 0.97936 0.75265 0.0
C326 C 0.53403 0.99469 0.76942 0.0
C327 C 0.52843 0.02171 0.76711 0.0
C328 C 0.57388 0.98445 0.75115 0.0
C329 C 0.50841 0.9422 0.74852 0.0
C330 C 0.51654 0.10506 0.80731 0.0
C331 C 0.51919 0.11112 0.82486 0.0
C332 C 0.52466 0.08952 0.83472 0.0
C333 C 0.5272 0.06213 0.82709 0.0
C334 C 0.52482 0.05669 0.80943 0.0
C335 C 0.5197 0.07822 0.79993 0.0
C336 C 0.51969 0.07039 0.78142 0.0
C337 C 0.52545 0.04044 0.78121 0.0
C338 C 0.52815 0.03208 0.79761 0.0
C339 C 0.5498 0.10179 0.77433 0.0
C340 C 0.48424 0.06014 0.77349 0.0
H341 H 0.54493 0.92993 0.76982 0.0
H342 H 0.54339 0.93836 0.83208 0.0
H343 H 0.482 0.95285 0.81835 0.0
H344 H 0.4945 0.99375 0.82797 0.0
H345 H 0.50655 0.96688 0.83801 0.0
H346 H 0.5915 0.01601 0.82145 0.0
H347 H 0.56728 0.00641 0.83991 0.0
H348 H 0.57338 0.04088 0.82776 0.0
H349 H 0.54086 0.98029 0.71725 0.0
H350 H 0.5198 0.06268 0.71499 0.0
H351 H 0.51754 0.06665 0.74506 0.0
H352 H 0.59264 0.01146 0.74938 0.0
H353 H 0.57476 0.96858 0.74022 0.0
H354 H 0.58347 0.97887 0.76257 0.0
H355 H 0.48553 0.9414 0.74285 0.0
H356 H 0.49931 0.92808 0.75985 0.0
H357 H 0.51603 0.928 0.73946 0.0
H358 H 0.55082 0.88971 0.78523 0.0
C359 C 0.54449 0.93271 0.78322 0.0
C360 C 0.58524 0.54831 0.1449 0.0
C361 C 0.61332 0.55079 0.13641 0.0
C362 C 0.61148 0.54745 0.11871 0.0
C363 C 0.55498 0.53978 0.11807 0.0
C364 C 0.55638 0.54301 0.13544 0.0
C365 C 0.52426 0.54049 0.14205 0.0
H366 H 0.36567 0.51479 0.12424 0.0
C367 C 0.52177 0.53408 0.11184 0.0
C368 C 0.50336 0.53439 0.12577 0.0
H369 H 0.41657 0.53645 0.17329 0.0
H370 H 0.46589 0.53898 0.16055 0.0
H371 H 0.429 0.56995 0.10668 0.0
H372 H 0.38826 0.46254 0.1094 0.0
H373 H 0.4011 0.47136 0.08881 0.0
H374 H 0.36837 0.4792 0.09653 0.0
H375 H 0.39064 0.53854 0.09523 0.0
H376 H 0.4317 0.55332 0.08668 0.0
C377 C 0.53371 0.57485 0.15174 0.0
C378 C 0.50751 0.50976 0.15281 0.0
C379 C 0.49482 0.5177 0.04889 0.0
C380 C 0.46596 0.51074 0.03898 0.0
C381 C 0.43707 0.50708 0.04705 0.0
C382 C 0.43705 0.51046 0.06464 0.0
C383 C 0.4662 0.51755 0.07434 0.0
C384 C 0.4943 0.52079 0.06641 0.0
C385 C 0.52279 0.52766 0.07863 0.0
C386 C 0.50733 0.5284 0.09527 0.0
C387 C 0.47432 0.52263 0.09269 0.0
C388 C 0.55365 0.56287 0.07565 0.0
C389 C 0.52947 0.49742 0.07629 0.0
C390 C 0.38722 0.51961 0.1323 0.0
C391 C 0.38706 0.525 0.1498 0.0
C392 C 0.41609 0.5322 0.15976 0.0
C393 C 0.44464 0.53362 0.15235 0.0
C394 C 0.44433 0.52822 0.13476 0.0
C395 C 0.41586 0.5215 0.12511 0.0
C396 C 0.41995 0.51757 0.10664 0.0
C397 C 0.45554 0.52294 0.10666 0.0
C398 C 0.46989 0.52898 0.12315 0.0
C399 C 0.41751 0.54606 0.09822 0.0
C400 C 0.39298 0.48091 0.09983 0.0
H401 H 0.58318 0.5397 0.09614 0.0
H402 H 0.58593 0.55083 0.1585 0.0
H403 H 0.50761 0.4874 0.14637 0.0
H404 H 0.48065 0.50136 0.15491 0.0
H405 H 0.52149 0.51573 0.16521 0.0
H406 H 0.55367 0.59645 0.14535 0.0
H407 H 0.5437 0.57639 0.16473 0.0
H408 H 0.5122 0.57954 0.15229 0.0
H409 H 0.51767 0.52116 0.04318 0.0
H410 H 0.41429 0.50124 0.03978 0.0
H411 H 0.41429 0.5074 0.06999 0.0
H412 H 0.54517 0.58071 0.07197 0.0
H413 H 0.56889 0.56064 0.06542 0.0
H414 H 0.57041 0.5758 0.08705 0.0
H415 H 0.50588 0.47337 0.07193 0.0
H416 H 0.53766 0.49174 0.08814 0.0
H417 H 0.54866 0.50205 0.06682 0.0
H418 H 0.63232 0.54852 0.11185 0.0
C419 C 0.58268 0.54203 0.10956 0.0
H420 H 0.09479 0.49387 0.16554 0.0
H421 H 0.14538 0.48801 0.16447 0.0
H422 H 0.20296 0.58337 0.1946 0.0
H423 H 0.15275 0.58946 0.19564 0.0
H424 H 0.23563 0.58188 0.16745 0.0
H425 H 0.18239 0.50833 0.211 0.0
H426 H 0.1357 0.46101 0.22437 0.0
H427 H 0.13204 0.39006 0.18507 0.0
H428 H 0.17848 0.43702 0.17137 0.0
H429 H 0.38545 0.57053 0.17349 0.0
H430 H 0.33528 0.57264 0.1827 0.0
H431 H 0.27051 0.48006 0.15171 0.0
H432 H 0.32036 0.47758 0.1427 0.0
H433 H 0.2427 0.48118 0.18163 0.0
H434 H 0.29489 0.55664 0.13778 0.0
H435 H 0.34096 0.60473 0.12457 0.0
H436 H 0.34621 0.67375 0.16537 0.0
H437 H 0.30061 0.62595 0.17899 0.0
C438 C 0.11812 0.51335 0.17212 0.0
C439 C 0.1197 0.5421 0.18069 0.0
C440 C 0.147 0.50991 0.17156 0.0
C441 C 0.17799 0.53517 0.17954 0.0
C442 C 0.17939 0.56355 0.18834 0.0
C443 C 0.15055 0.56691 0.18898 0.0
C444 C 0.20947 0.53324 0.17776 0.0
C445 C 0.23743 0.56021 0.17093 0.0
C446 C 0.21156 0.50456 0.18186 0.0
C447 C 0.18371 0.47623 0.19008 0.0
C448 C 0.17145 0.48266 0.20514 0.0
C449 C 0.14508 0.45591 0.21279 0.0
C450 C 0.13084 0.42257 0.20554 0.0
C451 C 0.14306 0.41591 0.19066 0.0
C452 C 0.16944 0.44257 0.18296 0.0
C453 C 0.36047 0.55027 0.16894 0.0
C454 C 0.35686 0.52406 0.15725 0.0
C455 C 0.33184 0.55163 0.17411 0.0
C456 C 0.29914 0.52677 0.1677 0.0
C457 C 0.29544 0.49959 0.15678 0.0
C458 C 0.32397 0.49832 0.15156 0.0
C459 C 0.2689 0.52999 0.17144 0.0
C460 C 0.2411 0.50316 0.17849 0.0
C461 C 0.267 0.55895 0.16765 0.0
C462 C 0.29468 0.58763 0.15953 0.0
C463 C 0.30614 0.58201 0.14404 0.0
C464 C 0.33213 0.60923 0.13646 0.0
C465 C 0.34661 0.64226 0.14416 0.0
C466 C 0.33508 0.64814 0.15945 0.0
C467 C 0.30918 0.62099 0.16711 0.0
H468 H 0.36668 0.66331 0.13825 0.0
H469 H 0.11041 0.40189 0.21148 0.0
H470 H 0.65632 0.17163 0.52282 0.0
H471 H 0.71235 0.21562 0.51564 0.0
H472 H 0.7116 0.14903 0.47451 0.0
H473 H 0.65482 0.10451 0.48151 0.0
H474 H 0.77675 0.18953 0.49509 0.0
H475 H 0.69253 0.20182 0.46448 0.0
H476 H 0.64033 0.20514 0.46239 0.0
H477 H 0.68638 0.29608 0.49587 0.0
H478 H 0.73864 0.29274 0.49861 0.0
H479 H 0.90303 0.31303 0.44729 0.0
H480 H 0.85319 0.26614 0.45831 0.0
H481 H 0.84151 0.33741 0.49184 0.0
H482 H 0.89094 0.38477 0.48034 0.0
H483 H 0.78287 0.29381 0.47591 0.0
H484 H 0.86738 0.28332 0.50638 0.0
H485 H 0.91865 0.27877 0.51056 0.0
H486 H 0.87286 0.18552 0.47874 0.0
H487 H 0.82147 0.18974 0.47417 0.0
C488 C 0.66805 0.16603 0.51232 0.0
C489 C 0.65091 0.13454 0.50266 0.0
C490 C 0.70017 0.19128 0.50827 0.0
C491 C 0.71603 0.18564 0.49452 0.0
C492 C 0.69976 0.1538 0.48521 0.0
C493 C 0.6673 0.12847 0.48918 0.0
C494 C 0.74842 0.21405 0.48928 0.0
C495 C 0.77814 0.21217 0.49065 0.0
C496 C 0.75024 0.24393 0.48401 0.0
C497 C 0.71938 0.24682 0.48189 0.0
C498 C 0.69147 0.22241 0.47149 0.0
C499 C 0.66187 0.2243 0.47017 0.0
C500 C 0.66 0.25078 0.47896 0.0
C501 C 0.68784 0.27555 0.48906 0.0
C502 C 0.71747 0.27366 0.49053 0.0
C503 C 0.88998 0.31877 0.45708 0.0
C504 C 0.90079 0.35269 0.46283 0.0
C505 C 0.86163 0.29185 0.4635 0.0
C506 C 0.8436 0.29812 0.476 0.0
C507 C 0.855 0.33191 0.4822 0.0
C508 C 0.88343 0.35895 0.47574 0.0
C509 C 0.81162 0.26954 0.48167 0.0
C510 C 0.78177 0.27131 0.48037 0.0
C511 C 0.80981 0.23968 0.4871 0.0
C512 C 0.84068 0.23702 0.48981 0.0
C513 C 0.86834 0.26199 0.50016 0.0
C514 C 0.89741 0.25944 0.50262 0.0
C515 C 0.89904 0.23192 0.49488 0.0
C516 C 0.87157 0.20684 0.4847 0.0
C517 C 0.84245 0.20928 0.48219 0.0
H518 H 0.92157 0.22999 0.49681 0.0
H519 H 0.63696 0.25201 0.47794 0.0
H520 H 0.57856 0.65822 0.8166 0.0
H521 H 0.58625 0.71539 0.82083 0.0
H522 H 0.51141 0.68148 0.85836 0.0
H523 H 0.50384 0.62443 0.85439 0.0
H524 H 0.49696 0.71061 0.83278 0.0
H525 H 0.5904 0.73858 0.8705 0.0
H526 H 0.64375 0.74199 0.88012 0.0
H527 H 0.69561 0.80458 0.84037 0.0
H528 H 0.64245 0.80114 0.83034 0.0
H529 H 0.51005 0.87291 0.83498 0.0
H530 H 0.51109 0.82427 0.84593 0.0
H531 H 0.59465 0.84202 0.8151 0.0
H532 H 0.5944 0.89094 0.80465 0.0
H533 H 0.60322 0.82162 0.84349 0.0
H534 H 0.50977 0.78552 0.80276 0.0
H535 H 0.45617 0.77831 0.79077 0.0
H536 H 0.40418 0.72754 0.83362 0.0
H537 H 0.45767 0.73509 0.84604 0.0
C538 C 0.56434 0.66313 0.82604 0.0
C539 C 0.54049 0.63671 0.83509 0.0
C540 C 0.56885 0.69585 0.82849 0.0
C541 C 0.54945 0.7027 0.83994 0.0
C542 C 0.52673 0.67677 0.84952 0.0
C543 C 0.52252 0.64418 0.84724 0.0
C544 C 0.54998 0.73558 0.84038 0.0
C545 C 0.51998 0.73494 0.83551 0.0
C546 C 0.58024 0.76721 0.84361 0.0
C547 C 0.61233 0.7694 0.84959 0.0
C548 C 0.6131 0.75284 0.86371 0.0
C549 C 0.64334 0.75483 0.86926 0.0
C550 C 0.67304 0.77344 0.86084 0.0
C551 C 0.67258 0.79016 0.84687 0.0
C552 C 0.64241 0.78824 0.84127 0.0
C553 C 0.52916 0.86689 0.83091 0.0
C554 C 0.55182 0.88539 0.81878 0.0
C555 C 0.52955 0.83892 0.83704 0.0
C556 C 0.5525 0.82899 0.83108 0.0
C557 C 0.57657 0.84895 0.81984 0.0
C558 C 0.57626 0.87681 0.81378 0.0
C559 C 0.55026 0.79665 0.83537 0.0
C560 C 0.57996 0.79734 0.84111 0.0
C561 C 0.51975 0.76489 0.83266 0.0
C562 C 0.48788 0.7615 0.82549 0.0
C563 C 0.48703 0.77331 0.80975 0.0
C564 C 0.45664 0.76907 0.80286 0.0
C565 C 0.42683 0.75266 0.81148 0.0
C566 C 0.42734 0.74046 0.82701 0.0
C567 C 0.4577 0.74479 0.83401 0.0
H568 H 0.40329 0.74926 0.80608 0.0
H569 H 0.69642 0.77495 0.86516 0.0
H570 H 0.8937 0.57054 0.1406 0.0
H571 H 0.84569 0.57981 0.14435 0.0
H572 H 0.80978 0.50917 0.18275 0.0
H573 H 0.85778 0.49973 0.17908 0.0
H574 H 0.76026 0.49445 0.1587 0.0
H575 H 0.84016 0.59231 0.19352 0.0
H576 H 0.89448 0.64506 0.20102 0.0
H577 H 0.87664 0.69209 0.16026 0.0
H578 H 0.82242 0.63946 0.15235 0.0
H579 H 0.61823 0.51791 0.16305 0.0
H580 H 0.66949 0.51879 0.17376 0.0
H581 H 0.72953 0.59469 0.14007 0.0
H582 H 0.67896 0.59489 0.12995 0.0
H583 H 0.76614 0.60608 0.16765 0.0
H584 H 0.69407 0.50687 0.12956 0.0
H585 H 0.64095 0.4541 0.12023 0.0
H586 H 0.64559 0.40988 0.16535 0.0
H587 H 0.69854 0.46261 0.17504 0.0
C588 C 0.87592 0.55737 0.15004 0.0
C589 C 0.87957 0.5343 0.15949 0.0
C590 C 0.84853 0.56281 0.15222 0.0
C591 C 0.82418 0.5453 0.16389 0.0
C592 C 0.82828 0.523 0.17369 0.0
C593 C 0.85582 0.51773 0.17161 0.0
C594 C 0.79313 0.54824 0.16479 0.0
C595 C 0.76147 0.51877 0.16106 0.0
C596 C 0.79475 0.58003 0.16753 0.0
C597 C 0.82729 0.61182 0.17228 0.0
C598 C 0.84792 0.61381 0.18608 0.0
C599 C 0.87868 0.64372 0.19041 0.0
C600 C 0.88903 0.67189 0.18111 0.0
C601 C 0.86859 0.67025 0.16746 0.0
C602 C 0.83781 0.64039 0.16306 0.0
C603 C 0.64256 0.53549 0.15833 0.0
C604 C 0.6445 0.55589 0.14545 0.0
C605 C 0.67179 0.53575 0.16433 0.0
C606 C 0.70332 0.55618 0.15742 0.0
C607 C 0.70558 0.5785 0.14554 0.0
C608 C 0.67656 0.57841 0.13966 0.0
C609 C 0.73335 0.55239 0.16116 0.0
C610 C 0.76485 0.58167 0.16569 0.0
C611 C 0.73172 0.52047 0.15894 0.0
C612 C 0.69997 0.48879 0.15312 0.0
C613 C 0.68361 0.48597 0.13754 0.0
C614 C 0.65356 0.45607 0.13218 0.0
C615 C 0.63984 0.42869 0.14222 0.0
C616 C 0.65619 0.43114 0.15761 0.0
C617 C 0.68621 0.46102 0.16304 0.0
H618 H 0.61658 0.40556 0.13804 0.0
H619 H 0.91286 0.69502 0.18448 0.0
H620 H 0.42948 0.86472 0.51544 0.0
H621 H 0.37402 0.81331 0.51619 0.0
H622 H 0.33282 0.84961 0.47917 0.0
H623 H 0.38815 0.90132 0.47844 0.0
H624 H 0.28897 0.82111 0.50384 0.0
H625 H 0.35782 0.79295 0.46858 0.0
H626 H 0.4073 0.78704 0.46165 0.0
H627 H 0.3844 0.71801 0.50002 0.0
H628 H 0.33547 0.72441 0.50756 0.0
H629 H 0.14928 0.67235 0.46463 0.0
H630 H 0.20088 0.72551 0.47371 0.0
H631 H 0.22811 0.6731 0.50832 0.0
H632 H 0.17644 0.61936 0.49893 0.0
H633 H 0.27925 0.70905 0.48896 0.0
H634 H 0.20733 0.7332 0.52262 0.0
H635 H 0.15723 0.7383 0.52913 0.0
H636 H 0.18449 0.81312 0.49341 0.0
H637 H 0.23452 0.80813 0.4865 0.0
C638 C 0.4086 0.86192 0.50752 0.0
C639 C 0.41335 0.8871 0.49679 0.0
C640 C 0.3769 0.83244 0.50795 0.0
C641 C 0.34933 0.82741 0.4976 0.0
C642 C 0.35373 0.85293 0.48725 0.0
C643 C 0.38544 0.88243 0.4868 0.0
C644 C 0.31621 0.79512 0.4971 0.0
C645 C 0.28678 0.7966 0.50048 0.0
C646 C 0.31348 0.76303 0.49322 0.0
C647 C 0.34325 0.75958 0.48881 0.0
C648 C 0.36363 0.77691 0.47571 0.0
C649 C 0.39159 0.77347 0.47167 0.0
C650 C 0.39916 0.75236 0.48047 0.0
C651 C 0.37872 0.73459 0.4933 0.0
C652 C 0.35091 0.73817 0.49749 0.0
C653 C 0.16596 0.67227 0.4744 0.0
C654 C 0.15896 0.64169 0.48101 0.0
C655 C 0.19537 0.70274 0.47967 0.0
C656 C 0.21839 0.70344 0.49177 0.0
C657 C 0.21068 0.6732 0.49899 0.0
C658 C 0.18107 0.64258 0.49373 0.0
C659 C 0.25184 0.73499 0.49549 0.0
C660 C 0.28141 0.73344 0.49263 0.0
C661 C 0.25466 0.76697 0.49984 0.0
C662 C 0.22459 0.77011 0.50396 0.0
C663 C 0.20252 0.75055 0.51605 0.0
C664 C 0.17415 0.75346 0.51983 0.0
C665 C 0.16765 0.77597 0.51167 0.0
C666 C 0.18955 0.79568 0.49972 0.0
C667 C 0.21796 0.79286 0.49589 0.0
H668 H 0.14567 0.77819 0.51461 0.0
H669 H 0.42076 0.74965 0.47729 0.0
H670 H 0.59219 0.41989 0.86338 0.0
H671 H 0.58407 0.36267 0.86328 0.0
H672 H 0.49508 0.324 0.82988 0.0
H673 H 0.50301 0.38132 0.82989 0.0
H674 H 0.48565 0.28194 0.85548 0.0
H675 H 0.56617 0.33577 0.81353 0.0
H676 H 0.6182 0.38093 0.8023 0.0
H677 H 0.67908 0.36847 0.83956 0.0
H678 H 0.62727 0.32314 0.85103 0.0
H679 H 0.47278 0.13018 0.81774 0.0
H680 H 0.47676 0.18475 0.82578 0.0
H681 H 0.56748 0.2152 0.85664 0.0
H682 H 0.5638 0.16054 0.84838 0.0
H683 H 0.5771 0.26194 0.83502 0.0
H684 H 0.49437 0.20156 0.87447 0.0
H685 H 0.44121 0.15525 0.88424 0.0
H686 H 0.38312 0.17922 0.85075 0.0
H687 H 0.43594 0.22538 0.84059 0.0
C688 C 0.57076 0.39923 0.85606 0.0
C689 C 0.54833 0.40524 0.84657 0.0
C690 C 0.56622 0.36654 0.856 0.0
C691 C 0.53913 0.33912 0.84647 0.0
C692 C 0.51616 0.34481 0.83733 0.0
C693 C 0.52081 0.3776 0.83729 0.0
C694 C 0.53545 0.30477 0.84566 0.0
C695 C 0.50548 0.27743 0.85088 0.0
C696 C 0.56167 0.2991 0.84004 0.0
C697 C 0.59287 0.32637 0.83325 0.0
C698 C 0.59065 0.34285 0.81941 0.0
C699 C 0.6201 0.36842 0.81298 0.0
C700 C 0.65194 0.37772 0.82027 0.0
C701 C 0.65439 0.3613 0.83395 0.0
C702 C 0.625 0.3356 0.84039 0.0
C703 C 0.4932 0.14826 0.8265 0.0
C704 C 0.51806 0.14119 0.83239 0.0
C705 C 0.49536 0.17939 0.83117 0.0
C706 C 0.52237 0.2041 0.84186 0.0
C707 C 0.54638 0.19648 0.84839 0.0
C708 C 0.54412 0.16518 0.84379 0.0
C709 C 0.52717 0.23884 0.84478 0.0
C710 C 0.55739 0.26637 0.83988 0.0
C711 C 0.50103 0.24454 0.85058 0.0
C712 C 0.46917 0.2168 0.85667 0.0
C713 C 0.47027 0.19679 0.86908 0.0
C714 C 0.44019 0.17059 0.87471 0.0
C715 C 0.40881 0.16425 0.8681 0.0
C716 C 0.40745 0.18415 0.85586 0.0
C717 C 0.43746 0.21037 0.85017 0.0
H718 H 0.38555 0.14396 0.87248 0.0
H719 H 0.67472 0.39756 0.81528 0.0
H720 H 0.5209 0.8517 0.47503 0.0
H721 H 0.54044 0.81114 0.47792 0.0
H722 H 0.61227 0.87745 0.51791 0.0
H723 H 0.59269 0.91827 0.51521 0.0
H724 H 0.6374 0.84431 0.49441 0.0
H725 H 0.54343 0.81914 0.52939 0.0
H726 H 0.4858 0.80782 0.53518 0.0
H727 H 0.44298 0.72016 0.4995 0.0
H728 H 0.50044 0.7314 0.49323 0.0
H729 H 0.65976 0.72884 0.54145 0.0
H730 H 0.65187 0.77292 0.52993 0.0
H731 H 0.56963 0.6966 0.4968 0.0
H732 H 0.57654 0.65228 0.5087 0.0
H733 H 0.55039 0.73456 0.51436 0.0
H734 H 0.64454 0.75624 0.4814 0.0
H735 H 0.70223 0.76764 0.47571 0.0
H736 H 0.74509 0.86094 0.50738 0.0
H737 H 0.68763 0.84987 0.51347 0.0
C738 C 0.54119 0.85795 0.4843 0.0
C739 C 0.55502 0.88803 0.49503 0.0
C740 C 0.55233 0.83475 0.4859 0.0
C741 C 0.57761 0.8413 0.49818 0.0
C742 C 0.59277 0.87207 0.50833 0.0
C743 C 0.58141 0.89521 0.50685 0.0
C744 C 0.58577 0.81459 0.50148 0.0
C745 C 0.61858 0.82037 0.4989 0.0
C746 C 0.56084 0.78319 0.50695 0.0
C747 C 0.52624 0.77636 0.51069 0.0
C748 C 0.52174 0.79767 0.52264 0.0
C749 C 0.48911 0.79125 0.52603 0.0
C750 C 0.46075 0.76337 0.51767 0.0
C751 C 0.46496 0.74182 0.50593 0.0
C752 C 0.49756 0.74821 0.50244 0.0
C753 C 0.64023 0.7215 0.53159 0.0
C754 C 0.61856 0.68705 0.52611 0.0
C755 C 0.636 0.74676 0.52487 0.0
C756 C 0.61023 0.73805 0.51246 0.0
C757 C 0.58971 0.70386 0.50636 0.0
C758 C 0.59386 0.67858 0.51309 0.0
C759 C 0.60219 0.76401 0.5073 0.0
C760 C 0.56928 0.75821 0.50964 0.0
C761 C 0.62709 0.7953 0.50161 0.0
C762 C 0.66173 0.80206 0.498 0.0
C763 C 0.66625 0.77905 0.48727 0.0
C764 C 0.69892 0.78548 0.48395 0.0
C765 C 0.72731 0.81496 0.49121 0.0
C766 C 0.72308 0.8381 0.50178 0.0
C767 C 0.69046 0.83178 0.50515 0.0
H768 H 0.75258 0.81989 0.48862 0.0
H769 H 0.43552 0.75842 0.52038 0.0
H770 H 0.65215 0.55081 0.79431 0.0
H771 H 0.71124 0.56481 0.79252 0.0
H772 H 0.72037 0.56595 0.84643 0.0
H773 H 0.66132 0.55227 0.84832 0.0
H774 H 0.77915 0.61658 0.83318 0.0
H775 H 0.69983 0.49605 0.82423 0.0
H776 H 0.65014 0.44544 0.81021 0.0
H777 H 0.69823 0.46691 0.76312 0.0
H778 H 0.74794 0.51829 0.77684 0.0
H779 H 0.87394 0.52311 0.84212 0.0
H780 H 0.82207 0.52175 0.83267 0.0
H781 H 0.88186 0.61763 0.81125 0.0
H782 H 0.93413 0.6192 0.82093 0.0
H783 H 0.79119 0.52379 0.80401 0.0
H784 H 0.84441 0.66561 0.82264 0.0
H785 H 0.89183 0.71303 0.83993 0.0
H786 H 0.89313 0.64257 0.87269 0.0
H787 H 0.84544 0.59487 0.85575 0.0
C788 C 0.66702 0.55499 0.80582 0.0
C789 C 0.65214 0.55041 0.82145 0.0
C790 C 0.70071 0.56282 0.80476 0.0
C791 C 0.72001 0.56619 0.81933 0.0
C792 C 0.70585 0.56357 0.83505 0.0
C793 C 0.67209 0.55555 0.8361 0.0
C794 C 0.75353 0.56867 0.81815 0.0
C795 C 0.78196 0.59661 0.82657 0.0
C796 C 0.75697 0.54231 0.80974 0.0
C797 C 0.72739 0.51122 0.80151 0.0
C798 C 0.69969 0.49014 0.81086 0.0
C799 C 0.67153 0.4613 0.80297 0.0
C800 C 0.671 0.45293 0.78578 0.0
C801 C 0.69866 0.47344 0.77644 0.0
C802 C 0.72681 0.50247 0.78426 0.0
C803 C 0.87595 0.5435 0.83506 0.0
C804 C 0.90785 0.57145 0.8324 0.0
C805 C 0.84636 0.54262 0.82958 0.0
C806 C 0.84816 0.56979 0.82146 0.0
C807 C 0.88001 0.59655 0.81762 0.0
C808 C 0.90976 0.59736 0.82306 0.0
C809 C 0.81688 0.57168 0.81908 0.0
C810 C 0.78874 0.54441 0.81008 0.0
C811 C 0.8135 0.59822 0.82734 0.0
C812 C 0.84171 0.62672 0.8378 0.0
C813 C 0.85479 0.6603 0.83357 0.0
C814 C 0.88169 0.68721 0.8433 0.0
C815 C 0.89557 0.68081 0.85736 0.0
C816 C 0.88245 0.6475 0.86177 0.0
C817 C 0.85549 0.62052 0.8521 0.0
H818 H 0.91643 0.70166 0.86486 0.0
H819 H 0.6492 0.43054 0.7797 0.0
H820 H 0.14496 0.63746 0.13689 0.0
H821 H 0.1944 0.69459 0.14065 0.0
H822 H 0.14675 0.72124 0.18047 0.0
H823 H 0.09695 0.66396 0.1768 0.0
H824 H 0.18018 0.77283 0.15884 0.0
H825 H 0.20231 0.69938 0.19072 0.0
H826 H 0.20737 0.64911 0.1954 0.0
H827 H 0.28336 0.6777 0.15888 0.0
H828 H 0.27846 0.72799 0.15381 0.0
H829 H 0.32366 0.91072 0.20372 0.0
H830 H 0.27161 0.85844 0.19389 0.0
H831 H 0.32732 0.83449 0.15749 0.0
H832 H 0.37975 0.88628 0.16764 0.0
H833 H 0.28995 0.7818 0.17545 0.0
H834 H 0.2706 0.85791 0.14504 0.0
H835 H 0.26615 0.90877 0.14109 0.0
H836 H 0.18539 0.87572 0.17513 0.0
H837 H 0.18968 0.82487 0.17947 0.0
C838 C 0.14476 0.65553 0.14634 0.0
C839 C 0.11716 0.64612 0.15666 0.0
C840 C 0.17308 0.68814 0.14848 0.0
C841 C 0.17431 0.71189 0.16096 0.0
C842 C 0.14621 0.70315 0.17078 0.0
C843 C 0.11787 0.67043 0.1687 0.0
C844 C 0.20563 0.74523 0.16432 0.0
C845 C 0.20416 0.77491 0.16262 0.0
C846 C 0.23696 0.74768 0.16886 0.0
C847 C 0.23973 0.71726 0.17175 0.0
C848 C 0.21984 0.69477 0.18355 0.0
C849 C 0.22272 0.6663 0.18629 0.0
C850 C 0.24559 0.66016 0.1774 0.0
C851 C 0.26562 0.68247 0.16573 0.0
C852 C 0.26281 0.71098 0.16293 0.0
C853 C 0.32478 0.8944 0.19356 0.0
C854 C 0.35581 0.90249 0.18651 0.0
C855 C 0.29497 0.86472 0.18784 0.0
C856 C 0.29557 0.84271 0.17488 0.0
C857 C 0.32632 0.85121 0.16748 0.0
C858 C 0.35618 0.88092 0.17319 0.0
C859 C 0.26465 0.80962 0.17 0.0
C860 C 0.26612 0.77986 0.17148 0.0
C861 C 0.23337 0.80716 0.16529 0.0
C862 C 0.23067 0.8377 0.16269 0.0
C863 C 0.25208 0.86161 0.15179 0.0
C864 C 0.24954 0.89042 0.14946 0.0
C865 C 0.22555 0.89551 0.15788 0.0
C866 C 0.20398 0.87175 0.16862 0.0
C867 C 0.20643 0.84291 0.17101 0.0
H868 H 0.22363 0.91783 0.15606 0.0
H869 H 0.24792 0.63824 0.17962 0.0
H870 H 0.52501 0.14122 0.51301 0.0
H871 H 0.52317 0.19346 0.51081 0.0
H872 H 0.53715 0.18833 0.45756 0.0
H873 H 0.53897 0.13592 0.45975 0.0
H874 H 0.58149 0.24879 0.47188 0.0
H875 H 0.46204 0.17767 0.47189 0.0
H876 H 0.40755 0.13275 0.48128 0.0
H877 H 0.42621 0.18933 0.5292 0.0
H878 H 0.48105 0.23438 0.5202 0.0
H879 H 0.53099 0.3895 0.4908 0.0
H880 H 0.51662 0.33237 0.47894 0.0
H881 H 0.60084 0.33993 0.50817 0.0
H882 H 0.61517 0.39662 0.51995 0.0
H883 H 0.49878 0.27656 0.49754 0.0
H884 H 0.63471 0.30273 0.48795 0.0
H885 H 0.68866 0.3471 0.47771 0.0
H886 H 0.63397 0.37984 0.44709 0.0
H887 H 0.57971 0.33515 0.4569 0.0
C888 C 0.52701 0.15083 0.50078 0.0
C889 C 0.53265 0.13482 0.48657 0.0
C890 C 0.52582 0.18064 0.49951 0.0
C891 C 0.52985 0.19473 0.48399 0.0
C892 C 0.53404 0.17795 0.46966 0.0
C893 C 0.53525 0.14815 0.47093 0.0
C894 C 0.53312 0.22863 0.48319 0.0
C895 C 0.56316 0.25472 0.4773 0.0
C896 C 0.50888 0.2363 0.48991 0.0
C897 C 0.47577 0.20938 0.49537 0.0
C898 C 0.45464 0.18045 0.48447 0.0
C899 C 0.42366 0.15497 0.48972 0.0
C900 C 0.41344 0.15817 0.50583 0.0
C901 C 0.43415 0.1869 0.51672 0.0
C902 C 0.46516 0.21245 0.51153 0.0
C903 C 0.54675 0.3791 0.49438 0.0
C904 C 0.57412 0.39726 0.50627 0.0
C905 C 0.53844 0.34653 0.48769 0.0
C906 C 0.55781 0.33211 0.4926 0.0
C907 C 0.58584 0.35079 0.50404 0.0
C908 C 0.5939 0.38304 0.51083 0.0
C909 C 0.54775 0.29661 0.48695 0.0
C910 C 0.51658 0.27032 0.49172 0.0
C911 C 0.57075 0.28863 0.47907 0.0
C912 C 0.60322 0.31543 0.47305 0.0
C913 C 0.63423 0.31908 0.47885 0.0
C914 C 0.66485 0.34437 0.47318 0.0
C915 C 0.66474 0.36624 0.46173 0.0
C916 C 0.63402 0.36287 0.45595 0.0
C917 C 0.60333 0.33757 0.46156 0.0
H918 H 0.68846 0.38584 0.45737 0.0
H919 H 0.38946 0.13841 0.50988 0.0
H920 H 0.39433 0.5319 0.81102 0.0
H921 H 0.34857 0.54518 0.80957 0.0
H922 H 0.32017 0.51088 0.85902 0.0
H923 H 0.36504 0.49668 0.86035 0.0
H924 H 0.26579 0.49145 0.84006 0.0
H925 H 0.37324 0.59628 0.85139 0.0
H926 H 0.43124 0.64056 0.8455 0.0
H927 H 0.39307 0.65856 0.8002 0.0
H928 H 0.33496 0.61393 0.80564 0.0
H929 H 0.2257 0.62699 0.87126 0.0
H930 H 0.26779 0.61313 0.86079 0.0
H931 H 0.19292 0.53746 0.8244 0.0
H932 H 0.15025 0.55028 0.83528 0.0
H933 H 0.29686 0.61059 0.83237 0.0
H934 H 0.20152 0.46708 0.82389 0.0
H935 H 0.14534 0.42533 0.83331 0.0
H936 H 0.16322 0.48883 0.87886 0.0
H937 H 0.21963 0.53066 0.86981 0.0
C938 C 0.37801 0.52675 0.82148 0.0
C939 C 0.38345 0.51348 0.83586 0.0
C940 C 0.352 0.53453 0.82066 0.0
C941 C 0.33135 0.52961 0.8343 0.0
C942 C 0.33583 0.51495 0.84834 0.0
C943 C 0.36154 0.50687 0.8491 0.0
C944 C 0.30593 0.54085 0.83446 0.0
C945 C 0.27254 0.51742 0.83818 0.0
C946 C 0.31475 0.57483 0.83211 0.0
C947 C 0.34981 0.60138 0.82879 0.0
C948 C 0.37727 0.6094 0.84008 0.0
C949 C 0.41016 0.6346 0.83683 0.0
C950 C 0.41582 0.65219 0.82243 0.0
C951 C 0.38864 0.64476 0.8113 0.0
C952 C 0.35575 0.6195 0.81444 0.0
C953 C 0.21831 0.60768 0.86089 0.0
C954 C 0.18453 0.58925 0.85431 0.0
C955 C 0.24247 0.60002 0.85481 0.0
C956 C 0.2333 0.57385 0.84203 0.0
C957 C 0.20036 0.55744 0.83444 0.0
C958 C 0.17608 0.56497 0.84059 0.0
C959 C 0.25705 0.56132 0.83823 0.0
C960 C 0.29001 0.58444 0.83382 0.0
C961 C 0.2482 0.52732 0.84038 0.0
C962 C 0.21454 0.50215 0.84606 0.0
C963 C 0.19345 0.47205 0.83593 0.0
C964 C 0.16159 0.44838 0.8412 0.0
C965 C 0.15066 0.45449 0.85664 0.0
C966 C 0.17165 0.48419 0.86687 0.0
C967 C 0.20355 0.50789 0.86168 0.0
H968 H 0.12598 0.43616 0.86069 0.0
H969 H 0.44124 0.67164 0.8199 0.0
H970 H 0.9023 0.35219 0.16505 0.0
H971 H 0.85126 0.29653 0.16548 0.0
H972 H 0.79491 0.331 0.13683 0.0
H973 H 0.84566 0.38708 0.13683 0.0
H974 H 0.76418 0.30673 0.16364 0.0
H975 H 0.80923 0.26591 0.12087 0.0
H976 H 0.852 0.2568 0.10657 0.0
H977 H 0.8571 0.20229 0.14732 0.0
H978 H 0.81471 0.21149 0.162 0.0
H979 H 0.61496 0.15144 0.17318 0.0
H980 H 0.66144 0.19318 0.15762 0.0
H981 H 0.73376 0.18345 0.18874 0.0
H982 H 0.6874 0.14118 0.20409 0.0
H983 H 0.75172 0.19211 0.15535 0.0
H984 H 0.7152 0.24321 0.1997 0.0
H985 H 0.67297 0.25291 0.21424 0.0
H986 H 0.65263 0.28886 0.16961 0.0
H987 H 0.69443 0.27888 0.15473 0.0
C988 C 0.87924 0.34768 0.15852 0.0
C989 C 0.87784 0.3741 0.1511 0.0
C990 C 0.85008 0.31574 0.15866 0.0
C991 C 0.81921 0.30949 0.15112 0.0
C992 C 0.8184 0.33525 0.14277 0.0
C993 C 0.84741 0.3673 0.1428 0.0
C994 C 0.78712 0.27801 0.15398 0.0
C995 C 0.76117 0.2816 0.16136 0.0
C996 C 0.78339 0.24525 0.15137 0.0
C997 C 0.8089 0.23958 0.14259 0.0
C998 C 0.81964 0.2522 0.12685 0.0
C999 C 0.84379 0.24697 0.11866 0.0
C1000 C 0.85729 0.22902 0.12604 0.0
C1001 C 0.84662 0.21619 0.14162 0.0
C1002 C 0.82248 0.22136 0.14987 0.0
C1003 C 0.64069 0.15758 0.17642 0.0
C1004 C 0.64765 0.14345 0.18999 0.0
C1005 C 0.66719 0.18147 0.16756 0.0
C1006 C 0.70099 0.19161 0.17218 0.0
C1007 C 0.70782 0.17595 0.18501 0.0
C1008 C 0.68138 0.15213 0.19388 0.0
C1009 C 0.72941 0.22121 0.16511 0.0
C1010 C 0.75461 0.21724 0.15711 0.0
C1011 C 0.73257 0.25374 0.16709 0.0
C1012 C 0.70759 0.25989 0.17605 0.0
C1013 C 0.70151 0.25292 0.19295 0.0
C1014 C 0.67769 0.25851 0.20126 0.0
C1015 C 0.66004 0.27139 0.19283 0.0
C1016 C 0.66626 0.2788 0.1761 0.0
C1017 C 0.69 0.27318 0.16773 0.0
H1018 H 0.64162 0.27571 0.19929 0.0
H1019 H 0.87599 0.22501 0.11968 0.0
H1020 H 0.04633 0.55989 0.11386 0.0
H1021 H 0.04955 0.56674 0.0838 0.0
H1022 H 0.94317 0.49187 0.07604 0.0
H1023 H 0.93962 0.48453 0.10616 0.0
H1024 H 0.98232 0.48368 0.0521 0.0
H1025 H 0.96707 0.57381 0.07697 0.0
H1026 H 0.98032 0.62282 0.09706 0.0
H1027 H 0.07988 0.67884 0.07823 0.0
H1028 H 0.06739 0.62995 0.05817 0.0
H1029 H 0.95695 0.52253 0.9706 0.0
H1030 H 0.95339 0.51338 0.00048 0.0
H1031 H 0.05828 0.59206 0.00937 0.0
H1032 H 0.0617 0.60221 0.97957 0.0
H1033 H 0.01955 0.59792 0.0328 0.0
H1034 H 0.03543 0.50856 0.00796 0.0
H1035 H 0.02319 0.45955 0.98809 0.0
H1036 H 0.9238 0.40216 0.00693 0.0
H1037 H 0.93527 0.45103 0.02675 0.0
C1038 C 0.02359 0.54469 0.10579 0.0
C1039 C 0.99264 0.52179 0.11246 0.0
C1040 C 0.0255 0.54875 0.08861 0.0
C1041 C 0.9965 0.53013 0.07777 0.0
C1042 C 0.9658 0.50653 0.08425 0.0
C1043 C 0.96382 0.50246 0.10146 0.0
C1044 C 0.99813 0.53591 0.05971 0.0
C1045 C 0.99 0.50852 0.04784 0.0
C1046 C 0.00894 0.56854 0.05424 0.0
C1047 C 0.0164 0.5981 0.06618 0.0
C1048 C 0.99188 0.59649 0.0772 0.0
C1049 C 0.99924 0.62426 0.08856 0.0
C1050 C 0.03095 0.6539 0.08895 0.0
C1051 C 0.05534 0.65585 0.07793 0.0
C1052 C 0.04812 0.62813 0.06655 0.0
C1053 C 0.97916 0.53815 0.97894 0.0
C1054 C 0.00962 0.56309 0.97272 0.0
C1055 C 0.97718 0.53263 0.99598 0.0
C1056 C 0.0057 0.55174 0.00709 0.0
C1057 C 0.03602 0.57694 0.00098 0.0
C1058 C 0.03801 0.58252 0.98394 0.0
C1059 C 0.0038 0.54568 0.02514 0.0
C1060 C 0.01185 0.57304 0.03703 0.0
C1061 C 0.99304 0.51304 0.03061 0.0
C1062 C 0.98609 0.48358 0.01873 0.0
C1063 C 0.01085 0.48559 0.00777 0.0
C1064 C 0.00407 0.45782 0.99653 0.0
C1065 C 0.9727 0.4278 0.99622 0.0
C1066 C 0.94807 0.42546 0.00717 0.0
C1067 C 0.95471 0.45317 0.01842 0.0
H1068 H 0.9675 0.40632 0.98751 0.0
H1069 H 0.03661 0.67537 0.09776 0.0
H1070 H 0.56548 0.99339 0.45436 0.0
H1071 H 0.56851 0.00639 0.42499 0.0
H1072 H 0.5038 0.04922 0.4338 0.0
H1073 H 0.5006 0.03618 0.46319 0.0
H1074 H 0.51535 0.97946 0.40265 0.0
H1075 H 0.5215 0.10943 0.40452 0.0
H1076 H 0.54491 0.16335 0.42234 0.0
H1077 H 0.62153 0.14621 0.44366 0.0
H1078 H 0.59897 0.09243 0.42575 0.0
H1079 H 0.46021 0.02131 0.32745 0.0
H1080 H 0.47023 0.02242 0.35767 0.0
H1081 H 0.57564 0.05581 0.35061 0.0
H1082 H 0.56568 0.05274 0.32025 0.0
H1083 H 0.54845 0.0904 0.38034 0.0
H1084 H 0.55152 0.98951 0.35598 0.0
H1085 H 0.52737 0.93697 0.33698 0.0
H1086 H 0.43274 0.89732 0.36114 0.0
H1087 H 0.45626 0.94992 0.38012 0.0
C1088 C 0.55225 0.00596 0.45008 0.0
C1089 C 0.53296 0.01394 0.46108 0.0
C1090 C 0.55403 0.01341 0.43333 0.0
C1091 C 0.53658 0.02897 0.42725 0.0
C1092 C 0.51795 0.03774 0.43829 0.0
C1093 C 0.51614 0.03026 0.45508 0.0
C1094 C 0.53543 0.03311 0.40905 0.0
C1095 C 0.52295 0.00386 0.39784 0.0
C1096 C 0.54482 0.06482 0.40273 0.0
C1097 C 0.55836 0.09675 0.41385 0.0
C1098 C 0.54342 0.1172 0.41297 0.0
C1099 C 0.55658 0.14777 0.42304 0.0
C1100 C 0.58478 0.15827 0.43403 0.0
C1101 C 0.59973 0.13807 0.43509 0.0
C1102 C 0.58671 0.10748 0.425 0.0
C1103 C 0.48551 0.02865 0.33223 0.0
C1104 C 0.51203 0.03657 0.32129 0.0
C1105 C 0.49122 0.02965 0.34953 0.0
C1106 C 0.52362 0.03921 0.35624 0.0
C1107 C 0.55051 0.04859 0.34557 0.0
C1108 C 0.54473 0.04697 0.32822 0.0
C1109 C 0.52871 0.03695 0.37426 0.0
C1110 C 0.54137 0.06628 0.38533 0.0
C1111 C 0.51949 0.00544 0.38054 0.0
C1112 C 0.5055 0.97372 0.36931 0.0
C1113 C 0.52547 0.96971 0.35712 0.0
C1114 C 0.51193 0.9399 0.34638 0.0
C1115 C 0.4785 0.91386 0.34782 0.0
C1116 C 0.4586 0.91753 0.36003 0.0
C1117 C 0.47203 0.94731 0.37078 0.0
H1118 H 0.46806 0.8908 0.3395 0.0
H1119 H 0.59481 0.18196 0.44179 0.0
H1120 H 0.54981 0.48178 0.7859 0.0
H1121 H 0.56236 0.48486 0.75626 0.0
H1122 H 0.50135 0.53131 0.74842 0.0
H1123 H 0.48853 0.52832 0.77812 0.0
H1124 H 0.49056 0.4838 0.72309 0.0
H1125 H 0.58622 0.57996 0.75222 0.0
H1126 H 0.63421 0.61136 0.77316 0.0
H1127 H 0.68032 0.55474 0.75381 0.0
H1128 H 0.63237 0.52269 0.73285 0.0
H1129 H 0.55312 0.54731 0.64487 0.0
H1130 H 0.53991 0.54427 0.67448 0.0
H1131 H 0.59942 0.49634 0.68271 0.0
H1132 H 0.61354 0.50014 0.65316 0.0
H1133 H 0.61092 0.54508 0.70782 0.0
H1134 H 0.51429 0.4491 0.67841 0.0
H1135 H 0.46731 0.42045 0.65676 0.0
H1136 H 0.4233 0.47876 0.67659 0.0
H1137 H 0.47031 0.50812 0.69821 0.0
C1138 C 0.53886 0.4925 0.77789 0.0
C1139 C 0.51841 0.50512 0.78444 0.0
C1140 C 0.54619 0.49434 0.76095 0.0
C1141 C 0.53328 0.50887 0.75023 0.0
C1142 C 0.51171 0.52018 0.75653 0.0
C1143 C 0.50439 0.5184 0.7735 0.0
C1144 C 0.54274 0.51269 0.73251 0.0
C1145 C 0.51685 0.49756 0.71975 0.0
C1146 C 0.5771 0.53013 0.72818 0.0
C1147 C 0.60556 0.54874 0.74104 0.0
C1148 C 0.60642 0.57396 0.75253 0.0
C1149 C 0.63367 0.59197 0.76436 0.0
C1150 C 0.66036 0.58516 0.76475 0.0
C1151 C 0.6597 0.5601 0.75342 0.0
C1152 C 0.63249 0.54201 0.74156 0.0
C1153 C 0.56382 0.53658 0.65303 0.0
C1154 C 0.58432 0.52389 0.64668 0.0
C1155 C 0.55596 0.53455 0.6699 0.0
C1156 C 0.56829 0.51964 0.68071 0.0
C1157 C 0.5895 0.50777 0.67453 0.0
C1158 C 0.59735 0.50975 0.65764 0.0
C1159 C 0.55876 0.51608 0.69843 0.0
C1160 C 0.58464 0.53127 0.71118 0.0
C1161 C 0.52441 0.49883 0.70275 0.0
C1162 C 0.49599 0.48103 0.68983 0.0
C1163 C 0.49473 0.45599 0.67807 0.0
C1164 C 0.46807 0.4396 0.66582 0.0
C1165 C 0.44238 0.44783 0.66527 0.0
C1166 C 0.44324 0.47243 0.67701 0.0
C1167 C 0.46987 0.48894 0.68928 0.0
H1168 H 0.42176 0.43511 0.65578 0.0
H1169 H 0.68152 0.59925 0.77386 0.0
H1170 H 0.52301 0.96429 0.55202 0.0
H1171 H 0.52328 0.96329 0.58258 0.0
H1172 H 0.56306 0.07166 0.58807 0.0
H1173 H 0.5631 0.07304 0.55753 0.0
H1174 H 0.59517 0.05086 0.61004 0.0
H1175 H 0.48057 0.01904 0.59214 0.0
H1176 H 0.42638 0.98471 0.5755 0.0
H1177 H 0.41203 0.89461 0.5968 0.0
H1178 H 0.4664 0.92837 0.61341 0.0
H1179 H 0.5598 0.0748 0.69386 0.0
H1180 H 0.56291 0.07252 0.66339 0.0
H1181 H 0.51255 0.96298 0.66096 0.0
H1182 H 0.50766 0.96494 0.6914 0.0
H1183 H 0.48678 0.98178 0.63725 0.0
H1184 H 0.59918 0.01264 0.65619 0.0
H1185 H 0.65367 0.0458 0.67269 0.0
H1186 H 0.67304 0.13574 0.64946 0.0
H1187 H 0.61842 0.10321 0.63298 0.0
C1188 C 0.53197 0.98797 0.5597 0.0
C1189 C 0.54283 0.01873 0.5523 0.0
C1190 C 0.53201 0.98731 0.57716 0.0
C1191 C 0.54287 0.01735 0.58755 0.0
C1192 C 0.55454 0.0482 0.58025 0.0
C1193 C 0.5544 0.04889 0.56279 0.0
C1194 C 0.54135 0.01656 0.60603 0.0
C1195 C 0.57146 0.03605 0.61604 0.0
C1196 C 0.51052 0.99644 0.61376 0.0
C1197 C 0.47771 0.97617 0.60388 0.0
C1198 C 0.46599 0.99187 0.59318 0.0
C1199 C 0.43522 0.97252 0.58377 0.0
C1200 C 0.41582 0.93748 0.58505 0.0
C1201 C 0.42711 0.92174 0.5958 0.0
C1202 C 0.45788 0.94097 0.60522 0.0
C1203 C 0.54903 0.05017 0.68685 0.0
C1204 C 0.53343 0.02004 0.69511 0.0
C1205 C 0.55126 0.04894 0.66943 0.0
C1206 C 0.53846 0.0176 0.6599 0.0
C1207 C 0.52279 0.98746 0.66807 0.0
C1208 C 0.52029 0.98865 0.6855 0.0
C1209 C 0.54062 0.01631 0.64137 0.0
C1210 C 0.5106 0.99644 0.63132 0.0
C1211 C 0.5716 0.03589 0.6336 0.0
C1212 C 0.60455 0.05553 0.64345 0.0
C1213 C 0.61493 0.03954 0.65469 0.0
C1214 C 0.64587 0.05822 0.66402 0.0
C1215 C 0.66677 0.09287 0.66215 0.0
C1216 C 0.65681 0.1089 0.65091 0.0
C1217 C 0.62588 0.09035 0.64155 0.0
H1218 H 0.69071 0.10729 0.6694 0.0
H1219 H 0.39201 0.92254 0.57776 0.0
H1220 H 0.53411 0.4883 0.88542 0.0
H1221 H 0.5238 0.48753 0.91545 0.0
H1222 H 0.45207 0.52131 0.90703 0.0
H1223 H 0.46229 0.52219 0.87697 0.0
H1224 H 0.50009 0.5575 0.93447 0.0
H1225 H 0.42137 0.44217 0.91331 0.0
H1226 H 0.40471 0.38717 0.89765 0.0
H1227 H 0.47291 0.37402 0.92976 0.0
H1228 H 0.49036 0.42921 0.94547 0.0
H1229 H 0.43809 0.53363 0.01615 0.0
H1230 H 0.44077 0.53049 0.9856 0.0
H1231 H 0.49873 0.47958 0.98909 0.0
H1232 H 0.49449 0.48084 0.01951 0.0
H1233 H 0.45487 0.45146 0.96355 0.0
H1234 H 0.53651 0.56606 0.98371 0.0
H1235 H 0.55696 0.62208 -0.00085 0.0
H1236 H 0.48817 0.63801 0.96902 0.0
H1237 H 0.46697 0.58184 0.95354 0.0
C1238 C 0.51612 0.49554 0.88997 0.0
C1239 C 0.49867 0.50493 0.87884 0.0
C1240 C 0.51018 0.49496 0.90709 0.0
C1241 C 0.48696 0.50407 0.91338 0.0
C1242 C 0.46993 0.514 0.90236 0.0
C1243 C 0.47556 0.5142 0.8852 0.0
C1244 C 0.48077 0.50353 0.93152 0.0
C1245 C 0.48969 0.53427 0.94082 0.0
C1246 C 0.46808 0.47332 0.93979 0.0
C1247 C 0.45739 0.43997 0.93047 0.0
C1248 C 0.43301 0.42768 0.91695 0.0
C1249 C 0.42339 0.39644 0.90808 0.0
C1250 C 0.4378 0.37715 0.91268 0.0
C1251 C 0.46179 0.389 0.9262 0.0
C1252 C 0.47153 0.42024 0.9351 0.0
C1253 C 0.45091 0.52123 0.01041 0.0
C1254 C 0.46631 0.50773 0.02033 0.0
C1255 C 0.45278 0.51983 0.99294 0.0
C1256 C 0.47051 0.50537 0.98507 0.0
C1257 C 0.48509 0.49106 0.99489 0.0
C1258 C 0.48296 0.49214 0.01232 0.0
C1259 C 0.47438 0.50555 0.96664 0.0
C1260 C 0.46507 0.47472 0.95724 0.0
C1261 C 0.48718 0.5358 0.95831 0.0
C1262 C 0.49988 0.56959 0.9676 0.0
C1263 C 0.52554 0.58139 0.98047 0.0
C1264 C 0.53731 0.61319 0.98921 0.0
C1265 C 0.5238 0.63355 0.9851 0.0
C1266 C 0.49856 0.62218 0.97221 0.0
C1267 C 0.48667 0.59038 0.96344 0.0
H1268 H 0.53295 0.65817 0.99188 0.0
H1269 H 0.43033 0.35298 0.90579 0.0
H1270 H 0.03301 0.55844 0.20917 0.0
H1271 H 0.04923 0.55247 0.23744 0.0
H1272 H 0.98778 0.44327 0.22894 0.0
H1273 H 0.97097 0.44905 0.20072 0.0
H1274 H 0.97348 0.46405 0.25731 0.0
H1275 H 0.07474 0.48399 0.23217 0.0
H1276 H 0.1258 0.51202 0.21584 0.0
H1277 H 0.16619 0.60162 0.2501 0.0
H1278 H 0.1149 0.57459 0.26638 0.0
H1279 H 0.0286 0.44564 0.33837 0.0
H1280 H 0.02195 0.44196 0.30771 0.0
H1281 H 0.06473 0.55062 0.30939 0.0
H1282 H 0.0702 0.55453 0.33997 0.0
H1283 H 0.09015 0.52321 0.28385 0.0
H1284 H 0.9836 0.50443 0.3058 0.0
H1285 H 0.93321 0.47497 0.32251 0.0
H1286 H 0.90419 0.38055 0.29382 0.0
H1287 H 0.95474 0.40941 0.27709 0.0
C1288 C 0.02327 0.53312 0.21322 0.0
C1289 C 0.00046 0.50423 0.20275 0.0
C1290 C 0.03275 0.52973 0.22937 0.0
C1291 C 0.01987 0.49739 0.23528 0.0
C1292 C 0.99798 0.46847 0.22464 0.0
C1293 C 0.98841 0.47183 0.20851 0.0
C1294 C 0.02688 0.49403 0.25303 0.0
C1295 C 0.99908 0.47639 0.26299 0.0
C1296 C 0.06024 0.51051 0.26053 0.0
C1297 C 0.09078 0.52726 0.25048 0.0
C1298 C 0.09429 0.50982 0.23613 0.0
C1299 C 0.12335 0.52551 0.2269 0.0
C1300 C 0.14931 0.55849 0.23199 0.0
C1301 C 0.14609 0.57603 0.2462 0.0
C1302 C 0.117 0.56054 0.25543 0.0
C1303 C 0.03641 0.46876 0.33225 0.0
C1304 C 0.04984 0.50038 0.34171 0.0
C1305 C 0.03286 0.46661 0.31473 0.0
C1306 C 0.04289 0.49604 0.30635 0.0
C1307 C 0.05714 0.52768 0.31565 0.0
C1308 C 0.06035 0.52983 0.33315 0.0
C1309 C 0.03681 0.49387 0.28796 0.0
C1310 C 0.0647 0.51048 0.27797 0.0
C1311 C 0.00362 0.47627 0.28036 0.0
C1312 C 0.97315 0.45898 0.29034 0.0
C1313 C 0.96664 0.47733 0.30316 0.0
C1314 C 0.93802 0.46076 0.31261 0.0
C1315 C 0.91557 0.42589 0.30927 0.0
C1316 C 0.92164 0.40754 0.29642 0.0
C1317 C 0.95026 0.42399 0.28695 0.0
H1318 H 0.89343 0.4131 0.31659 0.0
H1319 H 0.17199 0.57048 0.22498 0.0
loop_
_geom_bond_atom_site_label_1
_geom_bond_atom_site_label_2
_geom_bond_distance
_geom_bond_site_symmetry_2
_ccdc_geom_bond_type
Zn0 O6 1.969 . S
Zn0 O7 1.965 . S
Zn0 O11 2.024 . S
Zn0 O16 1.969 . S
Zn1 O8 1.969 . S
Zn1 O14 1.969 . S
Zn1 O15 1.965 . S
Zn1 O17 2.024 . S
C2 O3 1.229 . S
C2 O11 1.058 . S
O3 C2 1.229 . S
C4 O5 1.229 . S
C4 O17 1.058 . S
O5 C4 1.229 . S
O6 Zn0 1.969 . S
O6 C9 1.267 . S
O7 Zn0 1.965 . S
O7 C18 1.265 . S
O8 Zn1 1.969 . S
O8 C18 1.249 1_655 S
C9 O6 1.267 . S
C9 O10 1.228 . S
O10 C9 1.228 . S
O11 Zn0 2.024 . S
O11 C2 1.058 . S
C12 O13 1.228 . S
C12 O14 1.267 . S
O13 C12 1.228 . S
O14 Zn1 1.969 . S
O14 C12 1.267 . S
O15 Zn1 1.965 . S
O15 C19 1.260 1_655 S
O16 Zn0 1.969 . S
O16 C19 1.258 . S
O17 Zn1 2.024 . S
O17 C4 1.058 . S
C18 O7 1.265 . S
C18 O8 1.249 1_455 S
C19 O15 1.260 1_455 S
C19 O16 1.258 . S
Zn20 O26 1.969 . S
Zn20 O27 1.965 . S
Zn20 O31 2.024 . S
Zn20 O36 1.969 . S
Zn21 O28 1.969 . S
Zn21 O34 1.969 . S
Zn21 O35 1.965 . S
Zn21 O37 2.024 . S
C22 O23 1.229 . S
C22 O31 1.058 . S
O23 C22 1.229 . S
C24 O25 1.229 . S
C24 O37 1.058 . S
O25 C24 1.229 . S
O26 Zn20 1.969 . S
O26 C29 1.267 . S
O27 Zn20 1.965 . S
O27 C38 1.260 . S
O28 Zn21 1.969 . S
O28 C38 1.258 1_565 S
C29 O26 1.267 . S
C29 O30 1.228 . S
O30 C29 1.228 . S
O31 Zn20 2.024 . S
O31 C22 1.058 . S
C32 O33 1.228 . S
C32 O34 1.267 . S
O33 C32 1.228 . S
O34 Zn21 1.969 . S
O34 C32 1.267 . S
O35 Zn21 1.965 . S
O35 C39 1.260 1_565 S
O36 Zn20 1.969 . S
O36 C39 1.258 . S
O37 Zn21 2.024 . S
O37 C24 1.058 . S
C38 O27 1.260 . S
C38 O28 1.258 1_545 S
C39 O35 1.260 1_545 S
C39 O36 1.258 . S
Zn40 O46 1.969 . S
Zn40 O47 1.965 . S
Zn40 O51 2.024 . S
Zn40 O56 1.969 . S
Zn41 O48 1.969 . S
Zn41 O54 1.969 . S
Zn41 O55 1.965 . S
Zn41 O57 2.024 . S
C42 O43 1.229 . S
C42 O51 1.058 . S
O43 C42 1.229 . S
C44 O45 1.229 . S
C44 O57 1.058 . S
O45 C44 1.229 . S
O46 Zn40 1.969 . S
O46 C49 1.267 . S
O47 Zn40 1.965 . S
O47 C58 1.260 . S
O48 Zn41 1.969 . S
O48 C58 1.258 . S
C49 O46 1.267 . S
C49 O50 1.228 . S
O50 C49 1.228 . S
O51 Zn40 2.024 . S
O51 C42 1.058 . S
C52 O53 1.228 . S
C52 O54 1.267 . S
O53 C52 1.228 . S
O54 Zn41 1.969 . S
O54 C52 1.267 . S
O55 Zn41 1.965 . S
O55 C59 1.260 . S
O56 Zn40 1.969 . S
O56 C59 1.258 . S
O57 Zn41 2.024 . S
O57 C44 1.058 . S
C58 O47 1.260 . S
C58 O48 1.258 . S
C59 O55 1.260 . S
C59 O56 1.258 . S
C60 C61 1.391 . S
C60 C64 1.391 . S
C60 H102 0.948 . S
C61 C60 1.391 . S
C61 C62 1.391 . S
C62 C61 1.391 . S
C62 H118 0.947 . S
C62 C119 1.392 . S
C63 C64 1.391 . S
C63 C67 1.397 . S
C63 C119 1.419 . S
C64 C60 1.391 . S
C64 C63 1.391 . S
C64 C65 1.399 . S
C65 C64 1.399 . S
C65 C68 1.396 . S
C65 C77 1.453 . S
C65 C78 1.684 . S
H66 C90 0.948 . S
C67 C63 1.397 . S
C67 C68 1.394 . S
C67 C86 1.723 . S
C68 C65 1.396 . S
C68 C67 1.394 . S
C68 C98 1.723 . S
H69 C92 0.947 . S
H70 C93 0.952 . S
H71 C99 0.982 . S
H72 C100 0.979 . S
H73 C100 0.980 . S
H74 C100 0.983 . S
H75 C99 0.979 . S
H76 C99 0.977 . S
C77 C65 1.453 . S
C77 H106 0.982 . S
C77 H107 0.979 . S
C77 H108 0.977 . S
C78 C65 1.684 . S
C78 H103 0.979 . S
C78 H104 0.980 . S
C78 H105 0.983 . S
C79 C80 1.391 . S
C79 C84 1.391 . S
C79 H109 0.948 . S
C80 C79 1.391 . S
C80 C81 1.391 . S
C81 C80 1.391 . S
C81 C82 1.391 . S
C81 H110 0.947 1_545 S
C82 C81 1.391 . S
C82 C83 1.420 . S
C82 H111 0.947 1_545 S
C83 C82 1.420 . S
C83 C84 1.391 . S
C83 C87 1.397 . S
C84 C79 1.391 . S
C84 C83 1.391 . S
C84 C85 1.399 . S
C85 C84 1.399 . S
C85 C86 1.396 . S
C85 C88 1.453 . S
C85 C89 1.684 . S
C86 C67 1.723 . S
C86 C85 1.396 . S
C86 C87 1.394 . S
C87 C83 1.397 . S
C87 C86 1.394 . S
C87 C97 1.723 1_545 S
C88 C85 1.453 . S
C88 H112 0.982 . S
C88 H113 0.979 . S
C88 H114 0.977 . S
C89 C85 1.684 . S
C89 H115 0.979 . S
C89 H116 0.980 . S
C89 H117 0.983 . S
C90 H66 0.948 . S
C90 C91 1.391 . S
C90 C95 1.391 . S
C91 C90 1.391 . S
C91 C92 1.391 . S
C92 H69 0.947 . S
C92 C91 1.391 . S
C92 C93 1.392 . S
C93 H70 0.952 . S
C93 C92 1.392 . S
C93 C94 1.419 . S
C94 C93 1.419 . S
C94 C95 1.391 . S
C94 C98 1.397 1_565 S
C95 C90 1.391 . S
C95 C94 1.391 . S
C95 C96 1.399 . S
C96 C95 1.399 . S
C96 C97 1.396 . S
C96 C99 1.453 . S
C96 C100 1.684 . S
C97 C87 1.723 1_565 S
C97 C96 1.396 . S
C97 C98 1.394 1_565 S
C98 C68 1.723 . S
C98 C94 1.397 1_545 S
C98 C97 1.394 1_545 S
C99 H71 0.982 . S
C99 H75 0.979 . S
C99 H76 0.977 . S
C99 C96 1.453 . S
C100 H72 0.979 . S
C100 H73 0.980 . S
C100 H74 0.983 . S
C100 C96 1.684 . S
H101 C119 0.948 . S
H102 C60 0.948 . S
H103 C78 0.979 . S
H104 C78 0.980 . S
H105 C78 0.983 . S
H106 C77 0.982 . S
H107 C77 0.979 . S
H108 C77 0.977 . S
H109 C79 0.948 . S
H110 C81 0.947 1_565 S
H111 C82 0.947 1_565 S
H112 C88 0.982 . S
H113 C88 0.979 . S
H114 C88 0.977 . S
H115 C89 0.979 . S
H116 C89 0.980 . S
H117 C89 0.983 . S
H118 C62 0.947 . S
C119 C62 1.392 . S
C119 C63 1.419 . S
C119 H101 0.948 . S
C120 C121 1.391 . S
C120 C124 1.391 . S
C120 H162 0.948 . S
C121 C120 1.391 . S
C121 C122 1.391 . S
C122 C121 1.391 . S
C122 H178 0.947 . S
C122 C179 1.392 . S
C123 C124 1.391 . S
C123 C127 1.397 . S
C123 C179 1.419 . S
C124 C120 1.391 . S
C124 C123 1.391 . S
C124 C125 1.399 . S
C125 C124 1.399 . S
C125 C128 1.396 . S
C125 C137 1.453 . S
C125 C138 1.684 . S
H126 C150 0.948 . S
C127 C123 1.397 . S
C127 C128 1.394 . S
C127 C146 1.723 . S
C128 C125 1.396 . S
C128 C127 1.394 . S
C128 C158 1.723 . S
H129 C152 0.947 . S
H130 C153 0.948 . S
H131 C159 0.982 . S
H132 C160 0.979 . S
H133 C160 0.980 . S
H134 C160 0.983 . S
H135 C159 0.979 . S
H136 C159 0.977 . S
C137 C125 1.453 . S
C137 H166 0.982 . S
C137 H167 0.979 . S
C137 H168 0.977 . S
C138 C125 1.684 . S
C138 H163 0.979 . S
C138 H164 0.980 . S
C138 H165 0.983 . S
C139 C140 1.391 . S
C139 C144 1.391 . S
C139 H169 0.948 . S
C140 C139 1.391 . S
C140 C141 1.391 . S
C141 C140 1.391 . S
C141 C142 1.392 . S
C141 H170 0.947 . S
C142 C141 1.392 . S
C142 C143 1.419 . S
C142 H171 0.948 . S
C143 C142 1.419 . S
C143 C144 1.391 . S
C143 C147 1.397 . S
C144 C139 1.391 . S
C144 C143 1.391 . S
C144 C145 1.399 . S
C145 C144 1.399 . S
C145 C146 1.396 . S
C145 C148 1.453 . S
C145 C149 1.684 . S
C146 C127 1.723 . S
C146 C145 1.396 . S
C146 C147 1.394 . S
C147 C143 1.397 . S
C147 C146 1.394 . S
C147 C157 1.723 . S
C148 C145 1.453 . S
C148 H172 0.982 . S
C148 H173 0.979 . S
C148 H174 0.977 . S
C149 C145 1.684 . S
C149 H175 0.979 . S
C149 H176 0.980 . S
C149 H177 0.983 . S
C150 H126 0.948 . S
C150 C151 1.391 . S
C150 C155 1.391 . S
C151 C150 1.391 . S
C151 C152 1.391 . S
C152 H129 0.947 . S
C152 C151 1.391 . S
C152 C153 1.392 . S
C153 H130 0.948 . S
C153 C152 1.392 . S
C153 C154 1.419 . S
C154 C153 1.419 . S
C154 C155 1.391 . S
C154 C158 1.397 . S
C155 C150 1.391 . S
C155 C154 1.391 . S
C155 C156 1.399 . S
C156 C155 1.399 . S
C156 C157 1.396 . S
C156 C159 1.453 . S
C156 C160 1.684 . S
C157 C147 1.723 . S
C157 C156 1.396 . S
C157 C158 1.394 . S
C158 C128 1.723 . S
C158 C154 1.397 . S
C158 C157 1.394 . S
C159 H131 0.982 . S
C159 H135 0.979 . S
C159 H136 0.977 . S
C159 C156 1.453 . S
C160 H132 0.979 . S
C160 H133 0.980 . S
C160 H134 0.983 . S
C160 C156 1.684 . S
H161 C179 0.948 . S
H162 C120 0.948 . S
H163 C138 0.979 . S
H164 C138 0.980 . S
H165 C138 0.983 . S
H166 C137 0.982 . S
H167 C137 0.979 . S
H168 C137 0.977 . S
H169 C139 0.948 . S
H170 C141 0.947 . S
H171 C142 0.948 . S
H172 C148 0.982 . S
H173 C148 0.979 . S
H174 C148 0.977 . S
H175 C149 0.979 . S
H176 C149 0.980 . S
H177 C149 0.983 . S
H178 C122 0.947 . S
C179 C122 1.392 . S
C179 C123 1.419 . S
C179 H161 0.948 . S
C180 C181 1.391 . S
C180 C184 1.391 . S
C180 H222 0.948 . S
C181 C180 1.391 . S
C181 C182 1.391 . S
C182 C181 1.391 . S
C182 H238 0.947 . S
C182 C239 1.392 . S
C183 C184 1.391 . S
C183 C187 1.397 . S
C183 C239 1.419 . S
C184 C180 1.391 . S
C184 C183 1.391 . S
C184 C185 1.399 . S
C185 C184 1.399 . S
C185 C188 1.396 . S
C185 C197 1.453 . S
C185 C198 1.684 . S
H186 C210 0.948 . S
C187 C183 1.397 . S
C187 C188 1.394 . S
C187 C206 1.723 . S
C188 C185 1.396 . S
C188 C187 1.394 . S
C188 C218 1.723 . S
H189 C212 0.947 . S
H190 C213 0.948 1_455 S
H191 C219 0.982 . S
H192 C220 0.979 . S
H193 C220 0.980 . S
H194 C220 0.983 . S
H195 C219 0.979 . S
H196 C219 0.977 . S
C197 C185 1.453 . S
C197 H226 0.982 . S
C197 H227 0.979 . S
C197 H228 0.977 . S
C198 C185 1.684 . S
C198 H223 0.979 . S
C198 H224 0.980 . S
C198 H225 0.983 . S
C199 C200 1.391 . S
C199 C204 1.391 . S
C199 H229 0.948 . S
C200 C199 1.391 . S
C200 C201 1.391 . S
C201 C200 1.391 . S
C201 C202 1.392 . S
C201 H230 0.947 1_455 S
C202 C201 1.392 . S
C202 C203 1.419 . S
C202 H231 0.948 1_455 S
C203 C202 1.419 . S
C203 C204 1.391 . S
C203 C207 1.397 . S
C204 C199 1.391 . S
C204 C203 1.391 . S
C204 C205 1.399 . S
C205 C204 1.399 . S
C205 C206 1.396 . S
C205 C208 1.453 . S
C205 C209 1.684 . S
C206 C187 1.723 . S
C206 C205 1.396 . S
C206 C207 1.394 . S
C207 C203 1.397 . S
C207 C206 1.394 . S
C207 C217 1.722 . S
C208 C205 1.453 . S
C208 H232 0.982 . S
C208 H233 0.979 . S
C208 H234 0.977 . S
C209 C205 1.684 . S
C209 H235 0.979 . S
C209 H236 0.980 . S
C209 H237 0.983 . S
C210 H186 0.948 . S
C210 C211 1.391 . S
C210 C215 1.391 . S
C211 C210 1.391 . S
C211 C212 1.391 . S
C212 H189 0.947 . S
C212 C211 1.391 . S
C212 C213 1.392 . S
C213 H190 0.948 1_655 S
C213 C212 1.392 . S
C213 C214 1.419 . S
C214 C213 1.419 . S
C214 C215 1.391 . S
C214 C218 1.397 1_655 S
C215 C210 1.391 . S
C215 C214 1.391 . S
C215 C216 1.399 . S
C216 C215 1.399 . S
C216 C217 1.397 1_655 S
C216 C219 1.453 . S
C216 C220 1.684 . S
C217 C207 1.722 . S
C217 C216 1.397 1_455 S
C217 C218 1.394 . S
C218 C188 1.723 . S
C218 C214 1.397 1_455 S
C218 C217 1.394 . S
C219 H191 0.982 . S
C219 H195 0.979 . S
C219 H196 0.977 . S
C219 C216 1.453 . S
C220 H192 0.979 . S
C220 H193 0.980 . S
C220 H194 0.983 . S
C220 C216 1.684 . S
H221 C239 0.948 . S
H222 C180 0.948 . S
H223 C198 0.979 . S
H224 C198 0.980 . S
H225 C198 0.983 . S
H226 C197 0.982 . S
H227 C197 0.979 . S
H228 C197 0.977 . S
H229 C199 0.948 . S
H230 C201 0.947 1_655 S
H231 C202 0.948 1_655 S
H232 C208 0.982 . S
H233 C208 0.979 . S
H234 C208 0.977 . S
H235 C209 0.979 . S
H236 C209 0.980 . S
H237 C209 0.983 . S
H238 C182 0.947 . S
C239 C182 1.392 . S
C239 C183 1.419 . S
C239 H221 0.948 . S
C240 C241 1.391 . S
C240 C244 1.391 . S
C240 H282 0.948 . S
C241 C240 1.391 . S
C241 C242 1.391 . S
C242 C241 1.391 . S
C242 H298 0.947 . S
C242 C299 1.392 . S
C243 C244 1.391 . S
C243 C247 1.397 . S
C243 C299 1.419 . S
C244 C240 1.391 . S
C244 C243 1.391 . S
C244 C245 1.399 1_655 S
C245 C244 1.399 1_455 S
C245 C248 1.396 . S
C245 C257 1.453 . S
C245 C258 1.684 . S
H246 C270 0.948 . S
C247 C243 1.397 . S
C247 C248 1.394 1_655 S
C247 C266 1.723 . S
C248 C245 1.396 . S
C248 C247 1.394 1_455 S
C248 C278 1.723 . S
H249 C272 0.947 . S
H250 C273 0.948 . S
H251 C279 0.982 . S
H252 C280 0.979 . S
H253 C280 0.980 . S
H254 C280 0.983 . S
H255 C279 0.979 . S
H256 C279 0.977 . S
C257 C245 1.453 . S
C257 H286 0.982 . S
C257 H287 0.979 . S
C257 H288 0.977 . S
C258 C245 1.684 . S
C258 H283 0.979 1_455 S
C258 H284 0.980 . S
C258 H285 0.983 1_455 S
C259 C260 1.391 1_655 S
C259 C264 1.391 . S
C259 H289 0.948 . S
C260 C259 1.391 1_455 S
C260 C261 1.391 . S
C261 C260 1.391 . S
C261 C262 1.392 . S
C261 H290 0.947 . S
C262 C261 1.392 . S
C262 C263 1.419 . S
C262 H291 0.948 . S
C263 C262 1.419 . S
C263 C264 1.391 1_455 S
C263 C267 1.397 . S
C264 C259 1.391 . S
C264 C263 1.391 1_655 S
C264 C265 1.399 . S
C265 C264 1.399 . S
C265 C266 1.395 . S
C265 C268 1.453 . S
C265 C269 1.684 . S
C266 C247 1.723 . S
C266 C265 1.395 . S
C266 C267 1.396 1_655 S
C267 C263 1.397 . S
C267 C266 1.396 1_455 S
C267 C277 1.723 . S
C268 C265 1.453 . S
C268 H292 0.982 . S
C268 H293 0.979 . S
C268 H294 0.977 . S
C269 C265 1.684 . S
C269 H295 0.979 . S
C269 H296 0.980 . S
C269 H297 0.983 . S
C270 H246 0.948 . S
C270 C271 1.391 . S
C270 C275 1.391 . S
C271 C270 1.391 . S
C271 C272 1.391 . S
C272 H249 0.947 . S
C272 C271 1.391 . S
C272 C273 1.392 . S
C273 H250 0.948 . S
C273 C272 1.392 . S
C273 C274 1.419 . S
C274 C273 1.419 . S
C274 C275 1.391 . S
C274 C278 1.397 . S
C275 C270 1.391 . S
C275 C274 1.391 . S
C275 C276 1.399 . S
C276 C275 1.399 . S
C276 C277 1.396 . S
C276 C279 1.453 . S
C276 C280 1.684 . S
C277 C267 1.723 . S
C277 C276 1.396 . S
C277 C278 1.394 . S
C278 C248 1.723 . S
C278 C274 1.397 . S
C278 C277 1.394 . S
C279 H251 0.982 . S
C279 H255 0.979 . S
C279 H256 0.977 . S
C279 C276 1.453 . S
C280 H252 0.979 . S
C280 H253 0.980 . S
C280 H254 0.983 . S
C280 C276 1.684 . S
H281 C299 0.948 . S
H282 C240 0.948 . S
H283 C258 0.979 1_655 S
H284 C258 0.980 . S
H285 C258 0.983 1_655 S
H286 C257 0.982 . S
H287 C257 0.979 . S
H288 C257 0.977 . S
H289 C259 0.948 . S
H290 C261 0.947 . S
H291 C262 0.948 . S
H292 C268 0.982 . S
H293 C268 0.979 . S
H294 C268 0.977 . S
H295 C269 0.979 . S
H296 C269 0.980 . S
H297 C269 0.983 . S
H298 C242 0.947 . S
C299 C242 1.392 . S
C299 C243 1.419 . S
C299 H281 0.948 . S
C300 C301 1.391 . S
C300 C304 1.391 . S
C300 H342 0.948 . S
C301 C300 1.391 . S
C301 C302 1.391 . S
C302 C301 1.391 . S
C302 H358 0.947 . S
C302 C359 1.392 . S
C303 C304 1.391 . S
C303 C307 1.397 . S
C303 C359 1.419 . S
C304 C300 1.391 . S
C304 C303 1.391 . S
C304 C305 1.399 . S
C305 C304 1.399 . S
C305 C308 1.396 1_565 S
C305 C317 1.453 1_565 S
C305 C318 1.684 . S
H306 C330 0.948 . S
C307 C303 1.397 . S
C307 C308 1.394 1_565 S
C307 C326 1.723 . S
C308 C305 1.396 1_545 S
C308 C307 1.394 1_545 S
C308 C338 1.723 . S
H309 C332 0.947 . S
H310 C333 0.948 . S
H311 C339 0.982 . S
H312 C340 0.979 . S
H313 C340 0.980 . S
H314 C340 0.983 . S
H315 C339 0.979 . S
H316 C339 0.977 . S
C317 C305 1.453 1_545 S
C317 H346 0.982 . S
C317 H347 0.979 . S
C317 H348 0.977 . S
C318 C305 1.684 . S
C318 H343 0.979 . S
C318 H344 0.980 1_565 S
C318 H345 0.983 . S
C319 C320 1.391 1_565 S
C319 C324 1.391 1_565 S
C319 H349 0.948 . S
C320 C319 1.391 1_545 S
C320 C321 1.391 . S
C321 C320 1.391 . S
C321 C322 1.392 . S
C321 H350 0.947 . S
C322 C321 1.392 . S
C322 C323 1.419 . S
C322 H351 0.948 . S
C323 C322 1.419 . S
C323 C324 1.393 . S
C323 C327 1.397 . S
C324 C319 1.391 1_545 S
C324 C323 1.393 . S
C324 C325 1.398 1_545 S
C325 C324 1.398 1_565 S
C325 C326 1.396 . S
C325 C328 1.453 . S
C325 C329 1.684 . S
C326 C307 1.723 . S
C326 C325 1.396 . S
C326 C327 1.394 1_565 S
C327 C323 1.397 . S
C327 C326 1.394 1_545 S
C327 C337 1.723 . S
C328 C325 1.453 . S
C328 H352 0.982 . S
C328 H353 0.979 . S
C328 H354 0.977 . S
C329 C325 1.684 . S
C329 H355 0.979 . S
C329 H356 0.980 . S
C329 H357 0.983 . S
C330 H306 0.948 . S
C330 C331 1.391 . S
C330 C335 1.391 . S
C331 C330 1.391 . S
C331 C332 1.391 . S
C332 H309 0.947 . S
C332 C331 1.391 . S
C332 C333 1.392 . S
C333 H310 0.948 . S
C333 C332 1.392 . S
C333 C334 1.419 . S
C334 C333 1.419 . S
C334 C335 1.391 . S
C334 C338 1.397 . S
C335 C330 1.391 . S
C335 C334 1.391 . S
C335 C336 1.399 . S
C336 C335 1.399 . S
C336 C337 1.396 . S
C336 C339 1.453 . S
C336 C340 1.684 . S
C337 C327 1.723 . S
C337 C336 1.396 . S
C337 C338 1.394 . S
C338 C308 1.723 . S
C338 C334 1.397 . S
C338 C337 1.394 . S
C339 H311 0.982 . S
C339 H315 0.979 . S
C339 H316 0.977 . S
C339 C336 1.453 . S
C340 H312 0.979 . S
C340 H313 0.980 . S
C340 H314 0.983 . S
C340 C336 1.684 . S
H341 C359 0.948 . S
H342 C300 0.948 . S
H343 C318 0.979 . S
H344 C318 0.980 1_545 S
H345 C318 0.983 . S
H346 C317 0.982 . S
H347 C317 0.979 . S
H348 C317 0.977 . S
H349 C319 0.948 . S
H350 C321 0.947 . S
H351 C322 0.948 . S
H352 C328 0.982 . S
H353 C328 0.979 . S
H354 C328 0.977 . S
H355 C329 0.979 . S
H356 C329 0.980 . S
H357 C329 0.983 . S
H358 C302 0.947 . S
C359 C302 1.392 . S
C359 C303 1.419 . S
C359 H341 0.948 . S
C360 C361 1.391 . S
C360 C364 1.391 . S
C360 H402 0.948 . S
C361 C360 1.391 . S
C361 C362 1.391 . S
C362 C361 1.391 . S
C362 H418 0.947 . S
C362 C419 1.392 . S
C363 C364 1.391 . S
C363 C367 1.397 . S
C363 C419 1.419 . S
C364 C360 1.391 . S
C364 C363 1.391 . S
C364 C365 1.399 . S
C365 C364 1.399 . S
C365 C368 1.396 . S
C365 C377 1.453 . S
C365 C378 1.684 . S
H366 C390 0.948 . S
C367 C363 1.397 . S
C367 C368 1.394 . S
C367 C386 1.723 . S
C368 C365 1.396 . S
C368 C367 1.394 . S
C368 C398 1.723 . S
H369 C392 0.947 . S
H370 C393 0.948 . S
H371 C399 0.982 . S
H372 C400 0.979 . S
H373 C400 0.980 . S
H374 C400 0.983 . S
H375 C399 0.979 . S
H376 C399 0.977 . S
C377 C365 1.453 . S
C377 H406 0.982 . S
C377 H407 0.979 . S
C377 H408 0.977 . S
C378 C365 1.684 . S
C378 H403 0.979 . S
C378 H404 0.980 . S
C378 H405 0.983 . S
C379 C380 1.391 . S
C379 C384 1.391 . S
C379 H409 0.948 . S
C380 C379 1.391 . S
C380 C381 1.391 . S
C381 C380 1.391 . S
C381 C382 1.392 . S
C381 H410 0.947 . S
C382 C381 1.392 . S
C382 C383 1.419 . S
C382 H411 0.948 . S
C383 C382 1.419 . S
C383 C384 1.391 . S
C383 C387 1.397 . S
C384 C379 1.391 . S
C384 C383 1.391 . S
C384 C385 1.399 . S
C385 C384 1.399 . S
C385 C386 1.396 . S
C385 C388 1.453 . S
C385 C389 1.684 . S
C386 C367 1.723 . S
C386 C385 1.396 . S
C386 C387 1.394 . S
C387 C383 1.397 . S
C387 C386 1.394 . S
C387 C397 1.723 . S
C388 C385 1.453 . S
C388 H412 0.982 . S
C388 H413 0.979 . S
C388 H414 0.977 . S
C389 C385 1.684 . S
C389 H415 0.979 . S
C389 H416 0.980 . S
C389 H417 0.983 . S
C390 H366 0.948 . S
C390 C391 1.391 . S
C390 C395 1.391 . S
C391 C390 1.391 . S
C391 C392 1.391 . S
C392 H369 0.947 . S
C392 C391 1.391 . S
C392 C393 1.392 . S
C393 H370 0.948 . S
C393 C392 1.392 . S
C393 C394 1.419 . S
C394 C393 1.419 . S
C394 C395 1.391 . S
C394 C398 1.397 . S
C395 C390 1.391 . S
C395 C394 1.391 . S
C395 C396 1.399 . S
C396 C395 1.399 . S
C396 C397 1.396 . S
C396 C399 1.453 . S
C396 C400 1.684 . S
C397 C387 1.723 . S
C397 C396 1.396 . S
C397 C398 1.394 . S
C398 C368 1.723 . S
C398 C394 1.397 . S
C398 C397 1.394 . S
C399 H371 0.982 . S
C399 H375 0.979 . S
C399 H376 0.977 . S
C399 C396 1.453 . S
C400 H372 0.979 . S
C400 H373 0.980 . S
C400 H374 0.983 . S
C400 C396 1.684 . S
H401 C419 0.948 . S
H402 C360 0.948 . S
H403 C378 0.979 . S
H404 C378 0.980 . S
H405 C378 0.983 . S
H406 C377 0.982 . S
H407 C377 0.979 . S
H408 C377 0.977 . S
H409 C379 0.948 . S
H410 C381 0.947 . S
H411 C382 0.948 . S
H412 C388 0.982 . S
H413 C388 0.979 . S
H414 C388 0.977 . S
H415 C389 0.979 . S
H416 C389 0.980 . S
H417 C389 0.983 . S
H418 C362 0.947 . S
C419 C362 1.392 . S
C419 C363 1.419 . S
C419 H401 0.948 . S
H420 C438 0.951 . S
H421 C440 0.951 . S
H422 C442 0.950 . S
H423 C443 0.950 . S
H424 C445 0.950 . S
H425 C448 0.950 . S
H426 C449 0.950 . S
H427 C451 0.950 . S
H428 C452 0.950 . S
H429 C453 0.951 . S
H430 C455 0.951 . S
H431 C457 0.950 . S
H432 C458 0.950 . S
H433 C460 0.950 . S
H434 C463 0.950 . S
H435 C464 0.950 . S
H436 C466 0.950 . S
H437 C467 0.950 . S
C438 H420 0.951 . S
C438 C439 1.366 . S
C438 C440 1.388 . S
C439 C438 1.366 . S
C439 C443 1.385 . S
C440 H421 0.951 . S
C440 C438 1.388 . S
C440 C441 1.366 . S
C441 C440 1.366 . S
C441 C442 1.414 . S
C441 C444 1.499 . S
C442 H422 0.950 . S
C442 C441 1.414 . S
C442 C443 1.374 . S
C443 H423 0.950 . S
C443 C439 1.385 . S
C443 C442 1.374 . S
C444 C441 1.499 . S
C444 C445 1.373 . S
C444 C446 1.389 . S
C445 H424 0.950 . S
C445 C444 1.373 . S
C445 C461 1.377 . S
C446 C444 1.389 . S
C446 C447 1.524 . S
C446 C460 1.377 . S
C447 C446 1.524 . S
C447 C448 1.397 . S
C447 C452 1.363 . S
C448 H425 0.950 . S
C448 C447 1.397 . S
C448 C449 1.334 . S
C449 H426 0.950 . S
C449 C448 1.334 . S
C449 C450 1.287 . S
C450 C449 1.287 . S
C450 C451 1.524 . S
C450 H469 0.913 . S
C451 H427 0.950 . S
C451 C450 1.524 . S
C451 C452 1.415 . S
C452 H428 0.950 . S
C452 C447 1.363 . S
C452 C451 1.415 . S
C453 H429 0.951 . S
C453 C454 1.366 . S
C453 C455 1.388 . S
C454 C453 1.366 . S
C454 C458 1.385 . S
C455 H430 0.951 . S
C455 C453 1.388 . S
C455 C456 1.366 . S
C456 C455 1.366 . S
C456 C457 1.414 . S
C456 C459 1.499 . S
C457 H431 0.950 . S
C457 C456 1.414 . S
C457 C458 1.374 . S
C458 H432 0.950 . S
C458 C454 1.385 . S
C458 C457 1.374 . S
C459 C456 1.499 . S
C459 C460 1.373 . S
C459 C461 1.389 . S
C460 H433 0.950 . S
C460 C446 1.377 . S
C460 C459 1.373 . S
C461 C445 1.377 . S
C461 C459 1.389 . S
C461 C462 1.524 . S
C462 C461 1.524 . S
C462 C463 1.397 . S
C462 C467 1.363 . S
C463 H434 0.950 . S
C463 C462 1.397 . S
C463 C464 1.334 . S
C464 H435 0.950 . S
C464 C463 1.334 . S
C464 C465 1.287 . S
C465 C464 1.287 . S
C465 C466 1.524 . S
C465 H468 0.999 . S
C466 H436 0.950 . S
C466 C465 1.524 . S
C466 C467 1.415 . S
C467 H437 0.950 . S
C467 C462 1.363 . S
C467 C466 1.415 . S
H468 C465 0.999 . S
H469 C450 0.913 . S
H470 C488 0.951 . S
H471 C490 0.951 . S
H472 C492 0.950 . S
H473 C493 0.950 . S
H474 C495 0.950 . S
H475 C498 0.950 . S
H476 C499 0.950 . S
H477 C501 0.950 . S
H478 C502 0.950 . S
H479 C503 0.951 . S
H480 C505 0.951 . S
H481 C507 0.950 . S
H482 C508 0.950 . S
H483 C510 0.950 . S
H484 C513 0.950 . S
H485 C514 0.950 . S
H486 C516 0.950 . S
H487 C517 0.950 . S
C488 H470 0.951 . S
C488 C489 1.366 . S
C488 C490 1.388 . S
C489 C488 1.366 . S
C489 C493 1.385 . S
C490 H471 0.951 . S
C490 C488 1.388 . S
C490 C491 1.366 . S
C491 C490 1.366 . S
C491 C492 1.414 . S
C491 C494 1.499 . S
C492 H472 0.950 . S
C492 C491 1.414 . S
C492 C493 1.374 . S
C493 H473 0.950 . S
C493 C489 1.385 . S
C493 C492 1.374 . S
C494 C491 1.499 . S
C494 C495 1.373 . S
C494 C496 1.389 . S
C495 H474 0.950 . S
C495 C494 1.373 . S
C495 C511 1.377 . S
C496 C494 1.389 . S
C496 C497 1.524 . S
C496 C510 1.377 . S
C497 C496 1.524 . S
C497 C498 1.397 . S
C497 C502 1.363 . S
C498 H475 0.950 . S
C498 C497 1.397 . S
C498 C499 1.334 . S
C499 H476 0.950 . S
C499 C498 1.334 . S
C499 C500 1.287 . S
C500 C499 1.287 . S
C500 C501 1.524 . S
C500 H519 0.913 . S
C501 H477 0.950 . S
C501 C500 1.524 . S
C501 C502 1.415 . S
C502 H478 0.950 . S
C502 C497 1.363 . S
C502 C501 1.415 . S
C503 H479 0.951 . S
C503 C504 1.366 . S
C503 C505 1.388 . S
C504 C503 1.366 . S
C504 C508 1.385 . S
C505 H480 0.951 . S
C505 C503 1.388 . S
C505 C506 1.366 . S
C506 C505 1.366 . S
C506 C507 1.414 . S
C506 C509 1.499 . S
C507 H481 0.950 . S
C507 C506 1.414 . S
C507 C508 1.374 . S
C508 H482 0.950 . S
C508 C504 1.385 . S
C508 C507 1.374 . S
C509 C506 1.499 . S
C509 C510 1.373 . S
C509 C511 1.389 . S
C510 H483 0.950 . S
C510 C496 1.377 . S
C510 C509 1.373 . S
C511 C495 1.377 . S
C511 C509 1.389 . S
C511 C512 1.524 . S
C512 C511 1.524 . S
C512 C513 1.397 . S
C512 C517 1.363 . S
C513 H484 0.950 . S
C513 C512 1.397 . S
C513 C514 1.334 . S
C514 H485 0.950 . S
C514 C513 1.334 . S
C514 C515 1.287 . S
C515 C514 1.287 . S
C515 C516 1.524 . S
C515 H518 0.999 . S
C516 H486 0.950 . S
C516 C515 1.524 . S
C516 C517 1.415 . S
C517 H487 0.950 . S
C517 C512 1.363 . S
C517 C516 1.415 . S
H518 C515 0.999 . S
H519 C500 0.913 . S
H520 C538 0.951 . S
H521 C540 0.951 . S
H522 C542 0.950 . S
H523 C543 0.950 . S
H524 C545 0.950 . S
H525 C548 0.950 . S
H526 C549 0.950 . S
H527 C551 0.950 . S
H528 C552 0.950 . S
H529 C553 0.951 . S
H530 C555 0.951 . S
H531 C557 0.950 . S
H532 C558 0.950 . S
H533 C560 0.950 . S
H534 C563 0.950 . S
H535 C564 0.950 . S
H536 C566 0.950 . S
H537 C567 0.950 . S
C538 H520 0.951 . S
C538 C539 1.366 . S
C538 C540 1.388 . S
C539 C538 1.366 . S
C539 C543 1.385 . S
C540 H521 0.951 . S
C540 C538 1.388 . S
C540 C541 1.366 . S
C541 C540 1.366 . S
C541 C542 1.414 . S
C541 C544 1.499 . S
C542 H522 0.950 . S
C542 C541 1.414 . S
C542 C543 1.374 . S
C543 H523 0.950 . S
C543 C539 1.385 . S
C543 C542 1.374 . S
C544 C541 1.499 . S
C544 C545 1.373 . S
C544 C546 1.389 . S
C545 H524 0.950 . S
C545 C544 1.373 . S
C545 C561 1.377 . S
C546 C544 1.389 . S
C546 C547 1.524 . S
C546 C560 1.377 . S
C547 C546 1.524 . S
C547 C548 1.397 . S
C547 C552 1.363 . S
C548 H525 0.950 . S
C548 C547 1.397 . S
C548 C549 1.334 . S
C549 H526 0.950 . S
C549 C548 1.334 . S
C549 C550 1.287 . S
C550 C549 1.287 . S
C550 C551 1.524 . S
C550 H569 0.913 . S
C551 H527 0.950 . S
C551 C550 1.524 . S
C551 C552 1.415 . S
C552 H528 0.950 . S
C552 C547 1.363 . S
C552 C551 1.415 . S
C553 H529 0.951 . S
C553 C554 1.366 . S
C553 C555 1.388 . S
C554 C553 1.366 . S
C554 C558 1.385 . S
C555 H530 0.951 . S
C555 C553 1.388 . S
C555 C556 1.366 . S
C556 C555 1.366 . S
C556 C557 1.414 . S
C556 C559 1.499 . S
C557 H531 0.950 . S
C557 C556 1.414 . S
C557 C558 1.374 . S
C558 H532 0.950 . S
C558 C554 1.385 . S
C558 C557 1.374 . S
C559 C556 1.499 . S
C559 C560 1.373 . S
C559 C561 1.389 . S
C560 H533 0.950 . S
C560 C546 1.377 . S
C560 C559 1.373 . S
C561 C545 1.377 . S
C561 C559 1.389 . S
C561 C562 1.524 . S
C562 C561 1.524 . S
C562 C563 1.397 . S
C562 C567 1.363 . S
C563 H534 0.950 . S
C563 C562 1.397 . S
C563 C564 1.334 . S
C564 H535 0.950 . S
C564 C563 1.334 . S
C564 C565 1.287 . S
C565 C564 1.287 . S
C565 C566 1.524 . S
C565 H568 0.999 . S
C566 H536 0.950 . S
C566 C565 1.524 . S
C566 C567 1.415 . S
C567 H537 0.950 . S
C567 C562 1.363 . S
C567 C566 1.415 . S
H568 C565 0.999 . S
H569 C550 0.913 . S
H570 C588 0.951 . S
H571 C590 0.951 . S
H572 C592 0.950 . S
H573 C593 0.950 . S
H574 C595 0.950 . S
H575 C598 0.950 . S
H576 C599 0.950 . S
H577 C601 0.950 . S
H578 C602 0.950 . S
H579 C603 0.951 . S
H580 C605 0.951 . S
H581 C607 0.950 . S
H582 C608 0.950 . S
H583 C610 0.950 . S
H584 C613 0.950 . S
H585 C614 0.950 . S
H586 C616 0.950 . S
H587 C617 0.950 . S
C588 H570 0.951 . S
C588 C589 1.366 . S
C588 C590 1.388 . S
C589 C588 1.366 . S
C589 C593 1.385 . S
C590 H571 0.951 . S
C590 C588 1.388 . S
C590 C591 1.366 . S
C591 C590 1.366 . S
C591 C592 1.414 . S
C591 C594 1.499 . S
C592 H572 0.950 . S
C592 C591 1.414 . S
C592 C593 1.374 . S
C593 H573 0.950 . S
C593 C589 1.385 . S
C593 C592 1.374 . S
C594 C591 1.499 . S
C594 C595 1.373 . S
C594 C596 1.389 . S
C595 H574 0.950 . S
C595 C594 1.373 . S
C595 C611 1.377 . S
C596 C594 1.389 . S
C596 C597 1.524 . S
C596 C610 1.377 . S
C597 C596 1.524 . S
C597 C598 1.397 . S
C597 C602 1.363 . S
C598 H575 0.950 . S
C598 C597 1.397 . S
C598 C599 1.334 . S
C599 H576 0.950 . S
C599 C598 1.334 . S
C599 C600 1.287 . S
C600 C599 1.287 . S
C600 C601 1.524 . S
C600 H619 0.913 . S
C601 H577 0.950 . S
C601 C600 1.524 . S
C601 C602 1.415 . S
C602 H578 0.950 . S
C602 C597 1.363 . S
C602 C601 1.415 . S
C603 H579 0.951 . S
C603 C604 1.366 . S
C603 C605 1.388 . S
C604 C603 1.366 . S
C604 C608 1.385 . S
C605 H580 0.951 . S
C605 C603 1.388 . S
C605 C606 1.366 . S
C606 C605 1.366 . S
C606 C607 1.414 . S
C606 C609 1.499 . S
C607 H581 0.950 . S
C607 C606 1.414 . S
C607 C608 1.374 . S
C608 H582 0.950 . S
C608 C604 1.385 . S
C608 C607 1.374 . S
C609 C606 1.499 . S
C609 C610 1.373 . S
C609 C611 1.389 . S
C610 H583 0.950 . S
C610 C596 1.377 . S
C610 C609 1.373 . S
C611 C595 1.377 . S
C611 C609 1.389 . S
C611 C612 1.524 . S
C612 C611 1.524 . S
C612 C613 1.397 . S
C612 C617 1.363 . S
C613 H584 0.950 . S
C613 C612 1.397 . S
C613 C614 1.334 . S
C614 H585 0.950 . S
C614 C613 1.334 . S
C614 C615 1.287 . S
C615 C614 1.287 . S
C615 C616 1.524 . S
C615 H618 0.999 . S
C616 H586 0.950 . S
C616 C615 1.524 . S
C616 C617 1.415 . S
C617 H587 0.950 . S
C617 C612 1.363 . S
C617 C616 1.415 . S
H618 C615 0.999 . S
H619 C600 0.913 . S
H620 C638 0.951 . S
H621 C640 0.951 . S
H622 C642 0.950 . S
H623 C643 0.950 . S
H624 C645 0.950 . S
H625 C648 0.950 . S
H626 C649 0.950 . S
H627 C651 0.950 . S
H628 C652 0.950 . S
H629 C653 0.951 . S
H630 C655 0.951 . S
H631 C657 0.950 . S
H632 C658 0.950 . S
H633 C660 0.950 . S
H634 C663 0.950 . S
H635 C664 0.950 . S
H636 C666 0.950 . S
H637 C667 0.950 . S
C638 H620 0.951 . S
C638 C639 1.366 . S
C638 C640 1.388 . S
C639 C638 1.366 . S
C639 C643 1.385 . S
C640 H621 0.951 . S
C640 C638 1.388 . S
C640 C641 1.366 . S
C641 C640 1.366 . S
C641 C642 1.414 . S
C641 C644 1.499 . S
C642 H622 0.950 . S
C642 C641 1.414 . S
C642 C643 1.374 . S
C643 H623 0.950 . S
C643 C639 1.385 . S
C643 C642 1.374 . S
C644 C641 1.499 . S
C644 C645 1.373 . S
C644 C646 1.389 . S
C645 H624 0.950 . S
C645 C644 1.373 . S
C645 C661 1.377 . S
C646 C644 1.389 . S
C646 C647 1.524 . S
C646 C660 1.377 . S
C647 C646 1.524 . S
C647 C648 1.397 . S
C647 C652 1.363 . S
C648 H625 0.950 . S
C648 C647 1.397 . S
C648 C649 1.334 . S
C649 H626 0.950 . S
C649 C648 1.334 . S
C649 C650 1.287 . S
C650 C649 1.287 . S
C650 C651 1.524 . S
C650 H669 0.913 . S
C651 H627 0.950 . S
C651 C650 1.524 . S
C651 C652 1.415 . S
C652 H628 0.950 . S
C652 C647 1.363 . S
C652 C651 1.415 . S
C653 H629 0.951 . S
C653 C654 1.366 . S
C653 C655 1.388 . S
C654 C653 1.366 . S
C654 C658 1.385 . S
C655 H630 0.951 . S
C655 C653 1.388 . S
C655 C656 1.366 . S
C656 C655 1.366 . S
C656 C657 1.414 . S
C656 C659 1.499 . S
C657 H631 0.950 . S
C657 C656 1.414 . S
C657 C658 1.374 . S
C658 H632 0.950 . S
C658 C654 1.385 . S
C658 C657 1.374 . S
C659 C656 1.499 . S
C659 C660 1.373 . S
C659 C661 1.389 . S
C660 H633 0.950 . S
C660 C646 1.377 . S
C660 C659 1.373 . S
C661 C645 1.377 . S
C661 C659 1.389 . S
C661 C662 1.524 . S
C662 C661 1.524 . S
C662 C663 1.397 . S
C662 C667 1.363 . S
C663 H634 0.950 . S
C663 C662 1.397 . S
C663 C664 1.334 . S
C664 H635 0.950 . S
C664 C663 1.334 . S
C664 C665 1.287 . S
C665 C664 1.287 . S
C665 C666 1.524 . S
C665 H668 0.999 . S
C666 H636 0.950 . S
C666 C665 1.524 . S
C666 C667 1.415 . S
C667 H637 0.950 . S
C667 C662 1.363 . S
C667 C666 1.415 . S
H668 C665 0.999 . S
H669 C650 0.913 . S
H670 C688 0.951 . S
H671 C690 0.951 . S
H672 C692 0.950 . S
H673 C693 0.950 . S
H674 C695 0.950 . S
H675 C698 0.950 . S
H676 C699 0.950 . S
H677 C701 0.950 . S
H678 C702 0.950 . S
H679 C703 0.951 . S
H680 C705 0.951 . S
H681 C707 0.950 . S
H682 C708 0.950 . S
H683 C710 0.950 . S
H684 C713 0.950 . S
H685 C714 0.950 . S
H686 C716 0.950 . S
H687 C717 0.950 . S
C688 H670 0.951 . S
C688 C689 1.366 . S
C688 C690 1.388 . S
C689 C688 1.366 . S
C689 C693 1.385 . S
C690 H671 0.951 . S
C690 C688 1.388 . S
C690 C691 1.366 . S
C691 C690 1.366 . S
C691 C692 1.414 . S
C691 C694 1.499 . S
C692 H672 0.950 . S
C692 C691 1.414 . S
C692 C693 1.374 . S
C693 H673 0.950 . S
C693 C689 1.385 . S
C693 C692 1.374 . S
C694 C691 1.499 . S
C694 C695 1.373 . S
C694 C696 1.389 . S
C695 H674 0.950 . S
C695 C694 1.373 . S
C695 C711 1.377 . S
C696 C694 1.389 . S
C696 C697 1.524 . S
C696 C710 1.377 . S
C697 C696 1.524 . S
C697 C698 1.397 . S
C697 C702 1.363 . S
C698 H675 0.950 . S
C698 C697 1.397 . S
C698 C699 1.334 . S
C699 H676 0.950 . S
C699 C698 1.334 . S
C699 C700 1.287 . S
C700 C699 1.287 . S
C700 C701 1.524 . S
C700 H719 0.913 . S
C701 H677 0.950 . S
C701 C700 1.524 . S
C701 C702 1.415 . S
C702 H678 0.950 . S
C702 C697 1.363 . S
C702 C701 1.415 . S
C703 H679 0.951 . S
C703 C704 1.366 . S
C703 C705 1.388 . S
C704 C703 1.366 . S
C704 C708 1.385 . S
C705 H680 0.951 . S
C705 C703 1.388 . S
C705 C706 1.366 . S
C706 C705 1.366 . S
C706 C707 1.414 . S
C706 C709 1.499 . S
C707 H681 0.950 . S
C707 C706 1.414 . S
C707 C708 1.374 . S
C708 H682 0.950 . S
C708 C704 1.385 . S
C708 C707 1.374 . S
C709 C706 1.499 . S
C709 C710 1.373 . S
C709 C711 1.389 . S
C710 H683 0.950 . S
C710 C696 1.377 . S
C710 C709 1.373 . S
C711 C695 1.377 . S
C711 C709 1.389 . S
C711 C712 1.524 . S
C712 C711 1.524 . S
C712 C713 1.397 . S
C712 C717 1.363 . S
C713 H684 0.950 . S
C713 C712 1.397 . S
C713 C714 1.334 . S
C714 H685 0.950 . S
C714 C713 1.334 . S
C714 C715 1.287 . S
C715 C714 1.287 . S
C715 C716 1.524 . S
C715 H718 0.999 . S
C716 H686 0.950 . S
C716 C715 1.524 . S
C716 C717 1.415 . S
C717 H687 0.950 . S
C717 C712 1.363 . S
C717 C716 1.415 . S
H718 C715 0.999 . S
H719 C700 0.913 . S
H720 C738 0.951 . S
H721 C740 0.951 . S
H722 C742 0.950 . S
H723 C743 0.950 . S
H724 C745 0.950 . S
H725 C748 0.950 . S
H726 C749 0.950 . S
H727 C751 0.950 . S
H728 C752 0.950 . S
H729 C753 0.951 . S
H730 C755 0.951 . S
H731 C757 0.950 . S
H732 C758 0.950 . S
H733 C760 0.950 . S
H734 C763 0.950 . S
H735 C764 0.950 . S
H736 C766 0.950 . S
H737 C767 0.950 . S
C738 H720 0.951 . S
C738 C739 1.366 . S
C738 C740 1.388 . S
C739 C738 1.366 . S
C739 C743 1.385 . S
C740 H721 0.951 . S
C740 C738 1.388 . S
C740 C741 1.366 . S
C741 C740 1.366 . S
C741 C742 1.414 . S
C741 C744 1.499 . S
C742 H722 0.950 . S
C742 C741 1.414 . S
C742 C743 1.374 . S
C743 H723 0.950 . S
C743 C739 1.385 . S
C743 C742 1.374 . S
C744 C741 1.499 . S
C744 C745 1.373 . S
C744 C746 1.389 . S
C745 H724 0.950 . S
C745 C744 1.373 . S
C745 C761 1.377 . S
C746 C744 1.389 . S
C746 C747 1.524 . S
C746 C760 1.377 . S
C747 C746 1.524 . S
C747 C748 1.397 . S
C747 C752 1.363 . S
C748 H725 0.950 . S
C748 C747 1.397 . S
C748 C749 1.334 . S
C749 H726 0.950 . S
C749 C748 1.334 . S
C749 C750 1.287 . S
C750 C749 1.287 . S
C750 C751 1.524 . S
C750 H769 0.913 . S
C751 H727 0.950 . S
C751 C750 1.524 . S
C751 C752 1.415 . S
C752 H728 0.950 . S
C752 C747 1.363 . S
C752 C751 1.415 . S
C753 H729 0.951 . S
C753 C754 1.366 . S
C753 C755 1.388 . S
C754 C753 1.366 . S
C754 C758 1.385 . S
C755 H730 0.951 . S
C755 C753 1.388 . S
C755 C756 1.366 . S
C756 C755 1.366 . S
C756 C757 1.414 . S
C756 C759 1.499 . S
C757 H731 0.950 . S
C757 C756 1.414 . S
C757 C758 1.374 . S
C758 H732 0.950 . S
C758 C754 1.385 . S
C758 C757 1.374 . S
C759 C756 1.499 . S
C759 C760 1.373 . S
C759 C761 1.389 . S
C760 H733 0.950 . S
C760 C746 1.377 . S
C760 C759 1.373 . S
C761 C745 1.377 . S
C761 C759 1.389 . S
C761 C762 1.524 . S
C762 C761 1.524 . S
C762 C763 1.397 . S
C762 C767 1.363 . S
C763 H734 0.950 . S
C763 C762 1.397 . S
C763 C764 1.334 . S
C764 H735 0.950 . S
C764 C763 1.334 . S
C764 C765 1.287 . S
C765 C764 1.287 . S
C765 C766 1.524 . S
C765 H768 0.999 . S
C766 H736 0.950 . S
C766 C765 1.524 . S
C766 C767 1.415 . S
C767 H737 0.950 . S
C767 C762 1.363 . S
C767 C766 1.415 . S
H768 C765 0.999 . S
H769 C750 0.913 . S
H770 C788 0.951 . S
H771 C790 0.951 . S
H772 C792 0.950 . S
H773 C793 0.950 . S
H774 C795 0.950 . S
H775 C798 0.950 . S
H776 C799 0.950 . S
H777 C801 0.950 . S
H778 C802 0.950 . S
H779 C803 0.951 . S
H780 C805 0.951 . S
H781 C807 0.950 . S
H782 C808 0.950 . S
H783 C810 0.950 . S
H784 C813 0.950 . S
H785 C814 0.950 . S
H786 C816 0.950 . S
H787 C817 0.950 . S
C788 H770 0.951 . S
C788 C789 1.366 . S
C788 C790 1.388 . S
C789 C788 1.366 . S
C789 C793 1.385 . S
C790 H771 0.951 . S
C790 C788 1.388 . S
C790 C791 1.366 . S
C791 C790 1.366 . S
C791 C792 1.414 . S
C791 C794 1.499 . S
C792 H772 0.950 . S
C792 C791 1.414 . S
C792 C793 1.374 . S
C793 H773 0.950 . S
C793 C789 1.385 . S
C793 C792 1.374 . S
C794 C791 1.499 . S
C794 C795 1.373 . S
C794 C796 1.389 . S
C795 H774 0.950 . S
C795 C794 1.373 . S
C795 C811 1.377 . S
C796 C794 1.389 . S
C796 C797 1.524 . S
C796 C810 1.377 . S
C797 C796 1.524 . S
C797 C798 1.397 . S
C797 C802 1.363 . S
C798 H775 0.950 . S
C798 C797 1.397 . S
C798 C799 1.334 . S
C799 H776 0.950 . S
C799 C798 1.334 . S
C799 C800 1.287 . S
C800 C799 1.287 . S
C800 C801 1.524 . S
C800 H819 0.913 . S
C801 H777 0.950 . S
C801 C800 1.524 . S
C801 C802 1.415 . S
C802 H778 0.950 . S
C802 C797 1.363 . S
C802 C801 1.415 . S
C803 H779 0.951 . S
C803 C804 1.366 . S
C803 C805 1.388 . S
C804 C803 1.366 . S
C804 C808 1.385 . S
C805 H780 0.951 . S
C805 C803 1.388 . S
C805 C806 1.366 . S
C806 C805 1.366 . S
C806 C807 1.414 . S
C806 C809 1.499 . S
C807 H781 0.950 . S
C807 C806 1.414 . S
C807 C808 1.374 . S
C808 H782 0.950 . S
C808 C804 1.385 . S
C808 C807 1.374 . S
C809 C806 1.499 . S
C809 C810 1.373 . S
C809 C811 1.389 . S
C810 H783 0.950 . S
C810 C796 1.377 . S
C810 C809 1.373 . S
C811 C795 1.377 . S
C811 C809 1.389 . S
C811 C812 1.524 . S
C812 C811 1.524 . S
C812 C813 1.397 . S
C812 C817 1.363 . S
C813 H784 0.950 . S
C813 C812 1.397 . S
C813 C814 1.334 . S
C814 H785 0.950 . S
C814 C813 1.334 . S
C814 C815 1.287 . S
C815 C814 1.287 . S
C815 C816 1.524 . S
C815 H818 0.999 . S
C816 H786 0.950 . S
C816 C815 1.524 . S
C816 C817 1.415 . S
C817 H787 0.950 . S
C817 C812 1.363 . S
C817 C816 1.415 . S
H818 C815 0.999 . S
H819 C800 0.913 . S
H820 C838 0.951 . S
H821 C840 0.951 . S
H822 C842 0.950 . S
H823 C843 0.950 . S
H824 C845 0.950 . S
H825 C848 0.950 . S
H826 C849 0.950 . S
H827 C851 0.950 . S
H828 C852 0.950 . S
H829 C853 0.951 . S
H830 C855 0.951 . S
H831 C857 0.950 . S
H832 C858 0.950 . S
H833 C860 0.950 . S
H834 C863 0.950 . S
H835 C864 0.950 . S
H836 C866 0.950 . S
H837 C867 0.950 . S
C838 H820 0.951 . S
C838 C839 1.366 . S
C838 C840 1.388 . S
C839 C838 1.366 . S
C839 C843 1.385 . S
C840 H821 0.951 . S
C840 C838 1.388 . S
C840 C841 1.366 . S
C841 C840 1.366 . S
C841 C842 1.414 . S
C841 C844 1.499 . S
C842 H822 0.950 . S
C842 C841 1.414 . S
C842 C843 1.374 . S
C843 H823 0.950 . S
C843 C839 1.385 . S
C843 C842 1.374 . S
C844 C841 1.499 . S
C844 C845 1.373 . S
C844 C846 1.389 . S
C845 H824 0.950 . S
C845 C844 1.373 . S
C845 C861 1.377 . S
C846 C844 1.389 . S
C846 C847 1.524 . S
C846 C860 1.377 . S
C847 C846 1.524 . S
C847 C848 1.397 . S
C847 C852 1.363 . S
C848 H825 0.950 . S
C848 C847 1.397 . S
C848 C849 1.334 . S
C849 H826 0.950 . S
C849 C848 1.334 . S
C849 C850 1.287 . S
C850 C849 1.287 . S
C850 C851 1.524 . S
C850 H869 0.913 . S
C851 H827 0.950 . S
C851 C850 1.524 . S
C851 C852 1.415 . S
C852 H828 0.950 . S
C852 C847 1.363 . S
C852 C851 1.415 . S
C853 H829 0.951 . S
C853 C854 1.366 . S
C853 C855 1.388 . S
C854 C853 1.366 . S
C854 C858 1.385 . S
C855 H830 0.951 . S
C855 C853 1.388 . S
C855 C856 1.366 . S
C856 C855 1.366 . S
C856 C857 1.414 . S
C856 C859 1.499 . S
C857 H831 0.950 . S
C857 C856 1.414 . S
C857 C858 1.374 . S
C858 H832 0.950 . S
C858 C854 1.385 . S
C858 C857 1.374 . S
C859 C856 1.499 . S
C859 C860 1.373 . S
C859 C861 1.389 . S
C860 H833 0.950 . S
C860 C846 1.377 . S
C860 C859 1.373 . S
C861 C845 1.377 . S
C861 C859 1.389 . S
C861 C862 1.524 . S
C862 C861 1.524 . S
C862 C863 1.397 . S
C862 C867 1.363 . S
C863 H834 0.950 . S
C863 C862 1.397 . S
C863 C864 1.334 . S
C864 H835 0.950 . S
C864 C863 1.334 . S
C864 C865 1.287 . S
C865 C864 1.287 . S
C865 C866 1.524 . S
C865 H868 0.999 . S
C866 H836 0.950 . S
C866 C865 1.524 . S
C866 C867 1.415 . S
C867 H837 0.950 . S
C867 C862 1.363 . S
C867 C866 1.415 . S
H868 C865 0.999 . S
H869 C850 0.913 . S
H870 C888 0.951 . S
H871 C890 0.951 . S
H872 C892 0.950 . S
H873 C893 0.950 . S
H874 C895 0.950 . S
H875 C898 0.950 . S
H876 C899 0.950 . S
H877 C901 0.950 . S
H878 C902 0.950 . S
H879 C903 0.951 . S
H880 C905 0.951 . S
H881 C907 0.950 . S
H882 C908 0.950 . S
H883 C910 0.950 . S
H884 C913 0.950 . S
H885 C914 0.950 . S
H886 C916 0.950 . S
H887 C917 0.950 . S
C888 H870 0.951 . S
C888 C889 1.366 . S
C888 C890 1.388 . S
C889 C888 1.366 . S
C889 C893 1.385 . S
C890 H871 0.951 . S
C890 C888 1.388 . S
C890 C891 1.366 . S
C891 C890 1.366 . S
C891 C892 1.414 . S
C891 C894 1.499 . S
C892 H872 0.950 . S
C892 C891 1.414 . S
C892 C893 1.374 . S
C893 H873 0.950 . S
C893 C889 1.385 . S
C893 C892 1.374 . S
C894 C891 1.499 . S
C894 C895 1.373 . S
C894 C896 1.389 . S
C895 H874 0.950 . S
C895 C894 1.373 . S
C895 C911 1.377 . S
C896 C894 1.389 . S
C896 C897 1.524 . S
C896 C910 1.377 . S
C897 C896 1.524 . S
C897 C898 1.397 . S
C897 C902 1.363 . S
C898 H875 0.950 . S
C898 C897 1.397 . S
C898 C899 1.334 . S
C899 H876 0.950 . S
C899 C898 1.334 . S
C899 C900 1.287 . S
C900 C899 1.287 . S
C900 C901 1.524 . S
C900 H919 0.913 . S
C901 H877 0.950 . S
C901 C900 1.524 . S
C901 C902 1.415 . S
C902 H878 0.950 . S
C902 C897 1.363 . S
C902 C901 1.415 . S
C903 H879 0.951 . S
C903 C904 1.366 . S
C903 C905 1.388 . S
C904 C903 1.366 . S
C904 C908 1.385 . S
C905 H880 0.951 . S
C905 C903 1.388 . S
C905 C906 1.366 . S
C906 C905 1.366 . S
C906 C907 1.414 . S
C906 C909 1.499 . S
C907 H881 0.950 . S
C907 C906 1.414 . S
C907 C908 1.374 . S
C908 H882 0.950 . S
C908 C904 1.385 . S
C908 C907 1.374 . S
C909 C906 1.499 . S
C909 C910 1.373 . S
C909 C911 1.389 . S
C910 H883 0.950 . S
C910 C896 1.377 . S
C910 C909 1.373 . S
C911 C895 1.377 . S
C911 C909 1.389 . S
C911 C912 1.524 . S
C912 C911 1.524 . S
C912 C913 1.397 . S
C912 C917 1.363 . S
C913 H884 0.950 . S
C913 C912 1.397 . S
C913 C914 1.334 . S
C914 H885 0.950 . S
C914 C913 1.334 . S
C914 C915 1.287 . S
C915 C914 1.287 . S
C915 C916 1.524 . S
C915 H918 0.999 . S
C916 H886 0.950 . S
C916 C915 1.524 . S
C916 C917 1.415 . S
C917 H887 0.950 . S
C917 C912 1.363 . S
C917 C916 1.415 . S
H918 C915 0.999 . S
H919 C900 0.913 . S
H920 C938 0.951 . S
H921 C940 0.951 . S
H922 C942 0.950 . S
H923 C943 0.950 . S
H924 C945 0.950 . S
H925 C948 0.950 . S
H926 C949 0.950 . S
H927 C951 0.950 . S
H928 C952 0.950 . S
H929 C953 0.951 . S
H930 C955 0.951 . S
H931 C957 0.950 . S
H932 C958 0.950 . S
H933 C960 0.950 . S
H934 C963 0.950 . S
H935 C964 0.950 . S
H936 C966 0.950 . S
H937 C967 0.950 . S
C938 H920 0.951 . S
C938 C939 1.366 . S
C938 C940 1.388 . S
C939 C938 1.366 . S
C939 C943 1.385 . S
C940 H921 0.951 . S
C940 C938 1.388 . S
C940 C941 1.366 . S
C941 C940 1.366 . S
C941 C942 1.414 . S
C941 C944 1.499 . S
C942 H922 0.950 . S
C942 C941 1.414 . S
C942 C943 1.374 . S
C943 H923 0.950 . S
C943 C939 1.385 . S
C943 C942 1.374 . S
C944 C941 1.499 . S
C944 C945 1.373 . S
C944 C946 1.389 . S
C945 H924 0.950 . S
C945 C944 1.373 . S
C945 C961 1.377 . S
C946 C944 1.389 . S
C946 C947 1.524 . S
C946 C960 1.377 . S
C947 C946 1.524 . S
C947 C948 1.397 . S
C947 C952 1.363 . S
C948 H925 0.950 . S
C948 C947 1.397 . S
C948 C949 1.334 . S
C949 H926 0.950 . S
C949 C948 1.334 . S
C949 C950 1.287 . S
C950 C949 1.287 . S
C950 C951 1.524 . S
C950 H969 0.913 . S
C951 H927 0.950 . S
C951 C950 1.524 . S
C951 C952 1.415 . S
C952 H928 0.950 . S
C952 C947 1.363 . S
C952 C951 1.415 . S
C953 H929 0.951 . S
C953 C954 1.366 . S
C953 C955 1.388 . S
C954 C953 1.366 . S
C954 C958 1.385 . S
C955 H930 0.951 . S
C955 C953 1.388 . S
C955 C956 1.366 . S
C956 C955 1.366 . S
C956 C957 1.414 . S
C956 C959 1.499 . S
C957 H931 0.950 . S
C957 C956 1.414 . S
C957 C958 1.374 . S
C958 H932 0.950 . S
C958 C954 1.385 . S
C958 C957 1.374 . S
C959 C956 1.499 . S
C959 C960 1.373 . S
C959 C961 1.389 . S
C960 H933 0.950 . S
C960 C946 1.377 . S
C960 C959 1.373 . S
C961 C945 1.377 . S
C961 C959 1.389 . S
C961 C962 1.524 . S
C962 C961 1.524 . S
C962 C963 1.397 . S
C962 C967 1.363 . S
C963 H934 0.950 . S
C963 C962 1.397 . S
C963 C964 1.334 . S
C964 H935 0.950 . S
C964 C963 1.334 . S
C964 C965 1.287 . S
C965 C964 1.287 . S
C965 C966 1.524 . S
C965 H968 0.999 . S
C966 H936 0.950 . S
C966 C965 1.524 . S
C966 C967 1.415 . S
C967 H937 0.950 . S
C967 C962 1.363 . S
C967 C966 1.415 . S
H968 C965 0.999 . S
H969 C950 0.913 . S
H970 C988 0.951 . S
H971 C990 0.951 . S
H972 C992 0.950 . S
H973 C993 0.950 . S
H974 C995 0.950 . S
H975 C998 0.950 . S
H976 C999 0.950 . S
H977 C1001 0.950 . S
H978 C1002 0.950 . S
H979 C1003 0.951 . S
H980 C1005 0.951 . S
H981 C1007 0.950 . S
H982 C1008 0.950 . S
H983 C1010 0.950 . S
H984 C1013 0.950 . S
H985 C1014 0.950 . S
H986 C1016 0.950 . S
H987 C1017 0.950 . S
C988 H970 0.951 . S
C988 C989 1.366 . S
C988 C990 1.388 . S
C989 C988 1.366 . S
C989 C993 1.385 . S
C990 H971 0.951 . S
C990 C988 1.388 . S
C990 C991 1.366 . S
C991 C990 1.366 . S
C991 C992 1.414 . S
C991 C994 1.499 . S
C992 H972 0.950 . S
C992 C991 1.414 . S
C992 C993 1.374 . S
C993 H973 0.950 . S
C993 C989 1.385 . S
C993 C992 1.374 . S
C994 C991 1.499 . S
C994 C995 1.373 . S
C994 C996 1.389 . S
C995 H974 0.950 . S
C995 C994 1.373 . S
C995 C1011 1.377 . S
C996 C994 1.389 . S
C996 C997 1.524 . S
C996 C1010 1.377 . S
C997 C996 1.524 . S
C997 C998 1.397 . S
C997 C1002 1.363 . S
C998 H975 0.950 . S
C998 C997 1.397 . S
C998 C999 1.334 . S
C999 H976 0.950 . S
C999 C998 1.334 . S
C999 C1000 1.287 . S
C1000 C999 1.287 . S
C1000 C1001 1.524 . S
C1000 H1019 0.913 . S
C1001 H977 0.950 . S
C1001 C1000 1.524 . S
C1001 C1002 1.415 . S
C1002 H978 0.950 . S
C1002 C997 1.363 . S
C1002 C1001 1.415 . S
C1003 H979 0.951 . S
C1003 C1004 1.366 . S
C1003 C1005 1.388 . S
C1004 C1003 1.366 . S
C1004 C1008 1.385 . S
C1005 H980 0.951 . S
C1005 C1003 1.388 . S
C1005 C1006 1.366 . S
C1006 C1005 1.366 . S
C1006 C1007 1.414 . S
C1006 C1009 1.499 . S
C1007 H981 0.950 . S
C1007 C1006 1.414 . S
C1007 C1008 1.374 . S
C1008 H982 0.950 . S
C1008 C1004 1.385 . S
C1008 C1007 1.374 . S
C1009 C1006 1.499 . S
C1009 C1010 1.373 . S
C1009 C1011 1.389 . S
C1010 H983 0.950 . S
C1010 C996 1.377 . S
C1010 C1009 1.373 . S
C1011 C995 1.377 . S
C1011 C1009 1.389 . S
C1011 C1012 1.524 . S
C1012 C1011 1.524 . S
C1012 C1013 1.397 . S
C1012 C1017 1.363 . S
C1013 H984 0.950 . S
C1013 C1012 1.397 . S
C1013 C1014 1.334 . S
C1014 H985 0.950 . S
C1014 C1013 1.334 . S
C1014 C1015 1.287 . S
C1015 C1014 1.287 . S
C1015 C1016 1.524 . S
C1015 H1018 0.999 . S
C1016 H986 0.950 . S
C1016 C1015 1.524 . S
C1016 C1017 1.415 . S
C1017 H987 0.950 . S
C1017 C1012 1.363 . S
C1017 C1016 1.415 . S
H1018 C1015 0.999 . S
H1019 C1000 0.913 . S
H1020 C1038 0.951 . S
H1021 C1040 0.951 . S
H1022 C1042 0.950 . S
H1023 C1043 0.950 . S
H1024 C1045 0.950 . S
H1025 C1048 0.950 . S
H1026 C1049 0.950 . S
H1027 C1051 0.950 . S
H1028 C1052 0.950 . S
H1029 C1053 0.951 1_655 S
H1030 C1055 0.951 1_655 S
H1031 C1057 0.950 . S
H1032 C1058 0.950 . S
H1033 C1060 0.950 . S
H1034 C1063 0.950 . S
H1035 C1064 0.950 . S
H1036 C1066 0.941 1_655 S
H1037 C1067 0.950 . S
C1038 H1020 0.951 . S
C1038 C1039 1.366 . S
C1038 C1040 1.388 . S
C1039 C1038 1.366 . S
C1039 C1043 1.385 1_455 S
C1040 H1021 0.951 . S
C1040 C1038 1.388 . S
C1040 C1041 1.366 . S
C1041 C1040 1.366 . S
C1041 C1042 1.414 1_455 S
C1041 C1044 1.499 . S
C1042 H1022 0.950 . S
C1042 C1041 1.414 1_655 S
C1042 C1043 1.374 . S
C1043 H1023 0.950 . S
C1043 C1039 1.385 1_655 S
C1043 C1042 1.374 . S
C1044 C1041 1.499 . S
C1044 C1045 1.373 . S
C1044 C1046 1.389 . S
C1045 H1024 0.950 . S
C1045 C1044 1.373 . S
C1045 C1061 1.377 . S
C1046 C1044 1.389 . S
C1046 C1047 1.524 . S
C1046 C1060 1.377 . S
C1047 C1046 1.524 . S
C1047 C1048 1.397 1_455 S
C1047 C1052 1.363 . S
C1048 H1025 0.950 . S
C1048 C1047 1.397 1_655 S
C1048 C1049 1.334 . S
C1049 H1026 0.950 . S
C1049 C1048 1.334 . S
C1049 C1050 1.287 1_655 S
C1050 C1049 1.287 1_455 S
C1050 C1051 1.524 . S
C1050 H1069 0.913 . S
C1051 H1027 0.950 . S
C1051 C1050 1.524 . S
C1051 C1052 1.415 . S
C1052 H1028 0.950 . S
C1052 C1047 1.363 . S
C1052 C1051 1.415 . S
C1053 H1029 0.951 1_455 S
C1053 C1054 1.366 . S
C1053 C1055 1.388 1_556 S
C1054 C1053 1.366 . S
C1054 C1058 1.385 . S
C1055 H1030 0.951 1_455 S
C1055 C1053 1.388 1_554 S
C1055 C1056 1.366 . S
C1056 C1055 1.366 . S
C1056 C1057 1.414 . S
C1056 C1059 1.499 . S
C1057 H1031 0.950 . S
C1057 C1056 1.414 . S
C1057 C1058 1.374 1_554 S
C1058 H1032 0.950 . S
C1058 C1054 1.385 . S
C1058 C1057 1.374 1_556 S
C1059 C1056 1.499 . S
C1059 C1060 1.373 . S
C1059 C1061 1.389 . S
C1060 H1033 0.950 . S
C1060 C1046 1.377 . S
C1060 C1059 1.373 . S
C1061 C1045 1.377 . S
C1061 C1059 1.389 . S
C1061 C1062 1.524 . S
C1062 C1061 1.524 . S
C1062 C1063 1.397 . S
C1062 C1067 1.363 1_455 S
C1063 H1034 0.950 . S
C1063 C1062 1.397 . S
C1063 C1064 1.334 . S
C1064 H1035 0.950 . S
C1064 C1063 1.334 . S
C1064 C1065 1.287 . S
C1065 C1064 1.287 . S
C1065 C1066 1.554 . S
C1065 H1068 0.999 . S
C1066 H1036 0.941 1_455 S
C1066 C1065 1.554 . S
C1066 C1067 1.395 1_455 S
C1067 H1037 0.950 . S
C1067 C1062 1.363 1_655 S
C1067 C1066 1.395 1_655 S
H1068 C1065 0.999 . S
H1069 C1050 0.913 . S
H1070 C1088 0.951 . S
H1071 C1090 0.951 . S
H1072 C1092 0.950 . S
H1073 C1093 0.950 . S
H1074 C1095 0.950 . S
H1075 C1098 0.950 . S
H1076 C1099 0.950 . S
H1077 C1101 0.950 . S
H1078 C1102 0.950 . S
H1079 C1103 0.951 1_565 S
H1080 C1105 0.951 1_565 S
H1081 C1107 0.950 . S
H1082 C1108 0.950 . S
H1083 C1110 0.950 . S
H1084 C1113 0.950 . S
H1085 C1114 0.950 . S
H1086 C1116 0.950 . S
H1087 C1117 0.950 . S
C1088 H1070 0.951 . S
C1088 C1089 1.366 . S
C1088 C1090 1.388 . S
C1089 C1088 1.366 . S
C1089 C1093 1.385 1_545 S
C1090 H1071 0.951 . S
C1090 C1088 1.388 . S
C1090 C1091 1.366 . S
C1091 C1090 1.366 . S
C1091 C1092 1.414 1_545 S
C1091 C1094 1.499 . S
C1092 H1072 0.950 . S
C1092 C1091 1.414 1_565 S
C1092 C1093 1.374 . S
C1093 H1073 0.950 . S
C1093 C1089 1.385 1_565 S
C1093 C1092 1.374 . S
C1094 C1091 1.499 . S
C1094 C1095 1.373 1_545 S
C1094 C1096 1.389 . S
C1095 H1074 0.950 . S
C1095 C1094 1.373 1_565 S
C1095 C1111 1.377 . S
C1096 C1094 1.389 . S
C1096 C1097 1.524 . S
C1096 C1110 1.377 . S
C1097 C1096 1.524 . S
C1097 C1098 1.397 . S
C1097 C1102 1.363 . S
C1098 H1075 0.950 . S
C1098 C1097 1.397 . S
C1098 C1099 1.334 . S
C1099 H1076 0.950 . S
C1099 C1098 1.334 . S
C1099 C1100 1.287 . S
C1100 C1099 1.287 . S
C1100 C1101 1.524 . S
C1100 H1119 0.913 . S
C1101 H1077 0.950 . S
C1101 C1100 1.524 . S
C1101 C1102 1.415 . S
C1102 H1078 0.950 . S
C1102 C1097 1.363 . S
C1102 C1101 1.415 . S
C1103 H1079 0.951 1_545 S
C1103 C1104 1.366 . S
C1103 C1105 1.388 . S
C1104 C1103 1.366 . S
C1104 C1108 1.385 . S
C1105 H1080 0.951 1_545 S
C1105 C1103 1.388 . S
C1105 C1106 1.366 . S
C1106 C1105 1.366 . S
C1106 C1107 1.414 . S
C1106 C1109 1.499 . S
C1107 H1081 0.950 . S
C1107 C1106 1.414 . S
C1107 C1108 1.374 . S
C1108 H1082 0.950 . S
C1108 C1104 1.385 . S
C1108 C1107 1.374 . S
C1109 C1106 1.499 . S
C1109 C1110 1.373 . S
C1109 C1111 1.389 1_545 S
C1110 H1083 0.950 . S
C1110 C1096 1.377 . S
C1110 C1109 1.373 . S
C1111 C1095 1.377 . S
C1111 C1109 1.389 1_565 S
C1111 C1112 1.524 . S
C1112 C1111 1.524 . S
C1112 C1113 1.397 . S
C1112 C1117 1.363 . S
C1113 H1084 0.950 . S
C1113 C1112 1.397 . S
C1113 C1114 1.334 . S
C1114 H1085 0.950 . S
C1114 C1113 1.334 . S
C1114 C1115 1.287 . S
C1115 C1114 1.287 . S
C1115 C1116 1.524 . S
C1115 H1118 0.999 . S
C1116 H1086 0.950 . S
C1116 C1115 1.524 . S
C1116 C1117 1.415 . S
C1117 H1087 0.950 . S
C1117 C1112 1.363 . S
C1117 C1116 1.415 . S
H1118 C1115 0.999 . S
H1119 C1100 0.913 . S
H1120 C1138 0.951 . S
H1121 C1140 0.951 . S
H1122 C1142 0.950 . S
H1123 C1143 0.950 . S
H1124 C1145 0.950 . S
H1125 C1148 0.950 . S
H1126 C1149 0.950 . S
H1127 C1151 0.950 . S
H1128 C1152 0.950 . S
H1129 C1153 0.951 . S
H1130 C1155 0.951 . S
H1131 C1157 0.950 . S
H1132 C1158 0.950 . S
H1133 C1160 0.950 . S
H1134 C1163 0.950 . S
H1135 C1164 0.950 . S
H1136 C1166 0.950 . S
H1137 C1167 0.950 . S
C1138 H1120 0.951 . S
C1138 C1139 1.366 . S
C1138 C1140 1.388 . S
C1139 C1138 1.366 . S
C1139 C1143 1.385 . S
C1140 H1121 0.951 . S
C1140 C1138 1.388 . S
C1140 C1141 1.366 . S
C1141 C1140 1.366 . S
C1141 C1142 1.414 . S
C1141 C1144 1.499 . S
C1142 H1122 0.950 . S
C1142 C1141 1.414 . S
C1142 C1143 1.374 . S
C1143 H1123 0.950 . S
C1143 C1139 1.385 . S
C1143 C1142 1.374 . S
C1144 C1141 1.499 . S
C1144 C1145 1.373 . S
C1144 C1146 1.389 . S
C1145 H1124 0.950 . S
C1145 C1144 1.373 . S
C1145 C1161 1.377 . S
C1146 C1144 1.389 . S
C1146 C1147 1.524 . S
C1146 C1160 1.377 . S
C1147 C1146 1.524 . S
C1147 C1148 1.397 . S
C1147 C1152 1.363 . S
C1148 H1125 0.950 . S
C1148 C1147 1.397 . S
C1148 C1149 1.334 . S
C1149 H1126 0.950 . S
C1149 C1148 1.334 . S
C1149 C1150 1.287 . S
C1150 C1149 1.287 . S
C1150 C1151 1.524 . S
C1150 H1169 0.913 . S
C1151 H1127 0.950 . S
C1151 C1150 1.524 . S
C1151 C1152 1.415 . S
C1152 H1128 0.950 . S
C1152 C1147 1.363 . S
C1152 C1151 1.415 . S
C1153 H1129 0.951 . S
C1153 C1154 1.366 . S
C1153 C1155 1.388 . S
C1154 C1153 1.366 . S
C1154 C1158 1.385 . S
C1155 H1130 0.951 . S
C1155 C1153 1.388 . S
C1155 C1156 1.366 . S
C1156 C1155 1.366 . S
C1156 C1157 1.414 . S
C1156 C1159 1.499 . S
C1157 H1131 0.950 . S
C1157 C1156 1.414 . S
C1157 C1158 1.374 . S
C1158 H1132 0.950 . S
C1158 C1154 1.385 . S
C1158 C1157 1.374 . S
C1159 C1156 1.499 . S
C1159 C1160 1.373 . S
C1159 C1161 1.389 . S
C1160 H1133 0.950 . S
C1160 C1146 1.377 . S
C1160 C1159 1.373 . S
C1161 C1145 1.377 . S
C1161 C1159 1.389 . S
C1161 C1162 1.524 . S
C1162 C1161 1.524 . S
C1162 C1163 1.397 . S
C1162 C1167 1.363 . S
C1163 H1134 0.950 . S
C1163 C1162 1.397 . S
C1163 C1164 1.334 . S
C1164 H1135 0.950 . S
C1164 C1163 1.334 . S
C1164 C1165 1.287 . S
C1165 C1164 1.287 . S
C1165 C1166 1.524 . S
C1165 H1168 0.999 . S
C1166 H1136 0.950 . S
C1166 C1165 1.524 . S
C1166 C1167 1.415 . S
C1167 H1137 0.950 . S
C1167 C1162 1.363 . S
C1167 C1166 1.415 . S
H1168 C1165 0.999 . S
H1169 C1150 0.913 . S
H1170 C1188 0.951 . S
H1171 C1190 0.951 . S
H1172 C1192 0.950 . S
H1173 C1193 0.950 . S
H1174 C1195 0.950 . S
H1175 C1198 0.950 1_545 S
H1176 C1199 0.950 . S
H1177 C1201 0.950 . S
H1178 C1202 0.950 . S
H1179 C1203 0.951 . S
H1180 C1205 0.951 . S
H1181 C1207 0.950 . S
H1182 C1208 0.950 . S
H1183 C1210 0.950 . S
H1184 C1213 0.950 . S
H1185 C1214 0.950 . S
H1186 C1216 0.950 . S
H1187 C1217 0.950 . S
C1188 H1170 0.951 . S
C1188 C1189 1.366 1_565 S
C1188 C1190 1.388 . S
C1189 C1188 1.366 1_545 S
C1189 C1193 1.385 . S
C1190 H1171 0.951 . S
C1190 C1188 1.388 . S
C1190 C1191 1.366 1_565 S
C1191 C1190 1.366 1_545 S
C1191 C1192 1.414 . S
C1191 C1194 1.499 . S
C1192 H1172 0.950 . S
C1192 C1191 1.414 . S
C1192 C1193 1.374 . S
C1193 H1173 0.950 . S
C1193 C1189 1.385 . S
C1193 C1192 1.374 . S
C1194 C1191 1.499 . S
C1194 C1195 1.373 . S
C1194 C1196 1.389 1_545 S
C1195 H1174 0.950 . S
C1195 C1194 1.373 . S
C1195 C1211 1.377 . S
C1196 C1194 1.389 1_565 S
C1196 C1197 1.524 . S
C1196 C1210 1.377 . S
C1197 C1196 1.524 . S
C1197 C1198 1.397 . S
C1197 C1202 1.363 . S
C1198 H1175 0.950 1_565 S
C1198 C1197 1.397 . S
C1198 C1199 1.334 . S
C1199 H1176 0.950 . S
C1199 C1198 1.334 . S
C1199 C1200 1.287 . S
C1200 C1199 1.287 . S
C1200 C1201 1.524 . S
C1200 H1219 0.913 . S
C1201 H1177 0.950 . S
C1201 C1200 1.524 . S
C1201 C1202 1.415 . S
C1202 H1178 0.950 . S
C1202 C1197 1.363 . S
C1202 C1201 1.415 . S
C1203 H1179 0.951 . S
C1203 C1204 1.366 . S
C1203 C1205 1.388 . S
C1204 C1203 1.366 . S
C1204 C1208 1.385 1_545 S
C1205 H1180 0.951 . S
C1205 C1203 1.388 . S
C1205 C1206 1.366 . S
C1206 C1205 1.366 . S
C1206 C1207 1.414 1_545 S
C1206 C1209 1.499 . S
C1207 H1181 0.950 . S
C1207 C1206 1.414 1_565 S
C1207 C1208 1.374 . S
C1208 H1182 0.950 . S
C1208 C1204 1.385 1_565 S
C1208 C1207 1.374 . S
C1209 C1206 1.499 . S
C1209 C1210 1.373 1_545 S
C1209 C1211 1.389 . S
C1210 H1183 0.950 . S
C1210 C1196 1.377 . S
C1210 C1209 1.373 1_565 S
C1211 C1195 1.377 . S
C1211 C1209 1.389 . S
C1211 C1212 1.524 . S
C1212 C1211 1.524 . S
C1212 C1213 1.397 . S
C1212 C1217 1.363 . S
C1213 H1184 0.950 . S
C1213 C1212 1.397 . S
C1213 C1214 1.334 . S
C1214 H1185 0.950 . S
C1214 C1213 1.334 . S
C1214 C1215 1.287 . S
C1215 C1214 1.287 . S
C1215 C1216 1.524 . S
C1215 H1218 0.999 . S
C1216 H1186 0.950 . S
C1216 C1215 1.524 . S
C1216 C1217 1.415 . S
C1217 H1187 0.950 . S
C1217 C1212 1.363 . S
C1217 C1216 1.415 . S
H1218 C1215 0.999 . S
H1219 C1200 0.913 . S
H1220 C1238 0.951 . S
H1221 C1240 0.951 . S
H1222 C1242 0.950 . S
H1223 C1243 0.950 . S
H1224 C1245 0.950 . S
H1225 C1248 0.950 . S
H1226 C1249 0.950 . S
H1227 C1251 0.950 . S
H1228 C1252 0.950 . S
H1229 C1253 0.951 . S
H1230 C1255 0.951 . S
H1231 C1257 0.950 . S
H1232 C1258 0.950 . S
H1233 C1260 0.950 . S
H1234 C1263 0.950 . S
H1235 C1264 0.950 . S
H1236 C1266 0.950 . S
H1237 C1267 0.950 . S
C1238 H1220 0.951 . S
C1238 C1239 1.366 . S
C1238 C1240 1.388 . S
C1239 C1238 1.366 . S
C1239 C1243 1.385 . S
C1240 H1221 0.951 . S
C1240 C1238 1.388 . S
C1240 C1241 1.366 . S
C1241 C1240 1.366 . S
C1241 C1242 1.414 . S
C1241 C1244 1.499 . S
C1242 H1222 0.950 . S
C1242 C1241 1.414 . S
C1242 C1243 1.374 . S
C1243 H1223 0.950 . S
C1243 C1239 1.385 . S
C1243 C1242 1.374 . S
C1244 C1241 1.499 . S
C1244 C1245 1.373 . S
C1244 C1246 1.389 . S
C1245 H1224 0.950 . S
C1245 C1244 1.373 . S
C1245 C1261 1.377 . S
C1246 C1244 1.389 . S
C1246 C1247 1.524 . S
C1246 C1260 1.377 . S
C1247 C1246 1.524 . S
C1247 C1248 1.397 . S
C1247 C1252 1.363 . S
C1248 H1225 0.950 . S
C1248 C1247 1.397 . S
C1248 C1249 1.334 . S
C1249 H1226 0.950 . S
C1249 C1248 1.334 . S
C1249 C1250 1.287 . S
C1250 C1249 1.287 . S
C1250 C1251 1.524 . S
C1250 H1269 0.913 . S
C1251 H1227 0.950 . S
C1251 C1250 1.524 . S
C1251 C1252 1.415 . S
C1252 H1228 0.950 . S
C1252 C1247 1.363 . S
C1252 C1251 1.415 . S
C1253 H1229 0.951 . S
C1253 C1254 1.366 . S
C1253 C1255 1.388 1_554 S
C1254 C1253 1.366 . S
C1254 C1258 1.385 . S
C1255 H1230 0.951 . S
C1255 C1253 1.388 1_556 S
C1255 C1256 1.366 . S
C1256 C1255 1.366 . S
C1256 C1257 1.414 . S
C1256 C1259 1.499 . S
C1257 H1231 0.950 . S
C1257 C1256 1.414 . S
C1257 C1258 1.374 1_556 S
C1258 H1232 0.950 . S
C1258 C1254 1.385 . S
C1258 C1257 1.374 1_554 S
C1259 C1256 1.499 . S
C1259 C1260 1.373 . S
C1259 C1261 1.389 . S
C1260 H1233 0.950 . S
C1260 C1246 1.377 . S
C1260 C1259 1.373 . S
C1261 C1245 1.377 . S
C1261 C1259 1.389 . S
C1261 C1262 1.524 . S
C1262 C1261 1.524 . S
C1262 C1263 1.397 . S
C1262 C1267 1.363 . S
C1263 H1234 0.950 . S
C1263 C1262 1.397 . S
C1263 C1264 1.334 . S
C1264 H1235 0.950 . S
C1264 C1263 1.334 . S
C1264 C1265 1.287 . S
C1265 C1264 1.287 . S
C1265 C1266 1.524 . S
C1265 H1268 0.999 . S
C1266 H1236 0.950 . S
C1266 C1265 1.524 . S
C1266 C1267 1.415 . S
C1267 H1237 0.950 . S
C1267 C1262 1.363 . S
C1267 C1266 1.415 . S
H1268 C1265 0.999 . S
H1269 C1250 0.913 . S
H1270 C1288 0.951 . S
H1271 C1290 0.951 . S
H1272 C1292 0.950 . S
H1273 C1293 0.950 . S
H1274 C1295 0.950 . S
H1275 C1298 0.950 . S
H1276 C1299 0.950 . S
H1277 C1301 0.950 . S
H1278 C1302 0.950 . S
H1279 C1303 0.951 . S
H1280 C1305 0.951 . S
H1281 C1307 0.950 . S
H1282 C1308 0.950 . S
H1283 C1310 0.950 . S
H1284 C1313 0.950 . S
H1285 C1314 0.950 . S
H1286 C1316 0.950 . S
H1287 C1317 0.950 . S
C1288 H1270 0.951 . S
C1288 C1289 1.366 . S
C1288 C1290 1.388 . S
C1289 C1288 1.366 . S
C1289 C1293 1.385 1_455 S
C1290 H1271 0.951 . S
C1290 C1288 1.388 . S
C1290 C1291 1.366 . S
C1291 C1290 1.366 . S
C1291 C1292 1.414 1_455 S
C1291 C1294 1.499 . S
C1292 H1272 0.950 . S
C1292 C1291 1.414 1_655 S
C1292 C1293 1.374 . S
C1293 H1273 0.950 . S
C1293 C1289 1.385 1_655 S
C1293 C1292 1.374 . S
C1294 C1291 1.499 . S
C1294 C1295 1.373 1_455 S
C1294 C1296 1.389 . S
C1295 H1274 0.950 . S
C1295 C1294 1.373 1_655 S
C1295 C1311 1.377 . S
C1296 C1294 1.389 . S
C1296 C1297 1.524 . S
C1296 C1310 1.377 . S
C1297 C1296 1.524 . S
C1297 C1298 1.397 . S
C1297 C1302 1.363 . S
C1298 H1275 0.950 . S
C1298 C1297 1.397 . S
C1298 C1299 1.334 . S
C1299 H1276 0.950 . S
C1299 C1298 1.334 . S
C1299 C1300 1.287 . S
C1300 C1299 1.287 . S
C1300 C1301 1.524 . S
C1300 H1319 0.913 . S
C1301 H1277 0.950 . S
C1301 C1300 1.524 . S
C1301 C1302 1.415 . S
C1302 H1278 0.950 . S
C1302 C1297 1.363 . S
C1302 C1301 1.415 . S
C1303 H1279 0.951 . S
C1303 C1304 1.366 1_655 S
C1303 C1305 1.388 . S
C1304 C1303 1.366 1_455 S
C1304 C1308 1.385 . S
C1305 H1280 0.951 . S
C1305 C1303 1.388 . S
C1305 C1306 1.366 1_655 S
C1306 C1305 1.366 1_455 S
C1306 C1307 1.414 . S
C1306 C1309 1.499 . S
C1307 H1281 0.950 . S
C1307 C1306 1.414 . S
C1307 C1308 1.374 . S
C1308 H1282 0.950 . S
C1308 C1304 1.385 . S
C1308 C1307 1.374 . S
C1309 C1306 1.499 . S
C1309 C1310 1.373 . S
C1309 C1311 1.389 1_455 S
C1310 H1283 0.950 . S
C1310 C1296 1.377 . S
C1310 C1309 1.373 . S
C1311 C1295 1.377 . S
C1311 C1309 1.389 1_655 S
C1311 C1312 1.524 . S
C1312 C1311 1.524 . S
C1312 C1313 1.397 . S
C1312 C1317 1.363 . S
C1313 H1284 0.950 . S
C1313 C1312 1.397 . S
C1313 C1314 1.334 . S
C1314 H1285 0.950 . S
C1314 C1313 1.334 . S
C1314 C1315 1.287 . S
C1315 C1314 1.287 . S
C1315 C1316 1.524 . S
C1315 H1318 0.999 . S
C1316 H1286 0.950 . S
C1316 C1315 1.524 . S
C1316 C1317 1.415 . S
C1317 H1287 0.950 . S
C1317 C1312 1.363 . S
C1317 C1316 1.415 . S
H1318 C1315 0.999 . S
H1319 C1300 0.913 . S
C439 C2 1.274 . S
C454 C391 1.355 . S
C489 C22 1.247 . S
C504 C241 1.268 . S
C539 C44 1.311 . S
C554 C301 1.321 . S
C589 C4 1.494 . S
C604 C361 1.495 . S
C654 C271 1.633 . S
C639 C24 1.541 . S
C704 C331 1.545 . S
C689 C42 1.451 . S
C739 C32 1.265 . S
C754 C121 1.212 . S
C789 C49 1.207 . S
C804 C211 1.230 . S
C839 C9 1.192 . S
C854 C91 1.217 . S
C904 C151 1.196 . S
C889 C29 1.161 . S
C954 C181 1.196 . S
C939 C52 1.206 . S
C989 C12 1.198 . S
C1004 C61 1.184 . S
C1054 C200 1.410 . S
C1039 C18 1.427 . S
C1089 C38 1.420 . S
C1104 C80 1.413 . S
C1139 C58 1.417 . S
C1154 C140 1.409 . S
C1204 C320 1.473 . S
C1189 C39 1.481 . S
C1254 C380 1.469 . S
C1239 C59 1.462 . S
C1289 C19 1.465 . S
C1304 C260 1.461 . S
