# Generated by pormake.
# Topology dag, (6,3)-cn, num edge types: 1
# Building blocks:
#     Node 0, Type 0, BuildingBlock: MIDCAF_clean_sbu_0, # of connection points: 6
#     Node 1, Type 0, BuildingBlock: MIDCAF_clean_sbu_0, # of connection points: 6
#     Node 2, Type 0, BuildingBlock: MIDCAF_clean_sbu_0, # of connection points: 6
#     Node 3, Type 0, BuildingBlock: MIDCAF_clean_sbu_0, # of connection points: 6
#     Node 4, Type 1, BuildingBlock: KAKCAD_clean_linker_0, # of connection points: 3
#     Node 5, Type 1, BuildingBlock: KAKCAD_clean_linker_0, # of connection points: 3
#     Node 6, Type 1, BuildingBlock: KAKCAD_clean_linker_0, # of connection points: 3
#     Node 7, Type 1, BuildingBlock: KAKCAD_clean_linker_0, # of connection points: 3
#     Node 8, Type 1, BuildingBlock: KAKCAD_clean_linker_0, # of connection points: 3
#     Node 9, Type 1, BuildingBlock: KAKCAD_clean_linker_0, # of connection points: 3
#     Node 10, Type 1, BuildingBlock: KAKCAD_clean_linker_0, # of connection points: 3
#     Node 11, Type 1, BuildingBlock: KAKCAD_clean_linker_0, # of connection points: 3
#     Edge 12, Type (0, 1), BuildingBlock: MIFKUJ_clean_linker_0, # of connection points: 2
#     Edge 13, Type (0, 1), BuildingBlock: MIFKUJ_clean_linker_0, # of connection points: 2
#     Edge 14, Type (0, 1), BuildingBlock: MIFKUJ_clean_linker_0, # of connection points: 2
#     Edge 15, Type (0, 1), BuildingBlock: MIFKUJ_clean_linker_0, # of connection points: 2
#     Edge 16, Type (0, 1), BuildingBlock: MIFKUJ_clean_linker_0, # of connection points: 2
#     Edge 17, Type (0, 1), BuildingBlock: MIFKUJ_clean_linker_0, # of connection points: 2
#     Edge 18, Type (0, 1), BuildingBlock: MIFKUJ_clean_linker_0, # of connection points: 2
#     Edge 19, Type (0, 1), BuildingBlock: MIFKUJ_clean_linker_0, # of connection points: 2
#     Edge 20, Type (0, 1), BuildingBlock: MIFKUJ_clean_linker_0, # of connection points: 2
#     Edge 21, Type (0, 1), BuildingBlock: MIFKUJ_clean_linker_0, # of connection points: 2
#     Edge 22, Type (0, 1), BuildingBlock: MIFKUJ_clean_linker_0, # of connection points: 2
#     Edge 23, Type (0, 1), BuildingBlock: MIFKUJ_clean_linker_0, # of connection points: 2
#     Edge 24, Type (0, 1), BuildingBlock: MIFKUJ_clean_linker_0, # of connection points: 2
#     Edge 25, Type (0, 1), BuildingBlock: MIFKUJ_clean_linker_0, # of connection points: 2
#     Edge 26, Type (0, 1), BuildingBlock: MIFKUJ_clean_linker_0, # of connection points: 2
#     Edge 27, Type (0, 1), BuildingBlock: MIFKUJ_clean_linker_0, # of connection points: 2
#     Edge 28, Type (0, 1), BuildingBlock: MIFKUJ_clean_linker_0, # of connection points: 2
#     Edge 29, Type (0, 1), BuildingBlock: MIFKUJ_clean_linker_0, # of connection points: 2
#     Edge 30, Type (0, 1), BuildingBlock: MIFKUJ_clean_linker_0, # of connection points: 2
#     Edge 31, Type (0, 1), BuildingBlock: MIFKUJ_clean_linker_0, # of connection points: 2
#     Edge 32, Type (0, 1), BuildingBlock: MIFKUJ_clean_linker_0, # of connection points: 2
#     Edge 33, Type (0, 1), BuildingBlock: MIFKUJ_clean_linker_0, # of connection points: 2
#     Edge 34, Type (0, 1), BuildingBlock: MIFKUJ_clean_linker_0, # of connection points: 2
#     Edge 35, Type (0, 1), BuildingBlock: MIFKUJ_clean_linker_0, # of connection points: 2
# Relax obj value: 0.304
# Max RMSD: 0.191
# Mean RMSD: 0.179
data_MOF--net-dag--node1-MIDCAF_clean_sbu_0--node2-KAKCAD_clean_linker_0--edge1-MIFKUJ_clean_linker_0
_symmetry_space_group_name_H-M    P1
_symmetry_Int_Tables_number       1
_symmetry_cell_setting            triclinic
loop_
_symmetry_equiv_pos_as_xyz
'x, y, z'
_cell_length_a     60.419411
_cell_length_b     62.342698
_cell_length_c     46.400917
_cell_angle_alpha  93.642819
_cell_angle_beta   89.969176
_cell_angle_gamma 90.239456
loop_
_atom_site_label
_atom_site_type_symbol
_atom_site_fract_x
_atom_site_fract_y
_atom_site_fract_z
_atom_type_partial_charge
Zn0 Zn 0.12359 0.85321 0.09974 0.0
Zn1 Zn 0.13298 0.85106 0.00609 0.0
Zn2 Zn 0.13718 0.84405 0.05353 0.0
C3 C 0.14205 0.88947 0.02416 0.0
C4 C 0.11419 0.81474 0.0078 0.0
O5 O 0.15739 0.82204 0.07435 0.0
O6 O 0.13465 0.82467 0.1114 0.0
C7 C 0.15985 0.87644 0.10017 0.0
O8 O 0.14876 0.87707 0.04349 0.0
O9 O 0.12932 0.88198 0.00447 0.0
O10 O 0.10623 0.83239 0.00112 0.0
O11 O 0.13088 0.81506 0.0247 0.0
O12 O 0.14187 0.87694 0.1139 0.0
O13 O 0.1615 0.86546 0.07598 0.0
O14 O 0.10066 0.84014 0.05917 0.0
O15 O 0.09175 0.85634 0.10097 0.0
C16 C 0.08601 0.8459 0.07805 0.0
O17 O 0.15999 0.81976 0.03687 0.0
O18 O 0.16483 0.83838 -0.00124 0.0
C19 C 0.15067 0.81544 0.09824 0.0
C20 C 0.17188 0.82426 0.01508 0.0
Zn21 Zn 0.63327 0.64422 0.44881 0.0
Zn22 Zn 0.6349 0.63705 0.54713 0.0
Zn23 Zn 0.63783 0.64369 0.49909 0.0
C24 C 0.64325 0.59889 0.52896 0.0
C25 C 0.61909 0.67584 0.54134 0.0
O26 O 0.65254 0.67559 0.49169 0.0
O27 O 0.64179 0.67428 0.44606 0.0
C28 C 0.66459 0.61269 0.45728 0.0
O29 O 0.65158 0.61181 0.51115 0.0
O30 O 0.62859 0.60576 0.54654 0.0
O31 O 0.61024 0.6585 0.54815 0.0
O32 O 0.63609 0.67473 0.52472 0.0
O33 O 0.65592 0.62246 0.43717 0.0
O34 O 0.65891 0.61738 0.48354 0.0
O35 O 0.60233 0.6423 0.49308 0.0
O36 O 0.60094 0.63855 0.44575 0.0
C37 C 0.59106 0.64027 0.46979 0.0
O38 O 0.6611 0.66775 0.51799 0.0
O39 O 0.6678 0.64743 0.55405 0.0
C40 C 0.65055 0.68445 0.46748 0.0
C41 C 0.67419 0.66205 0.5381 0.0
Zn42 Zn 0.84868 0.13881 0.92476 0.0
Zn43 Zn 0.83861 0.13486 0.0411 0.0
Zn44 Zn 0.85234 0.14049 -0.00378 0.0
C45 C 0.88082 0.14721 0.05237 0.0
C46 C 0.82844 0.09811 0.01405 0.0
O47 O 0.83019 0.16404 0.97507 0.0
O48 O 0.81743 0.14068 0.94158 0.0
C49 C 0.87073 0.17285 0.9565 0.0
O50 O 0.88133 0.14495 0.02478 0.0
O51 O 0.86287 0.1444 0.06533 0.0
O52 O 0.83158 0.10463 0.03992 0.0
O53 O 0.83449 0.10962 0.99338 0.0
O54 O 0.87223 0.16154 0.93304 0.0
O55 O 0.85485 0.1691 0.97369 0.0
O56 O 0.85403 0.10836 0.9713 0.0
O57 O 0.8604 0.10975 0.92402 0.0
C58 C 0.85896 0.09926 0.94635 0.0
O59 O 0.8298 0.16777 0.00772 0.0
O60 O 0.81402 0.15468 0.04568 0.0
C61 C 0.81525 0.15839 0.95591 0.0
C62 C 0.81607 0.16968 0.02892 0.0
Zn63 Zn 0.37232 0.3597 0.60089 0.0
Zn64 Zn 0.3353 0.33134 0.47579 0.0
Zn65 Zn 0.34836 0.35291 0.56184 0.0
C66 C 0.37697 0.34695 0.5149 0.0
C67 C 0.31243 0.36625 0.50826 0.0
O68 O 0.33746 0.32902 0.59004 0.0
O69 O 0.34725 0.35008 0.62793 0.0
C70 C 0.3824 0.31993 0.5793 0.0
O71 O 0.37979 0.35546 0.54023 0.0
O72 O 0.35782 0.33948 0.50907 0.0
O73 O 0.31243 0.35608 0.48331 0.0
O74 O 0.32575 0.36129 0.52809 0.0
O75 O 0.39317 0.33648 0.58824 0.0
O76 O 0.36195 0.32151 0.57252 0.0
O77 O 0.34062 0.38171 0.58928 0.0
O78 O 0.37554 0.39062 0.59094 0.0
C79 C 0.35553 0.39607 0.59402 0.0
O80 O 0.33353 0.31995 0.56191 0.0
O81 O 0.34064 0.32364 0.51701 0.0
C82 C 0.33579 0.33451 0.61707 0.0
C83 C 0.33002 0.31352 0.53547 0.0
C84 C 0.05809 0.1477 0.28234 0.0
C85 C 0.03896 0.13501 0.27804 0.0
C86 C 0.07397 0.14246 0.30257 0.0
C87 C 0.0711 0.1243 0.31865 0.0
C88 C 0.05149 0.1122 0.31528 0.0
C89 C 0.0355 0.11758 0.29527 0.0
C90 C 0.08961 0.11663 0.33617 0.0
C91 C 0.10188 0.13096 0.35456 0.0
C92 C 0.12116 0.1241 0.36824 0.0
C93 C 0.12794 0.10263 0.36326 0.0
C94 C 0.11584 0.08817 0.34499 0.0
C95 C 0.09651 0.0952 0.3319 0.0
C96 C 0.12496 0.06672 0.33628 0.0
C97 C 0.1472 0.06489 0.32762 0.0
C98 C 0.11115 0.04848 0.33352 0.0
C99 C 0.11916 0.02909 0.32083 0.0
C100 C 0.14097 0.02783 0.31062 0.0
C101 C 0.13532 0.13946 0.38593 0.0
C102 C 0.13867 0.16058 0.37778 0.0
C103 C 0.14682 0.13265 0.41003 0.0
C104 C 0.16203 0.14621 0.42477 0.0
C105 C 0.16583 0.16714 0.41621 0.0
C106 C 0.1536 0.17429 0.39288 0.0
C107 C 0.15509 0.04563 0.31478 0.0
H108 H 0.06105 0.16133 0.26947 0.0
H109 H 0.08902 0.15195 0.30451 0.0
H110 H 0.04888 0.09815 0.32748 0.0
H111 H 0.02095 0.10747 0.29227 0.0
H112 H 0.09649 0.14749 0.3579 0.0
H113 H 0.08774 0.08438 0.3166 0.0
H114 H 0.14322 0.09729 0.37262 0.0
H115 H 0.15815 0.07872 0.32908 0.0
H116 H 0.09397 0.04947 0.34015 0.0
H117 H 0.108 0.01551 0.31745 0.0
H118 H 0.13031 0.16637 0.35918 0.0
H119 H 0.14439 0.11664 0.41729 0.0
H120 H 0.17193 0.04493 0.30671 0.0
H121 H 0.15567 0.19045 0.38601 0.0
H122 H 0.17122 0.13996 0.44239 0.0
C123 C 0.38206 0.59346 0.79578 0.0
C124 C 0.39811 0.57809 0.78748 0.0
C125 C 0.38818 0.61271 0.81097 0.0
C126 C 0.41046 0.61682 0.81855 0.0
C127 C 0.42626 0.60078 0.81132 0.0
C128 C 0.4202 0.58178 0.79564 0.0
C129 C 0.4175 0.63824 0.83193 0.0
C130 C 0.40366 0.65035 0.85117 0.0
C131 C 0.40975 0.67123 0.86179 0.0
C132 C 0.43012 0.67985 0.85341 0.0
C133 C 0.44412 0.66805 0.83421 0.0
C134 C 0.4377 0.64734 0.82372 0.0
C135 C 0.46419 0.678 0.82215 0.0
C136 C 0.46297 0.69843 0.8111 0.0
C137 C 0.48378 0.66607 0.81817 0.0
C138 C 0.50111 0.67369 0.8016 0.0
C139 C 0.4991 0.69331 0.78855 0.0
C140 C 0.39406 0.68479 0.87959 0.0
C141 C 0.37186 0.68627 0.87102 0.0
C142 C 0.40129 0.6972 0.90424 0.0
C143 C 0.38661 0.71089 0.91984 0.0
C144 C 0.36455 0.7127 0.91077 0.0
C145 C 0.35731 0.70011 0.88634 0.0
C146 C 0.48024 0.70598 0.7944 0.0
H147 H 0.36494 0.59094 0.78949 0.0
H148 H 0.37555 0.62469 0.81567 0.0
H149 H 0.44347 0.60304 0.81733 0.0
H150 H 0.43281 0.57003 0.78959 0.0
H151 H 0.38805 0.64364 0.85783 0.0
H152 H 0.44794 0.63883 0.80764 0.0
H153 H 0.4347 0.69608 0.86092 0.0
H154 H 0.44808 0.70797 0.81371 0.0
H155 H 0.48525 0.65036 0.82672 0.0
H156 H 0.51543 0.66355 0.79743 0.0
H157 H 0.36584 0.67712 0.85196 0.0
H158 H 0.41831 0.69633 0.91138 0.0
H159 H 0.47839 0.7213 0.78488 0.0
H160 H 0.34032 0.70096 0.87906 0.0
H161 H 0.39262 0.7204 0.93859 0.0
C162 C 0.84115 0.81301 0.12748 0.0
C163 C 0.85501 0.83099 0.12557 0.0
C164 C 0.81875 0.81569 0.13471 0.0
C165 C 0.80995 0.8364 0.14057 0.0
C166 C 0.82427 0.85425 0.13979 0.0
C167 C 0.84644 0.85158 0.13204 0.0
C168 C 0.78589 0.83962 0.14661 0.0
C169 C 0.77381 0.82548 0.16326 0.0
C170 C 0.75128 0.82931 0.16974 0.0
C171 C 0.7408 0.84714 0.15879 0.0
C172 C 0.7528 0.86157 0.14319 0.0
C173 C 0.77506 0.85762 0.13664 0.0
C174 C 0.74297 0.88208 0.13628 0.0
C175 C 0.72759 0.88301 0.1138 0.0
C176 C 0.75081 0.9011 0.15054 0.0
C177 C 0.74479 0.92091 0.14084 0.0
C178 C 0.73106 0.92185 0.11664 0.0
C179 C 0.73928 0.81633 0.19053 0.0
C180 C 0.7426 0.79403 0.19107 0.0
C181 C 0.72516 0.8266 0.21122 0.0
C182 C 0.71506 0.81501 0.23228 0.0
C183 C 0.71907 0.79302 0.23336 0.0
C184 C 0.73266 0.78247 0.21252 0.0
C185 C 0.72177 0.90291 0.10383 0.0
H186 H 0.84749 0.79697 0.12255 0.0
H187 H 0.80824 0.80159 0.13493 0.0
H188 H 0.81838 0.8704 0.14508 0.0
H189 H 0.85696 0.86564 0.13115 0.0
H190 H 0.78223 0.81222 0.17245 0.0
H191 H 0.78391 0.86886 0.12393 0.0
H192 H 0.72353 0.85045 0.16351 0.0
H193 H 0.72142 0.8684 0.10268 0.0
H194 H 0.76264 0.90055 0.16803 0.0
H195 H 0.75246 0.93537 0.15053 0.0
H196 H 0.75319 0.78563 0.1753 0.0
H197 H 0.72261 0.8438 0.21201 0.0
H198 H 0.71155 0.90342 0.08471 0.0
H199 H 0.73604 0.76547 0.21335 0.0
H200 H 0.70493 0.82342 0.2486 0.0
C201 C 0.61021 0.26249 0.6261 0.0
C202 C 0.59885 0.26888 0.60161 0.0
C203 C 0.632 0.26908 0.63154 0.0
C204 C 0.64346 0.28156 0.61208 0.0
C205 C 0.63265 0.28653 0.58652 0.0
C206 C 0.6106 0.28067 0.58163 0.0
C207 C 0.66593 0.29046 0.61922 0.0
C208 C 0.6804 0.2797 0.63691 0.0
C209 C 0.70031 0.28924 0.6467 0.0
C210 C 0.7068 0.30919 0.63687 0.0
C211 C 0.6929 0.31997 0.61823 0.0
C212 C 0.67237 0.31065 0.61019 0.0
C213 C 0.69844 0.34166 0.60848 0.0
C214 C 0.70685 0.35799 0.62785 0.0
C215 C 0.69281 0.34683 0.58033 0.0
C216 C 0.69372 0.36805 0.5725 0.0
C217 C 0.70075 0.38451 0.5924 0.0
C218 C 0.71266 0.27897 0.66957 0.0
C219 C 0.7013 0.27385 0.69461 0.0
C220 C 0.73493 0.273 0.66611 0.0
C221 C 0.74538 0.26128 0.68704 0.0
C222 C 0.73367 0.25551 0.71166 0.0
C223 C 0.71168 0.26234 0.71542 0.0
C224 C 0.70808 0.37928 0.61979 0.0
H225 H 0.6022 0.25282 0.64164 0.0
H226 H 0.63944 0.26497 0.65165 0.0
H227 H 0.64099 0.2955 0.57047 0.0
H228 H 0.60267 0.28623 0.56262 0.0
H229 H 0.67602 0.26399 0.64392 0.0
H230 H 0.66092 0.31977 0.5979 0.0
H231 H 0.72223 0.31651 0.64436 0.0
H232 H 0.71121 0.35459 0.64972 0.0
H233 H 0.68672 0.33457 0.56469 0.0
H234 H 0.68816 0.37173 0.55118 0.0
H235 H 0.6842 0.27858 0.69793 0.0
H236 H 0.74395 0.27677 0.64688 0.0
H237 H 0.71347 0.39181 0.6355 0.0
H238 H 0.7024 0.25881 0.73454 0.0
H239 H 0.76238 0.2563 0.68363 0.0
C240 C 0.63572 0.45133 0.22011 0.0
C241 C 0.64323 0.45532 0.24852 0.0
C242 C 0.62732 0.43101 0.21127 0.0
C243 C 0.62596 0.4149 0.23105 0.0
C244 C 0.634 0.4189 0.2592 0.0
C245 C 0.64269 0.43894 0.26781 0.0
C246 C 0.61558 0.39403 0.22307 0.0
C247 C 0.62472 0.38034 0.20133 0.0
C248 C 0.61657 0.35931 0.1962 0.0
C249 C 0.59865 0.35232 0.21265 0.0
C250 C 0.58934 0.36608 0.23449 0.0
C251 C 0.59785 0.38695 0.23937 0.0
C252 C 0.57144 0.35868 0.2533 0.0
C253 C 0.55295 0.34747 0.2416 0.0
C254 C 0.57228 0.36393 0.2832 0.0
C255 C 0.55452 0.35914 0.3008 0.0
C256 C 0.53574 0.34878 0.28892 0.0
C257 C 0.62882 0.34415 0.17634 0.0
C258 C 0.63744 0.351 0.15032 0.0
C259 C 0.63452 0.32375 0.18514 0.0
C260 C 0.64973 0.3111 0.16925 0.0
C261 C 0.65959 0.31866 0.14438 0.0
C262 C 0.65274 0.33839 0.13449 0.0
C263 C 0.53514 0.34255 0.25937 0.0
H264 H 0.63596 0.46395 0.20512 0.0
H265 H 0.62121 0.42808 0.18942 0.0
H266 H 0.63327 0.40658 0.27464 0.0
H267 H 0.64832 0.44191 0.28986 0.0
H268 H 0.63915 0.38565 0.1898 0.0
H269 H 0.59085 0.39776 0.25619 0.0
H270 H 0.5925 0.33601 0.20916 0.0
H271 H 0.55188 0.3433 0.21862 0.0
H272 H 0.58653 0.37214 0.29293 0.0
H273 H 0.55522 0.36393 0.32365 0.0
H274 H 0.63311 0.36656 0.14288 0.0
H275 H 0.62827 0.31808 0.20519 0.0
H276 H 0.52065 0.33457 0.24995 0.0
H277 H 0.66005 0.34461 0.11539 0.0
H278 H 0.65438 0.29572 0.177 0.0
C279 C 0.10699 0.21915 0.93672 0.0
C280 C 0.09833 0.21547 0.96402 0.0
C281 C 0.12924 0.21504 0.93066 0.0
C282 C 0.14326 0.20735 0.9519 0.0
C283 C 0.13489 0.20524 0.97982 0.0
C284 C 0.11259 0.20918 0.9858 0.0
C285 C 0.16567 0.19938 0.94395 0.0
C286 C 0.17861 0.21002 0.92427 0.0
C287 C 0.19812 0.20077 0.91296 0.0
C288 C 0.2052 0.18088 0.92217 0.0
C289 C 0.1926 0.17018 0.94239 0.0
C290 C 0.173 0.17963 0.95329 0.0
C291 C 0.19799 0.14801 0.94975 0.0
C292 C 0.20088 0.13174 0.92774 0.0
C293 C 0.19734 0.14245 0.97863 0.0
C294 C 0.19859 0.12093 0.9853 0.0
C295 C 0.20015 0.10456 0.96317 0.0
C296 C 0.20962 0.21123 0.8895 0.0
C297 C 0.19746 0.2169 0.86541 0.0
C298 C 0.23217 0.21655 0.89149 0.0
C299 C 0.24223 0.22802 0.87 0.0
C300 C 0.22988 0.23413 0.84614 0.0
C301 C 0.20748 0.22814 0.84393 0.0
C302 C 0.20178 0.11019 0.93438 0.0
H303 H 0.09627 0.22383 0.91951 0.0
H304 H 0.13507 0.21661 0.90881 0.0
H305 H 0.14538 0.19974 -0.00324 0.0
H306 H 0.10628 0.20651 0.00714 0.0
H307 H 0.17315 0.22532 0.917 0.0
H308 H 0.16261 0.17079 0.9675 0.0
H309 H 0.21995 0.17341 0.91287 0.0
H310 H 0.20116 0.13557 0.9053 0.0
H311 H 0.19507 0.15472 0.99597 0.0
H312 H 0.19715 0.11702 0.00764 0.0
H313 H 0.1801 0.21268 0.86324 0.0
H314 H 0.24179 0.21239 0.91 0.0
H315 H 0.20311 0.09786 0.91694 0.0
H316 H 0.19765 0.23201 0.82546 0.0
H317 H 0.25951 0.23246 0.87235 0.0
C318 C 0.34403 0.67163 0.42728 0.0
C319 C 0.35754 0.65337 0.42785 0.0
C320 C 0.32146 0.66944 0.42063 0.0
C321 C 0.31215 0.64896 0.41418 0.0
C322 C 0.32607 0.63089 0.41345 0.0
C323 C 0.34842 0.63306 0.42045 0.0
C324 C 0.28797 0.64607 0.40911 0.0
C325 C 0.27595 0.66 0.39233 0.0
C326 C 0.25341 0.65597 0.3859 0.0
C327 C 0.24295 0.63803 0.39686 0.0
C328 C 0.25484 0.62408 0.41323 0.0
C329 C 0.27706 0.62831 0.41978 0.0
C330 C 0.24541 0.60335 0.42014 0.0
C331 C 0.23464 0.60107 0.44651 0.0
C332 C 0.25044 0.58514 0.40213 0.0
C333 C 0.24637 0.56471 0.41142 0.0
C334 C 0.23727 0.56228 0.43887 0.0
C335 C 0.24139 0.66912 0.36547 0.0
C336 C 0.24472 0.69146 0.36565 0.0
C337 C 0.22716 0.65912 0.34465 0.0
C338 C 0.21693 0.67105 0.32411 0.0
C339 C 0.22092 0.69319 0.32364 0.0
C340 C 0.23464 0.70337 0.34482 0.0
C341 C 0.23044 0.58055 0.4558 0.0
H342 H 0.35076 0.68748 0.43287 0.0
H343 H 0.31121 0.68367 0.4214 0.0
H344 H 0.31968 0.61494 0.40764 0.0
H345 H 0.35862 0.61879 0.42012 0.0
H346 H 0.28443 0.67322 0.38295 0.0
H347 H 0.28598 0.61724 0.4326 0.0
H348 H 0.22575 0.63441 0.39191 0.0
H349 H 0.23082 0.61506 0.46065 0.0
H350 H 0.25885 0.58674 0.38174 0.0
H351 H 0.25165 0.55081 0.39799 0.0
H352 H 0.25532 0.69968 0.38164 0.0
H353 H 0.22456 0.64189 0.34341 0.0
H354 H 0.22355 0.57901 0.47713 0.0
H355 H 0.23782 0.7205 0.34498 0.0
H356 H 0.20672 0.66275 0.30772 0.0
C357 C -0.00407 0.79039 0.73637 0.0
C358 C -0.0033 0.79344 0.76664 0.0
C359 C 0.97893 0.79979 0.72087 0.0
C360 C 0.96294 0.81269 0.73551 0.0
C361 C 0.96406 0.81581 0.76571 0.0
C362 C 0.98071 0.80634 0.78103 0.0
C363 C 0.94446 0.82269 0.72032 0.0
C364 C 0.93018 0.8102 0.7023 0.0
C365 C 0.90981 0.81855 0.6934 0.0
C366 C 0.90393 0.83973 0.70322 0.0
C367 C 0.91806 0.85224 0.72165 0.0
C368 C 0.9388 0.84396 0.72846 0.0
C369 C 0.91046 0.87257 0.73723 0.0
C370 C 0.89762 0.88785 0.72373 0.0
C371 C 0.91606 0.8766 0.76655 0.0
C372 C 0.90998 0.89568 0.78158 0.0
C373 C 0.8977 0.91115 0.76801 0.0
C374 C 0.8938 0.80427 0.67671 0.0
C375 C 0.90122 0.78843 0.65596 0.0
C376 C 0.87097 0.8056 0.68246 0.0
C377 C 0.85606 0.7915 0.66809 0.0
C378 C 0.86349 0.77532 0.64788 0.0
C379 C 0.88629 0.77407 0.64186 0.0
C380 C 0.89119 0.90698 0.73909 0.0
H381 H 0.00821 0.78056 0.72487 0.0
H382 H 0.97836 0.79714 0.69758 0.0
H383 H 0.9518 0.82539 0.77766 0.0
H384 H 0.98112 0.80921 0.80431 0.0
H385 H 0.9342 0.79348 0.69711 0.0
H386 H 0.95008 0.85359 0.74213 0.0
H387 H 0.88798 0.84613 0.69764 0.0
H388 H 0.89293 0.88523 0.70127 0.0
H389 H 0.92512 0.86491 0.77812 0.0
H390 H 0.91478 0.8983 0.80403 0.0
H391 H 0.91863 0.78701 0.65068 0.0
H392 H 0.86452 0.81722 0.69861 0.0
H393 H 0.88161 0.91871 0.72825 0.0
H394 H 0.89271 0.76178 0.6266 0.0
H395 H 0.83861 0.79337 0.67291 0.0
H396 H 0.16983 0.91751 0.09395 0.0
H397 H 0.17941 0.94095 0.13522 0.0
H398 H 0.19722 0.88615 0.18253 0.0
H399 H 0.18735 0.86242 0.1404 0.0
H400 H 0.16174 0.90789 0.20527 0.0
H401 H 0.23491 0.92967 0.17329 0.0
H402 H 0.25914 0.94055 0.13391 0.0
H403 H 0.21871 -0.00399 0.12352 0.0
H404 H 0.19417 0.98541 0.16263 0.0
H405 H 0.15059 0.98688 0.32471 0.0
H406 H 0.1646 0.95744 0.29175 0.0
H407 H 0.16032 -0.00127 0.22064 0.0
H408 H 0.1472 0.02802 0.25355 0.0
H409 H 0.19757 0.97954 0.21774 0.0
H410 H 0.12259 0.95934 0.231 0.0
H411 H 0.08866 0.95009 0.25706 0.0
H412 H 0.12101 0.89524 0.28912 0.0
H413 H 0.15533 0.90439 0.26361 0.0
C414 C 0.1778 0.91054 0.11198 0.0
C415 C 0.17821 0.88829 0.11378 0.0
C416 C 0.18294 0.92399 0.13605 0.0
C417 C 0.18902 0.91534 0.1621 0.0
C418 C 0.19261 0.89315 0.16262 0.0
C419 C 0.18741 0.87965 0.13835 0.0
C420 C 0.18673 0.92891 0.18925 0.0
C421 C 0.17018 0.92325 0.20874 0.0
C422 C 0.19681 0.9494 0.19266 0.0
C423 C 0.21284 0.95684 0.17113 0.0
C424 C 0.23133 0.9443 0.16281 0.0
C425 C 0.24506 0.95037 0.14043 0.0
C426 C 0.24049 0.96898 0.12627 0.0
C427 C 0.2223 0.98167 0.13461 0.0
C428 C 0.20856 0.9757 0.15699 0.0
C429 C 0.15266 0.98945 0.302 0.0
C430 C 0.14806 0.00953 0.29143 0.0
C431 C 0.16061 0.97274 0.28325 0.0
C432 C 0.16364 0.97596 0.25377 0.0
C433 C 0.15846 -0.00403 0.24333 0.0
C434 C 0.15086 0.01263 0.26203 0.0
C435 C 0.17223 0.95874 0.23337 0.0
C436 C 0.18987 0.96379 0.21521 0.0
C437 C 0.16217 0.9382 0.23006 0.0
C438 C 0.1417 0.93281 0.24587 0.0
C439 C 0.12259 0.94548 0.24394 0.0
C440 C 0.10326 0.94022 0.25853 0.0
C441 C 0.10272 0.92216 0.27487 0.0
C442 C 0.1215 0.90929 0.27657 0.0
C443 C 0.14091 0.91452 0.26207 0.0
H444 H 0.08773 0.91809 0.28612 0.0
H445 H 0.25103 0.97355 0.1088 0.0
H446 H 0.64468 0.69064 0.58531 0.0
H447 H 0.6287 0.70206 0.6321 0.0
H448 H 0.56565 0.71104 0.59114 0.0
H449 H 0.58167 0.69937 0.54446 0.0
H450 H 0.57113 0.73855 0.63865 0.0
H451 H 0.57868 0.66377 0.61146 0.0
H452 H 0.59662 0.62923 0.59754 0.0
H453 H 0.63358 0.63313 0.67671 0.0
H454 H 0.61625 0.66801 0.69081 0.0
H455 H 0.48949 0.7064 0.73539 0.0
H456 H 0.51488 0.71187 0.6958 0.0
H457 H 0.57023 0.69827 0.75039 0.0
H458 H 0.54458 0.69216 0.79017 0.0
H459 H 0.57307 0.67621 0.69994 0.0
H460 H 0.55921 0.75134 0.7275 0.0
H461 H 0.53537 0.78273 0.73933 0.0
H462 H 0.50411 0.77404 0.65629 0.0
H463 H 0.52763 0.74254 0.64406 0.0
C464 C 0.62791 0.69665 0.58598 0.0
C465 C 0.61446 0.69434 0.5613 0.0
C466 C 0.61861 0.70262 0.61287 0.0
C467 C 0.59585 0.70676 0.61515 0.0
C468 C 0.58322 0.70773 0.58987 0.0
C469 C 0.59248 0.70146 0.56307 0.0
C470 C 0.58454 0.7071 0.64351 0.0
C471 C 0.57164 0.72497 0.65215 0.0
C472 C 0.5852 0.68928 0.66107 0.0
C473 C 0.59652 0.66881 0.65191 0.0
C474 C 0.59097 0.65752 0.62565 0.0
C475 C 0.60095 0.63781 0.61778 0.0
C476 C 0.61632 0.62904 0.63615 0.0
C477 C 0.62176 0.64 0.66242 0.0
C478 C 0.61191 0.65977 0.67032 0.0
C479 C 0.5071 0.7051 0.73923 0.0
C480 C 0.51507 0.69909 0.76599 0.0
C481 C 0.52164 0.70827 0.71655 0.0
C482 C 0.54455 0.70595 0.72022 0.0
C483 C 0.55263 0.70031 0.74711 0.0
C484 C 0.53801 0.69685 0.7698 0.0
C485 C 0.5597 0.70775 0.69523 0.0
C486 C 0.57318 0.69011 0.68702 0.0
C487 C 0.55909 0.72549 0.67763 0.0
C488 C 0.54515 0.74458 0.68491 0.0
C489 C 0.5472 0.7561 0.71182 0.0
C490 C 0.53376 0.77392 0.71858 0.0
C491 C 0.51824 0.78037 0.69858 0.0
C492 C 0.51616 0.76905 0.67175 0.0
C493 C 0.52958 0.75126 0.66486 0.0
H494 H 0.50783 0.79415 0.70388 0.0
H495 H 0.62393 0.61372 0.6301 0.0
H496 H 0.78502 0.10055 0.00612 0.0
H497 H 0.75839 0.07343 0.02058 0.0
H498 H 0.8118 0.02866 0.02958 0.0
H499 H 0.83856 0.05612 0.01639 0.0
H500 H 0.76793 0.01577 -0.0036 0.0
H501 H 0.80138 0.04831 0.08502 0.0
H502 H 0.81005 0.07758 0.12152 0.0
H503 H 0.74075 0.09026 0.13333 0.0
H504 H 0.73168 0.0613 0.09642 0.0
H505 H 0.76276 0.93002 0.07947 0.0
H506 H 0.76917 0.9629 0.05533 0.0
H507 H 0.70919 0.99001 0.09272 0.0
H508 H 0.70323 0.95677 0.11817 0.0
H509 H 0.74374 0.01747 0.09874 0.0
H510 H 0.71217 0.97681 0.01774 0.0
H511 H 0.70631 0.94504 0.9841 0.0
H512 H 0.77493 0.94591 0.96004 0.0
H513 H 0.78127 0.97746 0.99372 0.0
C514 C 0.79086 0.08455 0.00987 0.0
C515 C 0.81358 0.07998 0.0094 0.0
C516 C 0.77577 0.06937 0.01877 0.0
C517 C 0.78336 0.04943 0.02663 0.0
C518 C 0.80586 0.04419 0.02379 0.0
C519 C 0.82101 0.05957 0.01564 0.0
C520 C 0.76796 0.03366 0.03746 0.0
C521 C 0.76241 0.01612 0.01869 0.0
C522 C 0.7603 0.03481 0.06632 0.0
C523 C 0.76587 0.05299 0.08734 0.0
C524 C 0.788 0.05766 0.09485 0.0
C525 C 0.79299 0.0741 0.11579 0.0
C526 C 0.77597 0.08588 0.1296 0.0
C527 C 0.75392 0.08122 0.12249 0.0
C528 C 0.74886 0.06482 0.10153 0.0
C529 C 0.75074 0.94286 0.08205 0.0
C530 C 0.7324 0.94101 0.10013 0.0
C531 C 0.75428 0.96156 0.06813 0.0
C532 C 0.73928 0.97864 0.07149 0.0
C533 C 0.72072 0.97681 0.08948 0.0
C534 C 0.71727 0.95796 0.10384 0.0
C535 C 0.74468 -0.00119 0.05799 0.0
C536 C 0.74832 0.01739 0.07612 0.0
C537 C 0.75095 -0.00145 0.02857 0.0
C538 C 0.74714 0.97957 0.0082 0.0
C539 C 0.72601 0.97018 0.00534 0.0
C540 C 0.72261 0.9522 0.98625 0.0
C541 C 0.74022 0.94348 0.96992 0.0
C542 C 0.76128 0.95271 0.97263 0.0
C543 C 0.76477 0.97068 0.99165 0.0
H544 H 0.73755 0.92956 0.95518 0.0
H545 H 0.77986 0.09852 0.1459 0.0
H546 H 0.40496 0.30631 0.5322 0.0
H547 H 0.43939 0.28641 0.53442 0.0
H548 H 0.42343 0.27019 0.62113 0.0
H549 H 0.38924 0.291 0.61911 0.0
H550 H 0.45994 0.29498 0.61837 0.0
H551 H 0.43286 0.23061 0.56347 0.0
H552 H 0.41328 0.21421 0.52086 0.0
H553 H 0.46105 0.24133 0.46489 0.0
H554 H 0.48084 0.25791 0.50715 0.0
H555 H 0.56738 0.26437 0.64407 0.0
H556 H 0.52769 0.26173 0.63856 0.0
H557 H 0.53451 0.26462 0.5463 0.0
H558 H 0.57448 0.26408 0.55109 0.0
H559 H 0.50108 0.24308 0.5533 0.0
H560 H 0.52424 0.31055 0.59605 0.0
H561 H 0.54267 0.33658 0.63047 0.0
H562 H 0.50255 0.31499 0.69942 0.0
H563 H 0.4841 0.28859 0.66548 0.0
C564 C 0.40813 0.29728 0.55094 0.0
C565 C 0.39453 0.29987 0.57535 0.0
C566 C 0.42791 0.28599 0.55231 0.0
C567 C 0.43402 0.27682 0.578 0.0
C568 C 0.41897 0.27712 0.60111 0.0
C569 C 0.39932 0.2887 0.59984 0.0
C570 C 0.45745 0.27121 0.58275 0.0
C571 C 0.46884 0.28313 0.60474 0.0
C572 C 0.46927 0.25694 0.56361 0.0
C573 C 0.45833 0.24549 0.53846 0.0
C574 C 0.43924 0.23297 0.54207 0.0
C575 C 0.42808 0.22367 0.51798 0.0
C576 C 0.43591 0.22672 0.49019 0.0
C577 C 0.45503 0.23892 0.48642 0.0
C578 C 0.46627 0.2482 0.51043 0.0
C579 C 0.56073 0.26361 0.6224 0.0
C580 C 0.57454 0.2649 0.59806 0.0
C581 C 0.53779 0.26255 0.61936 0.0
C582 C 0.52796 0.26388 0.59214 0.0
C583 C 0.5416 0.2639 0.56766 0.0
C584 C 0.5646 0.26404 0.57053 0.0
C585 C 0.50362 0.26659 0.58941 0.0
C586 C 0.49213 0.25444 0.56759 0.0
C587 C 0.49181 0.28162 0.6077 0.0
C588 C 0.50301 0.29736 0.62828 0.0
C589 C 0.51949 0.31121 0.6186 0.0
C590 C 0.52992 0.32605 0.63802 0.0
C591 C 0.52385 0.32738 0.66714 0.0
C592 C 0.50729 0.3139 0.67688 0.0
C593 C 0.49684 0.29898 0.65756 0.0
H594 H 0.53192 0.3389 0.68213 0.0
H595 H 0.42717 0.21963 0.47156 0.0
H596 H 0.70316 0.6075 0.42785 0.0
H597 H 0.70816 0.57776 0.39158 0.0
H598 H 0.65314 0.5444 0.42825 0.0
H599 H 0.64944 0.5732 0.46556 0.0
H600 H 0.67339 0.51699 0.39878 0.0
H601 H 0.6458 0.58552 0.38003 0.0
H602 H 0.64484 0.62492 0.37757 0.0
H603 H 0.69961 0.62193 0.31849 0.0
H604 H 0.701 0.58249 0.32075 0.0
H605 H 0.61608 0.48712 0.26785 0.0
H606 H 0.62636 0.51645 0.30306 0.0
H607 H 0.69522 0.50005 0.29179 0.0
H608 H 0.68491 0.47041 0.25702 0.0
H609 H 0.66884 0.55253 0.30609 0.0
H610 H 0.69053 0.47612 0.33889 0.0
H611 H 0.6774 0.43869 0.34152 0.0
H612 H 0.61479 0.46154 0.37457 0.0
H613 H 0.62759 0.49905 0.37196 0.0
C614 C 0.69333 0.59304 0.42936 0.0
C615 C 0.67574 0.59259 0.44901 0.0
C616 C 0.69586 0.57625 0.40832 0.0
C617 C 0.68017 0.55953 0.40622 0.0
C618 C 0.66519 0.55734 0.42902 0.0
C619 C 0.66321 0.57375 0.45064 0.0
C620 C 0.67648 0.54705 0.3784 0.0
C621 C 0.67276 0.52485 0.37859 0.0
C622 C 0.67427 0.55735 0.35204 0.0
C623 C 0.67373 0.58109 0.35089 0.0
C624 C 0.65776 0.59329 0.3667 0.0
C625 C 0.65712 0.61561 0.36532 0.0
C626 C 0.67224 0.62593 0.34803 0.0
C627 C 0.68797 0.61392 0.33198 0.0
C628 C 0.68869 0.59158 0.33328 0.0
C629 C 0.63345 0.49057 0.27182 0.0
C630 C 0.6498 0.47684 0.2598 0.0
C631 C 0.63928 0.5072 0.29192 0.0
C632 C 0.66149 0.51018 0.29989 0.0
C633 C 0.67802 0.49793 0.2856 0.0
C634 C 0.67218 0.48115 0.26574 0.0
C635 C 0.66692 0.52273 0.32678 0.0
C636 C 0.67038 0.54486 0.32634 0.0
C637 C 0.66731 0.51275 0.35321 0.0
C638 C 0.65998 0.49025 0.3552 0.0
C639 C 0.67398 0.4731 0.34669 0.0
C640 C 0.66661 0.4519 0.3482 0.0
C641 C 0.64528 0.44774 0.35821 0.0
C642 C 0.6313 0.46477 0.36682 0.0
C643 C 0.63862 0.48597 0.36538 0.0
H644 H 0.63958 0.43132 0.35928 0.0
H645 H 0.6717 0.64322 0.34697 0.0
H646 H 0.88381 0.21461 0.9559 0.0
H647 H 0.92166 0.2282 0.96514 0.0
H648 H 0.94137 0.16554 0.99006 0.0
H649 H 0.90411 0.15192 0.97974 0.0
H650 H 0.96214 0.19938 0.02296 0.0
H651 H 0.94875 0.17342 0.92505 0.0
H652 H 0.92789 0.1712 0.87931 0.0
H653 H 0.94019 0.23823 0.86937 0.0
H654 H 0.96088 0.24089 0.91538 0.0
H655 H 0.07374 0.18397 0.98571 0.0
H656 H 0.03361 0.18217 0.99015 0.0
H657 H 0.02807 0.24494 0.95661 0.0
H658 H 0.06851 0.2465 0.95129 0.0
H659 H -0.00107 0.21666 0.9315 0.0
H660 H 0.02064 0.23698 0.03008 0.0
H661 H 0.04292 0.23273 0.07387 0.0
H662 H 0.01632 0.16926 0.08062 0.0
H663 H 0.99412 0.17302 0.03667 0.0
C664 C 0.89614 0.20408 0.96429 0.0
C665 C 0.8912 0.18246 0.96789 0.0
C666 C 0.91763 0.21177 0.9695 0.0
C667 C 0.93418 0.19782 0.97833 0.0
C668 C 0.92874 0.17658 0.98369 0.0
C669 C 0.90747 0.16886 0.97801 0.0
C670 C 0.95769 0.20413 0.97781 0.0
C671 C 0.97022 0.20336 0.00309 0.0
C672 C 0.96812 0.20898 0.95171 0.0
C673 C 0.9561 0.20743 0.9238 0.0
C674 C 0.94686 0.18772 0.91321 0.0
C675 C 0.93509 0.18637 0.88724 0.0
C676 C 0.93265 0.20458 0.87148 0.0
C677 C 0.94206 0.22415 0.88164 0.0
C678 C 0.95381 0.22559 0.90766 0.0
C679 C 0.06399 0.19756 0.97979 0.0
C680 C 0.07416 0.21554 0.96864 0.0
C681 C 0.04107 0.19652 0.98232 0.0
C682 C 0.0279 0.21365 0.97437 0.0
C683 C 0.03799 0.23165 0.96312 0.0
C684 C 0.061 0.23256 0.96018 0.0
C685 C 0.00353 0.2122 0.97682 0.0
C686 C 0.99082 0.21354 0.95169 0.0
C687 C 0.99309 0.20721 0.00293 0.0
C688 C 0.00575 0.20529 0.03004 0.0
C689 C 0.01956 0.22212 0.04089 0.0
C690 C 0.0322 0.21978 0.06572 0.0
C691 C 0.03105 0.20073 0.08 0.0
C692 C 0.01718 0.18401 0.06956 0.0
C693 C 0.00453 0.18626 0.04473 0.0
H694 H 0.0409 0.19894 0.09917 0.0
H695 H 0.92352 0.20352 0.85138 0.0
H696 H 0.26784 0.36976 0.51555 0.0
H697 H 0.24659 0.40338 0.52025 0.0
H698 H 0.30747 0.43967 0.51532 0.0
H699 H 0.32848 0.4063 0.51289 0.0
H700 H 0.28062 0.46266 0.54528 0.0
H701 H 0.27681 0.4218 0.45338 0.0
H702 H 0.26906 0.38871 0.42299 0.0
H703 H 0.2009 0.39107 0.44931 0.0
H704 H 0.20838 0.42407 0.4802 0.0
H705 H 0.27359 0.53759 0.44129 0.0
H706 H 0.27787 0.50436 0.46563 0.0
H707 H 0.20909 0.50659 0.4906 0.0
H708 H 0.2047 0.54038 0.46625 0.0
H709 H 0.22898 0.46474 0.46233 0.0
H710 H 0.24003 0.51861 0.54125 0.0
H711 H 0.25655 0.55244 0.5618 0.0
H712 H 0.32167 0.52649 0.54798 0.0
H713 H 0.3056 0.49266 0.52688 0.0
C714 C 0.27649 0.38504 0.51599 0.0
C715 C 0.29953 0.3858 0.51306 0.0
C716 C 0.26446 0.40415 0.5188 0.0
C717 C 0.27538 0.42403 0.51734 0.0
C718 C 0.29861 0.42459 0.51644 0.0
C719 C 0.3106 0.40558 0.5146 0.0
C720 C 0.26303 0.44386 0.51202 0.0
C721 C 0.26906 0.4631 0.52744 0.0
C722 C 0.24799 0.44445 0.48865 0.0
C723 C 0.24317 0.42522 0.46924 0.0
C724 C 0.26018 0.41524 0.45265 0.0
C725 C 0.25585 0.3965 0.43541 0.0
C726 C 0.23451 0.38777 0.43428 0.0
C727 C 0.21743 0.39784 0.45027 0.0
C728 C 0.22169 0.41656 0.46764 0.0
C729 C 0.25929 0.53088 0.45163 0.0
C730 C 0.23876 0.54135 0.45175 0.0
C731 C 0.26181 0.51206 0.46573 0.0
C732 C 0.24385 0.50333 0.48011 0.0
C733 C 0.22312 0.51334 0.47973 0.0
C734 C 0.22064 0.53248 0.46588 0.0
C735 C 0.24722 0.48344 0.49492 0.0
C736 C 0.23959 0.46421 0.48114 0.0
C737 C 0.26188 0.48299 0.51862 0.0
C738 C 0.27155 0.50305 0.53249 0.0
C739 C 0.25787 0.52012 0.54254 0.0
C740 C 0.26717 0.53932 0.55426 0.0
C741 C 0.29014 0.54161 0.55621 0.0
C742 C 0.30388 0.52468 0.54652 0.0
C743 C 0.29467 0.50547 0.53474 0.0
H744 H 0.2973 0.55651 0.56522 0.0
H745 H 0.23119 0.37322 0.42097 0.0
H746 H 0.14036 0.79746 0.96616 0.0
H747 H 0.12559 0.78435 0.91918 0.0
H748 H 0.06059 0.77937 0.95661 0.0
H749 H 0.07512 0.7936 0.00327 0.0
H750 H 0.07488 0.74586 0.90864 0.0
H751 H 0.0663 0.82149 0.93606 0.0
H752 H 0.07796 0.85824 0.95205 0.0
H753 H 0.12139 0.86004 0.87898 0.0
H754 H 0.11042 0.823 0.86297 0.0
H755 H 0.99055 0.76939 0.81243 0.0
H756 H 0.01761 0.76235 0.84932 0.0
H757 H 0.06921 0.78888 0.79769 0.0
H758 H 0.04165 0.79675 0.76094 0.0
H759 H 0.06809 0.8087 0.8488 0.0
H760 H 0.06979 0.73369 0.81771 0.0
H761 H 0.05441 0.69798 0.80279 0.0
H762 H 0.01971 0.69657 0.88346 0.0
H763 H 0.03475 0.7323 0.89876 0.0
C764 C 0.12323 0.79225 0.96474 0.0
C765 C 0.10884 0.7963 0.98818 0.0
C766 C 0.11476 0.78516 0.93782 0.0
C767 C 0.09201 0.78135 0.93454 0.0
C768 C 0.07821 0.78232 0.95889 0.0
C769 C 0.08656 0.79007 0.98561 0.0
C770 C 0.08211 0.77938 0.90551 0.0
C771 C 0.0734 0.75951 0.89538 0.0
C772 C 0.08055 0.79728 0.88834 0.0
C773 C 0.088 0.81918 0.89875 0.0
C774 C 0.07875 0.82947 0.92378 0.0
C775 C 0.08513 0.85043 0.93275 0.0
C776 C 0.10053 0.86142 0.91666 0.0
C777 C 0.10958 0.85146 0.89155 0.0
C778 C 0.10334 0.83045 0.88256 0.0
C779 C 0.00779 0.7731 0.80855 0.0
C780 C 0.01404 0.78377 0.78406 0.0
C781 C 0.02334 0.76889 0.82956 0.0
C782 C 0.04555 0.77493 0.82628 0.0
C783 C 0.05217 0.78401 0.80063 0.0
C784 C 0.03649 0.78837 0.77957 0.0
C785 C 0.06062 0.77502 0.85154 0.0
C786 C 0.07018 0.79473 0.86133 0.0
C787 C 0.06261 0.75707 0.86862 0.0
C788 C 0.05336 0.73569 0.85931 0.0
C789 C 0.05877 0.72581 0.83217 0.0
C790 C 0.05015 0.70555 0.82369 0.0
C791 C 0.03609 0.69501 0.84216 0.0
C792 C 0.03063 0.70472 0.86918 0.0
C793 C 0.03925 0.72495 0.8778 0.0
H794 H 0.02943 0.67933 0.83554 0.0
H795 H 0.10535 0.87769 0.92355 0.0
H796 H 0.89739 0.07768 0.94162 0.0
H797 H 0.90227 0.04342 0.91363 0.0
H798 H 0.83137 0.03556 0.90835 0.0
H799 H 0.82657 0.06964 0.93705 0.0
H800 H 0.85163 -0.00307 0.90883 0.0
H801 H 0.85846 0.06021 0.85668 0.0
H802 H 0.87272 0.09585 0.84549 0.0
H803 H 0.93817 0.06995 0.83494 0.0
H804 H 0.92437 0.03421 0.84654 0.0
H805 H 0.8568 0.92893 0.77784 0.0
H806 H 0.84787 0.96026 0.81073 0.0
H807 H 0.91739 0.97007 0.82844 0.0
H808 H 0.92627 0.93886 0.79594 0.0
H809 H 0.89488 0.00809 0.81999 0.0
H810 H 0.88692 0.94466 0.87429 0.0
H811 H 0.87139 0.90933 0.88467 0.0
H812 H 0.80608 0.93624 0.88919 0.0
H813 H 0.8212 0.97168 0.87837 0.0
C814 C 0.88292 0.068 0.93586 0.0
C815 C 0.86164 0.07598 0.9418 0.0
C816 C 0.88568 0.04864 0.91943 0.0
C817 C 0.86716 0.03727 0.90819 0.0
C818 C 0.84588 0.04414 0.91664 0.0
C819 C 0.84314 0.06346 0.93331 0.0
C820 C 0.87 0.01975 0.88528 0.0
C821 C 0.86085 -0.00056 0.88925 0.0
C822 C 0.88202 0.02303 0.85964 0.0
C823 C 0.89041 0.04456 0.85279 0.0
C824 C 0.87593 0.06215 0.85224 0.0
C825 C 0.88393 0.08237 0.84578 0.0
C826 C 0.90635 0.08518 0.83958 0.0
C827 C 0.92081 0.06776 0.83979 0.0
C828 C 0.91291 0.04751 0.84631 0.0
C829 C 0.87011 0.93805 0.78843 0.0
C830 C 0.89219 0.93153 0.78451 0.0
C831 C 0.86502 0.95579 0.80732 0.0
C832 C 0.88197 0.96732 0.82224 0.0
C833 C 0.90406 0.96137 0.81722 0.0
C834 C 0.90912 0.94355 0.79871 0.0
C835 C 0.87693 0.98518 0.84386 0.0
C836 C 0.88558 0.00563 0.83953 0.0
C837 C 0.86425 0.98207 0.86894 0.0
C838 C 0.85515 0.96074 0.87515 0.0
C839 C 0.86922 0.94299 0.87718 0.0
C840 C 0.8605 0.92295 0.88321 0.0
C841 C 0.83776 0.92052 0.88749 0.0
C842 C 0.82369 0.93813 0.88579 0.0
C843 C 0.83232 0.95819 0.87971 0.0
H844 H 0.83104 0.90501 0.8922 0.0
H845 H 0.9125 0.10084 0.83455 0.0
H846 H 0.38917 0.313 0.48016 0.0
H847 H 0.41671 0.3121 0.44124 0.0
H848 H 0.42954 0.37973 0.45925 0.0
H849 H 0.40279 0.3804 0.49945 0.0
H850 H 0.41509 0.3559 0.39462 0.0
H851 H 0.46655 0.36209 0.47599 0.0
H852 H 0.48181 0.35086 0.52189 0.0
H853 H 0.49594 0.28836 0.48213 0.0
H854 H 0.47996 0.29896 0.43628 0.0
H855 H 0.50692 0.37945 0.30728 0.0
H856 H 0.47798 0.37677 0.34384 0.0
H857 H 0.493 0.30954 0.3497 0.0
H858 H 0.5221 0.31232 0.31294 0.0
H859 H 0.49266 0.33101 0.40213 0.0
H860 H 0.44477 0.32332 0.32142 0.0
H861 H 0.42839 0.33142 0.27474 0.0
H862 H 0.40679 0.39284 0.31113 0.0
H863 H 0.42335 0.38526 0.35798 0.0
C864 C 0.39813 0.32758 0.47599 0.0
C865 C 0.39413 0.34674 0.49264 0.0
C866 C 0.41377 0.32704 0.45389 0.0
C867 C 0.42511 0.34581 0.44767 0.0
C868 C 0.42102 0.36507 0.4641 0.0
C869 C 0.40587 0.36544 0.48694 0.0
C870 C 0.44042 0.34533 0.42298 0.0
C871 C 0.43218 0.35082 0.39622 0.0
C872 C 0.46227 0.33766 0.42513 0.0
C873 C 0.47159 0.33119 0.45285 0.0
C874 C 0.47244 0.3458 0.47719 0.0
C875 C 0.48128 0.33956 0.5032 0.0
C876 C 0.48963 0.31882 0.50503 0.0
C877 C 0.48923 0.30433 0.48081 0.0
C878 C 0.48024 0.31043 0.45481 0.0
C879 C 0.50362 0.36403 0.31598 0.0
C880 C 0.51639 0.34604 0.30742 0.0
C881 C 0.48714 0.36249 0.33676 0.0
C882 C 0.4833 0.34293 0.34934 0.0
C883 C 0.49571 0.32474 0.34016 0.0
C884 C 0.51214 0.32627 0.31916 0.0
C885 C 0.46756 0.34211 0.37365 0.0
C886 C 0.47561 0.33617 0.40037 0.0
C887 C 0.44541 0.34907 0.37136 0.0
C888 C 0.43551 0.3538 0.34317 0.0
C889 C 0.43672 0.33865 0.31942 0.0
C890 C 0.42736 0.34313 0.29293 0.0
C891 C 0.41661 0.36265 0.28995 0.0
C892 C 0.41516 0.37773 0.31347 0.0
C893 C 0.42451 0.37334 0.34001 0.0
H894 H 0.40935 0.36609 0.26943 0.0
H895 H 0.49654 0.31404 0.52516 0.0
H896 H 0.12283 0.92128 0.99583 0.0
H897 H 0.13818 0.9564 0.98666 0.0
H898 H 0.19557 0.94327 0.03773 0.0
H899 H 0.18066 0.90736 0.04594 0.0
H900 H 0.17548 0.9856 0.04907 0.0
H901 H 0.20316 0.94015 0.97025 0.0
H902 H 0.2012 0.91307 0.92922 0.0
H903 H 0.15655 0.95319 0.88513 0.0
H904 H 0.15796 0.98038 0.92607 0.0
H905 H 0.22296 0.08327 0.0036 0.0
H906 H 0.21807 0.04581 0.01575 0.0
H907 H 0.16678 0.03752 0.95118 0.0
H908 H 0.17233 0.0745 0.93829 0.0
H909 H 0.19028 0.00386 0.94834 0.0
H910 H 0.15743 0.04633 0.02794 0.0
H911 H 0.15644 0.07324 0.06925 0.0
H912 H 0.20717 0.03903 0.11182 0.0
H913 H 0.20867 0.01208 0.07057 0.0
C914 C 0.13865 0.92587 0.00537 0.0
C915 C 0.15036 0.91169 0.02219 0.0
C916 C 0.14743 0.94592 -4e-05 0.0
C917 C 0.16807 0.95234 0.01132 0.0
C918 C 0.17958 0.93857 0.02882 0.0
C919 C 0.17092 0.91824 0.03387 0.0
C920 C 0.17729 0.97353 0.0047 0.0
C921 C 0.17919 0.98956 0.02714 0.0
C922 C 0.18159 0.97869 0.97597 0.0
C923 C 0.18053 0.96224 0.95139 0.0
C924 C 0.19274 0.94311 0.95195 0.0
C925 C 0.19177 0.92776 0.92866 0.0
C926 C 0.17872 0.93138 0.90461 0.0
C927 C 0.16663 0.95039 0.90378 0.0
C928 C 0.16753 0.96579 0.92701 0.0
C929 C 0.21076 0.07333 0.99195 0.0
C930 C 0.1981 0.0817 0.96992 0.0
C931 C 0.20786 0.05198 -0.00099 0.0
C932 C 0.19182 0.03882 0.9847 0.0
C933 C 0.17934 0.04722 0.9625 0.0
C934 C 0.18253 0.06837 0.95509 0.0
C935 C 0.18775 0.01634 0.99261 0.0
C936 C 0.18688 -3e-05 0.97037 0.0
C937 C 0.18401 0.01096 0.02148 0.0
C938 C 0.18339 0.02738 0.046 0.0
C939 C 0.16854 0.04469 0.04597 0.0
C940 C 0.16785 0.05992 0.0694 0.0
C941 C 0.1818 0.0579 0.09309 0.0
C942 C 0.19643 0.04062 0.09342 0.0
C943 C 0.19722 0.02537 0.07003 0.0
H944 H 0.18121 0.06969 0.11123 0.0
H945 H 0.17801 0.91949 0.8866 0.0
H946 H 0.56616 0.65685 0.42835 0.0
H947 H 0.52622 0.66225 0.42794 0.0
H948 H 0.52085 0.63502 0.51078 0.0
H949 H 0.56133 0.63021 0.51188 0.0
H950 H 0.4926 0.61693 0.45961 0.0
H951 H 0.51219 0.68228 0.51462 0.0
H952 H 0.53249 0.7163 0.52474 0.0
H953 H 0.50672 0.74061 0.44705 0.0
H954 H 0.48662 0.70656 0.43613 0.0
H955 H 0.37795 0.6317 0.4691 0.0
H956 H 0.41725 0.63197 0.48143 0.0
H957 H 0.42956 0.67858 0.4183 0.0
H958 H 0.38991 0.67887 0.40667 0.0
H959 H 0.45465 0.6875 0.46331 0.0
H960 H 0.43926 0.62409 0.4039 0.0
H961 H 0.42044 0.59021 0.38805 0.0
H962 H 0.4401 0.56233 0.4663 0.0
H963 H 0.45875 0.59618 0.48284 0.0
C964 C 0.55653 0.65197 0.44653 0.0
C965 C 0.56679 0.64283 0.47002 0.0
C966 C 0.53375 0.65528 0.44634 0.0
C967 C 0.52071 0.64917 0.46938 0.0
C968 C 0.53078 0.63996 0.49291 0.0
C969 C 0.55379 0.63714 0.49347 0.0
C970 C 0.4964 0.65109 0.46751 0.0
C971 C 0.48414 0.63229 0.46111 0.0
C972 C 0.48577 0.67128 0.46802 0.0
C973 C 0.49807 0.69172 0.4744 0.0
C974 C 0.51107 0.69475 0.49949 0.0
C975 C 0.52249 0.71408 0.50541 0.0
C976 C 0.52093 0.73059 0.48652 0.0
C977 C 0.50794 0.7278 0.46165 0.0
C978 C 0.49652 0.70848 0.45559 0.0
C979 C 0.38905 0.64211 0.45803 0.0
C980 C 0.38103 0.6551 0.43674 0.0
C981 C 0.4115 0.64221 0.465 0.0
C982 C 0.42648 0.65491 0.45032 0.0
C983 C 0.41835 0.66858 0.42984 0.0
C984 C 0.39575 0.66874 0.42318 0.0
C985 C 0.45066 0.65324 0.45563 0.0
C986 C 0.46296 0.67208 0.46228 0.0
C987 C 0.46153 0.6331 0.45454 0.0
C988 C 0.45017 0.61277 0.44477 0.0
C989 C 0.43939 0.61081 0.41786 0.0
C990 C 0.42878 0.59159 0.40872 0.0
C991 C 0.42901 0.57415 0.42619 0.0
C992 C 0.43989 0.57587 0.45282 0.0
C993 C 0.45048 0.59507 0.46208 0.0
H994 H 0.42082 0.55928 0.41907 0.0
H995 H 0.52975 0.74556 0.49117 0.0
H996 H 0.33299 0.40219 0.64443 0.0
H997 H 0.3368 0.43334 0.67896 0.0
H998 H 0.37277 0.46712 0.61525 0.0
H999 H 0.37002 0.43549 0.58144 0.0
H1000 H 0.39578 0.46682 0.66229 0.0
H1001 H 0.31772 0.4816 0.64344 0.0
H1002 H 0.2782 0.47145 0.64122 0.0
H1003 H 0.27954 0.45805 0.73085 0.0
H1004 H 0.3191 0.46793 0.73352 0.0
H1005 H 0.41102 0.56878 0.73226 0.0
H1006 H 0.40051 0.53774 0.70028 0.0
H1007 H 0.36198 0.5126 0.76908 0.0
H1008 H 0.37153 0.54452 0.80051 0.0
H1009 H 0.33995 0.50606 0.72334 0.0
H1010 H 0.41489 0.49157 0.74542 0.0
H1011 H 0.45502 0.49787 0.751 0.0
H1012 H 0.46094 0.50598 0.66012 0.0
H1013 H 0.42079 0.50003 0.65404 0.0
C1014 C 0.34089 0.41662 0.63749 0.0
C1015 C 0.35103 0.41662 0.61026 0.0
C1016 C 0.34316 0.43443 0.65729 0.0
C1017 C 0.35511 0.45269 0.64981 0.0
C1018 C 0.36361 0.45322 0.62165 0.0
C1019 C 0.36181 0.43527 0.60219 0.0
C1020 C 0.36104 0.47019 0.67189 0.0
C1021 C 0.38351 0.47568 0.67526 0.0
C1022 C 0.34525 0.48085 0.69018 0.0
C1023 C 0.32137 0.47538 0.68862 0.0
C1024 C 0.30959 0.47642 0.66263 0.0
C1025 C 0.28719 0.47072 0.6613 0.0
C1026 C 0.27638 0.46407 0.68586 0.0
C1027 C 0.28792 0.4632 0.71184 0.0
C1028 C 0.31032 0.46889 0.71329 0.0
C1029 C 0.40036 0.55655 0.74047 0.0
C1030 C 0.39213 0.55887 0.76876 0.0
C1031 C 0.39447 0.53871 0.7223 0.0
C1032 C 0.3808 0.52244 0.73234 0.0
C1033 C 0.37257 0.52483 0.76074 0.0
C1034 C 0.37806 0.54298 0.77873 0.0
C1035 C 0.37466 0.50336 0.71286 0.0
C1036 C 0.35225 0.49734 0.71026 0.0
C1037 C 0.39058 0.4918 0.69572 0.0
C1038 C 0.41476 0.49555 0.69933 0.0
C1039 C 0.42471 0.49488 0.72666 0.0
C1040 C 0.44747 0.49835 0.72991 0.0
C1041 C 0.46051 0.50238 0.70595 0.0
C1042 C 0.45082 0.50289 0.67867 0.0
C1043 C 0.42806 0.49945 0.67531 0.0
H1044 H 0.47813 0.50505 0.7085 0.0
H1045 H 0.25905 0.45963 0.68477 0.0
H1046 H 0.06284 0.82821 0.1198 0.0
H1047 H 0.02326 0.82042 0.12072 0.0
H1048 H 0.01725 0.83929 0.03323 0.0
H1049 H 0.05743 0.84667 0.03198 0.0
H1050 H 0.98956 0.86197 0.07782 0.0
H1051 H 0.0086 0.78982 0.04316 0.0
H1052 H 0.02958 0.75606 0.04439 0.0
H1053 H 0.00425 0.7465 0.12911 0.0
H1054 H 0.98342 0.7804 0.12863 0.0
H1055 H 0.87435 0.84753 0.07912 0.0
H1056 H 0.91334 0.84566 0.06499 0.0
H1057 H 0.92728 0.80824 0.13802 0.0
H1058 H 0.88791 0.80918 0.15117 0.0
H1059 H 0.95121 0.79365 0.09618 0.0
H1060 H 0.93773 0.86404 0.13747 0.0
H1061 H 0.91975 0.8994 0.14477 0.0
H1062 H 0.93764 0.9143 0.05871 0.0
H1063 H 0.95544 0.87887 0.05072 0.0
C1064 C 0.05315 0.8303 0.10054 0.0
C1065 C 0.06298 0.83826 0.0759 0.0
C1066 C 0.03059 0.82574 0.10107 0.0
C1067 C 0.01738 0.8293 0.07708 0.0
C1068 C 0.02729 0.83641 0.05191 0.0
C1069 C 0.05012 0.84056 0.05116 0.0
C1070 C 0.99304 0.82779 0.07986 0.0
C1071 C 0.98099 0.84697 0.08103 0.0
C1072 C 0.9823 0.80837 0.08581 0.0
C1073 C 0.99453 0.78775 0.0859 0.0
C1074 C 0.00761 0.78061 0.06214 0.0
C1075 C 0.01947 0.76143 0.0627 0.0
C1076 C 0.01827 0.74916 0.08683 0.0
C1077 C 0.00516 0.75602 0.11043 0.0
C1078 C 0.9933 0.7752 0.11001 0.0
C1079 C 0.88577 0.83875 0.09193 0.0
C1080 C 0.8783 0.82859 0.11627 0.0
C1081 C 0.90805 0.83779 0.08399 0.0
C1082 C 0.92343 0.82723 0.1008 0.0
C1083 C 0.9158 0.81653 0.12471 0.0
C1084 C 0.89337 0.81708 0.13227 0.0
C1085 C 0.94749 0.82789 0.09387 0.0
C1086 C 0.95958 0.80863 0.09233 0.0
C1087 C 0.95853 0.84741 0.08872 0.0
C1088 C 0.94766 0.86866 0.09335 0.0
C1089 C 0.93764 0.87476 0.11999 0.0
C1090 C 0.92751 0.89483 0.12428 0.0
C1091 C 0.92748 0.90905 0.10218 0.0
C1092 C 0.93762 0.90324 0.07578 0.0
C1093 C 0.94773 0.88317 0.07135 0.0
H1094 H 0.91966 0.9246 0.10555 0.0
H1095 H 0.02748 0.73432 0.08722 0.0
H1096 H 0.61941 0.56431 0.5433 0.0
H1097 H 0.633 0.52863 0.55243 0.0
H1098 H 0.69908 0.54774 0.52928 0.0
H1099 H 0.68515 0.58341 0.5187 0.0
H1100 H 0.69272 0.50742 0.51145 0.0
H1101 H 0.68207 0.54683 0.60171 0.0
H1102 H 0.66228 0.5695 0.63875 0.0
H1103 H 0.61248 0.52062 0.64448 0.0
H1104 H 0.63179 0.49778 0.60718 0.0
H1105 H 0.73252 0.4158 0.58858 0.0
H1106 H 0.72675 0.45331 0.57622 0.0
H1107 H 0.65652 0.4414 0.56947 0.0
H1108 H 0.66229 0.40403 0.58093 0.0
H1109 H 0.67081 0.47988 0.60542 0.0
H1110 H 0.68067 0.44264 0.51095 0.0
H1111 H 0.70142 0.42027 0.47457 0.0
H1112 H 0.75495 0.46588 0.47919 0.0
H1113 H 0.73461 0.48838 0.51595 0.0
C1114 C 0.63679 0.56082 0.53978 0.0
C1115 C 0.65127 0.57665 0.53055 0.0
C1116 C 0.6446 0.54047 0.54524 0.0
C1117 C 0.66723 0.53567 0.54255 0.0
C1118 C 0.6816 0.55111 0.53186 0.0
C1119 C 0.67365 0.57145 0.52577 0.0
C1120 C 0.67567 0.51473 0.5517 0.0
C1121 C 0.68827 0.50162 0.53224 0.0
C1122 C 0.66992 0.50701 0.57885 0.0
C1123 C 0.65833 0.52064 0.60149 0.0
C1124 C 0.66683 0.54096 0.61075 0.0
C1125 C 0.65571 0.55384 0.63181 0.0
C1126 C 0.63612 0.54652 0.64393 0.0
C1127 C 0.62765 0.52627 0.63507 0.0
C1128 C 0.6387 0.51334 0.61399 0.0
C1129 C 0.71592 0.4213 0.58438 0.0
C1130 C 0.69783 0.40716 0.58555 0.0
C1131 C 0.71265 0.4426 0.57728 0.0
C1132 C 0.69121 0.45004 0.57189 0.0
C1133 C 0.67317 0.43595 0.57353 0.0
C1134 C 0.67648 0.41465 0.57999 0.0
C1135 C 0.68721 0.47255 0.56489 0.0
C1136 C 0.67551 0.48594 0.58486 0.0
C1137 C 0.69403 0.48057 0.53847 0.0
C1138 C 0.70627 0.46703 0.51648 0.0
C1139 C 0.69697 0.44777 0.50445 0.0
C1140 C 0.70863 0.4351 0.48371 0.0
C1141 C 0.72953 0.44161 0.47465 0.0
C1142 C 0.73879 0.46083 0.48628 0.0
C1143 C 0.7272 0.47356 0.50706 0.0
H1144 H 0.73852 0.43179 0.45857 0.0
H1145 H 0.62753 0.55651 0.66021 0.0
H1146 H 0.92529 0.14013 0.04004 0.0
H1147 H 0.95543 0.14108 0.07595 0.0
H1148 H 0.90925 0.16367 0.14217 0.0
H1149 H 0.88033 0.16442 0.10677 0.0
H1150 H 0.9435 0.18121 0.15508 0.0
H1151 H 0.92512 0.10843 0.12829 0.0
H1152 H 0.9197 0.07528 0.09716 0.0
H1153 H 0.98864 0.07519 0.07462 0.0
H1154 H 0.99441 0.10852 0.10537 0.0
H1155 H 0.99369 0.13684 0.27954 0.0
H1156 H 0.96856 0.14149 0.23879 0.0
H1157 H 0.02459 0.14571 0.18181 0.0
H1158 H 0.04973 0.14121 0.22231 0.0
H1159 H 0.98808 0.1153 0.16323 0.0
H1160 H 0.00083 0.19048 0.20159 0.0
H1161 H -0.00084 0.21915 0.24075 0.0
H1162 H 0.92964 0.20734 0.25133 0.0
H1163 H 0.93096 0.17851 0.2124 0.0
C1164 C 0.92194 0.14592 0.0621 0.0
C1165 C 0.90042 0.1518 0.0707 0.0
C1166 C 0.93901 0.14614 0.0827 0.0
C1167 C 0.93453 0.15191 0.11203 0.0
C1168 C 0.91333 0.15912 0.11988 0.0
C1169 C 0.89665 0.15939 0.09947 0.0
C1170 C 0.95122 0.14984 0.13522 0.0
C1171 C 0.95311 0.16668 0.15674 0.0
C1172 C 0.96365 0.13084 0.13793 0.0
C1173 C 0.96013 0.11117 0.11875 0.0
C1174 C 0.93907 0.10149 0.11642 0.0
C1175 C 0.93594 0.08263 0.09891 0.0
C1176 C 0.95379 0.07319 0.08382 0.0
C1177 C 0.97481 0.08257 0.08623 0.0
C1178 C 0.97802 0.10145 0.10369 0.0
C1179 C 0.00058 0.13885 0.25832 0.0
C1180 C 0.02362 0.13884 0.25406 0.0
C1181 C 0.98627 0.14151 0.23516 0.0
C1182 C 0.99482 0.14395 0.20742 0.0
C1183 C 0.01776 0.14386 0.20311 0.0
C1184 C 0.03206 0.14149 0.22627 0.0
C1185 C 0.97992 0.14651 0.18271 0.0
C1186 C 0.97848 0.12979 0.16108 0.0
C1187 C 0.9667 0.16495 0.18087 0.0
C1188 C 0.96605 0.18229 0.20423 0.0
C1189 C 0.98524 0.19392 0.21241 0.0
C1190 C 0.98434 0.21022 0.23452 0.0
C1191 C 0.96432 0.21504 0.24854 0.0
C1192 C 0.94514 0.2036 0.24046 0.0
C1193 C 0.94595 0.18731 0.21835 0.0
H1194 H 0.96366 0.22767 0.26565 0.0
H1195 H 0.95135 0.05856 0.07033 0.0
H1196 H 0.19391 0.80683 0.11103 0.0
H1197 H 0.20615 0.7791 0.14304 0.0
H1198 H 0.13948 0.75417 0.14517 0.0
H1199 H 0.12734 0.78169 0.11372 0.0
H1200 H 0.15526 0.77062 0.19796 0.0
H1201 H 0.17524 0.72181 0.12101 0.0
H1202 H 0.19302 0.70667 0.07652 0.0
H1203 H 0.25703 0.71593 0.11557 0.0
H1204 H 0.23968 0.73157 0.16016 0.0
H1205 H 0.17893 0.69253 0.30158 0.0
H1206 H 0.1662 0.70934 0.25817 0.0
H1207 H 0.23117 0.73674 0.24756 0.0
H1208 H 0.24397 0.71994 0.2907 0.0
H1209 H 0.21397 0.71528 0.19697 0.0
H1210 H 0.19098 0.76758 0.27338 0.0
H1211 H 0.17079 0.77985 0.31756 0.0
H1212 H 0.10921 0.76048 0.27752 0.0
H1213 H 0.12908 0.7478 0.23323 0.0
C1214 C 0.1822 0.79481 0.11744 0.0
C1215 C 0.15974 0.79622 0.11021 0.0
C1216 C 0.18914 0.77904 0.13563 0.0
C1217 C 0.17362 0.76471 0.14646 0.0
C1218 C 0.15164 0.76508 0.13701 0.0
C1219 C 0.14475 0.78078 0.11913 0.0
C1220 C 0.17899 0.7525 0.17171 0.0
C1221 C 0.16788 0.75826 0.19761 0.0
C1222 C 0.19552 0.73655 0.17115 0.0
C1223 C 0.20614 0.72822 0.14384 0.0
C1224 C 0.19313 0.72103 0.11997 0.0
C1225 C 0.20313 0.71224 0.09476 0.0
C1226 C 0.22614 0.71042 0.09317 0.0
C1227 C 0.23921 0.71742 0.11679 0.0
C1228 C 0.22929 0.72627 0.14204 0.0
C1229 C 0.19039 0.70229 0.29005 0.0
C1230 C 0.21239 0.70505 0.29947 0.0
C1231 C 0.18313 0.71185 0.26536 0.0
C1232 C 0.19782 0.72417 0.24974 0.0
C1233 C 0.21966 0.7272 0.25935 0.0
C1234 C 0.22686 0.71782 0.28412 0.0
C1235 C 0.19063 0.73385 0.22314 0.0
C1236 C 0.20133 0.72759 0.19709 0.0
C1237 C 0.17344 0.74912 0.22335 0.0
C1238 C 0.16155 0.75647 0.25014 0.0
C1239 C 0.17316 0.7657 0.27412 0.0
C1240 C 0.16176 0.77279 0.29915 0.0
C1241 C 0.13874 0.77087 0.30039 0.0
C1242 C 0.12705 0.7619 0.27656 0.0
C1243 C 0.13837 0.75476 0.2515 0.0
H1244 H 0.12994 0.7764 0.31977 0.0
H1245 H 0.23385 0.70351 0.07368 0.0
H1246 H 0.68326 0.69181 0.58197 0.0
H1247 H 0.71858 0.71023 0.59224 0.0
H1248 H 0.74798 0.67579 0.51838 0.0
H1249 H 0.71222 0.65795 0.5074 0.0
H1250 H 0.7723 0.67419 0.57248 0.0
H1251 H 0.74294 0.72398 0.51047 0.0
H1252 H 0.71635 0.74851 0.4895 0.0
H1253 H 0.71496 0.78744 0.5692 0.0
H1254 H 0.74126 0.76295 0.59084 0.0
H1255 H 0.86422 0.75768 0.59178 0.0
H1256 H 0.83586 0.735 0.56722 0.0
H1257 H 0.79742 0.73653 0.64549 0.0
H1258 H 0.82603 0.75804 0.67073 0.0
H1259 H 0.78176 0.75345 0.57926 0.0
H1260 H 0.8065 0.69619 0.64207 0.0
H1261 H 0.83478 0.67161 0.65923 0.0
H1262 H 0.84664 0.647 0.57208 0.0
H1263 H 0.81868 0.67177 0.55438 0.0
C1264 C 0.69717 0.6884 0.56778 0.0
C1265 C 0.69516 0.67355 0.54395 0.0
C1266 C 0.71731 0.69892 0.57359 0.0
C1267 C 0.73586 0.6944 0.55601 0.0
C1268 C 0.73385 0.67952 0.53213 0.0
C1269 C 0.71351 0.66939 0.52591 0.0
C1270 C 0.75747 0.70451 0.56379 0.0
C1271 C 0.77451 0.69151 0.5735 0.0
C1272 C 0.7604 0.72706 0.56493 0.0
C1273 C 0.74392 0.74145 0.55241 0.0
C1274 C 0.73673 0.73759 0.52369 0.0
C1275 C 0.72177 0.75154 0.51163 0.0
C1276 C 0.71393 0.76949 0.52803 0.0
C1277 C 0.72102 0.77351 0.55653 0.0
C1278 C 0.73596 0.7596 0.5687 0.0
C1279 C 0.85005 0.75273 0.60405 0.0
C1280 C 0.84735 0.76003 0.63324 0.0
C1281 C 0.83384 0.73982 0.5899 0.0
C1282 C 0.81468 0.73404 0.60465 0.0
C1283 C 0.81221 0.74072 0.63385 0.0
C1284 C 0.82848 0.7533 0.64811 0.0
C1285 C 0.79599 0.72321 0.58909 0.0
C1286 C 0.77958 0.73613 0.57782 0.0
C1287 C 0.79374 0.70062 0.58624 0.0
C1288 C 0.81088 0.68616 0.59686 0.0
C1289 C 0.81544 0.68584 0.62653 0.0
C1290 C 0.83132 0.67179 0.63637 0.0
C1291 C 0.8426 0.65784 0.61675 0.0
C1292 C 0.83797 0.65788 0.58724 0.0
C1293 C 0.82213 0.67194 0.5773 0.0
H1294 H 0.85484 0.64693 0.62441 0.0
H1295 H 0.70241 0.78032 0.51864 0.0
H1296 H 0.79677 0.19861 0.99375 0.0
H1297 H 0.77345 0.22935 0.01027 0.0
H1298 H 0.78785 0.21699 0.0988 0.0
H1299 H 0.81033 0.18644 0.08263 0.0
H1300 H 0.74454 0.21577 0.08789 0.0
H1301 H 0.80664 0.26085 0.07267 0.0
H1302 H 0.83719 0.27658 0.04572 0.0
H1303 H 0.7906 0.302 0.98706 0.0
H1304 H 0.75974 0.28609 0.01341 0.0
H1305 H 0.69427 0.29984 0.17012 0.0
H1306 H 0.72412 0.27894 0.14684 0.0
H1307 H 0.69713 0.29032 0.06317 0.0
H1308 H 0.66687 0.31108 0.08635 0.0
H1309 H 0.74589 0.29308 0.06832 0.0
H1310 H 0.68361 0.24616 0.08871 0.0
H1311 H 0.65562 0.23132 0.12074 0.0
H1312 H 0.70704 0.21021 0.17604 0.0
H1313 H 0.73532 0.22524 0.14457 0.0
C1314 C 0.79512 0.20274 0.01661 0.0
C1315 C 0.8047 0.18989 0.03694 0.0
C1316 C 0.78197 0.2203 0.02603 0.0
C1317 C 0.77879 0.22516 0.05575 0.0
C1318 C 0.78988 0.21329 0.07581 0.0
C1319 C 0.80259 0.19579 0.06651 0.0
C1320 C 0.76187 0.24059 0.06654 0.0
C1321 C 0.74496 0.2327 0.08372 0.0
C1322 C 0.76237 0.26257 0.06082 0.0
C1323 C 0.78088 0.27199 0.04475 0.0
C1324 C 0.80291 0.26955 0.0538 0.0
C1325 C 0.82029 0.27856 0.03869 0.0
C1326 C 0.81585 0.2902 0.01462 0.0
C1327 C 0.79402 0.29291 0.00566 0.0
C1328 C 0.77657 0.28391 0.02068 0.0
C1329 C 0.6946 0.29781 0.14677 0.0
C1330 C 0.67802 0.3067 0.13003 0.0
C1331 C 0.71179 0.28613 0.13354 0.0
C1332 C 0.71264 0.2831 0.10338 0.0
C1333 C 0.6967 0.29266 0.0865 0.0
C1334 C 0.67943 0.30438 0.09975 0.0
C1335 C 0.7289 0.26816 0.08981 0.0
C1336 C 0.74552 0.27609 0.07213 0.0
C1337 C 0.7286 0.24622 0.09566 0.0
C1338 C 0.71156 0.23699 0.1144 0.0
C1339 C 0.68894 0.2385 0.10781 0.0
C1340 C 0.67302 0.23003 0.12586 0.0
C1341 C 0.67955 0.21987 0.15044 0.0
C1342 C 0.70201 0.2181 0.15701 0.0
C1343 C 0.71798 0.22658 0.13906 0.0
H1344 H 0.6672 0.21332 0.16438 0.0
H1345 H 0.82933 0.29719 0.00296 0.0
H1346 H 0.34728 0.29957 0.64497 0.0
H1347 H 0.32452 0.28071 0.67917 0.0
H1348 H 0.26971 0.32267 0.66337 0.0
H1349 H 0.29276 0.34174 0.62955 0.0
H1350 H 0.27797 0.32277 0.71849 0.0
H1351 H 0.26644 0.26831 0.64424 0.0
H1352 H 0.27513 0.24143 0.60461 0.0
H1353 H 0.31495 0.2065 0.66209 0.0
H1354 H 0.30678 0.23332 0.70199 0.0
H1355 H 0.2118 0.26709 0.81797 0.0
H1356 H 0.22677 0.28414 0.77625 0.0
H1357 H 0.28646 0.2468 0.78142 0.0
H1358 H 0.27111 0.22883 0.82227 0.0
H1359 H 0.27054 0.24433 0.72809 0.0
H1360 H 0.28423 0.3026 0.80089 0.0
H1361 H 0.27456 0.33031 0.83912 0.0
H1362 H 0.22851 0.3583 0.78203 0.0
H1363 H 0.23777 0.33065 0.74357 0.0
C1364 C 0.33028 0.30448 0.64869 0.0
C1365 C 0.32166 0.32212 0.63534 0.0
C1366 C 0.31722 0.29361 0.66787 0.0
C1367 C 0.29537 0.30023 0.67369 0.0
C1368 C 0.28651 0.31733 0.65917 0.0
C1369 C 0.29962 0.32822 0.64005 0.0
C1370 C 0.28304 0.29126 0.69771 0.0
C1371 C 0.2759 0.3056 0.7203 0.0
C1372 C 0.28069 0.26889 0.70023 0.0
C1373 C 0.28613 0.25297 0.67609 0.0
C1374 C 0.27725 0.25504 0.64838 0.0
C1375 C 0.28203 0.23977 0.62587 0.0
C1376 C 0.29561 0.22229 0.63082 0.0
C1377 C 0.30444 0.22005 0.65828 0.0
C1378 C 0.29972 0.23527 0.68086 0.0
C1379 C 0.22812 0.26247 0.81021 0.0
C1380 C 0.24016 0.24638 0.8232 0.0
C1381 C 0.23676 0.27245 0.78657 0.0
C1382 C 0.25775 0.26678 0.77578 0.0
C1383 C 0.27018 0.25136 0.7894 0.0
C1384 C 0.26148 0.24124 0.81291 0.0
C1385 C 0.26622 0.27584 0.74918 0.0
C1386 C 0.27247 0.26149 0.72608 0.0
C1387 C 0.26755 0.29822 0.74603 0.0
C1388 C 0.26149 0.31439 0.7695 0.0
C1389 C 0.27185 0.31451 0.79662 0.0
C1390 C 0.26651 0.33026 0.81829 0.0
C1391 C 0.25088 0.34601 0.81304 0.0
C1392 C 0.24057 0.34606 0.7861 0.0
C1393 C 0.24588 0.33038 0.76436 0.0
H1394 H 0.2468 0.35821 0.82983 0.0
H1395 H 0.29925 0.21047 0.61339 0.0
H1396 H 0.69349 0.6955 0.46092 0.0
H1397 H 0.70459 0.71968 0.42377 0.0
H1398 H 0.63768 0.74296 0.41977 0.0
H1399 H 0.62676 0.71931 0.45727 0.0
H1400 H 0.67098 0.71162 0.36718 0.0
H1401 H 0.64777 0.78141 0.41833 0.0
H1402 H 0.64871 0.8056 0.46255 0.0
H1403 H 0.71978 0.80395 0.46211 0.0
H1404 H 0.71916 0.77954 0.418 0.0
H1405 H 0.67849 0.7753 0.24231 0.0
H1406 H 0.66521 0.76056 0.28727 0.0
H1407 H 0.72923 0.77305 0.32622 0.0
H1408 H 0.74242 0.78751 0.28141 0.0
H1409 H 0.69418 0.78768 0.36133 0.0
H1410 H 0.71612 0.72384 0.30293 0.0
H1411 H 0.71464 0.69951 0.25894 0.0
H1412 H 0.64535 0.68853 0.27276 0.0
H1413 H 0.64634 0.71311 0.31662 0.0
C1414 C 0.6816 0.70698 0.45372 0.0
C1415 C 0.65933 0.70571 0.46203 0.0
C1416 C 0.68782 0.72043 0.43205 0.0
C1417 C 0.67185 0.73285 0.41889 0.0
C1418 C 0.65026 0.73364 0.42985 0.0
C1419 C 0.64413 0.72037 0.45164 0.0
C1420 C 0.67674 0.74197 0.39099 0.0
C1421 C 0.67583 0.7283 0.36575 0.0
C1422 C 0.68294 0.76362 0.38927 0.0
C1423 C 0.68341 0.77858 0.4152 0.0
C1424 C 0.66357 0.78613 0.42782 0.0
C1425 C 0.66404 0.79989 0.4528 0.0
C1426 C 0.6843 0.80628 0.46517 0.0
C1427 C 0.70411 0.79898 0.45251 0.0
C1428 C 0.70371 0.7852 0.42753 0.0
C1429 C 0.68968 0.77451 0.26044 0.0
C1430 C 0.71148 0.7821 0.25863 0.0
C1431 C 0.68212 0.76627 0.28603 0.0
C1432 C 0.69628 0.7658 0.31001 0.0
C1433 C 0.71807 0.77336 0.30798 0.0
C1434 C 0.72565 0.78138 0.28242 0.0
C1435 C 0.68867 0.75731 0.33735 0.0
C1436 C 0.68909 0.77105 0.36255 0.0
C1437 C 0.68174 0.73572 0.33885 0.0
C1438 C 0.68126 0.72047 0.31292 0.0
C1439 C 0.70053 0.71634 0.29651 0.0
C1440 C 0.69979 0.7025 0.2716 0.0
C1441 C 0.6799 0.69253 0.26302 0.0
C1442 C 0.66074 0.6963 0.27941 0.0
C1443 C 0.66138 0.71017 0.30432 0.0
H1444 H 0.67935 0.68184 0.24371 0.0
H1445 H 0.68465 0.8169 0.48454 0.0
H1446 H 0.77233 0.15578 0.93961 0.0
H1447 H 0.75621 0.17467 0.90008 0.0
H1448 H 0.81483 0.21433 0.89743 0.0
H1449 H 0.83025 0.19639 0.93807 0.0
H1450 H 0.78156 0.23571 0.87954 0.0
H1451 H 0.80944 0.16394 0.85824 0.0
H1452 H 0.81133 0.12489 0.86368 0.0
H1453 H 0.74331 0.11799 0.83785 0.0
H1454 H 0.74091 0.15707 0.83271 0.0
H1455 H 0.77561 0.25947 0.73414 0.0
H1456 H 0.79006 0.24235 0.77626 0.0
H1457 H 0.72925 0.20639 0.7823 0.0
H1458 H 0.7152 0.22256 0.7395 0.0
H1459 H 0.76378 0.183 0.79803 0.0
H1460 H 0.73647 0.25534 0.82014 0.0
H1461 H 0.73564 0.29427 0.81345 0.0
H1462 H 0.80438 0.29951 0.83643 0.0
H1463 H 0.80567 0.26054 0.8429 0.0
C1464 C 0.78119 0.1693 0.93151 0.0
C1465 C 0.80251 0.17461 0.94163 0.0
C1466 C 0.77217 0.17984 0.90864 0.0
C1467 C 0.78477 0.19523 0.89497 0.0
C1468 C 0.80494 0.20228 0.90736 0.0
C1469 C 0.8137 0.19212 0.93074 0.0
C1470 C 0.77833 0.20213 0.86613 0.0
C1471 C 0.77786 0.22416 0.8617 0.0
C1472 C 0.77338 0.18705 0.84277 0.0
C1473 C 0.77494 0.16347 0.84534 0.0
C1474 C 0.79486 0.15411 0.85384 0.0
C1475 C 0.79602 0.13197 0.85689 0.0
C1476 C 0.77744 0.11897 0.85117 0.0
C1477 C 0.75768 0.12808 0.84231 0.0
C1478 C 0.75641 0.15023 0.83933 0.0
C1479 C 0.76558 0.24748 0.74396 0.0
C1480 C 0.74405 0.24277 0.73396 0.0
C1481 C 0.77377 0.23784 0.76817 0.0
C1482 C 0.76044 0.22359 0.7829 0.0
C1483 C 0.7397 0.21755 0.77151 0.0
C1484 C 0.73161 0.22699 0.74722 0.0
C1485 C 0.76703 0.21654 0.81156 0.0
C1486 C 0.7675 0.19449 0.81593 0.0
C1487 C 0.77216 0.23155 0.83481 0.0
C1488 C 0.77119 0.25505 0.83183 0.0
C1489 C 0.75141 0.26481 0.82371 0.0
C1490 C 0.75086 0.28686 0.81993 0.0
C1491 C 0.76995 0.29935 0.82447 0.0
C1492 C 0.78961 0.28982 0.83291 0.0
C1493 C 0.79025 0.26776 0.83667 0.0
H1494 H 0.76951 0.31642 0.82148 0.0
H1495 H 0.77836 0.10184 0.85354 0.0
H1496 H 0.31593 0.27875 0.56381 0.0
H1497 H 0.2878 0.25201 0.54722 0.0
H1498 H 0.27652 0.28696 0.4713 0.0
H1499 H 0.30416 0.31334 0.48762 0.0
H1500 H 0.2381 0.27552 0.49544 0.0
H1501 H 0.30611 0.2436 0.46475 0.0
H1502 H 0.34401 0.22962 0.46865 0.0
H1503 H 0.32101 0.18269 0.52567 0.0
H1504 H 0.28297 0.19664 0.52246 0.0
H1505 H 0.19344 0.19638 0.39243 0.0
H1506 H 0.22082 0.21987 0.41707 0.0
H1507 H 0.20569 0.19242 0.49769 0.0
H1508 H 0.1772 0.16976 0.4738 0.0
H1509 H 0.25644 0.19851 0.47502 0.0
H1510 H 0.18563 0.23318 0.50059 0.0
H1511 H 0.14905 0.24666 0.48685 0.0
H1512 H 0.18003 0.2889 0.4292 0.0
H1513 H 0.21679 0.27537 0.44225 0.0
C1514 C 0.30733 0.28067 0.54366 0.0
C1515 C 0.31248 0.29792 0.52676 0.0
C1516 C 0.29139 0.26539 0.53416 0.0
C1517 C 0.28022 0.26746 0.5079 0.0
C1518 C 0.28499 0.28502 0.49154 0.0
C1519 C 0.30101 0.30001 0.50079 0.0
C1520 C 0.26353 0.25145 0.49706 0.0
C1521 C 0.24213 0.25868 0.49113 0.0
C1522 C 0.26884 0.22951 0.49115 0.0
C1523 C 0.29175 0.22141 0.49378 0.0
C1524 C 0.30918 0.23051 0.47847 0.0
C1525 C 0.33068 0.22254 0.48046 0.0
C1526 C 0.33494 0.20534 0.49751 0.0
C1527 C 0.3177 0.19606 0.51256 0.0
C1528 C 0.29616 0.204 0.51068 0.0
C1529 C 0.19558 0.1955 0.41548 0.0
C1530 C 0.18287 0.1812 0.43109 0.0
C1531 C 0.21148 0.20875 0.42941 0.0
C1532 C 0.21525 0.20771 0.45907 0.0
C1533 C 0.20307 0.19323 0.47469 0.0
C1534 C 0.18685 0.18025 0.46091 0.0
C1535 C 0.23115 0.22264 0.47389 0.0
C1536 C 0.25237 0.21525 0.48019 0.0
C1537 C 0.22594 0.24456 0.47941 0.0
C1538 C 0.20391 0.25314 0.47221 0.0
C1539 C 0.18462 0.24523 0.48483 0.0
C1540 C 0.16386 0.25289 0.47719 0.0
C1541 C 0.16221 0.26859 0.45711 0.0
C1542 C 0.18133 0.27673 0.44473 0.0
C1543 C 0.20213 0.26908 0.45226 0.0
H1544 H 0.14612 0.27449 0.4512 0.0
H1545 H 0.35159 0.19916 0.49897 0.0
H1546 H 0.19846 0.80283 0.05158 0.0
H1547 H 0.23427 0.78563 0.04021 0.0
H1548 H 0.22853 0.80303 0.95207 0.0
H1549 H 0.19315 0.82042 0.96328 0.0
H1550 H 0.23807 0.75969 0.95768 0.0
H1551 H 0.26227 0.82972 0.99554 0.0
H1552 H 0.26732 0.86004 0.03167 0.0
H1553 H 0.3013 0.8188 0.0875 0.0
H1554 H 0.29605 0.78808 0.05194 0.0
H1555 H 0.33707 0.74143 0.88753 0.0
H1556 H 0.30758 0.76231 0.91174 0.0
H1557 H 0.32682 0.73869 0.99337 0.0
H1558 H 0.35672 0.71783 0.96914 0.0
H1559 H 0.31126 0.78257 -0.00244 0.0
H1560 H 0.28804 0.7129 0.95918 0.0
H1561 H 0.28575 0.68349 0.92117 0.0
H1562 H 0.25069 0.72468 0.86632 0.0
H1563 H 0.25317 0.75448 0.9038 0.0
C1564 C 0.20484 0.80291 0.02977 0.0
C1565 C 0.19293 0.81289 0.00827 0.0
C1566 C 0.22538 0.79326 0.0234 0.0
C1567 C 0.23413 0.79319 0.99534 0.0
C1568 C 0.22214 0.80298 0.97388 0.0
C1569 C 0.20188 0.81288 0.98031 0.0
C1570 C 0.25511 0.78193 0.98743 0.0
C1571 C 0.25404 0.76478 0.9664 0.0
C1572 C 0.27594 0.78814 -0.00057 0.0
C1573 C 0.27838 0.80647 0.02126 0.0
C1574 C 0.27046 0.82699 0.01573 0.0
C1575 C 0.27346 0.84429 0.03606 0.0
C1576 C 0.28453 0.84133 0.06193 0.0
C1577 C 0.29264 0.82106 0.06751 0.0
C1578 C 0.28964 0.80369 0.04728 0.0
C1579 C 0.33521 0.74088 0.91069 0.0
C1580 C 0.34888 0.72766 0.92636 0.0
C1581 C 0.31844 0.75291 0.92453 0.0
C1582 C 0.31474 0.75173 0.95427 0.0
C1583 C 0.32935 0.73978 0.9704 0.0
C1584 C 0.34636 0.72783 0.95653 0.0
C1585 C 0.29408 0.76085 0.96731 0.0
C1586 C 0.29519 0.77736 0.9893 0.0
C1587 C 0.27316 0.75408 0.95639 0.0
C1588 C 0.27089 0.73595 0.93424 0.0
C1589 C 0.27991 0.71571 0.93897 0.0
C1590 C 0.27861 0.69897 0.91751 0.0
C1591 C 0.26811 0.70222 0.89133 0.0
C1592 C 0.25882 0.72219 0.88661 0.0
C1593 C 0.26016 0.739 0.90796 0.0
H1594 H 0.26714 0.68926 0.87472 0.0
H1595 H 0.28691 0.85477 0.07758 0.0
loop_
_geom_bond_atom_site_label_1
_geom_bond_atom_site_label_2
_geom_bond_distance
_geom_bond_site_symmetry_2
_ccdc_geom_bond_type
Zn0 O6 1.920 . S
Zn0 O12 1.898 . S
Zn0 O15 1.905 . S
Zn1 O9 1.905 . S
Zn1 O10 1.898 . S
Zn1 O18 1.920 . S
Zn2 O5 2.080 . S
Zn2 O8 2.114 . S
Zn2 O11 2.120 . S
Zn2 O13 2.120 . S
Zn2 O14 2.114 . S
Zn2 O17 2.080 . S
C3 O8 1.166 . S
C3 O9 1.182 1_554 S
C4 O10 1.167 . S
C4 O11 1.299 1_556 S
O5 Zn2 2.080 . S
O5 C19 1.305 . S
O6 Zn0 1.920 . S
O6 C19 1.234 . S
C7 O12 1.167 . S
C7 O13 1.299 . S
O8 Zn2 2.114 . S
O8 C3 1.166 . S
O9 Zn1 1.905 . S
O9 C3 1.182 1_556 S
O10 Zn1 1.898 . S
O10 C4 1.167 . S
O11 Zn2 2.120 . S
O11 C4 1.299 1_554 S
O12 Zn0 1.898 . S
O12 C7 1.167 . S
O13 Zn2 2.120 . S
O13 C7 1.299 . S
O14 Zn2 2.114 . S
O14 C16 1.166 . S
O15 Zn0 1.905 . S
O15 C16 1.182 . S
C16 O14 1.166 . S
C16 O15 1.182 . S
O17 Zn2 2.080 . S
O17 C20 1.305 . S
O18 Zn1 1.920 . S
O18 C20 1.234 1_556 S
C19 O5 1.305 . S
C19 O6 1.234 . S
C20 O17 1.305 . S
C20 O18 1.234 1_554 S
Zn21 O27 1.920 . S
Zn21 O33 1.898 . S
Zn21 O36 1.905 . S
Zn22 O30 1.905 . S
Zn22 O31 1.898 . S
Zn22 O39 1.920 . S
Zn23 O26 2.080 . S
Zn23 O29 2.114 . S
Zn23 O32 2.120 . S
Zn23 O34 2.120 . S
Zn23 O35 2.114 . S
Zn23 O38 2.080 . S
C24 O29 1.166 . S
C24 O30 1.182 . S
C25 O31 1.167 . S
C25 O32 1.299 . S
O26 Zn23 2.080 . S
O26 C40 1.305 . S
O27 Zn21 1.920 . S
O27 C40 1.234 . S
C28 O33 1.167 . S
C28 O34 1.299 . S
O29 Zn23 2.114 . S
O29 C24 1.166 . S
O30 Zn22 1.905 . S
O30 C24 1.182 . S
O31 Zn22 1.898 . S
O31 C25 1.167 . S
O32 Zn23 2.120 . S
O32 C25 1.299 . S
O33 Zn21 1.898 . S
O33 C28 1.167 . S
O34 Zn23 2.120 . S
O34 C28 1.299 . S
O35 Zn23 2.114 . S
O35 C37 1.166 . S
O36 Zn21 1.905 . S
O36 C37 1.182 . S
C37 O35 1.166 . S
C37 O36 1.182 . S
O38 Zn23 2.080 . S
O38 C41 1.305 . S
O39 Zn22 1.920 . S
O39 C41 1.234 . S
C40 O26 1.305 . S
C40 O27 1.234 . S
C41 O38 1.305 . S
C41 O39 1.234 . S
Zn42 O48 1.920 . S
Zn42 O54 1.898 . S
Zn42 O57 1.905 . S
Zn43 O51 1.905 . S
Zn43 O52 1.898 . S
Zn43 O60 1.920 . S
Zn44 O47 2.080 1_554 S
Zn44 O50 2.114 . S
Zn44 O53 2.120 . S
Zn44 O55 2.120 1_554 S
Zn44 O56 2.114 1_554 S
Zn44 O59 2.080 . S
C45 O50 1.166 . S
C45 O51 1.182 . S
C46 O52 1.167 . S
C46 O53 1.299 . S
O47 Zn44 2.080 1_556 S
O47 C61 1.305 . S
O48 Zn42 1.920 . S
O48 C61 1.234 . S
C49 O54 1.167 . S
C49 O55 1.299 . S
O50 Zn44 2.114 . S
O50 C45 1.166 . S
O51 Zn43 1.905 . S
O51 C45 1.182 . S
O52 Zn43 1.898 . S
O52 C46 1.167 . S
O53 Zn44 2.120 . S
O53 C46 1.299 . S
O54 Zn42 1.898 . S
O54 C49 1.167 . S
O55 Zn44 2.120 1_556 S
O55 C49 1.299 . S
O56 Zn44 2.114 1_556 S
O56 C58 1.166 . S
O57 Zn42 1.905 . S
O57 C58 1.182 . S
C58 O56 1.166 . S
C58 O57 1.182 . S
O59 Zn44 2.080 . S
O59 C62 1.305 . S
O60 Zn43 1.920 . S
O60 C62 1.234 . S
C61 O47 1.305 . S
C61 O48 1.234 . S
C62 O59 1.305 . S
C62 O60 1.234 . S
Zn63 O69 1.920 . S
Zn63 O75 1.898 . S
Zn63 O78 1.905 . S
Zn64 O72 1.905 . S
Zn64 O73 1.898 . S
Zn64 O81 1.920 . S
Zn65 O68 2.080 . S
Zn65 O71 2.114 . S
Zn65 O74 2.120 . S
Zn65 O76 2.120 . S
Zn65 O77 2.114 . S
Zn65 O80 2.080 . S
C66 O71 1.166 . S
C66 O72 1.182 . S
C67 O73 1.167 . S
C67 O74 1.299 . S
O68 Zn65 2.080 . S
O68 C82 1.305 . S
O69 Zn63 1.920 . S
O69 C82 1.234 . S
C70 O75 1.167 . S
C70 O76 1.299 . S
O71 Zn65 2.114 . S
O71 C66 1.166 . S
O72 Zn64 1.905 . S
O72 C66 1.182 . S
O73 Zn64 1.898 . S
O73 C67 1.167 . S
O74 Zn65 2.120 . S
O74 C67 1.299 . S
O75 Zn63 1.898 . S
O75 C70 1.167 . S
O76 Zn65 2.120 . S
O76 C70 1.299 . S
O77 Zn65 2.114 . S
O77 C79 1.166 . S
O78 Zn63 1.905 . S
O78 C79 1.182 . S
C79 O77 1.166 . S
C79 O78 1.182 . S
O80 Zn65 2.080 . S
O80 C83 1.305 . S
O81 Zn64 1.920 . S
O81 C83 1.234 . S
C82 O68 1.305 . S
C82 O69 1.234 . S
C83 O80 1.305 . S
C83 O81 1.234 . S
C84 C85 1.386 . S
C84 C86 1.397 . S
C84 H108 0.931 . S
C85 C84 1.386 . S
C85 C89 1.397 . S
C86 C84 1.397 . S
C86 C87 1.384 . S
C86 H109 0.930 . S
C87 C86 1.384 . S
C87 C88 1.377 . S
C87 C90 1.481 . S
C88 C87 1.377 . S
C88 C89 1.389 . S
C88 H110 0.929 . S
C89 C85 1.397 . S
C89 C88 1.389 . S
C89 H111 0.931 . S
C90 C87 1.481 . S
C90 C91 1.387 . S
C90 C95 1.390 . S
C91 C90 1.387 . S
C91 C92 1.401 . S
C91 H112 0.930 . S
C92 C91 1.401 . S
C92 C93 1.376 . S
C92 C101 1.511 . S
C93 C92 1.376 . S
C93 C94 1.392 . S
C93 H114 0.931 . S
C94 C93 1.392 . S
C94 C95 1.361 . S
C94 C96 1.500 . S
C95 C90 1.390 . S
C95 C94 1.361 . S
C95 H113 0.931 . S
C96 C94 1.500 . S
C96 C97 1.371 . S
C96 C98 1.365 . S
C97 C96 1.371 . S
C97 C107 1.386 . S
C97 H115 0.931 . S
C98 C96 1.365 . S
C98 C99 1.409 . S
C98 H116 0.929 . S
C99 C98 1.409 . S
C99 C100 1.380 . S
C99 H117 0.930 . S
C100 C99 1.380 . S
C100 C107 1.357 . S
C101 C92 1.511 . S
C101 C102 1.341 . S
C101 C103 1.371 . S
C102 C101 1.341 . S
C102 C106 1.394 . S
C102 H118 0.930 . S
C103 C101 1.371 . S
C103 C104 1.392 . S
C103 H119 0.931 . S
C104 C103 1.392 . S
C104 C105 1.331 . S
C104 H122 0.932 . S
C105 C104 1.331 . S
C105 C106 1.336 . S
C106 C102 1.394 . S
C106 C105 1.336 . S
C106 H121 0.929 . S
C107 C97 1.386 . S
C107 C100 1.357 . S
C107 H120 0.928 . S
H108 C84 0.931 . S
H109 C86 0.930 . S
H110 C88 0.929 . S
H111 C89 0.931 . S
H112 C91 0.930 . S
H113 C95 0.931 . S
H114 C93 0.931 . S
H115 C97 0.931 . S
H116 C98 0.929 . S
H117 C99 0.930 . S
H118 C102 0.930 . S
H119 C103 0.931 . S
H120 C107 0.928 . S
H121 C106 0.929 . S
H122 C104 0.932 . S
C123 C124 1.386 . S
C123 C125 1.397 . S
C123 H147 0.931 . S
C124 C123 1.386 . S
C124 C128 1.397 . S
C125 C123 1.397 . S
C125 C126 1.384 . S
C125 H148 0.930 . S
C126 C125 1.384 . S
C126 C127 1.377 . S
C126 C129 1.481 . S
C127 C126 1.377 . S
C127 C128 1.389 . S
C127 H149 0.929 . S
C128 C124 1.397 . S
C128 C127 1.389 . S
C128 H150 0.931 . S
C129 C126 1.481 . S
C129 C130 1.387 . S
C129 C134 1.390 . S
C130 C129 1.387 . S
C130 C131 1.401 . S
C130 H151 0.930 . S
C131 C130 1.401 . S
C131 C132 1.376 . S
C131 C140 1.511 . S
C132 C131 1.376 . S
C132 C133 1.392 . S
C132 H153 0.931 . S
C133 C132 1.392 . S
C133 C134 1.361 . S
C133 C135 1.500 . S
C134 C129 1.390 . S
C134 C133 1.361 . S
C134 H152 0.931 . S
C135 C133 1.500 . S
C135 C136 1.371 . S
C135 C137 1.365 . S
C136 C135 1.371 . S
C136 C146 1.386 . S
C136 H154 0.931 . S
C137 C135 1.365 . S
C137 C138 1.409 . S
C137 H155 0.929 . S
C138 C137 1.409 . S
C138 C139 1.380 . S
C138 H156 0.930 . S
C139 C138 1.380 . S
C139 C146 1.357 . S
C140 C131 1.511 . S
C140 C141 1.341 . S
C140 C142 1.371 . S
C141 C140 1.341 . S
C141 C145 1.394 . S
C141 H157 0.930 . S
C142 C140 1.371 . S
C142 C143 1.392 . S
C142 H158 0.931 . S
C143 C142 1.392 . S
C143 C144 1.331 . S
C143 H161 0.932 . S
C144 C143 1.331 . S
C144 C145 1.336 . S
C145 C141 1.394 . S
C145 C144 1.336 . S
C145 H160 0.929 . S
C146 C136 1.386 . S
C146 C139 1.357 . S
C146 H159 0.928 . S
H147 C123 0.931 . S
H148 C125 0.930 . S
H149 C127 0.929 . S
H150 C128 0.931 . S
H151 C130 0.930 . S
H152 C134 0.931 . S
H153 C132 0.931 . S
H154 C136 0.931 . S
H155 C137 0.929 . S
H156 C138 0.930 . S
H157 C141 0.930 . S
H158 C142 0.931 . S
H159 C146 0.928 . S
H160 C145 0.929 . S
H161 C143 0.932 . S
C162 C163 1.386 . S
C162 C164 1.397 . S
C162 H186 0.931 . S
C163 C162 1.386 . S
C163 C167 1.397 . S
C164 C162 1.397 . S
C164 C165 1.384 . S
C164 H187 0.930 . S
C165 C164 1.384 . S
C165 C166 1.377 . S
C165 C168 1.481 . S
C166 C165 1.377 . S
C166 C167 1.389 . S
C166 H188 0.929 . S
C167 C163 1.397 . S
C167 C166 1.389 . S
C167 H189 0.931 . S
C168 C165 1.481 . S
C168 C169 1.387 . S
C168 C173 1.390 . S
C169 C168 1.387 . S
C169 C170 1.401 . S
C169 H190 0.930 . S
C170 C169 1.401 . S
C170 C171 1.376 . S
C170 C179 1.511 . S
C171 C170 1.376 . S
C171 C172 1.392 . S
C171 H192 0.931 . S
C172 C171 1.392 . S
C172 C173 1.361 . S
C172 C174 1.500 . S
C173 C168 1.390 . S
C173 C172 1.361 . S
C173 H191 0.931 . S
C174 C172 1.500 . S
C174 C175 1.371 . S
C174 C176 1.365 . S
C175 C174 1.371 . S
C175 C185 1.386 . S
C175 H193 0.931 . S
C176 C174 1.365 . S
C176 C177 1.409 . S
C176 H194 0.929 . S
C177 C176 1.409 . S
C177 C178 1.380 . S
C177 H195 0.930 . S
C178 C177 1.380 . S
C178 C185 1.357 . S
C179 C170 1.511 . S
C179 C180 1.341 . S
C179 C181 1.371 . S
C180 C179 1.341 . S
C180 C184 1.394 . S
C180 H196 0.930 . S
C181 C179 1.371 . S
C181 C182 1.392 . S
C181 H197 0.931 . S
C182 C181 1.392 . S
C182 C183 1.331 . S
C182 H200 0.932 . S
C183 C182 1.331 . S
C183 C184 1.336 . S
C184 C180 1.394 . S
C184 C183 1.336 . S
C184 H199 0.929 . S
C185 C175 1.386 . S
C185 C178 1.357 . S
C185 H198 0.928 . S
H186 C162 0.931 . S
H187 C164 0.930 . S
H188 C166 0.929 . S
H189 C167 0.931 . S
H190 C169 0.930 . S
H191 C173 0.931 . S
H192 C171 0.931 . S
H193 C175 0.931 . S
H194 C176 0.929 . S
H195 C177 0.930 . S
H196 C180 0.930 . S
H197 C181 0.931 . S
H198 C185 0.928 . S
H199 C184 0.929 . S
H200 C182 0.932 . S
C201 C202 1.386 . S
C201 C203 1.397 . S
C201 H225 0.931 . S
C202 C201 1.386 . S
C202 C206 1.397 . S
C203 C201 1.397 . S
C203 C204 1.384 . S
C203 H226 0.930 . S
C204 C203 1.384 . S
C204 C205 1.377 . S
C204 C207 1.481 . S
C205 C204 1.377 . S
C205 C206 1.389 . S
C205 H227 0.929 . S
C206 C202 1.397 . S
C206 C205 1.389 . S
C206 H228 0.931 . S
C207 C204 1.481 . S
C207 C208 1.387 . S
C207 C212 1.390 . S
C208 C207 1.387 . S
C208 C209 1.401 . S
C208 H229 0.930 . S
C209 C208 1.401 . S
C209 C210 1.376 . S
C209 C218 1.511 . S
C210 C209 1.376 . S
C210 C211 1.392 . S
C210 H231 0.931 . S
C211 C210 1.392 . S
C211 C212 1.361 . S
C211 C213 1.500 . S
C212 C207 1.390 . S
C212 C211 1.361 . S
C212 H230 0.931 . S
C213 C211 1.500 . S
C213 C214 1.371 . S
C213 C215 1.365 . S
C214 C213 1.371 . S
C214 C224 1.386 . S
C214 H232 0.931 . S
C215 C213 1.365 . S
C215 C216 1.409 . S
C215 H233 0.929 . S
C216 C215 1.409 . S
C216 C217 1.380 . S
C216 H234 0.930 . S
C217 C216 1.380 . S
C217 C224 1.357 . S
C218 C209 1.511 . S
C218 C219 1.341 . S
C218 C220 1.371 . S
C219 C218 1.341 . S
C219 C223 1.394 . S
C219 H235 0.930 . S
C220 C218 1.371 . S
C220 C221 1.392 . S
C220 H236 0.931 . S
C221 C220 1.392 . S
C221 C222 1.331 . S
C221 H239 0.932 . S
C222 C221 1.331 . S
C222 C223 1.336 . S
C223 C219 1.394 . S
C223 C222 1.336 . S
C223 H238 0.929 . S
C224 C214 1.386 . S
C224 C217 1.357 . S
C224 H237 0.928 . S
H225 C201 0.931 . S
H226 C203 0.930 . S
H227 C205 0.929 . S
H228 C206 0.931 . S
H229 C208 0.930 . S
H230 C212 0.931 . S
H231 C210 0.931 . S
H232 C214 0.931 . S
H233 C215 0.929 . S
H234 C216 0.930 . S
H235 C219 0.930 . S
H236 C220 0.931 . S
H237 C224 0.928 . S
H238 C223 0.929 . S
H239 C221 0.932 . S
C240 C241 1.386 . S
C240 C242 1.397 . S
C240 H264 0.931 . S
C241 C240 1.386 . S
C241 C245 1.397 . S
C242 C240 1.397 . S
C242 C243 1.384 . S
C242 H265 0.930 . S
C243 C242 1.384 . S
C243 C244 1.377 . S
C243 C246 1.481 . S
C244 C243 1.377 . S
C244 C245 1.389 . S
C244 H266 0.929 . S
C245 C241 1.397 . S
C245 C244 1.389 . S
C245 H267 0.931 . S
C246 C243 1.481 . S
C246 C247 1.387 . S
C246 C251 1.390 . S
C247 C246 1.387 . S
C247 C248 1.401 . S
C247 H268 0.930 . S
C248 C247 1.401 . S
C248 C249 1.376 . S
C248 C257 1.511 . S
C249 C248 1.376 . S
C249 C250 1.392 . S
C249 H270 0.931 . S
C250 C249 1.392 . S
C250 C251 1.361 . S
C250 C252 1.500 . S
C251 C246 1.390 . S
C251 C250 1.361 . S
C251 H269 0.931 . S
C252 C250 1.500 . S
C252 C253 1.371 . S
C252 C254 1.365 . S
C253 C252 1.371 . S
C253 C263 1.386 . S
C253 H271 0.931 . S
C254 C252 1.365 . S
C254 C255 1.409 . S
C254 H272 0.929 . S
C255 C254 1.409 . S
C255 C256 1.380 . S
C255 H273 0.930 . S
C256 C255 1.380 . S
C256 C263 1.357 . S
C257 C248 1.511 . S
C257 C258 1.341 . S
C257 C259 1.371 . S
C258 C257 1.341 . S
C258 C262 1.394 . S
C258 H274 0.930 . S
C259 C257 1.371 . S
C259 C260 1.392 . S
C259 H275 0.931 . S
C260 C259 1.392 . S
C260 C261 1.331 . S
C260 H278 0.932 . S
C261 C260 1.331 . S
C261 C262 1.336 . S
C262 C258 1.394 . S
C262 C261 1.336 . S
C262 H277 0.929 . S
C263 C253 1.386 . S
C263 C256 1.357 . S
C263 H276 0.928 . S
H264 C240 0.931 . S
H265 C242 0.930 . S
H266 C244 0.929 . S
H267 C245 0.931 . S
H268 C247 0.930 . S
H269 C251 0.931 . S
H270 C249 0.931 . S
H271 C253 0.931 . S
H272 C254 0.929 . S
H273 C255 0.930 . S
H274 C258 0.930 . S
H275 C259 0.931 . S
H276 C263 0.928 . S
H277 C262 0.929 . S
H278 C260 0.932 . S
C279 C280 1.386 . S
C279 C281 1.397 . S
C279 H303 0.931 . S
C280 C279 1.386 . S
C280 C284 1.397 . S
C281 C279 1.397 . S
C281 C282 1.384 . S
C281 H304 0.930 . S
C282 C281 1.384 . S
C282 C283 1.377 . S
C282 C285 1.481 . S
C283 C282 1.377 . S
C283 C284 1.389 . S
C283 H305 0.929 . S
C284 C280 1.397 . S
C284 C283 1.389 . S
C284 H306 0.931 . S
C285 C282 1.481 . S
C285 C286 1.387 . S
C285 C290 1.390 . S
C286 C285 1.387 . S
C286 C287 1.401 . S
C286 H307 0.930 . S
C287 C286 1.401 . S
C287 C288 1.376 . S
C287 C296 1.511 . S
C288 C287 1.376 . S
C288 C289 1.392 . S
C288 H309 0.931 . S
C289 C288 1.392 . S
C289 C290 1.361 . S
C289 C291 1.500 . S
C290 C285 1.390 . S
C290 C289 1.361 . S
C290 H308 0.931 . S
C291 C289 1.500 . S
C291 C292 1.371 . S
C291 C293 1.365 . S
C292 C291 1.371 . S
C292 C302 1.386 . S
C292 H310 0.931 . S
C293 C291 1.365 . S
C293 C294 1.409 . S
C293 H311 0.929 . S
C294 C293 1.409 . S
C294 C295 1.380 . S
C294 H312 0.947 . S
C295 C294 1.380 . S
C295 C302 1.357 . S
C296 C287 1.511 . S
C296 C297 1.341 . S
C296 C298 1.371 . S
C297 C296 1.341 . S
C297 C301 1.394 . S
C297 H313 0.930 . S
C298 C296 1.371 . S
C298 C299 1.392 . S
C298 H314 0.931 . S
C299 C298 1.392 . S
C299 C300 1.331 . S
C299 H317 0.932 . S
C300 C299 1.331 . S
C300 C301 1.336 . S
C301 C297 1.394 . S
C301 C300 1.336 . S
C301 H316 0.929 . S
C302 C292 1.386 . S
C302 C295 1.357 . S
C302 H315 0.928 . S
H303 C279 0.931 . S
H304 C281 0.930 . S
H305 C283 0.929 . S
H306 C284 0.931 . S
H307 C286 0.930 . S
H308 C290 0.931 . S
H309 C288 0.931 . S
H310 C292 0.931 . S
H311 C293 0.929 . S
H312 C294 0.947 . S
H313 C297 0.930 . S
H314 C298 0.931 . S
H315 C302 0.928 . S
H316 C301 0.929 . S
H317 C299 0.932 . S
C318 C319 1.386 . S
C318 C320 1.397 . S
C318 H342 0.931 . S
C319 C318 1.386 . S
C319 C323 1.397 . S
C320 C318 1.397 . S
C320 C321 1.384 . S
C320 H343 0.930 . S
C321 C320 1.384 . S
C321 C322 1.377 . S
C321 C324 1.481 . S
C322 C321 1.377 . S
C322 C323 1.389 . S
C322 H344 0.929 . S
C323 C319 1.397 . S
C323 C322 1.389 . S
C323 H345 0.931 . S
C324 C321 1.481 . S
C324 C325 1.387 . S
C324 C329 1.390 . S
C325 C324 1.387 . S
C325 C326 1.401 . S
C325 H346 0.930 . S
C326 C325 1.401 . S
C326 C327 1.376 . S
C326 C335 1.511 . S
C327 C326 1.376 . S
C327 C328 1.392 . S
C327 H348 0.931 . S
C328 C327 1.392 . S
C328 C329 1.361 . S
C328 C330 1.500 . S
C329 C324 1.390 . S
C329 C328 1.361 . S
C329 H347 0.931 . S
C330 C328 1.500 . S
C330 C331 1.371 . S
C330 C332 1.365 . S
C331 C330 1.371 . S
C331 C341 1.386 . S
C331 H349 0.931 . S
C332 C330 1.365 . S
C332 C333 1.409 . S
C332 H350 0.929 . S
C333 C332 1.409 . S
C333 C334 1.380 . S
C333 H351 0.930 . S
C334 C333 1.380 . S
C334 C341 1.357 . S
C335 C326 1.511 . S
C335 C336 1.341 . S
C335 C337 1.371 . S
C336 C335 1.341 . S
C336 C340 1.394 . S
C336 H352 0.930 . S
C337 C335 1.371 . S
C337 C338 1.392 . S
C337 H353 0.931 . S
C338 C337 1.392 . S
C338 C339 1.331 . S
C338 H356 0.932 . S
C339 C338 1.331 . S
C339 C340 1.336 . S
C340 C336 1.394 . S
C340 C339 1.336 . S
C340 H355 0.929 . S
C341 C331 1.386 . S
C341 C334 1.357 . S
C341 H354 0.928 . S
H342 C318 0.931 . S
H343 C320 0.930 . S
H344 C322 0.929 . S
H345 C323 0.931 . S
H346 C325 0.930 . S
H347 C329 0.931 . S
H348 C327 0.931 . S
H349 C331 0.931 . S
H350 C332 0.929 . S
H351 C333 0.930 . S
H352 C336 0.930 . S
H353 C337 0.931 . S
H354 C341 0.928 . S
H355 C340 0.929 . S
H356 C338 0.932 . S
C357 C358 1.386 . S
C357 C359 1.397 1_455 S
C357 H381 0.931 . S
C358 C357 1.386 . S
C358 C362 1.397 1_455 S
C359 C357 1.397 1_655 S
C359 C360 1.384 . S
C359 H382 0.930 . S
C360 C359 1.384 . S
C360 C361 1.377 . S
C360 C363 1.481 . S
C361 C360 1.377 . S
C361 C362 1.389 . S
C361 H383 0.929 . S
C362 C358 1.397 1_655 S
C362 C361 1.389 . S
C362 H384 0.931 . S
C363 C360 1.481 . S
C363 C364 1.387 . S
C363 C368 1.390 . S
C364 C363 1.387 . S
C364 C365 1.401 . S
C364 H385 0.930 . S
C365 C364 1.401 . S
C365 C366 1.376 . S
C365 C374 1.511 . S
C366 C365 1.376 . S
C366 C367 1.392 . S
C366 H387 0.931 . S
C367 C366 1.392 . S
C367 C368 1.361 . S
C367 C369 1.500 . S
C368 C363 1.390 . S
C368 C367 1.361 . S
C368 H386 0.931 . S
C369 C367 1.500 . S
C369 C370 1.371 . S
C369 C371 1.365 . S
C370 C369 1.371 . S
C370 C380 1.386 . S
C370 H388 0.931 . S
C371 C369 1.365 . S
C371 C372 1.409 . S
C371 H389 0.929 . S
C372 C371 1.409 . S
C372 C373 1.380 . S
C372 H390 0.930 . S
C373 C372 1.380 . S
C373 C380 1.357 . S
C374 C365 1.511 . S
C374 C375 1.341 . S
C374 C376 1.371 . S
C375 C374 1.341 . S
C375 C379 1.394 . S
C375 H391 0.930 . S
C376 C374 1.371 . S
C376 C377 1.392 . S
C376 H392 0.931 . S
C377 C376 1.392 . S
C377 C378 1.331 . S
C377 H395 0.932 . S
C378 C377 1.331 . S
C378 C379 1.336 . S
C379 C375 1.394 . S
C379 C378 1.336 . S
C379 H394 0.929 . S
C380 C370 1.386 . S
C380 C373 1.357 . S
C380 H393 0.928 . S
H381 C357 0.931 . S
H382 C359 0.930 . S
H383 C361 0.929 . S
H384 C362 0.931 . S
H385 C364 0.930 . S
H386 C368 0.931 . S
H387 C366 0.931 . S
H388 C370 0.931 . S
H389 C371 0.929 . S
H390 C372 0.930 . S
H391 C375 0.930 . S
H392 C376 0.931 . S
H393 C380 0.928 . S
H394 C379 0.929 . S
H395 C377 0.932 . S
H396 C414 0.951 . S
H397 C416 0.951 . S
H398 C418 0.950 . S
H399 C419 0.950 . S
H400 C421 0.950 . S
H401 C424 0.950 . S
H402 C425 0.950 . S
H403 C427 0.950 . S
H404 C428 0.950 . S
H405 C429 0.951 . S
H406 C431 0.951 . S
H407 C433 0.950 . S
H408 C434 0.950 . S
H409 C436 0.950 . S
H410 C439 0.950 . S
H411 C440 0.950 . S
H412 C442 0.950 . S
H413 C443 0.950 . S
C414 H396 0.951 . S
C414 C415 1.366 . S
C414 C416 1.388 . S
C415 C414 1.366 . S
C415 C419 1.385 . S
C416 H397 0.951 . S
C416 C414 1.388 . S
C416 C417 1.366 . S
C417 C416 1.366 . S
C417 C418 1.414 . S
C417 C420 1.499 . S
C418 H398 0.950 . S
C418 C417 1.414 . S
C418 C419 1.374 . S
C419 H399 0.950 . S
C419 C415 1.385 . S
C419 C418 1.374 . S
C420 C417 1.499 . S
C420 C421 1.373 . S
C420 C422 1.389 . S
C421 H400 0.950 . S
C421 C420 1.373 . S
C421 C437 1.377 . S
C422 C420 1.389 . S
C422 C423 1.524 . S
C422 C436 1.377 . S
C423 C422 1.524 . S
C423 C424 1.397 . S
C423 C428 1.363 . S
C424 H401 0.950 . S
C424 C423 1.397 . S
C424 C425 1.334 . S
C425 H402 0.950 . S
C425 C424 1.334 . S
C425 C426 1.287 . S
C426 C425 1.287 . S
C426 C427 1.524 . S
C426 H445 0.913 . S
C427 H403 0.950 . S
C427 C426 1.524 . S
C427 C428 1.415 . S
C428 H404 0.950 . S
C428 C423 1.363 . S
C428 C427 1.415 . S
C429 H405 0.951 . S
C429 C430 1.366 1_565 S
C429 C431 1.388 . S
C430 C429 1.366 1_545 S
C430 C434 1.385 . S
C431 H406 0.951 . S
C431 C429 1.388 . S
C431 C432 1.366 . S
C432 C431 1.366 . S
C432 C433 1.414 1_565 S
C432 C435 1.499 . S
C433 H407 0.950 . S
C433 C432 1.414 1_545 S
C433 C434 1.374 . S
C434 H408 0.950 . S
C434 C430 1.385 . S
C434 C433 1.374 . S
C435 C432 1.499 . S
C435 C436 1.373 . S
C435 C437 1.389 . S
C436 H409 0.950 . S
C436 C422 1.377 . S
C436 C435 1.373 . S
C437 C421 1.377 . S
C437 C435 1.389 . S
C437 C438 1.524 . S
C438 C437 1.524 . S
C438 C439 1.397 . S
C438 C443 1.363 . S
C439 H410 0.950 . S
C439 C438 1.397 . S
C439 C440 1.334 . S
C440 H411 0.950 . S
C440 C439 1.334 . S
C440 C441 1.287 . S
C441 C440 1.287 . S
C441 C442 1.524 . S
C441 H444 0.999 . S
C442 H412 0.950 . S
C442 C441 1.524 . S
C442 C443 1.415 . S
C443 H413 0.950 . S
C443 C438 1.363 . S
C443 C442 1.415 . S
H444 C441 0.999 . S
H445 C426 0.913 . S
H446 C464 0.951 . S
H447 C466 0.951 . S
H448 C468 0.950 . S
H449 C469 0.950 . S
H450 C471 0.950 . S
H451 C474 0.950 . S
H452 C475 0.950 . S
H453 C477 0.950 . S
H454 C478 0.950 . S
H455 C479 0.951 . S
H456 C481 0.951 . S
H457 C483 0.950 . S
H458 C484 0.950 . S
H459 C486 0.950 . S
H460 C489 0.950 . S
H461 C490 0.950 . S
H462 C492 0.950 . S
H463 C493 0.950 . S
C464 H446 0.951 . S
C464 C465 1.366 . S
C464 C466 1.388 . S
C465 C464 1.366 . S
C465 C469 1.385 . S
C466 H447 0.951 . S
C466 C464 1.388 . S
C466 C467 1.366 . S
C467 C466 1.366 . S
C467 C468 1.414 . S
C467 C470 1.499 . S
C468 H448 0.950 . S
C468 C467 1.414 . S
C468 C469 1.374 . S
C469 H449 0.950 . S
C469 C465 1.385 . S
C469 C468 1.374 . S
C470 C467 1.499 . S
C470 C471 1.373 . S
C470 C472 1.389 . S
C471 H450 0.950 . S
C471 C470 1.373 . S
C471 C487 1.377 . S
C472 C470 1.389 . S
C472 C473 1.524 . S
C472 C486 1.377 . S
C473 C472 1.524 . S
C473 C474 1.397 . S
C473 C478 1.363 . S
C474 H451 0.950 . S
C474 C473 1.397 . S
C474 C475 1.334 . S
C475 H452 0.950 . S
C475 C474 1.334 . S
C475 C476 1.287 . S
C476 C475 1.287 . S
C476 C477 1.524 . S
C476 H495 0.913 . S
C477 H453 0.950 . S
C477 C476 1.524 . S
C477 C478 1.415 . S
C478 H454 0.950 . S
C478 C473 1.363 . S
C478 C477 1.415 . S
C479 H455 0.951 . S
C479 C480 1.366 . S
C479 C481 1.388 . S
C480 C479 1.366 . S
C480 C484 1.385 . S
C481 H456 0.951 . S
C481 C479 1.388 . S
C481 C482 1.366 . S
C482 C481 1.366 . S
C482 C483 1.414 . S
C482 C485 1.499 . S
C483 H457 0.950 . S
C483 C482 1.414 . S
C483 C484 1.374 . S
C484 H458 0.950 . S
C484 C480 1.385 . S
C484 C483 1.374 . S
C485 C482 1.499 . S
C485 C486 1.373 . S
C485 C487 1.389 . S
C486 H459 0.950 . S
C486 C472 1.377 . S
C486 C485 1.373 . S
C487 C471 1.377 . S
C487 C485 1.389 . S
C487 C488 1.524 . S
C488 C487 1.524 . S
C488 C489 1.397 . S
C488 C493 1.363 . S
C489 H460 0.950 . S
C489 C488 1.397 . S
C489 C490 1.334 . S
C490 H461 0.950 . S
C490 C489 1.334 . S
C490 C491 1.287 . S
C491 C490 1.287 . S
C491 C492 1.524 . S
C491 H494 0.999 . S
C492 H462 0.950 . S
C492 C491 1.524 . S
C492 C493 1.415 . S
C493 H463 0.950 . S
C493 C488 1.363 . S
C493 C492 1.415 . S
H494 C491 0.999 . S
H495 C476 0.913 . S
H496 C514 0.951 . S
H497 C516 0.951 . S
H498 C518 0.950 . S
H499 C519 0.950 . S
H500 C521 0.950 . S
H501 C524 0.950 . S
H502 C525 0.950 . S
H503 C527 0.950 . S
H504 C528 0.950 . S
H505 C529 0.951 . S
H506 C531 0.951 . S
H507 C533 0.950 1_545 S
H508 C534 0.950 . S
H509 C536 0.950 . S
H510 C539 0.950 . S
H511 C540 0.947 1_556 S
H512 C542 0.950 . S
H513 C543 0.950 . S
C514 H496 0.951 . S
C514 C515 1.366 . S
C514 C516 1.388 . S
C515 C514 1.366 . S
C515 C519 1.385 . S
C516 H497 0.951 . S
C516 C514 1.388 . S
C516 C517 1.366 . S
C517 C516 1.366 . S
C517 C518 1.414 . S
C517 C520 1.499 . S
C518 H498 0.950 . S
C518 C517 1.414 . S
C518 C519 1.374 . S
C519 H499 0.950 . S
C519 C515 1.385 . S
C519 C518 1.374 . S
C520 C517 1.499 . S
C520 C521 1.373 . S
C520 C522 1.389 . S
C521 H500 0.950 . S
C521 C520 1.373 . S
C521 C537 1.377 . S
C522 C520 1.389 . S
C522 C523 1.524 . S
C522 C536 1.377 . S
C523 C522 1.524 . S
C523 C524 1.397 . S
C523 C528 1.363 . S
C524 H501 0.950 . S
C524 C523 1.397 . S
C524 C525 1.334 . S
C525 H502 0.950 . S
C525 C524 1.334 . S
C525 C526 1.287 . S
C526 C525 1.287 . S
C526 C527 1.524 . S
C526 H545 0.913 . S
C527 H503 0.950 . S
C527 C526 1.524 . S
C527 C528 1.415 . S
C528 H504 0.950 . S
C528 C523 1.363 . S
C528 C527 1.415 . S
C529 H505 0.951 . S
C529 C530 1.366 . S
C529 C531 1.388 . S
C530 C529 1.366 . S
C530 C534 1.385 . S
C531 H506 0.951 . S
C531 C529 1.388 . S
C531 C532 1.366 . S
C532 C531 1.366 . S
C532 C533 1.414 . S
C532 C535 1.499 1_565 S
C533 H507 0.950 1_565 S
C533 C532 1.414 . S
C533 C534 1.374 . S
C534 H508 0.950 . S
C534 C530 1.385 . S
C534 C533 1.374 . S
C535 C532 1.499 1_545 S
C535 C536 1.373 . S
C535 C537 1.389 . S
C536 H509 0.950 . S
C536 C522 1.377 . S
C536 C535 1.373 . S
C537 C521 1.377 . S
C537 C535 1.389 . S
C537 C538 1.524 1_545 S
C538 C537 1.524 1_565 S
C538 C539 1.397 . S
C538 C543 1.363 . S
C539 H510 0.950 . S
C539 C538 1.397 . S
C539 C540 1.348 . S
C540 H511 0.947 1_554 S
C540 C539 1.348 . S
C540 C541 1.277 1_554 S
C541 C540 1.277 1_556 S
C541 C542 1.524 . S
C541 H544 0.999 . S
C542 H512 0.950 . S
C542 C541 1.524 . S
C542 C543 1.415 1_556 S
C543 H513 0.950 . S
C543 C538 1.363 . S
C543 C542 1.415 1_554 S
H544 C541 0.999 . S
H545 C526 0.913 . S
H546 C564 0.951 . S
H547 C566 0.951 . S
H548 C568 0.950 . S
H549 C569 0.950 . S
H550 C571 0.950 . S
H551 C574 0.950 . S
H552 C575 0.950 . S
H553 C577 0.950 . S
H554 C578 0.950 . S
H555 C579 0.951 . S
H556 C581 0.951 . S
H557 C583 0.950 . S
H558 C584 0.950 . S
H559 C586 0.950 . S
H560 C589 0.950 . S
H561 C590 0.950 . S
H562 C592 0.950 . S
H563 C593 0.950 . S
C564 H546 0.951 . S
C564 C565 1.366 . S
C564 C566 1.388 . S
C565 C564 1.366 . S
C565 C569 1.385 . S
C566 H547 0.951 . S
C566 C564 1.388 . S
C566 C567 1.366 . S
C567 C566 1.366 . S
C567 C568 1.414 . S
C567 C570 1.499 . S
C568 H548 0.950 . S
C568 C567 1.414 . S
C568 C569 1.374 . S
C569 H549 0.950 . S
C569 C565 1.385 . S
C569 C568 1.374 . S
C570 C567 1.499 . S
C570 C571 1.373 . S
C570 C572 1.389 . S
C571 H550 0.950 . S
C571 C570 1.373 . S
C571 C587 1.377 . S
C572 C570 1.389 . S
C572 C573 1.524 . S
C572 C586 1.377 . S
C573 C572 1.524 . S
C573 C574 1.397 . S
C573 C578 1.363 . S
C574 H551 0.950 . S
C574 C573 1.397 . S
C574 C575 1.334 . S
C575 H552 0.950 . S
C575 C574 1.334 . S
C575 C576 1.287 . S
C576 C575 1.287 . S
C576 C577 1.524 . S
C576 H595 0.913 . S
C577 H553 0.950 . S
C577 C576 1.524 . S
C577 C578 1.415 . S
C578 H554 0.950 . S
C578 C573 1.363 . S
C578 C577 1.415 . S
C579 H555 0.951 . S
C579 C580 1.366 . S
C579 C581 1.388 . S
C580 C579 1.366 . S
C580 C584 1.385 . S
C581 H556 0.951 . S
C581 C579 1.388 . S
C581 C582 1.366 . S
C582 C581 1.366 . S
C582 C583 1.414 . S
C582 C585 1.499 . S
C583 H557 0.950 . S
C583 C582 1.414 . S
C583 C584 1.374 . S
C584 H558 0.950 . S
C584 C580 1.385 . S
C584 C583 1.374 . S
C585 C582 1.499 . S
C585 C586 1.373 . S
C585 C587 1.389 . S
C586 H559 0.950 . S
C586 C572 1.377 . S
C586 C585 1.373 . S
C587 C571 1.377 . S
C587 C585 1.389 . S
C587 C588 1.524 . S
C588 C587 1.524 . S
C588 C589 1.397 . S
C588 C593 1.363 . S
C589 H560 0.950 . S
C589 C588 1.397 . S
C589 C590 1.334 . S
C590 H561 0.950 . S
C590 C589 1.334 . S
C590 C591 1.287 . S
C591 C590 1.287 . S
C591 C592 1.524 . S
C591 H594 0.999 . S
C592 H562 0.950 . S
C592 C591 1.524 . S
C592 C593 1.415 . S
C593 H563 0.950 . S
C593 C588 1.363 . S
C593 C592 1.415 . S
H594 C591 0.999 . S
H595 C576 0.913 . S
H596 C614 0.951 . S
H597 C616 0.951 . S
H598 C618 0.950 . S
H599 C619 0.950 . S
H600 C621 0.950 . S
H601 C624 0.950 . S
H602 C625 0.950 . S
H603 C627 0.950 . S
H604 C628 0.950 . S
H605 C629 0.951 . S
H606 C631 0.951 . S
H607 C633 0.950 . S
H608 C634 0.950 . S
H609 C636 0.950 . S
H610 C639 0.950 . S
H611 C640 0.950 . S
H612 C642 0.950 . S
H613 C643 0.950 . S
C614 H596 0.951 . S
C614 C615 1.366 . S
C614 C616 1.388 . S
C615 C614 1.366 . S
C615 C619 1.385 . S
C616 H597 0.951 . S
C616 C614 1.388 . S
C616 C617 1.366 . S
C617 C616 1.366 . S
C617 C618 1.414 . S
C617 C620 1.499 . S
C618 H598 0.950 . S
C618 C617 1.414 . S
C618 C619 1.374 . S
C619 H599 0.950 . S
C619 C615 1.385 . S
C619 C618 1.374 . S
C620 C617 1.499 . S
C620 C621 1.373 . S
C620 C622 1.389 . S
C621 H600 0.950 . S
C621 C620 1.373 . S
C621 C637 1.377 . S
C622 C620 1.389 . S
C622 C623 1.524 . S
C622 C636 1.377 . S
C623 C622 1.524 . S
C623 C624 1.397 . S
C623 C628 1.363 . S
C624 H601 0.950 . S
C624 C623 1.397 . S
C624 C625 1.334 . S
C625 H602 0.950 . S
C625 C624 1.334 . S
C625 C626 1.287 . S
C626 C625 1.287 . S
C626 C627 1.524 . S
C626 H645 0.913 . S
C627 H603 0.950 . S
C627 C626 1.524 . S
C627 C628 1.415 . S
C628 H604 0.950 . S
C628 C623 1.363 . S
C628 C627 1.415 . S
C629 H605 0.951 . S
C629 C630 1.366 . S
C629 C631 1.388 . S
C630 C629 1.366 . S
C630 C634 1.385 . S
C631 H606 0.951 . S
C631 C629 1.388 . S
C631 C632 1.366 . S
C632 C631 1.366 . S
C632 C633 1.414 . S
C632 C635 1.499 . S
C633 H607 0.950 . S
C633 C632 1.414 . S
C633 C634 1.374 . S
C634 H608 0.950 . S
C634 C630 1.385 . S
C634 C633 1.374 . S
C635 C632 1.499 . S
C635 C636 1.373 . S
C635 C637 1.389 . S
C636 H609 0.950 . S
C636 C622 1.377 . S
C636 C635 1.373 . S
C637 C621 1.377 . S
C637 C635 1.389 . S
C637 C638 1.524 . S
C638 C637 1.524 . S
C638 C639 1.397 . S
C638 C643 1.363 . S
C639 H610 0.950 . S
C639 C638 1.397 . S
C639 C640 1.334 . S
C640 H611 0.950 . S
C640 C639 1.334 . S
C640 C641 1.287 . S
C641 C640 1.287 . S
C641 C642 1.524 . S
C641 H644 0.999 . S
C642 H612 0.950 . S
C642 C641 1.524 . S
C642 C643 1.415 . S
C643 H613 0.950 . S
C643 C638 1.363 . S
C643 C642 1.415 . S
H644 C641 0.999 . S
H645 C626 0.913 . S
H646 C664 0.951 . S
H647 C666 0.951 . S
H648 C668 0.950 . S
H649 C669 0.950 . S
H650 C671 0.950 1_554 S
H651 C674 0.950 . S
H652 C675 0.950 . S
H653 C677 0.950 . S
H654 C678 0.950 . S
H655 C679 0.951 . S
H656 C681 0.951 . S
H657 C683 0.950 . S
H658 C684 0.950 . S
H659 C686 0.942 1_455 S
H660 C689 0.950 . S
H661 C690 0.950 . S
H662 C692 0.950 . S
H663 C693 0.950 . S
C664 H646 0.951 . S
C664 C665 1.366 . S
C664 C666 1.388 . S
C665 C664 1.366 . S
C665 C669 1.385 . S
C666 H647 0.951 . S
C666 C664 1.388 . S
C666 C667 1.366 . S
C667 C666 1.366 . S
C667 C668 1.414 . S
C667 C670 1.499 . S
C668 H648 0.950 . S
C668 C667 1.414 . S
C668 C669 1.374 . S
C669 H649 0.950 . S
C669 C665 1.385 . S
C669 C668 1.374 . S
C670 C667 1.499 . S
C670 C671 1.373 . S
C670 C672 1.389 . S
C671 H650 0.950 1_556 S
C671 C670 1.373 . S
C671 C687 1.377 1_655 S
C672 C670 1.389 . S
C672 C673 1.524 . S
C672 C686 1.377 . S
C673 C672 1.524 . S
C673 C674 1.397 . S
C673 C678 1.363 . S
C674 H651 0.950 . S
C674 C673 1.397 . S
C674 C675 1.334 . S
C675 H652 0.950 . S
C675 C674 1.334 . S
C675 C676 1.287 . S
C676 C675 1.287 . S
C676 C677 1.524 . S
C676 H695 0.913 . S
C677 H653 0.950 . S
C677 C676 1.524 . S
C677 C678 1.415 . S
C678 H654 0.950 . S
C678 C673 1.363 . S
C678 C677 1.415 . S
C679 H655 0.951 . S
C679 C680 1.366 . S
C679 C681 1.388 . S
C680 C679 1.366 . S
C680 C684 1.385 . S
C681 H656 0.951 . S
C681 C679 1.388 . S
C681 C682 1.366 . S
C682 C681 1.366 . S
C682 C683 1.414 . S
C682 C685 1.499 . S
C683 H657 0.950 . S
C683 C682 1.414 . S
C683 C684 1.374 . S
C684 H658 0.950 . S
C684 C680 1.385 . S
C684 C683 1.374 . S
C685 C682 1.499 . S
C685 C686 1.373 1_455 S
C685 C687 1.389 . S
C686 H659 0.942 1_655 S
C686 C672 1.377 . S
C686 C685 1.373 1_655 S
C687 C671 1.377 1_455 S
C687 C685 1.389 . S
C687 C688 1.524 1_556 S
C688 C687 1.524 1_554 S
C688 C689 1.397 . S
C688 C693 1.363 . S
C689 H660 0.950 . S
C689 C688 1.397 . S
C689 C690 1.334 . S
C690 H661 0.950 . S
C690 C689 1.334 . S
C690 C691 1.287 . S
C691 C690 1.287 . S
C691 C692 1.524 . S
C691 H694 0.999 . S
C692 H662 0.950 . S
C692 C691 1.524 . S
C692 C693 1.415 . S
C693 H663 0.950 . S
C693 C688 1.363 . S
C693 C692 1.415 . S
H694 C691 0.999 . S
H695 C676 0.913 . S
H696 C714 0.951 . S
H697 C716 0.951 . S
H698 C718 0.950 . S
H699 C719 0.950 . S
H700 C721 0.950 . S
H701 C724 0.950 . S
H702 C725 0.950 . S
H703 C727 0.950 . S
H704 C728 0.950 . S
H705 C729 0.951 . S
H706 C731 0.951 . S
H707 C733 0.950 . S
H708 C734 0.950 . S
H709 C736 0.950 . S
H710 C739 0.950 . S
H711 C740 0.950 . S
H712 C742 0.950 . S
H713 C743 0.950 . S
C714 H696 0.951 . S
C714 C715 1.366 . S
C714 C716 1.388 . S
C715 C714 1.366 . S
C715 C719 1.385 . S
C716 H697 0.951 . S
C716 C714 1.388 . S
C716 C717 1.366 . S
C717 C716 1.366 . S
C717 C718 1.414 . S
C717 C720 1.499 . S
C718 H698 0.950 . S
C718 C717 1.414 . S
C718 C719 1.374 . S
C719 H699 0.950 . S
C719 C715 1.385 . S
C719 C718 1.374 . S
C720 C717 1.499 . S
C720 C721 1.373 . S
C720 C722 1.389 . S
C721 H700 0.950 . S
C721 C720 1.373 . S
C721 C737 1.377 . S
C722 C720 1.389 . S
C722 C723 1.524 . S
C722 C736 1.377 . S
C723 C722 1.524 . S
C723 C724 1.397 . S
C723 C728 1.363 . S
C724 H701 0.950 . S
C724 C723 1.397 . S
C724 C725 1.334 . S
C725 H702 0.950 . S
C725 C724 1.334 . S
C725 C726 1.287 . S
C726 C725 1.287 . S
C726 C727 1.524 . S
C726 H745 0.913 . S
C727 H703 0.950 . S
C727 C726 1.524 . S
C727 C728 1.415 . S
C728 H704 0.950 . S
C728 C723 1.363 . S
C728 C727 1.415 . S
C729 H705 0.951 . S
C729 C730 1.366 . S
C729 C731 1.388 . S
C730 C729 1.366 . S
C730 C734 1.385 . S
C731 H706 0.951 . S
C731 C729 1.388 . S
C731 C732 1.366 . S
C732 C731 1.366 . S
C732 C733 1.414 . S
C732 C735 1.499 . S
C733 H707 0.950 . S
C733 C732 1.414 . S
C733 C734 1.374 . S
C734 H708 0.950 . S
C734 C730 1.385 . S
C734 C733 1.374 . S
C735 C732 1.499 . S
C735 C736 1.373 . S
C735 C737 1.389 . S
C736 H709 0.950 . S
C736 C722 1.377 . S
C736 C735 1.373 . S
C737 C721 1.377 . S
C737 C735 1.389 . S
C737 C738 1.524 . S
C738 C737 1.524 . S
C738 C739 1.397 . S
C738 C743 1.363 . S
C739 H710 0.950 . S
C739 C738 1.397 . S
C739 C740 1.334 . S
C740 H711 0.950 . S
C740 C739 1.334 . S
C740 C741 1.287 . S
C741 C740 1.287 . S
C741 C742 1.524 . S
C741 H744 0.999 . S
C742 H712 0.950 . S
C742 C741 1.524 . S
C742 C743 1.415 . S
C743 H713 0.950 . S
C743 C738 1.363 . S
C743 C742 1.415 . S
H744 C741 0.999 . S
H745 C726 0.913 . S
H746 C764 0.951 . S
H747 C766 0.951 . S
H748 C768 0.950 . S
H749 C769 0.950 1_554 S
H750 C771 0.950 . S
H751 C774 0.950 . S
H752 C775 0.950 . S
H753 C777 0.950 . S
H754 C778 0.950 . S
H755 C779 0.951 1_655 S
H756 C781 0.951 . S
H757 C783 0.950 . S
H758 C784 0.950 . S
H759 C786 0.950 . S
H760 C789 0.950 . S
H761 C790 0.950 . S
H762 C792 0.950 . S
H763 C793 0.950 . S
C764 H746 0.951 . S
C764 C765 1.366 . S
C764 C766 1.388 . S
C765 C764 1.366 . S
C765 C769 1.385 . S
C766 H747 0.951 . S
C766 C764 1.388 . S
C766 C767 1.366 . S
C767 C766 1.366 . S
C767 C768 1.414 . S
C767 C770 1.499 . S
C768 H748 0.950 . S
C768 C767 1.414 . S
C768 C769 1.374 . S
C769 H749 0.950 1_556 S
C769 C765 1.385 . S
C769 C768 1.374 . S
C770 C767 1.499 . S
C770 C771 1.373 . S
C770 C772 1.389 . S
C771 H750 0.950 . S
C771 C770 1.373 . S
C771 C787 1.377 . S
C772 C770 1.389 . S
C772 C773 1.524 . S
C772 C786 1.377 . S
C773 C772 1.524 . S
C773 C774 1.397 . S
C773 C778 1.363 . S
C774 H751 0.950 . S
C774 C773 1.397 . S
C774 C775 1.334 . S
C775 H752 0.950 . S
C775 C774 1.334 . S
C775 C776 1.287 . S
C776 C775 1.287 . S
C776 C777 1.524 . S
C776 H795 0.913 . S
C777 H753 0.950 . S
C777 C776 1.524 . S
C777 C778 1.415 . S
C778 H754 0.950 . S
C778 C773 1.363 . S
C778 C777 1.415 . S
C779 H755 0.951 1_455 S
C779 C780 1.366 . S
C779 C781 1.388 . S
C780 C779 1.366 . S
C780 C784 1.385 . S
C781 H756 0.951 . S
C781 C779 1.388 . S
C781 C782 1.366 . S
C782 C781 1.366 . S
C782 C783 1.414 . S
C782 C785 1.499 . S
C783 H757 0.950 . S
C783 C782 1.414 . S
C783 C784 1.374 . S
C784 H758 0.950 . S
C784 C780 1.385 . S
C784 C783 1.374 . S
C785 C782 1.499 . S
C785 C786 1.373 . S
C785 C787 1.389 . S
C786 H759 0.950 . S
C786 C772 1.377 . S
C786 C785 1.373 . S
C787 C771 1.377 . S
C787 C785 1.389 . S
C787 C788 1.524 . S
C788 C787 1.524 . S
C788 C789 1.397 . S
C788 C793 1.363 . S
C789 H760 0.950 . S
C789 C788 1.397 . S
C789 C790 1.334 . S
C790 H761 0.950 . S
C790 C789 1.334 . S
C790 C791 1.287 . S
C791 C790 1.287 . S
C791 C792 1.524 . S
C791 H794 0.999 . S
C792 H762 0.950 . S
C792 C791 1.524 . S
C792 C793 1.415 . S
C793 H763 0.950 . S
C793 C788 1.363 . S
C793 C792 1.415 . S
H794 C791 0.999 . S
H795 C776 0.913 . S
H796 C814 0.951 . S
H797 C816 0.951 . S
H798 C818 0.950 . S
H799 C819 0.950 . S
H800 C821 0.950 . S
H801 C824 0.950 . S
H802 C825 0.950 . S
H803 C827 0.950 . S
H804 C828 0.950 . S
H805 C829 0.951 . S
H806 C831 0.951 . S
H807 C833 0.950 . S
H808 C834 0.950 . S
H809 C836 0.950 . S
H810 C839 0.950 . S
H811 C840 0.950 . S
H812 C842 0.950 . S
H813 C843 0.950 . S
C814 H796 0.951 . S
C814 C815 1.366 . S
C814 C816 1.388 . S
C815 C814 1.366 . S
C815 C819 1.385 . S
C816 H797 0.951 . S
C816 C814 1.388 . S
C816 C817 1.366 . S
C817 C816 1.366 . S
C817 C818 1.414 . S
C817 C820 1.499 . S
C818 H798 0.950 . S
C818 C817 1.414 . S
C818 C819 1.374 . S
C819 H799 0.950 . S
C819 C815 1.385 . S
C819 C818 1.374 . S
C820 C817 1.499 . S
C820 C821 1.373 . S
C820 C822 1.389 . S
C821 H800 0.950 . S
C821 C820 1.373 . S
C821 C837 1.377 1_545 S
C822 C820 1.389 . S
C822 C823 1.524 . S
C822 C836 1.377 . S
C823 C822 1.524 . S
C823 C824 1.397 . S
C823 C828 1.363 . S
C824 H801 0.950 . S
C824 C823 1.397 . S
C824 C825 1.334 . S
C825 H802 0.950 . S
C825 C824 1.334 . S
C825 C826 1.287 . S
C826 C825 1.287 . S
C826 C827 1.524 . S
C826 H845 0.913 . S
C827 H803 0.950 . S
C827 C826 1.524 . S
C827 C828 1.415 . S
C828 H804 0.950 . S
C828 C823 1.363 . S
C828 C827 1.415 . S
C829 H805 0.951 . S
C829 C830 1.366 . S
C829 C831 1.388 . S
C830 C829 1.366 . S
C830 C834 1.385 . S
C831 H806 0.951 . S
C831 C829 1.388 . S
C831 C832 1.366 . S
C832 C831 1.366 . S
C832 C833 1.414 . S
C832 C835 1.499 . S
C833 H807 0.950 . S
C833 C832 1.414 . S
C833 C834 1.374 . S
C834 H808 0.950 . S
C834 C830 1.385 . S
C834 C833 1.374 . S
C835 C832 1.499 . S
C835 C836 1.373 1_565 S
C835 C837 1.389 . S
C836 H809 0.950 . S
C836 C822 1.377 . S
C836 C835 1.373 1_545 S
C837 C821 1.377 1_565 S
C837 C835 1.389 . S
C837 C838 1.524 . S
C838 C837 1.524 . S
C838 C839 1.397 . S
C838 C843 1.363 . S
C839 H810 0.950 . S
C839 C838 1.397 . S
C839 C840 1.334 . S
C840 H811 0.950 . S
C840 C839 1.334 . S
C840 C841 1.287 . S
C841 C840 1.287 . S
C841 C842 1.524 . S
C841 H844 0.999 . S
C842 H812 0.950 . S
C842 C841 1.524 . S
C842 C843 1.415 . S
C843 H813 0.950 . S
C843 C838 1.363 . S
C843 C842 1.415 . S
H844 C841 0.999 . S
H845 C826 0.913 . S
H846 C864 0.951 . S
H847 C866 0.951 . S
H848 C868 0.950 . S
H849 C869 0.950 . S
H850 C871 0.950 . S
H851 C874 0.950 . S
H852 C875 0.950 . S
H853 C877 0.950 . S
H854 C878 0.950 . S
H855 C879 0.951 . S
H856 C881 0.951 . S
H857 C883 0.950 . S
H858 C884 0.950 . S
H859 C886 0.950 . S
H860 C889 0.950 . S
H861 C890 0.950 . S
H862 C892 0.950 . S
H863 C893 0.950 . S
C864 H846 0.951 . S
C864 C865 1.366 . S
C864 C866 1.388 . S
C865 C864 1.366 . S
C865 C869 1.385 . S
C866 H847 0.951 . S
C866 C864 1.388 . S
C866 C867 1.366 . S
C867 C866 1.366 . S
C867 C868 1.414 . S
C867 C870 1.499 . S
C868 H848 0.950 . S
C868 C867 1.414 . S
C868 C869 1.374 . S
C869 H849 0.950 . S
C869 C865 1.385 . S
C869 C868 1.374 . S
C870 C867 1.499 . S
C870 C871 1.373 . S
C870 C872 1.389 . S
C871 H850 0.950 . S
C871 C870 1.373 . S
C871 C887 1.377 . S
C872 C870 1.389 . S
C872 C873 1.524 . S
C872 C886 1.377 . S
C873 C872 1.524 . S
C873 C874 1.397 . S
C873 C878 1.363 . S
C874 H851 0.950 . S
C874 C873 1.397 . S
C874 C875 1.334 . S
C875 H852 0.950 . S
C875 C874 1.334 . S
C875 C876 1.287 . S
C876 C875 1.287 . S
C876 C877 1.524 . S
C876 H895 0.913 . S
C877 H853 0.950 . S
C877 C876 1.524 . S
C877 C878 1.415 . S
C878 H854 0.950 . S
C878 C873 1.363 . S
C878 C877 1.415 . S
C879 H855 0.951 . S
C879 C880 1.366 . S
C879 C881 1.388 . S
C880 C879 1.366 . S
C880 C884 1.385 . S
C881 H856 0.951 . S
C881 C879 1.388 . S
C881 C882 1.366 . S
C882 C881 1.366 . S
C882 C883 1.414 . S
C882 C885 1.499 . S
C883 H857 0.950 . S
C883 C882 1.414 . S
C883 C884 1.374 . S
C884 H858 0.950 . S
C884 C880 1.385 . S
C884 C883 1.374 . S
C885 C882 1.499 . S
C885 C886 1.373 . S
C885 C887 1.389 . S
C886 H859 0.950 . S
C886 C872 1.377 . S
C886 C885 1.373 . S
C887 C871 1.377 . S
C887 C885 1.389 . S
C887 C888 1.524 . S
C888 C887 1.524 . S
C888 C889 1.397 . S
C888 C893 1.363 . S
C889 H860 0.950 . S
C889 C888 1.397 . S
C889 C890 1.334 . S
C890 H861 0.950 . S
C890 C889 1.334 . S
C890 C891 1.287 . S
C891 C890 1.287 . S
C891 C892 1.524 . S
C891 H894 0.999 . S
C892 H862 0.950 . S
C892 C891 1.524 . S
C892 C893 1.415 . S
C893 H863 0.950 . S
C893 C888 1.363 . S
C893 C892 1.415 . S
H894 C891 0.999 . S
H895 C876 0.913 . S
H896 C914 0.951 1_556 S
H897 C916 0.951 . S
H898 C918 0.950 . S
H899 C919 0.950 . S
H900 C921 0.950 . S
H901 C924 0.950 . S
H902 C925 0.950 . S
H903 C927 0.950 . S
H904 C928 0.950 . S
H905 C929 0.951 1_554 S
H906 C931 0.951 . S
H907 C933 0.950 . S
H908 C934 0.950 . S
H909 C936 0.950 . S
H910 C939 0.950 . S
H911 C940 0.950 . S
H912 C942 0.950 . S
H913 C943 0.950 . S
C914 H896 0.951 1_554 S
C914 C915 1.366 . S
C914 C916 1.388 1_554 S
C915 C914 1.366 . S
C915 C919 1.385 . S
C916 H897 0.951 . S
C916 C914 1.388 1_556 S
C916 C917 1.366 1_556 S
C917 C916 1.366 1_554 S
C917 C918 1.414 . S
C917 C920 1.499 . S
C918 H898 0.950 . S
C918 C917 1.414 . S
C918 C919 1.374 . S
C919 H899 0.950 . S
C919 C915 1.385 . S
C919 C918 1.374 . S
C920 C917 1.499 . S
C920 C921 1.373 . S
C920 C922 1.389 1_554 S
C921 H900 0.950 . S
C921 C920 1.373 . S
C921 C937 1.377 1_565 S
C922 C920 1.389 1_556 S
C922 C923 1.524 . S
C922 C936 1.377 1_565 S
C923 C922 1.524 . S
C923 C924 1.397 . S
C923 C928 1.363 . S
C924 H901 0.950 . S
C924 C923 1.397 . S
C924 C925 1.334 . S
C925 H902 0.950 . S
C925 C924 1.334 . S
C925 C926 1.287 . S
C926 C925 1.287 . S
C926 C927 1.524 . S
C926 H945 0.913 . S
C927 H903 0.950 . S
C927 C926 1.524 . S
C927 C928 1.415 . S
C928 H904 0.950 . S
C928 C923 1.363 . S
C928 C927 1.415 . S
C929 H905 0.951 1_556 S
C929 C930 1.366 . S
C929 C931 1.388 1_556 S
C930 C929 1.366 . S
C930 C934 1.385 . S
C931 H906 0.951 . S
C931 C929 1.388 1_554 S
C931 C932 1.366 1_554 S
C932 C931 1.366 1_556 S
C932 C933 1.414 . S
C932 C935 1.499 . S
C933 H907 0.950 . S
C933 C932 1.414 . S
C933 C934 1.374 . S
C934 H908 0.950 . S
C934 C930 1.385 . S
C934 C933 1.374 . S
C935 C932 1.499 . S
C935 C936 1.373 . S
C935 C937 1.389 1_556 S
C936 H909 0.950 . S
C936 C922 1.377 1_545 S
C936 C935 1.373 . S
C937 C921 1.377 1_545 S
C937 C935 1.389 1_554 S
C937 C938 1.524 . S
C938 C937 1.524 . S
C938 C939 1.397 . S
C938 C943 1.363 . S
C939 H910 0.950 . S
C939 C938 1.397 . S
C939 C940 1.334 . S
C940 H911 0.950 . S
C940 C939 1.334 . S
C940 C941 1.287 . S
C941 C940 1.287 . S
C941 C942 1.524 . S
C941 H944 0.999 . S
C942 H912 0.950 . S
C942 C941 1.524 . S
C942 C943 1.415 . S
C943 H913 0.950 . S
C943 C938 1.363 . S
C943 C942 1.415 . S
H944 C941 0.999 . S
H945 C926 0.913 . S
H946 C964 0.951 . S
H947 C966 0.951 . S
H948 C968 0.950 . S
H949 C969 0.950 . S
H950 C971 0.950 . S
H951 C974 0.950 . S
H952 C975 0.950 . S
H953 C977 0.950 . S
H954 C978 0.950 . S
H955 C979 0.951 . S
H956 C981 0.951 . S
H957 C983 0.950 . S
H958 C984 0.950 . S
H959 C986 0.950 . S
H960 C989 0.950 . S
H961 C990 0.950 . S
H962 C992 0.950 . S
H963 C993 0.950 . S
C964 H946 0.951 . S
C964 C965 1.366 . S
C964 C966 1.388 . S
C965 C964 1.366 . S
C965 C969 1.385 . S
C966 H947 0.951 . S
C966 C964 1.388 . S
C966 C967 1.366 . S
C967 C966 1.366 . S
C967 C968 1.414 . S
C967 C970 1.499 . S
C968 H948 0.950 . S
C968 C967 1.414 . S
C968 C969 1.374 . S
C969 H949 0.950 . S
C969 C965 1.385 . S
C969 C968 1.374 . S
C970 C967 1.499 . S
C970 C971 1.373 . S
C970 C972 1.389 . S
C971 H950 0.950 . S
C971 C970 1.373 . S
C971 C987 1.377 . S
C972 C970 1.389 . S
C972 C973 1.524 . S
C972 C986 1.377 . S
C973 C972 1.524 . S
C973 C974 1.397 . S
C973 C978 1.363 . S
C974 H951 0.950 . S
C974 C973 1.397 . S
C974 C975 1.334 . S
C975 H952 0.950 . S
C975 C974 1.334 . S
C975 C976 1.287 . S
C976 C975 1.287 . S
C976 C977 1.524 . S
C976 H995 0.913 . S
C977 H953 0.950 . S
C977 C976 1.524 . S
C977 C978 1.415 . S
C978 H954 0.950 . S
C978 C973 1.363 . S
C978 C977 1.415 . S
C979 H955 0.951 . S
C979 C980 1.366 . S
C979 C981 1.388 . S
C980 C979 1.366 . S
C980 C984 1.385 . S
C981 H956 0.951 . S
C981 C979 1.388 . S
C981 C982 1.366 . S
C982 C981 1.366 . S
C982 C983 1.414 . S
C982 C985 1.499 . S
C983 H957 0.950 . S
C983 C982 1.414 . S
C983 C984 1.374 . S
C984 H958 0.950 . S
C984 C980 1.385 . S
C984 C983 1.374 . S
C985 C982 1.499 . S
C985 C986 1.373 . S
C985 C987 1.389 . S
C986 H959 0.950 . S
C986 C972 1.377 . S
C986 C985 1.373 . S
C987 C971 1.377 . S
C987 C985 1.389 . S
C987 C988 1.524 . S
C988 C987 1.524 . S
C988 C989 1.397 . S
C988 C993 1.363 . S
C989 H960 0.950 . S
C989 C988 1.397 . S
C989 C990 1.334 . S
C990 H961 0.950 . S
C990 C989 1.334 . S
C990 C991 1.287 . S
C991 C990 1.287 . S
C991 C992 1.524 . S
C991 H994 0.999 . S
C992 H962 0.950 . S
C992 C991 1.524 . S
C992 C993 1.415 . S
C993 H963 0.950 . S
C993 C988 1.363 . S
C993 C992 1.415 . S
H994 C991 0.999 . S
H995 C976 0.913 . S
H996 C1014 0.951 . S
H997 C1016 0.951 . S
H998 C1018 0.950 . S
H999 C1019 0.950 . S
H1000 C1021 0.950 . S
H1001 C1024 0.950 . S
H1002 C1025 0.950 . S
H1003 C1027 0.950 . S
H1004 C1028 0.950 . S
H1005 C1029 0.951 . S
H1006 C1031 0.951 . S
H1007 C1033 0.950 . S
H1008 C1034 0.950 . S
H1009 C1036 0.950 . S
H1010 C1039 0.950 . S
H1011 C1040 0.950 . S
H1012 C1042 0.950 . S
H1013 C1043 0.950 . S
C1014 H996 0.951 . S
C1014 C1015 1.366 . S
C1014 C1016 1.388 . S
C1015 C1014 1.366 . S
C1015 C1019 1.385 . S
C1016 H997 0.951 . S
C1016 C1014 1.388 . S
C1016 C1017 1.366 . S
C1017 C1016 1.366 . S
C1017 C1018 1.414 . S
C1017 C1020 1.499 . S
C1018 H998 0.950 . S
C1018 C1017 1.414 . S
C1018 C1019 1.374 . S
C1019 H999 0.950 . S
C1019 C1015 1.385 . S
C1019 C1018 1.374 . S
C1020 C1017 1.499 . S
C1020 C1021 1.373 . S
C1020 C1022 1.389 . S
C1021 H1000 0.950 . S
C1021 C1020 1.373 . S
C1021 C1037 1.377 . S
C1022 C1020 1.389 . S
C1022 C1023 1.524 . S
C1022 C1036 1.377 . S
C1023 C1022 1.524 . S
C1023 C1024 1.397 . S
C1023 C1028 1.363 . S
C1024 H1001 0.950 . S
C1024 C1023 1.397 . S
C1024 C1025 1.334 . S
C1025 H1002 0.950 . S
C1025 C1024 1.334 . S
C1025 C1026 1.287 . S
C1026 C1025 1.287 . S
C1026 C1027 1.524 . S
C1026 H1045 0.913 . S
C1027 H1003 0.950 . S
C1027 C1026 1.524 . S
C1027 C1028 1.415 . S
C1028 H1004 0.950 . S
C1028 C1023 1.363 . S
C1028 C1027 1.415 . S
C1029 H1005 0.951 . S
C1029 C1030 1.366 . S
C1029 C1031 1.388 . S
C1030 C1029 1.366 . S
C1030 C1034 1.385 . S
C1031 H1006 0.951 . S
C1031 C1029 1.388 . S
C1031 C1032 1.366 . S
C1032 C1031 1.366 . S
C1032 C1033 1.414 . S
C1032 C1035 1.499 . S
C1033 H1007 0.950 . S
C1033 C1032 1.414 . S
C1033 C1034 1.374 . S
C1034 H1008 0.950 . S
C1034 C1030 1.385 . S
C1034 C1033 1.374 . S
C1035 C1032 1.499 . S
C1035 C1036 1.373 . S
C1035 C1037 1.389 . S
C1036 H1009 0.950 . S
C1036 C1022 1.377 . S
C1036 C1035 1.373 . S
C1037 C1021 1.377 . S
C1037 C1035 1.389 . S
C1037 C1038 1.524 . S
C1038 C1037 1.524 . S
C1038 C1039 1.397 . S
C1038 C1043 1.363 . S
C1039 H1010 0.950 . S
C1039 C1038 1.397 . S
C1039 C1040 1.334 . S
C1040 H1011 0.950 . S
C1040 C1039 1.334 . S
C1040 C1041 1.287 . S
C1041 C1040 1.287 . S
C1041 C1042 1.524 . S
C1041 H1044 0.999 . S
C1042 H1012 0.950 . S
C1042 C1041 1.524 . S
C1042 C1043 1.415 . S
C1043 H1013 0.950 . S
C1043 C1038 1.363 . S
C1043 C1042 1.415 . S
H1044 C1041 0.999 . S
H1045 C1026 0.913 . S
H1046 C1064 0.951 . S
H1047 C1066 0.951 . S
H1048 C1068 0.950 . S
H1049 C1069 0.950 . S
H1050 C1071 0.950 . S
H1051 C1074 0.950 . S
H1052 C1075 0.950 . S
H1053 C1077 0.950 . S
H1054 C1078 0.950 1_655 S
H1055 C1079 0.951 . S
H1056 C1081 0.951 . S
H1057 C1083 0.950 . S
H1058 C1084 0.950 . S
H1059 C1086 0.950 . S
H1060 C1089 0.950 . S
H1061 C1090 0.950 . S
H1062 C1092 0.950 . S
H1063 C1093 0.950 . S
C1064 H1046 0.951 . S
C1064 C1065 1.366 . S
C1064 C1066 1.388 . S
C1065 C1064 1.366 . S
C1065 C1069 1.385 . S
C1066 H1047 0.951 . S
C1066 C1064 1.388 . S
C1066 C1067 1.366 . S
C1067 C1066 1.366 . S
C1067 C1068 1.414 . S
C1067 C1070 1.499 . S
C1068 H1048 0.950 . S
C1068 C1067 1.414 . S
C1068 C1069 1.374 . S
C1069 H1049 0.950 . S
C1069 C1065 1.385 . S
C1069 C1068 1.374 . S
C1070 C1067 1.499 . S
C1070 C1071 1.373 1_455 S
C1070 C1072 1.389 1_455 S
C1071 H1050 0.950 . S
C1071 C1070 1.373 1_655 S
C1071 C1087 1.377 . S
C1072 C1070 1.389 1_655 S
C1072 C1073 1.524 1_655 S
C1072 C1086 1.377 . S
C1073 C1072 1.524 1_455 S
C1073 C1074 1.397 . S
C1073 C1078 1.363 . S
C1074 H1051 0.950 . S
C1074 C1073 1.397 . S
C1074 C1075 1.334 . S
C1075 H1052 0.950 . S
C1075 C1074 1.334 . S
C1075 C1076 1.287 . S
C1076 C1075 1.287 . S
C1076 C1077 1.524 . S
C1076 H1095 0.913 . S
C1077 H1053 0.950 . S
C1077 C1076 1.524 . S
C1077 C1078 1.415 . S
C1078 H1054 0.950 1_455 S
C1078 C1073 1.363 . S
C1078 C1077 1.415 . S
C1079 H1055 0.951 . S
C1079 C1080 1.366 . S
C1079 C1081 1.388 . S
C1080 C1079 1.366 . S
C1080 C1084 1.385 . S
C1081 H1056 0.951 . S
C1081 C1079 1.388 . S
C1081 C1082 1.366 . S
C1082 C1081 1.366 . S
C1082 C1083 1.414 . S
C1082 C1085 1.499 . S
C1083 H1057 0.950 . S
C1083 C1082 1.414 . S
C1083 C1084 1.374 . S
C1084 H1058 0.950 . S
C1084 C1080 1.385 . S
C1084 C1083 1.374 . S
C1085 C1082 1.499 . S
C1085 C1086 1.373 . S
C1085 C1087 1.389 . S
C1086 H1059 0.950 . S
C1086 C1072 1.377 . S
C1086 C1085 1.373 . S
C1087 C1071 1.377 . S
C1087 C1085 1.389 . S
C1087 C1088 1.524 . S
C1088 C1087 1.524 . S
C1088 C1089 1.397 . S
C1088 C1093 1.363 . S
C1089 H1060 0.950 . S
C1089 C1088 1.397 . S
C1089 C1090 1.334 . S
C1090 H1061 0.950 . S
C1090 C1089 1.334 . S
C1090 C1091 1.287 . S
C1091 C1090 1.287 . S
C1091 C1092 1.524 . S
C1091 H1094 0.999 . S
C1092 H1062 0.950 . S
C1092 C1091 1.524 . S
C1092 C1093 1.415 . S
C1093 H1063 0.950 . S
C1093 C1088 1.363 . S
C1093 C1092 1.415 . S
H1094 C1091 0.999 . S
H1095 C1076 0.913 . S
H1096 C1114 0.951 . S
H1097 C1116 0.951 . S
H1098 C1118 0.950 . S
H1099 C1119 0.950 . S
H1100 C1121 0.950 . S
H1101 C1124 0.950 . S
H1102 C1125 0.950 . S
H1103 C1127 0.950 . S
H1104 C1128 0.950 . S
H1105 C1129 0.951 . S
H1106 C1131 0.951 . S
H1107 C1133 0.950 . S
H1108 C1134 0.950 . S
H1109 C1136 0.950 . S
H1110 C1139 0.950 . S
H1111 C1140 0.950 . S
H1112 C1142 0.950 . S
H1113 C1143 0.950 . S
C1114 H1096 0.951 . S
C1114 C1115 1.366 . S
C1114 C1116 1.388 . S
C1115 C1114 1.366 . S
C1115 C1119 1.385 . S
C1116 H1097 0.951 . S
C1116 C1114 1.388 . S
C1116 C1117 1.366 . S
C1117 C1116 1.366 . S
C1117 C1118 1.414 . S
C1117 C1120 1.499 . S
C1118 H1098 0.950 . S
C1118 C1117 1.414 . S
C1118 C1119 1.374 . S
C1119 H1099 0.950 . S
C1119 C1115 1.385 . S
C1119 C1118 1.374 . S
C1120 C1117 1.499 . S
C1120 C1121 1.373 . S
C1120 C1122 1.389 . S
C1121 H1100 0.950 . S
C1121 C1120 1.373 . S
C1121 C1137 1.377 . S
C1122 C1120 1.389 . S
C1122 C1123 1.524 . S
C1122 C1136 1.377 . S
C1123 C1122 1.524 . S
C1123 C1124 1.397 . S
C1123 C1128 1.363 . S
C1124 H1101 0.950 . S
C1124 C1123 1.397 . S
C1124 C1125 1.334 . S
C1125 H1102 0.950 . S
C1125 C1124 1.334 . S
C1125 C1126 1.287 . S
C1126 C1125 1.287 . S
C1126 C1127 1.524 . S
C1126 H1145 0.913 . S
C1127 H1103 0.950 . S
C1127 C1126 1.524 . S
C1127 C1128 1.415 . S
C1128 H1104 0.950 . S
C1128 C1123 1.363 . S
C1128 C1127 1.415 . S
C1129 H1105 0.951 . S
C1129 C1130 1.366 . S
C1129 C1131 1.388 . S
C1130 C1129 1.366 . S
C1130 C1134 1.385 . S
C1131 H1106 0.951 . S
C1131 C1129 1.388 . S
C1131 C1132 1.366 . S
C1132 C1131 1.366 . S
C1132 C1133 1.414 . S
C1132 C1135 1.499 . S
C1133 H1107 0.950 . S
C1133 C1132 1.414 . S
C1133 C1134 1.374 . S
C1134 H1108 0.950 . S
C1134 C1130 1.385 . S
C1134 C1133 1.374 . S
C1135 C1132 1.499 . S
C1135 C1136 1.373 . S
C1135 C1137 1.389 . S
C1136 H1109 0.950 . S
C1136 C1122 1.377 . S
C1136 C1135 1.373 . S
C1137 C1121 1.377 . S
C1137 C1135 1.389 . S
C1137 C1138 1.524 . S
C1138 C1137 1.524 . S
C1138 C1139 1.397 . S
C1138 C1143 1.363 . S
C1139 H1110 0.950 . S
C1139 C1138 1.397 . S
C1139 C1140 1.334 . S
C1140 H1111 0.950 . S
C1140 C1139 1.334 . S
C1140 C1141 1.287 . S
C1141 C1140 1.287 . S
C1141 C1142 1.524 . S
C1141 H1144 0.999 . S
C1142 H1112 0.950 . S
C1142 C1141 1.524 . S
C1142 C1143 1.415 . S
C1143 H1113 0.950 . S
C1143 C1138 1.363 . S
C1143 C1142 1.415 . S
H1144 C1141 0.999 . S
H1145 C1126 0.913 . S
H1146 C1164 0.951 . S
H1147 C1166 0.951 . S
H1148 C1168 0.950 . S
H1149 C1169 0.950 . S
H1150 C1171 0.950 . S
H1151 C1174 0.950 . S
H1152 C1175 0.950 . S
H1153 C1177 0.950 . S
H1154 C1178 0.950 . S
H1155 C1179 0.951 1_655 S
H1156 C1181 0.951 . S
H1157 C1183 0.950 . S
H1158 C1184 0.950 . S
H1159 C1186 0.950 . S
H1160 C1189 0.950 . S
H1161 C1190 0.950 . S
H1162 C1192 0.950 . S
H1163 C1193 0.950 . S
C1164 H1146 0.951 . S
C1164 C1165 1.366 . S
C1164 C1166 1.388 . S
C1165 C1164 1.366 . S
C1165 C1169 1.385 . S
C1166 H1147 0.951 . S
C1166 C1164 1.388 . S
C1166 C1167 1.366 . S
C1167 C1166 1.366 . S
C1167 C1168 1.414 . S
C1167 C1170 1.499 . S
C1168 H1148 0.950 . S
C1168 C1167 1.414 . S
C1168 C1169 1.374 . S
C1169 H1149 0.950 . S
C1169 C1165 1.385 . S
C1169 C1168 1.374 . S
C1170 C1167 1.499 . S
C1170 C1171 1.373 . S
C1170 C1172 1.389 . S
C1171 H1150 0.950 . S
C1171 C1170 1.373 . S
C1171 C1187 1.377 . S
C1172 C1170 1.389 . S
C1172 C1173 1.524 . S
C1172 C1186 1.377 . S
C1173 C1172 1.524 . S
C1173 C1174 1.397 . S
C1173 C1178 1.363 . S
C1174 H1151 0.950 . S
C1174 C1173 1.397 . S
C1174 C1175 1.334 . S
C1175 H1152 0.950 . S
C1175 C1174 1.334 . S
C1175 C1176 1.287 . S
C1176 C1175 1.287 . S
C1176 C1177 1.524 . S
C1176 H1195 0.913 . S
C1177 H1153 0.950 . S
C1177 C1176 1.524 . S
C1177 C1178 1.415 . S
C1178 H1154 0.950 . S
C1178 C1173 1.363 . S
C1178 C1177 1.415 . S
C1179 H1155 0.951 1_455 S
C1179 C1180 1.366 . S
C1179 C1181 1.388 1_455 S
C1180 C1179 1.366 . S
C1180 C1184 1.385 . S
C1181 H1156 0.951 . S
C1181 C1179 1.388 1_655 S
C1181 C1182 1.366 . S
C1182 C1181 1.366 . S
C1182 C1183 1.414 1_655 S
C1182 C1185 1.499 . S
C1183 H1157 0.950 . S
C1183 C1182 1.414 1_455 S
C1183 C1184 1.374 . S
C1184 H1158 0.950 . S
C1184 C1180 1.385 . S
C1184 C1183 1.374 . S
C1185 C1182 1.499 . S
C1185 C1186 1.373 . S
C1185 C1187 1.389 . S
C1186 H1159 0.950 . S
C1186 C1172 1.377 . S
C1186 C1185 1.373 . S
C1187 C1171 1.377 . S
C1187 C1185 1.389 . S
C1187 C1188 1.524 . S
C1188 C1187 1.524 . S
C1188 C1189 1.397 . S
C1188 C1193 1.363 . S
C1189 H1160 0.950 . S
C1189 C1188 1.397 . S
C1189 C1190 1.334 . S
C1190 H1161 0.950 . S
C1190 C1189 1.334 . S
C1190 C1191 1.287 . S
C1191 C1190 1.287 . S
C1191 C1192 1.524 . S
C1191 H1194 0.999 . S
C1192 H1162 0.950 . S
C1192 C1191 1.524 . S
C1192 C1193 1.415 . S
C1193 H1163 0.950 . S
C1193 C1188 1.363 . S
C1193 C1192 1.415 . S
H1194 C1191 0.999 . S
H1195 C1176 0.913 . S
H1196 C1214 0.951 . S
H1197 C1216 0.951 . S
H1198 C1218 0.950 . S
H1199 C1219 0.950 . S
H1200 C1221 0.950 . S
H1201 C1224 0.950 . S
H1202 C1225 0.950 . S
H1203 C1227 0.950 . S
H1204 C1228 0.950 . S
H1205 C1229 0.951 . S
H1206 C1231 0.951 . S
H1207 C1233 0.950 . S
H1208 C1234 0.950 . S
H1209 C1236 0.950 . S
H1210 C1239 0.950 . S
H1211 C1240 0.950 . S
H1212 C1242 0.950 . S
H1213 C1243 0.950 . S
C1214 H1196 0.951 . S
C1214 C1215 1.366 . S
C1214 C1216 1.388 . S
C1215 C1214 1.366 . S
C1215 C1219 1.385 . S
C1216 H1197 0.951 . S
C1216 C1214 1.388 . S
C1216 C1217 1.366 . S
C1217 C1216 1.366 . S
C1217 C1218 1.414 . S
C1217 C1220 1.499 . S
C1218 H1198 0.950 . S
C1218 C1217 1.414 . S
C1218 C1219 1.374 . S
C1219 H1199 0.950 . S
C1219 C1215 1.385 . S
C1219 C1218 1.374 . S
C1220 C1217 1.499 . S
C1220 C1221 1.373 . S
C1220 C1222 1.389 . S
C1221 H1200 0.950 . S
C1221 C1220 1.373 . S
C1221 C1237 1.377 . S
C1222 C1220 1.389 . S
C1222 C1223 1.524 . S
C1222 C1236 1.377 . S
C1223 C1222 1.524 . S
C1223 C1224 1.397 . S
C1223 C1228 1.363 . S
C1224 H1201 0.950 . S
C1224 C1223 1.397 . S
C1224 C1225 1.334 . S
C1225 H1202 0.950 . S
C1225 C1224 1.334 . S
C1225 C1226 1.287 . S
C1226 C1225 1.287 . S
C1226 C1227 1.524 . S
C1226 H1245 0.913 . S
C1227 H1203 0.950 . S
C1227 C1226 1.524 . S
C1227 C1228 1.415 . S
C1228 H1204 0.950 . S
C1228 C1223 1.363 . S
C1228 C1227 1.415 . S
C1229 H1205 0.951 . S
C1229 C1230 1.366 . S
C1229 C1231 1.388 . S
C1230 C1229 1.366 . S
C1230 C1234 1.385 . S
C1231 H1206 0.951 . S
C1231 C1229 1.388 . S
C1231 C1232 1.366 . S
C1232 C1231 1.366 . S
C1232 C1233 1.414 . S
C1232 C1235 1.499 . S
C1233 H1207 0.950 . S
C1233 C1232 1.414 . S
C1233 C1234 1.374 . S
C1234 H1208 0.950 . S
C1234 C1230 1.385 . S
C1234 C1233 1.374 . S
C1235 C1232 1.499 . S
C1235 C1236 1.373 . S
C1235 C1237 1.389 . S
C1236 H1209 0.950 . S
C1236 C1222 1.377 . S
C1236 C1235 1.373 . S
C1237 C1221 1.377 . S
C1237 C1235 1.389 . S
C1237 C1238 1.524 . S
C1238 C1237 1.524 . S
C1238 C1239 1.397 . S
C1238 C1243 1.363 . S
C1239 H1210 0.950 . S
C1239 C1238 1.397 . S
C1239 C1240 1.334 . S
C1240 H1211 0.950 . S
C1240 C1239 1.334 . S
C1240 C1241 1.287 . S
C1241 C1240 1.287 . S
C1241 C1242 1.524 . S
C1241 H1244 0.999 . S
C1242 H1212 0.950 . S
C1242 C1241 1.524 . S
C1242 C1243 1.415 . S
C1243 H1213 0.950 . S
C1243 C1238 1.363 . S
C1243 C1242 1.415 . S
H1244 C1241 0.999 . S
H1245 C1226 0.913 . S
H1246 C1264 0.951 . S
H1247 C1266 0.951 . S
H1248 C1268 0.950 . S
H1249 C1269 0.950 . S
H1250 C1271 0.950 . S
H1251 C1274 0.950 . S
H1252 C1275 0.950 . S
H1253 C1277 0.950 . S
H1254 C1278 0.950 . S
H1255 C1279 0.951 . S
H1256 C1281 0.951 . S
H1257 C1283 0.950 . S
H1258 C1284 0.950 . S
H1259 C1286 0.950 . S
H1260 C1289 0.950 . S
H1261 C1290 0.950 . S
H1262 C1292 0.950 . S
H1263 C1293 0.950 . S
C1264 H1246 0.951 . S
C1264 C1265 1.366 . S
C1264 C1266 1.388 . S
C1265 C1264 1.366 . S
C1265 C1269 1.385 . S
C1266 H1247 0.951 . S
C1266 C1264 1.388 . S
C1266 C1267 1.366 . S
C1267 C1266 1.366 . S
C1267 C1268 1.414 . S
C1267 C1270 1.499 . S
C1268 H1248 0.950 . S
C1268 C1267 1.414 . S
C1268 C1269 1.374 . S
C1269 H1249 0.950 . S
C1269 C1265 1.385 . S
C1269 C1268 1.374 . S
C1270 C1267 1.499 . S
C1270 C1271 1.373 . S
C1270 C1272 1.389 . S
C1271 H1250 0.950 . S
C1271 C1270 1.373 . S
C1271 C1287 1.377 . S
C1272 C1270 1.389 . S
C1272 C1273 1.524 . S
C1272 C1286 1.377 . S
C1273 C1272 1.524 . S
C1273 C1274 1.397 . S
C1273 C1278 1.363 . S
C1274 H1251 0.950 . S
C1274 C1273 1.397 . S
C1274 C1275 1.334 . S
C1275 H1252 0.950 . S
C1275 C1274 1.334 . S
C1275 C1276 1.287 . S
C1276 C1275 1.287 . S
C1276 C1277 1.524 . S
C1276 H1295 0.913 . S
C1277 H1253 0.950 . S
C1277 C1276 1.524 . S
C1277 C1278 1.415 . S
C1278 H1254 0.950 . S
C1278 C1273 1.363 . S
C1278 C1277 1.415 . S
C1279 H1255 0.951 . S
C1279 C1280 1.366 . S
C1279 C1281 1.388 . S
C1280 C1279 1.366 . S
C1280 C1284 1.385 . S
C1281 H1256 0.951 . S
C1281 C1279 1.388 . S
C1281 C1282 1.366 . S
C1282 C1281 1.366 . S
C1282 C1283 1.414 . S
C1282 C1285 1.499 . S
C1283 H1257 0.950 . S
C1283 C1282 1.414 . S
C1283 C1284 1.374 . S
C1284 H1258 0.950 . S
C1284 C1280 1.385 . S
C1284 C1283 1.374 . S
C1285 C1282 1.499 . S
C1285 C1286 1.373 . S
C1285 C1287 1.389 . S
C1286 H1259 0.950 . S
C1286 C1272 1.377 . S
C1286 C1285 1.373 . S
C1287 C1271 1.377 . S
C1287 C1285 1.389 . S
C1287 C1288 1.524 . S
C1288 C1287 1.524 . S
C1288 C1289 1.397 . S
C1288 C1293 1.363 . S
C1289 H1260 0.950 . S
C1289 C1288 1.397 . S
C1289 C1290 1.334 . S
C1290 H1261 0.950 . S
C1290 C1289 1.334 . S
C1290 C1291 1.287 . S
C1291 C1290 1.287 . S
C1291 C1292 1.524 . S
C1291 H1294 0.999 . S
C1292 H1262 0.950 . S
C1292 C1291 1.524 . S
C1292 C1293 1.415 . S
C1293 H1263 0.950 . S
C1293 C1288 1.363 . S
C1293 C1292 1.415 . S
H1294 C1291 0.999 . S
H1295 C1276 0.913 . S
H1296 C1314 0.951 . S
H1297 C1316 0.951 . S
H1298 C1318 0.950 . S
H1299 C1319 0.950 . S
H1300 C1321 0.950 . S
H1301 C1324 0.950 . S
H1302 C1325 0.950 . S
H1303 C1327 0.950 . S
H1304 C1328 0.950 . S
H1305 C1329 0.951 . S
H1306 C1331 0.951 . S
H1307 C1333 0.950 . S
H1308 C1334 0.950 . S
H1309 C1336 0.950 . S
H1310 C1339 0.950 . S
H1311 C1340 0.950 . S
H1312 C1342 0.950 . S
H1313 C1343 0.950 . S
C1314 H1296 0.951 . S
C1314 C1315 1.366 . S
C1314 C1316 1.388 . S
C1315 C1314 1.366 . S
C1315 C1319 1.385 . S
C1316 H1297 0.951 . S
C1316 C1314 1.388 . S
C1316 C1317 1.366 . S
C1317 C1316 1.366 . S
C1317 C1318 1.414 . S
C1317 C1320 1.499 . S
C1318 H1298 0.950 . S
C1318 C1317 1.414 . S
C1318 C1319 1.374 . S
C1319 H1299 0.950 . S
C1319 C1315 1.385 . S
C1319 C1318 1.374 . S
C1320 C1317 1.499 . S
C1320 C1321 1.373 . S
C1320 C1322 1.389 . S
C1321 H1300 0.950 . S
C1321 C1320 1.373 . S
C1321 C1337 1.377 . S
C1322 C1320 1.389 . S
C1322 C1323 1.524 . S
C1322 C1336 1.377 . S
C1323 C1322 1.524 . S
C1323 C1324 1.397 . S
C1323 C1328 1.363 . S
C1324 H1301 0.950 . S
C1324 C1323 1.397 . S
C1324 C1325 1.334 . S
C1325 H1302 0.950 . S
C1325 C1324 1.334 . S
C1325 C1326 1.287 . S
C1326 C1325 1.287 . S
C1326 C1327 1.524 . S
C1326 H1345 0.913 . S
C1327 H1303 0.950 . S
C1327 C1326 1.524 . S
C1327 C1328 1.415 . S
C1328 H1304 0.950 . S
C1328 C1323 1.363 . S
C1328 C1327 1.415 . S
C1329 H1305 0.951 . S
C1329 C1330 1.366 . S
C1329 C1331 1.388 . S
C1330 C1329 1.366 . S
C1330 C1334 1.385 . S
C1331 H1306 0.951 . S
C1331 C1329 1.388 . S
C1331 C1332 1.366 . S
C1332 C1331 1.366 . S
C1332 C1333 1.414 . S
C1332 C1335 1.499 . S
C1333 H1307 0.950 . S
C1333 C1332 1.414 . S
C1333 C1334 1.374 . S
C1334 H1308 0.950 . S
C1334 C1330 1.385 . S
C1334 C1333 1.374 . S
C1335 C1332 1.499 . S
C1335 C1336 1.373 . S
C1335 C1337 1.389 . S
C1336 H1309 0.950 . S
C1336 C1322 1.377 . S
C1336 C1335 1.373 . S
C1337 C1321 1.377 . S
C1337 C1335 1.389 . S
C1337 C1338 1.524 . S
C1338 C1337 1.524 . S
C1338 C1339 1.397 . S
C1338 C1343 1.363 . S
C1339 H1310 0.950 . S
C1339 C1338 1.397 . S
C1339 C1340 1.334 . S
C1340 H1311 0.950 . S
C1340 C1339 1.334 . S
C1340 C1341 1.287 . S
C1341 C1340 1.287 . S
C1341 C1342 1.524 . S
C1341 H1344 0.999 . S
C1342 H1312 0.950 . S
C1342 C1341 1.524 . S
C1342 C1343 1.415 . S
C1343 H1313 0.950 . S
C1343 C1338 1.363 . S
C1343 C1342 1.415 . S
H1344 C1341 0.999 . S
H1345 C1326 0.913 . S
H1346 C1364 0.951 . S
H1347 C1366 0.951 . S
H1348 C1368 0.950 . S
H1349 C1369 0.950 . S
H1350 C1371 0.950 . S
H1351 C1374 0.950 . S
H1352 C1375 0.950 . S
H1353 C1377 0.950 . S
H1354 C1378 0.950 . S
H1355 C1379 0.951 . S
H1356 C1381 0.951 . S
H1357 C1383 0.950 . S
H1358 C1384 0.950 . S
H1359 C1386 0.950 . S
H1360 C1389 0.950 . S
H1361 C1390 0.950 . S
H1362 C1392 0.950 . S
H1363 C1393 0.950 . S
C1364 H1346 0.951 . S
C1364 C1365 1.366 . S
C1364 C1366 1.388 . S
C1365 C1364 1.366 . S
C1365 C1369 1.385 . S
C1366 H1347 0.951 . S
C1366 C1364 1.388 . S
C1366 C1367 1.366 . S
C1367 C1366 1.366 . S
C1367 C1368 1.414 . S
C1367 C1370 1.499 . S
C1368 H1348 0.950 . S
C1368 C1367 1.414 . S
C1368 C1369 1.374 . S
C1369 H1349 0.950 . S
C1369 C1365 1.385 . S
C1369 C1368 1.374 . S
C1370 C1367 1.499 . S
C1370 C1371 1.373 . S
C1370 C1372 1.389 . S
C1371 H1350 0.950 . S
C1371 C1370 1.373 . S
C1371 C1387 1.377 . S
C1372 C1370 1.389 . S
C1372 C1373 1.524 . S
C1372 C1386 1.377 . S
C1373 C1372 1.524 . S
C1373 C1374 1.397 . S
C1373 C1378 1.363 . S
C1374 H1351 0.950 . S
C1374 C1373 1.397 . S
C1374 C1375 1.334 . S
C1375 H1352 0.950 . S
C1375 C1374 1.334 . S
C1375 C1376 1.287 . S
C1376 C1375 1.287 . S
C1376 C1377 1.524 . S
C1376 H1395 0.913 . S
C1377 H1353 0.950 . S
C1377 C1376 1.524 . S
C1377 C1378 1.415 . S
C1378 H1354 0.950 . S
C1378 C1373 1.363 . S
C1378 C1377 1.415 . S
C1379 H1355 0.951 . S
C1379 C1380 1.366 . S
C1379 C1381 1.388 . S
C1380 C1379 1.366 . S
C1380 C1384 1.385 . S
C1381 H1356 0.951 . S
C1381 C1379 1.388 . S
C1381 C1382 1.366 . S
C1382 C1381 1.366 . S
C1382 C1383 1.414 . S
C1382 C1385 1.499 . S
C1383 H1357 0.950 . S
C1383 C1382 1.414 . S
C1383 C1384 1.374 . S
C1384 H1358 0.950 . S
C1384 C1380 1.385 . S
C1384 C1383 1.374 . S
C1385 C1382 1.499 . S
C1385 C1386 1.373 . S
C1385 C1387 1.389 . S
C1386 H1359 0.950 . S
C1386 C1372 1.377 . S
C1386 C1385 1.373 . S
C1387 C1371 1.377 . S
C1387 C1385 1.389 . S
C1387 C1388 1.524 . S
C1388 C1387 1.524 . S
C1388 C1389 1.397 . S
C1388 C1393 1.363 . S
C1389 H1360 0.950 . S
C1389 C1388 1.397 . S
C1389 C1390 1.334 . S
C1390 H1361 0.950 . S
C1390 C1389 1.334 . S
C1390 C1391 1.287 . S
C1391 C1390 1.287 . S
C1391 C1392 1.524 . S
C1391 H1394 0.999 . S
C1392 H1362 0.950 . S
C1392 C1391 1.524 . S
C1392 C1393 1.415 . S
C1393 H1363 0.950 . S
C1393 C1388 1.363 . S
C1393 C1392 1.415 . S
H1394 C1391 0.999 . S
H1395 C1376 0.913 . S
H1396 C1414 0.951 . S
H1397 C1416 0.951 . S
H1398 C1418 0.950 . S
H1399 C1419 0.950 . S
H1400 C1421 0.950 . S
H1401 C1424 0.950 . S
H1402 C1425 0.950 . S
H1403 C1427 0.950 . S
H1404 C1428 0.950 . S
H1405 C1429 0.951 . S
H1406 C1431 0.951 . S
H1407 C1433 0.950 . S
H1408 C1434 0.950 . S
H1409 C1436 0.950 . S
H1410 C1439 0.950 . S
H1411 C1440 0.950 . S
H1412 C1442 0.950 . S
H1413 C1443 0.950 . S
C1414 H1396 0.951 . S
C1414 C1415 1.366 . S
C1414 C1416 1.388 . S
C1415 C1414 1.366 . S
C1415 C1419 1.385 . S
C1416 H1397 0.951 . S
C1416 C1414 1.388 . S
C1416 C1417 1.366 . S
C1417 C1416 1.366 . S
C1417 C1418 1.414 . S
C1417 C1420 1.499 . S
C1418 H1398 0.950 . S
C1418 C1417 1.414 . S
C1418 C1419 1.374 . S
C1419 H1399 0.950 . S
C1419 C1415 1.385 . S
C1419 C1418 1.374 . S
C1420 C1417 1.499 . S
C1420 C1421 1.373 . S
C1420 C1422 1.389 . S
C1421 H1400 0.950 . S
C1421 C1420 1.373 . S
C1421 C1437 1.377 . S
C1422 C1420 1.389 . S
C1422 C1423 1.524 . S
C1422 C1436 1.377 . S
C1423 C1422 1.524 . S
C1423 C1424 1.397 . S
C1423 C1428 1.363 . S
C1424 H1401 0.950 . S
C1424 C1423 1.397 . S
C1424 C1425 1.334 . S
C1425 H1402 0.950 . S
C1425 C1424 1.334 . S
C1425 C1426 1.287 . S
C1426 C1425 1.287 . S
C1426 C1427 1.524 . S
C1426 H1445 0.913 . S
C1427 H1403 0.950 . S
C1427 C1426 1.524 . S
C1427 C1428 1.415 . S
C1428 H1404 0.950 . S
C1428 C1423 1.363 . S
C1428 C1427 1.415 . S
C1429 H1405 0.951 . S
C1429 C1430 1.366 . S
C1429 C1431 1.388 . S
C1430 C1429 1.366 . S
C1430 C1434 1.385 . S
C1431 H1406 0.951 . S
C1431 C1429 1.388 . S
C1431 C1432 1.366 . S
C1432 C1431 1.366 . S
C1432 C1433 1.414 . S
C1432 C1435 1.499 . S
C1433 H1407 0.950 . S
C1433 C1432 1.414 . S
C1433 C1434 1.374 . S
C1434 H1408 0.950 . S
C1434 C1430 1.385 . S
C1434 C1433 1.374 . S
C1435 C1432 1.499 . S
C1435 C1436 1.373 . S
C1435 C1437 1.389 . S
C1436 H1409 0.950 . S
C1436 C1422 1.377 . S
C1436 C1435 1.373 . S
C1437 C1421 1.377 . S
C1437 C1435 1.389 . S
C1437 C1438 1.524 . S
C1438 C1437 1.524 . S
C1438 C1439 1.397 . S
C1438 C1443 1.363 . S
C1439 H1410 0.950 . S
C1439 C1438 1.397 . S
C1439 C1440 1.334 . S
C1440 H1411 0.950 . S
C1440 C1439 1.334 . S
C1440 C1441 1.287 . S
C1441 C1440 1.287 . S
C1441 C1442 1.524 . S
C1441 H1444 0.999 . S
C1442 H1412 0.950 . S
C1442 C1441 1.524 . S
C1442 C1443 1.415 . S
C1443 H1413 0.950 . S
C1443 C1438 1.363 . S
C1443 C1442 1.415 . S
H1444 C1441 0.999 . S
H1445 C1426 0.913 . S
H1446 C1464 0.951 . S
H1447 C1466 0.951 . S
H1448 C1468 0.950 . S
H1449 C1469 0.950 . S
H1450 C1471 0.950 . S
H1451 C1474 0.950 . S
H1452 C1475 0.950 . S
H1453 C1477 0.950 . S
H1454 C1478 0.950 . S
H1455 C1479 0.951 . S
H1456 C1481 0.951 . S
H1457 C1483 0.950 . S
H1458 C1484 0.950 . S
H1459 C1486 0.950 . S
H1460 C1489 0.950 . S
H1461 C1490 0.950 . S
H1462 C1492 0.950 . S
H1463 C1493 0.950 . S
C1464 H1446 0.951 . S
C1464 C1465 1.366 . S
C1464 C1466 1.388 . S
C1465 C1464 1.366 . S
C1465 C1469 1.385 . S
C1466 H1447 0.951 . S
C1466 C1464 1.388 . S
C1466 C1467 1.366 . S
C1467 C1466 1.366 . S
C1467 C1468 1.414 . S
C1467 C1470 1.499 . S
C1468 H1448 0.950 . S
C1468 C1467 1.414 . S
C1468 C1469 1.374 . S
C1469 H1449 0.950 . S
C1469 C1465 1.385 . S
C1469 C1468 1.374 . S
C1470 C1467 1.499 . S
C1470 C1471 1.373 . S
C1470 C1472 1.389 . S
C1471 H1450 0.950 . S
C1471 C1470 1.373 . S
C1471 C1487 1.377 . S
C1472 C1470 1.389 . S
C1472 C1473 1.524 . S
C1472 C1486 1.377 . S
C1473 C1472 1.524 . S
C1473 C1474 1.397 . S
C1473 C1478 1.363 . S
C1474 H1451 0.950 . S
C1474 C1473 1.397 . S
C1474 C1475 1.334 . S
C1475 H1452 0.950 . S
C1475 C1474 1.334 . S
C1475 C1476 1.287 . S
C1476 C1475 1.287 . S
C1476 C1477 1.524 . S
C1476 H1495 0.913 . S
C1477 H1453 0.950 . S
C1477 C1476 1.524 . S
C1477 C1478 1.415 . S
C1478 H1454 0.950 . S
C1478 C1473 1.363 . S
C1478 C1477 1.415 . S
C1479 H1455 0.951 . S
C1479 C1480 1.366 . S
C1479 C1481 1.388 . S
C1480 C1479 1.366 . S
C1480 C1484 1.385 . S
C1481 H1456 0.951 . S
C1481 C1479 1.388 . S
C1481 C1482 1.366 . S
C1482 C1481 1.366 . S
C1482 C1483 1.414 . S
C1482 C1485 1.499 . S
C1483 H1457 0.950 . S
C1483 C1482 1.414 . S
C1483 C1484 1.374 . S
C1484 H1458 0.950 . S
C1484 C1480 1.385 . S
C1484 C1483 1.374 . S
C1485 C1482 1.499 . S
C1485 C1486 1.373 . S
C1485 C1487 1.389 . S
C1486 H1459 0.950 . S
C1486 C1472 1.377 . S
C1486 C1485 1.373 . S
C1487 C1471 1.377 . S
C1487 C1485 1.389 . S
C1487 C1488 1.524 . S
C1488 C1487 1.524 . S
C1488 C1489 1.397 . S
C1488 C1493 1.363 . S
C1489 H1460 0.950 . S
C1489 C1488 1.397 . S
C1489 C1490 1.334 . S
C1490 H1461 0.950 . S
C1490 C1489 1.334 . S
C1490 C1491 1.287 . S
C1491 C1490 1.287 . S
C1491 C1492 1.524 . S
C1491 H1494 0.999 . S
C1492 H1462 0.950 . S
C1492 C1491 1.524 . S
C1492 C1493 1.415 . S
C1493 H1463 0.950 . S
C1493 C1488 1.363 . S
C1493 C1492 1.415 . S
H1494 C1491 0.999 . S
H1495 C1476 0.913 . S
H1496 C1514 0.951 . S
H1497 C1516 0.951 . S
H1498 C1518 0.950 . S
H1499 C1519 0.950 . S
H1500 C1521 0.950 . S
H1501 C1524 0.950 . S
H1502 C1525 0.950 . S
H1503 C1527 0.950 . S
H1504 C1528 0.950 . S
H1505 C1529 0.951 . S
H1506 C1531 0.951 . S
H1507 C1533 0.950 . S
H1508 C1534 0.950 . S
H1509 C1536 0.950 . S
H1510 C1539 0.950 . S
H1511 C1540 0.950 . S
H1512 C1542 0.950 . S
H1513 C1543 0.950 . S
C1514 H1496 0.951 . S
C1514 C1515 1.366 . S
C1514 C1516 1.388 . S
C1515 C1514 1.366 . S
C1515 C1519 1.385 . S
C1516 H1497 0.951 . S
C1516 C1514 1.388 . S
C1516 C1517 1.366 . S
C1517 C1516 1.366 . S
C1517 C1518 1.414 . S
C1517 C1520 1.499 . S
C1518 H1498 0.950 . S
C1518 C1517 1.414 . S
C1518 C1519 1.374 . S
C1519 H1499 0.950 . S
C1519 C1515 1.385 . S
C1519 C1518 1.374 . S
C1520 C1517 1.499 . S
C1520 C1521 1.373 . S
C1520 C1522 1.389 . S
C1521 H1500 0.950 . S
C1521 C1520 1.373 . S
C1521 C1537 1.377 . S
C1522 C1520 1.389 . S
C1522 C1523 1.524 . S
C1522 C1536 1.377 . S
C1523 C1522 1.524 . S
C1523 C1524 1.397 . S
C1523 C1528 1.363 . S
C1524 H1501 0.950 . S
C1524 C1523 1.397 . S
C1524 C1525 1.334 . S
C1525 H1502 0.950 . S
C1525 C1524 1.334 . S
C1525 C1526 1.287 . S
C1526 C1525 1.287 . S
C1526 C1527 1.524 . S
C1526 H1545 0.913 . S
C1527 H1503 0.950 . S
C1527 C1526 1.524 . S
C1527 C1528 1.415 . S
C1528 H1504 0.950 . S
C1528 C1523 1.363 . S
C1528 C1527 1.415 . S
C1529 H1505 0.951 . S
C1529 C1530 1.366 . S
C1529 C1531 1.388 . S
C1530 C1529 1.366 . S
C1530 C1534 1.385 . S
C1531 H1506 0.951 . S
C1531 C1529 1.388 . S
C1531 C1532 1.366 . S
C1532 C1531 1.366 . S
C1532 C1533 1.414 . S
C1532 C1535 1.499 . S
C1533 H1507 0.950 . S
C1533 C1532 1.414 . S
C1533 C1534 1.374 . S
C1534 H1508 0.950 . S
C1534 C1530 1.385 . S
C1534 C1533 1.374 . S
C1535 C1532 1.499 . S
C1535 C1536 1.373 . S
C1535 C1537 1.389 . S
C1536 H1509 0.950 . S
C1536 C1522 1.377 . S
C1536 C1535 1.373 . S
C1537 C1521 1.377 . S
C1537 C1535 1.389 . S
C1537 C1538 1.524 . S
C1538 C1537 1.524 . S
C1538 C1539 1.397 . S
C1538 C1543 1.363 . S
C1539 H1510 0.950 . S
C1539 C1538 1.397 . S
C1539 C1540 1.334 . S
C1540 H1511 0.950 . S
C1540 C1539 1.334 . S
C1540 C1541 1.287 . S
C1541 C1540 1.287 . S
C1541 C1542 1.524 . S
C1541 H1544 0.999 . S
C1542 H1512 0.950 . S
C1542 C1541 1.524 . S
C1542 C1543 1.415 . S
C1543 H1513 0.950 . S
C1543 C1538 1.363 . S
C1543 C1542 1.415 . S
H1544 C1541 0.999 . S
H1545 C1526 0.913 . S
H1546 C1564 0.951 . S
H1547 C1566 0.951 . S
H1548 C1568 0.950 . S
H1549 C1569 0.950 . S
H1550 C1571 0.950 . S
H1551 C1574 0.932 1_556 S
H1552 C1575 0.950 . S
H1553 C1577 0.950 . S
H1554 C1578 0.950 . S
H1555 C1579 0.951 . S
H1556 C1581 0.951 . S
H1557 C1583 0.950 . S
H1558 C1584 0.950 . S
H1559 C1586 0.950 . S
H1560 C1589 0.950 . S
H1561 C1590 0.950 . S
H1562 C1592 0.950 . S
H1563 C1593 0.950 . S
C1564 H1546 0.951 . S
C1564 C1565 1.366 . S
C1564 C1566 1.388 . S
C1565 C1564 1.366 . S
C1565 C1569 1.385 1_554 S
C1566 H1547 0.951 . S
C1566 C1564 1.388 . S
C1566 C1567 1.366 . S
C1567 C1566 1.366 . S
C1567 C1568 1.414 1_554 S
C1567 C1570 1.499 1_554 S
C1568 H1548 0.950 . S
C1568 C1567 1.414 1_556 S
C1568 C1569 1.374 . S
C1569 H1549 0.950 . S
C1569 C1565 1.385 1_556 S
C1569 C1568 1.374 . S
C1570 C1567 1.499 1_556 S
C1570 C1571 1.373 . S
C1570 C1572 1.389 . S
C1571 H1550 0.950 . S
C1571 C1570 1.373 . S
C1571 C1587 1.377 . S
C1572 C1570 1.389 . S
C1572 C1573 1.524 1_556 S
C1572 C1586 1.377 . S
C1573 C1572 1.524 1_554 S
C1573 C1574 1.397 . S
C1573 C1578 1.363 . S
C1574 H1551 0.932 1_554 S
C1574 C1573 1.397 . S
C1574 C1575 1.334 . S
C1575 H1552 0.950 . S
C1575 C1574 1.334 . S
C1575 C1576 1.287 . S
C1576 C1575 1.287 . S
C1576 C1577 1.524 . S
C1576 H1595 0.913 . S
C1577 H1553 0.950 . S
C1577 C1576 1.524 . S
C1577 C1578 1.415 . S
C1578 H1554 0.950 . S
C1578 C1573 1.363 . S
C1578 C1577 1.415 . S
C1579 H1555 0.951 . S
C1579 C1580 1.366 . S
C1579 C1581 1.388 . S
C1580 C1579 1.366 . S
C1580 C1584 1.385 . S
C1581 H1556 0.951 . S
C1581 C1579 1.388 . S
C1581 C1582 1.366 . S
C1582 C1581 1.366 . S
C1582 C1583 1.414 . S
C1582 C1585 1.499 . S
C1583 H1557 0.950 . S
C1583 C1582 1.414 . S
C1583 C1584 1.374 . S
C1584 H1558 0.950 . S
C1584 C1580 1.385 . S
C1584 C1583 1.374 . S
C1585 C1582 1.499 . S
C1585 C1586 1.373 . S
C1585 C1587 1.389 . S
C1586 H1559 0.950 . S
C1586 C1572 1.377 . S
C1586 C1585 1.373 . S
C1587 C1571 1.377 . S
C1587 C1585 1.389 . S
C1587 C1588 1.524 . S
C1588 C1587 1.524 . S
C1588 C1589 1.397 . S
C1588 C1593 1.363 . S
C1589 H1560 0.950 . S
C1589 C1588 1.397 . S
C1589 C1590 1.334 . S
C1590 H1561 0.950 . S
C1590 C1589 1.334 . S
C1590 C1591 1.287 . S
C1591 C1590 1.287 . S
C1591 C1592 1.524 . S
C1591 H1594 0.999 . S
C1592 H1562 0.950 . S
C1592 C1591 1.524 . S
C1592 C1593 1.415 . S
C1593 H1563 0.950 . S
C1593 C1588 1.363 . S
C1593 C1592 1.415 . S
H1594 C1591 0.999 . S
H1595 C1576 0.913 . S
C415 C7 0.643 . S
C430 C100 0.571 . S
C465 C25 0.744 . S
C480 C139 0.740 . S
C515 C46 0.849 . S
C530 C178 0.848 . S
C580 C202 0.712 . S
C565 C70 0.712 . S
C630 C241 0.559 . S
C615 C28 0.642 . S
C665 C49 0.719 . S
C680 C280 0.715 . S
C715 C67 0.839 . S
C730 C334 0.840 . S
C765 C4 0.738 . S
C780 C358 0.732 . S
C815 C58 1.799 . S
C830 C373 1.927 . S
C880 C256 1.614 . S
C865 C66 1.542 . S
C930 C295 1.963 . S
C915 C3 1.952 . S
C965 C37 1.846 . S
C980 C319 1.930 . S
C1030 C124 1.928 . S
C1015 C79 1.799 . S
C1065 C16 1.850 . S
C1080 C163 1.932 . S
C1130 C217 1.947 . S
C1115 C24 1.936 . S
C1180 C85 1.622 . S
C1165 C45 1.549 . S
C1230 C339 1.432 . S
C1215 C19 1.228 . S
C1280 C378 1.261 . S
C1265 C41 1.167 . S
C1315 C62 0.956 . S
C1330 C261 1.010 . S
C1380 C300 1.260 . S
C1365 C82 1.110 . S
C1430 C183 1.442 . S
C1415 C40 1.236 . S
C1465 C61 1.101 . S
C1480 C222 1.247 . S
C1530 C105 1.016 . S
C1515 C83 0.966 . S
C1580 C144 1.257 . S
C1565 C20 1.165 . S
