# Generated by pormake.
# Topology rtl, (3,6)-cn, num edge types: 1
# Building blocks:
#     Node 0, Type 0, BuildingBlock: BETDAH_clean_linker_0, # of connection points: 3
#     Node 1, Type 0, BuildingBlock: BETDAH_clean_linker_0, # of connection points: 3
#     Node 2, Type 0, BuildingBlock: BETDAH_clean_linker_0, # of connection points: 3
#     Node 3, Type 0, BuildingBlock: BETDAH_clean_linker_0, # of connection points: 3
#     Node 4, Type 1, BuildingBlock: KUMJIN_clean_sbu_1, # of connection points: 6
#     Node 5, Type 1, BuildingBlock: KUMJIN_clean_sbu_1, # of connection points: 6
#     Edge 6, Type (0, 1), BuildingBlock: MIFKUJ_clean_linker_0, # of connection points: 2
#     Edge 7, Type (0, 1), BuildingBlock: MIFKUJ_clean_linker_0, # of connection points: 2
#     Edge 8, Type (0, 1), BuildingBlock: MIFKUJ_clean_linker_0, # of connection points: 2
#     Edge 9, Type (0, 1), BuildingBlock: MIFKUJ_clean_linker_0, # of connection points: 2
#     Edge 10, Type (0, 1), BuildingBlock: MIFKUJ_clean_linker_0, # of connection points: 2
#     Edge 11, Type (0, 1), BuildingBlock: MIFKUJ_clean_linker_0, # of connection points: 2
#     Edge 12, Type (0, 1), BuildingBlock: MIFKUJ_clean_linker_0, # of connection points: 2
#     Edge 13, Type (0, 1), BuildingBlock: MIFKUJ_clean_linker_0, # of connection points: 2
#     Edge 14, Type (0, 1), BuildingBlock: MIFKUJ_clean_linker_0, # of connection points: 2
#     Edge 15, Type (0, 1), BuildingBlock: MIFKUJ_clean_linker_0, # of connection points: 2
#     Edge 16, Type (0, 1), BuildingBlock: MIFKUJ_clean_linker_0, # of connection points: 2
#     Edge 17, Type (0, 1), BuildingBlock: MIFKUJ_clean_linker_0, # of connection points: 2
# Relax obj value: 0.047
# Max RMSD: 0.205
# Mean RMSD: 0.150
data_MOF--net-rtl--node1-KUMJIN_clean_sbu_1--node2-BETDAH_clean_linker_0--edge1-MIFKUJ_clean_linker_0
_symmetry_space_group_name_H-M    P1
_symmetry_Int_Tables_number       1
_symmetry_cell_setting            triclinic
loop_
_symmetry_equiv_pos_as_xyz
'x, y, z'
_cell_length_a     45.789674
_cell_length_b     45.610387
_cell_length_c     34.448625
_cell_angle_alpha  80.954309
_cell_angle_beta   100.7085
_cell_angle_gamma 90.896426
loop_
_atom_site_label
_atom_site_type_symbol
_atom_site_fract_x
_atom_site_fract_y
_atom_site_fract_z
_atom_type_partial_charge
H0 H 0.16957 0.88281 0.99897 0.0
H1 H 0.23046 0.82696 0.08916 0.0
H2 H 0.23104 0.82531 0.96485 0.0
C3 C 0.18738 0.86634 0.00709 0.0
C4 C 0.19903 0.85553 0.97691 0.0
C5 C 0.19859 0.85634 0.04765 0.0
C6 C 0.22167 0.8351 0.05793 0.0
C7 C 0.23336 0.82366 0.02855 0.0
C8 C 0.22191 0.83377 0.98781 0.0
N9 N 0.25676 0.80229 0.04185 0.0
C10 C 0.27079 0.7872 0.01822 0.0
H11 H 0.64031 0.65955 0.61195 0.0
H12 H 0.70556 0.72079 0.57312 0.0
H13 H 0.68965 0.71246 0.69373 0.0
C14 C 0.65711 0.67604 0.61839 0.0
C15 C 0.66335 0.68414 0.65663 0.0
C16 C 0.67204 0.68931 0.58813 0.0
C17 C 0.69401 0.7106 0.59642 0.0
C18 C 0.70023 0.71911 0.63471 0.0
C19 C 0.68467 0.70595 0.66429 0.0
N20 N 0.72151 0.74096 0.64507 0.0
C21 C 0.74084 0.75528 0.62169 0.0
H22 H 0.85847 0.15228 0.05682 0.0
H23 H 0.78785 0.2022 0.08402 0.0
H24 H 0.79124 0.19547 0.96183 0.0
C25 C 0.83887 0.16648 0.04679 0.0
C26 C 0.82691 0.17292 0.00582 0.0
C27 C 0.82489 0.17673 0.0752 0.0
C28 C 0.7989 0.19442 0.06227 0.0
C29 C 0.78694 0.20132 0.02113 0.0
C30 C 0.80075 0.19015 0.99339 0.0
N31 N 0.76038 0.21829 0.00631 0.0
C32 C 0.74987 0.23988 0.02478 0.0
H33 H 0.36721 0.35687 0.45302 0.0
H34 H 0.30338 0.29318 0.49051 0.0
H35 H 0.31517 0.30826 0.36803 0.0
C36 C 0.35067 0.34024 0.44625 0.0
C37 C 0.34297 0.33444 0.40684 0.0
C38 C 0.33651 0.3256 0.47672 0.0
C39 C 0.31424 0.30475 0.46728 0.0
C40 C 0.30667 0.29843 0.42792 0.0
C41 C 0.32102 0.3134 0.39816 0.0
N42 N 0.28521 0.27698 0.41659 0.0
C43 C 0.26711 0.26098 0.44042 0.0
Eu44 Eu 0.02203 0.98058 0.5006 0.0
C45 C 0.95074 0.09601 0.51346 0.0
N46 N 0.97847 0.08648 0.53246 0.0
C47 C 0.99625 0.13628 0.52422 0.0
C48 C 0.94491 0.12636 0.49839 0.0
C49 C 1.00103 0.10605 0.53849 0.0
C50 C 0.96816 0.1465 0.50372 0.0
C51 C 0.89899 0.08491 0.49038 0.0
C52 C 0.92809 0.07534 0.50903 0.0
C53 C 0.89319 0.11512 0.47538 0.0
C54 C 0.9161 0.13573 0.47906 0.0
Eu55 Eu 0.98385 0.03548 0.5577 0.0
N56 N 0.93432 0.0461 0.52373 0.0
C57 C 0.87635 0.06398 0.48834 0.0
C58 C 0.91195 0.02596 0.52344 0.0
C59 C 0.88284 0.03443 0.50509 0.0
H60 H 0.0224 0.09851 0.55571 0.0
H61 H 0.86525 0.01828 0.50487 0.0
H62 H 0.98506 0.91672 0.5114 0.0
H63 H 0.1384 0.00398 0.55896 0.0
H64 H 0.91584 0.00362 0.53874 0.0
H65 H 0.85361 0.07053 0.47517 0.0
H66 H 0.08931 0.01386 0.51604 0.0
H67 H 0.01409 0.15167 0.52983 0.0
H68 H 0.87095 0.12289 0.46146 0.0
H69 H 0.91119 0.15896 0.46743 0.0
H70 H 0.99313 0.86602 0.54963 0.0
H71 H 0.96454 0.17001 0.49281 0.0
H72 H 0.1492 0.9555 0.60272 0.0
N73 N 0.02812 0.93131 0.53462 0.0
C74 C 0.0552 0.92388 0.55791 0.0
C75 C 0.01073 0.8821 0.55227 0.0
C76 C 0.06087 0.89512 0.5799 0.0
C77 C 0.00611 0.91089 0.53098 0.0
C78 C 0.03817 0.8742 0.57694 0.0
N79 N 0.07094 0.97305 0.53858 0.0
C80 C 0.09296 0.9934 0.53659 0.0
C81 C 0.10532 0.93835 0.58424 0.0
C82 C 0.07712 0.9454 0.56016 0.0
C83 C 0.12726 0.96004 0.58462 0.0
C84 C 0.12119 0.9875 0.56017 0.0
H85 H 0.04163 0.85189 0.59347 0.0
H86 H 0.09345 0.86638 0.62184 0.0
H87 H 0.13235 0.90415 0.62558 0.0
O88 O 0.04659 0.98791 0.45114 0.0
O89 O 0.02176 0.9694 0.56756 0.0
O90 O 0.02792 0.01418 0.58908 0.0
O91 O 0.01886 0.94962 0.45748 0.0
O92 O 0.03647 0.02915 0.49459 0.0
O93 O 0.03221 0.04465 0.55409 0.0
O94 O 0.96462 0.02148 0.61126 0.0
O95 O 0.97869 0.04811 0.4901 0.0
O96 O 0.97976 0.0041 0.46522 0.0
O97 O 0.98252 0.06541 0.60079 0.0
O98 O 0.96719 0.98778 0.55932 0.0
O99 O 0.97303 0.97256 0.50005 0.0
C100 C 0.03251 0.98545 0.59519 0.0
C101 C 0.06218 0.94467 0.43063 0.0
C102 C 0.09319 0.93055 0.38578 0.0
C103 C 0.10923 0.91087 0.41791 0.0
C104 C 0.07831 0.92453 0.46193 0.0
C105 C 0.10171 0.90784 0.45567 0.0
C106 C 0.06948 0.94742 0.39227 0.0
C107 C 0.04374 0.04707 0.52141 0.0
C108 C 0.0383 0.96321 0.43818 0.0
C109 C 0.08876 0.88829 0.60445 0.0
C110 C 0.11089 0.90984 0.60666 0.0
C111 C 0.97174 0.03216 0.46115 0.0
C112 C 0.98372 0.04446 0.66758 0.0
C113 C 0.98024 0.05574 0.73351 0.0
C114 C 0.00983 0.04585 0.7475 0.0
C115 C 0.01307 0.03452 0.68208 0.0
C116 C 0.96733 0.0548 0.69333 0.0
C117 C 0.02602 0.03509 0.72196 0.0
C118 C 0.96023 0.97056 0.53157 0.0
C119 C 0.97055 0.04635 0.62508 0.0
H120 H 0.12729 0.89738 0.41362 0.0
H121 H 0.07283 0.92156 0.49122 0.0
H122 H 0.11399 0.89241 0.48014 0.0
H123 H 0.05709 0.96282 0.36778 0.0
H124 H 0.02061 0.04688 0.778 0.0
H125 H 0.02603 0.02695 0.66233 0.0
H126 H 0.94457 0.06234 0.68188 0.0
H127 H 0.0488 0.02759 0.73294 0.0
Eu128 Eu 0.47857 0.4829 0.99719 0.0
C129 C 0.60651 0.52004 0.0807 0.0
N130 N 0.58462 0.50555 0.09715 0.0
C131 C 0.61977 0.46883 0.13568 0.0
C132 C 0.63589 0.50873 0.0898 0.0
C133 C 0.59109 0.48124 0.12609 0.0
C134 C 0.64215 0.48227 0.11677 0.0
C135 C 0.62284 0.56517 0.04424 0.0
C136 C 0.60006 0.54772 0.05807 0.0
C137 C 0.65175 0.5532 0.05073 0.0
C138 C 0.65825 0.52496 0.0734 0.0
Eu139 Eu 0.5361 0.52623 0.07633 0.0
N140 N 0.57204 0.55872 0.0529 0.0
C141 C 0.61617 0.59459 0.02615 0.0
C142 C 0.56598 0.58803 0.03827 0.0
C143 C 0.58777 0.60625 0.02408 0.0
H144 H 0.57378 0.47086 0.14077 0.0
H145 H 0.58266 0.62929 0.01203 0.0
H146 H 0.40872 0.50239 0.99466 0.0
H147 H 0.53262 0.37368 0.05311 0.0
H148 H 0.54402 0.59706 0.03681 0.0
H149 H 0.63308 0.6088 0.01538 0.0
H150 H 0.52359 0.42137 0.00811 0.0
H151 H 0.62459 0.44894 0.15761 0.0
H152 H 0.66946 0.56606 0.03978 0.0
H153 H 0.68088 0.51646 0.07958 0.0
H154 H 0.36559 0.48381 0.02506 0.0
H155 H 0.66441 0.47278 0.12448 0.0
H156 H 0.49628 0.35503 0.09557 0.0
N157 N 0.4364 0.46553 0.02342 0.0
C158 C 0.43863 0.43854 0.04683 0.0
C159 C 0.38606 0.47093 0.03162 0.0
C160 C 0.41487 0.42716 0.06519 0.0
C161 C 0.41041 0.48143 0.01454 0.0
C162 C 0.38841 0.44384 0.05749 0.0
N163 N 0.48629 0.43317 0.03161 0.0
C164 C 0.50896 0.4149 0.02902 0.0
C165 C 0.46755 0.39384 0.07566 0.0
C166 C 0.46466 0.42219 0.0519 0.0
C167 C 0.49298 0.37677 0.07734 0.0
C168 C 0.51347 0.38715 0.05327 0.0
H169 H 0.36964 0.43588 0.07101 0.0
H170 H 0.40043 0.3907 0.10533 0.0
H171 H 0.44664 0.36149 0.1146 0.0
O172 O 0.46409 0.45317 0.95338 0.0
O173 O 0.46851 0.4935 0.05605 0.0
O174 O 0.51355 0.48375 0.0961 0.0
O175 O 0.45043 0.49906 0.93939 0.0
O176 O 0.52828 0.47428 0.00387 0.0
O177 O 0.54072 0.47801 0.06974 0.0
O178 O 0.51195 0.53742 0.12154 0.0
O179 O 0.52891 0.54689 0.01051 0.0
O180 O 0.51548 0.50917 0.97241 0.0
O181 O 0.55809 0.54832 0.1255 0.0
O182 O 0.49486 0.55344 0.04354 0.0
O183 O 0.46216 0.52954 0.99744 0.0
C184 C 0.48457 0.48301 0.09104 0.0
C185 C 0.45899 0.47545 0.88602 0.0
C186 C 0.4524 0.45843 0.82099 0.0
C187 C 0.47535 0.47745 0.81111 0.0
C188 C 0.4821 0.49378 0.87559 0.0
C189 C 0.49005 0.49492 0.83826 0.0
C190 C 0.44416 0.45777 0.85864 0.0
C191 C 0.54771 0.47039 0.03754 0.0
C192 C 0.45101 0.47403 0.92585 0.0
C193 C 0.41824 0.39961 0.09041 0.0
C194 C 0.4446 0.38304 0.09579 0.0
C195 C 0.5265 0.53552 0.97719 0.0
C196 C 0.54193 0.53423 0.1861 0.0
C197 C 0.56196 0.54008 0.25528 0.0
C198 C 0.56085 0.50915 0.26649 0.0
C199 C 0.54089 0.50343 0.19801 0.0
C200 C 0.55215 0.55256 0.21493 0.0
C201 C 0.55005 0.49102 0.23805 0.0
C202 C 0.4702 0.55224 0.01659 0.0
C203 C 0.53542 0.54693 0.14333 0.0
H204 H 0.48184 0.47902 0.7822 0.0
H205 H 0.49407 0.50716 0.89637 0.0
H206 H 0.50775 0.50934 0.83037 0.0
H207 H 0.42671 0.44314 0.86701 0.0
H208 H 0.56807 0.49903 0.29737 0.0
H209 H 0.53366 0.48897 0.17617 0.0
H210 H 0.55355 0.57631 0.20573 0.0
H211 H 0.54918 0.46724 0.24699 0.0
H212 H 0.27665 0.21313 0.49932 0.0
H213 H 0.23912 0.17724 0.51846 0.0
H214 H 0.17086 0.22969 0.43386 0.0
H215 H 0.20818 0.26569 0.41575 0.0
H216 H 0.14943 0.20938 0.49694 0.0
H217 H 0.20404 0.16678 0.41244 0.0
H218 H 0.24878 0.14908 0.39232 0.0
H219 H 0.26667 0.08585 0.50052 0.0
H220 H 0.22221 0.10346 0.52151 0.0
H221 H 0.06741 0.06435 0.45399 0.0
H222 H 0.10557 0.10149 0.44408 0.0
H223 H 0.11047 0.11901 0.56444 0.0
H224 H 0.07312 0.08114 0.5752 0.0
H225 H 0.16376 0.10381 0.48499 0.0
H226 H 0.12035 0.19507 0.56006 0.0
H227 H 0.07311 0.21702 0.56739 0.0
H228 H 0.02847 0.18614 0.46059 0.0
H229 H 0.07539 0.16395 0.45275 0.0
C230 C 0.25349 0.21718 0.48563 0.0
C231 C 0.24507 0.24215 0.45644 0.0
C232 C 0.23211 0.19657 0.4962 0.0
C233 C 0.20211 0.20044 0.47719 0.0
C234 C 0.19375 0.22612 0.44906 0.0
C235 C 0.21505 0.24673 0.43874 0.0
C236 C 0.17947 0.17743 0.4851 0.0
C237 C 0.15277 0.18625 0.49472 0.0
C238 C 0.18332 0.14729 0.48131 0.0
C239 C 0.21002 0.13666 0.46874 0.0
C240 C 0.21765 0.14926 0.43207 0.0
C241 C 0.24293 0.13922 0.42049 0.0
C242 C 0.26061 0.11642 0.44518 0.0
C243 C 0.25299 0.10355 0.48146 0.0
C244 C 0.22775 0.11354 0.49321 0.0
C245 C 0.07659 0.07603 0.47845 0.0
C246 C 0.06678 0.06995 0.51525 0.0
C247 C 0.09844 0.09727 0.4727 0.0
C248 C 0.11071 0.11325 0.50337 0.0
C249 C 0.10106 0.10724 0.54016 0.0
C250 C 0.07956 0.08564 0.54617 0.0
C251 C 0.13395 0.13581 0.49709 0.0
C252 C 0.16071 0.12686 0.48785 0.0
C253 C 0.12988 0.16599 0.50017 0.0
C254 C 0.10127 0.17757 0.50613 0.0
C255 C 0.10039 0.19281 0.53832 0.0
C256 C 0.0737 0.20534 0.54251 0.0
C257 C 0.04783 0.20303 0.51442 0.0
C258 C 0.04854 0.18793 0.4823 0.0
C259 C 0.07511 0.17517 0.47816 0.0
H260 H 0.0272 0.21284 0.51762 0.0
H261 H 0.28017 0.10867 0.43616 0.0
H262 H 0.25366 0.73789 0.98621 0.0
H263 H 0.28678 0.69951 0.97488 0.0
H264 H 0.36266 0.75352 0.00872 0.0
H265 H 0.32944 0.79203 0.01921 0.0
H266 H 0.37218 0.7238 0.95095 0.0
H267 H 0.34038 0.70019 0.07683 0.0
H268 H 0.30447 0.69136 0.12247 0.0
H269 H 0.26733 0.61915 0.06395 0.0
H270 H 0.30279 0.62785 0.01755 0.0
H271 H 0.48209 0.6086 0.03328 0.0
H272 H 0.44711 0.65039 0.02292 0.0
H273 H 0.37673 0.59681 0.97072 0.0
H274 H 0.41152 0.55514 0.98016 0.0
H275 H 0.36346 0.62574 0.0336 0.0
H276 H 0.40083 0.6483 0.91111 0.0
H277 H 0.44013 0.65713 0.87064 0.0
H278 H 0.4705 0.73167 0.92862 0.0
H279 H 0.43165 0.72299 0.96995 0.0
C280 C 0.27734 0.74185 0.98994 0.0
C281 C 0.28915 0.76782 1.0032 0.0
C282 C 0.29627 0.71986 0.98384 0.0
C283 C 0.3273 0.72338 0.99162 0.0
C284 C 0.33886 0.75026 1.00251 0.0
C285 C 0.31991 0.77226 0.00843 0.0
C286 C 0.34775 0.69819 0.99202 0.0
C287 C 0.37035 0.70242 0.96918 0.0
C288 C 0.34538 0.67016 0.01566 0.0
C289 C 0.32398 0.66491 0.04341 0.0
C290 C 0.32438 0.6826 0.07347 0.0
C291 C 0.30414 0.67759 0.09951 0.0
C292 C 0.28356 0.65477 0.09602 0.0
C293 C 0.28323 0.63687 0.06654 0.0
C294 C 0.3034 0.64182 0.04037 0.0
C295 C 0.45923 0.60572 0.01929 0.0
C296 C 0.44963 0.57833 0.00782 0.0
C297 C 0.4393 0.62969 0.01327 0.0
C298 C 0.40934 0.62668 0.99605 0.0
C299 C 0.39976 0.59958 0.98408 0.0
C300 C 0.41975 0.57577 0.98948 0.0
C301 C 0.38768 0.65131 0.99239 0.0
C302 C 0.365 0.647 0.01492 0.0
C303 C 0.39034 0.67931 0.96904 0.0
C304 C 0.41349 0.68481 0.9439 0.0
C305 C 0.41604 0.66643 0.91548 0.0
C306 C 0.43821 0.67143 0.89234 0.0
C307 C 0.45785 0.6949 0.89713 0.0
C308 C 0.45529 0.71347 0.92498 0.0
C309 C 0.43318 0.70854 0.94825 0.0
H310 H 0.47501 0.69872 0.87921 0.0
H311 H 0.26792 0.65091 0.11624 0.0
H312 H 0.79345 0.76676 0.66419 0.0
H313 H 0.83039 0.80225 0.64331 0.0
H314 H 0.77677 0.82092 0.52506 0.0
H315 H 0.73947 0.78524 0.54622 0.0
H316 H 0.8409 0.81622 0.52743 0.0
H317 H 0.77154 0.86759 0.58374 0.0
H318 H 0.7426 0.87459 0.63532 0.0
H319 H 0.82333 0.87672 0.72118 0.0
H320 H 0.85274 0.86931 0.67023 0.0
H321 H 0.92042 0.94839 0.47408 0.0
H322 H 0.88225 0.91115 0.48416 0.0
H323 H 0.91259 0.90195 0.61195 0.0
H324 H 0.94944 0.9403 0.60189 0.0
H325 H 0.85699 0.90262 0.59985 0.0
H326 H 0.92707 0.84902 0.54827 0.0
H327 H 0.95793 0.8399 0.49969 0.0
H328 H 0.87969 0.83936 0.40916 0.0
H329 H 0.84836 0.84878 0.45706 0.0
C330 C 0.78984 0.77807 0.63354 0.0
C331 C 0.76386 0.77331 0.60668 0.0
C332 C 0.81086 0.7984 0.62169 0.0
C333 C 0.80625 0.81443 0.58272 0.0
C334 C 0.78079 0.80875 0.55524 0.0
C335 C 0.75956 0.78844 0.56726 0.0
C336 C 0.8272 0.83832 0.57196 0.0
C337 C 0.84419 0.83537 0.54278 0.0
C338 C 0.83198 0.86292 0.59268 0.0
C339 C 0.81432 0.86765 0.62324 0.0
C340 C 0.78311 0.86933 0.61369 0.0
C341 C 0.76662 0.87341 0.64281 0.0
C342 C 0.78111 0.87604 0.68152 0.0
C343 C 0.81213 0.87467 0.69118 0.0
C344 C 0.82872 0.87056 0.66219 0.0
C345 C 0.91891 0.93829 0.50427 0.0
C346 C 0.93783 0.94725 0.5372 0.0
C347 C 0.89721 0.91684 0.51006 0.0
C348 C 0.89462 0.90321 0.54888 0.0
C349 C 0.91386 0.91207 0.58169 0.0
C350 C 0.935 0.93399 0.57594 0.0
C351 C 0.87149 0.88042 0.55577 0.0
C352 C 0.85388 0.88359 0.58425 0.0
C353 C 0.86658 0.8558 0.53485 0.0
C354 C 0.88539 0.84989 0.50614 0.0
C355 C 0.91646 0.84713 0.51794 0.0
C356 C 0.93404 0.8419 0.49054 0.0
C357 C 0.92079 0.83916 0.45135 0.0
C358 C 0.88992 0.84153 0.43951 0.0
C359 C 0.87224 0.84679 0.46678 0.0
H360 H 0.93444 0.83512 0.43019 0.0
H361 H 0.76831 0.87919 0.70402 0.0
H362 H 0.75172 0.29688 0.99171 0.0
H363 H 0.72124 0.33792 1.00107 0.0
H364 H 0.68461 0.27931 0.09052 0.0
H365 H 0.7148 0.23802 0.08031 0.0
H366 H 0.6418 0.30803 0.0374 0.0
H367 H 0.73247 0.33742 0.11425 0.0
H368 H 0.78565 0.34971 0.128 0.0
H369 H 0.77136 0.42164 0.02957 0.0
H370 H 0.71816 0.40954 0.01486 0.0
H371 H 0.56594 0.42467 0.09791 0.0
H372 H 0.60366 0.3865 0.10049 0.0
H373 H 0.62323 0.43025 0.98807 0.0
H374 H 0.58475 0.46811 0.98477 0.0
H375 H 0.67529 0.40961 0.05654 0.0
H376 H 0.5871 0.37768 0.97566 0.0
H377 H 0.53478 0.36353 0.95713 0.0
H378 H 0.54515 0.29597 0.06083 0.0
H379 H 0.59749 0.31001 0.08027 0.0
C380 C 0.73767 0.29305 0.01405 0.0
C381 C 0.73567 0.26461 0.03566 0.0
C382 C 0.7203 0.31649 0.01948 0.0
C383 C 0.70079 0.31188 0.04683 0.0
C384 C 0.69956 0.28347 0.06936 0.0
C385 C 0.71688 0.25997 0.06376 0.0
C386 C 0.67982 0.33592 0.04915 0.0
C387 C 0.64925 0.33004 0.0425 0.0
C388 C 0.68937 0.365 0.05439 0.0
C389 C 0.72135 0.37241 0.06327 0.0
C390 C 0.7407 0.35572 0.09535 0.0
C391 C 0.77085 0.36268 0.10335 0.0
C392 C 0.78189 0.3864 0.07963 0.0
C393 C 0.76279 0.40326 0.04791 0.0
C394 C 0.73262 0.39639 0.03976 0.0
C395 C 0.57864 0.42639 0.07408 0.0
C396 C 0.57266 0.44937 0.04123 0.0
C397 C 0.59999 0.4045 0.07547 0.0
C398 C 0.6161 0.40556 0.04442 0.0
C399 C 0.61098 0.42911 0.01231 0.0
C400 C 0.58908 0.45064 0.01043 0.0
C401 C 0.63757 0.38147 0.04496 0.0
C402 C 0.66807 0.38743 0.05203 0.0
C403 C 0.62802 0.35246 0.03996 0.0
C404 C 0.5961 0.34518 0.02972 0.0
C405 C 0.57811 0.36014 0.99487 0.0
C406 C 0.54851 0.35197 0.98401 0.0
C407 C 0.53668 0.32877 0.00768 0.0
C408 C 0.55436 0.31386 0.04245 0.0
C409 C 0.58399 0.32194 0.05342 0.0
H410 H 0.51376 0.32248 0.99923 0.0
H411 H 0.80524 0.39175 0.08586 0.0
H412 H 0.14011 0.86476 0.05142 0.0
H413 H 0.1201 0.88249 0.10482 0.0
H414 H 0.20928 0.89227 0.1686 0.0
H415 H 0.22934 0.87431 0.11554 0.0
H416 H 0.17645 0.86471 0.21739 0.0
H417 H 0.16434 0.95282 0.11845 0.0
H418 H 0.14699 0.98208 0.05176 0.0
H419 H 0.05644 0.96223 0.06165 0.0
H420 H 0.07328 0.93249 0.1282 0.0
H421 H 0.14798 0.93977 0.36689 0.0
H422 H 0.16341 0.93304 0.3046 0.0
H423 H 0.07246 0.91741 0.25248 0.0
H424 H 0.05682 0.92464 0.31488 0.0
H425 H 0.10381 0.94793 0.19664 0.0
H426 H 0.11604 0.85975 0.29511 0.0
H427 H 0.13328 0.83098 0.36214 0.0
H428 H 0.22385 0.85097 0.35251 0.0
H429 H 0.2071 0.88031 0.28566 0.0
C430 C 0.15543 0.87102 0.07663 0.0
C431 C 0.18632 0.86807 0.07932 0.0
C432 C 0.14397 0.8812 0.1071 0.0
C433 C 0.16317 0.889 0.14062 0.0
C434 C 0.19401 0.88634 0.14311 0.0
C435 C 0.20546 0.87598 0.11283 0.0
C436 C 0.15129 0.89865 0.17404 0.0
C437 C 0.1609 0.8832 0.21281 0.0
C438 C 0.13026 0.92218 0.16805 0.0
C439 C 0.12009 0.94018 0.12814 0.0
C440 C 0.14074 0.9545 0.10628 0.0
C441 C 0.131 0.97121 0.06852 0.0
C442 C 0.10064 0.97395 0.05243 0.0
C443 C 0.07996 0.96006 0.07413 0.0
C444 C 0.08958 0.94329 0.11188 0.0
C445 C 0.1312 0.93551 0.34184 0.0
C446 C 0.10127 0.93236 0.34577 0.0
C447 C 0.14003 0.93163 0.30632 0.0
C448 C 0.11917 0.92406 0.27423 0.0
C449 C 0.08892 0.9231 0.27695 0.0
C450 C 0.08001 0.92726 0.31253 0.0
C451 C 0.12948 0.91432 0.23981 0.0
C452 C 0.11943 0.92953 0.20101 0.0
C453 C 0.15013 0.89052 0.24562 0.0
C454 C 0.16029 0.87243 0.28552 0.0
C455 C 0.13962 0.85816 0.30739 0.0
C456 C 0.14931 0.84175 0.34535 0.0
C457 C 0.17964 0.8392 0.36161 0.0
C458 C 0.20036 0.85299 0.33989 0.0
C459 C 0.19079 0.8695 0.30196 0.0
H460 H 0.1871 0.82649 0.39101 0.0
H461 H 0.09315 0.98689 0.0232 0.0
H462 H 0.65719 0.62487 0.68124 0.0
H463 H 0.63203 0.6012 0.73455 0.0
H464 H 0.60775 0.68751 0.75606 0.0
H465 H 0.63419 0.71113 0.70404 0.0
H466 H 0.62329 0.65601 0.82298 0.0
H467 H 0.55732 0.63906 0.7047 0.0
H468 H 0.54286 0.62264 0.63902 0.0
H469 H 0.56791 0.53295 0.6925 0.0
H470 H 0.58296 0.54891 0.75843 0.0
H471 H 0.49612 0.56054 0.90418 0.0
H472 H 0.51674 0.58813 0.84838 0.0
H473 H 0.60497 0.57581 0.9198 0.0
H474 H 0.58428 0.54793 0.97494 0.0
H475 H 0.55313 0.57324 0.80435 0.0
H476 H 0.64796 0.63314 0.89787 0.0
H477 H 0.65698 0.65809 0.95751 0.0
H478 H 0.56312 0.67264 0.94597 0.0
H479 H 0.55356 0.64776 0.88636 0.0
C480 C 0.64638 0.63873 0.69733 0.0
C481 C 0.64758 0.66982 0.6885 0.0
C482 C 0.63183 0.6252 0.72767 0.0
C483 C 0.61742 0.64247 0.74909 0.0
C484 C 0.61865 0.67359 0.74016 0.0
C485 C 0.63373 0.68711 0.71039 0.0
C486 C 0.60172 0.6282 0.78141 0.0
C487 C 0.60796 0.63791 0.81876 0.0
C488 C 0.58104 0.60504 0.77593 0.0
C489 C 0.57151 0.59524 0.73646 0.0
C490 C 0.5599 0.61586 0.70242 0.0
C491 C 0.55159 0.60663 0.66514 0.0
C492 C 0.55454 0.57678 0.66156 0.0
C493 C 0.56568 0.55607 0.6953 0.0
C494 C 0.57408 0.5652 0.73265 0.0
C495 C 0.5199 0.56381 0.90775 0.0
C496 C 0.53867 0.55258 0.9439 0.0
C497 C 0.53167 0.57957 0.87596 0.0
C498 C 0.56242 0.58448 0.87993 0.0
C499 C 0.58114 0.57299 0.91616 0.0
C500 C 0.56935 0.55719 0.94779 0.0
C501 C 0.57513 0.60081 0.84596 0.0
C502 C 0.56842 0.59138 0.80841 0.0
C503 C 0.59457 0.62496 0.85074 0.0
C504 C 0.60006 0.63839 0.88788 0.0
C505 C 0.62926 0.64158 0.90818 0.0
C506 C 0.63446 0.65576 0.94191 0.0
C507 C 0.61065 0.66705 0.95541 0.0
C508 C 0.58155 0.66392 0.93544 0.0
C509 C 0.57621 0.6496 0.90185 0.0
H510 H 0.61473 0.67807 0.98148 0.0
H511 H 0.54814 0.56968 0.63267 0.0
H512 H 0.88131 0.18247 0.11512 0.0
H513 H 0.90325 0.15836 0.18264 0.0
H514 H 0.81774 0.12239 0.19849 0.0
H515 H 0.79558 0.14748 0.13141 0.0
H516 H 0.8448 0.13531 0.26572 0.0
H517 H 0.87166 0.08138 0.17015 0.0
H518 H 0.89175 0.07387 0.11075 0.0
H519 H 0.97797 0.10077 0.16527 0.0
H520 H 0.95828 0.10892 0.22477 0.0
H521 H 0.94621 0.00566 0.39705 0.0
H522 H 0.91716 0.02946 0.33317 0.0
H523 H 0.92703 0.11439 0.37382 0.0
H524 H 0.9571 0.09112 0.43676 0.0
H525 H 0.93433 0.07224 0.27767 0.0
H526 H 0.8607 0.15403 0.33487 0.0
H527 H 0.83067 0.15437 0.38731 0.0
H528 H 0.82768 0.05914 0.40435 0.0
H529 H 0.85754 0.05823 0.35198 0.0
C530 C 0.86714 0.16991 0.13344 0.0
C531 C 0.8368 0.16675 0.11818 0.0
C532 C 0.87971 0.15592 0.17183 0.0
C533 C 0.86235 0.13786 0.19532 0.0
C534 C 0.83166 0.13605 0.18091 0.0
C535 C 0.81896 0.15047 0.14268 0.0
C536 C 0.87641 0.11996 0.23408 0.0
C537 C 0.86449 0.12168 0.26835 0.0
C538 C 0.9014 0.10114 0.23734 0.0
C539 C 0.91342 0.09602 0.20177 0.0
C540 C 0.89486 0.08589 0.16936 0.0
C541 C 0.90618 0.0815 0.13568 0.0
C542 C 0.9361 0.08691 0.1342 0.0
C543 C 0.95479 0.09664 0.16644 0.0
C544 C 0.94356 0.10113 0.20016 0.0
C545 C 0.94222 0.02941 0.39247 0.0
C546 C 0.95372 0.04637 0.42248 0.0
C547 C 0.92552 0.04295 0.35594 0.0
C548 C 0.9196 0.07364 0.3489 0.0
C549 C 0.93084 0.09059 0.37884 0.0
C550 C 0.94795 0.07717 0.41502 0.0
C551 C 0.90323 0.08837 0.30947 0.0
C552 C 0.91477 0.08605 0.27507 0.0
C553 C 0.87724 0.10575 0.30583 0.0
C554 C 0.86163 0.10608 0.33978 0.0
C555 C 0.85381 0.13316 0.35002 0.0
C556 C 0.83669 0.13346 0.37959 0.0
C557 C 0.82716 0.10681 0.399 0.0
C558 C 0.83507 0.07978 0.38928 0.0
C559 C 0.85226 0.07935 0.35984 0.0
H560 H 0.8138 0.10709 0.42177 0.0
H561 H 0.94482 0.0835 0.10809 0.0
H562 H 0.39258 0.33061 0.51868 0.0
H563 H 0.40726 0.34735 0.58331 0.0
H564 H 0.3151 0.35343 0.59327 0.0
H565 H 0.3002 0.33709 0.52786 0.0
H566 H 0.34506 0.40331 0.60945 0.0
H567 H 0.35975 0.29933 0.65323 0.0
H568 H 0.37794 0.24889 0.65238 0.0
H569 H 0.46808 0.27868 0.67362 0.0
H570 H 0.45044 0.32942 0.67403 0.0
H571 H 0.39284 0.44622 0.80171 0.0
H572 H 0.36858 0.41776 0.75021 0.0
H573 H 0.4539 0.40011 0.72202 0.0
H574 H 0.47825 0.42744 0.77419 0.0
H575 H 0.42088 0.35208 0.72027 0.0
H576 H 0.40644 0.45643 0.66635 0.0
H577 H 0.38934 0.50763 0.6651 0.0
H578 H 0.29969 0.47749 0.66134 0.0
H579 H 0.31635 0.42601 0.66308 0.0
C580 C 0.37541 0.33533 0.53472 0.0
C581 C 0.34521 0.33265 0.51805 0.0
C582 C 0.38384 0.34468 0.57186 0.0
C583 C 0.36231 0.35146 0.5934 0.0
C584 C 0.33211 0.34824 0.57726 0.0
C585 C 0.32363 0.3387 0.54005 0.0
C586 C 0.37158 0.36352 0.63151 0.0
C587 C 0.36112 0.3918 0.63409 0.0
C588 C 0.393 0.34881 0.66337 0.0
C589 C 0.40374 0.31825 0.66341 0.0
C590 C 0.38345 0.29518 0.65745 0.0
C591 C 0.39366 0.26652 0.65709 0.0
C592 C 0.42414 0.26059 0.66288 0.0
C593 C 0.44448 0.28331 0.66914 0.0
C594 C 0.43438 0.31202 0.6695 0.0
C595 C 0.40645 0.43587 0.78497 0.0
C596 C 0.43748 0.43945 0.7918 0.0
C597 C 0.39253 0.41981 0.75528 0.0
C598 C 0.40934 0.40715 0.73171 0.0
C599 C 0.44038 0.40975 0.7396 0.0
C600 C 0.45427 0.42568 0.76923 0.0
C601 C 0.39486 0.39214 0.69779 0.0
C602 C 0.40439 0.36334 0.69596 0.0
C603 C 0.37273 0.40643 0.66649 0.0
C604 C 0.36269 0.43735 0.66534 0.0
C605 C 0.38312 0.4607 0.66557 0.0
C606 C 0.3735 0.48977 0.66472 0.0
C607 C 0.34346 0.4958 0.66328 0.0
C608 C 0.32296 0.47277 0.66255 0.0
C609 C 0.33247 0.44365 0.66345 0.0
H610 H 0.33605 0.51832 0.66261 0.0
H611 H 0.432 0.23839 0.66258 0.0
H612 H 0.61993 0.70128 0.53639 0.0
H613 H 0.60236 0.68063 0.47488 0.0
H614 H 0.68678 0.63543 0.48969 0.0
H615 H 0.70473 0.65723 0.55053 0.0
H616 H 0.66672 0.65294 0.4131 0.0
H617 H 0.6252 0.60056 0.52117 0.0
H618 H 0.59814 0.59497 0.57745 0.0
H619 H 0.51911 0.63135 0.49787 0.0
H620 H 0.54583 0.63762 0.44122 0.0
H621 H 0.61469 0.53299 0.30777 0.0
H622 H 0.63426 0.56303 0.35964 0.0
H623 H 0.5561 0.61942 0.32399 0.0
H624 H 0.53659 0.58959 0.27152 0.0
H625 H 0.5723 0.59757 0.40902 0.0
H626 H 0.61577 0.647 0.29996 0.0
H627 H 0.64432 0.64971 0.24549 0.0
H628 H 0.72154 0.61432 0.32985 0.0
H629 H 0.69331 0.61097 0.38478 0.0
C630 C 0.63489 0.68748 0.52587 0.0
C631 C 0.66363 0.68082 0.5479 0.0
C632 C 0.62479 0.67546 0.49099 0.0
C633 C 0.64295 0.65582 0.4781 0.0
C634 C 0.67228 0.65039 0.49906 0.0
C635 C 0.68257 0.66285 0.53371 0.0
C636 C 0.63078 0.63976 0.44423 0.0
C637 C 0.64623 0.64061 0.41246 0.0
C638 C 0.60383 0.62384 0.44302 0.0
C639 C 0.58761 0.61984 0.477 0.0
C640 C 0.60211 0.60756 0.51572 0.0
C641 C 0.58683 0.60425 0.54768 0.0
C642 C 0.55695 0.61286 0.54124 0.0
C643 C 0.54227 0.62473 0.50282 0.0
C644 C 0.55747 0.62816 0.47076 0.0
C645 C 0.60175 0.55187 0.31093 0.0
C646 C 0.57413 0.55901 0.28568 0.0
C647 C 0.613 0.56906 0.34041 0.0
C648 C 0.59668 0.59351 0.34555 0.0
C649 C 0.56906 0.60068 0.32042 0.0
C650 C 0.55801 0.58376 0.29042 0.0
C651 C 0.60817 0.61092 0.37802 0.0
C652 C 0.59266 0.61012 0.40962 0.0
C653 C 0.63528 0.6264 0.37939 0.0
C654 C 0.65233 0.62846 0.34643 0.0
C655 C 0.63876 0.63953 0.30685 0.0
C656 C 0.6549 0.64124 0.2759 0.0
C657 C 0.6847 0.63212 0.28419 0.0
C658 C 0.69844 0.62134 0.32347 0.0
C659 C 0.68239 0.61956 0.35453 0.0
H660 H 0.69717 0.63347 0.26019 0.0
H661 H 0.54515 0.61029 0.566 0.0
H662 H 0.88629 0.17106 0.00391 0.0
H663 H 0.91029 0.15109 0.95572 0.0
H664 H 0.8246 0.12868 0.89229 0.0
H665 H 0.80046 0.14793 0.94101 0.0
H666 H 0.86441 0.084 0.9009 0.0
H667 H 0.85984 0.18853 0.85518 0.0
H668 H 0.86708 0.24146 0.86099 0.0
H669 H 0.96149 0.22683 0.89316 0.0
H670 H 0.95478 0.1737 0.88809 0.0
H671 H 0.94316 0.10441 0.71577 0.0
H672 H 0.91465 0.12389 0.75963 0.0
H673 H 0.95097 0.05467 0.85622 0.0
H674 H 0.97885 0.03447 0.81215 0.0
H675 H 0.93219 0.14623 0.82662 0.0
H676 H 0.899 0.0356 0.9148 0.0
H677 H 0.88802 0.98401 0.90421 0.0
H678 H 0.8622 0.01327 0.77785 0.0
H679 H 0.87262 0.06506 0.78773 0.0
C680 C 0.87256 0.1617 0.97986 0.0
C681 C 0.84146 0.16117 0.9762 0.0
C682 C 0.88629 0.1505 0.95218 0.0
C683 C 0.8692 0.13865 0.92021 0.0
C684 C 0.83819 0.13779 0.91668 0.0
C685 C 0.82442 0.14905 0.94432 0.0
C686 C 0.88376 0.12721 0.89046 0.0
C687 C 0.87924 0.09758 0.88466 0.0
C688 C 0.90263 0.14512 0.86869 0.0
C689 C 0.90678 0.17708 0.87161 0.0
C690 C 0.88213 0.19655 0.8638 0.0
C691 C 0.88614 0.2266 0.8669 0.0
C692 C 0.91472 0.23749 0.87753 0.0
C693 C 0.93936 0.21836 0.88497 0.0
C694 C 0.93547 0.18828 0.88195 0.0
C695 C 0.94479 0.09307 0.74619 0.0
C696 C 0.96312 0.06773 0.76035 0.0
C697 C 0.92868 0.10441 0.77132 0.0
C698 C 0.93047 0.0906 0.81108 0.0
C699 C 0.94894 0.06546 0.82547 0.0
C700 C 0.96507 0.05409 0.80034 0.0
C701 C 0.91333 0.10281 0.83763 0.0
C702 C 0.91739 0.1326 0.84287 0.0
C703 C 0.89356 0.08522 0.85823 0.0
C704 C 0.88689 0.05417 0.852 0.0
C705 C 0.89087 0.03103 0.88478 0.0
C706 C 0.88476 1.00175 0.87889 0.0
C707 C 0.87451 0.99536 0.84037 0.0
C708 C 0.87025 0.01824 0.80766 0.0
C709 C 0.8763 0.04755 0.81338 0.0
H710 H 0.86981 0.97267 0.83588 0.0
H711 H 0.91778 0.26076 0.87991 0.0
H712 H 0.31687 0.36 0.33135 0.0
H713 H 0.34097 0.38595 0.27839 0.0
H714 H 0.42649 0.37065 0.35634 0.0
H715 H 0.40234 0.34517 0.40972 0.0
H716 H 0.42451 0.42452 0.3178 0.0
H717 H 0.40157 0.32969 0.27879 0.0
H718 H 0.37042 0.28713 0.26243 0.0
H719 H 0.31607 0.34368 0.16529 0.0
H720 H 0.34663 0.3867 0.18143 0.0
H721 H 0.50891 0.44354 0.15676 0.0
H722 H 0.48472 0.42026 0.21138 0.0
H723 H 0.40297 0.46667 0.15415 0.0
H724 H 0.42754 0.49152 0.10066 0.0
H725 H 0.40377 0.39747 0.18142 0.0
H726 H 0.42824 0.49257 0.22318 0.0
H727 H 0.4617 0.53347 0.23984 0.0
H728 H 0.5165 0.47333 0.33206 0.0
H729 H 0.48368 0.43187 0.31536 0.0
C730 C 0.34083 0.36202 0.33712 0.0
C731 C 0.35771 0.35038 0.37468 0.0
C732 C 0.35462 0.37683 0.30678 0.0
C733 C 0.38567 0.3799 0.313 0.0
C734 C 0.40253 0.3686 0.35069 0.0
C735 C 0.3887 0.35405 0.38121 0.0
C736 C 0.4005 0.39504 0.28034 0.0
C737 C 0.42018 0.41828 0.28817 0.0
C738 C 0.39471 0.3873 0.24134 0.0
C739 C 0.37619 0.36149 0.23163 0.0
C740 C 0.38281 0.33311 0.25417 0.0
C741 C 0.36529 0.30889 0.24489 0.0
C742 C 0.34122 0.31272 0.21292 0.0
C743 C 0.33468 0.34076 0.1901 0.0
C744 C 0.3521 0.36507 0.19929 0.0
C745 C 0.48593 0.44923 0.15617 0.0
C746 C 0.47009 0.46937 0.1244 0.0
C747 C 0.47212 0.43574 0.18722 0.0
C748 C 0.44211 0.44177 0.18669 0.0
C749 C 0.42617 0.46175 0.155 0.0
C750 C 0.44018 0.47581 0.12444 0.0
C751 C 0.42733 0.42683 0.21905 0.0
C752 C 0.40788 0.40359 0.21113 0.0
C753 C 0.43363 0.43428 0.258 0.0
C754 C 0.45366 0.45905 0.26772 0.0
C755 C 0.44764 0.48796 0.24664 0.0
C756 C 0.46643 0.51127 0.25619 0.0
C757 C 0.49114 0.50602 0.28707 0.0
C758 C 0.49727 0.47738 0.30824 0.0
C759 C 0.47861 0.45396 0.29872 0.0
H760 H 0.50552 0.52414 0.2946 0.0
H761 H 0.3277 0.29393 0.20577 0.0
H762 H 0.18181 0.82473 0.91414 0.0
H763 H 0.15561 0.84472 0.84641 0.0
H764 H 0.16243 0.9332 0.87647 0.0
H765 H 0.18852 0.91346 0.9437 0.0
H766 H 0.10628 0.92101 0.84562 0.0
H767 H 0.20288 0.91094 0.81254 0.0
H768 H 0.24846 0.88426 0.80888 0.0
H769 H 0.19659 0.82555 0.73823 0.0
H770 H 0.15062 0.85162 0.74196 0.0
H771 H 0.07332 0.01029 0.64875 0.0
H772 H 0.10192 0.98554 0.71257 0.0
H773 H 0.06169 0.90221 0.69072 0.0
H774 H 0.03111 0.92723 0.62872 0.0
H775 H 0.1328 0.90862 0.71586 0.0
H776 H 0.03644 0.91865 0.74855 0.0
H777 H 0.99057 0.94373 0.75429 0.0
H778 H 0.04172 1.00059 0.82858 0.0
H779 H 0.08807 0.97678 0.82167 0.0
C780 C 0.17823 0.84849 0.90594 0.0
C781 C 0.18691 0.86749 0.93434 0.0
C782 C 0.16322 0.85989 0.86729 0.0
C783 C 0.15691 0.89048 0.85642 0.0
C784 C 0.16679 0.90952 0.88426 0.0
C785 C 0.18167 0.89819 0.9227 0.0
C786 C 0.13833 0.90269 0.81719 0.0
C787 C 0.11232 0.91858 0.81727 0.0
C788 C 0.14566 0.89871 0.78017 0.0
C789 C 0.17327 0.883 0.77796 0.0
C790 C 0.20116 0.89215 0.79656 0.0
C791 C 0.22707 0.87718 0.7944 0.0
C792 C 0.22542 0.85316 0.77345 0.0
C793 C 0.19784 0.84412 0.75452 0.0
C794 C 0.17184 0.85899 0.75663 0.0
C795 C 0.07017 0.98681 0.65788 0.0
C796 C 0.04996 0.97071 0.63369 0.0
C797 C 0.08671 0.97268 0.6941 0.0
C798 C 0.08386 0.9421 0.70619 0.0
C799 C 0.06419 0.92583 0.68178 0.0
C800 C 0.04693 0.94013 0.64627 0.0
C801 C 0.10124 0.92729 0.74463 0.0
C802 C 0.12689 0.91096 0.74432 0.0
C803 C 0.09358 0.93077 0.78154 0.0
C804 C 0.06584 0.94631 0.78384 0.0
C805 C 0.03802 0.93704 0.76517 0.0
C806 C 0.01189 0.95094 0.76881 0.0
C807 C 0.01322 0.97378 0.7917 0.0
C808 C 0.04072 0.98293 0.81075 0.0
C809 C 0.06694 0.96938 0.80676 0.0
H810 H 0.99295 0.98436 0.79471 0.0
H811 H 0.24551 0.84161 0.7718 0.0
loop_
_geom_bond_atom_site_label_1
_geom_bond_atom_site_label_2
_geom_bond_distance
_geom_bond_site_symmetry_2
_ccdc_geom_bond_type
H0 C3 0.929 . S
H1 C6 0.929 . S
H2 C8 0.930 . S
C3 H0 0.929 . S
C3 C4 1.398 1_554 S
C3 C5 1.396 . S
C4 C3 1.398 1_556 S
C4 C8 1.407 . S
C5 C3 1.396 . S
C5 C6 1.394 . S
C6 H1 0.929 . S
C6 C5 1.394 . S
C6 C7 1.382 . S
C7 C6 1.382 . S
C7 C8 1.392 1_554 S
C7 N9 1.420 . S
C8 H2 0.930 . S
C8 C4 1.407 . S
C8 C7 1.392 1_556 S
N9 C7 1.420 . S
N9 C10 1.244 . S
C10 N9 1.244 . S
H11 C14 0.929 . S
H12 C17 0.929 . S
H13 C19 0.930 . S
C14 H11 0.929 . S
C14 C15 1.398 . S
C14 C16 1.396 . S
C15 C14 1.398 . S
C15 C19 1.407 . S
C16 C14 1.396 . S
C16 C17 1.394 . S
C17 H12 0.929 . S
C17 C16 1.394 . S
C17 C18 1.382 . S
C18 C17 1.382 . S
C18 C19 1.392 . S
C18 N20 1.420 . S
C19 H13 0.930 . S
C19 C15 1.407 . S
C19 C18 1.392 . S
N20 C18 1.420 . S
N20 C21 1.244 . S
C21 N20 1.244 . S
H22 C25 0.929 . S
H23 C28 0.929 . S
H24 C30 0.930 . S
C25 H22 0.929 . S
C25 C26 1.398 1_554 S
C25 C27 1.396 . S
C26 C25 1.398 1_556 S
C26 C30 1.407 . S
C27 C25 1.396 . S
C27 C28 1.394 . S
C28 H23 0.929 . S
C28 C27 1.394 . S
C28 C29 1.382 . S
C29 C28 1.382 . S
C29 C30 1.392 1_554 S
C29 N31 1.420 . S
C30 H24 0.930 . S
C30 C26 1.407 . S
C30 C29 1.392 1_556 S
N31 C29 1.420 . S
N31 C32 1.244 . S
C32 N31 1.244 . S
H33 C36 0.929 . S
H34 C39 0.929 . S
H35 C41 0.930 . S
C36 H33 0.929 . S
C36 C37 1.398 . S
C36 C38 1.396 . S
C37 C36 1.398 . S
C37 C41 1.407 . S
C38 C36 1.396 . S
C38 C39 1.394 . S
C39 H34 0.929 . S
C39 C38 1.394 . S
C39 C40 1.382 . S
C40 C39 1.382 . S
C40 C41 1.392 . S
C40 N42 1.420 . S
C41 H35 0.930 . S
C41 C37 1.407 . S
C41 C40 1.392 . S
N42 C40 1.420 . S
N42 C43 1.244 . S
C43 N42 1.244 . S
Eu44 N73 2.600 . S
Eu44 N79 2.562 . S
Eu44 O88 2.462 . S
Eu44 O89 2.373 . S
Eu44 O91 2.432 . S
Eu44 O92 2.291 1_565 S
Eu44 O96 2.335 1_465 S
Eu44 O99 2.372 1_455 S
Eu44 C108 2.787 . S
C45 N46 1.365 . S
C45 C48 1.405 . S
C45 C52 1.448 . S
N46 C45 1.365 . S
N46 C49 1.319 1_655 S
N46 Eu55 2.600 . S
C47 C49 1.397 . S
C47 C50 1.367 1_455 S
C47 H67 0.931 . S
C48 C45 1.405 . S
C48 C50 1.403 . S
C48 C54 1.439 . S
C49 N46 1.319 1_455 S
C49 C47 1.397 . S
C49 H60 0.930 . S
C50 C47 1.367 1_655 S
C50 C48 1.403 . S
C50 H71 0.929 . S
C51 C52 1.430 . S
C51 C53 1.387 . S
C51 C57 1.404 . S
C52 C45 1.448 . S
C52 C51 1.430 . S
C52 N56 1.351 . S
C53 C51 1.387 . S
C53 C54 1.374 . S
C53 H68 0.931 . S
C54 C48 1.439 . S
C54 C53 1.374 . S
C54 H69 0.931 . S
Eu55 N46 2.600 . S
Eu55 N56 2.562 . S
Eu55 O90 2.335 1_655 S
Eu55 O93 2.372 1_655 S
Eu55 O94 2.462 . S
Eu55 O95 2.373 . S
Eu55 O97 2.432 . S
Eu55 O98 2.291 1_545 S
Eu55 C119 2.787 . S
N56 C52 1.351 . S
N56 Eu55 2.562 . S
N56 C58 1.325 . S
C57 C51 1.404 . S
C57 C59 1.366 . S
C57 H65 0.930 . S
C58 N56 1.325 . S
C58 C59 1.416 . S
C58 H64 0.929 . S
C59 C57 1.366 . S
C59 C58 1.416 . S
C59 H61 0.930 . S
H60 C49 0.930 . S
H61 C59 0.930 . S
H62 C77 0.930 1_655 S
H63 C84 0.930 . S
H64 C58 0.929 . S
H65 C57 0.930 . S
H66 C80 0.929 . S
H67 C47 0.931 . S
H68 C53 0.931 . S
H69 C54 0.931 . S
H70 C75 0.931 1_655 S
H71 C50 0.929 . S
H72 C83 0.930 . S
N73 Eu44 2.600 . S
N73 C74 1.365 . S
N73 C77 1.319 . S
C74 N73 1.365 . S
C74 C76 1.405 . S
C74 C82 1.448 . S
C75 H70 0.931 1_455 S
C75 C77 1.397 . S
C75 C78 1.367 . S
C76 C74 1.405 . S
C76 C78 1.403 . S
C76 C109 1.439 . S
C77 H62 0.930 1_455 S
C77 N73 1.319 . S
C77 C75 1.397 . S
C78 C75 1.367 . S
C78 C76 1.403 . S
C78 H85 0.929 . S
N79 Eu44 2.562 . S
N79 C80 1.325 . S
N79 C82 1.351 . S
C80 H66 0.929 . S
C80 N79 1.325 . S
C80 C84 1.416 . S
C81 C82 1.430 . S
C81 C83 1.404 . S
C81 C110 1.387 . S
C82 C74 1.448 . S
C82 N79 1.351 . S
C82 C81 1.430 . S
C83 H72 0.930 . S
C83 C81 1.404 . S
C83 C84 1.366 . S
C84 H63 0.930 . S
C84 C80 1.416 . S
C84 C83 1.366 . S
H85 C78 0.929 . S
H86 C109 0.931 . S
H87 C110 0.931 . S
O88 Eu44 2.462 . S
O88 C108 1.252 . S
O89 Eu44 2.373 . S
O89 C100 1.249 . S
O90 Eu55 2.335 1_455 S
O90 C100 1.264 1_545 S
O91 Eu44 2.432 . S
O91 C108 1.268 . S
O92 Eu44 2.291 1_545 S
O92 C107 1.255 . S
O93 Eu55 2.372 1_455 S
O93 C107 1.257 . S
O94 Eu55 2.462 . S
O94 C119 1.252 . S
O95 Eu55 2.373 . S
O95 C111 1.249 . S
O96 Eu44 2.335 1_645 S
O96 C111 1.264 . S
O97 Eu55 2.432 . S
O97 C119 1.268 . S
O98 Eu55 2.291 1_565 S
O98 C118 1.255 . S
O99 Eu44 2.372 1_655 S
O99 C118 1.257 . S
C100 O89 1.249 . S
C100 O90 1.264 1_565 S
C101 C104 1.382 . S
C101 C106 1.390 . S
C101 C108 1.506 . S
C102 C103 1.398 . S
C102 C106 1.392 . S
C103 C102 1.398 . S
C103 C105 1.372 . S
C103 H120 0.931 . S
C104 C101 1.382 . S
C104 C105 1.390 . S
C104 H121 0.931 . S
C105 C103 1.372 . S
C105 C104 1.390 . S
C105 H122 0.929 . S
C106 C101 1.390 . S
C106 C102 1.392 . S
C106 H123 0.930 . S
C107 O92 1.255 . S
C107 O93 1.257 . S
C108 Eu44 2.787 . S
C108 O88 1.252 . S
C108 O91 1.268 . S
C108 C101 1.506 . S
C109 C76 1.439 . S
C109 H86 0.931 . S
C109 C110 1.374 . S
C110 C81 1.387 . S
C110 H87 0.931 . S
C110 C109 1.374 . S
C111 O95 1.249 . S
C111 O96 1.264 . S
C112 C115 1.382 . S
C112 C116 1.390 . S
C112 C119 1.506 . S
C113 C114 1.398 . S
C113 C116 1.392 . S
C114 C113 1.398 . S
C114 C117 1.372 . S
C114 H124 0.931 . S
C115 C112 1.382 . S
C115 C117 1.390 . S
C115 H125 0.931 . S
C116 C112 1.390 . S
C116 C113 1.392 . S
C116 H126 0.930 . S
C117 C114 1.372 . S
C117 C115 1.390 . S
C117 H127 0.929 . S
C118 O98 1.255 . S
C118 O99 1.257 . S
C119 Eu55 2.787 . S
C119 O94 1.252 . S
C119 O97 1.268 . S
C119 C112 1.506 . S
H120 C103 0.931 . S
H121 C104 0.931 . S
H122 C105 0.929 . S
H123 C106 0.930 . S
H124 C114 0.931 . S
H125 C115 0.931 . S
H126 C116 0.930 . S
H127 C117 0.929 . S
Eu128 N157 2.600 1_556 S
Eu128 N163 2.562 1_556 S
Eu128 O172 2.462 . S
Eu128 O173 2.373 1_556 S
Eu128 O175 2.432 . S
Eu128 O176 2.291 1_556 S
Eu128 O180 2.335 . S
Eu128 O183 2.372 1_556 S
Eu128 C192 2.787 . S
C129 N130 1.365 . S
C129 C132 1.405 . S
C129 C136 1.448 . S
N130 C129 1.365 . S
N130 C133 1.319 . S
N130 Eu139 2.600 . S
C131 C133 1.397 . S
C131 C134 1.367 . S
C131 H151 0.931 . S
C132 C129 1.405 . S
C132 C134 1.403 . S
C132 C138 1.439 . S
C133 N130 1.319 . S
C133 C131 1.397 . S
C133 H144 0.930 . S
C134 C131 1.367 . S
C134 C132 1.403 . S
C134 H155 0.929 . S
C135 C136 1.430 . S
C135 C137 1.387 . S
C135 C141 1.404 . S
C136 C129 1.448 . S
C136 C135 1.430 . S
C136 N140 1.351 . S
C137 C135 1.387 . S
C137 C138 1.374 . S
C137 H152 0.931 . S
C138 C132 1.439 . S
C138 C137 1.374 . S
C138 H153 0.931 . S
Eu139 N130 2.600 . S
Eu139 N140 2.562 . S
Eu139 O174 2.335 . S
Eu139 O177 2.372 . S
Eu139 O178 2.462 . S
Eu139 O179 2.373 . S
Eu139 O181 2.432 . S
Eu139 O182 2.291 . S
Eu139 C203 2.787 . S
N140 C136 1.351 . S
N140 Eu139 2.562 . S
N140 C142 1.325 . S
C141 C135 1.404 . S
C141 C143 1.366 . S
C141 H149 0.930 . S
C142 N140 1.325 . S
C142 C143 1.416 . S
C142 H148 0.929 . S
C143 C141 1.366 . S
C143 C142 1.416 . S
C143 H145 0.930 . S
H144 C133 0.930 . S
H145 C143 0.930 . S
H146 C161 0.930 . S
H147 C168 0.930 . S
H148 C142 0.929 . S
H149 C141 0.930 . S
H150 C164 0.929 . S
H151 C131 0.931 . S
H152 C137 0.931 . S
H153 C138 0.931 . S
H154 C159 0.931 . S
H155 C134 0.929 . S
H156 C167 0.930 . S
N157 Eu128 2.600 1_554 S
N157 C158 1.365 . S
N157 C161 1.319 1_554 S
C158 N157 1.365 . S
C158 C160 1.405 . S
C158 C166 1.448 . S
C159 H154 0.931 . S
C159 C161 1.397 . S
C159 C162 1.367 1_556 S
C160 C158 1.405 . S
C160 C162 1.403 . S
C160 C193 1.439 . S
C161 H146 0.930 . S
C161 N157 1.319 1_556 S
C161 C159 1.397 . S
C162 C159 1.367 1_554 S
C162 C160 1.403 . S
C162 H169 0.929 . S
N163 Eu128 2.562 1_554 S
N163 C164 1.325 . S
N163 C166 1.351 . S
C164 H150 0.929 . S
C164 N163 1.325 . S
C164 C168 1.416 . S
C165 C166 1.430 . S
C165 C167 1.404 . S
C165 C194 1.387 . S
C166 C158 1.448 . S
C166 N163 1.351 . S
C166 C165 1.430 . S
C167 H156 0.930 . S
C167 C165 1.404 . S
C167 C168 1.366 . S
C168 H147 0.930 . S
C168 C164 1.416 . S
C168 C167 1.366 . S
H169 C162 0.929 . S
H170 C193 0.931 . S
H171 C194 0.931 . S
O172 Eu128 2.462 . S
O172 C192 1.252 . S
O173 Eu128 2.373 1_554 S
O173 C184 1.249 . S
O174 Eu139 2.335 . S
O174 C184 1.264 . S
O175 Eu128 2.432 . S
O175 C192 1.268 . S
O176 Eu128 2.291 1_554 S
O176 C191 1.255 . S
O177 Eu139 2.372 . S
O177 C191 1.257 . S
O178 Eu139 2.462 . S
O178 C203 1.252 . S
O179 Eu139 2.373 . S
O179 C195 1.249 1_554 S
O180 Eu128 2.335 . S
O180 C195 1.264 . S
O181 Eu139 2.432 . S
O181 C203 1.268 . S
O182 Eu139 2.291 . S
O182 C202 1.255 . S
O183 Eu128 2.372 1_554 S
O183 C202 1.257 . S
C184 O173 1.249 . S
C184 O174 1.264 . S
C185 C188 1.382 . S
C185 C190 1.390 . S
C185 C192 1.506 . S
C186 C187 1.398 . S
C186 C190 1.392 . S
C187 C186 1.398 . S
C187 C189 1.372 . S
C187 H204 0.931 . S
C188 C185 1.382 . S
C188 C189 1.390 . S
C188 H205 0.931 . S
C189 C187 1.372 . S
C189 C188 1.390 . S
C189 H206 0.929 . S
C190 C185 1.390 . S
C190 C186 1.392 . S
C190 H207 0.930 . S
C191 O176 1.255 . S
C191 O177 1.257 . S
C192 Eu128 2.787 . S
C192 O172 1.252 . S
C192 O175 1.268 . S
C192 C185 1.506 . S
C193 C160 1.439 . S
C193 H170 0.931 . S
C193 C194 1.374 . S
C194 C165 1.387 . S
C194 H171 0.931 . S
C194 C193 1.374 . S
C195 O179 1.249 1_556 S
C195 O180 1.264 . S
C196 C199 1.382 . S
C196 C200 1.390 . S
C196 C203 1.506 . S
C197 C198 1.398 . S
C197 C200 1.392 . S
C198 C197 1.398 . S
C198 C201 1.372 . S
C198 H208 0.931 . S
C199 C196 1.382 . S
C199 C201 1.390 . S
C199 H209 0.931 . S
C200 C196 1.390 . S
C200 C197 1.392 . S
C200 H210 0.930 . S
C201 C198 1.372 . S
C201 C199 1.390 . S
C201 H211 0.929 . S
C202 O182 1.255 . S
C202 O183 1.257 . S
C203 Eu139 2.787 . S
C203 O178 1.252 . S
C203 O181 1.268 . S
C203 C196 1.506 . S
H204 C187 0.931 . S
H205 C188 0.931 . S
H206 C189 0.929 . S
H207 C190 0.930 . S
H208 C198 0.931 . S
H209 C199 0.931 . S
H210 C200 0.930 . S
H211 C201 0.929 . S
H212 C230 0.951 . S
H213 C232 0.951 . S
H214 C234 0.950 . S
H215 C235 0.950 . S
H216 C237 0.950 . S
H217 C240 0.950 . S
H218 C241 0.950 . S
H219 C243 0.950 . S
H220 C244 0.950 . S
H221 C245 0.951 . S
H222 C247 0.951 . S
H223 C249 0.950 . S
H224 C250 0.950 . S
H225 C252 0.950 . S
H226 C255 0.950 . S
H227 C256 0.950 . S
H228 C258 0.950 . S
H229 C259 0.950 . S
C230 H212 0.951 . S
C230 C231 1.366 . S
C230 C232 1.388 . S
C231 C230 1.366 . S
C231 C235 1.385 . S
C232 H213 0.951 . S
C232 C230 1.388 . S
C232 C233 1.366 . S
C233 C232 1.366 . S
C233 C234 1.414 . S
C233 C236 1.499 . S
C234 H214 0.950 . S
C234 C233 1.414 . S
C234 C235 1.374 . S
C235 H215 0.950 . S
C235 C231 1.385 . S
C235 C234 1.374 . S
C236 C233 1.499 . S
C236 C237 1.373 . S
C236 C238 1.389 . S
C237 H216 0.950 . S
C237 C236 1.373 . S
C237 C253 1.377 . S
C238 C236 1.389 . S
C238 C239 1.524 . S
C238 C252 1.377 . S
C239 C238 1.524 . S
C239 C240 1.397 . S
C239 C244 1.363 . S
C240 H217 0.950 . S
C240 C239 1.397 . S
C240 C241 1.334 . S
C241 H218 0.950 . S
C241 C240 1.334 . S
C241 C242 1.287 . S
C242 C241 1.287 . S
C242 C243 1.524 . S
C242 H261 0.913 . S
C243 H219 0.950 . S
C243 C242 1.524 . S
C243 C244 1.415 . S
C244 H220 0.950 . S
C244 C239 1.363 . S
C244 C243 1.415 . S
C245 H221 0.951 . S
C245 C246 1.366 . S
C245 C247 1.388 . S
C246 C245 1.366 . S
C246 C250 1.385 . S
C247 H222 0.951 . S
C247 C245 1.388 . S
C247 C248 1.366 . S
C248 C247 1.366 . S
C248 C249 1.414 . S
C248 C251 1.499 . S
C249 H223 0.950 . S
C249 C248 1.414 . S
C249 C250 1.374 . S
C250 H224 0.950 . S
C250 C246 1.385 . S
C250 C249 1.374 . S
C251 C248 1.499 . S
C251 C252 1.373 . S
C251 C253 1.389 . S
C252 H225 0.950 . S
C252 C238 1.377 . S
C252 C251 1.373 . S
C253 C237 1.377 . S
C253 C251 1.389 . S
C253 C254 1.524 . S
C254 C253 1.524 . S
C254 C255 1.397 . S
C254 C259 1.363 . S
C255 H226 0.950 . S
C255 C254 1.397 . S
C255 C256 1.334 . S
C256 H227 0.950 . S
C256 C255 1.334 . S
C256 C257 1.287 . S
C257 C256 1.287 . S
C257 C258 1.524 . S
C257 H260 0.999 . S
C258 H228 0.950 . S
C258 C257 1.524 . S
C258 C259 1.415 . S
C259 H229 0.950 . S
C259 C254 1.363 . S
C259 C258 1.415 . S
H260 C257 0.999 . S
H261 C242 0.913 . S
H262 C280 0.951 . S
H263 C282 0.951 . S
H264 C284 0.950 . S
H265 C285 0.950 . S
H266 C287 0.950 . S
H267 C290 0.950 . S
H268 C291 0.950 . S
H269 C293 0.950 . S
H270 C294 0.950 . S
H271 C295 0.951 . S
H272 C297 0.951 . S
H273 C299 0.950 . S
H274 C300 0.950 . S
H275 C302 0.950 . S
H276 C305 0.950 . S
H277 C306 0.950 . S
H278 C308 0.950 . S
H279 C309 0.963 . S
C280 H262 0.951 . S
C280 C281 1.366 . S
C280 C282 1.388 . S
C281 C280 1.366 . S
C281 C285 1.385 . S
C282 H263 0.951 . S
C282 C280 1.388 . S
C282 C283 1.366 . S
C283 C282 1.366 . S
C283 C284 1.414 . S
C283 C286 1.499 . S
C284 H264 0.950 . S
C284 C283 1.414 . S
C284 C285 1.374 . S
C285 H265 0.950 . S
C285 C281 1.385 . S
C285 C284 1.374 . S
C286 C283 1.499 . S
C286 C287 1.373 . S
C286 C288 1.389 . S
C287 H266 0.950 . S
C287 C286 1.373 . S
C287 C303 1.377 . S
C288 C286 1.389 . S
C288 C289 1.524 . S
C288 C302 1.377 . S
C289 C288 1.524 . S
C289 C290 1.397 . S
C289 C294 1.363 . S
C290 H267 0.950 . S
C290 C289 1.397 . S
C290 C291 1.334 . S
C291 H268 0.950 . S
C291 C290 1.334 . S
C291 C292 1.287 . S
C292 C291 1.287 . S
C292 C293 1.524 . S
C292 H311 0.913 . S
C293 H269 0.950 . S
C293 C292 1.524 . S
C293 C294 1.415 . S
C294 H270 0.950 . S
C294 C289 1.363 . S
C294 C293 1.415 . S
C295 H271 0.951 . S
C295 C296 1.366 . S
C295 C297 1.388 . S
C296 C295 1.366 . S
C296 C300 1.385 . S
C297 H272 0.951 . S
C297 C295 1.388 . S
C297 C298 1.366 . S
C298 C297 1.366 . S
C298 C299 1.414 . S
C298 C301 1.499 . S
C299 H273 0.950 . S
C299 C298 1.414 . S
C299 C300 1.374 . S
C300 H274 0.950 . S
C300 C296 1.385 . S
C300 C299 1.374 . S
C301 C298 1.499 . S
C301 C302 1.373 . S
C301 C303 1.389 . S
C302 H275 0.950 . S
C302 C288 1.377 . S
C302 C301 1.373 . S
C303 C287 1.377 . S
C303 C301 1.389 . S
C303 C304 1.524 1_554 S
C304 C303 1.524 1_556 S
C304 C305 1.397 . S
C304 C309 1.363 . S
C305 H276 0.950 . S
C305 C304 1.397 . S
C305 C306 1.334 . S
C306 H277 0.950 . S
C306 C305 1.334 . S
C306 C307 1.287 . S
C307 C306 1.287 . S
C307 C308 1.524 . S
C307 H310 0.999 . S
C308 H278 0.950 . S
C308 C307 1.524 . S
C308 C309 1.415 . S
C309 H279 0.963 . S
C309 C304 1.363 . S
C309 C308 1.415 . S
H310 C307 0.999 . S
H311 C292 0.913 . S
H312 C330 0.951 . S
H313 C332 0.951 . S
H314 C334 0.950 . S
H315 C335 0.950 . S
H316 C337 0.950 . S
H317 C340 0.950 . S
H318 C341 0.950 . S
H319 C343 0.950 . S
H320 C344 0.950 . S
H321 C345 0.951 . S
H322 C347 0.951 . S
H323 C349 0.950 . S
H324 C350 0.950 . S
H325 C352 0.950 . S
H326 C355 0.950 . S
H327 C356 0.950 . S
H328 C358 0.950 . S
H329 C359 0.950 . S
C330 H312 0.951 . S
C330 C331 1.366 . S
C330 C332 1.388 . S
C331 C330 1.366 . S
C331 C335 1.385 . S
C332 H313 0.951 . S
C332 C330 1.388 . S
C332 C333 1.366 . S
C333 C332 1.366 . S
C333 C334 1.414 . S
C333 C336 1.499 . S
C334 H314 0.950 . S
C334 C333 1.414 . S
C334 C335 1.374 . S
C335 H315 0.950 . S
C335 C331 1.385 . S
C335 C334 1.374 . S
C336 C333 1.499 . S
C336 C337 1.373 . S
C336 C338 1.389 . S
C337 H316 0.950 . S
C337 C336 1.373 . S
C337 C353 1.377 . S
C338 C336 1.389 . S
C338 C339 1.524 . S
C338 C352 1.377 . S
C339 C338 1.524 . S
C339 C340 1.397 . S
C339 C344 1.363 . S
C340 H317 0.950 . S
C340 C339 1.397 . S
C340 C341 1.334 . S
C341 H318 0.950 . S
C341 C340 1.334 . S
C341 C342 1.287 . S
C342 C341 1.287 . S
C342 C343 1.524 . S
C342 H361 0.913 . S
C343 H319 0.950 . S
C343 C342 1.524 . S
C343 C344 1.415 . S
C344 H320 0.950 . S
C344 C339 1.363 . S
C344 C343 1.415 . S
C345 H321 0.951 . S
C345 C346 1.366 . S
C345 C347 1.388 . S
C346 C345 1.366 . S
C346 C350 1.385 . S
C347 H322 0.951 . S
C347 C345 1.388 . S
C347 C348 1.366 . S
C348 C347 1.366 . S
C348 C349 1.414 . S
C348 C351 1.499 . S
C349 H323 0.950 . S
C349 C348 1.414 . S
C349 C350 1.374 . S
C350 H324 0.950 . S
C350 C346 1.385 . S
C350 C349 1.374 . S
C351 C348 1.499 . S
C351 C352 1.373 . S
C351 C353 1.389 . S
C352 H325 0.950 . S
C352 C338 1.377 . S
C352 C351 1.373 . S
C353 C337 1.377 . S
C353 C351 1.389 . S
C353 C354 1.524 . S
C354 C353 1.524 . S
C354 C355 1.397 . S
C354 C359 1.363 . S
C355 H326 0.950 . S
C355 C354 1.397 . S
C355 C356 1.334 . S
C356 H327 0.950 . S
C356 C355 1.334 . S
C356 C357 1.287 . S
C357 C356 1.287 . S
C357 C358 1.524 . S
C357 H360 0.999 . S
C358 H328 0.950 . S
C358 C357 1.524 . S
C358 C359 1.415 . S
C359 H329 0.950 . S
C359 C354 1.363 . S
C359 C358 1.415 . S
H360 C357 0.999 . S
H361 C342 0.913 . S
H362 C380 0.951 . S
H363 C382 0.951 . S
H364 C384 0.950 . S
H365 C385 0.950 . S
H366 C387 0.950 . S
H367 C390 0.950 . S
H368 C391 0.950 . S
H369 C393 0.950 . S
H370 C394 0.950 . S
H371 C395 0.951 . S
H372 C397 0.951 . S
H373 C399 0.950 . S
H374 C400 0.940 1_556 S
H375 C402 0.950 . S
H376 C405 0.950 1_556 S
H377 C406 0.952 1_556 S
H378 C408 0.950 . S
H379 C409 0.950 . S
C380 H362 0.951 . S
C380 C381 1.366 1_556 S
C380 C382 1.388 . S
C381 C380 1.366 1_554 S
C381 C385 1.385 . S
C382 H363 0.951 . S
C382 C380 1.388 . S
C382 C383 1.366 1_556 S
C383 C382 1.366 1_554 S
C383 C384 1.414 . S
C383 C386 1.499 . S
C384 H364 0.950 . S
C384 C383 1.414 . S
C384 C385 1.374 . S
C385 H365 0.950 . S
C385 C381 1.385 . S
C385 C384 1.374 . S
C386 C383 1.499 . S
C386 C387 1.373 . S
C386 C388 1.389 . S
C387 H366 0.950 . S
C387 C386 1.373 . S
C387 C403 1.377 . S
C388 C386 1.389 . S
C388 C389 1.524 . S
C388 C402 1.377 . S
C389 C388 1.524 . S
C389 C390 1.397 . S
C389 C394 1.363 1_554 S
C390 H367 0.950 . S
C390 C389 1.397 . S
C390 C391 1.334 . S
C391 H368 0.950 . S
C391 C390 1.334 . S
C391 C392 1.287 . S
C392 C391 1.287 . S
C392 C393 1.524 1_554 S
C392 H411 0.913 . S
C393 H369 0.950 . S
C393 C392 1.524 1_556 S
C393 C394 1.415 . S
C394 H370 0.950 . S
C394 C389 1.363 1_556 S
C394 C393 1.415 . S
C395 H371 0.951 . S
C395 C396 1.366 . S
C395 C397 1.388 . S
C396 C395 1.366 . S
C396 C400 1.399 . S
C397 H372 0.951 . S
C397 C395 1.388 . S
C397 C398 1.366 . S
C398 C397 1.366 . S
C398 C399 1.414 1_554 S
C398 C401 1.499 . S
C399 H373 0.950 . S
C399 C398 1.414 1_556 S
C399 C400 1.369 1_556 S
C400 H374 0.940 1_554 S
C400 C396 1.399 . S
C400 C399 1.369 1_554 S
C401 C398 1.499 . S
C401 C402 1.373 . S
C401 C403 1.389 . S
C402 H375 0.950 . S
C402 C388 1.377 . S
C402 C401 1.373 . S
C403 C387 1.377 . S
C403 C401 1.389 . S
C403 C404 1.524 . S
C404 C403 1.524 . S
C404 C405 1.397 . S
C404 C409 1.363 . S
C405 H376 0.950 1_554 S
C405 C404 1.397 . S
C405 C406 1.334 . S
C406 H377 0.952 1_554 S
C406 C405 1.334 . S
C406 C407 1.285 . S
C407 C406 1.285 . S
C407 C408 1.524 . S
C407 H410 0.999 . S
C408 H378 0.950 . S
C408 C407 1.524 . S
C408 C409 1.415 . S
C409 H379 0.950 . S
C409 C404 1.363 . S
C409 C408 1.415 . S
H410 C407 0.999 . S
H411 C392 0.913 . S
H412 C430 0.951 . S
H413 C432 0.951 . S
H414 C434 0.950 . S
H415 C435 0.950 . S
H416 C437 0.950 . S
H417 C440 0.950 . S
H418 C441 0.950 . S
H419 C443 0.950 . S
H420 C444 0.950 . S
H421 C445 0.951 . S
H422 C447 0.951 . S
H423 C449 0.950 . S
H424 C450 0.950 . S
H425 C452 0.950 . S
H426 C455 0.950 . S
H427 C456 0.950 . S
H428 C458 0.950 . S
H429 C459 0.950 . S
C430 H412 0.951 . S
C430 C431 1.366 . S
C430 C432 1.388 . S
C431 C430 1.366 . S
C431 C435 1.385 . S
C432 H413 0.951 . S
C432 C430 1.388 . S
C432 C433 1.366 . S
C433 C432 1.366 . S
C433 C434 1.414 . S
C433 C436 1.499 . S
C434 H414 0.950 . S
C434 C433 1.414 . S
C434 C435 1.374 . S
C435 H415 0.950 . S
C435 C431 1.385 . S
C435 C434 1.374 . S
C436 C433 1.499 . S
C436 C437 1.373 . S
C436 C438 1.389 . S
C437 H416 0.950 . S
C437 C436 1.373 . S
C437 C453 1.377 . S
C438 C436 1.389 . S
C438 C439 1.524 . S
C438 C452 1.377 . S
C439 C438 1.524 . S
C439 C440 1.397 . S
C439 C444 1.363 . S
C440 H417 0.950 . S
C440 C439 1.397 . S
C440 C441 1.334 . S
C441 H418 0.950 . S
C441 C440 1.334 . S
C441 C442 1.287 . S
C442 C441 1.287 . S
C442 C443 1.524 . S
C442 H461 0.913 . S
C443 H419 0.950 . S
C443 C442 1.524 . S
C443 C444 1.415 . S
C444 H420 0.950 . S
C444 C439 1.363 . S
C444 C443 1.415 . S
C445 H421 0.951 . S
C445 C446 1.366 . S
C445 C447 1.388 . S
C446 C445 1.366 . S
C446 C450 1.385 . S
C447 H422 0.951 . S
C447 C445 1.388 . S
C447 C448 1.366 . S
C448 C447 1.366 . S
C448 C449 1.414 . S
C448 C451 1.499 . S
C449 H423 0.950 . S
C449 C448 1.414 . S
C449 C450 1.374 . S
C450 H424 0.950 . S
C450 C446 1.385 . S
C450 C449 1.374 . S
C451 C448 1.499 . S
C451 C452 1.373 . S
C451 C453 1.389 . S
C452 H425 0.950 . S
C452 C438 1.377 . S
C452 C451 1.373 . S
C453 C437 1.377 . S
C453 C451 1.389 . S
C453 C454 1.524 . S
C454 C453 1.524 . S
C454 C455 1.397 . S
C454 C459 1.363 . S
C455 H426 0.950 . S
C455 C454 1.397 . S
C455 C456 1.334 . S
C456 H427 0.950 . S
C456 C455 1.334 . S
C456 C457 1.287 . S
C457 C456 1.287 . S
C457 C458 1.524 . S
C457 H460 0.999 . S
C458 H428 0.950 . S
C458 C457 1.524 . S
C458 C459 1.415 . S
C459 H429 0.950 . S
C459 C454 1.363 . S
C459 C458 1.415 . S
H460 C457 0.999 . S
H461 C442 0.913 . S
H462 C480 0.951 . S
H463 C482 0.951 . S
H464 C484 0.950 . S
H465 C485 0.950 . S
H466 C487 0.950 . S
H467 C490 0.950 . S
H468 C491 0.950 . S
H469 C493 0.950 . S
H470 C494 0.950 . S
H471 C495 0.951 . S
H472 C497 0.951 . S
H473 C499 0.950 . S
H474 C500 0.950 . S
H475 C502 0.950 . S
H476 C505 0.950 . S
H477 C506 0.950 . S
H478 C508 0.950 . S
H479 C509 0.950 . S
C480 H462 0.951 . S
C480 C481 1.366 . S
C480 C482 1.388 . S
C481 C480 1.366 . S
C481 C485 1.385 . S
C482 H463 0.951 . S
C482 C480 1.388 . S
C482 C483 1.366 . S
C483 C482 1.366 . S
C483 C484 1.414 . S
C483 C486 1.499 . S
C484 H464 0.950 . S
C484 C483 1.414 . S
C484 C485 1.374 . S
C485 H465 0.950 . S
C485 C481 1.385 . S
C485 C484 1.374 . S
C486 C483 1.499 . S
C486 C487 1.373 . S
C486 C488 1.389 . S
C487 H466 0.950 . S
C487 C486 1.373 . S
C487 C503 1.377 . S
C488 C486 1.389 . S
C488 C489 1.524 . S
C488 C502 1.377 . S
C489 C488 1.524 . S
C489 C490 1.397 . S
C489 C494 1.363 . S
C490 H467 0.950 . S
C490 C489 1.397 . S
C490 C491 1.334 . S
C491 H468 0.950 . S
C491 C490 1.334 . S
C491 C492 1.287 . S
C492 C491 1.287 . S
C492 C493 1.524 . S
C492 H511 0.913 . S
C493 H469 0.950 . S
C493 C492 1.524 . S
C493 C494 1.415 . S
C494 H470 0.950 . S
C494 C489 1.363 . S
C494 C493 1.415 . S
C495 H471 0.951 . S
C495 C496 1.366 . S
C495 C497 1.388 . S
C496 C495 1.366 . S
C496 C500 1.385 . S
C497 H472 0.951 . S
C497 C495 1.388 . S
C497 C498 1.366 . S
C498 C497 1.366 . S
C498 C499 1.414 . S
C498 C501 1.499 . S
C499 H473 0.950 . S
C499 C498 1.414 . S
C499 C500 1.374 . S
C500 H474 0.950 . S
C500 C496 1.385 . S
C500 C499 1.374 . S
C501 C498 1.499 . S
C501 C502 1.373 . S
C501 C503 1.389 . S
C502 H475 0.950 . S
C502 C488 1.377 . S
C502 C501 1.373 . S
C503 C487 1.377 . S
C503 C501 1.389 . S
C503 C504 1.524 . S
C504 C503 1.524 . S
C504 C505 1.397 . S
C504 C509 1.363 . S
C505 H476 0.950 . S
C505 C504 1.397 . S
C505 C506 1.334 . S
C506 H477 0.950 . S
C506 C505 1.334 . S
C506 C507 1.287 . S
C507 C506 1.287 . S
C507 C508 1.524 . S
C507 H510 0.999 . S
C508 H478 0.950 . S
C508 C507 1.524 . S
C508 C509 1.415 . S
C509 H479 0.950 . S
C509 C504 1.363 . S
C509 C508 1.415 . S
H510 C507 0.999 . S
H511 C492 0.913 . S
H512 C530 0.951 . S
H513 C532 0.951 . S
H514 C534 0.950 . S
H515 C535 0.950 . S
H516 C537 0.950 . S
H517 C540 0.950 . S
H518 C541 0.950 . S
H519 C543 0.950 . S
H520 C544 0.950 . S
H521 C545 0.951 . S
H522 C547 0.951 . S
H523 C549 0.950 . S
H524 C550 0.950 . S
H525 C552 0.950 . S
H526 C555 0.950 . S
H527 C556 0.950 . S
H528 C558 0.950 . S
H529 C559 0.950 . S
C530 H512 0.951 . S
C530 C531 1.366 . S
C530 C532 1.388 . S
C531 C530 1.366 . S
C531 C535 1.385 . S
C532 H513 0.951 . S
C532 C530 1.388 . S
C532 C533 1.366 . S
C533 C532 1.366 . S
C533 C534 1.414 . S
C533 C536 1.499 . S
C534 H514 0.950 . S
C534 C533 1.414 . S
C534 C535 1.374 . S
C535 H515 0.950 . S
C535 C531 1.385 . S
C535 C534 1.374 . S
C536 C533 1.499 . S
C536 C537 1.373 . S
C536 C538 1.389 . S
C537 H516 0.950 . S
C537 C536 1.373 . S
C537 C553 1.377 . S
C538 C536 1.389 . S
C538 C539 1.524 . S
C538 C552 1.377 . S
C539 C538 1.524 . S
C539 C540 1.397 . S
C539 C544 1.363 . S
C540 H517 0.950 . S
C540 C539 1.397 . S
C540 C541 1.334 . S
C541 H518 0.950 . S
C541 C540 1.334 . S
C541 C542 1.287 . S
C542 C541 1.287 . S
C542 C543 1.524 . S
C542 H561 0.913 . S
C543 H519 0.950 . S
C543 C542 1.524 . S
C543 C544 1.415 . S
C544 H520 0.950 . S
C544 C539 1.363 . S
C544 C543 1.415 . S
C545 H521 0.951 . S
C545 C546 1.366 . S
C545 C547 1.388 . S
C546 C545 1.366 . S
C546 C550 1.385 . S
C547 H522 0.951 . S
C547 C545 1.388 . S
C547 C548 1.366 . S
C548 C547 1.366 . S
C548 C549 1.414 . S
C548 C551 1.499 . S
C549 H523 0.950 . S
C549 C548 1.414 . S
C549 C550 1.374 . S
C550 H524 0.950 . S
C550 C546 1.385 . S
C550 C549 1.374 . S
C551 C548 1.499 . S
C551 C552 1.373 . S
C551 C553 1.389 . S
C552 H525 0.950 . S
C552 C538 1.377 . S
C552 C551 1.373 . S
C553 C537 1.377 . S
C553 C551 1.389 . S
C553 C554 1.524 . S
C554 C553 1.524 . S
C554 C555 1.397 . S
C554 C559 1.363 . S
C555 H526 0.950 . S
C555 C554 1.397 . S
C555 C556 1.334 . S
C556 H527 0.950 . S
C556 C555 1.334 . S
C556 C557 1.287 . S
C557 C556 1.287 . S
C557 C558 1.524 . S
C557 H560 0.999 . S
C558 H528 0.950 . S
C558 C557 1.524 . S
C558 C559 1.415 . S
C559 H529 0.950 . S
C559 C554 1.363 . S
C559 C558 1.415 . S
H560 C557 0.999 . S
H561 C542 0.913 . S
H562 C580 0.951 . S
H563 C582 0.951 . S
H564 C584 0.950 . S
H565 C585 0.950 . S
H566 C587 0.950 . S
H567 C590 0.950 . S
H568 C591 0.950 . S
H569 C593 0.950 . S
H570 C594 0.950 . S
H571 C595 0.951 . S
H572 C597 0.951 . S
H573 C599 0.950 . S
H574 C600 0.950 . S
H575 C602 0.950 . S
H576 C605 0.950 . S
H577 C606 0.950 . S
H578 C608 0.950 . S
H579 C609 0.950 . S
C580 H562 0.951 . S
C580 C581 1.366 . S
C580 C582 1.388 . S
C581 C580 1.366 . S
C581 C585 1.385 . S
C582 H563 0.951 . S
C582 C580 1.388 . S
C582 C583 1.366 . S
C583 C582 1.366 . S
C583 C584 1.414 . S
C583 C586 1.499 . S
C584 H564 0.950 . S
C584 C583 1.414 . S
C584 C585 1.374 . S
C585 H565 0.950 . S
C585 C581 1.385 . S
C585 C584 1.374 . S
C586 C583 1.499 . S
C586 C587 1.373 . S
C586 C588 1.389 . S
C587 H566 0.950 . S
C587 C586 1.373 . S
C587 C603 1.377 . S
C588 C586 1.389 . S
C588 C589 1.524 . S
C588 C602 1.377 . S
C589 C588 1.524 . S
C589 C590 1.397 . S
C589 C594 1.363 . S
C590 H567 0.950 . S
C590 C589 1.397 . S
C590 C591 1.334 . S
C591 H568 0.950 . S
C591 C590 1.334 . S
C591 C592 1.287 . S
C592 C591 1.287 . S
C592 C593 1.524 . S
C592 H611 0.913 . S
C593 H569 0.950 . S
C593 C592 1.524 . S
C593 C594 1.415 . S
C594 H570 0.950 . S
C594 C589 1.363 . S
C594 C593 1.415 . S
C595 H571 0.951 . S
C595 C596 1.366 . S
C595 C597 1.388 . S
C596 C595 1.366 . S
C596 C600 1.385 . S
C597 H572 0.951 . S
C597 C595 1.388 . S
C597 C598 1.366 . S
C598 C597 1.366 . S
C598 C599 1.414 . S
C598 C601 1.499 . S
C599 H573 0.950 . S
C599 C598 1.414 . S
C599 C600 1.374 . S
C600 H574 0.950 . S
C600 C596 1.385 . S
C600 C599 1.374 . S
C601 C598 1.499 . S
C601 C602 1.373 . S
C601 C603 1.389 . S
C602 H575 0.950 . S
C602 C588 1.377 . S
C602 C601 1.373 . S
C603 C587 1.377 . S
C603 C601 1.389 . S
C603 C604 1.524 . S
C604 C603 1.524 . S
C604 C605 1.397 . S
C604 C609 1.363 . S
C605 H576 0.950 . S
C605 C604 1.397 . S
C605 C606 1.334 . S
C606 H577 0.950 . S
C606 C605 1.334 . S
C606 C607 1.287 . S
C607 C606 1.287 . S
C607 C608 1.524 . S
C607 H610 0.999 . S
C608 H578 0.950 . S
C608 C607 1.524 . S
C608 C609 1.415 . S
C609 H579 0.950 . S
C609 C604 1.363 . S
C609 C608 1.415 . S
H610 C607 0.999 . S
H611 C592 0.913 . S
H612 C630 0.951 . S
H613 C632 0.951 . S
H614 C634 0.950 . S
H615 C635 0.950 . S
H616 C637 0.950 . S
H617 C640 0.950 . S
H618 C641 0.950 . S
H619 C643 0.950 . S
H620 C644 0.950 . S
H621 C645 0.951 . S
H622 C647 0.951 . S
H623 C649 0.950 . S
H624 C650 0.950 . S
H625 C652 0.950 . S
H626 C655 0.950 . S
H627 C656 0.950 . S
H628 C658 0.950 . S
H629 C659 0.950 . S
C630 H612 0.951 . S
C630 C631 1.366 . S
C630 C632 1.388 . S
C631 C630 1.366 . S
C631 C635 1.385 . S
C632 H613 0.951 . S
C632 C630 1.388 . S
C632 C633 1.366 . S
C633 C632 1.366 . S
C633 C634 1.414 . S
C633 C636 1.499 . S
C634 H614 0.950 . S
C634 C633 1.414 . S
C634 C635 1.374 . S
C635 H615 0.950 . S
C635 C631 1.385 . S
C635 C634 1.374 . S
C636 C633 1.499 . S
C636 C637 1.373 . S
C636 C638 1.389 . S
C637 H616 0.950 . S
C637 C636 1.373 . S
C637 C653 1.377 . S
C638 C636 1.389 . S
C638 C639 1.524 . S
C638 C652 1.377 . S
C639 C638 1.524 . S
C639 C640 1.397 . S
C639 C644 1.363 . S
C640 H617 0.950 . S
C640 C639 1.397 . S
C640 C641 1.334 . S
C641 H618 0.950 . S
C641 C640 1.334 . S
C641 C642 1.287 . S
C642 C641 1.287 . S
C642 C643 1.524 . S
C642 H661 0.913 . S
C643 H619 0.950 . S
C643 C642 1.524 . S
C643 C644 1.415 . S
C644 H620 0.950 . S
C644 C639 1.363 . S
C644 C643 1.415 . S
C645 H621 0.951 . S
C645 C646 1.366 . S
C645 C647 1.388 . S
C646 C645 1.366 . S
C646 C650 1.385 . S
C647 H622 0.951 . S
C647 C645 1.388 . S
C647 C648 1.366 . S
C648 C647 1.366 . S
C648 C649 1.414 . S
C648 C651 1.499 . S
C649 H623 0.950 . S
C649 C648 1.414 . S
C649 C650 1.374 . S
C650 H624 0.950 . S
C650 C646 1.385 . S
C650 C649 1.374 . S
C651 C648 1.499 . S
C651 C652 1.373 . S
C651 C653 1.389 . S
C652 H625 0.950 . S
C652 C638 1.377 . S
C652 C651 1.373 . S
C653 C637 1.377 . S
C653 C651 1.389 . S
C653 C654 1.524 . S
C654 C653 1.524 . S
C654 C655 1.397 . S
C654 C659 1.363 . S
C655 H626 0.950 . S
C655 C654 1.397 . S
C655 C656 1.334 . S
C656 H627 0.950 . S
C656 C655 1.334 . S
C656 C657 1.287 . S
C657 C656 1.287 . S
C657 C658 1.524 . S
C657 H660 0.999 . S
C658 H628 0.950 . S
C658 C657 1.524 . S
C658 C659 1.415 . S
C659 H629 0.950 . S
C659 C654 1.363 . S
C659 C658 1.415 . S
H660 C657 0.999 . S
H661 C642 0.913 . S
H662 C680 0.951 . S
H663 C682 0.951 . S
H664 C684 0.950 . S
H665 C685 0.950 . S
H666 C687 0.950 . S
H667 C690 0.950 . S
H668 C691 0.950 . S
H669 C693 0.950 . S
H670 C694 0.950 . S
H671 C695 0.951 . S
H672 C697 0.951 . S
H673 C699 0.950 . S
H674 C700 0.950 . S
H675 C702 0.950 . S
H676 C705 0.950 . S
H677 C706 0.950 . S
H678 C708 0.950 . S
H679 C709 0.950 . S
C680 H662 0.951 . S
C680 C681 1.366 . S
C680 C682 1.388 . S
C681 C680 1.366 . S
C681 C685 1.385 . S
C682 H663 0.951 . S
C682 C680 1.388 . S
C682 C683 1.366 . S
C683 C682 1.366 . S
C683 C684 1.414 . S
C683 C686 1.499 . S
C684 H664 0.950 . S
C684 C683 1.414 . S
C684 C685 1.374 . S
C685 H665 0.950 . S
C685 C681 1.385 . S
C685 C684 1.374 . S
C686 C683 1.499 . S
C686 C687 1.373 . S
C686 C688 1.389 . S
C687 H666 0.950 . S
C687 C686 1.373 . S
C687 C703 1.377 . S
C688 C686 1.389 . S
C688 C689 1.524 . S
C688 C702 1.377 . S
C689 C688 1.524 . S
C689 C690 1.397 . S
C689 C694 1.363 . S
C690 H667 0.950 . S
C690 C689 1.397 . S
C690 C691 1.334 . S
C691 H668 0.950 . S
C691 C690 1.334 . S
C691 C692 1.287 . S
C692 C691 1.287 . S
C692 C693 1.524 . S
C692 H711 0.913 . S
C693 H669 0.950 . S
C693 C692 1.524 . S
C693 C694 1.415 . S
C694 H670 0.950 . S
C694 C689 1.363 . S
C694 C693 1.415 . S
C695 H671 0.951 . S
C695 C696 1.366 . S
C695 C697 1.388 . S
C696 C695 1.366 . S
C696 C700 1.385 . S
C697 H672 0.951 . S
C697 C695 1.388 . S
C697 C698 1.366 . S
C698 C697 1.366 . S
C698 C699 1.414 . S
C698 C701 1.499 . S
C699 H673 0.950 . S
C699 C698 1.414 . S
C699 C700 1.374 . S
C700 H674 0.950 . S
C700 C696 1.385 . S
C700 C699 1.374 . S
C701 C698 1.499 . S
C701 C702 1.373 . S
C701 C703 1.389 . S
C702 H675 0.950 . S
C702 C688 1.377 . S
C702 C701 1.373 . S
C703 C687 1.377 . S
C703 C701 1.389 . S
C703 C704 1.524 . S
C704 C703 1.524 . S
C704 C705 1.397 . S
C704 C709 1.363 . S
C705 H676 0.950 . S
C705 C704 1.397 . S
C705 C706 1.334 1_545 S
C706 H677 0.950 . S
C706 C705 1.334 1_565 S
C706 C707 1.287 . S
C707 C706 1.287 . S
C707 C708 1.524 . S
C707 H710 0.999 . S
C708 H678 0.950 . S
C708 C707 1.524 . S
C708 C709 1.415 1_565 S
C709 H679 0.950 . S
C709 C704 1.363 . S
C709 C708 1.415 1_545 S
H710 C707 0.999 . S
H711 C692 0.913 . S
H712 C730 0.951 . S
H713 C732 0.951 . S
H714 C734 0.950 . S
H715 C735 0.950 . S
H716 C737 0.950 . S
H717 C740 0.950 . S
H718 C741 0.950 . S
H719 C743 0.950 . S
H720 C744 0.950 . S
H721 C745 0.951 . S
H722 C747 0.951 . S
H723 C749 0.950 . S
H724 C750 0.950 . S
H725 C752 0.950 . S
H726 C755 0.950 . S
H727 C756 0.950 . S
H728 C758 0.950 . S
H729 C759 0.950 . S
C730 H712 0.951 . S
C730 C731 1.366 . S
C730 C732 1.388 . S
C731 C730 1.366 . S
C731 C735 1.385 . S
C732 H713 0.951 . S
C732 C730 1.388 . S
C732 C733 1.366 . S
C733 C732 1.366 . S
C733 C734 1.414 . S
C733 C736 1.499 . S
C734 H714 0.950 . S
C734 C733 1.414 . S
C734 C735 1.374 . S
C735 H715 0.950 . S
C735 C731 1.385 . S
C735 C734 1.374 . S
C736 C733 1.499 . S
C736 C737 1.373 . S
C736 C738 1.389 . S
C737 H716 0.950 . S
C737 C736 1.373 . S
C737 C753 1.377 . S
C738 C736 1.389 . S
C738 C739 1.524 . S
C738 C752 1.377 . S
C739 C738 1.524 . S
C739 C740 1.397 . S
C739 C744 1.363 . S
C740 H717 0.950 . S
C740 C739 1.397 . S
C740 C741 1.334 . S
C741 H718 0.950 . S
C741 C740 1.334 . S
C741 C742 1.287 . S
C742 C741 1.287 . S
C742 C743 1.524 . S
C742 H761 0.913 . S
C743 H719 0.950 . S
C743 C742 1.524 . S
C743 C744 1.415 . S
C744 H720 0.950 . S
C744 C739 1.363 . S
C744 C743 1.415 . S
C745 H721 0.951 . S
C745 C746 1.366 . S
C745 C747 1.388 . S
C746 C745 1.366 . S
C746 C750 1.385 . S
C747 H722 0.951 . S
C747 C745 1.388 . S
C747 C748 1.366 . S
C748 C747 1.366 . S
C748 C749 1.414 . S
C748 C751 1.499 . S
C749 H723 0.950 . S
C749 C748 1.414 . S
C749 C750 1.374 . S
C750 H724 0.950 . S
C750 C746 1.385 . S
C750 C749 1.374 . S
C751 C748 1.499 . S
C751 C752 1.373 . S
C751 C753 1.389 . S
C752 H725 0.950 . S
C752 C738 1.377 . S
C752 C751 1.373 . S
C753 C737 1.377 . S
C753 C751 1.389 . S
C753 C754 1.524 . S
C754 C753 1.524 . S
C754 C755 1.397 . S
C754 C759 1.363 . S
C755 H726 0.950 . S
C755 C754 1.397 . S
C755 C756 1.334 . S
C756 H727 0.950 . S
C756 C755 1.334 . S
C756 C757 1.287 . S
C757 C756 1.287 . S
C757 C758 1.524 . S
C757 H760 0.999 . S
C758 H728 0.950 . S
C758 C757 1.524 . S
C758 C759 1.415 . S
C759 H729 0.950 . S
C759 C754 1.363 . S
C759 C758 1.415 . S
H760 C757 0.999 . S
H761 C742 0.913 . S
H762 C780 0.951 . S
H763 C782 0.951 . S
H764 C784 0.950 . S
H765 C785 0.950 . S
H766 C787 0.950 . S
H767 C790 0.950 . S
H768 C791 0.950 . S
H769 C793 0.950 . S
H770 C794 0.950 . S
H771 C795 0.951 1_545 S
H772 C797 0.951 . S
H773 C799 0.950 . S
H774 C800 0.950 . S
H775 C802 0.950 . S
H776 C805 0.950 . S
H777 C806 0.970 . S
H778 C808 0.950 . S
H779 C809 0.950 . S
C780 H762 0.951 . S
C780 C781 1.366 . S
C780 C782 1.388 . S
C781 C780 1.366 . S
C781 C785 1.385 . S
C782 H763 0.951 . S
C782 C780 1.388 . S
C782 C783 1.366 . S
C783 C782 1.366 . S
C783 C784 1.414 . S
C783 C786 1.499 . S
C784 H764 0.950 . S
C784 C783 1.414 . S
C784 C785 1.374 . S
C785 H765 0.950 . S
C785 C781 1.385 . S
C785 C784 1.374 . S
C786 C783 1.499 . S
C786 C787 1.373 . S
C786 C788 1.389 . S
C787 H766 0.950 . S
C787 C786 1.373 . S
C787 C803 1.377 . S
C788 C786 1.389 . S
C788 C789 1.524 . S
C788 C802 1.377 . S
C789 C788 1.524 . S
C789 C790 1.397 . S
C789 C794 1.363 . S
C790 H767 0.950 . S
C790 C789 1.397 . S
C790 C791 1.334 . S
C791 H768 0.950 . S
C791 C790 1.334 . S
C791 C792 1.287 . S
C792 C791 1.287 . S
C792 C793 1.524 . S
C792 H811 0.913 . S
C793 H769 0.950 . S
C793 C792 1.524 . S
C793 C794 1.415 . S
C794 H770 0.950 . S
C794 C789 1.363 . S
C794 C793 1.415 . S
C795 H771 0.951 1_565 S
C795 C796 1.366 . S
C795 C797 1.388 . S
C796 C795 1.366 . S
C796 C800 1.385 . S
C797 H772 0.951 . S
C797 C795 1.388 . S
C797 C798 1.366 . S
C798 C797 1.366 . S
C798 C799 1.414 . S
C798 C801 1.499 . S
C799 H773 0.950 . S
C799 C798 1.414 . S
C799 C800 1.374 . S
C800 H774 0.950 . S
C800 C796 1.385 . S
C800 C799 1.374 . S
C801 C798 1.499 . S
C801 C802 1.373 . S
C801 C803 1.389 . S
C802 H775 0.950 . S
C802 C788 1.377 . S
C802 C801 1.373 . S
C803 C787 1.377 . S
C803 C801 1.389 . S
C803 C804 1.524 . S
C804 C803 1.524 . S
C804 C805 1.397 . S
C804 C809 1.363 . S
C805 H776 0.950 . S
C805 C804 1.397 . S
C805 C806 1.334 . S
C806 H777 0.970 . S
C806 C805 1.334 . S
C806 C807 1.287 . S
C807 C806 1.287 . S
C807 C808 1.524 . S
C807 H810 0.999 1_455 S
C808 H778 0.950 . S
C808 C807 1.524 . S
C808 C809 1.415 . S
C809 H779 0.950 . S
C809 C804 1.363 . S
C809 C808 1.415 . S
H810 C807 0.999 1_655 S
H811 C792 0.913 . S
C246 C107 1.675 . S
C231 C43 1.689 . S
C281 C10 1.688 . S
C296 C202 1.669 . S
C331 C21 1.694 . S
C346 C118 1.693 . S
C381 C32 1.662 . S
C396 C191 1.654 . S
C446 C102 1.469 . S
C431 C5 1.632 . S
C496 C195 1.735 . S
C481 C15 1.734 . S
C531 C27 1.656 . S
C546 C111 1.668 . S
C581 C38 1.623 . S
C596 C186 1.459 . S
C646 C197 1.406 . S
C631 C16 1.569 . S
C696 C113 1.405 . S
C681 C26 1.576 . S
C746 C184 1.647 . S
C731 C37 1.640 . S
C781 C4 1.579 . S
C796 C100 1.588 . S
