# Generated by pormake.
# Topology eea, (3,6)-cn, num edge types: 1
# Building blocks:
#     Node 0, Type 0, BuildingBlock: BETDIP_clean_linker_0, # of connection points: 3
#     Node 1, Type 0, BuildingBlock: BETDIP_clean_linker_0, # of connection points: 3
#     Node 2, Type 0, BuildingBlock: BETDIP_clean_linker_0, # of connection points: 3
#     Node 3, Type 0, BuildingBlock: BETDIP_clean_linker_0, # of connection points: 3
#     Node 4, Type 0, BuildingBlock: BETDIP_clean_linker_0, # of connection points: 3
#     Node 5, Type 0, BuildingBlock: BETDIP_clean_linker_0, # of connection points: 3
#     Node 6, Type 0, BuildingBlock: BETDIP_clean_linker_0, # of connection points: 3
#     Node 7, Type 0, BuildingBlock: BETDIP_clean_linker_0, # of connection points: 3
#     Node 8, Type 0, BuildingBlock: BETDIP_clean_linker_0, # of connection points: 3
#     Node 9, Type 0, BuildingBlock: BETDIP_clean_linker_0, # of connection points: 3
#     Node 10, Type 0, BuildingBlock: BETDIP_clean_linker_0, # of connection points: 3
#     Node 11, Type 0, BuildingBlock: BETDIP_clean_linker_0, # of connection points: 3
#     Node 12, Type 0, BuildingBlock: BETDIP_clean_linker_0, # of connection points: 3
#     Node 13, Type 0, BuildingBlock: BETDIP_clean_linker_0, # of connection points: 3
#     Node 14, Type 0, BuildingBlock: BETDIP_clean_linker_0, # of connection points: 3
#     Node 15, Type 0, BuildingBlock: BETDIP_clean_linker_0, # of connection points: 3
#     Node 16, Type 0, BuildingBlock: BETDIP_clean_linker_0, # of connection points: 3
#     Node 17, Type 0, BuildingBlock: BETDIP_clean_linker_0, # of connection points: 3
#     Node 18, Type 1, BuildingBlock: CUWYAW_clean_sbu_0, # of connection points: 6
#     Node 19, Type 1, BuildingBlock: CUWYAW_clean_sbu_0, # of connection points: 6
#     Node 20, Type 1, BuildingBlock: CUWYAW_clean_sbu_0, # of connection points: 6
#     Node 21, Type 1, BuildingBlock: CUWYAW_clean_sbu_0, # of connection points: 6
#     Node 22, Type 1, BuildingBlock: CUWYAW_clean_sbu_0, # of connection points: 6
#     Node 23, Type 1, BuildingBlock: CUWYAW_clean_sbu_0, # of connection points: 6
#     Node 24, Type 1, BuildingBlock: CUWYAW_clean_sbu_0, # of connection points: 6
#     Node 25, Type 1, BuildingBlock: CUWYAW_clean_sbu_0, # of connection points: 6
#     Node 26, Type 1, BuildingBlock: CUWYAW_clean_sbu_0, # of connection points: 6
#     Edge 27, Type (0, 1), BuildingBlock: KIFKEQ_clean_linker_1, # of connection points: 2
#     Edge 28, Type (0, 1), BuildingBlock: KIFKEQ_clean_linker_1, # of connection points: 2
#     Edge 29, Type (0, 1), BuildingBlock: KIFKEQ_clean_linker_1, # of connection points: 2
#     Edge 30, Type (0, 1), BuildingBlock: KIFKEQ_clean_linker_1, # of connection points: 2
#     Edge 31, Type (0, 1), BuildingBlock: KIFKEQ_clean_linker_1, # of connection points: 2
#     Edge 32, Type (0, 1), BuildingBlock: KIFKEQ_clean_linker_1, # of connection points: 2
#     Edge 33, Type (0, 1), BuildingBlock: KIFKEQ_clean_linker_1, # of connection points: 2
#     Edge 34, Type (0, 1), BuildingBlock: KIFKEQ_clean_linker_1, # of connection points: 2
#     Edge 35, Type (0, 1), BuildingBlock: KIFKEQ_clean_linker_1, # of connection points: 2
#     Edge 36, Type (0, 1), BuildingBlock: KIFKEQ_clean_linker_1, # of connection points: 2
#     Edge 37, Type (0, 1), BuildingBlock: KIFKEQ_clean_linker_1, # of connection points: 2
#     Edge 38, Type (0, 1), BuildingBlock: KIFKEQ_clean_linker_1, # of connection points: 2
#     Edge 39, Type (0, 1), BuildingBlock: KIFKEQ_clean_linker_1, # of connection points: 2
#     Edge 40, Type (0, 1), BuildingBlock: KIFKEQ_clean_linker_1, # of connection points: 2
#     Edge 41, Type (0, 1), BuildingBlock: KIFKEQ_clean_linker_1, # of connection points: 2
#     Edge 42, Type (0, 1), BuildingBlock: KIFKEQ_clean_linker_1, # of connection points: 2
#     Edge 43, Type (0, 1), BuildingBlock: KIFKEQ_clean_linker_1, # of connection points: 2
#     Edge 44, Type (0, 1), BuildingBlock: KIFKEQ_clean_linker_1, # of connection points: 2
#     Edge 45, Type (0, 1), BuildingBlock: KIFKEQ_clean_linker_1, # of connection points: 2
#     Edge 46, Type (0, 1), BuildingBlock: KIFKEQ_clean_linker_1, # of connection points: 2
#     Edge 47, Type (0, 1), BuildingBlock: KIFKEQ_clean_linker_1, # of connection points: 2
#     Edge 48, Type (0, 1), BuildingBlock: KIFKEQ_clean_linker_1, # of connection points: 2
#     Edge 49, Type (0, 1), BuildingBlock: KIFKEQ_clean_linker_1, # of connection points: 2
#     Edge 50, Type (0, 1), BuildingBlock: KIFKEQ_clean_linker_1, # of connection points: 2
#     Edge 51, Type (0, 1), BuildingBlock: KIFKEQ_clean_linker_1, # of connection points: 2
#     Edge 52, Type (0, 1), BuildingBlock: KIFKEQ_clean_linker_1, # of connection points: 2
#     Edge 53, Type (0, 1), BuildingBlock: KIFKEQ_clean_linker_1, # of connection points: 2
#     Edge 54, Type (0, 1), BuildingBlock: KIFKEQ_clean_linker_1, # of connection points: 2
#     Edge 55, Type (0, 1), BuildingBlock: KIFKEQ_clean_linker_1, # of connection points: 2
#     Edge 56, Type (0, 1), BuildingBlock: KIFKEQ_clean_linker_1, # of connection points: 2
#     Edge 57, Type (0, 1), BuildingBlock: KIFKEQ_clean_linker_1, # of connection points: 2
#     Edge 58, Type (0, 1), BuildingBlock: KIFKEQ_clean_linker_1, # of connection points: 2
#     Edge 59, Type (0, 1), BuildingBlock: KIFKEQ_clean_linker_1, # of connection points: 2
#     Edge 60, Type (0, 1), BuildingBlock: KIFKEQ_clean_linker_1, # of connection points: 2
#     Edge 61, Type (0, 1), BuildingBlock: KIFKEQ_clean_linker_1, # of connection points: 2
#     Edge 62, Type (0, 1), BuildingBlock: KIFKEQ_clean_linker_1, # of connection points: 2
#     Edge 63, Type (0, 1), BuildingBlock: KIFKEQ_clean_linker_1, # of connection points: 2
#     Edge 64, Type (0, 1), BuildingBlock: KIFKEQ_clean_linker_1, # of connection points: 2
#     Edge 65, Type (0, 1), BuildingBlock: KIFKEQ_clean_linker_1, # of connection points: 2
#     Edge 66, Type (0, 1), BuildingBlock: KIFKEQ_clean_linker_1, # of connection points: 2
#     Edge 67, Type (0, 1), BuildingBlock: KIFKEQ_clean_linker_1, # of connection points: 2
#     Edge 68, Type (0, 1), BuildingBlock: KIFKEQ_clean_linker_1, # of connection points: 2
#     Edge 69, Type (0, 1), BuildingBlock: KIFKEQ_clean_linker_1, # of connection points: 2
#     Edge 70, Type (0, 1), BuildingBlock: KIFKEQ_clean_linker_1, # of connection points: 2
#     Edge 71, Type (0, 1), BuildingBlock: KIFKEQ_clean_linker_1, # of connection points: 2
#     Edge 72, Type (0, 1), BuildingBlock: KIFKEQ_clean_linker_1, # of connection points: 2
#     Edge 73, Type (0, 1), BuildingBlock: KIFKEQ_clean_linker_1, # of connection points: 2
#     Edge 74, Type (0, 1), BuildingBlock: KIFKEQ_clean_linker_1, # of connection points: 2
#     Edge 75, Type (0, 1), BuildingBlock: KIFKEQ_clean_linker_1, # of connection points: 2
#     Edge 76, Type (0, 1), BuildingBlock: KIFKEQ_clean_linker_1, # of connection points: 2
#     Edge 77, Type (0, 1), BuildingBlock: KIFKEQ_clean_linker_1, # of connection points: 2
#     Edge 78, Type (0, 1), BuildingBlock: KIFKEQ_clean_linker_1, # of connection points: 2
#     Edge 79, Type (0, 1), BuildingBlock: KIFKEQ_clean_linker_1, # of connection points: 2
#     Edge 80, Type (0, 1), BuildingBlock: KIFKEQ_clean_linker_1, # of connection points: 2
# Relax obj value: 0.060
# Max RMSD: 0.208
# Mean RMSD: 0.146
data_MOF--net-eea--node1-CUWYAW_clean_sbu_0--node2-BETDIP_clean_linker_0--edge1-KIFKEQ_clean_linker_1
_symmetry_space_group_name_H-M    P1
_symmetry_Int_Tables_number       1
_symmetry_cell_setting            triclinic
loop_
_symmetry_equiv_pos_as_xyz
'x, y, z'
_cell_length_a     55.594157
_cell_length_b     55.26473
_cell_length_c     70.925267
_cell_angle_alpha  93.368678
_cell_angle_beta   93.218418
_cell_angle_gamma 120.00775
loop_
_atom_site_label
_atom_site_type_symbol
_atom_site_fract_x
_atom_site_fract_y
_atom_site_fract_z
_atom_type_partial_charge
H0 H 0.22282 0.1027 0.37146 0.0
H1 H 0.24497 0.15544 0.42387 0.0
H2 H 0.24115 0.0759 0.42347 0.0
H3 H 0.26367 0.18987 0.40024 0.0
C4 C 0.24371 0.17994 0.39162 0.0
C5 C 0.22875 0.10623 0.38662 0.0
C6 C 0.23184 0.08613 0.39613 0.0
C7 C 0.23389 0.13139 0.39644 0.0
C8 C 0.24187 0.13647 0.41609 0.0
C9 C 0.24429 0.11636 0.42592 0.0
C10 C 0.23936 0.09142 0.41583 0.0
N11 N 0.22922 0.15047 0.38649 0.0
H12 H 0.91924 0.13547 0.37974 0.0
H13 H 0.87414 0.10626 0.42845 0.0
H14 H 0.95147 0.18451 0.43429 0.0
H15 H 0.83784 0.08417 0.40656 0.0
C16 C 0.84586 0.07649 0.39555 0.0
C17 C 0.91765 0.1385 0.39474 0.0
C18 C 0.93848 0.16284 0.40592 0.0
C19 C 0.89421 0.11818 0.40264 0.0
C20 C 0.89183 0.12199 0.42208 0.0
C21 C 0.91215 0.14605 0.43351 0.0
C22 C 0.9354 0.16634 0.42534 0.0
N23 N 0.87368 0.09378 0.39091 0.0
H24 H 0.88939 0.79273 0.38797 0.0
H25 H 0.91824 0.77242 0.43885 0.0
H26 H 0.83725 0.76496 0.43373 0.0
H27 H 0.96064 0.80876 0.42977 0.0
C28 C 0.95799 0.80083 0.41496 0.0
C29 C 0.8859 0.78563 0.40201 0.0
C30 C 0.86089 0.77921 0.40969 0.0
C31 C 0.9067 0.7834 0.41247 0.0
C32 C 0.90227 0.77429 0.43074 0.0
C33 C 0.87727 0.76765 0.43859 0.0
C34 C 0.85662 0.76998 0.42785 0.0
N35 N 0.93174 0.7901 0.40422 0.0
H36 H 0.09052 0.21745 0.62418 0.0
H37 H 0.14475 0.24962 0.58001 0.0
H38 H 0.07429 0.26148 0.58161 0.0
H39 H 0.15103 0.21342 0.58529 0.0
C40 C 0.15301 0.21466 0.60069 0.0
C41 C 0.09605 0.22883 0.61171 0.0
C42 C 0.07923 0.23886 0.60393 0.0
C43 C 0.11944 0.23225 0.60305 0.0
C44 C 0.12655 0.24657 0.58669 0.0
C45 C 0.11015 0.25684 0.5787 0.0
C46 C 0.08664 0.25303 0.58748 0.0
N47 N 0.13558 0.22129 0.61112 0.0
H48 H 0.79868 0.8853 0.6472 0.0
H49 H 0.77012 0.91051 0.59891 0.0
H50 H 0.77533 0.83555 0.59301 0.0
H51 H 0.75307 0.9264 0.62539 0.0
C52 C 0.77378 0.93818 0.63303 0.0
C53 C 0.79126 0.88148 0.63228 0.0
C54 C 0.78759 0.85759 0.62123 0.0
C55 C 0.78463 0.90034 0.62441 0.0
C56 C 0.77439 0.89549 0.6052 0.0
C57 C 0.77098 0.87214 0.59379 0.0
C58 C 0.77772 0.85339 0.60189 0.0
N59 N 0.78972 0.9248 0.63579 0.0
H60 H 0.12409 0.91826 0.63479 0.0
H61 H 0.09988 0.86558 0.58208 0.0
H62 H 0.18001 0.94163 0.59113 0.0
H63 H 0.0794 0.83114 0.60436 0.0
C64 C 0.06938 0.84072 0.61202 0.0
C65 C 0.12878 0.91398 0.62077 0.0
C66 C 0.15445 0.93272 0.61429 0.0
C67 C 0.1095 0.88917 0.60956 0.0
C68 C 0.11535 0.88393 0.59118 0.0
C69 C 0.14053 0.90309 0.58418 0.0
C70 C 0.16022 0.92702 0.59611 0.0
N71 N 0.08407 0.8703 0.61687 0.0
H72 H 0.8795 0.43087 0.70438 0.0
H73 H 0.90777 0.48467 0.75671 0.0
H74 H 0.9139 0.41046 0.75287 0.0
H75 H 0.9143 0.51767 0.73829 0.0
C76 C 0.89784 0.50766 0.72668 0.0
C77 C 0.88904 0.43572 0.71886 0.0
C78 C 0.89585 0.41711 0.72727 0.0
C79 C 0.89412 0.46063 0.72909 0.0
C80 C 0.90494 0.46634 0.74828 0.0
C81 C 0.91203 0.44824 0.75688 0.0
C82 C 0.90799 0.4241 0.7462 0.0
N83 N 0.88737 0.47905 0.71989 0.0
H84 H 0.58442 0.46849 0.71261 0.0
H85 H 0.53403 0.4412 0.75916 0.0
H86 H 0.6119 0.51869 0.7669 0.0
H87 H 0.49966 0.41906 0.73581 0.0
C88 C 0.50853 0.41078 0.72584 0.0
C89 C 0.58143 0.47196 0.72726 0.0
C90 C 0.60164 0.49635 0.73877 0.0
C91 C 0.55677 0.45216 0.73432 0.0
C92 C 0.55238 0.45671 0.7532 0.0
C93 C 0.57191 0.48088 0.76485 0.0
C94 C 0.59666 0.50036 0.75769 0.0
N95 N 0.53704 0.42756 0.72239 0.0
H96 H 0.55654 0.12901 0.72503 0.0
H97 H 0.58079 0.09818 0.77258 0.0
H98 H 0.50665 0.10344 0.77222 0.0
H99 H 0.62151 0.11828 0.76219 0.0
C100 C 0.61965 0.12005 0.74711 0.0
C101 C 0.55259 0.12064 0.73868 0.0
C102 C 0.52914 0.11715 0.7475 0.0
C103 C 0.57167 0.11432 0.74761 0.0
C104 C 0.5668 0.10373 0.76548 0.0
C105 C 0.54374 0.10051 0.77456 0.0
C106 C 0.52494 0.10693 0.76541 0.0
N107 N 0.59555 0.1192 0.7383 0.0
H108 H 0.76337 0.55798 0.95902 0.0
H109 H 0.80822 0.57851 0.90967 0.0
H110 H 0.73356 0.58289 0.9105 0.0
H111 H 0.81796 0.54593 0.91796 0.0
C112 C 0.82185 0.5499 0.93332 0.0
C113 C 0.76515 0.56434 0.94478 0.0
C114 C 0.74559 0.57054 0.9362 0.0
C115 C 0.78708 0.566 0.93503 0.0
C116 C 0.7904 0.57542 0.91688 0.0
C117 C 0.77124 0.58163 0.90801 0.0
C118 C 0.74884 0.57903 0.91768 0.0
N119 N 0.80562 0.55824 0.94377 0.0
H120 H 0.46446 0.21546 0.97764 0.0
H121 H 0.43788 0.24477 0.93082 0.0
H122 H 0.44391 0.17042 0.92188 0.0
H123 H 0.42021 0.25876 0.958 0.0
C124 C 0.44094 0.27001 0.96564 0.0
C125 C 0.45768 0.2129 0.96267 0.0
C126 C 0.45445 0.18991 0.95077 0.0
C127 C 0.45161 0.23253 0.95559 0.0
C128 C 0.44235 0.22942 0.93633 0.0
C129 C 0.43946 0.20703 0.92403 0.0
C130 C 0.4454 0.18727 0.9314 0.0
N131 N 0.4565 0.25617 0.96783 0.0
H132 H 0.79531 0.24485 0.9687 0.0
H133 H 0.76692 0.19363 0.91514 0.0
H134 H 0.84398 0.27181 0.92096 0.0
H135 H 0.73958 0.16003 0.93187 0.0
C136 C 0.73487 0.16941 0.94392 0.0
C137 C 0.79844 0.24159 0.95405 0.0
C138 C 0.82258 0.26163 0.94638 0.0
C139 C 0.77827 0.21686 0.94307 0.0
C140 C 0.78228 0.21221 0.92402 0.0
C141 C 0.80641 0.23166 0.91625 0.0
C142 C 0.82612 0.25634 0.9274 0.0
N143 N 0.75409 0.19758 0.95154 0.0
H144 H 0.55292 0.76567 0.03828 0.0
H145 H 0.57643 0.8197 0.09008 0.0
H146 H 0.57276 0.74029 0.09049 0.0
H147 H 0.59433 0.85335 0.06614 0.0
C148 C 0.57415 0.84323 0.05778 0.0
C149 C 0.55921 0.76952 0.05339 0.0
C150 C 0.56246 0.74964 0.06307 0.0
C151 C 0.56461 0.79491 0.06297 0.0
C152 C 0.57318 0.80054 0.08251 0.0
C153 C 0.57609 0.78085 0.09254 0.0
C154 C 0.57071 0.75554 0.08271 0.0
N155 N 0.55967 0.81371 0.05288 0.0
H156 H 0.25488 0.79605 0.05068 0.0
H157 H 0.20246 0.77428 0.09647 0.0
H158 H 0.27934 0.85305 0.10147 0.0
H159 H 0.18896 0.73112 0.08556 0.0
C160 C 0.18871 0.73087 0.07024 0.0
C161 C 0.25081 0.80121 0.06467 0.0
C162 C 0.27002 0.82701 0.0751 0.0
C163 C 0.22681 0.78155 0.07247 0.0
C164 C 0.22135 0.78862 0.09049 0.0
C165 C 0.24025 0.81422 0.10111 0.0
C166 C 0.26476 0.83315 0.09342 0.0
N167 N 0.20854 0.75498 0.06195 0.0
H168 H 0.22546 0.46495 0.05656 0.0
H169 H 0.25179 0.43605 0.10419 0.0
H170 H 0.17729 0.44158 0.10444 0.0
H171 H 0.26997 0.42155 0.07942 0.0
C172 C 0.27959 0.44091 0.07261 0.0
C173 C 0.22218 0.4572 0.07043 0.0
C174 C 0.19898 0.4537 0.07945 0.0
C175 C 0.24126 0.45081 0.07921 0.0
C176 C 0.23704 0.44084 0.09726 0.0
C177 C 0.21384 0.43723 0.10645 0.0
C178 C 0.1951 0.44398 0.09745 0.0
N179 N 0.265 0.45563 0.06986 0.0
H180 H 0.42741 0.8898 0.29372 0.0
H181 H 0.47732 0.91085 0.24687 0.0
H182 H 0.40011 0.91104 0.24227 0.0
H183 H 0.512 0.92951 0.27382 0.0
C184 C 0.50289 0.90996 0.28042 0.0
C185 C 0.43025 0.89568 0.27937 0.0
C186 C 0.41052 0.90007 0.26913 0.0
C187 C 0.45442 0.89984 0.27153 0.0
C188 C 0.4588 0.90793 0.25308 0.0
C189 C 0.43938 0.91223 0.24253 0.0
C190 C 0.41535 0.90832 0.25063 0.0
N191 N 0.47378 0.89512 0.28226 0.0
H192 H 0.13401 0.55198 0.30725 0.0
H193 H 0.10124 0.57228 0.25838 0.0
H194 H 0.09766 0.49305 0.25685 0.0
H195 H 0.09345 0.59785 0.27973 0.0
C196 C 0.11171 0.60674 0.29001 0.0
C197 C 0.12353 0.54589 0.29299 0.0
C198 C 0.11674 0.51988 0.28325 0.0
C199 C 0.11709 0.56447 0.28446 0.0
C200 C 0.10479 0.5575 0.26563 0.0
C201 C 0.09797 0.53191 0.25562 0.0
C202 C 0.10377 0.51312 0.26452 0.0
N203 N 0.12399 0.59037 0.29483 0.0
H204 H 0.45862 0.58975 0.3001 0.0
H205 H 0.43511 0.53161 0.2504 0.0
H206 H 0.51474 0.60773 0.25654 0.0
H207 H 0.41599 0.50044 0.27475 0.0
C208 C 0.40548 0.51041 0.28127 0.0
C209 C 0.46381 0.58405 0.2867 0.0
C210 C 0.48948 0.60218 0.2798 0.0
C211 C 0.44459 0.55825 0.27651 0.0
C212 C 0.45031 0.55105 0.25865 0.0
C213 C 0.47547 0.56907 0.25127 0.0
C214 C 0.49512 0.5942 0.2621 0.0
N215 N 0.41938 0.5402 0.28436 0.0
C216 C 0.52835 0.02864 0.06627 0.0
Eu217 Eu 0.5124 0.02048 0.03009 0.0
C218 C 0.51713 0.01446 0.08341 0.0
C219 C 0.50877 0.02726 0.0972 0.0
C220 C 0.49816 0.01431 0.11352 0.0
C221 C 0.49599 0.98841 0.1165 0.0
C222 C 0.5044 0.97559 0.10273 0.0
C223 C 0.5148 0.98843 0.08631 0.0
C224 C 0.49896 0.05367 0.0111 0.0
C225 C 0.44629 0.97138 0.02267 0.0
C226 C 0.46859 0.99 0.95414 0.0
Eu227 Eu 0.48557 0.99701 0.99006 0.0
C228 C 0.47915 1.00362 0.93674 0.0
C229 C 0.48466 0.98925 0.9222 0.0
C230 C 0.49402 1.00134 0.90541 0.0
C231 C 0.49777 0.02795 0.90274 0.0
C232 C 0.4924 0.04243 0.91733 0.0
C233 C 0.48326 0.03044 0.9342 0.0
C234 C 0.50057 0.96424 0.0084 0.0
C235 C 0.55229 0.04431 0.9975 0.0
O236 O 0.53603 0.01603 0.05382 0.0
O237 O 0.51524 0.04012 0.05832 0.0
O238 O 0.52145 0.06311 0.02256 0.0
O239 O 0.48391 0.02735 0.01077 0.0
O240 O 0.46949 0.98404 0.03436 0.0
O241 O 0.44633 0.97555 0.00455 0.0
O242 O 0.46244 1.00347 0.96703 0.0
O243 O 0.48107 0.97751 0.9615 0.0
O244 O 0.47835 0.95446 0.99658 0.0
O245 O 0.51463 0.99067 0.00917 0.0
O246 O 0.52907 0.03251 0.98579 0.0
O247 O 0.55188 0.04005 0.01564 0.0
H248 H 0.51052 0.0474 0.09539 0.0
H249 H 0.49219 0.02486 0.124 0.0
H250 H 0.50276 0.95552 0.10459 0.0
H251 H 0.52102 0.97796 0.07595 0.0
H252 H 0.48147 0.96848 0.92375 0.0
H253 H 0.49766 0.98954 0.89432 0.0
H254 H 0.49535 0.06308 0.9157 0.0
H255 H 0.47926 0.04212 0.94516 0.0
C256 C 0.00861 0.52841 0.06113 0.0
Eu257 Eu 1.00275 0.5063 0.02652 0.0
C258 C 0.01797 0.52606 0.08044 0.0
C259 C 0.00856 0.49988 0.0875 0.0
C260 C 0.01681 0.49843 0.10621 0.0
C261 C 0.03472 0.52311 0.11816 0.0
C262 C 0.04468 0.5492 0.11079 0.0
C263 C 0.0363 0.55064 0.09216 0.0
C264 C 0.96553 0.45269 0.01272 0.0
C265 C 0.04622 0.4829 0.02187 0.0
C266 C 0.00525 0.4662 0.9528 0.0
Eu267 Eu 0.01155 0.48882 0.98734 0.0
C268 C 0.99477 0.46741 0.93348 0.0
C269 C 0.00704 0.49236 0.92454 0.0
C270 C 0.99783 0.49252 0.90582 0.0
C271 C 0.97609 0.46781 0.89571 0.0
C272 C 0.96349 0.44304 0.90481 0.0
C273 C 0.97282 0.44284 0.92347 0.0
C274 C 0.04844 0.54282 1.00093 0.0
C275 C 0.96868 0.51284 0.99198 0.0
O276 O 0.02785 0.53929 0.04942 0.0
O277 O 0.98519 0.50715 0.05303 0.0
O278 O 0.95902 0.46863 0.02269 0.0
O279 O 0.99142 0.46508 0.0113 0.0
O280 O 0.03813 0.49743 0.03257 0.0
O281 O 0.0357 0.47343 0.00409 0.0
O282 O 0.9867 0.45483 0.96493 0.0
O283 O 0.02838 0.48825 0.96048 0.0
O284 O 0.05501 0.52731 0.99054 0.0
O285 O 0.02264 0.52988 0.00254 0.0
O286 O 0.97556 0.49691 0.98161 0.0
O287 O 0.98036 0.52337 0.00945 0.0
H288 H 0.99453 0.48056 0.07867 0.0
H289 H 0.00859 0.47801 0.11144 0.0
H290 H 0.05896 0.56861 0.11944 0.0
H291 H 0.04398 0.57102 0.08694 0.0
H292 H 0.02396 0.51169 0.9319 0.0
H293 H 0.00773 0.51198 0.89924 0.0
H294 H 0.94691 0.4236 0.89732 0.0
H295 H 0.96315 0.42332 0.93001 0.0
C296 C 0.48486 0.48428 0.95194 0.0
Eu297 Eu 0.50226 0.50754 0.98671 0.0
C298 C 0.49639 0.48598 0.93352 0.0
C299 C 0.51486 0.51186 0.92702 0.0
C300 C 0.52485 0.51274 0.90922 0.0
C301 C 0.51668 0.48775 0.89766 0.0
C302 C 0.49877 0.46191 0.90453 0.0
C303 C 0.48869 0.46107 0.92222 0.0
C304 C 0.51737 0.56055 0.99979 0.0
C305 C 0.57016 0.53398 0.99407 0.0
C306 C 0.54942 0.55042 0.06177 0.0
Eu307 Eu 0.53139 0.52656 0.02713 0.0
C308 C 0.53889 0.55007 0.08046 0.0
C309 C 0.52152 0.5248 0.08811 0.0
C310 C 0.51328 0.5252 0.10638 0.0
C311 C 0.52216 0.55086 0.11731 0.0
C312 C 0.5389 0.57605 0.10932 0.0
C313 C 0.54723 0.57563 0.09113 0.0
C314 C 0.51463 0.47271 0.01441 0.0
C315 C 0.46355 0.49983 0.0197 0.0
O316 O 0.49334 0.47373 0.96502 0.0
O317 O 0.48305 0.50583 0.95867 0.0
O318 O 0.49455 0.54403 0.98893 0.0
O319 O 0.53182 0.54905 0.00236 0.0
O320 O 0.54687 0.5189 0.98264 0.0
O321 O 0.57004 0.54264 0.0118 0.0
O322 O 0.54146 0.56119 0.04855 0.0
O323 O 0.55002 0.52808 0.05529 0.0
O324 O 0.53712 0.48854 0.02572 0.0
O325 O 0.50133 0.48525 0.01158 0.0
O326 O 0.4869 0.51664 0.03077 0.0
O327 O 0.46394 0.48956 0.00248 0.0
H328 H 0.52136 0.5314 0.93557 0.0
H329 H 0.53843 0.533 0.90435 0.0
H330 H 0.49251 0.44223 0.89625 0.0
H331 H 0.47472 0.44088 0.92707 0.0
H332 H 0.51467 0.50475 0.08013 0.0
H333 H 0.50057 0.5054 0.1121 0.0
H334 H 0.54566 0.59619 0.11713 0.0
H335 H 0.56048 0.59536 0.08546 0.0
C336 C 0.19768 0.36183 0.39946 0.0
Eu337 Eu 0.18152 0.35579 0.3634 0.0
C338 C 0.18538 0.35122 0.41725 0.0
C339 C 0.18451 0.36971 0.43126 0.0
C340 C 0.17404 0.36044 0.44851 0.0
C341 C 0.16443 0.33249 0.4522 0.0
C342 C 0.16503 0.3139 0.43805 0.0
C343 C 0.17535 0.32314 0.42076 0.0
C344 C 0.16628 0.38902 0.34605 0.0
C345 C 0.11531 0.30725 0.35463 0.0
C346 C 0.14119 0.3281 0.28662 0.0
Eu347 Eu 0.15623 0.33449 0.32289 0.0
C348 C 0.15211 0.34247 0.26949 0.0
C349 C 0.16149 0.33043 0.25589 0.0
C350 C 0.17087 0.34296 0.23924 0.0
C351 C 0.1708 0.36767 0.23571 0.0
C352 C 0.16162 0.37988 0.24938 0.0
C353 C 0.1524 0.36744 0.26612 0.0
C354 C 0.17233 0.30188 0.34035 0.0
C355 C 0.22184 0.38275 0.33168 0.0
O356 O 0.1989 0.3441 0.38705 0.0
O357 O 0.19077 0.37853 0.3915 0.0
O358 O 0.18842 0.39847 0.35789 0.0
O359 O 0.1524 0.36249 0.34449 0.0
O360 O 0.13792 0.32005 0.36689 0.0
O361 O 0.11624 0.31158 0.33651 0.0
O362 O 0.13337 0.34028 0.29927 0.0
O363 O 0.15438 0.31654 0.29431 0.0
O364 O 0.14995 0.29203 0.32871 0.0
O365 O 0.18577 0.32835 0.34164 0.0
O366 O 0.19872 0.3727 0.32009 0.0
O367 O 0.22117 0.37558 0.34915 0.0
H368 H 0.19216 0.39148 0.42894 0.0
H369 H 0.17351 0.37523 0.45895 0.0
H370 H 0.1582 0.29235 0.44049 0.0
H371 H 0.17582 0.30834 0.41028 0.0
H372 H 0.16123 0.31105 0.25802 0.0
H373 H 0.17741 0.33281 0.22887 0.0
H374 H 0.16151 0.39904 0.2471 0.0
H375 H 0.14526 0.37726 0.2763 0.0
C376 C 0.68079 0.8646 0.39868 0.0
Eu377 Eu 0.67149 0.84183 0.36386 0.0
C378 C 0.69084 0.86203 0.41778 0.0
C379 C 0.67759 0.83672 0.42624 0.0
C380 C 0.68656 0.83539 0.44478 0.0
C381 C 0.70904 0.85927 0.45517 0.0
C382 C 0.72259 0.88438 0.4465 0.0
C383 C 0.71351 0.88575 0.42803 0.0
C384 C 0.63383 0.78774 0.35093 0.0
C385 C 0.7136 0.81786 0.35597 0.0
C386 C 0.66761 0.80166 0.28853 0.0
Eu387 Eu 0.67641 0.82411 0.3234 0.0
C388 C 0.65702 0.8035 0.26945 0.0
C389 C 0.66952 0.82855 0.26064 0.0
C390 C 0.65986 0.82913 0.24212 0.0
C391 C 0.63746 0.80475 0.23213 0.0
C392 C 0.62472 0.7799 0.24114 0.0
C393 C 0.63446 0.77929 0.25957 0.0
C394 C 0.71384 0.87818 0.3366 0.0
C395 C 0.63481 0.84878 0.33115 0.0
O396 O 0.69923 0.87438 0.38632 0.0
O397 O 0.65641 0.84418 0.39117 0.0
O398 O 0.62829 0.80313 0.36232 0.0
O399 O 0.65919 0.80081 0.34802 0.0
O400 O 0.70806 0.83415 0.36713 0.0
O401 O 0.70006 0.80697 0.33896 0.0
O402 O 0.64929 0.79141 0.30091 0.0
O403 O 0.69167 0.8227 0.29598 0.0
O404 O 0.71987 0.86282 0.32556 0.0
O405 O 0.68839 0.86499 0.33913 0.0
O406 O 0.64006 0.83229 0.31995 0.0
O407 O 0.64827 0.85931 0.34822 0.0
H408 H 0.66012 0.81802 0.41865 0.0
H409 H 0.6759 0.81567 0.451 0.0
H410 H 0.73974 0.90323 0.4542 0.0
H411 H 0.72395 0.90552 0.42184 0.0
H412 H 0.68691 0.8476 0.26795 0.0
H413 H 0.66993 0.84863 0.2356 0.0
H414 H 0.60768 0.76068 0.23373 0.0
H415 H 0.62461 0.7597 0.26603 0.0
C416 C 0.15006 0.82162 0.28609 0.0
Eu417 Eu 0.16809 0.84225 0.3213 0.0
C418 C 0.16231 0.82428 0.26775 0.0
C419 C 0.17192 0.84889 0.25853 0.0
C420 C 0.1829 0.85081 0.24104 0.0
C421 C 0.18461 0.82823 0.23241 0.0
C422 C 0.17519 0.80372 0.24171 0.0
C423 C 0.16406 0.80174 0.25914 0.0
C424 C 0.18325 0.89438 0.33636 0.0
C425 C 0.23615 0.86791 0.32683 0.0
C426 C 0.21792 0.87942 0.39604 0.0
Eu427 Eu 0.19902 0.85858 0.3609 0.0
C428 C 0.20702 0.88013 0.41451 0.0
C429 C 0.19065 0.85549 0.42315 0.0
C430 C 0.18196 0.85694 0.44112 0.0
C431 C 0.18938 0.88304 0.45084 0.0
C432 C 0.20519 0.90757 0.44191 0.0
C433 C 0.21399 0.90612 0.42402 0.0
C434 C 0.18283 0.80605 0.34565 0.0
C435 C 0.13116 0.83313 0.35544 0.0
O436 O 0.1565 0.80878 0.29864 0.0
O437 O 0.14963 0.84351 0.29376 0.0
O438 O 0.16006 0.87821 0.32578 0.0
O439 O 0.19813 0.88311 0.33764 0.0
O440 O 0.21239 0.8539 0.31573 0.0
O441 O 0.23696 0.87532 0.34498 0.0
O442 O 0.21399 0.8934 0.38311 0.0
O443 O 0.21461 0.85542 0.38895 0.0
O444 O 0.20634 0.82191 0.35599 0.0
O445 O 0.16861 0.81799 0.34468 0.0
O446 O 0.15504 0.84814 0.36631 0.0
O447 O 0.13027 0.82465 0.33748 0.0
H448 H 0.1709 0.86669 0.26474 0.0
H449 H 0.19021 0.87006 0.23433 0.0
H450 H 0.17584 0.7858 0.23532 0.0
H451 H 0.15663 0.78244 0.26583 0.0
H452 H 0.18488 0.83509 0.41618 0.0
H453 H 0.17004 0.83764 0.4476 0.0
H454 H 0.21084 0.92799 0.44876 0.0
H455 H 0.22651 0.92541 0.41766 0.0
C456 C 0.86446 0.68689 0.73029 0.0
Eu457 Eu 0.84724 0.68502 0.69504 0.0
C458 C 0.85138 0.67564 0.7478 0.0
C459 C 0.84113 0.68963 0.75907 0.0
C460 C 0.82901 0.67894 0.77563 0.0
C461 C 0.82691 0.65407 0.78133 0.0
C462 C 0.83721 0.64014 0.77008 0.0
C463 C 0.84939 0.65085 0.75356 0.0
C464 C 0.83299 0.72063 0.6804 0.0
C465 C 0.77965 0.63971 0.68789 0.0
C466 C 0.80034 0.66438 0.61988 0.0
Eu467 Eu 0.81823 0.66664 0.65504 0.0
C468 C 0.81195 0.67696 0.60235 0.0
C469 C 0.82825 0.66883 0.59224 0.0
C470 C 0.838 0.67999 0.57525 0.0
C471 C 0.83171 0.69953 0.56801 0.0
C472 C 0.81574 0.70794 0.57825 0.0
C473 C 0.80587 0.69668 0.5952 0.0
C474 C 0.83364 0.63165 0.66958 0.0
C475 C 0.8857 0.71114 0.66215 0.0
O476 O 0.86263 0.66858 0.71686 0.0
O477 O 0.86088 0.70657 0.72362 0.0
O478 O 0.85606 0.72884 0.691 0.0
O479 O 0.81796 0.6942 0.67868 0.0
O480 O 0.80308 0.6508 0.69932 0.0
O481 O 0.7795 0.64532 0.67007 0.0
O482 O 0.80006 0.68117 0.63358 0.0
O483 O 0.80705 0.64652 0.62612 0.0
O484 O 0.81048 0.62291 0.65897 0.0
O485 O 0.84792 0.65806 0.67124 0.0
O486 O 0.86213 0.7021 0.65118 0.0
O487 O 0.88572 0.70367 0.67949 0.0
H488 H 0.84246 0.70887 0.75513 0.0
H489 H 0.82111 0.69007 0.78392 0.0
H490 H 0.83636 0.6212 0.77425 0.0
H491 H 0.85739 0.63976 0.74533 0.0
H492 H 0.83333 0.65367 0.59733 0.0
H493 H 0.85049 0.67332 0.56778 0.0
H494 H 0.81026 0.72269 0.57291 0.0
H495 H 0.79317 0.70314 0.6026 0.0
C496 C 0.3435 0.19884 0.72956 0.0
Eu497 Eu 0.33597 0.17476 0.69533 0.0
C498 C 0.35467 0.19824 0.74878 0.0
C499 C 0.34651 0.17285 0.75672 0.0
C500 C 0.35644 0.17302 0.77533 0.0
C501 C 0.37481 0.19855 0.78633 0.0
C502 C 0.38344 0.22384 0.7781 0.0
C503 C 0.3734 0.22366 0.75956 0.0
C504 C 0.29936 0.12012 0.68324 0.0
C505 C 0.38006 0.15242 0.69027 0.0
C506 C 0.33715 0.13302 0.62172 0.0
Eu507 Eu 0.34346 0.1559 0.65618 0.0
C508 C 0.32634 0.13377 0.60241 0.0
C509 C 0.33856 0.15828 0.593 0.0
C510 C 0.32872 0.15788 0.57432 0.0
C511 C 0.30648 0.13299 0.56471 0.0
C512 C 0.29392 0.10873 0.57436 0.0
C513 C 0.30383 0.1091 0.59295 0.0
C514 C 0.37941 0.21064 0.66867 0.0
C515 C 0.29897 0.17777 0.66101 0.0
O516 O 0.36159 0.20955 0.71708 0.0
O517 O 0.32013 0.17661 0.7224 0.0
O518 O 0.29312 0.13591 0.69363 0.0
O519 O 0.32497 0.13316 0.68083 0.0
O520 O 0.37331 0.16861 0.70044 0.0
O521 O 0.36739 0.14049 0.67322 0.0
O522 O 0.3187 0.12184 0.63391 0.0
O523 O 0.36027 0.1552 0.62928 0.0
O524 O 0.38658 0.19503 0.65897 0.0
O525 O 0.35371 0.19719 0.67049 0.0
O526 O 0.30617 0.16199 0.6508 0.0
O527 O 0.31121 0.18934 0.67823 0.0
H528 H 0.33218 0.1529 0.74867 0.0
H529 H 0.34916 0.15316 0.78125 0.0
H530 H 0.398 0.24386 0.78598 0.0
H531 H 0.3801 0.24346 0.75366 0.0
H532 H 0.35597 0.17765 0.59993 0.0
H533 H 0.33903 0.17686 0.56726 0.0
H534 H 0.27642 0.08934 0.56752 0.0
H535 H 0.29403 0.08996 0.59991 0.0
C536 C 0.81662 0.15153 0.61666 0.0
Eu537 Eu 0.83319 0.17543 0.65133 0.0
C538 C 0.82959 0.15372 0.59873 0.0
C539 C 0.84496 0.17961 0.59123 0.0
C540 C 0.85712 0.18108 0.57427 0.0
C541 C 0.8544 0.15677 0.56458 0.0
C542 C 0.83922 0.13096 0.57221 0.0
C543 C 0.82687 0.12946 0.58907 0.0
C544 C 0.85123 0.22999 0.66251 0.0
C545 C 0.90054 0.19951 0.65908 0.0
C546 C 0.88051 0.22055 0.72594 0.0
Eu547 Eu 0.86246 0.19568 0.69154 0.0
C548 C 0.8701 0.21955 0.74471 0.0
C549 C 0.8531 0.19402 0.75217 0.0
C550 C 0.84444 0.19391 0.77035 0.0
C551 C 0.85251 0.21932 0.78135 0.0
C552 C 0.86889 0.24476 0.77353 0.0
C553 C 0.87764 0.24485 0.75544 0.0
C554 C 0.84406 0.14096 0.6803 0.0
C555 C 0.79494 0.17107 0.684 0.0
O556 O 0.82445 0.14106 0.63015 0.0
O557 O 0.81416 0.17283 0.62302 0.0
O558 O 0.82852 0.21386 0.65149 0.0
O559 O 0.86424 0.21726 0.66606 0.0
O560 O 0.8769 0.18301 0.64829 0.0
O561 O 0.90083 0.21114 0.67595 0.0
O562 O 0.87065 0.22977 0.71278 0.0
O563 O 0.88294 0.19925 0.71951 0.0
O564 O 0.86673 0.1569 0.69142 0.0
O565 O 0.8313 0.15391 0.67686 0.0
O566 O 0.8186 0.18734 0.69486 0.0
O567 O 0.79465 0.16003 0.66687 0.0
H568 H 0.84766 0.19875 0.59847 0.0
H569 H 0.86891 0.2013 0.56883 0.0
H570 H 0.83647 0.1118 0.56497 0.0
H571 H 0.81515 0.10927 0.59458 0.0
H572 H 0.84681 0.17419 0.74407 0.0
H573 H 0.83201 0.17395 0.77595 0.0
H574 H 0.87501 0.2647 0.78139 0.0
H575 H 0.89051 0.26476 0.74987 0.0
H576 H 0.32372 0.85284 0.0913 0.0
H577 H 0.27407 0.84774 0.04066 0.0
H578 H 0.36585 0.88723 0.07838 0.0
H579 H 0.31592 0.88331 0.02797 0.0
H580 H 0.399 0.92874 0.00254 0.0
H581 H 0.35679 0.89343 0.01485 0.0
H582 H 0.39125 0.93338 0.07181 0.0
H583 H 0.43396 0.9676 0.0595 0.0
C584 C 0.32187 0.85934 0.07743 0.0
C585 C 0.29566 0.84763 0.06697 0.0
C586 C 0.346 0.87926 0.07003 0.0
C587 C 0.34454 0.88844 0.0521 0.0
C588 C 0.31816 0.87657 0.04166 0.0
C589 C 0.29407 0.85624 0.04894 0.0
C590 C 0.39747 0.93 0.01768 0.0
C591 C 0.41987 0.95095 0.03003 0.0
C592 C 0.37314 0.90978 0.02478 0.0
C593 C 0.37036 0.91027 0.04442 0.0
C594 C 0.39267 0.93172 0.05668 0.0
C595 C 0.41716 0.95159 0.0496 0.0
H596 H 0.16902 0.43094 0.04503 0.0
H597 H 0.18202 0.48914 0.09306 0.0
H598 H 0.13146 0.43694 0.03101 0.0
H599 H 0.14567 0.49662 0.07872 0.0
H600 H 0.06068 0.48263 0.05923 0.0
H601 H 0.09766 0.47548 0.07262 0.0
H602 H 0.11939 0.46618 0.01609 0.0
H603 H 0.08133 0.47171 0.00278 0.0
C604 C 0.16413 0.44547 0.05235 0.0
C605 C 0.17827 0.45957 0.07008 0.0
C606 C 0.14267 0.44903 0.04433 0.0
C607 C 0.13524 0.46717 0.05374 0.0
C608 C 0.15018 0.48192 0.07125 0.0
C609 C 0.17123 0.47792 0.0794 0.0
C610 C 0.07328 0.47887 0.04969 0.0
C611 C 0.06806 0.47764 0.02997 0.0
C612 C 0.09471 0.47503 0.05736 0.0
C613 C 0.11185 0.47046 0.04549 0.0
C614 C 0.10645 0.46916 0.02571 0.0
C615 C 0.08466 0.47245 0.01805 0.0
H616 H 0.58939 0.72013 0.06971 0.0
H617 H 0.52304 0.71757 0.03318 0.0
H618 H 0.57828 0.67472 0.05485 0.0
H619 H 0.51387 0.67351 0.01697 0.0
H620 H 0.48236 0.58068 0.00486 0.0
H621 H 0.49363 0.62625 0.01997 0.0
H622 H 0.5806 0.64967 0.02864 0.0
H623 H 0.56866 0.60319 0.01461 0.0
C624 C 0.57247 0.71 0.05846 0.0
C625 C 0.55693 0.72261 0.0529 0.0
C626 C 0.56643 0.68404 0.04962 0.0
C627 C 0.54507 0.67012 0.03464 0.0
C628 C 0.53008 0.68313 0.0287 0.0
C629 C 0.53573 0.70883 0.03781 0.0
C630 C 0.50387 0.59564 0.01003 0.0
C631 C 0.52466 0.58851 0.00857 0.0
C632 C 0.51045 0.62193 0.01857 0.0
C633 C 0.53813 0.64201 0.0255 0.0
C634 C 0.55897 0.63476 0.02383 0.0
C635 C 0.55223 0.60819 0.01565 0.0
H636 H 0.81464 0.29325 0.97425 0.0
H637 H 0.87948 0.29081 0.94475 0.0
H638 H 0.84922 0.33752 0.99165 0.0
H639 H 0.91341 0.33638 0.9605 0.0
H640 H 0.97508 0.41052 1.00112 0.0
H641 H 0.94087 0.36321 0.98713 0.0
H642 H 0.8759 0.38454 0.98906 0.0
H643 H 0.90991 0.43089 0.00431 0.0
C644 C 0.83622 0.30204 0.97142 0.0
C645 C 0.84397 0.2883 0.95783 0.0
C646 C 0.85613 0.32789 0.98119 0.0
C647 C 0.88433 0.34111 0.9774 0.0
C648 C 0.89212 0.32703 0.96409 0.0
C649 C 0.87237 0.30092 0.95468 0.0
C650 C 0.95341 0.40487 0.99862 0.0
C651 C 0.94507 0.42422 0.00386 0.0
C652 C 0.93373 0.37779 0.99044 0.0
C653 C 0.90532 0.36967 0.98684 0.0
C654 C 0.89726 0.38944 0.99197 0.0
C655 C 0.91683 0.41622 1.00057 0.0
H656 H 0.71998 0.60216 0.93451 0.0
H657 H 0.71577 0.53149 0.96066 0.0
H658 H 0.67824 0.59453 0.94895 0.0
H659 H 0.67511 0.52526 0.97594 0.0
H660 H 0.61925 0.54607 0.01375 0.0
H661 H 0.663 0.55641 1.00073 0.0
H662 H 0.62551 0.54992 0.94434 0.0
H663 H 0.58164 0.5389 0.95718 0.0
C664 C 0.7103 0.58503 0.9433 0.0
C665 C 0.72133 0.56731 0.9462 0.0
C666 C 0.68652 0.58087 0.95169 0.0
C667 C 0.67357 0.55935 0.96353 0.0
C668 C 0.68493 0.54219 0.96699 0.0
C669 C 0.70837 0.54593 0.95829 0.0
C670 C 0.62043 0.547 0.9986 0.0
C671 C 0.59704 0.54163 0.98648 0.0
C672 C 0.64537 0.55279 0.99117 0.0
C673 C 0.64753 0.55399 0.97157 0.0
C674 C 0.62438 0.54927 0.95952 0.0
C675 C 0.59928 0.54285 0.96687 0.0
H676 H 0.49579 0.19958 0.97835 0.0
H677 H 0.42807 0.1328 0.94086 0.0
H678 H 0.50525 0.16579 0.99203 0.0
H679 H 0.4392 0.09914 0.95345 0.0
H680 H 0.44784 0.04213 0.99509 0.0
H681 H 0.43683 0.07441 0.97975 0.0
H682 H 0.52451 0.13779 0.98653 0.0
H683 H 0.53495 0.10613 0.00273 0.0
C684 C 0.48288 0.17768 0.97295 0.0
C685 C 0.46099 0.16906 0.95853 0.0
C686 C 0.4887 0.15824 0.98059 0.0
C687 C 0.47319 0.12958 0.9738 0.0
C688 C 0.45145 0.12093 0.95923 0.0
C689 C 0.44533 0.14038 0.95177 0.0
C690 C 0.46464 0.06299 0.99321 0.0
C691 C 0.49215 0.07185 1.00033 0.0
C692 C 0.45842 0.08148 0.98432 0.0
C693 C 0.47971 0.10902 0.9821 0.0
C694 C 0.50739 0.11718 0.98849 0.0
C695 C 0.51347 0.09894 0.99766 0.0
H696 H 0.71605 0.18202 0.97617 0.0
H697 H 0.69418 0.11686 0.93077 0.0
H698 H 0.672 0.1521 0.98937 0.0
H699 H 0.65032 0.08694 0.94396 0.0
H700 H 0.56182 0.05456 0.96059 0.0
H701 H 0.60591 0.08535 0.94816 0.0
H702 H 0.64814 0.10763 0.00481 0.0
H703 H 0.60391 0.07692 0.01738 0.0
C704 C 0.70187 0.16131 0.96903 0.0
C705 C 0.7085 0.15175 0.9524 0.0
C706 C 0.6767 0.14411 0.97664 0.0
C707 C 0.65759 0.11715 0.96768 0.0
C708 C 0.66437 0.1077 0.95107 0.0
C709 C 0.68955 0.12477 0.94358 0.0
C710 C 0.58046 0.06599 0.97045 0.0
C711 C 0.57927 0.06312 0.99001 0.0
C712 C 0.60579 0.08356 0.96328 0.0
C713 C 0.63059 0.09889 0.97548 0.0
C714 C 0.62939 0.0963 0.99506 0.0
C715 C 0.60404 0.07853 0.00224 0.0
H716 H 0.85825 0.53983 0.91603 0.0
H717 H 0.83445 0.55 0.97153 0.0
H718 H 0.8943 0.53205 0.93037 0.0
H719 H 0.86995 0.54114 0.986 0.0
H720 H 0.95448 0.55068 0.00628 0.0
H721 H 0.91936 0.56041 0.99251 0.0
H722 H 0.89899 0.49754 0.94565 0.0
H723 H 0.93461 0.48855 0.95903 0.0
C724 C 0.86068 0.54022 0.93133 0.0
C725 C 0.84357 0.54544 0.94266 0.0
C726 C 0.88121 0.53557 0.93956 0.0
C727 C 0.88494 0.53571 0.95935 0.0
C728 C 0.86788 0.54117 0.97073 0.0
C729 C 0.84742 0.54608 0.96245 0.0
C730 C 0.94255 0.53901 0.993 0.0
C731 C 0.94749 0.51897 0.9837 0.0
C732 C 0.92226 0.54445 0.98517 0.0
C733 C 0.90635 0.52984 0.96792 0.0
C734 C 0.91119 0.50962 0.95875 0.0
C735 C 0.93158 0.50435 0.96649 0.0
H736 H 0.41131 0.29544 0.97331 0.0
H737 H 0.49536 0.31019 0.97677 0.0
H738 H 0.42876 0.34371 0.98629 0.0
H739 H 0.51328 0.35904 0.98856 0.0
H740 H 0.53685 0.44027 0.02384 0.0
H741 H 0.51876 0.39086 0.01347 0.0
H742 H 0.45124 0.38928 0.97886 0.0
H743 H 0.46822 0.43785 0.99048 0.0
C744 C 0.43359 0.30916 0.9768 0.0
C745 C 0.45195 0.29911 0.97415 0.0
C746 C 0.4437 0.33697 0.98406 0.0
C747 C 0.47258 0.35566 0.98839 0.0
C748 C 0.49091 0.34535 0.98577 0.0
C749 C 0.48068 0.31732 0.9789 0.0
C750 C 0.51807 0.42922 0.01408 0.0
C751 C 0.50406 0.44293 0.00785 0.0
C752 C 0.50777 0.4009 0.00798 0.0
C753 C 0.48346 0.38578 0.99523 0.0
C754 C 0.46965 0.39981 0.98895 0.0
C755 C 0.47962 0.42789 0.99538 0.0
H756 H 0.18521 0.71593 0.03188 0.0
H757 H 0.14524 0.68633 0.08283 0.0
H758 H 0.15063 0.67122 0.01392 0.0
H759 H 0.11074 0.64196 0.06497 0.0
H760 H 0.03764 0.57755 0.02325 0.0
H761 H 0.07127 0.62414 0.03899 0.0
H762 H 0.13796 0.61996 0.01344 0.0
H763 H 0.10436 0.5732 0.99792 0.0
C764 C 0.16898 0.69996 0.0392 0.0
C765 C 0.16785 0.70454 0.05874 0.0
C766 C 0.14927 0.67437 0.02896 0.0
C767 C 0.12791 0.65314 0.03804 0.0
C768 C 0.12671 0.65801 0.05753 0.0
C769 C 0.14655 0.68334 0.06776 0.0
C770 C 0.05947 0.58659 0.02101 0.0
C771 C 0.06844 0.57165 0.00954 0.0
C772 C 0.07872 0.61324 0.03001 0.0
C773 C 0.10727 0.62566 0.02749 0.0
C774 C 0.11608 0.61104 0.01553 0.0
C775 C 0.09688 0.58423 0.00673 0.0
H776 H 0.30412 0.40981 0.06625 0.0
H777 H 0.31554 0.49224 0.0609 0.0
H778 H 0.34855 0.42412 0.05296 0.0
H779 H 0.36018 0.50668 0.04797 0.0
H780 H 0.45311 0.52675 0.04883 0.0
H781 H 0.40828 0.51273 0.06129 0.0
H782 H 0.36802 0.43985 0.02013 0.0
H783 H 0.4127 0.45401 0.00742 0.0
C784 C 0.31616 0.43096 0.06222 0.0
C785 C 0.30638 0.44985 0.06449 0.0
C786 C 0.34146 0.43909 0.05458 0.0
C787 C 0.35772 0.46648 0.04945 0.0
C788 C 0.34807 0.48549 0.0519 0.0
C789 C 0.32249 0.47717 0.0592 0.0
C790 C 0.43469 0.50776 0.04242 0.0
C791 C 0.43642 0.49148 0.02714 0.0
C792 C 0.40905 0.49984 0.04949 0.0
C793 C 0.38476 0.47522 0.04167 0.0
C794 C 0.38649 0.45885 0.02647 0.0
C795 C 0.41202 0.46705 0.01915 0.0
H796 H 0.60345 0.89876 0.05338 0.0
H797 H 0.52004 0.827 0.04616 0.0
H798 H 0.58589 0.92799 0.04133 0.0
H799 H 0.50192 0.85633 0.03542 0.0
H800 H 0.4797 0.9084 0.99943 0.0
H801 H 0.49773 0.87942 0.01087 0.0
H802 H 0.56194 0.95098 0.04742 0.0
H803 H 0.54509 0.9803 0.03461 0.0
C804 C 0.58128 0.88936 0.04933 0.0
C805 C 0.56315 0.86066 0.05048 0.0
C806 C 0.57108 0.90614 0.0426 0.0
C807 C 0.54234 0.89472 0.03734 0.0
C808 C 0.52422 0.86591 0.03884 0.0
C809 C 0.53455 0.84903 0.04512 0.0
C810 C 0.49769 0.91789 0.0099 0.0
C811 C 0.51093 0.94658 0.01621 0.0
C812 C 0.50795 0.9012 0.01664 0.0
C813 C 0.53136 0.91263 0.03021 0.0
C814 C 0.54425 0.94137 0.03673 0.0
C815 C 0.53437 0.9582 0.02961 0.0
H816 H 0.9676 0.15481 0.37844 0.0
H817 H 0.96618 0.22024 0.41409 0.0
H818 H 0.009 0.19024 0.36527 0.0
H819 H 0.00817 0.25537 0.40138 0.0
H820 H 0.10242 0.30175 0.39133 0.0
H821 H 0.05893 0.26733 0.40295 0.0
H822 H 0.02389 0.232 0.34541 0.0
H823 H 0.06741 0.26664 0.33366 0.0
C824 C 0.97585 0.17669 0.38337 0.0
C825 C 0.96345 0.18451 0.39745 0.0
C826 C 0.99967 0.19699 0.37583 0.0
C827 C 0.01189 0.22555 0.38235 0.0
C828 C 0.99943 0.23346 0.39626 0.0
C829 C 0.97542 0.21324 0.40361 0.0
C830 C 0.08542 0.28676 0.38111 0.0
C831 C 0.08841 0.28698 0.36154 0.0
C832 C 0.06046 0.26713 0.38778 0.0
C833 C 0.03801 0.24697 0.37509 0.0
C834 C 0.04091 0.24718 0.35552 0.0
C835 C 0.06577 0.26713 0.34881 0.0
H836 H 0.80514 0.74191 0.40191 0.0
H837 H 0.86898 0.82655 0.39461 0.0
H838 H 0.7695 0.75081 0.38755 0.0
H839 H 0.83333 0.83556 0.38048 0.0
H840 H 0.75581 0.84741 0.38413 0.0
H841 H 0.79201 0.83745 0.39533 0.0
H842 H 0.75646 0.76397 0.3548 0.0
H843 H 0.72035 0.7741 0.34329 0.0
C844 C 0.8115 0.7623 0.39705 0.0
C845 C 0.83973 0.78356 0.39932 0.0
C846 C 0.7912 0.76734 0.3888 0.0
C847 C 0.79873 0.7939 0.38302 0.0
C848 C 0.82702 0.81497 0.38494 0.0
C849 C 0.84738 0.80976 0.39287 0.0
C850 C 0.75568 0.82913 0.37759 0.0
C851 C 0.73523 0.81152 0.36285 0.0
C852 C 0.77651 0.82357 0.38392 0.0
C853 C 0.77702 0.80003 0.37586 0.0
C854 C 0.75644 0.78223 0.36125 0.0
C855 C 0.73588 0.78808 0.35466 0.0
H856 H 0.25944 0.05733 0.40259 0.0
H857 H 0.19255 0.05395 0.36623 0.0
H858 H 0.24793 0.01145 0.38837 0.0
H859 H 0.18276 0.0092 0.3507 0.0
H860 H 0.14933 0.91561 0.34185 0.0
H861 H 0.16202 0.96226 0.3556 0.0
H862 H 0.24876 0.98455 0.3625 0.0
H863 H 0.23549 0.93705 0.34976 0.0
C864 C 0.24235 0.04692 0.39147 0.0
C865 C 0.22663 0.05932 0.38586 0.0
C866 C 0.23605 0.02067 0.38302 0.0
C867 C 0.21422 0.00626 0.3684 0.0
C868 C 0.19929 0.01922 0.36221 0.0
C869 C 0.20525 0.04526 0.37092 0.0
C870 C 0.1711 0.93053 0.34636 0.0
C871 C 0.19145 0.9228 0.34475 0.0
C872 C 0.17847 0.95744 0.35409 0.0
C873 C 0.20652 0.97753 0.36007 0.0
C874 C 0.2269 0.96967 0.35835 0.0
C875 C 0.21939 0.94249 0.35095 0.0
H876 H 0.52541 0.65242 0.2663 0.0
H877 H 0.50118 0.61406 0.31867 0.0
H878 H 0.56092 0.69595 0.28435 0.0
H879 H 0.53567 0.65845 0.33661 0.0
H880 H 0.57854 0.75723 0.35606 0.0
H881 H 0.54345 0.71158 0.33958 0.0
H882 H 0.60684 0.70935 0.30837 0.0
H883 H 0.64216 0.75434 0.32542 0.0
C884 C 0.52764 0.65305 0.28161 0.0
C885 C 0.51038 0.62936 0.29092 0.0
C886 C 0.54791 0.67814 0.29193 0.0
C887 C 0.55102 0.68044 0.31182 0.0
C888 C 0.53353 0.65718 0.32125 0.0
C889 C 0.51363 0.63183 0.31093 0.0
C890 C 0.58501 0.74684 0.34582 0.0
C891 C 0.61299 0.75951 0.3418 0.0
C892 C 0.56497 0.72077 0.33644 0.0
C893 C 0.57248 0.70717 0.32263 0.0
C894 C 0.60052 0.7196 0.31883 0.0
C895 C 0.62066 0.74534 0.32854 0.0
H896 H 0.37948 0.86125 0.29329 0.0
H897 H 0.38356 0.93003 0.26463 0.0
H898 H 0.33849 0.85562 0.3078 0.0
H899 H 0.34159 0.9231 0.27842 0.0
H900 H 0.24607 0.87191 0.28954 0.0
H901 H 0.28884 0.88093 0.27578 0.0
H902 H 0.32802 0.88758 0.33161 0.0
H903 H 0.28548 0.87912 0.3455 0.0
C904 C 0.37187 0.87531 0.29014 0.0
C905 C 0.38506 0.89617 0.27775 0.0
C906 C 0.34827 0.87193 0.2984 0.0
C907 C 0.33697 0.88894 0.29421 0.0
C908 C 0.34982 0.90958 0.28174 0.0
C909 C 0.37375 0.91336 0.27375 0.0
C910 C 0.26388 0.87552 0.2989 0.0
C911 C 0.26245 0.87484 0.31861 0.0
C912 C 0.28834 0.88076 0.29103 0.0
C913 C 0.3116 0.88484 0.30266 0.0
C914 C 0.31027 0.88434 0.32236 0.0
C915 C 0.28601 0.87967 0.33029 0.0
H916 H 0.13169 0.48347 0.26674 0.0
H917 H 0.1163 0.51045 0.32102 0.0
H918 H 0.14129 0.45034 0.28195 0.0
H919 H 0.12788 0.47859 0.33619 0.0
H920 H 0.19042 0.4456 0.35292 0.0
H921 H 0.17707 0.47645 0.33793 0.0
H922 H 0.11013 0.40499 0.30334 0.0
H923 H 0.12258 0.37378 0.31903 0.0
C924 C 0.1301 0.48232 0.28184 0.0
C925 C 0.1231 0.49983 0.29257 0.0
C926 C 0.1358 0.46341 0.29052 0.0
C927 C 0.13529 0.46201 0.31018 0.0
C928 C 0.12853 0.47946 0.32099 0.0
C929 C 0.12218 0.49792 0.31227 0.0
C930 C 0.17275 0.43641 0.34219 0.0
C931 C 0.1577 0.40729 0.33698 0.0
C932 C 0.16512 0.45407 0.33367 0.0
C933 C 0.14269 0.44303 0.31948 0.0
C934 C 0.12764 0.41395 0.31418 0.0
C935 C 0.13484 0.39616 0.32308 0.0
H936 H 0.36715 0.52461 0.29225 0.0
H937 H 0.38335 0.45593 0.28782 0.0
H938 H 0.32255 0.49414 0.30478 0.0
H939 H 0.33912 0.42571 0.30075 0.0
H940 H 0.27384 0.39449 0.34547 0.0
H941 H 0.31848 0.42603 0.33354 0.0
H942 H 0.2758 0.44734 0.29079 0.0
H943 H 0.23106 0.4154 0.30242 0.0
C944 C 0.36126 0.50308 0.29407 0.0
C945 C 0.37868 0.49258 0.28914 0.0
C946 C 0.33574 0.48566 0.30116 0.0
C947 C 0.32751 0.45765 0.30378 0.0
C948 C 0.3451 0.44729 0.29901 0.0
C949 C 0.37029 0.46451 0.29156 0.0
C950 C 0.27399 0.40596 0.33357 0.0
C951 C 0.24894 0.40241 0.32485 0.0
C952 C 0.2995 0.42389 0.32671 0.0
C953 C 0.30053 0.43909 0.31127 0.0
C954 C 0.27557 0.43598 0.30279 0.0
C955 C 0.24999 0.4176 0.30938 0.0
H956 H 0.48854 0.85796 0.29141 0.0
H957 H 0.55909 0.94036 0.28713 0.0
H958 H 0.5202 0.84253 0.30376 0.0
H959 H 0.59065 0.92507 0.29979 0.0
H960 H 0.63101 0.89401 0.34423 0.0
H961 H 0.59848 0.90831 0.33216 0.0
H962 H 0.56046 0.83651 0.2901 0.0
H963 H 0.59331 0.82228 0.30196 0.0
C964 C 0.51077 0.8728 0.29325 0.0
C965 C 0.52145 0.90041 0.28844 0.0
C966 C 0.52884 0.86393 0.30019 0.0
C967 C 0.5578 0.88266 0.30274 0.0
C968 C 0.56839 0.91031 0.29808 0.0
C969 C 0.55039 0.91901 0.29082 0.0
C970 C 0.61568 0.8812 0.33244 0.0
C971 C 0.61472 0.85703 0.32402 0.0
C972 C 0.59717 0.88948 0.3255 0.0
C973 C 0.57703 0.8735 0.31023 0.0
C974 C 0.57573 0.84908 0.30197 0.0
C975 C 0.59459 0.84106 0.30869 0.0
H976 H 0.09753 0.64388 0.27849 0.0
H977 H 0.15144 0.63541 0.32044 0.0
H978 H 0.11549 0.69219 0.29149 0.0
H979 H 0.16865 0.68351 0.33417 0.0
H980 H 0.21287 0.7795 0.34293 0.0
H981 H 0.19648 0.73153 0.32939 0.0
H982 H 0.11362 0.71898 0.3175 0.0
H983 H 0.13045 0.76721 0.33024 0.0
C984 C 0.11311 0.65237 0.29064 0.0
C985 C 0.12307 0.63594 0.29846 0.0
C986 C 0.12329 0.68003 0.29821 0.0
C987 C 0.14343 0.69186 0.31402 0.0
C988 C 0.15344 0.67531 0.32184 0.0
C989 C 0.14346 0.64766 0.31407 0.0
C990 C 0.19118 0.76641 0.33736 0.0
C991 C 0.17293 0.77702 0.33758 0.0
C992 C 0.1817 0.73885 0.32972 0.0
C993 C 0.15367 0.72122 0.3223 0.0
C994 C 0.13545 0.73198 0.32271 0.0
C995 C 0.14502 0.7596 0.33014 0.0
H996 H 0.85289 0.05074 0.36349 0.0
H997 H 0.79716 0.0373 0.40678 0.0
H998 H 0.82105 1.00311 0.34856 0.0
H999 H 0.76606 0.98948 0.39259 0.0
H1000 H 0.70138 0.91535 0.35357 0.0
H1001 H 0.7335 0.96352 0.36674 0.0
H1002 H 0.8032 0.95477 0.35146 0.0
H1003 H 0.77066 0.90683 0.33743 0.0
C1004 C 0.83392 0.03751 0.36987 0.0
C1005 C 0.82736 0.04769 0.38623 0.0
C1006 C 0.81573 0.01013 0.36141 0.0
C1007 C 0.79078 0.99232 0.36926 0.0
C1008 C 0.78463 1.00264 0.38581 0.0
C1009 C 0.80257 0.03002 0.39407 0.0
C1010 C 0.72357 0.9238 0.35297 0.0
C1011 C 0.73356 0.90741 0.3445 0.0
C1012 C 0.74207 0.95139 0.36066 0.0
C1013 C 0.77111 0.96316 0.36035 0.0
C1014 C 0.78103 0.94665 0.35175 0.0
C1015 C 0.76242 0.91911 0.34382 0.0
H1016 H 0.95948 0.77598 0.38073 0.0
H1017 H 0.01205 0.83383 0.42873 0.0
H1018 H 1.00065 0.78171 0.3664 0.0
H1019 H 0.05337 0.84096 0.41406 0.0
H1020 H 0.12212 0.83012 0.39277 0.0
H1021 H 0.07976 0.8205 0.40687 0.0
H1022 H 0.03905 0.81223 0.35111 0.0
H1023 H 0.08112 0.82034 0.337 0.0
C1024 C 0.97992 0.79019 0.3881 0.0
C1025 C 0.98268 0.80452 0.40582 0.0
C1026 C 1.00358 0.79363 0.37985 0.0
C1027 C 0.03052 0.81181 0.38902 0.0
C1028 C 0.03307 0.8263 0.40671 0.0
C1029 C 0.00942 0.82245 0.41508 0.0
C1030 C 0.10403 0.82604 0.38353 0.0
C1031 C 0.10493 0.82601 0.36379 0.0
C1032 C 0.07975 0.82075 0.39162 0.0
C1033 C 0.05589 0.81586 0.38021 0.0
C1034 C 0.05677 0.81548 0.36039 0.0
C1035 C 0.08095 0.82026 0.35226 0.0
H1036 H 0.27391 0.23526 0.38668 0.0
H1037 H 0.18993 0.1645 0.37969 0.0
H1038 H 0.25723 0.26481 0.3739 0.0
H1039 H 0.17266 0.19418 0.3683 0.0
H1040 H 0.15104 0.24591 0.33186 0.0
H1041 H 0.16875 0.21682 0.34355 0.0
H1042 H 0.23429 0.2889 0.37901 0.0
H1043 H 0.2178 0.31831 0.36584 0.0
C1044 C 0.25179 0.22616 0.38253 0.0
C1045 C 0.23325 0.19762 0.38395 0.0
C1046 C 0.2421 0.24313 0.37538 0.0
C1047 C 0.21345 0.2321 0.36998 0.0
C1048 C 0.19492 0.20347 0.37177 0.0
C1049 C 0.20475 0.18638 0.37845 0.0
C1050 C 0.16929 0.25551 0.34213 0.0
C1051 C 0.18289 0.28433 0.34808 0.0
C1052 C 0.17936 0.23874 0.34902 0.0
C1053 C 0.20295 0.25023 0.36245 0.0
C1054 C 0.21638 0.27918 0.36849 0.0
C1055 C 0.20669 0.29608 0.36118 0.0
H1056 H 0.63245 0.48779 0.7128 0.0
H1057 H 0.63007 0.55387 0.747 0.0
H1058 H 0.67452 0.52292 0.70009 0.0
H1059 H 0.67293 0.58859 0.73497 0.0
H1060 H 0.76815 0.63387 0.72491 0.0
H1061 H 0.72481 0.59955 0.73697 0.0
H1062 H 0.68792 0.56529 0.6796 0.0
H1063 H 0.73106 0.59989 0.66745 0.0
C1064 C 0.64066 0.50971 0.71757 0.0
C1065 C 0.62763 0.51777 0.73104 0.0
C1066 C 0.6649 0.52982 0.71033 0.0
C1067 C 0.67701 0.55845 0.7166 0.0
C1068 C 0.66421 0.56662 0.73006 0.0
C1069 C 0.6397 0.5466 0.73705 0.0
C1070 C 0.75075 0.61914 0.71485 0.0
C1071 C 0.75303 0.61967 0.69521 0.0
C1072 C 0.72593 0.59956 0.72177 0.0
C1073 C 0.70306 0.57974 0.70921 0.0
C1074 C 0.70531 0.58023 0.68959 0.0
C1075 C 0.72993 0.60017 0.68265 0.0
H1076 H 0.50989 0.10883 0.70973 0.0
H1077 H 0.50285 0.14194 0.76456 0.0
H1078 H 0.47545 0.11894 0.69528 0.0
H1079 H 0.46706 0.1499 0.7505 0.0
H1080 H 0.42074 0.1845 0.71882 0.0
H1081 H 0.45844 0.17802 0.73147 0.0
H1082 H 0.42726 0.10295 0.69269 0.0
H1083 H 0.39034 0.11039 0.67939 0.0
C1084 C 0.50108 0.11831 0.7187 0.0
C1085 C 0.50904 0.12433 0.73835 0.0
C1086 C 0.48098 0.12372 0.71046 0.0
C1087 C 0.46821 0.13508 0.7217 0.0
C1088 C 0.47657 0.14149 0.74129 0.0
C1089 C 0.49686 0.13645 0.74945 0.0
C1090 C 0.42193 0.16659 0.71301 0.0
C1091 C 0.40249 0.14787 0.69818 0.0
C1092 C 0.44351 0.16278 0.72032 0.0
C1093 C 0.44593 0.13983 0.71322 0.0
C1094 C 0.42642 0.12112 0.69833 0.0
C1095 C 0.40508 0.12522 0.6908 0.0
H1096 H 0.87999 0.36641 0.74128 0.0
H1097 H 0.89773 0.40612 0.68899 0.0
H1098 H 0.87231 0.32314 0.72444 0.0
H1099 H 0.88791 0.36177 0.67204 0.0
H1100 H 0.82604 0.26015 0.65458 0.0
H1101 H 0.83846 0.30683 0.66901 0.0
H1102 H 0.90789 0.31142 0.70273 0.0
H1103 H 0.8964 0.26533 0.68764 0.0
C1104 C 0.88254 0.36617 0.72627 0.0
C1105 C 0.88994 0.39019 0.71664 0.0
C1106 C 0.87789 0.34121 0.71663 0.0
C1107 C 0.87973 0.33932 0.69704 0.0
C1108 C 0.88641 0.36284 0.6872 0.0
C1109 C 0.89177 0.38814 0.69692 0.0
C1110 C 0.84418 0.27128 0.66489 0.0
C1111 C 0.85999 0.25893 0.67025 0.0
C1112 C 0.85127 0.29795 0.67307 0.0
C1113 C 0.87398 0.31248 0.687 0.0
C1114 C 0.89018 0.30046 0.69207 0.0
C1115 C 0.88351 0.27409 0.68353 0.0
H1116 H 0.20838 0.94894 0.62582 0.0
H1117 H 0.14739 0.97502 0.6292 0.0
H1118 H 0.24342 0.99262 0.6441 0.0
H1119 H 0.1826 0.01957 0.64639 0.0
H1120 H 0.24448 0.0897 0.68889 0.0
H1121 H 0.20969 0.0433 0.67414 0.0
H1122 H 0.27268 0.03988 0.64278 0.0
H1123 H 0.30778 0.08531 0.65891 0.0
C1124 C 0.20259 0.96419 0.63048 0.0
C1125 C 0.17524 0.95866 0.62622 0.0
C1126 C 0.22272 0.98941 0.64081 0.0
C1127 C 0.21615 0.01003 0.64676 0.0
C1128 C 0.18854 1.00419 0.6425 0.0
C1129 C 0.16829 0.97869 0.63253 0.0
C1130 C 0.25089 0.07885 0.67898 0.0
C1131 C 0.27877 0.09132 0.67482 0.0
C1132 C 0.23084 0.05229 0.67031 0.0
C1133 C 0.23801 0.03767 0.65693 0.0
C1134 C 0.26618 0.05009 0.65311 0.0
C1135 C 0.28635 0.07641 0.66215 0.0
H1136 H 0.0288 0.22509 0.5855 0.0
H1137 H 0.07101 0.24079 0.64175 0.0
H1138 H 0.98667 0.21695 0.5992 0.0
H1139 H 0.02813 0.23088 0.6555 0.0
H1140 H 0.95396 0.23873 0.67362 0.0
H1141 H 0.99742 0.24887 0.66059 0.0
H1142 H 0.95046 0.18285 0.61509 0.0
H1143 H 0.90724 0.17344 0.62767 0.0
C1144 C 0.02916 0.22691 0.60082 0.0
C1145 C 0.05342 0.23374 0.6125 0.0
C1146 C 1.00478 0.22179 0.60869 0.0
C1147 C 1.00385 0.22304 0.62848 0.0
C1148 C 0.02813 0.22998 0.64021 0.0
C1149 C 0.05264 0.2353 0.63231 0.0
C1150 C 0.95296 0.22641 0.66083 0.0
C1151 C 0.92711 0.20541 0.65163 0.0
C1152 C 0.97789 0.23211 0.65342 0.0
C1153 C 0.9775 0.21679 0.63671 0.0
C1154 C 0.9516 0.19549 0.62774 0.0
C1155 C 0.92675 0.18997 0.63504 0.0
H1156 H 0.82901 0.86824 0.64923 0.0
H1157 H 0.76077 0.80017 0.61282 0.0
H1158 H 0.83864 0.83494 0.66364 0.0
H1159 H 0.77217 0.7672 0.62594 0.0
H1160 H 0.78171 0.71011 0.66582 0.0
H1161 H 0.77033 0.74293 0.65185 0.0
H1162 H 0.85786 0.80683 0.65913 0.0
H1163 H 0.86866 0.77448 0.67409 0.0
C1164 C 0.81603 0.8462 0.64422 0.0
C1165 C 0.79403 0.83711 0.62979 0.0
C1166 C 0.82193 0.82702 0.65229 0.0
C1167 C 0.80639 0.79818 0.64594 0.0
C1168 C 0.78446 0.7891 0.63145 0.0
C1169 C 0.77822 0.80821 0.62363 0.0
C1170 C 0.7984 0.73123 0.66444 0.0
C1171 C 0.82599 0.73988 0.67119 0.0
C1172 C 0.79197 0.75006 0.65629 0.0
C1173 C 0.81311 0.77781 0.65438 0.0
C1174 C 0.84083 0.78602 0.66077 0.0
C1175 C 0.84712 0.76739 0.66923 0.0
H1176 H 0.03188 0.85458 0.62533 0.0
H1177 H 0.04604 0.78508 0.61551 0.0
H1178 H 0.98713 0.82315 0.63733 0.0
H1179 H 1.00167 0.75386 0.62796 0.0
H1180 H 0.93742 0.71989 0.67373 0.0
H1181 H 0.98186 0.75149 0.66157 0.0
H1182 H 0.93945 0.77775 0.62222 0.0
H1183 H 0.89485 0.74571 0.63404 0.0
C1184 C 0.0255 0.83265 0.62585 0.0
C1185 C 0.04243 0.82223 0.61956 0.0
C1186 C 0.99988 0.81468 0.63263 0.0
C1187 C 0.99103 0.78613 0.63361 0.0
C1188 C 0.0081 0.77582 0.62747 0.0
C1189 C 0.03339 0.79363 0.62031 0.0
C1190 C 0.93757 0.73238 0.66248 0.0
C1191 C 0.91263 0.73025 0.65481 0.0
C1192 C 0.96297 0.75037 0.65549 0.0
C1193 C 0.96405 0.76706 0.64099 0.0
C1194 C 0.9392 0.76521 0.63348 0.0
C1195 C 0.91369 0.74676 0.64017 0.0
H1196 H 0.16271 0.21154 0.63877 0.0
H1197 H 0.19021 0.20515 0.58393 0.0
H1198 H 0.19747 0.20206 0.65368 0.0
H1199 H 0.22545 0.19655 0.59877 0.0
H1200 H 0.26559 0.15308 0.62781 0.0
H1201 H 0.22964 0.16127 0.61395 0.0
H1202 H 0.24721 0.22279 0.66112 0.0
H1203 H 0.28274 0.21397 0.67532 0.0
C1204 C 0.17625 0.2082 0.62992 0.0
C1205 C 0.17375 0.20895 0.61018 0.0
C1206 C 0.19629 0.20295 0.63847 0.0
C1207 C 0.21424 0.19846 0.62743 0.0
C1208 C 0.21168 0.19939 0.60768 0.0
C1209 C 0.19161 0.20448 0.59917 0.0
C1210 C 0.26183 0.16837 0.63526 0.0
C1211 C 0.27714 0.18295 0.65265 0.0
C1212 C 0.24126 0.17317 0.62725 0.0
C1213 C 0.23559 0.19282 0.63635 0.0
C1214 C 0.25078 0.20727 0.65383 0.0
C1215 C 0.27129 0.20235 0.66191 0.0
H1216 H 0.7432 0.96302 0.63922 0.0
H1217 H 0.82776 0.97921 0.64469 0.0
H1218 H 0.75955 0.01129 0.65169 0.0
H1219 H 0.84459 0.02803 0.65599 0.0
H1220 H 0.86592 0.10872 0.69074 0.0
H1221 H 0.84857 0.05945 0.68058 0.0
H1222 H 0.78183 0.05707 0.64451 0.0
H1223 H 0.79812 0.10567 0.65591 0.0
C1224 C 0.76536 0.97706 0.64304 0.0
C1225 C 0.78417 0.96738 0.64112 0.0
C1226 C 0.77484 0.00487 0.65001 0.0
C1227 C 0.80353 0.02394 0.65481 0.0
C1228 C 0.82233 0.01404 0.65285 0.0
C1229 C 0.81272 0.98603 0.64625 0.0
C1230 C 0.84745 0.09754 0.68072 0.0
C1231 C 0.83349 0.11107 0.67401 0.0
C1232 C 0.83759 0.06929 0.67472 0.0
C1233 C 0.81377 0.05399 0.66157 0.0
C1234 C 0.7999 0.06777 0.65488 0.0
C1235 C 0.80945 0.09584 0.6612 0.0
H1236 H 0.45835 0.37254 0.73573 0.0
H1237 H 0.51787 0.38348 0.69576 0.0
H1238 H 0.42782 0.32434 0.72204 0.0
H1239 H 0.48666 0.33547 0.68124 0.0
H1240 H 0.43633 0.23927 0.67168 0.0
H1241 H 0.46803 0.28756 0.6853 0.0
H1242 H 0.3971 0.29698 0.69581 0.0
H1243 H 0.3657 0.24838 0.68307 0.0
C1244 C 0.46473 0.36462 0.72383 0.0
C1245 C 0.49042 0.38172 0.71681 0.0
C1246 C 0.44711 0.33701 0.71585 0.0
C1247 C 0.45451 0.32585 0.70036 0.0
C1248 C 0.48035 0.34311 0.6933 0.0
C1249 C 0.4982 0.37071 0.70151 0.0
C1250 C 0.42762 0.25176 0.67693 0.0
C1251 C 0.3986 0.24011 0.67638 0.0
C1252 C 0.44577 0.27953 0.68462 0.0
C1253 C 0.43528 0.29638 0.69175 0.0
C1254 C 0.4061 0.28463 0.69087 0.0
C1255 C 0.38801 0.25679 0.68343 0.0
H1256 H 0.62643 0.12939 0.70943 0.0
H1257 H 0.66789 0.12458 0.7612 0.0
H1258 H 0.66829 0.14166 0.69328 0.0
H1259 H 0.70938 0.13632 0.74509 0.0
H1260 H 0.78855 0.19051 0.71846 0.0
H1261 H 0.74555 0.17778 0.73256 0.0
H1262 H 0.69783 0.12255 0.68223 0.0
H1263 H 0.74119 0.13567 0.66781 0.0
C1264 C 0.64441 0.13078 0.71732 0.0
C1265 C 0.64405 0.12625 0.73662 0.0
C1266 C 0.66831 0.13766 0.70805 0.0
C1267 C 0.69225 0.14022 0.71795 0.0
C1268 C 0.69151 0.13505 0.73714 0.0
C1269 C 0.6677 0.12817 0.74635 0.0
C1270 C 0.76896 0.17571 0.71029 0.0
C1271 C 0.76838 0.16398 0.69201 0.0
C1272 C 0.74426 0.16828 0.71846 0.0
C1273 C 0.71827 0.1489 0.70862 0.0
C1274 C 0.71755 0.13764 0.69014 0.0
C1275 C 0.74238 0.14507 0.68192 0.0
H1276 H 0.91073 0.56006 0.73949 0.0
H1277 H 0.86201 0.49435 0.69428 0.0
H1278 H 0.89464 0.58957 0.72594 0.0
H1279 H 0.84662 0.52426 0.68018 0.0
H1280 H 0.80298 0.57493 0.67051 0.0
H1281 H 0.81785 0.54447 0.68429 0.0
H1282 H 0.9001 0.61644 0.70015 0.0
H1283 H 0.88481 0.64682 0.68696 0.0
C1284 C 0.89668 0.55203 0.72654 0.0
C1285 C 0.88764 0.52497 0.71795 0.0
C1286 C 0.8876 0.56901 0.71868 0.0
C1287 C 0.86943 0.55945 0.70186 0.0
C1288 C 0.86032 0.53222 0.69327 0.0
C1289 C 0.86926 0.51511 0.70127 0.0
C1290 C 0.82422 0.58415 0.67697 0.0
C1291 C 0.84273 0.6132 0.67772 0.0
C1292 C 0.83282 0.5667 0.68476 0.0
C1293 C 0.86021 0.57791 0.69337 0.0
C1294 C 0.87872 0.60705 0.69396 0.0
C1295 C 0.87004 0.62449 0.6863 0.0
H1296 H 0.43531 0.95463 0.2276 0.0
H1297 H 0.45533 0.89003 0.21379 0.0
H1298 H 0.44743 0.97166 0.19659 0.0
H1299 H 0.46679 0.90648 0.1826 0.0
H1300 H 0.51819 0.96505 0.1394 0.0
H1301 H 0.5026 0.94528 0.16916 0.0
H1302 H 0.43445 0.96179 0.16315 0.0
H1303 H 0.45055 0.98217 0.13354 0.0
C1304 C 0.44186 0.9438 0.21778 0.0
C1305 C 0.44458 0.92115 0.22314 0.0
C1306 C 0.44875 0.95349 0.19998 0.0
C1307 C 0.45829 0.94058 0.18709 0.0
C1308 C 0.46012 0.91733 0.19229 0.0
C1309 C 0.45346 0.90782 0.21013 0.0
C1310 C 0.49971 0.96418 0.14435 0.0
C1311 C 0.48562 0.9752 0.13416 0.0
C1312 C 0.4907 0.95277 0.16139 0.0
C1313 C 0.46722 0.95189 0.16859 0.0
C1314 C 0.45287 0.96254 0.15821 0.0
C1315 C 0.46203 0.97415 0.14122 0.0
H1316 H 0.11402 0.51358 0.22477 0.0
H1317 H 0.05374 0.53604 0.24154 0.0
H1318 H 0.09712 0.50902 0.19144 0.0
H1319 H 0.03628 0.53079 0.20838 0.0
H1320 H 0.03935 0.55779 0.14895 0.0
H1321 H 0.05297 0.55691 0.18187 0.0
H1322 H 0.05944 0.48367 0.16654 0.0
H1323 H 0.0472 0.48548 0.13324 0.0
C1324 C 0.09676 0.51694 0.22132 0.0
C1325 C 0.08538 0.52546 0.23567 0.0
C1326 C 0.08703 0.5143 0.20224 0.0
C1327 C 0.06559 0.51994 0.19719 0.0
C1328 C 0.05329 0.527 0.21171 0.0
C1329 C 0.06317 0.52987 0.23071 0.0
C1330 C 0.04399 0.54167 0.15251 0.0
C1331 C 0.04237 0.52184 0.13838 0.0
C1332 C 0.05137 0.54088 0.17149 0.0
C1333 C 0.05713 0.52009 0.17693 0.0
C1334 C 0.05534 0.50009 0.16284 0.0
C1335 C 0.04804 0.50096 0.14377 0.0
H1336 H 0.44038 0.55137 0.21854 0.0
H1337 H 0.52319 0.57204 0.24035 0.0
H1338 H 0.45105 0.5451 0.18633 0.0
H1339 H 0.53378 0.56521 0.20824 0.0
H1340 H 0.55509 0.58679 0.14818 0.0
H1341 H 0.54287 0.58892 0.18031 0.0
H1342 H 0.46057 0.5174 0.16401 0.0
H1343 H 0.47236 0.51623 0.13147 0.0
C1344 C 0.46069 0.55404 0.21647 0.0
C1345 C 0.48102 0.5624 0.23195 0.0
C1346 C 0.46683 0.55042 0.198 0.0
C1347 C 0.4934 0.55491 0.19461 0.0
C1348 C 0.51333 0.56221 0.21024 0.0
C1349 C 0.50725 0.56602 0.22866 0.0
C1350 C 0.53426 0.5717 0.15134 0.0
C1351 C 0.51467 0.55147 0.13713 0.0
C1352 C 0.52737 0.57264 0.1699 0.0
C1353 C 0.50075 0.55325 0.17485 0.0
C1354 C 0.48119 0.53284 0.16069 0.0
C1355 C 0.48806 0.53196 0.14206 0.0
H1356 H 0.95652 0.44583 0.77302 0.0
H1357 H 0.89167 0.46334 0.78672 0.0
H1358 H 0.97242 0.45245 0.80673 0.0
H1359 H 0.90794 0.47055 0.82041 0.0
H1360 H 0.92284 0.44319 0.87847 0.0
H1361 H 0.90825 0.44048 0.84492 0.0
H1362 H 0.99459 0.48946 0.83386 0.0
H1363 H 0.00919 0.49167 0.86735 0.0
C1364 C 0.94577 0.45123 0.78325 0.0
C1365 C 0.92281 0.45398 0.77725 0.0
C1366 C 0.95502 0.45527 0.80252 0.0
C1367 C 0.94139 0.46198 0.81622 0.0
C1368 C 0.91869 0.46515 0.81019 0.0
C1369 C 0.90956 0.46129 0.79091 0.0
C1370 C 0.93868 0.45336 0.86886 0.0
C1371 C 0.96715 0.46757 0.87554 0.0
C1372 C 0.93034 0.45204 0.84969 0.0
C1373 C 0.95028 0.46472 0.83675 0.0
C1374 C 0.97875 0.47927 0.84347 0.0
C1375 C 0.98709 0.48077 0.86267 0.0
H1376 H 0.60584 0.49529 0.79813 0.0
H1377 H 0.52413 0.47708 0.77563 0.0
H1378 H 0.59355 0.49857 0.83044 0.0
H1379 H 0.51204 0.48104 0.80766 0.0
H1380 H 0.48622 0.45392 0.86547 0.0
H1381 H 0.50111 0.45409 0.83398 0.0
H1382 H 0.58269 0.52444 0.85384 0.0
H1383 H 0.56818 0.52325 0.88583 0.0
C1384 C 0.58544 0.49244 0.80011 0.0
C1385 C 0.56581 0.48558 0.78441 0.0
C1386 C 0.57838 0.49436 0.81859 0.0
C1387 C 0.55163 0.48966 0.8217 0.0
C1388 C 0.53254 0.48403 0.80587 0.0
C1389 C 0.53949 0.48188 0.78749 0.0
C1390 C 0.50748 0.46921 0.86326 0.0
C1391 C 0.52601 0.48846 0.87829 0.0
C1392 C 0.51591 0.46961 0.84506 0.0
C1393 C 0.54306 0.48944 0.84127 0.0
C1394 C 0.56169 0.50875 0.85627 0.0
C1395 C 0.55325 0.50827 0.87457 0.0
H1396 H 0.53256 0.12432 0.80491 0.0
H1397 H 0.54519 0.0556 0.7877 0.0
H1398 H 0.52346 0.10823 0.83635 0.0
H1399 H 0.53535 0.03888 0.81907 0.0
H1400 H 0.5392 0.03001 0.88259 0.0
H1401 H 0.55224 0.0487 0.85208 0.0
H1402 H 0.48792 0.07099 0.85105 0.0
H1403 H 0.47544 0.05291 0.88166 0.0
C1404 C 0.53322 0.10564 0.80787 0.0
C1405 C 0.53938 0.09108 0.79386 0.0
C1406 C 0.52792 0.09634 0.82586 0.0
C1407 C 0.5284 0.07209 0.83023 0.0
C1408 C 0.53511 0.05782 0.81628 0.0
C1409 C 0.54067 0.0673 0.7983 0.0
C1410 C 0.52791 0.03895 0.8758 0.0
C1411 C 0.50636 0.04008 0.88451 0.0
C1412 C 0.5353 0.04956 0.8583 0.0
C1413 C 0.52115 0.06137 0.84907 0.0
C1414 C 0.49965 0.06256 0.85788 0.0
C1415 C 0.49243 0.05215 0.87543 0.0
H1416 H 0.16181 0.29466 0.56882 0.0
H1417 H 0.07436 0.25 0.54802 0.0
H1418 H 0.17367 0.31366 0.53843 0.0
H1419 H 0.08611 0.27024 0.51792 0.0
H1420 H 0.12075 0.28183 0.45964 0.0
H1421 H 0.10712 0.26523 0.49048 0.0
H1422 H 0.17164 0.34558 0.5181 0.0
H1423 H 0.18629 0.36159 0.48733 0.0
C1424 C 0.14508 0.28907 0.5578 0.0
C1425 C 0.11715 0.27061 0.56081 0.0
C1426 C 0.15186 0.30026 0.54044 0.0
C1427 C 0.13085 0.29344 0.52567 0.0
C1428 C 0.10284 0.27563 0.52888 0.0
C1429 C 0.09607 0.26432 0.54624 0.0
C1430 C 0.13216 0.29589 0.47229 0.0
C1431 C 0.15475 0.32299 0.47096 0.0
C1432 C 0.12408 0.28651 0.49 0.0
C1433 C 0.13831 0.30404 0.50681 0.0
C1434 C 0.16045 0.33137 0.50546 0.0
C1435 C 0.16862 0.3407 0.48777 0.0
H1436 H 0.79156 0.85786 0.56359 0.0
H1437 H 0.72773 0.87666 0.57778 0.0
H1438 H 0.77589 0.85222 0.5299 0.0
H1439 H 0.71249 0.87168 0.54412 0.0
H1440 H 0.6756 0.83513 0.48333 0.0
H1441 H 0.68986 0.83582 0.51664 0.0
H1442 H 0.77642 0.8829 0.50572 0.0
H1443 H 0.76214 0.88164 0.47231 0.0
C1444 C 0.77406 0.86058 0.55952 0.0
C1445 C 0.7609 0.86774 0.57334 0.0
C1446 C 0.76525 0.85761 0.54022 0.0
C1447 C 0.74298 0.86155 0.53434 0.0
C1448 C 0.72953 0.86824 0.54819 0.0
C1449 C 0.73844 0.87137 0.56746 0.0
C1450 C 0.69766 0.84527 0.48798 0.0
C1451 C 0.71774 0.85839 0.47519 0.0
C1452 C 0.70583 0.84591 0.5071 0.0
C1453 C 0.73427 0.85953 0.51384 0.0
C1454 C 0.75435 0.87206 0.50095 0.0
C1455 C 0.74618 0.87157 0.48186 0.0
H1456 H 0.16399 0.9428 0.55938 0.0
H1457 H 0.12929 0.85401 0.56371 0.0
H1458 H 0.17498 0.93699 0.52733 0.0
H1459 H 0.14006 0.84816 0.53134 0.0
H1460 H 0.14008 0.84785 0.46544 0.0
H1461 H 0.12734 0.85149 0.49749 0.0
H1462 H 0.20784 0.92603 0.51247 0.0
H1463 H 0.22077 0.92222 0.48071 0.0
C1464 C 0.1589 0.92204 0.55356 0.0
C1465 C 0.1461 0.89894 0.56427 0.0
C1466 C 0.16515 0.91871 0.53514 0.0
C1467 C 0.15865 0.89217 0.52684 0.0
C1468 C 0.14518 0.86887 0.5373 0.0
C1469 C 0.13901 0.87222 0.55584 0.0
C1470 C 0.15517 0.86486 0.47562 0.0
C1471 C 0.1814 0.88488 0.47038 0.0
C1472 C 0.14784 0.86694 0.49398 0.0
C1473 C 0.16649 0.88917 0.50748 0.0
C1474 C 0.19278 0.90895 0.5023 0.0
C1475 C 0.20016 0.9068 0.48404 0.0
H1476 H 0.61649 0.8298 0.11268 0.0
H1477 H 0.5539 0.74433 0.11945 0.0
H1478 H 0.63043 0.83826 0.1468 0.0
H1479 H 0.56853 0.75239 0.15329 0.0
H1480 H 0.58386 0.7809 0.21573 0.0
H1481 H 0.56832 0.77732 0.18231 0.0
H1482 H 0.65423 0.82455 0.16987 0.0
H1483 H 0.66971 0.82835 0.20333 0.0
C1484 C 0.60564 0.81287 0.12146 0.0
C1485 C 0.5842 0.78635 0.11334 0.0
C1486 C 0.6138 0.81764 0.14097 0.0
C1487 C 0.60063 0.796 0.15279 0.0
C1488 C 0.5789 0.76963 0.14467 0.0
C1489 C 0.57076 0.76488 0.12521 0.0
C1490 C 0.5994 0.79059 0.20585 0.0
C1491 C 0.62801 0.80474 0.21214 0.0
C1492 C 0.59052 0.7885 0.1867 0.0
C1493 C 0.61003 0.80042 0.17338 0.0
C1494 C 0.63863 0.81539 0.17978 0.0
C1495 C 0.64752 0.81756 0.19896 0.0
H1496 H 0.27563 0.8348 0.13387 0.0
H1497 H 0.19119 0.80798 0.11176 0.0
H1498 H 0.26438 0.84161 0.16592 0.0
H1499 H 0.17976 0.81415 0.1437 0.0
H1500 H 0.17336 0.8492 0.20126 0.0
H1501 H 0.18917 0.84977 0.16979 0.0
H1502 H 0.2354 0.81071 0.18918 0.0
H1503 H 0.22017 0.81082 0.2208 0.0
C1504 C 0.25478 0.83068 0.13584 0.0
C1505 C 0.23425 0.8207 0.12033 0.0
C1506 C 0.24825 0.83431 0.15419 0.0
C1507 C 0.22113 0.82829 0.15738 0.0
C1508 C 0.2009 0.81921 0.14174 0.0
C1509 C 0.20737 0.81542 0.12346 0.0
C1510 C 0.18724 0.84113 0.19889 0.0
C1511 C 0.19541 0.82985 0.21352 0.0
C1512 C 0.1961 0.84122 0.18081 0.0
C1513 C 0.21345 0.83017 0.17695 0.0
C1514 C 0.22224 0.81959 0.19172 0.0
C1515 C 0.21325 0.81936 0.20978 0.0
H1516 H 0.16432 0.39867 0.11843 0.0
H1517 H 0.25206 0.45131 0.13735 0.0
H1518 H 0.15525 0.38315 0.15 0.0
H1519 H 0.24294 0.4354 0.16902 0.0
H1520 H 0.2156 0.37532 0.21711 0.0
H1521 H 0.22702 0.39211 0.18587 0.0
H1522 H 0.15612 0.40441 0.18193 0.0
H1523 H 0.14439 0.38711 0.21289 0.0
C1524 C 0.18168 0.40703 0.12936 0.0
C1525 C 0.20888 0.42646 0.12542 0.0
C1526 C 0.17646 0.39813 0.14745 0.0
C1527 C 0.19833 0.40831 0.16205 0.0
C1528 C 0.22569 0.42711 0.15802 0.0
C1529 C 0.23091 0.43615 0.13989 0.0
C1530 C 0.20249 0.38163 0.20955 0.0
C1531 C 0.17904 0.37981 0.21742 0.0
C1532 C 0.20915 0.39144 0.19175 0.0
C1533 C 0.19235 0.39939 0.1814 0.0
C1534 C 0.16925 0.3981 0.18946 0.0
C1535 C 0.16271 0.38849 0.20729 0.0
H1536 H 0.78383 0.55876 0.87774 0.0
H1537 H 0.76696 0.62485 0.89432 0.0
H1538 H 0.79424 0.57591 0.84671 0.0
H1539 H 0.7766 0.64164 0.8629 0.0
H1540 H 0.83524 0.68369 0.81573 0.0
H1541 H 0.81798 0.66524 0.84558 0.0
H1542 H 0.77376 0.581 0.81719 0.0
H1543 H 0.7911 0.59947 0.78735 0.0
C1544 C 0.78213 0.57685 0.87467 0.0
C1545 C 0.77485 0.59063 0.88853 0.0
C1546 C 0.7878 0.58651 0.8568 0.0
C1547 C 0.78632 0.6102 0.85232 0.0
C1548 C 0.77822 0.62351 0.86599 0.0
C1549 C 0.77244 0.61376 0.8839 0.0
C1550 C 0.82146 0.66128 0.8158 0.0
C1551 C 0.81474 0.64303 0.7992 0.0
C1552 C 0.81152 0.6507 0.8329 0.0
C1553 C 0.79461 0.62162 0.8338 0.0
C1554 C 0.78715 0.60346 0.81705 0.0
C1555 C 0.7971 0.61404 0.79996 0.0
H1556 H 0.4569 0.24946 0.90097 0.0
H1557 H 0.40298 0.15974 0.90042 0.0
H1558 H 0.44143 0.24665 0.86771 0.0
H1559 H 0.38773 0.15692 0.86693 0.0
H1560 H 0.38957 0.16271 0.80174 0.0
H1561 H 0.40541 0.16382 0.83481 0.0
H1562 H 0.3977 0.23644 0.84941 0.0
H1563 H 0.38149 0.23512 0.81659 0.0
C1564 C 0.4416 0.22914 0.89379 0.0
C1565 C 0.43093 0.20487 0.90345 0.0
C1566 C 0.43279 0.22753 0.87471 0.0
C1567 C 0.41318 0.2016 0.86474 0.0
C1568 C 0.40302 0.17718 0.8742 0.0
C1569 C 0.41176 0.1788 0.89337 0.0
C1570 C 0.391 0.17875 0.81204 0.0
C1571 C 0.38442 0.19895 0.80644 0.0
C1572 C 0.40011 0.17939 0.83097 0.0
C1573 C 0.40299 0.20034 0.84468 0.0
C1574 C 0.39621 0.22036 0.83911 0.0
C1575 C 0.38698 0.21963 0.82026 0.0
H1576 H 0.77041 0.21523 0.88384 0.0
H1577 H 0.85398 0.23648 0.90409 0.0
H1578 H 0.78063 0.2107 0.85113 0.0
H1579 H 0.86407 0.23135 0.87162 0.0
H1580 H 0.88471 0.25528 0.81233 0.0
H1581 H 0.8722 0.25654 0.84444 0.0
H1582 H 0.79066 0.18405 0.82779 0.0
H1583 H 0.80273 0.18371 0.79521 0.0
C1584 C 0.7908 0.2185 0.88129 0.0
C1585 C 0.8115 0.22652 0.89647 0.0
C1586 C 0.79667 0.21586 0.86257 0.0
C1587 C 0.82331 0.221 0.85869 0.0
C1588 C 0.84358 0.22794 0.87401 0.0
C1589 C 0.83778 0.23078 0.89263 0.0
C1590 C 0.86396 0.2398 0.81539 0.0
C1591 C 0.84469 0.21949 0.8011 0.0
C1592 C 0.85691 0.24025 0.83393 0.0
C1593 C 0.83047 0.22026 0.8388 0.0
C1594 C 0.81114 0.19989 0.82453 0.0
C1595 C 0.81818 0.1995 0.80589 0.0
H1596 H 0.21969 0.07879 0.45174 0.0
H1597 H 0.285 0.16398 0.44726 0.0
H1598 H 0.23408 0.08411 0.4855 0.0
H1599 H 0.29942 0.16936 0.48124 0.0
H1600 H 0.30005 0.17274 0.54711 0.0
H1601 H 0.28407 0.1703 0.51382 0.0
H1602 H 0.27553 0.08844 0.50351 0.0
H1603 H 0.29175 0.09095 0.53648 0.0
C1604 C 0.23715 0.09867 0.45799 0.0
C1605 C 0.2515 0.12082 0.44679 0.0
C1606 C 0.24538 0.10172 0.47732 0.0
C1607 C 0.26813 0.12701 0.48595 0.0
C1608 C 0.28174 0.14965 0.47498 0.0
C1609 C 0.2735 0.14658 0.45555 0.0
C1610 C 0.29496 0.15433 0.53768 0.0
C1611 C 0.29694 0.13192 0.54451 0.0
C1612 C 0.28578 0.15294 0.51864 0.0
C1613 C 0.27828 0.12906 0.50611 0.0
C1614 C 0.28057 0.10686 0.51291 0.0
C1615 C 0.28983 0.10829 0.53184 0.0
H1616 H 0.89473 0.10685 0.45911 0.0
H1617 H 0.92111 0.19395 0.45404 0.0
H1618 H 0.88349 0.1115 0.49125 0.0
H1619 H 0.91111 0.19904 0.48667 0.0
H1620 H 0.85316 0.1849 0.53441 0.0
H1621 H 0.87068 0.1844 0.50373 0.0
H1622 H 0.90176 0.13147 0.52307 0.0
H1623 H 0.88372 0.13159 0.55362 0.0
C1624 C 0.89838 0.1271 0.46494 0.0
C1625 C 0.9085 0.14994 0.4539 0.0
C1626 C 0.89226 0.12987 0.48349 0.0
C1627 C 0.89625 0.15563 0.49159 0.0
C1628 C 0.90737 0.17878 0.4808 0.0
C1629 C 0.91344 0.17597 0.46218 0.0
C1630 C 0.86405 0.17346 0.53218 0.0
C1631 C 0.86685 0.1581 0.54638 0.0
C1632 C 0.8742 0.17323 0.51459 0.0
C1633 C 0.88754 0.15777 0.51083 0.0
C1634 C 0.89111 0.14315 0.52531 0.0
C1635 C 0.88081 0.14324 0.54283 0.0
H1636 H 0.85444 0.784 0.46615 0.0
H1637 H 0.89002 0.73131 0.45515 0.0
H1638 H 0.845 0.76797 0.49754 0.0
H1639 H 0.88176 0.71624 0.48698 0.0
H1640 H 0.83 0.66998 0.53521 0.0
H1641 H 0.84292 0.68728 0.50441 0.0
H1642 H 0.86746 0.77109 0.52828 0.0
H1643 H 0.85418 0.75364 0.55905 0.0
C1644 C 0.8603 0.76902 0.47045 0.0
C1645 C 0.87277 0.75876 0.45807 0.0
C1646 C 0.85524 0.76012 0.48857 0.0
C1647 C 0.86263 0.74082 0.49481 0.0
C1648 C 0.87552 0.73088 0.48255 0.0
C1649 C 0.88053 0.73975 0.46438 0.0
C1650 C 0.83849 0.69216 0.53393 0.0
C1651 C 0.84098 0.71043 0.54954 0.0
C1652 C 0.84594 0.7021 0.51628 0.0
C1653 C 0.85616 0.73057 0.51384 0.0
C1654 C 0.8592 0.74895 0.52958 0.0
C1655 C 0.85163 0.73898 0.54721 0.0
loop_
_geom_bond_atom_site_label_1
_geom_bond_atom_site_label_2
_geom_bond_distance
_geom_bond_site_symmetry_2
_ccdc_geom_bond_type
H0 C5 0.930 . S
H1 C8 0.930 . S
H2 C10 0.930 . S
H3 C4 1.016 . S
C4 H3 1.016 . S
C4 N11 1.286 . S
C5 H0 0.930 . S
C5 C6 1.397 . S
C5 C7 1.361 . S
C6 C5 1.397 . S
C6 C10 1.390 . S
C7 C5 1.361 . S
C7 C8 1.393 . S
C7 N11 1.413 . S
C8 H1 0.930 . S
C8 C7 1.393 . S
C8 C9 1.399 . S
C9 C8 1.399 . S
C9 C10 1.381 . S
C10 H2 0.930 . S
C10 C6 1.390 . S
C10 C9 1.381 . S
N11 C4 1.286 . S
N11 C7 1.413 . S
H12 C17 0.930 . S
H13 C20 0.930 . S
H14 C22 0.930 . S
H15 C16 1.016 . S
C16 H15 1.016 . S
C16 N23 1.286 . S
C17 H12 0.930 . S
C17 C18 1.397 . S
C17 C19 1.361 . S
C18 C17 1.397 . S
C18 C22 1.390 . S
C19 C17 1.361 . S
C19 C20 1.393 . S
C19 N23 1.413 . S
C20 H13 0.930 . S
C20 C19 1.393 . S
C20 C21 1.399 . S
C21 C20 1.399 . S
C21 C22 1.381 . S
C22 H14 0.930 . S
C22 C18 1.390 . S
C22 C21 1.381 . S
N23 C16 1.286 . S
N23 C19 1.413 . S
H24 C29 0.930 . S
H25 C32 0.930 . S
H26 C34 0.930 . S
H27 C28 1.016 . S
C28 H27 1.016 . S
C28 N35 1.286 . S
C29 H24 0.930 . S
C29 C30 1.397 . S
C29 C31 1.361 . S
C30 C29 1.397 . S
C30 C34 1.390 . S
C31 C29 1.361 . S
C31 C32 1.393 . S
C31 N35 1.413 . S
C32 H25 0.930 . S
C32 C31 1.393 . S
C32 C33 1.399 . S
C33 C32 1.399 . S
C33 C34 1.381 . S
C34 H26 0.930 . S
C34 C30 1.390 . S
C34 C33 1.381 . S
N35 C28 1.286 . S
N35 C31 1.413 . S
H36 C41 0.930 . S
H37 C44 0.930 . S
H38 C46 0.930 . S
H39 C40 1.016 . S
C40 H39 1.016 . S
C40 N47 1.286 . S
C41 H36 0.930 . S
C41 C42 1.397 . S
C41 C43 1.361 . S
C42 C41 1.397 . S
C42 C46 1.390 . S
C43 C41 1.361 . S
C43 C44 1.393 . S
C43 N47 1.413 . S
C44 H37 0.930 . S
C44 C43 1.393 . S
C44 C45 1.399 . S
C45 C44 1.399 . S
C45 C46 1.381 . S
C46 H38 0.930 . S
C46 C42 1.390 . S
C46 C45 1.381 . S
N47 C40 1.286 . S
N47 C43 1.413 . S
H48 C53 0.930 . S
H49 C56 0.930 . S
H50 C58 0.930 . S
H51 C52 1.016 . S
C52 H51 1.016 . S
C52 N59 1.286 . S
C53 H48 0.930 . S
C53 C54 1.397 . S
C53 C55 1.361 . S
C54 C53 1.397 . S
C54 C58 1.390 . S
C55 C53 1.361 . S
C55 C56 1.393 . S
C55 N59 1.413 . S
C56 H49 0.930 . S
C56 C55 1.393 . S
C56 C57 1.399 . S
C57 C56 1.399 . S
C57 C58 1.381 . S
C58 H50 0.930 . S
C58 C54 1.390 . S
C58 C57 1.381 . S
N59 C52 1.286 . S
N59 C55 1.413 . S
H60 C65 0.930 . S
H61 C68 0.930 . S
H62 C70 0.930 . S
H63 C64 1.016 . S
C64 H63 1.016 . S
C64 N71 1.286 . S
C65 H60 0.930 . S
C65 C66 1.397 . S
C65 C67 1.361 . S
C66 C65 1.397 . S
C66 C70 1.390 . S
C67 C65 1.361 . S
C67 C68 1.393 . S
C67 N71 1.413 . S
C68 H61 0.930 . S
C68 C67 1.393 . S
C68 C69 1.399 . S
C69 C68 1.399 . S
C69 C70 1.381 . S
C70 H62 0.930 . S
C70 C66 1.390 . S
C70 C69 1.381 . S
N71 C64 1.286 . S
N71 C67 1.413 . S
H72 C77 0.930 . S
H73 C80 0.930 . S
H74 C82 0.930 . S
H75 C76 1.016 . S
C76 H75 1.016 . S
C76 N83 1.286 . S
C77 H72 0.930 . S
C77 C78 1.397 . S
C77 C79 1.361 . S
C78 C77 1.397 . S
C78 C82 1.390 . S
C79 C77 1.361 . S
C79 C80 1.393 . S
C79 N83 1.413 . S
C80 H73 0.930 . S
C80 C79 1.393 . S
C80 C81 1.399 . S
C81 C80 1.399 . S
C81 C82 1.381 . S
C82 H74 0.930 . S
C82 C78 1.390 . S
C82 C81 1.381 . S
N83 C76 1.286 . S
N83 C79 1.413 . S
H84 C89 0.930 . S
H85 C92 0.930 . S
H86 C94 0.930 . S
H87 C88 1.016 . S
C88 H87 1.016 . S
C88 N95 1.286 . S
C89 H84 0.930 . S
C89 C90 1.397 . S
C89 C91 1.361 . S
C90 C89 1.397 . S
C90 C94 1.390 . S
C91 C89 1.361 . S
C91 C92 1.393 . S
C91 N95 1.413 . S
C92 H85 0.930 . S
C92 C91 1.393 . S
C92 C93 1.399 . S
C93 C92 1.399 . S
C93 C94 1.381 . S
C94 H86 0.930 . S
C94 C90 1.390 . S
C94 C93 1.381 . S
N95 C88 1.286 . S
N95 C91 1.413 . S
H96 C101 0.930 . S
H97 C104 0.930 . S
H98 C106 0.930 . S
H99 C100 1.016 . S
C100 H99 1.016 . S
C100 N107 1.286 . S
C101 H96 0.930 . S
C101 C102 1.397 . S
C101 C103 1.361 . S
C102 C101 1.397 . S
C102 C106 1.390 . S
C103 C101 1.361 . S
C103 C104 1.393 . S
C103 N107 1.413 . S
C104 H97 0.930 . S
C104 C103 1.393 . S
C104 C105 1.399 . S
C105 C104 1.399 . S
C105 C106 1.381 . S
C106 H98 0.930 . S
C106 C102 1.390 . S
C106 C105 1.381 . S
N107 C100 1.286 . S
N107 C103 1.413 . S
H108 C113 0.930 . S
H109 C116 0.930 . S
H110 C118 0.930 . S
H111 C112 1.016 . S
C112 H111 1.016 . S
C112 N119 1.286 . S
C113 H108 0.930 . S
C113 C114 1.397 . S
C113 C115 1.361 . S
C114 C113 1.397 . S
C114 C118 1.390 . S
C115 C113 1.361 . S
C115 C116 1.393 . S
C115 N119 1.413 . S
C116 H109 0.930 . S
C116 C115 1.393 . S
C116 C117 1.399 . S
C117 C116 1.399 . S
C117 C118 1.381 . S
C118 H110 0.930 . S
C118 C114 1.390 . S
C118 C117 1.381 . S
N119 C112 1.286 . S
N119 C115 1.413 . S
H120 C125 0.930 . S
H121 C128 0.930 . S
H122 C130 0.930 . S
H123 C124 1.016 . S
C124 H123 1.016 . S
C124 N131 1.286 . S
C125 H120 0.930 . S
C125 C126 1.397 . S
C125 C127 1.361 . S
C126 C125 1.397 . S
C126 C130 1.390 . S
C127 C125 1.361 . S
C127 C128 1.393 . S
C127 N131 1.413 . S
C128 H121 0.930 . S
C128 C127 1.393 . S
C128 C129 1.399 . S
C129 C128 1.399 . S
C129 C130 1.381 . S
C130 H122 0.930 . S
C130 C126 1.390 . S
C130 C129 1.381 . S
N131 C124 1.286 . S
N131 C127 1.413 . S
H132 C137 0.930 . S
H133 C140 0.930 . S
H134 C142 0.930 . S
H135 C136 1.016 . S
C136 H135 1.016 . S
C136 N143 1.286 . S
C137 H132 0.930 . S
C137 C138 1.397 . S
C137 C139 1.361 . S
C138 C137 1.397 . S
C138 C142 1.390 . S
C139 C137 1.361 . S
C139 C140 1.393 . S
C139 N143 1.413 . S
C140 H133 0.930 . S
C140 C139 1.393 . S
C140 C141 1.399 . S
C141 C140 1.399 . S
C141 C142 1.381 . S
C142 H134 0.930 . S
C142 C138 1.390 . S
C142 C141 1.381 . S
N143 C136 1.286 . S
N143 C139 1.413 . S
H144 C149 0.930 . S
H145 C152 0.930 . S
H146 C154 0.930 . S
H147 C148 1.016 . S
C148 H147 1.016 . S
C148 N155 1.286 . S
C149 H144 0.930 . S
C149 C150 1.397 . S
C149 C151 1.361 . S
C150 C149 1.397 . S
C150 C154 1.390 . S
C151 C149 1.361 . S
C151 C152 1.393 . S
C151 N155 1.413 . S
C152 H145 0.930 . S
C152 C151 1.393 . S
C152 C153 1.399 . S
C153 C152 1.399 . S
C153 C154 1.381 . S
C154 H146 0.930 . S
C154 C150 1.390 . S
C154 C153 1.381 . S
N155 C148 1.286 . S
N155 C151 1.413 . S
H156 C161 0.930 . S
H157 C164 0.930 . S
H158 C166 0.930 . S
H159 C160 1.016 . S
C160 H159 1.016 . S
C160 N167 1.286 . S
C161 H156 0.930 . S
C161 C162 1.397 . S
C161 C163 1.361 . S
C162 C161 1.397 . S
C162 C166 1.390 . S
C163 C161 1.361 . S
C163 C164 1.393 . S
C163 N167 1.413 . S
C164 H157 0.930 . S
C164 C163 1.393 . S
C164 C165 1.399 . S
C165 C164 1.399 . S
C165 C166 1.381 . S
C166 H158 0.930 . S
C166 C162 1.390 . S
C166 C165 1.381 . S
N167 C160 1.286 . S
N167 C163 1.413 . S
H168 C173 0.930 . S
H169 C176 0.930 . S
H170 C178 0.930 . S
H171 C172 1.016 . S
C172 H171 1.016 . S
C172 N179 1.286 . S
C173 H168 0.930 . S
C173 C174 1.397 . S
C173 C175 1.361 . S
C174 C173 1.397 . S
C174 C178 1.390 . S
C175 C173 1.361 . S
C175 C176 1.393 . S
C175 N179 1.413 . S
C176 H169 0.930 . S
C176 C175 1.393 . S
C176 C177 1.399 . S
C177 C176 1.399 . S
C177 C178 1.381 . S
C178 H170 0.930 . S
C178 C174 1.390 . S
C178 C177 1.381 . S
N179 C172 1.286 . S
N179 C175 1.413 . S
H180 C185 0.930 . S
H181 C188 0.930 . S
H182 C190 0.930 . S
H183 C184 1.016 . S
C184 H183 1.016 . S
C184 N191 1.286 . S
C185 H180 0.930 . S
C185 C186 1.397 . S
C185 C187 1.361 . S
C186 C185 1.397 . S
C186 C190 1.390 . S
C187 C185 1.361 . S
C187 C188 1.393 . S
C187 N191 1.413 . S
C188 H181 0.930 . S
C188 C187 1.393 . S
C188 C189 1.399 . S
C189 C188 1.399 . S
C189 C190 1.381 . S
C190 H182 0.930 . S
C190 C186 1.390 . S
C190 C189 1.381 . S
N191 C184 1.286 . S
N191 C187 1.413 . S
H192 C197 0.930 . S
H193 C200 0.930 . S
H194 C202 0.930 . S
H195 C196 1.016 . S
C196 H195 1.016 . S
C196 N203 1.286 . S
C197 H192 0.930 . S
C197 C198 1.397 . S
C197 C199 1.361 . S
C198 C197 1.397 . S
C198 C202 1.390 . S
C199 C197 1.361 . S
C199 C200 1.393 . S
C199 N203 1.413 . S
C200 H193 0.930 . S
C200 C199 1.393 . S
C200 C201 1.399 . S
C201 C200 1.399 . S
C201 C202 1.381 . S
C202 H194 0.930 . S
C202 C198 1.390 . S
C202 C201 1.381 . S
N203 C196 1.286 . S
N203 C199 1.413 . S
H204 C209 0.930 . S
H205 C212 0.930 . S
H206 C214 0.930 . S
H207 C208 1.016 . S
C208 H207 1.016 . S
C208 N215 1.286 . S
C209 H204 0.930 . S
C209 C210 1.397 . S
C209 C211 1.361 . S
C210 C209 1.397 . S
C210 C214 1.390 . S
C211 C209 1.361 . S
C211 C212 1.393 . S
C211 N215 1.413 . S
C212 H205 0.930 . S
C212 C211 1.393 . S
C212 C213 1.399 . S
C213 C212 1.399 . S
C213 C214 1.381 . S
C214 H206 0.930 . S
C214 C210 1.390 . S
C214 C213 1.381 . S
N215 C208 1.286 . S
N215 C211 1.413 . S
C216 Eu217 2.835 . S
C216 C218 1.500 1_545 S
C216 O236 1.257 1_545 S
C216 O237 1.260 . S
Eu217 C216 2.835 . S
Eu217 O236 2.473 1_545 S
Eu217 O237 2.480 . S
Eu217 O238 2.430 . S
Eu217 O239 2.670 1_554 S
Eu217 O240 2.394 1_545 S
Eu217 O245 2.355 1_545 S
Eu217 O247 2.374 . S
C218 C216 1.500 1_565 S
C218 C219 1.377 1_565 S
C218 C223 1.377 . S
C219 C218 1.377 1_545 S
C219 C220 1.399 . S
C219 H248 0.931 . S
C220 C219 1.399 . S
C220 C221 1.365 1_545 S
C220 H249 0.945 . S
C221 C220 1.365 1_565 S
C221 C222 1.394 . S
C222 C221 1.394 . S
C222 C223 1.378 . S
C222 H250 0.931 . S
C223 C218 1.377 . S
C223 C222 1.378 . S
C223 H251 0.931 . S
C224 O238 1.259 . S
C224 O239 1.270 1_554 S
C225 O240 1.251 . S
C225 O241 1.251 1_554 S
C226 Eu227 2.835 1_545 S
C226 C228 1.500 . S
C226 O242 1.257 . S
C226 O243 1.260 1_545 S
Eu227 C226 2.835 1_565 S
Eu227 O239 2.355 1_565 S
Eu227 O241 2.374 . S
Eu227 O242 2.473 1_565 S
Eu227 O243 2.480 . S
Eu227 O244 2.430 . S
Eu227 O245 2.670 1_556 S
Eu227 O246 2.394 1_565 S
C228 C226 1.500 . S
C228 C229 1.377 . S
C228 C233 1.377 . S
C229 C228 1.377 . S
C229 C230 1.395 . S
C229 H252 0.931 1_545 S
C230 C229 1.395 . S
C230 C231 1.383 . S
C230 H253 0.931 1_545 S
C231 C230 1.383 . S
C231 C232 1.394 . S
C232 C231 1.394 . S
C232 C233 1.378 . S
C232 H254 0.931 . S
C233 C228 1.377 . S
C233 C232 1.378 . S
C233 H255 0.931 . S
C234 O244 1.259 1_554 S
C234 O245 1.270 . S
C235 O246 1.251 . S
C235 O247 1.251 1_556 S
O236 C216 1.257 1_565 S
O236 Eu217 2.473 1_565 S
O237 C216 1.260 . S
O237 Eu217 2.480 . S
O238 Eu217 2.430 . S
O238 C224 1.259 . S
O239 Eu217 2.670 1_556 S
O239 C224 1.270 1_556 S
O239 Eu227 2.355 1_545 S
O240 Eu217 2.394 1_565 S
O240 C225 1.251 . S
O241 C225 1.251 1_556 S
O241 Eu227 2.374 . S
O242 C226 1.257 . S
O242 Eu227 2.473 1_545 S
O243 C226 1.260 1_565 S
O243 Eu227 2.480 . S
O244 Eu227 2.430 . S
O244 C234 1.259 1_556 S
O245 Eu217 2.355 1_565 S
O245 Eu227 2.670 1_554 S
O245 C234 1.270 . S
O246 Eu227 2.394 1_545 S
O246 C235 1.251 . S
O247 Eu217 2.374 . S
O247 C235 1.251 1_554 S
H248 C219 0.931 . S
H249 C220 0.945 . S
H250 C222 0.931 . S
H251 C223 0.931 . S
H252 C229 0.931 1_565 S
H253 C230 0.931 1_565 S
H254 C232 0.931 . S
H255 C233 0.931 . S
C256 Eu257 2.835 1_455 S
C256 C258 1.500 . S
C256 O276 1.257 . S
C256 O277 1.260 1_455 S
Eu257 C256 2.835 1_655 S
Eu257 O276 2.473 1_655 S
Eu257 O277 2.480 . S
Eu257 O278 2.430 . S
Eu257 O279 2.670 1_554 S
Eu257 O280 2.394 1_655 S
Eu257 O285 2.355 1_655 S
Eu257 O287 2.374 . S
C258 C256 1.500 . S
C258 C259 1.377 . S
C258 C263 1.377 . S
C259 C258 1.377 . S
C259 C260 1.395 . S
C259 H288 0.931 1_455 S
C260 C259 1.395 . S
C260 C261 1.383 . S
C260 H289 0.931 . S
C261 C260 1.383 . S
C261 C262 1.394 . S
C262 C261 1.394 . S
C262 C263 1.378 . S
C262 H290 0.931 . S
C263 C258 1.377 . S
C263 C262 1.378 . S
C263 H291 0.931 . S
C264 O278 1.259 . S
C264 O279 1.270 1_554 S
C265 O280 1.251 . S
C265 O281 1.251 . S
C266 Eu267 2.835 1_655 S
C266 C268 1.500 . S
C266 O282 1.257 . S
C266 O283 1.260 1_655 S
Eu267 C266 2.835 1_455 S
Eu267 O279 2.355 1_455 S
Eu267 O281 2.374 1_556 S
Eu267 O282 2.473 1_455 S
Eu267 O283 2.480 . S
Eu267 O284 2.430 . S
Eu267 O285 2.670 1_556 S
Eu267 O286 2.394 1_455 S
C268 C266 1.500 . S
C268 C269 1.377 . S
C268 C273 1.377 . S
C269 C268 1.377 . S
C269 C270 1.395 . S
C269 H292 0.931 1_655 S
C270 C269 1.395 . S
C270 C271 1.383 . S
C270 H293 0.931 1_655 S
C271 C270 1.383 . S
C271 C272 1.394 . S
C272 C271 1.394 . S
C272 C273 1.378 . S
C272 H294 0.931 . S
C273 C268 1.377 . S
C273 C272 1.378 . S
C273 H295 0.931 . S
C274 O284 1.259 1_554 S
C274 O285 1.270 . S
C275 O286 1.251 . S
C275 O287 1.251 1_556 S
O276 C256 1.257 . S
O276 Eu257 2.473 1_455 S
O277 C256 1.260 1_655 S
O277 Eu257 2.480 . S
O278 Eu257 2.430 . S
O278 C264 1.259 . S
O279 Eu257 2.670 1_556 S
O279 C264 1.270 1_556 S
O279 Eu267 2.355 1_655 S
O280 Eu257 2.394 1_455 S
O280 C265 1.251 . S
O281 C265 1.251 . S
O281 Eu267 2.374 1_554 S
O282 C266 1.257 . S
O282 Eu267 2.473 1_655 S
O283 C266 1.260 1_455 S
O283 Eu267 2.480 . S
O284 Eu267 2.430 . S
O284 C274 1.259 1_556 S
O285 Eu257 2.355 1_455 S
O285 Eu267 2.670 1_554 S
O285 C274 1.270 . S
O286 Eu267 2.394 1_655 S
O286 C275 1.251 . S
O287 Eu257 2.374 . S
O287 C275 1.251 1_554 S
H288 C259 0.931 1_655 S
H289 C260 0.931 . S
H290 C262 0.931 . S
H291 C263 0.931 . S
H292 C269 0.931 1_455 S
H293 C270 0.931 1_455 S
H294 C272 0.931 . S
H295 C273 0.931 . S
C296 Eu297 2.835 . S
C296 C298 1.500 . S
C296 O316 1.257 . S
C296 O317 1.260 . S
Eu297 C296 2.835 . S
Eu297 O316 2.473 . S
Eu297 O317 2.480 . S
Eu297 O318 2.430 . S
Eu297 O319 2.670 1_556 S
Eu297 O320 2.394 . S
Eu297 O325 2.355 1_556 S
Eu297 O327 2.374 1_556 S
C298 C296 1.500 . S
C298 C299 1.377 . S
C298 C303 1.377 . S
C299 C298 1.377 . S
C299 C300 1.395 . S
C299 H328 0.931 . S
C300 C299 1.395 . S
C300 C301 1.383 . S
C300 H329 0.931 . S
C301 C300 1.383 . S
C301 C302 1.394 . S
C302 C301 1.394 . S
C302 C303 1.378 . S
C302 H330 0.931 . S
C303 C298 1.377 . S
C303 C302 1.378 . S
C303 H331 0.931 . S
C304 O318 1.259 1_554 S
C304 O319 1.270 . S
C305 O320 1.251 . S
C305 O321 1.251 1_556 S
C306 Eu307 2.835 . S
C306 C308 1.500 . S
C306 O322 1.257 . S
C306 O323 1.260 . S
Eu307 C306 2.835 . S
Eu307 O319 2.355 . S
Eu307 O321 2.374 . S
Eu307 O322 2.473 . S
Eu307 O323 2.480 . S
Eu307 O324 2.430 . S
Eu307 O325 2.670 . S
Eu307 O326 2.394 . S
C308 C306 1.500 . S
C308 C309 1.377 . S
C308 C313 1.377 . S
C309 C308 1.377 . S
C309 C310 1.395 . S
C309 H332 0.931 . S
C310 C309 1.395 . S
C310 C311 1.383 . S
C310 H333 0.931 . S
C311 C310 1.383 . S
C311 C312 1.394 . S
C312 C311 1.394 . S
C312 C313 1.378 . S
C312 H334 0.931 . S
C313 C308 1.377 . S
C313 C312 1.378 . S
C313 H335 0.931 . S
C314 O324 1.259 . S
C314 O325 1.270 . S
C315 O326 1.251 . S
C315 O327 1.251 . S
O316 C296 1.257 . S
O316 Eu297 2.473 . S
O317 C296 1.260 . S
O317 Eu297 2.480 . S
O318 Eu297 2.430 . S
O318 C304 1.259 1_556 S
O319 Eu297 2.670 1_554 S
O319 C304 1.270 . S
O319 Eu307 2.355 . S
O320 Eu297 2.394 . S
O320 C305 1.251 . S
O321 C305 1.251 1_554 S
O321 Eu307 2.374 . S
O322 C306 1.257 . S
O322 Eu307 2.473 . S
O323 C306 1.260 . S
O323 Eu307 2.480 . S
O324 Eu307 2.430 . S
O324 C314 1.259 . S
O325 Eu297 2.355 1_554 S
O325 Eu307 2.670 . S
O325 C314 1.270 . S
O326 Eu307 2.394 . S
O326 C315 1.251 . S
O327 Eu297 2.374 1_554 S
O327 C315 1.251 . S
H328 C299 0.931 . S
H329 C300 0.931 . S
H330 C302 0.931 . S
H331 C303 0.931 . S
H332 C309 0.931 . S
H333 C310 0.931 . S
H334 C312 0.931 . S
H335 C313 0.931 . S
C336 Eu337 2.835 . S
C336 C338 1.500 . S
C336 O356 1.257 . S
C336 O357 1.260 . S
Eu337 C336 2.835 . S
Eu337 O356 2.473 . S
Eu337 O357 2.480 . S
Eu337 O358 2.430 . S
Eu337 O359 2.670 . S
Eu337 O360 2.394 . S
Eu337 O365 2.355 . S
Eu337 O367 2.374 . S
C338 C336 1.500 . S
C338 C339 1.377 . S
C338 C343 1.377 . S
C339 C338 1.377 . S
C339 C340 1.395 . S
C339 H368 0.931 . S
C340 C339 1.395 . S
C340 C341 1.383 . S
C340 H369 0.931 . S
C341 C340 1.383 . S
C341 C342 1.394 . S
C342 C341 1.394 . S
C342 C343 1.378 . S
C342 H370 0.931 . S
C343 C338 1.377 . S
C343 C342 1.378 . S
C343 H371 0.931 . S
C344 O358 1.259 . S
C344 O359 1.270 . S
C345 O360 1.251 . S
C345 O361 1.251 . S
C346 Eu347 2.835 . S
C346 C348 1.500 . S
C346 O362 1.257 . S
C346 O363 1.260 . S
Eu347 C346 2.835 . S
Eu347 O359 2.355 . S
Eu347 O361 2.374 . S
Eu347 O362 2.473 . S
Eu347 O363 2.480 . S
Eu347 O364 2.430 . S
Eu347 O365 2.670 . S
Eu347 O366 2.394 . S
C348 C346 1.500 . S
C348 C349 1.377 . S
C348 C353 1.377 . S
C349 C348 1.377 . S
C349 C350 1.395 . S
C349 H372 0.931 . S
C350 C349 1.395 . S
C350 C351 1.383 . S
C350 H373 0.931 . S
C351 C350 1.383 . S
C351 C352 1.394 . S
C352 C351 1.394 . S
C352 C353 1.378 . S
C352 H374 0.931 . S
C353 C348 1.377 . S
C353 C352 1.378 . S
C353 H375 0.931 . S
C354 O364 1.259 . S
C354 O365 1.270 . S
C355 O366 1.251 . S
C355 O367 1.251 . S
O356 C336 1.257 . S
O356 Eu337 2.473 . S
O357 C336 1.260 . S
O357 Eu337 2.480 . S
O358 Eu337 2.430 . S
O358 C344 1.259 . S
O359 Eu337 2.670 . S
O359 C344 1.270 . S
O359 Eu347 2.355 . S
O360 Eu337 2.394 . S
O360 C345 1.251 . S
O361 C345 1.251 . S
O361 Eu347 2.374 . S
O362 C346 1.257 . S
O362 Eu347 2.473 . S
O363 C346 1.260 . S
O363 Eu347 2.480 . S
O364 Eu347 2.430 . S
O364 C354 1.259 . S
O365 Eu337 2.355 . S
O365 Eu347 2.670 . S
O365 C354 1.270 . S
O366 Eu347 2.394 . S
O366 C355 1.251 . S
O367 Eu337 2.374 . S
O367 C355 1.251 . S
H368 C339 0.931 . S
H369 C340 0.931 . S
H370 C342 0.931 . S
H371 C343 0.931 . S
H372 C349 0.931 . S
H373 C350 0.931 . S
H374 C352 0.931 . S
H375 C353 0.931 . S
C376 Eu377 2.835 . S
C376 C378 1.500 . S
C376 O396 1.257 . S
C376 O397 1.260 . S
Eu377 C376 2.835 . S
Eu377 O396 2.473 . S
Eu377 O397 2.480 . S
Eu377 O398 2.430 . S
Eu377 O399 2.670 . S
Eu377 O400 2.394 . S
Eu377 O405 2.355 . S
Eu377 O407 2.374 . S
C378 C376 1.500 . S
C378 C379 1.377 . S
C378 C383 1.377 . S
C379 C378 1.377 . S
C379 C380 1.395 . S
C379 H408 0.931 . S
C380 C379 1.395 . S
C380 C381 1.383 . S
C380 H409 0.931 . S
C381 C380 1.383 . S
C381 C382 1.394 . S
C382 C381 1.394 . S
C382 C383 1.378 . S
C382 H410 0.931 . S
C383 C378 1.377 . S
C383 C382 1.378 . S
C383 H411 0.931 . S
C384 O398 1.259 . S
C384 O399 1.270 . S
C385 O400 1.251 . S
C385 O401 1.251 . S
C386 Eu387 2.835 . S
C386 C388 1.500 . S
C386 O402 1.257 . S
C386 O403 1.260 . S
Eu387 C386 2.835 . S
Eu387 O399 2.355 . S
Eu387 O401 2.374 . S
Eu387 O402 2.473 . S
Eu387 O403 2.480 . S
Eu387 O404 2.430 . S
Eu387 O405 2.670 . S
Eu387 O406 2.394 . S
C388 C386 1.500 . S
C388 C389 1.377 . S
C388 C393 1.377 . S
C389 C388 1.377 . S
C389 C390 1.395 . S
C389 H412 0.931 . S
C390 C389 1.395 . S
C390 C391 1.383 . S
C390 H413 0.931 . S
C391 C390 1.383 . S
C391 C392 1.394 . S
C392 C391 1.394 . S
C392 C393 1.378 . S
C392 H414 0.931 . S
C393 C388 1.377 . S
C393 C392 1.378 . S
C393 H415 0.931 . S
C394 O404 1.259 . S
C394 O405 1.270 . S
C395 O406 1.251 . S
C395 O407 1.251 . S
O396 C376 1.257 . S
O396 Eu377 2.473 . S
O397 C376 1.260 . S
O397 Eu377 2.480 . S
O398 Eu377 2.430 . S
O398 C384 1.259 . S
O399 Eu377 2.670 . S
O399 C384 1.270 . S
O399 Eu387 2.355 . S
O400 Eu377 2.394 . S
O400 C385 1.251 . S
O401 C385 1.251 . S
O401 Eu387 2.374 . S
O402 C386 1.257 . S
O402 Eu387 2.473 . S
O403 C386 1.260 . S
O403 Eu387 2.480 . S
O404 Eu387 2.430 . S
O404 C394 1.259 . S
O405 Eu377 2.355 . S
O405 Eu387 2.670 . S
O405 C394 1.270 . S
O406 Eu387 2.394 . S
O406 C395 1.251 . S
O407 Eu377 2.374 . S
O407 C395 1.251 . S
H408 C379 0.931 . S
H409 C380 0.931 . S
H410 C382 0.931 . S
H411 C383 0.931 . S
H412 C389 0.931 . S
H413 C390 0.931 . S
H414 C392 0.931 . S
H415 C393 0.931 . S
C416 Eu417 2.835 . S
C416 C418 1.500 . S
C416 O436 1.257 . S
C416 O437 1.260 . S
Eu417 C416 2.835 . S
Eu417 O436 2.473 . S
Eu417 O437 2.480 . S
Eu417 O438 2.430 . S
Eu417 O439 2.670 . S
Eu417 O440 2.394 . S
Eu417 O445 2.355 . S
Eu417 O447 2.374 . S
C418 C416 1.500 . S
C418 C419 1.377 . S
C418 C423 1.377 . S
C419 C418 1.377 . S
C419 C420 1.395 . S
C419 H448 0.931 . S
C420 C419 1.395 . S
C420 C421 1.383 . S
C420 H449 0.931 . S
C421 C420 1.383 . S
C421 C422 1.394 . S
C422 C421 1.394 . S
C422 C423 1.378 . S
C422 H450 0.931 . S
C423 C418 1.377 . S
C423 C422 1.378 . S
C423 H451 0.931 . S
C424 O438 1.259 . S
C424 O439 1.270 . S
C425 O440 1.251 . S
C425 O441 1.251 . S
C426 Eu427 2.835 . S
C426 C428 1.500 . S
C426 O442 1.257 . S
C426 O443 1.260 . S
Eu427 C426 2.835 . S
Eu427 O439 2.355 . S
Eu427 O441 2.374 . S
Eu427 O442 2.473 . S
Eu427 O443 2.480 . S
Eu427 O444 2.430 . S
Eu427 O445 2.670 . S
Eu427 O446 2.394 . S
C428 C426 1.500 . S
C428 C429 1.377 . S
C428 C433 1.377 . S
C429 C428 1.377 . S
C429 C430 1.395 . S
C429 H452 0.931 . S
C430 C429 1.395 . S
C430 C431 1.383 . S
C430 H453 0.931 . S
C431 C430 1.383 . S
C431 C432 1.394 . S
C432 C431 1.394 . S
C432 C433 1.378 . S
C432 H454 0.931 . S
C433 C428 1.377 . S
C433 C432 1.378 . S
C433 H455 0.931 . S
C434 O444 1.259 . S
C434 O445 1.270 . S
C435 O446 1.251 . S
C435 O447 1.251 . S
O436 C416 1.257 . S
O436 Eu417 2.473 . S
O437 C416 1.260 . S
O437 Eu417 2.480 . S
O438 Eu417 2.430 . S
O438 C424 1.259 . S
O439 Eu417 2.670 . S
O439 C424 1.270 . S
O439 Eu427 2.355 . S
O440 Eu417 2.394 . S
O440 C425 1.251 . S
O441 C425 1.251 . S
O441 Eu427 2.374 . S
O442 C426 1.257 . S
O442 Eu427 2.473 . S
O443 C426 1.260 . S
O443 Eu427 2.480 . S
O444 Eu427 2.430 . S
O444 C434 1.259 . S
O445 Eu417 2.355 . S
O445 Eu427 2.670 . S
O445 C434 1.270 . S
O446 Eu427 2.394 . S
O446 C435 1.251 . S
O447 Eu417 2.374 . S
O447 C435 1.251 . S
H448 C419 0.931 . S
H449 C420 0.931 . S
H450 C422 0.931 . S
H451 C423 0.931 . S
H452 C429 0.931 . S
H453 C430 0.931 . S
H454 C432 0.931 . S
H455 C433 0.931 . S
C456 Eu457 2.835 . S
C456 C458 1.500 . S
C456 O476 1.257 . S
C456 O477 1.260 . S
Eu457 C456 2.835 . S
Eu457 O476 2.473 . S
Eu457 O477 2.480 . S
Eu457 O478 2.430 . S
Eu457 O479 2.670 . S
Eu457 O480 2.394 . S
Eu457 O485 2.355 . S
Eu457 O487 2.374 . S
C458 C456 1.500 . S
C458 C459 1.377 . S
C458 C463 1.377 . S
C459 C458 1.377 . S
C459 C460 1.395 . S
C459 H488 0.931 . S
C460 C459 1.395 . S
C460 C461 1.383 . S
C460 H489 0.931 . S
C461 C460 1.383 . S
C461 C462 1.394 . S
C462 C461 1.394 . S
C462 C463 1.378 . S
C462 H490 0.931 . S
C463 C458 1.377 . S
C463 C462 1.378 . S
C463 H491 0.931 . S
C464 O478 1.259 . S
C464 O479 1.270 . S
C465 O480 1.251 . S
C465 O481 1.251 . S
C466 Eu467 2.835 . S
C466 C468 1.500 . S
C466 O482 1.257 . S
C466 O483 1.260 . S
Eu467 C466 2.835 . S
Eu467 O479 2.355 . S
Eu467 O481 2.374 . S
Eu467 O482 2.473 . S
Eu467 O483 2.480 . S
Eu467 O484 2.430 . S
Eu467 O485 2.670 . S
Eu467 O486 2.394 . S
C468 C466 1.500 . S
C468 C469 1.377 . S
C468 C473 1.377 . S
C469 C468 1.377 . S
C469 C470 1.395 . S
C469 H492 0.931 . S
C470 C469 1.395 . S
C470 C471 1.383 . S
C470 H493 0.931 . S
C471 C470 1.383 . S
C471 C472 1.394 . S
C472 C471 1.394 . S
C472 C473 1.378 . S
C472 H494 0.931 . S
C473 C468 1.377 . S
C473 C472 1.378 . S
C473 H495 0.931 . S
C474 O484 1.259 . S
C474 O485 1.270 . S
C475 O486 1.251 . S
C475 O487 1.251 . S
O476 C456 1.257 . S
O476 Eu457 2.473 . S
O477 C456 1.260 . S
O477 Eu457 2.480 . S
O478 Eu457 2.430 . S
O478 C464 1.259 . S
O479 Eu457 2.670 . S
O479 C464 1.270 . S
O479 Eu467 2.355 . S
O480 Eu457 2.394 . S
O480 C465 1.251 . S
O481 C465 1.251 . S
O481 Eu467 2.374 . S
O482 C466 1.257 . S
O482 Eu467 2.473 . S
O483 C466 1.260 . S
O483 Eu467 2.480 . S
O484 Eu467 2.430 . S
O484 C474 1.259 . S
O485 Eu457 2.355 . S
O485 Eu467 2.670 . S
O485 C474 1.270 . S
O486 Eu467 2.394 . S
O486 C475 1.251 . S
O487 Eu457 2.374 . S
O487 C475 1.251 . S
H488 C459 0.931 . S
H489 C460 0.931 . S
H490 C462 0.931 . S
H491 C463 0.931 . S
H492 C469 0.931 . S
H493 C470 0.931 . S
H494 C472 0.931 . S
H495 C473 0.931 . S
C496 Eu497 2.835 . S
C496 C498 1.500 . S
C496 O516 1.257 . S
C496 O517 1.260 . S
Eu497 C496 2.835 . S
Eu497 O516 2.473 . S
Eu497 O517 2.480 . S
Eu497 O518 2.430 . S
Eu497 O519 2.670 . S
Eu497 O520 2.394 . S
Eu497 O525 2.355 . S
Eu497 O527 2.374 . S
C498 C496 1.500 . S
C498 C499 1.377 . S
C498 C503 1.377 . S
C499 C498 1.377 . S
C499 C500 1.395 . S
C499 H528 0.931 . S
C500 C499 1.395 . S
C500 C501 1.383 . S
C500 H529 0.931 . S
C501 C500 1.383 . S
C501 C502 1.394 . S
C502 C501 1.394 . S
C502 C503 1.378 . S
C502 H530 0.931 . S
C503 C498 1.377 . S
C503 C502 1.378 . S
C503 H531 0.931 . S
C504 O518 1.259 . S
C504 O519 1.270 . S
C505 O520 1.251 . S
C505 O521 1.251 . S
C506 Eu507 2.835 . S
C506 C508 1.500 . S
C506 O522 1.257 . S
C506 O523 1.260 . S
Eu507 C506 2.835 . S
Eu507 O519 2.355 . S
Eu507 O521 2.374 . S
Eu507 O522 2.473 . S
Eu507 O523 2.480 . S
Eu507 O524 2.430 . S
Eu507 O525 2.670 . S
Eu507 O526 2.394 . S
C508 C506 1.500 . S
C508 C509 1.377 . S
C508 C513 1.377 . S
C509 C508 1.377 . S
C509 C510 1.395 . S
C509 H532 0.931 . S
C510 C509 1.395 . S
C510 C511 1.383 . S
C510 H533 0.931 . S
C511 C510 1.383 . S
C511 C512 1.394 . S
C512 C511 1.394 . S
C512 C513 1.378 . S
C512 H534 0.931 . S
C513 C508 1.377 . S
C513 C512 1.378 . S
C513 H535 0.931 . S
C514 O524 1.259 . S
C514 O525 1.270 . S
C515 O526 1.251 . S
C515 O527 1.251 . S
O516 C496 1.257 . S
O516 Eu497 2.473 . S
O517 C496 1.260 . S
O517 Eu497 2.480 . S
O518 Eu497 2.430 . S
O518 C504 1.259 . S
O519 Eu497 2.670 . S
O519 C504 1.270 . S
O519 Eu507 2.355 . S
O520 Eu497 2.394 . S
O520 C505 1.251 . S
O521 C505 1.251 . S
O521 Eu507 2.374 . S
O522 C506 1.257 . S
O522 Eu507 2.473 . S
O523 C506 1.260 . S
O523 Eu507 2.480 . S
O524 Eu507 2.430 . S
O524 C514 1.259 . S
O525 Eu497 2.355 . S
O525 Eu507 2.670 . S
O525 C514 1.270 . S
O526 Eu507 2.394 . S
O526 C515 1.251 . S
O527 Eu497 2.374 . S
O527 C515 1.251 . S
H528 C499 0.931 . S
H529 C500 0.931 . S
H530 C502 0.931 . S
H531 C503 0.931 . S
H532 C509 0.931 . S
H533 C510 0.931 . S
H534 C512 0.931 . S
H535 C513 0.931 . S
C536 Eu537 2.835 . S
C536 C538 1.500 . S
C536 O556 1.257 . S
C536 O557 1.260 . S
Eu537 C536 2.835 . S
Eu537 O556 2.473 . S
Eu537 O557 2.480 . S
Eu537 O558 2.430 . S
Eu537 O559 2.670 . S
Eu537 O560 2.394 . S
Eu537 O565 2.355 . S
Eu537 O567 2.374 . S
C538 C536 1.500 . S
C538 C539 1.377 . S
C538 C543 1.377 . S
C539 C538 1.377 . S
C539 C540 1.395 . S
C539 H568 0.931 . S
C540 C539 1.395 . S
C540 C541 1.383 . S
C540 H569 0.931 . S
C541 C540 1.383 . S
C541 C542 1.394 . S
C542 C541 1.394 . S
C542 C543 1.378 . S
C542 H570 0.931 . S
C543 C538 1.377 . S
C543 C542 1.378 . S
C543 H571 0.931 . S
C544 O558 1.259 . S
C544 O559 1.270 . S
C545 O560 1.251 . S
C545 O561 1.251 . S
C546 Eu547 2.835 . S
C546 C548 1.500 . S
C546 O562 1.257 . S
C546 O563 1.260 . S
Eu547 C546 2.835 . S
Eu547 O559 2.355 . S
Eu547 O561 2.374 . S
Eu547 O562 2.473 . S
Eu547 O563 2.480 . S
Eu547 O564 2.430 . S
Eu547 O565 2.670 . S
Eu547 O566 2.394 . S
C548 C546 1.500 . S
C548 C549 1.377 . S
C548 C553 1.377 . S
C549 C548 1.377 . S
C549 C550 1.395 . S
C549 H572 0.931 . S
C550 C549 1.395 . S
C550 C551 1.383 . S
C550 H573 0.931 . S
C551 C550 1.383 . S
C551 C552 1.394 . S
C552 C551 1.394 . S
C552 C553 1.378 . S
C552 H574 0.931 . S
C553 C548 1.377 . S
C553 C552 1.378 . S
C553 H575 0.931 . S
C554 O564 1.259 . S
C554 O565 1.270 . S
C555 O566 1.251 . S
C555 O567 1.251 . S
O556 C536 1.257 . S
O556 Eu537 2.473 . S
O557 C536 1.260 . S
O557 Eu537 2.480 . S
O558 Eu537 2.430 . S
O558 C544 1.259 . S
O559 Eu537 2.670 . S
O559 C544 1.270 . S
O559 Eu547 2.355 . S
O560 Eu537 2.394 . S
O560 C545 1.251 . S
O561 C545 1.251 . S
O561 Eu547 2.374 . S
O562 C546 1.257 . S
O562 Eu547 2.473 . S
O563 C546 1.260 . S
O563 Eu547 2.480 . S
O564 Eu547 2.430 . S
O564 C554 1.259 . S
O565 Eu537 2.355 . S
O565 Eu547 2.670 . S
O565 C554 1.270 . S
O566 Eu547 2.394 . S
O566 C555 1.251 . S
O567 Eu537 2.374 . S
O567 C555 1.251 . S
H568 C539 0.931 . S
H569 C540 0.931 . S
H570 C542 0.931 . S
H571 C543 0.931 . S
H572 C549 0.931 . S
H573 C550 0.931 . S
H574 C552 0.931 . S
H575 C553 0.931 . S
H576 C584 0.950 . S
H577 C589 0.950 . S
H578 C586 0.950 . S
H579 C588 0.950 . S
H580 C590 0.950 1_556 S
H581 C592 0.950 . S
H582 C594 0.950 . S
H583 C595 0.950 . S
C584 H576 0.950 . S
C584 C585 1.386 . S
C584 C586 1.391 . S
C585 C584 1.386 . S
C585 C589 1.393 . S
C586 H578 0.950 . S
C586 C584 1.391 . S
C586 C587 1.400 . S
C587 C586 1.400 . S
C587 C588 1.398 . S
C587 C593 1.491 . S
C588 H579 0.950 . S
C588 C587 1.398 . S
C588 C589 1.391 . S
C589 H577 0.950 . S
C589 C585 1.393 . S
C589 C588 1.391 . S
C590 H580 0.950 1_554 S
C590 C591 1.386 . S
C590 C592 1.391 . S
C591 C590 1.386 . S
C591 C595 1.393 . S
C592 H581 0.950 . S
C592 C590 1.391 . S
C592 C593 1.400 . S
C593 C587 1.491 . S
C593 C592 1.400 . S
C593 C594 1.398 . S
C594 H582 0.950 . S
C594 C593 1.398 . S
C594 C595 1.391 . S
C595 H583 0.950 . S
C595 C591 1.393 . S
C595 C594 1.391 . S
H596 C604 0.950 . S
H597 C609 0.950 . S
H598 C606 0.950 . S
H599 C608 0.950 . S
H600 C610 0.950 . S
H601 C612 0.950 . S
H602 C614 0.950 . S
H603 C615 0.950 . S
C604 H596 0.950 . S
C604 C605 1.386 . S
C604 C606 1.391 . S
C605 C604 1.386 . S
C605 C609 1.393 . S
C606 H598 0.950 . S
C606 C604 1.391 . S
C606 C607 1.400 . S
C607 C606 1.400 . S
C607 C608 1.398 . S
C607 C613 1.491 . S
C608 H599 0.950 . S
C608 C607 1.398 . S
C608 C609 1.391 . S
C609 H597 0.950 . S
C609 C605 1.393 . S
C609 C608 1.391 . S
C610 H600 0.950 . S
C610 C611 1.386 . S
C610 C612 1.391 . S
C611 C610 1.386 . S
C611 C615 1.393 . S
C612 H601 0.950 . S
C612 C610 1.391 . S
C612 C613 1.400 . S
C613 C607 1.491 . S
C613 C612 1.400 . S
C613 C614 1.398 . S
C614 H602 0.950 . S
C614 C613 1.398 . S
C614 C615 1.391 . S
C615 H603 0.950 . S
C615 C611 1.393 . S
C615 C614 1.391 . S
H616 C624 0.950 . S
H617 C629 0.950 . S
H618 C626 0.950 . S
H619 C628 0.950 . S
H620 C630 0.950 . S
H621 C632 0.950 . S
H622 C634 0.950 . S
H623 C635 0.950 . S
C624 H616 0.950 . S
C624 C625 1.386 . S
C624 C626 1.391 . S
C625 C624 1.386 . S
C625 C629 1.393 . S
C626 H618 0.950 . S
C626 C624 1.391 . S
C626 C627 1.400 . S
C627 C626 1.400 . S
C627 C628 1.398 . S
C627 C633 1.491 . S
C628 H619 0.950 . S
C628 C627 1.398 . S
C628 C629 1.391 . S
C629 H617 0.950 . S
C629 C625 1.393 . S
C629 C628 1.391 . S
C630 H620 0.950 . S
C630 C631 1.386 . S
C630 C632 1.391 . S
C631 C630 1.386 . S
C631 C635 1.393 . S
C632 H621 0.950 . S
C632 C630 1.391 . S
C632 C633 1.400 . S
C633 C627 1.491 . S
C633 C632 1.400 . S
C633 C634 1.398 . S
C634 H622 0.950 . S
C634 C633 1.398 . S
C634 C635 1.391 . S
C635 H623 0.950 . S
C635 C631 1.393 . S
C635 C634 1.391 . S
H636 C644 0.950 . S
H637 C649 0.950 . S
H638 C646 0.950 . S
H639 C648 0.950 . S
H640 C650 0.950 1_554 S
H641 C652 0.950 . S
H642 C654 0.950 . S
H643 C655 0.950 . S
C644 H636 0.950 . S
C644 C645 1.386 . S
C644 C646 1.391 . S
C645 C644 1.386 . S
C645 C649 1.393 . S
C646 H638 0.950 . S
C646 C644 1.391 . S
C646 C647 1.400 . S
C647 C646 1.400 . S
C647 C648 1.398 . S
C647 C653 1.491 . S
C648 H639 0.950 . S
C648 C647 1.398 . S
C648 C649 1.391 . S
C649 H637 0.950 . S
C649 C645 1.393 . S
C649 C648 1.391 . S
C650 H640 0.950 1_556 S
C650 C651 1.386 . S
C650 C652 1.391 . S
C651 C650 1.386 . S
C651 C655 1.393 . S
C652 H641 0.950 . S
C652 C650 1.391 . S
C652 C653 1.400 . S
C653 C647 1.491 . S
C653 C652 1.400 . S
C653 C654 1.398 . S
C654 H642 0.950 . S
C654 C653 1.398 . S
C654 C655 1.391 . S
C655 H643 0.950 . S
C655 C651 1.393 . S
C655 C654 1.391 . S
H656 C664 0.950 . S
H657 C669 0.950 . S
H658 C666 0.950 . S
H659 C668 0.950 . S
H660 C670 0.950 1_554 S
H661 C672 0.950 . S
H662 C674 0.950 . S
H663 C675 0.950 . S
C664 H656 0.950 . S
C664 C665 1.386 . S
C664 C666 1.391 . S
C665 C664 1.386 . S
C665 C669 1.393 . S
C666 H658 0.950 . S
C666 C664 1.391 . S
C666 C667 1.400 . S
C667 C666 1.400 . S
C667 C668 1.398 . S
C667 C673 1.491 . S
C668 H659 0.950 . S
C668 C667 1.398 . S
C668 C669 1.391 . S
C669 H657 0.950 . S
C669 C665 1.393 . S
C669 C668 1.391 . S
C670 H660 0.950 1_556 S
C670 C671 1.386 . S
C670 C672 1.391 . S
C671 C670 1.386 . S
C671 C675 1.393 . S
C672 H661 0.950 . S
C672 C670 1.391 . S
C672 C673 1.400 . S
C673 C667 1.491 . S
C673 C672 1.400 . S
C673 C674 1.398 . S
C674 H662 0.950 . S
C674 C673 1.398 . S
C674 C675 1.391 . S
C675 H663 0.950 . S
C675 C671 1.393 . S
C675 C674 1.391 . S
H676 C684 0.950 . S
H677 C689 0.950 . S
H678 C686 0.953 . S
H679 C688 0.950 . S
H680 C690 0.950 . S
H681 C692 0.950 . S
H682 C694 0.950 1_554 S
H683 C695 0.950 . S
C684 H676 0.950 . S
C684 C685 1.386 . S
C684 C686 1.391 . S
C685 C684 1.386 . S
C685 C689 1.393 . S
C686 H678 0.953 . S
C686 C684 1.391 . S
C686 C687 1.400 . S
C687 C686 1.400 . S
C687 C688 1.398 . S
C687 C693 1.491 . S
C688 H679 0.950 . S
C688 C687 1.398 . S
C688 C689 1.391 . S
C689 H677 0.950 . S
C689 C685 1.393 . S
C689 C688 1.391 . S
C690 H680 0.950 . S
C690 C691 1.386 . S
C690 C692 1.391 . S
C691 C690 1.386 . S
C691 C695 1.393 1_556 S
C692 H681 0.950 . S
C692 C690 1.391 . S
C692 C693 1.400 . S
C693 C687 1.491 . S
C693 C692 1.400 . S
C693 C694 1.397 . S
C694 H682 0.950 1_556 S
C694 C693 1.397 . S
C694 C695 1.391 1_556 S
C695 H683 0.950 . S
C695 C691 1.393 1_554 S
C695 C694 1.391 1_554 S
H696 C704 0.946 . S
H697 C709 0.950 . S
H698 C706 0.950 1_554 S
H699 C708 0.950 . S
H700 C710 0.950 . S
H701 C712 0.950 . S
H702 C714 0.950 . S
H703 C715 0.950 . S
C704 H696 0.946 . S
C704 C705 1.386 . S
C704 C706 1.391 . S
C705 C704 1.386 . S
C705 C709 1.393 . S
C706 H698 0.950 1_556 S
C706 C704 1.391 . S
C706 C707 1.400 . S
C707 C706 1.400 . S
C707 C708 1.398 . S
C707 C713 1.491 . S
C708 H699 0.950 . S
C708 C707 1.398 . S
C708 C709 1.391 . S
C709 H697 0.950 . S
C709 C705 1.393 . S
C709 C708 1.391 . S
C710 H700 0.950 . S
C710 C711 1.386 . S
C710 C712 1.391 . S
C711 C710 1.386 . S
C711 C715 1.393 1_556 S
C712 H701 0.950 . S
C712 C710 1.391 . S
C712 C713 1.400 . S
C713 C707 1.491 . S
C713 C712 1.400 . S
C713 C714 1.398 1_556 S
C714 H702 0.950 . S
C714 C713 1.398 1_554 S
C714 C715 1.391 . S
C715 H703 0.950 . S
C715 C711 1.393 1_554 S
C715 C714 1.391 . S
H716 C724 0.950 . S
H717 C729 0.950 . S
H718 C726 0.950 . S
H719 C728 0.950 . S
H720 C730 0.950 1_554 S
H721 C732 0.950 1_554 S
H722 C734 0.950 . S
H723 C735 0.950 . S
C724 H716 0.950 . S
C724 C725 1.386 . S
C724 C726 1.391 . S
C725 C724 1.386 . S
C725 C729 1.393 . S
C726 H718 0.950 . S
C726 C724 1.391 . S
C726 C727 1.400 . S
C727 C726 1.400 . S
C727 C728 1.398 . S
C727 C733 1.491 . S
C728 H719 0.950 . S
C728 C727 1.398 . S
C728 C729 1.391 . S
C729 H717 0.950 . S
C729 C725 1.393 . S
C729 C728 1.391 . S
C730 H720 0.950 1_556 S
C730 C731 1.386 . S
C730 C732 1.391 . S
C731 C730 1.386 . S
C731 C735 1.393 . S
C732 H721 0.950 1_556 S
C732 C730 1.391 . S
C732 C733 1.400 . S
C733 C727 1.491 . S
C733 C732 1.400 . S
C733 C734 1.398 . S
C734 H722 0.950 . S
C734 C733 1.398 . S
C734 C735 1.391 . S
C735 H723 0.950 . S
C735 C731 1.393 . S
C735 C734 1.391 . S
H736 C744 0.950 . S
H737 C749 0.950 . S
H738 C746 0.950 . S
H739 C748 0.950 . S
H740 C750 0.950 . S
H741 C752 0.950 . S
H742 C754 0.950 . S
H743 C755 0.950 . S
C744 H736 0.950 . S
C744 C745 1.386 . S
C744 C746 1.391 . S
C745 C744 1.386 . S
C745 C749 1.393 1_556 S
C746 H738 0.950 . S
C746 C744 1.391 . S
C746 C747 1.400 . S
C747 C746 1.400 . S
C747 C748 1.398 1_556 S
C747 C753 1.491 . S
C748 H739 0.950 . S
C748 C747 1.398 1_554 S
C748 C749 1.391 . S
C749 H737 0.950 . S
C749 C745 1.393 1_554 S
C749 C748 1.391 . S
C750 H740 0.950 . S
C750 C751 1.437 . S
C750 C752 1.391 . S
C751 C750 1.437 . S
C751 C755 1.342 1_554 S
C752 H741 0.950 . S
C752 C750 1.391 . S
C752 C753 1.400 1_554 S
C753 C747 1.491 . S
C753 C752 1.400 1_556 S
C753 C754 1.398 . S
C754 H742 0.950 . S
C754 C753 1.398 . S
C754 C755 1.391 . S
C755 H743 0.950 . S
C755 C751 1.342 1_556 S
C755 C754 1.391 . S
H756 C764 0.950 . S
H757 C769 0.950 . S
H758 C766 0.901 1_556 S
H759 C768 0.950 . S
H760 C770 0.950 . S
H761 C772 0.950 . S
H762 C774 0.950 1_556 S
H763 C775 0.950 1_556 S
C764 H756 0.950 . S
C764 C765 1.386 . S
C764 C766 1.391 . S
C765 C764 1.386 . S
C765 C769 1.393 . S
C766 H758 0.901 1_554 S
C766 C764 1.391 . S
C766 C767 1.400 . S
C767 C766 1.400 . S
C767 C768 1.398 . S
C767 C773 1.491 . S
C768 H759 0.950 . S
C768 C767 1.398 . S
C768 C769 1.391 . S
C769 H757 0.950 . S
C769 C765 1.393 . S
C769 C768 1.391 . S
C770 H760 0.950 . S
C770 C771 1.386 . S
C770 C772 1.391 . S
C771 C770 1.386 . S
C771 C775 1.393 . S
C772 H761 0.950 . S
C772 C770 1.391 . S
C772 C773 1.400 . S
C773 C767 1.491 . S
C773 C772 1.400 . S
C773 C774 1.398 . S
C774 H762 0.950 1_554 S
C774 C773 1.398 . S
C774 C775 1.391 . S
C775 H763 0.950 1_554 S
C775 C771 1.393 . S
C775 C774 1.391 . S
H776 C784 0.950 . S
H777 C789 0.950 . S
H778 C786 0.950 . S
H779 C788 0.950 . S
H780 C790 0.950 . S
H781 C792 0.950 . S
H782 C794 0.950 . S
H783 C795 0.950 . S
C784 H776 0.950 . S
C784 C785 1.386 . S
C784 C786 1.391 . S
C785 C784 1.386 . S
C785 C789 1.393 . S
C786 H778 0.950 . S
C786 C784 1.391 . S
C786 C787 1.400 . S
C787 C786 1.400 . S
C787 C788 1.398 . S
C787 C793 1.491 . S
C788 H779 0.950 . S
C788 C787 1.398 . S
C788 C789 1.391 . S
C789 H777 0.950 . S
C789 C785 1.393 . S
C789 C788 1.391 . S
C790 H780 0.950 . S
C790 C791 1.386 . S
C790 C792 1.391 . S
C791 C790 1.386 . S
C791 C795 1.393 . S
C792 H781 0.950 . S
C792 C790 1.391 . S
C792 C793 1.400 . S
C793 C787 1.491 . S
C793 C792 1.400 . S
C793 C794 1.398 . S
C794 H782 0.950 . S
C794 C793 1.398 . S
C794 C795 1.391 . S
C795 H783 0.950 . S
C795 C791 1.393 . S
C795 C794 1.391 . S
H796 C804 0.950 . S
H797 C809 0.950 . S
H798 C806 0.950 . S
H799 C808 0.950 . S
H800 C810 0.950 . S
H801 C812 0.950 . S
H802 C814 0.950 . S
H803 C815 0.950 . S
C804 H796 0.950 . S
C804 C805 1.386 . S
C804 C806 1.391 . S
C805 C804 1.386 . S
C805 C809 1.393 . S
C806 H798 0.950 . S
C806 C804 1.391 . S
C806 C807 1.400 . S
C807 C806 1.400 . S
C807 C808 1.398 . S
C807 C813 1.491 . S
C808 H799 0.950 . S
C808 C807 1.398 . S
C808 C809 1.391 . S
C809 H797 0.950 . S
C809 C805 1.393 . S
C809 C808 1.391 . S
C810 H800 0.950 . S
C810 C811 1.386 . S
C810 C812 1.391 . S
C811 C810 1.386 . S
C811 C815 1.393 . S
C812 H801 0.950 . S
C812 C810 1.391 . S
C812 C813 1.400 . S
C813 C807 1.491 . S
C813 C812 1.400 . S
C813 C814 1.398 . S
C814 H802 0.950 . S
C814 C813 1.398 . S
C814 C815 1.391 . S
C815 H803 0.950 . S
C815 C811 1.393 . S
C815 C814 1.391 . S
H816 C824 0.950 . S
H817 C829 0.950 . S
H818 C826 0.950 . S
H819 C828 0.950 . S
H820 C830 0.950 . S
H821 C832 0.950 . S
H822 C834 0.950 . S
H823 C835 0.950 . S
C824 H816 0.950 . S
C824 C825 1.386 . S
C824 C826 1.391 . S
C825 C824 1.386 . S
C825 C829 1.393 . S
C826 H818 0.950 . S
C826 C824 1.391 . S
C826 C827 1.400 . S
C827 C826 1.400 . S
C827 C828 1.398 . S
C827 C833 1.491 1_655 S
C828 H819 0.950 . S
C828 C827 1.398 . S
C828 C829 1.391 . S
C829 H817 0.950 . S
C829 C825 1.393 . S
C829 C828 1.391 . S
C830 H820 0.950 . S
C830 C831 1.386 . S
C830 C832 1.391 . S
C831 C830 1.386 . S
C831 C835 1.393 . S
C832 H821 0.950 . S
C832 C830 1.391 . S
C832 C833 1.400 . S
C833 C827 1.491 1_455 S
C833 C832 1.400 . S
C833 C834 1.398 . S
C834 H822 0.950 . S
C834 C833 1.398 . S
C834 C835 1.391 . S
C835 H823 0.950 . S
C835 C831 1.393 . S
C835 C834 1.391 . S
H836 C844 0.950 . S
H837 C849 0.950 . S
H838 C846 0.950 . S
H839 C848 0.950 . S
H840 C850 0.950 . S
H841 C852 0.950 . S
H842 C854 0.950 . S
H843 C855 0.950 . S
C844 H836 0.950 . S
C844 C845 1.386 . S
C844 C846 1.391 . S
C845 C844 1.386 . S
C845 C849 1.393 . S
C846 H838 0.950 . S
C846 C844 1.391 . S
C846 C847 1.400 . S
C847 C846 1.400 . S
C847 C848 1.398 . S
C847 C853 1.491 . S
C848 H839 0.950 . S
C848 C847 1.398 . S
C848 C849 1.391 . S
C849 H837 0.950 . S
C849 C845 1.393 . S
C849 C848 1.391 . S
C850 H840 0.950 . S
C850 C851 1.386 . S
C850 C852 1.391 . S
C851 C850 1.386 . S
C851 C855 1.393 . S
C852 H841 0.950 . S
C852 C850 1.391 . S
C852 C853 1.400 . S
C853 C847 1.491 . S
C853 C852 1.400 . S
C853 C854 1.398 . S
C854 H842 0.950 . S
C854 C853 1.398 . S
C854 C855 1.391 . S
C855 H843 0.950 . S
C855 C851 1.393 . S
C855 C854 1.391 . S
H856 C864 0.950 . S
H857 C869 0.950 . S
H858 C866 0.950 . S
H859 C868 0.950 . S
H860 C870 0.950 . S
H861 C872 0.950 . S
H862 C874 0.951 . S
H863 C875 0.950 . S
C864 H856 0.950 . S
C864 C865 1.386 . S
C864 C866 1.391 . S
C865 C864 1.386 . S
C865 C869 1.393 . S
C866 H858 0.950 . S
C866 C864 1.391 . S
C866 C867 1.400 . S
C867 C866 1.400 . S
C867 C868 1.398 . S
C867 C873 1.491 . S
C868 H859 0.950 . S
C868 C867 1.398 . S
C868 C869 1.391 . S
C869 H857 0.950 . S
C869 C865 1.393 . S
C869 C868 1.391 . S
C870 H860 0.950 . S
C870 C871 1.386 . S
C870 C872 1.391 . S
C871 C870 1.386 . S
C871 C875 1.393 . S
C872 H861 0.950 . S
C872 C870 1.391 . S
C872 C873 1.400 1_565 S
C873 C867 1.491 . S
C873 C872 1.400 1_545 S
C873 C874 1.401 . S
C874 H862 0.951 . S
C874 C873 1.401 . S
C874 C875 1.387 1_545 S
C875 H863 0.950 . S
C875 C871 1.393 . S
C875 C874 1.387 1_565 S
H876 C884 0.950 . S
H877 C889 0.950 . S
H878 C886 0.950 . S
H879 C888 0.950 . S
H880 C890 0.950 . S
H881 C892 0.950 . S
H882 C894 0.950 . S
H883 C895 0.950 . S
C884 H876 0.950 . S
C884 C885 1.386 . S
C884 C886 1.391 . S
C885 C884 1.386 . S
C885 C889 1.393 . S
C886 H878 0.950 . S
C886 C884 1.391 . S
C886 C887 1.400 . S
C887 C886 1.400 . S
C887 C888 1.398 . S
C887 C893 1.491 . S
C888 H879 0.950 . S
C888 C887 1.398 . S
C888 C889 1.391 . S
C889 H877 0.950 . S
C889 C885 1.393 . S
C889 C888 1.391 . S
C890 H880 0.950 . S
C890 C891 1.386 . S
C890 C892 1.391 . S
C891 C890 1.386 . S
C891 C895 1.393 . S
C892 H881 0.950 . S
C892 C890 1.391 . S
C892 C893 1.400 . S
C893 C887 1.491 . S
C893 C892 1.400 . S
C893 C894 1.398 . S
C894 H882 0.950 . S
C894 C893 1.398 . S
C894 C895 1.391 . S
C895 H883 0.950 . S
C895 C891 1.393 . S
C895 C894 1.391 . S
H896 C904 0.950 . S
H897 C909 0.950 . S
H898 C906 0.950 . S
H899 C908 0.950 . S
H900 C910 0.950 . S
H901 C912 0.950 . S
H902 C914 0.950 . S
H903 C915 0.950 . S
C904 H896 0.950 . S
C904 C905 1.386 . S
C904 C906 1.391 . S
C905 C904 1.386 . S
C905 C909 1.393 . S
C906 H898 0.950 . S
C906 C904 1.391 . S
C906 C907 1.400 . S
C907 C906 1.400 . S
C907 C908 1.398 . S
C907 C913 1.491 . S
C908 H899 0.950 . S
C908 C907 1.398 . S
C908 C909 1.391 . S
C909 H897 0.950 . S
C909 C905 1.393 . S
C909 C908 1.391 . S
C910 H900 0.950 . S
C910 C911 1.386 . S
C910 C912 1.391 . S
C911 C910 1.386 . S
C911 C915 1.393 . S
C912 H901 0.950 . S
C912 C910 1.391 . S
C912 C913 1.400 . S
C913 C907 1.491 . S
C913 C912 1.400 . S
C913 C914 1.398 . S
C914 H902 0.950 . S
C914 C913 1.398 . S
C914 C915 1.391 . S
C915 H903 0.950 . S
C915 C911 1.393 . S
C915 C914 1.391 . S
H916 C924 0.950 . S
H917 C929 0.950 . S
H918 C926 0.950 . S
H919 C928 0.950 . S
H920 C930 0.950 . S
H921 C932 0.950 . S
H922 C934 0.950 . S
H923 C935 0.950 . S
C924 H916 0.950 . S
C924 C925 1.386 . S
C924 C926 1.391 . S
C925 C924 1.386 . S
C925 C929 1.393 . S
C926 H918 0.950 . S
C926 C924 1.391 . S
C926 C927 1.400 . S
C927 C926 1.400 . S
C927 C928 1.398 . S
C927 C933 1.491 . S
C928 H919 0.950 . S
C928 C927 1.398 . S
C928 C929 1.391 . S
C929 H917 0.950 . S
C929 C925 1.393 . S
C929 C928 1.391 . S
C930 H920 0.950 . S
C930 C931 1.386 . S
C930 C932 1.391 . S
C931 C930 1.386 . S
C931 C935 1.393 . S
C932 H921 0.950 . S
C932 C930 1.391 . S
C932 C933 1.400 . S
C933 C927 1.491 . S
C933 C932 1.400 . S
C933 C934 1.398 . S
C934 H922 0.950 . S
C934 C933 1.398 . S
C934 C935 1.391 . S
C935 H923 0.950 . S
C935 C931 1.393 . S
C935 C934 1.391 . S
H936 C944 0.950 . S
H937 C949 0.950 . S
H938 C946 0.950 . S
H939 C948 0.950 . S
H940 C950 0.950 . S
H941 C952 0.950 . S
H942 C954 0.950 . S
H943 C955 0.950 . S
C944 H936 0.950 . S
C944 C945 1.386 . S
C944 C946 1.391 . S
C945 C944 1.386 . S
C945 C949 1.393 . S
C946 H938 0.950 . S
C946 C944 1.391 . S
C946 C947 1.400 . S
C947 C946 1.400 . S
C947 C948 1.398 . S
C947 C953 1.491 . S
C948 H939 0.950 . S
C948 C947 1.398 . S
C948 C949 1.391 . S
C949 H937 0.950 . S
C949 C945 1.393 . S
C949 C948 1.391 . S
C950 H940 0.950 . S
C950 C951 1.386 . S
C950 C952 1.391 . S
C951 C950 1.386 . S
C951 C955 1.393 . S
C952 H941 0.950 . S
C952 C950 1.391 . S
C952 C953 1.400 . S
C953 C947 1.491 . S
C953 C952 1.400 . S
C953 C954 1.398 . S
C954 H942 0.950 . S
C954 C953 1.398 . S
C954 C955 1.391 . S
C955 H943 0.950 . S
C955 C951 1.393 . S
C955 C954 1.391 . S
H956 C964 0.950 . S
H957 C969 0.950 . S
H958 C966 0.950 . S
H959 C968 0.950 . S
H960 C970 0.950 . S
H961 C972 0.950 . S
H962 C974 0.950 . S
H963 C975 0.950 . S
C964 H956 0.950 . S
C964 C965 1.386 . S
C964 C966 1.391 . S
C965 C964 1.386 . S
C965 C969 1.393 . S
C966 H958 0.950 . S
C966 C964 1.391 . S
C966 C967 1.400 . S
C967 C966 1.400 . S
C967 C968 1.398 . S
C967 C973 1.491 . S
C968 H959 0.950 . S
C968 C967 1.398 . S
C968 C969 1.391 . S
C969 H957 0.950 . S
C969 C965 1.393 . S
C969 C968 1.391 . S
C970 H960 0.950 . S
C970 C971 1.386 . S
C970 C972 1.391 . S
C971 C970 1.386 . S
C971 C975 1.393 . S
C972 H961 0.950 . S
C972 C970 1.391 . S
C972 C973 1.400 . S
C973 C967 1.491 . S
C973 C972 1.400 . S
C973 C974 1.398 . S
C974 H962 0.950 . S
C974 C973 1.398 . S
C974 C975 1.391 . S
C975 H963 0.950 . S
C975 C971 1.393 . S
C975 C974 1.391 . S
H976 C984 0.950 . S
H977 C989 0.950 . S
H978 C986 0.950 . S
H979 C988 0.950 . S
H980 C990 0.950 . S
H981 C992 0.950 . S
H982 C994 0.950 . S
H983 C995 0.950 . S
C984 H976 0.950 . S
C984 C985 1.386 . S
C984 C986 1.391 . S
C985 C984 1.386 . S
C985 C989 1.393 . S
C986 H978 0.950 . S
C986 C984 1.391 . S
C986 C987 1.400 . S
C987 C986 1.400 . S
C987 C988 1.398 . S
C987 C993 1.491 . S
C988 H979 0.950 . S
C988 C987 1.398 . S
C988 C989 1.391 . S
C989 H977 0.950 . S
C989 C985 1.393 . S
C989 C988 1.391 . S
C990 H980 0.950 . S
C990 C991 1.386 . S
C990 C992 1.391 . S
C991 C990 1.386 . S
C991 C995 1.393 . S
C992 H981 0.950 . S
C992 C990 1.391 . S
C992 C993 1.400 . S
C993 C987 1.491 . S
C993 C992 1.400 . S
C993 C994 1.398 . S
C994 H982 0.950 . S
C994 C993 1.398 . S
C994 C995 1.391 . S
C995 H983 0.950 . S
C995 C991 1.393 . S
C995 C994 1.391 . S
H996 C1004 0.950 . S
H997 C1009 0.950 . S
H998 C1006 0.950 . S
H999 C1008 0.950 . S
H1000 C1010 0.950 . S
H1001 C1012 0.950 . S
H1002 C1014 0.950 . S
H1003 C1015 0.950 . S
C1004 H996 0.950 . S
C1004 C1005 1.386 . S
C1004 C1006 1.391 1_545 S
C1005 C1004 1.386 . S
C1005 C1009 1.393 . S
C1006 H998 0.950 . S
C1006 C1004 1.391 1_565 S
C1006 C1007 1.400 . S
C1007 C1006 1.400 . S
C1007 C1008 1.398 . S
C1007 C1013 1.491 . S
C1008 H999 0.950 . S
C1008 C1007 1.398 . S
C1008 C1009 1.391 1_565 S
C1009 H997 0.950 . S
C1009 C1005 1.393 . S
C1009 C1008 1.391 1_545 S
C1010 H1000 0.950 . S
C1010 C1011 1.386 . S
C1010 C1012 1.391 . S
C1011 C1010 1.386 . S
C1011 C1015 1.393 . S
C1012 H1001 0.950 . S
C1012 C1010 1.391 . S
C1012 C1013 1.400 . S
C1013 C1007 1.491 . S
C1013 C1012 1.400 . S
C1013 C1014 1.398 . S
C1014 H1002 0.950 . S
C1014 C1013 1.398 . S
C1014 C1015 1.391 . S
C1015 H1003 0.950 . S
C1015 C1011 1.393 . S
C1015 C1014 1.391 . S
H1016 C1024 0.950 . S
H1017 C1029 0.950 . S
H1018 C1026 0.950 . S
H1019 C1028 0.950 . S
H1020 C1030 0.950 . S
H1021 C1032 0.950 . S
H1022 C1034 0.950 . S
H1023 C1035 0.950 . S
C1024 H1016 0.950 . S
C1024 C1025 1.386 . S
C1024 C1026 1.391 1_655 S
C1025 C1024 1.386 . S
C1025 C1029 1.393 1_655 S
C1026 H1018 0.950 . S
C1026 C1024 1.391 1_455 S
C1026 C1027 1.400 . S
C1027 C1026 1.400 . S
C1027 C1028 1.398 . S
C1027 C1033 1.491 . S
C1028 H1019 0.950 . S
C1028 C1027 1.398 . S
C1028 C1029 1.391 . S
C1029 H1017 0.950 . S
C1029 C1025 1.393 1_455 S
C1029 C1028 1.391 . S
C1030 H1020 0.950 . S
C1030 C1031 1.386 . S
C1030 C1032 1.391 . S
C1031 C1030 1.386 . S
C1031 C1035 1.393 . S
C1032 H1021 0.950 . S
C1032 C1030 1.391 . S
C1032 C1033 1.400 . S
C1033 C1027 1.491 . S
C1033 C1032 1.400 . S
C1033 C1034 1.398 . S
C1034 H1022 0.950 . S
C1034 C1033 1.398 . S
C1034 C1035 1.391 . S
C1035 H1023 0.950 . S
C1035 C1031 1.393 . S
C1035 C1034 1.391 . S
H1036 C1044 0.950 . S
H1037 C1049 0.950 . S
H1038 C1046 0.950 . S
H1039 C1048 0.950 . S
H1040 C1050 0.950 . S
H1041 C1052 0.950 . S
H1042 C1054 0.950 . S
H1043 C1055 0.950 . S
C1044 H1036 0.950 . S
C1044 C1045 1.386 . S
C1044 C1046 1.391 . S
C1045 C1044 1.386 . S
C1045 C1049 1.393 . S
C1046 H1038 0.950 . S
C1046 C1044 1.391 . S
C1046 C1047 1.400 . S
C1047 C1046 1.400 . S
C1047 C1048 1.398 . S
C1047 C1053 1.491 . S
C1048 H1039 0.950 . S
C1048 C1047 1.398 . S
C1048 C1049 1.391 . S
C1049 H1037 0.950 . S
C1049 C1045 1.393 . S
C1049 C1048 1.391 . S
C1050 H1040 0.950 . S
C1050 C1051 1.386 . S
C1050 C1052 1.391 . S
C1051 C1050 1.386 . S
C1051 C1055 1.393 . S
C1052 H1041 0.950 . S
C1052 C1050 1.391 . S
C1052 C1053 1.400 . S
C1053 C1047 1.491 . S
C1053 C1052 1.400 . S
C1053 C1054 1.398 . S
C1054 H1042 0.950 . S
C1054 C1053 1.398 . S
C1054 C1055 1.391 . S
C1055 H1043 0.950 . S
C1055 C1051 1.393 . S
C1055 C1054 1.391 . S
H1056 C1064 0.950 . S
H1057 C1069 0.950 . S
H1058 C1066 0.950 . S
H1059 C1068 0.950 . S
H1060 C1070 0.950 . S
H1061 C1072 0.950 . S
H1062 C1074 0.950 . S
H1063 C1075 0.950 . S
C1064 H1056 0.950 . S
C1064 C1065 1.386 . S
C1064 C1066 1.391 . S
C1065 C1064 1.386 . S
C1065 C1069 1.393 . S
C1066 H1058 0.950 . S
C1066 C1064 1.391 . S
C1066 C1067 1.400 . S
C1067 C1066 1.400 . S
C1067 C1068 1.398 . S
C1067 C1073 1.491 . S
C1068 H1059 0.950 . S
C1068 C1067 1.398 . S
C1068 C1069 1.391 . S
C1069 H1057 0.950 . S
C1069 C1065 1.393 . S
C1069 C1068 1.391 . S
C1070 H1060 0.950 . S
C1070 C1071 1.386 . S
C1070 C1072 1.391 . S
C1071 C1070 1.386 . S
C1071 C1075 1.393 . S
C1072 H1061 0.950 . S
C1072 C1070 1.391 . S
C1072 C1073 1.400 . S
C1073 C1067 1.491 . S
C1073 C1072 1.400 . S
C1073 C1074 1.398 . S
C1074 H1062 0.950 . S
C1074 C1073 1.398 . S
C1074 C1075 1.391 . S
C1075 H1063 0.950 . S
C1075 C1071 1.393 . S
C1075 C1074 1.391 . S
H1076 C1084 0.950 . S
H1077 C1089 0.950 . S
H1078 C1086 0.950 . S
H1079 C1088 0.950 . S
H1080 C1090 0.950 . S
H1081 C1092 0.950 . S
H1082 C1094 0.950 . S
H1083 C1095 0.950 . S
C1084 H1076 0.950 . S
C1084 C1085 1.386 . S
C1084 C1086 1.391 . S
C1085 C1084 1.386 . S
C1085 C1089 1.393 . S
C1086 H1078 0.950 . S
C1086 C1084 1.391 . S
C1086 C1087 1.400 . S
C1087 C1086 1.400 . S
C1087 C1088 1.398 . S
C1087 C1093 1.491 . S
C1088 H1079 0.950 . S
C1088 C1087 1.398 . S
C1088 C1089 1.391 . S
C1089 H1077 0.950 . S
C1089 C1085 1.393 . S
C1089 C1088 1.391 . S
C1090 H1080 0.950 . S
C1090 C1091 1.386 . S
C1090 C1092 1.391 . S
C1091 C1090 1.386 . S
C1091 C1095 1.393 . S
C1092 H1081 0.950 . S
C1092 C1090 1.391 . S
C1092 C1093 1.400 . S
C1093 C1087 1.491 . S
C1093 C1092 1.400 . S
C1093 C1094 1.398 . S
C1094 H1082 0.950 . S
C1094 C1093 1.398 . S
C1094 C1095 1.391 . S
C1095 H1083 0.950 . S
C1095 C1091 1.393 . S
C1095 C1094 1.391 . S
H1096 C1104 0.950 . S
H1097 C1109 0.950 . S
H1098 C1106 0.950 . S
H1099 C1108 0.950 . S
H1100 C1110 0.950 . S
H1101 C1112 0.950 . S
H1102 C1114 0.950 . S
H1103 C1115 0.950 . S
C1104 H1096 0.950 . S
C1104 C1105 1.386 . S
C1104 C1106 1.391 . S
C1105 C1104 1.386 . S
C1105 C1109 1.393 . S
C1106 H1098 0.950 . S
C1106 C1104 1.391 . S
C1106 C1107 1.400 . S
C1107 C1106 1.400 . S
C1107 C1108 1.398 . S
C1107 C1113 1.491 . S
C1108 H1099 0.950 . S
C1108 C1107 1.398 . S
C1108 C1109 1.391 . S
C1109 H1097 0.950 . S
C1109 C1105 1.393 . S
C1109 C1108 1.391 . S
C1110 H1100 0.950 . S
C1110 C1111 1.386 . S
C1110 C1112 1.391 . S
C1111 C1110 1.386 . S
C1111 C1115 1.393 . S
C1112 H1101 0.950 . S
C1112 C1110 1.391 . S
C1112 C1113 1.400 . S
C1113 C1107 1.491 . S
C1113 C1112 1.400 . S
C1113 C1114 1.398 . S
C1114 H1102 0.950 . S
C1114 C1113 1.398 . S
C1114 C1115 1.391 . S
C1115 H1103 0.950 . S
C1115 C1111 1.393 . S
C1115 C1114 1.391 . S
H1116 C1124 0.950 . S
H1117 C1129 0.950 . S
H1118 C1126 0.950 . S
H1119 C1128 0.950 . S
H1120 C1130 0.950 . S
H1121 C1132 0.950 . S
H1122 C1134 0.950 . S
H1123 C1135 0.950 . S
C1124 H1116 0.950 . S
C1124 C1125 1.386 . S
C1124 C1126 1.391 . S
C1125 C1124 1.386 . S
C1125 C1129 1.393 . S
C1126 H1118 0.950 . S
C1126 C1124 1.391 . S
C1126 C1127 1.400 . S
C1127 C1126 1.400 . S
C1127 C1128 1.398 . S
C1127 C1133 1.491 1_565 S
C1128 H1119 0.950 . S
C1128 C1127 1.398 . S
C1128 C1129 1.391 . S
C1129 H1117 0.950 . S
C1129 C1125 1.393 . S
C1129 C1128 1.391 . S
C1130 H1120 0.950 . S
C1130 C1131 1.386 . S
C1130 C1132 1.391 . S
C1131 C1130 1.386 . S
C1131 C1135 1.393 . S
C1132 H1121 0.950 . S
C1132 C1130 1.391 . S
C1132 C1133 1.400 . S
C1133 C1127 1.491 1_545 S
C1133 C1132 1.400 . S
C1133 C1134 1.398 . S
C1134 H1122 0.950 . S
C1134 C1133 1.398 . S
C1134 C1135 1.391 . S
C1135 H1123 0.950 . S
C1135 C1131 1.393 . S
C1135 C1134 1.391 . S
H1136 C1144 0.950 . S
H1137 C1149 0.950 . S
H1138 C1146 0.950 1_655 S
H1139 C1148 0.950 . S
H1140 C1150 0.950 . S
H1141 C1152 0.950 1_455 S
H1142 C1154 0.950 . S
H1143 C1155 0.950 . S
C1144 H1136 0.950 . S
C1144 C1145 1.386 . S
C1144 C1146 1.391 . S
C1145 C1144 1.386 . S
C1145 C1149 1.393 . S
C1146 H1138 0.950 1_455 S
C1146 C1144 1.391 . S
C1146 C1147 1.400 . S
C1147 C1146 1.400 . S
C1147 C1148 1.398 . S
C1147 C1153 1.491 1_455 S
C1148 H1139 0.950 . S
C1148 C1147 1.398 . S
C1148 C1149 1.391 . S
C1149 H1137 0.950 . S
C1149 C1145 1.393 . S
C1149 C1148 1.391 . S
C1150 H1140 0.950 . S
C1150 C1151 1.386 . S
C1150 C1152 1.391 . S
C1151 C1150 1.386 . S
C1151 C1155 1.393 . S
C1152 H1141 0.950 1_655 S
C1152 C1150 1.391 . S
C1152 C1153 1.400 . S
C1153 C1147 1.491 1_655 S
C1153 C1152 1.400 . S
C1153 C1154 1.398 . S
C1154 H1142 0.950 . S
C1154 C1153 1.398 . S
C1154 C1155 1.391 . S
C1155 H1143 0.950 . S
C1155 C1151 1.393 . S
C1155 C1154 1.391 . S
H1156 C1164 0.950 . S
H1157 C1169 0.950 . S
H1158 C1166 0.950 . S
H1159 C1168 0.950 . S
H1160 C1170 0.950 . S
H1161 C1172 0.950 . S
H1162 C1174 0.950 . S
H1163 C1175 0.950 . S
C1164 H1156 0.950 . S
C1164 C1165 1.386 . S
C1164 C1166 1.391 . S
C1165 C1164 1.386 . S
C1165 C1169 1.393 . S
C1166 H1158 0.950 . S
C1166 C1164 1.391 . S
C1166 C1167 1.400 . S
C1167 C1166 1.400 . S
C1167 C1168 1.398 . S
C1167 C1173 1.491 . S
C1168 H1159 0.950 . S
C1168 C1167 1.398 . S
C1168 C1169 1.391 . S
C1169 H1157 0.950 . S
C1169 C1165 1.393 . S
C1169 C1168 1.391 . S
C1170 H1160 0.950 . S
C1170 C1171 1.386 . S
C1170 C1172 1.391 . S
C1171 C1170 1.386 . S
C1171 C1175 1.393 . S
C1172 H1161 0.950 . S
C1172 C1170 1.391 . S
C1172 C1173 1.400 . S
C1173 C1167 1.491 . S
C1173 C1172 1.400 . S
C1173 C1174 1.398 . S
C1174 H1162 0.950 . S
C1174 C1173 1.398 . S
C1174 C1175 1.391 . S
C1175 H1163 0.950 . S
C1175 C1171 1.393 . S
C1175 C1174 1.391 . S
H1176 C1184 0.950 . S
H1177 C1189 0.950 . S
H1178 C1186 0.950 . S
H1179 C1188 0.950 . S
H1180 C1190 0.950 . S
H1181 C1192 0.950 . S
H1182 C1194 0.950 . S
H1183 C1195 0.950 . S
C1184 H1176 0.950 . S
C1184 C1185 1.386 . S
C1184 C1186 1.391 1_455 S
C1185 C1184 1.386 . S
C1185 C1189 1.393 . S
C1186 H1178 0.950 . S
C1186 C1184 1.391 1_655 S
C1186 C1187 1.400 . S
C1187 C1186 1.400 . S
C1187 C1188 1.398 . S
C1187 C1193 1.491 . S
C1188 H1179 0.950 . S
C1188 C1187 1.398 . S
C1188 C1189 1.391 1_655 S
C1189 H1177 0.950 . S
C1189 C1185 1.393 . S
C1189 C1188 1.391 1_455 S
C1190 H1180 0.950 . S
C1190 C1191 1.386 . S
C1190 C1192 1.391 . S
C1191 C1190 1.386 . S
C1191 C1195 1.393 . S
C1192 H1181 0.950 . S
C1192 C1190 1.391 . S
C1192 C1193 1.400 . S
C1193 C1187 1.491 . S
C1193 C1192 1.400 . S
C1193 C1194 1.398 . S
C1194 H1182 0.950 . S
C1194 C1193 1.398 . S
C1194 C1195 1.391 . S
C1195 H1183 0.950 . S
C1195 C1191 1.393 . S
C1195 C1194 1.391 . S
H1196 C1204 0.950 . S
H1197 C1209 0.950 . S
H1198 C1206 0.950 . S
H1199 C1208 0.950 . S
H1200 C1210 0.950 . S
H1201 C1212 0.950 . S
H1202 C1214 0.950 . S
H1203 C1215 0.950 . S
C1204 H1196 0.950 . S
C1204 C1205 1.386 . S
C1204 C1206 1.391 . S
C1205 C1204 1.386 . S
C1205 C1209 1.393 . S
C1206 H1198 0.950 . S
C1206 C1204 1.391 . S
C1206 C1207 1.400 . S
C1207 C1206 1.400 . S
C1207 C1208 1.398 . S
C1207 C1213 1.491 . S
C1208 H1199 0.950 . S
C1208 C1207 1.398 . S
C1208 C1209 1.391 . S
C1209 H1197 0.950 . S
C1209 C1205 1.393 . S
C1209 C1208 1.391 . S
C1210 H1200 0.950 . S
C1210 C1211 1.386 . S
C1210 C1212 1.391 . S
C1211 C1210 1.386 . S
C1211 C1215 1.393 . S
C1212 H1201 0.950 . S
C1212 C1210 1.391 . S
C1212 C1213 1.400 . S
C1213 C1207 1.491 . S
C1213 C1212 1.400 . S
C1213 C1214 1.398 . S
C1214 H1202 0.950 . S
C1214 C1213 1.398 . S
C1214 C1215 1.391 . S
C1215 H1203 0.950 . S
C1215 C1211 1.393 . S
C1215 C1214 1.391 . S
H1216 C1224 0.950 . S
H1217 C1229 0.950 . S
H1218 C1226 0.950 . S
H1219 C1228 0.950 . S
H1220 C1230 0.950 . S
H1221 C1232 0.950 . S
H1222 C1234 0.950 . S
H1223 C1235 0.950 . S
C1224 H1216 0.950 . S
C1224 C1225 1.386 . S
C1224 C1226 1.391 1_565 S
C1225 C1224 1.386 . S
C1225 C1229 1.393 . S
C1226 H1218 0.950 . S
C1226 C1224 1.391 1_545 S
C1226 C1227 1.400 . S
C1227 C1226 1.400 . S
C1227 C1228 1.398 . S
C1227 C1233 1.491 . S
C1228 H1219 0.950 . S
C1228 C1227 1.398 . S
C1228 C1229 1.391 1_545 S
C1229 H1217 0.950 . S
C1229 C1225 1.393 . S
C1229 C1228 1.391 1_565 S
C1230 H1220 0.950 . S
C1230 C1231 1.386 . S
C1230 C1232 1.391 . S
C1231 C1230 1.386 . S
C1231 C1235 1.393 . S
C1232 H1221 0.950 . S
C1232 C1230 1.391 . S
C1232 C1233 1.400 . S
C1233 C1227 1.491 . S
C1233 C1232 1.400 . S
C1233 C1234 1.398 . S
C1234 H1222 0.950 . S
C1234 C1233 1.398 . S
C1234 C1235 1.391 . S
C1235 H1223 0.950 . S
C1235 C1231 1.393 . S
C1235 C1234 1.391 . S
H1236 C1244 0.950 . S
H1237 C1249 0.950 . S
H1238 C1246 0.950 . S
H1239 C1248 0.950 . S
H1240 C1250 0.950 . S
H1241 C1252 0.950 . S
H1242 C1254 0.950 . S
H1243 C1255 0.950 . S
C1244 H1236 0.950 . S
C1244 C1245 1.386 . S
C1244 C1246 1.391 . S
C1245 C1244 1.386 . S
C1245 C1249 1.393 . S
C1246 H1238 0.950 . S
C1246 C1244 1.391 . S
C1246 C1247 1.400 . S
C1247 C1246 1.400 . S
C1247 C1248 1.398 . S
C1247 C1253 1.491 . S
C1248 H1239 0.950 . S
C1248 C1247 1.398 . S
C1248 C1249 1.391 . S
C1249 H1237 0.950 . S
C1249 C1245 1.393 . S
C1249 C1248 1.391 . S
C1250 H1240 0.950 . S
C1250 C1251 1.386 . S
C1250 C1252 1.391 . S
C1251 C1250 1.386 . S
C1251 C1255 1.393 . S
C1252 H1241 0.950 . S
C1252 C1250 1.391 . S
C1252 C1253 1.400 . S
C1253 C1247 1.491 . S
C1253 C1252 1.400 . S
C1253 C1254 1.398 . S
C1254 H1242 0.950 . S
C1254 C1253 1.398 . S
C1254 C1255 1.391 . S
C1255 H1243 0.950 . S
C1255 C1251 1.393 . S
C1255 C1254 1.391 . S
H1256 C1264 0.950 . S
H1257 C1269 0.950 . S
H1258 C1266 0.950 . S
H1259 C1268 0.950 . S
H1260 C1270 0.950 . S
H1261 C1272 0.950 . S
H1262 C1274 0.950 . S
H1263 C1275 0.950 . S
C1264 H1256 0.950 . S
C1264 C1265 1.386 . S
C1264 C1266 1.391 . S
C1265 C1264 1.386 . S
C1265 C1269 1.393 . S
C1266 H1258 0.950 . S
C1266 C1264 1.391 . S
C1266 C1267 1.400 . S
C1267 C1266 1.400 . S
C1267 C1268 1.398 . S
C1267 C1273 1.491 . S
C1268 H1259 0.950 . S
C1268 C1267 1.398 . S
C1268 C1269 1.391 . S
C1269 H1257 0.950 . S
C1269 C1265 1.393 . S
C1269 C1268 1.391 . S
C1270 H1260 0.950 . S
C1270 C1271 1.386 . S
C1270 C1272 1.391 . S
C1271 C1270 1.386 . S
C1271 C1275 1.393 . S
C1272 H1261 0.950 . S
C1272 C1270 1.391 . S
C1272 C1273 1.400 . S
C1273 C1267 1.491 . S
C1273 C1272 1.400 . S
C1273 C1274 1.398 . S
C1274 H1262 0.950 . S
C1274 C1273 1.398 . S
C1274 C1275 1.391 . S
C1275 H1263 0.950 . S
C1275 C1271 1.393 . S
C1275 C1274 1.391 . S
H1276 C1284 0.950 . S
H1277 C1289 0.950 . S
H1278 C1286 0.950 . S
H1279 C1288 0.950 . S
H1280 C1290 0.950 . S
H1281 C1292 0.950 . S
H1282 C1294 0.950 . S
H1283 C1295 0.950 . S
C1284 H1276 0.950 . S
C1284 C1285 1.386 . S
C1284 C1286 1.391 . S
C1285 C1284 1.386 . S
C1285 C1289 1.393 . S
C1286 H1278 0.950 . S
C1286 C1284 1.391 . S
C1286 C1287 1.400 . S
C1287 C1286 1.400 . S
C1287 C1288 1.398 . S
C1287 C1293 1.491 . S
C1288 H1279 0.950 . S
C1288 C1287 1.398 . S
C1288 C1289 1.391 . S
C1289 H1277 0.950 . S
C1289 C1285 1.393 . S
C1289 C1288 1.391 . S
C1290 H1280 0.950 . S
C1290 C1291 1.386 . S
C1290 C1292 1.391 . S
C1291 C1290 1.386 . S
C1291 C1295 1.393 . S
C1292 H1281 0.950 . S
C1292 C1290 1.391 . S
C1292 C1293 1.400 . S
C1293 C1287 1.491 . S
C1293 C1292 1.400 . S
C1293 C1294 1.398 . S
C1294 H1282 0.950 . S
C1294 C1293 1.398 . S
C1294 C1295 1.391 . S
C1295 H1283 0.950 . S
C1295 C1291 1.393 . S
C1295 C1294 1.391 . S
H1296 C1304 0.950 . S
H1297 C1309 0.950 . S
H1298 C1306 0.950 . S
H1299 C1308 0.950 . S
H1300 C1310 0.950 . S
H1301 C1312 0.950 . S
H1302 C1314 0.950 . S
H1303 C1315 0.950 . S
C1304 H1296 0.950 . S
C1304 C1305 1.386 . S
C1304 C1306 1.391 . S
C1305 C1304 1.386 . S
C1305 C1309 1.393 . S
C1306 H1298 0.950 . S
C1306 C1304 1.391 . S
C1306 C1307 1.400 . S
C1307 C1306 1.400 . S
C1307 C1308 1.398 . S
C1307 C1313 1.491 . S
C1308 H1299 0.950 . S
C1308 C1307 1.398 . S
C1308 C1309 1.391 . S
C1309 H1297 0.950 . S
C1309 C1305 1.393 . S
C1309 C1308 1.391 . S
C1310 H1300 0.950 . S
C1310 C1311 1.386 . S
C1310 C1312 1.391 . S
C1311 C1310 1.386 . S
C1311 C1315 1.393 . S
C1312 H1301 0.950 . S
C1312 C1310 1.391 . S
C1312 C1313 1.400 . S
C1313 C1307 1.491 . S
C1313 C1312 1.400 . S
C1313 C1314 1.398 . S
C1314 H1302 0.950 . S
C1314 C1313 1.398 . S
C1314 C1315 1.391 . S
C1315 H1303 0.950 . S
C1315 C1311 1.393 . S
C1315 C1314 1.391 . S
H1316 C1324 0.950 . S
H1317 C1329 0.950 . S
H1318 C1326 0.950 . S
H1319 C1328 0.950 . S
H1320 C1330 0.950 . S
H1321 C1332 0.950 . S
H1322 C1334 0.950 . S
H1323 C1335 0.950 . S
C1324 H1316 0.950 . S
C1324 C1325 1.386 . S
C1324 C1326 1.391 . S
C1325 C1324 1.386 . S
C1325 C1329 1.393 . S
C1326 H1318 0.950 . S
C1326 C1324 1.391 . S
C1326 C1327 1.400 . S
C1327 C1326 1.400 . S
C1327 C1328 1.398 . S
C1327 C1333 1.491 . S
C1328 H1319 0.950 . S
C1328 C1327 1.398 . S
C1328 C1329 1.391 . S
C1329 H1317 0.950 . S
C1329 C1325 1.393 . S
C1329 C1328 1.391 . S
C1330 H1320 0.950 . S
C1330 C1331 1.386 . S
C1330 C1332 1.391 . S
C1331 C1330 1.386 . S
C1331 C1335 1.393 . S
C1332 H1321 0.950 . S
C1332 C1330 1.391 . S
C1332 C1333 1.400 . S
C1333 C1327 1.491 . S
C1333 C1332 1.400 . S
C1333 C1334 1.398 . S
C1334 H1322 0.950 . S
C1334 C1333 1.398 . S
C1334 C1335 1.391 . S
C1335 H1323 0.950 . S
C1335 C1331 1.393 . S
C1335 C1334 1.391 . S
H1336 C1344 0.950 . S
H1337 C1349 0.950 . S
H1338 C1346 0.950 . S
H1339 C1348 0.950 . S
H1340 C1350 0.950 . S
H1341 C1352 0.950 . S
H1342 C1354 0.950 . S
H1343 C1355 0.950 . S
C1344 H1336 0.950 . S
C1344 C1345 1.386 . S
C1344 C1346 1.391 . S
C1345 C1344 1.386 . S
C1345 C1349 1.393 . S
C1346 H1338 0.950 . S
C1346 C1344 1.391 . S
C1346 C1347 1.400 . S
C1347 C1346 1.400 . S
C1347 C1348 1.398 . S
C1347 C1353 1.491 . S
C1348 H1339 0.950 . S
C1348 C1347 1.398 . S
C1348 C1349 1.391 . S
C1349 H1337 0.950 . S
C1349 C1345 1.393 . S
C1349 C1348 1.391 . S
C1350 H1340 0.950 . S
C1350 C1351 1.386 . S
C1350 C1352 1.391 . S
C1351 C1350 1.386 . S
C1351 C1355 1.393 . S
C1352 H1341 0.950 . S
C1352 C1350 1.391 . S
C1352 C1353 1.400 . S
C1353 C1347 1.491 . S
C1353 C1352 1.400 . S
C1353 C1354 1.398 . S
C1354 H1342 0.950 . S
C1354 C1353 1.398 . S
C1354 C1355 1.391 . S
C1355 H1343 0.950 . S
C1355 C1351 1.393 . S
C1355 C1354 1.391 . S
H1356 C1364 0.950 . S
H1357 C1369 0.950 . S
H1358 C1366 0.950 . S
H1359 C1368 0.950 . S
H1360 C1370 0.950 . S
H1361 C1372 0.950 . S
H1362 C1374 0.955 . S
H1363 C1375 0.950 1_455 S
C1364 H1356 0.950 . S
C1364 C1365 1.386 . S
C1364 C1366 1.391 . S
C1365 C1364 1.386 . S
C1365 C1369 1.393 . S
C1366 H1358 0.950 . S
C1366 C1364 1.391 . S
C1366 C1367 1.400 . S
C1367 C1366 1.400 . S
C1367 C1368 1.398 . S
C1367 C1373 1.491 . S
C1368 H1359 0.950 . S
C1368 C1367 1.398 . S
C1368 C1369 1.391 . S
C1369 H1357 0.950 . S
C1369 C1365 1.393 . S
C1369 C1368 1.391 . S
C1370 H1360 0.950 . S
C1370 C1371 1.386 . S
C1370 C1372 1.391 . S
C1371 C1370 1.386 . S
C1371 C1375 1.393 . S
C1372 H1361 0.950 . S
C1372 C1370 1.391 . S
C1372 C1373 1.400 . S
C1373 C1367 1.491 . S
C1373 C1372 1.400 . S
C1373 C1374 1.398 . S
C1374 H1362 0.955 . S
C1374 C1373 1.398 . S
C1374 C1375 1.391 . S
C1375 H1363 0.950 1_655 S
C1375 C1371 1.393 . S
C1375 C1374 1.391 . S
H1376 C1384 0.950 . S
H1377 C1389 0.950 . S
H1378 C1386 0.950 . S
H1379 C1388 0.950 . S
H1380 C1390 0.950 . S
H1381 C1392 0.950 . S
H1382 C1394 0.950 . S
H1383 C1395 0.950 . S
C1384 H1376 0.950 . S
C1384 C1385 1.386 . S
C1384 C1386 1.391 . S
C1385 C1384 1.386 . S
C1385 C1389 1.393 . S
C1386 H1378 0.950 . S
C1386 C1384 1.391 . S
C1386 C1387 1.400 . S
C1387 C1386 1.400 . S
C1387 C1388 1.398 . S
C1387 C1393 1.491 . S
C1388 H1379 0.950 . S
C1388 C1387 1.398 . S
C1388 C1389 1.391 . S
C1389 H1377 0.950 . S
C1389 C1385 1.393 . S
C1389 C1388 1.391 . S
C1390 H1380 0.950 . S
C1390 C1391 1.386 . S
C1390 C1392 1.391 . S
C1391 C1390 1.386 . S
C1391 C1395 1.393 . S
C1392 H1381 0.950 . S
C1392 C1390 1.391 . S
C1392 C1393 1.400 . S
C1393 C1387 1.491 . S
C1393 C1392 1.400 . S
C1393 C1394 1.398 . S
C1394 H1382 0.950 . S
C1394 C1393 1.398 . S
C1394 C1395 1.391 . S
C1395 H1383 0.950 . S
C1395 C1391 1.393 . S
C1395 C1394 1.391 . S
H1396 C1404 0.950 . S
H1397 C1409 0.950 . S
H1398 C1406 0.950 . S
H1399 C1408 0.950 . S
H1400 C1410 0.950 . S
H1401 C1412 0.950 . S
H1402 C1414 0.950 . S
H1403 C1415 0.950 . S
C1404 H1396 0.950 . S
C1404 C1405 1.386 . S
C1404 C1406 1.391 . S
C1405 C1404 1.386 . S
C1405 C1409 1.393 . S
C1406 H1398 0.950 . S
C1406 C1404 1.391 . S
C1406 C1407 1.400 . S
C1407 C1406 1.400 . S
C1407 C1408 1.398 . S
C1407 C1413 1.491 . S
C1408 H1399 0.950 . S
C1408 C1407 1.398 . S
C1408 C1409 1.391 . S
C1409 H1397 0.950 . S
C1409 C1405 1.393 . S
C1409 C1408 1.391 . S
C1410 H1400 0.950 . S
C1410 C1411 1.386 . S
C1410 C1412 1.391 . S
C1411 C1410 1.386 . S
C1411 C1415 1.393 . S
C1412 H1401 0.950 . S
C1412 C1410 1.391 . S
C1412 C1413 1.400 . S
C1413 C1407 1.491 . S
C1413 C1412 1.400 . S
C1413 C1414 1.398 . S
C1414 H1402 0.950 . S
C1414 C1413 1.398 . S
C1414 C1415 1.391 . S
C1415 H1403 0.950 . S
C1415 C1411 1.393 . S
C1415 C1414 1.391 . S
H1416 C1424 0.950 . S
H1417 C1429 0.950 . S
H1418 C1426 0.950 . S
H1419 C1428 0.950 . S
H1420 C1430 0.950 . S
H1421 C1432 0.950 . S
H1422 C1434 0.950 . S
H1423 C1435 0.950 . S
C1424 H1416 0.950 . S
C1424 C1425 1.386 . S
C1424 C1426 1.391 . S
C1425 C1424 1.386 . S
C1425 C1429 1.393 . S
C1426 H1418 0.950 . S
C1426 C1424 1.391 . S
C1426 C1427 1.400 . S
C1427 C1426 1.400 . S
C1427 C1428 1.398 . S
C1427 C1433 1.491 . S
C1428 H1419 0.950 . S
C1428 C1427 1.398 . S
C1428 C1429 1.391 . S
C1429 H1417 0.950 . S
C1429 C1425 1.393 . S
C1429 C1428 1.391 . S
C1430 H1420 0.950 . S
C1430 C1431 1.386 . S
C1430 C1432 1.391 . S
C1431 C1430 1.386 . S
C1431 C1435 1.393 . S
C1432 H1421 0.950 . S
C1432 C1430 1.391 . S
C1432 C1433 1.400 . S
C1433 C1427 1.491 . S
C1433 C1432 1.400 . S
C1433 C1434 1.398 . S
C1434 H1422 0.950 . S
C1434 C1433 1.398 . S
C1434 C1435 1.391 . S
C1435 H1423 0.950 . S
C1435 C1431 1.393 . S
C1435 C1434 1.391 . S
H1436 C1444 0.950 . S
H1437 C1449 0.950 . S
H1438 C1446 0.950 . S
H1439 C1448 0.950 . S
H1440 C1450 0.950 . S
H1441 C1452 0.950 . S
H1442 C1454 0.950 . S
H1443 C1455 0.950 . S
C1444 H1436 0.950 . S
C1444 C1445 1.386 . S
C1444 C1446 1.391 . S
C1445 C1444 1.386 . S
C1445 C1449 1.393 . S
C1446 H1438 0.950 . S
C1446 C1444 1.391 . S
C1446 C1447 1.400 . S
C1447 C1446 1.400 . S
C1447 C1448 1.398 . S
C1447 C1453 1.491 . S
C1448 H1439 0.950 . S
C1448 C1447 1.398 . S
C1448 C1449 1.391 . S
C1449 H1437 0.950 . S
C1449 C1445 1.393 . S
C1449 C1448 1.391 . S
C1450 H1440 0.950 . S
C1450 C1451 1.386 . S
C1450 C1452 1.391 . S
C1451 C1450 1.386 . S
C1451 C1455 1.393 . S
C1452 H1441 0.950 . S
C1452 C1450 1.391 . S
C1452 C1453 1.400 . S
C1453 C1447 1.491 . S
C1453 C1452 1.400 . S
C1453 C1454 1.398 . S
C1454 H1442 0.950 . S
C1454 C1453 1.398 . S
C1454 C1455 1.391 . S
C1455 H1443 0.950 . S
C1455 C1451 1.393 . S
C1455 C1454 1.391 . S
H1456 C1464 0.950 . S
H1457 C1469 0.950 . S
H1458 C1466 0.950 . S
H1459 C1468 0.950 . S
H1460 C1470 0.950 . S
H1461 C1472 0.950 . S
H1462 C1474 0.950 . S
H1463 C1475 0.950 . S
C1464 H1456 0.950 . S
C1464 C1465 1.386 . S
C1464 C1466 1.391 . S
C1465 C1464 1.386 . S
C1465 C1469 1.393 . S
C1466 H1458 0.950 . S
C1466 C1464 1.391 . S
C1466 C1467 1.400 . S
C1467 C1466 1.400 . S
C1467 C1468 1.398 . S
C1467 C1473 1.491 . S
C1468 H1459 0.950 . S
C1468 C1467 1.398 . S
C1468 C1469 1.391 . S
C1469 H1457 0.950 . S
C1469 C1465 1.393 . S
C1469 C1468 1.391 . S
C1470 H1460 0.950 . S
C1470 C1471 1.386 . S
C1470 C1472 1.391 . S
C1471 C1470 1.386 . S
C1471 C1475 1.393 . S
C1472 H1461 0.950 . S
C1472 C1470 1.391 . S
C1472 C1473 1.400 . S
C1473 C1467 1.491 . S
C1473 C1472 1.400 . S
C1473 C1474 1.398 . S
C1474 H1462 0.950 . S
C1474 C1473 1.398 . S
C1474 C1475 1.391 . S
C1475 H1463 0.950 . S
C1475 C1471 1.393 . S
C1475 C1474 1.391 . S
H1476 C1484 0.950 . S
H1477 C1489 0.950 . S
H1478 C1486 0.950 . S
H1479 C1488 0.950 . S
H1480 C1490 0.950 . S
H1481 C1492 0.950 . S
H1482 C1494 0.950 . S
H1483 C1495 0.950 . S
C1484 H1476 0.950 . S
C1484 C1485 1.386 . S
C1484 C1486 1.391 . S
C1485 C1484 1.386 . S
C1485 C1489 1.393 . S
C1486 H1478 0.950 . S
C1486 C1484 1.391 . S
C1486 C1487 1.400 . S
C1487 C1486 1.400 . S
C1487 C1488 1.398 . S
C1487 C1493 1.491 . S
C1488 H1479 0.950 . S
C1488 C1487 1.398 . S
C1488 C1489 1.391 . S
C1489 H1477 0.950 . S
C1489 C1485 1.393 . S
C1489 C1488 1.391 . S
C1490 H1480 0.950 . S
C1490 C1491 1.386 . S
C1490 C1492 1.391 . S
C1491 C1490 1.386 . S
C1491 C1495 1.393 . S
C1492 H1481 0.950 . S
C1492 C1490 1.391 . S
C1492 C1493 1.400 . S
C1493 C1487 1.491 . S
C1493 C1492 1.400 . S
C1493 C1494 1.398 . S
C1494 H1482 0.950 . S
C1494 C1493 1.398 . S
C1494 C1495 1.391 . S
C1495 H1483 0.950 . S
C1495 C1491 1.393 . S
C1495 C1494 1.391 . S
H1496 C1504 0.950 . S
H1497 C1509 0.950 . S
H1498 C1506 0.950 . S
H1499 C1508 0.950 . S
H1500 C1510 0.950 . S
H1501 C1512 0.950 . S
H1502 C1514 0.950 . S
H1503 C1515 0.950 . S
C1504 H1496 0.950 . S
C1504 C1505 1.386 . S
C1504 C1506 1.391 . S
C1505 C1504 1.386 . S
C1505 C1509 1.393 . S
C1506 H1498 0.950 . S
C1506 C1504 1.391 . S
C1506 C1507 1.400 . S
C1507 C1506 1.400 . S
C1507 C1508 1.398 . S
C1507 C1513 1.491 . S
C1508 H1499 0.950 . S
C1508 C1507 1.398 . S
C1508 C1509 1.391 . S
C1509 H1497 0.950 . S
C1509 C1505 1.393 . S
C1509 C1508 1.391 . S
C1510 H1500 0.950 . S
C1510 C1511 1.386 . S
C1510 C1512 1.391 . S
C1511 C1510 1.386 . S
C1511 C1515 1.393 . S
C1512 H1501 0.950 . S
C1512 C1510 1.391 . S
C1512 C1513 1.400 . S
C1513 C1507 1.491 . S
C1513 C1512 1.400 . S
C1513 C1514 1.398 . S
C1514 H1502 0.950 . S
C1514 C1513 1.398 . S
C1514 C1515 1.391 . S
C1515 H1503 0.950 . S
C1515 C1511 1.393 . S
C1515 C1514 1.391 . S
H1516 C1524 0.950 . S
H1517 C1529 0.950 . S
H1518 C1526 0.950 . S
H1519 C1528 0.950 . S
H1520 C1530 0.950 . S
H1521 C1532 0.950 . S
H1522 C1534 0.950 . S
H1523 C1535 0.950 . S
C1524 H1516 0.950 . S
C1524 C1525 1.386 . S
C1524 C1526 1.391 . S
C1525 C1524 1.386 . S
C1525 C1529 1.393 . S
C1526 H1518 0.950 . S
C1526 C1524 1.391 . S
C1526 C1527 1.400 . S
C1527 C1526 1.400 . S
C1527 C1528 1.398 . S
C1527 C1533 1.491 . S
C1528 H1519 0.950 . S
C1528 C1527 1.398 . S
C1528 C1529 1.391 . S
C1529 H1517 0.950 . S
C1529 C1525 1.393 . S
C1529 C1528 1.391 . S
C1530 H1520 0.950 . S
C1530 C1531 1.386 . S
C1530 C1532 1.391 . S
C1531 C1530 1.386 . S
C1531 C1535 1.393 . S
C1532 H1521 0.950 . S
C1532 C1530 1.391 . S
C1532 C1533 1.400 . S
C1533 C1527 1.491 . S
C1533 C1532 1.400 . S
C1533 C1534 1.398 . S
C1534 H1522 0.950 . S
C1534 C1533 1.398 . S
C1534 C1535 1.391 . S
C1535 H1523 0.950 . S
C1535 C1531 1.393 . S
C1535 C1534 1.391 . S
H1536 C1544 0.950 . S
H1537 C1549 0.950 . S
H1538 C1546 0.950 . S
H1539 C1548 0.950 . S
H1540 C1550 0.950 . S
H1541 C1552 0.950 . S
H1542 C1554 0.950 . S
H1543 C1555 0.950 . S
C1544 H1536 0.950 . S
C1544 C1545 1.386 . S
C1544 C1546 1.391 . S
C1545 C1544 1.386 . S
C1545 C1549 1.393 . S
C1546 H1538 0.950 . S
C1546 C1544 1.391 . S
C1546 C1547 1.400 . S
C1547 C1546 1.400 . S
C1547 C1548 1.398 . S
C1547 C1553 1.491 . S
C1548 H1539 0.950 . S
C1548 C1547 1.398 . S
C1548 C1549 1.391 . S
C1549 H1537 0.950 . S
C1549 C1545 1.393 . S
C1549 C1548 1.391 . S
C1550 H1540 0.950 . S
C1550 C1551 1.386 . S
C1550 C1552 1.391 . S
C1551 C1550 1.386 . S
C1551 C1555 1.393 . S
C1552 H1541 0.950 . S
C1552 C1550 1.391 . S
C1552 C1553 1.400 . S
C1553 C1547 1.491 . S
C1553 C1552 1.400 . S
C1553 C1554 1.398 . S
C1554 H1542 0.950 . S
C1554 C1553 1.398 . S
C1554 C1555 1.391 . S
C1555 H1543 0.950 . S
C1555 C1551 1.393 . S
C1555 C1554 1.391 . S
H1556 C1564 0.950 . S
H1557 C1569 0.950 . S
H1558 C1566 0.950 . S
H1559 C1568 0.950 . S
H1560 C1570 0.950 . S
H1561 C1572 0.950 . S
H1562 C1574 0.950 . S
H1563 C1575 0.950 . S
C1564 H1556 0.950 . S
C1564 C1565 1.386 . S
C1564 C1566 1.391 . S
C1565 C1564 1.386 . S
C1565 C1569 1.393 . S
C1566 H1558 0.950 . S
C1566 C1564 1.391 . S
C1566 C1567 1.400 . S
C1567 C1566 1.400 . S
C1567 C1568 1.398 . S
C1567 C1573 1.491 . S
C1568 H1559 0.950 . S
C1568 C1567 1.398 . S
C1568 C1569 1.391 . S
C1569 H1557 0.950 . S
C1569 C1565 1.393 . S
C1569 C1568 1.391 . S
C1570 H1560 0.950 . S
C1570 C1571 1.386 . S
C1570 C1572 1.391 . S
C1571 C1570 1.386 . S
C1571 C1575 1.393 . S
C1572 H1561 0.950 . S
C1572 C1570 1.391 . S
C1572 C1573 1.400 . S
C1573 C1567 1.491 . S
C1573 C1572 1.400 . S
C1573 C1574 1.398 . S
C1574 H1562 0.950 . S
C1574 C1573 1.398 . S
C1574 C1575 1.391 . S
C1575 H1563 0.950 . S
C1575 C1571 1.393 . S
C1575 C1574 1.391 . S
H1576 C1584 0.950 . S
H1577 C1589 0.950 . S
H1578 C1586 0.950 . S
H1579 C1588 0.950 . S
H1580 C1590 0.950 . S
H1581 C1592 0.950 . S
H1582 C1594 0.950 . S
H1583 C1595 0.950 . S
C1584 H1576 0.950 . S
C1584 C1585 1.386 . S
C1584 C1586 1.391 . S
C1585 C1584 1.386 . S
C1585 C1589 1.393 . S
C1586 H1578 0.950 . S
C1586 C1584 1.391 . S
C1586 C1587 1.400 . S
C1587 C1586 1.400 . S
C1587 C1588 1.398 . S
C1587 C1593 1.491 . S
C1588 H1579 0.950 . S
C1588 C1587 1.398 . S
C1588 C1589 1.391 . S
C1589 H1577 0.950 . S
C1589 C1585 1.393 . S
C1589 C1588 1.391 . S
C1590 H1580 0.950 . S
C1590 C1591 1.386 . S
C1590 C1592 1.391 . S
C1591 C1590 1.386 . S
C1591 C1595 1.393 . S
C1592 H1581 0.950 . S
C1592 C1590 1.391 . S
C1592 C1593 1.400 . S
C1593 C1587 1.491 . S
C1593 C1592 1.400 . S
C1593 C1594 1.398 . S
C1594 H1582 0.950 . S
C1594 C1593 1.398 . S
C1594 C1595 1.391 . S
C1595 H1583 0.950 . S
C1595 C1591 1.393 . S
C1595 C1594 1.391 . S
H1596 C1604 0.950 . S
H1597 C1609 0.950 . S
H1598 C1606 0.950 . S
H1599 C1608 0.950 . S
H1600 C1610 0.950 . S
H1601 C1612 0.950 . S
H1602 C1614 0.950 . S
H1603 C1615 0.950 . S
C1604 H1596 0.950 . S
C1604 C1605 1.386 . S
C1604 C1606 1.391 . S
C1605 C1604 1.386 . S
C1605 C1609 1.393 . S
C1606 H1598 0.950 . S
C1606 C1604 1.391 . S
C1606 C1607 1.400 . S
C1607 C1606 1.400 . S
C1607 C1608 1.398 . S
C1607 C1613 1.491 . S
C1608 H1599 0.950 . S
C1608 C1607 1.398 . S
C1608 C1609 1.391 . S
C1609 H1597 0.950 . S
C1609 C1605 1.393 . S
C1609 C1608 1.391 . S
C1610 H1600 0.950 . S
C1610 C1611 1.386 . S
C1610 C1612 1.391 . S
C1611 C1610 1.386 . S
C1611 C1615 1.393 . S
C1612 H1601 0.950 . S
C1612 C1610 1.391 . S
C1612 C1613 1.400 . S
C1613 C1607 1.491 . S
C1613 C1612 1.400 . S
C1613 C1614 1.398 . S
C1614 H1602 0.950 . S
C1614 C1613 1.398 . S
C1614 C1615 1.391 . S
C1615 H1603 0.950 . S
C1615 C1611 1.393 . S
C1615 C1614 1.391 . S
H1616 C1624 0.950 . S
H1617 C1629 0.950 . S
H1618 C1626 0.950 . S
H1619 C1628 0.950 . S
H1620 C1630 0.950 . S
H1621 C1632 0.950 . S
H1622 C1634 0.950 . S
H1623 C1635 0.950 . S
C1624 H1616 0.950 . S
C1624 C1625 1.386 . S
C1624 C1626 1.391 . S
C1625 C1624 1.386 . S
C1625 C1629 1.393 . S
C1626 H1618 0.950 . S
C1626 C1624 1.391 . S
C1626 C1627 1.400 . S
C1627 C1626 1.400 . S
C1627 C1628 1.398 . S
C1627 C1633 1.491 . S
C1628 H1619 0.950 . S
C1628 C1627 1.398 . S
C1628 C1629 1.391 . S
C1629 H1617 0.950 . S
C1629 C1625 1.393 . S
C1629 C1628 1.391 . S
C1630 H1620 0.950 . S
C1630 C1631 1.386 . S
C1630 C1632 1.391 . S
C1631 C1630 1.386 . S
C1631 C1635 1.393 . S
C1632 H1621 0.950 . S
C1632 C1630 1.391 . S
C1632 C1633 1.400 . S
C1633 C1627 1.491 . S
C1633 C1632 1.400 . S
C1633 C1634 1.398 . S
C1634 H1622 0.950 . S
C1634 C1633 1.398 . S
C1634 C1635 1.391 . S
C1635 H1623 0.950 . S
C1635 C1631 1.393 . S
C1635 C1634 1.391 . S
H1636 C1644 0.950 . S
H1637 C1649 0.950 . S
H1638 C1646 0.950 . S
H1639 C1648 0.950 . S
H1640 C1650 0.950 . S
H1641 C1652 0.950 . S
H1642 C1654 0.950 . S
H1643 C1655 0.950 . S
C1644 H1636 0.950 . S
C1644 C1645 1.386 . S
C1644 C1646 1.391 . S
C1645 C1644 1.386 . S
C1645 C1649 1.393 . S
C1646 H1638 0.950 . S
C1646 C1644 1.391 . S
C1646 C1647 1.400 . S
C1647 C1646 1.400 . S
C1647 C1648 1.398 . S
C1647 C1653 1.491 . S
C1648 H1639 0.950 . S
C1648 C1647 1.398 . S
C1648 C1649 1.391 . S
C1649 H1637 0.950 . S
C1649 C1645 1.393 . S
C1649 C1648 1.391 . S
C1650 H1640 0.950 . S
C1650 C1651 1.386 . S
C1650 C1652 1.391 . S
C1651 C1650 1.386 . S
C1651 C1655 1.393 . S
C1652 H1641 0.950 . S
C1652 C1650 1.391 . S
C1652 C1653 1.400 . S
C1653 C1647 1.491 . S
C1653 C1652 1.400 . S
C1653 C1654 1.398 . S
C1654 H1642 0.950 . S
C1654 C1653 1.398 . S
C1654 C1655 1.391 . S
C1655 H1643 0.950 . S
C1655 C1651 1.393 . S
C1655 C1654 1.391 . S
C585 C162 1.661 . S
C591 C225 1.652 . S
C605 C174 1.784 . S
C611 C265 1.779 . S
C625 C150 1.589 . S
C631 C304 1.554 . S
C645 C138 1.485 . S
C651 C264 1.450 1_556 S
C671 C305 1.494 . S
C665 C114 1.502 . S
C685 C126 1.367 . S
C691 C224 1.342 1_556 S
C711 C235 1.617 . S
C705 C136 1.632 . S
C731 C275 1.642 . S
C725 C112 1.645 . S
C745 C124 1.646 . S
C751 C314 1.678 . S
C765 C160 1.492 . S
C771 C274 1.507 . S
C785 C172 1.457 . S
C791 C315 1.437 . S
C811 C234 1.484 . S
C805 C148 1.459 . S
C831 C345 1.661 . S
C825 C18 1.666 . S
C845 C30 1.782 . S
C851 C385 1.772 . S
C865 C6 1.589 . S
C871 C424 1.551 . S
C885 C210 1.480 . S
C891 C384 1.448 . S
C905 C186 1.502 . S
C911 C425 1.501 . S
C925 C198 1.358 . S
C931 C344 1.347 . S
C945 C208 1.633 . S
C951 C355 1.627 . S
C965 C184 1.638 . S
C971 C395 1.631 . S
C991 C434 1.676 . S
C985 C196 1.653 . S
C1005 C16 1.487 . S
C1011 C394 1.502 . S
C1031 C435 1.426 . S
C1025 C28 1.444 . S
C1045 C4 1.455 . S
C1051 C354 1.472 . S
C1071 C465 1.661 . S
C1065 C90 1.666 . S
C1085 C102 1.782 . S
C1091 C505 1.775 . S
C1111 C544 1.573 . S
C1105 C78 1.599 . S
C1131 C504 1.443 . S
C1125 C66 1.477 . S
C1151 C545 1.497 . S
C1145 C42 1.502 . S
C1165 C54 1.367 . S
C1171 C464 1.345 . S
C1185 C64 1.632 . S
C1191 C475 1.627 . S
C1205 C40 1.652 . S
C1211 C515 1.639 . S
C1231 C554 1.677 . S
C1225 C52 1.652 . S
C1245 C88 1.505 . S
C1251 C514 1.507 . S
C1265 C100 1.454 . S
C1271 C555 1.432 . S
C1285 C76 1.450 . S
C1291 C474 1.481 . S
C1305 C189 1.510 . S
C1311 C221 1.499 . S
C1331 C261 1.934 . S
C1325 C201 1.941 . S
C1345 C213 1.560 . S
C1351 C311 1.576 . S
C1365 C81 1.779 . S
C1371 C271 1.789 . S
C1385 C93 1.688 . S
C1391 C301 1.686 . S
C1411 C231 1.323 . S
C1405 C105 1.314 . S
C1425 C45 1.512 . S
C1431 C341 1.503 . S
C1445 C57 1.939 . S
C1451 C381 1.932 . S
C1465 C69 1.563 . S
C1471 C431 1.577 . S
C1485 C153 1.779 . S
C1491 C391 1.788 . S
C1511 C421 1.683 . S
C1505 C165 1.685 . S
C1525 C177 1.322 . S
C1531 C351 1.325 . S
C1545 C117 1.500 . S
C1551 C461 1.486 . S
C1565 C129 1.934 . S
C1571 C501 1.929 . S
C1591 C551 1.577 . S
C1585 C141 1.562 . S
C1605 C9 1.779 . S
C1611 C511 1.791 . S
C1625 C21 1.682 . S
C1631 C541 1.681 . S
C1645 C33 1.312 . S
C1651 C471 1.323 . S
