# Generated by pormake.
# Topology llj, (12,3)-cn, num edge types: 1
# Building blocks:
#     Node 0, Type 0, BuildingBlock: QEWDON_clean_sbu_0, # of connection points: 12
#     Node 1, Type 0, BuildingBlock: QEWDON_clean_sbu_0, # of connection points: 12
#     Node 2, Type 1, BuildingBlock: BETDAH_clean_linker_0, # of connection points: 3
#     Node 3, Type 1, BuildingBlock: BETDAH_clean_linker_0, # of connection points: 3
#     Node 4, Type 1, BuildingBlock: BETDAH_clean_linker_0, # of connection points: 3
#     Node 5, Type 1, BuildingBlock: BETDAH_clean_linker_0, # of connection points: 3
#     Node 6, Type 1, BuildingBlock: BETDAH_clean_linker_0, # of connection points: 3
#     Node 7, Type 1, BuildingBlock: BETDAH_clean_linker_0, # of connection points: 3
#     Node 8, Type 1, BuildingBlock: BETDAH_clean_linker_0, # of connection points: 3
#     Node 9, Type 1, BuildingBlock: BETDAH_clean_linker_0, # of connection points: 3
#     Edge 10, Type (0, 1), BuildingBlock: KIFKEQ_clean_linker_1, # of connection points: 2
#     Edge 11, Type (0, 1), BuildingBlock: KIFKEQ_clean_linker_1, # of connection points: 2
#     Edge 12, Type (0, 1), BuildingBlock: KIFKEQ_clean_linker_1, # of connection points: 2
#     Edge 13, Type (0, 1), BuildingBlock: KIFKEQ_clean_linker_1, # of connection points: 2
#     Edge 14, Type (0, 1), BuildingBlock: KIFKEQ_clean_linker_1, # of connection points: 2
#     Edge 15, Type (0, 1), BuildingBlock: KIFKEQ_clean_linker_1, # of connection points: 2
#     Edge 16, Type (0, 1), BuildingBlock: KIFKEQ_clean_linker_1, # of connection points: 2
#     Edge 17, Type (0, 1), BuildingBlock: KIFKEQ_clean_linker_1, # of connection points: 2
#     Edge 18, Type (0, 1), BuildingBlock: KIFKEQ_clean_linker_1, # of connection points: 2
#     Edge 19, Type (0, 1), BuildingBlock: KIFKEQ_clean_linker_1, # of connection points: 2
#     Edge 20, Type (0, 1), BuildingBlock: KIFKEQ_clean_linker_1, # of connection points: 2
#     Edge 21, Type (0, 1), BuildingBlock: KIFKEQ_clean_linker_1, # of connection points: 2
#     Edge 22, Type (0, 1), BuildingBlock: KIFKEQ_clean_linker_1, # of connection points: 2
#     Edge 23, Type (0, 1), BuildingBlock: KIFKEQ_clean_linker_1, # of connection points: 2
#     Edge 24, Type (0, 1), BuildingBlock: KIFKEQ_clean_linker_1, # of connection points: 2
#     Edge 25, Type (0, 1), BuildingBlock: KIFKEQ_clean_linker_1, # of connection points: 2
#     Edge 26, Type (0, 1), BuildingBlock: KIFKEQ_clean_linker_1, # of connection points: 2
#     Edge 27, Type (0, 1), BuildingBlock: KIFKEQ_clean_linker_1, # of connection points: 2
#     Edge 28, Type (0, 1), BuildingBlock: KIFKEQ_clean_linker_1, # of connection points: 2
#     Edge 29, Type (0, 1), BuildingBlock: KIFKEQ_clean_linker_1, # of connection points: 2
#     Edge 30, Type (0, 1), BuildingBlock: KIFKEQ_clean_linker_1, # of connection points: 2
#     Edge 31, Type (0, 1), BuildingBlock: KIFKEQ_clean_linker_1, # of connection points: 2
#     Edge 32, Type (0, 1), BuildingBlock: KIFKEQ_clean_linker_1, # of connection points: 2
#     Edge 33, Type (0, 1), BuildingBlock: KIFKEQ_clean_linker_1, # of connection points: 2
# Relax obj value: 0.009
# Max RMSD: 0.100
# Mean RMSD: 0.085
data_MOF--net-llj--node1-QEWDON_clean_sbu_0--node2-BETDAH_clean_linker_0--edge1-KIFKEQ_clean_linker_1
_symmetry_space_group_name_H-M    P1
_symmetry_Int_Tables_number       1
_symmetry_cell_setting            triclinic
loop_
_symmetry_equiv_pos_as_xyz
'x, y, z'
_cell_length_a     40.024297
_cell_length_b     40.034843
_cell_length_c     24.913801
_cell_angle_alpha  91.469566
_cell_angle_beta   90.368187
_cell_angle_gamma 89.844435
loop_
_atom_site_label
_atom_site_type_symbol
_atom_site_fract_x
_atom_site_fract_y
_atom_site_fract_z
_atom_type_partial_charge
Zn0 Zn 0.95722 0.07334 0.91116 0.0
Zn1 Zn 0.94855 0.06301 0.03749 0.0
O2 O 0.98067 0.05686 0.97711 0.0
H3 H 0.99779 0.03981 0.97512 0.0
C4 C 0.89348 0.00317 0.84626 0.0
O5 O 0.88537 0.01372 0.89485 0.0
Zn6 Zn 0.05544 0.9327 0.04318 0.0
Zn7 Zn 0.04636 0.90681 0.92084 0.0
O8 O 0.02728 0.93812 0.97753 0.0
H9 H 0.01334 0.95724 0.97043 0.0
Zn10 Zn 0.92151 0.94788 0.9063 0.0
O11 O 0.94352 0.97188 0.96919 0.0
Zn12 Zn 0.93618 0.94394 0.03328 0.0
H13 H 0.96054 0.98874 0.96574 0.0
Zn14 Zn 0.07709 0.0579 0.92462 0.0
O15 O 0.06589 0.02584 0.98314 0.0
H16 H 0.0528 0.00593 0.97656 0.0
Zn17 Zn 0.06744 0.0534 0.05061 0.0
C18 C 0.11255 0.0086 0.8623 0.0
O19 O 0.11839 0.99869 0.91136 0.0
O20 O 0.91517 0.10155 0.92775 0.0
O21 O 0.91081 0.09472 0.01593 0.0
O22 O 0.08827 0.88053 0.94292 0.0
O23 O 0.09458 0.90033 0.0267 0.0
O24 O 0.89346 0.90692 0.92587 0.0
O25 O 0.90584 0.90432 0.01291 0.0
C26 C 0.00472 0.07871 0.10493 0.0
O27 O 0.10141 0.09998 0.95317 0.0
O28 O 0.09831 0.09347 0.04154 0.0
O29 O 0.01763 0.89255 0.85482 0.0
C30 C 0.90046 0.10749 0.97229 0.0
O31 O 0.98784 0.08512 0.84767 0.0
C32 C 0.99505 0.91853 0.10039 0.0
O33 O 0.90889 0.97554 0.84025 0.0
C34 C 0.10424 0.88159 0.98737 0.0
O35 O 0.09518 0.0348 0.85563 0.0
C36 C 0.9185 0.00392 0.09147 0.0
O37 O 0.97302 0.08076 0.10399 0.0
O38 O 0.01955 0.06668 0.06388 0.0
C39 C 0.89074 0.89289 0.97097 0.0
O40 O 0.02666 0.91553 0.1031 0.0
O41 O 0.98232 0.92956 0.05734 0.0
C42 C 0.08026 0.99338 0.10919 0.0
O43 O 0.91557 0.97237 0.0929 0.0
O44 O 0.93264 0.01647 0.05129 0.0
C45 C 0.10853 0.10949 0.0011 0.0
O46 O 0.08291 0.02505 0.11198 0.0
O47 O 0.07001 0.97977 0.06533 0.0
C48 C 0.98721 0.88419 0.85987 0.0
O49 O 0.974 0.88416 0.90802 0.0
C50 C 0.01535 0.1 0.85724 0.0
O51 O 0.02323 0.10834 0.90708 0.0
Zn52 Zn 0.43545 0.58351 0.48875 0.0
Zn53 Zn 0.44687 0.58452 0.61237 0.0
O54 O 0.47231 0.58515 0.544 0.0
H55 H 0.49414 0.57598 0.53636 0.0
C56 C 0.44592 0.47456 0.38855 0.0
O57 O 0.47307 0.48469 0.41395 0.0
Zn58 Zn 0.55715 0.44745 0.58998 0.0
Zn59 Zn 0.55398 0.44402 0.46224 0.0
O60 O 0.52593 0.45309 0.52802 0.0
H61 H 0.50603 0.46681 0.52752 0.0
Zn62 Zn 0.4369 0.44414 0.49076 0.0
O63 O 0.43365 0.48485 0.54096 0.0
Zn64 Zn 0.43661 0.46078 0.60971 0.0
H65 H 0.44355 0.5061 0.53282 0.0
Zn66 Zn 0.57658 0.55382 0.47591 0.0
O67 O 0.55113 0.53718 0.5385 0.0
H68 H 0.53107 0.52385 0.53562 0.0
Zn69 Zn 0.56341 0.56679 0.60108 0.0
C70 C 0.60219 0.49621 0.41424 0.0
O71 O 0.61662 0.48964 0.46031 0.0
O72 O 0.39229 0.60531 0.51698 0.0
O73 O 0.40399 0.61215 0.6042 0.0
O74 O 0.5954 0.41554 0.47869 0.0
O75 O 0.5955 0.41585 0.56814 0.0
O76 O 0.41435 0.40246 0.52083 0.0
O77 O 0.40631 0.41963 0.60544 0.0
C78 C 0.5079 0.59728 0.66899 0.0
O79 O 0.60751 0.59342 0.49295 0.0
O80 O 0.5961 0.60368 0.57924 0.0
O81 O 0.52657 0.43107 0.39441 0.0
C82 C 0.38468 0.61635 0.56381 0.0
O83 O 0.45217 0.59424 0.41287 0.0
C84 C 0.5003 0.43343 0.65509 0.0
O85 O 0.42611 0.45513 0.41207 0.0
C86 C 0.6078 0.40614 0.52308 0.0
O87 O 0.58431 0.5223 0.41057 0.0
C88 C 0.42533 0.52361 0.66731 0.0
O89 O 0.47653 0.60151 0.67402 0.0
O90 O 0.51872 0.58455 0.62533 0.0
C91 C 0.402 0.39819 0.56715 0.0
O92 O 0.53177 0.42943 0.65281 0.0
O93 O 0.48527 0.44798 0.61723 0.0
C94 C 0.58278 0.50682 0.65385 0.0
O95 O 0.42309 0.49205 0.67116 0.0
O96 O 0.43635 0.53583 0.62437 0.0
C97 C 0.6117 0.6106 0.53626 0.0
O98 O 0.58336 0.53848 0.65964 0.0
O99 O 0.57162 0.49418 0.61008 0.0
C100 C 0.50334 0.41 0.40083 0.0
O101 O 0.49895 0.39763 0.44862 0.0
C102 C 0.47869 0.57883 0.39922 0.0
O103 O 0.49121 0.55658 0.43163 0.0
H104 H 0.40495 0.37323 0.0323 0.0
H105 H 0.35337 0.28884 0.09672 0.0
H106 H 0.36783 0.29507 0.92696 0.0
C107 C 0.39101 0.35023 0.02651 0.0
C108 C 0.38663 0.33697 0.9743 0.0
C109 C 0.37924 0.33316 0.07124 0.0
C110 C 0.36207 0.3028 0.06287 0.0
C111 C 0.35781 0.28934 0.01078 0.0
C112 C 0.37011 0.30637 0.96683 0.0
N113 N 0.34549 0.25659 0.00258 0.0
C114 C 0.31239 0.2483 0.01121 0.0
H115 H 0.63252 0.40514 0.02031 0.0
H116 H 0.71262 0.35757 0.10559 0.0
H117 H 0.7126 0.35717 0.93337 0.0
C118 C 0.6553 0.39041 0.02029 0.0
C119 C 0.67054 0.38204 0.97119 0.0
C120 C 0.67007 0.38166 0.06918 0.0
C121 C 0.69988 0.36314 0.06834 0.0
C122 C 0.71469 0.35346 0.0196 0.0
C123 C 0.6999 0.36271 0.97085 0.0
N124 N 0.74729 0.33986 0.02073 0.0
C125 C 0.75481 0.30772 0.0025 0.0
H126 H 0.59591 0.6265 0.03299 0.0
H127 H 0.67868 0.68598 0.98115 0.0
H128 H 0.65303 0.68379 0.14857 0.0
C129 C 0.61687 0.64282 0.04229 0.0
C130 C 0.62229 0.6534 0.09552 0.0
C131 C 0.63701 0.65432 0.00068 0.0
C132 C 0.66313 0.67685 0.013 0.0
C133 C 0.66896 0.68729 0.06674 0.0
C134 C 0.6484 0.67561 0.10737 0.0
N135 N 0.69497 0.70957 0.08226 0.0
C136 C 0.71813 0.72361 0.04833 0.0
H137 H 0.38571 0.59801 0.02966 0.0
H138 H 0.32217 0.68101 0.9918 0.0
H139 H 0.33203 0.65 0.15531 0.0
C140 C 0.36923 0.61807 0.04295 0.0
C141 C 0.3607 0.62121 0.09725 0.0
C142 C 0.35578 0.63965 0.0049 0.0
C143 C 0.33285 0.66456 0.02122 0.0
C144 C 0.32442 0.66826 0.07594 0.0
C145 C 0.33849 0.64668 0.11332 0.0
N146 N 0.30214 0.69327 0.09568 0.0
C147 C 0.28439 0.71585 0.06503 0.0
H148 H 0.89911 0.865 0.47926 0.0
H149 H 0.80662 0.83244 0.54756 0.0
H150 H 0.81092 0.85582 0.38043 0.0
C151 C 0.87302 0.85831 0.47453 0.0
C152 C 0.85759 0.86101 0.42406 0.0
C153 C 0.85486 0.84824 0.51941 0.0
C154 C 0.82083 0.84038 0.5133 0.0
C155 C 0.80502 0.84328 0.46308 0.0
C156 C 0.82331 0.85408 0.41906 0.0
N157 N 0.77068 0.83578 0.4557 0.0
C158 C 0.75476 0.8102 0.48205 0.0
H159 H 0.14045 0.90955 0.489 0.0
H160 H 0.1752 0.82078 0.56615 0.0
H161 H 0.14815 0.81691 0.39892 0.0
C162 C 0.14694 0.88325 0.48707 0.0
C163 C 0.1435 0.86539 0.43822 0.0
C164 C 0.15824 0.86742 0.53353 0.0
C165 C 0.16653 0.83325 0.53056 0.0
C166 C 0.16291 0.81509 0.4818 0.0
C167 C 0.15122 0.8312 0.43617 0.0
N168 N 0.16985 0.7804 0.47737 0.0
C169 C 0.19151 0.76357 0.51109 0.0
H170 H 0.10269 0.13624 0.48945 0.0
H171 H 0.15522 0.20354 0.38832 0.0
H172 H 0.17314 0.20667 0.55831 0.0
C173 C 0.12134 0.15547 0.48447 0.0
C174 C 0.13771 0.16931 0.53001 0.0
C175 C 0.12733 0.16751 0.433 0.0
C176 C 0.15001 0.19386 0.4276 0.0
C177 C 0.16666 0.20787 0.47221 0.0
C178 C 0.16066 0.19551 0.52357 0.0
N179 N 0.18782 0.23552 0.46359 0.0
C180 C 0.21428 0.2457 0.49636 0.0
H181 H 0.85334 0.09324 0.46503 0.0
H182 H 0.77164 0.14182 0.54687 0.0
H183 H 0.77856 0.1464 0.37564 0.0
C184 C 0.83129 0.10897 0.46373 0.0
C185 C 0.81886 0.11957 0.41407 0.0
C186 C 0.81463 0.11698 0.51183 0.0
C187 C 0.78548 0.13653 0.51036 0.0
C188 C 0.77256 0.14688 0.46108 0.0
C189 C 0.78921 0.13849 0.41334 0.0
N190 N 0.7403 0.16111 0.45827 0.0
C191 C 0.73372 0.19403 0.47337 0.0
H192 H 0.12185 0.15898 0.93136 0.0
H193 H 0.14798 0.12392 0.08874 0.0
H194 H 0.16673 0.19978 0.93756 0.0
H195 H 0.19392 0.16373 0.09405 0.0
H196 H 0.27096 0.24626 0.09696 0.0
H197 H 0.21582 0.21944 0.0988 0.0
H198 H 0.22517 0.19355 0.92984 0.0
H199 H 0.2792 0.22114 0.92833 0.0
C200 C 0.13702 0.16022 0.96754 0.0
C201 C 0.13178 0.13785 0.00915 0.0
C202 C 0.16288 0.18348 0.97099 0.0
C203 C 0.18451 0.18454 0.01573 0.0
C204 C 0.17774 0.16375 0.05905 0.0
C205 C 0.15148 0.14077 0.05592 0.0
C206 C 0.26065 0.23528 0.06028 0.0
C207 C 0.27882 0.23565 0.01245 0.0
C208 C 0.2293 0.21978 0.06128 0.0
C209 C 0.21592 0.20435 0.01445 0.0
C210 C 0.23418 0.20572 0.96643 0.0
C211 C 0.26526 0.22128 0.9655 0.0
H212 H 0.86768 0.13489 0.8872 0.0
H213 H 0.86939 0.13483 0.06073 0.0
H214 H 0.82605 0.17939 0.8897 0.0
H215 H 0.82845 0.17987 0.06316 0.0
H216 H 0.74256 0.25149 0.0558 0.0
H217 H 0.77215 0.19809 0.04496 0.0
H218 H 0.8277 0.2381 0.91297 0.0
H219 H 0.79745 0.29092 0.92345 0.0
C220 C 0.85904 0.1442 0.92591 0.0
C221 C 0.87226 0.13159 0.97379 0.0
C222 C 0.83524 0.16981 0.92731 0.0
C223 C 0.82415 0.18352 0.97659 0.0
C224 C 0.83614 0.16974 0.02445 0.0
C225 C 0.85984 0.14401 0.02307 0.0
C226 C 0.7605 0.24832 0.02365 0.0
C227 C 0.76774 0.27485 0.9901 0.0
C228 C 0.77766 0.21797 0.01773 0.0
C229 C 0.80249 0.21382 0.97833 0.0
C230 C 0.80846 0.24017 0.94324 0.0
C231 C 0.79125 0.27045 0.9492 0.0
H232 H 0.84959 0.86513 0.89358 0.0
H233 H 0.88123 0.85432 0.05855 0.0
H234 H 0.80978 0.81959 0.90348 0.0
H235 H 0.84144 0.80908 0.06824 0.0
H236 H 0.78367 0.71387 0.06343 0.0
H237 H 0.8287 0.75131 0.03742 0.0
H238 H 0.75691 0.81276 0.95492 0.0
H239 H 0.71205 0.77493 0.9808 0.0
C240 C 0.84828 0.85291 0.9318 0.0
C241 C 0.86845 0.86359 0.97543 0.0
C242 C 0.8254 0.8269 0.93744 0.0
C243 C 0.82246 0.81077 0.9866 0.0
C244 C 0.84339 0.82071 0.02961 0.0
C245 C 0.86606 0.84684 0.02415 0.0
C246 C 0.77783 0.7349 0.03845 0.0
C247 C 0.74474 0.74165 0.02363 0.0
C248 C 0.80345 0.75646 0.024 0.0
C249 C 0.7963 0.78515 0.99458 0.0
C250 C 0.76326 0.79072 0.97718 0.0
C251 C 0.7376 0.76916 0.9919 0.0
H252 H 0.14434 0.87559 0.07629 0.0
H253 H 0.13121 0.83752 0.91356 0.0
H254 H 0.19069 0.83691 0.08874 0.0
H255 H 0.17785 0.79918 0.92597 0.0
H256 H 0.23065 0.70647 0.00045 0.0
H257 H 0.18894 0.74873 0.97723 0.0
H258 H 0.24787 0.82444 0.06028 0.0
H259 H 0.28914 0.78191 0.08384 0.0
C260 C 0.15151 0.85925 0.04298 0.0
C261 C 0.13386 0.85961 0.99402 0.0
C262 C 0.17825 0.83718 0.05002 0.0
C263 C 0.18797 0.8149 0.00834 0.0
C264 C 0.17076 0.81573 0.95906 0.0
C265 C 0.14409 0.83786 0.95193 0.0
C266 C 0.23488 0.73232 0.01251 0.0
C267 C 0.26297 0.74125 0.04339 0.0
C268 C 0.21109 0.75652 -0.00069 0.0
C269 C 0.21496 0.78996 0.01725 0.0
C270 C 0.24392 0.79887 0.04649 0.0
C271 C 0.26769 0.77468 0.05949 0.0
H272 H 0.65685 0.62493 0.45895 0.0
H273 H 0.61967 0.66112 0.61233 0.0
H274 H 0.69371 0.67278 0.45494 0.0
H275 H 0.65706 0.70938 0.60819 0.0
H276 H 0.69433 0.80984 0.52956 0.0
H277 H 0.66147 0.76027 0.55077 0.0
H278 H 0.74362 0.69706 0.49968 0.0
H279 H 0.77607 0.74668 0.47819 0.0
C280 C 0.65665 0.643 0.49206 0.0
C281 C 0.63514 0.63922 0.53587 0.0
C282 C 0.67805 0.67034 0.48993 0.0
C283 C 0.67843 0.69478 0.53137 0.0
C284 C 0.6572 0.69097 0.57557 0.0
C285 C 0.63591 0.6633 0.57799 0.0
C286 C 0.70543 0.78529 0.52408 0.0
C287 C 0.73749 0.78172 0.50239 0.0
C288 C 0.68676 0.75698 0.53631 0.0
C289 C 0.69987 0.72477 0.52646 0.0
C290 C 0.7327 0.72153 0.50706 0.0
C291 C 0.75133 0.74981 0.49508 0.0
H292 H 0.3293 0.6109 0.50115 0.0
H293 H 0.36884 0.66452 0.64011 0.0
H294 H 0.27964 0.64586 0.50344 0.0
H295 H 0.31871 0.7001 0.64204 0.0
H296 H 0.18473 0.69863 0.53168 0.0
H297 H 0.2293 0.66054 0.55905 0.0
H298 H 0.29724 0.7439 0.57548 0.0
H299 H 0.25237 0.78192 0.5483 0.0
C300 C 0.32717 0.62995 0.53265 0.0
C301 C 0.35309 0.63519 0.57014 0.0
C302 C 0.29856 0.6498 0.53423 0.0
C303 C 0.29528 0.67568 0.57297 0.0
C304 C 0.32067 0.68034 0.61171 0.0
C305 C 0.34923 0.65995 0.61069 0.0
C306 C 0.20896 0.70879 0.54278 0.0
C307 C 0.21545 0.74291 0.53806 0.0
C308 C 0.23444 0.68708 0.55818 0.0
C309 C 0.26679 0.69924 0.56894 0.0
C310 C 0.2725 0.73388 0.56791 0.0
C311 C 0.24696 0.75559 0.55224 0.0
H312 H 0.40899 0.33578 0.52365 0.0
H313 H 0.34422 0.39603 0.62459 0.0
H314 H 0.36695 0.292 0.51854 0.0
H315 H 0.30099 0.35327 0.61675 0.0
H316 H 0.2268 0.26898 0.59841 0.0
H317 H 0.2767 0.30013 0.62844 0.0
H318 H 0.31799 0.28805 0.46891 0.0
H319 H 0.26927 0.25617 0.44074 0.0
C320 C 0.38583 0.3394 0.54535 0.0
C321 C 0.37963 0.36939 0.57393 0.0
C322 C 0.36154 0.31447 0.54204 0.0
C323 C 0.33001 0.31939 0.56579 0.0
C324 C 0.32488 0.34841 0.59796 0.0
C325 C 0.34962 0.37305 0.60239 0.0
C326 C 0.24713 0.27246 0.57061 0.0
C327 C 0.24468 0.26017 0.51757 0.0
C328 C 0.27553 0.29048 0.58748 0.0
C329 C 0.30163 0.29668 0.55127 0.0
C330 C 0.29908 0.28325 0.49858 0.0
C331 C 0.271 0.26513 0.4821 0.0
H332 H 0.6493 0.39083 0.43971 0.0
H333 H 0.62675 0.36339 0.60205 0.0
H334 H 0.68642 0.343 0.43036 0.0
H335 H 0.66292 0.31447 0.59192 0.0
H336 H 0.74115 0.233 0.56358 0.0
H337 H 0.71723 0.28905 0.57912 0.0
H338 H 0.6751 0.28523 0.41872 0.0
H339 H 0.69975 0.23021 0.40343 0.0
C340 C 0.65259 0.3748 0.4737 0.0
C341 C 0.63471 0.38068 0.52138 0.0
C342 C 0.67371 0.34718 0.46819 0.0
C343 C 0.67709 0.32438 0.5099 0.0
C344 C 0.66101 0.33152 0.55899 0.0
C345 C 0.64016 0.35953 0.56477 0.0
C346 C 0.72717 0.24466 0.53169 0.0
C347 C 0.72226 0.22781 0.4823 0.0
C348 C 0.71333 0.27653 0.54056 0.0
C349 C 0.69435 0.29181 0.50009 0.0
C350 C 0.69015 0.27473 0.45041 0.0
C351 C 0.70403 0.2431 0.44165 0.0
H352 H 0.05902 0.11869 0.10936 0.0
H353 H 0.99166 0.06418 0.20885 0.0
H354 H 0.08978 0.13834 0.18912 0.0
H355 H 0.02212 0.08419 0.28928 0.0
H356 H 0.11067 0.10192 0.41112 0.0
H357 H 0.08108 0.07898 0.33238 0.0
H358 H 0.07431 0.17764 0.26734 0.0
H359 H 0.10267 0.20088 0.34646 0.0
C360 C 0.0514 0.11031 0.1483 0.0
C361 C 0.0236 0.08945 0.15312 0.0
C362 C 0.06858 0.12194 0.19396 0.0
C363 C 0.05832 0.11275 0.24533 0.0
C364 C 0.03071 0.09141 0.25011 0.0
C365 C 0.01324 0.08014 0.20432 0.0
C366 C 0.10252 0.11882 0.3804 0.0
C367 C 0.10928 0.15328 0.38517 0.0
C368 C 0.08569 0.10562 0.33527 0.0
C369 C 0.07565 0.12652 0.2937 0.0
C370 C 0.08227 0.16089 0.29843 0.0
C371 C 0.09868 0.17415 0.34373 0.0
H372 H 0.88216 0.06124 0.08806 0.0
H373 H 0.92835 0.99289 0.19725 0.0
H374 H 0.86017 0.09421 0.16434 0.0
H375 H 0.90661 0.02585 0.27362 0.0
H376 H 0.88606 0.11234 0.3947 0.0
H377 H 0.91252 0.08732 0.31525 0.0
H378 H 0.81616 0.07754 0.23805 0.0
H379 H 0.7893 0.10086 0.3181 0.0
C380 C 0.88829 0.05387 0.1284 0.0
C381 C 0.90724 0.02497 0.13705 0.0
C382 C 0.87546 0.07243 0.1719 0.0
C383 C 0.88189 0.06259 0.22469 0.0
C384 C 0.90164 0.03413 0.23328 0.0
C385 C 0.91388 0.01524 0.18976 0.0
C386 C 0.87041 0.10477 0.36095 0.0
C387 C 0.83542 0.10838 0.36326 0.0
C388 C 0.88564 0.09066 0.31541 0.0
C389 C 0.86632 0.08051 0.27079 0.0
C390 C 0.83161 0.08551 0.27184 0.0
C391 C 0.81628 0.09906 0.31771 0.0
H392 H 0.01591 0.91502 0.20443 0.0
H393 H 0.92803 0.90499 0.10437 0.0
H394 H 0.98263 0.90269 0.28308 0.0
H395 H 0.89466 0.89275 0.18264 0.0
H396 H 0.84006 0.90355 0.34381 0.0
H397 H 0.87315 0.91868 0.26606 0.0
H398 H 0.9533 0.85493 0.31963 0.0
H399 H 0.92031 0.83974 0.39698 0.0
C400 C 0.98945 0.91017 0.19909 0.0
C401 C 0.97449 0.91126 0.14792 0.0
C402 C 0.9704 0.90306 0.24418 0.0
C403 C 0.93596 0.89678 0.23916 0.0
C404 C 0.92101 0.89803 0.18806 0.0
C405 C 0.94012 0.90507 0.14302 0.0
C406 C 0.86465 0.89261 0.33876 0.0
C407 C 0.87756 0.8705 0.37669 0.0
C408 C 0.88362 0.90129 0.29426 0.0
C409 C 0.9159 0.88808 0.28676 0.0
C410 C 0.92877 0.86602 0.32472 0.0
C411 C 0.90983 0.8573 0.36907 0.0
H412 H 0.08097 0.0154 0.21367 0.0
H413 H 0.09645 0.92724 0.11404 0.0
H414 H 0.0948 0.98362 0.29303 0.0
H415 H 0.10868 0.89494 0.19297 0.0
H416 H 0.16982 0.86033 0.33766 0.0
H417 H 0.15296 0.8906 0.25826 0.0
H418 H 0.07441 0.93955 0.34915 0.0
H419 H 0.09163 0.90949 0.42877 0.0
C420 C 0.08698 0.9891 0.20866 0.0
C421 C 0.0873 0.97363 0.15735 0.0
C422 C 0.0946 0.97082 0.2542 0.0
C423 C 0.10279 0.93669 0.24939 0.0
C424 C 0.10278 0.92125 0.19812 0.0
C425 C 0.09527 0.9396 0.15273 0.0
C426 C 0.14872 0.87727 0.34046 0.0
C427 C 0.1321 0.88262 0.3894 0.0
C428 C 0.13901 0.8946 0.29498 0.0
C429 C 0.11235 0.91754 0.29739 0.0
C430 C 0.09539 0.92247 0.34619 0.0
C431 C 0.1052 0.90523 0.39174 0.0
H432 H 0.14306 0.94753 0.86308 0.0
H433 H 0.10886 0.02406 0.75621 0.0
H434 H 0.15995 0.91286 0.78595 0.0
H435 H 0.12547 0.98922 0.67923 0.0
H436 H 0.18185 0.93068 0.55252 0.0
H437 H 0.17531 0.96513 0.63403 0.0
H438 H 0.13003 0.8819 0.71287 0.0
H439 H 0.13632 0.84753 0.63128 0.0
C440 C 0.13936 0.95706 0.82317 0.0
C441 C 0.1245 0.98849 0.8157 0.0
C442 C 0.14891 0.93713 0.77905 0.0
C443 C 0.14403 0.94831 0.72661 0.0
C444 C 0.12994 0.98009 0.71921 0.0
C445 C 0.1202 0.99995 0.76329 0.0
C446 C 0.17074 0.91968 0.58743 0.0
C447 C 0.15924 0.88651 0.58533 0.0
C448 C 0.16697 0.93941 0.63401 0.0
C449 C 0.15181 0.92632 0.67955 0.0
C450 C 0.14204 0.8926 0.67849 0.0
C451 C 0.1457 0.87289 0.6318 0.0
H452 H 0.01084 0.07875 0.7526 0.0
H453 H 0.07116 0.13946 0.8613 0.0
H454 H 0.04651 0.09384 0.67836 0.0
H455 H 0.10703 0.15454 0.78658 0.0
H456 H 0.12451 0.20731 0.62039 0.0
H457 H 0.09969 0.18861 0.70374 0.0
H458 H 0.10441 0.08639 0.64457 0.0
H459 H 0.12939 0.10501 0.56145 0.0
C460 C 0.03183 0.09517 0.76072 0.0
C461 C 0.038 0.10812 0.81276 0.0
C462 C 0.05246 0.10359 0.71823 0.0
C463 C 0.07962 0.12533 0.72667 0.0
C464 C 0.08616 0.1379 0.77886 0.0
C465 C 0.06566 0.12919 0.82159 0.0
C466 C 0.12111 0.18078 0.6258 0.0
C467 C 0.12848 0.15767 0.58407 0.0
C468 C 0.10684 0.17007 0.6735 0.0
C469 C 0.09964 0.13609 0.68028 0.0
C470 C 0.10906 0.11281 0.64 0.0
C471 C 0.12338 0.12347 0.59248 0.0
H472 H 0.8507 0.05656 0.84202 0.0
H473 H 0.91475 0.99372 0.74335 0.0
H474 H 0.8318 0.08553 0.76229 0.0
H475 H 0.89704 0.02344 0.66427 0.0
H476 H 0.82907 0.05183 0.52794 0.0
H477 H 0.84878 0.02629 0.60967 0.0
H478 H 0.8462 0.12267 0.69203 0.0
H479 H 0.82532 0.14806 0.60979 0.0
C480 C 0.86101 0.04918 0.80339 0.0
C481 C 0.88382 0.02251 0.79884 0.0
C482 C 0.85035 0.06594 0.75772 0.0
C483 C 0.86253 0.05654 0.70667 0.0
C484 C 0.88641 0.03076 0.70268 0.0
C485 C 0.89675 0.01382 0.74811 0.0
C486 C 0.8329 0.06758 0.56345 0.0
C487 C 0.82607 0.10196 0.56247 0.0
C488 C 0.84435 0.053 0.6103 0.0
C489 C 0.8496 0.07247 0.65735 0.0
C490 C 0.84225 0.10689 0.65663 0.0
C491 C 0.83041 0.12147 0.60963 0.0
H492 H 0.92237 0.86223 0.8558 0.0
H493 H 0.00598 0.88635 0.75502 0.0
H494 H 0.88866 0.84929 0.77585 0.0
H495 H 0.97236 0.87374 0.6756 0.0
H496 H 0.91577 0.82156 0.54321 0.0
H497 H 0.94665 0.8267 0.62765 0.0
H498 H 0.86297 0.87875 0.70013 0.0
H499 H 0.83194 0.87332 0.61553 0.0
C500 C 0.93353 0.86486 0.81668 0.0
C501 C 0.96682 0.87546 0.8118 0.0
C502 C 0.9142 0.85747 0.77091 0.0
C503 C 0.92788 0.86033 0.71939 0.0
C504 C 0.96124 0.87068 0.71468 0.0
C505 C 0.98047 0.87813 0.76028 0.0
C506 C 0.90389 0.83385 0.57734 0.0
C507 C 0.87161 0.84737 0.57265 0.0
C508 C 0.92158 0.83688 0.62563 0.0
C509 C 0.90745 0.85357 0.67034 0.0
C510 C 0.87448 0.86557 0.66651 0.0
C511 C 0.8567 0.86246 0.6181 0.0
H512 H 0.49741 0.58591 0.77437 0.0
H513 H 0.56938 0.62583 0.66523 0.0
H514 H 0.53555 0.5976 0.84962 0.0
H515 H 0.60767 0.63777 0.74059 0.0
H516 H 0.631 0.6936 0.91265 0.0
H517 H 0.60382 0.67811 0.82715 0.0
H518 H 0.59511 0.57635 0.87827 0.0
H519 H 0.6229 0.59148 0.96288 0.0
C520 C 0.52146 0.59712 0.76659 0.0
C521 C 0.53078 0.60464 0.71414 0.0
C522 C 0.54334 0.60355 0.80942 0.0
C523 C 0.57464 0.61826 0.80066 0.0
C524 C 0.58377 0.62623 0.74824 0.0
C525 C 0.56208 0.61917 0.70523 0.0
C526 C 0.62436 0.66771 0.90478 0.0
C527 C 0.62854 0.64386 0.9447 0.0
C528 C 0.60868 0.6589 0.85605 0.0
C529 C 0.59684 0.62622 0.84686 0.0
C530 C 0.60349 0.60184 0.88493 0.0
C531 C 0.61941 0.61052 0.93319 0.0
H532 H 0.45079 0.52309 0.76817 0.0
H533 H 0.37799 0.57211 0.66911 0.0
H534 H 0.43441 0.55859 0.84492 0.0
H535 H 0.36209 0.60866 0.74523 0.0
H536 H 0.31536 0.62577 0.91858 0.0
H537 H 0.33315 0.60202 0.83173 0.0
H538 H 0.43639 0.61673 0.8781 0.0
H539 H 0.41848 0.63984 0.96487 0.0
C540 C 0.43158 0.54187 0.76287 0.0
C541 C 0.41609 0.5456 0.71285 0.0
C542 C 0.42239 0.56241 0.80648 0.0
C543 C 0.39722 0.58678 0.80096 0.0
C544 C 0.38164 0.59027 0.75069 0.0
C545 C 0.39103 0.56979 0.70701 0.0
C546 C 0.34176 0.62493 0.90926 0.0
C547 C 0.3656 0.63436 0.94824 0.0
C548 C 0.352 0.61125 0.85971 0.0
C549 C 0.38621 0.60689 0.84858 0.0
C550 C 0.40989 0.61906 0.88601 0.0
C551 C 0.39967 0.63257 0.93538 0.0
H552 H 0.50794 0.45399 0.75864 0.0
H553 H 0.45256 0.38588 0.65543 0.0
H554 H 0.47824 0.43353 0.83671 0.0
H555 H 0.42327 0.36455 0.73304 0.0
H556 H 0.35747 0.35069 0.87794 0.0
H557 H 0.38324 0.37678 0.80091 0.0
H558 H 0.47631 0.38524 0.88934 0.0
H559 H 0.45017 0.3602 0.96641 0.0
C560 C 0.48922 0.43468 0.75294 0.0
C561 C 0.48185 0.42179 0.70147 0.0
C562 C 0.47236 0.4228 0.79746 0.0
C563 C 0.4483 0.39736 0.79125 0.0
C564 C 0.44105 0.38463 0.73928 0.0
C565 C 0.45769 0.39681 0.69481 0.0
C566 C 0.38338 0.35832 0.88074 0.0
C567 C 0.4018 0.35362 0.92808 0.0
C568 C 0.3982 0.37313 0.83665 0.0
C569 C 0.43188 0.38315 0.83886 0.0
C570 C 0.45016 0.37851 0.8865 0.0
C571 C 0.43524 0.36405 0.93066 0.0
H572 H 0.61829 0.44875 0.64919 0.0
H573 H 0.57024 0.51791 0.75956 0.0
H574 H 0.63874 0.41625 0.72435 0.0
H575 H 0.58946 0.48512 0.83482 0.0
H576 H 0.66265 0.44805 0.95693 0.0
H577 H 0.64019 0.47606 0.87936 0.0
H578 H 0.62691 0.38045 0.79723 0.0
H579 H 0.65099 0.35248 0.8752 0.0
C580 C 0.61136 0.45638 0.68954 0.0
C581 C 0.59267 0.48563 0.69872 0.0
C582 C 0.62311 0.43785 0.73268 0.0
C583 C 0.61613 0.4482 0.78586 0.0
C584 C 0.59614 0.47683 0.79458 0.0
C585 C 0.5849 0.49555 0.75153 0.0
C586 C 0.65493 0.43304 0.92222 0.0
C587 C 0.6582 0.39814 0.92206 0.0
C588 C 0.64176 0.44905 0.87786 0.0
C589 C 0.63102 0.43055 0.83225 0.0
C590 C 0.635 0.39552 0.83159 0.0
C591 C 0.64869 0.37945 0.8761 0.0
H592 H 0.64955 0.44753 0.40044 0.0
H593 H 0.56763 0.49614 0.31964 0.0
H594 H 0.66253 0.41611 0.31786 0.0
H595 H 0.58025 0.46447 0.23752 0.0
H596 H 0.64625 0.44444 0.08998 0.0
H597 H 0.62617 0.46796 0.17442 0.0
H598 H 0.64389 0.37371 0.25049 0.0
H599 H 0.66398 0.34985 0.16508 0.0
C600 C 0.63397 0.45105 0.36533 0.0
C601 C 0.60793 0.47463 0.36625 0.0
C602 C 0.64131 0.43296 0.3181 0.0
C603 C 0.62268 0.43815 0.27099 0.0
C604 C 0.59551 0.46045 0.27286 0.0
C605 C 0.58826 0.47856 0.31993 0.0
C606 C 0.64522 0.42841 0.1243 0.0
C607 C 0.65642 0.39514 0.12063 0.0
C608 C 0.6337 0.44194 0.17282 0.0
C609 C 0.63318 0.42262 0.21907 0.0
C610 C 0.64418 0.38925 0.21556 0.0
C611 C 0.65568 0.37562 0.16675 0.0
H612 H 0.53461 0.54922 0.35871 0.0
H613 H 0.46417 0.62873 0.32943 0.0
H614 H 0.56785 0.56646 0.28284 0.0
H615 H 0.4975 0.64597 0.25308 0.0
H616 H 0.59209 0.6909 0.17432 0.0
H617 H 0.55494 0.67157 0.24452 0.0
H618 H 0.56472 0.57028 0.18256 0.0
H619 H 0.60219 0.58956 0.11276 0.0
C620 C 0.52617 0.57029 0.33591 0.0
C621 C 0.49701 0.58781 0.35041 0.0
C622 C 0.54506 0.58 0.29221 0.0
C623 C 0.53535 0.6077 0.26238 0.0
C624 C 0.50574 0.62477 0.27592 0.0
C625 C 0.48663 0.61482 0.31942 0.0
C626 C 0.58642 0.6645 0.17597 0.0
C627 C 0.60008 0.64168 0.13837 0.0
C628 C 0.56488 0.65352 0.21566 0.0
C629 C 0.55689 0.61947 0.21875 0.0
C630 C 0.57059 0.59665 0.18117 0.0
C631 C 0.59187 0.60768 0.14118 0.0
H632 H 0.48298 0.51527 0.32681 0.0
H633 H 0.38725 0.46637 0.3328 0.0
H634 H 0.46319 0.54906 0.2532 0.0
H635 H 0.36793 0.49842 0.25683 0.0
H636 H 0.32846 0.59322 0.18155 0.0
H637 H 0.35074 0.55425 0.24578 0.0
H638 H 0.44565 0.55399 0.16381 0.0
H639 H 0.42402 0.59484 0.10182 0.0
C640 C 0.45781 0.51155 0.31189 0.0
C641 C 0.43625 0.48932 0.33698 0.0
C642 C 0.44653 0.53057 0.26919 0.0
C643 C 0.41356 0.52718 0.24994 0.0
C644 C 0.39305 0.50259 0.27192 0.0
C645 C 0.40423 0.48393 0.31513 0.0
C646 C 0.35423 0.58525 0.17765 0.0
C647 C 0.37444 0.59734 0.13658 0.0
C648 C 0.36686 0.56233 0.21393 0.0
C649 C 0.39995 0.5506 0.20978 0.0
C650 C 0.42014 0.56259 0.16854 0.0
C651 C 0.40759 0.58579 0.13257 0.0
H652 H 0.50201 0.43483 0.29963 0.0
H653 H 0.45353 0.36353 0.40053 0.0
H654 H 0.4656 0.41789 0.22502 0.0
H655 H 0.41716 0.34662 0.32574 0.0
H656 H 0.40152 0.29598 0.15474 0.0
H657 H 0.42682 0.31626 0.23839 0.0
H658 H 0.40569 0.41793 0.19498 0.0
H659 H 0.37972 0.39762 0.11136 0.0
C660 C 0.48358 0.41557 0.3059 0.0
C661 C 0.48094 0.4002 0.35577 0.0
C662 C 0.46247 0.40614 0.26334 0.0
C663 C 0.43856 0.3809 0.2696 0.0
C664 C 0.43555 0.36594 0.3197 0.0
C665 C 0.45642 0.37561 0.36244 0.0
C666 C 0.40125 0.32259 0.16368 0.0
C667 C 0.38884 0.34519 0.1261 0.0
C668 C 0.4159 0.33422 0.21159 0.0
C669 C 0.4186 0.36868 0.22283 0.0
C670 C 0.40446 0.39124 0.18683 0.0
C671 C 0.3896 0.3796 0.13905 0.0
loop_
_geom_bond_atom_site_label_1
_geom_bond_atom_site_label_2
_geom_bond_distance
_geom_bond_site_symmetry_2
_ccdc_geom_bond_type
Zn0 O2 1.933 1_556 S
Zn0 O20 1.985 . S
Zn0 O31 1.955 . S
Zn1 O2 1.911 . S
Zn1 O21 1.970 . S
Zn1 O37 1.945 . S
Zn1 O44 1.981 . S
O2 Zn0 1.933 1_554 S
O2 Zn1 1.911 . S
O2 H3 0.841 1_655 S
H3 O2 0.841 1_455 S
C4 O5 1.246 . S
C4 O33 1.276 1_545 S
O5 C4 1.246 . S
Zn6 O8 1.911 . S
Zn6 O23 1.970 . S
Zn6 O40 1.945 . S
Zn6 O47 1.981 . S
Zn7 O8 1.933 1_556 S
Zn7 O22 1.985 . S
Zn7 O29 1.955 . S
O8 Zn6 1.911 . S
O8 Zn7 1.933 1_554 S
O8 H9 0.841 1_455 S
H9 O8 0.841 1_655 S
Zn10 O11 1.933 1_556 S
Zn10 O24 1.985 . S
Zn10 O33 1.955 . S
O11 Zn10 1.933 1_554 S
O11 Zn12 1.911 . S
O11 H13 0.841 1_565 S
Zn12 O11 1.911 . S
Zn12 O25 1.970 . S
Zn12 O41 1.981 . S
Zn12 O43 1.945 . S
H13 O11 0.841 1_545 S
Zn14 O15 1.933 1_556 S
Zn14 O27 1.985 . S
Zn14 O35 1.955 . S
O15 Zn14 1.933 1_554 S
O15 H16 0.841 1_545 S
O15 Zn17 1.911 . S
H16 O15 0.841 1_565 S
Zn17 O15 1.911 . S
Zn17 O28 1.970 . S
Zn17 O38 1.981 . S
Zn17 O46 1.945 . S
C18 O19 1.246 . S
C18 O35 1.276 1_565 S
O19 C18 1.246 . S
O20 Zn0 1.985 . S
O20 C30 1.245 1_556 S
O21 Zn1 1.970 . S
O21 C30 1.263 . S
O22 Zn7 1.985 . S
O22 C34 1.245 1_556 S
O23 Zn6 1.970 . S
O23 C34 1.263 . S
O24 Zn10 1.985 . S
O24 C39 1.245 1_556 S
O25 Zn12 1.970 . S
O25 C39 1.263 . S
C26 O37 1.262 1_455 S
C26 O38 1.245 . S
O27 Zn14 1.985 . S
O27 C45 1.245 1_556 S
O28 Zn17 1.970 . S
O28 C45 1.263 . S
O29 Zn7 1.955 . S
O29 C48 1.276 1_455 S
C30 O20 1.245 1_554 S
C30 O21 1.263 . S
O31 Zn0 1.955 . S
O31 C50 1.276 1_655 S
C32 O40 1.262 1_655 S
C32 O41 1.245 . S
O33 C4 1.276 1_565 S
O33 Zn10 1.955 . S
C34 O22 1.245 1_554 S
C34 O23 1.263 . S
O35 Zn14 1.955 . S
O35 C18 1.276 1_545 S
C36 O43 1.262 1_545 S
C36 O44 1.245 . S
O37 Zn1 1.945 . S
O37 C26 1.262 1_655 S
O38 Zn17 1.981 . S
O38 C26 1.245 . S
C39 O24 1.245 1_554 S
C39 O25 1.263 . S
O40 Zn6 1.945 . S
O40 C32 1.262 1_455 S
O41 Zn12 1.981 . S
O41 C32 1.245 . S
C42 O46 1.262 1_565 S
C42 O47 1.245 . S
O43 Zn12 1.945 . S
O43 C36 1.262 1_565 S
O44 Zn1 1.981 . S
O44 C36 1.245 . S
C45 O27 1.245 1_554 S
C45 O28 1.263 . S
O46 Zn17 1.945 . S
O46 C42 1.262 1_545 S
O47 Zn6 1.981 . S
O47 C42 1.245 . S
C48 O29 1.276 1_655 S
C48 O49 1.246 . S
O49 C48 1.246 . S
C50 O31 1.276 1_455 S
C50 O51 1.246 . S
O51 C50 1.246 . S
Zn52 O54 1.933 . S
Zn52 O72 1.985 . S
Zn52 O83 1.955 . S
Zn53 O54 1.911 . S
Zn53 O73 1.970 . S
Zn53 O89 1.945 . S
Zn53 O96 1.981 . S
O54 Zn52 1.933 . S
O54 Zn53 1.911 . S
O54 H55 0.841 . S
H55 O54 0.841 . S
C56 O57 1.246 . S
C56 O85 1.276 . S
O57 C56 1.246 . S
Zn58 O60 1.911 . S
Zn58 O75 1.970 . S
Zn58 O92 1.945 . S
Zn58 O99 1.981 . S
Zn59 O60 1.933 . S
Zn59 O74 1.985 . S
Zn59 O81 1.955 . S
O60 Zn58 1.911 . S
O60 Zn59 1.933 . S
O60 H61 0.841 . S
H61 O60 0.841 . S
Zn62 O63 1.933 . S
Zn62 O76 1.985 . S
Zn62 O85 1.955 . S
O63 Zn62 1.933 . S
O63 Zn64 1.911 . S
O63 H65 0.841 . S
Zn64 O63 1.911 . S
Zn64 O77 1.970 . S
Zn64 O93 1.981 . S
Zn64 O95 1.945 . S
H65 O63 0.841 . S
Zn66 O67 1.933 . S
Zn66 O79 1.985 . S
Zn66 O87 1.955 . S
O67 Zn66 1.933 . S
O67 H68 0.841 . S
O67 Zn69 1.911 . S
H68 O67 0.841 . S
Zn69 O67 1.911 . S
Zn69 O80 1.970 . S
Zn69 O90 1.981 . S
Zn69 O98 1.945 . S
C70 O71 1.246 . S
C70 O87 1.276 . S
O71 C70 1.246 . S
O72 Zn52 1.985 . S
O72 C82 1.245 . S
O73 Zn53 1.970 . S
O73 C82 1.263 . S
O74 Zn59 1.985 . S
O74 C86 1.245 . S
O75 Zn58 1.970 . S
O75 C86 1.263 . S
O76 Zn62 1.985 . S
O76 C91 1.245 . S
O77 Zn64 1.970 . S
O77 C91 1.263 . S
C78 O89 1.262 . S
C78 O90 1.245 . S
O79 Zn66 1.985 . S
O79 C97 1.245 . S
O80 Zn69 1.970 . S
O80 C97 1.263 . S
O81 Zn59 1.955 . S
O81 C100 1.276 . S
C82 O72 1.245 . S
C82 O73 1.263 . S
O83 Zn52 1.955 . S
O83 C102 1.276 . S
C84 O92 1.262 . S
C84 O93 1.245 . S
O85 C56 1.276 . S
O85 Zn62 1.955 . S
C86 O74 1.245 . S
C86 O75 1.263 . S
O87 Zn66 1.955 . S
O87 C70 1.276 . S
C88 O95 1.262 . S
C88 O96 1.245 . S
O89 Zn53 1.945 . S
O89 C78 1.262 . S
O90 Zn69 1.981 . S
O90 C78 1.245 . S
C91 O76 1.245 . S
C91 O77 1.263 . S
O92 Zn58 1.945 . S
O92 C84 1.262 . S
O93 Zn64 1.981 . S
O93 C84 1.245 . S
C94 O98 1.262 . S
C94 O99 1.245 . S
O95 Zn64 1.945 . S
O95 C88 1.262 . S
O96 Zn53 1.981 . S
O96 C88 1.245 . S
C97 O79 1.245 . S
C97 O80 1.263 . S
O98 Zn69 1.945 . S
O98 C94 1.262 . S
O99 Zn58 1.981 . S
O99 C94 1.245 . S
C100 O81 1.276 . S
C100 O101 1.246 . S
O101 C100 1.246 . S
C102 O83 1.276 . S
C102 O103 1.246 . S
O103 C102 1.246 . S
H104 C107 0.929 . S
H105 C110 0.929 . S
H106 C112 0.930 . S
C107 H104 0.929 . S
C107 C108 1.398 1_554 S
C107 C109 1.396 . S
C108 C107 1.398 1_556 S
C108 C112 1.407 . S
C109 C107 1.396 . S
C109 C110 1.394 . S
C110 H105 0.929 . S
C110 C109 1.394 . S
C110 C111 1.382 1_554 S
C111 C110 1.382 1_556 S
C111 C112 1.392 . S
C111 N113 1.420 . S
C112 H106 0.930 . S
C112 C108 1.407 . S
C112 C111 1.392 . S
N113 C111 1.420 . S
N113 C114 1.244 1_556 S
C114 N113 1.244 1_554 S
H115 C118 0.929 . S
H116 C121 0.929 . S
H117 C123 0.930 . S
C118 H115 0.929 . S
C118 C119 1.398 1_554 S
C118 C120 1.396 . S
C119 C118 1.398 1_556 S
C119 C123 1.407 . S
C120 C118 1.396 . S
C120 C121 1.394 . S
C121 H116 0.929 . S
C121 C120 1.394 . S
C121 C122 1.382 . S
C122 C121 1.382 . S
C122 C123 1.392 1_554 S
C122 N124 1.420 1_554 S
C123 H117 0.930 . S
C123 C119 1.407 . S
C123 C122 1.392 1_556 S
N124 C122 1.420 1_556 S
N124 C125 1.244 1_556 S
C125 N124 1.244 1_554 S
H126 C129 0.929 . S
H127 C132 0.929 . S
H128 C134 0.930 . S
C129 H126 0.929 . S
C129 C130 1.398 . S
C129 C131 1.396 1_554 S
C130 C129 1.398 . S
C130 C134 1.407 . S
C131 C129 1.396 1_556 S
C131 C132 1.394 . S
C132 H127 0.929 . S
C132 C131 1.394 . S
C132 C133 1.382 1_556 S
C133 C132 1.382 1_554 S
C133 C134 1.392 . S
C133 N135 1.420 . S
C134 H128 0.930 . S
C134 C130 1.407 . S
C134 C133 1.392 . S
N135 C133 1.420 . S
N135 C136 1.244 . S
C136 N135 1.244 . S
H137 C140 0.929 . S
H138 C143 0.929 . S
H139 C145 0.930 . S
C140 H137 0.929 . S
C140 C141 1.398 . S
C140 C142 1.396 1_554 S
C141 C140 1.398 . S
C141 C145 1.407 . S
C142 C140 1.396 1_556 S
C142 C143 1.394 . S
C143 H138 0.929 . S
C143 C142 1.394 . S
C143 C144 1.382 1_556 S
C144 C143 1.382 1_554 S
C144 C145 1.392 . S
C144 N146 1.420 . S
C145 H139 0.930 . S
C145 C141 1.407 . S
C145 C144 1.392 . S
N146 C144 1.420 . S
N146 C147 1.244 1_554 S
C147 N146 1.244 1_556 S
H148 C151 0.929 . S
H149 C154 0.929 . S
H150 C156 0.930 . S
C151 H148 0.929 . S
C151 C152 1.398 . S
C151 C153 1.396 . S
C152 C151 1.398 . S
C152 C156 1.407 . S
C153 C151 1.396 . S
C153 C154 1.394 . S
C154 H149 0.929 . S
C154 C153 1.394 . S
C154 C155 1.382 . S
C155 C154 1.382 . S
C155 C156 1.392 . S
C155 N157 1.420 . S
C156 H150 0.930 . S
C156 C152 1.407 . S
C156 C155 1.392 . S
N157 C155 1.420 . S
N157 C158 1.244 . S
C158 N157 1.244 . S
H159 C162 0.929 . S
H160 C165 0.929 . S
H161 C167 0.930 . S
C162 H159 0.929 . S
C162 C163 1.398 . S
C162 C164 1.396 . S
C163 C162 1.398 . S
C163 C167 1.407 . S
C164 C162 1.396 . S
C164 C165 1.394 . S
C165 H160 0.929 . S
C165 C164 1.394 . S
C165 C166 1.382 . S
C166 C165 1.382 . S
C166 C167 1.392 . S
C166 N168 1.420 . S
C167 H161 0.930 . S
C167 C163 1.407 . S
C167 C166 1.392 . S
N168 C166 1.420 . S
N168 C169 1.244 . S
C169 N168 1.244 . S
H170 C173 0.929 . S
H171 C176 0.929 . S
H172 C178 0.930 . S
C173 H170 0.929 . S
C173 C174 1.398 . S
C173 C175 1.396 . S
C174 C173 1.398 . S
C174 C178 1.407 . S
C175 C173 1.396 . S
C175 C176 1.394 . S
C176 H171 0.929 . S
C176 C175 1.394 . S
C176 C177 1.382 . S
C177 C176 1.382 . S
C177 C178 1.392 . S
C177 N179 1.420 . S
C178 H172 0.930 . S
C178 C174 1.407 . S
C178 C177 1.392 . S
N179 C177 1.420 . S
N179 C180 1.244 . S
C180 N179 1.244 . S
H181 C184 0.929 . S
H182 C187 0.929 . S
H183 C189 0.930 . S
C184 H181 0.929 . S
C184 C185 1.398 . S
C184 C186 1.396 . S
C185 C184 1.398 . S
C185 C189 1.407 . S
C186 C184 1.396 . S
C186 C187 1.394 . S
C187 H182 0.929 . S
C187 C186 1.394 . S
C187 C188 1.382 . S
C188 C187 1.382 . S
C188 C189 1.392 . S
C188 N190 1.420 . S
C189 H183 0.930 . S
C189 C185 1.407 . S
C189 C188 1.392 . S
N190 C188 1.420 . S
N190 C191 1.244 . S
C191 N190 1.244 . S
H192 C200 0.950 . S
H193 C205 0.950 . S
H194 C202 0.950 . S
H195 C204 0.950 . S
H196 C206 0.950 . S
H197 C208 0.950 . S
H198 C210 0.950 . S
H199 C211 0.950 . S
C200 H192 0.950 . S
C200 C201 1.386 1_556 S
C200 C202 1.391 . S
C201 C200 1.386 1_554 S
C201 C205 1.393 . S
C202 H194 0.950 . S
C202 C200 1.391 . S
C202 C203 1.400 1_556 S
C203 C202 1.400 1_554 S
C203 C204 1.398 . S
C203 C209 1.491 . S
C204 H195 0.950 . S
C204 C203 1.398 . S
C204 C205 1.391 . S
C205 H193 0.950 . S
C205 C201 1.393 . S
C205 C204 1.391 . S
C206 H196 0.950 . S
C206 C207 1.386 . S
C206 C208 1.391 . S
C207 C206 1.386 . S
C207 C211 1.393 1_554 S
C208 H197 0.950 . S
C208 C206 1.391 . S
C208 C209 1.400 . S
C209 C203 1.491 . S
C209 C208 1.400 . S
C209 C210 1.398 1_554 S
C210 H198 0.950 . S
C210 C209 1.398 1_556 S
C210 C211 1.391 . S
C211 H199 0.950 . S
C211 C207 1.393 1_556 S
C211 C210 1.391 . S
H212 C220 0.950 . S
H213 C225 0.950 . S
H214 C222 0.948 1_556 S
H215 C224 0.950 . S
H216 C226 0.950 . S
H217 C228 0.950 . S
H218 C230 0.947 1_556 S
H219 C231 0.950 . S
C220 H212 0.950 . S
C220 C221 1.386 1_556 S
C220 C222 1.391 1_556 S
C221 C220 1.386 1_554 S
C221 C225 1.393 . S
C222 H214 0.948 1_554 S
C222 C220 1.391 1_554 S
C222 C223 1.402 . S
C223 C222 1.402 . S
C223 C224 1.398 . S
C223 C229 1.491 . S
C224 H215 0.950 . S
C224 C223 1.398 . S
C224 C225 1.391 . S
C225 H213 0.950 . S
C225 C221 1.393 . S
C225 C224 1.391 . S
C226 H216 0.950 . S
C226 C227 1.386 . S
C226 C228 1.391 . S
C227 C226 1.386 . S
C227 C231 1.393 . S
C228 H217 0.950 . S
C228 C226 1.391 . S
C228 C229 1.400 . S
C229 C223 1.491 . S
C229 C228 1.400 . S
C229 C230 1.398 . S
C230 H218 0.947 1_554 S
C230 C229 1.398 . S
C230 C231 1.391 . S
C231 H219 0.950 . S
C231 C227 1.393 . S
C231 C230 1.391 . S
H232 C240 0.950 . S
H233 C245 0.950 . S
H234 C242 0.950 . S
H235 C244 0.950 . S
H236 C246 0.950 . S
H237 C248 0.950 . S
H238 C250 0.950 1_556 S
H239 C251 0.952 . S
C240 H232 0.950 . S
C240 C241 1.386 1_556 S
C240 C242 1.391 . S
C241 C240 1.386 1_554 S
C241 C245 1.393 . S
C242 H234 0.950 . S
C242 C240 1.391 . S
C242 C243 1.400 1_556 S
C243 C242 1.400 1_554 S
C243 C244 1.398 . S
C243 C249 1.491 . S
C244 H235 0.950 . S
C244 C243 1.398 . S
C244 C245 1.391 . S
C245 H233 0.950 . S
C245 C241 1.393 . S
C245 C244 1.391 . S
C246 H236 0.950 . S
C246 C247 1.386 . S
C246 C248 1.391 . S
C247 C246 1.386 . S
C247 C251 1.391 1_554 S
C248 H237 0.950 . S
C248 C246 1.391 . S
C248 C249 1.400 . S
C249 C243 1.491 . S
C249 C248 1.400 . S
C249 C250 1.398 . S
C250 H238 0.950 1_554 S
C250 C249 1.398 . S
C250 C251 1.391 1_554 S
C251 H239 0.952 . S
C251 C247 1.391 1_556 S
C251 C250 1.391 1_556 S
H252 C260 0.950 . S
H253 C265 0.950 . S
H254 C262 0.950 . S
H255 C264 0.950 . S
H256 C266 0.950 . S
H257 C268 0.950 . S
H258 C270 0.950 . S
H259 C271 0.950 . S
C260 H252 0.950 . S
C260 C261 1.386 . S
C260 C262 1.391 . S
C261 C260 1.386 . S
C261 C265 1.393 1_554 S
C262 H254 0.950 . S
C262 C260 1.391 . S
C262 C263 1.400 . S
C263 C262 1.400 . S
C263 C264 1.398 1_554 S
C263 C269 1.491 . S
C264 H255 0.950 . S
C264 C263 1.398 1_556 S
C264 C265 1.391 . S
C265 H253 0.950 . S
C265 C261 1.393 1_556 S
C265 C264 1.391 . S
C266 H256 0.950 . S
C266 C267 1.391 . S
C266 C268 1.391 . S
C267 C266 1.391 . S
C267 C271 1.388 1_556 S
C268 H257 0.950 . S
C268 C266 1.391 . S
C268 C269 1.400 1_556 S
C269 C263 1.491 . S
C269 C268 1.400 1_554 S
C269 C270 1.398 . S
C270 H258 0.950 . S
C270 C269 1.398 . S
C270 C271 1.391 . S
C271 H259 0.950 . S
C271 C267 1.388 1_554 S
C271 C270 1.391 . S
H272 C280 0.950 . S
H273 C285 0.950 . S
H274 C282 0.950 . S
H275 C284 0.950 . S
H276 C286 0.950 . S
H277 C288 0.950 . S
H278 C290 0.950 . S
H279 C291 0.950 . S
C280 H272 0.950 . S
C280 C281 1.386 . S
C280 C282 1.391 . S
C281 C280 1.386 . S
C281 C285 1.393 . S
C282 H274 0.950 . S
C282 C280 1.391 . S
C282 C283 1.400 . S
C283 C282 1.400 . S
C283 C284 1.398 . S
C283 C289 1.491 . S
C284 H275 0.950 . S
C284 C283 1.398 . S
C284 C285 1.391 . S
C285 H273 0.950 . S
C285 C281 1.393 . S
C285 C284 1.391 . S
C286 H276 0.950 . S
C286 C287 1.386 . S
C286 C288 1.391 . S
C287 C286 1.386 . S
C287 C291 1.393 . S
C288 H277 0.950 . S
C288 C286 1.391 . S
C288 C289 1.400 . S
C289 C283 1.491 . S
C289 C288 1.400 . S
C289 C290 1.398 . S
C290 H278 0.950 . S
C290 C289 1.398 . S
C290 C291 1.391 . S
C291 H279 0.950 . S
C291 C287 1.393 . S
C291 C290 1.391 . S
H292 C300 0.950 . S
H293 C305 0.950 . S
H294 C302 0.950 . S
H295 C304 0.950 . S
H296 C306 0.950 . S
H297 C308 0.950 . S
H298 C310 0.950 . S
H299 C311 0.950 . S
C300 H292 0.950 . S
C300 C301 1.386 . S
C300 C302 1.391 . S
C301 C300 1.386 . S
C301 C305 1.393 . S
C302 H294 0.950 . S
C302 C300 1.391 . S
C302 C303 1.400 . S
C303 C302 1.400 . S
C303 C304 1.398 . S
C303 C309 1.491 . S
C304 H295 0.950 . S
C304 C303 1.398 . S
C304 C305 1.391 . S
C305 H293 0.950 . S
C305 C301 1.393 . S
C305 C304 1.391 . S
C306 H296 0.950 . S
C306 C307 1.386 . S
C306 C308 1.391 . S
C307 C306 1.386 . S
C307 C311 1.393 . S
C308 H297 0.950 . S
C308 C306 1.391 . S
C308 C309 1.400 . S
C309 C303 1.491 . S
C309 C308 1.400 . S
C309 C310 1.398 . S
C310 H298 0.950 . S
C310 C309 1.398 . S
C310 C311 1.391 . S
C311 H299 0.950 . S
C311 C307 1.393 . S
C311 C310 1.391 . S
H312 C320 0.950 . S
H313 C325 0.950 . S
H314 C322 0.950 . S
H315 C324 0.950 . S
H316 C326 0.950 . S
H317 C328 0.950 . S
H318 C330 0.950 . S
H319 C331 0.950 . S
C320 H312 0.950 . S
C320 C321 1.386 . S
C320 C322 1.391 . S
C321 C320 1.386 . S
C321 C325 1.393 . S
C322 H314 0.950 . S
C322 C320 1.391 . S
C322 C323 1.400 . S
C323 C322 1.400 . S
C323 C324 1.398 . S
C323 C329 1.491 . S
C324 H315 0.950 . S
C324 C323 1.398 . S
C324 C325 1.391 . S
C325 H313 0.950 . S
C325 C321 1.393 . S
C325 C324 1.391 . S
C326 H316 0.950 . S
C326 C327 1.386 . S
C326 C328 1.391 . S
C327 C326 1.386 . S
C327 C331 1.393 . S
C328 H317 0.950 . S
C328 C326 1.391 . S
C328 C329 1.400 . S
C329 C323 1.491 . S
C329 C328 1.400 . S
C329 C330 1.398 . S
C330 H318 0.950 . S
C330 C329 1.398 . S
C330 C331 1.391 . S
C331 H319 0.950 . S
C331 C327 1.393 . S
C331 C330 1.391 . S
H332 C340 0.950 . S
H333 C345 0.950 . S
H334 C342 0.950 . S
H335 C344 0.950 . S
H336 C346 0.950 . S
H337 C348 0.950 . S
H338 C350 0.950 . S
H339 C351 0.950 . S
C340 H332 0.950 . S
C340 C341 1.386 . S
C340 C342 1.391 . S
C341 C340 1.386 . S
C341 C345 1.393 . S
C342 H334 0.950 . S
C342 C340 1.391 . S
C342 C343 1.400 . S
C343 C342 1.400 . S
C343 C344 1.398 . S
C343 C349 1.491 . S
C344 H335 0.950 . S
C344 C343 1.398 . S
C344 C345 1.391 . S
C345 H333 0.950 . S
C345 C341 1.393 . S
C345 C344 1.391 . S
C346 H336 0.950 . S
C346 C347 1.386 . S
C346 C348 1.391 . S
C347 C346 1.386 . S
C347 C351 1.393 . S
C348 H337 0.950 . S
C348 C346 1.391 . S
C348 C349 1.400 . S
C349 C343 1.491 . S
C349 C348 1.400 . S
C349 C350 1.398 . S
C350 H338 0.950 . S
C350 C349 1.398 . S
C350 C351 1.391 . S
C351 H339 0.950 . S
C351 C347 1.393 . S
C351 C350 1.391 . S
H352 C360 0.950 . S
H353 C365 0.950 . S
H354 C362 0.950 . S
H355 C364 0.950 . S
H356 C366 0.950 . S
H357 C368 0.950 . S
H358 C370 0.950 . S
H359 C371 0.950 . S
C360 H352 0.950 . S
C360 C361 1.386 . S
C360 C362 1.391 . S
C361 C360 1.386 . S
C361 C365 1.393 . S
C362 H354 0.950 . S
C362 C360 1.391 . S
C362 C363 1.400 . S
C363 C362 1.400 . S
C363 C364 1.398 . S
C363 C369 1.491 . S
C364 H355 0.950 . S
C364 C363 1.398 . S
C364 C365 1.391 . S
C365 H353 0.950 . S
C365 C361 1.393 . S
C365 C364 1.391 . S
C366 H356 0.950 . S
C366 C367 1.386 . S
C366 C368 1.391 . S
C367 C366 1.386 . S
C367 C371 1.393 . S
C368 H357 0.950 . S
C368 C366 1.391 . S
C368 C369 1.400 . S
C369 C363 1.491 . S
C369 C368 1.400 . S
C369 C370 1.398 . S
C370 H358 0.950 . S
C370 C369 1.398 . S
C370 C371 1.391 . S
C371 H359 0.950 . S
C371 C367 1.393 . S
C371 C370 1.391 . S
H372 C380 0.950 . S
H373 C385 0.950 . S
H374 C382 0.950 . S
H375 C384 0.950 . S
H376 C386 0.950 . S
H377 C388 0.950 . S
H378 C390 0.950 . S
H379 C391 0.950 . S
C380 H372 0.950 . S
C380 C381 1.386 . S
C380 C382 1.391 . S
C381 C380 1.386 . S
C381 C385 1.393 . S
C382 H374 0.950 . S
C382 C380 1.391 . S
C382 C383 1.400 . S
C383 C382 1.400 . S
C383 C384 1.398 . S
C383 C389 1.491 . S
C384 H375 0.950 . S
C384 C383 1.398 . S
C384 C385 1.391 . S
C385 H373 0.950 . S
C385 C381 1.393 . S
C385 C384 1.391 . S
C386 H376 0.950 . S
C386 C387 1.386 . S
C386 C388 1.391 . S
C387 C386 1.386 . S
C387 C391 1.393 . S
C388 H377 0.950 . S
C388 C386 1.391 . S
C388 C389 1.400 . S
C389 C383 1.491 . S
C389 C388 1.400 . S
C389 C390 1.398 . S
C390 H378 0.950 . S
C390 C389 1.398 . S
C390 C391 1.391 . S
C391 H379 0.950 . S
C391 C387 1.393 . S
C391 C390 1.391 . S
H392 C400 0.950 1_455 S
H393 C405 0.950 . S
H394 C402 0.950 . S
H395 C404 0.950 . S
H396 C406 0.950 . S
H397 C408 0.950 . S
H398 C410 0.950 . S
H399 C411 0.950 . S
C400 H392 0.950 1_655 S
C400 C401 1.386 . S
C400 C402 1.391 . S
C401 C400 1.386 . S
C401 C405 1.393 . S
C402 H394 0.950 . S
C402 C400 1.391 . S
C402 C403 1.400 . S
C403 C402 1.400 . S
C403 C404 1.398 . S
C403 C409 1.491 . S
C404 H395 0.950 . S
C404 C403 1.398 . S
C404 C405 1.391 . S
C405 H393 0.950 . S
C405 C401 1.393 . S
C405 C404 1.391 . S
C406 H396 0.950 . S
C406 C407 1.386 . S
C406 C408 1.391 . S
C407 C406 1.386 . S
C407 C411 1.393 . S
C408 H397 0.950 . S
C408 C406 1.391 . S
C408 C409 1.400 . S
C409 C403 1.491 . S
C409 C408 1.400 . S
C409 C410 1.398 . S
C410 H398 0.950 . S
C410 C409 1.398 . S
C410 C411 1.391 . S
C411 H399 0.950 . S
C411 C407 1.393 . S
C411 C410 1.391 . S
H412 C420 0.950 . S
H413 C425 0.950 . S
H414 C422 0.950 . S
H415 C424 0.950 . S
H416 C426 0.950 . S
H417 C428 0.950 . S
H418 C430 0.950 . S
H419 C431 0.950 . S
C420 H412 0.950 . S
C420 C421 1.386 . S
C420 C422 1.391 . S
C421 C420 1.386 . S
C421 C425 1.393 . S
C422 H414 0.950 . S
C422 C420 1.391 . S
C422 C423 1.400 . S
C423 C422 1.400 . S
C423 C424 1.398 . S
C423 C429 1.491 . S
C424 H415 0.950 . S
C424 C423 1.398 . S
C424 C425 1.391 . S
C425 H413 0.950 . S
C425 C421 1.393 . S
C425 C424 1.391 . S
C426 H416 0.950 . S
C426 C427 1.386 . S
C426 C428 1.391 . S
C427 C426 1.386 . S
C427 C431 1.393 . S
C428 H417 0.950 . S
C428 C426 1.391 . S
C428 C429 1.400 . S
C429 C423 1.491 . S
C429 C428 1.400 . S
C429 C430 1.398 . S
C430 H418 0.950 . S
C430 C429 1.398 . S
C430 C431 1.391 . S
C431 H419 0.950 . S
C431 C427 1.393 . S
C431 C430 1.391 . S
H432 C440 0.950 . S
H433 C445 0.950 1_545 S
H434 C442 0.950 . S
H435 C444 0.950 . S
H436 C446 0.950 . S
H437 C448 0.950 . S
H438 C450 0.950 . S
H439 C451 0.950 . S
C440 H432 0.950 . S
C440 C441 1.386 . S
C440 C442 1.391 . S
C441 C440 1.386 . S
C441 C445 1.393 . S
C442 H434 0.950 . S
C442 C440 1.391 . S
C442 C443 1.400 . S
C443 C442 1.400 . S
C443 C444 1.398 . S
C443 C449 1.491 . S
C444 H435 0.950 . S
C444 C443 1.398 . S
C444 C445 1.391 . S
C445 H433 0.950 1_565 S
C445 C441 1.393 . S
C445 C444 1.391 . S
C446 H436 0.950 . S
C446 C447 1.386 . S
C446 C448 1.391 . S
C447 C446 1.386 . S
C447 C451 1.393 . S
C448 H437 0.950 . S
C448 C446 1.391 . S
C448 C449 1.400 . S
C449 C443 1.491 . S
C449 C448 1.400 . S
C449 C450 1.398 . S
C450 H438 0.950 . S
C450 C449 1.398 . S
C450 C451 1.391 . S
C451 H439 0.950 . S
C451 C447 1.393 . S
C451 C450 1.391 . S
H452 C460 0.950 . S
H453 C465 0.950 . S
H454 C462 0.950 . S
H455 C464 0.950 . S
H456 C466 0.950 . S
H457 C468 0.950 . S
H458 C470 0.950 . S
H459 C471 0.950 . S
C460 H452 0.950 . S
C460 C461 1.386 . S
C460 C462 1.391 . S
C461 C460 1.386 . S
C461 C465 1.393 . S
C462 H454 0.950 . S
C462 C460 1.391 . S
C462 C463 1.400 . S
C463 C462 1.400 . S
C463 C464 1.398 . S
C463 C469 1.491 . S
C464 H455 0.950 . S
C464 C463 1.398 . S
C464 C465 1.391 . S
C465 H453 0.950 . S
C465 C461 1.393 . S
C465 C464 1.391 . S
C466 H456 0.950 . S
C466 C467 1.386 . S
C466 C468 1.391 . S
C467 C466 1.386 . S
C467 C471 1.393 . S
C468 H457 0.950 . S
C468 C466 1.391 . S
C468 C469 1.400 . S
C469 C463 1.491 . S
C469 C468 1.400 . S
C469 C470 1.398 . S
C470 H458 0.950 . S
C470 C469 1.398 . S
C470 C471 1.391 . S
C471 H459 0.950 . S
C471 C467 1.393 . S
C471 C470 1.391 . S
H472 C480 0.950 . S
H473 C485 0.953 1_565 S
H474 C482 0.950 . S
H475 C484 0.950 . S
H476 C486 0.950 . S
H477 C488 0.950 . S
H478 C490 0.950 . S
H479 C491 0.950 . S
C480 H472 0.950 . S
C480 C481 1.386 . S
C480 C482 1.391 . S
C481 C480 1.386 . S
C481 C485 1.393 . S
C482 H474 0.950 . S
C482 C480 1.391 . S
C482 C483 1.400 . S
C483 C482 1.400 . S
C483 C484 1.398 . S
C483 C489 1.491 . S
C484 H475 0.950 . S
C484 C483 1.398 . S
C484 C485 1.391 . S
C485 H473 0.953 1_545 S
C485 C481 1.393 . S
C485 C484 1.391 . S
C486 H476 0.950 . S
C486 C487 1.386 . S
C486 C488 1.391 . S
C487 C486 1.386 . S
C487 C491 1.393 . S
C488 H477 0.950 . S
C488 C486 1.391 . S
C488 C489 1.400 . S
C489 C483 1.491 . S
C489 C488 1.400 . S
C489 C490 1.398 . S
C490 H478 0.950 . S
C490 C489 1.398 . S
C490 C491 1.391 . S
C491 H479 0.950 . S
C491 C487 1.393 . S
C491 C490 1.391 . S
H492 C500 0.950 . S
H493 C505 0.950 . S
H494 C502 0.950 . S
H495 C504 0.950 . S
H496 C506 0.950 . S
H497 C508 0.950 . S
H498 C510 0.950 . S
H499 C511 0.950 . S
C500 H492 0.950 . S
C500 C501 1.386 . S
C500 C502 1.391 . S
C501 C500 1.386 . S
C501 C505 1.393 . S
C502 H494 0.950 . S
C502 C500 1.391 . S
C502 C503 1.400 . S
C503 C502 1.400 . S
C503 C504 1.398 . S
C503 C509 1.491 . S
C504 H495 0.950 . S
C504 C503 1.398 . S
C504 C505 1.391 . S
C505 H493 0.950 . S
C505 C501 1.393 . S
C505 C504 1.391 . S
C506 H496 0.950 . S
C506 C507 1.386 . S
C506 C508 1.391 . S
C507 C506 1.386 . S
C507 C511 1.393 . S
C508 H497 0.950 . S
C508 C506 1.391 . S
C508 C509 1.400 . S
C509 C503 1.491 . S
C509 C508 1.400 . S
C509 C510 1.398 . S
C510 H498 0.950 . S
C510 C509 1.398 . S
C510 C511 1.391 . S
C511 H499 0.950 . S
C511 C507 1.393 . S
C511 C510 1.391 . S
H512 C520 0.950 . S
H513 C525 0.950 . S
H514 C522 0.950 . S
H515 C524 0.950 . S
H516 C526 0.950 . S
H517 C528 0.950 . S
H518 C530 0.950 . S
H519 C531 0.950 . S
C520 H512 0.950 . S
C520 C521 1.386 . S
C520 C522 1.391 . S
C521 C520 1.386 . S
C521 C525 1.393 . S
C522 H514 0.950 . S
C522 C520 1.391 . S
C522 C523 1.400 . S
C523 C522 1.400 . S
C523 C524 1.398 . S
C523 C529 1.491 . S
C524 H515 0.950 . S
C524 C523 1.398 . S
C524 C525 1.391 . S
C525 H513 0.950 . S
C525 C521 1.393 . S
C525 C524 1.391 . S
C526 H516 0.950 . S
C526 C527 1.386 . S
C526 C528 1.391 . S
C527 C526 1.386 . S
C527 C531 1.393 . S
C528 H517 0.950 . S
C528 C526 1.391 . S
C528 C529 1.400 . S
C529 C523 1.491 . S
C529 C528 1.400 . S
C529 C530 1.398 . S
C530 H518 0.950 . S
C530 C529 1.398 . S
C530 C531 1.391 . S
C531 H519 0.950 . S
C531 C527 1.393 . S
C531 C530 1.391 . S
H532 C540 0.950 . S
H533 C545 0.950 . S
H534 C542 0.950 . S
H535 C544 0.950 . S
H536 C546 0.950 . S
H537 C548 0.950 . S
H538 C550 0.950 . S
H539 C551 0.950 . S
C540 H532 0.950 . S
C540 C541 1.386 . S
C540 C542 1.391 . S
C541 C540 1.386 . S
C541 C545 1.393 . S
C542 H534 0.950 . S
C542 C540 1.391 . S
C542 C543 1.400 . S
C543 C542 1.400 . S
C543 C544 1.398 . S
C543 C549 1.491 . S
C544 H535 0.950 . S
C544 C543 1.398 . S
C544 C545 1.391 . S
C545 H533 0.950 . S
C545 C541 1.393 . S
C545 C544 1.391 . S
C546 H536 0.950 . S
C546 C547 1.386 . S
C546 C548 1.391 . S
C547 C546 1.386 . S
C547 C551 1.393 . S
C548 H537 0.950 . S
C548 C546 1.391 . S
C548 C549 1.400 . S
C549 C543 1.491 . S
C549 C548 1.400 . S
C549 C550 1.398 . S
C550 H538 0.950 . S
C550 C549 1.398 . S
C550 C551 1.391 . S
C551 H539 0.950 . S
C551 C547 1.393 . S
C551 C550 1.391 . S
H552 C560 0.950 . S
H553 C565 0.950 . S
H554 C562 0.950 . S
H555 C564 0.950 . S
H556 C566 0.950 . S
H557 C568 0.950 . S
H558 C570 0.950 . S
H559 C571 0.950 . S
C560 H552 0.950 . S
C560 C561 1.386 . S
C560 C562 1.391 . S
C561 C560 1.386 . S
C561 C565 1.393 . S
C562 H554 0.950 . S
C562 C560 1.391 . S
C562 C563 1.400 . S
C563 C562 1.400 . S
C563 C564 1.398 . S
C563 C569 1.491 . S
C564 H555 0.950 . S
C564 C563 1.398 . S
C564 C565 1.391 . S
C565 H553 0.950 . S
C565 C561 1.393 . S
C565 C564 1.391 . S
C566 H556 0.950 . S
C566 C567 1.386 . S
C566 C568 1.391 . S
C567 C566 1.386 . S
C567 C571 1.393 . S
C568 H557 0.950 . S
C568 C566 1.391 . S
C568 C569 1.400 . S
C569 C563 1.491 . S
C569 C568 1.400 . S
C569 C570 1.398 . S
C570 H558 0.950 . S
C570 C569 1.398 . S
C570 C571 1.391 . S
C571 H559 0.950 . S
C571 C567 1.393 . S
C571 C570 1.391 . S
H572 C580 0.950 . S
H573 C585 0.950 . S
H574 C582 0.950 . S
H575 C584 0.950 . S
H576 C586 0.950 . S
H577 C588 0.950 . S
H578 C590 0.950 . S
H579 C591 0.950 . S
C580 H572 0.950 . S
C580 C581 1.386 . S
C580 C582 1.391 . S
C581 C580 1.386 . S
C581 C585 1.393 . S
C582 H574 0.950 . S
C582 C580 1.391 . S
C582 C583 1.400 . S
C583 C582 1.400 . S
C583 C584 1.398 . S
C583 C589 1.491 . S
C584 H575 0.950 . S
C584 C583 1.398 . S
C584 C585 1.391 . S
C585 H573 0.950 . S
C585 C581 1.393 . S
C585 C584 1.391 . S
C586 H576 0.950 . S
C586 C587 1.386 . S
C586 C588 1.391 . S
C587 C586 1.386 . S
C587 C591 1.393 . S
C588 H577 0.950 . S
C588 C586 1.391 . S
C588 C589 1.400 . S
C589 C583 1.491 . S
C589 C588 1.400 . S
C589 C590 1.398 . S
C590 H578 0.950 . S
C590 C589 1.398 . S
C590 C591 1.391 . S
C591 H579 0.950 . S
C591 C587 1.393 . S
C591 C590 1.391 . S
H592 C600 0.950 . S
H593 C605 0.950 . S
H594 C602 0.950 . S
H595 C604 0.950 . S
H596 C606 0.950 . S
H597 C608 0.950 . S
H598 C610 0.950 . S
H599 C611 0.950 . S
C600 H592 0.950 . S
C600 C601 1.386 . S
C600 C602 1.391 . S
C601 C600 1.386 . S
C601 C605 1.393 . S
C602 H594 0.950 . S
C602 C600 1.391 . S
C602 C603 1.400 . S
C603 C602 1.400 . S
C603 C604 1.398 . S
C603 C609 1.491 . S
C604 H595 0.950 . S
C604 C603 1.398 . S
C604 C605 1.391 . S
C605 H593 0.950 . S
C605 C601 1.393 . S
C605 C604 1.391 . S
C606 H596 0.950 . S
C606 C607 1.386 . S
C606 C608 1.391 . S
C607 C606 1.386 . S
C607 C611 1.393 . S
C608 H597 0.950 . S
C608 C606 1.391 . S
C608 C609 1.400 . S
C609 C603 1.491 . S
C609 C608 1.400 . S
C609 C610 1.398 . S
C610 H598 0.950 . S
C610 C609 1.398 . S
C610 C611 1.391 . S
C611 H599 0.950 . S
C611 C607 1.393 . S
C611 C610 1.391 . S
H612 C620 0.950 . S
H613 C625 0.950 . S
H614 C622 0.950 . S
H615 C624 0.950 . S
H616 C626 0.950 . S
H617 C628 0.950 . S
H618 C630 0.950 . S
H619 C631 0.950 . S
C620 H612 0.950 . S
C620 C621 1.386 . S
C620 C622 1.391 . S
C621 C620 1.386 . S
C621 C625 1.393 . S
C622 H614 0.950 . S
C622 C620 1.391 . S
C622 C623 1.400 . S
C623 C622 1.400 . S
C623 C624 1.398 . S
C623 C629 1.491 . S
C624 H615 0.950 . S
C624 C623 1.398 . S
C624 C625 1.391 . S
C625 H613 0.950 . S
C625 C621 1.393 . S
C625 C624 1.391 . S
C626 H616 0.950 . S
C626 C627 1.386 . S
C626 C628 1.391 . S
C627 C626 1.386 . S
C627 C631 1.393 . S
C628 H617 0.950 . S
C628 C626 1.391 . S
C628 C629 1.400 . S
C629 C623 1.491 . S
C629 C628 1.400 . S
C629 C630 1.398 . S
C630 H618 0.950 . S
C630 C629 1.398 . S
C630 C631 1.391 . S
C631 H619 0.950 . S
C631 C627 1.393 . S
C631 C630 1.391 . S
H632 C640 0.950 . S
H633 C645 0.950 . S
H634 C642 0.950 . S
H635 C644 0.950 . S
H636 C646 0.950 . S
H637 C648 0.950 . S
H638 C650 0.950 . S
H639 C651 0.950 . S
C640 H632 0.950 . S
C640 C641 1.386 . S
C640 C642 1.391 . S
C641 C640 1.386 . S
C641 C645 1.393 . S
C642 H634 0.950 . S
C642 C640 1.391 . S
C642 C643 1.400 . S
C643 C642 1.400 . S
C643 C644 1.398 . S
C643 C649 1.491 . S
C644 H635 0.950 . S
C644 C643 1.398 . S
C644 C645 1.391 . S
C645 H633 0.950 . S
C645 C641 1.393 . S
C645 C644 1.391 . S
C646 H636 0.950 . S
C646 C647 1.386 . S
C646 C648 1.391 . S
C647 C646 1.386 . S
C647 C651 1.393 . S
C648 H637 0.950 . S
C648 C646 1.391 . S
C648 C649 1.400 . S
C649 C643 1.491 . S
C649 C648 1.400 . S
C649 C650 1.398 . S
C650 H638 0.950 . S
C650 C649 1.398 . S
C650 C651 1.391 . S
C651 H639 0.950 . S
C651 C647 1.393 . S
C651 C650 1.391 . S
H652 C660 0.950 . S
H653 C665 0.950 . S
H654 C662 0.950 . S
H655 C664 0.950 . S
H656 C666 0.950 . S
H657 C668 0.950 . S
H658 C670 0.950 . S
H659 C671 0.950 . S
C660 H652 0.950 . S
C660 C661 1.386 . S
C660 C662 1.391 . S
C661 C660 1.386 . S
C661 C665 1.393 . S
C662 H654 0.950 . S
C662 C660 1.391 . S
C662 C663 1.400 . S
C663 C662 1.400 . S
C663 C664 1.398 . S
C663 C669 1.491 . S
C664 H655 0.950 . S
C664 C663 1.398 . S
C664 C665 1.391 . S
C665 H653 0.950 . S
C665 C661 1.393 . S
C665 C664 1.391 . S
C666 H656 0.950 . S
C666 C667 1.386 . S
C666 C668 1.391 . S
C667 C666 1.386 . S
C667 C671 1.393 . S
C668 H657 0.950 . S
C668 C666 1.391 . S
C668 C669 1.400 . S
C669 C663 1.491 . S
C669 C668 1.400 . S
C669 C670 1.398 . S
C670 H658 0.950 . S
C670 C669 1.398 . S
C670 C671 1.391 . S
C671 H659 0.950 . S
C671 C667 1.393 . S
C671 C670 1.391 . S
C201 C45 1.568 . S
C207 C114 1.573 . S
C221 C30 1.568 . S
C227 C125 1.574 . S
C241 C39 1.566 . S
C247 C136 1.570 . S
C267 C147 1.561 . S
C261 C34 1.561 . S
C281 C97 1.571 . S
C287 C158 1.577 . S
C307 C169 1.577 . S
C301 C82 1.571 . S
C327 C180 1.573 . S
C321 C91 1.570 . S
C347 C191 1.576 . S
C341 C86 1.569 . S
C367 C175 1.559 . S
C361 C26 1.521 . S
C387 C185 1.464 . S
C381 C36 1.428 . S
C407 C152 1.554 . S
C401 C32 1.519 . S
C427 C163 1.517 . S
C421 C42 1.485 . S
C441 C18 1.605 . S
C447 C164 1.648 . S
C467 C174 1.607 . S
C461 C50 1.532 . S
C481 C4 1.653 . S
C487 C186 1.691 . S
C501 C48 1.568 . S
C507 C153 1.607 . S
C527 C131 1.532 . S
C521 C78 1.502 . S
C541 C88 1.517 . S
C547 C142 1.551 . S
C567 C108 1.525 . S
C561 C84 1.491 . S
C587 C119 1.490 . S
C581 C94 1.448 . S
C607 C120 1.659 . S
C601 C70 1.618 . S
C627 C130 1.633 . S
C621 C102 1.564 . S
C641 C56 1.552 . S
C647 C141 1.612 . S
C661 C100 1.578 . S
C667 C109 1.625 . S
