# Generated by pormake.
# Topology eea, (3,6)-cn, num edge types: 1
# Building blocks:
#     Node 0, Type 0, BuildingBlock: VETTIZ_charged_linker_0, # of connection points: 3
#     Node 1, Type 0, BuildingBlock: VETTIZ_charged_linker_0, # of connection points: 3
#     Node 2, Type 0, BuildingBlock: VETTIZ_charged_linker_0, # of connection points: 3
#     Node 3, Type 0, BuildingBlock: VETTIZ_charged_linker_0, # of connection points: 3
#     Node 4, Type 0, BuildingBlock: VETTIZ_charged_linker_0, # of connection points: 3
#     Node 5, Type 0, BuildingBlock: VETTIZ_charged_linker_0, # of connection points: 3
#     Node 6, Type 0, BuildingBlock: VETTIZ_charged_linker_0, # of connection points: 3
#     Node 7, Type 0, BuildingBlock: VETTIZ_charged_linker_0, # of connection points: 3
#     Node 8, Type 0, BuildingBlock: VETTIZ_charged_linker_0, # of connection points: 3
#     Node 9, Type 0, BuildingBlock: VETTIZ_charged_linker_0, # of connection points: 3
#     Node 10, Type 0, BuildingBlock: VETTIZ_charged_linker_0, # of connection points: 3
#     Node 11, Type 0, BuildingBlock: VETTIZ_charged_linker_0, # of connection points: 3
#     Node 12, Type 0, BuildingBlock: VETTIZ_charged_linker_0, # of connection points: 3
#     Node 13, Type 0, BuildingBlock: VETTIZ_charged_linker_0, # of connection points: 3
#     Node 14, Type 0, BuildingBlock: VETTIZ_charged_linker_0, # of connection points: 3
#     Node 15, Type 0, BuildingBlock: VETTIZ_charged_linker_0, # of connection points: 3
#     Node 16, Type 0, BuildingBlock: VETTIZ_charged_linker_0, # of connection points: 3
#     Node 17, Type 0, BuildingBlock: VETTIZ_charged_linker_0, # of connection points: 3
#     Node 18, Type 1, BuildingBlock: KUMJIN_clean_sbu_0, # of connection points: 6
#     Node 19, Type 1, BuildingBlock: KUMJIN_clean_sbu_0, # of connection points: 6
#     Node 20, Type 1, BuildingBlock: KUMJIN_clean_sbu_0, # of connection points: 6
#     Node 21, Type 1, BuildingBlock: KUMJIN_clean_sbu_0, # of connection points: 6
#     Node 22, Type 1, BuildingBlock: KUMJIN_clean_sbu_0, # of connection points: 6
#     Node 23, Type 1, BuildingBlock: KUMJIN_clean_sbu_0, # of connection points: 6
#     Node 24, Type 1, BuildingBlock: KUMJIN_clean_sbu_0, # of connection points: 6
#     Node 25, Type 1, BuildingBlock: KUMJIN_clean_sbu_0, # of connection points: 6
#     Node 26, Type 1, BuildingBlock: KUMJIN_clean_sbu_0, # of connection points: 6
#     Edge 27, Type (0, 1), BuildingBlock: XUDNAN_clean_linker_2, # of connection points: 2
#     Edge 28, Type (0, 1), BuildingBlock: XUDNAN_clean_linker_2, # of connection points: 2
#     Edge 29, Type (0, 1), BuildingBlock: XUDNAN_clean_linker_2, # of connection points: 2
#     Edge 30, Type (0, 1), BuildingBlock: XUDNAN_clean_linker_2, # of connection points: 2
#     Edge 31, Type (0, 1), BuildingBlock: XUDNAN_clean_linker_2, # of connection points: 2
#     Edge 32, Type (0, 1), BuildingBlock: XUDNAN_clean_linker_2, # of connection points: 2
#     Edge 33, Type (0, 1), BuildingBlock: XUDNAN_clean_linker_2, # of connection points: 2
#     Edge 34, Type (0, 1), BuildingBlock: XUDNAN_clean_linker_2, # of connection points: 2
#     Edge 35, Type (0, 1), BuildingBlock: XUDNAN_clean_linker_2, # of connection points: 2
#     Edge 36, Type (0, 1), BuildingBlock: XUDNAN_clean_linker_2, # of connection points: 2
#     Edge 37, Type (0, 1), BuildingBlock: XUDNAN_clean_linker_2, # of connection points: 2
#     Edge 38, Type (0, 1), BuildingBlock: XUDNAN_clean_linker_2, # of connection points: 2
#     Edge 39, Type (0, 1), BuildingBlock: XUDNAN_clean_linker_2, # of connection points: 2
#     Edge 40, Type (0, 1), BuildingBlock: XUDNAN_clean_linker_2, # of connection points: 2
#     Edge 41, Type (0, 1), BuildingBlock: XUDNAN_clean_linker_2, # of connection points: 2
#     Edge 42, Type (0, 1), BuildingBlock: XUDNAN_clean_linker_2, # of connection points: 2
#     Edge 43, Type (0, 1), BuildingBlock: XUDNAN_clean_linker_2, # of connection points: 2
#     Edge 44, Type (0, 1), BuildingBlock: XUDNAN_clean_linker_2, # of connection points: 2
#     Edge 45, Type (0, 1), BuildingBlock: XUDNAN_clean_linker_2, # of connection points: 2
#     Edge 46, Type (0, 1), BuildingBlock: XUDNAN_clean_linker_2, # of connection points: 2
#     Edge 47, Type (0, 1), BuildingBlock: XUDNAN_clean_linker_2, # of connection points: 2
#     Edge 48, Type (0, 1), BuildingBlock: XUDNAN_clean_linker_2, # of connection points: 2
#     Edge 49, Type (0, 1), BuildingBlock: XUDNAN_clean_linker_2, # of connection points: 2
#     Edge 50, Type (0, 1), BuildingBlock: XUDNAN_clean_linker_2, # of connection points: 2
#     Edge 51, Type (0, 1), BuildingBlock: XUDNAN_clean_linker_2, # of connection points: 2
#     Edge 52, Type (0, 1), BuildingBlock: XUDNAN_clean_linker_2, # of connection points: 2
#     Edge 53, Type (0, 1), BuildingBlock: XUDNAN_clean_linker_2, # of connection points: 2
#     Edge 54, Type (0, 1), BuildingBlock: XUDNAN_clean_linker_2, # of connection points: 2
#     Edge 55, Type (0, 1), BuildingBlock: XUDNAN_clean_linker_2, # of connection points: 2
#     Edge 56, Type (0, 1), BuildingBlock: XUDNAN_clean_linker_2, # of connection points: 2
#     Edge 57, Type (0, 1), BuildingBlock: XUDNAN_clean_linker_2, # of connection points: 2
#     Edge 58, Type (0, 1), BuildingBlock: XUDNAN_clean_linker_2, # of connection points: 2
#     Edge 59, Type (0, 1), BuildingBlock: XUDNAN_clean_linker_2, # of connection points: 2
#     Edge 60, Type (0, 1), BuildingBlock: XUDNAN_clean_linker_2, # of connection points: 2
#     Edge 61, Type (0, 1), BuildingBlock: XUDNAN_clean_linker_2, # of connection points: 2
#     Edge 62, Type (0, 1), BuildingBlock: XUDNAN_clean_linker_2, # of connection points: 2
#     Edge 63, Type (0, 1), BuildingBlock: XUDNAN_clean_linker_2, # of connection points: 2
#     Edge 64, Type (0, 1), BuildingBlock: XUDNAN_clean_linker_2, # of connection points: 2
#     Edge 65, Type (0, 1), BuildingBlock: XUDNAN_clean_linker_2, # of connection points: 2
#     Edge 66, Type (0, 1), BuildingBlock: XUDNAN_clean_linker_2, # of connection points: 2
#     Edge 67, Type (0, 1), BuildingBlock: XUDNAN_clean_linker_2, # of connection points: 2
#     Edge 68, Type (0, 1), BuildingBlock: XUDNAN_clean_linker_2, # of connection points: 2
#     Edge 69, Type (0, 1), BuildingBlock: XUDNAN_clean_linker_2, # of connection points: 2
#     Edge 70, Type (0, 1), BuildingBlock: XUDNAN_clean_linker_2, # of connection points: 2
#     Edge 71, Type (0, 1), BuildingBlock: XUDNAN_clean_linker_2, # of connection points: 2
#     Edge 72, Type (0, 1), BuildingBlock: XUDNAN_clean_linker_2, # of connection points: 2
#     Edge 73, Type (0, 1), BuildingBlock: XUDNAN_clean_linker_2, # of connection points: 2
#     Edge 74, Type (0, 1), BuildingBlock: XUDNAN_clean_linker_2, # of connection points: 2
#     Edge 75, Type (0, 1), BuildingBlock: XUDNAN_clean_linker_2, # of connection points: 2
#     Edge 76, Type (0, 1), BuildingBlock: XUDNAN_clean_linker_2, # of connection points: 2
#     Edge 77, Type (0, 1), BuildingBlock: XUDNAN_clean_linker_2, # of connection points: 2
#     Edge 78, Type (0, 1), BuildingBlock: XUDNAN_clean_linker_2, # of connection points: 2
#     Edge 79, Type (0, 1), BuildingBlock: XUDNAN_clean_linker_2, # of connection points: 2
#     Edge 80, Type (0, 1), BuildingBlock: XUDNAN_clean_linker_2, # of connection points: 2
# Relax obj value: 0.010
# Max RMSD: 0.096
# Mean RMSD: 0.061
data_MOF--net-eea--node1-KUMJIN_clean_sbu_0--node2-VETTIZ_charged_linker_0--edge1-XUDNAN_clean_linker_2
_symmetry_space_group_name_H-M    P1
_symmetry_Int_Tables_number       1
_symmetry_cell_setting            triclinic
loop_
_symmetry_equiv_pos_as_xyz
'x, y, z'
_cell_length_a     62.099151
_cell_length_b     63.228272
_cell_length_c     88.526053
_cell_angle_alpha  90.263201
_cell_angle_beta   90.262901
_cell_angle_gamma 119.93365
loop_
_atom_site_label
_atom_site_type_symbol
_atom_site_fract_x
_atom_site_fract_y
_atom_site_fract_z
_atom_type_partial_charge
C0 C 0.21635 0.17472 0.40081 0.0
C1 C 0.21695 0.19439 0.40866 0.0
C2 C 0.22598 0.19918 0.42367 0.0
C3 C 0.23243 0.16438 0.42299 0.0
C4 C 0.22398 0.15995 0.40819 0.0
C5 C 0.22329 0.1376 0.4017 0.0
H6 H 0.24033 0.04064 0.41044 0.0
C7 C 0.2378 0.14493 0.42752 0.0
C8 C 0.23236 0.12914 0.41508 0.0
H9 H 0.21535 0.06203 0.37067 0.0
H10 H 0.2188 0.09678 0.384 0.0
H11 H 0.28354 0.0957 0.42019 0.0
H12 H 0.20743 0.05053 0.43371 0.0
H13 H 0.22423 0.06649 0.44988 0.0
H14 H 0.23171 0.04549 0.4406 0.0
H15 H 0.27302 0.06849 0.43113 0.0
H16 H 0.28222 0.09751 0.43997 0.0
C17 C 0.2417 0.14569 0.38833 0.0
C18 C 0.19597 0.11894 0.39741 0.0
C19 C 0.26918 0.14427 0.48076 0.0
C20 C 0.2739 0.12757 0.48846 0.0
C21 C 0.27047 0.10655 0.48075 0.0
C22 C 0.26263 0.10225 0.46561 0.0
C23 C 0.25788 0.11903 0.45805 0.0
C24 C 0.26095 0.13952 0.46566 0.0
C25 C 0.25368 0.15459 0.45605 0.0
C26 C 0.24629 0.14007 0.44133 0.0
C27 C 0.24896 0.11933 0.44255 0.0
C28 C 0.27685 0.18015 0.4541 0.0
C29 C 0.23133 0.15486 0.46359 0.0
C30 C 0.23546 0.05274 0.40464 0.0
C31 C 0.22775 0.04859 0.3894 0.0
C32 C 0.22179 0.06496 0.38229 0.0
C33 C 0.22366 0.08512 0.3901 0.0
C34 C 0.23151 0.0891 0.40526 0.0
C35 C 0.23726 0.07307 0.41231 0.0
C36 C 0.24527 0.08031 0.4285 0.0
C37 C 0.24351 0.10339 0.42993 0.0
C38 C 0.23538 0.10837 0.41628 0.0
C39 C 0.27237 0.08568 0.43019 0.0
C40 C 0.2264 0.05968 0.4388 0.0
H41 H 0.24033 0.18893 0.44228 0.0
H42 H 0.20928 0.17039 0.38933 0.0
H43 H 0.18287 0.11985 0.40557 0.0
H44 H 0.19182 0.09982 0.39784 0.0
H45 H 0.19118 0.12263 0.38599 0.0
H46 H 0.25815 0.16401 0.39054 0.0
H47 H 0.23277 0.14684 0.3777 0.0
H48 H 0.24952 0.13358 0.3865 0.0
H49 H 0.27128 0.16039 0.48648 0.0
H50 H 0.27411 0.0935 0.48644 0.0
H51 H 0.26048 0.08596 0.46038 0.0
H52 H 0.2937 0.17858 0.45216 0.0
H53 H 0.28027 0.1916 0.46437 0.0
H54 H 0.27548 0.18999 0.44422 0.0
H55 H 0.21945 0.13752 0.46968 0.0
H56 H 0.21867 0.15617 0.45533 0.0
H57 H 0.23769 0.17003 0.47193 0.0
H58 H 0.22693 0.2144 0.42992 0.0
C59 C 0.23378 0.18437 0.43084 0.0
C60 C 0.95597 0.17411 0.39411 0.0
C61 C 0.97397 0.19757 0.39904 0.0
C62 C 0.97035 0.20635 0.41295 0.0
C63 C 0.93231 0.16781 0.41714 0.0
C64 C 0.93552 0.15967 0.40325 0.0
C65 C 0.91531 0.13413 0.39965 0.0
H66 H 0.81403 0.0298 0.4214 0.0
C67 C 0.9098 0.14754 0.42418 0.0
C68 C 0.8999 0.1278 0.41387 0.0
H69 H 0.85089 0.04532 0.37823 0.0
H70 H 0.87982 0.08646 0.38659 0.0
H71 H 0.86062 0.05356 0.44139 0.0
H72 H 0.81557 0.08216 0.42431 0.0
H73 H 0.82191 0.0908 0.44343 0.0
H74 H 0.80547 0.05889 0.43843 0.0
H75 H 0.83243 0.04752 0.45053 0.0
H76 H 0.86196 0.07396 0.45536 0.0
C77 C 0.92741 0.11799 0.3976 0.0
C78 C 0.90075 0.13501 0.38561 0.0
C79 C 0.88043 0.1563 0.47679 0.0
C80 C 0.86104 0.13945 0.48613 0.0
C81 C 0.84717 0.11491 0.48122 0.0
C82 C 0.85124 0.10755 0.46714 0.0
C83 C 0.86972 0.12466 0.4577 0.0
C84 C 0.88453 0.14842 0.46268 0.0
C85 C 0.90455 0.16334 0.45134 0.0
C86 C 0.89834 0.14485 0.43854 0.0
C87 C 0.87772 0.1223 0.4424 0.0
C88 C 0.93004 0.17094 0.45873 0.0
C89 C 0.90145 0.18506 0.44636 0.0
C90 C 0.82841 0.04203 0.41376 0.0
C91 C 0.83029 0.03423 0.39917 0.0
C92 C 0.84897 0.05091 0.3895 0.0
C93 C 0.86582 0.07476 0.39442 0.0
C94 C 0.86396 0.08212 0.40916 0.0
C95 C 0.84525 0.06591 0.41846 0.0
C96 C 0.8456 0.07696 0.4336 0.0
C97 C 0.8677 0.10253 0.4319 0.0
C98 C 0.87851 0.10537 0.41765 0.0
C99 C 0.85021 0.06227 0.44594 0.0
C100 C 0.82086 0.07717 0.4352 0.0
H101 H 0.94804 0.19918 0.43254 0.0
H102 H 0.95785 0.16698 0.38336 0.0
H103 H 0.90109 0.15275 0.38495 0.0
H104 H 0.88077 0.12115 0.38596 0.0
H105 H 0.90883 0.1327 0.37499 0.0
H106 H 0.9423 0.12277 0.4062 0.0
H107 H 0.93596 0.12062 0.38627 0.0
H108 H 0.91427 0.09838 0.39917 0.0
H109 H 0.89182 0.17521 0.4802 0.0
H110 H 0.83296 0.10114 0.48829 0.0
H111 H 0.83966 0.0887 0.46415 0.0
H112 H 0.929 0.15587 0.46571 0.0
H113 H 0.93613 0.18711 0.46622 0.0
H114 H 0.94469 0.17489 0.4504 0.0
H115 H 0.88151 0.17897 0.44424 0.0
H116 H 0.91106 0.19326 0.4357 0.0
H117 H 0.9084 0.19949 0.45525 0.0
H118 H 0.98391 0.22436 0.41703 0.0
C119 C 0.94964 0.1916 0.42201 0.0
C120 C 0.9583 0.79738 0.39376 0.0
C121 C 0.97543 0.79062 0.39893 0.0
C122 C 0.97228 0.78014 0.41333 0.0
C123 C 0.935 0.78276 0.4171 0.0
C124 C 0.9381 0.79299 0.40293 0.0
C125 C 0.91694 0.79708 0.39869 0.0
H126 H 0.8018 0.77819 0.41364 0.0
C127 C 0.91161 0.77969 0.42349 0.0
C128 C 0.90082 0.78788 0.41269 0.0
H129 H 0.84621 0.81106 0.3741 0.0
H130 H 0.88072 0.80905 0.38546 0.0
H131 H 0.81761 0.73759 0.41967 0.0
H132 H 0.84617 0.81044 0.43717 0.0
H133 H 0.84956 0.79353 0.45171 0.0
H134 H 0.81884 0.78504 0.44479 0.0
H135 H 0.8004 0.74651 0.43183 0.0
H136 H 0.82128 0.73724 0.43942 0.0
C137 C 0.9038 0.78117 0.38456 0.0
C138 C 0.92751 0.82479 0.39642 0.0
C139 C 0.88507 0.74521 0.47639 0.0
C140 C 0.86451 0.74042 0.48543 0.0
C141 C 0.84613 0.74493 0.47935 0.0
C142 C 0.84819 0.75402 0.46467 0.0
C143 C 0.86889 0.7588 0.45585 0.0
C144 C 0.88694 0.75446 0.46177 0.0
C145 C 0.90775 0.76081 0.45081 0.0
C146 C 0.89952 0.77024 0.4375 0.0
C147 C 0.8766 0.76877 0.44045 0.0
C148 C 0.90812 0.73709 0.44679 0.0
C149 C 0.93215 0.78111 0.45806 0.0
C150 C 0.81911 0.78513 0.40757 0.0
C151 C 0.82147 0.79468 0.39299 0.0
C152 C 0.84418 0.80372 0.38537 0.0
C153 C 0.86404 0.80232 0.39194 0.0
C154 C 0.86113 0.79174 0.40628 0.0
C155 C 0.83921 0.78407 0.41405 0.0
C156 C 0.8399 0.77441 0.42946 0.0
C157 C 0.8653 0.77634 0.42933 0.0
C158 C 0.87754 0.78625 0.41565 0.0
C159 C 0.81864 0.74755 0.43028 0.0
C160 C 0.83838 0.79152 0.44148 0.0
H161 H 0.95093 0.76826 0.43331 0.0
H162 H 0.96014 0.8051 0.38262 0.0
H163 H 0.94304 0.83562 0.40448 0.0
H164 H 0.91371 0.83055 0.39871 0.0
H165 H 0.9348 0.83035 0.38481 0.0
H166 H 0.90297 0.7632 0.38528 0.0
H167 H 0.91394 0.79022 0.37409 0.0
H168 H 0.88429 0.77665 0.38334 0.0
H169 H 0.8994 0.74166 0.48052 0.0
H170 H 0.83027 0.74183 0.48604 0.0
H171 H 0.83357 0.75703 0.46075 0.0
H172 H 0.88921 0.72079 0.44749 0.0
H173 H 0.92041 0.73419 0.45463 0.0
H174 H 0.91394 0.73688 0.43504 0.0
H175 H 0.92891 0.79492 0.46385 0.0
H176 H 0.9468 0.79143 0.44972 0.0
H177 H 0.93947 0.77343 0.4666 0.0
H178 H 0.9853 0.77478 0.41746 0.0
C179 C 0.9523 0.77635 0.42248 0.0
C180 C 0.16609 0.202 0.61978 0.0
C181 C 0.18923 0.20726 0.61393 0.0
C182 C 0.19543 0.21603 0.59909 0.0
C183 C 0.15625 0.21536 0.5963 0.0
C184 C 0.15003 0.20646 0.61083 0.0
C185 C 0.12551 0.2038 0.61558 0.0
H186 H 0.03101 0.22585 0.6019 0.0
C187 C 0.13637 0.2195 0.59035 0.0
C188 C 0.11837 0.21297 0.60162 0.0
H189 H 0.04155 0.19073 0.64068 0.0
H190 H 0.07817 0.19338 0.6293 0.0
H191 H 0.08886 0.26623 0.59597 0.0
H192 H 0.04255 0.19373 0.57774 0.0
H193 H 0.06082 0.21255 0.56301 0.0
H194 H 0.0388 0.21897 0.57218 0.0
H195 H 0.06313 0.25867 0.58344 0.0
H196 H 0.09341 0.26686 0.57631 0.0
C197 C 0.13032 0.22059 0.62948 0.0
C198 C 0.10711 0.1764 0.61846 0.0
C199 C 0.14295 0.25152 0.53703 0.0
C200 C 0.12836 0.25838 0.52842 0.0
C201 C 0.10738 0.25748 0.53517 0.0
C202 C 0.10075 0.24933 0.5501 0.0
C203 C 0.11532 0.24212 0.55845 0.0
C204 C 0.1362 0.2436 0.55191 0.0
C205 C 0.15014 0.23618 0.56257 0.0
C206 C 0.13364 0.22897 0.57639 0.0
C207 C 0.11326 0.23248 0.57397 0.0
C208 C 0.17611 0.25879 0.56566 0.0
C209 C 0.15083 0.21405 0.55554 0.0
C210 C 0.04136 0.21887 0.60791 0.0
C211 C 0.03372 0.20838 0.62227 0.0
C212 C 0.04721 0.19893 0.62964 0.0
C213 C 0.0685 0.2006 0.62303 0.0
C214 C 0.07629 0.21163 0.60882 0.0
C215 C 0.06243 0.21998 0.60132 0.0
C216 C 0.07253 0.22951 0.58584 0.0
C217 C 0.09523 0.22632 0.58552 0.0
C218 C 0.09752 0.21616 0.59913 0.0
C219 C 0.07978 0.25672 0.58521 0.0
C220 C 0.05271 0.21306 0.57398 0.0
H221 H 0.18493 0.22673 0.57904 0.0
H222 H 0.16107 0.19551 0.63124 0.0
H223 H 0.1113 0.16457 0.61114 0.0
H224 H 0.0877 0.17111 0.61559 0.0
H225 H 0.10808 0.17153 0.63038 0.0
H226 H 0.14742 0.23856 0.62787 0.0
H227 H 0.13294 0.21233 0.63988 0.0
H228 H 0.11537 0.22482 0.63146 0.0
H229 H 0.15951 0.25253 0.53231 0.0
H230 H 0.09582 0.26265 0.5288 0.0
H231 H 0.08449 0.2489 0.55455 0.0
H232 H 0.17598 0.27615 0.56391 0.0
H233 H 0.19036 0.25899 0.55803 0.0
H234 H 0.1823 0.25987 0.57752 0.0
H235 H 0.13249 0.20094 0.55043 0.0
H236 H 0.15463 0.20343 0.56392 0.0
H237 H 0.16497 0.21996 0.54649 0.0
H238 H 0.21321 0.22017 0.59443 0.0
C239 C 0.17903 0.21993 0.59022 0.0
C240 C 0.78467 0.83165 0.61942 0.0
C241 C 0.78534 0.81205 0.61239 0.0
C242 C 0.77603 0.80551 0.59749 0.0
C243 C 0.76788 0.83939 0.5966 0.0
C244 C 0.77615 0.84504 0.61139 0.0
C245 C 0.77605 0.8673 0.61719 0.0
H246 H 0.77316 0.97016 0.60322 0.0
C247 C 0.76208 0.85829 0.59127 0.0
C248 C 0.76694 0.87463 0.60335 0.0
H249 H 0.78649 0.94472 0.64563 0.0
H250 H 0.77626 0.90641 0.63415 0.0
H251 H 0.79842 0.94869 0.58118 0.0
H252 H 0.72286 0.91864 0.59582 0.0
H253 H 0.72129 0.90786 0.57732 0.0
H254 H 0.73517 0.94028 0.58077 0.0
H255 H 0.77869 0.96063 0.57572 0.0
H256 H 0.77867 0.93609 0.56534 0.0
C257 C 0.8032 0.88652 0.62149 0.0
C258 C 0.75732 0.85957 0.6304 0.0
C259 C 0.73322 0.85747 0.537 0.0
C260 C 0.72879 0.87401 0.52883 0.0
C261 C 0.73184 0.89516 0.53618 0.0
C262 C 0.73926 0.89991 0.55136 0.0
C263 C 0.74398 0.8835 0.55934 0.0
C264 C 0.74098 0.86267 0.55219 0.0
C265 C 0.74781 0.84787 0.56244 0.0
C266 C 0.75438 0.86274 0.57702 0.0
C267 C 0.75224 0.8837 0.57505 0.0
C268 C 0.77057 0.84757 0.55563 0.0
C269 C 0.72473 0.82228 0.5643 0.0
C270 C 0.7736 0.9562 0.61003 0.0
C271 C 0.78155 0.96086 0.62524 0.0
C272 C 0.78134 0.94198 0.63377 0.0
C273 C 0.77531 0.91964 0.62709 0.0
C274 C 0.76938 0.91592 0.61165 0.0
C275 C 0.76749 0.93351 0.6035 0.0
C276 C 0.75923 0.92529 0.58743 0.0
C277 C 0.75777 0.90048 0.58721 0.0
C278 C 0.76428 0.89547 0.60137 0.0
C279 C 0.77964 0.94361 0.57675 0.0
C280 C 0.73339 0.923 0.58507 0.0
H281 H 0.76076 0.81347 0.5782 0.0
H282 H 0.79109 0.83681 0.63097 0.0
H283 H 0.7429 0.83992 0.62962 0.0
H284 H 0.74667 0.86934 0.63031 0.0
H285 H 0.76684 0.86252 0.64151 0.0
H286 H 0.81638 0.88679 0.61292 0.0
H287 H 0.80853 0.88227 0.63258 0.0
H288 H 0.80665 0.90537 0.62192 0.0
H289 H 0.73132 0.84123 0.53158 0.0
H290 H 0.72836 0.90805 0.53016 0.0
H291 H 0.74128 0.91636 0.55624 0.0
H292 H 0.78344 0.86538 0.55031 0.0
H293 H 0.76475 0.83317 0.54679 0.0
H294 H 0.78197 0.84495 0.56419 0.0
H295 H 0.70778 0.82375 0.566 0.0
H296 H 0.72604 0.81258 0.57428 0.0
H297 H 0.72166 0.8108 0.5541 0.0
H298 H 0.77622 0.79039 0.59182 0.0
C299 C 0.76728 0.81906 0.58957 0.0
C300 C 0.04219 0.81912 0.62206 0.0
C301 C 0.02574 0.79598 0.61598 0.0
C302 C 0.02931 0.79048 0.60107 0.0
C303 C 0.06599 0.83049 0.59876 0.0
C304 C 0.06229 0.83591 0.61336 0.0
C305 C 0.08288 0.8604 0.61863 0.0
H306 H 0.19529 0.96012 0.60659 0.0
C307 C 0.08945 0.85131 0.59314 0.0
C308 C 0.0995 0.8688 0.60483 0.0
H309 H 0.14938 0.9421 0.64638 0.0
H310 H 0.11761 0.90579 0.63411 0.0
H311 H 0.18464 0.90617 0.59907 0.0
H312 H 0.15064 0.94693 0.58328 0.0
H313 H 0.15069 0.92948 0.56784 0.0
H314 H 0.17986 0.95214 0.57615 0.0
H315 H 0.19994 0.93192 0.58675 0.0
H316 H 0.18024 0.90152 0.57943 0.0
C317 C 0.09583 0.8563 0.63243 0.0
C318 C 0.07156 0.87692 0.62188 0.0
C319 C 0.11904 0.8505 0.53944 0.0
C320 C 0.13988 0.8676 0.53124 0.0
C321 C 0.15768 0.88918 0.53863 0.0
C322 C 0.15464 0.89396 0.55369 0.0
C323 C 0.13356 0.87703 0.56163 0.0
C324 C 0.1162 0.85566 0.55455 0.0
C325 C 0.09499 0.83989 0.56491 0.0
C326 C 0.10223 0.85563 0.57917 0.0
C327 C 0.12497 0.87729 0.57717 0.0
C328 C 0.09511 0.81573 0.56748 0.0
C329 C 0.07067 0.83654 0.55778 0.0
C330 C 0.17832 0.94849 0.61262 0.0
C331 C 0.17516 0.95393 0.62762 0.0
C332 C 0.15269 0.93814 0.63499 0.0
C333 C 0.13413 0.91705 0.6278 0.0
C334 C 0.13788 0.91149 0.61301 0.0
C335 C 0.15951 0.92729 0.60558 0.0
C336 C 0.15994 0.91866 0.58976 0.0
C337 C 0.13534 0.89478 0.5891 0.0
C338 C 0.12256 0.89064 0.60278 0.0
C339 C 0.1824 0.91444 0.58853 0.0
C340 C 0.16049 0.93775 0.57859 0.0
H341 H 0.05098 0.80228 0.58117 0.0
H342 H 0.04014 0.8236 0.6336 0.0
H343 H 0.0565 0.87325 0.61363 0.0
H344 H 0.08514 0.89654 0.62067 0.0
H345 H 0.06343 0.87363 0.63337 0.0
H346 H 0.09606 0.83888 0.63123 0.0
H347 H 0.08602 0.85538 0.64308 0.0
H348 H 0.11558 0.87042 0.63364 0.0
H349 H 0.10498 0.83378 0.53411 0.0
H350 H 0.17414 0.90245 0.53275 0.0
H351 H 0.16888 0.91075 0.55856 0.0
H352 H 0.11437 0.81878 0.56727 0.0
H353 H 0.08423 0.80204 0.55856 0.0
H354 H 0.08794 0.80775 0.57868 0.0
H355 H 0.07364 0.85409 0.55309 0.0
H356 H 0.05553 0.83088 0.56602 0.0
H357 H 0.06416 0.82295 0.54841 0.0
H358 H 0.01685 0.77267 0.59622 0.0
C359 C 0.04919 0.80764 0.5924 0.0
C360 C 0.87948 0.49419 0.73223 0.0
C361 C 0.87989 0.51507 0.73809 0.0
C362 C 0.8893 0.52297 0.75286 0.0
C363 C 0.89641 0.48868 0.75572 0.0
C364 C 0.88757 0.48132 0.74117 0.0
C365 C 0.88728 0.45833 0.73656 0.0
H366 H 0.91044 0.36736 0.75259 0.0
C367 C 0.90263 0.47063 0.762 0.0
C368 C 0.89717 0.45282 0.75077 0.0
H369 H 0.88081 0.37926 0.71125 0.0
H370 H 0.88221 0.41488 0.72219 0.0
H371 H 0.95176 0.42476 0.75901 0.0
H372 H 0.87724 0.37769 0.77442 0.0
H373 H 0.89311 0.39761 0.78951 0.0
H374 H 0.90329 0.37706 0.78274 0.0
H375 H 0.94324 0.3994 0.77139 0.0
H376 H 0.95116 0.42908 0.77864 0.0
C377 C 0.90528 0.46438 0.7231 0.0
C378 C 0.85997 0.4385 0.73313 0.0
C379 C 0.93647 0.47969 0.8158 0.0
C380 C 0.94216 0.46469 0.8247 0.0
C381 C 0.93953 0.44306 0.81833 0.0
C382 C 0.93139 0.43638 0.80338 0.0
C383 C 0.92554 0.45135 0.79465 0.0
C384 C 0.92793 0.47253 0.80088 0.0
C385 C 0.91958 0.48542 0.79004 0.0
C386 C 0.91213 0.46863 0.77628 0.0
C387 C 0.91588 0.44881 0.77905 0.0
C388 C 0.94203 0.51091 0.78675 0.0
C389 C 0.89708 0.48602 0.79702 0.0
C390 C 0.90439 0.37776 0.74589 0.0
C391 C 0.89559 0.37055 0.731 0.0
C392 C 0.88745 0.3843 0.72277 0.0
C393 C 0.88845 0.4051 0.72913 0.0
C394 C 0.89756 0.41226 0.74395 0.0
C395 C 0.90513 0.39854 0.75213 0.0
C396 C 0.91372 0.40864 0.76783 0.0
C397 C 0.9105 0.43095 0.7676 0.0
C398 C 0.90113 0.43296 0.75358 0.0
C399 C 0.94138 0.41577 0.76946 0.0
C400 C 0.89616 0.38932 0.77931 0.0
H401 H 0.90433 0.51668 0.77287 0.0
H402 H 0.87293 0.48783 0.72084 0.0
H403 H 0.84678 0.44114 0.74028 0.0
H404 H 0.85607 0.41986 0.73579 0.0
H405 H 0.85496 0.43908 0.72114 0.0
H406 H 0.92176 0.48296 0.72441 0.0
H407 H 0.89601 0.4639 0.71224 0.0
H408 H 0.91307 0.45209 0.72225 0.0
H409 H 0.93804 0.49627 0.82048 0.0
H410 H 0.94396 0.43133 0.82494 0.0
H411 H 0.92986 0.41973 0.79924 0.0
H412 H 0.95919 0.50975 0.7852 0.0
H413 H 0.94543 0.52376 0.79626 0.0
H414 H 0.93978 0.5189 0.77623 0.0
H415 H 0.88504 0.46888 0.80326 0.0
H416 H 0.88475 0.48716 0.78845 0.0
H417 H 0.90327 0.50149 0.80512 0.0
H418 H 0.88977 0.53894 0.75772 0.0
C419 C 0.89758 0.50991 0.76169 0.0
C420 C 0.62194 0.50636 0.7242 0.0
C421 C 0.64054 0.52868 0.73027 0.0
C422 C 0.63703 0.53591 0.74472 0.0
C423 C 0.59749 0.49823 0.74701 0.0
C424 C 0.60075 0.49157 0.73269 0.0
C425 C 0.57954 0.46726 0.72779 0.0
H426 H 0.46756 0.36824 0.7412 0.0
C427 C 0.57362 0.47826 0.75286 0.0
C428 C 0.56302 0.46018 0.74159 0.0
H429 H 0.51353 0.38566 0.70145 0.0
H430 H 0.54467 0.42253 0.71318 0.0
H431 H 0.5149 0.38583 0.76543 0.0
H432 H 0.47778 0.42305 0.74795 0.0
H433 H 0.48241 0.42843 0.76755 0.0
H434 H 0.46284 0.39773 0.76064 0.0
H435 H 0.48362 0.37717 0.77052 0.0
H436 H 0.50996 0.40135 0.78035 0.0
C437 C 0.58989 0.44971 0.72509 0.0
C438 C 0.56705 0.47141 0.71377 0.0
C439 C 0.54698 0.48324 0.80633 0.0
C440 C 0.5263 0.46763 0.81513 0.0
C441 C 0.50742 0.44584 0.80848 0.0
C442 C 0.50938 0.43951 0.79349 0.0
C443 C 0.53042 0.45514 0.78497 0.0
C444 C 0.54867 0.4767 0.79142 0.0
C445 C 0.56965 0.49129 0.78074 0.0
C446 C 0.56129 0.47482 0.76689 0.0
C447 C 0.53826 0.45357 0.76938 0.0
C448 C 0.59381 0.49398 0.78772 0.0
C449 C 0.57052 0.51583 0.7777 0.0
C450 C 0.48443 0.37999 0.73511 0.0
C451 C 0.48775 0.37416 0.72019 0.0
C452 C 0.51008 0.38994 0.71273 0.0
C453 C 0.52831 0.41139 0.71962 0.0
C454 C 0.52452 0.41739 0.73426 0.0
C455 C 0.50307 0.40173 0.7419 0.0
C456 C 0.50282 0.41128 0.75755 0.0
C457 C 0.52737 0.43539 0.75781 0.0
C458 C 0.53986 0.43872 0.74407 0.0
C459 C 0.50265 0.39299 0.76917 0.0
C460 C 0.48023 0.41525 0.75863 0.0
H461 H 0.61423 0.52715 0.76414 0.0
H462 H 0.62385 0.50041 0.71304 0.0
H463 H 0.56787 0.48938 0.71448 0.0
H464 H 0.54703 0.45796 0.71278 0.0
H465 H 0.57647 0.47117 0.70319 0.0
H466 H 0.60575 0.45407 0.73285 0.0
H467 H 0.59665 0.45108 0.71335 0.0
H468 H 0.57619 0.43046 0.7275 0.0
H469 H 0.56162 0.50035 0.81093 0.0
H470 H 0.49134 0.43339 0.81499 0.0
H471 H 0.4945 0.42261 0.78914 0.0
H472 H 0.59015 0.47666 0.79314 0.0
H473 H 0.60154 0.50856 0.79652 0.0
H474 H 0.60831 0.49788 0.77928 0.0
H475 H 0.55154 0.5135 0.77783 0.0
H476 H 0.57782 0.52323 0.76641 0.0
H477 H 0.58181 0.52971 0.78643 0.0
H478 H 0.65114 0.55296 0.7497 0.0
C479 C 0.61565 0.52081 0.75313 0.0
C480 C 0.62395 0.11891 0.72431 0.0
C481 C 0.64296 0.11526 0.73003 0.0
C482 C 0.64162 0.10748 0.74505 0.0
C483 C 0.60244 0.10676 0.7484 0.0
C484 C 0.60387 0.11446 0.73364 0.0
C485 C 0.58166 0.11671 0.72921 0.0
H486 H 0.47403 0.1125 0.7485 0.0
C487 C 0.57889 0.10325 0.75493 0.0
C488 C 0.56659 0.10894 0.74366 0.0
H489 H 0.51087 0.13134 0.70539 0.0
H490 H 0.54242 0.12289 0.7149 0.0
H491 H 0.47864 0.06535 0.75302 0.0
H492 H 0.52408 0.13854 0.77008 0.0
H493 H 0.51699 0.11766 0.78499 0.0
H494 H 0.4922 0.11882 0.7752 0.0
H495 H 0.47007 0.07585 0.76955 0.0
H496 H 0.49 0.06265 0.77067 0.0
C497 C 0.56798 0.09869 0.71598 0.0
C498 C 0.59097 0.14382 0.72548 0.0
C499 C 0.55643 0.07541 0.80954 0.0
C500 C 0.53511 0.06885 0.81839 0.0
C501 C 0.51539 0.07075 0.81172 0.0
C502 C 0.51694 0.07916 0.79689 0.0
C503 C 0.53825 0.0855 0.7883 0.0
C504 C 0.55741 0.08326 0.79459 0.0
C505 C 0.5779 0.08924 0.7834 0.0
C506 C 0.56798 0.09571 0.76946 0.0
C507 C 0.54487 0.0938 0.77248 0.0
C508 C 0.57991 0.06602 0.78083 0.0
C509 C 0.60197 0.11146 0.78954 0.0
C510 C 0.48888 0.11461 0.74115 0.0
C511 C 0.49017 0.12259 0.72622 0.0
C512 C 0.50958 0.12509 0.71691 0.0
C513 C 0.52791 0.12031 0.72249 0.0
C514 C 0.52679 0.11286 0.73757 0.0
C515 C 0.50722 0.10965 0.74654 0.0
C516 C 0.50854 0.10067 0.76208 0.0
C517 C 0.5326 0.0999 0.76113 0.0
C518 C 0.5433 0.10723 0.74678 0.0
C519 C 0.48562 0.07488 0.76408 0.0
C520 C 0.51043 0.11976 0.7738 0.0
H521 H 0.62161 0.09741 0.76562 0.0
H522 H 0.6245 0.12471 0.71275 0.0
H523 H 0.60575 0.15608 0.7336 0.0
H524 H 0.57638 0.14883 0.72643 0.0
H525 H 0.59893 0.14831 0.71395 0.0
H526 H 0.56976 0.08209 0.7169 0.0
H527 H 0.57574 0.10722 0.70491 0.0
H528 H 0.54774 0.09172 0.71594 0.0
H529 H 0.57216 0.07452 0.81405 0.0
H530 H 0.49835 0.06526 0.81779 0.0
H531 H 0.50129 0.08016 0.79261 0.0
H532 H 0.56143 0.04922 0.78185 0.0
H533 H 0.59256 0.06485 0.78927 0.0
H534 H 0.58621 0.06493 0.76935 0.0
H535 H 0.5979 0.12532 0.79443 0.0
H536 H 0.61588 0.12109 0.78068 0.0
H537 H 0.61057 0.1059 0.79857 0.0
H538 H 0.65612 0.10451 0.7496 0.0
C539 C 0.62155 0.10331 0.75428 0.0
C540 C 0.8313 0.54156 0.95236 0.0
C541 C 0.85542 0.54991 0.94686 0.0
C542 C 0.86171 0.56081 0.93252 0.0
C543 C 0.82041 0.55542 0.92944 0.0
C544 C 0.81422 0.54477 0.94355 0.0
C545 C 0.78844 0.53883 0.94812 0.0
H546 H 0.68651 0.5492 0.93444 0.0
C547 C 0.79882 0.55672 0.92336 0.0
C548 C 0.77999 0.54708 0.93429 0.0
H549 H 0.7028 0.52014 0.97408 0.0
H550 H 0.73972 0.52411 0.96215 0.0
H551 H 0.74264 0.59243 0.92705 0.0
H552 H 0.69904 0.5184 0.91103 0.0
H553 H 0.71942 0.53472 0.89632 0.0
H554 H 0.69665 0.54275 0.90241 0.0
H555 H 0.71436 0.58086 0.91624 0.0
H556 H 0.74366 0.5916 0.9071 0.0
C557 C 0.79087 0.55427 0.96233 0.0
C558 C 0.77258 0.51093 0.95042 0.0
C559 C 0.80375 0.59318 0.87126 0.0
C560 C 0.78639 0.59571 0.86219 0.0
C561 C 0.76215 0.58679 0.86796 0.0
C562 C 0.75569 0.57657 0.88242 0.0
C563 C 0.77339 0.5747 0.89135 0.0
C564 C 0.79676 0.58238 0.88559 0.0
C565 C 0.8126 0.57742 0.89633 0.0
C566 C 0.79491 0.56565 0.90948 0.0
C567 C 0.77211 0.56457 0.90662 0.0
C568 C 0.83543 0.60221 0.90092 0.0
C569 C 0.81912 0.55939 0.8885 0.0
C570 C 0.69796 0.54346 0.9404 0.0
C571 C 0.69194 0.53442 0.95519 0.0
C572 C 0.70709 0.52701 0.96266 0.0
C573 C 0.72863 0.5296 0.95576 0.0
C574 C 0.73513 0.53978 0.94123 0.0
C575 C 0.71943 0.54577 0.93361 0.0
C576 C 0.72874 0.55537 0.91801 0.0
C577 C 0.75335 0.55559 0.91788 0.0
C578 C 0.75711 0.5466 0.93156 0.0
C579 C 0.73251 0.58142 0.91691 0.0
C580 C 0.71003 0.53706 0.90627 0.0
H581 H 0.85038 0.572 0.91297 0.0
H582 H 0.82615 0.5335 0.96347 0.0
H583 H 0.77717 0.50094 0.94181 0.0
H584 H 0.75247 0.504 0.94899 0.0
H585 H 0.77603 0.50566 0.96174 0.0
H586 H 0.80765 0.57273 0.96166 0.0
H587 H 0.79261 0.54547 0.97274 0.0
H588 H 0.77525 0.55775 0.96365 0.0
H589 H 0.82255 0.5997 0.86747 0.0
H590 H 0.74787 0.58743 0.86126 0.0
H591 H 0.73709 0.57049 0.8861 0.0
H592 H 0.83032 0.61672 0.90176 0.0
H593 H 0.85048 0.60815 0.89246 0.0
H594 H 0.84294 0.60187 0.91219 0.0
H595 H 0.80319 0.54576 0.88154 0.0
H596 H 0.82299 0.54842 0.89656 0.0
H597 H 0.83528 0.56914 0.88088 0.0
H598 H 0.88021 0.56739 0.92811 0.0
C599 C 0.84435 0.56346 0.92376 0.0
C600 C 0.46288 0.17197 0.95327 0.0
C601 C 0.46184 0.15042 0.94806 0.0
C602 C 0.45088 0.14091 0.93379 0.0
C603 C 0.44212 0.17398 0.93046 0.0
C604 C 0.45314 0.18341 0.94433 0.0
C605 C 0.45357 0.20679 0.94817 0.0
H606 H 0.42331 0.29221 0.92975 0.0
C607 C 0.4333 0.19004 0.92426 0.0
C608 C 0.43993 0.20924 0.93465 0.0
H609 H 0.46982 0.29364 0.96679 0.0
H610 H 0.46219 0.25372 0.95961 0.0
H611 H 0.44851 0.27306 0.90541 0.0
H612 H 0.38172 0.23761 0.93163 0.0
H613 H 0.37486 0.22088 0.91467 0.0
H614 H 0.38292 0.25258 0.91424 0.0
H615 H 0.42247 0.2777 0.9028 0.0
H616 H 0.42394 0.25327 0.89339 0.0
C617 C 0.4811 0.22762 0.94897 0.0
C618 C 0.43893 0.20302 0.96297 0.0
C619 C 0.3902 0.17236 0.87279 0.0
C620 C 0.37849 0.18326 0.86488 0.0
C621 C 0.37635 0.20209 0.8721 0.0
C622 C 0.38678 0.21081 0.88639 0.0
C623 C 0.3994 0.20057 0.89376 0.0
C624 C 0.4002 0.18109 0.88725 0.0
C625 C 0.41247 0.17118 0.89753 0.0
C626 C 0.41995 0.18878 0.91087 0.0
C627 C 0.41258 0.20617 0.90842 0.0
C628 C 0.43537 0.17316 0.88937 0.0
C629 C 0.39276 0.14483 0.90192 0.0
C630 C 0.43211 0.28414 0.93628 0.0
C631 C 0.44737 0.29642 0.94883 0.0
C632 C 0.45777 0.28468 0.95718 0.0
C633 C 0.4536 0.26155 0.95286 0.0
C634 C 0.43917 0.25008 0.93992 0.0
C635 C 0.42868 0.26138 0.9319 0.0
C636 C 0.41513 0.24724 0.91795 0.0
C637 C 0.41956 0.22573 0.91881 0.0
C638 C 0.43339 0.22737 0.93178 0.0
C639 C 0.42794 0.26354 0.90409 0.0
C640 C 0.38722 0.23923 0.91956 0.0
H641 H 0.43302 0.14448 0.91424 0.0
H642 H 0.47088 0.17975 0.9642 0.0
H643 H 0.42146 0.18505 0.96279 0.0
H644 H 0.43314 0.21675 0.9647 0.0
H645 H 0.45007 0.2034 0.97294 0.0
H646 H 0.49343 0.22313 0.94227 0.0
H647 H 0.48821 0.23115 0.96078 0.0
H648 H 0.48384 0.24483 0.94402 0.0
H649 H 0.39202 0.15768 0.8678 0.0
H650 H 0.36652 0.21019 0.86674 0.0
H651 H 0.38474 0.22535 0.89111 0.0
H652 H 0.44583 0.19102 0.88356 0.0
H653 H 0.42968 0.15852 0.88071 0.0
H654 H 0.44884 0.17234 0.89717 0.0
H655 H 0.37394 0.14282 0.90263 0.0
H656 H 0.39612 0.13968 0.91322 0.0
H657 H 0.39181 0.13137 0.89344 0.0
H658 H 0.45017 0.12461 0.92932 0.0
C659 C 0.441 0.15254 0.925 0.0
C660 C 0.72248 0.16339 0.95745 0.0
C661 C 0.70341 0.14032 0.95267 0.0
C662 C 0.70517 0.13149 0.93832 0.0
C663 C 0.7439 0.16895 0.93362 0.0
C664 C 0.74241 0.17728 0.94783 0.0
C665 C 0.76387 0.2023 0.95121 0.0
H666 H 0.86676 0.30368 0.92774 0.0
C667 C 0.76658 0.18834 0.92628 0.0
C668 C 0.77834 0.20785 0.93661 0.0
H669 H 0.83179 0.28998 0.97148 0.0
H670 H 0.80177 0.24902 0.96364 0.0
H671 H 0.86403 0.25167 0.92502 0.0
H672 H 0.81645 0.27757 0.90784 0.0
H673 H 0.82069 0.26089 0.89335 0.0
H674 H 0.84719 0.28795 0.90084 0.0
H675 H 0.87245 0.2715 0.90903 0.0
H676 H 0.85409 0.23874 0.90697 0.0
C677 C 0.77866 0.20039 0.96479 0.0
C678 C 0.75336 0.21968 0.95384 0.0
C679 C 0.78821 0.1767 0.87252 0.0
C680 C 0.80807 0.19145 0.86287 0.0
C681 C 0.82604 0.21497 0.86795 0.0
C682 C 0.82452 0.22347 0.88235 0.0
C683 C 0.80482 0.20837 0.89191 0.0
C684 C 0.78701 0.18544 0.88692 0.0
C685 C 0.76753 0.17185 0.89871 0.0
C686 C 0.77682 0.19024 0.91166 0.0
C687 C 0.79863 0.21166 0.90757 0.0
C688 C 0.76818 0.14839 0.9028 0.0
C689 C 0.74222 0.16719 0.89241 0.0
C690 C 0.85258 0.29183 0.93561 0.0
C691 C 0.8515 0.30014 0.95022 0.0
C692 C 0.83309 0.28399 0.96021 0.0
C693 C 0.81556 0.26025 0.95558 0.0
C694 C 0.81641 0.25246 0.9408 0.0
C695 C 0.83498 0.268 0.93118 0.0
C696 C 0.83341 0.25631 0.91604 0.0
C697 C 0.81047 0.23138 0.91805 0.0
C698 C 0.80051 0.22935 0.93253 0.0
C699 C 0.85723 0.25453 0.91399 0.0
C700 C 0.82938 0.27143 0.90377 0.0
H701 H 0.72537 0.13807 0.91794 0.0
H702 H 0.7219 0.17057 0.96848 0.0
H703 H 0.7379 0.21547 0.94578 0.0
H704 H 0.7671 0.23903 0.9519 0.0
H705 H 0.74595 0.21777 0.96546 0.0
H706 H 0.77729 0.18216 0.96512 0.0
H707 H 0.77151 0.20308 0.97568 0.0
H708 H 0.79882 0.21349 0.96412 0.0
H709 H 0.77389 0.15865 0.86899 0.0
H710 H 0.84176 0.22665 0.86095 0.0
H711 H 0.83893 0.24143 0.88554 0.0
H712 H 0.78758 0.15179 0.90273 0.0
H713 H 0.75718 0.13346 0.89457 0.0
H714 H 0.76141 0.14189 0.91431 0.0
H715 H 0.74452 0.18325 0.88596 0.0
H716 H 0.72875 0.16443 0.90134 0.0
H717 H 0.73386 0.15116 0.88464 0.0
H718 H 0.69064 0.11385 0.93431 0.0
C719 C 0.72526 0.14567 0.92878 0.0
C720 C 0.5533 0.83016 0.06565 0.0
C721 C 0.56089 0.85435 0.06988 0.0
C722 C 0.5727 0.86298 0.08407 0.0
C723 C 0.5701 0.82398 0.08899 0.0
C724 C 0.55829 0.81555 0.07519 0.0
C725 C 0.55293 0.79016 0.07161 0.0
H726 H 0.56506 0.6931 0.08934 0.0
C727 C 0.57314 0.80425 0.09585 0.0
C728 C 0.56312 0.78447 0.08562 0.0
H729 H 0.53503 0.70548 0.04829 0.0
H730 H 0.53971 0.74277 0.05882 0.0
H731 H 0.60977 0.74642 0.09226 0.0
H732 H 0.5375 0.71115 0.11251 0.0
H733 H 0.55808 0.73097 0.12636 0.0
H734 H 0.56207 0.70637 0.11915 0.0
H735 H 0.60107 0.72413 0.10689 0.0
H736 H 0.61398 0.75609 0.11118 0.0
C737 C 0.56763 0.79123 0.05721 0.0
C738 C 0.52439 0.77343 0.07017 0.0
C739 C 0.61792 0.81687 0.14656 0.0
C740 C 0.62448 0.8019 0.15481 0.0
C741 C 0.61602 0.77785 0.14977 0.0
C742 C 0.60205 0.76901 0.13647 0.0
C743 C 0.59666 0.78444 0.1279 0.0
C744 C 0.60408 0.80778 0.13308 0.0
C745 C 0.59671 0.82147 0.12222 0.0
C746 C 0.58393 0.80255 0.10971 0.0
C747 C 0.58419 0.78099 0.11311 0.0
C748 C 0.62067 0.84415 0.11664 0.0
C749 C 0.57844 0.82752 0.13036 0.0
C750 C 0.55953 0.70385 0.08258 0.0
C751 C 0.54991 0.69638 0.06786 0.0
C752 C 0.54238 0.71067 0.05966 0.0
C753 C 0.54536 0.7325 0.06576 0.0
C754 C 0.5562 0.74031 0.08017 0.0
C755 C 0.56267 0.72583 0.08842 0.0
C756 C 0.57443 0.73723 0.10338 0.0
C757 C 0.57445 0.76124 0.10261 0.0
C758 C 0.5638 0.76292 0.089 0.0
C759 C 0.60116 0.74111 0.10362 0.0
C760 C 0.55737 0.72062 0.11609 0.0
H761 H 0.58647 0.85559 0.10421 0.0
H762 H 0.54376 0.8226 0.05503 0.0
H763 H 0.51465 0.77843 0.07876 0.0
H764 H 0.51822 0.75403 0.07225 0.0
H765 H 0.51762 0.77513 0.05885 0.0
H766 H 0.58487 0.80926 0.05616 0.0
H767 H 0.55633 0.78827 0.04683 0.0
H768 H 0.57429 0.77796 0.05736 0.0
H769 H 0.62431 0.83548 0.15016 0.0
H770 H 0.62067 0.76597 0.15605 0.0
H771 H 0.59654 0.75065 0.13319 0.0
H772 H 0.63581 0.83981 0.11503 0.0
H773 H 0.62735 0.85942 0.12493 0.0
H774 H 0.6183 0.85058 0.10553 0.0
H775 H 0.56497 0.81173 0.13718 0.0
H776 H 0.56701 0.83131 0.12246 0.0
H777 H 0.58852 0.84338 0.13813 0.0
H778 H 0.57897 0.88158 0.08763 0.0
C779 C 0.57723 0.84791 0.09365 0.0
C780 C 0.29945 0.83823 0.06056 0.0
C781 C 0.31831 0.86009 0.06693 0.0
C782 C 0.31483 0.8671 0.08146 0.0
C783 C 0.27432 0.83046 0.08305 0.0
C784 C 0.27773 0.8239 0.06871 0.0
C785 C 0.25573 0.80059 0.06323 0.0
H786 H 0.13867 0.70814 0.07368 0.0
C787 C 0.24948 0.81147 0.0883 0.0
C788 C 0.23853 0.79407 0.07664 0.0
H789 H 0.18624 0.72214 0.03502 0.0
H790 H 0.21914 0.7572 0.04753 0.0
H791 H 0.18185 0.71881 0.09836 0.0
H792 H 0.15331 0.76311 0.08033 0.0
H793 H 0.15795 0.76926 0.09981 0.0
H794 H 0.13617 0.73877 0.09335 0.0
H795 H 0.15234 0.71496 0.10386 0.0
H796 H 0.18078 0.7364 0.11341 0.0
C797 C 0.26425 0.78162 0.06059 0.0
C798 C 0.24502 0.80648 0.04901 0.0
C799 C 0.21906 0.81651 0.1409 0.0
C800 C 0.19654 0.80182 0.14845 0.0
C801 C 0.17764 0.78099 0.14103 0.0
C802 C 0.18101 0.77486 0.12636 0.0
C803 C 0.20348 0.78976 0.1189 0.0
C804 C 0.22206 0.81023 0.12613 0.0
C805 C 0.24441 0.82421 0.1162 0.0
C806 C 0.23635 0.80844 0.10199 0.0
C807 C 0.21233 0.78829 0.10368 0.0
C808 C 0.26703 0.8247 0.12395 0.0
C809 C 0.24765 0.84979 0.11333 0.0
C810 C 0.15624 0.71866 0.06797 0.0
C811 C 0.15961 0.71253 0.05319 0.0
C812 C 0.18284 0.72677 0.04622 0.0
C813 C 0.20206 0.74711 0.05356 0.0
C814 C 0.19822 0.7534 0.06812 0.0
C815 C 0.17577 0.7391 0.07519 0.0
C816 C 0.17539 0.74844 0.09081 0.0
C817 C 0.20112 0.77096 0.09176 0.0
C818 C 0.21429 0.77376 0.0784 0.0
C819 C 0.17225 0.72869 0.1023 0.0
C820 C 0.15456 0.75515 0.09126 0.0
H821 H 0.29151 0.85854 0.10063 0.0
H822 H 0.30138 0.83254 0.04933 0.0
H823 H 0.2471 0.82497 0.04993 0.0
H824 H 0.22487 0.79407 0.04745 0.0
H825 H 0.25482 0.80609 0.03864 0.0
H826 H 0.279 0.78427 0.06884 0.0
H827 H 0.27195 0.78325 0.04908 0.0
H828 H 0.24923 0.76262 0.06234 0.0
H829 H 0.2338 0.83281 0.14624 0.0
H830 H 0.16024 0.76927 0.14666 0.0
H831 H 0.16589 0.75878 0.12137 0.0
H832 H 0.26173 0.80648 0.12869 0.0
H833 H 0.27422 0.83817 0.1334 0.0
H834 H 0.28237 0.82893 0.11609 0.0
H835 H 0.22933 0.84893 0.11279 0.0
H836 H 0.25639 0.85746 0.10236 0.0
H837 H 0.25872 0.86281 0.12251 0.0
H838 H 0.32918 0.88383 0.08663 0.0
C839 C 0.293 0.85235 0.08958 0.0
C840 C 0.28868 0.45932 0.05685 0.0
C841 C 0.30727 0.45457 0.06209 0.0
C842 C 0.30415 0.44316 0.0762 0.0
C843 C 0.26506 0.44256 0.07989 0.0
C844 C 0.26773 0.45296 0.06581 0.0
C845 C 0.24594 0.4561 0.06169 0.0
H846 H 0.13892 0.45247 0.08178 0.0
C847 C 0.24155 0.439 0.08653 0.0
C848 C 0.23016 0.44668 0.07581 0.0
H849 H 0.17575 0.47238 0.03869 0.0
H850 H 0.20699 0.46319 0.04779 0.0
H851 H 0.14389 0.40415 0.08578 0.0
H852 H 0.18845 0.47764 0.10269 0.0
H853 H 0.18449 0.45753 0.11745 0.0
H854 H 0.15767 0.45726 0.10937 0.0
H855 H 0.13368 0.41591 0.10092 0.0
H856 H 0.15271 0.40221 0.10436 0.0
C857 C 0.23275 0.43987 0.04766 0.0
C858 C 0.25567 0.48365 0.05931 0.0
C859 C 0.21844 0.40835 0.14059 0.0
C860 C 0.19846 0.40423 0.15002 0.0
C861 C 0.18001 0.40883 0.14418 0.0
C862 C 0.18139 0.41736 0.1294 0.0
C863 C 0.20147 0.42145 0.12018 0.0
C864 C 0.21956 0.41691 0.12581 0.0
C865 C 0.23955 0.4223 0.11437 0.0
C866 C 0.23048 0.43079 0.10096 0.0
C867 C 0.20815 0.4303 0.10445 0.0
C868 C 0.23956 0.39829 0.11082 0.0
C869 C 0.26446 0.44298 0.12084 0.0
C870 C 0.15366 0.45462 0.07434 0.0
C871 C 0.15502 0.46309 0.05952 0.0
C872 C 0.17438 0.46572 0.0501 0.0
C873 C 0.19251 0.46047 0.05544 0.0
C874 C 0.19125 0.45239 0.07037 0.0
C875 C 0.1718 0.44916 0.07947 0.0
C876 C 0.17305 0.43964 0.09483 0.0
C877 C 0.19655 0.43791 0.09352 0.0
C878 C 0.20732 0.44573 0.07923 0.0
C879 C 0.1496 0.41422 0.09674 0.0
C880 C 0.1759 0.45881 0.10681 0.0
H881 H 0.28214 0.42889 0.09584 0.0
H882 H 0.29036 0.46767 0.04594 0.0
H883 H 0.26923 0.49466 0.06835 0.0
H884 H 0.24092 0.48849 0.05986 0.0
H885 H 0.26523 0.48974 0.04829 0.0
H886 H 0.23555 0.42382 0.0471 0.0
H887 H 0.23998 0.45022 0.03702 0.0
H888 H 0.21233 0.43188 0.04796 0.0
H889 H 0.23282 0.40476 0.14455 0.0
H890 H 0.1646 0.40624 0.15116 0.0
H891 H 0.16679 0.42059 0.12574 0.0
H892 H 0.22043 0.38229 0.11135 0.0
H893 H 0.25127 0.39523 0.11905 0.0
H894 H 0.24588 0.39777 0.09925 0.0
H895 H 0.2617 0.45725 0.12643 0.0
H896 H 0.27854 0.45265 0.1121 0.0
H897 H 0.27228 0.43582 0.1294 0.0
H898 H 0.31822 0.43935 0.08049 0.0
C899 C 0.28325 0.43724 0.08514 0.0
C900 C 0.50296 0.87929 0.29133 0.0
C901 C 0.52673 0.88636 0.28576 0.0
C902 C 0.53325 0.89666 0.27127 0.0
C903 C 0.49272 0.89315 0.26818 0.0
C904 C 0.48642 0.88314 0.28246 0.0
C905 C 0.46109 0.87835 0.28708 0.0
H906 H 0.35822 0.8866 0.27231 0.0
C907 C 0.47173 0.89556 0.26215 0.0
C908 C 0.45326 0.8872 0.27328 0.0
H909 H 0.37381 0.85593 0.31151 0.0
H910 H 0.41327 0.86484 0.30099 0.0
H911 H 0.41488 0.93313 0.26733 0.0
H912 H 0.37556 0.8601 0.24906 0.0
H913 H 0.39369 0.87923 0.23444 0.0
H914 H 0.36957 0.88355 0.24262 0.0
H915 H 0.38904 0.92285 0.25449 0.0
H916 H 0.42029 0.93461 0.24775 0.0
C917 C 0.46426 0.89411 0.30128 0.0
C918 C 0.44426 0.85051 0.28939 0.0
C919 C 0.47492 0.92644 0.20857 0.0
C920 C 0.45822 0.93049 0.19989 0.0
C921 C 0.43614 0.92683 0.20677 0.0
C922 C 0.43051 0.9188 0.22174 0.0
C923 C 0.44707 0.91431 0.2301 0.0
C924 C 0.46897 0.91837 0.22356 0.0
C925 C 0.48454 0.91304 0.23431 0.0
C926 C 0.46797 0.90433 0.24816 0.0
C927 C 0.44604 0.90518 0.24564 0.0
C928 C 0.50913 0.93717 0.23745 0.0
C929 C 0.48807 0.8925 0.22733 0.0
C930 C 0.3704 0.8822 0.27867 0.0
C931 C 0.36318 0.87089 0.29284 0.0
C932 C 0.37911 0.86477 0.30062 0.0
C933 C 0.402 0.86995 0.29447 0.0
C934 C 0.40901 0.88115 0.28027 0.0
C935 C 0.39319 0.88685 0.27253 0.0
C936 C 0.40301 0.89711 0.25712 0.0
C937 C 0.42759 0.89725 0.25707 0.0
C938 C 0.43108 0.88807 0.27073 0.0
C939 C 0.40693 0.92326 0.25648 0.0
C940 C 0.38455 0.8793 0.2451 0.0
H941 H 0.52241 0.90785 0.25147 0.0
H942 H 0.49769 0.87169 0.30255 0.0
H943 H 0.44923 0.84 0.28142 0.0
H944 H 0.42445 0.84407 0.28701 0.0
H945 H 0.4462 0.84518 0.30104 0.0
H946 H 0.48131 0.91233 0.30044 0.0
H947 H 0.46598 0.88526 0.31167 0.0
H948 H 0.44897 0.89804 0.30274 0.0
H949 H 0.49203 0.92901 0.20372 0.0
H950 H 0.42316 0.93032 0.20059 0.0
H951 H 0.41339 0.91635 0.22621 0.0
H952 H 0.50653 0.95329 0.23638 0.0
H953 H 0.52381 0.93959 0.22937 0.0
H954 H 0.51609 0.93836 0.24912 0.0
H955 H 0.47025 0.87786 0.22245 0.0
H956 H 0.49389 0.8834 0.23567 0.0
H957 H 0.50196 0.89966 0.21811 0.0
H958 H 0.55156 0.90231 0.26684 0.0
C959 C 0.51634 0.89993 0.26241 0.0
C960 C 0.11856 0.50639 0.28547 0.0
C961 C 0.11352 0.48329 0.28026 0.0
C962 C 0.1041 0.47604 0.26543 0.0
C963 C 0.10376 0.51398 0.2618 0.0
C964 C 0.1133 0.52114 0.27622 0.0
C965 C 0.1159 0.54523 0.2807 0.0
H966 H 0.0975 0.63979 0.26608 0.0
C967 C 0.09951 0.53332 0.25548 0.0
C968 C 0.10647 0.55155 0.26655 0.0
H969 H 0.12531 0.62402 0.30684 0.0
H970 H 0.1233 0.58892 0.295 0.0
H971 H 0.13003 0.62501 0.24222 0.0
H972 H 0.05488 0.58333 0.25881 0.0
H973 H 0.0551 0.57933 0.2391 0.0
H974 H 0.06455 0.60918 0.24667 0.0
H975 H 0.10622 0.63175 0.23676 0.0
H976 H 0.10984 0.60849 0.22718 0.0
C977 C 0.14385 0.56347 0.2836 0.0
C978 C 0.09882 0.54096 0.29449 0.0
C979 C 0.06288 0.52293 0.2028 0.0
C980 C 0.05567 0.53679 0.19392 0.0
C981 C 0.06027 0.55962 0.19954 0.0
C982 C 0.07102 0.56801 0.21395 0.0
C983 C 0.07728 0.55346 0.22288 0.0
C984 C 0.07348 0.53148 0.2171 0.0
C985 C 0.08104 0.5182 0.22802 0.0
C986 C 0.09003 0.53572 0.24135 0.0
C987 C 0.08771 0.55639 0.2384 0.0
C988 C 0.1024 0.51574 0.22086 0.0
C989 C 0.05768 0.49355 0.23192 0.0
C990 C 0.10326 0.62874 0.27233 0.0
C991 C 0.11129 0.63447 0.2875 0.0
C992 C 0.11867 0.61974 0.29527 0.0
C993 C 0.11751 0.59933 0.28834 0.0
C994 C 0.10862 0.5932 0.27344 0.0
C995 C 0.10189 0.60786 0.26555 0.0
C996 C 0.09259 0.59791 0.24982 0.0
C997 C 0.09447 0.57474 0.24979 0.0
C998 C 0.10391 0.57226 0.26371 0.0
C999 C 0.11041 0.61674 0.23829 0.0
C1000 C 0.06538 0.59221 0.24838 0.0
H1001 H 0.09188 0.48457 0.24509 0.0
H1002 H 0.12624 0.51292 0.29665 0.0
H1003 H 0.08285 0.52195 0.29464 0.0
H1004 H 0.09004 0.55246 0.29429 0.0
H1005 H 0.10915 0.54409 0.30531 0.0
H1006 H 0.1556 0.56035 0.27546 0.0
H1007 H 0.14954 0.5614 0.29516 0.0
H1008 H 0.14884 0.58269 0.28194 0.0
H1009 H 0.06005 0.50552 0.19877 0.0
H1010 H 0.05484 0.57066 0.193 0.0
H1011 H 0.07366 0.58532 0.2177 0.0
H1012 H 0.11541 0.53268 0.21476 0.0
H1013 H 0.09507 0.50037 0.21261 0.0
H1014 H 0.11401 0.51317 0.22931 0.0
H1015 H 0.04068 0.49524 0.23183 0.0
H1016 H 0.05843 0.48721 0.24341 0.0
H1017 H 0.05474 0.47911 0.22361 0.0
H1018 H 0.09979 0.45831 0.26109 0.0
C1019 C 0.0993 0.49127 0.25618 0.0
C1020 C 0.37611 0.50164 0.28612 0.0
C1021 C 0.35719 0.47877 0.28092 0.0
C1022 C 0.3596 0.47036 0.26658 0.0
C1023 C 0.39884 0.50772 0.26273 0.0
C1024 C 0.39671 0.51564 0.27695 0.0
C1025 C 0.41864 0.54005 0.28102 0.0
H1026 H 0.53005 0.63591 0.26194 0.0
C1027 C 0.42234 0.52689 0.25602 0.0
C1028 C 0.43405 0.54581 0.26679 0.0
H1029 H 0.49179 0.62409 0.30442 0.0
H1030 H 0.45734 0.58651 0.2946 0.0
H1031 H 0.51878 0.58151 0.25747 0.0
H1032 H 0.48368 0.62077 0.2412 0.0
H1033 H 0.48002 0.60043 0.22658 0.0
H1034 H 0.5109 0.62343 0.23246 0.0
H1035 H 0.53203 0.60465 0.24328 0.0
H1036 H 0.51114 0.57311 0.23842 0.0
C1037 C 0.43197 0.53664 0.29485 0.0
C1038 C 0.40924 0.5583 0.28365 0.0
C1039 C 0.44573 0.51908 0.20167 0.0
C1040 C 0.46561 0.53528 0.19249 0.0
C1041 C 0.48429 0.55745 0.19875 0.0
C1042 C 0.48313 0.56375 0.21374 0.0
C1043 C 0.46296 0.54783 0.2227 0.0
C1044 C 0.44467 0.52586 0.21672 0.0
C1045 C 0.42436 0.51178 0.22803 0.0
C1046 C 0.43345 0.52909 0.24162 0.0
C1047 C 0.45616 0.55006 0.23836 0.0
C1048 C 0.42389 0.48756 0.2314 0.0
C1049 C 0.39969 0.50843 0.22149 0.0
C1050 C 0.51433 0.62518 0.26919 0.0
C1051 C 0.5138 0.63286 0.28404 0.0
C1052 C 0.49265 0.61862 0.29292 0.0
C1053 C 0.47277 0.59671 0.28723 0.0
C1054 C 0.47399 0.58895 0.27248 0.0
C1055 C 0.49446 0.60332 0.26371 0.0
C1056 C 0.49275 0.59252 0.24831 0.0
C1057 C 0.46812 0.56891 0.24933 0.0
C1058 C 0.45714 0.56687 0.26347 0.0
C1059 C 0.51484 0.58778 0.24661 0.0
C1060 C 0.49196 0.61013 0.23644 0.0
H1061 H 0.3809 0.47742 0.24661 0.0
H1062 H 0.37501 0.50842 0.29718 0.0
H1063 H 0.39445 0.55516 0.2753 0.0
H1064 H 0.42384 0.57749 0.2821 0.0
H1065 H 0.40128 0.55623 0.29512 0.0
H1066 H 0.43086 0.51853 0.29444 0.0
H1067 H 0.42338 0.53774 0.30559 0.0
H1068 H 0.45207 0.54999 0.29525 0.0
H1069 H 0.43105 0.50197 0.1971 0.0
H1070 H 0.49985 0.57007 0.19193 0.0
H1071 H 0.49795 0.58096 0.21769 0.0
H1072 H 0.44306 0.49035 0.23161 0.0
H1073 H 0.41312 0.47354 0.22263 0.0
H1074 H 0.41623 0.48018 0.24263 0.0
H1075 H 0.40279 0.5255 0.21598 0.0
H1076 H 0.38557 0.5045 0.2302 0.0
H1077 H 0.39177 0.4936 0.21287 0.0
H1078 H 0.34523 0.45284 0.2623 0.0
C1079 C 0.38026 0.48472 0.25746 0.0
Eu1080 Eu 0.49844 0.98874 0.9916 0.0
C1081 C 0.55668 0.07471 0.03804 0.0
C1082 C 0.59967 0.08504 0.03556 0.0
C1083 C 0.58977 0.11629 0.04291 0.0
C1084 C 0.57406 0.06783 0.03469 0.0
C1085 C 0.56432 0.0989 0.04248 0.0
C1086 C 0.60741 0.10938 0.03943 0.0
C1087 C 0.52118 0.08649 0.04671 0.0
N1088 N 0.53226 0.05749 0.0375 0.0
C1089 C 0.51454 0.06274 0.04227 0.0
C1090 C 0.54617 0.10473 0.04665 0.0
Eu1091 Eu 0.52238 0.01796 0.02942 0.0
N1092 N 0.56597 0.04415 0.03103 0.0
C1093 C 0.58253 0.03613 0.02906 0.0
C1094 C 0.61673 0.07717 0.03276 0.0
C1095 C 0.6081 0.05255 0.02966 0.0
H1096 H 0.4952 0.04867 0.04225 0.0
H1097 H 0.62114 0.04621 0.02769 0.0
H1098 H 0.62699 0.1229 0.04004 0.0
H1099 H 0.50705 0.09073 0.05016 0.0
H1100 H 0.57618 0.0172 0.02658 0.0
H1101 H 0.40165 0.96854 0.99581 0.0
H1102 H 0.63655 0.08984 0.03323 0.0
H1103 H 0.51927 0.9539 0.97675 0.0
H1104 H 0.44673 0.9945 0.99562 0.0
H1105 H 0.5033 0.91095 0.96894 0.0
H1106 H 0.59601 0.13502 0.04617 0.0
H1107 H 0.38238 0.92427 0.9908 0.0
H1108 H 0.38763 0.8887 0.98367 0.0
H1109 H 0.55129 0.12312 0.05013 0.0
H1110 H 0.41523 0.87296 0.97634 0.0
N1111 N 0.45403 0.96547 0.99091 0.0
C1112 C 0.4391 0.97537 0.99333 0.0
C1113 C 0.40243 0.93565 0.99067 0.0
C1114 C 0.4176 0.92579 0.98733 0.0
C1115 C 0.41323 0.96062 0.99347 0.0
C1116 C 0.44363 0.94139 0.98741 0.0
H1117 H 0.45833 0.88116 0.97063 0.0
N1118 N 0.48384 0.94818 0.98316 0.0
C1119 C 0.49064 0.91669 0.97308 0.0
C1120 C 0.45906 0.93247 0.98345 0.0
C1121 C 0.4996 0.94095 0.97749 0.0
C1122 C 0.46527 0.89994 0.97408 0.0
C1123 C 0.44906 0.90781 0.97909 0.0
O1124 O 0.51046 0.99027 0.96807 0.0
O1125 O 0.53003 0.01752 1.00485 0.0
O1126 O 0.51865 0.04513 0.01481 0.0
O1127 O 0.48946 0.01883 0.99711 0.0
O1128 O 0.53922 0.00088 0.98808 0.0
O1129 O 0.49444 0.01203 0.97507 0.0
O1130 O 0.50301 0.00857 0.05106 0.0
O1131 O 0.49154 0.98771 0.01633 0.0
O1132 O 0.50763 0.96352 1.00494 0.0
O1133 O 0.53207 0.98826 0.02511 0.0
O1134 O 0.48135 0.0049 0.03229 0.0
O1135 O 0.53594 0.00551 0.0483 0.0
C1136 C 0.54815 0.01788 0.99825 0.0
C1137 C 0.48895 0.99982 0.94945 0.0
C1138 C 0.488 0.00637 0.92224 0.0
C1139 C 0.50148 0.00964 0.93577 0.0
C1140 C 0.46191 0.9929 0.92259 0.0
C1141 C 0.4629 0.98614 0.94944 0.0
C1142 C 0.44951 0.98273 0.93607 0.0
C1143 C 0.50232 0.04046 1.00384 0.0
C1144 C 0.50304 0.00527 0.9638 0.0
C1145 C 0.42325 0.89201 0.9795 0.0
C1146 C 0.40754 0.90098 0.98365 0.0
C1147 C 0.47314 0.98708 0.0227 0.0
C1148 C 0.52664 0.01309 0.07305 0.0
C1149 C 0.51436 0.99812 0.08548 0.0
C1150 C 0.52093 0.00708 0.10044 0.0
C1151 C 0.54024 0.03132 0.10261 0.0
C1152 C 0.54581 0.03709 0.07555 0.0
C1153 C 0.55258 0.04609 0.09027 0.0
C1154 C 0.52248 0.96804 0.01682 0.0
C1155 C 0.51875 0.00352 0.05757 0.0
H1156 H 0.5216 0.02031 0.93573 0.0
H1157 H 0.45108 0.98994 0.91236 0.0
H1158 H 0.4529 0.97841 0.9598 0.0
H1159 H 0.42941 0.97227 0.93617 0.0
H1160 H 0.49975 0.97948 0.08342 0.0
H1161 H 0.54556 0.03914 0.11385 0.0
H1162 H 0.55543 0.04888 0.06615 0.0
H1163 H 0.5673 0.06471 0.09213 0.0
Eu1164 Eu 0.02025 0.51089 0.98594 0.0
C1165 C 0.92757 0.46933 0.02496 0.0
C1166 C 0.9121 0.49742 0.0219 0.0
C1167 C 0.88312 0.45426 0.02571 0.0
C1168 C 0.932 0.49267 0.0224 0.0
C1169 C 0.90314 0.44992 0.02698 0.0
C1170 C 0.8876 0.478 0.02321 0.0
C1171 C 0.92031 0.42402 0.03297 0.0
N1172 N 0.94738 0.46591 0.02636 0.0
C1173 C 0.9442 0.44394 0.03105 0.0
C1174 C 0.89965 0.42693 0.03072 0.0
Eu1175 Eu 0.98729 0.50017 0.02197 0.0
N1176 N 0.95589 0.51102 0.02146 0.0
C1177 C 0.9613 0.53475 0.02115 0.0
C1178 C 0.91748 0.52163 0.02066 0.0
C1179 C 0.94222 0.5404 0.02056 0.0
H1180 H 0.96013 0.44162 0.03277 0.0
H1181 H 0.94661 0.55923 0.01992 0.0
H1182 H 0.87205 0.48123 0.0227 0.0
H1183 H 0.91784 0.40646 0.03621 0.0
H1184 H 0.98035 0.54939 0.02097 0.0
H1185 H 0.98825 0.44203 0.94113 0.0
H1186 H 0.90274 0.52605 0.0202 0.0
H1187 H 0.07697 0.54037 1.00195 0.0
H1188 H 0.98927 0.47544 0.95641 0.0
H1189 H 0.11362 0.53532 1.00503 0.0
H1190 H 0.86418 0.43955 0.02708 0.0
H1191 H 0.0192 0.429 0.946 0.0
H1192 H 0.05809 0.43649 0.95965 0.0
H1193 H 0.88117 0.41152 0.03233 0.0
H1194 H 0.09263 0.46234 0.97693 0.0
N1195 N 0.01884 0.4795 0.97054 0.0
C1196 C 1.00235 0.46934 0.95879 0.0
C1197 C 0.01938 0.44331 0.95288 0.0
C1198 C 0.03779 0.45556 0.96392 0.0
C1199 C 1.00189 0.45061 0.95008 0.0
C1200 C 0.03718 0.47405 0.97255 0.0
H1201 H 0.11396 0.49984 0.99345 0.0
N1202 N 0.0563 0.50756 0.98923 0.0
C1203 C 0.09764 0.52195 0.99865 0.0
C1204 C 0.05657 0.48859 0.98222 0.0
C1205 C 0.0768 0.52474 0.99688 0.0
C1206 C 0.09769 0.50181 0.99218 0.0
C1207 C 0.07718 0.48503 0.98361 0.0
O1208 O 0.05157 0.53946 0.97342 0.0
O1209 O 0.99316 0.51718 0.99919 0.0
O1210 O 0.96392 0.46893 1.00557 0.0
O1211 O 0.99303 0.47029 0.98833 0.0
O1212 O 0.98284 0.50343 0.97734 0.0
O1213 O 0.01425 0.52706 0.96573 0.0
O1214 O 0.99584 0.4907 0.04416 0.0
O1215 O 0.02192 0.50541 0.01075 0.0
O1216 O 0.04052 0.54554 0.99987 0.0
O1217 O 0.01506 0.54087 0.02044 0.0
O1218 O 0.0032 0.47502 0.02414 0.0
O1219 O 0.99256 0.52278 0.04194 0.0
C1220 C 0.97629 0.51069 0.98919 0.0
C1221 C 0.04512 0.53874 0.94684 0.0
C1222 C 0.03459 0.52672 0.92023 0.0
C1223 C 0.02724 0.52703 0.93524 0.0
C1224 C 0.06009 0.53814 0.91698 0.0
C1225 C 0.07044 0.55009 0.94321 0.0
C1226 C 0.07782 0.54968 0.92839 0.0
C1227 C 0.97078 0.45928 0.99461 0.0
C1228 C 0.03768 0.54003 0.96256 0.0
C1229 C 0.07712 0.46557 0.97585 0.0
C1230 C 0.05743 0.45083 0.96603 0.0
C1231 C 0.02291 0.48745 0.01625 0.0
C1232 C 0.98063 0.50214 0.0652 0.0
C1233 C 0.99198 0.50452 0.07942 0.0
C1234 C 0.97755 0.49755 0.09266 0.0
C1235 C 0.95184 0.4886 0.09147 0.0
C1236 C 0.95496 0.49328 0.06434 0.0
C1237 C 0.94069 0.48662 0.07742 0.0
C1238 C 0.03475 0.55401 0.01194 0.0
C1239 C 0.99544 0.50853 0.05127 0.0
H1240 H 0.00763 0.51854 0.93781 0.0
H1241 H 0.06635 0.53791 0.90561 0.0
H1242 H 0.08458 0.55939 0.95183 0.0
H1243 H 0.09739 0.5584 0.92574 0.0
H1244 H 0.01178 0.5112 0.08016 0.0
H1245 H 0.94034 0.48321 0.10146 0.0
H1246 H 0.94593 0.49152 0.05358 0.0
H1247 H 0.92089 0.47977 0.07665 0.0
Eu1248 Eu 0.50966 0.48915 0.02238 0.0
C1249 C 0.46161 0.53943 0.98475 0.0
C1250 C 0.41752 0.51029 0.98527 0.0
C1251 C 0.43179 0.55366 0.98353 0.0
C1252 C 0.44244 0.5156 0.98564 0.0
C1253 C 0.45654 0.55874 0.98343 0.0
C1254 C 0.41231 0.52947 0.98445 0.0
C1255 C 0.50068 0.58644 0.98109 0.0
N1256 N 0.48526 0.54367 0.98468 0.0
C1257 C 0.50473 0.56665 0.98233 0.0
C1258 C 0.47649 0.58251 0.9818 0.0
Eu1259 Eu 0.49089 0.50958 0.98784 0.0
N1260 N 0.44814 0.49754 0.98654 0.0
C1261 C 0.42978 0.47363 0.98607 0.0
C1262 C 0.3986 0.48584 0.98557 0.0
C1263 C 0.40477 0.46743 0.9858 0.0
H1264 H 0.52348 0.56977 0.98188 0.0
H1265 H 0.39029 0.44846 0.98584 0.0
H1266 H 0.39329 0.52577 0.98429 0.0
H1267 H 0.51621 0.6047 0.97962 0.0
H1268 H 0.43425 0.4592 0.98634 0.0
H1269 H 0.61075 0.54476 0.02744 0.0
H1270 H 0.37922 0.481 0.98538 0.0
H1271 H 0.47379 0.43002 0.03061 0.0
H1272 H 0.56778 0.53687 0.02593 0.0
H1273 H 0.47789 0.39358 0.03467 0.0
H1274 H 0.42751 0.56826 0.98265 0.0
H1275 H 0.61888 0.51025 0.02771 0.0
H1276 H 0.60182 0.46492 0.02873 0.0
H1277 H 0.47339 0.59786 0.98081 0.0
H1278 H 0.56555 0.42363 0.03079 0.0
N1279 N 0.55157 0.49831 0.02457 0.0
C1280 C 0.57096 0.52162 0.02595 0.0
C1281 C 0.59994 0.50668 0.02695 0.0
C1282 C 0.57988 0.48278 0.02669 0.0
C1283 C 0.59542 0.52619 0.02684 0.0
C1284 C 0.55559 0.47917 0.02561 0.0
H1285 H 0.51927 0.39691 0.03341 0.0
N1286 N 0.51236 0.45362 0.0268 0.0
C1287 C 0.4942 0.41102 0.03241 0.0
C1288 C 0.5353 0.45605 0.02681 0.0
C1289 C 0.49195 0.43172 0.03011 0.0
C1290 C 0.51757 0.41296 0.03162 0.0
C1291 C 0.53856 0.43575 0.02906 0.0
O1292 O 0.48916 0.4776 0.04357 0.0
O1293 O 0.48139 0.49599 0.01135 0.0
O1294 O 0.49955 0.53764 1.00639 0.0
O1295 O 0.5261 0.53044 0.02155 0.0
O1296 O 0.46771 0.46485 0.02401 0.0
O1297 O 0.52454 0.51116 0.04295 0.0
O1298 O 0.50968 0.52317 0.96623 0.0
O1299 O 0.51982 0.50363 0.99888 0.0
O1300 O 0.50267 0.46131 1.00407 0.0
O1301 O 0.47733 0.46867 0.9878 0.0
O1302 O 0.53237 0.53447 0.98557 0.0
O1303 O 0.47637 0.48776 0.96727 0.0
C1304 C 0.46159 0.47827 0.01625 0.0
C1305 C 0.51152 0.49125 0.06654 0.0
C1306 C 0.50757 0.49406 0.09389 0.0
C1307 C 0.50236 0.49806 0.07899 0.0
C1308 C 0.52183 0.4826 0.09601 0.0
C1309 C 0.52565 0.47988 0.06887 0.0
C1310 C 0.53069 0.47552 0.08358 0.0
C1311 C 0.51671 0.54422 0.01713 0.0
C1312 C 0.50588 0.4962 0.05127 0.0
C1313 C 0.56266 0.43903 0.02926 0.0
C1314 C 0.5833 0.46253 0.02808 0.0
C1315 C 0.53908 0.52194 0.99377 0.0
C1316 C 0.48567 0.50802 0.9438 0.0
C1317 C 0.49484 0.50279 0.93066 0.0
C1318 C 0.48743 0.50619 0.91621 0.0
C1319 C 0.4705 0.51482 0.91522 0.0
C1320 C 0.46889 0.51664 0.94256 0.0
C1321 C 0.46135 0.51998 0.9283 0.0
C1322 C 0.48735 0.4555 0.99235 0.0
C1323 C 0.49363 0.50395 0.95864 0.0
H1324 H 0.49103 0.50641 0.077 0.0
H1325 H 0.52659 0.47953 0.10725 0.0
H1326 H 0.53277 0.47443 0.05937 0.0
H1327 H 0.54172 0.46682 0.08536 0.0
H1328 H 0.50755 0.4958 0.93174 0.0
H1329 H 0.46464 0.51799 0.90433 0.0
H1330 H 0.46162 0.5207 0.95257 0.0
H1331 H 0.44842 0.5267 0.92738 0.0
Eu1332 Eu 0.15634 0.3201 0.32209 0.0
C1333 C 0.21037 0.40996 0.36681 0.0
C1334 C 0.25376 0.42258 0.36339 0.0
C1335 C 0.24194 0.45246 0.37074 0.0
C1336 C 0.22847 0.40432 0.36312 0.0
C1337 C 0.2169 0.43394 0.3711 0.0
C1338 C 0.26035 0.44679 0.36685 0.0
C1339 C 0.17383 0.41897 0.37726 0.0
N1340 N 0.18646 0.39161 0.36716 0.0
C1341 C 0.16836 0.39549 0.37295 0.0
C1342 C 0.19816 0.43838 0.37611 0.0
Eu1343 Eu 0.17804 0.35249 0.35908 0.0
N1344 N 0.22143 0.38071 0.36002 0.0
C1345 C 0.23892 0.37381 0.35828 0.0
C1346 C 0.27169 0.41584 0.3606 0.0
C1347 C 0.26423 0.39128 0.35825 0.0
H1348 H 0.14953 0.3805 0.37387 0.0
H1349 H 0.27796 0.38578 0.35639 0.0
H1350 H 0.27965 0.46112 0.36697 0.0
H1351 H 0.1593 0.42208 0.38148 0.0
H1352 H 0.23353 0.35494 0.35642 0.0
H1353 H 0.05724 0.29064 0.32192 0.0
H1354 H 0.2913 0.42933 0.36062 0.0
H1355 H 0.18467 0.28898 0.3124 0.0
H1356 H 0.10206 0.32018 0.32321 0.0
H1357 H 0.17363 0.24646 0.30633 0.0
H1358 H 0.24731 0.47106 0.37383 0.0
H1359 H 0.04256 0.24677 0.31784 0.0
H1360 H 0.0529 0.21367 0.31295 0.0
H1361 H 0.20239 0.45655 0.37952 0.0
H1362 H 0.08448 0.20166 0.30867 0.0
N1363 N 0.11289 0.29335 0.32029 0.0
C1364 C 0.09603 0.30115 0.32138 0.0
C1365 C 0.06232 0.25968 0.31839 0.0
C1366 C 0.07971 0.25196 0.31655 0.0
C1367 C 0.07053 0.28443 0.32067 0.0
C1368 C 0.10521 0.26949 0.31749 0.0
H1369 H 0.12951 0.21376 0.30605 0.0
N1370 N 0.14726 0.28013 0.31581 0.0
C1371 C 0.1592 0.25075 0.30885 0.0
C1372 C 0.12294 0.26268 0.31518 0.0
C1373 C 0.16539 0.27476 0.31224 0.0
C1374 C 0.13427 0.23235 0.30873 0.0
C1375 C 0.11575 0.23823 0.31175 0.0
O1376 O 0.17498 0.32614 0.3003 0.0
O1377 O 0.18627 0.35195 0.33456 0.0
O1378 O 0.16883 0.37645 0.34475 0.0
O1379 O 0.14595 0.34995 0.32472 0.0
O1380 O 0.19762 0.33411 0.31983 0.0
O1381 O 0.14373 0.33214 0.30256 0.0
O1382 O 0.15821 0.34098 0.38051 0.0
O1383 O 0.14766 0.32141 0.34634 0.0
O1384 O 0.16057 0.29496 0.33859 0.0
O1385 O 0.19016 0.32435 0.3547 0.0
O1386 O 0.13678 0.33862 0.36177 0.0
O1387 O 0.19319 0.34189 0.37811 0.0
C1388 C 0.20514 0.35281 0.32866 0.0
C1389 C 0.15145 0.32175 0.27819 0.0
C1390 C 0.15412 0.3268 0.25065 0.0
C1391 C 0.16222 0.33636 0.26537 0.0
C1392 C 0.13506 0.30232 0.2491 0.0
C1393 C 0.13251 0.29748 0.2763 0.0
C1394 C 0.12439 0.28786 0.26182 0.0
C1395 C 0.15427 0.37054 0.33263 0.0
C1396 C 0.16018 0.33212 0.29343 0.0
C1397 C 0.09038 0.22058 0.31119 0.0
C1398 C 0.0724 0.22742 0.31361 0.0
C1399 C 0.12883 0.3207 0.35226 0.0
C1400 C 0.18198 0.34779 0.40267 0.0
C1401 C 0.17349 0.33175 0.415 0.0
C1402 C 0.17904 0.34078 0.42996 0.0
C1403 C 0.19328 0.36618 0.4323 0.0
C1404 C 0.19624 0.37299 0.40528 0.0
C1405 C 0.20182 0.38209 0.42004 0.0
C1406 C 0.17706 0.30161 0.34971 0.0
C1407 C 0.17514 0.33795 0.3872 0.0
H1408 H 0.17668 0.35521 0.2669 0.0
H1409 H 0.12863 0.29414 0.23803 0.0
H1410 H 0.12402 0.28599 0.28601 0.0
H1411 H 0.10982 0.26905 0.26044 0.0
H1412 H 0.16225 0.31228 0.41292 0.0
H1413 H 0.19819 0.37374 0.44362 0.0
H1414 H 0.20297 0.38559 0.39594 0.0
H1415 H 0.21287 0.40158 0.422 0.0
Eu1416 Eu 0.68996 0.84523 0.32252 0.0
C1417 C 0.59587 0.81244 0.35885 0.0
C1418 C 0.59596 0.85064 0.36137 0.0
C1419 C 0.55675 0.81237 0.36044 0.0
C1420 C 0.60879 0.8376 0.35983 0.0
C1421 C 0.5697 0.79948 0.35953 0.0
C1422 C 0.56986 0.83792 0.36135 0.0
C1423 C 0.57125 0.76206 0.36015 0.0
N1424 N 0.60896 0.80058 0.35817 0.0
C1425 C 0.59717 0.77575 0.35956 0.0
C1426 C 0.5574 0.77395 0.35985 0.0
Eu1427 Eu 0.65283 0.82497 0.35726 0.0
N1428 N 0.63398 0.84931 0.35986 0.0
C1429 C 0.64753 0.8739 0.36228 0.0
C1430 C 0.60975 0.876 0.36325 0.0
C1431 C 0.63565 0.88763 0.36393 0.0
H1432 H 0.60789 0.76653 0.35987 0.0
H1433 H 0.64649 0.90719 0.36562 0.0
H1434 H 0.55966 0.84763 0.36235 0.0
H1435 H 0.56199 0.74238 0.36093 0.0
H1436 H 0.66752 0.88307 0.36277 0.0
H1437 H 0.73293 0.78829 0.31863 0.0
H1438 H 0.60059 0.88668 0.36446 0.0
H1439 H 0.71774 0.90568 0.31441 0.0
H1440 H 0.69859 0.79722 0.3179 0.0
H1441 H 0.7601 0.94137 0.31363 0.0
H1442 H 0.53663 0.80276 0.36081 0.0
H1443 H 0.77603 0.8217 0.32291 0.0
H1444 H 0.80581 0.86661 0.32531 0.0
H1445 H 0.53732 0.76332 0.3604 0.0
H1446 H 0.81319 0.90853 0.32435 0.0
N1447 N 0.72173 0.83505 0.32271 0.0
C1448 C 0.71726 0.81194 0.31993 0.0
C1449 C 0.76098 0.82569 0.32276 0.0
C1450 C 0.76569 0.84969 0.32419 0.0
C1451 C 0.7367 0.8068 0.32028 0.0
C1452 C 0.74541 0.85392 0.324 0.0
H1453 H 0.79634 0.93657 0.31964 0.0
N1454 N 0.72984 0.88102 0.32134 0.0
C1455 C 0.75741 0.92364 0.31661 0.0
C1456 C 0.74959 0.87762 0.32339 0.0
C1457 C 0.7335 0.90337 0.31695 0.0
C1458 C 0.77779 0.92084 0.32006 0.0
C1459 C 0.77413 0.89754 0.32298 0.0
O1460 O 0.68938 0.86354 0.30179 0.0
O1461 O 0.66165 0.84847 0.3369 0.0
O1462 O 0.6315 0.79802 0.33811 0.0
O1463 O 0.66339 0.80438 0.32161 0.0
O1464 O 0.65492 0.84372 0.31403 0.0
O1465 O 0.68941 0.82921 0.3005 0.0
O1466 O 0.64684 0.80242 0.37719 0.0
O1467 O 0.68592 0.82802 0.34538 0.0
O1468 O 0.70599 0.87743 0.33896 0.0
O1469 O 0.69003 0.8587 0.36199 0.0
O1470 O 0.6629 0.7953 0.35621 0.0
O1471 O 0.66417 0.84157 0.37972 0.0
C1472 C 0.64624 0.8458 0.32665 0.0
C1473 C 0.70659 0.85619 0.27987 0.0
C1474 C 0.7125 0.85714 0.25253 0.0
C1475 C 0.69674 0.84912 0.26517 0.0
C1476 C 0.73815 0.87282 0.25484 0.0
C1477 C 0.73226 0.87146 0.28186 0.0
C1478 C 0.7479 0.87988 0.2694 0.0
C1479 C 0.64034 0.79126 0.32658 0.0
C1480 C 0.68988 0.84717 0.29295 0.0
C1481 C 0.79425 0.89342 0.32443 0.0
C1482 C 0.79005 0.86954 0.32495 0.0
C1483 C 0.68346 0.80754 0.34896 0.0
C1484 C 0.64417 0.81794 0.40123 0.0
C1485 C 0.65913 0.82768 0.4142 0.0
C1486 C 0.64844 0.82494 0.42857 0.0
C1487 C 0.62239 0.8121 0.42973 0.0
C1488 C 0.61824 0.80545 0.40258 0.0
C1489 C 0.60745 0.80252 0.4168 0.0
C1490 C 0.70626 0.87726 0.35388 0.0
C1491 C 0.65634 0.82087 0.38656 0.0
H1492 H 0.67695 0.83689 0.26362 0.0
H1493 H 0.75073 0.8796 0.24536 0.0
H1494 H 0.74031 0.87682 0.29299 0.0
H1495 H 0.76768 0.89179 0.27104 0.0
H1496 H 0.67918 0.83717 0.41309 0.0
H1497 H 0.61355 0.80986 0.44058 0.0
H1498 H 0.6064 0.79792 0.39269 0.0
H1499 H 0.58742 0.79284 0.41782 0.0
Eu1500 Eu 0.17575 0.83455 0.35973 0.0
C1501 C 0.11395 0.85398 0.3218 0.0
C1502 C 0.07625 0.81461 0.3211 0.0
C1503 C 0.07358 0.85149 0.32324 0.0
C1504 C 0.10246 0.82887 0.32111 0.0
C1505 C 0.09955 0.8656 0.32234 0.0
C1506 C 0.06193 0.82601 0.32265 0.0
C1507 C 0.13704 0.90398 0.31853 0.0
N1508 N 0.13908 0.86705 0.32072 0.0
C1509 C 0.15036 0.89157 0.31779 0.0
C1510 C 0.11157 0.891 0.32123 0.0
Eu1511 Eu 0.16079 0.84452 0.32139 0.0
N1512 N 0.11685 0.81838 0.31987 0.0
C1513 C 0.10603 0.79399 0.31671 0.0
C1514 C 0.0652 0.78935 0.31918 0.0
C1515 C 0.08019 0.77907 0.31664 0.0
H1516 H 0.1698 0.90178 0.31486 0.0
H1517 H 0.07185 0.75969 0.31445 0.0
H1518 H 0.04183 0.81534 0.32294 0.0
H1519 H 0.14636 0.92349 0.31676 0.0
H1520 H 0.11705 0.78583 0.31383 0.0
H1521 H 0.26688 0.91708 0.37085 0.0
H1522 H 0.04518 0.77777 0.3191 0.0
H1523 H 0.16399 0.77612 0.36329 0.0
H1524 H 0.22185 0.8927 0.37141 0.0
H1525 H 0.18614 0.75334 0.36092 0.0
H1526 H 0.06228 0.86012 0.32386 0.0
H1527 H 0.29205 0.89795 0.36466 0.0
H1528 H 0.29365 0.85987 0.35959 0.0
H1529 H 0.1012 0.9006 0.32162 0.0
H1530 H 0.27171 0.81516 0.35729 0.0
N1531 N 0.22005 0.85978 0.36331 0.0
C1532 C 0.23189 0.88387 0.36767 0.0
C1533 C 0.27195 0.88705 0.36444 0.0
C1534 C 0.25998 0.86194 0.36172 0.0
C1535 C 0.25782 0.89791 0.36784 0.0
C1536 C 0.2337 0.84856 0.36146 0.0
H1537 H 0.23177 0.77534 0.35798 0.0
N1538 N 0.19623 0.81108 0.36021 0.0
C1539 C 0.19632 0.77307 0.36037 0.0
C1540 C 0.22141 0.82347 0.35998 0.0
C1541 C 0.18375 0.78618 0.3614 0.0
C1542 C 0.22204 0.78553 0.35877 0.0
C1543 C 0.235 0.81103 0.35894 0.0
O1544 O 0.15387 0.80694 0.37671 0.0
O1545 O 0.14466 0.82952 0.34408 0.0
O1546 O 0.18109 0.88163 0.33295 0.0
O1547 O 0.18561 0.87411 0.35822 0.0
O1548 O 0.14911 0.84835 0.36404 0.0
O1549 O 0.17879 0.84426 0.38363 0.0
O1550 O 0.16231 0.82572 0.30082 0.0
O1551 O 0.18805 0.84003 0.33566 0.0
O1552 O 0.15085 0.79797 0.34781 0.0
O1553 O 0.15949 0.8081 0.32254 0.0
O1554 O 0.20251 0.86982 0.32159 0.0
O1555 O 0.1654 0.86093 0.29911 0.0
C1556 C 0.13497 0.83882 0.35238 0.0
C1557 C 0.16713 0.81448 0.40268 0.0
C1558 C 0.16697 0.81767 0.43032 0.0
C1559 C 0.16257 0.82409 0.41586 0.0
C1560 C 0.17564 0.80097 0.4313 0.0
C1561 C 0.17591 0.798 0.40392 0.0
C1562 C 0.18002 0.79123 0.41819 0.0
C1563 C 0.18747 0.88878 0.34711 0.0
C1564 C 0.1626 0.8224 0.38796 0.0
C1565 C 0.26104 0.82437 0.35839 0.0
C1566 C 0.27351 0.84981 0.3597 0.0
C1567 C 0.20812 0.85731 0.33064 0.0
C1568 C 0.1866 0.85103 0.28082 0.0
C1569 C 0.18107 0.84106 0.26613 0.0
C1570 C 0.19978 0.849 0.25506 0.0
C1571 C 0.22422 0.86677 0.2591 0.0
C1572 C 0.21112 0.86876 0.28449 0.0
C1573 C 0.22979 0.87642 0.27372 0.0
C1574 C 0.15172 0.79194 0.33354 0.0
C1575 C 0.16642 0.84355 0.29189 0.0
H1576 H 0.15546 0.83657 0.41478 0.0
H1577 H 0.17956 0.7958 0.44217 0.0
H1578 H 0.17963 0.79047 0.39393 0.0
H1579 H 0.18687 0.77855 0.41911 0.0
H1580 H 0.16215 0.82726 0.26336 0.0
H1581 H 0.23901 0.87377 0.25088 0.0
H1582 H 0.21591 0.87712 0.29555 0.0
H1583 H 0.24858 0.89031 0.27662 0.0
Eu1584 Eu 0.82175 0.64838 0.65536 0.0
C1585 C 0.88709 0.73762 0.69815 0.0
C1586 C 0.92899 0.74443 0.69664 0.0
C1587 C 0.9223 0.77858 0.70151 0.0
C1588 C 0.90305 0.72867 0.69578 0.0
C1589 C 0.8965 0.76261 0.7013 0.0
C1590 C 0.93852 0.76949 0.69923 0.0
C1591 C 0.85426 0.75379 0.70496 0.0
N1592 N 0.86232 0.72167 0.69807 0.0
C1593 C 0.84586 0.72915 0.70189 0.0
C1594 C 0.87968 0.77065 0.70451 0.0
Eu1595 Eu 0.84932 0.68058 0.69188 0.0
N1596 N 0.89321 0.70433 0.69349 0.0
C1597 C 0.90824 0.69429 0.69324 0.0
C1598 C 0.94454 0.73441 0.69534 0.0
C1599 C 0.93409 0.70918 0.69388 0.0
H1600 H 0.82617 0.71617 0.70211 0.0
H1601 H 0.94592 0.70117 0.69323 0.0
H1602 H 0.95839 0.78192 0.69978 0.0
H1603 H 0.84113 0.75975 0.70766 0.0
H1604 H 0.90047 0.67483 0.69215 0.0
H1605 H 0.72525 0.62773 0.65935 0.0
H1606 H 0.96456 0.74591 0.69587 0.0
H1607 H 0.84356 0.61289 0.64256 0.0
H1608 H 0.77065 0.65396 0.65898 0.0
H1609 H 0.82795 0.56965 0.63584 0.0
H1610 H 0.9299 0.79788 0.70378 0.0
H1611 H 0.70618 0.58326 0.65505 0.0
H1612 H 0.71173 0.54747 0.64879 0.0
H1613 H 0.88616 0.78971 0.70696 0.0
H1614 H 0.73965 0.53165 0.64237 0.0
N1615 N 0.77766 0.6247 0.6549 0.0
C1616 C 0.76277 0.63465 0.65703 0.0
C1617 C 0.72621 0.59472 0.65486 0.0
C1618 C 0.74149 0.58481 0.65189 0.0
C1619 C 0.73691 0.61981 0.65726 0.0
C1620 C 0.76748 0.60052 0.65189 0.0
H1621 H 0.78297 0.53982 0.63735 0.0
N1622 N 0.80788 0.60745 0.6481 0.0
C1623 C 0.81513 0.57555 0.63942 0.0
C1624 C 0.7831 0.5916 0.6484 0.0
C1625 C 0.8239 0.60002 0.6432 0.0
C1626 C 0.78974 0.55876 0.64031 0.0
C1627 C 0.77332 0.56675 0.64466 0.0
O1628 O 0.83931 0.65555 0.63318 0.0
O1629 O 0.85549 0.67731 0.66736 0.0
O1630 O 0.84765 0.70727 0.67547 0.0
O1631 O 0.81487 0.67999 0.66015 0.0
O1632 O 0.86106 0.65638 0.65146 0.0
O1633 O 0.8096 0.66325 0.63707 0.0
O1634 O 0.83565 0.67892 0.71496 0.0
O1635 O 0.81633 0.65155 0.67988 0.0
O1636 O 0.82594 0.62199 0.67063 0.0
O1637 O 0.85636 0.64881 0.68773 0.0
O1638 O 0.80893 0.67008 0.69615 0.0
O1639 O 0.85756 0.66191 0.70962 0.0
C1640 C 0.87185 0.67417 0.66099 0.0
C1641 C 0.81492 0.65329 0.61209 0.0
C1642 C 0.81698 0.65906 0.58466 0.0
C1643 C 0.82576 0.66803 0.59937 0.0
C1644 C 0.79696 0.63505 0.583 0.0
C1645 C 0.79499 0.62949 0.61014 0.0
C1646 C 0.78606 0.62048 0.59566 0.0
C1647 C 0.83014 0.70236 0.6652 0.0
C1648 C 0.82496 0.66288 0.62724 0.0
C1649 C 0.74752 0.55084 0.64509 0.0
C1650 C 0.73163 0.55985 0.64872 0.0
C1651 C 0.79889 0.6521 0.68669 0.0
C1652 C 0.85815 0.67363 0.73514 0.0
C1653 C 0.84395 0.66335 0.74824 0.0
C1654 C 0.85555 0.6675 0.76255 0.0
C1655 C 0.8815 0.68233 0.76356 0.0
C1656 C 0.88399 0.68871 0.73649 0.0
C1657 C 0.89554 0.69301 0.75064 0.0
C1658 C 0.8425 0.62682 0.68156 0.0
C1659 C 0.846 0.6668 0.72014 0.0
H1660 H 0.84096 0.68652 0.60101 0.0
H1661 H 0.78996 0.62728 0.57192 0.0
H1662 H 0.78645 0.61789 0.6198 0.0
H1663 H 0.77076 0.60203 0.59421 0.0
H1664 H 0.82399 0.65158 0.74725 0.0
H1665 H 0.89088 0.68596 0.77441 0.0
H1666 H 0.89527 0.69682 0.72659 0.0
H1667 H 0.91551 0.70454 0.75158 0.0
Eu1668 Eu 0.35007 0.16624 0.65332 0.0
C1669 C 0.26484 0.14429 0.69315 0.0
C1670 C 0.26187 0.18072 0.68985 0.0
C1671 C 0.22441 0.1417 0.69357 0.0
C1672 C 0.27616 0.16902 0.69055 0.0
C1673 C 0.23889 0.13046 0.69518 0.0
C1674 C 0.23591 0.16683 0.69097 0.0
C1675 C 0.24392 0.09648 0.70258 0.0
N1676 N 0.27945 0.1342 0.69504 0.0
C1677 C 0.26957 0.1111 0.70069 0.0
C1678 C 0.22842 0.10605 0.69952 0.0
Eu1679 Eu 0.32283 0.15962 0.69073 0.0
N1680 N 0.30131 0.18192 0.68971 0.0
C1681 C 0.3134 0.20684 0.6893 0.0
C1682 C 0.27416 0.20612 0.68861 0.0
C1683 C 0.30007 0.21927 0.68863 0.0
H1684 H 0.28154 0.10374 0.70332 0.0
H1685 H 0.30981 0.23899 0.68803 0.0
H1686 H 0.22463 0.17546 0.69029 0.0
H1687 H 0.23616 0.07793 0.70653 0.0
H1688 H 0.33334 0.2174 0.68934 0.0
H1689 H 0.32111 0.09414 0.6108 0.0
H1690 H 0.26387 0.21579 0.68805 0.0
H1691 H 0.40684 0.20028 0.66864 0.0
H1692 H 0.31913 0.12662 0.62544 0.0
H1693 H 0.4456 0.19896 0.67188 0.0
H1694 H 0.20442 0.13132 0.6949 0.0
H1695 H 0.35525 0.08549 0.61559 0.0
H1696 H 0.39584 0.09745 0.6287 0.0
H1697 H 0.20858 0.09481 0.70117 0.0
H1698 H 0.43006 0.12639 0.64516 0.0
N1699 N 0.3509 0.13503 0.63888 0.0
C1700 C 0.3339 0.12267 0.62766 0.0
C1701 C 0.35429 0.09952 0.62213 0.0
C1702 C 0.37286 0.11379 0.63268 0.0
C1703 C 0.33499 0.10435 0.61938 0.0
C1704 C 0.37076 0.13187 0.64085 0.0
H1705 H 0.44899 0.16458 0.66111 0.0
N1706 N 0.3881 0.16659 0.65661 0.0
C1707 C 0.43007 0.1845 0.66575 0.0
C1708 C 0.39 0.14819 0.65003 0.0
C1709 C 0.40804 0.18517 0.6639 0.0
C1710 C 0.43187 0.165 0.65972 0.0
C1711 C 0.41189 0.14679 0.65146 0.0
O1712 O 0.37822 0.19558 0.63955 0.0
O1713 O 0.3242 0.17319 0.66735 0.0
O1714 O 0.30033 0.12394 0.67767 0.0
O1715 O 0.32401 0.12564 0.65667 0.0
O1716 O 0.31039 0.15443 0.64708 0.0
O1717 O 0.34022 0.17644 0.63187 0.0
O1718 O 0.32165 0.14456 0.71317 0.0
O1719 O 0.35517 0.16243 0.67801 0.0
O1720 O 0.36878 0.20369 0.66463 0.0
O1721 O 0.35739 0.197 0.68997 0.0
O1722 O 0.33753 0.13345 0.69258 0.0
O1723 O 0.33738 0.18331 0.71056 0.0
C1724 C 0.30553 0.164 0.65852 0.0
C1725 C 0.37126 0.19047 0.61292 0.0
C1726 C 0.36192 0.17955 0.5861 0.0
C1727 C 0.35392 0.17982 0.60095 0.0
C1728 C 0.38748 0.18991 0.58338 0.0
C1729 C 0.39671 0.20072 0.60982 0.0
C1730 C 0.40469 0.20032 0.59517 0.0
C1731 C 0.30492 0.11391 0.66585 0.0
C1732 C 0.36303 0.19203 0.62839 0.0
C1733 C 0.41349 0.1279 0.6441 0.0
C1734 C 0.39399 0.1114 0.63473 0.0
C1735 C 0.35632 0.14469 0.68376 0.0
C1736 C 0.31785 0.16644 0.73364 0.0
C1737 C 0.3257 0.16301 0.74785 0.0
C1738 C 0.31473 0.16554 0.76106 0.0
C1739 C 0.2956 0.17118 0.75995 0.0
C1740 C 0.29844 0.1717 0.73267 0.0
C1741 C 0.28735 0.17401 0.74579 0.0
C1742 C 0.37066 0.21126 0.67879 0.0
C1743 C 0.33079 0.16551 0.72003 0.0
H1744 H 0.33426 0.17218 0.60309 0.0
H1745 H 0.39417 0.18972 0.57212 0.0
H1746 H 0.41053 0.20922 0.61871 0.0
H1747 H 0.42433 0.20822 0.59293 0.0
H1748 H 0.34078 0.15906 0.74865 0.0
H1749 H 0.28702 0.1733 0.77004 0.0
H1750 H 0.29212 0.17437 0.72182 0.0
H1751 H 0.27252 0.17825 0.745 0.0
Eu1752 Eu 0.85071 0.16584 0.69413 0.0
C1753 C 0.78882 0.19164 0.65704 0.0
C1754 C 0.74806 0.15546 0.65549 0.0
C1755 C 0.75162 0.19525 0.6585 0.0
C1756 C 0.77424 0.16649 0.65583 0.0
C1757 C 0.77757 0.20631 0.65762 0.0
C1758 C 0.73689 0.16985 0.65746 0.0
C1759 C 0.81792 0.24158 0.65359 0.0
N1760 N 0.81384 0.20187 0.65604 0.0
C1761 C 0.82814 0.2263 0.65302 0.0
C1762 C 0.79262 0.23163 0.65638 0.0
Eu1763 Eu 0.8296 0.1743 0.65706 0.0
N1764 N 0.78556 0.15302 0.65376 0.0
C1765 C 0.77176 0.12905 0.64947 0.0
C1766 C 0.73387 0.13043 0.6525 0.0
C1767 C 0.74581 0.11732 0.64909 0.0
H1768 H 0.84787 0.23426 0.65112 0.0
H1769 H 0.73504 0.09819 0.64603 0.0
H1770 H 0.71684 0.1616 0.65753 0.0
H1771 H 0.82959 0.26103 0.65194 0.0
H1772 H 0.7804 0.11875 0.64605 0.0
H1773 H 0.94724 0.18747 0.69155 0.0
H1774 H 0.71376 0.12131 0.65215 0.0
H1775 H 0.80072 0.11614 0.70644 0.0
H1776 H 0.91219 0.1956 0.68986 0.0
H1777 H 0.78945 0.07538 0.71663 0.0
H1778 H 0.74272 0.20622 0.65929 0.0
H1779 H 0.93956 0.14687 0.69968 0.0
H1780 H 0.9093 0.10482 0.70918 0.0
H1781 H 0.78469 0.24349 0.65676 0.0
H1782 H 0.86656 0.07459 0.71642 0.0
N1783 N 0.88503 0.15947 0.69556 0.0
C1784 C 0.90869 0.17763 0.69288 0.0
C1785 C 0.92414 0.15025 0.69869 0.0
C1786 C 0.89998 0.13222 0.70244 0.0
C1787 C 0.92855 0.17318 0.69407 0.0
C1788 C 0.88061 0.13756 0.70086 0.0
H1789 H 0.82171 0.06348 0.71931 0.0
N1790 N 0.83855 0.12651 0.7033 0.0
C1791 C 0.80841 0.08793 0.71338 0.0
C1792 C 0.85669 0.12068 0.70514 0.0
C1793 C 0.81475 0.11088 0.70763 0.0
C1794 C 0.8267 0.08129 0.7149 0.0
C1795 C 0.85123 0.09779 0.7108 0.0
O1796 O 0.83828 0.16744 0.71695 0.0
O1797 O 0.81749 0.15829 0.67978 0.0
O1798 O 0.84302 0.20743 0.67333 0.0
O1799 O 0.87341 0.20473 0.68638 0.0
O1800 O 0.81738 0.16877 0.7016 0.0
O1801 O 0.87702 0.19056 0.7111 0.0
O1802 O 0.8558 0.19921 0.64061 0.0
O1803 O 0.86289 0.18062 0.6709 0.0
O1804 O 0.83884 0.13137 0.68031 0.0
O1805 O 0.81759 0.13373 0.65895 0.0
O1806 O 0.85789 0.16349 0.65022 0.0
O1807 O 0.82222 0.16676 0.6327 0.0
C1808 C 0.80538 0.16324 0.68909 0.0
C1809 C 0.86778 0.1754 0.73624 0.0
C1810 C 0.86074 0.16605 0.76319 0.0
C1811 C 0.85527 0.17432 0.74973 0.0
C1812 C 0.87908 0.15922 0.76303 0.0
C1813 C 0.88626 0.16874 0.73647 0.0
C1814 C 0.89181 0.1607 0.74978 0.0
C1815 C 0.86275 0.21736 0.68234 0.0
C1816 C 0.86067 0.18242 0.72195 0.0
C1817 C 0.87036 0.09214 0.71213 0.0
C1818 C 0.89469 0.10932 0.70795 0.0
C1819 C 0.87233 0.1721 0.66181 0.0
C1820 C 0.84464 0.19883 0.61463 0.0
C1821 C 0.842 0.18661 0.60078 0.0
C1822 C 0.84735 0.19931 0.58701 0.0
C1823 C 0.85481 0.22423 0.58718 0.0
C1824 C 0.85194 0.22374 0.61449 0.0
C1825 C 0.85681 0.23626 0.60083 0.0
C1826 C 0.82541 0.12196 0.66784 0.0
C1827 C 0.84304 0.18614 0.62895 0.0
H1828 H 0.84091 0.17932 0.74967 0.0
H1829 H 0.88374 0.15292 0.77324 0.0
H1830 H 0.89637 0.16962 0.72636 0.0
H1831 H 0.90599 0.15551 0.74981 0.0
H1832 H 0.83674 0.16747 0.60074 0.0
H1833 H 0.85888 0.23432 0.57673 0.0
H1834 H 0.85454 0.23374 0.6249 0.0
H1835 H 0.86257 0.25548 0.60085 0.0
H1836 H 0.34227 0.90965 0.06251 0.0
H1837 H 0.34657 0.84479 0.05202 0.0
H1838 H 0.38505 0.8698 0.03764 0.0
H1839 H 0.36556 0.93947 0.026 0.0
H1840 H 0.38252 0.96954 0.03432 0.0
H1841 H 0.35463 0.94635 0.04315 0.0
H1842 H 0.37905 0.95248 0.0682 0.0
H1843 H 0.40688 0.97572 0.05943 0.0
H1844 H 0.40666 0.94986 0.06808 0.0
H1845 H 0.42475 0.9023 0.0261 0.0
H1846 H 0.46251 0.93987 0.01823 0.0
H1847 H 0.4314 0.98334 0.03501 0.0
C1848 C 0.35135 0.90076 0.05718 0.0
C1849 C 0.34148 0.8753 0.05838 0.0
C1850 C 0.35373 0.86425 0.05114 0.0
C1851 C 0.37558 0.87829 0.04295 0.0
C1852 C 0.38479 0.90334 0.04194 0.0
C1853 C 0.37301 0.91447 0.0488 0.0
C1854 C 0.38709 0.94178 0.04628 0.0
C1855 C 0.37151 0.94974 0.03688 0.0
C1856 C 0.39542 0.95578 0.0614 0.0
C1857 C 0.40901 0.94435 0.03736 0.0
C1858 C 0.40725 0.92195 0.03487 0.0
C1859 C 0.42609 0.91989 0.02772 0.0
C1860 C 0.44741 0.94131 0.0232 0.0
C1861 C 0.4495 0.96442 0.0256 0.0
C1862 C 0.42996 0.96585 0.0327 0.0
H1863 H 0.11407 0.43793 0.04107 0.0
H1864 H 0.15669 0.50579 0.06587 0.0
H1865 H 0.12873 0.52025 0.05632 0.0
H1866 H 0.10058 0.46229 0.00847 0.0
H1867 H 0.06892 0.43803 1.00594 0.0
H1868 H 0.09155 0.43192 0.0146 0.0
H1869 H 0.06497 0.41469 0.03839 0.0
H1870 H 0.04132 0.41934 0.0298 0.0
H1871 H 0.0538 0.4324 0.04812 0.0
H1872 H 0.09612 0.52716 0.04439 0.0
H1873 H 0.05961 0.52538 0.0318 0.0
H1874 H 0.03718 0.4528 0.0149 0.0
C1875 C 0.11737 0.45579 0.04446 0.0
C1876 C 0.13744 0.47087 0.05417 0.0
C1877 C 0.14132 0.49407 0.05846 0.0
C1878 C 0.12562 0.50242 0.05305 0.0
C1879 C 0.10602 0.48723 0.04343 0.0
C1880 C 0.10163 0.4643 0.03929 0.0
C1881 C 0.07869 0.45133 0.02924 0.0
C1882 C 0.08533 0.44556 0.01363 0.0
C1883 C 0.0585 0.42807 0.03684 0.0
C1884 C 0.07102 0.47065 0.02827 0.0
C1885 C 0.08712 0.49123 0.03652 0.0
C1886 C 0.08354 0.51125 0.03777 0.0
C1887 C 0.06287 0.51015 0.03053 0.0
C1888 C 0.04613 0.48929 0.02202 0.0
C1889 C 0.05015 0.46921 0.021 0.0
H1890 H 0.5138 0.66135 0.04909 0.0
H1891 H 0.58504 0.68259 0.07035 0.0
H1892 H 0.5846 0.64685 0.05894 0.0
H1893 H 0.48736 0.59709 0.05325 0.0
H1894 H 0.47186 0.58932 0.03512 0.0
H1895 H 0.4777 0.61689 0.04471 0.0
H1896 H 0.50108 0.64221 0.02124 0.0
H1897 H 0.49518 0.61461 0.01162 0.0
H1898 H 0.52657 0.63956 0.01371 0.0
H1899 H 0.57627 0.60866 0.04618 0.0
H1900 H 0.56045 0.5697 0.03256 0.0
H1901 H 0.49521 0.57323 0.01848 0.0
C1902 C 0.52942 0.65862 0.05123 0.0
C1903 C 0.54933 0.67471 0.06079 0.0
C1904 C 0.56929 0.67029 0.06338 0.0
C1905 C 0.56936 0.65016 0.05682 0.0
C1906 C 0.54946 0.63467 0.04756 0.0
C1907 C 0.52988 0.63862 0.04468 0.0
C1908 C 0.51065 0.61878 0.03443 0.0
C1909 C 0.4854 0.60469 0.04236 0.0
C1910 C 0.50824 0.62944 0.01935 0.0
C1911 C 0.5224 0.60297 0.03222 0.0
C1912 C 0.54481 0.61259 0.03988 0.0
C1913 C 0.55883 0.60099 0.04005 0.0
C1914 C 0.54961 0.57879 0.0323 0.0
C1915 C 0.52661 0.5684 0.02443 0.0
C1916 C 0.51299 0.58085 0.02426 0.0
H1917 H 0.87763 0.31766 0.977 0.0
H1918 H 0.86382 0.34079 0.93369 0.0
H1919 H 0.8915 0.3838 0.94103 0.0
H1920 H 0.88042 0.36746 0.99939 0.0
H1921 H 0.9052 0.37037 0.01147 0.0
H1922 H 0.88368 0.34119 1.00315 0.0
H1923 H 0.92038 0.33847 0.99137 0.0
H1924 H 0.94196 0.36756 0.99972 0.0
H1925 H 0.94225 0.36296 0.97963 0.0
H1926 H 0.91975 0.42392 0.95289 0.0
H1927 H 0.94989 0.45931 0.96799 0.0
H1928 H 0.94741 0.41114 1.00345 0.0
C1929 C 0.88035 0.33182 0.96912 0.0
C1930 C 0.86862 0.3259 0.95474 0.0
C1931 C 0.87284 0.3449 0.94467 0.0
C1932 C 0.88837 0.36938 0.94878 0.0
C1933 C 0.89961 0.37459 0.963 0.0
C1934 C 0.896 0.35643 0.97301 0.0
C1935 C 0.91112 0.3672 0.9874 0.0
C1936 C 0.89408 0.36119 1.00117 0.0
C1937 C 0.93005 0.35853 0.98965 0.0
C1938 C 0.92392 0.39421 0.98382 0.0
C1939 C 0.91671 0.39796 0.96974 0.0
C1940 C 0.92573 0.42121 0.96386 0.0
C1941 C 0.94296 0.44117 0.97245 0.0
C1942 C 0.95129 0.43777 0.98663 0.0
C1943 C 0.94137 0.41407 0.99255 0.0
H1944 H 0.64515 0.49697 0.96289 0.0
H1945 H 0.69388 0.5753 0.96581 0.0
H1946 H 0.66132 0.57935 0.97926 0.0
H1947 H 0.59009 0.49925 0.95502 0.0
H1948 H 0.56973 0.47255 0.96577 0.0
H1949 H 0.59765 0.47545 0.95774 0.0
H1950 H 0.61092 0.46902 0.98414 0.0
H1951 H 0.58369 0.46717 0.99263 0.0
H1952 H 0.61425 0.48934 0.99942 0.0
H1953 H 0.62325 0.57583 0.99011 0.0
H1954 H 0.58054 0.56526 0.99673 0.0
H1955 H 0.55495 0.48896 0.98742 0.0
C1956 C 0.64892 0.51486 0.96658 0.0
C1957 C 0.67202 0.53589 0.96346 0.0
C1958 C 0.67631 0.55907 0.96818 0.0
C1959 C 0.65799 0.56149 0.97588 0.0
C1960 C 0.63537 0.54053 0.97877 0.0
C1961 C 0.6306 0.51764 0.97421 0.0
C1962 C 0.60389 0.49846 0.97774 0.0
C1963 C 0.58949 0.48568 0.9632 0.0
C1964 C 0.60313 0.47989 0.98917 0.0
C1965 C 0.59433 0.51426 0.98467 0.0
C1966 C 0.61303 0.53843 0.98528 0.0
C1967 C 0.60858 0.55693 0.98998 0.0
C1968 C 0.58429 0.55077 0.99374 0.0
C1969 C 0.56471 0.52629 0.99302 0.0
C1970 C 0.56983 0.50768 0.98866 0.0
H1971 H 0.44346 0.10097 0.95136 0.0
H1972 H 0.5035 0.17166 0.96625 0.0
H1973 H 0.51898 0.15124 0.98312 0.0
H1974 H 0.43244 0.07017 0.98654 0.0
H1975 H 0.42713 0.0418 0.97834 0.0
H1976 H 0.42024 0.06185 0.96758 0.0
H1977 H 0.44903 0.06287 0.94612 0.0
H1978 H 0.45578 0.04262 0.95675 0.0
H1979 H 0.48078 0.07154 0.95047 0.0
H1980 H 0.52779 0.12317 0.99866 0.0
H1981 H 0.53112 0.08939 0.01011 0.0
H1982 H 0.46645 0.03724 0.98423 0.0
C1983 C 0.46004 0.11222 0.958 0.0
C1984 C 0.47202 0.138 0.95756 0.0
C1985 C 0.49356 0.15191 0.96661 0.0
C1986 C 0.50262 0.14049 0.97619 0.0
C1987 C 0.49015 0.11511 0.9765 0.0
C1988 C 0.46952 0.10113 0.96751 0.0
C1989 C 0.45996 0.07414 0.96967 0.0
C1990 C 0.43337 0.06124 0.97591 0.0
C1991 C 0.46149 0.06209 0.95488 0.0
C1992 C 0.47839 0.07518 0.98131 0.0
C1993 C 0.49556 0.09896 0.98519 0.0
C1994 C 0.51445 0.10446 0.9957 0.0
C1995 C 0.5161 0.08513 1.00222 0.0
C1996 C 0.49903 0.06062 0.99812 0.0
C1997 C 0.47981 0.05572 0.98764 0.0
H1998 H 0.67942 0.09107 0.95866 0.0
H1999 H 0.67721 0.1573 0.96833 0.0
H2000 H 0.63949 0.13368 0.98356 0.0
H2001 H 0.61527 0.05255 0.95382 0.0
H2002 H 0.61409 0.02636 0.96265 0.0
H2003 H 0.64222 0.04882 0.95375 0.0
H2004 H 0.66659 0.05463 0.97876 0.0
H2005 H 0.63842 0.03218 0.98772 0.0
H2006 H 0.65626 0.06229 0.99586 0.0
H2007 H 0.59951 0.10237 0.99518 0.0
H2008 H 0.56074 0.06577 1.00264 0.0
H2009 H 0.58956 0.01987 0.98674 0.0
C2010 C 0.67109 0.10061 0.96408 0.0
C2011 C 0.68133 0.12606 0.96235 0.0
C2012 C 0.66992 0.13789 0.96967 0.0
C2013 C 0.64846 0.12462 0.97833 0.0
C2014 C 0.63876 0.09955 0.97973 0.0
C2015 C 0.64978 0.08767 0.9729 0.0
C2016 C 0.63492 0.06041 0.97559 0.0
C2017 C 0.6261 0.04621 0.96056 0.0
C2018 C 0.64995 0.05188 0.98505 0.0
C2019 C 0.61337 0.05874 0.98451 0.0
C2020 C 0.61605 0.08155 0.9869 0.0
C2021 C 0.59753 0.08448 0.99374 0.0
C2022 C 0.57558 0.06354 0.99807 0.0
C2023 C 0.57251 0.04 0.99584 0.0
C2024 C 0.59177 0.03769 0.98904 0.0
H2025 H 0.85528 0.50899 0.95751 0.0
H2026 H 0.89925 0.58791 0.9566 0.0
H2027 H 0.93322 0.58641 0.97035 0.0
H2028 H 0.87718 0.50031 0.99475 0.0
H2029 H 0.8783 0.47359 0.98872 0.0
H2030 H 0.8559 0.48041 0.98043 0.0
H2031 H 0.87211 0.47977 0.95371 0.0
H2032 H 0.89423 0.47243 0.96174 0.0
H2033 H 0.90475 0.49872 0.94978 0.0
H2034 H 0.96381 0.57644 0.98192 0.0
H2035 H 0.98954 0.55848 0.98972 0.0
H2036 H 0.92667 0.48593 0.98272 0.0
C2037 C 0.87187 0.52591 0.96055 0.0
C2038 C 0.87464 0.54862 0.95619 0.0
C2039 C 0.89681 0.57039 0.95995 0.0
C2040 C 0.91612 0.5697 0.9678 0.0
C2041 C 0.91306 0.54705 0.97175 0.0
C2042 C 0.89154 0.52551 0.96822 0.0
C2043 C 0.89399 0.50358 0.97255 0.0
C2044 C 0.87523 0.48858 0.98485 0.0
C2045 C 0.89111 0.4877 0.95861 0.0
C2046 C 0.9204 0.51615 0.97869 0.0
C2047 C 0.93091 0.54125 0.97835 0.0
C2048 C 0.95563 0.55683 0.98254 0.0
C2049 C 0.97007 0.54652 0.98701 0.0
C2050 C 0.95973 0.52091 0.98734 0.0
C2051 C 0.93464 0.50557 0.98309 0.0
H2052 H 0.45539 0.31818 0.97711 0.0
H2053 H 0.45368 0.33261 0.92925 0.0
H2054 H 0.4629 0.37423 0.93537 0.0
H2055 H 0.42914 0.35333 0.99111 0.0
H2056 H 0.44951 0.36504 0.00733 0.0
H2057 H 0.44179 0.33581 0.99937 0.0
H2058 H 0.48864 0.3504 0.99624 0.0
H2059 H 0.49641 0.37963 1.00423 0.0
H2060 H 0.508 0.37794 0.9859 0.0
H2061 H 0.47126 0.41386 0.94647 0.0
H2062 H 0.48094 0.45005 0.96191 0.0
H2063 H 0.48061 0.41143 1.00229 0.0
C2064 C 0.45715 0.33008 0.96787 0.0
C2065 C 0.45331 0.32175 0.95268 0.0
C2066 C 0.45569 0.33809 0.94101 0.0
C2067 C 0.4612 0.36193 0.94434 0.0
C2068 C 0.46472 0.36941 0.95938 0.0
C2069 C 0.46309 0.35413 0.97096 0.0
C2070 C 0.46848 0.3671 0.98613 0.0
C2071 C 0.44588 0.35457 0.9966 0.0
C2072 C 0.49177 0.36887 0.99356 0.0
C2073 C 0.47311 0.39193 0.98123 0.0
C2074 C 0.47067 0.39277 0.96576 0.0
C2075 C 0.47332 0.41347 0.95859 0.0
C2076 C 0.47864 0.43389 0.96748 0.0
C2077 C 0.48148 0.43356 0.98334 0.0
C2078 C 0.47883 0.41233 0.99024 0.0
H2079 H 0.12566 0.66709 0.06411 0.0
H2080 H 0.14722 0.71074 0.02337 0.0
H2081 H 0.11579 0.67543 0.00882 0.0
H2082 H 0.11558 0.61243 0.04743 0.0
H2083 H 0.08874 0.5926 0.05848 0.0
H2084 H 0.11183 0.6217 0.06607 0.0
H2085 H 0.07797 0.63353 0.07053 0.0
H2086 H 0.05473 0.60438 0.06301 0.0
H2087 H 0.05842 0.63215 0.055 0.0
H2088 H 0.08555 0.63489 0.99819 0.0
H2089 H 0.05585 0.5916 0.99235 0.0
H2090 H 0.05119 0.57437 0.04 0.0
C2091 C 0.12342 0.66936 0.0522 0.0
C2092 C 0.13914 0.69166 0.04486 0.0
C2093 C 0.13579 0.69374 0.02919 0.0
C2094 C 0.11783 0.67384 0.02084 0.0
C2095 C 0.10305 0.65203 0.02834 0.0
C2096 C 0.10537 0.64968 0.04368 0.0
C2097 C 0.08758 0.62386 0.0488 0.0
C2098 C 0.10179 0.61195 0.05559 0.0
C2099 C 0.06854 0.62347 0.06 0.0
C2100 C 0.07536 0.61201 0.03387 0.0
C2101 C 0.08465 0.62865 0.02223 0.0
C2102 C 0.07777 0.62177 0.00722 0.0
C2103 C 0.06102 0.59719 1.00401 0.0
C2104 C 0.05112 0.5799 0.01576 0.0
C2105 C 0.05812 0.58744 0.03089 0.0
H2106 H 0.32842 0.42695 0.05397 0.0
H2107 H 0.33805 0.4995 0.0502 0.0
H2108 H 0.37756 0.51321 0.03662 0.0
H2109 H 0.39127 0.44434 0.06035 0.0
H2110 H 0.39056 0.42017 0.0491 0.0
H2111 H 0.36259 0.41588 0.05788 0.0
H2112 H 0.34031 0.40539 0.03178 0.0
H2113 H 0.36828 0.40962 0.02296 0.0
H2114 H 0.35386 0.4266 0.01644 0.0
H2115 H 0.41837 0.51999 0.02599 0.0
H2116 H 0.45526 0.51839 0.01733 0.0
H2117 H 0.41742 0.44063 0.02572 0.0
C2118 C 0.3388 0.44567 0.05018 0.0
C2119 C 0.33023 0.46221 0.05316 0.0
C2120 C 0.34422 0.48652 0.04795 0.0
C2121 C 0.36669 0.49446 0.04026 0.0
C2122 C 0.37474 0.47776 0.03761 0.0
C2123 C 0.36103 0.45377 0.04221 0.0
C2124 C 0.37388 0.43953 0.03802 0.0
C2125 C 0.37993 0.42939 0.05218 0.0
C2126 C 0.35814 0.41907 0.02662 0.0
C2127 C 0.39729 0.4594 0.03075 0.0
C2128 C 0.39748 0.48135 0.03064 0.0
C2129 C 0.41807 0.50274 0.02562 0.0
C2130 C 0.43893 0.50163 0.02059 0.0
C2131 C 0.43884 0.4792 0.02017 0.0
C2132 C 0.4177 0.45788 0.02539 0.0
H2133 H 0.54896 0.88999 0.07678 0.0
H2134 H 0.564 0.85543 0.03891 0.0
H2135 H 0.5548 0.87985 0.02125 0.0
H2136 H 0.49944 0.89482 0.05989 0.0
H2137 H 0.50886 0.92455 0.06777 0.0
H2138 H 0.51622 0.90405 0.07759 0.0
H2139 H 0.56293 0.93699 0.07774 0.0
H2140 H 0.55563 0.95761 0.06801 0.0
H2141 H 0.57799 0.95044 0.06017 0.0
H2142 H 0.54236 0.90695 0.00752 0.0
H2143 H 0.5313 0.93757 0.999 0.0
H2144 H 0.52719 0.95629 0.04566 0.0
C2145 C 0.55065 0.88773 0.0648 0.0
C2146 C 0.55682 0.87038 0.05932 0.0
C2147 C 0.55861 0.86801 0.04347 0.0
C2148 C 0.55361 0.88196 0.0333 0.0
C2149 C 0.54718 0.89853 0.03909 0.0
C2150 C 0.54604 0.90175 0.05446 0.0
C2151 C 0.5392 0.9212 0.05772 0.0
C2152 C 0.51446 0.9105 0.06624 0.0
C2153 C 0.56019 0.94284 0.06642 0.0
C2154 C 0.53661 0.92829 0.04178 0.0
C2155 C 0.54103 0.91484 0.03118 0.0
C2156 C 0.539 0.9177 0.01571 0.0
C2157 C 0.53252 0.93497 0.01096 0.0
C2158 C 0.52845 0.94926 0.02165 0.0
C2159 C 0.53051 0.9458 0.03723 0.0
H2160 H 0.99745 0.24676 0.39228 0.0
H2161 H 1.00248 0.18137 0.38538 0.0
H2162 H 0.04054 0.20494 0.37047 0.0
H2163 H 0.0205 0.27301 0.3548 0.0
H2164 H 0.03751 0.30384 0.36198 0.0
H2165 H 0.00971 0.28155 0.37135 0.0
H2166 H 0.03431 0.29019 0.39655 0.0
H2167 H 0.06205 0.31255 0.38725 0.0
H2168 H 0.06196 0.28764 0.39714 0.0
H2169 H 0.08006 0.23622 0.3582 0.0
H2170 H 0.11787 0.27287 0.34964 0.0
H2171 H 0.08665 0.31785 0.36314 0.0
C2172 C 0.00653 0.23741 0.38759 0.0
C2173 C 0.99684 0.21214 0.38994 0.0
C2174 C 0.00928 0.2006 0.38356 0.0
C2175 C 0.03097 0.21385 0.37508 0.0
C2176 C 0.03998 0.23867 0.37293 0.0
C2177 C 0.02813 0.25034 0.37894 0.0
C2178 C 0.04221 0.27737 0.37536 0.0
C2179 C 0.02654 0.28434 0.36527 0.0
C2180 C 0.05063 0.29284 0.38994 0.0
C2181 C 0.06414 0.27915 0.36679 0.0
C2182 C 0.06241 0.25658 0.36541 0.0
C2183 C 0.08133 0.2539 0.35891 0.0
C2184 C 0.10274 0.27486 0.35392 0.0
C2185 C 0.1049 0.29817 0.35517 0.0
C2186 C 0.08518 0.30018 0.3616 0.0
H2187 H 0.81088 0.83124 0.38699 0.0
H2188 H 0.78292 0.75371 0.38133 0.0
H2189 H 0.74624 0.74951 0.3675 0.0
H2190 H 0.75043 0.82542 0.39362 0.0
H2191 H 0.75781 0.85322 0.38391 0.0
H2192 H 0.78213 0.8501 0.39294 0.0
H2193 H 0.80561 0.86061 0.36781 0.0
H2194 H 0.78103 0.86252 0.35817 0.0
H2195 H 0.79117 0.84195 0.35135 0.0
H2196 H 0.71209 0.75313 0.35548 0.0
H2197 H 0.68111 0.76404 0.34665 0.0
H2198 H 0.7307 0.83946 0.35955 0.0
C2199 C 0.79698 0.81347 0.38276 0.0
C2200 C 0.79955 0.79274 0.38509 0.0
C2201 C 0.78109 0.7697 0.3796 0.0
C2202 C 0.76032 0.76719 0.37171 0.0
C2203 C 0.75825 0.78792 0.36952 0.0
C2204 C 0.77587 0.81058 0.37502 0.0
C2205 C 0.7684 0.82961 0.37169 0.0
C2206 C 0.76445 0.8402 0.38641 0.0
C2207 C 0.78768 0.84988 0.36164 0.0
C2208 C 0.74397 0.81412 0.36333 0.0
C2209 C 0.73853 0.79011 0.36227 0.0
C2210 C 0.71626 0.7719 0.35604 0.0
C2211 C 0.69882 0.77824 0.35104 0.0
C2212 C 0.70386 0.8026 0.35207 0.0
C2213 C 0.72682 0.82085 0.35817 0.0
H2214 H 0.20955 0.0014 0.39924 0.0
H2215 H 0.24129 0.04764 0.36009 0.0
H2216 H 0.23556 0.01207 0.34524 0.0
H2217 H 0.23709 0.96276 0.39226 0.0
H2218 H 0.21004 0.93551 0.39874 0.0
H2219 H 0.21752 0.96482 0.40649 0.0
H2220 H 0.17366 0.95685 0.39901 0.0
H2221 H 0.16611 0.92759 0.39119 0.0
H2222 H 0.16335 0.94952 0.37964 0.0
H2223 H 0.22446 0.97117 0.33424 0.0
H2224 H 0.20993 0.92791 0.32814 0.0
H2225 H 0.18639 0.90843 0.37456 0.0
C2226 C 0.2157 0.00415 0.38762 0.0
C2227 C 0.22575 0.02735 0.38082 0.0
C2228 C 0.23317 0.03001 0.3655 0.0
C2229 C 0.23015 0.00994 0.35699 0.0
C2230 C 0.21984 0.9873 0.36396 0.0
C2231 C 0.21288 0.9843 0.37896 0.0
C2232 C 0.20171 0.95785 0.38362 0.0
C2233 C 0.21754 0.95508 0.39601 0.0
C2234 C 0.1746 0.94734 0.38866 0.0
C2235 C 0.20321 0.94645 0.36886 0.0
C2236 C 0.21374 0.96375 0.35766 0.0
C2237 C 0.21632 0.95747 0.34294 0.0
C2238 C 0.20787 0.93284 0.33956 0.0
C2239 C 0.19701 0.91481 0.35085 0.0
C2240 C 0.19486 0.92183 0.36571 0.0
H2241 H 0.51492 0.66988 0.30148 0.0
H2242 H 0.56247 0.64599 0.28071 0.0
H2243 H 0.59944 0.68347 0.28969 0.0
H2244 H 0.55282 0.73325 0.29295 0.0
H2245 H 0.54734 0.74411 0.31057 0.0
H2246 H 0.5242 0.71502 0.30296 0.0
H2247 H 0.52487 0.69365 0.32782 0.0
H2248 H 0.54748 0.72295 0.33542 0.0
H2249 H 0.55413 0.69826 0.33503 0.0
H2250 H 0.63111 0.72369 0.29973 0.0
H2251 H 0.65627 0.76429 0.31126 0.0
H2252 H 0.58906 0.76281 0.32636 0.0
C2253 C 0.53312 0.67244 0.29899 0.0
C2254 C 0.53578 0.65507 0.29026 0.0
C2255 C 0.55994 0.6592 0.28713 0.0
C2256 C 0.58108 0.68037 0.29226 0.0
C2257 C 0.57784 0.69727 0.3006 0.0
C2258 C 0.55455 0.69359 0.30405 0.0
C2259 C 0.55653 0.71505 0.31302 0.0
C2260 C 0.54451 0.7276 0.30435 0.0
C2261 C 0.54508 0.70698 0.32876 0.0
C2262 C 0.58456 0.7313 0.314 0.0
C2263 C 0.59638 0.72062 0.30669 0.0
C2264 C 0.62211 0.73221 0.30557 0.0
C2265 C 0.63624 0.75537 0.31212 0.0
C2266 C 0.62469 0.76675 0.31978 0.0
C2267 C 0.59845 0.75445 0.32076 0.0
H2268 H 0.34497 0.90137 0.30003 0.0
H2269 H 0.3262 0.82552 0.30022 0.0
H2270 H 0.28488 0.8138 0.31074 0.0
H2271 H 0.31404 0.89864 0.33577 0.0
H2272 H 0.30392 0.91942 0.3296 0.0
H2273 H 0.33205 0.9219 0.32216 0.0
H2274 H 0.31491 0.91821 0.29499 0.0
H2275 H 0.28646 0.91527 0.30219 0.0
H2276 H 0.28552 0.89206 0.28984 0.0
H2277 H 0.24462 0.81008 0.31942 0.0
H2278 H 0.20932 0.81488 0.32754 0.0
H2279 H 0.25507 0.89343 0.32387 0.0
C2280 C 0.33208 0.88232 0.30231 0.0
C2281 C 0.33858 0.86426 0.29925 0.0
C2282 C 0.32147 0.83956 0.3025 0.0
C2283 C 0.29801 0.83276 0.30846 0.0
C2284 C 0.29212 0.85096 0.31137 0.0
C2285 C 0.30876 0.87528 0.3086 0.0
C2286 C 0.29784 0.89121 0.31296 0.0
C2287 C 0.31287 0.90884 0.32589 0.0
C2288 C 0.29607 0.90501 0.29918 0.0
C2289 C 0.2723 0.87202 0.31827 0.0
C2290 C 0.26937 0.84892 0.31721 0.0
C2291 C 0.24691 0.82813 0.32062 0.0
C2292 C 0.22701 0.83104 0.32534 0.0
C2293 C 0.22984 0.85459 0.32698 0.0
C2294 C 0.25272 0.87528 0.32323 0.0
H2295 H 0.1298 0.45088 0.27302 0.0
H2296 H 0.10546 0.47769 0.3108 0.0
H2297 H 0.11359 0.45214 0.3281 0.0
H2298 H 0.10151 0.38827 0.28648 0.0
H2299 H 0.1264 0.38396 0.27971 0.0
H2300 H 0.11902 0.40467 0.27015 0.0
H2301 H 0.16461 0.43946 0.27355 0.0
H2302 H 0.17207 0.41886 0.28318 0.0
H2303 H 0.17821 0.44695 0.29223 0.0
H2304 H 0.12575 0.42506 0.34159 0.0
H2305 H 0.13847 0.39571 0.35004 0.0
H2306 H 0.15238 0.38421 0.30363 0.0
C2307 C 0.12587 0.45121 0.28489 0.0
C2308 C 0.11737 0.46675 0.2905 0.0
C2309 C 0.11267 0.46659 0.30619 0.0
C2310 C 0.11701 0.45195 0.31614 0.0
C2311 C 0.12571 0.43719 0.31027 0.0
C2312 C 0.1298 0.43642 0.295 0.0
C2313 C 0.13886 0.41861 0.29166 0.0
C2314 C 0.12034 0.39763 0.2814 0.0
C2315 C 0.16499 0.43176 0.28475 0.0
C2316 C 0.13937 0.40969 0.30746 0.0
C2317 C 0.13188 0.4208 0.31802 0.0
C2318 C 0.13156 0.41616 0.33342 0.0
C2319 C 0.13905 0.39967 0.33814 0.0
C2320 C 0.14654 0.38791 0.32752 0.0
C2321 C 0.14652 0.39286 0.31197 0.0
H2322 H 0.33483 0.42983 0.28735 0.0
H2323 H 0.32895 0.49443 0.29556 0.0
H2324 H 0.29096 0.46989 0.3105 0.0
H2325 H 0.27081 0.38818 0.28261 0.0
H2326 H 0.27139 0.36335 0.29215 0.0
H2327 H 0.29884 0.3863 0.2829 0.0
H2328 H 0.32379 0.39492 0.30797 0.0
H2329 H 0.29631 0.37197 0.31728 0.0
H2330 H 0.31275 0.40264 0.32475 0.0
H2331 H 0.25133 0.43744 0.32245 0.0
H2332 H 0.21424 0.39993 0.33116 0.0
H2333 H 0.24729 0.357 0.31667 0.0
C2334 C 0.32558 0.4388 0.29235 0.0
C2335 C 0.33482 0.46403 0.29029 0.0
C2336 C 0.32231 0.47517 0.29711 0.0
C2337 C 0.3007 0.46137 0.30559 0.0
C2338 C 0.29201 0.43651 0.30735 0.0
C2339 C 0.30419 0.42537 0.30103 0.0
C2340 C 0.29071 0.39828 0.30434 0.0
C2341 C 0.28245 0.38315 0.28963 0.0
C2342 C 0.30686 0.39157 0.31417 0.0
C2343 C 0.26867 0.39579 0.31309 0.0
C2344 C 0.26978 0.41806 0.31477 0.0
C2345 C 0.25057 0.42 0.32151 0.0
C2346 C 0.22962 0.39862 0.32652 0.0
C2347 C 0.22828 0.37568 0.32507 0.0
C2348 C 0.24815 0.37439 0.31831 0.0
H2349 H 0.52658 0.84479 0.29479 0.0
H2350 H 0.56912 0.92368 0.29759 0.0
H2351 H 0.60181 0.92126 0.31231 0.0
H2352 H 0.54423 0.83199 0.3321 0.0
H2353 H 0.54721 0.80657 0.32543 0.0
H2354 H 0.52522 0.81345 0.3166 0.0
H2355 H 0.54474 0.81698 0.29045 0.0
H2356 H 0.56616 0.80901 0.29881 0.0
H2357 H 0.57773 0.83677 0.28815 0.0
H2358 H 0.63172 0.91067 0.32407 0.0
H2359 H 0.65795 0.89276 0.33065 0.0
H2360 H 0.59679 0.82065 0.32021 0.0
C2361 C 0.54257 0.86145 0.29882 0.0
C2362 C 0.54534 0.88444 0.29529 0.0
C2363 C 0.56672 0.90595 0.30033 0.0
C2364 C 0.58525 0.90472 0.30875 0.0
C2365 C 0.58218 0.8818 0.31197 0.0
C2366 C 0.56146 0.86053 0.30708 0.0
C2367 C 0.564 0.83841 0.31067 0.0
C2368 C 0.54398 0.8216 0.32187 0.0
C2369 C 0.56312 0.82449 0.29616 0.0
C2370 C 0.58965 0.85062 0.31794 0.0
C2371 C 0.5996 0.87564 0.31882 0.0
C2372 C 0.62389 0.89107 0.32383 0.0
C2373 C 0.6386 0.88077 0.32767 0.0
C2374 C 0.62891 0.85529 0.32668 0.0
C2375 C 0.60413 0.84006 0.3218 0.0
H2376 H 0.13388 0.68277 0.27916 0.0
H2377 H 0.09029 0.63288 0.31465 0.0
H2378 H 0.09499 0.66754 0.33016 0.0
H2379 H 0.17759 0.72908 0.30329 0.0
H2380 H 0.18071 0.75423 0.29215 0.0
H2381 H 0.17216 0.72546 0.28318 0.0
H2382 H 0.13253 0.7235 0.272 0.0
H2383 H 0.14115 0.75243 0.28082 0.0
H2384 H 0.11114 0.72624 0.28445 0.0
H2385 H 0.10656 0.70782 0.34251 0.0
H2386 H 0.12276 0.75082 0.35025 0.0
H2387 H 0.15951 0.77453 0.30698 0.0
C2388 C 0.12487 0.67917 0.29004 0.0
C2389 C 0.11163 0.65518 0.2957 0.0
C2390 C 0.10052 0.65117 0.31013 0.0
C2391 C 0.10309 0.67072 0.31902 0.0
C2392 C 0.11683 0.69424 0.31333 0.0
C2393 C 0.1274 0.69857 0.29913 0.0
C2394 C 0.14218 0.72571 0.29601 0.0
C2395 C 0.16979 0.7341 0.29351 0.0
C2396 C 0.13108 0.73236 0.28252 0.0
C2397 C 0.13843 0.73587 0.31069 0.0
C2398 C 0.12371 0.71744 0.32052 0.0
C2399 C 0.11804 0.72243 0.33488 0.0
C2400 C 0.12748 0.74691 0.33923 0.0
C2401 C 0.1425 0.76608 0.32929 0.0
C2402 C 0.14801 0.76033 0.31486 0.0
H2403 H 0.8053 0.01756 0.37198 0.0
H2404 H 0.81671 0.99297 0.41543 0.0
H2405 H 0.78746 0.95035 0.40802 0.0
H2406 H 0.74038 0.97504 0.36905 0.0
H2407 H 0.74052 0.97015 0.34898 0.0
H2408 H 0.76325 0.9988 0.35731 0.0
H2409 H 0.79912 0.99371 0.3461 0.0
H2410 H 0.77606 0.96563 0.33741 0.0
H2411 H 0.79959 0.96584 0.34951 0.0
H2412 H 0.75623 0.91087 0.39654 0.0
H2413 H 0.72443 0.87639 0.38163 0.0
H2414 H 0.73258 0.92578 0.34535 0.0
C2415 C 0.80186 0.00315 0.37984 0.0
C2416 C 0.81325 0.00859 0.39431 0.0
C2417 C 0.80798 0.98927 0.40437 0.0
C2418 C 0.79152 0.96499 0.40023 0.0
C2419 C 0.78045 0.96027 0.38597 0.0
C2420 C 0.78534 0.97873 0.37591 0.0
C2421 C 0.7702 0.96857 0.36148 0.0
C2422 C 0.75254 0.97875 0.35907 0.0
C2423 C 0.78728 0.97374 0.34782 0.0
C2424 C 0.75594 0.94154 0.36507 0.0
C2425 C 0.76227 0.93725 0.37927 0.0
C2426 C 0.75118 0.91397 0.38539 0.0
C2427 C 0.73302 0.89451 0.37685 0.0
C2428 C 0.72605 0.89836 0.36229 0.0
C2429 C 0.73783 0.92221 0.35631 0.0
H2430 H 0.01527 0.83289 0.38873 0.0
H2431 H 0.9819 0.75421 0.38768 0.0
H2432 H 0.0171 0.75805 0.37255 0.0
H2433 H 0.04323 0.84487 0.35094 0.0
H2434 H 0.07159 0.87179 0.35673 0.0
H2435 H 0.0428 0.86367 0.36614 0.0
H2436 H 0.06163 0.86319 0.39206 0.0
H2437 H 0.0909 0.87229 0.38312 0.0
H2438 H 0.0765 0.84515 0.39448 0.0
H2439 H 0.05726 0.77038 0.35952 0.0
H2440 H 0.10081 0.79036 0.35094 0.0
H2441 H 0.10917 0.86122 0.36096 0.0
C2442 C 0.01525 0.81654 0.38501 0.0
C2443 C 0.99586 0.79323 0.38915 0.0
C2444 C 0.99659 0.77218 0.38448 0.0
C2445 C 0.01641 0.7742 0.37585 0.0
C2446 C 0.03545 0.79745 0.37206 0.0
C2447 C 0.03514 0.81828 0.37657 0.0
C2448 C 0.05905 0.84107 0.37224 0.0
C2449 C 0.05387 0.85626 0.36083 0.0
C2450 C 0.07283 0.85631 0.38631 0.0
C2451 C 0.07307 0.82979 0.36497 0.0
C2452 C 0.05891 0.80461 0.36472 0.0
C2453 C 0.06836 0.79009 0.35941 0.0
C2454 C 0.09305 0.80158 0.35448 0.0
C2455 C 0.10799 0.82731 0.35489 0.0
C2456 C 0.09781 0.84154 0.36014 0.0
H2457 H 0.22537 0.21346 0.37989 0.0
H2458 H 0.18617 0.20859 0.42135 0.0
H2459 H 0.16964 0.23312 0.40989 0.0
H2460 H 0.24307 0.27521 0.37177 0.0
H2461 H 0.23909 0.27074 0.35161 0.0
H2462 H 0.24685 0.25167 0.36273 0.0
H2463 H 0.20815 0.2132 0.35203 0.0
H2464 H 0.20018 0.23218 0.34094 0.0
H2465 H 0.17791 0.21035 0.35385 0.0
H2466 H 0.15827 0.25891 0.3945 0.0
H2467 H 0.15444 0.28643 0.37634 0.0
H2468 H 0.20099 0.27542 0.34466 0.0
C2469 C 0.21309 0.21737 0.38648 0.0
C2470 C 0.20709 0.20914 0.40154 0.0
C2471 C 0.19126 0.21492 0.40988 0.0
C2472 C 0.18161 0.22867 0.40342 0.0
C2473 C 0.18793 0.23655 0.38859 0.0
C2474 C 0.20338 0.23125 0.38021 0.0
C2475 C 0.20812 0.24299 0.36474 0.0
C2476 C 0.23593 0.26124 0.36259 0.0
C2477 C 0.19798 0.22351 0.35215 0.0
C2478 C 0.19314 0.25593 0.36582 0.0
C2479 C 0.18146 0.25171 0.37966 0.0
C2480 C 0.16718 0.26221 0.3836 0.0
C2481 C 0.1651 0.27778 0.37326 0.0
C2482 C 0.17728 0.28275 0.35919 0.0
C2483 C 0.19123 0.27151 0.3553 0.0
H2484 H 0.66608 0.57861 0.72603 0.0
H2485 H 0.66805 0.51248 0.71551 0.0
H2486 H 0.70709 0.53666 0.70161 0.0
H2487 H 0.69179 0.60905 0.68985 0.0
H2488 H 0.70954 0.63883 0.69844 0.0
H2489 H 0.68088 0.61626 0.70689 0.0
H2490 H 0.70411 0.6209 0.7322 0.0
H2491 H 0.73275 0.64346 0.72381 0.0
H2492 H 0.73084 0.6168 0.73241 0.0
H2493 H 0.74729 0.56781 0.69079 0.0
H2494 H 0.78589 0.60407 0.68316 0.0
H2495 H 0.758 0.65063 0.69931 0.0
C2496 C 0.67473 0.56926 0.72076 0.0
C2497 C 0.66392 0.54361 0.72179 0.0
C2498 C 0.67576 0.53203 0.71469 0.0
C2499 C 0.69798 0.54561 0.7068 0.0
C2500 C 0.70811 0.57079 0.70598 0.0
C2501 C 0.69688 0.58255 0.71269 0.0
C2502 C 0.71215 0.60994 0.71037 0.0
C2503 C 0.69772 0.61905 0.70082 0.0
C2504 C 0.72046 0.62357 0.72561 0.0
C2505 C 0.73401 0.61172 0.70171 0.0
C2506 C 0.73115 0.58886 0.69924 0.0
C2507 C 0.74949 0.58577 0.69235 0.0
C2508 C 0.77139 0.60658 0.68793 0.0
C2509 C 0.77467 0.63022 0.69005 0.0
C2510 C 0.75569 0.63274 0.69711 0.0
H2511 H 0.44987 0.09744 0.70727 0.0
H2512 H 0.49104 0.16483 0.73274 0.0
H2513 H 0.46278 0.17888 0.72315 0.0
H2514 H 0.43579 0.12258 0.67465 0.0
H2515 H 0.4046 0.09737 0.67208 0.0
H2516 H 0.42818 0.09239 0.68046 0.0
H2517 H 0.40117 0.07349 0.70407 0.0
H2518 H 0.3771 0.07771 0.69571 0.0
H2519 H 0.38929 0.09031 0.71415 0.0
H2520 H 0.42993 0.1853 0.71131 0.0
H2521 H 0.39287 0.18282 0.69913 0.0
H2522 H 0.37172 0.11087 0.68161 0.0
C2523 C 0.45283 0.11514 0.71076 0.0
C2524 C 0.47256 0.1302 0.72068 0.0
C2525 C 0.47595 0.15315 0.72515 0.0
C2526 C 0.46008 0.16127 0.71971 0.0
C2527 C 0.44081 0.1461 0.7099 0.0
C2528 C 0.43691 0.12341 0.70557 0.0
C2529 C 0.41408 0.11031 0.69545 0.0
C2530 C 0.42108 0.10538 0.67972 0.0
C2531 C 0.39423 0.08655 0.70279 0.0
C2532 C 0.40576 0.12916 0.69478 0.0
C2533 C 0.42162 0.14974 0.70311 0.0
C2534 C 0.41753 0.1694 0.70463 0.0
C2535 C 0.39653 0.16789 0.69762 0.0
C2536 C 0.37996 0.14699 0.68908 0.0
C2537 C 0.38454 0.12731 0.68773 0.0
H2538 H 0.8584 0.33369 0.71406 0.0
H2539 H 0.93266 0.35928 0.73188 0.0
H2540 H 0.93307 0.32413 0.71992 0.0
H2541 H 0.83615 0.27019 0.71961 0.0
H2542 H 0.81768 0.26047 0.70253 0.0
H2543 H 0.82358 0.28818 0.71195 0.0
H2544 H 0.84193 0.31233 0.68723 0.0
H2545 H 0.83591 0.28455 0.67784 0.0
H2546 H 0.86685 0.31064 0.67799 0.0
H2547 H 0.92529 0.28616 0.70669 0.0
H2548 H 0.90902 0.24625 0.69403 0.0
H2549 H 0.83949 0.24464 0.68479 0.0
C2550 C 0.87482 0.33199 0.71531 0.0
C2551 C 0.89553 0.34922 0.72389 0.0
C2552 C 0.91652 0.34617 0.72549 0.0
C2553 C 0.917 0.32639 0.71863 0.0
C2554 C 0.89633 0.30979 0.71024 0.0
C2555 C 0.87556 0.31225 0.7086 0.0
C2556 C 0.85542 0.29118 0.69951 0.0
C2557 C 0.83182 0.27664 0.70897 0.0
C2558 C 0.84971 0.30023 0.68477 0.0
C2559 C 0.8681 0.27643 0.6964 0.0
C2560 C 0.89175 0.28765 0.70261 0.0
C2561 C 0.90686 0.27725 0.70171 0.0
C2562 C 0.89742 0.25456 0.6945 0.0
C2563 C 0.87306 0.24244 0.6883 0.0
C2564 C 0.85835 0.25371 0.68911 0.0
H2565 H 0.20654 1.0001 0.61648 0.0
H2566 H 0.1895 0.95679 0.65724 0.0
H2567 H 0.22157 0.99264 0.67114 0.0
H2568 H 0.27375 0.03566 0.62292 0.0
H2569 H 0.27613 0.06313 0.6153 0.0
H2570 H 0.25219 0.03376 0.60853 0.0
H2571 H 0.21902 0.04581 0.61523 0.0
H2572 H 0.24304 0.075 0.62217 0.0
H2573 H 0.21765 0.05533 0.63426 0.0
H2574 H 0.2541 0.03349 0.68101 0.0
H2575 H 0.28597 0.07656 0.68586 0.0
H2576 H 0.28321 0.09314 0.6387 0.0
C2577 C 0.20976 0.99804 0.62828 0.0
C2578 C 0.19524 0.97557 0.63576 0.0
C2579 C 0.19993 0.97385 0.65128 0.0
C2580 C 0.21829 0.99408 0.65927 0.0
C2581 C 0.23204 0.01594 0.65159 0.0
C2582 C 0.22814 0.01806 0.63643 0.0
C2583 C 0.2453 0.04382 0.63096 0.0
C2584 C 0.26289 0.04409 0.6187 0.0
C2585 C 0.23035 0.05568 0.62533 0.0
C2586 C 0.25933 0.05583 0.64544 0.0
C2587 C 0.25132 0.03942 0.65722 0.0
C2588 C 0.26068 0.04646 0.67185 0.0
C2589 C 0.27864 0.07093 0.67453 0.0
C2590 C 0.28715 0.08799 0.66263 0.0
C2591 C 0.27749 0.08029 0.6479 0.0
H2592 H 0.99129 0.16837 0.63236 0.0
H2593 H 0.02747 0.24707 0.62877 0.0
H2594 H 0.99166 0.24657 0.64133 0.0
H2595 H 0.93101 0.15726 0.62316 0.0
H2596 H 0.91502 0.13194 0.63584 0.0
H2597 H 0.94458 0.1388 0.62817 0.0
H2598 H 0.96171 0.14174 0.65531 0.0
H2599 H 0.93229 0.1353 0.66311 0.0
H2600 H 0.96039 0.16257 0.66874 0.0
H2601 H 0.95157 0.23743 0.65366 0.0
H2602 H 0.90794 0.21998 0.66185 0.0
H2603 H 0.89642 0.14701 0.65579 0.0
C2604 C 0.9917 0.18547 0.63441 0.0
C2605 C 0.01213 0.20781 0.62975 0.0
C2606 C 0.01194 0.22982 0.6323 0.0
C2607 C 0.9918 0.2297 0.63951 0.0
C2608 C 0.97189 0.20738 0.64398 0.0
C2609 C 0.97151 0.18562 0.64136 0.0
C2610 C 0.9469 0.164 0.64604 0.0
C2611 C 0.93359 0.14701 0.63249 0.0
C2612 C 0.95055 0.15008 0.65908 0.0
C2613 C 0.93329 0.17696 0.65134 0.0
C2614 C 0.94829 0.20201 0.65045 0.0
C2615 C 0.93973 0.21786 0.65451 0.0
C2616 C 0.91502 0.20783 0.65923 0.0
C2617 C 0.89916 0.18224 0.6597 0.0
C2618 C 0.90843 0.16665 0.65576 0.0
H2619 H 0.76835 0.76252 0.6142 0.0
H2620 H 0.82814 0.83318 0.62914 0.0
H2621 H 0.84593 0.81295 0.6443 0.0
H2622 H 0.76044 0.7317 0.64905 0.0
H2623 H 0.75467 0.70333 0.64059 0.0
H2624 H 0.74689 0.72322 0.63039 0.0
H2625 H 0.77416 0.72426 0.60801 0.0
H2626 H 0.78186 0.70422 0.61811 0.0
H2627 H 0.80624 0.73316 0.6114 0.0
H2628 H 0.85678 0.78519 0.65848 0.0
H2629 H 0.86058 0.75163 0.66988 0.0
H2630 H 0.79386 0.69898 0.6458 0.0
C2631 C 0.78536 0.77371 0.6205 0.0
C2632 C 0.7967 0.79945 0.62057 0.0
C2633 C 0.81885 0.81343 0.62909 0.0
C2634 C 0.8292 0.80212 0.6377 0.0
C2635 C 0.8173 0.77676 0.63765 0.0
C2636 C 0.79598 0.76269 0.6292 0.0
C2637 C 0.78676 0.73573 0.63132 0.0
C2638 C 0.76064 0.72274 0.63825 0.0
C2639 C 0.7873 0.72363 0.61631 0.0
C2640 C 0.80609 0.73691 0.64235 0.0
C2641 C 0.82357 0.76075 0.64584 0.0
C2642 C 0.84319 0.76643 0.65583 0.0
C2643 C 0.84511 0.74722 0.66233 0.0
C2644 C 0.82746 0.72261 0.65886 0.0
C2645 C 0.80768 0.71754 0.64875 0.0
H2646 H 0.98586 0.79577 0.6298 0.0
H2647 H 0.02181 0.75273 0.62329 0.0
H2648 H 0.98911 0.71939 0.63824 0.0
H2649 H 0.96149 0.77358 0.66843 0.0
H2650 H 0.93229 0.77238 0.6648 0.0
H2651 H 0.96009 0.79469 0.65542 0.0
H2652 H 0.93901 0.77922 0.62932 0.0
H2653 H 0.91095 0.75733 0.63854 0.0
H2654 H 0.92508 0.74724 0.62465 0.0
H2655 H 0.95105 0.68934 0.651 0.0
H2656 H 0.90795 0.66283 0.65939 0.0
H2657 H 0.89517 0.72418 0.65808 0.0
C2658 C 0.98698 0.77947 0.63183 0.0
C2659 C 0.00637 0.77675 0.62552 0.0
C2660 C 0.00708 0.75505 0.62806 0.0
C2661 C 0.98872 0.73615 0.63663 0.0
C2662 C 0.96967 0.73917 0.64257 0.0
C2663 C 0.96849 0.76017 0.64024 0.0
C2664 C 0.9445 0.75749 0.64653 0.0
C2665 C 0.94992 0.77561 0.65958 0.0
C2666 C 0.92897 0.76049 0.63401 0.0
C2667 C 0.93204 0.73141 0.65223 0.0
C2668 C 0.94723 0.72146 0.65009 0.0
C2669 C 0.93919 0.69704 0.65305 0.0
C2670 C 0.91473 0.68213 0.65783 0.0
C2671 C 0.89861 0.69166 0.65976 0.0
C2672 C 0.90751 0.71675 0.65726 0.0
H2673 H 0.18689 0.16601 0.62576 0.0
H2674 H 0.23387 0.24449 0.62288 0.0
H2675 H 0.26714 0.24213 0.63687 0.0
H2676 H 0.20795 0.15861 0.6632 0.0
H2677 H 0.20829 0.13101 0.65843 0.0
H2678 H 0.18639 0.1378 0.64936 0.0
H2679 H 0.20173 0.13497 0.62293 0.0
H2680 H 0.22295 0.12684 0.63143 0.0
H2681 H 0.23444 0.15242 0.61879 0.0
H2682 H 0.29671 0.23116 0.64825 0.0
H2683 H 0.3211 0.21213 0.65655 0.0
H2684 H 0.25564 0.14054 0.65248 0.0
C2685 C 0.204 0.18266 0.62843 0.0
C2686 C 0.20788 0.20549 0.62346 0.0
C2687 C 0.23065 0.22691 0.62673 0.0
C2688 C 0.24956 0.22573 0.63469 0.0
C2689 C 0.24543 0.20295 0.63925 0.0
C2690 C 0.22326 0.18176 0.63624 0.0
C2691 C 0.22456 0.15948 0.64127 0.0
C2692 C 0.20568 0.14592 0.65382 0.0
C2693 C 0.2207 0.14243 0.6278 0.0
C2694 C 0.25104 0.17146 0.64725 0.0
C2695 C 0.26262 0.19658 0.64609 0.0
C2696 C 0.28769 0.21158 0.64962 0.0
C2697 C 0.30135 0.20066 0.65442 0.0
C2698 C 0.28988 0.17505 0.65584 0.0
C2699 C 0.26447 0.16025 0.6521 0.0
H2700 H 0.76383 0.99339 0.6232 0.0
H2701 H 0.82303 0.98439 0.64275 0.0
H2702 H 0.83971 0.02396 0.65571 0.0
H2703 H 0.80214 0.05919 0.61706 0.0
H2704 H 0.77768 0.06551 0.62174 0.0
H2705 H 0.77013 0.03635 0.6137 0.0
H2706 H 0.74164 0.01456 0.63645 0.0
H2707 H 0.74924 0.04366 0.64459 0.0
H2708 H 0.75423 0.02233 0.65536 0.0
H2709 H 0.84964 0.06327 0.66709 0.0
H2710 H 0.85393 0.10218 0.67539 0.0
H2711 H 0.78903 0.08751 0.64864 0.0
C2712 C 0.78041 0.9999 0.6301 0.0
C2713 C 0.79186 0.98554 0.63216 0.0
C2714 C 0.81355 0.99472 0.64129 0.0
C2715 C 0.82329 0.01727 0.64864 0.0
C2716 C 0.81133 0.03068 0.64668 0.0
C2717 C 0.79053 0.02259 0.63756 0.0
C2718 C 0.78152 0.04097 0.6375 0.0
C2719 C 0.78296 0.05111 0.62155 0.0
C2720 C 0.75509 0.0297 0.64386 0.0
C2721 C 0.80044 0.06043 0.64809 0.0
C2722 C 0.81735 0.05393 0.65323 0.0
C2723 C 0.83649 0.06857 0.66319 0.0
C2724 C 0.83857 0.09058 0.66798 0.0
C2725 C 0.8216 0.09789 0.66289 0.0
C2726 C 0.8023 0.08255 0.65275 0.0
H2727 H 0.45855 0.32716 0.73095 0.0
H2728 H 0.47292 0.37137 0.69084 0.0
H2729 H 0.44459 0.33469 0.6761 0.0
H2730 H 0.4556 0.27571 0.71297 0.0
H2731 H 0.43039 0.25324 0.72411 0.0
H2732 H 0.45093 0.28307 0.73194 0.0
H2733 H 0.41337 0.28902 0.73753 0.0
H2734 H 0.39268 0.25908 0.72986 0.0
H2735 H 0.39211 0.2853 0.72245 0.0
H2736 H 0.41749 0.29319 0.66514 0.0
H2737 H 0.3898 0.24955 0.65919 0.0
H2738 H 0.3909 0.2319 0.70643 0.0
C2739 C 0.45536 0.32916 0.71915 0.0
C2740 C 0.46829 0.35216 0.71202 0.0
C2741 C 0.46369 0.35392 0.69649 0.0
C2742 C 0.44752 0.3332 0.68802 0.0
C2743 C 0.43571 0.31075 0.69523 0.0
C2744 C 0.43906 0.30857 0.71048 0.0
C2745 C 0.42415 0.28211 0.71533 0.0
C2746 C 0.4413 0.27301 0.72145 0.0
C2747 C 0.4044 0.27868 0.72698 0.0
C2748 C 0.41229 0.26984 0.70039 0.0
C2749 C 0.41933 0.28673 0.68894 0.0
C2750 C 0.41161 0.27979 0.67403 0.0
C2751 C 0.396 0.25494 0.67075 0.0
C2752 C 0.38809 0.23731 0.68233 0.0
C2753 C 0.39642 0.24496 0.69734 0.0
H2754 H 0.68559 0.15788 0.72362 0.0
H2755 H 0.64733 0.08 0.7151 0.0
H2756 H 0.68313 0.08474 0.70015 0.0
H2757 H 0.71742 0.17686 0.68682 0.0
H2758 H 0.74593 0.20105 0.69481 0.0
H2759 H 0.71661 0.19265 0.70359 0.0
H2760 H 0.73167 0.18479 0.72903 0.0
H2761 H 0.76147 0.19411 0.72079 0.0
H2762 H 0.74443 0.16469 0.72963 0.0
H2763 H 0.72481 0.0974 0.68854 0.0
H2764 H 0.76949 0.11667 0.6823 0.0
H2765 H 0.78085 0.18634 0.69821 0.0
C2766 C 0.68467 0.14198 0.7183 0.0
C2767 C 0.66373 0.1186 0.72028 0.0
C2768 C 0.6632 0.09804 0.71353 0.0
C2769 C 0.68339 0.10061 0.70499 0.0
C2770 C 0.70395 0.1239 0.70331 0.0
C2771 C 0.70475 0.14424 0.7098 0.0
C2772 C 0.72986 0.16685 0.70741 0.0
C2773 C 0.72731 0.18546 0.69757 0.0
C2774 C 0.7426 0.17827 0.72262 0.0
C2775 C 0.74334 0.15595 0.69905 0.0
C2776 C 0.72795 0.13121 0.69655 0.0
C2777 C 0.73684 0.11685 0.69012 0.0
C2778 C 0.76217 0.12794 0.68647 0.0
C2779 C 0.77826 0.15311 0.68922 0.0
C2780 C 0.76863 0.16725 0.69546 0.0
H2781 H 0.89855 0.56478 0.73549 0.0
H2782 H 0.83878 0.49465 0.71968 0.0
H2783 H 0.82378 0.51557 0.7029 0.0
H2784 H 0.86171 0.59506 0.73583 0.0
H2785 H 0.88709 0.62388 0.72972 0.0
H2786 H 0.89327 0.60339 0.74053 0.0
H2787 H 0.92246 0.60416 0.71942 0.0
H2788 H 0.91617 0.62447 0.70851 0.0
H2789 H 0.91074 0.59603 0.70035 0.0
H2790 H 0.81553 0.54388 0.68743 0.0
H2791 H 0.81306 0.57786 0.67561 0.0
H2792 H 0.87751 0.62962 0.70184 0.0
C2793 C 0.88214 0.55381 0.72864 0.0
C2794 C 0.87008 0.52802 0.72879 0.0
C2795 C 0.84873 0.51441 0.71954 0.0
C2796 C 0.83995 0.52611 0.71001 0.0
C2797 C 0.85253 0.55149 0.70991 0.0
C2798 C 0.873 0.56522 0.71909 0.0
C2799 C 0.88289 0.59229 0.71691 0.0
C2800 C 0.88113 0.60436 0.73162 0.0
C2801 C 0.90965 0.60498 0.71094 0.0
C2802 C 0.86487 0.59155 0.70503 0.0
C2803 C 0.84756 0.56785 0.70112 0.0
C2804 C 0.82898 0.56255 0.6904 0.0
C2805 C 0.82783 0.582 0.68368 0.0
C2806 C 0.84513 0.60648 0.68772 0.0
C2807 C 0.86399 0.61117 0.69846 0.0
H2808 H 0.50316 0.96281 0.1867 0.0
H2809 H 0.42491 0.91532 0.17626 0.0
H2810 H 0.43257 0.92885 0.14979 0.0
H2811 H 0.51265 0.01206 0.16314 0.0
H2812 H 0.54326 0.01925 0.15716 0.0
H2813 H 0.53188 0.0054 0.17527 0.0
H2814 H 0.5399 0.97017 0.16809 0.0
H2815 H 0.55142 0.98398 0.14997 0.0
H2816 H 0.52633 0.95287 0.15099 0.0
H2817 H 0.44832 0.94876 0.12456 0.0
H2818 H 0.47109 0.97315 0.1025 0.0
H2819 H 0.53961 0.00614 0.12879 0.0
C2820 C 0.48767 0.95499 0.17883 0.0
C2821 C 0.46335 0.93809 0.18371 0.0
C2822 C 0.44362 0.92862 0.17297 0.0
C2823 C 0.44781 0.93606 0.15784 0.0
C2824 C 0.47189 0.9529 0.15347 0.0
C2825 C 0.49153 0.96215 0.16362 0.0
C2826 C 0.51556 0.98032 0.15601 0.0
C2827 C 0.52647 0.00576 0.16333 0.0
C2828 C 0.53441 0.97129 0.15628 0.0
C2829 C 0.50628 0.98003 0.14007 0.0
C2830 C 0.48105 0.96404 0.13884 0.0
C2831 C 0.46816 0.96114 0.12535 0.0
C2832 C 0.48135 0.975 0.1128 0.0
C2833 C 0.5073 0.9916 0.11372 0.0
C2834 C 0.5198 0.99387 0.12762 0.0
H2835 H 0.06139 0.56049 0.16662 0.0
H2836 H 0.01902 0.49 0.1882 0.0
H2837 H 0.99664 0.47225 0.16433 0.0
H2838 H 0.01106 0.55599 0.14392 0.0
H2839 H 0.03005 0.57082 0.12773 0.0
H2840 H 0.04356 0.57805 0.1464 0.0
H2841 H 0.07664 0.56695 0.13805 0.0
H2842 H 0.06312 0.55954 0.11936 0.0
H2843 H 0.06678 0.53724 0.12996 0.0
H2844 H 0.97761 0.46215 0.1387 0.0
H2845 H 0.96254 0.46048 0.11263 0.0
H2846 H 0.01692 0.53701 0.1069 0.0
C2847 C 0.04737 0.54134 0.16631 0.0
C2848 C 0.0422 0.52661 0.17932 0.0
C2849 C 0.02373 0.50159 0.17838 0.0
C2850 C 0.0108 0.49133 0.16487 0.0
C2851 C 0.01647 0.50623 0.15227 0.0
C2852 C 0.03427 0.53069 0.15282 0.0
C2853 C 0.03629 0.54261 0.13761 0.0
C2854 C 0.02985 0.56308 0.139 0.0
C2855 C 0.06226 0.55215 0.13085 0.0
C2856 C 0.01663 0.52107 0.12854 0.0
C2857 C 0.00553 0.50028 0.13727 0.0
C2858 C 0.98625 0.47825 0.13171 0.0
C2859 C 0.9778 0.47748 0.11691 0.0
C2860 C 0.98863 0.49854 0.10775 0.0
C2861 C 0.00857 0.52055 0.11359 0.0
H2862 H 0.46567 0.49554 0.17952 0.0
H2863 H 0.46984 0.56438 0.169 0.0
H2864 H 0.47833 0.55985 0.14234 0.0
H2865 H 0.51522 0.504 0.15679 0.0
H2866 H 0.50171 0.47278 0.15045 0.0
H2867 H 0.49285 0.47957 0.16836 0.0
H2868 H 0.44657 0.45633 0.16012 0.0
H2869 H 0.45526 0.44919 0.14222 0.0
H2870 H 0.43735 0.46449 0.14276 0.0
H2871 H 0.49074 0.55045 0.11773 0.0
H2872 H 0.50453 0.5358 0.09612 0.0
H2873 H 0.4915 0.47214 0.12184 0.0
C2874 C 0.46768 0.50924 0.17147 0.0
C2875 C 0.46697 0.53025 0.17625 0.0
C2876 C 0.47029 0.54815 0.16552 0.0
C2877 C 0.47509 0.54573 0.15036 0.0
C2878 C 0.47646 0.52523 0.14606 0.0
C2879 C 0.47264 0.50715 0.15622 0.0
C2880 C 0.4767 0.48777 0.14872 0.0
C2881 C 0.49788 0.48593 0.15655 0.0
C2882 C 0.45253 0.46297 0.14844 0.0
C2883 C 0.48399 0.49815 0.13293 0.0
C2884 C 0.48354 0.51968 0.13166 0.0
C2885 C 0.49068 0.53334 0.11847 0.0
C2886 C 0.49838 0.52474 0.10619 0.0
C2887 C 0.49884 0.50258 0.10708 0.0
C2888 C 0.49145 0.48915 0.12071 0.0
H2889 H 0.98082 0.50759 0.83582 0.0
H2890 H 0.92287 0.43579 0.84939 0.0
H2891 H 0.93856 0.44479 0.87571 0.0
H2892 H 0.02816 0.50824 0.85839 0.0
H2893 H 0.04314 0.54028 0.86306 0.0
H2894 H 0.02592 0.52922 0.84564 0.0
H2895 H 0.9988 0.5482 0.85293 0.0
H2896 H 0.01604 0.55945 0.87036 0.0
H2897 H 0.9827 0.54041 0.87071 0.0
H2898 H 0.96185 0.46083 0.90032 0.0
H2899 H 0.9918 0.48219 0.92113 0.0
H2900 H 0.03519 0.54325 0.89146 0.0
C2901 C 0.97119 0.49401 0.84442 0.0
C2902 C 0.95053 0.47107 0.84064 0.0
C2903 C 0.93872 0.45348 0.8521 0.0
C2904 C 0.94745 0.45846 0.86707 0.0
C2905 C 0.96812 0.48109 0.87041 0.0
C2906 C 0.97987 0.49858 0.85941 0.0
C2907 C 0.0027 0.52078 0.86579 0.0
C2908 C 0.02637 0.52486 0.85774 0.0
C2909 C 0.99988 0.54356 0.86489 0.0
C2910 C 1.0021 0.51293 0.88201 0.0
C2911 C 0.98186 0.49009 0.88449 0.0
C2912 C 0.97767 0.47881 0.89853 0.0
C2913 C 0.99472 0.49112 0.91031 0.0
C2914 C 0.01584 0.5144 0.90795 0.0
C2915 C 0.01934 0.52541 0.89361 0.0
H2916 H 0.48548 0.46275 0.83057 0.0
H2917 H 0.56388 0.48682 0.83616 0.0
H2918 H 0.56228 0.49863 0.86254 0.0
H2919 H 0.48546 0.51017 0.85262 0.0
H2920 H 0.45544 0.49083 0.86086 0.0
H2921 H 0.46245 0.48358 0.84249 0.0
H2922 H 0.45146 0.44058 0.85179 0.0
H2923 H 0.44431 0.44766 0.87018 0.0
H2924 H 0.46683 0.43775 0.86834 0.0
H2925 H 0.55251 0.50865 0.8882 0.0
H2926 H 0.53526 0.51632 0.91127 0.0
H2927 H 0.46292 0.485 0.8894 0.0
C2928 C 0.50224 0.47025 0.83739 0.0
C2929 C 0.52485 0.47395 0.83122 0.0
C2930 C 0.54643 0.48413 0.84052 0.0
C2931 C 0.54568 0.49077 0.85557 0.0
C2932 C 0.5232 0.4871 0.86124 0.0
C2933 C 0.50185 0.47705 0.85247 0.0
C2934 C 0.48019 0.47547 0.86129 0.0
C2935 C 0.47031 0.49094 0.85387 0.0
C2936 C 0.45948 0.44878 0.863 0.0
C2937 C 0.49277 0.48636 0.87634 0.0
C2938 C 0.51755 0.49285 0.87607 0.0
C2939 C 0.53307 0.50349 0.88857 0.0
C2940 C 0.52304 0.50764 0.90168 0.0
C2941 C 0.49767 0.5012 0.90226 0.0
C2942 C 0.48242 0.49036 0.88934 0.0
H2943 H 0.50814 0.07209 0.84248 0.0
H2944 H 0.55681 0.04357 0.83069 0.0
H2945 H 0.55296 0.02789 0.85647 0.0
H2946 H 0.52697 0.08773 0.88143 0.0
H2947 H 0.49583 0.07734 0.88794 0.0
H2948 H 0.50439 0.08866 0.869 0.0
H2949 H 0.46817 0.04826 0.85826 0.0
H2950 H 0.45942 0.03688 0.87716 0.0
H2951 H 0.46589 0.01967 0.86344 0.0
H2952 H 0.54307 0.01428 0.8838 0.0
H2953 H 0.52484 0.00084 0.90922 0.0
H2954 H 0.47958 0.0345 0.90218 0.0
C2955 C 0.51794 0.06243 0.84512 0.0
C2956 C 0.53306 0.05952 0.83426 0.0
C2957 C 0.54567 0.04691 0.83866 0.0
C2958 C 0.54345 0.03767 0.85335 0.0
C2959 C 0.52827 0.04076 0.86361 0.0
C2960 C 0.5155 0.05259 0.85961 0.0
C2961 C 0.49901 0.05203 0.87238 0.0
C2962 C 0.50704 0.07799 0.87802 0.0
C2963 C 0.47149 0.03839 0.86752 0.0
C2964 C 0.50432 0.03784 0.88415 0.0
C2965 C 0.5216 0.03187 0.87899 0.0
C2966 C 0.5295 0.01885 0.88792 0.0
C2967 C 0.51916 0.01138 0.90237 0.0
C2968 C 0.50079 0.01657 0.90765 0.0
C2969 C 0.49352 0.03018 0.89841 0.0
H2970 H 0.1302 0.29793 0.51417 0.0
H2971 H 0.14179 0.23651 0.50662 0.0
H2972 H 0.15435 0.2499 0.48037 0.0
H2973 H 0.10605 0.29826 0.4765 0.0
H2974 H 0.12161 0.33109 0.47567 0.0
H2975 H 0.1123 0.31597 0.49363 0.0
H2976 H 0.15761 0.3414 0.5035 0.0
H2977 H 0.16706 0.35655 0.48557 0.0
H2978 H 0.18232 0.34098 0.49314 0.0
H2979 H 0.16658 0.27049 0.45504 0.0
H2980 H 0.17903 0.29759 0.43288 0.0
H2981 H 0.15983 0.34586 0.45687 0.0
C2982 C 0.13506 0.28714 0.50692 0.0
C2983 C 0.13498 0.26614 0.51245 0.0
C2984 C 0.1419 0.25275 0.50267 0.0
C2985 C 0.14893 0.26014 0.48772 0.0
C2986 C 0.14904 0.28103 0.48266 0.0
C2987 C 0.14234 0.29438 0.49196 0.0
C2988 C 0.14503 0.31669 0.4839 0.0
C2989 C 0.11974 0.31542 0.48233 0.0
C2990 C 0.16415 0.3403 0.49201 0.0
C2991 C 0.15451 0.31391 0.46868 0.0
C2992 C 0.15647 0.2931 0.46815 0.0
C2993 C 0.16502 0.28678 0.45531 0.0
C2994 C 0.17193 0.30223 0.44274 0.0
C2995 C 0.17044 0.32388 0.44309 0.0
C2996 C 0.16143 0.32959 0.45626 0.0
H2997 H 0.69105 0.83274 0.51521 0.0
H2998 H 0.75008 0.90633 0.50589 0.0
H2999 H 0.73683 0.90119 0.47914 0.0
H3000 H 0.69326 0.8054 0.47898 0.0
H3001 H 0.66 0.78605 0.4778 0.0
H3002 H 0.67518 0.79486 0.49599 0.0
H3003 H 0.64672 0.81221 0.50354 0.0
H3004 H 0.63157 0.8036 0.48534 0.0
H3005 H 0.64555 0.83482 0.49177 0.0
H3006 H 0.71642 0.88881 0.4537 0.0
H3007 H 0.6898 0.87017 0.43122 0.0
H3008 H 0.64331 0.80465 0.45684 0.0
C3009 C 0.70139 0.84758 0.50745 0.0
C3010 C 0.72165 0.86992 0.51258 0.0
C3011 C 0.73446 0.88911 0.50218 0.0
C3012 C 0.72712 0.88633 0.48697 0.0
C3013 C 0.70684 0.86427 0.4823 0.0
C3014 C 0.69412 0.84519 0.4922 0.0
C3015 C 0.67223 0.82383 0.48436 0.0
C3016 C 0.67536 0.80119 0.48428 0.0
C3017 C 0.64756 0.8183 0.49169 0.0
C3018 C 0.67453 0.83397 0.46857 0.0
C3019 C 0.69476 0.85725 0.46763 0.0
C3020 C 0.70062 0.87052 0.45428 0.0
C3021 C 0.68544 0.85973 0.44154 0.0
C3022 C 0.6645 0.83591 0.44221 0.0
C3023 C 0.65906 0.82294 0.45597 0.0
H3024 H 0.13251 0.82533 0.517 0.0
H3025 H 0.15472 0.90108 0.50861 0.0
H3026 H 0.16315 0.89617 0.48204 0.0
H3027 H 0.17804 0.82318 0.49386 0.0
H3028 H 0.15791 0.79267 0.4868 0.0
H3029 H 0.15238 0.80154 0.50509 0.0
H3030 H 0.1074 0.78896 0.49699 0.0
H3031 H 0.11273 0.77988 0.4787 0.0
H3032 H 0.10227 0.80177 0.48013 0.0
H3033 H 0.17126 0.884 0.45681 0.0
H3034 H 0.17734 0.86493 0.43417 0.0
H3035 H 0.14862 0.7964 0.45817 0.0
C3036 C 0.13879 0.84076 0.50951 0.0
C3037 C 0.14313 0.86368 0.51497 0.0
C3038 C 0.15164 0.88348 0.5048 0.0
C3039 C 0.15636 0.88084 0.48965 0.0
C3040 C 0.15239 0.85823 0.48471 0.0
C3041 C 0.14365 0.83846 0.49427 0.0
C3042 C 0.14152 0.81633 0.48605 0.0
C3043 C 0.15848 0.80794 0.49339 0.0
C3044 C 0.11436 0.7955 0.48543 0.0
C3045 C 0.15072 0.82689 0.47047 0.0
C3046 C 0.1568 0.85107 0.46998 0.0
C3047 C 0.16626 0.86497 0.45699 0.0
C3048 C 0.1695 0.85388 0.44412 0.0
C3049 C 0.16322 0.82901 0.44421 0.0
C3050 C 0.15373 0.81544 0.45766 0.0
H3051 H 0.61974 0.82278 0.18118 0.0
H3052 H 0.66776 0.80184 0.15806 0.0
H3053 H 0.6956 0.81444 0.18032 0.0
H3054 H 0.66905 0.87581 0.20147 0.0
H3055 H 0.65111 0.87005 0.21845 0.0
H3056 H 0.63563 0.86084 0.20036 0.0
H3057 H 0.60931 0.81654 0.20997 0.0
H3058 H 0.62483 0.82557 0.22804 0.0
H3059 H 0.62474 0.80108 0.21748 0.0
H3060 H 0.71734 0.82762 0.20499 0.0
H3061 H 0.73235 0.84117 0.23099 0.0
H3062 H 0.6704 0.85331 0.23895 0.0
C3063 C 0.63634 0.82125 0.1808 0.0
C3064 C 0.64172 0.81142 0.16793 0.0
C3065 C 0.66335 0.80928 0.16785 0.0
C3066 C 0.67926 0.8164 0.18041 0.0
C3067 C 0.67326 0.82557 0.19303 0.0
C3068 C 0.65239 0.82807 0.19338 0.0
C3069 C 0.64994 0.83761 0.20869 0.0
C3070 C 0.65153 0.86257 0.20715 0.0
C3071 C 0.62577 0.81909 0.2165 0.0
C3072 C 0.6726 0.83991 0.21685 0.0
C3073 C 0.68579 0.83296 0.20752 0.0
C3074 C 0.7073 0.83329 0.21239 0.0
C3075 C 0.71572 0.84111 0.22716 0.0
C3076 C 0.70269 0.84849 0.23698 0.0
C3077 C 0.68071 0.84769 0.23174 0.0
H3078 H 0.22804 0.81513 0.173 0.0
H3079 H 0.15562 0.80268 0.15883 0.0
H3080 H 0.14801 0.81223 0.18468 0.0
H3081 H 0.20929 0.78855 0.20996 0.0
H3082 H 0.23796 0.81044 0.21905 0.0
H3083 H 0.2378 0.80279 0.19941 0.0
H3084 H 0.25781 0.84848 0.19239 0.0
H3085 H 0.2581 0.85627 0.21201 0.0
H3086 H 0.24303 0.8655 0.19821 0.0
H3087 H 0.14874 0.82416 0.21189 0.0
H3088 H 0.15762 0.83745 0.23852 0.0
H3089 H 0.2287 0.84002 0.23534 0.0
C3090 C 0.21067 0.81459 0.17533 0.0
C3091 C 0.1924 0.80817 0.16392 0.0
C3092 C 0.16976 0.80736 0.16745 0.0
C3093 C 0.16531 0.81281 0.18207 0.0
C3094 C 0.1836 0.81889 0.19309 0.0
C3095 C 0.2058 0.81975 0.18992 0.0
C3096 C 0.22226 0.8266 0.20386 0.0
C3097 C 0.2271 0.80585 0.20833 0.0
C3098 C 0.24675 0.85064 0.20147 0.0
C3099 C 0.20596 0.82971 0.2153 0.0
C3100 C 0.18375 0.8252 0.20886 0.0
C3101 C 0.16597 0.82752 0.2171 0.0
C3102 C 0.17112 0.83488 0.2323 0.0
C3103 C 0.19383 0.83972 0.23917 0.0
C3104 C 0.21127 0.83677 0.23048 0.0
H3105 H 0.15677 0.37105 0.16557 0.0
H3106 H 0.23661 0.41759 0.17057 0.0
H3107 H 0.23405 0.40348 0.19682 0.0
H3108 H 0.14102 0.38075 0.20326 0.0
H3109 H 0.11599 0.34977 0.20516 0.0
H3110 H 0.12419 0.36348 0.18676 0.0
H3111 H 0.13024 0.32797 0.17729 0.0
H3112 H 0.12208 0.31415 0.19566 0.0
H3113 H 0.15124 0.32098 0.1873 0.0
H3114 H 0.2226 0.38414 0.22283 0.0
H3115 H 0.20344 0.36039 0.24589 0.0
H3116 H 0.13098 0.32748 0.22407 0.0
C3117 C 0.17374 0.37848 0.17219 0.0
C3118 C 0.19693 0.39548 0.16589 0.0
C3119 C 0.21866 0.40433 0.17498 0.0
C3120 C 0.21737 0.39655 0.18997 0.0
C3121 C 0.19421 0.37987 0.19581 0.0
C3122 C 0.17279 0.37092 0.18718 0.0
C3123 C 0.15023 0.35297 0.19607 0.0
C3124 C 0.13177 0.36231 0.19792 0.0
C3125 C 0.13772 0.32751 0.18863 0.0
C3126 C 0.16229 0.35313 0.21104 0.0
C3127 C 0.18766 0.36882 0.2107 0.0
C3128 C 0.20272 0.37187 0.22321 0.0
C3129 C 0.19162 0.3584 0.23633 0.0
C3130 C 0.16564 0.34198 0.23691 0.0
C3131 C 0.1509 0.33959 0.22403 0.0
H3132 H 0.8214 0.59754 0.84174 0.0
H3133 H 0.76774 0.62198 0.84779 0.0
H3134 H 0.77769 0.64033 0.82262 0.0
H3135 H 0.86718 0.65306 0.82389 0.0
H3136 H 0.87776 0.63767 0.81133 0.0
H3137 H 0.86516 0.62474 0.82947 0.0
H3138 H 0.83294 0.58444 0.81635 0.0
H3139 H 0.84534 0.59731 0.79816 0.0
H3140 H 0.81276 0.58516 0.8019 0.0
H3141 H 0.79292 0.65576 0.79636 0.0
H3142 H 0.81568 0.67082 0.77232 0.0
H3143 H 0.86233 0.64033 0.78427 0.0
C3144 C 0.8118 0.60689 0.83795 0.0
C3145 C 0.79327 0.60763 0.84693 0.0
C3146 C 0.7813 0.62013 0.84117 0.0
C3147 C 0.787 0.63091 0.82683 0.0
C3148 C 0.8051 0.6296 0.81833 0.0
C3149 C 0.81762 0.61826 0.82377 0.0
C3150 C 0.83726 0.6206 0.81266 0.0
C3151 C 0.86339 0.63487 0.81976 0.0
C3152 C 0.83174 0.59537 0.80693 0.0
C3153 C 0.83382 0.63506 0.80017 0.0
C3154 C 0.81488 0.63973 0.80357 0.0
C3155 C 0.80787 0.65233 0.79363 0.0
C3156 C 0.8208 0.66071 0.77998 0.0
C3157 C 0.84078 0.65683 0.77648 0.0
C3158 C 0.84723 0.64371 0.78672 0.0
H3159 H 0.37702 0.21178 0.84194 0.0
H3160 H 0.35763 0.13713 0.85199 0.0
H3161 H 0.34115 0.12479 0.82606 0.0
H3162 H 0.32144 0.19575 0.82129 0.0
H3163 H 0.33665 0.22044 0.80809 0.0
H3164 H 0.34884 0.22367 0.82698 0.0
H3165 H 0.39164 0.23382 0.81616 0.0
H3166 H 0.37957 0.23057 0.79723 0.0
H3167 H 0.39352 0.21283 0.80311 0.0
H3168 H 0.3264 0.12068 0.79875 0.0
H3169 H 0.31228 0.1248 0.7732 0.0
H3170 H 0.3377 0.20106 0.78239 0.0
C3171 C 0.36909 0.19273 0.83887 0.0
C3172 C 0.36872 0.17549 0.84917 0.0
C3173 C 0.35862 0.15089 0.84434 0.0
C3174 C 0.34904 0.14363 0.82962 0.0
C3175 C 0.34945 0.16111 0.8199 0.0
C3176 C 0.35904 0.18511 0.8244 0.0
C3177 C 0.35623 0.20018 0.81215 0.0
C3178 C 0.33981 0.21061 0.81745 0.0
C3179 C 0.38176 0.22055 0.80685 0.0
C3180 C 0.34339 0.18089 0.80003 0.0
C3181 C 0.33995 0.15853 0.80459 0.0
C3182 C 0.32889 0.13807 0.79511 0.0
C3183 C 0.32097 0.14054 0.78067 0.0
C3184 C 0.3238 0.16316 0.77603 0.0
C3185 C 0.33518 0.18354 0.78581 0.0
H3186 H 0.82458 0.21652 0.83598 0.0
H3187 H 0.79846 0.14521 0.85587 0.0
H3188 H 0.80542 0.13011 0.83172 0.0
H3189 H 0.79948 0.19482 0.79774 0.0
H3190 H 0.82611 0.21936 0.78867 0.0
H3191 H 0.81681 0.22405 0.80707 0.0
H3192 H 0.86089 0.23775 0.81758 0.0
H3193 H 0.87032 0.23315 0.79924 0.0
H3194 H 0.8737 0.21785 0.81544 0.0
H3195 H 0.81878 0.12366 0.80632 0.0
H3196 H 0.83729 0.12628 0.78126 0.0
H3197 H 0.85489 0.20158 0.77753 0.0
C3198 C 0.82017 0.19767 0.83526 0.0
C3199 C 0.81079 0.18204 0.8479 0.0
C3200 C 0.80518 0.15747 0.84635 0.0
C3201 C 0.80919 0.14873 0.83267 0.0
C3202 C 0.81874 0.1647 0.82054 0.0
C3203 C 0.82406 0.18863 0.82166 0.0
C3204 C 0.83537 0.20232 0.80714 0.0
C3205 C 0.81843 0.21062 0.79972 0.0
C3206 C 0.86162 0.22404 0.81003 0.0
C3207 C 0.83616 0.18251 0.79783 0.0
C3208 C 0.82631 0.16091 0.80577 0.0
C3209 C 0.82626 0.14038 0.79993 0.0
C3210 C 0.83686 0.14205 0.78572 0.0
C3211 C 0.84734 0.16406 0.77745 0.0
C3212 C 0.84659 0.18441 0.7835 0.0
H3213 H 0.31264 0.16873 0.50118 0.0
H3214 H 0.25406 0.0956 0.51183 0.0
H3215 H 0.26863 0.10174 0.53841 0.0
H3216 H 0.35913 0.16698 0.52375 0.0
H3217 H 0.37375 0.19853 0.52957 0.0
H3218 H 0.35748 0.1891 0.51175 0.0
H3219 H 0.32991 0.20732 0.51963 0.0
H3220 H 0.34614 0.21685 0.53749 0.0
H3221 H 0.31281 0.19774 0.53704 0.0
H3222 H 0.29031 0.11564 0.56378 0.0
H3223 H 0.31893 0.13524 0.58547 0.0
H3224 H 0.36425 0.19869 0.558 0.0
C3225 C 0.3027 0.15418 0.50918 0.0
C3226 C 0.28213 0.13175 0.50452 0.0
C3227 C 0.26988 0.11291 0.51521 0.0
C3228 C 0.27795 0.11627 0.53032 0.0
C3229 C 0.29845 0.13853 0.53455 0.0
C3230 C 0.31075 0.15712 0.52427 0.0
C3231 C 0.33318 0.1787 0.53149 0.0
C3232 C 0.3573 0.1836 0.52368 0.0
C3233 C 0.33033 0.2015 0.53141 0.0
C3234 C 0.33169 0.16929 0.54739 0.0
C3235 C 0.31135 0.14621 0.54899 0.0
C3236 C 0.30625 0.13374 0.56265 0.0
C3237 C 0.32253 0.14503 0.57493 0.0
C3238 C 0.34381 0.16844 0.57341 0.0
C3239 C 0.34823 0.18071 0.55946 0.0
H3240 H 0.89228 0.17441 0.50729 0.0
H3241 H 0.81464 0.12167 0.49826 0.0
H3242 H 0.80348 0.13004 0.52321 0.0
H3243 H 0.893 0.1632 0.54671 0.0
H3244 H 0.91241 0.1948 0.55202 0.0
H3245 H 0.91494 0.18454 0.53344 0.0
H3246 H 0.90658 0.21698 0.52134 0.0
H3247 H 0.90428 0.22752 0.53988 0.0
H3248 H 0.8791 0.2181 0.5265 0.0
H3249 H 0.80054 0.14195 0.54974 0.0
H3250 H 0.80555 0.16124 0.57491 0.0
H3251 H 0.88386 0.20929 0.56619 0.0
C3252 C 0.8729 0.16481 0.51044 0.0
C3253 C 0.85453 0.14678 0.5008 0.0
C3254 C 0.82935 0.13483 0.50553 0.0
C3255 C 0.82269 0.13959 0.51969 0.0
C3256 C 0.84126 0.15683 0.52904 0.0
C3257 C 0.86577 0.16968 0.52453 0.0
C3258 C 0.88183 0.18794 0.53666 0.0
C3259 C 0.90172 0.18227 0.54255 0.0
C3260 C 0.89364 0.21419 0.53074 0.0
C3261 C 0.8625 0.18314 0.54865 0.0
C3262 C 0.83928 0.16484 0.54408 0.0
C3263 C 0.81858 0.15649 0.5534 0.0
C3264 C 0.82158 0.16741 0.56767 0.0
C3265 C 0.84499 0.18673 0.57239 0.0
C3266 C 0.86572 0.19462 0.56277 0.0
H3267 H 0.82216 0.70691 0.50033 0.0
H3268 H 0.90193 0.75282 0.50636 0.0
H3269 H 0.89851 0.73728 0.53226 0.0
H3270 H 0.80579 0.71536 0.5382 0.0
H3271 H 0.7804 0.68445 0.53955 0.0
H3272 H 0.78919 0.699 0.52141 0.0
H3273 H 0.79476 0.66351 0.51131 0.0
H3274 H 0.78606 0.64888 0.52943 0.0
H3275 H 0.81527 0.65568 0.52116 0.0
H3276 H 0.88642 0.71627 0.55756 0.0
H3277 H 0.86665 0.6916 0.58016 0.0
H3278 H 0.79448 0.66116 0.55812 0.0
C3279 C 0.83892 0.71394 0.50711 0.0
C3280 C 0.86236 0.73108 0.50117 0.0
C3281 C 0.88381 0.7394 0.51046 0.0
C3282 C 0.88204 0.73081 0.52526 0.0
C3283 C 0.85868 0.71396 0.53072 0.0
C3284 C 0.83749 0.70567 0.52194 0.0
C3285 C 0.81461 0.68754 0.53051 0.0
C3286 C 0.79643 0.69717 0.53254 0.0
C3287 C 0.80194 0.66242 0.52263 0.0
C3288 C 0.82625 0.68683 0.54545 0.0
C3289 C 0.85169 0.7022 0.54535 0.0
C3290 C 0.86648 0.70432 0.5578 0.0
C3291 C 0.85501 0.69033 0.57066 0.0
C3292 C 0.82891 0.67441 0.57106 0.0
C3293 C 0.81447 0.67287 0.55822 0.0
loop_
_geom_bond_atom_site_label_1
_geom_bond_atom_site_label_2
_geom_bond_distance
_geom_bond_site_symmetry_2
_ccdc_geom_bond_type
C0 C1 1.391 . S
C0 C4 1.391 . S
C0 H42 0.948 . S
C1 C0 1.391 . S
C1 C2 1.391 . S
C2 C1 1.391 . S
C2 H58 0.947 . S
C2 C59 1.392 . S
C3 C4 1.391 . S
C3 C7 1.397 . S
C3 C59 1.419 . S
C4 C0 1.391 . S
C4 C3 1.391 . S
C4 C5 1.399 . S
C5 C4 1.399 . S
C5 C8 1.396 . S
C5 C17 1.453 . S
C5 C18 1.684 . S
H6 C30 0.948 . S
C7 C3 1.397 . S
C7 C8 1.394 . S
C7 C26 1.723 . S
C8 C5 1.396 . S
C8 C7 1.394 . S
C8 C38 1.723 . S
H9 C32 0.947 . S
H10 C33 0.948 . S
H11 C39 0.982 . S
H12 C40 0.979 . S
H13 C40 0.980 . S
H14 C40 0.983 . S
H15 C39 0.979 . S
H16 C39 0.977 . S
C17 C5 1.453 . S
C17 H46 0.982 . S
C17 H47 0.979 . S
C17 H48 0.977 . S
C18 C5 1.684 . S
C18 H43 0.979 . S
C18 H44 0.980 . S
C18 H45 0.983 . S
C19 C20 1.391 . S
C19 C24 1.391 . S
C19 H49 0.948 . S
C20 C19 1.391 . S
C20 C21 1.391 . S
C21 C20 1.391 . S
C21 C22 1.392 . S
C21 H50 0.947 . S
C22 C21 1.392 . S
C22 C23 1.419 . S
C22 H51 0.948 . S
C23 C22 1.419 . S
C23 C24 1.391 . S
C23 C27 1.397 . S
C24 C19 1.391 . S
C24 C23 1.391 . S
C24 C25 1.399 . S
C25 C24 1.399 . S
C25 C26 1.396 . S
C25 C28 1.453 . S
C25 C29 1.684 . S
C26 C7 1.723 . S
C26 C25 1.396 . S
C26 C27 1.394 . S
C27 C23 1.397 . S
C27 C26 1.394 . S
C27 C37 1.723 . S
C28 C25 1.453 . S
C28 H52 0.982 . S
C28 H53 0.979 . S
C28 H54 0.977 . S
C29 C25 1.684 . S
C29 H55 0.979 . S
C29 H56 0.980 . S
C29 H57 0.983 . S
C30 H6 0.948 . S
C30 C31 1.391 . S
C30 C35 1.391 . S
C31 C30 1.391 . S
C31 C32 1.391 . S
C32 H9 0.947 . S
C32 C31 1.391 . S
C32 C33 1.392 . S
C33 H10 0.948 . S
C33 C32 1.392 . S
C33 C34 1.419 . S
C34 C33 1.419 . S
C34 C35 1.391 . S
C34 C38 1.397 . S
C35 C30 1.391 . S
C35 C34 1.391 . S
C35 C36 1.399 . S
C36 C35 1.399 . S
C36 C37 1.396 . S
C36 C39 1.453 . S
C36 C40 1.684 . S
C37 C27 1.723 . S
C37 C36 1.396 . S
C37 C38 1.394 . S
C38 C8 1.723 . S
C38 C34 1.397 . S
C38 C37 1.394 . S
C39 H11 0.982 . S
C39 H15 0.979 . S
C39 H16 0.977 . S
C39 C36 1.453 . S
C40 H12 0.979 . S
C40 H13 0.980 . S
C40 H14 0.983 . S
C40 C36 1.684 . S
H41 C59 0.948 . S
H42 C0 0.948 . S
H43 C18 0.979 . S
H44 C18 0.980 . S
H45 C18 0.983 . S
H46 C17 0.982 . S
H47 C17 0.979 . S
H48 C17 0.977 . S
H49 C19 0.948 . S
H50 C21 0.947 . S
H51 C22 0.948 . S
H52 C28 0.982 . S
H53 C28 0.979 . S
H54 C28 0.977 . S
H55 C29 0.979 . S
H56 C29 0.980 . S
H57 C29 0.983 . S
H58 C2 0.947 . S
C59 C2 1.392 . S
C59 C3 1.419 . S
C59 H41 0.948 . S
C60 C61 1.391 . S
C60 C64 1.391 . S
C60 H102 0.948 . S
C61 C60 1.391 . S
C61 C62 1.391 . S
C62 C61 1.391 . S
C62 H118 0.947 . S
C62 C119 1.392 . S
C63 C64 1.391 . S
C63 C67 1.397 . S
C63 C119 1.419 . S
C64 C60 1.391 . S
C64 C63 1.391 . S
C64 C65 1.399 . S
C65 C64 1.399 . S
C65 C68 1.396 . S
C65 C77 1.453 . S
C65 C78 1.684 . S
H66 C90 0.948 . S
C67 C63 1.397 . S
C67 C68 1.394 . S
C67 C86 1.723 . S
C68 C65 1.396 . S
C68 C67 1.394 . S
C68 C98 1.723 . S
H69 C92 0.947 . S
H70 C93 0.948 . S
H71 C99 0.982 . S
H72 C100 0.979 . S
H73 C100 0.980 . S
H74 C100 0.983 . S
H75 C99 0.979 . S
H76 C99 0.977 . S
C77 C65 1.453 . S
C77 H106 0.982 . S
C77 H107 0.979 . S
C77 H108 0.977 . S
C78 C65 1.684 . S
C78 H103 0.979 . S
C78 H104 0.980 . S
C78 H105 0.983 . S
C79 C80 1.391 . S
C79 C84 1.391 . S
C79 H109 0.948 . S
C80 C79 1.391 . S
C80 C81 1.391 . S
C81 C80 1.391 . S
C81 C82 1.392 . S
C81 H110 0.947 . S
C82 C81 1.392 . S
C82 C83 1.419 . S
C82 H111 0.948 . S
C83 C82 1.419 . S
C83 C84 1.391 . S
C83 C87 1.397 . S
C84 C79 1.391 . S
C84 C83 1.391 . S
C84 C85 1.399 . S
C85 C84 1.399 . S
C85 C86 1.396 . S
C85 C88 1.453 . S
C85 C89 1.684 . S
C86 C67 1.723 . S
C86 C85 1.396 . S
C86 C87 1.394 . S
C87 C83 1.397 . S
C87 C86 1.394 . S
C87 C97 1.723 . S
C88 C85 1.453 . S
C88 H112 0.982 . S
C88 H113 0.979 . S
C88 H114 0.977 . S
C89 C85 1.684 . S
C89 H115 0.979 . S
C89 H116 0.980 . S
C89 H117 0.983 . S
C90 H66 0.948 . S
C90 C91 1.391 . S
C90 C95 1.391 . S
C91 C90 1.391 . S
C91 C92 1.391 . S
C92 H69 0.947 . S
C92 C91 1.391 . S
C92 C93 1.392 . S
C93 H70 0.948 . S
C93 C92 1.392 . S
C93 C94 1.419 . S
C94 C93 1.419 . S
C94 C95 1.391 . S
C94 C98 1.397 . S
C95 C90 1.391 . S
C95 C94 1.391 . S
C95 C96 1.399 . S
C96 C95 1.399 . S
C96 C97 1.396 . S
C96 C99 1.453 . S
C96 C100 1.684 . S
C97 C87 1.723 . S
C97 C96 1.396 . S
C97 C98 1.394 . S
C98 C68 1.723 . S
C98 C94 1.397 . S
C98 C97 1.394 . S
C99 H71 0.982 . S
C99 H75 0.979 . S
C99 H76 0.977 . S
C99 C96 1.453 . S
C100 H72 0.979 . S
C100 H73 0.980 . S
C100 H74 0.983 . S
C100 C96 1.684 . S
H101 C119 0.948 . S
H102 C60 0.948 . S
H103 C78 0.979 . S
H104 C78 0.980 . S
H105 C78 0.983 . S
H106 C77 0.982 . S
H107 C77 0.979 . S
H108 C77 0.977 . S
H109 C79 0.948 . S
H110 C81 0.947 . S
H111 C82 0.948 . S
H112 C88 0.982 . S
H113 C88 0.979 . S
H114 C88 0.977 . S
H115 C89 0.979 . S
H116 C89 0.980 . S
H117 C89 0.983 . S
H118 C62 0.947 . S
C119 C62 1.392 . S
C119 C63 1.419 . S
C119 H101 0.948 . S
C120 C121 1.391 . S
C120 C124 1.391 . S
C120 H162 0.948 . S
C121 C120 1.391 . S
C121 C122 1.391 . S
C122 C121 1.391 . S
C122 H178 0.947 . S
C122 C179 1.392 . S
C123 C124 1.391 . S
C123 C127 1.397 . S
C123 C179 1.419 . S
C124 C120 1.391 . S
C124 C123 1.391 . S
C124 C125 1.399 . S
C125 C124 1.399 . S
C125 C128 1.396 . S
C125 C137 1.453 . S
C125 C138 1.684 . S
H126 C150 0.948 . S
C127 C123 1.397 . S
C127 C128 1.394 . S
C127 C146 1.723 . S
C128 C125 1.396 . S
C128 C127 1.394 . S
C128 C158 1.723 . S
H129 C152 0.947 . S
H130 C153 0.948 . S
H131 C159 0.982 . S
H132 C160 0.979 . S
H133 C160 0.980 . S
H134 C160 0.983 . S
H135 C159 0.979 . S
H136 C159 0.977 . S
C137 C125 1.453 . S
C137 H166 0.982 . S
C137 H167 0.979 . S
C137 H168 0.977 . S
C138 C125 1.684 . S
C138 H163 0.979 . S
C138 H164 0.980 . S
C138 H165 0.983 . S
C139 C140 1.391 . S
C139 C144 1.391 . S
C139 H169 0.948 . S
C140 C139 1.391 . S
C140 C141 1.391 . S
C141 C140 1.391 . S
C141 C142 1.392 . S
C141 H170 0.947 . S
C142 C141 1.392 . S
C142 C143 1.419 . S
C142 H171 0.948 . S
C143 C142 1.419 . S
C143 C144 1.391 . S
C143 C147 1.397 . S
C144 C139 1.391 . S
C144 C143 1.391 . S
C144 C145 1.399 . S
C145 C144 1.399 . S
C145 C146 1.396 . S
C145 C148 1.453 . S
C145 C149 1.684 . S
C146 C127 1.723 . S
C146 C145 1.396 . S
C146 C147 1.394 . S
C147 C143 1.397 . S
C147 C146 1.394 . S
C147 C157 1.723 . S
C148 C145 1.453 . S
C148 H172 0.982 . S
C148 H173 0.979 . S
C148 H174 0.977 . S
C149 C145 1.684 . S
C149 H175 0.979 . S
C149 H176 0.980 . S
C149 H177 0.983 . S
C150 H126 0.948 . S
C150 C151 1.391 . S
C150 C155 1.391 . S
C151 C150 1.391 . S
C151 C152 1.391 . S
C152 H129 0.947 . S
C152 C151 1.391 . S
C152 C153 1.392 . S
C153 H130 0.948 . S
C153 C152 1.392 . S
C153 C154 1.419 . S
C154 C153 1.419 . S
C154 C155 1.391 . S
C154 C158 1.397 . S
C155 C150 1.391 . S
C155 C154 1.391 . S
C155 C156 1.399 . S
C156 C155 1.399 . S
C156 C157 1.396 . S
C156 C159 1.453 . S
C156 C160 1.684 . S
C157 C147 1.723 . S
C157 C156 1.396 . S
C157 C158 1.394 . S
C158 C128 1.723 . S
C158 C154 1.397 . S
C158 C157 1.394 . S
C159 H131 0.982 . S
C159 H135 0.979 . S
C159 H136 0.977 . S
C159 C156 1.453 . S
C160 H132 0.979 . S
C160 H133 0.980 . S
C160 H134 0.983 . S
C160 C156 1.684 . S
H161 C179 0.948 . S
H162 C120 0.948 . S
H163 C138 0.979 . S
H164 C138 0.980 . S
H165 C138 0.983 . S
H166 C137 0.982 . S
H167 C137 0.979 . S
H168 C137 0.977 . S
H169 C139 0.948 . S
H170 C141 0.947 . S
H171 C142 0.948 . S
H172 C148 0.982 . S
H173 C148 0.979 . S
H174 C148 0.977 . S
H175 C149 0.979 . S
H176 C149 0.980 . S
H177 C149 0.983 . S
H178 C122 0.947 . S
C179 C122 1.392 . S
C179 C123 1.419 . S
C179 H161 0.948 . S
C180 C181 1.391 . S
C180 C184 1.391 . S
C180 H222 0.948 . S
C181 C180 1.391 . S
C181 C182 1.391 . S
C182 C181 1.391 . S
C182 H238 0.947 . S
C182 C239 1.392 . S
C183 C184 1.391 . S
C183 C187 1.397 . S
C183 C239 1.419 . S
C184 C180 1.391 . S
C184 C183 1.391 . S
C184 C185 1.399 . S
C185 C184 1.399 . S
C185 C188 1.396 . S
C185 C197 1.453 . S
C185 C198 1.684 . S
H186 C210 0.948 . S
C187 C183 1.397 . S
C187 C188 1.394 . S
C187 C206 1.723 . S
C188 C185 1.396 . S
C188 C187 1.394 . S
C188 C218 1.723 . S
H189 C212 0.947 . S
H190 C213 0.948 . S
H191 C219 0.982 . S
H192 C220 0.979 . S
H193 C220 0.980 . S
H194 C220 0.983 . S
H195 C219 0.979 . S
H196 C219 0.977 . S
C197 C185 1.453 . S
C197 H226 0.982 . S
C197 H227 0.979 . S
C197 H228 0.977 . S
C198 C185 1.684 . S
C198 H223 0.979 . S
C198 H224 0.980 . S
C198 H225 0.983 . S
C199 C200 1.391 . S
C199 C204 1.391 . S
C199 H229 0.948 . S
C200 C199 1.391 . S
C200 C201 1.391 . S
C201 C200 1.391 . S
C201 C202 1.392 . S
C201 H230 0.947 . S
C202 C201 1.392 . S
C202 C203 1.419 . S
C202 H231 0.948 . S
C203 C202 1.419 . S
C203 C204 1.391 . S
C203 C207 1.397 . S
C204 C199 1.391 . S
C204 C203 1.391 . S
C204 C205 1.399 . S
C205 C204 1.399 . S
C205 C206 1.396 . S
C205 C208 1.453 . S
C205 C209 1.684 . S
C206 C187 1.723 . S
C206 C205 1.396 . S
C206 C207 1.394 . S
C207 C203 1.397 . S
C207 C206 1.394 . S
C207 C217 1.723 . S
C208 C205 1.453 . S
C208 H232 0.982 . S
C208 H233 0.979 . S
C208 H234 0.977 . S
C209 C205 1.684 . S
C209 H235 0.979 . S
C209 H236 0.980 . S
C209 H237 0.983 . S
C210 H186 0.948 . S
C210 C211 1.391 . S
C210 C215 1.391 . S
C211 C210 1.391 . S
C211 C212 1.391 . S
C212 H189 0.947 . S
C212 C211 1.391 . S
C212 C213 1.392 . S
C213 H190 0.948 . S
C213 C212 1.392 . S
C213 C214 1.419 . S
C214 C213 1.419 . S
C214 C215 1.391 . S
C214 C218 1.397 . S
C215 C210 1.391 . S
C215 C214 1.391 . S
C215 C216 1.399 . S
C216 C215 1.399 . S
C216 C217 1.396 . S
C216 C219 1.453 . S
C216 C220 1.684 . S
C217 C207 1.723 . S
C217 C216 1.396 . S
C217 C218 1.394 . S
C218 C188 1.723 . S
C218 C214 1.397 . S
C218 C217 1.394 . S
C219 H191 0.982 . S
C219 H195 0.979 . S
C219 H196 0.977 . S
C219 C216 1.453 . S
C220 H192 0.979 . S
C220 H193 0.980 . S
C220 H194 0.983 . S
C220 C216 1.684 . S
H221 C239 0.948 . S
H222 C180 0.948 . S
H223 C198 0.979 . S
H224 C198 0.980 . S
H225 C198 0.983 . S
H226 C197 0.982 . S
H227 C197 0.979 . S
H228 C197 0.977 . S
H229 C199 0.948 . S
H230 C201 0.947 . S
H231 C202 0.948 . S
H232 C208 0.982 . S
H233 C208 0.979 . S
H234 C208 0.977 . S
H235 C209 0.979 . S
H236 C209 0.980 . S
H237 C209 0.983 . S
H238 C182 0.947 . S
C239 C182 1.392 . S
C239 C183 1.419 . S
C239 H221 0.948 . S
C240 C241 1.391 . S
C240 C244 1.391 . S
C240 H282 0.948 . S
C241 C240 1.391 . S
C241 C242 1.391 . S
C242 C241 1.391 . S
C242 H298 0.947 . S
C242 C299 1.392 . S
C243 C244 1.391 . S
C243 C247 1.397 . S
C243 C299 1.419 . S
C244 C240 1.391 . S
C244 C243 1.391 . S
C244 C245 1.399 . S
C245 C244 1.399 . S
C245 C248 1.396 . S
C245 C257 1.453 . S
C245 C258 1.684 . S
H246 C270 0.948 . S
C247 C243 1.397 . S
C247 C248 1.394 . S
C247 C266 1.723 . S
C248 C245 1.396 . S
C248 C247 1.394 . S
C248 C278 1.723 . S
H249 C272 0.947 . S
H250 C273 0.948 . S
H251 C279 0.982 . S
H252 C280 0.979 . S
H253 C280 0.980 . S
H254 C280 0.983 . S
H255 C279 0.979 . S
H256 C279 0.977 . S
C257 C245 1.453 . S
C257 H286 0.982 . S
C257 H287 0.979 . S
C257 H288 0.977 . S
C258 C245 1.684 . S
C258 H283 0.979 . S
C258 H284 0.980 . S
C258 H285 0.983 . S
C259 C260 1.391 . S
C259 C264 1.391 . S
C259 H289 0.948 . S
C260 C259 1.391 . S
C260 C261 1.391 . S
C261 C260 1.391 . S
C261 C262 1.392 . S
C261 H290 0.947 . S
C262 C261 1.392 . S
C262 C263 1.419 . S
C262 H291 0.948 . S
C263 C262 1.419 . S
C263 C264 1.391 . S
C263 C267 1.397 . S
C264 C259 1.391 . S
C264 C263 1.391 . S
C264 C265 1.399 . S
C265 C264 1.399 . S
C265 C266 1.396 . S
C265 C268 1.453 . S
C265 C269 1.684 . S
C266 C247 1.723 . S
C266 C265 1.396 . S
C266 C267 1.394 . S
C267 C263 1.397 . S
C267 C266 1.394 . S
C267 C277 1.723 . S
C268 C265 1.453 . S
C268 H292 0.982 . S
C268 H293 0.979 . S
C268 H294 0.977 . S
C269 C265 1.684 . S
C269 H295 0.979 . S
C269 H296 0.980 . S
C269 H297 0.983 . S
C270 H246 0.948 . S
C270 C271 1.391 . S
C270 C275 1.391 . S
C271 C270 1.391 . S
C271 C272 1.391 . S
C272 H249 0.947 . S
C272 C271 1.391 . S
C272 C273 1.392 . S
C273 H250 0.948 . S
C273 C272 1.392 . S
C273 C274 1.419 . S
C274 C273 1.419 . S
C274 C275 1.391 . S
C274 C278 1.397 . S
C275 C270 1.391 . S
C275 C274 1.391 . S
C275 C276 1.399 . S
C276 C275 1.399 . S
C276 C277 1.396 . S
C276 C279 1.453 . S
C276 C280 1.684 . S
C277 C267 1.723 . S
C277 C276 1.396 . S
C277 C278 1.394 . S
C278 C248 1.723 . S
C278 C274 1.397 . S
C278 C277 1.394 . S
C279 H251 0.982 . S
C279 H255 0.979 . S
C279 H256 0.977 . S
C279 C276 1.453 . S
C280 H252 0.979 . S
C280 H253 0.980 . S
C280 H254 0.983 . S
C280 C276 1.684 . S
H281 C299 0.948 . S
H282 C240 0.948 . S
H283 C258 0.979 . S
H284 C258 0.980 . S
H285 C258 0.983 . S
H286 C257 0.982 . S
H287 C257 0.979 . S
H288 C257 0.977 . S
H289 C259 0.948 . S
H290 C261 0.947 . S
H291 C262 0.948 . S
H292 C268 0.982 . S
H293 C268 0.979 . S
H294 C268 0.977 . S
H295 C269 0.979 . S
H296 C269 0.980 . S
H297 C269 0.983 . S
H298 C242 0.947 . S
C299 C242 1.392 . S
C299 C243 1.419 . S
C299 H281 0.948 . S
C300 C301 1.391 . S
C300 C304 1.391 . S
C300 H342 0.948 . S
C301 C300 1.391 . S
C301 C302 1.391 . S
C302 C301 1.391 . S
C302 H358 0.947 . S
C302 C359 1.392 . S
C303 C304 1.391 . S
C303 C307 1.397 . S
C303 C359 1.419 . S
C304 C300 1.391 . S
C304 C303 1.391 . S
C304 C305 1.399 . S
C305 C304 1.399 . S
C305 C308 1.396 . S
C305 C317 1.453 . S
C305 C318 1.684 . S
H306 C330 0.948 . S
C307 C303 1.397 . S
C307 C308 1.394 . S
C307 C326 1.723 . S
C308 C305 1.396 . S
C308 C307 1.394 . S
C308 C338 1.723 . S
H309 C332 0.947 . S
H310 C333 0.948 . S
H311 C339 0.982 . S
H312 C340 0.979 . S
H313 C340 0.980 . S
H314 C340 0.983 . S
H315 C339 0.979 . S
H316 C339 0.977 . S
C317 C305 1.453 . S
C317 H346 0.982 . S
C317 H347 0.979 . S
C317 H348 0.977 . S
C318 C305 1.684 . S
C318 H343 0.979 . S
C318 H344 0.980 . S
C318 H345 0.983 . S
C319 C320 1.391 . S
C319 C324 1.391 . S
C319 H349 0.948 . S
C320 C319 1.391 . S
C320 C321 1.391 . S
C321 C320 1.391 . S
C321 C322 1.392 . S
C321 H350 0.947 . S
C322 C321 1.392 . S
C322 C323 1.419 . S
C322 H351 0.948 . S
C323 C322 1.419 . S
C323 C324 1.391 . S
C323 C327 1.397 . S
C324 C319 1.391 . S
C324 C323 1.391 . S
C324 C325 1.399 . S
C325 C324 1.399 . S
C325 C326 1.396 . S
C325 C328 1.453 . S
C325 C329 1.684 . S
C326 C307 1.723 . S
C326 C325 1.396 . S
C326 C327 1.394 . S
C327 C323 1.397 . S
C327 C326 1.394 . S
C327 C337 1.723 . S
C328 C325 1.453 . S
C328 H352 0.982 . S
C328 H353 0.979 . S
C328 H354 0.977 . S
C329 C325 1.684 . S
C329 H355 0.979 . S
C329 H356 0.980 . S
C329 H357 0.983 . S
C330 H306 0.948 . S
C330 C331 1.391 . S
C330 C335 1.391 . S
C331 C330 1.391 . S
C331 C332 1.391 . S
C332 H309 0.947 . S
C332 C331 1.391 . S
C332 C333 1.392 . S
C333 H310 0.948 . S
C333 C332 1.392 . S
C333 C334 1.419 . S
C334 C333 1.419 . S
C334 C335 1.391 . S
C334 C338 1.397 . S
C335 C330 1.391 . S
C335 C334 1.391 . S
C335 C336 1.399 . S
C336 C335 1.399 . S
C336 C337 1.396 . S
C336 C339 1.453 . S
C336 C340 1.684 . S
C337 C327 1.723 . S
C337 C336 1.396 . S
C337 C338 1.394 . S
C338 C308 1.723 . S
C338 C334 1.397 . S
C338 C337 1.394 . S
C339 H311 0.982 . S
C339 H315 0.979 . S
C339 H316 0.977 . S
C339 C336 1.453 . S
C340 H312 0.979 . S
C340 H313 0.980 . S
C340 H314 0.983 . S
C340 C336 1.684 . S
H341 C359 0.948 . S
H342 C300 0.948 . S
H343 C318 0.979 . S
H344 C318 0.980 . S
H345 C318 0.983 . S
H346 C317 0.982 . S
H347 C317 0.979 . S
H348 C317 0.977 . S
H349 C319 0.948 . S
H350 C321 0.947 . S
H351 C322 0.948 . S
H352 C328 0.982 . S
H353 C328 0.979 . S
H354 C328 0.977 . S
H355 C329 0.979 . S
H356 C329 0.980 . S
H357 C329 0.983 . S
H358 C302 0.947 . S
C359 C302 1.392 . S
C359 C303 1.419 . S
C359 H341 0.948 . S
C360 C361 1.391 . S
C360 C364 1.391 . S
C360 H402 0.948 . S
C361 C360 1.391 . S
C361 C362 1.391 . S
C362 C361 1.391 . S
C362 H418 0.947 . S
C362 C419 1.392 . S
C363 C364 1.391 . S
C363 C367 1.397 . S
C363 C419 1.419 . S
C364 C360 1.391 . S
C364 C363 1.391 . S
C364 C365 1.399 . S
C365 C364 1.399 . S
C365 C368 1.396 . S
C365 C377 1.453 . S
C365 C378 1.684 . S
H366 C390 0.948 . S
C367 C363 1.397 . S
C367 C368 1.394 . S
C367 C386 1.723 . S
C368 C365 1.396 . S
C368 C367 1.394 . S
C368 C398 1.723 . S
H369 C392 0.947 . S
H370 C393 0.948 . S
H371 C399 0.982 . S
H372 C400 0.979 . S
H373 C400 0.980 . S
H374 C400 0.983 . S
H375 C399 0.979 . S
H376 C399 0.977 . S
C377 C365 1.453 . S
C377 H406 0.982 . S
C377 H407 0.979 . S
C377 H408 0.977 . S
C378 C365 1.684 . S
C378 H403 0.979 . S
C378 H404 0.980 . S
C378 H405 0.983 . S
C379 C380 1.391 . S
C379 C384 1.391 . S
C379 H409 0.948 . S
C380 C379 1.391 . S
C380 C381 1.391 . S
C381 C380 1.391 . S
C381 C382 1.392 . S
C381 H410 0.947 . S
C382 C381 1.392 . S
C382 C383 1.419 . S
C382 H411 0.948 . S
C383 C382 1.419 . S
C383 C384 1.391 . S
C383 C387 1.397 . S
C384 C379 1.391 . S
C384 C383 1.391 . S
C384 C385 1.399 . S
C385 C384 1.399 . S
C385 C386 1.396 . S
C385 C388 1.453 . S
C385 C389 1.684 . S
C386 C367 1.723 . S
C386 C385 1.396 . S
C386 C387 1.394 . S
C387 C383 1.397 . S
C387 C386 1.394 . S
C387 C397 1.723 . S
C388 C385 1.453 . S
C388 H412 0.982 . S
C388 H413 0.979 . S
C388 H414 0.977 . S
C389 C385 1.684 . S
C389 H415 0.979 . S
C389 H416 0.980 . S
C389 H417 0.983 . S
C390 H366 0.948 . S
C390 C391 1.391 . S
C390 C395 1.391 . S
C391 C390 1.391 . S
C391 C392 1.391 . S
C392 H369 0.947 . S
C392 C391 1.391 . S
C392 C393 1.392 . S
C393 H370 0.948 . S
C393 C392 1.392 . S
C393 C394 1.419 . S
C394 C393 1.419 . S
C394 C395 1.391 . S
C394 C398 1.397 . S
C395 C390 1.391 . S
C395 C394 1.391 . S
C395 C396 1.399 . S
C396 C395 1.399 . S
C396 C397 1.396 . S
C396 C399 1.453 . S
C396 C400 1.684 . S
C397 C387 1.723 . S
C397 C396 1.396 . S
C397 C398 1.394 . S
C398 C368 1.723 . S
C398 C394 1.397 . S
C398 C397 1.394 . S
C399 H371 0.982 . S
C399 H375 0.979 . S
C399 H376 0.977 . S
C399 C396 1.453 . S
C400 H372 0.979 . S
C400 H373 0.980 . S
C400 H374 0.983 . S
C400 C396 1.684 . S
H401 C419 0.948 . S
H402 C360 0.948 . S
H403 C378 0.979 . S
H404 C378 0.980 . S
H405 C378 0.983 . S
H406 C377 0.982 . S
H407 C377 0.979 . S
H408 C377 0.977 . S
H409 C379 0.948 . S
H410 C381 0.947 . S
H411 C382 0.948 . S
H412 C388 0.982 . S
H413 C388 0.979 . S
H414 C388 0.977 . S
H415 C389 0.979 . S
H416 C389 0.980 . S
H417 C389 0.983 . S
H418 C362 0.947 . S
C419 C362 1.392 . S
C419 C363 1.419 . S
C419 H401 0.948 . S
C420 C421 1.391 . S
C420 C424 1.391 . S
C420 H462 0.948 . S
C421 C420 1.391 . S
C421 C422 1.391 . S
C422 C421 1.391 . S
C422 H478 0.947 . S
C422 C479 1.392 . S
C423 C424 1.391 . S
C423 C427 1.397 . S
C423 C479 1.419 . S
C424 C420 1.391 . S
C424 C423 1.391 . S
C424 C425 1.399 . S
C425 C424 1.399 . S
C425 C428 1.396 . S
C425 C437 1.453 . S
C425 C438 1.684 . S
H426 C450 0.948 . S
C427 C423 1.397 . S
C427 C428 1.394 . S
C427 C446 1.723 . S
C428 C425 1.396 . S
C428 C427 1.394 . S
C428 C458 1.723 . S
H429 C452 0.947 . S
H430 C453 0.948 . S
H431 C459 0.982 . S
H432 C460 0.979 . S
H433 C460 0.980 . S
H434 C460 0.983 . S
H435 C459 0.979 . S
H436 C459 0.977 . S
C437 C425 1.453 . S
C437 H466 0.982 . S
C437 H467 0.979 . S
C437 H468 0.977 . S
C438 C425 1.684 . S
C438 H463 0.979 . S
C438 H464 0.980 . S
C438 H465 0.983 . S
C439 C440 1.391 . S
C439 C444 1.391 . S
C439 H469 0.948 . S
C440 C439 1.391 . S
C440 C441 1.391 . S
C441 C440 1.391 . S
C441 C442 1.392 . S
C441 H470 0.947 . S
C442 C441 1.392 . S
C442 C443 1.419 . S
C442 H471 0.948 . S
C443 C442 1.419 . S
C443 C444 1.391 . S
C443 C447 1.397 . S
C444 C439 1.391 . S
C444 C443 1.391 . S
C444 C445 1.399 . S
C445 C444 1.399 . S
C445 C446 1.396 . S
C445 C448 1.453 . S
C445 C449 1.684 . S
C446 C427 1.723 . S
C446 C445 1.396 . S
C446 C447 1.394 . S
C447 C443 1.397 . S
C447 C446 1.394 . S
C447 C457 1.723 . S
C448 C445 1.453 . S
C448 H472 0.982 . S
C448 H473 0.979 . S
C448 H474 0.977 . S
C449 C445 1.684 . S
C449 H475 0.979 . S
C449 H476 0.980 . S
C449 H477 0.983 . S
C450 H426 0.948 . S
C450 C451 1.391 . S
C450 C455 1.391 . S
C451 C450 1.391 . S
C451 C452 1.391 . S
C452 H429 0.947 . S
C452 C451 1.391 . S
C452 C453 1.392 . S
C453 H430 0.948 . S
C453 C452 1.392 . S
C453 C454 1.419 . S
C454 C453 1.419 . S
C454 C455 1.391 . S
C454 C458 1.397 . S
C455 C450 1.391 . S
C455 C454 1.391 . S
C455 C456 1.399 . S
C456 C455 1.399 . S
C456 C457 1.396 . S
C456 C459 1.453 . S
C456 C460 1.684 . S
C457 C447 1.723 . S
C457 C456 1.396 . S
C457 C458 1.394 . S
C458 C428 1.723 . S
C458 C454 1.397 . S
C458 C457 1.394 . S
C459 H431 0.982 . S
C459 H435 0.979 . S
C459 H436 0.977 . S
C459 C456 1.453 . S
C460 H432 0.979 . S
C460 H433 0.980 . S
C460 H434 0.983 . S
C460 C456 1.684 . S
H461 C479 0.948 . S
H462 C420 0.948 . S
H463 C438 0.979 . S
H464 C438 0.980 . S
H465 C438 0.983 . S
H466 C437 0.982 . S
H467 C437 0.979 . S
H468 C437 0.977 . S
H469 C439 0.948 . S
H470 C441 0.947 . S
H471 C442 0.948 . S
H472 C448 0.982 . S
H473 C448 0.979 . S
H474 C448 0.977 . S
H475 C449 0.979 . S
H476 C449 0.980 . S
H477 C449 0.983 . S
H478 C422 0.947 . S
C479 C422 1.392 . S
C479 C423 1.419 . S
C479 H461 0.948 . S
C480 C481 1.391 . S
C480 C484 1.391 . S
C480 H522 0.948 . S
C481 C480 1.391 . S
C481 C482 1.391 . S
C482 C481 1.391 . S
C482 H538 0.947 . S
C482 C539 1.392 . S
C483 C484 1.391 . S
C483 C487 1.397 . S
C483 C539 1.419 . S
C484 C480 1.391 . S
C484 C483 1.391 . S
C484 C485 1.399 . S
C485 C484 1.399 . S
C485 C488 1.396 . S
C485 C497 1.453 . S
C485 C498 1.684 . S
H486 C510 0.948 . S
C487 C483 1.397 . S
C487 C488 1.394 . S
C487 C506 1.723 . S
C488 C485 1.396 . S
C488 C487 1.394 . S
C488 C518 1.723 . S
H489 C512 0.947 . S
H490 C513 0.948 . S
H491 C519 0.982 . S
H492 C520 0.979 . S
H493 C520 0.980 . S
H494 C520 0.983 . S
H495 C519 0.979 . S
H496 C519 0.977 . S
C497 C485 1.453 . S
C497 H526 0.982 . S
C497 H527 0.979 . S
C497 H528 0.977 . S
C498 C485 1.684 . S
C498 H523 0.979 . S
C498 H524 0.980 . S
C498 H525 0.983 . S
C499 C500 1.391 . S
C499 C504 1.391 . S
C499 H529 0.948 . S
C500 C499 1.391 . S
C500 C501 1.391 . S
C501 C500 1.391 . S
C501 C502 1.392 . S
C501 H530 0.947 . S
C502 C501 1.392 . S
C502 C503 1.419 . S
C502 H531 0.948 . S
C503 C502 1.419 . S
C503 C504 1.391 . S
C503 C507 1.397 . S
C504 C499 1.391 . S
C504 C503 1.391 . S
C504 C505 1.399 . S
C505 C504 1.399 . S
C505 C506 1.396 . S
C505 C508 1.453 . S
C505 C509 1.684 . S
C506 C487 1.723 . S
C506 C505 1.396 . S
C506 C507 1.394 . S
C507 C503 1.397 . S
C507 C506 1.394 . S
C507 C517 1.723 . S
C508 C505 1.453 . S
C508 H532 0.982 . S
C508 H533 0.979 . S
C508 H534 0.977 . S
C509 C505 1.684 . S
C509 H535 0.979 . S
C509 H536 0.980 . S
C509 H537 0.983 . S
C510 H486 0.948 . S
C510 C511 1.391 . S
C510 C515 1.391 . S
C511 C510 1.391 . S
C511 C512 1.391 . S
C512 H489 0.947 . S
C512 C511 1.391 . S
C512 C513 1.392 . S
C513 H490 0.948 . S
C513 C512 1.392 . S
C513 C514 1.419 . S
C514 C513 1.419 . S
C514 C515 1.391 . S
C514 C518 1.397 . S
C515 C510 1.391 . S
C515 C514 1.391 . S
C515 C516 1.399 . S
C516 C515 1.399 . S
C516 C517 1.396 . S
C516 C519 1.453 . S
C516 C520 1.684 . S
C517 C507 1.723 . S
C517 C516 1.396 . S
C517 C518 1.394 . S
C518 C488 1.723 . S
C518 C514 1.397 . S
C518 C517 1.394 . S
C519 H491 0.982 . S
C519 H495 0.979 . S
C519 H496 0.977 . S
C519 C516 1.453 . S
C520 H492 0.979 . S
C520 H493 0.980 . S
C520 H494 0.983 . S
C520 C516 1.684 . S
H521 C539 0.948 . S
H522 C480 0.948 . S
H523 C498 0.979 . S
H524 C498 0.980 . S
H525 C498 0.983 . S
H526 C497 0.982 . S
H527 C497 0.979 . S
H528 C497 0.977 . S
H529 C499 0.948 . S
H530 C501 0.947 . S
H531 C502 0.948 . S
H532 C508 0.982 . S
H533 C508 0.979 . S
H534 C508 0.977 . S
H535 C509 0.979 . S
H536 C509 0.980 . S
H537 C509 0.983 . S
H538 C482 0.947 . S
C539 C482 1.392 . S
C539 C483 1.419 . S
C539 H521 0.948 . S
C540 C541 1.391 . S
C540 C544 1.391 . S
C540 H582 0.948 . S
C541 C540 1.391 . S
C541 C542 1.391 . S
C542 C541 1.391 . S
C542 H598 0.947 . S
C542 C599 1.392 . S
C543 C544 1.391 . S
C543 C547 1.397 . S
C543 C599 1.419 . S
C544 C540 1.391 . S
C544 C543 1.391 . S
C544 C545 1.399 . S
C545 C544 1.399 . S
C545 C548 1.396 . S
C545 C557 1.453 . S
C545 C558 1.684 . S
H546 C570 0.948 . S
C547 C543 1.397 . S
C547 C548 1.394 . S
C547 C566 1.723 . S
C548 C545 1.396 . S
C548 C547 1.394 . S
C548 C578 1.723 . S
H549 C572 0.947 . S
H550 C573 0.948 . S
H551 C579 0.982 . S
H552 C580 0.979 . S
H553 C580 0.980 . S
H554 C580 0.983 . S
H555 C579 0.979 . S
H556 C579 0.977 . S
C557 C545 1.453 . S
C557 H586 0.982 . S
C557 H587 0.979 . S
C557 H588 0.977 . S
C558 C545 1.684 . S
C558 H583 0.979 . S
C558 H584 0.980 . S
C558 H585 0.983 . S
C559 C560 1.391 . S
C559 C564 1.391 . S
C559 H589 0.948 . S
C560 C559 1.391 . S
C560 C561 1.391 . S
C561 C560 1.391 . S
C561 C562 1.392 . S
C561 H590 0.947 . S
C562 C561 1.392 . S
C562 C563 1.419 . S
C562 H591 0.948 . S
C563 C562 1.419 . S
C563 C564 1.391 . S
C563 C567 1.397 . S
C564 C559 1.391 . S
C564 C563 1.391 . S
C564 C565 1.399 . S
C565 C564 1.399 . S
C565 C566 1.396 . S
C565 C568 1.453 . S
C565 C569 1.684 . S
C566 C547 1.723 . S
C566 C565 1.396 . S
C566 C567 1.394 . S
C567 C563 1.397 . S
C567 C566 1.394 . S
C567 C577 1.723 . S
C568 C565 1.453 . S
C568 H592 0.982 . S
C568 H593 0.979 . S
C568 H594 0.977 . S
C569 C565 1.684 . S
C569 H595 0.979 . S
C569 H596 0.980 . S
C569 H597 0.983 . S
C570 H546 0.948 . S
C570 C571 1.391 . S
C570 C575 1.391 . S
C571 C570 1.391 . S
C571 C572 1.391 . S
C572 H549 0.947 . S
C572 C571 1.391 . S
C572 C573 1.392 . S
C573 H550 0.948 . S
C573 C572 1.392 . S
C573 C574 1.419 . S
C574 C573 1.419 . S
C574 C575 1.391 . S
C574 C578 1.397 . S
C575 C570 1.391 . S
C575 C574 1.391 . S
C575 C576 1.399 . S
C576 C575 1.399 . S
C576 C577 1.396 . S
C576 C579 1.453 . S
C576 C580 1.684 . S
C577 C567 1.723 . S
C577 C576 1.396 . S
C577 C578 1.394 . S
C578 C548 1.723 . S
C578 C574 1.397 . S
C578 C577 1.394 . S
C579 H551 0.982 . S
C579 H555 0.979 . S
C579 H556 0.977 . S
C579 C576 1.453 . S
C580 H552 0.979 . S
C580 H553 0.980 . S
C580 H554 0.983 . S
C580 C576 1.684 . S
H581 C599 0.948 . S
H582 C540 0.948 . S
H583 C558 0.979 . S
H584 C558 0.980 . S
H585 C558 0.983 . S
H586 C557 0.982 . S
H587 C557 0.979 . S
H588 C557 0.977 . S
H589 C559 0.948 . S
H590 C561 0.947 . S
H591 C562 0.948 . S
H592 C568 0.982 . S
H593 C568 0.979 . S
H594 C568 0.977 . S
H595 C569 0.979 . S
H596 C569 0.980 . S
H597 C569 0.983 . S
H598 C542 0.947 . S
C599 C542 1.392 . S
C599 C543 1.419 . S
C599 H581 0.948 . S
C600 C601 1.391 . S
C600 C604 1.391 . S
C600 H642 0.948 . S
C601 C600 1.391 . S
C601 C602 1.391 . S
C602 C601 1.391 . S
C602 H658 0.947 . S
C602 C659 1.392 . S
C603 C604 1.391 . S
C603 C607 1.397 . S
C603 C659 1.419 . S
C604 C600 1.391 . S
C604 C603 1.391 . S
C604 C605 1.399 . S
C605 C604 1.399 . S
C605 C608 1.396 . S
C605 C617 1.453 . S
C605 C618 1.684 . S
H606 C630 0.948 . S
C607 C603 1.397 . S
C607 C608 1.394 . S
C607 C626 1.723 . S
C608 C605 1.396 . S
C608 C607 1.394 . S
C608 C638 1.723 . S
H609 C632 0.947 . S
H610 C633 0.948 . S
H611 C639 0.982 . S
H612 C640 0.979 . S
H613 C640 0.980 . S
H614 C640 0.983 . S
H615 C639 0.979 . S
H616 C639 0.977 . S
C617 C605 1.453 . S
C617 H646 0.982 . S
C617 H647 0.979 . S
C617 H648 0.977 . S
C618 C605 1.684 . S
C618 H643 0.979 . S
C618 H644 0.980 . S
C618 H645 0.983 . S
C619 C620 1.391 . S
C619 C624 1.391 . S
C619 H649 0.948 . S
C620 C619 1.391 . S
C620 C621 1.391 . S
C621 C620 1.391 . S
C621 C622 1.392 . S
C621 H650 0.947 . S
C622 C621 1.392 . S
C622 C623 1.419 . S
C622 H651 0.948 . S
C623 C622 1.419 . S
C623 C624 1.391 . S
C623 C627 1.397 . S
C624 C619 1.391 . S
C624 C623 1.391 . S
C624 C625 1.399 . S
C625 C624 1.399 . S
C625 C626 1.396 . S
C625 C628 1.453 . S
C625 C629 1.684 . S
C626 C607 1.723 . S
C626 C625 1.396 . S
C626 C627 1.394 . S
C627 C623 1.397 . S
C627 C626 1.394 . S
C627 C637 1.723 . S
C628 C625 1.453 . S
C628 H652 0.982 . S
C628 H653 0.979 . S
C628 H654 0.977 . S
C629 C625 1.684 . S
C629 H655 0.979 . S
C629 H656 0.980 . S
C629 H657 0.983 . S
C630 H606 0.948 . S
C630 C631 1.391 . S
C630 C635 1.391 . S
C631 C630 1.391 . S
C631 C632 1.391 . S
C632 H609 0.947 . S
C632 C631 1.391 . S
C632 C633 1.392 . S
C633 H610 0.948 . S
C633 C632 1.392 . S
C633 C634 1.419 . S
C634 C633 1.419 . S
C634 C635 1.391 . S
C634 C638 1.397 . S
C635 C630 1.391 . S
C635 C634 1.391 . S
C635 C636 1.399 . S
C636 C635 1.399 . S
C636 C637 1.396 . S
C636 C639 1.453 . S
C636 C640 1.684 . S
C637 C627 1.723 . S
C637 C636 1.396 . S
C637 C638 1.394 . S
C638 C608 1.723 . S
C638 C634 1.397 . S
C638 C637 1.394 . S
C639 H611 0.982 . S
C639 H615 0.979 . S
C639 H616 0.977 . S
C639 C636 1.453 . S
C640 H612 0.979 . S
C640 H613 0.980 . S
C640 H614 0.983 . S
C640 C636 1.684 . S
H641 C659 0.948 . S
H642 C600 0.948 . S
H643 C618 0.979 . S
H644 C618 0.980 . S
H645 C618 0.983 . S
H646 C617 0.982 . S
H647 C617 0.979 . S
H648 C617 0.977 . S
H649 C619 0.948 . S
H650 C621 0.947 . S
H651 C622 0.948 . S
H652 C628 0.982 . S
H653 C628 0.979 . S
H654 C628 0.977 . S
H655 C629 0.979 . S
H656 C629 0.980 . S
H657 C629 0.983 . S
H658 C602 0.947 . S
C659 C602 1.392 . S
C659 C603 1.419 . S
C659 H641 0.948 . S
C660 C661 1.391 . S
C660 C664 1.391 . S
C660 H702 0.948 . S
C661 C660 1.391 . S
C661 C662 1.391 . S
C662 C661 1.391 . S
C662 H718 0.947 . S
C662 C719 1.392 . S
C663 C664 1.391 . S
C663 C667 1.397 . S
C663 C719 1.419 . S
C664 C660 1.391 . S
C664 C663 1.391 . S
C664 C665 1.399 . S
C665 C664 1.399 . S
C665 C668 1.396 . S
C665 C677 1.453 . S
C665 C678 1.684 . S
H666 C690 0.948 . S
C667 C663 1.397 . S
C667 C668 1.394 . S
C667 C686 1.723 . S
C668 C665 1.396 . S
C668 C667 1.394 . S
C668 C698 1.723 . S
H669 C692 0.947 . S
H670 C693 0.948 . S
H671 C699 0.982 . S
H672 C700 0.979 . S
H673 C700 0.980 . S
H674 C700 0.983 . S
H675 C699 0.979 . S
H676 C699 0.977 . S
C677 C665 1.453 . S
C677 H706 0.982 . S
C677 H707 0.979 . S
C677 H708 0.977 . S
C678 C665 1.684 . S
C678 H703 0.979 . S
C678 H704 0.980 . S
C678 H705 0.983 . S
C679 C680 1.391 . S
C679 C684 1.391 . S
C679 H709 0.948 . S
C680 C679 1.391 . S
C680 C681 1.391 . S
C681 C680 1.391 . S
C681 C682 1.392 . S
C681 H710 0.947 . S
C682 C681 1.392 . S
C682 C683 1.419 . S
C682 H711 0.948 . S
C683 C682 1.419 . S
C683 C684 1.391 . S
C683 C687 1.397 . S
C684 C679 1.391 . S
C684 C683 1.391 . S
C684 C685 1.399 . S
C685 C684 1.399 . S
C685 C686 1.396 . S
C685 C688 1.453 . S
C685 C689 1.684 . S
C686 C667 1.723 . S
C686 C685 1.396 . S
C686 C687 1.394 . S
C687 C683 1.397 . S
C687 C686 1.394 . S
C687 C697 1.723 . S
C688 C685 1.453 . S
C688 H712 0.982 . S
C688 H713 0.979 . S
C688 H714 0.977 . S
C689 C685 1.684 . S
C689 H715 0.979 . S
C689 H716 0.980 . S
C689 H717 0.983 . S
C690 H666 0.948 . S
C690 C691 1.391 . S
C690 C695 1.391 . S
C691 C690 1.391 . S
C691 C692 1.391 . S
C692 H669 0.947 . S
C692 C691 1.391 . S
C692 C693 1.392 . S
C693 H670 0.948 . S
C693 C692 1.392 . S
C693 C694 1.419 . S
C694 C693 1.419 . S
C694 C695 1.391 . S
C694 C698 1.397 . S
C695 C690 1.391 . S
C695 C694 1.391 . S
C695 C696 1.399 . S
C696 C695 1.399 . S
C696 C697 1.396 . S
C696 C699 1.453 . S
C696 C700 1.684 . S
C697 C687 1.723 . S
C697 C696 1.396 . S
C697 C698 1.394 . S
C698 C668 1.723 . S
C698 C694 1.397 . S
C698 C697 1.394 . S
C699 H671 0.982 . S
C699 H675 0.979 . S
C699 H676 0.977 . S
C699 C696 1.453 . S
C700 H672 0.979 . S
C700 H673 0.980 . S
C700 H674 0.983 . S
C700 C696 1.684 . S
H701 C719 0.948 . S
H702 C660 0.948 . S
H703 C678 0.979 . S
H704 C678 0.980 . S
H705 C678 0.983 . S
H706 C677 0.982 . S
H707 C677 0.979 . S
H708 C677 0.977 . S
H709 C679 0.948 . S
H710 C681 0.947 . S
H711 C682 0.948 . S
H712 C688 0.982 . S
H713 C688 0.979 . S
H714 C688 0.977 . S
H715 C689 0.979 . S
H716 C689 0.980 . S
H717 C689 0.983 . S
H718 C662 0.947 . S
C719 C662 1.392 . S
C719 C663 1.419 . S
C719 H701 0.948 . S
C720 C721 1.391 . S
C720 C724 1.391 . S
C720 H762 0.948 . S
C721 C720 1.391 . S
C721 C722 1.391 . S
C722 C721 1.391 . S
C722 H778 0.947 . S
C722 C779 1.392 . S
C723 C724 1.391 . S
C723 C727 1.397 . S
C723 C779 1.419 . S
C724 C720 1.391 . S
C724 C723 1.391 . S
C724 C725 1.399 . S
C725 C724 1.399 . S
C725 C728 1.396 . S
C725 C737 1.453 . S
C725 C738 1.684 . S
H726 C750 0.948 . S
C727 C723 1.397 . S
C727 C728 1.394 . S
C727 C746 1.723 . S
C728 C725 1.396 . S
C728 C727 1.394 . S
C728 C758 1.723 . S
H729 C752 0.947 . S
H730 C753 0.948 . S
H731 C759 0.982 . S
H732 C760 0.979 . S
H733 C760 0.980 . S
H734 C760 0.983 . S
H735 C759 0.979 . S
H736 C759 0.977 . S
C737 C725 1.453 . S
C737 H766 0.982 . S
C737 H767 0.979 . S
C737 H768 0.977 . S
C738 C725 1.684 . S
C738 H763 0.979 . S
C738 H764 0.980 . S
C738 H765 0.983 . S
C739 C740 1.391 . S
C739 C744 1.391 . S
C739 H769 0.948 . S
C740 C739 1.391 . S
C740 C741 1.391 . S
C741 C740 1.391 . S
C741 C742 1.392 . S
C741 H770 0.947 . S
C742 C741 1.392 . S
C742 C743 1.419 . S
C742 H771 0.948 . S
C743 C742 1.419 . S
C743 C744 1.391 . S
C743 C747 1.397 . S
C744 C739 1.391 . S
C744 C743 1.391 . S
C744 C745 1.399 . S
C745 C744 1.399 . S
C745 C746 1.396 . S
C745 C748 1.453 . S
C745 C749 1.684 . S
C746 C727 1.723 . S
C746 C745 1.396 . S
C746 C747 1.394 . S
C747 C743 1.397 . S
C747 C746 1.394 . S
C747 C757 1.723 . S
C748 C745 1.453 . S
C748 H772 0.982 . S
C748 H773 0.979 . S
C748 H774 0.977 . S
C749 C745 1.684 . S
C749 H775 0.979 . S
C749 H776 0.980 . S
C749 H777 0.983 . S
C750 H726 0.948 . S
C750 C751 1.391 . S
C750 C755 1.391 . S
C751 C750 1.391 . S
C751 C752 1.391 . S
C752 H729 0.947 . S
C752 C751 1.391 . S
C752 C753 1.392 . S
C753 H730 0.948 . S
C753 C752 1.392 . S
C753 C754 1.419 . S
C754 C753 1.419 . S
C754 C755 1.391 . S
C754 C758 1.397 . S
C755 C750 1.391 . S
C755 C754 1.391 . S
C755 C756 1.399 . S
C756 C755 1.399 . S
C756 C757 1.396 . S
C756 C759 1.453 . S
C756 C760 1.684 . S
C757 C747 1.723 . S
C757 C756 1.396 . S
C757 C758 1.394 . S
C758 C728 1.723 . S
C758 C754 1.397 . S
C758 C757 1.394 . S
C759 H731 0.982 . S
C759 H735 0.979 . S
C759 H736 0.977 . S
C759 C756 1.453 . S
C760 H732 0.979 . S
C760 H733 0.980 . S
C760 H734 0.983 . S
C760 C756 1.684 . S
H761 C779 0.948 . S
H762 C720 0.948 . S
H763 C738 0.979 . S
H764 C738 0.980 . S
H765 C738 0.983 . S
H766 C737 0.982 . S
H767 C737 0.979 . S
H768 C737 0.977 . S
H769 C739 0.948 . S
H770 C741 0.947 . S
H771 C742 0.948 . S
H772 C748 0.982 . S
H773 C748 0.979 . S
H774 C748 0.977 . S
H775 C749 0.979 . S
H776 C749 0.980 . S
H777 C749 0.983 . S
H778 C722 0.947 . S
C779 C722 1.392 . S
C779 C723 1.419 . S
C779 H761 0.948 . S
C780 C781 1.391 . S
C780 C784 1.391 . S
C780 H822 0.948 . S
C781 C780 1.391 . S
C781 C782 1.391 . S
C782 C781 1.391 . S
C782 H838 0.947 . S
C782 C839 1.392 . S
C783 C784 1.391 . S
C783 C787 1.397 . S
C783 C839 1.419 . S
C784 C780 1.391 . S
C784 C783 1.391 . S
C784 C785 1.399 . S
C785 C784 1.399 . S
C785 C788 1.396 . S
C785 C797 1.453 . S
C785 C798 1.684 . S
H786 C810 0.948 . S
C787 C783 1.397 . S
C787 C788 1.394 . S
C787 C806 1.723 . S
C788 C785 1.396 . S
C788 C787 1.394 . S
C788 C818 1.723 . S
H789 C812 0.947 . S
H790 C813 0.948 . S
H791 C819 0.982 . S
H792 C820 0.979 . S
H793 C820 0.980 . S
H794 C820 0.983 . S
H795 C819 0.979 . S
H796 C819 0.977 . S
C797 C785 1.453 . S
C797 H826 0.982 . S
C797 H827 0.979 . S
C797 H828 0.977 . S
C798 C785 1.684 . S
C798 H823 0.979 . S
C798 H824 0.980 . S
C798 H825 0.983 . S
C799 C800 1.391 . S
C799 C804 1.391 . S
C799 H829 0.948 . S
C800 C799 1.391 . S
C800 C801 1.391 . S
C801 C800 1.391 . S
C801 C802 1.392 . S
C801 H830 0.947 . S
C802 C801 1.392 . S
C802 C803 1.419 . S
C802 H831 0.948 . S
C803 C802 1.419 . S
C803 C804 1.391 . S
C803 C807 1.397 . S
C804 C799 1.391 . S
C804 C803 1.391 . S
C804 C805 1.399 . S
C805 C804 1.399 . S
C805 C806 1.396 . S
C805 C808 1.453 . S
C805 C809 1.684 . S
C806 C787 1.723 . S
C806 C805 1.396 . S
C806 C807 1.394 . S
C807 C803 1.397 . S
C807 C806 1.394 . S
C807 C817 1.723 . S
C808 C805 1.453 . S
C808 H832 0.982 . S
C808 H833 0.979 . S
C808 H834 0.977 . S
C809 C805 1.684 . S
C809 H835 0.979 . S
C809 H836 0.980 . S
C809 H837 0.983 . S
C810 H786 0.948 . S
C810 C811 1.391 . S
C810 C815 1.391 . S
C811 C810 1.391 . S
C811 C812 1.391 . S
C812 H789 0.947 . S
C812 C811 1.391 . S
C812 C813 1.392 . S
C813 H790 0.948 . S
C813 C812 1.392 . S
C813 C814 1.419 . S
C814 C813 1.419 . S
C814 C815 1.391 . S
C814 C818 1.397 . S
C815 C810 1.391 . S
C815 C814 1.391 . S
C815 C816 1.399 . S
C816 C815 1.399 . S
C816 C817 1.396 . S
C816 C819 1.453 . S
C816 C820 1.684 . S
C817 C807 1.723 . S
C817 C816 1.396 . S
C817 C818 1.394 . S
C818 C788 1.723 . S
C818 C814 1.397 . S
C818 C817 1.394 . S
C819 H791 0.982 . S
C819 H795 0.979 . S
C819 H796 0.977 . S
C819 C816 1.453 . S
C820 H792 0.979 . S
C820 H793 0.980 . S
C820 H794 0.983 . S
C820 C816 1.684 . S
H821 C839 0.948 . S
H822 C780 0.948 . S
H823 C798 0.979 . S
H824 C798 0.980 . S
H825 C798 0.983 . S
H826 C797 0.982 . S
H827 C797 0.979 . S
H828 C797 0.977 . S
H829 C799 0.948 . S
H830 C801 0.947 . S
H831 C802 0.948 . S
H832 C808 0.982 . S
H833 C808 0.979 . S
H834 C808 0.977 . S
H835 C809 0.979 . S
H836 C809 0.980 . S
H837 C809 0.983 . S
H838 C782 0.947 . S
C839 C782 1.392 . S
C839 C783 1.419 . S
C839 H821 0.948 . S
C840 C841 1.391 . S
C840 C844 1.391 . S
C840 H882 0.948 . S
C841 C840 1.391 . S
C841 C842 1.391 . S
C842 C841 1.391 . S
C842 H898 0.947 . S
C842 C899 1.392 . S
C843 C844 1.391 . S
C843 C847 1.397 . S
C843 C899 1.419 . S
C844 C840 1.391 . S
C844 C843 1.391 . S
C844 C845 1.399 . S
C845 C844 1.399 . S
C845 C848 1.396 . S
C845 C857 1.453 . S
C845 C858 1.684 . S
H846 C870 0.948 . S
C847 C843 1.397 . S
C847 C848 1.394 . S
C847 C866 1.723 . S
C848 C845 1.396 . S
C848 C847 1.394 . S
C848 C878 1.723 . S
H849 C872 0.947 . S
H850 C873 0.948 . S
H851 C879 0.982 . S
H852 C880 0.979 . S
H853 C880 0.980 . S
H854 C880 0.983 . S
H855 C879 0.979 . S
H856 C879 0.977 . S
C857 C845 1.453 . S
C857 H886 0.982 . S
C857 H887 0.979 . S
C857 H888 0.977 . S
C858 C845 1.684 . S
C858 H883 0.979 . S
C858 H884 0.980 . S
C858 H885 0.983 . S
C859 C860 1.391 . S
C859 C864 1.391 . S
C859 H889 0.948 . S
C860 C859 1.391 . S
C860 C861 1.391 . S
C861 C860 1.391 . S
C861 C862 1.392 . S
C861 H890 0.947 . S
C862 C861 1.392 . S
C862 C863 1.419 . S
C862 H891 0.948 . S
C863 C862 1.419 . S
C863 C864 1.391 . S
C863 C867 1.397 . S
C864 C859 1.391 . S
C864 C863 1.391 . S
C864 C865 1.399 . S
C865 C864 1.399 . S
C865 C866 1.396 . S
C865 C868 1.453 . S
C865 C869 1.684 . S
C866 C847 1.723 . S
C866 C865 1.396 . S
C866 C867 1.394 . S
C867 C863 1.397 . S
C867 C866 1.394 . S
C867 C877 1.723 . S
C868 C865 1.453 . S
C868 H892 0.982 . S
C868 H893 0.979 . S
C868 H894 0.977 . S
C869 C865 1.684 . S
C869 H895 0.979 . S
C869 H896 0.980 . S
C869 H897 0.983 . S
C870 H846 0.948 . S
C870 C871 1.391 . S
C870 C875 1.391 . S
C871 C870 1.391 . S
C871 C872 1.391 . S
C872 H849 0.947 . S
C872 C871 1.391 . S
C872 C873 1.392 . S
C873 H850 0.948 . S
C873 C872 1.392 . S
C873 C874 1.419 . S
C874 C873 1.419 . S
C874 C875 1.391 . S
C874 C878 1.397 . S
C875 C870 1.391 . S
C875 C874 1.391 . S
C875 C876 1.399 . S
C876 C875 1.399 . S
C876 C877 1.396 . S
C876 C879 1.453 . S
C876 C880 1.684 . S
C877 C867 1.723 . S
C877 C876 1.396 . S
C877 C878 1.394 . S
C878 C848 1.723 . S
C878 C874 1.397 . S
C878 C877 1.394 . S
C879 H851 0.982 . S
C879 H855 0.979 . S
C879 H856 0.977 . S
C879 C876 1.453 . S
C880 H852 0.979 . S
C880 H853 0.980 . S
C880 H854 0.983 . S
C880 C876 1.684 . S
H881 C899 0.948 . S
H882 C840 0.948 . S
H883 C858 0.979 . S
H884 C858 0.980 . S
H885 C858 0.983 . S
H886 C857 0.982 . S
H887 C857 0.979 . S
H888 C857 0.977 . S
H889 C859 0.948 . S
H890 C861 0.947 . S
H891 C862 0.948 . S
H892 C868 0.982 . S
H893 C868 0.979 . S
H894 C868 0.977 . S
H895 C869 0.979 . S
H896 C869 0.980 . S
H897 C869 0.983 . S
H898 C842 0.947 . S
C899 C842 1.392 . S
C899 C843 1.419 . S
C899 H881 0.948 . S
C900 C901 1.391 . S
C900 C904 1.391 . S
C900 H942 0.948 . S
C901 C900 1.391 . S
C901 C902 1.391 . S
C902 C901 1.391 . S
C902 H958 0.947 . S
C902 C959 1.392 . S
C903 C904 1.391 . S
C903 C907 1.397 . S
C903 C959 1.419 . S
C904 C900 1.391 . S
C904 C903 1.391 . S
C904 C905 1.399 . S
C905 C904 1.399 . S
C905 C908 1.396 . S
C905 C917 1.453 . S
C905 C918 1.684 . S
H906 C930 0.948 . S
C907 C903 1.397 . S
C907 C908 1.394 . S
C907 C926 1.723 . S
C908 C905 1.396 . S
C908 C907 1.394 . S
C908 C938 1.723 . S
H909 C932 0.947 . S
H910 C933 0.948 . S
H911 C939 0.982 . S
H912 C940 0.979 . S
H913 C940 0.980 . S
H914 C940 0.983 . S
H915 C939 0.979 . S
H916 C939 0.977 . S
C917 C905 1.453 . S
C917 H946 0.982 . S
C917 H947 0.979 . S
C917 H948 0.977 . S
C918 C905 1.684 . S
C918 H943 0.979 . S
C918 H944 0.980 . S
C918 H945 0.983 . S
C919 C920 1.391 . S
C919 C924 1.391 . S
C919 H949 0.948 . S
C920 C919 1.391 . S
C920 C921 1.391 . S
C921 C920 1.391 . S
C921 C922 1.392 . S
C921 H950 0.947 . S
C922 C921 1.392 . S
C922 C923 1.419 . S
C922 H951 0.948 . S
C923 C922 1.419 . S
C923 C924 1.391 . S
C923 C927 1.397 . S
C924 C919 1.391 . S
C924 C923 1.391 . S
C924 C925 1.399 . S
C925 C924 1.399 . S
C925 C926 1.396 . S
C925 C928 1.453 . S
C925 C929 1.684 . S
C926 C907 1.723 . S
C926 C925 1.396 . S
C926 C927 1.394 . S
C927 C923 1.397 . S
C927 C926 1.394 . S
C927 C937 1.723 . S
C928 C925 1.453 . S
C928 H952 0.982 . S
C928 H953 0.979 . S
C928 H954 0.977 . S
C929 C925 1.684 . S
C929 H955 0.979 . S
C929 H956 0.980 . S
C929 H957 0.983 . S
C930 H906 0.948 . S
C930 C931 1.391 . S
C930 C935 1.391 . S
C931 C930 1.391 . S
C931 C932 1.391 . S
C932 H909 0.947 . S
C932 C931 1.391 . S
C932 C933 1.392 . S
C933 H910 0.948 . S
C933 C932 1.392 . S
C933 C934 1.419 . S
C934 C933 1.419 . S
C934 C935 1.391 . S
C934 C938 1.397 . S
C935 C930 1.391 . S
C935 C934 1.391 . S
C935 C936 1.399 . S
C936 C935 1.399 . S
C936 C937 1.396 . S
C936 C939 1.453 . S
C936 C940 1.684 . S
C937 C927 1.723 . S
C937 C936 1.396 . S
C937 C938 1.394 . S
C938 C908 1.723 . S
C938 C934 1.397 . S
C938 C937 1.394 . S
C939 H911 0.982 . S
C939 H915 0.979 . S
C939 H916 0.977 . S
C939 C936 1.453 . S
C940 H912 0.979 . S
C940 H913 0.980 . S
C940 H914 0.983 . S
C940 C936 1.684 . S
H941 C959 0.948 . S
H942 C900 0.948 . S
H943 C918 0.979 . S
H944 C918 0.980 . S
H945 C918 0.983 . S
H946 C917 0.982 . S
H947 C917 0.979 . S
H948 C917 0.977 . S
H949 C919 0.948 . S
H950 C921 0.947 . S
H951 C922 0.948 . S
H952 C928 0.982 . S
H953 C928 0.979 . S
H954 C928 0.977 . S
H955 C929 0.979 . S
H956 C929 0.980 . S
H957 C929 0.983 . S
H958 C902 0.947 . S
C959 C902 1.392 . S
C959 C903 1.419 . S
C959 H941 0.948 . S
C960 C961 1.391 . S
C960 C964 1.391 . S
C960 H1002 0.948 . S
C961 C960 1.391 . S
C961 C962 1.391 . S
C962 C961 1.391 . S
C962 H1018 0.947 . S
C962 C1019 1.392 . S
C963 C964 1.391 . S
C963 C967 1.397 . S
C963 C1019 1.419 . S
C964 C960 1.391 . S
C964 C963 1.391 . S
C964 C965 1.399 . S
C965 C964 1.399 . S
C965 C968 1.396 . S
C965 C977 1.453 . S
C965 C978 1.684 . S
H966 C990 0.948 . S
C967 C963 1.397 . S
C967 C968 1.394 . S
C967 C986 1.723 . S
C968 C965 1.396 . S
C968 C967 1.394 . S
C968 C998 1.723 . S
H969 C992 0.947 . S
H970 C993 0.948 . S
H971 C999 0.982 . S
H972 C1000 0.979 . S
H973 C1000 0.980 . S
H974 C1000 0.983 . S
H975 C999 0.979 . S
H976 C999 0.977 . S
C977 C965 1.453 . S
C977 H1006 0.982 . S
C977 H1007 0.979 . S
C977 H1008 0.977 . S
C978 C965 1.684 . S
C978 H1003 0.979 . S
C978 H1004 0.980 . S
C978 H1005 0.983 . S
C979 C980 1.391 . S
C979 C984 1.391 . S
C979 H1009 0.948 . S
C980 C979 1.391 . S
C980 C981 1.391 . S
C981 C980 1.391 . S
C981 C982 1.392 . S
C981 H1010 0.947 . S
C982 C981 1.392 . S
C982 C983 1.419 . S
C982 H1011 0.948 . S
C983 C982 1.419 . S
C983 C984 1.391 . S
C983 C987 1.397 . S
C984 C979 1.391 . S
C984 C983 1.391 . S
C984 C985 1.399 . S
C985 C984 1.399 . S
C985 C986 1.396 . S
C985 C988 1.453 . S
C985 C989 1.684 . S
C986 C967 1.723 . S
C986 C985 1.396 . S
C986 C987 1.394 . S
C987 C983 1.397 . S
C987 C986 1.394 . S
C987 C997 1.723 . S
C988 C985 1.453 . S
C988 H1012 0.982 . S
C988 H1013 0.979 . S
C988 H1014 0.977 . S
C989 C985 1.684 . S
C989 H1015 0.979 . S
C989 H1016 0.980 . S
C989 H1017 0.983 . S
C990 H966 0.948 . S
C990 C991 1.391 . S
C990 C995 1.391 . S
C991 C990 1.391 . S
C991 C992 1.391 . S
C992 H969 0.947 . S
C992 C991 1.391 . S
C992 C993 1.392 . S
C993 H970 0.948 . S
C993 C992 1.392 . S
C993 C994 1.419 . S
C994 C993 1.419 . S
C994 C995 1.391 . S
C994 C998 1.397 . S
C995 C990 1.391 . S
C995 C994 1.391 . S
C995 C996 1.399 . S
C996 C995 1.399 . S
C996 C997 1.396 . S
C996 C999 1.453 . S
C996 C1000 1.684 . S
C997 C987 1.723 . S
C997 C996 1.396 . S
C997 C998 1.394 . S
C998 C968 1.723 . S
C998 C994 1.397 . S
C998 C997 1.394 . S
C999 H971 0.982 . S
C999 H975 0.979 . S
C999 H976 0.977 . S
C999 C996 1.453 . S
C1000 H972 0.979 . S
C1000 H973 0.980 . S
C1000 H974 0.983 . S
C1000 C996 1.684 . S
H1001 C1019 0.948 . S
H1002 C960 0.948 . S
H1003 C978 0.979 . S
H1004 C978 0.980 . S
H1005 C978 0.983 . S
H1006 C977 0.982 . S
H1007 C977 0.979 . S
H1008 C977 0.977 . S
H1009 C979 0.948 . S
H1010 C981 0.947 . S
H1011 C982 0.948 . S
H1012 C988 0.982 . S
H1013 C988 0.979 . S
H1014 C988 0.977 . S
H1015 C989 0.979 . S
H1016 C989 0.980 . S
H1017 C989 0.983 . S
H1018 C962 0.947 . S
C1019 C962 1.392 . S
C1019 C963 1.419 . S
C1019 H1001 0.948 . S
C1020 C1021 1.391 . S
C1020 C1024 1.391 . S
C1020 H1062 0.948 . S
C1021 C1020 1.391 . S
C1021 C1022 1.391 . S
C1022 C1021 1.391 . S
C1022 H1078 0.947 . S
C1022 C1079 1.392 . S
C1023 C1024 1.391 . S
C1023 C1027 1.397 . S
C1023 C1079 1.419 . S
C1024 C1020 1.391 . S
C1024 C1023 1.391 . S
C1024 C1025 1.399 . S
C1025 C1024 1.399 . S
C1025 C1028 1.396 . S
C1025 C1037 1.453 . S
C1025 C1038 1.684 . S
H1026 C1050 0.948 . S
C1027 C1023 1.397 . S
C1027 C1028 1.394 . S
C1027 C1046 1.723 . S
C1028 C1025 1.396 . S
C1028 C1027 1.394 . S
C1028 C1058 1.723 . S
H1029 C1052 0.947 . S
H1030 C1053 0.948 . S
H1031 C1059 0.982 . S
H1032 C1060 0.979 . S
H1033 C1060 0.980 . S
H1034 C1060 0.983 . S
H1035 C1059 0.979 . S
H1036 C1059 0.977 . S
C1037 C1025 1.453 . S
C1037 H1066 0.982 . S
C1037 H1067 0.979 . S
C1037 H1068 0.977 . S
C1038 C1025 1.684 . S
C1038 H1063 0.979 . S
C1038 H1064 0.980 . S
C1038 H1065 0.983 . S
C1039 C1040 1.391 . S
C1039 C1044 1.391 . S
C1039 H1069 0.948 . S
C1040 C1039 1.391 . S
C1040 C1041 1.391 . S
C1041 C1040 1.391 . S
C1041 C1042 1.392 . S
C1041 H1070 0.947 . S
C1042 C1041 1.392 . S
C1042 C1043 1.419 . S
C1042 H1071 0.948 . S
C1043 C1042 1.419 . S
C1043 C1044 1.391 . S
C1043 C1047 1.397 . S
C1044 C1039 1.391 . S
C1044 C1043 1.391 . S
C1044 C1045 1.399 . S
C1045 C1044 1.399 . S
C1045 C1046 1.396 . S
C1045 C1048 1.453 . S
C1045 C1049 1.684 . S
C1046 C1027 1.723 . S
C1046 C1045 1.396 . S
C1046 C1047 1.394 . S
C1047 C1043 1.397 . S
C1047 C1046 1.394 . S
C1047 C1057 1.723 . S
C1048 C1045 1.453 . S
C1048 H1072 0.982 . S
C1048 H1073 0.979 . S
C1048 H1074 0.977 . S
C1049 C1045 1.684 . S
C1049 H1075 0.979 . S
C1049 H1076 0.980 . S
C1049 H1077 0.983 . S
C1050 H1026 0.948 . S
C1050 C1051 1.391 . S
C1050 C1055 1.391 . S
C1051 C1050 1.391 . S
C1051 C1052 1.391 . S
C1052 H1029 0.947 . S
C1052 C1051 1.391 . S
C1052 C1053 1.392 . S
C1053 H1030 0.948 . S
C1053 C1052 1.392 . S
C1053 C1054 1.419 . S
C1054 C1053 1.419 . S
C1054 C1055 1.391 . S
C1054 C1058 1.397 . S
C1055 C1050 1.391 . S
C1055 C1054 1.391 . S
C1055 C1056 1.399 . S
C1056 C1055 1.399 . S
C1056 C1057 1.396 . S
C1056 C1059 1.453 . S
C1056 C1060 1.684 . S
C1057 C1047 1.723 . S
C1057 C1056 1.396 . S
C1057 C1058 1.394 . S
C1058 C1028 1.723 . S
C1058 C1054 1.397 . S
C1058 C1057 1.394 . S
C1059 H1031 0.982 . S
C1059 H1035 0.979 . S
C1059 H1036 0.977 . S
C1059 C1056 1.453 . S
C1060 H1032 0.979 . S
C1060 H1033 0.980 . S
C1060 H1034 0.983 . S
C1060 C1056 1.684 . S
H1061 C1079 0.948 . S
H1062 C1020 0.948 . S
H1063 C1038 0.979 . S
H1064 C1038 0.980 . S
H1065 C1038 0.983 . S
H1066 C1037 0.982 . S
H1067 C1037 0.979 . S
H1068 C1037 0.977 . S
H1069 C1039 0.948 . S
H1070 C1041 0.947 . S
H1071 C1042 0.948 . S
H1072 C1048 0.982 . S
H1073 C1048 0.979 . S
H1074 C1048 0.977 . S
H1075 C1049 0.979 . S
H1076 C1049 0.980 . S
H1077 C1049 0.983 . S
H1078 C1022 0.947 . S
C1079 C1022 1.392 . S
C1079 C1023 1.419 . S
C1079 H1061 0.948 . S
Eu1080 N1111 2.657 . S
Eu1080 N1118 2.609 . S
Eu1080 O1124 2.558 . S
Eu1080 O1125 2.612 1_565 S
Eu1080 O1127 2.339 1_565 S
Eu1080 O1128 2.563 1_565 S
Eu1080 O1129 2.419 . S
Eu1080 O1131 2.380 1_556 S
Eu1080 O1132 2.432 . S
Eu1080 C1144 2.848 . S
C1081 C1084 1.429 . S
C1081 C1085 1.411 . S
C1081 N1088 1.377 . S
C1082 C1084 1.420 . S
C1082 C1086 1.423 . S
C1082 C1094 1.392 . S
C1083 C1085 1.420 . S
C1083 C1086 1.351 . S
C1083 H1106 0.931 . S
C1084 C1081 1.429 . S
C1084 C1082 1.420 . S
C1084 N1092 1.362 . S
C1085 C1081 1.411 . S
C1085 C1083 1.420 . S
C1085 C1090 1.395 . S
C1086 C1082 1.423 . S
C1086 C1083 1.351 . S
C1086 H1098 0.930 . S
C1087 C1089 1.400 . S
C1087 C1090 1.386 . S
C1087 H1099 0.930 . S
N1088 C1081 1.377 . S
N1088 C1089 1.321 . S
N1088 Eu1091 2.609 . S
C1089 C1087 1.400 . S
C1089 N1088 1.321 . S
C1089 H1096 0.930 . S
C1090 C1085 1.395 . S
C1090 C1087 1.386 . S
C1090 H1109 0.930 . S
Eu1091 N1088 2.609 . S
Eu1091 N1092 2.657 . S
Eu1091 O1125 2.380 1_554 S
Eu1091 O1126 2.432 . S
Eu1091 O1130 2.558 . S
Eu1091 O1131 2.612 1_545 S
Eu1091 O1133 2.339 1_545 S
Eu1091 O1134 2.563 1_545 S
Eu1091 O1135 2.419 . S
Eu1091 C1155 2.848 . S
N1092 C1084 1.362 . S
N1092 Eu1091 2.657 . S
N1092 C1093 1.334 . S
C1093 N1092 1.334 . S
C1093 C1095 1.413 . S
C1093 H1100 0.929 . S
C1094 C1082 1.392 . S
C1094 C1095 1.367 . S
C1094 H1102 0.930 . S
C1095 C1093 1.413 . S
C1095 C1094 1.367 . S
C1095 H1097 0.930 . S
H1096 C1089 0.930 . S
H1097 C1095 0.930 . S
H1098 C1086 0.930 . S
H1099 C1087 0.930 . S
H1100 C1093 0.929 . S
H1101 C1115 0.930 . S
H1102 C1094 0.930 . S
H1103 C1121 0.930 . S
H1104 C1112 0.929 . S
H1105 C1119 0.930 . S
H1106 C1083 0.931 . S
H1107 C1113 0.930 . S
H1108 C1146 0.930 . S
H1109 C1090 0.930 . S
H1110 C1145 0.931 . S
N1111 Eu1080 2.657 . S
N1111 C1112 1.334 . S
N1111 C1116 1.362 . S
C1112 H1104 0.929 . S
C1112 N1111 1.334 . S
C1112 C1115 1.413 . S
C1113 H1107 0.930 . S
C1113 C1114 1.392 . S
C1113 C1115 1.367 . S
C1114 C1113 1.392 . S
C1114 C1116 1.420 . S
C1114 C1146 1.423 . S
C1115 H1101 0.930 . S
C1115 C1112 1.413 . S
C1115 C1113 1.367 . S
C1116 N1111 1.362 . S
C1116 C1114 1.420 . S
C1116 C1120 1.429 . S
H1117 C1122 0.930 . S
N1118 Eu1080 2.609 . S
N1118 C1120 1.377 . S
N1118 C1121 1.321 . S
C1119 H1105 0.930 . S
C1119 C1121 1.400 . S
C1119 C1122 1.386 . S
C1120 C1116 1.429 . S
C1120 N1118 1.377 . S
C1120 C1123 1.411 . S
C1121 H1103 0.930 . S
C1121 N1118 1.321 . S
C1121 C1119 1.400 . S
C1122 H1117 0.930 . S
C1122 C1119 1.386 . S
C1122 C1123 1.395 . S
C1123 C1120 1.411 . S
C1123 C1122 1.395 . S
C1123 C1145 1.420 . S
O1124 Eu1080 2.558 . S
O1124 C1144 1.257 . S
O1125 Eu1080 2.612 1_545 S
O1125 Eu1091 2.380 1_556 S
O1125 C1136 1.276 . S
O1126 Eu1091 2.432 . S
O1126 C1143 1.264 1_554 S
O1127 Eu1080 2.339 1_545 S
O1127 C1143 1.254 . S
O1128 Eu1080 2.563 1_545 S
O1128 C1136 1.235 . S
O1129 Eu1080 2.419 . S
O1129 C1144 1.249 . S
O1130 Eu1091 2.558 . S
O1130 C1155 1.257 . S
O1131 Eu1080 2.380 1_554 S
O1131 Eu1091 2.612 1_565 S
O1131 C1147 1.276 . S
O1132 Eu1080 2.432 . S
O1132 C1154 1.264 1_556 S
O1133 Eu1091 2.339 1_565 S
O1133 C1154 1.254 . S
O1134 Eu1091 2.563 1_565 S
O1134 C1147 1.235 . S
O1135 Eu1091 2.419 . S
O1135 C1155 1.249 . S
C1136 O1125 1.276 . S
C1136 O1128 1.235 . S
C1137 C1139 1.393 1_565 S
C1137 C1141 1.395 . S
C1137 C1144 1.492 . S
C1138 C1139 1.392 . S
C1138 C1140 1.386 1_545 S
C1139 C1137 1.393 1_545 S
C1139 C1138 1.392 . S
C1139 H1156 0.930 . S
C1140 C1138 1.386 1_565 S
C1140 C1142 1.395 . S
C1140 H1157 0.930 . S
C1141 C1137 1.395 . S
C1141 C1142 1.379 . S
C1141 H1158 0.930 . S
C1142 C1140 1.395 . S
C1142 C1141 1.379 . S
C1142 H1159 0.930 . S
C1143 O1126 1.264 1_556 S
C1143 O1127 1.254 . S
C1144 Eu1080 2.848 . S
C1144 O1124 1.257 . S
C1144 O1129 1.249 . S
C1144 C1137 1.492 . S
C1145 H1110 0.931 . S
C1145 C1123 1.420 . S
C1145 C1146 1.351 . S
C1146 H1108 0.930 . S
C1146 C1114 1.423 . S
C1146 C1145 1.351 . S
C1147 O1131 1.276 . S
C1147 O1134 1.235 . S
C1148 C1149 1.393 1_545 S
C1148 C1152 1.395 . S
C1148 C1155 1.492 . S
C1149 C1148 1.393 1_565 S
C1149 C1150 1.392 . S
C1149 H1160 0.930 . S
C1150 C1149 1.392 . S
C1150 C1151 1.386 1_565 S
C1151 C1150 1.386 1_545 S
C1151 C1153 1.395 . S
C1151 H1161 0.930 . S
C1152 C1148 1.395 . S
C1152 C1153 1.379 . S
C1152 H1162 0.930 . S
C1153 C1151 1.395 . S
C1153 C1152 1.379 . S
C1153 H1163 0.930 . S
C1154 O1132 1.264 1_554 S
C1154 O1133 1.254 . S
C1155 Eu1091 2.848 . S
C1155 O1130 1.257 . S
C1155 O1135 1.249 . S
C1155 C1148 1.492 . S
H1156 C1139 0.930 . S
H1157 C1140 0.930 . S
H1158 C1141 0.930 . S
H1159 C1142 0.930 . S
H1160 C1149 0.930 . S
H1161 C1151 0.930 . S
H1162 C1152 0.930 . S
H1163 C1153 0.930 . S
Eu1164 N1195 2.657 . S
Eu1164 N1202 2.609 . S
Eu1164 O1208 2.558 . S
Eu1164 O1209 2.612 1_455 S
Eu1164 O1211 2.339 1_455 S
Eu1164 O1212 2.563 1_455 S
Eu1164 O1213 2.419 . S
Eu1164 O1215 2.380 1_556 S
Eu1164 O1216 2.432 . S
Eu1164 C1228 2.848 . S
C1165 C1168 1.429 . S
C1165 C1169 1.411 . S
C1165 N1172 1.377 . S
C1166 C1168 1.420 . S
C1166 C1170 1.423 . S
C1166 C1178 1.392 . S
C1167 C1169 1.420 . S
C1167 C1170 1.351 . S
C1167 H1190 0.931 . S
C1168 C1165 1.429 . S
C1168 C1166 1.420 . S
C1168 N1176 1.362 . S
C1169 C1165 1.411 . S
C1169 C1167 1.420 . S
C1169 C1174 1.395 . S
C1170 C1166 1.423 . S
C1170 C1167 1.351 . S
C1170 H1182 0.930 . S
C1171 C1173 1.400 . S
C1171 C1174 1.386 . S
C1171 H1183 0.930 . S
N1172 C1165 1.377 . S
N1172 C1173 1.321 . S
N1172 Eu1175 2.609 . S
C1173 C1171 1.400 . S
C1173 N1172 1.321 . S
C1173 H1180 0.930 . S
C1174 C1169 1.395 . S
C1174 C1171 1.386 . S
C1174 H1193 0.930 . S
Eu1175 N1172 2.609 . S
Eu1175 N1176 2.657 . S
Eu1175 O1209 2.380 1_554 S
Eu1175 O1210 2.432 . S
Eu1175 O1214 2.558 . S
Eu1175 O1215 2.612 1_655 S
Eu1175 O1217 2.339 1_655 S
Eu1175 O1218 2.563 1_655 S
Eu1175 O1219 2.419 . S
Eu1175 C1239 2.848 . S
N1176 C1168 1.362 . S
N1176 Eu1175 2.657 . S
N1176 C1177 1.334 . S
C1177 N1176 1.334 . S
C1177 C1179 1.413 . S
C1177 H1184 0.929 . S
C1178 C1166 1.392 . S
C1178 C1179 1.367 . S
C1178 H1186 0.930 . S
C1179 C1177 1.413 . S
C1179 C1178 1.367 . S
C1179 H1181 0.930 . S
H1180 C1173 0.930 . S
H1181 C1179 0.930 . S
H1182 C1170 0.930 . S
H1183 C1171 0.930 . S
H1184 C1177 0.929 . S
H1185 C1199 0.930 . S
H1186 C1178 0.930 . S
H1187 C1205 0.930 . S
H1188 C1196 0.929 . S
H1189 C1203 0.930 . S
H1190 C1167 0.931 . S
H1191 C1197 0.930 . S
H1192 C1230 0.930 . S
H1193 C1174 0.930 . S
H1194 C1229 0.931 . S
N1195 Eu1164 2.657 . S
N1195 C1196 1.334 . S
N1195 C1200 1.362 . S
C1196 H1188 0.929 . S
C1196 N1195 1.334 . S
C1196 C1199 1.413 . S
C1197 H1191 0.930 . S
C1197 C1198 1.392 . S
C1197 C1199 1.367 . S
C1198 C1197 1.392 . S
C1198 C1200 1.420 . S
C1198 C1230 1.423 . S
C1199 H1185 0.930 . S
C1199 C1196 1.413 . S
C1199 C1197 1.367 . S
C1200 N1195 1.362 . S
C1200 C1198 1.420 . S
C1200 C1204 1.429 . S
H1201 C1206 0.930 . S
N1202 Eu1164 2.609 . S
N1202 C1204 1.377 . S
N1202 C1205 1.321 . S
C1203 H1189 0.930 . S
C1203 C1205 1.400 . S
C1203 C1206 1.386 . S
C1204 C1200 1.429 . S
C1204 N1202 1.377 . S
C1204 C1207 1.411 . S
C1205 H1187 0.930 . S
C1205 N1202 1.321 . S
C1205 C1203 1.400 . S
C1206 H1201 0.930 . S
C1206 C1203 1.386 . S
C1206 C1207 1.395 . S
C1207 C1204 1.411 . S
C1207 C1206 1.395 . S
C1207 C1229 1.420 . S
O1208 Eu1164 2.558 . S
O1208 C1228 1.257 . S
O1209 Eu1164 2.612 1_655 S
O1209 Eu1175 2.380 1_556 S
O1209 C1220 1.276 . S
O1210 Eu1175 2.432 . S
O1210 C1227 1.264 1_554 S
O1211 Eu1164 2.339 1_655 S
O1211 C1227 1.254 . S
O1212 Eu1164 2.563 1_655 S
O1212 C1220 1.235 . S
O1213 Eu1164 2.419 . S
O1213 C1228 1.249 . S
O1214 Eu1175 2.558 . S
O1214 C1239 1.257 . S
O1215 Eu1164 2.380 1_554 S
O1215 Eu1175 2.612 1_455 S
O1215 C1231 1.276 . S
O1216 Eu1164 2.432 . S
O1216 C1238 1.264 1_556 S
O1217 Eu1175 2.339 1_455 S
O1217 C1238 1.254 . S
O1218 Eu1175 2.563 1_455 S
O1218 C1231 1.235 . S
O1219 Eu1175 2.419 . S
O1219 C1239 1.249 . S
C1220 O1209 1.276 . S
C1220 O1212 1.235 . S
C1221 C1223 1.393 1_455 S
C1221 C1225 1.395 . S
C1221 C1228 1.492 . S
C1222 C1223 1.392 . S
C1222 C1224 1.386 1_655 S
C1223 C1221 1.393 1_655 S
C1223 C1222 1.392 . S
C1223 H1240 0.930 . S
C1224 C1222 1.386 1_455 S
C1224 C1226 1.395 . S
C1224 H1241 0.930 . S
C1225 C1221 1.395 . S
C1225 C1226 1.379 . S
C1225 H1242 0.930 . S
C1226 C1224 1.395 . S
C1226 C1225 1.379 . S
C1226 H1243 0.930 . S
C1227 O1210 1.264 1_556 S
C1227 O1211 1.254 . S
C1228 Eu1164 2.848 . S
C1228 O1208 1.257 . S
C1228 O1213 1.249 . S
C1228 C1221 1.492 . S
C1229 H1194 0.931 . S
C1229 C1207 1.420 . S
C1229 C1230 1.351 . S
C1230 H1192 0.930 . S
C1230 C1198 1.423 . S
C1230 C1229 1.351 . S
C1231 O1215 1.276 . S
C1231 O1218 1.235 . S
C1232 C1233 1.393 1_655 S
C1232 C1236 1.395 . S
C1232 C1239 1.492 . S
C1233 C1232 1.393 1_455 S
C1233 C1234 1.392 . S
C1233 H1244 0.930 . S
C1234 C1233 1.392 . S
C1234 C1235 1.386 1_455 S
C1235 C1234 1.386 1_655 S
C1235 C1237 1.395 . S
C1235 H1245 0.930 . S
C1236 C1232 1.395 . S
C1236 C1237 1.379 . S
C1236 H1246 0.930 . S
C1237 C1235 1.395 . S
C1237 C1236 1.379 . S
C1237 H1247 0.930 . S
C1238 O1216 1.264 1_554 S
C1238 O1217 1.254 . S
C1239 Eu1175 2.848 . S
C1239 O1214 1.257 . S
C1239 O1219 1.249 . S
C1239 C1232 1.492 . S
H1240 C1223 0.930 . S
H1241 C1224 0.930 . S
H1242 C1225 0.930 . S
H1243 C1226 0.930 . S
H1244 C1233 0.930 . S
H1245 C1235 0.930 . S
H1246 C1236 0.930 . S
H1247 C1237 0.930 . S
Eu1248 N1279 2.657 . S
Eu1248 N1286 2.609 . S
Eu1248 O1292 2.558 . S
Eu1248 O1293 2.612 . S
Eu1248 O1295 2.339 . S
Eu1248 O1296 2.563 . S
Eu1248 O1297 2.419 . S
Eu1248 O1299 2.380 1_554 S
Eu1248 O1300 2.432 . S
Eu1248 C1312 2.848 . S
C1249 C1252 1.429 . S
C1249 C1253 1.411 . S
C1249 N1256 1.377 . S
C1250 C1252 1.420 . S
C1250 C1254 1.423 . S
C1250 C1262 1.392 . S
C1251 C1253 1.420 . S
C1251 C1254 1.351 . S
C1251 H1274 0.931 . S
C1252 C1249 1.429 . S
C1252 C1250 1.420 . S
C1252 N1260 1.362 . S
C1253 C1249 1.411 . S
C1253 C1251 1.420 . S
C1253 C1258 1.395 . S
C1254 C1250 1.423 . S
C1254 C1251 1.351 . S
C1254 H1266 0.930 . S
C1255 C1257 1.400 . S
C1255 C1258 1.386 . S
C1255 H1267 0.930 . S
N1256 C1249 1.377 . S
N1256 C1257 1.321 . S
N1256 Eu1259 2.609 . S
C1257 C1255 1.400 . S
C1257 N1256 1.321 . S
C1257 H1264 0.930 . S
C1258 C1253 1.395 . S
C1258 C1255 1.386 . S
C1258 H1277 0.930 . S
Eu1259 N1256 2.609 . S
Eu1259 N1260 2.657 . S
Eu1259 O1293 2.380 1_556 S
Eu1259 O1294 2.432 . S
Eu1259 O1298 2.558 . S
Eu1259 O1299 2.612 . S
Eu1259 O1301 2.339 . S
Eu1259 O1302 2.563 . S
Eu1259 O1303 2.419 . S
Eu1259 C1323 2.848 . S
N1260 C1252 1.362 . S
N1260 Eu1259 2.657 . S
N1260 C1261 1.334 . S
C1261 N1260 1.334 . S
C1261 C1263 1.413 . S
C1261 H1268 0.929 . S
C1262 C1250 1.392 . S
C1262 C1263 1.367 . S
C1262 H1270 0.930 . S
C1263 C1261 1.413 . S
C1263 C1262 1.367 . S
C1263 H1265 0.930 . S
H1264 C1257 0.930 . S
H1265 C1263 0.930 . S
H1266 C1254 0.930 . S
H1267 C1255 0.930 . S
H1268 C1261 0.929 . S
H1269 C1283 0.930 . S
H1270 C1262 0.930 . S
H1271 C1289 0.930 . S
H1272 C1280 0.929 . S
H1273 C1287 0.930 . S
H1274 C1251 0.931 . S
H1275 C1281 0.930 . S
H1276 C1314 0.930 . S
H1277 C1258 0.930 . S
H1278 C1313 0.931 . S
N1279 Eu1248 2.657 . S
N1279 C1280 1.334 . S
N1279 C1284 1.362 . S
C1280 H1272 0.929 . S
C1280 N1279 1.334 . S
C1280 C1283 1.413 . S
C1281 H1275 0.930 . S
C1281 C1282 1.392 . S
C1281 C1283 1.367 . S
C1282 C1281 1.392 . S
C1282 C1284 1.420 . S
C1282 C1314 1.423 . S
C1283 H1269 0.930 . S
C1283 C1280 1.413 . S
C1283 C1281 1.367 . S
C1284 N1279 1.362 . S
C1284 C1282 1.420 . S
C1284 C1288 1.429 . S
H1285 C1290 0.930 . S
N1286 Eu1248 2.609 . S
N1286 C1288 1.377 . S
N1286 C1289 1.321 . S
C1287 H1273 0.930 . S
C1287 C1289 1.400 . S
C1287 C1290 1.386 . S
C1288 C1284 1.429 . S
C1288 N1286 1.377 . S
C1288 C1291 1.411 . S
C1289 H1271 0.930 . S
C1289 N1286 1.321 . S
C1289 C1287 1.400 . S
C1290 H1285 0.930 . S
C1290 C1287 1.386 . S
C1290 C1291 1.395 . S
C1291 C1288 1.411 . S
C1291 C1290 1.395 . S
C1291 C1313 1.420 . S
O1292 Eu1248 2.558 . S
O1292 C1312 1.257 . S
O1293 Eu1248 2.612 . S
O1293 Eu1259 2.380 1_554 S
O1293 C1304 1.276 . S
O1294 Eu1259 2.432 . S
O1294 C1311 1.264 1_556 S
O1295 Eu1248 2.339 . S
O1295 C1311 1.254 . S
O1296 Eu1248 2.563 . S
O1296 C1304 1.235 . S
O1297 Eu1248 2.419 . S
O1297 C1312 1.249 . S
O1298 Eu1259 2.558 . S
O1298 C1323 1.257 . S
O1299 Eu1248 2.380 1_556 S
O1299 Eu1259 2.612 . S
O1299 C1315 1.276 . S
O1300 Eu1248 2.432 . S
O1300 C1322 1.264 1_554 S
O1301 Eu1259 2.339 . S
O1301 C1322 1.254 . S
O1302 Eu1259 2.563 . S
O1302 C1315 1.235 . S
O1303 Eu1259 2.419 . S
O1303 C1323 1.249 . S
C1304 O1293 1.276 . S
C1304 O1296 1.235 . S
C1305 C1307 1.393 . S
C1305 C1309 1.395 . S
C1305 C1312 1.492 . S
C1306 C1307 1.392 . S
C1306 C1308 1.386 . S
C1307 C1305 1.393 . S
C1307 C1306 1.392 . S
C1307 H1324 0.930 . S
C1308 C1306 1.386 . S
C1308 C1310 1.395 . S
C1308 H1325 0.930 . S
C1309 C1305 1.395 . S
C1309 C1310 1.379 . S
C1309 H1326 0.930 . S
C1310 C1308 1.395 . S
C1310 C1309 1.379 . S
C1310 H1327 0.930 . S
C1311 O1294 1.264 1_554 S
C1311 O1295 1.254 . S
C1312 Eu1248 2.848 . S
C1312 O1292 1.257 . S
C1312 O1297 1.249 . S
C1312 C1305 1.492 . S
C1313 H1278 0.931 . S
C1313 C1291 1.420 . S
C1313 C1314 1.351 . S
C1314 H1276 0.930 . S
C1314 C1282 1.423 . S
C1314 C1313 1.351 . S
C1315 O1299 1.276 . S
C1315 O1302 1.235 . S
C1316 C1317 1.393 . S
C1316 C1320 1.395 . S
C1316 C1323 1.492 . S
C1317 C1316 1.393 . S
C1317 C1318 1.392 . S
C1317 H1328 0.930 . S
C1318 C1317 1.392 . S
C1318 C1319 1.386 . S
C1319 C1318 1.386 . S
C1319 C1321 1.395 . S
C1319 H1329 0.930 . S
C1320 C1316 1.395 . S
C1320 C1321 1.379 . S
C1320 H1330 0.930 . S
C1321 C1319 1.395 . S
C1321 C1320 1.379 . S
C1321 H1331 0.930 . S
C1322 O1300 1.264 1_556 S
C1322 O1301 1.254 . S
C1323 Eu1259 2.848 . S
C1323 O1298 1.257 . S
C1323 O1303 1.249 . S
C1323 C1316 1.492 . S
H1324 C1307 0.930 . S
H1325 C1308 0.930 . S
H1326 C1309 0.930 . S
H1327 C1310 0.930 . S
H1328 C1317 0.930 . S
H1329 C1319 0.930 . S
H1330 C1320 0.930 . S
H1331 C1321 0.930 . S
Eu1332 N1363 2.657 . S
Eu1332 N1370 2.609 . S
Eu1332 O1376 2.558 . S
Eu1332 O1377 2.612 . S
Eu1332 O1379 2.339 . S
Eu1332 O1380 2.563 . S
Eu1332 O1381 2.419 . S
Eu1332 O1383 2.380 . S
Eu1332 O1384 2.432 . S
Eu1332 C1396 2.848 . S
C1333 C1336 1.429 . S
C1333 C1337 1.411 . S
C1333 N1340 1.377 . S
C1334 C1336 1.420 . S
C1334 C1338 1.423 . S
C1334 C1346 1.392 . S
C1335 C1337 1.420 . S
C1335 C1338 1.351 . S
C1335 H1358 0.931 . S
C1336 C1333 1.429 . S
C1336 C1334 1.420 . S
C1336 N1344 1.362 . S
C1337 C1333 1.411 . S
C1337 C1335 1.420 . S
C1337 C1342 1.395 . S
C1338 C1334 1.423 . S
C1338 C1335 1.351 . S
C1338 H1350 0.930 . S
C1339 C1341 1.400 . S
C1339 C1342 1.386 . S
C1339 H1351 0.930 . S
N1340 C1333 1.377 . S
N1340 C1341 1.321 . S
N1340 Eu1343 2.609 . S
C1341 C1339 1.400 . S
C1341 N1340 1.321 . S
C1341 H1348 0.930 . S
C1342 C1337 1.395 . S
C1342 C1339 1.386 . S
C1342 H1361 0.930 . S
Eu1343 N1340 2.609 . S
Eu1343 N1344 2.657 . S
Eu1343 O1377 2.380 . S
Eu1343 O1378 2.432 . S
Eu1343 O1382 2.558 . S
Eu1343 O1383 2.612 . S
Eu1343 O1385 2.339 . S
Eu1343 O1386 2.563 . S
Eu1343 O1387 2.419 . S
Eu1343 C1407 2.848 . S
N1344 C1336 1.362 . S
N1344 Eu1343 2.657 . S
N1344 C1345 1.334 . S
C1345 N1344 1.334 . S
C1345 C1347 1.413 . S
C1345 H1352 0.929 . S
C1346 C1334 1.392 . S
C1346 C1347 1.367 . S
C1346 H1354 0.930 . S
C1347 C1345 1.413 . S
C1347 C1346 1.367 . S
C1347 H1349 0.930 . S
H1348 C1341 0.930 . S
H1349 C1347 0.930 . S
H1350 C1338 0.930 . S
H1351 C1339 0.930 . S
H1352 C1345 0.929 . S
H1353 C1367 0.930 . S
H1354 C1346 0.930 . S
H1355 C1373 0.930 . S
H1356 C1364 0.929 . S
H1357 C1371 0.930 . S
H1358 C1335 0.931 . S
H1359 C1365 0.930 . S
H1360 C1398 0.930 . S
H1361 C1342 0.930 . S
H1362 C1397 0.931 . S
N1363 Eu1332 2.657 . S
N1363 C1364 1.334 . S
N1363 C1368 1.362 . S
C1364 H1356 0.929 . S
C1364 N1363 1.334 . S
C1364 C1367 1.413 . S
C1365 H1359 0.930 . S
C1365 C1366 1.392 . S
C1365 C1367 1.367 . S
C1366 C1365 1.392 . S
C1366 C1368 1.420 . S
C1366 C1398 1.423 . S
C1367 H1353 0.930 . S
C1367 C1364 1.413 . S
C1367 C1365 1.367 . S
C1368 N1363 1.362 . S
C1368 C1366 1.420 . S
C1368 C1372 1.429 . S
H1369 C1374 0.930 . S
N1370 Eu1332 2.609 . S
N1370 C1372 1.377 . S
N1370 C1373 1.321 . S
C1371 H1357 0.930 . S
C1371 C1373 1.400 . S
C1371 C1374 1.386 . S
C1372 C1368 1.429 . S
C1372 N1370 1.377 . S
C1372 C1375 1.411 . S
C1373 H1355 0.930 . S
C1373 N1370 1.321 . S
C1373 C1371 1.400 . S
C1374 H1369 0.930 . S
C1374 C1371 1.386 . S
C1374 C1375 1.395 . S
C1375 C1372 1.411 . S
C1375 C1374 1.395 . S
C1375 C1397 1.420 . S
O1376 Eu1332 2.558 . S
O1376 C1396 1.257 . S
O1377 Eu1332 2.612 . S
O1377 Eu1343 2.380 . S
O1377 C1388 1.276 . S
O1378 Eu1343 2.432 . S
O1378 C1395 1.264 . S
O1379 Eu1332 2.339 . S
O1379 C1395 1.254 . S
O1380 Eu1332 2.563 . S
O1380 C1388 1.235 . S
O1381 Eu1332 2.419 . S
O1381 C1396 1.249 . S
O1382 Eu1343 2.558 . S
O1382 C1407 1.257 . S
O1383 Eu1332 2.380 . S
O1383 Eu1343 2.612 . S
O1383 C1399 1.276 . S
O1384 Eu1332 2.432 . S
O1384 C1406 1.264 . S
O1385 Eu1343 2.339 . S
O1385 C1406 1.254 . S
O1386 Eu1343 2.563 . S
O1386 C1399 1.235 . S
O1387 Eu1343 2.419 . S
O1387 C1407 1.249 . S
C1388 O1377 1.276 . S
C1388 O1380 1.235 . S
C1389 C1391 1.393 . S
C1389 C1393 1.395 . S
C1389 C1396 1.492 . S
C1390 C1391 1.392 . S
C1390 C1392 1.386 . S
C1391 C1389 1.393 . S
C1391 C1390 1.392 . S
C1391 H1408 0.930 . S
C1392 C1390 1.386 . S
C1392 C1394 1.395 . S
C1392 H1409 0.930 . S
C1393 C1389 1.395 . S
C1393 C1394 1.379 . S
C1393 H1410 0.930 . S
C1394 C1392 1.395 . S
C1394 C1393 1.379 . S
C1394 H1411 0.930 . S
C1395 O1378 1.264 . S
C1395 O1379 1.254 . S
C1396 Eu1332 2.848 . S
C1396 O1376 1.257 . S
C1396 O1381 1.249 . S
C1396 C1389 1.492 . S
C1397 H1362 0.931 . S
C1397 C1375 1.420 . S
C1397 C1398 1.351 . S
C1398 H1360 0.930 . S
C1398 C1366 1.423 . S
C1398 C1397 1.351 . S
C1399 O1383 1.276 . S
C1399 O1386 1.235 . S
C1400 C1401 1.393 . S
C1400 C1404 1.395 . S
C1400 C1407 1.492 . S
C1401 C1400 1.393 . S
C1401 C1402 1.392 . S
C1401 H1412 0.930 . S
C1402 C1401 1.392 . S
C1402 C1403 1.386 . S
C1403 C1402 1.386 . S
C1403 C1405 1.395 . S
C1403 H1413 0.930 . S
C1404 C1400 1.395 . S
C1404 C1405 1.379 . S
C1404 H1414 0.930 . S
C1405 C1403 1.395 . S
C1405 C1404 1.379 . S
C1405 H1415 0.930 . S
C1406 O1384 1.264 . S
C1406 O1385 1.254 . S
C1407 Eu1343 2.848 . S
C1407 O1382 1.257 . S
C1407 O1387 1.249 . S
C1407 C1400 1.492 . S
H1408 C1391 0.930 . S
H1409 C1392 0.930 . S
H1410 C1393 0.930 . S
H1411 C1394 0.930 . S
H1412 C1401 0.930 . S
H1413 C1403 0.930 . S
H1414 C1404 0.930 . S
H1415 C1405 0.930 . S
Eu1416 N1447 2.657 . S
Eu1416 N1454 2.609 . S
Eu1416 O1460 2.558 . S
Eu1416 O1461 2.612 . S
Eu1416 O1463 2.339 . S
Eu1416 O1464 2.563 . S
Eu1416 O1465 2.419 . S
Eu1416 O1467 2.380 . S
Eu1416 O1468 2.432 . S
Eu1416 C1480 2.848 . S
C1417 C1420 1.429 . S
C1417 C1421 1.411 . S
C1417 N1424 1.377 . S
C1418 C1420 1.420 . S
C1418 C1422 1.423 . S
C1418 C1430 1.392 . S
C1419 C1421 1.420 . S
C1419 C1422 1.351 . S
C1419 H1442 0.931 . S
C1420 C1417 1.429 . S
C1420 C1418 1.420 . S
C1420 N1428 1.362 . S
C1421 C1417 1.411 . S
C1421 C1419 1.420 . S
C1421 C1426 1.395 . S
C1422 C1418 1.423 . S
C1422 C1419 1.351 . S
C1422 H1434 0.930 . S
C1423 C1425 1.400 . S
C1423 C1426 1.386 . S
C1423 H1435 0.930 . S
N1424 C1417 1.377 . S
N1424 C1425 1.321 . S
N1424 Eu1427 2.609 . S
C1425 C1423 1.400 . S
C1425 N1424 1.321 . S
C1425 H1432 0.930 . S
C1426 C1421 1.395 . S
C1426 C1423 1.386 . S
C1426 H1445 0.930 . S
Eu1427 N1424 2.609 . S
Eu1427 N1428 2.657 . S
Eu1427 O1461 2.380 . S
Eu1427 O1462 2.432 . S
Eu1427 O1466 2.558 . S
Eu1427 O1467 2.612 . S
Eu1427 O1469 2.339 . S
Eu1427 O1470 2.563 . S
Eu1427 O1471 2.419 . S
Eu1427 C1491 2.848 . S
N1428 C1420 1.362 . S
N1428 Eu1427 2.657 . S
N1428 C1429 1.334 . S
C1429 N1428 1.334 . S
C1429 C1431 1.413 . S
C1429 H1436 0.929 . S
C1430 C1418 1.392 . S
C1430 C1431 1.367 . S
C1430 H1438 0.930 . S
C1431 C1429 1.413 . S
C1431 C1430 1.367 . S
C1431 H1433 0.930 . S
H1432 C1425 0.930 . S
H1433 C1431 0.930 . S
H1434 C1422 0.930 . S
H1435 C1423 0.930 . S
H1436 C1429 0.929 . S
H1437 C1451 0.930 . S
H1438 C1430 0.930 . S
H1439 C1457 0.930 . S
H1440 C1448 0.929 . S
H1441 C1455 0.930 . S
H1442 C1419 0.931 . S
H1443 C1449 0.930 . S
H1444 C1482 0.930 . S
H1445 C1426 0.930 . S
H1446 C1481 0.931 . S
N1447 Eu1416 2.657 . S
N1447 C1448 1.334 . S
N1447 C1452 1.362 . S
C1448 H1440 0.929 . S
C1448 N1447 1.334 . S
C1448 C1451 1.413 . S
C1449 H1443 0.930 . S
C1449 C1450 1.392 . S
C1449 C1451 1.367 . S
C1450 C1449 1.392 . S
C1450 C1452 1.420 . S
C1450 C1482 1.423 . S
C1451 H1437 0.930 . S
C1451 C1448 1.413 . S
C1451 C1449 1.367 . S
C1452 N1447 1.362 . S
C1452 C1450 1.420 . S
C1452 C1456 1.429 . S
H1453 C1458 0.930 . S
N1454 Eu1416 2.609 . S
N1454 C1456 1.377 . S
N1454 C1457 1.321 . S
C1455 H1441 0.930 . S
C1455 C1457 1.400 . S
C1455 C1458 1.386 . S
C1456 C1452 1.429 . S
C1456 N1454 1.377 . S
C1456 C1459 1.411 . S
C1457 H1439 0.930 . S
C1457 N1454 1.321 . S
C1457 C1455 1.400 . S
C1458 H1453 0.930 . S
C1458 C1455 1.386 . S
C1458 C1459 1.395 . S
C1459 C1456 1.411 . S
C1459 C1458 1.395 . S
C1459 C1481 1.420 . S
O1460 Eu1416 2.558 . S
O1460 C1480 1.257 . S
O1461 Eu1416 2.612 . S
O1461 Eu1427 2.380 . S
O1461 C1472 1.276 . S
O1462 Eu1427 2.432 . S
O1462 C1479 1.264 . S
O1463 Eu1416 2.339 . S
O1463 C1479 1.254 . S
O1464 Eu1416 2.563 . S
O1464 C1472 1.235 . S
O1465 Eu1416 2.419 . S
O1465 C1480 1.249 . S
O1466 Eu1427 2.558 . S
O1466 C1491 1.257 . S
O1467 Eu1416 2.380 . S
O1467 Eu1427 2.612 . S
O1467 C1483 1.276 . S
O1468 Eu1416 2.432 . S
O1468 C1490 1.264 . S
O1469 Eu1427 2.339 . S
O1469 C1490 1.254 . S
O1470 Eu1427 2.563 . S
O1470 C1483 1.235 . S
O1471 Eu1427 2.419 . S
O1471 C1491 1.249 . S
C1472 O1461 1.276 . S
C1472 O1464 1.235 . S
C1473 C1475 1.393 . S
C1473 C1477 1.395 . S
C1473 C1480 1.492 . S
C1474 C1475 1.392 . S
C1474 C1476 1.386 . S
C1475 C1473 1.393 . S
C1475 C1474 1.392 . S
C1475 H1492 0.930 . S
C1476 C1474 1.386 . S
C1476 C1478 1.395 . S
C1476 H1493 0.930 . S
C1477 C1473 1.395 . S
C1477 C1478 1.379 . S
C1477 H1494 0.930 . S
C1478 C1476 1.395 . S
C1478 C1477 1.379 . S
C1478 H1495 0.930 . S
C1479 O1462 1.264 . S
C1479 O1463 1.254 . S
C1480 Eu1416 2.848 . S
C1480 O1460 1.257 . S
C1480 O1465 1.249 . S
C1480 C1473 1.492 . S
C1481 H1446 0.931 . S
C1481 C1459 1.420 . S
C1481 C1482 1.351 . S
C1482 H1444 0.930 . S
C1482 C1450 1.423 . S
C1482 C1481 1.351 . S
C1483 O1467 1.276 . S
C1483 O1470 1.235 . S
C1484 C1485 1.393 . S
C1484 C1488 1.395 . S
C1484 C1491 1.492 . S
C1485 C1484 1.393 . S
C1485 C1486 1.392 . S
C1485 H1496 0.930 . S
C1486 C1485 1.392 . S
C1486 C1487 1.386 . S
C1487 C1486 1.386 . S
C1487 C1489 1.395 . S
C1487 H1497 0.930 . S
C1488 C1484 1.395 . S
C1488 C1489 1.379 . S
C1488 H1498 0.930 . S
C1489 C1487 1.395 . S
C1489 C1488 1.379 . S
C1489 H1499 0.930 . S
C1490 O1468 1.264 . S
C1490 O1469 1.254 . S
C1491 Eu1427 2.848 . S
C1491 O1466 1.257 . S
C1491 O1471 1.249 . S
C1491 C1484 1.492 . S
H1492 C1475 0.930 . S
H1493 C1476 0.930 . S
H1494 C1477 0.930 . S
H1495 C1478 0.930 . S
H1496 C1485 0.930 . S
H1497 C1487 0.930 . S
H1498 C1488 0.930 . S
H1499 C1489 0.930 . S
Eu1500 N1531 2.657 . S
Eu1500 N1538 2.609 . S
Eu1500 O1544 2.558 . S
Eu1500 O1545 2.612 . S
Eu1500 O1547 2.339 . S
Eu1500 O1548 2.563 . S
Eu1500 O1549 2.419 . S
Eu1500 O1551 2.380 . S
Eu1500 O1552 2.432 . S
Eu1500 C1564 2.848 . S
C1501 C1504 1.429 . S
C1501 C1505 1.411 . S
C1501 N1508 1.377 . S
C1502 C1504 1.420 . S
C1502 C1506 1.423 . S
C1502 C1514 1.392 . S
C1503 C1505 1.420 . S
C1503 C1506 1.351 . S
C1503 H1526 0.931 . S
C1504 C1501 1.429 . S
C1504 C1502 1.420 . S
C1504 N1512 1.362 . S
C1505 C1501 1.411 . S
C1505 C1503 1.420 . S
C1505 C1510 1.395 . S
C1506 C1502 1.423 . S
C1506 C1503 1.351 . S
C1506 H1518 0.930 . S
C1507 C1509 1.400 . S
C1507 C1510 1.386 . S
C1507 H1519 0.930 . S
N1508 C1501 1.377 . S
N1508 C1509 1.321 . S
N1508 Eu1511 2.609 . S
C1509 C1507 1.400 . S
C1509 N1508 1.321 . S
C1509 H1516 0.930 . S
C1510 C1505 1.395 . S
C1510 C1507 1.386 . S
C1510 H1529 0.930 . S
Eu1511 N1508 2.609 . S
Eu1511 N1512 2.657 . S
Eu1511 O1545 2.380 . S
Eu1511 O1546 2.432 . S
Eu1511 O1550 2.558 . S
Eu1511 O1551 2.612 . S
Eu1511 O1553 2.339 . S
Eu1511 O1554 2.563 . S
Eu1511 O1555 2.419 . S
Eu1511 C1575 2.848 . S
N1512 C1504 1.362 . S
N1512 Eu1511 2.657 . S
N1512 C1513 1.334 . S
C1513 N1512 1.334 . S
C1513 C1515 1.413 . S
C1513 H1520 0.929 . S
C1514 C1502 1.392 . S
C1514 C1515 1.367 . S
C1514 H1522 0.930 . S
C1515 C1513 1.413 . S
C1515 C1514 1.367 . S
C1515 H1517 0.930 . S
H1516 C1509 0.930 . S
H1517 C1515 0.930 . S
H1518 C1506 0.930 . S
H1519 C1507 0.930 . S
H1520 C1513 0.929 . S
H1521 C1535 0.930 . S
H1522 C1514 0.930 . S
H1523 C1541 0.930 . S
H1524 C1532 0.929 . S
H1525 C1539 0.930 . S
H1526 C1503 0.931 . S
H1527 C1533 0.930 . S
H1528 C1566 0.930 . S
H1529 C1510 0.930 . S
H1530 C1565 0.931 . S
N1531 Eu1500 2.657 . S
N1531 C1532 1.334 . S
N1531 C1536 1.362 . S
C1532 H1524 0.929 . S
C1532 N1531 1.334 . S
C1532 C1535 1.413 . S
C1533 H1527 0.930 . S
C1533 C1534 1.392 . S
C1533 C1535 1.367 . S
C1534 C1533 1.392 . S
C1534 C1536 1.420 . S
C1534 C1566 1.423 . S
C1535 H1521 0.930 . S
C1535 C1532 1.413 . S
C1535 C1533 1.367 . S
C1536 N1531 1.362 . S
C1536 C1534 1.420 . S
C1536 C1540 1.429 . S
H1537 C1542 0.930 . S
N1538 Eu1500 2.609 . S
N1538 C1540 1.377 . S
N1538 C1541 1.321 . S
C1539 H1525 0.930 . S
C1539 C1541 1.400 . S
C1539 C1542 1.386 . S
C1540 C1536 1.429 . S
C1540 N1538 1.377 . S
C1540 C1543 1.411 . S
C1541 H1523 0.930 . S
C1541 N1538 1.321 . S
C1541 C1539 1.400 . S
C1542 H1537 0.930 . S
C1542 C1539 1.386 . S
C1542 C1543 1.395 . S
C1543 C1540 1.411 . S
C1543 C1542 1.395 . S
C1543 C1565 1.420 . S
O1544 Eu1500 2.558 . S
O1544 C1564 1.257 . S
O1545 Eu1500 2.612 . S
O1545 Eu1511 2.380 . S
O1545 C1556 1.276 . S
O1546 Eu1511 2.432 . S
O1546 C1563 1.264 . S
O1547 Eu1500 2.339 . S
O1547 C1563 1.254 . S
O1548 Eu1500 2.563 . S
O1548 C1556 1.235 . S
O1549 Eu1500 2.419 . S
O1549 C1564 1.249 . S
O1550 Eu1511 2.558 . S
O1550 C1575 1.257 . S
O1551 Eu1500 2.380 . S
O1551 Eu1511 2.612 . S
O1551 C1567 1.276 . S
O1552 Eu1500 2.432 . S
O1552 C1574 1.264 . S
O1553 Eu1511 2.339 . S
O1553 C1574 1.254 . S
O1554 Eu1511 2.563 . S
O1554 C1567 1.235 . S
O1555 Eu1511 2.419 . S
O1555 C1575 1.249 . S
C1556 O1545 1.276 . S
C1556 O1548 1.235 . S
C1557 C1559 1.393 . S
C1557 C1561 1.395 . S
C1557 C1564 1.492 . S
C1558 C1559 1.392 . S
C1558 C1560 1.386 . S
C1559 C1557 1.393 . S
C1559 C1558 1.392 . S
C1559 H1576 0.930 . S
C1560 C1558 1.386 . S
C1560 C1562 1.395 . S
C1560 H1577 0.930 . S
C1561 C1557 1.395 . S
C1561 C1562 1.379 . S
C1561 H1578 0.930 . S
C1562 C1560 1.395 . S
C1562 C1561 1.379 . S
C1562 H1579 0.930 . S
C1563 O1546 1.264 . S
C1563 O1547 1.254 . S
C1564 Eu1500 2.848 . S
C1564 O1544 1.257 . S
C1564 O1549 1.249 . S
C1564 C1557 1.492 . S
C1565 H1530 0.931 . S
C1565 C1543 1.420 . S
C1565 C1566 1.351 . S
C1566 H1528 0.930 . S
C1566 C1534 1.423 . S
C1566 C1565 1.351 . S
C1567 O1551 1.276 . S
C1567 O1554 1.235 . S
C1568 C1569 1.393 . S
C1568 C1572 1.395 . S
C1568 C1575 1.492 . S
C1569 C1568 1.393 . S
C1569 C1570 1.392 . S
C1569 H1580 0.930 . S
C1570 C1569 1.392 . S
C1570 C1571 1.386 . S
C1571 C1570 1.386 . S
C1571 C1573 1.395 . S
C1571 H1581 0.930 . S
C1572 C1568 1.395 . S
C1572 C1573 1.379 . S
C1572 H1582 0.930 . S
C1573 C1571 1.395 . S
C1573 C1572 1.379 . S
C1573 H1583 0.930 . S
C1574 O1552 1.264 . S
C1574 O1553 1.254 . S
C1575 Eu1511 2.848 . S
C1575 O1550 1.257 . S
C1575 O1555 1.249 . S
C1575 C1568 1.492 . S
H1576 C1559 0.930 . S
H1577 C1560 0.930 . S
H1578 C1561 0.930 . S
H1579 C1562 0.930 . S
H1580 C1569 0.930 . S
H1581 C1571 0.930 . S
H1582 C1572 0.930 . S
H1583 C1573 0.930 . S
Eu1584 N1615 2.657 . S
Eu1584 N1622 2.609 . S
Eu1584 O1628 2.558 . S
Eu1584 O1629 2.612 . S
Eu1584 O1631 2.339 . S
Eu1584 O1632 2.563 . S
Eu1584 O1633 2.419 . S
Eu1584 O1635 2.380 . S
Eu1584 O1636 2.432 . S
Eu1584 C1648 2.848 . S
C1585 C1588 1.429 . S
C1585 C1589 1.411 . S
C1585 N1592 1.377 . S
C1586 C1588 1.420 . S
C1586 C1590 1.423 . S
C1586 C1598 1.392 . S
C1587 C1589 1.420 . S
C1587 C1590 1.351 . S
C1587 H1610 0.931 . S
C1588 C1585 1.429 . S
C1588 C1586 1.420 . S
C1588 N1596 1.362 . S
C1589 C1585 1.411 . S
C1589 C1587 1.420 . S
C1589 C1594 1.395 . S
C1590 C1586 1.423 . S
C1590 C1587 1.351 . S
C1590 H1602 0.930 . S
C1591 C1593 1.400 . S
C1591 C1594 1.386 . S
C1591 H1603 0.930 . S
N1592 C1585 1.377 . S
N1592 C1593 1.321 . S
N1592 Eu1595 2.609 . S
C1593 C1591 1.400 . S
C1593 N1592 1.321 . S
C1593 H1600 0.930 . S
C1594 C1589 1.395 . S
C1594 C1591 1.386 . S
C1594 H1613 0.930 . S
Eu1595 N1592 2.609 . S
Eu1595 N1596 2.657 . S
Eu1595 O1629 2.380 . S
Eu1595 O1630 2.432 . S
Eu1595 O1634 2.558 . S
Eu1595 O1635 2.612 . S
Eu1595 O1637 2.339 . S
Eu1595 O1638 2.563 . S
Eu1595 O1639 2.419 . S
Eu1595 C1659 2.848 . S
N1596 C1588 1.362 . S
N1596 Eu1595 2.657 . S
N1596 C1597 1.334 . S
C1597 N1596 1.334 . S
C1597 C1599 1.413 . S
C1597 H1604 0.929 . S
C1598 C1586 1.392 . S
C1598 C1599 1.367 . S
C1598 H1606 0.930 . S
C1599 C1597 1.413 . S
C1599 C1598 1.367 . S
C1599 H1601 0.930 . S
H1600 C1593 0.930 . S
H1601 C1599 0.930 . S
H1602 C1590 0.930 . S
H1603 C1591 0.930 . S
H1604 C1597 0.929 . S
H1605 C1619 0.930 . S
H1606 C1598 0.930 . S
H1607 C1625 0.930 . S
H1608 C1616 0.929 . S
H1609 C1623 0.930 . S
H1610 C1587 0.931 . S
H1611 C1617 0.930 . S
H1612 C1650 0.930 . S
H1613 C1594 0.930 . S
H1614 C1649 0.931 . S
N1615 Eu1584 2.657 . S
N1615 C1616 1.334 . S
N1615 C1620 1.362 . S
C1616 H1608 0.929 . S
C1616 N1615 1.334 . S
C1616 C1619 1.413 . S
C1617 H1611 0.930 . S
C1617 C1618 1.392 . S
C1617 C1619 1.367 . S
C1618 C1617 1.392 . S
C1618 C1620 1.420 . S
C1618 C1650 1.423 . S
C1619 H1605 0.930 . S
C1619 C1616 1.413 . S
C1619 C1617 1.367 . S
C1620 N1615 1.362 . S
C1620 C1618 1.420 . S
C1620 C1624 1.429 . S
H1621 C1626 0.930 . S
N1622 Eu1584 2.609 . S
N1622 C1624 1.377 . S
N1622 C1625 1.321 . S
C1623 H1609 0.930 . S
C1623 C1625 1.400 . S
C1623 C1626 1.386 . S
C1624 C1620 1.429 . S
C1624 N1622 1.377 . S
C1624 C1627 1.411 . S
C1625 H1607 0.930 . S
C1625 N1622 1.321 . S
C1625 C1623 1.400 . S
C1626 H1621 0.930 . S
C1626 C1623 1.386 . S
C1626 C1627 1.395 . S
C1627 C1624 1.411 . S
C1627 C1626 1.395 . S
C1627 C1649 1.420 . S
O1628 Eu1584 2.558 . S
O1628 C1648 1.257 . S
O1629 Eu1584 2.612 . S
O1629 Eu1595 2.380 . S
O1629 C1640 1.276 . S
O1630 Eu1595 2.432 . S
O1630 C1647 1.264 . S
O1631 Eu1584 2.339 . S
O1631 C1647 1.254 . S
O1632 Eu1584 2.563 . S
O1632 C1640 1.235 . S
O1633 Eu1584 2.419 . S
O1633 C1648 1.249 . S
O1634 Eu1595 2.558 . S
O1634 C1659 1.257 . S
O1635 Eu1584 2.380 . S
O1635 Eu1595 2.612 . S
O1635 C1651 1.276 . S
O1636 Eu1584 2.432 . S
O1636 C1658 1.264 . S
O1637 Eu1595 2.339 . S
O1637 C1658 1.254 . S
O1638 Eu1595 2.563 . S
O1638 C1651 1.235 . S
O1639 Eu1595 2.419 . S
O1639 C1659 1.249 . S
C1640 O1629 1.276 . S
C1640 O1632 1.235 . S
C1641 C1643 1.393 . S
C1641 C1645 1.395 . S
C1641 C1648 1.492 . S
C1642 C1643 1.392 . S
C1642 C1644 1.386 . S
C1643 C1641 1.393 . S
C1643 C1642 1.392 . S
C1643 H1660 0.930 . S
C1644 C1642 1.386 . S
C1644 C1646 1.395 . S
C1644 H1661 0.930 . S
C1645 C1641 1.395 . S
C1645 C1646 1.379 . S
C1645 H1662 0.930 . S
C1646 C1644 1.395 . S
C1646 C1645 1.379 . S
C1646 H1663 0.930 . S
C1647 O1630 1.264 . S
C1647 O1631 1.254 . S
C1648 Eu1584 2.848 . S
C1648 O1628 1.257 . S
C1648 O1633 1.249 . S
C1648 C1641 1.492 . S
C1649 H1614 0.931 . S
C1649 C1627 1.420 . S
C1649 C1650 1.351 . S
C1650 H1612 0.930 . S
C1650 C1618 1.423 . S
C1650 C1649 1.351 . S
C1651 O1635 1.276 . S
C1651 O1638 1.235 . S
C1652 C1653 1.393 . S
C1652 C1656 1.395 . S
C1652 C1659 1.492 . S
C1653 C1652 1.393 . S
C1653 C1654 1.392 . S
C1653 H1664 0.930 . S
C1654 C1653 1.392 . S
C1654 C1655 1.386 . S
C1655 C1654 1.386 . S
C1655 C1657 1.395 . S
C1655 H1665 0.930 . S
C1656 C1652 1.395 . S
C1656 C1657 1.379 . S
C1656 H1666 0.930 . S
C1657 C1655 1.395 . S
C1657 C1656 1.379 . S
C1657 H1667 0.930 . S
C1658 O1636 1.264 . S
C1658 O1637 1.254 . S
C1659 Eu1595 2.848 . S
C1659 O1634 1.257 . S
C1659 O1639 1.249 . S
C1659 C1652 1.492 . S
H1660 C1643 0.930 . S
H1661 C1644 0.930 . S
H1662 C1645 0.930 . S
H1663 C1646 0.930 . S
H1664 C1653 0.930 . S
H1665 C1655 0.930 . S
H1666 C1656 0.930 . S
H1667 C1657 0.930 . S
Eu1668 N1699 2.657 . S
Eu1668 N1706 2.609 . S
Eu1668 O1712 2.558 . S
Eu1668 O1713 2.612 . S
Eu1668 O1715 2.339 . S
Eu1668 O1716 2.563 . S
Eu1668 O1717 2.419 . S
Eu1668 O1719 2.380 . S
Eu1668 O1720 2.432 . S
Eu1668 C1732 2.848 . S
C1669 C1672 1.429 . S
C1669 C1673 1.411 . S
C1669 N1676 1.377 . S
C1670 C1672 1.420 . S
C1670 C1674 1.423 . S
C1670 C1682 1.392 . S
C1671 C1673 1.420 . S
C1671 C1674 1.351 . S
C1671 H1694 0.931 . S
C1672 C1669 1.429 . S
C1672 C1670 1.420 . S
C1672 N1680 1.362 . S
C1673 C1669 1.411 . S
C1673 C1671 1.420 . S
C1673 C1678 1.395 . S
C1674 C1670 1.423 . S
C1674 C1671 1.351 . S
C1674 H1686 0.930 . S
C1675 C1677 1.400 . S
C1675 C1678 1.386 . S
C1675 H1687 0.930 . S
N1676 C1669 1.377 . S
N1676 C1677 1.321 . S
N1676 Eu1679 2.609 . S
C1677 C1675 1.400 . S
C1677 N1676 1.321 . S
C1677 H1684 0.930 . S
C1678 C1673 1.395 . S
C1678 C1675 1.386 . S
C1678 H1697 0.930 . S
Eu1679 N1676 2.609 . S
Eu1679 N1680 2.657 . S
Eu1679 O1713 2.380 . S
Eu1679 O1714 2.432 . S
Eu1679 O1718 2.558 . S
Eu1679 O1719 2.612 . S
Eu1679 O1721 2.339 . S
Eu1679 O1722 2.563 . S
Eu1679 O1723 2.419 . S
Eu1679 C1743 2.848 . S
N1680 C1672 1.362 . S
N1680 Eu1679 2.657 . S
N1680 C1681 1.334 . S
C1681 N1680 1.334 . S
C1681 C1683 1.413 . S
C1681 H1688 0.929 . S
C1682 C1670 1.392 . S
C1682 C1683 1.367 . S
C1682 H1690 0.930 . S
C1683 C1681 1.413 . S
C1683 C1682 1.367 . S
C1683 H1685 0.930 . S
H1684 C1677 0.930 . S
H1685 C1683 0.930 . S
H1686 C1674 0.930 . S
H1687 C1675 0.930 . S
H1688 C1681 0.929 . S
H1689 C1703 0.930 . S
H1690 C1682 0.930 . S
H1691 C1709 0.930 . S
H1692 C1700 0.929 . S
H1693 C1707 0.930 . S
H1694 C1671 0.931 . S
H1695 C1701 0.930 . S
H1696 C1734 0.930 . S
H1697 C1678 0.930 . S
H1698 C1733 0.931 . S
N1699 Eu1668 2.657 . S
N1699 C1700 1.334 . S
N1699 C1704 1.362 . S
C1700 H1692 0.929 . S
C1700 N1699 1.334 . S
C1700 C1703 1.413 . S
C1701 H1695 0.930 . S
C1701 C1702 1.392 . S
C1701 C1703 1.367 . S
C1702 C1701 1.392 . S
C1702 C1704 1.420 . S
C1702 C1734 1.423 . S
C1703 H1689 0.930 . S
C1703 C1700 1.413 . S
C1703 C1701 1.367 . S
C1704 N1699 1.362 . S
C1704 C1702 1.420 . S
C1704 C1708 1.429 . S
H1705 C1710 0.930 . S
N1706 Eu1668 2.609 . S
N1706 C1708 1.377 . S
N1706 C1709 1.321 . S
C1707 H1693 0.930 . S
C1707 C1709 1.400 . S
C1707 C1710 1.386 . S
C1708 C1704 1.429 . S
C1708 N1706 1.377 . S
C1708 C1711 1.411 . S
C1709 H1691 0.930 . S
C1709 N1706 1.321 . S
C1709 C1707 1.400 . S
C1710 H1705 0.930 . S
C1710 C1707 1.386 . S
C1710 C1711 1.395 . S
C1711 C1708 1.411 . S
C1711 C1710 1.395 . S
C1711 C1733 1.420 . S
O1712 Eu1668 2.558 . S
O1712 C1732 1.257 . S
O1713 Eu1668 2.612 . S
O1713 Eu1679 2.380 . S
O1713 C1724 1.276 . S
O1714 Eu1679 2.432 . S
O1714 C1731 1.264 . S
O1715 Eu1668 2.339 . S
O1715 C1731 1.254 . S
O1716 Eu1668 2.563 . S
O1716 C1724 1.235 . S
O1717 Eu1668 2.419 . S
O1717 C1732 1.249 . S
O1718 Eu1679 2.558 . S
O1718 C1743 1.257 . S
O1719 Eu1668 2.380 . S
O1719 Eu1679 2.612 . S
O1719 C1735 1.276 . S
O1720 Eu1668 2.432 . S
O1720 C1742 1.264 . S
O1721 Eu1679 2.339 . S
O1721 C1742 1.254 . S
O1722 Eu1679 2.563 . S
O1722 C1735 1.235 . S
O1723 Eu1679 2.419 . S
O1723 C1743 1.249 . S
C1724 O1713 1.276 . S
C1724 O1716 1.235 . S
C1725 C1727 1.393 . S
C1725 C1729 1.395 . S
C1725 C1732 1.492 . S
C1726 C1727 1.392 . S
C1726 C1728 1.386 . S
C1727 C1725 1.393 . S
C1727 C1726 1.392 . S
C1727 H1744 0.930 . S
C1728 C1726 1.386 . S
C1728 C1730 1.395 . S
C1728 H1745 0.930 . S
C1729 C1725 1.395 . S
C1729 C1730 1.379 . S
C1729 H1746 0.930 . S
C1730 C1728 1.395 . S
C1730 C1729 1.379 . S
C1730 H1747 0.930 . S
C1731 O1714 1.264 . S
C1731 O1715 1.254 . S
C1732 Eu1668 2.848 . S
C1732 O1712 1.257 . S
C1732 O1717 1.249 . S
C1732 C1725 1.492 . S
C1733 H1698 0.931 . S
C1733 C1711 1.420 . S
C1733 C1734 1.351 . S
C1734 H1696 0.930 . S
C1734 C1702 1.423 . S
C1734 C1733 1.351 . S
C1735 O1719 1.276 . S
C1735 O1722 1.235 . S
C1736 C1737 1.393 . S
C1736 C1740 1.395 . S
C1736 C1743 1.492 . S
C1737 C1736 1.393 . S
C1737 C1738 1.392 . S
C1737 H1748 0.930 . S
C1738 C1737 1.392 . S
C1738 C1739 1.386 . S
C1739 C1738 1.386 . S
C1739 C1741 1.395 . S
C1739 H1749 0.930 . S
C1740 C1736 1.395 . S
C1740 C1741 1.379 . S
C1740 H1750 0.930 . S
C1741 C1739 1.395 . S
C1741 C1740 1.379 . S
C1741 H1751 0.930 . S
C1742 O1720 1.264 . S
C1742 O1721 1.254 . S
C1743 Eu1679 2.848 . S
C1743 O1718 1.257 . S
C1743 O1723 1.249 . S
C1743 C1736 1.492 . S
H1744 C1727 0.930 . S
H1745 C1728 0.930 . S
H1746 C1729 0.930 . S
H1747 C1730 0.930 . S
H1748 C1737 0.930 . S
H1749 C1739 0.930 . S
H1750 C1740 0.930 . S
H1751 C1741 0.930 . S
Eu1752 N1783 2.657 . S
Eu1752 N1790 2.609 . S
Eu1752 O1796 2.558 . S
Eu1752 O1797 2.612 . S
Eu1752 O1799 2.339 . S
Eu1752 O1800 2.563 . S
Eu1752 O1801 2.419 . S
Eu1752 O1803 2.380 . S
Eu1752 O1804 2.432 . S
Eu1752 C1816 2.848 . S
C1753 C1756 1.429 . S
C1753 C1757 1.411 . S
C1753 N1760 1.377 . S
C1754 C1756 1.420 . S
C1754 C1758 1.423 . S
C1754 C1766 1.392 . S
C1755 C1757 1.420 . S
C1755 C1758 1.351 . S
C1755 H1778 0.931 . S
C1756 C1753 1.429 . S
C1756 C1754 1.420 . S
C1756 N1764 1.362 . S
C1757 C1753 1.411 . S
C1757 C1755 1.420 . S
C1757 C1762 1.395 . S
C1758 C1754 1.423 . S
C1758 C1755 1.351 . S
C1758 H1770 0.930 . S
C1759 C1761 1.400 . S
C1759 C1762 1.386 . S
C1759 H1771 0.930 . S
N1760 C1753 1.377 . S
N1760 C1761 1.321 . S
N1760 Eu1763 2.609 . S
C1761 C1759 1.400 . S
C1761 N1760 1.321 . S
C1761 H1768 0.930 . S
C1762 C1757 1.395 . S
C1762 C1759 1.386 . S
C1762 H1781 0.930 . S
Eu1763 N1760 2.609 . S
Eu1763 N1764 2.657 . S
Eu1763 O1797 2.380 . S
Eu1763 O1798 2.432 . S
Eu1763 O1802 2.558 . S
Eu1763 O1803 2.612 . S
Eu1763 O1805 2.339 . S
Eu1763 O1806 2.563 . S
Eu1763 O1807 2.419 . S
Eu1763 C1827 2.848 . S
N1764 C1756 1.362 . S
N1764 Eu1763 2.657 . S
N1764 C1765 1.334 . S
C1765 N1764 1.334 . S
C1765 C1767 1.413 . S
C1765 H1772 0.929 . S
C1766 C1754 1.392 . S
C1766 C1767 1.367 . S
C1766 H1774 0.930 . S
C1767 C1765 1.413 . S
C1767 C1766 1.367 . S
C1767 H1769 0.930 . S
H1768 C1761 0.930 . S
H1769 C1767 0.930 . S
H1770 C1758 0.930 . S
H1771 C1759 0.930 . S
H1772 C1765 0.929 . S
H1773 C1787 0.930 . S
H1774 C1766 0.930 . S
H1775 C1793 0.930 . S
H1776 C1784 0.929 . S
H1777 C1791 0.930 . S
H1778 C1755 0.931 . S
H1779 C1785 0.930 . S
H1780 C1818 0.930 . S
H1781 C1762 0.930 . S
H1782 C1817 0.931 . S
N1783 Eu1752 2.657 . S
N1783 C1784 1.334 . S
N1783 C1788 1.362 . S
C1784 H1776 0.929 . S
C1784 N1783 1.334 . S
C1784 C1787 1.413 . S
C1785 H1779 0.930 . S
C1785 C1786 1.392 . S
C1785 C1787 1.367 . S
C1786 C1785 1.392 . S
C1786 C1788 1.420 . S
C1786 C1818 1.423 . S
C1787 H1773 0.930 . S
C1787 C1784 1.413 . S
C1787 C1785 1.367 . S
C1788 N1783 1.362 . S
C1788 C1786 1.420 . S
C1788 C1792 1.429 . S
H1789 C1794 0.930 . S
N1790 Eu1752 2.609 . S
N1790 C1792 1.377 . S
N1790 C1793 1.321 . S
C1791 H1777 0.930 . S
C1791 C1793 1.400 . S
C1791 C1794 1.386 . S
C1792 C1788 1.429 . S
C1792 N1790 1.377 . S
C1792 C1795 1.411 . S
C1793 H1775 0.930 . S
C1793 N1790 1.321 . S
C1793 C1791 1.400 . S
C1794 H1789 0.930 . S
C1794 C1791 1.386 . S
C1794 C1795 1.395 . S
C1795 C1792 1.411 . S
C1795 C1794 1.395 . S
C1795 C1817 1.420 . S
O1796 Eu1752 2.558 . S
O1796 C1816 1.257 . S
O1797 Eu1752 2.612 . S
O1797 Eu1763 2.380 . S
O1797 C1808 1.276 . S
O1798 Eu1763 2.432 . S
O1798 C1815 1.264 . S
O1799 Eu1752 2.339 . S
O1799 C1815 1.254 . S
O1800 Eu1752 2.563 . S
O1800 C1808 1.235 . S
O1801 Eu1752 2.419 . S
O1801 C1816 1.249 . S
O1802 Eu1763 2.558 . S
O1802 C1827 1.257 . S
O1803 Eu1752 2.380 . S
O1803 Eu1763 2.612 . S
O1803 C1819 1.276 . S
O1804 Eu1752 2.432 . S
O1804 C1826 1.264 . S
O1805 Eu1763 2.339 . S
O1805 C1826 1.254 . S
O1806 Eu1763 2.563 . S
O1806 C1819 1.235 . S
O1807 Eu1763 2.419 . S
O1807 C1827 1.249 . S
C1808 O1797 1.276 . S
C1808 O1800 1.235 . S
C1809 C1811 1.393 . S
C1809 C1813 1.395 . S
C1809 C1816 1.492 . S
C1810 C1811 1.392 . S
C1810 C1812 1.386 . S
C1811 C1809 1.393 . S
C1811 C1810 1.392 . S
C1811 H1828 0.930 . S
C1812 C1810 1.386 . S
C1812 C1814 1.395 . S
C1812 H1829 0.930 . S
C1813 C1809 1.395 . S
C1813 C1814 1.379 . S
C1813 H1830 0.930 . S
C1814 C1812 1.395 . S
C1814 C1813 1.379 . S
C1814 H1831 0.930 . S
C1815 O1798 1.264 . S
C1815 O1799 1.254 . S
C1816 Eu1752 2.848 . S
C1816 O1796 1.257 . S
C1816 O1801 1.249 . S
C1816 C1809 1.492 . S
C1817 H1782 0.931 . S
C1817 C1795 1.420 . S
C1817 C1818 1.351 . S
C1818 H1780 0.930 . S
C1818 C1786 1.423 . S
C1818 C1817 1.351 . S
C1819 O1803 1.276 . S
C1819 O1806 1.235 . S
C1820 C1821 1.393 . S
C1820 C1824 1.395 . S
C1820 C1827 1.492 . S
C1821 C1820 1.393 . S
C1821 C1822 1.392 . S
C1821 H1832 0.930 . S
C1822 C1821 1.392 . S
C1822 C1823 1.386 . S
C1823 C1822 1.386 . S
C1823 C1825 1.395 . S
C1823 H1833 0.930 . S
C1824 C1820 1.395 . S
C1824 C1825 1.379 . S
C1824 H1834 0.930 . S
C1825 C1823 1.395 . S
C1825 C1824 1.379 . S
C1825 H1835 0.930 . S
C1826 O1804 1.264 . S
C1826 O1805 1.254 . S
C1827 Eu1763 2.848 . S
C1827 O1802 1.257 . S
C1827 O1807 1.249 . S
C1827 C1820 1.492 . S
H1828 C1811 0.930 . S
H1829 C1812 0.930 . S
H1830 C1813 0.930 . S
H1831 C1814 0.930 . S
H1832 C1821 0.930 . S
H1833 C1823 0.930 . S
H1834 C1824 0.930 . S
H1835 C1825 0.930 . S
H1836 C1848 0.930 . S
H1837 C1850 0.930 . S
H1838 C1851 0.930 . S
H1839 C1855 0.959 . S
H1840 C1855 0.959 . S
H1841 C1855 0.961 . S
H1842 C1856 0.960 . S
H1843 C1856 0.961 . S
H1844 C1856 0.959 . S
H1845 C1859 0.929 . S
H1846 C1860 0.931 . S
H1847 C1862 0.930 . S
C1848 H1836 0.930 . S
C1848 C1849 1.399 . S
C1848 C1853 1.399 . S
C1849 C1848 1.399 . S
C1849 C1850 1.376 . S
C1850 H1837 0.930 . S
C1850 C1849 1.376 . S
C1850 C1851 1.388 . S
C1851 H1838 0.930 . S
C1851 C1850 1.388 . S
C1851 C1852 1.390 . S
C1852 C1851 1.390 . S
C1852 C1853 1.394 . S
C1852 C1858 1.465 . S
C1853 C1848 1.399 . S
C1853 C1852 1.394 . S
C1853 C1854 1.516 . S
C1854 C1853 1.516 . S
C1854 C1855 1.502 . S
C1854 C1856 1.561 . S
C1854 C1857 1.526 . S
C1855 H1839 0.959 . S
C1855 H1840 0.959 . S
C1855 H1841 0.961 . S
C1855 C1854 1.502 . S
C1856 H1842 0.960 . S
C1856 H1843 0.961 . S
C1856 H1844 0.959 . S
C1856 C1854 1.561 . S
C1857 C1854 1.526 . S
C1857 C1858 1.396 . S
C1857 C1862 1.390 . S
C1858 C1852 1.465 . S
C1858 C1857 1.396 . S
C1858 C1859 1.399 . S
C1859 H1845 0.929 . S
C1859 C1858 1.399 . S
C1859 C1860 1.385 . S
C1860 H1846 0.931 . S
C1860 C1859 1.385 . S
C1860 C1861 1.389 . S
C1861 C1860 1.389 . S
C1861 C1862 1.387 . S
C1862 H1847 0.930 . S
C1862 C1857 1.390 . S
C1862 C1861 1.387 . S
H1863 C1875 0.930 . S
H1864 C1877 0.930 . S
H1865 C1878 0.930 . S
H1866 C1882 0.959 . S
H1867 C1882 0.959 1_556 S
H1868 C1882 0.961 . S
H1869 C1883 0.960 . S
H1870 C1883 0.961 . S
H1871 C1883 0.959 . S
H1872 C1886 0.929 . S
H1873 C1887 0.931 . S
H1874 C1889 0.930 . S
C1875 H1863 0.930 . S
C1875 C1876 1.399 . S
C1875 C1880 1.399 . S
C1876 C1875 1.399 . S
C1876 C1877 1.376 . S
C1877 H1864 0.930 . S
C1877 C1876 1.376 . S
C1877 C1878 1.388 . S
C1878 H1865 0.930 . S
C1878 C1877 1.388 . S
C1878 C1879 1.390 . S
C1879 C1878 1.390 . S
C1879 C1880 1.394 . S
C1879 C1885 1.465 . S
C1880 C1875 1.399 . S
C1880 C1879 1.394 . S
C1880 C1881 1.516 . S
C1881 C1880 1.516 . S
C1881 C1882 1.502 . S
C1881 C1883 1.561 . S
C1881 C1884 1.526 . S
C1882 H1866 0.959 . S
C1882 H1867 0.959 1_554 S
C1882 H1868 0.961 . S
C1882 C1881 1.502 . S
C1883 H1869 0.960 . S
C1883 H1870 0.961 . S
C1883 H1871 0.959 . S
C1883 C1881 1.561 . S
C1884 C1881 1.526 . S
C1884 C1885 1.396 . S
C1884 C1889 1.390 . S
C1885 C1879 1.465 . S
C1885 C1884 1.396 . S
C1885 C1886 1.399 . S
C1886 H1872 0.929 . S
C1886 C1885 1.399 . S
C1886 C1887 1.385 . S
C1887 H1873 0.931 . S
C1887 C1886 1.385 . S
C1887 C1888 1.389 . S
C1888 C1887 1.389 . S
C1888 C1889 1.387 . S
C1889 H1874 0.930 . S
C1889 C1884 1.390 . S
C1889 C1888 1.387 . S
H1890 C1902 0.930 . S
H1891 C1904 0.930 . S
H1892 C1905 0.930 . S
H1893 C1909 0.959 . S
H1894 C1909 1.011 . S
H1895 C1909 0.961 . S
H1896 C1910 0.949 1_556 S
H1897 C1910 0.961 1_556 S
H1898 C1910 0.959 . S
H1899 C1913 0.929 . S
H1900 C1914 0.931 . S
H1901 C1916 0.930 . S
C1902 H1890 0.930 . S
C1902 C1903 1.399 . S
C1902 C1907 1.399 . S
C1903 C1902 1.399 . S
C1903 C1904 1.376 . S
C1904 H1891 0.930 . S
C1904 C1903 1.376 . S
C1904 C1905 1.388 . S
C1905 H1892 0.930 . S
C1905 C1904 1.388 . S
C1905 C1906 1.390 . S
C1906 C1905 1.390 . S
C1906 C1907 1.394 . S
C1906 C1912 1.465 . S
C1907 C1902 1.399 . S
C1907 C1906 1.394 . S
C1907 C1908 1.516 . S
C1908 C1907 1.516 . S
C1908 C1909 1.502 . S
C1908 C1910 1.561 . S
C1908 C1911 1.526 . S
C1909 H1893 0.959 . S
C1909 H1894 1.011 . S
C1909 H1895 0.961 . S
C1909 C1908 1.502 . S
C1910 H1896 0.949 1_554 S
C1910 H1897 0.961 1_554 S
C1910 H1898 0.959 . S
C1910 C1908 1.561 . S
C1911 C1908 1.526 . S
C1911 C1912 1.396 . S
C1911 C1916 1.390 . S
C1912 C1906 1.465 . S
C1912 C1911 1.396 . S
C1912 C1913 1.399 . S
C1913 H1899 0.929 . S
C1913 C1912 1.399 . S
C1913 C1914 1.385 . S
C1914 H1900 0.931 . S
C1914 C1913 1.385 . S
C1914 C1915 1.389 . S
C1915 C1914 1.389 . S
C1915 C1916 1.387 . S
C1916 H1901 0.930 . S
C1916 C1911 1.390 . S
C1916 C1915 1.387 . S
H1917 C1929 0.930 . S
H1918 C1931 0.930 . S
H1919 C1932 0.930 . S
H1920 C1936 0.974 . S
H1921 C1936 0.899 1_554 S
H1922 C1936 0.948 1_554 S
H1923 C1937 0.960 . S
H1924 C1937 0.961 . S
H1925 C1937 0.959 . S
H1926 C1940 0.929 . S
H1927 C1941 0.931 . S
H1928 C1943 0.930 . S
C1929 H1917 0.930 . S
C1929 C1930 1.399 . S
C1929 C1934 1.399 . S
C1930 C1929 1.399 . S
C1930 C1931 1.376 . S
C1931 H1918 0.930 . S
C1931 C1930 1.376 . S
C1931 C1932 1.388 . S
C1932 H1919 0.930 . S
C1932 C1931 1.388 . S
C1932 C1933 1.390 . S
C1933 C1932 1.390 . S
C1933 C1934 1.394 . S
C1933 C1939 1.465 . S
C1934 C1929 1.399 . S
C1934 C1933 1.394 . S
C1934 C1935 1.516 . S
C1935 C1934 1.516 . S
C1935 C1936 1.567 . S
C1935 C1937 1.561 . S
C1935 C1938 1.526 . S
C1936 H1920 0.974 . S
C1936 H1921 0.899 1_556 S
C1936 H1922 0.948 1_556 S
C1936 C1935 1.567 . S
C1937 H1923 0.960 . S
C1937 H1924 0.961 . S
C1937 H1925 0.959 . S
C1937 C1935 1.561 . S
C1938 C1935 1.526 . S
C1938 C1939 1.396 . S
C1938 C1943 1.390 . S
C1939 C1933 1.465 . S
C1939 C1938 1.396 . S
C1939 C1940 1.399 . S
C1940 H1926 0.929 . S
C1940 C1939 1.399 . S
C1940 C1941 1.385 . S
C1941 H1927 0.931 . S
C1941 C1940 1.385 . S
C1941 C1942 1.389 . S
C1942 C1941 1.389 . S
C1942 C1943 1.387 . S
C1943 H1928 0.930 . S
C1943 C1938 1.390 . S
C1943 C1942 1.387 . S
H1944 C1956 0.930 . S
H1945 C1958 0.930 . S
H1946 C1959 0.930 . S
H1947 C1963 0.959 . S
H1948 C1963 0.959 . S
H1949 C1963 0.961 . S
H1950 C1964 0.960 . S
H1951 C1964 0.961 1_554 S
H1952 C1964 0.959 . S
H1953 C1967 0.929 . S
H1954 C1968 0.931 . S
H1955 C1970 0.930 . S
C1956 H1944 0.930 . S
C1956 C1957 1.399 . S
C1956 C1961 1.399 . S
C1957 C1956 1.399 . S
C1957 C1958 1.376 . S
C1958 H1945 0.930 . S
C1958 C1957 1.376 . S
C1958 C1959 1.388 . S
C1959 H1946 0.930 . S
C1959 C1958 1.388 . S
C1959 C1960 1.390 . S
C1960 C1959 1.390 . S
C1960 C1961 1.394 . S
C1960 C1966 1.465 . S
C1961 C1956 1.399 . S
C1961 C1960 1.394 . S
C1961 C1962 1.516 . S
C1962 C1961 1.516 . S
C1962 C1963 1.502 . S
C1962 C1964 1.561 . S
C1962 C1965 1.526 . S
C1963 H1947 0.959 . S
C1963 H1948 0.959 . S
C1963 H1949 0.961 . S
C1963 C1962 1.502 . S
C1964 H1950 0.960 . S
C1964 H1951 0.961 1_556 S
C1964 H1952 0.959 . S
C1964 C1962 1.561 . S
C1965 C1962 1.526 . S
C1965 C1966 1.396 . S
C1965 C1970 1.390 . S
C1966 C1960 1.465 . S
C1966 C1965 1.396 . S
C1966 C1967 1.399 . S
C1967 H1953 0.929 . S
C1967 C1966 1.399 . S
C1967 C1968 1.385 . S
C1968 H1954 0.931 . S
C1968 C1967 1.385 . S
C1968 C1969 1.389 . S
C1969 C1968 1.389 . S
C1969 C1970 1.387 . S
C1970 H1955 0.930 . S
C1970 C1965 1.390 . S
C1970 C1969 1.387 . S
H1971 C1983 0.930 . S
H1972 C1985 0.930 . S
H1973 C1986 0.930 . S
H1974 C1990 0.959 . S
H1975 C1990 0.959 1_554 S
H1976 C1990 0.953 1_554 S
H1977 C1991 0.960 . S
H1978 C1991 0.961 1_554 S
H1979 C1991 0.959 . S
H1980 C1994 0.929 . S
H1981 C1995 0.931 . S
H1982 C1997 0.930 1_554 S
C1983 H1971 0.930 . S
C1983 C1984 1.399 . S
C1983 C1988 1.399 . S
C1984 C1983 1.399 . S
C1984 C1985 1.376 . S
C1985 H1972 0.930 . S
C1985 C1984 1.376 . S
C1985 C1986 1.388 . S
C1986 H1973 0.930 . S
C1986 C1985 1.388 . S
C1986 C1987 1.390 . S
C1987 C1986 1.390 . S
C1987 C1988 1.394 . S
C1987 C1993 1.465 . S
C1988 C1983 1.399 . S
C1988 C1987 1.394 . S
C1988 C1989 1.516 . S
C1989 C1988 1.516 . S
C1989 C1990 1.502 . S
C1989 C1991 1.561 . S
C1989 C1992 1.526 . S
C1990 H1974 0.959 . S
C1990 H1975 0.959 1_556 S
C1990 H1976 0.953 1_556 S
C1990 C1989 1.502 . S
C1991 H1977 0.960 . S
C1991 H1978 0.961 1_556 S
C1991 H1979 0.959 . S
C1991 C1989 1.561 . S
C1992 C1989 1.526 . S
C1992 C1993 1.396 . S
C1992 C1997 1.390 . S
C1993 C1987 1.465 . S
C1993 C1992 1.396 . S
C1993 C1994 1.399 . S
C1994 H1980 0.929 . S
C1994 C1993 1.399 . S
C1994 C1995 1.385 . S
C1995 H1981 0.931 . S
C1995 C1994 1.385 . S
C1995 C1996 1.389 . S
C1996 C1995 1.389 . S
C1996 C1997 1.387 . S
C1997 H1982 0.930 1_556 S
C1997 C1992 1.390 . S
C1997 C1996 1.387 . S
H1998 C2010 0.930 . S
H1999 C2012 0.930 . S
H2000 C2013 0.930 . S
H2001 C2017 0.959 . S
H2002 C2017 0.959 1_554 S
H2003 C2017 0.974 . S
H2004 C2018 0.960 . S
H2005 C2018 0.961 1_554 S
H2006 C2018 0.959 . S
H2007 C2021 0.929 . S
H2008 C2022 0.931 . S
H2009 C2024 0.912 1_554 S
C2010 H1998 0.930 . S
C2010 C2011 1.399 . S
C2010 C2015 1.399 . S
C2011 C2010 1.399 . S
C2011 C2012 1.376 . S
C2012 H1999 0.930 . S
C2012 C2011 1.376 . S
C2012 C2013 1.388 . S
C2013 H2000 0.930 . S
C2013 C2012 1.388 . S
C2013 C2014 1.390 . S
C2014 C2013 1.390 . S
C2014 C2015 1.394 . S
C2014 C2020 1.465 . S
C2015 C2010 1.399 . S
C2015 C2014 1.394 . S
C2015 C2016 1.516 . S
C2016 C2015 1.516 . S
C2016 C2017 1.502 . S
C2016 C2018 1.561 . S
C2016 C2019 1.526 . S
C2017 H2001 0.959 . S
C2017 H2002 0.959 1_556 S
C2017 H2003 0.974 . S
C2017 C2016 1.502 . S
C2018 H2004 0.960 . S
C2018 H2005 0.961 1_556 S
C2018 H2006 0.959 . S
C2018 C2016 1.561 . S
C2019 C2016 1.526 . S
C2019 C2020 1.396 . S
C2019 C2024 1.390 . S
C2020 C2014 1.465 . S
C2020 C2019 1.396 . S
C2020 C2021 1.399 . S
C2021 H2007 0.929 . S
C2021 C2020 1.399 . S
C2021 C2022 1.385 . S
C2022 H2008 0.931 . S
C2022 C2021 1.385 . S
C2022 C2023 1.389 . S
C2023 C2022 1.389 . S
C2023 C2024 1.387 . S
C2024 H2009 0.912 1_556 S
C2024 C2019 1.390 . S
C2024 C2023 1.387 . S
H2025 C2037 0.930 . S
H2026 C2039 0.930 . S
H2027 C2040 0.930 . S
H2028 C2044 0.959 . S
H2029 C2044 0.959 1_554 S
H2030 C2044 0.961 . S
H2031 C2045 0.960 . S
H2032 C2045 0.961 . S
H2033 C2045 0.959 . S
H2034 C2048 0.929 . S
H2035 C2049 0.931 . S
H2036 C2051 0.930 . S
C2037 H2025 0.930 . S
C2037 C2038 1.399 . S
C2037 C2042 1.399 . S
C2038 C2037 1.399 . S
C2038 C2039 1.376 . S
C2039 H2026 0.930 . S
C2039 C2038 1.376 . S
C2039 C2040 1.388 . S
C2040 H2027 0.930 . S
C2040 C2039 1.388 . S
C2040 C2041 1.390 . S
C2041 C2040 1.390 . S
C2041 C2042 1.394 . S
C2041 C2047 1.465 . S
C2042 C2037 1.399 . S
C2042 C2041 1.394 . S
C2042 C2043 1.516 . S
C2043 C2042 1.516 . S
C2043 C2044 1.502 . S
C2043 C2045 1.561 . S
C2043 C2046 1.526 . S
C2044 H2028 0.959 . S
C2044 H2029 0.959 1_556 S
C2044 H2030 0.961 . S
C2044 C2043 1.502 . S
C2045 H2031 0.960 . S
C2045 H2032 0.961 . S
C2045 H2033 0.959 . S
C2045 C2043 1.561 . S
C2046 C2043 1.526 . S
C2046 C2047 1.396 . S
C2046 C2051 1.390 . S
C2047 C2041 1.465 . S
C2047 C2046 1.396 . S
C2047 C2048 1.399 . S
C2048 H2034 0.929 . S
C2048 C2047 1.399 . S
C2048 C2049 1.385 . S
C2049 H2035 0.931 . S
C2049 C2048 1.385 . S
C2049 C2050 1.389 . S
C2050 C2049 1.389 . S
C2050 C2051 1.387 . S
C2051 H2036 0.930 . S
C2051 C2046 1.390 . S
C2051 C2050 1.387 . S
H2052 C2064 0.930 . S
H2053 C2066 0.930 . S
H2054 C2067 0.930 . S
H2055 C2071 0.959 . S
H2056 C2071 0.959 . S
H2057 C2071 0.961 . S
H2058 C2072 0.968 . S
H2059 C2072 0.995 . S
H2060 C2072 0.959 . S
H2061 C2075 0.929 . S
H2062 C2076 0.931 . S
H2063 C2078 0.930 . S
C2064 H2052 0.930 . S
C2064 C2065 1.399 . S
C2064 C2069 1.399 . S
C2065 C2064 1.399 . S
C2065 C2066 1.376 . S
C2066 H2053 0.930 . S
C2066 C2065 1.376 . S
C2066 C2067 1.388 . S
C2067 H2054 0.930 . S
C2067 C2066 1.388 . S
C2067 C2068 1.390 . S
C2068 C2067 1.390 . S
C2068 C2069 1.394 . S
C2068 C2074 1.465 . S
C2069 C2064 1.399 . S
C2069 C2068 1.394 . S
C2069 C2070 1.516 . S
C2070 C2069 1.516 . S
C2070 C2071 1.502 . S
C2070 C2072 1.521 1_556 S
C2070 C2073 1.526 . S
C2071 H2055 0.959 . S
C2071 H2056 0.959 . S
C2071 H2057 0.961 . S
C2071 C2070 1.502 . S
C2072 H2058 0.968 . S
C2072 H2059 0.995 . S
C2072 H2060 0.959 . S
C2072 C2070 1.521 1_554 S
C2073 C2070 1.526 . S
C2073 C2074 1.396 . S
C2073 C2078 1.390 . S
C2074 C2068 1.465 . S
C2074 C2073 1.396 . S
C2074 C2075 1.399 . S
C2075 H2061 0.929 . S
C2075 C2074 1.399 . S
C2075 C2076 1.385 . S
C2076 H2062 0.931 . S
C2076 C2075 1.385 . S
C2076 C2077 1.389 . S
C2077 C2076 1.389 . S
C2077 C2078 1.387 . S
C2078 H2063 0.930 . S
C2078 C2073 1.390 . S
C2078 C2077 1.387 . S
H2079 C2091 0.930 . S
H2080 C2093 0.930 . S
H2081 C2094 0.930 . S
H2082 C2098 0.959 . S
H2083 C2098 0.959 . S
H2084 C2098 0.961 . S
H2085 C2099 0.960 . S
H2086 C2099 0.961 . S
H2087 C2099 0.959 . S
H2088 C2102 0.929 . S
H2089 C2103 0.931 . S
H2090 C2105 0.930 . S
C2091 H2079 0.930 . S
C2091 C2092 1.399 . S
C2091 C2096 1.399 . S
C2092 C2091 1.399 . S
C2092 C2093 1.376 . S
C2093 H2080 0.930 . S
C2093 C2092 1.376 . S
C2093 C2094 1.388 . S
C2094 H2081 0.930 . S
C2094 C2093 1.388 . S
C2094 C2095 1.390 . S
C2095 C2094 1.390 . S
C2095 C2096 1.394 . S
C2095 C2101 1.465 . S
C2096 C2091 1.399 . S
C2096 C2095 1.394 . S
C2096 C2097 1.516 . S
C2097 C2096 1.516 . S
C2097 C2098 1.502 . S
C2097 C2099 1.561 . S
C2097 C2100 1.526 . S
C2098 H2082 0.959 . S
C2098 H2083 0.959 . S
C2098 H2084 0.961 . S
C2098 C2097 1.502 . S
C2099 H2085 0.960 . S
C2099 H2086 0.961 . S
C2099 H2087 0.959 . S
C2099 C2097 1.561 . S
C2100 C2097 1.526 . S
C2100 C2101 1.396 . S
C2100 C2105 1.390 . S
C2101 C2095 1.465 . S
C2101 C2100 1.396 . S
C2101 C2102 1.399 . S
C2102 H2088 0.929 . S
C2102 C2101 1.399 . S
C2102 C2103 1.385 . S
C2103 H2089 0.931 . S
C2103 C2102 1.385 . S
C2103 C2104 1.389 . S
C2104 C2103 1.389 . S
C2104 C2105 1.387 . S
C2105 H2090 0.930 . S
C2105 C2100 1.390 . S
C2105 C2104 1.387 . S
H2106 C2118 0.930 . S
H2107 C2120 0.930 . S
H2108 C2121 0.930 . S
H2109 C2125 0.959 . S
H2110 C2125 0.959 . S
H2111 C2125 0.961 . S
H2112 C2126 0.960 . S
H2113 C2126 0.961 . S
H2114 C2126 0.959 . S
H2115 C2129 0.929 . S
H2116 C2130 0.931 . S
H2117 C2132 0.930 . S
C2118 H2106 0.930 . S
C2118 C2119 1.399 . S
C2118 C2123 1.399 . S
C2119 C2118 1.399 . S
C2119 C2120 1.376 . S
C2120 H2107 0.930 . S
C2120 C2119 1.376 . S
C2120 C2121 1.388 . S
C2121 H2108 0.930 . S
C2121 C2120 1.388 . S
C2121 C2122 1.390 . S
C2122 C2121 1.390 . S
C2122 C2123 1.394 . S
C2122 C2128 1.465 . S
C2123 C2118 1.399 . S
C2123 C2122 1.394 . S
C2123 C2124 1.516 . S
C2124 C2123 1.516 . S
C2124 C2125 1.502 . S
C2124 C2126 1.561 . S
C2124 C2127 1.526 . S
C2125 H2109 0.959 . S
C2125 H2110 0.959 . S
C2125 H2111 0.961 . S
C2125 C2124 1.502 . S
C2126 H2112 0.960 . S
C2126 H2113 0.961 . S
C2126 H2114 0.959 . S
C2126 C2124 1.561 . S
C2127 C2124 1.526 . S
C2127 C2128 1.396 . S
C2127 C2132 1.390 . S
C2128 C2122 1.465 . S
C2128 C2127 1.396 . S
C2128 C2129 1.399 . S
C2129 H2115 0.929 . S
C2129 C2128 1.399 . S
C2129 C2130 1.385 . S
C2130 H2116 0.931 . S
C2130 C2129 1.385 . S
C2130 C2131 1.389 . S
C2131 C2130 1.389 . S
C2131 C2132 1.387 . S
C2132 H2117 0.930 . S
C2132 C2127 1.390 . S
C2132 C2131 1.387 . S
H2133 C2145 0.930 . S
H2134 C2147 0.930 . S
H2135 C2148 0.930 . S
H2136 C2152 0.959 . S
H2137 C2152 0.959 . S
H2138 C2152 0.961 . S
H2139 C2153 0.960 . S
H2140 C2153 0.961 . S
H2141 C2153 0.959 . S
H2142 C2156 0.929 1_556 S
H2143 C2157 0.931 1_556 S
H2144 C2159 0.930 . S
C2145 H2133 0.930 . S
C2145 C2146 1.399 . S
C2145 C2150 1.399 . S
C2146 C2145 1.399 . S
C2146 C2147 1.376 . S
C2147 H2134 0.930 . S
C2147 C2146 1.376 . S
C2147 C2148 1.388 . S
C2148 H2135 0.930 . S
C2148 C2147 1.388 . S
C2148 C2149 1.390 . S
C2149 C2148 1.390 . S
C2149 C2150 1.394 . S
C2149 C2155 1.465 . S
C2150 C2145 1.399 . S
C2150 C2149 1.394 . S
C2150 C2151 1.516 . S
C2151 C2150 1.516 . S
C2151 C2152 1.502 . S
C2151 C2153 1.561 . S
C2151 C2154 1.526 . S
C2152 H2136 0.959 . S
C2152 H2137 0.959 . S
C2152 H2138 0.961 . S
C2152 C2151 1.502 . S
C2153 H2139 0.960 . S
C2153 H2140 0.961 . S
C2153 H2141 0.959 . S
C2153 C2151 1.561 . S
C2154 C2151 1.526 . S
C2154 C2155 1.396 . S
C2154 C2159 1.390 . S
C2155 C2149 1.465 . S
C2155 C2154 1.396 . S
C2155 C2156 1.399 . S
C2156 H2142 0.929 1_554 S
C2156 C2155 1.399 . S
C2156 C2157 1.385 . S
C2157 H2143 0.931 1_554 S
C2157 C2156 1.385 . S
C2157 C2158 1.389 . S
C2158 C2157 1.389 . S
C2158 C2159 1.387 . S
C2159 H2144 0.930 . S
C2159 C2154 1.390 . S
C2159 C2158 1.387 . S
H2160 C2172 0.930 . S
H2161 C2174 0.930 . S
H2162 C2175 0.930 . S
H2163 C2179 0.959 . S
H2164 C2179 0.959 . S
H2165 C2179 0.961 . S
H2166 C2180 0.960 . S
H2167 C2180 0.961 . S
H2168 C2180 0.959 . S
H2169 C2183 0.929 . S
H2170 C2184 0.931 . S
H2171 C2186 0.930 . S
C2172 H2160 0.930 . S
C2172 C2173 1.399 1_455 S
C2172 C2177 1.399 . S
C2173 C2172 1.399 1_655 S
C2173 C2174 1.376 . S
C2174 H2161 0.930 . S
C2174 C2173 1.376 . S
C2174 C2175 1.388 1_655 S
C2175 H2162 0.930 . S
C2175 C2174 1.388 1_455 S
C2175 C2176 1.390 . S
C2176 C2175 1.390 . S
C2176 C2177 1.394 . S
C2176 C2182 1.465 . S
C2177 C2172 1.399 . S
C2177 C2176 1.394 . S
C2177 C2178 1.516 . S
C2178 C2177 1.516 . S
C2178 C2179 1.502 . S
C2178 C2180 1.561 . S
C2178 C2181 1.526 . S
C2179 H2163 0.959 . S
C2179 H2164 0.959 . S
C2179 H2165 0.961 . S
C2179 C2178 1.502 . S
C2180 H2166 0.960 . S
C2180 H2167 0.961 . S
C2180 H2168 0.959 . S
C2180 C2178 1.561 . S
C2181 C2178 1.526 . S
C2181 C2182 1.396 . S
C2181 C2186 1.390 . S
C2182 C2176 1.465 . S
C2182 C2181 1.396 . S
C2182 C2183 1.399 . S
C2183 H2169 0.929 . S
C2183 C2182 1.399 . S
C2183 C2184 1.385 . S
C2184 H2170 0.931 . S
C2184 C2183 1.385 . S
C2184 C2185 1.389 . S
C2185 C2184 1.389 . S
C2185 C2186 1.387 . S
C2186 H2171 0.930 . S
C2186 C2181 1.390 . S
C2186 C2185 1.387 . S
H2187 C2199 0.930 . S
H2188 C2201 0.930 . S
H2189 C2202 0.930 . S
H2190 C2206 0.959 . S
H2191 C2206 0.959 . S
H2192 C2206 0.961 . S
H2193 C2207 0.960 . S
H2194 C2207 0.961 . S
H2195 C2207 0.959 . S
H2196 C2210 0.929 . S
H2197 C2211 0.931 . S
H2198 C2213 0.930 . S
C2199 H2187 0.930 . S
C2199 C2200 1.399 . S
C2199 C2204 1.399 . S
C2200 C2199 1.399 . S
C2200 C2201 1.376 . S
C2201 H2188 0.930 . S
C2201 C2200 1.376 . S
C2201 C2202 1.388 . S
C2202 H2189 0.930 . S
C2202 C2201 1.388 . S
C2202 C2203 1.390 . S
C2203 C2202 1.390 . S
C2203 C2204 1.394 . S
C2203 C2209 1.465 . S
C2204 C2199 1.399 . S
C2204 C2203 1.394 . S
C2204 C2205 1.516 . S
C2205 C2204 1.516 . S
C2205 C2206 1.502 . S
C2205 C2207 1.561 . S
C2205 C2208 1.526 . S
C2206 H2190 0.959 . S
C2206 H2191 0.959 . S
C2206 H2192 0.961 . S
C2206 C2205 1.502 . S
C2207 H2193 0.960 . S
C2207 H2194 0.961 . S
C2207 H2195 0.959 . S
C2207 C2205 1.561 . S
C2208 C2205 1.526 . S
C2208 C2209 1.396 . S
C2208 C2213 1.390 . S
C2209 C2203 1.465 . S
C2209 C2208 1.396 . S
C2209 C2210 1.399 . S
C2210 H2196 0.929 . S
C2210 C2209 1.399 . S
C2210 C2211 1.385 . S
C2211 H2197 0.931 . S
C2211 C2210 1.385 . S
C2211 C2212 1.389 . S
C2212 C2211 1.389 . S
C2212 C2213 1.387 . S
C2213 H2198 0.930 . S
C2213 C2208 1.390 . S
C2213 C2212 1.387 . S
H2214 C2226 0.930 . S
H2215 C2228 0.930 . S
H2216 C2229 0.930 . S
H2217 C2233 0.959 . S
H2218 C2233 0.959 . S
H2219 C2233 0.961 . S
H2220 C2234 0.960 . S
H2221 C2234 0.961 . S
H2222 C2234 0.959 . S
H2223 C2237 0.929 . S
H2224 C2238 0.931 . S
H2225 C2240 0.930 . S
C2226 H2214 0.930 . S
C2226 C2227 1.399 1_565 S
C2226 C2231 1.399 . S
C2227 C2226 1.399 1_545 S
C2227 C2228 1.376 . S
C2228 H2215 0.930 . S
C2228 C2227 1.376 . S
C2228 C2229 1.388 1_545 S
C2229 H2216 0.930 . S
C2229 C2228 1.388 1_565 S
C2229 C2230 1.390 . S
C2230 C2229 1.390 . S
C2230 C2231 1.394 . S
C2230 C2236 1.465 . S
C2231 C2226 1.399 . S
C2231 C2230 1.394 . S
C2231 C2232 1.516 . S
C2232 C2231 1.516 . S
C2232 C2233 1.502 . S
C2232 C2234 1.561 . S
C2232 C2235 1.526 . S
C2233 H2217 0.959 . S
C2233 H2218 0.959 . S
C2233 H2219 0.961 . S
C2233 C2232 1.502 . S
C2234 H2220 0.960 . S
C2234 H2221 0.961 . S
C2234 H2222 0.959 . S
C2234 C2232 1.561 . S
C2235 C2232 1.526 . S
C2235 C2236 1.396 . S
C2235 C2240 1.390 . S
C2236 C2230 1.465 . S
C2236 C2235 1.396 . S
C2236 C2237 1.399 . S
C2237 H2223 0.929 . S
C2237 C2236 1.399 . S
C2237 C2238 1.385 . S
C2238 H2224 0.931 . S
C2238 C2237 1.385 . S
C2238 C2239 1.389 . S
C2239 C2238 1.389 . S
C2239 C2240 1.387 . S
C2240 H2225 0.930 . S
C2240 C2235 1.390 . S
C2240 C2239 1.387 . S
H2241 C2253 0.930 . S
H2242 C2255 0.930 . S
H2243 C2256 0.930 . S
H2244 C2260 0.959 . S
H2245 C2260 0.959 . S
H2246 C2260 0.961 . S
H2247 C2261 0.960 . S
H2248 C2261 0.961 . S
H2249 C2261 0.959 . S
H2250 C2264 0.929 . S
H2251 C2265 0.931 . S
H2252 C2267 0.930 . S
C2253 H2241 0.930 . S
C2253 C2254 1.399 . S
C2253 C2258 1.399 . S
C2254 C2253 1.399 . S
C2254 C2255 1.376 . S
C2255 H2242 0.930 . S
C2255 C2254 1.376 . S
C2255 C2256 1.388 . S
C2256 H2243 0.930 . S
C2256 C2255 1.388 . S
C2256 C2257 1.390 . S
C2257 C2256 1.390 . S
C2257 C2258 1.394 . S
C2257 C2263 1.465 . S
C2258 C2253 1.399 . S
C2258 C2257 1.394 . S
C2258 C2259 1.516 . S
C2259 C2258 1.516 . S
C2259 C2260 1.502 . S
C2259 C2261 1.561 . S
C2259 C2262 1.526 . S
C2260 H2244 0.959 . S
C2260 H2245 0.959 . S
C2260 H2246 0.961 . S
C2260 C2259 1.502 . S
C2261 H2247 0.960 . S
C2261 H2248 0.961 . S
C2261 H2249 0.959 . S
C2261 C2259 1.561 . S
C2262 C2259 1.526 . S
C2262 C2263 1.396 . S
C2262 C2267 1.390 . S
C2263 C2257 1.465 . S
C2263 C2262 1.396 . S
C2263 C2264 1.399 . S
C2264 H2250 0.929 . S
C2264 C2263 1.399 . S
C2264 C2265 1.385 . S
C2265 H2251 0.931 . S
C2265 C2264 1.385 . S
C2265 C2266 1.389 . S
C2266 C2265 1.389 . S
C2266 C2267 1.387 . S
C2267 H2252 0.930 . S
C2267 C2262 1.390 . S
C2267 C2266 1.387 . S
H2268 C2280 0.930 . S
H2269 C2282 0.930 . S
H2270 C2283 0.930 . S
H2271 C2287 0.959 . S
H2272 C2287 0.959 . S
H2273 C2287 0.961 . S
H2274 C2288 0.960 . S
H2275 C2288 0.961 . S
H2276 C2288 0.959 . S
H2277 C2291 0.929 . S
H2278 C2292 0.931 . S
H2279 C2294 0.930 . S
C2280 H2268 0.930 . S
C2280 C2281 1.399 . S
C2280 C2285 1.399 . S
C2281 C2280 1.399 . S
C2281 C2282 1.376 . S
C2282 H2269 0.930 . S
C2282 C2281 1.376 . S
C2282 C2283 1.388 . S
C2283 H2270 0.930 . S
C2283 C2282 1.388 . S
C2283 C2284 1.390 . S
C2284 C2283 1.390 . S
C2284 C2285 1.394 . S
C2284 C2290 1.465 . S
C2285 C2280 1.399 . S
C2285 C2284 1.394 . S
C2285 C2286 1.516 . S
C2286 C2285 1.516 . S
C2286 C2287 1.502 . S
C2286 C2288 1.561 . S
C2286 C2289 1.526 . S
C2287 H2271 0.959 . S
C2287 H2272 0.959 . S
C2287 H2273 0.961 . S
C2287 C2286 1.502 . S
C2288 H2274 0.960 . S
C2288 H2275 0.961 . S
C2288 H2276 0.959 . S
C2288 C2286 1.561 . S
C2289 C2286 1.526 . S
C2289 C2290 1.396 . S
C2289 C2294 1.390 . S
C2290 C2284 1.465 . S
C2290 C2289 1.396 . S
C2290 C2291 1.399 . S
C2291 H2277 0.929 . S
C2291 C2290 1.399 . S
C2291 C2292 1.385 . S
C2292 H2278 0.931 . S
C2292 C2291 1.385 . S
C2292 C2293 1.389 . S
C2293 C2292 1.389 . S
C2293 C2294 1.387 . S
C2294 H2279 0.930 . S
C2294 C2289 1.390 . S
C2294 C2293 1.387 . S
H2295 C2307 0.930 . S
H2296 C2309 0.930 . S
H2297 C2310 0.930 . S
H2298 C2314 0.959 . S
H2299 C2314 0.959 . S
H2300 C2314 0.961 . S
H2301 C2315 0.960 . S
H2302 C2315 0.961 . S
H2303 C2315 0.959 . S
H2304 C2318 0.929 . S
H2305 C2319 0.931 . S
H2306 C2321 0.930 . S
C2307 H2295 0.930 . S
C2307 C2308 1.399 . S
C2307 C2312 1.399 . S
C2308 C2307 1.399 . S
C2308 C2309 1.376 . S
C2309 H2296 0.930 . S
C2309 C2308 1.376 . S
C2309 C2310 1.388 . S
C2310 H2297 0.930 . S
C2310 C2309 1.388 . S
C2310 C2311 1.390 . S
C2311 C2310 1.390 . S
C2311 C2312 1.394 . S
C2311 C2317 1.465 . S
C2312 C2307 1.399 . S
C2312 C2311 1.394 . S
C2312 C2313 1.516 . S
C2313 C2312 1.516 . S
C2313 C2314 1.502 . S
C2313 C2315 1.561 . S
C2313 C2316 1.526 . S
C2314 H2298 0.959 . S
C2314 H2299 0.959 . S
C2314 H2300 0.961 . S
C2314 C2313 1.502 . S
C2315 H2301 0.960 . S
C2315 H2302 0.961 . S
C2315 H2303 0.959 . S
C2315 C2313 1.561 . S
C2316 C2313 1.526 . S
C2316 C2317 1.396 . S
C2316 C2321 1.390 . S
C2317 C2311 1.465 . S
C2317 C2316 1.396 . S
C2317 C2318 1.399 . S
C2318 H2304 0.929 . S
C2318 C2317 1.399 . S
C2318 C2319 1.385 . S
C2319 H2305 0.931 . S
C2319 C2318 1.385 . S
C2319 C2320 1.389 . S
C2320 C2319 1.389 . S
C2320 C2321 1.387 . S
C2321 H2306 0.930 . S
C2321 C2316 1.390 . S
C2321 C2320 1.387 . S
H2322 C2334 0.930 . S
H2323 C2336 0.930 . S
H2324 C2337 0.930 . S
H2325 C2341 0.959 . S
H2326 C2341 0.959 . S
H2327 C2341 0.961 . S
H2328 C2342 0.960 . S
H2329 C2342 0.961 . S
H2330 C2342 0.959 . S
H2331 C2345 0.929 . S
H2332 C2346 0.931 . S
H2333 C2348 0.930 . S
C2334 H2322 0.930 . S
C2334 C2335 1.399 . S
C2334 C2339 1.399 . S
C2335 C2334 1.399 . S
C2335 C2336 1.376 . S
C2336 H2323 0.930 . S
C2336 C2335 1.376 . S
C2336 C2337 1.388 . S
C2337 H2324 0.930 . S
C2337 C2336 1.388 . S
C2337 C2338 1.390 . S
C2338 C2337 1.390 . S
C2338 C2339 1.394 . S
C2338 C2344 1.465 . S
C2339 C2334 1.399 . S
C2339 C2338 1.394 . S
C2339 C2340 1.516 . S
C2340 C2339 1.516 . S
C2340 C2341 1.502 . S
C2340 C2342 1.561 . S
C2340 C2343 1.526 . S
C2341 H2325 0.959 . S
C2341 H2326 0.959 . S
C2341 H2327 0.961 . S
C2341 C2340 1.502 . S
C2342 H2328 0.960 . S
C2342 H2329 0.961 . S
C2342 H2330 0.959 . S
C2342 C2340 1.561 . S
C2343 C2340 1.526 . S
C2343 C2344 1.396 . S
C2343 C2348 1.390 . S
C2344 C2338 1.465 . S
C2344 C2343 1.396 . S
C2344 C2345 1.399 . S
C2345 H2331 0.929 . S
C2345 C2344 1.399 . S
C2345 C2346 1.385 . S
C2346 H2332 0.931 . S
C2346 C2345 1.385 . S
C2346 C2347 1.389 . S
C2347 C2346 1.389 . S
C2347 C2348 1.387 . S
C2348 H2333 0.930 . S
C2348 C2343 1.390 . S
C2348 C2347 1.387 . S
H2349 C2361 0.930 . S
H2350 C2363 0.930 . S
H2351 C2364 0.930 . S
H2352 C2368 0.959 . S
H2353 C2368 0.959 . S
H2354 C2368 0.961 . S
H2355 C2369 0.960 . S
H2356 C2369 0.961 . S
H2357 C2369 0.959 . S
H2358 C2372 0.929 . S
H2359 C2373 0.931 . S
H2360 C2375 0.930 . S
C2361 H2349 0.930 . S
C2361 C2362 1.399 . S
C2361 C2366 1.399 . S
C2362 C2361 1.399 . S
C2362 C2363 1.376 . S
C2363 H2350 0.930 . S
C2363 C2362 1.376 . S
C2363 C2364 1.388 . S
C2364 H2351 0.930 . S
C2364 C2363 1.388 . S
C2364 C2365 1.390 . S
C2365 C2364 1.390 . S
C2365 C2366 1.394 . S
C2365 C2371 1.465 . S
C2366 C2361 1.399 . S
C2366 C2365 1.394 . S
C2366 C2367 1.516 . S
C2367 C2366 1.516 . S
C2367 C2368 1.502 . S
C2367 C2369 1.561 . S
C2367 C2370 1.526 . S
C2368 H2352 0.959 . S
C2368 H2353 0.959 . S
C2368 H2354 0.961 . S
C2368 C2367 1.502 . S
C2369 H2355 0.960 . S
C2369 H2356 0.961 . S
C2369 H2357 0.959 . S
C2369 C2367 1.561 . S
C2370 C2367 1.526 . S
C2370 C2371 1.396 . S
C2370 C2375 1.390 . S
C2371 C2365 1.465 . S
C2371 C2370 1.396 . S
C2371 C2372 1.399 . S
C2372 H2358 0.929 . S
C2372 C2371 1.399 . S
C2372 C2373 1.385 . S
C2373 H2359 0.931 . S
C2373 C2372 1.385 . S
C2373 C2374 1.389 . S
C2374 C2373 1.389 . S
C2374 C2375 1.387 . S
C2375 H2360 0.930 . S
C2375 C2370 1.390 . S
C2375 C2374 1.387 . S
H2376 C2388 0.930 . S
H2377 C2390 0.930 . S
H2378 C2391 0.930 . S
H2379 C2395 0.959 . S
H2380 C2395 0.959 . S
H2381 C2395 0.961 . S
H2382 C2396 0.960 . S
H2383 C2396 0.961 . S
H2384 C2396 0.959 . S
H2385 C2399 0.929 . S
H2386 C2400 0.931 . S
H2387 C2402 0.930 . S
C2388 H2376 0.930 . S
C2388 C2389 1.399 . S
C2388 C2393 1.399 . S
C2389 C2388 1.399 . S
C2389 C2390 1.376 . S
C2390 H2377 0.930 . S
C2390 C2389 1.376 . S
C2390 C2391 1.388 . S
C2391 H2378 0.930 . S
C2391 C2390 1.388 . S
C2391 C2392 1.390 . S
C2392 C2391 1.390 . S
C2392 C2393 1.394 . S
C2392 C2398 1.465 . S
C2393 C2388 1.399 . S
C2393 C2392 1.394 . S
C2393 C2394 1.516 . S
C2394 C2393 1.516 . S
C2394 C2395 1.502 . S
C2394 C2396 1.561 . S
C2394 C2397 1.526 . S
C2395 H2379 0.959 . S
C2395 H2380 0.959 . S
C2395 H2381 0.961 . S
C2395 C2394 1.502 . S
C2396 H2382 0.960 . S
C2396 H2383 0.961 . S
C2396 H2384 0.959 . S
C2396 C2394 1.561 . S
C2397 C2394 1.526 . S
C2397 C2398 1.396 . S
C2397 C2402 1.390 . S
C2398 C2392 1.465 . S
C2398 C2397 1.396 . S
C2398 C2399 1.399 . S
C2399 H2385 0.929 . S
C2399 C2398 1.399 . S
C2399 C2400 1.385 . S
C2400 H2386 0.931 . S
C2400 C2399 1.385 . S
C2400 C2401 1.389 . S
C2401 C2400 1.389 . S
C2401 C2402 1.387 . S
C2402 H2387 0.930 . S
C2402 C2397 1.390 . S
C2402 C2401 1.387 . S
H2403 C2415 0.930 . S
H2404 C2417 0.930 . S
H2405 C2418 0.930 . S
H2406 C2422 0.959 . S
H2407 C2422 0.959 . S
H2408 C2422 0.961 . S
H2409 C2423 0.960 . S
H2410 C2423 0.961 . S
H2411 C2423 0.959 . S
H2412 C2426 0.929 . S
H2413 C2427 0.931 . S
H2414 C2429 0.930 . S
C2415 H2403 0.930 . S
C2415 C2416 1.399 . S
C2415 C2420 1.399 1_545 S
C2416 C2415 1.399 . S
C2416 C2417 1.375 . S
C2417 H2404 0.930 . S
C2417 C2416 1.375 . S
C2417 C2418 1.390 1_545 S
C2418 H2405 0.930 . S
C2418 C2417 1.390 1_565 S
C2418 C2419 1.390 . S
C2419 C2418 1.390 . S
C2419 C2420 1.394 . S
C2419 C2425 1.465 . S
C2420 C2415 1.399 1_565 S
C2420 C2419 1.394 . S
C2420 C2421 1.516 . S
C2421 C2420 1.516 . S
C2421 C2422 1.502 . S
C2421 C2423 1.561 . S
C2421 C2424 1.526 . S
C2422 H2406 0.959 . S
C2422 H2407 0.959 . S
C2422 H2408 0.961 . S
C2422 C2421 1.502 . S
C2423 H2409 0.960 . S
C2423 H2410 0.961 . S
C2423 H2411 0.959 . S
C2423 C2421 1.561 . S
C2424 C2421 1.526 . S
C2424 C2425 1.396 . S
C2424 C2429 1.390 . S
C2425 C2419 1.465 . S
C2425 C2424 1.396 . S
C2425 C2426 1.399 . S
C2426 H2412 0.929 . S
C2426 C2425 1.399 . S
C2426 C2427 1.385 . S
C2427 H2413 0.931 . S
C2427 C2426 1.385 . S
C2427 C2428 1.389 . S
C2428 C2427 1.389 . S
C2428 C2429 1.387 . S
C2429 H2414 0.930 . S
C2429 C2424 1.390 . S
C2429 C2428 1.387 . S
H2430 C2442 0.930 . S
H2431 C2444 0.930 . S
H2432 C2445 0.930 . S
H2433 C2449 0.959 . S
H2434 C2449 0.959 . S
H2435 C2449 0.961 . S
H2436 C2450 0.960 . S
H2437 C2450 0.961 . S
H2438 C2450 0.959 . S
H2439 C2453 0.929 . S
H2440 C2454 0.931 . S
H2441 C2456 0.930 . S
C2442 H2430 0.930 . S
C2442 C2443 1.399 1_455 S
C2442 C2447 1.399 . S
C2443 C2442 1.399 1_655 S
C2443 C2444 1.376 . S
C2444 H2431 0.930 . S
C2444 C2443 1.376 . S
C2444 C2445 1.388 1_655 S
C2445 H2432 0.930 . S
C2445 C2444 1.388 1_455 S
C2445 C2446 1.390 . S
C2446 C2445 1.390 . S
C2446 C2447 1.394 . S
C2446 C2452 1.465 . S
C2447 C2442 1.399 . S
C2447 C2446 1.394 . S
C2447 C2448 1.516 . S
C2448 C2447 1.516 . S
C2448 C2449 1.502 . S
C2448 C2450 1.561 . S
C2448 C2451 1.526 . S
C2449 H2433 0.959 . S
C2449 H2434 0.959 . S
C2449 H2435 0.961 . S
C2449 C2448 1.502 . S
C2450 H2436 0.960 . S
C2450 H2437 0.961 . S
C2450 H2438 0.959 . S
C2450 C2448 1.561 . S
C2451 C2448 1.526 . S
C2451 C2452 1.396 . S
C2451 C2456 1.390 . S
C2452 C2446 1.465 . S
C2452 C2451 1.396 . S
C2452 C2453 1.399 . S
C2453 H2439 0.929 . S
C2453 C2452 1.399 . S
C2453 C2454 1.385 . S
C2454 H2440 0.931 . S
C2454 C2453 1.385 . S
C2454 C2455 1.389 . S
C2455 C2454 1.389 . S
C2455 C2456 1.387 . S
C2456 H2441 0.930 . S
C2456 C2451 1.390 . S
C2456 C2455 1.387 . S
H2457 C2469 0.930 . S
H2458 C2471 0.930 . S
H2459 C2472 0.930 . S
H2460 C2476 0.959 . S
H2461 C2476 0.959 . S
H2462 C2476 0.961 . S
H2463 C2477 0.960 . S
H2464 C2477 0.961 . S
H2465 C2477 0.959 . S
H2466 C2480 0.929 . S
H2467 C2481 0.931 . S
H2468 C2483 0.930 . S
C2469 H2457 0.930 . S
C2469 C2470 1.399 . S
C2469 C2474 1.399 . S
C2470 C2469 1.399 . S
C2470 C2471 1.376 . S
C2471 H2458 0.930 . S
C2471 C2470 1.376 . S
C2471 C2472 1.388 . S
C2472 H2459 0.930 . S
C2472 C2471 1.388 . S
C2472 C2473 1.390 . S
C2473 C2472 1.390 . S
C2473 C2474 1.394 . S
C2473 C2479 1.465 . S
C2474 C2469 1.399 . S
C2474 C2473 1.394 . S
C2474 C2475 1.516 . S
C2475 C2474 1.516 . S
C2475 C2476 1.502 . S
C2475 C2477 1.561 . S
C2475 C2478 1.526 . S
C2476 H2460 0.959 . S
C2476 H2461 0.959 . S
C2476 H2462 0.961 . S
C2476 C2475 1.502 . S
C2477 H2463 0.960 . S
C2477 H2464 0.961 . S
C2477 H2465 0.959 . S
C2477 C2475 1.561 . S
C2478 C2475 1.526 . S
C2478 C2479 1.396 . S
C2478 C2483 1.390 . S
C2479 C2473 1.465 . S
C2479 C2478 1.396 . S
C2479 C2480 1.399 . S
C2480 H2466 0.929 . S
C2480 C2479 1.399 . S
C2480 C2481 1.385 . S
C2481 H2467 0.931 . S
C2481 C2480 1.385 . S
C2481 C2482 1.389 . S
C2482 C2481 1.389 . S
C2482 C2483 1.387 . S
C2483 H2468 0.930 . S
C2483 C2478 1.390 . S
C2483 C2482 1.387 . S
H2484 C2496 0.930 . S
H2485 C2498 0.930 . S
H2486 C2499 0.930 . S
H2487 C2503 0.959 . S
H2488 C2503 0.959 . S
H2489 C2503 0.961 . S
H2490 C2504 0.960 . S
H2491 C2504 0.961 . S
H2492 C2504 0.959 . S
H2493 C2507 0.929 . S
H2494 C2508 0.931 . S
H2495 C2510 0.930 . S
C2496 H2484 0.930 . S
C2496 C2497 1.399 . S
C2496 C2501 1.399 . S
C2497 C2496 1.399 . S
C2497 C2498 1.376 . S
C2498 H2485 0.930 . S
C2498 C2497 1.376 . S
C2498 C2499 1.388 . S
C2499 H2486 0.930 . S
C2499 C2498 1.388 . S
C2499 C2500 1.390 . S
C2500 C2499 1.390 . S
C2500 C2501 1.394 . S
C2500 C2506 1.465 . S
C2501 C2496 1.399 . S
C2501 C2500 1.394 . S
C2501 C2502 1.516 . S
C2502 C2501 1.516 . S
C2502 C2503 1.502 . S
C2502 C2504 1.561 . S
C2502 C2505 1.526 . S
C2503 H2487 0.959 . S
C2503 H2488 0.959 . S
C2503 H2489 0.961 . S
C2503 C2502 1.502 . S
C2504 H2490 0.960 . S
C2504 H2491 0.961 . S
C2504 H2492 0.959 . S
C2504 C2502 1.561 . S
C2505 C2502 1.526 . S
C2505 C2506 1.396 . S
C2505 C2510 1.390 . S
C2506 C2500 1.465 . S
C2506 C2505 1.396 . S
C2506 C2507 1.399 . S
C2507 H2493 0.929 . S
C2507 C2506 1.399 . S
C2507 C2508 1.385 . S
C2508 H2494 0.931 . S
C2508 C2507 1.385 . S
C2508 C2509 1.389 . S
C2509 C2508 1.389 . S
C2509 C2510 1.387 . S
C2510 H2495 0.930 . S
C2510 C2505 1.390 . S
C2510 C2509 1.387 . S
H2511 C2523 0.930 . S
H2512 C2525 0.930 . S
H2513 C2526 0.930 . S
H2514 C2530 0.959 . S
H2515 C2530 0.959 . S
H2516 C2530 0.961 . S
H2517 C2531 0.960 . S
H2518 C2531 0.961 . S
H2519 C2531 0.959 . S
H2520 C2534 0.929 . S
H2521 C2535 0.931 . S
H2522 C2537 0.930 . S
C2523 H2511 0.930 . S
C2523 C2524 1.399 . S
C2523 C2528 1.399 . S
C2524 C2523 1.399 . S
C2524 C2525 1.376 . S
C2525 H2512 0.930 . S
C2525 C2524 1.376 . S
C2525 C2526 1.388 . S
C2526 H2513 0.930 . S
C2526 C2525 1.388 . S
C2526 C2527 1.390 . S
C2527 C2526 1.390 . S
C2527 C2528 1.394 . S
C2527 C2533 1.465 . S
C2528 C2523 1.399 . S
C2528 C2527 1.394 . S
C2528 C2529 1.516 . S
C2529 C2528 1.516 . S
C2529 C2530 1.502 . S
C2529 C2531 1.561 . S
C2529 C2532 1.526 . S
C2530 H2514 0.959 . S
C2530 H2515 0.959 . S
C2530 H2516 0.961 . S
C2530 C2529 1.502 . S
C2531 H2517 0.960 . S
C2531 H2518 0.961 . S
C2531 H2519 0.959 . S
C2531 C2529 1.561 . S
C2532 C2529 1.526 . S
C2532 C2533 1.396 . S
C2532 C2537 1.390 . S
C2533 C2527 1.465 . S
C2533 C2532 1.396 . S
C2533 C2534 1.399 . S
C2534 H2520 0.929 . S
C2534 C2533 1.399 . S
C2534 C2535 1.385 . S
C2535 H2521 0.931 . S
C2535 C2534 1.385 . S
C2535 C2536 1.389 . S
C2536 C2535 1.389 . S
C2536 C2537 1.387 . S
C2537 H2522 0.930 . S
C2537 C2532 1.390 . S
C2537 C2536 1.387 . S
H2538 C2550 0.930 . S
H2539 C2552 0.930 . S
H2540 C2553 0.930 . S
H2541 C2557 0.959 . S
H2542 C2557 0.959 . S
H2543 C2557 0.961 . S
H2544 C2558 0.960 . S
H2545 C2558 0.961 . S
H2546 C2558 0.959 . S
H2547 C2561 0.929 . S
H2548 C2562 0.931 . S
H2549 C2564 0.930 . S
C2550 H2538 0.930 . S
C2550 C2551 1.399 . S
C2550 C2555 1.399 . S
C2551 C2550 1.399 . S
C2551 C2552 1.376 . S
C2552 H2539 0.930 . S
C2552 C2551 1.376 . S
C2552 C2553 1.388 . S
C2553 H2540 0.930 . S
C2553 C2552 1.388 . S
C2553 C2554 1.390 . S
C2554 C2553 1.390 . S
C2554 C2555 1.394 . S
C2554 C2560 1.465 . S
C2555 C2550 1.399 . S
C2555 C2554 1.394 . S
C2555 C2556 1.516 . S
C2556 C2555 1.516 . S
C2556 C2557 1.502 . S
C2556 C2558 1.561 . S
C2556 C2559 1.526 . S
C2557 H2541 0.959 . S
C2557 H2542 0.959 . S
C2557 H2543 0.961 . S
C2557 C2556 1.502 . S
C2558 H2544 0.960 . S
C2558 H2545 0.961 . S
C2558 H2546 0.959 . S
C2558 C2556 1.561 . S
C2559 C2556 1.526 . S
C2559 C2560 1.396 . S
C2559 C2564 1.390 . S
C2560 C2554 1.465 . S
C2560 C2559 1.396 . S
C2560 C2561 1.399 . S
C2561 H2547 0.929 . S
C2561 C2560 1.399 . S
C2561 C2562 1.385 . S
C2562 H2548 0.931 . S
C2562 C2561 1.385 . S
C2562 C2563 1.389 . S
C2563 C2562 1.389 . S
C2563 C2564 1.387 . S
C2564 H2549 0.930 . S
C2564 C2559 1.390 . S
C2564 C2563 1.387 . S
H2565 C2577 0.930 . S
H2566 C2579 0.930 . S
H2567 C2580 0.930 . S
H2568 C2584 0.959 . S
H2569 C2584 0.959 . S
H2570 C2584 0.961 . S
H2571 C2585 0.960 . S
H2572 C2585 0.961 . S
H2573 C2585 0.959 . S
H2574 C2588 0.929 . S
H2575 C2589 0.931 . S
H2576 C2591 0.930 . S
C2577 H2565 0.930 . S
C2577 C2578 1.399 1_545 S
C2577 C2582 1.399 . S
C2578 C2577 1.399 1_565 S
C2578 C2579 1.376 . S
C2579 H2566 0.930 . S
C2579 C2578 1.376 . S
C2579 C2580 1.388 1_565 S
C2580 H2567 0.930 . S
C2580 C2579 1.388 1_545 S
C2580 C2581 1.390 . S
C2581 C2580 1.390 . S
C2581 C2582 1.394 . S
C2581 C2587 1.465 . S
C2582 C2577 1.399 . S
C2582 C2581 1.394 . S
C2582 C2583 1.516 . S
C2583 C2582 1.516 . S
C2583 C2584 1.502 . S
C2583 C2585 1.561 . S
C2583 C2586 1.526 . S
C2584 H2568 0.959 . S
C2584 H2569 0.959 . S
C2584 H2570 0.961 . S
C2584 C2583 1.502 . S
C2585 H2571 0.960 . S
C2585 H2572 0.961 . S
C2585 H2573 0.959 . S
C2585 C2583 1.561 . S
C2586 C2583 1.526 . S
C2586 C2587 1.396 . S
C2586 C2591 1.390 . S
C2587 C2581 1.465 . S
C2587 C2586 1.396 . S
C2587 C2588 1.399 . S
C2588 H2574 0.929 . S
C2588 C2587 1.399 . S
C2588 C2589 1.385 . S
C2589 H2575 0.931 . S
C2589 C2588 1.385 . S
C2589 C2590 1.389 . S
C2590 C2589 1.389 . S
C2590 C2591 1.387 . S
C2591 H2576 0.930 . S
C2591 C2586 1.390 . S
C2591 C2590 1.387 . S
H2592 C2604 0.930 . S
H2593 C2606 0.930 . S
H2594 C2607 0.930 . S
H2595 C2611 0.959 . S
H2596 C2611 0.959 . S
H2597 C2611 0.961 . S
H2598 C2612 0.960 . S
H2599 C2612 0.961 . S
H2600 C2612 0.959 . S
H2601 C2615 0.929 . S
H2602 C2616 0.931 . S
H2603 C2618 0.930 . S
C2604 H2592 0.930 . S
C2604 C2605 1.399 1_655 S
C2604 C2609 1.399 . S
C2605 C2604 1.399 1_455 S
C2605 C2606 1.376 . S
C2606 H2593 0.930 . S
C2606 C2605 1.376 . S
C2606 C2607 1.388 1_455 S
C2607 H2594 0.930 . S
C2607 C2606 1.388 1_655 S
C2607 C2608 1.390 . S
C2608 C2607 1.390 . S
C2608 C2609 1.394 . S
C2608 C2614 1.465 . S
C2609 C2604 1.399 . S
C2609 C2608 1.394 . S
C2609 C2610 1.516 . S
C2610 C2609 1.516 . S
C2610 C2611 1.502 . S
C2610 C2612 1.561 . S
C2610 C2613 1.526 . S
C2611 H2595 0.959 . S
C2611 H2596 0.959 . S
C2611 H2597 0.961 . S
C2611 C2610 1.502 . S
C2612 H2598 0.960 . S
C2612 H2599 0.961 . S
C2612 H2600 0.959 . S
C2612 C2610 1.561 . S
C2613 C2610 1.526 . S
C2613 C2614 1.396 . S
C2613 C2618 1.390 . S
C2614 C2608 1.465 . S
C2614 C2613 1.396 . S
C2614 C2615 1.399 . S
C2615 H2601 0.929 . S
C2615 C2614 1.399 . S
C2615 C2616 1.385 . S
C2616 H2602 0.931 . S
C2616 C2615 1.385 . S
C2616 C2617 1.389 . S
C2617 C2616 1.389 . S
C2617 C2618 1.387 . S
C2618 H2603 0.930 . S
C2618 C2613 1.390 . S
C2618 C2617 1.387 . S
H2619 C2631 0.930 . S
H2620 C2633 0.930 . S
H2621 C2634 0.930 . S
H2622 C2638 0.959 . S
H2623 C2638 0.959 . S
H2624 C2638 0.961 . S
H2625 C2639 0.960 . S
H2626 C2639 0.961 . S
H2627 C2639 0.959 . S
H2628 C2642 0.929 . S
H2629 C2643 0.931 . S
H2630 C2645 0.930 . S
C2631 H2619 0.930 . S
C2631 C2632 1.399 . S
C2631 C2636 1.399 . S
C2632 C2631 1.399 . S
C2632 C2633 1.376 . S
C2633 H2620 0.930 . S
C2633 C2632 1.376 . S
C2633 C2634 1.388 . S
C2634 H2621 0.930 . S
C2634 C2633 1.388 . S
C2634 C2635 1.390 . S
C2635 C2634 1.390 . S
C2635 C2636 1.394 . S
C2635 C2641 1.465 . S
C2636 C2631 1.399 . S
C2636 C2635 1.394 . S
C2636 C2637 1.516 . S
C2637 C2636 1.516 . S
C2637 C2638 1.502 . S
C2637 C2639 1.561 . S
C2637 C2640 1.526 . S
C2638 H2622 0.959 . S
C2638 H2623 0.959 . S
C2638 H2624 0.961 . S
C2638 C2637 1.502 . S
C2639 H2625 0.960 . S
C2639 H2626 0.961 . S
C2639 H2627 0.959 . S
C2639 C2637 1.561 . S
C2640 C2637 1.526 . S
C2640 C2641 1.396 . S
C2640 C2645 1.390 . S
C2641 C2635 1.465 . S
C2641 C2640 1.396 . S
C2641 C2642 1.399 . S
C2642 H2628 0.929 . S
C2642 C2641 1.399 . S
C2642 C2643 1.385 . S
C2643 H2629 0.931 . S
C2643 C2642 1.385 . S
C2643 C2644 1.389 . S
C2644 C2643 1.389 . S
C2644 C2645 1.387 . S
C2645 H2630 0.930 . S
C2645 C2640 1.390 . S
C2645 C2644 1.387 . S
H2646 C2658 0.930 1_455 S
H2647 C2660 0.934 1_455 S
H2648 C2661 0.930 . S
H2649 C2665 0.959 . S
H2650 C2665 0.959 . S
H2651 C2665 0.961 . S
H2652 C2666 0.960 . S
H2653 C2666 0.961 . S
H2654 C2666 0.959 . S
H2655 C2669 0.929 . S
H2656 C2670 0.931 . S
H2657 C2672 0.930 . S
C2658 H2646 0.930 1_655 S
C2658 C2659 1.399 1_655 S
C2658 C2663 1.399 . S
C2659 C2658 1.399 1_455 S
C2659 C2660 1.376 1_455 S
C2660 H2647 0.934 1_655 S
C2660 C2659 1.376 1_655 S
C2660 C2661 1.385 . S
C2661 H2648 0.930 . S
C2661 C2660 1.385 . S
C2661 C2662 1.390 . S
C2662 C2661 1.390 . S
C2662 C2663 1.394 . S
C2662 C2668 1.465 . S
C2663 C2658 1.399 . S
C2663 C2662 1.394 . S
C2663 C2664 1.516 . S
C2664 C2663 1.516 . S
C2664 C2665 1.502 . S
C2664 C2666 1.561 . S
C2664 C2667 1.526 . S
C2665 H2649 0.959 . S
C2665 H2650 0.959 . S
C2665 H2651 0.961 . S
C2665 C2664 1.502 . S
C2666 H2652 0.960 . S
C2666 H2653 0.961 . S
C2666 H2654 0.959 . S
C2666 C2664 1.561 . S
C2667 C2664 1.526 . S
C2667 C2668 1.396 . S
C2667 C2672 1.390 . S
C2668 C2662 1.465 . S
C2668 C2667 1.396 . S
C2668 C2669 1.399 . S
C2669 H2655 0.929 . S
C2669 C2668 1.399 . S
C2669 C2670 1.385 . S
C2670 H2656 0.931 . S
C2670 C2669 1.385 . S
C2670 C2671 1.389 . S
C2671 C2670 1.389 . S
C2671 C2672 1.387 . S
C2672 H2657 0.930 . S
C2672 C2667 1.390 . S
C2672 C2671 1.387 . S
H2673 C2685 0.930 . S
H2674 C2687 0.930 . S
H2675 C2688 0.930 . S
H2676 C2692 0.959 . S
H2677 C2692 0.959 . S
H2678 C2692 0.961 . S
H2679 C2693 0.960 . S
H2680 C2693 0.961 . S
H2681 C2693 0.959 . S
H2682 C2696 0.929 . S
H2683 C2697 0.931 . S
H2684 C2699 0.930 . S
C2685 H2673 0.930 . S
C2685 C2686 1.399 . S
C2685 C2690 1.399 . S
C2686 C2685 1.399 . S
C2686 C2687 1.376 . S
C2687 H2674 0.930 . S
C2687 C2686 1.376 . S
C2687 C2688 1.388 . S
C2688 H2675 0.930 . S
C2688 C2687 1.388 . S
C2688 C2689 1.390 . S
C2689 C2688 1.390 . S
C2689 C2690 1.394 . S
C2689 C2695 1.465 . S
C2690 C2685 1.399 . S
C2690 C2689 1.394 . S
C2690 C2691 1.516 . S
C2691 C2690 1.516 . S
C2691 C2692 1.502 . S
C2691 C2693 1.561 . S
C2691 C2694 1.526 . S
C2692 H2676 0.959 . S
C2692 H2677 0.959 . S
C2692 H2678 0.961 . S
C2692 C2691 1.502 . S
C2693 H2679 0.960 . S
C2693 H2680 0.961 . S
C2693 H2681 0.959 . S
C2693 C2691 1.561 . S
C2694 C2691 1.526 . S
C2694 C2695 1.396 . S
C2694 C2699 1.390 . S
C2695 C2689 1.465 . S
C2695 C2694 1.396 . S
C2695 C2696 1.399 . S
C2696 H2682 0.929 . S
C2696 C2695 1.399 . S
C2696 C2697 1.385 . S
C2697 H2683 0.931 . S
C2697 C2696 1.385 . S
C2697 C2698 1.389 . S
C2698 C2697 1.389 . S
C2698 C2699 1.387 . S
C2699 H2684 0.930 . S
C2699 C2694 1.390 . S
C2699 C2698 1.387 . S
H2700 C2712 0.930 . S
H2701 C2714 0.930 . S
H2702 C2715 0.930 . S
H2703 C2719 0.959 . S
H2704 C2719 0.959 . S
H2705 C2719 0.961 . S
H2706 C2720 0.960 . S
H2707 C2720 0.961 . S
H2708 C2720 0.959 . S
H2709 C2723 0.929 . S
H2710 C2724 0.931 . S
H2711 C2726 0.930 . S
C2712 H2700 0.930 . S
C2712 C2713 1.399 . S
C2712 C2717 1.399 1_565 S
C2713 C2712 1.399 . S
C2713 C2714 1.376 . S
C2714 H2701 0.930 . S
C2714 C2713 1.376 . S
C2714 C2715 1.388 1_565 S
C2715 H2702 0.930 . S
C2715 C2714 1.388 1_545 S
C2715 C2716 1.390 . S
C2716 C2715 1.390 . S
C2716 C2717 1.394 . S
C2716 C2722 1.465 . S
C2717 C2712 1.399 1_545 S
C2717 C2716 1.394 . S
C2717 C2718 1.516 . S
C2718 C2717 1.516 . S
C2718 C2719 1.502 . S
C2718 C2720 1.561 . S
C2718 C2721 1.526 . S
C2719 H2703 0.959 . S
C2719 H2704 0.959 . S
C2719 H2705 0.961 . S
C2719 C2718 1.502 . S
C2720 H2706 0.960 . S
C2720 H2707 0.961 . S
C2720 H2708 0.959 . S
C2720 C2718 1.561 . S
C2721 C2718 1.526 . S
C2721 C2722 1.396 . S
C2721 C2726 1.390 . S
C2722 C2716 1.465 . S
C2722 C2721 1.396 . S
C2722 C2723 1.399 . S
C2723 H2709 0.929 . S
C2723 C2722 1.399 . S
C2723 C2724 1.385 . S
C2724 H2710 0.931 . S
C2724 C2723 1.385 . S
C2724 C2725 1.389 . S
C2725 C2724 1.389 . S
C2725 C2726 1.387 . S
C2726 H2711 0.930 . S
C2726 C2721 1.390 . S
C2726 C2725 1.387 . S
H2727 C2739 0.930 . S
H2728 C2741 0.930 . S
H2729 C2742 0.930 . S
H2730 C2746 0.959 . S
H2731 C2746 0.959 . S
H2732 C2746 0.961 . S
H2733 C2747 0.960 . S
H2734 C2747 0.961 . S
H2735 C2747 0.959 . S
H2736 C2750 0.929 . S
H2737 C2751 0.931 . S
H2738 C2753 0.930 . S
C2739 H2727 0.930 . S
C2739 C2740 1.399 . S
C2739 C2744 1.399 . S
C2740 C2739 1.399 . S
C2740 C2741 1.376 . S
C2741 H2728 0.930 . S
C2741 C2740 1.376 . S
C2741 C2742 1.388 . S
C2742 H2729 0.930 . S
C2742 C2741 1.388 . S
C2742 C2743 1.390 . S
C2743 C2742 1.390 . S
C2743 C2744 1.394 . S
C2743 C2749 1.465 . S
C2744 C2739 1.399 . S
C2744 C2743 1.394 . S
C2744 C2745 1.516 . S
C2745 C2744 1.516 . S
C2745 C2746 1.502 . S
C2745 C2747 1.561 . S
C2745 C2748 1.526 . S
C2746 H2730 0.959 . S
C2746 H2731 0.959 . S
C2746 H2732 0.961 . S
C2746 C2745 1.502 . S
C2747 H2733 0.960 . S
C2747 H2734 0.961 . S
C2747 H2735 0.959 . S
C2747 C2745 1.561 . S
C2748 C2745 1.526 . S
C2748 C2749 1.396 . S
C2748 C2753 1.390 . S
C2749 C2743 1.465 . S
C2749 C2748 1.396 . S
C2749 C2750 1.399 . S
C2750 H2736 0.929 . S
C2750 C2749 1.399 . S
C2750 C2751 1.385 . S
C2751 H2737 0.931 . S
C2751 C2750 1.385 . S
C2751 C2752 1.389 . S
C2752 C2751 1.389 . S
C2752 C2753 1.387 . S
C2753 H2738 0.930 . S
C2753 C2748 1.390 . S
C2753 C2752 1.387 . S
H2754 C2766 0.930 . S
H2755 C2768 0.930 . S
H2756 C2769 0.930 . S
H2757 C2773 0.959 . S
H2758 C2773 0.959 . S
H2759 C2773 0.961 . S
H2760 C2774 0.960 . S
H2761 C2774 0.961 . S
H2762 C2774 0.959 . S
H2763 C2777 0.929 . S
H2764 C2778 0.931 . S
H2765 C2780 0.930 . S
C2766 H2754 0.930 . S
C2766 C2767 1.399 . S
C2766 C2771 1.399 . S
C2767 C2766 1.399 . S
C2767 C2768 1.376 . S
C2768 H2755 0.930 . S
C2768 C2767 1.376 . S
C2768 C2769 1.388 . S
C2769 H2756 0.930 . S
C2769 C2768 1.388 . S
C2769 C2770 1.390 . S
C2770 C2769 1.390 . S
C2770 C2771 1.394 . S
C2770 C2776 1.465 . S
C2771 C2766 1.399 . S
C2771 C2770 1.394 . S
C2771 C2772 1.516 . S
C2772 C2771 1.516 . S
C2772 C2773 1.502 . S
C2772 C2774 1.561 . S
C2772 C2775 1.526 . S
C2773 H2757 0.959 . S
C2773 H2758 0.959 . S
C2773 H2759 0.961 . S
C2773 C2772 1.502 . S
C2774 H2760 0.960 . S
C2774 H2761 0.961 . S
C2774 H2762 0.959 . S
C2774 C2772 1.561 . S
C2775 C2772 1.526 . S
C2775 C2776 1.396 . S
C2775 C2780 1.390 . S
C2776 C2770 1.465 . S
C2776 C2775 1.396 . S
C2776 C2777 1.399 . S
C2777 H2763 0.929 . S
C2777 C2776 1.399 . S
C2777 C2778 1.385 . S
C2778 H2764 0.931 . S
C2778 C2777 1.385 . S
C2778 C2779 1.389 . S
C2779 C2778 1.389 . S
C2779 C2780 1.387 . S
C2780 H2765 0.930 . S
C2780 C2775 1.390 . S
C2780 C2779 1.387 . S
H2781 C2793 0.930 . S
H2782 C2795 0.930 . S
H2783 C2796 0.930 . S
H2784 C2800 0.959 . S
H2785 C2800 0.959 . S
H2786 C2800 0.961 . S
H2787 C2801 0.960 . S
H2788 C2801 0.961 . S
H2789 C2801 0.959 . S
H2790 C2804 0.929 . S
H2791 C2805 0.931 . S
H2792 C2807 0.930 . S
C2793 H2781 0.930 . S
C2793 C2794 1.399 . S
C2793 C2798 1.399 . S
C2794 C2793 1.399 . S
C2794 C2795 1.376 . S
C2795 H2782 0.930 . S
C2795 C2794 1.376 . S
C2795 C2796 1.388 . S
C2796 H2783 0.930 . S
C2796 C2795 1.388 . S
C2796 C2797 1.390 . S
C2797 C2796 1.390 . S
C2797 C2798 1.394 . S
C2797 C2803 1.465 . S
C2798 C2793 1.399 . S
C2798 C2797 1.394 . S
C2798 C2799 1.516 . S
C2799 C2798 1.516 . S
C2799 C2800 1.502 . S
C2799 C2801 1.561 . S
C2799 C2802 1.526 . S
C2800 H2784 0.959 . S
C2800 H2785 0.959 . S
C2800 H2786 0.961 . S
C2800 C2799 1.502 . S
C2801 H2787 0.960 . S
C2801 H2788 0.961 . S
C2801 H2789 0.959 . S
C2801 C2799 1.561 . S
C2802 C2799 1.526 . S
C2802 C2803 1.396 . S
C2802 C2807 1.390 . S
C2803 C2797 1.465 . S
C2803 C2802 1.396 . S
C2803 C2804 1.399 . S
C2804 H2790 0.929 . S
C2804 C2803 1.399 . S
C2804 C2805 1.385 . S
C2805 H2791 0.931 . S
C2805 C2804 1.385 . S
C2805 C2806 1.389 . S
C2806 C2805 1.389 . S
C2806 C2807 1.387 . S
C2807 H2792 0.930 . S
C2807 C2802 1.390 . S
C2807 C2806 1.387 . S
H2808 C2820 0.930 . S
H2809 C2822 0.930 . S
H2810 C2823 0.930 . S
H2811 C2827 0.959 . S
H2812 C2827 0.959 1_545 S
H2813 C2827 0.961 1_545 S
H2814 C2828 0.953 1_545 S
H2815 C2828 0.923 1_545 S
H2816 C2828 1.003 . S
H2817 C2831 0.929 . S
H2818 C2832 0.931 . S
H2819 C2834 0.930 1_545 S
C2820 H2808 0.930 . S
C2820 C2821 1.399 . S
C2820 C2825 1.399 . S
C2821 C2820 1.399 . S
C2821 C2822 1.376 . S
C2822 H2809 0.930 . S
C2822 C2821 1.376 . S
C2822 C2823 1.388 . S
C2823 H2810 0.930 . S
C2823 C2822 1.388 . S
C2823 C2824 1.390 . S
C2824 C2823 1.390 . S
C2824 C2825 1.394 . S
C2824 C2830 1.465 . S
C2825 C2820 1.399 . S
C2825 C2824 1.394 . S
C2825 C2826 1.516 . S
C2826 C2825 1.516 . S
C2826 C2827 1.502 . S
C2826 C2828 1.566 . S
C2826 C2829 1.526 . S
C2827 H2811 0.959 . S
C2827 H2812 0.959 1_565 S
C2827 H2813 0.961 1_565 S
C2827 C2826 1.502 . S
C2828 H2814 0.953 1_565 S
C2828 H2815 0.923 1_565 S
C2828 H2816 1.003 . S
C2828 C2826 1.566 . S
C2829 C2826 1.526 . S
C2829 C2830 1.396 . S
C2829 C2834 1.390 . S
C2830 C2824 1.465 . S
C2830 C2829 1.396 . S
C2830 C2831 1.399 . S
C2831 H2817 0.929 . S
C2831 C2830 1.399 . S
C2831 C2832 1.385 . S
C2832 H2818 0.931 . S
C2832 C2831 1.385 . S
C2832 C2833 1.389 . S
C2833 C2832 1.389 . S
C2833 C2834 1.387 . S
C2834 H2819 0.930 1_565 S
C2834 C2829 1.390 . S
C2834 C2833 1.387 . S
H2835 C2847 0.930 . S
H2836 C2849 0.930 . S
H2837 C2850 0.930 . S
H2838 C2854 0.959 . S
H2839 C2854 0.959 . S
H2840 C2854 0.961 . S
H2841 C2855 0.960 . S
H2842 C2855 0.961 . S
H2843 C2855 0.959 . S
H2844 C2858 0.929 . S
H2845 C2859 0.931 . S
H2846 C2861 0.930 . S
C2847 H2835 0.930 . S
C2847 C2848 1.399 . S
C2847 C2852 1.399 . S
C2848 C2847 1.399 . S
C2848 C2849 1.376 . S
C2849 H2836 0.930 . S
C2849 C2848 1.376 . S
C2849 C2850 1.388 . S
C2850 H2837 0.930 . S
C2850 C2849 1.388 . S
C2850 C2851 1.390 . S
C2851 C2850 1.390 . S
C2851 C2852 1.394 . S
C2851 C2857 1.465 . S
C2852 C2847 1.399 . S
C2852 C2851 1.394 . S
C2852 C2853 1.516 . S
C2853 C2852 1.516 . S
C2853 C2854 1.502 . S
C2853 C2855 1.561 . S
C2853 C2856 1.526 . S
C2854 H2838 0.959 . S
C2854 H2839 0.959 . S
C2854 H2840 0.961 . S
C2854 C2853 1.502 . S
C2855 H2841 0.960 . S
C2855 H2842 0.961 . S
C2855 H2843 0.959 . S
C2855 C2853 1.561 . S
C2856 C2853 1.526 . S
C2856 C2857 1.396 . S
C2856 C2861 1.390 . S
C2857 C2851 1.465 . S
C2857 C2856 1.396 . S
C2857 C2858 1.399 . S
C2858 H2844 0.929 . S
C2858 C2857 1.399 . S
C2858 C2859 1.385 . S
C2859 H2845 0.931 . S
C2859 C2858 1.385 . S
C2859 C2860 1.389 . S
C2860 C2859 1.389 . S
C2860 C2861 1.387 . S
C2861 H2846 0.930 . S
C2861 C2856 1.390 . S
C2861 C2860 1.387 . S
H2862 C2874 0.930 . S
H2863 C2876 0.930 . S
H2864 C2877 0.930 . S
H2865 C2881 0.959 . S
H2866 C2881 0.959 . S
H2867 C2881 0.961 . S
H2868 C2882 0.960 . S
H2869 C2882 0.961 . S
H2870 C2882 0.959 . S
H2871 C2885 0.929 . S
H2872 C2886 0.931 . S
H2873 C2888 0.930 . S
C2874 H2862 0.930 . S
C2874 C2875 1.399 . S
C2874 C2879 1.399 . S
C2875 C2874 1.399 . S
C2875 C2876 1.376 . S
C2876 H2863 0.930 . S
C2876 C2875 1.376 . S
C2876 C2877 1.388 . S
C2877 H2864 0.930 . S
C2877 C2876 1.388 . S
C2877 C2878 1.390 . S
C2878 C2877 1.390 . S
C2878 C2879 1.394 . S
C2878 C2884 1.465 . S
C2879 C2874 1.399 . S
C2879 C2878 1.394 . S
C2879 C2880 1.516 . S
C2880 C2879 1.516 . S
C2880 C2881 1.502 . S
C2880 C2882 1.561 . S
C2880 C2883 1.526 . S
C2881 H2865 0.959 . S
C2881 H2866 0.959 . S
C2881 H2867 0.961 . S
C2881 C2880 1.502 . S
C2882 H2868 0.960 . S
C2882 H2869 0.961 . S
C2882 H2870 0.959 . S
C2882 C2880 1.561 . S
C2883 C2880 1.526 . S
C2883 C2884 1.396 . S
C2883 C2888 1.390 . S
C2884 C2878 1.465 . S
C2884 C2883 1.396 . S
C2884 C2885 1.399 . S
C2885 H2871 0.929 . S
C2885 C2884 1.399 . S
C2885 C2886 1.385 . S
C2886 H2872 0.931 . S
C2886 C2885 1.385 . S
C2886 C2887 1.389 . S
C2887 C2886 1.389 . S
C2887 C2888 1.387 . S
C2888 H2873 0.930 . S
C2888 C2883 1.390 . S
C2888 C2887 1.387 . S
H2889 C2901 0.930 . S
H2890 C2903 0.930 . S
H2891 C2904 0.930 . S
H2892 C2908 0.959 . S
H2893 C2908 0.959 . S
H2894 C2908 0.961 . S
H2895 C2909 0.960 . S
H2896 C2909 0.961 . S
H2897 C2909 0.959 . S
H2898 C2912 0.929 . S
H2899 C2913 0.931 . S
H2900 C2915 0.930 . S
C2901 H2889 0.930 . S
C2901 C2902 1.399 . S
C2901 C2906 1.399 . S
C2902 C2901 1.399 . S
C2902 C2903 1.376 . S
C2903 H2890 0.930 . S
C2903 C2902 1.376 . S
C2903 C2904 1.388 . S
C2904 H2891 0.930 . S
C2904 C2903 1.388 . S
C2904 C2905 1.390 . S
C2905 C2904 1.390 . S
C2905 C2906 1.394 . S
C2905 C2911 1.465 . S
C2906 C2901 1.399 . S
C2906 C2905 1.394 . S
C2906 C2907 1.516 . S
C2907 C2906 1.516 . S
C2907 C2908 1.502 1_655 S
C2907 C2909 1.561 . S
C2907 C2910 1.526 . S
C2908 H2892 0.959 . S
C2908 H2893 0.959 . S
C2908 H2894 0.961 . S
C2908 C2907 1.502 1_455 S
C2909 H2895 0.960 . S
C2909 H2896 0.961 . S
C2909 H2897 0.959 . S
C2909 C2907 1.561 . S
C2910 C2907 1.526 . S
C2910 C2911 1.396 . S
C2910 C2915 1.390 . S
C2911 C2905 1.465 . S
C2911 C2910 1.396 . S
C2911 C2912 1.399 . S
C2912 H2898 0.929 . S
C2912 C2911 1.399 . S
C2912 C2913 1.385 . S
C2913 H2899 0.931 . S
C2913 C2912 1.385 . S
C2913 C2914 1.389 . S
C2914 C2913 1.389 . S
C2914 C2915 1.387 . S
C2915 H2900 0.930 . S
C2915 C2910 1.390 . S
C2915 C2914 1.387 . S
H2916 C2928 0.930 . S
H2917 C2930 0.930 . S
H2918 C2931 0.930 . S
H2919 C2935 0.959 . S
H2920 C2935 0.959 . S
H2921 C2935 0.961 . S
H2922 C2936 0.960 . S
H2923 C2936 0.961 . S
H2924 C2936 0.959 . S
H2925 C2939 0.929 . S
H2926 C2940 0.931 . S
H2927 C2942 0.930 . S
C2928 H2916 0.930 . S
C2928 C2929 1.399 . S
C2928 C2933 1.399 . S
C2929 C2928 1.399 . S
C2929 C2930 1.376 . S
C2930 H2917 0.930 . S
C2930 C2929 1.376 . S
C2930 C2931 1.388 . S
C2931 H2918 0.930 . S
C2931 C2930 1.388 . S
C2931 C2932 1.390 . S
C2932 C2931 1.390 . S
C2932 C2933 1.394 . S
C2932 C2938 1.465 . S
C2933 C2928 1.399 . S
C2933 C2932 1.394 . S
C2933 C2934 1.516 . S
C2934 C2933 1.516 . S
C2934 C2935 1.502 . S
C2934 C2936 1.561 . S
C2934 C2937 1.526 . S
C2935 H2919 0.959 . S
C2935 H2920 0.959 . S
C2935 H2921 0.961 . S
C2935 C2934 1.502 . S
C2936 H2922 0.960 . S
C2936 H2923 0.961 . S
C2936 H2924 0.959 . S
C2936 C2934 1.561 . S
C2937 C2934 1.526 . S
C2937 C2938 1.396 . S
C2937 C2942 1.390 . S
C2938 C2932 1.465 . S
C2938 C2937 1.396 . S
C2938 C2939 1.399 . S
C2939 H2925 0.929 . S
C2939 C2938 1.399 . S
C2939 C2940 1.385 . S
C2940 H2926 0.931 . S
C2940 C2939 1.385 . S
C2940 C2941 1.389 . S
C2941 C2940 1.389 . S
C2941 C2942 1.387 . S
C2942 H2927 0.930 . S
C2942 C2937 1.390 . S
C2942 C2941 1.387 . S
H2943 C2955 0.930 . S
H2944 C2957 0.930 . S
H2945 C2958 0.930 . S
H2946 C2962 0.959 . S
H2947 C2962 0.959 . S
H2948 C2962 0.961 . S
H2949 C2963 0.960 . S
H2950 C2963 0.961 . S
H2951 C2963 0.959 . S
H2952 C2966 0.929 . S
H2953 C2967 0.931 . S
H2954 C2969 0.930 . S
C2955 H2943 0.930 . S
C2955 C2956 1.399 . S
C2955 C2960 1.399 . S
C2956 C2955 1.399 . S
C2956 C2957 1.376 . S
C2957 H2944 0.930 . S
C2957 C2956 1.376 . S
C2957 C2958 1.388 . S
C2958 H2945 0.930 . S
C2958 C2957 1.388 . S
C2958 C2959 1.390 . S
C2959 C2958 1.390 . S
C2959 C2960 1.394 . S
C2959 C2965 1.465 . S
C2960 C2955 1.399 . S
C2960 C2959 1.394 . S
C2960 C2961 1.516 . S
C2961 C2960 1.516 . S
C2961 C2962 1.502 . S
C2961 C2963 1.561 . S
C2961 C2964 1.526 . S
C2962 H2946 0.959 . S
C2962 H2947 0.959 . S
C2962 H2948 0.961 . S
C2962 C2961 1.502 . S
C2963 H2949 0.960 . S
C2963 H2950 0.961 . S
C2963 H2951 0.959 . S
C2963 C2961 1.561 . S
C2964 C2961 1.526 . S
C2964 C2965 1.396 . S
C2964 C2969 1.390 . S
C2965 C2959 1.465 . S
C2965 C2964 1.396 . S
C2965 C2966 1.399 . S
C2966 H2952 0.929 . S
C2966 C2965 1.399 . S
C2966 C2967 1.385 . S
C2967 H2953 0.931 . S
C2967 C2966 1.385 . S
C2967 C2968 1.389 . S
C2968 C2967 1.389 . S
C2968 C2969 1.387 . S
C2969 H2954 0.930 . S
C2969 C2964 1.390 . S
C2969 C2968 1.387 . S
H2970 C2982 0.930 . S
H2971 C2984 0.930 . S
H2972 C2985 0.930 . S
H2973 C2989 0.959 . S
H2974 C2989 0.959 . S
H2975 C2989 0.961 . S
H2976 C2990 0.960 . S
H2977 C2990 0.961 . S
H2978 C2990 0.959 . S
H2979 C2993 0.929 . S
H2980 C2994 0.931 . S
H2981 C2996 0.930 . S
C2982 H2970 0.930 . S
C2982 C2983 1.399 . S
C2982 C2987 1.399 . S
C2983 C2982 1.399 . S
C2983 C2984 1.376 . S
C2984 H2971 0.930 . S
C2984 C2983 1.376 . S
C2984 C2985 1.388 . S
C2985 H2972 0.930 . S
C2985 C2984 1.388 . S
C2985 C2986 1.390 . S
C2986 C2985 1.390 . S
C2986 C2987 1.394 . S
C2986 C2992 1.465 . S
C2987 C2982 1.399 . S
C2987 C2986 1.394 . S
C2987 C2988 1.516 . S
C2988 C2987 1.516 . S
C2988 C2989 1.502 . S
C2988 C2990 1.561 . S
C2988 C2991 1.526 . S
C2989 H2973 0.959 . S
C2989 H2974 0.959 . S
C2989 H2975 0.961 . S
C2989 C2988 1.502 . S
C2990 H2976 0.960 . S
C2990 H2977 0.961 . S
C2990 H2978 0.959 . S
C2990 C2988 1.561 . S
C2991 C2988 1.526 . S
C2991 C2992 1.396 . S
C2991 C2996 1.390 . S
C2992 C2986 1.465 . S
C2992 C2991 1.396 . S
C2992 C2993 1.399 . S
C2993 H2979 0.929 . S
C2993 C2992 1.399 . S
C2993 C2994 1.385 . S
C2994 H2980 0.931 . S
C2994 C2993 1.385 . S
C2994 C2995 1.389 . S
C2995 C2994 1.389 . S
C2995 C2996 1.387 . S
C2996 H2981 0.930 . S
C2996 C2991 1.390 . S
C2996 C2995 1.387 . S
H2997 C3009 0.930 . S
H2998 C3011 0.930 . S
H2999 C3012 0.930 . S
H3000 C3016 0.959 . S
H3001 C3016 0.959 . S
H3002 C3016 0.961 . S
H3003 C3017 0.960 . S
H3004 C3017 0.961 . S
H3005 C3017 0.959 . S
H3006 C3020 0.929 . S
H3007 C3021 0.931 . S
H3008 C3023 0.930 . S
C3009 H2997 0.930 . S
C3009 C3010 1.399 . S
C3009 C3014 1.399 . S
C3010 C3009 1.399 . S
C3010 C3011 1.376 . S
C3011 H2998 0.930 . S
C3011 C3010 1.376 . S
C3011 C3012 1.388 . S
C3012 H2999 0.930 . S
C3012 C3011 1.388 . S
C3012 C3013 1.390 . S
C3013 C3012 1.390 . S
C3013 C3014 1.394 . S
C3013 C3019 1.465 . S
C3014 C3009 1.399 . S
C3014 C3013 1.394 . S
C3014 C3015 1.516 . S
C3015 C3014 1.516 . S
C3015 C3016 1.502 . S
C3015 C3017 1.561 . S
C3015 C3018 1.526 . S
C3016 H3000 0.959 . S
C3016 H3001 0.959 . S
C3016 H3002 0.961 . S
C3016 C3015 1.502 . S
C3017 H3003 0.960 . S
C3017 H3004 0.961 . S
C3017 H3005 0.959 . S
C3017 C3015 1.561 . S
C3018 C3015 1.526 . S
C3018 C3019 1.396 . S
C3018 C3023 1.390 . S
C3019 C3013 1.465 . S
C3019 C3018 1.396 . S
C3019 C3020 1.399 . S
C3020 H3006 0.929 . S
C3020 C3019 1.399 . S
C3020 C3021 1.385 . S
C3021 H3007 0.931 . S
C3021 C3020 1.385 . S
C3021 C3022 1.389 . S
C3022 C3021 1.389 . S
C3022 C3023 1.387 . S
C3023 H3008 0.930 . S
C3023 C3018 1.390 . S
C3023 C3022 1.387 . S
H3024 C3036 0.930 . S
H3025 C3038 0.930 . S
H3026 C3039 0.930 . S
H3027 C3043 0.959 . S
H3028 C3043 0.959 . S
H3029 C3043 0.961 . S
H3030 C3044 0.960 . S
H3031 C3044 0.961 . S
H3032 C3044 0.959 . S
H3033 C3047 0.929 . S
H3034 C3048 0.931 . S
H3035 C3050 0.930 . S
C3036 H3024 0.930 . S
C3036 C3037 1.399 . S
C3036 C3041 1.399 . S
C3037 C3036 1.399 . S
C3037 C3038 1.376 . S
C3038 H3025 0.930 . S
C3038 C3037 1.376 . S
C3038 C3039 1.388 . S
C3039 H3026 0.930 . S
C3039 C3038 1.388 . S
C3039 C3040 1.390 . S
C3040 C3039 1.390 . S
C3040 C3041 1.394 . S
C3040 C3046 1.465 . S
C3041 C3036 1.399 . S
C3041 C3040 1.394 . S
C3041 C3042 1.516 . S
C3042 C3041 1.516 . S
C3042 C3043 1.502 . S
C3042 C3044 1.561 . S
C3042 C3045 1.526 . S
C3043 H3027 0.959 . S
C3043 H3028 0.959 . S
C3043 H3029 0.961 . S
C3043 C3042 1.502 . S
C3044 H3030 0.960 . S
C3044 H3031 0.961 . S
C3044 H3032 0.959 . S
C3044 C3042 1.561 . S
C3045 C3042 1.526 . S
C3045 C3046 1.396 . S
C3045 C3050 1.390 . S
C3046 C3040 1.465 . S
C3046 C3045 1.396 . S
C3046 C3047 1.399 . S
C3047 H3033 0.929 . S
C3047 C3046 1.399 . S
C3047 C3048 1.385 . S
C3048 H3034 0.931 . S
C3048 C3047 1.385 . S
C3048 C3049 1.389 . S
C3049 C3048 1.389 . S
C3049 C3050 1.387 . S
C3050 H3035 0.930 . S
C3050 C3045 1.390 . S
C3050 C3049 1.387 . S
H3051 C3063 0.930 . S
H3052 C3065 0.930 . S
H3053 C3066 0.930 . S
H3054 C3070 0.959 . S
H3055 C3070 0.959 . S
H3056 C3070 0.961 . S
H3057 C3071 0.960 . S
H3058 C3071 0.961 . S
H3059 C3071 0.959 . S
H3060 C3074 0.929 . S
H3061 C3075 0.931 . S
H3062 C3077 0.930 . S
C3063 H3051 0.930 . S
C3063 C3064 1.399 . S
C3063 C3068 1.399 . S
C3064 C3063 1.399 . S
C3064 C3065 1.376 . S
C3065 H3052 0.930 . S
C3065 C3064 1.376 . S
C3065 C3066 1.388 . S
C3066 H3053 0.930 . S
C3066 C3065 1.388 . S
C3066 C3067 1.390 . S
C3067 C3066 1.390 . S
C3067 C3068 1.394 . S
C3067 C3073 1.465 . S
C3068 C3063 1.399 . S
C3068 C3067 1.394 . S
C3068 C3069 1.516 . S
C3069 C3068 1.516 . S
C3069 C3070 1.502 . S
C3069 C3071 1.561 . S
C3069 C3072 1.526 . S
C3070 H3054 0.959 . S
C3070 H3055 0.959 . S
C3070 H3056 0.961 . S
C3070 C3069 1.502 . S
C3071 H3057 0.960 . S
C3071 H3058 0.961 . S
C3071 H3059 0.959 . S
C3071 C3069 1.561 . S
C3072 C3069 1.526 . S
C3072 C3073 1.396 . S
C3072 C3077 1.390 . S
C3073 C3067 1.465 . S
C3073 C3072 1.396 . S
C3073 C3074 1.399 . S
C3074 H3060 0.929 . S
C3074 C3073 1.399 . S
C3074 C3075 1.385 . S
C3075 H3061 0.931 . S
C3075 C3074 1.385 . S
C3075 C3076 1.389 . S
C3076 C3075 1.389 . S
C3076 C3077 1.387 . S
C3077 H3062 0.930 . S
C3077 C3072 1.390 . S
C3077 C3076 1.387 . S
H3078 C3090 0.930 . S
H3079 C3092 0.930 . S
H3080 C3093 0.930 . S
H3081 C3097 0.959 . S
H3082 C3097 0.959 . S
H3083 C3097 0.961 . S
H3084 C3098 0.960 . S
H3085 C3098 0.961 . S
H3086 C3098 0.959 . S
H3087 C3101 0.929 . S
H3088 C3102 0.931 . S
H3089 C3104 0.930 . S
C3090 H3078 0.930 . S
C3090 C3091 1.399 . S
C3090 C3095 1.399 . S
C3091 C3090 1.399 . S
C3091 C3092 1.376 . S
C3092 H3079 0.930 . S
C3092 C3091 1.376 . S
C3092 C3093 1.388 . S
C3093 H3080 0.930 . S
C3093 C3092 1.388 . S
C3093 C3094 1.390 . S
C3094 C3093 1.390 . S
C3094 C3095 1.394 . S
C3094 C3100 1.465 . S
C3095 C3090 1.399 . S
C3095 C3094 1.394 . S
C3095 C3096 1.516 . S
C3096 C3095 1.516 . S
C3096 C3097 1.502 . S
C3096 C3098 1.561 . S
C3096 C3099 1.526 . S
C3097 H3081 0.959 . S
C3097 H3082 0.959 . S
C3097 H3083 0.961 . S
C3097 C3096 1.502 . S
C3098 H3084 0.960 . S
C3098 H3085 0.961 . S
C3098 H3086 0.959 . S
C3098 C3096 1.561 . S
C3099 C3096 1.526 . S
C3099 C3100 1.396 . S
C3099 C3104 1.390 . S
C3100 C3094 1.465 . S
C3100 C3099 1.396 . S
C3100 C3101 1.399 . S
C3101 H3087 0.929 . S
C3101 C3100 1.399 . S
C3101 C3102 1.385 . S
C3102 H3088 0.931 . S
C3102 C3101 1.385 . S
C3102 C3103 1.389 . S
C3103 C3102 1.389 . S
C3103 C3104 1.387 . S
C3104 H3089 0.930 . S
C3104 C3099 1.390 . S
C3104 C3103 1.387 . S
H3105 C3117 0.930 . S
H3106 C3119 0.930 . S
H3107 C3120 0.930 . S
H3108 C3124 0.959 . S
H3109 C3124 0.959 . S
H3110 C3124 0.961 . S
H3111 C3125 0.960 . S
H3112 C3125 0.961 . S
H3113 C3125 0.959 . S
H3114 C3128 0.929 . S
H3115 C3129 0.931 . S
H3116 C3131 0.930 . S
C3117 H3105 0.930 . S
C3117 C3118 1.399 . S
C3117 C3122 1.399 . S
C3118 C3117 1.399 . S
C3118 C3119 1.376 . S
C3119 H3106 0.930 . S
C3119 C3118 1.376 . S
C3119 C3120 1.388 . S
C3120 H3107 0.930 . S
C3120 C3119 1.388 . S
C3120 C3121 1.390 . S
C3121 C3120 1.390 . S
C3121 C3122 1.394 . S
C3121 C3127 1.465 . S
C3122 C3117 1.399 . S
C3122 C3121 1.394 . S
C3122 C3123 1.516 . S
C3123 C3122 1.516 . S
C3123 C3124 1.502 . S
C3123 C3125 1.561 . S
C3123 C3126 1.526 . S
C3124 H3108 0.959 . S
C3124 H3109 0.959 . S
C3124 H3110 0.961 . S
C3124 C3123 1.502 . S
C3125 H3111 0.960 . S
C3125 H3112 0.961 . S
C3125 H3113 0.959 . S
C3125 C3123 1.561 . S
C3126 C3123 1.526 . S
C3126 C3127 1.396 . S
C3126 C3131 1.390 . S
C3127 C3121 1.465 . S
C3127 C3126 1.396 . S
C3127 C3128 1.399 . S
C3128 H3114 0.929 . S
C3128 C3127 1.399 . S
C3128 C3129 1.385 . S
C3129 H3115 0.931 . S
C3129 C3128 1.385 . S
C3129 C3130 1.389 . S
C3130 C3129 1.389 . S
C3130 C3131 1.387 . S
C3131 H3116 0.930 . S
C3131 C3126 1.390 . S
C3131 C3130 1.387 . S
H3132 C3144 0.930 . S
H3133 C3146 0.930 . S
H3134 C3147 0.930 . S
H3135 C3151 0.959 . S
H3136 C3151 0.959 . S
H3137 C3151 0.961 . S
H3138 C3152 0.960 . S
H3139 C3152 0.961 . S
H3140 C3152 0.959 . S
H3141 C3155 0.929 . S
H3142 C3156 0.931 . S
H3143 C3158 0.930 . S
C3144 H3132 0.930 . S
C3144 C3145 1.399 . S
C3144 C3149 1.399 . S
C3145 C3144 1.399 . S
C3145 C3146 1.376 . S
C3146 H3133 0.930 . S
C3146 C3145 1.376 . S
C3146 C3147 1.388 . S
C3147 H3134 0.930 . S
C3147 C3146 1.388 . S
C3147 C3148 1.390 . S
C3148 C3147 1.390 . S
C3148 C3149 1.394 . S
C3148 C3154 1.465 . S
C3149 C3144 1.399 . S
C3149 C3148 1.394 . S
C3149 C3150 1.516 . S
C3150 C3149 1.516 . S
C3150 C3151 1.502 . S
C3150 C3152 1.561 . S
C3150 C3153 1.526 . S
C3151 H3135 0.959 . S
C3151 H3136 0.959 . S
C3151 H3137 0.961 . S
C3151 C3150 1.502 . S
C3152 H3138 0.960 . S
C3152 H3139 0.961 . S
C3152 H3140 0.959 . S
C3152 C3150 1.561 . S
C3153 C3150 1.526 . S
C3153 C3154 1.396 . S
C3153 C3158 1.390 . S
C3154 C3148 1.465 . S
C3154 C3153 1.396 . S
C3154 C3155 1.399 . S
C3155 H3141 0.929 . S
C3155 C3154 1.399 . S
C3155 C3156 1.385 . S
C3156 H3142 0.931 . S
C3156 C3155 1.385 . S
C3156 C3157 1.389 . S
C3157 C3156 1.389 . S
C3157 C3158 1.387 . S
C3158 H3143 0.930 . S
C3158 C3153 1.390 . S
C3158 C3157 1.387 . S
H3159 C3171 0.930 . S
H3160 C3173 0.930 . S
H3161 C3174 0.930 . S
H3162 C3178 0.959 . S
H3163 C3178 0.959 . S
H3164 C3178 0.961 . S
H3165 C3179 0.960 . S
H3166 C3179 0.961 . S
H3167 C3179 0.959 . S
H3168 C3182 0.929 . S
H3169 C3183 0.931 . S
H3170 C3185 0.930 . S
C3171 H3159 0.930 . S
C3171 C3172 1.399 . S
C3171 C3176 1.399 . S
C3172 C3171 1.399 . S
C3172 C3173 1.376 . S
C3173 H3160 0.930 . S
C3173 C3172 1.376 . S
C3173 C3174 1.388 . S
C3174 H3161 0.930 . S
C3174 C3173 1.388 . S
C3174 C3175 1.390 . S
C3175 C3174 1.390 . S
C3175 C3176 1.394 . S
C3175 C3181 1.465 . S
C3176 C3171 1.399 . S
C3176 C3175 1.394 . S
C3176 C3177 1.516 . S
C3177 C3176 1.516 . S
C3177 C3178 1.502 . S
C3177 C3179 1.561 . S
C3177 C3180 1.526 . S
C3178 H3162 0.959 . S
C3178 H3163 0.959 . S
C3178 H3164 0.961 . S
C3178 C3177 1.502 . S
C3179 H3165 0.960 . S
C3179 H3166 0.961 . S
C3179 H3167 0.959 . S
C3179 C3177 1.561 . S
C3180 C3177 1.526 . S
C3180 C3181 1.396 . S
C3180 C3185 1.390 . S
C3181 C3175 1.465 . S
C3181 C3180 1.396 . S
C3181 C3182 1.399 . S
C3182 H3168 0.929 . S
C3182 C3181 1.399 . S
C3182 C3183 1.385 . S
C3183 H3169 0.931 . S
C3183 C3182 1.385 . S
C3183 C3184 1.389 . S
C3184 C3183 1.389 . S
C3184 C3185 1.387 . S
C3185 H3170 0.930 . S
C3185 C3180 1.390 . S
C3185 C3184 1.387 . S
H3186 C3198 0.930 . S
H3187 C3200 0.930 . S
H3188 C3201 0.930 . S
H3189 C3205 0.959 . S
H3190 C3205 0.959 . S
H3191 C3205 0.961 . S
H3192 C3206 0.960 . S
H3193 C3206 0.961 . S
H3194 C3206 0.959 . S
H3195 C3209 0.929 . S
H3196 C3210 0.931 . S
H3197 C3212 0.930 . S
C3198 H3186 0.930 . S
C3198 C3199 1.399 . S
C3198 C3203 1.399 . S
C3199 C3198 1.399 . S
C3199 C3200 1.376 . S
C3200 H3187 0.930 . S
C3200 C3199 1.376 . S
C3200 C3201 1.388 . S
C3201 H3188 0.930 . S
C3201 C3200 1.388 . S
C3201 C3202 1.390 . S
C3202 C3201 1.390 . S
C3202 C3203 1.394 . S
C3202 C3208 1.465 . S
C3203 C3198 1.399 . S
C3203 C3202 1.394 . S
C3203 C3204 1.516 . S
C3204 C3203 1.516 . S
C3204 C3205 1.502 . S
C3204 C3206 1.561 . S
C3204 C3207 1.526 . S
C3205 H3189 0.959 . S
C3205 H3190 0.959 . S
C3205 H3191 0.961 . S
C3205 C3204 1.502 . S
C3206 H3192 0.960 . S
C3206 H3193 0.961 . S
C3206 H3194 0.959 . S
C3206 C3204 1.561 . S
C3207 C3204 1.526 . S
C3207 C3208 1.396 . S
C3207 C3212 1.390 . S
C3208 C3202 1.465 . S
C3208 C3207 1.396 . S
C3208 C3209 1.399 . S
C3209 H3195 0.929 . S
C3209 C3208 1.399 . S
C3209 C3210 1.385 . S
C3210 H3196 0.931 . S
C3210 C3209 1.385 . S
C3210 C3211 1.389 . S
C3211 C3210 1.389 . S
C3211 C3212 1.387 . S
C3212 H3197 0.930 . S
C3212 C3207 1.390 . S
C3212 C3211 1.387 . S
H3213 C3225 0.930 . S
H3214 C3227 0.930 . S
H3215 C3228 0.930 . S
H3216 C3232 0.959 . S
H3217 C3232 0.959 . S
H3218 C3232 0.961 . S
H3219 C3233 0.960 . S
H3220 C3233 0.961 . S
H3221 C3233 0.959 . S
H3222 C3236 0.929 . S
H3223 C3237 0.931 . S
H3224 C3239 0.930 . S
C3225 H3213 0.930 . S
C3225 C3226 1.399 . S
C3225 C3230 1.399 . S
C3226 C3225 1.399 . S
C3226 C3227 1.376 . S
C3227 H3214 0.930 . S
C3227 C3226 1.376 . S
C3227 C3228 1.388 . S
C3228 H3215 0.930 . S
C3228 C3227 1.388 . S
C3228 C3229 1.390 . S
C3229 C3228 1.390 . S
C3229 C3230 1.394 . S
C3229 C3235 1.465 . S
C3230 C3225 1.399 . S
C3230 C3229 1.394 . S
C3230 C3231 1.516 . S
C3231 C3230 1.516 . S
C3231 C3232 1.502 . S
C3231 C3233 1.561 . S
C3231 C3234 1.526 . S
C3232 H3216 0.959 . S
C3232 H3217 0.959 . S
C3232 H3218 0.961 . S
C3232 C3231 1.502 . S
C3233 H3219 0.960 . S
C3233 H3220 0.961 . S
C3233 H3221 0.959 . S
C3233 C3231 1.561 . S
C3234 C3231 1.526 . S
C3234 C3235 1.396 . S
C3234 C3239 1.390 . S
C3235 C3229 1.465 . S
C3235 C3234 1.396 . S
C3235 C3236 1.399 . S
C3236 H3222 0.929 . S
C3236 C3235 1.399 . S
C3236 C3237 1.385 . S
C3237 H3223 0.931 . S
C3237 C3236 1.385 . S
C3237 C3238 1.389 . S
C3238 C3237 1.389 . S
C3238 C3239 1.387 . S
C3239 H3224 0.930 . S
C3239 C3234 1.390 . S
C3239 C3238 1.387 . S
H3240 C3252 0.930 . S
H3241 C3254 0.930 . S
H3242 C3255 0.930 . S
H3243 C3259 0.959 . S
H3244 C3259 0.959 . S
H3245 C3259 0.961 . S
H3246 C3260 0.960 . S
H3247 C3260 0.961 . S
H3248 C3260 0.959 . S
H3249 C3263 0.929 . S
H3250 C3264 0.931 . S
H3251 C3266 0.930 . S
C3252 H3240 0.930 . S
C3252 C3253 1.399 . S
C3252 C3257 1.399 . S
C3253 C3252 1.399 . S
C3253 C3254 1.376 . S
C3254 H3241 0.930 . S
C3254 C3253 1.376 . S
C3254 C3255 1.388 . S
C3255 H3242 0.930 . S
C3255 C3254 1.388 . S
C3255 C3256 1.390 . S
C3256 C3255 1.390 . S
C3256 C3257 1.394 . S
C3256 C3262 1.465 . S
C3257 C3252 1.399 . S
C3257 C3256 1.394 . S
C3257 C3258 1.516 . S
C3258 C3257 1.516 . S
C3258 C3259 1.502 . S
C3258 C3260 1.561 . S
C3258 C3261 1.526 . S
C3259 H3243 0.959 . S
C3259 H3244 0.959 . S
C3259 H3245 0.961 . S
C3259 C3258 1.502 . S
C3260 H3246 0.960 . S
C3260 H3247 0.961 . S
C3260 H3248 0.959 . S
C3260 C3258 1.561 . S
C3261 C3258 1.526 . S
C3261 C3262 1.396 . S
C3261 C3266 1.390 . S
C3262 C3256 1.465 . S
C3262 C3261 1.396 . S
C3262 C3263 1.399 . S
C3263 H3249 0.929 . S
C3263 C3262 1.399 . S
C3263 C3264 1.385 . S
C3264 H3250 0.931 . S
C3264 C3263 1.385 . S
C3264 C3265 1.389 . S
C3265 C3264 1.389 . S
C3265 C3266 1.387 . S
C3266 H3251 0.930 . S
C3266 C3261 1.390 . S
C3266 C3265 1.387 . S
H3267 C3279 0.930 . S
H3268 C3281 0.930 . S
H3269 C3282 0.930 . S
H3270 C3286 0.959 . S
H3271 C3286 0.959 . S
H3272 C3286 0.961 . S
H3273 C3287 0.960 . S
H3274 C3287 0.961 . S
H3275 C3287 0.959 . S
H3276 C3290 0.929 . S
H3277 C3291 0.931 . S
H3278 C3293 0.930 . S
C3279 H3267 0.930 . S
C3279 C3280 1.399 . S
C3279 C3284 1.399 . S
C3280 C3279 1.399 . S
C3280 C3281 1.376 . S
C3281 H3268 0.930 . S
C3281 C3280 1.376 . S
C3281 C3282 1.388 . S
C3282 H3269 0.930 . S
C3282 C3281 1.388 . S
C3282 C3283 1.390 . S
C3283 C3282 1.390 . S
C3283 C3284 1.394 . S
C3283 C3289 1.465 . S
C3284 C3279 1.399 . S
C3284 C3283 1.394 . S
C3284 C3285 1.516 . S
C3285 C3284 1.516 . S
C3285 C3286 1.502 . S
C3285 C3287 1.561 . S
C3285 C3288 1.526 . S
C3286 H3270 0.959 . S
C3286 H3271 0.959 . S
C3286 H3272 0.961 . S
C3286 C3285 1.502 . S
C3287 H3273 0.960 . S
C3287 H3274 0.961 . S
C3287 H3275 0.959 . S
C3287 C3285 1.561 . S
C3288 C3285 1.526 . S
C3288 C3289 1.396 . S
C3288 C3293 1.390 . S
C3289 C3283 1.465 . S
C3289 C3288 1.396 . S
C3289 C3290 1.399 . S
C3290 H3276 0.929 . S
C3290 C3289 1.399 . S
C3290 C3291 1.385 . S
C3291 H3277 0.931 . S
C3291 C3290 1.385 . S
C3291 C3292 1.389 . S
C3292 C3291 1.389 . S
C3292 C3293 1.387 . S
C3293 H3278 0.930 . S
C3293 C3288 1.390 . S
C3293 C3292 1.387 . S
C1849 C781 1.430 . S
C1861 C1147 1.405 . S
C1876 C871 1.436 . S
C1888 C1231 1.368 . S
C1903 C751 1.468 . S
C1915 C1311 1.421 . S
C1930 C691 1.408 . S
C1942 C1227 1.410 . S
C1969 C1315 1.274 . S
C1957 C571 1.400 . S
C1984 C601 1.368 . S
C1996 C1143 1.372 . S
C2023 C1136 1.332 . S
C2011 C661 1.356 . S
C2050 C1220 1.343 . S
C2038 C541 1.390 . S
C2065 C631 1.467 . S
C2077 C1322 1.464 . S
C2092 C811 1.426 . S
C2104 C1238 1.349 . S
C2119 C841 1.356 . S
C2131 C1304 1.351 . S
C2158 C1154 1.345 . S
C2146 C721 1.409 . S
C2185 C1399 1.411 . S
C2173 C61 1.444 . S
C2200 C151 1.420 . S
C2212 C1483 1.417 . S
C2227 C31 1.417 . S
C2239 C1563 1.421 . S
C2254 C1051 1.428 . S
C2266 C1479 1.381 . S
C2281 C931 1.356 . S
C2293 C1567 1.326 . S
C2308 C961 1.423 . S
C2320 C1395 1.346 . S
C2335 C1021 1.368 . S
C2347 C1388 1.366 . S
C2362 C901 1.413 . S
C2374 C1472 1.353 . S
C2401 C1574 1.410 . S
C2389 C991 1.459 . S
C2416 C91 1.415 . S
C2428 C1490 1.424 . S
C2455 C1556 1.286 . S
C2443 C121 1.358 . S
C2470 C1 1.323 . S
C2482 C1406 1.394 . S
C2509 C1651 1.327 . S
C2497 C421 1.395 . S
C2524 C511 1.455 . S
C2536 C1735 1.347 . S
C2563 C1815 1.409 . S
C2551 C391 1.472 . S
C2590 C1731 1.382 . S
C2578 C331 1.373 . S
C2617 C1819 1.346 . S
C2605 C211 1.360 . S
C2632 C241 1.410 . S
C2644 C1647 1.391 . S
C2659 C301 1.368 . S
C2671 C1640 1.313 . S
C2686 C181 1.412 . S
C2698 C1724 1.352 . S
C2725 C1826 1.454 . S
C2713 C271 1.454 . S
C2740 C451 1.425 . S
C2752 C1742 1.349 . S
C2767 C481 1.329 . S
C2779 C1808 1.274 . S
C2794 C361 1.322 . S
C2806 C1658 1.379 . S
C2821 C920 1.425 . S
C2833 C1150 1.392 . S
C2860 C1234 1.328 . S
C2848 C980 1.508 . S
C2875 C1040 1.415 . S
C2887 C1306 1.383 . S
C2902 C380 1.447 . S
C2914 C1222 1.417 . S
C2929 C440 1.466 . S
C2941 C1318 1.371 . S
C2968 C1138 1.282 . S
C2956 C500 1.446 . S
C2983 C200 1.445 . S
C2995 C1402 1.374 . S
C3010 C260 1.462 . S
C3022 C1486 1.382 . S
C3037 C320 1.418 . S
C3049 C1558 1.396 . S
C3064 C740 1.494 . S
C3076 C1474 1.298 . S
C3103 C1570 1.324 . S
C3091 C800 1.425 . S
C3118 C860 1.423 . S
C3130 C1390 1.383 . S
C3145 C560 1.410 . S
C3157 C1654 1.277 . S
C3172 C620 1.508 . S
C3184 C1738 1.340 . S
C3211 C1810 1.286 . S
C3199 C680 1.470 . S
C3226 C20 1.446 . S
C3238 C1726 1.415 . S
C3253 C80 1.422 . S
C3265 C1822 1.355 . S
C3280 C140 1.440 . S
C3292 C1642 1.352 . S
