# Generated by pormake.
# Topology anh, (6,3)-cn, num edge types: 1
# Building blocks:
#     Node 0, Type 0, BuildingBlock: VOLQOD_clean_sbu_1, # of connection points: 6
#     Node 1, Type 0, BuildingBlock: VOLQOD_clean_sbu_1, # of connection points: 6
#     Node 2, Type 0, BuildingBlock: VOLQOD_clean_sbu_1, # of connection points: 6
#     Node 3, Type 1, BuildingBlock: BELTOD_clean_linker_0, # of connection points: 3
#     Node 4, Type 1, BuildingBlock: BELTOD_clean_linker_0, # of connection points: 3
#     Node 5, Type 1, BuildingBlock: BELTOD_clean_linker_0, # of connection points: 3
#     Node 6, Type 1, BuildingBlock: BELTOD_clean_linker_0, # of connection points: 3
#     Node 7, Type 1, BuildingBlock: BELTOD_clean_linker_0, # of connection points: 3
#     Node 8, Type 1, BuildingBlock: BELTOD_clean_linker_0, # of connection points: 3
#     Edge 9, Type (0, 1), BuildingBlock: TEMPAE_clean_linker_10, # of connection points: 2
#     Edge 10, Type (0, 1), BuildingBlock: TEMPAE_clean_linker_10, # of connection points: 2
#     Edge 11, Type (0, 1), BuildingBlock: TEMPAE_clean_linker_10, # of connection points: 2
#     Edge 12, Type (0, 1), BuildingBlock: TEMPAE_clean_linker_10, # of connection points: 2
#     Edge 13, Type (0, 1), BuildingBlock: TEMPAE_clean_linker_10, # of connection points: 2
#     Edge 14, Type (0, 1), BuildingBlock: TEMPAE_clean_linker_10, # of connection points: 2
#     Edge 15, Type (0, 1), BuildingBlock: TEMPAE_clean_linker_10, # of connection points: 2
#     Edge 16, Type (0, 1), BuildingBlock: TEMPAE_clean_linker_10, # of connection points: 2
#     Edge 17, Type (0, 1), BuildingBlock: TEMPAE_clean_linker_10, # of connection points: 2
#     Edge 18, Type (0, 1), BuildingBlock: TEMPAE_clean_linker_10, # of connection points: 2
#     Edge 19, Type (0, 1), BuildingBlock: TEMPAE_clean_linker_10, # of connection points: 2
#     Edge 20, Type (0, 1), BuildingBlock: TEMPAE_clean_linker_10, # of connection points: 2
#     Edge 21, Type (0, 1), BuildingBlock: TEMPAE_clean_linker_10, # of connection points: 2
#     Edge 22, Type (0, 1), BuildingBlock: TEMPAE_clean_linker_10, # of connection points: 2
#     Edge 23, Type (0, 1), BuildingBlock: TEMPAE_clean_linker_10, # of connection points: 2
#     Edge 24, Type (0, 1), BuildingBlock: TEMPAE_clean_linker_10, # of connection points: 2
#     Edge 25, Type (0, 1), BuildingBlock: TEMPAE_clean_linker_10, # of connection points: 2
#     Edge 26, Type (0, 1), BuildingBlock: TEMPAE_clean_linker_10, # of connection points: 2
# Relax obj value: 0.161
# Max RMSD: 0.227
# Mean RMSD: 0.107
data_MOF--net-anh--node1-VOLQOD_clean_sbu_1--node2-BELTOD_clean_linker_0--edge1-TEMPAE_clean_linker_10
_symmetry_space_group_name_H-M    P1
_symmetry_Int_Tables_number       1
_symmetry_cell_setting            triclinic
loop_
_symmetry_equiv_pos_as_xyz
'x, y, z'
_cell_length_a     32.534472
_cell_length_b     32.498899
_cell_length_c     68.971818
_cell_angle_alpha  90.248673
_cell_angle_beta   89.825924
_cell_angle_gamma 120.12569
loop_
_atom_site_label
_atom_site_type_symbol
_atom_site_fract_x
_atom_site_fract_y
_atom_site_fract_z
_atom_type_partial_charge
O0 O -0.00092 0.56044 0.19844 0.0
Zn1 Zn 0.00223 0.58168 0.17061 0.0
O2 O 0.01043 0.53919 0.15259 0.0
Zn3 Zn 0.96013 0.51346 0.13329 0.0
Zn4 Zn 0.00881 0.48744 0.16708 0.0
Zn5 Zn 0.07078 0.5729 0.13914 0.0
O6 O 0.98511 0.52867 0.10586 0.0
O7 O 0.06196 0.57853 0.11065 0.0
O8 O 0.94182 0.58311 0.16479 0.0
O9 O 0.91918 0.54193 0.13724 0.0
O10 O 0.9156 0.44297 0.13703 0.0
O11 O 0.94921 0.42678 0.16156 0.0
O12 O 0.06315 0.4779 0.16046 0.0
O13 O 0.05962 0.64796 0.16951 0.0
O14 O 0.10841 0.5393 0.14156 0.0
O15 O 0.10899 0.63801 0.15028 0.0
C16 C 0.00459 0.5279 0.20609 0.0
C17 C 0.02646 0.55737 0.09932 0.0
C18 C 0.91584 0.41393 0.1493 0.0
C19 C 0.91387 0.56663 0.1503 0.0
C20 C 0.10045 0.5016 0.15033 0.0
C21 C 0.1002 0.66381 0.16153 0.0
O22 O 0.0103 0.49876 0.19565 0.0
O23 O 0.44924 0.0178 0.45975 0.0
Zn24 Zn 0.42938 0.01655 0.48774 0.0
O25 O 0.47357 0.01122 0.50527 0.0
Zn26 Zn 0.50788 0.06836 0.52038 0.0
Zn27 Zn 0.51874 0.00173 0.4903 0.0
Zn28 Zn 0.43984 0.9594 0.52345 0.0
O29 O 0.51016 0.05387 0.54838 0.0
O30 O 0.44722 0.98162 0.55132 0.0
O31 O 0.42517 0.07574 0.49362 0.0
O32 O 0.47515 0.10583 0.51854 0.0
O33 O 0.57459 0.10945 0.51057 0.0
O34 O 0.5836 0.05988 0.49123 0.0
O35 O 0.52332 0.94598 0.49992 0.0
O36 O 0.3646 0.95781 0.49037 0.0
O37 O 0.46829 0.9171 0.523 0.0
O38 O 0.37145 0.91942 0.51563 0.0
C39 C 0.47615 0.00433 0.45195 0.0
C40 C 0.48126 0.01911 0.55886 0.0
C41 C 0.60012 0.10044 0.49929 0.0
C42 C 0.44468 0.10631 0.50717 0.0
C43 C 0.50085 0.91581 0.5132 0.0
C44 C 0.34687 0.92253 0.50196 0.0
O45 O 0.50149 0.99311 0.46221 0.0
O46 O 0.44244 0.44709 0.79262 0.0
Zn47 Zn 0.42261 0.4275 0.82049 0.0
O48 O 0.47202 0.47177 0.83867 0.0
Zn49 Zn 0.44579 0.49797 0.85726 0.0
Zn50 Zn 0.52286 0.52333 0.82409 0.0
Zn51 Zn 0.49842 0.43932 0.85315 0.0
O52 O 0.45099 0.4813 0.885 0.0
O53 O 0.48599 0.43817 0.88161 0.0
O54 O 0.36 0.42598 0.82518 0.0
O55 O 0.37726 0.47091 0.85169 0.0
O56 O 0.47561 0.5694 0.85449 0.0
O57 O 0.52863 0.58527 0.83116 0.0
O58 O 0.58605 0.52934 0.82931 0.0
O59 O 0.41392 0.36149 0.82272 0.0
O60 O 0.56924 0.47077 0.84987 0.0
O61 O 0.46945 0.37225 0.84412 0.0
C62 C 0.4784 0.48276 0.78509 0.0
C63 C 0.46745 0.45656 0.89227 0.0
C64 C 0.50831 0.59878 0.84328 0.0
C65 C 0.34792 0.4445 0.83878 0.0
C66 C 0.59916 0.50617 0.83994 0.0
C67 C 0.43629 0.34569 0.83247 0.0
O68 O 0.51126 0.51458 0.79551 0.0
P69 P 0.54524 0.99134 0.24226 0.0
H70 H 0.50314 0.94023 0.20646 0.0
H71 H 0.42257 0.90374 0.19313 0.0
H72 H 0.37624 0.9472 0.24395 0.0
H73 H 0.45704 0.98522 0.25697 0.0
H74 H 0.64226 0.06616 0.25008 0.0
H75 H 0.69851 0.13706 0.23191 0.0
H76 H 0.59004 0.10742 0.1893 0.0
H77 H 0.53402 0.03744 0.20749 0.0
H78 H 0.52693 0.92667 0.27424 0.0
H79 H 0.55568 0.07036 0.26665 0.0
O80 O 0.56601 0.95452 0.23796 0.0
H81 H 0.51426 0.93163 0.30888 0.0
H82 H 0.54231 0.07543 0.30134 0.0
C83 C 0.48591 0.96474 0.2328 0.0
C84 C 0.47572 0.94215 0.21468 0.0
C85 C 0.43001 0.92184 0.207 0.0
C86 C 0.39374 0.9232 0.21753 0.0
C87 C 0.40395 0.94611 0.2356 0.0
C88 C 0.44999 0.96741 0.24307 0.0
C89 C 0.58391 0.04658 0.23025 0.0
C90 C 0.6304 0.07543 0.23701 0.0
C91 C 0.66243 0.11582 0.22664 0.0
C92 C 0.64852 0.12744 0.20918 0.0
C93 C 0.6017 0.09893 0.20262 0.0
C94 C 0.56961 0.0589 0.2131 0.0
C95 C 0.54333 -0.00149 0.26802 0.0
C96 C 0.53132 0.9596 0.28012 0.0
C97 C 0.52349 0.96228 0.29986 0.0
C98 C 0.52703 0.00384 0.30781 0.0
C99 C 0.53986 0.04314 0.29567 0.0
C100 C 0.54766 0.04036 0.27587 0.0
P101 P 0.62615 0.56665 0.58126 0.0
H102 H 0.65587 0.53245 0.5479 0.0
H103 H 0.61462 0.46085 0.52785 0.0
H104 H 0.48848 0.41274 0.56304 0.0
H105 H 0.52936 0.48528 0.5824 0.0
H106 H 0.64657 0.65996 0.59517 0.0
H107 H 0.62969 0.71955 0.58196 0.0
H108 H 0.57425 0.63492 0.52984 0.0
H109 H 0.58871 0.57471 0.54353 0.0
H110 H 0.64059 0.51475 0.61213 0.0
H111 H 0.55934 0.58485 0.60367 0.0
O112 O 0.68424 0.58564 0.58158 0.0
H113 H 0.60865 0.49266 0.64489 0.0
H114 H 0.53033 0.56654 0.63679 0.0
C115 C 0.59613 0.51326 0.56699 0.0
C116 C 0.6194 0.50632 0.5513 0.0
C117 C 0.59571 0.46547 0.53984 0.0
C118 C 0.54833 0.43082 0.54393 0.0
C119 C 0.52475 0.43884 0.55934 0.0
C120 C 0.54836 0.47994 0.57065 0.0
C121 C 0.61755 0.61223 0.57065 0.0
C122 C 0.63061 0.65428 0.58093 0.0
C123 C 0.62135 0.68852 0.57326 0.0
C124 C 0.59999 0.68175 0.55491 0.0
C125 C 0.58946 0.64067 0.54423 0.0
C126 C 0.59801 0.60618 0.55205 0.0
C127 C 0.60375 0.55289 0.6057 0.0
C128 C 0.61665 0.52628 0.6175 0.0
C129 C 0.59847 0.51387 0.63629 0.0
C130 C 0.56728 0.5283 0.64373 0.0
C131 C 0.55385 0.55434 0.63162 0.0
C132 C 0.57129 0.56579 0.6127 0.0
P133 P 0.09159 0.66842 0.891 0.0
H134 H 0.15035 0.68488 0.8566 0.0
H135 H 0.17803 0.63641 0.84 0.0
H136 H 0.10521 0.52539 0.88246 0.0
H137 H 0.07732 0.57364 0.89877 0.0
H138 H 0.04912 0.725 0.87857 0.0
H139 H 0.97022 0.70245 0.86589 0.0
H140 H 0.93083 0.5543 0.86845 0.0
H141 H 0.00922 0.5769 0.88102 0.0
H142 H 0.15162 0.65825 0.91971 0.0
H143 H 0.01736 0.65491 0.91894 0.0
O144 O 0.13014 0.72608 0.88754 0.0
H145 H 0.14181 0.64031 0.95444 0.0
H146 H 0.00722 0.63662 0.95348 0.0
C147 C 0.11306 0.6334 0.87922 0.0
C148 C 0.14062 0.65021 0.86236 0.0
C149 C 0.15616 0.62243 0.85285 0.0
C150 C 0.14378 0.57713 0.85994 0.0
C151 C 0.11489 0.5599 0.87652 0.0
C152 C 0.09957 0.58777 0.88603 0.0
C153 C 0.03531 0.65267 0.88033 0.0
C154 C 0.02369 0.68775 0.87612 0.0
C155 C 0.97861 0.67485 0.86899 0.0
C156 C 0.94463 0.62666 0.86602 0.0
C157 C 0.95663 0.59174 0.87019 0.0
C158 C 0.00147 0.60465 0.87742 0.0
C159 C 0.08477 0.65683 0.91665 0.0
C160 C 0.11997 0.65345 0.92699 0.0
C161 C 0.11425 0.64305 0.94679 0.0
C162 C 0.07353 0.63664 0.95663 0.0
C163 C 0.03904 0.64152 0.94631 0.0
C164 C 0.04468 0.65166 0.9265 0.0
P165 P 0.04847 0.46491 0.41386 0.0
H166 H 0.13582 0.51403 0.43664 0.0
H167 H 0.1751 0.59072 0.45326 0.0
H168 H 0.06294 0.61644 0.43508 0.0
H169 H 0.02313 0.53882 0.41884 0.0
H170 H 0.96442 0.37895 0.40018 0.0
H171 H 0.89078 0.32103 0.41619 0.0
H172 H 0.93844 0.40265 0.46929 0.0
H173 H 0.01219 0.46004 0.45327 0.0
H174 H 0.10605 0.481 0.37926 0.0
H175 H 0.97363 0.47368 0.39396 0.0
O176 O 0.08304 0.44059 0.41464 0.0
H177 H 0.0961 0.49623 0.34546 0.0
H178 H 0.96384 0.49 0.36018 0.0
C179 C 0.077 0.52117 0.42627 0.0
C180 C 0.11966 0.53612 0.43621 0.0
C181 C 0.14215 0.58007 0.44565 0.0
C182 C 0.12236 0.60987 0.44531 0.0
C183 C 0.07895 0.59421 0.43568 0.0
C184 C 0.05642 0.55011 0.42625 0.0
C185 C 0.99313 0.42442 0.42537 0.0
C186 C 0.95869 0.3847 0.41518 0.0
C187 C 0.91664 0.35168 0.42434 0.0
C188 C 0.90871 0.35752 0.44396 0.0
C189 C 0.94364 0.39715 0.45418 0.0
C190 C 0.98561 0.43021 0.44498 0.0
C191 C 0.04007 0.47518 0.38898 0.0
C192 C 0.07473 0.48254 0.37518 0.0
C193 C 0.06923 0.49176 0.3559 0.0
C194 C 0.02913 0.4943 0.35012 0.0
C195 C -0.00523 0.4876 0.36411 0.0
C196 C 0.00035 0.47835 0.38341 0.0
P197 P 0.61766 0.05325 0.76285 0.0
H198 H 0.64623 0.13679 0.78751 0.0
H199 H 0.6026 0.17421 0.80014 0.0
H200 H 0.47448 0.06526 0.77261 0.0
H201 H 0.51819 0.02735 0.76046 0.0
H202 H 0.63454 0.97507 0.75434 0.0
H203 H 0.61418 0.90154 0.7716 0.0
H204 H 0.54992 0.9413 0.81742 0.0
H205 H 0.57044 0.01461 0.80022 0.0
H206 H 0.64528 0.11799 0.73044 0.0
H207 H 0.55233 0.96782 0.74019 0.0
O208 O 0.67602 0.09061 0.7648 0.0
H209 H 0.61717 0.10827 0.69691 0.0
H210 H 0.52535 0.95779 0.70649 0.0
C211 C 0.58555 0.07997 0.77276 0.0
C212 C 0.60878 0.12098 0.78422 0.0
C213 C 0.58382 0.14236 0.79136 0.0
C214 C 0.53524 0.12296 0.78715 0.0
C215 C 0.5118 0.08091 0.77615 0.0
C216 C 0.53681 0.0595 0.76907 0.0
C217 C 0.60283 -0.00043 0.7757 0.0
C218 C 0.6158 0.96775 0.76804 0.0
C219 C 0.60409 0.92582 0.77788 0.0
C220 C 0.58 0.91557 0.79573 0.0
C221 C 0.56847 0.94834 0.80368 0.0
C222 C 0.57987 0.99008 0.79375 0.0
C223 C 0.60203 0.04345 0.73761 0.0
C224 C 0.61973 0.08276 0.72522 0.0
C225 C 0.60339 0.07729 0.70618 0.0
C226 C 0.56926 0.03229 0.69922 0.0
C227 C 0.55209 0.99273 0.71153 0.0
C228 C 0.56783 -0.00159 0.73071 0.0
P229 P 0.42966 0.33802 0.09926 0.0
H230 H 0.47302 0.32368 0.13356 0.0
H231 H 0.55034 0.37255 0.14925 0.0
H232 H 0.58913 0.47922 0.10484 0.0
H233 H 0.51224 0.43071 0.08941 0.0
H234 H 0.32658 0.28442 0.10274 0.0
H235 H 0.26911 0.30578 0.11511 0.0
H236 H 0.38473 0.44343 0.13249 0.0
H237 H 0.44158 0.4215 0.1206 0.0
H238 H 0.43917 0.29281 0.06402 0.0
H239 H 0.42514 0.41431 0.07881 0.0
O240 O 0.41153 0.28036 0.10189 0.0
H241 H 0.44383 0.31319 0.02957 0.0
H242 H 0.43001 0.43486 0.04455 0.0
C243 C 0.48737 0.37294 0.11005 0.0
C244 C 0.49838 0.35743 0.12715 0.0
C245 C 0.54237 0.38544 0.13614 0.0
C246 C 0.57566 0.42973 0.12828 0.0
C247 C 0.56396 0.44555 0.11137 0.0
C248 C 0.52017 0.41743 0.10237 0.0
C249 C 0.38823 0.35098 0.11107 0.0
C250 C 0.33943 0.31872 0.10964 0.0
C251 C 0.3067 0.33115 0.11654 0.0
C252 C 0.32242 0.37631 0.12477 0.0
C253 C 0.37148 0.40808 0.12656 0.0
C254 C 0.40409 0.39555 0.11971 0.0
C255 C 0.43116 0.35165 0.07393 0.0
C256 C 0.43668 0.32357 0.05986 0.0
C257 C 0.43927 0.33519 0.04022 0.0
C258 C 0.4372 0.37555 0.03444 0.0
C259 C 0.43194 0.40371 0.04862 0.0
C260 C 0.42881 0.39176 0.06819 0.0
C261 C 0.17653 0.51001 0.13772 0.0
C262 C 0.13424 0.48395 0.14825 0.0
C263 C 0.20763 0.49244 0.13491 0.0
C264 C 0.19603 0.44771 0.14276 0.0
C265 C 0.15395 0.42167 0.15372 0.0
C266 C 0.12359 0.44014 0.15637 0.0
C267 C 0.25244 0.52129 0.12322 0.0
C268 C 0.14043 0.37376 0.16225 0.0
C269 C 0.25001 0.38184 0.11788 0.0
C270 C 0.28809 0.39173 0.13021 0.0
C271 C 0.21926 0.39918 0.122 0.0
C272 C 0.227 0.42729 0.1388 0.0
C273 C 0.26478 0.43666 0.15151 0.0
C274 C 0.29486 0.41865 0.14708 0.0
C275 C 0.17919 0.38835 0.10814 0.0
C276 C 0.27395 0.46644 0.16958 0.0
H277 H 0.18515 0.54396 0.13147 0.0
H278 H 0.09104 0.41973 0.16455 0.0
H279 H 0.28389 0.52734 0.13173 0.0
H280 H 0.25132 0.50135 0.10995 0.0
H281 H 0.25731 0.55633 0.11885 0.0
H282 H 0.10753 0.35902 0.17113 0.0
H283 H 0.13478 0.34819 0.15043 0.0
H284 H 0.16966 0.37664 0.17146 0.0
H285 H 0.24505 0.36173 0.10466 0.0
H286 H 0.32394 0.42592 0.15676 0.0
H287 H 0.18429 0.42191 0.10178 0.0
H288 H 0.14478 0.37145 0.116 0.0
H289 H 0.17691 0.36437 0.09614 0.0
H290 H 0.28205 0.50278 0.16555 0.0
H291 H 0.30403 0.46931 0.17823 0.0
H292 H 0.2417 0.4509 0.17884 0.0
C293 C 0.67859 0.12827 0.48315 0.0
C294 C 0.64862 0.13872 0.49416 0.0
C295 C 0.72254 0.16461 0.47637 0.0
C296 C 0.73677 0.21256 0.48062 0.0
C297 C 0.7076 0.22332 0.49234 0.0
C298 C 0.66389 0.18622 0.49904 0.0
C299 C 0.75292 0.15174 0.46404 0.0
C300 C 0.72163 0.27409 0.49714 0.0
C301 C 0.86626 0.30514 0.47228 0.0
C302 C 0.86449 0.32184 0.45376 0.0
C303 C 0.82483 0.27008 0.48139 0.0
C304 C 0.7807 0.25143 0.47172 0.0
C305 C 0.7786 0.26876 0.45317 0.0
C306 C 0.82055 0.30373 0.44441 0.0
C307 C 0.82841 0.25227 0.50114 0.0
C308 C 0.7321 0.24988 0.44246 0.0
H309 H 0.66726 0.09166 0.47943 0.0
H310 H 0.64098 0.19465 0.50754 0.0
H311 H 0.75533 0.16532 0.4491 0.0
H312 H 0.78958 0.16875 0.4699 0.0
H313 H 0.73841 0.11269 0.46326 0.0
H314 H 0.69666 0.27629 0.50754 0.0
H315 H 0.75792 0.29314 0.5034 0.0
H316 H 0.72237 0.293 0.48367 0.0
H317 H 0.90024 0.31869 0.47947 0.0
H318 H 0.81897 0.31704 0.43021 0.0
H319 H 0.81713 0.21394 0.50024 0.0
H320 H 0.80412 0.25572 0.51148 0.0
H321 H 0.86509 0.27192 0.50705 0.0
H322 H 0.71659 0.21127 0.4396 0.0
H323 H 0.73639 0.26822 0.42841 0.0
H324 H 0.70624 0.25422 0.4515 0.0
C325 C 0.56537 0.68349 0.83599 0.0
C326 C 0.52047 0.64898 0.84272 0.0
C327 C 0.57495 0.72938 0.83144 0.0
C328 C 0.5385 0.74076 0.83346 0.0
C329 C 0.49421 0.70719 0.84163 0.0
C330 C 0.48577 0.66156 0.84631 0.0
C331 C 0.62291 0.76439 0.82305 0.0
C332 C 0.45451 0.71809 0.84399 0.0
C333 C 0.57549 0.87039 0.82576 0.0
C334 C 0.56659 0.87053 0.80589 0.0
C335 C 0.56496 0.82803 0.83523 0.0
C336 C 0.5449 0.78504 0.82452 0.0
C337 C 0.53432 0.78483 0.8046 0.0
C338 C 0.54544 0.82763 0.79552 0.0
C339 C 0.57692 0.82958 0.85644 0.0
C340 C 0.51259 0.73961 0.7927 0.0
H341 H 0.59245 0.67394 0.83344 0.0
H342 H 0.45098 0.63486 0.85147 0.0
H343 H 0.6191 0.76903 0.80735 0.0
H344 H 0.63723 0.79973 0.83008 0.0
H345 H 0.64912 0.75227 0.82479 0.0
H346 H 0.42524 0.69135 0.85318 0.0
H347 H 0.46796 0.75388 0.85047 0.0
H348 H 0.43974 0.71823 0.82952 0.0
H349 H 0.59204 0.90363 0.83378 0.0
H350 H 0.53778 0.8276 0.78023 0.0
H351 H 0.60643 0.82207 0.85811 0.0
H352 H 0.546 0.80172 0.86454 0.0
H353 H 0.58781 0.86474 0.86312 0.0
H354 H 0.53778 0.72607 0.79177 0.0
H355 H 0.50367 0.74504 0.77775 0.0
H356 H 0.47976 0.71169 0.79979 0.0
C357 C 0.84751 0.5638 0.13178 0.0
C358 C 0.8697 0.56875 0.1497 0.0
C359 C 0.79937 0.54994 0.13075 0.0
C360 C 0.77293 0.54101 0.14811 0.0
C361 C 0.79651 0.55164 0.16622 0.0
C362 C 0.84494 0.56547 0.16683 0.0
C363 C 0.77583 0.53975 0.11109 0.0
C364 C 0.76976 0.54382 0.18501 0.0
C365 C 0.64536 0.50758 0.13861 0.0
C366 C 0.6238 0.45799 0.13675 0.0
C367 C 0.69335 0.53527 0.14389 0.0
C368 C 0.72031 0.51274 0.14707 0.0
C369 C 0.69782 0.46242 0.14646 0.0
C370 C 0.64977 0.43568 0.14135 0.0
C371 C 0.71575 0.58867 0.14486 0.0
C372 C 0.72528 0.43689 0.14975 0.0
H373 H 0.8669 0.56709 0.11851 0.0
H374 H 0.86206 0.56945 0.18073 0.0
H375 H 0.75337 0.5007 0.10906 0.0
H376 H 0.75234 0.55523 0.11001 0.0
H377 H 0.8022 0.5541 0.0991 0.0
H378 H 0.79408 0.56379 0.19717 0.0
H379 H 0.74257 0.55472 0.18371 0.0
H380 H 0.75106 0.5054 0.18864 0.0
H381 H 0.62506 0.52486 0.13537 0.0
H382 H 0.63331 0.3974 0.13983 0.0
H383 H 0.73617 0.60454 0.13136 0.0
H384 H 0.74092 0.60357 0.15719 0.0
H385 H 0.68858 0.59963 0.14634 0.0
H386 H 0.7509 0.445 0.1377 0.0
H387 H 0.70168 0.39769 0.15054 0.0
H388 H 0.74602 0.44933 0.16339 0.0
C389 C 0.2756 0.87959 0.4805 0.0
C390 C 0.29997 0.88052 0.49741 0.0
C391 C 0.23854 0.83655 0.47318 0.0
C392 C 0.22577 0.79362 0.483 0.0
C393 C 0.24656 0.79507 0.50117 0.0
C394 C 0.28333 0.83857 0.5082 0.0
C395 C 0.21647 0.83661 0.45397 0.0
C396 C 0.23362 0.75015 0.51221 0.0
C397 C 0.12356 0.67483 0.46569 0.0
C398 C 0.1479 0.65762 0.45451 0.0
C399 C 0.14812 0.71955 0.47482 0.0
C400 C 0.19805 0.74738 0.47274 0.0
C401 C 0.22256 0.73049 0.46117 0.0
C402 C 0.19718 0.68598 0.45217 0.0
C403 C 0.12084 0.73654 0.48697 0.0
C404 C 0.27584 0.75917 0.45848 0.0
H405 H 0.28758 0.91188 0.47219 0.0
H406 H 0.3013 0.83894 0.52146 0.0
H407 H 0.23198 0.82473 0.4424 0.0
H408 H 0.17758 0.81152 0.45416 0.0
H409 H 0.22308 0.87263 0.45018 0.0
H410 H 0.24679 0.75778 0.52739 0.0
H411 H 0.19457 0.72597 0.51244 0.0
H412 H 0.2496 0.73104 0.50487 0.0
H413 H 0.08547 0.65292 0.46763 0.0
H414 H 0.21601 0.67332 0.4432 0.0
H415 H 0.13032 0.77318 0.48276 0.0
H416 H 0.13055 0.73776 0.50245 0.0
H417 H 0.08179 0.71295 0.48554 0.0
H418 H 0.2861 0.79443 0.45221 0.0
H419 H 0.28932 0.74111 0.44882 0.0
H420 H 0.29378 0.76552 0.47274 0.0
C421 C 0.44839 0.27819 0.84082 0.0
C422 C 0.42935 0.29804 0.8282 0.0
C423 C 0.45511 0.24084 0.83476 0.0
C424 C 0.44239 0.22302 0.81565 0.0
C425 C 0.41775 0.23885 0.80374 0.0
C426 C 0.41145 0.27635 0.81018 0.0
C427 C 0.48085 0.22447 0.84805 0.0
C428 C 0.4027 0.21992 0.78342 0.0
C429 C 0.53189 0.19718 0.79201 0.0
C430 C 0.50977 0.14765 0.79365 0.0
C431 C 0.50955 0.22176 0.79865 0.0
C432 C 0.46367 0.19612 0.80703 0.0
C433 C 0.44033 0.14592 0.80814 0.0
C434 C 0.46378 0.1222 0.80148 0.0
C435 C 0.53567 0.2754 0.7971 0.0
C436 C 0.39133 0.11746 0.81686 0.0
H437 H 0.46135 0.29418 0.85495 0.0
H438 H 0.3962 0.29117 0.80042 0.0
H439 H 0.46445 0.18523 0.84755 0.0
H440 H 0.51828 0.24011 0.84317 0.0
H441 H 0.48093 0.2356 0.86331 0.0
H442 H 0.37553 0.22788 0.77773 0.0
H443 H 0.4341 0.23677 0.77368 0.0
H444 H 0.38824 0.18092 0.78288 0.0
H445 H 0.56693 0.21686 0.78554 0.0
H446 H 0.4466 0.08386 0.80283 0.0
H447 H 0.54191 0.29144 0.8118 0.0
H448 H 0.51386 0.287 0.789 0.0
H449 H 0.57052 0.2897 0.78967 0.0
H450 H 0.39348 0.12301 0.83279 0.0
H451 H 0.37529 0.07876 0.81395 0.0
H452 H 0.36737 0.12956 0.81111 0.0
C453 C 0.54229 0.87049 0.50534 0.0
C454 C 0.51442 0.88001 0.51811 0.0
C455 C 0.55685 0.83792 0.51027 0.0
C456 C 0.54379 0.815 0.5285 0.0
C457 C 0.51554 0.82432 0.5414 0.0
C458 C 0.50089 0.85645 0.53599 0.0
C459 C 0.5863 0.82814 0.49604 0.0
C460 C 0.50137 0.80091 0.56106 0.0
C461 C 0.54403 0.70019 0.53724 0.0
C462 C 0.587 0.71637 0.54725 0.0
C463 C 0.53026 0.73208 0.53051 0.0
C464 C 0.5597 0.78127 0.5342 0.0
C465 C 0.60331 0.798 0.5441 0.0
C466 C 0.61661 0.76536 0.55037 0.0
C467 C 0.48368 0.71302 0.51984 0.0
C468 C 0.63538 0.85026 0.54843 0.0
H469 H 0.55268 0.88844 0.49147 0.0
H470 H 0.47966 0.86389 0.54599 0.0
H471 H 0.62125 0.83816 0.50254 0.0
H472 H 0.56834 0.78954 0.49268 0.0
H473 H 0.59242 0.84802 0.48227 0.0
H474 H 0.47947 0.81223 0.56942 0.0
H475 H 0.48088 0.76167 0.55937 0.0
H476 H 0.53361 0.80976 0.56963 0.0
H477 H 0.52046 0.66239 0.53504 0.0
H478 H 0.6502 0.77825 0.5578 0.0
H479 H 0.48934 0.73179 0.50583 0.0
H480 H 0.4588 0.71964 0.52852 0.0
H481 H 0.4666 0.67421 0.51693 0.0
H482 H 0.64496 0.87107 0.53481 0.0
H483 H 0.66859 0.85756 0.55591 0.0
H484 H 0.61636 0.86324 0.55775 0.0
C485 C 0.68368 0.55969 0.82992 0.0
C486 C 0.6504 0.5223 0.84152 0.0
C487 C 0.73256 0.57756 0.83222 0.0
C488 C 0.74847 0.55773 0.84652 0.0
C489 C 0.71512 0.51922 0.85793 0.0
C490 C 0.66645 0.50186 0.85525 0.0
C491 C 0.76719 0.6184 0.81969 0.0
C492 C 0.73087 0.49722 0.87334 0.0
C493 C 0.8733 0.57681 0.84545 0.0
C494 C 0.89587 0.61227 0.85961 0.0
C495 C 0.82562 0.5597 0.84056 0.0
C496 C 0.80002 0.57837 0.85016 0.0
C497 C 0.82306 0.61524 0.86402 0.0
C498 C 0.87083 0.63184 0.86856 0.0
C499 C 0.80229 0.52071 0.82556 0.0
C500 C 0.79679 0.6359 0.8746 0.0
H501 H 0.67161 0.57554 0.8192 0.0
H502 H 0.64104 0.47297 0.86427 0.0
H503 H 0.78883 0.6502 0.82886 0.0
H504 H 0.79207 0.6093 0.81242 0.0
H505 H 0.74899 0.62786 0.80844 0.0
H506 H 0.70039 0.46641 0.8805 0.0
H507 H 0.75434 0.48515 0.86691 0.0
H508 H 0.7518 0.52421 0.88458 0.0
H509 H 0.89284 0.56205 0.83837 0.0
H510 H 0.88806 0.65888 0.87966 0.0
H511 H 0.78515 0.5311 0.81422 0.0
H512 H 0.77396 0.48788 0.83249 0.0
H513 H 0.82801 0.51239 0.81849 0.0
H514 H 0.77986 0.64851 0.86407 0.0
H515 H 0.82052 0.66605 0.88422 0.0
H516 H 0.76799 0.60793 0.88354 0.0
C517 C 0.1867 0.72091 0.1645 0.0
C518 C 0.13988 0.71097 0.16723 0.0
C519 C 0.22502 0.76176 0.17241 0.0
C520 C 0.21647 0.79428 0.18288 0.0
C521 C 0.16967 0.78635 0.1845 0.0
C522 C 0.13167 0.74427 0.17689 0.0
C523 C 0.27436 0.76849 0.17057 0.0
C524 C 0.15949 0.82116 0.19495 0.0
C525 C 0.3108 0.8573 0.22085 0.0
C526 C 0.34459 0.89654 0.21037 0.0
C527 C 0.26685 0.8253 0.21258 0.0
C528 C 0.25638 0.83363 0.19357 0.0
C529 C 0.28869 0.87582 0.18372 0.0
C530 C 0.33301 0.90649 0.19212 0.0
C531 C 0.23376 0.78034 0.22345 0.0
C532 C 0.27797 0.88677 0.16375 0.0
H533 H 0.19341 0.69539 0.15707 0.0
H534 H 0.09557 0.737 0.17887 0.0
H535 H 0.29891 0.80352 0.164 0.0
H536 H 0.28834 0.76796 0.18517 0.0
H537 H 0.27495 0.74036 0.16156 0.0
H538 H 0.12343 0.81491 0.19157 0.0
H539 H 0.16179 0.81742 0.21083 0.0
H540 H 0.18614 0.85831 0.19107 0.0
H541 H 0.32017 0.84977 0.23495 0.0
H542 H 0.3593 0.93723 0.18415 0.0
H543 H 0.23327 0.74951 0.21621 0.0
H544 H 0.19695 0.77395 0.22327 0.0
H545 H 0.24485 0.78163 0.23877 0.0
H546 H 0.28357 0.86485 0.15285 0.0
H547 H 0.30139 0.92483 0.15996 0.0
H548 H 0.24036 0.87788 0.16271 0.0
C549 C 0.44162 0.17495 0.49298 0.0
C550 C 0.43642 0.14659 0.50907 0.0
C551 C 0.45027 0.22156 0.49557 0.0
C552 C 0.45334 0.23936 0.51462 0.0
C553 C 0.44182 0.20844 0.53066 0.0
C554 C 0.43389 0.16245 0.52768 0.0
C555 C 0.4614 0.25317 0.47809 0.0
C556 C 0.44357 0.22556 0.5512 0.0
C557 C 0.55055 0.36184 0.52907 0.0
C558 C 0.52485 0.38479 0.5333 0.0
C559 C 0.52797 0.31558 0.52155 0.0
C560 C 0.47828 0.29139 0.5183 0.0
C561 C 0.45258 0.31537 0.52128 0.0
C562 C 0.47621 0.36188 0.52879 0.0
C563 C 0.5569 0.29143 0.51844 0.0
C564 C 0.39975 0.29107 0.51773 0.0
H565 H 0.44362 0.16257 0.47858 0.0
H566 H 0.42938 0.14011 0.54007 0.0
H567 H 0.44716 0.27765 0.47986 0.0
H568 H 0.50053 0.27523 0.47641 0.0
H569 H 0.44665 0.232 0.46461 0.0
H570 H 0.42663 0.19556 0.56161 0.0
H571 H 0.48119 0.24888 0.55557 0.0
H572 H 0.42558 0.24679 0.55228 0.0
H573 H 0.58798 0.37895 0.53267 0.0
H574 H 0.45628 0.37979 0.53165 0.0
H575 H 0.54986 0.27472 0.50386 0.0
H576 H 0.5465 0.26278 0.52931 0.0
H577 H 0.59569 0.31659 0.51982 0.0
H578 H 0.38968 0.26846 0.50453 0.0
H579 H 0.38747 0.31721 0.51619 0.0
H580 H 0.38071 0.26763 0.53019 0.0
C581 C 0.28117 0.44526 0.82136 0.0
C582 C 0.30117 0.44135 0.83873 0.0
C583 C 0.24592 0.45822 0.82161 0.0
C584 C 0.23086 0.46731 0.83961 0.0
C585 C 0.24688 0.45757 0.85712 0.0
C586 C 0.28189 0.44469 0.85644 0.0
C587 C 0.22855 0.46684 0.80265 0.0
C588 C 0.23127 0.46607 0.87665 0.0
C589 C 0.21268 0.57205 0.84703 0.0
C590 C 0.164 0.54944 0.85116 0.0
C591 C 0.23427 0.54568 0.84177 0.0
C592 C 0.20637 0.49544 0.84052 0.0
C593 C 0.15659 0.47272 0.84315 0.0
C594 C 0.13597 0.50002 0.84861 0.0
C595 C 0.28758 0.57143 0.83909 0.0
C596 C 0.12551 0.41944 0.84147 0.0
H597 H 0.29597 0.44254 0.80763 0.0
H598 H 0.29693 0.44093 0.86987 0.0
H599 H 0.19026 0.45558 0.80348 0.0
H600 H 0.24845 0.50545 0.79937 0.0
H601 H 0.23417 0.44766 0.79049 0.0
H602 H 0.24231 0.45114 0.88869 0.0
H603 H 0.2473 0.50492 0.87911 0.0
H604 H 0.19213 0.45006 0.87716 0.0
H605 H 0.23453 0.61017 0.84909 0.0
H606 H 0.09812 0.48252 0.85148 0.0
H607 H 0.29695 0.56012 0.82539 0.0
H608 H 0.30404 0.56228 0.85116 0.0
H609 H 0.30339 0.61069 0.83883 0.0
H610 H 0.1373 0.40527 0.82934 0.0
H611 H 0.08764 0.40877 0.83922 0.0
H612 H 0.12803 0.40259 0.85502 0.0
C613 C 0.82816 0.35959 0.14865 0.0
C614 C 0.87376 0.36628 0.1515 0.0
C615 C 0.78786 0.31835 0.1554 0.0
C616 C 0.79359 0.28299 0.16488 0.0
C617 C 0.8392 0.28777 0.16615 0.0
C618 C 0.87884 0.32963 0.15959 0.0
C619 C 0.73986 0.3147 0.15387 0.0
C620 C 0.84666 0.25038 0.17579 0.0
C621 C 0.71232 0.21238 0.20625 0.0
C622 C 0.68331 0.16816 0.19747 0.0
C623 C 0.74712 0.25061 0.19555 0.0
C624 C 0.75341 0.24414 0.17565 0.0
C625 C 0.72349 0.19983 0.1666 0.0
C626 C 0.68855 0.16233 0.17762 0.0
C627 C 0.778 0.29759 0.20566 0.0
C628 C 0.72951 0.19156 0.14548 0.0
H629 H 0.8242 0.38808 0.14252 0.0
H630 H 0.91412 0.33468 0.16166 0.0
H631 H 0.71214 0.27825 0.14958 0.0
H632 H 0.72973 0.32232 0.16825 0.0
H633 H 0.7401 0.34042 0.14324 0.0
H634 H 0.88303 0.25643 0.17326 0.0
H635 H 0.84117 0.2509 0.19165 0.0
H636 H 0.82048 0.21439 0.17038 0.0
H637 H 0.70784 0.21697 0.22155 0.0
H638 H 0.66632 0.12794 0.17087 0.0
H639 H 0.77738 0.32678 0.19763 0.0
H640 H 0.81537 0.30548 0.20591 0.0
H641 H 0.7664 0.29765 0.22083 0.0
H642 H 0.72947 0.21962 0.13639 0.0
H643 H 0.70106 0.15627 0.14027 0.0
H644 H 0.76435 0.19371 0.14333 0.0
C645 C -0.00429 0.54265 0.06518 0.0
C646 C 0.03341 0.56734 0.07823 0.0
C647 C 0.00171 0.55277 0.04526 0.0
C648 C 0.04638 0.58857 0.03823 0.0
C649 C 0.08464 0.61338 0.05128 0.0
C650 C 0.07774 0.60239 0.07109 0.0
C651 C 0.96017 0.52539 0.03175 0.0
C652 C 0.13276 0.65193 0.04433 0.0
C653 C 0.07585 0.5896 0.98485 0.0
C654 C 0.0668 0.62449 0.97756 0.0
C655 C 0.06904 0.57728 0.00455 0.0
C656 C 0.05302 0.60062 0.01726 0.0
C657 C 0.04391 0.63595 0.01 0.0
C658 C 0.05081 0.64738 0.99022 0.0
C659 C 0.07884 0.53923 0.01175 0.0
C660 C 0.02717 0.66189 0.02314 0.0
H661 H 0.96137 0.51545 0.07053 0.0
H662 H 0.10711 0.62175 0.08102 0.0
H663 H 0.95114 0.55019 0.02446 0.0
H664 H 0.96981 0.50776 0.02025 0.0
H665 H 0.92809 0.49789 0.03945 0.0
H666 H 0.15897 0.66755 0.05632 0.0
H667 H 0.14685 0.63738 0.03324 0.0
H668 H 0.1294 0.68079 0.03734 0.0
H669 H 0.08762 0.57138 0.97506 0.0
H670 H 0.04427 0.67474 0.98468 0.0
H671 H 0.04634 0.50991 0.01848 0.0
H672 H 0.10671 0.5541 0.02311 0.0
H673 H 0.0907 0.52419 -5e-05 0.0
H674 H 0.99342 0.63607 0.03032 0.0
H675 H 0.0214 0.68821 0.01518 0.0
H676 H 0.05373 0.68076 0.03474 0.0
C677 C 0.50786 0.98648 0.42202 0.0
C678 C 0.47984 0.00331 0.43055 0.0
C679 C 0.51376 0.98709 0.40188 0.0
C680 C 0.49114 0.00501 0.38991 0.0
C681 C 0.46232 0.02153 0.39833 0.0
C682 C 0.45694 0.02043 0.41858 0.0
C683 C 0.54459 0.96891 0.39343 0.0
C684 C 0.43764 0.04083 0.38597 0.0
C685 C 0.54563 0.04556 0.33997 0.0
C686 C 0.5163 0.00554 0.32862 0.0
C687 C 0.53697 0.0465 0.35987 0.0
C688 C 0.49804 0.00645 0.36857 0.0
C689 C 0.46752 0.96651 0.35708 0.0
C690 C 0.47701 0.96655 0.33724 0.0
C691 C 0.57033 0.0897 0.37169 0.0
C692 C 0.42558 0.92322 0.36583 0.0
H693 H 0.52562 0.97303 0.43109 0.0
H694 H 0.43529 0.03357 0.42502 0.0
H695 H 0.52373 0.93959 0.38303 0.0
H696 H 0.57461 -0.00227 0.38526 0.0
H697 H 0.55929 0.95566 0.40474 0.0
H698 H 0.41577 0.05149 0.39473 0.0
H699 H 0.46436 0.07223 0.37774 0.0
H700 H 0.41435 0.01368 0.37521 0.0
H701 H 0.57619 0.07565 0.3334 0.0
H702 H 0.45369 0.93589 0.32845 0.0
H703 H 0.5894 0.0799 0.38237 0.0
H704 H 0.54999 0.1029 0.38 0.0
H705 H 0.59702 0.11907 0.36253 0.0
H706 H 0.4383 0.90648 0.37642 0.0
H707 H 0.40373 0.89626 0.35471 0.0
H708 H 0.40262 0.93368 0.37386 0.0
C709 C 0.50744 0.53159 0.75512 0.0
C710 C 0.48374 0.48665 0.76382 0.0
C711 C 0.51676 0.53637 0.73516 0.0
C712 C 0.50331 0.49525 0.72373 0.0
C713 C 0.47839 0.44965 0.73237 0.0
C714 C 0.4683 0.44586 0.75232 0.0
C715 C 0.54222 0.58555 0.7264 0.0
C716 C 0.46448 0.40507 0.72076 0.0
C717 C 0.50374 0.50779 0.66897 0.0
C718 C 0.54961 0.51711 0.66411 0.0
C719 C 0.48789 0.50008 0.68828 0.0
C720 C 0.51813 0.50043 0.70306 0.0
C721 C 0.56374 0.5081 0.69822 0.0
C722 C 0.57915 0.51697 0.67888 0.0
C723 C 0.4393 0.49281 0.69294 0.0
C724 C 0.59678 0.50798 0.71353 0.0
H725 H 0.51905 0.56314 0.764 0.0
H726 H 0.45033 0.41109 0.75908 0.0
H727 H 0.5781 0.59407 0.72143 0.0
H728 H 0.52261 0.58698 0.71353 0.0
H729 H 0.54623 0.61338 0.73688 0.0
H730 H 0.44273 0.37225 0.72935 0.0
H731 H 0.44414 0.40387 0.70769 0.0
H732 H 0.49698 0.40525 0.71569 0.0
H733 H 0.48012 0.50673 0.65769 0.0
H734 H 0.61491 0.52491 0.67547 0.0
H735 H 0.44291 0.52174 0.70266 0.0
H736 H 0.41781 0.4588 0.70077 0.0
H737 H 0.41966 0.49243 0.67972 0.0
H738 H 0.60751 0.53849 0.72355 0.0
H739 H 0.62938 0.51048 0.70718 0.0
H740 H 0.57831 0.47502 0.7223 0.0
C741 C 0.45442 0.9891 0.59264 0.0
C742 C 0.48981 0.0211 0.57999 0.0
C743 C 0.46354 0.9893 0.61255 0.0
C744 C 0.50935 0.0216 0.61983 0.0
C745 C 0.54502 0.05418 0.60715 0.0
C746 C 0.53468 0.05383 0.58744 0.0
C747 C 0.42438 0.95475 0.62575 0.0
C748 C 0.59453 0.08873 0.61432 0.0
C749 C 0.53247 0.05547 0.67297 0.0
C750 C 0.55091 0.02707 0.67927 0.0
C751 C 0.51676 0.05251 0.65384 0.0
C752 C 0.52063 0.02113 0.64065 0.0
C753 C 0.53844 0.99171 0.64707 0.0
C754 C 0.55295 0.9947 0.66641 0.0
C755 C 0.4971 0.08374 0.64763 0.0
C756 C 0.5439 0.95845 0.63334 0.0
H757 H 0.41962 0.96385 0.58698 0.0
H758 H 0.56236 0.07843 0.57775 0.0
H759 H 0.43451 0.92994 0.63224 0.0
H760 H 0.41913 0.97424 0.63786 0.0
H761 H 0.39011 0.93358 0.61798 0.0
H762 H 0.61824 0.11164 0.60254 0.0
H763 H 0.59302 0.11193 0.62581 0.0
H764 H 0.61056 0.06891 0.62085 0.0
H765 H 0.53044 0.0801 0.68305 0.0
H766 H 0.56742 0.97292 0.67134 0.0
H767 H 0.46221 0.06204 0.6404 0.0
H768 H 0.5214 0.11029 0.63694 0.0
H769 H 0.4926 0.10303 0.66004 0.0
H770 H 0.50957 0.93436 0.62613 0.0
H771 H 0.5564 0.93652 0.64081 0.0
H772 H 0.56981 0.97935 0.62179 0.0
C773 C 0.43243 0.45471 0.92489 0.0
C774 C 0.46416 0.44783 0.91341 0.0
C775 C 0.42734 0.44397 0.94476 0.0
C776 C 0.45513 0.42662 0.95336 0.0
C777 C 0.48797 0.42066 0.94194 0.0
C778 C 0.49186 0.43102 0.92209 0.0
C779 C 0.3916 0.4503 0.95647 0.0
C780 C 0.51874 0.4029 0.95065 0.0
C781 C 0.47258 0.43562 0.00792 0.0
C782 C 0.44119 0.38874 0.01371 0.0
C783 C 0.47725 0.44858 0.98832 0.0
C784 C 0.44944 0.41389 0.97425 0.0
C785 C 0.4172 0.36663 0.98006 0.0
C786 C 0.41371 0.35453 -0.00026 0.0
C787 C 0.51251 0.49914 0.98263 0.0
C788 C 0.38656 0.32881 0.96549 0.0
H789 H 0.41075 0.46745 0.91826 0.0
H790 H 0.51672 0.42594 0.91334 0.0
H791 H 0.36456 0.41561 0.96262 0.0
H792 H 0.40947 0.47476 0.96884 0.0
H793 H 0.37318 0.46472 0.94766 0.0
H794 H 0.54376 0.40189 0.93991 0.0
H795 H 0.53959 0.4261 0.96293 0.0
H796 H 0.49605 0.36655 0.95651 0.0
H797 H 0.49419 0.46199 0.01871 0.0
H798 H 0.38907 0.31839 0.00425 0.0
H799 H 0.49425 0.51491 0.97463 0.0
H800 H 0.53967 0.49953 0.97274 0.0
H801 H 0.53084 0.52199 0.99539 0.0
H802 H 0.36522 0.34048 0.95707 0.0
H803 H 0.36204 0.29422 0.97247 0.0
H804 H 0.40935 0.32334 0.95502 0.0
C805 C -0.00342 0.55368 0.23962 0.0
C806 C 0.00537 0.52412 0.22749 0.0
C807 C -0.00164 0.55079 0.2599 0.0
C808 C 0.00943 0.51778 0.26821 0.0
C809 C 0.01795 0.48763 0.25607 0.0
C810 C 0.0157 0.49108 0.2359 0.0
C811 C 0.98878 0.58329 0.27242 0.0
C812 C 0.03007 0.45209 0.26438 0.0
C813 C 0.06205 0.53666 0.31866 0.0
C814 C 0.02305 0.50314 0.32949 0.0
C815 C 0.05771 0.54293 0.29882 0.0
C816 C 0.01323 0.51515 0.28959 0.0
C817 C 0.97331 0.4825 0.30057 0.0
C818 C 0.97872 0.47681 0.32039 0.0
C819 C 0.1011 0.57818 0.28761 0.0
C820 C 0.92529 0.45231 0.29124 0.0
H821 H 0.98844 0.57922 0.23328 0.0
H822 H 0.0226 0.46808 0.22671 0.0
H823 H 0.95931 0.56197 0.28266 0.0
H824 H 0.02065 0.60659 0.28125 0.0
H825 H 0.97935 0.60605 0.26373 0.0
H826 H 0.03505 0.43078 0.25295 0.0
H827 H 0.06323 0.4709 0.27302 0.0
H828 H 0.00145 0.42742 0.27431 0.0
H829 H 0.0962 0.55774 0.32569 0.0
H830 H 0.94852 0.45056 0.32862 0.0
H831 H 0.09357 0.60321 0.27962 0.0
H832 H 0.11047 0.55904 0.2767 0.0
H833 H 0.13234 0.59904 0.29715 0.0
H834 H 0.91513 0.47497 0.28291 0.0
H835 H 0.89704 0.4316 0.30206 0.0
H836 H 0.92699 0.42707 0.28083 0.0
loop_
_geom_bond_atom_site_label_1
_geom_bond_atom_site_label_2
_geom_bond_distance
_geom_bond_site_symmetry_2
_ccdc_geom_bond_type
O0 Zn1 1.954 1_655 S
O0 C16 1.221 1_655 S
Zn1 O0 1.954 1_455 S
Zn1 O2 1.949 . S
Zn1 O8 1.919 1_455 S
Zn1 O13 1.924 . S
O2 Zn1 1.949 . S
O2 Zn3 1.923 1_455 S
O2 Zn4 1.950 . S
O2 Zn5 1.945 . S
Zn3 O2 1.923 1_655 S
Zn3 O6 1.933 . S
Zn3 O9 1.941 . S
Zn3 O10 1.965 . S
Zn4 O2 1.950 . S
Zn4 O11 1.938 1_455 S
Zn4 O12 1.906 . S
Zn4 O22 1.953 . S
Zn5 O2 1.945 . S
Zn5 O7 1.932 . S
Zn5 O14 1.977 . S
Zn5 O15 1.910 . S
O6 Zn3 1.933 . S
O6 C17 1.226 1_655 S
O7 Zn5 1.932 . S
O7 C17 1.307 . S
O8 Zn1 1.919 1_655 S
O8 C19 1.253 . S
O9 Zn3 1.941 . S
O9 C19 1.283 . S
O10 Zn3 1.965 . S
O10 C18 1.303 . S
O11 Zn4 1.938 1_655 S
O11 C18 1.247 . S
O12 Zn4 1.906 . S
O12 C20 1.304 . S
O13 Zn1 1.924 . S
O13 C21 1.311 . S
O14 Zn5 1.977 . S
O14 C20 1.272 . S
O15 Zn5 1.910 . S
O15 C21 1.231 . S
C16 O0 1.221 1_455 S
C16 O22 1.298 . S
C17 O6 1.226 1_455 S
C17 O7 1.307 . S
C18 O10 1.303 . S
C18 O11 1.247 . S
C19 O8 1.253 . S
C19 O9 1.283 . S
C20 O12 1.304 . S
C20 O14 1.272 . S
C21 O13 1.311 . S
C21 O15 1.231 . S
O22 Zn4 1.953 . S
O22 C16 1.298 . S
O23 Zn24 1.953 . S
O23 C39 1.225 . S
Zn24 O23 1.953 . S
Zn24 O25 1.949 . S
Zn24 O31 1.919 . S
Zn24 O36 1.924 1_545 S
O25 Zn24 1.949 . S
O25 Zn26 1.923 . S
O25 Zn27 1.950 . S
O25 Zn28 1.945 1_545 S
Zn26 O25 1.923 . S
Zn26 O29 1.933 . S
Zn26 O32 1.941 . S
Zn26 O33 1.965 . S
Zn27 O25 1.950 . S
Zn27 O34 1.938 . S
Zn27 O35 1.906 1_545 S
Zn27 O45 1.951 . S
Zn28 O25 1.945 1_565 S
Zn28 O30 1.932 . S
Zn28 O37 1.977 . S
Zn28 O38 1.910 . S
O29 Zn26 1.933 . S
O29 C40 1.226 . S
O30 Zn28 1.932 . S
O30 C40 1.307 1_565 S
O31 Zn24 1.919 . S
O31 C42 1.253 . S
O32 Zn26 1.941 . S
O32 C42 1.283 . S
O33 Zn26 1.965 . S
O33 C41 1.303 . S
O34 Zn27 1.938 . S
O34 C41 1.247 . S
O35 Zn27 1.906 1_565 S
O35 C43 1.304 . S
O36 Zn24 1.924 1_565 S
O36 C44 1.311 . S
O37 Zn28 1.977 . S
O37 C43 1.272 . S
O38 Zn28 1.910 . S
O38 C44 1.231 . S
C39 O23 1.225 . S
C39 O45 1.316 . S
C40 O29 1.226 . S
C40 O30 1.307 1_545 S
C41 O33 1.303 . S
C41 O34 1.247 . S
C42 O31 1.253 . S
C42 O32 1.283 . S
C43 O35 1.304 . S
C43 O37 1.272 . S
C44 O36 1.311 . S
C44 O38 1.231 . S
O45 Zn27 1.951 . S
O45 C39 1.316 . S
O46 Zn47 1.953 . S
O46 C62 1.225 . S
Zn47 O46 1.953 . S
Zn47 O48 1.949 . S
Zn47 O54 1.919 . S
Zn47 O59 1.924 . S
O48 Zn47 1.949 . S
O48 Zn49 1.923 . S
O48 Zn50 1.950 . S
O48 Zn51 1.945 . S
Zn49 O48 1.923 . S
Zn49 O52 1.933 . S
Zn49 O55 1.941 . S
Zn49 O56 1.965 . S
Zn50 O48 1.950 . S
Zn50 O57 1.938 . S
Zn50 O58 1.906 . S
Zn50 O68 1.953 . S
Zn51 O48 1.945 . S
Zn51 O53 1.932 . S
Zn51 O60 1.977 . S
Zn51 O61 1.910 . S
O52 Zn49 1.933 . S
O52 C63 1.226 . S
O53 Zn51 1.932 . S
O53 C63 1.307 . S
O54 Zn47 1.919 . S
O54 C65 1.253 . S
O55 Zn49 1.941 . S
O55 C65 1.283 . S
O56 Zn49 1.965 . S
O56 C64 1.303 . S
O57 Zn50 1.938 . S
O57 C64 1.247 . S
O58 Zn50 1.906 . S
O58 C66 1.304 . S
O59 Zn47 1.924 . S
O59 C67 1.311 . S
O60 Zn51 1.977 . S
O60 C66 1.272 . S
O61 Zn51 1.910 . S
O61 C67 1.231 . S
C62 O46 1.225 . S
C62 O68 1.298 . S
C63 O52 1.226 . S
C63 O53 1.307 . S
C64 O56 1.303 . S
C64 O57 1.247 . S
C65 O54 1.253 . S
C65 O55 1.283 . S
C66 O58 1.304 . S
C66 O60 1.272 . S
C67 O59 1.311 . S
C67 O61 1.231 . S
O68 Zn50 1.953 . S
O68 C62 1.298 . S
P69 O80 1.490 . S
P69 C83 1.812 . S
P69 C89 1.803 1_565 S
P69 C95 1.819 1_565 S
H70 C84 0.941 . S
H71 C85 0.939 . S
H72 C87 0.940 . S
H73 C88 0.940 . S
H74 C90 0.939 . S
H75 C91 0.942 . S
H76 C93 0.940 . S
H77 C94 0.939 . S
H78 C96 0.941 . S
H79 C100 0.939 . S
O80 P69 1.490 . S
H81 C97 0.939 . S
H82 C99 0.940 . S
C83 P69 1.812 . S
C83 C84 1.389 . S
C83 C88 1.391 . S
C84 H70 0.941 . S
C84 C83 1.389 . S
C84 C85 1.397 . S
C85 H71 0.939 . S
C85 C84 1.397 . S
C85 C86 1.378 . S
C86 C85 1.378 . S
C86 C87 1.378 . S
C87 H72 0.940 . S
C87 C86 1.378 . S
C87 C88 1.396 . S
C88 H73 0.940 . S
C88 C83 1.391 . S
C88 C87 1.396 . S
C89 P69 1.803 1_545 S
C89 C90 1.378 . S
C89 C94 1.400 . S
C90 H74 0.939 . S
C90 C89 1.378 . S
C90 C91 1.361 . S
C91 H75 0.942 . S
C91 C90 1.361 . S
C91 C92 1.369 . S
C92 C91 1.369 . S
C92 C93 1.404 . S
C93 H76 0.940 . S
C93 C92 1.404 . S
C93 C94 1.389 . S
C94 H77 0.939 . S
C94 C89 1.400 . S
C94 C93 1.389 . S
C95 P69 1.819 1_545 S
C95 C96 1.391 1_545 S
C95 C100 1.391 . S
C96 H78 0.941 . S
C96 C95 1.391 1_565 S
C96 C97 1.396 . S
C97 H81 0.939 . S
C97 C96 1.396 . S
C97 C98 1.397 1_565 S
C98 C97 1.397 1_545 S
C98 C99 1.385 . S
C99 H82 0.940 . S
C99 C98 1.385 . S
C99 C100 1.388 . S
C100 H79 0.939 . S
C100 C95 1.391 . S
C100 C99 1.388 . S
P101 O112 1.490 . S
P101 C115 1.812 . S
P101 C121 1.803 . S
P101 C127 1.819 . S
H102 C116 0.941 . S
H103 C117 0.939 . S
H104 C119 0.940 . S
H105 C120 0.940 . S
H106 C122 0.939 . S
H107 C123 0.942 . S
H108 C125 0.940 . S
H109 C126 0.939 . S
H110 C128 0.941 . S
H111 C132 0.939 . S
O112 P101 1.490 . S
H113 C129 0.939 . S
H114 C131 0.940 . S
C115 P101 1.812 . S
C115 C116 1.389 . S
C115 C120 1.391 . S
C116 H102 0.941 . S
C116 C115 1.389 . S
C116 C117 1.397 . S
C117 H103 0.939 . S
C117 C116 1.397 . S
C117 C118 1.378 . S
C118 C117 1.378 . S
C118 C119 1.378 . S
C119 H104 0.940 . S
C119 C118 1.378 . S
C119 C120 1.396 . S
C120 H105 0.940 . S
C120 C115 1.391 . S
C120 C119 1.396 . S
C121 P101 1.803 . S
C121 C122 1.378 . S
C121 C126 1.400 . S
C122 H106 0.939 . S
C122 C121 1.378 . S
C122 C123 1.361 . S
C123 H107 0.942 . S
C123 C122 1.361 . S
C123 C124 1.369 . S
C124 C123 1.369 . S
C124 C125 1.404 . S
C125 H108 0.940 . S
C125 C124 1.404 . S
C125 C126 1.389 . S
C126 H109 0.939 . S
C126 C121 1.400 . S
C126 C125 1.389 . S
C127 P101 1.819 . S
C127 C128 1.391 . S
C127 C132 1.391 . S
C128 H110 0.941 . S
C128 C127 1.391 . S
C128 C129 1.396 . S
C129 H113 0.939 . S
C129 C128 1.396 . S
C129 C130 1.397 . S
C130 C129 1.397 . S
C130 C131 1.385 . S
C131 H114 0.940 . S
C131 C130 1.385 . S
C131 C132 1.388 . S
C132 H111 0.939 . S
C132 C127 1.391 . S
C132 C131 1.388 . S
P133 O144 1.490 . S
P133 C147 1.812 . S
P133 C153 1.791 1_455 S
P133 C159 1.819 . S
H134 C148 0.941 . S
H135 C149 0.939 . S
H136 C151 0.940 . S
H137 C152 0.940 . S
H138 C154 0.939 . S
H139 C155 0.942 . S
H140 C157 0.940 . S
H141 C158 0.939 . S
H142 C160 0.941 . S
H143 C164 0.939 . S
O144 P133 1.490 . S
H145 C161 0.939 . S
H146 C163 0.940 . S
C147 P133 1.812 . S
C147 C148 1.389 . S
C147 C152 1.391 . S
C148 H134 0.941 . S
C148 C147 1.389 . S
C148 C149 1.397 . S
C149 H135 0.939 . S
C149 C148 1.397 . S
C149 C150 1.378 . S
C150 C149 1.378 . S
C150 C151 1.378 . S
C151 H136 0.940 . S
C151 C150 1.378 . S
C151 C152 1.396 . S
C152 H137 0.940 . S
C152 C147 1.391 . S
C152 C151 1.396 . S
C153 P133 1.791 1_655 S
C153 C154 1.392 . S
C153 C158 1.400 . S
C154 H138 0.939 . S
C154 C153 1.392 . S
C154 C155 1.361 . S
C155 H139 0.942 . S
C155 C154 1.361 . S
C155 C156 1.369 . S
C156 C155 1.369 . S
C156 C157 1.404 . S
C157 H140 0.940 . S
C157 C156 1.404 . S
C157 C158 1.389 . S
C158 H141 0.939 . S
C158 C153 1.400 . S
C158 C157 1.389 . S
C159 P133 1.819 . S
C159 C160 1.391 . S
C159 C164 1.391 1_455 S
C160 H142 0.941 . S
C160 C159 1.391 . S
C160 C161 1.396 . S
C161 H145 0.939 . S
C161 C160 1.396 . S
C161 C162 1.397 . S
C162 C161 1.397 . S
C162 C163 1.385 1_455 S
C163 H146 0.940 . S
C163 C162 1.385 1_655 S
C163 C164 1.388 . S
C164 H143 0.939 . S
C164 C159 1.391 1_655 S
C164 C163 1.388 . S
P165 O176 1.490 . S
P165 C179 1.812 . S
P165 C185 1.803 1_455 S
P165 C191 1.819 . S
H166 C180 0.941 . S
H167 C181 0.939 . S
H168 C183 0.940 . S
H169 C184 0.940 . S
H170 C186 0.939 . S
H171 C187 0.942 . S
H172 C189 0.940 . S
H173 C190 0.939 . S
H174 C192 0.941 . S
H175 C196 0.939 . S
O176 P165 1.490 . S
H177 C193 0.939 . S
H178 C195 0.940 . S
C179 P165 1.812 . S
C179 C180 1.389 . S
C179 C184 1.391 . S
C180 H166 0.941 . S
C180 C179 1.389 . S
C180 C181 1.397 . S
C181 H167 0.939 . S
C181 C180 1.397 . S
C181 C182 1.378 . S
C182 C181 1.378 . S
C182 C183 1.378 . S
C183 H168 0.940 . S
C183 C182 1.378 . S
C183 C184 1.396 . S
C184 H169 0.940 . S
C184 C179 1.391 . S
C184 C183 1.396 . S
C185 P165 1.803 1_655 S
C185 C186 1.378 . S
C185 C190 1.400 . S
C186 H170 0.939 . S
C186 C185 1.378 . S
C186 C187 1.361 . S
C187 H171 0.942 . S
C187 C186 1.361 . S
C187 C188 1.369 . S
C188 C187 1.369 . S
C188 C189 1.404 . S
C189 H172 0.940 . S
C189 C188 1.404 . S
C189 C190 1.389 . S
C190 H173 0.939 . S
C190 C185 1.400 . S
C190 C189 1.389 . S
C191 P165 1.819 . S
C191 C192 1.391 . S
C191 C196 1.391 1_455 S
C192 H174 0.941 . S
C192 C191 1.391 . S
C192 C193 1.396 . S
C193 H177 0.939 . S
C193 C192 1.396 . S
C193 C194 1.397 . S
C194 C193 1.397 . S
C194 C195 1.385 1_455 S
C195 H178 0.940 . S
C195 C194 1.385 1_655 S
C195 C196 1.388 . S
C196 H175 0.939 . S
C196 C191 1.391 1_655 S
C196 C195 1.388 . S
P197 O208 1.490 . S
P197 C211 1.812 . S
P197 C217 1.803 1_545 S
P197 C223 1.819 . S
H198 C212 0.941 . S
H199 C213 0.939 . S
H200 C215 0.940 . S
H201 C216 0.940 . S
H202 C218 0.939 . S
H203 C219 0.942 . S
H204 C221 0.940 . S
H205 C222 0.939 . S
H206 C224 0.941 . S
H207 C228 0.939 . S
O208 P197 1.490 . S
H209 C225 0.939 . S
H210 C227 0.940 . S
C211 P197 1.812 . S
C211 C212 1.389 . S
C211 C216 1.391 . S
C212 H198 0.941 . S
C212 C211 1.389 . S
C212 C213 1.397 . S
C213 H199 0.939 . S
C213 C212 1.397 . S
C213 C214 1.378 . S
C214 C213 1.378 . S
C214 C215 1.378 . S
C215 H200 0.940 . S
C215 C214 1.378 . S
C215 C216 1.396 . S
C216 H201 0.940 . S
C216 C211 1.391 . S
C216 C215 1.396 . S
C217 P197 1.803 1_565 S
C217 C218 1.378 . S
C217 C222 1.400 . S
C218 H202 0.939 . S
C218 C217 1.378 . S
C218 C219 1.361 . S
C219 H203 0.942 . S
C219 C218 1.361 . S
C219 C220 1.369 . S
C220 C219 1.369 . S
C220 C221 1.404 . S
C221 H204 0.940 . S
C221 C220 1.404 . S
C221 C222 1.389 . S
C222 H205 0.939 . S
C222 C217 1.400 . S
C222 C221 1.389 . S
C223 P197 1.819 . S
C223 C224 1.391 . S
C223 C228 1.391 1_545 S
C224 H206 0.941 . S
C224 C223 1.391 . S
C224 C225 1.396 . S
C225 H209 0.939 . S
C225 C224 1.396 . S
C225 C226 1.397 . S
C226 C225 1.397 . S
C226 C227 1.385 1_545 S
C227 H210 0.940 . S
C227 C226 1.385 1_565 S
C227 C228 1.388 . S
C228 H207 0.939 . S
C228 C223 1.391 1_565 S
C228 C227 1.388 . S
P229 O240 1.490 . S
P229 C243 1.812 . S
P229 C249 1.803 . S
P229 C255 1.819 . S
H230 C244 0.941 . S
H231 C245 0.939 . S
H232 C247 0.940 . S
H233 C248 0.940 . S
H234 C250 0.939 . S
H235 C251 0.942 . S
H236 C253 0.940 . S
H237 C254 0.939 . S
H238 C256 0.941 . S
H239 C260 0.939 . S
O240 P229 1.490 . S
H241 C257 0.939 . S
H242 C259 0.940 . S
C243 P229 1.812 . S
C243 C244 1.389 . S
C243 C248 1.391 . S
C244 H230 0.941 . S
C244 C243 1.389 . S
C244 C245 1.397 . S
C245 H231 0.939 . S
C245 C244 1.397 . S
C245 C246 1.378 . S
C246 C245 1.378 . S
C246 C247 1.378 . S
C247 H232 0.940 . S
C247 C246 1.378 . S
C247 C248 1.396 . S
C248 H233 0.940 . S
C248 C243 1.391 . S
C248 C247 1.396 . S
C249 P229 1.803 . S
C249 C250 1.378 . S
C249 C254 1.400 . S
C250 H234 0.939 . S
C250 C249 1.378 . S
C250 C251 1.361 . S
C251 H235 0.942 . S
C251 C250 1.361 . S
C251 C252 1.369 . S
C252 C251 1.369 . S
C252 C253 1.404 . S
C253 H236 0.940 . S
C253 C252 1.404 . S
C253 C254 1.389 . S
C254 H237 0.939 . S
C254 C249 1.400 . S
C254 C253 1.389 . S
C255 P229 1.819 . S
C255 C256 1.391 . S
C255 C260 1.391 . S
C256 H238 0.941 . S
C256 C255 1.391 . S
C256 C257 1.396 . S
C257 H241 0.939 . S
C257 C256 1.396 . S
C257 C258 1.397 . S
C258 C257 1.397 . S
C258 C259 1.385 . S
C259 H242 0.940 . S
C259 C258 1.385 . S
C259 C260 1.388 . S
C260 H239 0.939 . S
C260 C255 1.391 . S
C260 C259 1.388 . S
C261 C262 1.391 . S
C261 C263 1.394 . S
C261 H277 0.931 . S
C262 C261 1.391 . S
C262 C266 1.376 . S
C263 C261 1.394 . S
C263 C264 1.369 . S
C263 C267 1.531 . S
C264 C263 1.369 . S
C264 C265 1.410 . S
C264 C272 1.503 . S
C265 C264 1.410 . S
C265 C266 1.392 . S
C265 C268 1.511 . S
C266 C262 1.376 . S
C266 C265 1.392 . S
C266 H278 0.929 . S
C267 C263 1.531 . S
C267 H279 0.960 . S
C267 H280 0.962 . S
C267 H281 0.960 . S
C268 C265 1.511 . S
C268 H282 0.961 . S
C268 H283 0.961 . S
C268 H284 0.961 . S
C269 C270 1.370 . S
C269 C271 1.363 . S
C269 H285 0.931 . S
C270 C269 1.370 . S
C270 C274 1.408 . S
C271 C269 1.363 . S
C271 C272 1.370 . S
C271 C275 1.524 . S
C272 C264 1.503 . S
C272 C271 1.370 . S
C272 C273 1.403 . S
C273 C272 1.403 . S
C273 C274 1.404 . S
C273 C276 1.539 . S
C274 C270 1.408 . S
C274 C273 1.404 . S
C274 H286 0.930 . S
C275 C271 1.524 . S
C275 H287 0.956 . S
C275 H288 0.961 . S
C275 H289 0.961 . S
C276 C273 1.539 . S
C276 H290 0.958 . S
C276 H291 0.961 . S
C276 H292 0.960 . S
H277 C261 0.931 . S
H278 C266 0.929 . S
H279 C267 0.960 . S
H280 C267 0.962 . S
H281 C267 0.960 . S
H282 C268 0.961 . S
H283 C268 0.961 . S
H284 C268 0.961 . S
H285 C269 0.931 . S
H286 C274 0.930 . S
H287 C275 0.956 . S
H288 C275 0.961 . S
H289 C275 0.961 . S
H290 C276 0.958 . S
H291 C276 0.961 . S
H292 C276 0.960 . S
C293 C294 1.391 . S
C293 C295 1.394 . S
C293 H309 0.931 . S
C294 C293 1.391 . S
C294 C298 1.376 . S
C295 C293 1.394 . S
C295 C296 1.369 . S
C295 C299 1.531 . S
C296 C295 1.369 . S
C296 C297 1.410 . S
C296 C304 1.503 . S
C297 C296 1.410 . S
C297 C298 1.392 . S
C297 C300 1.511 . S
C298 C294 1.376 . S
C298 C297 1.392 . S
C298 H310 0.929 . S
C299 C295 1.531 . S
C299 H311 0.960 . S
C299 H312 0.962 . S
C299 H313 0.960 . S
C300 C297 1.511 . S
C300 H314 0.961 . S
C300 H315 0.961 . S
C300 H316 0.961 . S
C301 C302 1.370 . S
C301 C303 1.363 . S
C301 H317 0.931 . S
C302 C301 1.370 . S
C302 C306 1.408 . S
C303 C301 1.363 . S
C303 C304 1.370 . S
C303 C307 1.524 . S
C304 C296 1.503 . S
C304 C303 1.370 . S
C304 C305 1.403 . S
C305 C304 1.403 . S
C305 C306 1.404 . S
C305 C308 1.539 . S
C306 C302 1.408 . S
C306 C305 1.404 . S
C306 H318 0.930 . S
C307 C303 1.524 . S
C307 H319 0.956 . S
C307 H320 0.961 . S
C307 H321 0.961 . S
C308 C305 1.539 . S
C308 H322 0.958 . S
C308 H323 0.961 . S
C308 H324 0.960 . S
H309 C293 0.931 . S
H310 C298 0.929 . S
H311 C299 0.960 . S
H312 C299 0.962 . S
H313 C299 0.960 . S
H314 C300 0.961 . S
H315 C300 0.961 . S
H316 C300 0.961 . S
H317 C301 0.931 . S
H318 C306 0.930 . S
H319 C307 0.956 . S
H320 C307 0.961 . S
H321 C307 0.961 . S
H322 C308 0.958 . S
H323 C308 0.961 . S
H324 C308 0.960 . S
C325 C326 1.391 . S
C325 C327 1.394 . S
C325 H341 0.931 . S
C326 C325 1.391 . S
C326 C330 1.376 . S
C327 C325 1.394 . S
C327 C328 1.369 . S
C327 C331 1.531 . S
C328 C327 1.369 . S
C328 C329 1.410 . S
C328 C336 1.503 . S
C329 C328 1.410 . S
C329 C330 1.392 . S
C329 C332 1.511 . S
C330 C326 1.376 . S
C330 C329 1.392 . S
C330 H342 0.929 . S
C331 C327 1.531 . S
C331 H343 0.960 . S
C331 H344 0.962 . S
C331 H345 0.960 . S
C332 C329 1.511 . S
C332 H346 0.961 . S
C332 H347 0.961 . S
C332 H348 0.961 . S
C333 C334 1.370 . S
C333 C335 1.363 . S
C333 H349 0.931 . S
C334 C333 1.370 . S
C334 C338 1.408 . S
C335 C333 1.363 . S
C335 C336 1.370 . S
C335 C339 1.524 . S
C336 C328 1.503 . S
C336 C335 1.370 . S
C336 C337 1.403 . S
C337 C336 1.403 . S
C337 C338 1.404 . S
C337 C340 1.539 . S
C338 C334 1.408 . S
C338 C337 1.404 . S
C338 H350 0.930 . S
C339 C335 1.524 . S
C339 H351 0.956 . S
C339 H352 0.961 . S
C339 H353 0.961 . S
C340 C337 1.539 . S
C340 H354 0.958 . S
C340 H355 0.961 . S
C340 H356 0.960 . S
H341 C325 0.931 . S
H342 C330 0.929 . S
H343 C331 0.960 . S
H344 C331 0.962 . S
H345 C331 0.960 . S
H346 C332 0.961 . S
H347 C332 0.961 . S
H348 C332 0.961 . S
H349 C333 0.931 . S
H350 C338 0.930 . S
H351 C339 0.956 . S
H352 C339 0.961 . S
H353 C339 0.961 . S
H354 C340 0.958 . S
H355 C340 0.961 . S
H356 C340 0.960 . S
C357 C358 1.391 . S
C357 C359 1.394 . S
C357 H373 0.931 . S
C358 C357 1.391 . S
C358 C362 1.376 . S
C359 C357 1.394 . S
C359 C360 1.369 . S
C359 C363 1.531 . S
C360 C359 1.369 . S
C360 C361 1.410 . S
C360 C368 1.503 . S
C361 C360 1.410 . S
C361 C362 1.392 . S
C361 C364 1.511 . S
C362 C358 1.376 . S
C362 C361 1.392 . S
C362 H374 0.929 . S
C363 C359 1.531 . S
C363 H375 0.960 . S
C363 H376 0.962 . S
C363 H377 0.960 . S
C364 C361 1.511 . S
C364 H378 0.961 . S
C364 H379 0.961 . S
C364 H380 0.961 . S
C365 C366 1.370 . S
C365 C367 1.363 . S
C365 H381 0.931 . S
C366 C365 1.370 . S
C366 C370 1.408 . S
C367 C365 1.363 . S
C367 C368 1.370 . S
C367 C371 1.524 . S
C368 C360 1.503 . S
C368 C367 1.370 . S
C368 C369 1.403 . S
C369 C368 1.403 . S
C369 C370 1.404 . S
C369 C372 1.539 . S
C370 C366 1.408 . S
C370 C369 1.404 . S
C370 H382 0.930 . S
C371 C367 1.524 . S
C371 H383 0.956 . S
C371 H384 0.961 . S
C371 H385 0.961 . S
C372 C369 1.539 . S
C372 H386 0.958 . S
C372 H387 0.961 . S
C372 H388 0.960 . S
H373 C357 0.931 . S
H374 C362 0.929 . S
H375 C363 0.960 . S
H376 C363 0.962 . S
H377 C363 0.960 . S
H378 C364 0.961 . S
H379 C364 0.961 . S
H380 C364 0.961 . S
H381 C365 0.931 . S
H382 C370 0.930 . S
H383 C371 0.956 . S
H384 C371 0.961 . S
H385 C371 0.961 . S
H386 C372 0.958 . S
H387 C372 0.961 . S
H388 C372 0.960 . S
C389 C390 1.391 . S
C389 C391 1.394 . S
C389 H405 0.931 . S
C390 C389 1.391 . S
C390 C394 1.376 . S
C391 C389 1.394 . S
C391 C392 1.369 . S
C391 C395 1.531 . S
C392 C391 1.369 . S
C392 C393 1.410 . S
C392 C400 1.503 . S
C393 C392 1.410 . S
C393 C394 1.392 . S
C393 C396 1.511 . S
C394 C390 1.376 . S
C394 C393 1.392 . S
C394 H406 0.929 . S
C395 C391 1.531 . S
C395 H407 0.960 . S
C395 H408 0.962 . S
C395 H409 0.960 . S
C396 C393 1.511 . S
C396 H410 0.961 . S
C396 H411 0.961 . S
C396 H412 0.961 . S
C397 C398 1.370 . S
C397 C399 1.363 . S
C397 H413 0.931 . S
C398 C397 1.370 . S
C398 C402 1.408 . S
C399 C397 1.363 . S
C399 C400 1.370 . S
C399 C403 1.524 . S
C400 C392 1.503 . S
C400 C399 1.370 . S
C400 C401 1.403 . S
C401 C400 1.403 . S
C401 C402 1.404 . S
C401 C404 1.539 . S
C402 C398 1.408 . S
C402 C401 1.404 . S
C402 H414 0.930 . S
C403 C399 1.524 . S
C403 H415 0.956 . S
C403 H416 0.961 . S
C403 H417 0.961 . S
C404 C401 1.539 . S
C404 H418 0.958 . S
C404 H419 0.961 . S
C404 H420 0.960 . S
H405 C389 0.931 . S
H406 C394 0.929 . S
H407 C395 0.960 . S
H408 C395 0.962 . S
H409 C395 0.960 . S
H410 C396 0.961 . S
H411 C396 0.961 . S
H412 C396 0.961 . S
H413 C397 0.931 . S
H414 C402 0.930 . S
H415 C403 0.956 . S
H416 C403 0.961 . S
H417 C403 0.961 . S
H418 C404 0.958 . S
H419 C404 0.961 . S
H420 C404 0.960 . S
C421 C422 1.391 . S
C421 C423 1.394 . S
C421 H437 0.931 . S
C422 C421 1.391 . S
C422 C426 1.376 . S
C423 C421 1.394 . S
C423 C424 1.369 . S
C423 C427 1.531 . S
C424 C423 1.369 . S
C424 C425 1.410 . S
C424 C432 1.503 . S
C425 C424 1.410 . S
C425 C426 1.392 . S
C425 C428 1.511 . S
C426 C422 1.376 . S
C426 C425 1.392 . S
C426 H438 0.929 . S
C427 C423 1.531 . S
C427 H439 0.960 . S
C427 H440 0.962 . S
C427 H441 0.960 . S
C428 C425 1.511 . S
C428 H442 0.961 . S
C428 H443 0.961 . S
C428 H444 0.961 . S
C429 C430 1.370 . S
C429 C431 1.363 . S
C429 H445 0.931 . S
C430 C429 1.370 . S
C430 C434 1.408 . S
C431 C429 1.363 . S
C431 C432 1.370 . S
C431 C435 1.524 . S
C432 C424 1.503 . S
C432 C431 1.370 . S
C432 C433 1.403 . S
C433 C432 1.403 . S
C433 C434 1.404 . S
C433 C436 1.539 . S
C434 C430 1.408 . S
C434 C433 1.404 . S
C434 H446 0.930 . S
C435 C431 1.524 . S
C435 H447 0.956 . S
C435 H448 0.961 . S
C435 H449 0.961 . S
C436 C433 1.539 . S
C436 H450 0.958 . S
C436 H451 0.961 . S
C436 H452 0.960 . S
H437 C421 0.931 . S
H438 C426 0.929 . S
H439 C427 0.960 . S
H440 C427 0.962 . S
H441 C427 0.960 . S
H442 C428 0.961 . S
H443 C428 0.961 . S
H444 C428 0.961 . S
H445 C429 0.931 . S
H446 C434 0.930 . S
H447 C435 0.956 . S
H448 C435 0.961 . S
H449 C435 0.961 . S
H450 C436 0.958 . S
H451 C436 0.961 . S
H452 C436 0.960 . S
C453 C454 1.391 . S
C453 C455 1.394 . S
C453 H469 0.931 . S
C454 C453 1.391 . S
C454 C458 1.376 . S
C455 C453 1.394 . S
C455 C456 1.369 . S
C455 C459 1.531 . S
C456 C455 1.369 . S
C456 C457 1.410 . S
C456 C464 1.503 . S
C457 C456 1.410 . S
C457 C458 1.392 . S
C457 C460 1.511 . S
C458 C454 1.376 . S
C458 C457 1.392 . S
C458 H470 0.929 . S
C459 C455 1.531 . S
C459 H471 0.960 . S
C459 H472 0.962 . S
C459 H473 0.960 . S
C460 C457 1.511 . S
C460 H474 0.961 . S
C460 H475 0.961 . S
C460 H476 0.961 . S
C461 C462 1.370 . S
C461 C463 1.363 . S
C461 H477 0.931 . S
C462 C461 1.370 . S
C462 C466 1.408 . S
C463 C461 1.363 . S
C463 C464 1.370 . S
C463 C467 1.524 . S
C464 C456 1.503 . S
C464 C463 1.370 . S
C464 C465 1.403 . S
C465 C464 1.403 . S
C465 C466 1.404 . S
C465 C468 1.539 . S
C466 C462 1.408 . S
C466 C465 1.404 . S
C466 H478 0.930 . S
C467 C463 1.524 . S
C467 H479 0.956 . S
C467 H480 0.961 . S
C467 H481 0.961 . S
C468 C465 1.539 . S
C468 H482 0.958 . S
C468 H483 0.961 . S
C468 H484 0.960 . S
H469 C453 0.931 . S
H470 C458 0.929 . S
H471 C459 0.960 . S
H472 C459 0.962 . S
H473 C459 0.960 . S
H474 C460 0.961 . S
H475 C460 0.961 . S
H476 C460 0.961 . S
H477 C461 0.931 . S
H478 C466 0.930 . S
H479 C467 0.956 . S
H480 C467 0.961 . S
H481 C467 0.961 . S
H482 C468 0.958 . S
H483 C468 0.961 . S
H484 C468 0.960 . S
C485 C486 1.391 . S
C485 C487 1.394 . S
C485 H501 0.931 . S
C486 C485 1.391 . S
C486 C490 1.376 . S
C487 C485 1.394 . S
C487 C488 1.369 . S
C487 C491 1.531 . S
C488 C487 1.369 . S
C488 C489 1.410 . S
C488 C496 1.503 . S
C489 C488 1.410 . S
C489 C490 1.392 . S
C489 C492 1.511 . S
C490 C486 1.376 . S
C490 C489 1.392 . S
C490 H502 0.929 . S
C491 C487 1.531 . S
C491 H503 0.960 . S
C491 H504 0.962 . S
C491 H505 0.960 . S
C492 C489 1.511 . S
C492 H506 0.961 . S
C492 H507 0.961 . S
C492 H508 0.961 . S
C493 C494 1.370 . S
C493 C495 1.363 . S
C493 H509 0.931 . S
C494 C493 1.370 . S
C494 C498 1.408 . S
C495 C493 1.363 . S
C495 C496 1.370 . S
C495 C499 1.524 . S
C496 C488 1.503 . S
C496 C495 1.370 . S
C496 C497 1.403 . S
C497 C496 1.403 . S
C497 C498 1.404 . S
C497 C500 1.539 . S
C498 C494 1.408 . S
C498 C497 1.404 . S
C498 H510 0.930 . S
C499 C495 1.524 . S
C499 H511 0.956 . S
C499 H512 0.961 . S
C499 H513 0.961 . S
C500 C497 1.539 . S
C500 H514 0.958 . S
C500 H515 0.961 . S
C500 H516 0.960 . S
H501 C485 0.931 . S
H502 C490 0.929 . S
H503 C491 0.960 . S
H504 C491 0.962 . S
H505 C491 0.960 . S
H506 C492 0.961 . S
H507 C492 0.961 . S
H508 C492 0.961 . S
H509 C493 0.931 . S
H510 C498 0.930 . S
H511 C499 0.956 . S
H512 C499 0.961 . S
H513 C499 0.961 . S
H514 C500 0.958 . S
H515 C500 0.961 . S
H516 C500 0.960 . S
C517 C518 1.391 . S
C517 C519 1.394 . S
C517 H533 0.931 . S
C518 C517 1.391 . S
C518 C522 1.376 . S
C519 C517 1.394 . S
C519 C520 1.369 . S
C519 C523 1.531 . S
C520 C519 1.369 . S
C520 C521 1.410 . S
C520 C528 1.503 . S
C521 C520 1.410 . S
C521 C522 1.392 . S
C521 C524 1.511 . S
C522 C518 1.376 . S
C522 C521 1.392 . S
C522 H534 0.929 . S
C523 C519 1.531 . S
C523 H535 0.960 . S
C523 H536 0.962 . S
C523 H537 0.960 . S
C524 C521 1.511 . S
C524 H538 0.961 . S
C524 H539 0.961 . S
C524 H540 0.961 . S
C525 C526 1.370 . S
C525 C527 1.363 . S
C525 H541 0.931 . S
C526 C525 1.370 . S
C526 C530 1.408 . S
C527 C525 1.363 . S
C527 C528 1.370 . S
C527 C531 1.524 . S
C528 C520 1.503 . S
C528 C527 1.370 . S
C528 C529 1.403 . S
C529 C528 1.403 . S
C529 C530 1.404 . S
C529 C532 1.539 . S
C530 C526 1.408 . S
C530 C529 1.404 . S
C530 H542 0.930 . S
C531 C527 1.524 . S
C531 H543 0.956 . S
C531 H544 0.961 . S
C531 H545 0.961 . S
C532 C529 1.539 . S
C532 H546 0.958 . S
C532 H547 0.961 . S
C532 H548 0.960 . S
H533 C517 0.931 . S
H534 C522 0.929 . S
H535 C523 0.960 . S
H536 C523 0.962 . S
H537 C523 0.960 . S
H538 C524 0.961 . S
H539 C524 0.961 . S
H540 C524 0.961 . S
H541 C525 0.931 . S
H542 C530 0.930 . S
H543 C531 0.956 . S
H544 C531 0.961 . S
H545 C531 0.961 . S
H546 C532 0.958 . S
H547 C532 0.961 . S
H548 C532 0.960 . S
C549 C550 1.391 . S
C549 C551 1.394 . S
C549 H565 0.931 . S
C550 C549 1.391 . S
C550 C554 1.376 . S
C551 C549 1.394 . S
C551 C552 1.369 . S
C551 C555 1.531 . S
C552 C551 1.369 . S
C552 C553 1.410 . S
C552 C560 1.503 . S
C553 C552 1.410 . S
C553 C554 1.392 . S
C553 C556 1.511 . S
C554 C550 1.376 . S
C554 C553 1.392 . S
C554 H566 0.929 . S
C555 C551 1.531 . S
C555 H567 0.960 . S
C555 H568 0.962 . S
C555 H569 0.960 . S
C556 C553 1.511 . S
C556 H570 0.961 . S
C556 H571 0.961 . S
C556 H572 0.961 . S
C557 C558 1.370 . S
C557 C559 1.363 . S
C557 H573 0.931 . S
C558 C557 1.370 . S
C558 C562 1.408 . S
C559 C557 1.363 . S
C559 C560 1.370 . S
C559 C563 1.524 . S
C560 C552 1.503 . S
C560 C559 1.370 . S
C560 C561 1.403 . S
C561 C560 1.403 . S
C561 C562 1.404 . S
C561 C564 1.539 . S
C562 C558 1.408 . S
C562 C561 1.404 . S
C562 H574 0.930 . S
C563 C559 1.524 . S
C563 H575 0.956 . S
C563 H576 0.961 . S
C563 H577 0.961 . S
C564 C561 1.539 . S
C564 H578 0.958 . S
C564 H579 0.961 . S
C564 H580 0.960 . S
H565 C549 0.931 . S
H566 C554 0.929 . S
H567 C555 0.960 . S
H568 C555 0.962 . S
H569 C555 0.960 . S
H570 C556 0.961 . S
H571 C556 0.961 . S
H572 C556 0.961 . S
H573 C557 0.931 . S
H574 C562 0.930 . S
H575 C563 0.956 . S
H576 C563 0.961 . S
H577 C563 0.961 . S
H578 C564 0.958 . S
H579 C564 0.961 . S
H580 C564 0.960 . S
C581 C582 1.391 . S
C581 C583 1.394 . S
C581 H597 0.931 . S
C582 C581 1.391 . S
C582 C586 1.376 . S
C583 C581 1.394 . S
C583 C584 1.369 . S
C583 C587 1.531 . S
C584 C583 1.369 . S
C584 C585 1.410 . S
C584 C592 1.503 . S
C585 C584 1.410 . S
C585 C586 1.392 . S
C585 C588 1.511 . S
C586 C582 1.376 . S
C586 C585 1.392 . S
C586 H598 0.929 . S
C587 C583 1.531 . S
C587 H599 0.960 . S
C587 H600 0.962 . S
C587 H601 0.960 . S
C588 C585 1.511 . S
C588 H602 0.961 . S
C588 H603 0.961 . S
C588 H604 0.961 . S
C589 C590 1.370 . S
C589 C591 1.363 . S
C589 H605 0.931 . S
C590 C589 1.370 . S
C590 C594 1.408 . S
C591 C589 1.363 . S
C591 C592 1.370 . S
C591 C595 1.524 . S
C592 C584 1.503 . S
C592 C591 1.370 . S
C592 C593 1.403 . S
C593 C592 1.403 . S
C593 C594 1.404 . S
C593 C596 1.539 . S
C594 C590 1.408 . S
C594 C593 1.404 . S
C594 H606 0.930 . S
C595 C591 1.524 . S
C595 H607 0.956 . S
C595 H608 0.961 . S
C595 H609 0.961 . S
C596 C593 1.539 . S
C596 H610 0.958 . S
C596 H611 0.961 . S
C596 H612 0.960 . S
H597 C581 0.931 . S
H598 C586 0.929 . S
H599 C587 0.960 . S
H600 C587 0.962 . S
H601 C587 0.960 . S
H602 C588 0.961 . S
H603 C588 0.961 . S
H604 C588 0.961 . S
H605 C589 0.931 . S
H606 C594 0.930 . S
H607 C595 0.956 . S
H608 C595 0.961 . S
H609 C595 0.961 . S
H610 C596 0.958 . S
H611 C596 0.961 . S
H612 C596 0.960 . S
C613 C614 1.391 . S
C613 C615 1.394 . S
C613 H629 0.931 . S
C614 C613 1.391 . S
C614 C618 1.376 . S
C615 C613 1.394 . S
C615 C616 1.369 . S
C615 C619 1.531 . S
C616 C615 1.369 . S
C616 C617 1.410 . S
C616 C624 1.503 . S
C617 C616 1.410 . S
C617 C618 1.392 . S
C617 C620 1.511 . S
C618 C614 1.376 . S
C618 C617 1.392 . S
C618 H630 0.929 . S
C619 C615 1.531 . S
C619 H631 0.960 . S
C619 H632 0.962 . S
C619 H633 0.960 . S
C620 C617 1.511 . S
C620 H634 0.961 . S
C620 H635 0.961 . S
C620 H636 0.961 . S
C621 C622 1.370 . S
C621 C623 1.363 . S
C621 H637 0.931 . S
C622 C621 1.370 . S
C622 C626 1.408 . S
C623 C621 1.363 . S
C623 C624 1.370 . S
C623 C627 1.524 . S
C624 C616 1.503 . S
C624 C623 1.370 . S
C624 C625 1.403 . S
C625 C624 1.403 . S
C625 C626 1.404 . S
C625 C628 1.539 . S
C626 C622 1.408 . S
C626 C625 1.404 . S
C626 H638 0.930 . S
C627 C623 1.524 . S
C627 H639 0.956 . S
C627 H640 0.961 . S
C627 H641 0.961 . S
C628 C625 1.539 . S
C628 H642 0.958 . S
C628 H643 0.961 . S
C628 H644 0.960 . S
H629 C613 0.931 . S
H630 C618 0.929 . S
H631 C619 0.960 . S
H632 C619 0.962 . S
H633 C619 0.960 . S
H634 C620 0.961 . S
H635 C620 0.961 . S
H636 C620 0.961 . S
H637 C621 0.931 . S
H638 C626 0.930 . S
H639 C627 0.956 . S
H640 C627 0.961 . S
H641 C627 0.961 . S
H642 C628 0.958 . S
H643 C628 0.961 . S
H644 C628 0.960 . S
C645 C646 1.391 1_655 S
C645 C647 1.394 . S
C645 H661 0.931 . S
C646 C645 1.391 1_455 S
C646 C650 1.376 . S
C647 C645 1.394 . S
C647 C648 1.369 1_655 S
C647 C651 1.531 . S
C648 C647 1.369 1_455 S
C648 C649 1.410 . S
C648 C656 1.503 . S
C649 C648 1.410 . S
C649 C650 1.392 . S
C649 C652 1.511 . S
C650 C646 1.376 . S
C650 C649 1.392 . S
C650 H662 0.929 . S
C651 C647 1.531 . S
C651 H663 0.960 . S
C651 H664 0.962 . S
C651 H665 0.960 . S
C652 C649 1.511 . S
C652 H666 0.961 . S
C652 H667 0.961 . S
C652 H668 0.961 . S
C653 C654 1.370 1_554 S
C653 C655 1.363 . S
C653 H669 0.931 1_554 S
C654 C653 1.370 1_556 S
C654 C658 1.408 . S
C655 C653 1.363 . S
C655 C656 1.370 . S
C655 C659 1.524 . S
C656 C648 1.503 . S
C656 C655 1.370 . S
C656 C657 1.403 . S
C657 C656 1.403 . S
C657 C658 1.405 1_554 S
C657 C660 1.539 1_455 S
C658 C654 1.408 . S
C658 C657 1.405 1_556 S
C658 H670 0.929 1_455 S
C659 C655 1.524 . S
C659 H671 0.956 . S
C659 H672 0.961 . S
C659 H673 0.961 . S
C660 C657 1.539 1_655 S
C660 H674 0.958 . S
C660 H675 0.961 . S
C660 H676 0.960 1_655 S
H661 C645 0.931 . S
H662 C650 0.929 . S
H663 C651 0.960 . S
H664 C651 0.962 . S
H665 C651 0.960 . S
H666 C652 0.961 . S
H667 C652 0.961 . S
H668 C652 0.961 . S
H669 C653 0.931 1_556 S
H670 C658 0.929 1_655 S
H671 C659 0.956 . S
H672 C659 0.961 . S
H673 C659 0.961 . S
H674 C660 0.958 . S
H675 C660 0.961 . S
H676 C660 0.960 1_455 S
C677 C678 1.391 . S
C677 C679 1.394 . S
C677 H693 0.931 . S
C678 C677 1.391 . S
C678 C682 1.376 . S
C679 C677 1.394 . S
C679 C680 1.369 . S
C679 C683 1.531 . S
C680 C679 1.369 . S
C680 C681 1.410 . S
C680 C688 1.503 . S
C681 C680 1.410 . S
C681 C682 1.392 . S
C681 C684 1.511 . S
C682 C678 1.376 . S
C682 C681 1.392 . S
C682 H694 0.929 . S
C683 C679 1.531 . S
C683 H695 0.960 1_545 S
C683 H696 0.962 . S
C683 H697 0.960 1_545 S
C684 C681 1.511 . S
C684 H698 0.961 . S
C684 H699 0.961 . S
C684 H700 0.961 1_545 S
C685 C686 1.370 . S
C685 C687 1.363 . S
C685 H701 0.931 . S
C686 C685 1.370 . S
C686 C690 1.408 1_545 S
C687 C685 1.363 . S
C687 C688 1.370 . S
C687 C691 1.524 . S
C688 C680 1.503 . S
C688 C687 1.370 . S
C688 C689 1.403 1_545 S
C689 C688 1.403 1_565 S
C689 C690 1.404 . S
C689 C692 1.539 . S
C690 C686 1.408 1_565 S
C690 C689 1.404 . S
C690 H702 0.930 . S
C691 C687 1.524 . S
C691 H703 0.956 . S
C691 H704 0.961 . S
C691 H705 0.961 . S
C692 C689 1.539 . S
C692 H706 0.958 . S
C692 H707 0.961 . S
C692 H708 0.960 . S
H693 C677 0.931 . S
H694 C682 0.929 . S
H695 C683 0.960 1_565 S
H696 C683 0.962 . S
H697 C683 0.960 1_565 S
H698 C684 0.961 . S
H699 C684 0.961 . S
H700 C684 0.961 1_565 S
H701 C685 0.931 . S
H702 C690 0.930 . S
H703 C691 0.956 . S
H704 C691 0.961 . S
H705 C691 0.961 . S
H706 C692 0.958 . S
H707 C692 0.961 . S
H708 C692 0.960 . S
C709 C710 1.391 . S
C709 C711 1.394 . S
C709 H725 0.931 . S
C710 C709 1.391 . S
C710 C714 1.376 . S
C711 C709 1.394 . S
C711 C712 1.369 . S
C711 C715 1.531 . S
C712 C711 1.369 . S
C712 C713 1.410 . S
C712 C720 1.503 . S
C713 C712 1.410 . S
C713 C714 1.392 . S
C713 C716 1.511 . S
C714 C710 1.376 . S
C714 C713 1.392 . S
C714 H726 0.929 . S
C715 C711 1.531 . S
C715 H727 0.960 . S
C715 H728 0.962 . S
C715 H729 0.960 . S
C716 C713 1.511 . S
C716 H730 0.961 . S
C716 H731 0.961 . S
C716 H732 0.961 . S
C717 C718 1.370 . S
C717 C719 1.363 . S
C717 H733 0.931 . S
C718 C717 1.370 . S
C718 C722 1.408 . S
C719 C717 1.363 . S
C719 C720 1.370 . S
C719 C723 1.524 . S
C720 C712 1.503 . S
C720 C719 1.370 . S
C720 C721 1.403 . S
C721 C720 1.403 . S
C721 C722 1.404 . S
C721 C724 1.539 . S
C722 C718 1.408 . S
C722 C721 1.404 . S
C722 H734 0.930 . S
C723 C719 1.524 . S
C723 H735 0.956 . S
C723 H736 0.961 . S
C723 H737 0.961 . S
C724 C721 1.539 . S
C724 H738 0.958 . S
C724 H739 0.961 . S
C724 H740 0.960 . S
H725 C709 0.931 . S
H726 C714 0.929 . S
H727 C715 0.960 . S
H728 C715 0.962 . S
H729 C715 0.960 . S
H730 C716 0.961 . S
H731 C716 0.961 . S
H732 C716 0.961 . S
H733 C717 0.931 . S
H734 C722 0.930 . S
H735 C723 0.956 . S
H736 C723 0.961 . S
H737 C723 0.961 . S
H738 C724 0.958 . S
H739 C724 0.961 . S
H740 C724 0.960 . S
C741 C742 1.391 1_565 S
C741 C743 1.394 . S
C741 H757 0.931 . S
C742 C741 1.391 1_545 S
C742 C746 1.376 . S
C743 C741 1.394 . S
C743 C744 1.369 1_565 S
C743 C747 1.531 . S
C744 C743 1.369 1_545 S
C744 C745 1.410 . S
C744 C752 1.503 . S
C745 C744 1.410 . S
C745 C746 1.392 . S
C745 C748 1.511 . S
C746 C742 1.376 . S
C746 C745 1.392 . S
C746 H758 0.929 . S
C747 C743 1.531 . S
C747 H759 0.960 . S
C747 H760 0.962 . S
C747 H761 0.960 . S
C748 C745 1.511 . S
C748 H762 0.961 . S
C748 H763 0.961 . S
C748 H764 0.961 . S
C749 C750 1.370 . S
C749 C751 1.363 . S
C749 H765 0.931 . S
C750 C749 1.370 . S
C750 C754 1.408 1_545 S
C751 C749 1.363 . S
C751 C752 1.370 . S
C751 C755 1.524 . S
C752 C744 1.503 . S
C752 C751 1.370 . S
C752 C753 1.403 1_545 S
C753 C752 1.403 1_565 S
C753 C754 1.404 . S
C753 C756 1.539 . S
C754 C750 1.408 1_565 S
C754 C753 1.404 . S
C754 H766 0.930 . S
C755 C751 1.524 . S
C755 H767 0.956 . S
C755 H768 0.961 . S
C755 H769 0.961 . S
C756 C753 1.539 . S
C756 H770 0.958 . S
C756 H771 0.961 . S
C756 H772 0.960 . S
H757 C741 0.931 . S
H758 C746 0.929 . S
H759 C747 0.960 . S
H760 C747 0.962 . S
H761 C747 0.960 . S
H762 C748 0.961 . S
H763 C748 0.961 . S
H764 C748 0.961 . S
H765 C749 0.931 . S
H766 C754 0.930 . S
H767 C755 0.956 . S
H768 C755 0.961 . S
H769 C755 0.961 . S
H770 C756 0.958 . S
H771 C756 0.961 . S
H772 C756 0.960 . S
C773 C774 1.391 . S
C773 C775 1.394 . S
C773 H789 0.931 . S
C774 C773 1.391 . S
C774 C778 1.376 . S
C775 C773 1.394 . S
C775 C776 1.369 . S
C775 C779 1.531 . S
C776 C775 1.369 . S
C776 C777 1.410 . S
C776 C784 1.503 . S
C777 C776 1.410 . S
C777 C778 1.392 . S
C777 C780 1.511 . S
C778 C774 1.376 . S
C778 C777 1.392 . S
C778 H790 0.929 . S
C779 C775 1.531 . S
C779 H791 0.960 . S
C779 H792 0.962 . S
C779 H793 0.960 . S
C780 C777 1.511 . S
C780 H794 0.961 . S
C780 H795 0.961 . S
C780 H796 0.961 . S
C781 C782 1.370 1_556 S
C781 C783 1.363 . S
C781 H797 0.931 1_556 S
C782 C781 1.370 1_554 S
C782 C786 1.398 1_554 S
C783 C781 1.363 . S
C783 C784 1.370 . S
C783 C787 1.524 . S
C784 C776 1.503 . S
C784 C783 1.370 . S
C784 C785 1.403 . S
C785 C784 1.403 . S
C785 C786 1.427 . S
C785 C788 1.539 . S
C786 C782 1.398 1_556 S
C786 C785 1.427 . S
C786 H798 0.918 1_556 S
C787 C783 1.524 . S
C787 H799 0.956 . S
C787 H800 0.961 . S
C787 H801 0.961 . S
C788 C785 1.539 . S
C788 H802 0.958 . S
C788 H803 0.961 . S
C788 H804 0.960 . S
H789 C773 0.931 . S
H790 C778 0.929 . S
H791 C779 0.960 . S
H792 C779 0.962 . S
H793 C779 0.960 . S
H794 C780 0.961 . S
H795 C780 0.961 . S
H796 C780 0.961 . S
H797 C781 0.931 1_554 S
H798 C786 0.918 1_554 S
H799 C787 0.956 . S
H800 C787 0.961 . S
H801 C787 0.961 . S
H802 C788 0.958 . S
H803 C788 0.961 . S
H804 C788 0.960 . S
C805 C806 1.391 1_655 S
C805 C807 1.394 . S
C805 H821 0.931 . S
C806 C805 1.391 1_455 S
C806 C810 1.376 . S
C807 C805 1.394 . S
C807 C808 1.369 1_655 S
C807 C811 1.531 . S
C808 C807 1.369 1_455 S
C808 C809 1.410 . S
C808 C816 1.503 . S
C809 C808 1.410 . S
C809 C810 1.392 . S
C809 C812 1.511 . S
C810 C806 1.376 . S
C810 C809 1.392 . S
C810 H822 0.929 . S
C811 C807 1.531 . S
C811 H823 0.960 . S
C811 H824 0.962 . S
C811 H825 0.960 . S
C812 C809 1.511 . S
C812 H826 0.961 . S
C812 H827 0.961 . S
C812 H828 0.961 . S
C813 C814 1.370 . S
C813 C815 1.363 . S
C813 H829 0.931 . S
C814 C813 1.370 . S
C814 C818 1.408 1_455 S
C815 C813 1.363 . S
C815 C816 1.370 . S
C815 C819 1.524 . S
C816 C808 1.503 . S
C816 C815 1.370 . S
C816 C817 1.403 1_455 S
C817 C816 1.403 1_655 S
C817 C818 1.404 . S
C817 C820 1.539 . S
C818 C814 1.408 1_655 S
C818 C817 1.404 . S
C818 H830 0.930 . S
C819 C815 1.524 . S
C819 H831 0.956 . S
C819 H832 0.961 . S
C819 H833 0.961 . S
C820 C817 1.539 . S
C820 H834 0.958 . S
C820 H835 0.961 . S
C820 H836 0.960 . S
H821 C805 0.931 . S
H822 C810 0.929 . S
H823 C811 0.960 . S
H824 C811 0.962 . S
H825 C811 0.960 . S
H826 C812 0.961 . S
H827 C812 0.961 . S
H828 C812 0.961 . S
H829 C813 0.931 . S
H830 C818 0.930 . S
H831 C819 0.956 . S
H832 C819 0.961 . S
H833 C819 0.961 . S
H834 C820 0.958 . S
H835 C820 0.961 . S
H836 C820 0.960 . S
C262 C20 1.142 . S
C270 C252 1.174 . S
C294 C41 1.254 . S
C302 C188 1.215 . S
C326 C64 1.276 . S
C334 C220 1.234 . S
C358 C19 1.224 . S
C366 C246 1.289 . S
C398 C182 1.231 . S
C390 C44 1.242 . S
C430 C214 1.227 . S
C422 C67 1.217 . S
C454 C43 1.219 . S
C462 C124 1.178 . S
C486 C66 1.194 . S
C494 C156 1.154 . S
C518 C21 1.217 . S
C526 C86 1.237 . S
C558 C118 1.260 . S
C550 C42 1.244 . S
C590 C150 1.300 . S
C582 C65 1.279 . S
C614 C18 1.249 . S
C622 C92 1.208 . S
C654 C162 1.431 . S
C646 C17 1.465 . S
C678 C39 1.460 . S
C686 C98 1.429 . S
C710 C62 1.477 . S
C718 C130 1.444 . S
C750 C226 1.411 . S
C742 C40 1.441 . S
C782 C258 1.431 . S
C774 C63 1.465 . S
C806 C16 1.460 . S
C814 C194 1.422 . S
