# Generated by pormake.
# Topology ant, (3,6)-cn, num edge types: 1
# Building blocks:
#     Node 0, Type 0, BuildingBlock: ESEHIV_clean_linker_0, # of connection points: 3
#     Node 1, Type 0, BuildingBlock: ESEHIV_clean_linker_0, # of connection points: 3
#     Node 2, Type 0, BuildingBlock: ESEHIV_clean_linker_0, # of connection points: 3
#     Node 3, Type 0, BuildingBlock: ESEHIV_clean_linker_0, # of connection points: 3
#     Node 4, Type 0, BuildingBlock: ESEHIV_clean_linker_0, # of connection points: 3
#     Node 5, Type 0, BuildingBlock: ESEHIV_clean_linker_0, # of connection points: 3
#     Node 6, Type 0, BuildingBlock: ESEHIV_clean_linker_0, # of connection points: 3
#     Node 7, Type 0, BuildingBlock: ESEHIV_clean_linker_0, # of connection points: 3
#     Node 8, Type 1, BuildingBlock: MIDCAF_clean_sbu_0, # of connection points: 6
#     Node 9, Type 1, BuildingBlock: MIDCAF_clean_sbu_0, # of connection points: 6
#     Node 10, Type 1, BuildingBlock: MIDCAF_clean_sbu_0, # of connection points: 6
#     Node 11, Type 1, BuildingBlock: MIDCAF_clean_sbu_0, # of connection points: 6
#     Edge 12, Type (0, 1), BuildingBlock: OJICUG_clean_linker_0, # of connection points: 2
#     Edge 13, Type (0, 1), BuildingBlock: OJICUG_clean_linker_0, # of connection points: 2
#     Edge 14, Type (0, 1), BuildingBlock: OJICUG_clean_linker_0, # of connection points: 2
#     Edge 15, Type (0, 1), BuildingBlock: OJICUG_clean_linker_0, # of connection points: 2
#     Edge 16, Type (0, 1), BuildingBlock: OJICUG_clean_linker_0, # of connection points: 2
#     Edge 17, Type (0, 1), BuildingBlock: OJICUG_clean_linker_0, # of connection points: 2
#     Edge 18, Type (0, 1), BuildingBlock: OJICUG_clean_linker_0, # of connection points: 2
#     Edge 19, Type (0, 1), BuildingBlock: OJICUG_clean_linker_0, # of connection points: 2
#     Edge 20, Type (0, 1), BuildingBlock: OJICUG_clean_linker_0, # of connection points: 2
#     Edge 21, Type (0, 1), BuildingBlock: OJICUG_clean_linker_0, # of connection points: 2
#     Edge 22, Type (0, 1), BuildingBlock: OJICUG_clean_linker_0, # of connection points: 2
#     Edge 23, Type (0, 1), BuildingBlock: OJICUG_clean_linker_0, # of connection points: 2
#     Edge 24, Type (0, 1), BuildingBlock: OJICUG_clean_linker_0, # of connection points: 2
#     Edge 25, Type (0, 1), BuildingBlock: OJICUG_clean_linker_0, # of connection points: 2
#     Edge 26, Type (0, 1), BuildingBlock: OJICUG_clean_linker_0, # of connection points: 2
#     Edge 27, Type (0, 1), BuildingBlock: OJICUG_clean_linker_0, # of connection points: 2
#     Edge 28, Type (0, 1), BuildingBlock: OJICUG_clean_linker_0, # of connection points: 2
#     Edge 29, Type (0, 1), BuildingBlock: OJICUG_clean_linker_0, # of connection points: 2
#     Edge 30, Type (0, 1), BuildingBlock: OJICUG_clean_linker_0, # of connection points: 2
#     Edge 31, Type (0, 1), BuildingBlock: OJICUG_clean_linker_0, # of connection points: 2
#     Edge 32, Type (0, 1), BuildingBlock: OJICUG_clean_linker_0, # of connection points: 2
#     Edge 33, Type (0, 1), BuildingBlock: OJICUG_clean_linker_0, # of connection points: 2
#     Edge 34, Type (0, 1), BuildingBlock: OJICUG_clean_linker_0, # of connection points: 2
#     Edge 35, Type (0, 1), BuildingBlock: OJICUG_clean_linker_0, # of connection points: 2
# Relax obj value: 0.103
# Max RMSD: 0.160
# Mean RMSD: 0.105
data_MOF--net-ant--node1-MIDCAF_clean_sbu_0--node2-ESEHIV_clean_linker_0--edge1-OJICUG_clean_linker_0
_symmetry_space_group_name_H-M    P1
_symmetry_Int_Tables_number       1
_symmetry_cell_setting            triclinic
loop_
_symmetry_equiv_pos_as_xyz
'x, y, z'
_cell_length_a     18.258735
_cell_length_b     18.657509
_cell_length_c     52.192817
_cell_angle_alpha  90.310601
_cell_angle_beta   97.158153
_cell_angle_gamma 89.974681
loop_
_atom_site_label
_atom_site_type_symbol
_atom_site_fract_x
_atom_site_fract_y
_atom_site_fract_z
_atom_type_partial_charge
H0 H 0.12374 0.36847 0.01614 0.0
H1 H 0.1929 0.14824 0.02174 0.0
H2 H 0.24863 0.29023 0.08605 0.0
C3 C 0.15269 0.32535 0.02693 0.0
C4 C 0.18684 0.33819 0.05228 0.0
C5 C 0.15354 0.25637 0.01589 0.0
C6 C 0.19126 0.20125 0.03021 0.0
C7 C 0.2255 0.21254 0.05548 0.0
C8 C 0.22263 0.28117 0.06648 0.0
H9 H 0.95427 0.86345 0.26306 0.0
H10 H 0.1895 0.88831 0.27262 0.0
H11 H 0.06911 0.92607 0.33707 0.0
C12 C 1.00467 0.87874 0.27508 0.0
C13 C 1.00302 0.89772 0.30109 0.0
C14 C 0.07186 0.87648 0.26486 0.0
C15 C 0.13748 0.8941 0.28045 0.0
C16 C 0.13725 0.91217 0.30657 0.0
C17 C 0.06954 0.91461 0.3167 0.0
H18 H 0.65009 0.76558 0.52678 0.0
H19 H 0.65604 0.53574 0.52617 0.0
H20 H 0.63986 0.64902 0.5973 0.0
C21 C 0.6474 0.71543 0.53703 0.0
C22 C 0.64388 0.71579 0.56372 0.0
C23 C 0.65113 0.65075 0.52351 0.0
C24 C 0.65192 0.58572 0.53661 0.0
C25 C 0.64798 0.58532 0.56326 0.0
C26 C 0.64286 0.65004 0.57669 0.0
H27 H 0.50491 0.24357 0.77143 0.0
H28 H 0.73443 0.28961 0.79207 0.0
H29 H 0.59298 0.26377 0.85146 0.0
C30 C 0.55002 0.25858 0.78601 0.0
C31 C 0.53992 0.25667 0.81217 0.0
C32 C 0.62031 0.27003 0.77885 0.0
C33 C 0.6796 0.2849 0.79786 0.0
C34 C 0.67078 0.28355 0.82424 0.0
C35 C 0.60024 0.26909 0.83126 0.0
H36 H 0.12261 0.53477 0.94846 0.0
H37 H 0.14296 0.7637 0.94763 0.0
H38 H 0.13717 0.64303 0.87672 0.0
C39 C 0.12764 0.58394 0.93782 0.0
C40 C 0.12904 0.58176 0.91105 0.0
C41 C 0.13512 0.64934 0.95097 0.0
C42 C 0.14106 0.71303 0.93729 0.0
C43 C 0.14019 0.71182 0.91037 0.0
C44 C 0.13617 0.64539 0.89744 0.0
H45 H 0.57753 0.87443 0.2041 0.0
H46 H 0.81359 0.85614 0.21434 0.0
H47 H 0.69749 0.90301 0.1392 0.0
C48 C 0.62957 0.87992 0.19627 0.0
C49 C 0.62973 0.89325 0.16988 0.0
C50 C 0.69559 0.86637 0.21221 0.0
C51 C 0.76284 0.8683 0.20203 0.0
C52 C 0.76409 0.88289 0.17573 0.0
C53 C 0.69732 0.89547 0.15978 0.0
H54 H 0.59181 0.16574 0.45495 0.0
H55 H 0.64928 0.38887 0.46216 0.0
H56 H 0.51388 0.3097 0.39403 0.0
C57 C 0.58931 0.21948 0.44712 0.0
C58 C 0.54782 0.23138 0.42311 0.0
C59 C 0.62742 0.27512 0.46118 0.0
C60 C 0.62195 0.34508 0.4511 0.0
C61 C 0.58003 0.35876 0.42701 0.0
C62 C 0.54436 0.30089 0.41292 0.0
H63 H 0.04759 0.29437 0.68239 0.0
H64 H 0.27207 0.22945 0.7033 0.0
H65 H 0.18946 0.26316 0.62342 0.0
C66 C 0.10201 0.28476 0.67682 0.0
C67 C 0.11177 0.28413 0.65054 0.0
C68 C 0.15893 0.2638 0.69585 0.0
C69 C 0.22872 0.2483 0.68879 0.0
C70 C 0.24038 0.24836 0.66273 0.0
C71 C 0.18166 0.26624 0.64364 0.0
Zn72 Zn 0.25166 0.70484 0.14211 0.0
Zn73 Zn 0.08688 0.8581 0.07829 0.0
Zn74 Zn 0.17699 0.78776 0.1108 0.0
C75 C 0.11378 0.7355 0.05283 0.0
C76 C 0.2159 0.94109 0.08951 0.0
O77 O 0.12657 0.78874 0.14703 0.0
O78 O 0.20985 0.73204 0.17391 0.0
C79 C 0.19971 0.61406 0.10391 0.0
O80 O 0.15437 0.72519 0.07455 0.0
O81 O 0.07437 0.79081 0.04926 0.0
O82 O 0.15294 0.94068 0.07645 0.0
O83 O 0.23823 0.8871 0.10363 0.0
O84 O 0.22486 0.61013 0.12746 0.0
O85 O 0.18462 0.67612 0.09361 0.0
O86 O 0.28552 0.83972 0.11869 0.0
O87 O 0.34818 0.74688 0.13607 0.0
C88 C 0.34713 0.80992 0.12734 0.0
O89 O 0.07445 0.81688 0.12803 0.0
O90 O 1.00332 0.87423 0.09734 0.0
C91 C 0.15107 0.76806 0.17002 0.0
C92 C 0.01379 0.84988 0.11996 0.0
Zn93 Zn 0.50784 0.72056 0.33581 0.0
Zn94 Zn 0.68076 0.87846 0.39906 0.0
Zn95 Zn 0.59062 0.80563 0.36727 0.0
C96 C 0.55126 0.95879 0.39032 0.0
C97 C 0.75075 0.87085 0.35629 0.0
O98 O 0.58122 0.69529 0.38467 0.0
O99 O 0.51578 0.62982 0.35461 0.0
C100 C 0.42011 0.83659 0.3484 0.0
O101 O 0.53047 0.90566 0.3753 0.0
O102 O 0.61374 0.9584 0.40368 0.0
O103 O 0.76022 0.89904 0.37843 0.0
O104 O 0.69173 0.83416 0.34903 0.0
O105 O 0.41638 0.77628 0.33727 0.0
O106 O 0.48193 0.85991 0.36004 0.0
O107 O 0.63838 0.80206 0.33081 0.0
O108 O 0.56183 0.73288 0.30542 0.0
C109 C 0.61794 0.77298 0.30864 0.0
O110 O 0.61937 0.74196 0.40284 0.0
O111 O 0.7013 0.80893 0.42691 0.0
C112 C 0.5516 0.63481 0.3768 0.0
C113 C 0.6638 0.75217 0.42376 0.0
Zn114 Zn 0.5776 0.16357 0.59224 0.0
Zn115 Zn 0.76836 0.09204 0.64618 0.0
Zn116 Zn 0.67554 0.15421 0.62055 0.0
C117 C 0.83575 0.19896 0.6174 0.0
C118 C 0.69135 0.9894 0.61499 0.0
O119 O 0.57533 0.17724 0.63886 0.0
O120 O 0.5091 0.10672 0.61112 0.0
C121 C 0.63856 0.30137 0.60243 0.0
O122 O 0.76862 0.21933 0.61085 0.0
O123 O 0.84887 0.14317 0.63089 0.0
O124 O 0.74013 0.99291 0.63438 0.0
O125 O 0.6612 0.04691 0.60573 0.0
O126 O 0.57487 0.27336 0.59959 0.0
O127 O 0.69472 0.25868 0.60416 0.0
O128 O 0.70955 0.20158 0.58457 0.0
O129 O 0.62906 0.13259 0.56149 0.0
C130 C 0.68442 0.17394 0.56255 0.0
O131 O 0.64707 0.18532 0.65812 0.0
O132 O 0.74086 0.12888 0.67977 0.0
C133 C 0.51389 0.14491 0.63144 0.0
C134 C 0.68523 0.16937 0.67963 0.0
Zn135 Zn 0.01411 0.08561 0.82897 0.0
Zn136 Zn 0.20705 0.15916 0.88171 0.0
Zn137 Zn 0.10729 0.1485 0.8542 0.0
C138 C 0.1017 0.16394 0.91236 0.0
C139 C 0.14057 0.29544 0.87336 0.0
O140 O 0.13333 0.18035 0.81653 0.0
O141 O 0.03834 0.1242 0.79535 0.0
C142 C 0.09415 0.98341 0.85883 0.0
O143 O 0.07405 0.19246 0.89088 0.0
O144 O 0.15835 0.12459 0.91244 0.0
O145 O 0.20508 0.26935 0.87558 0.0
O146 O 0.08564 0.25131 0.87167 0.0
O147 O 0.04419 0.98665 0.83981 0.0
O148 O 0.12428 0.04109 0.86815 0.0
O149 O 0.01283 0.21149 0.86447 0.0
O150 O 0.93293 0.13393 0.84484 0.0
C151 C 0.94579 0.19022 0.85827 0.0
O152 O 0.20534 0.17711 0.83558 0.0
O153 O 0.27671 0.10663 0.86159 0.0
C154 C 0.09371 0.16486 0.79519 0.0
C155 C 0.26855 0.1472 0.84202 0.0
C156 C 0.16711 0.41715 0.08978 0.0
C157 C 0.18384 0.41048 0.06434 0.0
H158 H 0.15755 0.48686 0.12182 0.0
C159 C 0.20037 0.47283 0.05108 0.0
H160 H 0.15305 0.37041 0.10038 0.0
C161 C 0.20317 0.53994 0.06349 0.0
C162 C 0.18829 0.54604 0.08915 0.0
H163 H 0.2143 0.4693 0.03154 0.0
H164 H 0.22101 0.58607 0.05358 0.0
C165 C 0.16933 0.48397 0.102 0.0
C166 C 0.91517 0.94871 0.32934 0.0
C167 C 0.93318 0.89402 0.31271 0.0
H168 H 0.84227 0.98452 0.35572 0.0
C169 C 0.88684 0.83364 0.30874 0.0
H170 H 0.94946 0.99609 0.33252 0.0
C171 C 0.82552 0.82671 0.32218 0.0
C172 C 0.80915 0.88048 0.33948 0.0
H173 H 0.89996 0.79027 0.29621 0.0
H174 H 0.79293 0.77811 0.31988 0.0
C175 C 0.85381 0.94204 0.34256 0.0
C176 C 0.71247 0.47288 0.57813 0.0
C177 C 0.64988 0.51688 0.577 0.0
H178 H 0.75898 0.37001 0.58815 0.0
C179 C 0.58725 0.49318 0.58744 0.0
H180 H 0.76144 0.4909 0.57027 0.0
C181 C 0.5852 0.42394 0.59723 0.0
C182 C 0.64624 0.3781 0.59702 0.0
H183 H 0.53868 0.52683 0.58679 0.0
H184 H 0.53478 0.4053 0.60396 0.0
C185 C 0.71113 0.40419 0.58849 0.0
C186 C 0.74811 0.22076 0.86003 0.0
C187 C 0.7384 0.27981 0.84336 0.0
H188 H 0.82547 0.14661 0.8792 0.0
C189 C 0.80019 0.32278 0.84032 0.0
H190 H 0.70196 0.18651 0.86289 0.0
C191 C 0.87141 0.29998 0.84999 0.0
C192 C 0.88127 0.23382 0.86257 0.0
H193 H 0.79421 0.3693 0.8279 0.0
H194 H 0.91842 0.32852 0.84429 0.0
C195 C 0.81914 0.19791 0.86953 0.0
C196 C 0.18594 0.48998 0.88531 0.0
C197 C 0.12592 0.51234 0.89763 0.0
H198 H 0.23744 0.40261 0.86784 0.0
C199 C 0.06623 0.46579 0.89899 0.0
H200 H 0.23241 0.52539 0.88411 0.0
C201 C 0.0682 0.39619 0.88919 0.0
C202 C 0.13102 0.37194 0.87873 0.0
H203 H 0.0193 0.48262 0.90835 0.0
H204 H 0.02289 0.36016 0.89137 0.0
C205 C 0.18878 0.41997 0.8761 0.0
C206 C 0.88127 0.81937 0.16901 0.0
C207 C 0.83373 0.87845 0.16413 0.0
H208 H 0.97559 0.76308 0.15838 0.0
C209 C 0.84968 0.93034 0.14632 0.0
H210 H 0.86967 0.77818 0.18248 0.0
C211 C 0.91003 0.92182 0.13275 0.0
C212 C 0.95573 0.8613 0.13672 0.0
H213 H 0.81436 0.97671 0.14245 0.0
H214 H 0.92004 0.96203 0.11869 0.0
C215 C 0.94175 0.81066 0.15527 0.0
C216 C 0.63201 0.48159 0.41896 0.0
C217 C 0.57215 0.43319 0.41659 0.0
H218 H 0.67268 0.58406 0.40823 0.0
C219 C 0.50431 0.45567 0.40338 0.0
H220 H 0.6852 0.46609 0.42891 0.0
C221 C 0.49748 0.52268 0.39161 0.0
C222 C 0.55788 0.56972 0.393 0.0
H223 H 0.45641 0.42095 0.40175 0.0
H224 H 0.44498 0.5372 0.38086 0.0
C225 C 0.62491 0.54932 0.40724 0.0
C226 C 0.98423 0.32886 0.63481 0.0
C227 C 0.04454 0.28433 0.63117 0.0
H228 H 0.86626 0.3369 0.63187 0.0
C229 C 0.03255 0.22624 0.61391 0.0
H230 H 0.99198 0.37487 0.64761 0.0
C231 C 0.96065 0.20514 0.60471 0.0
C232 C 0.90005 0.2419 0.61258 0.0
H233 H 0.07748 0.19094 0.61048 0.0
H234 H 0.95255 0.15422 0.59466 0.0
C235 C 0.91211 0.30766 0.62554 0.0
C236 C 0.37884 0.24482 0.66812 0.0
C237 C 0.31093 0.22022 0.65553 0.0
H238 H 0.49641 0.23984 0.67047 0.0
C239 C 0.31058 0.16568 0.63691 0.0
H240 H 0.38056 0.28641 0.68275 0.0
C241 C 0.37683 0.13785 0.6304 0.0
C242 C 0.44507 0.16456 0.64213 0.0
H243 H 0.25897 0.14439 0.62739 0.0
H244 H 0.37434 0.09704 0.61547 0.0
C245 C 0.44521 0.21758 0.66133 0.0
C246 C 0.49679 0.92775 0.15873 0.0
C247 C 0.55903 0.88993 0.15261 0.0
H248 H 0.37843 0.93333 0.15417 0.0
C249 C 0.55001 0.83746 0.13308 0.0
H250 H 0.5025 0.96846 0.17373 0.0
C251 C 0.47941 0.8169 0.12226 0.0
C252 C 0.41699 0.84959 0.13035 0.0
H253 H 0.59689 0.80705 0.12814 0.0
H254 H 0.47343 0.7711 0.1093 0.0
C255 C 0.42601 0.90812 0.14743 0.0
C256 C 0.40511 0.26989 0.81529 0.0
C257 C 0.46972 0.22878 0.81923 0.0
H258 H 0.2909 0.27701 0.8204 0.0
C259 C 0.46665 0.15881 0.82871 0.0
H260 H 0.40659 0.32398 0.80793 0.0
C261 C 0.39995 0.13061 0.83462 0.0
C262 C 0.33524 0.17213 0.83132 0.0
H263 H 0.51595 0.126 0.83153 0.0
H264 H 0.39939 0.07694 0.84242 0.0
C265 C 0.3386 0.2422 0.8217 0.0
C266 C 0.2194 0.86931 0.34523 0.0
C267 C 0.20867 0.91459 0.32366 0.0
H268 H 0.29778 0.80989 0.37071 0.0
C269 C 0.27028 0.94929 0.31561 0.0
H270 H 0.17325 0.84134 0.35178 0.0
C271 C 0.34176 0.93195 0.32681 0.0
C272 C 0.3523 0.87949 0.34604 0.0
H273 H 0.2635 0.98477 0.29912 0.0
H274 H 0.38851 0.95323 0.3184 0.0
C275 C 0.29076 0.85146 0.35618 0.0
C276 C 0.61172 0.84624 0.56776 0.0
C277 C 0.64854 0.78465 0.57817 0.0
H278 H 0.59608 0.95964 0.57125 0.0
C279 C 0.69522 0.79054 0.60157 0.0
H280 H 0.57468 0.84319 0.54989 0.0
C281 C 0.70705 0.85677 0.6138 0.0
C282 C 0.67273 0.9189 0.6029 0.0
H283 H 0.72528 0.74451 0.60993 0.0
H284 H 0.74494 0.85941 0.63148 0.0
C285 C 0.62372 0.91283 0.58002 0.0
C286 C 0.23145 0.1354 0.09477 0.0
C287 C 0.25531 0.14935 0.07072 0.0
H288 H 0.20441 0.0542 0.12085 0.0
C289 C 0.2921 0.09454 0.05872 0.0
H290 H 0.20319 0.17633 0.10459 0.0
C291 C 0.29231 0.02435 0.06802 0.0
C292 C 0.25715 0.00853 0.08968 0.0
H293 H 0.31275 0.10412 0.04046 0.0
H294 H 0.31082 0.98143 0.05631 0.0
C295 C 0.23272 0.0653 0.10424 0.0
C296 C 0.53467 0.15251 0.38392 0.0
C297 C 0.51472 0.16827 0.40845 0.0
H298 H 0.55744 0.06912 0.3577 0.0
C299 C 0.47988 0.11469 0.4215 0.0
H300 H 0.5614 0.19264 0.37337 0.0
C301 C 0.47812 0.04385 0.41259 0.0
C302 C 0.50983 0.02615 0.39029 0.0
H303 H 0.46268 0.12575 0.44026 0.0
H304 H 0.4616 0.00196 0.42498 0.0
C305 C 0.5318 0.08167 0.37482 0.0
C306 C 0.08784 0.78558 0.87271 0.0
C307 C 0.13631 0.7799 0.8957 0.0
H308 H 0.03721 0.85376 0.84305 0.0
C309 C 0.17561 0.84111 0.90549 0.0
H310 H 0.05577 0.73998 0.86482 0.0
C311 C 0.16405 0.90723 0.89312 0.0
C312 C 0.11318 0.91314 0.87072 0.0
H313 H 0.21417 0.83822 0.92298 0.0
H314 H 0.19341 0.9539 0.90147 0.0
C315 C 0.07664 0.85125 0.86034 0.0
C316 C 0.08643 0.17291 0.9829 0.0
C317 C 0.11852 0.2406 0.98908 0.0
H318 H 0.05562 0.09488 0.95314 0.0
C319 C 0.12674 0.28821 0.96888 0.0
H320 H 0.07694 0.13564 -0.00202 0.0
C321 C 0.11139 0.26552 0.94318 0.0
C322 C 0.08809 0.19494 0.93727 0.0
H323 H 0.15137 0.34054 0.97282 0.0
H324 H 0.12574 0.30062 0.92819 0.0
C325 C 0.07285 0.14976 0.95724 0.0
C326 C 0.06722 0.88786 0.21704 0.0
C327 C 0.07657 0.84522 0.23923 0.0
H328 H 0.08377 0.89623 0.1772 0.0
C329 C 0.10134 0.77446 0.23764 0.0
H330 H 0.04893 0.94291 0.21811 0.0
C331 C 0.12086 0.74777 0.21446 0.0
C332 C 0.11577 0.79145 0.19251 0.0
H333 H 0.10929 0.74114 0.25471 0.0
H334 H 0.14324 0.69404 0.21402 0.0
C335 C 0.08683 0.86107 0.19374 0.0
C336 C 0.72637 0.67488 0.48847 0.0
C337 C 0.65876 0.65335 0.49591 0.0
H338 H 0.7812 0.72166 0.45882 0.0
C339 C 0.59593 0.64966 0.47753 0.0
H340 H 0.7752 0.67821 0.50254 0.0
C341 C 0.59918 0.67453 0.45247 0.0
C342 C 0.6652 0.70362 0.44586 0.0
H343 H 0.54321 0.63362 0.48315 0.0
H344 H 0.54869 0.67753 0.4392 0.0
C345 C 0.72963 0.69975 0.46355 0.0
C346 C 0.67824 0.18491 0.7512 0.0
C347 C 0.63591 0.24691 0.75306 0.0
H348 H 0.72531 0.11127 0.72658 0.0
C349 C 0.60787 0.2835 0.73053 0.0
H350 H 0.69957 0.15545 0.76837 0.0
C351 C 0.62368 0.25874 0.70638 0.0
C352 C 0.66561 0.19606 0.70457 0.0
H353 H 0.57512 0.33155 0.73168 0.0
H354 H 0.6047 0.28939 0.68929 0.0
C355 C 0.69271 0.15962 0.72726 0.0
C356 C 0.06688 0.64422 0.98916 0.0
C357 C 0.13381 0.6528 0.97897 0.0
H358 H 1.0081 0.66381 0.02163 0.0
C359 C 0.19681 0.67579 -0.00503 0.0
H360 H 0.01765 0.62721 0.97688 0.0
C361 C 0.19172 0.69515 0.0205 0.0
C362 C 0.12347 0.6922 0.03014 0.0
H363 H 0.24867 0.68311 0.98723 0.0
H364 H 0.23961 0.71798 0.03203 0.0
C365 C 0.06152 0.66471 0.01463 0.0
C366 C 0.69715 0.88688 0.25946 0.0
C367 C 0.69167 0.83965 0.23837 0.0
H368 H 0.67787 0.90218 0.29875 0.0
C369 C 0.67135 0.76813 0.24149 0.0
H370 H 0.71196 0.9425 0.25717 0.0
C371 C 0.65223 0.74496 0.2651 0.0
C372 C 0.65337 0.79305 0.28591 0.0
H373 H 0.66638 0.73129 0.22524 0.0
H374 H 0.6331 0.6904 0.26672 0.0
C375 C 0.67799 0.86369 0.28316 0.0
C376 C 0.65664 0.30394 0.50837 0.0
C377 C 0.66625 0.25906 0.48738 0.0
H378 H 0.65656 0.31132 0.5491 0.0
C379 C 0.70112 0.19216 0.49237 0.0
H380 H 0.62975 0.35549 0.50538 0.0
C381 C 0.71531 0.1664 0.51761 0.0
C382 C 0.69802 0.20839 0.53832 0.0
H383 H 0.71148 0.15701 0.47663 0.0
H384 H 0.73427 0.11174 0.52074 0.0
C385 C 0.67264 0.27875 0.53362 0.0
C386 C 0.07932 0.20026 0.72368 0.0
C387 C 0.14118 0.24363 0.72177 0.0
H388 H 0.0164 0.14149 0.74806 0.0
C389 C 0.18769 0.26201 0.74434 0.0
H390 H 0.04339 0.18362 0.70658 0.0
C391 C 0.17217 0.23736 0.7684 0.0
C392 C 0.11082 0.19309 0.77018 0.0
H393 H 0.23593 0.29518 0.74336 0.0
H394 H 0.20823 0.25257 0.78547 0.0
C395 C 0.06433 0.17538 0.74752 0.0
loop_
_geom_bond_atom_site_label_1
_geom_bond_atom_site_label_2
_geom_bond_distance
_geom_bond_site_symmetry_2
_ccdc_geom_bond_type
H0 C3 0.931 . S
H1 C6 0.928 . S
H2 C8 0.930 . S
C3 H0 0.931 . S
C3 C4 1.413 . S
C3 C5 1.360 . S
C4 C3 1.413 . S
C4 C8 1.429 . S
C5 C3 1.360 . S
C5 C6 1.372 . S
C6 H1 0.928 . S
C6 C5 1.372 . S
C6 C7 1.404 . S
C7 C6 1.404 . S
C7 C8 1.391 . S
C8 H2 0.930 . S
C8 C4 1.429 . S
C8 C7 1.391 . S
H9 C12 0.931 . S
H10 C15 0.928 . S
H11 C17 0.930 . S
C12 H9 0.931 . S
C12 C13 1.413 . S
C12 C14 1.360 . S
C13 C12 1.413 . S
C13 C17 1.429 . S
C14 C12 1.360 . S
C14 C15 1.372 . S
C15 H10 0.928 . S
C15 C14 1.372 . S
C15 C16 1.404 . S
C16 C15 1.404 . S
C16 C17 1.391 . S
C17 H11 0.930 . S
C17 C13 1.429 . S
C17 C16 1.391 . S
H18 C21 0.931 . S
H19 C24 0.928 . S
H20 C26 0.930 . S
C21 H18 0.931 . S
C21 C22 1.413 . S
C21 C23 1.360 . S
C22 C21 1.413 . S
C22 C26 1.429 . S
C23 C21 1.360 . S
C23 C24 1.372 . S
C24 H19 0.928 . S
C24 C23 1.372 . S
C24 C25 1.404 . S
C25 C24 1.404 . S
C25 C26 1.391 . S
C26 H20 0.930 . S
C26 C22 1.429 . S
C26 C25 1.391 . S
H27 C30 0.931 . S
H28 C33 0.928 . S
H29 C35 0.930 . S
C30 H27 0.931 . S
C30 C31 1.413 . S
C30 C32 1.360 . S
C31 C30 1.413 . S
C31 C35 1.429 . S
C32 C30 1.360 . S
C32 C33 1.372 . S
C33 H28 0.928 . S
C33 C32 1.372 . S
C33 C34 1.404 . S
C34 C33 1.404 . S
C34 C35 1.391 . S
C35 H29 0.930 . S
C35 C31 1.429 . S
C35 C34 1.391 . S
H36 C39 0.931 . S
H37 C42 0.928 . S
H38 C44 0.930 . S
C39 H36 0.931 . S
C39 C40 1.413 . S
C39 C41 1.360 . S
C40 C39 1.413 . S
C40 C44 1.429 . S
C41 C39 1.360 . S
C41 C42 1.372 . S
C42 H37 0.928 . S
C42 C41 1.372 . S
C42 C43 1.404 . S
C43 C42 1.404 . S
C43 C44 1.391 . S
C44 H38 0.930 . S
C44 C40 1.429 . S
C44 C43 1.391 . S
H45 C48 0.931 . S
H46 C51 0.928 . S
H47 C53 0.930 . S
C48 H45 0.931 . S
C48 C49 1.413 . S
C48 C50 1.360 . S
C49 C48 1.413 . S
C49 C53 1.429 . S
C50 C48 1.360 . S
C50 C51 1.372 . S
C51 H46 0.928 . S
C51 C50 1.372 . S
C51 C52 1.404 . S
C52 C51 1.404 . S
C52 C53 1.391 . S
C53 H47 0.930 . S
C53 C49 1.429 . S
C53 C52 1.391 . S
H54 C57 0.931 . S
H55 C60 0.928 . S
H56 C62 0.930 . S
C57 H54 0.931 . S
C57 C58 1.413 . S
C57 C59 1.360 . S
C58 C57 1.413 . S
C58 C62 1.429 . S
C59 C57 1.360 . S
C59 C60 1.372 . S
C60 H55 0.928 . S
C60 C59 1.372 . S
C60 C61 1.404 . S
C61 C60 1.404 . S
C61 C62 1.391 . S
C62 H56 0.930 . S
C62 C58 1.429 . S
C62 C61 1.391 . S
H63 C66 0.931 . S
H64 C69 0.928 . S
H65 C71 0.930 . S
C66 H63 0.931 . S
C66 C67 1.413 . S
C66 C68 1.360 . S
C67 C66 1.413 . S
C67 C71 1.429 . S
C68 C66 1.360 . S
C68 C69 1.372 . S
C69 H64 0.928 . S
C69 C68 1.372 . S
C69 C70 1.404 . S
C70 C69 1.404 . S
C70 C71 1.391 . S
C71 H65 0.930 . S
C71 C67 1.429 . S
C71 C70 1.391 . S
Zn72 O78 1.920 . S
Zn72 O84 1.898 . S
Zn72 O87 1.905 . S
Zn73 O81 1.905 . S
Zn73 O82 1.898 . S
Zn73 O90 1.920 1_455 S
Zn74 O77 2.080 . S
Zn74 O80 2.114 . S
Zn74 O83 2.120 . S
Zn74 O85 2.120 . S
Zn74 O86 2.114 . S
Zn74 O89 2.080 . S
C75 O80 1.166 . S
C75 O81 1.182 . S
C76 O82 1.167 . S
C76 O83 1.299 . S
O77 Zn74 2.080 . S
O77 C91 1.305 . S
O78 Zn72 1.920 . S
O78 C91 1.234 . S
C79 O84 1.167 . S
C79 O85 1.299 . S
O80 Zn74 2.114 . S
O80 C75 1.166 . S
O81 Zn73 1.905 . S
O81 C75 1.182 . S
O82 Zn73 1.898 . S
O82 C76 1.167 . S
O83 Zn74 2.120 . S
O83 C76 1.299 . S
O84 Zn72 1.898 . S
O84 C79 1.167 . S
O85 Zn74 2.120 . S
O85 C79 1.299 . S
O86 Zn74 2.114 . S
O86 C88 1.166 . S
O87 Zn72 1.905 . S
O87 C88 1.182 . S
C88 O86 1.166 . S
C88 O87 1.182 . S
O89 Zn74 2.080 . S
O89 C92 1.305 1_455 S
O90 Zn73 1.920 1_655 S
O90 C92 1.234 . S
C91 O77 1.305 . S
C91 O78 1.234 . S
C92 O89 1.305 1_655 S
C92 O90 1.234 . S
Zn93 O99 1.920 . S
Zn93 O105 1.898 . S
Zn93 O108 1.905 . S
Zn94 O102 1.905 . S
Zn94 O103 1.898 . S
Zn94 O111 1.920 . S
Zn95 O98 2.080 . S
Zn95 O101 2.114 . S
Zn95 O104 2.120 . S
Zn95 O106 2.120 . S
Zn95 O107 2.114 . S
Zn95 O110 2.080 . S
C96 O101 1.166 . S
C96 O102 1.182 . S
C97 O103 1.167 . S
C97 O104 1.299 . S
O98 Zn95 2.080 . S
O98 C112 1.305 . S
O99 Zn93 1.920 . S
O99 C112 1.234 . S
C100 O105 1.167 . S
C100 O106 1.299 . S
O101 Zn95 2.114 . S
O101 C96 1.166 . S
O102 Zn94 1.905 . S
O102 C96 1.182 . S
O103 Zn94 1.898 . S
O103 C97 1.167 . S
O104 Zn95 2.120 . S
O104 C97 1.299 . S
O105 Zn93 1.898 . S
O105 C100 1.167 . S
O106 Zn95 2.120 . S
O106 C100 1.299 . S
O107 Zn95 2.114 . S
O107 C109 1.166 . S
O108 Zn93 1.905 . S
O108 C109 1.182 . S
C109 O107 1.166 . S
C109 O108 1.182 . S
O110 Zn95 2.080 . S
O110 C113 1.305 . S
O111 Zn94 1.920 . S
O111 C113 1.234 . S
C112 O98 1.305 . S
C112 O99 1.234 . S
C113 O110 1.305 . S
C113 O111 1.234 . S
Zn114 O120 1.920 . S
Zn114 O126 1.898 . S
Zn114 O129 1.905 . S
Zn115 O123 1.905 . S
Zn115 O124 1.898 . S
Zn115 O132 1.920 . S
Zn116 O119 2.080 . S
Zn116 O122 2.114 . S
Zn116 O125 2.120 . S
Zn116 O127 2.120 . S
Zn116 O128 2.114 . S
Zn116 O131 2.080 . S
C117 O122 1.166 . S
C117 O123 1.182 . S
C118 O124 1.167 . S
C118 O125 1.299 . S
O119 Zn116 2.080 . S
O119 C133 1.305 . S
O120 Zn114 1.920 . S
O120 C133 1.234 . S
C121 O126 1.167 . S
C121 O127 1.299 . S
O122 Zn116 2.114 . S
O122 C117 1.166 . S
O123 Zn115 1.905 . S
O123 C117 1.182 . S
O124 Zn115 1.898 . S
O124 C118 1.167 . S
O125 Zn116 2.120 . S
O125 C118 1.299 . S
O126 Zn114 1.898 . S
O126 C121 1.167 . S
O127 Zn116 2.120 . S
O127 C121 1.299 . S
O128 Zn116 2.114 . S
O128 C130 1.166 . S
O129 Zn114 1.905 . S
O129 C130 1.182 . S
C130 O128 1.166 . S
C130 O129 1.182 . S
O131 Zn116 2.080 . S
O131 C134 1.305 . S
O132 Zn115 1.920 . S
O132 C134 1.234 . S
C133 O119 1.305 . S
C133 O120 1.234 . S
C134 O131 1.305 . S
C134 O132 1.234 . S
Zn135 O141 1.920 . S
Zn135 O147 1.898 . S
Zn135 O150 1.905 1_455 S
Zn136 O144 1.905 . S
Zn136 O145 1.898 . S
Zn136 O153 1.920 . S
Zn137 O140 2.080 . S
Zn137 O143 2.114 . S
Zn137 O146 2.120 . S
Zn137 O148 2.120 . S
Zn137 O149 2.114 . S
Zn137 O152 2.080 . S
C138 O143 1.166 . S
C138 O144 1.182 . S
C139 O145 1.167 . S
C139 O146 1.299 . S
O140 Zn137 2.080 . S
O140 C154 1.305 . S
O141 Zn135 1.920 . S
O141 C154 1.234 . S
C142 O147 1.167 . S
C142 O148 1.299 . S
O143 Zn137 2.114 . S
O143 C138 1.166 . S
O144 Zn136 1.905 . S
O144 C138 1.182 . S
O145 Zn136 1.898 . S
O145 C139 1.167 . S
O146 Zn137 2.120 . S
O146 C139 1.299 . S
O147 Zn135 1.898 . S
O147 C142 1.167 . S
O148 Zn137 2.120 . S
O148 C142 1.299 . S
O149 Zn137 2.114 . S
O149 C151 1.166 1_455 S
O150 Zn135 1.905 1_655 S
O150 C151 1.182 . S
C151 O149 1.166 1_655 S
C151 O150 1.182 . S
O152 Zn137 2.080 . S
O152 C155 1.305 . S
O153 Zn136 1.920 . S
O153 C155 1.234 . S
C154 O140 1.305 . S
C154 O141 1.234 . S
C155 O152 1.305 . S
C155 O153 1.234 . S
C156 C157 1.387 . S
C156 H160 0.950 . S
C156 C165 1.390 . S
C157 C156 1.387 . S
C157 C159 1.387 . S
H158 C165 0.950 . S
C159 C157 1.387 . S
C159 C161 1.390 . S
C159 H163 0.950 . S
H160 C156 0.950 . S
C161 C159 1.390 . S
C161 C162 1.387 . S
C161 H164 0.950 . S
C162 C161 1.387 . S
C162 C165 1.387 . S
H163 C159 0.950 . S
H164 C161 0.950 . S
C165 C156 1.390 . S
C165 H158 0.950 . S
C165 C162 1.387 . S
C166 C167 1.387 . S
C166 H170 0.950 . S
C166 C175 1.390 . S
C167 C166 1.387 . S
C167 C169 1.387 . S
H168 C175 0.950 . S
C169 C167 1.387 . S
C169 C171 1.390 . S
C169 H173 0.950 . S
H170 C166 0.950 . S
C171 C169 1.390 . S
C171 C172 1.387 . S
C171 H174 0.950 . S
C172 C171 1.387 . S
C172 C175 1.387 . S
H173 C169 0.950 . S
H174 C171 0.950 . S
C175 C166 1.390 . S
C175 H168 0.950 . S
C175 C172 1.387 . S
C176 C177 1.387 . S
C176 H180 0.950 . S
C176 C185 1.390 . S
C177 C176 1.387 . S
C177 C179 1.387 . S
H178 C185 0.950 . S
C179 C177 1.387 . S
C179 C181 1.390 . S
C179 H183 0.950 . S
H180 C176 0.950 . S
C181 C179 1.390 . S
C181 C182 1.387 . S
C181 H184 0.950 . S
C182 C181 1.387 . S
C182 C185 1.387 . S
H183 C179 0.950 . S
H184 C181 0.950 . S
C185 C176 1.390 . S
C185 H178 0.950 . S
C185 C182 1.387 . S
C186 C187 1.387 . S
C186 H190 0.950 . S
C186 C195 1.390 . S
C187 C186 1.387 . S
C187 C189 1.387 . S
H188 C195 0.950 . S
C189 C187 1.387 . S
C189 C191 1.390 . S
C189 H193 0.950 . S
H190 C186 0.950 . S
C191 C189 1.390 . S
C191 C192 1.387 . S
C191 H194 0.950 . S
C192 C191 1.387 . S
C192 C195 1.387 . S
H193 C189 0.950 . S
H194 C191 0.950 . S
C195 C186 1.390 . S
C195 H188 0.950 . S
C195 C192 1.387 . S
C196 C197 1.387 . S
C196 H200 0.950 . S
C196 C205 1.390 . S
C197 C196 1.387 . S
C197 C199 1.387 . S
H198 C205 0.950 . S
C199 C197 1.387 . S
C199 C201 1.390 . S
C199 H203 0.950 . S
H200 C196 0.950 . S
C201 C199 1.390 . S
C201 C202 1.387 . S
C201 H204 0.950 . S
C202 C201 1.387 . S
C202 C205 1.387 . S
H203 C199 0.950 . S
H204 C201 0.950 . S
C205 C196 1.390 . S
C205 H198 0.950 . S
C205 C202 1.387 . S
C206 C207 1.387 . S
C206 H210 0.950 . S
C206 C215 1.390 . S
C207 C206 1.387 . S
C207 C209 1.387 . S
H208 C215 0.950 . S
C209 C207 1.387 . S
C209 C211 1.390 . S
C209 H213 0.950 . S
H210 C206 0.950 . S
C211 C209 1.390 . S
C211 C212 1.387 . S
C211 H214 0.950 . S
C212 C211 1.387 . S
C212 C215 1.387 . S
H213 C209 0.950 . S
H214 C211 0.950 . S
C215 C206 1.390 . S
C215 H208 0.950 . S
C215 C212 1.387 . S
C216 C217 1.387 . S
C216 H220 0.950 . S
C216 C225 1.390 . S
C217 C216 1.387 . S
C217 C219 1.387 . S
H218 C225 0.950 . S
C219 C217 1.387 . S
C219 C221 1.390 . S
C219 H223 0.950 . S
H220 C216 0.950 . S
C221 C219 1.390 . S
C221 C222 1.387 . S
C221 H224 0.950 . S
C222 C221 1.387 . S
C222 C225 1.387 . S
H223 C219 0.950 . S
H224 C221 0.950 . S
C225 C216 1.390 . S
C225 H218 0.950 . S
C225 C222 1.387 . S
C226 C227 1.382 1_655 S
C226 H230 0.950 . S
C226 C235 1.390 . S
C227 C226 1.382 1_455 S
C227 C229 1.382 1_455 S
H228 C235 0.950 . S
C229 C227 1.382 1_655 S
C229 C231 1.390 . S
C229 H233 0.950 . S
H230 C226 0.950 . S
C231 C229 1.390 . S
C231 C232 1.387 . S
C231 H234 0.950 . S
C232 C231 1.387 . S
C232 C235 1.387 . S
H233 C229 0.950 . S
H234 C231 0.950 . S
C235 C226 1.390 . S
C235 H228 0.950 . S
C235 C232 1.387 . S
C236 C237 1.387 . S
C236 H240 0.950 . S
C236 C245 1.390 . S
C237 C236 1.387 . S
C237 C239 1.387 . S
H238 C245 0.950 . S
C239 C237 1.387 . S
C239 C241 1.390 . S
C239 H243 0.950 . S
H240 C236 0.950 . S
C241 C239 1.390 . S
C241 C242 1.387 . S
C241 H244 0.950 . S
C242 C241 1.387 . S
C242 C245 1.387 . S
H243 C239 0.950 . S
H244 C241 0.950 . S
C245 C236 1.390 . S
C245 H238 0.950 . S
C245 C242 1.387 . S
C246 C247 1.387 . S
C246 H250 0.950 . S
C246 C255 1.390 . S
C247 C246 1.387 . S
C247 C249 1.387 . S
H248 C255 0.950 . S
C249 C247 1.387 . S
C249 C251 1.390 . S
C249 H253 0.950 . S
H250 C246 0.950 . S
C251 C249 1.390 . S
C251 C252 1.387 . S
C251 H254 0.950 . S
C252 C251 1.387 . S
C252 C255 1.387 . S
H253 C249 0.950 . S
H254 C251 0.950 . S
C255 C246 1.390 . S
C255 H248 0.950 . S
C255 C252 1.387 . S
C256 C257 1.387 . S
C256 H260 0.950 . S
C256 C265 1.390 . S
C257 C256 1.387 . S
C257 C259 1.387 . S
H258 C265 0.950 . S
C259 C257 1.387 . S
C259 C261 1.390 . S
C259 H263 0.950 . S
H260 C256 0.950 . S
C261 C259 1.390 . S
C261 C262 1.387 . S
C261 H264 0.950 . S
C262 C261 1.387 . S
C262 C265 1.387 . S
H263 C259 0.950 . S
H264 C261 0.950 . S
C265 C256 1.390 . S
C265 H258 0.950 . S
C265 C262 1.387 . S
C266 C267 1.387 . S
C266 H270 0.950 . S
C266 C275 1.390 . S
C267 C266 1.387 . S
C267 C269 1.387 . S
H268 C275 0.950 . S
C269 C267 1.387 . S
C269 C271 1.390 . S
C269 H273 0.950 . S
H270 C266 0.950 . S
C271 C269 1.390 . S
C271 C272 1.387 . S
C271 H274 0.950 . S
C272 C271 1.387 . S
C272 C275 1.387 . S
H273 C269 0.950 . S
H274 C271 0.950 . S
C275 C266 1.390 . S
C275 H268 0.950 . S
C275 C272 1.387 . S
C276 C277 1.387 . S
C276 H280 0.950 . S
C276 C285 1.390 . S
C277 C276 1.387 . S
C277 C279 1.387 . S
H278 C285 0.950 1_545 S
C279 C277 1.387 . S
C279 C281 1.390 . S
C279 H283 0.950 . S
H280 C276 0.950 . S
C281 C279 1.390 . S
C281 C282 1.387 1_565 S
C281 H284 0.950 . S
C282 C281 1.387 1_545 S
C282 C285 1.387 1_545 S
H283 C279 0.950 . S
H284 C281 0.950 . S
C285 C276 1.390 . S
C285 H278 0.950 1_565 S
C285 C282 1.387 1_565 S
C286 C287 1.387 . S
C286 H290 0.950 . S
C286 C295 1.390 . S
C287 C286 1.387 . S
C287 C289 1.387 . S
H288 C295 0.950 . S
C289 C287 1.387 . S
C289 C291 1.390 1_545 S
C289 H293 0.950 . S
H290 C286 0.950 . S
C291 C289 1.390 1_565 S
C291 C292 1.387 . S
C291 H294 0.950 . S
C292 C291 1.387 . S
C292 C295 1.387 1_565 S
H293 C289 0.950 . S
H294 C291 0.950 . S
C295 C286 1.390 . S
C295 H288 0.950 . S
C295 C292 1.387 1_545 S
C296 C297 1.387 . S
C296 H300 0.950 . S
C296 C305 1.390 . S
C297 C296 1.387 . S
C297 C299 1.387 . S
H298 C305 0.950 . S
C299 C297 1.387 . S
C299 C301 1.390 1_545 S
C299 H303 0.950 . S
H300 C296 0.950 . S
C301 C299 1.390 1_565 S
C301 C302 1.387 . S
C301 H304 0.950 . S
C302 C301 1.387 . S
C302 C305 1.387 1_565 S
H303 C299 0.950 . S
H304 C301 0.950 . S
C305 C296 1.390 . S
C305 H298 0.950 . S
C305 C302 1.387 1_545 S
C306 C307 1.387 . S
C306 H310 0.950 . S
C306 C315 1.390 . S
C307 C306 1.387 . S
C307 C309 1.387 . S
H308 C315 0.950 . S
C309 C307 1.387 . S
C309 C311 1.390 . S
C309 H313 0.950 . S
H310 C306 0.950 . S
C311 C309 1.390 . S
C311 C312 1.387 1_565 S
C311 H314 0.950 1_565 S
C312 C311 1.387 1_545 S
C312 C315 1.387 1_545 S
H313 C309 0.950 . S
H314 C311 0.950 1_545 S
C315 C306 1.390 . S
C315 H308 0.950 . S
C315 C312 1.387 1_565 S
C316 C317 1.387 1_556 S
C316 H320 0.950 1_556 S
C316 C325 1.390 . S
C317 C316 1.387 1_554 S
C317 C319 1.387 1_554 S
H318 C325 0.950 . S
C319 C317 1.387 1_556 S
C319 C321 1.390 . S
C319 H323 0.950 1_556 S
H320 C316 0.950 1_554 S
C321 C319 1.390 . S
C321 C322 1.387 . S
C321 H324 0.950 . S
C322 C321 1.387 . S
C322 C325 1.387 . S
H323 C319 0.950 1_554 S
H324 C321 0.950 . S
C325 C316 1.390 . S
C325 H318 0.950 . S
C325 C322 1.387 . S
C326 C327 1.387 . S
C326 H330 0.950 . S
C326 C335 1.390 . S
C327 C326 1.387 . S
C327 C329 1.387 . S
H328 C335 0.950 . S
C329 C327 1.387 . S
C329 C331 1.390 . S
C329 H333 0.950 . S
H330 C326 0.950 . S
C331 C329 1.390 . S
C331 C332 1.387 . S
C331 H334 0.950 . S
C332 C331 1.387 . S
C332 C335 1.387 . S
H333 C329 0.950 . S
H334 C331 0.950 . S
C335 C326 1.390 . S
C335 H328 0.950 . S
C335 C332 1.387 . S
C336 C337 1.387 . S
C336 H340 0.950 . S
C336 C345 1.390 . S
C337 C336 1.387 . S
C337 C339 1.387 . S
H338 C345 0.950 . S
C339 C337 1.387 . S
C339 C341 1.390 . S
C339 H343 0.950 . S
H340 C336 0.950 . S
C341 C339 1.390 . S
C341 C342 1.387 . S
C341 H344 0.950 . S
C342 C341 1.387 . S
C342 C345 1.387 . S
H343 C339 0.950 . S
H344 C341 0.950 . S
C345 C336 1.390 . S
C345 H338 0.950 . S
C345 C342 1.387 . S
C346 C347 1.387 . S
C346 H350 0.950 . S
C346 C355 1.390 . S
C347 C346 1.387 . S
C347 C349 1.387 . S
H348 C355 0.950 . S
C349 C347 1.387 . S
C349 C351 1.390 . S
C349 H353 0.950 . S
H350 C346 0.950 . S
C351 C349 1.390 . S
C351 C352 1.387 . S
C351 H354 0.950 . S
C352 C351 1.387 . S
C352 C355 1.387 . S
H353 C349 0.950 . S
H354 C351 0.950 . S
C355 C346 1.390 . S
C355 H348 0.950 . S
C355 C352 1.387 . S
C356 C357 1.387 . S
C356 H360 0.950 . S
C356 C365 1.390 1_556 S
C357 C356 1.387 . S
C357 C359 1.387 1_556 S
H358 C365 0.950 . S
C359 C357 1.387 1_554 S
C359 C361 1.390 . S
C359 H363 0.950 1_554 S
H360 C356 0.950 . S
C361 C359 1.390 . S
C361 C362 1.387 . S
C361 H364 0.950 . S
C362 C361 1.387 . S
C362 C365 1.387 . S
H363 C359 0.950 1_556 S
H364 C361 0.950 . S
C365 C356 1.390 1_554 S
C365 H358 0.950 . S
C365 C362 1.387 . S
C366 C367 1.387 . S
C366 H370 0.950 . S
C366 C375 1.390 . S
C367 C366 1.387 . S
C367 C369 1.387 . S
H368 C375 0.950 . S
C369 C367 1.387 . S
C369 C371 1.390 . S
C369 H373 0.950 . S
H370 C366 0.950 . S
C371 C369 1.390 . S
C371 C372 1.387 . S
C371 H374 0.950 . S
C372 C371 1.387 . S
C372 C375 1.387 . S
H373 C369 0.950 . S
H374 C371 0.950 . S
C375 C366 1.390 . S
C375 H368 0.950 . S
C375 C372 1.387 . S
C376 C377 1.387 . S
C376 H380 0.950 . S
C376 C385 1.390 . S
C377 C376 1.387 . S
C377 C379 1.387 . S
H378 C385 0.950 . S
C379 C377 1.387 . S
C379 C381 1.390 . S
C379 H383 0.950 . S
H380 C376 0.950 . S
C381 C379 1.390 . S
C381 C382 1.387 . S
C381 H384 0.950 . S
C382 C381 1.387 . S
C382 C385 1.387 . S
H383 C379 0.950 . S
H384 C381 0.950 . S
C385 C376 1.390 . S
C385 H378 0.950 . S
C385 C382 1.387 . S
C386 C387 1.387 . S
C386 H390 0.950 . S
C386 C395 1.390 . S
C387 C386 1.387 . S
C387 C389 1.387 . S
H388 C395 0.950 . S
C389 C387 1.387 . S
C389 C391 1.390 . S
C389 H393 0.950 . S
H390 C386 0.950 . S
C391 C389 1.390 . S
C391 C392 1.387 . S
C391 H394 0.950 . S
C392 C391 1.387 . S
C392 C395 1.387 . S
H393 C389 0.950 . S
H394 C391 0.950 . S
C395 C386 1.390 . S
C395 H388 0.950 . S
C395 C392 1.387 . S
C162 C79 1.424 . S
C157 C4 1.542 . S
C172 C97 1.359 . S
C167 C13 1.434 1_655 S
C177 C25 1.409 . S
C182 C121 1.293 . S
C192 C151 1.270 . S
C187 C34 1.457 . S
C202 C139 1.291 . S
C197 C40 1.420 . S
C207 C52 1.436 . S
C212 C92 1.370 . S
C217 C61 1.547 . S
C222 C112 1.438 . S
C227 C67 1.478 . S
C232 C117 1.282 . S
C237 C70 1.431 . S
C242 C133 1.365 . S
C247 C49 1.477 . S
C252 C88 1.283 . S
C262 C155 1.376 . S
C257 C31 1.444 . S
C272 C100 1.255 . S
C267 C16 1.447 . S
C277 C22 1.535 . S
C282 C118 1.420 . S
C287 C7 1.418 . S
C292 C76 1.295 . S
C302 C96 1.301 . S
C297 C58 1.425 . S
C312 C142 1.428 . S
C307 C43 1.545 . S
C322 C138 1.315 . S
C317 C5 1.497 . S
C332 C91 1.392 . S
C327 C14 1.485 . S
C337 C23 1.483 . S
C342 C113 1.295 . S
C347 C32 1.504 . S
C352 C134 1.405 . S
C362 C75 1.314 . S
C357 C41 1.505 . S
C367 C50 1.525 . S
C372 C109 1.420 . S
C382 C130 1.326 . S
C377 C59 1.521 . S
C392 C154 1.401 . S
C387 C68 1.506 . S
