# Generated by pormake.
# Topology zzz, (3,6)-cn, num edge types: 1
# Building blocks:
#     Node 0, Type 0, BuildingBlock: MIDCAF_clean_linker_0, # of connection points: 3
#     Node 1, Type 0, BuildingBlock: MIDCAF_clean_linker_0, # of connection points: 3
#     Node 2, Type 0, BuildingBlock: MIDCAF_clean_linker_0, # of connection points: 3
#     Node 3, Type 0, BuildingBlock: MIDCAF_clean_linker_0, # of connection points: 3
#     Node 4, Type 0, BuildingBlock: MIDCAF_clean_linker_0, # of connection points: 3
#     Node 5, Type 0, BuildingBlock: MIDCAF_clean_linker_0, # of connection points: 3
#     Node 6, Type 0, BuildingBlock: MIDCAF_clean_linker_0, # of connection points: 3
#     Node 7, Type 0, BuildingBlock: MIDCAF_clean_linker_0, # of connection points: 3
#     Node 8, Type 1, BuildingBlock: BETDIP_clean_sbu_0, # of connection points: 6
#     Node 9, Type 1, BuildingBlock: BETDIP_clean_sbu_0, # of connection points: 6
#     Node 10, Type 1, BuildingBlock: BETDIP_clean_sbu_0, # of connection points: 6
#     Node 11, Type 1, BuildingBlock: BETDIP_clean_sbu_0, # of connection points: 6
#     Edge 12, Type (0, 1), BuildingBlock: MIFKUJ_clean_linker_0, # of connection points: 2
#     Edge 13, Type (0, 1), BuildingBlock: MIFKUJ_clean_linker_0, # of connection points: 2
#     Edge 14, Type (0, 1), BuildingBlock: MIFKUJ_clean_linker_0, # of connection points: 2
#     Edge 15, Type (0, 1), BuildingBlock: MIFKUJ_clean_linker_0, # of connection points: 2
#     Edge 16, Type (0, 1), BuildingBlock: MIFKUJ_clean_linker_0, # of connection points: 2
#     Edge 17, Type (0, 1), BuildingBlock: MIFKUJ_clean_linker_0, # of connection points: 2
#     Edge 18, Type (0, 1), BuildingBlock: MIFKUJ_clean_linker_0, # of connection points: 2
#     Edge 19, Type (0, 1), BuildingBlock: MIFKUJ_clean_linker_0, # of connection points: 2
#     Edge 20, Type (0, 1), BuildingBlock: MIFKUJ_clean_linker_0, # of connection points: 2
#     Edge 21, Type (0, 1), BuildingBlock: MIFKUJ_clean_linker_0, # of connection points: 2
#     Edge 22, Type (0, 1), BuildingBlock: MIFKUJ_clean_linker_0, # of connection points: 2
#     Edge 23, Type (0, 1), BuildingBlock: MIFKUJ_clean_linker_0, # of connection points: 2
#     Edge 24, Type (0, 1), BuildingBlock: MIFKUJ_clean_linker_0, # of connection points: 2
#     Edge 25, Type (0, 1), BuildingBlock: MIFKUJ_clean_linker_0, # of connection points: 2
#     Edge 26, Type (0, 1), BuildingBlock: MIFKUJ_clean_linker_0, # of connection points: 2
#     Edge 27, Type (0, 1), BuildingBlock: MIFKUJ_clean_linker_0, # of connection points: 2
#     Edge 28, Type (0, 1), BuildingBlock: MIFKUJ_clean_linker_0, # of connection points: 2
#     Edge 29, Type (0, 1), BuildingBlock: MIFKUJ_clean_linker_0, # of connection points: 2
#     Edge 30, Type (0, 1), BuildingBlock: MIFKUJ_clean_linker_0, # of connection points: 2
#     Edge 31, Type (0, 1), BuildingBlock: MIFKUJ_clean_linker_0, # of connection points: 2
#     Edge 32, Type (0, 1), BuildingBlock: MIFKUJ_clean_linker_0, # of connection points: 2
#     Edge 33, Type (0, 1), BuildingBlock: MIFKUJ_clean_linker_0, # of connection points: 2
#     Edge 34, Type (0, 1), BuildingBlock: MIFKUJ_clean_linker_0, # of connection points: 2
#     Edge 35, Type (0, 1), BuildingBlock: MIFKUJ_clean_linker_0, # of connection points: 2
# Relax obj value: 0.410
# Max RMSD: 0.268
# Mean RMSD: 0.241
data_MOF--net-zzz--node1-BETDIP_clean_sbu_0--node2-MIDCAF_clean_linker_0--edge1-MIFKUJ_clean_linker_0
_symmetry_space_group_name_H-M    P1
_symmetry_Int_Tables_number       1
_symmetry_cell_setting            triclinic
loop_
_symmetry_equiv_pos_as_xyz
'x, y, z'
_cell_length_a     74.457846
_cell_length_b     74.409196
_cell_length_c     23.059234
_cell_angle_alpha  89.873153
_cell_angle_beta   89.990408
_cell_angle_gamma 90.004197
loop_
_atom_site_label
_atom_site_type_symbol
_atom_site_fract_x
_atom_site_fract_y
_atom_site_fract_z
_atom_type_partial_charge
C0 C 0.77092 0.51269 0.36559 0.0
C1 C 0.78163 0.49836 0.38598 0.0
C2 C 0.77701 0.48079 0.36941 0.0
C3 C 0.76283 0.47769 0.33103 0.0
H4 H 0.68207 0.48288 0.24225 0.0
H5 H 0.65298 0.48959 0.19744 0.0
H6 H 0.67851 0.52899 0.08708 0.0
H7 H 0.70745 0.52221 0.1322 0.0
H8 H 0.72479 0.47029 0.0572 0.0
H9 H 0.73957 0.45407 0.9786 0.0
H10 H 0.77873 0.43348 0.09988 0.0
H11 H 0.764 0.44945 0.17828 0.0
H12 H 0.74903 0.52086 0.31036 0.0
H13 H 0.77401 0.52639 0.37783 0.0
H14 H 0.785 0.46943 0.3835 0.0
H15 H 0.76028 0.46404 0.31704 0.0
N16 N 0.7246 0.49742 0.25073 0.0
N17 N 0.72051 0.48206 0.16234 0.0
N18 N 0.7461 0.47659 0.21799 0.0
C19 C 0.71449 0.49391 0.20249 0.0
C20 C 0.73627 0.47331 0.16977 0.0
C21 C 0.74053 0.48856 0.25853 0.0
C22 C 0.69689 0.50236 0.19164 0.0
C23 C 0.68124 0.49357 0.21038 0.0
C24 C 0.66466 0.49721 0.18399 0.0
C25 C 0.66341 0.5097 0.13818 0.0
C26 C 0.6789 0.51944 0.12258 0.0
C27 C 0.69548 0.51567 0.14868 0.0
C28 C 0.7434 0.4614 0.12391 0.0
C29 C 0.73633 0.46199 0.06734 0.0
C30 C 0.74479 0.45274 0.02224 0.0
C31 C 0.76034 0.44257 0.033 0.0
C32 C 0.76665 0.44103 0.09023 0.0
C33 C 0.75831 0.45037 0.13514 0.0
C34 C 0.75267 0.49202 0.30845 0.0
C35 C 0.75648 0.50954 0.32752 0.0
C36 C 0.97792 0.78053 0.38584 0.0
C37 C 0.99443 0.7869 0.40741 0.0
C38 C 0.00992 0.77642 0.39772 0.0
C39 C 0.00909 0.76066 0.36431 0.0
H40 H 0.96546 0.69182 0.25271 0.0
H41 H 0.96403 0.66179 0.20988 0.0
H42 H 0.02144 0.6628 0.18376 0.0
H43 H 0.02272 0.69272 0.22693 0.0
H44 H 0.99681 0.7243 0.08118 0.0
H45 H 0.99724 0.73879 0.98609 0.0
H46 H 0.98873 0.7903 0.0676 0.0
H47 H 0.98805 0.77599 0.16213 0.0
H48 H 0.96451 0.76118 0.33215 0.0
H49 H 0.96575 0.78829 0.39164 0.0
H50 H 0.02284 0.78078 0.41404 0.0
H51 H 0.02142 0.75361 0.35414 0.0
N52 N 0.99369 0.72445 0.29405 0.0
N53 N 0.99358 0.72237 0.19207 0.0
N54 N 0.99234 0.75054 0.236 0.0
C55 C 0.994 0.71424 0.24465 0.0
C56 C 0.99273 0.74044 0.18724 0.0
C57 C 0.99288 0.7428 0.28927 0.0
C58 C 0.99426 0.69441 0.24454 0.0
C59 C 0.97787 0.68517 0.2408 0.0
C60 C 0.97703 0.66811 0.21509 0.0
C61 C 0.99258 0.65995 0.19238 0.0
C62 C 0.0092 0.66855 0.20106 0.0
C63 C 0.01 0.68565 0.22643 0.0
C64 C 0.99242 0.749 0.12938 0.0
C65 C 0.99487 0.73871 0.0788 0.0
C66 C 0.99515 0.74696 0.02433 0.0
C67 C 0.99284 0.7656 0.01946 0.0
C68 C 0.99017 0.77583 0.06991 0.0
C69 C 0.98996 0.76764 0.12422 0.0
C70 C 0.99277 0.75501 0.33987 0.0
C71 C 0.97715 0.76489 0.35205 0.0
C72 C 0.72668 0.98816 0.42542 0.0
C73 C 0.71419 1.00107 0.40631 0.0
C74 C 0.71855 0.01172 0.35788 0.0
C75 C 0.73442 0.0087 0.32684 0.0
H76 H 0.81782 0.97418 0.27276 0.0
H77 H 0.84581 0.97916 0.21872 0.0
H78 H 0.81988 0.02097 0.11945 0.0
H79 H 0.7921 0.01607 0.1739 0.0
H80 H 0.76956 0.97025 0.09689 0.0
H81 H 0.74858 0.96639 0.01682 0.0
H82 H 0.70796 0.94819 0.13679 0.0
H83 H 0.72876 0.95223 0.21718 0.0
H84 H 0.75104 0.9738 0.40599 0.0
H85 H 0.7236 0.97965 0.46226 0.0
H86 H 0.70919 0.02176 0.34221 0.0
H87 H 0.73673 0.01618 0.28715 0.0
N88 N 0.7755 0.99372 0.2903 0.0
N89 N 0.77733 0.97673 0.20434 0.0
N90 N 0.75101 0.97626 0.25914 0.0
C91 C 0.78514 0.98784 0.24349 0.0
C92 C 0.76031 0.9708 0.2119 0.0
C93 C 0.75841 0.9875 0.29864 0.0
C94 C 0.80298 0.99504 0.22837 0.0
C95 C 0.81846 0.98505 0.24151 0.0
C96 C 0.8344 0.9878 0.21019 0.0
C97 C 0.83497 1.00031 0.16436 0.0
C98 C 0.81982 0.01115 0.1542 0.0
C99 C 0.804 0.00854 0.18592 0.0
C100 C 0.75058 0.96215 0.1636 0.0
C101 C 0.75642 0.96469 0.10608 0.0
C102 C 0.74443 0.96242 0.06002 0.0
C103 C 0.72658 0.95747 0.07106 0.0
C104 C 0.72161 0.95235 0.12749 0.0
C105 C 0.73351 0.9547 0.17347 0.0
C106 C 0.74623 0.99488 0.34319 0.0
C107 C 0.74247 0.98493 0.39362 0.0
C108 C 0.56234 0.74127 0.0899 0.0
C109 C 0.55787 0.74826 0.03505 0.0
C110 C 0.55156 0.76604 0.03135 0.0
C111 C 0.54736 0.77558 0.08169 0.0
H112 H 0.48941 0.80185 0.16529 0.0
H113 H 0.48161 0.83033 0.11891 0.0
H114 H 0.52282 0.85701 0.21856 0.0
H115 H 0.53071 0.82832 0.26399 0.0
H116 H 0.55023 0.74673 0.3262 0.0
H117 H 0.54482 0.71953 0.38207 0.0
H118 H 0.4882 0.73181 0.38786 0.0
H119 H 0.49371 0.75941 0.3314 0.0
H120 H 0.56041 0.74433 0.18162 0.0
H121 H 0.56726 0.72765 0.09469 0.0
H122 H 0.54839 0.77197 0.98965 0.0
H123 H 0.54101 0.78861 0.07727 0.0
N124 N 0.53092 0.79043 0.18434 0.0
N125 N 0.51653 0.78458 0.27359 0.0
N126 N 0.53701 0.76386 0.23416 0.0
C127 C 0.51958 0.79565 0.22714 0.0
C128 C 0.52558 0.76861 0.27734 0.0
C129 C 0.53972 0.77457 0.18749 0.0
C130 C 0.51038 0.81299 0.2191 0.0
C131 C 0.49613 0.81399 0.17939 0.0
C132 C 0.49178 0.83033 0.15248 0.0
C133 C 0.50177 0.84596 0.16426 0.0
C134 C 0.51503 0.84519 0.20778 0.0
C135 C 0.51934 0.82884 0.23469 0.0
C136 C 0.52238 0.75518 0.32398 0.0
C137 C 0.53666 0.7439 0.3405 0.0
C138 C 0.53354 0.72821 0.37216 0.0
C139 C 0.51604 0.72326 0.38823 0.0
C140 C 0.50185 0.73524 0.37595 0.0
C141 C 0.505 0.75109 0.34396 0.0
C142 C 0.54944 0.76747 0.13645 0.0
C143 C 0.5582 0.7508 0.14009 0.0
C144 C 0.21177 0.51918 0.99234 0.0
C145 C 0.20828 0.50337 0.96108 0.0
C146 C 0.21928 0.48825 0.97129 0.0
C147 C 0.23282 0.48871 0.01386 0.0
H148 H 0.30183 0.50368 0.09641 0.0
H149 H 0.33286 0.49829 0.1287 0.0
H150 H 0.31262 0.4684 0.27586 0.0
H151 H 0.28221 0.47336 0.2428 0.0
H152 H 0.25906 0.51044 0.31425 0.0
H153 H 0.24295 0.51856 0.40256 0.0
H154 H 0.19495 0.52807 0.30202 0.0
H155 H 0.21084 0.51983 0.21392 0.0
H156 H 0.22656 0.5316 0.06104 0.0
H157 H 0.2035 0.53101 0.98619 0.0
H158 H 0.21703 0.47589 0.94767 0.0
H159 H 0.2404 0.47661 0.02305 0.0
N160 N 0.26279 0.49668 0.10599 0.0
N161 N 0.26244 0.50174 0.20679 0.0
N162 N 0.23746 0.5095 0.15124 0.0
C163 C 0.27117 0.49587 0.1588 0.0
C164 C 0.24566 0.50859 0.20355 0.0
C165 C 0.24577 0.50359 0.10243 0.0
C166 C 0.28963 0.48889 0.16699 0.0
C167 C 0.30418 0.49537 0.13427 0.0
C168 C 0.32192 0.4925 0.15339 0.0
C169 C 0.32538 0.48301 0.20533 0.0
C170 C 0.31071 0.47553 0.23535 0.0
C171 C 0.29316 0.47843 0.21646 0.0
C172 C 0.23622 0.51436 0.25688 0.0
C173 C 0.24507 0.5143 0.31086 0.0
C174 C 0.2359 0.51901 0.36149 0.0
C175 C 0.21768 0.52376 0.3592 0.0
C176 C 0.20893 0.52415 0.30521 0.0
C177 C 0.21809 0.51954 0.25463 0.0
C178 C 0.23538 0.5042 0.04758 0.0
C179 C 0.22501 0.51953 0.0353 0.0
C180 C 0.01573 0.23407 0.9369 0.0
C181 C 0.00826 0.21788 0.95806 0.0
C182 C 1.00112 0.2178 0.01453 0.0
C183 C 0.00263 0.23285 0.05028 0.0
H184 H 0.98638 0.31061 0.09805 0.0
H185 H 0.98121 0.34125 0.13313 0.0
H186 H 0.03849 0.34837 0.15324 0.0
H187 H 0.04341 0.31817 0.11701 0.0
H188 H 0.02423 0.28642 0.27243 0.0
H189 H 0.02795 0.27373 0.36954 0.0
H190 H 0.04372 0.22307 0.29393 0.0
H191 H 0.03994 0.2356 0.19738 0.0
H192 H 0.02386 0.26122 0.95679 0.0
H193 H 0.02136 0.23466 0.89364 0.0
H194 H 0.99478 0.20586 0.03196 0.0
H195 H 0.99771 0.2319 0.09442 0.0
N196 N 0.01376 0.28065 0.06476 0.0
N197 N 0.02432 0.28625 0.15943 0.0
N198 N 0.02211 0.25676 0.12644 0.0
C199 C 0.01815 0.29251 0.10793 0.0
C200 C 0.02637 0.26848 0.1691 0.0
C201 C 0.01592 0.26257 0.07422 0.0
C202 C 0.01531 0.31213 0.1039 0.0
C203 C 0.99784 0.31915 0.10689 0.0
C204 C 0.9949 0.33659 0.12829 0.0
C205 C 0.0094 0.34731 0.1473 0.0
C206 C 0.02694 0.34076 0.13878 0.0
C207 C 0.02982 0.3234 0.11754 0.0
C208 C 0.03153 0.26189 0.22724 0.0
C209 C 0.02892 0.2727 0.27658 0.0
C210 C 0.03106 0.26549 0.33219 0.0
C211 C 0.03616 0.24747 0.33933 0.0
C212 C 0.04004 0.2371 0.28993 0.0
C213 C 0.03766 0.24421 0.23449 0.0
C214 C 0.01109 0.24863 0.0307 0.0
C215 C 0.01711 0.24933 0.97292 0.0
C216 C 0.29291 0.01242 0.03534 0.0
C217 C 0.28921 0.01691 0.97758 0.0
C218 C 0.27133 0.02079 0.9618 0.0
C219 C 0.25761 0.02107 0.00411 0.0
H220 H 0.19829 0.05186 0.14977 0.0
H221 H 0.16726 0.0531 0.18409 0.0
H222 H 0.1647 0.99513 0.18085 0.0
H223 H 0.19566 0.99407 0.14559 0.0
H224 H 0.22593 0.01902 0.31625 0.0
H225 H 0.23933 0.01604 0.4127 0.0
H226 H 0.29218 0.02099 0.33667 0.0
H227 H 0.27899 0.02438 0.24179 0.0
H228 H 0.28313 0.00919 0.12109 0.0
H229 H 0.30646 0.00901 0.04864 0.0
H230 H 0.2681 0.02423 0.91734 0.0
H231 H 0.2441 0.02474 0.9914 0.0
N232 N 0.2301 0.02034 0.1019 0.0
N233 N 0.22584 0.02268 0.20317 0.0
N234 N 0.25472 0.02011 0.16558 0.0
C235 C 0.21891 0.02204 0.14877 0.0
C236 C 0.24375 0.02178 0.21192 0.0
C237 C 0.24827 0.01932 0.11062 0.0
C238 C 0.19921 0.0229 0.14387 0.0
C239 C 0.19072 0.03947 0.15331 0.0
C240 C 0.17305 0.04013 0.174 0.0
C241 C 0.16357 0.02421 0.18632 0.0
C242 C 0.17152 0.00767 0.17152 0.0
C243 C 0.18922 0.00703 0.15077 0.0
C244 C 0.25139 0.02176 0.27116 0.0
C245 C 0.24039 0.01978 0.32043 0.0
C246 C 0.24805 0.01802 0.37564 0.0
C247 C 0.26681 0.01834 0.38253 0.0
C248 C 0.27767 0.02104 0.33338 0.0
C249 C 0.27008 0.02277 0.27857 0.0
C250 C 0.26162 0.01734 0.06263 0.0
C251 C 0.2794 0.01255 0.07699 0.0
C252 C 0.55588 0.27687 0.27382 0.0
C253 C 0.55387 0.26764 0.32675 0.0
C254 C 0.54591 0.25052 0.32646 0.0
C255 C 0.53918 0.24328 0.27492 0.0
H256 H 0.48436 0.21759 0.19226 0.0
H257 H 0.4768 0.18786 0.22871 0.0
H258 H 0.51344 0.16415 0.10522 0.0
H259 H 0.52118 0.19427 0.06965 0.0
H260 H 0.49219 0.25757 0.99591 0.0
H261 H 0.48796 0.28364 0.93121 0.0
H262 H 0.53951 0.30443 0.98386 0.0
H263 H 0.5438 0.27875 0.04725 0.0
H264 H 0.55039 0.27753 0.18309 0.0
H265 H 0.56167 0.29021 0.27231 0.0
H266 H 0.54433 0.24298 0.36638 0.0
H267 H 0.5325 0.23035 0.27663 0.0
N268 N 0.52203 0.23091 0.16973 0.0
N269 N 0.51092 0.2367 0.07572 0.0
N270 N 0.52957 0.25761 0.12278 0.0
C271 C 0.51227 0.22566 0.1231 0.0
C272 C 0.51977 0.25283 0.07559 0.0
C273 C 0.53079 0.2468 0.16991 0.0
C274 C 0.50307 0.20817 0.12744 0.0
C275 C 0.49012 0.20595 0.17106 0.0
C276 C 0.48588 0.18884 0.19214 0.0
C277 C 0.49464 0.1735 0.17047 0.0
C278 C 0.5066 0.17566 0.12351 0.0
C279 C 0.5108 0.19286 0.10228 0.0
C280 C 0.5182 0.26617 0.02752 0.0
C281 C 0.50278 0.26749 0.99245 0.0
C282 C 0.50034 0.28243 0.95557 0.0
C283 C 0.51325 0.29628 0.95344 0.0
C284 C 0.52914 0.29423 0.98548 0.0
C285 C 0.53159 0.27942 0.02177 0.0
C286 C 0.54022 0.25306 0.22269 0.0
C287 C 0.54919 0.26966 0.22248 0.0
Tb288 Tb 0.00953 0.99932 0.7172 0.0
Tb289 Tb 0.98639 0.01059 0.62039 0.0
C290 C 0.02205 0.98204 0.80112 0.0
C291 C 0.02602 0.96272 0.80477 0.0
C292 C 0.0197 0.95284 0.85228 0.0
C293 C 0.01954 0.93409 0.85038 0.0
C294 C 0.02568 0.92496 0.80082 0.0
C295 C 0.03321 0.93486 0.75499 0.0
C296 C 0.03326 0.95361 0.75677 0.0
C297 C 0.02729 0.01064 0.62543 0.0
C298 C 0.99437 0.96983 0.62598 0.0
C299 C 0.97446 0.02793 0.53595 0.0
C300 C 0.97879 0.04658 0.52005 0.0
C301 C 0.9968 0.05225 0.51794 0.0
C302 C 1.00094 0.07045 0.51461 0.0
C303 C 0.98721 0.08338 0.51334 0.0
C304 C 0.96921 0.07768 0.5131 0.0
C305 C 0.96504 0.0594 0.51639 0.0
C306 C 0.96876 0.9997 0.71343 0.0
C307 C 1.00247 0.03992 0.70803 0.0
O308 O 0.00496 0.9858 0.79563 0.0
O309 O 0.03206 0.99146 0.76564 0.0
O310 O 0.0133 1.00109 0.62539 0.0
O311 O 0.03237 0.0133 0.67848 0.0
O312 O 1.00201 0.97337 0.67673 0.0
O313 O 0.98805 0.98283 0.59277 0.0
O314 O 0.98762 0.01633 0.53149 0.0
O315 O 0.96566 0.02618 0.58473 0.0
O316 O 0.98281 0.00914 0.71231 0.0
O317 O 0.96357 0.9968 0.66055 0.0
O318 O 0.99746 0.03613 0.65423 0.0
O319 O 0.00572 0.02687 0.74556 0.0
H320 H 0.01396 0.95961 0.88949 0.0
H321 H 0.01402 0.92675 0.88688 0.0
H322 H 0.03793 0.92821 0.71612 0.0
H323 H 0.03798 0.96093 0.71906 0.0
H324 H 0.00775 0.04273 0.52169 0.0
H325 H 0.01494 0.07442 0.51555 0.0
H326 H 0.95836 0.08736 0.51124 0.0
H327 H 0.95108 0.05532 0.51855 0.0
Tb328 Tb 0.50134 0.01911 0.7006 0.0
Tb329 Tb 0.4908 0.99389 0.61066 0.0
C330 C 0.51927 0.03293 0.78051 0.0
C331 C 0.5385 0.02983 0.79321 0.0
C332 C 0.54471 0.01244 0.8064 0.0
C333 C 0.56305 0.00872 0.80707 0.0
C334 C 0.57562 0.02225 0.79456 0.0
C335 C 0.56952 0.03985 0.7844 0.0
C336 C 0.5511 0.04359 0.78359 0.0
C337 C 0.49101 0.03464 0.6034 0.0
C338 C 0.53092 1.00197 0.61703 0.0
C339 C 0.47428 0.97824 0.53092 0.0
C340 C 0.45622 0.97025 0.53189 0.0
C341 C 0.44395 0.97474 0.48825 0.0
C342 C 0.42578 0.97062 0.4948 0.0
C343 C 0.41955 0.9618 0.54509 0.0
C344 C 0.43212 0.95624 0.58692 0.0
C345 C 0.45026 0.96055 0.58064 0.0
C346 C 0.50032 0.97836 0.70949 0.0
C347 C 0.46067 0.0115 0.69493 0.0
O348 O 0.5085 0.01922 0.78855 0.0
O349 O 0.51603 0.0412 0.73149 0.0
O350 O 0.50065 0.02076 0.6078 0.0
O351 O 0.48742 0.0407 0.65478 0.0
O352 O 0.5269 0.00735 0.67012 0.0
O353 O 0.51799 0.99824 0.57998 0.0
O354 O 0.47452 0.99574 0.53674 0.0
O355 O 0.48646 0.97033 0.56294 0.0
O356 O 0.49111 0.9924 0.70331 0.0
O357 O 0.50398 0.97208 0.65856 0.0
O358 O 0.46455 1.00218 0.64745 0.0
O359 O 0.47347 0.01872 0.72695 0.0
H360 H 0.53544 1.00146 0.81394 0.0
H361 H 0.56739 0.99513 0.81657 0.0
H362 H 0.57896 0.05055 0.77513 0.0
H363 H 0.54667 0.05707 0.77301 0.0
H364 H 0.44825 0.98243 0.45075 0.0
H365 H 0.4165 0.9754 0.46207 0.0
H366 H 0.42785 0.94922 0.62575 0.0
H367 H 0.45943 0.95708 0.61538 0.0
Tb368 Tb 0.48692 0.51322 0.7037 0.0
Tb369 Tb 0.50857 0.50074 0.59556 0.0
C370 C 0.47646 0.53065 0.78999 0.0
C371 C 0.48311 0.54788 0.81199 0.0
C372 C 0.50026 0.55386 0.79573 0.0
C373 C 0.50634 0.57073 0.8127 0.0
C374 C 0.49535 0.582 0.84612 0.0
C375 C 0.47817 0.57598 0.86267 0.0
C376 C 0.47209 0.55898 0.8457 0.0
C377 C 0.46816 0.50012 0.61639 0.0
C378 C 0.50182 0.5417 0.60927 0.0
C379 C 0.51641 0.48397 0.50591 0.0
C380 C 0.52637 0.46697 0.50529 0.0
C381 C 0.52553 0.45532 0.45777 0.0
C382 C 0.53247 0.43787 0.46252 0.0
C383 C 0.54 0.43191 0.51519 0.0
C384 C 0.54135 0.44384 0.5618 0.0
C385 C 0.53467 0.46122 0.55679 0.0
C386 C 0.53042 0.50695 0.68545 0.0
C387 C 0.49812 0.47289 0.69688 0.0
O388 O 0.48784 0.51725 0.79345 0.0
O389 O 0.46856 0.5315 0.73931 0.0
O390 O 0.48192 0.50989 0.61304 0.0
O391 O 0.46378 0.49819 0.67055 0.0
O392 O 0.49696 0.53828 0.66372 0.0
O393 O 0.50519 0.52872 0.57158 0.0
O394 O 0.50063 0.48271 0.53096 0.0
O395 O 0.52557 0.49804 0.52358 0.0
O396 O 0.5137 0.50844 0.68186 0.0
O397 O 0.53577 0.50193 0.63462 0.0
O398 O 0.50211 0.47566 0.64153 0.0
O399 O 0.49353 0.48614 0.73221 0.0
H400 H 0.50887 0.54565 0.76886 0.0
H401 H 0.51948 0.57514 0.7983 0.0
H402 H 0.46946 0.58441 0.8886 0.0
H403 H 0.45875 0.55462 0.85812 0.0
H404 H 0.51888 0.45942 0.4181 0.0
H405 H 0.53116 0.42877 0.42617 0.0
H406 H 0.54713 0.43956 0.60269 0.0
H407 H 0.53525 0.46988 0.59431 0.0
Tb408 Tb 0.99274 0.49104 0.70354 0.0
Tb409 Tb 1.00007 0.51975 0.62455 0.0
C410 C 0.97813 0.47114 0.77772 0.0
C411 C 0.95966 0.46397 0.7821 0.0
C412 C 0.94514 0.47528 0.79566 0.0
C413 C 0.92764 0.46859 0.79616 0.0
C414 C 0.92421 0.45046 0.78295 0.0
C415 C 0.93876 0.43915 0.76972 0.0
C416 C 0.9563 0.44582 0.76956 0.0
C417 C 0.00419 0.47968 0.60136 0.0
C418 C 0.96099 0.50669 0.62421 0.0
C419 C 0.01443 0.54056 0.55276 0.0
C420 C 0.03116 0.55087 0.55864 0.0
C421 C 0.04344 0.55123 0.51275 0.0
C422 C 0.06078 0.55781 0.52143 0.0
C423 C 0.06614 0.56425 0.57624 0.0
C424 C 0.0534 0.56487 0.62117 0.0
C425 C 0.03612 0.55811 0.61259 0.0
C426 C 0.98929 0.53097 0.72803 0.0
C427 C 0.03218 0.50347 0.70235 0.0
O428 O 0.98007 0.4885 0.78433 0.0
O429 O 0.9877 0.46501 0.73457 0.0
O430 O 0.99311 0.49226 0.61004 0.0
O431 O 0.00896 0.473 0.65086 0.0
O432 O 0.96556 0.49853 0.67309 0.0
O433 O 0.9734 0.5142 0.59138 0.0
O434 O 0.01658 0.52312 0.55156 0.0
O435 O 1.00124 0.54537 0.58671 0.0
O436 O 1.00014 0.51838 0.71777 0.0
O437 O 0.98442 0.53794 0.67915 0.0
O438 O 0.02734 0.51291 0.6561 0.0
O439 O 0.02004 0.49494 0.73363 0.0
H440 H 0.94722 0.48935 0.80558 0.0
H441 H 0.91681 0.47761 0.80785 0.0
H442 H 0.9366 0.42515 0.75896 0.0
H443 H 0.96724 0.43681 0.75882 0.0
H444 H 0.03994 0.54547 0.47112 0.0
H445 H 0.07028 0.55677 0.48604 0.0
H446 H 0.05699 0.56988 0.66367 0.0
H447 H 0.02693 0.55777 0.64903 0.0
H448 H 0.15695 0.04502 0.28119 0.0
H449 H 0.1315 0.04353 0.34756 0.0
H450 H 0.10705 1.0026 0.24181 0.0
H451 H 0.1326 0.00408 0.17436 0.0
H452 H 0.08211 0.03022 0.28955 0.0
H453 H 0.12775 0.98816 0.35015 0.0
H454 H 0.15869 0.9791 0.37466 0.0
H455 H 0.15998 0.01805 0.51172 0.0
H456 H 0.12913 0.02755 0.48737 0.0
H457 H 0.023 0.99823 0.51434 0.0
H458 H 0.04406 1.00147 0.43311 0.0
H459 H 0.07893 0.03358 0.54059 0.0
H460 H 0.05814 0.03007 0.62187 0.0
H461 H 0.09786 0.00909 0.48739 0.0
H462 H 0.05347 0.05199 0.42897 0.0
H463 H 0.02293 0.0626 0.40579 0.0
H464 H 0.01932 0.02418 0.26763 0.0
H465 H 0.04981 0.01321 0.29032 0.0
C466 C 0.14598 0.03601 0.27096 0.0
C467 C 0.14684 0.0247 0.22215 0.0
C468 C 0.13147 0.03509 0.3093 0.0
C469 C 0.11741 0.02289 0.29985 0.0
C470 C 0.11774 0.01214 0.24987 0.0
C471 C 0.1324 0.01292 0.21158 0.0
C472 C 0.10328 0.02048 0.34488 0.0
C473 C 0.08545 0.02534 0.33258 0.0
C474 C 0.10772 0.01452 0.40141 0.0
C475 C 0.12619 0.00868 0.41658 0.0
C476 C 0.13468 0.9949 0.38521 0.0
C477 C 0.1522 0.98967 0.39912 0.0
C478 C 0.16131 0.99803 0.44463 0.0
C479 C 0.15291 0.0116 0.47643 0.0
C480 C 0.13541 0.01691 0.46263 0.0
C481 C 0.03508 0.00613 0.52032 0.0
C482 C 0.03899 0.01383 0.57449 0.0
C483 C 0.04709 0.00803 0.47383 0.0
C484 C 0.06313 0.01782 0.48049 0.0
C485 C 0.06674 0.02588 0.53429 0.0
C486 C 0.05481 0.02392 0.58072 0.0
C487 C 0.0766 0.01904 0.43265 0.0
C488 C 0.09438 0.01391 0.44439 0.0
C489 C 0.0721 0.02495 0.37597 0.0
C490 C 0.05386 0.03165 0.36172 0.0
C491 C 0.04612 0.04571 0.39389 0.0
C492 C 0.02883 0.0518 0.38083 0.0
C493 C 0.01916 0.04401 0.33546 0.0
C494 C 0.02682 0.03018 0.30285 0.0
C495 C 0.04412 0.02404 0.31572 0.0
H496 H 0.00576 0.04873 0.32546 0.0
H497 H 0.17487 0.99396 0.45533 0.0
H498 H 0.46441 0.15843 0.2193 0.0
H499 H 0.46293 0.13252 0.28456 0.0
H500 H 0.51942 0.12281 0.25855 0.0
H501 H 0.52114 0.14887 0.19416 0.0
H502 H 0.49963 0.09094 0.26511 0.0
H503 H 0.50665 0.14573 0.37362 0.0
H504 H 0.49868 0.1766 0.40256 0.0
H505 H 0.44683 0.15838 0.45928 0.0
H506 H 0.45441 0.12743 0.42981 0.0
H507 H 0.51607 0.03795 0.51764 0.0
H508 H 0.51617 0.05957 0.43769 0.0
H509 H 0.46364 0.07821 0.4898 0.0
H510 H 0.46433 0.05758 0.57265 0.0
H511 H 0.48142 0.10533 0.46665 0.0
H512 H 0.47411 0.05019 0.35866 0.0
H513 H 0.48215 0.0193 0.32985 0.0
H514 H 0.53391 0.03763 0.27259 0.0
H515 H 0.52621 0.0686 0.30141 0.0
C516 C 0.47651 0.15072 0.22699 0.0
C517 C 0.49293 0.15594 0.20172 0.0
C518 C 0.47563 0.13586 0.26425 0.0
C519 C 0.49113 0.12586 0.27718 0.0
C520 C 0.50728 0.1303 0.24925 0.0
C521 C 0.5082 0.14521 0.21211 0.0
C522 C 0.4908 0.11174 0.32315 0.0
C523 C 0.49574 0.09406 0.30929 0.0
C524 C 0.48553 0.11574 0.38067 0.0
C525 C 0.48103 0.1343 0.39897 0.0
C526 C 0.4935 0.14833 0.39187 0.0
C527 C 0.48906 0.16584 0.40841 0.0
C528 C 0.47224 0.16946 0.4326 0.0
C529 C 0.45985 0.15556 0.44045 0.0
C530 C 0.46421 0.13803 0.42386 0.0
C531 C 0.50447 0.04654 0.51146 0.0
C532 C 0.49013 0.04608 0.55102 0.0
C533 C 0.50445 0.05885 0.46537 0.0
C534 C 0.48974 0.07044 0.4564 0.0
C535 C 0.4752 0.06953 0.49538 0.0
C536 C 0.47551 0.05766 0.54257 0.0
C537 C 0.48984 0.08419 0.40879 0.0
C538 C 0.48505 0.10198 0.42242 0.0
C539 C 0.49514 0.08021 0.35105 0.0
C540 C 0.49962 0.06168 0.33246 0.0
C541 C 0.48721 0.04761 0.34001 0.0
C542 C 0.49171 0.0301 0.32367 0.0
C543 C 0.50853 0.0265 0.29944 0.0
C544 C 0.52087 0.04043 0.29128 0.0
C545 C 0.51644 0.05797 0.30748 0.0
H546 H 0.512 0.01293 0.28694 0.0
H547 H 0.46883 0.18302 0.44539 0.0
H548 H 0.34093 0.45528 0.2666 0.0
H549 H 0.36772 0.45665 0.32751 0.0
H550 H 0.37874 0.51015 0.26537 0.0
H551 H 0.35144 0.50932 0.20625 0.0
H552 H 0.41089 0.48346 0.28342 0.0
H553 H 0.35922 0.51141 0.37796 0.0
H554 H 0.32761 0.51136 0.40998 0.0
H555 H 0.33717 0.46378 0.51108 0.0
H556 H 0.36878 0.46338 0.47878 0.0
H557 H 0.46807 0.51531 0.50848 0.0
H558 H 0.44616 0.51072 0.43097 0.0
H559 H 0.41948 0.47041 0.53487 0.0
H560 H 0.44079 0.47584 0.61375 0.0
H561 H 0.39547 0.48961 0.49181 0.0
H562 H 0.44657 0.46145 0.40732 0.0
H563 H 0.47804 0.45883 0.37513 0.0
H564 H 0.47026 0.50243 0.25546 0.0
H565 H 0.43882 0.50553 0.28768 0.0
C566 C 0.34906 0.46733 0.26538 0.0
C567 C 0.34372 0.48232 0.23208 0.0
C568 C 0.36449 0.46801 0.29994 0.0
C569 C 0.37515 0.48354 0.30128 0.0
C570 C 0.37073 0.498 0.26477 0.0
C571 C 0.35511 0.49745 0.23074 0.0
C572 C 0.3895 0.4854 0.34573 0.0
C573 C 0.40761 0.48501 0.32897 0.0
C574 C 0.38518 0.48683 0.40524 0.0
C575 C 0.36629 0.48726 0.42548 0.0
C576 C 0.35453 0.50085 0.40662 0.0
C577 C 0.33663 0.50092 0.42488 0.0
C578 C 0.33037 0.48754 0.46242 0.0
C579 C 0.34203 0.47411 0.48193 0.0
C580 C 0.35994 0.47396 0.46369 0.0
C581 C 0.45762 0.50535 0.51447 0.0
C582 C 0.4561 0.49594 0.56715 0.0
C583 C 0.44513 0.50263 0.4699 0.0
C584 C 0.43116 0.49002 0.47629 0.0
C585 C 0.43001 0.48027 0.52856 0.0
C586 C 0.44225 0.4833 0.57362 0.0
C587 C 0.41719 0.48768 0.43013 0.0
C588 C 0.399 0.488 0.44647 0.0
C589 C 0.42153 0.48581 0.37042 0.0
C590 C 0.44037 0.48382 0.35031 0.0
C591 C 0.45159 0.47055 0.3744 0.0
C592 C 0.46943 0.46898 0.35614 0.0
C593 C 0.47615 0.48048 0.31336 0.0
C594 C 0.46504 0.49354 0.28864 0.0
C595 C 0.4472 0.49521 0.30687 0.0
H596 H 0.48997 0.47924 0.2993 0.0
H597 H 0.31651 0.48761 0.4765 0.0
H598 H 0.02934 0.37864 0.14862 0.0
H599 H 0.02766 0.40308 0.21908 0.0
H600 H 0.9808 0.3787 0.29584 0.0
H601 H 0.98291 0.35379 0.22776 0.0
H602 H 0.00519 0.42872 0.25247 0.0
H603 H 0.98217 0.38285 0.44125 0.0
H604 H 0.98382 0.35096 0.47035 0.0
H605 H 0.03198 0.34443 0.37014 0.0
H606 H 0.03076 0.37633 0.34115 0.0
H607 H 0.98343 0.48225 0.50291 0.0
H608 H 0.98368 0.46199 0.41902 0.0
H609 H 0.0285 0.43321 0.49311 0.0
H610 H 0.02787 0.45302 0.57742 0.0
H611 H 0.00552 0.41013 0.45917 0.0
H612 H 0.03204 0.46197 0.37064 0.0
H613 H 0.03412 0.49381 0.34151 0.0
H614 H 0.9857 0.48859 0.24186 0.0
H615 H 0.9832 0.45677 0.27105 0.0
C616 C 0.01862 0.37846 0.18032 0.0
C617 C 0.00643 0.36397 0.18263 0.0
C618 C 0.01758 0.39259 0.22039 0.0
C619 C 0.00433 0.39263 0.26376 0.0
C620 C 0.99138 0.37886 0.26361 0.0
C621 C 0.99248 0.36467 0.22391 0.0
C622 C 0.00481 0.40625 0.31144 0.0
C623 C 0.00518 0.42466 0.29767 0.0
C624 C 0.00522 0.40106 0.37062 0.0
C625 C 0.00625 0.38192 0.38856 0.0
C626 C 0.99314 0.37462 0.42563 0.0
C627 C 0.994 0.35654 0.44208 0.0
C628 C 0.00796 0.34566 0.42194 0.0
C629 C 0.02114 0.35285 0.38554 0.0
C630 C 0.02037 0.37093 0.36906 0.0
C631 C 0.99349 0.47175 0.50077 0.0
C632 C 0.00561 0.46919 0.54682 0.0
C633 C 0.99365 0.46017 0.4527 0.0
C634 C 0.00614 0.44598 0.4493 0.0
C635 C 0.01862 0.44389 0.49457 0.0
C636 C 0.01833 0.45531 0.54271 0.0
C637 C 0.00577 0.43272 0.40047 0.0
C638 C 0.00541 0.41429 0.41404 0.0
C639 C 0.00585 0.43793 0.34126 0.0
C640 C 0.00734 0.45704 0.32351 0.0
C641 C 0.02176 0.46765 0.34287 0.0
C642 C 0.02303 0.48569 0.32629 0.0
C643 C 0.01002 0.49324 0.28999 0.0
C644 C 0.99575 0.48274 0.27005 0.0
C645 C 0.99441 0.4647 0.28656 0.0
H646 H 0.01103 0.5072 0.27719 0.0
H647 H 0.00858 0.33166 0.43465 0.0
H648 H 0.87124 1.002 0.18765 0.0
H649 H 0.89613 1.00112 0.11727 0.0
H650 H 0.858 0.99724 0.97722 0.0
H651 H 0.83323 0.99844 0.04679 0.0
H652 H 0.88741 0.97103 0.97554 0.0
H653 H 0.87618 0.03518 0.9949 0.0
H654 H 0.87356 0.06335 0.05038 0.0
H655 H 0.92801 0.05766 0.10896 0.0
H656 H 0.93086 0.02929 0.05444 0.0
H657 H 0.93428 0.98744 0.71609 0.0
H658 H 0.9138 0.98659 0.79866 0.0
H659 H 0.95586 0.00664 0.90989 0.0
H660 H 0.97618 0.00829 0.82638 0.0
H661 H 0.92696 0.02328 0.93593 0.0
H662 H 0.94034 0.96146 0.91418 0.0
H663 H 0.94441 0.93252 0.86407 0.0
H664 H 0.8885 0.93189 0.8186 0.0
H665 H 0.88413 0.96098 0.86772 0.0
C666 C 0.86822 1.00107 0.14181 0.0
C667 C 0.85028 1.00048 0.12271 0.0
C668 C 0.88242 1.00057 0.10171 0.0
C669 C 0.8789 0.99911 0.04198 0.0
C670 C 0.86102 0.99836 0.02303 0.0
C671 C 0.84688 0.99921 0.06283 0.0
C672 C 0.89373 0.99828 0.99876 0.0
C673 C 0.896 0.98247 0.9665 0.0
C674 C 0.90538 0.01296 0.98859 0.0
C675 C 0.90366 0.03001 0.02122 0.0
C676 C 0.88754 0.03984 0.02009 0.0
C677 C 0.88602 0.05586 0.05125 0.0
C678 C 0.90059 0.06226 0.08334 0.0
C679 C 0.91672 0.05267 0.08419 0.0
C680 C 0.9183 0.03663 0.05315 0.0
C681 C 0.93922 0.99153 0.75823 0.0
C682 C 0.95688 0.99784 0.76475 0.0
C683 C 0.9275 0.99094 0.80567 0.0
C684 C 0.93327 0.99626 0.86116 0.0
C685 C 0.95102 1.00241 0.86779 0.0
C686 C 0.96269 0.00323 0.82007 0.0
C687 C 0.92052 0.99607 0.91137 0.0
C688 C 0.91859 0.01168 0.94512 0.0
C689 C 0.90943 0.98103 0.92379 0.0
C690 C 0.91195 0.96349 0.89429 0.0
C691 C 0.92894 0.95522 0.89315 0.0
C692 C 0.93129 0.93878 0.86497 0.0
C693 C 0.91673 0.93039 0.83807 0.0
C694 C 0.89977 0.93841 0.83942 0.0
C695 C 0.89734 0.95487 0.8675 0.0
H696 H 0.91858 0.91766 0.81627 0.0
H697 H 0.89939 0.07467 0.10741 0.0
H698 H 0.47093 0.86148 0.12064 0.0
H699 H 0.4687 0.88605 0.04998 0.0
H700 H 0.5264 0.89118 0.04944 0.0
H701 H 0.5287 0.86687 0.11998 0.0
H702 H 0.51219 0.92327 0.04571 0.0
H703 H 0.5027 0.86778 0.94225 0.0
H704 H 0.4877 0.83895 0.92135 0.0
H705 H 0.43788 0.8666 0.89227 0.0
H706 H 0.45254 0.89558 0.91377 0.0
H707 H 0.52123 0.9492 0.73276 0.0
H708 H 0.51952 0.92906 0.81717 0.0
H709 H 0.4766 0.9611 0.88789 0.0
H710 H 0.47874 0.98169 0.80489 0.0
H711 H 0.48111 0.91204 0.85896 0.0
H712 H 0.49203 0.96783 0.97729 0.0
H713 H 0.50923 0.99563 0.99482 0.0
H714 H 0.55842 0.96546 0.99259 0.0
H715 H 0.54152 0.93768 0.97277 0.0
C716 C 0.48313 0.86793 0.10575 0.0
C717 C 0.49999 0.86216 0.12622 0.0
C718 C 0.48184 0.88196 0.06519 0.0
C719 C 0.4974 0.89036 0.04355 0.0
C720 C 0.51417 0.88501 0.06542 0.0
C721 C 0.51546 0.87111 0.10613 0.0
C722 C 0.49643 0.90428 0.99683 0.0
C723 C 0.50528 0.92076 0.00511 0.0
C724 C 0.48746 0.9012 0.94348 0.0
C725 C 0.47866 0.88381 0.93025 0.0
C726 C 0.48852 0.86769 0.9318 0.0
C727 C 0.48008 0.85133 0.91979 0.0
C728 C 0.46184 0.85094 0.90566 0.0
C729 C 0.452 0.86692 0.90333 0.0
C730 C 0.46037 0.88331 0.9154 0.0
C731 C 0.51164 0.95209 0.76682 0.0
C732 C 0.50022 0.96707 0.76248 0.0
C733 C 0.51064 0.94057 0.81486 0.0
C734 C 0.49808 0.9437 0.85911 0.0
C735 C 0.48664 0.95864 0.85488 0.0
C736 C 0.48787 0.97038 0.80739 0.0
C737 C 0.49664 0.93092 0.90853 0.0
C738 C 0.48759 0.9146 0.90027 0.0
C739 C 0.50544 0.93407 0.96177 0.0
C740 C 0.51557 0.95081 0.97236 0.0
C741 C 0.50654 0.96723 0.97928 0.0
C742 C 0.51623 0.98298 0.98973 0.0
C743 C 0.53493 0.98238 0.99425 0.0
C744 C 0.54397 0.96602 0.98836 0.0
C745 C 0.53435 0.95027 0.97736 0.0
H746 H 0.54236 0.99458 0.00281 0.0
H747 H 0.45533 0.83826 0.89638 0.0
H748 H 0.64222 0.48227 0.09891 0.0
H749 H 0.61741 0.4839 0.02995 0.0
H750 H 0.62192 0.54168 0.02644 0.0
H751 H 0.64707 0.54009 0.09475 0.0
H752 H 0.58522 0.49721 0.02162 0.0
H753 H 0.61365 0.55731 0.89123 0.0
H754 H 0.64282 0.57173 0.8705 0.0
H755 H 0.66991 0.52166 0.9013 0.0
H756 H 0.6409 0.50692 0.9214 0.0
H757 H 0.52158 0.51718 0.79705 0.0
H758 H 0.54192 0.52021 0.88021 0.0
H759 H 0.5863 0.50354 0.77258 0.0
H760 H 0.5662 0.50135 0.68959 0.0
H761 H 0.59733 0.52909 0.83658 0.0
H762 H 0.56393 0.47488 0.87172 0.0
H763 H 0.53634 0.45697 0.88493 0.0
H764 H 0.5223 0.48857 0.03378 0.0
H765 H 0.54966 0.50688 0.02083 0.0
C766 C 0.63773 0.49538 0.08442 0.0
C767 C 0.64674 0.51106 0.10227 0.0
C768 C 0.62351 0.49628 0.04477 0.0
C769 C 0.61788 0.51288 0.022 0.0
C770 C 0.6262 0.52866 0.04225 0.0
C771 C 0.64058 0.52774 0.08144 0.0
C772 C 0.60422 0.51348 0.9744 0.0
C773 C 0.58784 0.50429 0.98134 0.0
C774 C 0.60763 0.5224 0.92113 0.0
C775 C 0.62513 0.53109 0.90853 0.0
C776 C 0.62584 0.54939 0.89342 0.0
C777 C 0.64234 0.55761 0.88179 0.0
C778 C 0.65822 0.54763 0.88481 0.0
C779 C 0.65762 0.52939 0.8992 0.0
C780 C 0.64115 0.5211 0.91076 0.0
C781 C 0.53567 0.5144 0.79117 0.0
C782 C 0.54225 0.50915 0.73671 0.0
C783 C 0.54732 0.51597 0.83884 0.0
C784 C 0.56573 0.51195 0.83312 0.0
C785 C 0.57224 0.50683 0.77844 0.0
C786 C 0.56068 0.50549 0.73092 0.0
C787 C 0.57834 0.51276 0.88356 0.0
C788 C 0.59457 0.52222 0.87716 0.0
C789 C 0.57502 0.50357 0.93642 0.0
C790 C 0.55874 0.49237 0.94495 0.0
C791 C 0.55491 0.47807 0.90708 0.0
C792 C 0.53931 0.46785 0.91451 0.0
C793 C 0.52756 0.47166 0.96008 0.0
C794 C 0.5314 0.48566 0.99844 0.0
C795 C 0.54695 0.49596 0.99108 0.0
H796 H 0.51549 0.46374 0.96574 0.0
H797 H 0.67098 0.55403 0.87585 0.0
H798 H 0.01477 0.63026 0.18764 0.0
H799 H 0.01392 0.60555 0.11755 0.0
H800 H 0.96705 0.62897 0.03756 0.0
H801 H 0.96766 0.6534 0.10783 0.0
H802 H 0.96289 0.59452 0.03942 0.0
H803 H 0.01131 0.63355 0.98223 0.0
H804 H 0.03971 0.6502 0.99403 0.0
H805 H 0.06775 0.60072 0.02578 0.0
H806 H 0.03945 0.58379 0.01504 0.0
H807 H 0.96722 0.5589 0.75422 0.0
H808 H 0.96747 0.57768 0.84117 0.0
H809 H 0.00993 0.5452 0.91348 0.0
H810 H 0.0097 0.52629 0.8262 0.0
H811 H 0.01712 0.58143 0.92194 0.0
H812 H 0.96814 0.54241 0.96867 0.0
H813 H 0.93959 0.5266 0.95068 0.0
H814 H 0.91234 0.57716 0.93273 0.0
H815 H 0.9408 0.59329 0.94974 0.0
C816 C 0.00422 0.63007 0.15535 0.0
C817 C 0.99127 0.64386 0.15365 0.0
C818 C 0.00378 0.61595 0.11504 0.0
C819 C 0.99059 0.61545 0.07131 0.0
C820 C 0.97736 0.62893 0.0707 0.0
C821 C 0.97769 0.64291 0.11125 0.0
C822 C 0.99069 0.60126 0.0252 0.0
C823 C 0.97474 0.5918 0.01354 0.0
C824 C 0.00622 0.59727 0.99186 0.0
C825 C 0.02322 0.60743 0.99862 0.0
C826 C 0.0235 0.62624 0.99227 0.0
C827 C 0.03959 0.63572 0.99868 0.0
C828 C 0.05551 0.62653 0.01086 0.0
C829 C 0.0554 0.60783 0.01652 0.0
C830 C 0.03934 0.59828 0.01028 0.0
C831 C 0.97646 0.55562 0.78896 0.0
C832 C 0.9884 0.54109 0.7834 0.0
C833 C 0.97657 0.56635 0.83875 0.0
C834 C 0.98864 0.56284 0.88425 0.0
C835 C 1.00047 0.54818 0.8791 0.0
C836 C 1.00025 0.53732 0.82936 0.0
C837 C 0.98929 0.57495 0.93585 0.0
C838 C 0.00536 0.58402 0.94839 0.0
C839 C 0.97384 0.57872 0.96955 0.0
C840 C 0.95665 0.56906 0.96009 0.0
C841 C 0.95609 0.55016 0.96052 0.0
C842 C 0.93992 0.54114 0.95054 0.0
C843 C 0.92417 0.55087 0.94046 0.0
C844 C 0.92456 0.56964 0.94052 0.0
C845 C 0.9407 0.57873 0.9504 0.0
H846 H 0.91166 0.54386 0.93268 0.0
H847 H 0.06796 0.63389 0.01575 0.0
H848 H 0.00821 0.24959 0.41505 0.0
H849 H 0.99983 0.2261 0.4838 0.0
H850 H 0.05107 0.20045 0.45814 0.0
H851 H 0.0597 0.22404 0.38997 0.0
H852 H 0.0096 0.19053 0.40007 0.0
H853 H 0.05031 0.19883 0.56876 0.0
H854 H 0.06033 0.21541 0.65541 0.0
H855 H 0.00704 0.21273 0.72605 0.0
H856 H 0.99671 0.19615 0.63968 0.0
H857 H 0.01365 0.09998 0.45173 0.0
H858 H 0.02131 0.13179 0.45124 0.0
H859 H 0.97866 0.14253 0.57289 0.0
H860 H 0.97134 0.11033 0.5756 0.0
H861 H 0.0103 0.16261 0.59566 0.0
H862 H 0.97012 0.1513 0.43984 0.0
H863 H 0.95789 0.1352 0.35527 0.0
H864 H 0.00637 0.14568 0.26019 0.0
H865 H 0.01902 0.1616 0.34453 0.0
C866 C 0.01816 0.23961 0.42681 0.0
C867 C 0.03445 0.23835 0.39618 0.0
C868 C 0.01335 0.22622 0.46643 0.0
C869 C 0.02483 0.21158 0.47595 0.0
C870 C 0.04214 0.2118 0.45201 0.0
C871 C 0.04697 0.22516 0.41247 0.0
C872 C 0.01687 0.194 0.48976 0.0
C873 C 0.00979 0.18439 0.44282 0.0
C874 C 0.01646 0.18646 0.54592 0.0
C875 C 0.02269 0.19653 0.59736 0.0
C876 C 0.04069 0.20198 0.60241 0.0
C877 C 0.04644 0.21127 0.65167 0.0
C878 C 0.03432 0.21514 0.69621 0.0
C879 C 0.01642 0.20969 0.69162 0.0
C880 C 0.01062 0.20033 0.64257 0.0
C881 C 0.00606 0.10903 0.47913 0.0
C882 C 0.99179 0.10271 0.51335 0.0
C883 C 0.01041 0.1272 0.47866 0.0
C884 C 1.00043 0.13945 0.51172 0.0
C885 C 0.98649 0.13321 0.54726 0.0
C886 C 0.98218 0.11493 0.54802 0.0
C887 C 0.00398 0.15885 0.50518 0.0
C888 C 0.00995 0.16885 0.5531 0.0
C889 C 0.00316 0.167 0.44985 0.0
C890 C 0.99556 0.15756 0.3987 0.0
C891 C 0.97823 0.15007 0.40105 0.0
C892 C 0.97121 0.14099 0.35312 0.0
C893 C 0.98136 0.1394 0.30242 0.0
C894 C 0.99853 0.14692 0.2995 0.0
C895 C 0.00562 0.15599 0.34734 0.0
H896 H 0.9759 0.13236 0.26537 0.0
H897 H 0.0388 0.22233 0.73431 0.0
H898 H 0.25681 0.99282 0.46237 0.0
H899 H 0.27558 0.98052 0.53965 0.0
H900 H 0.31591 0.02069 0.50242 0.0
H901 H 0.2966 0.03388 0.4297 0.0
H902 H 0.30303 0.96399 0.51868 0.0
H903 H 0.34775 0.0257 0.59194 0.0
H904 H 0.34245 0.05639 0.62758 0.0
H905 H 0.28957 0.04137 0.68378 0.0
H906 H 0.29463 0.01043 0.64959 0.0
H907 H 0.3925 0.95485 0.46762 0.0
H908 H 0.36057 0.95967 0.48243 0.0
H909 H 0.36998 0.97036 0.66346 0.0
H910 H 0.40211 0.96617 0.64881 0.0
H911 H 0.35127 0.99528 0.62675 0.0
H912 H 0.34265 0.93374 0.6183 0.0
H913 H 0.34634 0.90225 0.58764 0.0
H914 H 0.32462 0.91512 0.42017 0.0
H915 H 0.32106 0.94674 0.44935 0.0
C916 C 0.26927 0.99958 0.47282 0.0
C917 C 0.27544 0.01407 0.43893 0.0
C918 C 0.28009 0.99243 0.51677 0.0
C919 C 0.29732 0.9995 0.52701 0.0
C920 C 0.30262 0.01505 0.49682 0.0
C921 C 0.29167 0.02244 0.45408 0.0
C922 C 0.31111 0.98889 0.55892 0.0
C923 C 0.31339 0.97077 0.54335 0.0
C924 C 0.32426 0.99727 0.59411 0.0
C925 C 0.32155 0.01566 0.61786 0.0
C926 C 0.33507 0.02881 0.6126 0.0
C927 C 0.33207 0.04631 0.63226 0.0
C928 C 0.31561 0.05087 0.65728 0.0
C929 C 0.30225 0.03785 0.66382 0.0
C930 C 0.30518 0.02032 0.64434 0.0
C931 C 0.38778 0.95794 0.51089 0.0
C932 C 0.39996 0.9605 0.55667 0.0
C933 C 0.36942 0.96042 0.5196 0.0
C934 C 0.36277 0.96517 0.57454 0.0
C935 C 0.37477 0.96651 0.6211 0.0
C936 C 0.39317 0.96408 0.61245 0.0
C937 C 0.34385 0.97123 0.58056 0.0
C938 C 0.34059 0.98834 0.60399 0.0
C939 C 0.32957 0.96174 0.55434 0.0
C940 C 0.33155 0.94267 0.53619 0.0
C941 C 0.33873 0.92989 0.57483 0.0
C942 C 0.3408 0.912 0.5577 0.0
C943 C 0.3357 0.90669 0.50202 0.0
C944 C 0.32852 0.91925 0.46335 0.0
C945 C 0.32642 0.93716 0.48024 0.0
H946 H 0.33733 0.89283 0.48882 0.0
H947 H 0.31326 0.06448 0.6719 0.0
H948 H 0.58231 0.28971 0.35101 0.0
H949 H 0.58314 0.31241 0.42619 0.0
H950 H 0.53583 0.28933 0.50509 0.0
H951 H 0.53419 0.26734 0.42716 0.0
H952 H 0.52867 0.32103 0.48156 0.0
H953 H 0.57654 0.29719 0.58564 0.0
H954 H 0.60531 0.28213 0.60643 0.0
H955 H 0.63394 0.32547 0.52511 0.0
H956 H 0.60536 0.34069 0.50297 0.0
H957 H 0.52924 0.40939 0.60135 0.0
H958 H 0.53525 0.37711 0.60976 0.0
H959 H 0.56835 0.37953 0.45646 0.0
H960 H 0.56212 0.41179 0.44718 0.0
H961 H 0.58071 0.35516 0.55818 0.0
H962 H 0.52875 0.37122 0.43099 0.0
H963 H 0.49935 0.38605 0.41882 0.0
H964 H 0.47795 0.3552 0.5605 0.0
H965 H 0.5073 0.34034 0.57378 0.0
C966 C 0.57231 0.2892 0.38509 0.0
C967 C 0.55787 0.27708 0.38196 0.0
C968 C 0.57297 0.30204 0.42894 0.0
C969 C 0.55944 0.30276 0.47142 0.0
C970 C 0.54634 0.28918 0.47257 0.0
C971 C 0.54549 0.27649 0.42805 0.0
C972 C 0.55681 0.31964 0.50468 0.0
C973 C 0.54 0.32814 0.50021 0.0
C974 C 0.57139 0.32912 0.52959 0.0
C975 C 0.58874 0.32008 0.54254 0.0
C976 C 0.58896 0.30347 0.57181 0.0
C977 C 0.60524 0.29491 0.58391 0.0
C978 C 0.62144 0.30284 0.56709 0.0
C979 C 0.62138 0.31936 0.5382 0.0
C980 C 0.60513 0.32799 0.526 0.0
C981 C 0.5381 0.40307 0.57017 0.0
C982 C 0.54514 0.41293 0.52329 0.0
C983 C 0.54158 0.38471 0.57528 0.0
C984 C 0.55234 0.37607 0.53402 0.0
C985 C 0.5602 0.38609 0.48906 0.0
C986 C 0.55647 0.40439 0.48335 0.0
C987 C 0.55309 0.35631 0.53145 0.0
C988 C 0.56942 0.34752 0.54171 0.0
C989 C 0.538 0.34636 0.5132 0.0
C990 C 0.52026 0.3549 0.50395 0.0
C991 C 0.5178 0.36771 0.45977 0.0
C992 C 0.50114 0.37609 0.45261 0.0
C993 C 0.48681 0.37162 0.48902 0.0
C994 C 0.48908 0.35869 0.53245 0.0
C995 C 0.50572 0.35028 0.53981 0.0
H996 H 0.47393 0.37814 0.48346 0.0
H997 H 0.63404 0.29618 0.57648 0.0
H998 H 0.22806 0.54548 0.44917 0.0
H999 H 0.20969 0.55502 0.53204 0.0
H1000 H 0.16615 0.52179 0.47062 0.0
H1001 H 0.1845 0.51191 0.38964 0.0
H1002 H 0.18084 0.57403 0.52681 0.0
H1003 H 0.13906 0.50771 0.56963 0.0
H1004 H 0.14534 0.47553 0.58385 0.0
H1005 H 0.19972 0.48775 0.63125 0.0
H1006 H 0.19372 0.52009 0.61854 0.0
H1007 H 0.09061 0.5804 0.50428 0.0
H1008 H 0.12302 0.57867 0.51216 0.0
H1009 H 0.11805 0.55552 0.68311 0.0
H1010 H 0.08548 0.55634 0.67431 0.0
H1011 H 0.13676 0.53481 0.62676 0.0
H1012 H 0.14374 0.59564 0.65741 0.0
H1013 H 0.13875 0.62831 0.65067 0.0
H1014 H 0.15615 0.62793 0.47318 0.0
H1015 H 0.16097 0.59523 0.47838 0.0
C1016 C 0.21472 0.5399 0.45442 0.0
C1017 C 0.2076 0.52812 0.41269 0.0
C1018 C 0.20425 0.54537 0.50165 0.0
C1019 C 0.18661 0.53897 0.50807 0.0
C1020 C 0.17985 0.52662 0.4676 0.0
C1021 C 0.19024 0.52119 0.42066 0.0
C1022 C 0.17414 0.54688 0.55118 0.0
C1023 C 0.17134 0.56553 0.54961 0.0
C1024 C 0.16238 0.53593 0.58405 0.0
C1025 C 0.16594 0.51643 0.59294 0.0
C1026 C 0.15232 0.50361 0.58369 0.0
C1027 C 0.15585 0.48531 0.59128 0.0
C1028 C 0.17295 0.4796 0.60802 0.0
C1029 C 0.18651 0.49219 0.61785 0.0
C1030 C 0.18306 0.51052 0.61045 0.0
C1031 C 0.09638 0.57525 0.54409 0.0
C1032 C 0.08541 0.56801 0.58782 0.0
C1033 C 0.11502 0.57457 0.54911 0.0
C1034 C 0.12311 0.56699 0.59853 0.0
C1035 C 0.11216 0.56145 0.64474 0.0
C1036 C 0.09348 0.56197 0.63954 0.0
C1037 C 0.14233 0.56165 0.59606 0.0
C1038 C 0.14653 0.54349 0.60592 0.0
C1039 C 0.15557 0.57314 0.57225 0.0
C1040 C 0.15278 0.5929 0.56843 0.0
C1041 C 0.14644 0.60249 0.61682 0.0
C1042 C 0.14363 0.62103 0.61327 0.0
C1043 C 0.14715 0.63019 0.56156 0.0
C1044 C 0.15349 0.62082 0.51328 0.0
C1045 C 0.15631 0.60227 0.51657 0.0
H1046 H 0.14497 0.64455 0.55889 0.0
H1047 H 0.17566 0.46541 0.61356 0.0
H1048 H 0.01786 0.76015 0.93426 0.0
H1049 H 0.02432 0.78034 0.85286 0.0
H1050 H 0.9781 0.81244 0.89809 0.0
H1051 H 0.97117 0.79193 0.97715 0.0
H1052 H 0.98406 0.81499 0.78599 0.0
H1053 H 0.02072 0.81834 0.96465 0.0
H1054 H 0.04233 0.80556 0.03466 0.0
H1055 H 0.08013 0.79656 0.89703 0.0
H1056 H 0.05862 0.80913 0.82617 0.0
H1057 H 0.99587 0.90586 0.82989 0.0
H1058 H 0.99165 0.87351 0.82614 0.0
H1059 H 0.04448 0.86728 0.75176 0.0
H1060 H 0.04916 0.89984 0.75853 0.0
H1061 H 0.04081 0.84587 0.83822 0.0
H1062 H 0.00423 0.85698 0.67277 0.0
H1063 H 0.9809 0.87203 0.61495 0.0
H1064 H 0.94064 0.85612 0.7374 0.0
H1065 H 0.9637 0.84127 0.79718 0.0
C1066 C 0.0087 0.77111 0.92526 0.0
C1067 C 0.99429 0.77481 0.96282 0.0
C1068 C 0.01245 0.78267 0.87894 0.0
C1069 C 1.00199 0.79816 0.87045 0.0
C1070 C 0.98646 0.80065 0.904 0.0
C1071 C 0.98262 0.78905 0.94969 0.0
C1072 C 0.00854 0.81344 0.83515 0.0
C1073 C 0.99656 0.82172 0.7966 0.0
C1074 C 0.02512 0.8219 0.84771 0.0
C1075 C 0.03803 0.81443 0.89017 0.0
C1076 C 0.03362 0.81355 0.94939 0.0
C1077 C 0.04584 0.80635 0.98917 0.0
C1078 C 0.06257 0.8002 0.97027 0.0
C1079 C 0.06714 0.80128 0.91156 0.0
C1080 C 0.05495 0.80842 0.87158 0.0
C1081 C 0.00662 0.89762 0.81279 0.0
C1082 C 0.02295 0.90534 0.7952 0.0
C1083 C 0.00403 0.87912 0.80937 0.0
C1084 C 0.01758 0.86795 0.78722 0.0
C1085 C 0.03375 0.87568 0.76815 0.0
C1086 C 0.0364 0.89424 0.77203 0.0
C1087 C 0.01567 0.84818 0.79232 0.0
C1088 C 0.02866 0.83896 0.82491 0.0
C1089 C 0.99975 0.83914 0.7756 0.0
C1090 C 0.98576 0.84795 0.73945 0.0
C1091 C 0.99043 0.85674 0.6876 0.0
C1092 C 0.97723 0.86525 0.65441 0.0
C1093 C 0.95931 0.86501 0.67217 0.0
C1094 C 0.95452 0.85626 0.72348 0.0
C1095 C 0.96765 0.84776 0.75706 0.0
H1096 H 0.94916 0.87164 0.64623 0.0
H1097 H 0.07202 0.79463 1.00113 0.0
H1098 H 0.72442 0.9477 0.95583 0.0
H1099 H 0.70134 0.9573 0.88564 0.0
H1100 H 0.67531 0.98811 0.02018 0.0
H1101 H 0.69757 0.97807 0.08963 0.0
H1102 H 0.65141 0.97161 0.96602 0.0
H1103 H 0.70242 0.00758 0.9107 0.0
H1104 H 0.73354 0.01298 0.87828 0.0
H1105 H 0.72335 0.98338 0.72204 0.0
H1106 H 0.69229 0.97759 0.75403 0.0
H1107 H 0.60311 0.04045 0.84609 0.0
H1108 H 0.63349 0.02913 0.8634 0.0
H1109 H 0.62217 0.98267 0.75837 0.0
H1110 H 0.59174 0.99382 0.74111 0.0
H1111 H 0.66511 0.00334 0.78153 0.0
H1112 H 0.61047 0.96786 0.86239 0.0
H1113 H 0.57982 0.97209 0.90121 0.0
H1114 H 0.59973 0.01083 0.02311 0.0
H1115 H 0.6304 0.00698 0.98441 0.0
C1116 C 0.71356 0.9563 0.97011 0.0
C1117 C 0.71247 0.9618 0.02828 0.0
C1118 C 0.70052 0.96191 0.93007 0.0
C1119 C 0.68657 0.97343 0.94763 0.0
C1120 C 0.68574 0.979 0.00564 0.0
C1121 C 0.69843 0.97317 0.04548 0.0
C1122 C 0.67246 0.97975 0.90704 0.0
C1123 C 0.65455 0.97829 0.92536 0.0
C1124 C 0.67638 0.9887 0.85414 0.0
C1125 C 0.69508 0.99202 0.83494 0.0
C1126 C 0.70687 1.00212 0.86963 0.0
C1127 C 0.7245 0.00526 0.85132 0.0
C1128 C 0.73044 0.9985 0.79819 0.0
C1129 C 0.71875 0.9886 0.76322 0.0
C1130 C 0.70112 0.98539 0.7814 0.0
C1131 C 0.60734 0.02822 0.82467 0.0
C1132 C 0.59499 0.01781 0.79333 0.0
C1133 C 0.62475 0.02187 0.83406 0.0
C1134 C 0.63001 0.00512 0.81197 0.0
C1135 C 0.61839 0.99573 0.77512 0.0
C1136 C 0.60094 1.00197 0.76617 0.0
C1137 C 0.64451 0.99524 0.8416 0.0
C1138 C 0.66223 0.99605 0.82125 0.0
C1139 C 0.64068 0.98628 0.89411 0.0
C1140 C 0.62262 0.98714 0.92062 0.0
C1141 C 0.60828 0.97717 0.89775 0.0
C1142 C 0.59092 0.97956 0.91954 0.0
C1143 C 0.58785 0.99177 0.96445 0.0
C1144 C 0.60214 1.0014 0.98829 0.0
C1145 C 0.61949 0.9991 0.96654 0.0
H1146 H 0.57442 0.99386 0.98076 0.0
H1147 H 0.74408 1.00095 0.78406 0.0
H1148 H 0.57984 0.72031 0.00228 0.0
H1149 H 0.56998 0.69388 0.9484 0.0
H1150 H 0.52085 0.7211 0.90245 0.0
H1151 H 0.53021 0.74719 0.95773 0.0
H1152 H 0.51474 0.69193 0.96735 0.0
H1153 H 0.54857 0.70547 0.79778 0.0
H1154 H 0.57513 0.71387 0.73995 0.0
H1155 H 0.60262 0.66645 0.79833 0.0
H1156 H 0.57633 0.65788 0.85723 0.0
H1157 H 0.47685 0.6136 0.83911 0.0
H1158 H 0.48828 0.64387 0.85767 0.0
H1159 H 0.53975 0.62168 0.90546 0.0
H1160 H 0.5284 0.5914 0.88697 0.0
H1161 H 0.54357 0.64934 0.83115 0.0
H1162 H 0.51152 0.63781 0.00817 0.0
H1163 H 0.48552 0.62941 0.06871 0.0
H1164 H 0.45518 0.6733 0.99758 0.0
H1165 H 0.48095 0.68184 0.93609 0.0
C1166 C 0.56721 0.72089 0.97908 0.0
C1167 C 0.55565 0.7357 0.98561 0.0
C1168 C 0.56164 0.70581 0.94791 0.0
C1169 C 0.54455 0.70546 0.92225 0.0
C1170 C 0.53403 0.72108 0.92237 0.0
C1171 C 0.53953 0.7361 0.95369 0.0
C1172 C 0.53631 0.68809 0.90614 0.0
C1173 C 0.52079 0.6828 0.93635 0.0
C1174 C 0.54459 0.67595 0.86744 0.0
C1175 C 0.56051 0.68111 0.83238 0.0
C1176 C 0.56034 0.69691 0.79877 0.0
C1177 C 0.57534 0.70169 0.76568 0.0
C1178 C 0.59057 0.69072 0.76557 0.0
C1179 C 0.59082 0.67494 0.79849 0.0
C1180 C 0.57586 0.67011 0.83169 0.0
C1181 C 0.49049 0.61518 0.85454 0.0
C1182 C 0.50174 0.60018 0.86167 0.0
C1183 C 0.49702 0.63245 0.86499 0.0
C1184 C 0.51484 0.63498 0.88308 0.0
C1185 C 0.52598 0.62 0.89122 0.0
C1186 C 0.51949 0.60275 0.88064 0.0
C1187 C 0.52203 0.65328 0.89225 0.0
C1188 C 0.53737 0.65864 0.8612 0.0
C1189 C 0.51365 0.66551 0.93038 0.0
C1190 C 0.49809 0.66034 0.96705 0.0
C1191 C 0.49925 0.64557 0.00505 0.0
C1192 C 0.48457 0.64081 0.03963 0.0
C1193 C 0.46869 0.65078 0.03685 0.0
C1194 C 0.46748 0.66557 0.9996 0.0
C1195 C 0.48212 0.67039 0.96491 0.0
H1196 H 0.45734 0.64708 0.06369 0.0
H1197 H 0.60217 0.69444 0.7399 0.0
H1198 H 0.76931 0.46012 0.93344 0.0
H1199 H 0.79366 0.45252 0.86759 0.0
H1200 H 0.80155 0.40229 0.9579 0.0
H1201 H 0.77712 0.40992 0.02444 0.0
H1202 H 0.83047 0.42257 0.96205 0.0
H1203 H 0.79158 0.40339 0.81087 0.0
H1204 H 0.76578 0.40493 0.74407 0.0
H1205 H 0.787 0.45319 0.66809 0.0
H1206 H 0.8128 0.45213 0.735 0.0
H1207 H 0.9132 0.41781 0.82498 0.0
H1208 H 0.88248 0.40799 0.84324 0.0
H1209 H 0.86237 0.45732 0.76921 0.0
H1210 H 0.89306 0.46684 0.74764 0.0
H1211 H 0.83908 0.43052 0.75023 0.0
H1212 H 0.87192 0.45433 0.91383 0.0
H1213 H 0.89713 0.45571 0.98306 0.0
H1214 H 0.88606 0.40166 0.03808 0.0
H1215 H 0.8609 0.3999 0.96853 0.0
C1216 C 0.77569 0.44711 0.93784 0.0
C1217 C 0.77148 0.43571 0.98459 0.0
C1218 C 0.78963 0.44275 0.89994 0.0
C1219 C 0.79947 0.42684 0.90782 0.0
C1220 C 0.79415 0.41465 0.95113 0.0
C1221 C 0.78026 0.41905 0.98923 0.0
C1222 C 0.81719 0.42485 0.87927 0.0
C1223 C 0.83229 0.4237 0.91548 0.0
C1224 C 0.8196 0.42701 0.81875 0.0
C1225 C 0.80411 0.42771 0.77824 0.0
C1226 C 0.79069 0.41441 0.78022 0.0
C1227 C 0.77607 0.41519 0.74227 0.0
C1228 C 0.77474 0.42916 0.70191 0.0
C1229 C 0.78805 0.44237 0.69936 0.0
C1230 C 0.8027 0.44167 0.73724 0.0
C1231 C 0.90226 0.42635 0.8108 0.0
C1232 C 0.90561 0.44332 0.78606 0.0
C1233 C 0.88469 0.42074 0.82162 0.0
C1234 C 0.87019 0.43215 0.80902 0.0
C1235 C 0.87339 0.44841 0.7799 0.0
C1236 C 0.89095 0.45394 0.7684 0.0
C1237 C 0.85214 0.42844 0.83326 0.0
C1238 C 0.83711 0.42873 0.79649 0.0
C1239 C 0.84965 0.42584 0.89354 0.0
C1240 C 0.86471 0.4269 0.93552 0.0
C1241 C 0.87495 0.4427 0.94042 0.0
C1242 C 0.88921 0.44356 0.97972 0.0
C1243 C 0.89323 0.42876 0.01481 0.0
C1244 C 0.88296 0.41309 0.01077 0.0
C1245 C 0.8687 0.41215 0.97142 0.0
H1246 H 0.90428 0.42945 0.04523 0.0
H1247 H 0.76341 0.42973 0.67257 0.0
H1248 H 0.01585 0.18411 0.99807 0.0
H1249 H 0.01579 0.15584 0.94547 0.0
H1250 H 0.00263 0.18388 0.78735 0.0
H1251 H 1.00215 0.21253 0.84064 0.0
H1252 H 0.98291 0.15354 0.79694 0.0
H1253 H 0.04496 0.16729 0.80888 0.0
H1254 H 0.07333 0.17647 0.85525 0.0
H1255 H 0.07116 0.13024 0.96683 0.0
H1256 H 0.04262 0.12091 0.9217 0.0
H1257 H 0.99695 0.07055 0.64311 0.0
H1258 H 0.99921 0.10189 0.67449 0.0
H1259 H 0.01346 0.08416 0.84667 0.0
H1260 H 0.01164 0.0529 0.81527 0.0
H1261 H 0.03415 0.11135 0.81618 0.0
H1262 H 0.9703 0.0992 0.80583 0.0
H1263 H 0.94216 0.09062 0.7568 0.0
H1264 H 0.94821 0.13473 0.638 0.0
H1265 H 0.9766 0.14334 0.6856 0.0
C1266 C 0.01277 0.18438 0.95218 0.0
C1267 C 0.00883 0.20072 0.92391 0.0
C1268 C 0.01296 0.16812 0.92187 0.0
C1269 C 0.00943 0.16762 0.86207 0.0
C1270 C 0.00548 0.18388 0.83339 0.0
C1271 C 0.00533 0.20027 0.86386 0.0
C1272 C 0.00964 0.15001 0.83061 0.0
C1273 C 0.99426 0.14445 0.80021 0.0
C1274 C 0.02435 0.13798 0.83503 0.0
C1275 C 0.04157 0.14347 0.86214 0.0
C1276 C 0.05046 0.15914 0.84357 0.0
C1277 C 0.06659 0.16436 0.8696 0.0
C1278 C 0.07403 0.15396 0.91402 0.0
C1279 C 0.06538 0.13829 0.93242 0.0
C1280 C 0.04924 0.13301 0.90658 0.0
C1281 C 1.00066 0.0733 0.6876 0.0
C1282 C 0.00412 0.05909 0.72658 0.0
C1283 C 1.00184 0.09129 0.70564 0.0
C1284 C 0.00632 0.09554 0.76332 0.0
C1285 C 0.00999 0.08135 0.80198 0.0
C1286 C 0.00888 0.0634 0.78393 0.0
C1287 C 0.0072 0.11462 0.78406 0.0
C1288 C 0.02286 0.12048 0.81235 0.0
C1289 C 0.9928 0.12695 0.77719 0.0
C1290 C 0.97571 0.12176 0.74876 0.0
C1291 C 0.96573 0.10696 0.76889 0.0
C1292 C 0.94972 0.1021 0.74139 0.0
C1293 C 0.94344 0.11208 0.69416 0.0
C1294 C 0.95311 0.12699 0.67451 0.0
C1295 C 0.96917 0.13184 0.70166 0.0
H1296 H 0.93104 0.10829 0.67291 0.0
H1297 H 0.08651 0.15803 0.93413 0.0
H1298 H 0.31997 0.03595 0.99092 0.0
H1299 H 0.34684 0.03547 0.93025 0.0
H1300 H 0.3203 0.99994 0.81014 0.0
H1301 H 0.29314 1.00038 0.87144 0.0
H1302 H 0.35512 0.98831 0.84369 0.0
H1303 H 0.32693 0.04157 0.77482 0.0
H1304 H 0.31226 0.07114 0.78265 0.0
H1305 H 0.36026 0.09342 0.85638 0.0
H1306 H 0.37509 0.06388 0.85042 0.0
H1307 H 0.43074 0.99479 0.64987 0.0
H1308 H 0.39974 0.99645 0.68583 0.0
H1309 H 0.41646 0.03304 0.81978 0.0
H1310 H 0.44734 0.03166 0.78427 0.0
H1311 H 0.38456 0.0433 0.76742 0.0
H1312 H 0.41222 0.99052 0.84438 0.0
H1313 H 0.4274 0.96118 0.84071 0.0
H1314 H 0.38089 0.93772 0.76108 0.0
H1315 H 0.36546 0.96699 0.76372 0.0
C1316 C 0.31977 0.02819 0.95123 0.0
C1317 C 0.30445 0.01819 0.93594 0.0
C1318 C 0.33514 0.02794 0.91653 0.0
C1319 C 0.33563 0.01768 0.86557 0.0
C1320 C 0.32023 0.00793 0.84935 0.0
C1321 C 0.30469 0.00832 0.88401 0.0
C1322 C 0.35254 0.01683 0.83096 0.0
C1323 C 0.3614 1.00025 0.82572 0.0
C1324 C 0.36095 0.03254 0.8092 0.0
C1325 C 0.35212 0.05043 0.81232 0.0
C1326 C 0.33434 0.05273 0.79305 0.0
C1327 C 0.32599 0.0695 0.79717 0.0
C1328 C 0.33533 0.08416 0.81991 0.0
C1329 C 0.35304 0.08206 0.83868 0.0
C1330 C 0.36143 0.06529 0.83495 0.0
C1331 C 0.42783 0.00327 0.68682 0.0
C1332 C 0.44164 0.013 0.7144 0.0
C1333 C 0.41011 0.00412 0.7074 0.0
C1334 C 0.4058 0.01465 0.75592 0.0
C1335 C 0.41944 0.02478 0.78234 0.0
C1336 C 0.43714 0.0239 0.76207 0.0
C1337 C 0.38728 0.0148 0.7806 0.0
C1338 C 0.37816 0.03128 0.7843 0.0
C1339 C 0.37876 0.99901 0.80169 0.0
C1340 C 0.38792 0.98122 0.80192 0.0
C1341 C 0.40532 0.97923 0.82497 0.0
C1342 C 0.41395 0.96255 0.82348 0.0
C1343 C 0.4052 0.94764 0.80003 0.0
C1344 C 0.38772 0.94932 0.77873 0.0
C1345 C 0.37904 0.96597 0.78016 0.0
H1346 H 0.41191 0.93474 0.79884 0.0
H1347 H 0.32884 0.09714 0.82299 0.0
H1348 H 0.50173 0.30154 0.84081 0.0
H1349 H 0.49773 0.33045 0.78999 0.0
H1350 H 0.51315 0.35868 0.94531 0.0
H1351 H 0.51719 0.33008 0.99572 0.0
H1352 H 0.4826 0.37298 0.8933 0.0
H1353 H 0.54333 0.35508 0.83645 0.0
H1354 H 0.56534 0.33434 0.79265 0.0
H1355 H 0.53592 0.33514 0.63272 0.0
H1356 H 0.51377 0.356 0.67543 0.0
H1357 H 0.50084 0.46182 0.80999 0.0
H1358 H 0.50239 0.43108 0.84685 0.0
H1359 H 0.49829 0.41071 0.67222 0.0
H1360 H 0.49765 0.44148 0.63497 0.0
H1361 H 0.52033 0.39067 0.72527 0.0
H1362 H 0.46161 0.41057 0.77384 0.0
H1363 H 0.4384 0.43068 0.81377 0.0
H1364 H 0.46074 0.42439 0.98427 0.0
H1365 H 0.48424 0.40442 0.94523 0.0
C1366 C 0.50417 0.31394 0.864 0.0
C1367 C 0.50991 0.31352 0.92213 0.0
C1368 C 0.50199 0.33043 0.8349 0.0
C1369 C 0.50528 0.34677 0.86372 0.0
C1370 C 0.51059 0.3463 0.92207 0.0
C1371 C 0.51297 0.32992 0.95077 0.0
C1372 C 0.5032 0.36448 0.83401 0.0
C1373 C 0.49093 0.37691 0.8568 0.0
C1374 C 0.51355 0.3694 0.78502 0.0
C1375 C 0.52686 0.35697 0.75922 0.0
C1376 C 0.54154 0.35078 0.79197 0.0
C1377 C 0.55406 0.33907 0.76726 0.0
C1378 C 0.55205 0.33348 0.7098 0.0
C1379 C 0.53751 0.33959 0.67699 0.0
C1380 C 0.52499 0.35137 0.70139 0.0
C1381 C 0.50017 0.4508 0.77943 0.0
C1382 C 0.49885 0.45416 0.71957 0.0
C1383 C 0.50098 0.43316 0.80059 0.0
C1384 C 0.49996 0.41838 0.76262 0.0
C1385 C 0.49898 0.42175 0.70268 0.0
C1386 C 0.49853 0.43941 0.6814 0.0
C1387 C 0.49999 0.39951 0.78556 0.0
C1388 C 0.51182 0.3868 0.7614 0.0
C1389 C 0.48894 0.39418 0.83271 0.0
C1390 C 0.47477 0.40611 0.85651 0.0
C1391 C 0.46164 0.41356 0.81979 0.0
C1392 C 0.44842 0.42492 0.84228 0.0
C1393 C 0.44811 0.42884 0.9015 0.0
C1394 C 0.461 0.42136 0.9384 0.0
C1395 C 0.47426 0.41 0.91613 0.0
H1396 H 0.43787 0.43764 0.91882 0.0
H1397 H 0.56174 0.32441 0.6907 0.0
H1398 H 0.18326 0.47648 0.95429 0.0
H1399 H 0.15504 0.47648 0.9003 0.0
H1400 H 0.16835 0.52813 0.82662 0.0
H1401 H 0.19648 0.52834 0.88166 0.0
H1402 H 0.13545 0.52917 0.86053 0.0
H1403 H 0.16858 0.48806 0.74647 0.0
H1404 H 0.18778 0.46186 0.72585 0.0
H1405 H 0.14678 0.42647 0.79019 0.0
H1406 H 0.1275 0.45249 0.81269 0.0
H1407 H 0.06 0.52488 0.66454 0.0
H1408 H 0.09132 0.52463 0.69802 0.0
H1409 H 0.07921 0.48093 0.8144 0.0
H1410 H 0.04795 0.4811 0.78172 0.0
H1411 H 0.11244 0.47708 0.74912 0.0
H1412 H 0.07989 0.52062 0.86449 0.0
H1413 H 0.06136 0.54775 0.8773 0.0
H1414 H 0.10281 0.58 0.80001 0.0
H1415 H 0.12155 0.55302 0.78642 0.0
C1416 C 0.18038 0.48768 0.92566 0.0
C1417 C 0.19221 0.50238 0.92226 0.0
C1418 C 0.16417 0.48768 0.89473 0.0
C1419 C 0.15948 0.50225 0.85873 0.0
C1420 C 0.17152 0.51675 0.85414 0.0
C1421 C 0.18765 0.51683 0.88555 0.0
C1422 C 0.14169 0.50272 0.82836 0.0
C1423 C 0.1306 0.51787 0.83533 0.0
C1424 C 0.13514 0.48798 0.7956 0.0
C1425 C 0.14665 0.47226 0.7818 0.0
C1426 C 0.16371 0.4747 0.75678 0.0
C1427 C 0.17461 0.45988 0.74475 0.0
C1428 C 0.16851 0.44252 0.75675 0.0
C1429 C 0.15149 0.43994 0.78092 0.0
C1430 C 0.14057 0.45472 0.79338 0.0
C1431 C 0.064 0.51517 0.69713 0.0
C1432 C 0.05137 0.50308 0.72074 0.0
C1433 C 0.0819 0.51509 0.71625 0.0
C1434 C 0.08758 0.50286 0.759 0.0
C1435 C 0.07514 0.49048 0.78138 0.0
C1436 C 0.05723 0.49067 0.76285 0.0
C1437 C 0.10627 0.50335 0.78227 0.0
C1438 C 0.11746 0.48839 0.7739 0.0
C1439 C 0.11303 0.5184 0.8128 0.0
C1440 C 0.10195 0.5347 0.82294 0.0
C1441 C 0.08498 0.53345 0.84955 0.0
C1442 C 0.07446 0.54882 0.85722 0.0
C1443 C 0.08084 0.56558 0.8391 0.0
C1444 C 0.09783 0.56701 0.81376 0.0
C1445 C 0.10841 0.55167 0.80607 0.0
H1446 H 0.07267 0.57746 0.845 0.0
H1447 H 0.17695 0.43106 0.74724 0.0
H1448 H 0.97132 0.80251 0.48604 0.0
H1449 H 0.97204 0.83324 0.52383 0.0
H1450 H 0.02063 0.84359 0.42761 0.0
H1451 H 0.02012 0.81286 0.39042 0.0
H1452 H 0.02312 0.85931 0.52846 0.0
H1453 H 0.97823 0.85799 0.37898 0.0
H1454 H 0.95102 0.84679 0.32987 0.0
H1455 H 0.9194 0.85942 0.48011 0.0
H1456 H 0.94647 0.87049 0.53037 0.0
H1457 H 0.98573 0.95795 0.51694 0.0
H1458 H 0.98665 0.92722 0.47986 0.0
H1459 H 0.0028 0.90793 0.6485 0.0
H1460 H 1.00183 0.93871 0.68588 0.0
H1461 H 0.96908 0.89756 0.50378 0.0
H1462 H 0.03244 0.87084 0.6285 0.0
H1463 H 0.06105 0.88248 0.66687 0.0
H1464 H 0.05773 0.92793 0.55251 0.0
H1465 H 0.02961 0.91615 0.51126 0.0
C1466 C 0.98221 0.8113 0.47306 0.0
C1467 C 0.99563 0.80512 0.43493 0.0
C1468 C 0.98258 0.82893 0.49461 0.0
C1469 C 0.99621 0.84099 0.47784 0.0
C1470 C 0.00994 0.83466 0.44133 0.0
C1471 C 0.00966 0.81699 0.42018 0.0
C1472 C 0.99593 0.86026 0.49694 0.0
C1473 C 0.01126 0.86763 0.52341 0.0
C1474 C 0.98069 0.87142 0.48887 0.0
C1475 C 0.96438 0.86494 0.45854 0.0
C1476 C 0.96548 0.85829 0.40162 0.0
C1477 C 0.95009 0.85197 0.37358 0.0
C1478 C 0.9335 0.85236 0.40189 0.0
C1479 C 0.93226 0.85912 0.45825 0.0
C1480 C 0.94762 0.86543 0.48651 0.0
C1481 C 0.9894 0.94719 0.54635 0.0
C1482 C 0.99394 0.95092 0.60437 0.0
C1483 C 0.98992 0.92957 0.52499 0.0
C1484 C 0.99506 0.91518 0.56093 0.0
C1485 C 0.99915 0.91878 0.61936 0.0
C1486 C 0.99861 0.93643 0.64076 0.0
C1487 C 0.99607 0.89647 0.53722 0.0
C1488 C 0.98094 0.88925 0.50923 0.0
C1489 C 0.01162 0.88557 0.54312 0.0
C1490 C 0.02866 0.89274 0.56751 0.0
C1491 C 0.03782 0.88328 0.61132 0.0
C1492 C 0.054 0.88988 0.63346 0.0
C1493 C 0.06108 0.90604 0.61269 0.0
C1494 C 0.05215 0.91549 0.56896 0.0
C1495 C 0.03612 0.90881 0.54601 0.0
H1496 H 0.07354 0.91117 0.63022 0.0
H1497 H 0.92159 0.84746 0.38011 0.0
H1498 H 0.70439 0.0059 0.52046 0.0
H1499 H 0.67384 0.00708 0.56054 0.0
H1500 H 0.65214 0.99792 0.38945 0.0
H1501 H 0.68247 0.99785 0.34943 0.0
H1502 H 0.63232 0.02052 0.43493 0.0
H1503 H 0.65711 0.96531 0.50794 0.0
H1504 H 0.67712 0.94497 0.56235 0.0
H1505 H 0.66238 0.97086 0.72162 0.0
H1506 H 0.64311 0.992 0.66794 0.0
H1507 H 0.54452 0.99114 0.51208 0.0
H1508 H 0.57587 0.99163 0.48013 0.0
H1509 H 0.59196 0.01253 0.64636 0.0
H1510 H 0.5607 0.01183 0.67897 0.0
H1511 H 0.61434 0.98538 0.60836 0.0
H1512 H 0.58913 0.04008 0.53248 0.0
H1513 H 0.56652 0.05753 0.47812 0.0
H1514 H 0.57995 0.02897 0.32243 0.0
H1515 H 0.60245 0.01114 0.37608 0.0
C1516 C 0.69304 0.00424 0.49162 0.0
C1517 C 0.6958 1.00191 0.43179 0.0
C1518 C 0.67554 0.00476 0.51454 0.0
C1519 C 0.66046 1.00233 0.47839 0.0
C1520 C 0.66337 0.99995 0.4186 0.0
C1521 C 0.68076 0.99988 0.39562 0.0
C1522 C 0.64163 1.00241 0.50182 0.0
C1523 C 0.62848 0.0126 0.47249 0.0
C1524 C 0.63638 0.99252 0.55186 0.0
C1525 C 0.64885 0.98045 0.58368 0.0
C1526 C 0.65844 0.96694 0.5544 0.0
C1527 C 0.6697 0.95528 0.58515 0.0
C1528 C 0.6712 0.95676 0.64536 0.0
C1529 C 0.66147 0.96992 0.67492 0.0
C1530 C 0.65045 0.9818 0.64431 0.0
C1531 C 0.55472 0.99572 0.54207 0.0
C1532 C 0.55004 1.00139 0.59827 0.0
C1533 C 0.57265 0.99606 0.52362 0.0
C1534 C 0.5863 1.0022 0.56077 0.0
C1535 C 0.58171 0.00761 0.61713 0.0
C1536 C 0.56379 0.00723 0.63566 0.0
C1537 C 0.60533 0.0031 0.54076 0.0
C1538 C 0.61841 0.99324 0.5709 0.0
C1539 C 0.61049 0.01305 0.49116 0.0
C1540 C 0.59738 0.02418 0.45842 0.0
C1541 C 0.58721 0.03746 0.4867 0.0
C1542 C 0.57441 0.04742 0.45602 0.0
C1543 C 0.57177 0.04433 0.39689 0.0
C1544 C 0.582 0.03134 0.36825 0.0
C1545 C 0.59479 0.02132 0.39876 0.0
H1546 H 0.56181 0.05201 0.37324 0.0
H1547 H 0.6798 0.94762 0.66916 0.0
H1548 H 0.52955 0.69143 0.34993 0.0
H1549 H 0.52522 0.66143 0.39046 0.0
H1550 H 0.49066 0.68332 0.52266 0.0
H1551 H 0.49503 0.71366 0.48204 0.0
H1552 H 0.51676 0.65887 0.56577 0.0
H1553 H 0.47214 0.66067 0.41569 0.0
H1554 H 0.46093 0.66582 0.31643 0.0
H1555 H 0.49708 0.6257 0.25128 0.0
H1556 H 0.50871 0.62048 0.35007 0.0
H1557 H 0.49009 0.57196 0.66585 0.0
H1558 H 0.49072 0.60302 0.63127 0.0
H1559 H 0.51707 0.58585 0.47419 0.0
H1560 H 0.51588 0.55471 0.50757 0.0
H1561 H 0.49292 0.60887 0.4465 0.0
H1562 H 0.53873 0.6075 0.59206 0.0
H1563 H 0.55175 0.60268 0.68915 0.0
H1564 H 0.51614 0.64236 0.75996 0.0
H1565 H 0.50251 0.64696 0.66397 0.0
C1566 C 0.52107 0.68993 0.3878 0.0
C1567 C 0.51273 0.70499 0.41301 0.0
C1568 C 0.5185 0.67271 0.41069 0.0
C1569 C 0.50754 0.67005 0.45945 0.0
C1570 C 0.49917 0.68504 0.48495 0.0
C1571 C 0.50159 0.70234 0.46157 0.0
C1572 C 0.50516 0.6516 0.48374 0.0
C1573 C 0.51123 0.64798 0.54018 0.0
C1574 C 0.49847 0.63727 0.44969 0.0
C1575 C 0.49139 0.64028 0.39027 0.0
C1576 C 0.4778 0.65303 0.38015 0.0
C1577 C 0.47135 0.65595 0.32397 0.0
C1578 C 0.47831 0.64612 0.27756 0.0
C1579 C 0.49171 0.63332 0.28726 0.0
C1580 C 0.49821 0.63035 0.34336 0.0
C1581 C 0.49609 0.57478 0.62401 0.0
C1582 C 0.50296 0.56076 0.58957 0.0
C1583 C 0.49651 0.59262 0.60432 0.0
C1584 C 0.50413 0.59696 0.55021 0.0
C1585 C 0.51106 0.58296 0.51598 0.0
C1586 C 0.51044 0.56511 0.53529 0.0
C1587 C 0.50471 0.61597 0.52869 0.0
C1588 C 0.49833 0.61972 0.47255 0.0
C1589 C 0.51136 0.63037 0.56281 0.0
C1590 C 0.51943 0.6274 0.62088 0.0
C1591 C 0.53351 0.61502 0.62853 0.0
C1592 C 0.54099 0.6123 0.68345 0.0
C1593 C 0.5347 0.62209 0.73089 0.0
C1594 C 0.52092 0.63463 0.72349 0.0
C1595 C 0.51328 0.63728 0.66882 0.0
H1596 H 0.5406 0.62002 0.77324 0.0
H1597 H 0.47331 0.64841 0.23409 0.0
H1598 H 0.8072 0.52443 0.36919 0.0
H1599 H 0.83655 0.52701 0.41614 0.0
H1600 H 0.82399 0.48161 0.52532 0.0
H1601 H 0.79443 0.4792 0.47942 0.0
H1602 H 0.84267 0.50723 0.58554 0.0
H1603 H 0.84884 0.47579 0.40512 0.0
H1604 H 0.84546 0.47137 0.29974 0.0
H1605 H 0.87687 0.51874 0.26725 0.0
H1606 H 0.88022 0.52359 0.37253 0.0
H1607 H 0.93307 0.48621 0.66576 0.0
H1608 H 0.90206 0.48543 0.63095 0.0
H1609 H 0.91456 0.52651 0.50482 0.0
H1610 H 0.94571 0.52682 0.53795 0.0
H1611 H 0.8954 0.50258 0.45495 0.0
H1612 H 0.8896 0.53397 0.63609 0.0
H1613 H 0.89327 0.53804 0.74153 0.0
H1614 H 0.86137 0.49101 0.77346 0.0
H1615 H 0.85782 0.48638 0.66812 0.0
C1616 C 0.81048 0.51525 0.40411 0.0
C1617 C 0.79844 0.50152 0.42013 0.0
C1618 C 0.82738 0.51663 0.43059 0.0
C1619 C 0.83267 0.50431 0.47368 0.0
C1620 C 0.82031 0.49122 0.49201 0.0
C1621 C 0.80343 0.48979 0.46541 0.0
C1622 C 0.85141 0.50441 0.49704 0.0
C1623 C 0.8542 0.50605 0.55708 0.0
C1624 C 0.86654 0.50308 0.46002 0.0
C1625 C 0.86462 0.50015 0.3967 0.0
C1626 C 0.85491 0.48534 0.37551 0.0
C1627 C 0.85302 0.48275 0.3158 0.0
C1628 C 0.8609 0.4948 0.27682 0.0
C1629 C 0.87074 0.50944 0.29749 0.0
C1630 C 0.87265 0.51211 0.35718 0.0
C1631 C 0.9292 0.49514 0.63076 0.0
C1632 C 0.94192 0.5066 0.60471 0.0
C1633 C 0.91138 0.49475 0.61102 0.0
C1634 C 0.90574 0.5061 0.56558 0.0
C1635 C 0.91846 0.51759 0.53982 0.0
C1636 C 0.93631 0.5178 0.55895 0.0
C1637 C 0.8868 0.50575 0.54358 0.0
C1638 C 0.88393 0.50391 0.48363 0.0
C1639 C 0.87165 0.50692 0.58078 0.0
C1640 C 0.87358 0.50975 0.64416 0.0
C1641 C 0.88347 0.52441 0.66557 0.0
C1642 C 0.88554 0.52681 0.72532 0.0
C1643 C 0.87762 0.51473 0.76413 0.0
C1644 C 0.86755 0.50028 0.74329 0.0
C1645 C 0.8655 0.49777 0.68357 0.0
H1646 H 0.87924 0.51661 0.81037 0.0
H1647 H 0.85943 0.49276 0.2306 0.0
loop_
_geom_bond_atom_site_label_1
_geom_bond_atom_site_label_2
_geom_bond_distance
_geom_bond_site_symmetry_2
_ccdc_geom_bond_type
C0 C1 1.384 . S
C0 H13 0.947 . S
C0 C35 1.382 . S
C1 C0 1.384 . S
C1 C2 1.378 . S
C2 C1 1.378 . S
C2 C3 1.378 . S
C2 H14 0.952 . S
C3 C2 1.378 . S
C3 H15 0.950 . S
C3 C34 1.383 . S
H4 C23 0.947 . S
H5 C24 0.946 . S
H6 C26 0.953 . S
H7 C27 0.945 . S
H8 C29 0.952 . S
H9 C30 0.949 . S
H10 C32 0.950 . S
H11 C33 0.948 . S
H12 C35 0.951 . S
H13 C0 0.947 . S
H14 C2 0.952 . S
H15 C3 0.950 . S
N16 C19 1.382 . S
N16 C21 1.363 . S
N17 C19 1.371 . S
N17 C20 1.372 . S
N18 C20 1.361 . S
N18 C21 1.377 . S
C19 N16 1.382 . S
C19 N17 1.371 . S
C19 C22 1.480 . S
C20 N17 1.372 . S
C20 N18 1.361 . S
C20 C28 1.457 . S
C21 N16 1.363 . S
C21 N18 1.377 . S
C21 C34 1.479 . S
C22 C19 1.480 . S
C22 C23 1.383 . S
C22 C27 1.385 . S
C23 H4 0.947 . S
C23 C22 1.383 . S
C23 C24 1.388 . S
C24 H5 0.946 . S
C24 C23 1.388 . S
C24 C25 1.384 . S
C25 C24 1.384 . S
C25 C26 1.377 . S
C26 H6 0.953 . S
C26 C25 1.377 . S
C26 C27 1.369 . S
C27 H7 0.945 . S
C27 C22 1.385 . S
C27 C26 1.369 . S
C28 C20 1.457 . S
C28 C29 1.372 . S
C28 C33 1.364 . S
C29 H8 0.952 . S
C29 C28 1.372 . S
C29 C30 1.389 . S
C30 H9 0.949 . S
C30 C29 1.389 . S
C30 C31 1.387 . S
C31 C30 1.387 . S
C31 C32 1.372 . S
C32 H10 0.950 . S
C32 C31 1.372 . S
C32 C33 1.379 . S
C33 H11 0.948 . S
C33 C28 1.364 . S
C33 C32 1.379 . S
C34 C3 1.383 . S
C34 C21 1.479 . S
C34 C35 1.398 . S
C35 C0 1.382 . S
C35 H12 0.951 . S
C35 C34 1.398 . S
C36 C37 1.381 1_655 S
C36 H49 0.948 . S
C36 C71 1.382 1_655 S
C37 C36 1.381 1_455 S
C37 C38 1.387 . S
C38 C37 1.387 . S
C38 C39 1.378 . S
C38 H50 0.952 . S
C39 C38 1.378 . S
C39 H51 0.950 . S
C39 C70 1.383 . S
H40 C59 0.947 . S
H41 C60 0.952 . S
H42 C62 0.953 . S
H43 C63 0.945 . S
H44 C65 0.949 1_655 S
H45 C66 0.956 . S
H46 C68 0.950 . S
H47 C69 0.948 . S
H48 C71 0.952 1_655 S
H49 C36 0.948 . S
H50 C38 0.952 . S
H51 C39 0.950 . S
N52 C55 1.382 . S
N52 C57 1.363 . S
N53 C55 1.371 . S
N53 C56 1.372 . S
N54 C56 1.361 . S
N54 C57 1.377 . S
C55 N52 1.382 . S
C55 N53 1.371 . S
C55 C58 1.480 . S
C56 N53 1.372 . S
C56 N54 1.361 . S
C56 C64 1.457 . S
C57 N52 1.363 . S
C57 N54 1.377 . S
C57 C70 1.479 . S
C58 C55 1.480 . S
C58 C59 1.383 . S
C58 C63 1.385 . S
C59 H40 0.947 . S
C59 C58 1.383 . S
C59 C60 1.386 1_455 S
C60 H41 0.952 . S
C60 C59 1.386 1_655 S
C60 C61 1.381 1_655 S
C61 C60 1.381 1_455 S
C61 C62 1.377 . S
C62 H42 0.953 . S
C62 C61 1.377 . S
C62 C63 1.369 . S
C63 H43 0.945 . S
C63 C58 1.385 . S
C63 C62 1.369 . S
C64 C56 1.457 . S
C64 C65 1.375 . S
C64 C69 1.364 . S
C65 H44 0.949 1_455 S
C65 C64 1.375 . S
C65 C66 1.387 1_455 S
C66 H45 0.956 . S
C66 C65 1.387 1_655 S
C66 C67 1.383 1_655 S
C67 C66 1.383 1_455 S
C67 C68 1.372 . S
C68 H46 0.950 . S
C68 C67 1.372 . S
C68 C69 1.379 . S
C69 H47 0.948 . S
C69 C64 1.364 . S
C69 C68 1.379 . S
C70 C39 1.383 . S
C70 C57 1.479 . S
C70 C71 1.397 . S
C71 C36 1.382 1_455 S
C71 H48 0.952 1_455 S
C71 C70 1.397 . S
C72 C73 1.381 1_565 S
C72 H85 0.948 . S
C72 C107 1.382 1_565 S
C73 C72 1.381 1_545 S
C73 C74 1.387 . S
C74 C73 1.387 . S
C74 C75 1.378 . S
C74 H86 0.952 . S
C75 C74 1.378 . S
C75 H87 0.950 . S
C75 C106 1.383 . S
H76 C95 0.947 . S
H77 C96 0.952 . S
H78 C98 0.953 . S
H79 C99 0.945 . S
H80 C101 0.949 1_565 S
H81 C102 0.957 . S
H82 C104 0.950 . S
H83 C105 0.948 . S
H84 C107 0.952 1_565 S
H85 C72 0.948 . S
H86 C74 0.952 . S
H87 C75 0.950 . S
N88 C91 1.382 . S
N88 C93 1.363 . S
N89 C91 1.371 . S
N89 C92 1.372 . S
N90 C92 1.361 . S
N90 C93 1.377 . S
C91 N88 1.382 . S
C91 N89 1.371 . S
C91 C94 1.480 . S
C92 N89 1.372 . S
C92 N90 1.361 . S
C92 C100 1.457 . S
C93 N88 1.363 . S
C93 N90 1.377 . S
C93 C106 1.479 . S
C94 C91 1.480 . S
C94 C95 1.383 . S
C94 C99 1.385 . S
C95 H76 0.947 . S
C95 C94 1.383 . S
C95 C96 1.386 1_545 S
C96 H77 0.952 . S
C96 C95 1.386 1_565 S
C96 C97 1.381 1_565 S
C97 C96 1.381 1_545 S
C97 C98 1.377 . S
C98 H78 0.953 . S
C98 C97 1.377 . S
C98 C99 1.369 . S
C99 H79 0.945 . S
C99 C94 1.385 . S
C99 C98 1.369 . S
C100 C92 1.457 . S
C100 C101 1.376 . S
C100 C105 1.364 . S
C101 H80 0.949 1_545 S
C101 C100 1.376 . S
C101 C102 1.386 1_545 S
C102 H81 0.957 . S
C102 C101 1.386 1_565 S
C102 C103 1.383 1_565 S
C103 C102 1.383 1_545 S
C103 C104 1.372 . S
C104 H82 0.950 . S
C104 C103 1.372 . S
C104 C105 1.379 . S
C105 H83 0.948 . S
C105 C100 1.364 . S
C105 C104 1.379 . S
C106 C75 1.383 . S
C106 C93 1.479 . S
C106 C107 1.397 . S
C107 C72 1.382 1_545 S
C107 H84 0.952 1_545 S
C107 C106 1.397 . S
C108 C109 1.384 . S
C108 H121 0.947 . S
C108 C143 1.382 . S
C109 C108 1.384 . S
C109 C110 1.378 . S
C110 C109 1.378 . S
C110 C111 1.378 . S
C110 H122 0.952 . S
C111 C110 1.378 . S
C111 H123 0.950 . S
C111 C142 1.383 . S
H112 C131 0.947 . S
H113 C132 0.946 . S
H114 C134 0.953 . S
H115 C135 0.945 . S
H116 C137 0.952 . S
H117 C138 0.949 . S
H118 C140 0.950 . S
H119 C141 0.948 . S
H120 C143 0.951 . S
H121 C108 0.947 . S
H122 C110 0.952 . S
H123 C111 0.950 . S
N124 C127 1.382 . S
N124 C129 1.363 . S
N125 C127 1.371 . S
N125 C128 1.372 . S
N126 C128 1.361 . S
N126 C129 1.377 . S
C127 N124 1.382 . S
C127 N125 1.371 . S
C127 C130 1.480 . S
C128 N125 1.372 . S
C128 N126 1.361 . S
C128 C136 1.457 . S
C129 N124 1.363 . S
C129 N126 1.377 . S
C129 C142 1.479 . S
C130 C127 1.480 . S
C130 C131 1.383 . S
C130 C135 1.385 . S
C131 H112 0.947 . S
C131 C130 1.383 . S
C131 C132 1.388 . S
C132 H113 0.946 . S
C132 C131 1.388 . S
C132 C133 1.384 . S
C133 C132 1.384 . S
C133 C134 1.377 . S
C134 H114 0.953 . S
C134 C133 1.377 . S
C134 C135 1.369 . S
C135 H115 0.945 . S
C135 C130 1.385 . S
C135 C134 1.369 . S
C136 C128 1.457 . S
C136 C137 1.372 . S
C136 C141 1.364 . S
C137 H116 0.952 . S
C137 C136 1.372 . S
C137 C138 1.389 . S
C138 H117 0.949 . S
C138 C137 1.389 . S
C138 C139 1.387 . S
C139 C138 1.387 . S
C139 C140 1.372 . S
C140 H118 0.950 . S
C140 C139 1.372 . S
C140 C141 1.379 . S
C141 H119 0.948 . S
C141 C136 1.364 . S
C141 C140 1.379 . S
C142 C111 1.383 . S
C142 C129 1.479 . S
C142 C143 1.398 . S
C143 C108 1.382 . S
C143 H120 0.951 . S
C143 C142 1.398 . S
C144 C145 1.384 . S
C144 H157 0.947 . S
C144 C179 1.382 . S
C145 C144 1.384 . S
C145 C146 1.378 . S
C146 C145 1.378 . S
C146 C147 1.378 . S
C146 H158 0.952 . S
C147 C146 1.378 . S
C147 H159 0.950 . S
C147 C178 1.383 . S
H148 C167 0.947 1_556 S
H149 C168 0.946 . S
H150 C170 0.953 . S
H151 C171 0.945 . S
H152 C173 0.952 . S
H153 C174 0.949 . S
H154 C176 0.950 . S
H155 C177 0.948 . S
H156 C179 0.951 . S
H157 C144 0.947 . S
H158 C146 0.952 . S
H159 C147 0.950 . S
N160 C163 1.382 . S
N160 C165 1.363 1_554 S
N161 C163 1.371 . S
N161 C164 1.372 . S
N162 C164 1.361 . S
N162 C165 1.377 1_554 S
C163 N160 1.382 . S
C163 N161 1.371 . S
C163 C166 1.480 . S
C164 N161 1.372 . S
C164 N162 1.361 . S
C164 C172 1.457 . S
C165 N160 1.363 1_556 S
C165 N162 1.377 1_556 S
C165 C178 1.479 . S
C166 C163 1.480 . S
C166 C167 1.383 . S
C166 C171 1.385 . S
C167 H148 0.947 1_554 S
C167 C166 1.383 . S
C167 C168 1.388 . S
C168 H149 0.946 . S
C168 C167 1.388 . S
C168 C169 1.384 . S
C169 C168 1.384 . S
C169 C170 1.377 . S
C170 H150 0.953 . S
C170 C169 1.377 . S
C170 C171 1.369 . S
C171 H151 0.945 . S
C171 C166 1.385 . S
C171 C170 1.369 . S
C172 C164 1.457 . S
C172 C173 1.372 . S
C172 C177 1.364 . S
C173 H152 0.952 . S
C173 C172 1.372 . S
C173 C174 1.389 . S
C174 H153 0.949 . S
C174 C173 1.389 . S
C174 C175 1.387 . S
C175 C174 1.387 . S
C175 C176 1.372 . S
C176 H154 0.950 . S
C176 C175 1.372 . S
C176 C177 1.379 . S
C177 H155 0.948 . S
C177 C172 1.364 . S
C177 C176 1.379 . S
C178 C147 1.383 . S
C178 C165 1.479 . S
C178 C179 1.398 . S
C179 C144 1.382 . S
C179 H156 0.951 . S
C179 C178 1.398 . S
C180 C181 1.384 . S
C180 H193 0.948 1_455 S
C180 C215 1.382 . S
C181 C180 1.384 . S
C181 C182 1.378 . S
C182 C181 1.378 . S
C182 C183 1.378 . S
C182 H194 0.952 . S
C183 C182 1.378 . S
C183 H195 0.950 . S
C183 C214 1.383 . S
H184 C203 0.947 1_556 S
H185 C204 0.948 . S
H186 C206 0.953 . S
H187 C207 0.945 . S
H188 C209 0.947 1_655 S
H189 C210 0.953 . S
H190 C212 0.950 . S
H191 C213 0.948 . S
H192 C215 0.950 1_655 S
H193 C180 0.948 1_655 S
H194 C182 0.952 . S
H195 C183 0.950 . S
N196 C199 1.382 . S
N196 C201 1.363 1_554 S
N197 C199 1.371 . S
N197 C200 1.372 . S
N198 C200 1.361 . S
N198 C201 1.377 1_554 S
C199 N196 1.382 . S
C199 N197 1.371 . S
C199 C202 1.480 . S
C200 N197 1.372 . S
C200 N198 1.361 . S
C200 C208 1.457 . S
C201 N196 1.363 1_556 S
C201 N198 1.377 1_556 S
C201 C214 1.479 . S
C202 C199 1.480 . S
C202 C203 1.383 . S
C202 C207 1.385 . S
C203 H184 0.947 1_554 S
C203 C202 1.383 . S
C203 C204 1.387 1_455 S
C204 H185 0.948 . S
C204 C203 1.387 1_655 S
C204 C205 1.383 1_655 S
C205 C204 1.383 1_455 S
C205 C206 1.377 . S
C206 H186 0.953 . S
C206 C205 1.377 . S
C206 C207 1.369 . S
C207 H187 0.945 . S
C207 C202 1.385 . S
C207 C206 1.369 . S
C208 C200 1.457 . S
C208 C209 1.379 . S
C208 C213 1.364 . S
C209 H188 0.947 1_455 S
C209 C208 1.379 . S
C209 C210 1.387 1_455 S
C210 H189 0.953 . S
C210 C209 1.387 1_655 S
C210 C211 1.384 1_655 S
C211 C210 1.384 1_455 S
C211 C212 1.372 . S
C212 H190 0.950 . S
C212 C211 1.372 . S
C212 C213 1.379 . S
C213 H191 0.948 . S
C213 C208 1.364 . S
C213 C212 1.379 . S
C214 C183 1.383 . S
C214 C201 1.479 . S
C214 C215 1.399 . S
C215 C180 1.382 . S
C215 H192 0.950 1_455 S
C215 C214 1.399 . S
C216 C217 1.384 . S
C216 H229 0.948 1_545 S
C216 C251 1.382 . S
C217 C216 1.384 . S
C217 C218 1.378 . S
C218 C217 1.378 . S
C218 C219 1.378 . S
C218 H230 0.952 . S
C219 C218 1.378 . S
C219 H231 0.950 . S
C219 C250 1.383 . S
H220 C239 0.947 1_556 S
H221 C240 0.948 . S
H222 C242 0.953 . S
H223 C243 0.945 . S
H224 C245 0.947 1_565 S
H225 C246 0.953 . S
H226 C248 0.950 . S
H227 C249 0.948 . S
H228 C251 0.950 1_565 S
H229 C216 0.948 1_565 S
H230 C218 0.952 . S
H231 C219 0.950 . S
N232 C235 1.382 . S
N232 C237 1.363 1_554 S
N233 C235 1.371 . S
N233 C236 1.372 . S
N234 C236 1.361 . S
N234 C237 1.377 1_554 S
C235 N232 1.382 . S
C235 N233 1.371 . S
C235 C238 1.480 . S
C236 N233 1.372 . S
C236 N234 1.361 . S
C236 C244 1.457 . S
C237 N232 1.363 1_556 S
C237 N234 1.377 1_556 S
C237 C250 1.479 . S
C238 C235 1.480 . S
C238 C239 1.383 . S
C238 C243 1.385 . S
C239 H220 0.947 1_554 S
C239 C238 1.383 . S
C239 C240 1.387 1_545 S
C240 H221 0.948 . S
C240 C239 1.387 1_565 S
C240 C241 1.383 1_565 S
C241 C240 1.383 1_545 S
C241 C242 1.377 . S
C242 H222 0.953 . S
C242 C241 1.377 . S
C242 C243 1.369 . S
C243 H223 0.945 . S
C243 C238 1.385 . S
C243 C242 1.369 . S
C244 C236 1.457 . S
C244 C245 1.379 . S
C244 C249 1.364 . S
C245 H224 0.947 1_545 S
C245 C244 1.379 . S
C245 C246 1.387 1_545 S
C246 H225 0.953 . S
C246 C245 1.387 1_565 S
C246 C247 1.384 1_565 S
C247 C246 1.384 1_545 S
C247 C248 1.372 . S
C248 H226 0.950 . S
C248 C247 1.372 . S
C248 C249 1.379 . S
C249 H227 0.948 . S
C249 C244 1.364 . S
C249 C248 1.379 . S
C250 C219 1.383 . S
C250 C237 1.479 . S
C250 C251 1.399 . S
C251 C216 1.382 . S
C251 H228 0.950 1_545 S
C251 C250 1.399 . S
C252 C253 1.384 . S
C252 H265 0.947 . S
C252 C287 1.382 . S
C253 C252 1.384 . S
C253 C254 1.378 . S
C254 C253 1.378 . S
C254 C255 1.378 . S
C254 H266 0.952 . S
C255 C254 1.378 . S
C255 H267 0.950 . S
C255 C286 1.383 . S
H256 C275 0.947 . S
H257 C276 0.946 . S
H258 C278 0.953 . S
H259 C279 0.945 1_556 S
H260 C281 0.952 . S
H261 C282 0.949 . S
H262 C284 0.950 . S
H263 C285 0.948 . S
H264 C287 0.951 . S
H265 C252 0.947 . S
H266 C254 0.952 . S
H267 C255 0.950 . S
N268 C271 1.382 . S
N268 C273 1.363 . S
N269 C271 1.390 . S
N269 C272 1.368 1_554 S
N270 C272 1.361 1_554 S
N270 C273 1.377 . S
C271 N268 1.382 . S
C271 N269 1.390 . S
C271 C274 1.480 . S
C272 N269 1.368 1_556 S
C272 N270 1.361 1_556 S
C272 C280 1.457 . S
C273 N268 1.363 . S
C273 N270 1.377 . S
C273 C286 1.479 . S
C274 C271 1.480 . S
C274 C275 1.383 . S
C274 C279 1.385 . S
C275 H256 0.947 . S
C275 C274 1.383 . S
C275 C276 1.388 . S
C276 H257 0.946 . S
C276 C275 1.388 . S
C276 C277 1.384 . S
C277 C276 1.384 . S
C277 C278 1.377 . S
C278 H258 0.953 . S
C278 C277 1.377 . S
C278 C279 1.369 . S
C279 H259 0.945 1_554 S
C279 C274 1.385 . S
C279 C278 1.369 . S
C280 C272 1.457 . S
C280 C281 1.372 . S
C280 C285 1.364 . S
C281 H260 0.952 . S
C281 C280 1.372 . S
C281 C282 1.389 . S
C282 H261 0.949 . S
C282 C281 1.389 . S
C282 C283 1.387 . S
C283 C282 1.387 . S
C283 C284 1.372 . S
C284 H262 0.950 . S
C284 C283 1.372 . S
C284 C285 1.379 . S
C285 H263 0.948 . S
C285 C280 1.364 . S
C285 C284 1.379 . S
C286 C255 1.383 . S
C286 C273 1.479 . S
C286 C287 1.398 . S
C287 C252 1.382 . S
C287 H264 0.951 . S
C287 C286 1.398 . S
Tb288 C290 2.809 . S
Tb288 O308 2.484 . S
Tb288 O309 2.440 . S
Tb288 O310 2.658 1_565 S
Tb288 O311 2.409 . S
Tb288 O312 2.378 . S
Tb288 O316 2.325 1_455 S
Tb288 O319 2.341 1_565 S
Tb289 C299 2.809 . S
Tb289 O310 2.325 1_655 S
Tb289 O313 2.341 1_545 S
Tb289 O314 2.484 . S
Tb289 O315 2.440 . S
Tb289 O316 2.658 1_545 S
Tb289 O317 2.409 . S
Tb289 O318 2.378 . S
C290 Tb288 2.809 . S
C290 C291 1.514 . S
C290 O308 1.248 . S
C290 O309 1.266 . S
C291 C290 1.514 . S
C291 C292 1.359 . S
C291 C296 1.348 . S
C292 C291 1.359 . S
C292 C293 1.380 . S
C292 H320 0.929 1_455 S
C293 C292 1.380 . S
C293 C294 1.347 . S
C293 H321 0.931 1_455 S
C294 C293 1.347 . S
C294 C295 1.369 . S
C295 C294 1.369 . S
C295 C296 1.408 . S
C295 H322 0.930 . S
C296 C291 1.348 . S
C296 C295 1.408 . S
C296 H323 0.930 . S
C297 O310 1.263 1_565 S
C297 O311 1.280 . S
C298 O312 1.236 1_655 S
C298 O313 1.266 . S
C299 Tb289 2.809 . S
C299 C300 1.514 . S
C299 O314 1.248 . S
C299 O315 1.266 . S
C300 C299 1.514 . S
C300 C301 1.359 . S
C300 C305 1.348 . S
C301 C300 1.359 . S
C301 C302 1.380 . S
C301 H324 0.929 1_655 S
C302 C301 1.380 . S
C302 C303 1.347 . S
C302 H325 0.931 1_655 S
C303 C302 1.347 . S
C303 C304 1.369 . S
C304 C303 1.369 . S
C304 C305 1.408 . S
C304 H326 0.930 . S
C305 C300 1.348 . S
C305 C304 1.408 . S
C305 H327 0.930 . S
C306 O316 1.281 1_545 S
C306 O317 1.254 . S
C307 O318 1.236 1_455 S
C307 O319 1.266 . S
O308 Tb288 2.484 . S
O308 C290 1.248 . S
O309 Tb288 2.440 . S
O309 C290 1.266 . S
O310 Tb288 2.658 1_545 S
O310 Tb289 2.325 1_455 S
O310 C297 1.263 1_545 S
O311 Tb288 2.409 . S
O311 C297 1.280 . S
O312 Tb288 2.378 . S
O312 C298 1.236 1_455 S
O313 Tb289 2.341 1_565 S
O313 C298 1.266 . S
O314 Tb289 2.484 . S
O314 C299 1.248 . S
O315 Tb289 2.440 . S
O315 C299 1.266 . S
O316 Tb288 2.325 1_655 S
O316 Tb289 2.658 1_565 S
O316 C306 1.281 1_565 S
O317 Tb289 2.409 . S
O317 C306 1.254 . S
O318 Tb289 2.378 . S
O318 C307 1.236 1_655 S
O319 Tb288 2.341 1_545 S
O319 C307 1.266 . S
H320 C292 0.929 1_655 S
H321 C293 0.931 1_655 S
H322 C295 0.930 . S
H323 C296 0.930 . S
H324 C301 0.929 1_455 S
H325 C302 0.931 1_455 S
H326 C304 0.930 . S
H327 C305 0.930 . S
Tb328 C330 2.809 . S
Tb328 O348 2.484 . S
Tb328 O349 2.440 . S
Tb328 O350 2.658 . S
Tb328 O351 2.409 . S
Tb328 O352 2.378 . S
Tb328 O356 2.325 1_545 S
Tb328 O359 2.341 . S
Tb329 C339 2.809 . S
Tb329 O350 2.325 1_565 S
Tb329 O353 2.341 . S
Tb329 O354 2.508 . S
Tb329 O355 2.440 . S
Tb329 O356 2.658 . S
Tb329 O357 2.409 . S
Tb329 O358 2.378 . S
C330 Tb328 2.809 . S
C330 C331 1.514 . S
C330 O348 1.248 . S
C330 O349 1.266 . S
C331 C330 1.514 . S
C331 C332 1.359 . S
C331 C336 1.348 . S
C332 C331 1.359 . S
C332 C333 1.380 . S
C332 H360 0.929 1_545 S
C333 C332 1.380 . S
C333 C334 1.347 . S
C333 H361 0.931 1_545 S
C334 C333 1.347 . S
C334 C335 1.369 . S
C335 C334 1.369 . S
C335 C336 1.408 . S
C335 H362 0.930 . S
C336 C331 1.348 . S
C336 C335 1.408 . S
C336 H363 0.930 . S
C337 O350 1.281 . S
C337 O351 1.254 . S
C338 O352 1.236 1_565 S
C338 O353 1.266 . S
C339 Tb329 2.809 . S
C339 C340 1.514 . S
C339 O354 1.303 . S
C339 O355 1.266 . S
C340 C339 1.514 . S
C340 C341 1.359 . S
C340 C345 1.348 . S
C341 C340 1.359 . S
C341 C342 1.380 . S
C341 H364 0.929 1_565 S
C342 C341 1.380 . S
C342 C343 1.347 . S
C342 H365 0.931 1_565 S
C343 C342 1.347 . S
C343 C344 1.369 . S
C344 C343 1.369 . S
C344 C345 1.408 . S
C344 H366 0.930 . S
C345 C340 1.348 . S
C345 C344 1.408 . S
C345 H367 0.930 . S
C346 O356 1.281 . S
C346 O357 1.254 . S
C347 O358 1.236 1_545 S
C347 O359 1.266 . S
O348 Tb328 2.484 . S
O348 C330 1.248 . S
O349 Tb328 2.440 . S
O349 C330 1.266 . S
O350 Tb328 2.658 . S
O350 Tb329 2.325 1_545 S
O350 C337 1.281 . S
O351 Tb328 2.409 . S
O351 C337 1.254 . S
O352 Tb328 2.378 . S
O352 C338 1.236 1_545 S
O353 Tb329 2.341 . S
O353 C338 1.266 . S
O354 Tb329 2.508 . S
O354 C339 1.303 . S
O355 Tb329 2.440 . S
O355 C339 1.266 . S
O356 Tb328 2.325 1_565 S
O356 Tb329 2.658 . S
O356 C346 1.281 . S
O357 Tb329 2.409 . S
O357 C346 1.254 . S
O358 Tb329 2.378 . S
O358 C347 1.236 1_565 S
O359 Tb328 2.341 . S
O359 C347 1.266 . S
H360 C332 0.929 1_565 S
H361 C333 0.931 1_565 S
H362 C335 0.930 . S
H363 C336 0.930 . S
H364 C341 0.929 1_545 S
H365 C342 0.931 1_545 S
H366 C344 0.930 . S
H367 C345 0.930 . S
Tb368 C370 2.809 . S
Tb368 O388 2.484 . S
Tb368 O389 2.440 . S
Tb368 O390 2.658 . S
Tb368 O391 2.409 . S
Tb368 O392 2.378 . S
Tb368 O396 2.325 . S
Tb368 O399 2.341 . S
Tb369 C379 2.809 . S
Tb369 O390 2.325 . S
Tb369 O393 2.341 . S
Tb369 O394 2.484 . S
Tb369 O395 2.440 . S
Tb369 O396 2.658 . S
Tb369 O397 2.409 . S
Tb369 O398 2.378 . S
C370 Tb368 2.809 . S
C370 C371 1.514 . S
C370 O388 1.248 . S
C370 O389 1.266 . S
C371 C370 1.514 . S
C371 C372 1.359 . S
C371 C376 1.348 . S
C372 C371 1.359 . S
C372 C373 1.380 . S
C372 H400 0.929 . S
C373 C372 1.380 . S
C373 C374 1.347 . S
C373 H401 0.931 . S
C374 C373 1.347 . S
C374 C375 1.369 . S
C375 C374 1.369 . S
C375 C376 1.408 . S
C375 H402 0.930 . S
C376 C371 1.348 . S
C376 C375 1.408 . S
C376 H403 0.930 . S
C377 O390 1.281 . S
C377 O391 1.254 . S
C378 O392 1.236 . S
C378 O393 1.266 . S
C379 Tb369 2.809 . S
C379 C380 1.514 . S
C379 O394 1.248 . S
C379 O395 1.266 . S
C380 C379 1.514 . S
C380 C381 1.359 . S
C380 C385 1.348 . S
C381 C380 1.359 . S
C381 C382 1.380 . S
C381 H404 0.929 . S
C382 C381 1.380 . S
C382 C383 1.347 . S
C382 H405 0.931 . S
C383 C382 1.347 . S
C383 C384 1.369 . S
C384 C383 1.369 . S
C384 C385 1.408 . S
C384 H406 0.930 . S
C385 C380 1.348 . S
C385 C384 1.408 . S
C385 H407 0.930 . S
C386 O396 1.281 . S
C386 O397 1.254 . S
C387 O398 1.236 . S
C387 O399 1.266 . S
O388 Tb368 2.484 . S
O388 C370 1.248 . S
O389 Tb368 2.440 . S
O389 C370 1.266 . S
O390 Tb368 2.658 . S
O390 Tb369 2.325 . S
O390 C377 1.281 . S
O391 Tb368 2.409 . S
O391 C377 1.254 . S
O392 Tb368 2.378 . S
O392 C378 1.236 . S
O393 Tb369 2.341 . S
O393 C378 1.266 . S
O394 Tb369 2.484 . S
O394 C379 1.248 . S
O395 Tb369 2.440 . S
O395 C379 1.266 . S
O396 Tb368 2.325 . S
O396 Tb369 2.658 . S
O396 C386 1.281 . S
O397 Tb369 2.409 . S
O397 C386 1.254 . S
O398 Tb369 2.378 . S
O398 C387 1.236 . S
O399 Tb368 2.341 . S
O399 C387 1.266 . S
H400 C372 0.929 . S
H401 C373 0.931 . S
H402 C375 0.930 . S
H403 C376 0.930 . S
H404 C381 0.929 . S
H405 C382 0.931 . S
H406 C384 0.930 . S
H407 C385 0.930 . S
Tb408 C410 2.809 . S
Tb408 O428 2.484 . S
Tb408 O429 2.440 . S
Tb408 O430 2.658 1_655 S
Tb408 O431 2.409 . S
Tb408 O432 2.378 . S
Tb408 O436 2.325 . S
Tb408 O439 2.341 1_655 S
Tb409 C419 2.809 . S
Tb409 O430 2.325 . S
Tb409 O433 2.341 1_455 S
Tb409 O434 2.484 . S
Tb409 O435 2.440 . S
Tb409 O436 2.658 1_455 S
Tb409 O437 2.409 . S
Tb409 O438 2.378 . S
C410 Tb408 2.809 . S
C410 C411 1.514 . S
C410 O428 1.248 . S
C410 O429 1.266 . S
C411 C410 1.514 . S
C411 C412 1.359 . S
C411 C416 1.348 . S
C412 C411 1.359 . S
C412 C413 1.380 . S
C412 H440 0.929 . S
C413 C412 1.380 . S
C413 C414 1.347 . S
C413 H441 0.931 . S
C414 C413 1.347 . S
C414 C415 1.369 . S
C415 C414 1.369 . S
C415 C416 1.408 . S
C415 H442 0.930 . S
C416 C411 1.348 . S
C416 C415 1.408 . S
C416 H443 0.930 . S
C417 O430 1.271 1_655 S
C417 O431 1.268 . S
C418 O432 1.236 . S
C418 O433 1.266 . S
C419 Tb409 2.809 . S
C419 C420 1.514 . S
C419 O434 1.248 . S
C419 O435 1.266 . S
C420 C419 1.514 . S
C420 C421 1.359 . S
C420 C425 1.348 . S
C421 C420 1.359 . S
C421 C422 1.380 . S
C421 H444 0.929 . S
C422 C421 1.380 . S
C422 C423 1.347 . S
C422 H445 0.931 . S
C423 C422 1.347 . S
C423 C424 1.369 . S
C424 C423 1.369 . S
C424 C425 1.408 . S
C424 H446 0.930 . S
C425 C420 1.348 . S
C425 C424 1.408 . S
C425 H447 0.930 . S
C426 O436 1.266 1_455 S
C426 O437 1.276 . S
C427 O438 1.236 . S
C427 O439 1.266 . S
O428 Tb408 2.484 . S
O428 C410 1.248 . S
O429 Tb408 2.440 . S
O429 C410 1.266 . S
O430 Tb408 2.658 1_455 S
O430 Tb409 2.325 . S
O430 C417 1.271 1_455 S
O431 Tb408 2.409 . S
O431 C417 1.268 . S
O432 Tb408 2.378 . S
O432 C418 1.236 . S
O433 Tb409 2.341 1_655 S
O433 C418 1.266 . S
O434 Tb409 2.484 . S
O434 C419 1.248 . S
O435 Tb409 2.440 . S
O435 C419 1.266 . S
O436 Tb408 2.325 . S
O436 Tb409 2.658 1_655 S
O436 C426 1.266 1_655 S
O437 Tb409 2.409 . S
O437 C426 1.276 . S
O438 Tb409 2.378 . S
O438 C427 1.236 . S
O439 Tb408 2.341 1_455 S
O439 C427 1.266 . S
H440 C412 0.929 . S
H441 C413 0.931 . S
H442 C415 0.930 . S
H443 C416 0.930 . S
H444 C421 0.929 . S
H445 C422 0.931 . S
H446 C424 0.930 . S
H447 C425 0.930 . S
H448 C466 0.951 . S
H449 C468 0.951 . S
H450 C470 0.950 . S
H451 C471 0.950 . S
H452 C473 0.950 . S
H453 C476 0.950 . S
H454 C477 0.935 1_565 S
H455 C479 0.950 . S
H456 C480 0.950 . S
H457 C481 0.951 . S
H458 C483 0.951 . S
H459 C485 0.950 . S
H460 C486 0.950 . S
H461 C488 0.950 . S
H462 C491 0.950 . S
H463 C492 0.960 . S
H464 C494 0.950 . S
H465 C495 0.950 . S
C466 H448 0.951 . S
C466 C467 1.369 . S
C466 C468 1.388 . S
C467 C466 1.369 . S
C467 C471 1.382 1_545 S
C468 H449 0.951 . S
C468 C466 1.388 . S
C468 C469 1.364 1_545 S
C469 C468 1.364 1_565 S
C469 C470 1.415 . S
C469 C472 1.498 . S
C470 H450 0.950 . S
C470 C469 1.415 . S
C470 C471 1.374 . S
C471 H451 0.950 . S
C471 C467 1.382 1_565 S
C471 C470 1.374 . S
C472 C469 1.498 . S
C472 C473 1.385 . S
C472 C474 1.377 1_565 S
C473 H452 0.950 . S
C473 C472 1.385 . S
C473 C489 1.377 . S
C474 C472 1.377 1_545 S
C474 C475 1.524 . S
C474 C488 1.377 . S
C475 C474 1.524 . S
C475 C476 1.397 1_545 S
C475 C480 1.363 . S
C476 H453 0.950 . S
C476 C475 1.397 1_565 S
C476 C477 1.331 1_565 S
C477 H454 0.935 1_545 S
C477 C476 1.331 1_545 S
C477 C478 1.306 . S
C478 C477 1.306 . S
C478 C479 1.524 . S
C478 H497 0.913 . S
C479 H455 0.950 . S
C479 C478 1.524 . S
C479 C480 1.415 . S
C480 H456 0.950 . S
C480 C475 1.363 . S
C480 C479 1.415 . S
C481 H457 0.951 . S
C481 C482 1.339 1_565 S
C481 C483 1.388 . S
C482 C481 1.339 1_545 S
C482 C486 1.412 . S
C483 H458 0.951 . S
C483 C481 1.388 . S
C483 C484 1.323 1_565 S
C484 C483 1.323 1_545 S
C484 C485 1.457 . S
C484 C487 1.501 . S
C485 H459 0.950 . S
C485 C484 1.457 . S
C485 C486 1.374 . S
C486 H460 0.950 . S
C486 C482 1.412 . S
C486 C485 1.374 . S
C487 C484 1.501 . S
C487 C488 1.373 . S
C487 C489 1.389 1_545 S
C488 H461 0.950 . S
C488 C474 1.377 . S
C488 C487 1.373 . S
C489 C473 1.377 . S
C489 C487 1.389 1_565 S
C489 C490 1.524 . S
C490 C489 1.524 . S
C490 C491 1.397 1_565 S
C490 C495 1.363 . S
C491 H462 0.950 . S
C491 C490 1.397 1_545 S
C491 C492 1.336 . S
C492 H463 0.960 . S
C492 C491 1.336 . S
C492 C493 1.275 1_545 S
C493 C492 1.275 1_565 S
C493 C494 1.524 . S
C493 H496 0.999 . S
C494 H464 0.950 . S
C494 C493 1.524 . S
C494 C495 1.415 . S
C495 H465 0.950 . S
C495 C490 1.363 . S
C495 C494 1.415 . S
H496 C493 0.999 . S
H497 C478 0.913 . S
H498 C516 0.951 . S
H499 C518 0.951 . S
H500 C520 0.950 . S
H501 C521 0.950 . S
H502 C523 0.950 . S
H503 C526 0.950 . S
H504 C527 0.950 . S
H505 C529 0.950 . S
H506 C530 0.950 . S
H507 C531 0.951 . S
H508 C533 0.951 . S
H509 C535 0.950 . S
H510 C536 0.950 . S
H511 C538 0.950 . S
H512 C541 0.950 . S
H513 C542 0.950 . S
H514 C544 0.950 . S
H515 C545 0.950 . S
C516 H498 0.951 . S
C516 C517 1.366 . S
C516 C518 1.388 . S
C517 C516 1.366 . S
C517 C521 1.385 . S
C518 H499 0.951 . S
C518 C516 1.388 . S
C518 C519 1.366 . S
C519 C518 1.366 . S
C519 C520 1.414 . S
C519 C522 1.499 . S
C520 H500 0.950 . S
C520 C519 1.414 . S
C520 C521 1.374 . S
C521 H501 0.950 . S
C521 C517 1.385 . S
C521 C520 1.374 . S
C522 C519 1.499 . S
C522 C523 1.373 . S
C522 C524 1.389 . S
C523 H502 0.950 . S
C523 C522 1.373 . S
C523 C539 1.377 . S
C524 C522 1.389 . S
C524 C525 1.524 . S
C524 C538 1.377 . S
C525 C524 1.524 . S
C525 C526 1.397 . S
C525 C530 1.363 . S
C526 H503 0.950 . S
C526 C525 1.397 . S
C526 C527 1.334 . S
C527 H504 0.950 . S
C527 C526 1.334 . S
C527 C528 1.287 . S
C528 C527 1.287 . S
C528 C529 1.524 . S
C528 H547 0.913 . S
C529 H505 0.950 . S
C529 C528 1.524 . S
C529 C530 1.415 . S
C530 H506 0.950 . S
C530 C525 1.363 . S
C530 C529 1.415 . S
C531 H507 0.951 . S
C531 C532 1.366 . S
C531 C533 1.388 . S
C532 C531 1.366 . S
C532 C536 1.385 . S
C533 H508 0.951 . S
C533 C531 1.388 . S
C533 C534 1.366 . S
C534 C533 1.366 . S
C534 C535 1.414 . S
C534 C537 1.499 . S
C535 H509 0.950 . S
C535 C534 1.414 . S
C535 C536 1.374 . S
C536 H510 0.950 . S
C536 C532 1.385 . S
C536 C535 1.374 . S
C537 C534 1.499 . S
C537 C538 1.373 . S
C537 C539 1.389 . S
C538 H511 0.950 . S
C538 C524 1.377 . S
C538 C537 1.373 . S
C539 C523 1.377 . S
C539 C537 1.389 . S
C539 C540 1.524 . S
C540 C539 1.524 . S
C540 C541 1.397 . S
C540 C545 1.363 . S
C541 H512 0.950 . S
C541 C540 1.397 . S
C541 C542 1.334 . S
C542 H513 0.950 . S
C542 C541 1.334 . S
C542 C543 1.287 . S
C543 C542 1.287 . S
C543 C544 1.524 . S
C543 H546 0.999 . S
C544 H514 0.950 . S
C544 C543 1.524 . S
C544 C545 1.415 . S
C545 H515 0.950 . S
C545 C540 1.363 . S
C545 C544 1.415 . S
H546 C543 0.999 . S
H547 C528 0.913 . S
H548 C566 0.951 . S
H549 C568 0.951 . S
H550 C570 0.950 . S
H551 C571 0.950 . S
H552 C573 0.950 . S
H553 C576 0.950 . S
H554 C577 0.950 . S
H555 C579 0.950 . S
H556 C580 0.950 . S
H557 C581 0.951 . S
H558 C583 0.951 . S
H559 C585 0.950 . S
H560 C586 0.950 . S
H561 C588 0.950 . S
H562 C591 0.950 . S
H563 C592 0.950 . S
H564 C594 0.950 . S
H565 C595 0.950 . S
C566 H548 0.951 . S
C566 C567 1.366 . S
C566 C568 1.388 . S
C567 C566 1.366 . S
C567 C571 1.385 . S
C568 H549 0.951 . S
C568 C566 1.388 . S
C568 C569 1.366 . S
C569 C568 1.366 . S
C569 C570 1.414 . S
C569 C572 1.499 . S
C570 H550 0.950 . S
C570 C569 1.414 . S
C570 C571 1.374 . S
C571 H551 0.950 . S
C571 C567 1.385 . S
C571 C570 1.374 . S
C572 C569 1.499 . S
C572 C573 1.373 . S
C572 C574 1.389 . S
C573 H552 0.950 . S
C573 C572 1.373 . S
C573 C589 1.377 . S
C574 C572 1.389 . S
C574 C575 1.524 . S
C574 C588 1.377 . S
C575 C574 1.524 . S
C575 C576 1.397 . S
C575 C580 1.363 . S
C576 H553 0.950 . S
C576 C575 1.397 . S
C576 C577 1.334 . S
C577 H554 0.950 . S
C577 C576 1.334 . S
C577 C578 1.287 . S
C578 C577 1.287 . S
C578 C579 1.524 . S
C578 H597 0.913 . S
C579 H555 0.950 . S
C579 C578 1.524 . S
C579 C580 1.415 . S
C580 H556 0.950 . S
C580 C575 1.363 . S
C580 C579 1.415 . S
C581 H557 0.951 . S
C581 C582 1.366 . S
C581 C583 1.388 . S
C582 C581 1.366 . S
C582 C586 1.385 . S
C583 H558 0.951 . S
C583 C581 1.388 . S
C583 C584 1.366 . S
C584 C583 1.366 . S
C584 C585 1.414 . S
C584 C587 1.499 . S
C585 H559 0.950 . S
C585 C584 1.414 . S
C585 C586 1.374 . S
C586 H560 0.950 . S
C586 C582 1.385 . S
C586 C585 1.374 . S
C587 C584 1.499 . S
C587 C588 1.373 . S
C587 C589 1.389 . S
C588 H561 0.950 . S
C588 C574 1.377 . S
C588 C587 1.373 . S
C589 C573 1.377 . S
C589 C587 1.389 . S
C589 C590 1.524 . S
C590 C589 1.524 . S
C590 C591 1.397 . S
C590 C595 1.363 . S
C591 H562 0.950 . S
C591 C590 1.397 . S
C591 C592 1.334 . S
C592 H563 0.950 . S
C592 C591 1.334 . S
C592 C593 1.287 . S
C593 C592 1.287 . S
C593 C594 1.524 . S
C593 H596 0.999 . S
C594 H564 0.950 . S
C594 C593 1.524 . S
C594 C595 1.415 . S
C595 H565 0.950 . S
C595 C590 1.363 . S
C595 C594 1.415 . S
H596 C593 0.999 . S
H597 C578 0.913 . S
H598 C616 0.951 . S
H599 C618 0.951 . S
H600 C620 0.950 . S
H601 C621 0.950 . S
H602 C623 0.950 . S
H603 C626 0.950 1_655 S
H604 C627 0.950 . S
H605 C629 0.950 . S
H606 C630 0.950 . S
H607 C631 0.951 . S
H608 C633 0.951 . S
H609 C635 0.950 . S
H610 C636 0.950 . S
H611 C638 0.950 . S
H612 C641 0.950 1_455 S
H613 C642 0.950 . S
H614 C644 0.950 . S
H615 C645 0.950 . S
C616 H598 0.951 . S
C616 C617 1.370 . S
C616 C618 1.388 . S
C617 C616 1.370 . S
C617 C621 1.380 1_455 S
C618 H599 0.951 . S
C618 C616 1.388 . S
C618 C619 1.372 . S
C619 C618 1.372 . S
C619 C620 1.407 1_455 S
C619 C622 1.498 1_455 S
C620 H600 0.950 . S
C620 C619 1.407 1_655 S
C620 C621 1.374 . S
C621 H601 0.950 . S
C621 C617 1.380 1_655 S
C621 C620 1.374 . S
C622 C619 1.498 1_655 S
C622 C623 1.379 . S
C622 C624 1.383 1_655 S
C623 H602 0.950 . S
C623 C622 1.379 . S
C623 C639 1.377 . S
C624 C622 1.383 1_455 S
C624 C625 1.524 . S
C624 C638 1.377 . S
C625 C624 1.524 . S
C625 C626 1.397 . S
C625 C630 1.363 . S
C626 H603 0.950 1_455 S
C626 C625 1.397 . S
C626 C627 1.334 . S
C627 H604 0.950 . S
C627 C626 1.334 . S
C627 C628 1.287 . S
C628 C627 1.287 . S
C628 C629 1.524 . S
C628 H647 0.913 . S
C629 H605 0.950 . S
C629 C628 1.524 . S
C629 C630 1.415 . S
C630 H606 0.950 . S
C630 C625 1.363 . S
C630 C629 1.415 . S
C631 H607 0.951 . S
C631 C632 1.318 1_655 S
C631 C633 1.388 . S
C632 C631 1.318 1_455 S
C632 C636 1.433 . S
C633 H608 0.951 . S
C633 C631 1.388 . S
C633 C634 1.320 1_655 S
C634 C633 1.320 1_455 S
C634 C635 1.460 . S
C634 C637 1.501 . S
C635 H609 0.950 . S
C635 C634 1.460 . S
C635 C636 1.374 . S
C636 H610 0.950 . S
C636 C632 1.433 . S
C636 C635 1.374 . S
C637 C634 1.501 . S
C637 C638 1.373 . S
C637 C639 1.389 1_455 S
C638 H611 0.950 . S
C638 C624 1.377 . S
C638 C637 1.373 . S
C639 C623 1.377 . S
C639 C637 1.389 1_655 S
C639 C640 1.524 . S
C640 C639 1.524 . S
C640 C641 1.397 . S
C640 C645 1.363 . S
C641 H612 0.950 1_655 S
C641 C640 1.397 . S
C641 C642 1.334 . S
C642 H613 0.950 . S
C642 C641 1.334 . S
C642 C643 1.287 . S
C643 C642 1.287 . S
C643 C644 1.524 . S
C643 H646 0.999 . S
C644 H614 0.950 . S
C644 C643 1.524 . S
C644 C645 1.415 . S
C645 H615 0.950 . S
C645 C640 1.363 . S
C645 C644 1.415 . S
H646 C643 0.999 . S
H647 C628 0.913 . S
H648 C666 0.951 . S
H649 C668 0.951 . S
H650 C670 0.950 . S
H651 C671 0.950 . S
H652 C673 0.953 . S
H653 C676 0.950 . S
H654 C677 0.950 . S
H655 C679 0.950 . S
H656 C680 0.950 . S
H657 C681 0.951 . S
H658 C683 0.951 . S
H659 C685 0.950 . S
H660 C686 0.950 . S
H661 C688 0.950 . S
H662 C691 0.950 . S
H663 C692 0.950 . S
H664 C694 0.950 . S
H665 C695 0.950 . S
C666 H648 0.951 . S
C666 C667 1.365 . S
C666 C668 1.388 . S
C667 C666 1.365 . S
C667 C671 1.385 1_545 S
C668 H649 0.951 . S
C668 C666 1.388 . S
C668 C669 1.373 . S
C669 C668 1.373 . S
C669 C670 1.406 1_545 S
C669 C672 1.499 . S
C670 H650 0.950 . S
C670 C669 1.406 1_565 S
C670 C671 1.374 . S
C671 H651 0.950 . S
C671 C667 1.385 1_565 S
C671 C670 1.374 . S
C672 C669 1.499 . S
C672 C673 1.344 1_545 S
C672 C674 1.428 . S
C673 H652 0.953 . S
C673 C672 1.344 1_565 S
C673 C689 1.363 1_554 S
C674 C672 1.428 . S
C674 C675 1.524 . S
C674 C688 1.377 1_554 S
C675 C674 1.524 . S
C675 C676 1.397 . S
C675 C680 1.363 . S
C676 H653 0.950 . S
C676 C675 1.397 . S
C676 C677 1.334 . S
C677 H654 0.950 . S
C677 C676 1.334 . S
C677 C678 1.287 . S
C678 C677 1.287 . S
C678 C679 1.524 . S
C678 H697 0.913 . S
C679 H655 0.950 . S
C679 C678 1.524 . S
C679 C680 1.415 . S
C680 H656 0.950 . S
C680 C675 1.363 . S
C680 C679 1.415 . S
C681 H657 0.951 . S
C681 C682 1.368 . S
C681 C683 1.388 . S
C682 C681 1.368 . S
C682 C686 1.383 1_565 S
C683 H658 0.951 . S
C683 C681 1.388 . S
C683 C684 1.366 . S
C684 C683 1.366 . S
C684 C685 1.414 1_565 S
C684 C687 1.499 . S
C685 H659 0.950 . S
C685 C684 1.414 1_545 S
C685 C686 1.374 . S
C686 H660 0.950 . S
C686 C682 1.383 1_545 S
C686 C685 1.374 . S
C687 C684 1.499 . S
C687 C688 1.373 1_565 S
C687 C689 1.389 . S
C688 H661 0.950 . S
C688 C674 1.377 1_556 S
C688 C687 1.373 1_545 S
C689 C673 1.363 1_556 S
C689 C687 1.389 . S
C689 C690 1.524 . S
C690 C689 1.524 . S
C690 C691 1.397 . S
C690 C695 1.363 . S
C691 H662 0.950 . S
C691 C690 1.397 . S
C691 C692 1.334 . S
C692 H663 0.950 . S
C692 C691 1.334 . S
C692 C693 1.287 . S
C693 C692 1.287 . S
C693 C694 1.524 . S
C693 H696 0.999 . S
C694 H664 0.950 . S
C694 C693 1.524 . S
C694 C695 1.415 . S
C695 H665 0.950 . S
C695 C690 1.363 . S
C695 C694 1.415 . S
H696 C693 0.999 . S
H697 C678 0.913 . S
H698 C716 0.951 . S
H699 C718 0.951 . S
H700 C720 0.950 . S
H701 C721 0.950 . S
H702 C723 0.950 . S
H703 C726 0.950 . S
H704 C727 0.950 1_554 S
H705 C729 0.950 . S
H706 C730 0.950 . S
H707 C731 0.951 . S
H708 C733 0.951 . S
H709 C735 0.950 . S
H710 C736 0.950 . S
H711 C738 0.950 . S
H712 C741 0.950 . S
H713 C742 0.950 . S
H714 C744 0.950 . S
H715 C745 0.950 1_554 S
C716 H698 0.951 . S
C716 C717 1.366 . S
C716 C718 1.388 . S
C717 C716 1.366 . S
C717 C721 1.385 . S
C718 H699 0.951 . S
C718 C716 1.388 . S
C718 C719 1.366 . S
C719 C718 1.366 . S
C719 C720 1.414 . S
C719 C722 1.499 . S
C720 H700 0.950 . S
C720 C719 1.414 . S
C720 C721 1.374 . S
C721 H701 0.950 . S
C721 C717 1.385 . S
C721 C720 1.374 . S
C722 C719 1.499 . S
C722 C723 1.373 . S
C722 C724 1.389 1_554 S
C723 H702 0.950 . S
C723 C722 1.373 . S
C723 C739 1.377 1_554 S
C724 C722 1.389 1_556 S
C724 C725 1.524 . S
C724 C738 1.377 . S
C725 C724 1.524 . S
C725 C726 1.397 1_556 S
C725 C730 1.363 . S
C726 H703 0.950 . S
C726 C725 1.397 1_554 S
C726 C727 1.334 1_554 S
C727 H704 0.950 1_556 S
C727 C726 1.334 1_556 S
C727 C728 1.287 . S
C728 C727 1.287 . S
C728 C729 1.524 . S
C728 H747 0.913 . S
C729 H705 0.950 . S
C729 C728 1.524 . S
C729 C730 1.415 . S
C730 H706 0.950 . S
C730 C725 1.363 . S
C730 C729 1.415 . S
C731 H707 0.951 . S
C731 C732 1.366 . S
C731 C733 1.388 . S
C732 C731 1.366 . S
C732 C736 1.385 . S
C733 H708 0.951 . S
C733 C731 1.388 . S
C733 C734 1.366 . S
C734 C733 1.366 . S
C734 C735 1.414 . S
C734 C737 1.499 . S
C735 H709 0.950 . S
C735 C734 1.414 . S
C735 C736 1.374 . S
C736 H710 0.950 . S
C736 C732 1.385 . S
C736 C735 1.374 . S
C737 C734 1.499 . S
C737 C738 1.373 . S
C737 C739 1.389 . S
C738 H711 0.950 . S
C738 C724 1.377 . S
C738 C737 1.373 . S
C739 C723 1.377 1_556 S
C739 C737 1.389 . S
C739 C740 1.524 . S
C740 C739 1.524 . S
C740 C741 1.397 . S
C740 C745 1.363 . S
C741 H712 0.950 . S
C741 C740 1.397 . S
C741 C742 1.334 . S
C742 H713 0.950 . S
C742 C741 1.334 . S
C742 C743 1.287 . S
C743 C742 1.287 . S
C743 C744 1.524 1_556 S
C743 H746 0.999 . S
C744 H714 0.950 . S
C744 C743 1.524 1_554 S
C744 C745 1.415 1_554 S
C745 H715 0.950 1_556 S
C745 C740 1.363 . S
C745 C744 1.415 1_556 S
H746 C743 0.999 . S
H747 C728 0.913 . S
H748 C766 0.951 . S
H749 C768 0.951 . S
H750 C770 0.950 . S
H751 C771 0.950 . S
H752 C773 0.950 . S
H753 C776 0.950 1_554 S
H754 C777 0.950 1_554 S
H755 C779 0.950 . S
H756 C780 0.950 . S
H757 C781 0.951 . S
H758 C783 0.951 . S
H759 C785 0.950 . S
H760 C786 0.950 . S
H761 C788 0.950 . S
H762 C791 0.950 . S
H763 C792 0.950 . S
H764 C794 0.950 . S
H765 C795 0.950 . S
C766 H748 0.951 . S
C766 C767 1.366 . S
C766 C768 1.388 . S
C767 C766 1.366 . S
C767 C771 1.385 . S
C768 H749 0.951 . S
C768 C766 1.388 . S
C768 C769 1.366 . S
C769 C768 1.366 . S
C769 C770 1.414 . S
C769 C772 1.499 . S
C770 H750 0.950 . S
C770 C769 1.414 . S
C770 C771 1.374 . S
C771 H751 0.950 . S
C771 C767 1.385 . S
C771 C770 1.374 . S
C772 C769 1.499 . S
C772 C773 1.373 . S
C772 C774 1.389 1_554 S
C773 H752 0.950 . S
C773 C772 1.373 . S
C773 C789 1.377 1_554 S
C774 C772 1.389 1_556 S
C774 C775 1.524 . S
C774 C788 1.377 . S
C775 C774 1.524 . S
C775 C776 1.397 . S
C775 C780 1.363 . S
C776 H753 0.950 1_556 S
C776 C775 1.397 . S
C776 C777 1.334 . S
C777 H754 0.950 1_556 S
C777 C776 1.334 . S
C777 C778 1.287 . S
C778 C777 1.287 . S
C778 C779 1.524 . S
C778 H797 0.913 . S
C779 H755 0.950 . S
C779 C778 1.524 . S
C779 C780 1.415 . S
C780 H756 0.950 . S
C780 C775 1.363 . S
C780 C779 1.415 . S
C781 H757 0.951 . S
C781 C782 1.366 . S
C781 C783 1.388 . S
C782 C781 1.366 . S
C782 C786 1.385 . S
C783 H758 0.951 . S
C783 C781 1.388 . S
C783 C784 1.366 . S
C784 C783 1.366 . S
C784 C785 1.414 . S
C784 C787 1.499 . S
C785 H759 0.950 . S
C785 C784 1.414 . S
C785 C786 1.374 . S
C786 H760 0.950 . S
C786 C782 1.385 . S
C786 C785 1.374 . S
C787 C784 1.499 . S
C787 C788 1.373 . S
C787 C789 1.389 . S
C788 H761 0.950 . S
C788 C774 1.377 . S
C788 C787 1.373 . S
C789 C773 1.377 1_556 S
C789 C787 1.389 . S
C789 C790 1.524 1_556 S
C790 C789 1.524 1_554 S
C790 C791 1.397 1_554 S
C790 C795 1.363 . S
C791 H762 0.950 . S
C791 C790 1.397 1_556 S
C791 C792 1.334 . S
C792 H763 0.950 . S
C792 C791 1.334 . S
C792 C793 1.287 1_556 S
C793 C792 1.287 1_554 S
C793 C794 1.524 . S
C793 H796 0.999 . S
C794 H764 0.950 . S
C794 C793 1.524 . S
C794 C795 1.415 . S
C795 H765 0.950 . S
C795 C790 1.363 . S
C795 C794 1.415 . S
H796 C793 0.999 . S
H797 C778 0.913 . S
H798 C816 0.951 . S
H799 C818 0.951 . S
H800 C820 0.950 . S
H801 C821 0.950 . S
H802 C823 0.950 . S
H803 C826 0.950 . S
H804 C827 0.950 . S
H805 C829 0.950 . S
H806 C830 0.950 . S
H807 C831 0.951 . S
H808 C833 0.951 . S
H809 C835 0.950 . S
H810 C836 0.950 . S
H811 C838 0.950 . S
H812 C841 0.950 . S
H813 C842 0.950 . S
H814 C844 0.950 . S
H815 C845 0.950 . S
C816 H798 0.951 . S
C816 C817 1.362 1_455 S
C816 C818 1.388 . S
C817 C816 1.362 1_655 S
C817 C821 1.388 . S
C818 H799 0.951 . S
C818 C816 1.388 . S
C818 C819 1.377 . S
C819 C818 1.377 . S
C819 C820 1.402 1_455 S
C819 C822 1.498 . S
C820 H800 0.950 . S
C820 C819 1.402 1_655 S
C820 C821 1.374 . S
C821 H801 0.950 . S
C821 C817 1.388 . S
C821 C820 1.374 . S
C822 C819 1.498 . S
C822 C823 1.369 1_455 S
C822 C824 1.393 . S
C823 H802 0.950 . S
C823 C822 1.369 1_655 S
C823 C839 1.377 1_554 S
C824 C822 1.393 . S
C824 C825 1.524 . S
C824 C838 1.377 1_554 S
C825 C824 1.524 . S
C825 C826 1.397 . S
C825 C830 1.363 . S
C826 H803 0.950 . S
C826 C825 1.397 . S
C826 C827 1.334 . S
C827 H804 0.950 . S
C827 C826 1.334 . S
C827 C828 1.287 . S
C828 C827 1.287 . S
C828 C829 1.524 . S
C828 H847 0.913 . S
C829 H805 0.950 . S
C829 C828 1.524 . S
C829 C830 1.415 . S
C830 H806 0.950 . S
C830 C825 1.363 . S
C830 C829 1.415 . S
C831 H807 0.951 . S
C831 C832 1.390 . S
C831 C833 1.388 . S
C832 C831 1.390 . S
C832 C836 1.362 1_655 S
C833 H808 0.951 . S
C833 C831 1.388 . S
C833 C834 1.366 . S
C834 C833 1.366 . S
C834 C835 1.414 1_655 S
C834 C837 1.499 . S
C835 H809 0.950 . S
C835 C834 1.414 1_455 S
C835 C836 1.374 . S
C836 H810 0.950 . S
C836 C832 1.362 1_455 S
C836 C835 1.374 . S
C837 C834 1.499 . S
C837 C838 1.373 1_655 S
C837 C839 1.389 . S
C838 H811 0.950 . S
C838 C824 1.377 1_556 S
C838 C837 1.373 1_455 S
C839 C823 1.377 1_556 S
C839 C837 1.389 . S
C839 C840 1.524 . S
C840 C839 1.524 . S
C840 C841 1.397 . S
C840 C845 1.363 . S
C841 H812 0.950 . S
C841 C840 1.397 . S
C841 C842 1.334 . S
C842 H813 0.950 . S
C842 C841 1.334 . S
C842 C843 1.287 . S
C843 C842 1.287 . S
C843 C844 1.524 . S
C843 H846 0.999 . S
C844 H814 0.950 . S
C844 C843 1.524 . S
C844 C845 1.415 . S
C845 H815 0.950 . S
C845 C840 1.363 . S
C845 C844 1.415 . S
H846 C843 0.999 . S
H847 C828 0.913 . S
H848 C866 0.951 . S
H849 C868 0.951 . S
H850 C870 0.950 . S
H851 C871 0.950 . S
H852 C873 0.950 . S
H853 C876 0.950 . S
H854 C877 0.950 . S
H855 C879 0.950 . S
H856 C880 0.950 . S
H857 C881 0.951 . S
H858 C883 0.951 . S
H859 C885 0.950 . S
H860 C886 0.950 . S
H861 C888 0.950 . S
H862 C891 0.950 . S
H863 C892 0.950 . S
H864 C894 0.950 . S
H865 C895 0.950 . S
C866 H848 0.951 . S
C866 C867 1.366 1_655 S
C866 C868 1.388 . S
C867 C866 1.366 1_455 S
C867 C871 1.385 . S
C868 H849 0.951 . S
C868 C866 1.388 . S
C868 C869 1.366 . S
C869 C868 1.366 . S
C869 C870 1.414 1_655 S
C869 C872 1.499 . S
C870 H850 0.950 . S
C870 C869 1.414 1_455 S
C870 C871 1.374 . S
C871 H851 0.950 . S
C871 C867 1.385 . S
C871 C870 1.374 . S
C872 C869 1.499 . S
C872 C873 1.373 . S
C872 C874 1.389 . S
C873 H852 0.950 . S
C873 C872 1.373 . S
C873 C889 1.377 . S
C874 C872 1.389 . S
C874 C875 1.517 1_655 S
C874 C888 1.377 . S
C875 C874 1.517 1_455 S
C875 C876 1.417 . S
C875 C880 1.352 1_455 S
C876 H853 0.950 . S
C876 C875 1.417 . S
C876 C877 1.334 . S
C877 H854 0.950 . S
C877 C876 1.334 . S
C877 C878 1.287 . S
C878 C877 1.287 . S
C878 C879 1.524 1_455 S
C878 H897 0.913 . S
C879 H855 0.950 . S
C879 C878 1.524 1_655 S
C879 C880 1.415 . S
C880 H856 0.950 . S
C880 C875 1.352 1_655 S
C880 C879 1.415 . S
C881 H857 0.951 . S
C881 C882 1.366 . S
C881 C883 1.388 . S
C882 C881 1.366 . S
C882 C886 1.385 . S
C883 H858 0.951 . S
C883 C881 1.388 . S
C883 C884 1.366 . S
C884 C883 1.366 . S
C884 C885 1.414 . S
C884 C887 1.499 . S
C885 H859 0.950 . S
C885 C884 1.414 . S
C885 C886 1.374 . S
C886 H860 0.950 . S
C886 C882 1.385 . S
C886 C885 1.374 . S
C887 C884 1.499 . S
C887 C888 1.373 . S
C887 C889 1.389 . S
C888 H861 0.950 . S
C888 C874 1.377 . S
C888 C887 1.373 . S
C889 C873 1.377 . S
C889 C887 1.389 . S
C889 C890 1.524 . S
C890 C889 1.524 . S
C890 C891 1.397 . S
C890 C895 1.363 . S
C891 H862 0.950 . S
C891 C890 1.397 . S
C891 C892 1.334 . S
C892 H863 0.950 . S
C892 C891 1.334 . S
C892 C893 1.287 . S
C893 C892 1.287 . S
C893 C894 1.524 . S
C893 H896 0.999 . S
C894 H864 0.950 . S
C894 C893 1.524 . S
C894 C895 1.415 . S
C895 H865 0.950 . S
C895 C890 1.363 . S
C895 C894 1.415 . S
H896 C893 0.999 . S
H897 C878 0.913 . S
H898 C916 0.951 . S
H899 C918 0.951 . S
H900 C920 0.950 . S
H901 C921 0.950 . S
H902 C923 0.950 . S
H903 C926 0.950 . S
H904 C927 0.950 . S
H905 C929 0.950 . S
H906 C930 0.953 . S
H907 C931 0.951 . S
H908 C933 0.951 . S
H909 C935 0.950 . S
H910 C936 0.950 . S
H911 C938 0.948 . S
H912 C941 0.950 . S
H913 C942 0.950 . S
H914 C944 0.950 . S
H915 C945 0.950 . S
C916 H898 0.951 . S
C916 C917 1.366 1_565 S
C916 C918 1.388 . S
C917 C916 1.366 1_545 S
C917 C921 1.385 . S
C918 H899 0.951 . S
C918 C916 1.388 . S
C918 C919 1.366 . S
C919 C918 1.366 . S
C919 C920 1.414 1_565 S
C919 C922 1.499 . S
C920 H900 0.950 . S
C920 C919 1.414 1_545 S
C920 C921 1.374 . S
C921 H901 0.950 . S
C921 C917 1.385 . S
C921 C920 1.374 . S
C922 C919 1.499 . S
C922 C923 1.373 . S
C922 C924 1.395 . S
C923 H902 0.950 . S
C923 C922 1.373 . S
C923 C939 1.377 . S
C924 C922 1.395 . S
C924 C925 1.514 1_565 S
C924 C938 1.380 . S
C925 C924 1.514 1_545 S
C925 C926 1.397 . S
C925 C930 1.363 . S
C926 H903 0.950 . S
C926 C925 1.397 . S
C926 C927 1.334 . S
C927 H904 0.950 . S
C927 C926 1.334 . S
C927 C928 1.287 . S
C928 C927 1.287 . S
C928 C929 1.524 . S
C928 H947 0.913 . S
C929 H905 0.950 . S
C929 C928 1.524 . S
C929 C930 1.415 . S
C930 H906 0.953 . S
C930 C925 1.363 . S
C930 C929 1.415 . S
C931 H907 0.951 . S
C931 C932 1.366 . S
C931 C933 1.388 . S
C932 C931 1.366 . S
C932 C936 1.385 . S
C933 H908 0.951 . S
C933 C931 1.388 . S
C933 C934 1.366 . S
C934 C933 1.366 . S
C934 C935 1.414 . S
C934 C937 1.499 . S
C935 H909 0.950 . S
C935 C934 1.414 . S
C935 C936 1.374 . S
C936 H910 0.950 . S
C936 C932 1.385 . S
C936 C935 1.374 . S
C937 C934 1.499 . S
C937 C938 1.373 . S
C937 C939 1.389 . S
C938 H911 0.948 . S
C938 C924 1.380 . S
C938 C937 1.373 . S
C939 C923 1.377 . S
C939 C937 1.389 . S
C939 C940 1.524 . S
C940 C939 1.524 . S
C940 C941 1.397 . S
C940 C945 1.363 . S
C941 H912 0.950 . S
C941 C940 1.397 . S
C941 C942 1.334 . S
C942 H913 0.950 . S
C942 C941 1.334 . S
C942 C943 1.287 . S
C943 C942 1.287 . S
C943 C944 1.524 . S
C943 H946 0.999 . S
C944 H914 0.950 . S
C944 C943 1.524 . S
C944 C945 1.415 . S
C945 H915 0.950 . S
C945 C940 1.363 . S
C945 C944 1.415 . S
H946 C943 0.999 . S
H947 C928 0.913 . S
H948 C966 0.951 . S
H949 C968 0.951 . S
H950 C970 0.950 . S
H951 C971 0.950 . S
H952 C973 0.950 . S
H953 C976 0.950 . S
H954 C977 0.950 . S
H955 C979 0.950 . S
H956 C980 0.950 . S
H957 C981 0.951 . S
H958 C983 0.951 . S
H959 C985 0.950 . S
H960 C986 0.950 . S
H961 C988 0.950 . S
H962 C991 0.950 . S
H963 C992 0.950 . S
H964 C994 0.950 . S
H965 C995 0.950 . S
C966 H948 0.951 . S
C966 C967 1.366 . S
C966 C968 1.388 . S
C967 C966 1.366 . S
C967 C971 1.385 . S
C968 H949 0.951 . S
C968 C966 1.388 . S
C968 C969 1.366 . S
C969 C968 1.366 . S
C969 C970 1.414 . S
C969 C972 1.499 . S
C970 H950 0.950 . S
C970 C969 1.414 . S
C970 C971 1.374 . S
C971 H951 0.950 . S
C971 C967 1.385 . S
C971 C970 1.374 . S
C972 C969 1.499 . S
C972 C973 1.373 . S
C972 C974 1.389 . S
C973 H952 0.950 . S
C973 C972 1.373 . S
C973 C989 1.377 . S
C974 C972 1.389 . S
C974 C975 1.524 . S
C974 C988 1.377 . S
C975 C974 1.524 . S
C975 C976 1.397 . S
C975 C980 1.363 . S
C976 H953 0.950 . S
C976 C975 1.397 . S
C976 C977 1.334 . S
C977 H954 0.950 . S
C977 C976 1.334 . S
C977 C978 1.287 . S
C978 C977 1.287 . S
C978 C979 1.524 . S
C978 H997 0.913 . S
C979 H955 0.950 . S
C979 C978 1.524 . S
C979 C980 1.415 . S
C980 H956 0.950 . S
C980 C975 1.363 . S
C980 C979 1.415 . S
C981 H957 0.951 . S
C981 C982 1.366 . S
C981 C983 1.388 . S
C982 C981 1.366 . S
C982 C986 1.385 . S
C983 H958 0.951 . S
C983 C981 1.388 . S
C983 C984 1.366 . S
C984 C983 1.366 . S
C984 C985 1.414 . S
C984 C987 1.499 . S
C985 H959 0.950 . S
C985 C984 1.414 . S
C985 C986 1.374 . S
C986 H960 0.950 . S
C986 C982 1.385 . S
C986 C985 1.374 . S
C987 C984 1.499 . S
C987 C988 1.373 . S
C987 C989 1.389 . S
C988 H961 0.950 . S
C988 C974 1.377 . S
C988 C987 1.373 . S
C989 C973 1.377 . S
C989 C987 1.389 . S
C989 C990 1.524 . S
C990 C989 1.524 . S
C990 C991 1.397 . S
C990 C995 1.363 . S
C991 H962 0.950 . S
C991 C990 1.397 . S
C991 C992 1.334 . S
C992 H963 0.950 . S
C992 C991 1.334 . S
C992 C993 1.287 . S
C993 C992 1.287 . S
C993 C994 1.524 . S
C993 H996 0.999 . S
C994 H964 0.950 . S
C994 C993 1.524 . S
C994 C995 1.415 . S
C995 H965 0.950 . S
C995 C990 1.363 . S
C995 C994 1.415 . S
H996 C993 0.999 . S
H997 C978 0.913 . S
H998 C1016 0.951 . S
H999 C1018 0.951 . S
H1000 C1020 0.950 . S
H1001 C1021 0.950 . S
H1002 C1023 0.950 . S
H1003 C1026 0.950 . S
H1004 C1027 0.950 . S
H1005 C1029 0.950 . S
H1006 C1030 0.950 . S
H1007 C1031 0.951 . S
H1008 C1033 0.951 . S
H1009 C1035 0.950 . S
H1010 C1036 0.950 . S
H1011 C1038 0.950 . S
H1012 C1041 0.950 . S
H1013 C1042 0.950 . S
H1014 C1044 0.950 . S
H1015 C1045 0.950 . S
C1016 H998 0.951 . S
C1016 C1017 1.366 . S
C1016 C1018 1.388 . S
C1017 C1016 1.366 . S
C1017 C1021 1.385 . S
C1018 H999 0.951 . S
C1018 C1016 1.388 . S
C1018 C1019 1.366 . S
C1019 C1018 1.366 . S
C1019 C1020 1.414 . S
C1019 C1022 1.499 . S
C1020 H1000 0.950 . S
C1020 C1019 1.414 . S
C1020 C1021 1.374 . S
C1021 H1001 0.950 . S
C1021 C1017 1.385 . S
C1021 C1020 1.374 . S
C1022 C1019 1.499 . S
C1022 C1023 1.373 . S
C1022 C1024 1.389 . S
C1023 H1002 0.950 . S
C1023 C1022 1.373 . S
C1023 C1039 1.377 . S
C1024 C1022 1.389 . S
C1024 C1025 1.524 . S
C1024 C1038 1.377 . S
C1025 C1024 1.524 . S
C1025 C1026 1.397 . S
C1025 C1030 1.363 . S
C1026 H1003 0.950 . S
C1026 C1025 1.397 . S
C1026 C1027 1.334 . S
C1027 H1004 0.950 . S
C1027 C1026 1.334 . S
C1027 C1028 1.287 . S
C1028 C1027 1.287 . S
C1028 C1029 1.524 . S
C1028 H1047 0.913 . S
C1029 H1005 0.950 . S
C1029 C1028 1.524 . S
C1029 C1030 1.415 . S
C1030 H1006 0.950 . S
C1030 C1025 1.363 . S
C1030 C1029 1.415 . S
C1031 H1007 0.951 . S
C1031 C1032 1.366 . S
C1031 C1033 1.388 . S
C1032 C1031 1.366 . S
C1032 C1036 1.385 . S
C1033 H1008 0.951 . S
C1033 C1031 1.388 . S
C1033 C1034 1.366 . S
C1034 C1033 1.366 . S
C1034 C1035 1.414 . S
C1034 C1037 1.499 . S
C1035 H1009 0.950 . S
C1035 C1034 1.414 . S
C1035 C1036 1.374 . S
C1036 H1010 0.950 . S
C1036 C1032 1.385 . S
C1036 C1035 1.374 . S
C1037 C1034 1.499 . S
C1037 C1038 1.373 . S
C1037 C1039 1.389 . S
C1038 H1011 0.950 . S
C1038 C1024 1.377 . S
C1038 C1037 1.373 . S
C1039 C1023 1.377 . S
C1039 C1037 1.389 . S
C1039 C1040 1.524 . S
C1040 C1039 1.524 . S
C1040 C1041 1.397 . S
C1040 C1045 1.363 . S
C1041 H1012 0.950 . S
C1041 C1040 1.397 . S
C1041 C1042 1.334 . S
C1042 H1013 0.950 . S
C1042 C1041 1.334 . S
C1042 C1043 1.287 . S
C1043 C1042 1.287 . S
C1043 C1044 1.524 . S
C1043 H1046 0.999 . S
C1044 H1014 0.950 . S
C1044 C1043 1.524 . S
C1044 C1045 1.415 . S
C1045 H1015 0.950 . S
C1045 C1040 1.363 . S
C1045 C1044 1.415 . S
H1046 C1043 0.999 . S
H1047 C1028 0.913 . S
H1048 C1066 0.951 . S
H1049 C1068 0.951 . S
H1050 C1070 0.950 . S
H1051 C1071 0.950 . S
H1052 C1073 0.950 . S
H1053 C1076 0.950 . S
H1054 C1077 0.950 . S
H1055 C1079 0.950 . S
H1056 C1080 0.950 . S
H1057 C1081 0.951 1_655 S
H1058 C1083 0.951 1_655 S
H1059 C1085 0.950 . S
H1060 C1086 0.950 . S
H1061 C1088 0.950 . S
H1062 C1091 0.950 . S
H1063 C1092 0.940 1_455 S
H1064 C1094 0.950 . S
H1065 C1095 0.950 . S
C1066 H1048 0.951 . S
C1066 C1067 1.366 1_455 S
C1066 C1068 1.388 . S
C1067 C1066 1.366 1_655 S
C1067 C1071 1.385 . S
C1068 H1049 0.951 . S
C1068 C1066 1.388 . S
C1068 C1069 1.366 . S
C1069 C1068 1.366 . S
C1069 C1070 1.414 1_455 S
C1069 C1072 1.499 . S
C1070 H1050 0.950 . S
C1070 C1069 1.414 1_655 S
C1070 C1071 1.374 . S
C1071 H1051 0.950 . S
C1071 C1067 1.385 . S
C1071 C1070 1.374 . S
C1072 C1069 1.499 . S
C1072 C1073 1.373 1_454 S
C1072 C1074 1.389 . S
C1073 H1052 0.950 . S
C1073 C1072 1.373 1_656 S
C1073 C1089 1.377 1_655 S
C1074 C1072 1.389 . S
C1074 C1075 1.524 . S
C1074 C1088 1.377 . S
C1075 C1074 1.524 . S
C1075 C1076 1.397 . S
C1075 C1080 1.363 . S
C1076 H1053 0.950 . S
C1076 C1075 1.397 . S
C1076 C1077 1.334 . S
C1077 H1054 0.950 . S
C1077 C1076 1.334 . S
C1077 C1078 1.287 . S
C1078 C1077 1.287 . S
C1078 C1079 1.524 . S
C1078 H1097 0.913 . S
C1079 H1055 0.950 . S
C1079 C1078 1.524 . S
C1079 C1080 1.415 . S
C1080 H1056 0.950 . S
C1080 C1075 1.363 . S
C1080 C1079 1.415 . S
C1081 H1057 0.951 1_455 S
C1081 C1082 1.366 . S
C1081 C1083 1.388 . S
C1082 C1081 1.366 . S
C1082 C1086 1.385 . S
C1083 H1058 0.951 1_455 S
C1083 C1081 1.388 . S
C1083 C1084 1.366 . S
C1084 C1083 1.366 . S
C1084 C1085 1.414 . S
C1084 C1087 1.499 . S
C1085 H1059 0.950 . S
C1085 C1084 1.414 . S
C1085 C1086 1.374 . S
C1086 H1060 0.950 . S
C1086 C1082 1.385 . S
C1086 C1085 1.374 . S
C1087 C1084 1.499 . S
C1087 C1088 1.373 1_556 S
C1087 C1089 1.389 . S
C1088 H1061 0.950 . S
C1088 C1074 1.377 . S
C1088 C1087 1.373 1_554 S
C1089 C1073 1.377 1_455 S
C1089 C1087 1.389 . S
C1089 C1090 1.524 1_455 S
C1090 C1089 1.524 1_655 S
C1090 C1091 1.397 1_655 S
C1090 C1095 1.363 . S
C1091 H1062 0.950 . S
C1091 C1090 1.397 1_455 S
C1091 C1092 1.334 1_455 S
C1092 H1063 0.940 1_655 S
C1092 C1091 1.334 1_655 S
C1092 C1093 1.287 . S
C1093 C1092 1.287 . S
C1093 C1094 1.524 . S
C1093 H1096 0.999 . S
C1094 H1064 0.950 . S
C1094 C1093 1.524 . S
C1094 C1095 1.415 . S
C1095 H1065 0.950 . S
C1095 C1090 1.363 . S
C1095 C1094 1.415 . S
H1096 C1093 0.999 . S
H1097 C1078 0.913 . S
H1098 C1116 0.951 . S
H1099 C1118 0.945 1_566 S
H1100 C1120 0.950 . S
H1101 C1121 0.950 . S
H1102 C1123 0.950 1_565 S
H1103 C1126 0.950 1_554 S
H1104 C1127 0.950 1_554 S
H1105 C1129 0.950 . S
H1106 C1130 0.950 . S
H1107 C1131 0.951 . S
H1108 C1133 0.951 . S
H1109 C1135 0.950 . S
H1110 C1136 0.950 . S
H1111 C1138 0.950 . S
H1112 C1141 0.950 . S
H1113 C1142 0.950 1_556 S
H1114 C1144 0.950 . S
H1115 C1145 0.954 1_545 S
C1116 H1098 0.951 . S
C1116 C1117 1.366 . S
C1116 C1118 1.383 1_565 S
C1117 C1116 1.366 . S
C1117 C1121 1.385 1_565 S
C1118 H1099 0.945 1_544 S
C1118 C1116 1.383 1_545 S
C1118 C1119 1.374 . S
C1119 C1118 1.374 . S
C1119 C1120 1.414 . S
C1119 C1122 1.499 . S
C1120 H1100 0.950 . S
C1120 C1119 1.414 . S
C1120 C1121 1.374 . S
C1121 H1101 0.950 . S
C1121 C1117 1.385 1_545 S
C1121 C1120 1.374 . S
C1122 C1119 1.499 . S
C1122 C1123 1.373 . S
C1122 C1124 1.389 1_554 S
C1123 H1102 0.950 1_545 S
C1123 C1122 1.373 . S
C1123 C1139 1.377 . S
C1124 C1122 1.389 1_556 S
C1124 C1125 1.524 . S
C1124 C1138 1.377 . S
C1125 C1124 1.524 . S
C1125 C1126 1.397 . S
C1125 C1130 1.363 . S
C1126 H1103 0.950 1_556 S
C1126 C1125 1.397 . S
C1126 C1127 1.334 . S
C1127 H1104 0.950 1_556 S
C1127 C1126 1.334 . S
C1127 C1128 1.287 . S
C1128 C1127 1.287 . S
C1128 C1129 1.524 . S
C1128 H1147 0.913 . S
C1129 H1105 0.950 . S
C1129 C1128 1.524 . S
C1129 C1130 1.415 . S
C1130 H1106 0.950 . S
C1130 C1125 1.363 . S
C1130 C1129 1.415 . S
C1131 H1107 0.951 . S
C1131 C1132 1.366 . S
C1131 C1133 1.388 . S
C1132 C1131 1.366 . S
C1132 C1136 1.385 . S
C1133 H1108 0.951 . S
C1133 C1131 1.388 . S
C1133 C1134 1.366 . S
C1134 C1133 1.366 . S
C1134 C1135 1.414 . S
C1134 C1137 1.499 . S
C1135 H1109 0.950 . S
C1135 C1134 1.414 . S
C1135 C1136 1.374 . S
C1136 H1110 0.950 . S
C1136 C1132 1.385 . S
C1136 C1135 1.374 . S
C1137 C1134 1.499 . S
C1137 C1138 1.373 . S
C1137 C1139 1.389 1_556 S
C1138 H1111 0.950 . S
C1138 C1124 1.377 . S
C1138 C1137 1.373 . S
C1139 C1123 1.377 . S
C1139 C1137 1.389 1_554 S
C1139 C1140 1.524 1_545 S
C1140 C1139 1.524 1_565 S
C1140 C1141 1.397 1_554 S
C1140 C1145 1.363 . S
C1141 H1112 0.950 . S
C1141 C1140 1.397 1_556 S
C1141 C1142 1.334 1_556 S
C1142 H1113 0.950 1_554 S
C1142 C1141 1.334 1_554 S
C1142 C1143 1.287 . S
C1143 C1142 1.287 . S
C1143 C1144 1.524 . S
C1143 H1146 0.999 . S
C1144 H1114 0.950 . S
C1144 C1143 1.524 . S
C1144 C1145 1.415 . S
C1145 H1115 0.954 1_565 S
C1145 C1140 1.363 . S
C1145 C1144 1.415 . S
H1146 C1143 0.999 . S
H1147 C1128 0.913 . S
H1148 C1166 0.951 . S
H1149 C1168 0.951 . S
H1150 C1170 0.950 . S
H1151 C1171 0.950 . S
H1152 C1173 0.950 . S
H1153 C1176 0.950 . S
H1154 C1177 0.950 . S
H1155 C1179 0.950 . S
H1156 C1180 0.950 . S
H1157 C1181 0.951 . S
H1158 C1183 0.951 . S
H1159 C1185 0.950 . S
H1160 C1186 0.950 . S
H1161 C1188 0.950 . S
H1162 C1191 0.950 . S
H1163 C1192 0.950 . S
H1164 C1194 0.950 . S
H1165 C1195 0.950 . S
C1166 H1148 0.951 . S
C1166 C1167 1.366 . S
C1166 C1168 1.388 . S
C1167 C1166 1.366 . S
C1167 C1171 1.385 . S
C1168 H1149 0.951 . S
C1168 C1166 1.388 . S
C1168 C1169 1.366 . S
C1169 C1168 1.366 . S
C1169 C1170 1.414 . S
C1169 C1172 1.499 . S
C1170 H1150 0.950 . S
C1170 C1169 1.414 . S
C1170 C1171 1.374 . S
C1171 H1151 0.950 . S
C1171 C1167 1.385 . S
C1171 C1170 1.374 . S
C1172 C1169 1.499 . S
C1172 C1173 1.373 . S
C1172 C1174 1.389 1_554 S
C1173 H1152 0.950 . S
C1173 C1172 1.373 . S
C1173 C1189 1.377 . S
C1174 C1172 1.389 1_556 S
C1174 C1175 1.524 . S
C1174 C1188 1.377 . S
C1175 C1174 1.524 . S
C1175 C1176 1.397 . S
C1175 C1180 1.363 . S
C1176 H1153 0.950 . S
C1176 C1175 1.397 . S
C1176 C1177 1.334 . S
C1177 H1154 0.950 . S
C1177 C1176 1.334 . S
C1177 C1178 1.287 . S
C1178 C1177 1.287 . S
C1178 C1179 1.524 . S
C1178 H1197 0.913 . S
C1179 H1155 0.950 . S
C1179 C1178 1.524 . S
C1179 C1180 1.415 . S
C1180 H1156 0.950 . S
C1180 C1175 1.363 . S
C1180 C1179 1.415 . S
C1181 H1157 0.951 . S
C1181 C1182 1.366 . S
C1181 C1183 1.388 . S
C1182 C1181 1.366 . S
C1182 C1186 1.385 . S
C1183 H1158 0.951 . S
C1183 C1181 1.388 . S
C1183 C1184 1.366 . S
C1184 C1183 1.366 . S
C1184 C1185 1.414 . S
C1184 C1187 1.499 . S
C1185 H1159 0.950 . S
C1185 C1184 1.414 . S
C1185 C1186 1.374 . S
C1186 H1160 0.950 . S
C1186 C1182 1.385 . S
C1186 C1185 1.374 . S
C1187 C1184 1.499 . S
C1187 C1188 1.373 . S
C1187 C1189 1.389 1_556 S
C1188 H1161 0.950 . S
C1188 C1174 1.377 . S
C1188 C1187 1.373 . S
C1189 C1173 1.377 . S
C1189 C1187 1.389 1_554 S
C1189 C1190 1.524 . S
C1190 C1189 1.524 . S
C1190 C1191 1.397 . S
C1190 C1195 1.363 . S
C1191 H1162 0.950 . S
C1191 C1190 1.397 . S
C1191 C1192 1.334 . S
C1192 H1163 0.950 . S
C1192 C1191 1.334 . S
C1192 C1193 1.287 . S
C1193 C1192 1.287 . S
C1193 C1194 1.524 . S
C1193 H1196 0.999 . S
C1194 H1164 0.950 . S
C1194 C1193 1.524 . S
C1194 C1195 1.415 . S
C1195 H1165 0.950 . S
C1195 C1190 1.363 . S
C1195 C1194 1.415 . S
H1196 C1193 0.999 . S
H1197 C1178 0.913 . S
H1198 C1216 0.951 . S
H1199 C1218 0.951 . S
H1200 C1220 0.950 . S
H1201 C1221 0.950 . S
H1202 C1223 0.950 . S
H1203 C1226 0.950 . S
H1204 C1227 0.950 . S
H1205 C1229 0.950 . S
H1206 C1230 0.950 . S
H1207 C1231 0.951 . S
H1208 C1233 0.951 . S
H1209 C1235 0.950 . S
H1210 C1236 0.950 . S
H1211 C1238 0.950 . S
H1212 C1241 0.950 . S
H1213 C1242 0.950 . S
H1214 C1244 0.950 . S
H1215 C1245 0.950 . S
C1216 H1198 0.951 . S
C1216 C1217 1.366 . S
C1216 C1218 1.388 . S
C1217 C1216 1.366 . S
C1217 C1221 1.385 . S
C1218 H1199 0.951 . S
C1218 C1216 1.388 . S
C1218 C1219 1.366 . S
C1219 C1218 1.366 . S
C1219 C1220 1.414 . S
C1219 C1222 1.499 . S
C1220 H1200 0.950 . S
C1220 C1219 1.414 . S
C1220 C1221 1.374 . S
C1221 H1201 0.950 . S
C1221 C1217 1.385 . S
C1221 C1220 1.374 . S
C1222 C1219 1.499 . S
C1222 C1223 1.373 . S
C1222 C1224 1.389 1_554 S
C1223 H1202 0.950 . S
C1223 C1222 1.373 . S
C1223 C1239 1.377 . S
C1224 C1222 1.389 1_556 S
C1224 C1225 1.524 . S
C1224 C1238 1.377 . S
C1225 C1224 1.524 . S
C1225 C1226 1.397 . S
C1225 C1230 1.363 . S
C1226 H1203 0.950 . S
C1226 C1225 1.397 . S
C1226 C1227 1.334 . S
C1227 H1204 0.950 . S
C1227 C1226 1.334 . S
C1227 C1228 1.287 . S
C1228 C1227 1.287 . S
C1228 C1229 1.524 . S
C1228 H1247 0.913 . S
C1229 H1205 0.950 . S
C1229 C1228 1.524 . S
C1229 C1230 1.415 . S
C1230 H1206 0.950 . S
C1230 C1225 1.363 . S
C1230 C1229 1.415 . S
C1231 H1207 0.951 . S
C1231 C1232 1.366 . S
C1231 C1233 1.388 . S
C1232 C1231 1.366 . S
C1232 C1236 1.385 . S
C1233 H1208 0.951 . S
C1233 C1231 1.388 . S
C1233 C1234 1.366 . S
C1234 C1233 1.366 . S
C1234 C1235 1.414 . S
C1234 C1237 1.499 . S
C1235 H1209 0.950 . S
C1235 C1234 1.414 . S
C1235 C1236 1.374 . S
C1236 H1210 0.950 . S
C1236 C1232 1.385 . S
C1236 C1235 1.374 . S
C1237 C1234 1.499 . S
C1237 C1238 1.373 . S
C1237 C1239 1.389 1_556 S
C1238 H1211 0.950 . S
C1238 C1224 1.377 . S
C1238 C1237 1.373 . S
C1239 C1223 1.377 . S
C1239 C1237 1.389 1_554 S
C1239 C1240 1.524 . S
C1240 C1239 1.524 . S
C1240 C1241 1.397 . S
C1240 C1245 1.363 . S
C1241 H1212 0.950 . S
C1241 C1240 1.397 . S
C1241 C1242 1.334 . S
C1242 H1213 0.950 . S
C1242 C1241 1.334 . S
C1242 C1243 1.287 . S
C1243 C1242 1.287 . S
C1243 C1244 1.524 . S
C1243 H1246 0.999 . S
C1244 H1214 0.950 . S
C1244 C1243 1.524 . S
C1244 C1245 1.415 . S
C1245 H1215 0.950 . S
C1245 C1240 1.363 . S
C1245 C1244 1.415 . S
H1246 C1243 0.999 . S
H1247 C1228 0.913 . S
H1248 C1266 0.951 . S
H1249 C1268 0.951 . S
H1250 C1270 0.950 . S
H1251 C1271 0.950 . S
H1252 C1273 0.950 . S
H1253 C1276 0.950 . S
H1254 C1277 0.950 . S
H1255 C1279 0.950 . S
H1256 C1280 0.950 . S
H1257 C1281 0.951 . S
H1258 C1283 0.951 . S
H1259 C1285 0.946 1_655 S
H1260 C1286 0.950 1_655 S
H1261 C1288 0.950 . S
H1262 C1291 0.950 . S
H1263 C1292 0.950 . S
H1264 C1294 0.950 . S
H1265 C1295 0.950 . S
C1266 H1248 0.951 . S
C1266 C1267 1.366 1_655 S
C1266 C1268 1.388 . S
C1267 C1266 1.366 1_455 S
C1267 C1271 1.385 . S
C1268 H1249 0.951 . S
C1268 C1266 1.388 . S
C1268 C1269 1.366 1_655 S
C1269 C1268 1.366 1_455 S
C1269 C1270 1.414 . S
C1269 C1272 1.499 . S
C1270 H1250 0.950 . S
C1270 C1269 1.414 . S
C1270 C1271 1.374 . S
C1271 H1251 0.950 . S
C1271 C1267 1.385 . S
C1271 C1270 1.374 . S
C1272 C1269 1.499 . S
C1272 C1273 1.373 1_455 S
C1272 C1274 1.389 . S
C1273 H1252 0.950 . S
C1273 C1272 1.373 1_655 S
C1273 C1289 1.377 . S
C1274 C1272 1.389 . S
C1274 C1275 1.524 . S
C1274 C1288 1.377 . S
C1275 C1274 1.524 . S
C1275 C1276 1.397 . S
C1275 C1280 1.363 . S
C1276 H1253 0.950 . S
C1276 C1275 1.397 . S
C1276 C1277 1.334 . S
C1277 H1254 0.950 . S
C1277 C1276 1.334 . S
C1277 C1278 1.287 . S
C1278 C1277 1.287 . S
C1278 C1279 1.524 . S
C1278 H1297 0.913 . S
C1279 H1255 0.950 . S
C1279 C1278 1.524 . S
C1279 C1280 1.415 . S
C1280 H1256 0.950 . S
C1280 C1275 1.363 . S
C1280 C1279 1.415 . S
C1281 H1257 0.951 . S
C1281 C1282 1.366 . S
C1281 C1283 1.388 . S
C1282 C1281 1.366 . S
C1282 C1286 1.385 . S
C1283 H1258 0.951 . S
C1283 C1281 1.388 . S
C1283 C1284 1.366 . S
C1284 C1283 1.366 . S
C1284 C1285 1.417 . S
C1284 C1287 1.499 . S
C1285 H1259 0.946 1_455 S
C1285 C1284 1.417 . S
C1285 C1286 1.375 . S
C1286 H1260 0.950 1_455 S
C1286 C1282 1.385 . S
C1286 C1285 1.375 . S
C1287 C1284 1.499 . S
C1287 C1288 1.373 . S
C1287 C1289 1.389 1_455 S
C1288 H1261 0.950 . S
C1288 C1274 1.377 . S
C1288 C1287 1.373 . S
C1289 C1273 1.377 . S
C1289 C1287 1.389 1_655 S
C1289 C1290 1.524 . S
C1290 C1289 1.524 . S
C1290 C1291 1.397 . S
C1290 C1295 1.363 . S
C1291 H1262 0.950 . S
C1291 C1290 1.397 . S
C1291 C1292 1.334 . S
C1292 H1263 0.950 . S
C1292 C1291 1.334 . S
C1292 C1293 1.287 . S
C1293 C1292 1.287 . S
C1293 C1294 1.524 . S
C1293 H1296 0.999 . S
C1294 H1264 0.950 . S
C1294 C1293 1.524 . S
C1294 C1295 1.415 . S
C1295 H1265 0.950 . S
C1295 C1290 1.363 . S
C1295 C1294 1.415 . S
H1296 C1293 0.999 . S
H1297 C1278 0.913 . S
H1298 C1316 0.951 . S
H1299 C1318 0.951 . S
H1300 C1320 0.946 1_565 S
H1301 C1321 0.950 . S
H1302 C1323 0.950 . S
H1303 C1326 0.950 . S
H1304 C1327 0.950 . S
H1305 C1329 0.950 . S
H1306 C1330 0.950 . S
H1307 C1331 0.951 . S
H1308 C1333 0.951 . S
H1309 C1335 0.950 . S
H1310 C1336 0.950 . S
H1311 C1338 0.950 . S
H1312 C1341 0.950 . S
H1313 C1342 0.950 . S
H1314 C1344 0.950 . S
H1315 C1345 0.950 . S
C1316 H1298 0.951 . S
C1316 C1317 1.366 . S
C1316 C1318 1.388 . S
C1317 C1316 1.366 . S
C1317 C1321 1.385 1_545 S
C1318 H1299 0.951 . S
C1318 C1316 1.388 . S
C1318 C1319 1.366 . S
C1319 C1318 1.366 . S
C1319 C1320 1.423 . S
C1319 C1322 1.499 . S
C1320 H1300 0.946 1_545 S
C1320 C1319 1.423 . S
C1320 C1321 1.372 1_545 S
C1321 H1301 0.950 . S
C1321 C1317 1.385 1_565 S
C1321 C1320 1.372 1_565 S
C1322 C1319 1.499 . S
C1322 C1323 1.373 1_545 S
C1322 C1324 1.389 . S
C1323 H1302 0.950 . S
C1323 C1322 1.373 1_565 S
C1323 C1339 1.377 . S
C1324 C1322 1.389 . S
C1324 C1325 1.524 . S
C1324 C1338 1.377 . S
C1325 C1324 1.524 . S
C1325 C1326 1.397 . S
C1325 C1330 1.363 . S
C1326 H1303 0.950 . S
C1326 C1325 1.397 . S
C1326 C1327 1.334 . S
C1327 H1304 0.950 . S
C1327 C1326 1.334 . S
C1327 C1328 1.287 . S
C1328 C1327 1.287 . S
C1328 C1329 1.524 . S
C1328 H1347 0.913 . S
C1329 H1305 0.950 . S
C1329 C1328 1.524 . S
C1329 C1330 1.415 . S
C1330 H1306 0.950 . S
C1330 C1325 1.363 . S
C1330 C1329 1.415 . S
C1331 H1307 0.951 . S
C1331 C1332 1.366 . S
C1331 C1333 1.388 . S
C1332 C1331 1.366 . S
C1332 C1336 1.385 . S
C1333 H1308 0.951 . S
C1333 C1331 1.388 . S
C1333 C1334 1.366 . S
C1334 C1333 1.366 . S
C1334 C1335 1.414 . S
C1334 C1337 1.499 . S
C1335 H1309 0.950 . S
C1335 C1334 1.414 . S
C1335 C1336 1.374 . S
C1336 H1310 0.950 . S
C1336 C1332 1.385 . S
C1336 C1335 1.374 . S
C1337 C1334 1.499 . S
C1337 C1338 1.373 . S
C1337 C1339 1.389 1_545 S
C1338 H1311 0.950 . S
C1338 C1324 1.377 . S
C1338 C1337 1.373 . S
C1339 C1323 1.377 . S
C1339 C1337 1.389 1_565 S
C1339 C1340 1.524 . S
C1340 C1339 1.524 . S
C1340 C1341 1.397 . S
C1340 C1345 1.363 . S
C1341 H1312 0.950 . S
C1341 C1340 1.397 . S
C1341 C1342 1.334 . S
C1342 H1313 0.950 . S
C1342 C1341 1.334 . S
C1342 C1343 1.287 . S
C1343 C1342 1.287 . S
C1343 C1344 1.524 . S
C1343 H1346 0.999 . S
C1344 H1314 0.950 . S
C1344 C1343 1.524 . S
C1344 C1345 1.415 . S
C1345 H1315 0.950 . S
C1345 C1340 1.363 . S
C1345 C1344 1.415 . S
H1346 C1343 0.999 . S
H1347 C1328 0.913 . S
H1348 C1366 0.951 . S
H1349 C1368 0.951 . S
H1350 C1370 0.950 . S
H1351 C1371 0.950 . S
H1352 C1373 0.950 . S
H1353 C1376 0.950 . S
H1354 C1377 0.950 . S
H1355 C1379 0.950 . S
H1356 C1380 0.950 . S
H1357 C1381 0.951 . S
H1358 C1383 0.951 . S
H1359 C1385 0.950 . S
H1360 C1386 0.950 . S
H1361 C1388 0.950 . S
H1362 C1391 0.950 . S
H1363 C1392 0.950 . S
H1364 C1394 0.950 . S
H1365 C1395 0.950 . S
C1366 H1348 0.951 . S
C1366 C1367 1.366 . S
C1366 C1368 1.388 . S
C1367 C1366 1.366 . S
C1367 C1371 1.385 . S
C1368 H1349 0.951 . S
C1368 C1366 1.388 . S
C1368 C1369 1.366 . S
C1369 C1368 1.366 . S
C1369 C1370 1.414 . S
C1369 C1372 1.499 . S
C1370 H1350 0.950 . S
C1370 C1369 1.414 . S
C1370 C1371 1.374 . S
C1371 H1351 0.950 . S
C1371 C1367 1.385 . S
C1371 C1370 1.374 . S
C1372 C1369 1.499 . S
C1372 C1373 1.373 . S
C1372 C1374 1.389 . S
C1373 H1352 0.950 . S
C1373 C1372 1.373 . S
C1373 C1389 1.377 . S
C1374 C1372 1.389 . S
C1374 C1375 1.524 . S
C1374 C1388 1.377 . S
C1375 C1374 1.524 . S
C1375 C1376 1.397 . S
C1375 C1380 1.363 . S
C1376 H1353 0.950 . S
C1376 C1375 1.397 . S
C1376 C1377 1.334 . S
C1377 H1354 0.950 . S
C1377 C1376 1.334 . S
C1377 C1378 1.287 . S
C1378 C1377 1.287 . S
C1378 C1379 1.524 . S
C1378 H1397 0.913 . S
C1379 H1355 0.950 . S
C1379 C1378 1.524 . S
C1379 C1380 1.415 . S
C1380 H1356 0.950 . S
C1380 C1375 1.363 . S
C1380 C1379 1.415 . S
C1381 H1357 0.951 . S
C1381 C1382 1.366 . S
C1381 C1383 1.388 . S
C1382 C1381 1.366 . S
C1382 C1386 1.385 . S
C1383 H1358 0.951 . S
C1383 C1381 1.388 . S
C1383 C1384 1.366 . S
C1384 C1383 1.366 . S
C1384 C1385 1.414 . S
C1384 C1387 1.499 . S
C1385 H1359 0.950 . S
C1385 C1384 1.414 . S
C1385 C1386 1.374 . S
C1386 H1360 0.950 . S
C1386 C1382 1.385 . S
C1386 C1385 1.374 . S
C1387 C1384 1.499 . S
C1387 C1388 1.373 . S
C1387 C1389 1.389 . S
C1388 H1361 0.950 . S
C1388 C1374 1.377 . S
C1388 C1387 1.373 . S
C1389 C1373 1.377 . S
C1389 C1387 1.389 . S
C1389 C1390 1.524 . S
C1390 C1389 1.524 . S
C1390 C1391 1.397 . S
C1390 C1395 1.363 . S
C1391 H1362 0.950 . S
C1391 C1390 1.397 . S
C1391 C1392 1.334 . S
C1392 H1363 0.950 . S
C1392 C1391 1.334 . S
C1392 C1393 1.287 . S
C1393 C1392 1.287 . S
C1393 C1394 1.524 . S
C1393 H1396 0.999 . S
C1394 H1364 0.950 . S
C1394 C1393 1.524 . S
C1394 C1395 1.415 . S
C1395 H1365 0.950 . S
C1395 C1390 1.363 . S
C1395 C1394 1.415 . S
H1396 C1393 0.999 . S
H1397 C1378 0.913 . S
H1398 C1416 0.951 . S
H1399 C1418 0.951 . S
H1400 C1420 0.950 . S
H1401 C1421 0.950 . S
H1402 C1423 0.950 . S
H1403 C1426 0.950 . S
H1404 C1427 0.950 . S
H1405 C1429 0.950 . S
H1406 C1430 0.950 . S
H1407 C1431 0.951 . S
H1408 C1433 0.951 . S
H1409 C1435 0.950 . S
H1410 C1436 0.950 . S
H1411 C1438 0.950 . S
H1412 C1441 0.950 . S
H1413 C1442 0.950 . S
H1414 C1444 0.950 . S
H1415 C1445 0.950 . S
C1416 H1398 0.951 . S
C1416 C1417 1.366 . S
C1416 C1418 1.388 . S
C1417 C1416 1.366 . S
C1417 C1421 1.385 . S
C1418 H1399 0.951 . S
C1418 C1416 1.388 . S
C1418 C1419 1.366 . S
C1419 C1418 1.366 . S
C1419 C1420 1.414 . S
C1419 C1422 1.499 . S
C1420 H1400 0.950 . S
C1420 C1419 1.414 . S
C1420 C1421 1.374 . S
C1421 H1401 0.950 . S
C1421 C1417 1.385 . S
C1421 C1420 1.374 . S
C1422 C1419 1.499 . S
C1422 C1423 1.373 . S
C1422 C1424 1.389 . S
C1423 H1402 0.950 . S
C1423 C1422 1.373 . S
C1423 C1439 1.377 . S
C1424 C1422 1.389 . S
C1424 C1425 1.524 . S
C1424 C1438 1.377 . S
C1425 C1424 1.524 . S
C1425 C1426 1.397 . S
C1425 C1430 1.363 . S
C1426 H1403 0.950 . S
C1426 C1425 1.397 . S
C1426 C1427 1.334 . S
C1427 H1404 0.950 . S
C1427 C1426 1.334 . S
C1427 C1428 1.287 . S
C1428 C1427 1.287 . S
C1428 C1429 1.524 . S
C1428 H1447 0.913 . S
C1429 H1405 0.950 . S
C1429 C1428 1.524 . S
C1429 C1430 1.415 . S
C1430 H1406 0.950 . S
C1430 C1425 1.363 . S
C1430 C1429 1.415 . S
C1431 H1407 0.951 . S
C1431 C1432 1.366 . S
C1431 C1433 1.388 . S
C1432 C1431 1.366 . S
C1432 C1436 1.385 . S
C1433 H1408 0.951 . S
C1433 C1431 1.388 . S
C1433 C1434 1.366 . S
C1434 C1433 1.366 . S
C1434 C1435 1.414 . S
C1434 C1437 1.499 . S
C1435 H1409 0.950 . S
C1435 C1434 1.414 . S
C1435 C1436 1.374 . S
C1436 H1410 0.950 . S
C1436 C1432 1.385 . S
C1436 C1435 1.374 . S
C1437 C1434 1.499 . S
C1437 C1438 1.373 . S
C1437 C1439 1.389 . S
C1438 H1411 0.950 . S
C1438 C1424 1.377 . S
C1438 C1437 1.373 . S
C1439 C1423 1.377 . S
C1439 C1437 1.389 . S
C1439 C1440 1.524 . S
C1440 C1439 1.524 . S
C1440 C1441 1.397 . S
C1440 C1445 1.363 . S
C1441 H1412 0.950 . S
C1441 C1440 1.397 . S
C1441 C1442 1.334 . S
C1442 H1413 0.950 . S
C1442 C1441 1.334 . S
C1442 C1443 1.287 . S
C1443 C1442 1.287 . S
C1443 C1444 1.524 . S
C1443 H1446 0.999 . S
C1444 H1414 0.950 . S
C1444 C1443 1.524 . S
C1444 C1445 1.415 . S
C1445 H1415 0.950 . S
C1445 C1440 1.363 . S
C1445 C1444 1.415 . S
H1446 C1443 0.999 . S
H1447 C1428 0.913 . S
H1448 C1466 0.951 . S
H1449 C1468 0.951 . S
H1450 C1470 0.950 . S
H1451 C1471 0.950 . S
H1452 C1473 0.950 . S
H1453 C1476 0.950 . S
H1454 C1477 0.950 . S
H1455 C1479 0.950 . S
H1456 C1480 0.950 . S
H1457 C1481 0.951 1_455 S
H1458 C1483 0.952 1_455 S
H1459 C1485 0.950 . S
H1460 C1486 0.950 . S
H1461 C1488 0.950 . S
H1462 C1491 0.950 . S
H1463 C1492 0.950 . S
H1464 C1494 0.950 . S
H1465 C1495 0.950 . S
C1466 H1448 0.951 . S
C1466 C1467 1.366 . S
C1466 C1468 1.388 . S
C1467 C1466 1.366 . S
C1467 C1471 1.385 1_655 S
C1468 H1449 0.951 . S
C1468 C1466 1.388 . S
C1468 C1469 1.366 . S
C1469 C1468 1.366 . S
C1469 C1470 1.414 1_655 S
C1469 C1472 1.499 . S
C1470 H1450 0.950 . S
C1470 C1469 1.414 1_455 S
C1470 C1471 1.374 . S
C1471 H1451 0.950 . S
C1471 C1467 1.385 1_455 S
C1471 C1470 1.374 . S
C1472 C1469 1.499 . S
C1472 C1473 1.373 1_655 S
C1472 C1474 1.389 . S
C1473 H1452 0.950 . S
C1473 C1472 1.373 1_455 S
C1473 C1489 1.377 . S
C1474 C1472 1.389 . S
C1474 C1475 1.524 . S
C1474 C1488 1.377 . S
C1475 C1474 1.524 . S
C1475 C1476 1.397 . S
C1475 C1480 1.363 . S
C1476 H1453 0.950 . S
C1476 C1475 1.397 . S
C1476 C1477 1.334 . S
C1477 H1454 0.950 . S
C1477 C1476 1.334 . S
C1477 C1478 1.287 . S
C1478 C1477 1.287 . S
C1478 C1479 1.524 . S
C1478 H1497 0.913 . S
C1479 H1455 0.950 . S
C1479 C1478 1.524 . S
C1479 C1480 1.415 . S
C1480 H1456 0.950 . S
C1480 C1475 1.363 . S
C1480 C1479 1.415 . S
C1481 H1457 0.951 1_655 S
C1481 C1482 1.366 . S
C1481 C1483 1.388 . S
C1482 C1481 1.366 . S
C1482 C1486 1.385 . S
C1483 H1458 0.952 1_655 S
C1483 C1481 1.388 . S
C1483 C1484 1.364 . S
C1484 C1483 1.364 . S
C1484 C1485 1.414 . S
C1484 C1487 1.499 . S
C1485 H1459 0.950 . S
C1485 C1484 1.414 . S
C1485 C1486 1.374 . S
C1486 H1460 0.950 . S
C1486 C1482 1.385 . S
C1486 C1485 1.374 . S
C1487 C1484 1.499 . S
C1487 C1488 1.373 . S
C1487 C1489 1.389 1_655 S
C1488 H1461 0.950 . S
C1488 C1474 1.377 . S
C1488 C1487 1.373 . S
C1489 C1473 1.377 . S
C1489 C1487 1.389 1_455 S
C1489 C1490 1.524 . S
C1490 C1489 1.524 . S
C1490 C1491 1.397 . S
C1490 C1495 1.363 . S
C1491 H1462 0.950 . S
C1491 C1490 1.397 . S
C1491 C1492 1.334 . S
C1492 H1463 0.950 . S
C1492 C1491 1.334 . S
C1492 C1493 1.287 . S
C1493 C1492 1.287 . S
C1493 C1494 1.524 . S
C1493 H1496 0.999 . S
C1494 H1464 0.950 . S
C1494 C1493 1.524 . S
C1494 C1495 1.415 . S
C1495 H1465 0.950 . S
C1495 C1490 1.363 . S
C1495 C1494 1.415 . S
H1496 C1493 0.999 . S
H1497 C1478 0.913 . S
H1498 C1516 0.951 . S
H1499 C1518 0.951 . S
H1500 C1520 0.955 . S
H1501 C1521 0.950 . S
H1502 C1523 0.950 . S
H1503 C1526 0.950 . S
H1504 C1527 0.950 . S
H1505 C1529 0.950 . S
H1506 C1530 0.950 . S
H1507 C1531 0.951 . S
H1508 C1533 0.952 . S
H1509 C1535 0.950 . S
H1510 C1536 0.950 . S
H1511 C1538 0.950 . S
H1512 C1541 0.950 . S
H1513 C1542 0.950 . S
H1514 C1544 0.950 . S
H1515 C1545 0.950 . S
C1516 H1498 0.951 . S
C1516 C1517 1.379 . S
C1516 C1518 1.388 . S
C1517 C1516 1.379 . S
C1517 C1521 1.378 1_565 S
C1518 H1499 0.951 . S
C1518 C1516 1.388 . S
C1518 C1519 1.366 . S
C1519 C1518 1.366 . S
C1519 C1520 1.409 1_565 S
C1519 C1522 1.499 . S
C1520 H1500 0.955 . S
C1520 C1519 1.409 1_545 S
C1520 C1521 1.375 . S
C1521 H1501 0.950 . S
C1521 C1517 1.378 1_545 S
C1521 C1520 1.375 . S
C1522 C1519 1.499 . S
C1522 C1523 1.373 1_565 S
C1522 C1524 1.389 . S
C1523 H1502 0.950 . S
C1523 C1522 1.373 1_545 S
C1523 C1539 1.377 . S
C1524 C1522 1.389 . S
C1524 C1525 1.524 . S
C1524 C1538 1.377 . S
C1525 C1524 1.524 . S
C1525 C1526 1.397 . S
C1525 C1530 1.363 . S
C1526 H1503 0.950 . S
C1526 C1525 1.397 . S
C1526 C1527 1.334 . S
C1527 H1504 0.950 . S
C1527 C1526 1.334 . S
C1527 C1528 1.287 . S
C1528 C1527 1.287 . S
C1528 C1529 1.524 . S
C1528 H1547 0.913 . S
C1529 H1505 0.950 . S
C1529 C1528 1.524 . S
C1529 C1530 1.415 . S
C1530 H1506 0.950 . S
C1530 C1525 1.363 . S
C1530 C1529 1.415 . S
C1531 H1507 0.951 . S
C1531 C1532 1.366 . S
C1531 C1533 1.388 . S
C1532 C1531 1.366 . S
C1532 C1536 1.385 . S
C1533 H1508 0.952 . S
C1533 C1531 1.388 . S
C1533 C1534 1.366 . S
C1534 C1533 1.366 . S
C1534 C1535 1.414 . S
C1534 C1537 1.499 . S
C1535 H1509 0.950 . S
C1535 C1534 1.414 . S
C1535 C1536 1.374 . S
C1536 H1510 0.950 . S
C1536 C1532 1.385 . S
C1536 C1535 1.374 . S
C1537 C1534 1.499 . S
C1537 C1538 1.373 . S
C1537 C1539 1.389 1_565 S
C1538 H1511 0.950 . S
C1538 C1524 1.377 . S
C1538 C1537 1.373 . S
C1539 C1523 1.377 . S
C1539 C1537 1.389 1_545 S
C1539 C1540 1.524 . S
C1540 C1539 1.524 . S
C1540 C1541 1.397 . S
C1540 C1545 1.363 . S
C1541 H1512 0.950 . S
C1541 C1540 1.397 . S
C1541 C1542 1.334 . S
C1542 H1513 0.950 . S
C1542 C1541 1.334 . S
C1542 C1543 1.287 . S
C1543 C1542 1.287 . S
C1543 C1544 1.524 . S
C1543 H1546 0.999 . S
C1544 H1514 0.950 . S
C1544 C1543 1.524 . S
C1544 C1545 1.415 . S
C1545 H1515 0.950 . S
C1545 C1540 1.363 . S
C1545 C1544 1.415 . S
H1546 C1543 0.999 . S
H1547 C1528 0.913 . S
H1548 C1566 0.951 . S
H1549 C1568 0.951 . S
H1550 C1570 0.950 . S
H1551 C1571 0.950 . S
H1552 C1573 0.950 . S
H1553 C1576 0.950 . S
H1554 C1577 0.950 . S
H1555 C1579 0.950 . S
H1556 C1580 0.950 . S
H1557 C1581 0.951 . S
H1558 C1583 0.951 . S
H1559 C1585 0.950 . S
H1560 C1586 0.950 . S
H1561 C1588 0.950 . S
H1562 C1591 0.950 . S
H1563 C1592 0.950 . S
H1564 C1594 0.950 . S
H1565 C1595 0.950 . S
C1566 H1548 0.951 . S
C1566 C1567 1.366 . S
C1566 C1568 1.388 . S
C1567 C1566 1.366 . S
C1567 C1571 1.385 . S
C1568 H1549 0.951 . S
C1568 C1566 1.388 . S
C1568 C1569 1.366 . S
C1569 C1568 1.366 . S
C1569 C1570 1.414 . S
C1569 C1572 1.499 . S
C1570 H1550 0.950 . S
C1570 C1569 1.414 . S
C1570 C1571 1.374 . S
C1571 H1551 0.950 . S
C1571 C1567 1.385 . S
C1571 C1570 1.374 . S
C1572 C1569 1.499 . S
C1572 C1573 1.373 . S
C1572 C1574 1.389 . S
C1573 H1552 0.950 . S
C1573 C1572 1.373 . S
C1573 C1589 1.377 . S
C1574 C1572 1.389 . S
C1574 C1575 1.524 . S
C1574 C1588 1.377 . S
C1575 C1574 1.524 . S
C1575 C1576 1.397 . S
C1575 C1580 1.363 . S
C1576 H1553 0.950 . S
C1576 C1575 1.397 . S
C1576 C1577 1.334 . S
C1577 H1554 0.950 . S
C1577 C1576 1.334 . S
C1577 C1578 1.287 . S
C1578 C1577 1.287 . S
C1578 C1579 1.524 . S
C1578 H1597 0.913 . S
C1579 H1555 0.950 . S
C1579 C1578 1.524 . S
C1579 C1580 1.415 . S
C1580 H1556 0.950 . S
C1580 C1575 1.363 . S
C1580 C1579 1.415 . S
C1581 H1557 0.951 . S
C1581 C1582 1.366 . S
C1581 C1583 1.388 . S
C1582 C1581 1.366 . S
C1582 C1586 1.385 . S
C1583 H1558 0.951 . S
C1583 C1581 1.388 . S
C1583 C1584 1.366 . S
C1584 C1583 1.366 . S
C1584 C1585 1.414 . S
C1584 C1587 1.499 . S
C1585 H1559 0.950 . S
C1585 C1584 1.414 . S
C1585 C1586 1.374 . S
C1586 H1560 0.950 . S
C1586 C1582 1.385 . S
C1586 C1585 1.374 . S
C1587 C1584 1.499 . S
C1587 C1588 1.373 . S
C1587 C1589 1.389 . S
C1588 H1561 0.950 . S
C1588 C1574 1.377 . S
C1588 C1587 1.373 . S
C1589 C1573 1.377 . S
C1589 C1587 1.389 . S
C1589 C1590 1.524 . S
C1590 C1589 1.524 . S
C1590 C1591 1.397 . S
C1590 C1595 1.363 . S
C1591 H1562 0.950 . S
C1591 C1590 1.397 . S
C1591 C1592 1.334 . S
C1592 H1563 0.950 . S
C1592 C1591 1.334 . S
C1592 C1593 1.287 . S
C1593 C1592 1.287 . S
C1593 C1594 1.524 . S
C1593 H1596 0.999 . S
C1594 H1564 0.950 . S
C1594 C1593 1.524 . S
C1594 C1595 1.415 . S
C1595 H1565 0.950 . S
C1595 C1590 1.363 . S
C1595 C1594 1.415 . S
H1596 C1593 0.999 . S
H1597 C1578 0.913 . S
H1598 C1616 0.951 . S
H1599 C1618 0.951 . S
H1600 C1620 0.950 . S
H1601 C1621 0.950 . S
H1602 C1623 0.950 . S
H1603 C1626 0.950 . S
H1604 C1627 0.950 . S
H1605 C1629 0.950 . S
H1606 C1630 0.950 . S
H1607 C1631 0.951 . S
H1608 C1633 0.951 . S
H1609 C1635 0.950 . S
H1610 C1636 0.950 . S
H1611 C1638 0.950 . S
H1612 C1641 0.950 . S
H1613 C1642 0.950 . S
H1614 C1644 0.950 . S
H1615 C1645 0.950 . S
C1616 H1598 0.951 . S
C1616 C1617 1.366 . S
C1616 C1618 1.388 . S
C1617 C1616 1.366 . S
C1617 C1621 1.385 . S
C1618 H1599 0.951 . S
C1618 C1616 1.388 . S
C1618 C1619 1.366 . S
C1619 C1618 1.366 . S
C1619 C1620 1.414 . S
C1619 C1622 1.499 . S
C1620 H1600 0.950 . S
C1620 C1619 1.414 . S
C1620 C1621 1.374 . S
C1621 H1601 0.950 . S
C1621 C1617 1.385 . S
C1621 C1620 1.374 . S
C1622 C1619 1.499 . S
C1622 C1623 1.373 . S
C1622 C1624 1.389 . S
C1623 H1602 0.950 . S
C1623 C1622 1.373 . S
C1623 C1639 1.377 . S
C1624 C1622 1.389 . S
C1624 C1625 1.524 . S
C1624 C1638 1.377 . S
C1625 C1624 1.524 . S
C1625 C1626 1.397 . S
C1625 C1630 1.363 . S
C1626 H1603 0.950 . S
C1626 C1625 1.397 . S
C1626 C1627 1.334 . S
C1627 H1604 0.950 . S
C1627 C1626 1.334 . S
C1627 C1628 1.287 . S
C1628 C1627 1.287 . S
C1628 C1629 1.524 . S
C1628 H1647 0.913 . S
C1629 H1605 0.950 . S
C1629 C1628 1.524 . S
C1629 C1630 1.415 . S
C1630 H1606 0.950 . S
C1630 C1625 1.363 . S
C1630 C1629 1.415 . S
C1631 H1607 0.951 . S
C1631 C1632 1.366 . S
C1631 C1633 1.388 . S
C1632 C1631 1.366 . S
C1632 C1636 1.385 . S
C1633 H1608 0.951 . S
C1633 C1631 1.388 . S
C1633 C1634 1.366 . S
C1634 C1633 1.366 . S
C1634 C1635 1.414 . S
C1634 C1637 1.499 . S
C1635 H1609 0.950 . S
C1635 C1634 1.414 . S
C1635 C1636 1.374 . S
C1636 H1610 0.950 . S
C1636 C1632 1.385 . S
C1636 C1635 1.374 . S
C1637 C1634 1.499 . S
C1637 C1638 1.373 . S
C1637 C1639 1.389 . S
C1638 H1611 0.950 . S
C1638 C1624 1.377 . S
C1638 C1637 1.373 . S
C1639 C1623 1.377 . S
C1639 C1637 1.389 . S
C1639 C1640 1.524 . S
C1640 C1639 1.524 . S
C1640 C1641 1.397 . S
C1640 C1645 1.363 . S
C1641 H1612 0.950 . S
C1641 C1640 1.397 . S
C1641 C1642 1.334 . S
C1642 H1613 0.950 . S
C1642 C1641 1.334 . S
C1642 C1643 1.287 . S
C1643 C1642 1.287 . S
C1643 C1644 1.524 . S
C1643 H1646 0.999 . S
C1644 H1614 0.950 . S
C1644 C1643 1.524 . S
C1644 C1645 1.415 . S
C1645 H1615 0.950 . S
C1645 C1640 1.363 . S
C1645 C1644 1.415 . S
H1646 C1643 0.999 . S
H1647 C1628 0.913 . S
C467 C241 1.869 . S
C482 C297 2.016 1_545 S
C532 C337 2.043 . S
C517 C277 1.930 . S
C582 C377 2.034 . S
C567 C169 1.878 . S
C632 C417 2.034 1_455 S
C617 C205 1.882 . S
C682 C306 2.023 1_565 S
C667 C97 1.873 . S
C717 C133 1.933 . S
C732 C346 2.047 . S
C767 C25 1.881 . S
C782 C386 2.033 . S
C817 C61 1.881 1_655 S
C832 C426 2.033 1_655 S
C882 C303 0.244 . S
C867 C211 0.257 . S
C932 C343 0.244 . S
C917 C247 0.259 . S
C982 C383 0.240 . S
C967 C253 0.256 . S
C1017 C175 0.257 . S
C1032 C423 0.238 . S
C1067 C67 0.335 1_655 S
C1082 C294 0.236 . S
C1132 C334 0.248 . S
C1117 C103 0.324 1_565 S
C1182 C374 0.238 . S
C1167 C109 0.187 . S
C1217 C31 0.324 . S
C1232 C414 0.247 . S
C1267 C181 2.558 . S
C1282 C307 2.823 . S
C1317 C217 2.527 . S
C1332 C347 2.800 . S
C1382 C387 2.799 . S
C1367 C283 2.465 . S
C1432 C427 2.809 . S
C1417 C145 2.528 . S
C1467 C37 2.560 1_655 S
C1482 C298 2.839 . S
C1532 C338 2.800 . S
C1517 C73 2.528 1_565 S
C1582 C378 2.799 . S
C1567 C139 2.456 . S
C1617 C1 2.542 . S
C1632 C418 2.815 . S
