# Generated by pormake.
# Topology dag, (6,3)-cn, num edge types: 1
# Building blocks:
#     Node 0, Type 0, BuildingBlock: OJICUG_clean_sbu_0, # of connection points: 6
#     Node 1, Type 0, BuildingBlock: OJICUG_clean_sbu_0, # of connection points: 6
#     Node 2, Type 0, BuildingBlock: OJICUG_clean_sbu_0, # of connection points: 6
#     Node 3, Type 0, BuildingBlock: OJICUG_clean_sbu_0, # of connection points: 6
#     Node 4, Type 1, BuildingBlock: INOVEN_clean_linker_0, # of connection points: 3
#     Node 5, Type 1, BuildingBlock: INOVEN_clean_linker_0, # of connection points: 3
#     Node 6, Type 1, BuildingBlock: INOVEN_clean_linker_0, # of connection points: 3
#     Node 7, Type 1, BuildingBlock: INOVEN_clean_linker_0, # of connection points: 3
#     Node 8, Type 1, BuildingBlock: INOVEN_clean_linker_0, # of connection points: 3
#     Node 9, Type 1, BuildingBlock: INOVEN_clean_linker_0, # of connection points: 3
#     Node 10, Type 1, BuildingBlock: INOVEN_clean_linker_0, # of connection points: 3
#     Node 11, Type 1, BuildingBlock: INOVEN_clean_linker_0, # of connection points: 3
#     Edge 12, Type (0, 1), BuildingBlock: EZIPEK_clean_linker_0, # of connection points: 2
#     Edge 13, Type (0, 1), BuildingBlock: EZIPEK_clean_linker_0, # of connection points: 2
#     Edge 14, Type (0, 1), BuildingBlock: EZIPEK_clean_linker_0, # of connection points: 2
#     Edge 15, Type (0, 1), BuildingBlock: EZIPEK_clean_linker_0, # of connection points: 2
#     Edge 16, Type (0, 1), BuildingBlock: EZIPEK_clean_linker_0, # of connection points: 2
#     Edge 17, Type (0, 1), BuildingBlock: EZIPEK_clean_linker_0, # of connection points: 2
#     Edge 18, Type (0, 1), BuildingBlock: EZIPEK_clean_linker_0, # of connection points: 2
#     Edge 19, Type (0, 1), BuildingBlock: EZIPEK_clean_linker_0, # of connection points: 2
#     Edge 20, Type (0, 1), BuildingBlock: EZIPEK_clean_linker_0, # of connection points: 2
#     Edge 21, Type (0, 1), BuildingBlock: EZIPEK_clean_linker_0, # of connection points: 2
#     Edge 22, Type (0, 1), BuildingBlock: EZIPEK_clean_linker_0, # of connection points: 2
#     Edge 23, Type (0, 1), BuildingBlock: EZIPEK_clean_linker_0, # of connection points: 2
#     Edge 24, Type (0, 1), BuildingBlock: EZIPEK_clean_linker_0, # of connection points: 2
#     Edge 25, Type (0, 1), BuildingBlock: EZIPEK_clean_linker_0, # of connection points: 2
#     Edge 26, Type (0, 1), BuildingBlock: EZIPEK_clean_linker_0, # of connection points: 2
#     Edge 27, Type (0, 1), BuildingBlock: EZIPEK_clean_linker_0, # of connection points: 2
#     Edge 28, Type (0, 1), BuildingBlock: EZIPEK_clean_linker_0, # of connection points: 2
#     Edge 29, Type (0, 1), BuildingBlock: EZIPEK_clean_linker_0, # of connection points: 2
#     Edge 30, Type (0, 1), BuildingBlock: EZIPEK_clean_linker_0, # of connection points: 2
#     Edge 31, Type (0, 1), BuildingBlock: EZIPEK_clean_linker_0, # of connection points: 2
#     Edge 32, Type (0, 1), BuildingBlock: EZIPEK_clean_linker_0, # of connection points: 2
#     Edge 33, Type (0, 1), BuildingBlock: EZIPEK_clean_linker_0, # of connection points: 2
#     Edge 34, Type (0, 1), BuildingBlock: EZIPEK_clean_linker_0, # of connection points: 2
#     Edge 35, Type (0, 1), BuildingBlock: EZIPEK_clean_linker_0, # of connection points: 2
# Relax obj value: 0.098
# Max RMSD: 0.121
# Mean RMSD: 0.102
data_MOF--net-dag--node1-OJICUG_clean_sbu_0--node2-INOVEN_clean_linker_0--edge1-EZIPEK_clean_linker_0
_symmetry_space_group_name_H-M    P1
_symmetry_Int_Tables_number       1
_symmetry_cell_setting            triclinic
loop_
_symmetry_equiv_pos_as_xyz
'x, y, z'
_cell_length_a     26.571531
_cell_length_b     29.025961
_cell_length_c     28.62078
_cell_angle_alpha  94.163429
_cell_angle_beta   90.063684
_cell_angle_gamma 90.016822
loop_
_atom_site_label
_atom_site_type_symbol
_atom_site_fract_x
_atom_site_fract_y
_atom_site_fract_z
_atom_type_partial_charge
Sc0 Sc 0.10511 0.88647 0.03377 0.0
Sc1 Sc 0.10511 0.76619 0.02525 0.0
Sc2 Sc 0.20908 0.82956 0.07391 0.0
O3 O 0.14011 0.82703 0.04386 0.0
C4 C 0.21381 0.91127 0.00447 0.0
C5 C 0.07026 0.82302 0.94264 0.0
C6 C 0.22039 0.74981 0.99429 0.0
C7 C 0.01546 0.82953 0.06946 0.0
C8 C 0.15708 0.91055 0.13281 0.0
C9 C 0.15695 0.7447 0.12044 0.0
O10 O 0.16708 0.91054 0.99513 0.0
O11 O 0.08732 0.78532 0.95597 0.0
O12 O 0.23804 0.78466 0.0182 0.0
O13 O 0.04322 0.86509 0.0738 0.0
O14 O 0.18407 0.8745 0.13256 0.0
O15 O 0.11922 0.74063 0.09307 0.0
O16 O 0.13228 0.92166 0.09747 0.0
O17 O 0.03083 0.79138 0.04933 0.0
O18 O 0.19312 0.7725 0.11531 0.0
O19 O 0.07093 0.86065 0.9683 0.0
O20 O 0.23375 0.88729 0.03516 0.0
O21 O 0.17469 0.73643 0.99632 0.0
Sc22 Sc 0.70042 0.6524 0.46424 0.0
Sc23 Sc 0.60957 0.73558 0.50463 0.0
Sc24 Sc 0.58486 0.61685 0.50952 0.0
O25 O 0.63161 0.66834 0.49272 0.0
C26 C 0.63043 0.57483 0.41295 0.0
C27 C 0.66701 0.73673 0.40629 0.0
C28 C 0.50888 0.68731 0.46557 0.0
C29 C 0.72498 0.73781 0.53663 0.0
C30 C 0.6915 0.57788 0.53987 0.0
C31 C 0.56596 0.69133 0.59529 0.0
O32 O 0.67047 0.59896 0.41519 0.0
O33 O 0.63597 0.75329 0.43686 0.0
O34 O 0.52122 0.64783 0.47813 0.0
O35 O 0.73771 0.70269 0.51037 0.0
O36 O 0.64373 0.5794 0.54175 0.0
O37 O 0.5793 0.72608 0.57366 0.0
O38 O 0.71732 0.6032 0.51469 0.0
O39 O 0.68041 0.75396 0.53885 0.0
O40 O 0.56759 0.65014 0.57709 0.0
O41 O 0.69271 0.70056 0.41136 0.0
O42 O 0.59637 0.57776 0.44401 0.0
O43 O 0.53657 0.72302 0.47195 0.0
Sc44 Sc 0.89628 0.23196 0.0102 0.0
Sc45 Sc 0.79189 0.16574 0.96689 0.0
Sc46 Sc 0.89883 0.11077 0.00872 0.0
O47 O 0.8623 0.16957 0.99538 0.0
C48 C 0.98859 0.1702 0.97149 0.0
C49 C 0.84322 0.24655 0.91369 0.0
C50 C 0.84692 0.08318 0.90992 0.0
C51 C 0.78212 0.25169 0.04033 0.0
C52 C 0.92867 0.17822 0.09782 0.0
C53 C 0.78707 0.08565 0.03744 0.0
O54 O 0.9688 0.20906 0.98359 0.0
O55 O 0.80851 0.2176 0.91979 0.0
O56 O 0.87783 0.07661 0.94263 0.0
O57 O 0.82841 0.26244 0.03908 0.0
O58 O 0.92487 0.13869 0.07593 0.0
O59 O 0.76596 0.11272 0.0105 0.0
O60 O 0.9166 0.21558 0.08012 0.0
O61 O 0.7632 0.2163 0.0183 0.0
O62 O 0.83448 0.08317 0.04249 0.0
O63 O 0.87969 0.25447 0.94183 0.0
O64 O 0.96711 0.13179 0.97633 0.0
O65 O 0.81453 0.1154 0.91202 0.0
Sc66 Sc 0.40966 0.37113 0.52706 0.0
Sc67 Sc 0.29642 0.33098 0.57205 0.0
Sc68 Sc 0.39143 0.25172 0.53307 0.0
O69 O 0.36574 0.31786 0.54388 0.0
C70 C 0.42958 0.29593 0.44168 0.0
C71 C 0.30297 0.40737 0.49685 0.0
C72 C 0.27535 0.24297 0.50377 0.0
C73 C 0.36175 0.40972 0.62457 0.0
C74 C 0.49058 0.30503 0.56876 0.0
C75 C 0.33633 0.24834 0.63022 0.0
O76 O 0.4314 0.33654 0.4614 0.0
O77 O 0.27847 0.38482 0.52582 0.0
O78 O 0.31983 0.22733 0.50639 0.0
O79 O 0.39284 0.4115 0.59105 0.0
O80 O 0.46637 0.26794 0.55856 0.0
O81 O 0.3051 0.27983 0.622 0.0
O82 O 0.47408 0.34485 0.56141 0.0
O83 O 0.32612 0.38055 0.62462 0.0
O84 O 0.37221 0.23577 0.60297 0.0
O85 O 0.35015 0.40361 0.49105 0.0
O86 O 0.4135 0.26121 0.46182 0.0
O87 O 0.2612 0.28173 0.52276 0.0
H88 H 0.04665 0.17871 0.30448 0.0
H89 H 0.04574 0.06466 0.20011 0.0
H90 H 0.14208 0.06082 0.3202 0.0
N91 N 0.11985 0.1477 0.35523 0.0
N92 N 0.1523 0.1302 0.37991 0.0
C93 C 0.05855 0.14404 0.29284 0.0
C94 C 0.04046 0.12333 0.25045 0.0
C95 C 0.09509 0.1218 0.31829 0.0
C96 C 0.11246 0.07773 0.30182 0.0
C97 C 0.09494 0.05729 0.25902 0.0
C98 C 0.05836 0.07986 0.23386 0.0
H99 H 0.36564 0.558 0.80851 0.0
H100 H 0.46411 0.58059 0.69361 0.0
H101 H 0.4406 0.68898 0.80185 0.0
N102 N 0.36985 0.64155 0.84827 0.0
N103 N 0.36381 0.68366 0.85814 0.0
C104 C 0.39285 0.57954 0.79214 0.0
C105 C 0.41479 0.56391 0.74954 0.0
C106 C 0.40119 0.62468 0.81089 0.0
C107 C 0.43461 0.65359 0.78827 0.0
C108 C 0.45806 0.63733 0.74627 0.0
C109 C 0.44807 0.59245 0.72721 0.0
H110 H 0.69178 0.93323 0.18657 0.0
H111 H 0.80827 0.92 0.08276 0.0
H112 H 0.80631 0.82956 0.19533 0.0
N113 N 0.71975 0.86153 0.23275 0.0
N114 N 0.71344 0.81953 0.23689 0.0
C115 C 0.72444 0.91527 0.17172 0.0
C116 C 0.74862 0.9315 0.13268 0.0
C117 C 0.7438 0.87689 0.19274 0.0
C118 C 0.78896 0.85626 0.1762 0.0
C119 C 0.81292 0.87195 0.13663 0.0
C120 C 0.7901 0.90743 0.11332 0.0
H121 H 0.79685 0.42774 0.6839 0.0
H122 H 0.66701 0.4071 0.59525 0.0
H123 H 0.70875 0.30302 0.68681 0.0
N124 N 0.78707 0.35106 0.72729 0.0
N125 N 0.77981 0.31399 0.74552 0.0
C126 C 0.76628 0.40589 0.67041 0.0
C127 C 0.7339 0.42135 0.63627 0.0
C128 C 0.75769 0.3632 0.68877 0.0
C129 C 0.71671 0.33565 0.67223 0.0
C130 C 0.6837 0.35177 0.63893 0.0
C131 C 0.69295 0.39424 0.62058 0.0
H132 H 0.55167 0.29473 0.23387 0.0
H133 H 0.5334 0.40337 0.34269 0.0
H134 H 0.63595 0.42133 0.22993 0.0
N135 N 0.62402 0.3349 0.18912 0.0
N136 N 0.65506 0.35678 0.16682 0.0
C137 C 0.5595 0.32972 0.24785 0.0
C138 C 0.53711 0.3467 0.28985 0.0
C139 C 0.595 0.35645 0.22586 0.0
C140 C 0.6069 0.40108 0.24535 0.0
C141 C 0.58463 0.41791 0.28747 0.0
C142 C 0.54935 0.39091 0.30923 0.0
H143 H 0.31184 0.06738 0.86185 0.0
H144 H 0.17976 0.06921 0.94862 0.0
H145 H 0.20424 0.17846 0.85825 0.0
N146 N 0.28823 0.14126 0.81728 0.0
N147 N 0.27599 0.17793 0.80025 0.0
C148 C 0.27773 0.08438 0.87466 0.0
C149 C 0.24822 0.06433 0.9083 0.0
C150 C 0.26194 0.12532 0.85603 0.0
C151 C 0.21722 0.147 0.87254 0.0
C152 C 0.18726 0.12649 0.90549 0.0
C153 C 0.2031 0.08536 0.92334 0.0
H154 H 0.20566 0.55719 0.35016 0.0
H155 H 0.33762 0.5802 0.43606 0.0
H156 H 0.29821 0.67782 0.33683 0.0
N157 N 0.21691 0.63078 0.30119 0.0
N158 N 0.22309 0.66795 0.28271 0.0
C159 C 0.23778 0.57834 0.36106 0.0
C160 C 0.27034 0.5641 0.39594 0.0
C161 C 0.24758 0.61919 0.33928 0.0
C162 C 0.28967 0.64641 0.3535 0.0
C163 C 0.3221 0.63226 0.38825 0.0
C164 C 0.3122 0.5913 0.40939 0.0
H165 H 0.84875 0.93239 0.72195 0.0
H166 H 0.9468 0.924 0.84016 0.0
H167 H 0.94176 0.81193 0.73338 0.0
N168 N 0.86604 0.84987 0.68344 0.0
N169 N 0.87033 0.80833 0.66988 0.0
C170 C 0.87772 0.91423 0.73998 0.0
C171 C 0.89661 0.93323 0.78264 0.0
C172 C 0.89296 0.8703 0.72232 0.0
C173 C 0.92987 0.84617 0.74644 0.0
C174 C 0.94954 0.86578 0.78906 0.0
C175 C 0.9327 0.90925 0.80674 0.0
C176 C 0.18305 0.97685 0.18731 0.0
C177 C 0.14964 0.93975 0.17659 0.0
C178 C 0.08925 0.97324 0.23401 0.0
C179 C 0.11803 0.01444 0.23734 0.0
N180 N 0.19198 0.05687 0.21635 0.0
N181 N 0.07194 0.90022 0.19022 0.0
C182 C 0.16546 0.0164 0.21459 0.0
C183 C 0.10334 0.93682 0.20079 0.0
N184 N 0.2312 0.97432 0.17072 0.0
N185 N 0.04843 0.96935 0.26247 0.0
H186 H 0.08248 0.87196 0.16775 0.0
H187 H 0.03498 0.89861 0.20201 0.0
H188 H 0.03754 -0.00427 0.28712 0.0
H189 H 0.02809 0.93892 0.26459 0.0
H190 H 0.25888 -0.00136 0.18017 0.0
H191 H 0.24466 0.94516 0.15119 0.0
H192 H 0.22368 0.06187 0.19598 0.0
H193 H 0.18053 0.08673 0.23586 0.0
C194 C 0.49417 0.7122 0.64894 0.0
C195 C 0.54472 0.69785 0.64319 0.0
C196 C 0.54222 0.66206 0.7179 0.0
C197 C 0.48918 0.66787 0.71848 0.0
N198 N 0.41419 0.70123 0.68745 0.0
N199 N 0.62167 0.67659 0.67906 0.0
C200 C 0.46517 0.69501 0.68561 0.0
C201 C 0.57038 0.67841 0.68021 0.0
N202 N 0.47439 0.74234 0.61944 0.0
N203 N 0.56475 0.63835 0.75177 0.0
H204 H 0.64208 0.68986 0.65189 0.0
H205 H 0.6439 0.66598 0.70622 0.0
H206 H 0.54497 0.62777 0.78062 0.0
H207 H 0.60233 0.62832 0.75102 0.0
H208 H 0.43871 0.75687 0.62326 0.0
H209 H 0.49609 0.75664 0.59386 0.0
H210 H 0.39337 0.71552 0.66129 0.0
H211 H 0.39203 0.69023 0.71455 0.0
C212 C 0.73419 0.01406 0.04026 0.0
C213 C 0.75605 0.05394 0.06364 0.0
C214 C 0.75361 0.01821 0.13812 0.0
C215 C 0.73625 0.97661 0.11409 0.0
N216 N 0.6939 0.93963 0.04744 0.0
N217 N 0.76625 0.1008 0.13542 0.0
C218 C 0.72042 0.97651 0.06685 0.0
C219 C 0.75852 0.0583 0.11299 0.0
N220 N 0.72991 0.01085 0.99262 0.0
N221 N 0.76957 0.01862 0.18353 0.0
H222 H 0.76933 0.13046 0.11701 0.0
H223 H 0.7642 0.10712 0.17167 0.0
H224 H 0.76638 0.99031 0.20366 0.0
H225 H 0.7886 0.04643 0.20049 0.0
H226 H 0.72015 0.98058 0.97294 0.0
H227 H 0.738 0.03841 0.97254 0.0
H228 H 0.67807 0.93846 0.01408 0.0
H229 H 0.68392 0.91194 0.06688 0.0
C230 C 0.58374 0.29934 0.55868 0.0
C231 C 0.54146 0.30256 0.58884 0.0
C232 C 0.59471 0.32824 0.65521 0.0
C233 C 0.637 0.32653 0.62477 0.0
N234 N 0.6748 0.29856 0.55179 0.0
N235 N 0.50807 0.30518 0.66695 0.0
C236 C 0.63245 0.30776 0.57785 0.0
C237 C 0.54757 0.31179 0.63766 0.0
N238 N 0.57694 0.29066 0.51153 0.0
N239 N 0.59861 0.34855 0.69968 0.0
H240 H 0.4732 0.29299 0.65455 0.0
H241 H 0.5112 0.30758 0.70332 0.0
H242 H 0.63236 0.3612 0.71407 0.0
H243 H 0.56768 0.35575 0.7213 0.0
H244 H 0.60546 0.29321 0.48694 0.0
H245 H 0.54173 0.28311 0.49677 0.0
H246 H 0.67439 0.28145 0.51854 0.0
H247 H 0.71091 0.30438 0.56538 0.0
C248 C 0.64893 0.49426 0.38153 0.0
C249 C 0.62534 0.53728 0.37561 0.0
C250 C 0.57909 0.5034 0.30732 0.0
C251 C 0.60323 0.46065 0.3131 0.0
N252 N 0.66876 0.41727 0.34832 0.0
N253 N 0.57445 0.58562 0.32972 0.0
C254 C 0.64091 0.45685 0.3477 0.0
C255 C 0.59257 0.54276 0.33726 0.0
N256 N 0.67631 0.4883 0.42112 0.0
N257 N 0.54192 0.50571 0.27451 0.0
H258 H 0.58254 0.61459 0.35211 0.0
H259 H 0.55446 0.59316 0.29995 0.0
H260 H 0.53263 0.47786 0.25096 0.0
H261 H 0.51867 0.53425 0.27189 0.0
H262 H 0.68941 0.45639 0.43033 0.0
H263 H 0.68256 0.51483 0.44697 0.0
H264 H 0.70024 0.41413 0.36955 0.0
H265 H 0.66314 0.38865 0.32468 0.0
C266 C 0.04937 0.16286 0.90516 0.0
C267 C 0.04074 0.16889 0.95392 0.0
C268 C 0.13096 0.16133 0.96856 0.0
C269 C 0.138 0.14654 0.92067 0.0
N270 N 0.10224 0.12797 0.84375 0.0
N271 N 0.07219 0.17167 0.03313 0.0
C272 C 0.09693 0.14646 0.88877 0.0
C273 C 0.08133 0.16802 0.98602 0.0
N274 N 0.01218 0.1731 0.87465 0.0
N275 N 0.17179 0.16926 0.99711 0.0
H276 H 0.0363 0.17735 0.04705 0.0
H277 H 0.09948 0.16601 0.05823 0.0
H278 H 0.2087 0.16527 0.98506 0.0
H279 H 0.16925 0.18396 0.03132 0.0
H280 H 0.01765 0.17324 0.83862 0.0
H281 H 0.97731 0.18601 0.88607 0.0
H282 H 0.072 0.12248 0.82082 0.0
H283 H 0.13597 0.11431 0.83039 0.0
C284 C 0.26344 0.48576 0.49451 0.0
C285 C 0.27717 0.44291 0.47094 0.0
C286 C 0.27379 0.47723 0.39544 0.0
C287 C 0.26217 0.52057 0.41915 0.0
N288 N 0.23031 0.56299 0.48817 0.0
N289 N 0.27763 0.39413 0.39964 0.0
C290 C 0.25136 0.52359 0.46775 0.0
C291 C 0.27621 0.43746 0.42147 0.0
N292 N 0.26535 0.49125 0.54227 0.0
N293 N 0.28599 0.47446 0.34897 0.0
H294 H 0.27856 0.36472 0.41853 0.0
H295 H 0.27237 0.38741 0.36371 0.0
H296 H 0.28469 0.50272 0.32853 0.0
H297 H 0.30057 0.44471 0.33142 0.0
H298 H 0.26199 0.52312 0.56121 0.0
H299 H 0.27324 0.46412 0.56296 0.0
H300 H 0.21764 0.56607 0.52268 0.0
H301 H 0.22109 0.5911 0.46903 0.0
C302 C 0.06651 0.84663 0.8603 0.0
C303 C 0.04444 0.82293 0.89673 0.0
C304 C 0.96718 0.81089 0.85036 0.0
C305 C 0.98597 0.84142 0.81808 0.0
N306 N 0.05388 0.88595 0.789 0.0
N307 N 0.97403 0.78233 0.92765 0.0
C308 C 0.03625 0.85783 0.82163 0.0
C309 C 0.99526 0.80399 0.89162 0.0
N310 N 0.11631 0.85838 0.86304 0.0
N311 N 0.92196 0.78939 0.84197 0.0
H312 H 0.99349 0.77582 0.95811 0.0
H313 H 0.93624 0.7731 0.92885 0.0
H314 H 0.89993 0.79471 0.81271 0.0
H315 H 0.90821 0.76331 0.86157 0.0
H316 H 0.13621 0.87252 0.83626 0.0
H317 H 0.13893 0.85078 0.89128 0.0
H318 H 0.08781 0.90381 0.79196 0.0
H319 H 0.03334 0.89243 0.75906 0.0
C320 C 0.81558 0.01766 0.85652 0.0
C321 C 0.8518 0.05271 0.86666 0.0
C322 C 0.90794 0.01654 0.80703 0.0
C323 C 0.87662 0.97703 0.8046 0.0
N324 N 0.80107 0.93832 0.82767 0.0
N325 N 0.93147 0.08794 0.85062 0.0
C326 C 0.82995 0.97739 0.82871 0.0
C327 C 0.89743 0.05325 0.841 0.0
N328 N 0.76794 0.02256 0.87399 0.0
N329 N 0.94776 0.01851 0.77704 0.0
H330 H 0.92363 0.11651 0.87365 0.0
H331 H 0.96803 0.08745 0.83756 0.0
H332 H 0.95603 0.9918 0.75181 0.0
H333 H 0.96975 0.04787 0.77426 0.0
H334 H 0.73868 -0.00017 0.86466 0.0
H335 H 0.75627 0.05202 0.89399 0.0
H336 H 0.76998 0.93476 0.84922 0.0
H337 H 0.81001 0.90809 0.80751 0.0
C338 C 0.49693 0.27123 0.38506 0.0
C339 C 0.44843 0.29021 0.39309 0.0
C340 C 0.45239 0.32639 0.3186 0.0
C341 C 0.50463 0.3173 0.31719 0.0
N342 N 0.57743 0.27911 0.34679 0.0
N343 N 0.37623 0.32992 0.36546 0.0
C344 C 0.52693 0.28797 0.34896 0.0
C345 C 0.42457 0.31513 0.35852 0.0
N346 N 0.51454 0.23833 0.41264 0.0
N347 N 0.43023 0.34686 0.28232 0.0
H348 H 0.35479 0.32005 0.39355 0.0
H349 H 0.358 0.35251 0.34449 0.0
H350 H 0.45055 0.35526 0.2529 0.0
H351 H 0.39164 0.35204 0.2794 0.0
H352 H 0.54815 0.22054 0.40629 0.0
H353 H 0.49311 0.22563 0.43935 0.0
H354 H 0.59712 0.26311 0.37259 0.0
H355 H 0.60037 0.28992 0.32015 0.0
C356 C 0.24352 0.93808 0.92928 0.0
C357 C 0.24495 0.94314 0.97878 0.0
C358 C 0.27661 0.02187 0.97549 0.0
C359 C 0.26209 0.0203 0.92785 0.0
N360 N 0.23536 0.97659 0.85735 0.0
N361 N 0.26701 0.98831 0.05 0.0
C362 C 0.24804 0.97791 0.90369 0.0
C363 C 0.26431 0.98412 0.00223 0.0
N364 N 0.23659 0.8952 0.90732 0.0
N365 N 0.30042 0.06026 0.99508 0.0
H366 H 0.25977 0.96094 0.07056 0.0
H367 H 0.27452 0.01928 0.0694 0.0
H368 H 0.30922 0.08824 0.9756 0.0
H369 H 0.31543 0.0626 0.02879 0.0
H370 H 0.23858 0.88829 0.87116 0.0
H371 H 0.23362 0.86582 0.92613 0.0
H372 H 0.21881 0.94807 0.83924 0.0
H373 H 0.23948 0.005 0.83738 0.0
C374 C 0.41556 0.6986 0.46658 0.0
C375 C 0.46032 0.68991 0.44066 0.0
C376 C 0.41243 0.6534 0.37506 0.0
C377 C 0.3679 0.65911 0.40223 0.0
N378 N 0.32407 0.69744 0.46751 0.0
N379 N 0.50033 0.67406 0.36616 0.0
C380 C 0.36851 0.68546 0.44593 0.0
C381 C 0.45823 0.67249 0.39331 0.0
N382 N 0.4186 0.71745 0.51157 0.0
N383 N 0.41163 0.62724 0.33338 0.0
H384 H 0.53414 0.68816 0.3792 0.0
H385 H 0.50041 0.6658 0.33015 0.0
H386 H 0.37867 0.61324 0.31851 0.0
H387 H 0.44397 0.61711 0.31486 0.0
H388 H 0.38842 0.71985 0.53476 0.0
H389 H 0.45249 0.72976 0.52593 0.0
H390 H 0.32143 0.71953 0.49771 0.0
H391 H 0.2892 0.68812 0.45288 0.0
C392 C 0.33412 0.47881 0.67545 0.0
C393 C 0.36943 0.44284 0.66571 0.0
C394 C 0.42875 0.48112 0.72171 0.0
C395 C 0.39719 0.52052 0.72449 0.0
N396 N 0.32185 0.55928 0.70075 0.0
N397 N 0.44892 0.40705 0.68124 0.0
C398 C 0.35005 0.51986 0.70104 0.0
C399 C 0.41624 0.44303 0.68977 0.0
N400 N 0.28552 0.47396 0.66026 0.0
N401 N 0.47028 0.48022 0.74988 0.0
H402 H 0.43901 0.37704 0.66107 0.0
H403 H 0.48609 0.40733 0.69277 0.0
H404 H 0.48028 0.50786 0.77342 0.0
H405 H 0.49268 0.45114 0.75267 0.0
H406 H 0.2571 0.49734 0.67024 0.0
H407 H 0.27212 0.44427 0.64178 0.0
H408 H 0.29043 0.56233 0.6794 0.0
H409 H 0.332 0.59039 0.71879 0.0
C410 C 0.9418 0.88159 0.08581 0.0
C411 C 0.96207 0.83624 0.08523 0.0
C412 C 0.88039 0.8108 0.11446 0.0
C413 C 0.86537 0.85775 0.12308 0.0
N414 N 0.8945 0.93701 0.1337 0.0
N415 N 0.95159 0.75858 0.11019 0.0
C416 C 0.90035 0.89289 0.11453 0.0
C417 C 0.93176 0.80077 0.10275 0.0
N418 N 0.95969 0.91338 0.05705 0.0
N419 N 0.84598 0.77601 0.11551 0.0
H420 H 0.98948 0.75057 0.10536 0.0
H421 H 0.93132 0.7334 0.12635 0.0
H422 H 0.80779 0.78202 0.1215 0.0
H423 H 0.8548 0.74169 0.10558 0.0
H424 H 0.94344 0.94602 0.05583 0.0
H425 H 0.9851 0.9049 0.03001 0.0
H426 H 0.92124 0.96268 0.12923 0.0
H427 H 0.86652 0.94615 0.15822 0.0
C428 C 0.70242 0.54487 0.617 0.0
C429 C 0.71733 0.54526 0.56947 0.0
C430 C 0.76347 0.47291 0.57635 0.0
C431 C 0.73871 0.46793 0.61933 0.0
N432 N 0.68695 0.49909 0.68299 0.0
N433 N 0.76591 0.5111 0.50408 0.0
C434 C 0.70976 0.50438 0.64091 0.0
C435 C 0.75019 0.51038 0.54947 0.0
N436 N 0.68138 0.58345 0.63908 0.0
N437 N 0.79898 0.44124 0.56118 0.0
H438 H 0.75953 0.53851 0.48342 0.0
H439 H 0.78362 0.48338 0.48577 0.0
H440 H 0.80867 0.41331 0.58037 0.0
H441 H 0.82199 0.44481 0.53226 0.0
H442 H 0.67375 0.5869 0.67483 0.0
H443 H 0.67619 0.61375 0.62225 0.0
H444 H 0.65992 0.52173 0.69764 0.0
H445 H 0.69345 0.47061 0.70241 0.0
C446 C 0.92702 0.15247 0.17901 0.0
C447 C 0.95016 0.17942 0.14563 0.0
C448 C 0.02964 0.17913 0.18858 0.0
C449 C 0.0076 0.14916 0.21983 0.0
N450 N 0.93371 0.1168 0.25311 0.0
N451 N 0.01703 0.23157 0.12756 0.0
C452 C 0.95547 0.13922 0.21792 0.0
C453 C 0.99923 0.1975 0.15364 0.0
N454 N 0.87835 0.13838 0.17222 0.0
N455 N 0.0803 0.18753 0.1903 0.0
H456 H 0.9961 0.24569 0.10138 0.0
H457 H 0.05071 0.24902 0.13478 0.0
H458 H 0.10379 0.17564 0.21604 0.0
H459 H 0.09974 0.20379 0.16455 0.0
H460 H 0.86057 0.11422 0.19167 0.0
H461 H 0.85599 0.15057 0.14579 0.0
H462 H 0.8952 0.11119 0.2559 0.0
H463 H 0.95415 0.10673 0.28182 0.0
C464 C 0.14486 0.7367 0.20578 0.0
C465 C 0.1598 0.7167 0.1613 0.0
C466 C 0.20842 0.65761 0.19801 0.0
C467 C 0.19568 0.67901 0.2425 0.0
N468 N 0.14577 0.73223 0.29042 0.0
N469 N 0.19413 0.6526 0.11388 0.0
C470 C 0.16153 0.71635 0.24679 0.0
C471 C 0.18742 0.67495 0.15712 0.0
N472 N 0.11661 0.77615 0.20844 0.0
N473 N 0.24351 0.62313 0.1949 0.0
H474 H 0.17919 0.66506 0.08349 0.0
H475 H 0.21048 0.62007 0.10846 0.0
H476 H 0.25992 0.61002 0.22426 0.0
H477 H 0.25878 0.60938 0.16345 0.0
H478 H 0.10854 0.79562 0.23947 0.0
H479 H 0.10186 0.79009 0.17874 0.0
H480 H 0.11837 0.75749 0.29675 0.0
H481 H 0.15817 0.71756 0.32064 0.0
C482 C 0.77567 0.7303 0.60914 0.0
C483 C 0.763 0.75643 0.57062 0.0
C484 C 0.8301 0.8117 0.59244 0.0
C485 C 0.83881 0.78853 0.63362 0.0
N486 N 0.82107 0.72711 0.68264 0.0
N487 N 0.77494 0.82327 0.52663 0.0
C488 C 0.81241 0.74773 0.64193 0.0
C489 C 0.78925 0.79762 0.56258 0.0
N490 N 0.75251 0.68886 0.61425 0.0
N491 N 0.86276 0.84537 0.58086 0.0
H492 H 0.74621 0.81306 0.50326 0.0
H493 H 0.78909 0.85603 0.5218 0.0
H494 H 0.89485 0.85387 0.6007 0.0
H495 H 0.86126 0.86128 0.54946 0.0
H496 H 0.76381 0.66559 0.63818 0.0
H497 H 0.72294 0.67647 0.59292 0.0
H498 H 0.79942 0.70031 0.69416 0.0
H499 H 0.84903 0.73856 0.70639 0.0
C500 C 0.71691 0.31305 0.0551 0.0
C501 C 0.74965 0.27969 0.07259 0.0
C502 C 0.72429 0.30262 0.15282 0.0
C503 C 0.68813 0.33259 0.13514 0.0
N504 N 0.64732 0.36635 0.07129 0.0
N505 N 0.78115 0.2383 0.13674 0.0
C506 C 0.68393 0.33811 0.0867 0.0
C507 C 0.75253 0.27327 0.12114 0.0
N508 N 0.71825 0.32121 0.00865 0.0
N509 N 0.73278 0.30384 0.2 0.0
H510 H 0.80306 0.2164 0.11457 0.0
H511 H 0.78036 0.22866 0.17107 0.0
H512 H 0.71335 0.32609 0.22392 0.0
H513 H 0.762 0.28619 0.2151 0.0
H514 H 0.6988 0.3479 0.99429 0.0
H515 H 0.74142 0.30273 0.98458 0.0
H516 H 0.63854 0.36897 0.03614 0.0
H517 H 0.62366 0.38561 0.09434 0.0
C518 C 0.34081 0.2513 0.71741 0.0
C519 C 0.33009 0.22586 0.6743 0.0
C520 C 0.28737 0.16622 0.71538 0.0
C521 C 0.29817 0.19146 0.75844 0.0
N522 N 0.33978 0.25349 0.80261 0.0
N523 N 0.30296 0.15537 0.63186 0.0
C524 C 0.32651 0.23269 0.76003 0.0
C525 C 0.30692 0.18183 0.67323 0.0
N526 N 0.36362 0.29356 0.71725 0.0
N527 N 0.25522 0.12939 0.71459 0.0
H528 H 0.31555 0.16636 0.60001 0.0
H529 H 0.29094 0.12115 0.62953 0.0
H530 H 0.23898 0.11785 0.74476 0.0
H531 H 0.24122 0.11256 0.68394 0.0
H532 H 0.36804 0.31622 0.74682 0.0
H533 H 0.37709 0.30682 0.68672 0.0
H534 H 0.36371 0.28183 0.80711 0.0
H535 H 0.32902 0.24023 0.83406 0.0
C536 C 0.67365 0.73204 0.3185 0.0
C537 C 0.67259 0.75948 0.36171 0.0
C538 C 0.67849 0.8288 0.3182 0.0
C539 C 0.69202 0.80096 0.27722 0.0
N540 N 0.7034 0.7255 0.23841 0.0
N541 N 0.68318 0.83506 0.40252 0.0
C542 C 0.68955 0.75236 0.27744 0.0
C543 C 0.67733 0.80826 0.36164 0.0
N544 N 0.65762 0.68721 0.31619 0.0
N545 N 0.66377 0.87362 0.31587 0.0
H546 H 0.68568 0.82158 0.4352 0.0
H547 H 0.69128 0.87026 0.40324 0.0
H548 H 0.65612 0.88799 0.28434 0.0
H549 H 0.65095 0.89382 0.34506 0.0
H550 H 0.65358 0.66705 0.28477 0.0
H551 H 0.64286 0.67186 0.34496 0.0
H552 H 0.70801 0.68983 0.23819 0.0
H553 H 0.71328 0.7394 0.20705 0.0
C554 C 0.81668 0.31414 0.87157 0.0
C555 C 0.84067 0.2706 0.87035 0.0
C556 C 0.83625 0.26365 0.7848 0.0
C557 C 0.80547 0.30333 0.78668 0.0
N558 N 0.76168 0.36458 0.83113 0.0
N559 N 0.87564 0.20383 0.82727 0.0
C560 C 0.79522 0.32882 0.82976 0.0
C561 C 0.85191 0.24561 0.82721 0.0
N562 N 0.81341 0.34066 0.9129 0.0
N563 N 0.85 0.24345 0.74213 0.0
H564 H 0.88942 0.191 0.85789 0.0
H565 H 0.88029 0.18124 0.79767 0.0
H566 H 0.8382 0.25629 0.71078 0.0
H567 H 0.87557 0.21636 0.73758 0.0
H568 H 0.80017 0.37451 0.91546 0.0
H569 H 0.82821 0.33015 0.94419 0.0
H570 H 0.74834 0.3813 0.86206 0.0
H571 H 0.74382 0.37531 0.80137 0.0
C572 C 0.24056 0.22308 0.42451 0.0
C573 C 0.24002 0.21628 0.473 0.0
C574 C 0.17845 0.15384 0.45996 0.0
C575 C 0.1817 0.15885 0.41135 0.0
N576 N 0.22257 0.19062 0.34598 0.0
N577 N 0.21206 0.17426 0.53778 0.0
C578 C 0.21441 0.19161 0.3932 0.0
C579 C 0.20983 0.1814 0.49112 0.0
N580 N 0.26585 0.25985 0.40857 0.0
N581 N 0.14446 0.12339 0.47592 0.0
H582 H 0.2331 0.19526 0.56165 0.0
H583 H 0.19499 0.1466 0.55268 0.0
H584 H 0.12193 0.10249 0.45321 0.0
H585 H 0.13649 0.1205 0.51117 0.0
H586 H 0.26334 0.26951 0.37431 0.0
H587 H 0.2863 0.28309 0.43064 0.0
H588 H 0.2498 0.21048 0.3307 0.0
H589 H 0.2054 0.1666 0.32219 0.0
C590 C 0.29401 0.69956 0.97192 0.0
C591 C 0.25384 0.72779 0.95822 0.0
C592 C 0.28624 0.72458 0.87798 0.0
C593 C 0.32814 0.69931 0.89249 0.0
N594 N 0.3769 0.66795 0.95331 0.0
N595 N 0.21336 0.77133 0.90001 0.0
C596 C 0.33331 0.68788 0.9395 0.0
C597 C 0.25015 0.74121 0.91159 0.0
N598 N 0.29403 0.68364 0.01572 0.0
N599 N 0.28062 0.73148 0.83152 0.0
H600 H 0.18544 0.78342 0.92333 0.0
H601 H 0.21206 0.7867 0.86829 0.0
H602 H 0.30743 0.72067 0.80643 0.0
H603 H 0.2483 0.74511 0.81726 0.0
H604 H 0.31972 0.65961 0.02669 0.0
H605 H 0.26562 0.69181 0.04009 0.0
H606 H 0.38531 0.66228 0.98795 0.0
H607 H 0.40675 0.66058 0.93032 0.0
loop_
_geom_bond_atom_site_label_1
_geom_bond_atom_site_label_2
_geom_bond_distance
_geom_bond_site_symmetry_2
_ccdc_geom_bond_type
Sc0 O3 2.025 . S
Sc0 O10 2.105 1_554 S
Sc0 O13 2.105 . S
Sc0 O16 2.105 . S
Sc0 O19 2.105 1_554 S
Sc1 O3 2.025 . S
Sc1 O11 2.105 1_554 S
Sc1 O15 2.105 . S
Sc1 O17 2.105 . S
Sc1 O21 2.105 1_554 S
Sc2 O3 2.025 . S
Sc2 O12 2.105 . S
Sc2 O14 2.105 . S
Sc2 O18 2.105 . S
Sc2 O20 2.105 . S
O3 Sc0 2.025 . S
O3 Sc1 2.025 . S
O3 Sc2 2.025 . S
C4 O10 1.268 . S
C4 O20 1.268 1_556 S
C5 O11 1.268 . S
C5 O19 1.268 . S
C6 O12 1.268 1_556 S
C6 O21 1.268 . S
C7 O13 1.268 . S
C7 O17 1.268 . S
C8 O14 1.268 . S
C8 O16 1.268 . S
C9 O15 1.268 . S
C9 O18 1.268 . S
O10 Sc0 2.105 1_556 S
O10 C4 1.268 . S
O11 Sc1 2.105 1_556 S
O11 C5 1.268 . S
O12 Sc2 2.105 . S
O12 C6 1.268 1_554 S
O13 Sc0 2.105 . S
O13 C7 1.268 . S
O14 Sc2 2.105 . S
O14 C8 1.268 . S
O15 Sc1 2.105 . S
O15 C9 1.268 . S
O16 Sc0 2.105 . S
O16 C8 1.268 . S
O17 Sc1 2.105 . S
O17 C7 1.268 . S
O18 Sc2 2.105 . S
O18 C9 1.268 . S
O19 Sc0 2.105 1_556 S
O19 C5 1.268 . S
O20 Sc2 2.105 . S
O20 C4 1.268 1_554 S
O21 Sc1 2.105 1_556 S
O21 C6 1.268 . S
Sc22 O25 2.025 . S
Sc22 O32 2.105 . S
Sc22 O35 2.105 . S
Sc22 O38 2.105 . S
Sc22 O41 2.105 . S
Sc23 O25 2.025 . S
Sc23 O33 2.105 . S
Sc23 O37 2.105 . S
Sc23 O39 2.105 . S
Sc23 O43 2.105 . S
Sc24 O25 2.025 . S
Sc24 O34 2.105 . S
Sc24 O36 2.105 . S
Sc24 O40 2.105 . S
Sc24 O42 2.105 . S
O25 Sc22 2.025 . S
O25 Sc23 2.025 . S
O25 Sc24 2.025 . S
C26 O32 1.268 . S
C26 O42 1.268 . S
C27 O33 1.268 . S
C27 O41 1.268 . S
C28 O34 1.268 . S
C28 O43 1.268 . S
C29 O35 1.268 . S
C29 O39 1.268 . S
C30 O36 1.268 . S
C30 O38 1.268 . S
C31 O37 1.268 . S
C31 O40 1.268 . S
O32 Sc22 2.105 . S
O32 C26 1.268 . S
O33 Sc23 2.105 . S
O33 C27 1.268 . S
O34 Sc24 2.105 . S
O34 C28 1.268 . S
O35 Sc22 2.105 . S
O35 C29 1.268 . S
O36 Sc24 2.105 . S
O36 C30 1.268 . S
O37 Sc23 2.105 . S
O37 C31 1.268 . S
O38 Sc22 2.105 . S
O38 C30 1.268 . S
O39 Sc23 2.105 . S
O39 C29 1.268 . S
O40 Sc24 2.105 . S
O40 C31 1.268 . S
O41 Sc22 2.105 . S
O41 C27 1.268 . S
O42 Sc24 2.105 . S
O42 C26 1.268 . S
O43 Sc23 2.105 . S
O43 C28 1.268 . S
Sc44 O47 2.025 . S
Sc44 O54 2.105 1_554 S
Sc44 O57 2.105 . S
Sc44 O60 2.105 . S
Sc44 O63 2.105 1_554 S
Sc45 O47 2.025 1_556 S
Sc45 O55 2.105 . S
Sc45 O59 2.105 1_556 S
Sc45 O61 2.105 1_556 S
Sc45 O65 2.105 . S
Sc46 O47 2.025 . S
Sc46 O56 2.105 1_554 S
Sc46 O58 2.105 . S
Sc46 O62 2.105 . S
Sc46 O64 2.105 1_554 S
O47 Sc44 2.025 . S
O47 Sc45 2.025 1_554 S
O47 Sc46 2.025 . S
C48 O54 1.268 . S
C48 O64 1.268 . S
C49 O55 1.268 . S
C49 O63 1.268 . S
C50 O56 1.268 . S
C50 O65 1.268 . S
C51 O57 1.268 . S
C51 O61 1.268 . S
C52 O58 1.268 . S
C52 O60 1.268 . S
C53 O59 1.268 . S
C53 O62 1.268 . S
O54 Sc44 2.105 1_556 S
O54 C48 1.268 . S
O55 Sc45 2.105 . S
O55 C49 1.268 . S
O56 Sc46 2.105 1_556 S
O56 C50 1.268 . S
O57 Sc44 2.105 . S
O57 C51 1.268 . S
O58 Sc46 2.105 . S
O58 C52 1.268 . S
O59 Sc45 2.105 1_554 S
O59 C53 1.268 . S
O60 Sc44 2.105 . S
O60 C52 1.268 . S
O61 Sc45 2.105 1_554 S
O61 C51 1.268 . S
O62 Sc46 2.105 . S
O62 C53 1.268 . S
O63 Sc44 2.105 1_556 S
O63 C49 1.268 . S
O64 Sc46 2.105 1_556 S
O64 C48 1.268 . S
O65 Sc45 2.105 . S
O65 C50 1.268 . S
Sc66 O69 2.025 . S
Sc66 O76 2.105 . S
Sc66 O79 2.105 . S
Sc66 O82 2.105 . S
Sc66 O85 2.105 . S
Sc67 O69 2.025 . S
Sc67 O77 2.105 . S
Sc67 O81 2.105 . S
Sc67 O83 2.105 . S
Sc67 O87 2.105 . S
Sc68 O69 2.025 . S
Sc68 O78 2.105 . S
Sc68 O80 2.105 . S
Sc68 O84 2.105 . S
Sc68 O86 2.105 . S
O69 Sc66 2.025 . S
O69 Sc67 2.025 . S
O69 Sc68 2.025 . S
C70 O76 1.268 . S
C70 O86 1.268 . S
C71 O77 1.268 . S
C71 O85 1.268 . S
C72 O78 1.268 . S
C72 O87 1.268 . S
C73 O79 1.268 . S
C73 O83 1.268 . S
C74 O80 1.268 . S
C74 O82 1.268 . S
C75 O81 1.268 . S
C75 O84 1.268 . S
O76 Sc66 2.105 . S
O76 C70 1.268 . S
O77 Sc67 2.105 . S
O77 C71 1.268 . S
O78 Sc68 2.105 . S
O78 C72 1.268 . S
O79 Sc66 2.105 . S
O79 C73 1.268 . S
O80 Sc68 2.105 . S
O80 C74 1.268 . S
O81 Sc67 2.105 . S
O81 C75 1.268 . S
O82 Sc66 2.105 . S
O82 C74 1.268 . S
O83 Sc67 2.105 . S
O83 C73 1.268 . S
O84 Sc68 2.105 . S
O84 C75 1.268 . S
O85 Sc66 2.105 . S
O85 C71 1.268 . S
O86 Sc68 2.105 . S
O86 C70 1.268 . S
O87 Sc67 2.105 . S
O87 C72 1.268 . S
H88 C93 0.929 . S
H89 C98 0.931 . S
H90 C96 0.930 . S
N91 N92 1.234 . S
N91 C95 1.453 . S
N92 N91 1.234 . S
C93 H88 0.929 . S
C93 C94 1.373 . S
C93 C95 1.368 . S
C94 C93 1.373 . S
C94 C98 1.397 . S
C95 N91 1.453 . S
C95 C93 1.368 . S
C95 C96 1.373 . S
C96 H90 0.930 . S
C96 C95 1.373 . S
C96 C97 1.371 . S
C97 C96 1.371 . S
C97 C98 1.383 . S
C98 H89 0.931 . S
C98 C94 1.397 . S
C98 C97 1.383 . S
H99 C104 0.929 . S
H100 C109 0.931 . S
H101 C107 0.930 . S
N102 N103 1.234 . S
N102 C106 1.453 . S
N103 N102 1.234 . S
C104 H99 0.929 . S
C104 C105 1.373 . S
C104 C106 1.368 . S
C105 C104 1.373 . S
C105 C109 1.397 . S
C106 N102 1.453 . S
C106 C104 1.368 . S
C106 C107 1.373 . S
C107 H101 0.930 . S
C107 C106 1.373 . S
C107 C108 1.371 . S
C108 C107 1.371 . S
C108 C109 1.383 . S
C109 H100 0.931 . S
C109 C105 1.397 . S
C109 C108 1.383 . S
H110 C115 0.929 . S
H111 C120 0.931 . S
H112 C118 0.930 . S
N113 N114 1.234 . S
N113 C117 1.453 . S
N114 N113 1.234 . S
C115 H110 0.929 . S
C115 C116 1.373 . S
C115 C117 1.368 . S
C116 C115 1.373 . S
C116 C120 1.397 . S
C117 N113 1.453 . S
C117 C115 1.368 . S
C117 C118 1.373 . S
C118 H112 0.930 . S
C118 C117 1.373 . S
C118 C119 1.371 . S
C119 C118 1.371 . S
C119 C120 1.383 . S
C120 H111 0.931 . S
C120 C116 1.397 . S
C120 C119 1.383 . S
H121 C126 0.929 . S
H122 C131 0.931 . S
H123 C129 0.930 . S
N124 N125 1.234 . S
N124 C128 1.453 . S
N125 N124 1.234 . S
C126 H121 0.929 . S
C126 C127 1.373 . S
C126 C128 1.368 . S
C127 C126 1.373 . S
C127 C131 1.397 . S
C128 N124 1.453 . S
C128 C126 1.368 . S
C128 C129 1.373 . S
C129 H123 0.930 . S
C129 C128 1.373 . S
C129 C130 1.371 . S
C130 C129 1.371 . S
C130 C131 1.383 . S
C131 H122 0.931 . S
C131 C127 1.397 . S
C131 C130 1.383 . S
H132 C137 0.929 . S
H133 C142 0.931 . S
H134 C140 0.930 . S
N135 N136 1.234 . S
N135 C139 1.453 . S
N136 N135 1.234 . S
C137 H132 0.929 . S
C137 C138 1.373 . S
C137 C139 1.368 . S
C138 C137 1.373 . S
C138 C142 1.397 . S
C139 N135 1.453 . S
C139 C137 1.368 . S
C139 C140 1.373 . S
C140 H134 0.930 . S
C140 C139 1.373 . S
C140 C141 1.371 . S
C141 C140 1.371 . S
C141 C142 1.383 . S
C142 H133 0.931 . S
C142 C138 1.397 . S
C142 C141 1.383 . S
H143 C148 0.929 . S
H144 C153 0.931 . S
H145 C151 0.930 . S
N146 N147 1.234 . S
N146 C150 1.453 . S
N147 N146 1.234 . S
C148 H143 0.929 . S
C148 C149 1.373 . S
C148 C150 1.368 . S
C149 C148 1.373 . S
C149 C153 1.397 . S
C150 N146 1.453 . S
C150 C148 1.368 . S
C150 C151 1.373 . S
C151 H145 0.930 . S
C151 C150 1.373 . S
C151 C152 1.371 . S
C152 C151 1.371 . S
C152 C153 1.383 . S
C153 H144 0.931 . S
C153 C149 1.397 . S
C153 C152 1.383 . S
H154 C159 0.929 . S
H155 C164 0.931 . S
H156 C162 0.930 . S
N157 N158 1.234 . S
N157 C161 1.453 . S
N158 N157 1.234 . S
C159 H154 0.929 . S
C159 C160 1.373 . S
C159 C161 1.368 . S
C160 C159 1.373 . S
C160 C164 1.397 . S
C161 N157 1.453 . S
C161 C159 1.368 . S
C161 C162 1.373 . S
C162 H156 0.930 . S
C162 C161 1.373 . S
C162 C163 1.371 . S
C163 C162 1.371 . S
C163 C164 1.383 . S
C164 H155 0.931 . S
C164 C160 1.397 . S
C164 C163 1.383 . S
H165 C170 0.929 . S
H166 C175 0.931 . S
H167 C173 0.930 . S
N168 N169 1.234 . S
N168 C172 1.453 . S
N169 N168 1.234 . S
C170 H165 0.929 . S
C170 C171 1.373 . S
C170 C172 1.368 . S
C171 C170 1.373 . S
C171 C175 1.397 . S
C172 N168 1.453 . S
C172 C170 1.368 . S
C172 C173 1.373 . S
C173 H167 0.930 . S
C173 C172 1.373 . S
C173 C174 1.371 . S
C174 C173 1.371 . S
C174 C175 1.383 . S
C175 H166 0.931 . S
C175 C171 1.397 . S
C175 C174 1.383 . S
C176 C177 1.363 1_545 S
C176 C182 1.379 . S
C176 N184 1.356 . S
C177 C176 1.363 1_565 S
C177 C183 1.363 . S
C178 C179 1.357 1_565 S
C178 C183 1.383 . S
C178 N185 1.356 1_565 S
C179 C178 1.357 1_545 S
C179 C182 1.363 . S
N180 C182 1.356 . S
N180 H192 0.984 . S
N180 H193 0.985 . S
N181 C183 1.356 . S
N181 H186 0.984 . S
N181 H187 0.985 . S
C182 C176 1.379 . S
C182 C179 1.363 . S
C182 N180 1.356 . S
C183 C177 1.363 . S
C183 C178 1.383 . S
C183 N181 1.356 . S
N184 C176 1.356 . S
N184 H190 0.984 . S
N184 H191 0.984 1_545 S
N185 C178 1.356 1_545 S
N185 H188 0.984 . S
N185 H189 0.985 1_545 S
H186 N181 0.984 . S
H187 N181 0.985 . S
H188 N185 0.984 . S
H189 N185 0.985 1_565 S
H190 N184 0.984 . S
H191 N184 0.984 1_565 S
H192 N180 0.984 . S
H193 N180 0.985 . S
C194 C195 1.363 . S
C194 C200 1.379 . S
C194 N202 1.356 . S
C195 C194 1.363 . S
C195 C201 1.363 . S
C196 C197 1.363 . S
C196 C201 1.379 . S
C196 N203 1.356 . S
C197 C196 1.363 . S
C197 C200 1.363 . S
N198 C200 1.356 . S
N198 H210 0.984 . S
N198 H211 0.985 . S
N199 C201 1.356 . S
N199 H204 0.984 . S
N199 H205 0.985 . S
C200 C194 1.379 . S
C200 C197 1.363 . S
C200 N198 1.356 . S
C201 C195 1.363 . S
C201 C196 1.379 . S
C201 N199 1.356 . S
N202 C194 1.356 . S
N202 H208 0.984 . S
N202 H209 0.984 . S
N203 C196 1.356 . S
N203 H206 0.984 . S
N203 H207 0.985 . S
H204 N199 0.984 . S
H205 N199 0.985 . S
H206 N203 0.984 . S
H207 N203 0.985 . S
H208 N202 0.984 . S
H209 N202 0.984 . S
H210 N198 0.984 . S
H211 N198 0.985 . S
C212 C213 1.363 1_565 S
C212 C218 1.379 . S
C212 N220 1.356 1_565 S
C213 C212 1.363 1_545 S
C213 C219 1.363 . S
C214 C215 1.363 . S
C214 C219 1.379 1_565 S
C214 N221 1.356 . S
C215 C214 1.363 . S
C215 C218 1.363 . S
N216 C218 1.356 . S
N216 H228 0.984 . S
N216 H229 0.985 . S
N217 C219 1.356 . S
N217 H222 0.984 . S
N217 H223 0.985 . S
C218 C212 1.379 . S
C218 C215 1.363 . S
C218 N216 1.356 . S
C219 C213 1.363 . S
C219 C214 1.379 1_545 S
C219 N217 1.356 . S
N220 C212 1.356 1_545 S
N220 H226 0.984 1_554 S
N220 H227 0.984 . S
N221 C214 1.356 . S
N221 H224 0.984 . S
N221 H225 0.985 . S
H222 N217 0.984 . S
H223 N217 0.985 . S
H224 N221 0.984 . S
H225 N221 0.985 . S
H226 N220 0.984 1_556 S
H227 N220 0.984 . S
H228 N216 0.984 . S
H229 N216 0.985 . S
C230 C231 1.363 . S
C230 C236 1.379 . S
C230 N238 1.356 . S
C231 C230 1.363 . S
C231 C237 1.363 . S
C232 C233 1.363 . S
C232 C237 1.379 . S
C232 N239 1.356 . S
C233 C232 1.363 . S
C233 C236 1.363 . S
N234 C236 1.356 . S
N234 H246 0.984 . S
N234 H247 0.985 . S
N235 C237 1.356 . S
N235 H240 0.984 . S
N235 H241 0.985 . S
C236 C230 1.379 . S
C236 C233 1.363 . S
C236 N234 1.356 . S
C237 C231 1.363 . S
C237 C232 1.379 . S
C237 N235 1.356 . S
N238 C230 1.356 . S
N238 H244 0.984 . S
N238 H245 0.984 . S
N239 C232 1.356 . S
N239 H242 0.984 . S
N239 H243 0.985 . S
H240 N235 0.984 . S
H241 N235 0.985 . S
H242 N239 0.984 . S
H243 N239 0.985 . S
H244 N238 0.984 . S
H245 N238 0.984 . S
H246 N234 0.984 . S
H247 N234 0.985 . S
C248 C249 1.363 . S
C248 C254 1.379 . S
C248 N256 1.356 . S
C249 C248 1.363 . S
C249 C255 1.363 . S
C250 C251 1.363 . S
C250 C255 1.379 . S
C250 N257 1.356 . S
C251 C250 1.363 . S
C251 C254 1.363 . S
N252 C254 1.356 . S
N252 H264 0.984 . S
N252 H265 0.985 . S
N253 C255 1.356 . S
N253 H258 0.984 . S
N253 H259 0.985 . S
C254 C248 1.379 . S
C254 C251 1.363 . S
C254 N252 1.356 . S
C255 C249 1.363 . S
C255 C250 1.379 . S
C255 N253 1.356 . S
N256 C248 1.356 . S
N256 H262 0.984 . S
N256 H263 0.984 . S
N257 C250 1.356 . S
N257 H260 0.984 . S
N257 H261 0.985 . S
H258 N253 0.984 . S
H259 N253 0.985 . S
H260 N257 0.984 . S
H261 N257 0.985 . S
H262 N256 0.984 . S
H263 N256 0.984 . S
H264 N252 0.984 . S
H265 N252 0.985 . S
C266 C267 1.363 . S
C266 C272 1.379 . S
C266 N274 1.356 . S
C267 C266 1.363 . S
C267 C273 1.363 . S
C268 C269 1.363 . S
C268 C273 1.379 . S
C268 N275 1.356 . S
C269 C268 1.363 . S
C269 C272 1.363 . S
N270 C272 1.356 . S
N270 H282 0.984 . S
N270 H283 0.985 . S
N271 C273 1.356 . S
N271 H276 0.969 1_455 S
N271 H277 0.985 . S
C272 C266 1.379 . S
C272 C269 1.363 . S
C272 N270 1.356 . S
C273 C267 1.363 . S
C273 C268 1.379 . S
C273 N271 1.356 . S
N274 C266 1.356 . S
N274 H280 0.984 . S
N274 H281 0.984 1_455 S
N275 C268 1.356 . S
N275 H278 0.984 . S
N275 H279 0.985 . S
H276 N271 0.969 1_655 S
H277 N271 0.985 . S
H278 N275 0.984 . S
H279 N275 0.985 . S
H280 N274 0.984 . S
H281 N274 0.984 1_655 S
H282 N270 0.984 . S
H283 N270 0.985 . S
C284 C285 1.363 . S
C284 C290 1.379 . S
C284 N292 1.356 . S
C285 C284 1.363 . S
C285 C291 1.363 . S
C286 C287 1.363 . S
C286 C291 1.379 . S
C286 N293 1.356 . S
C287 C286 1.363 . S
C287 C290 1.363 . S
N288 C290 1.356 . S
N288 H300 0.984 . S
N288 H301 0.985 . S
N289 C291 1.356 . S
N289 H294 0.984 . S
N289 H295 0.985 . S
C290 C284 1.379 . S
C290 C287 1.363 . S
C290 N288 1.356 . S
C291 C285 1.363 . S
C291 C286 1.379 . S
C291 N289 1.356 . S
N292 C284 1.356 . S
N292 H298 0.984 . S
N292 H299 0.984 . S
N293 C286 1.356 . S
N293 H296 0.984 . S
N293 H297 0.985 . S
H294 N289 0.984 . S
H295 N289 0.985 . S
H296 N293 0.984 . S
H297 N293 0.985 . S
H298 N292 0.984 . S
H299 N292 0.984 . S
H300 N288 0.984 . S
H301 N288 0.985 . S
C302 C303 1.363 . S
C302 C308 1.379 1_455 S
C302 N310 1.356 . S
C303 C302 1.363 . S
C303 C309 1.363 . S
C304 C305 1.363 1_455 S
C304 C309 1.379 . S
C304 N311 1.356 . S
C305 C304 1.363 1_655 S
C305 C308 1.363 . S
N306 C308 1.356 . S
N306 H318 0.984 . S
N306 H319 0.985 . S
N307 C309 1.356 . S
N307 H312 0.984 . S
N307 H313 0.985 . S
C308 C302 1.379 1_655 S
C308 C305 1.363 . S
C308 N306 1.356 . S
C309 C303 1.363 . S
C309 C304 1.379 . S
C309 N307 1.356 . S
N310 C302 1.356 . S
N310 H316 0.984 1_455 S
N310 H317 0.984 . S
N311 C304 1.356 . S
N311 H314 0.984 1_455 S
N311 H315 0.985 . S
H312 N307 0.984 . S
H313 N307 0.985 . S
H314 N311 0.984 1_655 S
H315 N311 0.985 . S
H316 N310 0.984 1_655 S
H317 N310 0.984 . S
H318 N306 0.984 . S
H319 N306 0.985 . S
C320 C321 1.363 . S
C320 C326 1.379 1_545 S
C320 N328 1.356 . S
C321 C320 1.363 . S
C321 C327 1.363 . S
C322 C323 1.363 . S
C322 C327 1.379 1_565 S
C322 N329 1.356 . S
C323 C322 1.363 . S
C323 C326 1.363 . S
N324 C326 1.356 . S
N324 H336 0.984 . S
N324 H337 0.985 . S
N325 C327 1.356 . S
N325 H330 0.984 . S
N325 H331 0.985 . S
C326 C320 1.379 1_565 S
C326 C323 1.363 . S
C326 N324 1.356 . S
C327 C321 1.363 . S
C327 C322 1.379 1_545 S
C327 N325 1.356 . S
N328 C320 1.356 . S
N328 H334 0.984 . S
N328 H335 0.984 . S
N329 C322 1.356 . S
N329 H332 0.984 . S
N329 H333 0.985 . S
H330 N325 0.984 . S
H331 N325 0.985 . S
H332 N329 0.984 . S
H333 N329 0.985 . S
H334 N328 0.984 . S
H335 N328 0.984 . S
H336 N324 0.984 . S
H337 N324 0.985 . S
C338 C339 1.363 . S
C338 C344 1.379 . S
C338 N346 1.356 . S
C339 C338 1.363 . S
C339 C345 1.363 . S
C340 C341 1.363 . S
C340 C345 1.379 . S
C340 N347 1.356 . S
C341 C340 1.363 . S
C341 C344 1.363 . S
N342 C344 1.356 . S
N342 H354 0.984 . S
N342 H355 0.985 . S
N343 C345 1.356 . S
N343 H348 0.984 . S
N343 H349 0.985 . S
C344 C338 1.379 . S
C344 C341 1.363 . S
C344 N342 1.356 . S
C345 C339 1.363 . S
C345 C340 1.379 . S
C345 N343 1.356 . S
N346 C338 1.356 . S
N346 H352 0.984 . S
N346 H353 0.984 . S
N347 C340 1.356 . S
N347 H350 0.984 . S
N347 H351 0.985 . S
H348 N343 0.984 . S
H349 N343 0.985 . S
H350 N347 0.984 . S
H351 N347 0.985 . S
H352 N346 0.984 . S
H353 N346 0.984 . S
H354 N342 0.984 . S
H355 N342 0.985 . S
C356 C357 1.363 . S
C356 C362 1.379 1_565 S
C356 N364 1.356 . S
C357 C356 1.363 . S
C357 C363 1.363 1_565 S
C358 C359 1.363 . S
C358 C363 1.379 . S
C358 N365 1.356 . S
C359 C358 1.363 . S
C359 C362 1.363 . S
N360 C362 1.356 . S
N360 H372 0.984 1_545 S
N360 H373 0.985 . S
N361 C363 1.356 1_554 S
N361 H366 0.984 1_545 S
N361 H367 0.985 . S
C362 C356 1.379 1_545 S
C362 C359 1.363 . S
C362 N360 1.356 . S
C363 C357 1.363 1_545 S
C363 C358 1.379 . S
C363 N361 1.356 1_556 S
N364 C356 1.356 . S
N364 H370 0.984 . S
N364 H371 0.984 . S
N365 C358 1.356 . S
N365 H368 0.984 . S
N365 H369 0.985 . S
H366 N361 0.984 1_565 S
H367 N361 0.985 . S
H368 N365 0.984 . S
H369 N365 0.985 . S
H370 N364 0.984 . S
H371 N364 0.984 . S
H372 N360 0.984 1_565 S
H373 N360 0.985 . S
C374 C375 1.363 . S
C374 C380 1.379 . S
C374 N382 1.356 . S
C375 C374 1.363 . S
C375 C381 1.363 . S
C376 C377 1.363 . S
C376 C381 1.379 . S
C376 N383 1.356 . S
C377 C376 1.363 . S
C377 C380 1.363 . S
N378 C380 1.356 . S
N378 H390 0.984 . S
N378 H391 0.985 . S
N379 C381 1.356 . S
N379 H384 0.984 . S
N379 H385 0.985 . S
C380 C374 1.379 . S
C380 C377 1.363 . S
C380 N378 1.356 . S
C381 C375 1.363 . S
C381 C376 1.379 . S
C381 N379 1.356 . S
N382 C374 1.356 . S
N382 H388 0.984 . S
N382 H389 0.984 . S
N383 C376 1.356 . S
N383 H386 0.984 . S
N383 H387 0.985 . S
H384 N379 0.984 . S
H385 N379 0.985 . S
H386 N383 0.984 . S
H387 N383 0.985 . S
H388 N382 0.984 . S
H389 N382 0.984 . S
H390 N378 0.984 . S
H391 N378 0.985 . S
C392 C393 1.363 . S
C392 C398 1.379 . S
C392 N400 1.356 . S
C393 C392 1.363 . S
C393 C399 1.363 . S
C394 C395 1.363 . S
C394 C399 1.379 . S
C394 N401 1.356 . S
C395 C394 1.363 . S
C395 C398 1.363 . S
N396 C398 1.356 . S
N396 H408 0.984 . S
N396 H409 0.985 . S
N397 C399 1.356 . S
N397 H402 0.984 . S
N397 H403 0.985 . S
C398 C392 1.379 . S
C398 C395 1.363 . S
C398 N396 1.356 . S
C399 C393 1.363 . S
C399 C394 1.379 . S
C399 N397 1.356 . S
N400 C392 1.356 . S
N400 H406 0.984 . S
N400 H407 0.984 . S
N401 C394 1.356 . S
N401 H404 0.984 . S
N401 H405 0.985 . S
H402 N397 0.984 . S
H403 N397 0.985 . S
H404 N401 0.984 . S
H405 N401 0.985 . S
H406 N400 0.984 . S
H407 N400 0.984 . S
H408 N396 0.984 . S
H409 N396 0.985 . S
C410 C411 1.363 . S
C410 C416 1.379 . S
C410 N418 1.356 . S
C411 C410 1.363 . S
C411 C417 1.363 . S
C412 C413 1.363 . S
C412 C417 1.379 . S
C412 N419 1.356 . S
C413 C412 1.363 . S
C413 C416 1.363 . S
N414 C416 1.356 . S
N414 H426 0.984 . S
N414 H427 0.985 . S
N415 C417 1.356 . S
N415 H420 0.984 1_655 S
N415 H421 0.985 . S
C416 C410 1.379 . S
C416 C413 1.363 . S
C416 N414 1.356 . S
C417 C411 1.363 . S
C417 C412 1.379 . S
C417 N415 1.356 . S
N418 C410 1.356 . S
N418 H424 0.984 . S
N418 H425 1.002 . S
N419 C412 1.356 . S
N419 H422 0.984 . S
N419 H423 0.985 . S
H420 N415 0.984 1_455 S
H421 N415 0.985 . S
H422 N419 0.984 . S
H423 N419 0.985 . S
H424 N418 0.984 . S
H425 N418 1.002 . S
H426 N414 0.984 . S
H427 N414 0.985 . S
C428 C429 1.363 . S
C428 C434 1.379 . S
C428 N436 1.356 . S
C429 C428 1.363 . S
C429 C435 1.363 . S
C430 C431 1.363 . S
C430 C435 1.379 . S
C430 N437 1.356 . S
C431 C430 1.363 . S
C431 C434 1.363 . S
N432 C434 1.356 . S
N432 H444 0.984 . S
N432 H445 0.985 . S
N433 C435 1.356 . S
N433 H438 0.984 . S
N433 H439 0.985 . S
C434 C428 1.379 . S
C434 C431 1.363 . S
C434 N432 1.356 . S
C435 C429 1.363 . S
C435 C430 1.379 . S
C435 N433 1.356 . S
N436 C428 1.356 . S
N436 H442 0.984 . S
N436 H443 0.984 . S
N437 C430 1.356 . S
N437 H440 0.984 . S
N437 H441 0.985 . S
H438 N433 0.984 . S
H439 N433 0.985 . S
H440 N437 0.984 . S
H441 N437 0.985 . S
H442 N436 0.984 . S
H443 N436 0.984 . S
H444 N432 0.984 . S
H445 N432 0.985 . S
C446 C447 1.363 . S
C446 C452 1.379 . S
C446 N454 1.356 . S
C447 C446 1.363 . S
C447 C453 1.363 . S
C448 C449 1.363 . S
C448 C453 1.379 1_455 S
C448 N455 1.356 . S
C449 C448 1.363 . S
C449 C452 1.363 1_455 S
N450 C452 1.356 . S
N450 H462 0.984 . S
N450 H463 0.985 . S
N451 C453 1.356 . S
N451 H456 0.984 . S
N451 H457 0.985 1_655 S
C452 C446 1.379 . S
C452 C449 1.363 1_655 S
C452 N450 1.356 . S
C453 C447 1.363 . S
C453 C448 1.379 1_655 S
C453 N451 1.356 . S
N454 C446 1.356 . S
N454 H460 0.984 . S
N454 H461 0.984 . S
N455 C448 1.356 . S
N455 H458 0.984 . S
N455 H459 0.985 . S
H456 N451 0.984 . S
H457 N451 0.985 1_455 S
H458 N455 0.984 . S
H459 N455 0.985 . S
H460 N454 0.984 . S
H461 N454 0.984 . S
H462 N450 0.984 . S
H463 N450 0.985 . S
C464 C465 1.363 . S
C464 C470 1.379 . S
C464 N472 1.356 . S
C465 C464 1.363 . S
C465 C471 1.363 . S
C466 C467 1.363 . S
C466 C471 1.379 . S
C466 N473 1.356 . S
C467 C466 1.363 . S
C467 C470 1.363 . S
N468 C470 1.356 . S
N468 H480 0.984 . S
N468 H481 0.985 . S
N469 C471 1.356 . S
N469 H474 0.984 . S
N469 H475 0.985 . S
C470 C464 1.379 . S
C470 C467 1.363 . S
C470 N468 1.356 . S
C471 C465 1.363 . S
C471 C466 1.379 . S
C471 N469 1.356 . S
N472 C464 1.356 . S
N472 H478 0.984 . S
N472 H479 0.984 . S
N473 C466 1.356 . S
N473 H476 0.984 . S
N473 H477 0.985 . S
H474 N469 0.984 . S
H475 N469 0.985 . S
H476 N473 0.984 . S
H477 N473 0.985 . S
H478 N472 0.984 . S
H479 N472 0.984 . S
H480 N468 0.984 . S
H481 N468 0.985 . S
C482 C483 1.363 . S
C482 C488 1.379 . S
C482 N490 1.356 . S
C483 C482 1.363 . S
C483 C489 1.363 . S
C484 C485 1.363 . S
C484 C489 1.379 . S
C484 N491 1.356 . S
C485 C484 1.363 . S
C485 C488 1.363 . S
N486 C488 1.356 . S
N486 H498 0.984 . S
N486 H499 0.985 . S
N487 C489 1.356 . S
N487 H492 0.984 . S
N487 H493 0.985 . S
C488 C482 1.379 . S
C488 C485 1.363 . S
C488 N486 1.356 . S
C489 C483 1.363 . S
C489 C484 1.379 . S
C489 N487 1.356 . S
N490 C482 1.356 . S
N490 H496 0.984 . S
N490 H497 0.984 . S
N491 C484 1.356 . S
N491 H494 0.984 . S
N491 H495 0.985 . S
H492 N487 0.984 . S
H493 N487 0.985 . S
H494 N491 0.984 . S
H495 N491 0.985 . S
H496 N490 0.984 . S
H497 N490 0.984 . S
H498 N486 0.984 . S
H499 N486 0.985 . S
C500 C501 1.363 . S
C500 C506 1.379 . S
C500 N508 1.356 . S
C501 C500 1.363 . S
C501 C507 1.363 . S
C502 C503 1.363 . S
C502 C507 1.379 . S
C502 N509 1.356 . S
C503 C502 1.363 . S
C503 C506 1.363 . S
N504 C506 1.356 . S
N504 H516 0.984 . S
N504 H517 0.985 . S
N505 C507 1.356 . S
N505 H510 0.984 . S
N505 H511 0.985 . S
C506 C500 1.379 . S
C506 C503 1.363 . S
C506 N504 1.356 . S
C507 C501 1.363 . S
C507 C502 1.379 . S
C507 N505 1.356 . S
N508 C500 1.356 . S
N508 H514 0.984 . S
N508 H515 0.984 . S
N509 C502 1.356 . S
N509 H512 0.984 . S
N509 H513 0.985 . S
H510 N505 0.984 . S
H511 N505 0.985 . S
H512 N509 0.984 . S
H513 N509 0.985 . S
H514 N508 0.984 . S
H515 N508 0.984 . S
H516 N504 0.984 . S
H517 N504 0.985 . S
C518 C519 1.363 . S
C518 C524 1.379 . S
C518 N526 1.356 . S
C519 C518 1.363 . S
C519 C525 1.363 . S
C520 C521 1.363 . S
C520 C525 1.379 . S
C520 N527 1.356 . S
C521 C520 1.363 . S
C521 C524 1.363 . S
N522 C524 1.356 . S
N522 H534 0.984 . S
N522 H535 0.985 . S
N523 C525 1.356 . S
N523 H528 0.984 . S
N523 H529 0.985 . S
C524 C518 1.379 . S
C524 C521 1.363 . S
C524 N522 1.356 . S
C525 C519 1.363 . S
C525 C520 1.379 . S
C525 N523 1.356 . S
N526 C518 1.356 . S
N526 H532 0.984 . S
N526 H533 0.984 . S
N527 C520 1.356 . S
N527 H530 0.984 . S
N527 H531 0.985 . S
H528 N523 0.984 . S
H529 N523 0.985 . S
H530 N527 0.984 . S
H531 N527 0.985 . S
H532 N526 0.984 . S
H533 N526 0.984 . S
H534 N522 0.984 . S
H535 N522 0.985 . S
C536 C537 1.363 . S
C536 C542 1.379 . S
C536 N544 1.356 . S
C537 C536 1.363 . S
C537 C543 1.363 . S
C538 C539 1.363 . S
C538 C543 1.379 . S
C538 N545 1.356 . S
C539 C538 1.363 . S
C539 C542 1.363 . S
N540 C542 1.356 . S
N540 H552 0.984 . S
N540 H553 0.985 . S
N541 C543 1.356 . S
N541 H546 0.984 . S
N541 H547 0.985 . S
C542 C536 1.379 . S
C542 C539 1.363 . S
C542 N540 1.356 . S
C543 C537 1.363 . S
C543 C538 1.379 . S
C543 N541 1.356 . S
N544 C536 1.356 . S
N544 H550 0.984 . S
N544 H551 0.984 . S
N545 C538 1.356 . S
N545 H548 0.984 . S
N545 H549 0.985 . S
H546 N541 0.984 . S
H547 N541 0.985 . S
H548 N545 0.984 . S
H549 N545 0.985 . S
H550 N544 0.984 . S
H551 N544 0.984 . S
H552 N540 0.984 . S
H553 N540 0.985 . S
C554 C555 1.363 . S
C554 C560 1.379 . S
C554 N562 1.356 . S
C555 C554 1.363 . S
C555 C561 1.363 . S
C556 C557 1.363 . S
C556 C561 1.379 . S
C556 N563 1.356 . S
C557 C556 1.363 . S
C557 C560 1.363 . S
N558 C560 1.356 . S
N558 H570 0.984 . S
N558 H571 0.985 . S
N559 C561 1.356 . S
N559 H564 0.984 . S
N559 H565 0.985 . S
C560 C554 1.379 . S
C560 C557 1.363 . S
C560 N558 1.356 . S
C561 C555 1.363 . S
C561 C556 1.379 . S
C561 N559 1.356 . S
N562 C554 1.356 . S
N562 H568 0.984 . S
N562 H569 0.984 . S
N563 C556 1.356 . S
N563 H566 0.984 . S
N563 H567 0.985 . S
H564 N559 0.984 . S
H565 N559 0.985 . S
H566 N563 0.984 . S
H567 N563 0.985 . S
H568 N562 0.984 . S
H569 N562 0.984 . S
H570 N558 0.984 . S
H571 N558 0.985 . S
C572 C573 1.363 . S
C572 C578 1.379 . S
C572 N580 1.356 . S
C573 C572 1.363 . S
C573 C579 1.363 . S
C574 C575 1.363 . S
C574 C579 1.379 . S
C574 N581 1.356 . S
C575 C574 1.363 . S
C575 C578 1.363 . S
N576 C578 1.356 . S
N576 H588 0.984 . S
N576 H589 0.985 . S
N577 C579 1.356 . S
N577 H582 0.984 . S
N577 H583 0.985 . S
C578 C572 1.379 . S
C578 C575 1.363 . S
C578 N576 1.356 . S
C579 C573 1.363 . S
C579 C574 1.379 . S
C579 N577 1.356 . S
N580 C572 1.356 . S
N580 H586 0.984 . S
N580 H587 0.984 . S
N581 C574 1.356 . S
N581 H584 0.984 . S
N581 H585 0.985 . S
H582 N577 0.984 . S
H583 N577 0.985 . S
H584 N581 0.984 . S
H585 N581 0.985 . S
H586 N580 0.984 . S
H587 N580 0.984 . S
H588 N576 0.984 . S
H589 N576 0.985 . S
C590 C591 1.363 . S
C590 C596 1.379 . S
C590 N598 1.356 1_556 S
C591 C590 1.363 . S
C591 C597 1.363 . S
C592 C593 1.363 . S
C592 C597 1.379 . S
C592 N599 1.356 . S
C593 C592 1.363 . S
C593 C596 1.363 . S
N594 C596 1.356 . S
N594 H606 0.984 . S
N594 H607 0.985 . S
N595 C597 1.356 . S
N595 H600 0.984 . S
N595 H601 0.985 . S
C596 C590 1.379 . S
C596 C593 1.363 . S
C596 N594 1.356 . S
C597 C591 1.363 . S
C597 C592 1.379 . S
C597 N595 1.356 . S
N598 C590 1.356 1_554 S
N598 H604 0.984 . S
N598 H605 0.984 . S
N599 C592 1.356 . S
N599 H602 0.984 . S
N599 H603 0.985 . S
H600 N595 0.984 . S
H601 N595 0.985 . S
H602 N599 0.984 . S
H603 N599 0.985 . S
H604 N598 0.984 . S
H605 N598 0.984 . S
H606 N594 0.984 . S
H607 N594 0.985 . S
C177 C8 1.507 . S
C179 C97 1.438 . S
C195 C31 1.481 . S
C197 C108 1.381 . S
C213 C53 1.441 . S
C215 C116 1.386 . S
C233 C130 1.410 . S
C231 C74 1.409 . S
C251 C141 1.438 . S
C249 C26 1.507 . S
C267 C48 1.409 1_455 S
C269 C152 1.410 . S
C285 C71 1.441 . S
C287 C160 1.387 . S
C303 C5 1.481 . S
C305 C174 1.381 . S
C321 C50 1.366 . S
C323 C171 1.336 . S
C341 C138 1.253 . S
C339 C70 1.303 . S
C359 C149 1.372 . S
C357 C4 1.408 . S
C375 C28 1.421 . S
C377 C163 1.413 . S
C395 C105 1.335 . S
C393 C73 1.366 . S
C411 C7 1.421 1_655 S
C413 C119 1.413 . S
C431 C127 1.372 . S
C429 C30 1.408 . S
C449 C94 1.253 . S
C447 C52 1.302 . S
C467 N158 1.464 . S
C465 C9 1.506 . S
C485 N169 1.475 . S
C483 C29 1.463 . S
C501 C51 1.410 . S
C503 N136 1.417 . S
C521 N147 1.418 . S
C519 C75 1.471 . S
C539 N114 1.464 . S
C537 C27 1.506 . S
C555 C49 1.471 . S
C557 N125 1.419 . S
C575 N92 1.418 . S
C573 C72 1.410 . S
C593 N103 1.475 . S
C591 C6 1.463 . S
