# Generated by pormake.
# Topology zzz, (3,6)-cn, num edge types: 1
# Building blocks:
#     Node 0, Type 0, BuildingBlock: BELTOD_clean_linker_0, # of connection points: 3
#     Node 1, Type 0, BuildingBlock: BELTOD_clean_linker_0, # of connection points: 3
#     Node 2, Type 0, BuildingBlock: BELTOD_clean_linker_0, # of connection points: 3
#     Node 3, Type 0, BuildingBlock: BELTOD_clean_linker_0, # of connection points: 3
#     Node 4, Type 0, BuildingBlock: BELTOD_clean_linker_0, # of connection points: 3
#     Node 5, Type 0, BuildingBlock: BELTOD_clean_linker_0, # of connection points: 3
#     Node 6, Type 0, BuildingBlock: BELTOD_clean_linker_0, # of connection points: 3
#     Node 7, Type 0, BuildingBlock: BELTOD_clean_linker_0, # of connection points: 3
#     Node 8, Type 1, BuildingBlock: BETDIP_clean_sbu_0, # of connection points: 6
#     Node 9, Type 1, BuildingBlock: BETDIP_clean_sbu_0, # of connection points: 6
#     Node 10, Type 1, BuildingBlock: BETDIP_clean_sbu_0, # of connection points: 6
#     Node 11, Type 1, BuildingBlock: BETDIP_clean_sbu_0, # of connection points: 6
#     Edge 12, Type (0, 1), BuildingBlock: TEMPAE_clean_linker_10, # of connection points: 2
#     Edge 13, Type (0, 1), BuildingBlock: TEMPAE_clean_linker_10, # of connection points: 2
#     Edge 14, Type (0, 1), BuildingBlock: TEMPAE_clean_linker_10, # of connection points: 2
#     Edge 15, Type (0, 1), BuildingBlock: TEMPAE_clean_linker_10, # of connection points: 2
#     Edge 16, Type (0, 1), BuildingBlock: TEMPAE_clean_linker_10, # of connection points: 2
#     Edge 17, Type (0, 1), BuildingBlock: TEMPAE_clean_linker_10, # of connection points: 2
#     Edge 18, Type (0, 1), BuildingBlock: TEMPAE_clean_linker_10, # of connection points: 2
#     Edge 19, Type (0, 1), BuildingBlock: TEMPAE_clean_linker_10, # of connection points: 2
#     Edge 20, Type (0, 1), BuildingBlock: TEMPAE_clean_linker_10, # of connection points: 2
#     Edge 21, Type (0, 1), BuildingBlock: TEMPAE_clean_linker_10, # of connection points: 2
#     Edge 22, Type (0, 1), BuildingBlock: TEMPAE_clean_linker_10, # of connection points: 2
#     Edge 23, Type (0, 1), BuildingBlock: TEMPAE_clean_linker_10, # of connection points: 2
#     Edge 24, Type (0, 1), BuildingBlock: TEMPAE_clean_linker_10, # of connection points: 2
#     Edge 25, Type (0, 1), BuildingBlock: TEMPAE_clean_linker_10, # of connection points: 2
#     Edge 26, Type (0, 1), BuildingBlock: TEMPAE_clean_linker_10, # of connection points: 2
#     Edge 27, Type (0, 1), BuildingBlock: TEMPAE_clean_linker_10, # of connection points: 2
#     Edge 28, Type (0, 1), BuildingBlock: TEMPAE_clean_linker_10, # of connection points: 2
#     Edge 29, Type (0, 1), BuildingBlock: TEMPAE_clean_linker_10, # of connection points: 2
#     Edge 30, Type (0, 1), BuildingBlock: TEMPAE_clean_linker_10, # of connection points: 2
#     Edge 31, Type (0, 1), BuildingBlock: TEMPAE_clean_linker_10, # of connection points: 2
#     Edge 32, Type (0, 1), BuildingBlock: TEMPAE_clean_linker_10, # of connection points: 2
#     Edge 33, Type (0, 1), BuildingBlock: TEMPAE_clean_linker_10, # of connection points: 2
#     Edge 34, Type (0, 1), BuildingBlock: TEMPAE_clean_linker_10, # of connection points: 2
#     Edge 35, Type (0, 1), BuildingBlock: TEMPAE_clean_linker_10, # of connection points: 2
# Relax obj value: 0.427
# Max RMSD: 0.251
# Mean RMSD: 0.233
data_MOF--net-zzz--node1-BETDIP_clean_sbu_0--node2-BELTOD_clean_linker_0--edge1-TEMPAE_clean_linker_10
_symmetry_space_group_name_H-M    P1
_symmetry_Int_Tables_number       1
_symmetry_cell_setting            triclinic
loop_
_symmetry_equiv_pos_as_xyz
'x, y, z'
_cell_length_a     56.337094
_cell_length_b     56.289136
_cell_length_c     17.429204
_cell_angle_alpha  89.754213
_cell_angle_beta   89.854989
_cell_angle_gamma 90.003808
loop_
_atom_site_label
_atom_site_type_symbol
_atom_site_fract_x
_atom_site_fract_y
_atom_site_fract_z
_atom_type_partial_charge
P0 P 0.71751 0.46821 0.39797 0.0
H1 H 0.73243 0.48415 0.55074 0.0
H2 H 0.77146 0.49626 0.59688 0.0
H3 H 0.79559 0.50434 0.36303 0.0
H4 H 0.75633 0.49251 0.31705 0.0
H5 H 0.67235 0.44865 0.35433 0.0
H6 H 0.64251 0.46008 0.25999 0.0
H7 H 0.68123 0.52463 0.2121 0.0
H8 H 0.71154 0.51284 0.30695 0.0
H9 H 0.74985 0.43083 0.44523 0.0
H10 H 0.72133 0.45808 0.2328 0.0
O11 O 0.70498 0.45515 0.47411 0.0
H12 H 0.78096 0.41016 0.37361 0.0
H13 H 0.75211 0.43744 0.16157 0.0
C14 C 0.7413 0.48738 0.43025 0.0
C15 C 0.74572 0.48952 0.50919 0.0
C16 C 0.76819 0.49631 0.53567 0.0
C17 C 0.78681 0.50081 0.48365 0.0
C18 C 0.78174 0.50064 0.4046 0.0
C19 C 0.75915 0.49421 0.37822 0.0
C20 C 0.69399 0.48005 0.33864 0.0
C21 C 0.67424 0.46553 0.32484 0.0
C22 C 0.65727 0.47197 0.27039 0.0
C23 C 0.65957 0.49319 0.22842 0.0
C24 C 0.67894 0.50824 0.24405 0.0
C25 C 0.69622 0.50157 0.29827 0.0
C26 C 0.73318 0.44589 0.34453 0.0
C27 C 0.74956 0.43144 0.38311 0.0
C28 C 0.76741 0.41977 0.34225 0.0
C29 C 0.769 0.42236 0.26219 0.0
C30 C 0.75115 0.4349 0.22316 0.0
C31 C 0.73348 0.44677 0.26409 0.0
P32 P 0.04131 0.7181 0.35794 0.0
H33 H 0.05422 0.73937 0.50437 0.0
H34 H 0.04483 0.77763 0.56114 0.0
H35 H 0.9903 0.78879 0.39173 0.0
H36 H 1.0001 0.75041 0.33324 0.0
H37 H 0.05218 0.66753 0.35352 0.0
H38 H 0.03679 0.63511 0.27635 0.0
H39 H 0.97979 0.68003 0.19789 0.0
H40 H 0.99427 0.71227 0.27993 0.0
H41 H 0.0889 0.73709 0.32658 0.0
H42 H 0.02093 0.73499 0.21292 0.0
O43 O 0.06377 0.7071 0.40943 0.0
H44 H 0.10343 0.76498 0.22865 0.0
H45 H 0.03538 0.76246 0.11622 0.0
C46 C 0.02769 0.7415 0.41468 0.0
C47 C 0.03968 0.74949 0.48036 0.0
C48 C 0.03449 0.77161 0.51265 0.0
C49 C 0.01701 0.78635 0.48053 0.0
C50 C 1.00381 0.77776 0.41801 0.0
C51 C 0.00927 0.75564 0.38489 0.0
C52 C 0.02467 0.69273 0.32232 0.0
C53 C 0.03581 0.67036 0.32246 0.0
C54 C 0.02708 0.65172 0.27787 0.0
C55 C 0.00731 0.65515 0.23044 0.0
C56 C 0.9952 0.677 0.23363 0.0
C57 C 1.00356 0.69548 0.28042 0.0
C58 C 0.05387 0.73356 0.27686 0.0
C59 C 0.07735 0.74187 0.27943 0.0
C60 C 0.0857 0.75774 0.22348 0.0
C61 C 0.07047 0.76569 0.16522 0.0
C62 C 0.04745 0.75641 0.16054 0.0
C63 C 0.0392 0.74056 0.21597 0.0
P64 P 0.79468 0.0417 0.38137 0.0
H65 H 0.7795 0.02476 0.53346 0.0
H66 H 0.74035 0.01256 0.57942 0.0
H67 H 0.71625 0.00655 0.34548 0.0
H68 H 0.75562 0.01847 0.29967 0.0
H69 H 0.84 0.06112 0.33754 0.0
H70 H 0.86972 0.04998 0.24221 0.0
H71 H 0.83051 0.98597 0.19338 0.0
H72 H 0.80031 0.99749 0.28912 0.0
H73 H 0.76274 0.07919 0.43022 0.0
H74 H 0.79125 0.053 0.21668 0.0
O75 O 0.80728 0.05408 0.45799 0.0
H76 H 0.73203 0.10076 0.35947 0.0
H77 H 0.76088 0.0745 0.14634 0.0
C78 C 0.77064 0.02258 0.41293 0.0
C79 C 0.76618 0.01984 0.49179 0.0
C80 C 0.74365 0.01299 0.51818 0.0
C81 C 0.72502 0.00904 0.46617 0.0
C82 C 0.73011 0.00983 0.38707 0.0
C83 C 0.75276 0.01631 0.36077 0.0
C84 C 0.81812 0.02998 0.32138 0.0
C85 C 0.83798 0.04442 0.30762 0.0
C86 C 0.85488 0.03815 0.25263 0.0
C87 C 0.8524 0.01717 0.21013 0.0
C88 C 0.83293 1.00217 0.22573 0.0
C89 C 0.81572 0.00869 0.28047 0.0
C90 C 0.77937 0.06458 0.32891 0.0
C91 C 0.76312 0.079 0.36808 0.0
C92 C 0.74551 0.09119 0.3277 0.0
C93 C 0.74401 0.08914 0.24754 0.0
C94 C 0.76177 0.07663 0.20801 0.0
C95 C 0.7792 0.06426 0.24845 0.0
P96 P 0.4739 0.79346 0.371 0.0
H97 H 0.48907 0.77871 0.52542 0.0
H98 H 0.50057 0.73983 0.57591 0.0
H99 H 0.50637 0.7131 0.34484 0.0
H100 H 0.4948 0.75202 0.29465 0.0
H101 H 0.47604 0.84531 0.38027 0.0
H102 H 0.4895 0.87564 0.28966 0.0
H103 H 0.51879 0.82107 0.14435 0.0
H104 H 0.50567 0.79064 0.2364 0.0
H105 H 0.44048 0.7555 0.40297 0.0
H106 H 0.45629 0.80203 0.21214 0.0
O107 O 0.46081 0.80666 0.44552 0.0
H108 H 0.41898 0.7291 0.31759 0.0
H109 H 0.43468 0.77572 0.12652 0.0
C110 C 0.49106 0.76842 0.40608 0.0
C111 C 0.49364 0.76478 0.48537 0.0
C112 C 0.50014 0.74243 0.51432 0.0
C113 C 0.50399 0.72319 0.46449 0.0
C114 C 0.50316 0.72742 0.38487 0.0
C115 C 0.49691 0.74983 0.356 0.0
C116 C 0.48992 0.8156 0.31558 0.0
C117 C 0.48605 0.8398 0.33034 0.0
C118 C 0.49372 0.8572 0.27829 0.0
C119 C 0.50502 0.85074 0.20954 0.0
C120 C 0.50998 0.82657 0.19666 0.0
C121 C 0.50271 0.80917 0.24963 0.0
C122 C 0.4509 0.78017 0.31357 0.0
C123 C 0.43865 0.76048 0.34317 0.0
C124 C 0.4262 0.74544 0.2942 0.0
C125 C 0.42563 0.75004 0.21486 0.0
C126 C 0.43534 0.77143 0.18712 0.0
C127 C 0.44786 0.78644 0.23622 0.0
P128 P 0.28308 0.46029 0.10628 0.0
H129 H 0.2644 0.44594 0.95661 0.0
H130 H 0.22901 0.45813 0.88797 0.0
H131 H 0.22227 0.51906 0.03649 0.0
H132 H 0.25745 0.50604 0.10721 0.0
H133 H 0.3301 0.4383 0.10506 0.0
H134 H 0.3666 0.44875 0.16938 0.0
H135 H 0.33715 0.51759 0.22451 0.0
H136 H 0.30147 0.50767 0.15227 0.0
H137 H 0.23746 0.43913 0.14222 0.0
H138 H 0.28994 0.48005 0.26394 0.0
O139 O 0.28607 0.43207 0.07883 0.0
H140 H 0.20877 0.44719 0.24368 0.0
H141 H 0.26105 0.49037 0.35949 0.0
C142 C 0.26385 0.47505 0.03728 0.0
C143 C 0.25587 0.46238 0.97312 0.0
C144 C 0.23538 0.46942 0.93361 0.0
C145 C 0.22226 0.48947 0.95695 0.0
C146 C 0.23144 0.50323 0.01757 0.0
C147 C 0.25196 0.49608 0.05729 0.0
C148 C 0.31261 0.47195 0.12529 0.0
C149 C 0.33173 0.45602 0.12831 0.0
C150 C 0.35262 0.4619 0.16706 0.0
C151 C 0.35468 0.48359 0.20665 0.0
C152 C 0.33647 0.50058 0.19598 0.0
C153 C 0.31589 0.49497 0.15416 0.0
C154 C 0.26562 0.4598 0.19314 0.0
C155 C 0.24296 0.44961 0.19105 0.0
C156 C 0.22645 0.45455 0.24866 0.0
C157 C 0.23219 0.47032 0.30835 0.0
C158 C 0.25573 0.47836 0.31438 0.0
C159 C 0.27235 0.47285 0.25789 0.0
P160 P 0.04489 0.28319 0.09521 0.0
H161 H 0.06282 0.26769 0.94508 0.0
H162 H 0.05277 0.23317 0.86779 0.0
H163 H 0.98965 0.22232 0.00486 0.0
H164 H 0.99934 0.2576 0.07957 0.0
H165 H 0.07197 0.32692 0.11296 0.0
H166 H 0.06224 0.36384 0.17631 0.0
H167 H 0.98808 0.34435 0.17703 0.0
H168 H 0.99818 0.30678 0.11349 0.0
H169 H 0.04907 0.23335 0.13589 0.0
H170 H 0.02847 0.29795 0.25115 0.0
O171 O 0.0743 0.28268 0.08331 0.0
H172 H 0.03277 0.21014 0.24125 0.0
H173 H 0.0122 0.27476 0.35693 0.0
C174 C 0.03203 0.26524 0.01909 0.0
C175 C 0.04632 0.25848 0.95679 0.0
C176 C 0.04074 0.23832 0.91329 0.0
C177 C 0.02078 0.22421 0.93134 0.0
C178 C 0.00521 0.23249 0.98889 0.0
C179 C 0.01068 0.2529 0.03173 0.0
C180 C 0.03584 0.31391 0.10791 0.0
C181 C 0.05345 0.33085 0.12352 0.0
C182 C 0.04782 0.35215 0.16035 0.0
C183 C 0.02437 0.3571 0.1832 0.0
C184 C 0.00639 0.34102 0.16143 0.0
C185 C 0.01206 0.31968 0.12369 0.0
C186 C 0.03884 0.26732 0.18321 0.0
C187 C 0.04139 0.24259 0.18438 0.0
C188 C 0.03221 0.22933 0.24518 0.0
C189 C 0.02072 0.24065 0.3068 0.0
C190 C 0.02035 0.26556 0.30919 0.0
C191 C 0.02956 0.27883 0.2481 0.0
P192 P 0.22946 0.05314 0.09324 0.0
H193 H 0.24542 0.06993 0.94188 0.0
H194 H 0.27999 0.05919 0.86513 0.0
H195 H 0.29084 0.99736 0.00855 0.0
H196 H 0.25559 0.00777 0.08305 0.0
H197 H 0.1855 0.07918 0.11671 0.0
H198 H 0.14919 0.06804 0.18173 0.0
H199 H 0.16983 0.99419 0.17132 0.0
H200 H 0.20689 0.00577 0.10682 0.0
H201 H 0.27884 0.0591 0.13636 0.0
H202 H 0.21409 0.0369 0.24899 0.0
O203 O 0.22932 0.08245 0.07825 0.0
H204 H 0.30172 0.04375 0.24383 0.0
H205 H 0.23693 0.02146 0.35623 0.0
C206 C 0.2479 0.03984 0.01904 0.0
C207 C 0.25466 0.05357 0.95522 0.0
C208 C 0.27481 0.04759 0.91197 0.0
C209 C 0.28887 0.02778 0.93176 0.0
C210 C 0.28066 0.01277 0.99122 0.0
C211 C 0.2603 0.01866 0.03394 0.0
C212 C 0.19902 0.04335 0.10607 0.0
C213 C 0.1819 0.06046 0.12511 0.0
C214 C 0.16096 0.054 0.16295 0.0
C215 C 0.15653 0.03019 0.1832 0.0
C216 C 0.17276 0.01276 0.15792 0.0
C217 C 0.1938 0.01929 0.11953 0.0
C218 C 0.24486 0.0481 0.1824 0.0
C219 C 0.26948 0.05136 0.18475 0.0
C220 C 0.28253 0.04271 0.24663 0.0
C221 C 0.27109 0.03095 0.30777 0.0
C222 C 0.24621 0.02992 0.30895 0.0
C223 C 0.23316 0.03863 0.24698 0.0
P224 P 0.4545 0.22489 0.07975 0.0
H225 H 0.44128 0.24244 0.92678 0.0
H226 H 0.45282 0.27841 0.8577 0.0
H227 H 0.51012 0.2892 0.01801 0.0
H228 H 0.49889 0.25269 0.08531 0.0
H229 H 0.43047 0.17978 0.10202 0.0
H230 H 0.44254 0.14422 0.16956 0.0
H231 H 0.51536 0.16838 0.16542 0.0
H232 H 0.50276 0.20471 0.09862 0.0
H233 H 0.44244 0.27302 0.12469 0.0
H234 H 0.46912 0.20995 0.2373 0.0
O235 O 0.42592 0.22312 0.05543 0.0
H236 H 0.45469 0.29673 0.23435 0.0
H237 H 0.48166 0.23365 0.34584 0.0
C238 C 0.46907 0.24479 0.01183 0.0
C239 C 0.45688 0.252 0.94557 0.0
C240 C 0.46329 0.27292 0.90667 0.0
C241 C 0.48202 0.28728 0.93329 0.0
C242 C 0.4956 0.27876 0.99549 0.0
C243 C 0.48926 0.25769 0.03402 0.0
C244 C 0.46568 0.19499 0.09427 0.0
C245 C 0.44922 0.1771 0.1123 0.0
C246 C 0.45622 0.15659 0.15165 0.0
C247 C 0.47995 0.15336 0.17441 0.0
C248 C 0.49685 0.17037 0.15017 0.0
C249 C 0.48977 0.191 0.11042 0.0
C250 C 0.45585 0.23991 0.17075 0.0
C251 C 0.45031 0.26414 0.17369 0.0
C252 C 0.45721 0.27766 0.23665 0.0
C253 C 0.46959 0.26702 0.29772 0.0
C254 C 0.47259 0.2423 0.29863 0.0
C255 C 0.46557 0.22878 0.23581 0.0
Tb256 Tb 0.02181 1.00145 0.75879 0.0
Tb257 Tb 0.98773 0.01068 0.63921 0.0
C258 C 0.04504 0.98525 0.87012 0.0
C259 C 0.05863 0.96343 0.88221 0.0
C260 C 0.06422 0.95633 0.9569 0.0
C261 C 0.07509 0.93443 0.96991 0.0
C262 C 0.08059 0.91928 0.90824 0.0
C263 C 0.07573 0.92694 0.83299 0.0
C264 C 0.06477 0.94886 0.82009 0.0
C265 C 0.04126 0.01427 0.62612 0.0
C266 C 1.00393 0.95828 0.65372 0.0
C267 C 0.96483 0.02796 0.52906 0.0
C268 C 0.95578 0.05201 0.51424 0.0
C269 C 0.96058 0.06269 0.44337 0.0
C270 C 0.956 0.08676 0.43216 0.0
C271 C 0.94617 0.10067 0.49143 0.0
C272 C 0.94001 0.08949 0.56102 0.0
C273 C 0.94497 0.06541 0.57259 0.0
C274 C 0.96819 0.99738 0.771 0.0
C275 C 0.00562 0.0535 0.74518 0.0
O276 O 0.02215 0.98229 0.86214 0.0
O277 O 0.05379 1.00007 0.81962 0.0
O278 O 0.02404 1.00031 0.63554 0.0
O279 O 0.04865 0.02097 0.69272 0.0
O280 O 0.01327 0.96501 0.71993 0.0
O281 O 0.99513 0.97422 0.60578 0.0
O282 O 0.98797 0.02612 0.52954 0.0
O283 O 0.95494 0.01624 0.58552 0.0
O284 O 0.98537 0.01153 0.76244 0.0
O285 O 0.96109 0.99074 0.7039 0.0
O286 O 0.99766 0.04705 0.67679 0.0
O287 O 0.01276 0.03723 0.79456 0.0
H288 H 0.05945 0.96735 0.00538 0.0
H289 H 0.07806 0.92891 0.0287 0.0
H290 H 0.07983 0.91576 0.78431 0.0
H291 H 0.06053 0.95415 0.76188 0.0
H292 H 0.96913 0.0527 0.39799 0.0
H293 H 0.9616 0.09466 0.37836 0.0
H294 H 0.93218 0.09948 0.60757 0.0
H295 H 0.94123 0.05757 0.62819 0.0
Tb296 Tb 0.51184 0.02431 0.75955 0.0
Tb297 Tb 0.50206 0.98801 0.64599 0.0
C298 C 0.52825 0.04838 0.86849 0.0
C299 C 0.55188 0.05631 0.89457 0.0
C300 C 0.56733 0.04052 0.93208 0.0
C301 C 0.58917 0.04839 0.95945 0.0
C302 C 0.59616 0.07222 0.94987 0.0
C303 C 0.58078 0.08799 0.91186 0.0
C304 C 0.55882 0.08012 0.88473 0.0
C305 C 0.49763 0.04139 0.62574 0.0
C306 C 0.55453 1.00345 0.65711 0.0
C307 C 0.48453 0.96333 0.54087 0.0
C308 C 0.45982 0.95736 0.52128 0.0
C309 C 0.45045 0.96567 0.45193 0.0
C310 C 0.42626 0.9637 0.43716 0.0
C311 C 0.41088 0.95295 0.49095 0.0
C312 C 0.42057 0.94331 0.55849 0.0
C313 C 0.44481 0.94561 0.57376 0.0
C314 C 0.5163 0.9711 0.77998 0.0
C315 C 0.4594 0.00914 0.7473 0.0
O316 O 0.52376 0.0256 0.87302 0.0
O317 O 0.52036 0.05774 0.80472 0.0
O318 O 0.51191 0.02443 0.63626 0.0
O319 O 0.49121 0.0497 0.6918 0.0
O320 O 0.54802 0.01439 0.72113 0.0
O321 O 0.53861 0.99362 0.61185 0.0
O322 O 0.49024 0.98573 0.53233 0.0
O323 O 0.49282 0.95436 0.60468 0.0
O324 O 0.50184 0.98787 0.76895 0.0
O325 O 0.523 0.96298 0.71403 0.0
O326 O 0.4659 0.99915 0.68171 0.0
O327 O 0.47542 0.01793 0.79425 0.0
H328 H 0.56247 0.02212 0.94143 0.0
H329 H 0.60034 0.03588 0.98996 0.0
H330 H 0.58569 0.1064 0.90317 0.0
H331 H 0.54717 0.09272 0.85655 0.0
H332 H 0.46166 0.97484 0.41073 0.0
H333 H 0.41953 0.97186 0.38524 0.0
H334 H 0.40937 0.93463 0.60065 0.0
H335 H 0.45154 0.93894 0.62787 0.0
Tb336 Tb 0.49026 0.51266 0.78195 0.0
Tb337 Tb 0.52395 0.50115 0.6609 0.0
C338 C 0.47008 0.52867 0.89995 0.0
C339 C 0.45723 0.55006 0.92332 0.0
C340 C 0.45436 0.56928 0.87282 0.0
C341 C 0.44407 0.5904 0.89863 0.0
C342 C 0.43642 0.59247 0.97525 0.0
C343 C 0.43828 0.57265 0.02431 0.0
C344 C 0.44869 0.55165 0.99855 0.0
C345 C 0.46934 0.5002 0.65209 0.0
C346 C 0.51043 0.55449 0.67293 0.0
C347 C 0.54671 0.48273 0.55225 0.0
C348 C 0.54848 0.45811 0.52405 0.0
C349 C 0.53466 0.45098 0.46146 0.0
C350 C 0.53372 0.42716 0.44047 0.0
C351 C 0.54687 0.40995 0.4809 0.0
C352 C 0.56173 0.41727 0.5409 0.0
C353 C 0.56255 0.44114 0.56226 0.0
C354 C 0.54379 0.51436 0.79145 0.0
C355 C 0.5025 0.45959 0.76348 0.0
O356 O 0.49268 0.53153 0.88493 0.0
O357 O 0.45954 0.51521 0.84957 0.0
O358 O 0.48783 0.51272 0.65837 0.0
O359 O 0.46131 0.49563 0.72017 0.0
O360 O 0.49879 0.54848 0.73653 0.0
O361 O 0.52048 0.53824 0.62916 0.0
O362 O 0.52604 0.493 0.5439 0.0
O363 O 0.55584 0.48685 0.61972 0.0
O364 O 0.52612 0.50081 0.78393 0.0
O365 O 0.55109 0.52063 0.72391 0.0
O366 O 0.50991 0.46588 0.69419 0.0
O367 O 0.49739 0.47602 0.8146 0.0
H368 H 0.46065 0.56815 0.81427 0.0
H369 H 0.44306 0.6054 0.85962 0.0
H370 H 0.4322 0.57358 0.08324 0.0
H371 H 0.45061 0.53684 0.038 0.0
H372 H 0.52376 0.46367 0.4306 0.0
H373 H 0.52178 0.42214 0.39472 0.0
H374 H 0.57231 0.40449 0.57242 0.0
H375 H 0.57366 0.44611 0.61022 0.0
Tb376 Tb 1.00087 0.48432 0.7642 0.0
Tb377 Tb 0.00906 0.52428 0.66327 0.0
C378 C 0.98537 0.45594 0.8642 0.0
C379 C 0.96198 0.44946 0.89604 0.0
C380 C 0.94731 0.46649 0.93079 0.0
C381 C 0.92552 0.45983 0.96244 0.0
C382 C 0.91779 0.43608 0.9593 0.0
C383 C 0.93238 0.41915 0.92343 0.0
C384 C 0.95431 0.42578 0.89241 0.0
C385 C 0.01595 0.47178 0.62619 0.0
C386 C 0.95738 0.50672 0.67072 0.0
C387 C 0.02515 0.5529 0.5651 0.0
C388 C 0.04949 0.5613 0.55192 0.0
C389 C 0.05896 0.56028 0.47758 0.0
C390 C 0.08352 0.55992 0.46696 0.0
C391 C 0.09867 0.56054 0.53069 0.0
C392 C 0.08926 0.5648 0.60367 0.0
C393 C 0.06472 0.56513 0.61444 0.0
C394 C 0.99397 0.53651 0.80157 0.0
C395 C 0.05294 0.50157 0.75755 0.0
O396 O 0.99335 0.47722 0.8797 0.0
O397 O 0.98914 0.45001 0.79283 0.0
O398 O 1.00096 0.48782 0.64112 0.0
O399 O 0.02276 0.46218 0.69007 0.0
O400 O 0.96432 0.49502 0.73295 0.0
O401 O 0.97301 0.51767 0.62672 0.0
O402 O 0.02214 0.53022 0.5522 0.0
O403 O 0.01502 0.55958 0.62897 0.0
O404 O 0.00916 0.52076 0.78586 0.0
O405 O 0.98686 0.54606 0.73798 0.0
O406 O 0.04576 0.51553 0.70051 0.0
O407 O 0.03768 0.48852 0.79656 0.0
H408 H 0.95271 0.48492 0.93438 0.0
H409 H 0.91498 0.47328 0.99086 0.0
H410 H 0.92685 0.40078 0.91914 0.0
H411 H 0.96533 0.41237 0.86568 0.0
H412 H 0.04749 0.5573 0.42874 0.0
H413 H 0.09055 0.55642 0.41018 0.0
H414 H 0.10083 0.56548 0.65305 0.0
H415 H 0.05784 0.56605 0.67244 0.0
C416 C 0.14023 0.00805 0.29808 0.0
C417 C 0.13669 0.02433 0.23781 0.0
C418 C 0.12323 0.00504 0.35674 0.0
C419 C 0.10214 0.01878 0.35599 0.0
C420 C 0.0979 0.03439 0.29353 0.0
C421 C 0.1151 0.03687 0.2352 0.0
C422 C 0.12842 0.98798 0.42163 0.0
C423 C 0.07571 0.04938 0.29014 0.0
C424 C 0.05135 1.00152 0.49169 0.0
C425 C 0.05566 0.01629 0.55482 0.0
C426 C 0.06616 1.00219 0.42632 0.0
C427 C 0.08556 0.01825 0.42352 0.0
C428 C 0.08952 0.03363 0.48644 0.0
C429 C 0.07464 0.03236 0.55129 0.0
C430 C 0.06139 0.98534 0.36105 0.0
C431 C 0.10973 0.05125 0.48578 0.0
H432 H 0.15686 0.99845 0.30173 0.0
H433 H 0.11188 0.04918 0.18843 0.0
H434 H 0.13153 0.99809 0.47518 0.0
H435 H 0.11298 0.97615 0.43197 0.0
H436 H 0.14429 0.97685 0.40996 0.0
H437 H 0.07409 0.05915 0.2349 0.0
H438 H 0.05972 0.03813 0.29817 0.0
H439 H 0.07592 0.06248 0.33753 0.0
H440 H 0.03674 0.98899 0.49415 0.0
H441 H 0.078 0.04388 0.59975 0.0
H442 H 0.07676 0.97324 0.35352 0.0
H443 H 0.05926 0.99539 0.30662 0.0
H444 H 0.04521 0.97445 0.37092 0.0
H445 H 0.12691 0.04167 0.48218 0.0
H446 H 0.10989 0.06257 0.53784 0.0
H447 H 0.10847 0.06291 0.43447 0.0
C448 C 0.50172 0.13839 0.29151 0.0
C449 C 0.4861 0.13396 0.23043 0.0
C450 C 0.50491 0.12173 0.35118 0.0
C451 C 0.49199 0.10012 0.35076 0.0
C452 C 0.47706 0.09503 0.28763 0.0
C453 C 0.47444 0.11187 0.22821 0.0
C454 C 0.52127 0.12782 0.41668 0.0
C455 C 0.46291 0.07228 0.28463 0.0
C456 C 0.51028 0.05072 0.49032 0.0
C457 C 0.49513 0.05494 0.55282 0.0
C458 C 0.50936 0.06506 0.42381 0.0
C459 C 0.49263 0.08385 0.41916 0.0
C460 C 0.47678 0.0876 0.48127 0.0
C461 C 0.47834 0.07324 0.54735 0.0
C462 C 0.52675 0.06056 0.35951 0.0
C463 C 0.45839 0.1071 0.47857 0.0
H464 H 0.51064 0.1554 0.29493 0.0
H465 H 0.46267 0.10795 0.18084 0.0
H466 H 0.51067 0.13079 0.46951 0.0
H467 H 0.53357 0.11285 0.42843 0.0
H468 H 0.5319 0.14405 0.40478 0.0
H469 H 0.45364 0.07006 0.22895 0.0
H470 H 0.47464 0.05673 0.2942 0.0
H471 H 0.44945 0.07224 0.33124 0.0
H472 H 0.52337 0.03664 0.49429 0.0
H473 H 0.4665 0.07651 0.59531 0.0
H474 H 0.53852 0.07622 0.35224 0.0
H475 H 0.51716 0.0581 0.30461 0.0
H476 H 0.53794 0.04466 0.37037 0.0
H477 H 0.46731 0.12464 0.47487 0.0
H478 H 0.44665 0.10698 0.52986 0.0
H479 H 0.44724 0.10521 0.42656 0.0
C480 C 0.38381 0.46766 0.30454 0.0
C481 C 0.37431 0.48722 0.26424 0.0
C482 C 0.40095 0.47051 0.36229 0.0
C483 C 0.40844 0.49358 0.38318 0.0
C484 C 0.39932 0.51344 0.34254 0.0
C485 C 0.38266 0.51003 0.28317 0.0
C486 C 0.41045 0.44872 0.40281 0.0
C487 C 0.40647 0.5384 0.36372 0.0
C488 C 0.42933 0.49834 0.5905 0.0
C489 C 0.4541 0.49932 0.58252 0.0
C490 C 0.41436 0.49751 0.52611 0.0
C491 C 0.42433 0.49678 0.45141 0.0
C492 C 0.44938 0.49772 0.44293 0.0
C493 C 0.46392 0.49944 0.50853 0.0
C494 C 0.38781 0.49718 0.53821 0.0
C495 C 0.46084 0.4962 0.36478 0.0
H496 H 0.37733 0.44992 0.29316 0.0
H497 H 0.37598 0.52537 0.25238 0.0
H498 H 0.43012 0.44934 0.40533 0.0
H499 H 0.40378 0.44825 0.46273 0.0
H500 H 0.40504 0.43201 0.37406 0.0
H501 H 0.39879 0.55191 0.32433 0.0
H502 H 0.40043 0.54229 0.42301 0.0
H503 H 0.42608 0.54017 0.36296 0.0
H504 H 0.42155 0.49851 0.64745 0.0
H505 H 0.48299 0.50026 0.5019 0.0
H506 H 0.38045 0.47991 0.51916 0.0
H507 H 0.37929 0.51128 0.50311 0.0
H508 H 0.38284 0.49987 0.59928 0.0
H509 H 0.45611 0.47905 0.33758 0.0
H510 H 0.4805 0.49755 0.36768 0.0
H511 H 0.45407 0.51056 0.32697 0.0
C512 C 0.03198 0.39893 0.22992 0.0
C513 C 0.01955 0.37735 0.23692 0.0
C514 C 0.03055 0.41656 0.28697 0.0
C515 C 0.01628 0.41269 0.35295 0.0
C516 C 1.00267 0.39155 0.35831 0.0
C517 C 0.00449 0.37419 0.30054 0.0
C518 C 0.04525 0.43883 0.27835 0.0
C519 C 0.98713 0.38664 0.42725 0.0
C520 C 0.03397 0.44026 0.54407 0.0
C521 C 0.01748 0.45876 0.55216 0.0
C522 C 0.03415 0.42569 0.47872 0.0
C523 C 0.01732 0.4295 0.41959 0.0
C524 C 1.0011 0.44869 0.42622 0.0
C525 C 1.00143 0.46314 0.49227 0.0
C526 C 0.05196 0.40569 0.47413 0.0
C527 C 0.98287 0.45344 0.36479 0.0
H528 H 0.04339 0.40181 0.18062 0.0
H529 H 0.99501 0.35757 0.30747 0.0
H530 H 0.03421 0.4548 0.28892 0.0
H531 H 0.05964 0.43876 0.32173 0.0
H532 H 0.05342 0.44036 0.22046 0.0
H533 H 0.9759 0.37061 0.41945 0.0
H534 H 0.99842 0.38392 0.47862 0.0
H535 H 0.97544 0.40207 0.43893 0.0
H536 H 0.04649 0.43682 0.58994 0.0
H537 H 0.98857 0.47735 0.49817 0.0
H538 H 0.06223 0.40697 0.41987 0.0
H539 H 0.04254 0.38838 0.47381 0.0
H540 H 0.06459 0.40577 0.52298 0.0
H541 H 0.99158 0.45483 0.30778 0.0
H542 H 0.9727 0.47 0.37558 0.0
H543 H 0.97022 0.43836 0.36214 0.0
C544 C 0.87424 0.0295 0.09137 0.0
C545 C 0.86948 0.01203 0.14692 0.0
C546 C 0.89077 0.02559 0.03228 0.0
C547 C 0.90327 1.00378 0.02912 0.0
C548 C 0.89857 0.98603 0.0852 0.0
C549 C 0.88152 0.99027 0.14297 0.0
C550 C 0.89475 0.04482 0.97292 0.0
C551 C 0.91178 0.96271 0.08471 0.0
C552 C 0.9294 0.98784 0.83418 0.0
C553 C 0.95262 0.99668 0.83989 0.0
C554 C 0.9134 0.98938 0.896 0.0
C555 C 0.92088 0.99961 0.96604 0.0
C556 C 0.94468 0.00751 0.9733 0.0
C557 C 0.96021 0.00615 0.90993 0.0
C558 C 0.88815 0.98108 0.88506 0.0
C559 C 0.95354 0.01811 0.04727 0.0
H560 H 0.86479 0.04627 0.09382 0.0
H561 H 0.87801 0.97679 0.18616 0.0
H562 H 0.91356 0.05064 0.97382 0.0
H563 H 0.89113 0.03777 0.91474 0.0
H564 H 0.88326 0.06057 0.9826 0.0
H565 H 0.90636 0.9509 0.13288 0.0
H566 H 0.9086 0.95331 0.02989 0.0
H567 H 0.93115 0.96602 0.08868 0.0
H568 H 0.9234 0.98048 0.78023 0.0
H569 H 0.97816 0.0129 0.91479 0.0
H570 H 0.87593 0.9965 0.88879 0.0
H571 H 0.88305 0.96846 0.93126 0.0
H572 H 0.88549 0.9723 0.82877 0.0
H573 H 0.94459 0.03537 0.05751 0.0
H574 H 0.97303 0.02113 0.04632 0.0
H575 H 0.94912 0.00628 0.09634 0.0
C576 C 0.52035 0.8907 0.16639 0.0
C577 C 0.50949 0.86895 0.14881 0.0
C578 C 0.52315 0.90856 0.1102 0.0
C579 C 0.51438 0.90483 0.03504 0.0
C580 C 0.50348 0.88285 0.01708 0.0
C581 C 0.50138 0.86514 0.07386 0.0
C582 C 0.53538 0.93146 0.13133 0.0
C583 C 0.4935 0.87821 0.93821 0.0
C584 C 0.49892 0.9573 0.90503 0.0
C585 C 0.51732 0.95647 0.85079 0.0
C586 C 0.49804 0.941 0.96648 0.0
C587 C 0.51631 0.92385 0.975 0.0
C588 C 0.53561 0.92389 0.92269 0.0
C589 C 0.53571 0.93998 0.86069 0.0
C590 C 0.47692 0.94136 0.01994 0.0
C591 C 0.55578 0.90641 0.93066 0.0
H592 H 0.52669 0.89371 0.22421 0.0
H593 H 0.49263 0.84854 0.06026 0.0
H594 H 0.55043 0.93487 0.0916 0.0
H595 H 0.52284 0.94655 0.12527 0.0
H596 H 0.54219 0.93118 0.19109 0.0
H597 H 0.48532 0.86031 0.93367 0.0
H598 H 0.47986 0.89176 0.92417 0.0
H599 H 0.50774 0.87974 0.89443 0.0
H600 H 0.48459 0.96994 0.89733 0.0
H601 H 0.55002 0.93938 0.819 0.0
H602 H 0.48288 0.9424 0.08042 0.0
H603 H 0.46674 0.92459 0.01388 0.0
H604 H 0.46484 0.95653 0.00804 0.0
H605 H 0.56271 0.90651 0.9902 0.0
H606 H 0.57061 0.9104 0.89049 0.0
H607 H 0.54927 0.88819 0.91893 0.0
C608 C 0.63045 0.52038 0.16209 0.0
C609 C 0.64241 0.49855 0.16575 0.0
C610 C 0.61337 0.52484 0.10476 0.0
C611 C 0.60853 0.50726 0.04884 0.0
C612 C 0.62093 0.48537 0.05172 0.0
C613 C 0.63751 0.48124 0.11034 0.0
C614 C 0.60031 0.54824 0.10449 0.0
C615 C 0.61678 0.46631 0.99253 0.0
C616 C 0.55159 0.50548 0.93058 0.0
C617 C 0.55928 0.51495 0.86025 0.0
C618 C 0.56709 0.50394 0.99377 0.0
C619 C 0.59095 0.5117 0.98606 0.0
C620 C 0.59851 0.52197 0.9158 0.0
C621 C 0.58255 0.52366 0.85413 0.0
C622 C 0.55815 0.49327 0.06797 0.0
C623 C 0.62381 0.53016 0.90442 0.0
H624 H 0.63407 0.53373 0.20515 0.0
H625 H 0.64688 0.46443 0.1125 0.0
H626 H 0.60354 0.55777 0.04963 0.0
H627 H 0.58091 0.54504 0.10878 0.0
H628 H 0.6058 0.55989 0.15258 0.0
H629 H 0.62813 0.45043 1.00212 0.0
H630 H 0.59792 0.46065 0.99375 0.0
H631 H 0.62047 0.47344 0.93427 0.0
H632 H 0.5336 0.49882 0.93576 0.0
H633 H 0.58862 0.53104 0.79999 0.0
H634 H 0.5627 0.50496 0.1169 0.0
H635 H 0.56694 0.47591 0.07812 0.0
H636 H 0.53864 0.49044 0.06742 0.0
H637 H 0.62898 0.54262 0.95055 0.0
H638 H 0.62651 0.53908 0.8481 0.0
H639 H 0.63593 0.51466 0.90789 0.0
C640 C 0.99605 0.6135 0.19339 0.0
C641 C 1.00136 0.63695 0.17188 0.0
C642 C 0.99291 0.59567 0.13779 0.0
C643 C 0.99601 0.60122 0.05894 0.0
C644 C 1.0012 0.62498 0.03716 0.0
C645 C 1.00348 0.64257 0.09377 0.0
C646 C 0.98662 0.57081 0.16348 0.0
C647 C 0.00527 0.63167 0.95416 0.0
C648 C 0.01428 0.55284 0.9176 0.0
C649 C 0.99356 0.55013 0.87414 0.0
C650 C 0.01519 0.569 0.97901 0.0
C651 C 0.99465 0.58222 0.99906 0.0
C652 C 0.97329 0.57839 0.95805 0.0
C653 C 0.97314 0.56276 0.8952 0.0
C654 C 0.0385 0.5729 0.01956 0.0
C655 C 0.95078 0.5914 0.97893 0.0
H656 H 0.99453 0.60912 0.25383 0.0
H657 H 0.00798 0.66061 0.07715 0.0
H658 H 0.9709 0.56434 0.13151 0.0
H659 H 1.00151 0.55857 0.1506 0.0
H660 H 0.98274 0.56985 0.22595 0.0
H661 H 0.00928 0.65086 0.94674 0.0
H662 H 0.02029 0.62121 0.9306 0.0
H663 H 0.98936 0.62731 0.91963 0.0
H664 H 0.0302 0.54333 0.90083 0.0
H665 H 0.95711 0.56068 0.86158 0.0
H666 H 0.03627 0.57048 0.08232 0.0
H667 H 0.04456 0.59144 0.00978 0.0
H668 H 0.05258 0.56061 0.99919 0.0
H669 H 0.94744 0.5901 0.04159 0.0
H670 H 0.9351 0.58431 0.948 0.0
H671 H 0.95266 0.61052 0.96452 0.0
C672 C 0.01583 0.20434 0.38753 0.0
C673 C 0.00696 0.22626 0.36266 0.0
C674 C 1.00099 0.18772 0.42324 0.0
C675 C 0.9768 0.19347 0.43617 0.0
C676 C 0.96848 0.21662 0.41958 0.0
C677 C 0.98363 0.23272 0.38207 0.0
C678 C 0.01082 0.16335 0.44137 0.0
C679 C 0.94324 0.22404 0.43571 0.0
C680 C 0.94262 0.13725 0.41025 0.0
C681 C 0.94563 0.127 0.48309 0.0
C682 C 0.9503 0.16044 0.39529 0.0
C683 C 0.96014 0.17396 0.45559 0.0
C684 C 0.95881 0.1654 0.53168 0.0
C685 C 0.95207 0.14171 0.54469 0.0
C686 C 0.95052 0.16932 0.31342 0.0
C687 C 0.96654 0.18065 0.59799 0.0
H688 H 0.03407 0.1996 0.37474 0.0
H689 H 0.97662 0.24972 0.36346 0.0
H690 H 0.00813 0.15917 0.50296 0.0
H691 H 1.00125 0.14969 0.40766 0.0
H692 H 0.03007 0.16191 0.4283 0.0
H693 H 0.94261 0.24295 0.45368 0.0
H694 H 0.93265 0.22252 0.38236 0.0
H695 H 0.93475 0.21297 0.48089 0.0
H696 H 0.93624 0.12646 0.36324 0.0
H697 H 0.95385 0.13438 0.60194 0.0
H698 H 0.96912 0.17029 0.29237 0.0
H699 H 0.94293 0.18746 0.31014 0.0
H700 H 0.94031 0.15756 0.27452 0.0
H701 H 0.98597 0.18373 0.59498 0.0
H702 H 0.96211 0.17241 0.65421 0.0
H703 H 0.95784 0.19831 0.59431 0.0
C704 C 0.30668 0.02654 0.39125 0.0
C705 C 0.28536 0.0172 0.3636 0.0
C706 C 0.32342 0.01184 0.4267 0.0
C707 C 0.31851 0.98726 0.43543 0.0
C708 C 0.29588 0.97833 0.4159 0.0
C709 C 0.27956 0.99342 0.37953 0.0
C710 C 0.3472 0.02224 0.44839 0.0
C711 C 0.28946 0.95251 0.42678 0.0
C712 C 0.37544 0.95418 0.40506 0.0
C713 C 0.38477 0.95449 0.47955 0.0
C714 C 0.35262 0.96279 0.39028 0.0
C715 C 0.3385 0.97095 0.45203 0.0
C716 C 0.34626 0.96754 0.52823 0.0
C717 C 0.36957 0.95975 0.54135 0.0
C718 C 0.34468 0.96547 0.30798 0.0
C719 C 0.33049 0.97381 0.59523 0.0
H720 H 0.31089 0.04507 0.38069 0.0
H721 H 0.26304 0.98606 0.35852 0.0
H722 H 0.35146 0.01777 0.50879 0.0
H723 H 0.36132 0.01448 0.4117 0.0
H724 H 0.34766 0.04187 0.44168 0.0
H725 H 0.27023 0.95059 0.43978 0.0
H726 H 0.29304 0.94278 0.37275 0.0
H727 H 0.29981 0.94402 0.47346 0.0
H728 H 0.38661 0.9489 0.35738 0.0
H729 H 0.37629 0.95958 0.59953 0.0
H730 H 0.34391 0.98462 0.29262 0.0
H731 H 0.32661 0.95804 0.30061 0.0
H732 H 0.35688 0.95647 0.26724 0.0
H733 H 0.32747 0.99327 0.59649 0.0
H734 H 0.33825 0.96809 0.65086 0.0
H735 H 0.31287 0.96527 0.58854 0.0
C736 C 0.50727 0.27861 0.36116 0.0
C737 C 0.48279 0.28215 0.35185 0.0
C738 C 0.52148 0.29611 0.39475 0.0
C739 C 0.51084 0.3175 0.41928 0.0
C740 C 0.48582 0.32003 0.41748 0.0
C741 C 0.47206 0.3023 0.38331 0.0
C742 C 0.54803 0.29256 0.39681 0.0
C743 C 0.47379 0.34241 0.44508 0.0
C744 C 0.54041 0.36791 0.52425 0.0
C745 C 0.54322 0.38441 0.4642 0.0
C746 C 0.53184 0.34497 0.50985 0.0
C747 C 0.52561 0.33872 0.43412 0.0
C748 C 0.53066 0.35445 0.37263 0.0
C749 C 0.53963 0.37705 0.38844 0.0
C750 C 0.52779 0.32812 0.57616 0.0
C751 C 0.52481 0.34817 0.2906 0.0
H752 H 0.51567 0.26307 0.33653 0.0
H753 H 0.45309 0.30484 0.37698 0.0
H754 H 0.55612 0.3011 0.34555 0.0
H755 H 0.55599 0.30081 0.44838 0.0
H756 H 0.55274 0.27339 0.39597 0.0
H757 H 0.45418 0.34043 0.44794 0.0
H758 H 0.4804 0.34735 0.50275 0.0
H759 H 0.47804 0.35727 0.40531 0.0
H760 H 0.54341 0.37334 0.583 0.0
H761 H 0.54263 0.38944 0.34161 0.0
H762 H 0.53207 0.30957 0.55994 0.0
H763 H 0.50879 0.32859 0.59296 0.0
H764 H 0.53866 0.33303 0.62675 0.0
H765 H 0.53214 0.33047 0.27598 0.0
H766 H 0.5319 0.36143 0.24906 0.0
H767 H 0.50525 0.34725 0.28364 0.0
C768 C 0.19106 0.48621 0.32433 0.0
C769 C 0.21325 0.48104 0.35683 0.0
C770 C 0.17397 0.49918 0.36462 0.0
C771 C 0.17941 0.5079 0.4385 0.0
C772 C 0.20141 0.50229 0.47288 0.0
C773 C 0.21798 0.48863 0.43202 0.0
C774 C 0.15035 0.50419 0.32681 0.0
C775 C 0.20789 0.51158 0.55121 0.0
C776 C 0.14021 0.56054 0.48103 0.0
C777 C 0.12221 0.54963 0.52362 0.0
C778 C 0.16045 0.54764 0.45957 0.0
C779 C 0.1619 0.52314 0.47829 0.0
C780 C 0.1443 0.51253 0.52518 0.0
C781 C 0.12483 0.5261 0.54852 0.0
C782 C 0.17933 0.5597 0.41177 0.0
C783 C 0.14456 0.48628 0.54352 0.0
H784 H 0.18725 0.48105 0.26586 0.0
H785 H 0.23486 0.48445 0.45838 0.0
H786 H 0.13556 0.49922 0.36585 0.0
H787 H 0.14873 0.52347 0.31453 0.0
H788 H 0.14819 0.49438 0.2721 0.0
H789 H 0.22414 0.503 0.57429 0.0
H790 H 0.21105 0.53101 0.54725 0.0
H791 H 0.19313 0.50882 0.59249 0.0
H792 H 0.13795 0.57874 0.46177 0.0
H793 H 0.11059 0.51771 0.58078 0.0
H794 H 0.17769 0.554 0.35117 0.0
H795 H 0.19729 0.55454 0.43188 0.0
H796 H 0.17773 0.57936 0.41372 0.0
H797 H 0.13915 0.47622 0.49181 0.0
H798 H 0.1321 0.48173 0.59087 0.0
H799 H 0.16264 0.48024 0.55934 0.0
C800 C 0.0626 0.8066 0.12091 0.0
C801 C 0.07689 0.78634 0.11728 0.0
C802 C 0.06788 0.82675 0.07723 0.0
C803 C 0.08785 0.82652 0.0277 0.0
C804 C 0.10242 0.80605 0.02357 0.0
C805 C 0.09688 0.78614 0.06933 0.0
C806 C 0.05205 0.84833 0.08452 0.0
C807 C 0.12355 0.8051 0.97031 0.0
C808 C 0.07797 0.87555 0.88538 0.0
C809 C 0.08854 0.89461 0.92407 0.0
C810 C 0.08025 0.85226 0.91309 0.0
C811 C 0.09305 0.84812 0.98163 0.0
C812 C 0.10612 0.86683 0.01529 0.0
C813 C 0.10384 0.88988 0.98564 0.0
C814 C 0.06654 0.83268 0.87427 0.0
C815 C 0.12007 0.86319 0.08823 0.0
H816 H 0.04733 0.80674 0.159 0.0
H817 H 0.10786 0.77035 0.06683 0.0
H818 H 0.0627 0.86399 0.10191 0.0
H819 H 0.04385 0.85255 0.02829 0.0
H820 H 0.03762 0.8457 0.12728 0.0
H821 H 0.13363 0.78824 0.97627 0.0
H822 H 0.11749 0.80687 0.91003 0.0
H823 H 0.13568 0.82019 0.98163 0.0
H824 H 0.0662 0.87895 0.83748 0.0
H825 H 0.11265 0.90448 0.01428 0.0
H826 H 0.04951 0.82984 0.90513 0.0
H827 H 0.07655 0.81572 0.87568 0.0
H828 H 0.06242 0.83726 0.81366 0.0
H829 H 0.10762 0.86271 0.13767 0.0
H830 H 0.13297 0.87781 0.09772 0.0
H831 H 0.12979 0.84607 0.08736 0.0
C832 C 0.72244 0.10642 0.13466 0.0
C833 C 0.72182 0.09547 0.20702 0.0
C834 C 0.70197 0.10759 0.08898 0.0
C835 C 0.68068 0.09706 0.1159 0.0
C836 C 0.67963 0.08743 0.19101 0.0
C837 C 0.70019 0.0869 0.23582 0.0
C838 C 0.70357 0.1186 0.01006 0.0
C839 C 0.65736 0.07578 0.22172 0.0
C840 C 0.62029 0.10223 0.02191 0.0
C841 C 0.61897 0.08053 0.98273 0.0
C842 C 0.64096 0.10874 0.06153 0.0
C843 C 0.66051 0.09299 0.06291 0.0
C844 C 0.65975 0.07172 0.01989 0.0
C845 C 0.63908 0.06589 0.97975 0.0
C846 C 0.64134 0.13182 0.10529 0.0
C847 C 0.68023 0.05439 0.01992 0.0
H848 H 0.73915 0.11314 0.11252 0.0
H849 H 0.69972 0.07808 0.29125 0.0
H850 H 0.70435 0.10435 0.96636 0.0
H851 H 0.68763 0.12955 0.99783 0.0
H852 H 0.71965 0.12987 1.00361 0.0
H853 H 0.65884 0.07123 0.28361 0.0
H854 H 0.64181 0.08759 0.21371 0.0
H855 H 0.65388 0.0592 0.1894 0.0
H856 H 0.60483 0.11365 0.02471 0.0
H857 H 0.63839 0.04941 0.94786 0.0
H858 H 0.65848 0.14117 0.09649 0.0
H859 H 0.63955 0.12808 0.16758 0.0
H860 H 0.62664 0.14382 0.08782 0.0
H861 H 0.69693 0.06354 1.00354 0.0
H862 H 0.67733 0.03935 0.97991 0.0
H863 H 0.68269 0.04707 0.07859 0.0
C864 C 0.40048 0.71513 0.17742 0.0
C865 C 0.41939 0.73059 0.16131 0.0
C866 C 0.39838 0.69335 0.139 0.0
C867 C 0.41574 0.68691 0.08406 0.0
C868 C 0.43349 0.70344 0.06248 0.0
C869 C 0.43506 0.7251 0.10126 0.0
C870 C 0.37885 0.67642 0.1622 0.0
C871 C 0.4524 0.69729 0.00426 0.0
C872 C 0.43758 0.62352 0.07662 0.0
C873 C 0.4287 0.61578 0.00596 0.0
C874 C 0.43253 0.64629 0.10405 0.0
C875 C 0.4182 0.66178 0.05974 0.0
C876 C 0.40833 0.65378 0.98986 0.0
C877 C 0.41383 0.63086 0.96347 0.0
C878 C 0.44355 0.65413 0.17879 0.0
C879 C 0.39273 0.66969 0.9417 0.0
H880 H 0.38812 0.71945 0.22304 0.0
H881 H 0.44987 0.73681 0.08884 0.0
H882 H 0.37142 0.66729 0.11133 0.0
H883 H 0.38621 0.66258 0.20094 0.0
H884 H 0.36426 0.68568 0.19291 0.0
H885 H 0.46282 0.71312 0.98618 0.0
H886 H 0.4648 0.6841 0.02961 0.0
H887 H 0.44441 0.68911 0.95265 0.0
H888 H 0.44937 0.61211 0.1092 0.0
H889 H 0.40673 0.62485 0.90916 0.0
H890 H 0.42967 0.66096 0.21821 0.0
H891 H 0.45623 0.66885 0.16776 0.0
H892 H 0.45319 0.6395 0.20821 0.0
H893 H 0.37917 0.67855 0.97793 0.0
H894 H 0.38362 0.65974 0.89542 0.0
H895 H 0.4037 0.68385 0.91485 0.0
C896 C 0.81281 0.42499 0.25017 0.0
C897 C 0.79126 0.41641 0.22138 0.0
C898 C 0.8335 0.42445 0.20561 0.0
C899 C 0.83265 0.41482 0.13078 0.0
C900 C 0.81138 0.40446 0.10365 0.0
C901 C 0.79079 0.40562 0.14907 0.0
C902 C 0.85573 0.43596 0.23641 0.0
C903 C 0.80998 0.39349 0.02495 0.0
C904 C 0.87532 0.44431 0.9923 0.0
C905 C 0.89496 0.42904 0.99575 0.0
C906 C 0.85456 0.43937 0.03372 0.0
C907 C 0.85318 0.41835 0.07841 0.0
C908 C 0.87231 0.40209 0.07831 0.0
C909 C 0.8931 0.40773 0.03756 0.0
C910 C 0.83456 0.45726 0.03262 0.0
C911 C 0.87126 0.37927 0.12403 0.0
H912 H 0.81316 0.43371 0.30552 0.0
H913 H 0.77412 0.39893 0.12693 0.0
H914 H 0.87121 0.424 0.22936 0.0
H915 H 0.85951 0.45245 0.20342 0.0
H916 H 0.85404 0.44063 0.29804 0.0
H917 H 0.79359 0.38275 0.01774 0.0
H918 H 0.81006 0.40773 0.98077 0.0
H919 H 0.82564 0.382 0.01413 0.0
H920 H 0.87636 0.46048 0.95848 0.0
H921 H 0.9082 0.39586 0.04101 0.0
H922 H 0.83204 0.46469 0.09097 0.0
H923 H 0.8177 0.44854 0.01611 0.0
H924 H 0.83802 0.47218 0.99216 0.0
H925 H 0.87244 0.38333 0.18613 0.0
H926 H 0.88598 0.367 0.10892 0.0
H927 H 0.85411 0.37006 0.11447 0.0
C928 C 0.03733 0.18568 0.8794 0.0
C929 C 0.01752 0.20009 0.89546 0.0
C930 C 0.03479 0.16246 0.85065 0.0
C931 C 0.01185 0.15296 0.83817 0.0
C932 C 0.99176 0.16751 0.85232 0.0
C933 C 0.9948 0.19078 0.88075 0.0
C934 C 0.05674 0.14788 0.83488 0.0
C935 C 0.96699 0.1583 0.83864 0.0
C936 C 0.0064 0.09725 0.71291 0.0
C937 C 0.00596 0.07903 0.7681 0.0
C938 C 0.00812 0.12133 0.73451 0.0
C939 C 0.00895 0.12753 0.8134 0.0
C940 C 0.00784 0.10917 0.86926 0.0
C941 C 0.00659 0.08526 0.84603 0.0
C942 C 0.01015 0.13984 0.67213 0.0
C943 C 0.00836 0.11475 0.95389 0.0
H944 H 0.055 0.19225 0.89147 0.0
H945 H 0.97931 0.20167 0.89161 0.0
H946 H 0.0569 0.13195 0.8726 0.0
H947 H 0.05656 0.14154 0.77467 0.0
H948 H 0.07334 0.15807 0.84447 0.0
H949 H 0.95335 0.17242 0.84483 0.0
H950 H 0.96565 0.15059 0.78031 0.0
H951 H 0.96301 0.14388 0.88031 0.0
H952 H 0.00613 0.09269 0.65254 0.0
H953 H 0.00608 0.07136 0.88926 0.0
H954 H 0.02913 0.14207 0.65661 0.0
H955 H 1.00327 0.15733 0.69072 0.0
H956 H 1.00052 0.1342 0.61976 0.0
H957 H 0.02541 0.12347 0.96856 0.0
H958 H 0.00633 0.0986 0.99016 0.0
H959 H 0.99392 0.12738 0.96836 0.0
C960 C 0.32196 1.00121 0.8821 0.0
C961 C 0.3129 0.02411 0.8956 0.0
C962 C 0.34519 0.99779 0.85362 0.0
C963 C 0.35994 0.01769 0.83818 0.0
C964 C 0.35068 0.04081 0.84934 0.0
C965 C 0.32747 0.04373 0.87812 0.0
C966 C 0.35415 0.97285 0.8411 0.0
C967 C 0.36551 0.06255 0.83238 0.0
C968 C 0.42743 0.01163 0.84742 0.0
C969 C 0.43386 0.01024 0.76968 0.0
C970 C 0.40351 0.01341 0.87021 0.0
C971 C 0.38538 0.01438 0.81401 0.0
C972 C 0.39179 0.0129 0.7353 0.0
C973 C 0.41587 0.01056 0.71418 0.0
C974 C 0.39765 0.01457 0.9547 0.0
C975 C 0.37346 0.01486 0.67277 0.0
H976 H 0.3109 0.98588 0.89404 0.0
H977 H 0.32105 0.06152 0.88922 0.0
H978 H 0.36084 0.97093 0.7815 0.0
H979 H 0.36925 0.96924 0.88022 0.0
H980 H 0.34017 0.95928 0.85148 0.0
H981 H 0.35539 0.0793 0.84027 0.0
H982 H 0.38119 0.06287 0.87073 0.0
H983 H 0.3722 0.06192 0.77249 0.0
H984 H 0.44118 0.01119 0.89082 0.0
H985 H 0.42065 0.00973 0.65395 0.0
H986 H 0.38484 1.00035 0.97009 0.0
H987 H 0.38907 0.03182 0.96797 0.0
H988 H 0.41365 0.01263 0.99133 0.0
H989 H 0.35634 0.00688 0.69058 0.0
H990 H 0.37963 0.00624 0.6191 0.0
H991 H 0.37025 0.03391 0.66001 0.0
C992 C 0.46636 0.3262 0.8815 0.0
C993 C 0.48588 0.31182 0.90098 0.0
C994 C 0.46934 0.34978 0.85576 0.0
C995 C 0.49243 0.35956 0.84941 0.0
C996 C 0.51228 0.34508 0.86756 0.0
C997 C 0.50878 0.32149 0.89309 0.0
C998 C 0.44764 0.36443 0.83712 0.0
C999 C 0.53722 0.35467 0.86126 0.0
C1000 C 0.50083 0.41612 0.72885 0.0
C1001 C 0.50039 0.43394 0.78496 0.0
C1002 C 0.49823 0.39193 0.74883 0.0
C1003 C 0.49566 0.38521 0.82696 0.0
C1004 C 0.49555 0.40313 0.88385 0.0
C1005 C 0.49774 0.42718 0.86221 0.0
C1006 C 0.49813 0.37355 0.68626 0.0
C1007 C 0.49296 0.39692 0.96781 0.0
H1008 H 0.44854 0.31928 0.88859 0.0
H1009 H 0.52405 0.31061 0.90705 0.0
H1010 H 0.44631 0.37956 0.87747 0.0
H1011 H 0.44915 0.37198 0.77842 0.0
H1012 H 0.431 0.35389 0.84088 0.0
H1013 H 0.5508 0.34108 0.87579 0.0
H1014 H 0.5406 0.3612 0.80208 0.0
H1015 H 0.5394 0.37001 0.90038 0.0
H1016 H 0.50284 0.42107 0.669 0.0
H1017 H 0.49752 0.44072 0.90621 0.0
H1018 H 0.48151 0.363 0.6888 0.0
H1019 H 0.51305 0.36107 0.69541 0.0
H1020 H 0.49975 0.38158 0.62815 0.0
H1021 H 0.47575 0.38781 0.97782 0.0
H1022 H 0.49378 0.41283 0.0052 0.0
H1023 H 0.5072 0.38442 0.98528 0.0
C1024 C 0.17946 0.50291 0.96836 0.0
C1025 C 0.19828 0.4946 0.92248 0.0
C1026 C 0.15634 0.50565 0.93869 0.0
C1027 C 0.15155 0.49957 0.86142 0.0
C1028 C 0.17054 0.49194 0.81414 0.0
C1029 C 0.19358 0.48972 0.84485 0.0
C1030 C 0.13688 0.51472 0.99056 0.0
C1031 C 0.16644 0.48579 0.73117 0.0
C1032 C 0.08782 0.48073 0.81714 0.0
C1033 C 0.07849 0.50089 0.78032 0.0
C1034 C 0.11159 0.47996 0.84196 0.0
C1035 C 0.1265 0.50004 0.83152 0.0
C1036 C 0.11717 0.52046 0.7941 0.0
C1037 C 0.09342 0.5205 0.76838 0.0
C1038 C 0.12078 0.45758 0.87957 0.0
C1039 C 0.13208 0.54236 0.78061 0.0
H1040 H 0.18253 0.50656 0.02848 0.0
H1041 H 0.20791 0.48389 0.80791 0.0
H1042 H 0.12786 0.5301 0.96321 0.0
H1043 H 0.12334 0.50066 0.99939 0.0
H1044 H 0.14371 0.52026 0.04749 0.0
H1045 H 0.18276 0.4791 0.70261 0.0
H1046 H 0.15237 0.47207 0.72657 0.0
H1047 H 0.16017 0.50181 0.69995 0.0
H1048 H 0.07651 0.46539 0.82627 0.0
H1049 H 0.08628 0.53622 0.74116 0.0
H1050 H 0.12615 0.46137 0.93947 0.0
H1051 H 0.13677 0.45116 0.84863 0.0
H1052 H 0.10732 0.44315 0.88048 0.0
H1053 H 0.14575 0.54474 0.82563 0.0
H1054 H 0.12089 0.55859 0.77858 0.0
H1055 H 0.14124 0.54074 0.72442 0.0
C1056 C 0.03421 0.82616 0.51291 0.0
C1057 C 0.01425 0.8113 0.50822 0.0
C1058 C 0.03226 0.84984 0.5377 0.0
C1059 C 0.00984 0.85892 0.56018 0.0
C1060 C 0.98964 0.84388 0.55656 0.0
C1061 C 0.99203 0.82037 0.52963 0.0
C1062 C 0.05418 0.86528 0.53856 0.0
C1063 C 0.96551 0.8526 0.58146 0.0
C1064 C 0.01029 0.9149 0.68438 0.0
C1065 C 0.00482 0.93276 0.63074 0.0
C1066 C 0.01148 0.8908 0.66276 0.0
C1067 C 0.00753 0.88433 0.58522 0.0
C1068 C 1.00212 0.90232 0.53084 0.0
C1069 C 1.00063 0.92619 0.55431 0.0
C1070 C 0.01707 0.87227 0.72294 0.0
C1071 C 0.9984 0.89643 0.44729 0.0
H1072 H 0.0514 0.81933 0.49559 0.0
H1073 H 0.97658 0.80894 0.52648 0.0
H1074 H 0.05146 0.88105 0.50114 0.0
H1075 H 0.05747 0.8719 0.59742 0.0
H1076 H 0.07023 0.85565 0.51856 0.0
H1077 H 0.95178 0.83847 0.57837 0.0
H1078 H 0.96637 0.85924 0.64126 0.0
H1079 H 0.95991 0.8677 0.54463 0.0
H1080 H 0.01357 0.91972 0.74357 0.0
H1081 H 0.9966 0.9398 0.51213 0.0
H1082 H 0.0341 0.86338 0.70899 0.0
H1083 H 1.00309 0.85837 0.72349 0.0
H1084 H 0.01846 0.87998 0.78132 0.0
H1085 H 0.01455 0.88779 0.42379 0.0
H1086 H 0.9944 0.91243 0.41208 0.0
H1087 H 0.98357 0.88363 0.44125 0.0
C1088 C 0.69441 0.9917 0.55653 0.0
C1089 C 0.70003 0.00658 0.49424 0.0
C1090 C 0.67106 0.99033 0.58555 0.0
C1091 C 0.65291 1.00449 0.5525 0.0
C1092 C 0.65854 0.01958 0.48972 0.0
C1093 C 0.68191 0.02032 0.46114 0.0
C1094 C 0.6658 0.97369 0.65155 0.0
C1095 C 0.63991 0.03524 0.45327 0.0
C1096 C 0.58762 0.9877 0.57497 0.0
C1097 C 0.58001 1.00296 0.63366 0.0
C1098 C 0.61135 0.9876 0.54955 0.0
C1099 C 0.62797 1.00339 0.58266 0.0
C1100 C 0.62049 0.01864 0.64264 0.0
C1101 C 0.59668 0.01812 0.66776 0.0
C1102 C 0.61856 0.97075 0.48645 0.0
C1103 C 0.6375 0.03595 0.67904 0.0
H1104 H 0.70828 0.981 0.5823 0.0
H1105 H 0.68616 0.0322 0.41395 0.0
H1106 H 0.65893 0.98387 0.70122 0.0
H1107 H 0.65177 0.96089 0.63485 0.0
H1108 H 0.68173 0.96357 0.67006 0.0
H1109 H 0.64722 0.0463 0.40586 0.0
H1110 H 0.6253 0.02417 0.43023 0.0
H1111 H 0.63206 0.04716 0.49709 0.0
H1112 H 0.57498 0.97576 0.54854 0.0
H1113 H 0.59101 0.03003 0.71297 0.0
H1114 H 0.63391 0.95984 0.50512 0.0
H1115 H 0.62427 0.98099 0.43511 0.0
H1116 H 0.60388 0.95868 0.46962 0.0
H1117 H 0.65321 0.02639 0.70175 0.0
H1118 H 0.62916 0.04608 0.72659 0.0
H1119 H 0.644 0.04873 0.6351 0.0
C1120 C 0.4935 0.6798 0.46344 0.0
C1121 C 0.50663 0.6985 0.49538 0.0
C1122 C 0.49455 0.65667 0.49415 0.0
C1123 C 0.50929 0.65191 0.55817 0.0
C1124 C 0.52284 0.67063 0.59015 0.0
C1125 C 0.52122 0.6937 0.55879 0.0
C1126 C 0.47958 0.63739 0.45865 0.0
C1127 C 0.53905 0.66629 0.65757 0.0
C1128 C 0.49539 0.59664 0.67838 0.0
C1129 C 0.51102 0.5798 0.64721 0.0
C1130 C 0.49483 0.6202 0.65075 0.0
C1131 C 0.51052 0.62729 0.59115 0.0
C1132 C 0.52681 0.61055 0.56104 0.0
C1133 C 0.52674 0.58705 0.58895 0.0
C1134 C 0.47698 0.63733 0.68403 0.0
C1135 C 0.5441 0.61737 0.49838 0.0
H1136 H 0.48184 0.68339 0.41538 0.0
H1137 H 0.5315 0.708 0.58363 0.0
H1138 H 0.49107 0.62266 0.43864 0.0
H1139 H 0.46727 0.62991 0.5023 0.0
H1140 H 0.46899 0.64398 0.40926 0.0
H1141 H 0.54874 0.68258 0.67493 0.0
H1142 H 0.52861 0.65972 0.70736 0.0
H1143 H 0.55219 0.65232 0.64309 0.0
H1144 H 0.48313 0.59129 0.72313 0.0
H1145 H 0.53904 0.57429 0.56473 0.0
H1146 H 0.46455 0.64324 0.63851 0.0
H1147 H 0.48613 0.65339 0.70577 0.0
H1148 H 0.46652 0.6293 0.73165 0.0
H1149 H 0.53425 0.62237 0.4457 0.0
H1150 H 0.55653 0.60271 0.48417 0.0
H1151 H 0.55459 0.63311 0.516 0.0
C1152 C 0.81728 0.51763 0.57451 0.0
C1153 C 0.81176 0.5032 0.51154 0.0
C1154 C 0.84061 0.51896 0.60323 0.0
C1155 C 0.85887 0.50519 0.56914 0.0
C1156 C 0.85335 0.49052 0.50573 0.0
C1157 C 0.82998 0.48984 0.47748 0.0
C1158 C 0.84576 0.53515 0.66995 0.0
C1159 C 0.8721 0.47531 0.46814 0.0
C1160 C 0.92395 0.52265 0.59054 0.0
C1161 C 0.93185 0.50705 0.64819 0.0
C1162 C 0.9002 0.52262 0.5658 0.0
C1163 C 0.88383 0.50638 0.59862 0.0
C1164 C 0.89159 0.49078 0.65761 0.0
C1165 C 0.91543 0.4914 0.68201 0.0
C1166 C 0.8927 0.53981 0.50368 0.0
C1167 C 0.87485 0.473 0.69371 0.0
H1168 H 0.80333 0.52804 0.60103 0.0
H1169 H 0.82581 0.47829 0.42974 0.0
H1170 H 0.85285 0.52467 0.71883 0.0
H1171 H 0.85958 0.54827 0.65347 0.0
H1172 H 0.82972 0.54489 0.68953 0.0
H1173 H 0.86484 0.46444 0.42063 0.0
H1174 H 0.88652 0.48669 0.44494 0.0
H1175 H 0.88017 0.46323 0.51128 0.0
H1176 H 0.93639 0.53494 0.56429 0.0
H1177 H 0.92132 0.47924 0.72642 0.0
H1178 H 0.87724 0.5504 0.52329 0.0
H1179 H 0.88705 0.52986 0.45205 0.0
H1180 H 0.9072 0.55218 0.48695 0.0
H1181 H 0.88336 0.46268 0.74064 0.0
H1182 H 0.86849 0.46043 0.64941 0.0
H1183 H 0.85902 0.4822 0.71718 0.0
loop_
_geom_bond_atom_site_label_1
_geom_bond_atom_site_label_2
_geom_bond_distance
_geom_bond_site_symmetry_2
_ccdc_geom_bond_type
P0 O11 1.490 . S
P0 C14 1.812 . S
P0 C20 1.803 . S
P0 C26 1.819 . S
H1 C15 0.941 . S
H2 C16 0.939 . S
H3 C18 0.940 . S
H4 C19 0.940 . S
H5 C21 0.939 . S
H6 C22 0.942 . S
H7 C24 0.940 . S
H8 C25 0.939 . S
H9 C27 0.941 . S
H10 C31 0.939 . S
O11 P0 1.490 . S
H12 C28 0.939 . S
H13 C30 0.940 . S
C14 P0 1.812 . S
C14 C15 1.389 . S
C14 C19 1.391 . S
C15 H1 0.941 . S
C15 C14 1.389 . S
C15 C16 1.397 . S
C16 H2 0.939 . S
C16 C15 1.397 . S
C16 C17 1.378 . S
C17 C16 1.378 . S
C17 C18 1.378 . S
C18 H3 0.940 . S
C18 C17 1.378 . S
C18 C19 1.396 . S
C19 H4 0.940 . S
C19 C14 1.391 . S
C19 C18 1.396 . S
C20 P0 1.803 . S
C20 C21 1.378 . S
C20 C25 1.400 . S
C21 H5 0.939 . S
C21 C20 1.378 . S
C21 C22 1.361 . S
C22 H6 0.942 . S
C22 C21 1.361 . S
C22 C23 1.369 . S
C23 C22 1.369 . S
C23 C24 1.404 . S
C24 H7 0.940 . S
C24 C23 1.404 . S
C24 C25 1.389 . S
C25 H8 0.939 . S
C25 C20 1.400 . S
C25 C24 1.389 . S
C26 P0 1.819 . S
C26 C27 1.391 . S
C26 C31 1.391 . S
C27 H9 0.941 . S
C27 C26 1.391 . S
C27 C28 1.396 . S
C28 H12 0.939 . S
C28 C27 1.396 . S
C28 C29 1.397 . S
C29 C28 1.397 . S
C29 C30 1.385 . S
C30 H13 0.940 . S
C30 C29 1.385 . S
C30 C31 1.388 . S
C31 H10 0.939 . S
C31 C26 1.391 . S
C31 C30 1.388 . S
P32 O43 1.490 . S
P32 C46 1.812 . S
P32 C52 1.803 . S
P32 C58 1.819 . S
H33 C47 0.941 . S
H34 C48 0.939 . S
H35 C50 0.940 . S
H36 C51 0.950 . S
H37 C53 0.939 . S
H38 C54 0.942 . S
H39 C56 0.940 . S
H40 C57 0.959 . S
H41 C59 0.941 . S
H42 C63 0.929 1_655 S
O43 P32 1.490 . S
H44 C60 0.939 . S
H45 C62 0.940 . S
C46 P32 1.812 . S
C46 C47 1.389 . S
C46 C51 1.375 1_455 S
C47 H33 0.941 . S
C47 C46 1.389 . S
C47 C48 1.397 . S
C48 H34 0.939 . S
C48 C47 1.397 . S
C48 C49 1.378 . S
C49 C48 1.378 . S
C49 C50 1.378 1_455 S
C50 H35 0.940 . S
C50 C49 1.378 1_655 S
C50 C51 1.403 . S
C51 H36 0.950 . S
C51 C46 1.375 1_655 S
C51 C50 1.403 . S
C52 P32 1.803 . S
C52 C53 1.378 . S
C52 C57 1.368 1_455 S
C53 H37 0.939 . S
C53 C52 1.378 . S
C53 C54 1.361 . S
C54 H38 0.942 . S
C54 C53 1.361 . S
C54 C55 1.369 . S
C55 C54 1.369 . S
C55 C56 1.404 1_455 S
C56 H39 0.940 . S
C56 C55 1.404 1_655 S
C56 C57 1.402 . S
C57 H40 0.959 . S
C57 C52 1.368 1_655 S
C57 C56 1.402 . S
C58 P32 1.819 . S
C58 C59 1.391 . S
C58 C63 1.391 . S
C59 H41 0.941 . S
C59 C58 1.391 . S
C59 C60 1.396 . S
C60 H44 0.939 . S
C60 C59 1.396 . S
C60 C61 1.397 . S
C61 C60 1.397 . S
C61 C62 1.385 1_455 S
C62 H45 0.940 . S
C62 C61 1.385 1_655 S
C62 C63 1.388 1_655 S
C63 H42 0.929 1_455 S
C63 C58 1.391 . S
C63 C62 1.388 1_455 S
P64 O75 1.490 . S
P64 C78 1.812 . S
P64 C84 1.803 . S
P64 C90 1.819 . S
H65 C79 0.941 . S
H66 C80 0.939 . S
H67 C82 0.940 . S
H68 C83 0.950 . S
H69 C85 0.939 . S
H70 C86 0.942 . S
H71 C88 0.940 . S
H72 C89 0.959 . S
H73 C91 0.941 . S
H74 C95 0.929 1_565 S
O75 P64 1.490 . S
H76 C92 0.939 . S
H77 C94 0.940 . S
C78 P64 1.812 . S
C78 C79 1.389 . S
C78 C83 1.375 1_545 S
C79 H65 0.941 . S
C79 C78 1.389 . S
C79 C80 1.397 . S
C80 H66 0.939 . S
C80 C79 1.397 . S
C80 C81 1.378 . S
C81 C80 1.378 . S
C81 C82 1.378 1_545 S
C82 H67 0.940 . S
C82 C81 1.378 1_565 S
C82 C83 1.402 . S
C83 H68 0.950 . S
C83 C78 1.375 1_565 S
C83 C82 1.402 . S
C84 P64 1.803 . S
C84 C85 1.378 . S
C84 C89 1.368 1_545 S
C85 H69 0.939 . S
C85 C84 1.378 . S
C85 C86 1.361 . S
C86 H70 0.942 . S
C86 C85 1.361 . S
C86 C87 1.369 . S
C87 C86 1.369 . S
C87 C88 1.404 1_545 S
C88 H71 0.940 . S
C88 C87 1.404 1_565 S
C88 C89 1.402 . S
C89 H72 0.959 . S
C89 C84 1.368 1_565 S
C89 C88 1.402 . S
C90 P64 1.819 . S
C90 C91 1.391 . S
C90 C95 1.391 . S
C91 H73 0.941 . S
C91 C90 1.391 . S
C91 C92 1.396 . S
C92 H76 0.939 . S
C92 C91 1.396 . S
C92 C93 1.397 . S
C93 C92 1.397 . S
C93 C94 1.385 1_545 S
C94 H77 0.940 . S
C94 C93 1.385 1_565 S
C94 C95 1.388 1_565 S
C95 H74 0.929 1_545 S
C95 C90 1.391 . S
C95 C94 1.388 1_545 S
P96 O107 1.490 . S
P96 C110 1.812 . S
P96 C116 1.803 . S
P96 C122 1.819 . S
H97 C111 0.941 . S
H98 C112 0.939 . S
H99 C114 0.940 . S
H100 C115 0.940 . S
H101 C117 0.939 . S
H102 C118 0.942 . S
H103 C120 0.940 . S
H104 C121 0.939 . S
H105 C123 0.941 . S
H106 C127 0.939 . S
O107 P96 1.490 . S
H108 C124 0.939 . S
H109 C126 0.940 . S
C110 P96 1.812 . S
C110 C111 1.389 . S
C110 C115 1.391 . S
C111 H97 0.941 . S
C111 C110 1.389 . S
C111 C112 1.397 . S
C112 H98 0.939 . S
C112 C111 1.397 . S
C112 C113 1.378 . S
C113 C112 1.378 . S
C113 C114 1.378 . S
C114 H99 0.940 . S
C114 C113 1.378 . S
C114 C115 1.396 . S
C115 H100 0.940 . S
C115 C110 1.391 . S
C115 C114 1.396 . S
C116 P96 1.803 . S
C116 C117 1.378 . S
C116 C121 1.400 . S
C117 H101 0.939 . S
C117 C116 1.378 . S
C117 C118 1.361 . S
C118 H102 0.942 . S
C118 C117 1.361 . S
C118 C119 1.369 . S
C119 C118 1.369 . S
C119 C120 1.404 . S
C120 H103 0.940 . S
C120 C119 1.404 . S
C120 C121 1.389 . S
C121 H104 0.939 . S
C121 C116 1.400 . S
C121 C120 1.389 . S
C122 P96 1.819 . S
C122 C123 1.391 . S
C122 C127 1.391 . S
C123 H105 0.941 . S
C123 C122 1.391 . S
C123 C124 1.396 . S
C124 H108 0.939 . S
C124 C123 1.396 . S
C124 C125 1.397 . S
C125 C124 1.397 . S
C125 C126 1.385 . S
C126 H109 0.940 . S
C126 C125 1.385 . S
C126 C127 1.388 . S
C127 H106 0.939 . S
C127 C122 1.391 . S
C127 C126 1.388 . S
P128 O139 1.490 . S
P128 C142 1.812 1_554 S
P128 C148 1.803 . S
P128 C154 1.819 . S
H129 C143 0.941 . S
H130 C144 0.939 . S
H131 C146 0.940 . S
H132 C147 0.940 1_554 S
H133 C149 0.939 . S
H134 C150 0.942 . S
H135 C152 0.940 . S
H136 C153 0.939 . S
H137 C155 0.941 . S
H138 C159 0.939 . S
O139 P128 1.490 . S
H140 C156 0.939 . S
H141 C158 0.940 . S
C142 P128 1.812 1_556 S
C142 C143 1.389 . S
C142 C147 1.391 . S
C143 H129 0.941 . S
C143 C142 1.389 . S
C143 C144 1.397 . S
C144 H130 0.939 . S
C144 C143 1.397 . S
C144 C145 1.378 . S
C145 C144 1.378 . S
C145 C146 1.378 . S
C146 H131 0.940 . S
C146 C145 1.378 . S
C146 C147 1.396 . S
C147 H132 0.940 1_556 S
C147 C142 1.391 . S
C147 C146 1.396 . S
C148 P128 1.803 . S
C148 C149 1.378 . S
C148 C153 1.400 . S
C149 H133 0.939 . S
C149 C148 1.378 . S
C149 C150 1.361 . S
C150 H134 0.942 . S
C150 C149 1.361 . S
C150 C151 1.369 . S
C151 C150 1.369 . S
C151 C152 1.404 . S
C152 H135 0.940 . S
C152 C151 1.404 . S
C152 C153 1.389 . S
C153 H136 0.939 . S
C153 C148 1.400 . S
C153 C152 1.389 . S
C154 P128 1.819 . S
C154 C155 1.391 . S
C154 C159 1.391 . S
C155 H137 0.941 . S
C155 C154 1.391 . S
C155 C156 1.396 . S
C156 H140 0.939 . S
C156 C155 1.396 . S
C156 C157 1.397 . S
C157 C156 1.397 . S
C157 C158 1.385 . S
C158 H141 0.940 . S
C158 C157 1.385 . S
C158 C159 1.388 . S
C159 H138 0.939 . S
C159 C154 1.391 . S
C159 C158 1.388 . S
P160 O171 1.490 . S
P160 C174 1.812 1_554 S
P160 C180 1.803 . S
P160 C186 1.819 . S
H161 C175 0.941 . S
H162 C176 0.939 . S
H163 C178 0.940 . S
H164 C179 0.944 1_554 S
H165 C181 0.939 . S
H166 C182 0.942 . S
H167 C184 0.940 . S
H168 C185 0.953 . S
H169 C187 0.941 . S
H170 C191 0.933 1_655 S
O171 P160 1.490 . S
H172 C188 0.939 . S
H173 C190 0.940 . S
C174 P160 1.812 1_556 S
C174 C175 1.389 . S
C174 C179 1.385 1_455 S
C175 H161 0.941 . S
C175 C174 1.389 . S
C175 C176 1.397 . S
C176 H162 0.939 . S
C176 C175 1.397 . S
C176 C177 1.378 . S
C177 C176 1.378 . S
C177 C178 1.378 1_455 S
C178 H163 0.940 . S
C178 C177 1.378 1_655 S
C178 C179 1.399 . S
C179 H164 0.944 1_556 S
C179 C174 1.385 1_655 S
C179 C178 1.399 . S
C180 P160 1.803 . S
C180 C181 1.378 . S
C180 C185 1.379 1_455 S
C181 H165 0.939 . S
C181 C180 1.378 . S
C181 C182 1.361 . S
C182 H166 0.942 . S
C182 C181 1.361 . S
C182 C183 1.369 . S
C183 C182 1.369 . S
C183 C184 1.404 1_455 S
C184 H167 0.940 . S
C184 C183 1.404 1_655 S
C184 C185 1.398 . S
C185 H168 0.953 . S
C185 C180 1.379 1_655 S
C185 C184 1.398 . S
C186 P160 1.819 . S
C186 C187 1.391 . S
C186 C191 1.391 . S
C187 H169 0.941 . S
C187 C186 1.391 . S
C187 C188 1.396 . S
C188 H172 0.939 . S
C188 C187 1.396 . S
C188 C189 1.397 . S
C189 C188 1.397 . S
C189 C190 1.385 1_455 S
C190 H173 0.940 . S
C190 C189 1.385 1_655 S
C190 C191 1.388 1_655 S
C191 H170 0.933 1_455 S
C191 C186 1.391 . S
C191 C190 1.388 1_455 S
P192 O203 1.490 . S
P192 C206 1.812 1_554 S
P192 C212 1.803 . S
P192 C218 1.819 . S
H193 C207 0.941 . S
H194 C208 0.939 . S
H195 C210 0.940 . S
H196 C211 0.944 1_554 S
H197 C213 0.939 . S
H198 C214 0.942 . S
H199 C216 0.940 . S
H200 C217 0.953 . S
H201 C219 0.941 . S
H202 C223 0.933 1_565 S
O203 P192 1.490 . S
H204 C220 0.939 . S
H205 C222 0.940 . S
C206 P192 1.812 1_556 S
C206 C207 1.389 . S
C206 C211 1.385 1_545 S
C207 H193 0.941 . S
C207 C206 1.389 . S
C207 C208 1.397 . S
C208 H194 0.939 . S
C208 C207 1.397 . S
C208 C209 1.378 . S
C209 C208 1.378 . S
C209 C210 1.378 1_545 S
C210 H195 0.940 . S
C210 C209 1.378 1_565 S
C210 C211 1.399 . S
C211 H196 0.944 1_556 S
C211 C206 1.385 1_565 S
C211 C210 1.399 . S
C212 P192 1.803 . S
C212 C213 1.378 . S
C212 C217 1.379 1_545 S
C213 H197 0.939 . S
C213 C212 1.378 . S
C213 C214 1.361 . S
C214 H198 0.942 . S
C214 C213 1.361 . S
C214 C215 1.369 . S
C215 C214 1.369 . S
C215 C216 1.404 1_545 S
C216 H199 0.940 . S
C216 C215 1.404 1_565 S
C216 C217 1.397 . S
C217 H200 0.953 . S
C217 C212 1.379 1_565 S
C217 C216 1.397 . S
C218 P192 1.819 . S
C218 C219 1.391 . S
C218 C223 1.391 . S
C219 H201 0.941 . S
C219 C218 1.391 . S
C219 C220 1.396 . S
C220 H204 0.939 . S
C220 C219 1.396 . S
C220 C221 1.397 . S
C221 C220 1.397 . S
C221 C222 1.385 1_545 S
C222 H205 0.940 . S
C222 C221 1.385 1_565 S
C222 C223 1.388 1_565 S
C223 H202 0.933 1_545 S
C223 C218 1.391 . S
C223 C222 1.388 1_545 S
P224 O235 1.490 . S
P224 C238 1.812 1_554 S
P224 C244 1.803 . S
P224 C250 1.819 . S
H225 C239 0.941 . S
H226 C240 0.939 . S
H227 C242 0.940 . S
H228 C243 0.927 1_554 S
H229 C245 0.939 . S
H230 C246 0.942 . S
H231 C248 0.940 . S
H232 C249 0.939 . S
H233 C251 0.941 . S
H234 C255 0.939 . S
O235 P224 1.490 . S
H236 C252 0.939 . S
H237 C254 0.940 . S
C238 P224 1.812 1_556 S
C238 C239 1.389 . S
C238 C243 1.391 . S
C239 H225 0.941 . S
C239 C238 1.389 . S
C239 C240 1.397 . S
C240 H226 0.939 . S
C240 C239 1.397 . S
C240 C241 1.378 . S
C241 C240 1.378 . S
C241 C242 1.378 . S
C242 H227 0.940 . S
C242 C241 1.378 . S
C242 C243 1.396 . S
C243 H228 0.927 1_556 S
C243 C238 1.391 . S
C243 C242 1.396 . S
C244 P224 1.803 . S
C244 C245 1.378 . S
C244 C249 1.400 . S
C245 H229 0.939 . S
C245 C244 1.378 . S
C245 C246 1.361 . S
C246 H230 0.942 . S
C246 C245 1.361 . S
C246 C247 1.369 . S
C247 C246 1.369 . S
C247 C248 1.404 . S
C248 H231 0.940 . S
C248 C247 1.404 . S
C248 C249 1.389 . S
C249 H232 0.939 . S
C249 C244 1.400 . S
C249 C248 1.389 . S
C250 P224 1.819 . S
C250 C251 1.391 . S
C250 C255 1.391 . S
C251 H233 0.941 . S
C251 C250 1.391 . S
C251 C252 1.396 . S
C252 H236 0.939 . S
C252 C251 1.396 . S
C252 C253 1.397 . S
C253 C252 1.397 . S
C253 C254 1.385 . S
C254 H237 0.940 . S
C254 C253 1.385 . S
C254 C255 1.388 . S
C255 H234 0.939 . S
C255 C250 1.391 . S
C255 C254 1.388 . S
Tb256 C258 2.809 . S
Tb256 O276 2.484 . S
Tb256 O277 2.440 . S
Tb256 O278 2.658 1_565 S
Tb256 O279 2.409 . S
Tb256 O280 2.378 . S
Tb256 O284 2.325 1_455 S
Tb256 O287 2.341 1_565 S
Tb257 C267 2.809 . S
Tb257 O278 2.325 1_655 S
Tb257 O281 2.341 1_545 S
Tb257 O282 2.484 . S
Tb257 O283 2.440 . S
Tb257 O284 2.658 1_545 S
Tb257 O285 2.409 . S
Tb257 O286 2.378 . S
C258 Tb256 2.809 . S
C258 C259 1.514 . S
C258 O276 1.248 . S
C258 O277 1.266 . S
C259 C258 1.514 . S
C259 C260 1.359 . S
C259 C264 1.348 . S
C260 C259 1.359 . S
C260 C261 1.380 . S
C260 H288 0.929 1_455 S
C261 C260 1.380 . S
C261 C262 1.347 . S
C261 H289 0.931 1_455 S
C262 C261 1.347 . S
C262 C263 1.369 . S
C263 C262 1.369 . S
C263 C264 1.408 . S
C263 H290 0.930 . S
C264 C259 1.348 . S
C264 C263 1.408 . S
C264 H291 0.930 . S
C265 O278 1.281 1_565 S
C265 O279 1.254 . S
C266 O280 1.236 1_655 S
C266 O281 1.266 . S
C267 Tb257 2.809 . S
C267 C268 1.514 . S
C267 O282 1.248 . S
C267 O283 1.266 . S
C268 C267 1.514 . S
C268 C269 1.359 . S
C268 C273 1.348 . S
C269 C268 1.359 . S
C269 C270 1.380 . S
C269 H292 0.929 1_655 S
C270 C269 1.380 . S
C270 C271 1.347 . S
C270 H293 0.931 1_655 S
C271 C270 1.347 . S
C271 C272 1.369 . S
C272 C271 1.369 . S
C272 C273 1.408 . S
C272 H294 0.930 . S
C273 C268 1.348 . S
C273 C272 1.408 . S
C273 H295 0.930 . S
C274 O284 1.281 1_545 S
C274 O285 1.254 . S
C275 O286 1.236 1_455 S
C275 O287 1.266 . S
O276 Tb256 2.484 . S
O276 C258 1.248 . S
O277 Tb256 2.440 . S
O277 C258 1.266 . S
O278 Tb256 2.658 1_545 S
O278 Tb257 2.325 1_455 S
O278 C265 1.281 1_545 S
O279 Tb256 2.409 . S
O279 C265 1.254 . S
O280 Tb256 2.378 . S
O280 C266 1.236 1_455 S
O281 Tb257 2.341 1_565 S
O281 C266 1.266 . S
O282 Tb257 2.484 . S
O282 C267 1.248 . S
O283 Tb257 2.440 . S
O283 C267 1.266 . S
O284 Tb256 2.325 1_655 S
O284 Tb257 2.658 1_565 S
O284 C274 1.281 1_565 S
O285 Tb257 2.409 . S
O285 C274 1.254 . S
O286 Tb257 2.378 . S
O286 C275 1.236 1_655 S
O287 Tb256 2.341 1_545 S
O287 C275 1.266 . S
H288 C260 0.929 1_655 S
H289 C261 0.931 1_655 S
H290 C263 0.930 . S
H291 C264 0.930 . S
H292 C269 0.929 1_455 S
H293 C270 0.931 1_455 S
H294 C272 0.930 . S
H295 C273 0.930 . S
Tb296 C298 2.809 . S
Tb296 O316 2.484 . S
Tb296 O317 2.440 . S
Tb296 O318 2.658 . S
Tb296 O319 2.409 . S
Tb296 O320 2.378 . S
Tb296 O324 2.325 1_545 S
Tb296 O327 2.341 . S
Tb297 C307 2.809 . S
Tb297 O318 2.325 1_565 S
Tb297 O321 2.341 . S
Tb297 O322 2.484 . S
Tb297 O323 2.440 . S
Tb297 O324 2.658 . S
Tb297 O325 2.409 . S
Tb297 O326 2.378 . S
C298 Tb296 2.809 . S
C298 C299 1.514 . S
C298 O316 1.248 . S
C298 O317 1.266 . S
C299 C298 1.514 . S
C299 C300 1.359 . S
C299 C304 1.348 . S
C300 C299 1.359 . S
C300 C301 1.380 . S
C300 H328 0.929 1_545 S
C301 C300 1.380 . S
C301 C302 1.347 . S
C301 H329 0.931 1_545 S
C302 C301 1.347 . S
C302 C303 1.369 . S
C303 C302 1.369 . S
C303 C304 1.408 . S
C303 H330 0.930 . S
C304 C299 1.348 . S
C304 C303 1.408 . S
C304 H331 0.930 . S
C305 O318 1.281 . S
C305 O319 1.254 . S
C306 O320 1.236 1_565 S
C306 O321 1.266 . S
C307 Tb297 2.809 . S
C307 C308 1.514 . S
C307 O322 1.248 . S
C307 O323 1.266 . S
C308 C307 1.514 . S
C308 C309 1.359 . S
C308 C313 1.348 . S
C309 C308 1.359 . S
C309 C310 1.380 . S
C309 H332 0.929 1_565 S
C310 C309 1.380 . S
C310 C311 1.347 . S
C310 H333 0.931 1_565 S
C311 C310 1.347 . S
C311 C312 1.369 . S
C312 C311 1.369 . S
C312 C313 1.408 . S
C312 H334 0.930 . S
C313 C308 1.348 . S
C313 C312 1.408 . S
C313 H335 0.930 . S
C314 O324 1.281 . S
C314 O325 1.254 . S
C315 O326 1.236 1_545 S
C315 O327 1.266 . S
O316 Tb296 2.484 . S
O316 C298 1.248 . S
O317 Tb296 2.440 . S
O317 C298 1.266 . S
O318 Tb296 2.658 . S
O318 Tb297 2.325 1_545 S
O318 C305 1.281 . S
O319 Tb296 2.409 . S
O319 C305 1.254 . S
O320 Tb296 2.378 . S
O320 C306 1.236 1_545 S
O321 Tb297 2.341 . S
O321 C306 1.266 . S
O322 Tb297 2.484 . S
O322 C307 1.248 . S
O323 Tb297 2.440 . S
O323 C307 1.266 . S
O324 Tb296 2.325 1_565 S
O324 Tb297 2.658 . S
O324 C314 1.281 . S
O325 Tb297 2.409 . S
O325 C314 1.254 . S
O326 Tb297 2.378 . S
O326 C315 1.236 1_565 S
O327 Tb296 2.341 . S
O327 C315 1.266 . S
H328 C300 0.929 1_565 S
H329 C301 0.931 1_565 S
H330 C303 0.930 . S
H331 C304 0.930 . S
H332 C309 0.929 1_545 S
H333 C310 0.931 1_545 S
H334 C312 0.930 . S
H335 C313 0.930 . S
Tb336 C338 2.809 . S
Tb336 O356 2.484 . S
Tb336 O357 2.440 . S
Tb336 O358 2.658 . S
Tb336 O359 2.409 . S
Tb336 O360 2.378 . S
Tb336 O364 2.325 . S
Tb336 O367 2.341 . S
Tb337 C347 2.809 . S
Tb337 O358 2.325 . S
Tb337 O361 2.341 . S
Tb337 O362 2.484 . S
Tb337 O363 2.440 . S
Tb337 O364 2.658 . S
Tb337 O365 2.409 . S
Tb337 O366 2.378 . S
C338 Tb336 2.809 . S
C338 C339 1.514 . S
C338 O356 1.248 . S
C338 O357 1.266 . S
C339 C338 1.514 . S
C339 C340 1.359 . S
C339 C344 1.348 . S
C340 C339 1.359 . S
C340 C341 1.380 . S
C340 H368 0.929 . S
C341 C340 1.380 . S
C341 C342 1.347 . S
C341 H369 0.931 . S
C342 C341 1.347 . S
C342 C343 1.369 . S
C343 C342 1.369 . S
C343 C344 1.408 . S
C343 H370 0.930 . S
C344 C339 1.348 . S
C344 C343 1.408 . S
C344 H371 0.930 . S
C345 O358 1.281 . S
C345 O359 1.254 . S
C346 O360 1.236 . S
C346 O361 1.266 . S
C347 Tb337 2.809 . S
C347 C348 1.514 . S
C347 O362 1.248 . S
C347 O363 1.266 . S
C348 C347 1.514 . S
C348 C349 1.359 . S
C348 C353 1.348 . S
C349 C348 1.359 . S
C349 C350 1.380 . S
C349 H372 0.929 . S
C350 C349 1.380 . S
C350 C351 1.347 . S
C350 H373 0.931 . S
C351 C350 1.347 . S
C351 C352 1.369 . S
C352 C351 1.369 . S
C352 C353 1.408 . S
C352 H374 0.930 . S
C353 C348 1.348 . S
C353 C352 1.408 . S
C353 H375 0.930 . S
C354 O364 1.281 . S
C354 O365 1.254 . S
C355 O366 1.236 . S
C355 O367 1.266 . S
O356 Tb336 2.484 . S
O356 C338 1.248 . S
O357 Tb336 2.440 . S
O357 C338 1.266 . S
O358 Tb336 2.658 . S
O358 Tb337 2.325 . S
O358 C345 1.281 . S
O359 Tb336 2.409 . S
O359 C345 1.254 . S
O360 Tb336 2.378 . S
O360 C346 1.236 . S
O361 Tb337 2.341 . S
O361 C346 1.266 . S
O362 Tb337 2.484 . S
O362 C347 1.248 . S
O363 Tb337 2.440 . S
O363 C347 1.266 . S
O364 Tb336 2.325 . S
O364 Tb337 2.658 . S
O364 C354 1.281 . S
O365 Tb337 2.409 . S
O365 C354 1.254 . S
O366 Tb337 2.378 . S
O366 C355 1.236 . S
O367 Tb336 2.341 . S
O367 C355 1.266 . S
H368 C340 0.929 . S
H369 C341 0.931 . S
H370 C343 0.930 . S
H371 C344 0.930 . S
H372 C349 0.929 . S
H373 C350 0.931 . S
H374 C352 0.930 . S
H375 C353 0.930 . S
Tb376 C378 2.809 . S
Tb376 O396 2.484 . S
Tb376 O397 2.440 . S
Tb376 O398 2.658 1_655 S
Tb376 O399 2.409 . S
Tb376 O400 2.378 . S
Tb376 O404 2.325 . S
Tb376 O407 2.341 1_655 S
Tb377 C387 2.809 . S
Tb377 O398 2.325 . S
Tb377 O401 2.341 1_455 S
Tb377 O402 2.484 . S
Tb377 O403 2.440 . S
Tb377 O404 2.658 1_455 S
Tb377 O405 2.409 . S
Tb377 O406 2.378 . S
C378 Tb376 2.809 . S
C378 C379 1.514 . S
C378 O396 1.248 . S
C378 O397 1.266 . S
C379 C378 1.514 . S
C379 C380 1.359 . S
C379 C384 1.348 . S
C380 C379 1.359 . S
C380 C381 1.380 . S
C380 H408 0.929 . S
C381 C380 1.380 . S
C381 C382 1.347 . S
C381 H409 0.931 . S
C382 C381 1.347 . S
C382 C383 1.369 . S
C383 C382 1.369 . S
C383 C384 1.408 . S
C383 H410 0.930 . S
C384 C379 1.348 . S
C384 C383 1.408 . S
C384 H411 0.930 . S
C385 O398 1.276 1_655 S
C385 O399 1.260 . S
C386 O400 1.236 . S
C386 O401 1.266 . S
C387 Tb377 2.809 . S
C387 C388 1.514 . S
C387 O402 1.248 . S
C387 O403 1.266 . S
C388 C387 1.514 . S
C388 C389 1.359 . S
C388 C393 1.348 . S
C389 C388 1.359 . S
C389 C390 1.380 . S
C389 H412 0.929 . S
C390 C389 1.380 . S
C390 C391 1.347 . S
C390 H413 0.931 . S
C391 C390 1.347 . S
C391 C392 1.369 . S
C392 C391 1.369 . S
C392 C393 1.408 . S
C392 H414 0.930 . S
C393 C388 1.348 . S
C393 C392 1.408 . S
C393 H415 0.930 . S
C394 O404 1.273 1_455 S
C394 O405 1.265 . S
C395 O406 1.236 . S
C395 O407 1.266 . S
O396 Tb376 2.484 . S
O396 C378 1.248 . S
O397 Tb376 2.440 . S
O397 C378 1.266 . S
O398 Tb376 2.658 1_455 S
O398 Tb377 2.325 . S
O398 C385 1.276 1_455 S
O399 Tb376 2.409 . S
O399 C385 1.260 . S
O400 Tb376 2.378 . S
O400 C386 1.236 . S
O401 Tb377 2.341 1_655 S
O401 C386 1.266 . S
O402 Tb377 2.484 . S
O402 C387 1.248 . S
O403 Tb377 2.440 . S
O403 C387 1.266 . S
O404 Tb376 2.325 . S
O404 Tb377 2.658 1_655 S
O404 C394 1.273 1_655 S
O405 Tb377 2.409 . S
O405 C394 1.265 . S
O406 Tb377 2.378 . S
O406 C395 1.236 . S
O407 Tb376 2.341 1_455 S
O407 C395 1.266 . S
H408 C380 0.929 . S
H409 C381 0.931 . S
H410 C383 0.930 . S
H411 C384 0.930 . S
H412 C389 0.929 . S
H413 C390 0.931 . S
H414 C392 0.930 . S
H415 C393 0.930 . S
C416 C417 1.391 . S
C416 C418 1.394 . S
C416 H432 0.931 . S
C417 C416 1.391 . S
C417 C421 1.376 1_545 S
C418 C416 1.394 . S
C418 C419 1.369 . S
C418 C422 1.531 . S
C419 C418 1.369 . S
C419 C420 1.413 . S
C419 C427 1.503 . S
C420 C419 1.413 . S
C420 C421 1.391 1_545 S
C420 C423 1.509 1_545 S
C421 C417 1.376 1_565 S
C421 C420 1.391 1_565 S
C421 H433 0.929 . S
C422 C418 1.531 . S
C422 H434 0.960 . S
C422 H435 0.962 . S
C422 H436 0.960 . S
C423 C420 1.509 1_565 S
C423 H437 0.961 . S
C423 H438 0.961 . S
C423 H439 0.961 1_565 S
C424 C425 1.370 1_565 S
C424 C426 1.363 . S
C424 H440 0.931 . S
C425 C424 1.370 1_545 S
C425 C429 1.408 . S
C426 C424 1.363 . S
C426 C427 1.370 1_565 S
C426 C430 1.524 . S
C427 C419 1.503 . S
C427 C426 1.370 1_545 S
C427 C428 1.403 . S
C428 C427 1.403 . S
C428 C429 1.404 . S
C428 C431 1.539 . S
C429 C425 1.408 . S
C429 C428 1.404 . S
C429 H441 0.930 . S
C430 C426 1.524 . S
C430 H442 0.956 . S
C430 H443 0.961 . S
C430 H444 0.961 . S
C431 C428 1.539 . S
C431 H445 0.958 . S
C431 H446 0.961 . S
C431 H447 0.960 . S
H432 C416 0.931 . S
H433 C421 0.929 . S
H434 C422 0.960 . S
H435 C422 0.962 . S
H436 C422 0.960 . S
H437 C423 0.961 . S
H438 C423 0.961 . S
H439 C423 0.961 1_545 S
H440 C424 0.931 . S
H441 C429 0.930 . S
H442 C430 0.956 . S
H443 C430 0.961 . S
H444 C430 0.961 . S
H445 C431 0.958 . S
H446 C431 0.961 . S
H447 C431 0.960 . S
C448 C449 1.391 . S
C448 C450 1.394 . S
C448 H464 0.931 . S
C449 C448 1.391 . S
C449 C453 1.376 . S
C450 C448 1.394 . S
C450 C451 1.369 . S
C450 C454 1.531 . S
C451 C450 1.369 . S
C451 C452 1.410 . S
C451 C459 1.503 . S
C452 C451 1.410 . S
C452 C453 1.392 . S
C452 C455 1.511 . S
C453 C449 1.376 . S
C453 C452 1.392 . S
C453 H465 0.929 . S
C454 C450 1.531 . S
C454 H466 0.960 . S
C454 H467 0.962 . S
C454 H468 0.960 . S
C455 C452 1.511 . S
C455 H469 0.961 . S
C455 H470 0.961 . S
C455 H471 0.961 . S
C456 C457 1.370 . S
C456 C458 1.363 . S
C456 H472 0.931 . S
C457 C456 1.370 . S
C457 C461 1.408 . S
C458 C456 1.363 . S
C458 C459 1.370 . S
C458 C462 1.524 . S
C459 C451 1.503 . S
C459 C458 1.370 . S
C459 C460 1.403 . S
C460 C459 1.403 . S
C460 C461 1.404 . S
C460 C463 1.539 . S
C461 C457 1.408 . S
C461 C460 1.404 . S
C461 H473 0.930 . S
C462 C458 1.524 . S
C462 H474 0.956 . S
C462 H475 0.961 . S
C462 H476 0.961 . S
C463 C460 1.539 . S
C463 H477 0.958 . S
C463 H478 0.961 . S
C463 H479 0.960 . S
H464 C448 0.931 . S
H465 C453 0.929 . S
H466 C454 0.960 . S
H467 C454 0.962 . S
H468 C454 0.960 . S
H469 C455 0.961 . S
H470 C455 0.961 . S
H471 C455 0.961 . S
H472 C456 0.931 . S
H473 C461 0.930 . S
H474 C462 0.956 . S
H475 C462 0.961 . S
H476 C462 0.961 . S
H477 C463 0.958 . S
H478 C463 0.961 . S
H479 C463 0.960 . S
C480 C481 1.391 . S
C480 C482 1.394 . S
C480 H496 0.931 . S
C481 C480 1.391 . S
C481 C485 1.376 . S
C482 C480 1.394 . S
C482 C483 1.369 . S
C482 C486 1.531 . S
C483 C482 1.369 . S
C483 C484 1.410 . S
C483 C491 1.503 . S
C484 C483 1.410 . S
C484 C485 1.392 . S
C484 C487 1.511 . S
C485 C481 1.376 . S
C485 C484 1.392 . S
C485 H497 0.929 . S
C486 C482 1.531 . S
C486 H498 0.960 . S
C486 H499 0.962 . S
C486 H500 0.960 . S
C487 C484 1.511 . S
C487 H501 0.961 . S
C487 H502 0.961 . S
C487 H503 0.961 . S
C488 C489 1.370 . S
C488 C490 1.363 . S
C488 H504 0.931 . S
C489 C488 1.370 . S
C489 C493 1.408 . S
C490 C488 1.363 . S
C490 C491 1.370 . S
C490 C494 1.524 . S
C491 C483 1.503 . S
C491 C490 1.370 . S
C491 C492 1.403 . S
C492 C491 1.403 . S
C492 C493 1.404 . S
C492 C495 1.539 . S
C493 C489 1.408 . S
C493 C492 1.404 . S
C493 H505 0.930 . S
C494 C490 1.524 . S
C494 H506 0.956 . S
C494 H507 0.961 . S
C494 H508 0.961 . S
C495 C492 1.539 . S
C495 H509 0.958 . S
C495 H510 0.961 . S
C495 H511 0.960 . S
H496 C480 0.931 . S
H497 C485 0.929 . S
H498 C486 0.960 . S
H499 C486 0.962 . S
H500 C486 0.960 . S
H501 C487 0.961 . S
H502 C487 0.961 . S
H503 C487 0.961 . S
H504 C488 0.931 . S
H505 C493 0.930 . S
H506 C494 0.956 . S
H507 C494 0.961 . S
H508 C494 0.961 . S
H509 C495 0.958 . S
H510 C495 0.961 . S
H511 C495 0.960 . S
C512 C513 1.386 . S
C512 C514 1.394 . S
C512 H528 0.931 . S
C513 C512 1.386 . S
C513 C517 1.381 1_455 S
C514 C512 1.394 . S
C514 C515 1.378 . S
C514 C518 1.531 . S
C515 C514 1.378 . S
C515 C516 1.401 1_455 S
C515 C523 1.503 . S
C516 C515 1.401 1_655 S
C516 C517 1.392 . S
C516 C519 1.511 . S
C517 C513 1.381 1_655 S
C517 C516 1.392 . S
C517 H529 0.929 . S
C518 C514 1.531 . S
C518 H530 0.960 . S
C518 H531 0.962 . S
C518 H532 0.960 . S
C519 C516 1.511 . S
C519 H533 0.961 . S
C519 H534 0.961 . S
C519 H535 0.961 . S
C520 C521 1.376 . S
C520 C522 1.363 . S
C520 H536 0.931 . S
C521 C520 1.376 . S
C521 C525 1.404 1_455 S
C522 C520 1.363 . S
C522 C523 1.373 . S
C522 C526 1.524 . S
C523 C515 1.503 . S
C523 C522 1.373 . S
C523 C524 1.401 1_455 S
C524 C523 1.401 1_655 S
C524 C525 1.404 . S
C524 C527 1.539 . S
C525 C521 1.404 1_655 S
C525 C524 1.404 . S
C525 H537 0.930 . S
C526 C522 1.524 . S
C526 H538 0.956 . S
C526 H539 0.961 1_455 S
C526 H540 0.961 . S
C527 C524 1.539 . S
C527 H541 0.958 1_655 S
C527 H542 0.961 . S
C527 H543 0.960 . S
H528 C512 0.931 . S
H529 C517 0.929 . S
H530 C518 0.960 . S
H531 C518 0.962 . S
H532 C518 0.960 . S
H533 C519 0.961 . S
H534 C519 0.961 . S
H535 C519 0.961 . S
H536 C520 0.931 . S
H537 C525 0.930 . S
H538 C526 0.956 . S
H539 C526 0.961 1_655 S
H540 C526 0.961 . S
H541 C527 0.958 1_455 S
H542 C527 0.961 . S
H543 C527 0.960 . S
C544 C545 1.391 . S
C544 C546 1.394 . S
C544 H560 0.931 . S
C545 C544 1.391 . S
C545 C549 1.376 1_545 S
C546 C544 1.394 . S
C546 C547 1.369 . S
C546 C550 1.531 . S
C547 C546 1.369 . S
C547 C548 1.410 1_545 S
C547 C555 1.503 . S
C548 C547 1.410 1_565 S
C548 C549 1.392 . S
C548 C551 1.511 . S
C549 C545 1.376 1_565 S
C549 C548 1.392 . S
C549 H561 0.929 . S
C550 C546 1.531 . S
C550 H562 0.960 . S
C550 H563 0.962 . S
C550 H564 0.960 . S
C551 C548 1.511 . S
C551 H565 0.961 . S
C551 H566 0.961 . S
C551 H567 0.961 . S
C552 C553 1.366 1_565 S
C552 C554 1.363 . S
C552 H568 0.931 . S
C553 C552 1.366 1_545 S
C553 C557 1.413 . S
C554 C552 1.363 . S
C554 C555 1.370 1_566 S
C554 C558 1.524 . S
C555 C547 1.503 . S
C555 C554 1.370 1_544 S
C555 C556 1.403 . S
C556 C555 1.403 . S
C556 C557 1.404 1_554 S
C556 C559 1.539 . S
C557 C553 1.413 . S
C557 C556 1.404 1_556 S
C557 H569 0.930 . S
C558 C554 1.524 . S
C558 H570 0.956 . S
C558 H571 0.961 1_556 S
C558 H572 0.961 . S
C559 C556 1.539 . S
C559 H573 0.958 . S
C559 H574 0.961 . S
C559 H575 0.960 . S
H560 C544 0.931 . S
H561 C549 0.929 . S
H562 C550 0.960 . S
H563 C550 0.962 . S
H564 C550 0.960 . S
H565 C551 0.961 . S
H566 C551 0.961 . S
H567 C551 0.961 . S
H568 C552 0.931 . S
H569 C557 0.930 . S
H570 C558 0.956 . S
H571 C558 0.961 1_554 S
H572 C558 0.961 . S
H573 C559 0.958 . S
H574 C559 0.961 . S
H575 C559 0.960 . S
C576 C577 1.391 . S
C576 C578 1.394 . S
C576 H592 0.931 . S
C577 C576 1.391 . S
C577 C581 1.376 . S
C578 C576 1.394 . S
C578 C579 1.369 . S
C578 C582 1.531 . S
C579 C578 1.369 . S
C579 C580 1.410 . S
C579 C587 1.503 . S
C580 C579 1.410 . S
C580 C581 1.392 . S
C580 C583 1.511 . S
C581 C577 1.376 . S
C581 C580 1.392 . S
C581 H593 0.929 . S
C582 C578 1.531 . S
C582 H594 0.960 . S
C582 H595 0.962 . S
C582 H596 0.960 . S
C583 C580 1.511 . S
C583 H597 0.961 . S
C583 H598 0.961 . S
C583 H599 0.961 . S
C584 C585 1.370 . S
C584 C586 1.363 . S
C584 H600 0.931 . S
C585 C584 1.370 . S
C585 C589 1.408 . S
C586 C584 1.363 . S
C586 C587 1.370 1_556 S
C586 C590 1.524 . S
C587 C579 1.503 . S
C587 C586 1.370 1_554 S
C587 C588 1.403 . S
C588 C587 1.403 . S
C588 C589 1.404 1_554 S
C588 C591 1.539 . S
C589 C585 1.408 . S
C589 C588 1.404 1_556 S
C589 H601 0.930 . S
C590 C586 1.524 . S
C590 H602 0.956 . S
C590 H603 0.961 1_556 S
C590 H604 0.961 . S
C591 C588 1.539 . S
C591 H605 0.958 . S
C591 H606 0.961 . S
C591 H607 0.960 . S
H592 C576 0.931 . S
H593 C581 0.929 . S
H594 C582 0.960 . S
H595 C582 0.962 . S
H596 C582 0.960 . S
H597 C583 0.961 . S
H598 C583 0.961 . S
H599 C583 0.961 . S
H600 C584 0.931 . S
H601 C589 0.930 . S
H602 C590 0.956 . S
H603 C590 0.961 1_554 S
H604 C590 0.961 . S
H605 C591 0.958 . S
H606 C591 0.961 . S
H607 C591 0.960 . S
C608 C609 1.391 . S
C608 C610 1.394 . S
C608 H624 0.931 . S
C609 C608 1.391 . S
C609 C613 1.376 . S
C610 C608 1.394 . S
C610 C611 1.369 . S
C610 C614 1.531 . S
C611 C610 1.369 . S
C611 C612 1.410 . S
C611 C619 1.503 . S
C612 C611 1.410 . S
C612 C613 1.392 . S
C612 C615 1.511 . S
C613 C609 1.376 . S
C613 C612 1.392 . S
C613 H625 0.929 . S
C614 C610 1.531 . S
C614 H626 0.960 . S
C614 H627 0.962 . S
C614 H628 0.960 . S
C615 C612 1.511 . S
C615 H629 0.961 . S
C615 H630 0.961 . S
C615 H631 0.961 . S
C616 C617 1.370 . S
C616 C618 1.363 1_556 S
C616 H632 0.931 . S
C617 C616 1.370 . S
C617 C621 1.408 . S
C618 C616 1.363 1_554 S
C618 C619 1.370 . S
C618 C622 1.524 . S
C619 C611 1.503 . S
C619 C618 1.370 . S
C619 C620 1.403 1_554 S
C620 C619 1.403 1_556 S
C620 C621 1.404 . S
C620 C623 1.539 . S
C621 C617 1.408 . S
C621 C620 1.404 . S
C621 H633 0.930 . S
C622 C618 1.524 . S
C622 H634 0.956 . S
C622 H635 0.961 . S
C622 H636 0.961 . S
C623 C620 1.539 . S
C623 H637 0.958 . S
C623 H638 0.961 . S
C623 H639 0.960 . S
H624 C608 0.931 . S
H625 C613 0.929 . S
H626 C614 0.960 . S
H627 C614 0.962 . S
H628 C614 0.960 . S
H629 C615 0.961 . S
H630 C615 0.961 . S
H631 C615 0.961 . S
H632 C616 0.931 . S
H633 C621 0.930 . S
H634 C622 0.956 . S
H635 C622 0.961 . S
H636 C622 0.961 . S
H637 C623 0.958 . S
H638 C623 0.961 . S
H639 C623 0.960 . S
C640 C641 1.353 1_455 S
C640 C642 1.394 . S
C640 H656 0.931 . S
C641 C640 1.353 1_655 S
C641 C645 1.416 . S
C642 C640 1.394 . S
C642 C643 1.369 1_455 S
C642 C646 1.531 . S
C643 C642 1.369 1_655 S
C643 C644 1.410 . S
C643 C651 1.503 . S
C644 C643 1.410 . S
C644 C645 1.392 . S
C644 C647 1.511 . S
C645 C641 1.416 . S
C645 C644 1.392 . S
C645 H657 0.929 . S
C646 C642 1.531 . S
C646 H658 0.960 . S
C646 H659 0.962 . S
C646 H660 0.960 . S
C647 C644 1.511 . S
C647 H661 0.961 . S
C647 H662 0.961 . S
C647 H663 0.961 . S
C648 C649 1.370 1_455 S
C648 C650 1.363 . S
C648 H664 0.931 . S
C649 C648 1.370 1_655 S
C649 C653 1.408 . S
C650 C648 1.363 . S
C650 C651 1.370 1_456 S
C650 C654 1.524 . S
C651 C643 1.503 . S
C651 C650 1.370 1_654 S
C651 C652 1.403 . S
C652 C651 1.403 . S
C652 C653 1.404 1_554 S
C652 C655 1.539 . S
C653 C649 1.408 . S
C653 C652 1.404 1_556 S
C653 H665 0.930 . S
C654 C650 1.524 . S
C654 H666 0.956 1_556 S
C654 H667 0.933 1_456 S
C654 H668 0.961 . S
C655 C652 1.539 . S
C655 H669 0.958 . S
C655 H670 0.961 . S
C655 H671 0.960 . S
H656 C640 0.931 . S
H657 C645 0.929 . S
H658 C646 0.960 . S
H659 C646 0.962 . S
H660 C646 0.960 . S
H661 C647 0.961 . S
H662 C647 0.961 . S
H663 C647 0.961 . S
H664 C648 0.931 . S
H665 C653 0.930 . S
H666 C654 0.956 1_554 S
H667 C654 0.933 1_654 S
H668 C654 0.961 . S
H669 C655 0.958 . S
H670 C655 0.961 . S
H671 C655 0.960 . S
C672 C673 1.395 . S
C672 C674 1.394 1_455 S
C672 H688 0.931 . S
C673 C672 1.395 . S
C673 C677 1.363 1_455 S
C674 C672 1.394 1_655 S
C674 C675 1.369 . S
C674 C678 1.526 1_655 S
C675 C674 1.369 . S
C675 C676 1.410 . S
C675 C683 1.503 . S
C676 C675 1.410 . S
C676 C677 1.392 . S
C676 C679 1.511 . S
C677 C673 1.363 1_655 S
C677 C676 1.392 . S
C677 H689 0.929 . S
C678 C674 1.526 1_455 S
C678 H690 0.942 1_455 S
C678 H691 0.982 . S
C678 H692 0.963 . S
C679 C676 1.511 . S
C679 H693 0.961 . S
C679 H694 0.961 . S
C679 H695 0.961 . S
C680 C681 1.370 . S
C680 C682 1.363 . S
C680 H696 0.931 . S
C681 C680 1.370 . S
C681 C685 1.408 . S
C682 C680 1.363 . S
C682 C683 1.370 . S
C682 C686 1.524 1_655 S
C683 C675 1.503 . S
C683 C682 1.370 . S
C683 C684 1.403 . S
C684 C683 1.403 . S
C684 C685 1.404 . S
C684 C687 1.539 . S
C685 C681 1.408 . S
C685 C684 1.404 . S
C685 H697 0.930 . S
C686 C682 1.524 1_455 S
C686 H698 0.956 . S
C686 H699 0.961 . S
C686 H700 0.961 . S
C687 C684 1.539 . S
C687 H701 0.958 . S
C687 H702 0.961 . S
C687 H703 0.960 . S
H688 C672 0.931 . S
H689 C677 0.929 . S
H690 C678 0.942 1_655 S
H691 C678 0.982 . S
H692 C678 0.963 . S
H693 C679 0.961 . S
H694 C679 0.961 . S
H695 C679 0.961 . S
H696 C680 0.931 . S
H697 C685 0.930 . S
H698 C686 0.956 . S
H699 C686 0.961 . S
H700 C686 0.961 . S
H701 C687 0.958 . S
H702 C687 0.961 . S
H703 C687 0.960 . S
C704 C705 1.391 . S
C704 C706 1.394 . S
C704 H720 0.931 . S
C705 C704 1.391 . S
C705 C709 1.376 1_545 S
C706 C704 1.394 . S
C706 C707 1.369 1_545 S
C706 C710 1.531 . S
C707 C706 1.369 1_565 S
C707 C708 1.410 . S
C707 C715 1.503 . S
C708 C707 1.410 . S
C708 C709 1.392 . S
C708 C711 1.511 . S
C709 C705 1.376 1_565 S
C709 C708 1.392 . S
C709 H721 0.929 . S
C710 C706 1.531 . S
C710 H722 0.960 . S
C710 H723 0.962 . S
C710 H724 0.960 . S
C711 C708 1.511 . S
C711 H725 0.961 . S
C711 H726 0.961 . S
C711 H727 0.961 . S
C712 C713 1.370 . S
C712 C714 1.363 . S
C712 H728 0.931 . S
C713 C712 1.370 . S
C713 C717 1.408 . S
C714 C712 1.363 . S
C714 C715 1.370 . S
C714 C718 1.524 1_565 S
C715 C707 1.503 . S
C715 C714 1.370 . S
C715 C716 1.403 . S
C716 C715 1.403 . S
C716 C717 1.404 . S
C716 C719 1.539 . S
C717 C713 1.408 . S
C717 C716 1.404 . S
C717 H729 0.930 . S
C718 C714 1.524 1_545 S
C718 H730 0.956 . S
C718 H731 0.961 1_545 S
C718 H732 0.961 . S
C719 C716 1.539 . S
C719 H733 0.958 . S
C719 H734 0.961 . S
C719 H735 0.960 . S
H720 C704 0.931 . S
H721 C709 0.929 . S
H722 C710 0.960 . S
H723 C710 0.962 . S
H724 C710 0.960 . S
H725 C711 0.961 . S
H726 C711 0.961 . S
H727 C711 0.961 . S
H728 C712 0.931 . S
H729 C717 0.930 . S
H730 C718 0.956 . S
H731 C718 0.961 1_565 S
H732 C718 0.961 . S
H733 C719 0.958 . S
H734 C719 0.961 . S
H735 C719 0.960 . S
C736 C737 1.391 . S
C736 C738 1.394 . S
C736 H752 0.931 . S
C737 C736 1.391 . S
C737 C741 1.376 . S
C738 C736 1.394 . S
C738 C739 1.369 . S
C738 C742 1.531 . S
C739 C738 1.369 . S
C739 C740 1.410 . S
C739 C747 1.503 . S
C740 C739 1.410 . S
C740 C741 1.392 . S
C740 C743 1.511 . S
C741 C737 1.376 . S
C741 C740 1.392 . S
C741 H753 0.929 . S
C742 C738 1.531 . S
C742 H754 0.960 . S
C742 H755 0.962 . S
C742 H756 0.960 . S
C743 C740 1.511 . S
C743 H757 0.961 . S
C743 H758 0.961 . S
C743 H759 0.961 . S
C744 C745 1.370 . S
C744 C746 1.363 . S
C744 H760 0.931 . S
C745 C744 1.370 . S
C745 C749 1.408 . S
C746 C744 1.363 . S
C746 C747 1.370 . S
C746 C750 1.524 . S
C747 C739 1.503 . S
C747 C746 1.370 . S
C747 C748 1.403 . S
C748 C747 1.403 . S
C748 C749 1.404 . S
C748 C751 1.539 . S
C749 C745 1.408 . S
C749 C748 1.404 . S
C749 H761 0.930 . S
C750 C746 1.524 . S
C750 H762 0.956 . S
C750 H763 0.961 . S
C750 H764 0.961 . S
C751 C748 1.539 . S
C751 H765 0.958 . S
C751 H766 0.961 . S
C751 H767 0.960 . S
H752 C736 0.931 . S
H753 C741 0.929 . S
H754 C742 0.960 . S
H755 C742 0.962 . S
H756 C742 0.960 . S
H757 C743 0.961 . S
H758 C743 0.961 . S
H759 C743 0.961 . S
H760 C744 0.931 . S
H761 C749 0.930 . S
H762 C750 0.956 . S
H763 C750 0.961 . S
H764 C750 0.961 . S
H765 C751 0.958 . S
H766 C751 0.961 . S
H767 C751 0.960 . S
C768 C769 1.391 . S
C768 C770 1.394 . S
C768 H784 0.931 . S
C769 C768 1.391 . S
C769 C773 1.376 . S
C770 C768 1.394 . S
C770 C771 1.369 . S
C770 C774 1.531 . S
C771 C770 1.369 . S
C771 C772 1.410 . S
C771 C779 1.503 . S
C772 C771 1.410 . S
C772 C773 1.392 . S
C772 C775 1.511 . S
C773 C769 1.376 . S
C773 C772 1.392 . S
C773 H785 0.929 . S
C774 C770 1.531 . S
C774 H786 0.960 . S
C774 H787 0.962 . S
C774 H788 0.960 . S
C775 C772 1.511 . S
C775 H789 0.961 . S
C775 H790 0.961 . S
C775 H791 0.961 . S
C776 C777 1.370 . S
C776 C778 1.363 . S
C776 H792 0.931 . S
C777 C776 1.370 . S
C777 C781 1.408 . S
C778 C776 1.363 . S
C778 C779 1.370 . S
C778 C782 1.524 . S
C779 C771 1.503 . S
C779 C778 1.370 . S
C779 C780 1.403 . S
C780 C779 1.403 . S
C780 C781 1.404 . S
C780 C783 1.539 . S
C781 C777 1.408 . S
C781 C780 1.404 . S
C781 H793 0.930 . S
C782 C778 1.524 . S
C782 H794 0.956 . S
C782 H795 0.961 . S
C782 H796 0.961 . S
C783 C780 1.539 . S
C783 H797 0.958 . S
C783 H798 0.961 . S
C783 H799 0.960 . S
H784 C768 0.931 . S
H785 C773 0.929 . S
H786 C774 0.960 . S
H787 C774 0.962 . S
H788 C774 0.960 . S
H789 C775 0.961 . S
H790 C775 0.961 . S
H791 C775 0.961 . S
H792 C776 0.931 . S
H793 C781 0.930 . S
H794 C782 0.956 . S
H795 C782 0.961 . S
H796 C782 0.961 . S
H797 C783 0.958 . S
H798 C783 0.961 . S
H799 C783 0.960 . S
C800 C801 1.391 . S
C800 C802 1.394 . S
C800 H816 0.931 . S
C801 C800 1.391 . S
C801 C805 1.376 1_655 S
C802 C800 1.394 . S
C802 C803 1.369 1_655 S
C802 C806 1.531 . S
C803 C802 1.369 1_455 S
C803 C804 1.410 . S
C803 C811 1.503 . S
C804 C803 1.410 . S
C804 C805 1.392 . S
C804 C807 1.511 . S
C805 C801 1.376 1_455 S
C805 C804 1.392 . S
C805 H817 0.929 . S
C806 C802 1.531 . S
C806 H818 0.960 . S
C806 H819 0.962 . S
C806 H820 0.960 . S
C807 C804 1.511 . S
C807 H821 0.961 . S
C807 H822 0.961 . S
C807 H823 0.961 . S
C808 C809 1.370 . S
C808 C810 1.363 1_556 S
C808 H824 0.931 . S
C809 C808 1.370 . S
C809 C813 1.408 1_556 S
C810 C808 1.363 1_554 S
C810 C811 1.370 . S
C810 C814 1.524 1_554 S
C811 C803 1.503 . S
C811 C810 1.370 . S
C811 C812 1.403 . S
C812 C811 1.403 . S
C812 C813 1.404 . S
C812 C815 1.539 . S
C813 C809 1.408 1_554 S
C813 C812 1.404 . S
C813 H825 0.930 . S
C814 C810 1.524 1_556 S
C814 H826 0.956 . S
C814 H827 0.961 1_556 S
C814 H828 0.961 . S
C815 C812 1.539 . S
C815 H829 0.958 1_455 S
C815 H830 0.961 . S
C815 H831 0.960 . S
H816 C800 0.931 . S
H817 C805 0.929 . S
H818 C806 0.960 . S
H819 C806 0.962 . S
H820 C806 0.960 . S
H821 C807 0.961 . S
H822 C807 0.961 . S
H823 C807 0.961 . S
H824 C808 0.931 . S
H825 C813 0.930 . S
H826 C814 0.956 . S
H827 C814 0.961 1_554 S
H828 C814 0.961 . S
H829 C815 0.958 1_655 S
H830 C815 0.961 . S
H831 C815 0.960 . S
C832 C833 1.391 1_545 S
C832 C834 1.394 . S
C832 H848 0.931 . S
C833 C832 1.391 1_565 S
C833 C837 1.376 . S
C834 C832 1.394 . S
C834 C835 1.369 . S
C834 C838 1.531 1_554 S
C835 C834 1.369 . S
C835 C836 1.410 1_545 S
C835 C843 1.503 . S
C836 C835 1.410 1_565 S
C836 C837 1.392 . S
C836 C839 1.511 . S
C837 C833 1.376 . S
C837 C836 1.392 . S
C837 H849 0.929 . S
C838 C834 1.531 1_556 S
C838 H850 0.960 . S
C838 H851 0.962 1_556 S
C838 H852 0.960 . S
C839 C836 1.511 . S
C839 H853 0.961 . S
C839 H854 0.961 . S
C839 H855 0.961 . S
C840 C841 1.370 1_554 S
C840 C842 1.363 . S
C840 H856 0.931 . S
C841 C840 1.370 1_556 S
C841 C845 1.408 . S
C842 C840 1.363 . S
C842 C843 1.370 . S
C842 C846 1.524 . S
C843 C835 1.503 . S
C843 C842 1.370 . S
C843 C844 1.403 1_554 S
C844 C843 1.403 1_556 S
C844 C845 1.404 . S
C844 C847 1.539 1_545 S
C845 C841 1.408 . S
C845 C844 1.404 . S
C845 H857 0.930 . S
C846 C842 1.524 . S
C846 H858 0.956 . S
C846 H859 0.961 . S
C846 H860 0.961 . S
C847 C844 1.539 1_565 S
C847 H861 0.958 . S
C847 H862 0.961 . S
C847 H863 0.960 1_556 S
H848 C832 0.931 . S
H849 C837 0.929 . S
H850 C838 0.960 . S
H851 C838 0.962 1_554 S
H852 C838 0.960 . S
H853 C839 0.961 . S
H854 C839 0.961 . S
H855 C839 0.961 . S
H856 C840 0.931 . S
H857 C845 0.930 . S
H858 C846 0.956 . S
H859 C846 0.961 . S
H860 C846 0.961 . S
H861 C847 0.958 . S
H862 C847 0.961 . S
H863 C847 0.960 1_554 S
C864 C865 1.391 . S
C864 C866 1.394 . S
C864 H880 0.931 . S
C865 C864 1.391 . S
C865 C869 1.376 . S
C866 C864 1.394 . S
C866 C867 1.369 . S
C866 C870 1.531 . S
C867 C866 1.369 . S
C867 C868 1.410 . S
C867 C875 1.503 . S
C868 C867 1.410 . S
C868 C869 1.392 . S
C868 C871 1.511 . S
C869 C865 1.376 . S
C869 C868 1.392 . S
C869 H881 0.929 . S
C870 C866 1.531 . S
C870 H882 0.960 . S
C870 H883 0.962 . S
C870 H884 0.960 . S
C871 C868 1.511 . S
C871 H885 0.961 . S
C871 H886 0.961 . S
C871 H887 0.961 . S
C872 C873 1.370 1_554 S
C872 C874 1.363 . S
C872 H888 0.931 . S
C873 C872 1.370 1_556 S
C873 C877 1.408 . S
C874 C872 1.363 . S
C874 C875 1.370 . S
C874 C878 1.524 . S
C875 C867 1.503 . S
C875 C874 1.370 . S
C875 C876 1.403 1_554 S
C876 C875 1.403 1_556 S
C876 C877 1.404 . S
C876 C879 1.539 . S
C877 C873 1.408 . S
C877 C876 1.404 . S
C877 H889 0.930 . S
C878 C874 1.524 . S
C878 H890 0.956 . S
C878 H891 0.961 . S
C878 H892 0.961 . S
C879 C876 1.539 . S
C879 H893 0.958 . S
C879 H894 0.961 . S
C879 H895 0.960 . S
H880 C864 0.931 . S
H881 C869 0.929 . S
H882 C870 0.960 . S
H883 C870 0.962 . S
H884 C870 0.960 . S
H885 C871 0.961 . S
H886 C871 0.961 . S
H887 C871 0.961 . S
H888 C872 0.931 . S
H889 C877 0.930 . S
H890 C878 0.956 . S
H891 C878 0.961 . S
H892 C878 0.961 . S
H893 C879 0.958 . S
H894 C879 0.961 . S
H895 C879 0.960 . S
C896 C897 1.391 . S
C896 C898 1.394 . S
C896 H912 0.931 . S
C897 C896 1.391 . S
C897 C901 1.376 . S
C898 C896 1.394 . S
C898 C899 1.369 . S
C898 C902 1.531 . S
C899 C898 1.369 . S
C899 C900 1.410 . S
C899 C907 1.503 . S
C900 C899 1.410 . S
C900 C901 1.392 . S
C900 C903 1.511 . S
C901 C897 1.376 . S
C901 C900 1.392 . S
C901 H913 0.929 . S
C902 C898 1.531 . S
C902 H914 0.960 . S
C902 H915 0.962 . S
C902 H916 0.960 . S
C903 C900 1.511 . S
C903 H917 0.961 1_554 S
C903 H918 0.961 1_554 S
C903 H919 0.961 . S
C904 C905 1.370 . S
C904 C906 1.363 1_556 S
C904 H920 0.931 . S
C905 C904 1.370 . S
C905 C909 1.408 1_556 S
C906 C904 1.363 1_554 S
C906 C907 1.370 . S
C906 C910 1.524 . S
C907 C899 1.503 . S
C907 C906 1.370 . S
C907 C908 1.403 . S
C908 C907 1.403 . S
C908 C909 1.404 . S
C908 C911 1.539 . S
C909 C905 1.408 1_554 S
C909 C908 1.404 . S
C909 H921 0.930 . S
C910 C906 1.524 . S
C910 H922 0.956 . S
C910 H923 0.961 . S
C910 H924 0.961 1_554 S
C911 C908 1.539 . S
C911 H925 0.958 . S
C911 H926 0.961 . S
C911 H927 0.960 . S
H912 C896 0.931 . S
H913 C901 0.929 . S
H914 C902 0.960 . S
H915 C902 0.962 . S
H916 C902 0.960 . S
H917 C903 0.961 1_556 S
H918 C903 0.961 1_556 S
H919 C903 0.961 . S
H920 C904 0.931 . S
H921 C909 0.930 . S
H922 C910 0.956 . S
H923 C910 0.961 . S
H924 C910 0.961 1_556 S
H925 C911 0.958 . S
H926 C911 0.961 . S
H927 C911 0.960 . S
C928 C929 1.391 . S
C928 C930 1.394 . S
C928 H944 0.931 . S
C929 C928 1.391 . S
C929 C933 1.376 1_455 S
C930 C928 1.394 . S
C930 C931 1.369 . S
C930 C934 1.531 . S
C931 C930 1.369 . S
C931 C932 1.410 1_455 S
C931 C939 1.503 . S
C932 C931 1.410 1_655 S
C932 C933 1.392 . S
C932 C935 1.511 . S
C933 C929 1.376 1_655 S
C933 C932 1.392 . S
C933 H945 0.929 . S
C934 C930 1.531 . S
C934 H946 0.960 . S
C934 H947 0.962 . S
C934 H948 0.960 . S
C935 C932 1.511 . S
C935 H949 0.961 . S
C935 H950 0.961 . S
C935 H951 0.961 . S
C936 C937 1.370 . S
C936 C938 1.363 . S
C936 H952 0.931 . S
C937 C936 1.370 . S
C937 C941 1.415 . S
C938 C936 1.363 . S
C938 C939 1.370 . S
C938 C942 1.524 . S
C939 C931 1.503 . S
C939 C938 1.370 . S
C939 C940 1.403 1_455 S
C940 C939 1.403 1_655 S
C940 C941 1.403 1_655 S
C940 C943 1.539 . S
C941 C937 1.415 . S
C941 C940 1.403 1_455 S
C941 H953 0.925 1_455 S
C942 C938 1.524 . S
C942 H954 0.956 . S
C942 H955 0.961 . S
C942 H956 0.961 . S
C943 C940 1.539 . S
C943 H957 0.925 1_655 S
C943 H958 0.961 . S
C943 H959 0.960 . S
H944 C928 0.931 . S
H945 C933 0.929 . S
H946 C934 0.960 . S
H947 C934 0.962 . S
H948 C934 0.960 . S
H949 C935 0.961 . S
H950 C935 0.961 . S
H951 C935 0.961 . S
H952 C936 0.931 . S
H953 C941 0.925 1_655 S
H954 C942 0.956 . S
H955 C942 0.961 . S
H956 C942 0.961 . S
H957 C943 0.925 1_455 S
H958 C943 0.961 . S
H959 C943 0.960 . S
C960 C961 1.391 1_565 S
C960 C962 1.394 . S
C960 H976 0.931 . S
C961 C960 1.391 1_545 S
C961 C965 1.376 . S
C962 C960 1.394 . S
C962 C963 1.369 1_565 S
C962 C966 1.531 . S
C963 C962 1.369 1_545 S
C963 C964 1.410 . S
C963 C971 1.503 . S
C964 C963 1.410 . S
C964 C965 1.392 . S
C964 C967 1.511 . S
C965 C961 1.376 . S
C965 C964 1.392 . S
C965 H977 0.929 . S
C966 C962 1.531 . S
C966 H978 0.960 . S
C966 H979 0.962 . S
C966 H980 0.960 . S
C967 C964 1.511 . S
C967 H981 0.961 . S
C967 H982 0.961 . S
C967 H983 0.961 . S
C968 C969 1.370 . S
C968 C970 1.363 . S
C968 H984 0.931 . S
C969 C968 1.370 . S
C969 C973 1.408 . S
C970 C968 1.363 . S
C970 C971 1.370 . S
C970 C974 1.524 . S
C971 C963 1.503 . S
C971 C970 1.370 . S
C971 C972 1.403 . S
C972 C971 1.403 . S
C972 C973 1.404 . S
C972 C975 1.539 . S
C973 C969 1.408 . S
C973 C972 1.404 . S
C973 H985 0.930 . S
C974 C970 1.524 . S
C974 H986 0.956 1_545 S
C974 H987 0.961 . S
C974 H988 0.961 . S
C975 C972 1.539 . S
C975 H989 0.958 1_545 S
C975 H990 0.961 . S
C975 H991 0.960 . S
H976 C960 0.931 . S
H977 C965 0.929 . S
H978 C966 0.960 . S
H979 C966 0.962 . S
H980 C966 0.960 . S
H981 C967 0.961 . S
H982 C967 0.961 . S
H983 C967 0.961 . S
H984 C968 0.931 . S
H985 C973 0.930 . S
H986 C974 0.956 1_565 S
H987 C974 0.961 . S
H988 C974 0.961 . S
H989 C975 0.958 1_565 S
H990 C975 0.961 . S
H991 C975 0.960 . S
C992 C993 1.391 . S
C992 C994 1.394 . S
C992 H1008 0.931 . S
C993 C992 1.391 . S
C993 C997 1.376 . S
C994 C992 1.394 . S
C994 C995 1.369 . S
C994 C998 1.531 . S
C995 C994 1.369 . S
C995 C996 1.410 . S
C995 C1003 1.503 . S
C996 C995 1.410 . S
C996 C997 1.392 . S
C996 C999 1.511 . S
C997 C993 1.376 . S
C997 C996 1.392 . S
C997 H1009 0.929 . S
C998 C994 1.531 . S
C998 H1010 0.960 . S
C998 H1011 0.962 . S
C998 H1012 0.960 . S
C999 C996 1.511 . S
C999 H1013 0.961 . S
C999 H1014 0.961 . S
C999 H1015 0.961 . S
C1000 C1001 1.370 . S
C1000 C1002 1.363 . S
C1000 H1016 0.931 . S
C1001 C1000 1.370 . S
C1001 C1005 1.408 . S
C1002 C1000 1.363 . S
C1002 C1003 1.370 . S
C1002 C1006 1.524 . S
C1003 C995 1.503 . S
C1003 C1002 1.370 . S
C1003 C1004 1.403 . S
C1004 C1003 1.403 . S
C1004 C1005 1.404 . S
C1004 C1007 1.539 . S
C1005 C1001 1.408 . S
C1005 C1004 1.404 . S
C1005 H1017 0.930 . S
C1006 C1002 1.524 . S
C1006 H1018 0.956 . S
C1006 H1019 0.961 . S
C1006 H1020 0.961 . S
C1007 C1004 1.539 . S
C1007 H1021 0.958 . S
C1007 H1022 0.961 . S
C1007 H1023 0.960 . S
H1008 C992 0.931 . S
H1009 C997 0.929 . S
H1010 C998 0.960 . S
H1011 C998 0.962 . S
H1012 C998 0.960 . S
H1013 C999 0.961 . S
H1014 C999 0.961 . S
H1015 C999 0.961 . S
H1016 C1000 0.931 . S
H1017 C1005 0.930 . S
H1018 C1006 0.956 . S
H1019 C1006 0.961 . S
H1020 C1006 0.961 . S
H1021 C1007 0.958 . S
H1022 C1007 0.961 . S
H1023 C1007 0.960 . S
C1024 C1025 1.391 . S
C1024 C1026 1.394 . S
C1024 H1040 0.931 . S
C1025 C1024 1.391 . S
C1025 C1029 1.376 . S
C1026 C1024 1.394 . S
C1026 C1027 1.369 . S
C1026 C1030 1.531 . S
C1027 C1026 1.369 . S
C1027 C1028 1.410 . S
C1027 C1035 1.503 . S
C1028 C1027 1.410 . S
C1028 C1029 1.392 . S
C1028 C1031 1.511 . S
C1029 C1025 1.376 . S
C1029 C1028 1.392 . S
C1029 H1041 0.929 . S
C1030 C1026 1.531 . S
C1030 H1042 0.960 . S
C1030 H1043 0.962 . S
C1030 H1044 0.960 . S
C1031 C1028 1.511 . S
C1031 H1045 0.961 . S
C1031 H1046 0.961 . S
C1031 H1047 0.961 . S
C1032 C1033 1.370 . S
C1032 C1034 1.363 . S
C1032 H1048 0.931 . S
C1033 C1032 1.370 . S
C1033 C1037 1.408 . S
C1034 C1032 1.363 . S
C1034 C1035 1.370 . S
C1034 C1038 1.524 . S
C1035 C1027 1.503 . S
C1035 C1034 1.370 . S
C1035 C1036 1.403 . S
C1036 C1035 1.403 . S
C1036 C1037 1.404 . S
C1036 C1039 1.539 . S
C1037 C1033 1.408 . S
C1037 C1036 1.404 . S
C1037 H1049 0.930 . S
C1038 C1034 1.524 . S
C1038 H1050 0.956 . S
C1038 H1051 0.961 . S
C1038 H1052 0.961 . S
C1039 C1036 1.539 . S
C1039 H1053 0.958 . S
C1039 H1054 0.961 . S
C1039 H1055 0.960 . S
H1040 C1024 0.931 . S
H1041 C1029 0.929 . S
H1042 C1030 0.960 . S
H1043 C1030 0.962 . S
H1044 C1030 0.960 . S
H1045 C1031 0.961 . S
H1046 C1031 0.961 . S
H1047 C1031 0.961 . S
H1048 C1032 0.931 . S
H1049 C1037 0.930 . S
H1050 C1038 0.956 . S
H1051 C1038 0.961 . S
H1052 C1038 0.961 . S
H1053 C1039 0.958 . S
H1054 C1039 0.961 . S
H1055 C1039 0.960 . S
C1056 C1057 1.391 1_455 S
C1056 C1058 1.394 . S
C1056 H1072 0.931 . S
C1057 C1056 1.391 1_655 S
C1057 C1061 1.376 . S
C1058 C1056 1.394 . S
C1058 C1059 1.369 1_455 S
C1058 C1062 1.531 . S
C1059 C1058 1.369 1_655 S
C1059 C1060 1.410 . S
C1059 C1067 1.503 . S
C1060 C1059 1.410 . S
C1060 C1061 1.392 . S
C1060 C1063 1.511 . S
C1061 C1057 1.376 . S
C1061 C1060 1.392 . S
C1061 H1073 0.929 . S
C1062 C1058 1.531 . S
C1062 H1074 0.960 . S
C1062 H1075 0.962 . S
C1062 H1076 0.960 . S
C1063 C1060 1.511 . S
C1063 H1077 0.961 . S
C1063 H1078 0.961 . S
C1063 H1079 0.961 . S
C1064 C1065 1.370 . S
C1064 C1066 1.363 . S
C1064 H1080 0.938 . S
C1065 C1064 1.370 . S
C1065 C1069 1.408 . S
C1066 C1064 1.363 . S
C1066 C1067 1.370 . S
C1066 C1070 1.524 1_655 S
C1067 C1059 1.503 . S
C1067 C1066 1.370 . S
C1067 C1068 1.403 . S
C1068 C1067 1.403 . S
C1068 C1069 1.404 . S
C1068 C1071 1.539 . S
C1069 C1065 1.408 . S
C1069 C1068 1.404 . S
C1069 H1081 0.930 . S
C1070 C1066 1.524 1_455 S
C1070 H1082 0.956 . S
C1070 H1083 0.961 1_455 S
C1070 H1084 0.961 . S
C1071 C1068 1.539 . S
C1071 H1085 0.958 . S
C1071 H1086 0.961 . S
C1071 H1087 0.960 . S
H1072 C1056 0.931 . S
H1073 C1061 0.929 . S
H1074 C1062 0.960 . S
H1075 C1062 0.962 . S
H1076 C1062 0.960 . S
H1077 C1063 0.961 . S
H1078 C1063 0.961 . S
H1079 C1063 0.961 . S
H1080 C1064 0.938 . S
H1081 C1069 0.930 . S
H1082 C1070 0.956 . S
H1083 C1070 0.961 1_655 S
H1084 C1070 0.961 . S
H1085 C1071 0.958 . S
H1086 C1071 0.961 . S
H1087 C1071 0.960 . S
C1088 C1089 1.391 . S
C1088 C1090 1.394 . S
C1088 H1104 0.931 . S
C1089 C1088 1.391 . S
C1089 C1093 1.375 1_545 S
C1090 C1088 1.394 . S
C1090 C1091 1.371 . S
C1090 C1094 1.531 . S
C1091 C1090 1.371 . S
C1091 C1092 1.409 1_545 S
C1091 C1099 1.500 1_545 S
C1092 C1091 1.409 1_565 S
C1092 C1093 1.392 . S
C1092 C1095 1.510 . S
C1093 C1089 1.375 1_565 S
C1093 C1092 1.392 . S
C1093 H1105 0.931 . S
C1094 C1090 1.531 . S
C1094 H1106 0.960 . S
C1094 H1107 0.962 1_545 S
C1094 H1108 0.960 . S
C1095 C1092 1.510 . S
C1095 H1109 0.982 . S
C1095 H1110 0.983 . S
C1095 H1111 0.921 1_565 S
C1096 C1097 1.370 . S
C1096 C1098 1.363 . S
C1096 H1112 0.931 . S
C1097 C1096 1.370 . S
C1097 C1101 1.408 1_565 S
C1098 C1096 1.363 . S
C1098 C1099 1.370 . S
C1098 C1102 1.524 . S
C1099 C1091 1.500 1_565 S
C1099 C1098 1.370 . S
C1099 C1100 1.403 1_565 S
C1100 C1099 1.403 1_545 S
C1100 C1101 1.404 . S
C1100 C1103 1.539 . S
C1101 C1097 1.408 1_545 S
C1101 C1100 1.404 . S
C1101 H1113 0.930 . S
C1102 C1098 1.524 . S
C1102 H1114 0.956 . S
C1102 H1115 0.961 . S
C1102 H1116 0.961 . S
C1103 C1100 1.539 . S
C1103 H1117 0.958 . S
C1103 H1118 0.961 . S
C1103 H1119 0.960 . S
H1104 C1088 0.931 . S
H1105 C1093 0.931 . S
H1106 C1094 0.960 . S
H1107 C1094 0.962 1_565 S
H1108 C1094 0.960 . S
H1109 C1095 0.982 . S
H1110 C1095 0.983 . S
H1111 C1095 0.921 1_545 S
H1112 C1096 0.931 . S
H1113 C1101 0.930 . S
H1114 C1102 0.956 . S
H1115 C1102 0.961 . S
H1116 C1102 0.961 . S
H1117 C1103 0.958 . S
H1118 C1103 0.961 . S
H1119 C1103 0.960 . S
C1120 C1121 1.391 . S
C1120 C1122 1.394 . S
C1120 H1136 0.931 . S
C1121 C1120 1.391 . S
C1121 C1125 1.376 . S
C1122 C1120 1.394 . S
C1122 C1123 1.369 . S
C1122 C1126 1.531 . S
C1123 C1122 1.369 . S
C1123 C1124 1.410 . S
C1123 C1131 1.503 . S
C1124 C1123 1.410 . S
C1124 C1125 1.392 . S
C1124 C1127 1.511 . S
C1125 C1121 1.376 . S
C1125 C1124 1.392 . S
C1125 H1137 0.929 . S
C1126 C1122 1.531 . S
C1126 H1138 0.960 . S
C1126 H1139 0.962 . S
C1126 H1140 0.960 . S
C1127 C1124 1.511 . S
C1127 H1141 0.961 . S
C1127 H1142 0.961 . S
C1127 H1143 0.961 . S
C1128 C1129 1.370 . S
C1128 C1130 1.363 . S
C1128 H1144 0.931 . S
C1129 C1128 1.370 . S
C1129 C1133 1.408 . S
C1130 C1128 1.363 . S
C1130 C1131 1.370 . S
C1130 C1134 1.524 . S
C1131 C1123 1.503 . S
C1131 C1130 1.370 . S
C1131 C1132 1.403 . S
C1132 C1131 1.403 . S
C1132 C1133 1.404 . S
C1132 C1135 1.539 . S
C1133 C1129 1.408 . S
C1133 C1132 1.404 . S
C1133 H1145 0.930 . S
C1134 C1130 1.524 . S
C1134 H1146 0.956 . S
C1134 H1147 0.961 . S
C1134 H1148 0.961 . S
C1135 C1132 1.539 . S
C1135 H1149 0.958 . S
C1135 H1150 0.961 . S
C1135 H1151 0.960 . S
H1136 C1120 0.931 . S
H1137 C1125 0.929 . S
H1138 C1126 0.960 . S
H1139 C1126 0.962 . S
H1140 C1126 0.960 . S
H1141 C1127 0.961 . S
H1142 C1127 0.961 . S
H1143 C1127 0.961 . S
H1144 C1128 0.931 . S
H1145 C1133 0.930 . S
H1146 C1134 0.956 . S
H1147 C1134 0.961 . S
H1148 C1134 0.961 . S
H1149 C1135 0.958 . S
H1150 C1135 0.961 . S
H1151 C1135 0.960 . S
C1152 C1153 1.391 . S
C1152 C1154 1.394 . S
C1152 H1168 0.931 . S
C1153 C1152 1.391 . S
C1153 C1157 1.376 . S
C1154 C1152 1.394 . S
C1154 C1155 1.369 . S
C1154 C1158 1.531 . S
C1155 C1154 1.369 . S
C1155 C1156 1.410 . S
C1155 C1163 1.503 . S
C1156 C1155 1.410 . S
C1156 C1157 1.392 . S
C1156 C1159 1.511 . S
C1157 C1153 1.376 . S
C1157 C1156 1.392 . S
C1157 H1169 0.929 . S
C1158 C1154 1.531 . S
C1158 H1170 0.960 . S
C1158 H1171 0.962 . S
C1158 H1172 0.960 . S
C1159 C1156 1.511 . S
C1159 H1173 0.961 . S
C1159 H1174 0.961 . S
C1159 H1175 0.961 . S
C1160 C1161 1.370 . S
C1160 C1162 1.363 . S
C1160 H1176 0.931 . S
C1161 C1160 1.370 . S
C1161 C1165 1.408 . S
C1162 C1160 1.363 . S
C1162 C1163 1.370 . S
C1162 C1166 1.524 . S
C1163 C1155 1.503 . S
C1163 C1162 1.370 . S
C1163 C1164 1.403 . S
C1164 C1163 1.403 . S
C1164 C1165 1.404 . S
C1164 C1167 1.539 . S
C1165 C1161 1.408 . S
C1165 C1164 1.404 . S
C1165 H1177 0.930 . S
C1166 C1162 1.524 . S
C1166 H1178 0.956 . S
C1166 H1179 0.961 . S
C1166 H1180 0.961 . S
C1167 C1164 1.539 . S
C1167 H1181 0.958 . S
C1167 H1182 0.961 . S
C1167 H1183 0.960 . S
H1168 C1152 0.931 . S
H1169 C1157 0.929 . S
H1170 C1158 0.960 . S
H1171 C1158 0.962 . S
H1172 C1158 0.960 . S
H1173 C1159 0.961 . S
H1174 C1159 0.961 . S
H1175 C1159 0.961 . S
H1176 C1160 0.931 . S
H1177 C1165 0.930 . S
H1178 C1166 0.956 . S
H1179 C1166 0.961 . S
H1180 C1166 0.961 . S
H1181 C1167 0.958 . S
H1182 C1167 0.961 . S
H1183 C1167 0.960 . S
C417 C215 1.984 . S
C425 C265 2.169 1_545 S
C457 C305 2.192 . S
C449 C247 1.971 . S
C489 C345 2.198 . S
C481 C151 2.008 . S
C521 C385 2.174 1_455 S
C513 C183 2.030 . S
C553 C274 2.169 . S
C545 C87 2.013 . S
C577 C119 2.054 . S
C585 C314 2.192 . S
C609 C23 2.007 . S
C617 C354 2.196 . S
C641 C55 2.028 1_655 S
C649 C394 2.177 1_655 S
C681 C271 0.478 . S
C673 C189 0.430 . S
C713 C311 0.473 . S
C705 C221 0.440 . S
C745 C351 0.421 . S
C737 C253 0.359 . S
C769 C157 0.346 . S
C777 C391 0.390 . S
C801 C61 0.552 1_655 S
C809 C262 0.428 . S
C841 C302 0.412 . S
C833 C93 0.629 1_565 S
C873 C342 0.423 . S
C865 C125 0.585 . S
C897 C29 0.398 . S
C905 C382 0.471 . S
C929 C177 2.495 . S
C937 C275 2.825 . S
C961 C209 2.506 . S
C969 C315 2.788 . S
C1001 C355 2.768 . S
C993 C241 2.424 . S
C1033 C395 2.807 . S
C1025 C145 2.504 . S
C1057 C49 2.515 1_655 S
C1065 C266 2.840 . S
C1097 C306 2.784 . S
C1089 C81 2.486 . S
C1129 C346 2.774 . S
C1121 C113 2.471 . S
C1153 C17 2.562 . S
C1161 C386 2.816 . S
