# Generated by pormake.
# Topology zzz, (3,6)-cn, num edge types: 1
# Building blocks:
#     Node 0, Type 0, BuildingBlock: CUQRIR_clean_linker_1, # of connection points: 3
#     Node 1, Type 0, BuildingBlock: CUQRIR_clean_linker_1, # of connection points: 3
#     Node 2, Type 0, BuildingBlock: CUQRIR_clean_linker_1, # of connection points: 3
#     Node 3, Type 0, BuildingBlock: CUQRIR_clean_linker_1, # of connection points: 3
#     Node 4, Type 0, BuildingBlock: CUQRIR_clean_linker_1, # of connection points: 3
#     Node 5, Type 0, BuildingBlock: CUQRIR_clean_linker_1, # of connection points: 3
#     Node 6, Type 0, BuildingBlock: CUQRIR_clean_linker_1, # of connection points: 3
#     Node 7, Type 0, BuildingBlock: CUQRIR_clean_linker_1, # of connection points: 3
#     Node 8, Type 1, BuildingBlock: BETFAJ_clean_sbu_0, # of connection points: 6
#     Node 9, Type 1, BuildingBlock: BETFAJ_clean_sbu_0, # of connection points: 6
#     Node 10, Type 1, BuildingBlock: BETFAJ_clean_sbu_0, # of connection points: 6
#     Node 11, Type 1, BuildingBlock: BETFAJ_clean_sbu_0, # of connection points: 6
#     Edge 12, Type (0, 1), None
#     Edge 13, Type (0, 1), None
#     Edge 14, Type (0, 1), None
#     Edge 15, Type (0, 1), None
#     Edge 16, Type (0, 1), None
#     Edge 17, Type (0, 1), None
#     Edge 18, Type (0, 1), None
#     Edge 19, Type (0, 1), None
#     Edge 20, Type (0, 1), None
#     Edge 21, Type (0, 1), None
#     Edge 22, Type (0, 1), None
#     Edge 23, Type (0, 1), None
#     Edge 24, Type (0, 1), None
#     Edge 25, Type (0, 1), None
#     Edge 26, Type (0, 1), None
#     Edge 27, Type (0, 1), None
#     Edge 28, Type (0, 1), None
#     Edge 29, Type (0, 1), None
#     Edge 30, Type (0, 1), None
#     Edge 31, Type (0, 1), None
#     Edge 32, Type (0, 1), None
#     Edge 33, Type (0, 1), None
#     Edge 34, Type (0, 1), None
#     Edge 35, Type (0, 1), None
# Relax obj value: 0.941
# Max RMSD: 0.279
# Mean RMSD: 0.145
data_MOF--net-zzz--node1-BETFAJ_clean_sbu_0--node2-CUQRIR_clean_linker_1--edge1-none
_symmetry_space_group_name_H-M    P1
_symmetry_Int_Tables_number       1
_symmetry_cell_setting            triclinic
loop_
_symmetry_equiv_pos_as_xyz
'x, y, z'
_cell_length_a     20.263775
_cell_length_b     19.519145
_cell_length_c     6.3999796
_cell_angle_alpha  89.973646
_cell_angle_beta   83.54722
_cell_angle_gamma 90.741321
loop_
_atom_site_label
_atom_site_type_symbol
_atom_site_fract_x
_atom_site_fract_y
_atom_site_fract_z
_atom_type_partial_charge
C0 C 0.7724 0.63968 0.48469 0.0
N1 N 0.82573 0.59342 0.48602 0.0
N2 N 0.72456 0.62084 0.34656 0.0
C3 C 0.76843 0.7039 0.61048 0.0
C4 C 0.76166 0.5763 0.22953 0.0
N5 N 0.8116 0.55185 0.33013 0.0
C6 C 0.77587 0.59313 1.00048 0.0
H7 H 0.71963 0.70588 0.70689 0.0
H8 H 0.77332 0.74783 0.50081 0.0
H9 H 0.80918 0.70784 0.7118 0.0
H10 H 0.81756 0.63081 0.98242 0.0
H11 H 0.7325 0.61631 0.93926 0.0
H12 H 0.79125 0.5489 0.90376 0.0
C13 C 0.99269 0.79494 0.32902 0.0
N14 N 0.03318 0.84328 0.43307 0.0
N15 N 1.02645 0.75443 0.16176 0.0
C16 C 0.92003 0.78748 0.38666 0.0
C17 C 0.08309 0.7917 0.15118 0.0
N18 N 0.09253 0.82864 0.32747 0.0
C19 C 0.10667 0.82107 0.94105 0.0
H20 H 0.90233 0.73632 0.34025 0.0
H21 H 0.89588 0.82627 0.29579 0.0
H22 H 0.90725 0.79607 0.5576 0.0
H23 H 0.07194 0.80914 0.82395 0.0
H24 H 0.15537 0.80209 0.8784 0.0
H25 H 0.10988 0.8766 0.96 0.0
C26 C 0.79741 0.97179 0.47886 0.0
N27 N 0.73463 1.00728 0.50944 0.0
N28 N 0.84164 0.98991 0.28985 0.0
C29 C 0.80467 0.90491 0.58621 0.0
C30 C 0.79604 1.02394 0.19777 0.0
N31 N 0.74383 1.04438 0.33209 0.0
C32 C 0.78429 1.00663 0.97951 0.0
H33 H 0.85275 0.90227 0.65112 0.0
H34 H 0.80243 0.86415 0.46769 0.0
H35 H 0.76298 0.89468 0.70964 0.0
H36 H 0.75179 0.96051 0.99017 0.0
H37 H 0.82867 0.99545 0.87501 0.0
H38 H 0.76096 1.04846 0.90461 0.0
C39 C 0.57531 0.8051 0.50644 0.0
N40 N 0.53271 0.76131 0.64393 0.0
N41 N 0.54314 0.84738 0.36744 0.0
C42 C 0.64725 0.81392 0.52491 0.0
C43 C 0.48272 0.81713 0.40469 0.0
N44 N 0.47307 0.77936 0.58793 0.0
C45 C 0.45118 0.79349 0.21871 0.0
H46 H 0.66323 0.86746 0.4869 0.0
H47 H 0.67472 0.78042 0.40709 0.0
H48 H 0.65794 0.80096 0.68615 0.0
H49 H 0.47912 0.81101 0.06877 0.0
H50 H 0.39885 0.8074 0.22044 0.0
H51 H 0.44996 0.73769 0.2303 0.0
C52 C 0.30757 0.49763 0.72884 0.0
N53 N 0.24428 0.51206 0.8388 0.0
N54 N 0.35669 0.48532 0.86513 0.0
C55 C 0.31292 0.46025 0.52867 0.0
C56 C 0.31408 0.47286 0.03495 0.0
N57 N 0.26048 0.5116 0.0306 0.0
C58 C 0.30373 0.39845 0.09417 0.0
H59 H 0.26304 0.45443 0.4763 0.0
H60 H 0.33242 0.40842 0.55328 0.0
H61 H 0.3493 0.48636 0.41402 0.0
H62 H 0.34568 0.381 0.17491 0.0
H63 H 0.30227 0.3663 0.95147 0.0
H64 H 0.25669 0.39049 0.19647 0.0
C65 C 0.06661 0.3178 0.23447 0.0
N66 N 1.02343 0.26159 0.19573 0.0
N67 N 0.04523 0.3586 0.41487 0.0
C68 C 0.13105 0.33135 0.10393 0.0
C69 C 0.9971 0.31537 0.49497 0.0
N70 N 0.97507 0.27225 0.35206 0.0
C71 C 0.99316 0.29321 0.71759 0.0
H72 H 0.17095 0.31822 0.2002 0.0
H73 H 0.13691 0.38667 0.06592 0.0
H74 H 0.13592 0.30013 0.95842 0.0
H75 H 0.96921 0.33145 0.82447 0.0
H76 H 0.04421 0.28539 0.75809 0.0
H77 H 0.96477 0.24501 0.73413 0.0
C78 C 0.24913 0.12657 0.29318 0.0
N79 N 0.31321 0.09635 0.30335 0.0
N80 N 0.20097 0.11136 0.47079 0.0
C81 C 0.24714 0.1982 0.20989 0.0
C82 C 0.2459 0.09699 0.60005 0.0
N83 N 0.30265 0.07427 0.50127 0.0
C84 C 0.24903 0.13643 0.79419 0.0
H85 H 0.2924 0.21205 0.10375 0.0
H86 H 0.2452 0.23426 0.34457 0.0
H87 H 0.20077 0.20567 0.13734 0.0
H88 H 0.21428 0.11225 0.91692 0.0
H89 H 0.23424 0.19025 0.7702 0.0
H90 H 0.30015 0.13624 0.8391 0.0
C91 C 0.48663 0.29325 0.44432 0.0
N92 N 0.53284 0.34738 0.38688 0.0
N93 N 0.5061 0.24868 0.60008 0.0
C94 C 0.42448 0.28121 0.3441 0.0
C95 C 0.55672 0.28598 0.65741 0.0
N96 N 0.57918 0.33469 0.51479 0.0
C97 C 0.56241 0.29449 0.88687 0.0
H98 H 0.38202 0.30225 0.44735 0.0
H99 H 0.41509 0.22546 0.32838 0.0
H100 H 0.42763 0.30608 0.18824 0.0
H101 H 0.56208 0.24517 0.9706 0.0
H102 H 0.51684 0.32045 0.95306 0.0
H103 H 0.60582 0.32527 0.91736 0.0
Sm104 Sm 0.0605 1.04326 0.914 0.0
Sm105 Sm 0.98202 1.04946 0.79508 0.0
C106 C 0.16271 1.00259 0.10725 0.0
C107 C 0.18871 0.94752 0.22067 0.0
C108 C 0.17644 0.94536 0.43955 0.0
C109 C 0.17282 0.88173 0.53438 0.0
C110 C 0.15904 0.8289 0.40248 0.0
C111 C 0.21251 0.82906 0.24094 0.0
C112 C 0.21953 0.88951 0.12364 0.0
C113 C 0.13103 0.11791 0.55308 0.0
C114 C 1.02038 0.90341 0.57755 0.0
C115 C 0.88269 0.09729 0.60213 0.0
C116 C 0.86187 0.15745 0.49919 0.0
C117 C 0.87237 0.16397 0.27927 0.0
C118 C 0.88134 0.22899 0.19433 0.0
C119 C 0.90431 0.27468 0.33208 0.0
C120 C 0.8615 0.27835 0.52261 0.0
C121 C 0.84346 0.21613 0.6158 0.0
C122 C 0.9099 0.98117 0.18096 0.0
C123 C 1.03056 0.19631 0.07748 0.0
O124 O 0.11051 1.03242 0.20029 0.0
O125 O 0.15752 0.99206 0.91076 0.0
O126 O 0.08864 0.06608 0.56513 0.0
O127 O 0.1156 0.14007 0.74388 0.0
O128 O 0.06322 0.93271 0.70005 0.0
O129 O 0.96872 0.94354 0.59112 0.0
O130 O 0.88723 0.10347 0.80073 0.0
O131 O 0.93364 0.06602 0.5079 0.0
O132 O 0.95458 1.03128 0.15246 0.0
O133 O 0.92073 0.95757 0.98842 0.0
O134 O 0.98332 0.16419 0.97924 0.0
O135 O 0.08104 0.15501 0.07083 0.0
H136 H 0.17665 0.98964 0.53318 0.0
H137 H 0.20269 0.87503 0.66101 0.0
H138 H 0.24634 0.78767 0.20926 0.0
H139 H 0.24409 0.88928 0.96662 0.0
H140 H 0.87779 0.12113 0.17746 0.0
H141 H 0.89147 0.23714 0.02815 0.0
H142 H 0.86188 0.32048 0.63073 0.0
H143 H 0.82574 0.21427 0.78063 0.0
Sm144 Sm 0.53991 0.05989 0.02047 0.0
Sm145 Sm 0.51322 1.02854 0.8722 0.0
C146 C 0.5855 0.13478 0.31425 0.0
C147 C 0.63077 0.19277 0.33445 0.0
C148 C 0.65884 0.18545 0.52437 0.0
C149 C 0.71346 0.14643 0.52685 0.0
C150 C 0.73611 0.11667 0.33802 0.0
C151 C 0.73156 0.15599 0.15437 0.0
C152 C 0.67839 0.20036 0.15911 0.0
C153 C 0.48731 0.18319 0.695 0.0
C154 C 0.66954 1.009 0.65428 0.0
C155 C 0.4644 0.95676 0.58606 0.0
C156 C 0.4039 0.91874 0.59539 0.0
C157 C 0.37805 0.92036 0.40232 0.0
C158 C 0.32572 0.96034 0.38306 0.0
C159 C 0.3094 1.00456 0.54777 0.0
C160 C 0.31533 0.98262 0.7537 0.0
C161 C 0.36081 0.93158 0.77648 0.0
C162 C 0.56142 0.90541 0.22255 0.0
C163 C 0.37961 0.0868 0.17843 0.0
O164 O 0.52836 0.1463 0.24995 0.0
O165 O 0.61313 0.07958 0.23119 0.0
O166 O 0.53274 0.14151 0.75604 0.0
O167 O 0.53412 0.14224 0.75245 0.0
O168 O 0.65478 1.01093 0.86586 0.0
O169 O 0.61182 1.02771 0.5993 0.0
O170 O 0.51021 0.93309 0.69119 0.0
O171 O 0.45367 1.0215 0.61586 0.0
O172 O 0.51715 0.94823 0.15472 0.0
O173 O 0.51568 0.94756 0.15852 0.0
O174 O 0.39733 0.07971 0.97283 0.0
O175 O 0.43409 0.06809 0.2579 0.0
H176 H 0.6355 0.19583 0.67705 0.0
H177 H 0.7272 0.12868 0.67533 0.0
H178 H 0.76227 0.14814 0.00956 0.0
H179 H 0.66709 0.22282 0.01438 0.0
H180 H 0.40672 0.91239 0.25597 0.0
H181 H 0.31511 0.972 0.22617 0.0
H182 H 0.29524 1.01122 0.88955 0.0
H183 H 0.37642 0.9223 0.92932 0.0
Sm184 Sm 0.50567 0.57251 0.15175 0.0
Sm185 Sm 0.57556 0.55084 0.96709 0.0
C186 C 0.40617 0.60618 0.43144 0.0
C187 C 0.37574 0.65659 0.56993 0.0
C188 C 0.39168 0.65979 0.77552 0.0
C189 C 0.39572 0.72424 0.86124 0.0
C190 C 0.4069 0.77601 0.71378 0.0
C191 C 0.35119 0.77423 0.59832 0.0
C192 C 0.3426 0.71284 0.49538 0.0
C193 C 0.42547 0.49086 0.89769 0.0
C194 C 0.54467 0.7022 0.78002 0.0
C195 C 0.682 0.51009 0.73135 0.0
C196 C 0.69467 0.45204 0.59788 0.0
C197 C 0.67703 0.45028 0.39224 0.0
C198 C 0.66963 0.38749 0.30014 0.0
C199 C 0.64989 0.33753 0.44519 0.0
C200 C 0.6942 0.33091 0.59885 0.0
C201 C 0.71368 0.39073 0.68639 0.0
C202 C 0.66136 0.64234 0.28682 0.0
C203 C 0.5285 0.41304 0.27868 0.0
O204 O 0.46107 0.58024 0.48119 0.0
O205 O 0.40816 0.61879 0.23248 0.0
O206 O 0.46876 0.53789 0.83427 0.0
O207 O 0.44095 0.47704 0.08194 0.0
O208 O 0.50853 0.6847 0.96074 0.0
O209 O 0.58508 0.65115 0.72868 0.0
O210 O 0.64326 0.55697 0.67069 0.0
O211 O 0.66648 0.49292 0.9259 0.0
O212 O 0.61159 0.59783 0.27065 0.0
O213 O 0.61174 0.59792 0.27336 0.0
O214 O 0.55447 0.4285 0.08109 0.0
O215 O 0.51383 0.47151 0.37451 0.0
H216 H 0.38408 0.61605 0.87398 0.0
H217 H 0.36467 0.73185 0.00692 0.0
H218 H 0.32149 0.8173 0.56723 0.0
H219 H 0.31727 0.71114 0.35594 0.0
H220 H 0.66637 0.49429 0.30859 0.0
H221 H 0.65771 0.38372 0.14223 0.0
H222 H 0.69725 0.2871 0.69775 0.0
H223 H 0.73356 0.38834 0.83525 0.0
Sm224 Sm 1.0208 0.53725 0.82813 0.0
Sm225 Sm 0.04398 0.59271 0.66562 0.0
C226 C 0.98671 0.46447 0.17003 0.0
C227 C 0.9311 0.42096 0.23546 0.0
C228 C 0.90685 0.42712 0.44889 0.0
C229 C 0.84411 0.45003 0.49905 0.0
C230 C 0.81693 0.47929 0.33474 0.0
C231 C 0.82376 0.44318 0.14559 0.0
C232 C 0.88467 0.41419 0.08987 0.0
C233 C 0.05933 0.422 0.52478 0.0
C234 C 0.88828 0.59256 0.58443 0.0
C235 C 0.10681 0.67484 0.38984 0.0
C236 C 0.16885 0.65428 0.28957 0.0
C237 C 0.18554 0.59221 0.36254 0.0
C238 C 0.24965 0.57578 0.3308 0.0
C239 C 0.26953 0.57671 0.12173 0.0
C240 C 0.25457 0.63666 0.01034 0.0
C241 C 0.20289 0.67668 0.10022 0.0
C242 C 1.02677 0.69581 0.01253 0.0
C243 C 0.17631 0.52788 0.80794 0.0
O244 O 0.972 0.52869 0.1528 0.0
O245 O 1.0255 0.44254 0.01182 0.0
O246 O 0.03967 0.48453 0.48473 0.0
O247 O 0.05473 0.42379 0.72863 0.0
O248 O 0.90549 0.54637 0.72406 0.0
O249 O 0.94326 0.62463 0.51084 0.0
O250 O 0.05728 0.63534 0.35072 0.0
O251 O 0.10966 0.68323 0.58952 0.0
O252 O 0.98513 0.64721 0.97082 0.0
O253 O 0.08048 0.67705 0.89687 0.0
O254 O 0.14338 0.51612 0.65149 0.0
O255 O 0.13146 0.55611 0.94331 0.0
H256 H 0.93644 0.42694 0.57643 0.0
H257 H 0.82752 0.46317 0.65941 0.0
H258 H 0.79122 0.4509 0.02804 0.0
H259 H 0.89906 0.4069 0.92487 0.0
H260 H 0.15168 0.55229 0.31906 0.0
H261 H 0.27828 0.6028 0.43206 0.0
H262 H 0.26622 0.64132 0.8427 0.0
H263 H 0.18616 0.71651 0.01045 0.0
loop_
_geom_bond_atom_site_label_1
_geom_bond_atom_site_label_2
_geom_bond_distance
_geom_bond_site_symmetry_2
_ccdc_geom_bond_type
C0 N1 1.317 . S
C0 N2 1.348 . S
C0 C3 1.485 1_556 S
N1 C0 1.317 . S
N1 N5 1.370 . S
N2 C0 1.348 . S
N2 C4 1.346 . S
C3 C0 1.485 1_554 S
C3 H7 0.960 . S
C3 H8 0.961 . S
C3 H9 0.960 . S
C4 N2 1.346 . S
C4 N5 1.307 . S
C4 C6 1.486 . S
N5 N1 1.370 . S
N5 C4 1.307 . S
C6 C4 1.486 . S
C6 H10 0.960 . S
C6 H11 0.960 . S
C6 H12 0.959 . S
H7 C3 0.960 . S
H8 C3 0.961 . S
H9 C3 0.960 . S
H10 C6 0.960 . S
H11 C6 0.960 . S
H12 C6 0.959 . S
C13 N14 1.317 . S
C13 N15 1.348 . S
C13 C16 1.485 1_556 S
N14 C13 1.317 . S
N14 N18 1.371 . S
N15 C13 1.348 . S
N15 C17 1.346 1_655 S
C16 C13 1.485 1_554 S
C16 H20 0.960 1_655 S
C16 H21 0.961 . S
C16 H22 0.960 . S
C17 N15 1.346 1_455 S
C17 N18 1.307 1_455 S
C17 C19 1.486 . S
N18 N14 1.371 . S
N18 C17 1.307 1_655 S
C19 C17 1.486 . S
C19 H23 0.960 1_455 S
C19 H24 0.960 . S
C19 H25 0.959 . S
H20 C16 0.960 1_455 S
H21 C16 0.961 . S
H22 C16 0.960 . S
H23 C19 0.960 1_655 S
H24 C19 0.960 . S
H25 C19 0.959 . S
C26 N27 1.317 . S
C26 N28 1.348 . S
C26 C29 1.485 1_556 S
N27 C26 1.317 . S
N27 N31 1.371 . S
N28 C26 1.348 . S
N28 C30 1.346 1_565 S
C29 C26 1.485 1_554 S
C29 H33 0.960 1_565 S
C29 H34 0.961 . S
C29 H35 0.960 . S
C30 N28 1.346 1_545 S
C30 N31 1.307 1_545 S
C30 C32 1.486 . S
N31 N27 1.371 . S
N31 C30 1.307 1_565 S
C32 C30 1.486 . S
C32 H36 0.960 1_545 S
C32 H37 0.960 . S
C32 H38 0.959 . S
H33 C29 0.960 1_545 S
H34 C29 0.961 . S
H35 C29 0.960 . S
H36 C32 0.960 1_565 S
H37 C32 0.960 . S
H38 C32 0.959 . S
C39 N40 1.317 . S
C39 N41 1.348 . S
C39 C42 1.485 1_556 S
N40 C39 1.317 . S
N40 N44 1.370 . S
N41 C39 1.348 . S
N41 C43 1.346 . S
C42 C39 1.485 1_554 S
C42 H46 0.960 . S
C42 H47 0.961 . S
C42 H48 0.960 . S
C43 N41 1.346 . S
C43 N44 1.307 . S
C43 C45 1.486 . S
N44 N40 1.370 . S
N44 C43 1.307 . S
C45 C43 1.486 . S
C45 H49 0.960 . S
C45 H50 0.960 . S
C45 H51 0.959 . S
H46 C42 0.960 . S
H47 C42 0.961 . S
H48 C42 0.960 . S
H49 C45 0.960 . S
H50 C45 0.960 . S
H51 C45 0.959 . S
C52 N53 1.317 . S
C52 N54 1.348 1_556 S
C52 C55 1.485 . S
N53 C52 1.317 . S
N53 N57 1.370 1_556 S
N54 C52 1.348 1_554 S
N54 C56 1.346 . S
C55 C52 1.485 . S
C55 H59 0.960 . S
C55 H60 0.961 . S
C55 H61 0.960 . S
C56 N54 1.346 . S
C56 N57 1.307 . S
C56 C58 1.486 . S
N57 N53 1.370 1_554 S
N57 C56 1.307 . S
C58 C56 1.486 . S
C58 H62 0.960 . S
C58 H63 0.960 . S
C58 H64 0.959 . S
H59 C55 0.960 . S
H60 C55 0.961 . S
H61 C55 0.960 . S
H62 C58 0.960 . S
H63 C58 0.960 . S
H64 C58 0.959 . S
C65 N66 1.317 . S
C65 N67 1.348 1_556 S
C65 C68 1.485 . S
N66 C65 1.317 . S
N66 N70 1.371 1_556 S
N67 C65 1.348 1_554 S
N67 C69 1.346 1_655 S
C68 C65 1.485 . S
C68 H72 0.960 1_655 S
C68 H73 0.961 . S
C68 H74 0.960 . S
C69 N67 1.346 1_455 S
C69 N70 1.307 1_455 S
C69 C71 1.487 . S
N70 N66 1.371 1_554 S
N70 C69 1.307 1_655 S
C71 C69 1.487 . S
C71 H75 0.960 1_455 S
C71 H76 0.960 . S
C71 H77 0.959 . S
H72 C68 0.960 1_455 S
H73 C68 0.961 . S
H74 C68 0.960 . S
H75 C71 0.960 1_655 S
H76 C71 0.960 . S
H77 C71 0.959 . S
C78 N79 1.317 . S
C78 N80 1.348 1_556 S
C78 C81 1.485 . S
N79 C78 1.317 . S
N79 N83 1.371 1_556 S
N80 C78 1.348 1_554 S
N80 C82 1.346 1_565 S
C81 C78 1.485 . S
C81 H85 0.960 1_565 S
C81 H86 0.961 . S
C81 H87 0.960 . S
C82 N80 1.346 1_545 S
C82 N83 1.307 1_545 S
C82 C84 1.487 . S
N83 N79 1.371 1_554 S
N83 C82 1.307 1_565 S
C84 C82 1.487 . S
C84 H88 0.960 1_545 S
C84 H89 0.960 . S
C84 H90 0.959 . S
H85 C81 0.960 1_545 S
H86 C81 0.961 . S
H87 C81 0.960 . S
H88 C84 0.960 1_565 S
H89 C84 0.960 . S
H90 C84 0.959 . S
C91 N92 1.317 . S
C91 N93 1.348 1_556 S
C91 C94 1.485 . S
N92 C91 1.317 . S
N92 N96 1.370 1_556 S
N93 C91 1.348 1_554 S
N93 C95 1.346 . S
C94 C91 1.485 . S
C94 H98 0.960 . S
C94 H99 0.961 . S
C94 H100 0.960 . S
C95 N93 1.346 . S
C95 N96 1.307 . S
C95 C97 1.486 . S
N96 N92 1.370 1_554 S
N96 C95 1.307 . S
C97 C95 1.486 . S
C97 H101 0.960 . S
C97 H102 0.960 . S
C97 H103 0.959 . S
H98 C94 0.960 . S
H99 C94 0.961 . S
H100 C94 0.960 . S
H101 C97 0.960 . S
H102 C97 0.960 . S
H103 C97 0.959 . S
Sm104 C106 2.846 . S
Sm104 O124 2.543 . S
Sm104 O125 2.450 . S
Sm104 O126 2.681 1_564 S
Sm104 O127 2.464 1_554 S
Sm104 O128 2.396 1_554 S
Sm104 O132 2.386 1_455 S
Sm104 O135 2.408 1_565 S
Sm105 C115 2.846 . S
Sm105 O126 2.386 1_655 S
Sm105 O129 2.408 1_545 S
Sm105 O130 2.543 . S
Sm105 O131 2.450 . S
Sm105 O132 2.681 1_546 S
Sm105 O133 2.464 . S
Sm105 O134 2.396 . S
C106 Sm104 2.846 . S
C106 C107 1.506 . S
C106 O124 1.261 . S
C106 O125 1.242 . S
C107 C106 1.506 . S
C107 C108 1.358 . S
C107 C112 1.382 . S
C108 C107 1.358 . S
C108 C109 1.385 . S
C108 H136 0.930 . S
C109 C108 1.385 . S
C109 C110 1.395 . S
C109 H137 0.929 . S
C110 C109 1.395 . S
C110 C111 1.335 . S
C111 C110 1.335 . S
C111 C112 1.398 . S
C111 H138 0.930 . S
C112 C107 1.382 . S
C112 C111 1.398 . S
C112 H139 0.929 . S
C113 O126 1.271 1_565 S
C113 O127 1.251 . S
C114 O128 1.252 1_655 S
C114 O129 1.272 . S
C115 Sm105 2.846 . S
C115 C116 1.506 . S
C115 O130 1.261 . S
C115 O131 1.242 . S
C116 C115 1.506 . S
C116 C117 1.358 . S
C116 C121 1.382 . S
C117 C116 1.358 . S
C117 C118 1.385 . S
C117 H140 0.930 . S
C118 C117 1.385 . S
C118 C119 1.395 . S
C118 H141 0.929 . S
C119 C118 1.395 . S
C119 C120 1.335 . S
C120 C119 1.335 . S
C120 C121 1.398 . S
C120 H142 0.930 . S
C121 C116 1.382 . S
C121 C120 1.398 . S
C121 H143 0.929 . S
C122 O132 1.271 1_545 S
C122 O133 1.251 1_554 S
C123 O134 1.252 1_455 S
C123 O135 1.272 1_556 S
O124 Sm104 2.543 . S
O124 C106 1.261 . S
O125 Sm104 2.450 . S
O125 C106 1.242 . S
O126 Sm104 2.681 1_546 S
O126 Sm105 2.386 1_455 S
O126 C113 1.271 1_545 S
O127 Sm104 2.464 1_556 S
O127 C113 1.251 . S
O128 Sm104 2.396 1_556 S
O128 C114 1.252 1_455 S
O129 Sm105 2.408 1_565 S
O129 C114 1.272 . S
O130 Sm105 2.543 . S
O130 C115 1.261 . S
O131 Sm105 2.450 . S
O131 C115 1.242 . S
O132 Sm104 2.386 1_655 S
O132 Sm105 2.681 1_564 S
O132 C122 1.271 1_565 S
O133 Sm105 2.464 . S
O133 C122 1.251 1_556 S
O134 Sm105 2.396 . S
O134 C123 1.252 1_655 S
O135 Sm104 2.408 1_545 S
O135 C123 1.272 1_554 S
H136 C108 0.930 . S
H137 C109 0.929 . S
H138 C111 0.930 . S
H139 C112 0.929 . S
H140 C117 0.930 . S
H141 C118 0.929 . S
H142 C120 0.930 . S
H143 C121 0.929 . S
Sm144 C146 2.846 . S
Sm144 O164 2.543 . S
Sm144 O165 2.450 . S
Sm144 O166 2.681 1_554 S
Sm144 O167 2.464 1_554 S
Sm144 O168 2.396 1_554 S
Sm144 O172 2.386 1_545 S
Sm144 O175 2.408 . S
Sm145 C155 2.846 . S
Sm145 O166 2.386 1_565 S
Sm145 O169 2.408 . S
Sm145 O170 2.543 . S
Sm145 O171 2.450 . S
Sm145 O172 2.681 1_556 S
Sm145 O173 2.464 . S
Sm145 O174 2.396 . S
C146 Sm144 2.846 . S
C146 C147 1.506 . S
C146 O164 1.261 . S
C146 O165 1.242 . S
C147 C146 1.506 . S
C147 C148 1.358 . S
C147 C152 1.382 . S
C148 C147 1.358 . S
C148 C149 1.385 . S
C148 H176 0.930 . S
C149 C148 1.385 . S
C149 C150 1.395 . S
C149 H177 0.929 . S
C150 C149 1.395 . S
C150 C151 1.335 . S
C151 C150 1.335 . S
C151 C152 1.398 . S
C151 H178 0.930 . S
C152 C147 1.382 . S
C152 C151 1.398 . S
C152 H179 0.929 . S
C153 O166 1.271 . S
C153 O167 1.251 . S
C154 O168 1.252 1_565 S
C154 O169 1.272 . S
C155 Sm145 2.846 . S
C155 C156 1.506 . S
C155 O170 1.261 . S
C155 O171 1.242 . S
C156 C155 1.506 . S
C156 C157 1.358 . S
C156 C161 1.382 . S
C157 C156 1.358 . S
C157 C158 1.385 . S
C157 H180 0.930 . S
C158 C157 1.385 . S
C158 C159 1.395 . S
C158 H181 0.929 . S
C159 C158 1.395 . S
C159 C160 1.335 . S
C160 C159 1.335 . S
C160 C161 1.398 . S
C160 H182 0.930 . S
C161 C156 1.382 . S
C161 C160 1.398 . S
C161 H183 0.929 . S
C162 O172 1.271 . S
C162 O173 1.251 1_554 S
C163 O174 1.252 1_545 S
C163 O175 1.272 1_556 S
O164 Sm144 2.543 . S
O164 C146 1.261 . S
O165 Sm144 2.450 . S
O165 C146 1.242 . S
O166 Sm144 2.681 1_556 S
O166 Sm145 2.386 1_545 S
O166 C153 1.271 . S
O167 Sm144 2.464 1_556 S
O167 C153 1.251 . S
O168 Sm144 2.396 1_556 S
O168 C154 1.252 1_545 S
O169 Sm145 2.408 . S
O169 C154 1.272 . S
O170 Sm145 2.543 . S
O170 C155 1.261 . S
O171 Sm145 2.450 . S
O171 C155 1.242 . S
O172 Sm144 2.386 1_565 S
O172 Sm145 2.681 1_554 S
O172 C162 1.271 . S
O173 Sm145 2.464 . S
O173 C162 1.251 1_556 S
O174 Sm145 2.396 . S
O174 C163 1.252 1_565 S
O175 Sm144 2.408 . S
O175 C163 1.272 1_554 S
H176 C148 0.930 . S
H177 C149 0.929 . S
H178 C151 0.930 . S
H179 C152 0.929 . S
H180 C157 0.930 . S
H181 C158 0.929 . S
H182 C160 0.930 . S
H183 C161 0.929 . S
Sm184 C186 2.846 . S
Sm184 O204 2.543 . S
Sm184 O205 2.450 . S
Sm184 O206 2.681 1_554 S
Sm184 O207 2.464 1_554 S
Sm184 O208 2.396 1_554 S
Sm184 O212 2.386 . S
Sm184 O215 2.408 . S
Sm185 C195 2.846 . S
Sm185 O206 2.386 . S
Sm185 O209 2.408 . S
Sm185 O210 2.543 . S
Sm185 O211 2.450 . S
Sm185 O212 2.681 1_556 S
Sm185 O213 2.464 . S
Sm185 O214 2.396 . S
C186 Sm184 2.846 . S
C186 C187 1.506 . S
C186 O204 1.261 . S
C186 O205 1.242 . S
C187 C186 1.506 . S
C187 C188 1.358 . S
C187 C192 1.382 . S
C188 C187 1.358 . S
C188 C189 1.385 . S
C188 H216 0.930 . S
C189 C188 1.385 . S
C189 C190 1.395 . S
C189 H217 0.929 . S
C190 C189 1.395 . S
C190 C191 1.335 . S
C191 C190 1.335 . S
C191 C192 1.398 . S
C191 H218 0.930 . S
C192 C187 1.382 . S
C192 C191 1.398 . S
C192 H219 0.929 . S
C193 O206 1.271 . S
C193 O207 1.251 . S
C194 O208 1.252 . S
C194 O209 1.272 . S
C195 Sm185 2.846 . S
C195 C196 1.506 . S
C195 O210 1.261 . S
C195 O211 1.242 . S
C196 C195 1.506 . S
C196 C197 1.358 . S
C196 C201 1.382 . S
C197 C196 1.358 . S
C197 C198 1.385 . S
C197 H220 0.930 . S
C198 C197 1.385 . S
C198 C199 1.395 . S
C198 H221 0.929 . S
C199 C198 1.395 . S
C199 C200 1.335 . S
C200 C199 1.335 . S
C200 C201 1.398 . S
C200 H222 0.930 . S
C201 C196 1.382 . S
C201 C200 1.398 . S
C201 H223 0.929 . S
C202 O212 1.271 . S
C202 O213 1.251 1_554 S
C203 O214 1.252 . S
C203 O215 1.272 1_556 S
O204 Sm184 2.543 . S
O204 C186 1.261 . S
O205 Sm184 2.450 . S
O205 C186 1.242 . S
O206 Sm184 2.681 1_556 S
O206 Sm185 2.386 . S
O206 C193 1.271 . S
O207 Sm184 2.464 1_556 S
O207 C193 1.251 . S
O208 Sm184 2.396 1_556 S
O208 C194 1.252 . S
O209 Sm185 2.408 . S
O209 C194 1.272 . S
O210 Sm185 2.543 . S
O210 C195 1.261 . S
O211 Sm185 2.450 . S
O211 C195 1.242 . S
O212 Sm184 2.386 . S
O212 Sm185 2.681 1_554 S
O212 C202 1.271 . S
O213 Sm185 2.464 . S
O213 C202 1.251 1_556 S
O214 Sm185 2.396 . S
O214 C203 1.252 . S
O215 Sm184 2.408 . S
O215 C203 1.272 1_554 S
H216 C188 0.930 . S
H217 C189 0.929 . S
H218 C191 0.930 . S
H219 C192 0.929 . S
H220 C197 0.930 . S
H221 C198 0.929 . S
H222 C200 0.930 . S
H223 C201 0.929 . S
Sm224 C226 2.846 . S
Sm224 O244 2.543 . S
Sm224 O245 2.450 . S
Sm224 O246 2.681 1_654 S
Sm224 O247 2.464 1_554 S
Sm224 O248 2.396 1_554 S
Sm224 O252 2.386 . S
Sm224 O255 2.408 1_655 S
Sm225 C235 2.846 . S
Sm225 O246 2.386 . S
Sm225 O249 2.408 1_455 S
Sm225 O250 2.543 . S
Sm225 O251 2.450 . S
Sm225 O252 2.681 1_456 S
Sm225 O253 2.464 . S
Sm225 O254 2.396 . S
C226 Sm224 2.846 . S
C226 C227 1.506 . S
C226 O244 1.261 . S
C226 O245 1.242 . S
C227 C226 1.506 . S
C227 C228 1.358 . S
C227 C232 1.382 . S
C228 C227 1.358 . S
C228 C229 1.385 . S
C228 H256 0.930 . S
C229 C228 1.385 . S
C229 C230 1.395 . S
C229 H257 0.929 . S
C230 C229 1.395 . S
C230 C231 1.335 . S
C231 C230 1.335 . S
C231 C232 1.398 . S
C231 H258 0.930 . S
C232 C227 1.382 . S
C232 C231 1.398 . S
C232 H259 0.929 . S
C233 O246 1.267 1_655 S
C233 O247 1.258 . S
C234 O248 1.252 . S
C234 O249 1.272 . S
C235 Sm225 2.846 . S
C235 C236 1.506 . S
C235 O250 1.261 . S
C235 O251 1.242 . S
C236 C235 1.506 . S
C236 C237 1.358 . S
C236 C241 1.382 . S
C237 C236 1.358 . S
C237 C238 1.385 . S
C237 H260 0.930 . S
C238 C237 1.385 . S
C238 C239 1.395 . S
C238 H261 0.929 . S
C239 C238 1.395 . S
C239 C240 1.335 . S
C240 C239 1.335 . S
C240 C241 1.398 . S
C240 H262 0.930 . S
C241 C236 1.382 . S
C241 C240 1.398 . S
C241 H263 0.929 . S
C242 O252 1.271 1_455 S
C242 O253 1.251 1_554 S
C243 O254 1.252 . S
C243 O255 1.272 1_556 S
O244 Sm224 2.543 . S
O244 C226 1.261 . S
O245 Sm224 2.450 . S
O245 C226 1.242 . S
O246 Sm224 2.681 1_456 S
O246 Sm225 2.386 . S
O246 C233 1.267 1_455 S
O247 Sm224 2.464 1_556 S
O247 C233 1.258 . S
O248 Sm224 2.396 1_556 S
O248 C234 1.252 . S
O249 Sm225 2.408 1_655 S
O249 C234 1.272 . S
O250 Sm225 2.543 . S
O250 C235 1.261 . S
O251 Sm225 2.450 . S
O251 C235 1.242 . S
O252 Sm224 2.386 . S
O252 Sm225 2.681 1_654 S
O252 C242 1.271 1_655 S
O253 Sm225 2.464 . S
O253 C242 1.251 1_556 S
O254 Sm225 2.396 . S
O254 C243 1.252 . S
O255 Sm224 2.408 1_455 S
O255 C243 1.272 1_554 S
H256 C228 0.930 . S
H257 C229 0.929 . S
H258 C231 0.930 . S
H259 C232 0.929 . S
H260 C237 0.930 . S
H261 C238 0.929 . S
H262 C240 0.930 . S
H263 C241 0.929 . S
N80 C113 2.900 1_554 S
C153 N93 2.926 1_556 S
C193 N54 2.929 1_556 S
C233 N67 2.867 1_556 S
C122 N28 2.905 1_544 S
N41 C162 2.915 1_556 S
N2 C202 2.915 1_556 S
N15 C242 2.868 1_656 S
C119 N70 2.795 . S
C159 N83 2.611 . S
C199 N96 2.532 . S
N57 C239 2.679 . S
N18 C110 2.803 1_655 S
C150 N31 2.619 1_545 S
C190 N44 2.557 . S
N5 C230 2.704 . S
N66 C123 4.060 1_655 S
N79 C163 3.979 1_565 S
C203 N92 3.988 . S
C243 N53 4.063 . S
N14 C114 4.042 . S
C154 N27 3.954 . S
C194 N40 3.946 . S
N1 C234 4.029 . S
