# Generated by pormake.
# Topology pyr, (3,6)-cn, num edge types: 1
# Building blocks:
#     Node 0, Type 0, BuildingBlock: PAMTOO_clean_linker_0, # of connection points: 3
#     Node 1, Type 0, BuildingBlock: PAMTOO_clean_linker_0, # of connection points: 3
#     Node 2, Type 0, BuildingBlock: PAMTOO_clean_linker_0, # of connection points: 3
#     Node 3, Type 0, BuildingBlock: PAMTOO_clean_linker_0, # of connection points: 3
#     Node 4, Type 0, BuildingBlock: PAMTOO_clean_linker_0, # of connection points: 3
#     Node 5, Type 0, BuildingBlock: PAMTOO_clean_linker_0, # of connection points: 3
#     Node 6, Type 0, BuildingBlock: PAMTOO_clean_linker_0, # of connection points: 3
#     Node 7, Type 0, BuildingBlock: PAMTOO_clean_linker_0, # of connection points: 3
#     Node 8, Type 1, BuildingBlock: VOLQOD_clean_sbu_1, # of connection points: 6
#     Node 9, Type 1, BuildingBlock: VOLQOD_clean_sbu_1, # of connection points: 6
#     Node 10, Type 1, BuildingBlock: VOLQOD_clean_sbu_1, # of connection points: 6
#     Node 11, Type 1, BuildingBlock: VOLQOD_clean_sbu_1, # of connection points: 6
#     Edge 12, Type (0, 1), BuildingBlock: XUDNAN_clean_linker_2, # of connection points: 2
#     Edge 13, Type (0, 1), BuildingBlock: XUDNAN_clean_linker_2, # of connection points: 2
#     Edge 14, Type (0, 1), BuildingBlock: XUDNAN_clean_linker_2, # of connection points: 2
#     Edge 15, Type (0, 1), BuildingBlock: XUDNAN_clean_linker_2, # of connection points: 2
#     Edge 16, Type (0, 1), BuildingBlock: XUDNAN_clean_linker_2, # of connection points: 2
#     Edge 17, Type (0, 1), BuildingBlock: XUDNAN_clean_linker_2, # of connection points: 2
#     Edge 18, Type (0, 1), BuildingBlock: XUDNAN_clean_linker_2, # of connection points: 2
#     Edge 19, Type (0, 1), BuildingBlock: XUDNAN_clean_linker_2, # of connection points: 2
#     Edge 20, Type (0, 1), BuildingBlock: XUDNAN_clean_linker_2, # of connection points: 2
#     Edge 21, Type (0, 1), BuildingBlock: XUDNAN_clean_linker_2, # of connection points: 2
#     Edge 22, Type (0, 1), BuildingBlock: XUDNAN_clean_linker_2, # of connection points: 2
#     Edge 23, Type (0, 1), BuildingBlock: XUDNAN_clean_linker_2, # of connection points: 2
#     Edge 24, Type (0, 1), BuildingBlock: XUDNAN_clean_linker_2, # of connection points: 2
#     Edge 25, Type (0, 1), BuildingBlock: XUDNAN_clean_linker_2, # of connection points: 2
#     Edge 26, Type (0, 1), BuildingBlock: XUDNAN_clean_linker_2, # of connection points: 2
#     Edge 27, Type (0, 1), BuildingBlock: XUDNAN_clean_linker_2, # of connection points: 2
#     Edge 28, Type (0, 1), BuildingBlock: XUDNAN_clean_linker_2, # of connection points: 2
#     Edge 29, Type (0, 1), BuildingBlock: XUDNAN_clean_linker_2, # of connection points: 2
#     Edge 30, Type (0, 1), BuildingBlock: XUDNAN_clean_linker_2, # of connection points: 2
#     Edge 31, Type (0, 1), BuildingBlock: XUDNAN_clean_linker_2, # of connection points: 2
#     Edge 32, Type (0, 1), BuildingBlock: XUDNAN_clean_linker_2, # of connection points: 2
#     Edge 33, Type (0, 1), BuildingBlock: XUDNAN_clean_linker_2, # of connection points: 2
#     Edge 34, Type (0, 1), BuildingBlock: XUDNAN_clean_linker_2, # of connection points: 2
#     Edge 35, Type (0, 1), BuildingBlock: XUDNAN_clean_linker_2, # of connection points: 2
# Relax obj value: 0.120
# Max RMSD: 0.196
# Mean RMSD: 0.161
data_MOF--net-pry--node1-VOLQOD_clean_sbu_1--node2-PAMTOO_clean_linker_0--edge1-XUDNAN_clean_linker_2
_symmetry_space_group_name_H-M    P1
_symmetry_Int_Tables_number       1
_symmetry_cell_setting            triclinic
loop_
_symmetry_equiv_pos_as_xyz
'x, y, z'
_cell_length_a     36.345629
_cell_length_b     37.502618
_cell_length_c     37.298011
_cell_angle_alpha  89.856396
_cell_angle_beta   91.247734
_cell_angle_gamma 95.493889
loop_
_atom_site_label
_atom_site_type_symbol
_atom_site_fract_x
_atom_site_fract_y
_atom_site_fract_z
_atom_type_partial_charge
H0 H 0.1421 0.18412 0.22739 0.0
H1 H 0.22163 0.10974 0.20568 0.0
H2 H 0.20641 0.19375 0.13098 0.0
H3 H 0.20551 0.1197 0.10104 0.0
C4 C 0.22858 0.11095 0.11803 0.0
O5 O 0.23962 0.13678 0.14328 0.0
H6 H 0.21843 0.08557 0.13165 0.0
C7 C 0.16285 0.17515 0.21005 0.0
C8 C 0.1717 0.19354 0.17781 0.0
C9 C 0.18138 0.14554 0.22078 0.0
C10 C 0.20753 0.13292 0.19815 0.0
C11 C 0.2153 0.14978 0.16541 0.0
C12 C 0.19822 0.18032 0.15566 0.0
H13 H 0.35602 0.92362 0.67532 0.0
H14 H 0.34858 0.83568 0.60072 0.0
H15 H 0.44635 0.85779 0.66627 0.0
H16 H 0.46315 0.83193 0.59352 0.0
C17 C 0.43485 0.8198 0.58626 0.0
O18 O 0.41391 0.81612 0.61665 0.0
H19 H 0.42252 0.83785 0.56654 0.0
C20 C 0.36842 0.90184 0.66265 0.0
C21 C 0.40381 0.89356 0.6739 0.0
C22 C 0.3481 0.88099 0.6365 0.0
C23 C 0.36375 0.85202 0.62108 0.0
C24 C 0.39919 0.84404 0.63163 0.0
C25 C 0.41903 0.86449 0.65817 0.0
H26 H 0.70088 0.34936 0.93234 0.0
H27 H 0.61753 0.37594 0.8554 0.0
H28 H 0.70048 0.45695 0.89272 0.0
H29 H 0.62511 0.48921 0.86175 0.0
C30 C 0.61501 0.46124 0.8543 0.0
O31 O 0.64487 0.44223 0.84795 0.0
H32 H 0.59836 0.44952 0.87695 0.0
C33 C 0.68771 0.36888 0.91636 0.0
C34 C 0.70351 0.4045 0.91631 0.0
C35 C 0.65632 0.35795 0.89501 0.0
C36 C 0.6416 0.38333 0.87236 0.0
C37 C 0.65772 0.41878 0.87151 0.0
C38 C 0.68835 0.42943 0.89362 0.0
H39 H 0.86455 0.68745 0.46098 0.0
H40 H 0.84386 0.59177 0.39632 0.0
H41 H 0.93634 0.66649 0.37482 0.0
H42 H 0.88767 0.64033 0.31491 0.0
C43 C 0.88497 0.61135 0.32212 0.0
O44 O 0.89995 0.60652 0.35583 0.0
H45 H 0.85504 0.60175 0.32174 0.0
C46 C 0.872 0.67015 0.4397 0.0
C47 C 0.90253 0.68143 0.41843 0.0
C48 C 0.85029 0.63753 0.43247 0.0
C49 C 0.86055 0.61607 0.40411 0.0
C50 C 0.89153 0.62658 0.38386 0.0
C51 C 0.91266 0.65876 0.39124 0.0
H52 H 0.85824 0.92631 0.85559 0.0
H53 H 0.88239 0.84826 0.93505 0.0
H54 H 0.95136 0.86443 0.84337 0.0
H55 H 0.93262 0.78766 0.86335 0.0
C56 C 0.92944 0.79113 0.89271 0.0
O57 O 0.93894 0.82661 0.90155 0.0
H58 H 0.90012 0.78329 0.89954 0.0
C59 C 0.87544 0.90603 0.86511 0.0
C60 C 0.90621 0.8982 0.84546 0.0
C61 C 0.86688 0.88837 0.89743 0.0
C62 C 0.88875 0.862 0.91002 0.0
C63 C 0.91857 0.85282 0.88992 0.0
C64 C 0.92748 0.87108 0.85795 0.0
H65 H 0.72208 0.08313 0.32283 0.0
H66 H 0.63721 0.15508 0.32828 0.0
H67 H 0.70058 0.13374 0.42298 0.0
H68 H 0.61893 0.1393 0.43141 0.0
C69 C 0.61601 0.16178 0.4123 0.0
O70 O 0.64934 0.1708 0.39608 0.0
H71 H 0.59449 0.15304 0.39168 0.0
C72 C 0.70639 0.10043 0.3385 0.0
C73 C 0.71467 0.10557 0.37525 0.0
C74 C 0.67828 0.11778 0.32146 0.0
C75 C 0.65852 0.14096 0.34124 0.0
C76 C 0.66694 0.14684 0.37769 0.0
C77 C 0.69471 0.12908 0.39469 0.0
H78 H 0.38376 0.67314 0.08422 0.0
H79 H 0.42647 0.5878 0.14488 0.0
H80 H 0.49784 0.68193 0.11972 0.0
H81 H 0.48481 0.65264 0.19586 0.0
C82 C 0.50346 0.63272 0.18661 0.0
O83 O 0.49335 0.62014 0.15266 0.0
H84 H 0.53157 0.64717 0.18555 0.0
C85 C 0.40685 0.66163 0.09724 0.0
C86 C 0.44144 0.68174 0.09994 0.0
C87 C 0.40133 0.62755 0.11293 0.0
C88 C 0.43067 0.61357 0.13162 0.0
C89 C 0.46554 0.63294 0.13339 0.0
C90 C 0.47109 0.66661 0.11692 0.0
H91 H 0.10268 0.32828 0.69566 0.0
H92 H 0.13543 0.44174 0.69513 0.0
H93 H 0.14116 0.38088 0.59871 0.0
H94 H 0.19687 0.46074 0.66058 0.0
C95 C 0.18715 0.46234 0.63214 0.0
O96 O 0.15226 0.4447 0.62745 0.0
H97 H 0.18531 0.49126 0.62667 0.0
C98 C 0.11393 0.35218 0.68178 0.0
C99 C 0.12153 0.35046 0.64506 0.0
C100 C 0.11919 0.38499 0.70021 0.0
C101 C 0.13233 0.41603 0.68162 0.0
C102 C 0.1408 0.41438 0.64531 0.0
C103 C 0.13544 0.38169 0.62708 0.0
O104 O 0.02282 0.09305 0.55371 0.0
Zn105 Zn 0.99803 0.04332 0.54709 0.0
O106 O 0.03264 0.01336 0.52581 0.0
Zn107 Zn 0.01827 0.00381 0.47616 0.0
Zn108 Zn 0.08298 0.03741 0.52915 0.0
Zn109 Zn 0.03019 0.96784 0.55057 0.0
O110 O 0.01342 0.95114 0.46533 0.0
O111 O 0.00918 0.92676 0.51948 0.0
O112 O 0.95226 0.04602 0.51548 0.0
O113 O 0.96777 0.01887 0.4659 0.0
O114 O 0.0547 0.02904 0.44269 0.0
O115 O 0.10197 0.04745 0.4791 0.0
O116 O 0.11842 0.00606 0.55444 0.0
O117 O 0.98206 0.02369 0.59565 0.0
O118 O 0.081 0.95702 0.56513 0.0
O119 O 0.00117 0.96918 0.59536 0.0
C120 C 0.05648 0.10569 0.55749 0.0
C121 C 0.00705 0.9239 0.48549 0.0
C122 C 0.08736 0.044 0.44774 0.0
C123 C 0.94475 0.03476 0.48371 0.0
C124 C 0.11305 0.97395 0.56599 0.0
C125 C 0.98458 0.99329 0.61045 0.0
O126 O 0.08311 0.08648 0.55269 0.0
O127 O 0.54633 0.09133 0.9439 0.0
Zn128 Zn 0.51979 0.04484 0.9588 0.0
O129 O 0.55024 0.01759 0.99 0.0
Zn130 Zn 0.55662 0.97133 0.96703 0.0
Zn131 Zn 0.59807 0.04503 0.99712 0.0
Zn132 Zn 0.52638 0.01046 0.03655 0.0
O133 O 0.53248 0.93059 0.99665 0.0
O134 O 0.51244 0.9578 0.04445 0.0
O135 O 0.50699 0.01896 0.9133 0.0
O136 O 0.53355 0.96815 0.91663 0.0
O137 O 0.61099 0.96424 0.96353 0.0
O138 O 0.6391 0.01578 0.98383 0.0
O139 O 0.60721 0.05679 0.04868 0.0
O140 O 0.47299 0.05555 0.98228 0.0
O141 O 0.55927 0.03108 0.07802 0.0
O142 O 0.47869 0.03384 0.0373 0.0
C143 C 0.57861 0.10643 0.95007 0.0
C144 C 0.51615 0.92947 0.02661 0.0
C145 C 0.64033 0.98433 0.97144 0.0
C146 C 0.51448 0.98967 0.89946 0.0
C147 C 0.59066 0.04947 0.07784 0.0
C148 C 0.4607 0.0501 0.0137 0.0
O149 O 0.60189 0.09197 0.97 0.0
O150 O 0.53571 0.50271 0.59167 0.0
Zn151 Zn 0.53387 0.52121 0.54094 0.0
O152 O 0.51268 0.48463 0.50727 0.0
Zn153 Zn 0.55035 0.47254 0.4735 0.0
Zn154 Zn 0.49535 0.44203 0.53427 0.0
Zn155 Zn 0.47084 0.50277 0.48127 0.0
O156 O 0.53481 0.48472 0.42285 0.0
O157 O 0.47935 0.50429 0.42802 0.0
O158 O 0.58531 0.53842 0.52728 0.0
O159 O 0.59939 0.5021 0.48368 0.0
O160 O 0.55744 0.41947 0.47515 0.0
O161 O 0.51821 0.39894 0.51694 0.0
O162 O 0.44026 0.43232 0.53019 0.0
O163 O 0.50556 0.56462 0.54018 0.0
O164 O 0.42277 0.47369 0.49249 0.0
O165 O 0.46405 0.55325 0.49626 0.0
C166 C 0.52409 0.47289 0.60574 0.0
C167 C 0.50625 0.49695 0.40886 0.0
C168 C 0.54237 0.39375 0.49381 0.0
C169 C 0.60815 0.52822 0.50503 0.0
C170 C 0.41505 0.44684 0.5129 0.0
C171 C 0.47921 0.57401 0.52039 0.0
O172 O 0.50811 0.44753 0.58681 0.0
O173 O 0.00836 0.48485 0.10842 0.0
Zn174 Zn 0.02026 0.46156 0.06303 0.0
O175 O 0.05212 0.49396 0.03397 0.0
Zn176 Zn 0.02484 0.50444 0.99062 0.0
Zn177 Zn 0.06503 0.53835 0.06053 0.0
Zn178 Zn 0.09679 0.47114 0.02169 0.0
O179 O 0.04455 0.47948 0.94897 0.0
O180 O 0.0968 0.45877 0.96849 0.0
O181 O 0.97088 0.44754 0.0393 0.0
O182 O 0.97163 0.48519 0.99331 0.0
O183 O 0.02613 0.55754 0.98158 0.0
O184 O 0.05247 0.58133 0.03139 0.0
O185 O 0.11953 0.54302 0.07205 0.0
O186 O 0.04534 0.4189 0.07801 0.0
O187 O 0.1429 0.50293 0.03715 0.0
O188 O 0.09888 0.42459 0.04981 0.0
C189 C 0.01641 0.51538 0.12264 0.0
C190 C 0.07293 0.46297 0.94363 0.0
C191 C 0.03721 0.5848 0.00063 0.0
C192 C 0.95466 0.46146 0.01291 0.0
C193 C 0.147 0.52874 0.05957 0.0
C194 C 0.07636 0.40777 0.07112 0.0
O195 O 0.03764 0.53942 0.10724 0.0
H196 H 0.1146 0.12262 0.24995 0.0
H197 H 0.23283 0.13095 0.2716 0.0
H198 H 0.22186 0.10513 0.33195 0.0
H199 H 0.08731 0.1455 0.33768 0.0
H200 H 0.04665 0.11395 0.33754 0.0
H201 H 0.06388 0.1326 0.29594 0.0
H202 H 0.06781 0.06865 0.27102 0.0
H203 H 0.05053 0.04979 0.31254 0.0
H204 H 0.09382 0.0378 0.29578 0.0
H205 H 0.19779 0.08153 0.39099 0.0
H206 H 0.16246 0.05785 0.4432 0.0
H207 H 0.06009 0.06236 0.38192 0.0
C208 C 0.13811 0.11893 0.26745 0.0
C209 C 0.17455 0.12875 0.25628 0.0
C210 C 0.20472 0.12329 0.27966 0.0
C211 C 0.19876 0.10882 0.31397 0.0
C212 C 0.16247 0.0996 0.32428 0.0
C213 C 0.13267 0.10408 0.3016 0.0
C214 C 0.09648 0.09166 0.3191 0.0
C215 C 0.07216 0.12278 0.32279 0.0
C216 C 0.07596 0.0601 0.29837 0.0
C217 C 0.11057 0.07986 0.35531 0.0
C218 C 0.1487 0.08487 0.35785 0.0
C219 C 0.16794 0.07716 0.38922 0.0
C220 C 0.14765 0.06385 0.41874 0.0
C221 C 0.10858 0.05802 0.41652 0.0
C222 C 0.08996 0.06608 0.38429 0.0
H223 H 0.44024 0.86829 0.7325 0.0
H224 H 0.41231 0.96633 0.68096 0.0
H225 H 0.44155 0.0015 0.73158 0.0
H226 H 0.42134 0.89296 0.82016 0.0
H227 H 0.45898 0.8723 0.84136 0.0
H228 H 0.43908 0.85482 0.79964 0.0
H229 H 0.50355 0.86235 0.77078 0.0
H230 H 0.52374 0.87969 0.81252 0.0
H231 H 0.53011 0.90549 0.77191 0.0
H232 H 0.46868 0.0254 0.78898 0.0
H233 H 0.49349 0.03746 0.85001 0.0
H234 H 0.50527 0.92416 0.86498 0.0
C235 C 0.44107 0.89722 0.73153 0.0
C236 C 0.42409 0.91467 0.70283 0.0
C237 C 0.42494 0.95248 0.70284 0.0
C238 C 0.44165 0.97266 0.73133 0.0
C239 C 0.45752 0.95461 0.75949 0.0
C240 C 0.45762 0.91779 0.75982 0.0
C241 C 0.4748 0.90502 0.79439 0.0
C242 C 0.44688 0.87979 0.8151 0.0
C243 C 0.51016 0.88708 0.78695 0.0
C244 C 0.48358 0.94038 0.81375 0.0
C245 C 0.47354 0.96858 0.79293 0.0
C246 C 0.47704 0.00364 0.80543 0.0
C247 C 0.49099 0.01014 0.84025 0.0
C248 C 0.50134 0.98173 0.86229 0.0
C249 C 0.49797 0.94643 0.84863 0.0
H250 H 0.62076 0.50839 0.79796 0.0
H251 H 0.55892 0.41096 0.83419 0.0
H252 H 0.52572 0.40529 0.77548 0.0
H253 H 0.54549 0.54224 0.74286 0.0
H254 H 0.57676 0.55946 0.70872 0.0
H255 H 0.59269 0.55762 0.75472 0.0
H256 H 0.64551 0.52051 0.73541 0.0
H257 H 0.62959 0.52198 0.68946 0.0
H258 H 0.63434 0.47943 0.71081 0.0
H259 H 0.50357 0.40752 0.71145 0.0
H260 H 0.49261 0.4181 0.64695 0.0
H261 H 0.56864 0.51469 0.65262 0.0
C262 C 0.59944 0.48649 0.79375 0.0
C263 C 0.5915 0.4606 0.82069 0.0
C264 C 0.56455 0.43147 0.81402 0.0
C265 C 0.54572 0.42802 0.78081 0.0
C266 C 0.55432 0.45391 0.75465 0.0
C267 C 0.58036 0.48273 0.7608 0.0
C268 C 0.58604 0.50564 0.72752 0.0
C269 C 0.57455 0.54348 0.73384 0.0
C270 C 0.62625 0.50694 0.71508 0.0
C271 C 0.5597 0.48482 0.70148 0.0
C272 C 0.54157 0.45517 0.71768 0.0
C273 C 0.51725 0.43089 0.69857 0.0
C274 C 0.51133 0.43707 0.6619 0.0
C275 C 0.52963 0.46731 0.64471 0.0
C276 C 0.55389 0.49156 0.665 0.0
H277 H 0.93355 0.63682 0.27025 0.0
H278 H 0.8803 0.53882 0.31502 0.0
H279 H 0.91214 0.5033 0.27151 0.0
H280 H 0.92647 0.60928 0.17926 0.0
H281 H 0.97069 0.63131 0.16702 0.0
H282 H 0.94569 0.64871 0.20316 0.0
H283 H 0.0024 0.64466 0.24582 0.0
H284 H 0.02754 0.62708 0.2098 0.0
H285 H 0.02185 0.60246 0.2512 0.0
H286 H 0.94682 0.47906 0.22189 0.0
H287 H 0.98097 0.46687 0.16775 0.0
H288 H 0.01193 0.58088 0.15464 0.0
C289 C 0.9288 0.60787 0.27087 0.0
C290 C 0.90441 0.5903 0.2956 0.0
C291 C 0.89879 0.55249 0.29596 0.0
C292 C 0.91683 0.53223 0.27155 0.0
C293 C 0.94048 0.55033 0.24723 0.0
C294 C 0.94651 0.58727 0.24663 0.0
C295 C 0.97203 0.60007 0.21669 0.0
C296 C 0.95254 0.62373 0.18995 0.0
C297 C 0.00809 0.61972 0.23179 0.0
C298 C 0.97882 0.56455 0.20012 0.0
C299 C 0.96062 0.53625 0.21841 0.0
C300 C 0.96142 0.50094 0.20746 0.0
C301 C 0.98084 0.49434 0.1766 0.0
C302 C 0.99915 0.52294 0.15694 0.0
C303 C 0.99856 0.55845 0.16929 0.0
H304 H 0.28728 0.07374 0.13632 0.0
H305 H 0.24299 0.13518 0.04972 0.0
H306 H 0.29749 0.12606 0.01328 0.0
H307 H 0.38221 0.10715 0.12573 0.0
H308 H 0.39996 0.06502 0.13631 0.0
H309 H 0.35711 0.0757 0.15504 0.0
H310 H 0.32379 0.01709 0.12859 0.0
H311 H 0.36657 0.00619 0.10985 0.0
H312 H 0.32625 0.00842 0.08122 0.0
H313 H 0.35665 0.11017 0.98664 0.0
H314 H 0.41686 0.08951 0.97163 0.0
H315 H 0.42288 0.03909 0.07634 0.0
C316 C 0.28907 0.08495 0.10955 0.0
C317 C 0.2609 0.10458 0.09539 0.0
C318 C 0.26419 0.11959 0.06064 0.0
C319 C 0.29499 0.11461 0.03988 0.0
C320 C 0.32225 0.09486 0.05451 0.0
C321 C 0.31964 0.08033 0.08857 0.0
C322 C 0.35301 0.06076 0.09822 0.0
C323 C 0.37433 0.07821 0.13075 0.0
C324 C 0.34172 0.02074 0.10485 0.0
C325 C 0.3748 0.06649 0.06425 0.0
C326 C 0.35657 0.08617 0.03936 0.0
C327 C 0.37122 0.09476 0.00591 0.0
C328 C 0.40545 0.08287 0.99765 0.0
C329 C 0.42469 0.06269 0.0228 0.0
C330 C 0.409 0.05452 0.05653 0.0
H331 H 0.32344 0.94578 0.61844 0.0
H332 H 0.28688 0.83314 0.63243 0.0
H333 H 0.22276 0.84536 0.61742 0.0
H334 H 0.24339 0.98106 0.65528 0.0
H335 H 0.24275 0.01706 0.62324 0.0
H336 H 0.28582 0.99973 0.63556 0.0
H337 H 0.29767 0.98718 0.56872 0.0
H338 H 0.25471 0.00458 0.55618 0.0
H339 H 0.26325 0.96005 0.5427 0.0
H340 H 0.16317 0.86951 0.60225 0.0
H341 H 0.11132 0.90322 0.58367 0.0
H342 H 0.18606 0.00064 0.57748 0.0
C343 C 0.30183 0.92378 0.61843 0.0
C344 C 0.30996 0.8885 0.62657 0.0
C345 C 0.28118 0.86027 0.62594 0.0
C346 C 0.24473 0.86699 0.61768 0.0
C347 C 0.2376 0.90205 0.60988 0.0
C348 C 0.2653 0.92997 0.60985 0.0
C349 C 0.25014 0.96496 0.5995 0.0
C350 C 0.25586 0.99231 0.63023 0.0
C351 C 0.26747 0.98007 0.5647 0.0
C352 C 0.20957 0.9523 0.59378 0.0
C353 C 0.20304 0.91596 0.60023 0.0
C354 C 0.1679 0.89796 0.59701 0.0
C355 C 0.13858 0.91748 0.5865 0.0
C356 C 0.14451 0.95469 0.57901 0.0
C357 C 0.18057 0.97228 0.58294 0.0
H358 H 0.76701 0.44476 0.89708 0.0
H359 H 0.71557 0.38601 0.98616 0.0
H360 H 0.77391 0.39578 0.02142 0.0
H361 H 0.85303 0.41133 0.90532 0.0
H362 H 0.87995 0.45263 0.89432 0.0
H363 H 0.83333 0.44399 0.87706 0.0
H364 H 0.81603 0.50317 0.90504 0.0
H365 H 0.86279 0.51229 0.92199 0.0
H366 H 0.82469 0.51136 0.95222 0.0
H367 H 0.83897 0.40705 0.04472 0.0
H368 H 0.90559 0.42316 0.05645 0.0
H369 H 0.91413 0.47589 0.95271 0.0
C370 C 0.76775 0.4348 0.92434 0.0
C371 C 0.73686 0.41458 0.93891 0.0
C372 C 0.7391 0.40131 0.97442 0.0
C373 C 0.77203 0.40681 0.99467 0.0
C374 C 0.80232 0.42591 0.97913 0.0
C375 C 0.80038 0.44013 0.94497 0.0
C376 C 0.83739 0.4584 0.93406 0.0
C377 C 0.85176 0.4405 0.90072 0.0
C378 C 0.83508 0.4987 0.92798 0.0
C379 C 0.86054 0.4516 0.96714 0.0
C380 C 0.83979 0.43284 0.99282 0.0
C381 C 0.85546 0.42213 0.02502 0.0
C382 C 0.89334 0.43121 0.03133 0.0
C383 C 0.91504 0.45088 0.00556 0.0
C384 C 0.89826 0.46111 0.97308 0.0
H385 H 0.81694 0.56924 0.44558 0.0
H386 H 0.80293 0.68182 0.46312 0.0
H387 H 0.74321 0.6646 0.49057 0.0
H388 H 0.7262 0.54861 0.41376 0.0
H389 H 0.72107 0.50404 0.43234 0.0
H390 H 0.76615 0.52421 0.42074 0.0
H391 H 0.79016 0.51395 0.48552 0.0
H392 H 0.74509 0.49366 0.49735 0.0
H393 H 0.76655 0.53111 0.52283 0.0
H394 H 0.68294 0.63599 0.51214 0.0
H395 H 0.62434 0.59865 0.5213 0.0
H396 H 0.67351 0.50573 0.48175 0.0
C397 C 0.80162 0.59053 0.45512 0.0
C398 C 0.81548 0.62706 0.45222 0.0
C399 C 0.79411 0.6536 0.46579 0.0
C400 C 0.75975 0.64411 0.48127 0.0
C401 C 0.74666 0.60803 0.48254 0.0
C402 C 0.76674 0.58167 0.46949 0.0
C403 C 0.74455 0.54532 0.47002 0.0
C404 C 0.73917 0.52964 0.43196 0.0
C405 C 0.76267 0.51949 0.49546 0.0
C406 C 0.70849 0.55555 0.48467 0.0
C407 C 0.71071 0.5917 0.4926 0.0
C408 C 0.6809 0.60764 0.50616 0.0
C409 C 0.64776 0.58617 0.51131 0.0
C410 C 0.64441 0.54933 0.50214 0.0
C411 C 0.6753 0.53383 0.48888 0.0
H412 H 0.15804 0.22083 0.10985 0.0
H413 H 0.14707 0.24374 0.22332 0.0
H414 H 0.11887 0.29856 0.20752 0.0
H415 H 0.18772 0.31221 0.08691 0.0
H416 H 0.16481 0.30987 0.04351 0.0
H417 H 0.18085 0.27015 0.06327 0.0
H418 H 0.11485 0.23767 0.05691 0.0
H419 H 0.09855 0.27732 0.03721 0.0
H420 H 0.0766 0.25745 0.0763 0.0
H421 H 0.0908 0.35026 0.18006 0.0
H422 H 0.07062 0.39938 0.14254 0.0
H423 H 0.10799 0.34834 0.04751 0.0
C424 C 0.15018 0.23731 0.13162 0.0
C425 C 0.15442 0.22699 0.16801 0.0
C426 C 0.14307 0.24975 0.19521 0.0
C427 C 0.12731 0.28138 0.18656 0.0
C428 C 0.12381 0.29058 0.15059 0.0
C429 C 0.13546 0.26961 0.12355 0.0
C430 C 0.13073 0.28697 0.08714 0.0
C431 C 0.16827 0.2953 0.06916 0.0
C432 C 0.10356 0.26345 0.06297 0.0
C433 C 0.11454 0.32099 0.09806 0.0
C434 C 0.11018 0.32209 0.13478 0.0
C435 C 0.09439 0.34993 0.15134 0.0
C436 C 0.08293 0.37758 0.12984 0.0
C437 C 0.08806 0.37758 0.09234 0.0
C438 C 0.10421 0.34903 0.07622 0.0
H439 H 0.65346 0.31207 0.95286 0.0
H440 H 0.62228 0.31705 0.83985 0.0
H441 H 0.59784 0.25347 0.84194 0.0
H442 H 0.68794 0.22622 0.94715 0.0
H443 H 0.67282 0.21246 0.9912 0.0
H444 H 0.68461 0.25921 0.9817 0.0
H445 H 0.61998 0.27361 0.00224 0.0
H446 H 0.60801 0.22694 0.01194 0.0
H447 H 0.57913 0.25032 0.98187 0.0
H448 H 0.57617 0.18915 0.85685 0.0
H449 H 0.56236 0.12848 0.88253 0.0
H450 H 0.61557 0.16443 0.98292 0.0
C451 C 0.64195 0.29997 0.92827 0.0
C452 C 0.63995 0.31996 0.89615 0.0
C453 C 0.62362 0.3028 0.86503 0.0
C454 C 0.60993 0.26652 0.86584 0.0
C455 C 0.61326 0.24762 0.89777 0.0
C456 C 0.62918 0.26372 0.9283 0.0
C457 C 0.63119 0.23722 0.95877 0.0
C458 C 0.67154 0.23357 0.97037 0.0
C459 C 0.6082 0.24765 0.99057 0.0
C460 C 0.61387 0.20355 0.94062 0.0
C461 C 0.60317 0.21019 0.9056 0.0
C462 C 0.58483 0.18355 0.88407 0.0
C463 C 0.57712 0.14929 0.89881 0.0
C464 C 0.58852 0.14193 0.93437 0.0
C465 C 0.60736 0.16931 0.95538 0.0
H466 H 0.92256 0.71915 0.48057 0.0
H467 H 0.92494 0.72712 0.3644 0.0
H468 H 0.95534 0.78838 0.36933 0.0
H469 H 0.9002 0.80829 0.49533 0.0
H470 H 0.92827 0.81504 0.53562 0.0
H471 H 0.90907 0.77062 0.52327 0.0
H472 H 0.97466 0.7489 0.5254 0.0
H473 H 0.99408 0.79331 0.53772 0.0
H474 H 0.01061 0.77168 0.49893 0.0
H475 H 0.98252 0.84938 0.38612 0.0
H476 H 0.00438 0.90719 0.41407 0.0
H477 H 0.98355 0.86083 0.51946 0.0
C478 C 0.92957 0.73375 0.4562 0.0
C479 C 0.92181 0.71803 0.42211 0.0
C480 C 0.93143 0.73813 0.39085 0.0
C481 C 0.94852 0.77308 0.39332 0.0
C482 C 0.95574 0.78774 0.42723 0.0
C483 C 0.9466 0.76883 0.45814 0.0
C484 C 0.95617 0.79156 0.49119 0.0
C485 C 0.92135 0.79668 0.5126 0.0
C486 C 0.98564 0.77539 0.51469 0.0
C487 C 0.97159 0.82627 0.47389 0.0
C488 C 0.97127 0.82334 0.43699 0.0
C489 C 0.98315 0.85202 0.41501 0.0
C490 C 0.99547 0.88477 0.43118 0.0
C491 C 0.99576 0.88861 0.46898 0.0
C492 C 0.98392 0.85876 0.49052 0.0
H493 H 0.48312 0.77034 0.60341 0.0
H494 H 0.38917 0.78727 0.53409 0.0
H495 H 0.39011 0.7261 0.50931 0.0
H496 H 0.53102 0.71871 0.54072 0.0
H497 H 0.54674 0.68913 0.57473 0.0
H498 H 0.53894 0.73438 0.58615 0.0
H499 H 0.49403 0.71047 0.63567 0.0
H500 H 0.50158 0.66514 0.62429 0.0
H501 H 0.45529 0.67863 0.62403 0.0
H502 H 0.40137 0.66305 0.49259 0.0
H503 H 0.42172 0.60259 0.48519 0.0
H504 H 0.50803 0.62708 0.56627 0.0
C505 C 0.46309 0.76118 0.5827 0.0
C506 C 0.43661 0.78351 0.56992 0.0
C507 C 0.41011 0.77059 0.54355 0.0
C508 C 0.41039 0.73597 0.52948 0.0
C509 C 0.43711 0.71464 0.54243 0.0
C510 C 0.46296 0.72674 0.56847 0.0
C511 C 0.48831 0.69833 0.57825 0.0
C512 C 0.52864 0.71089 0.56942 0.0
C513 C 0.48456 0.68751 0.61791 0.0
C514 C 0.47273 0.66834 0.55364 0.0
C515 C 0.44324 0.67825 0.53318 0.0
C516 C 0.42444 0.65498 0.50846 0.0
C517 C 0.43622 0.62069 0.50447 0.0
C518 C 0.46647 0.61 0.52515 0.0
C519 C 0.48477 0.63429 0.55008 0.0
H520 H 0.93168 0.87341 0.78202 0.0
H521 H 0.90386 0.97027 0.83443 0.0
H522 H 0.91847 0.00471 0.77936 0.0
H523 H 0.00965 0.91542 0.73469 0.0
H524 H 0.00076 0.8879 0.69531 0.0
H525 H 0.987 0.87071 0.73861 0.0
H526 H 0.91968 0.85719 0.71449 0.0
H527 H 0.93321 0.87457 0.67117 0.0
H528 H 0.89623 0.89274 0.69438 0.0
H529 H 0.93592 0.02874 0.7184 0.0
H530 H 0.95817 0.04096 0.65702 0.0
H531 H 0.97664 0.92886 0.64552 0.0
C532 C 0.92893 0.9019 0.78207 0.0
C533 C 0.91622 0.91899 0.81251 0.0
C534 C 0.91276 0.95635 0.81124 0.0
C535 C 0.92119 0.97623 0.78014 0.0
C536 C 0.9333 0.95848 0.75055 0.0
C537 C 0.93744 0.92222 0.75132 0.0
C538 C 0.95169 0.90977 0.71612 0.0
C539 C 0.98952 0.89509 0.72152 0.0
C540 C 0.92351 0.88192 0.69797 0.0
C541 C 0.95501 0.94472 0.69552 0.0
C542 C 0.94404 0.97246 0.71572 0.0
C543 C 0.94464 0.00724 0.7023 0.0
C544 C 0.95722 0.0139 0.66739 0.0
C545 C 0.96924 0.98593 0.64645 0.0
C546 C 0.96779 0.9509 0.66081 0.0
H547 H 0.61232 0.09469 0.28799 0.0
H548 H 0.72767 0.12772 0.26802 0.0
H549 H 0.7169 0.11532 0.20342 0.0
H550 H 0.6041 0.02148 0.22665 0.0
H551 H 0.55754 0.02758 0.21195 0.0
H552 H 0.57336 0.04143 0.25631 0.0
H553 H 0.55578 0.10562 0.24338 0.0
H554 H 0.5397 0.09192 0.19902 0.0
H555 H 0.5742 0.12944 0.20468 0.0
H556 H 0.6946 0.09831 0.14221 0.0
H557 H 0.66248 0.07642 0.08682 0.0
H558 H 0.56123 0.05184 0.14563 0.0
C559 C 0.63505 0.09976 0.2698 0.0
C560 C 0.67078 0.11233 0.28268 0.0
C561 C 0.70016 0.11809 0.25845 0.0
C562 C 0.69427 0.1112 0.22182 0.0
C563 C 0.65889 0.09834 0.20996 0.0
C564 C 0.62974 0.09257 0.23309 0.0
C565 C 0.59492 0.07699 0.21336 0.0
C566 C 0.58172 0.03965 0.22794 0.0
C567 C 0.56435 0.10252 0.21522 0.0
C568 C 0.6092 0.07478 0.17559 0.0
C569 C 0.64611 0.08754 0.17437 0.0
C570 C 0.66568 0.08832 0.14274 0.0
C571 C 0.64708 0.07581 0.11138 0.0
C572 C 0.60925 0.06237 0.11177 0.0
C573 C 0.59014 0.06181 0.14444 0.0
H574 H 0.45708 0.61712 0.24294 0.0
H575 H 0.55172 0.58104 0.19004 0.0
H576 H 0.55781 0.53583 0.23787 0.0
H577 H 0.49247 0.61416 0.32889 0.0
H578 H 0.44962 0.59895 0.34995 0.0
H579 H 0.44899 0.62395 0.30881 0.0
H580 H 0.40615 0.57266 0.27904 0.0
H581 H 0.40652 0.54749 0.32028 0.0
H582 H 0.42006 0.52779 0.27915 0.0
H583 H 0.55876 0.50097 0.29547 0.0
H584 H 0.55429 0.47867 0.3577 0.0
H585 H 0.45851 0.53741 0.37279 0.0
C586 C 0.47845 0.59903 0.24102 0.0
C587 C 0.50395 0.6023 0.21293 0.0
C588 C 0.5319 0.57863 0.21138 0.0
C589 C 0.53547 0.55292 0.23834 0.0
C590 C 0.51057 0.55108 0.26639 0.0
C591 C 0.48237 0.5733 0.26771 0.0
C592 C 0.46138 0.56822 0.30226 0.0
C593 C 0.46326 0.6034 0.32373 0.0
C594 C 0.42114 0.55313 0.29472 0.0
C595 C 0.4831 0.54078 0.32086 0.0
C596 C 0.51103 0.53083 0.29955 0.0
C597 C 0.53655 0.50803 0.31213 0.0
C598 C 0.53385 0.49557 0.34759 0.0
C599 C 0.5059 0.50606 0.37014 0.0
C600 C 0.47979 0.52833 0.35614 0.0
H601 H 0.15936 0.41787 0.75603 0.0
H602 H 0.05363 0.35947 0.72898 0.0
H603 H 0.03201 0.36997 0.79005 0.0
H604 H 0.1637 0.38652 0.85045 0.0
H605 H 0.18508 0.42908 0.86631 0.0
H606 H 0.19333 0.41439 0.82147 0.0
H607 H 0.17091 0.47307 0.79598 0.0
H608 H 0.16233 0.48783 0.84064 0.0
H609 H 0.12568 0.48508 0.80713 0.0
H610 H 0.01916 0.39337 0.85026 0.0
H611 H 0.01767 0.423 0.90915 0.0
H612 H 0.133 0.46303 0.89977 0.0
C613 C 0.1319 0.40682 0.76328 0.0
C614 C 0.10813 0.38775 0.73798 0.0
C615 C 0.07236 0.37372 0.74818 0.0
C616 C 0.05983 0.37969 0.78271 0.0
C617 C 0.08365 0.39922 0.80681 0.0
C618 C 0.11916 0.41206 0.79785 0.0
C619 C 0.13871 0.43311 0.82856 0.0
C620 C 0.17219 0.41466 0.84253 0.0
C621 C 0.15006 0.47208 0.8174 0.0
C622 C 0.10823 0.43103 0.85579 0.0
C623 C 0.07669 0.41143 0.84252 0.0
C624 C 0.04387 0.40811 0.86128 0.0
C625 C 0.04323 0.42518 0.89453 0.0
C626 C 0.07531 0.44486 0.90892 0.0
C627 C 0.10836 0.44751 0.88953 0.0
H628 H 0.79366 0.87922 0.87922 0.0
H629 H 0.87103 0.92327 0.96123 0.0
H630 H 0.82027 0.95029 0.99135 0.0
H631 H 0.74157 0.95139 0.87083 0.0
H632 H 0.69727 0.92576 0.8653 0.0
H633 H 0.73863 0.90683 0.85229 0.0
H634 H 0.72289 0.85224 0.8938 0.0
H635 H 0.68112 0.87075 0.90661 0.0
H636 H 0.71418 0.85946 0.9405 0.0
H637 H 0.76339 0.9791 0.00713 0.0
H638 H 0.70227 0.00203 0.01234 0.0
H639 H 0.66053 0.93576 0.92242 0.0
C640 C 0.79951 0.89376 0.90407 0.0
C641 C 0.83586 0.89909 0.91832 0.0
C642 C 0.84307 0.91864 0.95044 0.0
C643 C 0.81452 0.93413 0.96752 0.0
C644 C 0.77898 0.92915 0.95235 0.0
C645 C 0.7712 0.90878 0.92179 0.0
C646 C 0.7309 0.90846 0.91041 0.0
C647 C 0.72689 0.92405 0.87247 0.0
C648 C 0.7111 0.87047 0.913 0.0
C649 C 0.71753 0.93291 0.93855 0.0
C650 C 0.74574 0.94461 0.96242 0.0
C651 C 0.74089 0.96954 0.98909 0.0
C652 C 0.70619 0.98261 0.99166 0.0
C653 C 0.6767 0.97042 0.96795 0.0
C654 C 0.68245 0.94506 0.94124 0.0
H655 H 0.7669 0.13226 0.42562 0.0
H656 H 0.73066 0.03665 0.36402 0.0
H657 H 0.78424 0.00765 0.38732 0.0
H658 H 0.86175 0.13103 0.41381 0.0
H659 H 0.87566 0.14521 0.45863 0.0
H660 H 0.83315 0.15806 0.43915 0.0
H661 H 0.79682 0.12987 0.49285 0.0
H662 H 0.83931 0.1172 0.51271 0.0
H663 H 0.80103 0.08376 0.50463 0.0
H664 H 0.84453 0.99149 0.41149 0.0
H665 H 0.90569 0.98669 0.44011 0.0
H666 H 0.90115 0.09039 0.49028 0.0
C667 C 0.7697 0.10492 0.41769 0.0
C668 C 0.74471 0.08693 0.3926 0.0
C669 C 0.74981 0.05132 0.38256 0.0
C670 C 0.78001 0.03448 0.39586 0.0
C671 C 0.80458 0.05329 0.41972 0.0
C672 C 0.79951 0.08747 0.43109 0.0
C673 C 0.83068 0.10193 0.45633 0.0
C674 C 0.85154 0.13607 0.44105 0.0
C675 C 0.81608 0.10857 0.49386 0.0
C676 C 0.85449 0.07087 0.45657 0.0
C677 C 0.83887 0.04317 0.43514 0.0
C678 C 0.85676 0.01267 0.42888 0.0
C679 C 0.89154 0.0103 0.44504 0.0
C680 C 0.90786 0.03804 0.46755 0.0
C681 C 0.88892 0.06856 0.47366 0.0
H682 H 0.3596 0.60519 0.0539 0.0
H683 H 0.3592 0.60721 0.17006 0.0
H684 H 0.29432 0.5801 0.16896 0.0
H685 H 0.26861 0.62692 0.03809 0.0
H686 H 0.25879 0.59695 0.00066 0.0
H687 H 0.30563 0.61489 0.01051 0.0
H688 H 0.32602 0.55063 0.01449 0.0
H689 H 0.27925 0.53246 0.00437 0.0
H690 H 0.30265 0.51859 0.04441 0.0
H691 H 0.22815 0.55952 0.15495 0.0
H692 H 0.16635 0.53948 0.12935 0.0
H693 H 0.21076 0.54531 0.02233 0.0
C694 C 0.34585 0.59938 0.07902 0.0
C695 C 0.36406 0.60811 0.11211 0.0
C696 C 0.34556 0.60035 0.14455 0.0
C697 C 0.30879 0.58513 0.14414 0.0
C698 C 0.29134 0.57727 0.11106 0.0
C699 C 0.30942 0.58345 0.07909 0.0
C700 C 0.28424 0.57251 0.04726 0.0
C701 C 0.27902 0.60474 0.0227 0.0
C702 C 0.29892 0.54171 0.02641 0.0
C703 C 0.24889 0.56005 0.06628 0.0
C704 C 0.25358 0.56336 0.10307 0.0
C705 C 0.2243 0.55613 0.12627 0.0
C706 C 0.18934 0.54499 0.11151 0.0
C707 C 0.18414 0.54058 0.07403 0.0
C708 C 0.21433 0.54792 0.05114 0.0
H709 H 0.22107 0.49461 0.57379 0.0
H710 H 0.21663 0.39795 0.63798 0.0
H711 H 0.26784 0.3771 0.60369 0.0
H712 H 0.25268 0.45464 0.48743 0.0
H713 H 0.28275 0.49455 0.47836 0.0
H714 H 0.24017 0.49772 0.50158 0.0
H715 H 0.27665 0.53104 0.55397 0.0
H716 H 0.3191 0.52801 0.53099 0.0
H717 H 0.31401 0.5105 0.57585 0.0
H718 H 0.32582 0.37215 0.57107 0.0
H719 H 0.38733 0.38446 0.54473 0.0
H720 H 0.35529 0.4849 0.50191 0.0
C721 C 0.2301 0.46849 0.57966 0.0
C722 C 0.2146 0.4475 0.60799 0.0
C723 C 0.22769 0.41398 0.61581 0.0
C724 C 0.25671 0.40195 0.59644 0.0
C725 C 0.27225 0.42377 0.56931 0.0
C726 C 0.25929 0.45632 0.5608 0.0
C727 C 0.28412 0.47708 0.53434 0.0
C728 C 0.26371 0.48123 0.49828 0.0
C729 C 0.29937 0.51379 0.54973 0.0
C730 C 0.31423 0.45213 0.53097 0.0
C731 C 0.30637 0.4211 0.5506 0.0
C732 C 0.33191 0.39591 0.55492 0.0
C733 C 0.36684 0.40318 0.53993 0.0
C734 C 0.37603 0.43554 0.52107 0.0
C735 C 0.34881 0.45956 0.51543 0.0
H736 H 0.94116 0.7228 0.87509 0.0
H737 H 0.96882 0.80321 0.95716 0.0
H738 H 0.00394 0.76053 0.99106 0.0
H739 H 0.92522 0.65028 0.93473 0.0
H740 H 0.94388 0.61807 0.90618 0.0
H741 H 0.92416 0.65605 0.88673 0.0
H742 H 0.98529 0.67406 0.85389 0.0
H743 H 0.00523 0.63608 0.87329 0.0
H744 H 0.02811 0.68051 0.87939 0.0
H745 H 0.03352 0.70798 0.01745 0.0
H746 H 0.05219 0.64896 0.03587 0.0
H747 H 0.00378 0.60246 0.9371 0.0
C748 C 0.95533 0.7316 0.89982 0.0
C749 C 0.9533 0.76665 0.91284 0.0
C750 C 0.9709 0.77686 0.94605 0.0
C751 C 0.99087 0.75276 0.96555 0.0
C752 C 0.99256 0.71846 0.95173 0.0
C753 C 0.97511 0.70784 0.9197 0.0
C754 C 0.97889 0.66875 0.91197 0.0
C755 C 0.94078 0.64702 0.90979 0.0
C756 C 0.00069 0.66462 0.8776 0.0
C757 C 0.0008 0.65888 0.9449 0.0
C758 C 0.00875 0.68798 0.96734 0.0
C759 C 0.02766 0.68505 -3e-05 0.0
C760 C 0.03819 0.65138 0.01017 0.0
C761 C 0.02956 0.62096 0.98795 0.0
C762 C 0.01107 0.62511 0.95466 0.0
H763 H 0.49488 0.71723 0.05821 0.0
H764 H 0.39718 0.73253 0.11895 0.0
H765 H 0.40546 0.79737 0.10619 0.0
H766 H 0.5483 0.79739 0.08519 0.0
H767 H 0.56841 0.80669 0.04202 0.0
H768 H 0.55439 0.76117 0.05486 0.0
H769 H 0.5127 0.75281 0.99768 0.0
H770 H 0.52681 0.79825 0.98453 0.0
H771 H 0.4784 0.78355 0.9887 0.0
H772 H 0.42683 0.86059 0.09117 0.0
H773 H 0.45636 0.9183 0.0693 0.0
H774 H 0.53824 0.86239 0.01491 0.0
C775 C 0.47512 0.73429 0.06847 0.0
C776 C 0.44528 0.71998 0.08939 0.0
C777 C 0.41991 0.74298 0.10246 0.0
C778 C 0.42452 0.77982 0.09555 0.0
C779 C 0.45438 0.79319 0.07516 0.0
C780 C 0.47895 0.77116 0.0613 0.0
C781 C 0.50852 0.79255 0.03998 0.0
C782 C 0.54719 0.78925 0.05651 0.0
C783 C 0.50647 0.78111 0.00037 0.0
C784 C 0.497 0.83005 0.04453 0.0
C785 C 0.46589 0.82976 0.0652 0.0
C786 C 0.45094 0.86117 0.07459 0.0
C787 C 0.46803 0.89381 0.06221 0.0
C788 C 0.49943 0.89476 0.04028 0.0
C789 C 0.514 0.86239 0.0313 0.0
H790 H 0.14231 0.28313 0.65929 0.0
H791 H 0.07697 0.34249 0.5858 0.0
H792 H 0.05512 0.28634 0.55424 0.0
H793 H 0.16949 0.21951 0.59173 0.0
H794 H 0.1673 0.18247 0.62275 0.0
H795 H 0.17892 0.22751 0.63883 0.0
H796 H 0.12523 0.21928 0.68357 0.0
H797 H 0.11332 0.17433 0.66752 0.0
H798 H 0.07899 0.20598 0.667 0.0
H799 H 0.03545 0.22396 0.5349 0.0
H800 H 0.02404 0.15885 0.52421 0.0
H801 H 0.10586 0.13934 0.60649 0.0
C802 C 0.12373 0.28418 0.63629 0.0
C803 C 0.1113 0.31699 0.6248 0.0
C804 C 0.08702 0.31759 0.59468 0.0
C805 C 0.07438 0.28587 0.57673 0.0
C806 C 0.08679 0.25389 0.5889 0.0
C807 C 0.1114 0.25278 0.61756 0.0
C808 C 0.12027 0.2147 0.62504 0.0
C809 C 0.16144 0.21083 0.61923 0.0
C810 C 0.10876 0.20289 0.66304 0.0
C811 C 0.09611 0.19455 0.59664 0.0
C812 C 0.07685 0.21777 0.57633 0.0
C813 C 0.05084 0.20554 0.55014 0.0
C814 C 0.04442 0.16859 0.5444 0.0
C815 C 0.06436 0.14435 0.56429 0.0
C816 C 0.09078 0.15749 0.59053 0.0
H817 H 0.61915 0.23169 0.3888 0.0
H818 H 0.58458 0.16352 0.47839 0.0
H819 H 0.56321 0.21572 0.50952 0.0
H820 H 0.65299 0.30959 0.44177 0.0
H821 H 0.63702 0.34105 0.40974 0.0
H822 H 0.64984 0.29841 0.39475 0.0
H823 H 0.58536 0.28491 0.36408 0.0
H824 H 0.57233 0.32747 0.37898 0.0
H825 H 0.54441 0.2868 0.39017 0.0
H826 H 0.54421 0.27466 0.52991 0.0
H827 H 0.52929 0.3367 0.53894 0.0
H828 H 0.57809 0.36721 0.43675 0.0
C829 C 0.60747 0.22792 0.41516 0.0
C830 C 0.60415 0.19381 0.43163 0.0
C831 C 0.5879 0.1896 0.46569 0.0
C832 C 0.57568 0.21903 0.48349 0.0
C833 C 0.57986 0.2524 0.46676 0.0
C834 C 0.59544 0.25705 0.43341 0.0
C835 C 0.59643 0.2957 0.42123 0.0
C836 C 0.63645 0.31215 0.41661 0.0
C837 C 0.57324 0.29889 0.38657 0.0
C838 C 0.57871 0.31204 0.45285 0.0
C839 C 0.56929 0.28655 0.47874 0.0
C840 C 0.55163 0.2949 0.50993 0.0
C841 C 0.5432 0.33023 0.51475 0.0
C842 C 0.55262 0.35688 0.48861 0.0
C843 C 0.57086 0.34756 0.45738 0.0
loop_
_geom_bond_atom_site_label_1
_geom_bond_atom_site_label_2
_geom_bond_distance
_geom_bond_site_symmetry_2
_ccdc_geom_bond_type
H0 C7 0.929 . S
H1 C10 0.930 . S
H2 C12 0.929 . S
H3 C4 0.969 . S
C4 H3 0.969 . S
C4 O5 1.550 . S
C4 H6 0.973 . S
O5 C4 1.550 . S
O5 C11 1.412 . S
H6 C4 0.973 . S
C7 H0 0.929 . S
C7 C8 1.400 . S
C7 C9 1.364 . S
C8 C7 1.400 . S
C8 C12 1.377 . S
C9 C7 1.364 . S
C9 C10 1.374 . S
C10 H1 0.930 . S
C10 C9 1.374 . S
C10 C11 1.383 . S
C11 O5 1.412 . S
C11 C10 1.383 . S
C11 C12 1.394 . S
C12 H2 0.929 . S
C12 C8 1.377 . S
C12 C11 1.394 . S
H13 C20 0.929 . S
H14 C23 0.930 . S
H15 C25 0.929 . S
H16 C17 0.969 . S
C17 H16 0.969 . S
C17 O18 1.550 . S
C17 H19 0.973 . S
O18 C17 1.550 . S
O18 C24 1.412 . S
H19 C17 0.973 . S
C20 H13 0.929 . S
C20 C21 1.400 . S
C20 C22 1.364 . S
C21 C20 1.400 . S
C21 C25 1.377 . S
C22 C20 1.364 . S
C22 C23 1.374 . S
C23 H14 0.930 . S
C23 C22 1.374 . S
C23 C24 1.383 . S
C24 O18 1.412 . S
C24 C23 1.383 . S
C24 C25 1.394 . S
C25 H15 0.929 . S
C25 C21 1.377 . S
C25 C24 1.394 . S
H26 C33 0.929 . S
H27 C36 0.930 . S
H28 C38 0.929 . S
H29 C30 0.969 . S
C30 H29 0.969 . S
C30 O31 1.550 . S
C30 H32 0.973 . S
O31 C30 1.550 . S
O31 C37 1.412 . S
H32 C30 0.973 . S
C33 H26 0.929 . S
C33 C34 1.400 . S
C33 C35 1.364 . S
C34 C33 1.400 . S
C34 C38 1.377 . S
C35 C33 1.364 . S
C35 C36 1.374 . S
C36 H27 0.930 . S
C36 C35 1.374 . S
C36 C37 1.383 . S
C37 O31 1.412 . S
C37 C36 1.383 . S
C37 C38 1.394 . S
C38 H28 0.929 . S
C38 C34 1.377 . S
C38 C37 1.394 . S
H39 C46 0.929 . S
H40 C49 0.930 . S
H41 C51 0.929 . S
H42 C43 0.969 . S
C43 H42 0.969 . S
C43 O44 1.550 . S
C43 H45 0.973 . S
O44 C43 1.550 . S
O44 C50 1.412 . S
H45 C43 0.973 . S
C46 H39 0.929 . S
C46 C47 1.400 . S
C46 C48 1.364 . S
C47 C46 1.400 . S
C47 C51 1.377 . S
C48 C46 1.364 . S
C48 C49 1.374 . S
C49 H40 0.930 . S
C49 C48 1.374 . S
C49 C50 1.383 . S
C50 O44 1.412 . S
C50 C49 1.383 . S
C50 C51 1.394 . S
C51 H41 0.929 . S
C51 C47 1.377 . S
C51 C50 1.394 . S
H52 C59 0.929 . S
H53 C62 0.930 . S
H54 C64 0.929 . S
H55 C56 0.969 . S
C56 H55 0.969 . S
C56 O57 1.550 . S
C56 H58 0.973 . S
O57 C56 1.550 . S
O57 C63 1.412 . S
H58 C56 0.973 . S
C59 H52 0.929 . S
C59 C60 1.400 . S
C59 C61 1.364 . S
C60 C59 1.400 . S
C60 C64 1.377 . S
C61 C59 1.364 . S
C61 C62 1.374 . S
C62 H53 0.930 . S
C62 C61 1.374 . S
C62 C63 1.383 . S
C63 O57 1.412 . S
C63 C62 1.383 . S
C63 C64 1.394 . S
C64 H54 0.929 . S
C64 C60 1.377 . S
C64 C63 1.394 . S
H65 C72 0.929 . S
H66 C75 0.930 . S
H67 C77 0.929 . S
H68 C69 0.969 . S
C69 H68 0.969 . S
C69 O70 1.550 . S
C69 H71 0.973 . S
O70 C69 1.550 . S
O70 C76 1.412 . S
H71 C69 0.973 . S
C72 H65 0.929 . S
C72 C73 1.400 . S
C72 C74 1.364 . S
C73 C72 1.400 . S
C73 C77 1.377 . S
C74 C72 1.364 . S
C74 C75 1.374 . S
C75 H66 0.930 . S
C75 C74 1.374 . S
C75 C76 1.383 . S
C76 O70 1.412 . S
C76 C75 1.383 . S
C76 C77 1.394 . S
C77 H67 0.929 . S
C77 C73 1.377 . S
C77 C76 1.394 . S
H78 C85 0.929 . S
H79 C88 0.930 . S
H80 C90 0.929 . S
H81 C82 0.969 . S
C82 H81 0.969 . S
C82 O83 1.550 . S
C82 H84 0.973 . S
O83 C82 1.550 . S
O83 C89 1.412 . S
H84 C82 0.973 . S
C85 H78 0.929 . S
C85 C86 1.400 . S
C85 C87 1.364 . S
C86 C85 1.400 . S
C86 C90 1.377 . S
C87 C85 1.364 . S
C87 C88 1.374 . S
C88 H79 0.930 . S
C88 C87 1.374 . S
C88 C89 1.383 . S
C89 O83 1.412 . S
C89 C88 1.383 . S
C89 C90 1.394 . S
C90 H80 0.929 . S
C90 C86 1.377 . S
C90 C89 1.394 . S
H91 C98 0.929 . S
H92 C101 0.930 . S
H93 C103 0.929 . S
H94 C95 0.969 . S
C95 H94 0.969 . S
C95 O96 1.550 . S
C95 H97 0.973 . S
O96 C95 1.550 . S
O96 C102 1.412 . S
H97 C95 0.973 . S
C98 H91 0.929 . S
C98 C99 1.400 . S
C98 C100 1.364 . S
C99 C98 1.400 . S
C99 C103 1.377 . S
C100 C98 1.364 . S
C100 C101 1.374 . S
C101 H92 0.930 . S
C101 C100 1.374 . S
C101 C102 1.383 . S
C102 O96 1.412 . S
C102 C101 1.383 . S
C102 C103 1.394 . S
C103 H93 0.929 . S
C103 C99 1.377 . S
C103 C102 1.394 . S
O104 Zn105 1.953 1_455 S
O104 C120 1.225 . S
Zn105 O104 1.953 1_655 S
Zn105 O106 1.949 1_655 S
Zn105 O112 1.919 . S
Zn105 O117 1.924 . S
O106 Zn105 1.949 1_455 S
O106 Zn107 1.924 1_455 S
O106 Zn108 1.950 . S
O106 Zn109 1.945 1_545 S
Zn107 O106 1.924 1_655 S
Zn107 O110 1.929 1_545 S
Zn107 O113 1.944 . S
Zn107 O114 1.967 1_655 S
Zn108 O106 1.950 . S
Zn108 O115 1.938 . S
Zn108 O116 1.906 . S
Zn108 O126 1.953 . S
Zn109 O106 1.945 1_565 S
Zn109 O111 1.932 1_455 S
Zn109 O118 1.977 . S
Zn109 O119 1.911 1_455 S
O110 Zn107 1.929 1_565 S
O110 C121 1.226 . S
O111 Zn109 1.932 1_655 S
O111 C121 1.307 . S
O112 Zn105 1.919 . S
O112 C123 1.253 . S
O113 Zn107 1.944 . S
O113 C123 1.283 . S
O114 Zn107 1.967 1_455 S
O114 C122 1.303 . S
O115 Zn108 1.938 . S
O115 C122 1.247 . S
O116 Zn108 1.906 . S
O116 C124 1.304 1_545 S
O117 Zn105 1.924 . S
O117 C125 1.311 . S
O118 Zn109 1.977 . S
O118 C124 1.272 . S
O119 Zn109 1.911 1_655 S
O119 C125 1.230 1_565 S
C120 O104 1.225 . S
C120 O126 1.298 . S
C121 O110 1.226 . S
C121 O111 1.307 . S
C122 O114 1.303 . S
C122 O115 1.247 . S
C123 O112 1.253 . S
C123 O113 1.283 . S
C124 O116 1.304 1_565 S
C124 O118 1.272 . S
C125 O117 1.311 . S
C125 O119 1.230 1_545 S
O126 Zn108 1.953 . S
O126 C120 1.298 . S
O127 Zn128 1.953 . S
O127 C143 1.225 . S
Zn128 O127 1.953 . S
Zn128 O129 1.949 1_556 S
Zn128 O135 1.919 . S
Zn128 O140 1.924 . S
O129 Zn128 1.949 1_554 S
O129 Zn130 1.923 1_544 S
O129 Zn131 1.950 . S
O129 Zn132 1.945 1_545 S
Zn130 O129 1.923 1_566 S
Zn130 O133 1.933 1_556 S
Zn130 O136 1.941 . S
Zn130 O137 1.965 . S
Zn131 O129 1.950 . S
Zn131 O138 1.938 . S
Zn131 O139 1.906 . S
Zn131 O149 1.953 . S
Zn132 O129 1.945 1_565 S
Zn132 O134 1.932 . S
Zn132 O141 1.977 1_565 S
Zn132 O142 1.910 1_565 S
O133 Zn130 1.933 1_554 S
O133 C144 1.226 . S
O134 Zn132 1.932 . S
O134 C144 1.307 . S
O135 Zn128 1.919 . S
O135 C146 1.253 1_545 S
O136 Zn130 1.941 . S
O136 C146 1.283 . S
O137 Zn130 1.965 . S
O137 C145 1.303 . S
O138 Zn131 1.938 . S
O138 C145 1.247 1_544 S
O139 Zn131 1.906 . S
O139 C147 1.304 . S
O140 Zn128 1.924 . S
O140 C148 1.311 1_556 S
O141 Zn132 1.977 1_545 S
O141 C147 1.272 . S
O142 Zn132 1.910 1_545 S
O142 C148 1.231 . S
C143 O127 1.225 . S
C143 O149 1.298 1_556 S
C144 O133 1.226 . S
C144 O134 1.307 . S
C145 O137 1.303 . S
C145 O138 1.247 1_566 S
C146 O135 1.253 1_565 S
C146 O136 1.283 . S
C147 O139 1.304 . S
C147 O141 1.272 . S
C148 O140 1.311 1_554 S
C148 O142 1.231 . S
O149 Zn131 1.953 . S
O149 C143 1.298 1_554 S
O150 Zn151 1.953 . S
O150 C166 1.225 . S
Zn151 O150 1.953 . S
Zn151 O152 1.949 . S
Zn151 O158 1.919 . S
Zn151 O163 1.924 . S
O152 Zn151 1.949 . S
O152 Zn153 1.923 . S
O152 Zn154 1.950 . S
O152 Zn155 1.945 . S
Zn153 O152 1.923 . S
Zn153 O156 1.933 . S
Zn153 O159 1.941 . S
Zn153 O160 1.965 . S
Zn154 O152 1.950 . S
Zn154 O161 1.938 . S
Zn154 O162 1.906 . S
Zn154 O172 1.953 . S
Zn155 O152 1.945 . S
Zn155 O157 1.932 . S
Zn155 O164 1.977 . S
Zn155 O165 1.910 . S
O156 Zn153 1.933 . S
O156 C167 1.226 . S
O157 Zn155 1.932 . S
O157 C167 1.307 . S
O158 Zn151 1.919 . S
O158 C169 1.253 . S
O159 Zn153 1.941 . S
O159 C169 1.283 . S
O160 Zn153 1.965 . S
O160 C168 1.303 . S
O161 Zn154 1.938 . S
O161 C168 1.247 . S
O162 Zn154 1.906 . S
O162 C170 1.304 . S
O163 Zn151 1.924 . S
O163 C171 1.311 . S
O164 Zn155 1.977 . S
O164 C170 1.272 . S
O165 Zn155 1.910 . S
O165 C171 1.231 . S
C166 O150 1.225 . S
C166 O172 1.298 . S
C167 O156 1.226 . S
C167 O157 1.307 . S
C168 O160 1.303 . S
C168 O161 1.247 . S
C169 O158 1.253 . S
C169 O159 1.283 . S
C170 O162 1.304 . S
C170 O164 1.272 . S
C171 O163 1.311 . S
C171 O165 1.231 . S
O172 Zn154 1.953 . S
O172 C166 1.298 . S
O173 Zn174 1.953 1_655 S
O173 C189 1.225 1_655 S
Zn174 O173 1.953 1_455 S
Zn174 O175 1.949 . S
Zn174 O181 1.919 1_455 S
Zn174 O186 1.924 . S
O175 Zn174 1.949 . S
O175 Zn176 1.923 1_554 S
O175 Zn177 1.950 . S
O175 Zn178 1.945 . S
Zn176 O175 1.923 1_556 S
Zn176 O179 1.933 . S
Zn176 O182 1.941 1_455 S
Zn176 O183 1.965 . S
Zn177 O175 1.950 . S
Zn177 O184 1.938 . S
Zn177 O185 1.906 . S
Zn177 O195 1.953 . S
Zn178 O175 1.945 . S
Zn178 O180 1.932 1_554 S
Zn178 O187 1.977 . S
Zn178 O188 1.910 . S
O179 Zn176 1.933 . S
O179 C190 1.226 . S
O180 Zn178 1.932 1_556 S
O180 C190 1.307 . S
O181 Zn174 1.919 1_655 S
O181 C192 1.253 1_554 S
O182 Zn176 1.941 1_655 S
O182 C192 1.283 . S
O183 Zn176 1.965 . S
O183 C191 1.303 . S
O184 Zn177 1.938 . S
O184 C191 1.247 1_554 S
O185 Zn177 1.906 . S
O185 C193 1.304 . S
O186 Zn174 1.924 . S
O186 C194 1.311 . S
O187 Zn178 1.977 . S
O187 C193 1.272 . S
O188 Zn178 1.910 . S
O188 C194 1.231 . S
C189 O173 1.225 1_455 S
C189 O195 1.298 . S
C190 O179 1.226 . S
C190 O180 1.307 . S
C191 O183 1.303 . S
C191 O184 1.247 1_556 S
C192 O181 1.253 1_556 S
C192 O182 1.283 . S
C193 O185 1.304 . S
C193 O187 1.272 . S
C194 O186 1.311 . S
C194 O188 1.231 . S
O195 Zn177 1.953 . S
O195 C189 1.298 . S
H196 C208 0.930 . S
H197 C210 0.930 . S
H198 C211 0.930 . S
H199 C215 0.959 . S
H200 C215 0.959 . S
H201 C215 0.961 . S
H202 C216 0.960 . S
H203 C216 0.961 . S
H204 C216 0.959 . S
H205 C219 0.929 . S
H206 C220 0.931 . S
H207 C222 0.930 . S
C208 H196 0.930 . S
C208 C209 1.399 . S
C208 C213 1.399 . S
C209 C208 1.399 . S
C209 C210 1.376 . S
C210 H197 0.930 . S
C210 C209 1.376 . S
C210 C211 1.388 . S
C211 H198 0.930 . S
C211 C210 1.388 . S
C211 C212 1.390 . S
C212 C211 1.390 . S
C212 C213 1.394 . S
C212 C218 1.465 . S
C213 C208 1.399 . S
C213 C212 1.394 . S
C213 C214 1.516 . S
C214 C213 1.516 . S
C214 C215 1.502 . S
C214 C216 1.561 . S
C214 C217 1.526 . S
C215 H199 0.959 . S
C215 H200 0.959 . S
C215 H201 0.961 . S
C215 C214 1.502 . S
C216 H202 0.960 . S
C216 H203 0.961 . S
C216 H204 0.959 . S
C216 C214 1.561 . S
C217 C214 1.526 . S
C217 C218 1.396 . S
C217 C222 1.390 . S
C218 C212 1.465 . S
C218 C217 1.396 . S
C218 C219 1.399 . S
C219 H205 0.929 . S
C219 C218 1.399 . S
C219 C220 1.385 . S
C220 H206 0.931 . S
C220 C219 1.385 . S
C220 C221 1.389 . S
C221 C220 1.389 . S
C221 C222 1.387 . S
C222 H207 0.930 . S
C222 C217 1.390 . S
C222 C221 1.387 . S
H223 C235 0.930 . S
H224 C237 0.930 . S
H225 C238 0.930 . S
H226 C242 0.959 . S
H227 C242 0.959 . S
H228 C242 0.961 . S
H229 C243 0.960 . S
H230 C243 0.961 . S
H231 C243 0.959 . S
H232 C246 0.929 1_545 S
H233 C247 0.931 1_545 S
H234 C249 0.930 . S
C235 H223 0.930 . S
C235 C236 1.399 . S
C235 C240 1.399 . S
C236 C235 1.399 . S
C236 C237 1.376 . S
C237 H224 0.930 . S
C237 C236 1.376 . S
C237 C238 1.388 . S
C238 H225 0.930 . S
C238 C237 1.388 . S
C238 C239 1.390 . S
C239 C238 1.390 . S
C239 C240 1.394 . S
C239 C245 1.465 . S
C240 C235 1.399 . S
C240 C239 1.394 . S
C240 C241 1.516 . S
C241 C240 1.516 . S
C241 C242 1.502 . S
C241 C243 1.561 . S
C241 C244 1.526 . S
C242 H226 0.959 . S
C242 H227 0.959 . S
C242 H228 0.961 . S
C242 C241 1.502 . S
C243 H229 0.960 . S
C243 H230 0.961 . S
C243 H231 0.959 . S
C243 C241 1.561 . S
C244 C241 1.526 . S
C244 C245 1.396 . S
C244 C249 1.390 . S
C245 C239 1.465 . S
C245 C244 1.396 . S
C245 C246 1.399 . S
C246 H232 0.929 1_565 S
C246 C245 1.399 . S
C246 C247 1.385 . S
C247 H233 0.931 1_565 S
C247 C246 1.385 . S
C247 C248 1.389 . S
C248 C247 1.389 . S
C248 C249 1.387 . S
C249 H234 0.930 . S
C249 C244 1.390 . S
C249 C248 1.387 . S
H250 C262 0.930 . S
H251 C264 0.930 . S
H252 C265 0.930 . S
H253 C269 0.959 . S
H254 C269 0.959 . S
H255 C269 0.961 . S
H256 C270 0.960 . S
H257 C270 0.961 . S
H258 C270 0.959 . S
H259 C273 0.929 . S
H260 C274 0.931 . S
H261 C276 0.930 . S
C262 H250 0.930 . S
C262 C263 1.399 . S
C262 C267 1.399 . S
C263 C262 1.399 . S
C263 C264 1.376 . S
C264 H251 0.930 . S
C264 C263 1.376 . S
C264 C265 1.388 . S
C265 H252 0.930 . S
C265 C264 1.388 . S
C265 C266 1.390 . S
C266 C265 1.390 . S
C266 C267 1.394 . S
C266 C272 1.465 . S
C267 C262 1.399 . S
C267 C266 1.394 . S
C267 C268 1.516 . S
C268 C267 1.516 . S
C268 C269 1.502 . S
C268 C270 1.561 . S
C268 C271 1.526 . S
C269 H253 0.959 . S
C269 H254 0.959 . S
C269 H255 0.961 . S
C269 C268 1.502 . S
C270 H256 0.960 . S
C270 H257 0.961 . S
C270 H258 0.959 . S
C270 C268 1.561 . S
C271 C268 1.526 . S
C271 C272 1.396 . S
C271 C276 1.390 . S
C272 C266 1.465 . S
C272 C271 1.396 . S
C272 C273 1.399 . S
C273 H259 0.929 . S
C273 C272 1.399 . S
C273 C274 1.385 . S
C274 H260 0.931 . S
C274 C273 1.385 . S
C274 C275 1.389 . S
C275 C274 1.389 . S
C275 C276 1.387 . S
C276 H261 0.930 . S
C276 C271 1.390 . S
C276 C275 1.387 . S
H277 C289 0.930 1_455 S
H278 C291 0.930 . S
H279 C292 0.930 . S
H280 C296 0.959 . S
H281 C296 0.959 . S
H282 C296 0.961 . S
H283 C297 0.960 . S
H284 C297 0.961 . S
H285 C297 0.959 . S
H286 C300 0.929 . S
H287 C301 0.931 . S
H288 C303 0.930 . S
C289 H277 0.930 1_655 S
C289 C290 1.399 . S
C289 C294 1.399 . S
C290 C289 1.399 . S
C290 C291 1.376 . S
C291 H278 0.930 . S
C291 C290 1.376 . S
C291 C292 1.388 . S
C292 H279 0.930 . S
C292 C291 1.388 . S
C292 C293 1.390 . S
C293 C292 1.390 . S
C293 C294 1.394 . S
C293 C299 1.465 . S
C294 C289 1.399 . S
C294 C293 1.394 . S
C294 C295 1.516 1_655 S
C295 C294 1.516 1_455 S
C295 C296 1.502 . S
C295 C297 1.561 . S
C295 C298 1.526 . S
C296 H280 0.959 . S
C296 H281 0.959 . S
C296 H282 0.961 . S
C296 C295 1.502 . S
C297 H283 0.960 . S
C297 H284 0.961 . S
C297 H285 0.959 . S
C297 C295 1.561 . S
C298 C295 1.526 . S
C298 C299 1.396 1_455 S
C298 C303 1.390 . S
C299 C293 1.465 . S
C299 C298 1.396 1_655 S
C299 C300 1.399 . S
C300 H286 0.929 . S
C300 C299 1.399 . S
C300 C301 1.385 . S
C301 H287 0.931 . S
C301 C300 1.385 . S
C301 C302 1.389 . S
C302 C301 1.389 . S
C302 C303 1.387 1_655 S
C303 H288 0.930 . S
C303 C298 1.390 . S
C303 C302 1.387 1_455 S
H304 C316 0.930 . S
H305 C318 0.930 . S
H306 C319 0.930 . S
H307 C323 0.959 . S
H308 C323 0.959 1_565 S
H309 C323 0.961 . S
H310 C324 0.960 . S
H311 C324 0.961 . S
H312 C324 0.959 . S
H313 C327 0.929 . S
H314 C328 0.931 . S
H315 C330 0.930 . S
C316 H304 0.930 . S
C316 C317 1.399 . S
C316 C321 1.399 . S
C317 C316 1.399 . S
C317 C318 1.376 . S
C318 H305 0.930 . S
C318 C317 1.376 . S
C318 C319 1.388 . S
C319 H306 0.930 . S
C319 C318 1.388 . S
C319 C320 1.390 . S
C320 C319 1.390 . S
C320 C321 1.394 . S
C320 C326 1.465 . S
C321 C316 1.399 . S
C321 C320 1.394 . S
C321 C322 1.516 . S
C322 C321 1.516 . S
C322 C323 1.502 . S
C322 C324 1.561 . S
C322 C325 1.526 . S
C323 H307 0.959 . S
C323 H308 0.959 1_545 S
C323 H309 0.961 . S
C323 C322 1.502 . S
C324 H310 0.960 . S
C324 H311 0.961 . S
C324 H312 0.959 . S
C324 C322 1.561 . S
C325 C322 1.526 . S
C325 C326 1.396 . S
C325 C330 1.390 . S
C326 C320 1.465 . S
C326 C325 1.396 . S
C326 C327 1.399 . S
C327 H313 0.929 . S
C327 C326 1.399 . S
C327 C328 1.385 . S
C328 H314 0.931 . S
C328 C327 1.385 . S
C328 C329 1.389 . S
C329 C328 1.389 . S
C329 C330 1.387 . S
C330 H315 0.930 . S
C330 C325 1.390 . S
C330 C329 1.387 . S
H331 C343 0.930 . S
H332 C345 0.930 . S
H333 C346 0.930 . S
H334 C350 0.959 . S
H335 C350 0.959 . S
H336 C350 0.961 . S
H337 C351 0.960 . S
H338 C351 0.961 . S
H339 C351 0.959 . S
H340 C354 0.929 . S
H341 C355 0.931 . S
H342 C357 0.930 . S
C343 H331 0.930 . S
C343 C344 1.399 . S
C343 C348 1.399 . S
C344 C343 1.399 . S
C344 C345 1.376 . S
C345 H332 0.930 . S
C345 C344 1.376 . S
C345 C346 1.388 . S
C346 H333 0.930 . S
C346 C345 1.388 . S
C346 C347 1.390 . S
C347 C346 1.390 . S
C347 C348 1.394 . S
C347 C353 1.465 . S
C348 C343 1.399 . S
C348 C347 1.394 . S
C348 C349 1.516 . S
C349 C348 1.516 . S
C349 C350 1.502 . S
C349 C351 1.561 . S
C349 C352 1.526 . S
C350 H334 0.959 . S
C350 H335 0.959 . S
C350 H336 0.961 . S
C350 C349 1.502 . S
C351 H337 0.960 . S
C351 H338 0.961 . S
C351 H339 0.959 . S
C351 C349 1.561 . S
C352 C349 1.526 . S
C352 C353 1.396 . S
C352 C357 1.390 . S
C353 C347 1.465 . S
C353 C352 1.396 . S
C353 C354 1.399 . S
C354 H340 0.929 . S
C354 C353 1.399 . S
C354 C355 1.385 . S
C355 H341 0.931 . S
C355 C354 1.385 . S
C355 C356 1.389 . S
C356 C355 1.389 . S
C356 C357 1.387 . S
C357 H342 0.930 . S
C357 C352 1.390 . S
C357 C356 1.387 . S
H358 C370 0.930 . S
H359 C372 0.930 . S
H360 C373 0.930 . S
H361 C377 0.959 . S
H362 C377 0.959 . S
H363 C377 0.961 . S
H364 C378 0.960 . S
H365 C378 0.961 . S
H366 C378 0.959 . S
H367 C381 0.929 1_554 S
H368 C382 0.931 1_554 S
H369 C384 0.930 . S
C370 H358 0.930 . S
C370 C371 1.399 . S
C370 C375 1.399 . S
C371 C370 1.399 . S
C371 C372 1.376 . S
C372 H359 0.930 . S
C372 C371 1.376 . S
C372 C373 1.388 . S
C373 H360 0.930 . S
C373 C372 1.388 . S
C373 C374 1.390 . S
C374 C373 1.390 . S
C374 C375 1.394 . S
C374 C380 1.465 . S
C375 C370 1.399 . S
C375 C374 1.394 . S
C375 C376 1.516 . S
C376 C375 1.516 . S
C376 C377 1.502 . S
C376 C378 1.561 . S
C376 C379 1.526 . S
C377 H361 0.959 . S
C377 H362 0.959 . S
C377 H363 0.961 . S
C377 C376 1.502 . S
C378 H364 0.960 . S
C378 H365 0.961 . S
C378 H366 0.959 . S
C378 C376 1.561 . S
C379 C376 1.526 . S
C379 C380 1.396 . S
C379 C384 1.390 . S
C380 C374 1.465 . S
C380 C379 1.396 . S
C380 C381 1.399 . S
C381 H367 0.929 1_556 S
C381 C380 1.399 . S
C381 C382 1.385 . S
C382 H368 0.931 1_556 S
C382 C381 1.385 . S
C382 C383 1.389 . S
C383 C382 1.389 . S
C383 C384 1.387 . S
C384 H369 0.930 . S
C384 C379 1.390 . S
C384 C383 1.387 . S
H385 C397 0.930 . S
H386 C399 0.930 . S
H387 C400 0.930 . S
H388 C404 0.959 . S
H389 C404 0.959 . S
H390 C404 0.961 . S
H391 C405 0.960 . S
H392 C405 0.961 . S
H393 C405 0.959 . S
H394 C408 0.929 . S
H395 C409 0.931 . S
H396 C411 0.930 . S
C397 H385 0.930 . S
C397 C398 1.399 . S
C397 C402 1.399 . S
C398 C397 1.399 . S
C398 C399 1.376 . S
C399 H386 0.930 . S
C399 C398 1.376 . S
C399 C400 1.388 . S
C400 H387 0.930 . S
C400 C399 1.388 . S
C400 C401 1.390 . S
C401 C400 1.390 . S
C401 C402 1.394 . S
C401 C407 1.465 . S
C402 C397 1.399 . S
C402 C401 1.394 . S
C402 C403 1.516 . S
C403 C402 1.516 . S
C403 C404 1.502 . S
C403 C405 1.561 . S
C403 C406 1.526 . S
C404 H388 0.959 . S
C404 H389 0.959 . S
C404 H390 0.961 . S
C404 C403 1.502 . S
C405 H391 0.960 . S
C405 H392 0.961 . S
C405 H393 0.959 . S
C405 C403 1.561 . S
C406 C403 1.526 . S
C406 C407 1.396 . S
C406 C411 1.390 . S
C407 C401 1.465 . S
C407 C406 1.396 . S
C407 C408 1.399 . S
C408 H394 0.929 . S
C408 C407 1.399 . S
C408 C409 1.385 . S
C409 H395 0.931 . S
C409 C408 1.385 . S
C409 C410 1.389 . S
C410 C409 1.389 . S
C410 C411 1.387 . S
C411 H396 0.930 . S
C411 C406 1.390 . S
C411 C410 1.387 . S
H412 C424 0.930 . S
H413 C426 0.930 . S
H414 C427 0.930 . S
H415 C431 0.959 . S
H416 C431 0.959 . S
H417 C431 0.961 . S
H418 C432 0.960 . S
H419 C432 0.961 . S
H420 C432 0.959 . S
H421 C435 0.929 . S
H422 C436 0.931 . S
H423 C438 0.930 . S
C424 H412 0.930 . S
C424 C425 1.399 . S
C424 C429 1.399 . S
C425 C424 1.399 . S
C425 C426 1.376 . S
C426 H413 0.930 . S
C426 C425 1.376 . S
C426 C427 1.388 . S
C427 H414 0.930 . S
C427 C426 1.388 . S
C427 C428 1.390 . S
C428 C427 1.390 . S
C428 C429 1.394 . S
C428 C434 1.465 . S
C429 C424 1.399 . S
C429 C428 1.394 . S
C429 C430 1.516 . S
C430 C429 1.516 . S
C430 C431 1.502 . S
C430 C432 1.561 . S
C430 C433 1.526 . S
C431 H415 0.959 . S
C431 H416 0.959 . S
C431 H417 0.961 . S
C431 C430 1.502 . S
C432 H418 0.960 . S
C432 H419 0.961 . S
C432 H420 0.959 . S
C432 C430 1.561 . S
C433 C430 1.526 . S
C433 C434 1.396 . S
C433 C438 1.390 . S
C434 C428 1.465 . S
C434 C433 1.396 . S
C434 C435 1.399 . S
C435 H421 0.929 . S
C435 C434 1.399 . S
C435 C436 1.385 . S
C436 H422 0.931 . S
C436 C435 1.385 . S
C436 C437 1.389 . S
C437 C436 1.389 . S
C437 C438 1.387 . S
C438 H423 0.930 . S
C438 C433 1.390 . S
C438 C437 1.387 . S
H439 C451 0.930 . S
H440 C453 0.930 . S
H441 C454 0.930 . S
H442 C458 0.959 1_556 S
H443 C458 0.959 . S
H444 C458 0.961 . S
H445 C459 0.960 . S
H446 C459 0.961 . S
H447 C459 0.948 1_556 S
H448 C462 0.929 . S
H449 C463 0.931 . S
H450 C465 0.930 1_554 S
C451 H439 0.930 . S
C451 C452 1.399 . S
C451 C456 1.399 . S
C452 C451 1.399 . S
C452 C453 1.376 . S
C453 H440 0.930 . S
C453 C452 1.376 . S
C453 C454 1.388 . S
C454 H441 0.930 . S
C454 C453 1.388 . S
C454 C455 1.390 . S
C455 C454 1.390 . S
C455 C456 1.394 . S
C455 C461 1.465 . S
C456 C451 1.399 . S
C456 C455 1.394 . S
C456 C457 1.516 . S
C457 C456 1.516 . S
C457 C458 1.502 1_556 S
C457 C459 1.561 1_556 S
C457 C460 1.526 . S
C458 H442 0.959 1_554 S
C458 H443 0.959 . S
C458 H444 0.961 . S
C458 C457 1.502 1_554 S
C459 H445 0.960 . S
C459 H446 0.961 . S
C459 H447 0.948 1_554 S
C459 C457 1.561 1_554 S
C460 C457 1.526 . S
C460 C461 1.396 . S
C460 C465 1.390 . S
C461 C455 1.465 . S
C461 C460 1.396 . S
C461 C462 1.399 . S
C462 H448 0.929 . S
C462 C461 1.399 . S
C462 C463 1.385 . S
C463 H449 0.931 . S
C463 C462 1.385 . S
C463 C464 1.389 . S
C464 C463 1.389 . S
C464 C465 1.387 . S
C465 H450 0.930 1_556 S
C465 C460 1.390 . S
C465 C464 1.387 . S
H466 C478 0.930 . S
H467 C480 0.930 . S
H468 C481 0.930 . S
H469 C485 0.958 . S
H470 C485 0.959 . S
H471 C485 0.961 . S
H472 C486 0.960 . S
H473 C486 0.961 . S
H474 C486 0.959 . S
H475 C489 0.929 . S
H476 C490 0.931 . S
H477 C492 0.930 1_455 S
C478 H466 0.930 . S
C478 C479 1.399 . S
C478 C483 1.399 . S
C479 C478 1.399 . S
C479 C480 1.376 . S
C480 H467 0.930 . S
C480 C479 1.376 . S
C480 C481 1.388 . S
C481 H468 0.930 . S
C481 C480 1.388 . S
C481 C482 1.390 . S
C482 C481 1.390 . S
C482 C483 1.394 . S
C482 C488 1.465 . S
C483 C478 1.399 . S
C483 C482 1.394 . S
C483 C484 1.516 . S
C484 C483 1.516 . S
C484 C485 1.502 1_655 S
C484 C486 1.561 1_655 S
C484 C487 1.526 . S
C485 H469 0.958 . S
C485 H470 0.959 . S
C485 H471 0.961 . S
C485 C484 1.502 1_455 S
C486 H472 0.960 . S
C486 H473 0.961 . S
C486 H474 0.959 . S
C486 C484 1.561 1_455 S
C487 C484 1.526 . S
C487 C488 1.396 . S
C487 C492 1.390 . S
C488 C482 1.465 . S
C488 C487 1.396 . S
C488 C489 1.399 . S
C489 H475 0.929 . S
C489 C488 1.399 . S
C489 C490 1.385 . S
C490 H476 0.931 . S
C490 C489 1.385 . S
C490 C491 1.389 . S
C491 C490 1.389 . S
C491 C492 1.387 . S
C492 H477 0.930 1_655 S
C492 C487 1.390 . S
C492 C491 1.387 . S
H493 C505 0.930 . S
H494 C507 0.930 . S
H495 C508 0.930 . S
H496 C512 0.959 . S
H497 C512 0.959 . S
H498 C512 0.961 . S
H499 C513 0.960 . S
H500 C513 0.961 . S
H501 C513 0.959 . S
H502 C516 0.929 . S
H503 C517 0.931 . S
H504 C519 0.930 . S
C505 H493 0.930 . S
C505 C506 1.399 . S
C505 C510 1.399 . S
C506 C505 1.399 . S
C506 C507 1.376 . S
C507 H494 0.930 . S
C507 C506 1.376 . S
C507 C508 1.388 . S
C508 H495 0.930 . S
C508 C507 1.388 . S
C508 C509 1.390 . S
C509 C508 1.390 . S
C509 C510 1.394 . S
C509 C515 1.465 . S
C510 C505 1.399 . S
C510 C509 1.394 . S
C510 C511 1.516 . S
C511 C510 1.516 . S
C511 C512 1.502 . S
C511 C513 1.561 . S
C511 C514 1.526 . S
C512 H496 0.959 . S
C512 H497 0.959 . S
C512 H498 0.961 . S
C512 C511 1.502 . S
C513 H499 0.960 . S
C513 H500 0.961 . S
C513 H501 0.959 . S
C513 C511 1.561 . S
C514 C511 1.526 . S
C514 C515 1.396 . S
C514 C519 1.390 . S
C515 C509 1.465 . S
C515 C514 1.396 . S
C515 C516 1.399 . S
C516 H502 0.929 . S
C516 C515 1.399 . S
C516 C517 1.385 . S
C517 H503 0.931 . S
C517 C516 1.385 . S
C517 C518 1.389 . S
C518 C517 1.389 . S
C518 C519 1.387 . S
C519 H504 0.930 . S
C519 C514 1.390 . S
C519 C518 1.387 . S
H520 C532 0.930 . S
H521 C534 0.930 1_545 S
H522 C535 0.930 . S
H523 C539 0.959 . S
H524 C539 0.959 . S
H525 C539 0.961 . S
H526 C540 0.960 . S
H527 C540 0.961 . S
H528 C540 0.959 . S
H529 C543 0.929 . S
H530 C544 0.931 . S
H531 C546 0.930 1_455 S
C532 H520 0.930 . S
C532 C533 1.399 . S
C532 C537 1.399 . S
C533 C532 1.399 . S
C533 C534 1.376 . S
C534 H521 0.930 1_565 S
C534 C533 1.376 . S
C534 C535 1.388 1_565 S
C535 H522 0.930 . S
C535 C534 1.388 1_545 S
C535 C536 1.390 1_545 S
C536 C535 1.390 1_565 S
C536 C537 1.394 . S
C536 C542 1.465 . S
C537 C532 1.399 . S
C537 C536 1.394 . S
C537 C538 1.516 . S
C538 C537 1.516 . S
C538 C539 1.502 1_655 S
C538 C540 1.561 . S
C538 C541 1.526 . S
C539 H523 0.959 . S
C539 H524 0.959 . S
C539 H525 0.961 . S
C539 C538 1.502 1_455 S
C540 H526 0.960 . S
C540 H527 0.961 . S
C540 H528 0.959 . S
C540 C538 1.561 . S
C541 C538 1.526 . S
C541 C542 1.396 . S
C541 C546 1.390 . S
C542 C536 1.465 . S
C542 C541 1.396 . S
C542 C543 1.399 1_565 S
C543 H529 0.929 . S
C543 C542 1.399 1_545 S
C543 C544 1.385 . S
C544 H530 0.931 . S
C544 C543 1.385 . S
C544 C545 1.389 . S
C545 C544 1.389 . S
C545 C546 1.387 1_545 S
C546 H531 0.930 1_655 S
C546 C541 1.390 . S
C546 C545 1.387 1_565 S
H547 C559 0.930 . S
H548 C561 0.930 . S
H549 C562 0.930 . S
H550 C566 0.959 . S
H551 C566 0.959 . S
H552 C566 0.961 . S
H553 C567 0.960 . S
H554 C567 0.961 . S
H555 C567 0.959 . S
H556 C570 0.929 . S
H557 C571 0.931 . S
H558 C573 0.930 . S
C559 H547 0.930 . S
C559 C560 1.399 . S
C559 C564 1.399 . S
C560 C559 1.399 . S
C560 C561 1.376 . S
C561 H548 0.930 . S
C561 C560 1.376 . S
C561 C562 1.388 . S
C562 H549 0.930 . S
C562 C561 1.388 . S
C562 C563 1.390 . S
C563 C562 1.390 . S
C563 C564 1.394 . S
C563 C569 1.465 . S
C564 C559 1.399 . S
C564 C563 1.394 . S
C564 C565 1.516 . S
C565 C564 1.516 . S
C565 C566 1.502 . S
C565 C567 1.561 . S
C565 C568 1.526 . S
C566 H550 0.959 . S
C566 H551 0.959 . S
C566 H552 0.961 . S
C566 C565 1.502 . S
C567 H553 0.960 . S
C567 H554 0.961 . S
C567 H555 0.959 . S
C567 C565 1.561 . S
C568 C565 1.526 . S
C568 C569 1.396 . S
C568 C573 1.390 . S
C569 C563 1.465 . S
C569 C568 1.396 . S
C569 C570 1.399 . S
C570 H556 0.929 . S
C570 C569 1.399 . S
C570 C571 1.385 . S
C571 H557 0.931 . S
C571 C570 1.385 . S
C571 C572 1.389 . S
C572 C571 1.389 . S
C572 C573 1.387 . S
C573 H558 0.930 . S
C573 C568 1.390 . S
C573 C572 1.387 . S
H574 C586 0.930 . S
H575 C588 0.930 . S
H576 C589 0.930 . S
H577 C593 0.959 . S
H578 C593 0.959 . S
H579 C593 0.961 . S
H580 C594 0.960 . S
H581 C594 0.961 . S
H582 C594 0.959 . S
H583 C597 0.929 . S
H584 C598 0.931 . S
H585 C600 0.930 . S
C586 H574 0.930 . S
C586 C587 1.399 . S
C586 C591 1.399 . S
C587 C586 1.399 . S
C587 C588 1.376 . S
C588 H575 0.930 . S
C588 C587 1.376 . S
C588 C589 1.388 . S
C589 H576 0.930 . S
C589 C588 1.388 . S
C589 C590 1.390 . S
C590 C589 1.390 . S
C590 C591 1.394 . S
C590 C596 1.465 . S
C591 C586 1.399 . S
C591 C590 1.394 . S
C591 C592 1.516 . S
C592 C591 1.516 . S
C592 C593 1.502 . S
C592 C594 1.561 . S
C592 C595 1.526 . S
C593 H577 0.959 . S
C593 H578 0.959 . S
C593 H579 0.961 . S
C593 C592 1.502 . S
C594 H580 0.960 . S
C594 H581 0.961 . S
C594 H582 0.959 . S
C594 C592 1.561 . S
C595 C592 1.526 . S
C595 C596 1.396 . S
C595 C600 1.390 . S
C596 C590 1.465 . S
C596 C595 1.396 . S
C596 C597 1.399 . S
C597 H583 0.929 . S
C597 C596 1.399 . S
C597 C598 1.385 . S
C598 H584 0.931 . S
C598 C597 1.385 . S
C598 C599 1.389 . S
C599 C598 1.389 . S
C599 C600 1.387 . S
C600 H585 0.930 . S
C600 C595 1.390 . S
C600 C599 1.387 . S
H601 C613 0.930 . S
H602 C615 0.930 . S
H603 C616 0.930 . S
H604 C620 0.959 . S
H605 C620 0.959 . S
H606 C620 0.961 . S
H607 C621 0.960 . S
H608 C621 0.961 . S
H609 C621 0.959 . S
H610 C624 0.929 . S
H611 C625 0.931 . S
H612 C627 0.930 . S
C613 H601 0.930 . S
C613 C614 1.399 . S
C613 C618 1.399 . S
C614 C613 1.399 . S
C614 C615 1.376 . S
C615 H602 0.930 . S
C615 C614 1.376 . S
C615 C616 1.388 . S
C616 H603 0.930 . S
C616 C615 1.388 . S
C616 C617 1.390 . S
C617 C616 1.390 . S
C617 C618 1.394 . S
C617 C623 1.465 . S
C618 C613 1.399 . S
C618 C617 1.394 . S
C618 C619 1.516 . S
C619 C618 1.516 . S
C619 C620 1.502 . S
C619 C621 1.561 . S
C619 C622 1.526 . S
C620 H604 0.959 . S
C620 H605 0.959 . S
C620 H606 0.961 . S
C620 C619 1.502 . S
C621 H607 0.960 . S
C621 H608 0.961 . S
C621 H609 0.959 . S
C621 C619 1.561 . S
C622 C619 1.526 . S
C622 C623 1.396 . S
C622 C627 1.390 . S
C623 C617 1.465 . S
C623 C622 1.396 . S
C623 C624 1.399 . S
C624 H610 0.929 . S
C624 C623 1.399 . S
C624 C625 1.385 . S
C625 H611 0.931 . S
C625 C624 1.385 . S
C625 C626 1.389 . S
C626 C625 1.389 . S
C626 C627 1.387 . S
C627 H612 0.930 . S
C627 C622 1.390 . S
C627 C626 1.387 . S
H628 C640 0.930 . S
H629 C642 0.930 1_545 S
H630 C643 0.930 . S
H631 C647 0.959 . S
H632 C647 0.959 . S
H633 C647 0.961 . S
H634 C648 0.960 . S
H635 C648 0.961 . S
H636 C648 0.959 . S
H637 C651 0.929 . S
H638 C652 0.931 . S
H639 C654 0.930 . S
C640 H628 0.930 . S
C640 C641 1.399 . S
C640 C645 1.399 . S
C641 C640 1.399 . S
C641 C642 1.376 . S
C642 H629 0.930 1_565 S
C642 C641 1.376 . S
C642 C643 1.388 1_565 S
C643 H630 0.930 . S
C643 C642 1.388 1_545 S
C643 C644 1.390 1_545 S
C644 C643 1.390 1_565 S
C644 C645 1.394 . S
C644 C650 1.465 . S
C645 C640 1.399 . S
C645 C644 1.394 . S
C645 C646 1.516 . S
C646 C645 1.516 . S
C646 C647 1.502 . S
C646 C648 1.561 1_556 S
C646 C649 1.526 . S
C647 H631 0.959 . S
C647 H632 0.959 . S
C647 H633 0.961 . S
C647 C646 1.502 . S
C648 H634 0.960 . S
C648 H635 0.961 . S
C648 H636 0.959 . S
C648 C646 1.561 1_554 S
C649 C646 1.526 . S
C649 C650 1.396 . S
C649 C654 1.390 . S
C650 C644 1.465 . S
C650 C649 1.396 . S
C650 C651 1.399 1_565 S
C651 H637 0.929 . S
C651 C650 1.399 1_545 S
C651 C652 1.385 . S
C652 H638 0.931 . S
C652 C651 1.385 . S
C652 C653 1.389 1_545 S
C653 C652 1.389 1_565 S
C653 C654 1.387 . S
C654 H639 0.930 . S
C654 C649 1.390 . S
C654 C653 1.387 . S
H655 C667 0.930 . S
H656 C669 0.930 . S
H657 C670 0.930 1_565 S
H658 C674 0.959 . S
H659 C674 0.959 . S
H660 C674 0.961 . S
H661 C675 0.960 . S
H662 C675 0.961 . S
H663 C675 0.959 . S
H664 C678 0.929 . S
H665 C679 0.931 . S
H666 C681 0.930 . S
C667 H655 0.930 . S
C667 C668 1.399 . S
C667 C672 1.399 . S
C668 C667 1.399 . S
C668 C669 1.376 . S
C669 H656 0.930 . S
C669 C668 1.376 . S
C669 C670 1.388 . S
C670 H657 0.930 1_545 S
C670 C669 1.388 . S
C670 C671 1.390 . S
C671 C670 1.390 . S
C671 C672 1.394 . S
C671 C677 1.465 . S
C672 C667 1.399 . S
C672 C671 1.394 . S
C672 C673 1.516 . S
C673 C672 1.516 . S
C673 C674 1.502 . S
C673 C675 1.561 . S
C673 C676 1.526 . S
C674 H658 0.959 . S
C674 H659 0.959 . S
C674 H660 0.961 . S
C674 C673 1.502 . S
C675 H661 0.960 . S
C675 H662 0.961 . S
C675 H663 0.959 . S
C675 C673 1.561 . S
C676 C673 1.526 . S
C676 C677 1.396 . S
C676 C681 1.390 . S
C677 C671 1.465 . S
C677 C676 1.396 . S
C677 C678 1.399 1_545 S
C678 H664 0.929 . S
C678 C677 1.399 1_565 S
C678 C679 1.385 . S
C679 H665 0.931 . S
C679 C678 1.385 . S
C679 C680 1.389 1_565 S
C680 C679 1.389 1_545 S
C680 C681 1.387 . S
C681 H666 0.930 . S
C681 C676 1.390 . S
C681 C680 1.387 . S
H682 C694 0.930 . S
H683 C696 0.930 . S
H684 C697 0.930 . S
H685 C701 0.959 1_554 S
H686 C701 0.959 . S
H687 C701 0.961 . S
H688 C702 0.960 . S
H689 C702 0.961 . S
H690 C702 0.959 . S
H691 C705 0.929 . S
H692 C706 0.931 . S
H693 C708 0.930 1_556 S
C694 H682 0.930 . S
C694 C695 1.399 . S
C694 C699 1.399 . S
C695 C694 1.399 . S
C695 C696 1.376 . S
C696 H683 0.930 . S
C696 C695 1.376 . S
C696 C697 1.388 . S
C697 H684 0.930 . S
C697 C696 1.388 . S
C697 C698 1.390 . S
C698 C697 1.390 . S
C698 C699 1.394 . S
C698 C704 1.465 . S
C699 C694 1.399 . S
C699 C698 1.394 . S
C699 C700 1.516 . S
C700 C699 1.516 . S
C700 C701 1.502 1_554 S
C700 C702 1.561 1_554 S
C700 C703 1.526 . S
C701 H685 0.959 1_556 S
C701 H686 0.959 . S
C701 H687 0.961 . S
C701 C700 1.502 1_556 S
C702 H688 0.960 . S
C702 H689 0.961 . S
C702 H690 0.959 . S
C702 C700 1.561 1_556 S
C703 C700 1.526 . S
C703 C704 1.396 . S
C703 C708 1.390 . S
C704 C698 1.465 . S
C704 C703 1.396 . S
C704 C705 1.399 . S
C705 H691 0.929 . S
C705 C704 1.399 . S
C705 C706 1.385 . S
C706 H692 0.931 . S
C706 C705 1.385 . S
C706 C707 1.389 . S
C707 C706 1.389 . S
C707 C708 1.387 . S
C708 H693 0.930 1_554 S
C708 C703 1.390 . S
C708 C707 1.387 . S
H709 C721 0.930 . S
H710 C723 0.930 . S
H711 C724 0.930 . S
H712 C728 0.959 . S
H713 C728 0.959 . S
H714 C728 0.961 . S
H715 C729 0.960 . S
H716 C729 0.961 . S
H717 C729 0.959 . S
H718 C732 0.929 . S
H719 C733 0.931 . S
H720 C735 0.930 . S
C721 H709 0.930 . S
C721 C722 1.399 . S
C721 C726 1.399 . S
C722 C721 1.399 . S
C722 C723 1.376 . S
C723 H710 0.930 . S
C723 C722 1.376 . S
C723 C724 1.388 . S
C724 H711 0.930 . S
C724 C723 1.388 . S
C724 C725 1.390 . S
C725 C724 1.390 . S
C725 C726 1.394 . S
C725 C731 1.465 . S
C726 C721 1.399 . S
C726 C725 1.394 . S
C726 C727 1.516 . S
C727 C726 1.516 . S
C727 C728 1.502 . S
C727 C729 1.561 . S
C727 C730 1.526 . S
C728 H712 0.959 . S
C728 H713 0.959 . S
C728 H714 0.961 . S
C728 C727 1.502 . S
C729 H715 0.960 . S
C729 H716 0.961 . S
C729 H717 0.959 . S
C729 C727 1.561 . S
C730 C727 1.526 . S
C730 C731 1.396 . S
C730 C735 1.390 . S
C731 C725 1.465 . S
C731 C730 1.396 . S
C731 C732 1.399 . S
C732 H718 0.929 . S
C732 C731 1.399 . S
C732 C733 1.385 . S
C733 H719 0.931 . S
C733 C732 1.385 . S
C733 C734 1.389 . S
C734 C733 1.389 . S
C734 C735 1.387 . S
C735 H720 0.930 . S
C735 C730 1.390 . S
C735 C734 1.387 . S
H736 C748 0.930 . S
H737 C750 0.930 1_455 S
H738 C751 0.930 . S
H739 C755 0.959 . S
H740 C755 0.959 . S
H741 C755 0.961 . S
H742 C756 0.960 . S
H743 C756 0.961 . S
H744 C756 0.959 . S
H745 C759 0.929 . S
H746 C760 0.931 . S
H747 C762 0.930 . S
C748 H736 0.930 . S
C748 C749 1.399 . S
C748 C753 1.399 . S
C749 C748 1.399 . S
C749 C750 1.376 1_556 S
C750 H737 0.930 1_655 S
C750 C749 1.376 1_554 S
C750 C751 1.388 1_655 S
C751 H738 0.930 . S
C751 C750 1.388 1_455 S
C751 C752 1.390 1_454 S
C752 C751 1.390 1_656 S
C752 C753 1.393 . S
C752 C758 1.466 1_656 S
C753 C748 1.399 . S
C753 C752 1.393 . S
C753 C754 1.516 . S
C754 C753 1.516 . S
C754 C755 1.502 . S
C754 C756 1.561 1_655 S
C754 C757 1.526 . S
C755 H739 0.959 . S
C755 H740 0.959 . S
C755 H741 0.961 . S
C755 C754 1.502 . S
C756 H742 0.960 . S
C756 H743 0.961 . S
C756 H744 0.959 . S
C756 C754 1.561 1_455 S
C757 C754 1.526 . S
C757 C758 1.396 1_656 S
C757 C762 1.390 . S
C758 C752 1.466 1_454 S
C758 C757 1.396 1_454 S
C758 C759 1.399 . S
C759 H745 0.929 . S
C759 C758 1.399 . S
C759 C760 1.385 . S
C760 H746 0.931 . S
C760 C759 1.385 . S
C760 C761 1.389 1_554 S
C761 C760 1.389 1_556 S
C761 C762 1.387 1_455 S
C762 H747 0.930 . S
C762 C757 1.390 . S
C762 C761 1.387 1_655 S
H763 C775 0.930 . S
H764 C777 0.930 . S
H765 C778 0.930 . S
H766 C782 0.959 . S
H767 C782 0.959 1_556 S
H768 C782 0.961 1_556 S
H769 C783 0.960 . S
H770 C783 0.961 . S
H771 C783 0.959 . S
H772 C786 0.929 . S
H773 C787 0.931 . S
H774 C789 0.930 . S
C775 H763 0.930 . S
C775 C776 1.399 . S
C775 C780 1.399 . S
C776 C775 1.399 . S
C776 C777 1.376 . S
C777 H764 0.930 . S
C777 C776 1.376 . S
C777 C778 1.388 . S
C778 H765 0.930 . S
C778 C777 1.388 . S
C778 C779 1.390 . S
C779 C778 1.390 . S
C779 C780 1.394 . S
C779 C785 1.465 . S
C780 C775 1.399 . S
C780 C779 1.394 . S
C780 C781 1.516 . S
C781 C780 1.516 . S
C781 C782 1.502 . S
C781 C783 1.561 1_554 S
C781 C784 1.526 . S
C782 H766 0.959 . S
C782 H767 0.959 1_554 S
C782 H768 0.961 1_554 S
C782 C781 1.502 . S
C783 H769 0.960 . S
C783 H770 0.961 . S
C783 H771 0.959 . S
C783 C781 1.561 1_556 S
C784 C781 1.526 . S
C784 C785 1.396 . S
C784 C789 1.390 . S
C785 C779 1.465 . S
C785 C784 1.396 . S
C785 C786 1.399 . S
C786 H772 0.929 . S
C786 C785 1.399 . S
C786 C787 1.385 . S
C787 H773 0.931 . S
C787 C786 1.385 . S
C787 C788 1.389 . S
C788 C787 1.389 . S
C788 C789 1.387 . S
C789 H774 0.930 . S
C789 C784 1.390 . S
C789 C788 1.387 . S
H790 C802 0.930 . S
H791 C804 0.930 . S
H792 C805 0.930 . S
H793 C809 0.959 . S
H794 C809 0.959 . S
H795 C809 0.961 . S
H796 C810 0.960 . S
H797 C810 0.961 . S
H798 C810 0.959 . S
H799 C813 0.929 . S
H800 C814 0.931 . S
H801 C816 0.930 . S
C802 H790 0.930 . S
C802 C803 1.399 . S
C802 C807 1.399 . S
C803 C802 1.399 . S
C803 C804 1.376 . S
C804 H791 0.930 . S
C804 C803 1.376 . S
C804 C805 1.388 . S
C805 H792 0.930 . S
C805 C804 1.388 . S
C805 C806 1.390 . S
C806 C805 1.390 . S
C806 C807 1.394 . S
C806 C812 1.465 . S
C807 C802 1.399 . S
C807 C806 1.394 . S
C807 C808 1.516 . S
C808 C807 1.516 . S
C808 C809 1.502 . S
C808 C810 1.561 . S
C808 C811 1.526 . S
C809 H793 0.959 . S
C809 H794 0.959 . S
C809 H795 0.961 . S
C809 C808 1.502 . S
C810 H796 0.960 . S
C810 H797 0.961 . S
C810 H798 0.959 . S
C810 C808 1.561 . S
C811 C808 1.526 . S
C811 C812 1.396 . S
C811 C816 1.390 . S
C812 C806 1.465 . S
C812 C811 1.396 . S
C812 C813 1.399 . S
C813 H799 0.929 . S
C813 C812 1.399 . S
C813 C814 1.385 . S
C814 H800 0.931 . S
C814 C813 1.385 . S
C814 C815 1.389 . S
C815 C814 1.389 . S
C815 C816 1.387 . S
C816 H801 0.930 . S
C816 C811 1.390 . S
C816 C815 1.387 . S
H817 C829 0.930 . S
H818 C831 0.930 . S
H819 C832 0.930 . S
H820 C836 0.959 . S
H821 C836 0.959 . S
H822 C836 0.961 . S
H823 C837 0.960 . S
H824 C837 0.961 . S
H825 C837 0.959 . S
H826 C840 0.929 . S
H827 C841 0.931 . S
H828 C843 0.930 . S
C829 H817 0.930 . S
C829 C830 1.399 . S
C829 C834 1.399 . S
C830 C829 1.399 . S
C830 C831 1.376 . S
C831 H818 0.930 . S
C831 C830 1.376 . S
C831 C832 1.388 . S
C832 H819 0.930 . S
C832 C831 1.388 . S
C832 C833 1.390 . S
C833 C832 1.390 . S
C833 C834 1.394 . S
C833 C839 1.465 . S
C834 C829 1.399 . S
C834 C833 1.394 . S
C834 C835 1.516 . S
C835 C834 1.516 . S
C835 C836 1.502 . S
C835 C837 1.561 . S
C835 C838 1.526 . S
C836 H820 0.959 . S
C836 H821 0.959 . S
C836 H822 0.961 . S
C836 C835 1.502 . S
C837 H823 0.960 . S
C837 H824 0.961 . S
C837 H825 0.959 . S
C837 C835 1.561 . S
C838 C835 1.526 . S
C838 C839 1.396 . S
C838 C843 1.390 . S
C839 C833 1.465 . S
C839 C838 1.396 . S
C839 C840 1.399 . S
C840 H826 0.929 . S
C840 C839 1.399 . S
C840 C841 1.385 . S
C841 H827 0.931 . S
C841 C840 1.385 . S
C841 C842 1.389 . S
C842 C841 1.389 . S
C842 C843 1.387 . S
C843 H828 0.930 . S
C843 C838 1.390 . S
C843 C842 1.387 . S
C209 C9 1.979 . S
C221 C122 1.958 . S
C236 C21 1.590 . S
C248 C146 1.521 . S
C275 C166 1.156 . S
C263 C30 1.146 . S
C290 C43 1.080 . S
C302 C189 1.207 1_655 S
C329 C148 1.585 . S
C317 C4 1.610 . S
C356 C124 2.092 . S
C344 C22 2.148 . S
C383 C192 1.215 . S
C371 C34 1.316 . S
C410 C169 1.392 . S
C398 C48 1.404 . S
C425 C8 1.534 . S
C437 C194 1.525 . S
C464 C143 1.627 . S
C452 C35 1.624 . S
C479 C47 1.642 . S
C491 C121 1.676 . S
C506 C17 1.327 . S
C518 C171 1.293 . S
C545 C125 1.656 . S
C533 C60 1.636 . S
C560 C74 1.812 . S
C572 C147 1.830 . S
C587 C82 1.201 . S
C599 C167 1.254 . S
C614 C100 1.944 . S
C626 C190 1.966 . S
C641 C61 1.821 . S
C653 C145 1.810 . S
C680 C123 1.570 . S
C668 C73 1.571 . S
C707 C193 1.478 . S
C695 C87 1.531 . S
C734 C170 1.115 . S
C722 C95 1.048 . S
C749 C56 1.778 . S
C761 C191 1.816 . S
C788 C144 1.628 . S
C776 C86 1.571 . S
C815 C120 1.455 . S
C803 C99 1.473 . S
C830 C69 1.668 . S
C842 C168 1.633 . S
