# Generated by pormake.
# Topology nom, (4,4)-cn, num edge types: 1
# Building blocks:
#     Node 0, Type 0, BuildingBlock: NAHDIM_clean_linker_0, # of connection points: 4
#     Node 1, Type 0, BuildingBlock: NAHDIM_clean_linker_0, # of connection points: 4
#     Node 2, Type 0, BuildingBlock: NAHDIM_clean_linker_0, # of connection points: 4
#     Node 3, Type 0, BuildingBlock: NAHDIM_clean_linker_0, # of connection points: 4
#     Node 4, Type 0, BuildingBlock: NAHDIM_clean_linker_0, # of connection points: 4
#     Node 5, Type 0, BuildingBlock: NAHDIM_clean_linker_0, # of connection points: 4
#     Node 6, Type 1, BuildingBlock: GALJAG_clean_sbu_0, # of connection points: 4
#     Node 7, Type 1, BuildingBlock: GALJAG_clean_sbu_0, # of connection points: 4
#     Node 8, Type 1, BuildingBlock: GALJAG_clean_sbu_0, # of connection points: 4
#     Node 9, Type 1, BuildingBlock: GALJAG_clean_sbu_0, # of connection points: 4
#     Node 10, Type 1, BuildingBlock: GALJAG_clean_sbu_0, # of connection points: 4
#     Node 11, Type 1, BuildingBlock: GALJAG_clean_sbu_0, # of connection points: 4
#     Edge 12, Type (0, 1), BuildingBlock: ZUJKAS_clean_linker_0, # of connection points: 2
#     Edge 13, Type (0, 1), BuildingBlock: ZUJKAS_clean_linker_0, # of connection points: 2
#     Edge 14, Type (0, 1), BuildingBlock: ZUJKAS_clean_linker_0, # of connection points: 2
#     Edge 15, Type (0, 1), BuildingBlock: ZUJKAS_clean_linker_0, # of connection points: 2
#     Edge 16, Type (0, 1), BuildingBlock: ZUJKAS_clean_linker_0, # of connection points: 2
#     Edge 17, Type (0, 1), BuildingBlock: ZUJKAS_clean_linker_0, # of connection points: 2
#     Edge 18, Type (0, 1), BuildingBlock: ZUJKAS_clean_linker_0, # of connection points: 2
#     Edge 19, Type (0, 1), BuildingBlock: ZUJKAS_clean_linker_0, # of connection points: 2
#     Edge 20, Type (0, 1), BuildingBlock: ZUJKAS_clean_linker_0, # of connection points: 2
#     Edge 21, Type (0, 1), BuildingBlock: ZUJKAS_clean_linker_0, # of connection points: 2
#     Edge 22, Type (0, 1), BuildingBlock: ZUJKAS_clean_linker_0, # of connection points: 2
#     Edge 23, Type (0, 1), BuildingBlock: ZUJKAS_clean_linker_0, # of connection points: 2
#     Edge 24, Type (0, 1), BuildingBlock: ZUJKAS_clean_linker_0, # of connection points: 2
#     Edge 25, Type (0, 1), BuildingBlock: ZUJKAS_clean_linker_0, # of connection points: 2
#     Edge 26, Type (0, 1), BuildingBlock: ZUJKAS_clean_linker_0, # of connection points: 2
#     Edge 27, Type (0, 1), BuildingBlock: ZUJKAS_clean_linker_0, # of connection points: 2
#     Edge 28, Type (0, 1), BuildingBlock: ZUJKAS_clean_linker_0, # of connection points: 2
#     Edge 29, Type (0, 1), BuildingBlock: ZUJKAS_clean_linker_0, # of connection points: 2
#     Edge 30, Type (0, 1), BuildingBlock: ZUJKAS_clean_linker_0, # of connection points: 2
#     Edge 31, Type (0, 1), BuildingBlock: ZUJKAS_clean_linker_0, # of connection points: 2
#     Edge 32, Type (0, 1), BuildingBlock: ZUJKAS_clean_linker_0, # of connection points: 2
#     Edge 33, Type (0, 1), BuildingBlock: ZUJKAS_clean_linker_0, # of connection points: 2
#     Edge 34, Type (0, 1), BuildingBlock: ZUJKAS_clean_linker_0, # of connection points: 2
#     Edge 35, Type (0, 1), BuildingBlock: ZUJKAS_clean_linker_0, # of connection points: 2
# Relax obj value: 0.026
# Max RMSD: 0.127
# Mean RMSD: 0.097
data_MOF--net-nom--node1-GALJAG_clean_sbu_0--node2-NAHDIM_clean_linker_0--edge1-ZUJKAS_clean_linker_0
_symmetry_space_group_name_H-M    P1
_symmetry_Int_Tables_number       1
_symmetry_cell_setting            triclinic
loop_
_symmetry_equiv_pos_as_xyz
'x, y, z'
_cell_length_a     69.922241
_cell_length_b     69.797083
_cell_length_c     87.671908
_cell_angle_alpha  90.140761
_cell_angle_beta   90.108912
_cell_angle_gamma 120.06356
loop_
_atom_site_label
_atom_site_type_symbol
_atom_site_fract_x
_atom_site_fract_y
_atom_site_fract_z
_atom_type_partial_charge
C0 C 0.14054 0.65166 0.25833 0.0
C1 C 0.15131 0.64456 0.27063 0.0
C2 C 0.12244 0.62953 0.28972 0.0
C3 C 0.11595 0.607 0.28997 0.0
C4 C 0.0946 0.59112 0.29464 0.0
C5 C 0.07943 0.59797 0.29894 0.0
C6 C 0.08613 0.62079 0.29889 0.0
C7 C 0.10777 0.63632 0.29457 0.0
C8 C 0.0882 0.56702 0.29485 0.0
C9 C 0.07034 0.62877 0.30305 0.0
C10 C 0.94454 0.51658 0.21837 0.0
C11 C 0.955 0.52885 0.2327 0.0
C12 C 0.97641 0.52767 0.25436 0.0
C13 C 0.98148 0.54848 0.26024 0.0
C14 C 0.99539 0.55756 0.27295 0.0
C15 C 0.00462 0.54573 0.27987 0.0
C16 C -0.0003 0.52487 0.27395 0.0
C17 C 0.98549 0.51604 0.26132 0.0
C18 C 0.00025 0.57982 0.27902 0.0
C19 C 0.00947 0.51197 0.28098 0.0
C20 C 0.91687 0.49727 0.36004 0.0
C21 C 0.9252 0.51965 0.35651 0.0
C22 C 0.94802 0.5341 0.35501 0.0
C23 C 0.96273 0.52592 0.35707 0.0
C24 C 0.95441 0.50361 0.36137 0.0
C25 C 0.93152 0.4896 0.36297 0.0
C26 C 0.95639 0.55797 0.35089 0.0
C27 C 0.96964 0.49442 0.3638 0.0
C28 C 0.12261 0.6505 0.40701 0.0
C29 C 0.10633 0.62571 0.40864 0.0
C30 C 0.06901 0.60731 0.39798 0.0
C31 C 0.05409 0.61287 0.39172 0.0
C32 C 0.03852 0.59924 0.38076 0.0
C33 C 0.03761 0.57929 0.3763 0.0
C34 C 0.05158 0.57277 0.38348 0.0
C35 C 0.06726 0.58693 0.39422 0.0
C36 C 0.02361 0.60655 0.37355 0.0
C37 C 0.05044 0.5512 0.37941 0.0
C38 C 0.05627 0.58123 0.30278 0.0
C39 C 0.04171 0.57028 0.2907 0.0
C40 C 0.01938 0.55529 0.29331 0.0
C41 C 0.01121 0.55086 0.30839 0.0
C42 C 0.9888 0.53596 0.3114 0.0
C43 C 0.98078 0.53221 0.32625 0.0
C44 C 0.99481 0.54336 0.33866 0.0
C45 C 0.98661 0.54033 0.35374 0.0
C46 C 0.00098 0.55176 0.36581 0.0
C47 C 0.02345 0.56637 0.36323 0.0
C48 C 0.03196 0.56959 0.34823 0.0
C49 C 0.05446 0.58422 0.34521 0.0
C50 C 0.06257 0.58769 0.33039 0.0
C51 C 0.04842 0.577 0.31796 0.0
C52 C 0.02577 0.56187 0.32075 0.0
C53 C 0.01754 0.55814 0.3359 0.0
C54 C 0.87236 0.46061 0.34022 0.0
C55 C 0.87932 0.4811 0.35018 0.0
O56 O 0.14276 0.64502 0.2848 0.0
O57 O 0.08498 0.62207 0.40748 0.0
O58 O 0.89484 0.48276 0.36079 0.0
O59 O 0.96303 0.51841 0.24202 0.0
H60 H 0.14775 0.62749 0.26796 0.0
H61 H 0.12243 0.64004 0.25804 0.0
H62 H 0.14357 0.6686 0.26073 0.0
H63 H 0.14729 0.65145 0.2469 0.0
H64 H 0.12761 0.60186 0.28663 0.0
H65 H 0.1131 0.65382 0.29442 0.0
H66 H 0.07589 0.55803 0.2857 0.0
H67 H 0.10262 0.56468 0.29304 0.0
H68 H 0.08036 0.55944 0.30591 0.0
H69 H 0.07726 0.64663 0.30055 0.0
H70 H 0.05452 0.61915 0.29672 0.0
H71 H 0.06656 0.62616 0.31541 0.0
H72 H 0.9452 0.53489 0.23903 0.0
H73 H 0.96552 0.53742 0.20122 0.0
H74 H 0.94117 0.49915 0.22008 0.0
H75 H 0.92668 0.51199 0.21924 0.0
H76 H 0.97459 0.55773 0.255 0.0
H77 H 0.98156 0.50005 0.25671 0.0
H78 H 0.01822 0.59181 0.27812 0.0
H79 H 0.99108 0.58653 0.27274 0.0
H80 H 0.9958 0.57843 0.29128 0.0
H81 H 0.00463 0.49633 0.27472 0.0
H82 H 0.02778 0.52224 0.28113 0.0
H83 H 0.00392 0.50793 0.29299 0.0
H84 H 0.88649 0.49564 0.34242 0.0
H85 H 0.91389 0.52584 0.35492 0.0
H86 H 0.92488 0.47237 0.36598 0.0
H87 H 0.96341 0.56116 0.33922 0.0
H88 H 0.9431 0.56229 0.35124 0.0
H89 H 0.96982 0.56908 0.35883 0.0
H90 H 0.96058 0.47672 0.36719 0.0
H91 H 0.97889 0.49606 0.35313 0.0
H92 H 0.98196 0.50412 0.37279 0.0
H93 H 0.10991 0.61739 0.39911 0.0
H94 H 0.13989 0.65388 0.4078 0.0
H95 H 0.12033 0.65629 0.39572 0.0
H96 H 0.11986 0.66005 0.41605 0.0
H97 H 0.05532 0.62845 0.39497 0.0
H98 H 0.07822 0.58215 0.39956 0.0
H99 H 0.02605 0.60787 0.361 0.0
H100 H 0.00609 0.59396 0.37571 0.0
H101 H 0.02673 0.62276 0.37805 0.0
H102 H 0.06025 0.54715 0.38739 0.0
H103 H 0.03301 0.53748 0.37949 0.0
H104 H 0.05691 0.5523 0.3677 0.0
H105 H 0.04774 0.57389 0.27907 0.0
H106 H 0.97717 0.52709 0.3023 0.0
H107 H 0.96336 0.52058 0.32783 0.0
H108 H 0.99453 0.54961 0.37731 0.0
H109 H 0.06611 0.59326 0.35426 0.0
H110 H 0.08003 0.59909 0.32877 0.0
H111 H 0.85995 0.45898 0.3316 0.0
H112 H 0.88697 0.46216 0.33412 0.0
H113 H 0.86516 0.4454 0.3473 0.0
C114 C 0.41204 0.89691 0.55864 0.0
C115 C 0.40655 0.88525 0.54307 0.0
C116 C 0.41453 0.91716 0.5271 0.0
C117 C 0.43734 0.92562 0.52527 0.0
C118 C 0.45117 0.94743 0.52036 0.0
C119 C 0.44209 0.96117 0.51743 0.0
C120 C 0.41902 0.95249 0.51878 0.0
C121 C 0.4055 0.93043 0.52335 0.0
C122 C 0.47562 0.95598 0.51868 0.0
C123 C 0.40879 0.96674 0.51594 0.0
C124 C 0.52036 0.08696 0.60395 0.0
C125 C 0.50595 0.07291 0.59128 0.0
C126 C 0.50856 0.05812 0.56659 0.0
C127 C 0.48733 0.05282 0.56159 0.0
C128 C 0.47874 0.04153 0.54778 0.0
C129 C 0.49145 0.03507 0.5389 0.0
C130 C 0.51285 0.04045 0.54386 0.0
C131 C 0.52122 0.05218 0.55757 0.0
C132 C 0.45592 0.03621 0.54278 0.0
C133 C 0.52668 0.03345 0.53481 0.0
C134 C 0.54325 0.12782 0.45982 0.0
C135 C 0.52105 0.1203 0.46334 0.0
C136 C 0.50592 0.09758 0.46479 0.0
C137 C 0.51325 0.08216 0.46275 0.0
C138 C 0.53545 0.08971 0.4586 0.0
C139 C 0.55012 0.1125 0.457 0.0
C140 C 0.48219 0.09005 0.4687 0.0
C141 C 0.54377 0.07373 0.45621 0.0
C142 C 0.39353 0.92421 0.40985 0.0
C143 C 0.41811 0.94062 0.40749 0.0
C144 C 0.43524 0.97768 0.41855 0.0
C145 C 0.42848 0.99166 0.42491 0.0
C146 C 0.44094 0.00681 0.43644 0.0
C147 C 0.4609 0.00827 0.4414 0.0
C148 C 0.46866 0.99532 0.43416 0.0
C149 C 0.45568 0.98005 0.42283 0.0
C150 C 0.43238 0.02065 0.44372 0.0
C151 C 0.4903 0.99711 0.43877 0.0
C152 C 0.45698 0.98506 0.5143 0.0
C153 C 0.46741 0.9989 0.52679 0.0
C154 C 0.48175 0.02157 0.52493 0.0
C155 C 0.48603 0.03087 0.51016 0.0
C156 C 0.50041 0.05362 0.50787 0.0
C157 C 0.50455 0.06259 0.49328 0.0
C158 C 0.49415 0.04922 0.48043 0.0
C159 C 0.49796 0.05825 0.46556 0.0
C160 C 0.48715 0.04452 0.45307 0.0
C161 C 0.47258 0.02186 0.45499 0.0
C162 C 0.46875 0.01249 0.46975 0.0
C163 C 0.45433 0.9897 0.47207 0.0
C164 C 0.45067 0.98062 0.48661 0.0
C165 C 0.46092 0.99403 0.49944 0.0
C166 C 0.47552 0.01704 0.49737 0.0
C167 C 0.47951 0.02625 0.4825 0.0
C168 C 0.58142 0.17228 0.47903 0.0
C169 C 0.56081 0.16571 0.46934 0.0
O170 O 0.40082 0.89657 0.53272 0.0
O171 O 0.4216 0.96198 0.40845 0.0
O172 O 0.55833 0.14971 0.45885 0.0
O173 O 0.51731 0.06879 0.58 0.0
H174 H 0.42118 0.88458 0.53886 0.0
H175 H 0.42654 0.91385 0.55769 0.0
H176 H 0.39778 0.8982 0.56294 0.0
H177 H 0.41617 0.88763 0.56704 0.0
H178 H 0.44456 0.91541 0.52769 0.0
H179 H 0.38786 0.9237 0.52466 0.0
H180 H 0.48472 0.96809 0.52792 0.0
H181 H 0.47965 0.94249 0.5193 0.0
H182 H 0.48161 0.96471 0.50763 0.0
H183 H 0.39071 0.95775 0.51813 0.0
H184 H 0.41676 0.98166 0.52338 0.0
H185 H 0.41163 0.97249 0.50394 0.0
H186 H 0.49053 0.0577 0.59488 0.0
H187 H 0.51837 0.11593 0.60238 0.0
H188 H 0.51461 0.07593 0.61427 0.0
H189 H 0.53644 0.08697 0.60297 0.0
H190 H 0.47735 0.0574 0.5684 0.0
H191 H 0.53758 0.05636 0.5615 0.0
H192 H 0.45625 0.04127 0.53074 0.0
H193 H 0.44451 0.01806 0.54341 0.0
H194 H 0.44921 0.04455 0.55001 0.0
H195 H 0.54252 0.03792 0.54063 0.0
H196 H 0.51731 0.01527 0.5329 0.0
H197 H 0.53042 0.04149 0.52345 0.0
H198 H 0.54651 0.15912 0.47729 0.0
H199 H 0.51552 0.13217 0.46488 0.0
H200 H 0.56723 0.11853 0.45401 0.0
H201 H 0.4785 0.08272 0.48029 0.0
H202 H 0.47863 0.10388 0.46845 0.0
H203 H 0.47093 0.077 0.46058 0.0
H204 H 0.56164 0.0823 0.45338 0.0
H205 H 0.54098 0.06375 0.46668 0.0
H206 H 0.53435 0.06209 0.4468 0.0
H207 H 0.42708 0.93746 0.41677 0.0
H208 H 0.39029 0.90692 0.40919 0.0
H209 H 0.38839 0.92681 0.4213 0.0
H210 H 0.38337 0.92652 0.40109 0.0
H211 H 0.41288 0.98997 0.42128 0.0
H212 H 0.46139 0.96988 0.4174 0.0
H213 H 0.42978 0.01698 0.45611 0.0
H214 H 0.44481 0.03848 0.44253 0.0
H215 H 0.41657 0.01757 0.43854 0.0
H216 H 0.49533 0.98803 0.43081 0.0
H217 H 0.50355 0.01476 0.43921 0.0
H218 H 0.48872 0.99015 0.45038 0.0
H219 H 0.46421 0.99191 0.53818 0.0
H220 H 0.50871 0.06474 0.51734 0.0
H221 H 0.51592 0.08019 0.49222 0.0
H222 H 0.48999 0.05158 0.44172 0.0
H223 H 0.44574 0.97857 0.46267 0.0
H224 H 0.43953 0.96298 0.4877 0.0
H225 H 0.59638 0.17899 0.47173 0.0
H226 H 0.58368 0.18499 0.48762 0.0
H227 H 0.5796 0.15755 0.48517 0.0
C228 C 0.5242 0.40373 0.72419 0.0
C229 C 0.53713 0.40471 0.70982 0.0
C230 C 0.51798 0.41512 0.69129 0.0
C231 C 0.53305 0.43783 0.68979 0.0
C232 C 0.52602 0.45235 0.68472 0.0
C233 C 0.50343 0.44399 0.68125 0.0
C234 C 0.48834 0.42097 0.68227 0.0
C235 C 0.49596 0.40677 0.68702 0.0
C236 C 0.54265 0.47672 0.6834 0.0
C237 C 0.46407 0.41147 0.67887 0.0
C238 C 0.44967 0.51554 0.76714 0.0
C239 C 0.44934 0.50309 0.75328 0.0
C240 C 0.47021 0.50772 0.72997 0.0
C241 C 0.45386 0.48799 0.72312 0.0
C242 C 0.45783 0.48063 0.70923 0.0
C243 C 0.47856 0.49318 0.70205 0.0
C244 C 0.49487 0.51329 0.70869 0.0
C245 C 0.49041 0.52036 0.72256 0.0
C246 C 0.44002 0.45915 0.70239 0.0
C247 C 0.51713 0.52702 0.7013 0.0
C248 C 0.43988 0.54581 0.62237 0.0
C249 C 0.42525 0.52393 0.62678 0.0
C250 C 0.43258 0.50861 0.62827 0.0
C251 C 0.45505 0.51548 0.62548 0.0
C252 C 0.46959 0.53731 0.62045 0.0
C253 C 0.46168 0.55212 0.61875 0.0
C254 C 0.4164 0.48521 0.63305 0.0
C255 C 0.49358 0.54516 0.61722 0.0
C256 C 0.49483 0.39561 0.57443 0.0
C257 C 0.50251 0.42016 0.57229 0.0
C258 C 0.48189 0.43689 0.58246 0.0
C259 C 0.46109 0.42989 0.58874 0.0
C260 C 0.45818 0.4425 0.60001 0.0
C261 C 0.47649 0.46284 0.60478 0.0
C262 C 0.4972 0.47082 0.59757 0.0
C263 C 0.49971 0.4577 0.5865 0.0
C264 C 0.43579 0.43366 0.60729 0.0
C265 C 0.51684 0.49281 0.60199 0.0
C266 C 0.49532 0.45952 0.67786 0.0
C267 C 0.49171 0.46992 0.69024 0.0
C268 C 0.48357 0.48435 0.68817 0.0
C269 C 0.4791 0.48888 0.6733 0.0
C270 C 0.4712 0.50359 0.6708 0.0
C271 C 0.46646 0.50761 0.65613 0.0
C272 C 0.46905 0.49677 0.64342 0.0
C273 C 0.46361 0.5002 0.62849 0.0
C274 C 0.46633 0.48908 0.61613 0.0
C275 C 0.47448 0.47462 0.61824 0.0
C276 C 0.48015 0.47109 0.63306 0.0
C277 C 0.48852 0.45673 0.63557 0.0
C278 C 0.49386 0.45321 0.65019 0.0
C279 C 0.49066 0.46356 0.6629 0.0
C280 C 0.48245 0.47826 0.66063 0.0
C281 C 0.47727 0.48209 0.64568 0.0
C282 C 0.43364 0.58686 0.63912 0.0
C283 C 0.42014 0.56402 0.63172 0.0
O284 O 0.52407 0.40088 0.69697 0.0
O285 O 0.4843 0.42306 0.57278 0.0
O286 O 0.43343 0.56112 0.62133 0.0
O287 O 0.46721 0.51492 0.74369 0.0
H288 H 0.55218 0.42134 0.70919 0.0
H289 H 0.51969 0.41688 0.72382 0.0
H290 H 0.50881 0.38739 0.72504 0.0
H291 H 0.53444 0.40645 0.73455 0.0
H292 H 0.55032 0.44428 0.69251 0.0
H293 H 0.48454 0.38915 0.68806 0.0
H294 H 0.53962 0.48592 0.69253 0.0
H295 H 0.55992 0.48016 0.68447 0.0
H296 H 0.54072 0.48314 0.67227 0.0
H297 H 0.45432 0.3934 0.68112 0.0
H298 H 0.45734 0.41996 0.68592 0.0
H299 H 0.46183 0.41434 0.66672 0.0
H300 H 0.44593 0.4859 0.75543 0.0
H301 H 0.4219 0.51921 0.76435 0.0
H302 H 0.45149 0.5062 0.77697 0.0
H303 H 0.46697 0.53006 0.76817 0.0
H304 H 0.43803 0.47813 0.72861 0.0
H305 H 0.50286 0.53561 0.72786 0.0
H306 H 0.43675 0.46185 0.69041 0.0
H307 H 0.44573 0.44691 0.7022 0.0
H308 H 0.42431 0.45203 0.70888 0.0
H309 H 0.5278 0.54262 0.70765 0.0
H310 H 0.52571 0.51727 0.70065 0.0
H311 H 0.51495 0.53117 0.68944 0.0
H312 H 0.41484 0.5516 0.64106 0.0
H313 H 0.40811 0.51881 0.62899 0.0
H314 H 0.4727 0.56896 0.61507 0.0
H315 H 0.42025 0.48252 0.64486 0.0
H316 H 0.39904 0.48168 0.63271 0.0
H317 H 0.4179 0.47322 0.62552 0.0
H318 H 0.50298 0.56296 0.61412 0.0
H319 H 0.50145 0.54248 0.62738 0.0
H320 H 0.4948 0.53533 0.60768 0.0
H321 H 0.514 0.429 0.58196 0.0
H322 H 0.50916 0.39287 0.57398 0.0
H323 H 0.48679 0.39004 0.58573 0.0
H324 H 0.48271 0.38538 0.56546 0.0
H325 H 0.44736 0.41398 0.5853 0.0
H326 H 0.51564 0.46355 0.58116 0.0
H327 H 0.43699 0.43108 0.61967 0.0
H328 H 0.43021 0.44595 0.60613 0.0
H329 H 0.42314 0.41776 0.6021 0.0
H330 H 0.53095 0.4979 0.59406 0.0
H331 H 0.51215 0.50585 0.60216 0.0
H332 H 0.52234 0.49168 0.61367 0.0
H333 H 0.49493 0.46641 0.70172 0.0
H334 H 0.46864 0.51218 0.68017 0.0
H335 H 0.46053 0.51918 0.65491 0.0
H336 H 0.46199 0.49166 0.60474 0.0
H337 H 0.49104 0.44802 0.62627 0.0
H338 H 0.50031 0.44206 0.65144 0.0
H339 H 0.43932 0.60009 0.63038 0.0
H340 H 0.4236 0.58953 0.64777 0.0
H341 H 0.44837 0.58812 0.64492 0.0
C342 C 0.14533 0.5439 0.88811 0.0
C343 C 0.15513 0.54305 0.87265 0.0
C344 C 0.1211 0.51559 0.85966 0.0
C345 C 0.11292 0.52987 0.85631 0.0
C346 C 0.09112 0.52148 0.85126 0.0
C347 C 0.07713 0.49834 0.84964 0.0
C348 C 0.08548 0.48396 0.85249 0.0
C349 C 0.1075 0.49285 0.8573 0.0
C350 C 0.08282 0.53731 0.84807 0.0
C351 C 0.07095 0.45921 0.85096 0.0
C352 C 0.00727 0.49386 0.93005 0.0
C353 C 0.98527 0.4732 0.92595 0.0
C354 C 0.98459 0.47628 0.89846 0.0
C355 C 0.98647 0.45819 0.8935 0.0
C356 C 0.99608 0.45869 0.87938 0.0
C357 C 0.00404 0.47773 0.8701 0.0
C358 C 0.00119 0.49557 0.87478 0.0
C359 C 0.99116 0.49444 0.88886 0.0
C360 C 0.99835 0.43915 0.87455 0.0
C361 C 0.00955 0.51615 0.86521 0.0
C362 C 0.91435 0.44523 0.79261 0.0
C363 C 0.91929 0.42829 0.79503 0.0
C364 C 0.94127 0.43297 0.79537 0.0
C365 C 0.95858 0.45503 0.79334 0.0
C366 C 0.95355 0.47181 0.78986 0.0
C367 C 0.9314 0.4666 0.78938 0.0
C368 C 0.94607 0.41455 0.79854 0.0
C369 C 0.97161 0.49543 0.78737 0.0
C370 C 0.11144 0.47516 0.74206 0.0
C371 C 0.0971 0.48589 0.74043 0.0
C372 C 0.06004 0.46956 0.75111 0.0
C373 C 0.0442 0.44944 0.75736 0.0
C374 C 0.02956 0.44868 0.76858 0.0
C375 C 0.03053 0.46855 0.77331 0.0
C376 C 0.04542 0.48876 0.76614 0.0
C377 C 0.06016 0.48909 0.75516 0.0
C378 C 0.01364 0.42677 0.77578 0.0
C379 C 0.04625 0.5101 0.77046 0.0
C380 C 0.05332 0.48927 0.84629 0.0
C381 C 0.03962 0.48697 0.85854 0.0
C382 C 0.01726 0.47983 0.85635 0.0
C383 C 0.00819 0.47496 0.84148 0.0
C384 C 0.98588 0.46822 0.83882 0.0
C385 C 0.97724 0.46385 0.82409 0.0
C386 C 0.99045 0.46555 0.81149 0.0
C387 C 0.98177 0.46099 0.79647 0.0
C388 C 0.9952 0.46235 0.78425 0.0
C389 C 0.01731 0.46838 0.78659 0.0
C390 C 0.02646 0.47355 0.80147 0.0
C391 C 0.04878 0.48015 0.8042 0.0
C392 C 0.05769 0.48554 0.81884 0.0
C393 C 0.04449 0.48395 0.83137 0.0
C394 C 0.02186 0.47693 0.82895 0.0
C395 C 0.01292 0.47201 0.81396 0.0
C396 C 0.86767 0.4393 0.81222 0.0
C397 C 0.87752 0.42713 0.8037 0.0
O398 O 0.14169 0.52292 0.86545 0.0
O399 O 0.07505 0.46956 0.74133 0.0
O400 O 0.89345 0.44163 0.79364 0.0
O401 O 0.97694 0.47681 0.91257 0.0
H402 H 0.15677 0.55678 0.86533 0.0
H403 H 0.12898 0.54263 0.88655 0.0
H404 H 0.14318 0.53002 0.89548 0.0
H405 H 0.15634 0.55983 0.89402 0.0
H406 H 0.12327 0.54755 0.85778 0.0
H407 H 0.11398 0.48196 0.85977 0.0
H408 H 0.07059 0.5353 0.8569 0.0
H409 H 0.09636 0.55485 0.84813 0.0
H410 H 0.07431 0.53349 0.83684 0.0
H411 H 0.07998 0.45027 0.85356 0.0
H412 H 0.05667 0.4533 0.85881 0.0
H413 H 0.06426 0.45493 0.83917 0.0
H414 H 0.98832 0.45913 0.92445 0.0
H415 H 0.01397 0.49124 0.94085 0.0
H416 H 0.01955 0.49739 0.92089 0.0
H417 H 0.00506 0.50847 0.93139 0.0
H418 H 0.98057 0.44375 0.9007 0.0
H419 H 0.98933 0.50819 0.89276 0.0
H420 H 0.99239 0.43428 0.86265 0.0
H421 H 0.01606 0.44389 0.87485 0.0
H422 H 0.989 0.42463 0.88211 0.0
H423 H 0.00606 0.52857 0.87048 0.0
H424 H 0.02767 0.52383 0.86359 0.0
H425 H 0.00172 0.51173 0.85375 0.0
H426 H 0.8851 0.42162 0.81261 0.0
H427 H 0.90601 0.4115 0.7969 0.0
H428 H 0.92735 0.47944 0.78722 0.0
H429 H 0.95342 0.41684 0.8101 0.0
H430 H 0.93092 0.39797 0.79797 0.0
H431 H 0.95829 0.41508 0.79022 0.0
H432 H 0.96495 0.50639 0.78425 0.0
H433 H 0.98164 0.50194 0.79794 0.0
H434 H 0.9828 0.49607 0.77817 0.0
H435 H 0.10169 0.49787 0.75006 0.0
H436 H 0.12924 0.48793 0.7415 0.0
H437 H 0.10825 0.46669 0.75325 0.0
H438 H 0.10761 0.46273 0.73288 0.0
H439 H 0.044 0.43442 0.7539 0.0
H440 H 0.07184 0.50458 0.74983 0.0
H441 H 0.01666 0.42761 0.78827 0.0
H442 H 0.99643 0.42322 0.77404 0.0
H443 H 0.01515 0.41286 0.77094 0.0
H444 H 0.05644 0.5237 0.76241 0.0
H445 H 0.02929 0.50768 0.77075 0.0
H446 H 0.05342 0.5152 0.78207 0.0
H447 H 0.04654 0.49102 0.86998 0.0
H448 H 0.97491 0.46646 0.84809 0.0
H449 H 0.96 0.45899 0.82276 0.0
H450 H 0.98835 0.45858 0.7728 0.0
H451 H 0.05971 0.48144 0.79504 0.0
H452 H 0.07502 0.49078 0.82023 0.0
H453 H 0.85471 0.42792 0.82028 0.0
H454 H 0.88082 0.45328 0.81888 0.0
H455 H 0.86031 0.44607 0.80414 0.0
C456 C 0.48843 0.89363 0.93048 0.0
C457 C 0.49316 0.88575 0.94562 0.0
C458 C 0.5231 0.92101 0.95581 0.0
C459 C 0.50972 0.93 0.95982 0.0
C460 C 0.51915 0.95214 0.96449 0.0
C461 C 0.5424 0.96559 0.96523 0.0
C462 C 0.55592 0.95644 0.96173 0.0
C463 C 0.54604 0.9342 0.95713 0.0
C464 C 0.50426 0.96136 0.96828 0.0
C465 C 0.58076 0.97033 0.96253 0.0
C466 C 0.60201 0.10125 0.88389 0.0
C467 C 0.60256 0.08897 0.89754 0.0
C468 C 0.57864 0.06568 0.91802 0.0
C469 C 0.59563 0.06493 0.92614 0.0
C470 C 0.59104 0.0523 0.93945 0.0
C471 C 0.56909 0.0404 0.94489 0.0
C472 C 0.55202 0.04144 0.93693 0.0
C473 C 0.55705 0.05407 0.92356 0.0
C474 C 0.60963 0.05144 0.94762 0.0
C475 C 0.52846 0.02904 0.94247 0.0
C476 C 0.59183 0.12727 0.02407 0.0
C477 C 0.6091 0.12295 0.02132 0.0
C478 C 0.60493 0.1011 0.02039 0.0
C479 C 0.58304 0.08332 0.02205 0.0
C480 C 0.56585 0.08768 0.02563 0.0
C481 C 0.57057 0.10968 0.02677 0.0
C482 C 0.62377 0.09701 0.01713 0.0
C483 C 0.54237 0.06913 0.02768 0.0
C484 C 0.55678 0.92833 0.07247 0.0
C485 C 0.547 0.94339 0.07497 0.0
C486 C 0.56505 0.98074 0.0646 0.0
C487 C 0.58564 0.99591 0.0586 0.0
C488 C 0.58753 0.01087 0.04724 0.0
C489 C 0.56835 0.01087 0.04205 0.0
C490 C 0.5477 0.99665 0.04891 0.0
C491 C 0.54624 0.98164 0.06011 0.0
C492 C 0.60987 0.02609 0.04035 0.0
C493 C 0.52708 0.99682 0.04404 0.0
C494 C 0.55241 0.98955 0.9686 0.0
C495 C 0.5564 0.00373 0.95629 0.0
C496 C 0.56397 0.02621 0.95857 0.0
C497 C 0.56718 0.03482 0.97356 0.0
C498 C 0.57343 0.05705 0.97629 0.0
C499 C 0.5766 0.06536 0.99109 0.0
C500 C 0.57416 0.05189 0.00371 0.0
C501 C 0.57772 0.06029 0.0188 0.0
C502 C 0.57564 0.04658 0.03105 0.0
C503 C 0.56967 0.02445 0.02867 0.0
C504 C 0.56538 0.01557 0.01371 0.0
C505 C 0.55869 0.99319 0.01094 0.0
C506 C 0.55421 0.98456 0.9962 0.0
C507 C 0.55682 0.99809 0.98363 0.0
C508 C 0.56398 0.02078 0.98612 0.0
C509 C 0.56786 0.02943 0.00119 0.0
C510 C 0.59897 0.17726 0.00804 0.0
C511 C 0.61025 0.16551 0.01521 0.0
O512 O 0.5147 0.90001 0.95036 0.0
O513 O 0.56386 0.96529 0.07453 0.0
O514 O 0.59499 0.1481 0.02402 0.0
O515 O 0.58236 0.07723 0.90483 0.0
H516 H 0.48145 0.88508 0.95445 0.0
H517 H 0.48986 0.9101 0.93187 0.0
H518 H 0.50032 0.89493 0.92158 0.0
H519 H 0.47136 0.88185 0.92651 0.0
H520 H 0.49193 0.92005 0.95913 0.0
H521 H 0.55625 0.92712 0.95416 0.0
H522 H 0.50731 0.97477 0.96016 0.0
H523 H 0.48647 0.94854 0.96775 0.0
H524 H 0.5081 0.96871 0.97991 0.0
H525 H 0.58894 0.96048 0.96022 0.0
H526 H 0.58663 0.98391 0.95406 0.0
H527 H 0.58591 0.97807 0.974 0.0
H528 H 0.61088 0.07904 0.89575 0.0
H529 H 0.60572 0.09333 0.87399 0.0
H530 H 0.58407 0.09417 0.88073 0.0
H531 H 0.62259 0.13455 0.89001 0.0
H532 H 0.61249 0.07401 0.92211 0.0
H533 H 0.54407 0.05481 0.91728 0.0
H534 H 0.61167 0.05857 0.95924 0.0
H535 H 0.60555 0.03397 0.94891 0.0
H536 H 0.6256 0.06071 0.94149 0.0
H537 H 0.51747 0.03314 0.9358 0.0
H538 H 0.52206 0.01096 0.94155 0.0
H539 H 0.52776 0.03291 0.95469 0.0
H540 H 0.61593 0.15919 0.00556 0.0
H541 H 0.62578 0.13659 0.01981 0.0
H542 H 0.55746 0.11324 0.02916 0.0
H543 H 0.62205 0.09041 0.00537 0.0
H544 H 0.64011 0.11236 0.01817 0.0
H545 H 0.62326 0.08441 0.02509 0.0
H546 H 0.53087 0.07531 0.03031 0.0
H547 H 0.5366 0.05891 0.01713 0.0
H548 H 0.54166 0.05819 0.0371 0.0
H549 H 0.53504 0.93968 0.06545 0.0
H550 H 0.54356 0.91066 0.07293 0.0
H551 H 0.56468 0.93157 0.06107 0.0
H552 H 0.56949 0.93141 0.08125 0.0
H553 H 0.6001 0.99533 0.06239 0.0
H554 H 0.53042 0.97052 0.06525 0.0
H555 H 0.60947 0.02255 0.02796 0.0
H556 H 0.61389 0.04355 0.04159 0.0
H557 H 0.62323 0.02425 0.04579 0.0
H558 H 0.51284 0.98656 0.05161 0.0
H559 H 0.53013 0.01404 0.04403 0.0
H560 H 0.52262 0.9903 0.03222 0.0
H561 H 0.55345 0.99713 0.94476 0.0
H562 H 0.57573 0.06822 0.96702 0.0
H563 H 0.5812 0.08255 0.99247 0.0
H564 H 0.57862 0.0532 0.04257 0.0
H565 H 0.55663 0.98202 0.02014 0.0
H566 H 0.54891 0.96719 0.99475 0.0
H567 H 0.59251 0.1838 0.017 0.0
H568 H 0.61081 0.19119 0.00077 0.0
H569 H 0.58493 0.16544 0.00077 0.0
C570 C 0.62534 0.50547 0.09462 0.0
C571 C 0.62893 0.4974 0.11003 0.0
C572 C 0.62389 0.52242 0.12687 0.0
C573 C 0.60145 0.50875 0.13044 0.0
C574 C 0.58872 0.51784 0.13558 0.0
C575 C 0.59858 0.54107 0.13711 0.0
C576 C 0.62142 0.55481 0.13423 0.0
C577 C 0.63386 0.54523 0.12934 0.0
C578 C 0.56453 0.50267 0.13895 0.0
C579 C 0.63244 0.57963 0.13578 0.0
C580 C 0.52434 0.59303 0.05116 0.0
C581 C 0.53726 0.5945 0.06502 0.0
C582 C 0.53436 0.57396 0.08822 0.0
C583 C 0.55372 0.59104 0.09495 0.0
C584 C 0.5618 0.58762 0.10871 0.0
C585 C 0.55028 0.56675 0.11591 0.0
C586 C 0.53053 0.54969 0.10937 0.0
C587 C 0.52278 0.55358 0.0956 0.0
C588 C 0.58286 0.6062 0.11546 0.0
C589 C 0.51787 0.52728 0.1168 0.0
C590 C 0.49546 0.60358 0.19376 0.0
C591 C 0.51765 0.61912 0.19079 0.0
C592 C 0.53363 0.61258 0.19002 0.0
C593 C 0.52718 0.59005 0.1922 0.0
C594 C 0.50503 0.57462 0.19601 0.0
C595 C 0.48948 0.58168 0.19691 0.0
C596 C 0.55726 0.62959 0.18646 0.0
C597 C 0.49764 0.55053 0.19858 0.0
C598 C 0.65363 0.56089 0.24501 0.0
C599 C 0.62852 0.55063 0.24564 0.0
C600 C 0.60896 0.56855 0.23567 0.0
C601 C 0.61423 0.58913 0.22969 0.0
C602 C 0.60106 0.5909 0.21832 0.0
C603 C 0.58184 0.5716 0.21318 0.0
C604 C 0.57547 0.55097 0.22012 0.0
C605 C 0.58923 0.54962 0.23122 0.0
C606 C 0.60816 0.61323 0.21137 0.0
C607 C 0.55457 0.53024 0.21541 0.0
C608 C 0.5845 0.55093 0.14027 0.0
C609 C 0.57403 0.55428 0.12784 0.0
C610 C 0.55967 0.56251 0.12981 0.0
C611 C 0.55521 0.56723 0.14463 0.0
C612 C 0.54024 0.57479 0.14704 0.0
C613 C 0.53605 0.57949 0.16168 0.0
C614 C 0.54697 0.57717 0.17444 0.0
C615 C 0.54313 0.5823 0.18934 0.0
C616 C 0.55446 0.58008 0.20175 0.0
C617 C 0.56959 0.57274 0.19969 0.0
C618 C 0.57341 0.56721 0.1849 0.0
C619 C 0.58835 0.55955 0.18242 0.0
C620 C 0.59181 0.55393 0.16785 0.0
C621 C 0.58093 0.55632 0.15515 0.0
C622 C 0.56607 0.56434 0.15733 0.0
C623 C 0.56212 0.56954 0.17224 0.0
C624 C 0.45647 0.61066 0.17431 0.0
C625 C 0.47791 0.62346 0.18346 0.0
O626 O 0.63625 0.51426 0.1208 0.0
O627 O 0.6234 0.56742 0.24545 0.0
O628 O 0.47945 0.60914 0.19368 0.0
O629 O 0.52649 0.57642 0.07461 0.0
H630 H 0.61304 0.48299 0.11371 0.0
H631 H 0.61226 0.50998 0.09562 0.0
H632 H 0.64082 0.52025 0.09075 0.0
H633 H 0.61998 0.49219 0.08588 0.0
H634 H 0.59373 0.49099 0.12922 0.0
H635 H 0.65126 0.55561 0.12676 0.0
H636 H 0.55439 0.50528 0.13034 0.0
H637 H 0.55986 0.48494 0.13873 0.0
H638 H 0.56041 0.50665 0.15032 0.0
H639 H 0.65048 0.58798 0.13353 0.0
H640 H 0.6248 0.58604 0.12765 0.0
H641 H 0.62984 0.58408 0.14746 0.0
H642 H 0.55482 0.59924 0.06286 0.0
H643 H 0.53434 0.59219 0.04141 0.0
H644 H 0.51078 0.57524 0.05005 0.0
H645 H 0.51803 0.61922 0.0539 0.0
H646 H 0.56272 0.60702 0.08949 0.0
H647 H 0.50781 0.54055 0.09038 0.0
H648 H 0.57977 0.60979 0.12725 0.0
H649 H 0.59553 0.60108 0.11613 0.0
H650 H 0.58962 0.62163 0.10864 0.0
H651 H 0.5022 0.51612 0.11069 0.0
H652 H 0.52824 0.51937 0.11704 0.0
H653 H 0.514 0.52919 0.1288 0.0
H654 H 0.49167 0.6299 0.17505 0.0
H655 H 0.52249 0.63631 0.18901 0.0
H656 H 0.47236 0.56994 0.19949 0.0
H657 H 0.56153 0.62634 0.17492 0.0
H658 H 0.56009 0.64674 0.18676 0.0
H659 H 0.56861 0.62831 0.19474 0.0
H660 H 0.47985 0.54065 0.20157 0.0
H661 H 0.5006 0.54341 0.18811 0.0
H662 H 0.50754 0.549 0.20792 0.0
H663 H 0.62184 0.54002 0.23526 0.0
H664 H 0.65814 0.54772 0.24515 0.0
H665 H 0.66003 0.5705 0.23431 0.0
H666 H 0.6617 0.57223 0.25483 0.0
H667 H 0.6293 0.60368 0.23345 0.0
H668 H 0.58473 0.53378 0.2363 0.0
H669 H 0.61041 0.61258 0.19888 0.0
H670 H 0.59506 0.61757 0.21312 0.0
H671 H 0.62382 0.62654 0.21641 0.0
H672 H 0.55016 0.51642 0.22349 0.0
H673 H 0.5406 0.53351 0.21467 0.0
H674 H 0.55685 0.52496 0.20393 0.0
H675 H 0.57714 0.55044 0.11642 0.0
H676 H 0.53149 0.57704 0.13765 0.0
H677 H 0.52424 0.58511 0.16283 0.0
H678 H 0.55156 0.58422 0.21312 0.0
H679 H 0.59747 0.55766 0.19171 0.0
H680 H 0.60332 0.54793 0.16664 0.0
H681 H 0.44191 0.60357 0.182 0.0
H682 H 0.45492 0.62172 0.16592 0.0
H683 H 0.45654 0.5969 0.16796 0.0
In684 In 0.62304 0.42169 0.40734 0.0
O685 O 0.66021 0.44162 0.41246 0.0
O686 O 0.64971 0.42293 0.39191 0.0
C687 C 0.60654 0.43362 0.43094 0.0
C688 C 0.611 0.43772 0.38352 0.0
C689 C 0.60938 0.37923 0.41479 0.0
O690 O 0.62704 0.4425 0.42853 0.0
O691 O 0.59445 0.41906 0.42131 0.0
O692 O 0.60263 0.38426 0.40292 0.0
O693 O 0.62284 0.39552 0.42276 0.0
C694 C 0.66567 0.43569 0.40039 0.0
O695 O 0.6035 0.41724 0.38541 0.0
O696 O 0.62424 0.44997 0.39375 0.0
In697 In 0.21751 0.6143 0.5762 0.0
O698 O 0.23207 0.59167 0.57205 0.0
O699 O 0.24587 0.6157 0.58975 0.0
C700 C 0.19098 0.60419 0.55154 0.0
C701 C 0.19021 0.59611 0.60017 0.0
C702 C 0.24391 0.65792 0.57066 0.0
O703 O 0.20607 0.59931 0.5524 0.0
O704 O 0.18908 0.61373 0.56319 0.0
O705 O 0.22886 0.65083 0.58059 0.0
O706 O 0.24557 0.64306 0.56362 0.0
C707 C 0.2463 0.60026 0.58257 0.0
O708 O 0.20451 0.61643 0.59963 0.0
O709 O 0.1895 0.58507 0.58855 0.0
In710 In 0.63003 0.22377 0.74024 0.0
O711 O 0.66733 0.23715 0.73792 0.0
O712 O 0.65669 0.25717 0.7491 0.0
C713 C 0.61456 0.19513 0.71657 0.0
C714 C 0.62104 0.19897 0.76567 0.0
C715 C 0.61129 0.24858 0.73428 0.0
O716 O 0.634 0.21144 0.71694 0.0
O717 O 0.60323 0.19299 0.72829 0.0
O718 O 0.61067 0.24066 0.74732 0.0
O719 O 0.6213 0.24394 0.72427 0.0
C720 C 0.67272 0.25509 0.74477 0.0
O721 O 0.60923 0.2069 0.76135 0.0
O722 O 0.63707 0.20319 0.75703 0.0
In723 In 0.42262 0.61822 0.90853 0.0
O724 O 0.38616 0.59458 0.91365 0.0
O725 O 0.39411 0.61586 0.89451 0.0
C726 C 0.43881 0.60878 0.93355 0.0
C727 C 0.43364 0.60244 0.88396 0.0
C728 C 0.43677 0.66127 0.91443 0.0
O729 O 0.41836 0.60015 0.93103 0.0
O730 O 0.45104 0.62175 0.92329 0.0
O731 O 0.44733 0.65519 0.90596 0.0
O732 O 0.41911 0.64569 0.91982 0.0
C733 C 0.37919 0.60084 0.90252 0.0
O734 O 0.43738 0.62206 0.88477 0.0
O735 O 0.42489 0.59097 0.89569 0.0
In736 In 0.81379 0.4094 0.07901 0.0
O737 O 0.83525 0.40885 0.09875 0.0
O738 O 0.83196 0.43729 0.09603 0.0
C739 C 0.78666 0.36606 0.07267 0.0
C740 C 0.78346 0.42196 0.08291 0.0
C741 C 0.84319 0.42367 0.05594 0.0
O742 O 0.79526 0.37263 0.0857 0.0
O743 O 0.79198 0.38123 0.06302 0.0
O744 O 0.82855 0.42908 0.05721 0.0
O745 O 0.84317 0.41128 0.0664 0.0
C746 C 0.84022 0.42787 0.10357 0.0
O747 O 0.79831 0.43033 0.07285 0.0
O748 O 0.78384 0.40713 0.09092 0.0
In749 In 0.42596 0.82496 0.24117 0.0
O750 O 0.44637 0.80821 0.24628 0.0
O751 O 0.42616 0.79831 0.22642 0.0
C752 C 0.43682 0.85331 0.26486 0.0
C753 C 0.44324 0.85262 0.21726 0.0
C754 C 0.38281 0.79723 0.24738 0.0
O755 O 0.44391 0.83991 0.2637 0.0
O756 O 0.4247 0.85264 0.25395 0.0
O757 O 0.38911 0.80948 0.23575 0.0
O758 O 0.39823 0.79897 0.25581 0.0
C759 C 0.4396 0.79587 0.23463 0.0
O760 O 0.4227 0.84004 0.21898 0.0
O761 O 0.45505 0.8515 0.22774 0.0
H762 H 0.18135 0.64173 0.25242 0.0
H763 H 0.22101 0.66769 0.25022 0.0
H764 H 0.21678 0.70812 0.28587 0.0
H765 H 0.17693 0.68275 0.28759 0.0
H766 H 0.24004 0.73289 0.26298 0.0
H767 H 0.27109 0.67604 0.27682 0.0
H768 H 0.25189 0.66581 0.26122 0.0
H769 H 0.2427 0.66867 0.27983 0.0
C770 C 0.18899 0.65598 0.25995 0.0
C771 C 0.17613 0.65984 0.27046 0.0
C772 C 0.21166 0.67074 0.25875 0.0
C773 C 0.22203 0.68956 0.26817 0.0
C774 C 0.2092 0.69356 0.27862 0.0
H775 H 0.36561 0.77255 0.27306 0.0
H776 H 0.32665 0.74734 0.27891 0.0
C777 C 0.18645 0.67896 0.27967 0.0
C778 C 0.24596 0.70574 0.26646 0.0
H779 H 0.29682 0.71019 0.2648 0.0
C780 C 0.25247 0.72795 0.26353 0.0
C781 C 0.26226 0.69941 0.26742 0.0
C782 C 0.25666 0.67623 0.27166 0.0
C783 C 0.27472 0.74386 0.2611 0.0
C784 C 0.29082 0.73725 0.26114 0.0
C785 C 0.28442 0.71519 0.26453 0.0
C786 C 0.31439 0.7529 0.25766 0.0
C787 C 0.28074 0.76764 0.2587 0.0
C788 C 0.32048 0.76424 0.24371 0.0
C789 C 0.34271 0.7788 0.2404 0.0
C790 C 0.35928 0.78201 0.25089 0.0
C791 C 0.35319 0.77043 0.26476 0.0
C792 C 0.33095 0.75601 0.26811 0.0
H793 H 0.26814 0.77106 0.26367 0.0
H794 H 0.29704 0.77924 0.26388 0.0
H795 H 0.28161 0.77102 0.24629 0.0
H796 H 0.30804 0.76167 0.2353 0.0
H797 H 0.34693 0.78736 0.22957 0.0
H798 H 0.58204 0.18448 0.44227 0.0
H799 H 0.58806 0.21894 0.43063 0.0
H800 H 0.55193 0.22761 0.46725 0.0
H801 H 0.54537 0.19286 0.4787 0.0
H802 H 0.5417 0.23795 0.43905 0.0
H803 H 0.63252 0.27934 0.44785 0.0
H804 H 0.62116 0.25433 0.43676 0.0
H805 H 0.6136 0.25314 0.45648 0.0
C806 C 0.57504 0.19354 0.44767 0.0
C807 C 0.56293 0.18583 0.46127 0.0
C808 C 0.57867 0.21331 0.4411 0.0
C809 C 0.57068 0.22596 0.44819 0.0
C810 C 0.55821 0.21808 0.46158 0.0
H811 H 0.61833 0.36514 0.4413 0.0
H812 H 0.60771 0.32734 0.44846 0.0
C813 C 0.55446 0.19825 0.4681 0.0
C814 C 0.576 0.24786 0.44205 0.0
H815 H 0.61901 0.29967 0.43479 0.0
C816 C 0.55859 0.25146 0.43805 0.0
C817 C 0.59805 0.2655 0.44096 0.0
C818 C 0.61742 0.26304 0.44586 0.0
C819 C 0.56264 0.27229 0.43308 0.0
C820 C 0.58472 0.28984 0.43181 0.0
C821 C 0.6021 0.28615 0.43567 0.0
C822 C 0.59026 0.31255 0.4274 0.0
C823 C 0.54325 0.2755 0.42975 0.0
C824 C 0.58398 0.31683 0.41315 0.0
C825 C 0.58989 0.33848 0.40906 0.0
C826 C 0.60242 0.3562 0.41909 0.0
C827 C 0.6087 0.35184 0.43331 0.0
C828 C 0.60266 0.33025 0.43742 0.0
H829 H 0.52771 0.26215 0.43481 0.0
H830 H 0.54626 0.29169 0.4342 0.0
H831 H 0.54083 0.27524 0.41723 0.0
H832 H 0.57481 0.30349 0.4051 0.0
H833 H 0.58496 0.34139 0.39799 0.0
H834 H 0.38023 0.55202 0.64455 0.0
H835 H 0.349 0.55362 0.63338 0.0
H836 H 0.38341 0.57404 0.59044 0.0
H837 H 0.41505 0.5734 0.60177 0.0
H838 H 0.36877 0.60044 0.59834 0.0
H839 H 0.29983 0.51467 0.60497 0.0
H840 H 0.31354 0.52582 0.62281 0.0
H841 H 0.32834 0.52196 0.60741 0.0
C842 C 0.38088 0.55636 0.63263 0.0
C843 C 0.39989 0.56212 0.62397 0.0
C844 C 0.36297 0.55712 0.62621 0.0
C845 C 0.36359 0.56344 0.61095 0.0
C846 C 0.38242 0.56885 0.60219 0.0
H847 H 0.25153 0.56801 0.56853 0.0
H848 H 0.27985 0.55794 0.57404 0.0
C849 C 0.40047 0.56837 0.60865 0.0
C850 C 0.3457 0.56675 0.60468 0.0
H851 H 0.28961 0.54274 0.60144 0.0
C852 C 0.3515 0.58767 0.59881 0.0
C853 C 0.32314 0.55006 0.60509 0.0
C854 C 0.31587 0.52681 0.61026 0.0
C855 C 0.33537 0.59265 0.59399 0.0
C856 C 0.31279 0.57647 0.59542 0.0
C857 C 0.30694 0.55522 0.60058 0.0
C858 C 0.29513 0.5818 0.59233 0.0
C859 C 0.34266 0.61531 0.58755 0.0
C860 C 0.2941 0.59816 0.601 0.0
C861 C 0.27806 0.60393 0.59789 0.0
C862 C 0.26263 0.59334 0.58608 0.0
C863 C 0.26329 0.57652 0.57764 0.0
C864 C 0.27941 0.57074 0.58078 0.0
H865 H 0.35978 0.62315 0.58304 0.0
H866 H 0.33144 0.61445 0.57824 0.0
H867 H 0.34237 0.62614 0.59672 0.0
H868 H 0.30581 0.60657 0.61016 0.0
H869 H 0.27789 0.61682 0.60467 0.0
H870 H 0.85428 0.42677 0.77828 0.0
H871 H 0.82224 0.39495 0.76653 0.0
H872 H 0.82883 0.35123 0.79805 0.0
H873 H 0.86048 0.38306 0.81011 0.0
H874 H 0.81461 0.35539 0.75293 0.0
H875 H 0.76686 0.3403 0.80657 0.0
H876 H 0.79306 0.36511 0.80353 0.0
H877 H 0.7921 0.33967 0.8085 0.0
C878 C 0.84899 0.41033 0.78257 0.0
C879 C 0.85968 0.40736 0.79518 0.0
C880 C 0.83078 0.39219 0.77584 0.0
C881 C 0.82297 0.3708 0.7816 0.0
C882 C 0.83436 0.36765 0.79363 0.0
H883 H 0.71006 0.25203 0.74123 0.0
H884 H 0.74777 0.27923 0.74933 0.0
C885 C 0.85246 0.38581 0.80046 0.0
C886 C 0.80197 0.35217 0.77572 0.0
H887 H 0.74881 0.31601 0.78611 0.0
C888 C 0.80023 0.34663 0.76017 0.0
C889 C 0.78321 0.34098 0.78521 0.0
C890 C 0.78373 0.34688 0.80185 0.0
C891 C 0.78008 0.33039 0.75379 0.0
C892 C 0.76135 0.3193 0.76329 0.0
C893 C 0.76325 0.32452 0.77888 0.0
C894 C 0.73915 0.30334 0.75724 0.0
C895 C 0.77878 0.32583 0.73689 0.0
C896 C 0.72187 0.30786 0.75906 0.0
C897 C 0.70042 0.29235 0.75462 0.0
C898 C 0.69581 0.27199 0.74824 0.0
C899 C 0.7132 0.26765 0.74604 0.0
C900 C 0.73473 0.2832 0.75059 0.0
H901 H 0.79339 0.33884 0.73073 0.0
H902 H 0.77802 0.30975 0.73494 0.0
H903 H 0.76362 0.32468 0.73191 0.0
H904 H 0.72494 0.32331 0.76416 0.0
H905 H 0.68738 0.29619 0.75642 0.0
H906 H 0.52118 0.87313 0.93274 0.0
H907 H 0.5136 0.83542 0.92737 0.0
H908 H 0.44923 0.80885 0.94783 0.0
H909 H 0.45662 0.84641 0.95311 0.0
H910 H 0.50147 0.79861 0.94748 0.0
H911 H 0.43653 0.78196 0.90448 0.0
H912 H 0.45591 0.80951 0.91117 0.0
H913 H 0.43235 0.79144 0.92256 0.0
C914 C 0.50555 0.85921 0.93628 0.0
C915 C 0.48959 0.86266 0.94355 0.0
C916 C 0.50123 0.83774 0.93317 0.0
C917 C 0.48078 0.81943 0.93707 0.0
C918 C 0.46501 0.82281 0.94457 0.0
H919 H 0.41488 0.67785 0.93038 0.0
H920 H 0.42709 0.71672 0.93577 0.0
C921 C 0.4693 0.84423 0.94768 0.0
C922 C 0.47564 0.79675 0.93304 0.0
H923 H 0.43952 0.75106 0.91258 0.0
C924 C 0.48806 0.78824 0.93975 0.0
C925 C 0.45822 0.78337 0.92288 0.0
C926 C 0.4451 0.79206 0.91473 0.0
C927 C 0.48297 0.76635 0.93698 0.0
C928 C 0.46519 0.75284 0.92713 0.0
C929 C 0.45307 0.76149 0.92019 0.0
C930 C 0.4584 0.72942 0.92419 0.0
C931 C 0.49615 0.75757 0.94492 0.0
C932 C 0.47195 0.72379 0.9158 0.0
C933 C 0.46497 0.70159 0.91262 0.0
C934 C 0.44434 0.68474 0.91781 0.0
C935 C 0.43087 0.69047 0.92625 0.0
C936 C 0.4378 0.71264 0.92934 0.0
H937 H 0.50685 0.76887 0.95411 0.0
H938 H 0.48496 0.74105 0.94992 0.0
H939 H 0.50686 0.75559 0.93649 0.0
H940 H 0.48779 0.73658 0.91156 0.0
H941 H 0.47568 0.69764 0.90608 0.0
H942 H 0.62081 0.45522 0.10543 0.0
H943 H 0.64744 0.4427 0.10123 0.0
H944 H 0.7011 0.50997 0.10549 0.0
H945 H 0.6745 0.5226 0.10975 0.0
H946 H 0.67915 0.45641 0.0777 0.0
H947 H 0.71792 0.47467 0.13527 0.0
H948 H 0.69174 0.47307 0.13155 0.0
H949 H 0.71707 0.49732 0.12621 0.0
C950 C 0.63831 0.46728 0.1057 0.0
C951 C 0.64562 0.48979 0.10832 0.0
C952 C 0.65346 0.46014 0.10324 0.0
C953 C 0.67621 0.47537 0.10331 0.0
C954 C 0.68361 0.49791 0.10573 0.0
H955 H 0.77998 0.45401 0.0675 0.0
H956 H 0.75382 0.46698 0.07222 0.0
C957 C 0.66844 0.50509 0.10816 0.0
C958 C 0.69208 0.46766 0.10031 0.0
H959 H 0.73417 0.46316 0.11632 0.0
C960 C 0.69119 0.45787 0.08613 0.0
C961 C 0.70757 0.46941 0.1114 0.0
C962 C 0.70861 0.47901 0.12703 0.0
C963 C 0.70556 0.44991 0.08269 0.0
C964 C 0.72136 0.45207 0.09367 0.0
C965 C 0.72211 0.46168 0.1079 0.0
C966 C 0.73707 0.44415 0.09069 0.0
C967 C 0.70344 0.4389 0.06745 0.0
C968 C 0.73651 0.42728 0.09968 0.0
C969 C 0.75146 0.4199 0.09705 0.0
C970 C 0.7673 0.42937 0.08543 0.0
C971 C 0.76786 0.44632 0.07647 0.0
C972 C 0.75289 0.45368 0.07911 0.0
H973 H 0.68731 0.43386 0.06188 0.0
H974 H 0.71674 0.45068 0.05979 0.0
H975 H 0.70523 0.42405 0.06873 0.0
H976 H 0.72445 0.41978 0.10871 0.0
H977 H 0.75068 0.40686 0.10416 0.0
H978 H 0.40954 0.84856 0.54924 0.0
H979 H 0.37966 0.8106 0.55365 0.0
H980 H 0.33152 0.83101 0.54622 0.0
H981 H 0.36138 0.86914 0.54191 0.0
H982 H 0.34513 0.79712 0.57666 0.0
H983 H 0.31302 0.7761 0.51718 0.0
H984 H 0.34043 0.79857 0.52157 0.0
H985 H 0.31683 0.80166 0.525 0.0
C986 C 0.39257 0.84487 0.54833 0.0
C987 C 0.38779 0.86167 0.54481 0.0
C988 C 0.37556 0.82326 0.55093 0.0
C989 C 0.35344 0.81801 0.55005 0.0
C990 C 0.34852 0.83472 0.54668 0.0
H991 H 0.24316 0.69318 0.58375 0.0
H992 H 0.26841 0.73261 0.57884 0.0
C993 C 0.36556 0.85643 0.54419 0.0
C994 C 0.33564 0.7951 0.55309 0.0
H995 H 0.29444 0.74879 0.53591 0.0
C996 C 0.33392 0.78655 0.5678 0.0
C997 C 0.32124 0.78143 0.54145 0.0
C998 C 0.32293 0.78974 0.52536 0.0
C999 C 0.31826 0.7645 0.57117 0.0
C1000 C 0.30383 0.75078 0.55952 0.0
C1001 C 0.30544 0.75942 0.54483 0.0
C1002 C 0.28787 0.72704 0.56213 0.0
C1003 C 0.3178 0.75587 0.58701 0.0
C1004 C 0.29011 0.7109 0.55408 0.0
C1005 C 0.27569 0.68844 0.55678 0.0
C1006 C 0.2587 0.68171 0.56758 0.0
C1007 C 0.2562 0.69789 0.57544 0.0
C1008 C 0.27064 0.7204 0.5727 0.0
H1009 H 0.33295 0.76707 0.59362 0.0
H1010 H 0.30337 0.75445 0.59326 0.0
H1011 H 0.31609 0.73918 0.58652 0.0
H1012 H 0.30328 0.71569 0.54585 0.0
H1013 H 0.278 0.67637 0.55052 0.0
H1014 H 0.57496 0.40962 0.72259 0.0
H1015 H 0.58622 0.38184 0.72568 0.0
H1016 H 0.5265 0.33335 0.70302 0.0
H1017 H 0.51477 0.36087 0.70044 0.0
H1018 H 0.53429 0.31654 0.72794 0.0
H1019 H 0.61105 0.35876 0.69393 0.0
H1020 H 0.61071 0.37597 0.70902 0.0
H1021 H 0.59071 0.36746 0.69381 0.0
C1022 C 0.56441 0.39311 0.71809 0.0
C1023 C 0.54435 0.38762 0.71085 0.0
C1024 C 0.57088 0.37728 0.7198 0.0
C1025 C 0.5575 0.35569 0.71419 0.0
C1026 C 0.53723 0.35001 0.70723 0.0
H1027 H 0.60575 0.26268 0.70653 0.0
H1028 H 0.5909 0.28713 0.70122 0.0
C1029 C 0.53062 0.36578 0.70567 0.0
C1030 C 0.56429 0.33883 0.71612 0.0
H1031 H 0.60673 0.32898 0.70971 0.0
C1032 C 0.55005 0.31916 0.72384 0.0
C1033 C 0.58469 0.34209 0.71054 0.0
C1034 C 0.60006 0.36211 0.70123 0.0
C1035 C 0.5559 0.30293 0.72649 0.0
C1036 C 0.57682 0.30676 0.72165 0.0
C1037 C 0.5908 0.32616 0.71358 0.0
C1038 C 0.58467 0.291 0.72489 0.0
C1039 C 0.53947 0.28174 0.73427 0.0
C1040 C 0.58615 0.28508 0.73996 0.0
C1041 C 0.59439 0.27091 0.74301 0.0
C1042 C 0.60167 0.26275 0.73105 0.0
C1043 C 0.60025 0.26873 0.71598 0.0
C1044 C 0.59179 0.2827 0.71293 0.0
H1045 H 0.52228 0.27845 0.73284 0.0
H1046 H 0.54037 0.26735 0.72973 0.0
H1047 H 0.54314 0.2832 0.74667 0.0
H1048 H 0.58133 0.29174 0.74941 0.0
H1049 H 0.59549 0.26673 0.75474 0.0
H1050 H 0.16715 0.51164 0.87899 0.0
H1051 H 0.20431 0.51787 0.88433 0.0
H1052 H 0.23143 0.58805 0.87828 0.0
H1053 H 0.19442 0.58196 0.87273 0.0
H1054 H 0.24528 0.54321 0.86417 0.0
H1055 H 0.25086 0.57757 0.92237 0.0
H1056 H 0.22479 0.55995 0.91289 0.0
H1057 H 0.24124 0.58847 0.90752 0.0
C1058 C 0.18109 0.52835 0.87855 0.0
C1059 C 0.178 0.5463 0.87507 0.0
C1060 C 0.20223 0.53187 0.88167 0.0
C1061 C 0.22048 0.5534 0.8817 0.0
C1062 C 0.21747 0.57133 0.87831 0.0
H1063 H 0.36084 0.61129 0.87886 0.0
H1064 H 0.3216 0.59716 0.87386 0.0
C1065 C 0.1964 0.56782 0.87507 0.0
C1066 C 0.24276 0.55732 0.88539 0.0
H1067 H 0.28387 0.58131 0.91198 0.0
C1068 C 0.2537 0.55135 0.87466 0.0
C1069 C 0.25347 0.56769 0.89918 0.0
C1070 C 0.24201 0.57369 0.91125 0.0
C1071 C 0.27555 0.55627 0.87714 0.0
C1072 C 0.28664 0.56758 0.89062 0.0
C1073 C 0.27535 0.57276 0.90161 0.0
C1074 C 0.31027 0.57514 0.89326 0.0
C1075 C 0.28661 0.54944 0.86528 0.0
C1076 C 0.31688 0.56769 0.90598 0.0
C1077 C 0.33932 0.5758 0.9089 0.0
C1078 C 0.35547 0.59166 0.89923 0.0
C1079 C 0.34877 0.59903 0.88648 0.0
C1080 C 0.32637 0.59087 0.88355 0.0
H1081 H 0.27432 0.53587 0.8579 0.0
H1082 H 0.29704 0.56382 0.85789 0.0
H1083 H 0.29741 0.54395 0.87071 0.0
H1084 H 0.30468 0.55567 0.91367 0.0
H1085 H 0.34401 0.56986 0.91883 0.0
H1086 H 0.6538 0.18835 0.00705 0.0
H1087 H 0.68474 0.21826 0.02099 0.0
H1088 H 0.64142 0.20964 0.05856 0.0
H1089 H 0.61031 0.17998 0.0445 0.0
H1090 H 0.66368 0.25178 0.04872 0.0
H1091 H 0.72272 0.22182 0.05715 0.0
H1092 H 0.71389 0.21942 0.03767 0.0
H1093 H 0.69408 0.20352 0.05217 0.0
C1094 C 0.65104 0.19248 0.01845 0.0
C1095 C 0.62976 0.18164 0.02479 0.0
C1096 C 0.66874 0.20947 0.02644 0.0
C1097 C 0.66549 0.2159 0.04095 0.0
C1098 C 0.64434 0.20474 0.04747 0.0
H1099 H 0.76982 0.33014 0.09176 0.0
H1100 H 0.74053 0.29211 0.08578 0.0
C1101 C 0.62662 0.18779 0.03946 0.0
C1102 C 0.68345 0.23602 0.04836 0.0
H1103 H 0.73788 0.26144 0.05877 0.0
C1104 C 0.67976 0.25371 0.05119 0.0
C1105 C 0.70441 0.23852 0.05166 0.0
C1106 C 0.70897 0.21971 0.04965 0.0
C1107 C 0.69678 0.27418 0.05646 0.0
C1108 C 0.71805 0.27708 0.05884 0.0
C1109 C 0.72155 0.25914 0.05679 0.0
C1110 C 0.73707 0.2992 0.06227 0.0
C1111 C 0.69208 0.29281 0.05905 0.0
C1112 C 0.74502 0.31544 0.05091 0.0
C1113 C 0.76161 0.33699 0.05425 0.0
C1114 C 0.77058 0.3427 0.06903 0.0
C1115 C 0.76316 0.32619 0.08028 0.0
C1116 C 0.74651 0.30452 0.0769 0.0
H1117 H 0.67407 0.28667 0.05994 0.0
H1118 H 0.70038 0.30215 0.0696 0.0
H1119 H 0.69864 0.30447 0.04932 0.0
H1120 H 0.73799 0.31154 0.03953 0.0
H1121 H 0.76705 0.34929 0.04531 0.0
H1122 H 0.49682 0.66659 0.17432 0.0
H1123 H 0.49352 0.69664 0.18606 0.0
H1124 H 0.45549 0.65322 0.22275 0.0
H1125 H 0.4583 0.62296 0.21082 0.0
H1126 H 0.43532 0.6734 0.21042 0.0
H1127 H 0.52231 0.7362 0.22271 0.0
H1128 H 0.51825 0.72707 0.20322 0.0
H1129 H 0.51382 0.70776 0.21825 0.0
C1130 C 0.4882 0.66364 0.18507 0.0
C1131 C 0.4782 0.64258 0.19182 0.0
C1132 C 0.48643 0.68084 0.19182 0.0
C1133 C 0.47466 0.67732 0.20546 0.0
C1134 C 0.46489 0.65638 0.21233 0.0
H1135 H 0.46377 0.78309 0.25215 0.0
H1136 H 0.47273 0.75406 0.24623 0.0
C1137 C 0.46657 0.63914 0.20555 0.0
C1138 C 0.47063 0.69478 0.21168 0.0
H1139 H 0.49629 0.74922 0.22229 0.0
C1140 C 0.44867 0.68989 0.21321 0.0
C1141 C 0.48803 0.71622 0.21549 0.0
C1142 C 0.51192 0.72208 0.21499 0.0
C1143 C 0.44362 0.70607 0.21788 0.0
C1144 C 0.46101 0.72787 0.22076 0.0
C1145 C 0.48298 0.73257 0.21986 0.0
C1146 C 0.45658 0.7461 0.22416 0.0
C1147 C 0.41966 0.69963 0.21962 0.0
C1148 C 0.44506 0.75159 0.21357 0.0
C1149 C 0.43982 0.76795 0.21695 0.0
C1150 C 0.44627 0.77939 0.23092 0.0
C1151 C 0.45852 0.77447 0.24132 0.0
C1152 C 0.46366 0.75793 0.23795 0.0
H1153 H 0.40902 0.68156 0.22156 0.0
H1154 H 0.41739 0.70866 0.22925 0.0
H1155 H 0.4139 0.7038 0.20899 0.0
H1156 H 0.43994 0.74305 0.2027 0.0
H1157 H 0.43059 0.77155 0.20863 0.0
H1158 H 0.85472 0.4999 0.34168 0.0
H1159 H 0.82032 0.4944 0.3529 0.0
H1160 H 0.82404 0.4524 0.38739 0.0
H1161 H 0.85826 0.45751 0.376 0.0
H1162 H 0.78408 0.43345 0.37375 0.0
H1163 H 0.80794 0.51882 0.3913 0.0
H1164 H 0.81411 0.51711 0.37165 0.0
H1165 H 0.82802 0.51079 0.3864 0.0
C1166 C 0.84842 0.48986 0.35184 0.0
C1167 C 0.8594 0.4795 0.35816 0.0
C1168 C 0.82883 0.48682 0.35829 0.0
C1169 C 0.81985 0.47337 0.37118 0.0
C1170 C 0.83083 0.46307 0.37756 0.0
H1171 H 0.70246 0.45794 0.41843 0.0
H1172 H 0.74036 0.46713 0.41232 0.0
C1173 C 0.8504 0.46607 0.37109 0.0
C1174 C 0.79806 0.46854 0.37717 0.0
H1175 H 0.76901 0.49287 0.3897 0.0
C1176 C 0.78086 0.44643 0.3774 0.0
C1177 C 0.79392 0.48544 0.38211 0.0
C1178 C 0.81204 0.50935 0.38302 0.0
C1179 C 0.75946 0.44082 0.38194 0.0
C1180 C 0.75501 0.45783 0.38602 0.0
C1181 C 0.77238 0.47988 0.38635 0.0
C1182 C 0.73232 0.45304 0.3896 0.0
C1183 C 0.74183 0.41668 0.38233 0.0
C1184 C 0.71539 0.44257 0.37873 0.0
C1185 C 0.6938 0.43719 0.38222 0.0
C1186 C 0.68877 0.44246 0.39658 0.0
C1187 C 0.70586 0.45363 0.40729 0.0
C1188 C 0.72748 0.45888 0.40381 0.0
H1189 H 0.74914 0.40582 0.38348 0.0
H1190 H 0.73019 0.41322 0.39191 0.0
H1191 H 0.7323 0.41224 0.3715 0.0
H1192 H 0.71886 0.43844 0.36754 0.0
H1193 H 0.68103 0.4288 0.37367 0.0
H1194 H 0.12985 0.60483 0.41448 0.0
H1195 H 0.13948 0.59592 0.4393 0.0
H1196 H 0.10103 0.62034 0.46177 0.0
H1197 H 0.09165 0.62959 0.43697 0.0
H1198 H 0.14383 0.63913 0.47235 0.0
H1199 H 0.10503 0.54766 0.47084 0.0
H1200 H 0.12171 0.56134 0.45448 0.0
H1201 H 0.09706 0.56264 0.45797 0.0
C1202 C 0.12305 0.60779 0.42471 0.0
C1203 C 0.10973 0.61757 0.4238 0.0
C1204 C 0.12846 0.60261 0.43887 0.0
C1205 C 0.12065 0.60711 0.45236 0.0
C1206 C 0.10701 0.6165 0.45148 0.0
H1207 H 0.15622 0.61111 0.54791 0.0
H1208 H 0.13713 0.60965 0.52415 0.0
C1209 C 0.10162 0.62171 0.43733 0.0
C1210 C 0.12863 0.6043 0.46739 0.0
H1211 H 0.13151 0.56659 0.49062 0.0
C1212 C 0.14092 0.62323 0.47643 0.0
C1213 C 0.125 0.58357 0.47258 0.0
C1214 C 0.11132 0.56259 0.46354 0.0
C1215 C 0.1501 0.62212 0.49039 0.0
C1216 C 0.14652 0.60141 0.49559 0.0
C1217 C 0.13415 0.58241 0.4866 0.0
C1218 C 0.15599 0.59944 0.51022 0.0
C1219 C 0.16413 0.64326 0.49922 0.0
C1220 C 0.17217 0.59316 0.51035 0.0
C1221 C 0.18299 0.59381 0.52394 0.0
C1222 C 0.17777 0.60075 0.53758 0.0
C1223 C 0.16075 0.60591 0.53754 0.0
C1224 C 0.14988 0.60515 0.52398 0.0
H1225 H 0.16961 0.65815 0.49199 0.0
H1226 H 0.15433 0.6443 0.50879 0.0
H1227 H 0.17898 0.64358 0.50407 0.0
H1228 H 0.17703 0.58861 0.49983 0.0
H1229 H 0.196 0.58968 0.52364 0.0
H1230 H 0.47193 0.07939 0.60786 0.0
H1231 H 0.50026 0.10153 0.63376 0.0
H1232 H 0.56738 0.13555 0.60051 0.0
H1233 H 0.54085 0.11464 0.57364 0.0
H1234 H 0.53844 0.09795 0.64427 0.0
H1235 H 0.57207 0.18574 0.62789 0.0
H1236 H 0.54982 0.16316 0.61757 0.0
H1237 H 0.57797 0.17007 0.61437 0.0
C1238 C 0.48942 0.09072 0.60637 0.0
C1239 C 0.50398 0.09162 0.58842 0.0
C1240 C 0.50731 0.10364 0.6225 0.0
C1241 C 0.53687 0.11988 0.62009 0.0
C1242 C 0.54967 0.12521 0.60153 0.0
H1243 H 0.63529 0.19693 0.68975 0.0
H1244 H 0.61816 0.17653 0.66617 0.0
C1245 C 0.53325 0.11304 0.58465 0.0
C1246 C 0.55061 0.12978 0.63374 0.0
H1247 H 0.58648 0.17915 0.65047 0.0
C1248 C 0.54905 0.1157 0.64563 0.0
C1249 C 0.56444 0.1529 0.63538 0.0
C1250 C 0.56605 0.16886 0.62318 0.0
C1251 C 0.56107 0.12415 0.65922 0.0
C1252 C 0.57444 0.14734 0.66108 0.0
C1253 C 0.57631 0.16137 0.64901 0.0
C1254 C 0.58538 0.15758 0.67577 0.0
C1255 C 0.55942 0.10815 0.67139 0.0
C1256 C 0.5727 0.15352 0.68902 0.0
C1257 C 0.58245 0.16502 0.70249 0.0
C1258 C 0.60503 0.18103 0.70291 0.0
C1259 C 0.61786 0.18466 0.68977 0.0
C1260 C 0.60809 0.17305 0.6763 0.0
H1261 H 0.55515 0.09183 0.66639 0.0
H1262 H 0.57514 0.11464 0.67787 0.0
H1263 H 0.54611 0.10541 0.67948 0.0
H1264 H 0.55505 0.14211 0.6888 0.0
H1265 H 0.57211 0.16197 0.71241 0.0
H1266 H 0.45218 0.54554 0.73896 0.0
H1267 H 0.456 0.56674 0.76815 0.0
H1268 H 0.40919 0.49329 0.79329 0.0
H1269 H 0.40408 0.47018 0.76482 0.0
H1270 H 0.40124 0.52444 0.80227 0.0
H1271 H 0.49258 0.57329 0.80559 0.0
H1272 H 0.48194 0.57905 0.78869 0.0
H1273 H 0.47823 0.55184 0.79155 0.0
C1274 C 0.4437 0.53597 0.74893 0.0
C1275 C 0.43103 0.50528 0.74951 0.0
C1276 C 0.44696 0.54889 0.7673 0.0
C1277 C 0.43455 0.5323 0.78412 0.0
C1278 C 0.41715 0.50254 0.7831 0.0
H1279 H 0.42571 0.5604 0.8794 0.0
H1280 H 0.42751 0.54367 0.85527 0.0
C1281 C 0.41288 0.48808 0.7653 0.0
C1282 C 0.43645 0.54323 0.79891 0.0
H1283 H 0.47291 0.58195 0.82395 0.0
C1284 C 0.41695 0.53686 0.80705 0.0
C1285 C 0.45694 0.55955 0.80508 0.0
C1286 C 0.47861 0.56617 0.79733 0.0
C1287 C 0.41728 0.54664 0.82111 0.0
C1288 C 0.43774 0.56297 0.82728 0.0
C1289 C 0.45727 0.56941 0.81914 0.0
C1290 C 0.43899 0.57364 0.84213 0.0
C1291 C 0.39568 0.53976 0.82908 0.0
C1292 C 0.44575 0.59623 0.8428 0.0
C1293 C 0.44484 0.60587 0.85657 0.0
C1294 C 0.43723 0.59304 0.86988 0.0
C1295 C 0.43151 0.57066 0.86931 0.0
C1296 C 0.43243 0.56106 0.85554 0.0
H1297 H 0.38131 0.53097 0.82126 0.0
H1298 H 0.39361 0.5284 0.83858 0.0
H1299 H 0.3955 0.55437 0.83398 0.0
H1300 H 0.45096 0.60621 0.83256 0.0
H1301 H 0.44942 0.62317 0.85668 0.0
H1302 H 0.97734 0.44509 0.9498 0.0
H1303 H 0.95286 0.43777 0.97167 0.0
H1304 H 0.93318 0.48266 0.95349 0.0
H1305 H 0.95776 0.49019 0.93163 0.0
H1306 H 0.95492 0.47202 0.99254 0.0
H1307 H 0.87402 0.42322 0.96278 0.0
H1308 H 0.89944 0.42645 0.95511 0.0
H1309 H 0.89394 0.44891 0.95411 0.0
C1310 C 0.96753 0.45313 0.95037 0.0
C1311 C 0.96899 0.46774 0.93882 0.0
C1312 C 0.95367 0.44902 0.96287 0.0
C1313 C 0.94103 0.45944 0.96403 0.0
C1314 C 0.94253 0.47417 0.95261 0.0
H1315 H 0.84567 0.44949 0.03183 0.0
H1316 H 0.87027 0.45964 0.00977 0.0
C1317 C 0.95651 0.4784 0.94014 0.0
C1318 C 0.92687 0.45545 0.9775 0.0
H1319 H 0.87309 0.43122 0.98883 0.0
C1320 C 0.93702 0.46311 0.99177 0.0
C1321 C 0.90358 0.44395 0.97636 0.0
C1322 C 0.89197 0.43498 0.96131 0.0
C1323 C 0.92444 0.45963 0.00499 0.0
C1324 C 0.90112 0.44775 0.00392 0.0
C1325 C 0.89098 0.44032 0.9896 0.0
C1326 C 0.88689 0.44234 0.01756 0.0
C1327 C 0.93624 0.46897 0.01995 0.0
C1328 C 0.88805 0.42918 0.02919 0.0
C1329 C 0.87408 0.42342 0.04181 0.0
C1330 C 0.8586 0.43058 0.04294 0.0
C1331 C 0.85749 0.4438 0.03129 0.0
C1332 C 0.87149 0.44957 0.01868 0.0
H1333 H 0.95343 0.4827 0.01817 0.0
H1334 H 0.92731 0.47518 0.02702 0.0
H1335 H 0.93706 0.45574 0.0264 0.0
H1336 H 0.8995 0.42305 0.0284 0.0
H1337 H 0.87521 0.4131 0.05056 0.0
H1338 H 0.56496 0.95198 0.10384 0.0
H1339 H 0.54545 0.94 0.12824 0.0
H1340 H 0.48298 0.91205 0.10455 0.0
H1341 H 0.50239 0.92344 0.08013 0.0
H1342 H 0.51482 0.94786 0.14316 0.0
H1343 H 0.47825 0.85914 0.12736 0.0
H1344 H 0.50008 0.88107 0.1165 0.0
H1345 H 0.47202 0.87501 0.11427 0.0
C1346 C 0.54707 0.94344 0.10389 0.0
C1347 C 0.53516 0.93845 0.09011 0.0
C1348 C 0.53596 0.93666 0.1178 0.0
C1349 C 0.51278 0.92479 0.11816 0.0
C1350 C 0.50087 0.92078 0.10449 0.0
H1351 H 0.42127 0.85445 0.19206 0.0
H1352 H 0.43738 0.87432 0.16828 0.0
C1353 C 0.51196 0.9274 0.09057 0.0
C1354 C 0.50114 0.91562 0.13276 0.0
H1355 H 0.46729 0.86695 0.15088 0.0
C1356 C 0.50438 0.93018 0.14486 0.0
C1357 C 0.4876 0.89253 0.13494 0.0
C1358 C 0.4844 0.87598 0.12264 0.0
C1359 C 0.49435 0.92222 0.1591 0.0
C1360 C 0.48095 0.89915 0.16127 0.0
C1361 C 0.47747 0.88465 0.14912 0.0
C1362 C 0.47119 0.88946 0.17623 0.0
C1363 C 0.49805 0.93852 0.17168 0.0
C1364 C 0.48489 0.89154 0.18859 0.0
C1365 C 0.47575 0.88013 0.20215 0.0
C1366 C 0.45276 0.86641 0.20355 0.0
C1367 C 0.43904 0.86492 0.19132 0.0
C1368 C 0.4482 0.87625 0.17774 0.0
H1369 H 0.50392 0.95541 0.16715 0.0
H1370 H 0.48264 0.93319 0.17825 0.0
H1371 H 0.51081 0.93937 0.17965 0.0
H1372 H 0.50269 0.90133 0.18756 0.0
H1373 H 0.48673 0.88157 0.21138 0.0
H1374 H 0.60617 0.5054 0.24787 0.0
H1375 H 0.59525 0.48288 0.27104 0.0
H1376 H 0.62093 0.54213 0.2985 0.0
H1377 H 0.63139 0.56463 0.27535 0.0
H1378 H 0.62398 0.48501 0.2923 0.0
H1379 H 0.56301 0.50235 0.31973 0.0
H1380 H 0.57103 0.50892 0.30001 0.0
H1381 H 0.58813 0.5272 0.315 0.0
C1382 C 0.60898 0.51354 0.25886 0.0
C1383 C 0.61943 0.53672 0.25984 0.0
C1384 C 0.60277 0.50069 0.27207 0.0
C1385 C 0.60696 0.51078 0.2865 0.0
C1386 C 0.61697 0.53392 0.28749 0.0
H1387 H 0.62416 0.48091 0.37773 0.0
H1388 H 0.61966 0.49655 0.35396 0.0
C1389 C 0.62308 0.54678 0.27428 0.0
C1390 C 0.6032 0.49743 0.30047 0.0
H1391 H 0.58001 0.48719 0.33592 0.0
C1392 C 0.61404 0.48517 0.30173 0.0
C1393 C 0.59026 0.4977 0.31277 0.0
C1394 C 0.57727 0.50957 0.31177 0.0
C1395 C 0.61311 0.47396 0.31521 0.0
C1396 C 0.60079 0.47484 0.32768 0.0
C1397 C 0.58944 0.48659 0.32631 0.0
C1398 C 0.60092 0.46493 0.34254 0.0
C1399 C 0.62609 0.46205 0.31624 0.0
C1400 C 0.59132 0.44192 0.34408 0.0
C1401 C 0.59385 0.43292 0.35765 0.0
C1402 C 0.60606 0.44684 0.36985 0.0
C1403 C 0.61477 0.46979 0.36849 0.0
C1404 C 0.61216 0.47875 0.35496 0.0
H1405 H 0.63764 0.46604 0.30652 0.0
H1406 H 0.63574 0.46641 0.32704 0.0
H1407 H 0.6145 0.44392 0.31622 0.0
H1408 H 0.5824 0.431 0.33464 0.0
H1409 H 0.58688 0.41517 0.3584 0.0
H1410 H 0.41184 0.95365 0.3792 0.0
H1411 H 0.41987 0.94353 0.35421 0.0
H1412 H 0.44764 0.90774 0.3762 0.0
H1413 H 0.43988 0.91803 0.40123 0.0
H1414 H 0.47198 0.93374 0.34976 0.0
H1415 H 0.3821 0.87873 0.33897 0.0
H1416 H 0.39034 0.90687 0.34376 0.0
H1417 H 0.39311 0.88955 0.35766 0.0
C1418 C 0.42005 0.944 0.37868 0.0
C1419 C 0.42541 0.93676 0.39213 0.0
C1420 C 0.42451 0.93813 0.36444 0.0
C1421 C 0.43414 0.92473 0.3634 0.0
C1422 C 0.44023 0.91814 0.37679 0.0
H1423 H 0.45761 0.85384 0.29145 0.0
H1424 H 0.45953 0.87363 0.31503 0.0
C1425 C 0.43579 0.924 0.39104 0.0
C1426 C 0.43646 0.91631 0.34843 0.0
H1427 H 0.40625 0.88257 0.319 0.0
C1428 C 0.45766 0.92258 0.34299 0.0
C1429 C 0.4177 0.90166 0.33971 0.0
C1430 C 0.3945 0.89361 0.34533 0.0
C1431 C 0.46059 0.9148 0.32888 0.0
C1432 C 0.4418 0.90014 0.32018 0.0
C1433 C 0.42063 0.89394 0.32565 0.0
C1434 C 0.44341 0.8905 0.30549 0.0
C1435 C 0.48372 0.92258 0.3233 0.0
C1436 C 0.43376 0.89345 0.29232 0.0
C1437 C 0.43246 0.88202 0.27891 0.0
C1438 C 0.44073 0.86737 0.27845 0.0
C1439 C 0.45118 0.86509 0.29146 0.0
C1440 C 0.45241 0.87649 0.30491 0.0
H1441 H 0.49603 0.93808 0.32912 0.0
H1442 H 0.48812 0.90966 0.32573 0.0
H1443 H 0.48493 0.92545 0.3108 0.0
H1444 H 0.42664 0.90412 0.29255 0.0
H1445 H 0.42436 0.88416 0.26906 0.0
H1446 H 0.54691 0.44747 0.56757 0.0
H1447 H 0.56681 0.45744 0.54329 0.0
H1448 H 0.50505 0.42001 0.51907 0.0
H1449 H 0.48509 0.41054 0.54329 0.0
H1450 H 0.5677 0.42824 0.52393 0.0
H1451 H 0.53508 0.47518 0.49342 0.0
H1452 H 0.53128 0.46985 0.51365 0.0
H1453 H 0.51342 0.44901 0.50015 0.0
C1454 C 0.53758 0.44181 0.55703 0.0
C1455 C 0.51447 0.42833 0.55728 0.0
C1456 C 0.54894 0.44748 0.54319 0.0
C1457 C 0.53741 0.43975 0.52934 0.0
C1458 C 0.51427 0.42668 0.52956 0.0
H1459 H 0.56315 0.41603 0.43847 0.0
H1460 H 0.54808 0.42098 0.46235 0.0
C1461 C 0.50288 0.42113 0.5434 0.0
C1462 C 0.54966 0.44323 0.51487 0.0
H1463 H 0.55278 0.46 0.47793 0.0
C1464 C 0.56473 0.43555 0.51395 0.0
C1465 C 0.54573 0.45272 0.50185 0.0
C1466 C 0.53066 0.46236 0.50234 0.0
C1467 C 0.57523 0.43618 0.5002 0.0
C1468 C 0.57074 0.44499 0.48706 0.0
C1469 C 0.55615 0.45324 0.48804 0.0
C1470 C 0.57993 0.44428 0.47202 0.0
C1471 C 0.5903 0.42651 0.49968 0.0
C1472 C 0.60278 0.45624 0.46941 0.0
C1473 C 0.61146 0.45341 0.45578 0.0
C1474 C 0.59738 0.4386 0.44456 0.0
C1475 C 0.57442 0.42747 0.44694 0.0
C1476 C 0.56578 0.43032 0.46054 0.0
H1477 H 0.5888 0.41674 0.51005 0.0
H1478 H 0.5866 0.41567 0.48952 0.0
H1479 H 0.6077 0.44014 0.49883 0.0
H1480 H 0.61393 0.46731 0.47807 0.0
H1481 H 0.62921 0.46231 0.45423 0.0
H1482 H 0.081 0.46864 0.71188 0.0
H1483 H 0.0922 0.48767 0.68729 0.0
H1484 H 0.136 0.54895 0.71043 0.0
H1485 H 0.1246 0.53006 0.73508 0.0
H1486 H 0.11169 0.55313 0.68524 0.0
H1487 H 0.15408 0.50625 0.67029 0.0
H1488 H 0.12542 0.48955 0.6752 0.0
H1489 H 0.145 0.50706 0.68941 0.0
C1490 C 0.09267 0.48626 0.71172 0.0
C1491 C 0.10178 0.49795 0.72538 0.0
C1492 C 0.09915 0.49706 0.69769 0.0
C1493 C 0.11509 0.51964 0.69707 0.0
C1494 C 0.12365 0.53152 0.71069 0.0
H1495 H 0.19304 0.61501 0.62801 0.0
H1496 H 0.17259 0.59662 0.65113 0.0
C1497 C 0.11714 0.52074 0.72473 0.0
C1498 C 0.12393 0.53055 0.68224 0.0
H1499 H 0.15399 0.53044 0.65169 0.0
C1500 C 0.12089 0.54818 0.67785 0.0
C1501 C 0.13597 0.52405 0.6727 0.0
C1502 C 0.14053 0.50582 0.67714 0.0
C1503 C 0.12943 0.55937 0.66403 0.0
C1504 C 0.14165 0.55297 0.65455 0.0
C1505 C 0.14451 0.53524 0.65893 0.0
C1506 C 0.15232 0.56476 0.64025 0.0
C1507 C 0.12507 0.57772 0.65964 0.0
C1508 C 0.14787 0.55294 0.62649 0.0
C1509 C 0.15974 0.56333 0.61333 0.0
C1510 C 0.1763 0.58574 0.6137 0.0
C1511 C 0.18028 0.59775 0.62737 0.0
C1512 C 0.16849 0.5873 0.64056 0.0
H1513 H 0.1103 0.57611 0.66555 0.0
H1514 H 0.13949 0.59386 0.66299 0.0
H1515 H 0.12259 0.57789 0.64713 0.0
H1516 H 0.13553 0.53551 0.62602 0.0
H1517 H 0.15628 0.55367 0.60295 0.0
H1518 H 0.65147 0.11416 0.89155 0.0
H1519 H 0.6473 0.13225 0.86292 0.0
H1520 H 0.58135 0.1353 0.88198 0.0
H1521 H 0.584 0.11768 0.91125 0.0
H1522 H 0.61025 0.11413 0.843 0.0
H1523 H 0.619 0.19434 0.86097 0.0
H1524 H 0.62364 0.17699 0.87388 0.0
H1525 H 0.59596 0.17095 0.86963 0.0
C1526 C 0.63927 0.11922 0.89008 0.0
C1527 C 0.61574 0.1104 0.90346 0.0
C1528 C 0.63586 0.12944 0.87208 0.0
C1529 C 0.61335 0.13471 0.86906 0.0
C1530 C 0.59435 0.13154 0.88411 0.0
H1531 H 0.5872 0.18702 0.78587 0.0
H1532 H 0.58246 0.16893 0.81062 0.0
C1533 C 0.59634 0.12138 0.90257 0.0
C1534 C 0.61108 0.14223 0.85385 0.0
H1535 H 0.61054 0.18458 0.83489 0.0
C1536 C 0.61022 0.12949 0.84121 0.0
C1537 C 0.61089 0.16218 0.85162 0.0
C1538 C 0.61263 0.177 0.86474 0.0
C1539 C 0.60928 0.13621 0.8263 0.0
C1540 C 0.60985 0.15654 0.824 0.0
C1541 C 0.6101 0.16899 0.83669 0.0
C1542 C 0.6117 0.16594 0.80857 0.0
C1543 C 0.60761 0.12141 0.81318 0.0
C1544 C 0.6297 0.17027 0.79924 0.0
C1545 C 0.63236 0.18045 0.7851 0.0
C1546 C 0.61722 0.18676 0.78012 0.0
C1547 C 0.59909 0.18227 0.78941 0.0
C1548 C 0.59638 0.17198 0.80354 0.0
H1549 H 0.6 0.10385 0.81681 0.0
H1550 H 0.59772 0.12245 0.80363 0.0
H1551 H 0.62445 0.12662 0.80892 0.0
H1552 H 0.64204 0.16629 0.80305 0.0
H1553 H 0.6466 0.18386 0.77825 0.0
H1554 H 0.4935 0.588 0.07936 0.0
H1555 H 0.47167 0.58207 0.05014 0.0
H1556 H 0.5436 0.63367 0.02492 0.0
H1557 H 0.56741 0.6407 0.05331 0.0
H1558 H 0.47188 0.61254 0.02913 0.0
H1559 H 0.51646 0.57901 0.99636 0.0
H1560 H 0.51575 0.57909 0.01691 0.0
H1561 H 0.53426 0.60391 0.00673 0.0
C1562 C 0.50263 0.59701 0.06938 0.0
C1563 C 0.5334 0.61183 0.06873 0.0
C1564 C 0.4894 0.59262 0.05104 0.0
C1565 C 0.50544 0.60579 0.0342 0.0
C1566 C 0.53481 0.62507 0.03509 0.0
H1567 H 0.48187 0.62919 0.94263 0.0
H1568 H 0.49639 0.626 0.96728 0.0
C1569 C 0.54959 0.63059 0.05286 0.0
C1570 C 0.49388 0.60259 0.01956 0.0
H1571 H 0.49524 0.59057 0.98198 0.0
C1572 C 0.47676 0.60747 0.01884 0.0
C1573 C 0.50032 0.59593 0.00622 0.0
C1574 C 0.51757 0.58899 0.00657 0.0
C1575 C 0.46663 0.60703 0.0049 0.0
C1576 C 0.4735 0.60097 0.99144 0.0
C1577 C 0.49013 0.59535 0.9923 0.0
C1578 C 0.46456 0.60163 0.97625 0.0
C1579 C 0.44942 0.61405 0.00462 0.0
C1580 C 0.44192 0.58854 0.97298 0.0
C1581 C 0.43355 0.59044 0.95892 0.0
C1582 C 0.44775 0.60527 0.94786 0.0
C1583 C 0.47052 0.61766 0.95094 0.0
C1584 C 0.47884 0.61585 0.96501 0.0
H1585 H 0.44985 0.62311 0.01517 0.0
H1586 H 0.45181 0.62481 0.99465 0.0
H1587 H 0.43277 0.59914 0.00369 0.0
H1588 H 0.4307 0.57707 0.98136 0.0
H1589 H 0.41595 0.58057 0.95681 0.0
H1590 H 0.94903 0.56418 0.21746 0.0
H1591 H 0.92386 0.53639 0.19206 0.0
H1592 H 0.96648 0.49632 0.19329 0.0
H1593 H 0.99304 0.52317 0.21874 0.0
H1594 H 0.9389 0.52733 0.16355 0.0
H1595 H 0.89954 0.4457 0.19291 0.0
H1596 H 0.91028 0.47146 0.20326 0.0
H1597 H 0.92888 0.46356 0.19514 0.0
C1598 C 0.95296 0.55233 0.21256 0.0
C1599 C 0.97097 0.54382 0.22255 0.0
C1600 C 0.93661 0.53417 0.19732 0.0
C1601 C 0.94128 0.51234 0.19073 0.0
C1602 C 0.9634 0.50876 0.19817 0.0
H1603 H 0.86932 0.41759 0.1171 0.0
H1604 H 0.89529 0.43778 0.13797 0.0
C1605 C 0.98076 0.5261 0.21344 0.0
C1606 C 0.92791 0.49869 0.17782 0.0
H1607 H 0.88978 0.44598 0.16729 0.0
C1608 C 0.92823 0.50952 0.16432 0.0
C1609 C 0.9143 0.47549 0.17886 0.0
C1610 C 0.91303 0.46326 0.19332 0.0
C1611 C 0.91513 0.49775 0.15176 0.0
C1612 C 0.90067 0.47462 0.15298 0.0
C1613 C 0.90081 0.4637 0.16639 0.0
C1614 C 0.88454 0.46178 0.14076 0.0
C1615 C 0.91712 0.51027 0.13728 0.0
C1616 C 0.86948 0.46816 0.13574 0.0
C1617 C 0.85498 0.45692 0.12375 0.0
C1618 C 0.85483 0.43871 0.11679 0.0
C1619 C 0.86916 0.43162 0.12226 0.0
C1620 C 0.88398 0.44314 0.13415 0.0
H1621 H 0.93361 0.52545 0.13641 0.0
H1622 H 0.91445 0.49987 0.12701 0.0
H1623 H 0.90454 0.51552 0.13733 0.0
H1624 H 0.86906 0.48198 0.14102 0.0
H1625 H 0.84387 0.46253 0.11992 0.0
loop_
_geom_bond_atom_site_label_1
_geom_bond_atom_site_label_2
_geom_bond_distance
_geom_bond_site_symmetry_2
_ccdc_geom_bond_type
C0 C1 1.560 . S
C0 H61 0.959 . S
C0 H62 0.959 . S
C0 H63 0.960 . S
C1 C0 1.560 . S
C1 O56 1.426 . S
C1 H60 0.980 . S
C2 C3 1.407 . S
C2 C7 1.418 . S
C2 O56 1.334 . S
C3 C2 1.407 . S
C3 C4 1.360 . S
C3 H64 0.929 . S
C4 C3 1.360 . S
C4 C5 1.401 . S
C4 C8 1.527 . S
C5 C4 1.401 . S
C5 C6 1.405 . S
C5 C38 1.587 . S
C6 C5 1.405 . S
C6 C7 1.332 . S
C6 C9 1.496 . S
C7 C2 1.418 . S
C7 C6 1.332 . S
C7 H65 0.929 . S
C8 C4 1.527 . S
C8 H66 0.959 . S
C8 H67 0.961 . S
C8 H68 0.961 . S
C9 C6 1.496 . S
C9 H69 0.960 . S
C9 H70 0.960 . S
C9 H71 0.961 . S
C10 C11 1.517 . S
C10 H73 0.961 . S
C10 H74 0.960 . S
C10 H75 0.959 . S
C11 C10 1.517 . S
C11 O59 1.468 . S
C11 H72 0.980 . S
C12 C13 1.349 . S
C12 C17 1.367 . S
C12 O59 1.408 . S
C13 C12 1.349 . S
C13 C14 1.407 1_655 S
C13 H76 0.930 . S
C14 C13 1.407 1_455 S
C14 C15 1.449 . S
C14 C18 1.535 . S
C15 C14 1.449 . S
C15 C16 1.384 . S
C15 C40 1.553 . S
C16 C15 1.384 . S
C16 C17 1.364 1_455 S
C16 C19 1.450 . S
C17 C12 1.367 . S
C17 C16 1.364 1_655 S
C17 H77 0.931 . S
C18 C14 1.535 . S
C18 H78 0.959 . S
C18 H79 0.961 . S
C18 H80 0.959 1_455 S
C19 C16 1.450 . S
C19 H81 0.960 . S
C19 H82 0.960 . S
C19 H83 0.960 . S
C20 C21 1.309 . S
C20 C25 1.304 . S
C20 O58 1.435 . S
C21 C20 1.309 . S
C21 C22 1.476 . S
C21 H85 0.930 . S
C22 C21 1.476 . S
C22 C23 1.400 . S
C22 C26 1.567 . S
C23 C22 1.400 . S
C23 C24 1.373 . S
C23 C45 1.432 . S
C24 C23 1.373 . S
C24 C25 1.339 . S
C24 C27 1.530 . S
C25 C20 1.304 . S
C25 C24 1.339 . S
C25 H86 0.930 . S
C26 C22 1.567 . S
C26 H87 0.961 . S
C26 H88 0.960 . S
C26 H89 0.958 . S
C27 C24 1.530 . S
C27 H90 0.961 . S
C27 H91 0.960 . S
C27 H92 0.960 . S
C28 C29 1.530 . S
C28 H94 0.961 . S
C28 H95 0.961 . S
C28 H96 0.959 . S
C29 C28 1.530 . S
C29 O57 1.412 . S
C29 H93 0.980 . S
C30 C31 1.288 . S
C30 C35 1.377 . S
C30 O57 1.393 . S
C31 C30 1.288 . S
C31 C32 1.369 . S
C31 H97 0.932 . S
C32 C31 1.369 . S
C32 C33 1.398 . S
C32 C36 1.527 . S
C33 C32 1.398 . S
C33 C34 1.380 . S
C33 C47 1.497 . S
C34 C33 1.380 . S
C34 C35 1.383 . S
C34 C37 1.603 . S
C35 C30 1.377 . S
C35 C34 1.383 . S
C35 H98 0.929 . S
C36 C32 1.527 . S
C36 H99 0.961 . S
C36 H100 0.959 . S
C36 H101 0.959 . S
C37 C34 1.603 . S
C37 H102 0.960 . S
C37 H103 0.962 . S
C37 H104 0.961 . S
C38 C5 1.587 . S
C38 C39 1.360 . S
C38 C51 1.412 . S
C39 C38 1.360 . S
C39 C40 1.365 . S
C39 H105 0.929 . S
C40 C15 1.553 . S
C40 C39 1.365 . S
C40 C41 1.404 . S
C41 C40 1.404 . S
C41 C42 1.395 1_455 S
C41 C52 1.451 . S
C42 C41 1.395 1_655 S
C42 C43 1.322 . S
C42 H106 0.930 . S
C43 C42 1.322 . S
C43 C44 1.459 . S
C43 H107 0.929 . S
C44 C43 1.459 . S
C44 C45 1.445 . S
C44 C53 1.395 1_655 S
C45 C23 1.432 . S
C45 C44 1.445 . S
C45 C46 1.370 1_655 S
C46 C45 1.370 1_455 S
C46 C47 1.438 . S
C46 H108 0.930 1_455 S
C47 C33 1.497 . S
C47 C46 1.438 . S
C47 C48 1.360 . S
C48 C47 1.360 . S
C48 C49 1.401 . S
C48 C53 1.446 . S
C49 C48 1.401 . S
C49 C50 1.347 . S
C49 H109 0.929 . S
C50 C49 1.347 . S
C50 C51 1.455 . S
C50 H110 0.930 . S
C51 C38 1.412 . S
C51 C50 1.455 . S
C51 C52 1.331 . S
C52 C41 1.451 . S
C52 C51 1.331 . S
C52 C53 1.497 . S
C53 C44 1.395 1_455 S
C53 C48 1.446 . S
C53 C52 1.497 . S
C54 C55 1.582 . S
C54 H111 0.962 . S
C54 H112 0.959 . S
C54 H113 0.958 . S
C55 C54 1.582 . S
C55 O58 1.458 . S
C55 H84 0.980 . S
O56 C1 1.426 . S
O56 C2 1.334 . S
O57 C29 1.412 . S
O57 C30 1.393 . S
O58 C20 1.435 . S
O58 C55 1.458 . S
O59 C11 1.468 . S
O59 C12 1.408 . S
H60 C1 0.980 . S
H61 C0 0.959 . S
H62 C0 0.959 . S
H63 C0 0.960 . S
H64 C3 0.929 . S
H65 C7 0.929 . S
H66 C8 0.959 . S
H67 C8 0.961 . S
H68 C8 0.961 . S
H69 C9 0.960 . S
H70 C9 0.960 . S
H71 C9 0.961 . S
H72 C11 0.980 . S
H73 C10 0.961 . S
H74 C10 0.960 . S
H75 C10 0.959 . S
H76 C13 0.930 . S
H77 C17 0.931 . S
H78 C18 0.959 . S
H79 C18 0.961 . S
H80 C18 0.959 1_655 S
H81 C19 0.960 . S
H82 C19 0.960 . S
H83 C19 0.960 . S
H84 C55 0.980 . S
H85 C21 0.930 . S
H86 C25 0.930 . S
H87 C26 0.961 . S
H88 C26 0.960 . S
H89 C26 0.958 . S
H90 C27 0.961 . S
H91 C27 0.960 . S
H92 C27 0.960 . S
H93 C29 0.980 . S
H94 C28 0.961 . S
H95 C28 0.961 . S
H96 C28 0.959 . S
H97 C31 0.932 . S
H98 C35 0.929 . S
H99 C36 0.961 . S
H100 C36 0.959 . S
H101 C36 0.959 . S
H102 C37 0.960 . S
H103 C37 0.962 . S
H104 C37 0.961 . S
H105 C39 0.929 . S
H106 C42 0.930 . S
H107 C43 0.929 . S
H108 C46 0.930 1_655 S
H109 C49 0.929 . S
H110 C50 0.930 . S
H111 C54 0.962 . S
H112 C54 0.959 . S
H113 C54 0.958 . S
C114 C115 1.560 . S
C114 H175 0.959 . S
C114 H176 0.959 . S
C114 H177 0.960 . S
C115 C114 1.560 . S
C115 O170 1.426 . S
C115 H174 0.980 . S
C116 C117 1.407 . S
C116 C121 1.418 . S
C116 O170 1.334 . S
C117 C116 1.407 . S
C117 C118 1.360 . S
C117 H178 0.929 . S
C118 C117 1.360 . S
C118 C119 1.401 . S
C118 C122 1.527 . S
C119 C118 1.401 . S
C119 C120 1.405 . S
C119 C152 1.587 . S
C120 C119 1.405 . S
C120 C121 1.332 . S
C120 C123 1.496 . S
C121 C116 1.418 . S
C121 C120 1.332 . S
C121 H179 0.929 . S
C122 C118 1.527 . S
C122 H180 0.959 . S
C122 H181 0.961 . S
C122 H182 0.961 . S
C123 C120 1.496 . S
C123 H183 0.960 . S
C123 H184 0.960 . S
C123 H185 0.961 . S
C124 C125 1.517 . S
C124 H187 0.961 . S
C124 H188 0.960 . S
C124 H189 0.959 . S
C125 C124 1.517 . S
C125 O173 1.468 . S
C125 H186 0.980 . S
C126 C127 1.349 . S
C126 C131 1.367 . S
C126 O173 1.408 . S
C127 C126 1.349 . S
C127 C128 1.407 . S
C127 H190 0.930 . S
C128 C127 1.407 . S
C128 C129 1.449 . S
C128 C132 1.535 . S
C129 C128 1.449 . S
C129 C130 1.384 . S
C129 C154 1.553 . S
C130 C129 1.384 . S
C130 C131 1.364 . S
C130 C133 1.450 . S
C131 C126 1.367 . S
C131 C130 1.364 . S
C131 H191 0.931 . S
C132 C128 1.535 . S
C132 H192 0.959 . S
C132 H193 0.961 . S
C132 H194 0.959 . S
C133 C130 1.450 . S
C133 H195 0.960 . S
C133 H196 0.960 . S
C133 H197 0.960 . S
C134 C135 1.309 . S
C134 C139 1.304 . S
C134 O172 1.435 . S
C135 C134 1.309 . S
C135 C136 1.476 . S
C135 H199 0.930 . S
C136 C135 1.476 . S
C136 C137 1.400 . S
C136 C140 1.567 . S
C137 C136 1.400 . S
C137 C138 1.373 . S
C137 C159 1.432 . S
C138 C137 1.373 . S
C138 C139 1.339 . S
C138 C141 1.530 . S
C139 C134 1.304 . S
C139 C138 1.339 . S
C139 H200 0.930 . S
C140 C136 1.567 . S
C140 H201 0.961 . S
C140 H202 0.960 . S
C140 H203 0.958 . S
C141 C138 1.530 . S
C141 H204 0.961 . S
C141 H205 0.960 . S
C141 H206 0.960 . S
C142 C143 1.530 . S
C142 H208 0.961 . S
C142 H209 0.961 . S
C142 H210 0.959 . S
C143 C142 1.530 . S
C143 O171 1.412 . S
C143 H207 0.980 . S
C144 C145 1.288 . S
C144 C149 1.377 . S
C144 O171 1.393 . S
C145 C144 1.288 . S
C145 C146 1.369 1_565 S
C145 H211 0.932 . S
C146 C145 1.369 1_545 S
C146 C147 1.398 . S
C146 C150 1.527 . S
C147 C146 1.398 . S
C147 C148 1.380 1_545 S
C147 C161 1.497 . S
C148 C147 1.380 1_565 S
C148 C149 1.383 . S
C148 C151 1.603 . S
C149 C144 1.377 . S
C149 C148 1.383 . S
C149 H212 0.929 . S
C150 C146 1.527 . S
C150 H213 0.961 . S
C150 H214 0.959 . S
C150 H215 0.959 . S
C151 C148 1.603 . S
C151 H216 0.960 . S
C151 H217 0.962 1_565 S
C151 H218 0.961 . S
C152 C119 1.587 . S
C152 C153 1.360 . S
C152 C165 1.412 . S
C153 C152 1.360 . S
C153 C154 1.365 1_565 S
C153 H219 0.929 . S
C154 C129 1.553 . S
C154 C153 1.365 1_545 S
C154 C155 1.404 . S
C155 C154 1.404 . S
C155 C156 1.395 . S
C155 C166 1.451 . S
C156 C155 1.395 . S
C156 C157 1.322 . S
C156 H220 0.930 . S
C157 C156 1.322 . S
C157 C158 1.459 . S
C157 H221 0.929 . S
C158 C157 1.459 . S
C158 C159 1.445 . S
C158 C167 1.395 . S
C159 C137 1.432 . S
C159 C158 1.445 . S
C159 C160 1.370 . S
C160 C159 1.370 . S
C160 C161 1.438 . S
C160 H222 0.930 . S
C161 C147 1.497 . S
C161 C160 1.438 . S
C161 C162 1.360 . S
C162 C161 1.360 . S
C162 C163 1.401 1_545 S
C162 C167 1.446 . S
C163 C162 1.401 1_565 S
C163 C164 1.347 . S
C163 H223 0.929 . S
C164 C163 1.347 . S
C164 C165 1.455 . S
C164 H224 0.930 . S
C165 C152 1.412 . S
C165 C164 1.455 . S
C165 C166 1.331 1_565 S
C166 C155 1.451 . S
C166 C165 1.331 1_545 S
C166 C167 1.497 . S
C167 C158 1.395 . S
C167 C162 1.446 . S
C167 C166 1.497 . S
C168 C169 1.582 . S
C168 H225 0.962 . S
C168 H226 0.959 . S
C168 H227 0.958 . S
C169 C168 1.582 . S
C169 O172 1.458 . S
C169 H198 0.980 . S
O170 C115 1.426 . S
O170 C116 1.334 . S
O171 C143 1.412 . S
O171 C144 1.393 . S
O172 C134 1.435 . S
O172 C169 1.458 . S
O173 C125 1.468 . S
O173 C126 1.408 . S
H174 C115 0.980 . S
H175 C114 0.959 . S
H176 C114 0.959 . S
H177 C114 0.960 . S
H178 C117 0.929 . S
H179 C121 0.929 . S
H180 C122 0.959 . S
H181 C122 0.961 . S
H182 C122 0.961 . S
H183 C123 0.960 . S
H184 C123 0.960 . S
H185 C123 0.961 . S
H186 C125 0.980 . S
H187 C124 0.961 . S
H188 C124 0.960 . S
H189 C124 0.959 . S
H190 C127 0.930 . S
H191 C131 0.931 . S
H192 C132 0.959 . S
H193 C132 0.961 . S
H194 C132 0.959 . S
H195 C133 0.960 . S
H196 C133 0.960 . S
H197 C133 0.960 . S
H198 C169 0.980 . S
H199 C135 0.930 . S
H200 C139 0.930 . S
H201 C140 0.961 . S
H202 C140 0.960 . S
H203 C140 0.958 . S
H204 C141 0.961 . S
H205 C141 0.960 . S
H206 C141 0.960 . S
H207 C143 0.980 . S
H208 C142 0.961 . S
H209 C142 0.961 . S
H210 C142 0.959 . S
H211 C145 0.932 . S
H212 C149 0.929 . S
H213 C150 0.961 . S
H214 C150 0.959 . S
H215 C150 0.959 . S
H216 C151 0.960 . S
H217 C151 0.962 1_545 S
H218 C151 0.961 . S
H219 C153 0.929 . S
H220 C156 0.930 . S
H221 C157 0.929 . S
H222 C160 0.930 . S
H223 C163 0.929 . S
H224 C164 0.930 . S
H225 C168 0.962 . S
H226 C168 0.959 . S
H227 C168 0.958 . S
C228 C229 1.560 . S
C228 H289 0.959 . S
C228 H290 0.959 . S
C228 H291 0.960 . S
C229 C228 1.560 . S
C229 O284 1.426 . S
C229 H288 0.980 . S
C230 C231 1.407 . S
C230 C235 1.418 . S
C230 O284 1.334 . S
C231 C230 1.407 . S
C231 C232 1.360 . S
C231 H292 0.929 . S
C232 C231 1.360 . S
C232 C233 1.401 . S
C232 C236 1.527 . S
C233 C232 1.401 . S
C233 C234 1.405 . S
C233 C266 1.587 . S
C234 C233 1.405 . S
C234 C235 1.332 . S
C234 C237 1.496 . S
C235 C230 1.418 . S
C235 C234 1.332 . S
C235 H293 0.929 . S
C236 C232 1.527 . S
C236 H294 0.959 . S
C236 H295 0.961 . S
C236 H296 0.961 . S
C237 C234 1.496 . S
C237 H297 0.960 . S
C237 H298 0.960 . S
C237 H299 0.961 . S
C238 C239 1.517 . S
C238 H301 0.961 . S
C238 H302 0.960 . S
C238 H303 0.959 . S
C239 C238 1.517 . S
C239 O287 1.468 . S
C239 H300 0.980 . S
C240 C241 1.349 . S
C240 C245 1.367 . S
C240 O287 1.408 . S
C241 C240 1.349 . S
C241 C242 1.407 . S
C241 H304 0.930 . S
C242 C241 1.407 . S
C242 C243 1.449 . S
C242 C246 1.535 . S
C243 C242 1.449 . S
C243 C244 1.384 . S
C243 C268 1.553 . S
C244 C243 1.384 . S
C244 C245 1.364 . S
C244 C247 1.450 . S
C245 C240 1.367 . S
C245 C244 1.364 . S
C245 H305 0.931 . S
C246 C242 1.535 . S
C246 H306 0.959 . S
C246 H307 0.961 . S
C246 H308 0.959 . S
C247 C244 1.450 . S
C247 H309 0.960 . S
C247 H310 0.960 . S
C247 H311 0.960 . S
C248 C249 1.309 . S
C248 C253 1.304 . S
C248 O286 1.435 . S
C249 C248 1.309 . S
C249 C250 1.476 . S
C249 H313 0.930 . S
C250 C249 1.476 . S
C250 C251 1.400 . S
C250 C254 1.567 . S
C251 C250 1.400 . S
C251 C252 1.373 . S
C251 C273 1.432 . S
C252 C251 1.373 . S
C252 C253 1.339 . S
C252 C255 1.530 . S
C253 C248 1.304 . S
C253 C252 1.339 . S
C253 H314 0.930 . S
C254 C250 1.567 . S
C254 H315 0.961 . S
C254 H316 0.960 . S
C254 H317 0.958 . S
C255 C252 1.530 . S
C255 H318 0.961 . S
C255 H319 0.960 . S
C255 H320 0.960 . S
C256 C257 1.530 . S
C256 H322 0.961 . S
C256 H323 0.961 . S
C256 H324 0.959 . S
C257 C256 1.530 . S
C257 O285 1.412 . S
C257 H321 0.980 . S
C258 C259 1.288 . S
C258 C263 1.377 . S
C258 O285 1.393 . S
C259 C258 1.288 . S
C259 C260 1.369 . S
C259 H325 0.932 . S
C260 C259 1.369 . S
C260 C261 1.398 . S
C260 C264 1.527 . S
C261 C260 1.398 . S
C261 C262 1.380 . S
C261 C275 1.497 . S
C262 C261 1.380 . S
C262 C263 1.383 . S
C262 C265 1.603 . S
C263 C258 1.377 . S
C263 C262 1.383 . S
C263 H326 0.929 . S
C264 C260 1.527 . S
C264 H327 0.961 . S
C264 H328 0.959 . S
C264 H329 0.959 . S
C265 C262 1.603 . S
C265 H330 0.960 . S
C265 H331 0.962 . S
C265 H332 0.961 . S
C266 C233 1.587 . S
C266 C267 1.360 . S
C266 C279 1.412 . S
C267 C266 1.360 . S
C267 C268 1.365 . S
C267 H333 0.929 . S
C268 C243 1.553 . S
C268 C267 1.365 . S
C268 C269 1.404 . S
C269 C268 1.404 . S
C269 C270 1.395 . S
C269 C280 1.451 . S
C270 C269 1.395 . S
C270 C271 1.322 . S
C270 H334 0.930 . S
C271 C270 1.322 . S
C271 C272 1.459 . S
C271 H335 0.929 . S
C272 C271 1.459 . S
C272 C273 1.445 . S
C272 C281 1.395 . S
C273 C251 1.432 . S
C273 C272 1.445 . S
C273 C274 1.370 . S
C274 C273 1.370 . S
C274 C275 1.438 . S
C274 H336 0.930 . S
C275 C261 1.497 . S
C275 C274 1.438 . S
C275 C276 1.360 . S
C276 C275 1.360 . S
C276 C277 1.401 . S
C276 C281 1.446 . S
C277 C276 1.401 . S
C277 C278 1.347 . S
C277 H337 0.929 . S
C278 C277 1.347 . S
C278 C279 1.455 . S
C278 H338 0.930 . S
C279 C266 1.412 . S
C279 C278 1.455 . S
C279 C280 1.331 . S
C280 C269 1.451 . S
C280 C279 1.331 . S
C280 C281 1.497 . S
C281 C272 1.395 . S
C281 C276 1.446 . S
C281 C280 1.497 . S
C282 C283 1.582 . S
C282 H339 0.962 . S
C282 H340 0.959 . S
C282 H341 0.958 . S
C283 C282 1.582 . S
C283 O286 1.458 . S
C283 H312 0.980 . S
O284 C229 1.426 . S
O284 C230 1.334 . S
O285 C257 1.412 . S
O285 C258 1.393 . S
O286 C248 1.435 . S
O286 C283 1.458 . S
O287 C239 1.468 . S
O287 C240 1.408 . S
H288 C229 0.980 . S
H289 C228 0.959 . S
H290 C228 0.959 . S
H291 C228 0.960 . S
H292 C231 0.929 . S
H293 C235 0.929 . S
H294 C236 0.959 . S
H295 C236 0.961 . S
H296 C236 0.961 . S
H297 C237 0.960 . S
H298 C237 0.960 . S
H299 C237 0.961 . S
H300 C239 0.980 . S
H301 C238 0.961 . S
H302 C238 0.960 . S
H303 C238 0.959 . S
H304 C241 0.930 . S
H305 C245 0.931 . S
H306 C246 0.959 . S
H307 C246 0.961 . S
H308 C246 0.959 . S
H309 C247 0.960 . S
H310 C247 0.960 . S
H311 C247 0.960 . S
H312 C283 0.980 . S
H313 C249 0.930 . S
H314 C253 0.930 . S
H315 C254 0.961 . S
H316 C254 0.960 . S
H317 C254 0.958 . S
H318 C255 0.961 . S
H319 C255 0.960 . S
H320 C255 0.960 . S
H321 C257 0.980 . S
H322 C256 0.961 . S
H323 C256 0.961 . S
H324 C256 0.959 . S
H325 C259 0.932 . S
H326 C263 0.929 . S
H327 C264 0.961 . S
H328 C264 0.959 . S
H329 C264 0.959 . S
H330 C265 0.960 . S
H331 C265 0.962 . S
H332 C265 0.961 . S
H333 C267 0.929 . S
H334 C270 0.930 . S
H335 C271 0.929 . S
H336 C274 0.930 . S
H337 C277 0.929 . S
H338 C278 0.930 . S
H339 C282 0.962 . S
H340 C282 0.959 . S
H341 C282 0.958 . S
C342 C343 1.560 . S
C342 H403 0.959 . S
C342 H404 0.959 . S
C342 H405 0.960 . S
C343 C342 1.560 . S
C343 O398 1.426 . S
C343 H402 0.980 . S
C344 C345 1.407 . S
C344 C349 1.418 . S
C344 O398 1.334 . S
C345 C344 1.407 . S
C345 C346 1.360 . S
C345 H406 0.929 . S
C346 C345 1.360 . S
C346 C347 1.401 . S
C346 C350 1.527 . S
C347 C346 1.401 . S
C347 C348 1.405 . S
C347 C380 1.587 . S
C348 C347 1.405 . S
C348 C349 1.332 . S
C348 C351 1.496 . S
C349 C344 1.418 . S
C349 C348 1.332 . S
C349 H407 0.929 . S
C350 C346 1.527 . S
C350 H408 0.959 . S
C350 H409 0.961 . S
C350 H410 0.961 . S
C351 C348 1.496 . S
C351 H411 0.960 . S
C351 H412 0.960 . S
C351 H413 0.961 . S
C352 C353 1.517 . S
C352 H415 0.961 . S
C352 H416 0.960 . S
C352 H417 0.959 . S
C353 C352 1.517 . S
C353 O401 1.468 . S
C353 H414 0.980 . S
C354 C355 1.349 . S
C354 C359 1.367 . S
C354 O401 1.408 . S
C355 C354 1.349 . S
C355 C356 1.407 1_655 S
C355 H418 0.930 . S
C356 C355 1.407 1_455 S
C356 C357 1.449 . S
C356 C360 1.535 . S
C357 C356 1.449 . S
C357 C358 1.384 . S
C357 C382 1.553 . S
C358 C357 1.384 . S
C358 C359 1.364 1_455 S
C358 C361 1.450 . S
C359 C354 1.367 . S
C359 C358 1.364 1_655 S
C359 H419 0.931 . S
C360 C356 1.535 . S
C360 H420 0.959 . S
C360 H421 0.961 . S
C360 H422 0.959 1_455 S
C361 C358 1.450 . S
C361 H423 0.960 . S
C361 H424 0.960 . S
C361 H425 0.960 . S
C362 C363 1.309 . S
C362 C367 1.304 . S
C362 O400 1.435 . S
C363 C362 1.309 . S
C363 C364 1.476 . S
C363 H427 0.930 . S
C364 C363 1.476 . S
C364 C365 1.400 . S
C364 C368 1.567 . S
C365 C364 1.400 . S
C365 C366 1.373 . S
C365 C387 1.432 . S
C366 C365 1.373 . S
C366 C367 1.339 . S
C366 C369 1.530 . S
C367 C362 1.304 . S
C367 C366 1.339 . S
C367 H428 0.930 . S
C368 C364 1.567 . S
C368 H429 0.961 . S
C368 H430 0.960 . S
C368 H431 0.958 . S
C369 C366 1.530 . S
C369 H432 0.961 . S
C369 H433 0.960 . S
C369 H434 0.960 . S
C370 C371 1.530 . S
C370 H436 0.961 . S
C370 H437 0.961 . S
C370 H438 0.959 . S
C371 C370 1.530 . S
C371 O399 1.412 . S
C371 H435 0.980 . S
C372 C373 1.288 . S
C372 C377 1.377 . S
C372 O399 1.393 . S
C373 C372 1.288 . S
C373 C374 1.369 . S
C373 H439 0.932 . S
C374 C373 1.369 . S
C374 C375 1.398 . S
C374 C378 1.527 . S
C375 C374 1.398 . S
C375 C376 1.380 . S
C375 C389 1.497 . S
C376 C375 1.380 . S
C376 C377 1.383 . S
C376 C379 1.603 . S
C377 C372 1.377 . S
C377 C376 1.383 . S
C377 H440 0.929 . S
C378 C374 1.527 . S
C378 H441 0.961 . S
C378 H442 0.959 . S
C378 H443 0.959 . S
C379 C376 1.603 . S
C379 H444 0.960 . S
C379 H445 0.962 . S
C379 H446 0.961 . S
C380 C347 1.587 . S
C380 C381 1.360 . S
C380 C393 1.412 . S
C381 C380 1.360 . S
C381 C382 1.365 . S
C381 H447 0.929 . S
C382 C357 1.553 . S
C382 C381 1.365 . S
C382 C383 1.404 . S
C383 C382 1.404 . S
C383 C384 1.395 1_455 S
C383 C394 1.451 . S
C384 C383 1.395 1_655 S
C384 C385 1.322 . S
C384 H448 0.930 . S
C385 C384 1.322 . S
C385 C386 1.459 . S
C385 H449 0.929 . S
C386 C385 1.459 . S
C386 C387 1.445 . S
C386 C395 1.395 1_655 S
C387 C365 1.432 . S
C387 C386 1.445 . S
C387 C388 1.370 1_655 S
C388 C387 1.370 1_455 S
C388 C389 1.438 . S
C388 H450 0.930 1_455 S
C389 C375 1.497 . S
C389 C388 1.438 . S
C389 C390 1.360 . S
C390 C389 1.360 . S
C390 C391 1.401 . S
C390 C395 1.446 . S
C391 C390 1.401 . S
C391 C392 1.347 . S
C391 H451 0.929 . S
C392 C391 1.347 . S
C392 C393 1.455 . S
C392 H452 0.930 . S
C393 C380 1.412 . S
C393 C392 1.455 . S
C393 C394 1.331 . S
C394 C383 1.451 . S
C394 C393 1.331 . S
C394 C395 1.497 . S
C395 C386 1.395 1_455 S
C395 C390 1.446 . S
C395 C394 1.497 . S
C396 C397 1.582 . S
C396 H453 0.962 . S
C396 H454 0.959 . S
C396 H455 0.958 . S
C397 C396 1.582 . S
C397 O400 1.458 . S
C397 H426 0.980 . S
O398 C343 1.426 . S
O398 C344 1.334 . S
O399 C371 1.412 . S
O399 C372 1.393 . S
O400 C362 1.435 . S
O400 C397 1.458 . S
O401 C353 1.468 . S
O401 C354 1.408 . S
H402 C343 0.980 . S
H403 C342 0.959 . S
H404 C342 0.959 . S
H405 C342 0.960 . S
H406 C345 0.929 . S
H407 C349 0.929 . S
H408 C350 0.959 . S
H409 C350 0.961 . S
H410 C350 0.961 . S
H411 C351 0.960 . S
H412 C351 0.960 . S
H413 C351 0.961 . S
H414 C353 0.980 . S
H415 C352 0.961 . S
H416 C352 0.960 . S
H417 C352 0.959 . S
H418 C355 0.930 . S
H419 C359 0.931 . S
H420 C360 0.959 . S
H421 C360 0.961 . S
H422 C360 0.959 1_655 S
H423 C361 0.960 . S
H424 C361 0.960 . S
H425 C361 0.960 . S
H426 C397 0.980 . S
H427 C363 0.930 . S
H428 C367 0.930 . S
H429 C368 0.961 . S
H430 C368 0.960 . S
H431 C368 0.958 . S
H432 C369 0.961 . S
H433 C369 0.960 . S
H434 C369 0.960 . S
H435 C371 0.980 . S
H436 C370 0.961 . S
H437 C370 0.961 . S
H438 C370 0.959 . S
H439 C373 0.932 . S
H440 C377 0.929 . S
H441 C378 0.961 . S
H442 C378 0.959 . S
H443 C378 0.959 . S
H444 C379 0.960 . S
H445 C379 0.962 . S
H446 C379 0.961 . S
H447 C381 0.929 . S
H448 C384 0.930 . S
H449 C385 0.929 . S
H450 C388 0.930 1_655 S
H451 C391 0.929 . S
H452 C392 0.930 . S
H453 C396 0.962 . S
H454 C396 0.959 . S
H455 C396 0.958 . S
C456 C457 1.560 . S
C456 H517 0.959 . S
C456 H518 0.959 . S
C456 H519 0.960 . S
C457 C456 1.560 . S
C457 O512 1.426 . S
C457 H516 0.980 . S
C458 C459 1.407 . S
C458 C463 1.418 . S
C458 O512 1.334 . S
C459 C458 1.407 . S
C459 C460 1.360 . S
C459 H520 0.929 . S
C460 C459 1.360 . S
C460 C461 1.401 . S
C460 C464 1.527 . S
C461 C460 1.401 . S
C461 C462 1.405 . S
C461 C494 1.587 . S
C462 C461 1.405 . S
C462 C463 1.332 . S
C462 C465 1.496 . S
C463 C458 1.418 . S
C463 C462 1.332 . S
C463 H521 0.929 . S
C464 C460 1.527 . S
C464 H522 0.959 . S
C464 H523 0.961 . S
C464 H524 0.961 . S
C465 C462 1.496 . S
C465 H525 0.960 . S
C465 H526 0.960 . S
C465 H527 0.961 . S
C466 C467 1.517 . S
C466 H529 0.961 . S
C466 H530 0.960 . S
C466 H531 0.959 . S
C467 C466 1.517 . S
C467 O515 1.468 . S
C467 H528 0.980 . S
C468 C469 1.349 . S
C468 C473 1.367 . S
C468 O515 1.408 . S
C469 C468 1.349 . S
C469 C470 1.407 . S
C469 H532 0.930 . S
C470 C469 1.407 . S
C470 C471 1.449 . S
C470 C474 1.535 . S
C471 C470 1.449 . S
C471 C472 1.384 . S
C471 C496 1.553 . S
C472 C471 1.384 . S
C472 C473 1.364 . S
C472 C475 1.450 . S
C473 C468 1.367 . S
C473 C472 1.364 . S
C473 H533 0.931 . S
C474 C470 1.535 . S
C474 H534 0.959 . S
C474 H535 0.961 . S
C474 H536 0.959 . S
C475 C472 1.450 . S
C475 H537 0.960 . S
C475 H538 0.960 . S
C475 H539 0.960 . S
C476 C477 1.309 . S
C476 C481 1.304 . S
C476 O514 1.435 . S
C477 C476 1.309 . S
C477 C478 1.476 . S
C477 H541 0.930 . S
C478 C477 1.476 . S
C478 C479 1.400 . S
C478 C482 1.567 . S
C479 C478 1.400 . S
C479 C480 1.373 . S
C479 C501 1.432 . S
C480 C479 1.373 . S
C480 C481 1.339 . S
C480 C483 1.530 . S
C481 C476 1.304 . S
C481 C480 1.339 . S
C481 H542 0.930 . S
C482 C478 1.567 . S
C482 H543 0.961 . S
C482 H544 0.960 . S
C482 H545 0.958 . S
C483 C480 1.530 . S
C483 H546 0.961 . S
C483 H547 0.960 . S
C483 H548 0.960 . S
C484 C485 1.530 . S
C484 H550 0.961 . S
C484 H551 0.961 . S
C484 H552 0.959 . S
C485 C484 1.530 . S
C485 O513 1.412 . S
C485 H549 0.980 . S
C486 C487 1.288 . S
C486 C491 1.377 . S
C486 O513 1.393 . S
C487 C486 1.288 . S
C487 C488 1.369 1_565 S
C487 H553 0.932 . S
C488 C487 1.369 1_545 S
C488 C489 1.398 . S
C488 C492 1.527 . S
C489 C488 1.398 . S
C489 C490 1.380 1_545 S
C489 C503 1.497 . S
C490 C489 1.380 1_565 S
C490 C491 1.383 . S
C490 C493 1.603 . S
C491 C486 1.377 . S
C491 C490 1.383 . S
C491 H554 0.929 . S
C492 C488 1.527 . S
C492 H555 0.961 . S
C492 H556 0.959 . S
C492 H557 0.959 . S
C493 C490 1.603 . S
C493 H558 0.960 . S
C493 H559 0.962 1_565 S
C493 H560 0.961 . S
C494 C461 1.587 . S
C494 C495 1.360 . S
C494 C507 1.412 . S
C495 C494 1.360 . S
C495 C496 1.365 1_565 S
C495 H561 0.929 . S
C496 C471 1.553 . S
C496 C495 1.365 1_545 S
C496 C497 1.404 . S
C497 C496 1.404 . S
C497 C498 1.395 . S
C497 C508 1.451 . S
C498 C497 1.395 . S
C498 C499 1.322 . S
C498 H562 0.930 . S
C499 C498 1.322 . S
C499 C500 1.459 . S
C499 H563 0.929 . S
C500 C499 1.459 . S
C500 C501 1.445 1_556 S
C500 C509 1.395 . S
C501 C479 1.432 . S
C501 C500 1.445 1_554 S
C501 C502 1.370 . S
C502 C501 1.370 . S
C502 C503 1.438 . S
C502 H564 0.930 . S
C503 C489 1.497 . S
C503 C502 1.438 . S
C503 C504 1.360 . S
C504 C503 1.360 . S
C504 C505 1.401 1_545 S
C504 C509 1.446 1_554 S
C505 C504 1.401 1_565 S
C505 C506 1.347 1_554 S
C505 H565 0.929 . S
C506 C505 1.347 1_556 S
C506 C507 1.455 . S
C506 H566 0.930 . S
C507 C494 1.412 . S
C507 C506 1.455 . S
C507 C508 1.331 1_565 S
C508 C497 1.451 . S
C508 C507 1.331 1_545 S
C508 C509 1.497 . S
C509 C500 1.395 . S
C509 C504 1.446 1_556 S
C509 C508 1.497 . S
C510 C511 1.582 . S
C510 H567 0.962 . S
C510 H568 0.959 . S
C510 H569 0.958 . S
C511 C510 1.582 . S
C511 O514 1.458 . S
C511 H540 0.980 . S
O512 C457 1.426 . S
O512 C458 1.334 . S
O513 C485 1.412 . S
O513 C486 1.393 . S
O514 C476 1.435 . S
O514 C511 1.458 . S
O515 C467 1.468 . S
O515 C468 1.408 . S
H516 C457 0.980 . S
H517 C456 0.959 . S
H518 C456 0.959 . S
H519 C456 0.960 . S
H520 C459 0.929 . S
H521 C463 0.929 . S
H522 C464 0.959 . S
H523 C464 0.961 . S
H524 C464 0.961 . S
H525 C465 0.960 . S
H526 C465 0.960 . S
H527 C465 0.961 . S
H528 C467 0.980 . S
H529 C466 0.961 . S
H530 C466 0.960 . S
H531 C466 0.959 . S
H532 C469 0.930 . S
H533 C473 0.931 . S
H534 C474 0.959 . S
H535 C474 0.961 . S
H536 C474 0.959 . S
H537 C475 0.960 . S
H538 C475 0.960 . S
H539 C475 0.960 . S
H540 C511 0.980 . S
H541 C477 0.930 . S
H542 C481 0.930 . S
H543 C482 0.961 . S
H544 C482 0.960 . S
H545 C482 0.958 . S
H546 C483 0.961 . S
H547 C483 0.960 . S
H548 C483 0.960 . S
H549 C485 0.980 . S
H550 C484 0.961 . S
H551 C484 0.961 . S
H552 C484 0.959 . S
H553 C487 0.932 . S
H554 C491 0.929 . S
H555 C492 0.961 . S
H556 C492 0.959 . S
H557 C492 0.959 . S
H558 C493 0.960 . S
H559 C493 0.962 1_545 S
H560 C493 0.961 . S
H561 C495 0.929 . S
H562 C498 0.930 . S
H563 C499 0.929 . S
H564 C502 0.930 . S
H565 C505 0.929 . S
H566 C506 0.930 . S
H567 C510 0.962 . S
H568 C510 0.959 . S
H569 C510 0.958 . S
C570 C571 1.560 . S
C570 H631 0.959 . S
C570 H632 0.959 . S
C570 H633 0.960 . S
C571 C570 1.560 . S
C571 O626 1.426 . S
C571 H630 0.980 . S
C572 C573 1.407 . S
C572 C577 1.418 . S
C572 O626 1.334 . S
C573 C572 1.407 . S
C573 C574 1.360 . S
C573 H634 0.929 . S
C574 C573 1.360 . S
C574 C575 1.401 . S
C574 C578 1.527 . S
C575 C574 1.401 . S
C575 C576 1.405 . S
C575 C608 1.587 . S
C576 C575 1.405 . S
C576 C577 1.332 . S
C576 C579 1.496 . S
C577 C572 1.418 . S
C577 C576 1.332 . S
C577 H635 0.929 . S
C578 C574 1.527 . S
C578 H636 0.959 . S
C578 H637 0.961 . S
C578 H638 0.961 . S
C579 C576 1.496 . S
C579 H639 0.960 . S
C579 H640 0.960 . S
C579 H641 0.961 . S
C580 C581 1.517 . S
C580 H643 0.961 . S
C580 H644 0.960 . S
C580 H645 0.959 . S
C581 C580 1.517 . S
C581 O629 1.468 . S
C581 H642 0.980 . S
C582 C583 1.349 . S
C582 C587 1.367 . S
C582 O629 1.408 . S
C583 C582 1.349 . S
C583 C584 1.407 . S
C583 H646 0.930 . S
C584 C583 1.407 . S
C584 C585 1.449 . S
C584 C588 1.535 . S
C585 C584 1.449 . S
C585 C586 1.384 . S
C585 C610 1.553 . S
C586 C585 1.384 . S
C586 C587 1.364 . S
C586 C589 1.450 . S
C587 C582 1.367 . S
C587 C586 1.364 . S
C587 H647 0.931 . S
C588 C584 1.535 . S
C588 H648 0.959 . S
C588 H649 0.961 . S
C588 H650 0.959 . S
C589 C586 1.450 . S
C589 H651 0.960 . S
C589 H652 0.960 . S
C589 H653 0.960 . S
C590 C591 1.309 . S
C590 C595 1.304 . S
C590 O628 1.435 . S
C591 C590 1.309 . S
C591 C592 1.476 . S
C591 H655 0.930 . S
C592 C591 1.476 . S
C592 C593 1.400 . S
C592 C596 1.567 . S
C593 C592 1.400 . S
C593 C594 1.373 . S
C593 C615 1.432 . S
C594 C593 1.373 . S
C594 C595 1.339 . S
C594 C597 1.530 . S
C595 C590 1.304 . S
C595 C594 1.339 . S
C595 H656 0.930 . S
C596 C592 1.567 . S
C596 H657 0.961 . S
C596 H658 0.960 . S
C596 H659 0.958 . S
C597 C594 1.530 . S
C597 H660 0.961 . S
C597 H661 0.960 . S
C597 H662 0.960 . S
C598 C599 1.530 . S
C598 H664 0.961 . S
C598 H665 0.961 . S
C598 H666 0.959 . S
C599 C598 1.530 . S
C599 O627 1.412 . S
C599 H663 0.980 . S
C600 C601 1.288 . S
C600 C605 1.377 . S
C600 O627 1.393 . S
C601 C600 1.288 . S
C601 C602 1.369 . S
C601 H667 0.932 . S
C602 C601 1.369 . S
C602 C603 1.398 . S
C602 C606 1.527 . S
C603 C602 1.398 . S
C603 C604 1.380 . S
C603 C617 1.497 . S
C604 C603 1.380 . S
C604 C605 1.383 . S
C604 C607 1.603 . S
C605 C600 1.377 . S
C605 C604 1.383 . S
C605 H668 0.929 . S
C606 C602 1.527 . S
C606 H669 0.961 . S
C606 H670 0.959 . S
C606 H671 0.959 . S
C607 C604 1.603 . S
C607 H672 0.960 . S
C607 H673 0.962 . S
C607 H674 0.961 . S
C608 C575 1.587 . S
C608 C609 1.360 . S
C608 C621 1.412 . S
C609 C608 1.360 . S
C609 C610 1.365 . S
C609 H675 0.929 . S
C610 C585 1.553 . S
C610 C609 1.365 . S
C610 C611 1.404 . S
C611 C610 1.404 . S
C611 C612 1.395 . S
C611 C622 1.451 . S
C612 C611 1.395 . S
C612 C613 1.322 . S
C612 H676 0.930 . S
C613 C612 1.322 . S
C613 C614 1.459 . S
C613 H677 0.929 . S
C614 C613 1.459 . S
C614 C615 1.445 . S
C614 C623 1.395 . S
C615 C593 1.432 . S
C615 C614 1.445 . S
C615 C616 1.370 . S
C616 C615 1.370 . S
C616 C617 1.438 . S
C616 H678 0.930 . S
C617 C603 1.497 . S
C617 C616 1.438 . S
C617 C618 1.360 . S
C618 C617 1.360 . S
C618 C619 1.401 . S
C618 C623 1.446 . S
C619 C618 1.401 . S
C619 C620 1.347 . S
C619 H679 0.929 . S
C620 C619 1.347 . S
C620 C621 1.455 . S
C620 H680 0.930 . S
C621 C608 1.412 . S
C621 C620 1.455 . S
C621 C622 1.331 . S
C622 C611 1.451 . S
C622 C621 1.331 . S
C622 C623 1.497 . S
C623 C614 1.395 . S
C623 C618 1.446 . S
C623 C622 1.497 . S
C624 C625 1.582 . S
C624 H681 0.962 . S
C624 H682 0.959 . S
C624 H683 0.958 . S
C625 C624 1.582 . S
C625 O628 1.458 . S
C625 H654 0.980 . S
O626 C571 1.426 . S
O626 C572 1.334 . S
O627 C599 1.412 . S
O627 C600 1.393 . S
O628 C590 1.435 . S
O628 C625 1.458 . S
O629 C581 1.468 . S
O629 C582 1.408 . S
H630 C571 0.980 . S
H631 C570 0.959 . S
H632 C570 0.959 . S
H633 C570 0.960 . S
H634 C573 0.929 . S
H635 C577 0.929 . S
H636 C578 0.959 . S
H637 C578 0.961 . S
H638 C578 0.961 . S
H639 C579 0.960 . S
H640 C579 0.960 . S
H641 C579 0.961 . S
H642 C581 0.980 . S
H643 C580 0.961 . S
H644 C580 0.960 . S
H645 C580 0.959 . S
H646 C583 0.930 . S
H647 C587 0.931 . S
H648 C588 0.959 . S
H649 C588 0.961 . S
H650 C588 0.959 . S
H651 C589 0.960 . S
H652 C589 0.960 . S
H653 C589 0.960 . S
H654 C625 0.980 . S
H655 C591 0.930 . S
H656 C595 0.930 . S
H657 C596 0.961 . S
H658 C596 0.960 . S
H659 C596 0.958 . S
H660 C597 0.961 . S
H661 C597 0.960 . S
H662 C597 0.960 . S
H663 C599 0.980 . S
H664 C598 0.961 . S
H665 C598 0.961 . S
H666 C598 0.959 . S
H667 C601 0.932 . S
H668 C605 0.929 . S
H669 C606 0.961 . S
H670 C606 0.959 . S
H671 C606 0.959 . S
H672 C607 0.960 . S
H673 C607 0.962 . S
H674 C607 0.961 . S
H675 C609 0.929 . S
H676 C612 0.930 . S
H677 C613 0.929 . S
H678 C616 0.930 . S
H679 C619 0.929 . S
H680 C620 0.930 . S
H681 C624 0.962 . S
H682 C624 0.959 . S
H683 C624 0.958 . S
In684 O685 2.294 . S
In684 O686 2.326 . S
In684 O690 2.266 . S
In684 O691 2.326 . S
In684 O692 2.266 . S
In684 O693 2.326 . S
In684 O695 2.294 . S
In684 O696 2.326 . S
O685 In684 2.294 . S
O685 C694 1.240 . S
O686 In684 2.326 . S
O686 C694 1.252 . S
C687 O690 1.252 . S
C687 O691 1.260 . S
C688 O695 1.240 . S
C688 O696 1.252 . S
C689 O692 1.252 . S
C689 O693 1.260 . S
O690 In684 2.266 . S
O690 C687 1.252 . S
O691 In684 2.326 . S
O691 C687 1.260 . S
O692 In684 2.266 . S
O692 C689 1.252 . S
O693 In684 2.326 . S
O693 C689 1.260 . S
C694 O685 1.240 . S
C694 O686 1.252 . S
O695 In684 2.294 . S
O695 C688 1.240 . S
O696 In684 2.326 . S
O696 C688 1.252 . S
In697 O698 2.294 . S
In697 O699 2.326 . S
In697 O703 2.266 . S
In697 O704 2.326 . S
In697 O705 2.266 . S
In697 O706 2.326 . S
In697 O708 2.294 . S
In697 O709 2.326 . S
O698 In697 2.294 . S
O698 C707 1.240 . S
O699 In697 2.326 . S
O699 C707 1.252 . S
C700 O703 1.252 . S
C700 O704 1.260 . S
C701 O708 1.240 . S
C701 O709 1.252 . S
C702 O705 1.252 . S
C702 O706 1.260 . S
O703 In697 2.266 . S
O703 C700 1.252 . S
O704 In697 2.326 . S
O704 C700 1.260 . S
O705 In697 2.266 . S
O705 C702 1.252 . S
O706 In697 2.326 . S
O706 C702 1.260 . S
C707 O698 1.240 . S
C707 O699 1.252 . S
O708 In697 2.294 . S
O708 C701 1.240 . S
O709 In697 2.326 . S
O709 C701 1.252 . S
In710 O711 2.294 . S
In710 O712 2.326 . S
In710 O716 2.266 . S
In710 O717 2.326 . S
In710 O718 2.266 . S
In710 O719 2.326 . S
In710 O721 2.294 . S
In710 O722 2.326 . S
O711 In710 2.294 . S
O711 C720 1.240 . S
O712 In710 2.326 . S
O712 C720 1.252 . S
C713 O716 1.252 . S
C713 O717 1.260 . S
C714 O721 1.240 . S
C714 O722 1.252 . S
C715 O718 1.252 . S
C715 O719 1.260 . S
O716 In710 2.266 . S
O716 C713 1.252 . S
O717 In710 2.326 . S
O717 C713 1.260 . S
O718 In710 2.266 . S
O718 C715 1.252 . S
O719 In710 2.326 . S
O719 C715 1.260 . S
C720 O711 1.240 . S
C720 O712 1.252 . S
O721 In710 2.294 . S
O721 C714 1.240 . S
O722 In710 2.326 . S
O722 C714 1.252 . S
In723 O724 2.294 . S
In723 O725 2.326 . S
In723 O729 2.266 . S
In723 O730 2.326 . S
In723 O731 2.266 . S
In723 O732 2.326 . S
In723 O734 2.294 . S
In723 O735 2.326 . S
O724 In723 2.294 . S
O724 C733 1.240 . S
O725 In723 2.326 . S
O725 C733 1.252 . S
C726 O729 1.252 . S
C726 O730 1.260 . S
C727 O734 1.240 . S
C727 O735 1.252 . S
C728 O731 1.252 . S
C728 O732 1.260 . S
O729 In723 2.266 . S
O729 C726 1.252 . S
O730 In723 2.326 . S
O730 C726 1.260 . S
O731 In723 2.266 . S
O731 C728 1.252 . S
O732 In723 2.326 . S
O732 C728 1.260 . S
C733 O724 1.240 . S
C733 O725 1.252 . S
O734 In723 2.294 . S
O734 C727 1.240 . S
O735 In723 2.326 . S
O735 C727 1.252 . S
In736 O737 2.294 . S
In736 O738 2.326 . S
In736 O742 2.266 . S
In736 O743 2.326 . S
In736 O744 2.266 . S
In736 O745 2.326 . S
In736 O747 2.294 . S
In736 O748 2.326 . S
O737 In736 2.294 . S
O737 C746 1.240 . S
O738 In736 2.326 . S
O738 C746 1.252 . S
C739 O742 1.252 . S
C739 O743 1.260 . S
C740 O747 1.240 . S
C740 O748 1.252 . S
C741 O744 1.252 . S
C741 O745 1.260 . S
O742 In736 2.266 . S
O742 C739 1.252 . S
O743 In736 2.326 . S
O743 C739 1.260 . S
O744 In736 2.266 . S
O744 C741 1.252 . S
O745 In736 2.326 . S
O745 C741 1.260 . S
C746 O737 1.240 . S
C746 O738 1.252 . S
O747 In736 2.294 . S
O747 C740 1.240 . S
O748 In736 2.326 . S
O748 C740 1.252 . S
In749 O750 2.294 . S
In749 O751 2.326 . S
In749 O755 2.266 . S
In749 O756 2.326 . S
In749 O757 2.266 . S
In749 O758 2.326 . S
In749 O760 2.294 . S
In749 O761 2.326 . S
O750 In749 2.294 . S
O750 C759 1.240 . S
O751 In749 2.326 . S
O751 C759 1.252 . S
C752 O755 1.252 . S
C752 O756 1.260 . S
C753 O760 1.240 . S
C753 O761 1.252 . S
C754 O757 1.252 . S
C754 O758 1.260 . S
O755 In749 2.266 . S
O755 C752 1.252 . S
O756 In749 2.326 . S
O756 C752 1.260 . S
O757 In749 2.266 . S
O757 C754 1.252 . S
O758 In749 2.326 . S
O758 C754 1.260 . S
C759 O750 1.240 . S
C759 O751 1.252 . S
O760 In749 2.294 . S
O760 C753 1.240 . S
O761 In749 2.326 . S
O761 C753 1.252 . S
H762 C770 0.929 . S
H763 C772 0.930 . S
H764 C774 0.930 . S
H765 C777 0.929 . S
H766 C780 0.930 . S
H767 C782 0.960 . S
H768 C782 0.960 . S
H769 C782 0.960 . S
C770 H762 0.929 . S
C770 C771 1.377 . S
C770 C772 1.384 . S
C771 C770 1.377 . S
C771 C777 1.390 . S
C772 H763 0.930 . S
C772 C770 1.384 . S
C772 C773 1.372 . S
C773 C772 1.372 . S
C773 C774 1.400 . S
C773 C778 1.490 . S
C774 H764 0.930 . S
C774 C773 1.400 . S
C774 C777 1.386 . S
H775 C791 0.930 . S
H776 C792 0.931 . S
C777 H765 0.929 . S
C777 C771 1.390 . S
C777 C774 1.386 . S
C778 C773 1.490 . S
C778 C780 1.395 . S
C778 C781 1.403 . S
H779 C785 0.930 . S
C780 H766 0.930 . S
C780 C778 1.395 . S
C780 C783 1.403 . S
C781 C778 1.403 . S
C781 C782 1.524 . S
C781 C785 1.400 . S
C782 H767 0.960 . S
C782 H768 0.960 . S
C782 H769 0.960 . S
C782 C781 1.524 . S
C783 C780 1.403 . S
C783 C784 1.392 . S
C783 C787 1.495 . S
C784 C783 1.392 . S
C784 C785 1.385 . S
C784 C786 1.478 . S
C785 H779 0.930 . S
C785 C781 1.400 . S
C785 C784 1.385 . S
C786 C784 1.478 . S
C786 C788 1.381 . S
C786 C792 1.383 . S
C787 C783 1.495 . S
C787 H793 0.959 . S
C787 H794 0.961 . S
C787 H795 0.960 . S
C788 C786 1.381 . S
C788 C789 1.394 . S
C788 H796 0.930 . S
C789 C788 1.394 . S
C789 C790 1.383 . S
C789 H797 0.929 . S
C790 C789 1.383 . S
C790 C791 1.377 . S
C791 H775 0.930 . S
C791 C790 1.377 . S
C791 C792 1.379 . S
C792 H776 0.931 . S
C792 C786 1.383 . S
C792 C791 1.379 . S
H793 C787 0.959 . S
H794 C787 0.961 . S
H795 C787 0.960 . S
H796 C788 0.930 . S
H797 C789 0.929 . S
H798 C806 0.929 . S
H799 C808 0.930 . S
H800 C810 0.930 . S
H801 C813 0.929 . S
H802 C816 0.930 . S
H803 C818 0.960 . S
H804 C818 0.960 . S
H805 C818 0.960 . S
C806 H798 0.929 . S
C806 C807 1.377 . S
C806 C808 1.384 . S
C807 C806 1.377 . S
C807 C813 1.390 . S
C808 H799 0.930 . S
C808 C806 1.384 . S
C808 C809 1.372 . S
C809 C808 1.372 . S
C809 C810 1.400 . S
C809 C814 1.490 . S
C810 H800 0.930 . S
C810 C809 1.400 . S
C810 C813 1.386 . S
H811 C827 0.930 . S
H812 C828 0.931 . S
C813 H801 0.929 . S
C813 C807 1.390 . S
C813 C810 1.386 . S
C814 C809 1.490 . S
C814 C816 1.395 . S
C814 C817 1.403 . S
H815 C821 0.930 . S
C816 H802 0.930 . S
C816 C814 1.395 . S
C816 C819 1.403 . S
C817 C814 1.403 . S
C817 C818 1.524 . S
C817 C821 1.400 . S
C818 H803 0.960 . S
C818 H804 0.960 . S
C818 H805 0.960 . S
C818 C817 1.524 . S
C819 C816 1.403 . S
C819 C820 1.392 . S
C819 C823 1.495 . S
C820 C819 1.392 . S
C820 C821 1.385 . S
C820 C822 1.478 . S
C821 H815 0.930 . S
C821 C817 1.400 . S
C821 C820 1.385 . S
C822 C820 1.478 . S
C822 C824 1.381 . S
C822 C828 1.383 . S
C823 C819 1.495 . S
C823 H829 0.959 . S
C823 H830 0.961 . S
C823 H831 0.960 . S
C824 C822 1.381 . S
C824 C825 1.394 . S
C824 H832 0.930 . S
C825 C824 1.394 . S
C825 C826 1.383 . S
C825 H833 0.929 . S
C826 C825 1.383 . S
C826 C827 1.377 . S
C827 H811 0.930 . S
C827 C826 1.377 . S
C827 C828 1.379 . S
C828 H812 0.931 . S
C828 C822 1.383 . S
C828 C827 1.379 . S
H829 C823 0.959 . S
H830 C823 0.961 . S
H831 C823 0.960 . S
H832 C824 0.930 . S
H833 C825 0.929 . S
H834 C842 0.929 . S
H835 C844 0.930 . S
H836 C846 0.930 . S
H837 C849 0.929 . S
H838 C852 0.930 . S
H839 C854 0.960 . S
H840 C854 0.960 . S
H841 C854 0.960 . S
C842 H834 0.929 . S
C842 C843 1.377 . S
C842 C844 1.384 . S
C843 C842 1.377 . S
C843 C849 1.390 . S
C844 H835 0.930 . S
C844 C842 1.384 . S
C844 C845 1.372 . S
C845 C844 1.372 . S
C845 C846 1.400 . S
C845 C850 1.490 . S
C846 H836 0.930 . S
C846 C845 1.400 . S
C846 C849 1.386 . S
H847 C863 0.930 . S
H848 C864 0.931 . S
C849 H837 0.929 . S
C849 C843 1.390 . S
C849 C846 1.386 . S
C850 C845 1.490 . S
C850 C852 1.395 . S
C850 C853 1.403 . S
H851 C857 0.930 . S
C852 H838 0.930 . S
C852 C850 1.395 . S
C852 C855 1.403 . S
C853 C850 1.403 . S
C853 C854 1.524 . S
C853 C857 1.400 . S
C854 H839 0.960 . S
C854 H840 0.960 . S
C854 H841 0.960 . S
C854 C853 1.524 . S
C855 C852 1.403 . S
C855 C856 1.392 . S
C855 C859 1.495 . S
C856 C855 1.392 . S
C856 C857 1.385 . S
C856 C858 1.478 . S
C857 H851 0.930 . S
C857 C853 1.400 . S
C857 C856 1.385 . S
C858 C856 1.478 . S
C858 C860 1.381 . S
C858 C864 1.383 . S
C859 C855 1.495 . S
C859 H865 0.959 . S
C859 H866 0.961 . S
C859 H867 0.960 . S
C860 C858 1.381 . S
C860 C861 1.394 . S
C860 H868 0.930 . S
C861 C860 1.394 . S
C861 C862 1.383 . S
C861 H869 0.929 . S
C862 C861 1.383 . S
C862 C863 1.377 . S
C863 H847 0.930 . S
C863 C862 1.377 . S
C863 C864 1.379 . S
C864 H848 0.931 . S
C864 C858 1.383 . S
C864 C863 1.379 . S
H865 C859 0.959 . S
H866 C859 0.961 . S
H867 C859 0.960 . S
H868 C860 0.930 . S
H869 C861 0.929 . S
H870 C878 0.929 . S
H871 C880 0.930 . S
H872 C882 0.930 . S
H873 C885 0.929 . S
H874 C888 0.930 . S
H875 C890 0.960 . S
H876 C890 0.960 . S
H877 C890 0.960 . S
C878 H870 0.929 . S
C878 C879 1.377 . S
C878 C880 1.384 . S
C879 C878 1.377 . S
C879 C885 1.390 . S
C880 H871 0.930 . S
C880 C878 1.384 . S
C880 C881 1.372 . S
C881 C880 1.372 . S
C881 C882 1.400 . S
C881 C886 1.490 . S
C882 H872 0.930 . S
C882 C881 1.400 . S
C882 C885 1.386 . S
H883 C899 0.930 . S
H884 C900 0.931 . S
C885 H873 0.929 . S
C885 C879 1.390 . S
C885 C882 1.386 . S
C886 C881 1.490 . S
C886 C888 1.395 . S
C886 C889 1.403 . S
H887 C893 0.930 . S
C888 H874 0.930 . S
C888 C886 1.395 . S
C888 C891 1.403 . S
C889 C886 1.403 . S
C889 C890 1.524 . S
C889 C893 1.400 . S
C890 H875 0.960 . S
C890 H876 0.960 . S
C890 H877 0.960 . S
C890 C889 1.524 . S
C891 C888 1.403 . S
C891 C892 1.392 . S
C891 C895 1.495 . S
C892 C891 1.392 . S
C892 C893 1.385 . S
C892 C894 1.478 . S
C893 H887 0.930 . S
C893 C889 1.400 . S
C893 C892 1.385 . S
C894 C892 1.478 . S
C894 C896 1.381 . S
C894 C900 1.383 . S
C895 C891 1.495 . S
C895 H901 0.959 . S
C895 H902 0.961 . S
C895 H903 0.960 . S
C896 C894 1.381 . S
C896 C897 1.394 . S
C896 H904 0.930 . S
C897 C896 1.394 . S
C897 C898 1.383 . S
C897 H905 0.929 . S
C898 C897 1.383 . S
C898 C899 1.377 . S
C899 H883 0.930 . S
C899 C898 1.377 . S
C899 C900 1.379 . S
C900 H884 0.931 . S
C900 C894 1.383 . S
C900 C899 1.379 . S
H901 C895 0.959 . S
H902 C895 0.961 . S
H903 C895 0.960 . S
H904 C896 0.930 . S
H905 C897 0.929 . S
H906 C914 0.929 . S
H907 C916 0.930 . S
H908 C918 0.930 . S
H909 C921 0.929 . S
H910 C924 0.930 . S
H911 C926 0.960 . S
H912 C926 0.960 . S
H913 C926 0.960 . S
C914 H906 0.929 . S
C914 C915 1.377 . S
C914 C916 1.384 . S
C915 C914 1.377 . S
C915 C921 1.390 . S
C916 H907 0.930 . S
C916 C914 1.384 . S
C916 C917 1.372 . S
C917 C916 1.372 . S
C917 C918 1.400 . S
C917 C922 1.490 . S
C918 H908 0.930 . S
C918 C917 1.400 . S
C918 C921 1.386 . S
H919 C935 0.930 . S
H920 C936 0.931 . S
C921 H909 0.929 . S
C921 C915 1.390 . S
C921 C918 1.386 . S
C922 C917 1.490 . S
C922 C924 1.395 . S
C922 C925 1.403 . S
H923 C929 0.930 . S
C924 H910 0.930 . S
C924 C922 1.395 . S
C924 C927 1.403 . S
C925 C922 1.403 . S
C925 C926 1.524 . S
C925 C929 1.400 . S
C926 H911 0.960 . S
C926 H912 0.960 . S
C926 H913 0.960 . S
C926 C925 1.524 . S
C927 C924 1.403 . S
C927 C928 1.392 . S
C927 C931 1.495 . S
C928 C927 1.392 . S
C928 C929 1.385 . S
C928 C930 1.478 . S
C929 H923 0.930 . S
C929 C925 1.400 . S
C929 C928 1.385 . S
C930 C928 1.478 . S
C930 C932 1.381 . S
C930 C936 1.383 . S
C931 C927 1.495 . S
C931 H937 0.959 . S
C931 H938 0.961 . S
C931 H939 0.960 . S
C932 C930 1.381 . S
C932 C933 1.394 . S
C932 H940 0.930 . S
C933 C932 1.394 . S
C933 C934 1.383 . S
C933 H941 0.929 . S
C934 C933 1.383 . S
C934 C935 1.377 . S
C935 H919 0.930 . S
C935 C934 1.377 . S
C935 C936 1.379 . S
C936 H920 0.931 . S
C936 C930 1.383 . S
C936 C935 1.379 . S
H937 C931 0.959 . S
H938 C931 0.961 . S
H939 C931 0.960 . S
H940 C932 0.930 . S
H941 C933 0.929 . S
H942 C950 0.929 . S
H943 C952 0.930 . S
H944 C954 0.930 . S
H945 C957 0.929 . S
H946 C960 0.930 . S
H947 C962 0.960 . S
H948 C962 0.960 . S
H949 C962 0.960 . S
C950 H942 0.929 . S
C950 C951 1.377 . S
C950 C952 1.384 . S
C951 C950 1.377 . S
C951 C957 1.390 . S
C952 H943 0.930 . S
C952 C950 1.384 . S
C952 C953 1.372 . S
C953 C952 1.372 . S
C953 C954 1.400 . S
C953 C958 1.490 . S
C954 H944 0.930 . S
C954 C953 1.400 . S
C954 C957 1.386 . S
H955 C971 0.930 . S
H956 C972 0.931 . S
C957 H945 0.929 . S
C957 C951 1.390 . S
C957 C954 1.386 . S
C958 C953 1.490 . S
C958 C960 1.395 . S
C958 C961 1.403 . S
H959 C965 0.930 . S
C960 H946 0.930 . S
C960 C958 1.395 . S
C960 C963 1.403 . S
C961 C958 1.403 . S
C961 C962 1.524 . S
C961 C965 1.400 . S
C962 H947 0.960 . S
C962 H948 0.960 . S
C962 H949 0.960 . S
C962 C961 1.524 . S
C963 C960 1.403 . S
C963 C964 1.392 . S
C963 C967 1.495 . S
C964 C963 1.392 . S
C964 C965 1.385 . S
C964 C966 1.478 . S
C965 H959 0.930 . S
C965 C961 1.400 . S
C965 C964 1.385 . S
C966 C964 1.478 . S
C966 C968 1.381 . S
C966 C972 1.383 . S
C967 C963 1.495 . S
C967 H973 0.959 . S
C967 H974 0.961 . S
C967 H975 0.960 . S
C968 C966 1.381 . S
C968 C969 1.394 . S
C968 H976 0.930 . S
C969 C968 1.394 . S
C969 C970 1.383 . S
C969 H977 0.929 . S
C970 C969 1.383 . S
C970 C971 1.377 . S
C971 H955 0.930 . S
C971 C970 1.377 . S
C971 C972 1.379 . S
C972 H956 0.931 . S
C972 C966 1.383 . S
C972 C971 1.379 . S
H973 C967 0.959 . S
H974 C967 0.961 . S
H975 C967 0.960 . S
H976 C968 0.930 . S
H977 C969 0.929 . S
H978 C986 0.929 . S
H979 C988 0.930 . S
H980 C990 0.930 . S
H981 C993 0.929 . S
H982 C996 0.930 . S
H983 C998 0.960 . S
H984 C998 0.960 . S
H985 C998 0.960 . S
C986 H978 0.929 . S
C986 C987 1.377 . S
C986 C988 1.384 . S
C987 C986 1.377 . S
C987 C993 1.390 . S
C988 H979 0.930 . S
C988 C986 1.384 . S
C988 C989 1.372 . S
C989 C988 1.372 . S
C989 C990 1.400 . S
C989 C994 1.490 . S
C990 H980 0.930 . S
C990 C989 1.400 . S
C990 C993 1.386 . S
H991 C1007 0.930 . S
H992 C1008 0.931 . S
C993 H981 0.929 . S
C993 C987 1.390 . S
C993 C990 1.386 . S
C994 C989 1.490 . S
C994 C996 1.395 . S
C994 C997 1.403 . S
H995 C1001 0.930 . S
C996 H982 0.930 . S
C996 C994 1.395 . S
C996 C999 1.403 . S
C997 C994 1.403 . S
C997 C998 1.524 . S
C997 C1001 1.400 . S
C998 H983 0.960 . S
C998 H984 0.960 . S
C998 H985 0.960 . S
C998 C997 1.524 . S
C999 C996 1.403 . S
C999 C1000 1.392 . S
C999 C1003 1.495 . S
C1000 C999 1.392 . S
C1000 C1001 1.385 . S
C1000 C1002 1.478 . S
C1001 H995 0.930 . S
C1001 C997 1.400 . S
C1001 C1000 1.385 . S
C1002 C1000 1.478 . S
C1002 C1004 1.381 . S
C1002 C1008 1.383 . S
C1003 C999 1.495 . S
C1003 H1009 0.959 . S
C1003 H1010 0.961 . S
C1003 H1011 0.960 . S
C1004 C1002 1.381 . S
C1004 C1005 1.394 . S
C1004 H1012 0.930 . S
C1005 C1004 1.394 . S
C1005 C1006 1.383 . S
C1005 H1013 0.929 . S
C1006 C1005 1.383 . S
C1006 C1007 1.377 . S
C1007 H991 0.930 . S
C1007 C1006 1.377 . S
C1007 C1008 1.379 . S
C1008 H992 0.931 . S
C1008 C1002 1.383 . S
C1008 C1007 1.379 . S
H1009 C1003 0.959 . S
H1010 C1003 0.961 . S
H1011 C1003 0.960 . S
H1012 C1004 0.930 . S
H1013 C1005 0.929 . S
H1014 C1022 0.929 . S
H1015 C1024 0.930 . S
H1016 C1026 0.930 . S
H1017 C1029 0.929 . S
H1018 C1032 0.930 . S
H1019 C1034 0.960 . S
H1020 C1034 0.960 . S
H1021 C1034 0.960 . S
C1022 H1014 0.929 . S
C1022 C1023 1.377 . S
C1022 C1024 1.384 . S
C1023 C1022 1.377 . S
C1023 C1029 1.390 . S
C1024 H1015 0.930 . S
C1024 C1022 1.384 . S
C1024 C1025 1.372 . S
C1025 C1024 1.372 . S
C1025 C1026 1.400 . S
C1025 C1030 1.490 . S
C1026 H1016 0.930 . S
C1026 C1025 1.400 . S
C1026 C1029 1.386 . S
H1027 C1043 0.930 . S
H1028 C1044 0.931 . S
C1029 H1017 0.929 . S
C1029 C1023 1.390 . S
C1029 C1026 1.386 . S
C1030 C1025 1.490 . S
C1030 C1032 1.395 . S
C1030 C1033 1.403 . S
H1031 C1037 0.930 . S
C1032 H1018 0.930 . S
C1032 C1030 1.395 . S
C1032 C1035 1.403 . S
C1033 C1030 1.403 . S
C1033 C1034 1.524 . S
C1033 C1037 1.400 . S
C1034 H1019 0.960 . S
C1034 H1020 0.960 . S
C1034 H1021 0.960 . S
C1034 C1033 1.524 . S
C1035 C1032 1.403 . S
C1035 C1036 1.392 . S
C1035 C1039 1.495 . S
C1036 C1035 1.392 . S
C1036 C1037 1.385 . S
C1036 C1038 1.478 . S
C1037 H1031 0.930 . S
C1037 C1033 1.400 . S
C1037 C1036 1.385 . S
C1038 C1036 1.478 . S
C1038 C1040 1.381 . S
C1038 C1044 1.383 . S
C1039 C1035 1.495 . S
C1039 H1045 0.959 . S
C1039 H1046 0.961 . S
C1039 H1047 0.960 . S
C1040 C1038 1.381 . S
C1040 C1041 1.394 . S
C1040 H1048 0.930 . S
C1041 C1040 1.394 . S
C1041 C1042 1.383 . S
C1041 H1049 0.929 . S
C1042 C1041 1.383 . S
C1042 C1043 1.377 . S
C1043 H1027 0.930 . S
C1043 C1042 1.377 . S
C1043 C1044 1.379 . S
C1044 H1028 0.931 . S
C1044 C1038 1.383 . S
C1044 C1043 1.379 . S
H1045 C1039 0.959 . S
H1046 C1039 0.961 . S
H1047 C1039 0.960 . S
H1048 C1040 0.930 . S
H1049 C1041 0.929 . S
H1050 C1058 0.929 . S
H1051 C1060 0.930 . S
H1052 C1062 0.930 . S
H1053 C1065 0.929 . S
H1054 C1068 0.930 . S
H1055 C1070 0.960 . S
H1056 C1070 0.960 . S
H1057 C1070 0.960 . S
C1058 H1050 0.929 . S
C1058 C1059 1.377 . S
C1058 C1060 1.384 . S
C1059 C1058 1.377 . S
C1059 C1065 1.390 . S
C1060 H1051 0.930 . S
C1060 C1058 1.384 . S
C1060 C1061 1.372 . S
C1061 C1060 1.372 . S
C1061 C1062 1.400 . S
C1061 C1066 1.490 . S
C1062 H1052 0.930 . S
C1062 C1061 1.400 . S
C1062 C1065 1.386 . S
H1063 C1079 0.930 . S
H1064 C1080 0.931 . S
C1065 H1053 0.929 . S
C1065 C1059 1.390 . S
C1065 C1062 1.386 . S
C1066 C1061 1.490 . S
C1066 C1068 1.395 . S
C1066 C1069 1.403 . S
H1067 C1073 0.930 . S
C1068 H1054 0.930 . S
C1068 C1066 1.395 . S
C1068 C1071 1.403 . S
C1069 C1066 1.403 . S
C1069 C1070 1.524 . S
C1069 C1073 1.400 . S
C1070 H1055 0.960 . S
C1070 H1056 0.960 . S
C1070 H1057 0.960 . S
C1070 C1069 1.524 . S
C1071 C1068 1.403 . S
C1071 C1072 1.392 . S
C1071 C1075 1.495 . S
C1072 C1071 1.392 . S
C1072 C1073 1.385 . S
C1072 C1074 1.478 . S
C1073 H1067 0.930 . S
C1073 C1069 1.400 . S
C1073 C1072 1.385 . S
C1074 C1072 1.478 . S
C1074 C1076 1.381 . S
C1074 C1080 1.383 . S
C1075 C1071 1.495 . S
C1075 H1081 0.959 . S
C1075 H1082 0.961 . S
C1075 H1083 0.960 . S
C1076 C1074 1.381 . S
C1076 C1077 1.394 . S
C1076 H1084 0.930 . S
C1077 C1076 1.394 . S
C1077 C1078 1.383 . S
C1077 H1085 0.929 . S
C1078 C1077 1.383 . S
C1078 C1079 1.377 . S
C1079 H1063 0.930 . S
C1079 C1078 1.377 . S
C1079 C1080 1.379 . S
C1080 H1064 0.931 . S
C1080 C1074 1.383 . S
C1080 C1079 1.379 . S
H1081 C1075 0.959 . S
H1082 C1075 0.961 . S
H1083 C1075 0.960 . S
H1084 C1076 0.930 . S
H1085 C1077 0.929 . S
H1086 C1094 0.929 . S
H1087 C1096 0.930 . S
H1088 C1098 0.930 . S
H1089 C1101 0.929 . S
H1090 C1104 0.930 . S
H1091 C1106 0.960 . S
H1092 C1106 0.960 . S
H1093 C1106 0.960 . S
C1094 H1086 0.929 . S
C1094 C1095 1.377 . S
C1094 C1096 1.384 . S
C1095 C1094 1.377 . S
C1095 C1101 1.390 . S
C1096 H1087 0.930 . S
C1096 C1094 1.384 . S
C1096 C1097 1.372 . S
C1097 C1096 1.372 . S
C1097 C1098 1.400 . S
C1097 C1102 1.490 . S
C1098 H1088 0.930 . S
C1098 C1097 1.400 . S
C1098 C1101 1.386 . S
H1099 C1115 0.930 . S
H1100 C1116 0.931 . S
C1101 H1089 0.929 . S
C1101 C1095 1.390 . S
C1101 C1098 1.386 . S
C1102 C1097 1.490 . S
C1102 C1104 1.395 . S
C1102 C1105 1.403 . S
H1103 C1109 0.930 . S
C1104 H1090 0.930 . S
C1104 C1102 1.395 . S
C1104 C1107 1.403 . S
C1105 C1102 1.403 . S
C1105 C1106 1.524 . S
C1105 C1109 1.400 . S
C1106 H1091 0.960 . S
C1106 H1092 0.960 . S
C1106 H1093 0.960 . S
C1106 C1105 1.524 . S
C1107 C1104 1.403 . S
C1107 C1108 1.392 . S
C1107 C1111 1.495 . S
C1108 C1107 1.392 . S
C1108 C1109 1.385 . S
C1108 C1110 1.478 . S
C1109 H1103 0.930 . S
C1109 C1105 1.400 . S
C1109 C1108 1.385 . S
C1110 C1108 1.478 . S
C1110 C1112 1.381 . S
C1110 C1116 1.383 . S
C1111 C1107 1.495 . S
C1111 H1117 0.959 . S
C1111 H1118 0.961 . S
C1111 H1119 0.960 . S
C1112 C1110 1.381 . S
C1112 C1113 1.394 . S
C1112 H1120 0.930 . S
C1113 C1112 1.394 . S
C1113 C1114 1.383 . S
C1113 H1121 0.929 . S
C1114 C1113 1.383 . S
C1114 C1115 1.377 . S
C1115 H1099 0.930 . S
C1115 C1114 1.377 . S
C1115 C1116 1.379 . S
C1116 H1100 0.931 . S
C1116 C1110 1.383 . S
C1116 C1115 1.379 . S
H1117 C1111 0.959 . S
H1118 C1111 0.961 . S
H1119 C1111 0.960 . S
H1120 C1112 0.930 . S
H1121 C1113 0.929 . S
H1122 C1130 0.929 . S
H1123 C1132 0.930 . S
H1124 C1134 0.930 . S
H1125 C1137 0.929 . S
H1126 C1140 0.930 . S
H1127 C1142 0.960 . S
H1128 C1142 0.960 . S
H1129 C1142 0.960 . S
C1130 H1122 0.929 . S
C1130 C1131 1.377 . S
C1130 C1132 1.384 . S
C1131 C1130 1.377 . S
C1131 C1137 1.390 . S
C1132 H1123 0.930 . S
C1132 C1130 1.384 . S
C1132 C1133 1.372 . S
C1133 C1132 1.372 . S
C1133 C1134 1.400 . S
C1133 C1138 1.490 . S
C1134 H1124 0.930 . S
C1134 C1133 1.400 . S
C1134 C1137 1.386 . S
H1135 C1151 0.930 . S
H1136 C1152 0.931 . S
C1137 H1125 0.929 . S
C1137 C1131 1.390 . S
C1137 C1134 1.386 . S
C1138 C1133 1.490 . S
C1138 C1140 1.395 . S
C1138 C1141 1.403 . S
H1139 C1145 0.930 . S
C1140 H1126 0.930 . S
C1140 C1138 1.395 . S
C1140 C1143 1.403 . S
C1141 C1138 1.403 . S
C1141 C1142 1.524 . S
C1141 C1145 1.400 . S
C1142 H1127 0.960 . S
C1142 H1128 0.960 . S
C1142 H1129 0.960 . S
C1142 C1141 1.524 . S
C1143 C1140 1.403 . S
C1143 C1144 1.392 . S
C1143 C1147 1.495 . S
C1144 C1143 1.392 . S
C1144 C1145 1.385 . S
C1144 C1146 1.478 . S
C1145 H1139 0.930 . S
C1145 C1141 1.400 . S
C1145 C1144 1.385 . S
C1146 C1144 1.478 . S
C1146 C1148 1.381 . S
C1146 C1152 1.383 . S
C1147 C1143 1.495 . S
C1147 H1153 0.959 . S
C1147 H1154 0.961 . S
C1147 H1155 0.960 . S
C1148 C1146 1.381 . S
C1148 C1149 1.394 . S
C1148 H1156 0.930 . S
C1149 C1148 1.394 . S
C1149 C1150 1.383 . S
C1149 H1157 0.929 . S
C1150 C1149 1.383 . S
C1150 C1151 1.377 . S
C1151 H1135 0.930 . S
C1151 C1150 1.377 . S
C1151 C1152 1.379 . S
C1152 H1136 0.931 . S
C1152 C1146 1.383 . S
C1152 C1151 1.379 . S
H1153 C1147 0.959 . S
H1154 C1147 0.961 . S
H1155 C1147 0.960 . S
H1156 C1148 0.930 . S
H1157 C1149 0.929 . S
H1158 C1166 0.929 . S
H1159 C1168 0.930 . S
H1160 C1170 0.930 . S
H1161 C1173 0.929 . S
H1162 C1176 0.930 . S
H1163 C1178 0.960 . S
H1164 C1178 0.960 . S
H1165 C1178 0.960 . S
C1166 H1158 0.929 . S
C1166 C1167 1.377 . S
C1166 C1168 1.384 . S
C1167 C1166 1.377 . S
C1167 C1173 1.390 . S
C1168 H1159 0.930 . S
C1168 C1166 1.384 . S
C1168 C1169 1.372 . S
C1169 C1168 1.372 . S
C1169 C1170 1.400 . S
C1169 C1174 1.490 . S
C1170 H1160 0.930 . S
C1170 C1169 1.400 . S
C1170 C1173 1.386 . S
H1171 C1187 0.930 . S
H1172 C1188 0.931 . S
C1173 H1161 0.929 . S
C1173 C1167 1.390 . S
C1173 C1170 1.386 . S
C1174 C1169 1.490 . S
C1174 C1176 1.395 . S
C1174 C1177 1.403 . S
H1175 C1181 0.930 . S
C1176 H1162 0.930 . S
C1176 C1174 1.395 . S
C1176 C1179 1.403 . S
C1177 C1174 1.403 . S
C1177 C1178 1.524 . S
C1177 C1181 1.400 . S
C1178 H1163 0.960 . S
C1178 H1164 0.960 . S
C1178 H1165 0.960 . S
C1178 C1177 1.524 . S
C1179 C1176 1.403 . S
C1179 C1180 1.392 . S
C1179 C1183 1.495 . S
C1180 C1179 1.392 . S
C1180 C1181 1.385 . S
C1180 C1182 1.478 . S
C1181 H1175 0.930 . S
C1181 C1177 1.400 . S
C1181 C1180 1.385 . S
C1182 C1180 1.478 . S
C1182 C1184 1.381 . S
C1182 C1188 1.383 . S
C1183 C1179 1.495 . S
C1183 H1189 0.959 . S
C1183 H1190 0.961 . S
C1183 H1191 0.960 . S
C1184 C1182 1.381 . S
C1184 C1185 1.394 . S
C1184 H1192 0.930 . S
C1185 C1184 1.394 . S
C1185 C1186 1.383 . S
C1185 H1193 0.929 . S
C1186 C1185 1.383 . S
C1186 C1187 1.377 . S
C1187 H1171 0.930 . S
C1187 C1186 1.377 . S
C1187 C1188 1.379 . S
C1188 H1172 0.931 . S
C1188 C1182 1.383 . S
C1188 C1187 1.379 . S
H1189 C1183 0.959 . S
H1190 C1183 0.961 . S
H1191 C1183 0.960 . S
H1192 C1184 0.930 . S
H1193 C1185 0.929 . S
H1194 C1202 0.929 . S
H1195 C1204 0.930 . S
H1196 C1206 0.930 . S
H1197 C1209 0.929 . S
H1198 C1212 0.930 . S
H1199 C1214 0.960 . S
H1200 C1214 0.960 . S
H1201 C1214 0.960 . S
C1202 H1194 0.929 . S
C1202 C1203 1.377 . S
C1202 C1204 1.384 . S
C1203 C1202 1.377 . S
C1203 C1209 1.390 . S
C1204 H1195 0.930 . S
C1204 C1202 1.384 . S
C1204 C1205 1.372 . S
C1205 C1204 1.372 . S
C1205 C1206 1.400 . S
C1205 C1210 1.490 . S
C1206 H1196 0.930 . S
C1206 C1205 1.400 . S
C1206 C1209 1.386 . S
H1207 C1223 0.930 . S
H1208 C1224 0.931 . S
C1209 H1197 0.929 . S
C1209 C1203 1.390 . S
C1209 C1206 1.386 . S
C1210 C1205 1.490 . S
C1210 C1212 1.395 . S
C1210 C1213 1.403 . S
H1211 C1217 0.930 . S
C1212 H1198 0.930 . S
C1212 C1210 1.395 . S
C1212 C1215 1.403 . S
C1213 C1210 1.403 . S
C1213 C1214 1.524 . S
C1213 C1217 1.400 . S
C1214 H1199 0.960 . S
C1214 H1200 0.960 . S
C1214 H1201 0.960 . S
C1214 C1213 1.524 . S
C1215 C1212 1.403 . S
C1215 C1216 1.392 . S
C1215 C1219 1.495 . S
C1216 C1215 1.392 . S
C1216 C1217 1.385 . S
C1216 C1218 1.478 . S
C1217 H1211 0.930 . S
C1217 C1213 1.400 . S
C1217 C1216 1.385 . S
C1218 C1216 1.478 . S
C1218 C1220 1.381 . S
C1218 C1224 1.383 . S
C1219 C1215 1.495 . S
C1219 H1225 0.959 . S
C1219 H1226 0.961 . S
C1219 H1227 0.960 . S
C1220 C1218 1.381 . S
C1220 C1221 1.394 . S
C1220 H1228 0.930 . S
C1221 C1220 1.394 . S
C1221 C1222 1.383 . S
C1221 H1229 0.929 . S
C1222 C1221 1.383 . S
C1222 C1223 1.377 . S
C1223 H1207 0.930 . S
C1223 C1222 1.377 . S
C1223 C1224 1.379 . S
C1224 H1208 0.931 . S
C1224 C1218 1.383 . S
C1224 C1223 1.379 . S
H1225 C1219 0.959 . S
H1226 C1219 0.961 . S
H1227 C1219 0.960 . S
H1228 C1220 0.930 . S
H1229 C1221 0.929 . S
H1230 C1238 0.929 . S
H1231 C1240 0.930 . S
H1232 C1242 0.930 . S
H1233 C1245 0.929 . S
H1234 C1248 0.930 . S
H1235 C1250 0.960 . S
H1236 C1250 0.960 . S
H1237 C1250 0.960 . S
C1238 H1230 0.929 . S
C1238 C1239 1.377 . S
C1238 C1240 1.384 . S
C1239 C1238 1.377 . S
C1239 C1245 1.390 . S
C1240 H1231 0.930 . S
C1240 C1238 1.384 . S
C1240 C1241 1.372 . S
C1241 C1240 1.372 . S
C1241 C1242 1.400 . S
C1241 C1246 1.490 . S
C1242 H1232 0.930 . S
C1242 C1241 1.400 . S
C1242 C1245 1.386 . S
H1243 C1259 0.930 . S
H1244 C1260 0.931 . S
C1245 H1233 0.929 . S
C1245 C1239 1.390 . S
C1245 C1242 1.386 . S
C1246 C1241 1.490 . S
C1246 C1248 1.395 . S
C1246 C1249 1.403 . S
H1247 C1253 0.930 . S
C1248 H1234 0.930 . S
C1248 C1246 1.395 . S
C1248 C1251 1.403 . S
C1249 C1246 1.403 . S
C1249 C1250 1.524 . S
C1249 C1253 1.400 . S
C1250 H1235 0.960 . S
C1250 H1236 0.960 . S
C1250 H1237 0.960 . S
C1250 C1249 1.524 . S
C1251 C1248 1.403 . S
C1251 C1252 1.392 . S
C1251 C1255 1.495 . S
C1252 C1251 1.392 . S
C1252 C1253 1.385 . S
C1252 C1254 1.478 . S
C1253 H1247 0.930 . S
C1253 C1249 1.400 . S
C1253 C1252 1.385 . S
C1254 C1252 1.478 . S
C1254 C1256 1.381 . S
C1254 C1260 1.383 . S
C1255 C1251 1.495 . S
C1255 H1261 0.959 . S
C1255 H1262 0.961 . S
C1255 H1263 0.960 . S
C1256 C1254 1.381 . S
C1256 C1257 1.394 . S
C1256 H1264 0.930 . S
C1257 C1256 1.394 . S
C1257 C1258 1.383 . S
C1257 H1265 0.929 . S
C1258 C1257 1.383 . S
C1258 C1259 1.377 . S
C1259 H1243 0.930 . S
C1259 C1258 1.377 . S
C1259 C1260 1.379 . S
C1260 H1244 0.931 . S
C1260 C1254 1.383 . S
C1260 C1259 1.379 . S
H1261 C1255 0.959 . S
H1262 C1255 0.961 . S
H1263 C1255 0.960 . S
H1264 C1256 0.930 . S
H1265 C1257 0.929 . S
H1266 C1274 0.929 . S
H1267 C1276 0.930 . S
H1268 C1278 0.930 . S
H1269 C1281 0.929 . S
H1270 C1284 0.930 . S
H1271 C1286 0.960 . S
H1272 C1286 0.960 . S
H1273 C1286 0.960 . S
C1274 H1266 0.929 . S
C1274 C1275 1.377 . S
C1274 C1276 1.384 . S
C1275 C1274 1.377 . S
C1275 C1281 1.390 . S
C1276 H1267 0.930 . S
C1276 C1274 1.384 . S
C1276 C1277 1.372 . S
C1277 C1276 1.372 . S
C1277 C1278 1.400 . S
C1277 C1282 1.490 . S
C1278 H1268 0.930 . S
C1278 C1277 1.400 . S
C1278 C1281 1.386 . S
H1279 C1295 0.930 . S
H1280 C1296 0.931 . S
C1281 H1269 0.929 . S
C1281 C1275 1.390 . S
C1281 C1278 1.386 . S
C1282 C1277 1.490 . S
C1282 C1284 1.395 . S
C1282 C1285 1.403 . S
H1283 C1289 0.930 . S
C1284 H1270 0.930 . S
C1284 C1282 1.395 . S
C1284 C1287 1.403 . S
C1285 C1282 1.403 . S
C1285 C1286 1.524 . S
C1285 C1289 1.400 . S
C1286 H1271 0.960 . S
C1286 H1272 0.960 . S
C1286 H1273 0.960 . S
C1286 C1285 1.524 . S
C1287 C1284 1.403 . S
C1287 C1288 1.392 . S
C1287 C1291 1.495 . S
C1288 C1287 1.392 . S
C1288 C1289 1.385 . S
C1288 C1290 1.478 . S
C1289 H1283 0.930 . S
C1289 C1285 1.400 . S
C1289 C1288 1.385 . S
C1290 C1288 1.478 . S
C1290 C1292 1.381 . S
C1290 C1296 1.383 . S
C1291 C1287 1.495 . S
C1291 H1297 0.959 . S
C1291 H1298 0.961 . S
C1291 H1299 0.960 . S
C1292 C1290 1.381 . S
C1292 C1293 1.394 . S
C1292 H1300 0.930 . S
C1293 C1292 1.394 . S
C1293 C1294 1.383 . S
C1293 H1301 0.929 . S
C1294 C1293 1.383 . S
C1294 C1295 1.377 . S
C1295 H1279 0.930 . S
C1295 C1294 1.377 . S
C1295 C1296 1.379 . S
C1296 H1280 0.931 . S
C1296 C1290 1.383 . S
C1296 C1295 1.379 . S
H1297 C1291 0.959 . S
H1298 C1291 0.961 . S
H1299 C1291 0.960 . S
H1300 C1292 0.930 . S
H1301 C1293 0.929 . S
H1302 C1310 0.929 . S
H1303 C1312 0.930 . S
H1304 C1314 0.930 . S
H1305 C1317 0.929 . S
H1306 C1320 0.930 . S
H1307 C1322 0.960 . S
H1308 C1322 0.960 . S
H1309 C1322 0.960 . S
C1310 H1302 0.929 . S
C1310 C1311 1.377 . S
C1310 C1312 1.384 . S
C1311 C1310 1.377 . S
C1311 C1317 1.390 . S
C1312 H1303 0.930 . S
C1312 C1310 1.384 . S
C1312 C1313 1.372 . S
C1313 C1312 1.372 . S
C1313 C1314 1.400 . S
C1313 C1318 1.490 . S
C1314 H1304 0.930 . S
C1314 C1313 1.400 . S
C1314 C1317 1.386 . S
H1315 C1331 0.930 . S
H1316 C1332 0.924 . S
C1317 H1305 0.929 . S
C1317 C1311 1.390 . S
C1317 C1314 1.386 . S
C1318 C1313 1.490 . S
C1318 C1320 1.395 . S
C1318 C1321 1.403 . S
H1319 C1325 0.930 . S
C1320 H1306 0.930 . S
C1320 C1318 1.395 . S
C1320 C1323 1.403 . S
C1321 C1318 1.403 . S
C1321 C1322 1.524 . S
C1321 C1325 1.400 . S
C1322 H1307 0.960 . S
C1322 H1308 0.960 . S
C1322 H1309 0.960 . S
C1322 C1321 1.524 . S
C1323 C1320 1.403 . S
C1323 C1324 1.392 . S
C1323 C1327 1.495 1_556 S
C1324 C1323 1.392 . S
C1324 C1325 1.385 . S
C1324 C1326 1.478 1_556 S
C1325 H1319 0.930 . S
C1325 C1321 1.400 . S
C1325 C1324 1.385 . S
C1326 C1324 1.478 1_554 S
C1326 C1328 1.381 . S
C1326 C1332 1.383 . S
C1327 C1323 1.495 1_554 S
C1327 H1333 0.959 1_554 S
C1327 H1334 0.961 . S
C1327 H1335 0.960 . S
C1328 C1326 1.381 . S
C1328 C1329 1.394 . S
C1328 H1336 0.930 . S
C1329 C1328 1.394 . S
C1329 C1330 1.383 . S
C1329 H1337 0.929 . S
C1330 C1329 1.383 . S
C1330 C1331 1.377 . S
C1331 H1315 0.930 . S
C1331 C1330 1.377 . S
C1331 C1332 1.379 . S
C1332 H1316 0.924 . S
C1332 C1326 1.383 . S
C1332 C1331 1.379 . S
H1333 C1327 0.959 1_556 S
H1334 C1327 0.961 . S
H1335 C1327 0.960 . S
H1336 C1328 0.930 . S
H1337 C1329 0.929 . S
H1338 C1346 0.929 . S
H1339 C1348 0.930 . S
H1340 C1350 0.930 . S
H1341 C1353 0.929 . S
H1342 C1356 0.930 . S
H1343 C1358 0.960 . S
H1344 C1358 0.960 . S
H1345 C1358 0.960 . S
C1346 H1338 0.929 . S
C1346 C1347 1.377 . S
C1346 C1348 1.384 . S
C1347 C1346 1.377 . S
C1347 C1353 1.390 . S
C1348 H1339 0.930 . S
C1348 C1346 1.384 . S
C1348 C1349 1.372 . S
C1349 C1348 1.372 . S
C1349 C1350 1.400 . S
C1349 C1354 1.490 . S
C1350 H1340 0.930 . S
C1350 C1349 1.400 . S
C1350 C1353 1.386 . S
H1351 C1367 0.930 . S
H1352 C1368 0.931 . S
C1353 H1341 0.929 . S
C1353 C1347 1.390 . S
C1353 C1350 1.386 . S
C1354 C1349 1.490 . S
C1354 C1356 1.395 . S
C1354 C1357 1.403 . S
H1355 C1361 0.930 . S
C1356 H1342 0.930 . S
C1356 C1354 1.395 . S
C1356 C1359 1.403 . S
C1357 C1354 1.403 . S
C1357 C1358 1.524 . S
C1357 C1361 1.400 . S
C1358 H1343 0.960 . S
C1358 H1344 0.960 . S
C1358 H1345 0.960 . S
C1358 C1357 1.524 . S
C1359 C1356 1.403 . S
C1359 C1360 1.392 . S
C1359 C1363 1.495 . S
C1360 C1359 1.392 . S
C1360 C1361 1.385 . S
C1360 C1362 1.478 . S
C1361 H1355 0.930 . S
C1361 C1357 1.400 . S
C1361 C1360 1.385 . S
C1362 C1360 1.478 . S
C1362 C1364 1.381 . S
C1362 C1368 1.383 . S
C1363 C1359 1.495 . S
C1363 H1369 0.959 . S
C1363 H1370 0.961 . S
C1363 H1371 0.960 . S
C1364 C1362 1.381 . S
C1364 C1365 1.394 . S
C1364 H1372 0.930 . S
C1365 C1364 1.394 . S
C1365 C1366 1.383 . S
C1365 H1373 0.929 . S
C1366 C1365 1.383 . S
C1366 C1367 1.377 . S
C1367 H1351 0.930 . S
C1367 C1366 1.377 . S
C1367 C1368 1.379 . S
C1368 H1352 0.931 . S
C1368 C1362 1.383 . S
C1368 C1367 1.379 . S
H1369 C1363 0.959 . S
H1370 C1363 0.961 . S
H1371 C1363 0.960 . S
H1372 C1364 0.930 . S
H1373 C1365 0.929 . S
H1374 C1382 0.929 . S
H1375 C1384 0.930 . S
H1376 C1386 0.930 . S
H1377 C1389 0.929 . S
H1378 C1392 0.930 . S
H1379 C1394 0.960 . S
H1380 C1394 0.960 . S
H1381 C1394 0.960 . S
C1382 H1374 0.929 . S
C1382 C1383 1.377 . S
C1382 C1384 1.384 . S
C1383 C1382 1.377 . S
C1383 C1389 1.390 . S
C1384 H1375 0.930 . S
C1384 C1382 1.384 . S
C1384 C1385 1.372 . S
C1385 C1384 1.372 . S
C1385 C1386 1.400 . S
C1385 C1390 1.490 . S
C1386 H1376 0.930 . S
C1386 C1385 1.400 . S
C1386 C1389 1.386 . S
H1387 C1403 0.930 . S
H1388 C1404 0.931 . S
C1389 H1377 0.929 . S
C1389 C1383 1.390 . S
C1389 C1386 1.386 . S
C1390 C1385 1.490 . S
C1390 C1392 1.395 . S
C1390 C1393 1.403 . S
H1391 C1397 0.930 . S
C1392 H1378 0.930 . S
C1392 C1390 1.395 . S
C1392 C1395 1.403 . S
C1393 C1390 1.403 . S
C1393 C1394 1.524 . S
C1393 C1397 1.400 . S
C1394 H1379 0.960 . S
C1394 H1380 0.960 . S
C1394 H1381 0.960 . S
C1394 C1393 1.524 . S
C1395 C1392 1.403 . S
C1395 C1396 1.392 . S
C1395 C1399 1.495 . S
C1396 C1395 1.392 . S
C1396 C1397 1.385 . S
C1396 C1398 1.478 . S
C1397 H1391 0.930 . S
C1397 C1393 1.400 . S
C1397 C1396 1.385 . S
C1398 C1396 1.478 . S
C1398 C1400 1.381 . S
C1398 C1404 1.383 . S
C1399 C1395 1.495 . S
C1399 H1405 0.959 . S
C1399 H1406 0.961 . S
C1399 H1407 0.960 . S
C1400 C1398 1.381 . S
C1400 C1401 1.394 . S
C1400 H1408 0.930 . S
C1401 C1400 1.394 . S
C1401 C1402 1.383 . S
C1401 H1409 0.929 . S
C1402 C1401 1.383 . S
C1402 C1403 1.377 . S
C1403 H1387 0.930 . S
C1403 C1402 1.377 . S
C1403 C1404 1.379 . S
C1404 H1388 0.931 . S
C1404 C1398 1.383 . S
C1404 C1403 1.379 . S
H1405 C1399 0.959 . S
H1406 C1399 0.961 . S
H1407 C1399 0.960 . S
H1408 C1400 0.930 . S
H1409 C1401 0.929 . S
H1410 C1418 0.929 . S
H1411 C1420 0.930 . S
H1412 C1422 0.930 . S
H1413 C1425 0.929 . S
H1414 C1428 0.930 . S
H1415 C1430 0.960 . S
H1416 C1430 0.960 . S
H1417 C1430 0.960 . S
C1418 H1410 0.929 . S
C1418 C1419 1.377 . S
C1418 C1420 1.384 . S
C1419 C1418 1.377 . S
C1419 C1425 1.390 . S
C1420 H1411 0.930 . S
C1420 C1418 1.384 . S
C1420 C1421 1.372 . S
C1421 C1420 1.372 . S
C1421 C1422 1.400 . S
C1421 C1426 1.490 . S
C1422 H1412 0.930 . S
C1422 C1421 1.400 . S
C1422 C1425 1.386 . S
H1423 C1439 0.930 . S
H1424 C1440 0.931 . S
C1425 H1413 0.929 . S
C1425 C1419 1.390 . S
C1425 C1422 1.386 . S
C1426 C1421 1.490 . S
C1426 C1428 1.395 . S
C1426 C1429 1.403 . S
H1427 C1433 0.930 . S
C1428 H1414 0.930 . S
C1428 C1426 1.395 . S
C1428 C1431 1.403 . S
C1429 C1426 1.403 . S
C1429 C1430 1.524 . S
C1429 C1433 1.400 . S
C1430 H1415 0.960 . S
C1430 H1416 0.960 . S
C1430 H1417 0.960 . S
C1430 C1429 1.524 . S
C1431 C1428 1.403 . S
C1431 C1432 1.392 . S
C1431 C1435 1.495 . S
C1432 C1431 1.392 . S
C1432 C1433 1.385 . S
C1432 C1434 1.478 . S
C1433 H1427 0.930 . S
C1433 C1429 1.400 . S
C1433 C1432 1.385 . S
C1434 C1432 1.478 . S
C1434 C1436 1.381 . S
C1434 C1440 1.383 . S
C1435 C1431 1.495 . S
C1435 H1441 0.959 . S
C1435 H1442 0.961 . S
C1435 H1443 0.960 . S
C1436 C1434 1.381 . S
C1436 C1437 1.394 . S
C1436 H1444 0.930 . S
C1437 C1436 1.394 . S
C1437 C1438 1.383 . S
C1437 H1445 0.929 . S
C1438 C1437 1.383 . S
C1438 C1439 1.377 . S
C1439 H1423 0.930 . S
C1439 C1438 1.377 . S
C1439 C1440 1.379 . S
C1440 H1424 0.931 . S
C1440 C1434 1.383 . S
C1440 C1439 1.379 . S
H1441 C1435 0.959 . S
H1442 C1435 0.961 . S
H1443 C1435 0.960 . S
H1444 C1436 0.930 . S
H1445 C1437 0.929 . S
H1446 C1454 0.929 . S
H1447 C1456 0.930 . S
H1448 C1458 0.930 . S
H1449 C1461 0.929 . S
H1450 C1464 0.930 . S
H1451 C1466 0.960 . S
H1452 C1466 0.960 . S
H1453 C1466 0.960 . S
C1454 H1446 0.929 . S
C1454 C1455 1.377 . S
C1454 C1456 1.384 . S
C1455 C1454 1.377 . S
C1455 C1461 1.390 . S
C1456 H1447 0.930 . S
C1456 C1454 1.384 . S
C1456 C1457 1.372 . S
C1457 C1456 1.372 . S
C1457 C1458 1.400 . S
C1457 C1462 1.490 . S
C1458 H1448 0.930 . S
C1458 C1457 1.400 . S
C1458 C1461 1.386 . S
H1459 C1475 0.930 . S
H1460 C1476 0.931 . S
C1461 H1449 0.929 . S
C1461 C1455 1.390 . S
C1461 C1458 1.386 . S
C1462 C1457 1.490 . S
C1462 C1464 1.395 . S
C1462 C1465 1.403 . S
H1463 C1469 0.930 . S
C1464 H1450 0.930 . S
C1464 C1462 1.395 . S
C1464 C1467 1.403 . S
C1465 C1462 1.403 . S
C1465 C1466 1.524 . S
C1465 C1469 1.400 . S
C1466 H1451 0.960 . S
C1466 H1452 0.960 . S
C1466 H1453 0.960 . S
C1466 C1465 1.524 . S
C1467 C1464 1.403 . S
C1467 C1468 1.392 . S
C1467 C1471 1.495 . S
C1468 C1467 1.392 . S
C1468 C1469 1.385 . S
C1468 C1470 1.478 . S
C1469 H1463 0.930 . S
C1469 C1465 1.400 . S
C1469 C1468 1.385 . S
C1470 C1468 1.478 . S
C1470 C1472 1.381 . S
C1470 C1476 1.383 . S
C1471 C1467 1.495 . S
C1471 H1477 0.959 . S
C1471 H1478 0.961 . S
C1471 H1479 0.960 . S
C1472 C1470 1.381 . S
C1472 C1473 1.394 . S
C1472 H1480 0.930 . S
C1473 C1472 1.394 . S
C1473 C1474 1.383 . S
C1473 H1481 0.929 . S
C1474 C1473 1.383 . S
C1474 C1475 1.377 . S
C1475 H1459 0.930 . S
C1475 C1474 1.377 . S
C1475 C1476 1.379 . S
C1476 H1460 0.931 . S
C1476 C1470 1.383 . S
C1476 C1475 1.379 . S
H1477 C1471 0.959 . S
H1478 C1471 0.961 . S
H1479 C1471 0.960 . S
H1480 C1472 0.930 . S
H1481 C1473 0.929 . S
H1482 C1490 0.929 . S
H1483 C1492 0.930 . S
H1484 C1494 0.930 . S
H1485 C1497 0.929 . S
H1486 C1500 0.930 . S
H1487 C1502 0.960 . S
H1488 C1502 0.960 . S
H1489 C1502 0.960 . S
C1490 H1482 0.929 . S
C1490 C1491 1.377 . S
C1490 C1492 1.384 . S
C1491 C1490 1.377 . S
C1491 C1497 1.390 . S
C1492 H1483 0.930 . S
C1492 C1490 1.384 . S
C1492 C1493 1.372 . S
C1493 C1492 1.372 . S
C1493 C1494 1.400 . S
C1493 C1498 1.490 . S
C1494 H1484 0.930 . S
C1494 C1493 1.400 . S
C1494 C1497 1.386 . S
H1495 C1511 0.930 . S
H1496 C1512 0.931 . S
C1497 H1485 0.929 . S
C1497 C1491 1.390 . S
C1497 C1494 1.386 . S
C1498 C1493 1.490 . S
C1498 C1500 1.395 . S
C1498 C1501 1.403 . S
H1499 C1505 0.930 . S
C1500 H1486 0.930 . S
C1500 C1498 1.395 . S
C1500 C1503 1.403 . S
C1501 C1498 1.403 . S
C1501 C1502 1.524 . S
C1501 C1505 1.400 . S
C1502 H1487 0.960 . S
C1502 H1488 0.960 . S
C1502 H1489 0.960 . S
C1502 C1501 1.524 . S
C1503 C1500 1.403 . S
C1503 C1504 1.392 . S
C1503 C1507 1.495 . S
C1504 C1503 1.392 . S
C1504 C1505 1.385 . S
C1504 C1506 1.478 . S
C1505 H1499 0.930 . S
C1505 C1501 1.400 . S
C1505 C1504 1.385 . S
C1506 C1504 1.478 . S
C1506 C1508 1.381 . S
C1506 C1512 1.383 . S
C1507 C1503 1.495 . S
C1507 H1513 0.959 . S
C1507 H1514 0.961 . S
C1507 H1515 0.960 . S
C1508 C1506 1.381 . S
C1508 C1509 1.394 . S
C1508 H1516 0.930 . S
C1509 C1508 1.394 . S
C1509 C1510 1.383 . S
C1509 H1517 0.929 . S
C1510 C1509 1.383 . S
C1510 C1511 1.377 . S
C1511 H1495 0.930 . S
C1511 C1510 1.377 . S
C1511 C1512 1.379 . S
C1512 H1496 0.931 . S
C1512 C1506 1.383 . S
C1512 C1511 1.379 . S
H1513 C1507 0.959 . S
H1514 C1507 0.961 . S
H1515 C1507 0.960 . S
H1516 C1508 0.930 . S
H1517 C1509 0.929 . S
H1518 C1526 0.929 . S
H1519 C1528 0.930 . S
H1520 C1530 0.930 . S
H1521 C1533 0.929 . S
H1522 C1536 0.930 . S
H1523 C1538 0.960 . S
H1524 C1538 0.960 . S
H1525 C1538 0.960 . S
C1526 H1518 0.929 . S
C1526 C1527 1.377 . S
C1526 C1528 1.384 . S
C1527 C1526 1.377 . S
C1527 C1533 1.390 . S
C1528 H1519 0.930 . S
C1528 C1526 1.384 . S
C1528 C1529 1.372 . S
C1529 C1528 1.372 . S
C1529 C1530 1.400 . S
C1529 C1534 1.490 . S
C1530 H1520 0.930 . S
C1530 C1529 1.400 . S
C1530 C1533 1.386 . S
H1531 C1547 0.930 . S
H1532 C1548 0.931 . S
C1533 H1521 0.929 . S
C1533 C1527 1.390 . S
C1533 C1530 1.386 . S
C1534 C1529 1.490 . S
C1534 C1536 1.395 . S
C1534 C1537 1.403 . S
H1535 C1541 0.930 . S
C1536 H1522 0.930 . S
C1536 C1534 1.395 . S
C1536 C1539 1.403 . S
C1537 C1534 1.403 . S
C1537 C1538 1.524 . S
C1537 C1541 1.400 . S
C1538 H1523 0.960 . S
C1538 H1524 0.960 . S
C1538 H1525 0.960 . S
C1538 C1537 1.524 . S
C1539 C1536 1.403 . S
C1539 C1540 1.392 . S
C1539 C1543 1.495 . S
C1540 C1539 1.392 . S
C1540 C1541 1.385 . S
C1540 C1542 1.478 . S
C1541 H1535 0.930 . S
C1541 C1537 1.400 . S
C1541 C1540 1.385 . S
C1542 C1540 1.478 . S
C1542 C1544 1.381 . S
C1542 C1548 1.383 . S
C1543 C1539 1.495 . S
C1543 H1549 0.959 . S
C1543 H1550 0.961 . S
C1543 H1551 0.960 . S
C1544 C1542 1.381 . S
C1544 C1545 1.394 . S
C1544 H1552 0.930 . S
C1545 C1544 1.394 . S
C1545 C1546 1.383 . S
C1545 H1553 0.929 . S
C1546 C1545 1.383 . S
C1546 C1547 1.377 . S
C1547 H1531 0.930 . S
C1547 C1546 1.377 . S
C1547 C1548 1.379 . S
C1548 H1532 0.931 . S
C1548 C1542 1.383 . S
C1548 C1547 1.379 . S
H1549 C1543 0.959 . S
H1550 C1543 0.961 . S
H1551 C1543 0.960 . S
H1552 C1544 0.930 . S
H1553 C1545 0.929 . S
H1554 C1562 0.929 . S
H1555 C1564 0.930 . S
H1556 C1566 0.930 . S
H1557 C1569 0.929 . S
H1558 C1572 0.930 . S
H1559 C1574 0.960 1_556 S
H1560 C1574 0.960 . S
H1561 C1574 0.960 . S
C1562 H1554 0.929 . S
C1562 C1563 1.377 . S
C1562 C1564 1.384 . S
C1563 C1562 1.377 . S
C1563 C1569 1.390 . S
C1564 H1555 0.930 . S
C1564 C1562 1.384 . S
C1564 C1565 1.372 . S
C1565 C1564 1.372 . S
C1565 C1566 1.400 . S
C1565 C1570 1.490 . S
C1566 H1556 0.930 . S
C1566 C1565 1.400 . S
C1566 C1569 1.386 . S
H1567 C1583 0.930 . S
H1568 C1584 0.931 . S
C1569 H1557 0.929 . S
C1569 C1563 1.390 . S
C1569 C1566 1.386 . S
C1570 C1565 1.490 . S
C1570 C1572 1.395 . S
C1570 C1573 1.403 . S
H1571 C1577 0.930 . S
C1572 H1558 0.930 . S
C1572 C1570 1.395 . S
C1572 C1575 1.403 . S
C1573 C1570 1.403 . S
C1573 C1574 1.524 . S
C1573 C1577 1.400 1_554 S
C1574 H1559 0.960 1_554 S
C1574 H1560 0.960 . S
C1574 H1561 0.960 . S
C1574 C1573 1.524 . S
C1575 C1572 1.403 . S
C1575 C1576 1.392 1_554 S
C1575 C1579 1.495 . S
C1576 C1575 1.392 1_556 S
C1576 C1577 1.385 . S
C1576 C1578 1.478 . S
C1577 H1571 0.930 . S
C1577 C1573 1.400 1_556 S
C1577 C1576 1.385 . S
C1578 C1576 1.478 . S
C1578 C1580 1.381 . S
C1578 C1584 1.383 . S
C1579 C1575 1.495 . S
C1579 H1585 0.959 . S
C1579 H1586 0.961 . S
C1579 H1587 0.960 . S
C1580 C1578 1.381 . S
C1580 C1581 1.394 . S
C1580 H1588 0.930 . S
C1581 C1580 1.394 . S
C1581 C1582 1.383 . S
C1581 H1589 0.929 . S
C1582 C1581 1.383 . S
C1582 C1583 1.377 . S
C1583 H1567 0.930 . S
C1583 C1582 1.377 . S
C1583 C1584 1.379 . S
C1584 H1568 0.931 . S
C1584 C1578 1.383 . S
C1584 C1583 1.379 . S
H1585 C1579 0.959 . S
H1586 C1579 0.961 . S
H1587 C1579 0.960 . S
H1588 C1580 0.930 . S
H1589 C1581 0.929 . S
H1590 C1598 0.929 . S
H1591 C1600 0.930 . S
H1592 C1602 0.930 . S
H1593 C1605 0.929 . S
H1594 C1608 0.930 . S
H1595 C1610 0.960 . S
H1596 C1610 0.960 . S
H1597 C1610 0.960 . S
C1598 H1590 0.929 . S
C1598 C1599 1.377 . S
C1598 C1600 1.384 . S
C1599 C1598 1.377 . S
C1599 C1605 1.390 . S
C1600 H1591 0.930 . S
C1600 C1598 1.384 . S
C1600 C1601 1.372 . S
C1601 C1600 1.372 . S
C1601 C1602 1.400 . S
C1601 C1606 1.490 . S
C1602 H1592 0.930 . S
C1602 C1601 1.400 . S
C1602 C1605 1.386 . S
H1603 C1619 0.930 . S
H1604 C1620 0.931 . S
C1605 H1593 0.929 . S
C1605 C1599 1.390 . S
C1605 C1602 1.386 . S
C1606 C1601 1.490 . S
C1606 C1608 1.395 . S
C1606 C1609 1.403 . S
H1607 C1613 0.930 . S
C1608 H1594 0.930 . S
C1608 C1606 1.395 . S
C1608 C1611 1.403 . S
C1609 C1606 1.403 . S
C1609 C1610 1.524 . S
C1609 C1613 1.400 . S
C1610 H1595 0.960 . S
C1610 H1596 0.960 . S
C1610 H1597 0.960 . S
C1610 C1609 1.524 . S
C1611 C1608 1.403 . S
C1611 C1612 1.392 . S
C1611 C1615 1.495 . S
C1612 C1611 1.392 . S
C1612 C1613 1.385 . S
C1612 C1614 1.478 . S
C1613 H1607 0.930 . S
C1613 C1609 1.400 . S
C1613 C1612 1.385 . S
C1614 C1612 1.478 . S
C1614 C1616 1.381 . S
C1614 C1620 1.383 . S
C1615 C1611 1.495 . S
C1615 H1621 0.959 . S
C1615 H1622 0.961 . S
C1615 H1623 0.960 . S
C1616 C1614 1.381 . S
C1616 C1617 1.394 . S
C1616 H1624 0.930 . S
C1617 C1616 1.394 . S
C1617 C1618 1.383 . S
C1617 H1625 0.929 . S
C1618 C1617 1.383 . S
C1618 C1619 1.377 . S
C1619 H1603 0.930 . S
C1619 C1618 1.377 . S
C1619 C1620 1.379 . S
C1620 H1604 0.931 . S
C1620 C1614 1.383 . S
C1620 C1619 1.379 . S
H1621 C1615 0.959 . S
H1622 C1615 0.961 . S
H1623 C1615 0.960 . S
H1624 C1616 0.930 . S
H1625 C1617 0.929 . S
C790 C754 1.578 . S
C771 C1 1.193 . S
C807 C169 1.356 . S
C826 C689 1.725 . S
C843 C283 1.322 . S
C862 C707 1.693 . S
C879 C397 1.175 . S
C898 C720 1.523 . S
C934 C728 1.402 . S
C915 C457 1.065 . S
C951 C571 1.099 . S
C970 C740 1.412 . S
C987 C115 1.210 . S
C1006 C702 1.564 . S
C1023 C229 1.090 . S
C1042 C715 1.424 . S
C1059 C343 1.056 . S
C1078 C733 1.389 . S
C1114 C739 1.542 . S
C1095 C511 1.206 . S
C1150 C759 1.676 . S
C1131 C625 1.321 . S
C1186 C694 1.728 . S
C1167 C55 1.374 . S
C1203 C29 1.282 . S
C1222 C700 1.513 . S
C1239 C125 0.958 . S
C1258 C713 1.661 . S
C1294 C727 1.563 . S
C1275 C239 0.909 . S
C1311 C353 0.919 . S
C1330 C741 1.581 . S
C1366 C753 1.438 . S
C1347 C485 1.196 . S
C1402 C688 1.509 . S
C1383 C599 1.284 . S
C1438 C752 1.536 . S
C1419 C143 1.294 . S
C1455 C257 1.284 . S
C1474 C687 1.510 . S
C1510 C701 1.446 . S
C1491 C371 1.221 . S
C1527 C467 0.916 . S
C1546 C714 1.554 . S
C1563 C581 0.893 . S
C1582 C726 1.578 . S
C1599 C11 0.963 . S
C1618 C746 1.639 . S
