# Generated by pormake.
# Topology apo, (3,6)-cn, num edge types: 1
# Building blocks:
#     Node 0, Type 0, BuildingBlock: QEWDON_clean_linker_0, # of connection points: 3
#     Node 1, Type 0, BuildingBlock: QEWDON_clean_linker_0, # of connection points: 3
#     Node 2, Type 0, BuildingBlock: QEWDON_clean_linker_0, # of connection points: 3
#     Node 3, Type 0, BuildingBlock: QEWDON_clean_linker_0, # of connection points: 3
#     Node 4, Type 0, BuildingBlock: QEWDON_clean_linker_0, # of connection points: 3
#     Node 5, Type 0, BuildingBlock: QEWDON_clean_linker_0, # of connection points: 3
#     Node 6, Type 0, BuildingBlock: QEWDON_clean_linker_0, # of connection points: 3
#     Node 7, Type 0, BuildingBlock: QEWDON_clean_linker_0, # of connection points: 3
#     Node 8, Type 1, BuildingBlock: MIDCAF_clean_sbu_0, # of connection points: 6
#     Node 9, Type 1, BuildingBlock: MIDCAF_clean_sbu_0, # of connection points: 6
#     Node 10, Type 1, BuildingBlock: MIDCAF_clean_sbu_0, # of connection points: 6
#     Node 11, Type 1, BuildingBlock: MIDCAF_clean_sbu_0, # of connection points: 6
#     Edge 12, Type (0, 1), BuildingBlock: UVAHIK_clean_linker_0, # of connection points: 2
#     Edge 13, Type (0, 1), BuildingBlock: UVAHIK_clean_linker_0, # of connection points: 2
#     Edge 14, Type (0, 1), BuildingBlock: UVAHIK_clean_linker_0, # of connection points: 2
#     Edge 15, Type (0, 1), BuildingBlock: UVAHIK_clean_linker_0, # of connection points: 2
#     Edge 16, Type (0, 1), BuildingBlock: UVAHIK_clean_linker_0, # of connection points: 2
#     Edge 17, Type (0, 1), BuildingBlock: UVAHIK_clean_linker_0, # of connection points: 2
#     Edge 18, Type (0, 1), BuildingBlock: UVAHIK_clean_linker_0, # of connection points: 2
#     Edge 19, Type (0, 1), BuildingBlock: UVAHIK_clean_linker_0, # of connection points: 2
#     Edge 20, Type (0, 1), BuildingBlock: UVAHIK_clean_linker_0, # of connection points: 2
#     Edge 21, Type (0, 1), BuildingBlock: UVAHIK_clean_linker_0, # of connection points: 2
#     Edge 22, Type (0, 1), BuildingBlock: UVAHIK_clean_linker_0, # of connection points: 2
#     Edge 23, Type (0, 1), BuildingBlock: UVAHIK_clean_linker_0, # of connection points: 2
#     Edge 24, Type (0, 1), BuildingBlock: UVAHIK_clean_linker_0, # of connection points: 2
#     Edge 25, Type (0, 1), BuildingBlock: UVAHIK_clean_linker_0, # of connection points: 2
#     Edge 26, Type (0, 1), BuildingBlock: UVAHIK_clean_linker_0, # of connection points: 2
#     Edge 27, Type (0, 1), BuildingBlock: UVAHIK_clean_linker_0, # of connection points: 2
#     Edge 28, Type (0, 1), BuildingBlock: UVAHIK_clean_linker_0, # of connection points: 2
#     Edge 29, Type (0, 1), BuildingBlock: UVAHIK_clean_linker_0, # of connection points: 2
#     Edge 30, Type (0, 1), BuildingBlock: UVAHIK_clean_linker_0, # of connection points: 2
#     Edge 31, Type (0, 1), BuildingBlock: UVAHIK_clean_linker_0, # of connection points: 2
#     Edge 32, Type (0, 1), BuildingBlock: UVAHIK_clean_linker_0, # of connection points: 2
#     Edge 33, Type (0, 1), BuildingBlock: UVAHIK_clean_linker_0, # of connection points: 2
#     Edge 34, Type (0, 1), BuildingBlock: UVAHIK_clean_linker_0, # of connection points: 2
#     Edge 35, Type (0, 1), BuildingBlock: UVAHIK_clean_linker_0, # of connection points: 2
# Relax obj value: 0.009
# Max RMSD: 0.114
# Mean RMSD: 0.096
data_MOF--net-apo--node1-MIDCAF_clean_sbu_0--node2-QEWDON_clean_linker_0--edge1-UVAHIK_clean_linker_0
_symmetry_space_group_name_H-M    P1
_symmetry_Int_Tables_number       1
_symmetry_cell_setting            triclinic
loop_
_symmetry_equiv_pos_as_xyz
'x, y, z'
_cell_length_a     49.905624
_cell_length_b     54.750119
_cell_length_c     45.454798
_cell_angle_alpha  89.934734
_cell_angle_beta   90.067722
_cell_angle_gamma 90.061044
loop_
_atom_site_label
_atom_site_type_symbol
_atom_site_fract_x
_atom_site_fract_y
_atom_site_fract_z
_atom_type_partial_charge
H0 H 0.31997 0.36721 0.34634 0.0
C1 C 0.32565 0.35951 0.36744 0.0
C2 C 0.35142 0.36391 0.37879 0.0
C3 C 0.30648 0.34673 0.3841 0.0
H4 H 0.37778 0.35812 0.4158 0.0
C5 C 0.35804 0.35464 0.40672 0.0
C6 C 0.33902 0.34212 0.42379 0.0
C7 C 0.31316 0.33827 0.41239 0.0
C8 C 0.27839 0.34588 0.37383 0.0
H9 H 0.29807 0.32938 0.42581 0.0
C10 C 0.26746 0.32487 0.36052 0.0
C11 C 0.2407 0.32492 0.35019 0.0
C12 C 0.26253 0.36682 0.37703 0.0
H13 H 0.27066 0.38312 0.38718 0.0
C14 C 0.23606 0.36688 0.3673 0.0
H15 H 0.2799 0.30883 0.35772 0.0
C16 C 0.22518 0.34616 0.35405 0.0
H17 H 0.20441 0.34671 0.34716 0.0
H18 H 0.22387 0.38306 0.37009 0.0
H19 H 0.18905 0.14375 0.85669 0.0
C20 C 0.18275 0.14728 0.87909 0.0
C21 C 0.15806 0.13806 0.88937 0.0
C22 C 0.2002 0.15982 0.89814 0.0
H23 H 0.1326 0.1345 0.92772 0.0
C24 C 0.15097 0.14217 0.91896 0.0
C25 C 0.16789 0.15523 0.93795 0.0
C26 C 0.19243 0.16409 0.92741 0.0
C27 C 0.22834 0.1642 0.88934 0.0
H28 H 0.20613 0.17315 0.94239 0.0
C29 C 0.23538 0.18137 0.86748 0.0
C30 C 0.26246 0.18413 0.85917 0.0
C31 C 0.24845 0.15015 0.90277 0.0
H32 H 0.24341 0.13682 0.91953 0.0
C33 C 0.27514 0.15278 0.89439 0.0
H34 H 0.22004 0.19241 0.8571 0.0
C35 C 0.28212 0.16958 0.87267 0.0
H36 H 0.30303 0.17151 0.86667 0.0
H37 H 0.29047 0.14177 0.90478 0.0
H38 H 0.80987 0.13417 0.65519 0.0
C39 C 0.81713 0.14158 0.63455 0.0
C40 C 0.84349 0.13666 0.62539 0.0
C41 C 0.79958 0.15499 0.61658 0.0
H42 H 0.87224 0.14161 0.59045 0.0
C43 C 0.8523 0.14601 0.59824 0.0
C44 C 0.83478 0.15904 0.57974 0.0
C45 C 0.80837 0.16344 0.58905 0.0
C46 C 0.77098 0.15653 0.62458 0.0
H47 H 0.79447 0.17279 0.57456 0.0
C48 C 0.76066 0.17652 0.64045 0.0
C49 C 0.73351 0.17673 0.64918 0.0
C50 C 0.75405 0.13704 0.61711 0.0
H51 H 0.76174 0.12153 0.60498 0.0
C52 C 0.72719 0.13731 0.62539 0.0
H53 H 0.77378 0.19149 0.64646 0.0
C54 C 0.71697 0.15692 0.64137 0.0
H55 H 0.69596 0.15673 0.64734 0.0
H56 H 0.71423 0.12221 0.61949 0.0
H57 H 0.6974 0.36011 0.14861 0.0
C58 C 0.69091 0.35747 0.12609 0.0
C59 C 0.6662 0.36716 0.1164 0.0
C60 C 0.70825 0.34567 0.10632 0.0
H61 H 0.64058 0.37198 0.07829 0.0
C62 C 0.65892 0.36399 0.08665 0.0
C63 C 0.6756 0.35145 0.06696 0.0
C64 C 0.70021 0.34228 0.07695 0.0
C65 C 0.73656 0.34125 0.11462 0.0
H66 H 0.71378 0.3337 0.06149 0.0
C67 C 0.74395 0.32441 0.13673 0.0
C68 C 0.77118 0.32165 0.1446 0.0
C69 C 0.75651 0.35504 0.1005 0.0
H70 H 0.75125 0.36816 0.08358 0.0
C71 C 0.78333 0.35244 0.10838 0.0
H72 H 0.7287 0.31361 0.14767 0.0
C73 C 0.79064 0.33594 0.1303 0.0
H74 H 0.81168 0.334 0.13573 0.0
H75 H 0.79852 0.36324 0.09742 0.0
H76 H 0.65279 0.67715 0.67457 0.0
C77 C 0.65402 0.67452 0.65097 0.0
C78 C 0.64573 0.65231 0.63855 0.0
C79 C 0.66277 0.69376 0.63295 0.0
H80 H 0.64013 0.63222 0.59847 0.0
C81 C 0.64661 0.64942 0.60787 0.0
C82 C 0.65394 0.66892 0.58927 0.0
C83 C 0.66243 0.69102 0.6022 0.0
C84 C 0.66763 0.71802 0.64606 0.0
H85 H 0.66732 0.70659 0.58849 0.0
C86 C 0.69323 0.72512 0.65608 0.0
C87 C 0.69712 0.74847 0.66862 0.0
C88 C 0.64598 0.73413 0.64887 0.0
H89 H 0.62618 0.72887 0.64136 0.0
C90 C 0.64963 0.75704 0.66154 0.0
H91 H 0.70998 0.71271 0.65369 0.0
C92 C 0.67492 0.76418 0.67137 0.0
H93 H 0.67703 0.782 0.68143 0.0
H94 H 0.63277 0.76931 0.6638 0.0
H95 H 0.85218 0.82963 0.15703 0.0
C96 C 0.85045 0.83141 0.13335 0.0
C97 C 0.8604 0.85237 0.11925 0.0
C98 C 0.8398 0.81193 0.11695 0.0
H99 H 0.86541 0.87037 0.07761 0.0
C100 C 0.85877 0.85382 0.08843 0.0
C101 C 0.84973 0.83396 0.07137 0.0
C102 C 0.83969 0.81314 0.08603 0.0
C103 C 0.83316 0.78883 0.13222 0.0
H104 H 0.83332 0.7973 0.07359 0.0
C105 C 0.80642 0.78167 0.13743 0.0
C106 C 0.80093 0.76055 0.15429 0.0
C107 C 0.85421 0.77447 0.14316 0.0
H108 H 0.87486 0.77975 0.1394 0.0
C109 C 0.84884 0.75334 0.15921 0.0
H110 H 0.7901 0.79288 0.12937 0.0
C111 C 0.82244 0.74648 0.16491 0.0
H112 H 0.8188 0.73004 0.17759 0.0
H113 H 0.86521 0.74236 0.16753 0.0
H114 H 0.14968 0.82742 0.34126 0.0
C115 C 0.15212 0.82717 0.36497 0.0
C116 C 0.14395 0.84737 0.38172 0.0
C117 C 0.16301 0.8064 0.37864 0.0
H118 H 0.13956 0.86164 0.42563 0.0
C119 C 0.14684 0.84654 0.41247 0.0
C120 C 0.15696 0.82562 0.42659 0.0
C121 C 0.16524 0.80561 0.40946 0.0
C122 C 0.16882 0.7845 0.36079 0.0
H123 H 0.17258 0.78919 0.42009 0.0
C124 C 0.1953 0.77759 0.35404 0.0
C125 C 0.20021 0.75732 0.33558 0.0
C126 C 0.14734 0.77091 0.34949 0.0
H127 H 0.12687 0.77603 0.35442 0.0
C128 C 0.15207 0.75061 0.33179 0.0
H129 H 0.21187 0.78836 0.36238 0.0
C130 C 0.17824 0.74385 0.32483 0.0
H131 H 0.18127 0.7279 0.31116 0.0
H132 H 0.13537 0.7401 0.32332 0.0
H133 H 0.34468 0.67687 0.84257 0.0
C134 C 0.34756 0.67432 0.86602 0.0
C135 C 0.35719 0.65189 0.87669 0.0
C136 C 0.34292 0.69385 0.88541 0.0
H137 H 0.36903 0.63159 0.915 0.0
C138 C 0.36161 0.64897 0.90699 0.0
C139 C 0.35812 0.66852 0.92669 0.0
C140 C 0.34844 0.69087 0.91562 0.0
C141 C 0.33545 0.71826 0.87382 0.0
H142 H 0.34614 0.70634 0.93024 0.0
C143 C 0.31202 0.72182 0.85691 0.0
C144 C 0.30548 0.74529 0.84609 0.0
C145 C 0.35224 0.73826 0.87969 0.0
H146 H 0.3704 0.73593 0.89248 0.0
C147 C 0.34601 0.76137 0.86883 0.0
H148 H 0.29892 0.70647 0.85239 0.0
C149 C 0.32285 0.76491 0.8522 0.0
H150 H 0.31824 0.78319 0.84461 0.0
H151 H 0.35911 0.77666 0.87347 0.0
Zn152 Zn 0.01983 0.11427 0.31195 0.0
Zn153 Zn 0.98091 0.11581 0.20561 0.0
Zn154 Zn 1.00019 0.11624 0.25958 0.0
C155 C 0.03027 0.1392 0.20235 0.0
C156 C 0.98422 0.06728 0.22216 0.0
O157 O 0.97191 0.13637 0.28906 0.0
O158 O 0.99408 0.1363 0.33122 0.0
C159 C 0.05902 0.13679 0.27834 0.0
O160 O 0.03037 0.13349 0.22989 0.0
O161 O 0.01019 0.13442 0.18648 0.0
O162 O 0.97936 0.07996 0.19957 0.0
O163 O 0.99185 0.07771 0.24621 0.0
O164 O 0.05582 0.12757 0.30354 0.0
O165 O 0.04021 0.13499 0.25891 0.0
O166 O 0.00527 0.07719 0.27342 0.0
O167 O 0.01714 0.07894 0.32022 0.0
C168 C 0.01154 0.06643 0.29776 0.0
O169 O 0.96189 0.13752 0.2601 0.0
O170 O 0.94696 0.13296 0.21459 0.0
C171 C 0.97393 0.14268 0.31632 0.0
C172 C 0.9439 0.14141 0.2402 0.0
Zn173 Zn 0.51876 0.39104 0.69482 0.0
Zn174 Zn 0.4816 0.38497 0.80356 0.0
Zn175 Zn 0.49937 0.38626 0.74852 0.0
C176 C 0.47701 0.43322 0.78556 0.0
C177 C 0.44893 0.35385 0.76911 0.0
O178 O 0.53931 0.36788 0.74754 0.0
O179 O 0.55334 0.37419 0.70201 0.0
C180 C 0.51206 0.43807 0.7146 0.0
O181 O 0.48834 0.42388 0.76268 0.0
O182 O 0.47113 0.41987 0.80727 0.0
O183 O 0.45404 0.35966 0.79541 0.0
O184 O 0.46273 0.36298 0.74779 0.0
O185 O 0.519 0.4271 0.69143 0.0
O186 O 0.504 0.42578 0.73718 0.0
O187 O 0.47109 0.36663 0.71853 0.0
O188 O 0.49014 0.37221 0.67502 0.0
C189 C 0.47139 0.36347 0.69041 0.0
O190 O 0.53143 0.37031 0.77713 0.0
O191 O 0.51535 0.3744 0.82227 0.0
C192 C 0.55709 0.36505 0.7272 0.0
C193 C 0.53409 0.36822 0.80526 0.0
Zn194 Zn 0.02198 0.88124 0.80512 0.0
Zn195 Zn 0.98739 0.88019 0.69614 0.0
Zn196 Zn 0.00505 0.88097 0.74977 0.0
C197 C 0.99302 0.92936 0.71032 0.0
C198 C 0.94707 0.85912 0.72929 0.0
O199 O 0.0434 0.85978 0.7511 0.0
O200 O 0.05313 0.85954 0.79867 0.0
C201 C 0.02206 0.92979 0.78594 0.0
O202 O 0.99957 0.91969 0.73522 0.0
O203 O 0.98828 0.9158 0.68847 0.0
O204 O 0.95173 0.86586 0.70326 0.0
O205 O 0.96476 0.86262 0.74962 0.0
O206 O 0.02732 0.91725 0.80854 0.0
O207 O 0.01324 0.91944 0.76237 0.0
O208 O 0.9738 0.86358 0.77864 0.0
O209 O 0.99055 0.86596 0.82369 0.0
C210 C 0.97191 0.8596 0.80658 0.0
O211 O 0.03516 0.86173 0.72136 0.0
O212 O 0.01513 0.85957 0.67796 0.0
C213 C 0.05843 0.85291 0.77273 0.0
C214 C 0.03502 0.85495 0.69415 0.0
Zn215 Zn 0.53138 0.61802 0.17137 0.0
Zn216 Zn 0.4931 0.61002 0.31086 0.0
Zn217 Zn 0.5072 0.61911 0.25841 0.0
C218 C 0.54192 0.63407 0.31581 0.0
C219 C 0.49531 0.56536 0.28062 0.0
O220 O 0.47621 0.63904 0.23387 0.0
O221 O 0.50813 0.63058 0.20413 0.0
C222 C 0.55254 0.64228 0.23187 0.0
O223 O 0.53871 0.63538 0.2877 0.0
O224 O 0.52503 0.62296 0.33154 0.0
O225 O 0.48906 0.57406 0.30539 0.0
O226 O 0.50353 0.57947 0.25993 0.0
O227 O 0.5384 0.63117 0.21295 0.0
O228 O 0.54417 0.6407 0.25832 0.0
O229 O 0.51776 0.58486 0.23096 0.0
O230 O 0.52965 0.58202 0.18257 0.0
C231 C 0.52461 0.57231 0.20769 0.0
O232 O 0.46751 0.63772 0.26304 0.0
O233 O 0.46061 0.63117 0.3104 0.0
C234 C 0.4844 0.63807 0.20736 0.0
C235 C 0.45335 0.64088 0.28645 0.0
C236 C 0.10975 0.86514 0.34709 0.0
C237 C 0.1305 0.86863 0.36764 0.0
C238 C 0.09522 0.88508 0.33618 0.0
C239 C 0.07823 0.94872 0.35629 0.0
H240 H 0.05046 0.95274 0.27671 0.0
C241 C 0.0096 0.02751 0.32578 0.0
C242 C 0.01551 0.03974 0.29945 0.0
C243 C 0.01975 0.00418 0.33114 0.0
C244 C 0.05813 0.95193 0.29899 0.0
H245 H 0.15325 0.89583 0.39158 0.0
H246 H 0.12845 0.93062 0.37214 0.0
H247 H 0.07833 0.91797 0.29115 0.0
H248 H 0.0349 0.03654 0.25707 0.0
H249 H 0.05336 0.99591 0.26664 0.0
H250 H 0.05913 0.98288 0.36405 0.0
C251 C 0.12278 0.91246 0.36505 0.0
C252 C 0.07393 0.93188 0.30735 0.0
C253 C 0.13712 0.89254 0.3761 0.0
C254 C 0.02992 0.02741 0.2775 0.0
C255 C 0.04053 0.00413 0.28307 0.0
C256 C 0.06262 0.96868 0.34795 0.0
C257 C 0.10121 0.90898 0.34547 0.0
C258 C 0.08432 0.93011 0.33611 0.0
C259 C 0.03663 0.99275 0.31057 0.0
C260 C 0.05227 0.97062 0.31922 0.0
H261 H 0.104 0.84689 0.34037 0.0
H262 H 0.07864 0.88165 0.32137 0.0
H263 H 0.0854 0.94785 0.37876 0.0
H264 H 0.99833 0.03656 0.34296 0.0
H265 H 0.01548 0.99565 0.35212 0.0
C266 C 0.38633 0.63695 0.8358 0.0
C267 C 0.36598 0.63229 0.8564 0.0
C268 C 0.39859 0.61766 0.82074 0.0
C269 C 0.4336 0.57137 0.81715 0.0
H270 H 0.39593 0.51704 0.78117 0.0
C271 C 0.47146 0.47205 0.81335 0.0
C272 C 0.46975 0.45937 0.78659 0.0
C273 C 0.46123 0.49568 0.81588 0.0
C274 C 0.40674 0.53225 0.79076 0.0
H275 H 0.34149 0.60414 0.87629 0.0
H276 H 0.36231 0.57046 0.84926 0.0
H277 H 0.37099 0.55362 0.79595 0.0
H278 H 0.45664 0.46159 0.74123 0.0
H279 H 0.43777 0.50291 0.74596 0.0
H280 H 0.46903 0.54939 0.81366 0.0
C281 C 0.3689 0.58897 0.84489 0.0
C282 C 0.39247 0.55307 0.79936 0.0
C283 C 0.35701 0.60819 0.86037 0.0
C284 C 0.45838 0.47108 0.76205 0.0
C285 C 0.44748 0.49458 0.76478 0.0
C286 C 0.44775 0.55037 0.8091 0.0
C287 C 0.39036 0.59343 0.82561 0.0
C288 C 0.4057 0.57267 0.81307 0.0
C289 C 0.44847 0.50691 0.79188 0.0
C290 C 0.43438 0.53046 0.79628 0.0
H291 H 0.39383 0.65534 0.83263 0.0
H292 H 0.41506 0.6216 0.80596 0.0
H293 H 0.44427 0.58611 0.82791 0.0
H294 H 0.48014 0.46342 0.83259 0.0
H295 H 0.46209 0.50472 0.83706 0.0
C296 C 0.64052 0.60854 0.65397 0.0
C297 C 0.63293 0.63311 0.65687 0.0
C298 C 0.62592 0.59009 0.66804 0.0
C299 C 0.5968 0.5558 0.71105 0.0
H300 H 0.52103 0.55622 0.6918 0.0
C301 C 0.52776 0.47518 0.7417 0.0
C302 C 0.51658 0.46471 0.71628 0.0
C303 C 0.53853 0.49883 0.74075 0.0
C304 C 0.54206 0.55605 0.69772 0.0
H305 H 0.60451 0.65773 0.67721 0.0
H306 H 0.57869 0.6254 0.70146 0.0
H307 H 0.54897 0.59146 0.67902 0.0
H308 H 0.50575 0.47133 0.67083 0.0
H309 H 0.52367 0.51279 0.66944 0.0
H310 H 0.59006 0.52008 0.72892 0.0
C311 C 0.59609 0.62047 0.68854 0.0
C312 C 0.55803 0.57621 0.69052 0.0
C313 C 0.61098 0.63895 0.67488 0.0
C314 C 0.51425 0.47899 0.69073 0.0
C315 C 0.52447 0.50274 0.68996 0.0
C316 C 0.58075 0.53581 0.7187 0.0
C317 C 0.60315 0.59583 0.68486 0.0
C318 C 0.5857 0.576 0.69636 0.0
C319 C 0.53772 0.51252 0.71456 0.0
C320 C 0.55337 0.53545 0.71138 0.0
H321 H 0.65732 0.60356 0.64015 0.0
H322 H 0.6317 0.57125 0.6646 0.0
H323 H 0.61805 0.55521 0.71592 0.0
H324 H 0.53001 0.46449 0.76162 0.0
H325 H 0.54852 0.50602 0.76007 0.0
C326 C 0.89833 0.88225 0.12437 0.0
C327 C 0.87494 0.8717 0.13611 0.0
C328 C 0.91234 0.90025 0.13974 0.0
C329 C 0.90458 0.94643 0.1985 0.0
H330 H 0.9816 0.95155 0.18874 0.0
C331 C 0.96545 0.02864 0.24356 0.0
C332 C 0.97909 0.04072 0.22075 0.0
C333 C 0.95553 0.00491 0.23931 0.0
C334 C 0.96013 0.95025 0.19187 0.0
H335 H 0.84831 0.87173 0.17376 0.0
H336 H 0.87318 0.90292 0.20102 0.0
H337 H 0.95802 0.91575 0.17004 0.0
H338 H 0.99467 0.03704 0.17655 0.0
H339 H 0.97823 0.99551 0.16948 0.0
H340 H 0.90686 0.98122 0.22005 0.0
C341 C 0.88039 0.89745 0.17956 0.0
C342 C 0.94653 0.92984 0.18095 0.0
C343 C 0.86623 0.87942 0.16403 0.0
C344 C 0.98426 0.02811 0.1945 0.0
C345 C 0.9749 0.00431 0.1905 0.0
C346 C 0.91827 0.96675 0.20974 0.0
C347 C 0.90365 0.90814 0.16757 0.0
C348 C 0.91844 0.92804 0.18316 0.0
C349 C 0.95965 0.99275 0.21243 0.0
C350 C 0.94606 0.96923 0.2057 0.0
H351 H 0.90606 0.87646 0.10325 0.0
H352 H 0.92982 0.90826 0.12945 0.0
H353 H 0.88298 0.94583 0.20049 0.0
H354 H 0.96097 0.03807 0.2639 0.0
H355 H 0.94393 0.99636 0.25662 0.0
C356 C 0.84985 0.09697 0.65204 0.0
C357 C 0.86066 0.11921 0.64206 0.0
C358 C 0.86641 0.07897 0.66406 0.0
C359 C 0.93222 0.06527 0.69675 0.0
H360 H 0.92312 0.0028 0.65782 0.0
C361 C 0.97791 0.96978 0.73087 0.0
C362 C 0.98764 0.95586 0.70718 0.0
C363 C 0.96614 0.99272 0.72581 0.0
C364 C 0.92595 0.02014 0.66888 0.0
H365 H 0.89717 0.14046 0.63841 0.0
H366 H 0.92619 0.10889 0.65972 0.0
H367 H 0.89382 0.03672 0.64502 0.0
H368 H 0.99512 0.9561 0.66019 0.0
H369 H 0.97462 0.99577 0.6515 0.0
H370 H 0.96439 0.04822 0.72083 0.0
C371 C 0.90485 0.10549 0.65812 0.0
C372 C 0.90901 0.0395 0.66173 0.0
C373 C 0.88828 0.12347 0.64576 0.0
C374 C 0.98755 0.96624 0.67887 0.0
C375 C 0.97575 0.98894 0.67385 0.0
C376 C 0.94898 0.04562 0.70433 0.0
C377 C 0.89416 0.0828 0.66663 0.0
C378 C 0.91199 0.06231 0.67543 0.0
C379 C 0.96384 0.0019 0.697 0.0
C380 C 0.94615 0.02295 0.69015 0.0
H381 H 0.82875 0.09295 0.64923 0.0
H382 H 0.8576 0.06171 0.6706 0.0
H383 H 0.9349 0.08267 0.70767 0.0
H384 H 0.97741 0.96219 0.75286 0.0
H385 H 0.95709 0.00238 0.74405 0.0
C386 C 0.66067 0.39794 0.15746 0.0
C387 C 0.64909 0.38255 0.13614 0.0
C388 C 0.64495 0.4145 0.17333 0.0
C389 C 0.61313 0.45954 0.18799 0.0
H390 H 0.53639 0.45209 0.19799 0.0
C391 C 0.523 0.52983 0.18805 0.0
C392 C 0.53056 0.546 0.21055 0.0
C393 C 0.53417 0.50644 0.18651 0.0
C394 C 0.55786 0.45428 0.1956 0.0
H395 H 0.61116 0.37153 0.11675 0.0
H396 H 0.58437 0.40144 0.14237 0.0
H397 H 0.56324 0.41714 0.18242 0.0
H398 H 0.55467 0.55011 0.24986 0.0
H399 H 0.57485 0.50935 0.24669 0.0
H400 H 0.60755 0.49664 0.20159 0.0
C401 C 0.6055 0.40048 0.14756 0.0
C402 C 0.5733 0.43435 0.18633 0.0
C403 C 0.6211 0.38349 0.13227 0.0
C404 C 0.54826 0.53787 0.23251 0.0
C405 C 0.55992 0.51466 0.23059 0.0
C406 C 0.59779 0.47921 0.19794 0.0
C407 C 0.61725 0.41669 0.16789 0.0
C408 C 0.60112 0.43684 0.18154 0.0
C409 C 0.55362 0.49906 0.20702 0.0
C410 C 0.56994 0.47696 0.20116 0.0
H411 H 0.68208 0.39805 0.16118 0.0
H412 H 0.65482 0.42601 0.18937 0.0
H413 H 0.63424 0.46267 0.18409 0.0
H414 H 0.50956 0.53578 0.17074 0.0
H415 H 0.52912 0.49485 0.16801 0.0
C416 C 0.37528 0.37798 0.33279 0.0
C417 C 0.37045 0.38033 0.36312 0.0
C418 C 0.39295 0.39397 0.31838 0.0
C419 C 0.44649 0.44024 0.33393 0.0
H420 H 0.42884 0.46448 0.25621 0.0
C421 C 0.50504 0.52134 0.28862 0.0
C422 C 0.48932 0.53944 0.27534 0.0
C423 C 0.49502 0.4976 0.29204 0.0
C424 C 0.43409 0.45801 0.27797 0.0
H425 H 0.37966 0.40179 0.40187 0.0
H426 H 0.40967 0.42981 0.37697 0.0
H427 H 0.40174 0.43226 0.2781 0.0
H428 H 0.45158 0.54702 0.25392 0.0
H429 H 0.43349 0.50619 0.26087 0.0
H430 H 0.47737 0.46705 0.33506 0.0
C431 C 0.40079 0.41516 0.36428 0.0
C432 C 0.41869 0.43922 0.29041 0.0
C433 C 0.38343 0.39911 0.37863 0.0
C434 C 0.46423 0.53315 0.26374 0.0
C435 C 0.4539 0.50962 0.2678 0.0
C436 C 0.46157 0.45922 0.32175 0.0
C437 C 0.40596 0.41281 0.33397 0.0
C438 C 0.42421 0.43056 0.31895 0.0
C439 C 0.46863 0.49179 0.2833 0.0
C440 C 0.45523 0.46889 0.29387 0.0
H441 H 0.36558 0.36365 0.32028 0.0
H442 H 0.39654 0.39143 0.29511 0.0
H443 H 0.45191 0.43365 0.3556 0.0
H444 H 0.52439 0.52591 0.29794 0.0
H445 H 0.50743 0.48426 0.30315 0.0
C446 C 0.11261 0.12269 0.87354 0.0
C447 C 0.14069 0.12223 0.87047 0.0
C448 C 0.09652 0.10549 0.85921 0.0
C449 C 0.09253 0.06071 0.79936 0.0
H450 H 0.05002 0.02277 0.85415 0.0
C451 C 0.04975 0.96528 0.77025 0.0
C452 C 0.0282 0.95608 0.78662 0.0
C453 C 0.06008 0.98857 0.77624 0.0
C454 C 0.06105 0.03342 0.83816 0.0
H455 H 0.17352 0.10383 0.84835 0.0
H456 H 0.14522 0.07441 0.82258 0.0
H457 H 0.07426 0.0583 0.87147 0.0
H458 H 0.99904 0.96433 0.82023 0.0
H459 H 0.0154 0.00563 0.82915 0.0
H460 H 0.07905 0.03614 0.76585 0.0
C461 C 0.13582 0.08807 0.83635 0.0
C462 C 0.07518 0.05378 0.84829 0.0
C463 C 0.15202 0.10504 0.85107 0.0
C464 C 0.01575 0.97112 0.8074 0.0
C465 C 0.0255 0.99465 0.81279 0.0
C466 C 0.07788 0.04058 0.78901 0.0
C467 C 0.10801 0.08768 0.84097 0.0
C468 C 0.09138 0.06741 0.82915 0.0
C469 C 0.04867 0.00331 0.79838 0.0
C470 C 0.06223 0.02634 0.80837 0.0
H471 H 0.10304 0.13599 0.88766 0.0
H472 H 0.07507 0.10576 0.86288 0.0
H473 H 0.10478 0.07103 0.78411 0.0
H474 H 0.05984 0.95379 0.75435 0.0
H475 H 0.07799 0.99424 0.76473 0.0
C476 C 0.15649 0.18097 0.98183 0.0
C477 C 0.16066 0.15782 0.9694 0.0
C478 C 0.14775 0.18313 0.01101 0.0
C479 C 0.14437 0.15192 0.08233 0.0
H480 H 0.0761 0.1844 0.09239 0.0
C481 C 0.07504 0.13203 0.18073 0.0
C482 C 0.05441 0.14842 0.18748 0.0
C483 C 0.09328 0.13739 0.15824 0.0
C484 C 0.09555 0.17584 0.09051 0.0
H485 H 0.1601 0.1189 0.97773 0.0
H486 H 0.14557 0.12267 0.02901 0.0
H487 H 0.09839 0.18588 0.04502 0.0
H488 H 0.03783 0.18403 0.17818 0.0
H489 H 0.07089 0.19444 0.14068 0.0
H490 H 0.14188 0.142 0.12776 0.0
C491 C 0.1488 0.1391 0.01619 0.0
C492 C 0.10822 0.17658 0.06309 0.0
C493 C 0.15693 0.13693 0.98687 0.0
C494 C 0.05376 0.1712 0.17343 0.0
C495 C 0.07243 0.17688 0.15151 0.0
C496 C 0.132 0.15162 0.11 0.0
C497 C 0.1437 0.16219 0.02841 0.0
C498 C 0.13237 0.1641 0.05852 0.0
C499 C 0.09149 0.15948 0.14233 0.0
C500 C 0.10697 0.16297 0.11434 0.0
H501 H 0.15922 0.19731 0.9687 0.0
H502 H 0.14393 0.20113 0.01994 0.0
H503 H 0.16315 0.14232 0.07941 0.0
H504 H 0.07555 0.11413 0.19092 0.0
H505 H 0.10734 0.12331 0.15197 0.0
C506 C 0.33205 0.34577 0.47822 0.0
C507 C 0.34594 0.33538 0.45449 0.0
C508 C 0.34165 0.34308 0.50706 0.0
C509 C 0.4059 0.33043 0.54539 0.0
H510 H 0.36224 0.33245 0.61588 0.0
C511 C 0.45722 0.33073 0.65651 0.0
C512 C 0.44999 0.35033 0.67466 0.0
C513 C 0.44056 0.32343 0.63345 0.0
C514 C 0.37465 0.33183 0.59636 0.0
H515 H 0.37955 0.31269 0.44227 0.0
H516 H 0.39559 0.30685 0.49248 0.0
H517 H 0.34067 0.32951 0.56752 0.0
H518 H 0.41897 0.37663 0.6844 0.0
H519 H 0.3896 0.36391 0.64387 0.0
H520 H 0.43977 0.333 0.57389 0.0
C521 C 0.3779 0.31791 0.489 0.0
C522 C 0.36233 0.33025 0.56861 0.0
C523 C 0.36859 0.32099 0.46022 0.0
C524 C 0.4247 0.36113 0.67103 0.0
C525 C 0.40799 0.35392 0.6477 0.0
C526 C 0.41812 0.33175 0.57295 0.0
C527 C 0.3652 0.32969 0.51277 0.0
C528 C 0.37782 0.32969 0.54268 0.0
C529 C 0.41648 0.33588 0.6277 0.0
C530 C 0.40274 0.3326 0.59882 0.0
H531 H 0.31468 0.35718 0.4743 0.0
H532 H 0.33139 0.3526 0.52459 0.0
H533 H 0.41863 0.33083 0.52613 0.0
H534 H 0.47676 0.32231 0.65873 0.0
H535 H 0.44743 0.30914 0.61883 0.0
C536 C 0.6618 0.37089 0.01945 0.0
C537 C 0.66807 0.34967 0.03543 0.0
C538 C 0.65368 0.36937 0.99006 0.0
C539 C 0.61843 0.32985 0.93948 0.0
H540 H 0.64578 0.37347 0.87931 0.0
C541 C 0.56339 0.33722 0.82904 0.0
C542 C 0.55963 0.36117 0.81895 0.0
C543 C 0.58288 0.33214 0.85042 0.0
C544 C 0.63774 0.36124 0.89582 0.0
H545 H 0.67114 0.31029 0.03322 0.0
H546 H 0.65605 0.30753 0.9818 0.0
H547 H 0.66725 0.37221 0.92756 0.0
H548 H 0.57362 0.39841 0.82214 0.0
H549 H 0.60705 0.38997 0.85966 0.0
H550 H 0.58782 0.32002 0.90887 0.0
C551 C 0.65775 0.32533 0.99202 0.0
C552 C 0.65018 0.36045 0.92343 0.0
C553 C 0.66642 0.32689 0.02133 0.0
C554 C 0.57667 0.37968 0.82911 0.0
C555 C 0.59585 0.37474 0.85075 0.0
C556 C 0.60568 0.33094 0.91206 0.0
C557 C 0.65121 0.34657 0.97614 0.0
C558 C 0.6403 0.34514 0.94574 0.0
C559 C 0.59848 0.35109 0.86268 0.0
C560 C 0.61473 0.34709 0.89001 0.0
H561 H 0.66308 0.38867 0.02978 0.0
H562 H 0.64853 0.38602 0.97847 0.0
H563 H 0.61025 0.31801 0.95634 0.0
H564 H 0.55009 0.32274 0.82186 0.0
H565 H 0.58468 0.31359 0.85844 0.0
C566 C 0.86753 0.17862 0.54535 0.0
C567 C 0.84361 0.16565 0.5496 0.0
C568 C 0.87781 0.18206 0.51705 0.0
C569 C 0.86295 0.17417 0.43643 0.0
H570 H 0.94016 0.16748 0.43277 0.0
C571 C 0.92654 0.14566 0.33372 0.0
C572 C 0.95243 0.15566 0.33206 0.0
C573 C 0.90937 0.1523 0.35685 0.0
C574 C 0.91861 0.16981 0.43331 0.0
H575 H 0.8112 0.14669 0.52764 0.0
H576 H 0.82957 0.15183 0.47822 0.0
H577 H 0.91823 0.1683 0.4801 0.0
H578 H 0.97953 0.18232 0.35074 0.0
H579 H 0.94944 0.1945 0.39023 0.0
H580 H 0.86371 0.1744 0.38908 0.0
C581 C 0.84013 0.16 0.49655 0.0
C582 C 0.90595 0.17037 0.46062 0.0
C583 C 0.8296 0.15696 0.5249 0.0
C584 C 0.95967 0.17433 0.35163 0.0
C585 C 0.94254 0.1811 0.37441 0.0
C586 C 0.87571 0.17332 0.4089 0.0
C587 C 0.86477 0.17207 0.49229 0.0
C588 C 0.87794 0.1726 0.46272 0.0
C589 C 0.91793 0.16907 0.3784 0.0
C590 C 0.90373 0.17122 0.40709 0.0
H591 H 0.87859 0.18567 0.56404 0.0
H592 H 0.8964 0.1921 0.51471 0.0
H593 H 0.84138 0.17608 0.43708 0.0
H594 H 0.92063 0.13105 0.31902 0.0
H595 H 0.89048 0.14276 0.35928 0.0
C596 C 0.83572 0.82224 0.01935 0.0
C597 C 0.85345 0.83438 0.03863 0.0
C598 C 0.8401 0.82255 0.98879 0.0
C599 C 0.87216 0.85829 0.93064 0.0
H600 H 0.88781 0.7977 0.89012 0.0
C601 C 0.92304 0.86093 0.81822 0.0
C602 C 0.94776 0.84883 0.82001 0.0
C603 C 0.9028 0.8558 0.83875 0.0
C604 C 0.883 0.81476 0.90094 0.0
H605 H 0.89047 0.85542 0.04023 0.0
H606 H 0.897 0.85696 0.98756 0.0
H607 H 0.86872 0.7966 0.93985 0.0
H608 H 0.96996 0.82047 0.84245 0.0
H609 H 0.93461 0.81098 0.87752 0.0
H610 H 0.88769 0.87654 0.89269 0.0
C611 C 0.87961 0.84742 0.99607 0.0
C612 C 0.872 0.81411 0.92932 0.0
C613 C 0.87564 0.84666 0.0264 0.0
C614 C 0.95094 0.82988 0.84051 0.0
C615 C 0.93064 0.82445 0.8606 0.0
C616 C 0.88277 0.85895 0.90221 0.0
C617 C 0.86196 0.83541 0.97692 0.0
C618 C 0.86754 0.83588 0.94485 0.0
C619 C 0.90691 0.83825 0.86101 0.0
C620 C 0.88937 0.83721 0.88748 0.0
H621 H 0.81838 0.81263 0.02778 0.0
H622 H 0.82628 0.81302 0.97443 0.0
H623 H 0.86884 0.87533 0.94216 0.0
H624 H 0.92027 0.8758 0.80277 0.0
H625 H 0.88464 0.86662 0.83841 0.0
C626 C 0.66714 0.67887 0.53662 0.0
C627 C 0.65009 0.66682 0.55668 0.0
C628 C 0.66261 0.67726 0.50618 0.0
C629 C 0.63056 0.63858 0.45034 0.0
H630 H 0.61979 0.69751 0.40443 0.0
C631 C 0.58876 0.6315 0.33384 0.0
C632 C 0.56508 0.64503 0.33082 0.0
C633 C 0.60694 0.63698 0.35642 0.0
C634 C 0.62309 0.68088 0.41685 0.0
H635 H 0.61423 0.64434 0.55981 0.0
H636 H 0.60728 0.64077 0.50727 0.0
H637 H 0.63644 0.70046 0.45513 0.0
H638 H 0.54247 0.67571 0.34739 0.0
H639 H 0.57434 0.68571 0.38634 0.0
H640 H 0.61621 0.61898 0.41286 0.0
C641 C 0.62428 0.65125 0.51509 0.0
C642 C 0.63273 0.68258 0.44579 0.0
C643 C 0.62846 0.65318 0.54534 0.0
C644 C 0.56093 0.66537 0.34896 0.0
C645 C 0.57918 0.67102 0.37132 0.0
C646 C 0.62129 0.63686 0.4214 0.0
C647 C 0.64123 0.66326 0.49516 0.0
C648 C 0.63568 0.66147 0.46311 0.0
C649 C 0.60167 0.6561 0.37628 0.0
C650 C 0.61661 0.65802 0.40459 0.0
H651 H 0.68408 0.68942 0.54438 0.0
H652 H 0.67596 0.68673 0.49124 0.0
H653 H 0.63282 0.622 0.46314 0.0
H654 H 0.59206 0.61543 0.32044 0.0
H655 H 0.6242 0.62528 0.35951 0.0
C656 C 0.38943 0.65203 0.96532 0.0
C657 C 0.36668 0.66602 0.95812 0.0
C658 C 0.39767 0.64936 0.99448 0.0
C659 C 0.39758 0.67791 0.06663 0.0
H660 H 0.4162 0.61281 0.09334 0.0
C661 C 0.44515 0.65833 0.1821 0.0
C662 C 0.46658 0.6417 0.18163 0.0
C663 C 0.42898 0.66159 0.15703 0.0
C664 C 0.41125 0.63116 0.08624 0.0
H665 H 0.33513 0.68859 0.97651 0.0
H666 H 0.35023 0.68446 0.02765 0.0
H667 H 0.39561 0.61831 0.04521 0.0
H668 H 0.48736 0.61505 0.15484 0.0
H669 H 0.46011 0.62111 0.11146 0.0
H670 H 0.41434 0.69085 0.10726 0.0
C671 C 0.36136 0.67538 0.0104 0.0
C672 C 0.39935 0.63426 0.05869 0.0
C673 C 0.3528 0.67778 0.98109 0.0
C674 C 0.47135 0.62831 0.15586 0.0
C675 C 0.45534 0.6315 0.13103 0.0
C676 C 0.40978 0.67482 0.09424 0.0
C677 C 0.38374 0.66091 0.01737 0.0
C678 C 0.39302 0.6577 0.04823 0.0
C679 C 0.43389 0.64812 0.13118 0.0
C680 C 0.41748 0.65143 0.10399 0.0
H681 H 0.40128 0.64335 0.94836 0.0
H682 H 0.41533 0.63851 0.9991 0.0
H683 H 0.39294 0.6962 0.05909 0.0
H684 H 0.44126 0.66914 0.20154 0.0
H685 H 0.41261 0.67453 0.15794 0.0
C686 C 0.14261 0.80461 0.47301 0.0
C687 C 0.15595 0.82409 0.45922 0.0
C688 C 0.13744 0.80518 0.50328 0.0
C689 C 0.12974 0.85053 0.56326 0.0
H690 H 0.11834 0.79262 0.61081 0.0
C691 C 0.08203 0.85912 0.677 0.0
C692 C 0.0589 0.84471 0.67971 0.0
C693 C 0.10111 0.85385 0.65534 0.0
C694 C 0.12161 0.80897 0.59786 0.0
H695 H 0.17604 0.8586 0.46655 0.0
H696 H 0.16808 0.85924 0.51951 0.0
H697 H 0.13893 0.78885 0.56226 0.0
H698 H 0.03816 0.81285 0.6632 0.0
H699 H 0.07158 0.8033 0.62578 0.0
H700 H 0.11199 0.87057 0.59854 0.0
C701 C 0.16069 0.84386 0.50693 0.0
C702 C 0.13326 0.80683 0.56992 0.0
C703 C 0.16549 0.84344 0.4766 0.0
C704 C 0.05614 0.82391 0.66194 0.0
C705 C 0.07528 0.8185 0.64047 0.0
C706 C 0.1184 0.85268 0.59124 0.0
C707 C 0.14578 0.82516 0.52058 0.0
C708 C 0.13684 0.82752 0.55188 0.0
C709 C 0.09732 0.83409 0.63596 0.0
C710 C 0.11357 0.83189 0.6086 0.0
H711 H 0.13475 0.78959 0.46011 0.0
H712 H 0.12563 0.79056 0.51272 0.0
H713 H 0.1316 0.8669 0.55003 0.0
H714 H 0.08418 0.87569 0.68979 0.0
H715 H 0.11796 0.86611 0.65255 0.0
C716 C 0.21041 0.30587 0.31225 0.0
C717 C 0.22843 0.30304 0.33588 0.0
C718 C 0.19634 0.28586 0.30094 0.0
C719 C 0.17316 0.22455 0.32369 0.0
H720 H 0.15012 0.21952 0.24236 0.0
C721 C 0.10706 0.14501 0.28864 0.0
C722 C 0.08364 0.15129 0.27323 0.0
C723 C 0.12832 0.16146 0.29089 0.0
C724 C 0.15634 0.22072 0.26515 0.0
H725 H 0.24678 0.27648 0.36498 0.0
H726 H 0.22291 0.24143 0.34466 0.0
H727 H 0.18135 0.25184 0.25688 0.0
H728 H 0.06499 0.17894 0.246 0.0
H729 H 0.10225 0.20802 0.25012 0.0
H730 H 0.148 0.19379 0.33216 0.0
C731 C 0.21911 0.25931 0.33536 0.0
C732 C 0.17423 0.23927 0.27352 0.0
C733 C 0.2331 0.27939 0.3468 0.0
C734 C 0.08287 0.17357 0.25788 0.0
C735 C 0.10419 0.19024 0.26035 0.0
C736 C 0.15548 0.20603 0.31532 0.0
C737 C 0.20002 0.26236 0.31276 0.0
C738 C 0.18269 0.24157 0.30301 0.0
C739 C 0.12662 0.18477 0.27807 0.0
C740 C 0.14669 0.2039 0.286 0.0
H741 H 0.20669 0.32372 0.30283 0.0
H742 H 0.18177 0.28907 0.2837 0.0
H743 H 0.17859 0.22599 0.34669 0.0
H744 H 0.10835 0.12783 0.30042 0.0
H745 H 0.1456 0.15635 0.30397 0.0
C746 C 0.28417 0.19482 0.8115 0.0
C747 C 0.27124 0.20249 0.83726 0.0
C748 C 0.29852 0.21147 0.79425 0.0
C749 C 0.31624 0.27785 0.78539 0.0
H750 H 0.38575 0.25115 0.76524 0.0
C751 C 0.40556 0.33894 0.74711 0.0
C752 C 0.42853 0.33476 0.76425 0.0
C753 C 0.38412 0.32223 0.74784 0.0
C754 C 0.36636 0.25889 0.77045 0.0
H755 H 0.26194 0.23364 0.86455 0.0
H756 H 0.28749 0.26278 0.83495 0.0
H757 H 0.35049 0.22404 0.78207 0.0
H758 H 0.44782 0.3097 0.79438 0.0
H759 H 0.41114 0.28051 0.79517 0.0
H760 H 0.33308 0.31301 0.77545 0.0
C761 C 0.28613 0.24405 0.82748 0.0
C762 C 0.34594 0.24328 0.77987 0.0
C763 C 0.27145 0.22739 0.84452 0.0
C764 C 0.43038 0.3132 0.78079 0.0
C765 C 0.40935 0.29645 0.78116 0.0
C766 C 0.33679 0.29352 0.77595 0.0
C767 C 0.30076 0.23612 0.80275 0.0
C768 C 0.3208 0.25256 0.78832 0.0
C769 C 0.38568 0.30097 0.76531 0.0
C770 C 0.36236 0.28427 0.76933 0.0
H771 H 0.28434 0.17566 0.80554 0.0
H772 H 0.30892 0.20475 0.77501 0.0
H773 H 0.29705 0.28564 0.79128 0.0
H774 H 0.40357 0.35566 0.73457 0.0
H775 H 0.36615 0.32618 0.73535 0.0
C776 C 0.72572 0.22168 0.65709 0.0
C777 C 0.72188 0.19739 0.66614 0.0
C778 C 0.71172 0.24074 0.67078 0.0
C779 C 0.64931 0.25086 0.71292 0.0
H780 H 0.67687 0.31673 0.72085 0.0
C781 C 0.58023 0.32902 0.75031 0.0
C782 C 0.58102 0.34945 0.7316 0.0
C783 C 0.60069 0.31148 0.74932 0.0
C784 C 0.66888 0.29841 0.71882 0.0
H785 H 0.70194 0.17422 0.69801 0.0
H786 H 0.678 0.20734 0.72219 0.0
H787 H 0.70681 0.2839 0.70534 0.0
H788 H 0.60477 0.36845 0.69888 0.0
H789 H 0.6402 0.33811 0.69713 0.0
H790 H 0.61127 0.26538 0.72555 0.0
C791 C 0.69114 0.21171 0.70398 0.0
C792 C 0.68603 0.2796 0.70982 0.0
C793 C 0.70494 0.19272 0.6902 0.0
C794 C 0.60355 0.35286 0.71352 0.0
C795 C 0.62399 0.33548 0.71264 0.0
C796 C 0.63221 0.26962 0.72196 0.0
C797 C 0.69373 0.23591 0.69396 0.0
C798 C 0.67635 0.25564 0.7062 0.0
C799 C 0.62238 0.31412 0.72972 0.0
C800 C 0.64161 0.29374 0.72445 0.0
H801 H 0.73851 0.22583 0.6385 0.0
H802 H 0.71409 0.25909 0.66226 0.0
H803 H 0.64094 0.23277 0.70996 0.0
H804 H 0.563 0.32576 0.76423 0.0
H805 H 0.59899 0.29537 0.76305 0.0
C806 C 0.79777 0.31052 0.18932 0.0
C807 C 0.78023 0.30342 0.1667 0.0
C808 C 0.81085 0.29303 0.20655 0.0
C809 C 0.81469 0.22607 0.22347 0.0
H810 H 0.89027 0.24041 0.23333 0.0
C811 C 0.89666 0.15275 0.22944 0.0
C812 C 0.92023 0.15708 0.24557 0.0
C813 C 0.8762 0.1701 0.22856 0.0
C814 C 0.86913 0.23623 0.23146 0.0
H815 H 0.76153 0.27251 0.14532 0.0
H816 H 0.78472 0.24179 0.17495 0.0
H817 H 0.86039 0.27185 0.21495 0.0
H818 H 0.94014 0.18233 0.27499 0.0
H819 H 0.90419 0.21287 0.27355 0.0
H820 H 0.82392 0.18996 0.23874 0.0
C821 C 0.7881 0.26089 0.17985 0.0
C822 C 0.85187 0.25433 0.22084 0.0
C823 C 0.77475 0.27847 0.16281 0.0
C824 C 0.92212 0.17842 0.26256 0.0
C825 C 0.90166 0.196 0.26145 0.0
C826 C 0.83201 0.2079 0.234 0.0
C827 C 0.80703 0.26793 0.20131 0.0
C828 C 0.8245 0.24938 0.21605 0.0
C829 C 0.87886 0.19238 0.24359 0.0
C830 C 0.85958 0.21259 0.23746 0.0
H831 H 0.80219 0.32967 0.19291 0.0
H832 H 0.82471 0.29921 0.22332 0.0
H833 H 0.79369 0.22167 0.22061 0.0
H834 H 0.89462 0.13643 0.21616 0.0
H835 H 0.85912 0.16669 0.21442 0.0
C836 C 0.73204 0.78117 0.6734 0.0
C837 C 0.72399 0.75696 0.67879 0.0
C838 C 0.75596 0.79022 0.685 0.0
C839 C 0.82208 0.77318 0.71429 0.0
H840 H 0.82008 0.8395 0.74416 0.0
C841 C 0.91828 0.82576 0.75077 0.0
C842 C 0.92072 0.84795 0.73546 0.0
C843 C 0.89367 0.81319 0.75099 0.0
C844 C 0.82097 0.82091 0.73609 0.0
H845 H 0.7355 0.72297 0.69979 0.0
H846 H 0.77776 0.73883 0.7199 0.0
H847 H 0.7786 0.81951 0.72926 0.0
H848 H 0.89935 0.87516 0.71007 0.0
H849 H 0.85665 0.85384 0.7111 0.0
H850 H 0.86474 0.77505 0.7203 0.0
C851 C 0.76529 0.75079 0.70674 0.0
C852 C 0.79722 0.80949 0.72738 0.0
C853 C 0.74114 0.74169 0.69514 0.0
C854 C 0.89796 0.85809 0.72207 0.0
C855 C 0.87347 0.84589 0.72276 0.0
C856 C 0.84596 0.78467 0.72307 0.0
C857 C 0.77267 0.77534 0.70228 0.0
C858 C 0.79756 0.78582 0.71538 0.0
C859 C 0.87114 0.82298 0.73647 0.0
C860 C 0.84572 0.80897 0.73311 0.0
H861 H 0.71969 0.79328 0.66029 0.0
H862 H 0.76138 0.809 0.68036 0.0
H863 H 0.82304 0.75494 0.70516 0.0
H864 H 0.93565 0.81751 0.76106 0.0
H865 H 0.89242 0.79561 0.76185 0.0
C866 C 0.76645 0.74709 0.19084 0.0
C867 C 0.77309 0.75303 0.16165 0.0
C868 C 0.74128 0.73748 0.19776 0.0
C869 C 0.68672 0.70172 0.16546 0.0
H870 H 0.64753 0.72102 0.23525 0.0
C871 C 0.58358 0.65956 0.19393 0.0
C872 C 0.57742 0.65548 0.22369 0.0
C873 C 0.6066 0.67257 0.18593 0.0
C874 C 0.65835 0.71514 0.21589 0.0
H875 H 0.7583 0.75418 0.11689 0.0
H876 H 0.71411 0.7371 0.12892 0.0
H877 H 0.68849 0.74265 0.22182 0.0
H878 H 0.59076 0.66166 0.26845 0.0
H879 H 0.63137 0.68371 0.25457 0.0
H880 H 0.6572 0.67376 0.15989 0.0
C881 C 0.72851 0.7399 0.14645 0.0
C882 C 0.68178 0.72767 0.2081 0.0
C883 C 0.75367 0.74986 0.13958 0.0
C884 C 0.59491 0.66456 0.24532 0.0
C885 C 0.61811 0.6774 0.23731 0.0
C886 C 0.66344 0.68903 0.17339 0.0
C887 C 0.72216 0.73331 0.17559 0.0
C888 C 0.69632 0.72104 0.18286 0.0
C889 C 0.62426 0.68167 0.20747 0.0
C890 C 0.64895 0.69547 0.19881 0.0
H891 H 0.78099 0.74946 0.20833 0.0
H892 H 0.73715 0.73246 0.22036 0.0
H893 H 0.69767 0.69589 0.14614 0.0
H894 H 0.5704 0.65298 0.17672 0.0
H895 H 0.61027 0.6758 0.16278 0.0
C896 C 0.24872 0.74945 0.34809 0.0
C897 C 0.22795 0.74999 0.32719 0.0
C898 C 0.27413 0.74057 0.34052 0.0
C899 C 0.30727 0.69998 0.28658 0.0
H900 H 0.3724 0.72762 0.31904 0.0
C901 C 0.41267 0.65933 0.26182 0.0
C902 C 0.42912 0.65653 0.28668 0.0
C903 C 0.38898 0.67313 0.26353 0.0
C904 C 0.35438 0.71962 0.30985 0.0
H905 H 0.21814 0.74294 0.28147 0.0
H906 H 0.2623 0.72756 0.26833 0.0
H907 H 0.32951 0.74737 0.32864 0.0
H908 H 0.43393 0.66634 0.33262 0.0
H909 H 0.39301 0.69003 0.33562 0.0
H910 H 0.33212 0.67194 0.26828 0.0
C911 C 0.25884 0.73343 0.29074 0.0
C912 C 0.32978 0.73093 0.31543 0.0
C913 C 0.2335 0.74228 0.2983 0.0
C914 C 0.42169 0.66811 0.31302 0.0
C915 C 0.3983 0.68193 0.31469 0.0
C916 C 0.3319 0.68865 0.281 0.0
C917 C 0.27939 0.73209 0.31185 0.0
C918 C 0.30583 0.72104 0.30428 0.0
C919 C 0.38149 0.68451 0.29009 0.0
C920 C 0.35572 0.69808 0.29303 0.0
H921 H 0.24509 0.75506 0.37057 0.0
H922 H 0.28939 0.73958 0.35744 0.0
H923 H 0.28922 0.69167 0.27788 0.0
H924 H 0.41762 0.65023 0.24143 0.0
H925 H 0.37648 0.67478 0.24414 0.0
C926 C 0.2555 0.74125 0.83994 0.0
C927 C 0.28021 0.75004 0.82955 0.0
C928 C 0.23143 0.74889 0.82693 0.0
C929 C 0.20438 0.80093 0.78432 0.0
H930 H 0.14051 0.76077 0.78004 0.0
C931 C 0.10266 0.84238 0.74963 0.0
C932 C 0.08151 0.83642 0.76862 0.0
C933 C 0.12666 0.82901 0.75051 0.0
C934 C 0.15817 0.77225 0.78109 0.0
H935 H 0.29909 0.77228 0.79597 0.0
H936 H 0.25728 0.7853 0.77306 0.0
H937 H 0.18314 0.74232 0.79425 0.0
H938 H 0.06832 0.81149 0.80263 0.0
H939 H 0.10979 0.78822 0.80423 0.0
H940 H 0.17936 0.83098 0.77204 0.0
C941 C 0.25636 0.77305 0.79175 0.0
C942 C 0.18261 0.76167 0.78932 0.0
C943 C 0.28036 0.76551 0.80482 0.0
C944 C 0.08427 0.81627 0.78751 0.0
C945 C 0.10804 0.80287 0.78831 0.0
C946 C 0.17996 0.8115 0.7761 0.0
C947 C 0.23153 0.76541 0.80312 0.0
C948 C 0.20596 0.77596 0.7916 0.0
C949 C 0.12986 0.80944 0.77044 0.0
C950 C 0.15641 0.79742 0.77496 0.0
H951 H 0.2547 0.72949 0.8591 0.0
H952 H 0.21272 0.74276 0.83647 0.0
H953 H 0.22179 0.81264 0.78623 0.0
H954 H 0.10132 0.85828 0.73558 0.0
H955 H 0.14301 0.8345 0.73632 0.0
loop_
_geom_bond_atom_site_label_1
_geom_bond_atom_site_label_2
_geom_bond_distance
_geom_bond_site_symmetry_2
_ccdc_geom_bond_type
H0 C1 0.949 . S
C1 H0 0.949 . S
C1 C2 1.395 . S
C1 C3 1.391 . S
C2 C1 1.395 . S
C2 C5 1.390 . S
C3 C1 1.391 . S
C3 C7 1.387 . S
C3 C8 1.491 . S
H4 C5 0.950 . S
C5 C2 1.390 . S
C5 H4 0.950 . S
C5 C6 1.378 . S
C6 C5 1.378 . S
C6 C7 1.409 . S
C7 C3 1.387 . S
C7 C6 1.409 . S
C7 H9 0.951 . S
C8 C3 1.491 . S
C8 C10 1.382 . S
C8 C12 1.404 . S
H9 C7 0.951 . S
C10 C8 1.382 . S
C10 C11 1.390 . S
C10 H15 0.949 . S
C11 C10 1.390 . S
C11 C16 1.399 . S
C12 C8 1.404 . S
C12 H13 0.950 . S
C12 C14 1.375 . S
H13 C12 0.950 . S
C14 C12 1.375 . S
C14 C16 1.382 . S
C14 H18 0.950 . S
H15 C10 0.949 . S
C16 C11 1.399 . S
C16 C14 1.382 . S
C16 H17 0.952 . S
H17 C16 0.952 . S
H18 C14 0.950 . S
H19 C20 0.949 . S
C20 H19 0.949 . S
C20 C21 1.395 . S
C20 C22 1.391 . S
C21 C20 1.395 . S
C21 C24 1.390 . S
C22 C20 1.391 . S
C22 C26 1.387 . S
C22 C27 1.491 . S
H23 C24 0.950 . S
C24 C21 1.390 . S
C24 H23 0.950 . S
C24 C25 1.378 . S
C25 C24 1.378 . S
C25 C26 1.409 . S
C26 C22 1.387 . S
C26 C25 1.409 . S
C26 H28 0.951 . S
C27 C22 1.491 . S
C27 C29 1.382 . S
C27 C31 1.404 . S
H28 C26 0.951 . S
C29 C27 1.382 . S
C29 C30 1.390 . S
C29 H34 0.949 . S
C30 C29 1.390 . S
C30 C35 1.399 . S
C31 C27 1.404 . S
C31 H32 0.950 . S
C31 C33 1.375 . S
H32 C31 0.950 . S
C33 C31 1.375 . S
C33 C35 1.382 . S
C33 H37 0.950 . S
H34 C29 0.949 . S
C35 C30 1.399 . S
C35 C33 1.382 . S
C35 H36 0.952 . S
H36 C35 0.952 . S
H37 C33 0.950 . S
H38 C39 0.949 . S
C39 H38 0.949 . S
C39 C40 1.395 . S
C39 C41 1.391 . S
C40 C39 1.395 . S
C40 C43 1.390 . S
C41 C39 1.391 . S
C41 C45 1.387 . S
C41 C46 1.491 . S
H42 C43 0.950 . S
C43 C40 1.390 . S
C43 H42 0.950 . S
C43 C44 1.378 . S
C44 C43 1.378 . S
C44 C45 1.409 . S
C45 C41 1.387 . S
C45 C44 1.409 . S
C45 H47 0.951 . S
C46 C41 1.491 . S
C46 C48 1.382 . S
C46 C50 1.404 . S
H47 C45 0.951 . S
C48 C46 1.382 . S
C48 C49 1.390 . S
C48 H53 0.949 . S
C49 C48 1.390 . S
C49 C54 1.399 . S
C50 C46 1.404 . S
C50 H51 0.950 . S
C50 C52 1.375 . S
H51 C50 0.950 . S
C52 C50 1.375 . S
C52 C54 1.382 . S
C52 H56 0.950 . S
H53 C48 0.949 . S
C54 C49 1.399 . S
C54 C52 1.382 . S
C54 H55 0.952 . S
H55 C54 0.952 . S
H56 C52 0.950 . S
H57 C58 0.949 . S
C58 H57 0.949 . S
C58 C59 1.395 . S
C58 C60 1.391 . S
C59 C58 1.395 . S
C59 C62 1.390 . S
C60 C58 1.391 . S
C60 C64 1.387 . S
C60 C65 1.491 . S
H61 C62 0.950 . S
C62 C59 1.390 . S
C62 H61 0.950 . S
C62 C63 1.378 . S
C63 C62 1.378 . S
C63 C64 1.409 . S
C64 C60 1.387 . S
C64 C63 1.409 . S
C64 H66 0.951 . S
C65 C60 1.491 . S
C65 C67 1.382 . S
C65 C69 1.404 . S
H66 C64 0.951 . S
C67 C65 1.382 . S
C67 C68 1.390 . S
C67 H72 0.949 . S
C68 C67 1.390 . S
C68 C73 1.399 . S
C69 C65 1.404 . S
C69 H70 0.950 . S
C69 C71 1.375 . S
H70 C69 0.950 . S
C71 C69 1.375 . S
C71 C73 1.382 . S
C71 H75 0.950 . S
H72 C67 0.949 . S
C73 C68 1.399 . S
C73 C71 1.382 . S
C73 H74 0.952 . S
H74 C73 0.952 . S
H75 C71 0.950 . S
H76 C77 0.949 . S
C77 H76 0.949 . S
C77 C78 1.395 . S
C77 C79 1.391 . S
C78 C77 1.395 . S
C78 C81 1.390 . S
C79 C77 1.391 . S
C79 C83 1.387 . S
C79 C84 1.491 . S
H80 C81 0.950 . S
C81 C78 1.390 . S
C81 H80 0.950 . S
C81 C82 1.378 . S
C82 C81 1.378 . S
C82 C83 1.409 . S
C83 C79 1.387 . S
C83 C82 1.409 . S
C83 H85 0.951 . S
C84 C79 1.491 . S
C84 C86 1.382 . S
C84 C88 1.404 . S
H85 C83 0.951 . S
C86 C84 1.382 . S
C86 C87 1.390 . S
C86 H91 0.949 . S
C87 C86 1.390 . S
C87 C92 1.399 . S
C88 C84 1.404 . S
C88 H89 0.950 . S
C88 C90 1.375 . S
H89 C88 0.950 . S
C90 C88 1.375 . S
C90 C92 1.382 . S
C90 H94 0.950 . S
H91 C86 0.949 . S
C92 C87 1.399 . S
C92 C90 1.382 . S
C92 H93 0.952 . S
H93 C92 0.952 . S
H94 C90 0.950 . S
H95 C96 0.949 . S
C96 H95 0.949 . S
C96 C97 1.395 . S
C96 C98 1.391 . S
C97 C96 1.395 . S
C97 C100 1.390 . S
C98 C96 1.391 . S
C98 C102 1.387 . S
C98 C103 1.491 . S
H99 C100 0.950 . S
C100 C97 1.390 . S
C100 H99 0.950 . S
C100 C101 1.378 . S
C101 C100 1.378 . S
C101 C102 1.409 . S
C102 C98 1.387 . S
C102 C101 1.409 . S
C102 H104 0.951 . S
C103 C98 1.491 . S
C103 C105 1.382 . S
C103 C107 1.404 . S
H104 C102 0.951 . S
C105 C103 1.382 . S
C105 C106 1.390 . S
C105 H110 0.949 . S
C106 C105 1.390 . S
C106 C111 1.399 . S
C107 C103 1.404 . S
C107 H108 0.950 . S
C107 C109 1.375 . S
H108 C107 0.950 . S
C109 C107 1.375 . S
C109 C111 1.382 . S
C109 H113 0.950 . S
H110 C105 0.949 . S
C111 C106 1.399 . S
C111 C109 1.382 . S
C111 H112 0.952 . S
H112 C111 0.952 . S
H113 C109 0.950 . S
H114 C115 0.949 . S
C115 H114 0.949 . S
C115 C116 1.395 . S
C115 C117 1.391 . S
C116 C115 1.395 . S
C116 C119 1.390 . S
C117 C115 1.391 . S
C117 C121 1.387 . S
C117 C122 1.491 . S
H118 C119 0.950 . S
C119 C116 1.390 . S
C119 H118 0.950 . S
C119 C120 1.378 . S
C120 C119 1.378 . S
C120 C121 1.409 . S
C121 C117 1.387 . S
C121 C120 1.409 . S
C121 H123 0.951 . S
C122 C117 1.491 . S
C122 C124 1.382 . S
C122 C126 1.404 . S
H123 C121 0.951 . S
C124 C122 1.382 . S
C124 C125 1.390 . S
C124 H129 0.949 . S
C125 C124 1.390 . S
C125 C130 1.399 . S
C126 C122 1.404 . S
C126 H127 0.950 . S
C126 C128 1.375 . S
H127 C126 0.950 . S
C128 C126 1.375 . S
C128 C130 1.382 . S
C128 H132 0.950 . S
H129 C124 0.949 . S
C130 C125 1.399 . S
C130 C128 1.382 . S
C130 H131 0.952 . S
H131 C130 0.952 . S
H132 C128 0.950 . S
H133 C134 0.949 . S
C134 H133 0.949 . S
C134 C135 1.395 . S
C134 C136 1.391 . S
C135 C134 1.395 . S
C135 C138 1.390 . S
C136 C134 1.391 . S
C136 C140 1.387 . S
C136 C141 1.491 . S
H137 C138 0.950 . S
C138 C135 1.390 . S
C138 H137 0.950 . S
C138 C139 1.378 . S
C139 C138 1.378 . S
C139 C140 1.409 . S
C140 C136 1.387 . S
C140 C139 1.409 . S
C140 H142 0.951 . S
C141 C136 1.491 . S
C141 C143 1.382 . S
C141 C145 1.404 . S
H142 C140 0.951 . S
C143 C141 1.382 . S
C143 C144 1.390 . S
C143 H148 0.949 . S
C144 C143 1.390 . S
C144 C149 1.399 . S
C145 C141 1.404 . S
C145 H146 0.950 . S
C145 C147 1.375 . S
H146 C145 0.950 . S
C147 C145 1.375 . S
C147 C149 1.382 . S
C147 H151 0.950 . S
H148 C143 0.949 . S
C149 C144 1.399 . S
C149 C147 1.382 . S
C149 H150 0.952 . S
H150 C149 0.952 . S
H151 C147 0.950 . S
Zn152 O158 1.920 1_455 S
Zn152 O164 1.898 . S
Zn152 O167 1.905 . S
Zn153 O161 1.905 1_655 S
Zn153 O162 1.898 . S
Zn153 O170 1.920 . S
Zn154 O157 2.062 1_455 S
Zn154 O160 2.133 . S
Zn154 O163 2.095 1_455 S
Zn154 O165 2.142 . S
Zn154 O166 2.139 . S
Zn154 O169 2.058 1_455 S
C155 O160 1.166 . S
C155 O161 1.182 . S
C156 O162 1.167 . S
C156 O163 1.299 . S
O157 Zn154 2.062 1_655 S
O157 C171 1.305 . S
O158 Zn152 1.920 1_655 S
O158 C171 1.234 . S
C159 O164 1.167 . S
C159 O165 1.299 . S
O160 Zn154 2.133 . S
O160 C155 1.166 . S
O161 Zn153 1.905 1_455 S
O161 C155 1.182 . S
O162 Zn153 1.898 . S
O162 C156 1.167 . S
O163 Zn154 2.095 1_655 S
O163 C156 1.299 . S
O164 Zn152 1.898 . S
O164 C159 1.167 . S
O165 Zn154 2.142 . S
O165 C159 1.299 . S
O166 Zn154 2.139 . S
O166 C168 1.166 . S
O167 Zn152 1.905 . S
O167 C168 1.182 . S
C168 O166 1.166 . S
C168 O167 1.182 . S
O169 Zn154 2.058 1_655 S
O169 C172 1.305 . S
O170 Zn153 1.920 . S
O170 C172 1.234 . S
C171 O157 1.305 . S
C171 O158 1.234 . S
C172 O169 1.305 . S
C172 O170 1.234 . S
Zn173 O179 1.920 . S
Zn173 O185 1.898 . S
Zn173 O188 1.905 . S
Zn174 O182 1.905 . S
Zn174 O183 1.898 . S
Zn174 O191 1.920 . S
Zn175 O178 2.080 . S
Zn175 O181 2.114 . S
Zn175 O184 2.120 . S
Zn175 O186 2.120 . S
Zn175 O187 2.114 . S
Zn175 O190 2.080 . S
C176 O181 1.166 . S
C176 O182 1.182 . S
C177 O183 1.167 . S
C177 O184 1.299 . S
O178 Zn175 2.080 . S
O178 C192 1.305 . S
O179 Zn173 1.920 . S
O179 C192 1.234 . S
C180 O185 1.167 . S
C180 O186 1.299 . S
O181 Zn175 2.114 . S
O181 C176 1.166 . S
O182 Zn174 1.905 . S
O182 C176 1.182 . S
O183 Zn174 1.898 . S
O183 C177 1.167 . S
O184 Zn175 2.120 . S
O184 C177 1.299 . S
O185 Zn173 1.898 . S
O185 C180 1.167 . S
O186 Zn175 2.120 . S
O186 C180 1.299 . S
O187 Zn175 2.114 . S
O187 C189 1.166 . S
O188 Zn173 1.905 . S
O188 C189 1.182 . S
C189 O187 1.166 . S
C189 O188 1.182 . S
O190 Zn175 2.080 . S
O190 C193 1.305 . S
O191 Zn174 1.920 . S
O191 C193 1.234 . S
C192 O178 1.305 . S
C192 O179 1.234 . S
C193 O190 1.305 . S
C193 O191 1.234 . S
Zn194 O200 1.920 . S
Zn194 O206 1.898 . S
Zn194 O209 1.905 1_455 S
Zn195 O203 1.905 . S
Zn195 O204 1.898 . S
Zn195 O212 1.920 1_655 S
Zn196 O199 2.080 . S
Zn196 O202 2.114 1_455 S
Zn196 O205 2.120 1_455 S
Zn196 O207 2.120 . S
Zn196 O208 2.114 1_455 S
Zn196 O211 2.080 . S
C197 O202 1.166 . S
C197 O203 1.182 . S
C198 O204 1.167 . S
C198 O205 1.299 . S
O199 Zn196 2.080 . S
O199 C213 1.305 . S
O200 Zn194 1.920 . S
O200 C213 1.234 . S
C201 O206 1.167 . S
C201 O207 1.299 . S
O202 Zn196 2.114 1_655 S
O202 C197 1.166 . S
O203 Zn195 1.905 . S
O203 C197 1.182 . S
O204 Zn195 1.898 . S
O204 C198 1.167 . S
O205 Zn196 2.120 1_655 S
O205 C198 1.299 . S
O206 Zn194 1.898 . S
O206 C201 1.167 . S
O207 Zn196 2.120 . S
O207 C201 1.299 . S
O208 Zn196 2.114 1_655 S
O208 C210 1.166 . S
O209 Zn194 1.905 1_655 S
O209 C210 1.182 . S
C210 O208 1.166 . S
C210 O209 1.182 . S
O211 Zn196 2.080 . S
O211 C214 1.305 . S
O212 Zn195 1.920 1_455 S
O212 C214 1.234 . S
C213 O199 1.305 . S
C213 O200 1.234 . S
C214 O211 1.305 . S
C214 O212 1.234 . S
Zn215 O221 1.920 . S
Zn215 O227 1.898 . S
Zn215 O230 1.905 . S
Zn216 O224 1.905 . S
Zn216 O225 1.898 . S
Zn216 O233 1.920 . S
Zn217 O220 2.080 . S
Zn217 O223 2.114 . S
Zn217 O226 2.120 . S
Zn217 O228 2.120 . S
Zn217 O229 2.114 . S
Zn217 O232 2.080 . S
C218 O223 1.166 . S
C218 O224 1.182 . S
C219 O225 1.167 . S
C219 O226 1.299 . S
O220 Zn217 2.080 . S
O220 C234 1.305 . S
O221 Zn215 1.920 . S
O221 C234 1.234 . S
C222 O227 1.167 . S
C222 O228 1.299 . S
O223 Zn217 2.114 . S
O223 C218 1.166 . S
O224 Zn216 1.905 . S
O224 C218 1.182 . S
O225 Zn216 1.898 . S
O225 C219 1.167 . S
O226 Zn217 2.120 . S
O226 C219 1.299 . S
O227 Zn215 1.898 . S
O227 C222 1.167 . S
O228 Zn217 2.120 . S
O228 C222 1.299 . S
O229 Zn217 2.114 . S
O229 C231 1.166 . S
O230 Zn215 1.905 . S
O230 C231 1.182 . S
C231 O229 1.166 . S
C231 O230 1.182 . S
O232 Zn217 2.080 . S
O232 C235 1.305 . S
O233 Zn216 1.920 . S
O233 C235 1.234 . S
C234 O220 1.305 . S
C234 O221 1.234 . S
C235 O232 1.305 . S
C235 O233 1.234 . S
C236 C237 1.349 . S
C236 C238 1.327 . S
C236 H261 0.950 . S
C237 C236 1.349 . S
C237 C253 1.349 . S
C238 C236 1.327 . S
C238 C257 1.429 . S
C238 H262 0.950 . S
C239 C256 1.574 . S
C239 C258 1.368 . S
C239 H263 0.949 . S
H240 C244 0.949 . S
C241 C242 1.349 . S
C241 C243 1.327 . S
C241 H264 0.950 . S
C242 C241 1.349 . S
C242 C254 1.349 . S
C243 C241 1.327 . S
C243 C259 1.429 1_545 S
C243 H265 0.950 . S
C244 H240 0.949 . S
C244 C252 1.574 . S
C244 C260 1.368 . S
H245 C253 0.950 . S
H246 C251 0.950 . S
H247 C252 0.949 . S
H248 C254 0.950 . S
H249 C255 0.950 . S
H250 C256 0.949 . S
C251 H246 0.950 . S
C251 C253 1.327 . S
C251 C257 1.429 . S
C252 C244 1.574 . S
C252 H247 0.949 . S
C252 C258 1.368 . S
C253 C237 1.349 . S
C253 H245 0.950 . S
C253 C251 1.327 . S
C254 C242 1.349 . S
C254 H248 0.950 . S
C254 C255 1.327 1_545 S
C255 H249 0.950 . S
C255 C254 1.327 1_565 S
C255 C259 1.429 . S
C256 C239 1.574 . S
C256 H250 0.949 . S
C256 C260 1.368 . S
C257 C238 1.429 . S
C257 C251 1.429 . S
C257 C258 1.523 . S
C258 C239 1.368 . S
C258 C252 1.368 . S
C258 C257 1.523 . S
C259 C243 1.429 1_565 S
C259 C255 1.429 . S
C259 C260 1.523 . S
C260 C244 1.368 . S
C260 C256 1.368 . S
C260 C259 1.523 . S
H261 C236 0.950 . S
H262 C238 0.950 . S
H263 C239 0.949 . S
H264 C241 0.950 . S
H265 C243 0.950 . S
C266 C267 1.349 . S
C266 C268 1.327 . S
C266 H291 0.950 . S
C267 C266 1.349 . S
C267 C283 1.349 . S
C268 C266 1.327 . S
C268 C287 1.429 . S
C268 H292 0.950 . S
C269 C286 1.574 . S
C269 C288 1.368 . S
C269 H293 0.949 . S
H270 C274 0.949 . S
C271 C272 1.349 . S
C271 C273 1.327 . S
C271 H294 0.950 . S
C272 C271 1.349 . S
C272 C284 1.349 . S
C273 C271 1.327 . S
C273 C289 1.429 . S
C273 H295 0.950 . S
C274 H270 0.949 . S
C274 C282 1.574 . S
C274 C290 1.368 . S
H275 C283 0.950 . S
H276 C281 0.950 . S
H277 C282 0.949 . S
H278 C284 0.950 . S
H279 C285 0.950 . S
H280 C286 0.949 . S
C281 H276 0.950 . S
C281 C283 1.327 . S
C281 C287 1.429 . S
C282 C274 1.574 . S
C282 H277 0.949 . S
C282 C288 1.368 . S
C283 C267 1.349 . S
C283 H275 0.950 . S
C283 C281 1.327 . S
C284 C272 1.349 . S
C284 H278 0.950 . S
C284 C285 1.327 . S
C285 H279 0.950 . S
C285 C284 1.327 . S
C285 C289 1.429 . S
C286 C269 1.574 . S
C286 H280 0.949 . S
C286 C290 1.368 . S
C287 C268 1.429 . S
C287 C281 1.429 . S
C287 C288 1.523 . S
C288 C269 1.368 . S
C288 C282 1.368 . S
C288 C287 1.523 . S
C289 C273 1.429 . S
C289 C285 1.429 . S
C289 C290 1.523 . S
C290 C274 1.368 . S
C290 C286 1.368 . S
C290 C289 1.523 . S
H291 C266 0.950 . S
H292 C268 0.950 . S
H293 C269 0.949 . S
H294 C271 0.950 . S
H295 C273 0.950 . S
C296 C297 1.349 . S
C296 C298 1.327 . S
C296 H321 0.950 . S
C297 C296 1.349 . S
C297 C313 1.349 . S
C298 C296 1.327 . S
C298 C317 1.429 . S
C298 H322 0.950 . S
C299 C316 1.574 . S
C299 C318 1.368 . S
C299 H323 0.949 . S
H300 C304 0.949 . S
C301 C302 1.349 . S
C301 C303 1.327 . S
C301 H324 0.950 . S
C302 C301 1.349 . S
C302 C314 1.349 . S
C303 C301 1.327 . S
C303 C319 1.429 . S
C303 H325 0.950 . S
C304 H300 0.949 . S
C304 C312 1.574 . S
C304 C320 1.368 . S
H305 C313 0.950 . S
H306 C311 0.950 . S
H307 C312 0.949 . S
H308 C314 0.950 . S
H309 C315 0.950 . S
H310 C316 0.949 . S
C311 H306 0.950 . S
C311 C313 1.327 . S
C311 C317 1.429 . S
C312 C304 1.574 . S
C312 H307 0.949 . S
C312 C318 1.368 . S
C313 C297 1.349 . S
C313 H305 0.950 . S
C313 C311 1.327 . S
C314 C302 1.349 . S
C314 H308 0.950 . S
C314 C315 1.327 . S
C315 H309 0.950 . S
C315 C314 1.327 . S
C315 C319 1.429 . S
C316 C299 1.574 . S
C316 H310 0.949 . S
C316 C320 1.368 . S
C317 C298 1.429 . S
C317 C311 1.429 . S
C317 C318 1.523 . S
C318 C299 1.368 . S
C318 C312 1.368 . S
C318 C317 1.523 . S
C319 C303 1.429 . S
C319 C315 1.429 . S
C319 C320 1.523 . S
C320 C304 1.368 . S
C320 C316 1.368 . S
C320 C319 1.523 . S
H321 C296 0.950 . S
H322 C298 0.950 . S
H323 C299 0.949 . S
H324 C301 0.950 . S
H325 C303 0.950 . S
C326 C327 1.349 . S
C326 C328 1.327 . S
C326 H351 0.950 . S
C327 C326 1.349 . S
C327 C343 1.349 . S
C328 C326 1.327 . S
C328 C347 1.429 . S
C328 H352 0.950 . S
C329 C346 1.574 . S
C329 C348 1.368 . S
C329 H353 0.949 . S
H330 C334 0.949 . S
C331 C332 1.349 . S
C331 C333 1.327 . S
C331 H354 0.950 . S
C332 C331 1.349 . S
C332 C344 1.349 . S
C333 C331 1.327 . S
C333 C349 1.429 1_545 S
C333 H355 0.950 . S
C334 H330 0.949 . S
C334 C342 1.574 . S
C334 C350 1.368 . S
H335 C343 0.950 . S
H336 C341 0.950 . S
H337 C342 0.949 . S
H338 C344 0.950 . S
H339 C345 0.950 . S
H340 C346 0.949 . S
C341 H336 0.950 . S
C341 C343 1.327 . S
C341 C347 1.429 . S
C342 C334 1.574 . S
C342 H337 0.949 . S
C342 C348 1.368 . S
C343 C327 1.349 . S
C343 H335 0.950 . S
C343 C341 1.327 . S
C344 C332 1.349 . S
C344 H338 0.950 . S
C344 C345 1.327 1_545 S
C345 H339 0.950 . S
C345 C344 1.327 1_565 S
C345 C349 1.429 . S
C346 C329 1.574 . S
C346 H340 0.949 . S
C346 C350 1.368 . S
C347 C328 1.429 . S
C347 C341 1.429 . S
C347 C348 1.523 . S
C348 C329 1.368 . S
C348 C342 1.368 . S
C348 C347 1.523 . S
C349 C333 1.429 1_565 S
C349 C345 1.429 . S
C349 C350 1.523 . S
C350 C334 1.368 . S
C350 C346 1.368 . S
C350 C349 1.523 . S
H351 C326 0.950 . S
H352 C328 0.950 . S
H353 C329 0.949 . S
H354 C331 0.950 . S
H355 C333 0.950 . S
C356 C357 1.349 . S
C356 C358 1.327 . S
C356 H381 0.950 . S
C357 C356 1.349 . S
C357 C373 1.349 . S
C358 C356 1.327 . S
C358 C377 1.429 . S
C358 H382 0.950 . S
C359 C376 1.574 . S
C359 C378 1.368 . S
C359 H383 0.949 . S
H360 C364 0.949 . S
C361 C362 1.349 . S
C361 C363 1.327 . S
C361 H384 0.950 . S
C362 C361 1.349 . S
C362 C374 1.349 . S
C363 C361 1.327 . S
C363 C379 1.429 1_565 S
C363 H385 0.950 1_565 S
C364 H360 0.949 . S
C364 C372 1.574 . S
C364 C380 1.368 . S
H365 C373 0.950 . S
H366 C371 0.950 . S
H367 C372 0.949 . S
H368 C374 0.950 . S
H369 C375 0.950 . S
H370 C376 0.949 . S
C371 H366 0.950 . S
C371 C373 1.327 . S
C371 C377 1.429 . S
C372 C364 1.574 . S
C372 H367 0.949 . S
C372 C378 1.368 . S
C373 C357 1.349 . S
C373 H365 0.950 . S
C373 C371 1.327 . S
C374 C362 1.349 . S
C374 H368 0.950 . S
C374 C375 1.327 . S
C375 H369 0.950 . S
C375 C374 1.327 . S
C375 C379 1.429 1_565 S
C376 C359 1.574 . S
C376 H370 0.949 . S
C376 C380 1.368 . S
C377 C358 1.429 . S
C377 C371 1.429 . S
C377 C378 1.523 . S
C378 C359 1.368 . S
C378 C372 1.368 . S
C378 C377 1.523 . S
C379 C363 1.429 1_545 S
C379 C375 1.429 1_545 S
C379 C380 1.523 . S
C380 C364 1.368 . S
C380 C376 1.368 . S
C380 C379 1.523 . S
H381 C356 0.950 . S
H382 C358 0.950 . S
H383 C359 0.949 . S
H384 C361 0.950 . S
H385 C363 0.950 1_545 S
C386 C387 1.349 . S
C386 C388 1.327 . S
C386 H411 0.950 . S
C387 C386 1.349 . S
C387 C403 1.349 . S
C388 C386 1.327 . S
C388 C407 1.429 . S
C388 H412 0.950 . S
C389 C406 1.574 . S
C389 C408 1.368 . S
C389 H413 0.949 . S
H390 C394 0.949 . S
C391 C392 1.349 . S
C391 C393 1.327 . S
C391 H414 0.950 . S
C392 C391 1.349 . S
C392 C404 1.349 . S
C393 C391 1.327 . S
C393 C409 1.429 . S
C393 H415 0.950 . S
C394 H390 0.949 . S
C394 C402 1.574 . S
C394 C410 1.368 . S
H395 C403 0.950 . S
H396 C401 0.950 . S
H397 C402 0.949 . S
H398 C404 0.950 . S
H399 C405 0.950 . S
H400 C406 0.949 . S
C401 H396 0.950 . S
C401 C403 1.327 . S
C401 C407 1.429 . S
C402 C394 1.574 . S
C402 H397 0.949 . S
C402 C408 1.368 . S
C403 C387 1.349 . S
C403 H395 0.950 . S
C403 C401 1.327 . S
C404 C392 1.349 . S
C404 H398 0.950 . S
C404 C405 1.327 . S
C405 H399 0.950 . S
C405 C404 1.327 . S
C405 C409 1.429 . S
C406 C389 1.574 . S
C406 H400 0.949 . S
C406 C410 1.368 . S
C407 C388 1.429 . S
C407 C401 1.429 . S
C407 C408 1.523 . S
C408 C389 1.368 . S
C408 C402 1.368 . S
C408 C407 1.523 . S
C409 C393 1.429 . S
C409 C405 1.429 . S
C409 C410 1.523 . S
C410 C394 1.368 . S
C410 C406 1.368 . S
C410 C409 1.523 . S
H411 C386 0.950 . S
H412 C388 0.950 . S
H413 C389 0.949 . S
H414 C391 0.950 . S
H415 C393 0.950 . S
C416 C417 1.349 . S
C416 C418 1.327 . S
C416 H441 0.950 . S
C417 C416 1.349 . S
C417 C433 1.349 . S
C418 C416 1.327 . S
C418 C437 1.429 . S
C418 H442 0.950 . S
C419 C436 1.574 . S
C419 C438 1.368 . S
C419 H443 0.949 . S
H420 C424 0.949 . S
C421 C422 1.349 . S
C421 C423 1.327 . S
C421 H444 0.950 . S
C422 C421 1.349 . S
C422 C434 1.349 . S
C423 C421 1.327 . S
C423 C439 1.429 . S
C423 H445 0.950 . S
C424 H420 0.949 . S
C424 C432 1.574 . S
C424 C440 1.368 . S
H425 C433 0.950 . S
H426 C431 0.950 . S
H427 C432 0.949 . S
H428 C434 0.950 . S
H429 C435 0.950 . S
H430 C436 0.949 . S
C431 H426 0.950 . S
C431 C433 1.327 . S
C431 C437 1.429 . S
C432 C424 1.574 . S
C432 H427 0.949 . S
C432 C438 1.368 . S
C433 C417 1.349 . S
C433 H425 0.950 . S
C433 C431 1.327 . S
C434 C422 1.349 . S
C434 H428 0.950 . S
C434 C435 1.327 . S
C435 H429 0.950 . S
C435 C434 1.327 . S
C435 C439 1.429 . S
C436 C419 1.574 . S
C436 H430 0.949 . S
C436 C440 1.368 . S
C437 C418 1.429 . S
C437 C431 1.429 . S
C437 C438 1.523 . S
C438 C419 1.368 . S
C438 C432 1.368 . S
C438 C437 1.523 . S
C439 C423 1.429 . S
C439 C435 1.429 . S
C439 C440 1.523 . S
C440 C424 1.368 . S
C440 C436 1.368 . S
C440 C439 1.523 . S
H441 C416 0.950 . S
H442 C418 0.950 . S
H443 C419 0.949 . S
H444 C421 0.950 . S
H445 C423 0.950 . S
C446 C447 1.349 . S
C446 C448 1.327 . S
C446 H471 0.950 . S
C447 C446 1.349 . S
C447 C463 1.349 . S
C448 C446 1.327 . S
C448 C467 1.429 . S
C448 H472 0.950 . S
C449 C466 1.574 . S
C449 C468 1.368 . S
C449 H473 0.949 . S
H450 C454 0.949 . S
C451 C452 1.349 . S
C451 C453 1.327 . S
C451 H474 0.950 . S
C452 C451 1.349 . S
C452 C464 1.349 . S
C453 C451 1.327 . S
C453 C469 1.429 1_565 S
C453 H475 0.950 . S
C454 H450 0.949 . S
C454 C462 1.574 . S
C454 C470 1.368 . S
H455 C463 0.950 . S
H456 C461 0.950 . S
H457 C462 0.949 . S
H458 C464 0.950 . S
H459 C465 0.950 . S
H460 C466 0.949 . S
C461 H456 0.950 . S
C461 C463 1.327 . S
C461 C467 1.429 . S
C462 C454 1.574 . S
C462 H457 0.949 . S
C462 C468 1.368 . S
C463 C447 1.349 . S
C463 H455 0.950 . S
C463 C461 1.327 . S
C464 C452 1.349 . S
C464 H458 0.950 . S
C464 C465 1.327 1_565 S
C465 H459 0.950 . S
C465 C464 1.327 1_545 S
C465 C469 1.429 . S
C466 C449 1.574 . S
C466 H460 0.949 . S
C466 C470 1.368 . S
C467 C448 1.429 . S
C467 C461 1.429 . S
C467 C468 1.523 . S
C468 C449 1.368 . S
C468 C462 1.368 . S
C468 C467 1.523 . S
C469 C453 1.429 1_545 S
C469 C465 1.429 . S
C469 C470 1.523 . S
C470 C454 1.368 . S
C470 C466 1.368 . S
C470 C469 1.523 . S
H471 C446 0.950 . S
H472 C448 0.950 . S
H473 C449 0.949 . S
H474 C451 0.950 . S
H475 C453 0.950 . S
C476 C477 1.349 . S
C476 C478 1.327 . S
C476 H501 0.950 . S
C477 C476 1.349 . S
C477 C493 1.349 . S
C478 C476 1.327 . S
C478 C497 1.429 1_556 S
C478 H502 0.950 . S
C479 C496 1.574 . S
C479 C498 1.368 . S
C479 H503 0.949 . S
H480 C484 0.949 . S
C481 C482 1.349 . S
C481 C483 1.327 . S
C481 H504 0.950 . S
C482 C481 1.349 . S
C482 C494 1.349 . S
C483 C481 1.327 . S
C483 C499 1.429 . S
C483 H505 0.950 . S
C484 H480 0.949 . S
C484 C492 1.574 . S
C484 C500 1.368 . S
H485 C493 0.950 . S
H486 C491 0.940 1_554 S
H487 C492 0.949 . S
H488 C494 0.950 . S
H489 C495 0.950 . S
H490 C496 0.949 . S
C491 H486 0.940 1_556 S
C491 C493 1.344 . S
C491 C497 1.422 1_556 S
C492 C484 1.574 . S
C492 H487 0.949 . S
C492 C498 1.368 . S
C493 C477 1.349 . S
C493 H485 0.950 . S
C493 C491 1.344 . S
C494 C482 1.349 . S
C494 H488 0.950 . S
C494 C495 1.327 . S
C495 H489 0.950 . S
C495 C494 1.327 . S
C495 C499 1.429 . S
C496 C479 1.574 . S
C496 H490 0.949 . S
C496 C500 1.368 . S
C497 C478 1.429 1_554 S
C497 C491 1.422 1_554 S
C497 C498 1.523 . S
C498 C479 1.368 . S
C498 C492 1.368 . S
C498 C497 1.523 . S
C499 C483 1.429 . S
C499 C495 1.429 . S
C499 C500 1.523 . S
C500 C484 1.368 . S
C500 C496 1.368 . S
C500 C499 1.523 . S
H501 C476 0.950 . S
H502 C478 0.950 . S
H503 C479 0.949 . S
H504 C481 0.950 . S
H505 C483 0.950 . S
C506 C507 1.349 . S
C506 C508 1.327 . S
C506 H531 0.950 . S
C507 C506 1.349 . S
C507 C523 1.349 . S
C508 C506 1.327 . S
C508 C527 1.429 . S
C508 H532 0.950 . S
C509 C526 1.574 . S
C509 C528 1.368 . S
C509 H533 0.949 . S
H510 C514 0.949 . S
C511 C512 1.349 . S
C511 C513 1.327 . S
C511 H534 0.950 . S
C512 C511 1.349 . S
C512 C524 1.349 . S
C513 C511 1.327 . S
C513 C529 1.429 . S
C513 H535 0.950 . S
C514 H510 0.949 . S
C514 C522 1.574 . S
C514 C530 1.368 . S
H515 C523 0.950 . S
H516 C521 0.950 . S
H517 C522 0.949 . S
H518 C524 0.950 . S
H519 C525 0.950 . S
H520 C526 0.949 . S
C521 H516 0.950 . S
C521 C523 1.327 . S
C521 C527 1.429 . S
C522 C514 1.574 . S
C522 H517 0.949 . S
C522 C528 1.368 . S
C523 C507 1.349 . S
C523 H515 0.950 . S
C523 C521 1.327 . S
C524 C512 1.349 . S
C524 H518 0.950 . S
C524 C525 1.327 . S
C525 H519 0.950 . S
C525 C524 1.327 . S
C525 C529 1.429 . S
C526 C509 1.574 . S
C526 H520 0.949 . S
C526 C530 1.368 . S
C527 C508 1.429 . S
C527 C521 1.429 . S
C527 C528 1.523 . S
C528 C509 1.368 . S
C528 C522 1.368 . S
C528 C527 1.523 . S
C529 C513 1.429 . S
C529 C525 1.429 . S
C529 C530 1.523 . S
C530 C514 1.368 . S
C530 C526 1.368 . S
C530 C529 1.523 . S
H531 C506 0.950 . S
H532 C508 0.950 . S
H533 C509 0.949 . S
H534 C511 0.950 . S
H535 C513 0.950 . S
C536 C537 1.349 . S
C536 C538 1.327 . S
C536 H561 0.950 . S
C537 C536 1.349 . S
C537 C553 1.349 . S
C538 C536 1.327 . S
C538 C557 1.429 1_554 S
C538 H562 0.950 1_554 S
C539 C556 1.574 . S
C539 C558 1.368 . S
C539 H563 0.949 . S
H540 C544 0.949 . S
C541 C542 1.349 . S
C541 C543 1.327 . S
C541 H564 0.950 . S
C542 C541 1.349 . S
C542 C554 1.349 . S
C543 C541 1.327 . S
C543 C559 1.429 . S
C543 H565 0.950 . S
C544 H540 0.949 . S
C544 C552 1.574 . S
C544 C560 1.368 . S
H545 C553 0.950 . S
H546 C551 0.950 . S
H547 C552 0.949 . S
H548 C554 0.950 . S
H549 C555 0.950 . S
H550 C556 0.949 . S
C551 H546 0.950 . S
C551 C553 1.327 . S
C551 C557 1.429 1_554 S
C552 C544 1.574 . S
C552 H547 0.949 . S
C552 C558 1.368 . S
C553 C537 1.349 . S
C553 H545 0.950 . S
C553 C551 1.327 . S
C554 C542 1.349 . S
C554 H548 0.950 . S
C554 C555 1.327 . S
C555 H549 0.950 . S
C555 C554 1.327 . S
C555 C559 1.429 . S
C556 C539 1.574 . S
C556 H550 0.949 . S
C556 C560 1.368 . S
C557 C538 1.429 1_556 S
C557 C551 1.429 1_556 S
C557 C558 1.523 . S
C558 C539 1.368 . S
C558 C552 1.368 . S
C558 C557 1.523 . S
C559 C543 1.429 . S
C559 C555 1.429 . S
C559 C560 1.523 . S
C560 C544 1.368 . S
C560 C556 1.368 . S
C560 C559 1.523 . S
H561 C536 0.950 . S
H562 C538 0.950 1_556 S
H563 C539 0.949 . S
H564 C541 0.950 . S
H565 C543 0.950 . S
C566 C567 1.349 . S
C566 C568 1.327 . S
C566 H591 0.950 . S
C567 C566 1.349 . S
C567 C583 1.349 . S
C568 C566 1.327 . S
C568 C587 1.429 . S
C568 H592 0.950 . S
C569 C586 1.574 . S
C569 C588 1.368 . S
C569 H593 0.949 . S
H570 C574 0.949 . S
C571 C572 1.349 . S
C571 C573 1.327 . S
C571 H594 0.950 . S
C572 C571 1.349 . S
C572 C584 1.349 . S
C573 C571 1.327 . S
C573 C589 1.429 . S
C573 H595 0.950 . S
C574 H570 0.949 . S
C574 C582 1.574 . S
C574 C590 1.368 . S
H575 C583 0.950 . S
H576 C581 0.950 . S
H577 C582 0.949 . S
H578 C584 0.950 . S
H579 C585 0.950 . S
H580 C586 0.949 . S
C581 H576 0.950 . S
C581 C583 1.327 . S
C581 C587 1.429 . S
C582 C574 1.574 . S
C582 H577 0.949 . S
C582 C588 1.368 . S
C583 C567 1.349 . S
C583 H575 0.950 . S
C583 C581 1.327 . S
C584 C572 1.349 . S
C584 H578 0.950 . S
C584 C585 1.327 . S
C585 H579 0.950 . S
C585 C584 1.327 . S
C585 C589 1.429 . S
C586 C569 1.574 . S
C586 H580 0.949 . S
C586 C590 1.368 . S
C587 C568 1.429 . S
C587 C581 1.429 . S
C587 C588 1.523 . S
C588 C569 1.368 . S
C588 C582 1.368 . S
C588 C587 1.523 . S
C589 C573 1.429 . S
C589 C585 1.429 . S
C589 C590 1.523 . S
C590 C574 1.368 . S
C590 C586 1.368 . S
C590 C589 1.523 . S
H591 C566 0.950 . S
H592 C568 0.950 . S
H593 C569 0.949 . S
H594 C571 0.950 . S
H595 C573 0.950 . S
C596 C597 1.349 . S
C596 C598 1.327 1_554 S
C596 H621 0.950 . S
C597 C596 1.349 . S
C597 C613 1.349 . S
C598 C596 1.327 1_556 S
C598 C617 1.429 . S
C598 H622 0.950 . S
C599 C616 1.574 . S
C599 C618 1.368 . S
C599 H623 0.949 . S
H600 C604 0.949 . S
C601 C602 1.349 . S
C601 C603 1.327 . S
C601 H624 0.950 . S
C602 C601 1.349 . S
C602 C614 1.349 . S
C603 C601 1.327 . S
C603 C619 1.429 . S
C603 H625 0.950 . S
C604 H600 0.949 . S
C604 C612 1.574 . S
C604 C620 1.368 . S
H605 C613 0.950 . S
H606 C611 0.950 . S
H607 C612 0.949 . S
H608 C614 0.950 . S
H609 C615 0.950 . S
H610 C616 0.949 . S
C611 H606 0.950 . S
C611 C613 1.327 . S
C611 C617 1.429 1_554 S
C612 C604 1.574 . S
C612 H607 0.949 . S
C612 C618 1.368 . S
C613 C597 1.349 . S
C613 H605 0.950 . S
C613 C611 1.327 . S
C614 C602 1.349 . S
C614 H608 0.950 . S
C614 C615 1.327 . S
C615 H609 0.950 . S
C615 C614 1.327 . S
C615 C619 1.429 . S
C616 C599 1.574 . S
C616 H610 0.949 . S
C616 C620 1.368 . S
C617 C598 1.429 . S
C617 C611 1.429 1_556 S
C617 C618 1.523 . S
C618 C599 1.368 . S
C618 C612 1.368 . S
C618 C617 1.523 . S
C619 C603 1.429 . S
C619 C615 1.429 . S
C619 C620 1.523 . S
C620 C604 1.368 . S
C620 C616 1.368 . S
C620 C619 1.523 . S
H621 C596 0.950 . S
H622 C598 0.950 . S
H623 C599 0.949 . S
H624 C601 0.950 . S
H625 C603 0.950 . S
C626 C627 1.349 . S
C626 C628 1.327 . S
C626 H651 0.950 . S
C627 C626 1.349 . S
C627 C643 1.349 . S
C628 C626 1.327 . S
C628 C647 1.429 . S
C628 H652 0.950 . S
C629 C646 1.574 . S
C629 C648 1.368 . S
C629 H653 0.949 . S
H630 C634 0.949 . S
C631 C632 1.349 . S
C631 C633 1.327 . S
C631 H654 0.950 . S
C632 C631 1.349 . S
C632 C644 1.349 . S
C633 C631 1.327 . S
C633 C649 1.429 . S
C633 H655 0.950 . S
C634 H630 0.949 . S
C634 C642 1.574 . S
C634 C650 1.368 . S
H635 C643 0.950 . S
H636 C641 0.950 . S
H637 C642 0.949 . S
H638 C644 0.950 . S
H639 C645 0.950 . S
H640 C646 0.949 . S
C641 H636 0.950 . S
C641 C643 1.327 . S
C641 C647 1.429 . S
C642 C634 1.574 . S
C642 H637 0.949 . S
C642 C648 1.368 . S
C643 C627 1.349 . S
C643 H635 0.950 . S
C643 C641 1.327 . S
C644 C632 1.349 . S
C644 H638 0.950 . S
C644 C645 1.327 . S
C645 H639 0.950 . S
C645 C644 1.327 . S
C645 C649 1.429 . S
C646 C629 1.574 . S
C646 H640 0.949 . S
C646 C650 1.368 . S
C647 C628 1.429 . S
C647 C641 1.429 . S
C647 C648 1.523 . S
C648 C629 1.368 . S
C648 C642 1.368 . S
C648 C647 1.523 . S
C649 C633 1.429 . S
C649 C645 1.429 . S
C649 C650 1.523 . S
C650 C634 1.368 . S
C650 C646 1.368 . S
C650 C649 1.523 . S
H651 C626 0.950 . S
H652 C628 0.950 . S
H653 C629 0.949 . S
H654 C631 0.950 . S
H655 C633 0.950 . S
C656 C657 1.349 . S
C656 C658 1.327 . S
C656 H681 0.950 . S
C657 C656 1.349 . S
C657 C673 1.349 . S
C658 C656 1.327 . S
C658 C677 1.429 1_556 S
C658 H682 0.950 . S
C659 C676 1.574 . S
C659 C678 1.368 . S
C659 H683 0.949 . S
H660 C664 0.949 . S
C661 C662 1.349 . S
C661 C663 1.327 . S
C661 H684 0.950 . S
C662 C661 1.349 . S
C662 C674 1.349 . S
C663 C661 1.327 . S
C663 C679 1.429 . S
C663 H685 0.950 . S
C664 H660 0.949 . S
C664 C672 1.574 . S
C664 C680 1.368 . S
H665 C673 0.950 . S
H666 C671 0.950 . S
H667 C672 0.949 . S
H668 C674 0.950 . S
H669 C675 0.950 . S
H670 C676 0.949 . S
C671 H666 0.950 . S
C671 C673 1.327 1_554 S
C671 C677 1.429 . S
C672 C664 1.574 . S
C672 H667 0.949 . S
C672 C678 1.368 . S
C673 C657 1.349 . S
C673 H665 0.950 . S
C673 C671 1.327 1_556 S
C674 C662 1.349 . S
C674 H668 0.950 . S
C674 C675 1.327 . S
C675 H669 0.950 . S
C675 C674 1.327 . S
C675 C679 1.429 . S
C676 C659 1.574 . S
C676 H670 0.949 . S
C676 C680 1.368 . S
C677 C658 1.429 1_554 S
C677 C671 1.429 . S
C677 C678 1.523 . S
C678 C659 1.368 . S
C678 C672 1.368 . S
C678 C677 1.523 . S
C679 C663 1.429 . S
C679 C675 1.429 . S
C679 C680 1.523 . S
C680 C664 1.368 . S
C680 C676 1.368 . S
C680 C679 1.523 . S
H681 C656 0.950 . S
H682 C658 0.950 . S
H683 C659 0.949 . S
H684 C661 0.950 . S
H685 C663 0.950 . S
C686 C687 1.349 . S
C686 C688 1.327 . S
C686 H711 0.950 . S
C687 C686 1.349 . S
C687 C703 1.349 . S
C688 C686 1.327 . S
C688 C707 1.429 . S
C688 H712 0.950 . S
C689 C706 1.574 . S
C689 C708 1.368 . S
C689 H713 0.949 . S
H690 C694 0.949 . S
C691 C692 1.349 . S
C691 C693 1.327 . S
C691 H714 0.950 . S
C692 C691 1.349 . S
C692 C704 1.349 . S
C693 C691 1.327 . S
C693 C709 1.429 . S
C693 H715 0.950 . S
C694 H690 0.949 . S
C694 C702 1.574 . S
C694 C710 1.368 . S
H695 C703 0.950 . S
H696 C701 0.950 . S
H697 C702 0.949 . S
H698 C704 0.950 . S
H699 C705 0.950 . S
H700 C706 0.949 . S
C701 H696 0.950 . S
C701 C703 1.327 . S
C701 C707 1.429 . S
C702 C694 1.574 . S
C702 H697 0.949 . S
C702 C708 1.368 . S
C703 C687 1.349 . S
C703 H695 0.950 . S
C703 C701 1.327 . S
C704 C692 1.349 . S
C704 H698 0.950 . S
C704 C705 1.327 . S
C705 H699 0.950 . S
C705 C704 1.327 . S
C705 C709 1.429 . S
C706 C689 1.574 . S
C706 H700 0.949 . S
C706 C710 1.368 . S
C707 C688 1.429 . S
C707 C701 1.429 . S
C707 C708 1.523 . S
C708 C689 1.368 . S
C708 C702 1.368 . S
C708 C707 1.523 . S
C709 C693 1.429 . S
C709 C705 1.429 . S
C709 C710 1.523 . S
C710 C694 1.368 . S
C710 C706 1.368 . S
C710 C709 1.523 . S
H711 C686 0.950 . S
H712 C688 0.950 . S
H713 C689 0.949 . S
H714 C691 0.950 . S
H715 C693 0.950 . S
C716 C717 1.349 . S
C716 C718 1.327 . S
C716 H741 0.950 . S
C717 C716 1.349 . S
C717 C733 1.349 . S
C718 C716 1.327 . S
C718 C737 1.429 . S
C718 H742 0.950 . S
C719 C736 1.574 . S
C719 C738 1.368 . S
C719 H743 0.949 . S
H720 C724 0.949 . S
C721 C722 1.349 . S
C721 C723 1.327 . S
C721 H744 0.950 . S
C722 C721 1.349 . S
C722 C734 1.349 . S
C723 C721 1.327 . S
C723 C739 1.429 . S
C723 H745 0.950 . S
C724 H720 0.949 . S
C724 C732 1.574 . S
C724 C740 1.368 . S
H725 C733 0.950 . S
H726 C731 0.950 . S
H727 C732 0.949 . S
H728 C734 0.950 . S
H729 C735 0.950 . S
H730 C736 0.949 . S
C731 H726 0.950 . S
C731 C733 1.327 . S
C731 C737 1.429 . S
C732 C724 1.574 . S
C732 H727 0.949 . S
C732 C738 1.368 . S
C733 C717 1.349 . S
C733 H725 0.950 . S
C733 C731 1.327 . S
C734 C722 1.349 . S
C734 H728 0.950 . S
C734 C735 1.327 . S
C735 H729 0.950 . S
C735 C734 1.327 . S
C735 C739 1.429 . S
C736 C719 1.574 . S
C736 H730 0.949 . S
C736 C740 1.368 . S
C737 C718 1.429 . S
C737 C731 1.429 . S
C737 C738 1.523 . S
C738 C719 1.368 . S
C738 C732 1.368 . S
C738 C737 1.523 . S
C739 C723 1.429 . S
C739 C735 1.429 . S
C739 C740 1.523 . S
C740 C724 1.368 . S
C740 C736 1.368 . S
C740 C739 1.523 . S
H741 C716 0.950 . S
H742 C718 0.950 . S
H743 C719 0.949 . S
H744 C721 0.950 . S
H745 C723 0.950 . S
C746 C747 1.349 . S
C746 C748 1.327 . S
C746 H771 0.950 . S
C747 C746 1.349 . S
C747 C763 1.349 . S
C748 C746 1.327 . S
C748 C767 1.429 . S
C748 H772 0.950 . S
C749 C766 1.574 . S
C749 C768 1.368 . S
C749 H773 0.949 . S
H750 C754 0.949 . S
C751 C752 1.349 . S
C751 C753 1.327 . S
C751 H774 0.950 . S
C752 C751 1.349 . S
C752 C764 1.349 . S
C753 C751 1.327 . S
C753 C769 1.429 . S
C753 H775 0.950 . S
C754 H750 0.949 . S
C754 C762 1.574 . S
C754 C770 1.368 . S
H755 C763 0.950 . S
H756 C761 0.950 . S
H757 C762 0.949 . S
H758 C764 0.950 . S
H759 C765 0.950 . S
H760 C766 0.949 . S
C761 H756 0.950 . S
C761 C763 1.327 . S
C761 C767 1.429 . S
C762 C754 1.574 . S
C762 H757 0.949 . S
C762 C768 1.368 . S
C763 C747 1.349 . S
C763 H755 0.950 . S
C763 C761 1.327 . S
C764 C752 1.349 . S
C764 H758 0.950 . S
C764 C765 1.327 . S
C765 H759 0.950 . S
C765 C764 1.327 . S
C765 C769 1.429 . S
C766 C749 1.574 . S
C766 H760 0.949 . S
C766 C770 1.368 . S
C767 C748 1.429 . S
C767 C761 1.429 . S
C767 C768 1.523 . S
C768 C749 1.368 . S
C768 C762 1.368 . S
C768 C767 1.523 . S
C769 C753 1.429 . S
C769 C765 1.429 . S
C769 C770 1.523 . S
C770 C754 1.368 . S
C770 C766 1.368 . S
C770 C769 1.523 . S
H771 C746 0.950 . S
H772 C748 0.950 . S
H773 C749 0.949 . S
H774 C751 0.950 . S
H775 C753 0.950 . S
C776 C777 1.349 . S
C776 C778 1.327 . S
C776 H801 0.950 . S
C777 C776 1.349 . S
C777 C793 1.349 . S
C778 C776 1.327 . S
C778 C797 1.429 . S
C778 H802 0.950 . S
C779 C796 1.574 . S
C779 C798 1.368 . S
C779 H803 0.949 . S
H780 C784 0.949 . S
C781 C782 1.349 . S
C781 C783 1.327 . S
C781 H804 0.950 . S
C782 C781 1.349 . S
C782 C794 1.349 . S
C783 C781 1.327 . S
C783 C799 1.429 . S
C783 H805 0.950 . S
C784 H780 0.949 . S
C784 C792 1.574 . S
C784 C800 1.368 . S
H785 C793 0.950 . S
H786 C791 0.950 . S
H787 C792 0.949 . S
H788 C794 0.950 . S
H789 C795 0.950 . S
H790 C796 0.949 . S
C791 H786 0.950 . S
C791 C793 1.327 . S
C791 C797 1.429 . S
C792 C784 1.574 . S
C792 H787 0.949 . S
C792 C798 1.368 . S
C793 C777 1.349 . S
C793 H785 0.950 . S
C793 C791 1.327 . S
C794 C782 1.349 . S
C794 H788 0.950 . S
C794 C795 1.327 . S
C795 H789 0.950 . S
C795 C794 1.327 . S
C795 C799 1.429 . S
C796 C779 1.574 . S
C796 H790 0.949 . S
C796 C800 1.368 . S
C797 C778 1.429 . S
C797 C791 1.429 . S
C797 C798 1.523 . S
C798 C779 1.368 . S
C798 C792 1.368 . S
C798 C797 1.523 . S
C799 C783 1.429 . S
C799 C795 1.429 . S
C799 C800 1.523 . S
C800 C784 1.368 . S
C800 C796 1.368 . S
C800 C799 1.523 . S
H801 C776 0.950 . S
H802 C778 0.950 . S
H803 C779 0.949 . S
H804 C781 0.950 . S
H805 C783 0.950 . S
C806 C807 1.349 . S
C806 C808 1.327 . S
C806 H831 0.950 . S
C807 C806 1.349 . S
C807 C823 1.349 . S
C808 C806 1.327 . S
C808 C827 1.429 . S
C808 H832 0.950 . S
C809 C826 1.574 . S
C809 C828 1.368 . S
C809 H833 0.949 . S
H810 C814 0.949 . S
C811 C812 1.349 . S
C811 C813 1.327 . S
C811 H834 0.950 . S
C812 C811 1.349 . S
C812 C824 1.349 . S
C813 C811 1.327 . S
C813 C829 1.429 . S
C813 H835 0.950 . S
C814 H810 0.949 . S
C814 C822 1.574 . S
C814 C830 1.368 . S
H815 C823 0.950 . S
H816 C821 0.950 . S
H817 C822 0.949 . S
H818 C824 0.950 . S
H819 C825 0.950 . S
H820 C826 0.949 . S
C821 H816 0.950 . S
C821 C823 1.327 . S
C821 C827 1.429 . S
C822 C814 1.574 . S
C822 H817 0.949 . S
C822 C828 1.368 . S
C823 C807 1.349 . S
C823 H815 0.950 . S
C823 C821 1.327 . S
C824 C812 1.349 . S
C824 H818 0.950 . S
C824 C825 1.327 . S
C825 H819 0.950 . S
C825 C824 1.327 . S
C825 C829 1.429 . S
C826 C809 1.574 . S
C826 H820 0.949 . S
C826 C830 1.368 . S
C827 C808 1.429 . S
C827 C821 1.429 . S
C827 C828 1.523 . S
C828 C809 1.368 . S
C828 C822 1.368 . S
C828 C827 1.523 . S
C829 C813 1.429 . S
C829 C825 1.429 . S
C829 C830 1.523 . S
C830 C814 1.368 . S
C830 C826 1.368 . S
C830 C829 1.523 . S
H831 C806 0.950 . S
H832 C808 0.950 . S
H833 C809 0.949 . S
H834 C811 0.950 . S
H835 C813 0.950 . S
C836 C837 1.349 . S
C836 C838 1.327 . S
C836 H861 0.950 . S
C837 C836 1.349 . S
C837 C853 1.349 . S
C838 C836 1.327 . S
C838 C857 1.429 . S
C838 H862 0.950 . S
C839 C856 1.574 . S
C839 C858 1.368 . S
C839 H863 0.949 . S
H840 C844 0.949 . S
C841 C842 1.349 . S
C841 C843 1.327 . S
C841 H864 0.950 . S
C842 C841 1.349 . S
C842 C854 1.349 . S
C843 C841 1.327 . S
C843 C859 1.429 . S
C843 H865 0.950 . S
C844 H840 0.949 . S
C844 C852 1.574 . S
C844 C860 1.368 . S
H845 C853 0.950 . S
H846 C851 0.950 . S
H847 C852 0.949 . S
H848 C854 0.950 . S
H849 C855 0.950 . S
H850 C856 0.949 . S
C851 H846 0.950 . S
C851 C853 1.327 . S
C851 C857 1.429 . S
C852 C844 1.574 . S
C852 H847 0.949 . S
C852 C858 1.368 . S
C853 C837 1.349 . S
C853 H845 0.950 . S
C853 C851 1.327 . S
C854 C842 1.349 . S
C854 H848 0.950 . S
C854 C855 1.327 . S
C855 H849 0.950 . S
C855 C854 1.327 . S
C855 C859 1.429 . S
C856 C839 1.574 . S
C856 H850 0.949 . S
C856 C860 1.368 . S
C857 C838 1.429 . S
C857 C851 1.429 . S
C857 C858 1.523 . S
C858 C839 1.368 . S
C858 C852 1.368 . S
C858 C857 1.523 . S
C859 C843 1.429 . S
C859 C855 1.429 . S
C859 C860 1.523 . S
C860 C844 1.368 . S
C860 C856 1.368 . S
C860 C859 1.523 . S
H861 C836 0.950 . S
H862 C838 0.950 . S
H863 C839 0.949 . S
H864 C841 0.950 . S
H865 C843 0.950 . S
C866 C867 1.349 . S
C866 C868 1.327 . S
C866 H891 0.950 . S
C867 C866 1.349 . S
C867 C883 1.349 . S
C868 C866 1.327 . S
C868 C887 1.429 . S
C868 H892 0.950 . S
C869 C886 1.574 . S
C869 C888 1.368 . S
C869 H893 0.949 . S
H870 C874 0.949 . S
C871 C872 1.349 . S
C871 C873 1.327 . S
C871 H894 0.950 . S
C872 C871 1.349 . S
C872 C884 1.349 . S
C873 C871 1.327 . S
C873 C889 1.429 . S
C873 H895 0.950 . S
C874 H870 0.949 . S
C874 C882 1.574 . S
C874 C890 1.368 . S
H875 C883 0.950 . S
H876 C881 0.950 . S
H877 C882 0.949 . S
H878 C884 0.950 . S
H879 C885 0.950 . S
H880 C886 0.949 . S
C881 H876 0.950 . S
C881 C883 1.327 . S
C881 C887 1.429 . S
C882 C874 1.574 . S
C882 H877 0.949 . S
C882 C888 1.368 . S
C883 C867 1.349 . S
C883 H875 0.950 . S
C883 C881 1.327 . S
C884 C872 1.349 . S
C884 H878 0.950 . S
C884 C885 1.327 . S
C885 H879 0.950 . S
C885 C884 1.327 . S
C885 C889 1.429 . S
C886 C869 1.574 . S
C886 H880 0.949 . S
C886 C890 1.368 . S
C887 C868 1.429 . S
C887 C881 1.429 . S
C887 C888 1.523 . S
C888 C869 1.368 . S
C888 C882 1.368 . S
C888 C887 1.523 . S
C889 C873 1.429 . S
C889 C885 1.429 . S
C889 C890 1.523 . S
C890 C874 1.368 . S
C890 C886 1.368 . S
C890 C889 1.523 . S
H891 C866 0.950 . S
H892 C868 0.950 . S
H893 C869 0.949 . S
H894 C871 0.950 . S
H895 C873 0.950 . S
C896 C897 1.349 . S
C896 C898 1.327 . S
C896 H921 0.950 . S
C897 C896 1.349 . S
C897 C913 1.349 . S
C898 C896 1.327 . S
C898 C917 1.429 . S
C898 H922 0.950 . S
C899 C916 1.574 . S
C899 C918 1.368 . S
C899 H923 0.949 . S
H900 C904 0.949 . S
C901 C902 1.349 . S
C901 C903 1.327 . S
C901 H924 0.950 . S
C902 C901 1.349 . S
C902 C914 1.349 . S
C903 C901 1.327 . S
C903 C919 1.429 . S
C903 H925 0.950 . S
C904 H900 0.949 . S
C904 C912 1.574 . S
C904 C920 1.368 . S
H905 C913 0.950 . S
H906 C911 0.950 . S
H907 C912 0.949 . S
H908 C914 0.950 . S
H909 C915 0.950 . S
H910 C916 0.949 . S
C911 H906 0.950 . S
C911 C913 1.327 . S
C911 C917 1.429 . S
C912 C904 1.574 . S
C912 H907 0.949 . S
C912 C918 1.368 . S
C913 C897 1.349 . S
C913 H905 0.950 . S
C913 C911 1.327 . S
C914 C902 1.349 . S
C914 H908 0.950 . S
C914 C915 1.327 . S
C915 H909 0.950 . S
C915 C914 1.327 . S
C915 C919 1.429 . S
C916 C899 1.574 . S
C916 H910 0.949 . S
C916 C920 1.368 . S
C917 C898 1.429 . S
C917 C911 1.429 . S
C917 C918 1.523 . S
C918 C899 1.368 . S
C918 C912 1.368 . S
C918 C917 1.523 . S
C919 C903 1.429 . S
C919 C915 1.429 . S
C919 C920 1.523 . S
C920 C904 1.368 . S
C920 C916 1.368 . S
C920 C919 1.523 . S
H921 C896 0.950 . S
H922 C898 0.950 . S
H923 C899 0.949 . S
H924 C901 0.950 . S
H925 C903 0.950 . S
C926 C927 1.349 . S
C926 C928 1.327 . S
C926 H951 0.950 . S
C927 C926 1.349 . S
C927 C943 1.349 . S
C928 C926 1.327 . S
C928 C947 1.429 . S
C928 H952 0.950 . S
C929 C946 1.574 . S
C929 C948 1.368 . S
C929 H953 0.949 . S
H930 C934 0.949 . S
C931 C932 1.349 . S
C931 C933 1.327 . S
C931 H954 0.950 . S
C932 C931 1.349 . S
C932 C944 1.349 . S
C933 C931 1.327 . S
C933 C949 1.429 . S
C933 H955 0.950 . S
C934 H930 0.949 . S
C934 C942 1.574 . S
C934 C950 1.368 . S
H935 C943 0.950 . S
H936 C941 0.950 . S
H937 C942 0.949 . S
H938 C944 0.950 . S
H939 C945 0.950 . S
H940 C946 0.949 . S
C941 H936 0.950 . S
C941 C943 1.327 . S
C941 C947 1.429 . S
C942 C934 1.574 . S
C942 H937 0.949 . S
C942 C948 1.368 . S
C943 C927 1.349 . S
C943 H935 0.950 . S
C943 C941 1.327 . S
C944 C932 1.349 . S
C944 H938 0.950 . S
C944 C945 1.327 . S
C945 H939 0.950 . S
C945 C944 1.327 . S
C945 C949 1.429 . S
C946 C929 1.574 . S
C946 H940 0.949 . S
C946 C950 1.368 . S
C947 C928 1.429 . S
C947 C941 1.429 . S
C947 C948 1.523 . S
C948 C929 1.368 . S
C948 C942 1.368 . S
C948 C947 1.523 . S
C949 C933 1.429 . S
C949 C945 1.429 . S
C949 C950 1.523 . S
C950 C934 1.368 . S
C950 C946 1.368 . S
C950 C949 1.523 . S
H951 C926 0.950 . S
H952 C928 0.950 . S
H953 C929 0.949 . S
H954 C931 0.950 . S
H955 C933 0.950 . S
C237 C116 1.435 . S
C242 C168 1.378 . S
C272 C176 1.378 . S
C267 C135 1.435 . S
C302 C180 1.368 . S
C297 C78 1.434 . S
C327 C97 1.434 . S
C332 C156 1.368 . S
C362 C197 1.378 . S
C357 C40 1.434 . S
C392 C231 1.378 . S
C387 C59 1.434 . S
C417 C2 1.434 . S
C422 C219 1.368 . S
C447 C21 1.433 . S
C452 C201 1.368 . S
C482 C155 1.422 . S
C477 C25 1.550 . S
C512 C189 1.422 . S
C507 C6 1.550 . S
C542 C193 1.418 . S
C537 C63 1.549 . S
C572 C171 1.418 . S
C567 C44 1.549 . S
C602 C210 1.422 . S
C597 C101 1.552 . S
C627 C82 1.552 . S
C632 C218 1.422 . S
C662 C234 1.418 . S
C657 C139 1.550 . S
C687 C120 1.550 . S
C692 C214 1.418 . S
C722 C159 1.389 . S
C717 C11 1.405 . S
C752 C177 1.389 . S
C747 C30 1.405 . S
C777 C49 1.400 . S
C782 C192 1.391 . S
C812 C172 1.391 . S
C807 C68 1.400 . S
C842 C198 1.389 . S
C837 C87 1.438 . S
C867 C106 1.438 . S
C872 C222 1.389 . S
C897 C125 1.428 . S
C902 C235 1.391 . S
C927 C144 1.428 . S
C932 C213 1.391 . S
