# Generated by pormake.
# Topology zzz, (3,6)-cn, num edge types: 1
# Building blocks:
#     Node 0, Type 0, BuildingBlock: CUQRIR_clean_linker_1, # of connection points: 3
#     Node 1, Type 0, BuildingBlock: CUQRIR_clean_linker_1, # of connection points: 3
#     Node 2, Type 0, BuildingBlock: CUQRIR_clean_linker_1, # of connection points: 3
#     Node 3, Type 0, BuildingBlock: CUQRIR_clean_linker_1, # of connection points: 3
#     Node 4, Type 0, BuildingBlock: CUQRIR_clean_linker_1, # of connection points: 3
#     Node 5, Type 0, BuildingBlock: CUQRIR_clean_linker_1, # of connection points: 3
#     Node 6, Type 0, BuildingBlock: CUQRIR_clean_linker_1, # of connection points: 3
#     Node 7, Type 0, BuildingBlock: CUQRIR_clean_linker_1, # of connection points: 3
#     Node 8, Type 1, BuildingBlock: KUMJIN_clean_sbu_1, # of connection points: 6
#     Node 9, Type 1, BuildingBlock: KUMJIN_clean_sbu_1, # of connection points: 6
#     Node 10, Type 1, BuildingBlock: KUMJIN_clean_sbu_1, # of connection points: 6
#     Node 11, Type 1, BuildingBlock: KUMJIN_clean_sbu_1, # of connection points: 6
#     Edge 12, Type (0, 1), BuildingBlock: UVAHIK_clean_linker_0, # of connection points: 2
#     Edge 13, Type (0, 1), BuildingBlock: UVAHIK_clean_linker_0, # of connection points: 2
#     Edge 14, Type (0, 1), BuildingBlock: UVAHIK_clean_linker_0, # of connection points: 2
#     Edge 15, Type (0, 1), BuildingBlock: UVAHIK_clean_linker_0, # of connection points: 2
#     Edge 16, Type (0, 1), BuildingBlock: UVAHIK_clean_linker_0, # of connection points: 2
#     Edge 17, Type (0, 1), BuildingBlock: UVAHIK_clean_linker_0, # of connection points: 2
#     Edge 18, Type (0, 1), BuildingBlock: UVAHIK_clean_linker_0, # of connection points: 2
#     Edge 19, Type (0, 1), BuildingBlock: UVAHIK_clean_linker_0, # of connection points: 2
#     Edge 20, Type (0, 1), BuildingBlock: UVAHIK_clean_linker_0, # of connection points: 2
#     Edge 21, Type (0, 1), BuildingBlock: UVAHIK_clean_linker_0, # of connection points: 2
#     Edge 22, Type (0, 1), BuildingBlock: UVAHIK_clean_linker_0, # of connection points: 2
#     Edge 23, Type (0, 1), BuildingBlock: UVAHIK_clean_linker_0, # of connection points: 2
#     Edge 24, Type (0, 1), BuildingBlock: UVAHIK_clean_linker_0, # of connection points: 2
#     Edge 25, Type (0, 1), BuildingBlock: UVAHIK_clean_linker_0, # of connection points: 2
#     Edge 26, Type (0, 1), BuildingBlock: UVAHIK_clean_linker_0, # of connection points: 2
#     Edge 27, Type (0, 1), BuildingBlock: UVAHIK_clean_linker_0, # of connection points: 2
#     Edge 28, Type (0, 1), BuildingBlock: UVAHIK_clean_linker_0, # of connection points: 2
#     Edge 29, Type (0, 1), BuildingBlock: UVAHIK_clean_linker_0, # of connection points: 2
#     Edge 30, Type (0, 1), BuildingBlock: UVAHIK_clean_linker_0, # of connection points: 2
#     Edge 31, Type (0, 1), BuildingBlock: UVAHIK_clean_linker_0, # of connection points: 2
#     Edge 32, Type (0, 1), BuildingBlock: UVAHIK_clean_linker_0, # of connection points: 2
#     Edge 33, Type (0, 1), BuildingBlock: UVAHIK_clean_linker_0, # of connection points: 2
#     Edge 34, Type (0, 1), BuildingBlock: UVAHIK_clean_linker_0, # of connection points: 2
#     Edge 35, Type (0, 1), BuildingBlock: UVAHIK_clean_linker_0, # of connection points: 2
# Relax obj value: 0.171
# Max RMSD: 0.095
# Mean RMSD: 0.084
data_MOF--net-zzz--node1-KUMJIN_clean_sbu_1--node2-CUQRIR_clean_linker_1--edge1-UVAHIK_clean_linker_0
_symmetry_space_group_name_H-M    P1
_symmetry_Int_Tables_number       1
_symmetry_cell_setting            triclinic
loop_
_symmetry_equiv_pos_as_xyz
'x, y, z'
_cell_length_a     61.710308
_cell_length_b     61.626668
_cell_length_c     18.600165
_cell_angle_alpha  90.118659
_cell_angle_beta   90.079342
_cell_angle_gamma 90.261864
loop_
_atom_site_label
_atom_site_type_symbol
_atom_site_fract_x
_atom_site_fract_y
_atom_site_fract_z
_atom_type_partial_charge
C0 C 0.75471 0.53792 0.27755 0.0
N1 N 0.77575 0.54478 0.27611 0.0
N2 N 0.74397 0.54429 0.21717 0.0
C3 C 0.74463 0.52515 0.33737 0.0
C4 C 0.75925 0.55497 0.17877 0.0
N5 N 0.7784 0.55538 0.21443 0.0
C6 C 0.75602 0.56315 0.1032 0.0
H7 H 0.74732 0.50762 0.32725 0.0
H8 H 0.7269 0.52803 0.33968 0.0
H9 H 0.7522 0.52946 0.38965 0.0
H10 H 0.74126 0.55619 0.07785 0.0
H11 H 0.77023 0.55915 0.0693 0.0
H12 H 0.75439 0.58106 0.10468 0.0
C13 C 1.00487 0.75121 0.27679 0.0
N14 N 0.99579 0.77134 0.27791 0.0
N15 N 0.99707 0.73928 0.22057 0.0
C16 C 0.02111 0.74315 0.33028 0.0
C17 C 0.98328 0.75295 0.18711 0.0
N18 N 0.98229 0.77222 0.22206 0.0
C19 C 0.9728 0.74829 0.1153 0.0
H20 H 0.03759 0.74781 0.31195 0.0
H21 H 0.02035 0.7252 0.33448 0.0
H22 H 0.0183 0.75061 0.38379 0.0
H23 H 0.95559 0.74375 0.12403 0.0
H24 H 0.98088 0.73479 0.08656 0.0
H25 H 0.9733 0.76285 0.08035 0.0
C26 C 0.78488 1.0079 0.23145 0.0
N27 N 0.76522 0.99893 0.24648 0.0
N28 N 0.79483 0.99697 0.17699 0.0
C29 C 0.79371 0.02809 0.2661 0.0
C30 C 0.78038 0.98113 0.15973 0.0
N31 N 0.76254 0.98232 0.20163 0.0
C32 C 0.78382 0.96418 0.10263 0.0
H33 H 0.8018 0.03845 0.22534 0.0
H34 H 0.80604 0.02343 0.30661 0.0
H35 H 0.78075 0.0374 0.29341 0.0
H36 H 0.80129 0.96031 0.09727 0.0
H37 H 0.77792 0.97045 0.05032 0.0
H38 H 0.77463 0.94916 0.11541 0.0
C39 C 0.534 0.78935 0.26634 0.0
N40 N 0.54495 0.7703 0.27374 0.0
N41 N 0.54262 0.80157 0.21243 0.0
C42 C 0.51499 0.79605 0.31112 0.0
C43 C 0.55895 0.78921 0.18687 0.0
N44 N 0.56051 0.7704 0.22415 0.0
C45 C 0.57196 0.79462 0.12063 0.0
H46 H 0.49994 0.78969 0.28587 0.0
H47 H 0.51385 0.814 0.31385 0.0
H48 H 0.51626 0.78924 0.36614 0.0
H49 H 0.56442 0.80773 0.0886 0.0
H50 H 0.57373 0.78007 0.08593 0.0
H51 H 0.58838 0.80008 0.13719 0.0
C52 C 0.28149 0.50766 0.11317 0.0
N53 N 0.26098 0.50028 0.10195 0.0
N54 N 0.29103 0.4969 0.16875 0.0
C55 C 0.29193 0.52564 0.07134 0.0
C56 C 0.27535 0.48297 0.19121 0.0
N57 N 0.25726 0.48494 0.15048 0.0
C58 C 0.27746 0.46822 0.25516 0.0
H59 H 0.3098 0.52369 0.07033 0.0
H60 H 0.28812 0.54133 0.0977 0.0
H61 H 0.28549 0.52607 0.01562 0.0
H62 H 0.28448 0.47732 0.30126 0.0
H63 H 0.28874 0.45485 0.24172 0.0
H64 H 0.26173 0.46095 0.27105 0.0
C65 C 0.04648 0.29423 0.03931 0.0
N66 N 0.05138 0.27276 0.04523 0.0
N67 N 0.05123 0.30501 0.10146 0.0
C68 C 0.03621 0.30447 0.9748 0.0
C69 C 0.05905 0.28933 0.14501 0.0
N70 N 0.05912 0.26987 0.11126 0.0
C71 C 0.06411 0.29249 0.22365 0.0
H72 H 0.04047 0.32196 0.97189 0.0
H73 H 0.01834 0.30299 0.97952 0.0
H74 H 0.04136 0.29608 0.92486 0.0
H75 H 0.06591 0.30988 0.2379 0.0
H76 H 0.07932 0.284 0.23781 0.0
H77 H 0.05084 0.2853 0.2562 0.0
C78 C 0.25505 0.03649 0.08376 0.0
N79 N 0.27577 0.04416 0.083 0.0
N80 N 0.24356 0.04556 0.13858 0.0
C81 C 0.2465 0.01927 0.03408 0.0
C82 C 0.25811 0.05886 0.17118 0.0
N83 N 0.27756 0.05796 0.13776 0.0
C84 C 0.25356 0.07173 0.23836 0.0
H85 H 0.22853 0.01869 0.03498 0.0
H86 H 0.25288 1.00331 0.0514 0.0
H87 H 0.25222 0.02226 0.97845 0.0
H88 H 0.25137 0.06039 0.28406 0.0
H89 H 0.23834 0.08101 0.2322 0.0
H90 H 0.26681 0.08333 0.25108 0.0
C91 C 0.49962 0.25398 0.08004 0.0
N92 N 0.49105 0.27436 0.08129 0.0
N93 N 0.49265 0.24212 0.13747 0.0
C94 C 0.51436 0.24548 0.02263 0.0
C95 C 0.47988 0.25609 0.17403 0.0
N96 N 0.4787 0.27543 0.13986 0.0
C97 C 0.47061 0.25155 0.24755 0.0
H98 H 0.51283 0.22758 0.01791 0.0
H99 H 0.53135 0.24945 0.03734 0.0
H100 H 0.51069 0.25319 0.97016 0.0
H101 H 0.47942 0.23831 0.27515 0.0
H102 H 0.45338 0.24663 0.24169 0.0
H103 H 0.47136 0.26624 0.28208 0.0
Eu104 Eu 1.00061 0.03445 0.59941 0.0
C105 C 0.08478 0.04734 0.74846 0.0
N106 N 0.07894 0.02873 0.71451 0.0
C107 C 0.11288 0.0286 0.65156 0.0
C108 C 0.10428 0.0582 0.73157 0.0
C109 C 0.09352 0.01834 0.67142 0.0
C110 C 0.118 0.04896 0.68021 0.0
C111 C 0.07895 0.07199 0.84801 0.0
C112 C 0.07251 0.05402 0.80609 0.0
C113 C 0.09733 0.08404 0.82775 0.0
C114 C 0.11002 0.07712 0.76957 0.0
Eu115 Eu 0.0441 0.0143 0.74321 0.0
N116 N 0.05516 0.04177 0.82459 0.0
C117 C 0.06725 0.07671 0.91054 0.0
C118 C 0.04452 0.04535 0.8878 0.0
C119 C 0.05022 0.06305 0.9313 0.0
H120 H 0.09009 1.0022 0.65153 0.0
H121 H 0.04138 0.06625 0.98035 0.0
H122 H 0.96065 0.9979 0.5939 0.0
H123 H 0.03242 0.08482 0.38153 0.0
H124 H 0.03109 0.03501 0.90295 0.0
H125 H 0.07165 0.0904 0.94425 0.0
H126 H 0.02613 0.07408 0.50729 0.0
H127 H 0.12394 0.02069 0.61489 0.0
H128 H 0.10239 0.09813 0.85852 0.0
H129 H 0.12473 0.08593 0.75659 0.0
H130 H 0.93937 0.97727 0.50384 0.0
H131 H 0.13313 0.05676 0.66558 0.0
H132 H 0.01496 0.06432 0.28251 0.0
N133 N 0.97866 0.01542 0.51587 0.0
C134 C 0.98161 0.01973 0.44523 0.0
C135 C 0.95125 0.98912 0.48655 0.0
C136 C 0.96983 1.00846 0.39183 0.0
C137 C 0.96327 1.00085 0.53739 0.0
C138 C 0.95471 0.99277 0.41334 0.0
N139 N 1.0058 0.04727 0.48024 0.0
C140 C 0.01845 0.0649 0.46473 0.0
C141 C 0.99862 0.04191 0.354 0.0
C142 C 0.99569 0.0362 0.42675 0.0
C143 C 0.01223 0.05944 0.3377 0.0
C144 C 0.02206 0.07108 0.39342 0.0
H145 H 0.94534 0.98373 0.37402 0.0
H146 H 0.96439 1.00498 0.27718 0.0
H147 H 0.98969 0.0343 0.24396 0.0
O148 O 0.97259 0.05498 0.57872 0.0
O149 O 1.0056 0.99788 0.58858 0.0
O150 O 0.03251 0.98663 0.66863 0.0
O151 O 0.98446 0.05175 0.68723 0.0
O152 O 0.03631 0.03981 0.57321 0.0
O153 O 0.05205 1.01002 0.62385 0.0
O154 O 0.03496 0.99098 0.8252 0.0
O155 O 0.02664 0.0468 0.75266 0.0
O156 O 0.02655 0.05829 0.63764 0.0
O157 O 0.06868 0.99499 0.79892 0.0
O158 O 1.00992 0.01946 0.78454 0.0
O159 O 0.99031 1.01002 0.68513 0.0
C160 C 0.01818 0.98277 0.6167 0.0
C161 C 0.97211 0.08587 0.65241 0.0
C162 C 0.98791 0.12035 0.61471 0.0
C163 C 0.97322 0.13128 0.65974 0.0
C164 C 0.95752 0.09684 0.69686 0.0
C165 C 0.9583 0.11952 0.70115 0.0
C166 C 0.98766 0.0976 0.6142 0.0
C167 C 0.05126 0.02472 0.57277 0.0
C168 C 0.97152 0.0622 0.64464 0.0
C169 C 0.97316 0.01356 0.31908 0.0
C170 C 0.98755 0.03026 0.30018 0.0
C171 C 0.02882 0.06265 0.70622 0.0
C172 C 0.05545 0.95927 0.82 0.0
C173 C 0.0372 0.92433 0.83149 0.0
C174 C 0.05253 0.91494 0.78541 0.0
C175 C 0.07093 0.94967 0.77464 0.0
C176 C 0.039 0.94634 0.84928 0.0
C177 C 0.06949 0.92755 0.75794 0.0
C178 C 0.99168 1.01292 0.75506 0.0
C179 C 0.0543 0.98293 0.83091 0.0
H180 H 0.97274 0.14882 0.66145 0.0
H181 H 0.94557 0.08795 0.72773 0.0
H182 H 0.94696 0.12803 0.73529 0.0
H183 H 0.9994 0.08877 0.58282 0.0
H184 H 0.05147 0.89791 0.77126 0.0
H185 H 0.08373 0.95928 0.7506 0.0
H186 H 0.02689 0.9537 0.88373 0.0
H187 H 0.08131 0.92027 0.72245 0.0
Eu188 Eu 0.5296 0.04039 0.74369 0.0
C189 C 0.50209 0.95034 0.63436 0.0
N190 N 0.51797 0.96333 0.60816 0.0
C191 C 0.54223 0.9331 0.60217 0.0
C192 C 0.50605 0.92832 0.64969 0.0
C193 C 0.53754 0.95491 0.58859 0.0
C194 C 0.52656 0.91985 0.63435 0.0
C195 C 0.46417 0.9454 0.66307 0.0
C196 C 0.48148 0.95875 0.64045 0.0
C197 C 0.46829 0.92389 0.68381 0.0
C198 C 0.4892 0.91534 0.6769 0.0
Eu199 Eu 0.50934 1.00016 0.58856 0.0
N200 N 0.47801 0.97935 0.61762 0.0
C201 C 0.44312 0.95373 0.66067 0.0
C202 C 0.45734 0.98671 0.60842 0.0
C203 C 0.43966 0.97432 0.6317 0.0
H204 H 0.54968 0.96529 0.56445 0.0
H205 H 0.42336 0.98054 0.62644 0.0
H206 H 0.48275 0.05295 0.83158 0.0
H207 H 0.58958 0.09769 0.64256 0.0
H208 H 0.45441 1.00222 0.58332 0.0
H209 H 0.42938 0.94403 0.67771 0.0
H210 H 0.5761 0.06262 0.6902 0.0
H211 H 0.55794 0.92658 0.58839 0.0
H212 H 0.45526 0.91347 0.70227 0.0
H213 H 0.49199 0.89847 0.69024 0.0
H214 H 0.4561 0.0825 0.83296 0.0
H215 H 0.53024 0.90299 0.64508 0.0
H216 H 0.56443 0.12867 0.63016 0.0
N217 N 0.50406 0.06887 0.75851 0.0
C218 C 0.50944 0.08819 0.72806 0.0
C219 C 0.47085 0.08419 0.80202 0.0
C220 C 0.49508 0.10593 0.72987 0.0
C221 C 0.48581 0.06722 0.79966 0.0
C222 C 0.47527 0.10347 0.76549 0.0
N223 N 0.54387 0.07373 0.70313 0.0
C224 C 0.56516 0.07613 0.68506 0.0
C225 C 0.53695 0.11103 0.67337 0.0
C226 C 0.5301 0.09079 0.70048 0.0
C227 C 0.55853 0.11337 0.65123 0.0
C228 C 0.57278 0.09593 0.65821 0.0
H229 H 0.46379 0.1167 0.76814 0.0
H230 H 0.49042 0.1395 0.6991 0.0
H231 H 0.5271 0.14394 0.64929 0.0
O232 O 0.55578 0.03076 0.81618 0.0
O233 O 0.53184 0.05042 0.62515 0.0
O234 O 0.50081 0.0359 0.57937 0.0
O235 O 0.53397 0.0563 0.84773 0.0
O236 O 0.55813 0.02381 0.68713 0.0
O237 O 0.54469 1.01019 0.57892 0.0
O238 O 0.4934 0.98919 0.48958 0.0
O239 O 0.52852 0.98685 0.68497 0.0
O240 O 0.51557 1.00769 0.77566 0.0
O241 O 0.52602 1.00172 0.48561 0.0
O242 O 0.48368 0.02231 0.63986 0.0
O243 O 0.49624 0.0246 0.75538 0.0
C244 C 0.51555 0.0513 0.57957 0.0
C245 C 0.54293 0.03008 0.93483 0.0
C246 C 0.5545 1.00664 0.03282 0.0
C247 C 0.53279 1.00178 0.04839 0.0
C248 C 0.5212 0.02526 0.95166 0.0
C249 C 0.51622 1.01133 1.00852 0.0
C250 C 0.55949 0.02093 0.97629 0.0
C251 C 0.56086 0.01595 0.62145 0.0
C252 C 0.54835 0.04236 0.86923 0.0
C253 C 0.50135 0.12579 0.69908 0.0
C254 C 0.52226 0.12834 0.67091 0.0
C255 C 0.52305 0.98907 0.75281 0.0
C256 C 0.50474 1.00729 0.38355 0.0
C257 C 0.48415 0.03511 0.32027 0.0
C258 C 0.49631 0.03069 0.25782 0.0
C259 C 0.51668 1.00325 0.321 0.0
C260 C 0.48891 0.02354 0.38363 0.0
C261 C 0.51257 0.01504 0.25861 0.0
C262 C 0.48003 0.024 0.70942 0.0
C263 C 0.50956 0.99479 0.44859 0.0
H264 H 0.5287 0.99064 0.09131 0.0
H265 H 0.50807 0.03175 0.91968 0.0
H266 H 0.49947 1.00753 0.02058 0.0
H267 H 0.57628 0.02418 0.96267 0.0
H268 H 0.49288 0.03878 0.20752 0.0
H269 H 0.52919 0.99096 0.32048 0.0
H270 H 0.48023 0.02693 0.43293 0.0
H271 H 0.52177 1.01177 0.21032 0.0
Eu272 Eu 0.53849 0.51501 0.61342 0.0
C273 C 0.45639 0.51334 0.83054 0.0
N274 N 0.4614 0.52772 0.77784 0.0
C275 C 0.42384 0.53102 0.74702 0.0
C276 C 0.43473 0.50705 0.84315 0.0
C277 C 0.44555 0.53681 0.73674 0.0
C278 C 0.4184 0.51601 0.80028 0.0
C279 C 0.4684 0.49011 0.92778 0.0
C280 C 0.47298 0.50497 0.87227 0.0
C281 C 0.44688 0.48366 0.94024 0.0
C282 C 0.43008 0.4921 0.89802 0.0
Eu283 Eu 0.49849 0.5358 0.76184 0.0
N284 N 0.49369 0.51111 0.85768 0.0
C285 C 0.48563 0.48216 0.96899 0.0
C286 C 0.51045 0.50407 0.89932 0.0
C287 C 0.50672 0.48931 0.95501 0.0
H288 H 0.44965 0.5488 0.69673 0.0
H289 H 0.52011 0.48346 0.98711 0.0
H290 H 0.58788 0.52653 0.67863 0.0
H291 H 0.49719 0.54695 0.3747 0.0
H292 H 0.52674 0.5096 0.88911 0.0
H293 H 0.4828 0.47067 0.01201 0.0
H294 H 0.50283 0.5218 0.47493 0.0
H295 H 0.41132 0.53822 0.71412 0.0
H296 H 0.44304 0.47219 0.98248 0.0
H297 H 0.41355 0.48702 0.9084 0.0
H298 H 0.61816 0.55172 0.65343 0.0
H299 H 0.40156 0.51157 0.80822 0.0
H300 H 0.52476 0.57498 0.34763 0.0
N301 N 0.5684 0.53806 0.59271 0.0
C302 C 0.56692 0.55152 0.53501 0.0
C303 C 0.6038 0.5519 0.61998 0.0
C304 C 0.58379 0.56622 0.51887 0.0
C305 C 0.58658 0.53776 0.63443 0.0
C306 C 0.60236 0.56627 0.56221 0.0
N307 N 0.53184 0.53704 0.51127 0.0
C308 C 0.51428 0.53475 0.46718 0.0
C309 C 0.54587 0.56546 0.435 0.0
C310 C 0.54804 0.55119 0.49383 0.0
C311 C 0.52704 0.5643 0.39319 0.0
C312 C 0.51136 0.54862 0.40864 0.0
H313 H 0.61567 0.57733 0.55152 0.0
H314 H 0.59421 0.59213 0.44811 0.0
H315 H 0.56107 0.59143 0.37465 0.0
O316 O 0.5387 0.49349 0.52057 0.0
O317 O 0.53923 0.55084 0.64895 0.0
O318 O 0.50342 0.55676 0.66308 0.0
O319 O 0.56669 0.4948 0.58967 0.0
O320 O 0.50223 0.50699 0.59747 0.0
O321 O 0.48603 0.53675 0.64739 0.0
O322 O 0.51185 0.55743 0.84285 0.0
O323 O 0.49817 0.49877 0.74917 0.0
O324 O 0.53111 0.48959 0.69899 0.0
O325 O 0.4793 0.56287 0.80333 0.0
O326 O 0.53494 0.53769 0.78731 0.0
O327 O 0.5524 0.51062 0.72486 0.0
C328 C 0.52254 0.56389 0.64387 0.0
C329 C 0.55425 0.46011 0.55317 0.0
C330 C 0.53204 0.42739 0.54245 0.0
C331 C 0.54526 0.41701 0.59314 0.0
C332 C 0.56768 0.44932 0.60261 0.0
C333 C 0.56317 0.42788 0.62229 0.0
C334 C 0.53678 0.44879 0.52234 0.0
C335 C 0.48536 0.51995 0.6039 0.0
C336 C 0.55637 0.48373 0.54072 0.0
C337 C 0.58148 0.58061 0.46097 0.0
C338 C 0.56257 0.58026 0.41927 0.0
C339 C 0.51344 0.48451 0.73489 0.0
C340 C 0.50263 0.59341 0.81866 0.0
C341 C 0.52991 0.62205 0.82978 0.0
C342 C 0.52014 0.63316 0.77243 0.0
C343 C 0.49291 0.60485 0.76187 0.0
C344 C 0.52098 0.60223 0.85248 0.0
C345 C 0.50164 0.62465 0.73917 0.0
C346 C 0.55137 0.5243 0.77892 0.0
C347 C 0.49589 0.57113 0.83746 0.0
H348 H 0.54197 0.40043 0.6092 0.0
H349 H 0.58123 0.45761 0.62771 0.0
H350 H 0.57338 0.41978 0.66113 0.0
H351 H 0.52622 0.45692 0.48442 0.0
H352 H 0.52651 0.64861 0.75428 0.0
H353 H 0.47896 0.59829 0.73376 0.0
H354 H 0.52876 0.59323 0.89533 0.0
H355 H 0.49417 0.63332 0.69516 0.0
Eu356 Eu 0.03064 0.54449 0.58068 0.0
C357 C 0.0546 0.48895 0.84045 0.0
N358 N 0.04584 0.48244 0.777 0.0
C359 C 0.07203 0.45397 0.7677 0.0
C360 C 0.07323 0.47886 0.86844 0.0
C361 C 0.05358 0.46459 0.742 0.0
C362 C 0.08212 0.46137 0.83055 0.0
C363 C 0.05205 0.51133 0.94725 0.0
C364 C 0.04414 0.50497 0.87915 0.0
C365 C 0.07143 0.50238 0.97332 0.0
C366 C 0.082 0.48614 0.93399 0.0
Eu367 Eu 0.01578 0.5023 0.73424 0.0
N368 N 0.02525 0.51295 0.85296 0.0
C369 C 0.03971 0.52575 0.98839 0.0
C370 C 0.0122 0.52527 0.89574 0.0
C371 C 0.01946 0.53236 0.96316 0.0
H372 H 0.04586 0.45905 0.69301 0.0
H373 H 1.00932 0.5427 0.9959 0.0
H374 H 0.02341 0.59338 0.66499 0.0
H375 H 0.99394 0.51748 0.32981 0.0
H376 H 0.99617 0.5297 0.87782 0.0
H377 H 0.0452 0.53106 0.04096 0.0
H378 H 0.02091 0.51778 0.42856 0.0
H379 H 0.07851 0.44019 0.73886 0.0
H380 H 0.07793 0.50731 0.02501 0.0
H381 H 0.09655 0.47888 0.95577 0.0
H382 H 0.99538 0.62141 0.67317 0.0
H383 H 0.09645 0.45318 0.85021 0.0
H384 H 0.96336 0.54336 0.33196 0.0
N385 N 1.00615 0.57414 0.58835 0.0
C386 C 0.98966 0.574 0.53966 0.0
C387 C 0.99333 0.60793 0.63633 0.0
C388 C 0.97371 0.59034 0.54005 0.0
C389 C 1.00896 0.59161 0.63287 0.0
C390 C 0.97537 0.60706 0.59077 0.0
N391 N 1.00532 0.5431 0.48595 0.0
C392 C 1.00753 0.52901 0.42972 0.0
C393 C 0.9737 0.55869 0.43124 0.0
C394 C 0.98954 0.55835 0.48592 0.0
C395 C 0.97517 0.54357 0.37511 0.0
C396 C 0.99237 0.5289 0.37377 0.0
H397 H 0.96345 0.6199 0.59288 0.0
H398 H 0.94463 0.60228 0.48818 0.0
H399 H 0.94467 0.57457 0.3928 0.0
O400 O 0.05903 0.54176 0.51177 0.0
O401 O 0.99994 0.52349 0.57685 0.0
O402 O 0.98894 0.52419 0.69263 0.0
O403 O 0.04273 0.57249 0.52041 0.0
O404 O 0.0402 0.50975 0.55182 0.0
O405 O 0.01898 0.48703 0.62271 0.0
O406 O 0.99881 0.48279 0.81432 0.0
O407 O 0.05044 0.50591 0.69259 0.0
O408 O 0.05503 0.54199 0.67279 0.0
O409 O 0.99386 0.47618 0.70164 0.0
O410 O 1.00605 0.53778 0.75276 0.0
O411 O 0.03287 0.55728 0.69613 0.0
C412 C 0.98417 0.52452 0.62398 0.0
C413 C 0.05444 0.56157 0.40422 0.0
C414 C 0.06159 0.54478 0.28744 0.0
C415 C 0.04919 0.56087 0.2538 0.0
C416 C 0.04193 0.57748 0.36962 0.0
C417 C 0.03935 0.57707 0.29489 0.0
C418 C 0.06424 0.54534 0.36246 0.0
C419 C 0.03081 0.49084 0.56482 0.0
C420 C 0.05639 0.56091 0.48364 0.0
C421 C 0.95714 0.59 0.48811 0.0
C422 C 0.95719 0.57426 0.43366 0.0
C423 C 0.06206 0.52364 0.69989 0.0
C424 C 0.96364 0.47399 0.77619 0.0
C425 C 0.93177 0.49587 0.80262 0.0
C426 C 0.91874 0.47725 0.79263 0.0
C427 C 0.95048 0.45569 0.76617 0.0
C428 C 0.95424 0.49405 0.79285 0.0
C429 C 0.92806 0.45739 0.77402 0.0
C430 C 0.01885 0.55494 0.74908 0.0
C431 C 0.98712 0.47256 0.7667 0.0
H432 H 0.04711 0.56085 0.19596 0.0
H433 H 0.03398 0.59013 0.40017 0.0
H434 H 0.02968 0.58937 0.26874 0.0
H435 H 0.07418 0.53317 0.38834 0.0
H436 H 0.9014 0.47779 0.80122 0.0
H437 H 0.95753 0.44018 0.75228 0.0
H438 H 0.96456 0.50821 0.7987 0.0
H439 H 0.91789 0.44319 0.76675 0.0
C440 C 0.21715 0.02065 0.19612 0.0
C441 C 0.22191 0.04072 0.16417 0.0
C442 C 0.19746 0.01739 0.23274 0.0
C443 C 0.14235 0.04199 0.26469 0.0
H444 H 0.14471 1.00853 0.44067 0.0
C445 C 0.07437 0.04482 0.48233 0.0
C446 C 0.06892 0.02539 0.51778 0.0
C447 C 0.09199 0.04572 0.43458 0.0
C448 C 0.14363 0.01773 0.39126 0.0
H449 H 0.20959 0.07278 0.14289 0.0
H450 H 0.1755 0.06746 0.20715 0.0
H451 H 0.17679 1.01138 0.3651 0.0
H452 H 0.07733 0.99144 0.52794 0.0
H453 H 0.1081 0.99304 0.44558 0.0
H454 H 0.10927 0.04873 0.29214 0.0
C455 C 0.18663 0.05397 0.20364 0.0
C456 C 0.1621 0.01932 0.34749 0.0
C457 C 0.20623 0.05713 0.16688 0.0
C458 C 0.08123 1.00677 0.50253 0.0
C459 C 0.09895 1.0077 0.45536 0.0
C460 C 0.12391 0.04052 0.30877 0.0
C461 C 0.18205 0.03419 0.23862 0.0
C462 C 0.16186 0.03157 0.28353 0.0
C463 C 0.10476 0.02724 0.42111 0.0
C464 C 0.12428 0.02843 0.37292 0.0
H465 H 0.22906 1.00781 0.19526 0.0
H466 H 0.19451 1.00177 0.25749 0.0
H467 H 0.14121 0.05126 0.21548 0.0
H468 H 0.06543 0.05954 0.4931 0.0
H469 H 0.09601 0.06111 0.40987 0.0
C470 C 0.48071 0.20502 0.16814 0.0
C471 C 0.49762 0.22014 0.15952 0.0
C472 C 0.48394 0.18557 0.20578 0.0
C473 C 0.51996 0.16167 0.34595 0.0
H474 H 0.48843 0.10881 0.30159 0.0
C475 C 0.53237 0.08266 0.51198 0.0
C476 C 0.51418 0.06955 0.52658 0.0
C477 C 0.53106 0.10021 0.46412 0.0
C478 C 0.49721 0.12346 0.31543 0.0
H479 H 0.53138 0.22644 0.18206 0.0
H480 H 0.53741 0.19218 0.24637 0.0
H481 H 0.48567 0.1399 0.22145 0.0
H482 H 0.48035 0.06449 0.49982 0.0
H483 H 0.478 0.09492 0.41622 0.0
H484 H 0.53133 0.1453 0.44027 0.0
C485 C 0.52146 0.19541 0.22472 0.0
C486 C 0.49566 0.14141 0.26911 0.0
C487 C 0.51818 0.2149 0.18672 0.0
C488 C 0.49472 0.07419 0.49019 0.0
C489 C 0.49341 0.0917 0.44186 0.0
C490 C 0.52152 0.14371 0.39222 0.0
C491 C 0.50423 0.18064 0.23649 0.0
C492 C 0.50691 0.16091 0.28371 0.0
C493 C 0.51153 0.10516 0.42841 0.0
C494 C 0.51009 0.12429 0.37803 0.0
H495 H 0.4646 0.20889 0.14903 0.0
H496 H 0.47014 0.17496 0.21401 0.0
H497 H 0.52856 0.17641 0.3603 0.0
H498 H 0.54778 0.07925 0.53717 0.0
H499 H 0.54554 0.10974 0.45442 0.0
C500 C 0.32655 0.48288 0.20967 0.0
C501 C 0.31211 0.50029 0.20173 0.0
C502 C 0.34588 0.48529 0.24894 0.0
C503 C 0.37122 0.51988 0.39123 0.0
H504 H 0.4239 0.49001 0.33715 0.0
C505 C 0.452 0.53486 0.54361 0.0
C506 C 0.46611 0.51732 0.5553 0.0
C507 C 0.43378 0.53273 0.49899 0.0
C508 C 0.40929 0.49827 0.35375 0.0
H509 H 0.30685 0.53402 0.22757 0.0
H510 H 0.34076 0.53853 0.29524 0.0
H511 H 0.39175 0.48699 0.26109 0.0
H512 H 0.47215 0.48379 0.52706 0.0
H513 H 0.4402 0.47993 0.44955 0.0
H514 H 0.38861 0.53104 0.48405 0.0
C515 C 0.33708 0.52283 0.27191 0.0
C516 C 0.39076 0.49657 0.30982 0.0
C517 C 0.31775 0.52039 0.23233 0.0
C518 C 0.46163 0.49763 0.51966 0.0
C519 C 0.44331 0.49547 0.47481 0.0
C520 C 0.3897 0.52155 0.43514 0.0
C521 C 0.35134 0.50522 0.28177 0.0
C522 C 0.37139 0.50737 0.32776 0.0
C523 C 0.42897 0.51298 0.4641 0.0
C524 C 0.4091 0.51082 0.41719 0.0
H525 H 0.32264 0.46723 0.1864 0.0
H526 H 0.35619 0.47126 0.25547 0.0
H527 H 0.3566 0.5281 0.40805 0.0
H528 H 0.45517 0.55049 0.56828 0.0
H529 H 0.4236 0.54679 0.49107 0.0
C530 C 0.05981 0.34408 0.11364 0.0
C531 C 0.04545 0.32667 0.1244 0.0
C532 C 0.05733 0.36364 0.15197 0.0
C533 C 0.01919 0.3937 0.27595 0.0
H534 H 0.07202 0.42171 0.3416 0.0
C535 C 0.02019 0.45405 0.51582 0.0
C536 C 0.03301 0.47296 0.51054 0.0
C537 C 0.02149 0.43754 0.46392 0.0
C538 C 0.05707 0.41426 0.32323 0.0
H539 H 0.01714 0.31609 0.18268 0.0
H540 H 0.01268 0.34982 0.24979 0.0
H541 H 0.07404 0.39126 0.25798 0.0
H542 H 0.05746 0.48899 0.44568 0.0
H543 H 0.05994 0.46 0.35579 0.0
H544 H 1.00231 0.41632 0.34322 0.0
C545 C 0.02562 0.34892 0.21071 0.0
C546 C 0.0582 0.39675 0.27471 0.0
C547 C 0.02805 0.32951 0.17199 0.0
C548 C 0.04736 0.4747 0.45191 0.0
C549 C 0.04883 0.45802 0.40032 0.0
C550 C 0.01809 0.41102 0.325 0.0
C551 C 0.04054 0.36618 0.20288 0.0
C552 C 0.03928 0.38598 0.25069 0.0
C553 C 0.03578 0.43925 0.40526 0.0
C554 C 0.03701 0.42144 0.35004 0.0
H555 H 0.07361 0.3421 0.07841 0.0
H556 H 0.06897 0.37653 0.14301 0.0
H557 H 1.00416 0.38635 0.25796 0.0
H558 H 1.0089 0.45201 0.55985 0.0
H559 H 0.01139 0.42326 0.47029 0.0
C560 C 0.81462 1.00476 0.06424 0.0
C561 C 0.81476 1.0021 0.13924 0.0
C562 C 0.83399 1.00718 0.02571 0.0
C563 C 0.89359 0.99699 0.03947 0.0
H564 H 0.89535 0.03132 0.86517 0.0
C565 C 0.97323 1.01149 0.87625 0.0
C566 C 0.97177 1.01109 0.80066 0.0
C567 C 0.95451 1.01076 0.9192 0.0
C568 C 0.89514 0.02146 0.91329 0.0
H569 H 0.83535 1.00063 0.23304 0.0
H570 H 0.86937 1.00547 0.16634 0.0
H571 H 0.86253 0.0306 0.9376 0.0
H572 H 0.94914 1.00971 0.71155 0.0
H573 H 0.91666 1.00832 0.78598 0.0
H574 H 0.92636 0.98801 0.01505 0.0
C575 C 0.85426 1.00522 0.13674 0.0
C576 C 0.87621 0.02102 0.9551 0.0
C577 C 0.83477 1.00273 0.1753 0.0
C578 C 0.95102 1.00985 0.76938 0.0
C579 C 0.9323 1.00929 0.81228 0.0
C580 C 0.9126 0.99753 0.99779 0.0
C581 C 0.85422 1.00718 0.06104 0.0
C582 C 0.87499 1.00861 0.01859 0.0
C583 C 0.93372 1.00982 0.88791 0.0
C584 C 0.91361 1.00961 0.93363 0.0
H585 H 0.79942 1.00453 0.03512 0.0
H586 H 0.83305 1.00838 0.96775 0.0
H587 H 0.89336 0.98695 0.08716 0.0
H588 H 0.98889 1.01251 0.90247 0.0
H589 H 0.95634 1.0114 0.97707 0.0
C590 C 0.54775 0.84099 0.19539 0.0
C591 C 0.5356 0.82204 0.18242 0.0
C592 C 0.5446 0.85973 0.15372 0.0
C593 C 0.52587 0.87614 0.97219 0.0
H594 H 0.52916 0.93462 0.0488 0.0
C595 C 0.53694 0.95198 0.78853 0.0
C596 C 0.52423 0.9703 0.80378 0.0
C597 C 0.53754 0.93422 0.83586 0.0
C598 C 0.52812 0.91841 0.0264 0.0
H599 H 0.51064 0.80784 0.1158 0.0
H600 H 0.50481 0.84057 0.04311 0.0
H601 H 0.53038 0.90358 0.13059 0.0
H602 H 0.50254 0.98433 0.88257 0.0
H603 H 0.50416 0.95382 0.9661 0.0
H604 H 0.52378 0.89094 0.868 0.0
C605 C 0.51677 0.84107 0.08574 0.0
C606 C 0.52897 0.90056 0.07341 0.0
C607 C 0.51979 0.82242 0.12806 0.0
C608 C 0.51262 0.97059 0.86893 0.0
C609 C 0.51352 0.95302 0.91695 0.0
C610 C 0.52529 0.89397 0.92517 0.0
C611 C 0.52945 0.8599 0.09687 0.0
C612 C 0.52784 0.87911 0.0471 0.0
C613 C 0.52583 0.93444 0.90089 0.0
C614 C 0.52642 0.9154 0.95145 0.0
H615 H 0.56046 0.84087 0.23556 0.0
H616 H 0.55486 0.87372 0.16365 0.0
H617 H 0.52523 0.85995 0.94954 0.0
H618 H 0.54668 0.95146 0.74035 0.0
H619 H 0.54752 0.92043 0.82203 0.0
C620 C 0.70688 0.55646 0.18874 0.0
C621 C 0.72209 0.53963 0.19339 0.0
C622 C 0.68732 0.55356 0.15105 0.0
C623 C 0.66404 0.52123 1.00133 0.0
H624 H 0.60934 0.54557 0.06303 0.0
C625 C 0.58559 0.50868 0.83234 0.0
C626 C 0.57 0.52528 0.83071 0.0
C627 C 0.60333 0.50968 0.87968 0.0
C628 C 0.6245 0.5389 0.04413 0.0
H629 H 0.72877 0.50657 0.16256 0.0
H630 H 0.69453 0.50125 0.09691 0.0
H631 H 0.64104 0.54829 0.14115 0.0
H632 H 0.56113 0.55609 0.87847 0.0
H633 H 0.59223 0.55819 0.9593 0.0
H634 H 0.64789 0.51239 0.9036 0.0
C635 C 0.69761 0.51673 0.12266 0.0
C636 C 0.64274 0.54039 0.08943 0.0
C637 C 0.71708 0.5196 0.16114 0.0
C638 C 0.57268 0.5429 0.87828 0.0
C639 C 0.59057 0.54402 0.92521 0.0
C640 C 0.64589 0.51994 0.95574 0.0
C641 C 0.68261 0.53383 0.11575 0.0
C642 C 0.66282 0.53157 0.06878 0.0
C643 C 0.60629 0.52745 0.9267 0.0
C644 C 0.62574 0.52875 0.97617 0.0
H645 H 0.71066 0.57221 0.21154 0.0
H646 H 0.67639 0.56719 0.14647 0.0
H647 H 0.67926 0.51459 0.9827 0.0
H648 H 0.58405 0.49474 0.7971 0.0
H649 H 0.61463 0.4963 0.87966 0.0
C650 C 0.02206 0.71346 0.16133 0.0
C651 C 1.00235 0.71759 0.19635 0.0
C652 C 0.02485 0.69439 0.12053 0.0
C653 C 0.9916 0.65344 0.02104 0.0
H654 H 0.04592 0.62286 0.99997 0.0
C655 C 0.99811 0.57563 0.84441 0.0
C656 C 0.01718 0.57255 0.80436 0.0
C657 C 0.99671 0.59231 0.89592 0.0
C658 C 0.03065 0.63131 1.00446 0.0
H659 H 0.97049 0.70473 0.21853 0.0
H660 H 0.97539 0.67122 0.14986 0.0
H661 H 0.04333 0.65304 0.08481 0.0
H662 H 0.04968 0.58491 0.78715 0.0
H663 H 0.04715 0.6141 0.8754 0.0
H664 H 0.97896 0.63205 0.94016 0.0
C665 C 0.98868 0.68273 0.15242 0.0
C666 C 0.02916 0.64868 0.05347 0.0
C667 C 0.98595 0.70175 0.19295 0.0
C668 C 0.03474 0.58671 0.81705 0.0
C669 C 0.03334 0.6034 0.86839 0.0
C670 C 0.9931 0.63615 0.97201 0.0
C671 C 1.0079 0.67904 0.1135 0.0
C672 C 1.00959 0.66005 0.0626 0.0
C673 C 0.01429 0.60654 0.90874 0.0
C674 C 0.01265 0.62478 0.96264 0.0
H675 H 0.03475 0.72566 0.16168 0.0
H676 H 0.03983 0.6923 0.0912 0.0
H677 H 0.97636 0.66199 0.025 0.0
H678 H 0.98414 0.56526 0.83556 0.0
H679 H 0.98181 0.59392 0.92608 0.0
C680 C 0.0768 0.24176 0.18503 0.0
C681 C 0.05856 0.2495 0.14831 0.0
C682 C 0.07494 0.22372 0.23022 0.0
C683 C 0.03762 0.17849 0.2768 0.0
H684 H 0.05928 0.18646 0.47089 0.0
C685 C 1.00712 0.12285 0.49661 0.0
C686 C 1.00236 0.13215 0.56388 0.0
C687 C 0.02003 0.13367 0.44716 0.0
C688 C 0.05304 0.18403 0.41703 0.0
H689 H 0.02448 0.2446 0.12735 0.0
H690 H 0.02105 0.21318 0.20509 0.0
H691 H 0.07067 0.21137 0.37618 0.0
H692 H 1.00799 0.1603 0.63177 0.0
H693 H 0.02862 0.18034 0.54195 0.0
H694 H 0.01841 0.15271 0.31731 0.0
C695 C 0.03689 0.22057 0.19887 0.0
C696 C 0.05989 0.19807 0.36249 0.0
C697 C 0.03877 0.23853 0.15436 0.0
C698 C 0.01099 0.15274 0.58017 0.0
C699 C 0.02327 0.16404 0.52908 0.0
C700 C 0.0305 0.16479 0.33116 0.0
C701 C 0.05482 0.21321 0.23849 0.0
C702 C 0.05159 0.19587 0.2924 0.0
C703 C 0.02756 0.15477 0.46125 0.0
C704 C 0.03763 0.16769 0.40251 0.0
H705 H 0.0922 0.25012 0.18049 0.0
H706 H 0.08904 0.21829 0.25976 0.0
H707 H 0.03125 0.17615 0.22301 0.0
H708 H 1.00025 0.10744 0.4804 0.0
H709 H 0.0234 0.12567 0.39657 0.0
C710 C 0.31005 0.08061 0.11828 0.0
C711 C 0.2976 0.0672 0.16299 0.0
C712 C 0.33065 0.08753 0.14015 0.0
C713 C 0.368 0.08899 0.29857 0.0
H714 H 0.41212 0.07654 0.15644 0.0
C715 C 0.44648 0.04557 0.35687 0.0
C716 C 0.46536 0.05017 0.31727 0.0
C717 C 0.42759 0.05736 0.34548 0.0
C718 C 0.40009 0.08073 0.19642 0.0
H719 H 0.29637 0.05058 0.26497 0.0
H720 H 0.33226 0.06241 0.30355 0.0
H721 H 0.37447 0.07915 0.11928 0.0
H722 H 0.47956 0.07241 0.23982 0.0
H723 H 0.4461 0.09234 0.21768 0.0
H724 H 0.39359 0.08869 0.37653 0.0
C725 C 0.32613 0.06818 0.25251 0.0
C726 C 0.37845 0.08223 0.17512 0.0
C727 C 0.30564 0.06129 0.23053 0.0
C728 C 0.46519 0.06794 0.26974 0.0
C729 C 0.44612 0.07954 0.25751 0.0
C730 C 0.38962 0.08731 0.31994 0.0
C731 C 0.33907 0.08106 0.20709 0.0
C732 C 0.36206 0.08525 0.22654 0.0
C733 C 0.42697 0.07384 0.29358 0.0
C734 C 0.40569 0.08209 0.26952 0.0
H735 H 0.30401 0.08522 0.06582 0.0
H736 H 0.34019 0.09748 0.10403 0.0
H737 H 0.35578 0.09187 0.33919 0.0
H738 H 0.4457 0.0319 0.39322 0.0
H739 H 0.41299 0.05238 0.37339 0.0
C740 C 0.48305 0.31324 0.17913 0.0
C741 C 0.46974 0.29498 0.16991 0.0
C742 C 0.47566 0.33108 0.21764 0.0
C743 C 0.45506 0.34146 0.37678 0.0
H744 H 0.45595 0.40161 0.31687 0.0
C745 C 0.49842 0.40431 0.54992 0.0
C746 C 0.51346 0.41608 0.5087 0.0
C747 C 0.4812 0.39339 0.51638 0.0
C748 C 0.45539 0.38492 0.33493 0.0
H749 H 0.43797 0.28129 0.1902 0.0
H750 H 0.42556 0.31216 0.2637 0.0
H751 H 0.44587 0.37339 0.23074 0.0
H752 H 0.52218 0.42603 0.40088 0.0
H753 H 0.49299 0.40664 0.34248 0.0
H754 H 0.4678 0.35231 0.47717 0.0
C755 C 0.44135 0.31283 0.2384 0.0
C756 C 0.44928 0.36886 0.28585 0.0
C757 C 0.44851 0.29522 0.19731 0.0
C758 C 0.5107 0.41724 0.43401 0.0
C759 C 0.4937 0.40631 0.40063 0.0
C760 C 0.4617 0.35744 0.42534 0.0
C761 C 0.4551 0.33067 0.24967 0.0
C762 C 0.45062 0.34697 0.3052 0.0
C763 C 0.47889 0.39394 0.44106 0.0
C764 C 0.46369 0.37912 0.40278 0.0
H765 H 0.49962 0.31323 0.16018 0.0
H766 H 0.48668 0.34453 0.22722 0.0
H767 H 0.45629 0.32458 0.39247 0.0
H768 H 0.50004 0.4035 0.60786 0.0
H769 H 0.47005 0.3841 0.54916 0.0
C770 C 0.22511 0.46433 0.11138 0.0
C771 C 0.23608 0.47619 0.16477 0.0
C772 C 0.20265 0.46147 0.11515 0.0
C773 C 0.15494 0.46833 0.23418 0.0
H774 H 0.12785 0.49407 0.06666 0.0
C775 C 0.0873 0.53446 0.18991 0.0
C776 C 0.0732 0.52814 0.24519 0.0
C777 C 0.10249 0.51983 0.16291 0.0
C778 C 0.13506 0.4866 0.11356 0.0
H779 H 0.23286 0.493 0.266 0.0
H780 H 0.1938 0.48741 0.27468 0.0
H781 H 0.16549 0.4823 0.06047 0.0
H782 H 0.06171 0.50103 0.30858 0.0
H783 H 0.08793 0.47525 0.26033 0.0
H784 H 0.1254 0.47434 0.28956 0.0
C785 C 0.20236 0.48028 0.2297 0.0
C786 C 0.15656 0.47963 0.10977 0.0
C787 C 0.2247 0.48343 0.22516 0.0
C788 C 0.0728 0.50634 0.26701 0.0
C789 C 0.08782 0.49164 0.23947 0.0
C790 C 0.13351 0.47532 0.23809 0.0
C791 C 0.19097 0.47008 0.17329 0.0
C792 C 0.16702 0.47149 0.17122 0.0
C793 C 0.10371 0.49858 0.19039 0.0
C794 C 0.12369 0.48561 0.17899 0.0
H795 H 0.23374 0.45864 0.0644 0.0
H796 H 0.1943 0.45349 0.07111 0.0
H797 H 0.16253 0.46184 0.28205 0.0
H798 H 0.08789 0.55117 0.17209 0.0
H799 H 0.11447 0.52583 0.12532 0.0
C800 C 0.95147 0.79189 0.16774 0.0
C801 C 0.97294 0.79174 0.19332 0.0
C802 C 0.94412 0.80911 0.12536 0.0
C803 C 0.95933 0.83629 0.98363 0.0
H804 H 0.95827 0.89685 0.03945 0.0
C805 C 1.00547 0.89902 0.81778 0.0
C806 C 0.01914 0.91156 0.86187 0.0
C807 C 0.98799 0.88764 0.84771 0.0
C808 C 0.95827 0.88003 0.02244 0.0
H809 H 1.00299 0.80992 0.19877 0.0
H810 H 0.98969 0.84062 0.13037 0.0
H811 H 0.94679 0.86913 0.12493 0.0
H812 H 0.02538 0.92227 0.9709 0.0
H813 H 0.99581 0.90197 0.02342 0.0
H814 H 0.97409 0.84658 0.88592 0.0
C815 C 0.97865 0.82735 0.14211 0.0
C816 C 0.95132 0.86425 0.07102 0.0
C817 C 0.98623 0.80987 0.1817 0.0
C818 C 0.01497 0.9128 0.93576 0.0
C819 C 0.99774 0.9014 0.9656 0.0
C820 C 0.96683 0.852 0.93573 0.0
C821 C 0.95793 0.82668 0.11121 0.0
C822 C 0.95342 0.84225 0.05368 0.0
C823 C 0.98406 0.88853 0.92223 0.0
C824 C 0.96815 0.87384 0.95736 0.0
H825 H 0.94094 0.77806 0.17666 0.0
H826 H 0.92818 0.80826 0.10101 0.0
H827 H 0.96117 0.81933 0.96953 0.0
H828 H 1.00822 0.89815 0.76033 0.0
H829 H 0.97779 0.87791 0.81276 0.0
C830 C 0.7313 0.97418 0.12447 0.0
C831 C 0.7422 0.97139 0.18986 0.0
C832 C 0.70957 0.9682 0.11795 0.0
C833 C 0.66233 0.96905 0.22879 0.0
H834 H 0.63406 0.9499 0.05332 0.0
C835 C 0.57426 0.97346 0.07234 0.0
C836 C 0.57214 0.99614 0.07301 0.0
C837 C 0.59266 0.96376 0.102 0.0
C838 C 0.64159 0.95483 0.10343 0.0
H839 H 0.73991 0.95845 0.29745 0.0
H840 H 0.70142 0.94863 0.28726 0.0
H841 H 0.67251 0.94239 0.07164 0.0
H842 H 0.58653 0.02641 0.10839 0.0
H843 H 0.61851 1.00951 0.16137 0.0
H844 H 0.63183 0.98298 0.25805 0.0
C845 C 0.7097 0.95534 0.241 0.0
C846 C 0.6636 0.95064 0.11368 0.0
C847 C 0.73159 0.961 0.24696 0.0
C848 C 0.58793 1.00889 0.10731 0.0
C849 C 0.60608 0.9992 0.13804 0.0
C850 C 0.6404 0.97351 0.21812 0.0
C851 C 0.69832 0.95959 0.17714 0.0
C852 C 0.67436 0.95856 0.17496 0.0
C853 C 0.60892 0.97661 0.13386 0.0
C854 C 0.6301 0.96724 0.15393 0.0
H855 H 0.73913 0.98247 0.08025 0.0
H856 H 0.70115 0.97197 0.0684 0.0
H857 H 0.67024 0.97536 0.27648 0.0
H858 H 0.56225 0.96338 0.04573 0.0
H859 H 0.59452 0.94633 0.098 0.0
C860 C 0.56206 0.73216 0.18767 0.0
C861 C 0.57284 0.75175 0.20203 0.0
C862 C 0.57306 0.71493 0.15644 0.0
C863 C 0.60522 0.6794 0.10848 0.0
H864 H 0.59467 0.69355 0.90865 0.0
C865 C 0.54946 0.6305 0.94382 0.0
C866 C 0.5488 0.63138 0.8685 0.0
C867 C 0.566 0.64078 0.98176 0.0
C868 C 0.59867 0.6891 0.96334 0.0
H869 H 0.60375 0.76846 0.19828 0.0
H870 H 0.62274 0.7386 0.13677 0.0
H871 H 0.6012 0.72241 0.99468 0.0
H872 H 0.56586 0.64241 0.77344 0.0
H873 H 0.59488 0.6608 0.84024 0.0
H874 H 0.60109 0.64616 0.07838 0.0
C875 C 0.606 0.73647 0.15288 0.0
C876 C 0.60249 0.70576 0.01275 0.0
C877 C 0.59512 0.75351 0.187 0.0
C878 C 0.56575 0.64184 0.83165 0.0
C879 C 0.58244 0.65219 0.86985 0.0
C880 C 0.60196 0.66269 0.05881 0.0
C881 C 0.59486 0.71721 0.13651 0.0
C882 C 0.60365 0.70106 0.08636 0.0
C883 C 0.58239 0.65232 0.94553 0.0
C884 C 0.59629 0.66758 0.98731 0.0
H885 H 0.54481 0.73058 0.19661 0.0
H886 H 0.56403 0.70038 0.14253 0.0
H887 H 0.60619 0.67547 0.16514 0.0
H888 H 0.53653 0.62283 0.97397 0.0
H889 H 0.56493 0.64092 0.03986 0.0
C890 C 0.80254 0.58158 0.15296 0.0
C891 C 0.79901 0.56103 0.18344 0.0
C892 C 0.82168 0.5859 0.11514 0.0
C893 C 0.87676 0.56471 0.08159 0.0
H894 H 0.86525 0.57638 0.88045 0.0
C895 C 0.93356 0.52958 0.87899 0.0
C896 C 0.92222 0.51655 0.82912 0.0
C897 C 0.92314 0.54651 0.91466 0.0
C898 C 0.86887 0.57337 0.93653 0.0
H899 H 0.81254 0.52914 0.19998 0.0
H900 H 0.84613 0.53675 0.13678 0.0
H901 H 0.83758 0.5843 0.97025 0.0
H902 H 0.89201 0.51327 0.77027 0.0
H903 H 0.87339 0.54153 0.83599 0.0
H904 H 0.90692 0.55164 0.04836 0.0
C905 C 0.83437 0.54965 0.14225 0.0
C906 C 0.85311 0.57816 0.98805 0.0
C907 C 0.81518 0.54525 0.17848 0.0
C908 C 0.90096 0.52236 0.81047 0.0
C909 C 0.89041 0.539 0.84723 0.0
C910 C 0.89241 0.5598 0.03029 0.0
C911 C 0.83765 0.56984 0.10883 0.0
C912 C 0.85642 0.57246 0.06029 0.0
C913 C 0.90101 0.55045 0.90273 0.0
C914 C 0.88805 0.56266 0.95659 0.0
H915 H 0.79021 0.59397 0.15662 0.0
H916 H 0.8238 0.60153 0.0895 0.0
H917 H 0.8798 0.56051 0.13723 0.0
H918 H 0.95001 0.52584 0.89475 0.0
H919 H 0.93201 0.55543 0.9555 0.0
C920 C 0.0283 0.25001 0.96391 0.0
C921 C 0.04866 0.2552 0.99348 0.0
C922 C 0.02524 0.23066 0.92436 0.0
C923 C 0.05535 0.18562 0.83087 0.0
H924 H 1.00312 0.15227 0.86657 0.0
C925 C 0.0388 0.10225 0.68924 0.0
C926 C 0.02977 0.08569 0.73185 0.0
C927 C 0.0402 0.12374 0.71501 0.0
C928 C 0.01788 0.16127 0.85604 0.0
H929 H 0.08172 0.24435 1.00384 0.0
H930 H 0.07665 0.21096 0.93485 0.0
H931 H 1.00745 0.18809 0.92099 0.0
H932 H 0.01435 0.07909 0.83404 0.0
H933 H 0.01695 0.11616 0.87907 0.0
H934 H 0.06604 0.15855 0.76758 0.0
C935 C 0.06299 0.22176 0.94099 0.0
C936 C 0.02025 0.18206 0.88668 0.0
C937 C 0.06595 0.24094 0.9807 0.0
C938 C 0.02172 0.09131 0.80009 0.0
C939 C 0.02297 0.11274 0.82562 0.0
C940 C 0.05294 0.16488 0.79998 0.0
C941 C 0.0425 0.21604 0.91305 0.0
C942 C 0.03917 0.1945 0.87552 0.0
C943 C 0.03234 0.12935 0.78381 0.0
C944 C 0.0343 0.15218 0.81286 0.0
H945 H 0.01454 0.26039 0.97423 0.0
H946 H 1.00925 0.22702 0.90347 0.0
H947 H 0.07005 0.19468 0.81995 0.0
H948 H 0.04502 0.09856 0.6362 0.0
H949 H 0.0473 0.136 0.68062 0.0
C950 C 0.29441 0.04436 0.96479 0.0
C951 C 0.29361 0.03773 0.03694 0.0
C952 C 0.31328 0.04132 0.92349 0.0
C953 C 0.36625 1.01132 0.92021 0.0
H954 H 0.38425 0.05734 0.79136 0.0
C955 C 0.45383 0.01653 0.80967 0.0
C956 C 0.45746 0.0239 0.73909 0.0
C957 C 0.43313 0.01715 0.84052 0.0
C958 C 0.37938 0.04415 0.82626 0.0
H959 H 0.31178 0.02254 0.12217 0.0
H960 H 0.34465 0.01722 0.05112 0.0
H961 H 0.3497 0.06004 0.85457 0.0
H962 H 0.44186 0.03773 0.64566 0.0
H963 H 0.4055 0.03869 0.69933 0.0
H964 H 0.39601 0.99557 0.89274 0.0
C965 C 0.33071 0.02446 0.02533 0.0
C966 C 0.35945 0.04569 0.86271 0.0
C967 C 0.31187 0.0275 0.06636 0.0
C968 C 0.43964 0.03178 0.69991 0.0
C969 C 0.41882 0.03251 0.73106 0.0
C970 C 0.38614 1.0098 0.88393 0.0
C971 C 0.33189 0.03158 0.95337 0.0
C972 C 0.35264 0.02941 0.91101 0.0
C973 C 0.41524 0.02523 0.80206 0.0
C974 C 0.39321 0.02631 0.83698 0.0
H975 H 0.28069 0.05263 0.94125 0.0
H976 H 0.31332 0.04682 0.86826 0.0
H977 H 0.36153 0.99818 0.95551 0.0
H978 H 0.46711 1.01035 0.84168 0.0
H979 H 0.43129 1.0117 0.89549 0.0
C980 C 0.51476 0.30023 0.0136 0.0
C981 C 0.49401 0.2922 0.03073 0.0
C982 C 0.51726 0.31999 0.97605 0.0
C983 C 0.48813 0.3718 0.94339 0.0
H984 H 0.53054 0.38159 0.79351 0.0
C985 C 0.49119 0.45398 0.78938 0.0
C986 C 0.51123 0.4619 0.76434 0.0
C987 C 0.48928 0.433 0.81858 0.0
C988 C 0.51878 0.37939 0.83603 0.0
H989 H 0.45972 0.29816 0.01861 0.0
H990 H 0.46396 0.33242 0.95388 0.0
H991 H 0.5274 0.3458 0.84896 0.0
H992 H 0.54505 0.45352 0.75099 0.0
H993 H 0.54191 0.41736 0.80255 0.0
H994 H 0.47984 0.40532 0.93268 0.0
C995 C 0.47837 0.3237 0.9699 0.0
C996 C 0.51694 0.35868 0.86774 0.0
C997 C 0.47591 0.30393 1.00649 0.0
C998 C 0.52927 0.44803 0.76897 0.0
C999 C 0.52741 0.42709 0.79856 0.0
C1000 C 0.49014 0.39253 0.91248 0.0
C1001 C 0.49908 0.33234 0.95536 0.0
C1002 C 0.50146 0.3545 0.92161 0.0
C1003 C 0.50738 0.41914 0.82436 0.0
C1004 C 0.50541 0.39677 0.85778 0.0
H1005 H 0.52903 0.29185 0.03258 0.0
H1006 H 0.53347 0.32608 0.96621 0.0
H1007 H 0.47628 0.36944 0.98561 0.0
H1008 H 0.47683 0.46396 0.78603 0.0
H1009 H 0.47341 0.42763 0.83592 0.0
C1010 C 0.24165 0.49781 0.98593 0.0
C1011 C 0.24466 0.50819 0.0525 0.0
C1012 C 0.22246 0.50074 0.94634 0.0
C1013 C 0.17505 0.53624 0.91899 0.0
H1014 H 0.14562 0.48357 0.85882 0.0
C1015 C 0.08902 0.53898 0.78845 0.0
C1016 C 0.08324 0.52286 0.73838 0.0
C1017 C 0.10849 0.53759 0.82762 0.0
C1018 C 0.15368 0.49855 0.87363 0.0
H1019 H 0.23019 0.53008 0.12914 0.0
H1020 H 0.19704 0.53617 0.05848 0.0
H1021 H 0.18036 0.48134 0.92058 0.0
H1022 H 0.09358 0.49288 0.68903 0.0
H1023 H 0.12785 0.49087 0.75386 0.0
H1024 H 0.14892 0.5536 0.87019 0.0
C1025 C 0.20948 0.5257 0.03681 0.0
C1026 C 0.17367 0.49721 0.90961 0.0
C1027 C 0.22853 0.52244 0.07694 0.0
C1028 C 0.09754 0.50551 0.72753 0.0
C1029 C 0.11718 0.5043 0.76556 0.0
C1030 C 0.15525 0.53763 0.88162 0.0
C1031 C 0.20591 0.5144 0.97189 0.0
C1032 C 0.18466 0.51602 0.93279 0.0
C1033 C 0.12303 0.52024 0.81681 0.0
C1034 C 0.14416 0.51881 0.85803 0.0
H1035 H 0.25357 0.48631 0.96698 0.0
H1036 H 0.22034 0.49188 0.89646 0.0
H1037 H 0.18309 0.55107 0.93578 0.0
H1038 H 0.07816 0.55239 0.79882 0.0
H1039 H 0.11187 0.55002 0.86729 0.0
C1040 C 0.02008 0.79841 0.33766 0.0
C1041 C 0.99939 0.78915 0.32813 0.0
C1042 C 0.02267 0.81832 0.37443 0.0
C1043 C 0.99048 0.86747 0.42729 0.0
H1044 H 0.04185 0.88284 0.53625 0.0
C1045 C 1.00601 0.9563 0.52031 0.0
C1046 C 0.01643 0.96018 0.58656 0.0
C1047 C 1.00437 0.93523 0.49163 0.0
C1048 C 0.02726 0.87885 0.50662 0.0
H1049 H 0.96545 0.79297 0.35271 0.0
H1050 H 0.96985 0.827 0.4187 0.0
H1051 H 0.03825 0.84642 0.48549 0.0
H1052 H 0.03302 0.94448 0.67457 0.0
H1053 H 0.02996 0.90775 0.62555 0.0
H1054 H 0.9792 0.89958 0.44949 0.0
C1055 C 0.98413 0.81944 0.3963 0.0
C1056 C 0.02531 0.8579 0.47655 0.0
C1057 C 0.98158 0.7997 0.35934 0.0
C1058 C 0.02512 0.94222 0.6232 0.0
C1059 C 0.0234 0.92108 0.5947 0.0
C1060 C 0.99241 0.88833 0.45737 0.0
C1061 C 1.00463 0.82948 0.40288 0.0
C1062 C 1.00686 0.8518 0.43628 0.0
C1063 C 0.01295 0.91716 0.52829 0.0
C1064 C 0.01086 0.89451 0.49737 0.0
H1065 H 0.03405 0.79092 0.31296 0.0
H1066 H 0.03872 0.82541 0.37751 0.0
H1067 H 0.97615 0.86379 0.39586 0.0
H1068 H 0.99931 0.96962 0.48974 0.0
H1069 H 0.99659 0.93322 0.43985 0.0
C1070 C 0.74637 0.99908 0.36374 0.0
C1071 C 0.7483 1.007 0.29335 0.0
C1072 C 0.72713 1.00199 0.40306 0.0
C1073 C 0.66808 0.01485 0.37377 0.0
H1074 H 0.66641 0.01387 0.58191 0.0
C1075 C 0.58657 1.0042 0.52353 0.0
C1076 C 0.58328 0.01458 0.59022 0.0
C1077 C 0.60702 1.00392 0.49075 0.0
C1078 C 0.66644 0.0144 0.52376 0.0
H1079 H 0.73201 0.02484 0.2098 0.0
H1080 H 0.69904 0.03131 0.27911 0.0
H1081 H 0.70116 0.01427 0.52031 0.0
H1082 H 0.59971 0.03221 0.67541 0.0
H1083 H 0.63518 0.03245 0.61725 0.0
H1084 H 0.63348 0.01579 0.37695 0.0
C1085 C 0.71193 0.02215 0.30399 0.0
C1086 C 0.68656 0.0143 0.48803 0.0
C1087 C 0.73105 0.01892 0.26449 0.0
C1088 C 0.6014 0.02423 0.62386 0.0
C1089 C 0.62191 0.02419 0.59048 0.0
C1090 C 0.64803 0.01512 0.40939 0.0
C1091 C 0.70929 0.01313 0.37326 0.0
C1092 C 0.68779 0.01433 0.41222 0.0
C1093 C 0.62505 0.01424 0.52279 0.0
C1094 C 0.64676 0.01466 0.4851 0.0
H1095 H 0.75923 0.98933 0.38635 0.0
H1096 H 0.72594 0.99445 0.45538 0.0
H1097 H 0.66794 0.01462 0.31562 0.0
H1098 H 0.57326 0.99627 0.49592 0.0
H1099 H 0.60862 0.99546 0.44001 0.0
C1100 C 0.52087 0.74197 0.32758 0.0
C1101 C 0.5411 0.75253 0.32385 0.0
C1102 C 0.51843 0.72242 0.36618 0.0
C1103 C 0.55126 0.6759 0.43659 0.0
H1104 H 0.49871 0.66094 0.53918 0.0
C1105 C 0.54464 0.59707 0.60944 0.0
C1106 C 0.52474 0.58584 0.60999 0.0
C1107 C 0.54655 0.61758 0.57667 0.0
C1108 C 0.51346 0.66466 0.51013 0.0
H1109 H 0.57433 0.75123 0.36014 0.0
H1110 H 0.57014 0.71758 0.4282 0.0
H1111 H 0.50177 0.69617 0.48021 0.0
H1112 H 0.4912 0.58762 0.57621 0.0
H1113 H 0.49447 0.62304 0.51885 0.0
H1114 H 0.56289 0.64436 0.46584 0.0
C1115 C 0.55616 0.724 0.40038 0.0
C1116 C 0.51522 0.68501 0.47616 0.0
C1117 C 0.55855 0.74349 0.36204 0.0
C1118 C 0.50677 0.59579 0.57727 0.0
C1119 C 0.50866 0.61625 0.54447 0.0
C1120 C 0.54948 0.65556 0.47039 0.0
C1121 C 0.53618 0.71283 0.40199 0.0
C1122 C 0.53417 0.69104 0.43884 0.0
C1123 C 0.52857 0.62756 0.54349 0.0
C1124 C 0.53055 0.64952 0.50783 0.0
H1125 H 0.50724 0.74821 0.29751 0.0
H1126 H 0.50281 0.71436 0.36531 0.0
H1127 H 0.56598 0.67957 0.40736 0.0
H1128 H 0.55876 0.59007 0.63493 0.0
H1129 H 0.56212 0.62572 0.57828 0.0
C1130 C 0.79908 0.52098 0.35189 0.0
C1131 C 0.79284 0.54178 0.32922 0.0
C1132 C 0.81814 0.51803 0.39265 0.0
C1133 C 0.861 0.54826 0.4992 0.0
H1134 H 0.89615 0.49821 0.45343 0.0
C1135 C 0.94423 0.53275 0.64161 0.0
C1136 C 0.96108 0.52446 0.59884 0.0
C1137 C 0.92283 0.53379 0.61504 0.0
C1138 C 0.88669 0.51241 0.4668 0.0
H1139 H 0.80133 0.57579 0.33361 0.0
H1140 H 0.83437 0.57086 0.40372 0.0
H1141 H 0.86082 0.50236 0.39709 0.0
H1142 H 0.96822 0.50968 0.49598 0.0
H1143 H 0.93156 0.51212 0.44896 0.0
H1144 H 0.88727 0.55871 0.56683 0.0
C1145 C 0.82461 0.5567 0.39131 0.0
C1146 C 0.86612 0.51463 0.43503 0.0
C1147 C 0.80563 0.55959 0.35079 0.0
C1148 C 0.9558 0.5166 0.52995 0.0
C1149 C 0.93456 0.51772 0.50328 0.0
C1150 C 0.88161 0.54605 0.5309 0.0
C1151 C 0.8315 0.53583 0.41191 0.0
C1152 C 0.85295 0.53272 0.44995 0.0
C1153 C 0.91765 0.52646 0.54499 0.0
C1154 C 0.89498 0.52821 0.51462 0.0
H1155 H 0.78981 0.5069 0.33514 0.0
H1156 H 0.82256 0.50171 0.40803 0.0
H1157 H 0.8514 0.56229 0.51328 0.0
H1158 H 0.94763 0.53883 0.69515 0.0
H1159 H 0.91035 0.5403 0.64963 0.0
loop_
_geom_bond_atom_site_label_1
_geom_bond_atom_site_label_2
_geom_bond_distance
_geom_bond_site_symmetry_2
_ccdc_geom_bond_type
C0 N1 1.317 . S
C0 N2 1.348 . S
C0 C3 1.485 . S
N1 C0 1.317 . S
N1 N5 1.370 . S
N2 C0 1.348 . S
N2 C4 1.346 . S
C3 C0 1.485 . S
C3 H7 0.960 . S
C3 H8 0.961 . S
C3 H9 0.960 . S
C4 N2 1.346 . S
C4 N5 1.307 . S
C4 C6 1.486 . S
N5 N1 1.370 . S
N5 C4 1.307 . S
C6 C4 1.486 . S
C6 H10 0.960 . S
C6 H11 0.960 . S
C6 H12 0.959 . S
H7 C3 0.960 . S
H8 C3 0.961 . S
H9 C3 0.960 . S
H10 C6 0.960 . S
H11 C6 0.960 . S
H12 C6 0.959 . S
C13 N14 1.317 . S
C13 N15 1.348 . S
C13 C16 1.485 . S
N14 C13 1.317 . S
N14 N18 1.370 . S
N15 C13 1.348 . S
N15 C17 1.346 . S
C16 C13 1.485 . S
C16 H20 0.960 . S
C16 H21 0.961 . S
C16 H22 0.960 . S
C17 N15 1.346 . S
C17 N18 1.307 . S
C17 C19 1.486 . S
N18 N14 1.370 . S
N18 C17 1.307 . S
C19 C17 1.486 . S
C19 H23 0.960 . S
C19 H24 0.960 . S
C19 H25 0.959 . S
H20 C16 0.960 . S
H21 C16 0.961 . S
H22 C16 0.960 . S
H23 C19 0.960 . S
H24 C19 0.960 . S
H25 C19 0.959 . S
C26 N27 1.317 . S
C26 N28 1.348 . S
C26 C29 1.485 . S
N27 C26 1.317 . S
N27 N31 1.370 . S
N28 C26 1.348 . S
N28 C30 1.346 . S
C29 C26 1.485 . S
C29 H33 0.960 . S
C29 H34 0.961 . S
C29 H35 0.960 . S
C30 N28 1.346 . S
C30 N31 1.307 . S
C30 C32 1.486 . S
N31 N27 1.370 . S
N31 C30 1.307 . S
C32 C30 1.486 . S
C32 H36 0.960 . S
C32 H37 0.960 . S
C32 H38 0.959 . S
H33 C29 0.960 . S
H34 C29 0.961 . S
H35 C29 0.960 . S
H36 C32 0.960 . S
H37 C32 0.960 . S
H38 C32 0.959 . S
C39 N40 1.317 . S
C39 N41 1.348 . S
C39 C42 1.485 . S
N40 C39 1.317 . S
N40 N44 1.370 . S
N41 C39 1.348 . S
N41 C43 1.346 . S
C42 C39 1.485 . S
C42 H46 0.960 . S
C42 H47 0.961 . S
C42 H48 0.960 . S
C43 N41 1.346 . S
C43 N44 1.307 . S
C43 C45 1.486 . S
N44 N40 1.370 . S
N44 C43 1.307 . S
C45 C43 1.486 . S
C45 H49 0.960 . S
C45 H50 0.960 . S
C45 H51 0.959 . S
H46 C42 0.960 . S
H47 C42 0.961 . S
H48 C42 0.960 . S
H49 C45 0.960 . S
H50 C45 0.960 . S
H51 C45 0.959 . S
C52 N53 1.316 1_556 S
C52 N54 1.348 1_556 S
C52 C55 1.485 . S
N53 C52 1.316 1_554 S
N53 N57 1.385 . S
N54 C52 1.348 1_554 S
N54 C56 1.346 . S
C55 C52 1.485 . S
C55 H59 0.960 . S
C55 H60 0.961 . S
C55 H61 0.960 . S
C56 N54 1.346 . S
C56 N57 1.307 . S
C56 C58 1.486 . S
N57 N53 1.385 . S
N57 C56 1.307 . S
C58 C56 1.486 . S
C58 H62 0.960 . S
C58 H63 0.960 . S
C58 H64 0.959 . S
H59 C55 0.960 . S
H60 C55 0.961 . S
H61 C55 0.960 . S
H62 C58 0.960 . S
H63 C58 0.960 . S
H64 C58 0.959 . S
C65 N66 1.317 1_556 S
C65 N67 1.348 1_556 S
C65 C68 1.485 . S
N66 C65 1.317 1_554 S
N66 N70 1.370 . S
N67 C65 1.348 1_554 S
N67 C69 1.346 . S
C68 C65 1.485 . S
C68 H72 0.960 . S
C68 H73 0.961 . S
C68 H74 0.960 . S
C69 N67 1.346 . S
C69 N70 1.307 . S
C69 C71 1.486 . S
N70 N66 1.370 . S
N70 C69 1.307 . S
C71 C69 1.486 . S
C71 H75 0.960 . S
C71 H76 0.960 . S
C71 H77 0.959 . S
H72 C68 0.960 . S
H73 C68 0.961 . S
H74 C68 0.960 . S
H75 C71 0.960 . S
H76 C71 0.960 . S
H77 C71 0.959 . S
C78 N79 1.317 1_556 S
C78 N80 1.348 1_556 S
C78 C81 1.485 . S
N79 C78 1.317 1_554 S
N79 N83 1.370 . S
N80 C78 1.348 1_554 S
N80 C82 1.346 . S
C81 C78 1.485 . S
C81 H85 0.960 . S
C81 H86 0.961 . S
C81 H87 0.960 . S
C82 N80 1.346 . S
C82 N83 1.307 . S
C82 C84 1.486 . S
N83 N79 1.370 . S
N83 C82 1.307 . S
C84 C82 1.486 . S
C84 H88 0.960 . S
C84 H89 0.960 . S
C84 H90 0.959 . S
H85 C81 0.960 . S
H86 C81 0.961 . S
H87 C81 0.960 . S
H88 C84 0.960 . S
H89 C84 0.960 . S
H90 C84 0.959 . S
C91 N92 1.319 . S
C91 N93 1.348 1_556 S
C91 C94 1.485 . S
N92 C91 1.319 . S
N92 N96 1.355 1_556 S
N93 C91 1.348 1_554 S
N93 C95 1.346 . S
C94 C91 1.485 . S
C94 H98 0.960 . S
C94 H99 0.961 . S
C94 H100 0.960 . S
C95 N93 1.346 . S
C95 N96 1.307 . S
C95 C97 1.486 . S
N96 N92 1.355 1_554 S
N96 C95 1.307 . S
C97 C95 1.486 . S
C97 H101 0.960 . S
C97 H102 0.960 . S
C97 H103 0.959 . S
H98 C94 0.960 . S
H99 C94 0.961 . S
H100 C94 0.960 . S
H101 C97 0.960 . S
H102 C97 0.960 . S
H103 C97 0.959 . S
Eu104 N133 2.600 . S
Eu104 N139 2.562 . S
Eu104 O148 2.462 1_655 S
Eu104 O149 2.373 1_545 S
Eu104 O151 2.432 . S
Eu104 O152 2.291 1_655 S
Eu104 O156 2.335 1_655 S
Eu104 O159 2.372 . S
Eu104 C168 2.787 . S
C105 N106 1.365 . S
C105 C108 1.405 . S
C105 C112 1.448 . S
N106 C105 1.365 . S
N106 C109 1.319 . S
N106 Eu115 2.600 1_545 S
C107 C109 1.397 . S
C107 C110 1.367 . S
C107 H127 0.931 . S
C108 C105 1.405 . S
C108 C110 1.403 . S
C108 C114 1.439 . S
C109 N106 1.319 . S
C109 C107 1.397 . S
C109 H120 0.930 1_545 S
C110 C107 1.367 . S
C110 C108 1.403 . S
C110 H131 0.929 . S
C111 C112 1.430 . S
C111 C113 1.387 . S
C111 C117 1.404 . S
C112 C105 1.448 . S
C112 C111 1.430 . S
C112 N116 1.351 . S
C113 C111 1.387 . S
C113 C114 1.374 . S
C113 H128 0.931 1_556 S
C114 C108 1.439 . S
C114 C113 1.374 . S
C114 H129 0.931 . S
Eu115 N106 2.600 1_565 S
Eu115 N116 2.562 1_565 S
Eu115 O150 2.335 . S
Eu115 O153 2.371 1_565 S
Eu115 O154 2.462 . S
Eu115 O155 2.373 1_565 S
Eu115 O157 2.432 . S
Eu115 O158 2.291 1_465 S
Eu115 C179 2.787 . S
N116 C112 1.351 . S
N116 Eu115 2.562 1_545 S
N116 C118 1.325 . S
C117 C111 1.404 . S
C117 C119 1.366 . S
C117 H125 0.930 1_556 S
C118 N116 1.325 . S
C118 C119 1.416 . S
C118 H124 0.929 1_455 S
C119 C117 1.366 . S
C119 C118 1.416 . S
C119 H121 0.930 1_455 S
H120 C109 0.930 1_565 S
H121 C119 0.930 1_655 S
H122 C137 0.930 . S
H123 C144 0.935 . S
H124 C118 0.929 1_655 S
H125 C117 0.930 1_554 S
H126 C140 0.929 . S
H127 C107 0.931 . S
H128 C113 0.931 1_554 S
H129 C114 0.931 . S
H130 C135 0.931 . S
H131 C110 0.929 . S
H132 C143 0.930 . S
N133 Eu104 2.600 . S
N133 C134 1.365 . S
N133 C137 1.319 . S
C134 N133 1.365 . S
C134 C136 1.405 1_545 S
C134 C142 1.448 . S
C135 H130 0.931 . S
C135 C137 1.397 . S
C135 C138 1.379 . S
C136 C134 1.405 1_565 S
C136 C138 1.400 1_565 S
C136 C169 1.439 . S
C137 H122 0.930 . S
C137 N133 1.319 . S
C137 C135 1.397 . S
C138 C135 1.379 . S
C138 C136 1.400 1_545 S
C138 H145 0.921 1_545 S
N139 Eu104 2.562 . S
N139 C140 1.325 1_655 S
N139 C142 1.351 . S
C140 H126 0.929 . S
C140 N139 1.325 1_455 S
C140 C144 1.395 1_545 S
C141 C142 1.430 1_565 S
C141 C143 1.404 . S
C141 C170 1.387 . S
C142 C134 1.448 . S
C142 N139 1.351 . S
C142 C141 1.430 1_545 S
C143 H132 0.930 . S
C143 C141 1.404 . S
C143 C144 1.383 1_655 S
C144 H123 0.935 . S
C144 C140 1.395 1_565 S
C144 C143 1.383 1_455 S
H145 C138 0.921 1_565 S
H146 C169 0.931 . S
H147 C170 0.931 . S
O148 Eu104 2.462 1_455 S
O148 C168 1.252 1_455 S
O149 Eu104 2.373 1_565 S
O149 C160 1.249 . S
O150 Eu115 2.335 . S
O150 C160 1.264 1_455 S
O151 Eu104 2.432 . S
O151 C168 1.268 . S
O152 Eu104 2.291 1_455 S
O152 C167 1.255 . S
O153 Eu115 2.371 1_545 S
O153 C167 1.258 . S
O154 Eu115 2.462 . S
O154 C179 1.252 . S
O155 Eu115 2.373 1_545 S
O155 C171 1.249 . S
O156 Eu104 2.335 1_455 S
O156 C171 1.264 . S
O157 Eu115 2.432 . S
O157 C179 1.268 . S
O158 Eu115 2.291 1_645 S
O158 C178 1.255 . S
O159 Eu104 2.372 . S
O159 C178 1.257 . S
C160 O149 1.249 . S
C160 O150 1.264 1_655 S
C161 C164 1.382 . S
C161 C166 1.390 1_655 S
C161 C168 1.506 . S
C162 C163 1.443 . S
C162 C166 1.387 1_655 S
C163 C162 1.443 . S
C163 C165 1.372 . S
C163 H180 0.931 . S
C164 C161 1.382 . S
C164 C165 1.390 . S
C164 H181 0.931 . S
C165 C163 1.372 . S
C165 C164 1.390 . S
C165 H182 0.929 . S
C166 C161 1.390 1_455 S
C166 C162 1.387 1_455 S
C166 H183 0.930 . S
C167 O152 1.255 . S
C167 O153 1.258 . S
C168 Eu104 2.787 . S
C168 O148 1.252 1_655 S
C168 O151 1.268 . S
C168 C161 1.506 . S
C169 C136 1.439 . S
C169 H146 0.931 . S
C169 C170 1.374 . S
C170 C141 1.387 . S
C170 H147 0.931 . S
C170 C169 1.374 . S
C171 O155 1.249 . S
C171 O156 1.264 . S
C172 C175 1.382 . S
C172 C176 1.390 . S
C172 C179 1.506 . S
C173 C174 1.398 . S
C173 C176 1.392 . S
C174 C173 1.398 . S
C174 C177 1.372 . S
C174 H184 0.931 . S
C175 C172 1.382 . S
C175 C177 1.390 . S
C175 H185 0.931 . S
C176 C172 1.390 . S
C176 C173 1.392 . S
C176 H186 0.962 . S
C177 C174 1.372 . S
C177 C175 1.390 . S
C177 H187 0.929 . S
C178 O158 1.255 . S
C178 O159 1.257 . S
C179 Eu115 2.787 . S
C179 O154 1.252 . S
C179 O157 1.268 . S
C179 C172 1.506 . S
H180 C163 0.931 . S
H181 C164 0.931 . S
H182 C165 0.929 . S
H183 C166 0.930 . S
H184 C174 0.931 . S
H185 C175 0.931 . S
H186 C176 0.962 . S
H187 C177 0.929 . S
Eu188 N217 2.600 . S
Eu188 N223 2.562 . S
Eu188 O232 2.462 . S
Eu188 O233 2.373 . S
Eu188 O235 2.432 . S
Eu188 O236 2.291 . S
Eu188 O240 2.335 1_545 S
Eu188 O243 2.372 . S
Eu188 C252 2.787 . S
C189 N190 1.365 . S
C189 C192 1.405 . S
C189 C196 1.448 . S
N190 C189 1.365 . S
N190 C193 1.319 . S
N190 Eu199 2.600 . S
C191 C193 1.397 . S
C191 C194 1.367 . S
C191 H211 0.931 . S
C192 C189 1.405 . S
C192 C194 1.403 . S
C192 C198 1.439 . S
C193 N190 1.319 . S
C193 C191 1.397 . S
C193 H204 0.930 . S
C194 C191 1.367 . S
C194 C192 1.403 . S
C194 H215 0.929 . S
C195 C196 1.430 . S
C195 C197 1.387 . S
C195 C201 1.404 . S
C196 C189 1.448 . S
C196 C195 1.430 . S
C196 N200 1.351 . S
C197 C195 1.387 . S
C197 C198 1.374 . S
C197 H212 0.931 . S
C198 C192 1.439 . S
C198 C197 1.374 . S
C198 H213 0.931 . S
Eu199 N190 2.600 . S
Eu199 N200 2.562 . S
Eu199 O234 2.335 1_565 S
Eu199 O237 2.372 . S
Eu199 O238 2.461 1_565 S
Eu199 O239 2.373 . S
Eu199 O241 2.432 . S
Eu199 O242 2.291 1_565 S
Eu199 C263 2.787 . S
N200 C196 1.351 . S
N200 Eu199 2.562 . S
N200 C202 1.325 . S
C201 C195 1.404 . S
C201 C203 1.366 . S
C201 H209 0.930 . S
C202 N200 1.325 . S
C202 C203 1.416 . S
C202 H208 0.929 . S
C203 C201 1.366 . S
C203 C202 1.416 . S
C203 H205 0.930 . S
H204 C193 0.930 . S
H205 C203 0.930 . S
H206 C221 0.930 . S
H207 C228 0.930 . S
H208 C202 0.929 . S
H209 C201 0.930 . S
H210 C224 0.929 . S
H211 C191 0.931 . S
H212 C197 0.931 . S
H213 C198 0.931 . S
H214 C219 0.931 . S
H215 C194 0.929 . S
H216 C227 0.930 . S
N217 Eu188 2.600 . S
N217 C218 1.365 . S
N217 C221 1.319 . S
C218 N217 1.365 . S
C218 C220 1.405 . S
C218 C226 1.448 . S
C219 H214 0.931 . S
C219 C221 1.397 . S
C219 C222 1.367 . S
C220 C218 1.405 . S
C220 C222 1.403 . S
C220 C253 1.439 . S
C221 H206 0.930 . S
C221 N217 1.319 . S
C221 C219 1.397 . S
C222 C219 1.367 . S
C222 C220 1.403 . S
C222 H229 0.929 . S
N223 Eu188 2.562 . S
N223 C224 1.325 . S
N223 C226 1.351 . S
C224 H210 0.929 . S
C224 N223 1.325 . S
C224 C228 1.416 . S
C225 C226 1.430 . S
C225 C227 1.404 . S
C225 C254 1.387 . S
C226 C218 1.448 . S
C226 N223 1.351 . S
C226 C225 1.430 . S
C227 H216 0.930 . S
C227 C225 1.404 . S
C227 C228 1.366 . S
C228 H207 0.930 . S
C228 C224 1.416 . S
C228 C227 1.366 . S
H229 C222 0.929 . S
H230 C253 0.931 . S
H231 C254 0.931 . S
O232 Eu188 2.462 . S
O232 C252 1.252 . S
O233 Eu188 2.373 . S
O233 C244 1.249 . S
O234 Eu199 2.335 1_545 S
O234 C244 1.264 . S
O235 Eu188 2.432 . S
O235 C252 1.268 . S
O236 Eu188 2.291 . S
O236 C251 1.255 . S
O237 Eu199 2.372 . S
O237 C251 1.257 1_565 S
O238 Eu199 2.461 1_545 S
O238 C263 1.252 1_545 S
O239 Eu199 2.373 . S
O239 C255 1.249 . S
O240 Eu188 2.335 1_565 S
O240 C255 1.264 . S
O241 Eu199 2.432 . S
O241 C263 1.268 . S
O242 Eu199 2.291 1_545 S
O242 C262 1.255 . S
O243 Eu188 2.372 . S
O243 C262 1.257 . S
C244 O233 1.249 . S
C244 O234 1.264 . S
C245 C248 1.382 . S
C245 C250 1.390 . S
C245 C252 1.506 . S
C246 C247 1.398 1_556 S
C246 C250 1.392 . S
C247 C246 1.398 1_554 S
C247 C249 1.372 . S
C247 H264 0.931 . S
C248 C245 1.382 . S
C248 C249 1.390 1_556 S
C248 H265 0.931 . S
C249 C247 1.372 . S
C249 C248 1.390 1_554 S
C249 H266 0.929 . S
C250 C245 1.390 . S
C250 C246 1.392 . S
C250 H267 0.930 . S
C251 O236 1.255 . S
C251 O237 1.257 1_545 S
C252 Eu188 2.787 . S
C252 O232 1.252 . S
C252 O235 1.268 . S
C252 C245 1.506 . S
C253 C220 1.439 . S
C253 H230 0.931 . S
C253 C254 1.374 . S
C254 C225 1.387 . S
C254 H231 0.931 . S
C254 C253 1.374 . S
C255 O239 1.249 . S
C255 O240 1.264 . S
C256 C259 1.383 . S
C256 C260 1.388 1_565 S
C256 C263 1.507 . S
C257 C258 1.398 . S
C257 C260 1.392 . S
C258 C257 1.398 . S
C258 C261 1.372 1_545 S
C258 H268 0.931 . S
C259 C256 1.383 . S
C259 C261 1.390 . S
C259 H269 0.931 . S
C260 C256 1.388 1_545 S
C260 C257 1.392 . S
C260 H270 0.930 . S
C261 C258 1.372 1_565 S
C261 C259 1.390 . S
C261 H271 0.929 . S
C262 O242 1.255 . S
C262 O243 1.257 . S
C263 Eu199 2.787 . S
C263 O238 1.252 1_565 S
C263 O241 1.268 . S
C263 C256 1.507 . S
H264 C247 0.931 . S
H265 C248 0.931 . S
H266 C249 0.929 . S
H267 C250 0.930 . S
H268 C258 0.931 . S
H269 C259 0.931 . S
H270 C260 0.930 . S
H271 C261 0.929 . S
Eu272 N301 2.600 . S
Eu272 N307 2.562 . S
Eu272 O316 2.462 . S
Eu272 O317 2.373 . S
Eu272 O319 2.432 . S
Eu272 O320 2.291 . S
Eu272 O324 2.335 . S
Eu272 O327 2.372 . S
Eu272 C336 2.787 . S
C273 N274 1.365 . S
C273 C276 1.405 . S
C273 C280 1.448 . S
N274 C273 1.365 . S
N274 C277 1.319 . S
N274 Eu283 2.600 . S
C275 C277 1.397 . S
C275 C278 1.367 . S
C275 H295 0.931 . S
C276 C273 1.405 . S
C276 C278 1.403 . S
C276 C282 1.439 . S
C277 N274 1.319 . S
C277 C275 1.397 . S
C277 H288 0.930 . S
C278 C275 1.367 . S
C278 C276 1.403 . S
C278 H299 0.929 . S
C279 C280 1.430 . S
C279 C281 1.387 . S
C279 C285 1.404 . S
C280 C273 1.448 . S
C280 C279 1.430 . S
C280 N284 1.351 . S
C281 C279 1.387 . S
C281 C282 1.374 . S
C281 H296 0.931 1_556 S
C282 C276 1.439 . S
C282 C281 1.374 . S
C282 H297 0.931 . S
Eu283 N274 2.600 . S
Eu283 N284 2.562 . S
Eu283 O318 2.335 . S
Eu283 O321 2.372 . S
Eu283 O322 2.462 . S
Eu283 O323 2.373 . S
Eu283 O325 2.432 . S
Eu283 O326 2.291 . S
Eu283 C347 2.787 . S
N284 C280 1.351 . S
N284 Eu283 2.562 . S
N284 C286 1.325 . S
C285 C279 1.404 . S
C285 C287 1.366 . S
C285 H293 0.930 1_556 S
C286 N284 1.325 . S
C286 C287 1.416 . S
C286 H292 0.929 . S
C287 C285 1.366 . S
C287 C286 1.416 . S
C287 H289 0.930 . S
H288 C277 0.930 . S
H289 C287 0.930 . S
H290 C305 0.930 . S
H291 C312 0.930 . S
H292 C286 0.929 . S
H293 C285 0.930 1_554 S
H294 C308 0.929 . S
H295 C275 0.931 . S
H296 C281 0.931 1_554 S
H297 C282 0.931 . S
H298 C303 0.931 . S
H299 C278 0.929 . S
H300 C311 0.930 . S
N301 Eu272 2.600 . S
N301 C302 1.365 . S
N301 C305 1.319 . S
C302 N301 1.365 . S
C302 C304 1.405 . S
C302 C310 1.448 . S
C303 H298 0.931 . S
C303 C305 1.397 . S
C303 C306 1.367 . S
C304 C302 1.405 . S
C304 C306 1.403 . S
C304 C337 1.439 . S
C305 H290 0.930 . S
C305 N301 1.319 . S
C305 C303 1.397 . S
C306 C303 1.367 . S
C306 C304 1.403 . S
C306 H313 0.929 . S
N307 Eu272 2.562 . S
N307 C308 1.325 . S
N307 C310 1.351 . S
C308 H294 0.929 . S
C308 N307 1.325 . S
C308 C312 1.416 . S
C309 C310 1.430 . S
C309 C311 1.404 . S
C309 C338 1.387 . S
C310 C302 1.448 . S
C310 N307 1.351 . S
C310 C309 1.430 . S
C311 H300 0.930 . S
C311 C309 1.404 . S
C311 C312 1.366 . S
C312 H291 0.930 . S
C312 C308 1.416 . S
C312 C311 1.366 . S
H313 C306 0.929 . S
H314 C337 0.931 . S
H315 C338 0.931 . S
O316 Eu272 2.462 . S
O316 C336 1.252 . S
O317 Eu272 2.373 . S
O317 C328 1.249 . S
O318 Eu283 2.335 . S
O318 C328 1.264 . S
O319 Eu272 2.432 . S
O319 C336 1.268 . S
O320 Eu272 2.291 . S
O320 C335 1.255 . S
O321 Eu283 2.372 . S
O321 C335 1.257 . S
O322 Eu283 2.462 . S
O322 C347 1.252 . S
O323 Eu283 2.373 . S
O323 C339 1.249 . S
O324 Eu272 2.335 . S
O324 C339 1.264 . S
O325 Eu283 2.432 . S
O325 C347 1.268 . S
O326 Eu283 2.291 . S
O326 C346 1.255 . S
O327 Eu272 2.372 . S
O327 C346 1.257 . S
C328 O317 1.249 . S
C328 O318 1.264 . S
C329 C332 1.382 . S
C329 C334 1.390 . S
C329 C336 1.506 . S
C330 C331 1.398 . S
C330 C334 1.392 . S
C331 C330 1.398 . S
C331 C333 1.372 . S
C331 H348 0.931 . S
C332 C329 1.382 . S
C332 C333 1.390 . S
C332 H349 0.931 . S
C333 C331 1.372 . S
C333 C332 1.390 . S
C333 H350 0.929 . S
C334 C329 1.390 . S
C334 C330 1.392 . S
C334 H351 0.930 . S
C335 O320 1.255 . S
C335 O321 1.257 . S
C336 Eu272 2.787 . S
C336 O316 1.252 . S
C336 O319 1.268 . S
C336 C329 1.506 . S
C337 C304 1.439 . S
C337 H314 0.931 . S
C337 C338 1.374 . S
C338 C309 1.387 . S
C338 H315 0.931 . S
C338 C337 1.374 . S
C339 O323 1.249 . S
C339 O324 1.264 . S
C340 C343 1.382 . S
C340 C344 1.390 . S
C340 C347 1.506 . S
C341 C342 1.398 . S
C341 C344 1.392 . S
C342 C341 1.398 . S
C342 C345 1.372 . S
C342 H352 0.931 . S
C343 C340 1.382 . S
C343 C345 1.390 . S
C343 H353 0.931 . S
C344 C340 1.390 . S
C344 C341 1.392 . S
C344 H354 0.930 . S
C345 C342 1.372 . S
C345 C343 1.390 . S
C345 H355 0.929 . S
C346 O326 1.255 . S
C346 O327 1.257 . S
C347 Eu283 2.787 . S
C347 O322 1.252 . S
C347 O325 1.268 . S
C347 C340 1.506 . S
H348 C331 0.931 . S
H349 C332 0.931 . S
H350 C333 0.929 . S
H351 C334 0.930 . S
H352 C342 0.931 . S
H353 C343 0.931 . S
H354 C344 0.930 . S
H355 C345 0.929 . S
Eu356 N385 2.600 . S
Eu356 N391 2.562 . S
Eu356 O400 2.462 . S
Eu356 O401 2.373 1_455 S
Eu356 O403 2.432 . S
Eu356 O404 2.291 . S
Eu356 O408 2.335 . S
Eu356 O411 2.372 . S
Eu356 C420 2.787 . S
C357 N358 1.365 . S
C357 C360 1.405 . S
C357 C364 1.448 . S
N358 C357 1.365 . S
N358 C361 1.314 1_455 S
N358 Eu367 2.600 1_455 S
C359 C361 1.382 1_455 S
C359 C362 1.367 . S
C359 H379 0.931 . S
C360 C357 1.405 . S
C360 C362 1.403 . S
C360 C366 1.439 . S
C361 N358 1.314 1_655 S
C361 C359 1.382 1_655 S
C361 H372 0.953 . S
C362 C359 1.367 . S
C362 C360 1.403 . S
C362 H383 0.929 . S
C363 C364 1.430 . S
C363 C365 1.387 . S
C363 C369 1.404 . S
C364 C357 1.448 . S
C364 C363 1.430 . S
C364 N368 1.351 . S
C365 C363 1.387 . S
C365 C366 1.374 . S
C365 H380 0.931 1_556 S
C366 C360 1.439 . S
C366 C365 1.374 . S
C366 H381 0.931 . S
Eu367 N358 2.600 1_655 S
Eu367 N368 2.562 1_655 S
Eu367 O402 2.335 . S
Eu367 O405 2.372 . S
Eu367 O406 2.462 . S
Eu367 O407 2.373 1_655 S
Eu367 O409 2.432 . S
Eu367 O410 2.291 1_655 S
Eu367 C431 2.787 . S
N368 C364 1.351 . S
N368 Eu367 2.562 1_455 S
N368 C370 1.325 . S
C369 C363 1.404 . S
C369 C371 1.366 . S
C369 H377 0.930 1_556 S
C370 N368 1.325 . S
C370 C371 1.416 . S
C370 H376 0.929 . S
C371 C369 1.366 . S
C371 C370 1.416 . S
C371 H373 0.930 . S
H372 C361 0.953 . S
H373 C371 0.930 . S
H374 C389 0.930 . S
H375 C396 0.930 . S
H376 C370 0.929 . S
H377 C369 0.930 1_554 S
H378 C392 0.929 . S
H379 C359 0.931 . S
H380 C365 0.931 1_554 S
H381 C366 0.931 . S
H382 C387 0.931 . S
H383 C362 0.929 . S
H384 C395 0.930 . S
N385 Eu356 2.600 . S
N385 C386 1.365 . S
N385 C389 1.319 . S
C386 N385 1.365 . S
C386 C388 1.405 1_455 S
C386 C394 1.448 . S
C387 H382 0.931 . S
C387 C389 1.397 . S
C387 C390 1.343 1_455 S
C388 C386 1.405 1_655 S
C388 C390 1.411 . S
C388 C421 1.439 . S
C389 H374 0.930 . S
C389 N385 1.319 . S
C389 C387 1.397 . S
C390 C387 1.343 1_655 S
C390 C388 1.411 . S
C390 H397 0.948 . S
N391 Eu356 2.562 . S
N391 C392 1.325 . S
N391 C394 1.351 . S
C392 H378 0.929 . S
C392 N391 1.325 . S
C392 C396 1.416 1_455 S
C393 C394 1.430 1_655 S
C393 C395 1.404 . S
C393 C422 1.387 . S
C394 C386 1.448 . S
C394 N391 1.351 . S
C394 C393 1.430 1_455 S
C395 H384 0.930 . S
C395 C393 1.404 . S
C395 C396 1.366 . S
C396 H375 0.930 . S
C396 C392 1.416 1_655 S
C396 C395 1.366 . S
H397 C390 0.948 . S
H398 C421 0.931 . S
H399 C422 0.931 . S
O400 Eu356 2.462 . S
O400 C420 1.252 . S
O401 Eu356 2.373 1_655 S
O401 C412 1.249 . S
O402 Eu367 2.335 . S
O402 C412 1.264 . S
O403 Eu356 2.432 . S
O403 C420 1.268 . S
O404 Eu356 2.291 . S
O404 C419 1.255 . S
O405 Eu367 2.372 . S
O405 C419 1.257 1_655 S
O406 Eu367 2.462 . S
O406 C431 1.252 . S
O407 Eu367 2.373 1_455 S
O407 C423 1.249 . S
O408 Eu356 2.335 . S
O408 C423 1.264 . S
O409 Eu367 2.432 . S
O409 C431 1.268 . S
O410 Eu367 2.291 1_455 S
O410 C430 1.255 . S
O411 Eu356 2.372 . S
O411 C430 1.257 . S
C412 O401 1.249 . S
C412 O402 1.264 . S
C413 C416 1.382 . S
C413 C418 1.390 . S
C413 C420 1.506 . S
C414 C415 1.398 . S
C414 C418 1.392 . S
C415 C414 1.398 . S
C415 C417 1.372 . S
C415 H432 0.931 . S
C416 C413 1.382 . S
C416 C417 1.390 . S
C416 H433 0.931 . S
C417 C415 1.372 . S
C417 C416 1.390 . S
C417 H434 0.929 . S
C418 C413 1.390 . S
C418 C414 1.392 . S
C418 H435 0.930 . S
C419 O404 1.255 . S
C419 O405 1.257 1_455 S
C420 Eu356 2.787 . S
C420 O400 1.252 . S
C420 O403 1.268 . S
C420 C413 1.506 . S
C421 C388 1.439 . S
C421 H398 0.931 . S
C421 C422 1.374 . S
C422 C393 1.387 . S
C422 H399 0.931 . S
C422 C421 1.374 . S
C423 O407 1.249 . S
C423 O408 1.264 . S
C424 C427 1.382 . S
C424 C428 1.390 . S
C424 C431 1.506 . S
C425 C426 1.398 . S
C425 C428 1.392 . S
C426 C425 1.398 . S
C426 C429 1.372 . S
C426 H436 0.931 . S
C427 C424 1.382 . S
C427 C429 1.390 . S
C427 H437 0.931 . S
C428 C424 1.390 . S
C428 C425 1.392 . S
C428 H438 0.930 . S
C429 C426 1.372 . S
C429 C427 1.390 . S
C429 H439 0.929 . S
C430 O410 1.255 . S
C430 O411 1.257 . S
C431 Eu367 2.787 . S
C431 O406 1.252 . S
C431 O409 1.268 . S
C431 C424 1.506 . S
H432 C415 0.931 . S
H433 C416 0.931 . S
H434 C417 0.929 . S
H435 C418 0.930 . S
H436 C426 0.931 . S
H437 C427 0.931 . S
H438 C428 0.930 . S
H439 C429 0.929 . S
C440 C441 1.349 . S
C440 C442 1.327 . S
C440 H465 0.950 . S
C441 C440 1.349 . S
C441 C457 1.349 . S
C442 C440 1.327 . S
C442 C461 1.429 . S
C442 H466 0.950 . S
C443 C460 1.574 . S
C443 C462 1.368 . S
C443 H467 0.949 . S
H444 C448 0.934 1_565 S
C445 C446 1.349 . S
C445 C447 1.327 . S
C445 H468 0.950 . S
C446 C445 1.349 . S
C446 C458 1.349 . S
C447 C445 1.327 . S
C447 C463 1.429 . S
C447 H469 0.950 . S
C448 H444 0.934 1_545 S
C448 C456 1.574 . S
C448 C464 1.368 . S
H449 C457 0.950 . S
H450 C455 0.950 . S
H451 C456 0.949 . S
H452 C458 0.950 1_565 S
H453 C459 0.950 1_565 S
H454 C460 0.949 . S
C455 H450 0.950 . S
C455 C457 1.327 . S
C455 C461 1.429 . S
C456 C448 1.574 . S
C456 H451 0.949 . S
C456 C462 1.368 . S
C457 C441 1.349 . S
C457 H449 0.950 . S
C457 C455 1.327 . S
C458 C446 1.349 . S
C458 H452 0.950 1_545 S
C458 C459 1.327 . S
C459 H453 0.950 1_545 S
C459 C458 1.327 . S
C459 C463 1.429 . S
C460 C443 1.574 . S
C460 H454 0.949 . S
C460 C464 1.368 . S
C461 C442 1.429 . S
C461 C455 1.429 . S
C461 C462 1.523 . S
C462 C443 1.368 . S
C462 C456 1.368 . S
C462 C461 1.523 . S
C463 C447 1.429 . S
C463 C459 1.429 . S
C463 C464 1.523 . S
C464 C448 1.368 . S
C464 C460 1.368 . S
C464 C463 1.523 . S
H465 C440 0.950 . S
H466 C442 0.950 . S
H467 C443 0.949 . S
H468 C445 0.950 . S
H469 C447 0.950 . S
C470 C471 1.349 . S
C470 C472 1.327 . S
C470 H495 0.950 . S
C471 C470 1.349 . S
C471 C487 1.349 . S
C472 C470 1.327 . S
C472 C491 1.429 . S
C472 H496 0.950 . S
C473 C490 1.574 . S
C473 C492 1.368 . S
C473 H497 0.949 . S
H474 C478 0.949 . S
C475 C476 1.349 . S
C475 C477 1.327 . S
C475 H498 0.950 . S
C476 C475 1.349 . S
C476 C488 1.349 . S
C477 C475 1.327 . S
C477 C493 1.429 . S
C477 H499 0.950 . S
C478 H474 0.949 . S
C478 C486 1.574 . S
C478 C494 1.368 . S
H479 C487 0.950 . S
H480 C485 0.950 . S
H481 C486 0.949 . S
H482 C488 0.950 . S
H483 C489 0.950 . S
H484 C490 0.949 . S
C485 H480 0.950 . S
C485 C487 1.327 . S
C485 C491 1.429 . S
C486 C478 1.574 . S
C486 H481 0.949 . S
C486 C492 1.368 . S
C487 C471 1.349 . S
C487 H479 0.950 . S
C487 C485 1.327 . S
C488 C476 1.349 . S
C488 H482 0.950 . S
C488 C489 1.327 . S
C489 H483 0.950 . S
C489 C488 1.327 . S
C489 C493 1.429 . S
C490 C473 1.574 . S
C490 H484 0.949 . S
C490 C494 1.368 . S
C491 C472 1.429 . S
C491 C485 1.429 . S
C491 C492 1.523 . S
C492 C473 1.368 . S
C492 C486 1.368 . S
C492 C491 1.523 . S
C493 C477 1.429 . S
C493 C489 1.429 . S
C493 C494 1.523 . S
C494 C478 1.368 . S
C494 C490 1.368 . S
C494 C493 1.523 . S
H495 C470 0.950 . S
H496 C472 0.950 . S
H497 C473 0.949 . S
H498 C475 0.950 . S
H499 C477 0.950 . S
C500 C501 1.349 . S
C500 C502 1.327 . S
C500 H525 0.950 . S
C501 C500 1.349 . S
C501 C517 1.349 . S
C502 C500 1.327 . S
C502 C521 1.429 . S
C502 H526 0.950 . S
C503 C520 1.574 . S
C503 C522 1.368 . S
C503 H527 0.949 . S
H504 C508 0.949 . S
C505 C506 1.349 . S
C505 C507 1.327 . S
C505 H528 0.950 . S
C506 C505 1.349 . S
C506 C518 1.349 . S
C507 C505 1.327 . S
C507 C523 1.429 . S
C507 H529 0.950 . S
C508 H504 0.949 . S
C508 C516 1.574 . S
C508 C524 1.368 . S
H509 C517 0.950 . S
H510 C515 0.950 . S
H511 C516 0.949 . S
H512 C518 0.950 . S
H513 C519 0.950 . S
H514 C520 0.949 . S
C515 H510 0.950 . S
C515 C517 1.327 . S
C515 C521 1.429 . S
C516 C508 1.574 . S
C516 H511 0.949 . S
C516 C522 1.368 . S
C517 C501 1.349 . S
C517 H509 0.950 . S
C517 C515 1.327 . S
C518 C506 1.349 . S
C518 H512 0.950 . S
C518 C519 1.327 . S
C519 H513 0.950 . S
C519 C518 1.327 . S
C519 C523 1.429 . S
C520 C503 1.574 . S
C520 H514 0.949 . S
C520 C524 1.368 . S
C521 C502 1.429 . S
C521 C515 1.429 . S
C521 C522 1.523 . S
C522 C503 1.368 . S
C522 C516 1.368 . S
C522 C521 1.523 . S
C523 C507 1.429 . S
C523 C519 1.429 . S
C523 C524 1.523 . S
C524 C508 1.368 . S
C524 C520 1.368 . S
C524 C523 1.523 . S
H525 C500 0.950 . S
H526 C502 0.950 . S
H527 C503 0.949 . S
H528 C505 0.950 . S
H529 C507 0.950 . S
C530 C531 1.349 . S
C530 C532 1.327 . S
C530 H555 0.950 . S
C531 C530 1.349 . S
C531 C547 1.349 . S
C532 C530 1.327 . S
C532 C551 1.429 . S
C532 H556 0.950 . S
C533 C550 1.574 . S
C533 C552 1.368 . S
C533 H557 0.949 . S
H534 C538 0.949 . S
C535 C536 1.349 . S
C535 C537 1.327 . S
C535 H558 0.950 . S
C536 C535 1.349 . S
C536 C548 1.349 . S
C537 C535 1.327 . S
C537 C553 1.429 . S
C537 H559 0.950 . S
C538 H534 0.949 . S
C538 C546 1.574 . S
C538 C554 1.368 . S
H539 C547 0.950 . S
H540 C545 0.950 . S
H541 C546 0.949 . S
H542 C548 0.950 . S
H543 C549 0.950 . S
H544 C550 0.949 . S
C545 H540 0.950 . S
C545 C547 1.327 . S
C545 C551 1.429 . S
C546 C538 1.574 . S
C546 H541 0.949 . S
C546 C552 1.368 . S
C547 C531 1.349 . S
C547 H539 0.950 . S
C547 C545 1.327 . S
C548 C536 1.349 . S
C548 H542 0.950 . S
C548 C549 1.327 . S
C549 H543 0.950 . S
C549 C548 1.327 . S
C549 C553 1.429 . S
C550 C533 1.574 . S
C550 H544 0.949 . S
C550 C554 1.368 . S
C551 C532 1.429 . S
C551 C545 1.429 . S
C551 C552 1.523 . S
C552 C533 1.368 . S
C552 C546 1.368 . S
C552 C551 1.523 . S
C553 C537 1.429 . S
C553 C549 1.429 . S
C553 C554 1.523 . S
C554 C538 1.368 . S
C554 C550 1.368 . S
C554 C553 1.523 . S
H555 C530 0.950 . S
H556 C532 0.950 . S
H557 C533 0.949 . S
H558 C535 0.950 . S
H559 C537 0.950 . S
C560 C561 1.349 . S
C560 C562 1.329 . S
C560 H585 0.950 1_565 S
C561 C560 1.349 . S
C561 C577 1.349 . S
C562 C560 1.329 . S
C562 C581 1.435 . S
C562 H586 0.941 1_565 S
C563 C580 1.574 . S
C563 C582 1.368 1_556 S
C563 H587 0.949 . S
H564 C568 0.949 . S
C565 C566 1.349 1_565 S
C565 C567 1.327 . S
C565 H588 0.950 . S
C566 C565 1.349 1_545 S
C566 C578 1.349 . S
C567 C565 1.327 . S
C567 C583 1.429 . S
C567 H589 0.950 . S
C568 H564 0.949 . S
C568 C576 1.574 . S
C568 C584 1.368 1_544 S
H569 C577 0.950 . S
H570 C575 0.950 . S
H571 C576 0.949 . S
H572 C578 0.950 . S
H573 C579 0.950 . S
H574 C580 0.949 . S
C575 H570 0.950 . S
C575 C577 1.327 . S
C575 C581 1.429 . S
C576 C568 1.574 . S
C576 H571 0.949 . S
C576 C582 1.368 1_545 S
C577 C561 1.349 . S
C577 H569 0.950 . S
C577 C575 1.327 . S
C578 C566 1.349 . S
C578 H572 0.950 . S
C578 C579 1.327 . S
C579 H573 0.950 . S
C579 C578 1.327 . S
C579 C583 1.429 1_545 S
C580 C563 1.574 . S
C580 H574 0.949 . S
C580 C584 1.368 . S
C581 C562 1.435 . S
C581 C575 1.429 . S
C581 C582 1.523 . S
C582 C563 1.368 1_554 S
C582 C576 1.368 1_565 S
C582 C581 1.523 . S
C583 C567 1.429 . S
C583 C579 1.429 1_565 S
C583 C584 1.523 . S
C584 C568 1.368 1_566 S
C584 C580 1.368 . S
C584 C583 1.523 . S
H585 C560 0.950 1_545 S
H586 C562 0.941 1_545 S
H587 C563 0.949 . S
H588 C565 0.950 . S
H589 C567 0.950 . S
C590 C591 1.349 . S
C590 C592 1.327 . S
C590 H615 0.950 . S
C591 C590 1.349 . S
C591 C607 1.349 . S
C592 C590 1.327 . S
C592 C611 1.429 . S
C592 H616 0.950 . S
C593 C610 1.574 . S
C593 C612 1.368 1_556 S
C593 H617 0.949 . S
H594 C598 0.949 . S
C595 C596 1.349 . S
C595 C597 1.327 . S
C595 H618 0.950 . S
C596 C595 1.349 . S
C596 C608 1.349 . S
C597 C595 1.327 . S
C597 C613 1.429 . S
C597 H619 0.950 . S
C598 H594 0.949 . S
C598 C606 1.574 . S
C598 C614 1.368 1_554 S
H599 C607 0.950 . S
H600 C605 0.950 . S
H601 C606 0.949 . S
H602 C608 0.950 . S
H603 C609 0.950 . S
H604 C610 0.949 . S
C605 H600 0.950 . S
C605 C607 1.327 . S
C605 C611 1.429 . S
C606 C598 1.574 . S
C606 H601 0.949 . S
C606 C612 1.368 . S
C607 C591 1.349 . S
C607 H599 0.950 . S
C607 C605 1.327 . S
C608 C596 1.349 . S
C608 H602 0.950 . S
C608 C609 1.327 . S
C609 H603 0.950 . S
C609 C608 1.327 . S
C609 C613 1.429 . S
C610 C593 1.574 . S
C610 H604 0.949 . S
C610 C614 1.368 . S
C611 C592 1.429 . S
C611 C605 1.429 . S
C611 C612 1.523 . S
C612 C593 1.368 1_554 S
C612 C606 1.368 . S
C612 C611 1.523 . S
C613 C597 1.429 . S
C613 C609 1.429 . S
C613 C614 1.523 . S
C614 C598 1.368 1_556 S
C614 C610 1.368 . S
C614 C613 1.523 . S
H615 C590 0.950 . S
H616 C592 0.950 . S
H617 C593 0.949 . S
H618 C595 0.950 . S
H619 C597 0.950 . S
C620 C621 1.349 . S
C620 C622 1.327 . S
C620 H645 0.950 . S
C621 C620 1.349 . S
C621 C637 1.349 . S
C622 C620 1.327 . S
C622 C641 1.429 . S
C622 H646 0.950 . S
C623 C640 1.574 . S
C623 C642 1.368 1_556 S
C623 H647 0.949 . S
H624 C628 0.949 . S
C625 C626 1.349 . S
C625 C627 1.327 . S
C625 H648 0.950 . S
C626 C625 1.349 . S
C626 C638 1.349 . S
C627 C625 1.327 . S
C627 C643 1.429 . S
C627 H649 0.950 . S
C628 H624 0.949 . S
C628 C636 1.574 . S
C628 C644 1.368 1_554 S
H629 C637 0.950 . S
H630 C635 0.950 . S
H631 C636 0.949 . S
H632 C638 0.950 . S
H633 C639 0.950 . S
H634 C640 0.949 . S
C635 H630 0.950 . S
C635 C637 1.327 . S
C635 C641 1.429 . S
C636 C628 1.574 . S
C636 H631 0.949 . S
C636 C642 1.368 . S
C637 C621 1.349 . S
C637 H629 0.950 . S
C637 C635 1.327 . S
C638 C626 1.349 . S
C638 H632 0.950 . S
C638 C639 1.327 . S
C639 H633 0.950 . S
C639 C638 1.327 . S
C639 C643 1.429 . S
C640 C623 1.574 . S
C640 H634 0.949 . S
C640 C644 1.368 . S
C641 C622 1.429 . S
C641 C635 1.429 . S
C641 C642 1.523 . S
C642 C623 1.368 1_554 S
C642 C636 1.368 . S
C642 C641 1.523 . S
C643 C627 1.429 . S
C643 C639 1.429 . S
C643 C644 1.523 . S
C644 C628 1.368 1_556 S
C644 C640 1.368 . S
C644 C643 1.523 . S
H645 C620 0.950 . S
H646 C622 0.950 . S
H647 C623 0.949 . S
H648 C625 0.950 . S
H649 C627 0.950 . S
C650 C651 1.349 . S
C650 C652 1.327 . S
C650 H675 0.950 . S
C651 C650 1.349 . S
C651 C667 1.349 . S
C652 C650 1.327 . S
C652 C671 1.429 . S
C652 H676 0.950 . S
C653 C670 1.574 . S
C653 C672 1.368 1_556 S
C653 H677 0.949 . S
H654 C658 0.949 . S
C655 C656 1.350 . S
C655 C657 1.327 . S
C655 H678 0.950 . S
C656 C655 1.350 . S
C656 C668 1.349 . S
C657 C655 1.327 . S
C657 C673 1.429 . S
C657 H679 0.950 . S
C658 H654 0.949 . S
C658 C666 1.574 . S
C658 C674 1.368 1_554 S
H659 C667 0.950 . S
H660 C665 0.950 . S
H661 C666 0.949 . S
H662 C668 0.950 1_455 S
H663 C669 0.950 . S
H664 C670 0.949 . S
C665 H660 0.950 . S
C665 C667 1.327 . S
C665 C671 1.429 . S
C666 C658 1.574 . S
C666 H661 0.949 . S
C666 C672 1.368 . S
C667 C651 1.349 . S
C667 H659 0.950 . S
C667 C665 1.327 . S
C668 C656 1.349 . S
C668 H662 0.950 1_655 S
C668 C669 1.327 . S
C669 H663 0.950 . S
C669 C668 1.327 . S
C669 C673 1.429 . S
C670 C653 1.574 . S
C670 H664 0.949 . S
C670 C674 1.368 . S
C671 C652 1.429 . S
C671 C665 1.429 . S
C671 C672 1.523 . S
C672 C653 1.368 1_554 S
C672 C666 1.368 . S
C672 C671 1.523 . S
C673 C657 1.429 . S
C673 C669 1.429 . S
C673 C674 1.523 . S
C674 C658 1.368 1_556 S
C674 C670 1.368 . S
C674 C673 1.523 . S
H675 C650 0.950 . S
H676 C652 0.950 . S
H677 C653 0.949 . S
H678 C655 0.950 . S
H679 C657 0.950 . S
C680 C681 1.349 . S
C680 C682 1.327 . S
C680 H705 0.950 . S
C681 C680 1.349 . S
C681 C697 1.349 . S
C682 C680 1.327 . S
C682 C701 1.429 . S
C682 H706 0.950 . S
C683 C700 1.574 . S
C683 C702 1.368 . S
C683 H707 0.949 1_455 S
H684 C688 0.949 . S
C685 C686 1.349 1_655 S
C685 C687 1.327 . S
C685 H708 0.950 . S
C686 C685 1.349 1_455 S
C686 C698 1.349 . S
C687 C685 1.327 . S
C687 C703 1.429 1_655 S
C687 H709 0.950 . S
C688 H684 0.949 . S
C688 C696 1.574 . S
C688 C704 1.368 . S
H689 C697 0.950 . S
H690 C695 0.950 . S
H691 C696 0.949 . S
H692 C698 0.950 . S
H693 C699 0.950 . S
H694 C700 0.949 1_655 S
C695 H690 0.950 . S
C695 C697 1.327 . S
C695 C701 1.429 . S
C696 C688 1.574 . S
C696 H691 0.949 . S
C696 C702 1.368 . S
C697 C681 1.349 . S
C697 H689 0.950 . S
C697 C695 1.327 . S
C698 C686 1.349 . S
C698 H692 0.950 . S
C698 C699 1.327 . S
C699 H693 0.950 . S
C699 C698 1.327 . S
C699 C703 1.429 . S
C700 C683 1.574 . S
C700 H694 0.949 1_455 S
C700 C704 1.368 . S
C701 C682 1.429 . S
C701 C695 1.429 . S
C701 C702 1.523 . S
C702 C683 1.368 . S
C702 C696 1.368 . S
C702 C701 1.523 . S
C703 C687 1.429 1_455 S
C703 C699 1.429 . S
C703 C704 1.523 . S
C704 C688 1.368 . S
C704 C700 1.368 . S
C704 C703 1.523 . S
H705 C680 0.950 . S
H706 C682 0.950 . S
H707 C683 0.949 1_655 S
H708 C685 0.950 . S
H709 C687 0.950 . S
C710 C711 1.349 . S
C710 C712 1.327 . S
C710 H735 0.950 . S
C711 C710 1.349 . S
C711 C727 1.349 . S
C712 C710 1.327 . S
C712 C731 1.429 . S
C712 H736 0.950 . S
C713 C730 1.574 . S
C713 C732 1.368 . S
C713 H737 0.949 1_545 S
H714 C718 0.949 . S
C715 C716 1.349 1_565 S
C715 C717 1.327 . S
C715 H738 0.950 . S
C716 C715 1.349 1_545 S
C716 C728 1.349 . S
C717 C715 1.327 . S
C717 C733 1.429 1_565 S
C717 H739 0.950 . S
C718 H714 0.949 . S
C718 C726 1.574 . S
C718 C734 1.368 . S
H719 C727 0.950 . S
H720 C725 0.950 . S
H721 C726 0.949 . S
H722 C728 0.950 . S
H723 C729 0.950 . S
H724 C730 0.949 1_565 S
C725 H720 0.950 . S
C725 C727 1.327 . S
C725 C731 1.429 . S
C726 C718 1.574 . S
C726 H721 0.949 . S
C726 C732 1.368 . S
C727 C711 1.349 . S
C727 H719 0.950 . S
C727 C725 1.327 . S
C728 C716 1.349 . S
C728 H722 0.950 . S
C728 C729 1.327 . S
C729 H723 0.950 . S
C729 C728 1.327 . S
C729 C733 1.429 . S
C730 C713 1.574 . S
C730 H724 0.949 1_545 S
C730 C734 1.368 . S
C731 C712 1.429 . S
C731 C725 1.429 . S
C731 C732 1.523 . S
C732 C713 1.368 . S
C732 C726 1.368 . S
C732 C731 1.523 . S
C733 C717 1.429 1_545 S
C733 C729 1.429 . S
C733 C734 1.523 . S
C734 C718 1.368 . S
C734 C730 1.368 . S
C734 C733 1.523 . S
H735 C710 0.950 . S
H736 C712 0.950 . S
H737 C713 0.949 1_565 S
H738 C715 0.950 . S
H739 C717 0.950 . S
C740 C741 1.349 . S
C740 C742 1.327 . S
C740 H765 0.950 1_554 S
C741 C740 1.349 . S
C741 C757 1.349 . S
C742 C740 1.327 . S
C742 C761 1.429 . S
C742 H766 0.950 . S
C743 C760 1.574 . S
C743 C762 1.368 . S
C743 H767 0.949 . S
H744 C748 0.949 . S
C745 C746 1.349 . S
C745 C747 1.327 . S
C745 H768 0.950 . S
C746 C745 1.349 . S
C746 C758 1.349 . S
C747 C745 1.327 . S
C747 C763 1.429 . S
C747 H769 0.950 . S
C748 H744 0.949 . S
C748 C756 1.574 . S
C748 C764 1.368 . S
H749 C757 0.950 . S
H750 C755 0.950 . S
H751 C756 0.949 . S
H752 C758 0.950 . S
H753 C759 0.950 . S
H754 C760 0.949 . S
C755 H750 0.950 . S
C755 C757 1.327 . S
C755 C761 1.429 . S
C756 C748 1.574 . S
C756 H751 0.949 . S
C756 C762 1.368 . S
C757 C741 1.349 . S
C757 H749 0.950 . S
C757 C755 1.327 . S
C758 C746 1.349 . S
C758 H752 0.950 . S
C758 C759 1.327 . S
C759 H753 0.950 . S
C759 C758 1.327 . S
C759 C763 1.429 . S
C760 C743 1.574 . S
C760 H754 0.949 . S
C760 C764 1.368 . S
C761 C742 1.429 . S
C761 C755 1.429 . S
C761 C762 1.523 . S
C762 C743 1.368 . S
C762 C756 1.368 . S
C762 C761 1.523 . S
C763 C747 1.429 . S
C763 C759 1.429 . S
C763 C764 1.523 . S
C764 C748 1.368 . S
C764 C760 1.368 . S
C764 C763 1.523 . S
H765 C740 0.950 1_556 S
H766 C742 0.950 . S
H767 C743 0.949 . S
H768 C745 0.950 . S
H769 C747 0.950 . S
C770 C771 1.349 . S
C770 C772 1.327 . S
C770 H795 0.950 . S
C771 C770 1.349 . S
C771 C787 1.349 . S
C772 C770 1.327 . S
C772 C791 1.429 . S
C772 H796 0.950 . S
C773 C790 1.574 . S
C773 C792 1.368 . S
C773 H797 0.949 . S
H774 C778 0.949 . S
C775 C776 1.349 . S
C775 C777 1.327 . S
C775 H798 0.950 . S
C776 C775 1.349 . S
C776 C788 1.349 . S
C777 C775 1.327 . S
C777 C793 1.429 . S
C777 H799 0.950 . S
C778 H774 0.949 . S
C778 C786 1.574 . S
C778 C794 1.368 . S
H779 C787 0.950 . S
H780 C785 0.950 . S
H781 C786 0.949 . S
H782 C788 0.950 . S
H783 C789 0.950 . S
H784 C790 0.949 . S
C785 H780 0.950 . S
C785 C787 1.327 . S
C785 C791 1.429 . S
C786 C778 1.574 . S
C786 H781 0.949 . S
C786 C792 1.368 . S
C787 C771 1.349 . S
C787 H779 0.950 . S
C787 C785 1.327 . S
C788 C776 1.349 . S
C788 H782 0.950 . S
C788 C789 1.327 . S
C789 H783 0.950 . S
C789 C788 1.327 . S
C789 C793 1.429 . S
C790 C773 1.574 . S
C790 H784 0.949 . S
C790 C794 1.368 . S
C791 C772 1.429 . S
C791 C785 1.429 . S
C791 C792 1.523 . S
C792 C773 1.368 . S
C792 C786 1.368 . S
C792 C791 1.523 . S
C793 C777 1.429 . S
C793 C789 1.429 . S
C793 C794 1.523 . S
C794 C778 1.368 . S
C794 C790 1.368 . S
C794 C793 1.523 . S
H795 C770 0.950 . S
H796 C772 0.950 . S
H797 C773 0.949 . S
H798 C775 0.950 . S
H799 C777 0.950 . S
C800 C801 1.349 . S
C800 C802 1.327 . S
C800 H825 0.950 . S
C801 C800 1.349 . S
C801 C817 1.349 . S
C802 C800 1.327 . S
C802 C821 1.429 . S
C802 H826 0.950 . S
C803 C820 1.574 . S
C803 C822 1.368 . S
C803 H827 0.949 . S
H804 C808 0.949 . S
C805 C806 1.349 . S
C805 C807 1.327 . S
C805 H828 0.950 . S
C806 C805 1.349 . S
C806 C818 1.349 . S
C807 C805 1.327 . S
C807 C823 1.431 . S
C807 H829 0.950 . S
C808 H804 0.949 . S
C808 C816 1.574 . S
C808 C824 1.368 . S
H809 C817 0.950 . S
H810 C815 0.950 . S
H811 C816 0.949 . S
H812 C818 0.950 1_554 S
H813 C819 0.955 . S
H814 C820 0.938 1_456 S
C815 H810 0.950 . S
C815 C817 1.327 . S
C815 C821 1.429 . S
C816 C808 1.574 . S
C816 H811 0.949 . S
C816 C822 1.368 . S
C817 C801 1.349 . S
C817 H809 0.950 . S
C817 C815 1.327 . S
C818 C806 1.349 . S
C818 H812 0.950 1_556 S
C818 C819 1.323 1_456 S
C819 H813 0.955 . S
C819 C818 1.323 1_654 S
C819 C823 1.428 1_654 S
C820 C803 1.574 . S
C820 H814 0.938 1_654 S
C820 C824 1.368 . S
C821 C802 1.429 . S
C821 C815 1.429 . S
C821 C822 1.523 . S
C822 C803 1.368 . S
C822 C816 1.368 . S
C822 C821 1.523 . S
C823 C807 1.431 . S
C823 C819 1.428 1_456 S
C823 C824 1.521 1_456 S
C824 C808 1.368 . S
C824 C820 1.368 . S
C824 C823 1.521 1_654 S
H825 C800 0.950 . S
H826 C802 0.950 . S
H827 C803 0.949 . S
H828 C805 0.950 . S
H829 C807 0.950 . S
C830 C831 1.349 . S
C830 C832 1.327 . S
C830 H855 0.950 1_565 S
C831 C830 1.349 . S
C831 C847 1.349 . S
C832 C830 1.327 . S
C832 C851 1.429 . S
C832 H856 0.950 1_565 S
C833 C850 1.574 . S
C833 C852 1.368 . S
C833 H857 0.949 . S
H834 C838 0.949 1_556 S
C835 C836 1.349 1_565 S
C835 C837 1.327 1_556 S
C835 H858 0.950 . S
C836 C835 1.349 1_545 S
C836 C848 1.349 . S
C837 C835 1.327 1_554 S
C837 C853 1.429 1_565 S
C837 H859 0.950 . S
C838 H834 0.949 1_554 S
C838 C846 1.574 . S
C838 C854 1.368 1_545 S
H839 C847 0.950 . S
H840 C845 0.950 . S
H841 C846 0.949 . S
H842 C848 0.950 . S
H843 C849 0.950 . S
H844 C850 0.949 . S
C845 H840 0.950 . S
C845 C847 1.327 . S
C845 C851 1.429 . S
C846 C838 1.574 . S
C846 H841 0.949 . S
C846 C852 1.368 1_545 S
C847 C831 1.349 . S
C847 H839 0.950 . S
C847 C845 1.327 . S
C848 C836 1.349 . S
C848 H842 0.950 . S
C848 C849 1.327 . S
C849 H843 0.950 . S
C849 C848 1.327 . S
C849 C853 1.429 1_556 S
C850 C833 1.574 . S
C850 H844 0.949 . S
C850 C854 1.368 . S
C851 C832 1.429 . S
C851 C845 1.429 . S
C851 C852 1.523 . S
C852 C833 1.368 . S
C852 C846 1.368 1_565 S
C852 C851 1.523 . S
C853 C837 1.429 1_545 S
C853 C849 1.429 1_554 S
C853 C854 1.523 1_545 S
C854 C838 1.368 1_565 S
C854 C850 1.368 . S
C854 C853 1.523 1_565 S
H855 C830 0.950 1_545 S
H856 C832 0.950 1_545 S
H857 C833 0.949 . S
H858 C835 0.950 . S
H859 C837 0.950 . S
C860 C861 1.349 . S
C860 C862 1.327 . S
C860 H885 0.950 . S
C861 C860 1.349 . S
C861 C877 1.349 . S
C862 C860 1.327 . S
C862 C881 1.429 . S
C862 H886 0.950 . S
C863 C880 1.574 . S
C863 C882 1.368 . S
C863 H887 0.949 . S
H864 C868 0.949 1_556 S
C865 C866 1.349 . S
C865 C867 1.327 1_556 S
C865 H888 0.950 . S
C866 C865 1.349 . S
C866 C878 1.349 . S
C867 C865 1.327 1_554 S
C867 C883 1.429 . S
C867 H889 0.950 . S
C868 H864 0.949 1_554 S
C868 C876 1.574 . S
C868 C884 1.368 . S
H869 C877 0.950 . S
H870 C875 0.950 . S
H871 C876 0.949 . S
H872 C878 0.950 . S
H873 C879 0.950 . S
H874 C880 0.949 . S
C875 H870 0.950 . S
C875 C877 1.327 . S
C875 C881 1.429 . S
C876 C868 1.574 . S
C876 H871 0.949 . S
C876 C882 1.368 . S
C877 C861 1.349 . S
C877 H869 0.950 . S
C877 C875 1.327 . S
C878 C866 1.349 . S
C878 H872 0.950 . S
C878 C879 1.327 . S
C879 H873 0.950 . S
C879 C878 1.327 . S
C879 C883 1.429 1_556 S
C880 C863 1.574 . S
C880 H874 0.949 . S
C880 C884 1.368 . S
C881 C862 1.429 . S
C881 C875 1.429 . S
C881 C882 1.523 . S
C882 C863 1.368 . S
C882 C876 1.368 . S
C882 C881 1.523 . S
C883 C867 1.429 . S
C883 C879 1.429 1_554 S
C883 C884 1.523 . S
C884 C868 1.368 . S
C884 C880 1.368 . S
C884 C883 1.523 . S
H885 C860 0.950 . S
H886 C862 0.950 . S
H887 C863 0.949 . S
H888 C865 0.950 . S
H889 C867 0.950 . S
C890 C891 1.349 . S
C890 C892 1.327 . S
C890 H915 0.950 . S
C891 C890 1.349 . S
C891 C907 1.349 . S
C892 C890 1.327 . S
C892 C911 1.429 . S
C892 H916 0.950 . S
C893 C910 1.574 . S
C893 C912 1.368 . S
C893 H917 0.949 . S
H894 C898 0.949 . S
C895 C896 1.349 . S
C895 C897 1.327 . S
C895 H918 0.950 . S
C896 C895 1.349 . S
C896 C908 1.349 . S
C897 C895 1.327 . S
C897 C913 1.430 . S
C897 H919 0.950 . S
C898 H894 0.949 . S
C898 C906 1.574 . S
C898 C914 1.368 . S
H899 C907 0.950 . S
H900 C905 0.950 . S
H901 C906 0.949 . S
H902 C908 0.950 . S
H903 C909 0.950 . S
H904 C910 0.949 . S
C905 H900 0.950 . S
C905 C907 1.327 . S
C905 C911 1.429 . S
C906 C898 1.574 . S
C906 H901 0.949 . S
C906 C912 1.368 . S
C907 C891 1.349 . S
C907 H899 0.950 . S
C907 C905 1.327 . S
C908 C896 1.349 . S
C908 H902 0.950 . S
C908 C909 1.327 . S
C909 H903 0.950 . S
C909 C908 1.327 . S
C909 C913 1.430 . S
C910 C893 1.574 . S
C910 H904 0.949 . S
C910 C914 1.368 . S
C911 C892 1.429 . S
C911 C905 1.429 . S
C911 C912 1.523 . S
C912 C893 1.368 . S
C912 C906 1.368 . S
C912 C911 1.523 . S
C913 C897 1.430 . S
C913 C909 1.430 . S
C913 C914 1.521 1_556 S
C914 C898 1.368 . S
C914 C910 1.368 . S
C914 C913 1.521 1_554 S
H915 C890 0.950 . S
H916 C892 0.950 . S
H917 C893 0.949 . S
H918 C895 0.950 . S
H919 C897 0.950 . S
C920 C921 1.349 . S
C920 C922 1.327 . S
C920 H945 0.950 1_556 S
C921 C920 1.349 . S
C921 C937 1.349 . S
C922 C920 1.327 . S
C922 C941 1.429 . S
C922 H946 0.950 . S
C923 C940 1.574 . S
C923 C942 1.368 . S
C923 H947 0.949 . S
H924 C928 0.949 . S
C925 C926 1.349 . S
C925 C927 1.327 . S
C925 H948 0.950 . S
C926 C925 1.349 . S
C926 C938 1.349 . S
C927 C925 1.327 . S
C927 C943 1.429 . S
C927 H949 0.950 . S
C928 H924 0.949 . S
C928 C936 1.574 . S
C928 C944 1.368 . S
H929 C937 0.950 . S
H930 C935 0.950 . S
H931 C936 0.949 . S
H932 C938 0.950 . S
H933 C939 0.950 . S
H934 C940 0.949 . S
C935 H930 0.950 . S
C935 C937 1.327 . S
C935 C941 1.429 . S
C936 C928 1.574 . S
C936 H931 0.949 . S
C936 C942 1.368 . S
C937 C921 1.349 . S
C937 H929 0.950 . S
C937 C935 1.327 . S
C938 C926 1.349 . S
C938 H932 0.950 . S
C938 C939 1.327 . S
C939 H933 0.950 . S
C939 C938 1.327 . S
C939 C943 1.429 . S
C940 C923 1.574 . S
C940 H934 0.949 . S
C940 C944 1.368 . S
C941 C922 1.429 . S
C941 C935 1.429 . S
C941 C942 1.523 . S
C942 C923 1.368 . S
C942 C936 1.368 . S
C942 C941 1.523 . S
C943 C927 1.429 . S
C943 C939 1.429 . S
C943 C944 1.523 . S
C944 C928 1.368 . S
C944 C940 1.368 . S
C944 C943 1.523 . S
H945 C920 0.950 1_554 S
H946 C922 0.950 . S
H947 C923 0.949 . S
H948 C925 0.950 . S
H949 C927 0.950 . S
C950 C951 1.349 . S
C950 C952 1.327 . S
C950 H975 0.950 . S
C951 C950 1.349 . S
C951 C967 1.349 . S
C952 C950 1.327 . S
C952 C971 1.429 . S
C952 H976 0.950 . S
C953 C970 1.574 . S
C953 C972 1.368 . S
C953 H977 0.949 . S
H954 C958 0.949 . S
C955 C956 1.349 . S
C955 C957 1.327 . S
C955 H978 0.950 1_545 S
C956 C955 1.349 . S
C956 C968 1.349 . S
C957 C955 1.327 . S
C957 C973 1.429 . S
C957 H979 0.950 1_545 S
C958 H954 0.949 . S
C958 C966 1.574 . S
C958 C974 1.368 . S
H959 C967 0.950 . S
H960 C965 0.950 . S
H961 C966 0.949 . S
H962 C968 0.950 . S
H963 C969 0.950 . S
H964 C970 0.908 1_565 S
C965 H960 0.950 . S
C965 C967 1.327 . S
C965 C971 1.429 . S
C966 C958 1.574 . S
C966 H961 0.949 . S
C966 C972 1.368 . S
C967 C951 1.349 . S
C967 H959 0.950 . S
C967 C965 1.327 . S
C968 C956 1.349 . S
C968 H962 0.950 . S
C968 C969 1.327 . S
C969 H963 0.950 . S
C969 C968 1.327 . S
C969 C973 1.429 . S
C970 C953 1.574 . S
C970 H964 0.908 1_545 S
C970 C974 1.368 . S
C971 C952 1.429 . S
C971 C965 1.429 . S
C971 C972 1.523 . S
C972 C953 1.368 . S
C972 C966 1.368 . S
C972 C971 1.523 . S
C973 C957 1.429 . S
C973 C969 1.429 . S
C973 C974 1.523 . S
C974 C958 1.368 . S
C974 C970 1.368 . S
C974 C973 1.523 . S
H975 C950 0.950 . S
H976 C952 0.950 . S
H977 C953 0.949 . S
H978 C955 0.950 1_565 S
H979 C957 0.950 1_565 S
C980 C981 1.349 . S
C980 C982 1.327 . S
C980 H1005 0.950 . S
C981 C980 1.349 . S
C981 C997 1.349 . S
C982 C980 1.327 . S
C982 C1001 1.429 . S
C982 H1006 0.950 . S
C983 C1000 1.574 . S
C983 C1002 1.368 . S
C983 H1007 0.949 . S
H984 C988 0.949 . S
C985 C986 1.349 . S
C985 C987 1.327 . S
C985 H1008 0.950 . S
C986 C985 1.349 . S
C986 C998 1.349 . S
C987 C985 1.327 . S
C987 C1003 1.429 . S
C987 H1009 0.950 . S
C988 H984 0.949 . S
C988 C996 1.574 . S
C988 C1004 1.368 . S
H989 C997 0.950 1_554 S
H990 C995 0.950 . S
H991 C996 0.949 . S
H992 C998 0.950 . S
H993 C999 0.950 . S
H994 C1000 0.949 . S
C995 H990 0.950 . S
C995 C997 1.327 . S
C995 C1001 1.429 . S
C996 C988 1.574 . S
C996 H991 0.949 . S
C996 C1002 1.368 . S
C997 C981 1.349 . S
C997 H989 0.950 1_556 S
C997 C995 1.327 . S
C998 C986 1.349 . S
C998 H992 0.950 . S
C998 C999 1.327 . S
C999 H993 0.950 . S
C999 C998 1.327 . S
C999 C1003 1.429 . S
C1000 C983 1.574 . S
C1000 H994 0.949 . S
C1000 C1004 1.368 . S
C1001 C982 1.429 . S
C1001 C995 1.429 . S
C1001 C1002 1.523 . S
C1002 C983 1.368 . S
C1002 C996 1.368 . S
C1002 C1001 1.523 . S
C1003 C987 1.429 . S
C1003 C999 1.429 . S
C1003 C1004 1.523 . S
C1004 C988 1.368 . S
C1004 C1000 1.368 . S
C1004 C1003 1.523 . S
H1005 C980 0.950 . S
H1006 C982 0.950 . S
H1007 C983 0.949 . S
H1008 C985 0.950 . S
H1009 C987 0.950 . S
C1010 C1011 1.349 . S
C1010 C1012 1.327 . S
C1010 H1035 0.950 . S
C1011 C1010 1.349 . S
C1011 C1027 1.349 . S
C1012 C1010 1.327 . S
C1012 C1031 1.429 . S
C1012 H1036 0.950 . S
C1013 C1030 1.574 . S
C1013 C1032 1.368 . S
C1013 H1037 0.949 . S
H1014 C1018 0.949 . S
C1015 C1016 1.349 . S
C1015 C1017 1.327 . S
C1015 H1038 0.950 . S
C1016 C1015 1.349 . S
C1016 C1028 1.349 . S
C1017 C1015 1.327 . S
C1017 C1033 1.429 . S
C1017 H1039 0.950 . S
C1018 H1014 0.949 . S
C1018 C1026 1.574 . S
C1018 C1034 1.368 . S
H1019 C1027 0.950 . S
H1020 C1025 0.950 . S
H1021 C1026 0.949 . S
H1022 C1028 0.950 . S
H1023 C1029 0.950 . S
H1024 C1030 0.949 . S
C1025 H1020 0.950 . S
C1025 C1027 1.327 . S
C1025 C1031 1.429 . S
C1026 C1018 1.574 . S
C1026 H1021 0.949 . S
C1026 C1032 1.368 . S
C1027 C1011 1.349 . S
C1027 H1019 0.950 . S
C1027 C1025 1.327 . S
C1028 C1016 1.349 . S
C1028 H1022 0.950 . S
C1028 C1029 1.327 . S
C1029 H1023 0.950 . S
C1029 C1028 1.327 . S
C1029 C1033 1.429 . S
C1030 C1013 1.574 . S
C1030 H1024 0.949 . S
C1030 C1034 1.368 . S
C1031 C1012 1.429 . S
C1031 C1025 1.429 . S
C1031 C1032 1.523 . S
C1032 C1013 1.368 . S
C1032 C1026 1.368 . S
C1032 C1031 1.523 . S
C1033 C1017 1.429 . S
C1033 C1029 1.429 . S
C1033 C1034 1.523 . S
C1034 C1018 1.368 . S
C1034 C1030 1.368 . S
C1034 C1033 1.523 . S
H1035 C1010 0.950 . S
H1036 C1012 0.950 . S
H1037 C1013 0.949 . S
H1038 C1015 0.950 . S
H1039 C1017 0.950 . S
C1040 C1041 1.349 . S
C1040 C1042 1.327 . S
C1040 H1065 0.950 . S
C1041 C1040 1.349 . S
C1041 C1057 1.349 . S
C1042 C1040 1.327 . S
C1042 C1061 1.429 . S
C1042 H1066 0.950 . S
C1043 C1060 1.574 . S
C1043 C1062 1.368 . S
C1043 H1067 0.949 . S
H1044 C1048 0.959 . S
C1045 C1046 1.349 . S
C1045 C1047 1.327 . S
C1045 H1068 0.950 . S
C1046 C1045 1.349 . S
C1046 C1058 1.343 1_655 S
C1047 C1045 1.327 . S
C1047 C1063 1.429 . S
C1047 H1069 0.950 . S
C1048 H1044 0.959 . S
C1048 C1056 1.574 . S
C1048 C1064 1.368 . S
H1049 C1057 0.950 . S
H1050 C1055 0.950 . S
H1051 C1056 0.949 . S
H1052 C1058 0.958 . S
H1053 C1059 0.950 1_455 S
H1054 C1060 0.949 . S
C1055 H1050 0.950 . S
C1055 C1057 1.327 . S
C1055 C1061 1.429 . S
C1056 C1048 1.574 . S
C1056 H1051 0.949 . S
C1056 C1062 1.368 . S
C1057 C1041 1.349 . S
C1057 H1049 0.950 . S
C1057 C1055 1.327 . S
C1058 C1046 1.343 1_455 S
C1058 H1052 0.958 . S
C1058 C1059 1.325 1_455 S
C1059 H1053 0.950 1_655 S
C1059 C1058 1.325 1_655 S
C1059 C1063 1.429 . S
C1060 C1043 1.574 . S
C1060 H1054 0.949 . S
C1060 C1064 1.368 . S
C1061 C1042 1.429 . S
C1061 C1055 1.429 . S
C1061 C1062 1.523 . S
C1062 C1043 1.368 . S
C1062 C1056 1.368 . S
C1062 C1061 1.523 . S
C1063 C1047 1.429 . S
C1063 C1059 1.429 . S
C1063 C1064 1.523 . S
C1064 C1048 1.368 . S
C1064 C1060 1.368 . S
C1064 C1063 1.523 . S
H1065 C1040 0.950 . S
H1066 C1042 0.950 . S
H1067 C1043 0.949 . S
H1068 C1045 0.950 . S
H1069 C1047 0.950 . S
C1070 C1071 1.349 . S
C1070 C1072 1.327 . S
C1070 H1095 0.950 . S
C1071 C1070 1.349 . S
C1071 C1087 1.349 . S
C1072 C1070 1.327 . S
C1072 C1091 1.429 . S
C1072 H1096 0.950 . S
C1073 C1090 1.579 . S
C1073 C1092 1.340 1_545 S
C1073 H1097 0.972 . S
H1074 C1078 0.949 . S
C1075 C1076 1.349 1_545 S
C1075 C1077 1.327 . S
C1075 H1098 0.950 . S
C1076 C1075 1.349 1_565 S
C1076 C1088 1.349 . S
C1077 C1075 1.327 . S
C1077 C1093 1.429 1_545 S
C1077 H1099 0.950 . S
C1078 H1074 0.949 . S
C1078 C1086 1.574 . S
C1078 C1094 1.368 . S
H1079 C1087 0.934 1_545 S
H1080 C1085 0.950 1_545 S
H1081 C1086 0.949 . S
H1082 C1088 0.950 . S
H1083 C1089 0.950 . S
H1084 C1090 0.949 . S
C1085 H1080 0.950 1_565 S
C1085 C1087 1.327 . S
C1085 C1091 1.429 . S
C1086 C1078 1.574 . S
C1086 H1081 0.949 . S
C1086 C1092 1.368 . S
C1087 C1071 1.349 . S
C1087 H1079 0.934 1_565 S
C1087 C1085 1.327 . S
C1088 C1076 1.349 . S
C1088 H1082 0.950 . S
C1088 C1089 1.327 . S
C1089 H1083 0.950 . S
C1089 C1088 1.327 . S
C1089 C1093 1.429 . S
C1090 C1073 1.579 . S
C1090 H1084 0.949 . S
C1090 C1094 1.368 1_545 S
C1091 C1072 1.429 . S
C1091 C1085 1.429 . S
C1091 C1092 1.523 . S
C1092 C1073 1.340 1_565 S
C1092 C1086 1.368 . S
C1092 C1091 1.523 . S
C1093 C1077 1.429 1_565 S
C1093 C1089 1.429 . S
C1093 C1094 1.523 . S
C1094 C1078 1.368 . S
C1094 C1090 1.368 1_565 S
C1094 C1093 1.523 . S
H1095 C1070 0.950 . S
H1096 C1072 0.950 . S
H1097 C1073 0.972 . S
H1098 C1075 0.950 . S
H1099 C1077 0.950 . S
C1100 C1101 1.349 . S
C1100 C1102 1.327 . S
C1100 H1125 0.950 . S
C1101 C1100 1.349 . S
C1101 C1117 1.349 . S
C1102 C1100 1.327 . S
C1102 C1121 1.429 . S
C1102 H1126 0.950 . S
C1103 C1120 1.574 . S
C1103 C1122 1.368 . S
C1103 H1127 0.949 . S
H1104 C1108 0.949 . S
C1105 C1106 1.349 . S
C1105 C1107 1.327 . S
C1105 H1128 0.950 . S
C1106 C1105 1.349 . S
C1106 C1118 1.349 . S
C1107 C1105 1.327 . S
C1107 C1123 1.429 . S
C1107 H1129 0.950 . S
C1108 H1104 0.949 . S
C1108 C1116 1.574 . S
C1108 C1124 1.368 . S
H1109 C1117 0.950 . S
H1110 C1115 0.950 . S
H1111 C1116 0.949 . S
H1112 C1118 0.950 . S
H1113 C1119 0.950 . S
H1114 C1120 0.949 . S
C1115 H1110 0.950 . S
C1115 C1117 1.327 . S
C1115 C1121 1.429 . S
C1116 C1108 1.574 . S
C1116 H1111 0.949 . S
C1116 C1122 1.368 . S
C1117 C1101 1.349 . S
C1117 H1109 0.950 . S
C1117 C1115 1.327 . S
C1118 C1106 1.349 . S
C1118 H1112 0.950 . S
C1118 C1119 1.327 . S
C1119 H1113 0.950 . S
C1119 C1118 1.327 . S
C1119 C1123 1.429 . S
C1120 C1103 1.574 . S
C1120 H1114 0.949 . S
C1120 C1124 1.368 . S
C1121 C1102 1.429 . S
C1121 C1115 1.429 . S
C1121 C1122 1.523 . S
C1122 C1103 1.368 . S
C1122 C1116 1.368 . S
C1122 C1121 1.523 . S
C1123 C1107 1.429 . S
C1123 C1119 1.429 . S
C1123 C1124 1.523 . S
C1124 C1108 1.368 . S
C1124 C1120 1.368 . S
C1124 C1123 1.523 . S
H1125 C1100 0.950 . S
H1126 C1102 0.950 . S
H1127 C1103 0.949 . S
H1128 C1105 0.950 . S
H1129 C1107 0.950 . S
C1130 C1131 1.349 . S
C1130 C1132 1.327 . S
C1130 H1155 0.950 . S
C1131 C1130 1.349 . S
C1131 C1147 1.349 . S
C1132 C1130 1.327 . S
C1132 C1151 1.429 . S
C1132 H1156 0.950 . S
C1133 C1150 1.574 . S
C1133 C1152 1.368 . S
C1133 H1157 0.949 . S
H1134 C1138 0.949 . S
C1135 C1136 1.349 . S
C1135 C1137 1.327 . S
C1135 H1158 0.950 . S
C1136 C1135 1.349 . S
C1136 C1148 1.349 . S
C1137 C1135 1.327 . S
C1137 C1153 1.429 . S
C1137 H1159 0.950 . S
C1138 H1134 0.949 . S
C1138 C1146 1.574 . S
C1138 C1154 1.368 . S
H1139 C1147 0.950 . S
H1140 C1145 0.950 . S
H1141 C1146 0.949 . S
H1142 C1148 0.950 . S
H1143 C1149 0.950 . S
H1144 C1150 0.949 . S
C1145 H1140 0.950 . S
C1145 C1147 1.327 . S
C1145 C1151 1.429 . S
C1146 C1138 1.574 . S
C1146 H1141 0.949 . S
C1146 C1152 1.368 . S
C1147 C1131 1.349 . S
C1147 H1139 0.950 . S
C1147 C1145 1.327 . S
C1148 C1136 1.349 . S
C1148 H1142 0.950 . S
C1148 C1149 1.327 . S
C1149 H1143 0.950 . S
C1149 C1148 1.327 . S
C1149 C1153 1.429 . S
C1150 C1133 1.574 . S
C1150 H1144 0.949 . S
C1150 C1154 1.368 . S
C1151 C1132 1.429 . S
C1151 C1145 1.429 . S
C1151 C1152 1.523 . S
C1152 C1133 1.368 . S
C1152 C1146 1.368 . S
C1152 C1151 1.523 . S
C1153 C1137 1.429 . S
C1153 C1149 1.429 . S
C1153 C1154 1.523 . S
C1154 C1138 1.368 . S
C1154 C1150 1.368 . S
C1154 C1153 1.523 . S
H1155 C1130 0.950 . S
H1156 C1132 0.950 . S
H1157 C1133 0.949 . S
H1158 C1135 0.950 . S
H1159 C1137 0.950 . S
C441 N80 1.891 . S
C446 C167 1.938 . S
C476 C244 1.954 . S
C471 N93 1.891 . S
C506 C335 1.929 . S
C501 N54 1.882 . S
C536 C419 1.923 . S
C531 N67 1.877 . S
C566 C178 1.938 . S
C561 N28 1.898 . S
C591 N41 1.897 . S
C596 C255 1.954 . S
C621 N2 1.888 . S
C626 C346 1.929 . S
C651 N15 1.882 . S
C656 C430 1.919 1_655 S
C686 C162 0.488 1_455 S
C681 N70 0.400 . S
C716 C257 0.523 . S
C711 N83 0.376 . S
C746 C330 0.531 . S
C741 N96 0.401 . S
C771 N57 0.384 . S
C776 C414 0.526 . S
C801 N18 0.396 . S
C806 C173 0.534 . S
C836 C246 0.523 . S
C831 N31 0.371 . S
C866 C341 0.531 . S
C861 N44 0.396 . S
C891 N5 0.379 . S
C896 C425 0.526 . S
C921 N66 1.931 1_556 S
C926 C171 1.989 . S
C951 N79 1.932 1_556 S
C956 C262 1.986 . S
C986 C339 2.003 . S
C981 N92 1.951 . S
C1016 C423 2.010 . S
C1011 N53 1.944 1_556 S
C1041 N14 1.940 . S
C1046 C160 1.989 . S
C1076 C251 1.987 1_565 S
C1071 N27 1.942 . S
C1106 C328 2.003 . S
C1101 N40 1.953 . S
C1131 N1 1.960 . S
C1136 C412 2.010 . S
