# Generated by pormake.
# Topology zzz, (3,6)-cn, num edge types: 1
# Building blocks:
#     Node 0, Type 0, BuildingBlock: PAMTOO_clean_linker_0, # of connection points: 3
#     Node 1, Type 0, BuildingBlock: PAMTOO_clean_linker_0, # of connection points: 3
#     Node 2, Type 0, BuildingBlock: PAMTOO_clean_linker_0, # of connection points: 3
#     Node 3, Type 0, BuildingBlock: PAMTOO_clean_linker_0, # of connection points: 3
#     Node 4, Type 0, BuildingBlock: PAMTOO_clean_linker_0, # of connection points: 3
#     Node 5, Type 0, BuildingBlock: PAMTOO_clean_linker_0, # of connection points: 3
#     Node 6, Type 0, BuildingBlock: PAMTOO_clean_linker_0, # of connection points: 3
#     Node 7, Type 0, BuildingBlock: PAMTOO_clean_linker_0, # of connection points: 3
#     Node 8, Type 1, BuildingBlock: GEDQOX_clean_sbu_0, # of connection points: 6
#     Node 9, Type 1, BuildingBlock: GEDQOX_clean_sbu_0, # of connection points: 6
#     Node 10, Type 1, BuildingBlock: GEDQOX_clean_sbu_0, # of connection points: 6
#     Node 11, Type 1, BuildingBlock: GEDQOX_clean_sbu_0, # of connection points: 6
#     Edge 12, Type (0, 1), BuildingBlock: UVAHIK_clean_linker_0, # of connection points: 2
#     Edge 13, Type (0, 1), BuildingBlock: UVAHIK_clean_linker_0, # of connection points: 2
#     Edge 14, Type (0, 1), BuildingBlock: UVAHIK_clean_linker_0, # of connection points: 2
#     Edge 15, Type (0, 1), BuildingBlock: UVAHIK_clean_linker_0, # of connection points: 2
#     Edge 16, Type (0, 1), BuildingBlock: UVAHIK_clean_linker_0, # of connection points: 2
#     Edge 17, Type (0, 1), BuildingBlock: UVAHIK_clean_linker_0, # of connection points: 2
#     Edge 18, Type (0, 1), BuildingBlock: UVAHIK_clean_linker_0, # of connection points: 2
#     Edge 19, Type (0, 1), BuildingBlock: UVAHIK_clean_linker_0, # of connection points: 2
#     Edge 20, Type (0, 1), BuildingBlock: UVAHIK_clean_linker_0, # of connection points: 2
#     Edge 21, Type (0, 1), BuildingBlock: UVAHIK_clean_linker_0, # of connection points: 2
#     Edge 22, Type (0, 1), BuildingBlock: UVAHIK_clean_linker_0, # of connection points: 2
#     Edge 23, Type (0, 1), BuildingBlock: UVAHIK_clean_linker_0, # of connection points: 2
#     Edge 24, Type (0, 1), BuildingBlock: UVAHIK_clean_linker_0, # of connection points: 2
#     Edge 25, Type (0, 1), BuildingBlock: UVAHIK_clean_linker_0, # of connection points: 2
#     Edge 26, Type (0, 1), BuildingBlock: UVAHIK_clean_linker_0, # of connection points: 2
#     Edge 27, Type (0, 1), BuildingBlock: UVAHIK_clean_linker_0, # of connection points: 2
#     Edge 28, Type (0, 1), BuildingBlock: UVAHIK_clean_linker_0, # of connection points: 2
#     Edge 29, Type (0, 1), BuildingBlock: UVAHIK_clean_linker_0, # of connection points: 2
#     Edge 30, Type (0, 1), BuildingBlock: UVAHIK_clean_linker_0, # of connection points: 2
#     Edge 31, Type (0, 1), BuildingBlock: UVAHIK_clean_linker_0, # of connection points: 2
#     Edge 32, Type (0, 1), BuildingBlock: UVAHIK_clean_linker_0, # of connection points: 2
#     Edge 33, Type (0, 1), BuildingBlock: UVAHIK_clean_linker_0, # of connection points: 2
#     Edge 34, Type (0, 1), BuildingBlock: UVAHIK_clean_linker_0, # of connection points: 2
#     Edge 35, Type (0, 1), BuildingBlock: UVAHIK_clean_linker_0, # of connection points: 2
# Relax obj value: 0.122
# Max RMSD: 0.172
# Mean RMSD: 0.091
data_MOF--net-zzz--node1-GEDQOX_clean_sbu_0--node2-PAMTOO_clean_linker_0--edge1-UVAHIK_clean_linker_0
_symmetry_space_group_name_H-M    P1
_symmetry_Int_Tables_number       1
_symmetry_cell_setting            triclinic
loop_
_symmetry_equiv_pos_as_xyz
'x, y, z'
_cell_length_a     69.655946
_cell_length_b     69.109226
_cell_length_c     21.167976
_cell_angle_alpha  81.250176
_cell_angle_beta   88.901115
_cell_angle_gamma 97.959865
loop_
_atom_site_label
_atom_site_type_symbol
_atom_site_fract_x
_atom_site_fract_y
_atom_site_fract_z
_atom_type_partial_charge
H0 H 0.81598 0.5538 0.14254 0.0
H1 H 0.7639 0.53908 0.04371 0.0
H2 H 0.76031 0.55604 0.23049 0.0
H3 H 0.72873 0.52408 0.20607 0.0
C4 C 0.72863 0.52781 0.15307 0.0
O5 O 0.74036 0.54561 0.13371 0.0
H6 H 0.73424 0.51582 0.13179 0.0
C7 C 0.80032 0.55248 0.14029 0.0
C8 C 0.78937 0.55604 0.19249 0.0
C9 C 0.79136 0.54627 0.08665 0.0
C10 C 0.77106 0.54381 0.08492 0.0
C11 C 0.75989 0.54749 0.13657 0.0
C12 C 0.76902 0.55339 0.1906 0.0
H13 H 0.02616 0.80854 0.25702 0.0
H14 H 0.02585 0.76533 0.13063 0.0
H15 H 0.99895 0.74878 0.31992 0.0
H16 H 0.01861 0.71549 0.27754 0.0
C17 C 0.02027 0.72177 0.22583 0.0
O18 O 0.00789 0.73578 0.21256 0.0
H19 H 0.03565 0.72881 0.21646 0.0
C20 C 0.02269 0.79338 0.24842 0.0
C21 C 0.01227 0.77935 0.29577 0.0
C22 C 0.02753 0.78861 0.18876 0.0
C23 C 0.0223 0.76918 0.17679 0.0
C24 C 0.01246 0.75461 0.22454 0.0
C25 C 0.00707 0.75982 0.28379 0.0
H26 H 0.69509 0.97136 0.1835 0.0
H27 H 0.74905 0.98538 0.07373 0.0
H28 H 0.74791 0.95669 0.26914 0.0
H29 H 0.78416 0.98455 0.23346 0.0
C30 C 0.7831 0.986 0.18063 0.0
O31 O 0.76996 0.97066 0.16589 0.0
H32 H 0.77819 1.00051 0.1636 0.0
C33 C 0.71054 0.97074 0.17991 0.0
C34 C 0.72008 0.96274 0.23346 0.0
C35 C 0.72086 0.97896 0.12252 0.0
C36 C 0.74093 0.97896 0.11788 0.0
C37 C 0.75061 0.97076 0.17068 0.0
C38 C 0.74024 0.96276 0.22844 0.0
H39 H 0.47701 0.71911 0.39483 0.0
H40 H 0.47915 0.77762 0.28707 0.0
H41 H 0.50749 0.76926 0.46567 0.0
H42 H 0.49343 0.81112 0.43789 0.0
C43 C 0.48885 0.80846 0.38956 0.0
O44 O 0.49981 0.79534 0.36848 0.0
H45 H 0.47314 0.80226 0.39417 0.0
C46 C 0.48114 0.735 0.38998 0.0
C47 C 0.49229 0.7427 0.43719 0.0
C48 C 0.47637 0.74732 0.33514 0.0
C49 C 0.48268 0.76776 0.32871 0.0
C50 C 0.49369 0.77566 0.37595 0.0
C51 C 0.4987 0.76312 0.42984 0.0
H52 H 0.20084 0.48751 0.57498 0.0
H53 H 0.25382 0.502 0.66967 0.0
H54 H 0.25563 0.48356 0.48448 0.0
H55 H 0.28556 0.46806 0.56268 0.0
C56 C 0.28493 0.47705 0.60181 0.0
O57 O 0.27645 0.49361 0.58006 0.0
H58 H 0.276 0.46764 0.64233 0.0
C59 C 0.21653 0.4888 0.57606 0.0
C60 C 0.22701 0.48464 0.52387 0.0
C61 C 0.22598 0.49524 0.62855 0.0
C62 C 0.2463 0.49728 0.62908 0.0
C63 C 0.25696 0.49277 0.57757 0.0
C64 C 0.24734 0.48688 0.52431 0.0
H65 H 0.99762 0.22948 0.47266 0.0
H66 H 0.99801 0.27528 0.58924 0.0
H67 H 0.01724 0.29006 0.39061 0.0
H68 H 0.98247 0.30866 0.50321 0.0
C69 C 0.99717 0.317 0.48912 0.0
O70 O 0.0111 0.30446 0.49786 0.0
H71 H 0.99702 0.32311 0.43744 0.0
C72 C 0.00014 0.24507 0.47719 0.0
C73 C 0.0077 0.25895 0.42453 0.0
C74 C 0.99665 0.25078 0.5364 0.0
C75 C 0.00043 0.2708 0.54319 0.0
C76 C 0.00746 0.28512 0.49039 0.0
C77 C 0.0113 0.27914 0.43093 0.0
H78 H 0.31886 0.06043 0.55058 0.0
H79 H 0.26524 0.05075 0.66194 0.0
H80 H 0.26766 0.08021 0.46704 0.0
H81 H 0.24138 0.09674 0.55287 0.0
C82 C 0.23925 0.08388 0.59217 0.0
O83 O 0.24538 0.06776 0.57089 0.0
H84 H 0.24796 0.08808 0.63287 0.0
C85 C 0.30367 0.06222 0.55454 0.0
C86 C 0.2947 0.07147 0.50172 0.0
C87 C 0.29317 0.05468 0.61206 0.0
C88 C 0.27347 0.05651 0.6175 0.0
C89 C 0.26435 0.0659 0.56531 0.0
C90 C 0.27488 0.07315 0.50726 0.0
H91 H 0.54655 0.31687 0.3515 0.0
H92 H 0.54264 0.25683 0.44637 0.0
H93 H 0.51914 0.26921 0.26069 0.0
H94 H 0.49564 0.23132 0.34348 0.0
C95 C 0.50593 0.23259 0.38264 0.0
O96 O 0.52393 0.24133 0.35625 0.0
H97 H 0.50005 0.24183 0.4151 0.0
C98 C 0.54268 0.30115 0.35091 0.0
C99 C 0.53308 0.29482 0.29834 0.0
C100 C 0.54629 0.28768 0.40445 0.0
C101 C 0.5401 0.26746 0.40536 0.0
C102 C 0.53025 0.26085 0.35375 0.0
C103 C 0.52676 0.27449 0.30027 0.0
Nd104 Nd 0.99932 0.01053 0.80269 0.0
Nd105 Nd 0.01671 0.02594 0.91942 0.0
C106 C 0.98141 0.98789 0.72474 0.0
C107 C 0.98325 0.969 0.70121 0.0
C108 C 0.96685 0.95464 0.70232 0.0
C109 C 0.96803 0.93698 0.67841 0.0
C110 C 0.98568 0.93324 0.65235 0.0
C111 C 0.00218 0.94759 0.65218 0.0
C112 C 0.001 0.96521 0.67643 0.0
C113 C 0.03667 0.02959 0.78241 0.0
C114 C 0.02212 0.98164 0.90666 0.0
C115 C 0.03463 0.04865 0.99707 0.0
C116 C 0.03202 0.06714 0.02174 0.0
C117 C 0.04831 0.08098 0.02857 0.0
C118 C 0.04625 0.09847 0.05238 0.0
C119 C 0.02781 0.10252 0.07027 0.0
C120 C 0.01148 0.08868 0.06283 0.0
C121 C 0.01354 0.07124 0.03856 0.0
C122 C 0.97922 0.00703 0.93913 0.0
C123 C 0.99376 0.05487 0.81571 0.0
O124 O 0.97598 0.98672 0.7849 0.0
O125 O 0.99476 1.00302 0.70538 0.0
O126 O 0.02346 0.03092 0.74021 0.0
O127 O 0.03029 0.01771 0.83195 0.0
O128 O 0.00868 0.98308 0.86366 0.0
O129 O 0.0301 0.99725 0.93074 0.0
O130 O 0.03946 0.05039 0.9362 0.0
O131 O 0.02197 0.03295 0.01702 0.0
O132 O 0.99239 1.00552 0.98149 0.0
O133 O 0.98579 0.01894 0.88992 0.0
O134 O 0.00647 0.0533 0.86105 0.0
O135 O 0.98655 0.0396 0.7886 0.0
H136 H 0.95301 0.95713 0.72143 0.0
H137 H 0.95507 0.92622 0.68067 0.0
H138 H 0.01599 0.94545 0.63197 0.0
H139 H 0.01395 0.97596 0.67507 0.0
H140 H 0.0627 0.07819 0.01581 0.0
H141 H 0.05916 0.10866 0.05796 0.0
H142 H 0.99704 0.09141 0.07525 0.0
H143 H 0.00069 0.06095 0.03308 0.0
Nd144 Nd 0.50751 1.00238 0.82413 0.0
Nd145 Nd 0.5075 0.03406 0.90628 0.0
C146 C 0.51579 0.97209 0.77116 0.0
C147 C 0.5337 0.96866 0.7396 0.0
C148 C 0.5354 0.9502 0.72214 0.0
C149 C 0.55257 0.94715 0.69203 0.0
C150 C 0.56829 0.96256 0.67908 0.0
C151 C 0.56653 0.98094 0.6977 0.0
C152 C 0.54938 0.98397 0.72739 0.0
C153 C 0.50782 0.03964 0.75651 0.0
C154 C 0.54904 0.02432 0.87076 0.0
C155 C 0.49922 0.06421 0.96002 0.0
C156 C 0.48134 0.06754 0.99207 0.0
C157 C 0.47976 0.08582 0.0111 0.0
C158 C 0.46264 0.08873 0.0419 0.0
C159 C 0.44685 0.07338 0.05397 0.0
C160 C 0.4485 0.05518 0.03377 0.0
C161 C 0.46559 0.05228 0.00345 0.0
C162 C 0.50719 0.99673 0.97356 0.0
C163 C 0.46596 0.01198 0.85991 0.0
O164 O 0.51672 0.97266 0.8325 0.0
O165 O 0.50723 0.9863 0.74115 0.0
O166 O 0.49801 0.02385 0.7408 0.0
O167 O 0.51775 0.03544 0.80457 0.0
O168 O 0.53914 0.00822 0.85457 0.0
O169 O 0.54018 0.03893 0.88442 0.0
O170 O 0.4982 0.06374 0.89865 0.0
O171 O 0.50785 0.05001 0.9896 0.0
O172 O 0.51717 0.01247 0.98902 0.0
O173 O 0.49716 1.00103 0.92588 0.0
O174 O 0.47579 0.02812 0.87607 0.0
O175 O 0.47489 0.99744 0.84616 0.0
H176 H 0.52342 0.93821 0.73137 0.0
H177 H 0.5534 0.93288 0.67777 0.0
H178 H 0.57843 0.99302 0.6895 0.0
H179 H 0.54835 0.99833 0.74067 0.0
H180 H 0.49179 0.09777 0.0026 0.0
H181 H 0.46193 0.10286 0.05739 0.0
H182 H 0.43654 0.04315 0.04123 0.0
H183 H 0.46653 0.03804 0.98907 0.0
Nd184 Nd 0.49345 0.52065 0.91627 0.0
Nd185 Nd 0.5223 0.5144 0.81524 0.0
C186 C 0.46476 0.53257 0.97656 0.0
C187 C 0.46154 0.55241 0.98678 0.0
C188 C 0.44407 0.55553 0.01479 0.0
C189 C 0.44151 0.57451 0.02583 0.0
C190 C 0.45643 0.59054 0.00896 0.0
C191 C 0.47367 0.58734 0.97918 0.0
C192 C 0.47622 0.56845 0.96847 0.0
C193 C 0.53121 0.52439 0.95251 0.0
C194 C 0.5128 0.55836 0.8069 0.0
C195 C 0.5508 0.50244 0.75439 0.0
C196 C 0.55339 0.48261 0.74223 0.0
C197 C 0.57155 0.47852 0.72289 0.0
C198 C 0.57381 0.45936 0.71292 0.0
C199 C 0.5579 0.44412 0.72225 0.0
C200 C 0.53983 0.44833 0.74267 0.0
C201 C 0.53759 0.46739 0.75243 0.0
C202 C 0.48433 0.51032 0.78036 0.0
C203 C 0.50306 0.47658 0.92511 0.0
O204 O 0.46404 0.52945 0.9172 0.0
O205 O 0.47949 0.52596 0.00569 0.0
O206 O 0.51657 0.51658 0.99116 0.0
O207 O 0.52564 0.53103 0.89817 0.0
O208 O 0.49783 0.55012 0.84571 0.0
O209 O 0.52666 0.54817 0.79404 0.0
O210 O 0.55135 0.50479 0.81451 0.0
O211 O 0.53653 0.50998 0.72512 0.0
O212 O 0.49876 0.51842 0.7411 0.0
O213 O 0.49027 0.50377 0.83412 0.0
O214 O 0.51756 0.48449 0.88383 0.0
O215 O 0.4896 0.48697 0.9402 0.0
H216 H 0.43258 0.54328 0.02897 0.0
H217 H 0.42813 0.57652 0.04927 0.0
H218 H 0.48531 0.59942 0.9647 0.0
H219 H 0.48981 0.56632 0.94668 0.0
H220 H 0.58392 0.49011 0.71533 0.0
H221 H 0.58787 0.45658 0.69674 0.0
H222 H 0.52738 0.43685 0.75136 0.0
H223 H 0.5235 0.47025 0.7681 0.0
Nd224 Nd 0.00851 0.53371 0.79569 0.0
Nd225 Nd 0.00866 0.5061 0.91477 0.0
C226 C 0.99895 0.56064 0.70359 0.0
C227 C 0.98116 0.56152 0.66751 0.0
C228 C 0.97606 0.57977 0.64 0.0
C229 C 0.95856 0.58057 0.6088 0.0
C230 C 0.94587 0.56311 0.60473 0.0
C231 C 0.95112 0.54486 0.63244 0.0
C232 C 0.96857 0.54409 0.66351 0.0
C233 C 0.01308 0.49613 0.775 0.0
C234 C 0.96685 0.50977 0.86319 0.0
C235 C 0.01788 0.47879 0.00624 0.0
C236 C 0.03556 0.47691 0.04227 0.0
C237 C 0.04008 0.45817 0.06686 0.0
C238 C 0.05727 0.45631 0.09895 0.0
C239 C 0.07026 0.47321 0.10698 0.0
C240 C 0.06563 0.49198 0.08192 0.0
C241 C 0.04849 0.4938 0.04975 0.0
C242 C 0.004 0.54366 0.93527 0.0
C243 C 0.05032 0.53026 0.8481 0.0
O244 O 0.99704 0.56188 0.76431 0.0
O245 O 0.00921 0.54687 0.69327 0.0
O246 O 0.02266 0.51224 0.74353 0.0
O247 O 0.00121 0.50006 0.81564 0.0
O248 O 0.97599 0.52521 0.82463 0.0
O249 O 0.97646 0.49771 0.90009 0.0
O250 O 0.01952 0.47756 0.94543 0.0
O251 O 0.00828 0.49299 0.01713 0.0
O252 O 0.99442 0.52753 0.96675 0.0
O253 O 0.01594 0.53974 0.89482 0.0
O254 O 0.04121 0.51474 0.88646 0.0
O255 O 0.04067 0.54227 0.81107 0.0
H256 H 0.98554 0.59338 0.64303 0.0
H257 H 0.95504 0.59484 0.58742 0.0
H258 H 0.94157 0.53117 0.6312 0.0
H259 H 0.97211 0.52985 0.68524 0.0
H260 H 0.03038 0.44496 0.0608 0.0
H261 H 0.06048 0.44163 0.11678 0.0
H262 H 0.07512 0.50533 0.08788 0.0
H263 H 0.04535 0.50843 0.03057 0.0
C264 C 0.20365 0.08405 0.57241 0.0
C265 C 0.21822 0.07886 0.61385 0.0
C266 C 0.1841 0.0791 0.59234 0.0
C267 C 0.15159 0.06481 0.73729 0.0
H268 H 0.11438 0.04652 0.61781 0.0
C269 C 0.07159 0.03182 0.81086 0.0
C270 C 0.05744 0.03686 0.76736 0.0
C271 C 0.09132 0.03753 0.79409 0.0
C272 C 0.12454 0.05183 0.65156 0.0
H273 H 0.22398 0.06384 0.70738 0.0
H274 H 0.18975 0.05499 0.74243 0.0
H275 H 0.14853 0.05498 0.58444 0.0
H276 H 0.05273 0.05246 0.67339 0.0
H277 H 0.08708 0.06261 0.64439 0.0
H278 H 0.12752 0.06155 0.80451 0.0
C279 C 0.19339 0.06331 0.69511 0.0
C280 C 0.14414 0.05668 0.6324 0.0
C281 C 0.21294 0.06828 0.67509 0.0
C282 C 0.06334 0.04822 0.70768 0.0
C283 C 0.08302 0.05392 0.69092 0.0
C284 C 0.13196 0.05993 0.7565 0.0
C285 C 0.17873 0.06868 0.65398 0.0
C286 C 0.1579 0.0633 0.67491 0.0
C287 C 0.09726 0.04839 0.73348 0.0
C288 C 0.11819 0.05348 0.71372 0.0
H289 H 0.2074 0.09202 0.52467 0.0
H290 H 0.1732 0.08361 0.55965 0.0
H291 H 0.16179 0.07009 0.771 0.0
H292 H 0.06743 0.02308 0.85727 0.0
H293 H 0.10193 0.03294 0.82784 0.0
C294 C 0.49865 0.19522 0.39999 0.0
C295 C 0.5074 0.21258 0.42065 0.0
C296 C 0.49928 0.17675 0.43694 0.0
C297 C 0.52573 0.15052 0.56495 0.0
H298 H 0.47833 0.11307 0.58848 0.0
C299 C 0.51899 0.07624 0.73979 0.0
C300 C 0.50833 0.05967 0.71957 0.0
C301 C 0.51918 0.09517 0.70455 0.0
C302 C 0.49177 0.12322 0.58183 0.0
H303 H 0.52398 0.22432 0.49517 0.0
H304 H 0.52524 0.19199 0.55984 0.0
H305 H 0.47845 0.14535 0.52363 0.0
H306 H 0.48966 0.04981 0.64658 0.0
H307 H 0.49028 0.08259 0.58458 0.0
H308 H 0.53912 0.12829 0.62264 0.0
C309 C 0.51793 0.19263 0.51503 0.0
C310 C 0.49183 0.14176 0.54464 0.0
C311 C 0.51718 0.21112 0.47821 0.0
C312 C 0.49795 0.06233 0.66347 0.0
C313 C 0.4982 0.08117 0.62817 0.0
C314 C 0.52572 0.1319 0.60195 0.0
C315 C 0.50879 0.17523 0.49516 0.0
C316 C 0.50882 0.1556 0.53544 0.0
C317 C 0.50874 0.09788 0.6483 0.0
C318 C 0.50875 0.11796 0.61056 0.0
H319 H 0.49111 0.19594 0.35559 0.0
H320 H 0.49234 0.16362 0.41982 0.0
H321 H 0.53911 0.16079 0.55835 0.0
H322 H 0.52707 0.07461 0.78303 0.0
H323 H 0.52727 0.10769 0.72193 0.0
C324 C 0.31994 0.49189 0.57678 0.0
C325 C 0.30522 0.48295 0.62237 0.0
C326 C 0.33909 0.49614 0.59507 0.0
C327 C 0.37186 0.48028 0.72107 0.0
H328 H 0.40517 0.5288 0.65097 0.0
C329 C 0.44914 0.49908 0.80934 0.0
C330 C 0.46376 0.50799 0.76331 0.0
C331 C 0.42967 0.49683 0.7932 0.0
C332 C 0.39613 0.51507 0.67046 0.0
H333 H 0.29872 0.47206 0.72301 0.0
H334 H 0.33213 0.47948 0.75514 0.0
H335 H 0.3714 0.52375 0.62082 0.0
H336 H 0.46953 0.52157 0.6644 0.0
H337 H 0.4356 0.51729 0.63569 0.0
H338 H 0.39655 0.4714 0.76988 0.0
C339 C 0.32898 0.48298 0.70512 0.0
C340 C 0.37676 0.5122 0.65325 0.0
C341 C 0.30985 0.47883 0.68685 0.0
C342 C 0.45855 0.51467 0.70088 0.0
C343 C 0.43908 0.51234 0.6846 0.0
C344 C 0.39123 0.48309 0.73802 0.0
C345 C 0.34388 0.49145 0.65936 0.0
C346 C 0.36439 0.49477 0.67834 0.0
C347 C 0.42437 0.50334 0.73052 0.0
C348 C 0.40365 0.50051 0.71293 0.0
H349 H 0.31668 0.49519 0.52679 0.0
H350 H 0.35023 0.50254 0.55858 0.0
H351 H 0.36281 0.46653 0.74043 0.0
H352 H 0.45274 0.49387 0.85795 0.0
H353 H 0.41875 0.49012 0.83008 0.0
C354 C 0.01577 0.34999 0.50586 0.0
C355 C 0.0013 0.33393 0.52725 0.0
C356 C 0.01822 0.36664 0.53706 0.0
C357 C 0.00512 0.38532 0.68731 0.0
H358 H 0.0151 0.43634 0.57842 0.0
C359 C 0.9993 0.46005 0.77964 0.0
C360 C 0.01281 0.47653 0.75364 0.0
C361 C 0.99855 0.44207 0.75562 0.0
C362 C 0.01256 0.42225 0.60984 0.0
H363 H 0.97866 0.32233 0.60008 0.0
H364 H 0.98272 0.35137 0.6542 0.0
H365 H 0.01317 0.40628 0.53098 0.0
H366 H 0.03657 0.48678 0.6837 0.0
H367 H 0.03545 0.45563 0.64263 0.0
H368 H 0.00431 0.40146 0.76617 0.0
C369 C 0.99231 0.35117 0.61351 0.0
C370 C 0.01149 0.40491 0.58249 0.0
C371 C 0.9899 0.33452 0.58231 0.0
C372 C 0.02585 0.47445 0.70445 0.0
C373 C 0.02512 0.45657 0.68054 0.0
C374 C 0.00617 0.40271 0.71473 0.0
C375 C 0.00626 0.36768 0.59064 0.0
C376 C 0.00779 0.38615 0.62069 0.0
C377 C 0.01129 0.44016 0.705 0.0
C378 C 0.00997 0.42146 0.67638 0.0
H379 H 0.02486 0.34986 0.46386 0.0
H380 H 0.02941 0.3788 0.51872 0.0
H381 H 0.00245 0.3712 0.71854 0.0
H382 H 0.98906 0.46117 0.81761 0.0
H383 H 0.98763 0.42984 0.77554 0.0
C384 C 0.81701 0.97694 0.18368 0.0
C385 C 0.80254 0.98557 0.14912 0.0
C386 C 0.8352 0.97696 0.15457 0.0
C387 C 0.86757 1.00395 0.02068 0.0
H388 H 0.89671 0.96004 0.0609 0.0
C389 C 0.94445 0.00662 0.911 0.0
C390 C 0.95831 1.00082 0.95461 0.0
C391 C 0.92467 1.00256 0.92849 0.0
C392 C 0.88878 0.97245 0.04939 0.0
H393 H 0.79516 0.99992 0.05653 0.0
H394 H 0.82696 0.99992 0.00516 0.0
H395 H 0.86341 0.95709 0.10331 0.0
H396 H 0.96237 0.98544 0.04943 0.0
H397 H 0.9279 0.97846 0.08019 0.0
H398 H 0.89301 0.01945 0.96782 0.0
C399 C 0.82446 0.99356 0.05514 0.0
C400 C 0.86971 0.97077 0.07375 0.0
C401 C 0.80627 0.99353 0.08432 0.0
C402 C 0.952 0.99013 0.01492 0.0
C403 C 0.93223 0.98603 0.03238 0.0
C404 C 0.88661 1.00562 0.99631 0.0
C405 C 0.83922 0.98548 0.09012 0.0
C406 C 0.85897 0.98661 0.06045 0.0
C407 C 0.91835 0.99255 0.98986 0.0
C408 C 0.89755 0.99 0.01111 0.0
H409 H 0.81434 0.97048 0.23353 0.0
H410 H 0.84627 0.97077 0.18309 0.0
H411 H 0.85983 0.01654 0.01019 0.0
H412 H 0.94892 0.01478 0.86399 0.0
H413 H 0.91433 0.00751 0.89428 0.0
C414 C 0.50499 0.8436 0.35415 0.0
C415 C 0.49151 0.82753 0.34312 0.0
C416 C 0.50711 0.86145 0.31177 0.0
C417 C 0.49739 0.88376 0.14689 0.0
H418 H 0.50187 0.93221 0.22024 0.0
C419 C 0.49331 0.96075 0.99651 0.0
C420 C 0.50593 0.97686 0.01216 0.0
C421 C 0.49181 0.94215 0.03481 0.0
C422 C 0.50087 0.91885 0.19885 0.0
H423 H 0.47043 0.81701 0.27789 0.0
H424 H 0.47393 0.84831 0.20383 0.0
H425 H 0.49904 0.90053 0.29036 0.0
H426 H 0.52726 0.98605 0.07884 0.0
H427 H 0.52484 0.95367 0.14508 0.0
H428 H 0.49919 0.90219 0.05524 0.0
C429 C 0.48285 0.84719 0.24522 0.0
C430 C 0.49926 0.90066 0.23913 0.0
C431 C 0.48072 0.82934 0.28772 0.0
C432 C 0.51728 0.97395 0.06594 0.0
C433 C 0.5158 0.9554 0.10411 0.0
C434 C 0.49902 0.90201 0.10649 0.0
C435 C 0.49591 0.86355 0.25714 0.0
C436 C 0.49757 0.88287 0.21373 0.0
C437 C 0.50291 0.9393 0.08949 0.0
C438 C 0.50088 0.91979 0.132 0.0
H439 H 0.51373 0.84242 0.39595 0.0
H440 H 0.51759 0.87361 0.32173 0.0
H441 H 0.49631 0.87036 0.1257 0.0
H442 H 0.48443 0.96259 0.95518 0.0
H443 H 0.48164 0.93012 0.0224 0.0
C444 C 0.705 0.53539 0.0666 0.0
C445 C 0.70829 0.52907 0.13126 0.0
C446 C 0.68607 0.53557 0.04564 0.0
C447 C 0.63573 0.51231 0.08861 0.0
H448 H 0.6217 0.55647 0.97142 0.0
C449 C 0.55607 0.51866 0.03389 0.0
C450 C 0.55166 0.52578 0.97095 0.0
C451 C 0.57533 0.51946 0.05176 0.0
C452 C 0.62542 0.54389 0.00348 0.0
H453 H 0.69443 0.51773 0.2245 0.0
H454 H 0.66138 0.51808 0.18815 0.0
H455 H 0.65505 0.55721 0.0057 0.0
H456 H 0.5639 0.53942 0.87727 0.0
H457 H 0.59767 0.54051 0.9081 0.0
H458 H 0.60627 0.49886 0.08616 0.0
C459 C 0.6734 0.52291 0.15355 0.0
C460 C 0.64454 0.54435 0.02323 0.0
C461 C 0.6923 0.52283 0.1745 0.0
C462 C 0.5669 0.53385 0.92619 0.0
C463 C 0.58623 0.53457 0.944 0.0
C464 C 0.61668 0.51181 0.06868 0.0
C465 C 0.67004 0.52918 0.08882 0.0
C466 C 0.64987 0.52863 0.06646 0.0
C467 C 0.59069 0.52728 0.00701 0.0
C468 C 0.61121 0.52766 0.02631 0.0
H469 H 0.7171 0.53998 0.0322 0.0
H470 H 0.68398 0.54026 0.99536 0.0
H471 H 0.63944 0.49978 0.12094 0.0
H472 H 0.54461 0.51244 0.06952 0.0
H473 H 0.57815 0.51406 0.10097 0.0
C474 C 0.00104 0.68944 0.20583 0.0
C475 C 0.01598 0.7052 0.18634 0.0
C476 C 0.99853 0.67296 0.17385 0.0
C477 C 0.01245 0.65434 0.02443 0.0
H478 H 0.0011 0.60321 0.13214 0.0
C479 C 0.01798 0.57963 0.93157 0.0
C480 C 0.00424 0.56324 0.95667 0.0
C481 C 0.01872 0.59759 0.95578 0.0
C482 C 0.00402 0.61733 0.10101 0.0
H483 H 0.03931 0.71655 0.11577 0.0
H484 H 0.03511 0.6878 0.06021 0.0
H485 H 0.00304 0.63317 0.18006 0.0
H486 H 0.98007 0.55313 0.02513 0.0
H487 H 0.98117 0.58423 0.06646 0.0
H488 H 0.01361 0.63833 0.94538 0.0
C489 C 0.02524 0.68808 0.1001 0.0
C490 C 0.00511 0.63461 0.12864 0.0
C491 C 0.02773 0.70457 0.1321 0.0
C492 C 0.99097 0.56539 0.0051 0.0
C493 C 0.99169 0.58324 0.02917 0.0
C494 C 0.01137 0.63699 0.99671 0.0
C495 C 0.01087 0.67181 0.12134 0.0
C496 C 0.00931 0.65341 0.09089 0.0
C497 C 0.00576 0.59955 0.00568 0.0
C498 C 0.00708 0.61821 0.0346 0.0
H499 H 0.99167 0.68962 0.2471 0.0
H500 H 0.98701 0.66098 0.19086 0.0
H501 H 0.01553 0.66849 0.99355 0.0
H502 H 0.0284 0.57846 0.89421 0.0
H503 H 0.02983 0.60973 0.93663 0.0
C504 C 0.97202 0.22425 0.59424 0.0
C505 C 0.9907 0.23504 0.59099 0.0
C506 C 0.96801 0.20571 0.63261 0.0
C507 C 0.96893 0.16184 0.66621 0.0
H508 H 0.99801 0.1453 0.81395 0.0
C509 C 0.98399 0.08136 0.73337 0.0
C510 C 0.98744 0.07436 0.7972 0.0
C511 C 0.98068 0.10095 0.71542 0.0
C512 C 0.98941 0.14954 0.77348 0.0
H513 H 0.01959 0.23562 0.6266 0.0
H514 H 0.01293 0.2032 0.69246 0.0
H515 H 0.99805 0.18023 0.77715 0.0
H516 H 0.98873 0.08164 0.8932 0.0
H517 H 0.98189 0.11526 0.86289 0.0
H518 H 0.95989 0.13113 0.6635 0.0
C519 C 0.00108 0.20904 0.6673 0.0
C520 C 0.98969 0.1697 0.7517 0.0
C521 C 0.00497 0.22769 0.62966 0.0
C522 C 0.98638 0.0868 0.84338 0.0
C523 C 0.98262 0.10616 0.82582 0.0
C524 C 0.96837 0.14166 0.68865 0.0
C525 C 0.98277 0.19744 0.66722 0.0
C526 C 0.97993 0.17615 0.69665 0.0
C527 C 0.98035 0.11375 0.7613 0.0
C528 C 0.97903 0.1352 0.74157 0.0
H529 H 0.9609 0.2296 0.56394 0.0
H530 H 0.95363 0.19745 0.63249 0.0
H531 H 0.96137 0.16611 0.62322 0.0
H532 H 0.98486 0.07206 0.69688 0.0
H533 H 0.97925 0.10623 0.66516 0.0
C534 C 0.3048 0.02457 0.66851 0.0
C535 C 0.30327 0.0447 0.66513 0.0
C536 C 0.31836 0.01611 0.70758 0.0
C537 C 0.35392 0.02508 0.83285 0.0
H538 H 0.38661 0.99918 0.73213 0.0
C539 C 0.43533 0.02655 0.86909 0.0
C540 C 0.44465 0.01077 0.85552 0.0
C541 C 0.41555 0.02644 0.85985 0.0
C542 C 0.37748 0.00592 0.76183 0.0
H543 H 0.31376 0.07168 0.70118 0.0
H544 H 0.33746 0.05701 0.76983 0.0
H545 H 0.35541 0.00631 0.69316 0.0
H546 H 0.44024 0.98201 0.82475 0.0
H547 H 0.40555 0.98174 0.80912 0.0
H548 H 0.37639 0.0253 0.90048 0.0
C549 C 0.32807 0.04758 0.74338 0.0
C550 C 0.35953 0.01002 0.73941 0.0
C551 C 0.31454 0.05602 0.70417 0.0
C552 C 0.43354 0.99447 0.83513 0.0
C553 C 0.41367 0.99435 0.82598 0.0
C554 C 0.37186 0.02088 0.85548 0.0
C555 C 0.33066 0.02774 0.74355 0.0
C556 C 0.34782 0.0202 0.77364 0.0
C557 C 0.40453 0.01053 0.83698 0.0
C558 C 0.38414 0.01184 0.81916 0.0
H559 H 0.29636 0.01571 0.63794 0.0
H560 H 0.3199 1.00075 0.7072 0.0
H561 H 0.3451 0.03271 0.86069 0.0
H562 H 0.4434 0.03935 0.88505 0.0
H563 H 0.40912 0.0393 0.86795 0.0
C564 C 0.56992 0.31149 0.45204 0.0
C565 C 0.5549 0.2954 0.46087 0.0
C566 C 0.57454 0.32237 0.50138 0.0
C567 C 0.54814 0.33508 0.63651 0.0
H568 H 0.59506 0.37238 0.63823 0.0
C569 C 0.54522 0.41396 0.67587 0.0
C570 C 0.55978 0.42401 0.70864 0.0
C571 C 0.54667 0.39507 0.66271 0.0
C572 C 0.58194 0.36187 0.63955 0.0
H573 H 0.53471 0.27648 0.53073 0.0
H574 H 0.54332 0.29499 0.61792 0.0
H575 H 0.59604 0.34276 0.58944 0.0
H576 H 0.58728 0.42207 0.75368 0.0
H577 H 0.58987 0.38883 0.73037 0.0
H578 H 0.53401 0.35424 0.68598 0.0
C579 C 0.55103 0.2997 0.57205 0.0
C580 C 0.58244 0.34497 0.61096 0.0
C581 C 0.54625 0.28892 0.5223 0.0
C582 C 0.57591 0.41472 0.72788 0.0
C583 C 0.57736 0.3957 0.71473 0.0
C584 C 0.5477 0.35181 0.66562 0.0
C585 C 0.56441 0.31724 0.56104 0.0
C586 C 0.56532 0.3319 0.60613 0.0
C587 C 0.5627 0.38565 0.68208 0.0
C588 C 0.56433 0.36592 0.66446 0.0
H589 H 0.57715 0.31656 0.4055 0.0
H590 H 0.58491 0.33573 0.49063 0.0
H591 H 0.5346 0.3255 0.6338 0.0
H592 H 0.53282 0.42087 0.65917 0.0
H593 H 0.53539 0.38805 0.63579 0.0
C594 C 0.21687 0.51918 0.69783 0.0
C595 C 0.21409 0.50015 0.68098 0.0
C596 C 0.20279 0.52518 0.73583 0.0
C597 C 0.16351 0.53771 0.76184 0.0
H598 H 0.12916 0.50066 0.88389 0.0
C599 C 0.08206 0.54194 0.78772 0.0
C600 C 0.07173 0.53318 0.84478 0.0
C601 C 0.10204 0.54156 0.78148 0.0
C602 C 0.1387 0.51149 0.85101 0.0
H603 H 0.19546 0.47193 0.69469 0.0
H604 H 0.17094 0.48225 0.76001 0.0
H605 H 0.16055 0.49251 0.855 0.0
H606 H 0.07436 0.51876 0.9419 0.0
H607 H 0.10923 0.51887 0.93222 0.0
H608 H 0.14164 0.55671 0.75793 0.0
C609 C 0.18388 0.49265 0.74476 0.0
C610 C 0.15668 0.50665 0.83377 0.0
C611 C 0.19788 0.48672 0.70691 0.0
C612 C 0.08193 0.52535 0.89698 0.0
C613 C 0.10192 0.52531 0.89122 0.0
C614 C 0.1456 0.54268 0.77971 0.0
C615 C 0.18577 0.51218 0.75774 0.0
C616 C 0.16894 0.51929 0.78688 0.0
C617 C 0.11215 0.5327 0.8326 0.0
C618 C 0.1326 0.52927 0.82254 0.0
H619 H 0.22925 0.52981 0.67816 0.0
H620 H 0.20482 0.54024 0.74572 0.0
H621 H 0.17253 0.54782 0.72546 0.0
H622 H 0.07454 0.54799 0.74662 0.0
H623 H 0.10926 0.5472 0.7353 0.0
C624 C 0.02605 0.80998 0.08333 0.0
C625 C 0.03624 0.8049 0.13853 0.0
C626 C 0.03053 0.82876 0.04658 0.0
C627 C 0.04815 0.87841 0.07712 0.0
H628 H 0.0411 0.89355 0.89612 0.0
C629 C 0.04318 0.95948 0.96955 0.0
C630 C 0.02834 0.96203 0.92631 0.0
C631 C 0.04853 0.94071 0.98838 0.0
C632 C 0.04306 0.88956 0.94683 0.0
H633 H 0.06041 0.8144 0.19471 0.0
H634 H 0.06851 0.84703 0.1299 0.0
H635 H 0.04355 0.85909 0.93838 0.0
H636 H 0.00774 0.94683 0.86811 0.0
H637 H 0.01669 0.91434 0.90193 0.0
H638 H 0.04669 0.90852 0.08651 0.0
C639 C 0.05679 0.83676 0.11572 0.0
C640 C 0.04453 0.86983 0.9709 0.0
C641 C 0.05229 0.81805 0.15244 0.0
C642 C 0.01923 0.94548 0.90156 0.0
C643 C 0.02452 0.92679 0.92046 0.0
C644 C 0.04656 0.89807 0.05318 0.0
C645 C 0.04529 0.84271 0.06453 0.0
C646 C 0.04668 0.86396 0.03657 0.0
C647 C 0.03914 0.9241 0.96444 0.0
C648 C 0.0435 0.90381 0.98802 0.0
H649 H 0.0135 0.80017 0.07203 0.0
H650 H 0.02135 0.83289 0.00752 0.0
H651 H 0.04945 0.87435 0.12817 0.0
H652 H 0.05058 0.97194 0.98914 0.0
H653 H 0.05999 0.9392 0.02187 0.0
C654 C 0.69734 0.97655 0.03639 0.0
C655 C 0.7103 0.98835 0.06946 0.0
C656 C 0.68404 0.98509 0.9965 0.0
C657 C 0.65562 0.02499 0.99125 0.0
H658 H 0.63766 0.00821 0.83332 0.0
C659 C 0.58172 0.04148 0.89533 0.0
C660 C 0.57032 0.02524 0.87554 0.0
C661 C 0.60155 0.04125 0.9047 0.0
C662 C 0.64246 0.01303 0.87749 0.0
H663 H 0.72022 0.01817 0.08577 0.0
H664 H 0.69671 0.03322 0.01625 0.0
H665 H 0.66842 0.9997 0.87451 0.0
H666 H 0.57105 0.99636 0.84756 0.0
H667 H 0.60511 0.99576 0.86534 0.0
H668 H 0.62918 0.03713 0.99698 0.0
C669 C 0.69698 0.01744 0.02055 0.0
C670 C 0.66013 0.00825 0.90078 0.0
C671 C 0.71048 0.0089 0.0598 0.0
C672 C 0.57932 0.00915 0.86298 0.0
C673 C 0.59902 0.00888 0.87257 0.0
C674 C 0.63785 0.02957 0.9684 0.0
C675 C 0.68326 1.00552 0.99004 0.0
C676 C 0.6666 0.01368 0.95886 0.0
C677 C 0.61036 0.02476 0.89462 0.0
C678 C 0.63073 0.02308 0.91234 0.0
H679 H 0.69683 0.96062 0.04417 0.0
H680 H 0.67348 0.9755 0.97429 0.0
H681 H 0.66013 0.02918 0.03656 0.0
H682 H 0.57526 0.05417 0.90496 0.0
H683 H 0.6099 0.05386 0.92088 0.0
C684 C 0.4522 0.72155 0.29761 0.0
C685 C 0.46638 0.7383 0.28293 0.0
C686 C 0.44617 0.71015 0.25068 0.0
C687 C 0.4674 0.69853 0.1035 0.0
H688 H 0.42137 0.65923 0.12082 0.0
C689 C 0.47046 0.62093 0.05159 0.0
C690 C 0.45469 0.61034 0.02554 0.0
C691 C 0.46913 0.63945 0.06811 0.0
C692 C 0.43416 0.6703 0.11422 0.0
H693 H 0.48353 0.7576 0.20554 0.0
H694 H 0.47226 0.73831 0.12301 0.0
H695 H 0.42183 0.68836 0.17314 0.0
H696 H 0.42511 0.61091 0.99612 0.0
H697 H 0.42275 0.64355 0.02517 0.0
H698 H 0.47973 0.68051 0.04482 0.0
C699 C 0.46642 0.73345 0.17147 0.0
C700 C 0.43452 0.68691 0.14488 0.0
C701 C 0.4727 0.74469 0.21874 0.0
C702 C 0.43746 0.61871 0.01646 0.0
C703 C 0.43613 0.63738 0.03295 0.0
C704 C 0.46693 0.68211 0.07229 0.0
C705 C 0.45393 0.71543 0.18756 0.0
C706 C 0.45151 0.70073 0.14253 0.0
C707 C 0.452 0.64796 0.05889 0.0
C708 C 0.4507 0.6673 0.08 0.0
H709 H 0.4466 0.71653 0.34631 0.0
H710 H 0.43656 0.69643 0.26537 0.0
H711 H 0.4808 0.70868 0.10044 0.0
H712 H 0.48377 0.61471 0.06061 0.0
H713 H 0.48144 0.64687 0.08978 0.0
C714 C 0.82023 0.55481 0.01122 0.0
C715 C 0.80367 0.54153 0.03493 0.0
C716 C 0.83432 0.54893 0.97359 0.0
C717 C 0.85404 0.50382 0.9531 0.0
H718 H 0.88888 0.54098 0.83289 0.0
C719 C 0.93517 0.5152 0.81574 0.0
C720 C 0.94544 0.50708 0.86731 0.0
C721 C 0.91526 0.51558 0.82241 0.0
C722 C 0.87919 0.53014 0.86526 0.0
H723 H 0.78809 0.51221 0.03419 0.0
H724 H 0.81271 0.50191 0.96715 0.0
H725 H 0.85777 0.54956 0.86298 0.0
H726 H 0.9428 0.49207 0.96525 0.0
H727 H 0.90821 0.4934 0.97808 0.0
H728 H 0.87551 0.4844 0.95547 0.0
C729 C 0.81491 0.51679 0.97855 0.0
C730 C 0.86138 0.53522 0.88317 0.0
C731 C 0.80073 0.52273 0.01626 0.0
C732 C 0.93523 0.49834 0.92461 0.0
C733 C 0.91533 0.49904 0.93174 0.0
C734 C 0.87179 0.49863 0.93466 0.0
C735 C 0.83219 0.52962 0.95867 0.0
C736 C 0.84894 0.52248 0.92927 0.0
C737 C 0.9052 0.50823 0.8813 0.0
C738 C 0.88493 0.51204 0.89235 0.0
H739 H 0.82278 0.56942 0.02478 0.0
H740 H 0.84748 0.55918 0.95986 0.0
H741 H 0.84486 0.49364 0.98891 0.0
H742 H 0.94264 0.52178 0.77067 0.0
H743 H 0.9079 0.52228 0.78193 0.0
C744 C 0.99793 0.24656 0.32342 0.0
C745 C 0.01256 0.25116 0.36561 0.0
C746 C 0.00022 0.23337 0.28047 0.0
C747 C 0.03598 0.20463 0.2146 0.0
H748 H 0.98994 0.16692 0.20396 0.0
C749 C 0.03669 0.13919 0.07166 0.0
C750 C 0.02571 0.12093 0.09745 0.0
C751 C 0.03499 0.15634 0.09804 0.0
C752 C 0.00301 0.1772 0.20669 0.0
H753 H 0.0412 0.24604 0.39506 0.0
H754 H 0.04533 0.22313 0.32053 0.0
H755 H 0.98785 0.19515 0.25821 0.0
H756 H 0.00447 0.10652 0.17199 0.0
H757 H 0.00171 0.1362 0.21852 0.0
H758 H 0.05131 0.18612 0.16569 0.0
C759 C 0.03222 0.22993 0.31904 0.0
C760 C 0.00174 0.19368 0.23701 0.0
C761 C 0.02994 0.24319 0.36166 0.0
C762 C 0.01293 0.12034 0.15021 0.0
C763 C 0.01133 0.13746 0.17686 0.0
C764 C 0.03727 0.18808 0.1845 0.0
C765 C 0.01709 0.22422 0.27944 0.0
C766 C 0.01824 0.20758 0.24205 0.0
C767 C 0.02235 0.15575 0.15129 0.0
C768 C 0.02084 0.17396 0.1807 0.0
H769 H 0.98421 0.25213 0.32663 0.0
H770 H 0.98839 0.2297 0.25 0.0
H771 H 0.04899 0.21504 0.21677 0.0
H772 H 0.04647 0.14028 0.03049 0.0
H773 H 0.04348 0.17013 0.07614 0.0
C774 C 0.29969 0.07256 0.38341 0.0
C775 C 0.30624 0.07841 0.44089 0.0
C776 C 0.31222 0.0758 0.32911 0.0
C777 C 0.36071 0.10151 0.26162 0.0
H778 H 0.36198 0.05372 0.1875 0.0
C779 C 0.42101 0.09383 0.07729 0.0
C780 C 0.42889 0.076 0.08896 0.0
C781 C 0.40411 0.0961 0.11066 0.0
C782 C 0.3618 0.0672 0.20759 0.0
H783 H 0.33034 0.09373 0.48526 0.0
H784 H 0.35219 0.09923 0.39129 0.0
H785 H 0.33542 0.05555 0.26169 0.0
H786 H 0.42535 0.04677 0.14597 0.0
H787 H 0.39603 0.05069 0.2037 0.0
H788 H 0.3877 0.1127 0.20999 0.0
C789 C 0.33746 0.09218 0.38758 0.0
C790 C 0.34642 0.06837 0.24948 0.0
C791 C 0.32499 0.08888 0.4417 0.0
C792 C 0.41948 0.06054 0.13474 0.0
C793 C 0.40262 0.06279 0.16784 0.0
C794 C 0.37612 0.10033 0.21964 0.0
C795 C 0.33147 0.08507 0.33128 0.0
C796 C 0.34596 0.08532 0.27846 0.0
C797 C 0.39471 0.08057 0.15624 0.0
C798 C 0.37712 0.08293 0.19367 0.0
H799 H 0.28531 0.06443 0.38151 0.0
H800 H 0.30707 0.07039 0.28618 0.0
H801 H 0.36066 0.11487 0.2825 0.0
H802 H 0.42777 0.10595 0.04184 0.0
H803 H 0.3983 0.10994 0.10037 0.0
C804 C 0.51055 0.30942 0.21816 0.0
C805 C 0.52903 0.30999 0.24419 0.0
C806 C 0.50591 0.32569 0.17597 0.0
C807 C 0.51602 0.37833 0.15309 0.0
H808 H 0.49989 0.38077 0.97805 0.0
C809 C 0.4917 0.44856 0.01358 0.0
C810 C 0.50231 0.4557 0.95562 0.0
C811 C 0.49255 0.42941 0.04531 0.0
C812 C 0.50425 0.38021 0.02705 0.0
H813 H 0.55761 0.32727 0.24157 0.0
H814 H 0.54928 0.35571 0.16989 0.0
H815 H 0.50647 0.34912 0.03818 0.0
H816 H 0.52136 0.44799 0.88399 0.0
H817 H 0.52249 0.41444 0.93882 0.0
H818 H 0.51388 0.40925 0.14258 0.0
C819 C 0.5384 0.34279 0.18247 0.0
C820 C 0.50794 0.36216 0.06132 0.0
C821 C 0.54311 0.32653 0.22361 0.0
C822 C 0.51308 0.44298 0.92869 0.0
C823 C 0.51364 0.42372 0.95983 0.0
C824 C 0.51198 0.3962 0.11946 0.0
C825 C 0.51963 0.34275 0.15977 0.0
C826 C 0.51418 0.3612 0.12424 0.0
C827 C 0.50372 0.41689 0.01911 0.0
C828 C 0.50632 0.39741 0.05583 0.0
H829 H 0.49936 0.29695 0.23321 0.0
H830 H 0.49133 0.32538 0.1589 0.0
H831 H 0.52077 0.3779 0.20167 0.0
H832 H 0.4833 0.45799 0.03562 0.0
H833 H 0.48471 0.42446 0.09089 0.0
C834 C 0.20135 0.46194 0.4814 0.0
C835 C 0.21607 0.47825 0.46967 0.0
C836 C 0.18767 0.45852 0.43564 0.0
C837 C 0.17428 0.47302 0.26781 0.0
H838 H 0.12223 0.46409 0.34503 0.0
C839 C 0.10566 0.48413 0.12284 0.0
C840 C 0.08835 0.47136 0.14254 0.0
C841 C 0.1223 0.48311 0.1585 0.0
C842 C 0.13662 0.46622 0.32251 0.0
H843 H 0.2289 0.50305 0.39977 0.0
H844 H 0.20481 0.49718 0.31925 0.0
H845 H 0.1499 0.46486 0.41279 0.0
H846 H 0.0752 0.44718 0.21467 0.0
H847 H 0.10428 0.44501 0.27552 0.0
H848 H 0.16082 0.47463 0.17724 0.0
C849 C 0.20395 0.4869 0.36362 0.0
C850 C 0.15254 0.46666 0.36149 0.0
C851 C 0.21777 0.49026 0.40951 0.0
C852 C 0.08828 0.45716 0.19771 0.0
C853 C 0.10493 0.45609 0.23313 0.0
C854 C 0.15828 0.4725 0.22861 0.0
C855 C 0.18829 0.47147 0.37736 0.0
C856 C 0.17157 0.47009 0.33475 0.0
C857 C 0.12206 0.46926 0.21463 0.0
C858 C 0.13923 0.46915 0.25556 0.0
H859 H 0.19981 0.45246 0.52749 0.0
H860 H 0.17605 0.44624 0.44713 0.0
H861 H 0.18876 0.47563 0.24578 0.0
H862 H 0.10635 0.49503 0.08 0.0
H863 H 0.13518 0.49359 0.14301 0.0
C864 C 0.02034 0.79388 0.39445 0.0
C865 C 0.00612 0.78649 0.35461 0.0
C866 C 0.0161 0.80661 0.43672 0.0
C867 C 0.984 0.84404 0.44737 0.0
H868 H 0.00644 0.84717 0.61227 0.0
C869 C 0.97119 0.90647 0.59079 0.0
C870 C 0.98675 0.91468 0.62442 0.0
C871 C 0.97226 0.88936 0.56359 0.0
C872 C 0.00022 0.84667 0.56598 0.0
H873 H 0.97613 0.78595 0.32964 0.0
H874 H 0.96852 0.80794 0.4043 0.0
H875 H 0.00994 0.81893 0.55845 0.0
H876 H 0.01557 0.91077 0.65637 0.0
H877 H 0.01769 0.88144 0.60726 0.0
H878 H 0.9748 0.87199 0.45352 0.0
C879 C 0.983 0.80396 0.40279 0.0
C880 C 0.00215 0.83038 0.53524 0.0
C881 C 0.98723 0.79107 0.36084 0.0
C882 C 0.00337 0.90512 0.63025 0.0
C883 C 0.00447 0.88805 0.60275 0.0
C884 C 0.98217 0.86037 0.47784 0.0
C885 C 0.99758 0.81249 0.4395 0.0
C886 C 0.99417 0.82889 0.47528 0.0
C887 C 0.98897 0.87993 0.56872 0.0
C888 C 0.99037 0.86205 0.53744 0.0
H889 H 0.03513 0.79096 0.38941 0.0
H890 H 0.02774 0.81296 0.46371 0.0
H891 H 0.97801 0.84367 0.40067 0.0
H892 H 0.95823 0.91344 0.58438 0.0
H893 H 0.95989 0.8835 0.53863 0.0
C894 C 0.71534 0.9625 0.3514 0.0
C895 C 0.70885 0.95584 0.29497 0.0
C896 C 0.70297 0.9594 0.40601 0.0
C897 C 0.6549 0.93329 0.4764 0.0
H898 H 0.65299 0.98198 0.54478 0.0
C899 C 0.59436 0.9421 0.65829 0.0
C900 C 0.5863 0.95978 0.64476 0.0
C901 C 0.61132 0.93968 0.62551 0.0
C902 C 0.65334 0.96824 0.5263 0.0
H903 H 0.68507 0.93916 0.25316 0.0
H904 H 0.66343 0.93402 0.34756 0.0
H905 H 0.67954 0.97978 0.47117 0.0
H906 H 0.58954 0.98858 0.5851 0.0
H907 H 0.61894 0.98439 0.52829 0.0
H908 H 0.62804 0.9222 0.52895 0.0
C909 C 0.67802 0.94157 0.3502 0.0
C910 C 0.66873 0.96687 0.48475 0.0
C911 C 0.69036 0.94468 0.29578 0.0
C912 C 0.59556 0.97493 0.59773 0.0
C913 C 0.61246 0.97254 0.56517 0.0
C914 C 0.63946 0.93468 0.51799 0.0
C915 C 0.6839 0.94953 0.40522 0.0
C916 C 0.66942 0.94958 0.45781 0.0
C917 C 0.62057 0.95492 0.57864 0.0
C918 C 0.63821 0.95239 0.54184 0.0
H919 H 0.72951 0.97118 0.35216 0.0
H920 H 0.70805 0.96544 0.44797 0.0
H921 H 0.65512 0.91967 0.45717 0.0
H922 H 0.5877 0.93022 0.69474 0.0
H923 H 0.61727 0.92598 0.63726 0.0
C924 C 0.51705 0.72518 0.49726 0.0
C925 C 0.49777 0.72879 0.49178 0.0
C926 C 0.52153 0.70906 0.54018 0.0
C927 C 0.50294 0.67199 0.68059 0.0
H928 H 0.53027 0.63629 0.6005 0.0
C929 C 0.49788 0.58954 0.78548 0.0
C930 C 0.51374 0.57942 0.7777 0.0
C931 C 0.49828 0.60917 0.75662 0.0
C932 C 0.52298 0.64619 0.62432 0.0
H933 H 0.46822 0.71918 0.52826 0.0
H934 H 0.47606 0.69137 0.60456 0.0
H935 H 0.52733 0.66889 0.54223 0.0
H936 H 0.54269 0.58227 0.73472 0.0
H937 H 0.54358 0.61671 0.68542 0.0
H938 H 0.49848 0.64936 0.76259 0.0
C939 C 0.48773 0.70089 0.57587 0.0
C940 C 0.52128 0.66491 0.59075 0.0
C941 C 0.48322 0.71677 0.53231 0.0
C942 C 0.53017 0.58957 0.7413 0.0
C943 C 0.53063 0.60932 0.71276 0.0
C944 C 0.50483 0.65337 0.71449 0.0
C945 C 0.50683 0.69649 0.57891 0.0
C946 C 0.51087 0.67783 0.61797 0.0
C947 C 0.51461 0.61935 0.71957 0.0
C948 C 0.51446 0.64 0.68624 0.0
H949 H 0.52844 0.73411 0.46577 0.0
H950 H 0.53639 0.70606 0.54176 0.0
H951 H 0.49501 0.68173 0.70302 0.0
H952 H 0.48494 0.58222 0.81303 0.0
H953 H 0.4855 0.61617 0.7621 0.0
C954 C 0.79527 0.55017 0.30997 0.0
C955 C 0.79971 0.56148 0.24924 0.0
C956 C 0.80787 0.55241 0.36003 0.0
C957 C 0.8518 0.58372 0.4079 0.0
H958 H 0.86454 0.53346 0.49155 0.0
C959 C 0.91554 0.57837 0.57949 0.0
C960 C 0.92724 0.5638 0.57172 0.0
C961 C 0.89794 0.57879 0.54879 0.0
C962 C 0.86119 0.54764 0.46858 0.0
H963 H 0.81978 0.5851 0.19456 0.0
H964 H 0.84174 0.58894 0.28111 0.0
H965 H 0.83665 0.53406 0.4242 0.0
H966 H 0.92973 0.53847 0.5245 0.0
H967 H 0.89923 0.53926 0.47085 0.0
H968 H 0.87699 0.59719 0.44966 0.0
C969 C 0.82861 0.57838 0.29074 0.0
C970 C 0.84499 0.548 0.43069 0.0
C971 C 0.81609 0.57612 0.24089 0.0
C972 C 0.92094 0.54969 0.53245 0.0
C973 C 0.90339 0.55012 0.50179 0.0
C974 C 0.86804 0.58334 0.44576 0.0
C975 C 0.82507 0.56606 0.35024 0.0
C976 C 0.84035 0.56601 0.39855 0.0
C977 C 0.89164 0.56464 0.50959 0.0
C978 C 0.87321 0.56525 0.47523 0.0
H979 H 0.78278 0.53874 0.3176 0.0
H980 H 0.80456 0.54289 0.4056 0.0
H981 H 0.84852 0.59787 0.38447 0.0
H982 H 0.91984 0.5893 0.6101 0.0
H983 H 0.88916 0.59007 0.55632 0.0
loop_
_geom_bond_atom_site_label_1
_geom_bond_atom_site_label_2
_geom_bond_distance
_geom_bond_site_symmetry_2
_ccdc_geom_bond_type
H0 C7 0.929 . S
H1 C10 0.930 . S
H2 C12 0.929 . S
H3 C4 0.969 . S
C4 H3 0.969 . S
C4 O5 1.550 1_556 S
C4 H6 0.973 . S
O5 C4 1.550 1_554 S
O5 C11 1.412 . S
H6 C4 0.973 . S
C7 H0 0.929 . S
C7 C8 1.400 . S
C7 C9 1.364 1_554 S
C8 C7 1.400 . S
C8 C12 1.377 . S
C9 C7 1.364 1_556 S
C9 C10 1.374 . S
C10 H1 0.930 . S
C10 C9 1.374 . S
C10 C11 1.383 1_556 S
C11 O5 1.412 . S
C11 C10 1.383 1_554 S
C11 C12 1.394 . S
C12 H2 0.929 . S
C12 C8 1.377 . S
C12 C11 1.394 . S
H13 C20 0.929 . S
H14 C23 0.930 . S
H15 C25 0.929 . S
H16 C17 0.995 . S
C17 H16 0.995 . S
C17 O18 1.540 1_455 S
C17 H19 0.960 1_455 S
O18 C17 1.540 1_655 S
O18 C24 1.412 . S
H19 C17 0.960 1_655 S
C20 H13 0.929 . S
C20 C21 1.400 . S
C20 C22 1.364 . S
C21 C20 1.400 . S
C21 C25 1.377 . S
C22 C20 1.364 . S
C22 C23 1.374 . S
C23 H14 0.930 . S
C23 C22 1.374 . S
C23 C24 1.383 . S
C24 O18 1.412 . S
C24 C23 1.383 . S
C24 C25 1.394 . S
C25 H15 0.929 . S
C25 C21 1.377 . S
C25 C24 1.394 . S
H26 C33 0.929 . S
H27 C36 0.930 . S
H28 C38 0.929 . S
H29 C30 0.969 . S
C30 H29 0.969 . S
C30 O31 1.550 . S
C30 H32 0.981 . S
O31 C30 1.550 . S
O31 C37 1.412 . S
H32 C30 0.981 . S
C33 H26 0.929 . S
C33 C34 1.400 . S
C33 C35 1.364 . S
C34 C33 1.400 . S
C34 C38 1.377 . S
C35 C33 1.364 . S
C35 C36 1.374 . S
C36 H27 0.930 . S
C36 C35 1.374 . S
C36 C37 1.383 . S
C37 O31 1.412 . S
C37 C36 1.383 . S
C37 C38 1.394 . S
C38 H28 0.929 . S
C38 C34 1.377 . S
C38 C37 1.394 . S
H39 C46 0.929 . S
H40 C49 0.930 . S
H41 C51 0.929 . S
H42 C43 0.969 . S
C43 H42 0.969 . S
C43 O44 1.550 . S
C43 H45 0.973 . S
O44 C43 1.550 . S
O44 C50 1.412 . S
H45 C43 0.973 . S
C46 H39 0.929 . S
C46 C47 1.400 . S
C46 C48 1.364 . S
C47 C46 1.400 . S
C47 C51 1.377 . S
C48 C46 1.364 . S
C48 C49 1.374 . S
C49 H40 0.930 . S
C49 C48 1.374 . S
C49 C50 1.383 . S
C50 O44 1.412 . S
C50 C49 1.383 . S
C50 C51 1.394 . S
C51 H41 0.929 . S
C51 C47 1.377 . S
C51 C50 1.394 . S
H52 C59 0.929 . S
H53 C62 0.930 . S
H54 C64 0.929 . S
H55 C56 0.969 . S
C56 H55 0.969 . S
C56 O57 1.550 . S
C56 H58 0.973 . S
O57 C56 1.550 . S
O57 C63 1.412 . S
H58 C56 0.973 . S
C59 H52 0.929 . S
C59 C60 1.400 . S
C59 C61 1.364 . S
C60 C59 1.400 . S
C60 C64 1.377 . S
C61 C59 1.364 . S
C61 C62 1.374 . S
C62 H53 0.930 . S
C62 C61 1.374 . S
C62 C63 1.383 . S
C63 O57 1.412 . S
C63 C62 1.383 . S
C63 C64 1.394 . S
C64 H54 0.929 . S
C64 C60 1.377 . S
C64 C63 1.394 . S
H65 C72 0.929 . S
H66 C75 0.930 . S
H67 C77 0.929 . S
H68 C69 0.969 . S
C69 H68 0.969 . S
C69 O70 1.550 . S
C69 H71 0.973 . S
O70 C69 1.550 . S
O70 C76 1.412 . S
H71 C69 0.973 . S
C72 H65 0.929 . S
C72 C73 1.400 . S
C72 C74 1.364 . S
C73 C72 1.400 . S
C73 C77 1.377 . S
C74 C72 1.364 . S
C74 C75 1.374 . S
C75 H66 0.930 . S
C75 C74 1.374 . S
C75 C76 1.383 . S
C76 O70 1.412 . S
C76 C75 1.383 . S
C76 C77 1.394 . S
C77 H67 0.929 . S
C77 C73 1.377 . S
C77 C76 1.394 . S
H78 C85 0.929 . S
H79 C88 0.930 . S
H80 C90 0.929 . S
H81 C82 0.969 . S
C82 H81 0.969 . S
C82 O83 1.550 . S
C82 H84 0.973 . S
O83 C82 1.550 . S
O83 C89 1.412 . S
H84 C82 0.973 . S
C85 H78 0.929 . S
C85 C86 1.400 . S
C85 C87 1.364 . S
C86 C85 1.400 . S
C86 C90 1.377 . S
C87 C85 1.364 . S
C87 C88 1.374 . S
C88 H79 0.930 . S
C88 C87 1.374 . S
C88 C89 1.383 . S
C89 O83 1.412 . S
C89 C88 1.383 . S
C89 C90 1.394 . S
C90 H80 0.929 . S
C90 C86 1.377 . S
C90 C89 1.394 . S
H91 C98 0.929 . S
H92 C101 0.930 . S
H93 C103 0.929 . S
H94 C95 0.969 . S
C95 H94 0.969 . S
C95 O96 1.550 . S
C95 H97 0.973 . S
O96 C95 1.550 . S
O96 C102 1.412 . S
H97 C95 0.973 . S
C98 H91 0.929 . S
C98 C99 1.400 . S
C98 C100 1.364 . S
C99 C98 1.400 . S
C99 C103 1.377 . S
C100 C98 1.364 . S
C100 C101 1.374 . S
C101 H92 0.930 . S
C101 C100 1.374 . S
C101 C102 1.383 . S
C102 O96 1.412 . S
C102 C101 1.383 . S
C102 C103 1.394 . S
C103 H93 0.929 . S
C103 C99 1.377 . S
C103 C102 1.394 . S
Nd104 C106 2.836 1_545 S
Nd104 O124 2.500 1_445 S
Nd104 O125 2.492 1_545 S
Nd104 O126 2.487 . S
Nd104 O127 2.682 . S
Nd104 O128 2.410 1_545 S
Nd104 O133 2.414 1_455 S
Nd104 O135 2.424 . S
Nd105 C115 2.836 1_556 S
Nd105 O127 2.414 . S
Nd105 O129 2.424 1_545 S
Nd105 O130 2.500 . S
Nd105 O131 2.492 1_456 S
Nd105 O132 2.487 1_455 S
Nd105 O133 2.682 1_455 S
Nd105 O134 2.414 . S
C106 Nd104 2.836 1_565 S
C106 C107 1.498 . S
C106 O124 1.258 1_455 S
C106 O125 1.239 . S
C107 C106 1.498 . S
C107 C108 1.345 1_455 S
C107 C112 1.431 . S
C108 C107 1.345 1_655 S
C108 C109 1.392 . S
C108 H136 0.930 . S
C109 C108 1.392 . S
C109 C110 1.398 . S
C109 H137 0.929 . S
C110 C109 1.398 . S
C110 C111 1.352 1_655 S
C111 C110 1.352 1_455 S
C111 C112 1.384 . S
C111 H138 0.930 . S
C112 C107 1.431 . S
C112 C111 1.384 . S
C112 H139 0.929 . S
C113 O126 1.241 . S
C113 O127 1.273 . S
C114 O128 1.251 . S
C114 O129 1.268 . S
C115 Nd105 2.836 1_554 S
C115 C116 1.498 . S
C115 O130 1.258 1_554 S
C115 O131 1.239 1_455 S
C116 C115 1.498 . S
C116 C117 1.366 . S
C116 C121 1.407 . S
C117 C116 1.366 . S
C117 C118 1.392 . S
C117 H140 0.929 1_554 S
C118 C117 1.392 . S
C118 C119 1.398 . S
C118 H141 0.929 . S
C119 C118 1.398 . S
C119 C120 1.352 . S
C120 C119 1.352 . S
C120 C121 1.384 . S
C120 H142 0.930 1_455 S
C121 C116 1.407 . S
C121 C120 1.384 . S
C121 H143 0.929 1_455 S
C122 O132 1.241 . S
C122 O133 1.273 . S
C123 O134 1.253 . S
C123 O135 1.268 . S
O124 Nd104 2.500 1_665 S
O124 C106 1.258 1_655 S
O125 Nd104 2.492 1_565 S
O125 C106 1.239 . S
O126 Nd104 2.487 . S
O126 C113 1.241 . S
O127 Nd104 2.682 . S
O127 Nd105 2.414 . S
O127 C113 1.273 . S
O128 Nd104 2.410 1_565 S
O128 C114 1.251 . S
O129 Nd105 2.424 1_565 S
O129 C114 1.268 . S
O130 Nd105 2.500 . S
O130 C115 1.258 1_556 S
O131 Nd105 2.492 1_654 S
O131 C115 1.239 1_655 S
O132 Nd105 2.487 1_655 S
O132 C122 1.241 . S
O133 Nd104 2.414 1_655 S
O133 Nd105 2.682 1_655 S
O133 C122 1.273 . S
O134 Nd105 2.414 . S
O134 C123 1.253 . S
O135 Nd104 2.424 . S
O135 C123 1.268 . S
H136 C108 0.930 . S
H137 C109 0.929 . S
H138 C111 0.930 . S
H139 C112 0.929 . S
H140 C117 0.929 1_556 S
H141 C118 0.929 . S
H142 C120 0.930 1_655 S
H143 C121 0.929 1_655 S
Nd144 C146 2.836 1_545 S
Nd144 O164 2.500 1_545 S
Nd144 O165 2.492 . S
Nd144 O166 2.487 . S
Nd144 O167 2.682 . S
Nd144 O168 2.410 . S
Nd144 O173 2.414 1_545 S
Nd144 O175 2.424 . S
Nd145 C155 2.836 1_556 S
Nd145 O167 2.414 . S
Nd145 O169 2.424 . S
Nd145 O170 2.500 . S
Nd145 O171 2.492 1_556 S
Nd145 O172 2.487 1_545 S
Nd145 O173 2.682 1_545 S
Nd145 O174 2.410 . S
C146 Nd144 2.836 1_565 S
C146 C147 1.498 . S
C146 O164 1.258 . S
C146 O165 1.239 1_565 S
C147 C146 1.498 . S
C147 C148 1.366 . S
C147 C152 1.407 . S
C148 C147 1.366 . S
C148 C149 1.392 . S
C148 H176 0.930 . S
C149 C148 1.392 . S
C149 C150 1.398 . S
C149 H177 0.929 . S
C150 C149 1.398 . S
C150 C151 1.352 . S
C151 C150 1.352 . S
C151 C152 1.384 . S
C151 H178 0.930 . S
C152 C147 1.407 . S
C152 C151 1.384 . S
C152 H179 0.929 1_565 S
C153 O166 1.241 . S
C153 O167 1.273 . S
C154 O168 1.251 . S
C154 O169 1.268 . S
C155 Nd145 2.836 1_554 S
C155 C156 1.498 . S
C155 O170 1.258 1_554 S
C155 O171 1.239 . S
C156 C155 1.498 . S
C156 C157 1.366 . S
C156 C161 1.407 . S
C157 C156 1.366 . S
C157 C158 1.392 . S
C157 H180 0.930 1_554 S
C158 C157 1.392 . S
C158 C159 1.398 . S
C158 H181 0.929 . S
C159 C158 1.398 . S
C159 C160 1.352 . S
C160 C159 1.352 . S
C160 C161 1.384 . S
C160 H182 0.930 . S
C161 C156 1.407 . S
C161 C160 1.384 . S
C161 H183 0.929 . S
C162 O172 1.241 . S
C162 O173 1.273 . S
C163 O174 1.251 . S
C163 O175 1.268 . S
O164 Nd144 2.500 1_565 S
O164 C146 1.258 . S
O165 Nd144 2.492 . S
O165 C146 1.239 1_545 S
O166 Nd144 2.487 . S
O166 C153 1.241 . S
O167 Nd144 2.682 . S
O167 Nd145 2.414 . S
O167 C153 1.273 . S
O168 Nd144 2.410 . S
O168 C154 1.251 . S
O169 Nd145 2.424 . S
O169 C154 1.268 . S
O170 Nd145 2.500 . S
O170 C155 1.258 1_556 S
O171 Nd145 2.492 1_554 S
O171 C155 1.239 . S
O172 Nd145 2.487 1_565 S
O172 C162 1.241 . S
O173 Nd144 2.414 1_565 S
O173 Nd145 2.682 1_565 S
O173 C162 1.273 . S
O174 Nd145 2.410 . S
O174 C163 1.251 . S
O175 Nd144 2.424 . S
O175 C163 1.268 . S
H176 C148 0.930 . S
H177 C149 0.929 . S
H178 C151 0.930 . S
H179 C152 0.929 1_545 S
H180 C157 0.930 1_556 S
H181 C158 0.929 . S
H182 C160 0.930 . S
H183 C161 0.929 . S
Nd184 C186 2.836 . S
Nd184 O204 2.500 . S
Nd184 O205 2.492 . S
Nd184 O206 2.487 . S
Nd184 O207 2.682 . S
Nd184 O208 2.410 . S
Nd184 O213 2.414 . S
Nd184 O215 2.424 . S
Nd185 C195 2.836 . S
Nd185 O207 2.414 . S
Nd185 O209 2.424 . S
Nd185 O210 2.500 . S
Nd185 O211 2.492 . S
Nd185 O212 2.487 . S
Nd185 O213 2.682 . S
Nd185 O214 2.410 . S
C186 Nd184 2.836 . S
C186 C187 1.498 1_556 S
C186 O204 1.258 . S
C186 O205 1.239 . S
C187 C186 1.498 1_554 S
C187 C188 1.366 1_554 S
C187 C192 1.407 . S
C188 C187 1.366 1_556 S
C188 C189 1.392 1_556 S
C188 H216 0.930 . S
C189 C188 1.392 1_554 S
C189 C190 1.398 . S
C189 H217 0.929 1_554 S
C190 C189 1.398 . S
C190 C191 1.352 . S
C191 C190 1.352 . S
C191 C192 1.384 . S
C191 H218 0.930 . S
C192 C187 1.407 . S
C192 C191 1.384 . S
C192 H219 0.929 . S
C193 O206 1.241 . S
C193 O207 1.273 . S
C194 O208 1.251 . S
C194 O209 1.268 . S
C195 Nd185 2.836 . S
C195 C196 1.498 . S
C195 O210 1.258 . S
C195 O211 1.239 . S
C196 C195 1.498 . S
C196 C197 1.366 . S
C196 C201 1.407 . S
C197 C196 1.366 . S
C197 C198 1.392 . S
C197 H220 0.930 . S
C198 C197 1.392 . S
C198 C199 1.398 . S
C198 H221 0.929 . S
C199 C198 1.398 . S
C199 C200 1.352 . S
C200 C199 1.352 . S
C200 C201 1.384 . S
C200 H222 0.930 . S
C201 C196 1.407 . S
C201 C200 1.384 . S
C201 H223 0.929 . S
C202 O212 1.241 . S
C202 O213 1.273 . S
C203 O214 1.251 . S
C203 O215 1.268 . S
O204 Nd184 2.500 . S
O204 C186 1.258 . S
O205 Nd184 2.492 . S
O205 C186 1.239 . S
O206 Nd184 2.487 . S
O206 C193 1.241 . S
O207 Nd184 2.682 . S
O207 Nd185 2.414 . S
O207 C193 1.273 . S
O208 Nd184 2.410 . S
O208 C194 1.251 . S
O209 Nd185 2.424 . S
O209 C194 1.268 . S
O210 Nd185 2.500 . S
O210 C195 1.258 . S
O211 Nd185 2.492 . S
O211 C195 1.239 . S
O212 Nd185 2.487 . S
O212 C202 1.241 . S
O213 Nd184 2.414 . S
O213 Nd185 2.682 . S
O213 C202 1.273 . S
O214 Nd185 2.410 . S
O214 C203 1.251 . S
O215 Nd184 2.424 . S
O215 C203 1.268 . S
H216 C188 0.930 . S
H217 C189 0.929 1_556 S
H218 C191 0.930 . S
H219 C192 0.929 . S
H220 C197 0.930 . S
H221 C198 0.929 . S
H222 C200 0.930 . S
H223 C201 0.929 . S
Nd224 C226 2.836 1_455 S
Nd224 O244 2.500 1_455 S
Nd224 O245 2.492 1_455 S
Nd224 O246 2.486 1_455 S
Nd224 O247 2.682 . S
Nd224 O248 2.410 1_455 S
Nd224 O253 2.414 . S
Nd224 O255 2.424 . S
Nd225 C235 2.836 1_556 S
Nd225 O247 2.414 . S
Nd225 O249 2.424 1_455 S
Nd225 O250 2.500 1_556 S
Nd225 O251 2.492 1_556 S
Nd225 O252 2.487 . S
Nd225 O253 2.682 . S
Nd225 O254 2.410 . S
C226 Nd224 2.836 1_655 S
C226 C227 1.498 . S
C226 O244 1.258 . S
C226 O245 1.239 . S
C227 C226 1.498 . S
C227 C228 1.366 . S
C227 C232 1.407 . S
C228 C227 1.366 . S
C228 C229 1.392 . S
C228 H256 0.930 . S
C229 C228 1.392 . S
C229 C230 1.398 . S
C229 H257 0.929 . S
C230 C229 1.398 . S
C230 C231 1.352 . S
C231 C230 1.352 . S
C231 C232 1.384 . S
C231 H258 0.930 . S
C232 C227 1.407 . S
C232 C231 1.384 . S
C232 H259 0.929 . S
C233 O246 1.221 1_455 S
C233 O247 1.273 . S
C234 O248 1.251 . S
C234 O249 1.268 . S
C235 Nd225 2.836 1_554 S
C235 C236 1.498 . S
C235 O250 1.258 . S
C235 O251 1.239 . S
C236 C235 1.498 . S
C236 C237 1.366 . S
C236 C241 1.407 . S
C237 C236 1.366 . S
C237 C238 1.392 . S
C237 H260 0.930 . S
C238 C237 1.392 . S
C238 C239 1.398 . S
C238 H261 0.929 . S
C239 C238 1.398 . S
C239 C240 1.352 . S
C240 C239 1.352 . S
C240 C241 1.384 . S
C240 H262 0.930 . S
C241 C236 1.407 . S
C241 C240 1.384 . S
C241 H263 0.929 . S
C242 O252 1.241 . S
C242 O253 1.273 . S
C243 O254 1.251 . S
C243 O255 1.268 . S
O244 Nd224 2.500 1_655 S
O244 C226 1.258 . S
O245 Nd224 2.492 1_655 S
O245 C226 1.239 . S
O246 Nd224 2.486 1_655 S
O246 C233 1.221 1_655 S
O247 Nd224 2.682 . S
O247 Nd225 2.414 . S
O247 C233 1.273 . S
O248 Nd224 2.410 1_655 S
O248 C234 1.251 . S
O249 Nd225 2.424 1_655 S
O249 C234 1.268 . S
O250 Nd225 2.500 1_554 S
O250 C235 1.258 . S
O251 Nd225 2.492 1_554 S
O251 C235 1.239 . S
O252 Nd225 2.487 . S
O252 C242 1.241 . S
O253 Nd224 2.414 . S
O253 Nd225 2.682 . S
O253 C242 1.273 . S
O254 Nd225 2.410 . S
O254 C243 1.251 . S
O255 Nd224 2.424 . S
O255 C243 1.268 . S
H256 C228 0.930 . S
H257 C229 0.929 . S
H258 C231 0.930 . S
H259 C232 0.929 . S
H260 C237 0.930 . S
H261 C238 0.929 . S
H262 C240 0.930 . S
H263 C241 0.929 . S
C264 C265 1.349 . S
C264 C266 1.327 . S
C264 H289 0.950 . S
C265 C264 1.349 . S
C265 C281 1.349 . S
C266 C264 1.327 . S
C266 C285 1.429 . S
C266 H290 0.950 . S
C267 C284 1.574 . S
C267 C286 1.368 . S
C267 H291 0.949 . S
H268 C272 0.949 . S
C269 C270 1.349 . S
C269 C271 1.327 . S
C269 H292 0.950 . S
C270 C269 1.349 . S
C270 C282 1.349 . S
C271 C269 1.327 . S
C271 C287 1.429 . S
C271 H293 0.950 . S
C272 H268 0.949 . S
C272 C280 1.574 . S
C272 C288 1.368 . S
H273 C281 0.950 . S
H274 C279 0.950 . S
H275 C280 0.949 . S
H276 C282 0.950 . S
H277 C283 0.950 . S
H278 C284 0.949 . S
C279 H274 0.950 . S
C279 C281 1.327 . S
C279 C285 1.429 . S
C280 C272 1.574 . S
C280 H275 0.949 . S
C280 C286 1.368 . S
C281 C265 1.349 . S
C281 H273 0.950 . S
C281 C279 1.327 . S
C282 C270 1.349 . S
C282 H276 0.950 . S
C282 C283 1.327 . S
C283 H277 0.950 . S
C283 C282 1.327 . S
C283 C287 1.429 . S
C284 C267 1.574 . S
C284 H278 0.949 . S
C284 C288 1.368 . S
C285 C266 1.429 . S
C285 C279 1.429 . S
C285 C286 1.523 . S
C286 C267 1.368 . S
C286 C280 1.368 . S
C286 C285 1.523 . S
C287 C271 1.429 . S
C287 C283 1.429 . S
C287 C288 1.523 . S
C288 C272 1.368 . S
C288 C284 1.368 . S
C288 C287 1.523 . S
H289 C264 0.950 . S
H290 C266 0.950 . S
H291 C267 0.949 . S
H292 C269 0.950 . S
H293 C271 0.950 . S
C294 C295 1.349 . S
C294 C296 1.327 . S
C294 H319 0.950 . S
C295 C294 1.349 . S
C295 C311 1.349 . S
C296 C294 1.327 . S
C296 C315 1.429 . S
C296 H320 0.950 . S
C297 C314 1.574 . S
C297 C316 1.368 . S
C297 H321 0.949 . S
H298 C302 0.949 . S
C299 C300 1.349 . S
C299 C301 1.327 . S
C299 H322 0.950 . S
C300 C299 1.349 . S
C300 C312 1.349 . S
C301 C299 1.327 . S
C301 C317 1.429 . S
C301 H323 0.950 . S
C302 H298 0.949 . S
C302 C310 1.574 . S
C302 C318 1.368 . S
H303 C311 0.950 . S
H304 C309 0.950 . S
H305 C310 0.949 . S
H306 C312 0.950 . S
H307 C313 0.950 . S
H308 C314 0.949 . S
C309 H304 0.950 . S
C309 C311 1.327 . S
C309 C315 1.429 . S
C310 C302 1.574 . S
C310 H305 0.949 . S
C310 C316 1.368 . S
C311 C295 1.349 . S
C311 H303 0.950 . S
C311 C309 1.327 . S
C312 C300 1.349 . S
C312 H306 0.950 . S
C312 C313 1.327 . S
C313 H307 0.950 . S
C313 C312 1.327 . S
C313 C317 1.429 . S
C314 C297 1.574 . S
C314 H308 0.949 . S
C314 C318 1.368 . S
C315 C296 1.429 . S
C315 C309 1.429 . S
C315 C316 1.523 . S
C316 C297 1.368 . S
C316 C310 1.368 . S
C316 C315 1.523 . S
C317 C301 1.429 . S
C317 C313 1.429 . S
C317 C318 1.523 . S
C318 C302 1.368 . S
C318 C314 1.368 . S
C318 C317 1.523 . S
H319 C294 0.950 . S
H320 C296 0.950 . S
H321 C297 0.949 . S
H322 C299 0.950 . S
H323 C301 0.950 . S
C324 C325 1.349 . S
C324 C326 1.327 . S
C324 H349 0.950 . S
C325 C324 1.349 . S
C325 C341 1.349 . S
C326 C324 1.327 . S
C326 C345 1.429 . S
C326 H350 0.950 . S
C327 C344 1.574 . S
C327 C346 1.368 . S
C327 H351 0.949 . S
H328 C332 0.949 . S
C329 C330 1.349 . S
C329 C331 1.327 . S
C329 H352 0.950 . S
C330 C329 1.349 . S
C330 C342 1.349 . S
C331 C329 1.327 . S
C331 C347 1.429 . S
C331 H353 0.950 . S
C332 H328 0.949 . S
C332 C340 1.574 . S
C332 C348 1.368 . S
H333 C341 0.950 . S
H334 C339 0.950 . S
H335 C340 0.949 . S
H336 C342 0.950 . S
H337 C343 0.950 . S
H338 C344 0.949 . S
C339 H334 0.950 . S
C339 C341 1.327 . S
C339 C345 1.429 . S
C340 C332 1.574 . S
C340 H335 0.949 . S
C340 C346 1.368 . S
C341 C325 1.349 . S
C341 H333 0.950 . S
C341 C339 1.327 . S
C342 C330 1.349 . S
C342 H336 0.950 . S
C342 C343 1.327 . S
C343 H337 0.950 . S
C343 C342 1.327 . S
C343 C347 1.429 . S
C344 C327 1.574 . S
C344 H338 0.949 . S
C344 C348 1.368 . S
C345 C326 1.429 . S
C345 C339 1.429 . S
C345 C346 1.523 . S
C346 C327 1.368 . S
C346 C340 1.368 . S
C346 C345 1.523 . S
C347 C331 1.429 . S
C347 C343 1.429 . S
C347 C348 1.523 . S
C348 C332 1.368 . S
C348 C344 1.368 . S
C348 C347 1.523 . S
H349 C324 0.950 . S
H350 C326 0.950 . S
H351 C327 0.949 . S
H352 C329 0.950 . S
H353 C331 0.950 . S
C354 C355 1.349 . S
C354 C356 1.327 . S
C354 H379 0.950 . S
C355 C354 1.349 . S
C355 C371 1.349 . S
C356 C354 1.327 . S
C356 C375 1.429 . S
C356 H380 0.950 . S
C357 C374 1.574 . S
C357 C376 1.368 . S
C357 H381 0.949 . S
H358 C362 0.949 . S
C359 C360 1.349 . S
C359 C361 1.327 . S
C359 H382 0.950 . S
C360 C359 1.349 . S
C360 C372 1.349 . S
C361 C359 1.327 . S
C361 C377 1.429 . S
C361 H383 0.950 . S
C362 H358 0.949 . S
C362 C370 1.574 . S
C362 C378 1.368 . S
H363 C371 0.950 . S
H364 C369 0.950 . S
H365 C370 0.949 . S
H366 C372 0.950 . S
H367 C373 0.950 . S
H368 C374 0.949 . S
C369 H364 0.950 . S
C369 C371 1.327 . S
C369 C375 1.429 . S
C370 C362 1.574 . S
C370 H365 0.949 . S
C370 C376 1.368 . S
C371 C355 1.349 . S
C371 H363 0.950 . S
C371 C369 1.327 . S
C372 C360 1.349 . S
C372 H366 0.950 . S
C372 C373 1.327 . S
C373 H367 0.950 . S
C373 C372 1.327 . S
C373 C377 1.429 . S
C374 C357 1.574 . S
C374 H368 0.949 . S
C374 C378 1.368 . S
C375 C356 1.429 . S
C375 C369 1.429 . S
C375 C376 1.523 . S
C376 C357 1.368 . S
C376 C370 1.368 . S
C376 C375 1.523 . S
C377 C361 1.429 . S
C377 C373 1.429 . S
C377 C378 1.523 . S
C378 C362 1.368 . S
C378 C374 1.368 . S
C378 C377 1.523 . S
H379 C354 0.950 . S
H380 C356 0.950 . S
H381 C357 0.949 . S
H382 C359 0.950 . S
H383 C361 0.950 . S
C384 C385 1.349 . S
C384 C386 1.327 . S
C384 H409 0.950 . S
C385 C384 1.349 . S
C385 C401 1.349 1_554 S
C386 C384 1.327 . S
C386 C405 1.430 . S
C386 H410 0.950 . S
C387 C404 1.574 . S
C387 C406 1.368 . S
C387 H411 0.949 . S
H388 C392 0.949 . S
C389 C390 1.368 . S
C389 C391 1.341 . S
C389 H412 0.920 1_565 S
C390 C389 1.368 . S
C390 C402 1.349 . S
C391 C389 1.341 . S
C391 C407 1.429 . S
C391 H413 0.950 . S
C392 H388 0.949 . S
C392 C400 1.574 . S
C392 C408 1.368 1_554 S
H393 C401 0.950 . S
H394 C399 0.950 . S
H395 C400 0.949 . S
H396 C402 0.950 . S
H397 C403 0.950 1_554 S
H398 C404 0.949 . S
C399 H394 0.950 . S
C399 C401 1.327 . S
C399 C405 1.427 1_556 S
C400 C392 1.574 . S
C400 H395 0.949 . S
C400 C406 1.368 1_554 S
C401 C385 1.349 1_556 S
C401 H393 0.950 . S
C401 C399 1.327 . S
C402 C390 1.349 . S
C402 H396 0.950 . S
C402 C403 1.327 . S
C403 H397 0.950 1_556 S
C403 C402 1.327 . S
C403 C407 1.429 . S
C404 C387 1.574 . S
C404 H398 0.949 . S
C404 C408 1.368 . S
C405 C386 1.430 . S
C405 C399 1.427 1_554 S
C405 C406 1.523 1_554 S
C406 C387 1.368 . S
C406 C400 1.368 1_556 S
C406 C405 1.523 1_556 S
C407 C391 1.429 . S
C407 C403 1.429 . S
C407 C408 1.523 . S
C408 C392 1.368 1_556 S
C408 C404 1.368 . S
C408 C407 1.523 . S
H409 C384 0.950 . S
H410 C386 0.950 . S
H411 C387 0.949 . S
H412 C389 0.920 1_545 S
H413 C391 0.950 . S
C414 C415 1.349 . S
C414 C416 1.327 . S
C414 H439 0.950 . S
C415 C414 1.349 . S
C415 C431 1.349 . S
C416 C414 1.327 . S
C416 C435 1.429 . S
C416 H440 0.950 . S
C417 C434 1.574 . S
C417 C436 1.368 . S
C417 H441 0.949 . S
H418 C422 0.949 . S
C419 C420 1.349 . S
C419 C421 1.327 . S
C419 H442 0.950 . S
C420 C419 1.349 . S
C420 C432 1.349 1_556 S
C421 C419 1.327 . S
C421 C437 1.429 1_556 S
C421 H443 0.950 . S
C422 H418 0.949 . S
C422 C430 1.574 . S
C422 C438 1.368 . S
H423 C431 0.950 . S
H424 C429 0.950 . S
H425 C430 0.949 . S
H426 C432 0.950 . S
H427 C433 0.950 . S
H428 C434 0.949 . S
C429 H424 0.950 . S
C429 C431 1.327 . S
C429 C435 1.429 . S
C430 C422 1.574 . S
C430 H425 0.949 . S
C430 C436 1.368 . S
C431 C415 1.349 . S
C431 H423 0.950 . S
C431 C429 1.327 . S
C432 C420 1.349 1_554 S
C432 H426 0.950 . S
C432 C433 1.327 . S
C433 H427 0.950 . S
C433 C432 1.327 . S
C433 C437 1.429 . S
C434 C417 1.574 . S
C434 H428 0.949 . S
C434 C438 1.368 . S
C435 C416 1.429 . S
C435 C429 1.429 . S
C435 C436 1.523 . S
C436 C417 1.368 . S
C436 C430 1.368 . S
C436 C435 1.523 . S
C437 C421 1.429 1_554 S
C437 C433 1.429 . S
C437 C438 1.523 . S
C438 C422 1.368 . S
C438 C434 1.368 . S
C438 C437 1.523 . S
H439 C414 0.950 . S
H440 C416 0.950 . S
H441 C417 0.949 . S
H442 C419 0.950 . S
H443 C421 0.950 . S
C444 C445 1.349 . S
C444 C446 1.327 . S
C444 H469 0.950 1_556 S
C445 C444 1.349 . S
C445 C461 1.349 . S
C446 C444 1.327 . S
C446 C465 1.429 . S
C446 H470 0.950 . S
C447 C464 1.574 . S
C447 C466 1.368 . S
C447 H471 0.949 . S
H448 C452 0.949 . S
C449 C450 1.349 . S
C449 C451 1.327 . S
C449 H472 0.950 . S
C450 C449 1.349 . S
C450 C462 1.349 . S
C451 C449 1.327 . S
C451 C467 1.429 . S
C451 H473 0.950 . S
C452 H448 0.949 . S
C452 C460 1.574 . S
C452 C468 1.368 . S
H453 C461 0.950 . S
H454 C459 0.950 . S
H455 C460 0.949 . S
H456 C462 0.950 . S
H457 C463 0.950 . S
H458 C464 0.949 . S
C459 H454 0.950 . S
C459 C461 1.327 . S
C459 C465 1.429 . S
C460 C452 1.574 . S
C460 H455 0.949 . S
C460 C466 1.368 . S
C461 C445 1.349 . S
C461 H453 0.950 . S
C461 C459 1.327 . S
C462 C450 1.349 . S
C462 H456 0.950 . S
C462 C463 1.327 . S
C463 H457 0.950 . S
C463 C462 1.327 . S
C463 C467 1.429 . S
C464 C447 1.574 . S
C464 H458 0.949 . S
C464 C468 1.368 . S
C465 C446 1.429 . S
C465 C459 1.429 . S
C465 C466 1.523 . S
C466 C447 1.368 . S
C466 C460 1.368 . S
C466 C465 1.523 . S
C467 C451 1.429 . S
C467 C463 1.429 . S
C467 C468 1.523 . S
C468 C452 1.368 . S
C468 C464 1.368 . S
C468 C467 1.523 . S
H469 C444 0.950 1_554 S
H470 C446 0.950 . S
H471 C447 0.949 . S
H472 C449 0.950 . S
H473 C451 0.950 . S
C474 C475 1.349 . S
C474 C476 1.327 . S
C474 H499 0.950 . S
C475 C474 1.349 . S
C475 C491 1.349 1_655 S
C476 C474 1.327 . S
C476 C495 1.429 1_655 S
C476 H500 0.950 . S
C477 C494 1.574 . S
C477 C496 1.368 1_556 S
C477 H501 0.949 . S
H478 C482 0.949 . S
C479 C480 1.349 . S
C479 C481 1.327 . S
C479 H502 0.950 . S
C480 C479 1.349 . S
C480 C492 1.349 1_455 S
C481 C479 1.327 . S
C481 C497 1.429 . S
C481 H503 0.950 . S
C482 H478 0.949 . S
C482 C490 1.574 . S
C482 C498 1.368 1_654 S
H483 C491 0.950 1_556 S
H484 C489 0.950 . S
H485 C490 0.949 . S
H486 C492 0.950 . S
H487 C493 0.950 1_554 S
H488 C494 0.949 . S
C489 H484 0.950 . S
C489 C491 1.327 1_556 S
C489 C495 1.429 1_556 S
C490 C482 1.574 . S
C490 H485 0.949 . S
C490 C496 1.368 1_655 S
C491 C475 1.349 1_455 S
C491 H483 0.950 1_554 S
C491 C489 1.327 1_554 S
C492 C480 1.349 1_655 S
C492 H486 0.950 . S
C492 C493 1.327 . S
C493 H487 0.950 1_556 S
C493 C492 1.327 . S
C493 C497 1.429 1_655 S
C494 C477 1.574 . S
C494 H488 0.949 . S
C494 C498 1.368 . S
C495 C476 1.429 1_455 S
C495 C489 1.429 1_554 S
C495 C496 1.523 . S
C496 C477 1.368 1_554 S
C496 C490 1.368 1_455 S
C496 C495 1.523 . S
C497 C481 1.429 . S
C497 C493 1.429 1_455 S
C497 C498 1.523 . S
C498 C482 1.368 1_456 S
C498 C494 1.368 . S
C498 C497 1.523 . S
H499 C474 0.950 . S
H500 C476 0.950 . S
H501 C477 0.949 . S
H502 C479 0.950 . S
H503 C481 0.950 . S
C504 C505 1.349 . S
C504 C506 1.327 . S
C504 H529 0.950 . S
C505 C504 1.349 . S
C505 C521 1.349 . S
C506 C504 1.327 . S
C506 C525 1.429 . S
C506 H530 0.950 . S
C507 C524 1.574 . S
C507 C526 1.368 . S
C507 H531 0.949 . S
H508 C512 0.949 . S
C509 C510 1.349 . S
C509 C511 1.327 . S
C509 H532 0.950 . S
C510 C509 1.349 . S
C510 C522 1.349 . S
C511 C509 1.327 . S
C511 C527 1.429 . S
C511 H533 0.950 . S
C512 H508 0.949 . S
C512 C520 1.574 . S
C512 C528 1.368 . S
H513 C521 0.950 . S
H514 C519 0.950 . S
H515 C520 0.949 . S
H516 C522 0.950 1_655 S
H517 C523 0.940 1_655 S
H518 C524 0.949 . S
C519 H514 0.950 . S
C519 C521 1.327 . S
C519 C525 1.429 . S
C520 C512 1.574 . S
C520 H515 0.949 . S
C520 C526 1.368 . S
C521 C505 1.349 . S
C521 H513 0.950 . S
C521 C519 1.327 . S
C522 C510 1.349 . S
C522 H516 0.950 1_455 S
C522 C523 1.327 . S
C523 H517 0.940 1_455 S
C523 C522 1.327 . S
C523 C527 1.429 . S
C524 C507 1.574 . S
C524 H518 0.949 . S
C524 C528 1.368 . S
C525 C506 1.429 . S
C525 C519 1.429 . S
C525 C526 1.523 . S
C526 C507 1.368 . S
C526 C520 1.368 . S
C526 C525 1.523 . S
C527 C511 1.429 . S
C527 C523 1.429 . S
C527 C528 1.523 . S
C528 C512 1.368 . S
C528 C524 1.368 . S
C528 C527 1.523 . S
H529 C504 0.950 . S
H530 C506 0.950 . S
H531 C507 0.949 . S
H532 C509 0.950 . S
H533 C511 0.950 . S
C534 C535 1.349 . S
C534 C536 1.327 . S
C534 H559 0.950 . S
C535 C534 1.349 . S
C535 C551 1.349 . S
C536 C534 1.327 . S
C536 C555 1.429 . S
C536 H560 0.950 . S
C537 C554 1.574 . S
C537 C556 1.368 . S
C537 H561 0.949 . S
H538 C542 0.949 . S
C539 C540 1.349 . S
C539 C541 1.327 . S
C539 H562 0.950 . S
C540 C539 1.349 . S
C540 C552 1.349 . S
C541 C539 1.327 . S
C541 C557 1.429 . S
C541 H563 0.950 . S
C542 H538 0.949 . S
C542 C550 1.574 . S
C542 C558 1.368 . S
H543 C551 0.950 . S
H544 C549 0.950 . S
H545 C550 0.949 . S
H546 C552 0.950 . S
H547 C553 0.950 . S
H548 C554 0.949 . S
C549 H544 0.950 . S
C549 C551 1.327 . S
C549 C555 1.429 . S
C550 C542 1.574 . S
C550 H545 0.949 . S
C550 C556 1.368 . S
C551 C535 1.349 . S
C551 H543 0.950 . S
C551 C549 1.327 . S
C552 C540 1.349 . S
C552 H546 0.950 . S
C552 C553 1.327 . S
C553 H547 0.950 . S
C553 C552 1.327 . S
C553 C557 1.429 . S
C554 C537 1.574 . S
C554 H548 0.949 . S
C554 C558 1.368 . S
C555 C536 1.429 . S
C555 C549 1.429 . S
C555 C556 1.523 . S
C556 C537 1.368 . S
C556 C550 1.368 . S
C556 C555 1.523 . S
C557 C541 1.429 . S
C557 C553 1.429 . S
C557 C558 1.523 . S
C558 C542 1.368 . S
C558 C554 1.368 . S
C558 C557 1.523 . S
H559 C534 0.950 . S
H560 C536 0.950 . S
H561 C537 0.949 . S
H562 C539 0.950 . S
H563 C541 0.950 . S
C564 C565 1.349 . S
C564 C566 1.327 . S
C564 H589 0.950 . S
C565 C564 1.349 . S
C565 C581 1.349 . S
C566 C564 1.327 . S
C566 C585 1.429 . S
C566 H590 0.950 . S
C567 C584 1.574 . S
C567 C586 1.368 . S
C567 H591 0.949 . S
H568 C572 0.949 . S
C569 C570 1.349 . S
C569 C571 1.327 . S
C569 H592 0.950 . S
C570 C569 1.349 . S
C570 C582 1.349 . S
C571 C569 1.327 . S
C571 C587 1.429 . S
C571 H593 0.950 . S
C572 H568 0.949 . S
C572 C580 1.574 . S
C572 C588 1.368 . S
H573 C581 0.950 . S
H574 C579 0.950 . S
H575 C580 0.949 . S
H576 C582 0.950 . S
H577 C583 0.950 . S
H578 C584 0.949 . S
C579 H574 0.950 . S
C579 C581 1.327 . S
C579 C585 1.429 . S
C580 C572 1.574 . S
C580 H575 0.949 . S
C580 C586 1.368 . S
C581 C565 1.349 . S
C581 H573 0.950 . S
C581 C579 1.327 . S
C582 C570 1.349 . S
C582 H576 0.950 . S
C582 C583 1.327 . S
C583 H577 0.950 . S
C583 C582 1.327 . S
C583 C587 1.429 . S
C584 C567 1.574 . S
C584 H578 0.949 . S
C584 C588 1.368 . S
C585 C566 1.429 . S
C585 C579 1.429 . S
C585 C586 1.523 . S
C586 C567 1.368 . S
C586 C580 1.368 . S
C586 C585 1.523 . S
C587 C571 1.429 . S
C587 C583 1.429 . S
C587 C588 1.523 . S
C588 C572 1.368 . S
C588 C584 1.368 . S
C588 C587 1.523 . S
H589 C564 0.950 . S
H590 C566 0.950 . S
H591 C567 0.949 . S
H592 C569 0.950 . S
H593 C571 0.950 . S
C594 C595 1.349 . S
C594 C596 1.327 . S
C594 H619 0.950 . S
C595 C594 1.349 . S
C595 C611 1.349 . S
C596 C594 1.327 . S
C596 C615 1.429 . S
C596 H620 0.950 . S
C597 C614 1.574 . S
C597 C616 1.368 . S
C597 H621 0.949 . S
H598 C602 0.949 . S
C599 C600 1.349 . S
C599 C601 1.327 . S
C599 H622 0.950 . S
C600 C599 1.349 . S
C600 C612 1.349 . S
C601 C599 1.327 . S
C601 C617 1.429 . S
C601 H623 0.950 . S
C602 H598 0.949 . S
C602 C610 1.574 . S
C602 C618 1.368 . S
H603 C611 0.950 . S
H604 C609 0.950 . S
H605 C610 0.949 . S
H606 C612 0.950 . S
H607 C613 0.950 . S
H608 C614 0.949 . S
C609 H604 0.950 . S
C609 C611 1.327 . S
C609 C615 1.429 . S
C610 C602 1.574 . S
C610 H605 0.949 . S
C610 C616 1.368 . S
C611 C595 1.349 . S
C611 H603 0.950 . S
C611 C609 1.327 . S
C612 C600 1.349 . S
C612 H606 0.950 . S
C612 C613 1.327 . S
C613 H607 0.950 . S
C613 C612 1.327 . S
C613 C617 1.429 . S
C614 C597 1.574 . S
C614 H608 0.949 . S
C614 C618 1.368 . S
C615 C596 1.429 . S
C615 C609 1.429 . S
C615 C616 1.523 . S
C616 C597 1.368 . S
C616 C610 1.368 . S
C616 C615 1.523 . S
C617 C601 1.429 . S
C617 C613 1.429 . S
C617 C618 1.523 . S
C618 C602 1.368 . S
C618 C614 1.368 . S
C618 C617 1.523 . S
H619 C594 0.950 . S
H620 C596 0.950 . S
H621 C597 0.949 . S
H622 C599 0.950 . S
H623 C601 0.950 . S
C624 C625 1.349 1_556 S
C624 C626 1.327 . S
C624 H649 0.950 . S
C625 C624 1.349 1_554 S
C625 C641 1.349 1_655 S
C626 C624 1.327 . S
C626 C645 1.417 1_656 S
C626 H650 0.950 . S
C627 C644 1.574 . S
C627 C646 1.368 1_554 S
C627 H651 0.949 . S
H628 C632 0.949 . S
C629 C630 1.349 . S
C629 C631 1.327 . S
C629 H652 0.950 . S
C630 C629 1.349 . S
C630 C642 1.349 1_455 S
C631 C629 1.327 . S
C631 C647 1.429 . S
C631 H653 0.950 1_556 S
C632 H628 0.949 . S
C632 C640 1.574 . S
C632 C648 1.368 1_655 S
H633 C641 0.950 . S
H634 C639 0.950 . S
H635 C640 0.949 . S
H636 C642 0.950 . S
H637 C643 0.950 . S
H638 C644 0.949 . S
C639 H634 0.950 . S
C639 C641 1.327 . S
C639 C645 1.442 . S
C640 C632 1.574 . S
C640 H635 0.949 . S
C640 C646 1.368 1_655 S
C641 C625 1.349 1_455 S
C641 H633 0.950 . S
C641 C639 1.327 . S
C642 C630 1.349 1_655 S
C642 H636 0.950 . S
C642 C643 1.327 . S
C643 H637 0.950 . S
C643 C642 1.327 . S
C643 C647 1.429 1_655 S
C644 C627 1.574 . S
C644 H638 0.949 . S
C644 C648 1.368 1_554 S
C645 C626 1.417 1_454 S
C645 C639 1.442 . S
C645 C646 1.521 1_554 S
C646 C627 1.368 1_556 S
C646 C640 1.368 1_455 S
C646 C645 1.521 1_556 S
C647 C631 1.429 . S
C647 C643 1.429 1_455 S
C647 C648 1.523 . S
C648 C632 1.368 1_455 S
C648 C644 1.368 1_556 S
C648 C647 1.523 . S
H649 C624 0.950 . S
H650 C626 0.950 . S
H651 C627 0.949 . S
H652 C629 0.950 . S
H653 C631 0.950 1_554 S
C654 C655 1.349 1_556 S
C654 C656 1.327 . S
C654 H679 0.950 . S
C655 C654 1.349 1_554 S
C655 C671 1.349 . S
C656 C654 1.327 . S
C656 C675 1.429 . S
C656 H680 0.950 . S
C657 C674 1.574 . S
C657 C676 1.368 1_554 S
C657 H681 0.949 . S
H658 C662 0.949 . S
C659 C660 1.338 1_545 S
C659 C661 1.327 1_545 S
C659 H682 0.950 . S
C660 C659 1.338 1_565 S
C660 C672 1.394 . S
C661 C659 1.327 1_565 S
C661 C677 1.429 . S
C661 H683 0.950 1_556 S
C662 H658 0.949 . S
C662 C670 1.574 . S
C662 C678 1.368 . S
H663 C671 0.950 . S
H664 C669 0.950 . S
H665 C670 0.949 . S
H666 C672 0.950 . S
H667 C673 0.950 . S
H668 C674 0.949 . S
C669 H664 0.950 . S
C669 C671 1.327 . S
C669 C675 1.429 1_554 S
C670 C662 1.574 . S
C670 H665 0.949 . S
C670 C676 1.368 . S
C671 C655 1.349 . S
C671 H663 0.950 . S
C671 C669 1.327 . S
C672 C660 1.394 . S
C672 H666 0.950 . S
C672 C673 1.327 . S
C673 H667 0.950 . S
C673 C672 1.327 . S
C673 C677 1.429 . S
C674 C657 1.574 . S
C674 H668 0.949 . S
C674 C678 1.368 1_554 S
C675 C656 1.429 . S
C675 C669 1.429 1_556 S
C675 C676 1.523 . S
C676 C657 1.368 1_556 S
C676 C670 1.368 . S
C676 C675 1.523 . S
C677 C661 1.429 . S
C677 C673 1.429 . S
C677 C678 1.523 . S
C678 C662 1.368 . S
C678 C674 1.368 1_556 S
C678 C677 1.523 . S
H679 C654 0.950 . S
H680 C656 0.950 . S
H681 C657 0.949 . S
H682 C659 0.950 . S
H683 C661 0.950 1_554 S
C684 C685 1.349 . S
C684 C686 1.327 . S
C684 H709 0.950 . S
C685 C684 1.349 . S
C685 C701 1.349 . S
C686 C684 1.327 . S
C686 C705 1.429 . S
C686 H710 0.950 . S
C687 C704 1.574 . S
C687 C706 1.368 . S
C687 H711 0.949 . S
H688 C692 0.949 . S
C689 C690 1.349 . S
C689 C691 1.327 . S
C689 H712 0.950 . S
C690 C689 1.349 . S
C690 C702 1.349 . S
C691 C689 1.327 . S
C691 C707 1.429 . S
C691 H713 0.950 . S
C692 H688 0.949 . S
C692 C700 1.574 . S
C692 C708 1.368 . S
H693 C701 0.950 . S
H694 C699 0.950 . S
H695 C700 0.949 . S
H696 C702 0.949 1_556 S
H697 C703 0.950 . S
H698 C704 0.949 . S
C699 H694 0.950 . S
C699 C701 1.327 . S
C699 C705 1.429 . S
C700 C692 1.574 . S
C700 H695 0.949 . S
C700 C706 1.368 . S
C701 C685 1.349 . S
C701 H693 0.950 . S
C701 C699 1.327 . S
C702 C690 1.349 . S
C702 H696 0.949 1_554 S
C702 C703 1.327 . S
C703 H697 0.950 . S
C703 C702 1.327 . S
C703 C707 1.429 . S
C704 C687 1.574 . S
C704 H698 0.949 . S
C704 C708 1.368 . S
C705 C686 1.429 . S
C705 C699 1.429 . S
C705 C706 1.523 . S
C706 C687 1.368 . S
C706 C700 1.368 . S
C706 C705 1.523 . S
C707 C691 1.429 . S
C707 C703 1.429 . S
C707 C708 1.523 . S
C708 C692 1.368 . S
C708 C704 1.368 . S
C708 C707 1.523 . S
H709 C684 0.950 . S
H710 C686 0.950 . S
H711 C687 0.949 . S
H712 C689 0.950 . S
H713 C691 0.950 . S
C714 C715 1.349 . S
C714 C716 1.327 . S
C714 H739 0.950 . S
C715 C714 1.349 . S
C715 C731 1.349 . S
C716 C714 1.327 . S
C716 C735 1.429 . S
C716 H740 0.950 . S
C717 C734 1.574 . S
C717 C736 1.368 . S
C717 H741 0.949 . S
H718 C722 0.949 . S
C719 C720 1.349 . S
C719 C721 1.327 . S
C719 H742 0.950 . S
C720 C719 1.349 . S
C720 C732 1.349 . S
C721 C719 1.327 . S
C721 C737 1.429 . S
C721 H743 0.950 . S
C722 H718 0.949 . S
C722 C730 1.574 . S
C722 C738 1.368 . S
H723 C731 0.950 . S
H724 C729 0.950 . S
H725 C730 0.949 . S
H726 C732 0.950 . S
H727 C733 0.950 . S
H728 C734 0.949 . S
C729 H724 0.950 . S
C729 C731 1.327 . S
C729 C735 1.429 . S
C730 C722 1.574 . S
C730 H725 0.949 . S
C730 C736 1.368 . S
C731 C715 1.349 . S
C731 H723 0.950 . S
C731 C729 1.327 . S
C732 C720 1.349 . S
C732 H726 0.950 . S
C732 C733 1.327 . S
C733 H727 0.950 . S
C733 C732 1.327 . S
C733 C737 1.429 . S
C734 C717 1.574 . S
C734 H728 0.949 . S
C734 C738 1.368 . S
C735 C716 1.429 . S
C735 C729 1.429 . S
C735 C736 1.523 . S
C736 C717 1.368 . S
C736 C730 1.368 . S
C736 C735 1.523 . S
C737 C721 1.429 . S
C737 C733 1.429 . S
C737 C738 1.523 . S
C738 C722 1.368 . S
C738 C734 1.368 . S
C738 C737 1.523 . S
H739 C714 0.950 . S
H740 C716 0.950 . S
H741 C717 0.949 . S
H742 C719 0.950 . S
H743 C721 0.950 . S
C744 C745 1.349 . S
C744 C746 1.327 . S
C744 H769 0.950 1_455 S
C745 C744 1.349 . S
C745 C761 1.349 . S
C746 C744 1.327 . S
C746 C765 1.429 . S
C746 H770 0.950 1_455 S
C747 C764 1.574 . S
C747 C766 1.368 . S
C747 H771 0.949 . S
H748 C752 0.949 1_655 S
C749 C750 1.349 . S
C749 C751 1.327 . S
C749 H772 0.950 . S
C750 C749 1.349 . S
C750 C762 1.349 . S
C751 C749 1.327 . S
C751 C767 1.429 . S
C751 H773 0.950 . S
C752 H748 0.949 1_455 S
C752 C760 1.574 . S
C752 C768 1.368 . S
H753 C761 0.950 . S
H754 C759 0.950 . S
H755 C760 0.949 1_655 S
H756 C762 0.947 . S
H757 C763 0.920 1_655 S
H758 C764 0.949 . S
C759 H754 0.950 . S
C759 C761 1.327 . S
C759 C765 1.429 . S
C760 C752 1.574 . S
C760 H755 0.949 1_455 S
C760 C766 1.368 . S
C761 C745 1.349 . S
C761 H753 0.950 . S
C761 C759 1.327 . S
C762 C750 1.349 . S
C762 H756 0.947 . S
C762 C763 1.327 . S
C763 H757 0.920 1_455 S
C763 C762 1.327 . S
C763 C767 1.429 . S
C764 C747 1.574 . S
C764 H758 0.949 . S
C764 C768 1.368 . S
C765 C746 1.429 . S
C765 C759 1.429 . S
C765 C766 1.523 . S
C766 C747 1.368 . S
C766 C760 1.368 . S
C766 C765 1.523 . S
C767 C751 1.429 . S
C767 C763 1.429 . S
C767 C768 1.523 . S
C768 C752 1.368 . S
C768 C764 1.368 . S
C768 C767 1.523 . S
H769 C744 0.950 1_655 S
H770 C746 0.950 1_655 S
H771 C747 0.949 . S
H772 C749 0.950 . S
H773 C751 0.950 . S
C774 C775 1.349 . S
C774 C776 1.327 . S
C774 H799 0.950 . S
C775 C774 1.349 . S
C775 C791 1.349 . S
C776 C774 1.327 . S
C776 C795 1.429 . S
C776 H800 0.950 . S
C777 C794 1.574 . S
C777 C796 1.368 . S
C777 H801 0.949 . S
H778 C782 0.949 . S
C779 C780 1.349 . S
C779 C781 1.327 . S
C779 H802 0.950 . S
C780 C779 1.349 . S
C780 C792 1.349 . S
C781 C779 1.327 . S
C781 C797 1.429 . S
C781 H803 0.950 . S
C782 H778 0.949 . S
C782 C790 1.574 . S
C782 C798 1.368 . S
H783 C791 0.950 . S
H784 C789 0.950 . S
H785 C790 0.949 . S
H786 C792 0.950 . S
H787 C793 0.950 . S
H788 C794 0.949 . S
C789 H784 0.950 . S
C789 C791 1.327 . S
C789 C795 1.429 . S
C790 C782 1.574 . S
C790 H785 0.949 . S
C790 C796 1.368 . S
C791 C775 1.349 . S
C791 H783 0.950 . S
C791 C789 1.327 . S
C792 C780 1.349 . S
C792 H786 0.950 . S
C792 C793 1.327 . S
C793 H787 0.950 . S
C793 C792 1.327 . S
C793 C797 1.429 . S
C794 C777 1.574 . S
C794 H788 0.949 . S
C794 C798 1.368 . S
C795 C776 1.429 . S
C795 C789 1.429 . S
C795 C796 1.523 . S
C796 C777 1.368 . S
C796 C790 1.368 . S
C796 C795 1.523 . S
C797 C781 1.429 . S
C797 C793 1.429 . S
C797 C798 1.523 . S
C798 C782 1.368 . S
C798 C794 1.368 . S
C798 C797 1.523 . S
H799 C774 0.950 . S
H800 C776 0.950 . S
H801 C777 0.949 . S
H802 C779 0.950 . S
H803 C781 0.950 . S
C804 C805 1.349 . S
C804 C806 1.327 . S
C804 H829 0.950 . S
C805 C804 1.349 . S
C805 C821 1.349 . S
C806 C804 1.327 . S
C806 C825 1.429 . S
C806 H830 0.950 . S
C807 C824 1.574 . S
C807 C826 1.368 . S
C807 H831 0.949 . S
H808 C812 0.949 1_556 S
C809 C810 1.349 1_554 S
C809 C811 1.327 . S
C809 H832 0.950 . S
C810 C809 1.349 1_556 S
C810 C822 1.349 . S
C811 C809 1.327 . S
C811 C827 1.429 . S
C811 H833 0.950 . S
C812 H808 0.949 1_554 S
C812 C820 1.574 . S
C812 C828 1.368 . S
H813 C821 0.950 . S
H814 C819 0.950 . S
H815 C820 0.949 . S
H816 C822 0.950 . S
H817 C823 0.950 . S
H818 C824 0.949 . S
C819 H814 0.950 . S
C819 C821 1.327 . S
C819 C825 1.429 . S
C820 C812 1.574 . S
C820 H815 0.949 . S
C820 C826 1.368 . S
C821 C805 1.349 . S
C821 H813 0.950 . S
C821 C819 1.327 . S
C822 C810 1.349 . S
C822 H816 0.950 . S
C822 C823 1.327 . S
C823 H817 0.950 . S
C823 C822 1.327 . S
C823 C827 1.429 1_556 S
C824 C807 1.574 . S
C824 H818 0.949 . S
C824 C828 1.368 . S
C825 C806 1.429 . S
C825 C819 1.429 . S
C825 C826 1.523 . S
C826 C807 1.368 . S
C826 C820 1.368 . S
C826 C825 1.523 . S
C827 C811 1.429 . S
C827 C823 1.429 1_554 S
C827 C828 1.523 . S
C828 C812 1.368 . S
C828 C824 1.368 . S
C828 C827 1.523 . S
H829 C804 0.950 . S
H830 C806 0.950 . S
H831 C807 0.949 . S
H832 C809 0.950 . S
H833 C811 0.950 . S
C834 C835 1.349 . S
C834 C836 1.327 . S
C834 H859 0.950 . S
C835 C834 1.349 . S
C835 C851 1.349 . S
C836 C834 1.327 . S
C836 C855 1.429 . S
C836 H860 0.950 . S
C837 C854 1.574 . S
C837 C856 1.368 . S
C837 H861 0.949 . S
H838 C842 0.949 . S
C839 C840 1.349 . S
C839 C841 1.327 . S
C839 H862 0.950 . S
C840 C839 1.349 . S
C840 C852 1.349 . S
C841 C839 1.327 . S
C841 C857 1.429 . S
C841 H863 0.950 . S
C842 H838 0.949 . S
C842 C850 1.574 . S
C842 C858 1.368 . S
H843 C851 0.950 . S
H844 C849 0.950 . S
H845 C850 0.949 . S
H846 C852 0.950 . S
H847 C853 0.950 . S
H848 C854 0.949 . S
C849 H844 0.950 . S
C849 C851 1.327 . S
C849 C855 1.429 . S
C850 C842 1.574 . S
C850 H845 0.949 . S
C850 C856 1.368 . S
C851 C835 1.349 . S
C851 H843 0.950 . S
C851 C849 1.327 . S
C852 C840 1.349 . S
C852 H846 0.950 . S
C852 C853 1.327 . S
C853 H847 0.950 . S
C853 C852 1.327 . S
C853 C857 1.429 . S
C854 C837 1.574 . S
C854 H848 0.949 . S
C854 C858 1.368 . S
C855 C836 1.429 . S
C855 C849 1.429 . S
C855 C856 1.523 . S
C856 C837 1.368 . S
C856 C850 1.368 . S
C856 C855 1.523 . S
C857 C841 1.429 . S
C857 C853 1.429 . S
C857 C858 1.523 . S
C858 C842 1.368 . S
C858 C854 1.368 . S
C858 C857 1.523 . S
H859 C834 0.950 . S
H860 C836 0.950 . S
H861 C837 0.949 . S
H862 C839 0.950 . S
H863 C841 0.950 . S
C864 C865 1.349 1_455 S
C864 C866 1.327 . S
C864 H889 0.950 . S
C865 C864 1.349 1_655 S
C865 C881 1.349 . S
C866 C864 1.327 . S
C866 C885 1.429 1_455 S
C866 H890 0.950 . S
C867 C884 1.574 . S
C867 C886 1.368 . S
C867 H891 0.949 . S
H868 C872 0.949 . S
C869 C870 1.349 . S
C869 C871 1.327 . S
C869 H892 0.950 . S
C870 C869 1.349 . S
C870 C882 1.349 1_655 S
C871 C869 1.327 . S
C871 C887 1.429 . S
C871 H893 0.950 . S
C872 H868 0.949 . S
C872 C880 1.574 . S
C872 C888 1.368 1_455 S
H873 C881 0.950 . S
H874 C879 0.950 . S
H875 C880 0.949 . S
H876 C882 0.950 . S
H877 C883 0.950 . S
H878 C884 0.949 . S
C879 H874 0.950 . S
C879 C881 1.327 . S
C879 C885 1.429 . S
C880 C872 1.574 . S
C880 H875 0.949 . S
C880 C886 1.368 1_455 S
C881 C865 1.349 . S
C881 H873 0.950 . S
C881 C879 1.327 . S
C882 C870 1.349 1_455 S
C882 H876 0.950 . S
C882 C883 1.327 . S
C883 H877 0.950 . S
C883 C882 1.327 . S
C883 C887 1.429 1_455 S
C884 C867 1.574 . S
C884 H878 0.949 . S
C884 C888 1.368 . S
C885 C866 1.429 1_655 S
C885 C879 1.429 . S
C885 C886 1.523 . S
C886 C867 1.368 . S
C886 C880 1.368 1_655 S
C886 C885 1.523 . S
C887 C871 1.429 . S
C887 C883 1.429 1_655 S
C887 C888 1.523 . S
C888 C872 1.368 1_655 S
C888 C884 1.368 . S
C888 C887 1.523 . S
H889 C864 0.950 . S
H890 C866 0.950 . S
H891 C867 0.949 . S
H892 C869 0.950 . S
H893 C871 0.950 . S
C894 C895 1.349 . S
C894 C896 1.327 . S
C894 H919 0.950 . S
C895 C894 1.349 . S
C895 C911 1.349 . S
C896 C894 1.327 . S
C896 C915 1.429 . S
C896 H920 0.950 . S
C897 C914 1.574 . S
C897 C916 1.368 . S
C897 H921 0.949 . S
H898 C902 0.949 . S
C899 C900 1.349 . S
C899 C901 1.327 . S
C899 H922 0.950 . S
C900 C899 1.349 . S
C900 C912 1.349 . S
C901 C899 1.327 . S
C901 C917 1.429 . S
C901 H923 0.950 . S
C902 H898 0.949 . S
C902 C910 1.574 . S
C902 C918 1.368 . S
H903 C911 0.950 . S
H904 C909 0.950 . S
H905 C910 0.949 . S
H906 C912 0.950 . S
H907 C913 0.950 . S
H908 C914 0.949 . S
C909 H904 0.950 . S
C909 C911 1.327 . S
C909 C915 1.429 . S
C910 C902 1.574 . S
C910 H905 0.949 . S
C910 C916 1.368 . S
C911 C895 1.349 . S
C911 H903 0.950 . S
C911 C909 1.327 . S
C912 C900 1.349 . S
C912 H906 0.950 . S
C912 C913 1.327 . S
C913 H907 0.950 . S
C913 C912 1.327 . S
C913 C917 1.429 . S
C914 C897 1.574 . S
C914 H908 0.949 . S
C914 C918 1.368 . S
C915 C896 1.429 . S
C915 C909 1.429 . S
C915 C916 1.523 . S
C916 C897 1.368 . S
C916 C910 1.368 . S
C916 C915 1.523 . S
C917 C901 1.429 . S
C917 C913 1.429 . S
C917 C918 1.523 . S
C918 C902 1.368 . S
C918 C914 1.368 . S
C918 C917 1.523 . S
H919 C894 0.950 . S
H920 C896 0.950 . S
H921 C897 0.949 . S
H922 C899 0.950 . S
H923 C901 0.950 . S
C924 C925 1.349 . S
C924 C926 1.327 . S
C924 H949 0.950 . S
C925 C924 1.349 . S
C925 C941 1.349 . S
C926 C924 1.327 . S
C926 C945 1.429 . S
C926 H950 0.950 . S
C927 C944 1.574 . S
C927 C946 1.368 . S
C927 H951 0.949 . S
H928 C932 0.949 . S
C929 C930 1.349 . S
C929 C931 1.327 . S
C929 H952 0.950 . S
C930 C929 1.349 . S
C930 C942 1.349 . S
C931 C929 1.327 . S
C931 C947 1.429 . S
C931 H953 0.950 . S
C932 H928 0.949 . S
C932 C940 1.574 . S
C932 C948 1.368 . S
H933 C941 0.950 . S
H934 C939 0.950 . S
H935 C940 0.949 . S
H936 C942 0.950 . S
H937 C943 0.950 . S
H938 C944 0.949 . S
C939 H934 0.950 . S
C939 C941 1.327 . S
C939 C945 1.429 . S
C940 C932 1.574 . S
C940 H935 0.949 . S
C940 C946 1.368 . S
C941 C925 1.349 . S
C941 H933 0.950 . S
C941 C939 1.327 . S
C942 C930 1.349 . S
C942 H936 0.950 . S
C942 C943 1.327 . S
C943 H937 0.950 . S
C943 C942 1.327 . S
C943 C947 1.429 . S
C944 C927 1.574 . S
C944 H938 0.949 . S
C944 C948 1.368 . S
C945 C926 1.429 . S
C945 C939 1.429 . S
C945 C946 1.523 . S
C946 C927 1.368 . S
C946 C940 1.368 . S
C946 C945 1.523 . S
C947 C931 1.429 . S
C947 C943 1.429 . S
C947 C948 1.523 . S
C948 C932 1.368 . S
C948 C944 1.368 . S
C948 C947 1.523 . S
H949 C924 0.950 . S
H950 C926 0.950 . S
H951 C927 0.949 . S
H952 C929 0.950 . S
H953 C931 0.950 . S
C954 C955 1.349 . S
C954 C956 1.327 . S
C954 H979 0.950 . S
C955 C954 1.349 . S
C955 C971 1.349 . S
C956 C954 1.327 . S
C956 C975 1.429 . S
C956 H980 0.950 . S
C957 C974 1.574 . S
C957 C976 1.368 . S
C957 H981 0.949 . S
H958 C962 0.949 . S
C959 C960 1.349 . S
C959 C961 1.327 . S
C959 H982 0.950 . S
C960 C959 1.349 . S
C960 C972 1.349 . S
C961 C959 1.327 . S
C961 C977 1.429 . S
C961 H983 0.950 . S
C962 H958 0.949 . S
C962 C970 1.574 . S
C962 C978 1.368 . S
H963 C971 0.950 . S
H964 C969 0.950 . S
H965 C970 0.949 . S
H966 C972 0.950 . S
H967 C973 0.950 . S
H968 C974 0.949 . S
C969 H964 0.950 . S
C969 C971 1.327 . S
C969 C975 1.429 . S
C970 C962 1.574 . S
C970 H965 0.949 . S
C970 C976 1.368 . S
C971 C955 1.349 . S
C971 H963 0.950 . S
C971 C969 1.327 . S
C972 C960 1.349 . S
C972 H966 0.950 . S
C972 C973 1.327 . S
C973 H967 0.950 . S
C973 C972 1.327 . S
C973 C977 1.429 . S
C974 C957 1.574 . S
C974 H968 0.949 . S
C974 C978 1.368 . S
C975 C956 1.429 . S
C975 C969 1.429 . S
C975 C976 1.523 . S
C976 C957 1.368 . S
C976 C970 1.368 . S
C976 C975 1.523 . S
C977 C961 1.429 . S
C977 C973 1.429 . S
C977 C978 1.523 . S
C978 C962 1.368 . S
C978 C974 1.368 . S
C978 C977 1.523 . S
H979 C954 0.950 . S
H980 C956 0.950 . S
H981 C957 0.949 . S
H982 C959 0.950 . S
H983 C961 0.950 . S
C265 C82 1.740 . S
C270 C113 1.713 . S
C300 C153 1.314 . S
C295 C95 1.233 . S
C330 C202 1.301 . S
C325 C56 1.328 . S
C360 C233 1.542 . S
C355 C69 1.556 . S
C390 C122 1.713 1_565 S
C385 C30 1.643 . S
C415 C43 1.280 . S
C420 C162 1.314 . S
C445 C4 1.284 . S
C450 C193 1.300 . S
C475 C17 1.540 1_655 S
C480 C242 1.542 . S
C510 C123 0.715 . S
C505 C74 0.724 . S
C540 C163 1.321 . S
C535 C87 1.206 . S
C570 C199 0.615 . S
C565 C100 0.622 . S
C595 C61 0.872 . S
C600 C243 0.916 . S
C625 C22 0.725 . S
C630 C114 0.716 . S
C660 C154 1.290 1_565 S
C655 C35 1.201 . S
C690 C190 0.614 . S
C685 C48 0.621 . S
C715 C9 0.870 . S
C720 C234 0.916 . S
C745 C73 1.622 . S
C750 C119 1.659 . S
C775 C86 1.397 . S
C780 C159 1.411 . S
C810 C203 1.928 . S
C805 C99 1.799 . S
C840 C239 1.428 . S
C835 C60 1.420 . S
C865 C21 1.622 . S
C870 C110 1.659 . S
C900 C150 1.411 . S
C895 C34 1.393 . S
C930 C194 1.928 . S
C925 C47 1.806 . S
C955 C8 1.418 . S
C960 C230 1.426 . S
