# Generated by pormake.
# Topology ptr, (4,4)-cn, num edge types: 1
# Building blocks:
#     Node 0, Type 0, BuildingBlock: CEKHIL_clean_sbu_0, # of connection points: 4
#     Node 1, Type 0, BuildingBlock: CEKHIL_clean_sbu_0, # of connection points: 4
#     Node 2, Type 0, BuildingBlock: CEKHIL_clean_sbu_0, # of connection points: 4
#     Node 3, Type 0, BuildingBlock: CEKHIL_clean_sbu_0, # of connection points: 4
#     Node 4, Type 0, BuildingBlock: CEKHIL_clean_sbu_0, # of connection points: 4
#     Node 5, Type 0, BuildingBlock: CEKHIL_clean_sbu_0, # of connection points: 4
#     Node 6, Type 0, BuildingBlock: CEKHIL_clean_sbu_0, # of connection points: 4
#     Node 7, Type 0, BuildingBlock: CEKHIL_clean_sbu_0, # of connection points: 4
#     Node 8, Type 0, BuildingBlock: CEKHIL_clean_sbu_0, # of connection points: 4
#     Node 9, Type 0, BuildingBlock: CEKHIL_clean_sbu_0, # of connection points: 4
#     Node 10, Type 0, BuildingBlock: CEKHIL_clean_sbu_0, # of connection points: 4
#     Node 11, Type 0, BuildingBlock: CEKHIL_clean_sbu_0, # of connection points: 4
#     Node 12, Type 0, BuildingBlock: CEKHIL_clean_sbu_0, # of connection points: 4
#     Node 13, Type 0, BuildingBlock: CEKHIL_clean_sbu_0, # of connection points: 4
#     Node 14, Type 0, BuildingBlock: CEKHIL_clean_sbu_0, # of connection points: 4
#     Node 15, Type 0, BuildingBlock: CEKHIL_clean_sbu_0, # of connection points: 4
#     Node 16, Type 0, BuildingBlock: CEKHIL_clean_sbu_0, # of connection points: 4
#     Node 17, Type 0, BuildingBlock: CEKHIL_clean_sbu_0, # of connection points: 4
#     Node 18, Type 1, BuildingBlock: MUDLON_clean_linker_0, # of connection points: 4
#     Node 19, Type 1, BuildingBlock: MUDLON_clean_linker_0, # of connection points: 4
#     Node 20, Type 1, BuildingBlock: MUDLON_clean_linker_0, # of connection points: 4
#     Node 21, Type 1, BuildingBlock: MUDLON_clean_linker_0, # of connection points: 4
#     Node 22, Type 1, BuildingBlock: MUDLON_clean_linker_0, # of connection points: 4
#     Node 23, Type 1, BuildingBlock: MUDLON_clean_linker_0, # of connection points: 4
#     Node 24, Type 1, BuildingBlock: MUDLON_clean_linker_0, # of connection points: 4
#     Node 25, Type 1, BuildingBlock: MUDLON_clean_linker_0, # of connection points: 4
#     Node 26, Type 1, BuildingBlock: MUDLON_clean_linker_0, # of connection points: 4
#     Node 27, Type 1, BuildingBlock: MUDLON_clean_linker_0, # of connection points: 4
#     Node 28, Type 1, BuildingBlock: MUDLON_clean_linker_0, # of connection points: 4
#     Node 29, Type 1, BuildingBlock: MUDLON_clean_linker_0, # of connection points: 4
#     Node 30, Type 1, BuildingBlock: MUDLON_clean_linker_0, # of connection points: 4
#     Node 31, Type 1, BuildingBlock: MUDLON_clean_linker_0, # of connection points: 4
#     Node 32, Type 1, BuildingBlock: MUDLON_clean_linker_0, # of connection points: 4
#     Node 33, Type 1, BuildingBlock: MUDLON_clean_linker_0, # of connection points: 4
#     Node 34, Type 1, BuildingBlock: MUDLON_clean_linker_0, # of connection points: 4
#     Node 35, Type 1, BuildingBlock: MUDLON_clean_linker_0, # of connection points: 4
#     Edge 36, Type (0, 1), BuildingBlock: ZUJKAS_clean_linker_0, # of connection points: 2
#     Edge 37, Type (0, 1), BuildingBlock: ZUJKAS_clean_linker_0, # of connection points: 2
#     Edge 38, Type (0, 1), BuildingBlock: ZUJKAS_clean_linker_0, # of connection points: 2
#     Edge 39, Type (0, 1), BuildingBlock: ZUJKAS_clean_linker_0, # of connection points: 2
#     Edge 40, Type (0, 1), BuildingBlock: ZUJKAS_clean_linker_0, # of connection points: 2
#     Edge 41, Type (0, 1), BuildingBlock: ZUJKAS_clean_linker_0, # of connection points: 2
#     Edge 42, Type (0, 1), BuildingBlock: ZUJKAS_clean_linker_0, # of connection points: 2
#     Edge 43, Type (0, 1), BuildingBlock: ZUJKAS_clean_linker_0, # of connection points: 2
#     Edge 44, Type (0, 1), BuildingBlock: ZUJKAS_clean_linker_0, # of connection points: 2
#     Edge 45, Type (0, 1), BuildingBlock: ZUJKAS_clean_linker_0, # of connection points: 2
#     Edge 46, Type (0, 1), BuildingBlock: ZUJKAS_clean_linker_0, # of connection points: 2
#     Edge 47, Type (0, 1), BuildingBlock: ZUJKAS_clean_linker_0, # of connection points: 2
#     Edge 48, Type (0, 1), BuildingBlock: ZUJKAS_clean_linker_0, # of connection points: 2
#     Edge 49, Type (0, 1), BuildingBlock: ZUJKAS_clean_linker_0, # of connection points: 2
#     Edge 50, Type (0, 1), BuildingBlock: ZUJKAS_clean_linker_0, # of connection points: 2
#     Edge 51, Type (0, 1), BuildingBlock: ZUJKAS_clean_linker_0, # of connection points: 2
#     Edge 52, Type (0, 1), BuildingBlock: ZUJKAS_clean_linker_0, # of connection points: 2
#     Edge 53, Type (0, 1), BuildingBlock: ZUJKAS_clean_linker_0, # of connection points: 2
#     Edge 54, Type (0, 1), BuildingBlock: ZUJKAS_clean_linker_0, # of connection points: 2
#     Edge 55, Type (0, 1), BuildingBlock: ZUJKAS_clean_linker_0, # of connection points: 2
#     Edge 56, Type (0, 1), BuildingBlock: ZUJKAS_clean_linker_0, # of connection points: 2
#     Edge 57, Type (0, 1), BuildingBlock: ZUJKAS_clean_linker_0, # of connection points: 2
#     Edge 58, Type (0, 1), BuildingBlock: ZUJKAS_clean_linker_0, # of connection points: 2
#     Edge 59, Type (0, 1), BuildingBlock: ZUJKAS_clean_linker_0, # of connection points: 2
#     Edge 60, Type (0, 1), BuildingBlock: ZUJKAS_clean_linker_0, # of connection points: 2
#     Edge 61, Type (0, 1), BuildingBlock: ZUJKAS_clean_linker_0, # of connection points: 2
#     Edge 62, Type (0, 1), BuildingBlock: ZUJKAS_clean_linker_0, # of connection points: 2
#     Edge 63, Type (0, 1), BuildingBlock: ZUJKAS_clean_linker_0, # of connection points: 2
#     Edge 64, Type (0, 1), BuildingBlock: ZUJKAS_clean_linker_0, # of connection points: 2
#     Edge 65, Type (0, 1), BuildingBlock: ZUJKAS_clean_linker_0, # of connection points: 2
#     Edge 66, Type (0, 1), BuildingBlock: ZUJKAS_clean_linker_0, # of connection points: 2
#     Edge 67, Type (0, 1), BuildingBlock: ZUJKAS_clean_linker_0, # of connection points: 2
#     Edge 68, Type (0, 1), BuildingBlock: ZUJKAS_clean_linker_0, # of connection points: 2
#     Edge 69, Type (0, 1), BuildingBlock: ZUJKAS_clean_linker_0, # of connection points: 2
#     Edge 70, Type (0, 1), BuildingBlock: ZUJKAS_clean_linker_0, # of connection points: 2
#     Edge 71, Type (0, 1), BuildingBlock: ZUJKAS_clean_linker_0, # of connection points: 2
#     Edge 72, Type (0, 1), BuildingBlock: ZUJKAS_clean_linker_0, # of connection points: 2
#     Edge 73, Type (0, 1), BuildingBlock: ZUJKAS_clean_linker_0, # of connection points: 2
#     Edge 74, Type (0, 1), BuildingBlock: ZUJKAS_clean_linker_0, # of connection points: 2
#     Edge 75, Type (0, 1), BuildingBlock: ZUJKAS_clean_linker_0, # of connection points: 2
#     Edge 76, Type (0, 1), BuildingBlock: ZUJKAS_clean_linker_0, # of connection points: 2
#     Edge 77, Type (0, 1), BuildingBlock: ZUJKAS_clean_linker_0, # of connection points: 2
#     Edge 78, Type (0, 1), BuildingBlock: ZUJKAS_clean_linker_0, # of connection points: 2
#     Edge 79, Type (0, 1), BuildingBlock: ZUJKAS_clean_linker_0, # of connection points: 2
#     Edge 80, Type (0, 1), BuildingBlock: ZUJKAS_clean_linker_0, # of connection points: 2
#     Edge 81, Type (0, 1), BuildingBlock: ZUJKAS_clean_linker_0, # of connection points: 2
#     Edge 82, Type (0, 1), BuildingBlock: ZUJKAS_clean_linker_0, # of connection points: 2
#     Edge 83, Type (0, 1), BuildingBlock: ZUJKAS_clean_linker_0, # of connection points: 2
#     Edge 84, Type (0, 1), BuildingBlock: ZUJKAS_clean_linker_0, # of connection points: 2
#     Edge 85, Type (0, 1), BuildingBlock: ZUJKAS_clean_linker_0, # of connection points: 2
#     Edge 86, Type (0, 1), BuildingBlock: ZUJKAS_clean_linker_0, # of connection points: 2
#     Edge 87, Type (0, 1), BuildingBlock: ZUJKAS_clean_linker_0, # of connection points: 2
#     Edge 88, Type (0, 1), BuildingBlock: ZUJKAS_clean_linker_0, # of connection points: 2
#     Edge 89, Type (0, 1), BuildingBlock: ZUJKAS_clean_linker_0, # of connection points: 2
#     Edge 90, Type (0, 1), BuildingBlock: ZUJKAS_clean_linker_0, # of connection points: 2
#     Edge 91, Type (0, 1), BuildingBlock: ZUJKAS_clean_linker_0, # of connection points: 2
#     Edge 92, Type (0, 1), BuildingBlock: ZUJKAS_clean_linker_0, # of connection points: 2
#     Edge 93, Type (0, 1), BuildingBlock: ZUJKAS_clean_linker_0, # of connection points: 2
#     Edge 94, Type (0, 1), BuildingBlock: ZUJKAS_clean_linker_0, # of connection points: 2
#     Edge 95, Type (0, 1), BuildingBlock: ZUJKAS_clean_linker_0, # of connection points: 2
#     Edge 96, Type (0, 1), BuildingBlock: ZUJKAS_clean_linker_0, # of connection points: 2
#     Edge 97, Type (0, 1), BuildingBlock: ZUJKAS_clean_linker_0, # of connection points: 2
#     Edge 98, Type (0, 1), BuildingBlock: ZUJKAS_clean_linker_0, # of connection points: 2
#     Edge 99, Type (0, 1), BuildingBlock: ZUJKAS_clean_linker_0, # of connection points: 2
#     Edge 100, Type (0, 1), BuildingBlock: ZUJKAS_clean_linker_0, # of connection points: 2
#     Edge 101, Type (0, 1), BuildingBlock: ZUJKAS_clean_linker_0, # of connection points: 2
#     Edge 102, Type (0, 1), BuildingBlock: ZUJKAS_clean_linker_0, # of connection points: 2
#     Edge 103, Type (0, 1), BuildingBlock: ZUJKAS_clean_linker_0, # of connection points: 2
#     Edge 104, Type (0, 1), BuildingBlock: ZUJKAS_clean_linker_0, # of connection points: 2
#     Edge 105, Type (0, 1), BuildingBlock: ZUJKAS_clean_linker_0, # of connection points: 2
#     Edge 106, Type (0, 1), BuildingBlock: ZUJKAS_clean_linker_0, # of connection points: 2
#     Edge 107, Type (0, 1), BuildingBlock: ZUJKAS_clean_linker_0, # of connection points: 2
# Relax obj value: 0.034
# Max RMSD: 0.095
# Mean RMSD: 0.063
data_MOF--net-ptr--node1-CEKHIL_clean_sbu_0--node2-MUDLON_clean_linker_0--edge1-ZUJKAS_clean_linker_0
_symmetry_space_group_name_H-M    P1
_symmetry_Int_Tables_number       1
_symmetry_cell_setting            triclinic
loop_
_symmetry_equiv_pos_as_xyz
'x, y, z'
_cell_length_a     128.4756
_cell_length_b     127.31559
_cell_length_c     78.594835
_cell_angle_alpha  90.766654
_cell_angle_beta   89.613874
_cell_angle_gamma 120.8293
loop_
_atom_site_label
_atom_site_type_symbol
_atom_site_fract_x
_atom_site_fract_y
_atom_site_fract_z
_atom_type_partial_charge
Co0 Co 0.00431 0.35643 0.01537 0.0
O1 O 0.00987 0.34923 0.03163 0.0
O2 O 0.02187 0.36531 0.01588 0.0
C3 C 0.99051 0.33863 0.00293 0.0
O4 O 0.00197 0.36616 0.99694 0.0
Co5 Co 0.97769 0.35049 0.01533 0.0
O6 O 0.98212 0.35907 0.99323 0.0
C7 C 0.99477 0.36713 0.04161 0.0
C8 C 0.02079 0.35745 0.0272 0.0
C9 C 0.99316 0.36592 0.98885 0.0
O10 O 0.00369 0.36732 0.03374 0.0
O11 O 0.98369 0.36021 0.03708 0.0
O12 O 0.00183 0.34399 0.99844 0.0
O13 O 0.98808 0.34365 0.01551 0.0
Co14 Co 0.65027 0.64915 0.01361 0.0
O15 O 0.66271 0.65697 0.99662 0.0
O16 O 0.65944 0.64098 0.01171 0.0
C17 C 0.65397 0.66657 0.0268 0.0
O18 O 0.63883 0.6389 0.03259 0.0
Co19 Co 0.62865 0.65341 0.01601 0.0
O20 O 0.62492 0.64426 0.03759 0.0
C21 C 0.62921 0.63755 0.98871 0.0
C22 C 0.66588 0.64908 0.0003 0.0
C23 C 0.62993 0.63814 0.04125 0.0
O24 O 0.63844 0.63797 0.99575 0.0
O25 O 0.62465 0.64389 0.99402 0.0
O26 O 0.66045 0.66171 0.03023 0.0
O27 O 0.64614 0.66132 0.0147 0.0
Co28 Co 0.35666 0.00389 0.01341 0.0
O29 O 0.34929 0.00918 0.99708 0.0
O30 O 0.36546 0.02159 0.0125 0.0
C31 C 0.33911 0.99014 0.02601 0.0
O32 O 0.36654 0.00187 0.03194 0.0
Co33 Co 0.35081 0.97704 0.01382 0.0
O34 O 0.35953 0.98189 0.03589 0.0
C35 C 0.36703 0.99385 0.98735 0.0
C36 C 0.35749 0.02029 0.00124 0.0
C37 C 0.36636 0.99309 0.04015 0.0
O38 O 0.36724 0.00295 0.99506 0.0
O39 O 0.36027 0.98274 0.99205 0.0
O40 O 0.34447 0.00164 0.03032 0.0
O41 O 0.34401 0.98751 0.01356 0.0
Co42 Co 1.00044 0.64987 0.01061 0.0
O43 O 0.99498 0.65721 0.99446 0.0
O44 O 0.98288 0.64108 0.01002 0.0
C45 C 0.01443 0.66754 0.02318 0.0
O46 O 0.00275 0.6401 0.02901 0.0
Co47 Co 0.027 0.65551 0.00983 0.0
O48 O 0.02261 0.64683 0.03185 0.0
C49 C 0.00953 0.63875 0.98416 0.0
C50 C 0.98402 0.649 0.99876 0.0
C51 C 0.01164 0.64019 0.03667 0.0
O52 O 1.00083 0.63883 0.99227 0.0
O53 O 0.0207 0.64559 0.98827 0.0
O54 O 0.00309 0.66237 0.02754 0.0
O55 O 0.01672 0.66249 0.0105 0.0
Co56 Co 0.35413 0.35489 0.01277 0.0
O57 O 0.34178 0.34673 0.02976 0.0
O58 O 0.34494 0.36298 0.01545 0.0
C59 C 0.35041 0.33768 0.9989 0.0
O60 O 0.36551 0.36549 0.99396 0.0
Co61 Co 0.3757 0.3505 0.00923 0.0
O62 O 0.37927 0.36006 0.98807 0.0
C63 C 0.3753 0.36591 0.03741 0.0
C64 C 0.33855 0.35465 0.02663 0.0
C65 C 0.37434 0.36634 0.985 0.0
O66 O 0.36608 0.36575 0.03077 0.0
O67 O 0.3797 0.35956 0.03156 0.0
O68 O 0.34387 0.34254 0.99587 0.0
O69 O 0.35829 0.34279 0.01095 0.0
Co70 Co 0.64629 0.99932 0.01428 0.0
O71 O 0.65335 0.99367 0.03066 0.0
O72 O 0.63755 0.98161 0.0144 0.0
C73 C 0.66402 0.01343 0.00243 0.0
O74 O 0.63678 0.00169 0.99555 0.0
Co75 Co 0.65196 0.02613 0.01476 0.0
O76 O 0.64364 0.02171 0.99238 0.0
C77 C 0.63511 0.00864 0.04015 0.0
C78 C 0.64527 0.98265 0.02591 0.0
C79 C 0.63699 0.01059 0.98763 0.0
O80 O 0.63524 0.99976 0.0323 0.0
O81 O 0.64191 0.01986 0.03595 0.0
O82 O 0.65884 0.00201 0.99778 0.0
O83 O 0.65887 0.01576 0.01488 0.0
Co84 Co 0.66939 0.68939 0.34661 0.0
O85 O 0.67416 0.68156 0.36304 0.0
O86 O 0.6869 0.69765 0.34786 0.0
C87 C 0.65531 0.67191 0.33365 0.0
O88 O 0.668 0.69969 0.3281 0.0
Co89 Co 0.64316 0.68459 0.34525 0.0
O90 O 0.64846 0.69364 0.32356 0.0
C91 C 0.66 0.70063 0.37225 0.0
C92 C 0.68529 0.68951 0.35906 0.0
C93 C 0.65965 0.70012 0.31972 0.0
O94 O 0.66889 0.70037 0.36499 0.0
O95 O 0.64902 0.69418 0.3671 0.0
O96 O 0.66669 0.67689 0.32959 0.0
O97 O 0.65297 0.67711 0.34606 0.0
Co98 Co 0.31399 0.98069 0.34912 0.0
O99 O 0.32664 0.98839 0.33234 0.0
O100 O 0.32261 0.972 0.34702 0.0
C101 C 0.31817 0.99817 0.36264 0.0
O102 O 0.30227 0.97037 0.36781 0.0
Co103 Co 0.29292 0.98574 0.3524 0.0
O104 O 0.28948 0.97693 0.37426 0.0
C105 C 0.29259 0.96951 0.32476 0.0
C106 C 0.32933 0.98012 0.33581 0.0
C107 C 0.29389 0.97016 0.37712 0.0
O108 O 0.30207 0.97001 0.33102 0.0
O109 O 0.28811 0.97576 0.33075 0.0
O110 O 0.32431 0.99292 0.36607 0.0
O111 O 0.31034 0.9932 0.3505 0.0
Co112 Co 0.02564 0.33805 0.3477 0.0
O113 O 0.01857 0.34354 0.33107 0.0
O114 O 0.03475 0.35572 0.34666 0.0
C115 C 0.00797 0.32457 0.36035 0.0
O116 O 0.03533 0.33598 0.36645 0.0
Co117 Co 0.01933 0.31103 0.34867 0.0
O118 O 0.02955 0.31618 0.3694 0.0
C119 C 0.03513 0.32731 0.32153 0.0
C120 C 0.02695 0.35459 0.33522 0.0
C121 C 0.03594 0.32738 0.37393 0.0
O122 O 0.03609 0.33669 0.32947 0.0
O123 O 0.02796 0.31629 0.32628 0.0
O124 O 0.01344 0.33611 0.36445 0.0
O125 O 0.01282 0.32176 0.34804 0.0
Co126 Co 0.66751 0.97909 0.34543 0.0
O127 O 0.6625 0.98645 0.32855 0.0
O128 O 0.65007 0.96985 0.34308 0.0
C129 C 0.68049 0.99677 0.35903 0.0
O130 O 0.669 0.96909 0.36432 0.0
Co131 Co 0.69417 0.98538 0.34879 0.0
O132 O 0.68856 0.9759 0.37006 0.0
C133 C 0.67869 0.96877 0.32116 0.0
C134 C 0.65146 0.97789 0.33187 0.0
C135 C 0.67732 0.96899 0.37325 0.0
O136 O 0.66935 0.96875 0.32728 0.0
O137 O 0.68939 0.97541 0.32725 0.0
O138 O 0.66895 0.99118 0.36233 0.0
O139 O 0.68365 0.99202 0.34695 0.0
Co140 Co 0.01934 0.68937 0.34836 0.0
O141 O 0.00671 0.68152 0.36506 0.0
O142 O 0.01042 0.6978 0.35035 0.0
C143 C 0.01556 0.67197 0.33491 0.0
O144 O 0.03108 0.69968 0.32965 0.0
Co145 Co 0.04064 0.68446 0.34615 0.0
O146 O 0.04479 0.69401 0.32491 0.0
C147 C 0.04007 0.70014 0.37378 0.0
C148 C 0.00379 0.68962 0.36157 0.0
C149 C 0.04002 0.70034 0.32121 0.0
O150 O 0.03114 0.70022 0.36657 0.0
O151 O 0.04434 0.69354 0.36843 0.0
O152 O 0.00918 0.67695 0.33139 0.0
O153 O 0.02324 0.67708 0.34718 0.0
Co154 Co 0.31332 0.33439 0.34784 0.0
O155 O 0.32106 0.32966 0.36441 0.0
O156 O 0.30484 0.31674 0.34945 0.0
C157 C 0.33062 0.34818 0.33471 0.0
O158 O 0.30311 0.33568 0.32916 0.0
Co159 Co 0.31842 0.36094 0.34616 0.0
O160 O 0.30937 0.35541 0.32437 0.0
C161 C 0.30264 0.34452 0.37327 0.0
C162 C 0.31297 0.31841 0.36066 0.0
C163 C 0.30282 0.34408 0.32058 0.0
O164 O 0.30269 0.3354 0.36606 0.0
O165 O 0.30912 0.35554 0.36809 0.0
O166 O 0.32547 0.33661 0.33089 0.0
O167 O 0.32569 0.35089 0.34704 0.0
Co168 Co 0.33708 0.02432 0.67896 0.0
O169 O 0.34225 0.01681 0.69532 0.0
O170 O 0.35459 0.03308 0.68013 0.0
C171 C 0.32319 0.00673 0.66602 0.0
O172 O 0.33529 0.03439 0.66052 0.0
Co173 Co 0.31066 0.019 0.67803 0.0
O174 O 0.31567 0.02815 0.65638 0.0
C175 C 0.32742 0.03503 0.705 0.0
C176 C 0.35328 0.02512 0.69143 0.0
C177 C 0.32681 0.03471 0.65233 0.0
O178 O 0.33636 0.03515 0.69734 0.0
O179 O 0.31639 0.02834 0.70012 0.0
O180 O 0.33458 0.01189 0.66193 0.0
O181 O 0.32075 0.0118 0.67851 0.0
Co182 Co 0.98261 0.31531 0.67767 0.0
O183 O 0.99575 0.32353 0.6618 0.0
O184 O 0.99209 0.3074 0.67682 0.0
C185 C 0.98544 0.33247 0.69077 0.0
O186 O 0.97035 0.30471 0.69573 0.0
Co187 Co 0.96082 0.31947 0.67777 0.0
O188 O 0.95621 0.30997 0.69909 0.0
C189 C 0.96248 0.3037 0.65123 0.0
C190 C 0.99893 0.31572 0.66588 0.0
C191 C 0.96105 0.30382 0.70344 0.0
O192 O 0.97161 0.30429 0.65888 0.0
O193 O 0.95764 0.30989 0.65602 0.0
O194 O 0.99188 0.32771 0.69509 0.0
O195 O 0.97828 0.32732 0.67798 0.0
Co196 Co 0.69195 0.66952 0.68052 0.0
O197 O 0.68415 0.67374 0.66338 0.0
O198 O 0.70043 0.6871 0.67787 0.0
C199 C 0.67463 0.65625 0.69404 0.0
O200 O 0.70225 0.66878 0.69961 0.0
Co201 Co 0.68665 0.64303 0.68443 0.0
O202 O 0.69573 0.64923 0.70607 0.0
C203 C 0.70245 0.65844 0.65645 0.0
C204 C 0.69221 0.68508 0.66662 0.0
C205 C 0.70245 0.66067 0.709 0.0
O206 O 0.7024 0.66784 0.66263 0.0
O207 O 0.69606 0.64769 0.66259 0.0
O208 O 0.6799 0.66791 0.69724 0.0
O209 O 0.67952 0.65311 0.68217 0.0
Co210 Co 0.33614 0.31597 0.67759 0.0
O211 O 0.33188 0.3238 0.66047 0.0
O212 O 0.31872 0.30748 0.6749 0.0
C213 C 0.34945 0.33343 0.69133 0.0
O214 O 0.33692 0.30562 0.69657 0.0
Co215 Co 0.3624 0.32116 0.68143 0.0
O216 O 0.35629 0.31177 0.70273 0.0
C217 C 0.34676 0.30493 0.65361 0.0
C218 C 0.32065 0.31571 0.66368 0.0
C219 C 0.34497 0.30515 0.7057 0.0
O220 O 0.33758 0.30524 0.6597 0.0
O221 O 0.35748 0.31136 0.65971 0.0
O222 O 0.33791 0.32825 0.69435 0.0
O223 O 0.35246 0.32843 0.67939 0.0
Co224 Co 0.68646 0.02287 0.6788 0.0
O225 O 0.67435 0.01575 0.69634 0.0
O226 O 0.67819 0.03192 0.68124 0.0
C227 C 0.68152 0.00497 0.66585 0.0
O228 O 0.69773 0.03258 0.65937 0.0
Co229 Co 0.70699 0.01701 0.67494 0.0
O230 O 0.71054 0.02599 0.65322 0.0
C231 C 0.70817 0.03364 0.7025 0.0
C232 C 0.67175 0.02411 0.69295 0.0
C233 C 0.70609 0.03269 0.65011 0.0
O234 O 0.69902 0.03377 0.69613 0.0
O235 O 0.712 0.02677 0.69674 0.0
O236 O 0.67546 0.01033 0.66261 0.0
O237 O 0.68971 0.01011 0.6775 0.0
Co238 Co 0.97764 0.6685 0.6787 0.0
O239 O 0.98522 0.66401 0.69595 0.0
O240 O 0.96872 0.65098 0.68157 0.0
C241 C 0.99503 0.68139 0.66497 0.0
O242 O 0.9674 0.6693 0.65961 0.0
Co243 Co 0.98336 0.69505 0.67385 0.0
O244 O 0.97433 0.68874 0.65215 0.0
C245 C 0.96765 0.68028 0.70237 0.0
C246 C 0.97685 0.65274 0.69282 0.0
C247 C 0.96736 0.67728 0.64978 0.0
O248 O 0.96746 0.67069 0.69649 0.0
O249 O 0.97414 0.6909 0.69587 0.0
O250 O 0.98956 0.66968 0.66204 0.0
O251 O 0.99029 0.68482 0.6767 0.0
H252 H 0.21801 0.34983 0.16724 0.0
N253 N 0.20525 0.33312 0.14357 0.0
H254 H 0.22717 0.34715 0.19272 0.0
H255 H 0.20101 0.31134 0.15579 0.0
H256 H 0.20982 0.30843 0.18149 0.0
H257 H 0.20351 0.31399 0.12535 0.0
H258 H 0.21805 0.31521 0.10385 0.0
H259 H 0.22286 0.35327 0.12946 0.0
H260 H 0.23737 0.35466 0.10799 0.0
H261 H 0.19956 0.34998 0.13738 0.0
H262 H 0.18398 0.31127 0.14411 0.0
H263 H 0.17934 0.34704 0.13402 0.0
H264 H 0.16363 0.3082 0.1418 0.0
H265 H 0.12436 0.34124 0.15073 0.0
H266 H 0.11537 0.34342 0.1767 0.0
H267 H 0.10029 0.30502 0.18697 0.0
H268 H 0.1091 0.30281 0.16036 0.0
H269 H 0.10148 0.30628 0.11936 0.0
H270 H 0.09245 0.31331 0.09834 0.0
H271 H 0.12363 0.3498 0.10222 0.0
H272 H 0.13276 0.34266 0.12285 0.0
H273 H 0.14228 0.34001 0.14956 0.0
H274 H 0.16239 0.34278 0.1503 0.0
H275 H 0.14902 0.30824 0.12375 0.0
N276 N 0.12155 0.31987 0.13724 0.0
H277 H 0.12861 0.30525 0.12392 0.0
C278 C 0.20882 0.33082 0.15973 0.0
C279 C 0.216 0.34074 0.17053 0.0
C280 C 0.22119 0.33916 0.1851 0.0
C281 C 0.21926 0.32756 0.18916 0.0
C282 C 0.21161 0.3175 0.17863 0.0
C283 C 0.20646 0.31913 0.16401 0.0
C284 C 0.21225 0.33357 0.129 0.0
C285 C 0.21077 0.32287 0.12137 0.0
C286 C 0.21909 0.32359 0.10915 0.0
C287 C 0.22889 0.33503 0.10429 0.0
C288 C 0.22985 0.34572 0.11129 0.0
C289 C 0.22162 0.34497 0.12357 0.0
C290 C 0.19322 0.3309 0.14121 0.0
C291 C 0.19171 0.34084 0.13823 0.0
C292 C 0.18014 0.33913 0.13646 0.0
C293 C 0.16977 0.32739 0.13787 0.0
C294 C 0.17136 0.31736 0.14049 0.0
C295 C 0.183 0.31909 0.14202 0.0
C296 C 0.11733 0.32176 0.15343 0.0
C297 C 0.11921 0.33326 0.1585 0.0
C298 C 0.11412 0.33454 0.17355 0.0
C299 C 0.10707 0.3244 0.18395 0.0
C300 C 0.10553 0.31299 0.17914 0.0
C301 C 0.11061 0.31171 0.16402 0.0
C302 C 0.1177 0.32391 0.12279 0.0
C303 C 0.1065 0.31571 0.11529 0.0
C304 C 0.10137 0.31974 0.10331 0.0
C305 C 0.10731 0.33212 0.09878 0.0
C306 C 0.11883 0.34023 0.10562 0.0
C307 C 0.12406 0.33614 0.11739 0.0
C308 C 0.13382 0.32229 0.13685 0.0
C309 C 0.14359 0.33299 0.14393 0.0
C310 C 0.1552 0.33463 0.14419 0.0
C311 C 0.15741 0.32573 0.13711 0.0
C312 C 0.14766 0.31519 0.12961 0.0
C313 C 0.13601 0.3135 0.12955 0.0
H314 H 0.7079 0.80394 0.15919 0.0
N315 N 0.69226 0.80845 0.14406 0.0
H316 H 0.70472 0.79219 0.18497 0.0
H317 H 0.6732 0.80095 0.16607 0.0
H318 H 0.67003 0.78946 0.19226 0.0
H319 H 0.6694 0.78886 0.13891 0.0
H320 H 0.66377 0.77188 0.11908 0.0
H321 H 0.7059 0.8073 0.11939 0.0
H322 H 0.70031 0.7903 0.09932 0.0
H323 H 0.70682 0.83114 0.15508 0.0
H324 H 0.67255 0.8084 0.12983 0.0
H325 H 0.70428 0.84875 0.15241 0.0
H326 H 0.67032 0.82603 0.12608 0.0
H327 H 0.69871 0.90515 0.14242 0.0
H328 H 0.69682 0.91557 0.16766 0.0
H329 H 0.66583 0.88159 0.184 0.0
H330 H 0.66769 0.87129 0.1588 0.0
H331 H 0.65962 0.87387 0.13085 0.0
H332 H 0.65013 0.88133 0.11139 0.0
H333 H 0.68421 0.90234 0.08496 0.0
H334 H 0.69359 0.89478 0.10446 0.0
H335 H 0.70366 0.88072 0.13042 0.0
H336 H 0.70532 0.86255 0.1326 0.0
H337 H 0.66642 0.84035 0.13871 0.0
N338 N 0.6839 0.88217 0.1326 0.0
H339 H 0.66487 0.85852 0.13527 0.0
C340 C 0.69084 0.80334 0.16075 0.0
C341 C 0.69974 0.80101 0.16659 0.0
C342 C 0.6979 0.79431 0.18136 0.0
C343 C 0.68708 0.7898 0.1907 0.0
C344 C 0.67838 0.79262 0.18524 0.0
C345 C 0.68022 0.7993 0.17036 0.0
C346 C 0.68811 0.7994 0.13056 0.0
C347 C 0.67613 0.78941 0.13004 0.0
C348 C 0.67291 0.7797 0.11866 0.0
C349 C 0.68162 0.77972 0.10772 0.0
C350 C 0.69344 0.78997 0.10773 0.0
C351 C 0.69662 0.79972 0.11905 0.0
C352 C 0.69003 0.81844 0.14254 0.0
C353 C 0.69879 0.82997 0.14885 0.0
C354 C 0.69736 0.84006 0.14712 0.0
C355 C 0.68718 0.83894 0.13873 0.0
C356 C 0.67825 0.82729 0.13272 0.0
C357 C 0.67958 0.81713 0.13474 0.0
C358 C 0.68346 0.88745 0.14873 0.0
C359 C 0.69165 0.89993 0.15163 0.0
C360 C 0.6905 0.90586 0.16593 0.0
C361 C 0.68112 0.89939 0.17771 0.0
C362 C 0.67318 0.88678 0.17518 0.0
C363 C 0.67427 0.88087 0.16075 0.0
C364 C 0.67736 0.88382 0.1191 0.0
C365 C 0.66495 0.87975 0.12054 0.0
C366 C 0.65956 0.88412 0.1095 0.0
C367 C 0.66646 0.89255 0.09676 0.0
C368 C 0.67861 0.8958 0.09453 0.0
C369 C 0.684 0.89148 0.10564 0.0
C370 C 0.68422 0.87104 0.13289 0.0
C371 C 0.6955 0.87189 0.13205 0.0
C372 C 0.69642 0.86148 0.13352 0.0
C373 C 0.68603 0.84992 0.13619 0.0
C374 C 0.67463 0.84904 0.13659 0.0
C375 C 0.67372 0.85948 0.13479 0.0
H376 H 0.11922 0.78701 0.15612 0.0
N377 N 0.11898 0.80704 0.1442 0.0
H378 H 0.1096 0.77582 0.18182 0.0
H379 H 0.10862 0.8133 0.16866 0.0
H380 H 0.09912 0.8022 0.19495 0.0
H381 H 0.09771 0.79986 0.12984 0.0
H382 H 0.08682 0.78312 0.10941 0.0
H383 H 0.12851 0.795 0.12683 0.0
H384 H 0.11785 0.77851 0.10602 0.0
H385 H 0.13827 0.80626 0.15818 0.0
H386 H 0.12884 0.82789 0.12725 0.0
H387 H 0.15948 0.8218 0.15619 0.0
H388 H 0.15033 0.84333 0.12428 0.0
H389 H 0.22374 0.86815 0.15837 0.0
H390 H 0.23406 0.87924 0.18448 0.0
H391 H 0.21195 0.89581 0.18586 0.0
H392 H 0.2019 0.88492 0.1598 0.0
H393 H 0.20714 0.89078 0.13094 0.0
H394 H 0.22098 0.90603 0.1108 0.0
H395 H 0.2363 0.88346 0.09906 0.0
H396 H 0.2222 0.86813 0.11902 0.0
H397 H 0.19775 0.84634 0.13894 0.0
H398 H 0.17626 0.83063 0.13826 0.0
H399 H 0.16705 0.85891 0.13903 0.0
N400 N 0.2075 0.87033 0.14056 0.0
H401 H 0.18848 0.87441 0.13851 0.0
C402 C 0.11465 0.80106 0.1604 0.0
C403 C 0.115 0.79052 0.16455 0.0
C404 C 0.10954 0.78414 0.17939 0.0
C405 C 0.10357 0.7881 0.19049 0.0
C406 C 0.10352 0.79883 0.18658 0.0
C407 C 0.10902 0.80524 0.17168 0.0
C408 C 0.11388 0.79872 0.12989 0.0
C409 C 0.10224 0.7954 0.12437 0.0
C410 C 0.09605 0.78585 0.11265 0.0
C411 C 0.10143 0.77939 0.10614 0.0
C412 C 0.11338 0.78316 0.11098 0.0
C413 C 0.11954 0.7927 0.12277 0.0
C414 C 0.1318 0.81596 0.14308 0.0
C415 C 0.14069 0.81432 0.15089 0.0
C416 C 0.15296 0.82322 0.14953 0.0
C417 C 0.15672 0.83389 0.14004 0.0
C418 C 0.14782 0.83538 0.13196 0.0
C419 C 0.13552 0.82653 0.13354 0.0
C420 C 0.21206 0.87565 0.15711 0.0
C421 C 0.221 0.87401 0.16453 0.0
C422 C 0.22685 0.88033 0.17944 0.0
C423 C 0.22388 0.88848 0.18717 0.0
C424 C 0.21457 0.88974 0.18006 0.0
C425 C 0.20872 0.88341 0.16517 0.0
C426 C 0.21364 0.87826 0.12646 0.0
C427 C 0.21319 0.88891 0.12369 0.0
C428 C 0.22123 0.89771 0.11226 0.0
C429 C 0.22985 0.89604 0.10345 0.0
C430 C 0.22971 0.88501 0.10548 0.0
C431 C 0.22168 0.87623 0.11688 0.0
C432 C 0.19476 0.86152 0.13904 0.0
C433 C 0.19105 0.84909 0.13876 0.0
C434 C 0.17875 0.84014 0.13856 0.0
C435 C 0.16983 0.84344 0.13889 0.0
C436 C 0.1736 0.85596 0.13866 0.0
C437 C 0.18594 0.86491 0.13859 0.0
H438 H 0.33619 0.21467 0.86697 0.0
N439 N 0.31451 0.19704 0.88027 0.0
H440 H 0.33889 0.2265 0.84149 0.0
H441 H 0.29793 0.19238 0.85662 0.0
H442 H 0.30052 0.20433 0.83107 0.0
H443 H 0.30028 0.20433 0.89374 0.0
H444 H 0.30605 0.22137 0.91354 0.0
H445 H 0.33608 0.20956 0.89732 0.0
H446 H 0.34194 0.22653 0.91748 0.0
H447 H 0.33277 0.19413 0.86639 0.0
H448 H 0.30212 0.17811 0.90044 0.0
H449 H 0.33541 0.17674 0.87024 0.0
H450 H 0.30516 0.16098 0.90524 0.0
H451 H 0.34484 0.12984 0.87464 0.0
H452 H 0.34798 0.12105 0.84875 0.0
H453 H 0.30934 0.10148 0.8393 0.0
H454 H 0.30632 0.10972 0.86591 0.0
H455 H 0.30779 0.10356 0.90549 0.0
H456 H 0.31297 0.09284 0.92626 0.0
H457 H 0.35042 0.12213 0.92462 0.0
H458 H 0.345 0.13299 0.90444 0.0
H459 H 0.3422 0.14705 0.88808 0.0
H460 H 0.34107 0.16569 0.88804 0.0
H461 H 0.30195 0.14353 0.8907 0.0
N462 N 0.323 0.12363 0.88878 0.0
H463 H 0.30334 0.12516 0.89164 0.0
C464 C 0.31681 0.20258 0.86371 0.0
C465 C 0.32839 0.21214 0.85903 0.0
C466 C 0.32991 0.21899 0.84451 0.0
C467 C 0.31989 0.21647 0.83439 0.0
C468 C 0.30844 0.20646 0.83854 0.0
C469 C 0.30693 0.19961 0.85309 0.0
C470 C 0.31771 0.20571 0.89407 0.0
C471 C 0.3093 0.20899 0.89919 0.0
C472 C 0.31262 0.21871 0.91055 0.0
C473 C 0.32448 0.22537 0.91705 0.0
C474 C 0.33278 0.22169 0.91252 0.0
C475 C 0.32943 0.21195 0.90112 0.0
C476 C 0.317 0.18733 0.88287 0.0
C477 C 0.32664 0.18696 0.87483 0.0
C478 C 0.32825 0.177 0.87722 0.0
C479 C 0.32042 0.16732 0.88792 0.0
C480 C 0.31118 0.16806 0.89654 0.0
C481 C 0.30945 0.17788 0.89392 0.0
C482 C 0.32529 0.12017 0.87233 0.0
C483 C 0.33707 0.12368 0.86697 0.0
C484 C 0.33885 0.11872 0.85202 0.0
C485 C 0.32889 0.11035 0.84202 0.0
C486 C 0.3172 0.10759 0.84691 0.0
C487 C 0.31543 0.11238 0.86199 0.0
C488 C 0.32599 0.11896 0.90333 0.0
C489 C 0.31704 0.1078 0.91002 0.0
C490 C 0.32006 0.10163 0.92171 0.0
C491 C 0.33217 0.10648 0.92682 0.0
C492 C 0.34101 0.11812 0.92098 0.0
C493 C 0.33793 0.12434 0.90936 0.0
C494 C 0.32282 0.13478 0.89013 0.0
C495 C 0.33344 0.14629 0.88908 0.0
C496 C 0.33274 0.15692 0.88882 0.0
C497 C 0.32141 0.15618 0.88938 0.0
C498 C 0.31086 0.14457 0.89063 0.0
C499 C 0.31159 0.13402 0.89108 0.0
H500 H 0.78475 0.12521 0.8732 0.0
N501 N 0.80265 0.12182 0.88561 0.0
H502 H 0.77368 0.11686 0.84671 0.0
H503 H 0.808 0.11108 0.86065 0.0
H504 H 0.79739 0.10322 0.83351 0.0
H505 H 0.79717 0.10074 0.89932 0.0
H506 H 0.78062 0.08852 0.91902 0.0
H507 H 0.7895 0.12987 0.90296 0.0
H508 H 0.77247 0.11749 0.92214 0.0
H509 H 0.80692 0.14341 0.87162 0.0
H510 H 0.82153 0.12783 0.90553 0.0
H511 H 0.82605 0.16275 0.87229 0.0
H512 H 0.84043 0.14747 0.90742 0.0
H513 H 0.87706 0.21496 0.86645 0.0
H514 H 0.88635 0.22596 0.8404 0.0
H515 H 0.90501 0.20591 0.83449 0.0
H516 H 0.89614 0.19544 0.86126 0.0
H517 H 0.9016 0.20332 0.90048 0.0
H518 H 0.91347 0.22013 0.92064 0.0
H519 H 0.8876 0.23199 0.91582 0.0
H520 H 0.87578 0.2152 0.89594 0.0
H521 H 0.8607 0.19868 0.88197 0.0
H522 H 0.84068 0.18062 0.88579 0.0
H523 H 0.85718 0.15847 0.89024 0.0
N524 N 0.88246 0.19945 0.88268 0.0
H525 H 0.87715 0.17676 0.88761 0.0
C526 C 0.79709 0.11856 0.86901 0.0
C527 C 0.78758 0.12045 0.86462 0.0
C528 C 0.78133 0.11577 0.84931 0.0
C529 C 0.78453 0.10922 0.83801 0.0
C530 C 0.79449 0.10796 0.84208 0.0
C531 C 0.80065 0.11253 0.85747 0.0
C532 C 0.79443 0.11608 0.89957 0.0
C533 C 0.79199 0.10454 0.90464 0.0
C534 C 0.78244 0.09754 0.91571 0.0
C535 C 0.77501 0.1019 0.92182 0.0
C536 C 0.77799 0.11385 0.91765 0.0
C537 C 0.78768 0.12092 0.90665 0.0
C538 C 0.81287 0.13401 0.88824 0.0
C539 C 0.81414 0.14419 0.87953 0.0
C540 C 0.82513 0.15536 0.88006 0.0
C541 C 0.83498 0.15668 0.88962 0.0
C542 C 0.83326 0.14673 0.89942 0.0
C543 C 0.82239 0.13552 0.89857 0.0
C544 C 0.88606 0.20448 0.86592 0.0
C545 C 0.88306 0.21284 0.85952 0.0
C546 C 0.88834 0.21908 0.84446 0.0
C547 C 0.89659 0.21697 0.83537 0.0
C548 C 0.89895 0.20801 0.84133 0.0
C549 C 0.89379 0.20191 0.85651 0.0
C550 C 0.88787 0.20801 0.8966 0.0
C551 C 0.89835 0.20937 0.90414 0.0
C552 C 0.90509 0.21896 0.91563 0.0
C553 C 0.9015 0.22742 0.91964 0.0
C554 C 0.89064 0.22567 0.91278 0.0
C555 C 0.88385 0.21602 0.90142 0.0
C556 C 0.87045 0.18907 0.88481 0.0
C557 C 0.86003 0.19 0.88414 0.0
C558 C 0.84852 0.17958 0.88612 0.0
C559 C 0.8472 0.168 0.88847 0.0
C560 C 0.85773 0.1672 0.88896 0.0
C561 C 0.86919 0.17762 0.88727 0.0
H562 H 0.80101 0.70689 0.87636 0.0
N563 N 0.80723 0.69153 0.88855 0.0
H564 H 0.78994 0.70471 0.85011 0.0
H565 H 0.80201 0.67443 0.86344 0.0
H566 H 0.79118 0.67229 0.83691 0.0
H567 H 0.78919 0.66744 0.88953 0.0
H568 H 0.77168 0.6586 0.90849 0.0
H569 H 0.80404 0.70207 0.91593 0.0
H570 H 0.78645 0.69331 0.93498 0.0
H571 H 0.829 0.70714 0.87622 0.0
H572 H 0.80928 0.6726 0.90207 0.0
H573 H 0.84717 0.7057 0.87653 0.0
H574 H 0.82753 0.67151 0.90345 0.0
H575 H 0.90407 0.70352 0.87589 0.0
H576 H 0.91294 0.70131 0.84944 0.0
H577 H 0.88041 0.66642 0.83989 0.0
H578 H 0.87183 0.66855 0.86652 0.0
H579 H 0.87575 0.66324 0.89466 0.0
H580 H 0.88516 0.65563 0.91394 0.0
H581 H 0.9075 0.69208 0.93479 0.0
H582 H 0.8982 0.69965 0.9151 0.0
H583 H 0.88097 0.70679 0.89339 0.0
H584 H 0.8624 0.70759 0.89406 0.0
H585 H 0.84131 0.66817 0.88855 0.0
N586 N 0.88313 0.68731 0.88982 0.0
H587 H 0.85993 0.66751 0.88924 0.0
C588 C 0.80233 0.69087 0.87184 0.0
C589 C 0.79907 0.69946 0.86762 0.0
C590 C 0.79278 0.6982 0.85258 0.0
C591 C 0.78961 0.68828 0.84142 0.0
C592 C 0.79332 0.67993 0.84535 0.0
C593 C 0.7996 0.68119 0.86044 0.0
C594 C 0.79793 0.68548 0.90129 0.0
C595 C 0.78878 0.6731 0.89958 0.0
C596 C 0.77874 0.66807 0.91039 0.0
C597 C 0.77762 0.67529 0.92312 0.0
C598 C 0.78709 0.68747 0.9254 0.0
C599 C 0.79713 0.6925 0.91454 0.0
C600 C 0.8177 0.69009 0.88911 0.0
C601 C 0.82861 0.69929 0.88209 0.0
C602 C 0.83904 0.6985 0.88246 0.0
C603 C 0.83895 0.68854 0.89022 0.0
C604 C 0.82798 0.67925 0.89718 0.0
C605 C 0.81746 0.67993 0.89651 0.0
C606 C 0.8873 0.68629 0.87317 0.0
C607 C 0.89881 0.6955 0.86792 0.0
C608 C 0.90383 0.69422 0.85278 0.0
C609 C 0.8974 0.68366 0.84253 0.0
C610 C 0.88568 0.67458 0.84759 0.0
C611 C 0.88069 0.67586 0.86279 0.0
C612 C 0.88636 0.68206 0.9034 0.0
C613 C 0.88242 0.66953 0.90367 0.0
C614 C 0.88782 0.66518 0.91475 0.0
C615 C 0.89722 0.67329 0.92572 0.0
C616 C 0.90045 0.68564 0.92628 0.0
C617 C 0.89508 0.68997 0.91519 0.0
C618 C 0.87187 0.68716 0.89099 0.0
C619 C 0.8723 0.69834 0.89249 0.0
C620 C 0.86165 0.69875 0.89266 0.0
C621 C 0.85026 0.68796 0.89102 0.0
C622 C 0.84986 0.67669 0.88993 0.0
C623 C 0.86055 0.67628 0.89009 0.0
H624 H 0.76404 0.63504 0.48253 0.0
N625 N 0.78543 0.65004 0.4687 0.0
H626 H 0.75577 0.63804 0.50903 0.0
H627 H 0.79777 0.6686 0.4918 0.0
H628 H 0.78961 0.67171 0.51846 0.0
H629 H 0.79301 0.67428 0.46473 0.0
H630 H 0.78425 0.68245 0.44527 0.0
H631 H 0.77083 0.63835 0.4426 0.0
H632 H 0.76193 0.64645 0.42307 0.0
H633 H 0.78874 0.63233 0.47919 0.0
H634 H 0.8079 0.66845 0.4578 0.0
H635 H 0.80751 0.63203 0.48018 0.0
H636 H 0.82659 0.66793 0.45761 0.0
H637 H 0.86743 0.63074 0.48144 0.0
H638 H 0.87846 0.63139 0.50714 0.0
H639 H 0.87861 0.66383 0.52421 0.0
H640 H 0.86779 0.66325 0.49851 0.0
H641 H 0.88054 0.67108 0.4709 0.0
H642 H 0.89811 0.6795 0.45198 0.0
H643 H 0.88191 0.64512 0.42436 0.0
H644 H 0.86445 0.63672 0.44358 0.0
H645 H 0.83972 0.62904 0.46574 0.0
H646 H 0.82126 0.62995 0.46379 0.0
H647 H 0.84215 0.66893 0.47391 0.0
N648 N 0.86207 0.64723 0.4715 0.0
H649 H 0.86061 0.66797 0.47449 0.0
C650 C 0.78145 0.65156 0.48523 0.0
C651 C 0.7697 0.64295 0.49048 0.0
C652 C 0.76503 0.64468 0.50563 0.0
C653 C 0.77204 0.65513 0.51585 0.0
C654 C 0.78396 0.66364 0.51077 0.0
C655 C 0.78865 0.66185 0.4956 0.0
C656 C 0.78254 0.65564 0.45512 0.0
C657 C 0.78647 0.66819 0.45541 0.0
C658 C 0.78138 0.67284 0.44435 0.0
C659 C 0.77228 0.66507 0.43277 0.0
C660 C 0.76898 0.6527 0.43174 0.0
C661 C 0.77405 0.64805 0.44286 0.0
C662 C 0.79679 0.65029 0.46828 0.0
C663 C 0.79699 0.64013 0.47446 0.0
C664 C 0.80776 0.63995 0.47486 0.0
C665 C 0.81865 0.6499 0.46877 0.0
C666 C 0.81845 0.66014 0.46259 0.0
C667 C 0.80767 0.6604 0.46251 0.0
C668 C 0.86667 0.64684 0.48802 0.0
C669 C 0.86962 0.63783 0.49092 0.0
C670 C 0.87598 0.63826 0.50551 0.0
C671 C 0.87942 0.64769 0.51761 0.0
C672 C 0.87597 0.6564 0.51514 0.0
C673 C 0.86975 0.65606 0.50041 0.0
C674 C 0.8712 0.65323 0.45863 0.0
C675 C 0.88061 0.66547 0.46048 0.0
C676 C 0.89066 0.67028 0.44964 0.0
C677 C 0.89147 0.66292 0.43681 0.0
C678 C 0.88164 0.65095 0.4343 0.0
C679 C 0.87162 0.64617 0.44514 0.0
C680 C 0.85148 0.64833 0.47059 0.0
C681 C 0.84026 0.63777 0.4675 0.0
C682 C 0.82971 0.63832 0.46654 0.0
C683 C 0.83008 0.6495 0.46897 0.0
C684 C 0.84143 0.66016 0.47184 0.0
C685 C 0.85204 0.65961 0.47244 0.0
H686 H 0.37432 0.13695 0.49098 0.0
N687 N 0.3591 0.14235 0.47642 0.0
H688 H 0.37119 0.1256 0.51717 0.0
H689 H 0.34107 0.13673 0.49967 0.0
H690 H 0.33797 0.12564 0.52621 0.0
H691 H 0.33562 0.12341 0.47363 0.0
H692 H 0.32846 0.10528 0.45555 0.0
H693 H 0.3711 0.13933 0.45096 0.0
H694 H 0.36399 0.12111 0.43279 0.0
H695 H 0.37375 0.16482 0.48815 0.0
H696 H 0.34006 0.14306 0.46105 0.0
H697 H 0.3716 0.18267 0.48584 0.0
H698 H 0.33826 0.16096 0.45773 0.0
H699 H 0.36812 0.23776 0.48385 0.0
H700 H 0.36536 0.24666 0.51004 0.0
H701 H 0.32994 0.21446 0.5166 0.0
H702 H 0.33267 0.20583 0.49029 0.0
H703 H 0.32831 0.20888 0.4616 0.0
H704 H 0.3211 0.21871 0.44239 0.0
H705 H 0.35778 0.24254 0.42489 0.0
H706 H 0.36493 0.23288 0.44461 0.0
H707 H 0.37178 0.21546 0.46594 0.0
H708 H 0.37322 0.19709 0.46668 0.0
H709 H 0.33418 0.17497 0.4711 0.0
N710 N 0.35209 0.217 0.46863 0.0
H711 H 0.33289 0.19337 0.46903 0.0
C712 C 0.35798 0.13768 0.49339 0.0
C713 C 0.36652 0.13474 0.49885 0.0
C714 C 0.36471 0.12827 0.51385 0.0
C715 C 0.35427 0.12462 0.52378 0.0
C716 C 0.346 0.12814 0.51873 0.0
C717 C 0.34782 0.13458 0.50365 0.0
C718 C 0.35396 0.13274 0.46367 0.0
C719 C 0.34181 0.12312 0.46451 0.0
C720 C 0.33774 0.11272 0.45424 0.0
C721 C 0.34571 0.11171 0.44292 0.0
C722 C 0.35762 0.12165 0.44131 0.0
C723 C 0.3617 0.13206 0.45165 0.0
C724 C 0.3572 0.15255 0.47477 0.0
C725 C 0.36594 0.16391 0.48158 0.0
C726 C 0.36475 0.17415 0.48006 0.0
C727 C 0.35483 0.17338 0.47135 0.0
C728 C 0.34596 0.16194 0.46466 0.0
C729 C 0.34706 0.15162 0.46646 0.0
C730 C 0.35068 0.22115 0.48513 0.0
C731 C 0.35986 0.23257 0.49113 0.0
C732 C 0.35826 0.23761 0.5061 0.0
C733 C 0.3474 0.23128 0.5154 0.0
C734 C 0.33834 0.21965 0.50962 0.0
C735 C 0.33995 0.21463 0.49461 0.0
C736 C 0.34721 0.22026 0.45462 0.0
C737 C 0.33475 0.21599 0.45332 0.0
C738 C 0.33063 0.22162 0.44227 0.0
C739 C 0.3389 0.23158 0.43233 0.0
C740 C 0.35121 0.23508 0.43264 0.0
C741 C 0.3553 0.22949 0.44373 0.0
C742 C 0.3523 0.20582 0.4677 0.0
C743 C 0.36355 0.2066 0.46684 0.0
C744 C 0.36433 0.19608 0.4675 0.0
C745 C 0.35383 0.18448 0.46934 0.0
C746 C 0.34248 0.1837 0.46963 0.0
C747 C 0.34171 0.19426 0.46866 0.0
H748 H 0.7883 0.12043 0.48849 0.0
N749 N 0.78702 0.13951 0.47487 0.0
H750 H 0.77884 0.10979 0.51459 0.0
H751 H 0.77595 0.1457 0.4982 0.0
H752 H 0.76618 0.13483 0.52455 0.0
H753 H 0.76656 0.13485 0.46022 0.0
H754 H 0.7537 0.11773 0.44115 0.0
H755 H 0.79376 0.12464 0.45873 0.0
H756 H 0.78083 0.10726 0.44024 0.0
H757 H 0.80663 0.13732 0.48349 0.0
H758 H 0.79637 0.16154 0.46141 0.0
H759 H 0.82782 0.1529 0.48092 0.0
H760 H 0.8178 0.17718 0.45807 0.0
H761 H 0.88737 0.19661 0.49175 0.0
H762 H 0.89826 0.2077 0.51756 0.0
H763 H 0.8847 0.23228 0.51162 0.0
H764 H 0.87431 0.22149 0.48572 0.0
H765 H 0.87238 0.22032 0.45575 0.0
H766 H 0.88669 0.236 0.43626 0.0
H767 H 0.90748 0.21801 0.43397 0.0
H768 H 0.89319 0.20247 0.45351 0.0
H769 H 0.86545 0.17916 0.46233 0.0
H770 H 0.84389 0.16356 0.46144 0.0
H771 H 0.835 0.19113 0.4746 0.0
N772 N 0.8754 0.20261 0.47037 0.0
H773 H 0.85645 0.20664 0.47467 0.0
C774 C 0.78303 0.13408 0.49143 0.0
C775 C 0.78388 0.12397 0.49644 0.0
C776 C 0.7784 0.11781 0.51143 0.0
C777 C 0.77177 0.12148 0.52163 0.0
C778 C 0.77119 0.13177 0.51689 0.0
C779 C 0.77683 0.13804 0.50195 0.0
C780 C 0.78104 0.131 0.46101 0.0
C781 C 0.76985 0.12905 0.45547 0.0
C782 C 0.76247 0.11918 0.44477 0.0
C783 C 0.76612 0.11096 0.43945 0.0
C784 C 0.77774 0.11341 0.44405 0.0
C785 C 0.78515 0.12336 0.4547 0.0
C786 C 0.79978 0.14829 0.47283 0.0
C787 C 0.80886 0.14594 0.47798 0.0
C788 C 0.8211 0.1549 0.47631 0.0
C789 C 0.82459 0.16635 0.46929 0.0
C790 C 0.81548 0.16856 0.4638 0.0
C791 C 0.80323 0.15961 0.46558 0.0
C792 C 0.87997 0.20811 0.48684 0.0
C793 C 0.88658 0.20424 0.49626 0.0
C794 C 0.89277 0.21059 0.511 0.0
C795 C 0.89245 0.22096 0.51657 0.0
C796 C 0.88532 0.22446 0.50752 0.0
C797 C 0.8792 0.21815 0.49277 0.0
C798 C 0.88181 0.21026 0.45616 0.0
C799 C 0.87987 0.21961 0.45078 0.0
C800 C 0.88809 0.22861 0.43969 0.0
C801 C 0.89828 0.22832 0.43369 0.0
C802 C 0.89967 0.21846 0.4382 0.0
C803 C 0.89153 0.20956 0.44935 0.0
C804 C 0.8626 0.19402 0.46874 0.0
C805 C 0.8588 0.18181 0.46481 0.0
C806 C 0.84648 0.17291 0.46447 0.0
C807 C 0.83766 0.17602 0.46819 0.0
C808 C 0.8415 0.18838 0.47155 0.0
C809 C 0.85384 0.19731 0.47175 0.0
H810 H 0.0287 0.5585 0.18401 0.0
N811 N 0.01454 0.54791 0.2107 0.0
H812 H 0.02397 0.56643 0.1589 0.0
H813 H 0.99193 0.5432 0.20159 0.0
H814 H 0.98704 0.55076 0.17644 0.0
H815 H 0.99489 0.54156 0.23118 0.0
H816 H 0.99291 0.55508 0.25172 0.0
H817 H 0.03201 0.56949 0.2219 0.0
H818 H 0.03018 0.58302 0.24252 0.0
H819 H 0.03076 0.54227 0.22037 0.0
H820 H 0.99286 0.52609 0.20848 0.0
H821 H 0.02766 0.52197 0.2256 0.0
H822 H 0.98974 0.50579 0.2129 0.0
H823 H 0.01993 0.46463 0.20919 0.0
H824 H 0.02069 0.45449 0.18332 0.0
H825 H 0.9827 0.4411 0.1745 0.0
H826 H 0.98192 0.45097 0.20106 0.0
H827 H 0.98517 0.44375 0.24184 0.0
H828 H 0.99115 0.43358 0.26252 0.0
H829 H 0.02849 0.4625 0.25754 0.0
H830 H 0.0224 0.47282 0.23728 0.0
H831 H 0.02052 0.48358 0.21259 0.0
H832 H 0.02392 0.50415 0.2105 0.0
H833 H 0.98893 0.49193 0.23353 0.0
N834 N 0.99966 0.4632 0.22348 0.0
H835 H 0.98541 0.47116 0.23487 0.0
C836 C 0.01074 0.55024 0.19468 0.0
C837 C 0.01952 0.55652 0.18217 0.0
C838 C 0.01677 0.56103 0.16783 0.0
C839 C 0.00513 0.55932 0.16573 0.0
C840 C 0.99614 0.55239 0.1778 0.0
C841 C 0.9989 0.54792 0.19215 0.0
C842 C 0.01362 0.5546 0.22495 0.0
C843 C 0.00268 0.55051 0.23378 0.0
C844 C 0.00154 0.55826 0.24546 0.0
C845 C 0.01136 0.57013 0.24864 0.0
C846 C 0.02248 0.57389 0.24048 0.0
C847 C 0.02356 0.5662 0.22871 0.0
C848 C 0.01214 0.53574 0.21383 0.0
C849 C 0.02179 0.53431 0.2188 0.0
C850 C 0.02 0.52269 0.22168 0.0
C851 C 0.00846 0.51218 0.21956 0.0
C852 C 0.99872 0.51366 0.21486 0.0
C853 C 1.00052 0.52532 0.21213 0.0
C854 C 1.00076 0.45844 0.20724 0.0
C855 C 0.01175 0.4596 0.20174 0.0
C856 C 0.01221 0.45385 0.18675 0.0
C857 C 0.00174 0.44689 0.17682 0.0
C858 C 0.99089 0.44619 0.18198 0.0
C859 C 0.99043 0.45189 0.19707 0.0
C860 C 0.00329 0.45894 0.23789 0.0
C861 C 0.99458 0.44807 0.24562 0.0
C862 C 0.99802 0.44228 0.25739 0.0
C863 C 0.0103 0.44721 0.26149 0.0
C864 C 0.01898 0.45846 0.25447 0.0
C865 C 0.01549 0.46437 0.24291 0.0
C866 C 0.00261 0.47576 0.22377 0.0
C867 C 0.0136 0.48529 0.21729 0.0
C868 C 0.01557 0.49713 0.2162 0.0
C869 C 0.00667 0.49974 0.22173 0.0
C870 C 0.99589 0.49025 0.22882 0.0
C871 C 0.9939 0.4784 0.22977 0.0
H872 H 0.57036 0.53224 0.20282 0.0
N873 N 0.55086 0.53093 0.21669 0.0
H874 H 0.58094 0.54313 0.17697 0.0
H875 H 0.54235 0.54051 0.19326 0.0
H876 H 0.55291 0.55159 0.16784 0.0
H877 H 0.54436 0.54815 0.22137 0.0
H878 H 0.5542 0.56579 0.24068 0.0
H879 H 0.56622 0.53448 0.24153 0.0
H880 H 0.57607 0.55209 0.26101 0.0
H881 H 0.54683 0.50902 0.22439 0.0
H882 H 0.52843 0.52837 0.2128 0.0
H883 H 0.52736 0.48999 0.22679 0.0
H884 H 0.50896 0.50931 0.21394 0.0
H885 H 0.46461 0.43081 0.20506 0.0
H886 H 0.45247 0.42246 0.1792 0.0
H887 H 0.45239 0.45612 0.17307 0.0
H888 H 0.46489 0.46451 0.19868 0.0
H889 H 0.45433 0.45874 0.22587 0.0
H890 H 0.43701 0.44858 0.24501 0.0
H891 H 0.45109 0.42677 0.26459 0.0
H892 H 0.46846 0.43701 0.24531 0.0
H893 H 0.49266 0.45601 0.21061 0.0
H894 H 0.51185 0.47537 0.20983 0.0
H895 H 0.49419 0.49377 0.2311 0.0
N896 N 0.47123 0.45202 0.22026 0.0
H897 H 0.47492 0.47445 0.23085 0.0
C898 C 0.55558 0.53552 0.20002 0.0
C899 C 0.56638 0.53619 0.19496 0.0
C900 C 0.57245 0.54252 0.18031 0.0
C901 C 0.56784 0.54835 0.17043 0.0
C902 C 0.55667 0.54712 0.17505 0.0
C903 C 0.5506 0.54077 0.1897 0.0
C904 C 0.55465 0.54004 0.22997 0.0
C905 C 0.55108 0.54878 0.23019 0.0
C906 C 0.55675 0.55891 0.24119 0.0
C907 C 0.56598 0.56037 0.25224 0.0
C908 C 0.56893 0.55117 0.25275 0.0
C909 C 0.56334 0.54113 0.24165 0.0
C910 C 0.53913 0.52004 0.21809 0.0
C911 C 0.53856 0.5091 0.22216 0.0
C912 C 0.52741 0.49822 0.22338 0.0
C913 C 0.51651 0.498 0.22028 0.0
C914 C 0.51711 0.50909 0.21651 0.0
C915 C 0.5283 0.52003 0.21558 0.0
C916 C 0.46558 0.4482 0.20379 0.0
C917 C 0.46215 0.43644 0.19791 0.0
C918 C 0.45511 0.43166 0.18327 0.0
C919 C 0.45128 0.43855 0.17425 0.0
C920 C 0.45521 0.45059 0.17971 0.0
C921 C 0.46232 0.45539 0.19437 0.0
C922 C 0.46272 0.44859 0.23412 0.0
C923 C 0.45393 0.45205 0.2346 0.0
C924 C 0.44395 0.44616 0.24546 0.0
C925 C 0.44261 0.43676 0.25612 0.0
C926 C 0.4519 0.43401 0.25659 0.0
C927 C 0.46184 0.43987 0.24563 0.0
C928 C 0.48238 0.46368 0.22095 0.0
C929 C 0.49297 0.46424 0.21515 0.0
C930 C 0.50396 0.47533 0.21485 0.0
C931 C 0.50468 0.4862 0.22059 0.0
C932 C 0.49401 0.48564 0.22642 0.0
C933 C 0.48294 0.47452 0.22646 0.0
H934 H 0.53795 0.98095 0.20751 0.0
N935 N 0.53989 0.00176 0.22134 0.0
H936 H 0.54753 0.9796 0.18139 0.0
H937 H 0.55117 0.01904 0.19824 0.0
H938 H 0.56044 0.0177 0.17163 0.0
H939 H 0.56071 0.01714 0.23638 0.0
H940 H 0.57222 0.01216 0.25589 0.0
H941 H 0.53107 0.97979 0.23784 0.0
H942 H 0.54235 0.97478 0.25758 0.0
H943 H 0.51921 0.97948 0.21609 0.0
H944 H 0.53259 0.01746 0.22764 0.0
H945 H 0.49855 0.97538 0.2161 0.0
H946 H 0.51197 0.01372 0.22631 0.0
H947 H 0.43689 0.9698 0.1936 0.0
H948 H 0.42959 0.97532 0.16863 0.0
H949 H 0.45814 0.01304 0.17519 0.0
H950 H 0.46535 0.00734 0.20033 0.0
H951 H 0.45614 0.00528 0.22814 0.0
H952 H 0.44259 0.00592 0.24947 0.0
H953 H 0.42462 0.96665 0.25435 0.0
H954 H 0.43845 0.96617 0.23324 0.0
H955 H 0.46463 0.97391 0.19762 0.0
H956 H 0.48527 0.97797 0.19974 0.0
H957 H 0.49299 0.00543 0.23857 0.0
N958 N 0.4546 0.98462 0.2145 0.0
H959 H 0.47266 0.00191 0.23544 0.0
C960 C 0.54398 1.00018 0.20491 0.0
C961 C 0.54271 0.98898 0.19969 0.0
C962 C 0.54817 0.9882 0.18465 0.0
C963 C 0.5549 0.99858 0.17448 0.0
C964 C 0.55557 0.00959 0.17933 0.0
C965 C 0.55019 0.01037 0.19443 0.0
C966 C 0.54505 0.99892 0.23557 0.0
C967 C 0.55653 0.00796 0.24135 0.0
C968 C 0.56309 0.00507 0.25252 0.0
C969 C 0.55827 0.99302 0.25819 0.0
C970 C 0.54643 0.98411 0.25322 0.0
C971 C 0.53988 0.98701 0.242 0.0
C972 C 0.52747 0.99877 0.22228 0.0
C973 C 0.51771 0.98693 0.21886 0.0
C974 C 0.50584 0.98465 0.21852 0.0
C975 C 0.50347 0.99422 0.22107 0.0
C976 C 0.51331 0.00604 0.22459 0.0
C977 C 0.52514 0.00824 0.22528 0.0
C978 C 0.4516 0.98811 0.19876 0.0
C979 C 0.44168 0.9792 0.18944 0.0
C980 C 0.43757 0.9824 0.17516 0.0
C981 C 0.44329 0.99464 0.1699 0.0
C982 C 0.45348 0.00356 0.17902 0.0
C983 C 0.45764 1.00032 0.19331 0.0
C984 C 0.4483 0.98563 0.22912 0.0
C985 C 0.44948 0.99684 0.23408 0.0
C986 C 0.44165 0.99718 0.2462 0.0
C987 C 0.43241 0.98632 0.25349 0.0
C988 C 0.43169 0.97521 0.24915 0.0
C989 C 0.43957 0.97489 0.23707 0.0
C990 C 0.46697 0.98749 0.21635 0.0
C991 C 0.47082 0.98086 0.20652 0.0
C992 C 0.48262 0.9831 0.20792 0.0
C993 C 0.49088 0.99194 0.21951 0.0
C994 C 0.487 0.99865 0.22935 0.0
C995 C 0.47524 0.99655 0.22767 0.0
H996 H 0.4439 0.97842 0.82597 0.0
N997 N 0.4597 0.99612 0.80589 0.0
H998 H 0.43469 0.98071 0.85209 0.0
H999 H 0.46642 0.01761 0.82266 0.0
H1000 H 0.45743 0.02 0.84876 0.0
H1001 H 0.4684 0.01892 0.79292 0.0
H1002 H 0.45738 0.02471 0.77352 0.0
H1003 H 0.44077 0.98101 0.78696 0.0
H1004 H 0.43002 0.98654 0.76682 0.0
H1005 H 0.46254 0.97799 0.79501 0.0
H1006 H 0.48243 0.01517 0.81355 0.0
H1007 H 0.48112 0.9772 0.7947 0.0
H1008 H 0.50099 0.01431 0.81433 0.0
H1009 H 0.5385 0.97366 0.82178 0.0
H1010 H 0.54964 0.97517 0.84765 0.0
H1011 H 0.55312 0.0101 0.85945 0.0
H1012 H 0.54214 0.00856 0.83326 0.0
H1013 H 0.55386 0.0138 0.80624 0.0
H1014 H 0.57063 0.0206 0.78625 0.0
H1015 H 0.55224 0.98502 0.76175 0.0
H1016 H 0.53551 0.97822 0.78209 0.0
H1017 H 0.51174 0.97365 0.81546 0.0
H1018 H 0.49387 0.97564 0.81421 0.0
H1019 H 0.51646 0.01337 0.79922 0.0
N1020 N 0.53452 0.99045 0.80907 0.0
H1021 H 0.53432 0.01145 0.8015 0.0
C1022 C 0.45582 0.99779 0.82239 0.0
C1023 C 0.44704 0.9875 0.83112 0.0
C1024 C 0.44182 0.98883 0.84602 0.0
C1025 C 0.44529 0.00055 0.85243 0.0
C1026 C 0.45446 0.01086 0.84402 0.0
C1027 C 0.45969 0.0095 0.82914 0.0
C1028 C 0.45522 0.99954 0.79159 0.0
C1029 C 0.46011 0.01183 0.78709 0.0
C1030 C 0.45383 0.0151 0.77589 0.0
C1031 C 0.44264 0.00611 0.7689 0.0
C1032 C 0.43841 0.99374 0.77233 0.0
C1033 C 0.4446 0.99052 0.78365 0.0
C1034 C 0.47106 0.99653 0.80449 0.0
C1035 C 0.47096 0.98599 0.799 0.0
C1036 C 0.48159 0.98553 0.79905 0.0
C1037 C 0.49257 0.9956 0.80486 0.0
C1038 C 0.49274 0.00638 0.80974 0.0
C1039 C 0.48209 0.00687 0.80944 0.0
C1040 C 0.53949 0.99095 0.82563 0.0
C1041 C 0.54148 0.98152 0.83016 0.0
C1042 C 0.54782 0.9824 0.84497 0.0
C1043 C 0.55233 0.99279 0.85563 0.0
C1044 C 0.54991 0.00206 0.8514 0.0
C1045 C 0.54356 0.00115 0.83652 0.0
C1046 C 0.5434 0.99545 0.79565 0.0
C1047 C 0.55327 0.00754 0.79634 0.0
C1048 C 0.56287 0.01144 0.78484 0.0
C1049 C 0.56282 0.00331 0.77251 0.0
C1050 C 0.55262 0.99144 0.77126 0.0
C1051 C 0.54302 0.98757 0.78274 0.0
C1052 C 0.52434 0.99228 0.80836 0.0
C1053 C 0.51281 0.98235 0.81197 0.0
C1054 C 0.50259 0.9835 0.81106 0.0
C1055 C 0.50363 0.99462 0.80629 0.0
C1056 C 0.51527 0.00468 0.80299 0.0
C1057 C 0.52554 0.00356 0.80415 0.0
H1058 H 0.96625 0.52926 0.8268 0.0
N1059 N 0.98331 0.53061 0.80617 0.0
H1060 H 0.96902 0.54175 0.85221 0.0
H1061 H 0.00501 0.54654 0.82156 0.0
H1062 H 0.00786 0.55865 0.84712 0.0
H1063 H 0.00375 0.54953 0.79178 0.0
H1064 H 0.00421 0.56397 0.77132 0.0
H1065 H 0.9648 0.52831 0.78846 0.0
H1066 H 0.9651 0.54291 0.76832 0.0
H1067 H 0.9684 0.50661 0.80669 0.0
H1068 H 0.00619 0.53414 0.80196 0.0
H1069 H 0.97364 0.49067 0.80657 0.0
H1070 H 0.01161 0.51851 0.80306 0.0
H1071 H 0.98764 0.44871 0.82855 0.0
H1072 H 0.98778 0.4384 0.85422 0.0
H1073 H 0.02618 0.4639 0.85993 0.0
H1074 H 0.02598 0.47424 0.8339 0.0
H1075 H 0.02314 0.46375 0.7953 0.0
H1076 H 0.01849 0.44701 0.77522 0.0
H1077 H 0.98034 0.43437 0.77972 0.0
H1078 H 0.9851 0.45136 0.79944 0.0
H1079 H 0.98759 0.46697 0.82715 0.0
H1080 H 0.98191 0.48227 0.82413 0.0
H1081 H 0.01191 0.50232 0.78956 0.0
N1082 N 0.0075 0.46742 0.81267 0.0
H1083 H 0.01799 0.48722 0.79357 0.0
C1084 C 0.98535 0.53686 0.82231 0.0
C1085 C 0.97534 0.53553 0.83139 0.0
C1086 C 0.97695 0.54265 0.84592 0.0
C1087 C 0.98868 0.55127 0.85167 0.0
C1088 C 0.99871 0.55225 0.84289 0.0
C1089 C 0.99708 0.54518 0.82831 0.0
C1090 C 0.98419 0.53775 0.7916 0.0
C1091 C 0.9953 0.54776 0.78633 0.0
C1092 C 0.99554 0.55614 0.77475 0.0
C1093 C 0.98469 0.55472 0.76831 0.0
C1094 C 0.97365 0.54426 0.77284 0.0
C1095 C 0.97344 0.53589 0.78435 0.0
C1096 C 0.98684 0.52157 0.80457 0.0
C1097 C 0.97783 0.5092 0.80564 0.0
C1098 C 0.98088 0.50012 0.80578 0.0
C1099 C 0.99309 0.50324 0.80508 0.0
C1100 C 0.0021 0.51567 0.80347 0.0
C1101 C 0.99901 0.52472 0.80306 0.0
C1102 C 0.00684 0.46239 0.82929 0.0
C1103 C 0.99606 0.45233 0.83545 0.0
C1104 C 0.99614 0.44641 0.85023 0.0
C1105 C 0.007 0.4503 0.8591 0.0
C1106 C 0.01769 0.46062 0.85328 0.0
C1107 C 0.01757 0.4666 0.83854 0.0
C1108 C 0.0045 0.45872 0.79895 0.0
C1109 C 0.01381 0.45753 0.79159 0.0
C1110 C 0.01114 0.44799 0.78016 0.0
C1111 C 0.99905 0.43936 0.77605 0.0
C1112 C 0.98972 0.44085 0.78283 0.0
C1113 C 0.99243 0.45054 0.79407 0.0
C1114 C 0.00343 0.47602 0.8108 0.0
C1115 C 0.99304 0.47464 0.81901 0.0
C1116 C 0.98968 0.48342 0.81708 0.0
C1117 C 0.99644 0.49365 0.80662 0.0
C1118 C 0.00661 0.49477 0.79803 0.0
C1119 C 0.01007 0.4861 0.8002 0.0
H1120 H 0.45447 0.45433 0.82129 0.0
N1121 N 0.45417 0.47442 0.80971 0.0
H1122 H 0.44403 0.44239 0.84619 0.0
H1123 H 0.44298 0.47993 0.83379 0.0
H1124 H 0.4322 0.46777 0.8588 0.0
H1125 H 0.4332 0.46816 0.79511 0.0
H1126 H 0.42184 0.45144 0.77484 0.0
H1127 H 0.4632 0.46204 0.79207 0.0
H1128 H 0.45205 0.44552 0.77142 0.0
H1129 H 0.47308 0.47338 0.82475 0.0
H1130 H 0.46462 0.49504 0.79222 0.0
H1131 H 0.49437 0.48855 0.82303 0.0
H1132 H 0.48624 0.5101 0.78956 0.0
H1133 H 0.56194 0.53702 0.82188 0.0
H1134 H 0.57238 0.54803 0.84788 0.0
H1135 H 0.54518 0.55796 0.85606 0.0
H1136 H 0.53516 0.54739 0.82984 0.0
H1137 H 0.54363 0.55788 0.80185 0.0
H1138 H 0.55698 0.57387 0.78222 0.0
H1139 H 0.57018 0.55074 0.76341 0.0
H1140 H 0.55639 0.53463 0.78264 0.0
H1141 H 0.53297 0.51232 0.80653 0.0
H1142 H 0.5114 0.49689 0.8056 0.0
H1143 H 0.50289 0.52565 0.80439 0.0
N1144 N 0.54313 0.53639 0.80716 0.0
H1145 H 0.52441 0.54086 0.80416 0.0
C1146 C 0.44953 0.46811 0.82563 0.0
C1147 C 0.44982 0.4575 0.82949 0.0
C1148 C 0.44374 0.45058 0.8437 0.0
C1149 C 0.43713 0.45402 0.85433 0.0
C1150 C 0.43726 0.46491 0.8509 0.0
C1151 C 0.4434 0.47186 0.83665 0.0
C1152 C 0.449 0.46636 0.79515 0.0
C1153 C 0.43747 0.46346 0.78962 0.0
C1154 C 0.43101 0.4539 0.77801 0.0
C1155 C 0.43599 0.44705 0.77162 0.0
C1156 C 0.44788 0.45048 0.77632 0.0
C1157 C 0.45433 0.46003 0.788 0.0
C1158 C 0.46707 0.4831 0.80879 0.0
C1159 C 0.47572 0.48134 0.81713 0.0
C1160 C 0.48805 0.49005 0.81595 0.0
C1161 C 0.49213 0.50062 0.80612 0.0
C1162 C 0.48348 0.50222 0.79751 0.0
C1163 C 0.47111 0.49359 0.79892 0.0
C1164 C 0.54776 0.54129 0.82388 0.0
C1165 C 0.55814 0.54139 0.8295 0.0
C1166 C 0.56406 0.54766 0.84439 0.0
C1167 C 0.55966 0.55396 0.85404 0.0
C1168 C 0.54893 0.55339 0.84879 0.0
C1169 C 0.54308 0.54719 0.83381 0.0
C1170 C 0.54896 0.54498 0.79361 0.0
C1171 C 0.54904 0.55606 0.79307 0.0
C1172 C 0.55684 0.56529 0.78198 0.0
C1173 C 0.56479 0.56368 0.77136 0.0
C1174 C 0.56411 0.55229 0.77122 0.0
C1175 C 0.55625 0.54305 0.78223 0.0
C1176 C 0.53034 0.52772 0.80565 0.0
C1177 C 0.52641 0.51524 0.80588 0.0
C1178 C 0.51406 0.50645 0.80552 0.0
C1179 C 0.50531 0.50998 0.80519 0.0
C1180 C 0.50931 0.52254 0.8045 0.0
C1181 C 0.52169 0.53132 0.80457 0.0
H1182 H 0.68463 0.88872 0.52769 0.0
N1183 N 0.66808 0.87275 0.54872 0.0
H1184 H 0.68118 0.89676 0.50163 0.0
H1185 H 0.64622 0.86385 0.53291 0.0
H1186 H 0.6426 0.872 0.50689 0.0
H1187 H 0.64721 0.87068 0.56136 0.0
H1188 H 0.64597 0.88472 0.58152 0.0
H1189 H 0.68602 0.88998 0.56724 0.0
H1190 H 0.68494 0.90433 0.5871 0.0
H1191 H 0.68365 0.86554 0.5419 0.0
H1192 H 0.6475 0.85256 0.56047 0.0
H1193 H 0.68066 0.84511 0.54489 0.0
H1194 H 0.64458 0.83223 0.56443 0.0
H1195 H 0.67621 0.79938 0.53739 0.0
H1196 H 0.67957 0.79048 0.51169 0.0
H1197 H 0.6425 0.76041 0.514 0.0
H1198 H 0.63943 0.76914 0.54012 0.0
H1199 H 0.64123 0.77273 0.58008 0.0
H1200 H 0.64632 0.76149 0.60024 0.0
H1201 H 0.6839 0.78303 0.58536 0.0
H1202 H 0.67878 0.79399 0.56521 0.0
H1203 H 0.67655 0.81052 0.56531 0.0
H1204 H 0.67907 0.83075 0.56474 0.0
H1205 H 0.64168 0.81481 0.54923 0.0
N1206 N 0.65578 0.78874 0.55719 0.0
H1207 H 0.63912 0.79445 0.55063 0.0
C1208 C 0.66572 0.87581 0.53222 0.0
C1209 C 0.67547 0.88484 0.52296 0.0
C1210 C 0.67346 0.8894 0.50809 0.0
C1211 C 0.6616 0.88504 0.50225 0.0
C1212 C 0.65182 0.8756 0.51119 0.0
C1213 C 0.65387 0.87093 0.52602 0.0
C1214 C 0.66676 0.87927 0.56285 0.0
C1215 C 0.65545 0.87775 0.56729 0.0
C1216 C 0.65476 0.88589 0.5787 0.0
C1217 C 0.66536 0.89575 0.5858 0.0
C1218 C 0.67658 0.89679 0.58206 0.0
C1219 C 0.67723 0.88861 0.5707 0.0
C1220 C 0.66589 0.86061 0.55111 0.0
C1221 C 0.67512 0.85827 0.54685 0.0
C1222 C 0.67341 0.84661 0.54872 0.0
C1223 C 0.66241 0.83698 0.55509 0.0
C1224 C 0.65313 0.83936 0.55935 0.0
C1225 C 0.65481 0.85104 0.55724 0.0
C1226 C 0.65757 0.7848 0.54075 0.0
C1227 C 0.6688 0.79092 0.5323 0.0
C1228 C 0.67068 0.78585 0.51753 0.0
C1229 C 0.66135 0.77463 0.51091 0.0
C1230 C 0.64996 0.7689 0.51897 0.0
C1231 C 0.64814 0.77392 0.53376 0.0
C1232 C 0.65956 0.78432 0.57127 0.0
C1233 C 0.65061 0.77526 0.58157 0.0
C1234 C 0.65351 0.76879 0.59294 0.0
C1235 C 0.6655 0.77136 0.59431 0.0
C1236 C 0.67461 0.78095 0.58474 0.0
C1237 C 0.67167 0.7873 0.57323 0.0
C1238 C 0.65756 0.80087 0.55814 0.0
C1239 C 0.66882 0.81128 0.56205 0.0
C1240 C 0.67029 0.82294 0.56153 0.0
C1241 C 0.66061 0.8245 0.55682 0.0
C1242 C 0.64931 0.81402 0.55316 0.0
C1243 C 0.64783 0.80237 0.55386 0.0
H1244 H 0.23979 0.86934 0.54359 0.0
N1245 N 0.2179 0.86322 0.55471 0.0
H1246 H 0.24991 0.88074 0.51782 0.0
H1247 H 0.20701 0.86819 0.52852 0.0
H1248 H 0.217 0.87941 0.50277 0.0
H1249 H 0.21258 0.88145 0.55581 0.0
H1250 H 0.22249 0.89968 0.57404 0.0
H1251 H 0.23129 0.86641 0.58197 0.0
H1252 H 0.24136 0.88467 0.6002 0.0
H1253 H 0.21369 0.84082 0.55897 0.0
H1254 H 0.19553 0.86115 0.5536 0.0
H1255 H 0.19416 0.82181 0.56042 0.0
H1256 H 0.17592 0.84214 0.55383 0.0
H1257 H 0.13145 0.76381 0.53806 0.0
H1258 H 0.11846 0.75597 0.51289 0.0
H1259 H 0.11721 0.78922 0.51104 0.0
H1260 H 0.13047 0.79708 0.5361 0.0
H1261 H 0.12119 0.79043 0.56438 0.0
H1262 H 0.10442 0.77896 0.58395 0.0
H1263 H 0.11969 0.75688 0.59768 0.0
H1264 H 0.13635 0.76829 0.57766 0.0
H1265 H 0.15916 0.78902 0.54286 0.0
H1266 H 0.17834 0.8084 0.54288 0.0
H1267 H 0.16126 0.82552 0.56969 0.0
N1268 N 0.13805 0.78438 0.55504 0.0
H1269 H 0.14195 0.80622 0.56862 0.0
C1270 C 0.22265 0.86781 0.53801 0.0
C1271 C 0.23469 0.87125 0.53451 0.0
C1272 C 0.24047 0.87784 0.51989 0.0
C1273 C 0.23424 0.88101 0.50838 0.0
C1274 C 0.22197 0.87699 0.51138 0.0
C1275 C 0.21624 0.87054 0.52614 0.0
C1276 C 0.22124 0.87257 0.56756 0.0
C1277 C 0.21853 0.88189 0.56582 0.0
C1278 C 0.2243 0.89238 0.57614 0.0
C1279 C 0.23283 0.89369 0.58841 0.0
C1280 C 0.23478 0.88392 0.59096 0.0
C1281 C 0.22904 0.87348 0.58059 0.0
C1282 C 0.2061 0.85235 0.55589 0.0
C1283 C 0.20545 0.84113 0.55794 0.0
C1284 C 0.19425 0.83027 0.5586 0.0
C1285 C 0.18337 0.83033 0.55693 0.0
C1286 C 0.18405 0.84168 0.55526 0.0
C1287 C 0.19531 0.8526 0.5549 0.0
C1288 C 0.13187 0.78095 0.53891 0.0
C1289 C 0.12854 0.76947 0.532 0.0
C1290 C 0.12103 0.76498 0.51776 0.0
C1291 C 0.11664 0.77189 0.51016 0.0
C1292 C 0.12045 0.78368 0.51661 0.0
C1293 C 0.128 0.78818 0.53092 0.0
C1294 C 0.13004 0.78018 0.56953 0.0
C1295 C 0.12117 0.7834 0.57197 0.0
C1296 C 0.11154 0.7768 0.58321 0.0
C1297 C 0.11061 0.76686 0.59218 0.0
C1298 C 0.12003 0.76434 0.59072 0.0
C1299 C 0.12963 0.77093 0.57947 0.0
C1300 C 0.14916 0.79607 0.55589 0.0
C1301 C 0.15959 0.79698 0.54874 0.0
C1302 C 0.17058 0.80807 0.54892 0.0
C1303 C 0.17148 0.81858 0.55652 0.0
C1304 C 0.16094 0.81769 0.5636 0.0
C1305 C 0.14986 0.80656 0.56315 0.0
H1306 H 0.20202 0.31008 0.53755 0.0
N1307 N 0.20202 0.32829 0.55426 0.0
H1308 H 0.21336 0.31133 0.51181 0.0
H1309 H 0.21441 0.34848 0.53403 0.0
H1310 H 0.22536 0.34975 0.50803 0.0
H1311 H 0.22326 0.34918 0.56259 0.0
H1312 H 0.23852 0.35053 0.58236 0.0
H1313 H 0.19898 0.3118 0.57704 0.0
H1314 H 0.2142 0.31298 0.59672 0.0
H1315 H 0.1782 0.31359 0.55443 0.0
H1316 H 0.20611 0.35156 0.55845 0.0
H1317 H 0.16268 0.31919 0.55606 0.0
H1318 H 0.19077 0.35741 0.55874 0.0
H1319 H 0.11897 0.33277 0.54274 0.0
H1320 H 0.10722 0.33158 0.51789 0.0
H1321 H 0.13419 0.36862 0.505 0.0
H1322 H 0.1459 0.36999 0.53051 0.0
H1323 H 0.13443 0.36846 0.5711 0.0
H1324 H 0.11819 0.36317 0.5917 0.0
H1325 H 0.10981 0.32566 0.59083 0.0
H1326 H 0.12641 0.33119 0.57082 0.0
H1327 H 0.13823 0.33295 0.53948 0.0
H1328 H 0.15361 0.32735 0.54012 0.0
H1329 H 0.17548 0.35818 0.57355 0.0
N1330 N 0.1395 0.35324 0.55474 0.0
H1331 H 0.16027 0.36421 0.57181 0.0
C1332 C 0.20725 0.3291 0.5377 0.0
C1333 C 0.20692 0.3187 0.53094 0.0
C1334 C 0.21339 0.31945 0.51621 0.0
C1335 C 0.22034 0.33067 0.50784 0.0
C1336 C 0.22027 0.34101 0.51428 0.0
C1337 C 0.21386 0.34025 0.52911 0.0
C1338 C 0.20997 0.33034 0.56834 0.0
C1339 C 0.22107 0.34137 0.57037 0.0
C1340 C 0.22984 0.34209 0.58157 0.0
C1341 C 0.22764 0.33181 0.59097 0.0
C1342 C 0.21617 0.3211 0.58981 0.0
C1343 C 0.20745 0.32039 0.57858 0.0
C1344 C 0.19327 0.33211 0.55602 0.0
C1345 C 0.18095 0.32316 0.55553 0.0
C1346 C 0.1721 0.32642 0.55627 0.0
C1347 C 0.17538 0.3388 0.55724 0.0
C1348 C 0.18781 0.34778 0.55813 0.0
C1349 C 0.19666 0.34446 0.55772 0.0
C1350 C 0.13331 0.3516 0.53872 0.0
C1351 C 0.12247 0.34067 0.53466 0.0
C1352 C 0.11572 0.33997 0.52041 0.0
C1353 C 0.11975 0.35006 0.50971 0.0
C1354 C 0.13091 0.36073 0.51312 0.0
C1355 C 0.13759 0.36151 0.52761 0.0
C1356 C 0.13159 0.35026 0.5693 0.0
C1357 C 0.1293 0.35918 0.57576 0.0
C1358 C 0.11991 0.35609 0.58735 0.0
C1359 C 0.11249 0.34392 0.59263 0.0
C1360 C 0.11534 0.33513 0.58709 0.0
C1361 C 0.12484 0.33827 0.57558 0.0
C1362 C 0.14815 0.3492 0.5554 0.0
C1363 C 0.14633 0.33861 0.54684 0.0
C1364 C 0.15516 0.3353 0.54742 0.0
C1365 C 0.1659 0.34229 0.55689 0.0
C1366 C 0.16751 0.35269 0.5658 0.0
C1367 C 0.15877 0.35611 0.56496 0.0
H1368 H 0.01643 0.38747 0.05069 0.0
H1369 H 0.01998 0.40207 0.07388 0.0
H1370 H 0.98243 0.38049 0.08856 0.0
H1371 H 0.97875 0.36596 0.06555 0.0
H1372 H 0.00585 0.41488 0.07827 0.0
H1373 H 0.0029 0.38652 0.13324 0.0
H1374 H 0.00654 0.38386 0.11195 0.0
H1375 H 0.99113 0.37887 0.11757 0.0
C1376 C 0.00896 0.38577 0.05898 0.0
C1377 C 0.9973 0.37555 0.05625 0.0
C1378 C 0.01101 0.39413 0.07215 0.0
C1379 C 0.00148 0.39227 0.08294 0.0
C1380 C 0.98992 0.382 0.08045 0.0
H1381 H 0.98434 0.42384 0.16669 0.0
H1382 H 0.98523 0.41166 0.14315 0.0
C1383 C 0.98783 0.37373 0.06723 0.0
C1384 C 0.00332 0.40127 0.09642 0.0
H1385 H 0.00146 0.40407 0.13936 0.0
C1386 C 0.00508 0.41264 0.09166 0.0
C1387 C 0.00225 0.39823 0.1138 0.0
C1388 C 1.0007 0.38625 0.11953 0.0
C1389 C 0.0052 0.42087 0.10387 0.0
C1390 C 0.00378 0.41768 0.12127 0.0
C1391 C 0.00247 0.40647 0.12601 0.0
C1392 C 0.00311 0.42555 0.13477 0.0
C1393 C 0.00627 0.43262 0.09796 0.0
C1394 C 0.01282 0.43746 0.13779 0.0
C1395 C 0.01225 0.44456 0.1511 0.0
C1396 C 0.00201 0.4398 0.16178 0.0
C1397 C 0.99226 0.4279 0.15857 0.0
C1398 C 0.99281 0.42086 0.14521 0.0
H1399 H 0.00427 0.43227 0.08416 0.0
H1400 H 1.00003 0.43464 0.10517 0.0
H1401 H 0.01568 0.44028 0.10013 0.0
H1402 H 0.02094 0.4412 0.13009 0.0
H1403 H 0.01988 0.45372 0.15311 0.0
H1404 H 0.61122 0.63385 0.06257 0.0
H1405 H 0.60202 0.61844 0.08467 0.0
H1406 H 0.62769 0.60693 0.07429 0.0
H1407 H 0.63693 0.62224 0.05195 0.0
H1408 H 0.60364 0.58755 0.07593 0.0
H1409 H 0.61533 0.61855 0.13192 0.0
H1410 H 0.60787 0.62171 0.11524 0.0
H1411 H 0.62262 0.62374 0.11151 0.0
C1412 C 0.61501 0.62814 0.06504 0.0
C1413 C 0.62485 0.62933 0.05545 0.0
C1414 C 0.60976 0.61936 0.07776 0.0
C1415 C 0.61427 0.61164 0.08125 0.0
C1416 C 0.62412 0.61283 0.07182 0.0
H1417 H 0.59225 0.5646 0.16969 0.0
H1418 H 0.60399 0.57917 0.14742 0.0
C1419 C 0.6294 0.62162 0.05909 0.0
C1420 C 0.60836 0.60202 0.09428 0.0
H1421 H 0.60055 0.59755 0.13627 0.0
C1422 C 0.60304 0.58972 0.08916 0.0
C1423 C 0.60771 0.60489 0.11155 0.0
C1424 C 0.61378 0.61794 0.11796 0.0
C1425 C 0.59678 0.58019 0.10078 0.0
C1426 C 0.59569 0.58306 0.1179 0.0
C1427 C 0.6013 0.59537 0.1231 0.0
C1428 C 0.58868 0.57348 0.13064 0.0
C1429 C 0.59146 0.56715 0.09466 0.0
C1430 C 0.57618 0.56538 0.12855 0.0
C1431 C 0.56945 0.55694 0.14121 0.0
C1432 C 0.57508 0.5565 0.15625 0.0
C1433 C 0.58765 0.56452 0.15815 0.0
C1434 C 0.59437 0.57293 0.1455 0.0
H1435 H 0.59587 0.56661 0.08273 0.0
H1436 H 0.5924 0.56149 0.10446 0.0
H1437 H 0.58167 0.56317 0.092 0.0
H1438 H 0.57157 0.56578 0.11732 0.0
H1439 H 0.55981 0.55086 0.13931 0.0
H1440 H 0.3859 0.01544 0.04931 0.0
H1441 H 0.40087 0.01968 0.07163 0.0
H1442 H 0.38122 0.98168 0.08559 0.0
H1443 H 0.36627 0.97732 0.06345 0.0
H1444 H 0.3894 1.00019 0.11376 0.0
H1445 H 0.42549 0.00673 0.06791 0.0
H1446 H 0.41764 0.01486 0.06446 0.0
H1447 H 0.40965 0.99854 0.0621 0.0
C1448 C 0.38469 0.00801 0.05723 0.0
C1449 C 0.37491 0.99602 0.0545 0.0
C1450 C 0.39329 0.01044 0.06991 0.0
C1451 C 0.39218 0.00096 0.0801 0.0
C1452 C 0.38223 0.9891 0.0778 0.0
H1453 H 0.43473 0.98256 0.13953 0.0
H1454 H 0.42363 0.98638 0.11776 0.0
C1455 C 0.37371 0.98664 0.0651 0.0
C1456 C 0.40149 0.00314 0.09292 0.0
H1457 H 0.42957 0.0067 0.09699 0.0
C1458 C 0.39827 0.00182 0.11017 0.0
C1459 C 0.41299 0.00516 0.08809 0.0
C1460 C 0.41672 0.00636 0.06965 0.0
C1461 C 0.40611 0.00207 0.12275 0.0
C1462 C 0.41751 0.00378 0.11789 0.0
C1463 C 0.42087 0.00548 0.10066 0.0
C1464 C 0.42543 0.00248 0.13026 0.0
C1465 C 0.40187 0.99986 0.14101 0.0
C1466 C 0.43045 0.01048 0.14425 0.0
C1467 C 0.43675 0.00826 0.15681 0.0
C1468 C 0.43813 0.99801 0.15555 0.0
C1469 C 0.43364 0.99041 0.14103 0.0
C1470 C 0.42737 0.99263 0.12852 0.0
H1471 H 0.39205 0.99658 0.14216 0.0
H1472 H 0.40363 0.99302 0.14686 0.0
H1473 H 0.40697 0.00853 0.14839 0.0
H1474 H 0.42921 0.01825 0.1457 0.0
H1475 H 0.44005 0.01427 0.16786 0.0
H1476 H 0.38595 0.01592 0.97655 0.0
H1477 H 0.40007 0.01943 0.95315 0.0
H1478 H 0.3809 0.98077 0.94177 0.0
H1479 H 0.36679 0.97713 0.96496 0.0
H1480 H 0.4149 0.00812 0.94975 0.0
H1481 H 0.38354 0.99746 0.89536 0.0
H1482 H 0.38063 0.00139 0.91632 0.0
H1483 H 0.37774 0.98624 0.91189 0.0
C1484 C 0.38466 0.00817 0.96896 0.0
C1485 C 0.37523 0.99624 0.97266 0.0
C1486 C 0.39276 0.0102 0.95565 0.0
C1487 C 0.39143 1.00037 0.94568 0.0
C1488 C 0.38196 0.98849 0.94919 0.0
H1489 H 0.43839 0.98761 0.88208 0.0
H1490 H 0.42618 0.98895 0.90513 0.0
C1491 C 0.37394 0.98644 0.96252 0.0
C1492 C 0.4002 0.00232 0.93202 0.0
H1493 H 0.40215 0.99825 0.88937 0.0
C1494 C 0.41218 0.00611 0.93652 0.0
C1495 C 0.3966 0.99976 0.91478 0.0
C1496 C 0.38396 0.99608 0.90921 0.0
C1497 C 0.42057 0.00696 0.92425 0.0
C1498 C 0.41681 0.00386 0.90713 0.0
C1499 C 0.40496 0.00052 0.90254 0.0
C1500 C 0.4249 0.00365 0.89382 0.0
C1501 C 0.43335 0.01109 0.92968 0.0
C1502 C 0.42814 0.01141 0.8798 0.0
C1503 C 0.43507 0.01064 0.86661 0.0
C1504 C 0.43878 0.00199 0.86712 0.0
C1505 C 0.43563 0.99432 0.8813 0.0
C1506 C 0.42875 0.99515 0.89453 0.0
H1507 H 0.43559 0.01593 0.94219 0.0
H1508 H 0.43435 0.00297 0.93088 0.0
H1509 H 0.43999 0.01723 0.92008 0.0
H1510 H 0.42516 0.01796 0.87896 0.0
H1511 H 0.43717 0.01654 0.85574 0.0
H1512 H 0.01516 0.3857 0.98005 0.0
H1513 H 0.0192 0.40074 0.95795 0.0
H1514 H 0.98154 0.38062 0.94336 0.0
H1515 H 0.97737 0.36558 0.96538 0.0
H1516 H 1.00023 0.38917 0.91544 0.0
H1517 H 0.00574 0.42518 0.96179 0.0
H1518 H 0.01397 0.4175 0.96579 0.0
H1519 H 0.99775 0.40914 0.96705 0.0
C1520 C 0.00775 0.3844 0.97205 0.0
C1521 C 0.99591 0.37447 0.97458 0.0
C1522 C 0.01007 0.39303 0.95949 0.0
C1523 C 1.00064 0.39183 0.94919 0.0
C1524 C 0.98893 0.38172 0.95126 0.0
H1525 H 0.9907 0.44026 0.88523 0.0
H1526 H 0.99004 0.42651 0.90727 0.0
C1527 C 0.98657 0.37315 0.96388 0.0
C1528 C 0.00283 0.40123 0.93652 0.0
H1529 H 0.00797 0.43021 0.93273 0.0
C1530 C 0.00202 0.39818 0.91917 0.0
C1531 C 0.00502 0.4129 0.94151 0.0
C1532 C 0.00562 0.41644 0.96003 0.0
C1533 C 0.00331 0.40653 0.90663 0.0
C1534 C 0.00553 0.41822 0.91162 0.0
C1535 C 0.00636 0.42127 0.92898 0.0
C1536 C 0.00646 0.42719 0.89897 0.0
C1537 C 0.00195 0.40266 0.88816 0.0
C1538 C 0.01607 0.43234 0.8873 0.0
C1539 C 0.01647 0.44019 0.8747 0.0
C1540 C 0.00725 0.44302 0.87356 0.0
C1541 C 0.99785 0.43815 0.88566 0.0
C1542 C 0.99749 0.43034 0.89829 0.0
H1543 H 0.99797 0.39263 0.88663 0.0
H1544 H 0.99614 0.40535 0.88136 0.0
H1545 H 0.011 0.40732 0.882 0.0
H1546 H 0.02315 0.43012 0.88776 0.0
H1547 H 0.02376 0.44369 0.86549 0.0
H1548 H 0.63204 0.61854 0.9781 0.0
H1549 H 0.62118 0.60381 0.95502 0.0
H1550 H 0.60207 0.62248 0.94349 0.0
H1551 H 0.61274 0.63717 0.96651 0.0
H1552 H 0.5933 0.58905 0.95224 0.0
H1553 H 0.61772 0.61872 0.89718 0.0
H1554 H 0.62443 0.62133 0.9181 0.0
H1555 H 0.61324 0.6254 0.91389 0.0
C1556 C 0.62561 0.61958 0.97056 0.0
C1557 C 0.62325 0.62903 0.97417 0.0
C1558 C 0.6194 0.61114 0.95744 0.0
C1559 C 0.61091 0.61214 0.94757 0.0
C1560 C 0.60867 0.62164 0.95093 0.0
H1561 H 0.56341 0.57646 0.86308 0.0
H1562 H 0.57566 0.58974 0.88646 0.0
C1563 C 0.61476 0.63 0.96413 0.0
C1564 C 0.60399 0.60303 0.93409 0.0
H1565 H 0.59987 0.59983 0.89111 0.0
C1566 C 0.59478 0.59131 0.93885 0.0
C1567 C 0.60595 0.60612 0.91671 0.0
C1568 C 0.61592 0.61855 0.91105 0.0
C1569 C 0.58715 0.58267 0.92663 0.0
C1570 C 0.58902 0.5858 0.9092 0.0
C1571 C 0.59843 0.59746 0.90447 0.0
C1572 C 0.58109 0.5773 0.89564 0.0
C1573 C 0.57688 0.57048 0.93253 0.0
C1574 C 0.58002 0.56586 0.89307 0.0
C1575 C 0.57283 0.55813 0.87985 0.0
C1576 C 0.56668 0.56176 0.86882 0.0
C1577 C 0.56778 0.57324 0.8715 0.0
C1578 C 0.57489 0.58091 0.88477 0.0
H1579 H 0.57479 0.57075 0.94622 0.0
H1580 H 0.56853 0.56759 0.92501 0.0
H1581 H 0.57947 0.56346 0.93081 0.0
H1582 H 0.5849 0.56299 0.90111 0.0
H1583 H 0.57213 0.54933 0.87822 0.0
H1584 H 0.98767 0.61812 0.9771 0.0
H1585 H 0.9834 0.60249 0.9553 0.0
H1586 H 0.02019 0.6238 0.93716 0.0
H1587 H 0.02463 0.63925 0.95916 0.0
H1588 H 0.98438 0.60294 0.92091 0.0
H1589 H 0.01753 0.5914 0.94564 0.0
H1590 H 0.0132 0.60081 0.95747 0.0
H1591 H 0.0244 0.60733 0.94086 0.0
C1592 C 0.99484 0.6195 0.96842 0.0
C1593 C 0.00654 0.62985 0.97001 0.0
C1594 C 0.99239 0.61055 0.95599 0.0
C1595 C 0.00157 0.61183 0.94491 0.0
C1596 C 0.01308 0.62243 0.94594 0.0
H1597 H 0.00569 0.57563 0.8547 0.0
H1598 H 0.00828 0.58962 0.87807 0.0
C1599 C 0.01558 0.6313 0.95846 0.0
C1600 C 0.99916 0.6021 0.93224 0.0
H1601 H 0.00951 0.58363 0.9179 0.0
C1602 C 0.98979 0.59863 0.92037 0.0
C1603 C 0.00616 0.59639 0.93164 0.0
C1604 C 0.0158 0.59907 0.9447 0.0
C1605 C 0.98752 0.58992 0.90757 0.0
C1606 C 0.99482 0.58459 0.90664 0.0
C1607 C 0.004 0.58783 0.91866 0.0
C1608 C 0.99331 0.57595 0.89285 0.0
C1609 C 0.97756 0.58661 0.89482 0.0
C1610 C 0.98412 0.56362 0.89363 0.0
C1611 C 0.9827 0.55553 0.88039 0.0
C1612 C 0.99044 0.55967 0.86616 0.0
C1613 C 0.99971 0.57206 0.86558 0.0
C1614 C 1.00115 0.5801 0.87884 0.0
H1615 H 0.97306 0.59202 0.89678 0.0
H1616 H 0.9813 0.58815 0.88171 0.0
H1617 H 0.97063 0.57675 0.89587 0.0
H1618 H 0.97805 0.56028 0.90445 0.0
H1619 H 0.97557 0.54604 0.88135 0.0
H1620 H 0.39268 0.37064 0.963 0.0
H1621 H 0.40223 0.38671 0.94186 0.0
H1622 H 0.37759 0.39912 0.95473 0.0
H1623 H 0.36783 0.38295 0.97589 0.0
H1624 H 0.38088 0.39781 0.91953 0.0
H1625 H 0.42489 0.42313 0.95334 0.0
H1626 H 0.41985 0.40727 0.94984 0.0
H1627 H 0.4112 0.41146 0.96343 0.0
C1628 C 0.38923 0.37673 0.96135 0.0
C1629 C 0.37953 0.37553 0.97128 0.0
C1630 C 0.39476 0.38598 0.94932 0.0
C1631 C 0.39079 0.39426 0.94701 0.0
C1632 C 0.38086 0.39288 0.95645 0.0
H1633 H 0.43449 0.46048 0.88687 0.0
H1634 H 0.42228 0.44679 0.90993 0.0
C1635 C 0.37529 0.38361 0.96852 0.0
C1636 C 0.397 0.4043 0.93465 0.0
H1637 H 0.42479 0.42849 0.92431 0.0
C1638 C 0.39045 0.40461 0.92065 0.0
C1639 C 0.40942 0.4133 0.93633 0.0
C1640 C 0.41674 0.41388 0.95163 0.0
C1641 C 0.39615 0.41333 0.90783 0.0
C1642 C 0.40875 0.42182 0.90896 0.0
C1643 C 0.41516 0.42189 0.92338 0.0
C1644 C 0.4156 0.43021 0.89488 0.0
C1645 C 0.38865 0.41331 0.89313 0.0
C1646 C 0.41595 0.4254 0.87887 0.0
C1647 C 0.42286 0.43316 0.86574 0.0
C1648 C 0.42966 0.44591 0.86838 0.0
C1649 C 0.42927 0.45072 0.88442 0.0
C1650 C 0.42234 0.44292 0.89759 0.0
H1651 H 0.37894 0.40907 0.89669 0.0
H1652 H 0.39197 0.42274 0.88862 0.0
H1653 H 0.38926 0.40789 0.88243 0.0
H1654 H 0.41102 0.41561 0.8766 0.0
H1655 H 0.42283 0.42916 0.85348 0.0
H1656 H 0.61803 0.98827 0.97722 0.0
H1657 H 0.60346 0.98419 0.95443 0.0
H1658 H 0.62235 0.02256 0.94251 0.0
H1659 H 0.63695 0.02676 0.96512 0.0
H1660 H 0.58848 0.99499 0.95214 0.0
H1661 H 0.61844 0.0053 0.89592 0.0
H1662 H 0.62215 0.00204 0.91657 0.0
H1663 H 0.62443 0.0169 0.9123 0.0
C1664 C 0.61919 0.99583 0.96961 0.0
C1665 C 0.62868 0.00785 0.97303 0.0
C1666 C 0.61082 0.99347 0.95664 0.0
C1667 C 0.6119 0.00306 0.94671 0.0
C1668 C 0.62146 0.01501 0.94987 0.0
H1669 H 0.57299 0.01351 0.86621 0.0
H1670 H 0.58674 0.01556 0.88906 0.0
C1671 C 0.62977 0.0174 0.96287 0.0
C1672 C 0.60272 0.00074 0.93357 0.0
H1673 H 0.59932 0.00345 0.89112 0.0
C1674 C 0.59079 0.99672 0.93876 0.0
C1675 C 0.6058 0.00306 0.91617 0.0
C1676 C 0.61837 0.00696 0.90983 0.0
C1677 C 0.58194 0.99533 0.92706 0.0
C1678 C 0.58506 0.99781 0.90967 0.0
C1679 C 0.59695 0.00162 0.90447 0.0
C1680 C 0.57621 0.99663 0.89664 0.0
C1681 C 0.56944 0.99164 0.93352 0.0
C1682 C 0.56567 0.98532 0.89338 0.0
C1683 C 0.5577 0.98415 0.88045 0.0
C1684 C 0.56018 0.99424 0.8704 0.0
C1685 C 0.57068 0.0056 0.87387 0.0
C1686 C 0.57862 0.00676 0.88683 0.0
H1687 H 0.56944 0.99324 0.94745 0.0
H1688 H 0.5658 0.99675 0.92695 0.0
H1689 H 0.56323 0.98173 0.93098 0.0
H1690 H 0.56373 0.97732 0.90059 0.0
H1691 H 0.54966 0.97529 0.87821 0.0
H1692 H 0.61545 0.98638 0.04881 0.0
H1693 H 0.60001 0.98246 0.07038 0.0
H1694 H 0.6196 0.02062 0.08487 0.0
H1695 H 0.63487 0.02467 0.06331 0.0
H1696 H 0.60138 0.98629 0.10555 0.0
H1697 H 0.58603 0.01461 0.07401 0.0
H1698 H 0.59554 0.00991 0.06346 0.0
H1699 H 0.60207 0.02289 0.07777 0.0
C1700 C 0.6165 0.99392 0.05665 0.0
C1701 C 0.62632 0.00587 0.05416 0.0
C1702 C 0.60766 0.99166 0.06894 0.0
C1703 C 0.60851 0.00131 0.0789 0.0
C1704 C 0.61858 0.01311 0.07697 0.0
H1705 H 0.57759 0.01613 0.16429 0.0
H1706 H 0.58926 0.01537 0.14018 0.0
C1707 C 0.62735 0.01539 0.06468 0.0
C1708 C 0.59892 0.9992 0.09134 0.0
H1709 H 0.58025 0.00973 0.10327 0.0
C1710 C 0.5966 0.99124 0.10492 0.0
C1711 C 0.59261 0.00559 0.09039 0.0
C1712 C 0.59409 0.01363 0.07552 0.0
C1713 C 0.58862 0.99005 0.1181 0.0
C1714 C 0.58286 0.99696 0.11756 0.0
C1715 C 0.58478 0.00451 0.10365 0.0
C1716 C 0.57552 0.99722 0.13194 0.0
C1717 C 0.5868 0.98185 0.13289 0.0
C1718 C 0.56386 0.98729 0.1351 0.0
C1719 C 0.55706 0.98775 0.14877 0.0
C1720 C 0.56183 0.99815 0.15949 0.0
C1721 C 0.57352 0.00808 0.15614 0.0
C1722 C 0.58025 0.00763 0.14245 0.0
H1723 H 0.5927 0.97785 0.13205 0.0
H1724 H 0.5887 0.98707 0.14504 0.0
H1725 H 0.5772 0.97428 0.13323 0.0
H1726 H 0.56003 0.97923 0.12697 0.0
H1727 H 0.54804 0.98 0.15087 0.0
H1728 H 0.98947 0.62248 0.04898 0.0
H1729 H 0.98554 0.60797 0.07183 0.0
H1730 H 0.02399 0.6242 0.07954 0.0
H1731 H 0.02803 0.63875 0.05701 0.0
H1732 H 0.99316 0.59084 0.07329 0.0
H1733 H 0.01131 0.62344 0.12767 0.0
H1734 H 0.00767 0.62737 0.10747 0.0
H1735 H 0.02179 0.62784 0.11027 0.0
C1736 C 0.99709 0.62306 0.05567 0.0
C1737 C 0.00907 0.63182 0.05114 0.0
C1738 C 0.99482 0.61474 0.06868 0.0
C1739 C 0.00447 0.61512 0.0775 0.0
C1740 C 0.01641 0.6239 0.07312 0.0
H1741 H 0.0128 0.56231 0.13249 0.0
H1742 H 0.01086 0.57491 0.11097 0.0
C1743 C 0.01869 0.63218 0.06014 0.0
C1744 C 0.00222 0.60605 0.09081 0.0
H1745 H 0.00893 0.60373 0.13201 0.0
C1746 C 0.99645 0.59362 0.0862 0.0
C1747 C 0.00638 0.60967 0.10769 0.0
C1748 C 0.01202 0.62279 0.11364 0.0
C1749 C 0.99524 0.58478 0.09785 0.0
C1750 C 1.00008 0.58853 0.11443 0.0
C1751 C 0.00534 0.60088 0.11924 0.0
C1752 C 1.00022 0.57993 0.12685 0.0
C1753 C 0.98884 0.57153 0.09229 0.0
C1754 C 0.99496 0.57862 0.14296 0.0
C1755 C 0.99617 0.57155 0.15535 0.0
C1756 C 0.00275 0.56569 0.1519 0.0
C1757 C 0.00775 0.56676 0.13559 0.0
C1758 C 0.00652 0.57385 0.1232 0.0
H1759 H 0.98261 0.56974 0.08146 0.0
H1760 H 0.99567 0.5692 0.08804 0.0
H1761 H 0.98358 0.5654 0.10292 0.0
H1762 H 0.99014 0.58332 0.14609 0.0
H1763 H 0.99238 0.57111 0.16785 0.0
H1764 H 0.39121 0.36503 0.0592 0.0
H1765 H 0.40294 0.37953 0.08178 0.0
H1766 H 0.38583 0.40034 0.07113 0.0
H1767 H 0.37379 0.38565 0.04857 0.0
H1768 H 0.41929 0.40406 0.07759 0.0
H1769 H 0.38277 0.39682 0.12289 0.0
H1770 H 0.38028 0.38622 0.10571 0.0
H1771 H 0.38111 0.40045 0.10142 0.0
C1772 C 0.38983 0.37262 0.06172 0.0
C1773 C 0.38158 0.3742 0.05204 0.0
C1774 C 0.39656 0.38091 0.07463 0.0
C1775 C 0.39524 0.39099 0.07816 0.0
C1776 C 0.38686 0.39251 0.06878 0.0
H1777 H 0.45143 0.44892 0.14371 0.0
H1778 H 0.43747 0.43913 0.11971 0.0
C1779 C 0.38 0.38413 0.05588 0.0
C1780 C 0.4031 0.40004 0.09124 0.0
H1781 H 0.40282 0.41134 0.13075 0.0
C1782 C 0.41571 0.40577 0.08915 0.0
C1783 C 0.39836 0.40221 0.10628 0.0
C1784 C 0.3849 0.39606 0.10936 0.0
C1785 C 0.42372 0.4132 0.10199 0.0
C1786 C 0.41899 0.41519 0.11719 0.0
C1787 C 0.4064 0.40984 0.11902 0.0
C1788 C 0.42687 0.42162 0.13201 0.0
C1789 C 0.43714 0.41832 0.09955 0.0
C1790 C 0.42527 0.41515 0.14703 0.0
C1791 C 0.43311 0.42072 0.16075 0.0
C1792 C 0.44275 0.43291 0.15974 0.0
C1793 C 0.44411 0.43952 0.14486 0.0
C1794 C 0.43621 0.43392 0.13111 0.0
H1795 H 0.43905 0.41399 0.08857 0.0
H1796 H 0.44167 0.42829 0.09718 0.0
H1797 H 0.44122 0.417 0.11114 0.0
H1798 H 0.41809 0.40567 0.14801 0.0
H1799 H 0.43163 0.41546 0.17217 0.0
H1800 H 0.68208 0.71875 0.38475 0.0
H1801 H 0.68565 0.73351 0.40767 0.0
H1802 H 0.64711 0.7164 0.41557 0.0
H1803 H 0.64342 0.70178 0.3928 0.0
H1804 H 0.65934 0.7421 0.41212 0.0
H1805 H 0.68121 0.72749 0.4597 0.0
H1806 H 0.68753 0.73073 0.43859 0.0
H1807 H 0.6726 0.71786 0.44195 0.0
C1808 C 0.67437 0.71806 0.39148 0.0
C1809 C 0.66246 0.70908 0.38686 0.0
C1810 C 0.67644 0.72649 0.40459 0.0
C1811 C 0.66664 0.72601 0.41332 0.0
C1812 C 0.65479 0.71695 0.40893 0.0
H1813 H 0.65342 0.75035 0.50679 0.0
H1814 H 0.65643 0.74016 0.48241 0.0
C1815 C 0.65272 0.70858 0.3959 0.0
C1816 C 0.66847 0.73505 0.42677 0.0
H1817 H 0.67776 0.74328 0.46789 0.0
C1818 C 0.66352 0.74251 0.42425 0.0
C1819 C 0.67386 0.73547 0.44256 0.0
C1820 C 0.67906 0.72743 0.44602 0.0
C1821 C 0.66338 0.75003 0.43734 0.0
C1822 C 0.66852 0.75024 0.45329 0.0
C1823 C 0.67388 0.74313 0.45561 0.0
C1824 C 0.66728 0.75676 0.4682 0.0
C1825 C 0.65715 0.75718 0.43428 0.0
C1826 C 0.67248 0.76951 0.46836 0.0
C1827 C 0.67062 0.77538 0.48223 0.0
C1828 C 0.66357 0.76858 0.49618 0.0
C1829 C 0.65866 0.75584 0.4961 0.0
C1830 C 0.66049 0.75001 0.48226 0.0
H1831 H 0.65171 0.75423 0.42238 0.0
H1832 H 0.65109 0.75613 0.44509 0.0
H1833 H 0.66408 0.76703 0.4332 0.0
H1834 H 0.6779 0.77491 0.45773 0.0
H1835 H 0.67453 0.7852 0.48188 0.0
H1836 H 0.29433 0.94906 0.38026 0.0
H1837 H 0.28414 0.93324 0.40168 0.0
H1838 H 0.27163 0.95505 0.42694 0.0
H1839 H 0.28136 0.97068 0.4051 0.0
H1840 H 0.28657 0.9326 0.43441 0.0
H1841 H 0.24033 0.92354 0.42207 0.0
H1842 H 0.25297 0.93305 0.40842 0.0
H1843 H 0.25052 0.93924 0.42777 0.0
C1844 C 0.28943 0.95051 0.39039 0.0
C1845 C 0.28856 0.96108 0.3909 0.0
C1846 C 0.28358 0.94144 0.40262 0.0
C1847 C 0.27685 0.94279 0.4157 0.0
C1848 C 0.27641 0.95359 0.41665 0.0
H1849 H 0.25567 0.90259 0.50979 0.0
H1850 H 0.26603 0.91701 0.4868 0.0
C1851 C 0.28207 0.96257 0.40424 0.0
C1852 C 0.27043 0.93297 0.42843 0.0
H1853 H 0.24297 0.91507 0.44748 0.0
C1854 C 0.27701 0.9287 0.43717 0.0
C1855 C 0.25788 0.92766 0.43178 0.0
C1856 C 0.24999 0.93101 0.42187 0.0
C1857 C 0.2715 0.91952 0.44944 0.0
C1858 C 0.25914 0.91477 0.45355 0.0
C1859 C 0.25247 0.91881 0.44451 0.0
C1860 C 0.25299 0.90581 0.4674 0.0
C1861 C 0.27895 0.91488 0.45762 0.0
C1862 C 0.24197 0.89486 0.46434 0.0
C1863 C 0.2359 0.88671 0.47759 0.0
C1864 C 0.2408 0.8893 0.49408 0.0
C1865 C 0.25183 0.90023 0.49711 0.0
C1866 C 0.25779 0.90845 0.48395 0.0
H1867 H 0.2865 0.91619 0.44919 0.0
H1868 H 0.28302 0.92012 0.46956 0.0
H1869 H 0.27333 0.90502 0.46072 0.0
H1870 H 0.23804 0.89266 0.45171 0.0
H1871 H 0.22739 0.87836 0.47494 0.0
H1872 H 0.04608 0.34775 0.39467 0.0
H1873 H 0.06079 0.35282 0.4176 0.0
H1874 H 0.06109 0.31965 0.40681 0.0
H1875 H 0.04602 0.31428 0.38455 0.0
H1876 H 0.05979 0.32197 0.43912 0.0
H1877 H 0.09641 0.36652 0.41515 0.0
H1878 H 0.08246 0.36629 0.41836 0.0
H1879 H 0.08329 0.35638 0.40252 0.0
C1880 C 0.04931 0.34156 0.3972 0.0
C1881 C 0.04486 0.3306 0.38782 0.0
C1882 C 0.05781 0.34453 0.4102 0.0
C1883 C 0.06227 0.33675 0.41376 0.0
C1884 C 0.05783 0.32582 0.40434 0.0
H1885 H 0.1253 0.35393 0.47583 0.0
H1886 H 0.11145 0.35107 0.45241 0.0
C1887 C 0.04918 0.32275 0.39161 0.0
C1888 C 0.07113 0.33959 0.42772 0.0
H1889 H 0.09878 0.36138 0.44336 0.0
C1890 C 0.06834 0.33058 0.43997 0.0
C1891 C 0.08239 0.35074 0.42874 0.0
C1892 C 0.08638 0.36048 0.41539 0.0
C1893 C 0.07641 0.33239 0.45316 0.0
C1894 C 0.08741 0.34375 0.45465 0.0
C1895 C 0.09028 0.35274 0.44235 0.0
C1896 C 0.09606 0.34635 0.46879 0.0
C1897 C 0.07316 0.32191 0.46503 0.0
C1898 C 0.09215 0.34504 0.48577 0.0
C1899 C 0.09994 0.34642 0.49902 0.0
C1900 C 0.11191 0.34949 0.49561 0.0
C1901 C 0.11608 0.35151 0.47873 0.0
C1902 C 0.10819 0.34989 0.4654 0.0
H1903 H 0.06666 0.31296 0.45903 0.0
H1904 H 0.08133 0.32169 0.46898 0.0
H1905 H 0.06876 0.32298 0.47659 0.0
H1906 H 0.08298 0.34273 0.48877 0.0
H1907 H 0.0966 0.34503 0.51198 0.0
H1908 H 0.05621 0.34811 0.31209 0.0
H1909 H 0.06968 0.35017 0.28835 0.0
H1910 H 0.04508 0.31264 0.27363 0.0
H1911 H 0.03168 0.31046 0.29712 0.0
H1912 H 0.07999 0.33394 0.28324 0.0
H1913 H 0.05201 0.33299 0.22908 0.0
H1914 H 0.05023 0.33724 0.25047 0.0
H1915 H 0.04391 0.32141 0.24473 0.0
C1916 C 0.05361 0.34035 0.30365 0.0
C1917 C 0.04288 0.32911 0.30652 0.0
C1918 C 0.06132 0.34154 0.29016 0.0
C1919 C 0.05829 0.33157 0.27921 0.0
C1920 C 0.04749 0.32046 0.28184 0.0
H1921 H 0.08409 0.30835 0.19508 0.0
H1922 H 0.07332 0.31099 0.21891 0.0
C1923 C 0.03988 0.31923 0.29534 0.0
C1924 C 0.06659 0.33239 0.26548 0.0
H1925 H 0.06791 0.32916 0.22251 0.0
C1926 C 0.07749 0.3331 0.26992 0.0
C1927 C 0.06321 0.33121 0.24819 0.0
C1928 C 0.05175 0.33077 0.24275 0.0
C1929 C 0.08485 0.33207 0.25752 0.0
C1930 C 0.08129 0.33053 0.24023 0.0
C1931 C 0.07059 0.33026 0.23578 0.0
C1932 C 0.08825 0.32874 0.22655 0.0
C1933 C 0.09606 0.33205 0.26311 0.0
C1934 C 0.10027 0.3378 0.22302 0.0
C1935 C 0.10652 0.33624 0.20953 0.0
C1936 C 0.10083 0.32564 0.19918 0.0
C1937 C 0.08883 0.31653 0.20292 0.0
C1938 C 0.08262 0.31807 0.21645 0.0
H1939 H 0.0959 0.3303 0.27695 0.0
H1940 H 0.09705 0.32502 0.25598 0.0
H1941 H 0.10417 0.34112 0.26051 0.0
H1942 H 0.10473 0.34619 0.23046 0.0
H1943 H 0.11578 0.34339 0.2071 0.0
H1944 H 0.68253 0.71817 0.31037 0.0
H1945 H 0.68796 0.73406 0.28911 0.0
H1946 H 0.65024 0.71823 0.27616 0.0
H1947 H 0.64469 0.70246 0.29746 0.0
H1948 H 0.68389 0.73281 0.25417 0.0
H1949 H 0.66059 0.7536 0.28767 0.0
H1950 H 0.66357 0.74272 0.29765 0.0
H1951 H 0.65087 0.73753 0.2835 0.0
C1952 C 0.67538 0.71802 0.30294 0.0
C1953 C 0.66315 0.7091 0.30579 0.0
C1954 C 0.67851 0.72712 0.29081 0.0
C1955 C 0.66948 0.72749 0.28135 0.0
C1956 C 0.65733 0.71831 0.28365 0.0
H1957 H 0.66558 0.76936 0.19931 0.0
H1958 H 0.6619 0.7549 0.22198 0.0
C1959 C 0.65418 0.70925 0.29578 0.0
C1960 C 0.67268 0.73747 0.2691 0.0
H1961 H 0.66702 0.76014 0.25924 0.0
C1962 C 0.6803 0.73886 0.25535 0.0
C1963 C 0.66804 0.7454 0.27074 0.0
C1964 C 0.66041 0.74484 0.28578 0.0
C1965 C 0.68306 0.74772 0.24287 0.0
C1966 C 0.67815 0.75541 0.24429 0.0
C1967 C 0.67071 0.75417 0.25817 0.0
C1968 C 0.68036 0.76458 0.2312 0.0
C1969 C 0.69092 0.74858 0.22797 0.0
C1970 C 0.6919 0.77497 0.22919 0.0
C1971 C 0.69401 0.78337 0.2164 0.0
C1972 C 0.68462 0.78151 0.20533 0.0
C1973 C 0.67299 0.77121 0.20772 0.0
C1974 C 0.67088 0.76287 0.22058 0.0
H1975 H 0.69241 0.74072 0.22733 0.0
H1976 H 0.68675 0.74898 0.21585 0.0
H1977 H 0.69988 0.75712 0.22916 0.0
H1978 H 0.69929 0.77653 0.23746 0.0
H1979 H 0.70303 0.7913 0.21513 0.0
H1980 H 0.29913 0.95488 0.30738 0.0
H1981 H 0.28808 0.94039 0.28419 0.0
H1982 H 0.2607 0.95037 0.28627 0.0
H1983 H 0.27155 0.96478 0.30941 0.0
H1984 H 0.25164 0.92459 0.2861 0.0
H1985 H 0.28489 0.949 0.2343 0.0
H1986 H 0.29077 0.94622 0.25333 0.0
H1987 H 0.28501 0.95642 0.2541 0.0
C1988 C 0.29079 0.95405 0.30286 0.0
C1989 C 0.28626 0.96104 0.31028 0.0
C1990 C 0.28452 0.94579 0.28957 0.0
C1991 C 0.27364 0.94439 0.28348 0.0
C1992 C 0.2691 0.95134 0.29081 0.0
H1993 H 0.23232 0.91276 0.19246 0.0
H1994 H 0.24437 0.92563 0.21637 0.0
C1995 C 0.27535 0.9596 0.30402 0.0
C1996 C 0.26677 0.93556 0.26965 0.0
H1997 H 0.26753 0.93008 0.22716 0.0
C1998 C 0.25512 0.92572 0.27323 0.0
C1999 C 0.27134 0.93716 0.25288 0.0
C2000 C 0.28365 0.94781 0.24829 0.0
C2001 C 0.24785 0.91748 0.26041 0.0
C2002 C 0.25242 0.91908 0.24364 0.0
C2003 C 0.26411 0.92886 0.24008 0.0
C2004 C 0.24496 0.9111 0.2294 0.0
C2005 C 0.2352 0.90736 0.26476 0.0
C2006 C 0.24133 0.89866 0.22883 0.0
C2007 C 0.23436 0.89124 0.21522 0.0
C2008 C 0.23093 0.89616 0.20196 0.0
C2009 C 0.23462 0.90864 0.20261 0.0
C2010 C 0.2416 0.91604 0.21618 0.0
H2011 H 0.23224 0.9088 0.27745 0.0
H2012 H 0.22861 0.90661 0.25504 0.0
H2013 H 0.23496 0.89852 0.26494 0.0
H2014 H 0.24396 0.89472 0.23884 0.0
H2015 H 0.23163 0.88165 0.2151 0.0
H2016 H 0.69408 0.96117 0.31105 0.0
H2017 H 0.69245 0.94882 0.2862 0.0
H2018 H 0.6585 0.94577 0.27283 0.0
H2019 H 0.65991 0.958 0.29813 0.0
H2020 H 0.6582 0.92392 0.26854 0.0
H2021 H 0.69887 0.96186 0.23813 0.0
H2022 H 0.70199 0.95891 0.25917 0.0
H2023 H 0.69156 0.96422 0.25624 0.0
C2024 C 0.68625 0.95791 0.30285 0.0
C2025 C 0.67721 0.96073 0.30644 0.0
C2026 C 0.68536 0.95087 0.28861 0.0
C2027 C 0.67552 0.94666 0.27743 0.0
C2028 C 0.66623 0.94905 0.28123 0.0
H2029 H 0.68088 0.92062 0.1766 0.0
H2030 H 0.67808 0.9316 0.20025 0.0
C2031 C 0.66705 0.95603 0.29566 0.0
C2032 C 0.67516 0.93988 0.26175 0.0
H2033 H 0.692 0.9418 0.22692 0.0
C2034 C 0.6655 0.92785 0.25931 0.0
C2035 C 0.68459 0.94511 0.24957 0.0
C2036 C 0.69477 0.95828 0.25079 0.0
C2037 C 0.66529 0.92074 0.24533 0.0
C2038 C 0.67512 0.92573 0.23375 0.0
C2039 C 0.68453 0.93791 0.2359 0.0
C2040 C 0.67598 0.91855 0.21935 0.0
C2041 C 0.65448 0.908 0.24306 0.0
C2042 C 0.67578 0.90758 0.22221 0.0
C2043 C 0.67731 0.90124 0.20867 0.0
C2044 C 0.6793 0.90591 0.1921 0.0
C2045 C 0.67951 0.91689 0.18928 0.0
C2046 C 0.67785 0.92313 0.20276 0.0
H2047 H 0.64631 0.90706 0.24946 0.0
H2048 H 0.65238 0.90558 0.22938 0.0
H2049 H 0.65649 0.90134 0.24887 0.0
H2050 H 0.67472 0.90404 0.23495 0.0
H2051 H 0.67722 0.89286 0.2112 0.0
H2052 H 0.03206 0.71486 0.30791 0.0
H2053 H 0.04154 0.73 0.28535 0.0
H2054 H 0.06984 0.72143 0.28061 0.0
H2055 H 0.06037 0.70617 0.30277 0.0
H2056 H 0.06423 0.75058 0.28443 0.0
H2057 H 0.05926 0.71908 0.23171 0.0
H2058 H 0.05114 0.71372 0.25153 0.0
H2059 H 0.06663 0.71737 0.24986 0.0
C2060 C 0.04024 0.71611 0.30196 0.0
C2061 C 0.04539 0.70921 0.30711 0.0
C2062 C 0.04565 0.72479 0.28909 0.0
C2063 C 0.05628 0.7267 0.2811 0.0
C2064 C 0.06147 0.71989 0.28629 0.0
H2065 H 0.11064 0.7763 0.21227 0.0
H2066 H 0.09862 0.76198 0.2347 0.0
C2067 C 0.05606 0.71119 0.29905 0.0
C2068 C 0.06226 0.73609 0.26777 0.0
H2069 H 0.0736 0.74035 0.2274 0.0
C2070 C 0.06614 0.74834 0.27188 0.0
C2071 C 0.06469 0.73313 0.25137 0.0
C2072 C 0.0601 0.72009 0.24578 0.0
C2073 C 0.07283 0.75775 0.26024 0.0
C2074 C 0.07566 0.75481 0.24414 0.0
C2075 C 0.0715 0.74256 0.23986 0.0
C2076 C 0.08321 0.7643 0.23164 0.0
C2077 C 0.07718 0.77082 0.26534 0.0
C2078 C 0.07853 0.77042 0.22266 0.0
C2079 C 0.08533 0.77853 0.2097 0.0
C2080 C 0.09691 0.78062 0.2055 0.0
C2081 C 0.10169 0.77476 0.21499 0.0
C2082 C 0.09487 0.76663 0.22786 0.0
H2083 H 0.07547 0.77173 0.27901 0.0
H2084 H 0.08704 0.77668 0.26278 0.0
H2085 H 0.07241 0.77431 0.2576 0.0
H2086 H 0.06948 0.76862 0.2253 0.0
H2087 H 0.0813 0.78275 0.2025 0.0
H2088 H 0.30077 0.35907 0.29797 0.0
H2089 H 0.2856 0.35334 0.27571 0.0
H2090 H 0.26992 0.3153 0.28827 0.0
H2091 H 0.28504 0.32093 0.31078 0.0
H2092 H 0.28031 0.33759 0.2472 0.0
H2093 H 0.24111 0.32122 0.2914 0.0
H2094 H 0.25661 0.33039 0.29852 0.0
H2095 H 0.25033 0.31444 0.29369 0.0
C2096 C 0.29413 0.34947 0.29603 0.0
C2097 C 0.29409 0.34047 0.3063 0.0
C2098 C 0.28547 0.34621 0.28326 0.0
C2099 C 0.27654 0.33392 0.28051 0.0
C2100 C 0.27663 0.32486 0.29038 0.0
H2101 H 0.22984 0.31355 0.19029 0.0
H2102 H 0.24272 0.31317 0.21273 0.0
C2103 C 0.28533 0.3281 0.30317 0.0
C2104 C 0.26713 0.33075 0.26737 0.0
H2105 H 0.23698 0.32027 0.26207 0.0
C2106 C 0.27081 0.33369 0.2504 0.0
C2107 C 0.25478 0.32577 0.27166 0.0
C2108 C 0.25041 0.32283 0.28981 0.0
C2109 C 0.26251 0.33203 0.2376 0.0
C2110 C 0.25015 0.3271 0.24189 0.0
C2111 C 0.24643 0.32395 0.25882 0.0
C2112 C 0.24117 0.32606 0.22919 0.0
C2113 C 0.26715 0.33605 0.21976 0.0
C2114 C 0.23554 0.33295 0.23138 0.0
C2115 C 0.22801 0.33304 0.21871 0.0
C2116 C 0.22596 0.32623 0.20356 0.0
C2117 C 0.23115 0.31885 0.2018 0.0
C2118 C 0.23864 0.31873 0.21453 0.0
H2119 H 0.27717 0.34205 0.2194 0.0
H2120 H 0.26463 0.32787 0.21169 0.0
H2121 H 0.26304 0.34103 0.2141 0.0
H2122 H 0.23729 0.33859 0.24267 0.0
H2123 H 0.22398 0.33864 0.22063 0.0
H2124 H 0.2835 0.32257 0.38397 0.0
H2125 H 0.26874 0.31933 0.40628 0.0
H2126 H 0.28828 0.358 0.41776 0.0
H2127 H 0.30286 0.36137 0.39539 0.0
H2128 H 0.27109 0.32424 0.44075 0.0
H2129 H 0.25439 0.3514 0.40899 0.0
H2130 H 0.26383 0.3467 0.39827 0.0
H2131 H 0.27048 0.35987 0.41223 0.0
C2132 C 0.28469 0.33038 0.3913 0.0
C2133 C 0.29428 0.34225 0.38773 0.0
C2134 C 0.27623 0.32851 0.40402 0.0
C2135 C 0.27724 0.33847 0.41337 0.0
C2136 C 0.28712 0.35023 0.41035 0.0
H2137 H 0.24322 0.34952 0.50056 0.0
H2138 H 0.25637 0.35083 0.47704 0.0
C2139 C 0.2955 0.35212 0.39761 0.0
C2140 C 0.26801 0.33665 0.42629 0.0
H2141 H 0.24853 0.34624 0.43803 0.0
C2142 C 0.26605 0.32893 0.44007 0.0
C2143 C 0.2614 0.34274 0.42531 0.0
C2144 C 0.26252 0.35054 0.41031 0.0
C2145 C 0.25796 0.32749 0.45319 0.0
C2146 C 0.25169 0.3339 0.45244 0.0
C2147 C 0.25344 0.34141 0.43854 0.0
C2148 C 0.2435 0.33316 0.46625 0.0
C2149 C 0.25635 0.3194 0.46801 0.0
C2150 C 0.23184 0.32286 0.46772 0.0
C2151 C 0.22421 0.32214 0.481 0.0
C2152 C 0.22813 0.3317 0.49309 0.0
C2153 C 0.2398 0.34208 0.49136 0.0
C2154 C 0.24738 0.34282 0.47802 0.0
H2155 H 0.26263 0.31583 0.46738 0.0
H2156 H 0.2579 0.32455 0.48016 0.0
H2157 H 0.2469 0.31153 0.46817 0.0
H2158 H 0.22868 0.31538 0.45861 0.0
H2159 H 0.21523 0.3141 0.48178 0.0
H2160 H 0.65467 0.95442 0.38713 0.0
H2161 H 0.649 0.93943 0.40987 0.0
H2162 H 0.68608 0.94813 0.41328 0.0
H2163 H 0.69187 0.96322 0.391 0.0
H2164 H 0.65096 0.91883 0.41094 0.0
H2165 H 0.67841 0.95113 0.46244 0.0
H2166 H 0.67539 0.95619 0.44271 0.0
H2167 H 0.68735 0.95279 0.44396 0.0
C2168 C 0.66164 0.95322 0.39283 0.0
C2169 C 0.67376 0.96013 0.38732 0.0
C2170 C 0.65837 0.94463 0.4058 0.0
C2171 C 0.66716 0.94283 0.41349 0.0
C2172 C 0.67921 0.94961 0.40787 0.0
H2173 H 0.6736 0.89135 0.47184 0.0
H2174 H 0.67263 0.90433 0.44995 0.0
C2175 C 0.68249 0.95821 0.39504 0.0
C2176 C 0.66382 0.93362 0.42701 0.0
H2177 H 0.67196 0.92997 0.46678 0.0
C2178 C 0.65539 0.92128 0.42326 0.0
C2179 C 0.66951 0.93684 0.44316 0.0
C2180 C 0.67807 0.94998 0.44838 0.0
C2181 C 0.65306 0.91203 0.43489 0.0
C2182 C 0.65931 0.91524 0.45054 0.0
C2183 C 0.66727 0.92758 0.45465 0.0
C2184 C 0.65844 0.90593 0.46241 0.0
C2185 C 0.64423 0.89885 0.43032 0.0
C2186 C 0.65059 0.90237 0.47642 0.0
C2187 C 0.65111 0.89493 0.48893 0.0
C2188 C 0.65959 0.89109 0.48768 0.0
C2189 C 0.66705 0.89425 0.4732 0.0
C2190 C 0.66647 0.90161 0.46067 0.0
H2191 H 0.63938 0.8979 0.41822 0.0
H2192 H 0.64916 0.89383 0.42904 0.0
H2193 H 0.63747 0.89448 0.44067 0.0
H2194 H 0.64441 0.90573 0.47798 0.0
H2195 H 0.64534 0.89275 0.50003 0.0
H2196 H 0.05564 0.69911 0.3961 0.0
H2197 H 0.06725 0.7136 0.41872 0.0
H2198 H 0.0505 0.73463 0.40738 0.0
H2199 H 0.0386 0.71998 0.38467 0.0
H2200 H 0.08377 0.7384 0.41399 0.0
H2201 H 0.04728 0.73101 0.45952 0.0
H2202 H 0.04488 0.72023 0.44264 0.0
H2203 H 0.04555 0.73431 0.43789 0.0
C2204 C 0.0543 0.70674 0.39845 0.0
C2205 C 0.04622 0.70841 0.38849 0.0
C2206 C 0.06097 0.71502 0.41141 0.0
C2207 C 0.05973 0.72517 0.41474 0.0
C2208 C 0.05147 0.72677 0.40514 0.0
H2209 H 0.11595 0.78284 0.48063 0.0
H2210 H 0.10166 0.77332 0.45687 0.0
C2211 C 0.0447 0.7184 0.39216 0.0
C2212 C 0.0676 0.73424 0.4278 0.0
H2213 H 0.06737 0.74524 0.46757 0.0
C2214 C 0.0802 0.74004 0.42563 0.0
C2215 C 0.06288 0.7363 0.44294 0.0
C2216 C 0.04941 0.7301 0.44605 0.0
C2217 C 0.08824 0.74743 0.43848 0.0
C2218 C 0.08353 0.74927 0.45381 0.0
C2219 C 0.07093 0.74386 0.45574 0.0
C2220 C 0.09145 0.75557 0.46863 0.0
C2221 C 0.10166 0.75264 0.43594 0.0
C2222 C 0.09018 0.74886 0.48328 0.0
C2223 C 0.09824 0.75426 0.49683 0.0
C2224 C 0.10775 0.76651 0.49602 0.0
C2225 C 0.10873 0.77338 0.4816 0.0
C2226 C 0.10063 0.76795 0.46799 0.0
H2227 H 0.1036 0.74858 0.42465 0.0
H2228 H 0.10617 0.76266 0.43406 0.0
H2229 H 0.10573 0.75107 0.44733 0.0
H2230 H 0.08313 0.73931 0.48405 0.0
H2231 H 0.09707 0.74879 0.50792 0.0
H2232 H 0.34911 0.05507 0.71477 0.0
H2233 H 0.3526 0.06936 0.73836 0.0
H2234 H 0.31486 0.04799 0.75216 0.0
H2235 H 0.31123 0.03377 0.7287 0.0
H2236 H 0.33708 0.08184 0.74314 0.0
H2237 H 0.33657 0.05357 0.79681 0.0
H2238 H 0.34074 0.05185 0.77538 0.0
H2239 H 0.3251 0.04578 0.78076 0.0
C2240 C 0.34158 0.05335 0.72292 0.0
C2241 C 0.32988 0.04329 0.71982 0.0
C2242 C 0.34359 0.06154 0.73633 0.0
C2243 C 0.33399 0.05965 0.74696 0.0
C2244 C 0.32239 0.04952 0.74411 0.0
H2245 H 0.31406 0.08654 0.83203 0.0
H2246 H 0.3168 0.07566 0.80844 0.0
C2247 C 0.32034 0.04144 0.73066 0.0
C2248 C 0.33579 0.06842 0.76073 0.0
H2249 H 0.33447 0.07058 0.80386 0.0
C2250 C 0.33673 0.07954 0.75646 0.0
C2251 C 0.33526 0.06528 0.77799 0.0
C2252 C 0.33445 0.05351 0.78311 0.0
C2253 C 0.33646 0.08733 0.76906 0.0
C2254 C 0.33552 0.08399 0.78637 0.0
C2255 C 0.33515 0.07311 0.7906 0.0
C2256 C 0.33389 0.09104 0.80023 0.0
C2257 C 0.3365 0.09868 0.76366 0.0
C2258 C 0.34257 0.10338 0.80345 0.0
C2259 C 0.34088 0.10977 0.81676 0.0
C2260 C 0.33056 0.10389 0.82726 0.0
C2261 C 0.32196 0.0915 0.82401 0.0
C2262 C 0.32359 0.08519 0.81062 0.0
H2263 H 0.33441 0.0984 0.74991 0.0
H2264 H 0.32981 0.09989 0.77111 0.0
H2265 H 0.34562 0.1068 0.76598 0.0
H2266 H 0.35072 0.10802 0.7958 0.0
H2267 H 0.34766 0.11931 0.81881 0.0
H2268 H 0.93964 0.29704 0.71965 0.0
H2269 H 0.92961 0.28156 0.74151 0.0
H2270 H 0.95911 0.27464 0.74071 0.0
H2271 H 0.96929 0.29012 0.71867 0.0
H2272 H 0.92404 0.25505 0.73751 0.0
H2273 H 0.95317 0.28167 0.79261 0.0
H2274 H 0.95163 0.28908 0.77415 0.0
H2275 H 0.96035 0.28172 0.77281 0.0
C2276 C 0.94408 0.29232 0.72415 0.0
C2277 C 0.9553 0.29486 0.71736 0.0
C2278 C 0.9383 0.28344 0.73662 0.0
C2279 C 0.94364 0.27702 0.7427 0.0
C2280 C 0.95489 0.27958 0.73619 0.0
H2281 H 0.92027 0.22564 0.82634 0.0
H2282 H 0.93153 0.23902 0.80281 0.0
C2283 C 0.96067 0.28842 0.7236 0.0
C2284 C 0.93725 0.26746 0.75563 0.0
H2285 H 0.93698 0.2618 0.79796 0.0
C2286 C 0.92688 0.25646 0.75073 0.0
C2287 C 0.94107 0.26935 0.77276 0.0
C2288 C 0.95213 0.28109 0.77855 0.0
C2289 C 0.92014 0.24726 0.7626 0.0
C2290 C 0.92369 0.2493 0.77992 0.0
C2291 C 0.93423 0.26025 0.78471 0.0
C2292 C 0.91649 0.24037 0.79337 0.0
C2293 C 0.9094 0.23539 0.75639 0.0
C2294 C 0.90423 0.2366 0.7959 0.0
C2295 C 0.89766 0.22871 0.80916 0.0
C2296 C 0.90326 0.22459 0.8204 0.0
C2297 C 0.91554 0.22838 0.81777 0.0
C2298 C 0.92206 0.23615 0.8044 0.0
H2299 H 0.9103 0.23373 0.74269 0.0
H2300 H 0.90828 0.2275 0.76375 0.0
H2301 H 0.90105 0.23586 0.75786 0.0
H2302 H 0.89979 0.23996 0.78783 0.0
H2303 H 0.88821 0.22593 0.81066 0.0
H2304 H 0.70481 0.64634 0.73246 0.0
H2305 H 0.72036 0.65266 0.75427 0.0
H2306 H 0.7361 0.69025 0.73928 0.0
H2307 H 0.72045 0.68406 0.71744 0.0
H2308 H 0.74536 0.66458 0.74829 0.0
H2309 H 0.73363 0.69204 0.7913 0.0
H2310 H 0.72323 0.68157 0.77548 0.0
H2311 H 0.73561 0.69624 0.76926 0.0
C2312 C 0.71148 0.65599 0.73386 0.0
C2313 C 0.71136 0.66469 0.72313 0.0
C2314 C 0.72039 0.65957 0.74635 0.0
C2315 C 0.72934 0.67192 0.74847 0.0
C2316 C 0.72916 0.68069 0.73803 0.0
H2317 H 0.79057 0.7054 0.81949 0.0
H2318 H 0.77669 0.70205 0.79603 0.0
C2319 C 0.72022 0.67711 0.72551 0.0
C2320 C 0.73915 0.67543 0.76108 0.0
H2321 H 0.75119 0.69142 0.79808 0.0
C2322 C 0.74665 0.67046 0.75917 0.0
C2323 C 0.74087 0.68319 0.77517 0.0
C2324 C 0.73287 0.68852 0.77808 0.0
C2325 C 0.75575 0.67294 0.77105 0.0
C2326 C 0.75727 0.68043 0.78537 0.0
C2327 C 0.74999 0.68566 0.78708 0.0
C2328 C 0.76595 0.68244 0.79914 0.0
C2329 C 0.7637 0.66755 0.76813 0.0
C2330 C 0.76447 0.67253 0.80868 0.0
C2331 C 0.77232 0.67441 0.82212 0.0
C2332 C 0.7818 0.68626 0.82636 0.0
C2333 C 0.78331 0.69617 0.81667 0.0
C2334 C 0.77542 0.69428 0.80323 0.0
H2335 H 0.76371 0.66502 0.75455 0.0
H2336 H 0.77319 0.67407 0.77214 0.0
H2337 H 0.76022 0.65914 0.77578 0.0
H2338 H 0.75706 0.66335 0.80597 0.0
H2339 H 0.77071 0.6666 0.82953 0.0
H2340 H 0.70548 0.64088 0.64094 0.0
H2341 H 0.71852 0.64311 0.61703 0.0
H2342 H 0.73048 0.68146 0.61423 0.0
H2343 H 0.71746 0.67939 0.63851 0.0
H2344 H 0.71755 0.65106 0.58418 0.0
H2345 H 0.76244 0.68091 0.61496 0.0
H2346 H 0.74863 0.67253 0.62712 0.0
H2347 H 0.75174 0.68604 0.61597 0.0
C2348 C 0.71087 0.64983 0.63535 0.0
C2349 C 0.7104 0.65997 0.64173 0.0
C2350 C 0.71834 0.65107 0.62164 0.0
C2351 C 0.72554 0.66246 0.61398 0.0
C2352 C 0.72512 0.67263 0.62017 0.0
H2353 H 0.77386 0.67658 0.52659 0.0
H2354 H 0.76313 0.67952 0.55039 0.0
C2355 C 0.71762 0.67141 0.63397 0.0
C2356 C 0.73317 0.66337 0.5992 0.0
H2357 H 0.76249 0.67461 0.58664 0.0
C2358 C 0.72738 0.65629 0.58466 0.0
C2359 C 0.74598 0.67025 0.59986 0.0
C2360 C 0.75263 0.67782 0.61532 0.0
C2361 C 0.73404 0.65565 0.57092 0.0
C2362 C 0.74684 0.66212 0.57185 0.0
C2363 C 0.75267 0.6696 0.58607 0.0
C2364 C 0.7542 0.66069 0.55847 0.0
C2365 C 0.72732 0.64795 0.55556 0.0
C2366 C 0.75302 0.64924 0.55554 0.0
C2367 C 0.75915 0.64755 0.54206 0.0
C2368 C 0.76663 0.65729 0.53128 0.0
C2369 C 0.76823 0.66891 0.53473 0.0
C2370 C 0.76207 0.6706 0.54826 0.0
H2371 H 0.71796 0.6463 0.55487 0.0
H2372 H 0.73217 0.65239 0.54362 0.0
H2373 H 0.72667 0.63895 0.55639 0.0
H2374 H 0.74716 0.64155 0.56352 0.0
H2375 H 0.75791 0.63855 0.53993 0.0
H2376 H 0.31163 0.03688 0.63025 0.0
H2377 H 0.31703 0.05242 0.6086 0.0
H2378 H 0.35482 0.06851 0.62139 0.0
H2379 H 0.34956 0.05287 0.64288 0.0
H2380 H 0.32838 0.07721 0.61381 0.0
H2381 H 0.3555 0.06611 0.56987 0.0
H2382 H 0.34592 0.05577 0.5862 0.0
H2383 H 0.3606 0.06858 0.59156 0.0
C2384 C 0.32112 0.04363 0.62836 0.0
C2385 C 0.33016 0.04359 0.63833 0.0
C2386 C 0.32418 0.05252 0.61598 0.0
C2387 C 0.33634 0.06156 0.61326 0.0
C2388 C 0.34541 0.06149 0.62302 0.0
H2389 H 0.37022 0.12531 0.54755 0.0
H2390 H 0.36605 0.1105 0.57 0.0
C2391 C 0.34236 0.05255 0.63537 0.0
C2392 C 0.33941 0.07138 0.6008 0.0
H2393 H 0.35557 0.08446 0.56463 0.0
C2394 C 0.33429 0.07877 0.60303 0.0
C2395 C 0.34717 0.07344 0.58678 0.0
C2396 C 0.35254 0.0655 0.58332 0.0
C2397 C 0.33677 0.08818 0.59166 0.0
C2398 C 0.34447 0.09018 0.57761 0.0
C2399 C 0.3497 0.08291 0.57547 0.0
C2400 C 0.34686 0.09949 0.56464 0.0
C2401 C 0.33124 0.09601 0.59485 0.0
C2402 C 0.33744 0.0982 0.55424 0.0
C2403 C 0.33979 0.10657 0.54133 0.0
C2404 C 0.35164 0.11641 0.53853 0.0
C2405 C 0.36102 0.11778 0.54922 0.0
C2406 C 0.35866 0.10936 0.56209 0.0
H2407 H 0.32802 0.09528 0.60818 0.0
H2408 H 0.33787 0.10576 0.59214 0.0
H2409 H 0.32335 0.09294 0.58627 0.0
H2410 H 0.32831 0.09052 0.55582 0.0
H2411 H 0.33239 0.10506 0.53314 0.0
H2412 H 0.96799 0.28687 0.63842 0.0
H2413 H 0.95723 0.27157 0.61589 0.0
H2414 H 0.9333 0.28556 0.60891 0.0
H2415 H 0.94383 0.30073 0.63127 0.0
H2416 H 0.92144 0.2597 0.61324 0.0
H2417 H 0.95745 0.27694 0.5636 0.0
H2418 H 0.96154 0.27476 0.58456 0.0
H2419 H 0.95783 0.28638 0.58122 0.0
C2420 C 0.96052 0.28677 0.63197 0.0
C2421 C 0.95677 0.29503 0.63673 0.0
C2422 C 0.9544 0.27804 0.61909 0.0
C2423 C 0.9445 0.27748 0.61074 0.0
C2424 C 0.9409 0.28583 0.61524 0.0
H2425 H 0.90566 0.24588 0.51892 0.0
H2426 H 0.91835 0.25851 0.54249 0.0
C2427 C 0.94698 0.29453 0.62804 0.0
C2428 C 0.9375 0.26798 0.59768 0.0
H2429 H 0.93875 0.25937 0.55677 0.0
C2430 C 0.92523 0.25952 0.60094 0.0
C2431 C 0.94249 0.26787 0.58165 0.0
C2432 C 0.95553 0.277 0.5774 0.0
C2433 C 0.91772 0.25113 0.58842 0.0
C2434 C 0.92267 0.2511 0.57231 0.0
C2435 C 0.93501 0.25938 0.56918 0.0
C2436 C 0.915 0.24323 0.55812 0.0
C2437 C 0.90444 0.24273 0.5923 0.0
C2438 C 0.90892 0.23043 0.55908 0.0
C2439 C 0.90151 0.22315 0.54568 0.0
C2440 C 0.90009 0.22856 0.53106 0.0
C2441 C 0.90633 0.2414 0.53012 0.0
C2442 C 0.9137 0.24865 0.5435 0.0
H2443 H 0.90162 0.24559 0.60402 0.0
H2444 H 0.89875 0.24245 0.58154 0.0
H2445 H 0.90264 0.23332 0.59419 0.0
H2446 H 0.90993 0.22607 0.57018 0.0
H2447 H 0.89681 0.21329 0.54682 0.0
H2448 H 0.32582 0.28995 0.63557 0.0
H2449 H 0.32302 0.27539 0.6127 0.0
H2450 H 0.36067 0.28615 0.6165 0.0
H2451 H 0.3636 0.3006 0.63915 0.0
H2452 H 0.33655 0.28059 0.58059 0.0
H2453 H 0.34168 0.24825 0.62123 0.0
H2454 H 0.33804 0.25924 0.62976 0.0
H2455 H 0.3534 0.26396 0.62413 0.0
C2456 C 0.3335 0.28922 0.63153 0.0
C2457 C 0.34492 0.29643 0.6393 0.0
C2458 C 0.33188 0.2809 0.61849 0.0
C2459 C 0.3416 0.27957 0.61317 0.0
C2460 C 0.35301 0.28689 0.62066 0.0
H2461 H 0.36355 0.24476 0.54064 0.0
H2462 H 0.36059 0.25555 0.5644 0.0
C2463 C 0.35466 0.29521 0.63357 0.0
C2464 C 0.34008 0.27078 0.59955 0.0
H2465 H 0.34386 0.24656 0.59124 0.0
C2466 C 0.33792 0.273 0.58289 0.0
C2467 C 0.34191 0.26093 0.60268 0.0
C2468 C 0.34378 0.25785 0.62044 0.0
C2469 C 0.3382 0.26602 0.5691 0.0
C2470 C 0.34049 0.25645 0.57218 0.0
C2471 C 0.34216 0.25393 0.58893 0.0
C2472 C 0.34195 0.24945 0.55811 0.0
C2473 C 0.33668 0.26934 0.55131 0.0
C2474 C 0.33237 0.24225 0.54691 0.0
C2475 C 0.33406 0.23616 0.53322 0.0
C2476 C 0.34535 0.23708 0.53058 0.0
C2477 C 0.35481 0.24401 0.54216 0.0
C2478 C 0.35311 0.25011 0.5558 0.0
H2479 H 0.33754 0.27848 0.5509 0.0
H2480 H 0.3435 0.26933 0.54257 0.0
H2481 H 0.32754 0.26246 0.5465 0.0
H2482 H 0.32362 0.24145 0.54865 0.0
H2483 H 0.32662 0.23098 0.52447 0.0
H2484 H 0.72206 0.03423 0.6256 0.0
H2485 H 0.73212 0.05001 0.60404 0.0
H2486 H 0.71236 0.06715 0.62118 0.0
H2487 H 0.70221 0.05143 0.64282 0.0
H2488 H 0.72125 0.05757 0.57741 0.0
H2489 H 0.74944 0.0942 0.62458 0.0
H2490 H 0.74216 0.07814 0.62951 0.0
H2491 H 0.73338 0.08543 0.62851 0.0
C2492 C 0.71977 0.0413 0.62475 0.0
C2493 C 0.71137 0.04159 0.63605 0.0
C2494 C 0.72552 0.05029 0.6124 0.0
C2495 C 0.72308 0.0598 0.6112 0.0
C2496 C 0.71446 0.05995 0.62207 0.0
H2497 H 0.74827 0.11372 0.52999 0.0
H2498 H 0.73604 0.09932 0.55234 0.0
C2499 C 0.70863 0.05091 0.63437 0.0
C2500 C 0.7298 0.06969 0.5988 0.0
H2501 H 0.75175 0.09984 0.59571 0.0
C2502 C 0.72785 0.06684 0.58138 0.0
C2503 C 0.73848 0.08172 0.60409 0.0
C2504 C 0.74111 0.08512 0.62268 0.0
C2505 C 0.73441 0.07573 0.56906 0.0
C2506 C 0.74308 0.08776 0.57435 0.0
C2507 C 0.74501 0.09062 0.59176 0.0
C2508 C 0.75066 0.0973 0.5619 0.0
C2509 C 0.73228 0.07216 0.55047 0.0
C2510 C 0.76299 0.10117 0.56028 0.0
C2511 C 0.76998 0.10938 0.54757 0.0
C2512 C 0.76478 0.11395 0.53637 0.0
C2513 C 0.75255 0.11045 0.53853 0.0
C2514 C 0.74553 0.10215 0.55117 0.0
H2515 H 0.7266 0.0621 0.54857 0.0
H2516 H 0.72759 0.07646 0.5445 0.0
H2517 H 0.74104 0.07552 0.54376 0.0
H2518 H 0.76709 0.09754 0.56851 0.0
H2519 H 0.77941 0.112 0.54629 0.0
H2520 H 0.96781 0.68986 0.62158 0.0
H2521 H 0.95215 0.68343 0.5998 0.0
H2522 H 0.93047 0.64896 0.62512 0.0
H2523 H 0.94632 0.65514 0.6466 0.0
H2524 H 0.92938 0.64544 0.59192 0.0
H2525 H 0.92118 0.68329 0.60575 0.0
H2526 H 0.93667 0.68891 0.60007 0.0
H2527 H 0.93055 0.68012 0.61915 0.0
C2528 C 0.95973 0.68089 0.62248 0.0
C2529 C 0.95827 0.67306 0.63591 0.0
C2530 C 0.95073 0.67726 0.61009 0.0
C2531 C 0.93996 0.66585 0.61108 0.0
C2532 C 0.93865 0.65785 0.62416 0.0
H2533 H 0.87669 0.65157 0.55127 0.0
H2534 H 0.89046 0.65464 0.57479 0.0
C2535 C 0.94773 0.6614 0.63642 0.0
C2536 C 0.93008 0.66227 0.59848 0.0
H2537 H 0.91268 0.6721 0.57989 0.0
C2538 C 0.92565 0.65122 0.58939 0.0
C2539 C 0.92498 0.66964 0.59544 0.0
C2540 C 0.92849 0.68108 0.60576 0.0
C2541 C 0.91657 0.64754 0.57699 0.0
C2542 C 0.91206 0.65533 0.57316 0.0
C2543 C 0.91622 0.66618 0.58263 0.0
C2544 C 0.90327 0.6526 0.55914 0.0
C2545 C 0.91179 0.63525 0.56835 0.0
C2546 C 0.90587 0.65044 0.5425 0.0
C2547 C 0.89793 0.64851 0.52916 0.0
C2548 C 0.88736 0.64896 0.53208 0.0
C2549 C 0.88478 0.65118 0.54868 0.0
C2550 C 0.89264 0.65293 0.5621 0.0
H2551 H 0.91287 0.62885 0.57658 0.0
H2552 H 0.90206 0.63102 0.56498 0.0
H2553 H 0.91703 0.63645 0.55651 0.0
H2554 H 0.91419 0.65056 0.53973 0.0
H2555 H 0.90026 0.64706 0.51642 0.0
H2556 H 0.9661 0.69854 0.71857 0.0
H2557 H 0.95274 0.69676 0.74187 0.0
H2558 H 0.93782 0.65776 0.74277 0.0
H2559 H 0.95129 0.65941 0.71937 0.0
H2560 H 0.9269 0.68245 0.74159 0.0
H2561 H 0.94722 0.669 0.79304 0.0
H2562 H 0.95517 0.67578 0.77348 0.0
H2563 H 0.94314 0.66007 0.77367 0.0
C2564 C 0.96005 0.68955 0.72371 0.0
C2565 C 0.9598 0.67911 0.71704 0.0
C2566 C 0.9524 0.68857 0.73704 0.0
C2567 C 0.94436 0.67716 0.7441 0.0
C2568 C 0.94408 0.66669 0.73763 0.0
H2569 H 0.89622 0.66262 0.83123 0.0
H2570 H 0.90631 0.65997 0.80645 0.0
C2571 C 0.95176 0.66765 0.72422 0.0
C2572 C 0.93611 0.67636 0.75792 0.0
H2573 H 0.93063 0.67115 0.80043 0.0
C2574 C 0.92764 0.6799 0.75445 0.0
C2575 C 0.93707 0.67296 0.77462 0.0
C2576 C 0.94618 0.6693 0.77906 0.0
C2577 C 0.92023 0.68032 0.7673 0.0
C2578 C 0.92151 0.67738 0.78414 0.0
C2579 C 0.9297 0.67345 0.78751 0.0
C2580 C 0.91485 0.67883 0.79859 0.0
C2581 C 0.91109 0.6839 0.76267 0.0
C2582 C 0.91632 0.69032 0.80241 0.0
C2583 C 0.91046 0.69183 0.81644 0.0
C2584 C 0.9031 0.68192 0.82706 0.0
C2585 C 0.90164 0.67041 0.82316 0.0
C2586 C 0.90747 0.66889 0.80908 0.0
H2587 H 0.90858 0.68208 0.749 0.0
H2588 H 0.90273 0.67891 0.77044 0.0
H2589 H 0.9151 0.69386 0.76504 0.0
H2590 H 0.92218 0.69818 0.79471 0.0
H2591 H 0.91173 0.7008 0.81899 0.0
H2592 H 0.35924 0.30114 0.72713 0.0
H2593 H 0.35284 0.28501 0.74803 0.0
H2594 H 0.3154 0.27205 0.73646 0.0
H2595 H 0.32169 0.28825 0.7154 0.0
H2596 H 0.32116 0.27373 0.77234 0.0
H2597 H 0.33819 0.24833 0.73497 0.0
H2598 H 0.34914 0.2643 0.73794 0.0
H2599 H 0.33569 0.25976 0.7257 0.0
C2600 C 0.34963 0.29493 0.72902 0.0
C2601 C 0.34099 0.29597 0.71943 0.0
C2602 C 0.346 0.28566 0.74093 0.0
C2603 C 0.33366 0.27721 0.74353 0.0
C2604 C 0.32497 0.27844 0.7345 0.0
H2605 H 0.30981 0.21047 0.80242 0.0
H2606 H 0.31169 0.22453 0.7799 0.0
C2607 C 0.3286 0.28772 0.72249 0.0
C2608 C 0.32996 0.2671 0.75568 0.0
H2609 H 0.33323 0.24269 0.76404 0.0
C2610 C 0.32367 0.26686 0.77046 0.0
C2611 C 0.33309 0.25804 0.75305 0.0
C2612 C 0.3393 0.25751 0.73698 0.0
C2613 C 0.32093 0.25811 0.7831 0.0
C2614 C 0.32469 0.2495 0.78091 0.0
C2615 C 0.33046 0.24939 0.76576 0.0
C2616 C 0.32329 0.24095 0.79455 0.0
C2617 C 0.31412 0.25822 0.79874 0.0
C2618 C 0.32934 0.24554 0.81009 0.0
C2619 C 0.32831 0.23757 0.8229 0.0
C2620 C 0.32124 0.22482 0.82041 0.0
C2621 C 0.31524 0.22024 0.80476 0.0
C2622 C 0.31633 0.22824 0.79189 0.0
H2623 H 0.30899 0.26291 0.79639 0.0
H2624 H 0.3077 0.24877 0.80308 0.0
H2625 H 0.32067 0.26321 0.80917 0.0
H2626 H 0.33492 0.25531 0.81229 0.0
H2627 H 0.33291 0.24141 0.83488 0.0
H2628 H 0.725 0.03321 0.72295 0.0
H2629 H 0.73727 0.04787 0.74507 0.0
H2630 H 0.71951 0.06828 0.73617 0.0
H2631 H 0.70693 0.05344 0.71411 0.0
H2632 H 0.75333 0.07237 0.74084 0.0
H2633 H 0.71764 0.06498 0.7878 0.0
H2634 H 0.71486 0.05442 0.77046 0.0
H2635 H 0.71541 0.06857 0.7666 0.0
C2636 C 0.72359 0.04074 0.72575 0.0
C2637 C 0.71497 0.04215 0.71672 0.0
C2638 C 0.73063 0.04913 0.73841 0.0
C2639 C 0.72926 0.05912 0.74234 0.0
C2640 C 0.72057 0.06051 0.73354 0.0
H2641 H 0.77353 0.11758 0.81656 0.0
H2642 H 0.76015 0.10665 0.79242 0.0
C2643 C 0.71342 0.05204 0.7209 0.0
C2644 C 0.73735 0.06825 0.75519 0.0
H2645 H 0.73778 0.08005 0.79465 0.0
C2646 C 0.74992 0.07412 0.75254 0.0
C2647 C 0.73287 0.07055 0.77041 0.0
C2648 C 0.71947 0.06425 0.77413 0.0
C2649 C 0.75814 0.08194 0.76492 0.0
C2650 C 0.75366 0.08392 0.78032 0.0
C2651 C 0.74112 0.07849 0.78275 0.0
C2652 C 0.76187 0.0907 0.79463 0.0
C2653 C 0.77156 0.08785 0.76166 0.0
C2654 C 0.76717 0.08528 0.80381 0.0
C2655 C 0.77465 0.09138 0.81769 0.0
C2656 C 0.77705 0.10308 0.82263 0.0
C2657 C 0.77178 0.10854 0.81324 0.0
C2658 C 0.76419 0.10235 0.79941 0.0
H2659 H 0.77357 0.08736 0.748 0.0
H2660 H 0.77639 0.09759 0.76584 0.0
H2661 H 0.77518 0.08309 0.76913 0.0
H2662 H 0.76534 0.07622 0.80037 0.0
H2663 H 0.77829 0.08676 0.82481 0.0
H2664 H 0.04323 0.36665 0.0128 0.0
H2665 H 0.05959 0.36355 0.02243 0.0
H2666 H 0.03857 0.34492 0.06682 0.0
H2667 H 0.02206 0.34749 0.05688 0.0
H2668 H 0.07387 0.36982 0.04952 0.0
H2669 H 0.04481 0.31946 0.04765 0.0
H2670 H 0.03997 0.32932 0.03901 0.0
H2671 H 0.03854 0.32612 0.06146 0.0
C2672 C 0.04217 0.36198 0.02468 0.0
C2673 C 0.03133 0.35717 0.034 0.0
C2674 C 0.0515 0.36019 0.03015 0.0
C2675 C 0.05016 0.35366 0.04509 0.0
C2676 C 0.03964 0.34957 0.05493 0.0
H2677 H 0.10418 0.35125 0.10605 0.0
H2678 H 0.09138 0.35713 0.09108 0.0
C2679 C 0.03025 0.35115 0.04932 0.0
C2680 C 0.05961 0.35091 0.05032 0.0
H2681 H 0.06341 0.32758 0.06311 0.0
C2682 C 0.07162 0.36057 0.05232 0.0
C2683 C 0.05678 0.3388 0.05352 0.0
C2684 C 0.04435 0.32783 0.05011 0.0
C2685 C 0.08074 0.35851 0.05814 0.0
C2686 C 0.07769 0.34652 0.0626 0.0
C2687 C 0.06578 0.33681 0.05992 0.0
C2688 C 0.08647 0.34379 0.07069 0.0
C2689 C 0.09356 0.36922 0.05925 0.0
C2690 C 0.08786 0.33417 0.06446 0.0
C2691 C 0.09496 0.33061 0.07325 0.0
C2692 C 0.10094 0.3367 0.08833 0.0
C2693 C 0.09987 0.34656 0.09426 0.0
C2694 C 0.0926 0.34998 0.08565 0.0
H2695 H 0.09516 0.37634 0.04984 0.0
H2696 H 0.09511 0.37348 0.07211 0.0
H2697 H 0.10029 0.36634 0.05703 0.0
H2698 H 0.08319 0.3292 0.053 0.0
H2699 H 0.09563 0.32296 0.06843 0.0
H2700 H 0.64067 0.67765 0.02343 0.0
H2701 H 0.64479 0.69706 0.03632 0.0
H2702 H 0.67583 0.70038 0.06223 0.0
H2703 H 0.67177 0.68098 0.04948 0.0
H2704 H 0.64777 0.70393 0.07339 0.0
H2705 H 0.68846 0.73266 0.03367 0.0
H2706 H 0.67705 0.71723 0.02767 0.0
H2707 H 0.68791 0.71983 0.04389 0.0
C2708 C 0.64833 0.68248 0.03195 0.0
C2709 C 0.65593 0.67783 0.03539 0.0
C2710 C 0.65066 0.69354 0.03928 0.0
C2711 C 0.66069 0.70018 0.05001 0.0
C2712 C 0.66813 0.69543 0.05379 0.0
H2713 H 0.69515 0.76893 0.10401 0.0
H2714 H 0.6896 0.74975 0.08924 0.0
C2715 C 0.66576 0.68433 0.04657 0.0
C2716 C 0.66348 0.71213 0.05719 0.0
H2717 H 0.68438 0.74267 0.05603 0.0
C2718 C 0.65572 0.71243 0.06956 0.0
C2719 C 0.67386 0.72315 0.05211 0.0
C2720 C 0.68228 0.7233 0.03852 0.0
C2721 C 0.65829 0.72348 0.07742 0.0
C2722 C 0.66873 0.73453 0.07241 0.0
C2723 C 0.67638 0.73421 0.05983 0.0
C2724 C 0.6722 0.74644 0.08059 0.0
C2725 C 0.65004 0.72315 0.09144 0.0
C2726 C 0.66439 0.75111 0.08027 0.0
C2727 C 0.66754 0.76207 0.08875 0.0
C2728 C 0.67863 0.76865 0.09747 0.0
C2729 C 0.68661 0.76416 0.09724 0.0
C2730 C 0.68342 0.75317 0.08888 0.0
H2731 H 0.64436 0.7138 0.09666 0.0
H2732 H 0.65534 0.7295 0.10201 0.0
H2733 H 0.64388 0.72602 0.08629 0.0
H2734 H 0.65582 0.74623 0.07357 0.0
H2735 H 0.66128 0.76539 0.08855 0.0
H2736 H 0.32575 0.96591 0.01779 0.0
H2737 H 0.30656 0.95042 0.0303 0.0
H2738 H 0.30787 0.9774 0.06543 0.0
H2739 H 0.327 0.99303 0.05273 0.0
H2740 H 0.30142 0.94217 0.06302 0.0
H2741 H 0.27416 0.96284 0.04492 0.0
H2742 H 0.28893 0.96779 0.036 0.0
H2743 H 0.28757 0.97288 0.0569 0.0
C2744 C 0.32196 0.96856 0.02818 0.0
C2745 C 0.32784 0.9807 0.03422 0.0
C2746 C 0.31098 0.9597 0.0353 0.0
C2747 C 0.30567 0.9628 0.04857 0.0
C2748 C 0.31166 0.97487 0.05491 0.0
H2749 H 0.24264 0.92038 0.11187 0.0
H2750 H 0.26054 0.93663 0.09766 0.0
C2751 C 0.32263 0.98376 0.04774 0.0
C2752 C 0.294 0.9533 0.05597 0.0
H2753 H 0.26468 0.94567 0.06313 0.0
C2754 C 0.29337 0.94291 0.06297 0.0
C2755 C 0.28351 0.95429 0.05589 0.0
C2756 C 0.2835 0.96499 0.04789 0.0
C2757 C 0.2826 0.93355 0.0701 0.0
C2758 C 0.27212 0.93454 0.07002 0.0
C2759 C 0.27273 0.94494 0.0631 0.0
C2760 C 0.26055 0.92495 0.07745 0.0
C2761 C 0.28256 0.92279 0.07799 0.0
C2762 C 0.25439 0.91309 0.07043 0.0
C2763 C 0.24409 0.90378 0.07844 0.0
C2764 C 0.23974 0.90618 0.0936 0.0
C2765 C 0.24563 0.91822 0.10012 0.0
C2766 C 0.25592 0.92752 0.09208 0.0
H2767 H 0.29189 0.92468 0.08033 0.0
H2768 H 0.27753 0.9203 0.09023 0.0
H2769 H 0.27796 0.91477 0.06925 0.0
H2770 H 0.25771 0.91099 0.05895 0.0
H2771 H 0.23965 0.89465 0.07295 0.0
H2772 H 0.3429 0.01977 0.97597 0.0
H2773 H 0.34071 0.03657 0.96595 0.0
H2774 H 0.36867 0.06137 0.00067 0.0
H2775 H 0.37104 0.04452 0.01072 0.0
H2776 H 0.33409 0.05034 0.98704 0.0
H2777 H 0.37842 0.07986 0.95499 0.0
H2778 H 0.37291 0.06403 0.95979 0.0
H2779 H 0.37887 0.07537 0.97645 0.0
C2780 C 0.34871 0.02882 0.98136 0.0
C2781 C 0.35714 0.03081 0.99416 0.0
C2782 C 0.34743 0.03841 0.97562 0.0
C2783 C 0.35455 0.05022 0.98251 0.0
C2784 C 0.3632 0.05236 0.99502 0.0
H2785 H 0.3489 0.11381 0.95281 0.0
H2786 H 0.3549 0.10113 0.96837 0.0
C2787 C 0.36452 0.04272 0.00077 0.0
C2788 C 0.35229 0.05999 0.97713 0.0
H2789 H 0.36428 0.08642 0.95448 0.0
C2790 C 0.34073 0.05829 0.98005 0.0
C2791 C 0.36101 0.07041 0.96819 0.0
C2792 C 0.37349 0.07257 0.96452 0.0
C2793 C 0.33752 0.0665 0.97379 0.0
C2794 C 0.34603 0.07659 0.96413 0.0
C2795 C 0.35778 0.07864 0.96187 0.0
C2796 C 0.34249 0.08438 0.95497 0.0
C2797 C 0.32495 0.06418 0.97731 0.0
C2798 C 0.33367 0.07918 0.94216 0.0
C2799 C 0.33028 0.08636 0.93324 0.0
C2800 C 0.33565 0.09893 0.9369 0.0
C2801 C 0.3446 0.10417 0.94966 0.0
C2802 C 0.34802 0.09695 0.95859 0.0
H2803 H 0.32092 0.05845 0.98876 0.0
H2804 H 0.32507 0.0729 0.97917 0.0
H2805 H 0.319 0.05922 0.9663 0.0
H2806 H 0.3295 0.06956 0.9389 0.0
H2807 H 0.32363 0.08207 0.92319 0.0
H2808 H 0.9919 0.32896 0.97237 0.0
H2809 H 0.9761 0.31019 0.95855 0.0
H2810 H 0.95217 0.30395 0.00097 0.0
H2811 H 0.96771 0.32294 0.01443 0.0
H2812 H 0.96556 0.28727 0.96814 0.0
H2813 H 0.93021 0.2996 0.96249 0.0
H2814 H 0.94561 0.31063 0.96841 0.0
H2815 H 0.93505 0.30049 0.98407 0.0
C2816 C 0.98322 0.32363 0.97864 0.0
C2817 C 0.98099 0.32743 0.99439 0.0
C2818 C 0.97421 0.3129 0.97077 0.0
C2819 C 0.96285 0.30576 0.97857 0.0
C2820 C 0.9607 0.30948 0.99444 0.0
H2821 H 0.91306 0.2293 0.94968 0.0
H2822 H 0.9276 0.24811 0.96485 0.0
C2823 C 0.96963 0.3203 0.00218 0.0
C2824 C 0.95343 0.2942 0.97038 0.0
H2825 H 0.9239 0.27867 0.95737 0.0
C2826 C 0.95646 0.28542 0.96571 0.0
C2827 C 0.9416 0.29183 0.96701 0.0
C2828 C 0.93795 0.30119 0.97059 0.0
C2829 C 0.94801 0.27432 0.95784 0.0
C2830 C 0.93604 0.27176 0.95511 0.0
C2831 C 0.93302 0.28057 0.9597 0.0
C2832 C 0.92668 0.26027 0.9467 0.0
C2833 C 0.95211 0.26566 0.95211 0.0
C2834 C 0.92091 0.26083 0.93194 0.0
C2835 C 0.91244 0.25012 0.9235 0.0
C2836 C 0.90963 0.23864 0.92961 0.0
C2837 C 0.91517 0.23805 0.94462 0.0
C2838 C 0.92353 0.24878 0.95321 0.0
H2839 H 0.96213 0.27043 0.9507 0.0
H2840 H 0.94941 0.25843 0.96177 0.0
H2841 H 0.94791 0.2612 0.93977 0.0
H2842 H 0.92316 0.26958 0.92671 0.0
H2843 H 0.90841 0.25085 0.91185 0.0
H2844 H 0.67727 0.63679 0.00948 0.0
H2845 H 0.69651 0.63982 0.99843 0.0
H2846 H 0.69819 0.666 0.96258 0.0
H2847 H 0.67919 0.66325 0.97378 0.0
H2848 H 0.70385 0.63688 0.96676 0.0
H2849 H 0.73042 0.68548 0.98703 0.0
H2850 H 0.71512 0.6753 0.99423 0.0
H2851 H 0.71785 0.68237 0.97371 0.0
C2852 C 0.68172 0.64314 0.99917 0.0
C2853 C 0.67679 0.64988 0.99261 0.0
C2854 C 0.69271 0.64487 0.9929 0.0
C2855 C 0.69893 0.65336 0.97997 0.0
C2856 C 0.69372 0.65966 0.97289 0.0
H2857 H 0.7545 0.66201 0.91104 0.0
H2858 H 0.73568 0.65564 0.92643 0.0
C2859 C 0.68281 0.65801 0.97923 0.0
C2860 C 0.71089 0.65573 0.9739 0.0
H2861 H 0.74002 0.67874 0.96717 0.0
C2862 C 0.7118 0.64601 0.967 0.0
C2863 C 0.72133 0.66759 0.97457 0.0
C2864 C 0.72119 0.67825 0.98295 0.0
C2865 C 0.72274 0.64793 0.96005 0.0
C2866 C 0.73295 0.65994 0.95969 0.0
C2867 C 0.73217 0.66956 0.96727 0.0
C2868 C 0.74435 0.6629 0.95079 0.0
C2869 C 0.72323 0.63707 0.95319 0.0
C2870 C 0.75554 0.6693 0.95927 0.0
C2871 C 0.76636 0.67306 0.95044 0.0
C2872 C 0.76618 0.67048 0.93296 0.0
C2873 C 0.75494 0.6639 0.92458 0.0
C2874 C 0.74416 0.66022 0.93338 0.0
H2875 H 0.71638 0.62848 0.95943 0.0
H2876 H 0.7212 0.63604 0.93936 0.0
H2877 H 0.73234 0.63826 0.95503 0.0
H2878 H 0.7559 0.67154 0.97269 0.0
H2879 H 0.77487 0.67808 0.95725 0.0
H2880 H 0.98445 0.66526 0.97629 0.0
H2881 H 0.96737 0.66635 0.96524 0.0
H2882 H 0.9426 0.63418 0.99344 0.0
H2883 H 0.95979 0.63315 0.00491 0.0
H2884 H 0.94796 0.6496 0.94601 0.0
H2885 H 0.93249 0.65867 0.00788 0.0
H2886 H 0.94701 0.6598 0.00544 0.0
H2887 H 0.93342 0.64506 0.0067 0.0
C2888 C 0.97538 0.65838 0.98016 0.0
C2889 C 0.97348 0.64914 0.99154 0.0
C2890 C 0.96562 0.65903 0.97381 0.0
C2891 C 0.95372 0.65045 0.97868 0.0
C2892 C 0.95173 0.64104 0.98978 0.0
H2893 H 0.88926 0.65192 0.94333 0.0
H2894 H 0.90179 0.64481 0.95669 0.0
C2895 C 0.96154 0.64041 0.99622 0.0
C2896 C 0.94356 0.65154 0.97191 0.0
H2897 H 0.92193 0.65836 0.98331 0.0
C2898 C 0.94218 0.65137 0.95418 0.0
C2899 C 0.93601 0.65384 0.9826 0.0
C2900 C 0.93731 0.65446 0.00171 0.0
C2901 C 0.93374 0.65384 0.94685 0.0
C2902 C 0.92655 0.6566 0.95751 0.0
C2903 C 0.92749 0.65623 0.97523 0.0
C2904 C 0.91884 0.66098 0.95036 0.0
C2905 C 0.93279 0.65377 0.92772 0.0
C2906 C 0.92431 0.67249 0.94274 0.0
C2907 C 0.91725 0.67657 0.93518 0.0
C2908 C 0.90452 0.66921 0.9351 0.0
C2909 C 0.89904 0.65776 0.9431 0.0
C2910 C 0.90616 0.65371 0.95077 0.0
H2911 H 0.93678 0.64875 0.9215 0.0
H2912 H 0.92318 0.64954 0.9237 0.0
H2913 H 0.93776 0.66334 0.92315 0.0
H2914 H 0.9341 0.67826 0.9424 0.0
H2915 H 0.92179 0.68534 0.92891 0.0
H2916 H 0.33267 0.32335 0.97602 0.0
H2917 H 0.32901 0.30425 0.96264 0.0
H2918 H 0.36069 0.30827 0.98756 0.0
H2919 H 0.36424 0.32718 0.00124 0.0
H2920 H 0.34303 0.29934 0.94129 0.0
H2921 H 0.33441 0.27419 0.00178 0.0
H2922 H 0.33502 0.28864 0.00053 0.0
H2923 H 0.34879 0.28821 0.00116 0.0
C2924 C 0.33887 0.32017 0.97859 0.0
C2925 C 0.34867 0.32669 0.98978 0.0
C2926 C 0.33677 0.30927 0.97096 0.0
C2927 C 0.34444 0.30472 0.9744 0.0
C2928 C 0.35448 0.31145 0.98508 0.0
H2929 H 0.34591 0.24721 0.91511 0.0
H2930 H 0.35133 0.2664 0.92975 0.0
C2931 C 0.35655 0.3223 0.99279 0.0
C2932 C 0.34191 0.29293 0.96682 0.0
H2933 H 0.33596 0.26435 0.97683 0.0
C2934 C 0.34147 0.29168 0.94904 0.0
C2935 C 0.33971 0.2829 0.977 0.0
C2936 C 0.33938 0.28347 0.99617 0.0
C2937 C 0.339 0.28069 0.94113 0.0
C2938 C 0.33719 0.2708 0.95129 0.0
C2939 C 0.33751 0.27201 0.96908 0.0
C2940 C 0.33447 0.25895 0.94369 0.0
C2941 C 0.33806 0.27969 0.92197 0.0
C2942 C 0.32347 0.24826 0.94736 0.0
C2943 C 0.32043 0.23721 0.93927 0.0
C2944 C 0.32835 0.23666 0.92733 0.0
C2945 C 0.33963 0.24728 0.9243 0.0
C2946 C 0.34268 0.25831 0.93247 0.0
H2947 H 0.33656 0.28681 0.91647 0.0
H2948 H 0.34664 0.28095 0.91663 0.0
H2949 H 0.33054 0.27056 0.91786 0.0
H2950 H 0.31706 0.24853 0.95613 0.0
H2951 H 0.31177 0.22916 0.94211 0.0
H2952 H 0.67655 0.01101 0.97596 0.0
H2953 H 0.69553 0.02697 0.9634 0.0
H2954 H 0.69577 0.05365 0.99805 0.0
H2955 H 0.67669 0.03778 0.01051 0.0
H2956 H 0.70156 0.06193 0.96469 0.0
H2957 H 0.72878 0.04202 0.98608 0.0
H2958 H 0.71557 0.0315 0.97408 0.0
H2959 H 0.71386 0.03715 0.99437 0.0
C2960 C 0.68063 0.02028 0.98088 0.0
C2961 C 0.67518 0.02313 0.9943 0.0
C2962 C 0.69151 0.02937 0.97376 0.0
C2963 C 0.69718 0.04144 0.98003 0.0
C2964 C 0.69159 0.04437 0.99312 0.0
H2965 H 0.7652 0.10726 0.94953 0.0
H2966 H 0.74635 0.09329 0.96458 0.0
C2967 C 0.6807 0.03529 0.00022 0.0
C2968 C 0.70893 0.05099 0.9729 0.0
H2969 H 0.73808 0.05809 0.96595 0.0
C2970 C 0.70959 0.06117 0.96509 0.0
C2971 C 0.7194 0.05001 0.97357 0.0
C2972 C 0.71944 0.03964 0.98262 0.0
C2973 C 0.72033 0.07015 0.95732 0.0
C2974 C 0.73068 0.06897 0.95759 0.0
C2975 C 0.7301 0.05894 0.96574 0.0
C2976 C 0.74201 0.0776 0.94859 0.0
C2977 C 0.72042 0.08061 0.94837 0.0
C2978 C 0.74585 0.07335 0.9348 0.0
C2979 C 0.75654 0.08126 0.92621 0.0
C2980 C 0.76372 0.09359 0.93132 0.0
C2981 C 0.75985 0.09784 0.94519 0.0
C2982 C 0.74909 0.08989 0.95379 0.0
H2983 H 0.71113 0.07901 0.94671 0.0
H2984 H 0.72577 0.08913 0.95598 0.0
H2985 H 0.72476 0.08205 0.93567 0.0
H2986 H 0.7405 0.06391 0.93056 0.0
H2987 H 0.75908 0.07772 0.91536 0.0
H2988 H 0.65884 0.98233 0.05214 0.0
H2989 H 0.66046 0.96511 0.06194 0.0
H2990 H 0.634 0.94155 0.02464 0.0
H2991 H 0.63213 0.95876 0.01494 0.0
H2992 H 0.63046 0.93041 0.05578 0.0
H2993 H 0.67844 0.9514 0.03609 0.0
H2994 H 0.67601 0.96117 0.05011 0.0
H2995 H 0.66897 0.95725 0.02944 0.0
C2996 C 0.65331 0.97348 0.04606 0.0
C2997 C 0.64543 0.97193 0.03266 0.0
C2998 C 0.65431 0.96366 0.05161 0.0
C2999 C 0.64758 0.95212 0.04374 0.0
C3000 C 0.63936 0.95041 0.03078 0.0
H3001 H 0.66892 0.89808 0.06277 0.0
H3002 H 0.66292 0.91105 0.04814 0.0
C3003 C 0.6383 0.96024 0.02527 0.0
C3004 C 0.64926 0.94193 0.04906 0.0
H3005 H 0.67097 0.93445 0.05497 0.0
C3006 C 0.63928 0.93122 0.05544 0.0
C3007 C 0.66072 0.94287 0.04827 0.0
C3008 C 0.67162 0.95374 0.04044 0.0
C3009 C 0.64058 0.92168 0.06177 0.0
C3010 C 0.65222 0.92299 0.06202 0.0
C3011 C 0.66207 0.93347 0.05495 0.0
C3012 C 0.65457 0.91397 0.0703 0.0
C3013 C 0.62947 0.91029 0.06809 0.0
C3014 C 0.65179 0.9112 0.08757 0.0
C3015 C 0.65514 0.90375 0.0959 0.0
C3016 C 0.6615 0.89903 0.0872 0.0
C3017 C 0.66405 0.9016 0.06982 0.0
C3018 C 0.66062 0.90899 0.06145 0.0
H3019 H 0.62113 0.90891 0.06183 0.0
H3020 H 0.63014 0.90203 0.0658 0.0
H3021 H 0.6285 0.91124 0.08198 0.0
H3022 H 0.64747 0.91521 0.09483 0.0
H3023 H 0.65328 0.90219 0.10938 0.0
H3024 H 0.03887 0.67857 0.0185 0.0
H3025 H 0.05479 0.69717 0.03242 0.0
H3026 H 0.02768 0.70022 0.06108 0.0
H3027 H 0.01174 0.68145 0.04753 0.0
H3028 H 0.05861 0.72009 0.03156 0.0
H3029 H 0.05104 0.70404 0.09813 0.0
H3030 H 0.04429 0.69371 0.08023 0.0
H3031 H 0.03759 0.70218 0.08841 0.0
C3032 C 0.03631 0.68314 0.02789 0.0
C3033 C 0.02406 0.67853 0.03199 0.0
C3034 C 0.04541 0.69378 0.03581 0.0
C3035 C 0.04244 0.69999 0.04797 0.0
C3036 C 0.03021 0.69542 0.05204 0.0
H3037 H 0.08507 0.77545 0.08093 0.0
H3038 H 0.07152 0.75621 0.06609 0.0
C3039 C 0.0211 0.68473 0.04422 0.0
C3040 C 0.0521 0.71152 0.05588 0.0
H3041 H 0.06359 0.72558 0.09416 0.0
C3042 C 0.05977 0.72127 0.04525 0.0
C3043 C 0.05373 0.71298 0.07372 0.0
C3044 C 0.04631 0.70263 0.08578 0.0
C3045 C 0.06881 0.73255 0.05199 0.0
C3046 C 0.07003 0.7342 0.06985 0.0
C3047 C 0.06257 0.72435 0.08047 0.0
C3048 C 0.07883 0.74609 0.07789 0.0
C3049 C 0.07704 0.74254 0.03991 0.0
C3050 C 0.08736 0.74678 0.0896 0.0
C3051 C 0.09498 0.75771 0.09831 0.0
C3052 C 0.09421 0.76819 0.09553 0.0
C3053 C 0.08585 0.76754 0.08347 0.0
C3054 C 0.07819 0.75658 0.07482 0.0
H3055 H 0.07742 0.73874 0.02727 0.0
H3056 H 0.07348 0.74876 0.03801 0.0
H3057 H 0.08638 0.74801 0.04507 0.0
H3058 H 0.08795 0.73877 0.09225 0.0
H3059 H 0.10114 0.75779 0.10771 0.0
H3060 H 0.32788 0.36809 0.02002 0.0
H3061 H 0.30903 0.36535 0.0323 0.0
H3062 H 0.3057 0.33609 0.0633 0.0
H3063 H 0.32447 0.3388 0.05127 0.0
H3064 H 0.28574 0.34363 0.03132 0.0
H3065 H 0.30166 0.35841 0.09756 0.0
H3066 H 0.31195 0.36193 0.0799 0.0
H3067 H 0.30474 0.34704 0.08936 0.0
C3068 C 0.3232 0.36118 0.02961 0.0
C3069 C 0.32769 0.3537 0.03474 0.0
C3070 C 0.31243 0.35959 0.03655 0.0
C3071 C 0.30606 0.35061 0.04883 0.0
C3072 C 0.31058 0.34321 0.05406 0.0
H3073 H 0.23983 0.32152 0.10618 0.0
H3074 H 0.25799 0.32493 0.09108 0.0
C3075 C 0.3213 0.34476 0.04711 0.0
C3076 C 0.29445 0.34859 0.05584 0.0
H3077 H 0.28032 0.34791 0.09308 0.0
C3078 C 0.28456 0.34468 0.04479 0.0
C3079 C 0.29297 0.34995 0.07341 0.0
C3080 C 0.30341 0.35467 0.08574 0.0
C3081 C 0.27309 0.34172 0.05097 0.0
C3082 C 0.27156 0.34285 0.06859 0.0
C3083 C 0.28151 0.34696 0.07958 0.0
C3084 C 0.25976 0.33987 0.07603 0.0
C3085 C 0.26261 0.33708 0.03872 0.0
C3086 C 0.25462 0.347 0.07233 0.0
C3087 C 0.24421 0.34504 0.0809 0.0
C3088 C 0.23878 0.33593 0.09334 0.0
C3089 C 0.24369 0.32849 0.09651 0.0
C3090 C 0.25412 0.33049 0.08799 0.0
H3091 H 0.26466 0.33429 0.02628 0.0
H3092 H 0.25434 0.32917 0.04414 0.0
H3093 H 0.26061 0.34445 0.0364 0.0
H3094 H 0.25892 0.35438 0.0633 0.0
H3095 H 0.2406 0.35088 0.07814 0.0
H3096 H 0.70894 0.70129 0.3484 0.0
H3097 H 0.72521 0.69829 0.35872 0.0
H3098 H 0.70098 0.67322 0.39643 0.0
H3099 H 0.68466 0.6759 0.38591 0.0
H3100 H 0.73638 0.70205 0.38916 0.0
H3101 H 0.71252 0.6527 0.37291 0.0
H3102 H 0.70737 0.66265 0.3656 0.0
H3103 H 0.70365 0.65642 0.3867 0.0
C3104 C 0.70712 0.69519 0.35894 0.0
C3105 C 0.69549 0.68874 0.36623 0.0
C3106 C 0.7164 0.69346 0.36481 0.0
C3107 C 0.71422 0.68528 0.37806 0.0
C3108 C 0.70277 0.67928 0.38584 0.0
H3109 H 0.76359 0.67935 0.44453 0.0
H3110 H 0.75067 0.68509 0.4297 0.0
C3111 C 0.69348 0.6809 0.3799 0.0
C3112 C 0.72386 0.68298 0.38382 0.0
H3113 H 0.72952 0.66005 0.39166 0.0
C3114 C 0.73493 0.69289 0.38955 0.0
C3115 C 0.7221 0.67105 0.38397 0.0
C3116 C 0.71082 0.66012 0.37679 0.0
C3117 C 0.74408 0.69112 0.39609 0.0
C3118 C 0.74197 0.6791 0.39731 0.0
C3119 C 0.7311 0.66926 0.39092 0.0
C3120 C 0.75063 0.6764 0.40581 0.0
C3121 C 0.75591 0.70218 0.40156 0.0
C3122 C 0.75477 0.66939 0.39747 0.0
C3123 C 0.7621 0.66598 0.40601 0.0
C3124 C 0.76544 0.66953 0.42306 0.0
C3125 C 0.76143 0.67671 0.43128 0.0
C3126 C 0.75405 0.68003 0.42279 0.0
H3127 H 0.75765 0.71048 0.39462 0.0
H3128 H 0.75547 0.70394 0.41533 0.0
H3129 H 0.76365 0.70076 0.39938 0.0
H3130 H 0.7522 0.66642 0.3844 0.0
H3131 H 0.76505 0.66047 0.39933 0.0
H3132 H 0.33284 0.00963 0.39007 0.0
H3133 H 0.33669 0.02858 0.40414 0.0
H3134 H 0.31238 0.03109 0.36908 0.0
H3135 H 0.30824 0.01203 0.35529 0.0
H3136 H 0.34654 0.05122 0.39096 0.0
H3137 H 0.30016 0.03602 0.41411 0.0
H3138 H 0.30452 0.02544 0.40625 0.0
H3139 H 0.3007 0.03371 0.39164 0.0
C3140 C 0.32822 0.01416 0.38549 0.0
C3141 C 0.32019 0.00932 0.37164 0.0
C3142 C 0.33044 0.02499 0.39351 0.0
C3143 C 0.32469 0.03116 0.38782 0.0
C3144 C 0.31669 0.02634 0.37396 0.0
H3145 H 0.34974 0.10798 0.40965 0.0
H3146 H 0.34449 0.0885 0.39579 0.0
C3147 C 0.3144 0.01547 0.36603 0.0
C3148 C 0.32742 0.0429 0.39591 0.0
H3149 H 0.31435 0.05746 0.41526 0.0
C3150 C 0.33952 0.05258 0.39635 0.0
C3151 C 0.31826 0.0446 0.40309 0.0
C3152 C 0.3052 0.03435 0.40392 0.0
C3153 C 0.34269 0.06397 0.40362 0.0
C3154 C 0.33346 0.06581 0.41023 0.0
C3155 C 0.32139 0.05608 0.40996 0.0
C3156 C 0.3362 0.07758 0.41819 0.0
C3157 C 0.35591 0.0738 0.40449 0.0
C3158 C 0.33287 0.07784 0.43516 0.0
C3159 C 0.33572 0.0889 0.443 0.0
C3160 C 0.34195 0.09993 0.43403 0.0
C3161 C 0.34505 0.09963 0.41692 0.0
C3162 C 0.34211 0.08853 0.40903 0.0
H3163 H 0.36191 0.06993 0.40313 0.0
H3164 H 0.35803 0.08031 0.39395 0.0
H3165 H 0.35806 0.07898 0.41671 0.0
H3166 H 0.32829 0.06951 0.44247 0.0
H3167 H 0.33335 0.08885 0.45627 0.0
H3168 H 0.99539 0.30006 0.35397 0.0
H3169 H 0.97623 0.28463 0.36655 0.0
H3170 H 0.97578 0.31237 0.3981 0.0
H3171 H 0.99498 0.32796 0.38538 0.0
H3172 H 0.97096 0.27817 0.4008 0.0
H3173 H 0.94225 0.2953 0.37499 0.0
H3174 H 0.95723 0.3002 0.3669 0.0
H3175 H 0.95543 0.30631 0.38669 0.0
C3176 C 0.99124 0.3029 0.36359 0.0
C3177 C 0.99667 0.31524 0.36864 0.0
C3178 C 0.98028 0.29406 0.37076 0.0
C3179 C 0.97449 0.29738 0.38305 0.0
C3180 C 0.97998 0.30966 0.38838 0.0
H3181 H 0.90798 0.25274 0.44024 0.0
H3182 H 0.92612 0.26981 0.42751 0.0
C3183 C 0.99098 0.31853 0.3812 0.0
C3184 C 0.96283 0.28786 0.39044 0.0
H3185 H 0.93271 0.27834 0.39336 0.0
C3186 C 0.96259 0.27821 0.39918 0.0
C3187 C 0.95195 0.28797 0.38834 0.0
C3188 C 0.95163 0.29793 0.37861 0.0
C3189 C 0.95177 0.26864 0.40589 0.0
C3190 C 0.94085 0.26861 0.40352 0.0
C3191 C 0.9411 0.27837 0.39505 0.0
C3192 C 0.92911 0.25847 0.4098 0.0
C3193 C 0.95216 0.25872 0.41568 0.0
C3194 C 0.92453 0.24651 0.40357 0.0
C3195 C 0.91414 0.23675 0.41076 0.0
C3196 C 0.90811 0.23878 0.42424 0.0
C3197 C 0.91234 0.25087 0.42977 0.0
C3198 C 0.92275 0.26063 0.42259 0.0
H3199 H 0.96148 0.26166 0.42001 0.0
H3200 H 0.94611 0.25601 0.42696 0.0
H3201 H 0.949 0.25054 0.40732 0.0
H3202 H 0.92917 0.24469 0.39344 0.0
H3203 H 0.911 0.22757 0.40604 0.0
H3204 H 0.03781 0.37788 0.34818 0.0
H3205 H 0.03605 0.39493 0.33757 0.0
H3206 H 0.0151 0.37262 0.29485 0.0
H3207 H 0.01635 0.35543 0.30582 0.0
H3208 H 0.04266 0.40811 0.30976 0.0
H3209 H 0.99262 0.38289 0.31305 0.0
H3210 H 0.00146 0.37699 0.32202 0.0
H3211 H 0.99789 0.37508 0.29963 0.0
C3212 C 0.03287 0.37665 0.33649 0.0
C3213 C 0.02708 0.36529 0.32794 0.0
C3214 C 0.03186 0.38639 0.33045 0.0
C3215 C 0.02515 0.38496 0.31566 0.0
C3216 C 0.01995 0.37382 0.30661 0.0
H3217 H 0.0274 0.44146 0.25336 0.0
H3218 H 0.0317 0.42728 0.26795 0.0
C3219 C 0.02076 0.36403 0.31281 0.0
C3220 C 0.02347 0.39506 0.30975 0.0
H3221 H 0.0019 0.40133 0.29704 0.0
C3222 C 0.03374 0.40667 0.30713 0.0
C3223 C 0.01182 0.39329 0.30671 0.0
C3224 C 1.00033 0.38142 0.31068 0.0
C3225 C 0.0327 0.41642 0.30102 0.0
C3226 C 0.02109 0.4144 0.29688 0.0
C3227 C 0.01082 0.40289 0.30001 0.0
C3228 C 0.01932 0.4239 0.28884 0.0
C3229 C 0.04405 0.4288 0.29934 0.0
C3230 C 0.01076 0.42661 0.29549 0.0
C3231 C 0.00809 0.43452 0.28693 0.0
C3232 C 0.01405 0.43998 0.27167 0.0
C3233 C 0.02286 0.43757 0.26529 0.0
C3234 C 0.02537 0.4295 0.27368 0.0
H3235 H 0.05114 0.42991 0.30844 0.0
H3236 H 0.04777 0.42968 0.28631 0.0
H3237 H 0.0422 0.43632 0.30159 0.0
H3238 H 0.00593 0.42238 0.30712 0.0
H3239 H 1.00124 0.43621 0.29209 0.0
H3240 H 0.63146 0.65872 0.34233 0.0
H3241 H 0.61557 0.63978 0.32919 0.0
H3242 H 0.64121 0.64133 0.29208 0.0
H3243 H 0.65727 0.66014 0.3055 0.0
H3244 H 0.60597 0.6346 0.2978 0.0
H3245 H 0.62747 0.60727 0.31051 0.0
H3246 H 0.63285 0.62215 0.32001 0.0
H3247 H 0.63699 0.62079 0.29852 0.0
C3248 C 0.63373 0.65503 0.33136 0.0
C3249 C 0.64563 0.66085 0.32502 0.0
C3250 C 0.62463 0.64421 0.32386 0.0
C3251 C 0.62724 0.639 0.30985 0.0
C3252 C 0.63905 0.64501 0.30315 0.0
H3253 H 0.57564 0.58362 0.24069 0.0
H3254 H 0.58971 0.60267 0.25546 0.0
C3255 C 0.6482 0.65579 0.31075 0.0
C3256 C 0.61757 0.62732 0.3023 0.0
H3257 H 0.6103 0.59818 0.29221 0.0
C3258 C 0.60689 0.62661 0.29664 0.0
C3259 C 0.61868 0.61683 0.30111 0.0
C3260 C 0.62956 0.61672 0.30802 0.0
C3261 C 0.59737 0.61578 0.2895 0.0
C3262 C 0.59872 0.60547 0.28759 0.0
C3263 C 0.60931 0.60611 0.29356 0.0
C3264 C 0.58941 0.594 0.27912 0.0
C3265 C 0.58592 0.61545 0.28434 0.0
C3266 C 0.58465 0.58274 0.28741 0.0
C3267 C 0.57669 0.57181 0.27891 0.0
C3268 C 0.57332 0.57194 0.26197 0.0
C3269 C 0.57787 0.58324 0.25384 0.0
C3270 C 0.58591 0.59415 0.26229 0.0
H3271 H 0.58479 0.6224 0.29148 0.0
H3272 H 0.5864 0.61755 0.2706 0.0
H3273 H 0.57779 0.6063 0.2865 0.0
H3274 H 0.58726 0.5824 0.30038 0.0
H3275 H 0.57331 0.56324 0.28549 0.0
H3276 H 0.33857 0.96551 0.343 0.0
H3277 H 0.35682 0.96674 0.33105 0.0
H3278 H 0.36211 0.9962 0.29874 0.0
H3279 H 0.34405 0.9952 0.31083 0.0
H3280 H 0.36232 0.96392 0.29809 0.0
H3281 H 0.39493 0.0107 0.32175 0.0
H3282 H 0.37953 0.00201 0.3294 0.0
H3283 H 0.38282 0.00994 0.3095 0.0
C3284 C 0.34362 0.97224 0.33334 0.0
C3285 C 0.33992 0.98031 0.32793 0.0
C3286 C 0.35405 0.97294 0.32655 0.0
C3287 C 0.36097 0.98174 0.31428 0.0
C3288 C 0.3571 0.98957 0.30853 0.0
H3289 H 0.42144 0.99967 0.24911 0.0
H3290 H 0.40464 0.99854 0.26533 0.0
C3291 C 0.34671 0.98892 0.31536 0.0
C3292 C 0.37209 0.98257 0.30719 0.0
H3293 H 0.40235 0.00235 0.30086 0.0
C3294 C 0.3711 0.97228 0.29885 0.0
C3295 C 0.38355 0.99347 0.30826 0.0
C3296 C 0.38532 0.00462 0.31786 0.0
C3297 C 0.38117 0.97273 0.29099 0.0
C3298 C 0.39255 0.98372 0.29171 0.0
C3299 C 0.3936 0.99394 0.30033 0.0
C3300 C 0.40333 0.98496 0.28285 0.0
C3301 C 0.37947 0.96159 0.28146 0.0
C3302 C 0.40838 0.97794 0.28764 0.0
C3303 C 0.41808 0.97863 0.27846 0.0
C3304 C 0.42293 0.9864 0.26437 0.0
C3305 C 0.41808 0.99372 0.26002 0.0
C3306 C 0.40841 0.99303 0.26921 0.0
H3307 H 0.36974 0.95474 0.27922 0.0
H3308 H 0.3842 0.96419 0.26899 0.0
H3309 H 0.38343 0.95718 0.28899 0.0
H3310 H 0.40473 0.97183 0.29835 0.0
H3311 H 0.42172 0.97301 0.28231 0.0
H3312 H 0.62729 0.9613 0.3364 0.0
H3313 H 0.61006 0.96181 0.32415 0.0
H3314 H 0.63473 0.9949 0.29763 0.0
H3315 H 0.65194 0.99434 0.30953 0.0
H3316 H 0.6041 0.97963 0.32787 0.0
H3317 H 0.61184 0.97385 0.25987 0.0
H3318 H 0.61932 0.97083 0.27682 0.0
H3319 H 0.62494 0.98626 0.26996 0.0
C3320 C 0.62904 0.9686 0.3278 0.0
C3321 C 0.64098 0.97774 0.32386 0.0
C3322 C 0.61919 0.9689 0.32086 0.0
C3323 C 0.6211 0.9783 0.30979 0.0
C3324 C 0.63302 0.98741 0.30583 0.0
H3325 H 0.57458 0.00603 0.28367 0.0
H3326 H 0.58894 0.00148 0.29698 0.0
C3327 C 0.64286 0.98711 0.31272 0.0
C3328 C 0.6107 0.9789 0.30287 0.0
H3329 H 0.5982 0.98097 0.26581 0.0
C3330 C 0.60273 0.9798 0.3143 0.0
C3331 C 0.60881 0.97896 0.28517 0.0
C3332 C 0.61661 0.9773 0.27224 0.0
C3333 C 0.59317 0.98116 0.3085 0.0
C3334 C 0.59168 0.98186 0.29081 0.0
C3335 C 0.59941 0.98056 0.27938 0.0
C3336 C 0.58234 0.98417 0.28378 0.0
C3337 C 0.58473 0.98178 0.32137 0.0
C3338 C 0.57391 0.97602 0.27182 0.0
C3339 C 0.5658 0.97869 0.264 0.0
C3340 C 0.56598 0.9896 0.26794 0.0
C3341 C 0.57424 0.9976 0.28026 0.0
C3342 C 0.58237 0.99493 0.28803 0.0
H3343 H 0.58476 0.97747 0.33355 0.0
H3344 H 0.58776 0.99151 0.32411 0.0
H3345 H 0.57529 0.9772 0.31647 0.0
H3346 H 0.57378 0.96771 0.26825 0.0
H3347 H 0.55973 0.97242 0.25437 0.0
H3348 H 0.999 0.65825 0.31018 0.0
H3349 H 0.99623 0.63965 0.29613 0.0
H3350 H 0.02624 0.64276 0.32474 0.0
H3351 H 0.02891 0.66113 0.33898 0.0
H3352 H 0.01211 0.63618 0.27635 0.0
H3353 H 0.99967 0.60777 0.33413 0.0
H3354 H 0.99986 0.62204 0.33361 0.0
H3355 H 0.01373 0.622 0.33644 0.0
C3356 C 0.00499 0.65495 0.31347 0.0
C3357 C 0.01411 0.66109 0.32576 0.0
C3358 C 0.00339 0.64433 0.30546 0.0
C3359 C 0.01086 0.63968 0.30968 0.0
C3360 C 0.02016 0.64599 0.32163 0.0
H3361 H 0.02678 0.58583 0.27304 0.0
H3362 H 0.02544 0.60208 0.2881 0.0
C3363 C 0.02174 0.65655 0.32966 0.0
C3364 C 0.0092 0.62841 0.30133 0.0
H3365 H 0.00522 0.6003 0.30964 0.0
C3366 C 0.01043 0.62827 0.28359 0.0
C3367 C 0.00698 0.61808 0.31081 0.0
C3368 C 0.00486 0.6174 0.32978 0.0
C3369 C 0.01 0.61826 0.27515 0.0
C3370 C 0.00819 0.60813 0.28472 0.0
C3371 C 0.00666 0.60813 0.30239 0.0
C3372 C 0.0084 0.59769 0.27662 0.0
C3373 C 0.01191 0.61874 0.25615 0.0
C3374 C 0.99909 0.58967 0.26557 0.0
C3375 C 0.9998 0.58037 0.25701 0.0
C3376 C 0.00988 0.57897 0.25933 0.0
C3377 C 0.01897 0.58676 0.27089 0.0
C3378 C 0.0182 0.59601 0.27952 0.0
H3379 H 0.01505 0.62799 0.25102 0.0
H3380 H 0.01866 0.61608 0.2528 0.0
H3381 H 0.00324 0.61214 0.24981 0.0
H3382 H 0.9914 0.59079 0.2633 0.0
H3383 H 0.99272 0.57459 0.24806 0.0
H3384 H 0.34196 0.3454 0.3069 0.0
H3385 H 0.36083 0.36103 0.29363 0.0
H3386 H 0.36327 0.38781 0.33014 0.0
H3387 H 0.34427 0.37235 0.34311 0.0
H3388 H 0.36871 0.3971 0.29879 0.0
H3389 H 0.39443 0.37408 0.31257 0.0
H3390 H 0.38095 0.36472 0.30035 0.0
H3391 H 0.37975 0.3692 0.32175 0.0
C3392 C 0.34651 0.35463 0.31205 0.0
C3393 C 0.34169 0.35764 0.32611 0.0
C3394 C 0.35734 0.36353 0.30454 0.0
C3395 C 0.36361 0.37553 0.31113 0.0
C3396 C 0.35863 0.3786 0.32491 0.0
H3397 H 0.43934 0.42866 0.28899 0.0
H3398 H 0.42012 0.41448 0.30301 0.0
C3399 C 0.34777 0.36975 0.33231 0.0
C3400 C 0.37534 0.38495 0.3037 0.0
H3401 H 0.404 0.39132 0.29445 0.0
C3402 C 0.37645 0.39586 0.2979 0.0
C3403 C 0.3855 0.38342 0.30284 0.0
C3404 C 0.38517 0.37228 0.30986 0.0
C3405 C 0.38736 0.4052 0.29101 0.0
C3406 C 0.39736 0.40345 0.28947 0.0
C3407 C 0.39631 0.39262 0.29552 0.0
C3408 C 0.40892 0.41262 0.28137 0.0
C3409 C 0.3881 0.41692 0.28574 0.0
C3410 C 0.40902 0.41628 0.26458 0.0
C3411 C 0.41995 0.42445 0.25665 0.0
C3412 C 0.43103 0.42898 0.26525 0.0
C3413 C 0.43094 0.42532 0.28207 0.0
C3414 C 0.41997 0.41723 0.29007 0.0
H3415 H 0.38133 0.41835 0.29261 0.0
H3416 H 0.39727 0.42497 0.28816 0.0
H3417 H 0.38615 0.41644 0.27193 0.0
H3418 H 0.40067 0.41257 0.25742 0.0
H3419 H 0.41975 0.42686 0.24354 0.0
H3420 H 0.32978 0.31976 0.38287 0.0
H3421 H 0.33161 0.30301 0.39403 0.0
H3422 H 0.29922 0.27695 0.36703 0.0
H3423 H 0.29745 0.29378 0.35545 0.0
H3424 H 0.31594 0.28354 0.41382 0.0
H3425 H 0.32363 0.26733 0.35152 0.0
H3426 H 0.32438 0.28182 0.35401 0.0
H3427 H 0.30994 0.26784 0.35317 0.0
C3428 C 0.32301 0.31048 0.37931 0.0
C3429 C 0.3135 0.30811 0.3682 0.0
C3430 C 0.32407 0.3009 0.38571 0.0
C3431 C 0.31567 0.28874 0.38116 0.0
C3432 C 0.30596 0.28629 0.37042 0.0
H3433 H 0.31814 0.22393 0.41352 0.0
H3434 H 0.31119 0.23682 0.40081 0.0
C3435 C 0.30491 0.2959 0.36392 0.0
C3436 C 0.31721 0.27876 0.38782 0.0
H3437 H 0.32371 0.25681 0.37593 0.0
C3438 C 0.31754 0.27764 0.40552 0.0
C3439 C 0.31926 0.27103 0.37697 0.0
C3440 C 0.31939 0.27208 0.35786 0.0
C3441 C 0.32015 0.26921 0.41268 0.0
C3442 C 0.32261 0.26179 0.40185 0.0
C3443 C 0.32182 0.26254 0.38416 0.0
C3444 C 0.32691 0.25391 0.40873 0.0
C3445 C 0.32043 0.26843 0.4318 0.0
C3446 C 0.33815 0.25928 0.41699 0.0
C3447 C 0.34213 0.252 0.42421 0.0
C3448 C 0.33497 0.23916 0.42326 0.0
C3449 C 0.32382 0.23378 0.41457 0.0
C3450 C 0.31986 0.24112 0.40727 0.0
H3451 H 0.3153 0.27225 0.43814 0.0
H3452 H 0.31658 0.25881 0.43585 0.0
H3453 H 0.32996 0.27379 0.43624 0.0
H3454 H 0.34379 0.26914 0.41807 0.0
H3455 H 0.35067 0.25646 0.43102 0.0
H3456 H 0.67643 0.00913 0.38452 0.0
H3457 H 0.69138 0.0285 0.39815 0.0
H3458 H 0.71972 0.02916 0.36763 0.0
H3459 H 0.70489 0.00991 0.3539 0.0
H3460 H 0.71322 0.03447 0.4163 0.0
H3461 H 0.72252 0.06244 0.35829 0.0
H3462 H 0.70934 0.04732 0.3603 0.0
H3463 H 0.72389 0.04916 0.35568 0.0
C3464 C 0.68585 0.01339 0.38077 0.0
C3465 C 0.68948 0.00805 0.36807 0.0
C3466 C 0.69437 0.02444 0.38855 0.0
C3467 C 0.7066 0.03034 0.38367 0.0
C3468 C 0.71028 0.02486 0.37133 0.0
H3469 H 0.7707 0.09946 0.41307 0.0
H3470 H 0.75648 0.07968 0.39975 0.0
C3471 C 0.7018 0.01383 0.36357 0.0
C3472 C 0.71554 0.04225 0.39144 0.0
H3473 H 0.73488 0.07235 0.38231 0.0
C3474 C 0.71793 0.04277 0.40891 0.0
C3475 C 0.72171 0.05303 0.3817 0.0
C3476 C 0.7192 0.05305 0.36298 0.0
C3477 C 0.72647 0.05378 0.41689 0.0
C3478 C 0.73255 0.06459 0.40719 0.0
C3479 C 0.73021 0.06405 0.3897 0.0
C3480 C 0.74113 0.07661 0.41507 0.0
C3481 C 0.72905 0.05368 0.43558 0.0
C3482 C 0.73715 0.08153 0.42783 0.0
C3483 C 0.74523 0.09275 0.43551 0.0
C3484 C 0.75747 0.09937 0.43046 0.0
C3485 C 0.76138 0.09454 0.41738 0.0
C3486 C 0.75326 0.08328 0.40971 0.0
H3487 H 0.72635 0.04435 0.4399 0.0
H3488 H 0.73882 0.05992 0.43842 0.0
H3489 H 0.72378 0.05682 0.44307 0.0
H3490 H 0.72777 0.07666 0.43193 0.0
H3491 H 0.74193 0.09609 0.44569 0.0
H3492 H 0.98796 0.67273 0.38387 0.0
H3493 H 0.96951 0.67094 0.39564 0.0
H3494 H 0.97682 0.70351 0.36922 0.0
H3495 H 0.99526 0.70524 0.35704 0.0
H3496 H 0.9663 0.68678 0.41595 0.0
H3497 H 0.94227 0.67876 0.35418 0.0
H3498 H 0.95586 0.67802 0.35625 0.0
H3499 H 0.9568 0.69259 0.35569 0.0
C3500 C 0.98568 0.67955 0.38057 0.0
C3501 C 0.99304 0.68909 0.36945 0.0
C3502 C 0.97513 0.67851 0.38732 0.0
C3503 C 0.97169 0.68698 0.38312 0.0
C3504 C 0.97917 0.69673 0.37236 0.0
H3505 H 0.90648 0.68552 0.42281 0.0
H3506 H 0.9263 0.69278 0.40925 0.0
C3507 C 0.98974 0.69775 0.36551 0.0
C3508 C 0.96024 0.68544 0.39009 0.0
H3509 H 0.93178 0.67876 0.37892 0.0
C3510 C 0.9588 0.68515 0.40784 0.0
C3511 C 0.95045 0.6833 0.37948 0.0
C3512 C 0.95132 0.68307 0.36034 0.0
C3513 C 0.94776 0.68248 0.41525 0.0
C3514 C 0.93791 0.68001 0.40465 0.0
C3515 C 0.93942 0.68072 0.38695 0.0
C3516 C 0.92572 0.6756 0.41182 0.0
C3517 C 0.94654 0.68197 0.43437 0.0
C3518 C 0.91884 0.66352 0.41744 0.0
C3519 C 0.90758 0.65936 0.4251 0.0
C3520 C 0.90298 0.66721 0.42732 0.0
C3521 C 0.90982 0.67928 0.42136 0.0
C3522 C 0.92109 0.68342 0.41357 0.0
H3523 H 0.95548 0.68611 0.44081 0.0
H3524 H 0.94184 0.68679 0.43876 0.0
H3525 H 0.94098 0.67228 0.43831 0.0
H3526 H 0.9223 0.65737 0.41618 0.0
H3527 H 0.90267 0.65008 0.4298 0.0
H3528 H 0.35283 0.00996 0.71593 0.0
H3529 H 0.36998 0.00955 0.72833 0.0
H3530 H 0.39465 0.03998 0.69723 0.0
H3531 H 0.37745 0.04041 0.68458 0.0
H3532 H 0.39898 0.02026 0.697 0.0
H3533 H 0.39479 0.03374 0.76282 0.0
H3534 H 0.38083 0.02128 0.75463 0.0
H3535 H 0.38749 0.03606 0.7449 0.0
C3536 C 0.3619 0.01664 0.71179 0.0
C3537 C 0.36378 0.02525 0.69931 0.0
C3538 C 0.3717 0.01643 0.71896 0.0
C3539 C 0.3836 0.02486 0.7139 0.0
C3540 C 0.38554 0.03346 0.7014 0.0
H3541 H 0.44941 0.02449 0.7455 0.0
H3542 H 0.4363 0.03055 0.73146 0.0
C3543 C 0.37571 0.0337 0.69422 0.0
C3544 C 0.39388 0.02427 0.72128 0.0
H3545 H 0.40664 0.02423 0.75919 0.0
C3546 C 0.40082 0.02132 0.71055 0.0
C3547 C 0.39627 0.02572 0.73895 0.0
C3548 C 0.38953 0.02949 0.75098 0.0
C3549 C 0.40962 0.01907 0.71719 0.0
C3550 C 0.41162 0.01999 0.73496 0.0
C3551 C 0.40504 0.02347 0.74557 0.0
C3552 C 0.41974 0.01642 0.74304 0.0
C3553 C 0.41627 0.01513 0.70525 0.0
C3554 C 0.41482 0.00661 0.75437 0.0
C3555 C 0.42226 0.00323 0.7625 0.0
C3556 C 0.43483 0.00956 0.75948 0.0
C3557 C 0.43977 0.01942 0.74811 0.0
C3558 C 0.43229 0.02282 0.73997 0.0
H3559 H 0.4121 0.0127 0.69239 0.0
H3560 H 0.42579 0.02273 0.70391 0.0
H3561 H 0.41642 0.00714 0.71041 0.0
H3562 H 0.40518 0.00159 0.75701 0.0
H3563 H 0.41814 0.9958 0.77147 0.0
H3564 H 0.97662 0.34664 0.68015 0.0
H3565 H 0.97863 0.36484 0.69413 0.0
H3566 H 0.99762 0.36032 0.73583 0.0
H3567 H 0.99607 0.34237 0.7215 0.0
H3568 H 0.9705 0.36817 0.72318 0.0
H3569 H 0.02068 0.39533 0.7245 0.0
H3570 H 0.01241 0.38116 0.71266 0.0
H3571 H 0.01468 0.38103 0.73523 0.0
C3572 C 0.98126 0.34955 0.69228 0.0
C3573 C 0.98629 0.34316 0.69968 0.0
C3574 C 0.98239 0.35995 0.70027 0.0
C3575 C 0.98848 0.36411 0.71588 0.0
C3576 C 0.9932 0.35751 0.72355 0.0
H3577 H 0.98298 0.41559 0.78365 0.0
H3578 H 0.97994 0.39731 0.76857 0.0
C3579 C 0.99223 0.3472 0.71543 0.0
C3580 C 0.98974 0.37527 0.72412 0.0
H3581 H 0.01043 0.40329 0.7405 0.0
C3582 C 0.97924 0.37587 0.72689 0.0
C3583 C 1.00116 0.38543 0.72869 0.0
C3584 C 0.01288 0.38578 0.72496 0.0
C3585 C 0.97983 0.38627 0.73426 0.0
C3586 C 0.99119 0.3962 0.73953 0.0
C3587 C 0.0017 0.39565 0.73659 0.0
C3588 C 0.99246 0.40724 0.74816 0.0
C3589 C 0.96828 0.38659 0.73594 0.0
C3590 C 1.00068 0.41895 0.74193 0.0
C3591 C 0.00258 0.42941 0.75071 0.0
C3592 C 0.99622 0.42836 0.76582 0.0
C3593 C 0.98782 0.41665 0.77185 0.0
C3594 C 0.98605 0.4062 0.76321 0.0
H3595 H 0.96137 0.38037 0.72653 0.0
H3596 H 0.96443 0.38347 0.74883 0.0
H3597 H 0.96996 0.39597 0.73416 0.0
H3598 H 0.00575 0.41999 0.73038 0.0
H3599 H 0.00911 0.43833 0.7458 0.0
H3600 H 0.66298 0.65999 0.72066 0.0
H3601 H 0.64396 0.64478 0.73418 0.0
H3602 H 0.64176 0.61695 0.69994 0.0
H3603 H 0.66083 0.63194 0.68676 0.0
H3604 H 0.62138 0.63086 0.72035 0.0
H3605 H 0.63697 0.60076 0.74536 0.0
H3606 H 0.64735 0.6159 0.73754 0.0
H3607 H 0.63955 0.60319 0.72293 0.0
C3608 C 0.6585 0.6506 0.71617 0.0
C3609 C 0.66344 0.64713 0.70275 0.0
C3610 C 0.64763 0.64193 0.72385 0.0
C3611 C 0.64155 0.62969 0.71825 0.0
C3612 C 0.64645 0.62626 0.70477 0.0
H3613 H 0.57374 0.56349 0.73955 0.0
H3614 H 0.5919 0.58009 0.72614 0.0
C3615 C 0.65733 0.63487 0.69719 0.0
C3616 C 0.62991 0.62051 0.72611 0.0
H3617 H 0.61557 0.59251 0.7449 0.0
C3618 C 0.62013 0.62252 0.72585 0.0
C3619 C 0.62831 0.60965 0.73333 0.0
C3620 C 0.63864 0.60729 0.73498 0.0
C3621 C 0.6087 0.61379 0.73223 0.0
C3622 C 0.60707 0.60283 0.73901 0.0
C3623 C 0.61686 0.60088 0.73946 0.0
C3624 C 0.59535 0.59332 0.74613 0.0
C3625 C 0.59838 0.6162 0.73141 0.0
C3626 C 0.59124 0.59536 0.76167 0.0
C3627 C 0.58097 0.58587 0.76948 0.0
C3628 C 0.57461 0.57415 0.76186 0.0
C3629 C 0.5785 0.57233 0.74589 0.0
C3630 C 0.58883 0.58181 0.73816 0.0
H3631 H 0.60057 0.62414 0.72325 0.0
H3632 H 0.59008 0.60801 0.72643 0.0
H3633 H 0.59635 0.61814 0.74443 0.0
H3634 H 0.59628 0.60414 0.76812 0.0
H3635 H 0.57841 0.58758 0.78191 0.0
H3636 H 0.67636 0.68309 0.64219 0.0
H3637 H 0.67325 0.69918 0.63147 0.0
H3638 H 0.70252 0.72578 0.66298 0.0
H3639 H 0.70578 0.70969 0.67374 0.0
H3640 H 0.66738 0.7138 0.65268 0.0
H3641 H 0.70965 0.74199 0.61554 0.0
H3642 H 0.70455 0.72642 0.62147 0.0
H3643 H 0.71147 0.73851 0.63704 0.0
C3644 C 0.68227 0.69239 0.64668 0.0
C3645 C 0.69132 0.69512 0.65883 0.0
C3646 C 0.68045 0.70157 0.64057 0.0
C3647 C 0.68768 0.71367 0.64638 0.0
C3648 C 0.69695 0.71652 0.65816 0.0
H3649 H 0.68442 0.77803 0.61634 0.0
H3650 H 0.68979 0.76451 0.63087 0.0
C3651 C 0.69879 0.70732 0.66431 0.0
C3652 C 0.68494 0.72307 0.64076 0.0
H3653 H 0.6958 0.74889 0.61707 0.0
C3654 C 0.6736 0.72151 0.64495 0.0
C3655 C 0.69314 0.73317 0.63085 0.0
C3656 C 0.70536 0.73515 0.62582 0.0
C3657 C 0.67016 0.72971 0.63932 0.0
C3658 C 0.67817 0.73957 0.62884 0.0
C3659 C 0.68966 0.74132 0.62506 0.0
C3660 C 0.67456 0.74776 0.62094 0.0
C3661 C 0.658 0.72773 0.64476 0.0
C3662 C 0.66423 0.74286 0.61052 0.0
C3663 C 0.66109 0.75053 0.6024 0.0
C3664 C 0.66833 0.7633 0.60427 0.0
C3665 C 0.67867 0.76823 0.61469 0.0
C3666 C 0.68175 0.76052 0.62297 0.0
H3667 H 0.65497 0.72269 0.65693 0.0
H3668 H 0.65827 0.73655 0.64634 0.0
H3669 H 0.65114 0.72216 0.63493 0.0
H3670 H 0.65875 0.73308 0.6083 0.0
H3671 H 0.65323 0.74648 0.59413 0.0
H3672 H 0.3255 0.99471 0.63844 0.0
H3673 H 0.30951 0.97599 0.62467 0.0
H3674 H 0.28338 0.9749 0.66046 0.0
H3675 H 0.29919 0.99369 0.67398 0.0
H3676 H 0.29553 0.95344 0.63833 0.0
H3677 H 0.26626 0.97058 0.61565 0.0
H3678 H 0.28155 0.98067 0.62305 0.0
H3679 H 0.26933 0.97304 0.63804 0.0
C3680 C 0.31632 0.99054 0.64324 0.0
C3681 C 0.31358 0.99569 0.65723 0.0
C3682 C 0.3072 0.97985 0.63539 0.0
C3683 C 0.29521 0.97415 0.64137 0.0
C3684 C 0.29249 0.97929 0.65536 0.0
H3685 H 0.23977 0.89798 0.62196 0.0
H3686 H 0.25455 0.91755 0.63523 0.0
C3687 C 0.30157 0.98999 0.66314 0.0
C3688 C 0.28564 0.96255 0.63348 0.0
H3689 H 0.2577 0.94895 0.61485 0.0
C3690 C 0.28728 0.95247 0.63312 0.0
C3691 C 0.27494 0.96134 0.62654 0.0
C3692 C 0.27295 0.97202 0.62566 0.0
C3693 C 0.27845 0.94115 0.62621 0.0
C3694 C 0.26754 0.93981 0.61985 0.0
C3695 C 0.26598 0.94995 0.61997 0.0
C3696 C 0.25787 0.9281 0.61235 0.0
C3697 C 0.28099 0.93083 0.62547 0.0
C3698 C 0.25443 0.92765 0.59533 0.0
C3699 C 0.24592 0.91653 0.58779 0.0
C3700 C 0.24066 0.90563 0.59714 0.0
C3701 C 0.24378 0.9062 0.61438 0.0
C3702 C 0.25225 0.91735 0.62195 0.0
H3703 H 0.29084 0.93422 0.62666 0.0
H3704 H 0.27627 0.92451 0.63615 0.0
H3705 H 0.27766 0.92555 0.61336 0.0
H3706 H 0.25862 0.93584 0.58771 0.0
H3707 H 0.24385 0.9164 0.57443 0.0
H3708 H 0.00954 0.30247 0.67442 0.0
H3709 H 0.02924 0.30585 0.66466 0.0
H3710 H 0.03339 0.3348 0.63222 0.0
H3711 H 0.01392 0.3316 0.64194 0.0
H3712 H 0.03808 0.30557 0.63118 0.0
H3713 H 0.06417 0.35133 0.6618 0.0
H3714 H 0.04858 0.34051 0.66717 0.0
H3715 H 0.05215 0.34973 0.64844 0.0
C3716 C 0.01463 0.3095 0.66513 0.0
C3717 C 0.01023 0.31684 0.65907 0.0
C3718 C 0.02587 0.31142 0.65959 0.0
C3719 C 0.03287 0.32075 0.648 0.0
C3720 C 0.02826 0.32774 0.64147 0.0
H3721 H 0.09672 0.35209 0.58884 0.0
H3722 H 0.07789 0.34572 0.60415 0.0
C3723 C 0.01708 0.32585 0.64698 0.0
C3724 C 0.04507 0.32337 0.64271 0.0
H3725 H 0.07459 0.34656 0.64052 0.0
C3726 C 0.04612 0.31445 0.63344 0.0
C3727 C 0.05554 0.33494 0.6458 0.0
C3728 C 0.05511 0.34464 0.6565 0.0
C3729 C 0.05727 0.31706 0.62633 0.0
C3730 C 0.06759 0.32884 0.62875 0.0
C3731 C 0.06664 0.33756 0.63863 0.0
C3732 C 0.07922 0.33268 0.61994 0.0
C3733 C 0.05781 0.30745 0.6156 0.0
C3734 C 0.08632 0.32757 0.62393 0.0
C3735 C 0.09723 0.33131 0.6153 0.0
C3736 C 0.10124 0.34026 0.60257 0.0
C3737 C 0.0941 0.34539 0.59879 0.0
C3738 C 0.08326 0.34168 0.60743 0.0
H3739 H 0.04866 0.29943 0.61296 0.0
H3740 H 0.0624 0.31137 0.60331 0.0
H3741 H 0.06319 0.30421 0.62236 0.0
H3742 H 0.08344 0.32073 0.63373 0.0
H3743 H 0.10256 0.32725 0.61864 0.0
H3744 H 0.29645 0.30251 0.67144 0.0
H3745 H 0.28026 0.30516 0.6598 0.0
H3746 H 0.30604 0.33332 0.62667 0.0
H3747 H 0.32227 0.33084 0.63826 0.0
H3748 H 0.2829 0.33172 0.65802 0.0
H3749 H 0.27484 0.30546 0.59739 0.0
H3750 H 0.28021 0.30187 0.61639 0.0
H3751 H 0.29025 0.31524 0.6045 0.0
C3752 C 0.29864 0.30918 0.66156 0.0
C3753 C 0.31064 0.31646 0.65575 0.0
C3754 C 0.28941 0.31071 0.65499 0.0
C3755 C 0.292 0.31943 0.64241 0.0
C3756 C 0.30389 0.32653 0.63635 0.0
H3757 H 0.25109 0.34116 0.58075 0.0
H3758 H 0.26682 0.33886 0.59442 0.0
C3759 C 0.31313 0.32508 0.64298 0.0
C3760 C 0.28239 0.3214 0.63581 0.0
H3761 H 0.26451 0.31619 0.6011 0.0
C3762 C 0.27879 0.32827 0.64564 0.0
C3763 C 0.27719 0.31696 0.61962 0.0
C3764 C 0.28072 0.30941 0.60879 0.0
C3765 C 0.2702 0.331 0.63951 0.0
C3766 C 0.26497 0.32655 0.62328 0.0
C3767 C 0.26855 0.31961 0.61353 0.0
C3768 C 0.25579 0.32899 0.61605 0.0
C3769 C 0.26705 0.33891 0.6502 0.0
C3770 C 0.24441 0.32436 0.62382 0.0
C3771 C 0.2354 0.32573 0.61609 0.0
C3772 C 0.2376 0.33173 0.60041 0.0
C3773 C 0.24915 0.33667 0.59295 0.0
C3774 C 0.25812 0.33527 0.60067 0.0
H3775 H 0.2739 0.34397 0.6603 0.0
H3776 H 0.26629 0.34561 0.64219 0.0
H3777 H 0.25816 0.33305 0.65645 0.0
H3778 H 0.24236 0.31934 0.63558 0.0
H3779 H 0.22663 0.32187 0.62219 0.0
H3780 H 0.66478 0.992 0.64097 0.0
H3781 H 0.66025 0.97249 0.62787 0.0
H3782 H 0.68815 0.97267 0.65827 0.0
H3783 H 0.69269 0.99204 0.67144 0.0
H3784 H 0.67637 0.9671 0.60968 0.0
H3785 H 0.65785 0.93888 0.66756 0.0
H3786 H 0.65952 0.95379 0.66568 0.0
H3787 H 0.67245 0.95245 0.67047 0.0
C3788 C 0.66994 0.98787 0.64484 0.0
C3789 C 0.67904 0.99351 0.65729 0.0
C3790 C 0.66734 0.97674 0.63737 0.0
C3791 C 0.67372 0.97105 0.64235 0.0
C3792 C 0.68295 0.97679 0.65453 0.0
H3793 H 0.67852 0.90814 0.61418 0.0
H3794 H 0.67962 0.92606 0.62791 0.0
C3795 C 0.68558 0.9879 0.66195 0.0
C3796 C 0.67099 0.95925 0.63456 0.0
H3797 H 0.66215 0.92973 0.64402 0.0
C3798 C 0.67314 0.95888 0.61711 0.0
C3799 C 0.66681 0.94858 0.64435 0.0
C3800 C 0.66391 0.94836 0.66303 0.0
C3801 C 0.67162 0.94821 0.60927 0.0
C3802 C 0.66759 0.93757 0.61912 0.0
C3803 C 0.66524 0.9379 0.63652 0.0
C3804 C 0.66615 0.92615 0.61165 0.0
C3805 C 0.67477 0.94856 0.59067 0.0
C3806 C 0.65794 0.92006 0.59832 0.0
C3807 C 0.65736 0.9099 0.59035 0.0
C3808 C 0.66492 0.90557 0.59567 0.0
C3809 C 0.67271 0.91135 0.60959 0.0
C3810 C 0.67331 0.92154 0.61752 0.0
H3811 H 0.68046 0.95809 0.58608 0.0
H3812 H 0.67967 0.94361 0.58828 0.0
H3813 H 0.6663 0.94404 0.58306 0.0
H3814 H 0.65216 0.92333 0.59382 0.0
H3815 H 0.65133 0.90575 0.57959 0.0
H3816 H 0.00701 0.70624 0.66761 0.0
H3817 H 0.02641 0.72097 0.6548 0.0
H3818 H 0.02823 0.69144 0.63026 0.0
H3819 H 0.00867 0.67664 0.6428 0.0
H3820 H 0.04824 0.7226 0.65972 0.0
H3821 H 0.03598 0.71496 0.59128 0.0
H3822 H 0.02473 0.70933 0.60796 0.0
H3823 H 0.03237 0.70124 0.60232 0.0
C3824 C 0.01146 0.70288 0.65932 0.0
C3825 C 0.00631 0.69028 0.65618 0.0
C3826 C 0.02256 0.71132 0.65203 0.0
C3827 C 0.02871 0.70733 0.64144 0.0
C3828 C 0.02352 0.69475 0.63812 0.0
H3829 H 0.09853 0.74192 0.59192 0.0
H3830 H 0.07899 0.72781 0.60488 0.0
C3831 C 0.01237 0.68629 0.64535 0.0
C3832 C 0.04084 0.7163 0.63462 0.0
H3833 H 0.05699 0.72707 0.59783 0.0
C3834 C 0.05014 0.72364 0.64618 0.0
C3835 C 0.04329 0.71765 0.61695 0.0
C3836 C 0.03354 0.71046 0.60389 0.0
C3837 C 0.06189 0.7321 0.64058 0.0
C3838 C 0.06436 0.73334 0.62294 0.0
C3839 C 0.05506 0.72606 0.61136 0.0
C3840 C 0.07658 0.74201 0.61617 0.0
C3841 C 0.07164 0.73943 0.65357 0.0
C3842 C 0.08176 0.75468 0.61834 0.0
C3843 C 0.093 0.76281 0.61104 0.0
C3844 C 0.09926 0.75838 0.60142 0.0
C3845 C 0.0941 0.74565 0.59953 0.0
C3846 C 0.08287 0.73756 0.60678 0.0
H3847 H 0.06898 0.73549 0.66649 0.0
H3848 H 0.08026 0.73993 0.64997 0.0
H3849 H 0.07335 0.7489 0.65412 0.0
H3850 H 0.07697 0.7583 0.62535 0.0
H3851 H 0.09673 0.77255 0.61276 0.0
H3852 H 0.99265 0.65386 0.71687 0.0
H3853 H 0.99398 0.63689 0.72858 0.0
H3854 H 0.96321 0.61132 0.69836 0.0
H3855 H 0.96168 0.62825 0.68677 0.0
H3856 H 0.9621 0.60377 0.73156 0.0
H3857 H 0.00697 0.61786 0.70317 0.0
H3858 H 0.00683 0.62961 0.71586 0.0
H3859 H 0.99797 0.62429 0.69667 0.0
C3860 C 0.98612 0.64462 0.71277 0.0
C3861 C 0.9771 0.6424 0.70082 0.0
C3862 C 0.98696 0.63494 0.71937 0.0
C3863 C 0.97886 0.62286 0.71405 0.0
C3864 C 0.96961 0.62058 0.70252 0.0
H3865 H 0.97042 0.55242 0.74092 0.0
H3866 H 0.96899 0.56869 0.72687 0.0
C3867 C 0.96875 0.63026 0.69594 0.0
C3868 C 0.97999 0.61261 0.72064 0.0
H3869 H 0.9995 0.60195 0.72358 0.0
C3870 C 0.97023 0.60331 0.7297 0.0
C3871 C 0.99061 0.61203 0.71816 0.0
C3872 C 1.00115 0.62141 0.7078 0.0
C3873 C 0.97094 0.59362 0.73678 0.0
C3874 C 0.98162 0.59314 0.7345 0.0
C3875 C 0.99133 0.60236 0.7253 0.0
C3876 C 0.98301 0.58333 0.7421 0.0
C3877 C 0.9604 0.58417 0.74707 0.0
C3878 C 0.99165 0.58622 0.75489 0.0
C3879 C 0.99247 0.57696 0.76297 0.0
C3880 C 0.98472 0.5646 0.75833 0.0
C3881 C 0.97639 0.5618 0.745 0.0
C3882 C 0.97556 0.57108 0.73696 0.0
H3883 H 0.95397 0.58724 0.75059 0.0
H3884 H 0.95538 0.5756 0.73945 0.0
H3885 H 0.96363 0.58205 0.75888 0.0
H3886 H 0.9975 0.59562 0.75901 0.0
H3887 H 0.99887 0.57947 0.77333 0.0
H3888 H 0.34548 0.34766 0.71365 0.0
H3889 H 0.3607 0.3671 0.72672 0.0
H3890 H 0.38917 0.3638 0.7026 0.0
H3891 H 0.37403 0.34454 0.68921 0.0
H3892 H 0.37951 0.37283 0.74835 0.0
H3893 H 0.39688 0.39741 0.68748 0.0
H3894 H 0.38304 0.38276 0.6888 0.0
H3895 H 0.39747 0.38366 0.68858 0.0
C3896 C 0.35499 0.35106 0.71118 0.0
C3897 C 0.35857 0.34464 0.70029 0.0
C3898 C 0.36367 0.36217 0.71864 0.0
C3899 C 0.37605 0.36702 0.71532 0.0
C3900 C 0.37965 0.36038 0.70496 0.0
H3901 H 0.43493 0.4251 0.77401 0.0
H3902 H 0.42088 0.40585 0.75965 0.0
C3903 C 0.37099 0.34934 0.69742 0.0
C3904 C 0.38519 0.379 0.72275 0.0
H3905 H 0.40813 0.40762 0.7124 0.0
C3906 C 0.38575 0.38045 0.7405 0.0
C3907 C 0.3932 0.38898 0.71245 0.0
C3908 C 0.39257 0.3882 0.69327 0.0
C3909 C 0.39422 0.39157 0.74827 0.0
C3910 C 0.40253 0.4014 0.738 0.0
C3911 C 0.40185 0.40001 0.72024 0.0
C3912 C 0.4118 0.4133 0.74548 0.0
C3913 C 0.39403 0.39276 0.76739 0.0
C3914 C 0.41176 0.42401 0.7416 0.0
C3915 C 0.41995 0.4351 0.74954 0.0
C3916 C 0.42834 0.43569 0.7615 0.0
C3917 C 0.42868 0.42503 0.76477 0.0
C3918 C 0.42053 0.41396 0.75676 0.0
H3919 H 0.38522 0.3857 0.77287 0.0
H3920 H 0.40125 0.39154 0.77298 0.0
H3921 H 0.39574 0.40193 0.77125 0.0
H3922 H 0.40517 0.42371 0.73277 0.0
H3923 H 0.41957 0.44318 0.74654 0.0
H3924 H 0.6632 0.03956 0.68732 0.0
H3925 H 0.64551 0.03887 0.70056 0.0
H3926 H 0.63944 0.00814 0.73065 0.0
H3927 H 0.65709 0.00886 0.71772 0.0
H3928 H 0.62161 0.01954 0.69968 0.0
H3929 H 0.6379 0.03084 0.7662 0.0
H3930 H 0.64798 0.03356 0.74849 0.0
H3931 H 0.63934 0.01854 0.75752 0.0
C3932 C 0.65818 0.03276 0.69692 0.0
C3933 C 0.66157 0.02429 0.70153 0.0
C3934 C 0.64807 0.03237 0.70443 0.0
C3935 C 0.64128 0.02358 0.71677 0.0
C3936 C 0.64471 0.01518 0.72144 0.0
H3937 H 0.57305 0.98953 0.76565 0.0
H3938 H 0.5921 0.99573 0.75088 0.0
C3939 C 0.65477 0.01556 0.71396 0.0
C3940 C 0.6302 0.02266 0.72418 0.0
H3941 H 0.61633 0.02098 0.7621 0.0
C3942 C 0.62053 0.02008 0.7133 0.0
C3943 C 0.62883 0.02342 0.74196 0.0
C3944 C 0.63911 0.02687 0.7542 0.0
C3945 C 0.60929 0.01762 0.71983 0.0
C3946 C 0.60777 0.01776 0.73761 0.0
C3947 C 0.61756 0.02081 0.74845 0.0
C3948 C 0.59585 0.01392 0.7453 0.0
C3949 C 0.59894 0.01437 0.70783 0.0
C3950 C 0.59165 0.02211 0.74685 0.0
C3951 C 0.58072 0.01859 0.75526 0.0
C3952 C 0.57383 0.00681 0.76218 0.0
C3953 C 0.578 0.99858 0.76021 0.0
C3954 C 0.58893 0.00213 0.7519 0.0
H3955 H 0.60155 0.01453 0.69429 0.0
H3956 H 0.59123 0.0051 0.71078 0.0
H3957 H 0.59573 0.02091 0.70965 0.0
H3958 H 0.59693 0.03127 0.74184 0.0
H3959 H 0.57771 0.02511 0.7565 0.0
loop_
_geom_bond_atom_site_label_1
_geom_bond_atom_site_label_2
_geom_bond_distance
_geom_bond_site_symmetry_2
_ccdc_geom_bond_type
Co0 O1 2.216 . S
Co0 O2 2.091 . S
Co0 O4 2.004 1_554 S
Co0 O10 2.021 . S
Co0 O12 2.137 1_454 S
Co0 O13 2.244 1_455 S
O1 Co0 2.216 . S
O1 C8 1.247 . S
O2 Co0 2.091 . S
O2 C8 1.261 . S
C3 O12 1.247 1_554 S
C3 O13 1.272 . S
O4 Co0 2.004 1_556 S
O4 C9 1.249 . S
Co5 O6 2.061 1_554 S
Co5 O11 2.052 . S
Co5 O13 2.135 . S
O6 Co5 2.061 1_556 S
O6 C9 1.245 1_655 S
C7 O10 1.238 1_655 S
C7 O11 1.241 . S
C8 O1 1.247 . S
C8 O2 1.261 . S
C9 O4 1.249 . S
C9 O6 1.245 1_455 S
O10 Co0 2.021 . S
O10 C7 1.238 1_455 S
O11 Co5 2.052 . S
O11 C7 1.241 . S
O12 Co0 2.137 1_656 S
O12 C3 1.247 1_556 S
O13 Co0 2.244 1_655 S
O13 C3 1.272 . S
O13 Co5 2.135 . S
Co14 O15 2.216 1_554 S
Co14 O16 2.091 . S
Co14 O18 2.004 . S
Co14 O24 1.998 1_554 S
Co14 O26 2.137 . S
Co14 O27 2.244 . S
O15 Co14 2.216 1_556 S
O15 C22 1.247 1_556 S
O16 Co14 2.091 . S
O16 C22 1.261 . S
C17 O26 1.247 . S
C17 O27 1.272 . S
O18 Co14 2.004 . S
O18 C23 1.259 . S
Co19 O20 2.061 . S
Co19 O25 2.052 1_554 S
Co19 O27 2.135 . S
O20 Co19 2.061 . S
O20 C23 1.235 . S
C21 O24 1.254 . S
C21 O25 1.241 . S
C22 O15 1.247 1_554 S
C22 O16 1.261 . S
C23 O18 1.259 . S
C23 O20 1.235 . S
O24 Co14 1.998 1_556 S
O24 C21 1.254 . S
O25 Co19 2.052 1_556 S
O25 C21 1.241 . S
O26 Co14 2.137 . S
O26 C17 1.247 . S
O27 Co14 2.244 . S
O27 C17 1.272 . S
O27 Co19 2.135 . S
Co28 O29 2.216 1_554 S
Co28 O30 2.091 . S
Co28 O32 2.004 . S
Co28 O38 2.025 1_554 S
Co28 O40 2.142 1_545 S
Co28 O41 2.244 1_545 S
O29 Co28 2.216 1_556 S
O29 C36 1.247 1_556 S
O30 Co28 2.091 . S
O30 C36 1.261 . S
C31 O40 1.350 . S
C31 O41 1.272 . S
O32 Co28 2.004 . S
O32 C37 1.259 . S
Co33 O34 2.061 . S
Co33 O39 2.052 1_554 S
Co33 O41 2.135 . S
O34 Co33 2.061 . S
O34 C37 1.235 1_565 S
C35 O38 1.267 . S
C35 O39 1.210 1_545 S
C36 O29 1.247 1_554 S
C36 O30 1.261 . S
C37 O32 1.259 . S
C37 O34 1.235 1_545 S
O38 Co28 2.025 1_556 S
O38 C35 1.267 . S
O39 Co33 2.052 1_556 S
O39 C35 1.210 1_565 S
O40 Co28 2.142 1_565 S
O40 C31 1.350 . S
O41 Co28 2.244 1_565 S
O41 C31 1.272 . S
O41 Co33 2.135 . S
Co42 O43 2.216 1_554 S
Co42 O44 2.091 . S
Co42 O46 2.004 . S
Co42 O52 2.021 1_554 S
Co42 O54 2.137 1_655 S
Co42 O55 2.244 1_655 S
O43 Co42 2.216 1_556 S
O43 C50 1.237 1_556 S
O44 Co42 2.091 . S
O44 C50 1.283 . S
C45 O54 1.247 . S
C45 O55 1.272 . S
O46 Co42 2.004 . S
O46 C51 1.259 1_655 S
Co47 O48 2.061 . S
Co47 O53 2.052 1_554 S
Co47 O55 2.135 . S
O48 Co47 2.061 . S
O48 C51 1.235 . S
C49 O52 1.238 1_455 S
C49 O53 1.241 . S
C50 O43 1.237 1_554 S
C50 O44 1.283 . S
C51 O46 1.259 1_455 S
C51 O48 1.235 . S
O52 Co42 2.021 1_556 S
O52 C49 1.238 1_655 S
O53 Co47 2.052 1_556 S
O53 C49 1.241 . S
O54 Co42 2.137 1_455 S
O54 C45 1.247 . S
O55 Co42 2.244 1_455 S
O55 C45 1.272 . S
O55 Co47 2.135 . S
Co56 O57 2.216 . S
Co56 O58 2.091 . S
Co56 O60 2.004 1_554 S
Co56 O66 2.021 . S
Co56 O68 2.137 1_554 S
Co56 O69 2.244 . S
O57 Co56 2.216 . S
O57 C64 1.247 . S
O58 Co56 2.091 . S
O58 C64 1.261 . S
C59 O68 1.257 . S
C59 O69 1.250 1_556 S
O60 Co56 2.004 1_556 S
O60 C65 1.259 . S
Co61 O62 2.061 1_554 S
Co61 O67 2.052 . S
Co61 O69 2.135 . S
O62 Co61 2.061 1_556 S
O62 C65 1.235 . S
C63 O66 1.238 . S
C63 O67 1.241 . S
C64 O57 1.247 . S
C64 O58 1.261 . S
C65 O60 1.259 . S
C65 O62 1.235 . S
O66 Co56 2.021 . S
O66 C63 1.238 . S
O67 Co61 2.052 . S
O67 C63 1.241 . S
O68 Co56 2.137 1_556 S
O68 C59 1.257 . S
O69 Co56 2.244 . S
O69 C59 1.250 1_554 S
O69 Co61 2.135 . S
Co70 O71 2.216 . S
Co70 O72 2.091 . S
Co70 O74 2.004 1_554 S
Co70 O80 2.021 . S
Co70 O82 2.137 1_564 S
Co70 O83 2.244 1_565 S
O71 Co70 2.216 . S
O71 C78 1.247 . S
O72 Co70 2.091 . S
O72 C78 1.261 . S
C73 O82 1.247 1_554 S
C73 O83 1.272 . S
O74 Co70 2.004 1_556 S
O74 C79 1.259 1_565 S
Co75 O76 2.061 1_554 S
Co75 O81 2.052 . S
Co75 O83 2.135 . S
O76 Co75 2.061 1_556 S
O76 C79 1.235 . S
C77 O80 1.238 1_545 S
C77 O81 1.241 . S
C78 O71 1.247 . S
C78 O72 1.261 . S
C79 O74 1.259 1_545 S
C79 O76 1.235 . S
O80 Co70 2.021 . S
O80 C77 1.238 1_565 S
O81 Co75 2.052 . S
O81 C77 1.241 . S
O82 Co70 2.137 1_546 S
O82 C73 1.247 1_556 S
O83 Co70 2.244 1_545 S
O83 C73 1.272 . S
O83 Co75 2.135 . S
Co84 O85 2.216 . S
Co84 O86 2.091 . S
Co84 O88 2.004 . S
Co84 O94 2.021 . S
Co84 O96 2.137 . S
Co84 O97 2.244 . S
O85 Co84 2.216 . S
O85 C92 1.247 . S
O86 Co84 2.091 . S
O86 C92 1.261 . S
C87 O96 1.247 . S
C87 O97 1.272 . S
O88 Co84 2.004 . S
O88 C93 1.259 . S
Co89 O90 2.061 . S
Co89 O95 2.052 . S
Co89 O97 2.135 . S
O90 Co89 2.061 . S
O90 C93 1.235 . S
C91 O94 1.238 . S
C91 O95 1.241 . S
C92 O85 1.247 . S
C92 O86 1.261 . S
C93 O88 1.259 . S
C93 O90 1.235 . S
O94 Co84 2.021 . S
O94 C91 1.238 . S
O95 Co89 2.052 . S
O95 C91 1.241 . S
O96 Co84 2.137 . S
O96 C87 1.247 . S
O97 Co84 2.244 . S
O97 C87 1.272 . S
O97 Co89 2.135 . S
Co98 O99 2.216 . S
Co98 O100 2.091 . S
Co98 O102 2.004 . S
Co98 O108 2.021 . S
Co98 O110 2.137 . S
Co98 O111 2.244 . S
O99 Co98 2.216 . S
O99 C106 1.247 . S
O100 Co98 2.091 . S
O100 C106 1.261 . S
C101 O110 1.247 . S
C101 O111 1.272 . S
O102 Co98 2.004 . S
O102 C107 1.259 . S
Co103 O104 2.061 . S
Co103 O109 2.052 . S
Co103 O111 2.135 . S
O104 Co103 2.061 . S
O104 C107 1.235 . S
C105 O108 1.238 . S
C105 O109 1.241 . S
C106 O99 1.247 . S
C106 O100 1.261 . S
C107 O102 1.259 . S
C107 O104 1.235 . S
O108 Co98 2.021 . S
O108 C105 1.238 . S
O109 Co103 2.052 . S
O109 C105 1.241 . S
O110 Co98 2.137 . S
O110 C101 1.247 . S
O111 Co98 2.244 . S
O111 C101 1.272 . S
O111 Co103 2.135 . S
Co112 O113 2.216 . S
Co112 O114 2.091 . S
Co112 O116 2.004 . S
Co112 O122 2.021 . S
Co112 O124 2.137 . S
Co112 O125 2.244 . S
O113 Co112 2.216 . S
O113 C120 1.247 . S
O114 Co112 2.091 . S
O114 C120 1.261 . S
C115 O124 1.247 . S
C115 O125 1.272 . S
O116 Co112 2.004 . S
O116 C121 1.259 . S
Co117 O118 2.061 . S
Co117 O123 2.052 . S
Co117 O125 2.135 . S
O118 Co117 2.061 . S
O118 C121 1.235 . S
C119 O122 1.238 . S
C119 O123 1.241 . S
C120 O113 1.247 . S
C120 O114 1.261 . S
C121 O116 1.259 . S
C121 O118 1.235 . S
O122 Co112 2.021 . S
O122 C119 1.238 . S
O123 Co117 2.052 . S
O123 C119 1.241 . S
O124 Co112 2.137 . S
O124 C115 1.247 . S
O125 Co112 2.244 . S
O125 C115 1.272 . S
O125 Co117 2.135 . S
Co126 O127 2.216 . S
Co126 O128 2.091 . S
Co126 O130 2.004 . S
Co126 O136 2.021 . S
Co126 O138 2.137 . S
Co126 O139 2.244 . S
O127 Co126 2.216 . S
O127 C134 1.247 . S
O128 Co126 2.091 . S
O128 C134 1.261 . S
C129 O138 1.247 . S
C129 O139 1.272 . S
O130 Co126 2.004 . S
O130 C135 1.259 . S
Co131 O132 2.061 . S
Co131 O137 2.052 . S
Co131 O139 2.135 . S
O132 Co131 2.061 . S
O132 C135 1.235 . S
C133 O136 1.238 . S
C133 O137 1.241 . S
C134 O127 1.247 . S
C134 O128 1.261 . S
C135 O130 1.259 . S
C135 O132 1.235 . S
O136 Co126 2.021 . S
O136 C133 1.238 . S
O137 Co131 2.052 . S
O137 C133 1.241 . S
O138 Co126 2.137 . S
O138 C129 1.247 . S
O139 Co126 2.244 . S
O139 C129 1.272 . S
O139 Co131 2.135 . S
Co140 O141 2.216 . S
Co140 O142 2.091 . S
Co140 O144 2.004 . S
Co140 O150 2.021 . S
Co140 O152 2.137 . S
Co140 O153 2.244 . S
O141 Co140 2.216 . S
O141 C148 1.251 1_455 S
O142 Co140 2.091 . S
O142 C148 1.261 1_455 S
C143 O152 1.247 . S
C143 O153 1.272 . S
O144 Co140 2.004 . S
O144 C149 1.259 . S
Co145 O146 2.061 . S
Co145 O151 2.052 . S
Co145 O153 2.135 . S
O146 Co145 2.061 . S
O146 C149 1.235 . S
C147 O150 1.238 . S
C147 O151 1.241 . S
C148 O141 1.251 1_655 S
C148 O142 1.261 1_655 S
C149 O144 1.259 . S
C149 O146 1.235 . S
O150 Co140 2.021 . S
O150 C147 1.238 . S
O151 Co145 2.052 . S
O151 C147 1.241 . S
O152 Co140 2.137 . S
O152 C143 1.247 . S
O153 Co140 2.244 . S
O153 C143 1.272 . S
O153 Co145 2.135 . S
Co154 O155 2.216 . S
Co154 O156 2.091 . S
Co154 O158 2.004 . S
Co154 O164 2.021 . S
Co154 O166 2.137 . S
Co154 O167 2.244 . S
O155 Co154 2.216 . S
O155 C162 1.247 . S
O156 Co154 2.091 . S
O156 C162 1.261 . S
C157 O166 1.247 . S
C157 O167 1.272 . S
O158 Co154 2.004 . S
O158 C163 1.259 . S
Co159 O160 2.061 . S
Co159 O165 2.052 . S
Co159 O167 2.135 . S
O160 Co159 2.061 . S
O160 C163 1.235 . S
C161 O164 1.238 . S
C161 O165 1.241 . S
C162 O155 1.247 . S
C162 O156 1.261 . S
C163 O158 1.259 . S
C163 O160 1.235 . S
O164 Co154 2.021 . S
O164 C161 1.238 . S
O165 Co159 2.052 . S
O165 C161 1.241 . S
O166 Co154 2.137 . S
O166 C157 1.247 . S
O167 Co154 2.244 . S
O167 C157 1.272 . S
O167 Co159 2.135 . S
Co168 O169 2.216 . S
Co168 O170 2.091 . S
Co168 O172 2.004 . S
Co168 O178 2.021 . S
Co168 O180 2.137 . S
Co168 O181 2.244 . S
O169 Co168 2.216 . S
O169 C176 1.247 . S
O170 Co168 2.091 . S
O170 C176 1.261 . S
C171 O180 1.247 . S
C171 O181 1.272 . S
O172 Co168 2.004 . S
O172 C177 1.259 . S
Co173 O174 2.061 . S
Co173 O179 2.052 . S
Co173 O181 2.135 . S
O174 Co173 2.061 . S
O174 C177 1.235 . S
C175 O178 1.238 . S
C175 O179 1.241 . S
C176 O169 1.247 . S
C176 O170 1.261 . S
C177 O172 1.259 . S
C177 O174 1.235 . S
O178 Co168 2.021 . S
O178 C175 1.238 . S
O179 Co173 2.052 . S
O179 C175 1.241 . S
O180 Co168 2.137 . S
O180 C171 1.247 . S
O181 Co168 2.244 . S
O181 C171 1.272 . S
O181 Co173 2.135 . S
Co182 O183 2.216 . S
Co182 O184 2.091 . S
Co182 O186 2.004 . S
Co182 O192 2.021 . S
Co182 O194 2.137 . S
Co182 O195 2.244 . S
O183 Co182 2.216 . S
O183 C190 1.204 1_655 S
O184 Co182 2.091 . S
O184 C190 1.263 1_655 S
C185 O194 1.247 . S
C185 O195 1.272 . S
O186 Co182 2.004 . S
O186 C191 1.259 . S
Co187 O188 2.061 . S
Co187 O193 2.052 . S
Co187 O195 2.135 . S
O188 Co187 2.061 . S
O188 C191 1.235 . S
C189 O192 1.238 . S
C189 O193 1.241 . S
C190 O183 1.204 1_455 S
C190 O184 1.263 1_455 S
C191 O186 1.259 . S
C191 O188 1.235 . S
O192 Co182 2.021 . S
O192 C189 1.238 . S
O193 Co187 2.052 . S
O193 C189 1.241 . S
O194 Co182 2.137 . S
O194 C185 1.247 . S
O195 Co182 2.244 . S
O195 C185 1.272 . S
O195 Co187 2.135 . S
Co196 O197 2.216 . S
Co196 O198 2.091 . S
Co196 O200 2.004 . S
Co196 O206 2.021 . S
Co196 O208 2.137 . S
Co196 O209 2.244 . S
O197 Co196 2.216 . S
O197 C204 1.247 . S
O198 Co196 2.091 . S
O198 C204 1.261 . S
C199 O208 1.247 . S
C199 O209 1.272 . S
O200 Co196 2.004 . S
O200 C205 1.259 . S
Co201 O202 2.061 . S
Co201 O207 2.052 . S
Co201 O209 2.135 . S
O202 Co201 2.061 . S
O202 C205 1.235 . S
C203 O206 1.238 . S
C203 O207 1.241 . S
C204 O197 1.247 . S
C204 O198 1.261 . S
C205 O200 1.259 . S
C205 O202 1.235 . S
O206 Co196 2.021 . S
O206 C203 1.238 . S
O207 Co201 2.052 . S
O207 C203 1.241 . S
O208 Co196 2.137 . S
O208 C199 1.247 . S
O209 Co196 2.244 . S
O209 C199 1.272 . S
O209 Co201 2.135 . S
Co210 O211 2.216 . S
Co210 O212 2.091 . S
Co210 O214 2.004 . S
Co210 O220 2.021 . S
Co210 O222 2.137 . S
Co210 O223 2.244 . S
O211 Co210 2.216 . S
O211 C218 1.247 . S
O212 Co210 2.091 . S
O212 C218 1.261 . S
C213 O222 1.247 . S
C213 O223 1.272 . S
O214 Co210 2.004 . S
O214 C219 1.259 . S
Co215 O216 2.061 . S
Co215 O221 2.052 . S
Co215 O223 2.135 . S
O216 Co215 2.061 . S
O216 C219 1.235 . S
C217 O220 1.238 . S
C217 O221 1.241 . S
C218 O211 1.247 . S
C218 O212 1.261 . S
C219 O214 1.259 . S
C219 O216 1.235 . S
O220 Co210 2.021 . S
O220 C217 1.238 . S
O221 Co215 2.052 . S
O221 C217 1.241 . S
O222 Co210 2.137 . S
O222 C213 1.247 . S
O223 Co210 2.244 . S
O223 C213 1.272 . S
O223 Co215 2.135 . S
Co224 O225 2.216 . S
Co224 O226 2.091 . S
Co224 O228 2.004 . S
Co224 O234 2.021 . S
Co224 O236 2.137 . S
Co224 O237 2.244 . S
O225 Co224 2.216 . S
O225 C232 1.247 . S
O226 Co224 2.091 . S
O226 C232 1.261 . S
C227 O236 1.247 . S
C227 O237 1.272 . S
O228 Co224 2.004 . S
O228 C233 1.259 . S
Co229 O230 2.061 . S
Co229 O235 2.052 . S
Co229 O237 2.135 . S
O230 Co229 2.061 . S
O230 C233 1.235 . S
C231 O234 1.238 . S
C231 O235 1.241 . S
C232 O225 1.247 . S
C232 O226 1.261 . S
C233 O228 1.259 . S
C233 O230 1.235 . S
O234 Co224 2.021 . S
O234 C231 1.238 . S
O235 Co229 2.052 . S
O235 C231 1.241 . S
O236 Co224 2.137 . S
O236 C227 1.247 . S
O237 Co224 2.244 . S
O237 C227 1.272 . S
O237 Co229 2.135 . S
Co238 O239 2.216 . S
Co238 O240 2.091 . S
Co238 O242 2.004 . S
Co238 O248 2.021 . S
Co238 O250 2.137 . S
Co238 O251 2.244 . S
O239 Co238 2.216 . S
O239 C246 1.247 . S
O240 Co238 2.091 . S
O240 C246 1.261 . S
C241 O250 1.247 . S
C241 O251 1.272 . S
O242 Co238 2.004 . S
O242 C247 1.259 . S
Co243 O244 2.061 . S
Co243 O249 2.052 . S
Co243 O251 2.135 . S
O244 Co243 2.061 . S
O244 C247 1.235 . S
C245 O248 1.238 . S
C245 O249 1.241 . S
C246 O239 1.247 . S
C246 O240 1.261 . S
C247 O242 1.259 . S
C247 O244 1.235 . S
O248 Co238 2.021 . S
O248 C245 1.238 . S
O249 Co243 2.052 . S
O249 C245 1.241 . S
O250 Co238 2.137 . S
O250 C241 1.247 . S
O251 Co238 2.244 . S
O251 C241 1.272 . S
O251 Co243 2.135 . S
H252 C279 0.929 . S
N253 C278 1.433 . S
N253 C284 1.435 . S
N253 C290 1.423 . S
H254 C280 0.930 . S
H255 C283 0.931 . S
H256 C282 0.929 . S
H257 C285 0.930 . S
H258 C286 0.932 . S
H259 C289 0.929 . S
H260 C288 0.931 . S
H261 C291 0.929 . S
H262 C295 0.932 . S
H263 C292 0.931 . S
H264 C294 0.929 . S
H265 C297 0.929 . S
H266 C298 0.930 . S
H267 C300 0.929 . S
H268 C301 0.931 . S
H269 C303 0.930 . S
H270 C304 0.932 . S
H271 C306 0.931 . S
H272 C307 0.929 . S
H273 C309 0.929 . S
H274 C310 0.931 . S
H275 C312 0.929 . S
N276 C296 1.433 . S
N276 C302 1.435 . S
N276 C308 1.423 . S
H277 C313 0.932 . S
C278 N253 1.433 . S
C278 C279 1.363 . S
C278 C283 1.370 . S
C279 H252 0.929 . S
C279 C278 1.363 . S
C279 C280 1.385 . S
C280 H254 0.930 . S
C280 C279 1.385 . S
C280 C281 1.357 . S
C281 C280 1.357 . S
C281 C282 1.406 . S
C282 H256 0.929 . S
C282 C281 1.406 . S
C282 C283 1.391 . S
C283 H255 0.931 . S
C283 C278 1.370 . S
C283 C282 1.391 . S
C284 N253 1.435 . S
C284 C285 1.358 . S
C284 C289 1.371 . S
C285 H257 0.930 . S
C285 C284 1.358 . S
C285 C286 1.405 . S
C286 H258 0.932 . S
C286 C285 1.405 . S
C286 C287 1.383 . S
C287 C286 1.383 . S
C287 C288 1.393 . S
C288 H260 0.931 . S
C288 C287 1.393 . S
C288 C289 1.382 . S
C289 H259 0.929 . S
C289 C284 1.371 . S
C289 C288 1.382 . S
C290 N253 1.423 . S
C290 C291 1.362 . S
C290 C295 1.388 . S
C291 H261 0.929 . S
C291 C290 1.362 . S
C291 C292 1.376 . S
C292 H263 0.931 . S
C292 C291 1.376 . S
C292 C293 1.396 . S
C293 C292 1.396 . S
C293 C294 1.348 . S
C293 C311 1.472 . S
C294 H264 0.929 . S
C294 C293 1.348 . S
C294 C295 1.443 . S
C295 H262 0.932 . S
C295 C290 1.388 . S
C295 C294 1.443 . S
C296 N276 1.433 . S
C296 C297 1.363 . S
C296 C301 1.370 . S
C297 H265 0.929 . S
C297 C296 1.363 . S
C297 C298 1.385 . S
C298 H266 0.930 . S
C298 C297 1.385 . S
C298 C299 1.357 . S
C299 C298 1.357 . S
C299 C300 1.406 . S
C300 H267 0.929 . S
C300 C299 1.406 . S
C300 C301 1.391 . S
C301 H268 0.931 . S
C301 C296 1.370 . S
C301 C300 1.391 . S
C302 N276 1.435 . S
C302 C303 1.358 . S
C302 C307 1.371 . S
C303 H269 0.930 . S
C303 C302 1.358 . S
C303 C304 1.405 . S
C304 H270 0.932 . S
C304 C303 1.405 . S
C304 C305 1.383 . S
C305 C304 1.383 . S
C305 C306 1.393 . S
C306 H271 0.931 . S
C306 C305 1.393 . S
C306 C307 1.382 . S
C307 H272 0.929 . S
C307 C302 1.371 . S
C307 C306 1.382 . S
C308 N276 1.423 . S
C308 C309 1.362 . S
C308 C313 1.388 . S
C309 H273 0.929 . S
C309 C308 1.362 . S
C309 C310 1.376 . S
C310 H274 0.931 . S
C310 C309 1.376 . S
C310 C311 1.396 . S
C311 C293 1.472 . S
C311 C310 1.396 . S
C311 C312 1.348 . S
C312 H275 0.929 . S
C312 C311 1.348 . S
C312 C313 1.443 . S
C313 H277 0.932 . S
C313 C308 1.388 . S
C313 C312 1.443 . S
H314 C341 0.929 . S
N315 C340 1.433 . S
N315 C346 1.435 . S
N315 C352 1.423 . S
H316 C342 0.930 . S
H317 C345 0.931 . S
H318 C344 0.929 . S
H319 C347 0.930 . S
H320 C348 0.932 . S
H321 C351 0.929 . S
H322 C350 0.931 . S
H323 C353 0.929 . S
H324 C357 0.932 . S
H325 C354 0.931 . S
H326 C356 0.929 . S
H327 C359 0.929 . S
H328 C360 0.930 . S
H329 C362 0.929 . S
H330 C363 0.931 . S
H331 C365 0.930 . S
H332 C366 0.932 . S
H333 C368 0.931 . S
H334 C369 0.929 . S
H335 C371 0.929 . S
H336 C372 0.931 . S
H337 C374 0.929 . S
N338 C358 1.433 . S
N338 C364 1.435 . S
N338 C370 1.423 . S
H339 C375 0.932 . S
C340 N315 1.433 . S
C340 C341 1.363 . S
C340 C345 1.370 . S
C341 H314 0.929 . S
C341 C340 1.363 . S
C341 C342 1.385 . S
C342 H316 0.930 . S
C342 C341 1.385 . S
C342 C343 1.357 . S
C343 C342 1.357 . S
C343 C344 1.406 . S
C344 H318 0.929 . S
C344 C343 1.406 . S
C344 C345 1.391 . S
C345 H317 0.931 . S
C345 C340 1.370 . S
C345 C344 1.391 . S
C346 N315 1.435 . S
C346 C347 1.358 . S
C346 C351 1.371 . S
C347 H319 0.930 . S
C347 C346 1.358 . S
C347 C348 1.405 . S
C348 H320 0.932 . S
C348 C347 1.405 . S
C348 C349 1.383 . S
C349 C348 1.383 . S
C349 C350 1.393 . S
C350 H322 0.931 . S
C350 C349 1.393 . S
C350 C351 1.382 . S
C351 H321 0.929 . S
C351 C346 1.371 . S
C351 C350 1.382 . S
C352 N315 1.423 . S
C352 C353 1.362 . S
C352 C357 1.388 . S
C353 H323 0.929 . S
C353 C352 1.362 . S
C353 C354 1.376 . S
C354 H325 0.931 . S
C354 C353 1.376 . S
C354 C355 1.396 . S
C355 C354 1.396 . S
C355 C356 1.348 . S
C355 C373 1.472 . S
C356 H326 0.929 . S
C356 C355 1.348 . S
C356 C357 1.443 . S
C357 H324 0.932 . S
C357 C352 1.388 . S
C357 C356 1.443 . S
C358 N338 1.433 . S
C358 C359 1.363 . S
C358 C363 1.370 . S
C359 H327 0.929 . S
C359 C358 1.363 . S
C359 C360 1.385 . S
C360 H328 0.930 . S
C360 C359 1.385 . S
C360 C361 1.357 . S
C361 C360 1.357 . S
C361 C362 1.406 . S
C362 H329 0.929 . S
C362 C361 1.406 . S
C362 C363 1.391 . S
C363 H330 0.931 . S
C363 C358 1.370 . S
C363 C362 1.391 . S
C364 N338 1.435 . S
C364 C365 1.358 . S
C364 C369 1.371 . S
C365 H331 0.930 . S
C365 C364 1.358 . S
C365 C366 1.405 . S
C366 H332 0.932 . S
C366 C365 1.405 . S
C366 C367 1.383 . S
C367 C366 1.383 . S
C367 C368 1.393 . S
C368 H333 0.931 . S
C368 C367 1.393 . S
C368 C369 1.382 . S
C369 H334 0.929 . S
C369 C364 1.371 . S
C369 C368 1.382 . S
C370 N338 1.423 . S
C370 C371 1.362 . S
C370 C375 1.388 . S
C371 H335 0.929 . S
C371 C370 1.362 . S
C371 C372 1.376 . S
C372 H336 0.931 . S
C372 C371 1.376 . S
C372 C373 1.396 . S
C373 C355 1.472 . S
C373 C372 1.396 . S
C373 C374 1.348 . S
C374 H337 0.929 . S
C374 C373 1.348 . S
C374 C375 1.443 . S
C375 H339 0.932 . S
C375 C370 1.388 . S
C375 C374 1.443 . S
H376 C403 0.929 . S
N377 C402 1.433 . S
N377 C408 1.435 . S
N377 C414 1.423 . S
H378 C404 0.930 . S
H379 C407 0.931 . S
H380 C406 0.929 . S
H381 C409 0.930 . S
H382 C410 0.932 . S
H383 C413 0.929 . S
H384 C412 0.931 . S
H385 C415 0.929 . S
H386 C419 0.932 . S
H387 C416 0.931 . S
H388 C418 0.929 . S
H389 C421 0.929 . S
H390 C422 0.930 . S
H391 C424 0.929 . S
H392 C425 0.931 . S
H393 C427 0.930 . S
H394 C428 0.932 . S
H395 C430 0.931 . S
H396 C431 0.929 . S
H397 C433 0.929 . S
H398 C434 0.931 . S
H399 C436 0.929 . S
N400 C420 1.433 . S
N400 C426 1.435 . S
N400 C432 1.423 . S
H401 C437 0.932 . S
C402 N377 1.433 . S
C402 C403 1.363 . S
C402 C407 1.370 . S
C403 H376 0.929 . S
C403 C402 1.363 . S
C403 C404 1.385 . S
C404 H378 0.930 . S
C404 C403 1.385 . S
C404 C405 1.357 . S
C405 C404 1.357 . S
C405 C406 1.406 . S
C406 H380 0.929 . S
C406 C405 1.406 . S
C406 C407 1.391 . S
C407 H379 0.931 . S
C407 C402 1.370 . S
C407 C406 1.391 . S
C408 N377 1.435 . S
C408 C409 1.358 . S
C408 C413 1.371 . S
C409 H381 0.930 . S
C409 C408 1.358 . S
C409 C410 1.405 . S
C410 H382 0.932 . S
C410 C409 1.405 . S
C410 C411 1.383 . S
C411 C410 1.383 . S
C411 C412 1.393 . S
C412 H384 0.931 . S
C412 C411 1.393 . S
C412 C413 1.382 . S
C413 H383 0.929 . S
C413 C408 1.371 . S
C413 C412 1.382 . S
C414 N377 1.423 . S
C414 C415 1.362 . S
C414 C419 1.388 . S
C415 H385 0.929 . S
C415 C414 1.362 . S
C415 C416 1.376 . S
C416 H387 0.931 . S
C416 C415 1.376 . S
C416 C417 1.396 . S
C417 C416 1.396 . S
C417 C418 1.348 . S
C417 C435 1.472 . S
C418 H388 0.929 . S
C418 C417 1.348 . S
C418 C419 1.443 . S
C419 H386 0.932 . S
C419 C414 1.388 . S
C419 C418 1.443 . S
C420 N400 1.433 . S
C420 C421 1.363 . S
C420 C425 1.370 . S
C421 H389 0.929 . S
C421 C420 1.363 . S
C421 C422 1.385 . S
C422 H390 0.930 . S
C422 C421 1.385 . S
C422 C423 1.357 . S
C423 C422 1.357 . S
C423 C424 1.406 . S
C424 H391 0.929 . S
C424 C423 1.406 . S
C424 C425 1.391 . S
C425 H392 0.931 . S
C425 C420 1.370 . S
C425 C424 1.391 . S
C426 N400 1.435 . S
C426 C427 1.358 . S
C426 C431 1.371 . S
C427 H393 0.930 . S
C427 C426 1.358 . S
C427 C428 1.405 . S
C428 H394 0.932 . S
C428 C427 1.405 . S
C428 C429 1.383 . S
C429 C428 1.383 . S
C429 C430 1.393 . S
C430 H395 0.931 . S
C430 C429 1.393 . S
C430 C431 1.382 . S
C431 H396 0.929 . S
C431 C426 1.371 . S
C431 C430 1.382 . S
C432 N400 1.423 . S
C432 C433 1.362 . S
C432 C437 1.388 . S
C433 H397 0.929 . S
C433 C432 1.362 . S
C433 C434 1.376 . S
C434 H398 0.931 . S
C434 C433 1.376 . S
C434 C435 1.396 . S
C435 C417 1.472 . S
C435 C434 1.396 . S
C435 C436 1.348 . S
C436 H399 0.929 . S
C436 C435 1.348 . S
C436 C437 1.443 . S
C437 H401 0.932 . S
C437 C432 1.388 . S
C437 C436 1.443 . S
H438 C465 0.929 . S
N439 C464 1.433 . S
N439 C470 1.435 . S
N439 C476 1.423 . S
H440 C466 0.930 . S
H441 C469 0.931 . S
H442 C468 0.929 . S
H443 C471 0.930 . S
H444 C472 0.932 . S
H445 C475 0.929 . S
H446 C474 0.931 . S
H447 C477 0.929 . S
H448 C481 0.932 . S
H449 C478 0.931 . S
H450 C480 0.929 . S
H451 C483 0.929 . S
H452 C484 0.930 . S
H453 C486 0.929 . S
H454 C487 0.931 . S
H455 C489 0.930 . S
H456 C490 0.932 . S
H457 C492 0.931 . S
H458 C493 0.929 . S
H459 C495 0.929 . S
H460 C496 0.931 . S
H461 C498 0.929 . S
N462 C482 1.433 . S
N462 C488 1.435 . S
N462 C494 1.423 . S
H463 C499 0.932 . S
C464 N439 1.433 . S
C464 C465 1.363 . S
C464 C469 1.370 . S
C465 H438 0.929 . S
C465 C464 1.363 . S
C465 C466 1.385 . S
C466 H440 0.930 . S
C466 C465 1.385 . S
C466 C467 1.357 . S
C467 C466 1.357 . S
C467 C468 1.406 . S
C468 H442 0.929 . S
C468 C467 1.406 . S
C468 C469 1.391 . S
C469 H441 0.931 . S
C469 C464 1.370 . S
C469 C468 1.391 . S
C470 N439 1.435 . S
C470 C471 1.358 . S
C470 C475 1.371 . S
C471 H443 0.930 . S
C471 C470 1.358 . S
C471 C472 1.405 . S
C472 H444 0.932 . S
C472 C471 1.405 . S
C472 C473 1.383 . S
C473 C472 1.383 . S
C473 C474 1.393 . S
C474 H446 0.931 . S
C474 C473 1.393 . S
C474 C475 1.382 . S
C475 H445 0.929 . S
C475 C470 1.371 . S
C475 C474 1.382 . S
C476 N439 1.423 . S
C476 C477 1.362 . S
C476 C481 1.388 . S
C477 H447 0.929 . S
C477 C476 1.362 . S
C477 C478 1.376 . S
C478 H449 0.931 . S
C478 C477 1.376 . S
C478 C479 1.396 . S
C479 C478 1.396 . S
C479 C480 1.348 . S
C479 C497 1.472 . S
C480 H450 0.929 . S
C480 C479 1.348 . S
C480 C481 1.443 . S
C481 H448 0.932 . S
C481 C476 1.388 . S
C481 C480 1.443 . S
C482 N462 1.433 . S
C482 C483 1.363 . S
C482 C487 1.370 . S
C483 H451 0.929 . S
C483 C482 1.363 . S
C483 C484 1.385 . S
C484 H452 0.930 . S
C484 C483 1.385 . S
C484 C485 1.357 . S
C485 C484 1.357 . S
C485 C486 1.406 . S
C486 H453 0.929 . S
C486 C485 1.406 . S
C486 C487 1.391 . S
C487 H454 0.931 . S
C487 C482 1.370 . S
C487 C486 1.391 . S
C488 N462 1.435 . S
C488 C489 1.358 . S
C488 C493 1.371 . S
C489 H455 0.930 . S
C489 C488 1.358 . S
C489 C490 1.405 . S
C490 H456 0.932 . S
C490 C489 1.405 . S
C490 C491 1.383 . S
C491 C490 1.383 . S
C491 C492 1.393 . S
C492 H457 0.931 . S
C492 C491 1.393 . S
C492 C493 1.382 . S
C493 H458 0.929 . S
C493 C488 1.371 . S
C493 C492 1.382 . S
C494 N462 1.423 . S
C494 C495 1.362 . S
C494 C499 1.388 . S
C495 H459 0.929 . S
C495 C494 1.362 . S
C495 C496 1.376 . S
C496 H460 0.931 . S
C496 C495 1.376 . S
C496 C497 1.396 . S
C497 C479 1.472 . S
C497 C496 1.396 . S
C497 C498 1.348 . S
C498 H461 0.929 . S
C498 C497 1.348 . S
C498 C499 1.443 . S
C499 H463 0.932 . S
C499 C494 1.388 . S
C499 C498 1.443 . S
H500 C527 0.929 . S
N501 C526 1.433 . S
N501 C532 1.435 . S
N501 C538 1.423 . S
H502 C528 0.930 . S
H503 C531 0.931 . S
H504 C530 0.929 . S
H505 C533 0.930 . S
H506 C534 0.932 . S
H507 C537 0.929 . S
H508 C536 0.931 . S
H509 C539 0.929 . S
H510 C543 0.932 . S
H511 C540 0.931 . S
H512 C542 0.929 . S
H513 C545 0.929 . S
H514 C546 0.930 . S
H515 C548 0.929 . S
H516 C549 0.931 . S
H517 C551 0.930 . S
H518 C552 0.932 . S
H519 C554 0.931 . S
H520 C555 0.929 . S
H521 C557 0.929 . S
H522 C558 0.931 . S
H523 C560 0.929 . S
N524 C544 1.433 . S
N524 C550 1.435 . S
N524 C556 1.423 . S
H525 C561 0.932 . S
C526 N501 1.433 . S
C526 C527 1.363 . S
C526 C531 1.370 . S
C527 H500 0.929 . S
C527 C526 1.363 . S
C527 C528 1.385 . S
C528 H502 0.930 . S
C528 C527 1.385 . S
C528 C529 1.357 . S
C529 C528 1.357 . S
C529 C530 1.406 . S
C530 H504 0.929 . S
C530 C529 1.406 . S
C530 C531 1.391 . S
C531 H503 0.931 . S
C531 C526 1.370 . S
C531 C530 1.391 . S
C532 N501 1.435 . S
C532 C533 1.358 . S
C532 C537 1.371 . S
C533 H505 0.930 . S
C533 C532 1.358 . S
C533 C534 1.405 . S
C534 H506 0.932 . S
C534 C533 1.405 . S
C534 C535 1.383 . S
C535 C534 1.383 . S
C535 C536 1.393 . S
C536 H508 0.931 . S
C536 C535 1.393 . S
C536 C537 1.382 . S
C537 H507 0.929 . S
C537 C532 1.371 . S
C537 C536 1.382 . S
C538 N501 1.423 . S
C538 C539 1.362 . S
C538 C543 1.388 . S
C539 H509 0.929 . S
C539 C538 1.362 . S
C539 C540 1.376 . S
C540 H511 0.931 . S
C540 C539 1.376 . S
C540 C541 1.396 . S
C541 C540 1.396 . S
C541 C542 1.348 . S
C541 C559 1.472 . S
C542 H512 0.929 . S
C542 C541 1.348 . S
C542 C543 1.443 . S
C543 H510 0.932 . S
C543 C538 1.388 . S
C543 C542 1.443 . S
C544 N524 1.433 . S
C544 C545 1.363 . S
C544 C549 1.370 . S
C545 H513 0.929 . S
C545 C544 1.363 . S
C545 C546 1.385 . S
C546 H514 0.930 . S
C546 C545 1.385 . S
C546 C547 1.357 . S
C547 C546 1.357 . S
C547 C548 1.406 . S
C548 H515 0.929 . S
C548 C547 1.406 . S
C548 C549 1.391 . S
C549 H516 0.931 . S
C549 C544 1.370 . S
C549 C548 1.391 . S
C550 N524 1.435 . S
C550 C551 1.358 . S
C550 C555 1.371 . S
C551 H517 0.930 . S
C551 C550 1.358 . S
C551 C552 1.405 . S
C552 H518 0.932 . S
C552 C551 1.405 . S
C552 C553 1.383 . S
C553 C552 1.383 . S
C553 C554 1.393 . S
C554 H519 0.931 . S
C554 C553 1.393 . S
C554 C555 1.382 . S
C555 H520 0.929 . S
C555 C550 1.371 . S
C555 C554 1.382 . S
C556 N524 1.423 . S
C556 C557 1.362 . S
C556 C561 1.388 . S
C557 H521 0.929 . S
C557 C556 1.362 . S
C557 C558 1.376 . S
C558 H522 0.931 . S
C558 C557 1.376 . S
C558 C559 1.396 . S
C559 C541 1.472 . S
C559 C558 1.396 . S
C559 C560 1.348 . S
C560 H523 0.929 . S
C560 C559 1.348 . S
C560 C561 1.443 . S
C561 H525 0.932 . S
C561 C556 1.388 . S
C561 C560 1.443 . S
H562 C589 0.929 . S
N563 C588 1.433 . S
N563 C594 1.435 . S
N563 C600 1.423 . S
H564 C590 0.930 . S
H565 C593 0.931 . S
H566 C592 0.929 . S
H567 C595 0.930 . S
H568 C596 0.932 . S
H569 C599 0.929 . S
H570 C598 0.931 . S
H571 C601 0.929 . S
H572 C605 0.932 . S
H573 C602 0.931 . S
H574 C604 0.929 . S
H575 C607 0.929 . S
H576 C608 0.930 . S
H577 C610 0.929 . S
H578 C611 0.931 . S
H579 C613 0.930 . S
H580 C614 0.932 . S
H581 C616 0.931 . S
H582 C617 0.929 . S
H583 C619 0.929 . S
H584 C620 0.931 . S
H585 C622 0.929 . S
N586 C606 1.433 . S
N586 C612 1.435 . S
N586 C618 1.423 . S
H587 C623 0.932 . S
C588 N563 1.433 . S
C588 C589 1.363 . S
C588 C593 1.370 . S
C589 H562 0.929 . S
C589 C588 1.363 . S
C589 C590 1.385 . S
C590 H564 0.930 . S
C590 C589 1.385 . S
C590 C591 1.357 . S
C591 C590 1.357 . S
C591 C592 1.406 . S
C592 H566 0.929 . S
C592 C591 1.406 . S
C592 C593 1.391 . S
C593 H565 0.931 . S
C593 C588 1.370 . S
C593 C592 1.391 . S
C594 N563 1.435 . S
C594 C595 1.358 . S
C594 C599 1.371 . S
C595 H567 0.930 . S
C595 C594 1.358 . S
C595 C596 1.405 . S
C596 H568 0.932 . S
C596 C595 1.405 . S
C596 C597 1.383 . S
C597 C596 1.383 . S
C597 C598 1.393 . S
C598 H570 0.931 . S
C598 C597 1.393 . S
C598 C599 1.382 . S
C599 H569 0.929 . S
C599 C594 1.371 . S
C599 C598 1.382 . S
C600 N563 1.423 . S
C600 C601 1.362 . S
C600 C605 1.388 . S
C601 H571 0.929 . S
C601 C600 1.362 . S
C601 C602 1.376 . S
C602 H573 0.931 . S
C602 C601 1.376 . S
C602 C603 1.396 . S
C603 C602 1.396 . S
C603 C604 1.348 . S
C603 C621 1.472 . S
C604 H574 0.929 . S
C604 C603 1.348 . S
C604 C605 1.443 . S
C605 H572 0.932 . S
C605 C600 1.388 . S
C605 C604 1.443 . S
C606 N586 1.433 . S
C606 C607 1.363 . S
C606 C611 1.370 . S
C607 H575 0.929 . S
C607 C606 1.363 . S
C607 C608 1.385 . S
C608 H576 0.930 . S
C608 C607 1.385 . S
C608 C609 1.357 . S
C609 C608 1.357 . S
C609 C610 1.406 . S
C610 H577 0.929 . S
C610 C609 1.406 . S
C610 C611 1.391 . S
C611 H578 0.931 . S
C611 C606 1.370 . S
C611 C610 1.391 . S
C612 N586 1.435 . S
C612 C613 1.358 . S
C612 C617 1.371 . S
C613 H579 0.930 . S
C613 C612 1.358 . S
C613 C614 1.405 . S
C614 H580 0.932 . S
C614 C613 1.405 . S
C614 C615 1.383 . S
C615 C614 1.383 . S
C615 C616 1.393 . S
C616 H581 0.931 . S
C616 C615 1.393 . S
C616 C617 1.382 . S
C617 H582 0.929 . S
C617 C612 1.371 . S
C617 C616 1.382 . S
C618 N586 1.423 . S
C618 C619 1.362 . S
C618 C623 1.388 . S
C619 H583 0.929 . S
C619 C618 1.362 . S
C619 C620 1.376 . S
C620 H584 0.931 . S
C620 C619 1.376 . S
C620 C621 1.396 . S
C621 C603 1.472 . S
C621 C620 1.396 . S
C621 C622 1.348 . S
C622 H585 0.929 . S
C622 C621 1.348 . S
C622 C623 1.443 . S
C623 H587 0.932 . S
C623 C618 1.388 . S
C623 C622 1.443 . S
H624 C651 0.929 . S
N625 C650 1.433 . S
N625 C656 1.435 . S
N625 C662 1.423 . S
H626 C652 0.930 . S
H627 C655 0.931 . S
H628 C654 0.929 . S
H629 C657 0.930 . S
H630 C658 0.932 . S
H631 C661 0.929 . S
H632 C660 0.931 . S
H633 C663 0.929 . S
H634 C667 0.932 . S
H635 C664 0.931 . S
H636 C666 0.929 . S
H637 C669 0.929 . S
H638 C670 0.930 . S
H639 C672 0.929 . S
H640 C673 0.931 . S
H641 C675 0.930 . S
H642 C676 0.932 . S
H643 C678 0.931 . S
H644 C679 0.929 . S
H645 C681 0.929 . S
H646 C682 0.931 . S
H647 C684 0.929 . S
N648 C668 1.433 . S
N648 C674 1.435 . S
N648 C680 1.423 . S
H649 C685 0.932 . S
C650 N625 1.433 . S
C650 C651 1.363 . S
C650 C655 1.370 . S
C651 H624 0.929 . S
C651 C650 1.363 . S
C651 C652 1.385 . S
C652 H626 0.930 . S
C652 C651 1.385 . S
C652 C653 1.357 . S
C653 C652 1.357 . S
C653 C654 1.406 . S
C654 H628 0.929 . S
C654 C653 1.406 . S
C654 C655 1.391 . S
C655 H627 0.931 . S
C655 C650 1.370 . S
C655 C654 1.391 . S
C656 N625 1.435 . S
C656 C657 1.358 . S
C656 C661 1.371 . S
C657 H629 0.930 . S
C657 C656 1.358 . S
C657 C658 1.405 . S
C658 H630 0.932 . S
C658 C657 1.405 . S
C658 C659 1.383 . S
C659 C658 1.383 . S
C659 C660 1.393 . S
C660 H632 0.931 . S
C660 C659 1.393 . S
C660 C661 1.382 . S
C661 H631 0.929 . S
C661 C656 1.371 . S
C661 C660 1.382 . S
C662 N625 1.423 . S
C662 C663 1.362 . S
C662 C667 1.388 . S
C663 H633 0.929 . S
C663 C662 1.362 . S
C663 C664 1.376 . S
C664 H635 0.931 . S
C664 C663 1.376 . S
C664 C665 1.396 . S
C665 C664 1.396 . S
C665 C666 1.348 . S
C665 C683 1.472 . S
C666 H636 0.929 . S
C666 C665 1.348 . S
C666 C667 1.443 . S
C667 H634 0.932 . S
C667 C662 1.388 . S
C667 C666 1.443 . S
C668 N648 1.433 . S
C668 C669 1.363 . S
C668 C673 1.370 . S
C669 H637 0.929 . S
C669 C668 1.363 . S
C669 C670 1.385 . S
C670 H638 0.930 . S
C670 C669 1.385 . S
C670 C671 1.357 . S
C671 C670 1.357 . S
C671 C672 1.406 . S
C672 H639 0.929 . S
C672 C671 1.406 . S
C672 C673 1.391 . S
C673 H640 0.931 . S
C673 C668 1.370 . S
C673 C672 1.391 . S
C674 N648 1.435 . S
C674 C675 1.358 . S
C674 C679 1.371 . S
C675 H641 0.930 . S
C675 C674 1.358 . S
C675 C676 1.405 . S
C676 H642 0.932 . S
C676 C675 1.405 . S
C676 C677 1.383 . S
C677 C676 1.383 . S
C677 C678 1.393 . S
C678 H643 0.931 . S
C678 C677 1.393 . S
C678 C679 1.382 . S
C679 H644 0.929 . S
C679 C674 1.371 . S
C679 C678 1.382 . S
C680 N648 1.423 . S
C680 C681 1.362 . S
C680 C685 1.388 . S
C681 H645 0.929 . S
C681 C680 1.362 . S
C681 C682 1.376 . S
C682 H646 0.931 . S
C682 C681 1.376 . S
C682 C683 1.396 . S
C683 C665 1.472 . S
C683 C682 1.396 . S
C683 C684 1.348 . S
C684 H647 0.929 . S
C684 C683 1.348 . S
C684 C685 1.443 . S
C685 H649 0.932 . S
C685 C680 1.388 . S
C685 C684 1.443 . S
H686 C713 0.929 . S
N687 C712 1.433 . S
N687 C718 1.435 . S
N687 C724 1.423 . S
H688 C714 0.930 . S
H689 C717 0.931 . S
H690 C716 0.929 . S
H691 C719 0.930 . S
H692 C720 0.932 . S
H693 C723 0.929 . S
H694 C722 0.931 . S
H695 C725 0.929 . S
H696 C729 0.932 . S
H697 C726 0.931 . S
H698 C728 0.929 . S
H699 C731 0.929 . S
H700 C732 0.930 . S
H701 C734 0.929 . S
H702 C735 0.931 . S
H703 C737 0.930 . S
H704 C738 0.932 . S
H705 C740 0.931 . S
H706 C741 0.929 . S
H707 C743 0.929 . S
H708 C744 0.931 . S
H709 C746 0.929 . S
N710 C730 1.433 . S
N710 C736 1.435 . S
N710 C742 1.423 . S
H711 C747 0.932 . S
C712 N687 1.433 . S
C712 C713 1.363 . S
C712 C717 1.370 . S
C713 H686 0.929 . S
C713 C712 1.363 . S
C713 C714 1.385 . S
C714 H688 0.930 . S
C714 C713 1.385 . S
C714 C715 1.357 . S
C715 C714 1.357 . S
C715 C716 1.406 . S
C716 H690 0.929 . S
C716 C715 1.406 . S
C716 C717 1.391 . S
C717 H689 0.931 . S
C717 C712 1.370 . S
C717 C716 1.391 . S
C718 N687 1.435 . S
C718 C719 1.358 . S
C718 C723 1.371 . S
C719 H691 0.930 . S
C719 C718 1.358 . S
C719 C720 1.405 . S
C720 H692 0.932 . S
C720 C719 1.405 . S
C720 C721 1.383 . S
C721 C720 1.383 . S
C721 C722 1.393 . S
C722 H694 0.931 . S
C722 C721 1.393 . S
C722 C723 1.382 . S
C723 H693 0.929 . S
C723 C718 1.371 . S
C723 C722 1.382 . S
C724 N687 1.423 . S
C724 C725 1.362 . S
C724 C729 1.388 . S
C725 H695 0.929 . S
C725 C724 1.362 . S
C725 C726 1.376 . S
C726 H697 0.931 . S
C726 C725 1.376 . S
C726 C727 1.396 . S
C727 C726 1.396 . S
C727 C728 1.348 . S
C727 C745 1.472 . S
C728 H698 0.929 . S
C728 C727 1.348 . S
C728 C729 1.443 . S
C729 H696 0.932 . S
C729 C724 1.388 . S
C729 C728 1.443 . S
C730 N710 1.433 . S
C730 C731 1.363 . S
C730 C735 1.370 . S
C731 H699 0.929 . S
C731 C730 1.363 . S
C731 C732 1.385 . S
C732 H700 0.930 . S
C732 C731 1.385 . S
C732 C733 1.357 . S
C733 C732 1.357 . S
C733 C734 1.406 . S
C734 H701 0.929 . S
C734 C733 1.406 . S
C734 C735 1.391 . S
C735 H702 0.931 . S
C735 C730 1.370 . S
C735 C734 1.391 . S
C736 N710 1.435 . S
C736 C737 1.358 . S
C736 C741 1.371 . S
C737 H703 0.930 . S
C737 C736 1.358 . S
C737 C738 1.405 . S
C738 H704 0.932 . S
C738 C737 1.405 . S
C738 C739 1.383 . S
C739 C738 1.383 . S
C739 C740 1.393 . S
C740 H705 0.931 . S
C740 C739 1.393 . S
C740 C741 1.382 . S
C741 H706 0.929 . S
C741 C736 1.371 . S
C741 C740 1.382 . S
C742 N710 1.423 . S
C742 C743 1.362 . S
C742 C747 1.388 . S
C743 H707 0.929 . S
C743 C742 1.362 . S
C743 C744 1.376 . S
C744 H708 0.931 . S
C744 C743 1.376 . S
C744 C745 1.396 . S
C745 C727 1.472 . S
C745 C744 1.396 . S
C745 C746 1.348 . S
C746 H709 0.929 . S
C746 C745 1.348 . S
C746 C747 1.443 . S
C747 H711 0.932 . S
C747 C742 1.388 . S
C747 C746 1.443 . S
H748 C775 0.929 . S
N749 C774 1.433 . S
N749 C780 1.435 . S
N749 C786 1.423 . S
H750 C776 0.930 . S
H751 C779 0.931 . S
H752 C778 0.929 . S
H753 C781 0.930 . S
H754 C782 0.932 . S
H755 C785 0.929 . S
H756 C784 0.931 . S
H757 C787 0.929 . S
H758 C791 0.932 . S
H759 C788 0.931 . S
H760 C790 0.929 . S
H761 C793 0.929 . S
H762 C794 0.930 . S
H763 C796 0.929 . S
H764 C797 0.931 . S
H765 C799 0.930 . S
H766 C800 0.932 . S
H767 C802 0.931 . S
H768 C803 0.929 . S
H769 C805 0.929 . S
H770 C806 0.931 . S
H771 C808 0.929 . S
N772 C792 1.433 . S
N772 C798 1.435 . S
N772 C804 1.423 . S
H773 C809 0.932 . S
C774 N749 1.433 . S
C774 C775 1.363 . S
C774 C779 1.370 . S
C775 H748 0.929 . S
C775 C774 1.363 . S
C775 C776 1.385 . S
C776 H750 0.930 . S
C776 C775 1.385 . S
C776 C777 1.357 . S
C777 C776 1.357 . S
C777 C778 1.406 . S
C778 H752 0.929 . S
C778 C777 1.406 . S
C778 C779 1.391 . S
C779 H751 0.931 . S
C779 C774 1.370 . S
C779 C778 1.391 . S
C780 N749 1.435 . S
C780 C781 1.358 . S
C780 C785 1.371 . S
C781 H753 0.930 . S
C781 C780 1.358 . S
C781 C782 1.405 . S
C782 H754 0.932 . S
C782 C781 1.405 . S
C782 C783 1.383 . S
C783 C782 1.383 . S
C783 C784 1.393 . S
C784 H756 0.931 . S
C784 C783 1.393 . S
C784 C785 1.382 . S
C785 H755 0.929 . S
C785 C780 1.371 . S
C785 C784 1.382 . S
C786 N749 1.423 . S
C786 C787 1.362 . S
C786 C791 1.388 . S
C787 H757 0.929 . S
C787 C786 1.362 . S
C787 C788 1.376 . S
C788 H759 0.931 . S
C788 C787 1.376 . S
C788 C789 1.396 . S
C789 C788 1.396 . S
C789 C790 1.348 . S
C789 C807 1.472 . S
C790 H760 0.929 . S
C790 C789 1.348 . S
C790 C791 1.443 . S
C791 H758 0.932 . S
C791 C786 1.388 . S
C791 C790 1.443 . S
C792 N772 1.433 . S
C792 C793 1.363 . S
C792 C797 1.370 . S
C793 H761 0.929 . S
C793 C792 1.363 . S
C793 C794 1.385 . S
C794 H762 0.930 . S
C794 C793 1.385 . S
C794 C795 1.357 . S
C795 C794 1.357 . S
C795 C796 1.406 . S
C796 H763 0.929 . S
C796 C795 1.406 . S
C796 C797 1.391 . S
C797 H764 0.931 . S
C797 C792 1.370 . S
C797 C796 1.391 . S
C798 N772 1.435 . S
C798 C799 1.358 . S
C798 C803 1.371 . S
C799 H765 0.930 . S
C799 C798 1.358 . S
C799 C800 1.405 . S
C800 H766 0.932 . S
C800 C799 1.405 . S
C800 C801 1.383 . S
C801 C800 1.383 . S
C801 C802 1.393 . S
C802 H767 0.931 . S
C802 C801 1.393 . S
C802 C803 1.382 . S
C803 H768 0.929 . S
C803 C798 1.371 . S
C803 C802 1.382 . S
C804 N772 1.423 . S
C804 C805 1.362 . S
C804 C809 1.388 . S
C805 H769 0.929 . S
C805 C804 1.362 . S
C805 C806 1.376 . S
C806 H770 0.931 . S
C806 C805 1.376 . S
C806 C807 1.396 . S
C807 C789 1.472 . S
C807 C806 1.396 . S
C807 C808 1.348 . S
C808 H771 0.929 . S
C808 C807 1.348 . S
C808 C809 1.443 . S
C809 H773 0.932 . S
C809 C804 1.388 . S
C809 C808 1.443 . S
H810 C837 0.929 . S
N811 C836 1.433 . S
N811 C842 1.435 . S
N811 C848 1.423 . S
H812 C838 0.930 . S
H813 C841 0.931 . S
H814 C840 0.929 . S
H815 C843 0.930 . S
H816 C844 0.932 . S
H817 C847 0.929 . S
H818 C846 0.931 . S
H819 C849 0.929 . S
H820 C853 0.932 1_655 S
H821 C850 0.931 . S
H822 C852 0.935 . S
H823 C855 0.929 . S
H824 C856 0.930 . S
H825 C858 0.929 . S
H826 C859 0.931 . S
H827 C861 0.930 . S
H828 C862 0.932 . S
H829 C864 0.931 . S
H830 C865 0.929 . S
H831 C867 0.929 . S
H832 C868 0.931 . S
H833 C870 0.971 . S
N834 C854 1.433 . S
N834 C860 1.435 . S
N834 C866 1.423 . S
H835 C871 0.932 1_655 S
C836 N811 1.433 . S
C836 C837 1.363 . S
C836 C841 1.370 1_455 S
C837 H810 0.929 . S
C837 C836 1.363 . S
C837 C838 1.385 . S
C838 H812 0.930 . S
C838 C837 1.385 . S
C838 C839 1.357 1_455 S
C839 C838 1.357 1_655 S
C839 C840 1.406 . S
C840 H814 0.929 . S
C840 C839 1.406 . S
C840 C841 1.391 . S
C841 H813 0.931 . S
C841 C836 1.370 1_655 S
C841 C840 1.391 . S
C842 N811 1.435 . S
C842 C843 1.358 1_455 S
C842 C847 1.371 . S
C843 H815 0.930 . S
C843 C842 1.358 1_655 S
C843 C844 1.405 . S
C844 H816 0.932 . S
C844 C843 1.405 . S
C844 C845 1.383 1_655 S
C845 C844 1.383 1_455 S
C845 C846 1.393 . S
C846 H818 0.931 . S
C846 C845 1.393 . S
C846 C847 1.382 . S
C847 H817 0.929 . S
C847 C842 1.371 . S
C847 C846 1.382 . S
C848 N811 1.423 . S
C848 C849 1.362 . S
C848 C853 1.388 . S
C849 H819 0.929 . S
C849 C848 1.362 . S
C849 C850 1.376 . S
C850 H821 0.931 . S
C850 C849 1.376 . S
C850 C851 1.396 . S
C851 C850 1.396 . S
C851 C852 1.348 . S
C851 C869 1.472 . S
C852 H822 0.935 . S
C852 C851 1.348 . S
C852 C853 1.443 . S
C853 H820 0.932 1_455 S
C853 C848 1.388 . S
C853 C852 1.443 . S
C854 N834 1.433 . S
C854 C855 1.363 . S
C854 C859 1.370 1_455 S
C855 H823 0.929 . S
C855 C854 1.363 . S
C855 C856 1.385 . S
C856 H824 0.930 . S
C856 C855 1.385 . S
C856 C857 1.357 1_455 S
C857 C856 1.357 1_655 S
C857 C858 1.406 . S
C858 H825 0.929 . S
C858 C857 1.406 . S
C858 C859 1.391 . S
C859 H826 0.931 . S
C859 C854 1.370 1_655 S
C859 C858 1.391 . S
C860 N834 1.435 . S
C860 C861 1.358 1_455 S
C860 C865 1.371 . S
C861 H827 0.930 . S
C861 C860 1.358 1_655 S
C861 C862 1.405 . S
C862 H828 0.932 . S
C862 C861 1.405 . S
C862 C863 1.383 1_655 S
C863 C862 1.383 1_455 S
C863 C864 1.393 . S
C864 H829 0.931 . S
C864 C863 1.393 . S
C864 C865 1.382 . S
C865 H830 0.929 . S
C865 C860 1.371 . S
C865 C864 1.382 . S
C866 N834 1.423 . S
C866 C867 1.362 . S
C866 C871 1.388 . S
C867 H831 0.929 . S
C867 C866 1.362 . S
C867 C868 1.376 . S
C868 H832 0.931 . S
C868 C867 1.376 . S
C868 C869 1.396 . S
C869 C851 1.472 . S
C869 C868 1.396 . S
C869 C870 1.348 . S
C870 H833 0.971 . S
C870 C869 1.348 . S
C870 C871 1.443 . S
C871 H835 0.932 1_455 S
C871 C866 1.388 . S
C871 C870 1.443 . S
H872 C899 0.929 . S
N873 C898 1.433 . S
N873 C904 1.435 . S
N873 C910 1.423 . S
H874 C900 0.930 . S
H875 C903 0.931 . S
H876 C902 0.929 . S
H877 C905 0.930 . S
H878 C906 0.932 . S
H879 C909 0.929 . S
H880 C908 0.931 . S
H881 C911 0.929 . S
H882 C915 0.932 . S
H883 C912 0.931 . S
H884 C914 0.929 . S
H885 C917 0.929 . S
H886 C918 0.930 . S
H887 C920 0.929 . S
H888 C921 0.931 . S
H889 C923 0.930 . S
H890 C924 0.932 . S
H891 C926 0.931 . S
H892 C927 0.929 . S
H893 C929 0.929 . S
H894 C930 0.931 . S
H895 C932 0.929 . S
N896 C916 1.433 . S
N896 C922 1.435 . S
N896 C928 1.423 . S
H897 C933 0.932 . S
C898 N873 1.433 . S
C898 C899 1.363 . S
C898 C903 1.370 . S
C899 H872 0.929 . S
C899 C898 1.363 . S
C899 C900 1.385 . S
C900 H874 0.930 . S
C900 C899 1.385 . S
C900 C901 1.357 . S
C901 C900 1.357 . S
C901 C902 1.406 . S
C902 H876 0.929 . S
C902 C901 1.406 . S
C902 C903 1.391 . S
C903 H875 0.931 . S
C903 C898 1.370 . S
C903 C902 1.391 . S
C904 N873 1.435 . S
C904 C905 1.358 . S
C904 C909 1.371 . S
C905 H877 0.930 . S
C905 C904 1.358 . S
C905 C906 1.405 . S
C906 H878 0.932 . S
C906 C905 1.405 . S
C906 C907 1.383 . S
C907 C906 1.383 . S
C907 C908 1.393 . S
C908 H880 0.931 . S
C908 C907 1.393 . S
C908 C909 1.382 . S
C909 H879 0.929 . S
C909 C904 1.371 . S
C909 C908 1.382 . S
C910 N873 1.423 . S
C910 C911 1.362 . S
C910 C915 1.388 . S
C911 H881 0.929 . S
C911 C910 1.362 . S
C911 C912 1.376 . S
C912 H883 0.931 . S
C912 C911 1.376 . S
C912 C913 1.396 . S
C913 C912 1.396 . S
C913 C914 1.348 . S
C913 C931 1.472 . S
C914 H884 0.929 . S
C914 C913 1.348 . S
C914 C915 1.443 . S
C915 H882 0.932 . S
C915 C910 1.388 . S
C915 C914 1.443 . S
C916 N896 1.433 . S
C916 C917 1.363 . S
C916 C921 1.370 . S
C917 H885 0.929 . S
C917 C916 1.363 . S
C917 C918 1.385 . S
C918 H886 0.930 . S
C918 C917 1.385 . S
C918 C919 1.357 . S
C919 C918 1.357 . S
C919 C920 1.406 . S
C920 H887 0.929 . S
C920 C919 1.406 . S
C920 C921 1.391 . S
C921 H888 0.931 . S
C921 C916 1.370 . S
C921 C920 1.391 . S
C922 N896 1.435 . S
C922 C923 1.358 . S
C922 C927 1.371 . S
C923 H889 0.930 . S
C923 C922 1.358 . S
C923 C924 1.405 . S
C924 H890 0.932 . S
C924 C923 1.405 . S
C924 C925 1.383 . S
C925 C924 1.383 . S
C925 C926 1.393 . S
C926 H891 0.931 . S
C926 C925 1.393 . S
C926 C927 1.382 . S
C927 H892 0.929 . S
C927 C922 1.371 . S
C927 C926 1.382 . S
C928 N896 1.423 . S
C928 C929 1.362 . S
C928 C933 1.388 . S
C929 H893 0.929 . S
C929 C928 1.362 . S
C929 C930 1.376 . S
C930 H894 0.931 . S
C930 C929 1.376 . S
C930 C931 1.396 . S
C931 C913 1.472 . S
C931 C930 1.396 . S
C931 C932 1.348 . S
C932 H895 0.929 . S
C932 C931 1.348 . S
C932 C933 1.443 . S
C933 H897 0.932 . S
C933 C928 1.388 . S
C933 C932 1.443 . S
H934 C961 0.929 . S
N935 C960 1.433 . S
N935 C966 1.435 . S
N935 C972 1.423 . S
H936 C962 0.930 . S
H937 C965 0.931 . S
H938 C964 0.929 . S
H939 C967 0.930 . S
H940 C968 0.932 . S
H941 C971 0.929 . S
H942 C970 0.931 . S
H943 C973 0.929 . S
H944 C977 0.932 1_545 S
H945 C974 0.931 . S
H946 C976 0.978 . S
H947 C979 0.929 . S
H948 C980 0.930 . S
H949 C982 0.929 . S
H950 C983 0.931 . S
H951 C985 0.930 . S
H952 C986 0.932 . S
H953 C988 0.931 . S
H954 C989 0.929 . S
H955 C991 0.929 . S
H956 C992 0.931 . S
H957 C994 0.936 . S
N958 C978 1.433 . S
N958 C984 1.435 . S
N958 C990 1.423 . S
H959 C995 0.932 1_545 S
C960 N935 1.433 . S
C960 C961 1.363 . S
C960 C965 1.370 1_565 S
C961 H934 0.929 . S
C961 C960 1.363 . S
C961 C962 1.385 . S
C962 H936 0.930 . S
C962 C961 1.385 . S
C962 C963 1.357 1_565 S
C963 C962 1.357 1_545 S
C963 C964 1.406 . S
C964 H938 0.929 . S
C964 C963 1.406 . S
C964 C965 1.391 . S
C965 H937 0.931 . S
C965 C960 1.370 1_545 S
C965 C964 1.391 . S
C966 N935 1.435 . S
C966 C967 1.358 1_565 S
C966 C971 1.371 . S
C967 H939 0.930 . S
C967 C966 1.358 1_545 S
C967 C968 1.405 . S
C968 H940 0.932 . S
C968 C967 1.405 . S
C968 C969 1.383 1_545 S
C969 C968 1.383 1_565 S
C969 C970 1.393 . S
C970 H942 0.931 . S
C970 C969 1.393 . S
C970 C971 1.382 . S
C971 H941 0.929 . S
C971 C966 1.371 . S
C971 C970 1.382 . S
C972 N935 1.423 . S
C972 C973 1.362 . S
C972 C977 1.388 . S
C973 H943 0.929 . S
C973 C972 1.362 . S
C973 C974 1.376 . S
C974 H945 0.931 . S
C974 C973 1.376 . S
C974 C975 1.396 . S
C975 C974 1.396 . S
C975 C976 1.348 . S
C975 C993 1.472 . S
C976 H946 0.978 . S
C976 C975 1.348 . S
C976 C977 1.443 . S
C977 H944 0.932 1_565 S
C977 C972 1.388 . S
C977 C976 1.443 . S
C978 N958 1.433 . S
C978 C979 1.363 . S
C978 C983 1.370 1_565 S
C979 H947 0.929 . S
C979 C978 1.363 . S
C979 C980 1.385 . S
C980 H948 0.930 . S
C980 C979 1.385 . S
C980 C981 1.357 1_565 S
C981 C980 1.357 1_545 S
C981 C982 1.406 . S
C982 H949 0.929 . S
C982 C981 1.406 . S
C982 C983 1.391 . S
C983 H950 0.931 . S
C983 C978 1.370 1_545 S
C983 C982 1.391 . S
C984 N958 1.435 . S
C984 C985 1.358 1_565 S
C984 C989 1.371 . S
C985 H951 0.930 . S
C985 C984 1.358 1_545 S
C985 C986 1.405 . S
C986 H952 0.932 . S
C986 C985 1.405 . S
C986 C987 1.383 1_545 S
C987 C986 1.383 1_565 S
C987 C988 1.393 . S
C988 H953 0.931 . S
C988 C987 1.393 . S
C988 C989 1.382 . S
C989 H954 0.929 . S
C989 C984 1.371 . S
C989 C988 1.382 . S
C990 N958 1.423 . S
C990 C991 1.362 . S
C990 C995 1.388 . S
C991 H955 0.929 . S
C991 C990 1.362 . S
C991 C992 1.376 . S
C992 H956 0.931 . S
C992 C991 1.376 . S
C992 C993 1.396 . S
C993 C975 1.472 . S
C993 C992 1.396 . S
C993 C994 1.348 . S
C994 H957 0.936 . S
C994 C993 1.348 . S
C994 C995 1.443 . S
C995 H959 0.932 1_565 S
C995 C990 1.388 . S
C995 C994 1.443 . S
H996 C1023 0.929 . S
N997 C1022 1.433 . S
N997 C1028 1.435 . S
N997 C1034 1.423 . S
H998 C1024 0.930 . S
H999 C1027 0.931 . S
H1000 C1026 0.929 . S
H1001 C1029 0.930 . S
H1002 C1030 0.932 . S
H1003 C1033 0.929 . S
H1004 C1032 0.931 . S
H1005 C1035 0.929 . S
H1006 C1039 1.011 . S
H1007 C1036 0.931 . S
H1008 C1038 0.918 1_545 S
H1009 C1041 0.929 . S
H1010 C1042 0.930 . S
H1011 C1044 0.929 . S
H1012 C1045 0.995 . S
H1013 C1047 0.930 . S
H1014 C1048 0.932 . S
H1015 C1050 0.931 . S
H1016 C1051 0.929 . S
H1017 C1053 0.929 . S
H1018 C1054 0.931 . S
H1019 C1056 0.873 1_545 S
N1020 C1040 1.433 . S
N1020 C1046 1.435 . S
N1020 C1052 1.423 . S
H1021 C1057 0.953 . S
C1022 N997 1.433 . S
C1022 C1023 1.363 . S
C1022 C1027 1.370 1_565 S
C1023 H996 0.929 . S
C1023 C1022 1.363 . S
C1023 C1024 1.385 . S
C1024 H998 0.930 . S
C1024 C1023 1.385 . S
C1024 C1025 1.357 . S
C1025 C1024 1.357 . S
C1025 C1026 1.406 1_565 S
C1026 H1000 0.929 . S
C1026 C1025 1.406 1_545 S
C1026 C1027 1.391 . S
C1027 H999 0.931 . S
C1027 C1022 1.370 1_545 S
C1027 C1026 1.391 . S
C1028 N997 1.435 . S
C1028 C1029 1.358 1_565 S
C1028 C1033 1.371 . S
C1029 H1001 0.930 . S
C1029 C1028 1.358 1_545 S
C1029 C1030 1.405 . S
C1030 H1002 0.932 . S
C1030 C1029 1.405 . S
C1030 C1031 1.383 . S
C1031 C1030 1.383 . S
C1031 C1032 1.393 1_545 S
C1032 H1004 0.931 . S
C1032 C1031 1.393 1_565 S
C1032 C1033 1.382 . S
C1033 H1003 0.929 . S
C1033 C1028 1.371 . S
C1033 C1032 1.382 . S
C1034 N997 1.423 . S
C1034 C1035 1.362 . S
C1034 C1039 1.367 1_565 S
C1035 H1005 0.929 . S
C1035 C1034 1.362 . S
C1035 C1036 1.376 . S
C1036 H1007 0.931 . S
C1036 C1035 1.376 . S
C1036 C1037 1.396 . S
C1037 C1036 1.396 . S
C1037 C1038 1.399 . S
C1037 C1055 1.472 . S
C1038 H1008 0.918 1_565 S
C1038 C1037 1.399 . S
C1038 C1039 1.355 1_565 S
C1039 H1006 1.011 . S
C1039 C1034 1.367 1_545 S
C1039 C1038 1.355 1_545 S
C1040 N1020 1.433 . S
C1040 C1041 1.363 . S
C1040 C1045 1.321 1_565 S
C1041 H1009 0.929 . S
C1041 C1040 1.363 . S
C1041 C1042 1.385 . S
C1042 H1010 0.930 . S
C1042 C1041 1.385 . S
C1042 C1043 1.357 . S
C1043 C1042 1.357 . S
C1043 C1044 1.406 1_565 S
C1044 H1011 0.929 . S
C1044 C1043 1.406 1_545 S
C1044 C1045 1.381 . S
C1045 H1012 0.995 . S
C1045 C1040 1.321 1_545 S
C1045 C1044 1.381 . S
C1046 N1020 1.435 . S
C1046 C1047 1.358 1_565 S
C1046 C1051 1.371 . S
C1047 H1013 0.930 . S
C1047 C1046 1.358 1_545 S
C1047 C1048 1.405 . S
C1048 H1014 0.932 . S
C1048 C1047 1.405 . S
C1048 C1049 1.383 . S
C1049 C1048 1.383 . S
C1049 C1050 1.393 1_545 S
C1050 H1015 0.931 . S
C1050 C1049 1.393 1_565 S
C1050 C1051 1.382 . S
C1051 H1016 0.929 . S
C1051 C1046 1.371 . S
C1051 C1050 1.382 . S
C1052 N1020 1.423 . S
C1052 C1053 1.362 . S
C1052 C1057 1.343 1_565 S
C1053 H1017 0.929 . S
C1053 C1052 1.362 . S
C1053 C1054 1.376 . S
C1054 H1018 0.931 . S
C1054 C1053 1.376 . S
C1054 C1055 1.396 . S
C1055 C1037 1.472 . S
C1055 C1054 1.396 . S
C1055 C1056 1.371 . S
C1056 H1019 0.873 1_565 S
C1056 C1055 1.371 . S
C1056 C1057 1.507 1_565 S
C1057 H1021 0.953 . S
C1057 C1052 1.343 1_545 S
C1057 C1056 1.507 1_545 S
H1058 C1085 0.929 . S
N1059 C1084 1.433 . S
N1059 C1090 1.435 . S
N1059 C1096 1.423 . S
H1060 C1086 0.930 . S
H1061 C1089 0.931 . S
H1062 C1088 0.929 . S
H1063 C1091 0.930 . S
H1064 C1092 0.932 . S
H1065 C1095 0.929 . S
H1066 C1094 0.931 . S
H1067 C1097 0.929 . S
H1068 C1101 0.932 1_455 S
H1069 C1098 0.931 . S
H1070 C1100 0.978 . S
H1071 C1103 0.929 . S
H1072 C1104 0.930 . S
H1073 C1106 0.929 . S
H1074 C1107 0.931 . S
H1075 C1109 0.930 . S
H1076 C1110 0.932 . S
H1077 C1112 0.931 . S
H1078 C1113 0.929 . S
H1079 C1115 0.929 . S
H1080 C1116 0.931 . S
H1081 C1118 0.936 . S
N1082 C1102 1.433 . S
N1082 C1108 1.435 . S
N1082 C1114 1.423 . S
H1083 C1119 0.932 1_455 S
C1084 N1059 1.433 . S
C1084 C1085 1.363 . S
C1084 C1089 1.370 1_655 S
C1085 H1058 0.929 . S
C1085 C1084 1.363 . S
C1085 C1086 1.385 . S
C1086 H1060 0.930 . S
C1086 C1085 1.385 . S
C1086 C1087 1.357 1_655 S
C1087 C1086 1.357 1_455 S
C1087 C1088 1.406 . S
C1088 H1062 0.929 . S
C1088 C1087 1.406 . S
C1088 C1089 1.391 . S
C1089 H1061 0.931 . S
C1089 C1084 1.370 1_455 S
C1089 C1088 1.391 . S
C1090 N1059 1.435 . S
C1090 C1091 1.358 1_655 S
C1090 C1095 1.371 . S
C1091 H1063 0.930 . S
C1091 C1090 1.358 1_455 S
C1091 C1092 1.405 . S
C1092 H1064 0.932 . S
C1092 C1091 1.405 . S
C1092 C1093 1.383 1_455 S
C1093 C1092 1.383 1_655 S
C1093 C1094 1.393 . S
C1094 H1066 0.931 . S
C1094 C1093 1.393 . S
C1094 C1095 1.382 . S
C1095 H1065 0.929 . S
C1095 C1090 1.371 . S
C1095 C1094 1.382 . S
C1096 N1059 1.423 . S
C1096 C1097 1.362 . S
C1096 C1101 1.388 . S
C1097 H1067 0.929 . S
C1097 C1096 1.362 . S
C1097 C1098 1.376 . S
C1098 H1069 0.931 . S
C1098 C1097 1.376 . S
C1098 C1099 1.396 . S
C1099 C1098 1.396 . S
C1099 C1100 1.348 . S
C1099 C1117 1.472 . S
C1100 H1070 0.978 . S
C1100 C1099 1.348 . S
C1100 C1101 1.443 . S
C1101 H1068 0.932 1_655 S
C1101 C1096 1.388 . S
C1101 C1100 1.443 . S
C1102 N1082 1.433 . S
C1102 C1103 1.363 . S
C1102 C1107 1.370 1_655 S
C1103 H1071 0.929 . S
C1103 C1102 1.363 . S
C1103 C1104 1.385 . S
C1104 H1072 0.930 . S
C1104 C1103 1.385 . S
C1104 C1105 1.357 1_655 S
C1105 C1104 1.357 1_455 S
C1105 C1106 1.406 . S
C1106 H1073 0.929 . S
C1106 C1105 1.406 . S
C1106 C1107 1.391 . S
C1107 H1074 0.931 . S
C1107 C1102 1.370 1_455 S
C1107 C1106 1.391 . S
C1108 N1082 1.435 . S
C1108 C1109 1.358 1_655 S
C1108 C1113 1.371 . S
C1109 H1075 0.930 . S
C1109 C1108 1.358 1_455 S
C1109 C1110 1.405 . S
C1110 H1076 0.932 . S
C1110 C1109 1.405 . S
C1110 C1111 1.383 1_455 S
C1111 C1110 1.383 1_655 S
C1111 C1112 1.393 . S
C1112 H1077 0.931 . S
C1112 C1111 1.393 . S
C1112 C1113 1.382 . S
C1113 H1078 0.929 . S
C1113 C1108 1.371 . S
C1113 C1112 1.382 . S
C1114 N1082 1.423 . S
C1114 C1115 1.362 . S
C1114 C1119 1.388 . S
C1115 H1079 0.929 . S
C1115 C1114 1.362 . S
C1115 C1116 1.376 . S
C1116 H1080 0.931 . S
C1116 C1115 1.376 . S
C1116 C1117 1.396 . S
C1117 C1099 1.472 . S
C1117 C1116 1.396 . S
C1117 C1118 1.348 . S
C1118 H1081 0.936 . S
C1118 C1117 1.348 . S
C1118 C1119 1.443 . S
C1119 H1083 0.932 1_655 S
C1119 C1114 1.388 . S
C1119 C1118 1.443 . S
H1120 C1147 0.929 . S
N1121 C1146 1.433 . S
N1121 C1152 1.435 . S
N1121 C1158 1.423 . S
H1122 C1148 0.930 . S
H1123 C1151 0.931 . S
H1124 C1150 0.929 . S
H1125 C1153 0.930 . S
H1126 C1154 0.932 . S
H1127 C1157 0.929 . S
H1128 C1156 0.931 . S
H1129 C1159 0.929 . S
H1130 C1163 0.932 . S
H1131 C1160 0.931 . S
H1132 C1162 0.929 . S
H1133 C1165 0.929 . S
H1134 C1166 0.930 . S
H1135 C1168 0.929 . S
H1136 C1169 0.931 . S
H1137 C1171 0.930 . S
H1138 C1172 0.932 . S
H1139 C1174 0.931 . S
H1140 C1175 0.929 . S
H1141 C1177 0.929 . S
H1142 C1178 0.931 . S
H1143 C1180 0.929 . S
N1144 C1164 1.433 . S
N1144 C1170 1.435 . S
N1144 C1176 1.423 . S
H1145 C1181 0.932 . S
C1146 N1121 1.433 . S
C1146 C1147 1.363 . S
C1146 C1151 1.370 . S
C1147 H1120 0.929 . S
C1147 C1146 1.363 . S
C1147 C1148 1.385 . S
C1148 H1122 0.930 . S
C1148 C1147 1.385 . S
C1148 C1149 1.357 . S
C1149 C1148 1.357 . S
C1149 C1150 1.406 . S
C1150 H1124 0.929 . S
C1150 C1149 1.406 . S
C1150 C1151 1.391 . S
C1151 H1123 0.931 . S
C1151 C1146 1.370 . S
C1151 C1150 1.391 . S
C1152 N1121 1.435 . S
C1152 C1153 1.358 . S
C1152 C1157 1.371 . S
C1153 H1125 0.930 . S
C1153 C1152 1.358 . S
C1153 C1154 1.405 . S
C1154 H1126 0.932 . S
C1154 C1153 1.405 . S
C1154 C1155 1.383 . S
C1155 C1154 1.383 . S
C1155 C1156 1.393 . S
C1156 H1128 0.931 . S
C1156 C1155 1.393 . S
C1156 C1157 1.382 . S
C1157 H1127 0.929 . S
C1157 C1152 1.371 . S
C1157 C1156 1.382 . S
C1158 N1121 1.423 . S
C1158 C1159 1.362 . S
C1158 C1163 1.388 . S
C1159 H1129 0.929 . S
C1159 C1158 1.362 . S
C1159 C1160 1.376 . S
C1160 H1131 0.931 . S
C1160 C1159 1.376 . S
C1160 C1161 1.396 . S
C1161 C1160 1.396 . S
C1161 C1162 1.348 . S
C1161 C1179 1.472 . S
C1162 H1132 0.929 . S
C1162 C1161 1.348 . S
C1162 C1163 1.443 . S
C1163 H1130 0.932 . S
C1163 C1158 1.388 . S
C1163 C1162 1.443 . S
C1164 N1144 1.433 . S
C1164 C1165 1.363 . S
C1164 C1169 1.370 . S
C1165 H1133 0.929 . S
C1165 C1164 1.363 . S
C1165 C1166 1.385 . S
C1166 H1134 0.930 . S
C1166 C1165 1.385 . S
C1166 C1167 1.357 . S
C1167 C1166 1.357 . S
C1167 C1168 1.406 . S
C1168 H1135 0.929 . S
C1168 C1167 1.406 . S
C1168 C1169 1.391 . S
C1169 H1136 0.931 . S
C1169 C1164 1.370 . S
C1169 C1168 1.391 . S
C1170 N1144 1.435 . S
C1170 C1171 1.358 . S
C1170 C1175 1.371 . S
C1171 H1137 0.930 . S
C1171 C1170 1.358 . S
C1171 C1172 1.405 . S
C1172 H1138 0.932 . S
C1172 C1171 1.405 . S
C1172 C1173 1.383 . S
C1173 C1172 1.383 . S
C1173 C1174 1.393 . S
C1174 H1139 0.931 . S
C1174 C1173 1.393 . S
C1174 C1175 1.382 . S
C1175 H1140 0.929 . S
C1175 C1170 1.371 . S
C1175 C1174 1.382 . S
C1176 N1144 1.423 . S
C1176 C1177 1.362 . S
C1176 C1181 1.388 . S
C1177 H1141 0.929 . S
C1177 C1176 1.362 . S
C1177 C1178 1.376 . S
C1178 H1142 0.931 . S
C1178 C1177 1.376 . S
C1178 C1179 1.396 . S
C1179 C1161 1.472 . S
C1179 C1178 1.396 . S
C1179 C1180 1.348 . S
C1180 H1143 0.929 . S
C1180 C1179 1.348 . S
C1180 C1181 1.443 . S
C1181 H1145 0.932 . S
C1181 C1176 1.388 . S
C1181 C1180 1.443 . S
H1182 C1209 0.929 . S
N1183 C1208 1.433 . S
N1183 C1214 1.435 . S
N1183 C1220 1.423 . S
H1184 C1210 0.930 . S
H1185 C1213 0.931 . S
H1186 C1212 0.929 . S
H1187 C1215 0.930 . S
H1188 C1216 0.932 . S
H1189 C1219 0.929 . S
H1190 C1218 0.931 . S
H1191 C1221 0.929 . S
H1192 C1225 0.932 . S
H1193 C1222 0.931 . S
H1194 C1224 0.929 . S
H1195 C1227 0.929 . S
H1196 C1228 0.930 . S
H1197 C1230 0.929 . S
H1198 C1231 0.931 . S
H1199 C1233 0.930 . S
H1200 C1234 0.932 . S
H1201 C1236 0.931 . S
H1202 C1237 0.929 . S
H1203 C1239 0.929 . S
H1204 C1240 0.931 . S
H1205 C1242 0.929 . S
N1206 C1226 1.433 . S
N1206 C1232 1.435 . S
N1206 C1238 1.423 . S
H1207 C1243 0.932 . S
C1208 N1183 1.433 . S
C1208 C1209 1.363 . S
C1208 C1213 1.370 . S
C1209 H1182 0.929 . S
C1209 C1208 1.363 . S
C1209 C1210 1.385 . S
C1210 H1184 0.930 . S
C1210 C1209 1.385 . S
C1210 C1211 1.357 . S
C1211 C1210 1.357 . S
C1211 C1212 1.406 . S
C1212 H1186 0.929 . S
C1212 C1211 1.406 . S
C1212 C1213 1.391 . S
C1213 H1185 0.931 . S
C1213 C1208 1.370 . S
C1213 C1212 1.391 . S
C1214 N1183 1.435 . S
C1214 C1215 1.358 . S
C1214 C1219 1.371 . S
C1215 H1187 0.930 . S
C1215 C1214 1.358 . S
C1215 C1216 1.405 . S
C1216 H1188 0.932 . S
C1216 C1215 1.405 . S
C1216 C1217 1.383 . S
C1217 C1216 1.383 . S
C1217 C1218 1.393 . S
C1218 H1190 0.931 . S
C1218 C1217 1.393 . S
C1218 C1219 1.382 . S
C1219 H1189 0.929 . S
C1219 C1214 1.371 . S
C1219 C1218 1.382 . S
C1220 N1183 1.423 . S
C1220 C1221 1.362 . S
C1220 C1225 1.388 . S
C1221 H1191 0.929 . S
C1221 C1220 1.362 . S
C1221 C1222 1.376 . S
C1222 H1193 0.931 . S
C1222 C1221 1.376 . S
C1222 C1223 1.396 . S
C1223 C1222 1.396 . S
C1223 C1224 1.348 . S
C1223 C1241 1.472 . S
C1224 H1194 0.929 . S
C1224 C1223 1.348 . S
C1224 C1225 1.443 . S
C1225 H1192 0.932 . S
C1225 C1220 1.388 . S
C1225 C1224 1.443 . S
C1226 N1206 1.433 . S
C1226 C1227 1.363 . S
C1226 C1231 1.370 . S
C1227 H1195 0.929 . S
C1227 C1226 1.363 . S
C1227 C1228 1.385 . S
C1228 H1196 0.930 . S
C1228 C1227 1.385 . S
C1228 C1229 1.357 . S
C1229 C1228 1.357 . S
C1229 C1230 1.406 . S
C1230 H1197 0.929 . S
C1230 C1229 1.406 . S
C1230 C1231 1.391 . S
C1231 H1198 0.931 . S
C1231 C1226 1.370 . S
C1231 C1230 1.391 . S
C1232 N1206 1.435 . S
C1232 C1233 1.358 . S
C1232 C1237 1.371 . S
C1233 H1199 0.930 . S
C1233 C1232 1.358 . S
C1233 C1234 1.405 . S
C1234 H1200 0.932 . S
C1234 C1233 1.405 . S
C1234 C1235 1.383 . S
C1235 C1234 1.383 . S
C1235 C1236 1.393 . S
C1236 H1201 0.931 . S
C1236 C1235 1.393 . S
C1236 C1237 1.382 . S
C1237 H1202 0.929 . S
C1237 C1232 1.371 . S
C1237 C1236 1.382 . S
C1238 N1206 1.423 . S
C1238 C1239 1.362 . S
C1238 C1243 1.388 . S
C1239 H1203 0.929 . S
C1239 C1238 1.362 . S
C1239 C1240 1.376 . S
C1240 H1204 0.931 . S
C1240 C1239 1.376 . S
C1240 C1241 1.396 . S
C1241 C1223 1.472 . S
C1241 C1240 1.396 . S
C1241 C1242 1.348 . S
C1242 H1205 0.929 . S
C1242 C1241 1.348 . S
C1242 C1243 1.443 . S
C1243 H1207 0.932 . S
C1243 C1238 1.388 . S
C1243 C1242 1.443 . S
H1244 C1271 0.929 . S
N1245 C1270 1.433 . S
N1245 C1276 1.435 . S
N1245 C1282 1.423 . S
H1246 C1272 0.930 . S
H1247 C1275 0.931 . S
H1248 C1274 0.929 . S
H1249 C1277 0.930 . S
H1250 C1278 0.932 . S
H1251 C1281 0.929 . S
H1252 C1280 0.931 . S
H1253 C1283 0.929 . S
H1254 C1287 0.932 . S
H1255 C1284 0.931 . S
H1256 C1286 0.929 . S
H1257 C1289 0.929 . S
H1258 C1290 0.930 . S
H1259 C1292 0.929 . S
H1260 C1293 0.931 . S
H1261 C1295 0.930 . S
H1262 C1296 0.932 . S
H1263 C1298 0.931 . S
H1264 C1299 0.929 . S
H1265 C1301 0.929 . S
H1266 C1302 0.931 . S
H1267 C1304 0.929 . S
N1268 C1288 1.433 . S
N1268 C1294 1.435 . S
N1268 C1300 1.423 . S
H1269 C1305 0.932 . S
C1270 N1245 1.433 . S
C1270 C1271 1.363 . S
C1270 C1275 1.370 . S
C1271 H1244 0.929 . S
C1271 C1270 1.363 . S
C1271 C1272 1.385 . S
C1272 H1246 0.930 . S
C1272 C1271 1.385 . S
C1272 C1273 1.357 . S
C1273 C1272 1.357 . S
C1273 C1274 1.406 . S
C1274 H1248 0.929 . S
C1274 C1273 1.406 . S
C1274 C1275 1.391 . S
C1275 H1247 0.931 . S
C1275 C1270 1.370 . S
C1275 C1274 1.391 . S
C1276 N1245 1.435 . S
C1276 C1277 1.358 . S
C1276 C1281 1.371 . S
C1277 H1249 0.930 . S
C1277 C1276 1.358 . S
C1277 C1278 1.405 . S
C1278 H1250 0.932 . S
C1278 C1277 1.405 . S
C1278 C1279 1.383 . S
C1279 C1278 1.383 . S
C1279 C1280 1.393 . S
C1280 H1252 0.931 . S
C1280 C1279 1.393 . S
C1280 C1281 1.382 . S
C1281 H1251 0.929 . S
C1281 C1276 1.371 . S
C1281 C1280 1.382 . S
C1282 N1245 1.423 . S
C1282 C1283 1.362 . S
C1282 C1287 1.388 . S
C1283 H1253 0.929 . S
C1283 C1282 1.362 . S
C1283 C1284 1.376 . S
C1284 H1255 0.931 . S
C1284 C1283 1.376 . S
C1284 C1285 1.396 . S
C1285 C1284 1.396 . S
C1285 C1286 1.348 . S
C1285 C1303 1.472 . S
C1286 H1256 0.929 . S
C1286 C1285 1.348 . S
C1286 C1287 1.443 . S
C1287 H1254 0.932 . S
C1287 C1282 1.388 . S
C1287 C1286 1.443 . S
C1288 N1268 1.433 . S
C1288 C1289 1.363 . S
C1288 C1293 1.370 . S
C1289 H1257 0.929 . S
C1289 C1288 1.363 . S
C1289 C1290 1.385 . S
C1290 H1258 0.930 . S
C1290 C1289 1.385 . S
C1290 C1291 1.357 . S
C1291 C1290 1.357 . S
C1291 C1292 1.406 . S
C1292 H1259 0.929 . S
C1292 C1291 1.406 . S
C1292 C1293 1.391 . S
C1293 H1260 0.931 . S
C1293 C1288 1.370 . S
C1293 C1292 1.391 . S
C1294 N1268 1.435 . S
C1294 C1295 1.358 . S
C1294 C1299 1.371 . S
C1295 H1261 0.930 . S
C1295 C1294 1.358 . S
C1295 C1296 1.405 . S
C1296 H1262 0.932 . S
C1296 C1295 1.405 . S
C1296 C1297 1.383 . S
C1297 C1296 1.383 . S
C1297 C1298 1.393 . S
C1298 H1263 0.931 . S
C1298 C1297 1.393 . S
C1298 C1299 1.382 . S
C1299 H1264 0.929 . S
C1299 C1294 1.371 . S
C1299 C1298 1.382 . S
C1300 N1268 1.423 . S
C1300 C1301 1.362 . S
C1300 C1305 1.388 . S
C1301 H1265 0.929 . S
C1301 C1300 1.362 . S
C1301 C1302 1.376 . S
C1302 H1266 0.931 . S
C1302 C1301 1.376 . S
C1302 C1303 1.396 . S
C1303 C1285 1.472 . S
C1303 C1302 1.396 . S
C1303 C1304 1.348 . S
C1304 H1267 0.929 . S
C1304 C1303 1.348 . S
C1304 C1305 1.443 . S
C1305 H1269 0.932 . S
C1305 C1300 1.388 . S
C1305 C1304 1.443 . S
H1306 C1333 0.929 . S
N1307 C1332 1.433 . S
N1307 C1338 1.435 . S
N1307 C1344 1.423 . S
H1308 C1334 0.930 . S
H1309 C1337 0.931 . S
H1310 C1336 0.929 . S
H1311 C1339 0.930 . S
H1312 C1340 0.932 . S
H1313 C1343 0.929 . S
H1314 C1342 0.931 . S
H1315 C1345 0.929 . S
H1316 C1349 0.932 . S
H1317 C1346 0.931 . S
H1318 C1348 0.929 . S
H1319 C1351 0.929 . S
H1320 C1352 0.930 . S
H1321 C1354 0.929 . S
H1322 C1355 0.931 . S
H1323 C1357 0.930 . S
H1324 C1358 0.932 . S
H1325 C1360 0.931 . S
H1326 C1361 0.929 . S
H1327 C1363 0.929 . S
H1328 C1364 0.931 . S
H1329 C1366 0.929 . S
N1330 C1350 1.433 . S
N1330 C1356 1.435 . S
N1330 C1362 1.423 . S
H1331 C1367 0.932 . S
C1332 N1307 1.433 . S
C1332 C1333 1.363 . S
C1332 C1337 1.370 . S
C1333 H1306 0.929 . S
C1333 C1332 1.363 . S
C1333 C1334 1.385 . S
C1334 H1308 0.930 . S
C1334 C1333 1.385 . S
C1334 C1335 1.357 . S
C1335 C1334 1.357 . S
C1335 C1336 1.406 . S
C1336 H1310 0.929 . S
C1336 C1335 1.406 . S
C1336 C1337 1.391 . S
C1337 H1309 0.931 . S
C1337 C1332 1.370 . S
C1337 C1336 1.391 . S
C1338 N1307 1.435 . S
C1338 C1339 1.358 . S
C1338 C1343 1.371 . S
C1339 H1311 0.930 . S
C1339 C1338 1.358 . S
C1339 C1340 1.405 . S
C1340 H1312 0.932 . S
C1340 C1339 1.405 . S
C1340 C1341 1.383 . S
C1341 C1340 1.383 . S
C1341 C1342 1.393 . S
C1342 H1314 0.931 . S
C1342 C1341 1.393 . S
C1342 C1343 1.382 . S
C1343 H1313 0.929 . S
C1343 C1338 1.371 . S
C1343 C1342 1.382 . S
C1344 N1307 1.423 . S
C1344 C1345 1.362 . S
C1344 C1349 1.388 . S
C1345 H1315 0.929 . S
C1345 C1344 1.362 . S
C1345 C1346 1.376 . S
C1346 H1317 0.931 . S
C1346 C1345 1.376 . S
C1346 C1347 1.396 . S
C1347 C1346 1.396 . S
C1347 C1348 1.348 . S
C1347 C1365 1.472 . S
C1348 H1318 0.929 . S
C1348 C1347 1.348 . S
C1348 C1349 1.443 . S
C1349 H1316 0.932 . S
C1349 C1344 1.388 . S
C1349 C1348 1.443 . S
C1350 N1330 1.433 . S
C1350 C1351 1.363 . S
C1350 C1355 1.370 . S
C1351 H1319 0.929 . S
C1351 C1350 1.363 . S
C1351 C1352 1.385 . S
C1352 H1320 0.930 . S
C1352 C1351 1.385 . S
C1352 C1353 1.357 . S
C1353 C1352 1.357 . S
C1353 C1354 1.406 . S
C1354 H1321 0.929 . S
C1354 C1353 1.406 . S
C1354 C1355 1.391 . S
C1355 H1322 0.931 . S
C1355 C1350 1.370 . S
C1355 C1354 1.391 . S
C1356 N1330 1.435 . S
C1356 C1357 1.358 . S
C1356 C1361 1.371 . S
C1357 H1323 0.930 . S
C1357 C1356 1.358 . S
C1357 C1358 1.405 . S
C1358 H1324 0.932 . S
C1358 C1357 1.405 . S
C1358 C1359 1.383 . S
C1359 C1358 1.383 . S
C1359 C1360 1.393 . S
C1360 H1325 0.931 . S
C1360 C1359 1.393 . S
C1360 C1361 1.382 . S
C1361 H1326 0.929 . S
C1361 C1356 1.371 . S
C1361 C1360 1.382 . S
C1362 N1330 1.423 . S
C1362 C1363 1.362 . S
C1362 C1367 1.388 . S
C1363 H1327 0.929 . S
C1363 C1362 1.362 . S
C1363 C1364 1.376 . S
C1364 H1328 0.931 . S
C1364 C1363 1.376 . S
C1364 C1365 1.396 . S
C1365 C1347 1.472 . S
C1365 C1364 1.396 . S
C1365 C1366 1.348 . S
C1366 H1329 0.929 . S
C1366 C1365 1.348 . S
C1366 C1367 1.443 . S
C1367 H1331 0.932 . S
C1367 C1362 1.388 . S
C1367 C1366 1.443 . S
H1368 C1376 0.929 . S
H1369 C1378 0.930 . S
H1370 C1380 0.930 . S
H1371 C1383 0.929 . S
H1372 C1386 0.930 . S
H1373 C1388 0.960 . S
H1374 C1388 0.960 . S
H1375 C1388 0.960 . S
C1376 H1368 0.929 . S
C1376 C1377 1.372 1_455 S
C1376 C1378 1.384 . S
C1377 C1376 1.372 1_655 S
C1377 C1383 1.398 . S
C1378 H1369 0.930 . S
C1378 C1376 1.384 . S
C1378 C1379 1.335 1_455 S
C1379 C1378 1.335 1_655 S
C1379 C1380 1.422 . S
C1379 C1384 1.486 . S
C1380 H1370 0.930 . S
C1380 C1379 1.422 . S
C1380 C1383 1.386 . S
H1381 C1397 0.930 . S
H1382 C1398 0.931 . S
C1383 H1371 0.929 . S
C1383 C1377 1.398 . S
C1383 C1380 1.386 . S
C1384 C1379 1.486 . S
C1384 C1386 1.389 1_655 S
C1384 C1387 1.428 . S
H1385 C1391 0.930 . S
C1386 H1372 0.930 . S
C1386 C1384 1.389 1_455 S
C1386 C1389 1.403 . S
C1387 C1384 1.428 . S
C1387 C1388 1.524 . S
C1387 C1391 1.400 . S
C1388 H1373 0.960 . S
C1388 H1374 0.960 . S
C1388 H1375 0.960 . S
C1388 C1387 1.524 . S
C1389 C1386 1.403 . S
C1389 C1390 1.387 1_455 S
C1389 C1393 1.495 . S
C1390 C1389 1.387 1_655 S
C1390 C1391 1.386 . S
C1390 C1392 1.448 . S
C1391 H1385 0.930 . S
C1391 C1387 1.400 . S
C1391 C1390 1.386 . S
C1392 C1390 1.448 . S
C1392 C1394 1.334 1_655 S
C1392 C1398 1.469 . S
C1393 C1389 1.495 . S
C1393 H1399 0.959 . S
C1393 H1400 0.961 . S
C1393 H1401 0.960 . S
C1394 C1392 1.334 1_455 S
C1394 C1395 1.394 . S
C1394 H1402 0.930 . S
C1395 C1394 1.394 . S
C1395 C1396 1.383 1_455 S
C1395 H1403 0.929 . S
C1396 C1395 1.383 1_655 S
C1396 C1397 1.377 . S
C1397 H1381 0.930 . S
C1397 C1396 1.377 . S
C1397 C1398 1.379 . S
C1398 H1382 0.931 . S
C1398 C1392 1.469 . S
C1398 C1397 1.379 . S
H1399 C1393 0.959 . S
H1400 C1393 0.961 . S
H1401 C1393 0.960 . S
H1402 C1394 0.930 . S
H1403 C1395 0.929 . S
H1404 C1412 0.929 . S
H1405 C1414 0.930 . S
H1406 C1416 0.930 . S
H1407 C1419 0.929 . S
H1408 C1422 0.930 . S
H1409 C1424 0.960 . S
H1410 C1424 0.960 . S
H1411 C1424 0.960 . S
C1412 H1404 0.929 . S
C1412 C1413 1.377 . S
C1412 C1414 1.384 . S
C1413 C1412 1.377 . S
C1413 C1419 1.390 . S
C1414 H1405 0.930 . S
C1414 C1412 1.384 . S
C1414 C1415 1.372 . S
C1415 C1414 1.372 . S
C1415 C1416 1.400 . S
C1415 C1420 1.490 . S
C1416 H1406 0.930 . S
C1416 C1415 1.400 . S
C1416 C1419 1.386 . S
H1417 C1433 0.930 . S
H1418 C1434 0.931 . S
C1419 H1407 0.929 . S
C1419 C1413 1.390 . S
C1419 C1416 1.386 . S
C1420 C1415 1.490 . S
C1420 C1422 1.395 . S
C1420 C1423 1.403 . S
H1421 C1427 0.930 . S
C1422 H1408 0.930 . S
C1422 C1420 1.395 . S
C1422 C1425 1.403 . S
C1423 C1420 1.403 . S
C1423 C1424 1.524 . S
C1423 C1427 1.400 . S
C1424 H1409 0.960 . S
C1424 H1410 0.960 . S
C1424 H1411 0.960 . S
C1424 C1423 1.524 . S
C1425 C1422 1.403 . S
C1425 C1426 1.392 . S
C1425 C1429 1.495 . S
C1426 C1425 1.392 . S
C1426 C1427 1.385 . S
C1426 C1428 1.478 . S
C1427 H1421 0.930 . S
C1427 C1423 1.400 . S
C1427 C1426 1.385 . S
C1428 C1426 1.478 . S
C1428 C1430 1.381 . S
C1428 C1434 1.383 . S
C1429 C1425 1.495 . S
C1429 H1435 0.959 . S
C1429 H1436 0.961 . S
C1429 H1437 0.960 . S
C1430 C1428 1.381 . S
C1430 C1431 1.394 . S
C1430 H1438 0.930 . S
C1431 C1430 1.394 . S
C1431 C1432 1.383 . S
C1431 H1439 0.929 . S
C1432 C1431 1.383 . S
C1432 C1433 1.377 . S
C1433 H1417 0.930 . S
C1433 C1432 1.377 . S
C1433 C1434 1.379 . S
C1434 H1418 0.931 . S
C1434 C1428 1.383 . S
C1434 C1433 1.379 . S
H1435 C1429 0.959 . S
H1436 C1429 0.961 . S
H1437 C1429 0.960 . S
H1438 C1430 0.930 . S
H1439 C1431 0.929 . S
H1440 C1448 0.929 . S
H1441 C1450 0.930 . S
H1442 C1452 0.930 . S
H1443 C1455 0.929 . S
H1444 C1458 0.930 . S
H1445 C1460 0.960 . S
H1446 C1460 0.960 . S
H1447 C1460 0.960 1_565 S
C1448 H1440 0.929 . S
C1448 C1449 1.377 . S
C1448 C1450 1.384 . S
C1449 C1448 1.377 . S
C1449 C1455 1.390 1_545 S
C1450 H1441 0.930 . S
C1450 C1448 1.384 . S
C1450 C1451 1.372 . S
C1451 C1450 1.372 . S
C1451 C1452 1.400 1_545 S
C1451 C1456 1.490 . S
C1452 H1442 0.930 . S
C1452 C1451 1.400 1_565 S
C1452 C1455 1.386 . S
H1453 C1469 0.930 . S
H1454 C1470 0.931 . S
C1455 H1443 0.929 . S
C1455 C1449 1.390 1_565 S
C1455 C1452 1.386 . S
C1456 C1451 1.490 . S
C1456 C1458 1.395 . S
C1456 C1459 1.403 . S
H1457 C1463 0.930 . S
C1458 H1444 0.930 . S
C1458 C1456 1.395 . S
C1458 C1461 1.403 . S
C1459 C1456 1.403 . S
C1459 C1460 1.524 . S
C1459 C1463 1.400 . S
C1460 H1445 0.960 . S
C1460 H1446 0.960 . S
C1460 H1447 0.960 1_545 S
C1460 C1459 1.524 . S
C1461 C1458 1.403 . S
C1461 C1462 1.392 . S
C1461 C1465 1.495 . S
C1462 C1461 1.392 . S
C1462 C1463 1.385 . S
C1462 C1464 1.478 . S
C1463 H1457 0.930 . S
C1463 C1459 1.400 . S
C1463 C1462 1.385 . S
C1464 C1462 1.478 . S
C1464 C1466 1.381 . S
C1464 C1470 1.383 1_545 S
C1465 C1461 1.495 . S
C1465 H1471 0.959 . S
C1465 H1472 0.961 1_545 S
C1465 H1473 0.960 . S
C1466 C1464 1.381 . S
C1466 C1467 1.394 . S
C1466 H1474 0.930 . S
C1467 C1466 1.394 . S
C1467 C1468 1.383 . S
C1467 H1475 0.929 . S
C1468 C1467 1.383 . S
C1468 C1469 1.377 1_545 S
C1469 H1453 0.930 . S
C1469 C1468 1.377 1_565 S
C1469 C1470 1.379 . S
C1470 H1454 0.931 . S
C1470 C1464 1.383 1_565 S
C1470 C1469 1.379 . S
H1471 C1465 0.959 . S
H1472 C1465 0.961 1_565 S
H1473 C1465 0.960 . S
H1474 C1466 0.930 . S
H1475 C1467 0.929 . S
H1476 C1484 0.929 . S
H1477 C1486 0.930 . S
H1478 C1488 0.930 . S
H1479 C1491 0.929 . S
H1480 C1494 0.930 . S
H1481 C1496 0.960 . S
H1482 C1496 0.960 . S
H1483 C1496 0.960 . S
C1484 H1476 0.929 . S
C1484 C1485 1.377 . S
C1484 C1486 1.384 . S
C1485 C1484 1.377 . S
C1485 C1491 1.390 1_545 S
C1486 H1477 0.930 . S
C1486 C1484 1.384 . S
C1486 C1487 1.372 . S
C1487 C1486 1.372 . S
C1487 C1488 1.400 1_545 S
C1487 C1492 1.525 . S
C1488 H1478 0.930 . S
C1488 C1487 1.400 1_565 S
C1488 C1491 1.386 . S
H1489 C1505 0.930 . S
H1490 C1506 0.931 . S
C1491 H1479 0.929 . S
C1491 C1485 1.390 1_565 S
C1491 C1488 1.386 . S
C1492 C1487 1.525 . S
C1492 C1494 1.389 . S
C1492 C1495 1.381 1_545 S
H1493 C1499 0.930 . S
C1494 H1480 0.930 . S
C1494 C1492 1.389 . S
C1494 C1497 1.403 . S
C1495 C1492 1.381 1_565 S
C1495 C1496 1.524 . S
C1495 C1499 1.400 . S
C1496 H1481 0.960 . S
C1496 H1482 0.960 . S
C1496 H1483 0.960 . S
C1496 C1495 1.524 . S
C1497 C1494 1.403 . S
C1497 C1498 1.393 . S
C1497 C1501 1.495 . S
C1498 C1497 1.393 . S
C1498 C1499 1.385 1_545 S
C1498 C1500 1.441 1_545 S
C1499 H1493 0.930 . S
C1499 C1495 1.400 . S
C1499 C1498 1.385 1_565 S
C1500 C1498 1.441 1_565 S
C1500 C1502 1.336 1_565 S
C1500 C1506 1.468 . S
C1501 C1497 1.495 . S
C1501 H1507 0.959 . S
C1501 H1508 0.961 . S
C1501 H1509 0.960 . S
C1502 C1500 1.336 1_545 S
C1502 C1503 1.394 . S
C1502 H1510 0.930 . S
C1503 C1502 1.394 . S
C1503 C1504 1.383 1_545 S
C1503 H1511 0.929 . S
C1504 C1503 1.383 1_565 S
C1504 C1505 1.377 . S
C1505 H1489 0.930 . S
C1505 C1504 1.377 . S
C1505 C1506 1.379 . S
C1506 H1490 0.931 . S
C1506 C1500 1.468 . S
C1506 C1505 1.379 . S
H1507 C1501 0.959 . S
H1508 C1501 0.961 . S
H1509 C1501 0.960 . S
H1510 C1502 0.930 . S
H1511 C1503 0.929 . S
H1512 C1520 0.929 . S
H1513 C1522 0.930 . S
H1514 C1524 0.930 . S
H1515 C1527 0.929 . S
H1516 C1530 0.930 . S
H1517 C1532 0.960 . S
H1518 C1532 0.960 1_455 S
H1519 C1532 0.960 . S
C1520 H1512 0.929 . S
C1520 C1521 1.377 . S
C1520 C1522 1.384 . S
C1521 C1520 1.377 . S
C1521 C1527 1.390 1_455 S
C1522 H1513 0.930 . S
C1522 C1520 1.384 . S
C1522 C1523 1.372 . S
C1523 C1522 1.372 . S
C1523 C1524 1.400 1_455 S
C1523 C1528 1.490 . S
C1524 H1514 0.930 . S
C1524 C1523 1.400 1_655 S
C1524 C1527 1.386 . S
H1525 C1541 0.930 . S
H1526 C1542 0.931 . S
C1527 H1515 0.929 . S
C1527 C1521 1.390 1_655 S
C1527 C1524 1.386 . S
C1528 C1523 1.490 . S
C1528 C1530 1.395 . S
C1528 C1531 1.403 . S
H1529 C1535 0.939 1_655 S
C1530 H1516 0.930 . S
C1530 C1528 1.395 . S
C1530 C1533 1.403 . S
C1531 C1528 1.403 . S
C1531 C1532 1.524 1_455 S
C1531 C1535 1.400 . S
C1532 H1517 0.960 . S
C1532 H1518 0.960 1_655 S
C1532 H1519 0.960 . S
C1532 C1531 1.524 1_655 S
C1533 C1530 1.403 . S
C1533 C1534 1.392 . S
C1533 C1537 1.495 . S
C1534 C1533 1.392 . S
C1534 C1535 1.385 . S
C1534 C1536 1.478 . S
C1535 H1529 0.939 1_455 S
C1535 C1531 1.400 . S
C1535 C1534 1.385 . S
C1536 C1534 1.478 . S
C1536 C1538 1.381 . S
C1536 C1542 1.383 1_455 S
C1537 C1533 1.495 . S
C1537 H1543 0.959 . S
C1537 H1544 0.961 . S
C1537 H1545 0.960 . S
C1538 C1536 1.381 . S
C1538 C1539 1.394 . S
C1538 H1546 0.930 . S
C1539 C1538 1.394 . S
C1539 C1540 1.383 . S
C1539 H1547 0.929 . S
C1540 C1539 1.383 . S
C1540 C1541 1.377 1_455 S
C1541 H1525 0.930 . S
C1541 C1540 1.377 1_655 S
C1541 C1542 1.379 . S
C1542 H1526 0.931 . S
C1542 C1536 1.383 1_655 S
C1542 C1541 1.379 . S
H1543 C1537 0.959 . S
H1544 C1537 0.961 . S
H1545 C1537 0.960 . S
H1546 C1538 0.930 . S
H1547 C1539 0.929 . S
H1548 C1556 0.929 . S
H1549 C1558 0.930 . S
H1550 C1560 0.930 . S
H1551 C1563 0.929 . S
H1552 C1566 0.930 . S
H1553 C1568 0.960 . S
H1554 C1568 0.960 . S
H1555 C1568 0.960 . S
C1556 H1548 0.929 . S
C1556 C1557 1.377 . S
C1556 C1558 1.384 . S
C1557 C1556 1.377 . S
C1557 C1563 1.390 . S
C1558 H1549 0.930 . S
C1558 C1556 1.384 . S
C1558 C1559 1.372 . S
C1559 C1558 1.372 . S
C1559 C1560 1.400 . S
C1559 C1564 1.490 . S
C1560 H1550 0.930 . S
C1560 C1559 1.400 . S
C1560 C1563 1.386 . S
H1561 C1577 0.930 . S
H1562 C1578 0.931 . S
C1563 H1551 0.929 . S
C1563 C1557 1.390 . S
C1563 C1560 1.386 . S
C1564 C1559 1.490 . S
C1564 C1566 1.395 . S
C1564 C1567 1.403 . S
H1565 C1571 0.930 . S
C1566 H1552 0.930 . S
C1566 C1564 1.395 . S
C1566 C1569 1.403 . S
C1567 C1564 1.403 . S
C1567 C1568 1.524 . S
C1567 C1571 1.400 . S
C1568 H1553 0.960 . S
C1568 H1554 0.960 . S
C1568 H1555 0.960 . S
C1568 C1567 1.524 . S
C1569 C1566 1.403 . S
C1569 C1570 1.392 . S
C1569 C1573 1.495 . S
C1570 C1569 1.392 . S
C1570 C1571 1.385 . S
C1570 C1572 1.478 . S
C1571 H1565 0.930 . S
C1571 C1567 1.400 . S
C1571 C1570 1.385 . S
C1572 C1570 1.478 . S
C1572 C1574 1.381 . S
C1572 C1578 1.383 . S
C1573 C1569 1.495 . S
C1573 H1579 0.959 . S
C1573 H1580 0.961 . S
C1573 H1581 0.960 . S
C1574 C1572 1.381 . S
C1574 C1575 1.394 . S
C1574 H1582 0.930 . S
C1575 C1574 1.394 . S
C1575 C1576 1.383 . S
C1575 H1583 0.929 . S
C1576 C1575 1.383 . S
C1576 C1577 1.377 . S
C1577 H1561 0.930 . S
C1577 C1576 1.377 . S
C1577 C1578 1.379 . S
C1578 H1562 0.931 . S
C1578 C1572 1.383 . S
C1578 C1577 1.379 . S
H1579 C1573 0.959 . S
H1580 C1573 0.961 . S
H1581 C1573 0.960 . S
H1582 C1574 0.930 . S
H1583 C1575 0.929 . S
H1584 C1592 0.929 . S
H1585 C1594 0.930 . S
H1586 C1596 0.930 . S
H1587 C1599 0.929 . S
H1588 C1602 0.930 . S
H1589 C1604 0.960 . S
H1590 C1604 0.960 . S
H1591 C1604 0.960 . S
C1592 H1584 0.929 . S
C1592 C1593 1.377 1_655 S
C1592 C1594 1.384 . S
C1593 C1592 1.377 1_455 S
C1593 C1599 1.390 . S
C1594 H1585 0.930 . S
C1594 C1592 1.384 . S
C1594 C1595 1.372 1_655 S
C1595 C1594 1.372 1_455 S
C1595 C1596 1.400 . S
C1595 C1600 1.490 . S
C1596 H1586 0.930 . S
C1596 C1595 1.400 . S
C1596 C1599 1.386 . S
H1597 C1613 0.930 . S
H1598 C1614 0.931 . S
C1599 H1587 0.929 . S
C1599 C1593 1.390 . S
C1599 C1596 1.386 . S
C1600 C1595 1.490 . S
C1600 C1602 1.395 1_455 S
C1600 C1603 1.403 . S
H1601 C1607 0.930 . S
C1602 H1588 0.930 . S
C1602 C1600 1.395 1_655 S
C1602 C1605 1.403 . S
C1603 C1600 1.403 . S
C1603 C1604 1.524 . S
C1603 C1607 1.400 . S
C1604 H1589 0.960 . S
C1604 H1590 0.960 . S
C1604 H1591 0.960 . S
C1604 C1603 1.524 . S
C1605 C1602 1.403 . S
C1605 C1606 1.354 1_655 S
C1605 C1609 1.495 . S
C1606 C1605 1.354 1_455 S
C1606 C1607 1.410 . S
C1606 C1608 1.468 . S
C1607 H1601 0.930 . S
C1607 C1603 1.400 . S
C1607 C1606 1.410 . S
C1608 C1606 1.468 . S
C1608 C1610 1.400 1_455 S
C1608 C1614 1.397 . S
C1609 C1605 1.495 . S
C1609 H1615 0.959 . S
C1609 H1616 0.961 . S
C1609 H1617 0.960 . S
C1610 C1608 1.400 1_655 S
C1610 C1611 1.394 . S
C1610 H1618 0.930 . S
C1611 C1610 1.394 . S
C1611 C1612 1.383 1_655 S
C1611 H1619 0.929 . S
C1612 C1611 1.383 1_455 S
C1612 C1613 1.377 . S
C1613 H1597 0.930 . S
C1613 C1612 1.377 . S
C1613 C1614 1.379 . S
C1614 H1598 0.931 . S
C1614 C1608 1.397 . S
C1614 C1613 1.379 . S
H1615 C1609 0.959 . S
H1616 C1609 0.961 . S
H1617 C1609 0.960 . S
H1618 C1610 0.930 . S
H1619 C1611 0.929 . S
H1620 C1628 0.929 . S
H1621 C1630 0.930 . S
H1622 C1632 0.930 . S
H1623 C1635 0.929 . S
H1624 C1638 0.930 . S
H1625 C1640 0.960 . S
H1626 C1640 0.960 . S
H1627 C1640 0.960 . S
C1628 H1620 0.929 . S
C1628 C1629 1.377 . S
C1628 C1630 1.384 . S
C1629 C1628 1.377 . S
C1629 C1635 1.390 . S
C1630 H1621 0.930 . S
C1630 C1628 1.384 . S
C1630 C1631 1.372 . S
C1631 C1630 1.372 . S
C1631 C1632 1.400 . S
C1631 C1636 1.490 . S
C1632 H1622 0.930 . S
C1632 C1631 1.400 . S
C1632 C1635 1.386 . S
H1633 C1649 0.930 . S
H1634 C1650 0.931 . S
C1635 H1623 0.929 . S
C1635 C1629 1.390 . S
C1635 C1632 1.386 . S
C1636 C1631 1.490 . S
C1636 C1638 1.395 . S
C1636 C1639 1.403 . S
H1637 C1643 0.930 . S
C1638 H1624 0.930 . S
C1638 C1636 1.395 . S
C1638 C1641 1.403 . S
C1639 C1636 1.403 . S
C1639 C1640 1.524 . S
C1639 C1643 1.400 . S
C1640 H1625 0.960 . S
C1640 H1626 0.960 . S
C1640 H1627 0.960 . S
C1640 C1639 1.524 . S
C1641 C1638 1.403 . S
C1641 C1642 1.392 . S
C1641 C1645 1.495 . S
C1642 C1641 1.392 . S
C1642 C1643 1.385 . S
C1642 C1644 1.478 . S
C1643 H1637 0.930 . S
C1643 C1639 1.400 . S
C1643 C1642 1.385 . S
C1644 C1642 1.478 . S
C1644 C1646 1.381 . S
C1644 C1650 1.383 . S
C1645 C1641 1.495 . S
C1645 H1651 0.959 . S
C1645 H1652 0.961 . S
C1645 H1653 0.960 . S
C1646 C1644 1.381 . S
C1646 C1647 1.394 . S
C1646 H1654 0.930 . S
C1647 C1646 1.394 . S
C1647 C1648 1.383 . S
C1647 H1655 0.929 . S
C1648 C1647 1.383 . S
C1648 C1649 1.377 . S
C1649 H1633 0.930 . S
C1649 C1648 1.377 . S
C1649 C1650 1.379 . S
C1650 H1634 0.931 . S
C1650 C1644 1.383 . S
C1650 C1649 1.379 . S
H1651 C1645 0.959 . S
H1652 C1645 0.961 . S
H1653 C1645 0.960 . S
H1654 C1646 0.930 . S
H1655 C1647 0.929 . S
H1656 C1664 0.929 . S
H1657 C1666 0.930 . S
H1658 C1668 0.930 . S
H1659 C1671 0.929 . S
H1660 C1674 0.930 . S
H1661 C1676 0.960 . S
H1662 C1676 0.960 1_565 S
H1663 C1676 0.960 . S
C1664 H1656 0.929 . S
C1664 C1665 1.377 . S
C1664 C1666 1.384 . S
C1665 C1664 1.377 . S
C1665 C1671 1.390 1_565 S
C1666 H1657 0.930 . S
C1666 C1664 1.384 . S
C1666 C1667 1.372 . S
C1667 C1666 1.372 . S
C1667 C1668 1.400 1_565 S
C1667 C1672 1.490 . S
C1668 H1658 0.930 . S
C1668 C1667 1.400 1_545 S
C1668 C1671 1.386 . S
H1669 C1685 0.930 . S
H1670 C1686 0.931 . S
C1671 H1659 0.929 . S
C1671 C1665 1.390 1_545 S
C1671 C1668 1.386 . S
C1672 C1667 1.490 . S
C1672 C1674 1.395 . S
C1672 C1675 1.413 . S
H1673 C1679 0.929 1_545 S
C1674 H1660 0.930 . S
C1674 C1672 1.395 . S
C1674 C1677 1.403 . S
C1675 C1672 1.413 . S
C1675 C1676 1.560 1_565 S
C1675 C1679 1.363 . S
C1676 H1661 0.960 . S
C1676 H1662 0.960 1_545 S
C1676 H1663 0.960 . S
C1676 C1675 1.560 1_545 S
C1677 C1674 1.403 . S
C1677 C1678 1.392 . S
C1677 C1681 1.495 . S
C1678 C1677 1.392 . S
C1678 C1679 1.385 . S
C1678 C1680 1.478 . S
C1679 H1673 0.929 1_565 S
C1679 C1675 1.363 . S
C1679 C1678 1.385 . S
C1680 C1678 1.478 . S
C1680 C1682 1.381 . S
C1680 C1686 1.383 1_565 S
C1681 C1677 1.495 . S
C1681 H1687 0.959 . S
C1681 H1688 0.961 . S
C1681 H1689 0.960 . S
C1682 C1680 1.381 . S
C1682 C1683 1.394 . S
C1682 H1690 0.930 . S
C1683 C1682 1.394 . S
C1683 C1684 1.383 . S
C1683 H1691 0.929 . S
C1684 C1683 1.383 . S
C1684 C1685 1.377 1_565 S
C1685 H1669 0.930 . S
C1685 C1684 1.377 1_545 S
C1685 C1686 1.379 . S
C1686 H1670 0.931 . S
C1686 C1680 1.383 1_545 S
C1686 C1685 1.379 . S
H1687 C1681 0.959 . S
H1688 C1681 0.961 . S
H1689 C1681 0.960 . S
H1690 C1682 0.930 . S
H1691 C1683 0.929 . S
H1692 C1700 0.929 . S
H1693 C1702 0.930 . S
H1694 C1704 0.930 . S
H1695 C1707 0.929 . S
H1696 C1710 0.930 . S
H1697 C1712 0.960 . S
H1698 C1712 0.960 . S
H1699 C1712 0.960 . S
C1700 H1692 0.929 . S
C1700 C1701 1.377 1_565 S
C1700 C1702 1.384 . S
C1701 C1700 1.377 1_545 S
C1701 C1707 1.390 . S
C1702 H1693 0.930 . S
C1702 C1700 1.384 . S
C1702 C1703 1.372 1_565 S
C1703 C1702 1.372 1_545 S
C1703 C1704 1.400 . S
C1703 C1708 1.490 . S
C1704 H1694 0.930 . S
C1704 C1703 1.400 . S
C1704 C1707 1.386 . S
H1705 C1721 0.930 . S
H1706 C1722 0.931 . S
C1707 H1695 0.929 . S
C1707 C1701 1.390 . S
C1707 C1704 1.386 . S
C1708 C1703 1.490 . S
C1708 C1710 1.395 1_545 S
C1708 C1711 1.403 . S
H1709 C1715 0.930 . S
C1710 H1696 0.930 . S
C1710 C1708 1.395 1_565 S
C1710 C1713 1.403 . S
C1711 C1708 1.403 . S
C1711 C1712 1.524 . S
C1711 C1715 1.400 . S
C1712 H1697 0.960 . S
C1712 H1698 0.960 . S
C1712 H1699 0.960 . S
C1712 C1711 1.524 . S
C1713 C1710 1.403 . S
C1713 C1714 1.317 1_565 S
C1713 C1717 1.495 . S
C1714 C1713 1.317 1_545 S
C1714 C1715 1.436 . S
C1714 C1716 1.508 . S
C1715 H1709 0.930 . S
C1715 C1711 1.400 . S
C1715 C1714 1.436 . S
C1716 C1714 1.508 . S
C1716 C1718 1.381 1_545 S
C1716 C1722 1.383 . S
C1717 C1713 1.495 . S
C1717 H1723 0.959 . S
C1717 H1724 0.961 . S
C1717 H1725 0.960 . S
C1718 C1716 1.381 1_565 S
C1718 C1719 1.394 . S
C1718 H1726 0.930 . S
C1719 C1718 1.394 . S
C1719 C1720 1.383 1_565 S
C1719 H1727 0.929 . S
C1720 C1719 1.383 1_545 S
C1720 C1721 1.377 . S
C1721 H1705 0.930 . S
C1721 C1720 1.377 . S
C1721 C1722 1.379 . S
C1722 H1706 0.931 . S
C1722 C1716 1.383 . S
C1722 C1721 1.379 . S
H1723 C1717 0.959 . S
H1724 C1717 0.961 . S
H1725 C1717 0.960 . S
H1726 C1718 0.930 . S
H1727 C1719 0.929 . S
H1728 C1736 0.929 . S
H1729 C1738 0.930 . S
H1730 C1740 0.930 . S
H1731 C1743 0.929 . S
H1732 C1746 0.930 . S
H1733 C1748 0.960 . S
H1734 C1748 0.960 . S
H1735 C1748 0.960 . S
C1736 H1728 0.929 . S
C1736 C1737 1.443 . S
C1736 C1738 1.384 . S
C1737 C1736 1.443 . S
C1737 C1743 1.291 1_655 S
C1738 H1729 0.930 . S
C1738 C1736 1.384 . S
C1738 C1739 1.372 . S
C1739 C1738 1.372 . S
C1739 C1740 1.400 1_655 S
C1739 C1744 1.490 . S
C1740 H1730 0.930 . S
C1740 C1739 1.400 1_455 S
C1740 C1743 1.386 . S
H1741 C1757 0.930 . S
H1742 C1758 0.931 . S
C1743 H1731 0.929 . S
C1743 C1737 1.291 1_455 S
C1743 C1740 1.386 . S
C1744 C1739 1.490 . S
C1744 C1746 1.395 . S
C1744 C1747 1.403 1_655 S
H1745 C1751 0.930 . S
C1746 H1732 0.930 . S
C1746 C1744 1.395 . S
C1746 C1749 1.403 . S
C1747 C1744 1.403 1_455 S
C1747 C1748 1.524 . S
C1747 C1751 1.400 . S
C1748 H1733 0.960 . S
C1748 H1734 0.960 . S
C1748 H1735 0.960 . S
C1748 C1747 1.524 . S
C1749 C1746 1.403 . S
C1749 C1750 1.392 . S
C1749 C1753 1.495 . S
C1750 C1749 1.392 . S
C1750 C1751 1.385 1_655 S
C1750 C1752 1.478 . S
C1751 H1745 0.930 . S
C1751 C1747 1.400 . S
C1751 C1750 1.385 1_455 S
C1752 C1750 1.478 . S
C1752 C1754 1.381 . S
C1752 C1758 1.383 1_655 S
C1753 C1749 1.495 . S
C1753 H1759 0.959 . S
C1753 H1760 0.961 . S
C1753 H1761 0.960 . S
C1754 C1752 1.381 . S
C1754 C1755 1.394 . S
C1754 H1762 0.930 . S
C1755 C1754 1.394 . S
C1755 C1756 1.383 . S
C1755 H1763 0.929 . S
C1756 C1755 1.383 . S
C1756 C1757 1.377 1_655 S
C1757 H1741 0.930 . S
C1757 C1756 1.377 1_455 S
C1757 C1758 1.379 . S
C1758 H1742 0.931 . S
C1758 C1752 1.383 1_455 S
C1758 C1757 1.379 . S
H1759 C1753 0.959 . S
H1760 C1753 0.961 . S
H1761 C1753 0.960 . S
H1762 C1754 0.930 . S
H1763 C1755 0.929 . S
H1764 C1772 0.929 . S
H1765 C1774 0.930 . S
H1766 C1776 0.930 . S
H1767 C1779 0.929 . S
H1768 C1782 0.930 . S
H1769 C1784 0.960 . S
H1770 C1784 0.960 . S
H1771 C1784 0.960 . S
C1772 H1764 0.929 . S
C1772 C1773 1.377 . S
C1772 C1774 1.384 . S
C1773 C1772 1.377 . S
C1773 C1779 1.390 . S
C1774 H1765 0.930 . S
C1774 C1772 1.384 . S
C1774 C1775 1.372 . S
C1775 C1774 1.372 . S
C1775 C1776 1.400 . S
C1775 C1780 1.490 . S
C1776 H1766 0.930 . S
C1776 C1775 1.400 . S
C1776 C1779 1.386 . S
H1777 C1793 0.930 . S
H1778 C1794 0.931 . S
C1779 H1767 0.929 . S
C1779 C1773 1.390 . S
C1779 C1776 1.386 . S
C1780 C1775 1.490 . S
C1780 C1782 1.395 . S
C1780 C1783 1.403 . S
H1781 C1787 0.930 . S
C1782 H1768 0.930 . S
C1782 C1780 1.395 . S
C1782 C1785 1.403 . S
C1783 C1780 1.403 . S
C1783 C1784 1.524 . S
C1783 C1787 1.400 . S
C1784 H1769 0.960 . S
C1784 H1770 0.960 . S
C1784 H1771 0.960 . S
C1784 C1783 1.524 . S
C1785 C1782 1.403 . S
C1785 C1786 1.392 . S
C1785 C1789 1.495 . S
C1786 C1785 1.392 . S
C1786 C1787 1.385 . S
C1786 C1788 1.478 . S
C1787 H1781 0.930 . S
C1787 C1783 1.400 . S
C1787 C1786 1.385 . S
C1788 C1786 1.478 . S
C1788 C1790 1.381 . S
C1788 C1794 1.383 . S
C1789 C1785 1.495 . S
C1789 H1795 0.959 . S
C1789 H1796 0.961 . S
C1789 H1797 0.960 . S
C1790 C1788 1.381 . S
C1790 C1791 1.394 . S
C1790 H1798 0.930 . S
C1791 C1790 1.394 . S
C1791 C1792 1.383 . S
C1791 H1799 0.929 . S
C1792 C1791 1.383 . S
C1792 C1793 1.377 . S
C1793 H1777 0.930 . S
C1793 C1792 1.377 . S
C1793 C1794 1.379 . S
C1794 H1778 0.931 . S
C1794 C1788 1.383 . S
C1794 C1793 1.379 . S
H1795 C1789 0.959 . S
H1796 C1789 0.961 . S
H1797 C1789 0.960 . S
H1798 C1790 0.930 . S
H1799 C1791 0.929 . S
H1800 C1808 0.929 . S
H1801 C1810 0.930 . S
H1802 C1812 0.930 . S
H1803 C1815 0.929 . S
H1804 C1818 0.930 . S
H1805 C1820 0.960 . S
H1806 C1820 0.960 . S
H1807 C1820 0.960 . S
C1808 H1800 0.929 . S
C1808 C1809 1.377 . S
C1808 C1810 1.384 . S
C1809 C1808 1.377 . S
C1809 C1815 1.390 . S
C1810 H1801 0.930 . S
C1810 C1808 1.384 . S
C1810 C1811 1.372 . S
C1811 C1810 1.372 . S
C1811 C1812 1.400 . S
C1811 C1816 1.490 . S
C1812 H1802 0.930 . S
C1812 C1811 1.400 . S
C1812 C1815 1.386 . S
H1813 C1829 0.930 . S
H1814 C1830 0.931 . S
C1815 H1803 0.929 . S
C1815 C1809 1.390 . S
C1815 C1812 1.386 . S
C1816 C1811 1.490 . S
C1816 C1818 1.395 . S
C1816 C1819 1.403 . S
H1817 C1823 0.930 . S
C1818 H1804 0.930 . S
C1818 C1816 1.395 . S
C1818 C1821 1.403 . S
C1819 C1816 1.403 . S
C1819 C1820 1.524 . S
C1819 C1823 1.400 . S
C1820 H1805 0.960 . S
C1820 H1806 0.960 . S
C1820 H1807 0.960 . S
C1820 C1819 1.524 . S
C1821 C1818 1.403 . S
C1821 C1822 1.392 . S
C1821 C1825 1.495 . S
C1822 C1821 1.392 . S
C1822 C1823 1.385 . S
C1822 C1824 1.478 . S
C1823 H1817 0.930 . S
C1823 C1819 1.400 . S
C1823 C1822 1.385 . S
C1824 C1822 1.478 . S
C1824 C1826 1.381 . S
C1824 C1830 1.383 . S
C1825 C1821 1.495 . S
C1825 H1831 0.959 . S
C1825 H1832 0.961 . S
C1825 H1833 0.960 . S
C1826 C1824 1.381 . S
C1826 C1827 1.394 . S
C1826 H1834 0.930 . S
C1827 C1826 1.394 . S
C1827 C1828 1.383 . S
C1827 H1835 0.929 . S
C1828 C1827 1.383 . S
C1828 C1829 1.377 . S
C1829 H1813 0.930 . S
C1829 C1828 1.377 . S
C1829 C1830 1.379 . S
C1830 H1814 0.931 . S
C1830 C1824 1.383 . S
C1830 C1829 1.379 . S
H1831 C1825 0.959 . S
H1832 C1825 0.961 . S
H1833 C1825 0.960 . S
H1834 C1826 0.930 . S
H1835 C1827 0.929 . S
H1836 C1844 0.929 . S
H1837 C1846 0.930 . S
H1838 C1848 0.930 . S
H1839 C1851 0.929 . S
H1840 C1854 0.930 . S
H1841 C1856 0.960 . S
H1842 C1856 0.960 . S
H1843 C1856 0.960 . S
C1844 H1836 0.929 . S
C1844 C1845 1.377 . S
C1844 C1846 1.384 . S
C1845 C1844 1.377 . S
C1845 C1851 1.390 . S
C1846 H1837 0.930 . S
C1846 C1844 1.384 . S
C1846 C1847 1.372 . S
C1847 C1846 1.372 . S
C1847 C1848 1.400 . S
C1847 C1852 1.490 . S
C1848 H1838 0.930 . S
C1848 C1847 1.400 . S
C1848 C1851 1.386 . S
H1849 C1865 0.930 . S
H1850 C1866 0.931 . S
C1851 H1839 0.929 . S
C1851 C1845 1.390 . S
C1851 C1848 1.386 . S
C1852 C1847 1.490 . S
C1852 C1854 1.395 . S
C1852 C1855 1.403 . S
H1853 C1859 0.930 . S
C1854 H1840 0.930 . S
C1854 C1852 1.395 . S
C1854 C1857 1.403 . S
C1855 C1852 1.403 . S
C1855 C1856 1.524 . S
C1855 C1859 1.400 . S
C1856 H1841 0.960 . S
C1856 H1842 0.960 . S
C1856 H1843 0.960 . S
C1856 C1855 1.524 . S
C1857 C1854 1.403 . S
C1857 C1858 1.392 . S
C1857 C1861 1.495 . S
C1858 C1857 1.392 . S
C1858 C1859 1.385 . S
C1858 C1860 1.478 . S
C1859 H1853 0.930 . S
C1859 C1855 1.400 . S
C1859 C1858 1.385 . S
C1860 C1858 1.478 . S
C1860 C1862 1.381 . S
C1860 C1866 1.383 . S
C1861 C1857 1.495 . S
C1861 H1867 0.959 . S
C1861 H1868 0.961 . S
C1861 H1869 0.960 . S
C1862 C1860 1.381 . S
C1862 C1863 1.394 . S
C1862 H1870 0.930 . S
C1863 C1862 1.394 . S
C1863 C1864 1.383 . S
C1863 H1871 0.929 . S
C1864 C1863 1.383 . S
C1864 C1865 1.377 . S
C1865 H1849 0.930 . S
C1865 C1864 1.377 . S
C1865 C1866 1.379 . S
C1866 H1850 0.931 . S
C1866 C1860 1.383 . S
C1866 C1865 1.379 . S
H1867 C1861 0.959 . S
H1868 C1861 0.961 . S
H1869 C1861 0.960 . S
H1870 C1862 0.930 . S
H1871 C1863 0.929 . S
H1872 C1880 0.929 . S
H1873 C1882 0.930 . S
H1874 C1884 0.930 . S
H1875 C1887 0.929 . S
H1876 C1890 0.930 . S
H1877 C1892 0.960 . S
H1878 C1892 0.960 . S
H1879 C1892 0.960 . S
C1880 H1872 0.929 . S
C1880 C1881 1.377 . S
C1880 C1882 1.384 . S
C1881 C1880 1.377 . S
C1881 C1887 1.390 . S
C1882 H1873 0.930 . S
C1882 C1880 1.384 . S
C1882 C1883 1.372 . S
C1883 C1882 1.372 . S
C1883 C1884 1.400 . S
C1883 C1888 1.490 . S
C1884 H1874 0.930 . S
C1884 C1883 1.400 . S
C1884 C1887 1.386 . S
H1885 C1901 0.930 . S
H1886 C1902 0.931 . S
C1887 H1875 0.929 . S
C1887 C1881 1.390 . S
C1887 C1884 1.386 . S
C1888 C1883 1.490 . S
C1888 C1890 1.395 . S
C1888 C1891 1.403 . S
H1889 C1895 0.930 . S
C1890 H1876 0.930 . S
C1890 C1888 1.395 . S
C1890 C1893 1.403 . S
C1891 C1888 1.403 . S
C1891 C1892 1.524 . S
C1891 C1895 1.400 . S
C1892 H1877 0.960 . S
C1892 H1878 0.960 . S
C1892 H1879 0.960 . S
C1892 C1891 1.524 . S
C1893 C1890 1.403 . S
C1893 C1894 1.392 . S
C1893 C1897 1.495 . S
C1894 C1893 1.392 . S
C1894 C1895 1.385 . S
C1894 C1896 1.478 . S
C1895 H1889 0.930 . S
C1895 C1891 1.400 . S
C1895 C1894 1.385 . S
C1896 C1894 1.478 . S
C1896 C1898 1.381 . S
C1896 C1902 1.383 . S
C1897 C1893 1.495 . S
C1897 H1903 0.959 . S
C1897 H1904 0.961 . S
C1897 H1905 0.960 . S
C1898 C1896 1.381 . S
C1898 C1899 1.394 . S
C1898 H1906 0.930 . S
C1899 C1898 1.394 . S
C1899 C1900 1.383 . S
C1899 H1907 0.929 . S
C1900 C1899 1.383 . S
C1900 C1901 1.377 . S
C1901 H1885 0.930 . S
C1901 C1900 1.377 . S
C1901 C1902 1.379 . S
C1902 H1886 0.931 . S
C1902 C1896 1.383 . S
C1902 C1901 1.379 . S
H1903 C1897 0.959 . S
H1904 C1897 0.961 . S
H1905 C1897 0.960 . S
H1906 C1898 0.930 . S
H1907 C1899 0.929 . S
H1908 C1916 0.929 . S
H1909 C1918 0.930 . S
H1910 C1920 0.930 . S
H1911 C1923 0.929 . S
H1912 C1926 0.930 . S
H1913 C1928 0.960 . S
H1914 C1928 0.960 . S
H1915 C1928 0.960 . S
C1916 H1908 0.929 . S
C1916 C1917 1.377 . S
C1916 C1918 1.384 . S
C1917 C1916 1.377 . S
C1917 C1923 1.390 . S
C1918 H1909 0.930 . S
C1918 C1916 1.384 . S
C1918 C1919 1.372 . S
C1919 C1918 1.372 . S
C1919 C1920 1.400 . S
C1919 C1924 1.490 . S
C1920 H1910 0.930 . S
C1920 C1919 1.400 . S
C1920 C1923 1.386 . S
H1921 C1937 0.930 . S
H1922 C1938 0.931 . S
C1923 H1911 0.929 . S
C1923 C1917 1.390 . S
C1923 C1920 1.386 . S
C1924 C1919 1.490 . S
C1924 C1926 1.395 . S
C1924 C1927 1.403 . S
H1925 C1931 0.930 . S
C1926 H1912 0.930 . S
C1926 C1924 1.395 . S
C1926 C1929 1.403 . S
C1927 C1924 1.403 . S
C1927 C1928 1.524 . S
C1927 C1931 1.400 . S
C1928 H1913 0.960 . S
C1928 H1914 0.960 . S
C1928 H1915 0.960 . S
C1928 C1927 1.524 . S
C1929 C1926 1.403 . S
C1929 C1930 1.392 . S
C1929 C1933 1.495 . S
C1930 C1929 1.392 . S
C1930 C1931 1.385 . S
C1930 C1932 1.478 . S
C1931 H1925 0.930 . S
C1931 C1927 1.400 . S
C1931 C1930 1.385 . S
C1932 C1930 1.478 . S
C1932 C1934 1.381 . S
C1932 C1938 1.383 . S
C1933 C1929 1.495 . S
C1933 H1939 0.959 . S
C1933 H1940 0.961 . S
C1933 H1941 0.960 . S
C1934 C1932 1.381 . S
C1934 C1935 1.394 . S
C1934 H1942 0.930 . S
C1935 C1934 1.394 . S
C1935 C1936 1.383 . S
C1935 H1943 0.929 . S
C1936 C1935 1.383 . S
C1936 C1937 1.377 . S
C1937 H1921 0.930 . S
C1937 C1936 1.377 . S
C1937 C1938 1.379 . S
C1938 H1922 0.931 . S
C1938 C1932 1.383 . S
C1938 C1937 1.379 . S
H1939 C1933 0.959 . S
H1940 C1933 0.961 . S
H1941 C1933 0.960 . S
H1942 C1934 0.930 . S
H1943 C1935 0.929 . S
H1944 C1952 0.929 . S
H1945 C1954 0.930 . S
H1946 C1956 0.930 . S
H1947 C1959 0.929 . S
H1948 C1962 0.930 . S
H1949 C1964 0.960 . S
H1950 C1964 0.960 . S
H1951 C1964 0.960 . S
C1952 H1944 0.929 . S
C1952 C1953 1.377 . S
C1952 C1954 1.384 . S
C1953 C1952 1.377 . S
C1953 C1959 1.390 . S
C1954 H1945 0.930 . S
C1954 C1952 1.384 . S
C1954 C1955 1.372 . S
C1955 C1954 1.372 . S
C1955 C1956 1.400 . S
C1955 C1960 1.490 . S
C1956 H1946 0.930 . S
C1956 C1955 1.400 . S
C1956 C1959 1.386 . S
H1957 C1973 0.930 . S
H1958 C1974 0.931 . S
C1959 H1947 0.929 . S
C1959 C1953 1.390 . S
C1959 C1956 1.386 . S
C1960 C1955 1.490 . S
C1960 C1962 1.395 . S
C1960 C1963 1.403 . S
H1961 C1967 0.930 . S
C1962 H1948 0.930 . S
C1962 C1960 1.395 . S
C1962 C1965 1.403 . S
C1963 C1960 1.403 . S
C1963 C1964 1.524 . S
C1963 C1967 1.400 . S
C1964 H1949 0.960 . S
C1964 H1950 0.960 . S
C1964 H1951 0.960 . S
C1964 C1963 1.524 . S
C1965 C1962 1.403 . S
C1965 C1966 1.392 . S
C1965 C1969 1.495 . S
C1966 C1965 1.392 . S
C1966 C1967 1.385 . S
C1966 C1968 1.478 . S
C1967 H1961 0.930 . S
C1967 C1963 1.400 . S
C1967 C1966 1.385 . S
C1968 C1966 1.478 . S
C1968 C1970 1.381 . S
C1968 C1974 1.383 . S
C1969 C1965 1.495 . S
C1969 H1975 0.959 . S
C1969 H1976 0.961 . S
C1969 H1977 0.960 . S
C1970 C1968 1.381 . S
C1970 C1971 1.394 . S
C1970 H1978 0.930 . S
C1971 C1970 1.394 . S
C1971 C1972 1.383 . S
C1971 H1979 0.929 . S
C1972 C1971 1.383 . S
C1972 C1973 1.377 . S
C1973 H1957 0.930 . S
C1973 C1972 1.377 . S
C1973 C1974 1.379 . S
C1974 H1958 0.931 . S
C1974 C1968 1.383 . S
C1974 C1973 1.379 . S
H1975 C1969 0.959 . S
H1976 C1969 0.961 . S
H1977 C1969 0.960 . S
H1978 C1970 0.930 . S
H1979 C1971 0.929 . S
H1980 C1988 0.929 . S
H1981 C1990 0.930 . S
H1982 C1992 0.930 . S
H1983 C1995 0.929 . S
H1984 C1998 0.930 . S
H1985 C2000 0.960 . S
H1986 C2000 0.960 . S
H1987 C2000 0.960 . S
C1988 H1980 0.929 . S
C1988 C1989 1.377 . S
C1988 C1990 1.384 . S
C1989 C1988 1.377 . S
C1989 C1995 1.390 . S
C1990 H1981 0.930 . S
C1990 C1988 1.384 . S
C1990 C1991 1.372 . S
C1991 C1990 1.372 . S
C1991 C1992 1.400 . S
C1991 C1996 1.490 . S
C1992 H1982 0.930 . S
C1992 C1991 1.400 . S
C1992 C1995 1.386 . S
H1993 C2009 0.930 . S
H1994 C2010 0.931 . S
C1995 H1983 0.929 . S
C1995 C1989 1.390 . S
C1995 C1992 1.386 . S
C1996 C1991 1.490 . S
C1996 C1998 1.395 . S
C1996 C1999 1.403 . S
H1997 C2003 0.930 . S
C1998 H1984 0.930 . S
C1998 C1996 1.395 . S
C1998 C2001 1.403 . S
C1999 C1996 1.403 . S
C1999 C2000 1.524 . S
C1999 C2003 1.400 . S
C2000 H1985 0.960 . S
C2000 H1986 0.960 . S
C2000 H1987 0.960 . S
C2000 C1999 1.524 . S
C2001 C1998 1.403 . S
C2001 C2002 1.392 . S
C2001 C2005 1.495 . S
C2002 C2001 1.392 . S
C2002 C2003 1.385 . S
C2002 C2004 1.478 . S
C2003 H1997 0.930 . S
C2003 C1999 1.400 . S
C2003 C2002 1.385 . S
C2004 C2002 1.478 . S
C2004 C2006 1.381 . S
C2004 C2010 1.383 . S
C2005 C2001 1.495 . S
C2005 H2011 0.959 . S
C2005 H2012 0.961 . S
C2005 H2013 0.960 . S
C2006 C2004 1.381 . S
C2006 C2007 1.394 . S
C2006 H2014 0.930 . S
C2007 C2006 1.394 . S
C2007 C2008 1.383 . S
C2007 H2015 0.929 . S
C2008 C2007 1.383 . S
C2008 C2009 1.377 . S
C2009 H1993 0.930 . S
C2009 C2008 1.377 . S
C2009 C2010 1.379 . S
C2010 H1994 0.931 . S
C2010 C2004 1.383 . S
C2010 C2009 1.379 . S
H2011 C2005 0.959 . S
H2012 C2005 0.961 . S
H2013 C2005 0.960 . S
H2014 C2006 0.930 . S
H2015 C2007 0.929 . S
H2016 C2024 0.929 . S
H2017 C2026 0.930 . S
H2018 C2028 0.930 . S
H2019 C2031 0.929 . S
H2020 C2034 0.930 . S
H2021 C2036 0.960 . S
H2022 C2036 0.960 . S
H2023 C2036 0.960 . S
C2024 H2016 0.929 . S
C2024 C2025 1.377 . S
C2024 C2026 1.384 . S
C2025 C2024 1.377 . S
C2025 C2031 1.390 . S
C2026 H2017 0.930 . S
C2026 C2024 1.384 . S
C2026 C2027 1.372 . S
C2027 C2026 1.372 . S
C2027 C2028 1.400 . S
C2027 C2032 1.490 . S
C2028 H2018 0.930 . S
C2028 C2027 1.400 . S
C2028 C2031 1.386 . S
H2029 C2045 0.930 . S
H2030 C2046 0.931 . S
C2031 H2019 0.929 . S
C2031 C2025 1.390 . S
C2031 C2028 1.386 . S
C2032 C2027 1.490 . S
C2032 C2034 1.395 . S
C2032 C2035 1.403 . S
H2033 C2039 0.930 . S
C2034 H2020 0.930 . S
C2034 C2032 1.395 . S
C2034 C2037 1.403 . S
C2035 C2032 1.403 . S
C2035 C2036 1.524 . S
C2035 C2039 1.400 . S
C2036 H2021 0.960 . S
C2036 H2022 0.960 . S
C2036 H2023 0.960 . S
C2036 C2035 1.524 . S
C2037 C2034 1.403 . S
C2037 C2038 1.392 . S
C2037 C2041 1.495 . S
C2038 C2037 1.392 . S
C2038 C2039 1.385 . S
C2038 C2040 1.478 . S
C2039 H2033 0.930 . S
C2039 C2035 1.400 . S
C2039 C2038 1.385 . S
C2040 C2038 1.478 . S
C2040 C2042 1.381 . S
C2040 C2046 1.383 . S
C2041 C2037 1.495 . S
C2041 H2047 0.959 . S
C2041 H2048 0.961 . S
C2041 H2049 0.960 . S
C2042 C2040 1.381 . S
C2042 C2043 1.394 . S
C2042 H2050 0.930 . S
C2043 C2042 1.394 . S
C2043 C2044 1.383 . S
C2043 H2051 0.929 . S
C2044 C2043 1.383 . S
C2044 C2045 1.377 . S
C2045 H2029 0.930 . S
C2045 C2044 1.377 . S
C2045 C2046 1.379 . S
C2046 H2030 0.931 . S
C2046 C2040 1.383 . S
C2046 C2045 1.379 . S
H2047 C2041 0.959 . S
H2048 C2041 0.961 . S
H2049 C2041 0.960 . S
H2050 C2042 0.930 . S
H2051 C2043 0.929 . S
H2052 C2060 0.929 . S
H2053 C2062 0.930 . S
H2054 C2064 0.930 . S
H2055 C2067 0.929 . S
H2056 C2070 0.930 . S
H2057 C2072 0.960 . S
H2058 C2072 0.960 . S
H2059 C2072 0.960 . S
C2060 H2052 0.929 . S
C2060 C2061 1.377 . S
C2060 C2062 1.384 . S
C2061 C2060 1.377 . S
C2061 C2067 1.390 . S
C2062 H2053 0.930 . S
C2062 C2060 1.384 . S
C2062 C2063 1.372 . S
C2063 C2062 1.372 . S
C2063 C2064 1.400 . S
C2063 C2068 1.490 . S
C2064 H2054 0.930 . S
C2064 C2063 1.400 . S
C2064 C2067 1.386 . S
H2065 C2081 0.930 . S
H2066 C2082 0.931 . S
C2067 H2055 0.929 . S
C2067 C2061 1.390 . S
C2067 C2064 1.386 . S
C2068 C2063 1.490 . S
C2068 C2070 1.395 . S
C2068 C2071 1.403 . S
H2069 C2075 0.930 . S
C2070 H2056 0.930 . S
C2070 C2068 1.395 . S
C2070 C2073 1.403 . S
C2071 C2068 1.403 . S
C2071 C2072 1.524 . S
C2071 C2075 1.400 . S
C2072 H2057 0.960 . S
C2072 H2058 0.960 . S
C2072 H2059 0.960 . S
C2072 C2071 1.524 . S
C2073 C2070 1.403 . S
C2073 C2074 1.392 . S
C2073 C2077 1.495 . S
C2074 C2073 1.392 . S
C2074 C2075 1.385 . S
C2074 C2076 1.478 . S
C2075 H2069 0.930 . S
C2075 C2071 1.400 . S
C2075 C2074 1.385 . S
C2076 C2074 1.478 . S
C2076 C2078 1.381 . S
C2076 C2082 1.383 . S
C2077 C2073 1.495 . S
C2077 H2083 0.959 . S
C2077 H2084 0.961 . S
C2077 H2085 0.960 . S
C2078 C2076 1.381 . S
C2078 C2079 1.394 . S
C2078 H2086 0.930 . S
C2079 C2078 1.394 . S
C2079 C2080 1.383 . S
C2079 H2087 0.929 . S
C2080 C2079 1.383 . S
C2080 C2081 1.377 . S
C2081 H2065 0.930 . S
C2081 C2080 1.377 . S
C2081 C2082 1.379 . S
C2082 H2066 0.931 . S
C2082 C2076 1.383 . S
C2082 C2081 1.379 . S
H2083 C2077 0.959 . S
H2084 C2077 0.961 . S
H2085 C2077 0.960 . S
H2086 C2078 0.930 . S
H2087 C2079 0.929 . S
H2088 C2096 0.929 . S
H2089 C2098 0.930 . S
H2090 C2100 0.930 . S
H2091 C2103 0.929 . S
H2092 C2106 0.930 . S
H2093 C2108 0.960 . S
H2094 C2108 0.960 . S
H2095 C2108 0.960 . S
C2096 H2088 0.929 . S
C2096 C2097 1.377 . S
C2096 C2098 1.384 . S
C2097 C2096 1.377 . S
C2097 C2103 1.390 . S
C2098 H2089 0.930 . S
C2098 C2096 1.384 . S
C2098 C2099 1.372 . S
C2099 C2098 1.372 . S
C2099 C2100 1.400 . S
C2099 C2104 1.490 . S
C2100 H2090 0.930 . S
C2100 C2099 1.400 . S
C2100 C2103 1.386 . S
H2101 C2117 0.930 . S
H2102 C2118 0.931 . S
C2103 H2091 0.929 . S
C2103 C2097 1.390 . S
C2103 C2100 1.386 . S
C2104 C2099 1.490 . S
C2104 C2106 1.395 . S
C2104 C2107 1.403 . S
H2105 C2111 0.930 . S
C2106 H2092 0.930 . S
C2106 C2104 1.395 . S
C2106 C2109 1.403 . S
C2107 C2104 1.403 . S
C2107 C2108 1.524 . S
C2107 C2111 1.400 . S
C2108 H2093 0.960 . S
C2108 H2094 0.960 . S
C2108 H2095 0.960 . S
C2108 C2107 1.524 . S
C2109 C2106 1.403 . S
C2109 C2110 1.392 . S
C2109 C2113 1.495 . S
C2110 C2109 1.392 . S
C2110 C2111 1.385 . S
C2110 C2112 1.478 . S
C2111 H2105 0.930 . S
C2111 C2107 1.400 . S
C2111 C2110 1.385 . S
C2112 C2110 1.478 . S
C2112 C2114 1.381 . S
C2112 C2118 1.383 . S
C2113 C2109 1.495 . S
C2113 H2119 0.959 . S
C2113 H2120 0.961 . S
C2113 H2121 0.960 . S
C2114 C2112 1.381 . S
C2114 C2115 1.394 . S
C2114 H2122 0.930 . S
C2115 C2114 1.394 . S
C2115 C2116 1.383 . S
C2115 H2123 0.929 . S
C2116 C2115 1.383 . S
C2116 C2117 1.377 . S
C2117 H2101 0.930 . S
C2117 C2116 1.377 . S
C2117 C2118 1.379 . S
C2118 H2102 0.931 . S
C2118 C2112 1.383 . S
C2118 C2117 1.379 . S
H2119 C2113 0.959 . S
H2120 C2113 0.961 . S
H2121 C2113 0.960 . S
H2122 C2114 0.930 . S
H2123 C2115 0.929 . S
H2124 C2132 0.929 . S
H2125 C2134 0.930 . S
H2126 C2136 0.930 . S
H2127 C2139 0.929 . S
H2128 C2142 0.930 . S
H2129 C2144 0.960 . S
H2130 C2144 0.960 . S
H2131 C2144 0.960 . S
C2132 H2124 0.929 . S
C2132 C2133 1.377 . S
C2132 C2134 1.384 . S
C2133 C2132 1.377 . S
C2133 C2139 1.390 . S
C2134 H2125 0.930 . S
C2134 C2132 1.384 . S
C2134 C2135 1.372 . S
C2135 C2134 1.372 . S
C2135 C2136 1.400 . S
C2135 C2140 1.490 . S
C2136 H2126 0.930 . S
C2136 C2135 1.400 . S
C2136 C2139 1.386 . S
H2137 C2153 0.930 . S
H2138 C2154 0.931 . S
C2139 H2127 0.929 . S
C2139 C2133 1.390 . S
C2139 C2136 1.386 . S
C2140 C2135 1.490 . S
C2140 C2142 1.395 . S
C2140 C2143 1.403 . S
H2141 C2147 0.930 . S
C2142 H2128 0.930 . S
C2142 C2140 1.395 . S
C2142 C2145 1.403 . S
C2143 C2140 1.403 . S
C2143 C2144 1.524 . S
C2143 C2147 1.400 . S
C2144 H2129 0.960 . S
C2144 H2130 0.960 . S
C2144 H2131 0.960 . S
C2144 C2143 1.524 . S
C2145 C2142 1.403 . S
C2145 C2146 1.392 . S
C2145 C2149 1.495 . S
C2146 C2145 1.392 . S
C2146 C2147 1.385 . S
C2146 C2148 1.478 . S
C2147 H2141 0.930 . S
C2147 C2143 1.400 . S
C2147 C2146 1.385 . S
C2148 C2146 1.478 . S
C2148 C2150 1.381 . S
C2148 C2154 1.383 . S
C2149 C2145 1.495 . S
C2149 H2155 0.959 . S
C2149 H2156 0.961 . S
C2149 H2157 0.960 . S
C2150 C2148 1.381 . S
C2150 C2151 1.394 . S
C2150 H2158 0.930 . S
C2151 C2150 1.394 . S
C2151 C2152 1.383 . S
C2151 H2159 0.929 . S
C2152 C2151 1.383 . S
C2152 C2153 1.377 . S
C2153 H2137 0.930 . S
C2153 C2152 1.377 . S
C2153 C2154 1.379 . S
C2154 H2138 0.931 . S
C2154 C2148 1.383 . S
C2154 C2153 1.379 . S
H2155 C2149 0.959 . S
H2156 C2149 0.961 . S
H2157 C2149 0.960 . S
H2158 C2150 0.930 . S
H2159 C2151 0.929 . S
H2160 C2168 0.929 . S
H2161 C2170 0.930 . S
H2162 C2172 0.930 . S
H2163 C2175 0.929 . S
H2164 C2178 0.930 . S
H2165 C2180 0.960 . S
H2166 C2180 0.960 . S
H2167 C2180 0.960 . S
C2168 H2160 0.929 . S
C2168 C2169 1.377 . S
C2168 C2170 1.384 . S
C2169 C2168 1.377 . S
C2169 C2175 1.390 . S
C2170 H2161 0.930 . S
C2170 C2168 1.384 . S
C2170 C2171 1.372 . S
C2171 C2170 1.372 . S
C2171 C2172 1.400 . S
C2171 C2176 1.490 . S
C2172 H2162 0.930 . S
C2172 C2171 1.400 . S
C2172 C2175 1.386 . S
H2173 C2189 0.930 . S
H2174 C2190 0.931 . S
C2175 H2163 0.929 . S
C2175 C2169 1.390 . S
C2175 C2172 1.386 . S
C2176 C2171 1.490 . S
C2176 C2178 1.395 . S
C2176 C2179 1.403 . S
H2177 C2183 0.930 . S
C2178 H2164 0.930 . S
C2178 C2176 1.395 . S
C2178 C2181 1.403 . S
C2179 C2176 1.403 . S
C2179 C2180 1.524 . S
C2179 C2183 1.400 . S
C2180 H2165 0.960 . S
C2180 H2166 0.960 . S
C2180 H2167 0.960 . S
C2180 C2179 1.524 . S
C2181 C2178 1.403 . S
C2181 C2182 1.392 . S
C2181 C2185 1.495 . S
C2182 C2181 1.392 . S
C2182 C2183 1.385 . S
C2182 C2184 1.478 . S
C2183 H2177 0.930 . S
C2183 C2179 1.400 . S
C2183 C2182 1.385 . S
C2184 C2182 1.478 . S
C2184 C2186 1.381 . S
C2184 C2190 1.383 . S
C2185 C2181 1.495 . S
C2185 H2191 0.959 . S
C2185 H2192 0.961 . S
C2185 H2193 0.960 . S
C2186 C2184 1.381 . S
C2186 C2187 1.394 . S
C2186 H2194 0.930 . S
C2187 C2186 1.394 . S
C2187 C2188 1.383 . S
C2187 H2195 0.929 . S
C2188 C2187 1.383 . S
C2188 C2189 1.377 . S
C2189 H2173 0.930 . S
C2189 C2188 1.377 . S
C2189 C2190 1.379 . S
C2190 H2174 0.931 . S
C2190 C2184 1.383 . S
C2190 C2189 1.379 . S
H2191 C2185 0.959 . S
H2192 C2185 0.961 . S
H2193 C2185 0.960 . S
H2194 C2186 0.930 . S
H2195 C2187 0.929 . S
H2196 C2204 0.929 . S
H2197 C2206 0.930 . S
H2198 C2208 0.930 . S
H2199 C2211 0.929 . S
H2200 C2214 0.930 . S
H2201 C2216 0.960 . S
H2202 C2216 0.960 . S
H2203 C2216 0.960 . S
C2204 H2196 0.929 . S
C2204 C2205 1.377 . S
C2204 C2206 1.384 . S
C2205 C2204 1.377 . S
C2205 C2211 1.390 . S
C2206 H2197 0.930 . S
C2206 C2204 1.384 . S
C2206 C2207 1.372 . S
C2207 C2206 1.372 . S
C2207 C2208 1.400 . S
C2207 C2212 1.490 . S
C2208 H2198 0.930 . S
C2208 C2207 1.400 . S
C2208 C2211 1.386 . S
H2209 C2225 0.930 . S
H2210 C2226 0.931 . S
C2211 H2199 0.929 . S
C2211 C2205 1.390 . S
C2211 C2208 1.386 . S
C2212 C2207 1.490 . S
C2212 C2214 1.395 . S
C2212 C2215 1.403 . S
H2213 C2219 0.930 . S
C2214 H2200 0.930 . S
C2214 C2212 1.395 . S
C2214 C2217 1.403 . S
C2215 C2212 1.403 . S
C2215 C2216 1.524 . S
C2215 C2219 1.400 . S
C2216 H2201 0.960 . S
C2216 H2202 0.960 . S
C2216 H2203 0.960 . S
C2216 C2215 1.524 . S
C2217 C2214 1.403 . S
C2217 C2218 1.392 . S
C2217 C2221 1.495 . S
C2218 C2217 1.392 . S
C2218 C2219 1.385 . S
C2218 C2220 1.478 . S
C2219 H2213 0.930 . S
C2219 C2215 1.400 . S
C2219 C2218 1.385 . S
C2220 C2218 1.478 . S
C2220 C2222 1.381 . S
C2220 C2226 1.383 . S
C2221 C2217 1.495 . S
C2221 H2227 0.959 . S
C2221 H2228 0.961 . S
C2221 H2229 0.960 . S
C2222 C2220 1.381 . S
C2222 C2223 1.394 . S
C2222 H2230 0.930 . S
C2223 C2222 1.394 . S
C2223 C2224 1.383 . S
C2223 H2231 0.929 . S
C2224 C2223 1.383 . S
C2224 C2225 1.377 . S
C2225 H2209 0.930 . S
C2225 C2224 1.377 . S
C2225 C2226 1.379 . S
C2226 H2210 0.931 . S
C2226 C2220 1.383 . S
C2226 C2225 1.379 . S
H2227 C2221 0.959 . S
H2228 C2221 0.961 . S
H2229 C2221 0.960 . S
H2230 C2222 0.930 . S
H2231 C2223 0.929 . S
H2232 C2240 0.929 . S
H2233 C2242 0.930 . S
H2234 C2244 0.930 . S
H2235 C2247 0.929 . S
H2236 C2250 0.930 . S
H2237 C2252 0.960 . S
H2238 C2252 0.960 . S
H2239 C2252 0.960 . S
C2240 H2232 0.929 . S
C2240 C2241 1.377 . S
C2240 C2242 1.384 . S
C2241 C2240 1.377 . S
C2241 C2247 1.390 . S
C2242 H2233 0.930 . S
C2242 C2240 1.384 . S
C2242 C2243 1.372 . S
C2243 C2242 1.372 . S
C2243 C2244 1.400 . S
C2243 C2248 1.490 . S
C2244 H2234 0.930 . S
C2244 C2243 1.400 . S
C2244 C2247 1.386 . S
H2245 C2261 0.930 . S
H2246 C2262 0.931 . S
C2247 H2235 0.929 . S
C2247 C2241 1.390 . S
C2247 C2244 1.386 . S
C2248 C2243 1.490 . S
C2248 C2250 1.395 . S
C2248 C2251 1.403 . S
H2249 C2255 0.930 . S
C2250 H2236 0.930 . S
C2250 C2248 1.395 . S
C2250 C2253 1.403 . S
C2251 C2248 1.403 . S
C2251 C2252 1.524 . S
C2251 C2255 1.400 . S
C2252 H2237 0.960 . S
C2252 H2238 0.960 . S
C2252 H2239 0.960 . S
C2252 C2251 1.524 . S
C2253 C2250 1.403 . S
C2253 C2254 1.392 . S
C2253 C2257 1.495 . S
C2254 C2253 1.392 . S
C2254 C2255 1.385 . S
C2254 C2256 1.478 . S
C2255 H2249 0.930 . S
C2255 C2251 1.400 . S
C2255 C2254 1.385 . S
C2256 C2254 1.478 . S
C2256 C2258 1.381 . S
C2256 C2262 1.383 . S
C2257 C2253 1.495 . S
C2257 H2263 0.959 . S
C2257 H2264 0.961 . S
C2257 H2265 0.960 . S
C2258 C2256 1.381 . S
C2258 C2259 1.394 . S
C2258 H2266 0.930 . S
C2259 C2258 1.394 . S
C2259 C2260 1.383 . S
C2259 H2267 0.929 . S
C2260 C2259 1.383 . S
C2260 C2261 1.377 . S
C2261 H2245 0.930 . S
C2261 C2260 1.377 . S
C2261 C2262 1.379 . S
C2262 H2246 0.931 . S
C2262 C2256 1.383 . S
C2262 C2261 1.379 . S
H2263 C2257 0.959 . S
H2264 C2257 0.961 . S
H2265 C2257 0.960 . S
H2266 C2258 0.930 . S
H2267 C2259 0.929 . S
H2268 C2276 0.929 . S
H2269 C2278 0.930 . S
H2270 C2280 0.930 . S
H2271 C2283 0.929 . S
H2272 C2286 0.930 . S
H2273 C2288 0.960 . S
H2274 C2288 0.960 . S
H2275 C2288 0.960 . S
C2276 H2268 0.929 . S
C2276 C2277 1.377 . S
C2276 C2278 1.384 . S
C2277 C2276 1.377 . S
C2277 C2283 1.390 . S
C2278 H2269 0.930 . S
C2278 C2276 1.384 . S
C2278 C2279 1.372 . S
C2279 C2278 1.372 . S
C2279 C2280 1.400 . S
C2279 C2284 1.490 . S
C2280 H2270 0.930 . S
C2280 C2279 1.400 . S
C2280 C2283 1.386 . S
H2281 C2297 0.930 . S
H2282 C2298 0.931 . S
C2283 H2271 0.929 . S
C2283 C2277 1.390 . S
C2283 C2280 1.386 . S
C2284 C2279 1.490 . S
C2284 C2286 1.395 . S
C2284 C2287 1.403 . S
H2285 C2291 0.930 . S
C2286 H2272 0.930 . S
C2286 C2284 1.395 . S
C2286 C2289 1.403 . S
C2287 C2284 1.403 . S
C2287 C2288 1.524 . S
C2287 C2291 1.400 . S
C2288 H2273 0.960 . S
C2288 H2274 0.960 . S
C2288 H2275 0.960 . S
C2288 C2287 1.524 . S
C2289 C2286 1.403 . S
C2289 C2290 1.392 . S
C2289 C2293 1.495 . S
C2290 C2289 1.392 . S
C2290 C2291 1.385 . S
C2290 C2292 1.478 . S
C2291 H2285 0.930 . S
C2291 C2287 1.400 . S
C2291 C2290 1.385 . S
C2292 C2290 1.478 . S
C2292 C2294 1.381 . S
C2292 C2298 1.383 . S
C2293 C2289 1.495 . S
C2293 H2299 0.959 . S
C2293 H2300 0.961 . S
C2293 H2301 0.960 . S
C2294 C2292 1.381 . S
C2294 C2295 1.394 . S
C2294 H2302 0.930 . S
C2295 C2294 1.394 . S
C2295 C2296 1.383 . S
C2295 H2303 0.929 . S
C2296 C2295 1.383 . S
C2296 C2297 1.377 . S
C2297 H2281 0.930 . S
C2297 C2296 1.377 . S
C2297 C2298 1.379 . S
C2298 H2282 0.931 . S
C2298 C2292 1.383 . S
C2298 C2297 1.379 . S
H2299 C2293 0.959 . S
H2300 C2293 0.961 . S
H2301 C2293 0.960 . S
H2302 C2294 0.930 . S
H2303 C2295 0.929 . S
H2304 C2312 0.929 . S
H2305 C2314 0.930 . S
H2306 C2316 0.930 . S
H2307 C2319 0.929 . S
H2308 C2322 0.930 . S
H2309 C2324 0.960 . S
H2310 C2324 0.960 . S
H2311 C2324 0.960 . S
C2312 H2304 0.929 . S
C2312 C2313 1.377 . S
C2312 C2314 1.384 . S
C2313 C2312 1.377 . S
C2313 C2319 1.390 . S
C2314 H2305 0.930 . S
C2314 C2312 1.384 . S
C2314 C2315 1.372 . S
C2315 C2314 1.372 . S
C2315 C2316 1.400 . S
C2315 C2320 1.490 . S
C2316 H2306 0.930 . S
C2316 C2315 1.400 . S
C2316 C2319 1.386 . S
H2317 C2333 0.930 . S
H2318 C2334 0.931 . S
C2319 H2307 0.929 . S
C2319 C2313 1.390 . S
C2319 C2316 1.386 . S
C2320 C2315 1.490 . S
C2320 C2322 1.395 . S
C2320 C2323 1.403 . S
H2321 C2327 0.930 . S
C2322 H2308 0.930 . S
C2322 C2320 1.395 . S
C2322 C2325 1.403 . S
C2323 C2320 1.403 . S
C2323 C2324 1.524 . S
C2323 C2327 1.400 . S
C2324 H2309 0.960 . S
C2324 H2310 0.960 . S
C2324 H2311 0.960 . S
C2324 C2323 1.524 . S
C2325 C2322 1.403 . S
C2325 C2326 1.392 . S
C2325 C2329 1.495 . S
C2326 C2325 1.392 . S
C2326 C2327 1.385 . S
C2326 C2328 1.478 . S
C2327 H2321 0.930 . S
C2327 C2323 1.400 . S
C2327 C2326 1.385 . S
C2328 C2326 1.478 . S
C2328 C2330 1.381 . S
C2328 C2334 1.383 . S
C2329 C2325 1.495 . S
C2329 H2335 0.959 . S
C2329 H2336 0.961 . S
C2329 H2337 0.960 . S
C2330 C2328 1.381 . S
C2330 C2331 1.394 . S
C2330 H2338 0.930 . S
C2331 C2330 1.394 . S
C2331 C2332 1.383 . S
C2331 H2339 0.929 . S
C2332 C2331 1.383 . S
C2332 C2333 1.377 . S
C2333 H2317 0.930 . S
C2333 C2332 1.377 . S
C2333 C2334 1.379 . S
C2334 H2318 0.931 . S
C2334 C2328 1.383 . S
C2334 C2333 1.379 . S
H2335 C2329 0.959 . S
H2336 C2329 0.961 . S
H2337 C2329 0.960 . S
H2338 C2330 0.930 . S
H2339 C2331 0.929 . S
H2340 C2348 0.929 . S
H2341 C2350 0.930 . S
H2342 C2352 0.930 . S
H2343 C2355 0.929 . S
H2344 C2358 0.930 . S
H2345 C2360 0.960 . S
H2346 C2360 0.960 . S
H2347 C2360 0.960 . S
C2348 H2340 0.929 . S
C2348 C2349 1.377 . S
C2348 C2350 1.384 . S
C2349 C2348 1.377 . S
C2349 C2355 1.390 . S
C2350 H2341 0.930 . S
C2350 C2348 1.384 . S
C2350 C2351 1.372 . S
C2351 C2350 1.372 . S
C2351 C2352 1.400 . S
C2351 C2356 1.490 . S
C2352 H2342 0.930 . S
C2352 C2351 1.400 . S
C2352 C2355 1.386 . S
H2353 C2369 0.930 . S
H2354 C2370 0.931 . S
C2355 H2343 0.929 . S
C2355 C2349 1.390 . S
C2355 C2352 1.386 . S
C2356 C2351 1.490 . S
C2356 C2358 1.395 . S
C2356 C2359 1.403 . S
H2357 C2363 0.930 . S
C2358 H2344 0.930 . S
C2358 C2356 1.395 . S
C2358 C2361 1.403 . S
C2359 C2356 1.403 . S
C2359 C2360 1.524 . S
C2359 C2363 1.400 . S
C2360 H2345 0.960 . S
C2360 H2346 0.960 . S
C2360 H2347 0.960 . S
C2360 C2359 1.524 . S
C2361 C2358 1.403 . S
C2361 C2362 1.392 . S
C2361 C2365 1.495 . S
C2362 C2361 1.392 . S
C2362 C2363 1.385 . S
C2362 C2364 1.478 . S
C2363 H2357 0.930 . S
C2363 C2359 1.400 . S
C2363 C2362 1.385 . S
C2364 C2362 1.478 . S
C2364 C2366 1.381 . S
C2364 C2370 1.383 . S
C2365 C2361 1.495 . S
C2365 H2371 0.959 . S
C2365 H2372 0.961 . S
C2365 H2373 0.960 . S
C2366 C2364 1.381 . S
C2366 C2367 1.394 . S
C2366 H2374 0.930 . S
C2367 C2366 1.394 . S
C2367 C2368 1.383 . S
C2367 H2375 0.929 . S
C2368 C2367 1.383 . S
C2368 C2369 1.377 . S
C2369 H2353 0.930 . S
C2369 C2368 1.377 . S
C2369 C2370 1.379 . S
C2370 H2354 0.931 . S
C2370 C2364 1.383 . S
C2370 C2369 1.379 . S
H2371 C2365 0.959 . S
H2372 C2365 0.961 . S
H2373 C2365 0.960 . S
H2374 C2366 0.930 . S
H2375 C2367 0.929 . S
H2376 C2384 0.929 . S
H2377 C2386 0.930 . S
H2378 C2388 0.930 . S
H2379 C2391 0.929 . S
H2380 C2394 0.930 . S
H2381 C2396 0.960 . S
H2382 C2396 0.960 . S
H2383 C2396 0.960 . S
C2384 H2376 0.929 . S
C2384 C2385 1.377 . S
C2384 C2386 1.384 . S
C2385 C2384 1.377 . S
C2385 C2391 1.390 . S
C2386 H2377 0.930 . S
C2386 C2384 1.384 . S
C2386 C2387 1.372 . S
C2387 C2386 1.372 . S
C2387 C2388 1.400 . S
C2387 C2392 1.490 . S
C2388 H2378 0.930 . S
C2388 C2387 1.400 . S
C2388 C2391 1.386 . S
H2389 C2405 0.930 . S
H2390 C2406 0.931 . S
C2391 H2379 0.929 . S
C2391 C2385 1.390 . S
C2391 C2388 1.386 . S
C2392 C2387 1.490 . S
C2392 C2394 1.395 . S
C2392 C2395 1.403 . S
H2393 C2399 0.930 . S
C2394 H2380 0.930 . S
C2394 C2392 1.395 . S
C2394 C2397 1.403 . S
C2395 C2392 1.403 . S
C2395 C2396 1.524 . S
C2395 C2399 1.400 . S
C2396 H2381 0.960 . S
C2396 H2382 0.960 . S
C2396 H2383 0.960 . S
C2396 C2395 1.524 . S
C2397 C2394 1.403 . S
C2397 C2398 1.392 . S
C2397 C2401 1.495 . S
C2398 C2397 1.392 . S
C2398 C2399 1.385 . S
C2398 C2400 1.478 . S
C2399 H2393 0.930 . S
C2399 C2395 1.400 . S
C2399 C2398 1.385 . S
C2400 C2398 1.478 . S
C2400 C2402 1.381 . S
C2400 C2406 1.383 . S
C2401 C2397 1.495 . S
C2401 H2407 0.959 . S
C2401 H2408 0.961 . S
C2401 H2409 0.960 . S
C2402 C2400 1.381 . S
C2402 C2403 1.394 . S
C2402 H2410 0.930 . S
C2403 C2402 1.394 . S
C2403 C2404 1.383 . S
C2403 H2411 0.929 . S
C2404 C2403 1.383 . S
C2404 C2405 1.377 . S
C2405 H2389 0.930 . S
C2405 C2404 1.377 . S
C2405 C2406 1.379 . S
C2406 H2390 0.931 . S
C2406 C2400 1.383 . S
C2406 C2405 1.379 . S
H2407 C2401 0.959 . S
H2408 C2401 0.961 . S
H2409 C2401 0.960 . S
H2410 C2402 0.930 . S
H2411 C2403 0.929 . S
H2412 C2420 0.929 . S
H2413 C2422 0.930 . S
H2414 C2424 0.930 . S
H2415 C2427 0.929 . S
H2416 C2430 0.930 . S
H2417 C2432 0.960 . S
H2418 C2432 0.960 . S
H2419 C2432 0.960 . S
C2420 H2412 0.929 . S
C2420 C2421 1.377 . S
C2420 C2422 1.384 . S
C2421 C2420 1.377 . S
C2421 C2427 1.390 . S
C2422 H2413 0.930 . S
C2422 C2420 1.384 . S
C2422 C2423 1.372 . S
C2423 C2422 1.372 . S
C2423 C2424 1.400 . S
C2423 C2428 1.490 . S
C2424 H2414 0.930 . S
C2424 C2423 1.400 . S
C2424 C2427 1.386 . S
H2425 C2441 0.930 . S
H2426 C2442 0.931 . S
C2427 H2415 0.929 . S
C2427 C2421 1.390 . S
C2427 C2424 1.386 . S
C2428 C2423 1.490 . S
C2428 C2430 1.395 . S
C2428 C2431 1.403 . S
H2429 C2435 0.930 . S
C2430 H2416 0.930 . S
C2430 C2428 1.395 . S
C2430 C2433 1.403 . S
C2431 C2428 1.403 . S
C2431 C2432 1.524 . S
C2431 C2435 1.400 . S
C2432 H2417 0.960 . S
C2432 H2418 0.960 . S
C2432 H2419 0.960 . S
C2432 C2431 1.524 . S
C2433 C2430 1.403 . S
C2433 C2434 1.392 . S
C2433 C2437 1.495 . S
C2434 C2433 1.392 . S
C2434 C2435 1.385 . S
C2434 C2436 1.478 . S
C2435 H2429 0.930 . S
C2435 C2431 1.400 . S
C2435 C2434 1.385 . S
C2436 C2434 1.478 . S
C2436 C2438 1.381 . S
C2436 C2442 1.383 . S
C2437 C2433 1.495 . S
C2437 H2443 0.959 . S
C2437 H2444 0.961 . S
C2437 H2445 0.960 . S
C2438 C2436 1.381 . S
C2438 C2439 1.394 . S
C2438 H2446 0.930 . S
C2439 C2438 1.394 . S
C2439 C2440 1.383 . S
C2439 H2447 0.929 . S
C2440 C2439 1.383 . S
C2440 C2441 1.377 . S
C2441 H2425 0.930 . S
C2441 C2440 1.377 . S
C2441 C2442 1.379 . S
C2442 H2426 0.931 . S
C2442 C2436 1.383 . S
C2442 C2441 1.379 . S
H2443 C2437 0.959 . S
H2444 C2437 0.961 . S
H2445 C2437 0.960 . S
H2446 C2438 0.930 . S
H2447 C2439 0.929 . S
H2448 C2456 0.929 . S
H2449 C2458 0.930 . S
H2450 C2460 0.930 . S
H2451 C2463 0.929 . S
H2452 C2466 0.930 . S
H2453 C2468 0.960 . S
H2454 C2468 0.960 . S
H2455 C2468 0.960 . S
C2456 H2448 0.929 . S
C2456 C2457 1.377 . S
C2456 C2458 1.384 . S
C2457 C2456 1.377 . S
C2457 C2463 1.390 . S
C2458 H2449 0.930 . S
C2458 C2456 1.384 . S
C2458 C2459 1.372 . S
C2459 C2458 1.372 . S
C2459 C2460 1.400 . S
C2459 C2464 1.490 . S
C2460 H2450 0.930 . S
C2460 C2459 1.400 . S
C2460 C2463 1.386 . S
H2461 C2477 0.930 . S
H2462 C2478 0.931 . S
C2463 H2451 0.929 . S
C2463 C2457 1.390 . S
C2463 C2460 1.386 . S
C2464 C2459 1.490 . S
C2464 C2466 1.395 . S
C2464 C2467 1.403 . S
H2465 C2471 0.930 . S
C2466 H2452 0.930 . S
C2466 C2464 1.395 . S
C2466 C2469 1.403 . S
C2467 C2464 1.403 . S
C2467 C2468 1.524 . S
C2467 C2471 1.400 . S
C2468 H2453 0.960 . S
C2468 H2454 0.960 . S
C2468 H2455 0.960 . S
C2468 C2467 1.524 . S
C2469 C2466 1.403 . S
C2469 C2470 1.392 . S
C2469 C2473 1.495 . S
C2470 C2469 1.392 . S
C2470 C2471 1.385 . S
C2470 C2472 1.478 . S
C2471 H2465 0.930 . S
C2471 C2467 1.400 . S
C2471 C2470 1.385 . S
C2472 C2470 1.478 . S
C2472 C2474 1.381 . S
C2472 C2478 1.383 . S
C2473 C2469 1.495 . S
C2473 H2479 0.959 . S
C2473 H2480 0.961 . S
C2473 H2481 0.960 . S
C2474 C2472 1.381 . S
C2474 C2475 1.394 . S
C2474 H2482 0.930 . S
C2475 C2474 1.394 . S
C2475 C2476 1.383 . S
C2475 H2483 0.929 . S
C2476 C2475 1.383 . S
C2476 C2477 1.377 . S
C2477 H2461 0.930 . S
C2477 C2476 1.377 . S
C2477 C2478 1.379 . S
C2478 H2462 0.931 . S
C2478 C2472 1.383 . S
C2478 C2477 1.379 . S
H2479 C2473 0.959 . S
H2480 C2473 0.961 . S
H2481 C2473 0.960 . S
H2482 C2474 0.930 . S
H2483 C2475 0.929 . S
H2484 C2492 0.929 . S
H2485 C2494 0.930 . S
H2486 C2496 0.930 . S
H2487 C2499 0.929 . S
H2488 C2502 0.930 . S
H2489 C2504 0.960 . S
H2490 C2504 0.960 . S
H2491 C2504 0.960 . S
C2492 H2484 0.929 . S
C2492 C2493 1.377 . S
C2492 C2494 1.384 . S
C2493 C2492 1.377 . S
C2493 C2499 1.390 . S
C2494 H2485 0.930 . S
C2494 C2492 1.384 . S
C2494 C2495 1.372 . S
C2495 C2494 1.372 . S
C2495 C2496 1.400 . S
C2495 C2500 1.490 . S
C2496 H2486 0.930 . S
C2496 C2495 1.400 . S
C2496 C2499 1.386 . S
H2497 C2513 0.930 . S
H2498 C2514 0.931 . S
C2499 H2487 0.929 . S
C2499 C2493 1.390 . S
C2499 C2496 1.386 . S
C2500 C2495 1.490 . S
C2500 C2502 1.395 . S
C2500 C2503 1.403 . S
H2501 C2507 0.930 . S
C2502 H2488 0.930 . S
C2502 C2500 1.395 . S
C2502 C2505 1.403 . S
C2503 C2500 1.403 . S
C2503 C2504 1.524 . S
C2503 C2507 1.400 . S
C2504 H2489 0.960 . S
C2504 H2490 0.960 . S
C2504 H2491 0.960 . S
C2504 C2503 1.524 . S
C2505 C2502 1.403 . S
C2505 C2506 1.392 . S
C2505 C2509 1.495 . S
C2506 C2505 1.392 . S
C2506 C2507 1.385 . S
C2506 C2508 1.478 . S
C2507 H2501 0.930 . S
C2507 C2503 1.400 . S
C2507 C2506 1.385 . S
C2508 C2506 1.478 . S
C2508 C2510 1.381 . S
C2508 C2514 1.383 . S
C2509 C2505 1.495 . S
C2509 H2515 0.959 . S
C2509 H2516 0.961 . S
C2509 H2517 0.960 . S
C2510 C2508 1.381 . S
C2510 C2511 1.394 . S
C2510 H2518 0.930 . S
C2511 C2510 1.394 . S
C2511 C2512 1.383 . S
C2511 H2519 0.929 . S
C2512 C2511 1.383 . S
C2512 C2513 1.377 . S
C2513 H2497 0.930 . S
C2513 C2512 1.377 . S
C2513 C2514 1.379 . S
C2514 H2498 0.931 . S
C2514 C2508 1.383 . S
C2514 C2513 1.379 . S
H2515 C2509 0.959 . S
H2516 C2509 0.961 . S
H2517 C2509 0.960 . S
H2518 C2510 0.930 . S
H2519 C2511 0.929 . S
H2520 C2528 0.929 . S
H2521 C2530 0.930 . S
H2522 C2532 0.930 . S
H2523 C2535 0.929 . S
H2524 C2538 0.930 . S
H2525 C2540 0.960 . S
H2526 C2540 0.960 . S
H2527 C2540 0.960 . S
C2528 H2520 0.929 . S
C2528 C2529 1.377 . S
C2528 C2530 1.384 . S
C2529 C2528 1.377 . S
C2529 C2535 1.390 . S
C2530 H2521 0.930 . S
C2530 C2528 1.384 . S
C2530 C2531 1.372 . S
C2531 C2530 1.372 . S
C2531 C2532 1.400 . S
C2531 C2536 1.490 . S
C2532 H2522 0.930 . S
C2532 C2531 1.400 . S
C2532 C2535 1.386 . S
H2533 C2549 0.930 . S
H2534 C2550 0.931 . S
C2535 H2523 0.929 . S
C2535 C2529 1.390 . S
C2535 C2532 1.386 . S
C2536 C2531 1.490 . S
C2536 C2538 1.395 . S
C2536 C2539 1.403 . S
H2537 C2543 0.930 . S
C2538 H2524 0.930 . S
C2538 C2536 1.395 . S
C2538 C2541 1.403 . S
C2539 C2536 1.403 . S
C2539 C2540 1.524 . S
C2539 C2543 1.400 . S
C2540 H2525 0.960 . S
C2540 H2526 0.960 . S
C2540 H2527 0.960 . S
C2540 C2539 1.524 . S
C2541 C2538 1.403 . S
C2541 C2542 1.392 . S
C2541 C2545 1.495 . S
C2542 C2541 1.392 . S
C2542 C2543 1.385 . S
C2542 C2544 1.478 . S
C2543 H2537 0.930 . S
C2543 C2539 1.400 . S
C2543 C2542 1.385 . S
C2544 C2542 1.478 . S
C2544 C2546 1.381 . S
C2544 C2550 1.383 . S
C2545 C2541 1.495 . S
C2545 H2551 0.959 . S
C2545 H2552 0.961 . S
C2545 H2553 0.960 . S
C2546 C2544 1.381 . S
C2546 C2547 1.394 . S
C2546 H2554 0.930 . S
C2547 C2546 1.394 . S
C2547 C2548 1.383 . S
C2547 H2555 0.929 . S
C2548 C2547 1.383 . S
C2548 C2549 1.377 . S
C2549 H2533 0.930 . S
C2549 C2548 1.377 . S
C2549 C2550 1.379 . S
C2550 H2534 0.931 . S
C2550 C2544 1.383 . S
C2550 C2549 1.379 . S
H2551 C2545 0.959 . S
H2552 C2545 0.961 . S
H2553 C2545 0.960 . S
H2554 C2546 0.930 . S
H2555 C2547 0.929 . S
H2556 C2564 0.929 . S
H2557 C2566 0.930 . S
H2558 C2568 0.930 . S
H2559 C2571 0.929 . S
H2560 C2574 0.930 . S
H2561 C2576 0.960 . S
H2562 C2576 0.960 . S
H2563 C2576 0.960 . S
C2564 H2556 0.929 . S
C2564 C2565 1.377 . S
C2564 C2566 1.384 . S
C2565 C2564 1.377 . S
C2565 C2571 1.390 . S
C2566 H2557 0.930 . S
C2566 C2564 1.384 . S
C2566 C2567 1.372 . S
C2567 C2566 1.372 . S
C2567 C2568 1.400 . S
C2567 C2572 1.490 . S
C2568 H2558 0.930 . S
C2568 C2567 1.400 . S
C2568 C2571 1.386 . S
H2569 C2585 0.930 . S
H2570 C2586 0.931 . S
C2571 H2559 0.929 . S
C2571 C2565 1.390 . S
C2571 C2568 1.386 . S
C2572 C2567 1.490 . S
C2572 C2574 1.395 . S
C2572 C2575 1.403 . S
H2573 C2579 0.930 . S
C2574 H2560 0.930 . S
C2574 C2572 1.395 . S
C2574 C2577 1.403 . S
C2575 C2572 1.403 . S
C2575 C2576 1.524 . S
C2575 C2579 1.400 . S
C2576 H2561 0.960 . S
C2576 H2562 0.960 . S
C2576 H2563 0.960 . S
C2576 C2575 1.524 . S
C2577 C2574 1.403 . S
C2577 C2578 1.392 . S
C2577 C2581 1.495 . S
C2578 C2577 1.392 . S
C2578 C2579 1.385 . S
C2578 C2580 1.478 . S
C2579 H2573 0.930 . S
C2579 C2575 1.400 . S
C2579 C2578 1.385 . S
C2580 C2578 1.478 . S
C2580 C2582 1.381 . S
C2580 C2586 1.383 . S
C2581 C2577 1.495 . S
C2581 H2587 0.959 . S
C2581 H2588 0.961 . S
C2581 H2589 0.960 . S
C2582 C2580 1.381 . S
C2582 C2583 1.394 . S
C2582 H2590 0.930 . S
C2583 C2582 1.394 . S
C2583 C2584 1.383 . S
C2583 H2591 0.929 . S
C2584 C2583 1.383 . S
C2584 C2585 1.377 . S
C2585 H2569 0.930 . S
C2585 C2584 1.377 . S
C2585 C2586 1.379 . S
C2586 H2570 0.931 . S
C2586 C2580 1.383 . S
C2586 C2585 1.379 . S
H2587 C2581 0.959 . S
H2588 C2581 0.961 . S
H2589 C2581 0.960 . S
H2590 C2582 0.930 . S
H2591 C2583 0.929 . S
H2592 C2600 0.929 . S
H2593 C2602 0.930 . S
H2594 C2604 0.930 . S
H2595 C2607 0.929 . S
H2596 C2610 0.930 . S
H2597 C2612 0.960 . S
H2598 C2612 0.960 . S
H2599 C2612 0.960 . S
C2600 H2592 0.929 . S
C2600 C2601 1.377 . S
C2600 C2602 1.384 . S
C2601 C2600 1.377 . S
C2601 C2607 1.390 . S
C2602 H2593 0.930 . S
C2602 C2600 1.384 . S
C2602 C2603 1.372 . S
C2603 C2602 1.372 . S
C2603 C2604 1.400 . S
C2603 C2608 1.490 . S
C2604 H2594 0.930 . S
C2604 C2603 1.400 . S
C2604 C2607 1.386 . S
H2605 C2621 0.930 . S
H2606 C2622 0.931 . S
C2607 H2595 0.929 . S
C2607 C2601 1.390 . S
C2607 C2604 1.386 . S
C2608 C2603 1.490 . S
C2608 C2610 1.395 . S
C2608 C2611 1.403 . S
H2609 C2615 0.930 . S
C2610 H2596 0.930 . S
C2610 C2608 1.395 . S
C2610 C2613 1.403 . S
C2611 C2608 1.403 . S
C2611 C2612 1.524 . S
C2611 C2615 1.400 . S
C2612 H2597 0.960 . S
C2612 H2598 0.960 . S
C2612 H2599 0.960 . S
C2612 C2611 1.524 . S
C2613 C2610 1.403 . S
C2613 C2614 1.392 . S
C2613 C2617 1.495 . S
C2614 C2613 1.392 . S
C2614 C2615 1.385 . S
C2614 C2616 1.478 . S
C2615 H2609 0.930 . S
C2615 C2611 1.400 . S
C2615 C2614 1.385 . S
C2616 C2614 1.478 . S
C2616 C2618 1.381 . S
C2616 C2622 1.383 . S
C2617 C2613 1.495 . S
C2617 H2623 0.959 . S
C2617 H2624 0.961 . S
C2617 H2625 0.960 . S
C2618 C2616 1.381 . S
C2618 C2619 1.394 . S
C2618 H2626 0.930 . S
C2619 C2618 1.394 . S
C2619 C2620 1.383 . S
C2619 H2627 0.929 . S
C2620 C2619 1.383 . S
C2620 C2621 1.377 . S
C2621 H2605 0.930 . S
C2621 C2620 1.377 . S
C2621 C2622 1.379 . S
C2622 H2606 0.931 . S
C2622 C2616 1.383 . S
C2622 C2621 1.379 . S
H2623 C2617 0.959 . S
H2624 C2617 0.961 . S
H2625 C2617 0.960 . S
H2626 C2618 0.930 . S
H2627 C2619 0.929 . S
H2628 C2636 0.929 . S
H2629 C2638 0.930 . S
H2630 C2640 0.930 . S
H2631 C2643 0.929 . S
H2632 C2646 0.930 . S
H2633 C2648 0.960 . S
H2634 C2648 0.960 . S
H2635 C2648 0.960 . S
C2636 H2628 0.929 . S
C2636 C2637 1.377 . S
C2636 C2638 1.384 . S
C2637 C2636 1.377 . S
C2637 C2643 1.390 . S
C2638 H2629 0.930 . S
C2638 C2636 1.384 . S
C2638 C2639 1.372 . S
C2639 C2638 1.372 . S
C2639 C2640 1.400 . S
C2639 C2644 1.490 . S
C2640 H2630 0.930 . S
C2640 C2639 1.400 . S
C2640 C2643 1.386 . S
H2641 C2657 0.930 . S
H2642 C2658 0.931 . S
C2643 H2631 0.929 . S
C2643 C2637 1.390 . S
C2643 C2640 1.386 . S
C2644 C2639 1.490 . S
C2644 C2646 1.395 . S
C2644 C2647 1.403 . S
H2645 C2651 0.930 . S
C2646 H2632 0.930 . S
C2646 C2644 1.395 . S
C2646 C2649 1.403 . S
C2647 C2644 1.403 . S
C2647 C2648 1.524 . S
C2647 C2651 1.400 . S
C2648 H2633 0.960 . S
C2648 H2634 0.960 . S
C2648 H2635 0.960 . S
C2648 C2647 1.524 . S
C2649 C2646 1.403 . S
C2649 C2650 1.392 . S
C2649 C2653 1.495 . S
C2650 C2649 1.392 . S
C2650 C2651 1.385 . S
C2650 C2652 1.478 . S
C2651 H2645 0.930 . S
C2651 C2647 1.400 . S
C2651 C2650 1.385 . S
C2652 C2650 1.478 . S
C2652 C2654 1.381 . S
C2652 C2658 1.383 . S
C2653 C2649 1.495 . S
C2653 H2659 0.959 . S
C2653 H2660 0.961 . S
C2653 H2661 0.960 . S
C2654 C2652 1.381 . S
C2654 C2655 1.394 . S
C2654 H2662 0.930 . S
C2655 C2654 1.394 . S
C2655 C2656 1.383 . S
C2655 H2663 0.929 . S
C2656 C2655 1.383 . S
C2656 C2657 1.377 . S
C2657 H2641 0.930 . S
C2657 C2656 1.377 . S
C2657 C2658 1.379 . S
C2658 H2642 0.931 . S
C2658 C2652 1.383 . S
C2658 C2657 1.379 . S
H2659 C2653 0.959 . S
H2660 C2653 0.961 . S
H2661 C2653 0.960 . S
H2662 C2654 0.930 . S
H2663 C2655 0.929 . S
H2664 C2672 0.929 . S
H2665 C2674 0.930 . S
H2666 C2676 0.930 . S
H2667 C2679 0.929 . S
H2668 C2682 0.930 . S
H2669 C2684 0.960 . S
H2670 C2684 0.960 . S
H2671 C2684 0.960 . S
C2672 H2664 0.929 . S
C2672 C2673 1.377 . S
C2672 C2674 1.384 . S
C2673 C2672 1.377 . S
C2673 C2679 1.390 . S
C2674 H2665 0.930 . S
C2674 C2672 1.384 . S
C2674 C2675 1.372 . S
C2675 C2674 1.372 . S
C2675 C2676 1.400 . S
C2675 C2680 1.490 . S
C2676 H2666 0.930 . S
C2676 C2675 1.400 . S
C2676 C2679 1.386 . S
H2677 C2693 0.930 . S
H2678 C2694 0.931 . S
C2679 H2667 0.929 . S
C2679 C2673 1.390 . S
C2679 C2676 1.386 . S
C2680 C2675 1.490 . S
C2680 C2682 1.395 . S
C2680 C2683 1.403 . S
H2681 C2687 0.930 . S
C2682 H2668 0.930 . S
C2682 C2680 1.395 . S
C2682 C2685 1.403 . S
C2683 C2680 1.403 . S
C2683 C2684 1.524 . S
C2683 C2687 1.400 . S
C2684 H2669 0.960 . S
C2684 H2670 0.960 . S
C2684 H2671 0.960 . S
C2684 C2683 1.524 . S
C2685 C2682 1.403 . S
C2685 C2686 1.392 . S
C2685 C2689 1.495 . S
C2686 C2685 1.392 . S
C2686 C2687 1.385 . S
C2686 C2688 1.478 . S
C2687 H2681 0.930 . S
C2687 C2683 1.400 . S
C2687 C2686 1.385 . S
C2688 C2686 1.478 . S
C2688 C2690 1.381 . S
C2688 C2694 1.383 . S
C2689 C2685 1.495 . S
C2689 H2695 0.959 . S
C2689 H2696 0.961 . S
C2689 H2697 0.960 . S
C2690 C2688 1.381 . S
C2690 C2691 1.394 . S
C2690 H2698 0.930 . S
C2691 C2690 1.394 . S
C2691 C2692 1.383 . S
C2691 H2699 0.929 . S
C2692 C2691 1.383 . S
C2692 C2693 1.377 . S
C2693 H2677 0.930 . S
C2693 C2692 1.377 . S
C2693 C2694 1.379 . S
C2694 H2678 0.931 . S
C2694 C2688 1.383 . S
C2694 C2693 1.379 . S
H2695 C2689 0.959 . S
H2696 C2689 0.961 . S
H2697 C2689 0.960 . S
H2698 C2690 0.930 . S
H2699 C2691 0.929 . S
H2700 C2708 0.929 . S
H2701 C2710 0.930 . S
H2702 C2712 0.930 . S
H2703 C2715 0.929 . S
H2704 C2718 0.930 . S
H2705 C2720 0.960 . S
H2706 C2720 0.960 . S
H2707 C2720 0.960 . S
C2708 H2700 0.929 . S
C2708 C2709 1.377 . S
C2708 C2710 1.384 . S
C2709 C2708 1.377 . S
C2709 C2715 1.390 . S
C2710 H2701 0.930 . S
C2710 C2708 1.384 . S
C2710 C2711 1.372 . S
C2711 C2710 1.372 . S
C2711 C2712 1.400 . S
C2711 C2716 1.490 . S
C2712 H2702 0.930 . S
C2712 C2711 1.400 . S
C2712 C2715 1.386 . S
H2713 C2729 0.930 . S
H2714 C2730 0.931 . S
C2715 H2703 0.929 . S
C2715 C2709 1.390 . S
C2715 C2712 1.386 . S
C2716 C2711 1.490 . S
C2716 C2718 1.395 . S
C2716 C2719 1.403 . S
H2717 C2723 0.930 . S
C2718 H2704 0.930 . S
C2718 C2716 1.395 . S
C2718 C2721 1.403 . S
C2719 C2716 1.403 . S
C2719 C2720 1.524 . S
C2719 C2723 1.400 . S
C2720 H2705 0.960 . S
C2720 H2706 0.960 . S
C2720 H2707 0.960 . S
C2720 C2719 1.524 . S
C2721 C2718 1.403 . S
C2721 C2722 1.392 . S
C2721 C2725 1.495 . S
C2722 C2721 1.392 . S
C2722 C2723 1.385 . S
C2722 C2724 1.478 . S
C2723 H2717 0.930 . S
C2723 C2719 1.400 . S
C2723 C2722 1.385 . S
C2724 C2722 1.478 . S
C2724 C2726 1.381 . S
C2724 C2730 1.383 . S
C2725 C2721 1.495 . S
C2725 H2731 0.959 . S
C2725 H2732 0.961 . S
C2725 H2733 0.960 . S
C2726 C2724 1.381 . S
C2726 C2727 1.394 . S
C2726 H2734 0.930 . S
C2727 C2726 1.394 . S
C2727 C2728 1.383 . S
C2727 H2735 0.929 . S
C2728 C2727 1.383 . S
C2728 C2729 1.377 . S
C2729 H2713 0.930 . S
C2729 C2728 1.377 . S
C2729 C2730 1.379 . S
C2730 H2714 0.931 . S
C2730 C2724 1.383 . S
C2730 C2729 1.379 . S
H2731 C2725 0.959 . S
H2732 C2725 0.961 . S
H2733 C2725 0.960 . S
H2734 C2726 0.930 . S
H2735 C2727 0.929 . S
H2736 C2744 0.929 . S
H2737 C2746 0.930 . S
H2738 C2748 0.930 . S
H2739 C2751 0.929 . S
H2740 C2754 0.930 . S
H2741 C2756 0.960 . S
H2742 C2756 0.960 . S
H2743 C2756 0.960 . S
C2744 H2736 0.929 . S
C2744 C2745 1.377 . S
C2744 C2746 1.384 . S
C2745 C2744 1.377 . S
C2745 C2751 1.390 . S
C2746 H2737 0.930 . S
C2746 C2744 1.384 . S
C2746 C2747 1.372 . S
C2747 C2746 1.372 . S
C2747 C2748 1.400 . S
C2747 C2752 1.490 . S
C2748 H2738 0.930 . S
C2748 C2747 1.400 . S
C2748 C2751 1.386 . S
H2749 C2765 0.930 . S
H2750 C2766 0.931 . S
C2751 H2739 0.929 . S
C2751 C2745 1.390 . S
C2751 C2748 1.386 . S
C2752 C2747 1.490 . S
C2752 C2754 1.395 . S
C2752 C2755 1.403 . S
H2753 C2759 0.930 . S
C2754 H2740 0.930 . S
C2754 C2752 1.395 . S
C2754 C2757 1.403 . S
C2755 C2752 1.403 . S
C2755 C2756 1.524 . S
C2755 C2759 1.400 . S
C2756 H2741 0.960 . S
C2756 H2742 0.960 . S
C2756 H2743 0.960 . S
C2756 C2755 1.524 . S
C2757 C2754 1.403 . S
C2757 C2758 1.392 . S
C2757 C2761 1.495 . S
C2758 C2757 1.392 . S
C2758 C2759 1.385 . S
C2758 C2760 1.478 . S
C2759 H2753 0.930 . S
C2759 C2755 1.400 . S
C2759 C2758 1.385 . S
C2760 C2758 1.478 . S
C2760 C2762 1.381 . S
C2760 C2766 1.383 . S
C2761 C2757 1.495 . S
C2761 H2767 0.959 . S
C2761 H2768 0.961 . S
C2761 H2769 0.960 . S
C2762 C2760 1.381 . S
C2762 C2763 1.394 . S
C2762 H2770 0.930 . S
C2763 C2762 1.394 . S
C2763 C2764 1.383 . S
C2763 H2771 0.929 . S
C2764 C2763 1.383 . S
C2764 C2765 1.377 . S
C2765 H2749 0.930 . S
C2765 C2764 1.377 . S
C2765 C2766 1.379 . S
C2766 H2750 0.931 . S
C2766 C2760 1.383 . S
C2766 C2765 1.379 . S
H2767 C2761 0.959 . S
H2768 C2761 0.961 . S
H2769 C2761 0.960 . S
H2770 C2762 0.930 . S
H2771 C2763 0.929 . S
H2772 C2780 0.929 . S
H2773 C2782 0.930 . S
H2774 C2784 0.930 1_554 S
H2775 C2787 0.929 . S
H2776 C2790 0.930 . S
H2777 C2792 0.960 . S
H2778 C2792 0.960 . S
H2779 C2792 0.960 . S
C2780 H2772 0.929 . S
C2780 C2781 1.377 . S
C2780 C2782 1.384 . S
C2781 C2780 1.377 . S
C2781 C2787 1.390 1_556 S
C2782 H2773 0.930 . S
C2782 C2780 1.384 . S
C2782 C2783 1.372 . S
C2783 C2782 1.372 . S
C2783 C2784 1.400 . S
C2783 C2788 1.490 . S
C2784 H2774 0.930 1_556 S
C2784 C2783 1.400 . S
C2784 C2787 1.386 1_556 S
H2785 C2801 0.930 . S
H2786 C2802 0.931 . S
C2787 H2775 0.929 . S
C2787 C2781 1.390 1_554 S
C2787 C2784 1.386 1_554 S
C2788 C2783 1.490 . S
C2788 C2790 1.395 . S
C2788 C2791 1.403 . S
H2789 C2795 0.930 . S
C2790 H2776 0.930 . S
C2790 C2788 1.395 . S
C2790 C2793 1.403 . S
C2791 C2788 1.403 . S
C2791 C2792 1.524 . S
C2791 C2795 1.400 . S
C2792 H2777 0.960 . S
C2792 H2778 0.960 . S
C2792 H2779 0.960 . S
C2792 C2791 1.524 . S
C2793 C2790 1.403 . S
C2793 C2794 1.392 . S
C2793 C2797 1.495 . S
C2794 C2793 1.392 . S
C2794 C2795 1.385 . S
C2794 C2796 1.478 . S
C2795 H2789 0.930 . S
C2795 C2791 1.400 . S
C2795 C2794 1.385 . S
C2796 C2794 1.478 . S
C2796 C2798 1.381 . S
C2796 C2802 1.383 . S
C2797 C2793 1.495 . S
C2797 H2803 0.959 . S
C2797 H2804 0.961 . S
C2797 H2805 0.960 . S
C2798 C2796 1.381 . S
C2798 C2799 1.394 . S
C2798 H2806 0.930 . S
C2799 C2798 1.394 . S
C2799 C2800 1.383 . S
C2799 H2807 0.929 . S
C2800 C2799 1.383 . S
C2800 C2801 1.377 . S
C2801 H2785 0.930 . S
C2801 C2800 1.377 . S
C2801 C2802 1.379 . S
C2802 H2786 0.931 . S
C2802 C2796 1.383 . S
C2802 C2801 1.379 . S
H2803 C2797 0.959 . S
H2804 C2797 0.961 . S
H2805 C2797 0.960 . S
H2806 C2798 0.930 . S
H2807 C2799 0.929 . S
H2808 C2816 0.929 . S
H2809 C2818 0.930 . S
H2810 C2820 0.930 1_554 S
H2811 C2823 0.929 . S
H2812 C2826 0.930 . S
H2813 C2828 0.960 1_554 S
H2814 C2828 0.960 . S
H2815 C2828 0.960 1_554 S
C2816 H2808 0.929 . S
C2816 C2817 1.377 . S
C2816 C2818 1.384 . S
C2817 C2816 1.377 . S
C2817 C2823 1.390 1_556 S
C2818 H2809 0.930 . S
C2818 C2816 1.384 . S
C2818 C2819 1.372 . S
C2819 C2818 1.372 . S
C2819 C2820 1.400 . S
C2819 C2824 1.490 . S
C2820 H2810 0.930 1_556 S
C2820 C2819 1.400 . S
C2820 C2823 1.386 1_556 S
H2821 C2837 0.930 . S
H2822 C2838 0.931 . S
C2823 H2811 0.929 . S
C2823 C2817 1.390 1_554 S
C2823 C2820 1.386 1_554 S
C2824 C2819 1.490 . S
C2824 C2826 1.395 . S
C2824 C2827 1.403 . S
H2825 C2831 0.930 . S
C2826 H2812 0.930 . S
C2826 C2824 1.395 . S
C2826 C2829 1.403 . S
C2827 C2824 1.403 . S
C2827 C2828 1.524 . S
C2827 C2831 1.400 . S
C2828 H2813 0.960 1_556 S
C2828 H2814 0.960 . S
C2828 H2815 0.960 1_556 S
C2828 C2827 1.524 . S
C2829 C2826 1.403 . S
C2829 C2830 1.392 . S
C2829 C2833 1.495 . S
C2830 C2829 1.392 . S
C2830 C2831 1.385 . S
C2830 C2832 1.478 . S
C2831 H2825 0.930 . S
C2831 C2827 1.400 . S
C2831 C2830 1.385 . S
C2832 C2830 1.478 . S
C2832 C2834 1.381 . S
C2832 C2838 1.383 . S
C2833 C2829 1.495 . S
C2833 H2839 0.959 . S
C2833 H2840 0.961 . S
C2833 H2841 0.960 . S
C2834 C2832 1.381 . S
C2834 C2835 1.394 . S
C2834 H2842 0.930 . S
C2835 C2834 1.394 . S
C2835 C2836 1.383 . S
C2835 H2843 0.929 . S
C2836 C2835 1.383 . S
C2836 C2837 1.377 . S
C2837 H2821 0.930 . S
C2837 C2836 1.377 . S
C2837 C2838 1.379 . S
C2838 H2822 0.931 . S
C2838 C2832 1.383 . S
C2838 C2837 1.379 . S
H2839 C2833 0.959 . S
H2840 C2833 0.961 . S
H2841 C2833 0.960 . S
H2842 C2834 0.930 . S
H2843 C2835 0.929 . S
H2844 C2852 0.929 . S
H2845 C2854 0.886 1_554 S
H2846 C2856 0.930 . S
H2847 C2859 0.929 . S
H2848 C2862 0.930 . S
H2849 C2864 0.960 . S
H2850 C2864 0.960 . S
H2851 C2864 0.960 . S
C2852 H2844 0.929 . S
C2852 C2853 1.377 1_554 S
C2852 C2854 1.362 1_554 S
C2853 C2852 1.377 1_556 S
C2853 C2859 1.390 . S
C2854 H2845 0.886 1_556 S
C2854 C2852 1.362 1_556 S
C2854 C2855 1.440 . S
C2855 C2854 1.440 . S
C2855 C2856 1.400 . S
C2855 C2860 1.490 . S
C2856 H2846 0.930 . S
C2856 C2855 1.400 . S
C2856 C2859 1.386 . S
H2857 C2873 0.930 . S
H2858 C2874 0.931 . S
C2859 H2847 0.929 . S
C2859 C2853 1.390 . S
C2859 C2856 1.386 . S
C2860 C2855 1.490 . S
C2860 C2862 1.395 . S
C2860 C2863 1.403 . S
H2861 C2867 0.930 . S
C2862 H2848 0.930 . S
C2862 C2860 1.395 . S
C2862 C2865 1.403 . S
C2863 C2860 1.403 . S
C2863 C2864 1.524 . S
C2863 C2867 1.400 . S
C2864 H2849 0.960 . S
C2864 H2850 0.960 . S
C2864 H2851 0.960 . S
C2864 C2863 1.524 . S
C2865 C2862 1.403 . S
C2865 C2866 1.392 . S
C2865 C2869 1.495 . S
C2866 C2865 1.392 . S
C2866 C2867 1.385 . S
C2866 C2868 1.478 . S
C2867 H2861 0.930 . S
C2867 C2863 1.400 . S
C2867 C2866 1.385 . S
C2868 C2866 1.478 . S
C2868 C2870 1.381 . S
C2868 C2874 1.383 . S
C2869 C2865 1.495 . S
C2869 H2875 0.959 . S
C2869 H2876 0.961 . S
C2869 H2877 0.960 . S
C2870 C2868 1.381 . S
C2870 C2871 1.394 . S
C2870 H2878 0.930 . S
C2871 C2870 1.394 . S
C2871 C2872 1.383 . S
C2871 H2879 0.929 . S
C2872 C2871 1.383 . S
C2872 C2873 1.377 . S
C2873 H2857 0.930 . S
C2873 C2872 1.377 . S
C2873 C2874 1.379 . S
C2874 H2858 0.931 . S
C2874 C2868 1.383 . S
C2874 C2873 1.379 . S
H2875 C2869 0.959 . S
H2876 C2869 0.961 . S
H2877 C2869 0.960 . S
H2878 C2870 0.930 . S
H2879 C2871 0.929 . S
H2880 C2888 0.929 . S
H2881 C2890 0.930 . S
H2882 C2892 0.930 . S
H2883 C2895 0.929 . S
H2884 C2898 0.930 . S
H2885 C2900 0.960 . S
H2886 C2900 0.960 . S
H2887 C2900 0.957 . S
C2888 H2880 0.929 . S
C2888 C2889 1.377 . S
C2888 C2890 1.384 . S
C2889 C2888 1.377 . S
C2889 C2895 1.390 . S
C2890 H2881 0.930 . S
C2890 C2888 1.384 . S
C2890 C2891 1.372 . S
C2891 C2890 1.372 . S
C2891 C2892 1.400 . S
C2891 C2896 1.490 . S
C2892 H2882 0.930 . S
C2892 C2891 1.400 . S
C2892 C2895 1.386 . S
H2893 C2909 0.930 . S
H2894 C2910 0.931 . S
C2895 H2883 0.929 . S
C2895 C2889 1.390 . S
C2895 C2892 1.386 . S
C2896 C2891 1.490 . S
C2896 C2898 1.395 . S
C2896 C2899 1.403 . S
H2897 C2903 0.930 . S
C2898 H2884 0.930 . S
C2898 C2896 1.395 . S
C2898 C2901 1.403 . S
C2899 C2896 1.403 . S
C2899 C2900 1.524 1_556 S
C2899 C2903 1.400 . S
C2900 H2885 0.960 . S
C2900 H2886 0.960 . S
C2900 H2887 0.957 . S
C2900 C2899 1.524 1_554 S
C2901 C2898 1.403 . S
C2901 C2902 1.392 . S
C2901 C2905 1.495 . S
C2902 C2901 1.392 . S
C2902 C2903 1.385 . S
C2902 C2904 1.478 . S
C2903 H2897 0.930 . S
C2903 C2899 1.400 . S
C2903 C2902 1.385 . S
C2904 C2902 1.478 . S
C2904 C2906 1.381 . S
C2904 C2910 1.383 . S
C2905 C2901 1.495 . S
C2905 H2911 0.959 . S
C2905 H2912 0.961 . S
C2905 H2913 0.960 . S
C2906 C2904 1.381 . S
C2906 C2907 1.394 . S
C2906 H2914 0.930 . S
C2907 C2906 1.394 . S
C2907 C2908 1.383 . S
C2907 H2915 0.929 . S
C2908 C2907 1.383 . S
C2908 C2909 1.377 . S
C2909 H2893 0.930 . S
C2909 C2908 1.377 . S
C2909 C2910 1.379 . S
C2910 H2894 0.931 . S
C2910 C2904 1.383 . S
C2910 C2909 1.379 . S
H2911 C2905 0.959 . S
H2912 C2905 0.961 . S
H2913 C2905 0.960 . S
H2914 C2906 0.930 . S
H2915 C2907 0.929 . S
H2916 C2924 0.929 . S
H2917 C2926 0.930 . S
H2918 C2928 0.930 . S
H2919 C2931 0.914 1_554 S
H2920 C2934 0.930 . S
H2921 C2936 0.960 . S
H2922 C2936 0.960 . S
H2923 C2936 0.960 . S
C2924 H2916 0.929 . S
C2924 C2925 1.377 . S
C2924 C2926 1.384 . S
C2925 C2924 1.377 . S
C2925 C2931 1.390 . S
C2926 H2917 0.930 . S
C2926 C2924 1.384 . S
C2926 C2927 1.372 . S
C2927 C2926 1.372 . S
C2927 C2928 1.400 . S
C2927 C2932 1.490 . S
C2928 H2918 0.930 . S
C2928 C2927 1.400 . S
C2928 C2931 1.386 . S
H2929 C2945 0.930 . S
H2930 C2946 0.931 . S
C2931 H2919 0.914 1_556 S
C2931 C2925 1.390 . S
C2931 C2928 1.386 . S
C2932 C2927 1.490 . S
C2932 C2934 1.395 . S
C2932 C2935 1.403 . S
H2933 C2939 0.930 . S
C2934 H2920 0.930 . S
C2934 C2932 1.395 . S
C2934 C2937 1.403 . S
C2935 C2932 1.403 . S
C2935 C2936 1.524 1_556 S
C2935 C2939 1.400 . S
C2936 H2921 0.960 . S
C2936 H2922 0.960 . S
C2936 H2923 0.960 . S
C2936 C2935 1.524 1_554 S
C2937 C2934 1.403 . S
C2937 C2938 1.392 . S
C2937 C2941 1.495 . S
C2938 C2937 1.392 . S
C2938 C2939 1.385 . S
C2938 C2940 1.478 . S
C2939 H2933 0.930 . S
C2939 C2935 1.400 . S
C2939 C2938 1.385 . S
C2940 C2938 1.478 . S
C2940 C2942 1.381 . S
C2940 C2946 1.383 . S
C2941 C2937 1.495 . S
C2941 H2947 0.959 . S
C2941 H2948 0.961 . S
C2941 H2949 0.960 . S
C2942 C2940 1.381 . S
C2942 C2943 1.394 . S
C2942 H2950 0.930 . S
C2943 C2942 1.394 . S
C2943 C2944 1.383 . S
C2943 H2951 0.929 . S
C2944 C2943 1.383 . S
C2944 C2945 1.377 . S
C2945 H2929 0.930 . S
C2945 C2944 1.377 . S
C2945 C2946 1.379 . S
C2946 H2930 0.931 . S
C2946 C2940 1.383 . S
C2946 C2945 1.379 . S
H2947 C2941 0.959 . S
H2948 C2941 0.961 . S
H2949 C2941 0.960 . S
H2950 C2942 0.930 . S
H2951 C2943 0.929 . S
H2952 C2960 0.929 . S
H2953 C2962 0.930 . S
H2954 C2964 0.930 1_554 S
H2955 C2967 0.929 . S
H2956 C2970 0.930 . S
H2957 C2972 0.960 . S
H2958 C2972 0.960 . S
H2959 C2972 0.960 . S
C2960 H2952 0.929 . S
C2960 C2961 1.377 . S
C2960 C2962 1.384 . S
C2961 C2960 1.377 . S
C2961 C2967 1.390 1_556 S
C2962 H2953 0.930 . S
C2962 C2960 1.384 . S
C2962 C2963 1.372 . S
C2963 C2962 1.372 . S
C2963 C2964 1.400 . S
C2963 C2968 1.490 . S
C2964 H2954 0.930 1_556 S
C2964 C2963 1.400 . S
C2964 C2967 1.386 1_556 S
H2965 C2981 0.930 . S
H2966 C2982 0.931 . S
C2967 H2955 0.929 . S
C2967 C2961 1.390 1_554 S
C2967 C2964 1.386 1_554 S
C2968 C2963 1.490 . S
C2968 C2970 1.395 . S
C2968 C2971 1.403 . S
H2969 C2975 0.930 . S
C2970 H2956 0.930 . S
C2970 C2968 1.395 . S
C2970 C2973 1.403 . S
C2971 C2968 1.403 . S
C2971 C2972 1.524 . S
C2971 C2975 1.400 . S
C2972 H2957 0.960 . S
C2972 H2958 0.960 . S
C2972 H2959 0.960 . S
C2972 C2971 1.524 . S
C2973 C2970 1.403 . S
C2973 C2974 1.392 . S
C2973 C2977 1.495 . S
C2974 C2973 1.392 . S
C2974 C2975 1.385 . S
C2974 C2976 1.478 . S
C2975 H2969 0.930 . S
C2975 C2971 1.400 . S
C2975 C2974 1.385 . S
C2976 C2974 1.478 . S
C2976 C2978 1.381 . S
C2976 C2982 1.383 . S
C2977 C2973 1.495 . S
C2977 H2983 0.959 . S
C2977 H2984 0.961 . S
C2977 H2985 0.960 . S
C2978 C2976 1.381 . S
C2978 C2979 1.394 . S
C2978 H2986 0.930 . S
C2979 C2978 1.394 . S
C2979 C2980 1.383 . S
C2979 H2987 0.929 . S
C2980 C2979 1.383 . S
C2980 C2981 1.377 . S
C2981 H2965 0.930 . S
C2981 C2980 1.377 . S
C2981 C2982 1.379 . S
C2982 H2966 0.931 . S
C2982 C2976 1.383 . S
C2982 C2981 1.379 . S
H2983 C2977 0.959 . S
H2984 C2977 0.961 . S
H2985 C2977 0.960 . S
H2986 C2978 0.930 . S
H2987 C2979 0.929 . S
H2988 C2996 0.929 . S
H2989 C2998 0.930 . S
H2990 C3000 0.930 . S
H2991 C3003 0.929 . S
H2992 C3006 0.930 . S
H2993 C3008 0.960 . S
H2994 C3008 0.960 . S
H2995 C3008 0.960 . S
C2996 H2988 0.929 . S
C2996 C2997 1.377 . S
C2996 C2998 1.384 . S
C2997 C2996 1.377 . S
C2997 C3003 1.390 . S
C2998 H2989 0.930 . S
C2998 C2996 1.384 . S
C2998 C2999 1.372 . S
C2999 C2998 1.372 . S
C2999 C3000 1.400 . S
C2999 C3004 1.490 . S
C3000 H2990 0.930 . S
C3000 C2999 1.400 . S
C3000 C3003 1.386 . S
H3001 C3017 0.930 . S
H3002 C3018 0.931 . S
C3003 H2991 0.929 . S
C3003 C2997 1.390 . S
C3003 C3000 1.386 . S
C3004 C2999 1.490 . S
C3004 C3006 1.395 . S
C3004 C3007 1.403 . S
H3005 C3011 0.930 . S
C3006 H2992 0.930 . S
C3006 C3004 1.395 . S
C3006 C3009 1.403 . S
C3007 C3004 1.403 . S
C3007 C3008 1.524 . S
C3007 C3011 1.400 . S
C3008 H2993 0.960 . S
C3008 H2994 0.960 . S
C3008 H2995 0.960 . S
C3008 C3007 1.524 . S
C3009 C3006 1.403 . S
C3009 C3010 1.392 . S
C3009 C3013 1.495 . S
C3010 C3009 1.392 . S
C3010 C3011 1.385 . S
C3010 C3012 1.478 . S
C3011 H3005 0.930 . S
C3011 C3007 1.400 . S
C3011 C3010 1.385 . S
C3012 C3010 1.478 . S
C3012 C3014 1.381 . S
C3012 C3018 1.383 . S
C3013 C3009 1.495 . S
C3013 H3019 0.959 . S
C3013 H3020 0.961 . S
C3013 H3021 0.960 . S
C3014 C3012 1.381 . S
C3014 C3015 1.394 . S
C3014 H3022 0.930 . S
C3015 C3014 1.394 . S
C3015 C3016 1.383 . S
C3015 H3023 0.929 . S
C3016 C3015 1.383 . S
C3016 C3017 1.377 . S
C3017 H3001 0.930 . S
C3017 C3016 1.377 . S
C3017 C3018 1.379 . S
C3018 H3002 0.931 . S
C3018 C3012 1.383 . S
C3018 C3017 1.379 . S
H3019 C3013 0.959 . S
H3020 C3013 0.961 . S
H3021 C3013 0.960 . S
H3022 C3014 0.930 . S
H3023 C3015 0.929 . S
H3024 C3032 0.929 . S
H3025 C3034 0.930 . S
H3026 C3036 0.930 . S
H3027 C3039 0.929 . S
H3028 C3042 0.930 . S
H3029 C3044 0.960 . S
H3030 C3044 0.960 . S
H3031 C3044 0.960 . S
C3032 H3024 0.929 . S
C3032 C3033 1.377 . S
C3032 C3034 1.384 . S
C3033 C3032 1.377 . S
C3033 C3039 1.390 . S
C3034 H3025 0.930 . S
C3034 C3032 1.384 . S
C3034 C3035 1.372 . S
C3035 C3034 1.372 . S
C3035 C3036 1.400 . S
C3035 C3040 1.490 . S
C3036 H3026 0.930 . S
C3036 C3035 1.400 . S
C3036 C3039 1.386 . S
H3037 C3053 0.930 . S
H3038 C3054 0.931 . S
C3039 H3027 0.929 . S
C3039 C3033 1.390 . S
C3039 C3036 1.386 . S
C3040 C3035 1.490 . S
C3040 C3042 1.395 . S
C3040 C3043 1.403 . S
H3041 C3047 0.930 . S
C3042 H3028 0.930 . S
C3042 C3040 1.395 . S
C3042 C3045 1.403 . S
C3043 C3040 1.403 . S
C3043 C3044 1.524 . S
C3043 C3047 1.400 . S
C3044 H3029 0.960 . S
C3044 H3030 0.960 . S
C3044 H3031 0.960 . S
C3044 C3043 1.524 . S
C3045 C3042 1.403 . S
C3045 C3046 1.392 . S
C3045 C3049 1.495 . S
C3046 C3045 1.392 . S
C3046 C3047 1.385 . S
C3046 C3048 1.478 . S
C3047 H3041 0.930 . S
C3047 C3043 1.400 . S
C3047 C3046 1.385 . S
C3048 C3046 1.478 . S
C3048 C3050 1.381 . S
C3048 C3054 1.383 . S
C3049 C3045 1.495 . S
C3049 H3055 0.959 . S
C3049 H3056 0.961 . S
C3049 H3057 0.960 . S
C3050 C3048 1.381 . S
C3050 C3051 1.394 . S
C3050 H3058 0.930 . S
C3051 C3050 1.394 . S
C3051 C3052 1.383 . S
C3051 H3059 0.929 . S
C3052 C3051 1.383 . S
C3052 C3053 1.377 . S
C3053 H3037 0.930 . S
C3053 C3052 1.377 . S
C3053 C3054 1.379 . S
C3054 H3038 0.931 . S
C3054 C3048 1.383 . S
C3054 C3053 1.379 . S
H3055 C3049 0.959 . S
H3056 C3049 0.961 . S
H3057 C3049 0.960 . S
H3058 C3050 0.930 . S
H3059 C3051 0.929 . S
H3060 C3068 0.929 . S
H3061 C3070 0.930 . S
H3062 C3072 0.930 . S
H3063 C3075 0.929 . S
H3064 C3078 0.930 . S
H3065 C3080 0.960 . S
H3066 C3080 0.960 . S
H3067 C3080 0.960 . S
C3068 H3060 0.929 . S
C3068 C3069 1.377 . S
C3068 C3070 1.384 . S
C3069 C3068 1.377 . S
C3069 C3075 1.390 . S
C3070 H3061 0.930 . S
C3070 C3068 1.384 . S
C3070 C3071 1.372 . S
C3071 C3070 1.372 . S
C3071 C3072 1.400 . S
C3071 C3076 1.490 . S
C3072 H3062 0.930 . S
C3072 C3071 1.400 . S
C3072 C3075 1.386 . S
H3073 C3089 0.930 . S
H3074 C3090 0.931 . S
C3075 H3063 0.929 . S
C3075 C3069 1.390 . S
C3075 C3072 1.386 . S
C3076 C3071 1.490 . S
C3076 C3078 1.395 . S
C3076 C3079 1.403 . S
H3077 C3083 0.930 . S
C3078 H3064 0.930 . S
C3078 C3076 1.395 . S
C3078 C3081 1.403 . S
C3079 C3076 1.403 . S
C3079 C3080 1.524 . S
C3079 C3083 1.400 . S
C3080 H3065 0.960 . S
C3080 H3066 0.960 . S
C3080 H3067 0.960 . S
C3080 C3079 1.524 . S
C3081 C3078 1.403 . S
C3081 C3082 1.392 . S
C3081 C3085 1.495 . S
C3082 C3081 1.392 . S
C3082 C3083 1.385 . S
C3082 C3084 1.478 . S
C3083 H3077 0.930 . S
C3083 C3079 1.400 . S
C3083 C3082 1.385 . S
C3084 C3082 1.478 . S
C3084 C3086 1.381 . S
C3084 C3090 1.383 . S
C3085 C3081 1.495 . S
C3085 H3091 0.959 . S
C3085 H3092 0.961 . S
C3085 H3093 0.960 . S
C3086 C3084 1.381 . S
C3086 C3087 1.394 . S
C3086 H3094 0.930 . S
C3087 C3086 1.394 . S
C3087 C3088 1.383 . S
C3087 H3095 0.929 . S
C3088 C3087 1.383 . S
C3088 C3089 1.377 . S
C3089 H3073 0.930 . S
C3089 C3088 1.377 . S
C3089 C3090 1.379 . S
C3090 H3074 0.931 . S
C3090 C3084 1.383 . S
C3090 C3089 1.379 . S
H3091 C3085 0.959 . S
H3092 C3085 0.961 . S
H3093 C3085 0.960 . S
H3094 C3086 0.930 . S
H3095 C3087 0.929 . S
H3096 C3104 0.929 . S
H3097 C3106 0.930 . S
H3098 C3108 0.930 . S
H3099 C3111 0.929 . S
H3100 C3114 0.930 . S
H3101 C3116 0.960 . S
H3102 C3116 0.960 . S
H3103 C3116 0.960 . S
C3104 H3096 0.929 . S
C3104 C3105 1.377 . S
C3104 C3106 1.384 . S
C3105 C3104 1.377 . S
C3105 C3111 1.390 . S
C3106 H3097 0.930 . S
C3106 C3104 1.384 . S
C3106 C3107 1.372 . S
C3107 C3106 1.372 . S
C3107 C3108 1.400 . S
C3107 C3112 1.490 . S
C3108 H3098 0.930 . S
C3108 C3107 1.400 . S
C3108 C3111 1.386 . S
H3109 C3125 0.930 . S
H3110 C3126 0.931 . S
C3111 H3099 0.929 . S
C3111 C3105 1.390 . S
C3111 C3108 1.386 . S
C3112 C3107 1.490 . S
C3112 C3114 1.395 . S
C3112 C3115 1.403 . S
H3113 C3119 0.930 . S
C3114 H3100 0.930 . S
C3114 C3112 1.395 . S
C3114 C3117 1.403 . S
C3115 C3112 1.403 . S
C3115 C3116 1.524 . S
C3115 C3119 1.400 . S
C3116 H3101 0.960 . S
C3116 H3102 0.960 . S
C3116 H3103 0.960 . S
C3116 C3115 1.524 . S
C3117 C3114 1.403 . S
C3117 C3118 1.392 . S
C3117 C3121 1.495 . S
C3118 C3117 1.392 . S
C3118 C3119 1.385 . S
C3118 C3120 1.478 . S
C3119 H3113 0.930 . S
C3119 C3115 1.400 . S
C3119 C3118 1.385 . S
C3120 C3118 1.478 . S
C3120 C3122 1.381 . S
C3120 C3126 1.383 . S
C3121 C3117 1.495 . S
C3121 H3127 0.959 . S
C3121 H3128 0.961 . S
C3121 H3129 0.960 . S
C3122 C3120 1.381 . S
C3122 C3123 1.394 . S
C3122 H3130 0.930 . S
C3123 C3122 1.394 . S
C3123 C3124 1.383 . S
C3123 H3131 0.929 . S
C3124 C3123 1.383 . S
C3124 C3125 1.377 . S
C3125 H3109 0.930 . S
C3125 C3124 1.377 . S
C3125 C3126 1.379 . S
C3126 H3110 0.931 . S
C3126 C3120 1.383 . S
C3126 C3125 1.379 . S
H3127 C3121 0.959 . S
H3128 C3121 0.961 . S
H3129 C3121 0.960 . S
H3130 C3122 0.930 . S
H3131 C3123 0.929 . S
H3132 C3140 0.929 . S
H3133 C3142 0.930 . S
H3134 C3144 0.930 . S
H3135 C3147 0.929 . S
H3136 C3150 0.930 . S
H3137 C3152 0.960 . S
H3138 C3152 0.960 . S
H3139 C3152 0.960 . S
C3140 H3132 0.929 . S
C3140 C3141 1.377 . S
C3140 C3142 1.384 . S
C3141 C3140 1.377 . S
C3141 C3147 1.390 . S
C3142 H3133 0.930 . S
C3142 C3140 1.384 . S
C3142 C3143 1.372 . S
C3143 C3142 1.372 . S
C3143 C3144 1.400 . S
C3143 C3148 1.490 . S
C3144 H3134 0.930 . S
C3144 C3143 1.400 . S
C3144 C3147 1.386 . S
H3145 C3161 0.930 . S
H3146 C3162 0.931 . S
C3147 H3135 0.929 . S
C3147 C3141 1.390 . S
C3147 C3144 1.386 . S
C3148 C3143 1.490 . S
C3148 C3150 1.395 . S
C3148 C3151 1.403 . S
H3149 C3155 0.930 . S
C3150 H3136 0.930 . S
C3150 C3148 1.395 . S
C3150 C3153 1.403 . S
C3151 C3148 1.403 . S
C3151 C3152 1.524 . S
C3151 C3155 1.400 . S
C3152 H3137 0.960 . S
C3152 H3138 0.960 . S
C3152 H3139 0.960 . S
C3152 C3151 1.524 . S
C3153 C3150 1.403 . S
C3153 C3154 1.392 . S
C3153 C3157 1.495 . S
C3154 C3153 1.392 . S
C3154 C3155 1.385 . S
C3154 C3156 1.478 . S
C3155 H3149 0.930 . S
C3155 C3151 1.400 . S
C3155 C3154 1.385 . S
C3156 C3154 1.478 . S
C3156 C3158 1.381 . S
C3156 C3162 1.383 . S
C3157 C3153 1.495 . S
C3157 H3163 0.959 . S
C3157 H3164 0.961 . S
C3157 H3165 0.960 . S
C3158 C3156 1.381 . S
C3158 C3159 1.394 . S
C3158 H3166 0.930 . S
C3159 C3158 1.394 . S
C3159 C3160 1.383 . S
C3159 H3167 0.929 . S
C3160 C3159 1.383 . S
C3160 C3161 1.377 . S
C3161 H3145 0.930 . S
C3161 C3160 1.377 . S
C3161 C3162 1.379 . S
C3162 H3146 0.931 . S
C3162 C3156 1.383 . S
C3162 C3161 1.379 . S
H3163 C3157 0.959 . S
H3164 C3157 0.961 . S
H3165 C3157 0.960 . S
H3166 C3158 0.930 . S
H3167 C3159 0.929 . S
H3168 C3176 0.929 . S
H3169 C3178 0.930 . S
H3170 C3180 0.930 . S
H3171 C3183 0.929 . S
H3172 C3186 0.930 . S
H3173 C3188 0.960 . S
H3174 C3188 0.960 . S
H3175 C3188 0.960 . S
C3176 H3168 0.929 . S
C3176 C3177 1.377 . S
C3176 C3178 1.384 . S
C3177 C3176 1.377 . S
C3177 C3183 1.390 . S
C3178 H3169 0.930 . S
C3178 C3176 1.384 . S
C3178 C3179 1.372 . S
C3179 C3178 1.372 . S
C3179 C3180 1.400 . S
C3179 C3184 1.490 . S
C3180 H3170 0.930 . S
C3180 C3179 1.400 . S
C3180 C3183 1.386 . S
H3181 C3197 0.930 . S
H3182 C3198 0.931 . S
C3183 H3171 0.929 . S
C3183 C3177 1.390 . S
C3183 C3180 1.386 . S
C3184 C3179 1.490 . S
C3184 C3186 1.395 . S
C3184 C3187 1.403 . S
H3185 C3191 0.930 . S
C3186 H3172 0.930 . S
C3186 C3184 1.395 . S
C3186 C3189 1.403 . S
C3187 C3184 1.403 . S
C3187 C3188 1.524 . S
C3187 C3191 1.400 . S
C3188 H3173 0.960 . S
C3188 H3174 0.960 . S
C3188 H3175 0.960 . S
C3188 C3187 1.524 . S
C3189 C3186 1.403 . S
C3189 C3190 1.392 . S
C3189 C3193 1.495 . S
C3190 C3189 1.392 . S
C3190 C3191 1.385 . S
C3190 C3192 1.478 . S
C3191 H3185 0.930 . S
C3191 C3187 1.400 . S
C3191 C3190 1.385 . S
C3192 C3190 1.478 . S
C3192 C3194 1.381 . S
C3192 C3198 1.383 . S
C3193 C3189 1.495 . S
C3193 H3199 0.959 . S
C3193 H3200 0.961 . S
C3193 H3201 0.960 . S
C3194 C3192 1.381 . S
C3194 C3195 1.394 . S
C3194 H3202 0.930 . S
C3195 C3194 1.394 . S
C3195 C3196 1.383 . S
C3195 H3203 0.929 . S
C3196 C3195 1.383 . S
C3196 C3197 1.377 . S
C3197 H3181 0.930 . S
C3197 C3196 1.377 . S
C3197 C3198 1.379 . S
C3198 H3182 0.931 . S
C3198 C3192 1.383 . S
C3198 C3197 1.379 . S
H3199 C3193 0.959 . S
H3200 C3193 0.961 . S
H3201 C3193 0.960 . S
H3202 C3194 0.930 . S
H3203 C3195 0.929 . S
H3204 C3212 0.929 . S
H3205 C3214 0.930 . S
H3206 C3216 0.930 . S
H3207 C3219 0.929 . S
H3208 C3222 0.930 . S
H3209 C3224 0.960 . S
H3210 C3224 0.960 . S
H3211 C3224 0.960 1_455 S
C3212 H3204 0.929 . S
C3212 C3213 1.377 . S
C3212 C3214 1.384 . S
C3213 C3212 1.377 . S
C3213 C3219 1.390 . S
C3214 H3205 0.930 . S
C3214 C3212 1.384 . S
C3214 C3215 1.372 . S
C3215 C3214 1.372 . S
C3215 C3216 1.400 . S
C3215 C3220 1.490 . S
C3216 H3206 0.930 . S
C3216 C3215 1.400 . S
C3216 C3219 1.386 . S
H3217 C3233 0.930 . S
H3218 C3234 0.931 . S
C3219 H3207 0.929 . S
C3219 C3213 1.390 . S
C3219 C3216 1.386 . S
C3220 C3215 1.490 . S
C3220 C3222 1.395 . S
C3220 C3223 1.403 . S
H3221 C3227 0.937 1_655 S
C3222 H3208 0.930 . S
C3222 C3220 1.395 . S
C3222 C3225 1.403 . S
C3223 C3220 1.403 . S
C3223 C3224 1.524 1_455 S
C3223 C3227 1.400 . S
C3224 H3209 0.960 . S
C3224 H3210 0.960 . S
C3224 H3211 0.960 1_655 S
C3224 C3223 1.524 1_655 S
C3225 C3222 1.403 . S
C3225 C3226 1.392 . S
C3225 C3229 1.495 . S
C3226 C3225 1.392 . S
C3226 C3227 1.385 . S
C3226 C3228 1.478 . S
C3227 H3221 0.937 1_455 S
C3227 C3223 1.400 . S
C3227 C3226 1.385 . S
C3228 C3226 1.478 . S
C3228 C3230 1.381 . S
C3228 C3234 1.383 . S
C3229 C3225 1.495 . S
C3229 H3235 0.959 . S
C3229 H3236 0.961 . S
C3229 H3237 0.960 . S
C3230 C3228 1.381 . S
C3230 C3231 1.394 . S
C3230 H3238 0.930 . S
C3231 C3230 1.394 . S
C3231 C3232 1.383 . S
C3231 H3239 0.915 1_455 S
C3232 C3231 1.383 . S
C3232 C3233 1.377 . S
C3233 H3217 0.930 . S
C3233 C3232 1.377 . S
C3233 C3234 1.379 . S
C3234 H3218 0.931 . S
C3234 C3228 1.383 . S
C3234 C3233 1.379 . S
H3235 C3229 0.959 . S
H3236 C3229 0.961 . S
H3237 C3229 0.960 . S
H3238 C3230 0.930 . S
H3239 C3231 0.915 1_655 S
H3240 C3248 0.929 . S
H3241 C3250 0.930 . S
H3242 C3252 0.930 . S
H3243 C3255 0.929 . S
H3244 C3258 0.930 . S
H3245 C3260 0.960 . S
H3246 C3260 0.960 . S
H3247 C3260 0.960 . S
C3248 H3240 0.929 . S
C3248 C3249 1.377 . S
C3248 C3250 1.384 . S
C3249 C3248 1.377 . S
C3249 C3255 1.390 . S
C3250 H3241 0.930 . S
C3250 C3248 1.384 . S
C3250 C3251 1.372 . S
C3251 C3250 1.372 . S
C3251 C3252 1.400 . S
C3251 C3256 1.490 . S
C3252 H3242 0.930 . S
C3252 C3251 1.400 . S
C3252 C3255 1.386 . S
H3253 C3269 0.930 . S
H3254 C3270 0.931 . S
C3255 H3243 0.929 . S
C3255 C3249 1.390 . S
C3255 C3252 1.386 . S
C3256 C3251 1.490 . S
C3256 C3258 1.395 . S
C3256 C3259 1.403 . S
H3257 C3263 0.930 . S
C3258 H3244 0.930 . S
C3258 C3256 1.395 . S
C3258 C3261 1.403 . S
C3259 C3256 1.403 . S
C3259 C3260 1.524 . S
C3259 C3263 1.400 . S
C3260 H3245 0.960 . S
C3260 H3246 0.960 . S
C3260 H3247 0.960 . S
C3260 C3259 1.524 . S
C3261 C3258 1.403 . S
C3261 C3262 1.392 . S
C3261 C3265 1.495 . S
C3262 C3261 1.392 . S
C3262 C3263 1.385 . S
C3262 C3264 1.478 . S
C3263 H3257 0.930 . S
C3263 C3259 1.400 . S
C3263 C3262 1.385 . S
C3264 C3262 1.478 . S
C3264 C3266 1.381 . S
C3264 C3270 1.383 . S
C3265 C3261 1.495 . S
C3265 H3271 0.959 . S
C3265 H3272 0.961 . S
C3265 H3273 0.960 . S
C3266 C3264 1.381 . S
C3266 C3267 1.394 . S
C3266 H3274 0.930 . S
C3267 C3266 1.394 . S
C3267 C3268 1.383 . S
C3267 H3275 0.929 . S
C3268 C3267 1.383 . S
C3268 C3269 1.377 . S
C3269 H3253 0.930 . S
C3269 C3268 1.377 . S
C3269 C3270 1.379 . S
C3270 H3254 0.931 . S
C3270 C3264 1.383 . S
C3270 C3269 1.379 . S
H3271 C3265 0.959 . S
H3272 C3265 0.961 . S
H3273 C3265 0.960 . S
H3274 C3266 0.930 . S
H3275 C3267 0.929 . S
H3276 C3284 0.929 . S
H3277 C3286 0.930 . S
H3278 C3288 0.930 . S
H3279 C3291 0.929 . S
H3280 C3294 0.930 . S
H3281 C3296 0.960 . S
H3282 C3296 0.960 . S
H3283 C3296 0.970 . S
C3284 H3276 0.929 . S
C3284 C3285 1.377 . S
C3284 C3286 1.384 . S
C3285 C3284 1.377 . S
C3285 C3291 1.390 . S
C3286 H3277 0.930 . S
C3286 C3284 1.384 . S
C3286 C3287 1.372 . S
C3287 C3286 1.372 . S
C3287 C3288 1.400 . S
C3287 C3292 1.490 . S
C3288 H3278 0.930 . S
C3288 C3287 1.400 . S
C3288 C3291 1.386 . S
H3289 C3305 0.930 . S
H3290 C3306 0.931 . S
C3291 H3279 0.929 . S
C3291 C3285 1.390 . S
C3291 C3288 1.386 . S
C3292 C3287 1.490 . S
C3292 C3294 1.395 . S
C3292 C3295 1.403 . S
H3293 C3299 0.930 1_545 S
C3294 H3280 0.930 . S
C3294 C3292 1.395 . S
C3294 C3297 1.403 . S
C3295 C3292 1.403 . S
C3295 C3296 1.524 1_565 S
C3295 C3299 1.400 . S
C3296 H3281 0.960 . S
C3296 H3282 0.960 . S
C3296 H3283 0.970 . S
C3296 C3295 1.524 1_545 S
C3297 C3294 1.403 . S
C3297 C3298 1.392 . S
C3297 C3301 1.495 . S
C3298 C3297 1.392 . S
C3298 C3299 1.385 . S
C3298 C3300 1.478 . S
C3299 H3293 0.930 1_565 S
C3299 C3295 1.400 . S
C3299 C3298 1.385 . S
C3300 C3298 1.478 . S
C3300 C3302 1.381 . S
C3300 C3306 1.383 . S
C3301 C3297 1.495 . S
C3301 H3307 0.959 . S
C3301 H3308 0.961 . S
C3301 H3309 0.960 . S
C3302 C3300 1.381 . S
C3302 C3303 1.394 . S
C3302 H3310 0.930 . S
C3303 C3302 1.394 . S
C3303 C3304 1.383 . S
C3303 H3311 0.937 1_565 S
C3304 C3303 1.383 . S
C3304 C3305 1.377 . S
C3305 H3289 0.930 . S
C3305 C3304 1.377 . S
C3305 C3306 1.379 . S
C3306 H3290 0.931 . S
C3306 C3300 1.383 . S
C3306 C3305 1.379 . S
H3307 C3301 0.959 . S
H3308 C3301 0.961 . S
H3309 C3301 0.960 . S
H3310 C3302 0.930 . S
H3311 C3303 0.937 1_545 S
H3312 C3320 0.929 . S
H3313 C3322 0.930 . S
H3314 C3324 0.930 1_545 S
H3315 C3327 0.929 1_545 S
H3316 C3330 0.930 . S
H3317 C3332 0.966 . S
H3318 C3332 0.951 1_565 S
H3319 C3332 0.963 . S
C3320 H3312 0.929 . S
C3320 C3321 1.377 . S
C3320 C3322 1.384 . S
C3321 C3320 1.377 . S
C3321 C3327 1.390 . S
C3322 H3313 0.930 . S
C3322 C3320 1.384 . S
C3322 C3323 1.372 . S
C3323 C3322 1.372 . S
C3323 C3324 1.400 . S
C3323 C3328 1.490 . S
C3324 H3314 0.930 1_565 S
C3324 C3323 1.400 . S
C3324 C3327 1.386 . S
H3325 C3341 0.930 . S
H3326 C3342 0.931 . S
C3327 H3315 0.929 1_565 S
C3327 C3321 1.390 . S
C3327 C3324 1.386 . S
C3328 C3323 1.490 . S
C3328 C3330 1.395 . S
C3328 C3331 1.403 . S
H3329 C3335 0.968 . S
C3330 H3316 0.930 . S
C3330 C3328 1.395 . S
C3330 C3333 1.403 . S
C3331 C3328 1.403 . S
C3331 C3332 1.523 1_565 S
C3331 C3335 1.400 . S
C3332 H3317 0.966 . S
C3332 H3318 0.951 1_545 S
C3332 H3319 0.963 . S
C3332 C3331 1.523 1_545 S
C3333 C3330 1.403 . S
C3333 C3334 1.392 . S
C3333 C3337 1.495 . S
C3334 C3333 1.392 . S
C3334 C3335 1.385 . S
C3334 C3336 1.478 . S
C3335 H3329 0.968 . S
C3335 C3331 1.400 . S
C3335 C3334 1.385 . S
C3336 C3334 1.478 . S
C3336 C3338 1.381 . S
C3336 C3342 1.383 1_565 S
C3337 C3333 1.495 . S
C3337 H3343 0.959 . S
C3337 H3344 0.961 . S
C3337 H3345 0.960 . S
C3338 C3336 1.381 . S
C3338 C3339 1.394 . S
C3338 H3346 0.930 . S
C3339 C3338 1.394 . S
C3339 C3340 1.383 . S
C3339 H3347 0.929 . S
C3340 C3339 1.383 . S
C3340 C3341 1.377 1_565 S
C3341 H3325 0.930 . S
C3341 C3340 1.377 1_545 S
C3341 C3342 1.379 . S
C3342 H3326 0.931 . S
C3342 C3336 1.383 1_545 S
C3342 C3341 1.379 . S
H3343 C3337 0.959 . S
H3344 C3337 0.961 . S
H3345 C3337 0.960 . S
H3346 C3338 0.930 . S
H3347 C3339 0.929 . S
H3348 C3356 0.929 . S
H3349 C3358 0.930 . S
H3350 C3360 0.930 . S
H3351 C3363 0.929 . S
H3352 C3366 0.930 . S
H3353 C3368 0.959 1_655 S
H3354 C3368 0.972 1_655 S
H3355 C3368 0.955 . S
C3356 H3348 0.929 . S
C3356 C3357 1.377 . S
C3356 C3358 1.384 . S
C3357 C3356 1.377 . S
C3357 C3363 1.390 . S
C3358 H3349 0.930 . S
C3358 C3356 1.384 . S
C3358 C3359 1.372 . S
C3359 C3358 1.372 . S
C3359 C3360 1.400 . S
C3359 C3364 1.490 . S
C3360 H3350 0.930 . S
C3360 C3359 1.400 . S
C3360 C3363 1.386 . S
H3361 C3377 0.930 . S
H3362 C3378 0.931 . S
C3363 H3351 0.929 . S
C3363 C3357 1.390 . S
C3363 C3360 1.386 . S
C3364 C3359 1.490 . S
C3364 C3366 1.395 . S
C3364 C3367 1.403 . S
H3365 C3371 0.930 . S
C3366 H3352 0.930 . S
C3366 C3364 1.395 . S
C3366 C3369 1.403 . S
C3367 C3364 1.403 . S
C3367 C3368 1.518 . S
C3367 C3371 1.400 . S
C3368 H3353 0.959 1_455 S
C3368 H3354 0.972 1_455 S
C3368 H3355 0.955 . S
C3368 C3367 1.518 . S
C3369 C3366 1.403 . S
C3369 C3370 1.392 . S
C3369 C3373 1.495 . S
C3370 C3369 1.392 . S
C3370 C3371 1.385 . S
C3370 C3372 1.478 . S
C3371 H3365 0.930 . S
C3371 C3367 1.400 . S
C3371 C3370 1.385 . S
C3372 C3370 1.478 . S
C3372 C3374 1.433 . S
C3372 C3378 1.383 . S
C3373 C3369 1.495 . S
C3373 H3379 0.959 . S
C3373 H3380 0.961 . S
C3373 H3381 0.960 . S
C3374 C3372 1.433 . S
C3374 C3375 1.438 1_455 S
C3374 H3382 0.844 1_455 S
C3375 C3374 1.438 1_655 S
C3375 C3376 1.383 1_655 S
C3375 H3383 0.929 . S
C3376 C3375 1.383 1_455 S
C3376 C3377 1.377 . S
C3377 H3361 0.930 . S
C3377 C3376 1.377 . S
C3377 C3378 1.379 . S
C3378 H3362 0.931 . S
C3378 C3372 1.383 . S
C3378 C3377 1.379 . S
H3379 C3373 0.959 . S
H3380 C3373 0.961 . S
H3381 C3373 0.960 . S
H3382 C3374 0.844 1_655 S
H3383 C3375 0.929 . S
H3384 C3392 0.929 . S
H3385 C3394 0.930 . S
H3386 C3396 0.930 . S
H3387 C3399 0.929 . S
H3388 C3402 0.930 . S
H3389 C3404 0.960 . S
H3390 C3404 0.960 . S
H3391 C3404 0.960 . S
C3392 H3384 0.929 . S
C3392 C3393 1.377 . S
C3392 C3394 1.384 . S
C3393 C3392 1.377 . S
C3393 C3399 1.390 . S
C3394 H3385 0.930 . S
C3394 C3392 1.384 . S
C3394 C3395 1.372 . S
C3395 C3394 1.372 . S
C3395 C3396 1.400 . S
C3395 C3400 1.490 . S
C3396 H3386 0.930 . S
C3396 C3395 1.400 . S
C3396 C3399 1.386 . S
H3397 C3413 0.930 . S
H3398 C3414 0.931 . S
C3399 H3387 0.929 . S
C3399 C3393 1.390 . S
C3399 C3396 1.386 . S
C3400 C3395 1.490 . S
C3400 C3402 1.395 . S
C3400 C3403 1.403 . S
H3401 C3407 0.930 . S
C3402 H3388 0.930 . S
C3402 C3400 1.395 . S
C3402 C3405 1.403 . S
C3403 C3400 1.403 . S
C3403 C3404 1.524 . S
C3403 C3407 1.400 . S
C3404 H3389 0.960 . S
C3404 H3390 0.960 . S
C3404 H3391 0.960 . S
C3404 C3403 1.524 . S
C3405 C3402 1.403 . S
C3405 C3406 1.392 . S
C3405 C3409 1.495 . S
C3406 C3405 1.392 . S
C3406 C3407 1.385 . S
C3406 C3408 1.478 . S
C3407 H3401 0.930 . S
C3407 C3403 1.400 . S
C3407 C3406 1.385 . S
C3408 C3406 1.478 . S
C3408 C3410 1.381 . S
C3408 C3414 1.383 . S
C3409 C3405 1.495 . S
C3409 H3415 0.959 . S
C3409 H3416 0.961 . S
C3409 H3417 0.960 . S
C3410 C3408 1.381 . S
C3410 C3411 1.394 . S
C3410 H3418 0.930 . S
C3411 C3410 1.394 . S
C3411 C3412 1.383 . S
C3411 H3419 0.929 . S
C3412 C3411 1.383 . S
C3412 C3413 1.377 . S
C3413 H3397 0.930 . S
C3413 C3412 1.377 . S
C3413 C3414 1.379 . S
C3414 H3398 0.931 . S
C3414 C3408 1.383 . S
C3414 C3413 1.379 . S
H3415 C3409 0.959 . S
H3416 C3409 0.961 . S
H3417 C3409 0.960 . S
H3418 C3410 0.930 . S
H3419 C3411 0.929 . S
H3420 C3428 0.929 . S
H3421 C3430 0.930 . S
H3422 C3432 0.930 . S
H3423 C3435 0.929 . S
H3424 C3438 0.930 . S
H3425 C3440 0.960 . S
H3426 C3440 0.960 . S
H3427 C3440 0.960 . S
C3428 H3420 0.929 . S
C3428 C3429 1.377 . S
C3428 C3430 1.384 . S
C3429 C3428 1.377 . S
C3429 C3435 1.390 . S
C3430 H3421 0.930 . S
C3430 C3428 1.384 . S
C3430 C3431 1.372 . S
C3431 C3430 1.372 . S
C3431 C3432 1.400 . S
C3431 C3436 1.490 . S
C3432 H3422 0.930 . S
C3432 C3431 1.400 . S
C3432 C3435 1.386 . S
H3433 C3449 0.930 . S
H3434 C3450 0.931 . S
C3435 H3423 0.929 . S
C3435 C3429 1.390 . S
C3435 C3432 1.386 . S
C3436 C3431 1.490 . S
C3436 C3438 1.395 . S
C3436 C3439 1.403 . S
H3437 C3443 0.930 . S
C3438 H3424 0.930 . S
C3438 C3436 1.395 . S
C3438 C3441 1.403 . S
C3439 C3436 1.403 . S
C3439 C3440 1.524 . S
C3439 C3443 1.400 . S
C3440 H3425 0.960 . S
C3440 H3426 0.960 . S
C3440 H3427 0.960 . S
C3440 C3439 1.524 . S
C3441 C3438 1.403 . S
C3441 C3442 1.392 . S
C3441 C3445 1.495 . S
C3442 C3441 1.392 . S
C3442 C3443 1.385 . S
C3442 C3444 1.478 . S
C3443 H3437 0.930 . S
C3443 C3439 1.400 . S
C3443 C3442 1.385 . S
C3444 C3442 1.478 . S
C3444 C3446 1.381 . S
C3444 C3450 1.383 . S
C3445 C3441 1.495 . S
C3445 H3451 0.959 . S
C3445 H3452 0.961 . S
C3445 H3453 0.960 . S
C3446 C3444 1.381 . S
C3446 C3447 1.394 . S
C3446 H3454 0.930 . S
C3447 C3446 1.394 . S
C3447 C3448 1.383 . S
C3447 H3455 0.929 . S
C3448 C3447 1.383 . S
C3448 C3449 1.377 . S
C3449 H3433 0.930 . S
C3449 C3448 1.377 . S
C3449 C3450 1.379 . S
C3450 H3434 0.931 . S
C3450 C3444 1.383 . S
C3450 C3449 1.379 . S
H3451 C3445 0.959 . S
H3452 C3445 0.961 . S
H3453 C3445 0.960 . S
H3454 C3446 0.930 . S
H3455 C3447 0.929 . S
H3456 C3464 0.929 . S
H3457 C3466 0.930 . S
H3458 C3468 0.930 . S
H3459 C3471 0.929 . S
H3460 C3474 0.930 . S
H3461 C3476 0.960 . S
H3462 C3476 0.960 . S
H3463 C3476 0.960 . S
C3464 H3456 0.929 . S
C3464 C3465 1.377 . S
C3464 C3466 1.384 . S
C3465 C3464 1.377 . S
C3465 C3471 1.390 . S
C3466 H3457 0.930 . S
C3466 C3464 1.384 . S
C3466 C3467 1.372 . S
C3467 C3466 1.372 . S
C3467 C3468 1.400 . S
C3467 C3472 1.490 . S
C3468 H3458 0.930 . S
C3468 C3467 1.400 . S
C3468 C3471 1.386 . S
H3469 C3485 0.930 . S
H3470 C3486 0.931 . S
C3471 H3459 0.929 . S
C3471 C3465 1.390 . S
C3471 C3468 1.386 . S
C3472 C3467 1.490 . S
C3472 C3474 1.395 . S
C3472 C3475 1.403 . S
H3473 C3479 0.930 . S
C3474 H3460 0.930 . S
C3474 C3472 1.395 . S
C3474 C3477 1.403 . S
C3475 C3472 1.403 . S
C3475 C3476 1.524 . S
C3475 C3479 1.400 . S
C3476 H3461 0.960 . S
C3476 H3462 0.960 . S
C3476 H3463 0.960 . S
C3476 C3475 1.524 . S
C3477 C3474 1.403 . S
C3477 C3478 1.392 . S
C3477 C3481 1.495 . S
C3478 C3477 1.392 . S
C3478 C3479 1.385 . S
C3478 C3480 1.478 . S
C3479 H3473 0.930 . S
C3479 C3475 1.400 . S
C3479 C3478 1.385 . S
C3480 C3478 1.478 . S
C3480 C3482 1.381 . S
C3480 C3486 1.383 . S
C3481 C3477 1.495 . S
C3481 H3487 0.959 . S
C3481 H3488 0.961 . S
C3481 H3489 0.960 . S
C3482 C3480 1.381 . S
C3482 C3483 1.394 . S
C3482 H3490 0.930 . S
C3483 C3482 1.394 . S
C3483 C3484 1.383 . S
C3483 H3491 0.929 . S
C3484 C3483 1.383 . S
C3484 C3485 1.377 . S
C3485 H3469 0.930 . S
C3485 C3484 1.377 . S
C3485 C3486 1.379 . S
C3486 H3470 0.931 . S
C3486 C3480 1.383 . S
C3486 C3485 1.379 . S
H3487 C3481 0.959 . S
H3488 C3481 0.961 . S
H3489 C3481 0.960 . S
H3490 C3482 0.930 . S
H3491 C3483 0.929 . S
H3492 C3500 0.929 . S
H3493 C3502 0.930 . S
H3494 C3504 0.930 . S
H3495 C3507 0.929 . S
H3496 C3510 0.930 . S
H3497 C3512 0.960 . S
H3498 C3512 0.960 . S
H3499 C3512 0.960 . S
C3500 H3492 0.929 . S
C3500 C3501 1.377 . S
C3500 C3502 1.384 . S
C3501 C3500 1.377 . S
C3501 C3507 1.390 . S
C3502 H3493 0.930 . S
C3502 C3500 1.384 . S
C3502 C3503 1.372 . S
C3503 C3502 1.372 . S
C3503 C3504 1.400 . S
C3503 C3508 1.490 . S
C3504 H3494 0.930 . S
C3504 C3503 1.400 . S
C3504 C3507 1.386 . S
H3505 C3521 0.930 . S
H3506 C3522 0.931 . S
C3507 H3495 0.929 . S
C3507 C3501 1.390 . S
C3507 C3504 1.386 . S
C3508 C3503 1.490 . S
C3508 C3510 1.395 . S
C3508 C3511 1.403 . S
H3509 C3515 0.930 . S
C3510 H3496 0.930 . S
C3510 C3508 1.395 . S
C3510 C3513 1.403 . S
C3511 C3508 1.403 . S
C3511 C3512 1.524 . S
C3511 C3515 1.400 . S
C3512 H3497 0.960 . S
C3512 H3498 0.960 . S
C3512 H3499 0.960 . S
C3512 C3511 1.524 . S
C3513 C3510 1.403 . S
C3513 C3514 1.392 . S
C3513 C3517 1.495 . S
C3514 C3513 1.392 . S
C3514 C3515 1.385 . S
C3514 C3516 1.478 . S
C3515 H3509 0.930 . S
C3515 C3511 1.400 . S
C3515 C3514 1.385 . S
C3516 C3514 1.478 . S
C3516 C3518 1.381 . S
C3516 C3522 1.383 . S
C3517 C3513 1.495 . S
C3517 H3523 0.959 . S
C3517 H3524 0.961 . S
C3517 H3525 0.960 . S
C3518 C3516 1.381 . S
C3518 C3519 1.394 . S
C3518 H3526 0.930 . S
C3519 C3518 1.394 . S
C3519 C3520 1.383 . S
C3519 H3527 0.929 . S
C3520 C3519 1.383 . S
C3520 C3521 1.377 . S
C3521 H3505 0.930 . S
C3521 C3520 1.377 . S
C3521 C3522 1.379 . S
C3522 H3506 0.931 . S
C3522 C3516 1.383 . S
C3522 C3521 1.379 . S
H3523 C3517 0.959 . S
H3524 C3517 0.961 . S
H3525 C3517 0.960 . S
H3526 C3518 0.930 . S
H3527 C3519 0.929 . S
H3528 C3536 0.929 . S
H3529 C3538 0.930 1_565 S
H3530 C3540 0.930 . S
H3531 C3543 0.929 . S
H3532 C3546 0.930 . S
H3533 C3548 0.960 . S
H3534 C3548 0.960 . S
H3535 C3548 0.960 . S
C3536 H3528 0.929 . S
C3536 C3537 1.377 . S
C3536 C3538 1.384 . S
C3537 C3536 1.377 . S
C3537 C3543 1.390 . S
C3538 H3529 0.930 1_545 S
C3538 C3536 1.384 . S
C3538 C3539 1.372 . S
C3539 C3538 1.372 . S
C3539 C3540 1.400 . S
C3539 C3544 1.490 . S
C3540 H3530 0.930 . S
C3540 C3539 1.400 . S
C3540 C3543 1.386 . S
H3541 C3557 0.930 . S
H3542 C3558 0.931 . S
C3543 H3531 0.929 . S
C3543 C3537 1.390 . S
C3543 C3540 1.386 . S
C3544 C3539 1.490 . S
C3544 C3546 1.395 . S
C3544 C3547 1.403 . S
H3545 C3551 0.930 . S
C3546 H3532 0.930 . S
C3546 C3544 1.395 . S
C3546 C3549 1.403 . S
C3547 C3544 1.403 . S
C3547 C3548 1.524 . S
C3547 C3551 1.400 . S
C3548 H3533 0.960 . S
C3548 H3534 0.960 . S
C3548 H3535 0.960 . S
C3548 C3547 1.524 . S
C3549 C3546 1.403 . S
C3549 C3550 1.392 . S
C3549 C3553 1.495 . S
C3550 C3549 1.392 . S
C3550 C3551 1.385 . S
C3550 C3552 1.478 . S
C3551 H3545 0.930 . S
C3551 C3547 1.400 . S
C3551 C3550 1.385 . S
C3552 C3550 1.478 . S
C3552 C3554 1.381 1_545 S
C3552 C3558 1.383 . S
C3553 C3549 1.495 . S
C3553 H3559 0.959 . S
C3553 H3560 0.961 . S
C3553 H3561 0.960 1_545 S
C3554 C3552 1.381 1_565 S
C3554 C3555 1.394 . S
C3554 H3562 0.930 . S
C3555 C3554 1.394 . S
C3555 C3556 1.383 1_565 S
C3555 H3563 0.929 . S
C3556 C3555 1.383 1_545 S
C3556 C3557 1.377 . S
C3557 H3541 0.930 . S
C3557 C3556 1.377 . S
C3557 C3558 1.379 . S
C3558 H3542 0.931 . S
C3558 C3552 1.383 . S
C3558 C3557 1.379 . S
H3559 C3553 0.959 . S
H3560 C3553 0.961 . S
H3561 C3553 0.960 1_565 S
H3562 C3554 0.930 . S
H3563 C3555 0.929 . S
H3564 C3572 0.929 . S
H3565 C3574 0.930 . S
H3566 C3576 0.930 . S
H3567 C3579 0.929 . S
H3568 C3582 0.930 . S
H3569 C3584 0.960 . S
H3570 C3584 0.960 . S
H3571 C3584 0.960 . S
C3572 H3564 0.929 . S
C3572 C3573 1.377 . S
C3572 C3574 1.384 . S
C3573 C3572 1.377 . S
C3573 C3579 1.390 . S
C3574 H3565 0.930 . S
C3574 C3572 1.384 . S
C3574 C3575 1.372 . S
C3575 C3574 1.372 . S
C3575 C3576 1.400 . S
C3575 C3580 1.490 . S
C3576 H3566 0.930 . S
C3576 C3575 1.400 . S
C3576 C3579 1.386 . S
H3577 C3593 0.930 . S
H3578 C3594 0.931 . S
C3579 H3567 0.929 . S
C3579 C3573 1.390 . S
C3579 C3576 1.386 . S
C3580 C3575 1.490 . S
C3580 C3582 1.395 . S
C3580 C3583 1.403 . S
H3581 C3587 0.930 1_455 S
C3582 H3568 0.930 . S
C3582 C3580 1.395 . S
C3582 C3585 1.403 . S
C3583 C3580 1.403 . S
C3583 C3584 1.524 1_655 S
C3583 C3587 1.400 . S
C3584 H3569 0.960 . S
C3584 H3570 0.960 . S
C3584 H3571 0.960 . S
C3584 C3583 1.524 1_455 S
C3585 C3582 1.403 . S
C3585 C3586 1.392 . S
C3585 C3589 1.495 . S
C3586 C3585 1.392 . S
C3586 C3587 1.385 . S
C3586 C3588 1.478 . S
C3587 H3581 0.930 1_655 S
C3587 C3583 1.400 . S
C3587 C3586 1.385 . S
C3588 C3586 1.478 . S
C3588 C3590 1.381 . S
C3588 C3594 1.383 . S
C3589 C3585 1.495 . S
C3589 H3595 0.959 . S
C3589 H3596 0.961 . S
C3589 H3597 0.960 . S
C3590 C3588 1.381 . S
C3590 C3591 1.394 . S
C3590 H3598 0.930 . S
C3591 C3590 1.394 . S
C3591 C3592 1.383 . S
C3591 H3599 0.939 1_655 S
C3592 C3591 1.383 . S
C3592 C3593 1.377 . S
C3593 H3577 0.930 . S
C3593 C3592 1.377 . S
C3593 C3594 1.379 . S
C3594 H3578 0.931 . S
C3594 C3588 1.383 . S
C3594 C3593 1.379 . S
H3595 C3589 0.959 . S
H3596 C3589 0.961 . S
H3597 C3589 0.960 . S
H3598 C3590 0.930 . S
H3599 C3591 0.939 1_455 S
H3600 C3608 0.929 . S
H3601 C3610 0.930 . S
H3602 C3612 0.930 . S
H3603 C3615 0.929 . S
H3604 C3618 0.930 . S
H3605 C3620 0.960 . S
H3606 C3620 0.960 . S
H3607 C3620 0.960 . S
C3608 H3600 0.929 . S
C3608 C3609 1.377 . S
C3608 C3610 1.384 . S
C3609 C3608 1.377 . S
C3609 C3615 1.390 . S
C3610 H3601 0.930 . S
C3610 C3608 1.384 . S
C3610 C3611 1.372 . S
C3611 C3610 1.372 . S
C3611 C3612 1.400 . S
C3611 C3616 1.490 . S
C3612 H3602 0.930 . S
C3612 C3611 1.400 . S
C3612 C3615 1.386 . S
H3613 C3629 0.930 . S
H3614 C3630 0.931 . S
C3615 H3603 0.929 . S
C3615 C3609 1.390 . S
C3615 C3612 1.386 . S
C3616 C3611 1.490 . S
C3616 C3618 1.395 . S
C3616 C3619 1.403 . S
H3617 C3623 0.930 . S
C3618 H3604 0.930 . S
C3618 C3616 1.395 . S
C3618 C3621 1.403 . S
C3619 C3616 1.403 . S
C3619 C3620 1.524 . S
C3619 C3623 1.400 . S
C3620 H3605 0.960 . S
C3620 H3606 0.960 . S
C3620 H3607 0.960 . S
C3620 C3619 1.524 . S
C3621 C3618 1.403 . S
C3621 C3622 1.392 . S
C3621 C3625 1.495 . S
C3622 C3621 1.392 . S
C3622 C3623 1.385 . S
C3622 C3624 1.478 . S
C3623 H3617 0.930 . S
C3623 C3619 1.400 . S
C3623 C3622 1.385 . S
C3624 C3622 1.478 . S
C3624 C3626 1.381 . S
C3624 C3630 1.383 . S
C3625 C3621 1.495 . S
C3625 H3631 0.959 . S
C3625 H3632 0.961 . S
C3625 H3633 0.960 . S
C3626 C3624 1.381 . S
C3626 C3627 1.394 . S
C3626 H3634 0.930 . S
C3627 C3626 1.394 . S
C3627 C3628 1.383 . S
C3627 H3635 0.929 . S
C3628 C3627 1.383 . S
C3628 C3629 1.377 . S
C3629 H3613 0.930 . S
C3629 C3628 1.377 . S
C3629 C3630 1.379 . S
C3630 H3614 0.931 . S
C3630 C3624 1.383 . S
C3630 C3629 1.379 . S
H3631 C3625 0.959 . S
H3632 C3625 0.961 . S
H3633 C3625 0.960 . S
H3634 C3626 0.930 . S
H3635 C3627 0.929 . S
H3636 C3644 0.929 . S
H3637 C3646 0.930 . S
H3638 C3648 0.930 . S
H3639 C3651 0.929 . S
H3640 C3654 0.930 . S
H3641 C3656 0.960 . S
H3642 C3656 0.960 . S
H3643 C3656 0.960 . S
C3644 H3636 0.929 . S
C3644 C3645 1.377 . S
C3644 C3646 1.384 . S
C3645 C3644 1.377 . S
C3645 C3651 1.390 . S
C3646 H3637 0.930 . S
C3646 C3644 1.384 . S
C3646 C3647 1.372 . S
C3647 C3646 1.372 . S
C3647 C3648 1.400 . S
C3647 C3652 1.490 . S
C3648 H3638 0.930 . S
C3648 C3647 1.400 . S
C3648 C3651 1.386 . S
H3649 C3665 0.930 . S
H3650 C3666 0.931 . S
C3651 H3639 0.929 . S
C3651 C3645 1.390 . S
C3651 C3648 1.386 . S
C3652 C3647 1.490 . S
C3652 C3654 1.395 . S
C3652 C3655 1.403 . S
H3653 C3659 0.930 . S
C3654 H3640 0.930 . S
C3654 C3652 1.395 . S
C3654 C3657 1.403 . S
C3655 C3652 1.403 . S
C3655 C3656 1.524 . S
C3655 C3659 1.400 . S
C3656 H3641 0.960 . S
C3656 H3642 0.960 . S
C3656 H3643 0.960 . S
C3656 C3655 1.524 . S
C3657 C3654 1.403 . S
C3657 C3658 1.392 . S
C3657 C3661 1.495 . S
C3658 C3657 1.392 . S
C3658 C3659 1.385 . S
C3658 C3660 1.478 . S
C3659 H3653 0.930 . S
C3659 C3655 1.400 . S
C3659 C3658 1.385 . S
C3660 C3658 1.478 . S
C3660 C3662 1.381 . S
C3660 C3666 1.383 . S
C3661 C3657 1.495 . S
C3661 H3667 0.959 . S
C3661 H3668 0.961 . S
C3661 H3669 0.960 . S
C3662 C3660 1.381 . S
C3662 C3663 1.394 . S
C3662 H3670 0.930 . S
C3663 C3662 1.394 . S
C3663 C3664 1.383 . S
C3663 H3671 0.929 . S
C3664 C3663 1.383 . S
C3664 C3665 1.377 . S
C3665 H3649 0.930 . S
C3665 C3664 1.377 . S
C3665 C3666 1.379 . S
C3666 H3650 0.931 . S
C3666 C3660 1.383 . S
C3666 C3665 1.379 . S
H3667 C3661 0.959 . S
H3668 C3661 0.961 . S
H3669 C3661 0.960 . S
H3670 C3662 0.930 . S
H3671 C3663 0.929 . S
H3672 C3680 0.929 . S
H3673 C3682 0.930 . S
H3674 C3684 0.930 . S
H3675 C3687 0.929 . S
H3676 C3690 0.930 . S
H3677 C3692 0.960 . S
H3678 C3692 0.960 . S
H3679 C3692 0.960 . S
C3680 H3672 0.929 . S
C3680 C3681 1.377 . S
C3680 C3682 1.384 . S
C3681 C3680 1.377 . S
C3681 C3687 1.390 . S
C3682 H3673 0.930 . S
C3682 C3680 1.384 . S
C3682 C3683 1.372 . S
C3683 C3682 1.372 . S
C3683 C3684 1.400 . S
C3683 C3688 1.490 . S
C3684 H3674 0.930 . S
C3684 C3683 1.400 . S
C3684 C3687 1.386 . S
H3685 C3701 0.930 . S
H3686 C3702 0.931 . S
C3687 H3675 0.929 . S
C3687 C3681 1.390 . S
C3687 C3684 1.386 . S
C3688 C3683 1.490 . S
C3688 C3690 1.395 . S
C3688 C3691 1.403 . S
H3689 C3695 0.930 . S
C3690 H3676 0.930 . S
C3690 C3688 1.395 . S
C3690 C3693 1.403 . S
C3691 C3688 1.403 . S
C3691 C3692 1.524 . S
C3691 C3695 1.400 . S
C3692 H3677 0.960 . S
C3692 H3678 0.960 . S
C3692 H3679 0.960 . S
C3692 C3691 1.524 . S
C3693 C3690 1.403 . S
C3693 C3694 1.392 . S
C3693 C3697 1.495 . S
C3694 C3693 1.392 . S
C3694 C3695 1.385 . S
C3694 C3696 1.478 . S
C3695 H3689 0.930 . S
C3695 C3691 1.400 . S
C3695 C3694 1.385 . S
C3696 C3694 1.478 . S
C3696 C3698 1.381 . S
C3696 C3702 1.383 . S
C3697 C3693 1.495 . S
C3697 H3703 0.959 . S
C3697 H3704 0.961 . S
C3697 H3705 0.960 . S
C3698 C3696 1.381 . S
C3698 C3699 1.394 . S
C3698 H3706 0.930 . S
C3699 C3698 1.394 . S
C3699 C3700 1.383 . S
C3699 H3707 0.929 . S
C3700 C3699 1.383 . S
C3700 C3701 1.377 . S
C3701 H3685 0.930 . S
C3701 C3700 1.377 . S
C3701 C3702 1.379 . S
C3702 H3686 0.931 . S
C3702 C3696 1.383 . S
C3702 C3701 1.379 . S
H3703 C3697 0.959 . S
H3704 C3697 0.961 . S
H3705 C3697 0.960 . S
H3706 C3698 0.930 . S
H3707 C3699 0.929 . S
H3708 C3716 0.929 . S
H3709 C3718 0.930 . S
H3710 C3720 0.930 . S
H3711 C3723 0.929 . S
H3712 C3726 0.930 . S
H3713 C3728 0.960 . S
H3714 C3728 0.960 . S
H3715 C3728 0.960 . S
C3716 H3708 0.929 . S
C3716 C3717 1.377 . S
C3716 C3718 1.384 . S
C3717 C3716 1.377 . S
C3717 C3723 1.390 . S
C3718 H3709 0.930 . S
C3718 C3716 1.384 . S
C3718 C3719 1.372 . S
C3719 C3718 1.372 . S
C3719 C3720 1.400 . S
C3719 C3724 1.490 . S
C3720 H3710 0.930 . S
C3720 C3719 1.400 . S
C3720 C3723 1.386 . S
H3721 C3737 0.930 . S
H3722 C3738 0.931 . S
C3723 H3711 0.929 . S
C3723 C3717 1.390 . S
C3723 C3720 1.386 . S
C3724 C3719 1.490 . S
C3724 C3726 1.395 . S
C3724 C3727 1.403 . S
H3725 C3731 0.930 . S
C3726 H3712 0.930 . S
C3726 C3724 1.395 . S
C3726 C3729 1.403 . S
C3727 C3724 1.403 . S
C3727 C3728 1.524 . S
C3727 C3731 1.400 . S
C3728 H3713 0.960 . S
C3728 H3714 0.960 . S
C3728 H3715 0.960 . S
C3728 C3727 1.524 . S
C3729 C3726 1.403 . S
C3729 C3730 1.392 . S
C3729 C3733 1.495 . S
C3730 C3729 1.392 . S
C3730 C3731 1.385 . S
C3730 C3732 1.478 . S
C3731 H3725 0.930 . S
C3731 C3727 1.400 . S
C3731 C3730 1.385 . S
C3732 C3730 1.478 . S
C3732 C3734 1.381 . S
C3732 C3738 1.383 . S
C3733 C3729 1.495 . S
C3733 H3739 0.959 . S
C3733 H3740 0.961 . S
C3733 H3741 0.960 . S
C3734 C3732 1.381 . S
C3734 C3735 1.394 . S
C3734 H3742 0.930 . S
C3735 C3734 1.394 . S
C3735 C3736 1.383 . S
C3735 H3743 0.929 . S
C3736 C3735 1.383 . S
C3736 C3737 1.377 . S
C3737 H3721 0.930 . S
C3737 C3736 1.377 . S
C3737 C3738 1.379 . S
C3738 H3722 0.931 . S
C3738 C3732 1.383 . S
C3738 C3737 1.379 . S
H3739 C3733 0.959 . S
H3740 C3733 0.961 . S
H3741 C3733 0.960 . S
H3742 C3734 0.930 . S
H3743 C3735 0.929 . S
H3744 C3752 0.929 . S
H3745 C3754 0.930 . S
H3746 C3756 0.930 . S
H3747 C3759 0.929 . S
H3748 C3762 0.930 . S
H3749 C3764 0.960 . S
H3750 C3764 0.960 . S
H3751 C3764 0.960 . S
C3752 H3744 0.929 . S
C3752 C3753 1.377 . S
C3752 C3754 1.384 . S
C3753 C3752 1.377 . S
C3753 C3759 1.390 . S
C3754 H3745 0.930 . S
C3754 C3752 1.384 . S
C3754 C3755 1.372 . S
C3755 C3754 1.372 . S
C3755 C3756 1.400 . S
C3755 C3760 1.490 . S
C3756 H3746 0.930 . S
C3756 C3755 1.400 . S
C3756 C3759 1.386 . S
H3757 C3773 0.930 . S
H3758 C3774 0.931 . S
C3759 H3747 0.929 . S
C3759 C3753 1.390 . S
C3759 C3756 1.386 . S
C3760 C3755 1.490 . S
C3760 C3762 1.395 . S
C3760 C3763 1.403 . S
H3761 C3767 0.930 . S
C3762 H3748 0.930 . S
C3762 C3760 1.395 . S
C3762 C3765 1.403 . S
C3763 C3760 1.403 . S
C3763 C3764 1.524 . S
C3763 C3767 1.400 . S
C3764 H3749 0.960 . S
C3764 H3750 0.960 . S
C3764 H3751 0.960 . S
C3764 C3763 1.524 . S
C3765 C3762 1.403 . S
C3765 C3766 1.392 . S
C3765 C3769 1.495 . S
C3766 C3765 1.392 . S
C3766 C3767 1.385 . S
C3766 C3768 1.478 . S
C3767 H3761 0.930 . S
C3767 C3763 1.400 . S
C3767 C3766 1.385 . S
C3768 C3766 1.478 . S
C3768 C3770 1.381 . S
C3768 C3774 1.383 . S
C3769 C3765 1.495 . S
C3769 H3775 0.959 . S
C3769 H3776 0.961 . S
C3769 H3777 0.960 . S
C3770 C3768 1.381 . S
C3770 C3771 1.394 . S
C3770 H3778 0.930 . S
C3771 C3770 1.394 . S
C3771 C3772 1.383 . S
C3771 H3779 0.929 . S
C3772 C3771 1.383 . S
C3772 C3773 1.377 . S
C3773 H3757 0.930 . S
C3773 C3772 1.377 . S
C3773 C3774 1.379 . S
C3774 H3758 0.931 . S
C3774 C3768 1.383 . S
C3774 C3773 1.379 . S
H3775 C3769 0.959 . S
H3776 C3769 0.961 . S
H3777 C3769 0.960 . S
H3778 C3770 0.930 . S
H3779 C3771 0.929 . S
H3780 C3788 0.929 . S
H3781 C3790 0.930 . S
H3782 C3792 0.930 . S
H3783 C3795 0.929 . S
H3784 C3798 0.930 . S
H3785 C3800 0.960 . S
H3786 C3800 0.960 . S
H3787 C3800 0.960 . S
C3788 H3780 0.929 . S
C3788 C3789 1.377 . S
C3788 C3790 1.384 . S
C3789 C3788 1.377 . S
C3789 C3795 1.390 . S
C3790 H3781 0.930 . S
C3790 C3788 1.384 . S
C3790 C3791 1.372 . S
C3791 C3790 1.372 . S
C3791 C3792 1.400 . S
C3791 C3796 1.490 . S
C3792 H3782 0.930 . S
C3792 C3791 1.400 . S
C3792 C3795 1.386 . S
H3793 C3809 0.930 . S
H3794 C3810 0.931 . S
C3795 H3783 0.929 . S
C3795 C3789 1.390 . S
C3795 C3792 1.386 . S
C3796 C3791 1.490 . S
C3796 C3798 1.395 . S
C3796 C3799 1.403 . S
H3797 C3803 0.930 . S
C3798 H3784 0.930 . S
C3798 C3796 1.395 . S
C3798 C3801 1.403 . S
C3799 C3796 1.403 . S
C3799 C3800 1.524 . S
C3799 C3803 1.400 . S
C3800 H3785 0.960 . S
C3800 H3786 0.960 . S
C3800 H3787 0.960 . S
C3800 C3799 1.524 . S
C3801 C3798 1.403 . S
C3801 C3802 1.392 . S
C3801 C3805 1.495 . S
C3802 C3801 1.392 . S
C3802 C3803 1.385 . S
C3802 C3804 1.478 . S
C3803 H3797 0.930 . S
C3803 C3799 1.400 . S
C3803 C3802 1.385 . S
C3804 C3802 1.478 . S
C3804 C3806 1.381 . S
C3804 C3810 1.383 . S
C3805 C3801 1.495 . S
C3805 H3811 0.959 . S
C3805 H3812 0.961 . S
C3805 H3813 0.960 . S
C3806 C3804 1.381 . S
C3806 C3807 1.394 . S
C3806 H3814 0.930 . S
C3807 C3806 1.394 . S
C3807 C3808 1.383 . S
C3807 H3815 0.929 . S
C3808 C3807 1.383 . S
C3808 C3809 1.377 . S
C3809 H3793 0.930 . S
C3809 C3808 1.377 . S
C3809 C3810 1.379 . S
C3810 H3794 0.931 . S
C3810 C3804 1.383 . S
C3810 C3809 1.379 . S
H3811 C3805 0.959 . S
H3812 C3805 0.961 . S
H3813 C3805 0.960 . S
H3814 C3806 0.930 . S
H3815 C3807 0.929 . S
H3816 C3824 0.929 . S
H3817 C3826 0.930 . S
H3818 C3828 0.930 . S
H3819 C3831 0.929 . S
H3820 C3834 0.930 . S
H3821 C3836 0.960 . S
H3822 C3836 0.960 . S
H3823 C3836 0.960 . S
C3824 H3816 0.929 . S
C3824 C3825 1.377 . S
C3824 C3826 1.384 . S
C3825 C3824 1.377 . S
C3825 C3831 1.390 . S
C3826 H3817 0.930 . S
C3826 C3824 1.384 . S
C3826 C3827 1.372 . S
C3827 C3826 1.372 . S
C3827 C3828 1.400 . S
C3827 C3832 1.490 . S
C3828 H3818 0.930 . S
C3828 C3827 1.400 . S
C3828 C3831 1.386 . S
H3829 C3845 0.930 . S
H3830 C3846 0.931 . S
C3831 H3819 0.929 . S
C3831 C3825 1.390 . S
C3831 C3828 1.386 . S
C3832 C3827 1.490 . S
C3832 C3834 1.395 . S
C3832 C3835 1.403 . S
H3833 C3839 0.930 . S
C3834 H3820 0.930 . S
C3834 C3832 1.395 . S
C3834 C3837 1.403 . S
C3835 C3832 1.403 . S
C3835 C3836 1.524 . S
C3835 C3839 1.400 . S
C3836 H3821 0.960 . S
C3836 H3822 0.960 . S
C3836 H3823 0.960 . S
C3836 C3835 1.524 . S
C3837 C3834 1.403 . S
C3837 C3838 1.392 . S
C3837 C3841 1.495 . S
C3838 C3837 1.392 . S
C3838 C3839 1.385 . S
C3838 C3840 1.478 . S
C3839 H3833 0.930 . S
C3839 C3835 1.400 . S
C3839 C3838 1.385 . S
C3840 C3838 1.478 . S
C3840 C3842 1.381 . S
C3840 C3846 1.383 . S
C3841 C3837 1.495 . S
C3841 H3847 0.959 . S
C3841 H3848 0.961 . S
C3841 H3849 0.960 . S
C3842 C3840 1.381 . S
C3842 C3843 1.394 . S
C3842 H3850 0.930 . S
C3843 C3842 1.394 . S
C3843 C3844 1.383 . S
C3843 H3851 0.929 . S
C3844 C3843 1.383 . S
C3844 C3845 1.377 . S
C3845 H3829 0.930 . S
C3845 C3844 1.377 . S
C3845 C3846 1.379 . S
C3846 H3830 0.931 . S
C3846 C3840 1.383 . S
C3846 C3845 1.379 . S
H3847 C3841 0.959 . S
H3848 C3841 0.961 . S
H3849 C3841 0.960 . S
H3850 C3842 0.930 . S
H3851 C3843 0.929 . S
H3852 C3860 0.929 . S
H3853 C3862 0.930 . S
H3854 C3864 0.930 . S
H3855 C3867 0.929 . S
H3856 C3870 0.930 . S
H3857 C3872 0.960 . S
H3858 C3872 0.960 . S
H3859 C3872 0.960 . S
C3860 H3852 0.929 . S
C3860 C3861 1.377 . S
C3860 C3862 1.384 . S
C3861 C3860 1.377 . S
C3861 C3867 1.390 . S
C3862 H3853 0.930 . S
C3862 C3860 1.384 . S
C3862 C3863 1.372 . S
C3863 C3862 1.372 . S
C3863 C3864 1.400 . S
C3863 C3868 1.490 . S
C3864 H3854 0.930 . S
C3864 C3863 1.400 . S
C3864 C3867 1.386 . S
H3865 C3881 0.930 . S
H3866 C3882 0.931 . S
C3867 H3855 0.929 . S
C3867 C3861 1.390 . S
C3867 C3864 1.386 . S
C3868 C3863 1.490 . S
C3868 C3870 1.395 . S
C3868 C3871 1.403 . S
H3869 C3875 0.930 1_455 S
C3870 H3856 0.930 . S
C3870 C3868 1.395 . S
C3870 C3873 1.403 . S
C3871 C3868 1.403 . S
C3871 C3872 1.524 1_655 S
C3871 C3875 1.400 . S
C3872 H3857 0.960 . S
C3872 H3858 0.960 . S
C3872 H3859 0.960 . S
C3872 C3871 1.524 1_455 S
C3873 C3870 1.403 . S
C3873 C3874 1.392 . S
C3873 C3877 1.495 . S
C3874 C3873 1.392 . S
C3874 C3875 1.385 . S
C3874 C3876 1.478 . S
C3875 H3869 0.930 1_655 S
C3875 C3871 1.400 . S
C3875 C3874 1.385 . S
C3876 C3874 1.478 . S
C3876 C3878 1.381 . S
C3876 C3882 1.383 . S
C3877 C3873 1.495 . S
C3877 H3883 0.959 . S
C3877 H3884 0.961 . S
C3877 H3885 0.960 . S
C3878 C3876 1.381 . S
C3878 C3879 1.394 . S
C3878 H3886 0.930 . S
C3879 C3878 1.394 . S
C3879 C3880 1.383 . S
C3879 H3887 0.929 . S
C3880 C3879 1.383 . S
C3880 C3881 1.377 . S
C3881 H3865 0.930 . S
C3881 C3880 1.377 . S
C3881 C3882 1.379 . S
C3882 H3866 0.931 . S
C3882 C3876 1.383 . S
C3882 C3881 1.379 . S
H3883 C3877 0.959 . S
H3884 C3877 0.961 . S
H3885 C3877 0.960 . S
H3886 C3878 0.930 . S
H3887 C3879 0.929 . S
H3888 C3896 0.929 . S
H3889 C3898 0.930 . S
H3890 C3900 0.930 . S
H3891 C3903 0.929 . S
H3892 C3906 0.930 . S
H3893 C3908 0.960 . S
H3894 C3908 0.960 . S
H3895 C3908 0.960 . S
C3896 H3888 0.929 . S
C3896 C3897 1.377 . S
C3896 C3898 1.384 . S
C3897 C3896 1.377 . S
C3897 C3903 1.390 . S
C3898 H3889 0.930 . S
C3898 C3896 1.384 . S
C3898 C3899 1.372 . S
C3899 C3898 1.372 . S
C3899 C3900 1.400 . S
C3899 C3904 1.490 . S
C3900 H3890 0.930 . S
C3900 C3899 1.400 . S
C3900 C3903 1.386 . S
H3901 C3917 0.930 . S
H3902 C3918 0.931 . S
C3903 H3891 0.929 . S
C3903 C3897 1.390 . S
C3903 C3900 1.386 . S
C3904 C3899 1.490 . S
C3904 C3906 1.395 . S
C3904 C3907 1.403 . S
H3905 C3911 0.930 . S
C3906 H3892 0.930 . S
C3906 C3904 1.395 . S
C3906 C3909 1.403 . S
C3907 C3904 1.403 . S
C3907 C3908 1.524 . S
C3907 C3911 1.400 . S
C3908 H3893 0.960 . S
C3908 H3894 0.960 . S
C3908 H3895 0.960 . S
C3908 C3907 1.524 . S
C3909 C3906 1.403 . S
C3909 C3910 1.392 . S
C3909 C3913 1.495 . S
C3910 C3909 1.392 . S
C3910 C3911 1.385 . S
C3910 C3912 1.478 . S
C3911 H3905 0.930 . S
C3911 C3907 1.400 . S
C3911 C3910 1.385 . S
C3912 C3910 1.478 . S
C3912 C3914 1.381 . S
C3912 C3918 1.383 . S
C3913 C3909 1.495 . S
C3913 H3919 0.959 . S
C3913 H3920 0.961 . S
C3913 H3921 0.960 . S
C3914 C3912 1.381 . S
C3914 C3915 1.394 . S
C3914 H3922 0.930 . S
C3915 C3914 1.394 . S
C3915 C3916 1.383 . S
C3915 H3923 0.929 . S
C3916 C3915 1.383 . S
C3916 C3917 1.377 . S
C3917 H3901 0.930 . S
C3917 C3916 1.377 . S
C3917 C3918 1.379 . S
C3918 H3902 0.931 . S
C3918 C3912 1.383 . S
C3918 C3917 1.379 . S
H3919 C3913 0.959 . S
H3920 C3913 0.961 . S
H3921 C3913 0.960 . S
H3922 C3914 0.930 . S
H3923 C3915 0.929 . S
H3924 C3932 0.929 . S
H3925 C3934 0.930 . S
H3926 C3936 0.930 . S
H3927 C3939 0.929 . S
H3928 C3942 0.930 . S
H3929 C3944 0.960 . S
H3930 C3944 0.960 . S
H3931 C3944 0.960 . S
C3932 H3924 0.929 . S
C3932 C3933 1.377 . S
C3932 C3934 1.384 . S
C3933 C3932 1.377 . S
C3933 C3939 1.390 . S
C3934 H3925 0.930 . S
C3934 C3932 1.384 . S
C3934 C3935 1.372 . S
C3935 C3934 1.372 . S
C3935 C3936 1.400 . S
C3935 C3940 1.490 . S
C3936 H3926 0.930 . S
C3936 C3935 1.400 . S
C3936 C3939 1.386 . S
H3937 C3953 0.930 . S
H3938 C3954 0.931 . S
C3939 H3927 0.929 . S
C3939 C3933 1.390 . S
C3939 C3936 1.386 . S
C3940 C3935 1.490 . S
C3940 C3942 1.395 . S
C3940 C3943 1.403 . S
H3941 C3947 0.930 . S
C3942 H3928 0.930 . S
C3942 C3940 1.395 . S
C3942 C3945 1.403 . S
C3943 C3940 1.403 . S
C3943 C3944 1.524 . S
C3943 C3947 1.400 . S
C3944 H3929 0.960 . S
C3944 H3930 0.960 . S
C3944 H3931 0.960 . S
C3944 C3943 1.524 . S
C3945 C3942 1.403 . S
C3945 C3946 1.392 . S
C3945 C3949 1.495 . S
C3946 C3945 1.392 . S
C3946 C3947 1.385 . S
C3946 C3948 1.478 . S
C3947 H3941 0.930 . S
C3947 C3943 1.400 . S
C3947 C3946 1.385 . S
C3948 C3946 1.478 . S
C3948 C3950 1.381 . S
C3948 C3954 1.383 1_545 S
C3949 C3945 1.495 . S
C3949 H3955 0.959 . S
C3949 H3956 0.961 1_545 S
C3949 H3957 0.960 . S
C3950 C3948 1.381 . S
C3950 C3951 1.394 . S
C3950 H3958 0.930 . S
C3951 C3950 1.394 . S
C3951 C3952 1.383 . S
C3951 H3959 0.929 . S
C3952 C3951 1.383 . S
C3952 C3953 1.377 1_545 S
C3953 H3937 0.930 . S
C3953 C3952 1.377 1_565 S
C3953 C3954 1.379 . S
C3954 H3938 0.931 . S
C3954 C3948 1.383 1_565 S
C3954 C3953 1.379 . S
H3955 C3949 0.959 . S
H3956 C3949 0.961 1_565 S
H3957 C3949 0.960 . S
H3958 C3950 0.930 . S
H3959 C3951 0.929 . S
C1377 C7 1.546 . S
C1396 C857 1.520 . S
C1413 C23 1.618 . S
C1432 C901 1.598 . S
C1468 C981 1.503 . S
C1449 C37 1.579 . S
C1485 C35 1.558 . S
C1504 C1025 1.564 . S
C1521 C9 1.584 . S
C1540 C1105 1.516 . S
C1557 C21 1.602 . S
C1576 C1167 1.585 . S
C1593 C49 1.532 . S
C1612 C1087 1.486 . S
C1648 C1149 1.551 . S
C1629 C65 1.618 . S
C1684 C1043 1.586 . S
C1665 C79 1.603 1_565 S
C1701 C77 1.536 . S
C1720 C963 1.479 . S
C1756 C839 1.566 . S
C1737 C51 1.619 1_655 S
C1773 C63 1.598 . S
C1792 C919 1.594 . S
C1809 C91 1.652 . S
C1828 C1229 1.642 . S
C1845 C107 1.663 . S
C1864 C1273 1.623 . S
C1900 C1353 1.587 . S
C1881 C121 1.692 . S
C1917 C119 1.650 . S
C1936 C299 1.622 . S
C1953 C93 1.689 . S
C1972 C343 1.624 . S
C1989 C105 1.633 . S
C2008 C423 1.620 . S
C2025 C133 1.594 . S
C2044 C361 1.597 . S
C2061 C149 1.658 . S
C2080 C405 1.617 . S
C2116 C281 1.593 . S
C2097 C163 1.686 . S
C2152 C1335 1.624 . S
C2133 C161 1.690 . S
C2188 C1211 1.615 . S
C2169 C135 1.673 . S
C2224 C1291 1.656 . S
C2205 C147 1.653 . S
C2241 C175 1.607 . S
C2260 C485 1.571 . S
C2277 C191 1.647 . S
C2296 C547 1.603 . S
C2313 C205 1.683 . S
C2332 C591 1.663 . S
C2349 C203 1.685 . S
C2368 C653 1.675 . S
C2404 C715 1.662 . S
C2385 C177 1.684 . S
C2440 C795 1.647 . S
C2421 C189 1.656 . S
C2476 C733 1.631 . S
C2457 C217 1.658 . S
C2512 C777 1.581 . S
C2493 C233 1.670 . S
C2529 C247 1.684 . S
C2548 C671 1.628 . S
C2584 C609 1.642 . S
C2565 C245 1.642 . S
C2601 C219 1.682 . S
C2620 C467 1.609 . S
C2656 C529 1.625 . S
C2637 C231 1.634 . S
C2692 C305 1.519 . S
C2673 C8 1.577 . S
C2709 C17 1.526 . S
C2728 C349 1.455 . S
C2764 C429 1.505 . S
C2745 C31 1.574 . S
C2800 C491 1.527 . S
C2781 C36 1.593 1_556 S
C2836 C553 1.465 . S
C2817 C3 1.555 1_556 S
C2872 C597 1.488 . S
C2853 C22 1.534 1_556 S
C2889 C50 1.573 1_556 S
C2908 C615 1.512 . S
C2925 C59 1.532 . S
C2944 C473 1.419 . S
C2961 C73 1.548 1_556 S
C2980 C535 1.464 . S
C2997 C78 1.616 . S
C3016 C367 1.552 . S
C3052 C411 1.487 . S
C3033 C45 1.543 . S
C3069 C64 1.536 . S
C3088 C287 1.488 . S
C3124 C659 1.523 . S
C3105 C92 1.571 . S
C3141 C101 1.617 1_545 S
C3160 C721 1.548 . S
C3177 C115 1.631 1_655 S
C3196 C801 1.531 . S
C3232 C863 1.445 . S
C3213 C120 1.486 . S
C3249 C87 1.556 . S
C3268 C907 1.497 . S
C3285 C106 1.440 . S
C3304 C987 1.399 . S
C3321 C134 1.460 . S
C3340 C969 1.418 . S
C3357 C143 1.470 . S
C3376 C845 1.385 . S
C3412 C925 1.503 . S
C3393 C157 1.571 . S
C3429 C162 1.587 . S
C3448 C739 1.514 . S
C3465 C129 1.624 1_545 S
C3484 C783 1.516 . S
C3520 C677 1.526 . S
C3501 C148 1.607 . S
C3556 C1031 1.450 . S
C3537 C176 1.470 . S
C3573 C185 1.465 . S
C3592 C1111 1.419 . S
C3609 C199 1.569 . S
C3628 C1173 1.493 . S
C3664 C1235 1.493 . S
C3645 C204 1.574 . S
C3700 C1279 1.559 . S
C3681 C171 1.626 1_565 S
C3717 C190 1.659 . S
C3736 C1359 1.525 . S
C3753 C218 1.580 . S
C3772 C1341 1.530 . S
C3789 C227 1.610 1_565 S
C3808 C1217 1.506 . S
C3844 C1297 1.580 . S
C3825 C241 1.619 1_455 S
C3880 C1093 1.405 . S
C3861 C246 1.475 . S
C3916 C1155 1.468 . S
C3897 C213 1.562 . S
C3933 C232 1.455 . S
C3952 C1049 1.430 . S
