# Generated by pormake.
# Topology csq, (4,8)-cn, num edge types: 1
# Building blocks:
#     Node 0, Type 0, BuildingBlock: KUFVIS_clean_linker_0, # of connection points: 4
#     Node 1, Type 0, BuildingBlock: KUFVIS_clean_linker_0, # of connection points: 4
#     Node 2, Type 0, BuildingBlock: KUFVIS_clean_linker_0, # of connection points: 4
#     Node 3, Type 0, BuildingBlock: KUFVIS_clean_linker_0, # of connection points: 4
#     Node 4, Type 0, BuildingBlock: KUFVIS_clean_linker_0, # of connection points: 4
#     Node 5, Type 0, BuildingBlock: KUFVIS_clean_linker_0, # of connection points: 4
#     Node 6, Type 1, BuildingBlock: TAGTUT_clean_sbu_1, # of connection points: 8
#     Node 7, Type 1, BuildingBlock: TAGTUT_clean_sbu_1, # of connection points: 8
#     Node 8, Type 1, BuildingBlock: TAGTUT_clean_sbu_1, # of connection points: 8
#     Edge 9, Type (0, 1), BuildingBlock: MIFKUJ_clean_linker_0, # of connection points: 2
#     Edge 10, Type (0, 1), BuildingBlock: MIFKUJ_clean_linker_0, # of connection points: 2
#     Edge 11, Type (0, 1), BuildingBlock: MIFKUJ_clean_linker_0, # of connection points: 2
#     Edge 12, Type (0, 1), BuildingBlock: MIFKUJ_clean_linker_0, # of connection points: 2
#     Edge 13, Type (0, 1), BuildingBlock: MIFKUJ_clean_linker_0, # of connection points: 2
#     Edge 14, Type (0, 1), BuildingBlock: MIFKUJ_clean_linker_0, # of connection points: 2
#     Edge 15, Type (0, 1), BuildingBlock: MIFKUJ_clean_linker_0, # of connection points: 2
#     Edge 16, Type (0, 1), BuildingBlock: MIFKUJ_clean_linker_0, # of connection points: 2
#     Edge 17, Type (0, 1), BuildingBlock: MIFKUJ_clean_linker_0, # of connection points: 2
#     Edge 18, Type (0, 1), BuildingBlock: MIFKUJ_clean_linker_0, # of connection points: 2
#     Edge 19, Type (0, 1), BuildingBlock: MIFKUJ_clean_linker_0, # of connection points: 2
#     Edge 20, Type (0, 1), BuildingBlock: MIFKUJ_clean_linker_0, # of connection points: 2
#     Edge 21, Type (0, 1), BuildingBlock: MIFKUJ_clean_linker_0, # of connection points: 2
#     Edge 22, Type (0, 1), BuildingBlock: MIFKUJ_clean_linker_0, # of connection points: 2
#     Edge 23, Type (0, 1), BuildingBlock: MIFKUJ_clean_linker_0, # of connection points: 2
#     Edge 24, Type (0, 1), BuildingBlock: MIFKUJ_clean_linker_0, # of connection points: 2
#     Edge 25, Type (0, 1), BuildingBlock: MIFKUJ_clean_linker_0, # of connection points: 2
#     Edge 26, Type (0, 1), BuildingBlock: MIFKUJ_clean_linker_0, # of connection points: 2
#     Edge 27, Type (0, 1), BuildingBlock: MIFKUJ_clean_linker_0, # of connection points: 2
#     Edge 28, Type (0, 1), BuildingBlock: MIFKUJ_clean_linker_0, # of connection points: 2
#     Edge 29, Type (0, 1), BuildingBlock: MIFKUJ_clean_linker_0, # of connection points: 2
#     Edge 30, Type (0, 1), BuildingBlock: MIFKUJ_clean_linker_0, # of connection points: 2
#     Edge 31, Type (0, 1), BuildingBlock: MIFKUJ_clean_linker_0, # of connection points: 2
#     Edge 32, Type (0, 1), BuildingBlock: MIFKUJ_clean_linker_0, # of connection points: 2
# Relax obj value: 0.043
# Max RMSD: 0.134
# Mean RMSD: 0.100
data_MOF--net-csq--node1-TAGTUT_clean_sbu_1--node2-KUFVIS_clean_linker_0--edge1-MIFKUJ_clean_linker_0
_symmetry_space_group_name_H-M    P1
_symmetry_Int_Tables_number       1
_symmetry_cell_setting            triclinic
loop_
_symmetry_equiv_pos_as_xyz
'x, y, z'
_cell_length_a     69.156289
_cell_length_b     68.616761
_cell_length_c     23.210189
_cell_angle_alpha  92.312829
_cell_angle_beta   91.884965
_cell_angle_gamma 119.92448
loop_
_atom_site_label
_atom_site_type_symbol
_atom_site_fract_x
_atom_site_fract_y
_atom_site_fract_z
_atom_type_partial_charge
H0 H 0.33433 0.51049 0.1814 0.0
H1 H 0.2813 0.51437 0.26084 0.0
H2 H 0.27799 0.50033 0.07564 0.0
H3 H 0.25619 0.51405 0.07167 0.0
H4 H 0.19806 0.50763 0.14627 0.0
H5 H 0.24509 0.49924 0.25196 0.0
C6 C 0.31841 0.50998 0.17742 0.0
C7 C 0.30779 0.50641 0.1225 0.0
C8 C 0.3087 0.51237 0.22731 0.0
C9 C 0.28787 0.51128 0.22211 0.0
C10 C 0.27618 0.50704 0.16771 0.0
C11 C 0.28634 0.50409 0.11812 0.0
C12 C 0.25407 0.50668 0.16263 0.0
C13 C 0.24645 0.5105 0.10926 0.0
C14 C 0.22625 0.51047 0.10357 0.0
C15 C 0.21352 0.50725 0.15137 0.0
C16 C 0.22025 0.50337 0.20519 0.0
C17 C 0.24048 0.50298 0.21064 0.0
H18 H 0.69207 0.18868 0.12208 0.0
H19 H 0.7484 0.24376 0.21569 0.0
H20 H 0.74971 0.23131 0.03165 0.0
H21 H 0.77514 0.26677 0.03334 0.0
H22 H 0.83682 0.31154 0.12822 0.0
H23 H 0.78426 0.2599 0.21639 0.0
C24 C 0.70864 0.20337 0.12254 0.0
C25 C 0.71932 0.20953 0.07068 0.0
C26 C 0.71932 0.2153 0.1751 0.0
C27 C 0.74098 0.23406 0.17519 0.0
C28 C 0.75259 0.24035 0.12379 0.0
C29 C 0.74144 0.2275 0.07177 0.0
C30 C 0.77612 0.26008 0.12455 0.0
C31 C 0.78508 0.27147 0.07373 0.0
C32 C 0.80704 0.28977 0.07516 0.0
C33 C 0.82003 0.29708 0.12699 0.0
C34 C 0.81158 0.28661 0.17764 0.0
C35 C 0.78992 0.26801 0.17652 0.0
H36 H 0.51512 0.82675 0.0573 0.0
H37 H 0.52808 0.78019 0.14356 0.0
H38 H 0.50875 0.76934 0.95996 0.0
H39 H 0.52777 0.75081 0.96212 0.0
H40 H 0.51806 0.6926 0.0464 0.0
H41 H 0.50961 0.7425 0.14058 0.0
C42 C 0.51549 0.81109 0.05582 0.0
C43 C 0.51155 0.79894 0.00303 0.0
C44 C 0.52119 0.80423 0.1062 0.0
C45 C 0.52282 0.7847 0.10429 0.0
C46 C 0.51784 0.7713 0.05204 0.0
C47 C 0.5125 0.77891 0.00102 0.0
C48 C 0.51826 0.7496 0.0511 0.0
C49 C 0.52329 0.74131 0.00035 0.0
C50 C 0.52273 0.72062 0.99876 0.0
C51 C 0.51785 0.70834 0.04784 0.0
C52 C 0.51358 0.71634 0.09921 0.0
C53 C 0.51362 0.73688 0.10086 0.0
H54 H 0.84033 0.52814 0.06964 0.0
H55 H 0.78558 0.52698 0.15182 0.0
H56 H 0.78233 0.51497 0.96557 0.0
H57 H 0.75841 0.52627 0.96426 0.0
H58 H 0.69918 0.51511 0.04382 0.0
H59 H 0.74982 0.51124 0.14472 0.0
C60 C 0.82386 0.5264 0.06594 0.0
C61 C 0.81288 0.52247 0.01132 0.0
C62 C 0.81371 0.52739 0.11619 0.0
C63 C 0.79234 0.52494 0.11222 0.0
C64 C 0.78039 0.52065 0.05819 0.0
C65 C 0.79088 0.51888 0.00782 0.0
C66 C 0.75754 0.51875 0.05471 0.0
C67 C 0.74883 0.52196 0.00222 0.0
C68 C 0.72782 0.52042 0.99799 0.0
C69 C 0.71538 0.51621 0.04703 0.0
C70 C 0.7235 0.51339 0.10022 0.0
C71 C 0.74438 0.51437 0.10375 0.0
H72 H 0.33002 0.82442 0.10198 0.0
H73 H 0.27712 0.7737 0.19256 0.0
H74 H 0.2708 0.77376 0.0063 0.0
H75 H 0.25086 0.73684 0.01208 0.0
H76 H 0.19202 0.69272 0.09643 0.0
H77 H 0.23996 0.75545 0.18413 0.0
C78 C 0.31369 0.80935 0.10103 0.0
C79 C 0.3017 0.79965 0.04795 0.0
C80 C 0.30456 0.80036 0.15307 0.0
C81 C 0.28337 0.78097 0.15202 0.0
C82 C 0.27085 0.77072 0.09927 0.0
C83 C 0.28012 0.78073 0.04743 0.0
C84 C 0.24867 0.74928 0.09829 0.0
C85 C 0.24102 0.73367 0.04947 0.0
C86 C 0.22067 0.71336 0.04895 0.0
C87 C 0.2079 0.70835 0.09712 0.0
C88 C 0.21491 0.72332 0.14573 0.0
C89 C 0.23513 0.74385 0.14643 0.0
H90 H 0.48961 0.31001 0.1623 0.0
H91 H 0.48773 0.25654 0.25471 0.0
H92 H 0.51342 0.26917 0.08354 0.0
H93 H 0.4996 0.23182 0.07919 0.0
H94 H 0.51391 0.18853 0.17718 0.0
H95 H 0.50948 0.24177 0.26608 0.0
C96 C 0.49244 0.29582 0.16376 0.0
C97 C 0.50155 0.29058 0.1171 0.0
C98 C 0.48787 0.28382 0.2133 0.0
C99 C 0.49185 0.26578 0.21608 0.0
C100 C 0.50077 0.25972 0.16914 0.0
C101 C 0.50576 0.27258 0.11955 0.0
C102 C 0.50481 0.24016 0.17195 0.0
C103 C 0.50383 0.22779 0.12064 0.0
C104 C 0.50777 0.20966 0.12236 0.0
C105 C 0.51199 0.20327 0.17556 0.0
C106 C 0.51204 0.2144 0.22712 0.0
C107 C 0.50883 0.23306 0.22555 0.0
C108 C 0.98783 0.44949 0.77538 0.0
C109 C 0.05603 0.48915 0.71704 0.0
C110 C 0.03823 0.55445 0.68853 0.0
Mg111 Mg 0.00966 0.46004 0.65668 0.0
O112 O 1.00336 0.48358 0.6682 0.0
Mg113 Mg 0.01666 0.504 0.7401 0.0
Mg114 Mg 0.01239 0.50643 0.60982 0.0
O115 O 0.02143 0.52939 0.5516 0.0
Mg116 Mg 0.01551 0.55311 0.56479 0.0
Mg117 Mg 0.00663 0.50864 0.48098 0.0
C118 C 0.98813 0.45891 0.53118 0.0
C119 C 0.04821 0.50227 0.52643 0.0
O120 O 0.99632 0.47077 0.78842 0.0
O121 O 0.99103 0.44187 0.72745 0.0
O122 O 0.0476 0.49989 0.74184 0.0
O123 O 0.04489 0.47334 0.67807 0.0
O124 O 0.99458 0.44948 0.56809 0.0
O125 O 0.99113 0.47883 0.54094 0.0
C126 C 0.9759 0.51061 0.69059 0.0
O127 O 0.98185 0.51002 0.63887 0.0
O128 O 0.9865 0.50877 0.73426 0.0
O129 O 0.02584 0.54147 0.43107 0.0
O130 O 0.03178 0.57097 0.49081 0.0
O131 O 0.97549 0.51288 0.48376 0.0
C132 C 0.03391 0.56276 0.44244 0.0
O133 O 0.9801 0.53949 0.55025 0.0
O134 O 0.03245 0.56428 0.6512 0.0
C135 C 0.96793 0.52384 0.51181 0.0
O136 O 0.0334 0.53385 0.6798 0.0
O137 O 0.04295 0.50285 0.57905 0.0
O138 O 0.03697 0.50405 0.48403 0.0
C139 C 0.47134 0.01952 0.78266 0.0
C140 C 0.44769 0.95564 0.68511 0.0
C141 C 0.53358 0.97929 0.67799 0.0
Mg142 Mg 0.46569 0.00442 0.65199 0.0
O143 O 0.4953 0.01147 0.67135 0.0
Mg144 Mg 0.50048 0.99528 0.73471 0.0
Mg145 Mg 0.51135 0.00536 0.61071 0.0
O146 O 0.52751 0.99926 0.54989 0.0
Mg147 Mg 0.5575 0.00768 0.56905 0.0
Mg148 Mg 0.52155 0.01436 0.48523 0.0
C149 C 0.4901 0.03264 0.54391 0.0
C150 C 0.47434 0.97055 0.51209 0.0
O151 O 0.48454 0.01163 0.79173 0.0
O152 O 0.46232 0.01842 0.73259 0.0
O153 O 0.46596 0.96336 0.71609 0.0
O154 O 0.44417 0.96818 0.65219 0.0
O155 O 0.47306 0.02465 0.57528 0.0
O156 O 0.50582 0.02802 0.55179 0.0
C157 C 0.54829 0.03914 0.7111 0.0
O158 O 0.5435 0.0348 0.65648 0.0
O159 O 0.53474 0.0268 0.74787 0.0
O160 O 0.53799 0.99825 0.42901 0.0
O161 O 0.56154 0.99369 0.4892 0.0
O162 O 0.55546 0.04665 0.5008 0.0
C163 C 0.55217 0.99162 0.43897 0.0
O164 O 0.5781 0.04413 0.56685 0.0
O165 O 0.55067 0.98808 0.64681 0.0
C166 C 0.57387 0.05554 0.53146 0.0
O167 O 0.51693 0.98249 0.66896 0.0
O168 O 0.47911 0.97604 0.56624 0.0
O169 O 0.48768 0.98199 0.47396 0.0
C170 C 0.53785 0.56114 0.43814 0.0
C171 C 0.56884 0.52108 0.4849 0.0
C172 C 0.48495 0.45839 0.53315 0.0
Mg173 Mg 0.55496 0.55132 0.55363 0.0
O174 O 0.52495 0.52823 0.54828 0.0
Mg175 Mg 0.51383 0.50714 0.4774 0.0
Mg176 Mg 0.51289 0.5063 0.60929 0.0
O177 O 0.5005 0.48417 0.66966 0.0
Mg178 Mg 0.47037 0.46121 0.66236 0.0
Mg179 Mg 0.51088 0.5051 0.74048 0.0
C180 C 0.54102 0.5543 0.68433 0.0
C181 C 0.55442 0.50752 0.68254 0.0
O182 O 0.5248 0.53978 0.42684 0.0
O183 O 0.55065 0.56915 0.4845 0.0
O184 O 0.54839 0.50972 0.46543 0.0
O185 O 0.57528 0.53731 0.52345 0.0
O186 O 0.55479 0.56262 0.64404 0.0
O187 O 0.52339 0.53466 0.67804 0.0
C188 C 0.47038 0.50376 0.53757 0.0
O189 O 0.47914 0.50451 0.58775 0.0
O190 O 0.48035 0.50447 0.49156 0.0
O191 O 0.49901 0.47226 0.79121 0.0
O192 O 0.47375 0.4431 0.73207 0.0
O193 O 0.47622 0.5028 0.74976 0.0
C194 C 0.486 0.45093 0.77932 0.0
O195 O 0.44996 0.47539 0.68995 0.0
O196 O 0.47081 0.44975 0.57243 0.0
C197 C 0.45597 0.49151 0.72858 0.0
O198 O 0.50245 0.47802 0.54039 0.0
O199 O 0.54667 0.50793 0.63183 0.0
O200 O 0.5439 0.50674 0.72757 0.0
H201 H 0.23168 0.52402 0.31547 0.0
H202 H 0.2059 0.52369 0.38683 0.0
H203 H 0.1498 0.47517 0.27539 0.0
H204 H 0.17525 0.47526 0.205 0.0
H205 H 0.14798 0.5138 0.30453 0.0
H206 H 0.16161 0.45975 0.40573 0.0
H207 H 0.18635 0.44864 0.45568 0.0
H208 H 0.21082 0.50638 0.57583 0.0
H209 H 0.18637 0.51792 0.52617 0.0
H210 H 0.04995 0.47791 0.43478 0.0
H211 H 0.0825 0.47819 0.39729 0.0
H212 H 0.12344 0.5213 0.54429 0.0
H213 H 0.09024 0.52055 0.58324 0.0
H214 H 0.13831 0.4923 0.50759 0.0
H215 H 0.12436 0.54499 0.42167 0.0
H216 H 0.1032 0.56079 0.37578 0.0
H217 H 0.08491 0.51352 0.22911 0.0
H218 H 0.10584 0.49716 0.2747 0.0
C219 C 0.21388 0.51279 0.30715 0.0
C220 C 0.20554 0.49982 0.25427 0.0
C221 C 0.19913 0.51267 0.34787 0.0
C222 C 0.17582 0.49953 0.3364 0.0
C223 C 0.16765 0.48558 0.28522 0.0
C224 C 0.18226 0.48563 0.24495 0.0
C225 C 0.15968 0.50169 0.37382 0.0
C226 C 0.14574 0.50885 0.34873 0.0
C227 C 0.15757 0.49661 0.43264 0.0
C228 C 0.17228 0.48973 0.46216 0.0
C229 C 0.17238 0.47013 0.4426 0.0
C230 C 0.18632 0.46375 0.47087 0.0
C231 C 0.20017 0.47682 0.51884 0.0
C232 C 0.20013 0.49631 0.53859 0.0
C233 C 0.18624 0.50277 0.5104 0.0
C234 C 0.06577 0.48715 0.45986 0.0
C235 C 0.06752 0.49943 0.51165 0.0
C236 C 0.08446 0.48738 0.43818 0.0
C237 C 0.10568 0.50029 0.46687 0.0
C238 C 0.10733 0.51136 0.52092 0.0
C239 C 0.08835 0.51089 0.54326 0.0
C240 C 0.12584 0.50326 0.4371 0.0
C241 C 0.14062 0.49734 0.46354 0.0
C242 C 0.12929 0.51017 0.37974 0.0
C243 C 0.11649 0.51971 0.35192 0.0
C244 C 0.11566 0.53781 0.37986 0.0
C245 C 0.10372 0.5469 0.35381 0.0
C246 C 0.0926 0.53815 0.29957 0.0
C247 C 0.09349 0.52028 0.27119 0.0
C248 C 0.10542 0.51109 0.2971 0.0
H249 H 0.08337 0.54526 0.2795 0.0
H250 H 0.21092 0.47183 0.54075 0.0
H251 H 0.73729 0.21116 0.27788 0.0
H252 H 0.71716 0.19198 0.36159 0.0
H253 H 0.65545 0.18085 0.27843 0.0
H254 H 0.67556 0.20067 0.1958 0.0
H255 H 0.65568 0.18854 0.39253 0.0
H256 H 0.67196 0.14121 0.26615 0.0
H257 H 0.69673 0.13132 0.21407 0.0
H258 H 0.73082 0.13391 0.37472 0.0
H259 H 0.70641 0.14411 0.42767 0.0
H260 H 0.56881 0.08458 0.46453 0.0
H261 H 0.59787 0.11888 0.42811 0.0
H262 H 0.64766 0.1143 0.53435 0.0
H263 H 0.61835 0.07909 0.57019 0.0
H264 H 0.65919 0.11952 0.42785 0.0
H265 H 0.63586 0.159 0.55481 0.0
H266 H 0.60876 0.16653 0.60276 0.0
H267 H 0.58588 0.17704 0.439 0.0
H268 H 0.61259 0.16921 0.38987 0.0
C269 C 0.71954 0.20519 0.27815 0.0
C270 C 0.70797 0.20716 0.22977 0.0
C271 C 0.70802 0.19406 0.32585 0.0
C272 C 0.68469 0.18456 0.32588 0.0
C273 C 0.6734 0.18791 0.27939 0.0
C274 C 0.6849 0.19908 0.23189 0.0
C275 C 0.67163 0.16933 0.3711 0.0
C276 C 0.65646 0.17346 0.40044 0.0
C277 C 0.67296 0.14989 0.3825 0.0
C278 C 0.68758 0.14371 0.35075 0.0
C279 C 0.68486 0.13983 0.29029 0.0
C280 C 0.69881 0.13415 0.26064 0.0
C281 C 0.71539 0.13207 0.29105 0.0
C282 C 0.71801 0.13559 0.35121 0.0
C283 C 0.70413 0.14133 0.38107 0.0
C284 C 0.58585 0.09099 0.48134 0.0
C285 C 0.59122 0.07881 0.51985 0.0
C286 C 0.60254 0.11086 0.46063 0.0
C287 C 0.62505 0.1194 0.47857 0.0
C288 C 0.6304 0.10806 0.5198 0.0
C289 C 0.61363 0.08798 0.54046 0.0
C290 C 0.64283 0.13841 0.44868 0.0
C291 C 0.65883 0.13493 0.42171 0.0
C292 C 0.64208 0.15832 0.43918 0.0
C293 C 0.62627 0.1635 0.46864 0.0
C294 C 0.62501 0.16284 0.52897 0.0
C295 C 0.6097 0.16715 0.55636 0.0
C296 C 0.5956 0.17224 0.52393 0.0
C297 C 0.59683 0.17312 0.46406 0.0
C298 C 0.6121 0.1688 0.43643 0.0
H299 H 0.58372 0.17553 0.54521 0.0
H300 H 0.72617 0.12765 0.26802 0.0
H301 H 0.48171 0.67302 0.11258 0.0
H302 H 0.48413 0.64794 0.1806 0.0
H303 H 0.54253 0.70446 0.26735 0.0
H304 H 0.54015 0.7296 0.19868 0.0
H305 H 0.55107 0.67225 0.23198 0.0
H306 H 0.49381 0.67419 0.33615 0.0
H307 H 0.45752 0.67138 0.35289 0.0
H308 H 0.42332 0.60187 0.28992 0.0
H309 H 0.45939 0.60436 0.27167 0.0
H310 H 0.56523 0.60691 0.442 0.0
H311 H 0.55971 0.63409 0.39002 0.0
H312 H 0.50135 0.57979 0.29712 0.0
H313 H 0.50657 0.55234 0.34966 0.0
H314 H 0.49294 0.61185 0.3406 0.0
H315 H 0.54962 0.61065 0.22963 0.0
H316 H 0.58577 0.61299 0.21348 0.0
H317 H 0.62059 0.68081 0.28945 0.0
H318 H 0.58463 0.67877 0.3067 0.0
C319 C 0.49448 0.68021 0.14774 0.0
C320 C 0.51066 0.70325 0.15071 0.0
C321 C 0.4959 0.66585 0.18655 0.0
C322 C 0.51356 0.67425 0.22913 0.0
C323 C 0.52876 0.69758 0.23486 0.0
C324 C 0.52726 0.712 0.19611 0.0
C325 C 0.51782 0.65836 0.26179 0.0
C326 C 0.53849 0.65934 0.25676 0.0
C327 C 0.50115 0.64096 0.29238 0.0
C328 C 0.47936 0.63955 0.30195 0.0
C329 C 0.47856 0.65838 0.32512 0.0
C330 C 0.45801 0.65683 0.33502 0.0
C331 C 0.43813 0.63649 0.32226 0.0
C332 C 0.43874 0.61765 0.29958 0.0
C333 C 0.45924 0.61912 0.28948 0.0
C334 C 0.55137 0.60065 0.40995 0.0
C335 C 0.53634 0.57735 0.40013 0.0
C336 C 0.54826 0.61627 0.38014 0.0
C337 C 0.53013 0.60903 0.33953 0.0
C338 C 0.51543 0.58579 0.32838 0.0
C339 C 0.51856 0.5701 0.35812 0.0
C340 C 0.5261 0.62576 0.31051 0.0
C341 C 0.50551 0.62487 0.31608 0.0
C342 C 0.54277 0.64322 0.28019 0.0
C343 C 0.56443 0.64447 0.27 0.0
C344 C 0.56498 0.62599 0.24335 0.0
C345 C 0.58544 0.62728 0.23389 0.0
C346 C 0.60546 0.64701 0.25058 0.0
C347 C 0.60507 0.66552 0.27662 0.0
C348 C 0.58466 0.66432 0.28619 0.0
H349 H 0.62128 0.64798 0.24321 0.0
H350 H 0.42224 0.63529 0.33019 0.0
H351 H 0.79914 0.49993 0.20549 0.0
H352 H 0.82172 0.5006 0.29004 0.0
H353 H 0.87763 0.56215 0.23845 0.0
H354 H 0.8553 0.561 0.15308 0.0
H355 H 0.89011 0.53338 0.25296 0.0
H356 H 0.85008 0.55946 0.36484 0.0
H357 H 0.81709 0.55962 0.40144 0.0
H358 H 0.79546 0.49545 0.4715 0.0
H359 H 0.82817 0.49474 0.43459 0.0
H360 H 0.94908 0.54934 0.54368 0.0
H361 H 0.91749 0.5493 0.49293 0.0
H362 H 0.90471 0.49039 0.38757 0.0
H363 H 0.93627 0.49037 0.4374 0.0
H364 H 0.87148 0.52087 0.45782 0.0
H365 H 0.9051 0.50406 0.24739 0.0
H366 H 0.94026 0.50823 0.2128 0.0
H367 H 0.978 0.56151 0.34338 0.0
H368 H 0.94316 0.55822 0.37742 0.0
C369 C 0.81607 0.51388 0.21326 0.0
C370 C 0.8256 0.53034 0.17286 0.0
C371 C 0.82895 0.51431 0.2616 0.0
C372 C 0.85143 0.53142 0.27067 0.0
C373 C 0.8604 0.54869 0.23221 0.0
C374 C 0.84766 0.54808 0.18359 0.0
C375 C 0.86637 0.52989 0.31554 0.0
C376 C 0.88597 0.53074 0.29773 0.0
C377 C 0.86119 0.52662 0.37421 0.0
C378 C 0.84149 0.52696 0.39646 0.0
C379 C 0.83819 0.54529 0.38761 0.0
C380 C 0.81956 0.54549 0.4085 0.0
C381 C 0.80416 0.52753 0.43865 0.0
C382 C 0.80739 0.50934 0.44808 0.0
C383 C 0.82599 0.50904 0.42724 0.0
C384 C 0.93915 0.53597 0.51089 0.0
C385 C 0.94562 0.52028 0.49333 0.0
C386 C 0.92102 0.53592 0.48213 0.0
C387 C 0.90915 0.52017 0.43566 0.0
C388 C 0.91392 0.5029 0.42279 0.0
C389 C 0.93204 0.50298 0.45124 0.0
C390 C 0.89474 0.52398 0.39449 0.0
C391 C 0.87541 0.52353 0.41294 0.0
C392 C 0.90037 0.52823 0.33648 0.0
C393 C 0.92148 0.53067 0.31544 0.0
C394 C 0.92091 0.51675 0.26851 0.0
C395 C 0.94078 0.51897 0.24898 0.0
C396 C 0.96133 0.53499 0.27616 0.0
C397 C 0.96207 0.54902 0.32255 0.0
C398 C 0.94226 0.54702 0.3419 0.0
H399 H 0.97668 0.53661 0.26113 0.0
H400 H 0.78975 0.52772 0.4548 0.0
H401 H 0.2905 0.81534 0.24425 0.0
H402 H 0.3136 0.84 0.32816 0.0
H403 H 0.37021 0.83615 0.26949 0.0
H404 H 0.34729 0.81181 0.18543 0.0
H405 H 0.36681 0.83599 0.39417 0.0
H406 H 0.36452 0.87697 0.22822 0.0
H407 H 0.34469 0.88673 0.15483 0.0
H408 H 0.31651 0.90797 0.28871 0.0
H409 H 0.33593 0.89798 0.3629 0.0
H410 H 0.46911 0.93733 0.43563 0.0
H411 H 0.43409 0.90406 0.39874 0.0
H412 H 0.39697 0.92506 0.50527 0.0
H413 H 0.43219 0.95829 0.54317 0.0
H414 H 0.3836 0.91481 0.37836 0.0
H415 H 0.39241 0.88249 0.54444 0.0
H416 H 0.41224 0.87352 0.61951 0.0
H417 H 0.42698 0.8364 0.49218 0.0
H418 H 0.40753 0.84546 0.41603 0.0
C419 C 0.30772 0.81933 0.25021 0.0
C420 C 0.31722 0.81186 0.20839 0.0
C421 C 0.32087 0.8334 0.29798 0.0
C422 C 0.34361 0.83993 0.30482 0.0
C423 C 0.35268 0.83121 0.26511 0.0
C424 C 0.33965 0.81745 0.21701 0.0
C425 C 0.35873 0.85797 0.34856 0.0
C426 C 0.37044 0.8532 0.39103 0.0
C427 C 0.3629 0.8803 0.34554 0.0
C428 C 0.35141 0.88645 0.30101 0.0
C429 C 0.35393 0.88353 0.24196 0.0
C430 C 0.3428 0.88913 0.20024 0.0
C431 C 0.32929 0.89789 0.2171 0.0
C432 C 0.32694 0.90113 0.27572 0.0
C433 C 0.33799 0.89549 0.31761 0.0
C434 C 0.45348 0.93467 0.45163 0.0
C435 C 0.45324 0.95013 0.49259 0.0
C436 C 0.43356 0.91568 0.43081 0.0
C437 C 0.41303 0.91208 0.4497 0.0
C438 C 0.4127 0.9275 0.49068 0.0
C439 C 0.43276 0.94631 0.51255 0.0
C440 C 0.39212 0.89293 0.42288 0.0
C441 C 0.37946 0.89749 0.38305 0.0
C442 C 0.38692 0.87044 0.4289 0.0
C443 C 0.39862 0.8648 0.47436 0.0
C444 C 0.40004 0.87258 0.53227 0.0
C445 C 0.41118 0.86745 0.57509 0.0
C446 C 0.42089 0.85442 0.56061 0.0
C447 C 0.41944 0.84648 0.50331 0.0
C448 C 0.40833 0.85159 0.46029 0.0
H449 H 0.42951 0.85045 0.5938 0.0
H450 H 0.32069 0.90223 0.18474 0.0
H451 H 0.51323 0.30474 0.3112 0.0
H452 H 0.50995 0.3328 0.37231 0.0
H453 H 0.44603 0.31269 0.28561 0.0
H454 H 0.4495 0.28493 0.2238 0.0
H455 H 0.50587 0.36618 0.30537 0.0
H456 H 0.41799 0.32732 0.39185 0.0
H457 H 0.38977 0.29178 0.43014 0.0
H458 H 0.44147 0.27881 0.48968 0.0
H459 H 0.47002 0.31441 0.45251 0.0
H460 H 0.44763 0.42523 0.47276 0.0
H461 H 0.44546 0.39405 0.41224 0.0
H462 H 0.51727 0.42436 0.43415 0.0
H463 H 0.5195 0.45623 0.4893 0.0
H464 H 0.45252 0.36455 0.44516 0.0
H465 H 0.53977 0.40439 0.3455 0.0
H466 H 0.56562 0.4391 0.29965 0.0
H467 H 0.51099 0.44912 0.25024 0.0
H468 H 0.48477 0.41435 0.29523 0.0
C469 C 0.49796 0.30549 0.30751 0.0
C470 C 0.48151 0.29267 0.26344 0.0
C471 C 0.49622 0.32165 0.34184 0.0
C472 C 0.47782 0.3248 0.33303 0.0
C473 C 0.46024 0.31031 0.29326 0.0
C474 C 0.46212 0.29437 0.25839 0.0
C475 C 0.47875 0.34543 0.35745 0.0
C476 C 0.49444 0.366 0.33656 0.0
C477 C 0.4631 0.3448 0.39578 0.0
C478 C 0.44611 0.32343 0.41879 0.0
C479 C 0.42334 0.31692 0.41326 0.0
C480 C 0.40729 0.29676 0.43477 0.0
C481 C 0.41382 0.28301 0.46214 0.0
C482 C 0.43643 0.28942 0.46822 0.0
C483 C 0.45255 0.30957 0.44682 0.0
C484 C 0.46295 0.42561 0.46215 0.0
C485 C 0.48371 0.44311 0.48519 0.0
C486 C 0.46173 0.4077 0.4282 0.0
C487 C 0.48118 0.40669 0.41837 0.0
C488 C 0.50201 0.42486 0.43921 0.0
C489 C 0.50329 0.44313 0.47111 0.0
C490 C 0.4796 0.38569 0.39268 0.0
C491 C 0.46387 0.36497 0.41343 0.0
C492 C 0.49472 0.38606 0.35237 0.0
C493 C 0.51032 0.40684 0.32427 0.0
C494 C 0.53325 0.41393 0.3246 0.0
C495 C 0.54797 0.43364 0.29884 0.0
C496 C 0.53997 0.44635 0.27223 0.0
C497 C 0.51719 0.43932 0.27111 0.0
C498 C 0.50239 0.41963 0.29684 0.0
H499 H 0.55141 0.46163 0.25242 0.0
H500 H 0.40136 0.26741 0.47875 0.0
H501 H 0.47742 0.80647 0.97607 0.0
H502 H 0.47925 0.83509 0.91331 0.0
H503 H 0.54202 0.84539 0.85463 0.0
H504 H 0.54013 0.81668 0.9176 0.0
H505 H 0.54525 0.88398 0.90242 0.0
H506 H 0.49541 0.82442 0.76378 0.0
H507 H 0.46116 0.78959 0.72795 0.0
H508 H 0.42157 0.81971 0.77113 0.0
H509 H 0.45546 0.85447 0.80884 0.0
H510 H 0.56431 0.96641 0.70385 0.0
H511 H 0.55871 0.93414 0.75614 0.0
H512 H 0.49303 0.921 0.79703 0.0
H513 H 0.49829 0.95305 0.74329 0.0
H514 H 0.49051 0.88347 0.75814 0.0
H515 H 0.53698 0.9406 0.90263 0.0
H516 H 0.56958 0.97596 0.94336 0.0
H517 H 0.61325 0.95113 0.8959 0.0
H518 H 0.58092 0.91569 0.85435 0.0
C519 C 0.49102 0.81407 0.94758 0.0
C520 C 0.50849 0.80917 0.95101 0.0
C521 C 0.49216 0.83055 0.91202 0.0
C522 C 0.51084 0.84252 0.8794 0.0
C523 C 0.52745 0.83639 0.87944 0.0
C524 C 0.52623 0.81977 0.91474 0.0
C525 C 0.5144 0.86317 0.8516 0.0
C526 C 0.53347 0.88378 0.87003 0.0
C527 C 0.49849 0.86313 0.81151 0.0
C528 C 0.47801 0.842 0.78983 0.0
C529 C 0.47938 0.82352 0.76646 0.0
C530 C 0.46001 0.80377 0.74575 0.0
C531 C 0.43918 0.80237 0.7476 0.0
C532 C 0.43768 0.82073 0.77011 0.0
C533 C 0.45697 0.84046 0.7912 0.0
C534 C 0.5488 0.95697 0.7248 0.0
C535 C 0.53173 0.96241 0.71905 0.0
C536 C 0.54564 0.93846 0.75494 0.0
C537 C 0.52546 0.92507 0.78085 0.0
C538 C 0.50873 0.93098 0.77728 0.0
C539 C 0.51184 0.94948 0.74686 0.0
C540 C 0.52146 0.90422 0.80858 0.0
C541 C 0.5023 0.88364 0.79041 0.0
C542 C 0.53702 0.90429 0.84988 0.0
C543 C 0.55654 0.92557 0.87486 0.0
C544 C 0.55355 0.94275 0.90048 0.0
C545 C 0.57198 0.96279 0.92381 0.0
C546 C 0.59348 0.96582 0.92205 0.0
C547 C 0.59659 0.94877 0.89716 0.0
C548 C 0.57821 0.92868 0.8738 0.0
H549 H 0.60773 0.98136 0.94008 0.0
H550 H 0.42421 0.7871 0.73137 0.0
H551 H 0.70905 0.54639 0.97687 0.0
H552 H 0.6874 0.54477 0.88964 0.0
H553 H 0.70322 0.49769 0.80548 0.0
H554 H 0.72488 0.49916 0.89314 0.0
H555 H 0.69194 0.55023 0.76975 0.0
H556 H 0.65278 0.45524 0.74577 0.0
H557 H 0.64881 0.42351 0.80093 0.0
H558 H 0.65043 0.45905 0.95932 0.0
H559 H 0.6541 0.49078 0.90498 0.0
H560 H 0.58676 0.51547 0.60441 0.0
H561 H 0.62238 0.51614 0.62384 0.0
H562 H 0.60495 0.49936 0.79901 0.0
H563 H 0.57002 0.49853 0.78036 0.0
H564 H 0.62273 0.47542 0.75246 0.0
H565 H 0.63722 0.55428 0.76209 0.0
H566 H 0.63881 0.58646 0.71411 0.0
H567 H 0.68396 0.58436 0.59459 0.0
H568 H 0.68255 0.55213 0.64193 0.0
C569 C 0.7083 0.53606 0.93934 0.0
C570 C 0.71834 0.52264 0.94198 0.0
C571 C 0.69615 0.53535 0.88929 0.0
C572 C 0.69362 0.52103 0.84117 0.0
C573 C 0.70501 0.50887 0.84214 0.0
C574 C 0.71733 0.5097 0.8922 0.0
C575 C 0.67601 0.51605 0.7954 0.0
C576 C 0.677 0.53374 0.76475 0.0
C577 C 0.65657 0.49452 0.78847 0.0
C578 C 0.65403 0.47543 0.82142 0.0
C579 C 0.65225 0.45621 0.79235 0.0
C580 C 0.65004 0.43824 0.82346 0.0
C581 C 0.64946 0.4393 0.88361 0.0
C582 C 0.65096 0.45828 0.91277 0.0
C583 C 0.65311 0.47625 0.88185 0.0
C584 C 0.59055 0.5118 0.64683 0.0
C585 C 0.57562 0.50723 0.69098 0.0
C586 C 0.61084 0.51214 0.6578 0.0
C587 C 0.61627 0.50774 0.71289 0.0
C588 C 0.60107 0.50261 0.75606 0.0
C589 C 0.5811 0.50237 0.74536 0.0
C590 C 0.63818 0.50986 0.72915 0.0
C591 C 0.63809 0.49159 0.7545 0.0
C592 C 0.65822 0.53091 0.73193 0.0
C593 C 0.65952 0.55064 0.70486 0.0
C594 C 0.64741 0.56065 0.72543 0.0
C595 C 0.6483 0.57891 0.69843 0.0
C596 C 0.6614 0.58739 0.65117 0.0
C597 C 0.67376 0.57773 0.63107 0.0
C598 C 0.67293 0.55948 0.65796 0.0
H599 H 0.66204 0.6015 0.63026 0.0
H600 H 0.64778 0.42539 0.90761 0.0
H601 H 0.20822 0.72162 0.94514 0.0
H602 H 0.1797 0.69286 0.87611 0.0
H603 H 0.1814 0.64076 0.97023 0.0
H604 H 0.20986 0.66948 0.03926 0.0
H605 H 0.17084 0.63055 0.8441 0.0
H606 H 0.14831 0.65578 0.01607 0.0
H607 H 0.15005 0.68594 0.08171 0.0
H608 H 0.1265 0.7093 0.94191 0.0
H609 H 0.12522 0.67963 0.87532 0.0
H610 H 0.06048 0.54269 0.76762 0.0
H611 H 0.09382 0.56857 0.82879 0.0
H612 H 0.0871 0.6246 0.77594 0.0
H613 H 0.0536 0.59895 0.71665 0.0
H614 H 0.10142 0.63228 0.88164 0.0
H615 H 0.11965 0.60559 0.70994 0.0
H616 H 0.12023 0.57802 0.63968 0.0
H617 H 0.15398 0.56024 0.76754 0.0
H618 H 0.15255 0.58681 0.83955 0.0
C619 C 0.20336 0.70411 0.94916 0.0
C620 C 0.21108 0.69764 0.99729 0.0
C621 C 0.18698 0.6877 0.91006 0.0
C622 C 0.17827 0.66474 0.91881 0.0
C623 C 0.18796 0.65839 0.96279 0.0
C624 C 0.20423 0.67478 0.00205 0.0
C625 C 0.1566 0.64774 0.88991 0.0
C626 C 0.15556 0.63068 0.85241 0.0
C627 C 0.13686 0.64829 0.9005 0.0
C628 C 0.13695 0.66569 0.94077 0.0
C629 C 0.14371 0.66749 0.99942 0.0
C630 C 0.14459 0.68446 0.03673 0.0
C631 C 0.13843 0.69954 0.01598 0.0
C632 C 0.13131 0.69763 0.95791 0.0
C633 C 0.13052 0.68075 0.92036 0.0
C634 C 0.06577 0.56044 0.7702 0.0
C635 C 0.05458 0.56874 0.7363 0.0
C636 C 0.08498 0.57525 0.80475 0.0
C637 C 0.09337 0.5986 0.80547 0.0
C638 C 0.08112 0.60668 0.77558 0.0
C639 C 0.06189 0.59192 0.7416 0.0
C640 C 0.11539 0.6149 0.83472 0.0
C641 C 0.11655 0.6319 0.87287 0.0
C642 C 0.13524 0.61441 0.82368 0.0
C643 C 0.13563 0.59798 0.7806 0.0
C644 C 0.12681 0.59551 0.7235 0.0
C645 C 0.12726 0.58001 0.68332 0.0
C646 C 0.13695 0.56723 0.69926 0.0
C647 C 0.14627 0.56998 0.75537 0.0
C648 C 0.14551 0.58515 0.79602 0.0
H649 H 0.13735 0.55529 0.66808 0.0
H650 H 0.13913 0.71267 0.04492 0.0
H651 H 0.53691 0.19666 0.08782 0.0
H652 H 0.52841 0.16487 0.02067 0.0
H653 H 0.46449 0.15828 0.9722 0.0
H654 H 0.47271 0.18975 0.04161 0.0
H655 H 0.45873 0.12007 0.00485 0.0
H656 H 0.50613 0.17174 0.87382 0.0
H657 H 0.53974 0.20421 0.84004 0.0
H658 H 0.57908 0.17414 0.88706 0.0
H659 H 0.54579 0.14164 0.92206 0.0
H660 H 0.43938 0.03161 0.79042 0.0
H661 H 0.4431 0.06417 0.84737 0.0
H662 H 0.5039 0.07394 0.93284 0.0
H663 H 0.50033 0.04139 0.87628 0.0
H664 H 0.5087 0.11079 0.8721 0.0
H665 H 0.46089 0.06052 0.00971 0.0
H666 H 0.42665 0.02785 0.04028 0.0
H667 H 0.38735 0.05562 0.97508 0.0
H668 H 0.42134 0.08832 0.94335 0.0
C669 C 0.52134 0.18885 0.06149 0.0
C670 C 0.50538 0.19546 0.07007 0.0
C671 C 0.51652 0.17074 0.02286 0.0
C672 C 0.49579 0.15915 0.99131 0.0
C673 C 0.48057 0.16697 0.99624 0.0
C674 C 0.48535 0.18507 0.03535 0.0
C675 C 0.48908 0.13728 0.95985 0.0
C676 C 0.46942 0.11814 0.97473 0.0
C677 C 0.50327 0.13466 0.92163 0.0
C678 C 0.52343 0.15428 0.90095 0.0
C679 C 0.52197 0.17212 0.87746 0.0
C680 C 0.54098 0.19053 0.858 0.0
C681 C 0.56154 0.19125 0.8615 0.0
C682 C 0.56314 0.17356 0.88441 0.0
C683 C 0.5442 0.15513 0.904 0.0
C684 C 0.45315 0.04024 0.8227 0.0
C685 C 0.46973 0.03414 0.82833 0.0
C686 C 0.45524 0.05883 0.85514 0.0
C687 C 0.47393 0.07156 0.89356 0.0
C688 C 0.48945 0.06435 0.90298 0.0
C689 C 0.48726 0.04562 0.87098 0.0
C690 C 0.47875 0.0938 0.91827 0.0
C691 C 0.49798 0.1129 0.9018 0.0
C692 C 0.46409 0.0964 0.95446 0.0
C693 C 0.44364 0.07675 0.97356 0.0
C694 C 0.44493 0.05956 0.00137 0.0
C695 C 0.42557 0.04106 0.01903 0.0
C696 C 0.40483 0.03962 0.00947 0.0
C697 C 0.40342 0.05673 0.98237 0.0
C698 C 0.42273 0.07526 0.96459 0.0
H699 H 0.38986 0.02529 0.02318 0.0
H700 H 0.57622 0.20551 0.84637 0.0
H701 H 0.35142 0.53494 0.10223 0.0
H702 H 0.37277 0.5326 0.02367 0.0
H703 H 0.31341 0.47473 0.94521 0.0
H704 H 0.29189 0.47662 0.02551 0.0
H705 H 0.34786 0.4673 0.94526 0.0
H706 H 0.33694 0.52674 0.88531 0.0
H707 H 0.33651 0.56242 0.89507 0.0
H708 H 0.40741 0.59871 0.93503 0.0
H709 H 0.40824 0.5632 0.92634 0.0
H710 H 0.41026 0.46753 0.70655 0.0
H711 H 0.38196 0.47064 0.76038 0.0
H712 H 0.43391 0.52718 0.86471 0.0
H713 H 0.46227 0.52434 0.81097 0.0
H714 H 0.39912 0.53373 0.84033 0.0
H715 H 0.40878 0.47375 0.9119 0.0
H716 H 0.40934 0.4381 0.90294 0.0
H717 H 0.3404 0.40293 0.8405 0.0
H718 H 0.33953 0.43846 0.84836 0.0
C719 C 0.3428 0.52169 0.06827 0.0
C720 C 0.3199 0.50587 0.07058 0.0
C721 C 0.35505 0.52051 0.02286 0.0
C722 C 0.34477 0.50364 0.97779 0.0
C723 C 0.32178 0.48798 0.97926 0.0
C724 C 0.30943 0.48917 0.02496 0.0
C725 C 0.35847 0.50195 0.93115 0.0
C726 C 0.35867 0.48171 0.92141 0.0
C727 C 0.373 0.52081 0.90049 0.0
C728 C 0.37262 0.54225 0.90554 0.0
C729 C 0.35242 0.5423 0.89658 0.0
C730 C 0.35211 0.56251 0.90186 0.0
C731 C 0.37191 0.58282 0.91575 0.0
C732 C 0.39208 0.58297 0.92428 0.0
C733 C 0.39249 0.5628 0.9191 0.0
C734 C 0.41572 0.48087 0.74034 0.0
C735 C 0.43867 0.49551 0.75468 0.0
C736 C 0.39945 0.48254 0.77139 0.0
C737 C 0.40572 0.49887 0.81754 0.0
C738 C 0.42857 0.51433 0.82962 0.0
C739 C 0.44482 0.51266 0.79876 0.0
C740 C 0.38873 0.49923 0.8553 0.0
C741 C 0.388 0.51924 0.8635 0.0
C742 C 0.37369 0.48016 0.88449 0.0
C743 C 0.37416 0.45879 0.88007 0.0
C744 C 0.39379 0.45844 0.89584 0.0
C745 C 0.39416 0.43825 0.89103 0.0
C746 C 0.37494 0.41827 0.87099 0.0
C747 C 0.35529 0.41843 0.8559 0.0
C748 C 0.35484 0.43858 0.86054 0.0
H749 H 0.37525 0.40266 0.8673 0.0
H750 H 0.37163 0.59844 0.91983 0.0
H751 H 0.81586 0.33171 0.05385 0.0
H752 H 0.84471 0.35732 0.99294 0.0
H753 H 0.85239 0.30233 0.9243 0.0
H754 H 0.82368 0.27675 0.98662 0.0
H755 H 0.89106 0.33559 0.96733 0.0
H756 H 0.83414 0.33114 0.83646 0.0
H757 H 0.79982 0.33166 0.80701 0.0
H758 H 0.82928 0.40006 0.87662 0.0
H759 H 0.86368 0.39994 0.90691 0.0
H760 H 0.97281 0.40435 0.77435 0.0
H761 H 0.94042 0.37591 0.82064 0.0
H762 H 0.93193 0.42807 0.90504 0.0
H763 H 0.96436 0.45676 0.8584 0.0
H764 H 0.89314 0.395 0.84852 0.0
H765 H 0.94942 0.39856 0.98237 0.0
H766 H 0.98362 0.39782 0.01181 0.0
H767 H 0.95498 0.33038 0.9355 0.0
H768 H 0.9207 0.33082 0.90489 0.0
C769 C 0.82295 0.32492 0.02361 0.0
C770 C 0.81736 0.30225 0.02405 0.0
C771 C 0.83954 0.33958 0.98898 0.0
C772 C 0.8508 0.33181 0.95389 0.0
C773 C 0.84396 0.30872 0.95101 0.0
C774 C 0.82735 0.29404 0.98587 0.0
C775 C 0.87142 0.34824 0.92664 0.0
C776 C 0.89138 0.34827 0.94027 0.0
C777 C 0.87207 0.36526 0.89286 0.0
C778 C 0.85145 0.36547 0.87429 0.0
C779 C 0.83325 0.34626 0.84578 0.0
C780 C 0.81379 0.34651 0.82883 0.0
C781 C 0.81235 0.3659 0.83995 0.0
C782 C 0.83041 0.38509 0.86791 0.0
C783 C 0.84991 0.38495 0.88489 0.0
C784 C 0.96436 0.40986 0.80366 0.0
C785 C 0.9712 0.43287 0.81255 0.0
C786 C 0.94582 0.39354 0.83014 0.0
C787 C 0.9337 0.39984 0.86618 0.0
C788 C 0.94101 0.42283 0.87719 0.0
C789 C 0.95969 0.43923 0.85095 0.0
C790 C 0.91268 0.38234 0.88949 0.0
C791 C 0.8927 0.38217 0.87516 0.0
C792 C 0.91199 0.36512 0.92243 0.0
C793 C 0.93258 0.36481 0.94082 0.0
C794 C 0.95049 0.38364 0.97142 0.0
C795 C 0.96987 0.38326 0.98842 0.0
C796 C 0.9715 0.36408 0.9754 0.0
C797 C 0.95371 0.34523 0.94548 0.0
C798 C 0.93429 0.34553 0.92835 0.0
H799 H 0.98652 0.36382 0.9886 0.0
H800 H 0.79727 0.36606 0.82687 0.0
H801 H 0.79757 0.49238 0.91491 0.0
H802 H 0.81977 0.49006 0.8371 0.0
H803 H 0.87817 0.54943 0.91393 0.0
H804 H 0.85601 0.55233 0.98956 0.0
H805 H 0.87976 0.55065 0.80254 0.0
H806 H 0.86576 0.49281 0.93786 0.0
H807 H 0.84073 0.45951 0.98994 0.0
H808 H 0.81016 0.42181 0.82848 0.0
H809 H 0.83501 0.45493 0.77551 0.0
H810 H 0.97305 0.53563 0.77917 0.0
H811 H 0.94023 0.53712 0.8087 0.0
H812 H 0.90142 0.49286 0.66116 0.0
H813 H 0.9348 0.4919 0.63 0.0
H814 H 0.88388 0.48054 0.78416 0.0
H815 H 0.90556 0.53749 0.65027 0.0
H816 H 0.9319 0.57125 0.60203 0.0
H817 H 0.94891 0.61113 0.76259 0.0
H818 H 0.92288 0.57753 0.81207 0.0
C819 C 0.81502 0.5052 0.91439 0.0
C820 C 0.82505 0.52233 0.95913 0.0
C821 C 0.8278 0.50374 0.87017 0.0
C822 C 0.8509 0.51929 0.87 0.0
C823 C 0.8605 0.53711 0.91283 0.0
C824 C 0.84779 0.53864 0.95654 0.0
C825 C 0.86564 0.51659 0.82819 0.0
C826 C 0.88055 0.53526 0.79845 0.0
C827 C 0.86649 0.49639 0.82116 0.0
C828 C 0.85205 0.47634 0.85284 0.0
C829 C 0.85366 0.47741 0.91355 0.0
C830 C 0.83952 0.45858 0.9432 0.0
C831 C 0.8238 0.43859 0.91254 0.0
C832 C 0.8223 0.43733 0.85216 0.0
C833 C 0.83645 0.45609 0.82231 0.0
C834 C 0.95764 0.5265 0.75234 0.0
C835 C 0.95651 0.51363 0.70229 0.0
C836 C 0.93887 0.52735 0.76935 0.0
C837 C 0.91832 0.51501 0.73744 0.0
C838 C 0.91712 0.50248 0.68653 0.0
C839 C 0.9362 0.50207 0.66855 0.0
C840 C 0.89825 0.51477 0.76003 0.0
C841 C 0.88256 0.49566 0.78673 0.0
C842 C 0.89676 0.53459 0.76451 0.0
C843 C 0.91234 0.55493 0.73498 0.0
C844 C 0.91504 0.55342 0.67543 0.0
C845 C 0.9299 0.57254 0.64783 0.0
C846 C 0.94211 0.59331 0.67924 0.0
C847 C 0.93944 0.59502 0.73831 0.0
C848 C 0.9246 0.57595 0.76615 0.0
H849 H 0.95361 0.6081 0.6578 0.0
H850 H 0.81283 0.42404 0.93556 0.0
H851 H 0.28346 0.81022 0.95572 0.0
H852 H 0.30238 0.82968 0.87053 0.0
H853 H 0.36253 0.83118 0.93347 0.0
H854 H 0.34372 0.81161 0.0177 0.0
H855 H 0.33864 0.87156 0.87111 0.0
H856 H 0.39231 0.82975 0.82471 0.0
H857 H 0.38868 0.79213 0.82658 0.0
H858 H 0.31739 0.76096 0.8004 0.0
H859 H 0.32056 0.79832 0.7979 0.0
H860 H 0.45065 0.92321 0.74264 0.0
H861 H 0.42003 0.88985 0.77998 0.0
H862 H 0.3724 0.90188 0.68675 0.0
H863 H 0.40311 0.93574 0.64976 0.0
H864 H 0.38326 0.85058 0.74661 0.0
H865 H 0.33158 0.89406 0.77849 0.0
H866 H 0.33642 0.93227 0.78273 0.0
H867 H 0.40486 0.96022 0.84509 0.0
H868 H 0.40031 0.92217 0.84197 0.0
C869 C 0.30058 0.81433 0.95067 0.0
C870 C 0.31215 0.80949 0.9935 0.0
C871 C 0.3114 0.82553 0.90218 0.0
C872 C 0.33383 0.83173 0.89524 0.0
C873 C 0.34513 0.82628 0.93722 0.0
C874 C 0.33442 0.81528 0.98569 0.0
C875 C 0.34621 0.84556 0.84714 0.0
C876 C 0.34787 0.86667 0.84275 0.0
C877 C 0.35869 0.83945 0.81091 0.0
C878 C 0.35668 0.81688 0.81142 0.0
C879 C 0.37586 0.81487 0.81899 0.0
C880 C 0.37389 0.79359 0.82025 0.0
C881 C 0.35283 0.77419 0.81362 0.0
C882 C 0.33369 0.776 0.80567 0.0
C883 C 0.33556 0.79723 0.80447 0.0
C884 C 0.43368 0.91857 0.72894 0.0
C885 C 0.42935 0.93255 0.69448 0.0
C886 C 0.41614 0.89934 0.75017 0.0
C887 C 0.3939 0.89367 0.73749 0.0
C888 C 0.38946 0.90621 0.6981 0.0
C889 C 0.40705 0.92553 0.6768 0.0
C890 C 0.37598 0.87669 0.77158 0.0
C891 C 0.37343 0.85511 0.7737 0.0
C892 C 0.36283 0.88242 0.80627 0.0
C893 C 0.36567 0.90533 0.8092 0.0
C894 C 0.34763 0.90837 0.79322 0.0
C895 C 0.35032 0.92999 0.79545 0.0
C896 C 0.37096 0.94867 0.81394 0.0
C897 C 0.38891 0.94576 0.83057 0.0
C898 C 0.38628 0.92417 0.82856 0.0
H899 H 0.37302 0.96539 0.81554 0.0
H900 H 0.35134 0.75774 0.81462 0.0
H901 H 0.53404 0.33409 0.11564 0.0
H902 H 0.53394 0.36158 0.05188 0.0
H903 H 0.47932 0.30784 0.94674 0.0
H904 H 0.47934 0.28023 0.01109 0.0
H905 H 0.51063 0.34521 0.88287 0.0
H906 H 0.46561 0.33015 0.04562 0.0
H907 H 0.45745 0.32576 0.1484 0.0
H908 H 0.5075 0.3949 0.18956 0.0
H909 H 0.51626 0.39961 0.08703 0.0
H910 H 0.46153 0.40487 0.76696 0.0
H911 H 0.46675 0.37792 0.82076 0.0
H912 H 0.51811 0.43225 0.93192 0.0
H913 H 0.51307 0.45958 0.87806 0.0
H914 H 0.48961 0.39498 0.99186 0.0
H915 H 0.53323 0.40995 0.82567 0.0
H916 H 0.53979 0.41357 0.72187 0.0
H917 H 0.49079 0.34369 0.68626 0.0
H918 H 0.48371 0.33974 0.78983 0.0
C919 C 0.52274 0.32809 0.07733 0.0
C920 C 0.50685 0.30507 0.06781 0.0
C921 C 0.52252 0.3438 0.04132 0.0
C922 C 0.50638 0.33678 0.99518 0.0
C923 C 0.49192 0.3136 0.98215 0.0
C924 C 0.49205 0.29782 0.01853 0.0
C925 C 0.50281 0.35369 0.96579 0.0
C926 C 0.50584 0.35595 0.9065 0.0
C927 C 0.49683 0.36791 0.99689 0.0
C928 C 0.49175 0.36517 0.05869 0.0
C929 C 0.47505 0.34436 0.07664 0.0
C930 C 0.47027 0.34183 0.13482 0.0
C931 C 0.48192 0.36004 0.17541 0.0
C932 C 0.49847 0.38081 0.15801 0.0
C933 C 0.50335 0.38343 0.09986 0.0
C934 C 0.47379 0.41121 0.80324 0.0
C935 C 0.48699 0.43453 0.81777 0.0
C936 C 0.47683 0.39571 0.8338 0.0
C937 C 0.49312 0.40308 0.87966 0.0
C938 C 0.50554 0.4262 0.89639 0.0
C939 C 0.50259 0.4418 0.86559 0.0
C940 C 0.49751 0.38661 0.90884 0.0
C941 C 0.49457 0.38438 0.9682 0.0
C942 C 0.50343 0.37234 0.87769 0.0
C943 C 0.50779 0.3746 0.81546 0.0
C944 C 0.52373 0.3954 0.79566 0.0
C945 C 0.52756 0.3975 0.73687 0.0
C946 C 0.51567 0.37889 0.69748 0.0
C947 C 0.49997 0.35811 0.71683 0.0
C948 C 0.49606 0.35592 0.77558 0.0
H949 H 0.51866 0.38055 0.65198 0.0
H950 H 0.47798 0.35806 0.22022 0.0
H951 H 0.22147 0.54545 0.07122 0.0
H952 H 0.19859 0.54519 0.988 0.0
H953 H 0.18656 0.4794 0.92888 0.0
H954 H 0.21025 0.48014 0.01106 0.0
H955 H 0.18596 0.50297 0.83763 0.0
H956 H 0.15225 0.48355 0.01878 0.0
H957 H 0.14944 0.48903 0.12319 0.0
H958 H 0.14626 0.54885 0.09481 0.0
H959 H 0.14952 0.54397 0.99029 0.0
H960 H 0.07498 0.46235 0.70753 0.0
H961 H 0.10912 0.46843 0.75971 0.0
H962 H 0.12156 0.5333 0.82851 0.0
H963 H 0.08772 0.52739 0.77685 0.0
H964 H 0.1229 0.50975 0.91144 0.0
H965 H 0.15369 0.52508 0.72211 0.0
H966 H 0.15235 0.5142 0.61878 0.0
H967 H 0.15721 0.45662 0.6634 0.0
H968 H 0.15818 0.4669 0.76692 0.0
C969 C 0.2146 0.53137 0.03915 0.0
C970 C 0.21744 0.51279 0.04717 0.0
C971 C 0.20149 0.53115 0.99185 0.0
C972 C 0.19046 0.51204 0.95301 0.0
C973 C 0.19488 0.49429 0.95834 0.0
C974 C 0.20835 0.49469 0.00521 0.0
C975 C 0.17193 0.50917 0.91295 0.0
C976 C 0.17214 0.50443 0.8536 0.0
C977 C 0.15375 0.51076 0.93399 0.0
C978 C 0.15136 0.51352 0.99675 0.0
C979 C 0.15109 0.49795 0.03484 0.0
C980 C 0.14942 0.50094 0.09404 0.0
C981 C 0.14771 0.51929 0.11563 0.0
C982 C 0.14762 0.53466 0.07803 0.0
C983 C 0.14939 0.53179 0.0188 0.0
C984 C 0.08536 0.47816 0.73248 0.0
C985 C 0.07855 0.49429 0.73848 0.0
C986 C 0.10489 0.48164 0.76228 0.0
C987 C 0.11805 0.50145 0.79771 0.0
C988 C 0.11178 0.51797 0.8012 0.0
C989 C 0.09236 0.51452 0.7717 0.0
C990 C 0.13716 0.5043 0.83551 0.0
C991 C 0.13689 0.50872 0.89497 0.0
C992 C 0.15494 0.50194 0.81449 0.0
C993 C 0.15581 0.49666 0.75232 0.0
C994 C 0.15446 0.51009 0.7099 0.0
C995 C 0.15373 0.50401 0.65129 0.0
C996 C 0.15453 0.48464 0.63463 0.0
C997 C 0.15649 0.47155 0.67644 0.0
C998 C 0.15717 0.47752 0.73507 0.0
H999 H 0.15355 0.47968 0.58937 0.0
H1000 H 0.1464 0.52158 0.16148 0.0
H1001 H 0.73373 0.19242 0.98359 0.0
H1002 H 0.71141 0.16796 0.89862 0.0
H1003 H 0.65461 0.17286 0.95107 0.0
H1004 H 0.67687 0.19763 0.0344 0.0
H1005 H 0.67619 0.12766 0.89893 0.0
H1006 H 0.61973 0.16617 0.84176 0.0
H1007 H 0.62367 0.20371 0.83481 0.0
H1008 H 0.69367 0.23215 0.80966 0.0
H1009 H 0.69011 0.19472 0.8156 0.0
H1010 H 0.56646 0.0483 0.82139 0.0
H1011 H 0.60164 0.08021 0.85972 0.0
H1012 H 0.61508 0.10617 0.69052 0.0
H1013 H 0.57923 0.07427 0.65168 0.0
H1014 H 0.62369 0.13894 0.77288 0.0
H1015 H 0.64509 0.08386 0.7456 0.0
H1016 H 0.6414 0.0463 0.74911 0.0
H1017 H 0.64396 0.05198 0.93444 0.0
H1018 H 0.64733 0.08944 0.9321 0.0
C1019 C 0.71664 0.18868 0.97605 0.0
C1020 C 0.70699 0.1968 0.01579 0.0
C1021 C 0.70389 0.17464 0.9277 0.0
C1022 C 0.68137 0.16871 0.91804 0.0
C1023 C 0.67203 0.17749 0.95675 0.0
C1024 C 0.68471 0.19145 0.00484 0.0
C1025 C 0.66677 0.15157 0.87151 0.0
C1026 C 0.66495 0.13025 0.87074 0.0
C1027 C 0.65243 0.15503 0.83357 0.0
C1028 C 0.65466 0.1776 0.82935 0.0
C1029 C 0.63594 0.18038 0.83433 0.0
C1030 C 0.63811 0.20167 0.83068 0.0
C1031 C 0.65892 0.22031 0.82187 0.0
C1032 C 0.67758 0.21771 0.81662 0.0
C1033 C 0.6755 0.19646 0.82022 0.0
C1034 C 0.57683 0.0607 0.79201 0.0
C1035 C 0.57005 0.05858 0.73322 0.0
C1036 C 0.59709 0.07888 0.81402 0.0
C1037 C 0.61122 0.09536 0.77783 0.0
C1038 C 0.60452 0.09351 0.71911 0.0
C1039 C 0.58411 0.07521 0.69691 0.0
C1040 C 0.63238 0.11489 0.80304 0.0
C1041 C 0.63537 0.13658 0.79986 0.0
C1042 C 0.64799 0.11186 0.8368 0.0
C1043 C 0.64643 0.08949 0.83862 0.0
C1044 C 0.64479 0.07708 0.78712 0.0
C1045 C 0.64275 0.05579 0.7889 0.0
C1046 C 0.64244 0.04676 0.84196 0.0
C1047 C 0.64423 0.05902 0.89337 0.0
C1048 C 0.64626 0.08031 0.89184 0.0
H1049 H 0.64082 0.03025 0.84325 0.0
H1050 H 0.66057 0.23678 0.81908 0.0
H1051 H 0.56339 0.73183 0.96044 0.0
H1052 H 0.57134 0.70716 0.89828 0.0
H1053 H 0.50046 0.66164 0.86551 0.0
H1054 H 0.49272 0.68647 0.92624 0.0
H1055 H 0.56102 0.6669 0.9271 0.0
H1056 H 0.4882 0.6282 0.74696 0.0
H1057 H 0.46893 0.64107 0.68055 0.0
H1058 H 0.52634 0.70763 0.69335 0.0
H1059 H 0.54609 0.69512 0.75914 0.0
H1060 H 0.5077 0.55183 0.74876 0.0
H1061 H 0.50844 0.58335 0.80348 0.0
H1062 H 0.57909 0.62427 0.78216 0.0
H1063 H 0.5785 0.59292 0.7264 0.0
H1064 H 0.52335 0.62456 0.74099 0.0
H1065 H 0.59803 0.66347 0.90878 0.0
H1066 H 0.61879 0.65166 0.97349 0.0
H1067 H 0.56002 0.58675 0.98105 0.0
H1068 H 0.53885 0.59827 0.91713 0.0
C1069 C 0.54964 0.71716 0.93727 0.0
C1070 C 0.52748 0.71109 0.947 0.0
C1071 C 0.55414 0.70294 0.9025 0.0
C1072 C 0.53651 0.68253 0.87724 0.0
C1073 C 0.51437 0.67746 0.88351 0.0
C1074 C 0.50991 0.69167 0.91802 0.0
C1075 C 0.54082 0.66499 0.85177 0.0
C1076 C 0.55321 0.65801 0.88569 0.0
C1077 C 0.53032 0.65309 0.79832 0.0
C1078 C 0.51857 0.66073 0.7584 0.0
C1079 C 0.49677 0.64556 0.7354 0.0
C1080 C 0.48574 0.6528 0.6979 0.0
C1081 C 0.49638 0.67517 0.68286 0.0
C1082 C 0.51809 0.69033 0.7052 0.0
C1083 C 0.52919 0.68318 0.74269 0.0
C1084 C 0.52358 0.56722 0.75749 0.0
C1085 C 0.543 0.57001 0.73256 0.0
C1086 C 0.52392 0.58527 0.78836 0.0
C1087 C 0.54374 0.60614 0.79595 0.0
C1088 C 0.56363 0.60827 0.7765 0.0
C1089 C 0.56326 0.59033 0.74482 0.0
C1090 C 0.54298 0.62631 0.81701 0.0
C1091 C 0.53134 0.63374 0.78199 0.0
C1092 C 0.55443 0.63879 0.86894 0.0
C1093 C 0.56696 0.63165 0.9075 0.0
C1094 C 0.58954 0.64669 0.92431 0.0
C1095 C 0.60138 0.64005 0.96088 0.0
C1096 C 0.59076 0.61844 0.98117 0.0
C1097 C 0.56826 0.60344 0.96506 0.0
C1098 C 0.55635 0.61 0.92853 0.0
H1099 H 0.59994 0.61333 0.0095 0.0
H1100 H 0.48782 0.68074 0.65383 0.0
H1101 H 0.47703 0.18637 0.2868 0.0
H1102 H 0.47616 0.15856 0.35052 0.0
H1103 H 0.54795 0.18972 0.34937 0.0
H1104 H 0.54851 0.21687 0.28291 0.0
H1105 H 0.53181 0.14831 0.32454 0.0
H1106 H 0.51841 0.1873 0.47682 0.0
H1107 H 0.50105 0.20652 0.52689 0.0
H1108 H 0.43742 0.14545 0.51016 0.0
H1109 H 0.45432 0.12591 0.45927 0.0
H1110 H 0.52983 0.0668 0.51181 0.0
H1111 H 0.53642 0.10092 0.4669 0.0
H1112 H 0.46527 0.07488 0.44734 0.0
H1113 H 0.45865 0.04102 0.4946 0.0
H1114 H 0.48495 0.11644 0.49055 0.0
H1115 H 0.50076 0.07903 0.33095 0.0
H1116 H 0.5207 0.06129 0.28709 0.0
H1117 H 0.58341 0.12223 0.32569 0.0
H1118 H 0.56385 0.1402 0.37038 0.0
C1119 C 0.4927 0.1879 0.30244 0.0
C1120 C 0.51288 0.20404 0.2811 0.0
C1121 C 0.49222 0.17189 0.33876 0.0
C1122 C 0.51202 0.17194 0.35534 0.0
C1123 C 0.53243 0.18919 0.33729 0.0
C1124 C 0.53283 0.20497 0.30011 0.0
C1125 C 0.51102 0.15257 0.38524 0.0
C1126 C 0.52188 0.14166 0.36159 0.0
C1127 C 0.49789 0.14351 0.43318 0.0
C1128 C 0.48762 0.15518 0.46381 0.0
C1129 C 0.50068 0.178 0.48343 0.0
C1130 C 0.49093 0.18895 0.51203 0.0
C1131 C 0.46814 0.17723 0.5216 0.0
C1132 C 0.45507 0.15451 0.50269 0.0
C1133 C 0.46473 0.14348 0.47404 0.0
C1134 C 0.51554 0.06802 0.49651 0.0
C1135 C 0.49368 0.05101 0.50623 0.0
C1136 C 0.51935 0.08767 0.47094 0.0
C1137 C 0.50135 0.09054 0.4531 0.0
C1138 C 0.47947 0.07318 0.46083 0.0
C1139 C 0.47567 0.0537 0.48737 0.0
C1140 C 0.50522 0.11196 0.42883 0.0
C1141 C 0.49495 0.12325 0.45371 0.0
C1142 C 0.51923 0.1216 0.38271 0.0
C1143 C 0.53086 0.11088 0.35454 0.0
C1144 C 0.5188 0.0886 0.33033 0.0
C1145 C 0.53004 0.0785 0.30532 0.0
C1146 C 0.55331 0.09059 0.30382 0.0
C1147 C 0.56539 0.11285 0.32703 0.0
C1148 C 0.55424 0.123 0.35217 0.0
H1149 H 0.56198 0.08273 0.28453 0.0
H1150 H 0.46063 0.18573 0.54375 0.0
H1151 H 0.29115 0.49185 0.32686 0.0
H1152 H 0.31192 0.49239 0.41515 0.0
H1153 H 0.37376 0.53944 0.34306 0.0
H1154 H 0.35312 0.53991 0.25702 0.0
H1155 H 0.33816 0.47677 0.42171 0.0
H1156 H 0.41565 0.56833 0.43486 0.0
H1157 H 0.42302 0.60714 0.42769 0.0
H1158 H 0.35609 0.58664 0.47271 0.0
H1159 H 0.3484 0.54774 0.48124 0.0
H1160 H 0.44152 0.48738 0.44333 0.0
H1161 H 0.40727 0.48846 0.42631 0.0
H1162 H 0.41478 0.51812 0.59892 0.0
H1163 H 0.44954 0.51697 0.61667 0.0
H1164 H 0.40755 0.5418 0.51264 0.0
H1165 H 0.3714 0.46799 0.57214 0.0
H1166 H 0.3642 0.42928 0.58102 0.0
H1167 H 0.34715 0.41468 0.39879 0.0
H1168 H 0.35459 0.45339 0.38855 0.0
C1169 C 0.30911 0.50291 0.33088 0.0
C1170 C 0.32053 0.51561 0.28466 0.0
C1171 C 0.32099 0.50311 0.38122 0.0
C1172 C 0.34446 0.51604 0.38624 0.0
C1173 C 0.35568 0.52968 0.34128 0.0
C1174 C 0.34385 0.52966 0.29146 0.0
C1175 C 0.3576 0.513 0.4336 0.0
C1176 C 0.35307 0.49102 0.44252 0.0
C1177 C 0.37674 0.53151 0.46253 0.0
C1178 C 0.38143 0.55504 0.45869 0.0
C1179 C 0.40255 0.5721 0.44383 0.0
C1180 C 0.40677 0.59413 0.43932 0.0
C1181 C 0.39002 0.59934 0.4496 0.0
C1182 C 0.36904 0.58256 0.46462 0.0
C1183 C 0.36473 0.56051 0.46927 0.0
C1184 C 0.43583 0.4939 0.47809 0.0
C1185 C 0.44834 0.50229 0.53116 0.0
C1186 C 0.41612 0.49435 0.46841 0.0
C1187 C 0.40839 0.50323 0.51144 0.0
C1188 C 0.42045 0.51111 0.56526 0.0
C1189 C 0.44021 0.51039 0.57535 0.0
C1190 C 0.38878 0.50578 0.49667 0.0
C1191 C 0.39214 0.52762 0.49372 0.0
C1192 C 0.36841 0.48716 0.47385 0.0
C1193 C 0.36353 0.46365 0.47963 0.0
C1194 C 0.36619 0.45656 0.53389 0.0
C1195 C 0.36207 0.4346 0.53916 0.0
C1196 C 0.3552 0.41953 0.49051 0.0
C1197 C 0.35241 0.42636 0.43647 0.0
C1198 C 0.35653 0.44831 0.43094 0.0
H1199 H 0.35204 0.40254 0.49467 0.0
H1200 H 0.39332 0.6164 0.44596 0.0
H1201 H 0.84991 0.2875 0.21138 0.0
H1202 H 0.87915 0.31584 0.27964 0.0
H1203 H 0.83468 0.33991 0.32846 0.0
H1204 H 0.80532 0.31132 0.26055 0.0
H1205 H 0.87414 0.3725 0.28357 0.0
H1206 H 0.85219 0.31857 0.42771 0.0
H1207 H 0.84254 0.28216 0.46698 0.0
H1208 H 0.90789 0.29308 0.43476 0.0
H1209 H 0.91784 0.32942 0.3945 0.0
H1210 H 0.9516 0.45928 0.48644 0.0
H1211 H 0.92052 0.42872 0.42824 0.0
H1212 H 0.95871 0.39496 0.40796 0.0
H1213 H 0.98931 0.42492 0.46973 0.0
H1214 H 0.9209 0.36681 0.44107 0.0
H1215 H 0.94264 0.41912 0.29162 0.0
H1216 H 0.95297 0.45545 0.25076 0.0
H1217 H 0.8892 0.44751 0.28907 0.0
H1218 H 0.87854 0.41118 0.33057 0.0
C1219 C 0.84608 0.29811 0.23894 0.0
C1220 C 0.8254 0.29715 0.23162 0.0
C1221 C 0.8628 0.31439 0.27751 0.0
C1222 C 0.85908 0.33004 0.30873 0.0
C1223 C 0.83783 0.32796 0.30469 0.0
C1224 C 0.82101 0.31148 0.26658 0.0
C1225 C 0.87815 0.35019 0.3391 0.0
C1226 C 0.8842 0.37136 0.31872 0.0
C1227 C 0.89163 0.34851 0.38339 0.0
C1228 C 0.88569 0.32665 0.4076 0.0
C1229 C 0.86444 0.31312 0.4285 0.0
C1230 C 0.85893 0.29251 0.45105 0.0
C1231 C 0.87457 0.28528 0.45324 0.0
C1232 C 0.89578 0.29869 0.43299 0.0
C1233 C 0.90138 0.31931 0.41036 0.0
C1234 C 0.95365 0.44571 0.46797 0.0
C1235 C 0.97282 0.4444 0.48254 0.0
C1236 C 0.93582 0.42817 0.43461 0.0
C1237 C 0.93718 0.40943 0.41345 0.0
C1238 C 0.95713 0.40909 0.4242 0.0
C1239 C 0.97471 0.42631 0.45893 0.0
C1240 C 0.91721 0.38929 0.38513 0.0
C1241 C 0.91094 0.36807 0.40589 0.0
C1242 C 0.90368 0.3909 0.3406 0.0
C1243 C 0.90986 0.4125 0.31456 0.0
C1244 C 0.93085 0.42516 0.29152 0.0
C1245 C 0.93675 0.44574 0.26822 0.0
C1246 C 0.92176 0.45378 0.26743 0.0
C1247 C 0.90079 0.44123 0.28971 0.0
C1248 C 0.89479 0.42062 0.31299 0.0
H1249 H 0.92636 0.46971 0.24941 0.0
H1250 H 0.87028 0.26932 0.47072 0.0
H1251 H 0.56155 0.82882 0.16579 0.0
H1252 H 0.57271 0.86286 0.22905 0.0
H1253 H 0.50423 0.8479 0.22374 0.0
H1254 H 0.49308 0.81394 0.16147 0.0
H1255 H 0.53889 0.89018 0.17289 0.0
H1256 H 0.52264 0.84645 0.3435 0.0
H1257 H 0.52796 0.82201 0.40948 0.0
H1258 H 0.59746 0.87176 0.43854 0.0
H1259 H 0.5926 0.89637 0.37202 0.0
H1260 H 0.52353 0.96639 0.3476 0.0
H1261 H 0.52485 0.93685 0.28915 0.0
H1262 H 0.58977 0.9566 0.36948 0.0
H1263 H 0.58813 0.98572 0.42966 0.0
H1264 H 0.56441 0.91449 0.37863 0.0
H1265 H 0.58144 0.9605 0.22092 0.0
H1266 H 0.57911 0.98566 0.15163 0.0
H1267 H 0.51294 0.93375 0.09265 0.0
H1268 H 0.5147 0.90838 0.16219 0.0
C1269 C 0.54881 0.83226 0.18073 0.0
C1270 C 0.5265 0.81892 0.15918 0.0
C1271 C 0.55519 0.85174 0.21626 0.0
C1272 C 0.53928 0.85788 0.23016 0.0
C1273 C 0.5167 0.84338 0.21314 0.0
C1274 C 0.51032 0.82394 0.17811 0.0
C1275 C 0.54626 0.88075 0.25449 0.0
C1276 C 0.54435 0.89558 0.21797 0.0
C1277 C 0.55446 0.88794 0.31233 0.0
C1278 C 0.55733 0.87311 0.35218 0.0
C1279 C 0.53911 0.85207 0.36343 0.0
C1280 C 0.54203 0.83821 0.40107 0.0
C1281 C 0.56305 0.84529 0.42802 0.0
C1282 C 0.58119 0.86627 0.41753 0.0
C1283 C 0.57836 0.88019 0.3799 0.0
C1284 C 0.53841 0.96494 0.35146 0.0
C1285 C 0.55563 0.97821 0.39353 0.0
C1286 C 0.53918 0.94803 0.3179 0.0
C1287 C 0.55742 0.94444 0.32492 0.0
C1288 C 0.57546 0.95893 0.36363 0.0
C1289 C 0.57454 0.97562 0.39779 0.0
C1290 C 0.55623 0.92393 0.29756 0.0
C1291 C 0.55933 0.90947 0.33326 0.0
C1292 C 0.54951 0.91723 0.23848 0.0
C1293 C 0.54817 0.93256 0.19715 0.0
C1294 C 0.5663 0.95451 0.19359 0.0
C1295 C 0.56509 0.9688 0.15416 0.0
C1296 C 0.54588 0.96132 0.11781 0.0
C1297 C 0.52782 0.93953 0.12084 0.0
C1298 C 0.52892 0.92517 0.16022 0.0
H1299 H 0.545 0.97239 0.08723 0.0
H1300 H 0.56527 0.83454 0.45717 0.0
H1301 H 0.68033 0.48068 0.11164 0.0
H1302 H 0.65568 0.47893 0.18693 0.0
H1303 H 0.71058 0.53749 0.27807 0.0
H1304 H 0.73555 0.53873 0.20339 0.0
H1305 H 0.68302 0.5096 0.35473 0.0
H1306 H 0.67352 0.54183 0.18387 0.0
H1307 H 0.66689 0.54281 0.07925 0.0
H1308 H 0.60236 0.48339 0.08244 0.0
H1309 H 0.60877 0.48181 0.18694 0.0
H1310 H 0.61477 0.54531 0.50148 0.0
H1311 H 0.64208 0.54146 0.44508 0.0
H1312 H 0.58862 0.48342 0.34842 0.0
H1313 H 0.56124 0.48741 0.40369 0.0
H1314 H 0.61622 0.51128 0.2769 0.0
H1315 H 0.62537 0.48011 0.45011 0.0
H1316 H 0.63191 0.48039 0.55531 0.0
H1317 H 0.69688 0.53895 0.54909 0.0
H1318 H 0.69056 0.5393 0.44397 0.0
C1319 C 0.68726 0.49286 0.14846 0.0
C1320 C 0.70986 0.5099 0.15146 0.0
C1321 C 0.67312 0.49195 0.19139 0.0
C1322 C 0.68102 0.50843 0.23772 0.0
C1323 C 0.70396 0.52463 0.24278 0.0
C1324 C 0.71826 0.52532 0.20012 0.0
C1325 C 0.66498 0.50981 0.27749 0.0
C1326 C 0.66854 0.51018 0.33772 0.0
C1327 C 0.64585 0.51036 0.25572 0.0
C1328 C 0.64172 0.51159 0.19314 0.0
C1329 C 0.65796 0.52891 0.16221 0.0
C1330 C 0.65425 0.52956 0.10292 0.0
C1331 C 0.63424 0.51314 0.07419 0.0
C1332 C 0.61786 0.49608 0.10474 0.0
C1333 C 0.62153 0.49529 0.164 0.0
C1334 C 0.60879 0.5315 0.46885 0.0
C1335 C 0.58569 0.51678 0.45712 0.0
C1336 C 0.6245 0.52927 0.43658 0.0
C1337 C 0.61754 0.51211 0.39223 0.0
C1338 C 0.59452 0.49689 0.38203 0.0
C1339 C 0.57883 0.49916 0.41402 0.0
C1340 C 0.63399 0.51072 0.35417 0.0
C1341 C 0.6306 0.51053 0.29408 0.0
C1342 C 0.65324 0.51046 0.37625 0.0
C1343 C 0.65741 0.50983 0.43915 0.0
C1344 C 0.64102 0.49311 0.47118 0.0
C1345 C 0.64468 0.49316 0.53082 0.0
C1346 C 0.66478 0.50969 0.55888 0.0
C1347 C 0.68131 0.52616 0.5273 0.0
C1348 C 0.6777 0.52623 0.46766 0.0
H1349 H 0.66755 0.50972 0.60507 0.0
H1350 H 0.63141 0.51366 0.02828 0.0
H1351 H 0.21853 0.70233 0.23809 0.0
H1352 H 0.1875 0.67772 0.29595 0.0
H1353 H 0.14649 0.70147 0.2166 0.0
H1354 H 0.1775 0.72597 0.1586 0.0
H1355 H 0.139 0.69098 0.33913 0.0
H1356 H 0.14709 0.65936 0.15365 0.0
H1357 H 0.16869 0.64957 0.08765 0.0
H1358 H 0.17425 0.60806 0.21277 0.0
H1359 H 0.15336 0.61814 0.28033 0.0
H1360 H 0.03413 0.59921 0.39802 0.0
H1361 H 0.06441 0.62906 0.34769 0.0
H1362 H 0.1013 0.59368 0.35838 0.0
H1363 H 0.07008 0.56294 0.40297 0.0
H1364 H 0.11119 0.61161 0.26942 0.0
H1365 H 0.10915 0.6418 0.45715 0.0
H1366 H 0.09279 0.65204 0.53758 0.0
H1367 H 0.08142 0.69521 0.42983 0.0
H1368 H 0.09748 0.68501 0.34852 0.0
C1369 C 0.20328 0.70315 0.23544 0.0
C1370 C 0.20044 0.71627 0.19486 0.0
C1371 C 0.1855 0.68892 0.26791 0.0
C1372 C 0.16463 0.68758 0.25991 0.0
C1373 C 0.16247 0.70232 0.22352 0.0
C1374 C 0.18023 0.71645 0.19082 0.0
C1375 C 0.14442 0.66879 0.28263 0.0
C1376 C 0.13275 0.6736 0.32379 0.0
C1377 C 0.13672 0.6461 0.26374 0.0
C1378 C 0.14886 0.63973 0.22229 0.0
C1379 C 0.15309 0.64832 0.16727 0.0
C1380 C 0.16518 0.64271 0.12957 0.0
C1381 C 0.17281 0.62823 0.14595 0.0
C1382 C 0.16836 0.6193 0.20013 0.0
C1383 C 0.15644 0.625 0.23819 0.0
C1384 C 0.04848 0.59762 0.38782 0.0
C1385 C 0.04979 0.57876 0.40358 0.0
C1386 C 0.06599 0.61485 0.36006 0.0
C1387 C 0.08565 0.61412 0.35063 0.0
C1388 C 0.08644 0.59477 0.36478 0.0
C1389 C 0.06857 0.57716 0.39017 0.0
C1390 C 0.10567 0.63349 0.32756 0.0
C1391 C 0.1173 0.62888 0.28555 0.0
C1392 C 0.11391 0.65625 0.34785 0.0
C1393 C 0.10428 0.66245 0.3966 0.0
C1394 C 0.10303 0.65337 0.45053 0.0
C1395 C 0.09383 0.65918 0.49627 0.0
C1396 C 0.08601 0.67421 0.48876 0.0
C1397 C 0.08744 0.68353 0.43554 0.0
C1398 C 0.0966 0.67775 0.38962 0.0
H1399 H 0.07889 0.67869 0.52423 0.0
H1400 H 0.18214 0.62391 0.11661 0.0
loop_
_geom_bond_atom_site_label_1
_geom_bond_atom_site_label_2
_geom_bond_distance
_geom_bond_site_symmetry_2
_ccdc_geom_bond_type
H0 C6 0.930 . S
H1 C9 0.931 . S
H2 C11 0.931 . S
H3 C13 0.930 . S
H4 C15 0.930 . S
H5 C17 0.931 . S
C6 H0 0.930 . S
C6 C7 1.380 . S
C6 C8 1.394 . S
C7 C6 1.380 . S
C7 C11 1.382 . S
C8 C6 1.394 . S
C8 C9 1.400 . S
C9 H1 0.931 . S
C9 C8 1.400 . S
C9 C10 1.375 . S
C10 C9 1.375 . S
C10 C11 1.415 . S
C10 C12 1.501 . S
C11 H2 0.931 . S
C11 C7 1.382 . S
C11 C10 1.415 . S
C12 C10 1.501 . S
C12 C13 1.384 . S
C12 C17 1.408 . S
C13 H3 0.930 . S
C13 C12 1.384 . S
C13 C14 1.389 . S
C14 C13 1.389 . S
C14 C15 1.405 . S
C15 H4 0.930 . S
C15 C14 1.405 . S
C15 C16 1.364 . S
C16 C15 1.364 . S
C16 C17 1.400 . S
C17 H5 0.931 . S
C17 C12 1.408 . S
C17 C16 1.400 . S
H18 C24 0.930 . S
H19 C27 0.931 . S
H20 C29 0.931 . S
H21 C31 0.930 . S
H22 C33 0.930 . S
H23 C35 0.931 . S
C24 H18 0.930 . S
C24 C25 1.380 . S
C24 C26 1.394 . S
C25 C24 1.380 . S
C25 C29 1.382 . S
C26 C24 1.394 . S
C26 C27 1.400 . S
C27 H19 0.931 . S
C27 C26 1.400 . S
C27 C28 1.375 . S
C28 C27 1.375 . S
C28 C29 1.415 . S
C28 C30 1.501 . S
C29 H20 0.931 . S
C29 C25 1.382 . S
C29 C28 1.415 . S
C30 C28 1.501 . S
C30 C31 1.384 . S
C30 C35 1.408 . S
C31 H21 0.930 . S
C31 C30 1.384 . S
C31 C32 1.389 . S
C32 C31 1.389 . S
C32 C33 1.405 . S
C33 H22 0.930 . S
C33 C32 1.405 . S
C33 C34 1.364 . S
C34 C33 1.364 . S
C34 C35 1.400 . S
C35 H23 0.931 . S
C35 C30 1.408 . S
C35 C34 1.400 . S
H36 C42 0.930 . S
H37 C45 0.931 . S
H38 C47 0.931 . S
H39 C49 0.930 . S
H40 C51 0.930 . S
H41 C53 0.931 . S
C42 H36 0.930 . S
C42 C43 1.380 1_554 S
C42 C44 1.394 . S
C43 C42 1.380 1_556 S
C43 C47 1.382 . S
C44 C42 1.394 . S
C44 C45 1.400 . S
C45 H37 0.931 . S
C45 C44 1.400 . S
C45 C46 1.375 . S
C46 C45 1.375 . S
C46 C47 1.415 1_554 S
C46 C48 1.501 . S
C47 H38 0.931 . S
C47 C43 1.382 . S
C47 C46 1.415 1_556 S
C48 C46 1.501 . S
C48 C49 1.384 1_554 S
C48 C53 1.408 . S
C49 H39 0.930 . S
C49 C48 1.384 1_556 S
C49 C50 1.389 . S
C50 C49 1.389 . S
C50 C51 1.405 1_556 S
C51 H40 0.930 . S
C51 C50 1.405 1_554 S
C51 C52 1.364 . S
C52 C51 1.364 . S
C52 C53 1.400 . S
C53 H41 0.931 . S
C53 C48 1.408 . S
C53 C52 1.400 . S
H54 C60 0.930 . S
H55 C63 0.931 . S
H56 C65 0.931 1_556 S
H57 C67 0.930 1_556 S
H58 C69 0.930 . S
H59 C71 0.931 . S
C60 H54 0.930 . S
C60 C61 1.380 . S
C60 C62 1.394 . S
C61 C60 1.380 . S
C61 C65 1.382 . S
C62 C60 1.394 . S
C62 C63 1.400 . S
C63 H55 0.931 . S
C63 C62 1.400 . S
C63 C64 1.375 . S
C64 C63 1.375 . S
C64 C65 1.415 . S
C64 C66 1.501 . S
C65 H56 0.931 1_554 S
C65 C61 1.382 . S
C65 C64 1.415 . S
C66 C64 1.501 . S
C66 C67 1.384 . S
C66 C71 1.408 . S
C67 H57 0.930 1_554 S
C67 C66 1.384 . S
C67 C68 1.389 . S
C68 C67 1.389 . S
C68 C69 1.405 . S
C69 H58 0.930 . S
C69 C68 1.405 . S
C69 C70 1.364 . S
C70 C69 1.364 . S
C70 C71 1.400 . S
C71 H59 0.931 . S
C71 C66 1.408 . S
C71 C70 1.400 . S
H72 C78 0.930 . S
H73 C81 0.931 . S
H74 C83 0.931 . S
H75 C85 0.938 . S
H76 C87 0.930 . S
H77 C89 0.931 . S
C78 H72 0.930 . S
C78 C79 1.380 . S
C78 C80 1.394 . S
C79 C78 1.380 . S
C79 C83 1.382 . S
C80 C78 1.394 . S
C80 C81 1.400 . S
C81 H73 0.931 . S
C81 C80 1.400 . S
C81 C82 1.375 . S
C82 C81 1.375 . S
C82 C83 1.415 . S
C82 C84 1.501 . S
C83 H74 0.931 . S
C83 C79 1.382 . S
C83 C82 1.415 . S
C84 C82 1.501 . S
C84 C85 1.384 . S
C84 C89 1.408 . S
C85 H75 0.938 . S
C85 C84 1.384 . S
C85 C86 1.389 . S
C86 C85 1.389 . S
C86 C87 1.405 . S
C87 H76 0.930 . S
C87 C86 1.405 . S
C87 C88 1.364 . S
C88 C87 1.364 . S
C88 C89 1.400 . S
C89 H77 0.931 . S
C89 C84 1.408 . S
C89 C88 1.400 . S
H90 C96 0.930 . S
H91 C99 0.931 . S
H92 C101 0.931 . S
H93 C103 0.930 . S
H94 C105 0.930 . S
H95 C107 0.931 . S
C96 H90 0.930 . S
C96 C97 1.380 . S
C96 C98 1.394 . S
C97 C96 1.380 . S
C97 C101 1.382 . S
C98 C96 1.394 . S
C98 C99 1.400 . S
C99 H91 0.931 . S
C99 C98 1.400 . S
C99 C100 1.375 . S
C100 C99 1.375 . S
C100 C101 1.415 . S
C100 C102 1.501 . S
C101 H92 0.931 . S
C101 C97 1.382 . S
C101 C100 1.415 . S
C102 C100 1.501 . S
C102 C103 1.384 . S
C102 C107 1.408 . S
C103 H93 0.930 . S
C103 C102 1.384 . S
C103 C104 1.389 . S
C104 C103 1.389 . S
C104 C105 1.405 . S
C105 H94 0.930 . S
C105 C104 1.405 . S
C105 C106 1.364 . S
C106 C105 1.364 . S
C106 C107 1.400 . S
C107 H95 0.931 . S
C107 C102 1.408 . S
C107 C106 1.400 . S
C108 O120 1.241 . S
C108 O121 1.280 . S
C109 O122 1.277 . S
C109 O123 1.245 . S
C110 O134 1.247 . S
C110 O136 1.289 . S
Mg111 O112 1.938 1_655 S
Mg111 O121 1.984 . S
Mg111 O123 1.988 1_655 S
Mg111 O124 2.061 . S
O112 Mg111 1.938 1_455 S
O112 Mg113 1.985 . S
O112 Mg114 1.915 . S
Mg113 O112 1.985 . S
Mg113 O120 2.042 1_455 S
Mg113 O122 2.041 . S
Mg113 O128 2.038 1_455 S
Mg113 O136 2.238 . S
Mg114 O112 1.915 . S
Mg114 O115 1.917 . S
Mg114 O125 2.106 1_455 S
Mg114 O127 2.079 1_455 S
Mg114 O136 2.106 . S
Mg114 O137 2.079 . S
O115 Mg114 1.917 . S
O115 Mg116 1.926 . S
O115 Mg117 1.986 . S
Mg116 O115 1.926 . S
Mg116 O130 1.984 . S
Mg116 O133 1.988 1_455 S
Mg116 O134 2.061 . S
Mg117 O115 1.986 . S
Mg117 O125 2.238 1_455 S
Mg117 O129 2.042 . S
Mg117 O131 2.041 1_455 S
Mg117 O138 2.038 . S
C118 O124 1.247 . S
C118 O125 1.289 . S
C119 O137 1.245 . S
C119 O138 1.274 . S
O120 C108 1.241 . S
O120 Mg113 2.042 1_655 S
O121 C108 1.280 . S
O121 Mg111 1.984 . S
O122 C109 1.277 . S
O122 Mg113 2.041 . S
O123 C109 1.245 . S
O123 Mg111 1.988 1_455 S
O124 Mg111 2.061 . S
O124 C118 1.247 . S
O125 Mg114 2.106 1_655 S
O125 Mg117 2.238 1_655 S
O125 C118 1.289 . S
C126 O127 1.245 . S
C126 O128 1.274 . S
O127 Mg114 2.079 1_655 S
O127 C126 1.245 . S
O128 Mg113 2.038 1_655 S
O128 C126 1.274 . S
O129 Mg117 2.042 . S
O129 C132 1.241 . S
O130 Mg116 1.984 . S
O130 C132 1.280 . S
O131 Mg117 2.041 1_655 S
O131 C135 1.277 . S
C132 O129 1.241 . S
C132 O130 1.280 . S
O133 Mg116 1.988 1_655 S
O133 C135 1.245 . S
O134 C110 1.247 . S
O134 Mg116 2.061 . S
C135 O131 1.277 . S
C135 O133 1.245 . S
O136 C110 1.289 . S
O136 Mg113 2.238 . S
O136 Mg114 2.106 . S
O137 Mg114 2.079 . S
O137 C119 1.245 . S
O138 Mg117 2.038 . S
O138 C119 1.274 . S
C139 O151 1.241 . S
C139 O152 1.280 . S
C140 O153 1.277 . S
C140 O154 1.245 . S
C141 O165 1.247 . S
C141 O167 1.289 . S
Mg142 O143 1.926 . S
Mg142 O152 1.984 . S
Mg142 O154 1.988 1_545 S
Mg142 O155 2.061 . S
O143 Mg142 1.926 . S
O143 Mg144 1.986 . S
O143 Mg145 1.917 . S
Mg144 O143 1.986 . S
Mg144 O151 2.042 . S
Mg144 O153 2.041 1_545 S
Mg144 O159 2.038 . S
Mg144 O167 2.238 1_545 S
Mg145 O143 1.917 . S
Mg145 O146 1.917 1_545 S
Mg145 O156 2.106 . S
Mg145 O158 2.079 . S
Mg145 O167 2.106 1_545 S
Mg145 O168 2.079 1_545 S
O146 Mg145 1.917 1_565 S
O146 Mg147 1.926 . S
O146 Mg148 1.986 1_565 S
Mg147 O146 1.926 . S
Mg147 O161 1.984 . S
Mg147 O164 1.988 1_565 S
Mg147 O165 2.061 . S
Mg148 O146 1.986 1_545 S
Mg148 O156 2.238 . S
Mg148 O160 2.042 1_545 S
Mg148 O162 2.041 . S
Mg148 O169 2.038 1_545 S
C149 O155 1.247 . S
C149 O156 1.289 . S
C150 O168 1.245 . S
C150 O169 1.274 . S
O151 C139 1.241 . S
O151 Mg144 2.042 . S
O152 C139 1.280 . S
O152 Mg142 1.984 . S
O153 C140 1.277 . S
O153 Mg144 2.041 1_565 S
O154 C140 1.245 . S
O154 Mg142 1.988 1_565 S
O155 Mg142 2.061 . S
O155 C149 1.247 . S
O156 Mg145 2.106 . S
O156 Mg148 2.238 . S
O156 C149 1.289 . S
C157 O158 1.245 . S
C157 O159 1.274 . S
O158 Mg145 2.079 . S
O158 C157 1.245 . S
O159 Mg144 2.038 . S
O159 C157 1.274 . S
O160 Mg148 2.042 1_565 S
O160 C163 1.241 . S
O161 Mg147 1.984 . S
O161 C163 1.280 . S
O162 Mg148 2.041 . S
O162 C166 1.277 . S
C163 O160 1.241 . S
C163 O161 1.280 . S
O164 Mg147 1.988 1_545 S
O164 C166 1.245 . S
O165 C141 1.247 . S
O165 Mg147 2.061 . S
C166 O162 1.277 . S
C166 O164 1.245 . S
O167 C141 1.289 . S
O167 Mg144 2.238 1_565 S
O167 Mg145 2.106 1_565 S
O168 Mg145 2.079 1_565 S
O168 C150 1.245 . S
O169 Mg148 2.038 1_565 S
O169 C150 1.274 . S
C170 O182 1.241 . S
C170 O183 1.280 . S
C171 O184 1.277 . S
C171 O185 1.245 . S
C172 O196 1.247 . S
C172 O198 1.289 . S
Mg173 O174 1.926 . S
Mg173 O183 1.984 . S
Mg173 O185 1.988 . S
Mg173 O186 2.061 . S
O174 Mg173 1.926 . S
O174 Mg175 1.986 . S
O174 Mg176 1.917 . S
Mg175 O174 1.986 . S
Mg175 O182 2.042 . S
Mg175 O184 2.041 . S
Mg175 O190 2.038 . S
Mg175 O198 2.238 . S
Mg176 O174 1.917 . S
Mg176 O177 1.917 . S
Mg176 O187 2.106 . S
Mg176 O189 2.079 . S
Mg176 O198 2.106 . S
Mg176 O199 2.079 . S
O177 Mg176 1.917 . S
O177 Mg178 1.926 . S
O177 Mg179 1.986 . S
Mg178 O177 1.926 . S
Mg178 O192 1.984 . S
Mg178 O195 1.988 . S
Mg178 O196 2.061 . S
Mg179 O177 1.986 . S
Mg179 O187 2.238 . S
Mg179 O191 2.042 . S
Mg179 O193 2.041 . S
Mg179 O200 2.038 . S
C180 O186 1.247 . S
C180 O187 1.289 . S
C181 O199 1.245 . S
C181 O200 1.274 . S
O182 C170 1.241 . S
O182 Mg175 2.042 . S
O183 C170 1.280 . S
O183 Mg173 1.984 . S
O184 C171 1.277 . S
O184 Mg175 2.041 . S
O185 C171 1.245 . S
O185 Mg173 1.988 . S
O186 Mg173 2.061 . S
O186 C180 1.247 . S
O187 Mg176 2.106 . S
O187 Mg179 2.238 . S
O187 C180 1.289 . S
C188 O189 1.245 . S
C188 O190 1.274 . S
O189 Mg176 2.079 . S
O189 C188 1.245 . S
O190 Mg175 2.038 . S
O190 C188 1.274 . S
O191 Mg179 2.042 . S
O191 C194 1.241 . S
O192 Mg178 1.984 . S
O192 C194 1.280 . S
O193 Mg179 2.041 . S
O193 C197 1.277 . S
C194 O191 1.241 . S
C194 O192 1.280 . S
O195 Mg178 1.988 . S
O195 C197 1.245 . S
O196 C172 1.247 . S
O196 Mg178 2.061 . S
C197 O193 1.277 . S
C197 O195 1.245 . S
O198 C172 1.289 . S
O198 Mg175 2.238 . S
O198 Mg176 2.106 . S
O199 Mg176 2.079 . S
O199 C181 1.245 . S
O200 Mg179 2.038 . S
O200 C181 1.274 . S
H201 C219 0.951 . S
H202 C221 0.951 . S
H203 C223 0.950 . S
H204 C224 0.950 . S
H205 C226 0.950 . S
H206 C229 0.950 . S
H207 C230 0.950 . S
H208 C232 0.950 . S
H209 C233 0.950 . S
H210 C234 0.951 . S
H211 C236 0.951 . S
H212 C238 0.950 . S
H213 C239 0.950 . S
H214 C241 0.950 . S
H215 C244 0.950 . S
H216 C245 0.950 . S
H217 C247 0.950 . S
H218 C248 0.950 . S
C219 H201 0.951 . S
C219 C220 1.366 . S
C219 C221 1.388 . S
C220 C219 1.366 . S
C220 C224 1.385 . S
C221 H202 0.951 . S
C221 C219 1.388 . S
C221 C222 1.366 . S
C222 C221 1.366 . S
C222 C223 1.414 . S
C222 C225 1.499 . S
C223 H203 0.950 . S
C223 C222 1.414 . S
C223 C224 1.374 . S
C224 H204 0.950 . S
C224 C220 1.385 . S
C224 C223 1.374 . S
C225 C222 1.499 . S
C225 C226 1.373 . S
C225 C227 1.389 . S
C226 H205 0.950 . S
C226 C225 1.373 . S
C226 C242 1.377 . S
C227 C225 1.389 . S
C227 C228 1.524 . S
C227 C241 1.377 . S
C228 C227 1.524 . S
C228 C229 1.397 . S
C228 C233 1.363 . S
C229 H206 0.950 . S
C229 C228 1.397 . S
C229 C230 1.334 . S
C230 H207 0.950 . S
C230 C229 1.334 . S
C230 C231 1.287 . S
C231 C230 1.287 . S
C231 C232 1.524 . S
C231 H250 0.913 . S
C232 H208 0.950 . S
C232 C231 1.524 . S
C232 C233 1.415 . S
C233 H209 0.950 . S
C233 C228 1.363 . S
C233 C232 1.415 . S
C234 H210 0.951 . S
C234 C235 1.366 . S
C234 C236 1.388 . S
C235 C234 1.366 . S
C235 C239 1.385 . S
C236 H211 0.951 . S
C236 C234 1.388 . S
C236 C237 1.366 . S
C237 C236 1.366 . S
C237 C238 1.414 . S
C237 C240 1.499 . S
C238 H212 0.950 . S
C238 C237 1.414 . S
C238 C239 1.374 . S
C239 H213 0.950 . S
C239 C235 1.385 . S
C239 C238 1.374 . S
C240 C237 1.499 . S
C240 C241 1.373 . S
C240 C242 1.389 . S
C241 H214 0.950 . S
C241 C227 1.377 . S
C241 C240 1.373 . S
C242 C226 1.377 . S
C242 C240 1.389 . S
C242 C243 1.524 . S
C243 C242 1.524 . S
C243 C244 1.397 . S
C243 C248 1.363 . S
C244 H215 0.950 . S
C244 C243 1.397 . S
C244 C245 1.334 . S
C245 H216 0.950 . S
C245 C244 1.334 . S
C245 C246 1.287 . S
C246 C245 1.287 . S
C246 C247 1.524 . S
C246 H249 0.999 . S
C247 H217 0.950 . S
C247 C246 1.524 . S
C247 C248 1.415 . S
C248 H218 0.950 . S
C248 C243 1.363 . S
C248 C247 1.415 . S
H249 C246 0.999 . S
H250 C231 0.913 . S
H251 C269 0.951 . S
H252 C271 0.951 . S
H253 C273 0.950 . S
H254 C274 0.950 . S
H255 C276 0.950 . S
H256 C279 0.950 . S
H257 C280 0.950 . S
H258 C282 0.950 . S
H259 C283 0.950 . S
H260 C284 0.951 . S
H261 C286 0.951 . S
H262 C288 0.950 . S
H263 C289 0.950 . S
H264 C291 0.950 . S
H265 C294 0.950 . S
H266 C295 0.950 . S
H267 C297 0.950 . S
H268 C298 0.950 . S
C269 H251 0.951 . S
C269 C270 1.366 . S
C269 C271 1.388 . S
C270 C269 1.366 . S
C270 C274 1.385 . S
C271 H252 0.951 . S
C271 C269 1.388 . S
C271 C272 1.366 . S
C272 C271 1.366 . S
C272 C273 1.414 . S
C272 C275 1.499 . S
C273 H253 0.950 . S
C273 C272 1.414 . S
C273 C274 1.374 . S
C274 H254 0.950 . S
C274 C270 1.385 . S
C274 C273 1.374 . S
C275 C272 1.499 . S
C275 C276 1.373 . S
C275 C277 1.389 . S
C276 H255 0.950 . S
C276 C275 1.373 . S
C276 C292 1.377 . S
C277 C275 1.389 . S
C277 C278 1.524 . S
C277 C291 1.377 . S
C278 C277 1.524 . S
C278 C279 1.397 . S
C278 C283 1.363 . S
C279 H256 0.950 . S
C279 C278 1.397 . S
C279 C280 1.334 . S
C280 H257 0.950 . S
C280 C279 1.334 . S
C280 C281 1.287 . S
C281 C280 1.287 . S
C281 C282 1.524 . S
C281 H300 0.913 . S
C282 H258 0.950 . S
C282 C281 1.524 . S
C282 C283 1.415 . S
C283 H259 0.950 . S
C283 C278 1.363 . S
C283 C282 1.415 . S
C284 H260 0.951 . S
C284 C285 1.366 . S
C284 C286 1.388 . S
C285 C284 1.366 . S
C285 C289 1.385 . S
C286 H261 0.951 . S
C286 C284 1.388 . S
C286 C287 1.366 . S
C287 C286 1.366 . S
C287 C288 1.414 . S
C287 C290 1.499 . S
C288 H262 0.950 . S
C288 C287 1.414 . S
C288 C289 1.374 . S
C289 H263 0.950 . S
C289 C285 1.385 . S
C289 C288 1.374 . S
C290 C287 1.499 . S
C290 C291 1.373 . S
C290 C292 1.389 . S
C291 H264 0.950 . S
C291 C277 1.377 . S
C291 C290 1.373 . S
C292 C276 1.377 . S
C292 C290 1.389 . S
C292 C293 1.524 . S
C293 C292 1.524 . S
C293 C294 1.397 . S
C293 C298 1.363 . S
C294 H265 0.950 . S
C294 C293 1.397 . S
C294 C295 1.334 . S
C295 H266 0.950 . S
C295 C294 1.334 . S
C295 C296 1.287 . S
C296 C295 1.287 . S
C296 C297 1.524 . S
C296 H299 0.999 . S
C297 H267 0.950 . S
C297 C296 1.524 . S
C297 C298 1.415 . S
C298 H268 0.950 . S
C298 C293 1.363 . S
C298 C297 1.415 . S
H299 C296 0.999 . S
H300 C281 0.913 . S
H301 C319 0.951 . S
H302 C321 0.951 . S
H303 C323 0.950 . S
H304 C324 0.950 . S
H305 C326 0.950 . S
H306 C329 0.950 . S
H307 C330 0.950 . S
H308 C332 0.950 . S
H309 C333 0.950 . S
H310 C334 0.951 . S
H311 C336 0.951 . S
H312 C338 0.950 . S
H313 C339 0.950 . S
H314 C341 0.950 . S
H315 C344 0.950 . S
H316 C345 0.950 . S
H317 C347 0.950 . S
H318 C348 0.950 . S
C319 H301 0.951 . S
C319 C320 1.366 . S
C319 C321 1.388 . S
C320 C319 1.366 . S
C320 C324 1.385 . S
C321 H302 0.951 . S
C321 C319 1.388 . S
C321 C322 1.366 . S
C322 C321 1.366 . S
C322 C323 1.414 . S
C322 C325 1.499 . S
C323 H303 0.950 . S
C323 C322 1.414 . S
C323 C324 1.374 . S
C324 H304 0.950 . S
C324 C320 1.385 . S
C324 C323 1.374 . S
C325 C322 1.499 . S
C325 C326 1.373 . S
C325 C327 1.389 . S
C326 H305 0.950 . S
C326 C325 1.373 . S
C326 C342 1.377 . S
C327 C325 1.389 . S
C327 C328 1.524 . S
C327 C341 1.377 . S
C328 C327 1.524 . S
C328 C329 1.397 . S
C328 C333 1.363 . S
C329 H306 0.950 . S
C329 C328 1.397 . S
C329 C330 1.334 . S
C330 H307 0.950 . S
C330 C329 1.334 . S
C330 C331 1.287 . S
C331 C330 1.287 . S
C331 C332 1.524 . S
C331 H350 0.913 . S
C332 H308 0.950 . S
C332 C331 1.524 . S
C332 C333 1.415 . S
C333 H309 0.950 . S
C333 C328 1.363 . S
C333 C332 1.415 . S
C334 H310 0.951 . S
C334 C335 1.366 . S
C334 C336 1.388 . S
C335 C334 1.366 . S
C335 C339 1.385 . S
C336 H311 0.951 . S
C336 C334 1.388 . S
C336 C337 1.366 . S
C337 C336 1.366 . S
C337 C338 1.414 . S
C337 C340 1.499 . S
C338 H312 0.950 . S
C338 C337 1.414 . S
C338 C339 1.374 . S
C339 H313 0.950 . S
C339 C335 1.385 . S
C339 C338 1.374 . S
C340 C337 1.499 . S
C340 C341 1.373 . S
C340 C342 1.389 . S
C341 H314 0.950 . S
C341 C327 1.377 . S
C341 C340 1.373 . S
C342 C326 1.377 . S
C342 C340 1.389 . S
C342 C343 1.524 . S
C343 C342 1.524 . S
C343 C344 1.397 . S
C343 C348 1.363 . S
C344 H315 0.950 . S
C344 C343 1.397 . S
C344 C345 1.334 . S
C345 H316 0.950 . S
C345 C344 1.334 . S
C345 C346 1.287 . S
C346 C345 1.287 . S
C346 C347 1.524 . S
C346 H349 0.999 . S
C347 H317 0.950 . S
C347 C346 1.524 . S
C347 C348 1.415 . S
C348 H318 0.950 . S
C348 C343 1.363 . S
C348 C347 1.415 . S
H349 C346 0.999 . S
H350 C331 0.913 . S
H351 C369 0.951 . S
H352 C371 0.951 . S
H353 C373 0.950 . S
H354 C374 0.950 . S
H355 C376 0.950 . S
H356 C379 0.950 . S
H357 C380 0.950 . S
H358 C382 0.950 . S
H359 C383 0.950 . S
H360 C384 0.951 . S
H361 C386 0.951 . S
H362 C388 0.950 . S
H363 C389 0.950 . S
H364 C391 0.950 . S
H365 C394 0.950 . S
H366 C395 0.950 . S
H367 C397 0.950 . S
H368 C398 0.950 . S
C369 H351 0.951 . S
C369 C370 1.366 . S
C369 C371 1.388 . S
C370 C369 1.366 . S
C370 C374 1.385 . S
C371 H352 0.951 . S
C371 C369 1.388 . S
C371 C372 1.366 . S
C372 C371 1.366 . S
C372 C373 1.414 . S
C372 C375 1.499 . S
C373 H353 0.950 . S
C373 C372 1.414 . S
C373 C374 1.374 . S
C374 H354 0.950 . S
C374 C370 1.385 . S
C374 C373 1.374 . S
C375 C372 1.499 . S
C375 C376 1.373 . S
C375 C377 1.389 . S
C376 H355 0.950 . S
C376 C375 1.373 . S
C376 C392 1.377 . S
C377 C375 1.389 . S
C377 C378 1.524 . S
C377 C391 1.377 . S
C378 C377 1.524 . S
C378 C379 1.397 . S
C378 C383 1.363 . S
C379 H356 0.950 . S
C379 C378 1.397 . S
C379 C380 1.334 . S
C380 H357 0.950 . S
C380 C379 1.334 . S
C380 C381 1.287 . S
C381 C380 1.287 . S
C381 C382 1.524 . S
C381 H400 0.913 . S
C382 H358 0.950 . S
C382 C381 1.524 . S
C382 C383 1.415 . S
C383 H359 0.950 . S
C383 C378 1.363 . S
C383 C382 1.415 . S
C384 H360 0.951 . S
C384 C385 1.366 . S
C384 C386 1.388 . S
C385 C384 1.366 . S
C385 C389 1.385 . S
C386 H361 0.951 . S
C386 C384 1.388 . S
C386 C387 1.366 . S
C387 C386 1.366 . S
C387 C388 1.414 . S
C387 C390 1.499 . S
C388 H362 0.950 . S
C388 C387 1.414 . S
C388 C389 1.374 . S
C389 H363 0.950 . S
C389 C385 1.385 . S
C389 C388 1.374 . S
C390 C387 1.499 . S
C390 C391 1.373 . S
C390 C392 1.389 . S
C391 H364 0.950 . S
C391 C377 1.377 . S
C391 C390 1.373 . S
C392 C376 1.377 . S
C392 C390 1.389 . S
C392 C393 1.524 . S
C393 C392 1.524 . S
C393 C394 1.397 . S
C393 C398 1.363 . S
C394 H365 0.950 . S
C394 C393 1.397 . S
C394 C395 1.334 . S
C395 H366 0.950 . S
C395 C394 1.334 . S
C395 C396 1.287 . S
C396 C395 1.287 . S
C396 C397 1.524 . S
C396 H399 0.999 . S
C397 H367 0.950 . S
C397 C396 1.524 . S
C397 C398 1.415 . S
C398 H368 0.950 . S
C398 C393 1.363 . S
C398 C397 1.415 . S
H399 C396 0.999 . S
H400 C381 0.913 . S
H401 C419 0.951 . S
H402 C421 0.951 . S
H403 C423 0.950 . S
H404 C424 0.950 . S
H405 C426 0.950 . S
H406 C429 0.950 . S
H407 C430 0.950 . S
H408 C432 0.950 . S
H409 C433 0.950 . S
H410 C434 0.951 . S
H411 C436 0.951 . S
H412 C438 0.950 . S
H413 C439 0.950 . S
H414 C441 0.950 . S
H415 C444 0.950 . S
H416 C445 0.950 . S
H417 C447 0.950 . S
H418 C448 0.950 . S
C419 H401 0.951 . S
C419 C420 1.366 . S
C419 C421 1.388 . S
C420 C419 1.366 . S
C420 C424 1.385 . S
C421 H402 0.951 . S
C421 C419 1.388 . S
C421 C422 1.366 . S
C422 C421 1.366 . S
C422 C423 1.414 . S
C422 C425 1.499 . S
C423 H403 0.950 . S
C423 C422 1.414 . S
C423 C424 1.374 . S
C424 H404 0.950 . S
C424 C420 1.385 . S
C424 C423 1.374 . S
C425 C422 1.499 . S
C425 C426 1.373 . S
C425 C427 1.389 . S
C426 H405 0.950 . S
C426 C425 1.373 . S
C426 C442 1.377 . S
C427 C425 1.389 . S
C427 C428 1.524 . S
C427 C441 1.377 . S
C428 C427 1.524 . S
C428 C429 1.397 . S
C428 C433 1.363 . S
C429 H406 0.950 . S
C429 C428 1.397 . S
C429 C430 1.334 . S
C430 H407 0.950 . S
C430 C429 1.334 . S
C430 C431 1.287 . S
C431 C430 1.287 . S
C431 C432 1.524 . S
C431 H450 0.913 . S
C432 H408 0.950 . S
C432 C431 1.524 . S
C432 C433 1.415 . S
C433 H409 0.950 . S
C433 C428 1.363 . S
C433 C432 1.415 . S
C434 H410 0.951 . S
C434 C435 1.366 . S
C434 C436 1.388 . S
C435 C434 1.366 . S
C435 C439 1.385 . S
C436 H411 0.951 . S
C436 C434 1.388 . S
C436 C437 1.366 . S
C437 C436 1.366 . S
C437 C438 1.414 . S
C437 C440 1.499 . S
C438 H412 0.950 . S
C438 C437 1.414 . S
C438 C439 1.374 . S
C439 H413 0.950 . S
C439 C435 1.385 . S
C439 C438 1.374 . S
C440 C437 1.499 . S
C440 C441 1.373 . S
C440 C442 1.389 . S
C441 H414 0.950 . S
C441 C427 1.377 . S
C441 C440 1.373 . S
C442 C426 1.377 . S
C442 C440 1.389 . S
C442 C443 1.524 . S
C443 C442 1.524 . S
C443 C444 1.397 . S
C443 C448 1.363 . S
C444 H415 0.950 . S
C444 C443 1.397 . S
C444 C445 1.334 . S
C445 H416 0.950 . S
C445 C444 1.334 . S
C445 C446 1.287 . S
C446 C445 1.287 . S
C446 C447 1.524 . S
C446 H449 0.999 . S
C447 H417 0.950 . S
C447 C446 1.524 . S
C447 C448 1.415 . S
C448 H418 0.950 . S
C448 C443 1.363 . S
C448 C447 1.415 . S
H449 C446 0.999 . S
H450 C431 0.913 . S
H451 C469 0.951 . S
H452 C471 0.951 . S
H453 C473 0.950 . S
H454 C474 0.950 . S
H455 C476 0.950 . S
H456 C479 0.950 . S
H457 C480 0.950 . S
H458 C482 0.950 . S
H459 C483 0.950 . S
H460 C484 0.951 . S
H461 C486 0.951 . S
H462 C488 0.950 . S
H463 C489 0.950 . S
H464 C491 0.950 . S
H465 C494 0.950 . S
H466 C495 0.950 . S
H467 C497 0.950 . S
H468 C498 0.950 . S
C469 H451 0.951 . S
C469 C470 1.366 . S
C469 C471 1.388 . S
C470 C469 1.366 . S
C470 C474 1.385 . S
C471 H452 0.951 . S
C471 C469 1.388 . S
C471 C472 1.366 . S
C472 C471 1.366 . S
C472 C473 1.414 . S
C472 C475 1.499 . S
C473 H453 0.950 . S
C473 C472 1.414 . S
C473 C474 1.374 . S
C474 H454 0.950 . S
C474 C470 1.385 . S
C474 C473 1.374 . S
C475 C472 1.499 . S
C475 C476 1.373 . S
C475 C477 1.389 . S
C476 H455 0.950 . S
C476 C475 1.373 . S
C476 C492 1.377 . S
C477 C475 1.389 . S
C477 C478 1.524 . S
C477 C491 1.377 . S
C478 C477 1.524 . S
C478 C479 1.397 . S
C478 C483 1.363 . S
C479 H456 0.950 . S
C479 C478 1.397 . S
C479 C480 1.334 . S
C480 H457 0.950 . S
C480 C479 1.334 . S
C480 C481 1.287 . S
C481 C480 1.287 . S
C481 C482 1.524 . S
C481 H500 0.913 . S
C482 H458 0.950 . S
C482 C481 1.524 . S
C482 C483 1.415 . S
C483 H459 0.950 . S
C483 C478 1.363 . S
C483 C482 1.415 . S
C484 H460 0.951 . S
C484 C485 1.366 . S
C484 C486 1.388 . S
C485 C484 1.366 . S
C485 C489 1.385 . S
C486 H461 0.951 . S
C486 C484 1.388 . S
C486 C487 1.366 . S
C487 C486 1.366 . S
C487 C488 1.414 . S
C487 C490 1.499 . S
C488 H462 0.950 . S
C488 C487 1.414 . S
C488 C489 1.374 . S
C489 H463 0.950 . S
C489 C485 1.385 . S
C489 C488 1.374 . S
C490 C487 1.499 . S
C490 C491 1.373 . S
C490 C492 1.389 . S
C491 H464 0.950 . S
C491 C477 1.377 . S
C491 C490 1.373 . S
C492 C476 1.377 . S
C492 C490 1.389 . S
C492 C493 1.524 . S
C493 C492 1.524 . S
C493 C494 1.397 . S
C493 C498 1.363 . S
C494 H465 0.950 . S
C494 C493 1.397 . S
C494 C495 1.334 . S
C495 H466 0.950 . S
C495 C494 1.334 . S
C495 C496 1.287 . S
C496 C495 1.287 . S
C496 C497 1.524 . S
C496 H499 0.999 . S
C497 H467 0.950 . S
C497 C496 1.524 . S
C497 C498 1.415 . S
C498 H468 0.950 . S
C498 C493 1.363 . S
C498 C497 1.415 . S
H499 C496 0.999 . S
H500 C481 0.913 . S
H501 C519 0.951 . S
H502 C521 0.951 . S
H503 C523 0.950 . S
H504 C524 0.950 . S
H505 C526 0.950 . S
H506 C529 0.950 . S
H507 C530 0.950 . S
H508 C532 0.950 . S
H509 C533 0.950 . S
H510 C534 0.951 . S
H511 C536 0.951 . S
H512 C538 0.950 . S
H513 C539 0.950 . S
H514 C541 0.950 . S
H515 C544 0.950 . S
H516 C545 0.950 . S
H517 C547 0.950 . S
H518 C548 0.950 . S
C519 H501 0.951 . S
C519 C520 1.366 . S
C519 C521 1.388 . S
C520 C519 1.366 . S
C520 C524 1.385 . S
C521 H502 0.951 . S
C521 C519 1.388 . S
C521 C522 1.366 . S
C522 C521 1.366 . S
C522 C523 1.414 . S
C522 C525 1.499 . S
C523 H503 0.950 . S
C523 C522 1.414 . S
C523 C524 1.374 . S
C524 H504 0.950 . S
C524 C520 1.385 . S
C524 C523 1.374 . S
C525 C522 1.499 . S
C525 C526 1.373 . S
C525 C527 1.389 . S
C526 H505 0.950 . S
C526 C525 1.373 . S
C526 C542 1.377 . S
C527 C525 1.389 . S
C527 C528 1.524 . S
C527 C541 1.377 . S
C528 C527 1.524 . S
C528 C529 1.397 . S
C528 C533 1.363 . S
C529 H506 0.950 . S
C529 C528 1.397 . S
C529 C530 1.334 . S
C530 H507 0.950 . S
C530 C529 1.334 . S
C530 C531 1.287 . S
C531 C530 1.287 . S
C531 C532 1.524 . S
C531 H550 0.913 . S
C532 H508 0.950 . S
C532 C531 1.524 . S
C532 C533 1.415 . S
C533 H509 0.950 . S
C533 C528 1.363 . S
C533 C532 1.415 . S
C534 H510 0.951 . S
C534 C535 1.366 . S
C534 C536 1.388 . S
C535 C534 1.366 . S
C535 C539 1.385 . S
C536 H511 0.951 . S
C536 C534 1.388 . S
C536 C537 1.366 . S
C537 C536 1.366 . S
C537 C538 1.414 . S
C537 C540 1.499 . S
C538 H512 0.950 . S
C538 C537 1.414 . S
C538 C539 1.374 . S
C539 H513 0.950 . S
C539 C535 1.385 . S
C539 C538 1.374 . S
C540 C537 1.499 . S
C540 C541 1.373 . S
C540 C542 1.389 . S
C541 H514 0.950 . S
C541 C527 1.377 . S
C541 C540 1.373 . S
C542 C526 1.377 . S
C542 C540 1.389 . S
C542 C543 1.524 . S
C543 C542 1.524 . S
C543 C544 1.397 . S
C543 C548 1.363 . S
C544 H515 0.950 . S
C544 C543 1.397 . S
C544 C545 1.334 . S
C545 H516 0.950 . S
C545 C544 1.334 . S
C545 C546 1.287 . S
C546 C545 1.287 . S
C546 C547 1.524 . S
C546 H549 0.966 1_565 S
C547 H517 0.950 . S
C547 C546 1.524 . S
C547 C548 1.415 . S
C548 H518 0.950 . S
C548 C543 1.363 . S
C548 C547 1.415 . S
H549 C546 0.966 1_545 S
H550 C531 0.913 . S
H551 C569 0.951 1_554 S
H552 C571 0.951 . S
H553 C573 0.950 . S
H554 C574 0.950 . S
H555 C576 0.950 . S
H556 C579 0.950 . S
H557 C580 0.950 . S
H558 C582 0.950 . S
H559 C583 0.950 . S
H560 C584 0.951 . S
H561 C586 0.951 . S
H562 C588 0.950 . S
H563 C589 0.950 . S
H564 C591 0.950 . S
H565 C594 0.950 . S
H566 C595 0.950 . S
H567 C597 0.950 . S
H568 C598 0.950 . S
C569 H551 0.951 1_556 S
C569 C570 1.366 . S
C569 C571 1.388 . S
C570 C569 1.366 . S
C570 C574 1.385 . S
C571 H552 0.951 . S
C571 C569 1.388 . S
C571 C572 1.366 . S
C572 C571 1.366 . S
C572 C573 1.414 . S
C572 C575 1.499 . S
C573 H553 0.950 . S
C573 C572 1.414 . S
C573 C574 1.374 . S
C574 H554 0.950 . S
C574 C570 1.385 . S
C574 C573 1.374 . S
C575 C572 1.499 . S
C575 C576 1.373 . S
C575 C577 1.389 . S
C576 H555 0.950 . S
C576 C575 1.373 . S
C576 C592 1.377 . S
C577 C575 1.389 . S
C577 C578 1.524 . S
C577 C591 1.377 . S
C578 C577 1.524 . S
C578 C579 1.397 . S
C578 C583 1.363 . S
C579 H556 0.950 . S
C579 C578 1.397 . S
C579 C580 1.334 . S
C580 H557 0.950 . S
C580 C579 1.334 . S
C580 C581 1.287 1_556 S
C581 C580 1.287 1_554 S
C581 C582 1.524 . S
C581 H600 0.913 . S
C582 H558 0.950 . S
C582 C581 1.524 . S
C582 C583 1.415 1_554 S
C583 H559 0.950 . S
C583 C578 1.363 . S
C583 C582 1.415 1_556 S
C584 H560 0.951 . S
C584 C585 1.366 . S
C584 C586 1.388 . S
C585 C584 1.366 . S
C585 C589 1.385 . S
C586 H561 0.951 . S
C586 C584 1.388 . S
C586 C587 1.366 . S
C587 C586 1.366 . S
C587 C588 1.414 . S
C587 C590 1.499 . S
C588 H562 0.950 . S
C588 C587 1.414 . S
C588 C589 1.374 . S
C589 H563 0.950 . S
C589 C585 1.385 . S
C589 C588 1.374 . S
C590 C587 1.499 . S
C590 C591 1.373 . S
C590 C592 1.389 . S
C591 H564 0.950 . S
C591 C577 1.377 . S
C591 C590 1.373 . S
C592 C576 1.377 . S
C592 C590 1.389 . S
C592 C593 1.524 . S
C593 C592 1.524 . S
C593 C594 1.397 . S
C593 C598 1.363 . S
C594 H565 0.950 . S
C594 C593 1.397 . S
C594 C595 1.334 . S
C595 H566 0.950 . S
C595 C594 1.334 . S
C595 C596 1.287 . S
C596 C595 1.287 . S
C596 C597 1.524 . S
C596 H599 0.999 . S
C597 H567 0.950 . S
C597 C596 1.524 . S
C597 C598 1.415 . S
C598 H568 0.950 . S
C598 C593 1.363 . S
C598 C597 1.415 . S
H599 C596 0.999 . S
H600 C581 0.913 . S
H601 C619 0.951 . S
H602 C621 0.951 . S
H603 C623 0.950 . S
H604 C624 0.950 . S
H605 C626 0.950 . S
H606 C629 0.950 . S
H607 C630 0.950 . S
H608 C632 0.950 . S
H609 C633 0.950 . S
H610 C634 0.951 . S
H611 C636 0.951 . S
H612 C638 0.950 . S
H613 C639 0.950 . S
H614 C641 0.950 . S
H615 C644 0.950 . S
H616 C645 0.950 . S
H617 C647 0.950 . S
H618 C648 0.950 . S
C619 H601 0.951 . S
C619 C620 1.366 . S
C619 C621 1.388 . S
C620 C619 1.366 . S
C620 C624 1.385 . S
C621 H602 0.951 . S
C621 C619 1.388 . S
C621 C622 1.366 . S
C622 C621 1.366 . S
C622 C623 1.414 . S
C622 C625 1.499 . S
C623 H603 0.950 . S
C623 C622 1.414 . S
C623 C624 1.374 . S
C624 H604 0.950 . S
C624 C620 1.385 . S
C624 C623 1.374 . S
C625 C622 1.499 . S
C625 C626 1.373 . S
C625 C627 1.389 . S
C626 H605 0.950 . S
C626 C625 1.373 . S
C626 C642 1.377 . S
C627 C625 1.389 . S
C627 C628 1.524 . S
C627 C641 1.377 . S
C628 C627 1.524 . S
C628 C629 1.397 1_556 S
C628 C633 1.363 . S
C629 H606 0.950 . S
C629 C628 1.397 1_554 S
C629 C630 1.334 . S
C630 H607 0.950 . S
C630 C629 1.334 . S
C630 C631 1.287 . S
C631 C630 1.287 . S
C631 C632 1.524 . S
C631 H650 0.913 . S
C632 H608 0.950 . S
C632 C631 1.524 . S
C632 C633 1.415 1_554 S
C633 H609 0.950 . S
C633 C628 1.363 . S
C633 C632 1.415 1_556 S
C634 H610 0.951 . S
C634 C635 1.366 . S
C634 C636 1.388 . S
C635 C634 1.366 . S
C635 C639 1.385 . S
C636 H611 0.951 . S
C636 C634 1.388 . S
C636 C637 1.366 . S
C637 C636 1.366 . S
C637 C638 1.414 . S
C637 C640 1.499 . S
C638 H612 0.950 . S
C638 C637 1.414 . S
C638 C639 1.374 . S
C639 H613 0.950 . S
C639 C635 1.385 . S
C639 C638 1.374 . S
C640 C637 1.499 . S
C640 C641 1.373 . S
C640 C642 1.389 . S
C641 H614 0.950 . S
C641 C627 1.377 . S
C641 C640 1.373 . S
C642 C626 1.377 . S
C642 C640 1.389 . S
C642 C643 1.524 . S
C643 C642 1.524 . S
C643 C644 1.397 . S
C643 C648 1.363 . S
C644 H615 0.950 . S
C644 C643 1.397 . S
C644 C645 1.334 . S
C645 H616 0.950 . S
C645 C644 1.334 . S
C645 C646 1.287 . S
C646 C645 1.287 . S
C646 C647 1.524 . S
C646 H649 0.999 . S
C647 H617 0.950 . S
C647 C646 1.524 . S
C647 C648 1.415 . S
C648 H618 0.950 . S
C648 C643 1.363 . S
C648 C647 1.415 . S
H649 C646 0.999 . S
H650 C631 0.913 . S
H651 C669 0.951 . S
H652 C671 0.951 . S
H653 C673 0.950 1_556 S
H654 C674 0.950 . S
H655 C676 0.950 . S
H656 C679 0.950 . S
H657 C680 0.950 . S
H658 C682 0.950 . S
H659 C683 0.950 . S
H660 C684 0.951 . S
H661 C686 0.951 . S
H662 C688 0.950 . S
H663 C689 0.950 . S
H664 C691 0.950 . S
H665 C694 0.950 . S
H666 C695 0.950 . S
H667 C697 0.950 . S
H668 C698 0.950 . S
C669 H651 0.951 . S
C669 C670 1.366 . S
C669 C671 1.388 . S
C670 C669 1.366 . S
C670 C674 1.385 . S
C671 H652 0.951 . S
C671 C669 1.388 . S
C671 C672 1.366 . S
C672 C671 1.366 . S
C672 C673 1.414 . S
C672 C675 1.499 1_554 S
C673 H653 0.950 1_554 S
C673 C672 1.414 . S
C673 C674 1.374 . S
C674 H654 0.950 . S
C674 C670 1.385 . S
C674 C673 1.374 . S
C675 C672 1.499 1_556 S
C675 C676 1.373 . S
C675 C677 1.389 . S
C676 H655 0.950 . S
C676 C675 1.373 . S
C676 C692 1.377 . S
C677 C675 1.389 . S
C677 C678 1.524 . S
C677 C691 1.377 . S
C678 C677 1.524 . S
C678 C679 1.397 . S
C678 C683 1.363 1_556 S
C679 H656 0.950 . S
C679 C678 1.397 . S
C679 C680 1.334 . S
C680 H657 0.950 . S
C680 C679 1.334 . S
C680 C681 1.287 . S
C681 C680 1.287 . S
C681 C682 1.523 1_556 S
C681 H700 0.913 1_556 S
C682 H658 0.950 . S
C682 C681 1.523 1_554 S
C682 C683 1.415 . S
C683 H659 0.950 . S
C683 C678 1.363 1_554 S
C683 C682 1.415 . S
C684 H660 0.951 . S
C684 C685 1.366 . S
C684 C686 1.388 . S
C685 C684 1.366 . S
C685 C689 1.385 . S
C686 H661 0.951 . S
C686 C684 1.388 . S
C686 C687 1.366 . S
C687 C686 1.366 . S
C687 C688 1.414 . S
C687 C690 1.499 . S
C688 H662 0.950 . S
C688 C687 1.414 . S
C688 C689 1.374 . S
C689 H663 0.950 . S
C689 C685 1.385 . S
C689 C688 1.374 . S
C690 C687 1.499 . S
C690 C691 1.373 . S
C690 C692 1.389 . S
C691 H664 0.950 . S
C691 C677 1.377 . S
C691 C690 1.373 . S
C692 C676 1.377 . S
C692 C690 1.389 . S
C692 C693 1.524 . S
C693 C692 1.524 . S
C693 C694 1.397 . S
C693 C698 1.363 . S
C694 H665 0.950 . S
C694 C693 1.397 . S
C694 C695 1.334 . S
C695 H666 0.950 . S
C695 C694 1.334 . S
C695 C696 1.287 . S
C696 C695 1.287 . S
C696 C697 1.524 . S
C696 H699 0.999 . S
C697 H667 0.950 . S
C697 C696 1.524 . S
C697 C698 1.415 . S
C698 H668 0.950 . S
C698 C693 1.363 . S
C698 C697 1.415 . S
H699 C696 0.999 . S
H700 C681 0.913 1_554 S
H701 C719 0.951 . S
H702 C721 0.951 1_556 S
H703 C723 0.950 . S
H704 C724 0.950 . S
H705 C726 0.950 . S
H706 C729 0.950 . S
H707 C730 0.950 . S
H708 C732 0.950 . S
H709 C733 0.950 . S
H710 C734 0.951 . S
H711 C736 0.951 . S
H712 C738 0.950 . S
H713 C739 0.950 . S
H714 C741 0.950 . S
H715 C744 0.950 . S
H716 C745 0.950 . S
H717 C747 0.950 . S
H718 C748 0.950 . S
C719 H701 0.951 . S
C719 C720 1.366 . S
C719 C721 1.388 . S
C720 C719 1.366 . S
C720 C724 1.385 . S
C721 H702 0.951 1_554 S
C721 C719 1.388 . S
C721 C722 1.366 1_554 S
C722 C721 1.366 1_556 S
C722 C723 1.414 . S
C722 C725 1.499 . S
C723 H703 0.950 . S
C723 C722 1.414 . S
C723 C724 1.374 1_556 S
C724 H704 0.950 . S
C724 C720 1.385 . S
C724 C723 1.374 1_554 S
C725 C722 1.499 . S
C725 C726 1.373 . S
C725 C727 1.389 . S
C726 H705 0.950 . S
C726 C725 1.373 . S
C726 C742 1.377 . S
C727 C725 1.389 . S
C727 C728 1.524 . S
C727 C741 1.377 . S
C728 C727 1.524 . S
C728 C729 1.397 . S
C728 C733 1.363 . S
C729 H706 0.950 . S
C729 C728 1.397 . S
C729 C730 1.334 . S
C730 H707 0.950 . S
C730 C729 1.334 . S
C730 C731 1.287 . S
C731 C730 1.287 . S
C731 C732 1.524 . S
C731 H750 0.913 . S
C732 H708 0.950 . S
C732 C731 1.524 . S
C732 C733 1.415 . S
C733 H709 0.950 . S
C733 C728 1.363 . S
C733 C732 1.415 . S
C734 H710 0.951 . S
C734 C735 1.366 . S
C734 C736 1.388 . S
C735 C734 1.366 . S
C735 C739 1.385 . S
C736 H711 0.951 . S
C736 C734 1.388 . S
C736 C737 1.366 . S
C737 C736 1.366 . S
C737 C738 1.414 . S
C737 C740 1.499 . S
C738 H712 0.950 . S
C738 C737 1.414 . S
C738 C739 1.374 . S
C739 H713 0.950 . S
C739 C735 1.385 . S
C739 C738 1.374 . S
C740 C737 1.499 . S
C740 C741 1.373 . S
C740 C742 1.389 . S
C741 H714 0.950 . S
C741 C727 1.377 . S
C741 C740 1.373 . S
C742 C726 1.377 . S
C742 C740 1.389 . S
C742 C743 1.524 . S
C743 C742 1.524 . S
C743 C744 1.397 . S
C743 C748 1.363 . S
C744 H715 0.950 . S
C744 C743 1.397 . S
C744 C745 1.334 . S
C745 H716 0.950 . S
C745 C744 1.334 . S
C745 C746 1.287 . S
C746 C745 1.287 . S
C746 C747 1.524 . S
C746 H749 0.999 . S
C747 H717 0.950 . S
C747 C746 1.524 . S
C747 C748 1.415 . S
C748 H718 0.950 . S
C748 C743 1.363 . S
C748 C747 1.415 . S
H749 C746 0.999 . S
H750 C731 0.913 . S
H751 C769 0.951 . S
H752 C771 0.952 . S
H753 C773 0.950 . S
H754 C774 0.950 . S
H755 C776 0.950 . S
H756 C779 0.950 . S
H757 C780 0.950 . S
H758 C782 0.950 . S
H759 C783 0.950 . S
H760 C784 0.951 . S
H761 C786 0.951 . S
H762 C788 0.950 . S
H763 C789 0.950 . S
H764 C791 0.950 . S
H765 C794 0.950 . S
H766 C795 0.950 1_554 S
H767 C797 0.950 . S
H768 C798 0.950 . S
C769 H751 0.951 . S
C769 C770 1.366 . S
C769 C771 1.383 1_554 S
C770 C769 1.366 . S
C770 C774 1.385 . S
C771 H752 0.952 . S
C771 C769 1.383 1_556 S
C771 C772 1.369 . S
C772 C771 1.369 . S
C772 C773 1.414 . S
C772 C775 1.499 . S
C773 H753 0.950 . S
C773 C772 1.414 . S
C773 C774 1.374 1_556 S
C774 H754 0.950 . S
C774 C770 1.385 . S
C774 C773 1.374 1_554 S
C775 C772 1.499 . S
C775 C776 1.373 . S
C775 C777 1.389 . S
C776 H755 0.950 . S
C776 C775 1.373 . S
C776 C792 1.377 . S
C777 C775 1.389 . S
C777 C778 1.524 . S
C777 C791 1.377 . S
C778 C777 1.524 . S
C778 C779 1.397 . S
C778 C783 1.363 . S
C779 H756 0.950 . S
C779 C778 1.397 . S
C779 C780 1.334 . S
C780 H757 0.950 . S
C780 C779 1.334 . S
C780 C781 1.287 . S
C781 C780 1.287 . S
C781 C782 1.524 . S
C781 H800 0.913 . S
C782 H758 0.950 . S
C782 C781 1.524 . S
C782 C783 1.415 . S
C783 H759 0.950 . S
C783 C778 1.363 . S
C783 C782 1.415 . S
C784 H760 0.951 . S
C784 C785 1.366 . S
C784 C786 1.388 . S
C785 C784 1.366 . S
C785 C789 1.385 . S
C786 H761 0.951 . S
C786 C784 1.388 . S
C786 C787 1.366 . S
C787 C786 1.366 . S
C787 C788 1.414 . S
C787 C790 1.499 . S
C788 H762 0.950 . S
C788 C787 1.414 . S
C788 C789 1.374 . S
C789 H763 0.950 . S
C789 C785 1.385 . S
C789 C788 1.374 . S
C790 C787 1.499 . S
C790 C791 1.373 . S
C790 C792 1.389 . S
C791 H764 0.950 . S
C791 C777 1.377 . S
C791 C790 1.373 . S
C792 C776 1.377 . S
C792 C790 1.389 . S
C792 C793 1.524 . S
C793 C792 1.524 . S
C793 C794 1.397 . S
C793 C798 1.363 . S
C794 H765 0.950 . S
C794 C793 1.397 . S
C794 C795 1.334 . S
C795 H766 0.950 1_556 S
C795 C794 1.334 . S
C795 C796 1.287 . S
C796 C795 1.287 . S
C796 C797 1.524 . S
C796 H799 0.999 1_656 S
C797 H767 0.950 . S
C797 C796 1.524 . S
C797 C798 1.415 . S
C798 H768 0.950 . S
C798 C793 1.363 . S
C798 C797 1.415 . S
H799 C796 0.999 1_454 S
H800 C781 0.913 . S
H801 C819 0.951 . S
H802 C821 0.951 . S
H803 C823 0.950 . S
H804 C824 0.950 1_554 S
H805 C826 0.950 . S
H806 C829 0.950 . S
H807 C830 0.950 . S
H808 C832 0.950 . S
H809 C833 0.950 . S
H810 C834 0.951 . S
H811 C836 0.951 . S
H812 C838 0.950 . S
H813 C839 0.950 . S
H814 C841 0.950 . S
H815 C844 0.950 . S
H816 C845 0.950 . S
H817 C847 0.950 . S
H818 C848 0.950 . S
C819 H801 0.951 . S
C819 C820 1.366 . S
C819 C821 1.388 . S
C820 C819 1.366 . S
C820 C824 1.385 . S
C821 H802 0.951 . S
C821 C819 1.388 . S
C821 C822 1.366 . S
C822 C821 1.366 . S
C822 C823 1.414 . S
C822 C825 1.499 . S
C823 H803 0.950 . S
C823 C822 1.414 . S
C823 C824 1.374 . S
C824 H804 0.950 1_556 S
C824 C820 1.385 . S
C824 C823 1.374 . S
C825 C822 1.499 . S
C825 C826 1.373 . S
C825 C827 1.389 . S
C826 H805 0.950 . S
C826 C825 1.373 . S
C826 C842 1.377 . S
C827 C825 1.389 . S
C827 C828 1.524 . S
C827 C841 1.377 . S
C828 C827 1.524 . S
C828 C829 1.397 . S
C828 C833 1.363 . S
C829 H806 0.950 . S
C829 C828 1.397 . S
C829 C830 1.334 . S
C830 H807 0.950 . S
C830 C829 1.334 . S
C830 C831 1.287 . S
C831 C830 1.287 . S
C831 C832 1.524 . S
C831 H850 0.913 . S
C832 H808 0.950 . S
C832 C831 1.524 . S
C832 C833 1.415 . S
C833 H809 0.950 . S
C833 C828 1.363 . S
C833 C832 1.415 . S
C834 H810 0.951 . S
C834 C835 1.366 . S
C834 C836 1.388 . S
C835 C834 1.366 . S
C835 C839 1.385 . S
C836 H811 0.951 . S
C836 C834 1.388 . S
C836 C837 1.366 . S
C837 C836 1.366 . S
C837 C838 1.414 . S
C837 C840 1.499 . S
C838 H812 0.950 . S
C838 C837 1.414 . S
C838 C839 1.374 . S
C839 H813 0.950 . S
C839 C835 1.385 . S
C839 C838 1.374 . S
C840 C837 1.499 . S
C840 C841 1.373 . S
C840 C842 1.389 . S
C841 H814 0.950 . S
C841 C827 1.377 . S
C841 C840 1.373 . S
C842 C826 1.377 . S
C842 C840 1.389 . S
C842 C843 1.524 . S
C843 C842 1.524 . S
C843 C844 1.397 . S
C843 C848 1.363 . S
C844 H815 0.950 . S
C844 C843 1.397 . S
C844 C845 1.334 . S
C845 H816 0.950 . S
C845 C844 1.334 . S
C845 C846 1.287 . S
C846 C845 1.287 . S
C846 C847 1.524 . S
C846 H849 0.999 . S
C847 H817 0.950 . S
C847 C846 1.524 . S
C847 C848 1.415 . S
C848 H818 0.950 . S
C848 C843 1.363 . S
C848 C847 1.415 . S
H849 C846 0.999 . S
H850 C831 0.913 . S
H851 C869 0.951 . S
H852 C871 0.951 . S
H853 C873 0.950 1_554 S
H854 C874 0.950 . S
H855 C876 0.950 . S
H856 C879 0.950 . S
H857 C880 0.950 . S
H858 C882 0.950 . S
H859 C883 0.950 . S
H860 C884 0.951 . S
H861 C886 0.951 . S
H862 C888 0.950 . S
H863 C889 0.950 . S
H864 C891 0.950 . S
H865 C894 0.950 . S
H866 C895 0.950 . S
H867 C897 0.950 . S
H868 C898 0.950 . S
C869 H851 0.951 . S
C869 C870 1.366 . S
C869 C871 1.388 . S
C870 C869 1.366 . S
C870 C874 1.385 1_556 S
C871 H852 0.951 . S
C871 C869 1.388 . S
C871 C872 1.366 . S
C872 C871 1.366 . S
C872 C873 1.414 . S
C872 C875 1.499 . S
C873 H853 0.950 1_556 S
C873 C872 1.414 . S
C873 C874 1.374 1_556 S
C874 H854 0.950 . S
C874 C870 1.385 1_554 S
C874 C873 1.374 1_554 S
C875 C872 1.499 . S
C875 C876 1.373 . S
C875 C877 1.389 . S
C876 H855 0.950 . S
C876 C875 1.373 . S
C876 C892 1.377 . S
C877 C875 1.389 . S
C877 C878 1.524 . S
C877 C891 1.377 . S
C878 C877 1.524 . S
C878 C879 1.397 . S
C878 C883 1.363 . S
C879 H856 0.950 . S
C879 C878 1.397 . S
C879 C880 1.334 . S
C880 H857 0.950 . S
C880 C879 1.334 . S
C880 C881 1.287 . S
C881 C880 1.287 . S
C881 C882 1.524 . S
C881 H900 0.913 . S
C882 H858 0.950 . S
C882 C881 1.524 . S
C882 C883 1.415 . S
C883 H859 0.950 . S
C883 C878 1.363 . S
C883 C882 1.415 . S
C884 H860 0.951 . S
C884 C885 1.366 . S
C884 C886 1.388 . S
C885 C884 1.366 . S
C885 C889 1.385 . S
C886 H861 0.951 . S
C886 C884 1.388 . S
C886 C887 1.366 . S
C887 C886 1.366 . S
C887 C888 1.414 . S
C887 C890 1.499 . S
C888 H862 0.950 . S
C888 C887 1.414 . S
C888 C889 1.374 . S
C889 H863 0.950 . S
C889 C885 1.385 . S
C889 C888 1.374 . S
C890 C887 1.499 . S
C890 C891 1.373 . S
C890 C892 1.389 . S
C891 H864 0.950 . S
C891 C877 1.377 . S
C891 C890 1.373 . S
C892 C876 1.377 . S
C892 C890 1.389 . S
C892 C893 1.524 . S
C893 C892 1.524 . S
C893 C894 1.397 . S
C893 C898 1.363 . S
C894 H865 0.950 . S
C894 C893 1.397 . S
C894 C895 1.334 . S
C895 H866 0.950 . S
C895 C894 1.334 . S
C895 C896 1.287 . S
C896 C895 1.287 . S
C896 C897 1.524 . S
C896 H899 0.968 1_565 S
C897 H867 0.950 . S
C897 C896 1.524 . S
C897 C898 1.415 . S
C898 H868 0.950 . S
C898 C893 1.363 . S
C898 C897 1.415 . S
H899 C896 0.968 1_545 S
H900 C881 0.913 . S
H901 C919 0.951 . S
H902 C921 0.951 . S
H903 C923 0.950 1_556 S
H904 C924 0.950 . S
H905 C926 0.950 . S
H906 C929 0.950 . S
H907 C930 0.950 . S
H908 C932 0.950 . S
H909 C933 0.950 . S
H910 C934 0.951 . S
H911 C936 0.951 . S
H912 C938 0.950 . S
H913 C939 0.950 . S
H914 C941 0.950 . S
H915 C944 0.950 . S
H916 C945 0.950 . S
H917 C947 0.950 . S
H918 C948 0.950 . S
C919 H901 0.951 . S
C919 C920 1.366 . S
C919 C921 1.388 . S
C920 C919 1.366 . S
C920 C924 1.385 . S
C921 H902 0.951 . S
C921 C919 1.388 . S
C921 C922 1.366 . S
C922 C921 1.366 . S
C922 C923 1.414 . S
C922 C925 1.499 1_554 S
C923 H903 0.950 1_554 S
C923 C922 1.414 . S
C923 C924 1.374 . S
C924 H904 0.950 . S
C924 C920 1.385 . S
C924 C923 1.374 . S
C925 C922 1.499 1_556 S
C925 C926 1.373 . S
C925 C927 1.389 1_556 S
C926 H905 0.950 . S
C926 C925 1.373 . S
C926 C942 1.377 . S
C927 C925 1.389 1_554 S
C927 C928 1.524 . S
C927 C941 1.377 1_554 S
C928 C927 1.524 . S
C928 C929 1.397 . S
C928 C933 1.363 . S
C929 H906 0.950 . S
C929 C928 1.397 . S
C929 C930 1.334 . S
C930 H907 0.950 . S
C930 C929 1.334 . S
C930 C931 1.287 . S
C931 C930 1.287 . S
C931 C932 1.524 . S
C931 H950 0.913 . S
C932 H908 0.950 . S
C932 C931 1.524 . S
C932 C933 1.415 . S
C933 H909 0.950 . S
C933 C928 1.363 . S
C933 C932 1.415 . S
C934 H910 0.951 . S
C934 C935 1.366 . S
C934 C936 1.388 . S
C935 C934 1.366 . S
C935 C939 1.385 . S
C936 H911 0.951 . S
C936 C934 1.388 . S
C936 C937 1.366 . S
C937 C936 1.366 . S
C937 C938 1.414 . S
C937 C940 1.499 . S
C938 H912 0.950 . S
C938 C937 1.414 . S
C938 C939 1.374 . S
C939 H913 0.950 . S
C939 C935 1.385 . S
C939 C938 1.374 . S
C940 C937 1.499 . S
C940 C941 1.373 . S
C940 C942 1.389 . S
C941 H914 0.950 . S
C941 C927 1.377 1_556 S
C941 C940 1.373 . S
C942 C926 1.377 . S
C942 C940 1.389 . S
C942 C943 1.524 . S
C943 C942 1.524 . S
C943 C944 1.397 . S
C943 C948 1.363 . S
C944 H915 0.950 . S
C944 C943 1.397 . S
C944 C945 1.334 . S
C945 H916 0.950 . S
C945 C944 1.334 . S
C945 C946 1.287 . S
C946 C945 1.287 . S
C946 C947 1.524 . S
C946 H949 0.999 . S
C947 H917 0.950 . S
C947 C946 1.524 . S
C947 C948 1.415 . S
C948 H918 0.950 . S
C948 C943 1.363 . S
C948 C947 1.415 . S
H949 C946 0.999 . S
H950 C931 0.913 . S
H951 C969 0.951 . S
H952 C971 0.958 . S
H953 C973 0.952 . S
H954 C974 0.950 . S
H955 C976 0.950 . S
H956 C979 0.950 . S
H957 C980 0.950 . S
H958 C982 0.950 . S
H959 C983 0.964 . S
H960 C984 0.951 . S
H961 C986 0.951 . S
H962 C988 0.950 . S
H963 C989 0.950 . S
H964 C991 0.950 . S
H965 C994 0.950 . S
H966 C995 0.950 . S
H967 C997 0.950 . S
H968 C998 0.950 . S
C969 H951 0.951 . S
C969 C970 1.366 . S
C969 C971 1.378 1_554 S
C970 C969 1.366 . S
C970 C974 1.385 . S
C971 H952 0.958 . S
C971 C969 1.378 1_556 S
C971 C972 1.368 . S
C972 C971 1.368 . S
C972 C973 1.414 1_556 S
C972 C975 1.499 . S
C973 H953 0.952 . S
C973 C972 1.414 1_554 S
C973 C974 1.374 . S
C974 H954 0.950 . S
C974 C970 1.385 . S
C974 C973 1.374 . S
C975 C972 1.499 . S
C975 C976 1.373 . S
C975 C977 1.389 . S
C976 H955 0.950 . S
C976 C975 1.373 . S
C976 C992 1.377 . S
C977 C975 1.389 . S
C977 C978 1.524 1_556 S
C977 C991 1.377 . S
C978 C977 1.524 1_554 S
C978 C979 1.397 . S
C978 C983 1.360 1_554 S
C979 H956 0.950 . S
C979 C978 1.397 . S
C979 C980 1.334 . S
C980 H957 0.950 . S
C980 C979 1.334 . S
C980 C981 1.287 . S
C981 C980 1.287 . S
C981 C982 1.524 . S
C981 H1000 0.913 . S
C982 H958 0.950 . S
C982 C981 1.524 . S
C982 C983 1.404 1_554 S
C983 H959 0.964 . S
C983 C978 1.360 1_556 S
C983 C982 1.404 1_556 S
C984 H960 0.951 . S
C984 C985 1.366 . S
C984 C986 1.388 . S
C985 C984 1.366 . S
C985 C989 1.385 . S
C986 H961 0.951 . S
C986 C984 1.388 . S
C986 C987 1.366 . S
C987 C986 1.366 . S
C987 C988 1.414 . S
C987 C990 1.499 . S
C988 H962 0.950 . S
C988 C987 1.414 . S
C988 C989 1.374 . S
C989 H963 0.950 . S
C989 C985 1.385 . S
C989 C988 1.374 . S
C990 C987 1.499 . S
C990 C991 1.373 . S
C990 C992 1.389 . S
C991 H964 0.950 . S
C991 C977 1.377 . S
C991 C990 1.373 . S
C992 C976 1.377 . S
C992 C990 1.389 . S
C992 C993 1.524 . S
C993 C992 1.524 . S
C993 C994 1.397 . S
C993 C998 1.363 . S
C994 H965 0.950 . S
C994 C993 1.397 . S
C994 C995 1.334 . S
C995 H966 0.950 . S
C995 C994 1.334 . S
C995 C996 1.287 . S
C996 C995 1.287 . S
C996 C997 1.524 . S
C996 H999 0.999 . S
C997 H967 0.950 . S
C997 C996 1.524 . S
C997 C998 1.415 . S
C998 H968 0.950 . S
C998 C993 1.363 . S
C998 C997 1.415 . S
H999 C996 0.999 . S
H1000 C981 0.913 . S
H1001 C1019 0.951 . S
H1002 C1021 0.951 . S
H1003 C1023 0.950 . S
H1004 C1024 0.950 . S
H1005 C1026 0.950 . S
H1006 C1029 0.950 . S
H1007 C1030 0.950 . S
H1008 C1032 0.950 . S
H1009 C1033 0.950 . S
H1010 C1034 0.951 . S
H1011 C1036 0.951 . S
H1012 C1038 0.950 . S
H1013 C1039 0.950 . S
H1014 C1041 0.950 . S
H1015 C1044 0.950 . S
H1016 C1045 0.950 . S
H1017 C1047 0.950 . S
H1018 C1048 0.950 . S
C1019 H1001 0.951 . S
C1019 C1020 1.366 1_556 S
C1019 C1021 1.388 . S
C1020 C1019 1.366 1_554 S
C1020 C1024 1.385 . S
C1021 H1002 0.951 . S
C1021 C1019 1.388 . S
C1021 C1022 1.366 . S
C1022 C1021 1.366 . S
C1022 C1023 1.414 1_556 S
C1022 C1025 1.499 . S
C1023 H1003 0.950 . S
C1023 C1022 1.414 1_554 S
C1023 C1024 1.374 . S
C1024 H1004 0.950 . S
C1024 C1020 1.385 . S
C1024 C1023 1.374 . S
C1025 C1022 1.499 . S
C1025 C1026 1.373 . S
C1025 C1027 1.389 . S
C1026 H1005 0.950 . S
C1026 C1025 1.373 . S
C1026 C1042 1.377 . S
C1027 C1025 1.389 . S
C1027 C1028 1.524 . S
C1027 C1041 1.377 . S
C1028 C1027 1.524 . S
C1028 C1029 1.397 . S
C1028 C1033 1.363 . S
C1029 H1006 0.950 . S
C1029 C1028 1.397 . S
C1029 C1030 1.334 . S
C1030 H1007 0.950 . S
C1030 C1029 1.334 . S
C1030 C1031 1.287 . S
C1031 C1030 1.287 . S
C1031 C1032 1.524 . S
C1031 H1050 0.913 . S
C1032 H1008 0.950 . S
C1032 C1031 1.524 . S
C1032 C1033 1.415 . S
C1033 H1009 0.950 . S
C1033 C1028 1.363 . S
C1033 C1032 1.415 . S
C1034 H1010 0.951 . S
C1034 C1035 1.366 . S
C1034 C1036 1.388 . S
C1035 C1034 1.366 . S
C1035 C1039 1.385 . S
C1036 H1011 0.951 . S
C1036 C1034 1.388 . S
C1036 C1037 1.366 . S
C1037 C1036 1.366 . S
C1037 C1038 1.414 . S
C1037 C1040 1.499 . S
C1038 H1012 0.950 . S
C1038 C1037 1.414 . S
C1038 C1039 1.374 . S
C1039 H1013 0.950 . S
C1039 C1035 1.385 . S
C1039 C1038 1.374 . S
C1040 C1037 1.499 . S
C1040 C1041 1.373 . S
C1040 C1042 1.389 . S
C1041 H1014 0.950 . S
C1041 C1027 1.377 . S
C1041 C1040 1.373 . S
C1042 C1026 1.377 . S
C1042 C1040 1.389 . S
C1042 C1043 1.524 . S
C1043 C1042 1.524 . S
C1043 C1044 1.397 . S
C1043 C1048 1.363 . S
C1044 H1015 0.950 . S
C1044 C1043 1.397 . S
C1044 C1045 1.334 . S
C1045 H1016 0.950 . S
C1045 C1044 1.334 . S
C1045 C1046 1.287 . S
C1046 C1045 1.287 . S
C1046 C1047 1.524 . S
C1046 H1049 0.999 . S
C1047 H1017 0.950 . S
C1047 C1046 1.524 . S
C1047 C1048 1.415 . S
C1048 H1018 0.950 . S
C1048 C1043 1.363 . S
C1048 C1047 1.415 . S
H1049 C1046 0.999 . S
H1050 C1031 0.913 . S
H1051 C1069 0.951 . S
H1052 C1071 0.951 . S
H1053 C1073 0.950 . S
H1054 C1074 0.957 . S
H1055 C1076 0.950 . S
H1056 C1079 0.950 . S
H1057 C1080 0.950 . S
H1058 C1082 0.950 . S
H1059 C1083 0.950 . S
H1060 C1084 0.951 . S
H1061 C1086 0.951 . S
H1062 C1088 0.950 . S
H1063 C1089 0.950 . S
H1064 C1091 0.950 . S
H1065 C1094 0.950 . S
H1066 C1095 0.950 . S
H1067 C1097 0.950 . S
H1068 C1098 0.950 . S
C1069 H1051 0.951 . S
C1069 C1070 1.366 . S
C1069 C1071 1.388 . S
C1070 C1069 1.366 . S
C1070 C1074 1.385 . S
C1071 H1052 0.951 . S
C1071 C1069 1.388 . S
C1071 C1072 1.366 . S
C1072 C1071 1.366 . S
C1072 C1073 1.414 . S
C1072 C1075 1.499 . S
C1073 H1053 0.950 . S
C1073 C1072 1.414 . S
C1073 C1074 1.374 . S
C1074 H1054 0.957 . S
C1074 C1070 1.385 . S
C1074 C1073 1.374 . S
C1075 C1072 1.499 . S
C1075 C1076 1.373 . S
C1075 C1077 1.389 . S
C1076 H1055 0.950 . S
C1076 C1075 1.373 . S
C1076 C1092 1.377 . S
C1077 C1075 1.389 . S
C1077 C1078 1.524 . S
C1077 C1091 1.377 . S
C1078 C1077 1.524 . S
C1078 C1079 1.397 . S
C1078 C1083 1.363 . S
C1079 H1056 0.950 . S
C1079 C1078 1.397 . S
C1079 C1080 1.334 . S
C1080 H1057 0.950 . S
C1080 C1079 1.334 . S
C1080 C1081 1.287 . S
C1081 C1080 1.287 . S
C1081 C1082 1.524 . S
C1081 H1100 0.913 . S
C1082 H1058 0.950 . S
C1082 C1081 1.524 . S
C1082 C1083 1.415 . S
C1083 H1059 0.950 . S
C1083 C1078 1.363 . S
C1083 C1082 1.415 . S
C1084 H1060 0.951 . S
C1084 C1085 1.366 . S
C1084 C1086 1.388 . S
C1085 C1084 1.366 . S
C1085 C1089 1.385 . S
C1086 H1061 0.951 . S
C1086 C1084 1.388 . S
C1086 C1087 1.366 . S
C1087 C1086 1.366 . S
C1087 C1088 1.414 . S
C1087 C1090 1.499 . S
C1088 H1062 0.950 . S
C1088 C1087 1.414 . S
C1088 C1089 1.374 . S
C1089 H1063 0.950 . S
C1089 C1085 1.385 . S
C1089 C1088 1.374 . S
C1090 C1087 1.499 . S
C1090 C1091 1.373 . S
C1090 C1092 1.389 . S
C1091 H1064 0.950 . S
C1091 C1077 1.377 . S
C1091 C1090 1.373 . S
C1092 C1076 1.377 . S
C1092 C1090 1.389 . S
C1092 C1093 1.524 . S
C1093 C1092 1.524 . S
C1093 C1094 1.397 . S
C1093 C1098 1.363 . S
C1094 H1065 0.950 . S
C1094 C1093 1.397 . S
C1094 C1095 1.334 . S
C1095 H1066 0.950 . S
C1095 C1094 1.334 . S
C1095 C1096 1.287 . S
C1096 C1095 1.287 . S
C1096 C1097 1.524 . S
C1096 H1099 0.999 . S
C1097 H1067 0.950 . S
C1097 C1096 1.524 . S
C1097 C1098 1.415 . S
C1098 H1068 0.950 . S
C1098 C1093 1.363 . S
C1098 C1097 1.415 . S
H1099 C1096 0.999 . S
H1100 C1081 0.913 . S
H1101 C1119 0.951 . S
H1102 C1121 0.951 . S
H1103 C1123 0.950 . S
H1104 C1124 0.950 . S
H1105 C1126 0.950 . S
H1106 C1129 0.950 . S
H1107 C1130 0.950 . S
H1108 C1132 0.950 . S
H1109 C1133 0.950 . S
H1110 C1134 0.951 . S
H1111 C1136 0.951 . S
H1112 C1138 0.950 . S
H1113 C1139 0.950 . S
H1114 C1141 0.950 . S
H1115 C1144 0.950 . S
H1116 C1145 0.950 . S
H1117 C1147 0.950 . S
H1118 C1148 0.950 . S
C1119 H1101 0.951 . S
C1119 C1120 1.366 . S
C1119 C1121 1.388 . S
C1120 C1119 1.366 . S
C1120 C1124 1.385 . S
C1121 H1102 0.951 . S
C1121 C1119 1.388 . S
C1121 C1122 1.366 . S
C1122 C1121 1.366 . S
C1122 C1123 1.414 . S
C1122 C1125 1.499 . S
C1123 H1103 0.950 . S
C1123 C1122 1.414 . S
C1123 C1124 1.374 . S
C1124 H1104 0.950 . S
C1124 C1120 1.385 . S
C1124 C1123 1.374 . S
C1125 C1122 1.499 . S
C1125 C1126 1.373 . S
C1125 C1127 1.389 . S
C1126 H1105 0.950 . S
C1126 C1125 1.373 . S
C1126 C1142 1.377 . S
C1127 C1125 1.389 . S
C1127 C1128 1.524 . S
C1127 C1141 1.377 . S
C1128 C1127 1.524 . S
C1128 C1129 1.397 . S
C1128 C1133 1.363 . S
C1129 H1106 0.950 . S
C1129 C1128 1.397 . S
C1129 C1130 1.334 . S
C1130 H1107 0.950 . S
C1130 C1129 1.334 . S
C1130 C1131 1.287 . S
C1131 C1130 1.287 . S
C1131 C1132 1.524 . S
C1131 H1150 0.913 . S
C1132 H1108 0.950 . S
C1132 C1131 1.524 . S
C1132 C1133 1.415 . S
C1133 H1109 0.950 . S
C1133 C1128 1.363 . S
C1133 C1132 1.415 . S
C1134 H1110 0.951 . S
C1134 C1135 1.366 . S
C1134 C1136 1.388 . S
C1135 C1134 1.366 . S
C1135 C1139 1.385 . S
C1136 H1111 0.951 . S
C1136 C1134 1.388 . S
C1136 C1137 1.366 . S
C1137 C1136 1.366 . S
C1137 C1138 1.414 . S
C1137 C1140 1.499 . S
C1138 H1112 0.950 . S
C1138 C1137 1.414 . S
C1138 C1139 1.374 . S
C1139 H1113 0.950 . S
C1139 C1135 1.385 . S
C1139 C1138 1.374 . S
C1140 C1137 1.499 . S
C1140 C1141 1.373 . S
C1140 C1142 1.389 . S
C1141 H1114 0.950 . S
C1141 C1127 1.377 . S
C1141 C1140 1.373 . S
C1142 C1126 1.377 . S
C1142 C1140 1.389 . S
C1142 C1143 1.524 . S
C1143 C1142 1.524 . S
C1143 C1144 1.397 . S
C1143 C1148 1.363 . S
C1144 H1115 0.950 . S
C1144 C1143 1.397 . S
C1144 C1145 1.334 . S
C1145 H1116 0.950 . S
C1145 C1144 1.334 . S
C1145 C1146 1.287 . S
C1146 C1145 1.287 . S
C1146 C1147 1.524 . S
C1146 H1149 0.999 . S
C1147 H1117 0.950 . S
C1147 C1146 1.524 . S
C1147 C1148 1.415 . S
C1148 H1118 0.950 . S
C1148 C1143 1.363 . S
C1148 C1147 1.415 . S
H1149 C1146 0.999 . S
H1150 C1131 0.913 . S
H1151 C1169 0.951 . S
H1152 C1171 0.951 . S
H1153 C1173 0.950 . S
H1154 C1174 0.950 . S
H1155 C1176 0.950 . S
H1156 C1179 0.950 . S
H1157 C1180 0.950 . S
H1158 C1182 0.950 . S
H1159 C1183 0.950 . S
H1160 C1184 0.951 . S
H1161 C1186 0.951 . S
H1162 C1188 0.950 . S
H1163 C1189 0.950 . S
H1164 C1191 0.950 . S
H1165 C1194 0.950 . S
H1166 C1195 0.950 . S
H1167 C1197 0.950 . S
H1168 C1198 0.950 . S
C1169 H1151 0.951 . S
C1169 C1170 1.366 . S
C1169 C1171 1.388 . S
C1170 C1169 1.366 . S
C1170 C1174 1.385 . S
C1171 H1152 0.951 . S
C1171 C1169 1.388 . S
C1171 C1172 1.366 . S
C1172 C1171 1.366 . S
C1172 C1173 1.414 . S
C1172 C1175 1.499 . S
C1173 H1153 0.950 . S
C1173 C1172 1.414 . S
C1173 C1174 1.374 . S
C1174 H1154 0.950 . S
C1174 C1170 1.385 . S
C1174 C1173 1.374 . S
C1175 C1172 1.499 . S
C1175 C1176 1.373 . S
C1175 C1177 1.389 . S
C1176 H1155 0.950 . S
C1176 C1175 1.373 . S
C1176 C1192 1.377 . S
C1177 C1175 1.389 . S
C1177 C1178 1.524 . S
C1177 C1191 1.377 . S
C1178 C1177 1.524 . S
C1178 C1179 1.397 . S
C1178 C1183 1.363 . S
C1179 H1156 0.950 . S
C1179 C1178 1.397 . S
C1179 C1180 1.334 . S
C1180 H1157 0.950 . S
C1180 C1179 1.334 . S
C1180 C1181 1.287 . S
C1181 C1180 1.287 . S
C1181 C1182 1.524 . S
C1181 H1200 0.913 . S
C1182 H1158 0.950 . S
C1182 C1181 1.524 . S
C1182 C1183 1.415 . S
C1183 H1159 0.950 . S
C1183 C1178 1.363 . S
C1183 C1182 1.415 . S
C1184 H1160 0.951 . S
C1184 C1185 1.366 . S
C1184 C1186 1.388 . S
C1185 C1184 1.366 . S
C1185 C1189 1.385 . S
C1186 H1161 0.951 . S
C1186 C1184 1.388 . S
C1186 C1187 1.366 . S
C1187 C1186 1.366 . S
C1187 C1188 1.414 . S
C1187 C1190 1.499 . S
C1188 H1162 0.950 . S
C1188 C1187 1.414 . S
C1188 C1189 1.374 . S
C1189 H1163 0.950 . S
C1189 C1185 1.385 . S
C1189 C1188 1.374 . S
C1190 C1187 1.499 . S
C1190 C1191 1.373 . S
C1190 C1192 1.389 . S
C1191 H1164 0.950 . S
C1191 C1177 1.377 . S
C1191 C1190 1.373 . S
C1192 C1176 1.377 . S
C1192 C1190 1.389 . S
C1192 C1193 1.524 . S
C1193 C1192 1.524 . S
C1193 C1194 1.397 . S
C1193 C1198 1.363 . S
C1194 H1165 0.950 . S
C1194 C1193 1.397 . S
C1194 C1195 1.334 . S
C1195 H1166 0.950 . S
C1195 C1194 1.334 . S
C1195 C1196 1.287 . S
C1196 C1195 1.287 . S
C1196 C1197 1.524 . S
C1196 H1199 0.999 . S
C1197 H1167 0.950 . S
C1197 C1196 1.524 . S
C1197 C1198 1.415 . S
C1198 H1168 0.950 . S
C1198 C1193 1.363 . S
C1198 C1197 1.415 . S
H1199 C1196 0.999 . S
H1200 C1181 0.913 . S
H1201 C1219 0.951 . S
H1202 C1221 0.951 . S
H1203 C1223 0.950 . S
H1204 C1224 0.950 . S
H1205 C1226 0.950 . S
H1206 C1229 0.950 . S
H1207 C1230 0.950 . S
H1208 C1232 0.950 . S
H1209 C1233 0.950 . S
H1210 C1234 0.951 . S
H1211 C1236 0.951 . S
H1212 C1238 0.950 . S
H1213 C1239 0.950 . S
H1214 C1241 0.950 . S
H1215 C1244 0.950 . S
H1216 C1245 0.950 . S
H1217 C1247 0.950 . S
H1218 C1248 0.950 . S
C1219 H1201 0.951 . S
C1219 C1220 1.366 . S
C1219 C1221 1.388 . S
C1220 C1219 1.366 . S
C1220 C1224 1.385 . S
C1221 H1202 0.951 . S
C1221 C1219 1.388 . S
C1221 C1222 1.366 . S
C1222 C1221 1.366 . S
C1222 C1223 1.414 . S
C1222 C1225 1.499 . S
C1223 H1203 0.950 . S
C1223 C1222 1.414 . S
C1223 C1224 1.374 . S
C1224 H1204 0.950 . S
C1224 C1220 1.385 . S
C1224 C1223 1.374 . S
C1225 C1222 1.499 . S
C1225 C1226 1.373 . S
C1225 C1227 1.389 . S
C1226 H1205 0.950 . S
C1226 C1225 1.373 . S
C1226 C1242 1.377 . S
C1227 C1225 1.389 . S
C1227 C1228 1.524 . S
C1227 C1241 1.377 . S
C1228 C1227 1.524 . S
C1228 C1229 1.397 . S
C1228 C1233 1.363 . S
C1229 H1206 0.950 . S
C1229 C1228 1.397 . S
C1229 C1230 1.334 . S
C1230 H1207 0.950 . S
C1230 C1229 1.334 . S
C1230 C1231 1.287 . S
C1231 C1230 1.287 . S
C1231 C1232 1.524 . S
C1231 H1250 0.913 . S
C1232 H1208 0.950 . S
C1232 C1231 1.524 . S
C1232 C1233 1.415 . S
C1233 H1209 0.950 . S
C1233 C1228 1.363 . S
C1233 C1232 1.415 . S
C1234 H1210 0.951 . S
C1234 C1235 1.366 . S
C1234 C1236 1.388 . S
C1235 C1234 1.366 . S
C1235 C1239 1.385 . S
C1236 H1211 0.951 . S
C1236 C1234 1.388 . S
C1236 C1237 1.366 . S
C1237 C1236 1.366 . S
C1237 C1238 1.414 . S
C1237 C1240 1.499 . S
C1238 H1212 0.950 . S
C1238 C1237 1.414 . S
C1238 C1239 1.374 . S
C1239 H1213 0.950 . S
C1239 C1235 1.385 . S
C1239 C1238 1.374 . S
C1240 C1237 1.499 . S
C1240 C1241 1.373 . S
C1240 C1242 1.389 . S
C1241 H1214 0.950 . S
C1241 C1227 1.377 . S
C1241 C1240 1.373 . S
C1242 C1226 1.377 . S
C1242 C1240 1.389 . S
C1242 C1243 1.524 . S
C1243 C1242 1.524 . S
C1243 C1244 1.397 . S
C1243 C1248 1.363 . S
C1244 H1215 0.950 . S
C1244 C1243 1.397 . S
C1244 C1245 1.334 . S
C1245 H1216 0.950 . S
C1245 C1244 1.334 . S
C1245 C1246 1.287 . S
C1246 C1245 1.287 . S
C1246 C1247 1.524 . S
C1246 H1249 0.999 . S
C1247 H1217 0.950 . S
C1247 C1246 1.524 . S
C1247 C1248 1.415 . S
C1248 H1218 0.950 . S
C1248 C1243 1.363 . S
C1248 C1247 1.415 . S
H1249 C1246 0.999 . S
H1250 C1231 0.913 . S
H1251 C1269 0.951 . S
H1252 C1271 0.951 . S
H1253 C1273 0.950 . S
H1254 C1274 0.950 . S
H1255 C1276 0.950 . S
H1256 C1279 0.950 . S
H1257 C1280 0.950 . S
H1258 C1282 0.950 . S
H1259 C1283 0.950 . S
H1260 C1284 0.951 . S
H1261 C1286 0.951 . S
H1262 C1288 0.950 . S
H1263 C1289 0.950 . S
H1264 C1291 0.950 . S
H1265 C1294 0.950 . S
H1266 C1295 0.950 . S
H1267 C1297 0.950 . S
H1268 C1298 0.950 . S
C1269 H1251 0.951 . S
C1269 C1270 1.366 . S
C1269 C1271 1.388 . S
C1270 C1269 1.366 . S
C1270 C1274 1.385 . S
C1271 H1252 0.951 . S
C1271 C1269 1.388 . S
C1271 C1272 1.366 . S
C1272 C1271 1.366 . S
C1272 C1273 1.414 . S
C1272 C1275 1.499 . S
C1273 H1253 0.950 . S
C1273 C1272 1.414 . S
C1273 C1274 1.374 . S
C1274 H1254 0.950 . S
C1274 C1270 1.385 . S
C1274 C1273 1.374 . S
C1275 C1272 1.499 . S
C1275 C1276 1.373 . S
C1275 C1277 1.389 . S
C1276 H1255 0.950 . S
C1276 C1275 1.373 . S
C1276 C1292 1.377 . S
C1277 C1275 1.389 . S
C1277 C1278 1.524 . S
C1277 C1291 1.377 . S
C1278 C1277 1.524 . S
C1278 C1279 1.397 . S
C1278 C1283 1.363 . S
C1279 H1256 0.950 . S
C1279 C1278 1.397 . S
C1279 C1280 1.334 . S
C1280 H1257 0.950 . S
C1280 C1279 1.334 . S
C1280 C1281 1.287 . S
C1281 C1280 1.287 . S
C1281 C1282 1.524 . S
C1281 H1300 0.913 . S
C1282 H1258 0.950 . S
C1282 C1281 1.524 . S
C1282 C1283 1.415 . S
C1283 H1259 0.950 . S
C1283 C1278 1.363 . S
C1283 C1282 1.415 . S
C1284 H1260 0.951 . S
C1284 C1285 1.366 . S
C1284 C1286 1.388 . S
C1285 C1284 1.366 . S
C1285 C1289 1.385 . S
C1286 H1261 0.951 . S
C1286 C1284 1.388 . S
C1286 C1287 1.366 . S
C1287 C1286 1.366 . S
C1287 C1288 1.414 . S
C1287 C1290 1.499 . S
C1288 H1262 0.950 . S
C1288 C1287 1.414 . S
C1288 C1289 1.374 . S
C1289 H1263 0.950 . S
C1289 C1285 1.385 . S
C1289 C1288 1.374 . S
C1290 C1287 1.499 . S
C1290 C1291 1.373 . S
C1290 C1292 1.389 . S
C1291 H1264 0.950 . S
C1291 C1277 1.377 . S
C1291 C1290 1.373 . S
C1292 C1276 1.377 . S
C1292 C1290 1.389 . S
C1292 C1293 1.524 . S
C1293 C1292 1.524 . S
C1293 C1294 1.397 . S
C1293 C1298 1.363 . S
C1294 H1265 0.950 . S
C1294 C1293 1.397 . S
C1294 C1295 1.334 . S
C1295 H1266 0.950 . S
C1295 C1294 1.334 . S
C1295 C1296 1.287 . S
C1296 C1295 1.287 . S
C1296 C1297 1.524 . S
C1296 H1299 0.999 . S
C1297 H1267 0.950 . S
C1297 C1296 1.524 . S
C1297 C1298 1.415 . S
C1298 H1268 0.950 . S
C1298 C1293 1.363 . S
C1298 C1297 1.415 . S
H1299 C1296 0.999 . S
H1300 C1281 0.913 . S
H1301 C1319 0.951 . S
H1302 C1321 0.951 . S
H1303 C1323 0.950 . S
H1304 C1324 0.950 . S
H1305 C1326 0.950 . S
H1306 C1329 0.950 . S
H1307 C1330 0.950 . S
H1308 C1332 0.950 . S
H1309 C1333 0.950 . S
H1310 C1334 0.951 . S
H1311 C1336 0.951 . S
H1312 C1338 0.950 . S
H1313 C1339 0.950 . S
H1314 C1341 0.950 . S
H1315 C1344 0.950 . S
H1316 C1345 0.950 . S
H1317 C1347 0.950 . S
H1318 C1348 0.950 . S
C1319 H1301 0.951 . S
C1319 C1320 1.366 . S
C1319 C1321 1.388 . S
C1320 C1319 1.366 . S
C1320 C1324 1.385 . S
C1321 H1302 0.951 . S
C1321 C1319 1.388 . S
C1321 C1322 1.366 . S
C1322 C1321 1.366 . S
C1322 C1323 1.414 . S
C1322 C1325 1.499 . S
C1323 H1303 0.950 . S
C1323 C1322 1.414 . S
C1323 C1324 1.374 . S
C1324 H1304 0.950 . S
C1324 C1320 1.385 . S
C1324 C1323 1.374 . S
C1325 C1322 1.499 . S
C1325 C1326 1.373 . S
C1325 C1327 1.389 . S
C1326 H1305 0.950 . S
C1326 C1325 1.373 . S
C1326 C1342 1.377 . S
C1327 C1325 1.389 . S
C1327 C1328 1.524 . S
C1327 C1341 1.377 . S
C1328 C1327 1.524 . S
C1328 C1329 1.397 . S
C1328 C1333 1.363 . S
C1329 H1306 0.950 . S
C1329 C1328 1.397 . S
C1329 C1330 1.334 . S
C1330 H1307 0.950 . S
C1330 C1329 1.334 . S
C1330 C1331 1.287 . S
C1331 C1330 1.287 . S
C1331 C1332 1.524 . S
C1331 H1350 0.913 . S
C1332 H1308 0.950 . S
C1332 C1331 1.524 . S
C1332 C1333 1.415 . S
C1333 H1309 0.950 . S
C1333 C1328 1.363 . S
C1333 C1332 1.415 . S
C1334 H1310 0.951 . S
C1334 C1335 1.366 . S
C1334 C1336 1.388 . S
C1335 C1334 1.366 . S
C1335 C1339 1.385 . S
C1336 H1311 0.951 . S
C1336 C1334 1.388 . S
C1336 C1337 1.366 . S
C1337 C1336 1.366 . S
C1337 C1338 1.414 . S
C1337 C1340 1.499 . S
C1338 H1312 0.950 . S
C1338 C1337 1.414 . S
C1338 C1339 1.374 . S
C1339 H1313 0.950 . S
C1339 C1335 1.385 . S
C1339 C1338 1.374 . S
C1340 C1337 1.499 . S
C1340 C1341 1.373 . S
C1340 C1342 1.389 . S
C1341 H1314 0.950 . S
C1341 C1327 1.377 . S
C1341 C1340 1.373 . S
C1342 C1326 1.377 . S
C1342 C1340 1.389 . S
C1342 C1343 1.524 . S
C1343 C1342 1.524 . S
C1343 C1344 1.397 . S
C1343 C1348 1.363 . S
C1344 H1315 0.950 . S
C1344 C1343 1.397 . S
C1344 C1345 1.334 . S
C1345 H1316 0.950 . S
C1345 C1344 1.334 . S
C1345 C1346 1.287 . S
C1346 C1345 1.287 . S
C1346 C1347 1.524 . S
C1346 H1349 0.999 . S
C1347 H1317 0.950 . S
C1347 C1346 1.524 . S
C1347 C1348 1.415 . S
C1348 H1318 0.950 . S
C1348 C1343 1.363 . S
C1348 C1347 1.415 . S
H1349 C1346 0.999 . S
H1350 C1331 0.913 . S
H1351 C1369 0.951 . S
H1352 C1371 0.951 . S
H1353 C1373 0.950 . S
H1354 C1374 0.950 . S
H1355 C1376 0.950 . S
H1356 C1379 0.950 . S
H1357 C1380 0.950 . S
H1358 C1382 0.950 . S
H1359 C1383 0.950 . S
H1360 C1384 0.951 . S
H1361 C1386 0.951 . S
H1362 C1388 0.950 . S
H1363 C1389 0.950 . S
H1364 C1391 0.950 . S
H1365 C1394 0.950 . S
H1366 C1395 0.950 . S
H1367 C1397 0.950 . S
H1368 C1398 0.950 . S
C1369 H1351 0.951 . S
C1369 C1370 1.366 . S
C1369 C1371 1.388 . S
C1370 C1369 1.366 . S
C1370 C1374 1.385 . S
C1371 H1352 0.951 . S
C1371 C1369 1.388 . S
C1371 C1372 1.366 . S
C1372 C1371 1.366 . S
C1372 C1373 1.414 . S
C1372 C1375 1.499 . S
C1373 H1353 0.950 . S
C1373 C1372 1.414 . S
C1373 C1374 1.374 . S
C1374 H1354 0.950 . S
C1374 C1370 1.385 . S
C1374 C1373 1.374 . S
C1375 C1372 1.499 . S
C1375 C1376 1.373 . S
C1375 C1377 1.389 . S
C1376 H1355 0.950 . S
C1376 C1375 1.373 . S
C1376 C1392 1.377 . S
C1377 C1375 1.389 . S
C1377 C1378 1.524 . S
C1377 C1391 1.377 . S
C1378 C1377 1.524 . S
C1378 C1379 1.397 . S
C1378 C1383 1.363 . S
C1379 H1356 0.950 . S
C1379 C1378 1.397 . S
C1379 C1380 1.334 . S
C1380 H1357 0.950 . S
C1380 C1379 1.334 . S
C1380 C1381 1.287 . S
C1381 C1380 1.287 . S
C1381 C1382 1.524 . S
C1381 H1400 0.913 . S
C1382 H1358 0.950 . S
C1382 C1381 1.524 . S
C1382 C1383 1.415 . S
C1383 H1359 0.950 . S
C1383 C1378 1.363 . S
C1383 C1382 1.415 . S
C1384 H1360 0.951 . S
C1384 C1385 1.366 . S
C1384 C1386 1.388 . S
C1385 C1384 1.366 . S
C1385 C1389 1.385 . S
C1386 H1361 0.951 . S
C1386 C1384 1.388 . S
C1386 C1387 1.366 . S
C1387 C1386 1.366 . S
C1387 C1388 1.414 . S
C1387 C1390 1.499 . S
C1388 H1362 0.950 . S
C1388 C1387 1.414 . S
C1388 C1389 1.374 . S
C1389 H1363 0.950 . S
C1389 C1385 1.385 . S
C1389 C1388 1.374 . S
C1390 C1387 1.499 . S
C1390 C1391 1.373 . S
C1390 C1392 1.389 . S
C1391 H1364 0.950 . S
C1391 C1377 1.377 . S
C1391 C1390 1.373 . S
C1392 C1376 1.377 . S
C1392 C1390 1.389 . S
C1392 C1393 1.524 . S
C1393 C1392 1.524 . S
C1393 C1394 1.397 . S
C1393 C1398 1.363 . S
C1394 H1365 0.950 . S
C1394 C1393 1.397 . S
C1394 C1395 1.334 . S
C1395 H1366 0.950 . S
C1395 C1394 1.334 . S
C1395 C1396 1.287 . S
C1396 C1395 1.287 . S
C1396 C1397 1.524 . S
C1396 H1399 0.999 . S
C1397 H1367 0.950 . S
C1397 C1396 1.524 . S
C1397 C1398 1.415 . S
C1398 H1368 0.950 . S
C1398 C1393 1.363 . S
C1398 C1397 1.415 . S
H1399 C1396 0.999 . S
H1400 C1381 0.913 . S
C220 C16 1.836 . S
C235 C119 1.855 . S
C270 C26 1.666 . S
C285 C166 1.686 . S
C335 C170 1.902 . S
C320 C52 1.908 . S
C385 C135 1.582 . S
C370 C62 1.583 . S
C420 C80 1.774 . S
C435 C150 1.747 . S
C485 C172 1.024 . S
C470 C98 1.018 . S
C535 C141 1.468 . S
C520 C43 1.452 . S
C570 C68 1.415 1_556 S
C585 C181 1.420 . S
C635 C110 1.334 . S
C620 C86 1.350 1_556 S
C670 C104 1.523 . S
C685 C139 1.510 . S
C720 C7 1.991 . S
C735 C197 1.995 . S
C785 C108 1.603 . S
C770 C32 1.598 . S
C835 C126 1.821 . S
C820 C61 1.831 1_556 S
C885 C140 1.674 . S
C870 C79 1.653 1_556 S
C935 C194 1.884 . S
C920 C97 1.905 . S
C985 C109 1.567 . S
C970 C14 1.568 . S
C1035 C157 1.718 . S
C1020 C25 1.750 . S
C1070 C50 0.999 . S
C1085 C180 1.007 . S
C1135 C149 1.434 . S
C1120 C106 1.435 . S
C1185 C188 1.371 . S
C1170 C8 1.369 . S
C1235 C118 1.294 . S
C1220 C34 1.315 . S
C1285 C163 1.479 . S
C1270 C44 1.492 . S
C1320 C70 1.981 . S
C1335 C171 1.967 . S
C1370 C88 1.571 . S
C1385 C132 1.571 . S
