# Generated by pormake.
# Topology ctn, (3,4)-cn, num edge types: 1
# Building blocks:
#     Node 0, Type 0, BuildingBlock: VETTIZ_charged_linker_0, # of connection points: 3
#     Node 1, Type 0, BuildingBlock: VETTIZ_charged_linker_0, # of connection points: 3
#     Node 2, Type 0, BuildingBlock: VETTIZ_charged_linker_0, # of connection points: 3
#     Node 3, Type 0, BuildingBlock: VETTIZ_charged_linker_0, # of connection points: 3
#     Node 4, Type 0, BuildingBlock: VETTIZ_charged_linker_0, # of connection points: 3
#     Node 5, Type 0, BuildingBlock: VETTIZ_charged_linker_0, # of connection points: 3
#     Node 6, Type 0, BuildingBlock: VETTIZ_charged_linker_0, # of connection points: 3
#     Node 7, Type 0, BuildingBlock: VETTIZ_charged_linker_0, # of connection points: 3
#     Node 8, Type 0, BuildingBlock: VETTIZ_charged_linker_0, # of connection points: 3
#     Node 9, Type 0, BuildingBlock: VETTIZ_charged_linker_0, # of connection points: 3
#     Node 10, Type 0, BuildingBlock: VETTIZ_charged_linker_0, # of connection points: 3
#     Node 11, Type 0, BuildingBlock: VETTIZ_charged_linker_0, # of connection points: 3
#     Node 12, Type 0, BuildingBlock: VETTIZ_charged_linker_0, # of connection points: 3
#     Node 13, Type 0, BuildingBlock: VETTIZ_charged_linker_0, # of connection points: 3
#     Node 14, Type 0, BuildingBlock: VETTIZ_charged_linker_0, # of connection points: 3
#     Node 15, Type 0, BuildingBlock: VETTIZ_charged_linker_0, # of connection points: 3
#     Node 16, Type 1, BuildingBlock: KUFVIS_clean_sbu_0, # of connection points: 4
#     Node 17, Type 1, BuildingBlock: KUFVIS_clean_sbu_0, # of connection points: 4
#     Node 18, Type 1, BuildingBlock: KUFVIS_clean_sbu_0, # of connection points: 4
#     Node 19, Type 1, BuildingBlock: KUFVIS_clean_sbu_0, # of connection points: 4
#     Node 20, Type 1, BuildingBlock: KUFVIS_clean_sbu_0, # of connection points: 4
#     Node 21, Type 1, BuildingBlock: KUFVIS_clean_sbu_0, # of connection points: 4
#     Node 22, Type 1, BuildingBlock: KUFVIS_clean_sbu_0, # of connection points: 4
#     Node 23, Type 1, BuildingBlock: KUFVIS_clean_sbu_0, # of connection points: 4
#     Node 24, Type 1, BuildingBlock: KUFVIS_clean_sbu_0, # of connection points: 4
#     Node 25, Type 1, BuildingBlock: KUFVIS_clean_sbu_0, # of connection points: 4
#     Node 26, Type 1, BuildingBlock: KUFVIS_clean_sbu_0, # of connection points: 4
#     Node 27, Type 1, BuildingBlock: KUFVIS_clean_sbu_0, # of connection points: 4
#     Edge 28, Type (0, 1), None
#     Edge 29, Type (0, 1), None
#     Edge 30, Type (0, 1), None
#     Edge 31, Type (0, 1), None
#     Edge 32, Type (0, 1), None
#     Edge 33, Type (0, 1), None
#     Edge 34, Type (0, 1), None
#     Edge 35, Type (0, 1), None
#     Edge 36, Type (0, 1), None
#     Edge 37, Type (0, 1), None
#     Edge 38, Type (0, 1), None
#     Edge 39, Type (0, 1), None
#     Edge 40, Type (0, 1), None
#     Edge 41, Type (0, 1), None
#     Edge 42, Type (0, 1), None
#     Edge 43, Type (0, 1), None
#     Edge 44, Type (0, 1), None
#     Edge 45, Type (0, 1), None
#     Edge 46, Type (0, 1), None
#     Edge 47, Type (0, 1), None
#     Edge 48, Type (0, 1), None
#     Edge 49, Type (0, 1), None
#     Edge 50, Type (0, 1), None
#     Edge 51, Type (0, 1), None
#     Edge 52, Type (0, 1), None
#     Edge 53, Type (0, 1), None
#     Edge 54, Type (0, 1), None
#     Edge 55, Type (0, 1), None
#     Edge 56, Type (0, 1), None
#     Edge 57, Type (0, 1), None
#     Edge 58, Type (0, 1), None
#     Edge 59, Type (0, 1), None
#     Edge 60, Type (0, 1), None
#     Edge 61, Type (0, 1), None
#     Edge 62, Type (0, 1), None
#     Edge 63, Type (0, 1), None
#     Edge 64, Type (0, 1), None
#     Edge 65, Type (0, 1), None
#     Edge 66, Type (0, 1), None
#     Edge 67, Type (0, 1), None
#     Edge 68, Type (0, 1), None
#     Edge 69, Type (0, 1), None
#     Edge 70, Type (0, 1), None
#     Edge 71, Type (0, 1), None
#     Edge 72, Type (0, 1), None
#     Edge 73, Type (0, 1), None
#     Edge 74, Type (0, 1), None
#     Edge 75, Type (0, 1), None
# Relax obj value: 0.012
# Max RMSD: 0.062
# Mean RMSD: 0.031
data_MOF--net-ctn--node1-KUFVIS_clean_sbu_0--node2-VETTIZ_charged_linker_0--edge1-none
_symmetry_space_group_name_H-M    P1
_symmetry_Int_Tables_number       1
_symmetry_cell_setting            triclinic
loop_
_symmetry_equiv_pos_as_xyz
'x, y, z'
_cell_length_a     35.232374
_cell_length_b     35.149384
_cell_length_c     35.354787
_cell_angle_alpha  90.714762
_cell_angle_beta   89.938619
_cell_angle_gamma 91.365603
loop_
_atom_site_label
_atom_site_type_symbol
_atom_site_fract_x
_atom_site_fract_y
_atom_site_fract_z
_atom_type_partial_charge
C0 C 0.03615 0.15706 0.9676 0.0
C1 C 1.00382 0.17923 0.97496 0.0
C2 C 0.98164 0.17036 1.0071 0.0
C3 C 0.02273 0.11817 0.02299 0.0
C4 C 0.04495 0.12673 0.99181 0.0
C5 C 0.07734 0.09936 0.98761 0.0
H6 H 0.16927 0.94348 0.05235 0.0
C7 C 0.03869 0.08448 0.04193 0.0
C8 C 0.07091 0.07322 0.02134 0.0
H9 H 0.19707 1.00977 0.9535 0.0
H10 H 0.14533 0.05178 0.96742 0.0
H11 H 0.15013 0.01603 0.10851 0.0
H12 H 0.08205 0.94056 0.0382 0.0
H13 H 0.05558 0.94907 0.07934 0.0
H14 H 0.10063 0.92595 0.08282 0.0
H15 H 0.1419 0.9667 0.1191 0.0
H16 H 0.10944 1.00266 0.13444 0.0
C17 C 0.11512 0.12238 0.99103 0.0
C18 C 0.07244 0.07766 0.94954 0.0
C19 C 0.97254 0.02978 0.15891 0.0
C20 C 0.97925 0.99786 0.18163 0.0
C21 C 0.01116 0.97567 0.17326 0.0
C22 C 0.03556 0.98476 0.14305 0.0
C23 C 0.02814 0.01632 0.12032 0.0
C24 C 0.99708 0.03828 0.12849 0.0
C25 C 0.99309 0.07014 0.10065 0.0
C26 C 0.02684 0.06374 0.07452 0.0
C27 C 0.04736 0.03217 0.08624 0.0
C28 C 0.99705 0.10838 0.1227 0.0
C29 C 0.95474 0.06412 0.07971 0.0
C30 C 0.1647 0.96731 0.0339 0.0
C31 C 0.18789 0.97313 1.00184 0.0
C32 C 0.18003 1.00438 0.97846 0.0
C33 C 0.14975 0.0288 0.98651 0.0
C34 C 0.12644 0.02206 0.01821 0.0
C35 C 0.13433 0.99173 0.04132 0.0
C36 C 0.10607 0.98786 0.0731 0.0
C37 C 0.08005 0.02084 0.06558 0.0
C38 C 0.09195 0.04109 0.03333 0.0
C39 C 0.12777 0.99329 0.11094 0.0
C40 C 0.08501 0.94881 0.06856 0.0
H41 H 0.97257 0.13528 0.05473 0.0
H42 H 0.05379 0.16261 0.94309 0.0
H43 H 0.04201 0.07015 0.9444 0.0
H44 H 0.0872 0.05034 0.94884 0.0
H45 H 0.08264 0.09532 0.92557 0.0
H46 H 0.11349 0.14385 0.01433 0.0
H47 H 0.1216 0.13778 0.96445 0.0
H48 H 0.13938 0.10453 0.99808 0.0
H49 H 0.9482 0.04736 0.16408 0.0
H50 H 0.01727 0.95098 0.19003 0.0
H51 H 0.05915 0.96654 0.13835 0.0
H52 H 0.01875 0.10658 0.14542 0.0
H53 H 0.96978 0.11601 0.13629 0.0
H54 H 1.007 0.13215 0.10484 0.0
H55 H 0.948 0.03328 0.07544 0.0
H56 H 0.95498 0.07599 0.05094 0.0
H57 H 0.93105 0.07658 0.09609 0.0
H58 H 0.95669 0.18656 0.01378 0.0
C59 C 0.99091 0.14032 0.03099 0.0
C60 C 0.24785 0.59856 0.22957 0.0
C61 C 0.21945 0.58817 0.20357 0.0
C62 C 0.2201 0.60436 0.16736 0.0
C63 C 0.27325 0.64588 0.18643 0.0
C64 C 0.27469 0.62682 0.2203 0.0
C65 C 0.30843 0.63881 0.24375 0.0
H66 H 0.42972 0.77872 0.29848 0.0
C67 C 0.30256 0.67698 0.18797 0.0
C68 C 0.32311 0.67295 0.22166 0.0
H69 H 0.42706 0.6622 0.33552 0.0
H70 H 0.37981 0.64607 0.28792 0.0
H71 H 0.33598 0.78773 0.2736 0.0
H72 H 0.433 0.75131 0.20789 0.0
H73 H 0.40737 0.78644 0.18419 0.0
H74 H 0.43104 0.79855 0.22781 0.0
H75 H 0.37606 0.81916 0.26529 0.0
H76 H 0.33953 0.81189 0.23018 0.0
C77 C 0.29477 0.65011 0.28367 0.0
C78 C 0.33697 0.60576 0.24364 0.0
C79 C 0.30172 0.78066 0.08882 0.0
C80 C 0.3136 0.81904 0.08923 0.0
C81 C 0.33452 0.83324 0.12057 0.0
C82 C 0.34382 0.80932 0.15083 0.0
C83 C 0.33119 0.77096 0.15032 0.0
C84 C 0.30984 0.75756 0.11983 0.0
C85 C 0.29205 0.71904 0.12716 0.0
C86 C 0.30828 0.7102 0.16581 0.0
C87 C 0.33233 0.74021 0.17901 0.0
C88 C 0.24847 0.72361 0.12774 0.0
C89 C 0.30579 0.69069 0.09668 0.0
C90 C 0.41788 0.75002 0.29695 0.0
C91 C 0.43023 0.72204 0.32225 0.0
C92 C 0.41654 0.68444 0.31769 0.0
C93 C 0.38919 0.67516 0.29006 0.0
C94 C 0.37583 0.70355 0.2661 0.0
C95 C 0.39146 0.73986 0.26836 0.0
C96 C 0.37883 0.76394 0.23554 0.0
C97 C 0.35293 0.73596 0.21361 0.0
C98 C 0.34994 0.70147 0.23321 0.0
C99 C 0.35656 0.79774 0.25178 0.0
C100 C 0.41431 0.77601 0.21254 0.0
H101 H 0.24619 0.64507 0.13073 0.0
H102 H 0.24941 0.58429 0.25649 0.0
H103 H 0.32891 0.58256 0.22329 0.0
H104 H 0.3658 0.61553 0.23479 0.0
H105 H 0.33885 0.59254 0.27195 0.0
H106 H 0.27477 0.674 0.28211 0.0
H107 H 0.28026 0.62589 0.29799 0.0
H108 H 0.31855 0.65913 0.30197 0.0
H109 H 0.28391 0.76956 0.06607 0.0
H110 H 0.34317 0.86301 0.12187 0.0
H111 H 0.35932 0.82187 0.1741 0.0
H112 H 0.24072 0.75204 0.13913 0.0
H113 H 0.23623 0.72065 0.09888 0.0
H114 H 0.23401 0.70321 0.14634 0.0
H115 H 0.33711 0.69339 0.09309 0.0
H116 H 0.29967 0.66079 0.10431 0.0
H117 H 0.29242 0.69622 0.06889 0.0
H118 H 0.19969 0.59497 0.14616 0.0
C119 C 0.24685 0.63344 0.15867 0.0
C120 C 1.00191 0.36444 0.99475 0.0
C121 C 0.98407 0.35695 0.95967 0.0
C122 C 0.96281 0.38579 0.94311 0.0
C123 C 0.97097 0.4257 0.9987 0.0
C124 C 0.99557 0.39956 0.01337 0.0
C125 C 0.01344 0.41426 0.04972 0.0
H126 H 0.03181 0.55786 0.18036 0.0
C127 C 0.96779 0.45787 0.02563 0.0
C128 C 0.99359 0.45211 0.05521 0.0
H129 H 0.09618 0.45472 0.17236 0.0
H130 H 0.05786 0.43297 0.11959 0.0
H131 H 0.9524 0.51626 0.16934 0.0
H132 H 0.02652 0.57475 0.092 0.0
H133 H 0.97987 0.58943 0.08331 0.0
H134 H 1.00065 0.59768 0.12929 0.0
H135 H 0.95133 0.56687 0.16427 0.0
H136 H 0.9222 0.53513 0.13535 0.0
C137 C 1.0034 0.38607 0.08163 0.0
C138 C 0.05661 0.41988 0.04275 0.0
C139 C 0.85958 0.55148 0.01206 0.0
C140 C 0.84863 0.58289 0.03438 0.0
C141 C 0.87191 0.59437 0.06518 0.0
C142 C 0.90452 0.57462 0.07442 0.0
C143 C 0.91453 0.54275 0.05279 0.0
C144 C 0.89272 0.53191 0.02177 0.0
C145 C 0.90919 0.49803 1.00142 0.0
C146 C 0.94264 0.48901 0.0271 0.0
C147 C 0.94556 0.51551 0.05698 0.0
C148 C 0.87886 0.46551 1.00073 0.0
C149 C 0.92244 0.51067 0.96151 0.0
C150 C 0.03764 0.53051 0.16743 0.0
C151 C 0.06757 0.50838 0.1806 0.0
C152 C 0.07358 0.47267 0.16294 0.0
C153 C 0.05151 0.46013 0.13193 0.0
C154 C 0.02291 0.48338 0.11811 0.0
C155 C 0.01577 0.51747 0.13644 0.0
C156 C 0.98321 0.53774 0.11882 0.0
C157 C 0.97344 0.51133 0.08565 0.0
C158 C 0.99691 0.47952 0.08519 0.0
C159 C 0.95057 0.53945 0.14831 0.0
C160 C 0.998 0.57714 0.10526 0.0
H161 H 0.93839 0.44001 0.9488 0.0
H162 H 0.0193 0.34325 1.00774 0.0
H163 H 0.06237 0.42891 0.01319 0.0
H164 H 0.06952 0.44271 0.06055 0.0
H165 H 0.07188 0.39305 0.04737 0.0
H166 H 0.973 0.37691 0.07986 0.0
H167 H 0.02081 0.36019 0.07941 0.0
H168 H 1.00715 0.39873 0.11014 0.0
H169 H 0.84274 0.54225 0.9879 0.0
H170 H 0.86469 0.61856 0.08281 0.0
H171 H 0.92057 0.58488 0.09835 0.0
H172 H 0.86792 0.46016 0.02975 0.0
H173 H 0.85447 0.473 0.9826 0.0
H174 H 0.88992 0.43837 0.98999 0.0
H175 H 0.92438 0.54218 0.95906 0.0
H176 H 0.9514 0.50085 0.95481 0.0
H177 H 0.90256 0.50003 0.93919 0.0
H178 H 0.9509 0.38183 0.9152 0.0
C179 C 0.9558 0.41978 0.9625 0.0
C180 C 0.61481 0.82448 0.31862 0.0
C181 C 0.57927 0.80591 0.31304 0.0
C182 C 0.56857 0.79393 0.2764 0.0
C183 C 0.62984 0.81406 0.25231 0.0
C184 C 0.63921 0.82942 0.2873 0.0
C185 C 0.67668 0.8514 0.28583 0.0
H186 H 0.82668 0.91376 0.17737 0.0
C187 C 0.66144 0.82135 0.22612 0.0
C188 C 0.68848 0.84492 0.24469 0.0
H189 H 0.80683 0.93843 0.29546 0.0
H190 H 0.74978 0.89843 0.2945 0.0
H191 H 0.74129 0.91245 0.14405 0.0
H192 H 0.8092 0.82645 0.1923 0.0
H193 H 0.78315 0.8027 0.15805 0.0
H194 H 0.81574 0.84037 0.14381 0.0
H195 H 0.78271 0.89408 0.12119 0.0
H196 H 0.73671 0.87117 0.11528 0.0
C197 C 0.66889 0.8937 0.2945 0.0
C198 C 0.70452 0.83329 0.31373 0.0
C199 C 0.67623 0.73503 0.11148 0.0
C200 C 0.70582 0.73205 0.08512 0.0
C201 C 0.7337 0.76117 0.08288 0.0
C202 C 0.73322 0.79221 0.10786 0.0
C203 C 0.70579 0.79305 0.13669 0.0
C204 C 0.67711 0.76554 0.13746 0.0
C205 C 0.64941 0.7724 0.16914 0.0
C206 C 0.66913 0.80576 0.1898 0.0
C207 C 0.70191 0.81768 0.17045 0.0
C208 C 0.61079 0.78343 0.1517 0.0
C209 C 0.64681 0.73632 0.19373 0.0
C210 C 0.80976 0.91074 0.2028 0.0
C211 C 0.82077 0.9294 0.23636 0.0
C212 C 0.79869 0.92411 0.26928 0.0
C213 C 0.76539 0.9013 0.26858 0.0
C214 C 0.75413 0.88329 0.2346 0.0
C215 C 0.77678 0.88744 0.20276 0.0
C216 C 0.76375 0.86161 0.171 0.0
C217 C 0.7276 0.84446 0.18742 0.0
C218 C 0.72172 0.85725 0.22475 0.0
C219 C 0.75585 0.88587 0.13578 0.0
C220 C 0.79448 0.83134 0.16529 0.0
H221 H 0.58435 0.7877 0.21894 0.0
H222 H 0.62317 0.83496 0.34639 0.0
H223 H 0.70231 0.80169 0.31183 0.0
H224 H 0.73447 0.84067 0.30755 0.0
H225 H 0.69811 0.8419 0.34335 0.0
H226 H 0.64294 0.90275 0.27947 0.0
H227 H 0.66434 0.89845 0.32529 0.0
H228 H 0.69185 0.91308 0.28485 0.0
H229 H 0.65368 0.71357 0.11242 0.0
H230 H 0.75569 0.76004 0.06144 0.0
H231 H 0.75478 0.81393 0.1043 0.0
H232 H 0.61239 0.78712 0.12052 0.0
H233 H 0.58844 0.76126 0.15688 0.0
H234 H 0.60098 0.81107 0.16315 0.0
H235 H 0.67549 0.72844 0.20363 0.0
H236 H 0.62888 0.74004 0.219 0.0
H237 H 0.63445 0.71187 0.17735 0.0
H238 H 0.54121 0.77998 0.27149 0.0
C239 C 0.59368 0.79788 0.24607 0.0
C240 C 0.04559 0.86953 0.58675 0.0
C241 C 0.01851 0.83961 0.58157 0.0
C242 C 0.99389 0.84067 0.55026 0.0
C243 C 0.02464 0.89911 0.52885 0.0
C244 C 0.04815 0.89895 0.56012 0.0
C245 C 0.0753 0.93299 0.56085 0.0
H246 H 0.15383 0.08287 0.46448 0.0
C247 C 0.03598 0.9319 0.50519 0.0
C248 C 0.06615 0.95171 0.52342 0.0
H249 H 0.17492 0.05365 0.5807 0.0
H250 H 0.13007 1.00047 0.57551 0.0
H251 H 0.06896 0.07852 0.47517 0.0
H252 H 0.14251 0.99572 0.42773 0.0
H253 H 0.10285 0.9997 0.3976 0.0
H254 H 0.13345 0.04072 0.40637 0.0
H255 H 0.08269 0.07938 0.42572 0.0
H256 H 0.04077 0.05449 0.44228 0.0
C257 C 0.065 0.95861 0.59507 0.0
C258 C 0.11643 0.91879 0.56181 0.0
C259 C 0.96493 0.95702 0.38319 0.0
C260 C 0.97003 0.98383 0.35428 0.0
C261 C 1.00084 1.00985 0.3563 0.0
C262 C 0.02662 1.00867 0.3865 0.0
C263 C 0.02071 0.98208 0.41567 0.0
C264 C 0.99026 0.95679 0.41357 0.0
C265 C 0.9891 0.92958 0.44618 0.0
C266 C 0.02286 0.94401 0.46937 0.0
C267 C 0.04126 0.9745 0.45125 0.0
C268 C 0.95117 0.9348 0.46757 0.0
C269 C 0.99491 0.88875 0.43034 0.0
C270 C 0.14833 0.06568 0.4891 0.0
C271 C 0.16748 0.07336 0.52323 0.0
C272 C 0.16015 0.049 0.55414 0.0
C273 C 0.13418 0.01797 0.55111 0.0
C274 C 0.1149 0.01109 0.51684 0.0
C275 C 0.12194 0.03513 0.48681 0.0
C276 C 0.09571 0.02671 0.45424 0.0
C277 C 0.07244 0.99358 0.46897 0.0
C278 C 0.08413 0.98349 0.50538 0.0
C279 C 0.07081 0.0616 0.4486 0.0
C280 C 0.1197 0.01529 0.41939 0.0
H281 H 0.97757 0.86888 0.50051 0.0
H282 H 0.06471 0.86979 0.61072 0.0
H283 H 0.12059 0.89661 0.53957 0.0
H284 H 0.13767 0.94163 0.55642 0.0
H285 H 0.12288 0.90613 0.58964 0.0
H286 H 0.03385 0.95777 0.60034 0.0
H287 H 0.07921 0.94914 0.62123 0.0
H288 H 0.0722 0.98893 0.59038 0.0
H289 H 0.942 0.93607 0.38196 0.0
H290 H 1.00593 0.02986 0.33368 0.0
H291 H 0.05036 0.0283 0.38573 0.0
H292 H 0.94483 0.96555 0.47069 0.0
H293 H 0.92719 0.9208 0.45197 0.0
H294 H 0.95161 0.92373 0.49663 0.0
H295 H 0.01112 0.88916 0.40331 0.0
H296 H 0.01202 0.87125 0.44938 0.0
H297 H 0.96729 0.87386 0.42468 0.0
H298 H 0.97279 0.81819 0.54556 0.0
C299 C 0.99687 0.87008 0.52393 0.0
C300 C 0.32208 0.61085 0.82853 0.0
C301 C 0.31883 0.57831 0.80487 0.0
C302 C 0.28428 0.57014 0.78631 0.0
C303 C 0.25762 0.62769 0.81198 0.0
C304 C 0.29055 0.63472 0.83241 0.0
C305 C 0.2869 0.6694 0.85793 0.0
H306 H 0.17635 0.81548 0.92076 0.0
C307 C 0.23063 0.65798 0.82057 0.0
C308 C 0.24675 0.68194 0.84872 0.0
H309 H 0.29126 0.79235 0.95364 0.0
H310 H 0.29159 0.73677 0.91239 0.0
H311 H 0.14085 0.72782 0.91398 0.0
H312 H 0.19746 0.80208 0.83649 0.0
H313 H 0.1625 0.77947 0.8099 0.0
H314 H 0.14851 0.8091 0.8494 0.0
H315 H 0.11939 0.76998 0.89651 0.0
H316 H 0.11563 0.72529 0.87092 0.0
C317 C 0.29047 0.65655 0.89938 0.0
C318 C 0.31724 0.69944 0.84606 0.0
C319 C 0.11756 0.67548 0.73362 0.0
C320 C 0.08987 0.70349 0.73268 0.0
C321 C 0.08727 0.72983 0.76272 0.0
C322 C 0.11255 0.72899 0.79309 0.0
C323 C 0.14195 0.70267 0.79258 0.0
C324 C 0.14374 0.676 0.76359 0.0
C325 C 0.17615 0.64941 0.76873 0.0
C326 C 0.19532 0.66675 0.8038 0.0
C327 C 0.17491 0.69765 0.81768 0.0
C328 C 0.15947 0.60885 0.776 0.0
C329 C 0.20188 0.65208 0.73329 0.0
C330 C 0.20115 0.79788 0.91963 0.0
C331 C 0.23359 0.80785 0.94066 0.0
C332 C 0.26589 0.78499 0.9376 0.0
C333 C 0.266 0.75265 0.9138 0.0
C334 C 0.23346 0.74301 0.89252 0.0
C335 C 0.20184 0.76561 0.89564 0.0
C336 C 0.17207 0.75455 0.86696 0.0
C337 C 0.18956 0.72026 0.84809 0.0
C338 C 0.22562 0.7132 0.8631 0.0
C339 C 0.13479 0.74404 0.88794 0.0
C340 C 0.16922 0.78797 0.83927 0.0
H341 H 0.22853 0.58706 0.77433 0.0
H342 H 0.34819 0.61731 0.84368 0.0
H343 H 0.31959 0.70054 0.81471 0.0
H344 H 0.3102 0.72857 0.85516 0.0
H345 H 0.34558 0.69249 0.85746 0.0
H346 H 0.27389 0.62964 0.90391 0.0
H347 H 0.32055 0.65131 0.90666 0.0
H348 H 0.27903 0.67725 0.91984 0.0
H349 H 0.11898 0.65405 0.71141 0.0
H350 H 0.06495 0.75055 0.76312 0.0
H351 H 0.10838 0.74917 0.81561 0.0
H352 H 0.12873 0.60913 0.78322 0.0
H353 H 0.16248 0.59008 0.75071 0.0
H354 H 0.17311 0.59536 0.80055 0.0
H355 H 0.20929 0.68232 0.72716 0.0
H356 H 0.22893 0.63738 0.73646 0.0
H357 H 0.18717 0.6396 0.7081 0.0
H358 H 0.28121 0.54511 0.76822 0.0
C359 C 0.2538 0.59459 0.78968 0.0
C360 C 0.87317 0.48123 0.49907 0.0
C361 C 0.86343 0.45011 0.47559 0.0
C362 C 0.88889 0.43928 0.44673 0.0
C363 C 0.93206 0.49109 0.46367 0.0
C364 C 0.90746 0.50138 0.49237 0.0
C365 C 0.92167 0.53613 0.51345 0.0
H366 H 0.06485 0.65943 0.55827 0.0
C367 C 0.96516 0.5178 0.46429 0.0
C368 C 0.95955 0.54383 0.49398 0.0
H369 H 0.94882 0.65926 0.59706 0.0
H370 H 0.93326 0.60609 0.55652 0.0
H371 H 0.03347 0.65528 0.4714 0.0
H372 H 0.07808 0.56671 0.54113 0.0
H373 H 0.09949 0.56553 0.49586 0.0
H374 H 0.10639 0.60689 0.52587 0.0
H375 H 0.08314 0.65314 0.48217 0.0
H376 H 0.06232 0.62646 0.44323 0.0
C377 C 0.89332 0.56867 0.50727 0.0
C378 C 0.92695 0.52505 0.55509 0.0
C379 C 0.06516 0.51309 0.36025 0.0
C380 C 0.09881 0.53441 0.35404 0.0
C381 C 0.11276 0.55853 0.38332 0.0
C382 C 0.09233 0.56357 0.41705 0.0
C383 C 0.05725 0.54447 0.42169 0.0
C384 C 0.04499 0.51842 0.39432 0.0
C385 C 1.00797 0.4992 0.40526 0.0
C386 C 0.99858 0.52044 0.44177 0.0
C387 C 0.0275 0.54717 0.4513 0.0
C388 C 0.9784 0.50633 0.37394 0.0
C389 C 0.01539 0.45651 0.41218 0.0
C390 C 0.03638 0.64714 0.55855 0.0
C391 C 1.00882 0.66086 0.58407 0.0
C392 C 0.97135 0.64657 0.58087 0.0
C393 C 0.96212 0.61631 0.55638 0.0
C394 C 0.99015 0.60135 0.5327 0.0
C395 C 0.02613 0.61785 0.53254 0.0
C396 C 0.0496 0.60265 0.50003 0.0
C397 C 0.02252 0.57262 0.48271 0.0
C398 C 0.98814 0.57164 0.50286 0.0
C399 C 0.05796 0.63593 0.47272 0.0
C400 C 0.08552 0.5846 0.51634 0.0
H401 H 0.94089 0.44983 0.41812 0.0
H402 H 0.85384 0.49074 0.52088 0.0
H403 H 0.94178 0.49756 0.55721 0.0
H404 H 0.94466 0.54599 0.57075 0.0
H405 H 0.89901 0.52184 0.56942 0.0
H406 H 0.87457 0.563 0.48242 0.0
H407 H 0.87462 0.57259 0.53228 0.0
H408 H 0.90803 0.5961 0.50094 0.0
H409 H 0.05387 0.49422 0.33835 0.0
H410 H 0.13912 0.57439 0.37982 0.0
H411 H 0.10419 0.58278 0.43795 0.0
H412 H 0.97937 0.53676 0.36559 0.0
H413 H 0.98417 0.48879 0.34831 0.0
H414 H 0.94895 0.50024 0.38304 0.0
H415 H 0.04569 0.45165 0.4191 0.0
H416 H 0.99941 0.44538 0.43683 0.0
H417 H 1.00823 0.43881 0.38682 0.0
H418 H 0.88204 0.41555 0.42808 0.0
C419 C 0.92313 0.45931 0.44083 0.0
C420 C 0.81305 0.72926 0.92921 0.0
C421 C 0.78033 0.73385 0.95148 0.0
C422 C 0.76223 0.76919 0.95168 0.0
C423 C 0.80409 0.79189 0.90252 0.0
C424 C 0.82447 0.75888 0.90488 0.0
C425 C 0.85707 0.7588 0.8772 0.0
H426 H 0.92986 0.82066 0.71268 0.0
C427 C 0.81928 0.81463 0.87097 0.0
C428 C 0.85106 0.79613 0.85652 0.0
H429 H 0.97076 0.73283 0.78581 0.0
H430 H 0.92787 0.75229 0.83484 0.0
H431 H 0.92627 0.88504 0.78169 0.0
H432 H 0.8401 0.8112 0.73159 0.0
H433 H 0.82443 0.8586 0.73369 0.0
H434 H 0.86559 0.84775 0.70623 0.0
H435 H 0.90376 0.8966 0.73796 0.0
H436 H 0.88336 0.90947 0.78316 0.0
C437 C 0.8948 0.75938 0.89984 0.0
C438 C 0.85167 0.72369 0.8507 0.0
C439 C 0.73916 0.92059 0.81993 0.0
C440 C 0.74357 0.94497 0.7892 0.0
C441 C 0.77681 0.94366 0.76714 0.0
C442 C 0.80489 0.91715 0.77484 0.0
C443 C 0.79958 0.89183 0.80497 0.0
C444 C 0.76769 0.89468 0.82761 0.0
C445 C 0.76757 0.86688 0.85947 0.0
C446 C 0.80436 0.8463 0.85189 0.0
C447 C 0.82258 0.86042 0.81939 0.0
C448 C 0.76878 0.88956 0.89744 0.0
C449 C 0.7321 0.84034 0.85442 0.0
C450 C 0.92994 0.8062 0.73955 0.0
C451 C 0.95293 0.7745 0.74502 0.0
C452 C 0.95267 0.75672 0.78057 0.0
C453 C 0.92757 0.76777 0.80896 0.0
C454 C 0.90198 0.79661 0.80177 0.0
C455 C 0.90467 0.81685 0.76854 0.0
C456 C 0.87629 0.84832 0.76762 0.0
C457 C 0.8552 0.84207 0.80484 0.0
C458 C 0.86992 0.81093 0.82408 0.0
C459 C 0.89831 0.88698 0.76732 0.0
C460 C 0.85016 0.84143 0.73293 0.0
H461 H 0.75832 0.82388 0.92833 0.0
H462 H 0.82788 0.70263 0.92906 0.0
H463 H 0.82232 0.72239 0.83909 0.0
H464 H 0.87093 0.72398 0.82616 0.0
H465 H 0.85636 0.69694 0.86625 0.0
H466 H 0.89064 0.76799 0.92992 0.0
H467 H 0.9078 0.73089 0.89979 0.0
H468 H 0.91568 0.78049 0.8886 0.0
H469 H 0.71394 0.92155 0.83746 0.0
H470 H 0.78053 0.96249 0.74331 0.0
H471 H 0.8293 0.91686 0.75669 0.0
H472 H 0.77964 0.91927 0.89368 0.0
H473 H 0.74011 0.89119 0.91037 0.0
H474 H 0.78852 0.87715 0.91808 0.0
H475 H 0.72949 0.83043 0.8245 0.0
H476 H 0.73287 0.81433 0.87135 0.0
H477 H 0.70579 0.85553 0.86192 0.0
H478 H 0.73763 0.77383 0.96945 0.0
C479 C 0.77412 0.79824 0.92763 0.0
C480 C 0.31305 0.22926 0.42921 0.0
C481 C 0.28033 0.23385 0.45148 0.0
C482 C 0.26223 0.26919 0.45168 0.0
C483 C 0.30409 0.29189 0.40252 0.0
C484 C 0.32447 0.25888 0.40488 0.0
C485 C 0.35707 0.2588 0.3772 0.0
H486 H 0.42986 0.32066 0.21268 0.0
C487 C 0.31928 0.31463 0.37097 0.0
C488 C 0.35106 0.29613 0.35652 0.0
H489 H 0.47076 0.23283 0.28581 0.0
H490 H 0.42787 0.25229 0.33484 0.0
H491 H 0.42627 0.38504 0.28169 0.0
H492 H 0.3401 0.3112 0.23159 0.0
H493 H 0.32443 0.3586 0.23369 0.0
H494 H 0.36559 0.34775 0.20623 0.0
H495 H 0.40376 0.3966 0.23796 0.0
H496 H 0.38336 0.40947 0.28316 0.0
C497 C 0.3948 0.25938 0.39984 0.0
C498 C 0.35167 0.22369 0.3507 0.0
C499 C 0.23916 0.42059 0.31993 0.0
C500 C 0.24357 0.44497 0.2892 0.0
C501 C 0.27681 0.44366 0.26714 0.0
C502 C 0.30489 0.41715 0.27484 0.0
C503 C 0.29958 0.39183 0.30497 0.0
C504 C 0.26769 0.39468 0.32761 0.0
C505 C 0.26757 0.36688 0.35947 0.0
C506 C 0.30436 0.3463 0.35189 0.0
C507 C 0.32258 0.36042 0.31939 0.0
C508 C 0.26878 0.38956 0.39744 0.0
C509 C 0.2321 0.34034 0.35442 0.0
C510 C 0.42994 0.3062 0.23955 0.0
C511 C 0.45293 0.2745 0.24502 0.0
C512 C 0.45267 0.25672 0.28057 0.0
C513 C 0.42757 0.26777 0.30896 0.0
C514 C 0.40198 0.29661 0.30177 0.0
C515 C 0.40467 0.31685 0.26854 0.0
C516 C 0.37629 0.34832 0.26762 0.0
C517 C 0.3552 0.34207 0.30484 0.0
C518 C 0.36992 0.31093 0.32408 0.0
C519 C 0.39831 0.38698 0.26732 0.0
C520 C 0.35016 0.34143 0.23293 0.0
H521 H 0.25832 0.32388 0.42833 0.0
H522 H 0.32788 0.20263 0.42906 0.0
H523 H 0.32232 0.22239 0.33909 0.0
H524 H 0.37093 0.22398 0.32616 0.0
H525 H 0.35636 0.19694 0.36625 0.0
H526 H 0.39064 0.26799 0.42992 0.0
H527 H 0.4078 0.23089 0.39979 0.0
H528 H 0.41568 0.28049 0.3886 0.0
H529 H 0.21394 0.42155 0.33746 0.0
H530 H 0.28053 0.46249 0.24331 0.0
H531 H 0.3293 0.41686 0.25669 0.0
H532 H 0.27964 0.41927 0.39368 0.0
H533 H 0.24011 0.39119 0.41037 0.0
H534 H 0.28852 0.37715 0.41808 0.0
H535 H 0.22949 0.33043 0.3245 0.0
H536 H 0.23287 0.31433 0.37135 0.0
H537 H 0.20579 0.35553 0.36192 0.0
H538 H 0.23763 0.27383 0.46945 0.0
C539 C 0.27412 0.29824 0.42763 0.0
C540 C 0.50191 0.86444 0.49475 0.0
C541 C 0.48407 0.85695 0.45967 0.0
C542 C 0.46281 0.88579 0.44311 0.0
C543 C 0.47097 0.9257 0.4987 0.0
C544 C 0.49557 0.89956 0.51337 0.0
C545 C 0.51344 0.91426 0.54972 0.0
H546 H 0.53181 0.05786 0.68036 0.0
C547 C 0.46779 0.95786 0.52563 0.0
C548 C 0.49359 0.95211 0.55521 0.0
H549 H 0.59618 0.95472 0.67236 0.0
H550 H 0.55786 0.93297 0.61959 0.0
H551 H 0.4524 0.01626 0.66934 0.0
H552 H 0.52652 0.07475 0.592 0.0
H553 H 0.47987 0.08943 0.58331 0.0
H554 H 0.50065 0.09768 0.62929 0.0
H555 H 0.45133 0.06687 0.66427 0.0
H556 H 0.4222 0.03513 0.63535 0.0
C557 C 0.5034 0.88607 0.58163 0.0
C558 C 0.5566 0.91988 0.54275 0.0
C559 C 0.35958 0.05148 0.51206 0.0
C560 C 0.34863 0.08289 0.53438 0.0
C561 C 0.37191 0.09437 0.56518 0.0
C562 C 0.40452 0.07462 0.57442 0.0
C563 C 0.41453 0.04275 0.55279 0.0
C564 C 0.39272 0.03191 0.52177 0.0
C565 C 0.40919 0.99803 0.50142 0.0
C566 C 0.44264 0.98901 0.5271 0.0
C567 C 0.44556 0.01551 0.55698 0.0
C568 C 0.37886 0.96551 0.50073 0.0
C569 C 0.42244 0.01067 0.46151 0.0
C570 C 0.53764 0.03051 0.66743 0.0
C571 C 0.56757 1.00838 0.6806 0.0
C572 C 0.57358 0.97267 0.66294 0.0
C573 C 0.55151 0.96013 0.63193 0.0
C574 C 0.52291 0.98338 0.61811 0.0
C575 C 0.51577 0.01747 0.63644 0.0
C576 C 0.48321 0.03774 0.61882 0.0
C577 C 0.47344 0.01133 0.58565 0.0
C578 C 0.49691 0.97952 0.58519 0.0
C579 C 0.45057 0.03945 0.64831 0.0
C580 C 0.498 0.07714 0.60526 0.0
H581 H 0.43839 0.94001 0.4488 0.0
H582 H 0.5193 0.84325 0.50774 0.0
H583 H 0.56237 0.92891 0.51319 0.0
H584 H 0.56952 0.94271 0.56055 0.0
H585 H 0.57188 0.89305 0.54737 0.0
H586 H 0.473 0.87691 0.57986 0.0
H587 H 0.52081 0.86019 0.57941 0.0
H588 H 0.50715 0.89873 0.61014 0.0
H589 H 0.34274 0.04225 0.4879 0.0
H590 H 0.36468 0.11856 0.58281 0.0
H591 H 0.42057 0.08488 0.59835 0.0
H592 H 0.36792 0.96016 0.52975 0.0
H593 H 0.35447 0.973 0.4826 0.0
H594 H 0.38992 0.93837 0.48999 0.0
H595 H 0.42438 0.04218 0.45906 0.0
H596 H 0.4514 1.00085 0.45481 0.0
H597 H 0.40256 1.00003 0.43919 0.0
H598 H 0.4509 0.88183 0.4152 0.0
C599 C 0.4558 0.91978 0.4625 0.0
C600 C 0.11481 0.32448 0.81862 0.0
C601 C 0.07927 0.30591 0.81304 0.0
C602 C 0.06857 0.29393 0.7764 0.0
C603 C 0.12984 0.31406 0.75231 0.0
C604 C 0.13921 0.32942 0.7873 0.0
C605 C 0.17668 0.3514 0.78583 0.0
H606 H 0.32668 0.41376 0.67737 0.0
C607 C 0.16144 0.32135 0.72612 0.0
C608 C 0.18848 0.34492 0.74469 0.0
H609 H 0.30683 0.43843 0.79546 0.0
H610 H 0.24978 0.39843 0.7945 0.0
H611 H 0.24129 0.41245 0.64405 0.0
H612 H 0.3092 0.32645 0.6923 0.0
H613 H 0.28315 0.3027 0.65805 0.0
H614 H 0.31574 0.34037 0.64381 0.0
H615 H 0.28271 0.39409 0.62119 0.0
H616 H 0.23671 0.37117 0.61528 0.0
C617 C 0.16889 0.3937 0.7945 0.0
C618 C 0.20452 0.33328 0.81373 0.0
C619 C 0.17623 0.23503 0.61148 0.0
C620 C 0.20582 0.23205 0.58512 0.0
C621 C 0.2337 0.26117 0.58288 0.0
C622 C 0.23322 0.29221 0.60786 0.0
C623 C 0.20579 0.29305 0.63669 0.0
C624 C 0.17711 0.26554 0.63746 0.0
C625 C 0.14941 0.2724 0.66914 0.0
C626 C 0.16913 0.30576 0.6898 0.0
C627 C 0.20191 0.31768 0.67045 0.0
C628 C 0.11079 0.28343 0.6517 0.0
C629 C 0.14681 0.23632 0.69373 0.0
C630 C 0.30976 0.41074 0.7028 0.0
C631 C 0.32077 0.4294 0.73636 0.0
C632 C 0.29869 0.42411 0.76928 0.0
C633 C 0.26539 0.4013 0.76858 0.0
C634 C 0.25413 0.38329 0.7346 0.0
C635 C 0.27678 0.38744 0.70276 0.0
C636 C 0.26375 0.36161 0.671 0.0
C637 C 0.2276 0.34446 0.68742 0.0
C638 C 0.22172 0.35725 0.72475 0.0
C639 C 0.25585 0.38587 0.63578 0.0
C640 C 0.29448 0.33134 0.66529 0.0
H641 H 0.08435 0.2877 0.71894 0.0
H642 H 0.12317 0.33496 0.84639 0.0
H643 H 0.20231 0.30169 0.81183 0.0
H644 H 0.23447 0.34067 0.80755 0.0
H645 H 0.19811 0.3419 0.84335 0.0
H646 H 0.14294 0.40275 0.77947 0.0
H647 H 0.16434 0.39845 0.82529 0.0
H648 H 0.19185 0.41308 0.78485 0.0
H649 H 0.15368 0.21357 0.61242 0.0
H650 H 0.25569 0.26004 0.56144 0.0
H651 H 0.25478 0.31393 0.6043 0.0
H652 H 0.11239 0.28712 0.62052 0.0
H653 H 0.08844 0.26126 0.65688 0.0
H654 H 0.10098 0.31107 0.66315 0.0
H655 H 0.17549 0.22844 0.70363 0.0
H656 H 0.12888 0.24004 0.719 0.0
H657 H 0.13445 0.21187 0.67735 0.0
H658 H 0.04121 0.27998 0.77149 0.0
C659 C 0.09368 0.29788 0.74607 0.0
C660 C 0.74785 0.09856 0.72957 0.0
C661 C 0.71945 0.08817 0.70357 0.0
C662 C 0.7201 0.10436 0.66736 0.0
C663 C 0.77325 0.14589 0.68643 0.0
C664 C 0.77469 0.12682 0.7203 0.0
C665 C 0.80843 0.13881 0.74375 0.0
H666 H 0.92972 0.27872 0.79848 0.0
C667 C 0.80256 0.17698 0.68797 0.0
C668 C 0.82311 0.17295 0.72166 0.0
H669 H 0.92706 0.1622 0.83552 0.0
H670 H 0.87981 0.14607 0.78792 0.0
H671 H 0.83598 0.28773 0.7736 0.0
H672 H 0.933 0.25131 0.70789 0.0
H673 H 0.90737 0.28644 0.68419 0.0
H674 H 0.93104 0.29855 0.72781 0.0
H675 H 0.87606 0.31916 0.76529 0.0
H676 H 0.83953 0.31189 0.73018 0.0
C677 C 0.79477 0.15011 0.78367 0.0
C678 C 0.83697 0.10576 0.74364 0.0
C679 C 0.80172 0.28066 0.58882 0.0
C680 C 0.8136 0.31904 0.58923 0.0
C681 C 0.83452 0.33324 0.62057 0.0
C682 C 0.84382 0.30932 0.65083 0.0
C683 C 0.83119 0.27096 0.65032 0.0
C684 C 0.80984 0.25756 0.61983 0.0
C685 C 0.79205 0.21904 0.62716 0.0
C686 C 0.80828 0.2102 0.66581 0.0
C687 C 0.83233 0.24021 0.67901 0.0
C688 C 0.74847 0.22361 0.62774 0.0
C689 C 0.80579 0.19069 0.59668 0.0
C690 C 0.91788 0.25002 0.79695 0.0
C691 C 0.93023 0.22204 0.82225 0.0
C692 C 0.91654 0.18444 0.81769 0.0
C693 C 0.88919 0.17516 0.79006 0.0
C694 C 0.87583 0.20355 0.7661 0.0
C695 C 0.89146 0.23986 0.76836 0.0
C696 C 0.87883 0.26394 0.73554 0.0
C697 C 0.85292 0.23596 0.71361 0.0
C698 C 0.84994 0.20147 0.73321 0.0
C699 C 0.85656 0.29774 0.75178 0.0
C700 C 0.91431 0.27601 0.71254 0.0
H701 H 0.74619 0.14507 0.63073 0.0
H702 H 0.74941 0.08429 0.75649 0.0
H703 H 0.82891 0.08256 0.72329 0.0
H704 H 0.8658 0.11553 0.73479 0.0
H705 H 0.83885 0.09254 0.77195 0.0
H706 H 0.77477 0.174 0.78211 0.0
H707 H 0.78026 0.12589 0.79799 0.0
H708 H 0.81855 0.15913 0.80197 0.0
H709 H 0.78391 0.26956 0.56607 0.0
H710 H 0.84317 0.36301 0.62187 0.0
H711 H 0.85932 0.32187 0.6741 0.0
H712 H 0.74072 0.25204 0.63913 0.0
H713 H 0.73623 0.22065 0.59888 0.0
H714 H 0.73401 0.20321 0.64634 0.0
H715 H 0.83711 0.19339 0.59309 0.0
H716 H 0.79967 0.16079 0.60431 0.0
H717 H 0.79242 0.19622 0.56889 0.0
H718 H 0.69969 0.09497 0.64616 0.0
C719 C 0.74685 0.13344 0.65867 0.0
C720 C 0.53615 0.65706 0.4676 0.0
C721 C 0.50382 0.67923 0.47496 0.0
C722 C 0.48164 0.67036 0.5071 0.0
C723 C 0.52273 0.61817 0.52299 0.0
C724 C 0.54495 0.62673 0.49181 0.0
C725 C 0.57734 0.59936 0.48761 0.0
H726 H 0.66927 0.44348 0.55235 0.0
C727 C 0.53869 0.58448 0.54193 0.0
C728 C 0.57091 0.57322 0.52134 0.0
H729 H 0.69707 0.50977 0.4535 0.0
H730 H 0.64533 0.55178 0.46742 0.0
H731 H 0.65013 0.51603 0.60851 0.0
H732 H 0.58205 0.44056 0.5382 0.0
H733 H 0.55558 0.44907 0.57934 0.0
H734 H 0.60063 0.42595 0.58282 0.0
H735 H 0.6419 0.4667 0.6191 0.0
H736 H 0.60944 0.50266 0.63444 0.0
C737 C 0.61512 0.62238 0.49103 0.0
C738 C 0.57244 0.57766 0.44954 0.0
C739 C 0.47254 0.52978 0.65891 0.0
C740 C 0.47925 0.49786 0.68163 0.0
C741 C 0.51116 0.47567 0.67326 0.0
C742 C 0.53556 0.48476 0.64305 0.0
C743 C 0.52814 0.51632 0.62032 0.0
C744 C 0.49708 0.53828 0.62849 0.0
C745 C 0.49309 0.57014 0.60065 0.0
C746 C 0.52684 0.56374 0.57452 0.0
C747 C 0.54736 0.53217 0.58624 0.0
C748 C 0.49705 0.60838 0.6227 0.0
C749 C 0.45474 0.56412 0.57971 0.0
C750 C 0.6647 0.46731 0.5339 0.0
C751 C 0.68789 0.47313 0.50184 0.0
C752 C 0.68003 0.50438 0.47846 0.0
C753 C 0.64975 0.5288 0.48651 0.0
C754 C 0.62644 0.52206 0.51821 0.0
C755 C 0.63433 0.49173 0.54132 0.0
C756 C 0.60607 0.48786 0.5731 0.0
C757 C 0.58005 0.52084 0.56558 0.0
C758 C 0.59195 0.54109 0.53333 0.0
C759 C 0.62777 0.49329 0.61094 0.0
C760 C 0.58501 0.44881 0.56856 0.0
H761 H 0.47257 0.63528 0.55473 0.0
H762 H 0.55379 0.66261 0.44309 0.0
H763 H 0.54201 0.57015 0.4444 0.0
H764 H 0.5872 0.55034 0.44884 0.0
H765 H 0.58264 0.59532 0.42557 0.0
H766 H 0.61349 0.64385 0.51433 0.0
H767 H 0.6216 0.63778 0.46445 0.0
H768 H 0.63938 0.60453 0.49808 0.0
H769 H 0.4482 0.54736 0.66408 0.0
H770 H 0.51727 0.45098 0.69003 0.0
H771 H 0.55915 0.46654 0.63835 0.0
H772 H 0.51875 0.60658 0.64542 0.0
H773 H 0.46978 0.61601 0.63629 0.0
H774 H 0.507 0.63215 0.60484 0.0
H775 H 0.448 0.53328 0.57544 0.0
H776 H 0.45498 0.57599 0.55094 0.0
H777 H 0.43105 0.57658 0.59609 0.0
H778 H 0.45669 0.68656 0.51378 0.0
C779 C 0.49091 0.64032 0.53099 0.0
C780 C 0.54559 0.36953 0.08675 0.0
C781 C 0.51851 0.33961 0.08157 0.0
C782 C 0.49389 0.34067 0.05026 0.0
C783 C 0.52464 0.39911 0.02885 0.0
C784 C 0.54815 0.39895 0.06012 0.0
C785 C 0.5753 0.43299 0.06085 0.0
H786 H 0.65383 0.58287 0.96448 0.0
C787 C 0.53598 0.4319 1.00519 0.0
C788 C 0.56615 0.45171 0.02342 0.0
H789 H 0.67492 0.55365 0.0807 0.0
H790 H 0.63007 0.50047 0.07551 0.0
H791 H 0.56896 0.57852 0.97517 0.0
H792 H 0.64251 0.49572 0.92773 0.0
H793 H 0.60285 0.4997 0.8976 0.0
H794 H 0.63345 0.54072 0.90637 0.0
H795 H 0.58269 0.57938 0.92572 0.0
H796 H 0.54077 0.55449 0.94228 0.0
C797 C 0.565 0.45861 0.09507 0.0
C798 C 0.61643 0.41879 0.06181 0.0
C799 C 0.46493 0.45702 0.88319 0.0
C800 C 0.47003 0.48383 0.85428 0.0
C801 C 0.50084 0.50985 0.8563 0.0
C802 C 0.52662 0.50867 0.8865 0.0
C803 C 0.52071 0.48208 0.91567 0.0
C804 C 0.49026 0.45679 0.91357 0.0
C805 C 0.4891 0.42958 0.94618 0.0
C806 C 0.52286 0.44401 0.96937 0.0
C807 C 0.54126 0.4745 0.95125 0.0
C808 C 0.45117 0.4348 0.96757 0.0
C809 C 0.49491 0.38875 0.93034 0.0
C810 C 0.64833 0.56568 0.9891 0.0
C811 C 0.66748 0.57336 0.02323 0.0
C812 C 0.66015 0.549 0.05414 0.0
C813 C 0.63418 0.51797 0.05111 0.0
C814 C 0.6149 0.51109 0.01684 0.0
C815 C 0.62194 0.53513 0.98681 0.0
C816 C 0.59571 0.52671 0.95424 0.0
C817 C 0.57244 0.49358 0.96897 0.0
C818 C 0.58413 0.48349 1.00538 0.0
C819 C 0.57081 0.5616 0.9486 0.0
C820 C 0.6197 0.51529 0.91939 0.0
H821 H 0.47757 0.36888 1.00051 0.0
H822 H 0.56471 0.36979 0.11072 0.0
H823 H 0.62059 0.39661 0.03957 0.0
H824 H 0.63767 0.44163 0.05642 0.0
H825 H 0.62288 0.40613 0.08964 0.0
H826 H 0.53385 0.45777 0.10034 0.0
H827 H 0.57921 0.44914 0.12123 0.0
H828 H 0.5722 0.48893 0.09038 0.0
H829 H 0.442 0.43607 0.88196 0.0
H830 H 0.50593 0.52986 0.83368 0.0
H831 H 0.55036 0.5283 0.88573 0.0
H832 H 0.44483 0.46555 0.97069 0.0
H833 H 0.42719 0.4208 0.95197 0.0
H834 H 0.45161 0.42373 0.99663 0.0
H835 H 0.51112 0.38916 0.90331 0.0
H836 H 0.51202 0.37125 0.94938 0.0
H837 H 0.46729 0.37386 0.92467 0.0
H838 H 0.47279 0.31819 0.04556 0.0
C839 C 0.49687 0.37008 0.02393 0.0
C840 C 0.82208 0.11085 0.32853 0.0
C841 C 0.81883 0.07831 0.30487 0.0
C842 C 0.78428 0.07014 0.28631 0.0
C843 C 0.75762 0.12769 0.31198 0.0
C844 C 0.79055 0.13472 0.33241 0.0
C845 C 0.7869 0.1694 0.35793 0.0
H846 H 0.67635 0.31548 0.42076 0.0
C847 C 0.73063 0.15798 0.32057 0.0
C848 C 0.74675 0.18194 0.34872 0.0
H849 H 0.79126 0.29235 0.45364 0.0
H850 H 0.79159 0.23677 0.41239 0.0
H851 H 0.64085 0.22782 0.41398 0.0
H852 H 0.69746 0.30208 0.33649 0.0
H853 H 0.6625 0.27947 0.3099 0.0
H854 H 0.64851 0.3091 0.3494 0.0
H855 H 0.61939 0.26998 0.39651 0.0
H856 H 0.61563 0.22529 0.37092 0.0
C857 C 0.79047 0.15655 0.39938 0.0
C858 C 0.81724 0.19944 0.34606 0.0
C859 C 0.61756 0.17548 0.23362 0.0
C860 C 0.58987 0.20349 0.23268 0.0
C861 C 0.58727 0.22983 0.26272 0.0
C862 C 0.61255 0.22899 0.29309 0.0
C863 C 0.64195 0.20267 0.29258 0.0
C864 C 0.64374 0.176 0.26359 0.0
C865 C 0.67615 0.14941 0.26873 0.0
C866 C 0.69532 0.16675 0.3038 0.0
C867 C 0.67491 0.19765 0.31768 0.0
C868 C 0.65947 0.10885 0.276 0.0
C869 C 0.70188 0.15208 0.23329 0.0
C870 C 0.70115 0.29788 0.41963 0.0
C871 C 0.73359 0.30785 0.44066 0.0
C872 C 0.76589 0.28499 0.4376 0.0
C873 C 0.766 0.25265 0.4138 0.0
C874 C 0.73346 0.24301 0.39252 0.0
C875 C 0.70184 0.26561 0.39564 0.0
C876 C 0.67207 0.25455 0.36696 0.0
C877 C 0.68956 0.22026 0.34809 0.0
C878 C 0.72562 0.2132 0.3631 0.0
C879 C 0.63479 0.24404 0.38794 0.0
C880 C 0.66922 0.28797 0.33927 0.0
H881 H 0.72853 0.08706 0.27433 0.0
H882 H 0.84819 0.11731 0.34368 0.0
H883 H 0.81959 0.20054 0.31471 0.0
H884 H 0.8102 0.22857 0.35516 0.0
H885 H 0.84558 0.19249 0.35746 0.0
H886 H 0.77389 0.12964 0.40391 0.0
H887 H 0.82055 0.15131 0.40666 0.0
H888 H 0.77903 0.17725 0.41984 0.0
H889 H 0.61898 0.15405 0.21141 0.0
H890 H 0.56495 0.25055 0.26312 0.0
H891 H 0.60838 0.24917 0.31561 0.0
H892 H 0.62873 0.10913 0.28322 0.0
H893 H 0.66248 0.09008 0.25071 0.0
H894 H 0.67311 0.09536 0.30055 0.0
H895 H 0.70929 0.18232 0.22716 0.0
H896 H 0.72893 0.13738 0.23646 0.0
H897 H 0.68717 0.1396 0.2081 0.0
H898 H 0.78121 0.04511 0.26822 0.0
C899 C 0.7538 0.09459 0.28968 0.0
C900 C 0.37317 0.98123 0.99907 0.0
C901 C 0.36343 0.95011 0.97559 0.0
C902 C 0.38889 0.93928 0.94673 0.0
C903 C 0.43206 0.99109 0.96367 0.0
C904 C 0.40746 1.00138 0.99237 0.0
C905 C 0.42167 0.03613 0.01345 0.0
H906 H 0.56485 0.15943 0.05827 0.0
C907 C 0.46516 0.0178 0.96429 0.0
C908 C 0.45955 0.04383 0.99398 0.0
H909 H 0.44882 0.15926 0.09706 0.0
H910 H 0.43326 0.10609 0.05652 0.0
H911 H 0.53347 0.15528 0.9714 0.0
H912 H 0.57808 0.06671 0.04113 0.0
H913 H 0.59949 0.06553 0.99586 0.0
H914 H 0.60639 0.10689 0.02587 0.0
H915 H 0.58314 0.15314 0.98217 0.0
H916 H 0.56232 0.12646 0.94323 0.0
C917 C 0.39332 0.06867 1.00727 0.0
C918 C 0.42695 0.02505 0.05509 0.0
C919 C 0.56516 0.01309 0.86025 0.0
C920 C 0.59881 0.03441 0.85404 0.0
C921 C 0.61276 0.05853 0.88332 0.0
C922 C 0.59233 0.06357 0.91705 0.0
C923 C 0.55725 0.04447 0.92169 0.0
C924 C 0.54499 0.01842 0.89432 0.0
C925 C 0.50797 0.9992 0.90526 0.0
C926 C 0.49858 0.02044 0.94177 0.0
C927 C 0.5275 0.04717 0.9513 0.0
C928 C 0.4784 1.00633 0.87394 0.0
C929 C 0.51539 0.95651 0.91218 0.0
C930 C 0.53638 0.14714 0.05855 0.0
C931 C 0.50882 0.16086 0.08407 0.0
C932 C 0.47135 0.14657 0.08087 0.0
C933 C 0.46212 0.11631 0.05638 0.0
C934 C 0.49015 0.10135 0.0327 0.0
C935 C 0.52613 0.11785 0.03254 0.0
C936 C 0.54961 0.10265 1.00003 0.0
C937 C 0.52252 0.07262 0.98271 0.0
C938 C 0.48814 0.07164 1.00286 0.0
C939 C 0.55796 0.13593 0.97272 0.0
C940 C 0.58552 0.0846 0.01634 0.0
H941 H 0.44089 0.94983 0.91812 0.0
H942 H 0.35384 0.99074 0.02088 0.0
H943 H 0.44178 0.99756 0.05721 0.0
H944 H 0.44466 0.04599 0.07075 0.0
H945 H 0.39901 0.02184 0.06942 0.0
H946 H 0.37457 0.063 0.98242 0.0
H947 H 0.37462 0.07259 0.03228 0.0
H948 H 0.40803 0.0961 1.00094 0.0
H949 H 0.55387 0.99422 0.83835 0.0
H950 H 0.63912 0.07439 0.87982 0.0
H951 H 0.60419 0.08278 0.93795 0.0
H952 H 0.47937 0.03676 0.86559 0.0
H953 H 0.48417 0.98879 0.84831 0.0
H954 H 0.44895 1.00024 0.88304 0.0
H955 H 0.54569 0.95165 0.9191 0.0
H956 H 0.49941 0.94538 0.93683 0.0
H957 H 0.50823 0.93881 0.88682 0.0
H958 H 0.38204 0.91555 0.92808 0.0
C959 C 0.42313 0.95931 0.94083 0.0
Mn960 Mn 0.26773 0.87866 0.01233 0.0
Mn961 Mn 0.25938 0.91122 0.92356 0.0
C962 C 0.23507 0.8416 0.96604 0.0
C963 C 0.29956 0.84463 0.0595 0.0
C964 C 0.21802 0.94533 0.99126 0.0
O965 O 0.31117 0.91912 1.00768 0.0
O966 O 0.30881 0.92817 0.94452 0.0
C967 C 0.31941 0.86735 0.88504 0.0
N968 N 0.28313 0.87958 0.8867 0.0
C969 C 0.2699 0.8561 0.82386 0.0
C970 C 0.30745 0.84396 0.82099 0.0
C971 C 0.3321 0.84891 0.85204 0.0
C972 C 0.25851 0.87253 0.85812 0.0
H973 H 0.33828 0.8716 0.90876 0.0
C974 C 0.32523 0.93186 0.97662 0.0
O975 O 0.27693 0.87199 0.06786 0.0
O976 O 0.30495 0.83775 0.02376 0.0
N977 N 0.21291 0.89663 0.89884 0.0
C978 C 0.17681 0.90666 0.90764 0.0
C979 C 0.14812 0.90248 0.88024 0.0
C980 C 0.15708 0.8893 0.84371 0.0
C981 C 0.19441 0.87907 0.83532 0.0
C982 C 0.22143 0.88246 0.86422 0.0
H983 H 0.17007 0.91865 0.93499 0.0
O984 O 0.22832 0.83693 1.00185 0.0
O985 O 0.25912 0.86881 0.95893 0.0
O986 O 0.22674 0.91955 0.01454 0.0
O987 O 0.23219 0.9468 0.95802 0.0
C988 C 0.20588 0.86534 0.7995 0.0
C989 C 0.24341 0.85304 0.79404 0.0
H990 H 0.31757 0.8306 0.79524 0.0
H991 H 0.36097 0.83917 0.85027 0.0
H992 H 0.11937 0.91042 0.88695 0.0
H993 H 0.13503 0.88681 0.82243 0.0
H994 H 0.18568 0.86263 0.77649 0.0
H995 H 0.25155 0.84117 0.76688 0.0
Mn996 Mn 0.16798 0.5103 0.25376 0.0
Mn997 Mn 0.12519 0.59474 0.25058 0.0
C998 C 0.19168 0.55852 0.21481 0.0
C999 C 0.21281 0.47008 0.27852 0.0
C1000 C 0.09458 0.52352 0.20997 0.0
O1001 O 0.13533 0.50979 0.30227 0.0
O1002 O 0.11146 0.56863 0.2986 0.0
C1003 C 0.1681 0.63177 0.31358 0.0
N1004 N 0.15612 0.6318 0.27701 0.0
C1005 C 0.18755 0.69218 0.26625 0.0
C1006 C 0.19922 0.69332 0.30414 0.0
C1007 C 0.18991 0.66269 0.32778 0.0
C1008 C 0.16641 0.66028 0.25359 0.0
H1009 H 0.16132 0.6082 0.33159 0.0
C1010 C 0.11586 0.53714 0.31573 0.0
O1011 O 0.18306 0.45669 0.26083 0.0
O1012 O 0.21578 0.50663 0.2835 0.0
N1013 N 0.13644 0.62394 0.20638 0.0
C1014 C 0.12384 0.61806 0.17029 0.0
C1015 C 0.13149 0.64574 0.14283 0.0
C1016 C 0.15134 0.67949 0.15288 0.0
C1017 C 0.16362 0.68514 0.19029 0.0
C1018 C 0.15551 0.65639 0.21632 0.0
H1019 H 0.10786 0.59257 0.16251 0.0
O1020 O 0.19948 0.52324 0.20794 0.0
O1021 O 0.17019 0.5641 0.24405 0.0
O1022 O 0.12112 0.50203 0.22042 0.0
O1023 O 0.09228 0.55828 0.22094 0.0
C1024 C 0.18327 0.71832 0.20287 0.0
C1025 C 0.19591 0.72152 0.24061 0.0
H1026 H 0.21572 0.71731 0.31523 0.0
H1027 H 0.19943 0.66297 0.35688 0.0
H1028 H 0.12177 0.64124 0.11406 0.0
H1029 H 0.15698 0.70087 0.13167 0.0
H1030 H 0.18898 0.74153 0.18371 0.0
H1031 H 0.21175 0.7468 0.24969 0.0
Mn1032 Mn 0.7562 0.63752 0.02283 0.0
Mn1033 Mn 0.67753 0.6741 0.98432 0.0
C1034 C 0.69819 0.60329 0.02576 0.0
C1035 C 0.81306 0.6039 0.02763 0.0
C1036 C 0.70707 0.70028 0.05812 0.0
O1037 O 0.78015 0.67587 0.98655 0.0
O1038 O 0.72501 0.70194 0.97092 0.0
C1039 C 0.69612 0.65591 0.90451 0.0
N1040 N 0.67091 0.65612 0.93368 0.0
C1041 C 0.61792 0.64837 0.89133 0.0
C1042 C 0.64327 0.64741 0.86071 0.0
C1043 C 0.68259 0.65063 0.86739 0.0
C1044 C 0.63327 0.65125 0.92773 0.0
H1045 H 0.72612 0.6606 0.90955 0.0
C1046 C 0.76123 0.70173 0.97086 0.0
O1047 O 0.8052 0.6326 0.04912 0.0
O1048 O 0.78787 0.59446 1.00201 0.0
N1049 N 0.62796 0.65338 0.99329 0.0
C1050 C 0.60772 0.65407 0.02612 0.0
C1051 C 0.56786 0.65235 0.02467 0.0
C1052 C 0.54926 0.65166 0.98949 0.0
C1053 C 0.57074 0.65111 0.95604 0.0
C1054 C 0.61033 0.65115 0.95935 0.0
H1055 H 0.62192 0.65739 0.05308 0.0
O1056 O 0.72444 0.60008 0.05119 0.0
O1057 O 0.70556 0.62767 0.99886 0.0
O1058 O 0.73765 0.68211 0.0552 0.0
O1059 O 0.67964 0.69598 0.03535 0.0
C1060 C 0.55451 0.6499 0.91955 0.0
C1061 C 0.57809 0.64785 0.88723 0.0
H1062 H 0.63286 0.64476 0.83195 0.0
H1063 H 0.7023 0.65038 0.84389 0.0
H1064 H 0.5515 0.65294 0.05058 0.0
H1065 H 0.51853 0.65119 0.98848 0.0
H1066 H 0.52397 0.64963 0.91606 0.0
H1067 H 0.56531 0.64621 0.85939 0.0
Mn1068 Mn 0.88775 1.00737 0.26598 0.0
Mn1069 Mn 0.92394 0.91979 0.26028 0.0
C1070 C 0.8528 0.95716 0.23732 0.0
C1071 C 0.85067 0.05293 0.29682 0.0
C1072 C 0.95251 0.98662 0.21271 0.0
O1073 O 0.92978 1.00883 0.3065 0.0
O1074 O 0.94441 0.94652 0.30544 0.0
C1075 C 0.88716 0.88655 0.32809 0.0
N1076 N 0.89546 0.88468 0.29053 0.0
C1077 C 0.86684 0.82214 0.28478 0.0
C1078 C 0.85874 0.82294 0.32364 0.0
C1079 C 0.86844 0.85555 0.34528 0.0
C1080 C 0.88437 0.85441 0.2691 0.0
H1081 H 0.89456 0.9116 0.34461 0.0
C1082 C 0.94675 0.98002 0.31983 0.0
O1083 O 0.8768 0.06275 0.27274 0.0
O1084 O 0.84764 0.01705 0.30464 0.0
N1085 N 0.90626 0.88985 0.21805 0.0
C1086 C 0.91391 0.89469 0.18061 0.0
C1087 C 0.90585 0.86484 0.15489 0.0
C1088 C 0.89096 0.83001 0.16804 0.0
C1089 C 0.8831 0.82576 0.20667 0.0
C1090 C 0.89098 0.85676 0.23081 0.0
H1091 H 0.92685 0.9208 0.17053 0.0
O1092 O 0.84617 0.99227 0.22914 0.0
O1093 O 0.88039 0.9529 0.26077 0.0
O1094 O 0.92721 1.00983 0.22321 0.0
O1095 O 0.95516 0.95342 0.2268 0.0
C1096 C 0.86741 0.79207 0.22213 0.0
C1097 C 0.8585 0.79057 0.26103 0.0
H1098 H 0.84486 0.79882 0.33708 0.0
H1099 H 0.86185 0.85663 0.37517 0.0
H1100 H 0.91187 0.86837 0.1251 0.0
H1101 H 0.88522 0.80688 0.14817 0.0
H1102 H 0.86099 0.7676 0.20414 0.0
H1103 H 0.84542 0.76496 0.27239 0.0
Mn1104 Mn 0.2562 0.13752 0.52283 0.0
Mn1105 Mn 0.17753 0.1741 0.48432 0.0
C1106 C 0.19819 0.10329 0.52576 0.0
C1107 C 0.31306 0.1039 0.52763 0.0
C1108 C 0.20707 0.20028 0.55812 0.0
O1109 O 0.28015 0.17587 0.48655 0.0
O1110 O 0.22501 0.20194 0.47092 0.0
C1111 C 0.19612 0.15591 0.40451 0.0
N1112 N 0.17091 0.15612 0.43368 0.0
C1113 C 0.11792 0.14837 0.39133 0.0
C1114 C 0.14327 0.14741 0.36071 0.0
C1115 C 0.18259 0.15063 0.36739 0.0
C1116 C 0.13327 0.15125 0.42773 0.0
H1117 H 0.22612 0.1606 0.40955 0.0
C1118 C 0.26123 0.20173 0.47086 0.0
O1119 O 0.3052 0.1326 0.54912 0.0
O1120 O 0.28787 0.09446 0.50201 0.0
N1121 N 0.12796 0.15338 0.49329 0.0
C1122 C 0.10772 0.15407 0.52612 0.0
C1123 C 0.06786 0.15235 0.52467 0.0
C1124 C 0.04926 0.15166 0.48949 0.0
C1125 C 0.07074 0.15111 0.45604 0.0
C1126 C 0.11033 0.15115 0.45935 0.0
H1127 H 0.12192 0.1574 0.55308 0.0
O1128 O 0.22444 0.10008 0.55119 0.0
O1129 O 0.20556 0.12767 0.49886 0.0
O1130 O 0.23765 0.18211 0.5552 0.0
O1131 O 0.17964 0.19598 0.53535 0.0
C1132 C 0.05451 0.1499 0.41955 0.0
C1133 C 0.07809 0.14785 0.38723 0.0
H1134 H 0.13286 0.14476 0.33195 0.0
H1135 H 0.2023 0.15038 0.34389 0.0
H1136 H 0.0515 0.15294 0.55058 0.0
H1137 H 0.01853 0.15119 0.48848 0.0
H1138 H 0.02397 0.14963 0.41606 0.0
H1139 H 0.06531 0.14621 0.35939 0.0
Mn1140 Mn 0.38775 0.50737 0.76598 0.0
Mn1141 Mn 0.42394 0.41979 0.76028 0.0
C1142 C 0.3528 0.45716 0.73732 0.0
C1143 C 0.35067 0.55293 0.79682 0.0
C1144 C 0.45251 0.48662 0.71271 0.0
O1145 O 0.42978 0.50883 0.8065 0.0
O1146 O 0.44441 0.44652 0.80544 0.0
C1147 C 0.38716 0.38655 0.82809 0.0
N1148 N 0.39546 0.38468 0.79053 0.0
C1149 C 0.36684 0.32214 0.78478 0.0
C1150 C 0.35874 0.32294 0.82364 0.0
C1151 C 0.36844 0.35555 0.84528 0.0
C1152 C 0.38437 0.35441 0.7691 0.0
H1153 H 0.39456 0.4116 0.84461 0.0
C1154 C 0.44675 0.48002 0.81983 0.0
O1155 O 0.3768 0.56275 0.77274 0.0
O1156 O 0.34764 0.51705 0.80464 0.0
N1157 N 0.40626 0.38985 0.71805 0.0
C1158 C 0.41391 0.39469 0.68061 0.0
C1159 C 0.40585 0.36484 0.65489 0.0
C1160 C 0.39096 0.33001 0.66804 0.0
C1161 C 0.3831 0.32576 0.70667 0.0
C1162 C 0.39098 0.35676 0.73081 0.0
H1163 H 0.42685 0.4208 0.67053 0.0
O1164 O 0.34617 0.49227 0.72914 0.0
O1165 O 0.38039 0.4529 0.76077 0.0
O1166 O 0.42721 0.50983 0.72321 0.0
O1167 O 0.45515 0.45342 0.7268 0.0
C1168 C 0.36741 0.29207 0.72214 0.0
C1169 C 0.3585 0.29057 0.76103 0.0
H1170 H 0.34486 0.29882 0.83708 0.0
H1171 H 0.36185 0.35663 0.87517 0.0
H1172 H 0.41187 0.36837 0.6251 0.0
H1173 H 0.38522 0.30688 0.64817 0.0
H1174 H 0.36099 0.2676 0.70414 0.0
H1175 H 0.34542 0.26496 0.77239 0.0
Mn1176 Mn 0.76773 0.37866 0.51233 0.0
Mn1177 Mn 0.75938 0.41122 0.42356 0.0
C1178 C 0.73507 0.3416 0.46604 0.0
C1179 C 0.79956 0.34463 0.5595 0.0
C1180 C 0.71802 0.44533 0.49126 0.0
O1181 O 0.81117 0.41912 0.50768 0.0
O1182 O 0.80881 0.42817 0.44452 0.0
C1183 C 0.81941 0.36735 0.38504 0.0
N1184 N 0.78313 0.37958 0.3867 0.0
C1185 C 0.7699 0.3561 0.32386 0.0
C1186 C 0.80745 0.34396 0.32099 0.0
C1187 C 0.8321 0.34891 0.35204 0.0
C1188 C 0.75851 0.37253 0.35812 0.0
H1189 H 0.83828 0.3716 0.40876 0.0
C1190 C 0.82523 0.43186 0.47662 0.0
O1191 O 0.77693 0.37199 0.56786 0.0
O1192 O 0.80495 0.33775 0.52376 0.0
N1193 N 0.71291 0.39663 0.39884 0.0
C1194 C 0.67681 0.40666 0.40764 0.0
C1195 C 0.64812 0.40248 0.38024 0.0
C1196 C 0.65708 0.3893 0.34371 0.0
C1197 C 0.69441 0.37907 0.33532 0.0
C1198 C 0.72143 0.38246 0.36422 0.0
H1199 H 0.67007 0.41865 0.43499 0.0
O1200 O 0.72832 0.33693 0.50185 0.0
O1201 O 0.75912 0.36881 0.45893 0.0
O1202 O 0.72674 0.41955 0.51454 0.0
O1203 O 0.73219 0.4468 0.45802 0.0
C1204 C 0.70588 0.36534 0.2995 0.0
C1205 C 0.74341 0.35304 0.29404 0.0
H1206 H 0.81757 0.3306 0.29524 0.0
H1207 H 0.86097 0.33917 0.35027 0.0
H1208 H 0.61937 0.41042 0.38695 0.0
H1209 H 0.63503 0.38681 0.32243 0.0
H1210 H 0.68568 0.36263 0.27649 0.0
H1211 H 0.75155 0.34117 0.26688 0.0
Mn1212 Mn 0.66798 0.0103 0.75376 0.0
Mn1213 Mn 0.62519 0.09474 0.75058 0.0
C1214 C 0.69168 0.05852 0.71481 0.0
C1215 C 0.71281 0.97008 0.77852 0.0
C1216 C 0.59458 0.02352 0.70997 0.0
O1217 O 0.63533 1.00979 0.80227 0.0
O1218 O 0.61146 0.06863 0.7986 0.0
C1219 C 0.6681 0.13177 0.81358 0.0
N1220 N 0.65612 0.1318 0.77701 0.0
C1221 C 0.68755 0.19218 0.76625 0.0
C1222 C 0.69922 0.19332 0.80414 0.0
C1223 C 0.68991 0.16269 0.82778 0.0
C1224 C 0.66641 0.16028 0.75359 0.0
H1225 H 0.66132 0.1082 0.83159 0.0
C1226 C 0.61586 0.03714 0.81573 0.0
O1227 O 0.68306 0.95669 0.76083 0.0
O1228 O 0.71578 1.00663 0.7835 0.0
N1229 N 0.63644 0.12394 0.70638 0.0
C1230 C 0.62384 0.11806 0.67029 0.0
C1231 C 0.63149 0.14574 0.64283 0.0
C1232 C 0.65134 0.17949 0.65288 0.0
C1233 C 0.66362 0.18514 0.69029 0.0
C1234 C 0.65551 0.15639 0.71632 0.0
H1235 H 0.60786 0.09257 0.66251 0.0
O1236 O 0.69948 0.02324 0.70794 0.0
O1237 O 0.67019 0.0641 0.74405 0.0
O1238 O 0.62112 1.00203 0.72042 0.0
O1239 O 0.59228 0.05828 0.72094 0.0
C1240 C 0.68327 0.21832 0.70287 0.0
C1241 C 0.69591 0.22152 0.74061 0.0
H1242 H 0.71572 0.21731 0.81523 0.0
H1243 H 0.69943 0.16297 0.85688 0.0
H1244 H 0.62177 0.14124 0.61406 0.0
H1245 H 0.65698 0.20087 0.63167 0.0
H1246 H 0.68898 0.24153 0.68371 0.0
H1247 H 0.71175 0.2468 0.74969 0.0
Mn1248 Mn 1.00986 0.26332 0.88293 0.0
Mn1249 Mn 0.92318 0.25481 0.92238 0.0
C1250 C 0.96043 0.23133 0.85023 0.0
C1251 C 0.05381 0.29546 0.8445 0.0
C1252 C 0.99174 0.21007 0.94872 0.0
O1253 O 1.01065 0.30567 0.924 0.0
O1254 O 0.94892 0.30235 0.94143 0.0
C1255 C 0.88603 0.32084 0.88804 0.0
N1256 N 0.88671 0.28284 0.8947 0.0
C1257 C 0.82697 0.27269 0.8628 0.0
C1258 C 0.82555 0.3118 0.85589 0.0
C1259 C 0.85543 0.33595 0.86828 0.0
C1260 C 0.85871 0.25921 0.88182 0.0
H1261 H 0.90864 0.33936 0.89774 0.0
C1262 C 0.98198 0.31846 0.94208 0.0
O1263 O 0.06472 0.27235 0.87042 0.0
O1264 O 0.01772 0.30149 0.84232 0.0
N1265 N 0.89494 0.21046 0.9056 0.0
C1266 C 0.90107 0.17322 0.91339 0.0
C1267 C 0.87389 0.1453 0.90259 0.0
C1268 C 0.84029 0.15598 0.88469 0.0
C1269 C 0.83438 0.19448 0.87732 0.0
C1270 C 0.86276 0.22096 0.88814 0.0
H1271 H 0.92636 0.16482 0.92798 0.0
O1272 O 0.99561 0.22463 0.84222 0.0
O1273 O 0.95555 0.25552 0.87758 0.0
O1274 O 0.0143 0.22117 0.92264 0.0
O1275 O 0.95832 0.22325 0.95255 0.0
C1276 C 0.80124 0.20769 0.86004 0.0
C1277 C 0.79792 0.24663 0.85198 0.0
H1278 H 0.80173 0.32357 0.84105 0.0
H1279 H 0.85472 0.36617 0.86292 0.0
H1280 H 0.87861 0.11565 0.9085 0.0
H1281 H 0.81922 0.13441 0.87671 0.0
H1282 H 0.77821 0.18809 0.85263 0.0
H1283 H 0.77273 0.25632 0.83785 0.0
Mn1284 Mn 0.50986 0.76332 0.38293 0.0
Mn1285 Mn 0.42318 0.75481 0.42238 0.0
C1286 C 0.46043 0.73133 0.35023 0.0
C1287 C 0.55381 0.79546 0.3445 0.0
C1288 C 0.49174 0.71007 0.44872 0.0
O1289 O 0.51065 0.80567 0.424 0.0
O1290 O 0.44892 0.80235 0.44143 0.0
C1291 C 0.38603 0.82084 0.38804 0.0
N1292 N 0.38671 0.78284 0.3947 0.0
C1293 C 0.32697 0.77269 0.3628 0.0
C1294 C 0.32555 0.8118 0.35589 0.0
C1295 C 0.35543 0.83595 0.36828 0.0
C1296 C 0.35871 0.75921 0.38182 0.0
H1297 H 0.40864 0.83936 0.39774 0.0
C1298 C 0.48198 0.81846 0.44208 0.0
O1299 O 0.56472 0.77235 0.37042 0.0
O1300 O 0.51772 0.80149 0.34232 0.0
N1301 N 0.39494 0.71046 0.4056 0.0
C1302 C 0.40107 0.67322 0.41339 0.0
C1303 C 0.37389 0.6453 0.40259 0.0
C1304 C 0.34029 0.65598 0.38469 0.0
C1305 C 0.33438 0.69448 0.37732 0.0
C1306 C 0.36276 0.72096 0.38814 0.0
H1307 H 0.42636 0.66482 0.42798 0.0
O1308 O 0.49561 0.72463 0.34222 0.0
O1309 O 0.45555 0.75552 0.37758 0.0
O1310 O 0.5143 0.72117 0.42264 0.0
O1311 O 0.45832 0.72325 0.45255 0.0
C1312 C 0.30124 0.70769 0.36004 0.0
C1313 C 0.29792 0.74663 0.35198 0.0
H1314 H 0.30173 0.82357 0.34105 0.0
H1315 H 0.35472 0.86617 0.36292 0.0
H1316 H 0.37861 0.61565 0.4085 0.0
H1317 H 0.31922 0.63441 0.37671 0.0
H1318 H 0.27821 0.68809 0.35263 0.0
H1319 H 0.27273 0.75632 0.33785 0.0
Mn1320 Mn 0.01933 0.75108 0.64388 0.0
Mn1321 Mn 0.98376 0.67186 0.68588 0.0
C1322 C 0.01718 0.69267 0.61115 0.0
C1323 C 0.0173 0.80634 0.60717 0.0
C1324 C 0.06073 0.70352 0.70319 0.0
O1325 O 0.98738 0.77428 0.68632 0.0
O1326 O 0.97174 0.71892 0.71433 0.0
C1327 C 0.90224 0.68762 0.67516 0.0
N1328 N 0.93191 0.66368 0.67184 0.0
C1329 C 0.89016 0.61086 0.65571 0.0
C1330 C 0.85908 0.63492 0.65887 0.0
C1331 C 0.8652 0.67356 0.66828 0.0
C1332 C 0.92642 0.62672 0.66196 0.0
H1333 H 0.90679 0.71706 0.6834 0.0
C1334 C 0.97239 0.7553 0.7133 0.0
O1335 O 0.04343 0.80163 0.63229 0.0
O1336 O 0.99152 0.77937 0.60403 0.0
N1337 N 0.9923 0.62353 0.66267 0.0
C1338 C 0.02556 0.60513 0.65775 0.0
C1339 C 0.02464 0.56661 0.64664 0.0
C1340 C 0.98957 0.54718 0.64207 0.0
C1341 C 0.95573 0.56673 0.64768 0.0
C1342 C 0.95845 0.60532 0.6575 0.0
H1343 H 0.05249 0.61971 0.66266 0.0
O1344 O 0.04248 0.71879 0.60306 0.0
O1345 O 0.99448 0.70065 0.63913 0.0
O1346 O 0.05712 0.73356 0.6839 0.0
O1347 O 0.03648 0.67625 0.70326 0.0
C1348 C 0.91937 0.54952 0.64379 0.0
C1349 C 0.88662 0.57171 0.64701 0.0
H1350 H 0.83043 0.62404 0.65415 0.0
H1351 H 0.84137 0.69229 0.67085 0.0
H1352 H 0.05087 0.55173 0.64238 0.0
H1353 H 0.98896 0.51733 0.63404 0.0
H1354 H 0.91631 0.51939 0.63741 0.0
H1355 H 0.8589 0.55837 0.64277 0.0
Mn1356 Mn 0.51933 0.25108 0.14388 0.0
Mn1357 Mn 0.48376 0.17186 0.18588 0.0
C1358 C 0.51718 0.19267 0.11115 0.0
C1359 C 0.5173 0.30634 0.10717 0.0
C1360 C 0.56073 0.20352 0.20319 0.0
O1361 O 0.48738 0.27428 0.18632 0.0
O1362 O 0.47174 0.21892 0.21433 0.0
C1363 C 0.40224 0.18762 0.17516 0.0
N1364 N 0.43191 0.16368 0.17184 0.0
C1365 C 0.39016 0.11086 0.15571 0.0
C1366 C 0.35908 0.13492 0.15887 0.0
C1367 C 0.3652 0.17356 0.16828 0.0
C1368 C 0.42642 0.12672 0.16196 0.0
H1369 H 0.40679 0.21706 0.1834 0.0
C1370 C 0.47239 0.2553 0.2133 0.0
O1371 O 0.54343 0.30163 0.13229 0.0
O1372 O 0.49152 0.27937 0.10403 0.0
N1373 N 0.4923 0.12353 0.16267 0.0
C1374 C 0.52556 0.10513 0.15775 0.0
C1375 C 0.52464 0.06661 0.14664 0.0
C1376 C 0.48957 0.04718 0.14207 0.0
C1377 C 0.45573 0.06673 0.14768 0.0
C1378 C 0.45845 0.10532 0.1575 0.0
H1379 H 0.55249 0.11971 0.16266 0.0
O1380 O 0.54248 0.21879 0.10306 0.0
O1381 O 0.49448 0.20065 0.13913 0.0
O1382 O 0.55712 0.23356 0.1839 0.0
O1383 O 0.53648 0.17625 0.20326 0.0
C1384 C 0.41937 0.04952 0.14379 0.0
C1385 C 0.38662 0.07171 0.14701 0.0
H1386 H 0.33043 0.12404 0.15415 0.0
H1387 H 0.34137 0.19229 0.17085 0.0
H1388 H 0.55087 0.05173 0.14238 0.0
H1389 H 0.48896 0.01733 0.13404 0.0
H1390 H 0.41631 0.01939 0.13741 0.0
H1391 H 0.3589 0.05837 0.14277 0.0
loop_
_geom_bond_atom_site_label_1
_geom_bond_atom_site_label_2
_geom_bond_distance
_geom_bond_site_symmetry_2
_ccdc_geom_bond_type
C0 C1 1.391 . S
C0 C4 1.391 . S
C0 H42 0.948 . S
C1 C0 1.391 . S
C1 C2 1.391 1_455 S
C2 C1 1.391 1_655 S
C2 H58 0.947 . S
C2 C59 1.392 . S
C3 C4 1.391 . S
C3 C7 1.397 1_556 S
C3 C59 1.419 1_455 S
C4 C0 1.391 . S
C4 C3 1.391 . S
C4 C5 1.399 . S
C5 C4 1.399 . S
C5 C8 1.396 1_556 S
C5 C17 1.453 . S
C5 C18 1.684 . S
H6 C30 0.948 . S
C7 C3 1.397 1_554 S
C7 C8 1.394 . S
C7 C26 1.730 . S
C8 C5 1.396 1_554 S
C8 C7 1.394 . S
C8 C38 1.723 . S
H9 C32 0.947 . S
H10 C33 0.948 1_545 S
H11 C39 0.982 . S
H12 C40 0.979 . S
H13 C40 0.980 . S
H14 C40 0.983 . S
H15 C39 0.979 . S
H16 C39 0.977 . S
C17 C5 1.453 . S
C17 H46 0.982 . S
C17 H47 0.979 . S
C17 H48 0.977 . S
C18 C5 1.684 . S
C18 H43 0.979 . S
C18 H44 0.980 . S
C18 H45 0.983 . S
C19 C20 1.391 . S
C19 C24 1.391 . S
C19 H49 0.948 . S
C20 C19 1.391 . S
C20 C21 1.391 1_545 S
C21 C20 1.391 1_565 S
C21 C22 1.392 . S
C21 H50 0.947 . S
C22 C21 1.392 . S
C22 C23 1.419 1_565 S
C22 H51 0.948 1_655 S
C23 C22 1.419 1_545 S
C23 C24 1.391 . S
C23 C27 1.397 1_655 S
C24 C19 1.391 . S
C24 C23 1.391 . S
C24 C25 1.399 . S
C25 C24 1.399 . S
C25 C26 1.383 1_655 S
C25 C28 1.453 . S
C25 C29 1.684 . S
C26 C7 1.730 . S
C26 C25 1.383 1_455 S
C26 C27 1.400 . S
C27 C23 1.397 1_455 S
C27 C26 1.400 . S
C27 C37 1.723 1_545 S
C28 C25 1.453 . S
C28 H52 0.982 . S
C28 H53 0.979 . S
C28 H54 0.977 . S
C29 C25 1.684 . S
C29 H55 0.979 . S
C29 H56 0.980 . S
C29 H57 0.983 . S
C30 H6 0.948 . S
C30 C31 1.391 . S
C30 C35 1.391 . S
C31 C30 1.391 . S
C31 C32 1.391 1_554 S
C32 H9 0.947 . S
C32 C31 1.391 1_556 S
C32 C33 1.392 . S
C33 H10 0.948 1_565 S
C33 C32 1.392 . S
C33 C34 1.419 1_556 S
C34 C33 1.419 1_554 S
C34 C35 1.391 . S
C34 C38 1.397 1_565 S
C35 C30 1.391 . S
C35 C34 1.391 . S
C35 C36 1.399 . S
C36 C35 1.399 . S
C36 C37 1.396 . S
C36 C39 1.453 . S
C36 C40 1.684 . S
C37 C27 1.723 1_565 S
C37 C36 1.396 . S
C37 C38 1.394 1_565 S
C38 C8 1.723 . S
C38 C34 1.397 1_545 S
C38 C37 1.394 1_545 S
C39 H11 0.982 . S
C39 H15 0.979 . S
C39 H16 0.977 . S
C39 C36 1.453 . S
C40 H12 0.979 . S
C40 H13 0.980 . S
C40 H14 0.983 . S
C40 C36 1.684 . S
H41 C59 0.948 1_554 S
H42 C0 0.948 . S
H43 C18 0.979 . S
H44 C18 0.980 . S
H45 C18 0.983 . S
H46 C17 0.982 . S
H47 C17 0.979 . S
H48 C17 0.977 . S
H49 C19 0.948 . S
H50 C21 0.947 . S
H51 C22 0.948 1_455 S
H52 C28 0.982 . S
H53 C28 0.979 . S
H54 C28 0.977 . S
H55 C29 0.979 . S
H56 C29 0.980 . S
H57 C29 0.983 . S
H58 C2 0.947 . S
C59 C2 1.392 . S
C59 C3 1.419 1_655 S
C59 H41 0.948 1_556 S
C60 C61 1.391 . S
C60 C64 1.391 . S
C60 H102 0.948 . S
C61 C60 1.391 . S
C61 C62 1.391 . S
C62 C61 1.391 . S
C62 H118 0.947 . S
C62 C119 1.392 . S
C63 C64 1.391 . S
C63 C67 1.397 . S
C63 C119 1.419 . S
C64 C60 1.391 . S
C64 C63 1.391 . S
C64 C65 1.399 . S
C65 C64 1.399 . S
C65 C68 1.396 . S
C65 C77 1.453 . S
C65 C78 1.684 . S
H66 C90 0.948 . S
C67 C63 1.397 . S
C67 C68 1.394 . S
C67 C86 1.723 . S
C68 C65 1.396 . S
C68 C67 1.394 . S
C68 C98 1.723 . S
H69 C92 0.947 . S
H70 C93 0.948 . S
H71 C99 0.982 . S
H72 C100 0.979 . S
H73 C100 0.980 . S
H74 C100 0.983 . S
H75 C99 0.979 . S
H76 C99 0.977 . S
C77 C65 1.453 . S
C77 H106 0.982 . S
C77 H107 0.979 . S
C77 H108 0.977 . S
C78 C65 1.684 . S
C78 H103 0.979 . S
C78 H104 0.980 . S
C78 H105 0.983 . S
C79 C80 1.391 . S
C79 C84 1.391 . S
C79 H109 0.948 . S
C80 C79 1.391 . S
C80 C81 1.391 . S
C81 C80 1.391 . S
C81 C82 1.392 . S
C81 H110 0.947 . S
C82 C81 1.392 . S
C82 C83 1.419 . S
C82 H111 0.948 . S
C83 C82 1.419 . S
C83 C84 1.391 . S
C83 C87 1.397 . S
C84 C79 1.391 . S
C84 C83 1.391 . S
C84 C85 1.399 . S
C85 C84 1.399 . S
C85 C86 1.396 . S
C85 C88 1.453 . S
C85 C89 1.684 . S
C86 C67 1.723 . S
C86 C85 1.396 . S
C86 C87 1.394 . S
C87 C83 1.397 . S
C87 C86 1.394 . S
C87 C97 1.723 . S
C88 C85 1.453 . S
C88 H112 0.982 . S
C88 H113 0.979 . S
C88 H114 0.977 . S
C89 C85 1.684 . S
C89 H115 0.979 . S
C89 H116 0.980 . S
C89 H117 0.983 . S
C90 H66 0.948 . S
C90 C91 1.391 . S
C90 C95 1.391 . S
C91 C90 1.391 . S
C91 C92 1.391 . S
C92 H69 0.947 . S
C92 C91 1.391 . S
C92 C93 1.392 . S
C93 H70 0.948 . S
C93 C92 1.392 . S
C93 C94 1.419 . S
C94 C93 1.419 . S
C94 C95 1.391 . S
C94 C98 1.397 . S
C95 C90 1.391 . S
C95 C94 1.391 . S
C95 C96 1.399 . S
C96 C95 1.399 . S
C96 C97 1.396 . S
C96 C99 1.453 . S
C96 C100 1.684 . S
C97 C87 1.723 . S
C97 C96 1.396 . S
C97 C98 1.394 . S
C98 C68 1.723 . S
C98 C94 1.397 . S
C98 C97 1.394 . S
C99 H71 0.982 . S
C99 H75 0.979 . S
C99 H76 0.977 . S
C99 C96 1.453 . S
C100 H72 0.979 . S
C100 H73 0.980 . S
C100 H74 0.983 . S
C100 C96 1.684 . S
H101 C119 0.948 . S
H102 C60 0.948 . S
H103 C78 0.979 . S
H104 C78 0.980 . S
H105 C78 0.983 . S
H106 C77 0.982 . S
H107 C77 0.979 . S
H108 C77 0.977 . S
H109 C79 0.948 . S
H110 C81 0.947 . S
H111 C82 0.948 . S
H112 C88 0.982 . S
H113 C88 0.979 . S
H114 C88 0.977 . S
H115 C89 0.979 . S
H116 C89 0.980 . S
H117 C89 0.983 . S
H118 C62 0.947 . S
C119 C62 1.392 . S
C119 C63 1.419 . S
C119 H101 0.948 . S
C120 C121 1.391 1_455 S
C120 C124 1.391 . S
C120 H162 0.948 . S
C121 C120 1.391 1_655 S
C121 C122 1.391 . S
C122 C121 1.391 . S
C122 H178 0.947 . S
C122 C179 1.392 . S
C123 C124 1.391 1_655 S
C123 C127 1.397 1_556 S
C123 C179 1.419 . S
C124 C120 1.391 . S
C124 C123 1.391 1_455 S
C124 C125 1.399 1_556 S
C125 C124 1.399 1_554 S
C125 C128 1.396 1_455 S
C125 C137 1.453 . S
C125 C138 1.684 . S
H126 C150 0.948 . S
C127 C123 1.397 1_554 S
C127 C128 1.394 . S
C127 C146 1.723 . S
C128 C125 1.396 1_655 S
C128 C127 1.394 . S
C128 C158 1.723 . S
H129 C152 0.947 . S
H130 C153 0.948 . S
H131 C159 0.982 . S
H132 C160 0.979 1_455 S
H133 C160 0.980 . S
H134 C160 0.983 . S
H135 C159 0.979 . S
H136 C159 0.977 . S
C137 C125 1.453 . S
C137 H166 0.982 1_455 S
C137 H167 0.979 . S
C137 H168 0.977 . S
C138 C125 1.684 . S
C138 H163 0.979 . S
C138 H164 0.980 . S
C138 H165 0.983 . S
C139 C140 1.391 1_556 S
C139 C144 1.388 1_556 S
C139 H169 0.948 . S
C140 C139 1.391 1_554 S
C140 C141 1.391 . S
C141 C140 1.391 . S
C141 C142 1.392 . S
C141 H170 0.947 . S
C142 C141 1.392 . S
C142 C143 1.419 . S
C142 H171 0.948 . S
C143 C142 1.419 . S
C143 C144 1.406 . S
C143 C147 1.397 . S
C144 C139 1.388 1_554 S
C144 C143 1.406 . S
C144 C145 1.392 1_554 S
C145 C144 1.392 1_556 S
C145 C146 1.396 1_556 S
C145 C148 1.453 . S
C145 C149 1.684 . S
C146 C127 1.723 . S
C146 C145 1.396 1_554 S
C146 C147 1.394 . S
C147 C143 1.397 . S
C147 C146 1.394 . S
C147 C157 1.723 . S
C148 C145 1.453 . S
C148 H172 0.982 1_556 S
C148 H173 0.979 . S
C148 H174 0.977 . S
C149 C145 1.684 . S
C149 H175 0.979 . S
C149 H176 0.980 . S
C149 H177 0.983 . S
C150 H126 0.948 . S
C150 C151 1.391 . S
C150 C155 1.391 . S
C151 C150 1.391 . S
C151 C152 1.391 . S
C152 H129 0.947 . S
C152 C151 1.391 . S
C152 C153 1.392 . S
C153 H130 0.948 . S
C153 C152 1.392 . S
C153 C154 1.419 . S
C154 C153 1.419 . S
C154 C155 1.391 . S
C154 C158 1.397 1_455 S
C155 C150 1.391 . S
C155 C154 1.391 . S
C155 C156 1.399 1_455 S
C156 C155 1.399 1_655 S
C156 C157 1.396 . S
C156 C159 1.453 . S
C156 C160 1.684 . S
C157 C147 1.723 . S
C157 C156 1.396 . S
C157 C158 1.394 . S
C158 C128 1.723 . S
C158 C154 1.397 1_655 S
C158 C157 1.394 . S
C159 H131 0.982 . S
C159 H135 0.979 . S
C159 H136 0.977 . S
C159 C156 1.453 . S
C160 H132 0.979 1_655 S
C160 H133 0.980 . S
C160 H134 0.983 . S
C160 C156 1.684 . S
H161 C179 0.948 . S
H162 C120 0.948 . S
H163 C138 0.979 . S
H164 C138 0.980 . S
H165 C138 0.983 . S
H166 C137 0.982 1_655 S
H167 C137 0.979 . S
H168 C137 0.977 . S
H169 C139 0.948 . S
H170 C141 0.947 . S
H171 C142 0.948 . S
H172 C148 0.982 1_554 S
H173 C148 0.979 . S
H174 C148 0.977 . S
H175 C149 0.979 . S
H176 C149 0.980 . S
H177 C149 0.983 . S
H178 C122 0.947 . S
C179 C122 1.392 . S
C179 C123 1.419 . S
C179 H161 0.948 . S
C180 C181 1.391 . S
C180 C184 1.391 . S
C180 H222 0.948 . S
C181 C180 1.391 . S
C181 C182 1.391 . S
C182 C181 1.391 . S
C182 H238 0.947 . S
C182 C239 1.392 . S
C183 C184 1.391 . S
C183 C187 1.397 . S
C183 C239 1.419 . S
C184 C180 1.391 . S
C184 C183 1.391 . S
C184 C185 1.399 . S
C185 C184 1.399 . S
C185 C188 1.396 . S
C185 C197 1.453 . S
C185 C198 1.684 . S
H186 C210 0.948 . S
C187 C183 1.397 . S
C187 C188 1.394 . S
C187 C206 1.723 . S
C188 C185 1.396 . S
C188 C187 1.394 . S
C188 C218 1.723 . S
H189 C212 0.947 . S
H190 C213 0.948 . S
H191 C219 0.982 . S
H192 C220 0.979 . S
H193 C220 0.980 . S
H194 C220 0.983 . S
H195 C219 0.979 . S
H196 C219 0.977 . S
C197 C185 1.453 . S
C197 H226 0.982 . S
C197 H227 0.979 . S
C197 H228 0.977 . S
C198 C185 1.684 . S
C198 H223 0.979 . S
C198 H224 0.980 . S
C198 H225 0.983 . S
C199 C200 1.391 . S
C199 C204 1.391 . S
C199 H229 0.948 . S
C200 C199 1.391 . S
C200 C201 1.391 . S
C201 C200 1.391 . S
C201 C202 1.392 . S
C201 H230 0.947 . S
C202 C201 1.392 . S
C202 C203 1.419 . S
C202 H231 0.948 . S
C203 C202 1.419 . S
C203 C204 1.391 . S
C203 C207 1.397 . S
C204 C199 1.391 . S
C204 C203 1.391 . S
C204 C205 1.399 . S
C205 C204 1.399 . S
C205 C206 1.396 . S
C205 C208 1.453 . S
C205 C209 1.684 . S
C206 C187 1.723 . S
C206 C205 1.396 . S
C206 C207 1.394 . S
C207 C203 1.397 . S
C207 C206 1.394 . S
C207 C217 1.723 . S
C208 C205 1.453 . S
C208 H232 0.982 . S
C208 H233 0.979 . S
C208 H234 0.977 . S
C209 C205 1.684 . S
C209 H235 0.979 . S
C209 H236 0.980 . S
C209 H237 0.983 . S
C210 H186 0.948 . S
C210 C211 1.391 . S
C210 C215 1.391 . S
C211 C210 1.391 . S
C211 C212 1.391 . S
C212 H189 0.947 . S
C212 C211 1.391 . S
C212 C213 1.392 . S
C213 H190 0.948 . S
C213 C212 1.392 . S
C213 C214 1.419 . S
C214 C213 1.419 . S
C214 C215 1.391 . S
C214 C218 1.397 . S
C215 C210 1.391 . S
C215 C214 1.391 . S
C215 C216 1.399 . S
C216 C215 1.399 . S
C216 C217 1.396 . S
C216 C219 1.453 . S
C216 C220 1.684 . S
C217 C207 1.723 . S
C217 C216 1.396 . S
C217 C218 1.394 . S
C218 C188 1.723 . S
C218 C214 1.397 . S
C218 C217 1.394 . S
C219 H191 0.982 . S
C219 H195 0.979 . S
C219 H196 0.977 . S
C219 C216 1.453 . S
C220 H192 0.979 . S
C220 H193 0.980 . S
C220 H194 0.983 . S
C220 C216 1.684 . S
H221 C239 0.948 . S
H222 C180 0.948 . S
H223 C198 0.979 . S
H224 C198 0.980 . S
H225 C198 0.983 . S
H226 C197 0.982 . S
H227 C197 0.979 . S
H228 C197 0.977 . S
H229 C199 0.948 . S
H230 C201 0.947 . S
H231 C202 0.948 . S
H232 C208 0.982 . S
H233 C208 0.979 . S
H234 C208 0.977 . S
H235 C209 0.979 . S
H236 C209 0.980 . S
H237 C209 0.983 . S
H238 C182 0.947 . S
C239 C182 1.392 . S
C239 C183 1.419 . S
C239 H221 0.948 . S
C240 C241 1.391 . S
C240 C244 1.391 . S
C240 H282 0.948 . S
C241 C240 1.391 . S
C241 C242 1.391 1_455 S
C242 C241 1.391 1_655 S
C242 H298 0.947 . S
C242 C299 1.392 . S
C243 C244 1.391 . S
C243 C247 1.397 . S
C243 C299 1.419 1_455 S
C244 C240 1.391 . S
C244 C243 1.391 . S
C244 C245 1.399 . S
C245 C244 1.399 . S
C245 C248 1.396 . S
C245 C257 1.453 . S
C245 C258 1.684 . S
H246 C270 0.948 . S
C247 C243 1.397 . S
C247 C248 1.394 . S
C247 C266 1.722 1_455 S
C248 C245 1.396 . S
C248 C247 1.394 . S
C248 C278 1.723 . S
H249 C272 0.947 . S
H250 C273 0.948 1_565 S
H251 C279 0.982 . S
H252 C280 0.979 . S
H253 C280 0.980 . S
H254 C280 0.983 . S
H255 C279 0.979 . S
H256 C279 0.977 . S
C257 C245 1.453 . S
C257 H286 0.982 . S
C257 H287 0.979 . S
C257 H288 0.977 . S
C258 C245 1.684 . S
C258 H283 0.979 . S
C258 H284 0.980 . S
C258 H285 0.983 . S
C259 C260 1.391 . S
C259 C264 1.391 . S
C259 H289 0.948 . S
C260 C259 1.391 . S
C260 C261 1.391 1_565 S
C261 C260 1.391 1_545 S
C261 C262 1.392 1_655 S
C261 H290 0.947 . S
C262 C261 1.392 1_455 S
C262 C263 1.419 1_445 S
C262 H291 0.948 . S
C263 C262 1.419 1_665 S
C263 C264 1.391 . S
C263 C267 1.397 1_655 S
C264 C259 1.391 . S
C264 C263 1.391 . S
C264 C265 1.399 . S
C265 C264 1.399 . S
C265 C266 1.397 . S
C265 C268 1.453 . S
C265 C269 1.684 . S
C266 C247 1.722 1_655 S
C266 C265 1.397 . S
C266 C267 1.394 1_655 S
C267 C263 1.397 1_455 S
C267 C266 1.394 1_455 S
C267 C277 1.723 1_565 S
C268 C265 1.453 . S
C268 H292 0.982 . S
C268 H293 0.979 . S
C268 H294 0.977 . S
C269 C265 1.684 . S
C269 H295 0.979 . S
C269 H296 0.980 . S
C269 H297 0.983 . S
C270 H246 0.948 . S
C270 C271 1.391 . S
C270 C275 1.391 . S
C271 C270 1.391 . S
C271 C272 1.391 . S
C272 H249 0.947 . S
C272 C271 1.391 . S
C272 C273 1.392 . S
C273 H250 0.948 1_545 S
C273 C272 1.392 . S
C273 C274 1.419 . S
C274 C273 1.419 . S
C274 C275 1.391 . S
C274 C278 1.397 1_545 S
C275 C270 1.391 . S
C275 C274 1.391 . S
C275 C276 1.399 . S
C276 C275 1.399 . S
C276 C277 1.396 . S
C276 C279 1.453 . S
C276 C280 1.684 . S
C277 C267 1.723 1_545 S
C277 C276 1.396 . S
C277 C278 1.394 1_545 S
C278 C248 1.723 . S
C278 C274 1.397 1_565 S
C278 C277 1.394 1_565 S
C279 H251 0.982 . S
C279 H255 0.979 . S
C279 H256 0.977 . S
C279 C276 1.453 . S
C280 H252 0.979 . S
C280 H253 0.980 . S
C280 H254 0.983 . S
C280 C276 1.684 . S
H281 C299 0.948 . S
H282 C240 0.948 . S
H283 C258 0.979 . S
H284 C258 0.980 . S
H285 C258 0.983 . S
H286 C257 0.982 . S
H287 C257 0.979 . S
H288 C257 0.977 . S
H289 C259 0.948 . S
H290 C261 0.947 . S
H291 C262 0.948 . S
H292 C268 0.982 . S
H293 C268 0.979 . S
H294 C268 0.977 . S
H295 C269 0.979 . S
H296 C269 0.980 . S
H297 C269 0.983 . S
H298 C242 0.947 . S
C299 C242 1.392 . S
C299 C243 1.419 1_655 S
C299 H281 0.948 . S
C300 C301 1.391 . S
C300 C304 1.391 . S
C300 H342 0.948 . S
C301 C300 1.391 . S
C301 C302 1.391 . S
C302 C301 1.391 . S
C302 H358 0.947 . S
C302 C359 1.392 . S
C303 C304 1.391 . S
C303 C307 1.397 . S
C303 C359 1.419 . S
C304 C300 1.391 . S
C304 C303 1.391 . S
C304 C305 1.399 . S
C305 C304 1.399 . S
C305 C308 1.396 . S
C305 C317 1.453 . S
C305 C318 1.684 . S
H306 C330 0.948 . S
C307 C303 1.397 . S
C307 C308 1.394 . S
C307 C326 1.723 . S
C308 C305 1.396 . S
C308 C307 1.394 . S
C308 C338 1.723 . S
H309 C332 0.947 . S
H310 C333 0.948 . S
H311 C339 0.982 . S
H312 C340 0.979 . S
H313 C340 0.980 . S
H314 C340 0.983 . S
H315 C339 0.979 . S
H316 C339 0.977 . S
C317 C305 1.453 . S
C317 H346 0.982 . S
C317 H347 0.979 . S
C317 H348 0.977 . S
C318 C305 1.684 . S
C318 H343 0.979 . S
C318 H344 0.980 . S
C318 H345 0.983 . S
C319 C320 1.391 . S
C319 C324 1.391 . S
C319 H349 0.948 . S
C320 C319 1.391 . S
C320 C321 1.391 . S
C321 C320 1.391 . S
C321 C322 1.392 . S
C321 H350 0.947 . S
C322 C321 1.392 . S
C322 C323 1.419 . S
C322 H351 0.948 . S
C323 C322 1.419 . S
C323 C324 1.391 . S
C323 C327 1.397 . S
C324 C319 1.391 . S
C324 C323 1.391 . S
C324 C325 1.399 . S
C325 C324 1.399 . S
C325 C326 1.396 . S
C325 C328 1.453 . S
C325 C329 1.684 . S
C326 C307 1.723 . S
C326 C325 1.396 . S
C326 C327 1.394 . S
C327 C323 1.397 . S
C327 C326 1.394 . S
C327 C337 1.723 . S
C328 C325 1.453 . S
C328 H352 0.982 . S
C328 H353 0.979 . S
C328 H354 0.977 . S
C329 C325 1.684 . S
C329 H355 0.979 . S
C329 H356 0.980 . S
C329 H357 0.983 . S
C330 H306 0.948 . S
C330 C331 1.391 . S
C330 C335 1.391 . S
C331 C330 1.391 . S
C331 C332 1.391 . S
C332 H309 0.947 . S
C332 C331 1.391 . S
C332 C333 1.392 . S
C333 H310 0.948 . S
C333 C332 1.392 . S
C333 C334 1.419 . S
C334 C333 1.419 . S
C334 C335 1.391 . S
C334 C338 1.397 . S
C335 C330 1.391 . S
C335 C334 1.391 . S
C335 C336 1.399 . S
C336 C335 1.399 . S
C336 C337 1.396 . S
C336 C339 1.453 . S
C336 C340 1.684 . S
C337 C327 1.723 . S
C337 C336 1.396 . S
C337 C338 1.394 . S
C338 C308 1.723 . S
C338 C334 1.397 . S
C338 C337 1.394 . S
C339 H311 0.982 . S
C339 H315 0.979 . S
C339 H316 0.977 . S
C339 C336 1.453 . S
C340 H312 0.979 . S
C340 H313 0.980 . S
C340 H314 0.983 . S
C340 C336 1.684 . S
H341 C359 0.948 . S
H342 C300 0.948 . S
H343 C318 0.979 . S
H344 C318 0.980 . S
H345 C318 0.983 . S
H346 C317 0.982 . S
H347 C317 0.979 . S
H348 C317 0.977 . S
H349 C319 0.948 . S
H350 C321 0.947 . S
H351 C322 0.948 . S
H352 C328 0.982 . S
H353 C328 0.979 . S
H354 C328 0.977 . S
H355 C329 0.979 . S
H356 C329 0.980 . S
H357 C329 0.983 . S
H358 C302 0.947 . S
C359 C302 1.392 . S
C359 C303 1.419 . S
C359 H341 0.948 . S
C360 C361 1.391 . S
C360 C364 1.391 . S
C360 H402 0.948 . S
C361 C360 1.391 . S
C361 C362 1.391 . S
C362 C361 1.391 . S
C362 H418 0.947 . S
C362 C419 1.392 . S
C363 C364 1.391 . S
C363 C367 1.397 . S
C363 C419 1.419 . S
C364 C360 1.391 . S
C364 C363 1.391 . S
C364 C365 1.399 . S
C365 C364 1.399 . S
C365 C368 1.396 . S
C365 C377 1.453 . S
C365 C378 1.684 . S
H366 C390 0.948 . S
C367 C363 1.397 . S
C367 C368 1.394 . S
C367 C386 1.723 . S
C368 C365 1.396 . S
C368 C367 1.394 . S
C368 C398 1.723 . S
H369 C392 0.947 . S
H370 C393 0.948 . S
H371 C399 0.982 . S
H372 C400 0.979 . S
H373 C400 0.980 . S
H374 C400 0.983 . S
H375 C399 0.979 . S
H376 C399 0.977 . S
C377 C365 1.453 . S
C377 H406 0.982 . S
C377 H407 0.979 . S
C377 H408 0.977 . S
C378 C365 1.684 . S
C378 H403 0.979 . S
C378 H404 0.980 . S
C378 H405 0.983 . S
C379 C380 1.391 . S
C379 C384 1.391 . S
C379 H409 0.948 . S
C380 C379 1.391 . S
C380 C381 1.391 . S
C381 C380 1.391 . S
C381 C382 1.392 . S
C381 H410 0.947 . S
C382 C381 1.392 . S
C382 C383 1.419 . S
C382 H411 0.948 . S
C383 C382 1.419 . S
C383 C384 1.391 . S
C383 C387 1.397 . S
C384 C379 1.391 . S
C384 C383 1.391 . S
C384 C385 1.399 1_455 S
C385 C384 1.399 1_655 S
C385 C386 1.396 . S
C385 C388 1.453 . S
C385 C389 1.684 . S
C386 C367 1.723 . S
C386 C385 1.396 . S
C386 C387 1.394 1_655 S
C387 C383 1.397 . S
C387 C386 1.394 1_455 S
C387 C397 1.723 . S
C388 C385 1.453 . S
C388 H412 0.982 . S
C388 H413 0.979 . S
C388 H414 0.977 . S
C389 C385 1.684 . S
C389 H415 0.979 1_655 S
C389 H416 0.980 . S
C389 H417 0.983 . S
C390 H366 0.948 . S
C390 C391 1.391 1_455 S
C390 C395 1.391 . S
C391 C390 1.391 1_655 S
C391 C392 1.391 . S
C392 H369 0.947 . S
C392 C391 1.391 . S
C392 C393 1.392 . S
C393 H370 0.948 . S
C393 C392 1.392 . S
C393 C394 1.419 . S
C394 C393 1.419 . S
C394 C395 1.391 1_655 S
C394 C398 1.397 . S
C395 C390 1.391 . S
C395 C394 1.391 1_455 S
C395 C396 1.399 . S
C396 C395 1.399 . S
C396 C397 1.396 . S
C396 C399 1.453 . S
C396 C400 1.684 . S
C397 C387 1.723 . S
C397 C396 1.396 . S
C397 C398 1.394 1_455 S
C398 C368 1.723 . S
C398 C394 1.397 . S
C398 C397 1.394 1_655 S
C399 H371 0.982 . S
C399 H375 0.979 . S
C399 H376 0.977 . S
C399 C396 1.453 . S
C400 H372 0.979 . S
C400 H373 0.980 . S
C400 H374 0.983 . S
C400 C396 1.684 . S
H401 C419 0.948 . S
H402 C360 0.948 . S
H403 C378 0.979 . S
H404 C378 0.980 . S
H405 C378 0.983 . S
H406 C377 0.982 . S
H407 C377 0.979 . S
H408 C377 0.977 . S
H409 C379 0.948 . S
H410 C381 0.947 . S
H411 C382 0.948 . S
H412 C388 0.982 . S
H413 C388 0.979 . S
H414 C388 0.977 . S
H415 C389 0.979 1_455 S
H416 C389 0.980 . S
H417 C389 0.983 . S
H418 C362 0.947 . S
C419 C362 1.392 . S
C419 C363 1.419 . S
C419 H401 0.948 . S
C420 C421 1.391 . S
C420 C424 1.391 . S
C420 H462 0.948 . S
C421 C420 1.391 . S
C421 C422 1.391 . S
C422 C421 1.391 . S
C422 H478 0.947 . S
C422 C479 1.392 . S
C423 C424 1.391 . S
C423 C427 1.397 . S
C423 C479 1.419 . S
C424 C420 1.391 . S
C424 C423 1.391 . S
C424 C425 1.399 . S
C425 C424 1.399 . S
C425 C428 1.396 . S
C425 C437 1.453 . S
C425 C438 1.684 . S
H426 C450 0.948 . S
C427 C423 1.397 . S
C427 C428 1.394 . S
C427 C446 1.723 . S
C428 C425 1.396 . S
C428 C427 1.394 . S
C428 C458 1.723 . S
H429 C452 0.947 . S
H430 C453 0.948 . S
H431 C459 0.982 . S
H432 C460 0.979 . S
H433 C460 0.980 . S
H434 C460 0.983 . S
H435 C459 0.979 . S
H436 C459 0.977 . S
C437 C425 1.453 . S
C437 H466 0.982 . S
C437 H467 0.979 . S
C437 H468 0.977 . S
C438 C425 1.684 . S
C438 H463 0.979 . S
C438 H464 0.980 . S
C438 H465 0.983 . S
C439 C440 1.391 . S
C439 C444 1.391 . S
C439 H469 0.948 . S
C440 C439 1.391 . S
C440 C441 1.391 . S
C441 C440 1.391 . S
C441 C442 1.392 . S
C441 H470 0.947 . S
C442 C441 1.392 . S
C442 C443 1.419 . S
C442 H471 0.948 . S
C443 C442 1.419 . S
C443 C444 1.391 . S
C443 C447 1.397 . S
C444 C439 1.391 . S
C444 C443 1.391 . S
C444 C445 1.399 . S
C445 C444 1.399 . S
C445 C446 1.396 . S
C445 C448 1.453 . S
C445 C449 1.684 . S
C446 C427 1.723 . S
C446 C445 1.396 . S
C446 C447 1.394 . S
C447 C443 1.397 . S
C447 C446 1.394 . S
C447 C457 1.723 . S
C448 C445 1.453 . S
C448 H472 0.982 . S
C448 H473 0.979 . S
C448 H474 0.977 . S
C449 C445 1.684 . S
C449 H475 0.979 . S
C449 H476 0.980 . S
C449 H477 0.983 . S
C450 H426 0.948 . S
C450 C451 1.391 . S
C450 C455 1.391 . S
C451 C450 1.391 . S
C451 C452 1.391 . S
C452 H429 0.947 . S
C452 C451 1.391 . S
C452 C453 1.392 . S
C453 H430 0.948 . S
C453 C452 1.392 . S
C453 C454 1.419 . S
C454 C453 1.419 . S
C454 C455 1.391 . S
C454 C458 1.397 . S
C455 C450 1.391 . S
C455 C454 1.391 . S
C455 C456 1.399 . S
C456 C455 1.399 . S
C456 C457 1.396 . S
C456 C459 1.453 . S
C456 C460 1.684 . S
C457 C447 1.723 . S
C457 C456 1.396 . S
C457 C458 1.394 . S
C458 C428 1.723 . S
C458 C454 1.397 . S
C458 C457 1.394 . S
C459 H431 0.982 . S
C459 H435 0.979 . S
C459 H436 0.977 . S
C459 C456 1.453 . S
C460 H432 0.979 . S
C460 H433 0.980 . S
C460 H434 0.983 . S
C460 C456 1.684 . S
H461 C479 0.948 . S
H462 C420 0.948 . S
H463 C438 0.979 . S
H464 C438 0.980 . S
H465 C438 0.983 . S
H466 C437 0.982 . S
H467 C437 0.979 . S
H468 C437 0.977 . S
H469 C439 0.948 . S
H470 C441 0.947 . S
H471 C442 0.948 . S
H472 C448 0.982 . S
H473 C448 0.979 . S
H474 C448 0.977 . S
H475 C449 0.979 . S
H476 C449 0.980 . S
H477 C449 0.983 . S
H478 C422 0.947 . S
C479 C422 1.392 . S
C479 C423 1.419 . S
C479 H461 0.948 . S
C480 C481 1.391 . S
C480 C484 1.391 . S
C480 H522 0.948 . S
C481 C480 1.391 . S
C481 C482 1.391 . S
C482 C481 1.391 . S
C482 H538 0.947 . S
C482 C539 1.392 . S
C483 C484 1.391 . S
C483 C487 1.397 . S
C483 C539 1.419 . S
C484 C480 1.391 . S
C484 C483 1.391 . S
C484 C485 1.399 . S
C485 C484 1.399 . S
C485 C488 1.396 . S
C485 C497 1.453 . S
C485 C498 1.684 . S
H486 C510 0.948 . S
C487 C483 1.397 . S
C487 C488 1.394 . S
C487 C506 1.723 . S
C488 C485 1.396 . S
C488 C487 1.394 . S
C488 C518 1.723 . S
H489 C512 0.947 . S
H490 C513 0.948 . S
H491 C519 0.982 . S
H492 C520 0.979 . S
H493 C520 0.980 . S
H494 C520 0.983 . S
H495 C519 0.979 . S
H496 C519 0.977 . S
C497 C485 1.453 . S
C497 H526 0.982 . S
C497 H527 0.979 . S
C497 H528 0.977 . S
C498 C485 1.684 . S
C498 H523 0.979 . S
C498 H524 0.980 . S
C498 H525 0.983 . S
C499 C500 1.391 . S
C499 C504 1.391 . S
C499 H529 0.948 . S
C500 C499 1.391 . S
C500 C501 1.391 . S
C501 C500 1.391 . S
C501 C502 1.392 . S
C501 H530 0.947 . S
C502 C501 1.392 . S
C502 C503 1.419 . S
C502 H531 0.948 . S
C503 C502 1.419 . S
C503 C504 1.391 . S
C503 C507 1.397 . S
C504 C499 1.391 . S
C504 C503 1.391 . S
C504 C505 1.399 . S
C505 C504 1.399 . S
C505 C506 1.396 . S
C505 C508 1.453 . S
C505 C509 1.684 . S
C506 C487 1.723 . S
C506 C505 1.396 . S
C506 C507 1.394 . S
C507 C503 1.397 . S
C507 C506 1.394 . S
C507 C517 1.723 . S
C508 C505 1.453 . S
C508 H532 0.982 . S
C508 H533 0.979 . S
C508 H534 0.977 . S
C509 C505 1.684 . S
C509 H535 0.979 . S
C509 H536 0.980 . S
C509 H537 0.983 . S
C510 H486 0.948 . S
C510 C511 1.391 . S
C510 C515 1.391 . S
C511 C510 1.391 . S
C511 C512 1.391 . S
C512 H489 0.947 . S
C512 C511 1.391 . S
C512 C513 1.392 . S
C513 H490 0.948 . S
C513 C512 1.392 . S
C513 C514 1.419 . S
C514 C513 1.419 . S
C514 C515 1.391 . S
C514 C518 1.397 . S
C515 C510 1.391 . S
C515 C514 1.391 . S
C515 C516 1.399 . S
C516 C515 1.399 . S
C516 C517 1.396 . S
C516 C519 1.453 . S
C516 C520 1.684 . S
C517 C507 1.723 . S
C517 C516 1.396 . S
C517 C518 1.394 . S
C518 C488 1.723 . S
C518 C514 1.397 . S
C518 C517 1.394 . S
C519 H491 0.982 . S
C519 H495 0.979 . S
C519 H496 0.977 . S
C519 C516 1.453 . S
C520 H492 0.979 . S
C520 H493 0.980 . S
C520 H494 0.983 . S
C520 C516 1.684 . S
H521 C539 0.948 . S
H522 C480 0.948 . S
H523 C498 0.979 . S
H524 C498 0.980 . S
H525 C498 0.983 . S
H526 C497 0.982 . S
H527 C497 0.979 . S
H528 C497 0.977 . S
H529 C499 0.948 . S
H530 C501 0.947 . S
H531 C502 0.948 . S
H532 C508 0.982 . S
H533 C508 0.979 . S
H534 C508 0.977 . S
H535 C509 0.979 . S
H536 C509 0.980 . S
H537 C509 0.983 . S
H538 C482 0.947 . S
C539 C482 1.392 . S
C539 C483 1.419 . S
C539 H521 0.948 . S
C540 C541 1.391 . S
C540 C544 1.391 . S
C540 H582 0.948 . S
C541 C540 1.391 . S
C541 C542 1.391 . S
C542 C541 1.391 . S
C542 H598 0.947 . S
C542 C599 1.392 . S
C543 C544 1.391 . S
C543 C547 1.397 . S
C543 C599 1.419 . S
C544 C540 1.391 . S
C544 C543 1.391 . S
C544 C545 1.399 . S
C545 C544 1.399 . S
C545 C548 1.396 . S
C545 C557 1.453 . S
C545 C558 1.684 . S
H546 C570 0.948 . S
C547 C543 1.397 . S
C547 C548 1.394 . S
C547 C566 1.723 . S
C548 C545 1.396 . S
C548 C547 1.394 . S
C548 C578 1.723 . S
H549 C572 0.947 . S
H550 C573 0.948 . S
H551 C579 0.982 1_565 S
H552 C580 0.979 . S
H553 C580 0.980 . S
H554 C580 0.983 . S
H555 C579 0.979 . S
H556 C579 0.977 . S
C557 C545 1.453 . S
C557 H586 0.982 . S
C557 H587 0.979 . S
C557 H588 0.977 . S
C558 C545 1.684 . S
C558 H583 0.979 . S
C558 H584 0.980 . S
C558 H585 0.983 . S
C559 C560 1.391 . S
C559 C564 1.391 . S
C559 H589 0.948 . S
C560 C559 1.391 . S
C560 C561 1.391 . S
C561 C560 1.391 . S
C561 C562 1.392 . S
C561 H590 0.947 . S
C562 C561 1.392 . S
C562 C563 1.419 . S
C562 H591 0.948 . S
C563 C562 1.419 . S
C563 C564 1.391 . S
C563 C567 1.397 1_545 S
C564 C559 1.391 . S
C564 C563 1.391 . S
C564 C565 1.399 1_545 S
C565 C564 1.399 1_565 S
C565 C566 1.396 . S
C565 C568 1.453 . S
C565 C569 1.684 . S
C566 C547 1.723 . S
C566 C565 1.396 . S
C566 C567 1.394 . S
C567 C563 1.397 1_565 S
C567 C566 1.394 . S
C567 C577 1.723 . S
C568 C565 1.453 . S
C568 H592 0.982 . S
C568 H593 0.979 . S
C568 H594 0.977 . S
C569 C565 1.684 . S
C569 H595 0.979 1_565 S
C569 H596 0.980 . S
C569 H597 0.983 . S
C570 H546 0.948 . S
C570 C571 1.391 1_545 S
C570 C575 1.391 . S
C571 C570 1.391 1_565 S
C571 C572 1.391 . S
C572 H549 0.947 . S
C572 C571 1.391 . S
C572 C573 1.392 . S
C573 H550 0.948 . S
C573 C572 1.392 . S
C573 C574 1.419 . S
C574 C573 1.419 . S
C574 C575 1.391 1_565 S
C574 C578 1.397 . S
C575 C570 1.391 . S
C575 C574 1.391 1_545 S
C575 C576 1.399 . S
C576 C575 1.399 . S
C576 C577 1.396 1_545 S
C576 C579 1.453 . S
C576 C580 1.684 . S
C577 C567 1.723 . S
C577 C576 1.396 1_565 S
C577 C578 1.394 . S
C578 C548 1.723 . S
C578 C574 1.397 . S
C578 C577 1.394 . S
C579 H551 0.982 1_545 S
C579 H555 0.979 . S
C579 H556 0.977 . S
C579 C576 1.453 . S
C580 H552 0.979 . S
C580 H553 0.980 . S
C580 H554 0.983 . S
C580 C576 1.684 . S
H581 C599 0.948 . S
H582 C540 0.948 . S
H583 C558 0.979 . S
H584 C558 0.980 . S
H585 C558 0.983 . S
H586 C557 0.982 . S
H587 C557 0.979 . S
H588 C557 0.977 . S
H589 C559 0.948 . S
H590 C561 0.947 . S
H591 C562 0.948 . S
H592 C568 0.982 . S
H593 C568 0.979 . S
H594 C568 0.977 . S
H595 C569 0.979 1_545 S
H596 C569 0.980 . S
H597 C569 0.983 . S
H598 C542 0.947 . S
C599 C542 1.392 . S
C599 C543 1.419 . S
C599 H581 0.948 . S
C600 C601 1.391 . S
C600 C604 1.391 . S
C600 H642 0.948 . S
C601 C600 1.391 . S
C601 C602 1.391 . S
C602 C601 1.391 . S
C602 H658 0.947 . S
C602 C659 1.392 . S
C603 C604 1.391 . S
C603 C607 1.397 . S
C603 C659 1.419 . S
C604 C600 1.391 . S
C604 C603 1.391 . S
C604 C605 1.399 . S
C605 C604 1.399 . S
C605 C608 1.396 . S
C605 C617 1.453 . S
C605 C618 1.684 . S
H606 C630 0.948 . S
C607 C603 1.397 . S
C607 C608 1.394 . S
C607 C626 1.723 . S
C608 C605 1.396 . S
C608 C607 1.394 . S
C608 C638 1.723 . S
H609 C632 0.947 . S
H610 C633 0.948 . S
H611 C639 0.982 . S
H612 C640 0.979 . S
H613 C640 0.980 . S
H614 C640 0.983 . S
H615 C639 0.979 . S
H616 C639 0.977 . S
C617 C605 1.453 . S
C617 H646 0.982 . S
C617 H647 0.979 . S
C617 H648 0.977 . S
C618 C605 1.684 . S
C618 H643 0.979 . S
C618 H644 0.980 . S
C618 H645 0.983 . S
C619 C620 1.391 . S
C619 C624 1.391 . S
C619 H649 0.948 . S
C620 C619 1.391 . S
C620 C621 1.391 . S
C621 C620 1.391 . S
C621 C622 1.392 . S
C621 H650 0.947 . S
C622 C621 1.392 . S
C622 C623 1.419 . S
C622 H651 0.948 . S
C623 C622 1.419 . S
C623 C624 1.391 . S
C623 C627 1.397 . S
C624 C619 1.391 . S
C624 C623 1.391 . S
C624 C625 1.399 . S
C625 C624 1.399 . S
C625 C626 1.396 . S
C625 C628 1.453 . S
C625 C629 1.684 . S
C626 C607 1.723 . S
C626 C625 1.396 . S
C626 C627 1.394 . S
C627 C623 1.397 . S
C627 C626 1.394 . S
C627 C637 1.723 . S
C628 C625 1.453 . S
C628 H652 0.982 . S
C628 H653 0.979 . S
C628 H654 0.977 . S
C629 C625 1.684 . S
C629 H655 0.979 . S
C629 H656 0.980 . S
C629 H657 0.983 . S
C630 H606 0.948 . S
C630 C631 1.391 . S
C630 C635 1.391 . S
C631 C630 1.391 . S
C631 C632 1.391 . S
C632 H609 0.947 . S
C632 C631 1.391 . S
C632 C633 1.392 . S
C633 H610 0.948 . S
C633 C632 1.392 . S
C633 C634 1.419 . S
C634 C633 1.419 . S
C634 C635 1.391 . S
C634 C638 1.397 . S
C635 C630 1.391 . S
C635 C634 1.391 . S
C635 C636 1.399 . S
C636 C635 1.399 . S
C636 C637 1.396 . S
C636 C639 1.453 . S
C636 C640 1.684 . S
C637 C627 1.723 . S
C637 C636 1.396 . S
C637 C638 1.394 . S
C638 C608 1.723 . S
C638 C634 1.397 . S
C638 C637 1.394 . S
C639 H611 0.982 . S
C639 H615 0.979 . S
C639 H616 0.977 . S
C639 C636 1.453 . S
C640 H612 0.979 . S
C640 H613 0.980 . S
C640 H614 0.983 . S
C640 C636 1.684 . S
H641 C659 0.948 . S
H642 C600 0.948 . S
H643 C618 0.979 . S
H644 C618 0.980 . S
H645 C618 0.983 . S
H646 C617 0.982 . S
H647 C617 0.979 . S
H648 C617 0.977 . S
H649 C619 0.948 . S
H650 C621 0.947 . S
H651 C622 0.948 . S
H652 C628 0.982 . S
H653 C628 0.979 . S
H654 C628 0.977 . S
H655 C629 0.979 . S
H656 C629 0.980 . S
H657 C629 0.983 . S
H658 C602 0.947 . S
C659 C602 1.392 . S
C659 C603 1.419 . S
C659 H641 0.948 . S
C660 C661 1.391 . S
C660 C664 1.391 . S
C660 H702 0.948 . S
C661 C660 1.391 . S
C661 C662 1.391 . S
C662 C661 1.391 . S
C662 H718 0.947 . S
C662 C719 1.392 . S
C663 C664 1.391 . S
C663 C667 1.397 . S
C663 C719 1.419 . S
C664 C660 1.391 . S
C664 C663 1.391 . S
C664 C665 1.399 . S
C665 C664 1.399 . S
C665 C668 1.396 . S
C665 C677 1.453 . S
C665 C678 1.684 . S
H666 C690 0.948 . S
C667 C663 1.397 . S
C667 C668 1.394 . S
C667 C686 1.723 . S
C668 C665 1.396 . S
C668 C667 1.394 . S
C668 C698 1.723 . S
H669 C692 0.947 . S
H670 C693 0.948 . S
H671 C699 0.982 . S
H672 C700 0.979 . S
H673 C700 0.980 . S
H674 C700 0.983 . S
H675 C699 0.979 . S
H676 C699 0.977 . S
C677 C665 1.453 . S
C677 H706 0.982 . S
C677 H707 0.979 . S
C677 H708 0.977 . S
C678 C665 1.684 . S
C678 H703 0.979 . S
C678 H704 0.980 . S
C678 H705 0.983 . S
C679 C680 1.391 . S
C679 C684 1.391 . S
C679 H709 0.948 . S
C680 C679 1.391 . S
C680 C681 1.391 . S
C681 C680 1.391 . S
C681 C682 1.392 . S
C681 H710 0.947 . S
C682 C681 1.392 . S
C682 C683 1.419 . S
C682 H711 0.948 . S
C683 C682 1.419 . S
C683 C684 1.391 . S
C683 C687 1.397 . S
C684 C679 1.391 . S
C684 C683 1.391 . S
C684 C685 1.399 . S
C685 C684 1.399 . S
C685 C686 1.396 . S
C685 C688 1.453 . S
C685 C689 1.684 . S
C686 C667 1.723 . S
C686 C685 1.396 . S
C686 C687 1.394 . S
C687 C683 1.397 . S
C687 C686 1.394 . S
C687 C697 1.723 . S
C688 C685 1.453 . S
C688 H712 0.982 . S
C688 H713 0.979 . S
C688 H714 0.977 . S
C689 C685 1.684 . S
C689 H715 0.979 . S
C689 H716 0.980 . S
C689 H717 0.983 . S
C690 H666 0.948 . S
C690 C691 1.391 . S
C690 C695 1.391 . S
C691 C690 1.391 . S
C691 C692 1.391 . S
C692 H669 0.947 . S
C692 C691 1.391 . S
C692 C693 1.392 . S
C693 H670 0.948 . S
C693 C692 1.392 . S
C693 C694 1.419 . S
C694 C693 1.419 . S
C694 C695 1.391 . S
C694 C698 1.397 . S
C695 C690 1.391 . S
C695 C694 1.391 . S
C695 C696 1.399 . S
C696 C695 1.399 . S
C696 C697 1.396 . S
C696 C699 1.453 . S
C696 C700 1.684 . S
C697 C687 1.723 . S
C697 C696 1.396 . S
C697 C698 1.394 . S
C698 C668 1.723 . S
C698 C694 1.397 . S
C698 C697 1.394 . S
C699 H671 0.982 . S
C699 H675 0.979 . S
C699 H676 0.977 . S
C699 C696 1.453 . S
C700 H672 0.979 . S
C700 H673 0.980 . S
C700 H674 0.983 . S
C700 C696 1.684 . S
H701 C719 0.948 . S
H702 C660 0.948 . S
H703 C678 0.979 . S
H704 C678 0.980 . S
H705 C678 0.983 . S
H706 C677 0.982 . S
H707 C677 0.979 . S
H708 C677 0.977 . S
H709 C679 0.948 . S
H710 C681 0.947 . S
H711 C682 0.948 . S
H712 C688 0.982 . S
H713 C688 0.979 . S
H714 C688 0.977 . S
H715 C689 0.979 . S
H716 C689 0.980 . S
H717 C689 0.983 . S
H718 C662 0.947 . S
C719 C662 1.392 . S
C719 C663 1.419 . S
C719 H701 0.948 . S
C720 C721 1.391 . S
C720 C724 1.391 . S
C720 H762 0.948 . S
C721 C720 1.391 . S
C721 C722 1.391 . S
C722 C721 1.391 . S
C722 H778 0.947 . S
C722 C779 1.392 . S
C723 C724 1.391 . S
C723 C727 1.397 . S
C723 C779 1.419 . S
C724 C720 1.391 . S
C724 C723 1.391 . S
C724 C725 1.399 . S
C725 C724 1.399 . S
C725 C728 1.396 . S
C725 C737 1.453 . S
C725 C738 1.684 . S
H726 C750 0.948 . S
C727 C723 1.397 . S
C727 C728 1.394 . S
C727 C746 1.723 . S
C728 C725 1.396 . S
C728 C727 1.394 . S
C728 C758 1.723 . S
H729 C752 0.947 . S
H730 C753 0.948 . S
H731 C759 0.982 . S
H732 C760 0.979 . S
H733 C760 0.980 . S
H734 C760 0.983 . S
H735 C759 0.979 . S
H736 C759 0.977 . S
C737 C725 1.453 . S
C737 H766 0.982 . S
C737 H767 0.979 . S
C737 H768 0.977 . S
C738 C725 1.684 . S
C738 H763 0.979 . S
C738 H764 0.980 . S
C738 H765 0.983 . S
C739 C740 1.391 . S
C739 C744 1.391 . S
C739 H769 0.948 . S
C740 C739 1.391 . S
C740 C741 1.391 . S
C741 C740 1.391 . S
C741 C742 1.392 . S
C741 H770 0.947 . S
C742 C741 1.392 . S
C742 C743 1.419 . S
C742 H771 0.948 . S
C743 C742 1.419 . S
C743 C744 1.391 . S
C743 C747 1.397 . S
C744 C739 1.391 . S
C744 C743 1.391 . S
C744 C745 1.399 . S
C745 C744 1.399 . S
C745 C746 1.396 . S
C745 C748 1.453 . S
C745 C749 1.684 . S
C746 C727 1.723 . S
C746 C745 1.396 . S
C746 C747 1.394 . S
C747 C743 1.397 . S
C747 C746 1.394 . S
C747 C757 1.723 . S
C748 C745 1.453 . S
C748 H772 0.982 . S
C748 H773 0.979 . S
C748 H774 0.977 . S
C749 C745 1.684 . S
C749 H775 0.979 . S
C749 H776 0.980 . S
C749 H777 0.983 . S
C750 H726 0.948 . S
C750 C751 1.391 . S
C750 C755 1.391 . S
C751 C750 1.391 . S
C751 C752 1.391 . S
C752 H729 0.947 . S
C752 C751 1.391 . S
C752 C753 1.392 . S
C753 H730 0.948 . S
C753 C752 1.392 . S
C753 C754 1.419 . S
C754 C753 1.419 . S
C754 C755 1.391 . S
C754 C758 1.397 . S
C755 C750 1.391 . S
C755 C754 1.391 . S
C755 C756 1.399 . S
C756 C755 1.399 . S
C756 C757 1.396 . S
C756 C759 1.453 . S
C756 C760 1.684 . S
C757 C747 1.723 . S
C757 C756 1.396 . S
C757 C758 1.394 . S
C758 C728 1.723 . S
C758 C754 1.397 . S
C758 C757 1.394 . S
C759 H731 0.982 . S
C759 H735 0.979 . S
C759 H736 0.977 . S
C759 C756 1.453 . S
C760 H732 0.979 . S
C760 H733 0.980 . S
C760 H734 0.983 . S
C760 C756 1.684 . S
H761 C779 0.948 . S
H762 C720 0.948 . S
H763 C738 0.979 . S
H764 C738 0.980 . S
H765 C738 0.983 . S
H766 C737 0.982 . S
H767 C737 0.979 . S
H768 C737 0.977 . S
H769 C739 0.948 . S
H770 C741 0.947 . S
H771 C742 0.948 . S
H772 C748 0.982 . S
H773 C748 0.979 . S
H774 C748 0.977 . S
H775 C749 0.979 . S
H776 C749 0.980 . S
H777 C749 0.983 . S
H778 C722 0.947 . S
C779 C722 1.392 . S
C779 C723 1.419 . S
C779 H761 0.948 . S
C780 C781 1.391 . S
C780 C784 1.391 . S
C780 H822 0.948 . S
C781 C780 1.391 . S
C781 C782 1.391 . S
C782 C781 1.391 . S
C782 H838 0.947 . S
C782 C839 1.392 . S
C783 C784 1.391 . S
C783 C787 1.397 1_554 S
C783 C839 1.419 . S
C784 C780 1.391 . S
C784 C783 1.391 . S
C784 C785 1.399 . S
C785 C784 1.399 . S
C785 C788 1.396 . S
C785 C797 1.453 . S
C785 C798 1.684 . S
H786 C810 0.948 . S
C787 C783 1.397 1_556 S
C787 C788 1.394 1_556 S
C787 C806 1.723 . S
C788 C785 1.396 . S
C788 C787 1.394 1_554 S
C788 C818 1.723 1_554 S
H789 C812 0.947 . S
H790 C813 0.948 . S
H791 C819 0.982 . S
H792 C820 0.979 . S
H793 C820 0.980 . S
H794 C820 0.983 . S
H795 C819 0.979 . S
H796 C819 0.977 . S
C797 C785 1.453 . S
C797 H826 0.982 . S
C797 H827 0.979 . S
C797 H828 0.977 . S
C798 C785 1.684 . S
C798 H823 0.979 . S
C798 H824 0.980 . S
C798 H825 0.983 . S
C799 C800 1.391 . S
C799 C804 1.391 . S
C799 H829 0.948 . S
C800 C799 1.391 . S
C800 C801 1.391 . S
C801 C800 1.391 . S
C801 C802 1.392 . S
C801 H830 0.947 . S
C802 C801 1.392 . S
C802 C803 1.419 . S
C802 H831 0.948 . S
C803 C802 1.419 . S
C803 C804 1.391 . S
C803 C807 1.397 . S
C804 C799 1.391 . S
C804 C803 1.391 . S
C804 C805 1.399 . S
C805 C804 1.399 . S
C805 C806 1.396 . S
C805 C808 1.453 . S
C805 C809 1.684 . S
C806 C787 1.723 . S
C806 C805 1.396 . S
C806 C807 1.394 . S
C807 C803 1.397 . S
C807 C806 1.394 . S
C807 C817 1.723 . S
C808 C805 1.453 . S
C808 H832 0.982 . S
C808 H833 0.979 . S
C808 H834 0.977 . S
C809 C805 1.684 . S
C809 H835 0.979 . S
C809 H836 0.980 . S
C809 H837 0.983 . S
C810 H786 0.948 . S
C810 C811 1.391 . S
C810 C815 1.391 . S
C811 C810 1.391 . S
C811 C812 1.391 1_556 S
C812 H789 0.947 . S
C812 C811 1.391 1_554 S
C812 C813 1.392 . S
C813 H790 0.948 . S
C813 C812 1.392 . S
C813 C814 1.419 1_554 S
C814 C813 1.419 1_556 S
C814 C815 1.391 . S
C814 C818 1.397 . S
C815 C810 1.391 . S
C815 C814 1.391 . S
C815 C816 1.399 . S
C816 C815 1.399 . S
C816 C817 1.396 . S
C816 C819 1.453 . S
C816 C820 1.684 . S
C817 C807 1.723 . S
C817 C816 1.396 . S
C817 C818 1.394 . S
C818 C788 1.723 1_556 S
C818 C814 1.397 . S
C818 C817 1.394 . S
C819 H791 0.982 . S
C819 H795 0.979 . S
C819 H796 0.977 . S
C819 C816 1.453 . S
C820 H792 0.979 . S
C820 H793 0.980 . S
C820 H794 0.983 . S
C820 C816 1.684 . S
H821 C839 0.948 1_556 S
H822 C780 0.948 . S
H823 C798 0.979 . S
H824 C798 0.980 . S
H825 C798 0.983 . S
H826 C797 0.982 . S
H827 C797 0.979 . S
H828 C797 0.977 . S
H829 C799 0.948 . S
H830 C801 0.947 . S
H831 C802 0.948 . S
H832 C808 0.982 . S
H833 C808 0.979 . S
H834 C808 0.977 . S
H835 C809 0.979 . S
H836 C809 0.980 . S
H837 C809 0.983 . S
H838 C782 0.947 . S
C839 C782 1.392 . S
C839 C783 1.419 . S
C839 H821 0.948 1_554 S
C840 C841 1.391 . S
C840 C844 1.391 . S
C840 H882 0.948 . S
C841 C840 1.391 . S
C841 C842 1.391 . S
C842 C841 1.391 . S
C842 H898 0.947 . S
C842 C899 1.392 . S
C843 C844 1.391 . S
C843 C847 1.397 . S
C843 C899 1.419 . S
C844 C840 1.391 . S
C844 C843 1.391 . S
C844 C845 1.399 . S
C845 C844 1.399 . S
C845 C848 1.396 . S
C845 C857 1.453 . S
C845 C858 1.684 . S
H846 C870 0.948 . S
C847 C843 1.397 . S
C847 C848 1.394 . S
C847 C866 1.723 . S
C848 C845 1.396 . S
C848 C847 1.394 . S
C848 C878 1.723 . S
H849 C872 0.947 . S
H850 C873 0.948 . S
H851 C879 0.982 . S
H852 C880 0.979 . S
H853 C880 0.980 . S
H854 C880 0.983 . S
H855 C879 0.979 . S
H856 C879 0.977 . S
C857 C845 1.453 . S
C857 H886 0.982 . S
C857 H887 0.979 . S
C857 H888 0.977 . S
C858 C845 1.684 . S
C858 H883 0.979 . S
C858 H884 0.980 . S
C858 H885 0.983 . S
C859 C860 1.391 . S
C859 C864 1.391 . S
C859 H889 0.948 . S
C860 C859 1.391 . S
C860 C861 1.391 . S
C861 C860 1.391 . S
C861 C862 1.392 . S
C861 H890 0.947 . S
C862 C861 1.392 . S
C862 C863 1.419 . S
C862 H891 0.948 . S
C863 C862 1.419 . S
C863 C864 1.391 . S
C863 C867 1.397 . S
C864 C859 1.391 . S
C864 C863 1.391 . S
C864 C865 1.399 . S
C865 C864 1.399 . S
C865 C866 1.396 . S
C865 C868 1.453 . S
C865 C869 1.684 . S
C866 C847 1.723 . S
C866 C865 1.396 . S
C866 C867 1.394 . S
C867 C863 1.397 . S
C867 C866 1.394 . S
C867 C877 1.723 . S
C868 C865 1.453 . S
C868 H892 0.982 . S
C868 H893 0.979 . S
C868 H894 0.977 . S
C869 C865 1.684 . S
C869 H895 0.979 . S
C869 H896 0.980 . S
C869 H897 0.983 . S
C870 H846 0.948 . S
C870 C871 1.391 . S
C870 C875 1.391 . S
C871 C870 1.391 . S
C871 C872 1.391 . S
C872 H849 0.947 . S
C872 C871 1.391 . S
C872 C873 1.392 . S
C873 H850 0.948 . S
C873 C872 1.392 . S
C873 C874 1.419 . S
C874 C873 1.419 . S
C874 C875 1.391 . S
C874 C878 1.397 . S
C875 C870 1.391 . S
C875 C874 1.391 . S
C875 C876 1.399 . S
C876 C875 1.399 . S
C876 C877 1.396 . S
C876 C879 1.453 . S
C876 C880 1.684 . S
C877 C867 1.723 . S
C877 C876 1.396 . S
C877 C878 1.394 . S
C878 C848 1.723 . S
C878 C874 1.397 . S
C878 C877 1.394 . S
C879 H851 0.982 . S
C879 H855 0.979 . S
C879 H856 0.977 . S
C879 C876 1.453 . S
C880 H852 0.979 . S
C880 H853 0.980 . S
C880 H854 0.983 . S
C880 C876 1.684 . S
H881 C899 0.948 . S
H882 C840 0.948 . S
H883 C858 0.979 . S
H884 C858 0.980 . S
H885 C858 0.983 . S
H886 C857 0.982 . S
H887 C857 0.979 . S
H888 C857 0.977 . S
H889 C859 0.948 . S
H890 C861 0.947 . S
H891 C862 0.948 . S
H892 C868 0.982 . S
H893 C868 0.979 . S
H894 C868 0.977 . S
H895 C869 0.979 . S
H896 C869 0.980 . S
H897 C869 0.983 . S
H898 C842 0.947 . S
C899 C842 1.392 . S
C899 C843 1.419 . S
C899 H881 0.948 . S
C900 C901 1.391 1_554 S
C900 C904 1.391 . S
C900 H942 0.948 . S
C901 C900 1.391 1_556 S
C901 C902 1.391 . S
C902 C901 1.391 . S
C902 H958 0.947 . S
C902 C959 1.392 . S
C903 C904 1.391 1_556 S
C903 C907 1.397 1_565 S
C903 C959 1.419 . S
C904 C900 1.391 . S
C904 C903 1.391 1_554 S
C904 C905 1.399 1_565 S
C905 C904 1.399 1_545 S
C905 C908 1.396 . S
C905 C917 1.453 . S
C905 C918 1.684 . S
H906 C930 0.948 . S
C907 C903 1.397 1_545 S
C907 C908 1.394 1_556 S
C907 C926 1.723 . S
C908 C905 1.396 . S
C908 C907 1.394 1_554 S
C908 C938 1.723 . S
H909 C932 0.947 . S
H910 C933 0.948 . S
H911 C939 0.982 . S
H912 C940 0.979 1_554 S
H913 C940 0.980 . S
H914 C940 0.984 . S
H915 C939 0.979 . S
H916 C939 0.977 . S
C917 C905 1.453 . S
C917 H946 0.982 . S
C917 H947 0.979 . S
C917 H948 0.977 . S
C918 C905 1.684 . S
C918 H943 0.979 . S
C918 H944 0.980 . S
C918 H945 0.983 . S
C919 C920 1.391 1_565 S
C919 C924 1.386 1_565 S
C919 H949 0.948 . S
C920 C919 1.391 1_545 S
C920 C921 1.391 . S
C921 C920 1.391 . S
C921 C922 1.392 . S
C921 H950 0.947 . S
C922 C921 1.392 . S
C922 C923 1.419 . S
C922 H951 0.948 . S
C923 C922 1.419 . S
C923 C924 1.412 . S
C923 C927 1.397 . S
C924 C919 1.386 1_545 S
C924 C923 1.412 . S
C924 C925 1.389 1_545 S
C925 C924 1.389 1_565 S
C925 C926 1.396 1_565 S
C925 C928 1.453 . S
C925 C929 1.684 . S
C926 C907 1.723 . S
C926 C925 1.396 1_545 S
C926 C927 1.394 . S
C927 C923 1.397 . S
C927 C926 1.394 . S
C927 C937 1.723 . S
C928 C925 1.453 . S
C928 H952 0.982 1_565 S
C928 H953 0.979 . S
C928 H954 0.977 . S
C929 C925 1.684 . S
C929 H955 0.979 . S
C929 H956 0.980 . S
C929 H957 0.983 . S
C930 H906 0.948 . S
C930 C931 1.391 . S
C930 C935 1.391 . S
C931 C930 1.391 . S
C931 C932 1.391 . S
C932 H909 0.947 . S
C932 C931 1.391 . S
C932 C933 1.392 . S
C933 H910 0.948 . S
C933 C932 1.392 . S
C933 C934 1.419 . S
C934 C933 1.419 . S
C934 C935 1.391 . S
C934 C938 1.397 . S
C935 C930 1.391 . S
C935 C934 1.391 . S
C935 C936 1.399 1_554 S
C936 C935 1.399 1_556 S
C936 C937 1.396 . S
C936 C939 1.453 . S
C936 C940 1.684 . S
C937 C927 1.723 . S
C937 C936 1.396 . S
C937 C938 1.394 1_556 S
C938 C908 1.723 . S
C938 C934 1.397 . S
C938 C937 1.394 1_554 S
C939 H911 0.982 . S
C939 H915 0.979 . S
C939 H916 0.977 . S
C939 C936 1.453 . S
C940 H912 0.979 1_556 S
C940 H913 0.980 . S
C940 H914 0.984 . S
C940 C936 1.684 . S
H941 C959 0.948 . S
H942 C900 0.948 . S
H943 C918 0.979 . S
H944 C918 0.980 . S
H945 C918 0.983 . S
H946 C917 0.982 . S
H947 C917 0.979 . S
H948 C917 0.977 . S
H949 C919 0.948 . S
H950 C921 0.947 . S
H951 C922 0.948 . S
H952 C928 0.982 1_545 S
H953 C928 0.979 . S
H954 C928 0.977 . S
H955 C929 0.979 . S
H956 C929 0.980 . S
H957 C929 0.983 . S
H958 C902 0.947 . S
C959 C902 1.392 . S
C959 C903 1.419 . S
C959 H941 0.948 . S
Mn960 O965 2.095 . S
Mn960 O975 2.162 . S
Mn960 O976 2.297 . S
Mn960 O984 2.385 1_554 S
Mn960 O985 2.209 1_554 S
Mn960 O986 2.094 . S
Mn961 O966 2.121 . S
Mn961 N968 2.257 . S
Mn961 N977 2.282 . S
Mn961 O985 2.215 . S
Mn961 O987 2.117 . S
C962 O984 1.234 . S
C962 O985 1.283 . S
C963 O975 1.281 . S
C963 O976 1.236 . S
C964 O986 1.240 . S
C964 O987 1.264 1_554 S
O965 Mn960 2.095 . S
O965 C974 1.250 1_554 S
O966 Mn961 2.121 . S
O966 C974 1.258 . S
C967 N968 1.326 . S
C967 C971 1.460 . S
C967 H973 0.929 . S
N968 Mn961 2.257 . S
N968 C967 1.326 . S
N968 C972 1.362 . S
C969 C970 1.258 . S
C969 C972 1.431 . S
C969 C989 1.449 . S
C970 C969 1.258 . S
C970 C971 1.477 . S
C970 H990 0.931 . S
C971 C967 1.460 . S
C971 C970 1.477 . S
C971 H991 0.930 . S
C972 N968 1.362 . S
C972 C969 1.431 . S
C972 C982 1.476 . S
H973 C967 0.929 . S
C974 O965 1.250 1_556 S
C974 O966 1.258 . S
O975 Mn960 2.162 . S
O975 C963 1.281 . S
O976 Mn960 2.297 . S
O976 C963 1.236 . S
N977 Mn961 2.282 . S
N977 C978 1.328 . S
N977 C982 1.318 . S
C978 N977 1.328 . S
C978 C979 1.457 . S
C978 H983 0.929 . S
C979 C978 1.457 . S
C979 C980 1.291 . S
C979 H992 0.931 . S
C980 C979 1.291 . S
C980 C981 1.373 . S
C980 H993 0.929 . S
C981 C980 1.373 . S
C981 C982 1.396 . S
C981 C988 1.403 . S
C982 C972 1.476 . S
C982 N977 1.318 . S
C982 C981 1.396 . S
H983 C978 0.929 . S
O984 Mn960 2.385 1_556 S
O984 C962 1.234 . S
O985 Mn960 2.209 1_556 S
O985 Mn961 2.215 . S
O985 C962 1.283 . S
O986 Mn960 2.094 . S
O986 C964 1.240 . S
O987 Mn961 2.117 . S
O987 C964 1.264 1_556 S
C988 C981 1.403 . S
C988 C989 1.399 . S
C988 H994 0.929 . S
C989 C969 1.449 . S
C989 C988 1.399 . S
C989 H995 0.930 . S
H990 C970 0.931 . S
H991 C971 0.930 . S
H992 C979 0.931 . S
H993 C980 0.929 . S
H994 C988 0.929 . S
H995 C989 0.930 . S
Mn996 O1001 2.095 . S
Mn996 O1011 2.162 . S
Mn996 O1012 2.297 . S
Mn996 O1020 2.385 . S
Mn996 O1021 2.209 . S
Mn996 O1022 2.094 . S
Mn997 O1002 2.121 . S
Mn997 N1004 2.257 . S
Mn997 N1013 2.282 . S
Mn997 O1021 2.215 . S
Mn997 O1023 2.117 . S
C998 O1020 1.234 . S
C998 O1021 1.283 . S
C999 O1011 1.281 . S
C999 O1012 1.236 . S
C1000 O1022 1.240 . S
C1000 O1023 1.264 . S
O1001 Mn996 2.095 . S
O1001 C1010 1.250 . S
O1002 Mn997 2.121 . S
O1002 C1010 1.258 . S
C1003 N1004 1.326 . S
C1003 C1007 1.460 . S
C1003 H1009 0.929 . S
N1004 Mn997 2.257 . S
N1004 C1003 1.326 . S
N1004 C1008 1.362 . S
C1005 C1006 1.258 . S
C1005 C1008 1.431 . S
C1005 C1025 1.449 . S
C1006 C1005 1.258 . S
C1006 C1007 1.477 . S
C1006 H1026 0.931 . S
C1007 C1003 1.460 . S
C1007 C1006 1.477 . S
C1007 H1027 0.930 . S
C1008 N1004 1.362 . S
C1008 C1005 1.431 . S
C1008 C1018 1.476 . S
H1009 C1003 0.929 . S
C1010 O1001 1.250 . S
C1010 O1002 1.258 . S
O1011 Mn996 2.162 . S
O1011 C999 1.281 . S
O1012 Mn996 2.297 . S
O1012 C999 1.236 . S
N1013 Mn997 2.282 . S
N1013 C1014 1.328 . S
N1013 C1018 1.318 . S
C1014 N1013 1.328 . S
C1014 C1015 1.457 . S
C1014 H1019 0.929 . S
C1015 C1014 1.457 . S
C1015 C1016 1.291 . S
C1015 H1028 0.931 . S
C1016 C1015 1.291 . S
C1016 C1017 1.373 . S
C1016 H1029 0.929 . S
C1017 C1016 1.373 . S
C1017 C1018 1.396 . S
C1017 C1024 1.403 . S
C1018 C1008 1.476 . S
C1018 N1013 1.318 . S
C1018 C1017 1.396 . S
H1019 C1014 0.929 . S
O1020 Mn996 2.385 . S
O1020 C998 1.234 . S
O1021 Mn996 2.209 . S
O1021 Mn997 2.215 . S
O1021 C998 1.283 . S
O1022 Mn996 2.094 . S
O1022 C1000 1.240 . S
O1023 Mn997 2.117 . S
O1023 C1000 1.264 . S
C1024 C1017 1.403 . S
C1024 C1025 1.399 . S
C1024 H1030 0.929 . S
C1025 C1005 1.449 . S
C1025 C1024 1.399 . S
C1025 H1031 0.930 . S
H1026 C1006 0.931 . S
H1027 C1007 0.930 . S
H1028 C1015 0.931 . S
H1029 C1016 0.929 . S
H1030 C1024 0.929 . S
H1031 C1025 0.930 . S
Mn1032 O1037 2.095 1_554 S
Mn1032 O1047 2.162 . S
Mn1032 O1048 2.297 1_554 S
Mn1032 O1056 2.385 . S
Mn1032 O1057 2.209 1_554 S
Mn1032 O1058 2.094 . S
Mn1033 O1038 2.121 . S
Mn1033 N1040 2.257 . S
Mn1033 N1049 2.282 . S
Mn1033 O1057 2.215 . S
Mn1033 O1059 2.117 1_556 S
C1034 O1056 1.238 . S
C1034 O1057 1.280 1_554 S
C1035 O1047 1.281 . S
C1035 O1048 1.236 1_554 S
C1036 O1058 1.240 . S
C1036 O1059 1.264 . S
O1037 Mn1032 2.095 1_556 S
O1037 C1046 1.250 . S
O1038 Mn1033 2.121 . S
O1038 C1046 1.258 . S
C1039 N1040 1.326 . S
C1039 C1043 1.460 . S
C1039 H1045 0.929 . S
N1040 Mn1033 2.257 . S
N1040 C1039 1.326 . S
N1040 C1044 1.362 . S
C1041 C1042 1.258 . S
C1041 C1044 1.431 . S
C1041 C1061 1.449 . S
C1042 C1041 1.258 . S
C1042 C1043 1.477 . S
C1042 H1062 0.931 . S
C1043 C1039 1.460 . S
C1043 C1042 1.477 . S
C1043 H1063 0.930 . S
C1044 N1040 1.362 . S
C1044 C1041 1.431 . S
C1044 C1054 1.476 . S
H1045 C1039 0.929 . S
C1046 O1037 1.250 . S
C1046 O1038 1.258 . S
O1047 Mn1032 2.162 . S
O1047 C1035 1.281 . S
O1048 Mn1032 2.297 1_556 S
O1048 C1035 1.236 1_556 S
N1049 Mn1033 2.282 . S
N1049 C1050 1.328 1_556 S
N1049 C1054 1.318 . S
C1050 N1049 1.328 1_554 S
C1050 C1051 1.457 . S
C1050 H1055 0.929 . S
C1051 C1050 1.457 . S
C1051 C1052 1.291 . S
C1051 H1064 0.931 . S
C1052 C1051 1.291 . S
C1052 C1053 1.373 1_554 S
C1052 H1065 0.929 . S
C1053 C1052 1.373 1_556 S
C1053 C1054 1.396 . S
C1053 C1060 1.403 . S
C1054 C1044 1.476 . S
C1054 N1049 1.318 . S
C1054 C1053 1.396 . S
H1055 C1050 0.929 . S
O1056 Mn1032 2.385 . S
O1056 C1034 1.238 . S
O1057 Mn1032 2.209 1_556 S
O1057 Mn1033 2.215 . S
O1057 C1034 1.280 1_556 S
O1058 Mn1032 2.094 . S
O1058 C1036 1.240 . S
O1059 Mn1033 2.117 1_554 S
O1059 C1036 1.264 . S
C1060 C1053 1.403 . S
C1060 C1061 1.399 . S
C1060 H1066 0.929 . S
C1061 C1041 1.449 . S
C1061 C1060 1.399 . S
C1061 H1067 0.930 . S
H1062 C1042 0.931 . S
H1063 C1043 0.930 . S
H1064 C1051 0.931 . S
H1065 C1052 0.929 . S
H1066 C1060 0.929 . S
H1067 C1061 0.930 . S
Mn1068 O1073 2.095 . S
Mn1068 O1083 2.162 . S
Mn1068 O1084 2.297 . S
Mn1068 O1092 2.385 1_545 S
Mn1068 O1093 2.209 1_545 S
Mn1068 O1094 2.094 . S
Mn1069 O1074 2.121 . S
Mn1069 N1076 2.257 . S
Mn1069 N1085 2.282 . S
Mn1069 O1093 2.215 . S
Mn1069 O1095 2.117 . S
C1070 O1092 1.234 . S
C1070 O1093 1.283 . S
C1071 O1083 1.281 . S
C1071 O1084 1.236 . S
C1072 O1094 1.240 . S
C1072 O1095 1.264 1_545 S
O1073 Mn1068 2.095 . S
O1073 C1082 1.250 1_545 S
O1074 Mn1069 2.121 . S
O1074 C1082 1.258 . S
C1075 N1076 1.326 . S
C1075 C1079 1.460 . S
C1075 H1081 0.929 . S
N1076 Mn1069 2.257 . S
N1076 C1075 1.326 . S
N1076 C1080 1.362 . S
C1077 C1078 1.258 . S
C1077 C1080 1.431 . S
C1077 C1097 1.449 . S
C1078 C1077 1.258 . S
C1078 C1079 1.477 . S
C1078 H1098 0.931 . S
C1079 C1075 1.460 . S
C1079 C1078 1.477 . S
C1079 H1099 0.930 . S
C1080 N1076 1.362 . S
C1080 C1077 1.431 . S
C1080 C1090 1.476 . S
H1081 C1075 0.929 . S
C1082 O1073 1.250 1_565 S
C1082 O1074 1.258 . S
O1083 Mn1068 2.162 . S
O1083 C1071 1.281 . S
O1084 Mn1068 2.297 . S
O1084 C1071 1.236 . S
N1085 Mn1069 2.282 . S
N1085 C1086 1.328 . S
N1085 C1090 1.318 . S
C1086 N1085 1.328 . S
C1086 C1087 1.457 . S
C1086 H1091 0.929 . S
C1087 C1086 1.457 . S
C1087 C1088 1.291 . S
C1087 H1100 0.931 . S
C1088 C1087 1.291 . S
C1088 C1089 1.373 . S
C1088 H1101 0.929 . S
C1089 C1088 1.373 . S
C1089 C1090 1.396 . S
C1089 C1096 1.403 . S
C1090 C1080 1.476 . S
C1090 N1085 1.318 . S
C1090 C1089 1.396 . S
H1091 C1086 0.929 . S
O1092 Mn1068 2.385 1_565 S
O1092 C1070 1.234 . S
O1093 Mn1068 2.209 1_565 S
O1093 Mn1069 2.215 . S
O1093 C1070 1.283 . S
O1094 Mn1068 2.094 . S
O1094 C1072 1.240 . S
O1095 Mn1069 2.117 . S
O1095 C1072 1.264 1_565 S
C1096 C1089 1.403 . S
C1096 C1097 1.399 . S
C1096 H1102 0.929 . S
C1097 C1077 1.449 . S
C1097 C1096 1.399 . S
C1097 H1103 0.930 . S
H1098 C1078 0.931 . S
H1099 C1079 0.930 . S
H1100 C1087 0.931 . S
H1101 C1088 0.929 . S
H1102 C1096 0.929 . S
H1103 C1097 0.930 . S
Mn1104 O1109 2.095 . S
Mn1104 O1119 2.162 . S
Mn1104 O1120 2.297 . S
Mn1104 O1128 2.385 . S
Mn1104 O1129 2.209 . S
Mn1104 O1130 2.094 . S
Mn1105 O1110 2.121 . S
Mn1105 N1112 2.257 . S
Mn1105 N1121 2.282 . S
Mn1105 O1129 2.215 . S
Mn1105 O1131 2.117 . S
C1106 O1128 1.234 . S
C1106 O1129 1.283 . S
C1107 O1119 1.281 . S
C1107 O1120 1.236 . S
C1108 O1130 1.240 . S
C1108 O1131 1.264 . S
O1109 Mn1104 2.095 . S
O1109 C1118 1.250 . S
O1110 Mn1105 2.121 . S
O1110 C1118 1.258 . S
C1111 N1112 1.326 . S
C1111 C1115 1.460 . S
C1111 H1117 0.929 . S
N1112 Mn1105 2.257 . S
N1112 C1111 1.326 . S
N1112 C1116 1.362 . S
C1113 C1114 1.258 . S
C1113 C1116 1.431 . S
C1113 C1133 1.449 . S
C1114 C1113 1.258 . S
C1114 C1115 1.477 . S
C1114 H1134 0.931 . S
C1115 C1111 1.460 . S
C1115 C1114 1.477 . S
C1115 H1135 0.930 . S
C1116 N1112 1.362 . S
C1116 C1113 1.431 . S
C1116 C1126 1.476 . S
H1117 C1111 0.929 . S
C1118 O1109 1.250 . S
C1118 O1110 1.258 . S
O1119 Mn1104 2.162 . S
O1119 C1107 1.281 . S
O1120 Mn1104 2.297 . S
O1120 C1107 1.236 . S
N1121 Mn1105 2.282 . S
N1121 C1122 1.328 . S
N1121 C1126 1.318 . S
C1122 N1121 1.328 . S
C1122 C1123 1.457 . S
C1122 H1127 0.929 . S
C1123 C1122 1.457 . S
C1123 C1124 1.291 . S
C1123 H1136 0.931 . S
C1124 C1123 1.291 . S
C1124 C1125 1.373 . S
C1124 H1137 0.929 . S
C1125 C1124 1.373 . S
C1125 C1126 1.396 . S
C1125 C1132 1.403 . S
C1126 C1116 1.476 . S
C1126 N1121 1.318 . S
C1126 C1125 1.396 . S
H1127 C1122 0.929 . S
O1128 Mn1104 2.385 . S
O1128 C1106 1.234 . S
O1129 Mn1104 2.209 . S
O1129 Mn1105 2.215 . S
O1129 C1106 1.283 . S
O1130 Mn1104 2.094 . S
O1130 C1108 1.240 . S
O1131 Mn1105 2.117 . S
O1131 C1108 1.264 . S
C1132 C1125 1.403 . S
C1132 C1133 1.399 . S
C1132 H1138 0.929 . S
C1133 C1113 1.449 . S
C1133 C1132 1.399 . S
C1133 H1139 0.930 . S
H1134 C1114 0.931 . S
H1135 C1115 0.930 . S
H1136 C1123 0.931 . S
H1137 C1124 0.929 . S
H1138 C1132 0.929 . S
H1139 C1133 0.930 . S
Mn1140 O1145 2.095 . S
Mn1140 O1155 2.162 . S
Mn1140 O1156 2.297 . S
Mn1140 O1164 2.385 . S
Mn1140 O1165 2.209 . S
Mn1140 O1166 2.094 . S
Mn1141 O1146 2.121 . S
Mn1141 N1148 2.257 . S
Mn1141 N1157 2.282 . S
Mn1141 O1165 2.215 . S
Mn1141 O1167 2.117 . S
C1142 O1164 1.234 . S
C1142 O1165 1.283 . S
C1143 O1155 1.281 . S
C1143 O1156 1.236 . S
C1144 O1166 1.240 . S
C1144 O1167 1.264 . S
O1145 Mn1140 2.095 . S
O1145 C1154 1.250 . S
O1146 Mn1141 2.121 . S
O1146 C1154 1.258 . S
C1147 N1148 1.326 . S
C1147 C1151 1.460 . S
C1147 H1153 0.929 . S
N1148 Mn1141 2.257 . S
N1148 C1147 1.326 . S
N1148 C1152 1.362 . S
C1149 C1150 1.258 . S
C1149 C1152 1.431 . S
C1149 C1169 1.449 . S
C1150 C1149 1.258 . S
C1150 C1151 1.477 . S
C1150 H1170 0.931 . S
C1151 C1147 1.460 . S
C1151 C1150 1.477 . S
C1151 H1171 0.930 . S
C1152 N1148 1.362 . S
C1152 C1149 1.431 . S
C1152 C1162 1.476 . S
H1153 C1147 0.929 . S
C1154 O1145 1.250 . S
C1154 O1146 1.258 . S
O1155 Mn1140 2.162 . S
O1155 C1143 1.281 . S
O1156 Mn1140 2.297 . S
O1156 C1143 1.236 . S
N1157 Mn1141 2.282 . S
N1157 C1158 1.328 . S
N1157 C1162 1.318 . S
C1158 N1157 1.328 . S
C1158 C1159 1.457 . S
C1158 H1163 0.929 . S
C1159 C1158 1.457 . S
C1159 C1160 1.291 . S
C1159 H1172 0.931 . S
C1160 C1159 1.291 . S
C1160 C1161 1.373 . S
C1160 H1173 0.929 . S
C1161 C1160 1.373 . S
C1161 C1162 1.396 . S
C1161 C1168 1.403 . S
C1162 C1152 1.476 . S
C1162 N1157 1.318 . S
C1162 C1161 1.396 . S
H1163 C1158 0.929 . S
O1164 Mn1140 2.385 . S
O1164 C1142 1.234 . S
O1165 Mn1140 2.209 . S
O1165 Mn1141 2.215 . S
O1165 C1142 1.283 . S
O1166 Mn1140 2.094 . S
O1166 C1144 1.240 . S
O1167 Mn1141 2.117 . S
O1167 C1144 1.264 . S
C1168 C1161 1.403 . S
C1168 C1169 1.399 . S
C1168 H1174 0.929 . S
C1169 C1149 1.449 . S
C1169 C1168 1.399 . S
C1169 H1175 0.930 . S
H1170 C1150 0.931 . S
H1171 C1151 0.930 . S
H1172 C1159 0.931 . S
H1173 C1160 0.929 . S
H1174 C1168 0.929 . S
H1175 C1169 0.930 . S
Mn1176 O1181 2.095 . S
Mn1176 O1191 2.162 . S
Mn1176 O1192 2.297 . S
Mn1176 O1200 2.385 . S
Mn1176 O1201 2.209 . S
Mn1176 O1202 2.094 . S
Mn1177 O1182 2.121 . S
Mn1177 N1184 2.257 . S
Mn1177 N1193 2.282 . S
Mn1177 O1201 2.215 . S
Mn1177 O1203 2.117 . S
C1178 O1200 1.234 . S
C1178 O1201 1.283 . S
C1179 O1191 1.281 . S
C1179 O1192 1.236 . S
C1180 O1202 1.240 . S
C1180 O1203 1.264 . S
O1181 Mn1176 2.095 . S
O1181 C1190 1.250 . S
O1182 Mn1177 2.121 . S
O1182 C1190 1.258 . S
C1183 N1184 1.326 . S
C1183 C1187 1.460 . S
C1183 H1189 0.929 . S
N1184 Mn1177 2.257 . S
N1184 C1183 1.326 . S
N1184 C1188 1.362 . S
C1185 C1186 1.258 . S
C1185 C1188 1.431 . S
C1185 C1205 1.449 . S
C1186 C1185 1.258 . S
C1186 C1187 1.477 . S
C1186 H1206 0.931 . S
C1187 C1183 1.460 . S
C1187 C1186 1.477 . S
C1187 H1207 0.930 . S
C1188 N1184 1.362 . S
C1188 C1185 1.431 . S
C1188 C1198 1.476 . S
H1189 C1183 0.929 . S
C1190 O1181 1.250 . S
C1190 O1182 1.258 . S
O1191 Mn1176 2.162 . S
O1191 C1179 1.281 . S
O1192 Mn1176 2.297 . S
O1192 C1179 1.236 . S
N1193 Mn1177 2.282 . S
N1193 C1194 1.328 . S
N1193 C1198 1.318 . S
C1194 N1193 1.328 . S
C1194 C1195 1.457 . S
C1194 H1199 0.929 . S
C1195 C1194 1.457 . S
C1195 C1196 1.291 . S
C1195 H1208 0.931 . S
C1196 C1195 1.291 . S
C1196 C1197 1.373 . S
C1196 H1209 0.929 . S
C1197 C1196 1.373 . S
C1197 C1198 1.396 . S
C1197 C1204 1.403 . S
C1198 C1188 1.476 . S
C1198 N1193 1.318 . S
C1198 C1197 1.396 . S
H1199 C1194 0.929 . S
O1200 Mn1176 2.385 . S
O1200 C1178 1.234 . S
O1201 Mn1176 2.209 . S
O1201 Mn1177 2.215 . S
O1201 C1178 1.283 . S
O1202 Mn1176 2.094 . S
O1202 C1180 1.240 . S
O1203 Mn1177 2.117 . S
O1203 C1180 1.264 . S
C1204 C1197 1.403 . S
C1204 C1205 1.399 . S
C1204 H1210 0.929 . S
C1205 C1185 1.449 . S
C1205 C1204 1.399 . S
C1205 H1211 0.930 . S
H1206 C1186 0.931 . S
H1207 C1187 0.930 . S
H1208 C1195 0.931 . S
H1209 C1196 0.929 . S
H1210 C1204 0.929 . S
H1211 C1205 0.930 . S
Mn1212 O1217 2.095 . S
Mn1212 O1227 2.162 . S
Mn1212 O1228 2.297 . S
Mn1212 O1236 2.385 1_565 S
Mn1212 O1237 2.209 1_565 S
Mn1212 O1238 2.094 . S
Mn1213 O1218 2.121 . S
Mn1213 N1220 2.257 . S
Mn1213 N1229 2.282 . S
Mn1213 O1237 2.215 . S
Mn1213 O1239 2.117 . S
C1214 O1236 1.234 . S
C1214 O1237 1.283 . S
C1215 O1227 1.281 . S
C1215 O1228 1.236 . S
C1216 O1238 1.220 1_545 S
C1216 O1239 1.290 . S
O1217 Mn1212 2.095 . S
O1217 C1226 1.250 1_565 S
O1218 Mn1213 2.121 . S
O1218 C1226 1.258 . S
C1219 N1220 1.326 . S
C1219 C1223 1.460 . S
C1219 H1225 0.929 . S
N1220 Mn1213 2.257 . S
N1220 C1219 1.326 . S
N1220 C1224 1.362 . S
C1221 C1222 1.258 . S
C1221 C1224 1.431 . S
C1221 C1241 1.449 . S
C1222 C1221 1.258 . S
C1222 C1223 1.477 . S
C1222 H1242 0.931 . S
C1223 C1219 1.460 . S
C1223 C1222 1.477 . S
C1223 H1243 0.930 . S
C1224 N1220 1.362 . S
C1224 C1221 1.431 . S
C1224 C1234 1.476 . S
H1225 C1219 0.929 . S
C1226 O1217 1.250 1_545 S
C1226 O1218 1.258 . S
O1227 Mn1212 2.162 . S
O1227 C1215 1.281 . S
O1228 Mn1212 2.297 . S
O1228 C1215 1.236 . S
N1229 Mn1213 2.282 . S
N1229 C1230 1.328 . S
N1229 C1234 1.318 . S
C1230 N1229 1.328 . S
C1230 C1231 1.457 . S
C1230 H1235 0.929 . S
C1231 C1230 1.457 . S
C1231 C1232 1.291 . S
C1231 H1244 0.931 . S
C1232 C1231 1.291 . S
C1232 C1233 1.373 . S
C1232 H1245 0.929 . S
C1233 C1232 1.373 . S
C1233 C1234 1.396 . S
C1233 C1240 1.403 . S
C1234 C1224 1.476 . S
C1234 N1229 1.318 . S
C1234 C1233 1.396 . S
H1235 C1230 0.929 . S
O1236 Mn1212 2.385 1_545 S
O1236 C1214 1.234 . S
O1237 Mn1212 2.209 1_545 S
O1237 Mn1213 2.215 . S
O1237 C1214 1.283 . S
O1238 Mn1212 2.094 . S
O1238 C1216 1.220 1_565 S
O1239 Mn1213 2.117 . S
O1239 C1216 1.290 . S
C1240 C1233 1.403 . S
C1240 C1241 1.399 . S
C1240 H1246 0.929 . S
C1241 C1221 1.449 . S
C1241 C1240 1.399 . S
C1241 H1247 0.930 . S
H1242 C1222 0.931 . S
H1243 C1223 0.930 . S
H1244 C1231 0.931 . S
H1245 C1232 0.929 . S
H1246 C1240 0.929 . S
H1247 C1241 0.930 . S
Mn1248 O1253 2.095 . S
Mn1248 O1263 2.162 . S
Mn1248 O1264 2.297 . S
Mn1248 O1272 2.385 1_455 S
Mn1248 O1273 2.209 1_455 S
Mn1248 O1274 2.094 . S
Mn1249 O1254 2.121 . S
Mn1249 N1256 2.257 . S
Mn1249 N1265 2.282 . S
Mn1249 O1273 2.215 . S
Mn1249 O1275 2.117 . S
C1250 O1272 1.234 . S
C1250 O1273 1.283 . S
C1251 O1263 1.281 . S
C1251 O1264 1.236 . S
C1252 O1274 1.240 . S
C1252 O1275 1.264 1_455 S
O1253 Mn1248 2.095 . S
O1253 C1262 1.250 1_455 S
O1254 Mn1249 2.121 . S
O1254 C1262 1.258 . S
C1255 N1256 1.326 . S
C1255 C1259 1.460 . S
C1255 H1261 0.929 . S
N1256 Mn1249 2.257 . S
N1256 C1255 1.326 . S
N1256 C1260 1.362 . S
C1257 C1258 1.258 . S
C1257 C1260 1.431 . S
C1257 C1277 1.449 . S
C1258 C1257 1.258 . S
C1258 C1259 1.477 . S
C1258 H1278 0.931 . S
C1259 C1255 1.460 . S
C1259 C1258 1.477 . S
C1259 H1279 0.930 . S
C1260 N1256 1.362 . S
C1260 C1257 1.431 . S
C1260 C1270 1.476 . S
H1261 C1255 0.929 . S
C1262 O1253 1.250 1_655 S
C1262 O1254 1.258 . S
O1263 Mn1248 2.162 . S
O1263 C1251 1.281 . S
O1264 Mn1248 2.297 . S
O1264 C1251 1.236 . S
N1265 Mn1249 2.282 . S
N1265 C1266 1.328 . S
N1265 C1270 1.318 . S
C1266 N1265 1.328 . S
C1266 C1267 1.457 . S
C1266 H1271 0.929 . S
C1267 C1266 1.457 . S
C1267 C1268 1.291 . S
C1267 H1280 0.931 . S
C1268 C1267 1.291 . S
C1268 C1269 1.373 . S
C1268 H1281 0.929 . S
C1269 C1268 1.373 . S
C1269 C1270 1.396 . S
C1269 C1276 1.403 . S
C1270 C1260 1.476 . S
C1270 N1265 1.318 . S
C1270 C1269 1.396 . S
H1271 C1266 0.929 . S
O1272 Mn1248 2.385 1_655 S
O1272 C1250 1.234 . S
O1273 Mn1248 2.209 1_655 S
O1273 Mn1249 2.215 . S
O1273 C1250 1.283 . S
O1274 Mn1248 2.094 . S
O1274 C1252 1.240 . S
O1275 Mn1249 2.117 . S
O1275 C1252 1.264 1_655 S
C1276 C1269 1.403 . S
C1276 C1277 1.399 . S
C1276 H1282 0.929 . S
C1277 C1257 1.449 . S
C1277 C1276 1.399 . S
C1277 H1283 0.930 . S
H1278 C1258 0.931 . S
H1279 C1259 0.930 . S
H1280 C1267 0.931 . S
H1281 C1268 0.929 . S
H1282 C1276 0.929 . S
H1283 C1277 0.930 . S
Mn1284 O1289 2.095 . S
Mn1284 O1299 2.162 . S
Mn1284 O1300 2.297 . S
Mn1284 O1308 2.385 . S
Mn1284 O1309 2.209 . S
Mn1284 O1310 2.094 . S
Mn1285 O1290 2.121 . S
Mn1285 N1292 2.257 . S
Mn1285 N1301 2.282 . S
Mn1285 O1309 2.215 . S
Mn1285 O1311 2.117 . S
C1286 O1308 1.234 . S
C1286 O1309 1.283 . S
C1287 O1299 1.281 . S
C1287 O1300 1.236 . S
C1288 O1310 1.240 . S
C1288 O1311 1.264 . S
O1289 Mn1284 2.095 . S
O1289 C1298 1.250 . S
O1290 Mn1285 2.121 . S
O1290 C1298 1.258 . S
C1291 N1292 1.326 . S
C1291 C1295 1.460 . S
C1291 H1297 0.929 . S
N1292 Mn1285 2.257 . S
N1292 C1291 1.326 . S
N1292 C1296 1.362 . S
C1293 C1294 1.258 . S
C1293 C1296 1.431 . S
C1293 C1313 1.449 . S
C1294 C1293 1.258 . S
C1294 C1295 1.477 . S
C1294 H1314 0.931 . S
C1295 C1291 1.460 . S
C1295 C1294 1.477 . S
C1295 H1315 0.930 . S
C1296 N1292 1.362 . S
C1296 C1293 1.431 . S
C1296 C1306 1.476 . S
H1297 C1291 0.929 . S
C1298 O1289 1.250 . S
C1298 O1290 1.258 . S
O1299 Mn1284 2.162 . S
O1299 C1287 1.281 . S
O1300 Mn1284 2.297 . S
O1300 C1287 1.236 . S
N1301 Mn1285 2.282 . S
N1301 C1302 1.328 . S
N1301 C1306 1.318 . S
C1302 N1301 1.328 . S
C1302 C1303 1.457 . S
C1302 H1307 0.929 . S
C1303 C1302 1.457 . S
C1303 C1304 1.291 . S
C1303 H1316 0.931 . S
C1304 C1303 1.291 . S
C1304 C1305 1.373 . S
C1304 H1317 0.929 . S
C1305 C1304 1.373 . S
C1305 C1306 1.396 . S
C1305 C1312 1.403 . S
C1306 C1296 1.476 . S
C1306 N1301 1.318 . S
C1306 C1305 1.396 . S
H1307 C1302 0.929 . S
O1308 Mn1284 2.385 . S
O1308 C1286 1.234 . S
O1309 Mn1284 2.209 . S
O1309 Mn1285 2.215 . S
O1309 C1286 1.283 . S
O1310 Mn1284 2.094 . S
O1310 C1288 1.240 . S
O1311 Mn1285 2.117 . S
O1311 C1288 1.264 . S
C1312 C1305 1.403 . S
C1312 C1313 1.399 . S
C1312 H1318 0.929 . S
C1313 C1293 1.449 . S
C1313 C1312 1.399 . S
C1313 H1319 0.930 . S
H1314 C1294 0.931 . S
H1315 C1295 0.930 . S
H1316 C1303 0.931 . S
H1317 C1304 0.929 . S
H1318 C1312 0.929 . S
H1319 C1313 0.930 . S
Mn1320 O1325 2.095 1_455 S
Mn1320 O1335 2.162 . S
Mn1320 O1336 2.297 1_455 S
Mn1320 O1344 2.385 . S
Mn1320 O1345 2.209 1_455 S
Mn1320 O1346 2.094 . S
Mn1321 O1326 2.121 . S
Mn1321 N1328 2.257 . S
Mn1321 N1337 2.273 1_655 S
Mn1321 O1345 2.215 . S
Mn1321 O1347 2.117 1_655 S
C1322 O1344 1.234 . S
C1322 O1345 1.283 1_455 S
C1323 O1335 1.281 . S
C1323 O1336 1.236 1_455 S
C1324 O1346 1.240 . S
C1324 O1347 1.264 . S
O1325 Mn1320 2.095 1_655 S
O1325 C1334 1.250 . S
O1326 Mn1321 2.121 . S
O1326 C1334 1.258 . S
C1327 N1328 1.326 . S
C1327 C1331 1.460 . S
C1327 H1333 0.929 . S
N1328 Mn1321 2.257 . S
N1328 C1327 1.326 . S
N1328 C1332 1.362 . S
C1329 C1330 1.258 . S
C1329 C1332 1.431 . S
C1329 C1349 1.449 . S
C1330 C1329 1.258 . S
C1330 C1331 1.477 . S
C1330 H1350 0.931 . S
C1331 C1327 1.460 . S
C1331 C1330 1.477 . S
C1331 H1351 0.930 . S
C1332 N1328 1.362 . S
C1332 C1329 1.431 . S
C1332 C1342 1.476 . S
H1333 C1327 0.929 . S
C1334 O1325 1.250 . S
C1334 O1326 1.258 . S
O1335 Mn1320 2.162 . S
O1335 C1323 1.281 . S
O1336 Mn1320 2.297 1_655 S
O1336 C1323 1.236 1_655 S
N1337 Mn1321 2.273 1_455 S
N1337 C1338 1.350 . S
N1337 C1342 1.304 1_455 S
C1338 N1337 1.350 . S
C1338 C1339 1.457 . S
C1338 H1343 0.929 . S
C1339 C1338 1.457 . S
C1339 C1340 1.291 . S
C1339 H1352 0.931 . S
C1340 C1339 1.291 . S
C1340 C1341 1.373 1_455 S
C1340 H1353 0.929 . S
C1341 C1340 1.373 1_655 S
C1341 C1342 1.396 . S
C1341 C1348 1.403 . S
C1342 C1332 1.476 . S
C1342 N1337 1.304 1_655 S
C1342 C1341 1.396 . S
H1343 C1338 0.929 . S
O1344 Mn1320 2.385 . S
O1344 C1322 1.234 . S
O1345 Mn1320 2.209 1_655 S
O1345 Mn1321 2.215 . S
O1345 C1322 1.283 1_655 S
O1346 Mn1320 2.094 . S
O1346 C1324 1.240 . S
O1347 Mn1321 2.117 1_455 S
O1347 C1324 1.264 . S
C1348 C1341 1.403 . S
C1348 C1349 1.399 . S
C1348 H1354 0.929 . S
C1349 C1329 1.449 . S
C1349 C1348 1.399 . S
C1349 H1355 0.930 . S
H1350 C1330 0.931 . S
H1351 C1331 0.930 . S
H1352 C1339 0.931 . S
H1353 C1340 0.929 . S
H1354 C1348 0.929 . S
H1355 C1349 0.930 . S
Mn1356 O1361 2.095 . S
Mn1356 O1371 2.162 . S
Mn1356 O1372 2.297 . S
Mn1356 O1380 2.385 . S
Mn1356 O1381 2.209 . S
Mn1356 O1382 2.094 . S
Mn1357 O1362 2.121 . S
Mn1357 N1364 2.257 . S
Mn1357 N1373 2.282 . S
Mn1357 O1381 2.215 . S
Mn1357 O1383 2.117 . S
C1358 O1380 1.234 . S
C1358 O1381 1.283 . S
C1359 O1371 1.281 . S
C1359 O1372 1.236 . S
C1360 O1382 1.240 . S
C1360 O1383 1.264 . S
O1361 Mn1356 2.095 . S
O1361 C1370 1.250 . S
O1362 Mn1357 2.121 . S
O1362 C1370 1.258 . S
C1363 N1364 1.326 . S
C1363 C1367 1.460 . S
C1363 H1369 0.929 . S
N1364 Mn1357 2.257 . S
N1364 C1363 1.326 . S
N1364 C1368 1.362 . S
C1365 C1366 1.258 . S
C1365 C1368 1.431 . S
C1365 C1385 1.449 . S
C1366 C1365 1.258 . S
C1366 C1367 1.477 . S
C1366 H1386 0.931 . S
C1367 C1363 1.460 . S
C1367 C1366 1.477 . S
C1367 H1387 0.930 . S
C1368 N1364 1.362 . S
C1368 C1365 1.431 . S
C1368 C1378 1.476 . S
H1369 C1363 0.929 . S
C1370 O1361 1.250 . S
C1370 O1362 1.258 . S
O1371 Mn1356 2.162 . S
O1371 C1359 1.281 . S
O1372 Mn1356 2.297 . S
O1372 C1359 1.236 . S
N1373 Mn1357 2.282 . S
N1373 C1374 1.328 . S
N1373 C1378 1.318 . S
C1374 N1373 1.328 . S
C1374 C1375 1.457 . S
C1374 H1379 0.929 . S
C1375 C1374 1.457 . S
C1375 C1376 1.291 . S
C1375 H1388 0.931 . S
C1376 C1375 1.291 . S
C1376 C1377 1.373 . S
C1376 H1389 0.929 . S
C1377 C1376 1.373 . S
C1377 C1378 1.396 . S
C1377 C1384 1.403 . S
C1378 C1368 1.476 . S
C1378 N1373 1.318 . S
C1378 C1377 1.396 . S
H1379 C1374 0.929 . S
O1380 Mn1356 2.385 . S
O1380 C1358 1.234 . S
O1381 Mn1356 2.209 . S
O1381 Mn1357 2.215 . S
O1381 C1358 1.283 . S
O1382 Mn1356 2.094 . S
O1382 C1360 1.240 . S
O1383 Mn1357 2.117 . S
O1383 C1360 1.264 . S
C1384 C1377 1.403 . S
C1384 C1385 1.399 . S
C1384 H1390 0.929 . S
C1385 C1365 1.449 . S
C1385 C1384 1.399 . S
C1385 H1391 0.930 . S
H1386 C1366 0.931 . S
H1387 C1367 0.930 . S
H1388 C1375 0.931 . S
H1389 C1376 0.929 . S
H1390 C1384 0.929 . S
H1391 C1385 0.930 . S
C962 C331 1.555 . S
C1010 C380 1.771 . S
C421 C1046 1.382 . S
C1082 C260 1.539 . S
C1108 C620 1.640 . S
C1144 C740 1.584 . S
C680 C1179 1.742 . S
C1216 C571 1.677 1_545 S
C691 C1250 1.607 . S
C1298 C541 1.700 . S
C601 C1251 1.637 . S
C1288 C721 1.624 . S
C451 C1334 1.444 . S
C241 C1323 1.600 . S
C320 C1324 1.653 . S
C391 C1322 1.715 1_655 S
C211 C1070 1.629 . S
C841 C1071 1.614 . S
C974 C901 1.740 . S
C999 C500 1.588 . S
C271 C1106 1.594 . S
C1214 C661 1.671 . S
C1107 C560 1.620 . S
C1180 C751 1.639 . S
C1178 C871 1.555 . S
C920 C1226 1.771 . S
C481 C1118 1.382 . S
C1154 C800 1.539 . S
C200 C1036 1.640 . S
C1072 C20 1.584 . S
C963 C80 1.742 . S
C1000 C151 1.682 . S
C91 C1286 1.607 . S
C121 C1262 1.700 . S
C181 C1287 1.637 . S
C1 C1252 1.624 . S
C1370 C511 1.444 . S
C1359 C781 1.600 . S
C1360 C860 1.653 . S
C931 C1358 1.715 . S
C631 C1142 1.629 . S
C1143 C301 1.614 . S
C1190 C361 1.740 . S
C1215 C440 1.589 . S
C811 C1034 1.593 1_556 S
C998 C61 1.672 . S
C140 C1035 1.620 . S
C964 C31 1.638 . S
