# Generated by pormake.
# Topology eea, (3,6)-cn, num edge types: 1
# Building blocks:
#     Node 0, Type 0, BuildingBlock: CUQRIR_clean_linker_1, # of connection points: 3
#     Node 1, Type 0, BuildingBlock: CUQRIR_clean_linker_1, # of connection points: 3
#     Node 2, Type 0, BuildingBlock: CUQRIR_clean_linker_1, # of connection points: 3
#     Node 3, Type 0, BuildingBlock: CUQRIR_clean_linker_1, # of connection points: 3
#     Node 4, Type 0, BuildingBlock: CUQRIR_clean_linker_1, # of connection points: 3
#     Node 5, Type 0, BuildingBlock: CUQRIR_clean_linker_1, # of connection points: 3
#     Node 6, Type 0, BuildingBlock: CUQRIR_clean_linker_1, # of connection points: 3
#     Node 7, Type 0, BuildingBlock: CUQRIR_clean_linker_1, # of connection points: 3
#     Node 8, Type 0, BuildingBlock: CUQRIR_clean_linker_1, # of connection points: 3
#     Node 9, Type 0, BuildingBlock: CUQRIR_clean_linker_1, # of connection points: 3
#     Node 10, Type 0, BuildingBlock: CUQRIR_clean_linker_1, # of connection points: 3
#     Node 11, Type 0, BuildingBlock: CUQRIR_clean_linker_1, # of connection points: 3
#     Node 12, Type 0, BuildingBlock: CUQRIR_clean_linker_1, # of connection points: 3
#     Node 13, Type 0, BuildingBlock: CUQRIR_clean_linker_1, # of connection points: 3
#     Node 14, Type 0, BuildingBlock: CUQRIR_clean_linker_1, # of connection points: 3
#     Node 15, Type 0, BuildingBlock: CUQRIR_clean_linker_1, # of connection points: 3
#     Node 16, Type 0, BuildingBlock: CUQRIR_clean_linker_1, # of connection points: 3
#     Node 17, Type 0, BuildingBlock: CUQRIR_clean_linker_1, # of connection points: 3
#     Node 18, Type 1, BuildingBlock: NUHQIS_clean_sbu_0, # of connection points: 6
#     Node 19, Type 1, BuildingBlock: NUHQIS_clean_sbu_0, # of connection points: 6
#     Node 20, Type 1, BuildingBlock: NUHQIS_clean_sbu_0, # of connection points: 6
#     Node 21, Type 1, BuildingBlock: NUHQIS_clean_sbu_0, # of connection points: 6
#     Node 22, Type 1, BuildingBlock: NUHQIS_clean_sbu_0, # of connection points: 6
#     Node 23, Type 1, BuildingBlock: NUHQIS_clean_sbu_0, # of connection points: 6
#     Node 24, Type 1, BuildingBlock: NUHQIS_clean_sbu_0, # of connection points: 6
#     Node 25, Type 1, BuildingBlock: NUHQIS_clean_sbu_0, # of connection points: 6
#     Node 26, Type 1, BuildingBlock: NUHQIS_clean_sbu_0, # of connection points: 6
#     Edge 27, Type (0, 1), BuildingBlock: XUDNAN_clean_linker_2, # of connection points: 2
#     Edge 28, Type (0, 1), BuildingBlock: XUDNAN_clean_linker_2, # of connection points: 2
#     Edge 29, Type (0, 1), BuildingBlock: XUDNAN_clean_linker_2, # of connection points: 2
#     Edge 30, Type (0, 1), BuildingBlock: XUDNAN_clean_linker_2, # of connection points: 2
#     Edge 31, Type (0, 1), BuildingBlock: XUDNAN_clean_linker_2, # of connection points: 2
#     Edge 32, Type (0, 1), BuildingBlock: XUDNAN_clean_linker_2, # of connection points: 2
#     Edge 33, Type (0, 1), BuildingBlock: XUDNAN_clean_linker_2, # of connection points: 2
#     Edge 34, Type (0, 1), BuildingBlock: XUDNAN_clean_linker_2, # of connection points: 2
#     Edge 35, Type (0, 1), BuildingBlock: XUDNAN_clean_linker_2, # of connection points: 2
#     Edge 36, Type (0, 1), BuildingBlock: XUDNAN_clean_linker_2, # of connection points: 2
#     Edge 37, Type (0, 1), BuildingBlock: XUDNAN_clean_linker_2, # of connection points: 2
#     Edge 38, Type (0, 1), BuildingBlock: XUDNAN_clean_linker_2, # of connection points: 2
#     Edge 39, Type (0, 1), BuildingBlock: XUDNAN_clean_linker_2, # of connection points: 2
#     Edge 40, Type (0, 1), BuildingBlock: XUDNAN_clean_linker_2, # of connection points: 2
#     Edge 41, Type (0, 1), BuildingBlock: XUDNAN_clean_linker_2, # of connection points: 2
#     Edge 42, Type (0, 1), BuildingBlock: XUDNAN_clean_linker_2, # of connection points: 2
#     Edge 43, Type (0, 1), BuildingBlock: XUDNAN_clean_linker_2, # of connection points: 2
#     Edge 44, Type (0, 1), BuildingBlock: XUDNAN_clean_linker_2, # of connection points: 2
#     Edge 45, Type (0, 1), BuildingBlock: XUDNAN_clean_linker_2, # of connection points: 2
#     Edge 46, Type (0, 1), BuildingBlock: XUDNAN_clean_linker_2, # of connection points: 2
#     Edge 47, Type (0, 1), BuildingBlock: XUDNAN_clean_linker_2, # of connection points: 2
#     Edge 48, Type (0, 1), BuildingBlock: XUDNAN_clean_linker_2, # of connection points: 2
#     Edge 49, Type (0, 1), BuildingBlock: XUDNAN_clean_linker_2, # of connection points: 2
#     Edge 50, Type (0, 1), BuildingBlock: XUDNAN_clean_linker_2, # of connection points: 2
#     Edge 51, Type (0, 1), BuildingBlock: XUDNAN_clean_linker_2, # of connection points: 2
#     Edge 52, Type (0, 1), BuildingBlock: XUDNAN_clean_linker_2, # of connection points: 2
#     Edge 53, Type (0, 1), BuildingBlock: XUDNAN_clean_linker_2, # of connection points: 2
#     Edge 54, Type (0, 1), BuildingBlock: XUDNAN_clean_linker_2, # of connection points: 2
#     Edge 55, Type (0, 1), BuildingBlock: XUDNAN_clean_linker_2, # of connection points: 2
#     Edge 56, Type (0, 1), BuildingBlock: XUDNAN_clean_linker_2, # of connection points: 2
#     Edge 57, Type (0, 1), BuildingBlock: XUDNAN_clean_linker_2, # of connection points: 2
#     Edge 58, Type (0, 1), BuildingBlock: XUDNAN_clean_linker_2, # of connection points: 2
#     Edge 59, Type (0, 1), BuildingBlock: XUDNAN_clean_linker_2, # of connection points: 2
#     Edge 60, Type (0, 1), BuildingBlock: XUDNAN_clean_linker_2, # of connection points: 2
#     Edge 61, Type (0, 1), BuildingBlock: XUDNAN_clean_linker_2, # of connection points: 2
#     Edge 62, Type (0, 1), BuildingBlock: XUDNAN_clean_linker_2, # of connection points: 2
#     Edge 63, Type (0, 1), BuildingBlock: XUDNAN_clean_linker_2, # of connection points: 2
#     Edge 64, Type (0, 1), BuildingBlock: XUDNAN_clean_linker_2, # of connection points: 2
#     Edge 65, Type (0, 1), BuildingBlock: XUDNAN_clean_linker_2, # of connection points: 2
#     Edge 66, Type (0, 1), BuildingBlock: XUDNAN_clean_linker_2, # of connection points: 2
#     Edge 67, Type (0, 1), BuildingBlock: XUDNAN_clean_linker_2, # of connection points: 2
#     Edge 68, Type (0, 1), BuildingBlock: XUDNAN_clean_linker_2, # of connection points: 2
#     Edge 69, Type (0, 1), BuildingBlock: XUDNAN_clean_linker_2, # of connection points: 2
#     Edge 70, Type (0, 1), BuildingBlock: XUDNAN_clean_linker_2, # of connection points: 2
#     Edge 71, Type (0, 1), BuildingBlock: XUDNAN_clean_linker_2, # of connection points: 2
#     Edge 72, Type (0, 1), BuildingBlock: XUDNAN_clean_linker_2, # of connection points: 2
#     Edge 73, Type (0, 1), BuildingBlock: XUDNAN_clean_linker_2, # of connection points: 2
#     Edge 74, Type (0, 1), BuildingBlock: XUDNAN_clean_linker_2, # of connection points: 2
#     Edge 75, Type (0, 1), BuildingBlock: XUDNAN_clean_linker_2, # of connection points: 2
#     Edge 76, Type (0, 1), BuildingBlock: XUDNAN_clean_linker_2, # of connection points: 2
#     Edge 77, Type (0, 1), BuildingBlock: XUDNAN_clean_linker_2, # of connection points: 2
#     Edge 78, Type (0, 1), BuildingBlock: XUDNAN_clean_linker_2, # of connection points: 2
#     Edge 79, Type (0, 1), BuildingBlock: XUDNAN_clean_linker_2, # of connection points: 2
#     Edge 80, Type (0, 1), BuildingBlock: XUDNAN_clean_linker_2, # of connection points: 2
# Relax obj value: 0.106
# Max RMSD: 0.248
# Mean RMSD: 0.181
data_MOF--net-eea--node1-NUHQIS_clean_sbu_0--node2-CUQRIR_clean_linker_1--edge1-XUDNAN_clean_linker_2
_symmetry_space_group_name_H-M    P1
_symmetry_Int_Tables_number       1
_symmetry_cell_setting            triclinic
loop_
_symmetry_equiv_pos_as_xyz
'x, y, z'
_cell_length_a     48.506234
_cell_length_b     50.421625
_cell_length_c     66.116907
_cell_angle_alpha  87.161915
_cell_angle_beta   93.06474
_cell_angle_gamma 118.96315
loop_
_atom_site_label
_atom_site_type_symbol
_atom_site_fract_x
_atom_site_fract_y
_atom_site_fract_z
_atom_type_partial_charge
C0 C 0.2156 0.10967 0.40654 0.0
N1 N 0.23052 0.13454 0.41809 0.0
N2 N 0.21056 0.08445 0.4175 0.0
C3 C 0.2043 0.10972 0.3849 0.0
C4 C 0.22283 0.0948 0.43617 0.0
N5 N 0.23466 0.12529 0.43664 0.0
C6 C 0.22613 0.07552 0.45325 0.0
H7 H 0.18364 0.08754 0.38117 0.0
H8 H 0.22357 0.11397 0.37474 0.0
H9 H 0.19782 0.12791 0.38204 0.0
H10 H 0.24841 0.08854 0.46219 0.0
H11 H 0.22579 0.05507 0.44747 0.0
H12 H 0.20614 0.06807 0.46348 0.0
C13 C 0.92069 0.12779 0.41324 0.0
N14 N 0.93567 0.15204 0.42558 0.0
N15 N 0.8925 0.10707 0.42072 0.0
C16 C 0.93333 0.12413 0.39387 0.0
C17 C 0.89054 0.11974 0.4378 0.0
N18 N 0.91645 0.14704 0.44071 0.0
C19 C 0.86377 0.10487 0.45223 0.0
H20 H 0.94698 0.14634 0.38591 0.0
H21 H 0.91416 0.10873 0.38347 0.0
H22 H 0.949 0.11411 0.39746 0.0
H23 H 0.87282 0.10072 0.46715 0.0
H24 H 0.84431 0.08325 0.44654 0.0
H25 H 0.85388 0.12016 0.45459 0.0
C26 C 0.89109 0.77318 0.40711 0.0
N27 N 0.90443 0.75864 0.41807 0.0
N28 N 0.8706 0.77659 0.41837 0.0
C29 C 0.90034 0.78672 0.38612 0.0
C30 C 0.8722 0.76397 0.43664 0.0
N31 N 0.89317 0.75349 0.43658 0.0
C32 C 0.85148 0.75979 0.45402 0.0
H33 H 0.92554 0.7941 0.38375 0.0
H34 H 0.89629 0.80647 0.38339 0.0
H35 H 0.88584 0.76931 0.37485 0.0
H36 H 0.84534 0.73821 0.46251 0.0
H37 H 0.82942 0.75975 0.44858 0.0
H38 H 0.86438 0.77872 0.46458 0.0
C39 C 0.12077 0.2342 0.63159 0.0
N40 N 0.14517 0.25041 0.61935 0.0
N41 N 0.09322 0.22881 0.62204 0.0
C42 C 0.1239 0.22422 0.65306 0.0
C43 C 0.10188 0.24236 0.60348 0.0
N44 N 0.13354 0.25523 0.60181 0.0
C45 C 0.07967 0.24413 0.58737 0.0
H46 H 0.11937 0.20044 0.6531 0.0
H47 H 0.10642 0.22519 0.66272 0.0
H48 H 0.14782 0.23833 0.65977 0.0
H49 H 0.08113 0.26675 0.58768 0.0
H50 H 0.05499 0.22637 0.58986 0.0
H51 H 0.08627 0.2415 0.57212 0.0
C52 C 0.79994 0.89842 0.63355 0.0
N53 N 0.78977 0.87733 0.61907 0.0
N54 N 0.80147 0.92458 0.62595 0.0
C55 C 0.80678 0.89281 0.65536 0.0
C56 C 0.79166 0.9184 0.60629 0.0
N57 N 0.78418 0.88956 0.60216 0.0
C58 C 0.79209 0.94133 0.59063 0.0
H59 H 0.7932 0.86847 0.6598 0.0
H60 H 0.80107 0.90611 0.66561 0.0
H61 H 0.83221 0.89977 0.65739 0.0
H62 H 0.81043 0.96459 0.59461 0.0
H63 H 0.7688 0.94052 0.58985 0.0
H64 H 0.79668 0.93619 0.57544 0.0
C65 C 0.10875 0.91429 0.63476 0.0
N66 N 0.09577 0.89151 0.62131 0.0
N67 N 0.13338 0.93923 0.62669 0.0
C68 C 0.09961 0.91119 0.65652 0.0
C69 C 0.1352 0.93072 0.6079 0.0
N70 N 0.11269 0.90162 0.60469 0.0
C71 C 0.15702 0.95176 0.59202 0.0
H72 H 0.081 0.91779 0.65763 0.0
H73 H 0.12012 0.92623 0.66629 0.0
H74 H 0.09028 0.88745 0.66226 0.0
H75 H 0.17932 0.9506 0.59309 0.0
H76 H 0.16269 0.97553 0.59435 0.0
H77 H 0.14637 0.94516 0.57657 0.0
C78 C 0.87343 0.43622 0.73987 0.0
N79 N 0.87596 0.456 0.75402 0.0
N80 N 0.87898 0.4142 0.74845 0.0
C81 C 0.86603 0.4385 0.71767 0.0
C82 C 0.88473 0.4211 0.76827 0.0
N83 N 0.88265 0.44624 0.77169 0.0
C84 C 0.89327 0.40375 0.78424 0.0
H85 H 0.85088 0.44933 0.71526 0.0
H86 H 0.85406 0.41589 0.71078 0.0
H87 H 0.88839 0.45253 0.70976 0.0
H88 H 0.91933 0.41458 0.78591 0.0
H89 H 0.88399 0.37984 0.77994 0.0
H90 H 0.88399 0.40429 0.7991 0.0
C91 C 0.58488 0.45987 0.74592 0.0
N92 N 0.59655 0.48287 0.75912 0.0
N93 N 0.56063 0.43456 0.75398 0.0
C94 C 0.59626 0.46271 0.72475 0.0
C95 C 0.55793 0.44321 0.77257 0.0
N96 N 0.57948 0.47267 0.77562 0.0
C97 C 0.53606 0.42223 0.78844 0.0
H98 H 0.57679 0.44763 0.71435 0.0
H99 H 0.61507 0.45616 0.72508 0.0
H100 H 0.60637 0.48633 0.71867 0.0
H101 H 0.54668 0.42905 0.80387 0.0
H102 H 0.53049 0.39845 0.78625 0.0
H103 H 0.51376 0.42339 0.78735 0.0
C104 C 0.56424 0.11486 0.74933 0.0
N105 N 0.57888 0.10111 0.75967 0.0
N106 N 0.53902 0.11123 0.75938 0.0
C107 C 0.57513 0.13255 0.72969 0.0
C108 C 0.5387 0.09452 0.77617 0.0
N109 N 0.56286 0.08816 0.77628 0.0
C110 C 0.51478 0.08417 0.7925 0.0
H111 H 0.60089 0.14193 0.72822 0.0
H112 H 0.56935 0.15135 0.72852 0.0
H113 H 0.56285 0.11715 0.71694 0.0
H114 H 0.49816 0.09328 0.79023 0.0
H115 H 0.52707 0.09078 0.80754 0.0
H116 H 0.50059 0.05911 0.79262 0.0
C117 C 0.78988 0.57906 0.96712 0.0
N118 N 0.81399 0.58384 0.95536 0.0
N119 N 0.77494 0.59426 0.95939 0.0
C120 C 0.77937 0.55773 0.98533 0.0
C121 C 0.79136 0.60895 0.94271 0.0
N122 N 0.81527 0.60281 0.9403 0.0
C123 C 0.78209 0.62691 0.92764 0.0
H124 H 0.76004 0.53535 0.98056 0.0
H125 H 0.77032 0.56621 0.99702 0.0
H126 H 0.799 0.55475 0.99235 0.0
H127 H 0.80243 0.64979 0.92514 0.0
H128 H 0.76237 0.62973 0.93292 0.0
H129 H 0.77528 0.61541 0.91289 0.0
C130 C 0.4711 0.24004 0.97195 0.0
N131 N 0.45754 0.21714 0.9586 0.0
N132 N 0.46694 0.26373 0.96538 0.0
C133 C 0.49115 0.24066 0.99029 0.0
C134 C 0.45099 0.25486 0.94745 0.0
N135 N 0.44543 0.22665 0.94318 0.0
C136 C 0.44066 0.2739 0.93431 0.0
H137 H 0.47561 0.2286 1.00311 0.0
H138 H 0.50759 0.26422 0.99485 0.0
H139 H 0.5049 0.22901 0.98733 0.0
H140 H 0.45915 0.28741 0.92326 0.0
H141 H 0.43742 0.28988 0.94359 0.0
H142 H 0.4183 0.25944 0.92583 0.0
C143 C 0.77977 0.2448 0.96704 0.0
N144 N 0.76449 0.2225 0.95337 0.0
N145 N 0.80659 0.26768 0.95934 0.0
C146 C 0.76932 0.24359 0.98828 0.0
C147 C 0.80739 0.25838 0.94063 0.0
N148 N 0.7821 0.23083 0.93706 0.0
C149 C 0.83366 0.27573 0.92617 0.0
H150 H 0.74995 0.24936 0.98778 0.0
H151 H 0.78852 0.25999 0.99822 0.0
H152 H 0.76029 0.2204 0.99504 0.0
H153 H 0.85206 0.26881 0.92907 0.0
H154 H 0.84479 0.30049 0.92828 0.0
H155 H 0.82489 0.27087 0.91021 0.0
C156 C 0.5364 0.77335 0.07932 0.0
N157 N 0.55147 0.79773 0.0914 0.0
N158 N 0.54121 0.75023 0.08662 0.0
C159 C 0.51526 0.771 0.06114 0.0
C160 C 0.5594 0.76125 0.10367 0.0
N161 N 0.56537 0.78999 0.10668 0.0
C162 C 0.57213 0.74415 0.11689 0.0
H163 H 0.49046 0.75945 0.06592 0.0
H164 H 0.51742 0.75724 0.04936 0.0
H165 H 0.52006 0.79318 0.05432 0.0
H166 H 0.59497 0.7485 0.11098 0.0
H167 H 0.55568 0.71939 0.11662 0.0
H168 H 0.57642 0.75139 0.13278 0.0
C169 C 0.25221 0.79251 0.07938 0.0
N170 N 0.26323 0.81532 0.09269 0.0
N171 N 0.22335 0.76977 0.08445 0.0
C172 C 0.26996 0.79275 0.06132 0.0
C173 C 0.21738 0.77955 0.10161 0.0
N174 N 0.24157 0.80714 0.10668 0.0
C175 C 0.18636 0.76391 0.11206 0.0
H176 H 0.26562 0.8056 0.04859 0.0
H177 H 0.2624 0.76938 0.0565 0.0
H178 H 0.29569 0.80433 0.06491 0.0
H179 H 0.18681 0.74713 0.12339 0.0
H180 H 0.16652 0.75174 0.10104 0.0
H181 H 0.18205 0.78034 0.12002 0.0
C182 C 0.23339 0.4323 0.07502 0.0
N183 N 0.2479 0.42303 0.08943 0.0
N184 N 0.20696 0.43068 0.08213 0.0
C185 C 0.2459 0.44417 0.05425 0.0
C186 C 0.20595 0.42007 0.10148 0.0
N187 N 0.23087 0.41531 0.1059 0.0
C188 C 0.18093 0.41494 0.11607 0.0
H189 H 0.27203 0.4552 0.05459 0.0
H190 H 0.2384 0.46072 0.04826 0.0
H191 H 0.23662 0.42491 0.04382 0.0
H192 H 0.15821 0.40905 0.10789 0.0
H193 H 0.18852 0.43614 0.12432 0.0
H194 H 0.17723 0.3967 0.12741 0.0
C195 C 0.4638 0.9351 0.30775 0.0
N196 N 0.48654 0.94504 0.29384 0.0
N197 N 0.44122 0.94249 0.3017 0.0
C198 C 0.46365 0.91825 0.32726 0.0
C199 C 0.451 0.95738 0.28373 0.0
N200 N 0.47861 0.95911 0.27901 0.0
C201 C 0.4338 0.97045 0.2708 0.0
H202 H 0.45311 0.89375 0.3242 0.0
H203 H 0.44945 0.92074 0.33882 0.0
H204 H 0.48803 0.92634 0.33348 0.0
H205 H 0.45067 0.99329 0.26478 0.0
H206 H 0.41565 0.97206 0.27938 0.0
H207 H 0.42218 0.95567 0.25767 0.0
C208 C 0.14637 0.57503 0.30761 0.0
N209 N 0.13399 0.55217 0.2943 0.0
N210 N 0.14522 0.59976 0.29961 0.0
C211 C 0.1567 0.57216 0.32912 0.0
C212 C 0.1317 0.59109 0.28092 0.0
N213 N 0.12483 0.56221 0.2777 0.0
C214 C 0.12515 0.61077 0.26572 0.0
H215 H 0.1521 0.58634 0.33929 0.0
H216 H 0.1824 0.57998 0.3297 0.0
H217 H 0.14428 0.54825 0.33475 0.0
H218 H 0.12756 0.60553 0.25003 0.0
H219 H 0.14142 0.63517 0.26825 0.0
H220 H 0.10055 0.6062 0.26721 0.0
C221 C 0.45319 0.58593 0.29607 0.0
N222 N 0.44119 0.56052 0.28481 0.0
N223 N 0.47988 0.60843 0.28796 0.0
C224 C 0.43729 0.58998 0.31366 0.0
C225 C 0.48362 0.59601 0.27138 0.0
N226 N 0.46008 0.56718 0.26926 0.0
C227 C 0.51114 0.61188 0.25763 0.0
H228 H 0.41126 0.57682 0.31165 0.0
H229 H 0.44437 0.61423 0.31547 0.0
H230 H 0.44443 0.58168 0.32775 0.0
H231 H 0.53207 0.62953 0.26585 0.0
H232 H 0.50468 0.62302 0.24478 0.0
H233 H 0.51734 0.59547 0.25142 0.0
Tb234 Tb 0.50753 0.99414 1.00191 0.0
Eu235 Eu 0.52424 0.03294 0.04374 0.0
C236 C 0.53042 0.97241 0.0416 0.0
C237 C 0.45779 0.9737 0.03658 0.0
C238 C 0.51173 0.98048 0.94838 0.0
C239 C 0.51955 0.97197 0.91377 0.0
C240 C 0.5061 0.96066 0.93265 0.0
C241 C 0.53112 0.01174 0.94509 0.0
C242 C 0.54447 0.02306 0.92625 0.0
C243 C 0.53891 1.00335 0.91032 0.0
C244 C 0.49808 0.96866 0.96833 0.0
O245 O 0.50966 0.03727 0.9931 0.0
O246 O 0.49612 0.04846 0.02289 0.0
O247 O 0.56134 0.06266 0.02139 0.0
O248 O 0.5585 0.02405 1.00309 0.0
C249 C 0.49861 0.05176 1.00312 0.0
O250 O 0.51048 0.05158 0.06789 0.0
O251 O 0.55851 0.05925 0.06747 0.0
O252 O 0.54243 0.99964 0.04895 0.0
O253 O 0.51182 0.96425 0.02528 0.0
O254 O 0.46249 0.97748 0.01692 0.0
O255 O 0.48056 0.98856 0.04991 0.0
C256 C 0.57324 0.05261 1.00825 0.0
O257 O 0.51773 0.96851 0.98249 0.0
O258 O 0.48047 0.97923 0.97483 0.0
C259 C 0.53651 0.05272 0.09961 0.0
C260 C 0.53556 0.03764 0.14147 0.0
C261 C 0.56249 0.06196 0.13298 0.0
C262 C 0.56288 0.06947 0.11232 0.0
C263 C 0.5098 0.02797 0.10787 0.0
C264 C 0.50929 0.0206 0.12859 0.0
C265 C 0.53748 0.06128 0.07785 0.0
H266 H 0.51501 0.95609 0.90195 0.0
H267 H 0.49139 0.93643 0.93498 0.0
H268 H 0.53584 0.02741 0.95709 0.0
H269 H 0.55873 0.04737 0.92411 0.0
H270 H 0.58339 0.07525 0.1423 0.0
H271 H 0.58384 0.08845 0.10624 0.0
H272 H 0.48919 0.01444 0.09838 0.0
H273 H 0.48799 1.00197 0.13455 0.0
Tb274 Tb 0.02745 0.52572 0.99531 0.0
Eu275 Eu 0.00806 0.5115 0.04349 0.0
C276 C 0.06501 0.57551 0.02807 0.0
C277 C 0.06392 0.50366 0.02724 0.0
C278 C 0.01886 0.53003 0.93922 0.0
C279 C 0.00865 0.5163 0.90384 0.0
C280 C 0.02767 0.52239 0.9215 0.0
C281 C 0.99084 0.53182 0.93902 0.0
C282 C 0.97189 0.52595 0.92131 0.0
C283 C 0.9804 0.51784 0.90351 0.0
C284 C 0.03844 0.53475 0.95792 0.0
O285 O 0.98239 0.48363 0.99591 0.0
O286 O 0.98833 0.467 0.02782 0.0
O287 O 0.96749 0.51198 0.02542 0.0
O288 O 0.99722 0.54514 1.00064 0.0
C289 C 0.97531 0.46156 1.00952 0.0
O290 O 0.99798 0.4822 0.07043 0.0
O291 O 0.99249 0.52244 0.07089 0.0
O292 O 0.04196 0.5616 0.04077 0.0
O293 O 0.06628 0.56294 1.01139 0.0
O294 O 0.05194 0.50218 1.00872 0.0
O295 O 0.05502 0.51335 0.04234 0.0
C296 C 0.9708 0.53093 1.01024 0.0
O297 O 0.04061 0.55547 0.96992 0.0
O298 O 0.03406 0.51024 0.96797 0.0
C299 C 1.00611 0.50546 0.10216 0.0
C300 C 0.02761 0.51064 0.14311 0.0
C301 C 1.00152 0.51465 0.13721 0.0
C302 C 0.99086 0.51198 0.11699 0.0
C303 C 0.03297 0.50264 0.10777 0.0
C304 C 0.04363 0.50521 0.12808 0.0
C305 C 0.99217 0.49966 0.08138 0.0
H306 H 0.01571 0.50956 0.89061 0.0
H307 H 0.04906 0.52062 0.92141 0.0
H308 H 0.98345 0.53749 0.95259 0.0
H309 H 0.95053 0.52771 0.9216 0.0
H310 H 0.98906 0.51957 0.14828 0.0
H311 H 0.97019 0.51436 0.11298 0.0
H312 H 0.04526 0.4977 0.09658 0.0
H313 H 0.06374 0.50193 0.13209 0.0
Tb314 Tb 0.52103 0.50573 0.04708 0.0
Eu315 Eu 0.49674 0.51107 0.99969 0.0
C316 C 0.51388 0.45992 0.01398 0.0
C317 C 0.5693 0.53765 0.0128 0.0
C318 C 0.52241 0.50237 0.10389 0.0
C319 C 0.49172 0.47709 0.13372 0.0
C320 C 0.50279 0.47573 0.11489 0.0
C321 C 0.53079 0.5305 0.11228 0.0
C322 C 0.51979 0.53187 0.13119 0.0
C323 C 0.50019 0.50516 0.14223 0.0
C324 C 0.53432 0.50024 0.08408 0.0
O325 O 0.52625 0.55116 0.0425 0.0
O326 O 0.48756 0.54238 0.01792 0.0
O327 O 0.45422 0.47662 0.01671 0.0
O328 O 0.47247 0.49606 0.04826 0.0
C329 C 0.50649 0.55864 0.03274 0.0
O330 O 0.49704 0.53817 0.97279 0.0
O331 O 0.47205 0.48915 0.97156 0.0
O332 O 0.51822 0.48059 0.99992 0.0
O333 O 0.50739 0.46263 0.03258 0.0
O334 O 0.56238 0.51951 0.02894 0.0
O335 O 0.54839 0.54366 1.0034 0.0
C336 C 0.44935 0.47893 0.03577 0.0
O337 O 0.51495 0.47772 0.07288 0.0
O338 O 0.54954 0.52509 0.07319 0.0
C339 C 0.49879 0.51613 0.94203 0.0
C340 C 0.52827 0.51678 0.90579 0.0
C341 C 0.49641 0.49555 0.90896 0.0
C342 C 0.4819 0.4953 0.92681 0.0
C343 C 0.53058 0.53744 0.93894 0.0
C344 C 0.54509 0.53779 0.92105 0.0
C345 C 0.48322 0.51472 0.96115 0.0
H346 H 0.47635 0.45603 0.14156 0.0
H347 H 0.49599 0.45369 0.10893 0.0
H348 H 0.54605 0.55151 0.10433 0.0
H349 H 0.52725 0.55392 0.13735 0.0
H350 H 0.48273 0.47862 0.89783 0.0
H351 H 0.45745 0.47851 0.92883 0.0
H352 H 0.54437 0.55381 0.95037 0.0
H353 H 0.56948 0.55475 0.91917 0.0
Tb354 Tb 0.17922 0.32961 0.33508 0.0
Eu355 Eu 0.20781 0.36788 0.3766 0.0
C356 C 0.2145 0.31069 0.36814 0.0
C357 C 0.1375 0.31052 0.37356 0.0
C358 C 0.17552 0.31235 0.28137 0.0
C359 C 0.16964 0.3188 0.245 0.0
C360 C 0.15628 0.30743 0.26386 0.0
C361 C 0.20844 0.32818 0.2797 0.0
C362 C 0.22183 0.33934 0.26084 0.0
C363 C 0.20263 0.33528 0.24326 0.0
C364 C 0.16114 0.30383 0.30139 0.0
O365 O 0.15659 0.35737 0.33839 0.0
O366 O 0.19706 0.3973 0.35451 0.0
O367 O 0.24864 0.38674 0.35536 0.0
O368 O 0.22008 0.37157 0.32534 0.0
C369 C 0.17166 0.38627 0.34265 0.0
O370 O 0.20563 0.39476 0.40067 0.0
O371 O 0.24344 0.38335 0.40122 0.0
O372 O 0.20501 0.32227 0.38164 0.0
O373 O 0.21437 0.31856 0.34894 0.0
O374 O 0.14566 0.3007 0.35802 0.0
O375 O 0.15549 0.33789 0.38053 0.0
C376 C 0.24662 0.38845 0.33545 0.0
O377 O 0.17585 0.29626 0.31563 0.0
O378 O 0.15209 0.32215 0.30798 0.0
C379 C 0.22296 0.38389 0.4325 0.0
C380 C 0.21263 0.36253 0.47316 0.0
C381 C 0.24171 0.38718 0.46757 0.0
C382 C 0.24679 0.39776 0.44743 0.0
C383 C 0.19398 0.35919 0.43793 0.0
C384 C 0.1888 0.34872 0.45807 0.0
C385 C 0.229 0.39439 0.41124 0.0
H386 H 0.154 0.31567 0.23195 0.0
H387 H 0.13084 0.29569 0.26486 0.0
H388 H 0.22383 0.33261 0.29305 0.0
H389 H 0.24728 0.35153 0.26011 0.0
H390 H 0.26076 0.39806 0.4787 0.0
H391 H 0.26944 0.41661 0.44346 0.0
H392 H 0.17535 0.34794 0.42658 0.0
H393 H 0.16597 0.33 0.46182 0.0
Tb394 Tb 0.69813 0.87096 0.32991 0.0
Eu395 Eu 0.66146 0.85113 0.37356 0.0
C396 C 0.72682 0.91486 0.36697 0.0
C397 C 0.72337 0.84592 0.367 0.0
C398 C 0.7064 0.8787 0.27417 0.0
C399 C 0.66127 0.86688 0.25123 0.0
C400 C 0.67444 0.87046 0.27094 0.0
C401 C 0.72504 0.88352 0.25749 0.0
C402 C 0.71192 0.87993 0.23779 0.0
C403 C 0.67981 0.87143 0.23438 0.0
C404 C 0.72018 0.8812 0.29483 0.0
O405 O 0.65021 0.83452 0.32434 0.0
O406 O 0.64283 0.80932 0.35475 0.0
O407 O 0.63244 0.86483 0.35221 0.0
O408 O 0.67252 0.89622 0.33128 0.0
C409 C 0.63584 0.80948 0.33535 0.0
O410 O 0.63861 0.81586 0.39672 0.0
O411 O 0.64264 0.86006 0.40026 0.0
O412 O 0.70026 0.89964 0.37663 0.0
O413 O 0.73225 0.90563 0.35006 0.0
O414 O 0.71794 0.84552 0.34727 0.0
O415 O 0.70758 0.85228 0.37952 0.0
C416 C 0.64429 0.88656 0.33826 0.0
O417 O 0.72038 0.90194 0.30593 0.0
O418 O 0.71098 0.85565 0.30496 0.0
C419 C 0.65022 0.83494 0.42997 0.0
C420 C 0.68003 0.83783 0.46852 0.0
C421 C 0.67411 0.86142 0.46136 0.0
C422 C 0.65938 0.85999 0.44231 0.0
C423 C 0.65522 0.81092 0.43746 0.0
C424 C 0.67006 0.81242 0.45642 0.0
C425 C 0.63664 0.83416 0.40914 0.0
H426 H 0.63658 0.86063 0.24919 0.0
H427 H 0.65965 0.86659 0.28368 0.0
H428 H 0.74969 0.88966 0.25971 0.0
H429 H 0.7268 0.88313 0.22525 0.0
H430 H 0.68164 0.8814 0.47025 0.0
H431 H 0.65571 0.87879 0.43711 0.0
H432 H 0.64811 0.79105 0.42853 0.0
H433 H 0.67373 0.79362 0.46162 0.0
Tb434 Tb 0.17548 0.83564 0.38264 0.0
Eu435 Eu 0.16007 0.84422 0.33339 0.0
C436 C 0.16962 0.7885 0.35113 0.0
C437 C 0.22944 0.86721 0.35135 0.0
C438 C 0.17044 0.83261 0.43875 0.0
C439 C 0.16681 0.82772 0.47541 0.0
C440 C 0.18 0.82552 0.45766 0.0
C441 C 0.14692 0.84133 0.43775 0.0
C442 C 0.13375 0.84364 0.45552 0.0
C443 C 0.1438 0.83723 0.47465 0.0
C444 C 0.18591 0.83185 0.42031 0.0
O445 O 0.15469 0.86517 0.38083 0.0
O446 O 0.1711 0.8871 0.34957 0.0
O447 O 0.1135 0.82608 0.34844 0.0
O448 O 0.12509 0.80631 0.37805 0.0
C449 C 0.16183 0.88771 0.36777 0.0
O450 O 0.17181 0.87436 0.3066 0.0
O451 O 0.13586 0.82745 0.30409 0.0
O452 O 0.1533 0.79701 0.33854 0.0
O453 O 0.18544 0.80433 0.36702 0.0
O454 O 0.21962 0.86903 0.36914 0.0
O455 O 0.20957 0.8522 0.33666 0.0
C456 C 0.10499 0.80919 0.36518 0.0
O457 O 0.17018 0.80841 0.40891 0.0
O458 O 0.19891 0.85704 0.40954 0.0
C459 C 0.16565 0.85197 0.27484 0.0
C460 C 0.19118 0.85279 0.23701 0.0
C461 C 0.16823 0.86204 0.2384 0.0
C462 C 0.15566 0.86163 0.25707 0.0
C463 C 0.18835 0.84244 0.27365 0.0
C464 C 0.2009 0.84272 0.25489 0.0
C465 C 0.15278 0.8531 0.2944 0.0
H466 H 0.17473 0.822 0.48977 0.0
H467 H 0.19798 0.81859 0.45874 0.0
H468 H 0.13916 0.84689 0.42327 0.0
H469 H 0.11635 0.85129 0.45426 0.0
H470 H 0.15972 0.86943 0.22499 0.0
H471 H 0.13818 0.86908 0.25763 0.0
H472 H 0.19655 0.83507 0.28722 0.0
H473 H 0.21867 0.83563 0.25445 0.0
Tb474 Tb 0.83808 0.65976 0.66485 0.0
Eu475 Eu 0.85801 0.69388 0.70859 0.0
C476 C 0.86068 0.6331 0.70182 0.0
C477 C 0.78991 0.63759 0.7005 0.0
C478 C 0.8388 0.64631 0.6098 0.0
C479 C 0.86235 0.63947 0.58023 0.0
C480 C 0.85098 0.63052 0.5998 0.0
C481 C 0.83836 0.67142 0.59989 0.0
C482 C 0.84952 0.68026 0.58026 0.0
C483 C 0.8616 0.66435 0.57011 0.0
C484 C 0.82675 0.63614 0.63045 0.0
O485 O 0.83936 0.70332 0.65918 0.0
O486 O 0.82764 0.71021 0.69101 0.0
O487 O 0.89299 0.72607 0.68604 0.0
O488 O 0.8892 0.6891 0.66565 0.0
C489 C 0.82815 0.71537 0.67133 0.0
O490 O 0.84579 0.70787 0.73601 0.0
O491 O 0.89408 0.71843 0.73181 0.0
O492 O 0.87597 0.6602 0.7094 0.0
O493 O 0.83989 0.6269 0.68678 0.0
O494 O 0.7938 0.64321 0.68084 0.0
O495 O 0.81364 0.64976 0.71365 0.0
C496 C 0.9043 0.71717 0.67181 0.0
O497 O 0.84651 0.63458 0.64397 0.0
O498 O 0.8105 0.64761 0.63782 0.0
C499 C 0.8744 0.70382 0.76482 0.0
C500 C 0.87137 0.67567 0.80337 0.0
C501 C 0.86437 0.69972 0.80078 0.0
C502 C 0.86594 0.71367 0.78171 0.0
C503 C 0.88168 0.68003 0.76731 0.0
C504 C 0.8804 0.66627 0.78639 0.0
C505 C 0.87372 0.71711 0.74452 0.0
H506 H 0.87187 0.62693 0.57309 0.0
H507 H 0.8517 0.61116 0.60715 0.0
H508 H 0.8292 0.68415 0.6072 0.0
H509 H 0.84803 0.69921 0.57289 0.0
H510 H 0.85675 0.70725 0.81336 0.0
H511 H 0.85988 0.73173 0.78006 0.0
H512 H 0.88798 0.67178 0.75446 0.0
H513 H 0.88636 0.64814 0.78777 0.0
Tb514 Tb 0.3579 0.1909 0.66664 0.0
Eu515 Eu 0.32917 0.18669 0.71242 0.0
C516 C 0.39678 0.24162 0.70009 0.0
C517 C 0.38384 0.16883 0.70494 0.0
C518 C 0.36103 0.19261 0.60975 0.0
C519 C 0.36016 0.21648 0.57695 0.0
C520 C 0.37205 0.21844 0.59686 0.0
C521 C 0.33756 0.16467 0.6023 0.0
C522 C 0.32574 0.16266 0.58227 0.0
C523 C 0.33711 0.18853 0.56927 0.0
C524 C 0.37505 0.1956 0.63056 0.0
O525 O 0.32071 0.14418 0.67135 0.0
O526 O 0.29017 0.15316 0.69219 0.0
O527 O 0.31975 0.21989 0.6936 0.0
O528 O 0.31875 0.20058 0.66273 0.0
C529 C 0.29331 0.13605 0.67917 0.0
O530 O 0.30249 0.15713 0.73751 0.0
O531 O 0.31991 0.2055 0.73866 0.0
O532 O 0.37805 0.22572 0.71475 0.0
O533 O 0.39143 0.23345 0.68101 0.0
O534 O 0.38904 0.18095 0.68652 0.0
O535 O 0.35976 0.16458 0.71547 0.0
C536 C 0.31258 0.21753 0.67414 0.0
O537 O 0.37736 0.21811 0.64072 0.0
O538 O 0.36629 0.17114 0.64197 0.0
C539 C 0.31964 0.17942 0.76939 0.0
C540 C 0.34341 0.17768 0.80916 0.0
C541 C 0.31134 0.16914 0.8055 0.0
C542 C 0.2996 0.17001 0.7858 0.0
C543 C 0.35162 0.18794 0.77289 0.0
C544 C 0.36341 0.18713 0.79258 0.0
C545 C 0.30694 0.17959 0.74867 0.0
H546 H 0.36911 0.23698 0.56757 0.0
H547 H 0.39011 0.24027 0.60219 0.0
H548 H 0.32857 0.1443 0.61183 0.0
H549 H 0.30826 0.14069 0.57684 0.0
H550 H 0.29535 0.16219 0.8179 0.0
H551 H 0.27484 0.16331 0.78339 0.0
H552 H 0.36742 0.19511 0.76037 0.0
H553 H 0.38812 0.19353 0.79478 0.0
Tb554 Tb 0.84204 0.16076 0.71477 0.0
Eu555 Eu 0.82941 0.17394 0.66594 0.0
C556 C 0.82699 0.1114 0.68159 0.0
C557 C 0.89501 0.17881 0.68367 0.0
C558 C 0.83534 0.15853 0.77095 0.0
C559 C 0.82876 0.15234 0.80738 0.0
C560 C 0.84052 0.14756 0.78984 0.0
C561 C 0.81823 0.17445 0.76979 0.0
C562 C 0.80649 0.17932 0.78736 0.0
C563 C 0.81154 0.16827 0.80642 0.0
C564 C 0.84637 0.15166 0.75255 0.0
O565 O 0.86471 0.20955 0.70908 0.0
O566 O 0.83095 0.21137 0.68418 0.0
O567 O 0.78172 0.14664 0.67983 0.0
O568 O 0.79885 0.16368 0.7119 0.0
C569 C 0.85202 0.22419 0.69889 0.0
O570 O 0.80731 0.15943 0.63579 0.0
O571 O 0.84121 0.20654 0.64056 0.0
O572 O 0.83303 0.13126 0.6666 0.0
O573 O 0.82492 0.11716 0.70049 0.0
O574 O 0.88154 0.16213 0.69984 0.0
O575 O 0.88139 0.19103 0.67175 0.0
C576 C 0.77593 0.14981 0.69848 0.0
O577 O 0.82424 0.13253 0.74052 0.0
O578 O 0.86793 0.17457 0.74244 0.0
C579 C 0.84145 0.1863 0.60882 0.0
C580 C 0.87216 0.18658 0.57326 0.0
C581 C 0.83914 0.17439 0.57326 0.0
C582 C 0.82405 0.17434 0.59079 0.0
C583 C 0.87439 0.19835 0.60899 0.0
C584 C 0.88954 0.1986 0.59143 0.0
C585 C 0.82495 0.18589 0.62723 0.0
H586 H 0.83272 0.14305 0.82166 0.0
H587 H 0.85333 0.1349 0.79101 0.0
H588 H 0.81379 0.18293 0.7553 0.0
H589 H 0.79371 0.192 0.786 0.0
H590 H 0.82475 0.16434 0.5598 0.0
H591 H 0.79864 0.16475 0.59029 0.0
H592 H 0.8885 0.20762 0.6227 0.0
H593 H 0.91496 0.20853 0.59209 0.0
H594 H 0.32552 0.83983 0.10342 0.0
H595 H 0.25685 0.85678 0.06936 0.0
H596 H 0.29972 0.90131 0.05226 0.0
H597 H 0.38735 0.92287 0.10862 0.0
H598 H 0.41913 0.91449 0.10605 0.0
H599 H 0.38323 0.88684 0.11766 0.0
H600 H 0.37767 0.84743 0.09186 0.0
H601 H 0.41305 0.87507 0.07985 0.0
H602 H 0.3767 0.85599 0.06512 0.0
H603 H 0.34898 0.93744 0.03442 0.0
H604 H 0.40247 0.96923 0.02127 0.0
H605 H 0.44072 0.93241 0.06851 0.0
C606 C 0.3198 0.85399 0.09316 0.0
C607 C 0.28798 0.84559 0.0881 0.0
C608 C 0.28113 0.86361 0.07384 0.0
C609 C 0.30531 0.88866 0.06392 0.0
C610 C 0.33644 0.89571 0.06859 0.0
C611 C 0.34388 0.8795 0.0833 0.0
C612 C 0.37928 0.89109 0.08466 0.0
C613 C 0.39306 0.90463 0.10549 0.0
C614 C 0.38712 0.86589 0.0801 0.0
C615 C 0.39033 0.91556 0.068 0.0
C616 C 0.36516 0.91762 0.0588 0.0
C617 C 0.36898 0.93659 0.04185 0.0
C618 C 0.39937 0.95435 0.03435 0.0
C619 C 0.42567 0.95349 0.04399 0.0
C620 C 0.42103 0.93387 0.06107 0.0
H621 H 0.1856 0.46825 0.09363 0.0
H622 H 0.17831 0.4089 0.04608 0.0
H623 H 0.14251 0.42296 0.02607 0.0
H624 H 0.10326 0.45005 0.0899 0.0
H625 H 0.11164 0.48799 0.09527 0.0
H626 H 0.13732 0.4738 0.10549 0.0
H627 H 0.18491 0.51971 0.08901 0.0
H628 H 0.15932 0.53387 0.07857 0.0
H629 H 0.18357 0.52708 0.06211 0.0
H630 H 0.10899 0.44442 1.011 0.0
H631 H 0.0755 0.46812 1.00294 0.0
H632 H 0.10182 0.51132 0.06131 0.0
C633 C 0.1761 0.45803 0.07912 0.0
C634 C 0.18477 0.43772 0.07121 0.0
C635 C 0.17221 0.42487 0.05213 0.0
C636 C 0.15187 0.43266 0.04074 0.0
C637 C 0.14404 0.45303 0.04883 0.0
C638 C 0.15537 0.46523 0.06769 0.0
C639 C 0.14246 0.48587 0.07309 0.0
C640 C 0.12248 0.47369 0.09206 0.0
C641 C 0.16916 0.51857 0.07585 0.0
C642 C 0.12222 0.48343 0.05427 0.0
C643 C 0.12375 0.46461 0.0404 0.0
C644 C 0.10745 0.4591 0.02176 0.0
C645 C 0.08861 0.4728 0.0173 0.0
C646 C 0.08599 0.49154 0.0315 0.0
C647 C 0.10326 0.49704 0.05016 0.0
H648 H 0.5761 0.72371 0.0779 0.0
H649 H 0.48068 0.70988 0.07647 0.0
H650 H 0.46147 0.66016 0.06075 0.0
H651 H 0.57208 0.68699 0.03203 0.0
H652 H 0.59469 0.66941 0.04227 0.0
H653 H 0.6011 0.70467 0.05217 0.0
H654 H 0.59018 0.68048 0.08838 0.0
H655 H 0.58397 0.64522 0.07861 0.0
H656 H 0.55384 0.64608 0.09293 0.0
H657 H 0.45319 0.61242 0.04425 0.0
H658 H 0.4554 0.56792 0.0319 0.0
H659 H 0.55533 0.61063 0.0478 0.0
C660 C 0.55115 0.71007 0.07442 0.0
C661 C 0.5299 0.72081 0.07805 0.0
C662 C 0.49742 0.70241 0.07324 0.0
C663 C 0.48631 0.67409 0.06446 0.0
C664 C 0.50793 0.66421 0.06098 0.0
C665 C 0.53959 0.68143 0.06615 0.0
C666 C 0.55765 0.66491 0.06193 0.0
C667 C 0.58287 0.68255 0.04616 0.0
C668 C 0.57226 0.65881 0.08164 0.0
C669 C 0.53126 0.63581 0.05344 0.0
C670 C 0.50283 0.636 0.05273 0.0
C671 C 0.47527 0.61193 0.04488 0.0
C672 C 0.47676 0.58685 0.03781 0.0
C673 C 0.50547 0.58586 0.039 0.0
C674 C 0.53301 0.61071 0.04689 0.0
H675 H 0.8275 0.32762 0.95114 0.0
H676 H 0.84276 0.26454 0.99059 0.0
H677 H 0.88731 0.30752 1.00808 0.0
H678 H 0.90986 0.38082 0.94503 0.0
H679 H 0.90472 0.41394 0.94456 0.0
H680 H 0.87302 0.37836 0.9359 0.0
H681 H 0.8359 0.38136 0.96136 0.0
H682 H 0.86748 0.41697 0.97007 0.0
H683 H 0.84738 0.38594 0.98789 0.0
H684 H 0.92964 0.35699 0.02125 0.0
H685 H 0.96876 0.40984 0.02866 0.0
H686 H 0.92861 0.44167 0.97929 0.0
C687 C 0.84026 0.32308 0.96354 0.0
C688 C 0.83167 0.29294 0.96982 0.0
C689 C 0.84888 0.28757 0.9859 0.0
C690 C 0.87417 0.31178 0.99581 0.0
C691 C 0.88221 0.34127 0.98923 0.0
C692 C 0.86593 0.34708 0.9734 0.0
C693 C 0.88022 0.38093 0.96891 0.0
C694 C 0.8927 0.38898 0.94732 0.0
C695 C 0.85632 0.39195 0.97226 0.0
C696 C 0.90701 0.39322 0.98472 0.0
C697 C 0.90751 0.3699 0.99635 0.0
C698 C 0.92956 0.37543 1.01219 0.0
C699 C 0.95167 0.40557 0.01631 0.0
C700 C 0.95188 0.42992 1.00452 0.0
C701 C 0.92927 0.42355 0.98844 0.0
H702 H 0.75318 0.6022 0.99444 0.0
H703 H 0.72496 0.56883 0.93356 0.0
H704 H 0.66953 0.55317 0.94046 0.0
H705 H 0.68728 0.53918 0.01762 0.0
H706 H 0.6833 0.56119 0.0368 0.0
H707 H 0.72128 0.57309 0.02646 0.0
H708 H 0.72625 0.62554 0.01651 0.0
H709 H 0.68829 0.61383 0.02684 0.0
H710 H 0.69559 0.6275 1.00092 0.0
H711 H 0.61795 0.54078 0.95374 0.0
H712 H 0.57142 0.52857 0.97345 0.0
H713 H 0.63117 0.56417 0.02737 0.0
C714 C 0.73522 0.59163 0.98264 0.0
C715 C 0.74316 0.58702 0.96337 0.0
C716 C 0.71923 0.57312 0.94822 0.0
C717 C 0.68778 0.56404 0.95205 0.0
C718 C 0.68062 0.56845 0.97128 0.0
C719 C 0.70349 0.58158 0.98644 0.0
C720 C 0.68891 0.5815 1.00621 0.0
C721 C 0.69559 0.56261 0.02275 0.0
C722 C 0.70045 0.61403 0.01301 0.0
C723 C 0.65428 0.56627 0.99974 0.0
C724 C 0.65026 0.55943 0.97942 0.0
C725 C 0.62074 0.54594 0.96966 0.0
C726 C 0.59453 0.53923 0.98094 0.0
C727 C 0.59792 0.54559 1.00182 0.0
C728 C 0.62811 0.55903 1.01143 0.0
H729 H 0.44267 0.17718 0.99033 0.0
H730 H 0.4787 0.19564 0.92981 0.0
H731 H 0.48886 0.15197 0.93353 0.0
H732 H 0.50117 0.16218 1.01209 0.0
H733 H 0.47586 0.13294 0.02959 0.0
H734 H 0.46675 0.16233 0.02098 0.0
H735 H 0.4113 0.12184 1.00831 0.0
H736 H 0.42014 0.09225 0.01702 0.0
H737 H 0.40776 0.09376 0.99099 0.0
H738 H 0.49947 0.1092 0.94515 0.0
H739 H 0.51001 0.07107 0.96348 0.0
H740 H 0.47012 0.08265 0.01746 0.0
C741 C 0.45224 0.17164 0.97778 0.0
C742 C 0.45961 0.18948 0.9597 0.0
C743 C 0.47222 0.18178 0.94359 0.0
C744 C 0.47827 0.15718 0.94565 0.0
C745 C 0.47168 0.14063 0.96397 0.0
C746 C 0.45887 0.14751 0.97975 0.0
C747 C 0.45646 0.12795 0.99845 0.0
C748 C 0.47624 0.14752 0.01633 0.0
C749 C 0.42185 0.10775 1.00401 0.0
C750 C 0.47046 0.10932 0.99088 0.0
C751 C 0.47872 0.11671 0.97088 0.0
C752 C 0.49285 0.10308 0.96076 0.0
C753 C 0.49878 0.08143 0.97134 0.0
C754 C 0.49091 0.07377 0.99195 0.0
C755 C 0.4764 0.0879 1.00173 0.0
H756 H 0.70878 0.21313 0.96745 0.0
H757 H 0.75758 0.16651 0.94827 0.0
H758 H 0.71248 0.1173 0.95856 0.0
H759 H 0.68126 0.16927 0.01251 0.0
H760 H 0.64417 0.1695 1.01178 0.0
H761 H 0.67796 0.20036 1.00018 0.0
H762 H 0.64645 0.19178 0.96601 0.0
H763 H 0.61244 0.16103 0.97754 0.0
H764 H 0.62784 0.15475 0.95513 0.0
H765 H 0.66284 0.07332 0.9728 0.0
H766 H 0.6138 0.0385 0.99019 0.0
H767 H 0.60002 0.11466 1.00333 0.0
C768 C 0.70985 0.19252 0.96532 0.0
C769 C 0.73663 0.19361 0.95695 0.0
C770 C 0.73704 0.16615 0.95421 0.0
C771 C 0.71164 0.13814 0.9602 0.0
C772 C 0.68609 0.138 0.9691 0.0
C773 C 0.68505 0.16453 0.97166 0.0
C774 C 0.65608 0.15855 0.98296 0.0
C775 C 0.66544 0.17542 1.00305 0.0
C776 C 0.63442 0.16703 0.96961 0.0
C777 C 0.64109 0.12453 0.98661 0.0
C778 C 0.65851 0.11303 0.97823 0.0
C779 C 0.64911 0.08214 0.97944 0.0
C780 C 0.62121 0.06252 0.98939 0.0
C781 C 0.60321 0.07384 0.99835 0.0
C782 C 0.61347 0.10533 0.99692 0.0
H783 H 0.87748 0.61231 0.95947 0.0
H784 H 0.79457 0.52385 0.95787 0.0
H785 H 0.82651 0.50007 0.97076 0.0
H786 H 0.93373 0.58473 0.94454 0.0
H787 H 0.96498 0.61171 0.96059 0.0
H788 H 0.93618 0.62088 0.94875 0.0
H789 H 0.92384 0.63189 0.98406 0.0
H790 H 0.95189 0.62197 0.99606 0.0
H791 H 0.91152 0.60273 1.00372 0.0
H792 H 0.86501 0.48752 0.98957 0.0
H793 H 0.91034 0.48529 1.00694 0.0
H794 H 0.96971 0.58121 0.99374 0.0
C795 C 0.8665 0.58787 0.96119 0.0
C796 C 0.83367 0.5698 0.95813 0.0
C797 C 0.8197 0.53791 0.96053 0.0
C798 C 0.83762 0.5243 0.96781 0.0
C799 C 0.86966 0.54289 0.97197 0.0
C800 C 0.88426 0.57387 0.96811 0.0
C801 C 0.91888 0.58871 0.97449 0.0
C802 C 0.93967 0.60231 0.95599 0.0
C803 C 0.92698 0.61274 0.99053 0.0
C804 C 0.92103 0.56148 0.98343 0.0
C805 C 0.89233 0.5353 0.98188 0.0
C806 C 0.88779 0.50772 0.99049 0.0
C807 C 0.91349 0.50675 1.00055 0.0
C808 C 0.94332 0.53308 1.00166 0.0
C809 C 0.94711 0.56074 0.99296 0.0
H810 H 0.44811 0.2838 0.99625 0.0
H811 H 0.51855 0.31128 0.9509 0.0
H812 H 0.54235 0.36459 0.96152 0.0
H813 H 0.43532 0.34633 0.9891 0.0
H814 H 0.42978 0.34994 0.01537 0.0
H815 H 0.42086 0.31361 1.00606 0.0
H816 H 0.45885 0.30937 0.03347 0.0
H817 H 0.46789 0.34576 0.04288 0.0
H818 H 0.4992 0.3392 0.03534 0.0
H819 H 0.55446 0.41465 0.9741 0.0
H820 H 0.5546 0.45927 0.98791 0.0
H821 H 0.47692 0.4003 0.02601 0.0
C822 C 0.46901 0.30113 0.98903 0.0
C823 C 0.48202 0.29388 0.97301 0.0
C824 C 0.50877 0.31681 0.96335 0.0
C825 C 0.52234 0.34694 0.96931 0.0
C826 C 0.5088 0.35364 0.985 0.0
C827 C 0.48279 0.33144 0.99481 0.0
C828 C 0.47141 0.34523 1.01006 0.0
C829 C 0.43733 0.33837 1.00483 0.0
C830 C 0.47454 0.33423 0.03173 0.0
C831 C 0.49458 0.37867 1.00691 0.0
C832 C 0.51606 0.38288 0.99247 0.0
C833 C 0.53817 0.41167 0.98568 0.0
C834 C 0.53803 0.43685 0.99357 0.0
C835 C 0.51607 0.43314 1.00818 0.0
C836 C 0.49448 0.40371 0.01525 0.0
H837 H 0.18744 0.71133 0.09802 0.0
H838 H 0.2094 0.76962 0.04419 0.0
H839 H 0.17355 0.72568 0.02367 0.0
H840 H 0.17673 0.64329 0.07518 0.0
H841 H 0.14315 0.61817 0.08986 0.0
H842 H 0.17266 0.65365 0.10012 0.0
H843 H 0.12967 0.66869 0.10588 0.0
H844 H 0.10004 0.63319 0.09572 0.0
H845 H 0.10423 0.66843 0.0849 0.0
H846 H 0.13636 0.67502 1.0088 0.0
H847 H 0.09544 0.62255 1.00125 0.0
H848 H 0.09188 0.59824 0.06527 0.0
C849 C 0.18464 0.71479 0.08192 0.0
C850 C 0.20199 0.74382 0.07261 0.0
C851 C 0.1974 0.74745 0.05152 0.0
C852 C 0.17683 0.72265 0.03977 0.0
C853 C 0.16025 0.69435 0.04939 0.0
C854 C 0.16342 0.69037 0.07005 0.0
C855 C 0.14112 0.65798 0.0768 0.0
C856 C 0.15953 0.64235 0.08603 0.0
C857 C 0.11735 0.65702 0.09171 0.0
C858 C 0.12507 0.64439 0.0567 0.0
C859 C 0.13689 0.66566 0.04103 0.0
C860 C 0.12669 0.65825 0.02096 0.0
C861 C 0.10355 0.6284 0.01681 0.0
C862 C 0.09035 0.6065 0.03267 0.0
C863 C 0.10131 0.61468 0.05287 0.0
H864 H 0.30798 0.46186 0.10023 0.0
H865 H 0.24831 0.37858 0.06933 0.0
H866 H 0.29506 0.38108 0.05404 0.0
H867 H 0.35515 0.49917 0.06181 0.0
H868 H 0.39195 0.51862 0.07603 0.0
H869 H 0.35541 0.5072 0.08811 0.0
H870 H 0.36891 0.47674 0.11579 0.0
H871 H 0.40609 0.48881 0.10418 0.0
H872 H 0.37953 0.44899 0.10846 0.0
H873 H 0.34609 0.39857 0.03677 0.0
H874 H 0.39951 0.42565 0.02276 0.0
H875 H 0.42656 0.49656 0.06617 0.0
C876 C 0.30523 0.4433 0.09127 0.0
C877 C 0.27497 0.41951 0.08636 0.0
C878 C 0.27162 0.39637 0.07364 0.0
C879 C 0.29796 0.39781 0.06479 0.0
C880 C 0.32748 0.42242 0.06909 0.0
C881 C 0.33141 0.44435 0.0825 0.0
C882 C 0.36516 0.46986 0.08311 0.0
C883 C 0.36699 0.5005 0.07689 0.0
C884 C 0.38085 0.47116 0.10413 0.0
C885 C 0.37916 0.45955 0.06732 0.0
C886 C 0.35711 0.43214 0.05941 0.0
C887 C 0.36382 0.41963 0.04324 0.0
C888 C 0.39405 0.43527 0.03523 0.0
C889 C 0.41715 0.46295 0.04353 0.0
C890 C 0.40951 0.4751 0.05979 0.0
H891 H 0.56911 0.83588 0.05853 0.0
H892 H 0.53352 0.82389 0.11882 0.0
H893 H 0.52919 0.87081 0.11375 0.0
H894 H 0.61024 0.919 0.05483 0.0
H895 H 0.59752 0.91975 0.02879 0.0
H896 H 0.60298 0.88852 0.0385 0.0
H897 H 0.54561 0.85079 0.02718 0.0
H898 H 0.53992 0.88184 0.0175 0.0
H899 H 0.5136 0.85534 0.03591 0.0
H900 H 0.52647 0.91779 0.10125 0.0
H901 H 0.52118 0.95835 0.08164 0.0
H902 H 0.55082 0.93481 0.02777 0.0
C903 C 0.56045 0.84326 0.07063 0.0
C904 C 0.55135 0.82628 0.089 0.0
C905 C 0.54073 0.83678 0.1047 0.0
C906 C 0.53813 0.8633 0.1019 0.0
C907 C 0.54596 0.8788 0.08322 0.0
C908 C 0.55662 0.86898 0.06778 0.0
C909 C 0.56019 0.88765 0.04844 0.0
C910 C 0.5948 0.90475 0.04229 0.0
C911 C 0.53854 0.86771 0.03125 0.0
C912 C 0.54942 0.90927 0.0553 0.0
C913 C 0.54212 0.90432 0.07556 0.0
C914 C 0.53208 0.92181 0.08539 0.0
C915 C 0.52919 0.94477 0.07418 0.0
C916 C 0.53549 0.94942 0.05328 0.0
C917 C 0.54571 0.93147 0.04374 0.0
H918 H 0.99092 0.15611 0.41369 0.0
H919 H 0.94805 0.21008 0.42922 0.0
H920 H 0.99655 0.25677 0.41968 0.0
H921 H 0.07299 0.20958 0.42723 0.0
H922 H 0.08815 0.20108 0.4056 0.0
H923 H 0.05215 0.17244 0.41654 0.0
H924 H 0.02302 0.16569 0.38161 0.0
H925 H 0.05886 0.19437 0.37057 0.0
H926 H 0.02373 0.1982 0.36847 0.0
H927 H 0.04903 0.29751 0.40686 0.0
H928 H 0.09994 0.32894 0.39053 0.0
H929 H 0.10599 0.24803 0.37893 0.0
C930 C 0.99165 0.17771 0.41505 0.0
C931 C 0.96546 0.17934 0.42216 0.0
C932 C 0.96788 0.20822 0.42416 0.0
C933 C 0.99528 0.23486 0.41859 0.0
C934 C 0.02007 0.2323 0.41081 0.0
C935 C 0.01845 0.20443 0.40894 0.0
C936 C 0.04721 0.20769 0.39858 0.0
C937 C 0.06625 0.19707 0.41284 0.0
C938 C 0.03763 0.19047 0.37863 0.0
C939 C 0.06516 0.24175 0.39468 0.0
C940 C 0.04935 0.25555 0.40223 0.0
C941 C 0.06151 0.28689 0.40085 0.0
C942 C 0.09048 0.30457 0.39155 0.0
C943 C 0.10684 0.29097 0.38328 0.0
C944 C 0.09385 0.25906 0.38485 0.0
H945 H 0.8311 0.76627 0.38555 0.0
H946 H 0.87041 0.82157 0.43847 0.0
H947 H 0.83861 0.84708 0.4298 0.0
H948 H 0.82873 0.826 0.35231 0.0
H949 H 0.79218 0.80013 0.3397 0.0
H950 H 0.81886 0.78694 0.34965 0.0
H951 H 0.77411 0.74498 0.37072 0.0
H952 H 0.74733 0.75805 0.36088 0.0
H953 H 0.75348 0.75538 0.38787 0.0
H954 H 0.80054 0.8636 0.41709 0.0
H955 H 0.75907 0.87224 0.40035 0.0
H956 H 0.74566 0.80868 0.35398 0.0
C957 C 0.83317 0.78404 0.39508 0.0
C958 C 0.85288 0.79199 0.41274 0.0
C959 C 0.85503 0.81506 0.42506 0.0
C960 C 0.83728 0.82972 0.42017 0.0
C961 C 0.81783 0.82123 0.40276 0.0
C962 C 0.81578 0.79914 0.39028 0.0
C963 C 0.79244 0.79399 0.3727 0.0
C964 C 0.80905 0.80226 0.35238 0.0
C965 C 0.76523 0.76115 0.37308 0.0
C966 C 0.78123 0.81624 0.37752 0.0
C967 C 0.79632 0.83164 0.39495 0.0
C968 C 0.78887 0.85203 0.40329 0.0
C969 C 0.76519 0.8567 0.39368 0.0
C970 C 0.74936 0.84131 0.3758 0.0
C971 C 0.75778 0.8211 0.36744 0.0
H972 H 0.22782 0.06358 0.38624 0.0
H973 H 0.16108 0.03625 0.43407 0.0
H974 H 0.13755 0.98271 0.42403 0.0
H975 H 0.17404 1.00779 0.34879 0.0
H976 H 0.20471 1.00157 0.33959 0.0
H977 H 0.21432 0.03791 0.34937 0.0
H978 H 0.25484 0.0343 0.37493 0.0
H979 H 0.24539 0.99803 0.36524 0.0
H980 H 0.2422 1.00168 0.39188 0.0
H981 H 0.12464 0.93247 0.41089 0.0
H982 H 0.1232 0.88805 0.39585 0.0
H983 H 0.19762 0.94749 0.35566 0.0
C984 C 0.20784 0.04626 0.39425 0.0
C985 C 0.19597 0.05372 0.41083 0.0
C986 C 0.17031 0.03067 0.42135 0.0
C987 C 0.15679 1.00038 0.41568 0.0
C988 C 0.16918 0.99364 0.39936 0.0
C989 C 0.19408 0.01588 0.38874 0.0
C990 C 0.20419 1.00224 0.37264 0.0
C991 C 0.199 0.01302 0.35133 0.0
C992 C 0.2387 1.00949 0.37641 0.0
C993 C 0.1816 0.96879 0.3762 0.0
C994 C 0.16146 0.96443 0.39158 0.0
C995 C 0.13993 0.93558 0.39863 0.0
C996 C 0.13935 0.9105 0.39001 0.0
C997 C 0.16009 0.91436 0.37446 0.0
C998 C 0.18102 0.94389 0.36719 0.0
H999 H 0.51428 0.63163 0.3228 0.0
H1000 H 0.48621 0.65602 0.26469 0.0
H1001 H 0.52165 0.71035 0.2712 0.0
H1002 H 0.52241 0.69769 0.35037 0.0
H1003 H 0.55638 0.70158 0.36522 0.0
H1004 H 0.52694 0.66479 0.3567 0.0
H1005 H 0.57012 0.65836 0.33968 0.0
H1006 H 0.59962 0.69521 0.34796 0.0
H1007 H 0.59481 0.68664 0.32144 0.0
H1008 H 0.56308 0.76117 0.28247 0.0
H1009 H 0.60586 0.80626 0.29871 0.0
H1010 H 0.60728 0.75019 0.35036 0.0
C1011 C 0.51522 0.64861 0.31176 0.0
C1012 C 0.49757 0.6399 0.29326 0.0
C1013 C 0.49962 0.66247 0.2789 0.0
C1014 C 0.51964 0.69328 0.28249 0.0
C1015 C 0.5374 0.70122 0.30061 0.0
C1016 C 0.5352 0.67965 0.31515 0.0
C1017 C 0.55788 0.69448 0.33298 0.0
C1018 C 0.53982 0.68933 0.35247 0.0
C1019 C 0.58204 0.68298 0.33566 0.0
C1020 C 0.57347 0.72761 0.32601 0.0
C1021 C 0.56122 0.73087 0.30729 0.0
C1022 C 0.57262 0.75896 0.29725 0.0
C1023 C 0.59708 0.78447 0.30659 0.0
C1024 C 0.60994 0.78191 0.32588 0.0
C1025 C 0.59779 0.753 0.33571 0.0
H1026 H 0.38141 0.90541 0.28918 0.0
H1027 H 0.43838 0.9653 0.33703 0.0
H1028 H 0.39004 0.95287 0.35539 0.0
H1029 H 0.31725 0.9231 0.28964 0.0
H1030 H 0.28722 0.88479 0.28461 0.0
H1031 H 0.3263 0.89884 0.27542 0.0
H1032 H 0.32995 0.85398 0.29383 0.0
H1033 H 0.29094 0.83989 0.30313 0.0
H1034 H 0.32357 0.84769 0.32066 0.0
H1035 H 0.33537 0.93237 0.36879 0.0
H1036 H 0.27846 0.90705 0.37568 0.0
H1037 H 0.25761 0.86145 0.31837 0.0
C1038 C 0.38343 0.91587 0.30348 0.0
C1039 C 0.41322 0.93595 0.31197 0.0
C1040 C 0.41549 0.94957 0.3306 0.0
C1041 C 0.38828 0.94269 0.34102 0.0
C1042 C 0.3591 0.92239 0.33241 0.0
C1043 C 0.35651 0.90934 0.31399 0.0
C1044 C 0.32244 0.88824 0.30803 0.0
C1045 C 0.31274 0.89942 0.28826 0.0
C1046 C 0.31638 0.85551 0.30632 0.0
C1047 C 0.30628 0.89133 0.32601 0.0
C1048 C 0.32776 0.91104 0.33994 0.0
C1049 C 0.31829 0.91699 0.35794 0.0
C1050 C 0.28595 0.90246 0.36175 0.0
C1051 C 0.26356 0.88236 0.34756 0.0
C1052 C 0.27405 0.87683 0.3295 0.0
H1053 H 0.18387 0.54372 0.30357 0.0
H1054 H 0.08266 0.49594 0.29343 0.0
H1055 H 0.08167 0.44734 0.3023 0.0
H1056 H 0.20133 0.48465 0.28755 0.0
H1057 H 0.23052 0.49223 0.30769 0.0
H1058 H 0.22363 0.52232 0.29731 0.0
H1059 H 0.21302 0.53282 0.33327 0.0
H1060 H 0.21954 0.5026 0.34374 0.0
H1061 H 0.18305 0.50244 0.34796 0.0
H1062 H 0.09171 0.40425 0.3143 0.0
H1063 H 0.11139 0.37054 0.32957 0.0
H1064 H 0.20539 0.44753 0.33537 0.0
C1065 C 0.16166 0.52286 0.30279 0.0
C1066 C 0.13346 0.52339 0.29711 0.0
C1067 C 0.10465 0.4959 0.29675 0.0
C1068 C 0.10387 0.46823 0.30207 0.0
C1069 C 0.13207 0.4686 0.30803 0.0
C1070 C 0.16044 0.49526 0.3085 0.0
C1071 C 0.18693 0.49003 0.3173 0.0
C1072 C 0.21209 0.49776 0.30152 0.0
C1073 C 0.20148 0.50804 0.33672 0.0
C1074 C 0.16903 0.45627 0.32192 0.0
C1075 C 0.13751 0.44423 0.31618 0.0
C1076 C 0.11634 0.41345 0.31885 0.0
C1077 C 0.12772 0.3945 0.32754 0.0
C1078 C 0.15983 0.40649 0.3338 0.0
C1079 C 0.18064 0.4378 0.33096 0.0
H1080 H 0.42137 0.52722 0.31991 0.0
H1081 H 0.39397 0.53137 0.2569 0.0
H1082 H 0.34265 0.48554 0.26251 0.0
H1083 H 0.38096 0.4448 0.32695 0.0
H1084 H 0.36888 0.44575 0.3521 0.0
H1085 H 0.40462 0.47691 0.34262 0.0
H1086 H 0.38413 0.51423 0.34988 0.0
H1087 H 0.34837 0.48321 0.35939 0.0
H1088 H 0.34645 0.50765 0.33916 0.0
H1089 H 0.29327 0.44046 0.27542 0.0
H1090 H 0.24906 0.40107 0.29458 0.0
H1091 H 0.30688 0.42803 0.35006 0.0
C1092 C 0.40458 0.51836 0.3073 0.0
C1093 C 0.41187 0.53267 0.28787 0.0
C1094 C 0.38929 0.52037 0.27174 0.0
C1095 C 0.35995 0.49448 0.27485 0.0
C1096 C 0.35334 0.48121 0.29426 0.0
C1097 C 0.37497 0.49281 0.31025 0.0
C1098 C 0.36129 0.47543 0.32987 0.0
C1099 C 0.38006 0.4598 0.33838 0.0
C1100 C 0.35998 0.49638 0.3455 0.0
C1101 C 0.32845 0.45238 0.32249 0.0
C1102 C 0.32451 0.45593 0.30185 0.0
C1103 C 0.29615 0.43751 0.29158 0.0
C1104 C 0.27109 0.41512 0.30266 0.0
C1105 C 0.27425 0.41131 0.32393 0.0
C1106 C 0.30355 0.43021 0.33386 0.0
H1107 H 0.48872 0.89279 0.30025 0.0
H1108 H 0.54713 0.98978 0.29205 0.0
H1109 H 0.5948 0.98467 0.29969 0.0
H1110 H 0.52933 0.88787 0.34397 0.0
H1111 H 0.52499 0.85113 0.33918 0.0
H1112 H 0.49614 0.86129 0.32892 0.0
H1113 H 0.50495 0.85006 0.2927 0.0
H1114 H 0.53356 0.83944 0.30287 0.0
H1115 H 0.54425 0.86839 0.28316 0.0
H1116 H 0.63558 0.96928 0.3109 0.0
H1117 H 0.66633 0.9454 0.32584 0.0
H1118 H 0.58039 0.85938 0.33117 0.0
C1119 C 0.51164 0.91281 0.2997 0.0
C1120 C 0.5144 0.94163 0.29519 0.0
C1121 C 0.54464 0.96743 0.29475 0.0
C1122 C 0.57178 0.96473 0.29932 0.0
C1123 C 0.56812 0.93609 0.30455 0.0
C1124 C 0.53878 0.91057 0.30482 0.0
C1125 C 0.54084 0.88304 0.31319 0.0
C1126 C 0.52169 0.87008 0.33246 0.0
C1127 C 0.53028 0.8588 0.29701 0.0
C1128 C 0.57589 0.89715 0.31795 0.0
C1129 C 0.59129 0.92762 0.31246 0.0
C1130 C 0.62379 0.94545 0.31524 0.0
C1131 C 0.64101 0.93173 0.32377 0.0
C1132 C 0.62561 0.9007 0.32984 0.0
C1133 C 0.59263 0.88326 0.32694 0.0
H1134 H 0.11014 0.628 0.30188 0.0
H1135 H 0.20082 0.63515 0.31913 0.0
H1136 H 0.21631 0.68335 0.33614 0.0
H1137 H 0.14085 0.70717 0.2891 0.0
H1138 H 0.10705 0.70859 0.29788 0.0
H1139 H 0.10265 0.67375 0.28854 0.0
H1140 H 0.07794 0.6461 0.32231 0.0
H1141 H 0.08246 0.68092 0.3318 0.0
H1142 H 0.09938 0.66047 0.34591 0.0
H1143 H 0.22135 0.73075 0.35139 0.0
H1144 H 0.21758 0.77572 0.36101 0.0
H1145 H 0.12535 0.73927 0.33083 0.0
C1146 C 0.13335 0.63989 0.30908 0.0
C1147 C 0.15432 0.62795 0.3093 0.0
C1148 C 0.18433 0.64384 0.31911 0.0
C1149 C 0.19331 0.6712 0.32871 0.0
C1150 C 0.17209 0.68247 0.32811 0.0
C1151 C 0.14288 0.66747 0.31832 0.0
C1152 C 0.12507 0.6851 0.31886 0.0
C1153 C 0.11853 0.69419 0.29731 0.0
C1154 C 0.0944 0.66706 0.33041 0.0
C1155 C 0.1488 0.71241 0.33049 0.0
C1156 C 0.1756 0.71031 0.33596 0.0
C1157 C 0.20053 0.73269 0.34711 0.0
C1158 C 0.19814 0.75805 0.35258 0.0
C1159 C 0.17126 0.76096 0.34657 0.0
C1160 C 0.1463 0.73774 0.33547 0.0
H1161 H 0.85774 0.08806 0.38532 0.0
H1162 H 0.88083 0.05663 0.44252 0.0
H1163 H 0.84124 1.00384 0.43464 0.0
H1164 H 0.77615 0.03769 0.38318 0.0
H1165 H 0.77314 0.03066 0.35647 0.0
H1166 H 0.80386 0.06598 0.36616 0.0
H1167 H 0.84617 0.0567 0.35052 0.0
H1168 H 0.81554 0.0215 0.34055 0.0
H1169 H 0.84703 0.02183 0.35649 0.0
H1170 H 0.79479 0.95616 0.4227 0.0
H1171 H 0.75014 0.91422 0.40481 0.0
H1172 H 0.76155 0.97406 0.35284 0.0
C1173 C 0.85493 0.06988 0.39588 0.0
C1174 C 0.87219 0.07625 0.41458 0.0
C1175 C 0.86765 0.05204 0.4282 0.0
C1176 C 0.84524 0.0221 0.42385 0.0
C1177 C 0.82811 0.01658 0.40551 0.0
C1178 C 0.83322 0.0396 0.39146 0.0
C1179 C 0.81182 0.02713 0.37273 0.0
C1180 C 0.78995 0.04121 0.36945 0.0
C1181 C 0.83131 0.03208 0.35396 0.0
C1182 C 0.79338 0.99369 0.37871 0.0
C1183 C 0.80293 0.9883 0.39784 0.0
C1184 C 0.7877 0.95989 0.4075 0.0
C1185 C 0.76237 0.93623 0.39725 0.0
C1186 C 0.75305 0.94079 0.37733 0.0
C1187 C 0.76879 0.96989 0.3679 0.0
H1188 H 0.96369 0.78076 0.4339 0.0
H1189 H 0.90025 0.72609 0.38606 0.0
H1190 H 0.94525 0.72912 0.36819 0.0
H1191 H 0.02189 0.83099 0.40443 0.0
H1192 H 0.05514 0.83518 0.42024 0.0
H1193 H 0.01795 0.82396 0.43141 0.0
H1194 H 0.01721 0.77564 0.44728 0.0
H1195 H 0.05492 0.78719 0.43659 0.0
H1196 H 0.02209 0.7503 0.43136 0.0
H1197 H 0.99719 0.7479 0.35215 0.0
H1198 H 0.05289 0.77334 0.34188 0.0
H1199 H 0.0829 0.8125 0.40119 0.0
C1200 C 0.95933 0.76818 0.42022 0.0
C1201 C 0.92875 0.75303 0.41129 0.0
C1202 C 0.92366 0.73757 0.39305 0.0
C1203 C 0.94904 0.7393 0.38282 0.0
C1204 C 0.97927 0.75602 0.39133 0.0
C1205 C 0.98451 0.76941 0.40995 0.0
C1206 C 0.0195 0.78797 0.41496 0.0
C1207 C 0.02916 0.8215 0.41792 0.0
C1208 C 0.02899 0.77445 0.43365 0.0
C1209 C 0.03296 0.78404 0.39588 0.0
C1210 C 0.00939 0.76562 0.38239 0.0
C1211 C 0.01593 0.76154 0.36282 0.0
C1212 C 0.04747 0.77624 0.35702 0.0
C1213 C 0.07186 0.79431 0.37088 0.0
C1214 C 0.06453 0.79811 0.39053 0.0
H1215 H 0.20919 0.17031 0.43251 0.0
H1216 H 0.26935 0.16642 0.38812 0.0
H1217 H 0.27594 0.21449 0.37209 0.0
H1218 H 0.1681 0.1949 0.39973 0.0
H1219 H 0.16498 0.22009 0.41676 0.0
H1220 H 0.16894 0.18822 0.42675 0.0
H1221 H 0.21827 0.22396 0.44827 0.0
H1222 H 0.21421 0.25599 0.43856 0.0
H1223 H 0.25081 0.25554 0.43609 0.0
H1224 H 0.26917 0.25784 0.35791 0.0
H1225 H 0.25329 0.29656 0.34808 0.0
H1226 H 0.19875 0.27388 0.40228 0.0
C1227 C 0.22464 0.18036 0.41989 0.0
C1228 C 0.23903 0.1651 0.41152 0.0
C1229 C 0.25839 0.17813 0.39467 0.0
C1230 C 0.26221 0.20531 0.38553 0.0
C1231 C 0.2467 0.21931 0.39359 0.0
C1232 C 0.2287 0.2076 0.41059 0.0
C1233 C 0.21266 0.22592 0.41524 0.0
C1234 C 0.17654 0.20609 0.41457 0.0
C1235 C 0.22472 0.24127 0.43576 0.0
C1236 C 0.22362 0.24905 0.39782 0.0
C1237 C 0.24332 0.24488 0.38556 0.0
C1238 C 0.25433 0.26179 0.36763 0.0
C1239 C 0.24504 0.2836 0.3621 0.0
C1240 C 0.22511 0.28845 0.37452 0.0
C1241 C 0.21455 0.2711 0.3927 0.0
H1242 H 0.65852 0.50245 0.76614 0.0
H1243 H 0.59133 0.52894 0.7407 0.0
H1244 H 0.63441 0.57359 0.7236 0.0
H1245 H 0.72601 0.58246 0.77335 0.0
H1246 H 0.75457 0.57133 0.76698 0.0
H1247 H 0.71912 0.54452 0.7794 0.0
H1248 H 0.70663 0.50713 0.75049 0.0
H1249 H 0.74148 0.53409 0.73768 0.0
H1250 H 0.70348 0.51901 0.72469 0.0
H1251 H 0.68314 0.60912 0.70423 0.0
H1252 H 0.73573 0.63916 0.68928 0.0
H1253 H 0.77235 0.59218 0.72945 0.0
C1254 C 0.65336 0.51867 0.75785 0.0
C1255 C 0.62191 0.51295 0.7551 0.0
C1256 C 0.61549 0.53368 0.74341 0.0
C1257 C 0.63975 0.55879 0.73348 0.0
C1258 C 0.67041 0.56308 0.7357 0.0
C1259 C 0.67747 0.54414 0.74815 0.0
C1260 C 0.71207 0.55292 0.74723 0.0
C1261 C 0.72894 0.56344 0.76797 0.0
C1262 C 0.71613 0.52672 0.73956 0.0
C1263 C 0.72315 0.57908 0.73186 0.0
C1264 C 0.6987 0.5844 0.72521 0.0
C1265 C 0.70262 0.60565 0.7097 0.0
C1266 C 0.73242 0.62237 0.70115 0.0
C1267 C 0.75802 0.6181 0.70834 0.0
C1268 C 0.75323 0.59618 0.7239 0.0
H1269 H 0.50444 0.10372 0.72449 0.0
H1270 H 0.52891 0.14838 0.78205 0.0
H1271 H 0.49177 0.16831 0.77404 0.0
H1272 H 0.49881 0.16557 0.69598 0.0
H1273 H 0.4667 0.14012 0.67972 0.0
H1274 H 0.49525 0.12951 0.69002 0.0
H1275 H 0.45022 0.08012 0.70531 0.0
H1276 H 0.42157 0.09067 0.6952 0.0
H1277 H 0.42323 0.08244 0.72194 0.0
H1278 H 0.4492 0.17932 0.76122 0.0
H1279 H 0.40785 0.18657 0.74253 0.0
H1280 H 0.41436 0.13935 0.69146 0.0
C1281 C 0.50205 0.11794 0.73524 0.0
C1282 C 0.51874 0.12405 0.75409 0.0
C1283 C 0.51555 0.14295 0.76779 0.0
C1284 C 0.49471 0.15441 0.76332 0.0
C1285 C 0.47798 0.14739 0.74481 0.0
C1286 C 0.48184 0.13013 0.73078 0.0
C1287 C 0.46138 0.12653 0.71185 0.0
C1288 C 0.48175 0.14132 0.69329 0.0
C1289 C 0.4377 0.09294 0.70838 0.0
C1290 C 0.4449 0.14391 0.71764 0.0
C1291 C 0.4547 0.15547 0.73682 0.0
C1292 C 0.44165 0.17079 0.74609 0.0
C1293 C 0.41807 0.17459 0.73544 0.0
C1294 C 0.40814 0.16355 0.71563 0.0
C1295 C 0.42188 0.14823 0.70652 0.0
H1296 H 0.8325 0.36538 0.72946 0.0
H1297 H 0.9318 0.41001 0.74653 0.0
H1298 H 0.93654 0.36735 0.73323 0.0
H1299 H 0.81645 0.29128 0.74285 0.0
H1300 H 0.78924 0.27321 0.72194 0.0
H1301 H 0.79419 0.30833 0.73111 0.0
H1302 H 0.80806 0.33285 0.69513 0.0
H1303 H 0.80295 0.2977 0.6858 0.0
H1304 H 0.83951 0.33225 0.68217 0.0
H1305 H 0.92919 0.31804 0.72174 0.0
H1306 H 0.91111 0.26588 0.71084 0.0
H1307 H 0.81685 0.25357 0.69915 0.0
C1308 C 0.85531 0.36634 0.72982 0.0
C1309 C 0.88197 0.3909 0.73872 0.0
C1310 C 0.91134 0.39133 0.73959 0.0
C1311 C 0.91417 0.36729 0.73208 0.0
C1312 C 0.88739 0.34315 0.7236 0.0
C1313 C 0.85856 0.34257 0.7222 0.0
C1314 C 0.83323 0.31321 0.71319 0.0
C1315 C 0.80672 0.29547 0.72817 0.0
C1316 C 0.82017 0.31938 0.69286 0.0
C1317 C 0.85217 0.29711 0.7102 0.0
C1318 C 0.88336 0.31485 0.71633 0.0
C1319 C 0.90499 0.30415 0.71654 0.0
C1320 C 0.89449 0.27448 0.7104 0.0
C1321 C 0.86274 0.25596 0.70394 0.0
C1322 C 0.84142 0.26757 0.70359 0.0
H1323 H 0.19746 0.973 0.62835 0.0
H1324 H 0.1118 0.97197 0.64503 0.0
H1325 H 0.14346 0.02184 0.66083 0.0
H1326 H 0.24509 1.00957 0.67239 0.0
H1327 H 0.28052 0.03231 0.65865 0.0
H1328 H 0.25117 0.99619 0.64913 0.0
H1329 H 0.2477 0.02214 0.615 0.0
H1330 H 0.27711 0.05833 0.62439 0.0
H1331 H 0.2394 0.05334 0.61493 0.0
H1332 H 0.1844 0.07138 0.67516 0.0
H1333 H 0.23154 0.11832 0.68582 0.0
H1334 H 0.29112 0.08898 0.65816 0.0
C1335 C 0.18547 0.98345 0.63522 0.0
C1336 C 0.15217 0.96854 0.63567 0.0
C1337 C 0.13726 0.98277 0.6449 0.0
C1338 C 0.15505 0.01114 0.65378 0.0
C1339 C 0.18782 0.02522 0.65311 0.0
C1340 C 0.20292 0.012 0.64393 0.0
C1341 C 0.23842 0.03233 0.64493 0.0
C1342 C 0.25476 0.01666 0.657 0.0
C1343 C 0.25142 0.04211 0.62354 0.0
C1344 C 0.24092 0.05893 0.65622 0.0
C1345 C 0.21143 0.05425 0.66087 0.0
C1346 C 0.20761 0.07534 0.67154 0.0
C1347 C 0.2346 0.10194 0.67758 0.0
C1348 C 0.26513 0.10746 0.67285 0.0
C1349 C 0.26817 0.08557 0.66196 0.0
H1350 H 0.05402 0.25277 0.6231 0.0
H1351 H 0.06373 0.17381 0.64088 0.0
H1352 H 0.01448 0.15278 0.65983 0.0
H1353 H 0.02333 0.26071 0.66765 0.0
H1354 H 0.99521 0.27047 0.65541 0.0
H1355 H 0.03076 0.27902 0.64289 0.0
H1356 H 0.99789 0.24867 0.61172 0.0
H1357 H 0.96223 0.2405 0.62398 0.0
H1358 H 0.96741 0.20995 0.61526 0.0
H1359 H 0.96655 0.14268 0.67894 0.0
H1360 H 0.91901 0.14033 0.69278 0.0
H1361 H 0.93853 0.22394 0.65992 0.0
C1362 C 0.0453 0.23073 0.63058 0.0
C1363 C 0.06262 0.21492 0.63074 0.0
C1364 C 0.05087 0.18635 0.64091 0.0
C1365 C 0.02299 0.17427 0.65163 0.0
C1366 C 0.00684 0.1908 0.65159 0.0
C1367 C 0.01713 0.21804 0.6409 0.0
C1368 C 0.99506 0.23096 0.64292 0.0
C1369 C 0.01212 0.26213 0.65281 0.0
C1370 C 0.97974 0.23261 0.62224 0.0
C1371 C 0.9712 0.20714 0.65685 0.0
C1372 C 0.97851 0.18428 0.66181 0.0
C1373 C 0.96039 0.16028 0.67499 0.0
C1374 C 0.93363 0.15928 0.68292 0.0
C1375 C 0.92516 0.18193 0.6774 0.0
C1376 C 0.9444 0.20624 0.66434 0.0
H1377 H 0.83309 0.8599 0.61358 0.0
H1378 H 0.73837 0.8285 0.63299 0.0
H1379 H 0.73616 0.78076 0.64661 0.0
H1380 H 0.82076 0.78255 0.59983 0.0
H1381 H 0.86019 0.79196 0.60861 0.0
H1382 H 0.85211 0.82118 0.59792 0.0
H1383 H 0.87594 0.85188 0.6305 0.0
H1384 H 0.88342 0.82253 0.64149 0.0
H1385 H 0.86003 0.83463 0.65468 0.0
H1386 H 0.74851 0.74189 0.66365 0.0
H1387 H 0.77105 0.71004 0.67824 0.0
H1388 H 0.85632 0.76421 0.64521 0.0
C1389 C 0.81146 0.8422 0.61983 0.0
C1390 C 0.78555 0.84718 0.62189 0.0
C1391 C 0.75796 0.8244 0.63089 0.0
C1392 C 0.7567 0.79748 0.63876 0.0
C1393 C 0.78311 0.79362 0.63716 0.0
C1394 C 0.80968 0.81498 0.6274 0.0
C1395 C 0.83546 0.80606 0.62867 0.0
C1396 C 0.84254 0.80007 0.60749 0.0
C1397 C 0.86547 0.83021 0.63948 0.0
C1398 C 0.81975 0.77701 0.64136 0.0
C1399 C 0.78961 0.77033 0.64619 0.0
C1400 C 0.7717 0.74639 0.65949 0.0
C1401 C 0.78473 0.72861 0.66783 0.0
C1402 C 0.81511 0.73456 0.66258 0.0
C1403 C 0.83272 0.75889 0.64907 0.0
H1404 H 0.03967 0.88025 0.63539 0.0
H1405 H 0.09054 0.83626 0.6152 0.0
H1406 H 0.04553 0.78609 0.62419 0.0
H1407 H 0.01077 0.83366 0.6792 0.0
H1408 H 0.97344 0.83344 0.67819 0.0
H1409 H 0.00755 0.8652 0.66757 0.0
H1410 H 0.97739 0.85839 0.633 0.0
H1411 H 0.94309 0.8267 0.64355 0.0
H1412 H 0.9597 0.82213 0.62109 0.0
H1413 H 0.99528 0.74075 0.63699 0.0
H1414 H 0.94561 0.70455 0.6533 0.0
H1415 H 0.93035 0.77914 0.66824 0.0
C1416 C 0.04119 0.86 0.63275 0.0
C1417 C 0.0685 0.86207 0.62451 0.0
C1418 C 0.06962 0.83512 0.62115 0.0
C1419 C 0.04425 0.8066 0.62635 0.0
C1420 C 0.01807 0.80547 0.63507 0.0
C1421 C 0.01645 0.83154 0.63827 0.0
C1422 C 0.98688 0.82454 0.64921 0.0
C1423 C 0.99517 0.84013 0.66976 0.0
C1424 C 0.9655 0.83347 0.63592 0.0
C1425 C 0.97217 0.79043 0.65192 0.0
C1426 C 0.99022 0.77977 0.64338 0.0
C1427 C 0.98107 0.74892 0.64376 0.0
C1428 C 0.95282 0.72852 0.65307 0.0
C1429 C 0.93428 0.73903 0.66225 0.0
C1430 C 0.94423 0.77044 0.66163 0.0
H1431 H 0.17431 0.22082 0.60721 0.0
H1432 H 0.18663 0.29548 0.64285 0.0
H1433 H 0.2368 0.30025 0.65774 0.0
H1434 H 0.19572 0.18532 0.64366 0.0
H1435 H 0.21652 0.1726 0.62838 0.0
H1436 H 0.18617 0.17963 0.61694 0.0
H1437 H 0.22528 0.21756 0.59099 0.0
H1438 H 0.25577 0.21021 0.60209 0.0
H1439 H 0.2621 0.24852 0.59986 0.0
H1440 H 0.278 0.2893 0.67386 0.0
H1441 H 0.31083 0.26702 0.68771 0.0
H1442 H 0.27286 0.20013 0.64075 0.0
C1443 C 0.18861 0.23905 0.61738 0.0
C1444 C 0.17738 0.25815 0.6238 0.0
C1445 C 0.19558 0.28117 0.63765 0.0
C1446 C 0.22389 0.28388 0.64615 0.0
C1447 C 0.23369 0.26362 0.64034 0.0
C1448 C 0.21696 0.24204 0.62591 0.0
C1449 C 0.23051 0.22085 0.624 0.0
C1450 C 0.20576 0.18766 0.62853 0.0
C1451 C 0.24424 0.22451 0.60299 0.0
C1452 C 0.25632 0.23278 0.64037 0.0
C1453 C 0.25799 0.25764 0.64948 0.0
C1454 C 0.27757 0.27042 0.66648 0.0
C1455 C 0.29591 0.25747 0.67434 0.0
C1456 C 0.29458 0.23209 0.66516 0.0
C1457 C 0.27488 0.21997 0.64779 0.0
H1458 H 0.77041 0.95734 0.62404 0.0
H1459 H 0.85203 0.95435 0.65151 0.0
H1460 H 0.8651 0.99993 0.67088 0.0
H1461 H 0.81127 0.03892 0.61645 0.0
H1462 H 0.77682 0.04254 0.62058 0.0
H1463 H 0.77254 1.00821 0.61041 0.0
H1464 H 0.73566 0.97702 0.63951 0.0
H1465 H 0.74014 0.0113 0.64991 0.0
H1466 H 0.74939 0.98606 0.66544 0.0
H1467 H 0.86792 0.04486 0.68812 0.0
H1468 H 0.86537 0.09044 0.69792 0.0
H1469 H 0.78683 0.06839 0.65526 0.0
C1470 C 0.79125 0.96648 0.63393 0.0
C1471 C 0.80993 0.95199 0.63655 0.0
C1472 C 0.83688 0.96456 0.64977 0.0
C1473 C 0.84457 0.99052 0.66072 0.0
C1474 C 0.82551 1.00411 0.65786 0.0
C1475 C 0.79985 0.99294 0.64442 0.0
C1476 C 0.78464 0.0131 0.64293 0.0
C1477 C 0.78644 0.02649 0.62131 0.0
C1478 C 0.75043 0.99583 0.64987 0.0
C1479 C 0.80564 0.03728 0.65774 0.0
C1480 C 0.82867 0.03132 0.66652 0.0
C1481 C 0.85018 0.0499 0.68121 0.0
C1482 C 0.84848 0.07555 0.68676 0.0
C1483 C 0.82595 0.08265 0.67729 0.0
C1484 C 0.80426 0.06329 0.66265 0.0
H1485 H 0.49667 0.40098 0.75336 0.0
H1486 H 0.58105 0.40207 0.7338 0.0
H1487 H 0.5482 0.3538 0.71633 0.0
H1488 H 0.45589 0.31997 0.76514 0.0
H1489 H 0.41768 0.31558 0.75757 0.0
H1490 H 0.44795 0.35112 0.7673 0.0
H1491 H 0.44194 0.37897 0.73475 0.0
H1492 H 0.41187 0.34349 0.72484 0.0
H1493 H 0.44623 0.36714 0.71036 0.0
H1494 H 0.50546 0.30642 0.69954 0.0
H1495 H 0.45682 0.26019 0.68883 0.0
H1496 H 0.40112 0.28666 0.72345 0.0
C1497 C 0.50824 0.39086 0.74563 0.0
C1498 C 0.54145 0.40557 0.74465 0.0
C1499 C 0.55565 0.39166 0.73424 0.0
C1500 C 0.53718 0.36415 0.72441 0.0
C1501 C 0.50449 0.35039 0.72555 0.0
C1502 C 0.49019 0.36296 0.73629 0.0
C1503 C 0.45475 0.34276 0.73622 0.0
C1504 C 0.4434 0.3317 0.75784 0.0
C1505 C 0.43771 0.35907 0.72593 0.0
C1506 C 0.45129 0.317 0.72357 0.0
C1507 C 0.48019 0.32206 0.71725 0.0
C1508 C 0.48275 0.30205 0.70461 0.0
C1509 C 0.45509 0.276 0.69852 0.0
C1510 C 0.42547 0.26994 0.70546 0.0
C1511 C 0.42361 0.2907 0.71814 0.0
H1512 H 0.64074 0.13742 0.76803 0.0
H1513 H 0.57443 0.06072 0.73319 0.0
H1514 H 0.61824 0.0636 0.71379 0.0
H1515 H 0.68828 0.1792 0.72934 0.0
H1516 H 0.72542 0.19378 0.74335 0.0
H1517 H 0.6898 0.18326 0.75639 0.0
H1518 H 0.70003 0.14642 0.78028 0.0
H1519 H 0.73618 0.15741 0.76766 0.0
H1520 H 0.70686 0.11798 0.76961 0.0
H1521 H 0.66831 0.07982 0.69518 0.0
H1522 H 0.72214 0.10335 0.68189 0.0
H1523 H 0.756 0.16806 0.73022 0.0
C1524 C 0.63585 0.12032 0.75707 0.0
C1525 C 0.6046 0.09816 0.75244 0.0
C1526 C 0.5985 0.07716 0.7372 0.0
C1527 C 0.62315 0.07886 0.72606 0.0
C1528 C 0.65375 0.10158 0.73055 0.0
C1529 C 0.66029 0.12149 0.74604 0.0
C1530 C 0.69496 0.14473 0.74717 0.0
C1531 C 0.69988 0.17715 0.74386 0.0
C1532 C 0.71042 0.14142 0.76738 0.0
C1533 C 0.70669 0.13533 0.72955 0.0
C1534 C 0.68259 0.11051 0.72008 0.0
C1535 C 0.68749 0.09893 0.7027 0.0
C1536 C 0.71803 0.1126 0.69513 0.0
C1537 C 0.74321 0.1374 0.70505 0.0
C1538 C 0.73727 0.14892 0.7224 0.0
H1539 H 0.90483 0.50115 0.72588 0.0
H1540 H 0.83865 0.47089 0.77428 0.0
H1541 H 0.83085 0.51557 0.76782 0.0
H1542 H 0.9384 0.58272 0.73141 0.0
H1543 H 0.93996 0.59053 0.70447 0.0
H1544 H 0.94332 0.55834 0.71461 0.0
H1545 H 0.8964 0.52287 0.69127 0.0
H1546 H 0.89288 0.55492 0.68107 0.0
H1547 H 0.85936 0.52297 0.69215 0.0
H1548 H 0.82885 0.5625 0.75523 0.0
H1549 H 0.83021 0.60658 0.73609 0.0
H1550 H 0.89319 0.60331 0.69344 0.0
C1551 C 0.88877 0.50404 0.73512 0.0
C1552 C 0.87264 0.48284 0.75079 0.0
C1553 C 0.85192 0.48736 0.76264 0.0
C1554 C 0.84716 0.51251 0.75894 0.0
C1555 C 0.86301 0.53272 0.74313 0.0
C1556 C 0.88321 0.52863 0.73129 0.0
C1557 C 0.89543 0.55229 0.71424 0.0
C1558 C 0.93142 0.57215 0.71632 0.0
C1559 C 0.88541 0.53736 0.69345 0.0
C1560 C 0.8787 0.57017 0.7182 0.0
C1561 C 0.86052 0.55878 0.73515 0.0
C1562 C 0.84295 0.57155 0.74193 0.0
C1563 C 0.8438 0.59646 0.731 0.0
C1564 C 0.86162 0.60792 0.71337 0.0
C1565 C 0.87936 0.59475 0.7069 0.0
H1566 H 0.47477 0.93512 0.24271 0.0
H1567 H 0.51972 0.01833 0.27573 0.0
H1568 H 0.54373 0.04735 0.24423 0.0
H1569 H 0.53862 0.95621 0.20555 0.0
H1570 H 0.51051 0.93803 0.18506 0.0
H1571 H 0.50111 0.9235 0.21068 0.0
H1572 H 0.45025 0.92829 0.20721 0.0
H1573 H 0.45965 0.94319 0.18173 0.0
H1574 H 0.45306 0.9645 0.20018 0.0
H1575 H 0.55728 0.06763 0.20892 0.0
H1576 H 0.56066 0.07828 0.17215 0.0
H1577 H 0.5072 0.98165 0.16139 0.0
C1578 C 0.49068 0.95928 0.24325 0.0
C1579 C 0.49651 0.97464 0.26154 0.0
C1580 C 0.51606 1.00638 0.26183 0.0
C1581 C 0.52957 0.02292 0.24405 0.0
C1582 C 0.52302 1.00727 0.22609 0.0
C1583 C 0.50421 0.97613 0.22554 0.0
C1584 C 0.49866 0.96528 0.20396 0.0
C1585 C 0.51309 0.94453 0.20115 0.0
C1586 C 0.46331 0.94939 0.19792 0.0
C1587 C 0.51649 0.99525 0.19246 0.0
C1588 C 0.53061 0.01911 0.20555 0.0
C1589 C 0.54688 0.04909 0.19852 0.0
C1590 C 0.54879 0.05489 0.17754 0.0
C1591 C 0.5345 0.03085 0.16373 0.0
C1592 C 0.51834 1.00061 0.17144 0.0
H1593 H 0.14543 0.56312 0.24041 0.0
H1594 H 0.06245 0.52577 0.2764 0.0
H1595 H 0.02867 0.50287 0.24594 0.0
H1596 H 0.11281 0.58694 0.20068 0.0
H1597 H 0.13177 0.57971 0.18057 0.0
H1598 H 0.15003 0.58754 0.20554 0.0
H1599 H 0.15198 0.53705 0.2065 0.0
H1600 H 0.13403 0.52918 0.18137 0.0
H1601 H 0.11627 0.50201 0.20185 0.0
H1602 H 1.00386 0.48896 0.21155 0.0
H1603 H 0.98891 0.48599 0.17523 0.0
H1604 H 0.08781 0.53623 0.16052 0.0
C1605 C 0.12025 0.54888 0.24183 0.0
C1606 C 0.1064 0.54457 0.26078 0.0
C1607 C 0.07332 0.5277 0.26213 0.0
C1608 C 0.05406 0.51495 0.2449 0.0
C1609 C 0.0683 0.51993 0.22632 0.0
C1610 C 0.10065 0.53657 0.22461 0.0
C1611 C 0.10954 0.54194 0.20254 0.0
C1612 C 0.12706 0.57605 0.19701 0.0
C1613 C 0.12911 0.52662 0.19779 0.0
C1614 C 0.07714 0.52629 0.19214 0.0
C1615 C 0.05378 0.51339 0.20619 0.0
C1616 C 0.02194 0.49882 0.20039 0.0
C1617 C 0.01369 0.49754 0.1797 0.0
C1618 C 0.03714 0.5111 0.16495 0.0
C1619 C 0.06932 0.52533 0.17135 0.0
H1620 H 0.45488 0.57944 0.22964 0.0
H1621 H 0.4592 0.51303 0.27167 0.0
H1622 H 0.46491 0.48626 0.24291 0.0
H1623 H 0.41419 0.5279 0.18624 0.0
H1624 H 0.43734 0.55711 0.16802 0.0
H1625 H 0.42785 0.56717 0.19145 0.0
H1626 H 0.48729 0.60272 0.19909 0.0
H1627 H 0.49708 0.59245 0.17592 0.0
H1628 H 0.51419 0.58754 0.19973 0.0
H1629 H 0.47786 0.47158 0.20989 0.0
H1630 H 0.49425 0.46845 0.1758 0.0
H1631 H 0.48194 0.54533 0.15534 0.0
C1632 C 0.45606 0.5587 0.23262 0.0
C1633 C 0.45642 0.54801 0.25272 0.0
C1634 C 0.45842 0.52114 0.25629 0.0
C1635 C 0.46185 0.50601 0.24006 0.0
C1636 C 0.46299 0.51804 0.22042 0.0
C1637 C 0.4597 0.5436 0.21665 0.0
C1638 C 0.46456 0.55368 0.19454 0.0
C1639 C 0.43417 0.55131 0.18447 0.0
C1640 C 0.49243 0.586 0.19219 0.0
C1641 C 0.47205 0.53039 0.18648 0.0
C1642 C 0.4707 0.50982 0.20155 0.0
C1643 C 0.47837 0.48722 0.19791 0.0
C1644 C 0.48759 0.48559 0.17842 0.0
C1645 C 0.48925 0.5065 0.1627 0.0
C1646 C 0.48111 0.52904 0.16693 0.0
H1647 H 0.93944 0.48883 0.7855 0.0
H1648 H 0.84202 0.43398 0.80122 0.0
H1649 H 0.85561 0.45162 0.83653 0.0
H1650 H 0.97073 0.47177 0.82869 0.0
H1651 H 1.00497 0.50852 0.83158 0.0
H1652 H 0.9869 0.49655 0.80687 0.0
H1653 H 0.98012 0.5444 0.80209 0.0
H1654 H 0.99863 0.55683 0.82672 0.0
H1655 H 0.96009 0.55283 0.82089 0.0
H1656 H 0.88094 0.46943 0.87072 0.0
H1657 H 0.91565 0.48623 0.90132 0.0
H1658 H 0.99737 0.53008 0.86354 0.0
C1659 C 0.92098 0.48175 0.79629 0.0
C1660 C 0.88956 0.46105 0.79075 0.0
C1661 C 0.86596 0.4507 0.80526 0.0
C1662 C 0.87355 0.46049 0.82527 0.0
C1663 C 0.90494 0.48047 0.83048 0.0
C1664 C 0.92829 0.49118 0.81637 0.0
C1665 C 0.9606 0.5098 0.82633 0.0
C1666 C 0.98204 0.49581 0.82318 0.0
C1667 C 0.97575 0.54294 0.81855 0.0
C1668 C 0.9519 0.50704 0.8483 0.0
C1669 C 0.91966 0.49037 0.85034 0.0
C1670 C 0.90618 0.48306 0.86929 0.0
C1671 C 0.92615 0.49285 0.88661 0.0
C1672 C 0.95935 0.50972 0.88495 0.0
C1673 C 0.97217 0.51717 0.86543 0.0
H1674 H 0.53374 0.48139 0.78997 0.0
H1675 H 0.62973 0.49959 0.80172 0.0
H1676 H 0.6291 0.51759 0.83594 0.0
H1677 H 0.53802 0.54473 0.81969 0.0
H1678 H 0.49852 0.52143 0.82833 0.0
H1679 H 0.50895 0.51527 0.80391 0.0
H1680 H 0.48977 0.45898 0.81427 0.0
H1681 H 0.47982 0.46499 0.83882 0.0
H1682 H 0.50648 0.44992 0.83681 0.0
H1683 H 0.61465 0.52652 0.87064 0.0
H1684 H 0.58949 0.52835 0.90162 0.0
H1685 H 0.5025 0.50427 0.8668 0.0
C1686 C 0.55494 0.49023 0.79955 0.0
C1687 C 0.58197 0.48961 0.79323 0.0
C1688 C 0.60912 0.50059 0.8062 0.0
C1689 C 0.60878 0.51057 0.82568 0.0
C1690 C 0.58114 0.50957 0.83184 0.0
C1691 C 0.55485 0.50007 0.81898 0.0
C1692 C 0.52723 0.49865 0.82962 0.0
C1693 C 0.51762 0.52138 0.81981 0.0
C1694 C 0.49918 0.46621 0.82989 0.0
C1695 C 0.54168 0.50807 0.85068 0.0
C1696 C 0.57285 0.5145 0.85167 0.0
C1697 C 0.59046 0.52209 0.86988 0.0
C1698 C 0.57591 0.52319 0.88745 0.0
C1699 C 0.54392 0.51666 0.88683 0.0
C1700 C 0.52687 0.50922 0.86802 0.0
H1701 H 0.52823 0.03165 0.79183 0.0
H1702 H 0.6162 0.11463 0.7994 0.0
H1703 H 0.62448 0.09673 0.83347 0.0
H1704 H 0.50269 0.03308 0.83763 0.0
H1705 H 0.482 0.99279 0.84295 0.0
H1706 H 0.48755 1.00684 0.81717 0.0
H1707 H 0.5149 0.97539 0.80974 0.0
H1708 H 0.50891 0.9606 0.83547 0.0
H1709 H 0.54797 0.97913 0.82556 0.0
H1710 H 0.61785 0.07476 0.86882 0.0
H1711 H 0.59766 0.05077 0.9021 0.0
H1712 H 0.51081 0.98446 0.87266 0.0
C1713 C 0.54982 0.04532 0.80043 0.0
C1714 C 0.57195 0.0742 0.79293 0.0
C1715 C 0.59963 0.092 0.8046 0.0
C1716 C 0.60428 0.08208 0.82407 0.0
C1717 C 0.58088 0.05435 0.83164 0.0
C1718 C 0.55425 0.03606 0.82007 0.0
C1719 C 0.53016 0.01 0.83271 0.0
C1720 C 0.49877 0.01075 0.83261 0.0
C1721 C 0.5252 0.97947 0.82544 0.0
C1722 C 0.54675 0.01718 0.85337 0.0
C1723 C 0.57626 0.04242 0.85235 0.0
C1724 C 0.59498 0.05471 0.86973 0.0
C1725 C 0.58312 0.0411 0.88861 0.0
C1726 C 0.55256 0.0157 0.89009 0.0
C1727 C 0.5345 1.00339 0.87211 0.0
H1728 H 0.13377 0.24029 0.56309 0.0
H1729 H 0.1742 0.31469 0.60441 0.0
H1730 H 0.20236 0.35041 0.57616 0.0
H1731 H 0.20229 0.26839 0.53025 0.0
H1732 H 0.17785 0.25526 0.50753 0.0
H1733 H 0.1638 0.23544 0.53137 0.0
H1734 H 0.114 0.24196 0.52663 0.0
H1735 H 0.12797 0.26196 0.50287 0.0
H1736 H 0.11848 0.27944 0.52253 0.0
H1737 H 0.22163 0.37826 0.54297 0.0
H1738 H 0.23228 0.39644 0.50745 0.0
H1739 H 0.17972 0.3035 0.48758 0.0
C1740 C 0.14888 0.26408 0.56607 0.0
C1741 C 0.15198 0.27506 0.58571 0.0
C1742 C 0.17192 0.30614 0.58936 0.0
C1743 C 0.18783 0.32646 0.57345 0.0
C1744 C 0.18363 0.31512 0.55405 0.0
C1745 C 0.16486 0.28461 0.55033 0.0
C1746 C 0.16304 0.27852 0.52796 0.0
C1747 C 0.17762 0.2582 0.52405 0.0
C1748 C 0.12884 0.26466 0.51951 0.0
C1749 C 0.18307 0.31045 0.51963 0.0
C1750 C 0.19491 0.33119 0.53494 0.0
C1751 C 0.21292 0.36219 0.53087 0.0
C1752 C 0.21896 0.37229 0.51063 0.0
C1753 C 0.20702 0.35146 0.49464 0.0
C1754 C 0.18903 0.3201 0.49936 0.0
H1755 H 0.73162 0.88537 0.58349 0.0
H1756 H 0.80477 0.86062 0.57855 0.0
H1757 H 0.78338 0.84057 0.54438 0.0
H1758 H 0.66843 0.82256 0.55471 0.0
H1759 H 0.65403 0.84671 0.54292 0.0
H1760 H 0.6725 0.8548 0.56788 0.0
H1761 H 0.71225 0.90905 0.55543 0.0
H1762 H 0.69416 0.90108 0.5304 0.0
H1763 H 0.73578 0.91388 0.53394 0.0
H1764 H 0.75655 0.82776 0.50943 0.0
H1765 H 0.72685 0.82284 0.47701 0.0
H1766 H 0.67253 0.85816 0.50462 0.0
C1767 C 0.74271 0.8752 0.57529 0.0
C1768 C 0.76959 0.87417 0.58361 0.0
C1769 C 0.78375 0.86095 0.57255 0.0
C1770 C 0.77188 0.84977 0.5531 0.0
C1771 C 0.74587 0.85207 0.54504 0.0
C1772 C 0.73139 0.86436 0.55587 0.0
C1773 C 0.7054 0.86644 0.54335 0.0
C1774 C 0.67318 0.84643 0.55278 0.0
C1775 C 0.71233 0.89957 0.54062 0.0
C1776 C 0.70778 0.8539 0.52358 0.0
C1777 C 0.73101 0.84542 0.5249 0.0
C1778 C 0.73808 0.83401 0.50833 0.0
C1779 C 0.72099 0.83121 0.48999 0.0
C1780 C 0.69723 0.83999 0.48826 0.0
C1781 C 0.69061 0.85139 0.50539 0.0
H1782 H 0.15705 0.89381 0.58727 0.0
H1783 H 0.05949 0.87303 0.58096 0.0
H1784 H 0.05509 0.85053 0.54751 0.0
H1785 H 0.17597 0.91852 0.53706 0.0
H1786 H 0.2028 0.90362 0.53504 0.0
H1787 H 0.19663 0.9141 0.55934 0.0
H1788 H 0.18086 0.86011 0.57385 0.0
H1789 H 0.18714 0.84947 0.5496 0.0
H1790 H 0.14968 0.82763 0.56138 0.0
H1791 H 0.06352 0.83429 0.51319 0.0
H1792 H 0.08313 0.82505 0.48197 0.0
H1793 H 0.17628 0.85959 0.5107 0.0
C1794 C 0.13465 0.88403 0.57894 0.0
C1795 C 0.10853 0.88492 0.58661 0.0
C1796 C 0.07958 0.87211 0.57537 0.0
C1797 C 0.077 0.85948 0.55636 0.0
C1798 C 0.10363 0.85988 0.5489 0.0
C1799 C 0.13186 0.87172 0.55996 0.0
C1800 C 0.15764 0.87145 0.54818 0.0
C1801 C 0.18485 0.90384 0.5447 0.0
C1802 C 0.16952 0.85094 0.55889 0.0
C1803 C 0.13976 0.858 0.52857 0.0
C1804 C 0.10859 0.85122 0.52926 0.0
C1805 C 0.08786 0.8394 0.51259 0.0
C1806 C 0.09931 0.83445 0.49483 0.0
C1807 C 0.1313 0.84147 0.49375 0.0
C1808 C 0.15157 0.85332 0.51101 0.0
H1809 H 0.55367 0.78014 0.14659 0.0
H1810 H 0.61944 0.84293 0.1033 0.0
H1811 H 0.65454 0.87372 0.13153 0.0
H1812 H 0.56594 0.83554 0.18519 0.0
H1813 H 0.56303 0.8098 0.20592 0.0
H1814 H 0.54172 0.79522 0.18232 0.0
H1815 H 0.56827 0.76161 0.17994 0.0
H1816 H 0.58967 0.77609 0.20347 0.0
H1817 H 0.61068 0.77901 0.18107 0.0
H1818 H 0.6842 0.89482 0.16468 0.0
H1819 H 0.70612 0.90499 0.19976 0.0
H1820 H 0.62164 0.8265 0.22131 0.0
C1821 C 0.57537 0.80057 0.14319 0.0
C1822 C 0.58426 0.80924 0.12295 0.0
C1823 C 0.6125 0.83613 0.11881 0.0
C1824 C 0.63245 0.85362 0.13471 0.0
C1825 C 0.62357 0.84386 0.15461 0.0
C1826 C 0.5956 0.818 0.15888 0.0
C1827 C 0.59245 0.8112 0.18147 0.0
C1828 C 0.5641 0.81306 0.18917 0.0
C1829 C 0.59014 0.78014 0.18679 0.0
C1830 C 0.6233 0.83692 0.18929 0.0
C1831 C 0.64079 0.8557 0.1736 0.0
C1832 C 0.67062 0.88034 0.17708 0.0
C1833 C 0.68298 0.88579 0.19706 0.0
C1834 C 0.66569 0.86656 0.21338 0.0
C1835 C 0.6353 0.84199 0.20931 0.0
H1836 H 0.23724 0.78576 0.14513 0.0
H1837 H 0.24793 0.86363 0.10875 0.0
H1838 H 0.24136 0.88651 0.13924 0.0
H1839 H 0.17575 0.77925 0.17302 0.0
H1840 H 0.18743 0.76719 0.19651 0.0
H1841 H 0.19844 0.75962 0.1728 0.0
H1842 H 0.25728 0.78729 0.18453 0.0
H1843 H 0.24646 0.79473 0.20843 0.0
H1844 H 0.27471 0.82563 0.19315 0.0
H1845 H 0.22728 0.89775 0.17314 0.0
H1846 H 0.20836 0.89728 0.20715 0.0
H1847 H 0.2044 0.81055 0.22117 0.0
C1848 C 0.23916 0.80807 0.1438 0.0
C1849 C 0.24374 0.82327 0.1247 0.0
C1850 C 0.24538 0.85206 0.12331 0.0
C1851 C 0.24136 0.86503 0.14055 0.0
C1852 C 0.23573 0.84889 0.15906 0.0
C1853 C 0.23489 0.82109 0.16079 0.0
C1854 C 0.2257 0.80701 0.18186 0.0
C1855 C 0.19501 0.77647 0.18098 0.0
C1856 C 0.25265 0.80347 0.19263 0.0
C1857 C 0.22082 0.8309 0.19169 0.0
C1858 C 0.22698 0.85499 0.17835 0.0
C1859 C 0.22267 0.8791 0.18371 0.0
C1860 C 0.21164 0.87849 0.20306 0.0
C1861 C 0.20476 0.85386 0.21695 0.0
C1862 C 0.20986 0.82996 0.21112 0.0
H1863 H 0.19964 0.35981 0.12351 0.0
H1864 H 0.27756 0.44997 0.13202 0.0
H1865 H 0.28384 0.43675 0.16797 0.0
H1866 H 0.16465 0.355 0.16775 0.0
H1867 H 0.15107 0.31532 0.17336 0.0
H1868 H 0.15712 0.32935 0.14756 0.0
H1869 H 0.19539 0.30802 0.14317 0.0
H1870 H 0.18909 0.29341 0.16893 0.0
H1871 H 0.22853 0.31828 0.16069 0.0
H1872 H 0.27542 0.41655 0.20387 0.0
H1873 H 0.25469 0.39086 0.23658 0.0
H1874 H 0.18195 0.31301 0.20486 0.0
C1875 C 0.21877 0.37618 0.13287 0.0
C1876 C 0.23857 0.40565 0.12517 0.0
C1877 C 0.26279 0.42709 0.13771 0.0
C1878 C 0.26632 0.41978 0.15811 0.0
C1879 C 0.24548 0.39084 0.16558 0.0
C1880 C 0.22239 0.36922 0.15326 0.0
C1881 C 0.20077 0.34107 0.16543 0.0
C1882 C 0.16638 0.33484 0.1634 0.0
C1883 C 0.20363 0.31357 0.15918 0.0
C1884 C 0.21448 0.35065 0.18661 0.0
C1885 C 0.2405 0.37925 0.18636 0.0
C1886 C 0.25556 0.39384 0.20421 0.0
C1887 C 0.24363 0.37893 0.22278 0.0
C1888 C 0.21676 0.34967 0.22345 0.0
C1889 C 0.20245 0.33532 0.205 0.0
H1890 H 0.85456 0.65703 0.92299 0.0
H1891 H 0.8107 0.56022 0.91534 0.0
H1892 H 0.82749 0.56878 0.87983 0.0
H1893 H 0.82736 0.67246 0.87819 0.0
H1894 H 0.86154 0.70822 0.87242 0.0
H1895 H 0.85341 0.69519 0.89832 0.0
H1896 H 0.90863 0.69931 0.90355 0.0
H1897 H 0.91732 0.71299 0.87771 0.0
H1898 H 0.92087 0.68036 0.8866 0.0
H1899 H 0.8398 0.58753 0.84392 0.0
H1900 H 0.84899 0.61465 0.81088 0.0
H1901 H 0.88469 0.69995 0.84148 0.0
C1902 C 0.84959 0.6378 0.91394 0.0
C1903 C 0.83171 0.608 0.92179 0.0
C1904 C 0.82503 0.58318 0.90963 0.0
C1905 C 0.83429 0.58789 0.88943 0.0
C1906 C 0.85036 0.6176 0.88173 0.0
C1907 C 0.85838 0.64219 0.89371 0.0
C1908 C 0.87219 0.67155 0.88124 0.0
C1909 C 0.85244 0.68779 0.88263 0.0
C1910 C 0.90682 0.69228 0.88766 0.0
C1911 C 0.86942 0.65954 0.86025 0.0
C1912 C 0.85722 0.62843 0.8609 0.0
C1913 C 0.85014 0.61198 0.84327 0.0
C1914 C 0.85557 0.62768 0.82452 0.0
C1915 C 0.86788 0.6596 0.82343 0.0
C1916 C 0.87523 0.6756 0.84167 0.0
H1917 H 0.46103 0.24646 0.90469 0.0
H1918 H 0.39413 0.17104 0.94088 0.0
H1919 H 0.36234 0.14726 0.90969 0.0
H1920 H 0.40556 0.25356 0.87299 0.0
H1921 H 0.4283 0.26396 0.85046 0.0
H1922 H 0.44801 0.27221 0.875 0.0
H1923 H 0.47711 0.24261 0.8668 0.0
H1924 H 0.45767 0.23443 0.84212 0.0
H1925 H 0.45464 0.2039 0.85889 0.0
H1926 H 0.33504 0.13522 0.87482 0.0
H1927 H 0.31541 0.13468 0.83949 0.0
H1928 H 0.39963 0.21967 0.82662 0.0
C1929 C 0.43997 0.22465 0.90591 0.0
C1930 C 0.42982 0.21045 0.92504 0.0
C1931 C 0.40227 0.18197 0.92625 0.0
C1932 C 0.38412 0.16848 0.90866 0.0
C1933 C 0.39408 0.18377 0.89003 0.0
C1934 C 0.42158 0.21114 0.88857 0.0
C1935 C 0.42595 0.22428 0.86714 0.0
C1936 C 0.42701 0.25533 0.86636 0.0
C1937 C 0.4556 0.22642 0.85821 0.0
C1938 C 0.39625 0.20042 0.85677 0.0
C1939 C 0.37828 0.17709 0.87015 0.0
C1940 C 0.3491 0.15324 0.8642 0.0
C1941 C 0.33802 0.15327 0.84413 0.0
C1942 C 0.35595 0.17711 0.83019 0.0
C1943 C 0.38557 0.20081 0.83671 0.0
H1944 H 0.82069 0.21307 0.92169 0.0
H1945 H 0.73116 0.21145 0.91134 0.0
H1946 H 0.72634 0.1911 0.87704 0.0
H1947 H 0.849 0.24131 0.87405 0.0
H1948 H 0.86974 0.2201 0.87184 0.0
H1949 H 0.86332 0.22936 0.89646 0.0
H1950 H 0.83574 0.1725 0.9074 0.0
H1951 H 0.8424 0.16302 0.88286 0.0
H1952 H 0.80304 0.14547 0.89223 0.0
H1953 H 0.73504 0.17656 0.8423 0.0
H1954 H 0.75472 0.16703 0.81123 0.0
H1955 H 0.84034 0.18138 0.84437 0.0
C1956 C 0.79976 0.20769 0.91231 0.0
C1957 C 0.77622 0.21368 0.91899 0.0
C1958 C 0.74918 0.20662 0.90644 0.0
C1959 C 0.74643 0.19527 0.88696 0.0
C1960 C 0.77092 0.19102 0.88041 0.0
C1961 C 0.79692 0.19675 0.89286 0.0
C1962 C 0.82124 0.19283 0.88186 0.0
C1963 C 0.85267 0.22267 0.881 0.0
C1964 C 0.82586 0.16691 0.89167 0.0
C1965 C 0.80527 0.18455 0.86109 0.0
C1966 C 0.77615 0.18334 0.86053 0.0
C1967 C 0.7577 0.17723 0.84267 0.0
C1968 C 0.76925 0.17213 0.82501 0.0
C1969 C 0.79913 0.17336 0.82524 0.0
C1970 C 0.81717 0.17964 0.84365 0.0
H1971 H 0.21582 0.11912 0.47512 0.0
H1972 H 0.29354 0.17303 0.43601 0.0
H1973 H 0.32726 0.19917 0.46589 0.0
H1974 H 0.2355 0.17737 0.51434 0.0
H1975 H 0.22398 0.14925 0.53464 0.0
H1976 H 0.20473 0.13913 0.50998 0.0
H1977 H 0.21898 0.09589 0.50909 0.0
H1978 H 0.23867 0.10609 0.53356 0.0
H1979 H 0.25965 0.1047 0.51229 0.0
H1980 H 0.35425 0.21385 0.50023 0.0
H1981 H 0.37211 0.21799 0.53608 0.0
H1982 H 0.27679 0.15363 0.55322 0.0
C1983 C 0.2397 0.13705 0.47291 0.0
C1984 C 0.25215 0.14436 0.45335 0.0
C1985 C 0.28352 0.16763 0.45086 0.0
C1986 C 0.30282 0.18237 0.46776 0.0
C1987 C 0.29027 0.1736 0.48699 0.0
C1988 C 0.25929 0.1517 0.48963 0.0
C1989 C 0.25233 0.1444 0.51191 0.0
C1990 C 0.22768 0.15306 0.51808 0.0
C1991 C 0.24179 0.11078 0.517 0.0
C1992 C 0.28447 0.16493 0.52143 0.0
C1993 C 0.30592 0.18183 0.5068 0.0
C1994 C 0.3375 0.2012 0.51183 0.0
C1995 C 0.3474 0.20345 0.5323 0.0
C1996 C 0.32587 0.18638 0.54763 0.0
C1997 C 0.29393 0.16697 0.54197 0.0
H1998 H 0.88607 0.17495 0.45453 0.0
H1999 H 0.96104 0.15355 0.46915 0.0
H2000 H 0.96238 0.16742 0.50484 0.0
H2001 H 0.91017 0.23754 0.49208 0.0
H2002 H 0.86958 0.22503 0.49743 0.0
H2003 H 0.87986 0.22028 0.47257 0.0
H2004 H 0.84014 0.16291 0.47532 0.0
H2005 H 0.83023 0.16719 0.50033 0.0
H2006 H 0.84407 0.14058 0.49628 0.0
H2007 H 0.94854 0.17463 0.53992 0.0
H2008 H 0.92366 0.17761 0.57067 0.0
H2009 H 0.85676 0.19384 0.53316 0.0
C2010 C 0.90365 0.17454 0.46514 0.0
C2011 C 0.92379 0.16365 0.45918 0.0
C2012 C 0.946 0.16254 0.47343 0.0
C2013 C 0.94664 0.17009 0.49373 0.0
C2014 C 0.925 0.17892 0.49946 0.0
C2015 C 0.90425 0.18168 0.48545 0.0
C2016 C 0.88105 0.18824 0.49573 0.0
C2017 C 0.88544 0.21965 0.48906 0.0
C2018 C 0.84687 0.16324 0.49167 0.0
C2019 C 0.89119 0.18772 0.51777 0.0
C2020 C 0.9168 0.18267 0.51962 0.0
C2021 C 0.92894 0.17928 0.53859 0.0
C2022 C 0.91463 0.18111 0.55603 0.0
C2023 C 0.88821 0.18617 0.55456 0.0
C2024 C 0.87673 0.18979 0.53502 0.0
H2025 H 0.91524 0.77512 0.47364 0.0
H2026 H 0.88336 0.69606 0.43727 0.0
H2027 H 0.87942 0.66486 0.46832 0.0
H2028 H 0.95747 0.75264 0.51596 0.0
H2029 H 0.94401 0.76818 0.53467 0.0
H2030 H 0.95223 0.78511 0.50953 0.0
H2031 H 0.89589 0.77868 0.50626 0.0
H2032 H 0.8871 0.76106 0.53107 0.0
H2033 H 0.86243 0.74147 0.50952 0.0
H2034 H 0.86815 0.64099 0.50338 0.0
H2035 H 0.85377 0.62674 0.539 0.0
H2036 H 0.89307 0.72183 0.55282 0.0
C2037 C 0.90894 0.75153 0.47229 0.0
C2038 C 0.89995 0.73785 0.45324 0.0
C2039 C 0.89093 0.70685 0.45178 0.0
C2040 C 0.88845 0.68904 0.46935 0.0
C2041 C 0.89548 0.70281 0.48814 0.0
C2042 C 0.90616 0.73355 0.48967 0.0
C2043 C 0.90813 0.74222 0.51153 0.0
C2044 C 0.94251 0.76328 0.51833 0.0
C2045 C 0.88713 0.75669 0.51477 0.0
C2046 C 0.89539 0.71137 0.52202 0.0
C2047 C 0.88871 0.68899 0.50835 0.0
C2048 C 0.87411 0.65843 0.51428 0.0
C2049 C 0.86607 0.65056 0.53463 0.0
C2050 C 0.87242 0.67312 0.54889 0.0
C2051 C 0.88776 0.70394 0.5424 0.0
loop_
_geom_bond_atom_site_label_1
_geom_bond_atom_site_label_2
_geom_bond_distance
_geom_bond_site_symmetry_2
_ccdc_geom_bond_type
C0 N1 1.317 . S
C0 N2 1.348 . S
C0 C3 1.485 . S
N1 C0 1.317 . S
N1 N5 1.370 . S
N2 C0 1.348 . S
N2 C4 1.346 . S
C3 C0 1.485 . S
C3 H7 0.960 . S
C3 H8 0.961 . S
C3 H9 0.960 . S
C4 N2 1.346 . S
C4 N5 1.307 . S
C4 C6 1.486 . S
N5 N1 1.370 . S
N5 C4 1.307 . S
C6 C4 1.486 . S
C6 H10 0.960 . S
C6 H11 0.960 . S
C6 H12 0.959 . S
H7 C3 0.960 . S
H8 C3 0.961 . S
H9 C3 0.960 . S
H10 C6 0.960 . S
H11 C6 0.960 . S
H12 C6 0.959 . S
C13 N14 1.317 . S
C13 N15 1.348 . S
C13 C16 1.485 . S
N14 C13 1.317 . S
N14 N18 1.370 . S
N15 C13 1.348 . S
N15 C17 1.346 . S
C16 C13 1.485 . S
C16 H20 0.960 . S
C16 H21 0.961 . S
C16 H22 0.960 . S
C17 N15 1.346 . S
C17 N18 1.307 . S
C17 C19 1.486 . S
N18 N14 1.370 . S
N18 C17 1.307 . S
C19 C17 1.486 . S
C19 H23 0.960 . S
C19 H24 0.960 . S
C19 H25 0.959 . S
H20 C16 0.960 . S
H21 C16 0.961 . S
H22 C16 0.960 . S
H23 C19 0.960 . S
H24 C19 0.960 . S
H25 C19 0.959 . S
C26 N27 1.317 . S
C26 N28 1.348 . S
C26 C29 1.485 . S
N27 C26 1.317 . S
N27 N31 1.370 . S
N28 C26 1.348 . S
N28 C30 1.346 . S
C29 C26 1.485 . S
C29 H33 0.960 . S
C29 H34 0.961 . S
C29 H35 0.960 . S
C30 N28 1.346 . S
C30 N31 1.307 . S
C30 C32 1.486 . S
N31 N27 1.370 . S
N31 C30 1.307 . S
C32 C30 1.486 . S
C32 H36 0.960 . S
C32 H37 0.960 . S
C32 H38 0.959 . S
H33 C29 0.960 . S
H34 C29 0.961 . S
H35 C29 0.960 . S
H36 C32 0.960 . S
H37 C32 0.960 . S
H38 C32 0.959 . S
C39 N40 1.317 . S
C39 N41 1.348 . S
C39 C42 1.485 . S
N40 C39 1.317 . S
N40 N44 1.370 . S
N41 C39 1.348 . S
N41 C43 1.346 . S
C42 C39 1.485 . S
C42 H46 0.960 . S
C42 H47 0.961 . S
C42 H48 0.960 . S
C43 N41 1.346 . S
C43 N44 1.307 . S
C43 C45 1.486 . S
N44 N40 1.370 . S
N44 C43 1.307 . S
C45 C43 1.486 . S
C45 H49 0.960 . S
C45 H50 0.960 . S
C45 H51 0.959 . S
H46 C42 0.960 . S
H47 C42 0.961 . S
H48 C42 0.960 . S
H49 C45 0.960 . S
H50 C45 0.960 . S
H51 C45 0.959 . S
C52 N53 1.317 . S
C52 N54 1.348 . S
C52 C55 1.485 . S
N53 C52 1.317 . S
N53 N57 1.370 . S
N54 C52 1.348 . S
N54 C56 1.346 . S
C55 C52 1.485 . S
C55 H59 0.960 . S
C55 H60 0.961 . S
C55 H61 0.960 . S
C56 N54 1.346 . S
C56 N57 1.307 . S
C56 C58 1.486 . S
N57 N53 1.370 . S
N57 C56 1.307 . S
C58 C56 1.486 . S
C58 H62 0.960 . S
C58 H63 0.960 . S
C58 H64 0.959 . S
H59 C55 0.960 . S
H60 C55 0.961 . S
H61 C55 0.960 . S
H62 C58 0.960 . S
H63 C58 0.960 . S
H64 C58 0.959 . S
C65 N66 1.317 . S
C65 N67 1.348 . S
C65 C68 1.485 . S
N66 C65 1.317 . S
N66 N70 1.370 . S
N67 C65 1.348 . S
N67 C69 1.346 . S
C68 C65 1.485 . S
C68 H72 0.960 . S
C68 H73 0.961 . S
C68 H74 0.960 . S
C69 N67 1.346 . S
C69 N70 1.307 . S
C69 C71 1.486 . S
N70 N66 1.370 . S
N70 C69 1.307 . S
C71 C69 1.486 . S
C71 H75 0.960 . S
C71 H76 0.960 . S
C71 H77 0.959 . S
H72 C68 0.960 . S
H73 C68 0.961 . S
H74 C68 0.960 . S
H75 C71 0.960 . S
H76 C71 0.960 . S
H77 C71 0.959 . S
C78 N79 1.317 . S
C78 N80 1.348 . S
C78 C81 1.485 . S
N79 C78 1.317 . S
N79 N83 1.370 . S
N80 C78 1.348 . S
N80 C82 1.346 . S
C81 C78 1.485 . S
C81 H85 0.960 . S
C81 H86 0.961 . S
C81 H87 0.960 . S
C82 N80 1.346 . S
C82 N83 1.307 . S
C82 C84 1.486 . S
N83 N79 1.370 . S
N83 C82 1.307 . S
C84 C82 1.486 . S
C84 H88 0.960 . S
C84 H89 0.960 . S
C84 H90 0.959 . S
H85 C81 0.960 . S
H86 C81 0.961 . S
H87 C81 0.960 . S
H88 C84 0.960 . S
H89 C84 0.960 . S
H90 C84 0.959 . S
C91 N92 1.317 . S
C91 N93 1.348 . S
C91 C94 1.485 . S
N92 C91 1.317 . S
N92 N96 1.370 . S
N93 C91 1.348 . S
N93 C95 1.346 . S
C94 C91 1.485 . S
C94 H98 0.960 . S
C94 H99 0.961 . S
C94 H100 0.960 . S
C95 N93 1.346 . S
C95 N96 1.307 . S
C95 C97 1.486 . S
N96 N92 1.370 . S
N96 C95 1.307 . S
C97 C95 1.486 . S
C97 H101 0.960 . S
C97 H102 0.960 . S
C97 H103 0.959 . S
H98 C94 0.960 . S
H99 C94 0.961 . S
H100 C94 0.960 . S
H101 C97 0.960 . S
H102 C97 0.960 . S
H103 C97 0.959 . S
C104 N105 1.317 . S
C104 N106 1.348 . S
C104 C107 1.485 . S
N105 C104 1.317 . S
N105 N109 1.370 . S
N106 C104 1.348 . S
N106 C108 1.346 . S
C107 C104 1.485 . S
C107 H111 0.960 . S
C107 H112 0.961 . S
C107 H113 0.960 . S
C108 N106 1.346 . S
C108 N109 1.307 . S
C108 C110 1.486 . S
N109 N105 1.370 . S
N109 C108 1.307 . S
C110 C108 1.486 . S
C110 H114 0.960 . S
C110 H115 0.960 . S
C110 H116 0.959 . S
H111 C107 0.960 . S
H112 C107 0.961 . S
H113 C107 0.960 . S
H114 C110 0.960 . S
H115 C110 0.960 . S
H116 C110 0.959 . S
C117 N118 1.317 . S
C117 N119 1.348 . S
C117 C120 1.485 . S
N118 C117 1.317 . S
N118 N122 1.370 . S
N119 C117 1.348 . S
N119 C121 1.346 . S
C120 C117 1.485 . S
C120 H124 0.960 . S
C120 H125 0.961 . S
C120 H126 0.960 . S
C121 N119 1.346 . S
C121 N122 1.307 . S
C121 C123 1.486 . S
N122 N118 1.370 . S
N122 C121 1.307 . S
C123 C121 1.486 . S
C123 H127 0.960 . S
C123 H128 0.960 . S
C123 H129 0.959 . S
H124 C120 0.960 . S
H125 C120 0.961 . S
H126 C120 0.960 . S
H127 C123 0.960 . S
H128 C123 0.960 . S
H129 C123 0.959 . S
C130 N131 1.317 . S
C130 N132 1.348 . S
C130 C133 1.485 1_556 S
N131 C130 1.317 . S
N131 N135 1.370 . S
N132 C130 1.348 . S
N132 C134 1.346 . S
C133 C130 1.485 1_554 S
C133 H137 0.960 . S
C133 H138 0.961 . S
C133 H139 0.960 . S
C134 N132 1.346 . S
C134 N135 1.307 . S
C134 C136 1.486 . S
N135 N131 1.370 . S
N135 C134 1.307 . S
C136 C134 1.486 . S
C136 H140 0.960 . S
C136 H141 0.960 . S
C136 H142 0.959 . S
H137 C133 0.960 . S
H138 C133 0.961 . S
H139 C133 0.960 . S
H140 C136 0.960 . S
H141 C136 0.960 . S
H142 C136 0.959 . S
C143 N144 1.317 . S
C143 N145 1.348 . S
C143 C146 1.485 1_556 S
N144 C143 1.317 . S
N144 N148 1.370 . S
N145 C143 1.348 . S
N145 C147 1.346 . S
C146 C143 1.485 1_554 S
C146 H150 0.960 . S
C146 H151 0.961 . S
C146 H152 0.960 . S
C147 N145 1.346 . S
C147 N148 1.307 . S
C147 C149 1.486 . S
N148 N144 1.370 . S
N148 C147 1.307 . S
C149 C147 1.486 . S
C149 H153 0.960 . S
C149 H154 0.960 . S
C149 H155 0.959 . S
H150 C146 0.960 . S
H151 C146 0.961 . S
H152 C146 0.960 . S
H153 C149 0.960 . S
H154 C149 0.960 . S
H155 C149 0.959 . S
C156 N157 1.317 . S
C156 N158 1.348 . S
C156 C159 1.485 . S
N157 C156 1.317 . S
N157 N161 1.370 . S
N158 C156 1.348 . S
N158 C160 1.346 . S
C159 C156 1.485 . S
C159 H163 0.960 . S
C159 H164 0.944 1_554 S
C159 H165 0.960 . S
C160 N158 1.346 . S
C160 N161 1.307 . S
C160 C162 1.486 . S
N161 N157 1.370 . S
N161 C160 1.307 . S
C162 C160 1.486 . S
C162 H166 0.960 . S
C162 H167 0.960 . S
C162 H168 0.959 . S
H163 C159 0.960 . S
H164 C159 0.944 1_556 S
H165 C159 0.960 . S
H166 C162 0.960 . S
H167 C162 0.960 . S
H168 C162 0.959 . S
C169 N170 1.317 . S
C169 N171 1.348 . S
C169 C172 1.485 . S
N170 C169 1.317 . S
N170 N174 1.370 . S
N171 C169 1.348 . S
N171 C173 1.346 . S
C172 C169 1.485 . S
C172 H176 0.960 . S
C172 H177 0.961 . S
C172 H178 0.960 . S
C173 N171 1.346 . S
C173 N174 1.307 . S
C173 C175 1.486 . S
N174 N170 1.370 . S
N174 C173 1.307 . S
C175 C173 1.486 . S
C175 H179 0.960 . S
C175 H180 0.960 . S
C175 H181 0.959 . S
H176 C172 0.960 . S
H177 C172 0.961 . S
H178 C172 0.960 . S
H179 C175 0.960 . S
H180 C175 0.960 . S
H181 C175 0.959 . S
C182 N183 1.317 . S
C182 N184 1.348 . S
C182 C185 1.485 . S
N183 C182 1.317 . S
N183 N187 1.370 . S
N184 C182 1.348 . S
N184 C186 1.346 . S
C185 C182 1.485 . S
C185 H189 0.960 . S
C185 H190 0.961 . S
C185 H191 0.960 . S
C186 N184 1.346 . S
C186 N187 1.307 . S
C186 C188 1.486 . S
N187 N183 1.370 . S
N187 C186 1.307 . S
C188 C186 1.486 . S
C188 H192 0.960 . S
C188 H193 0.960 . S
C188 H194 0.959 . S
H189 C185 0.960 . S
H190 C185 0.961 . S
H191 C185 0.960 . S
H192 C188 0.960 . S
H193 C188 0.960 . S
H194 C188 0.959 . S
C195 N196 1.317 . S
C195 N197 1.348 . S
C195 C198 1.485 . S
N196 C195 1.317 . S
N196 N200 1.370 . S
N197 C195 1.348 . S
N197 C199 1.346 . S
C198 C195 1.485 . S
C198 H202 0.960 . S
C198 H203 0.961 . S
C198 H204 0.960 . S
C199 N197 1.346 . S
C199 N200 1.307 . S
C199 C201 1.486 . S
N200 N196 1.370 . S
N200 C199 1.307 . S
C201 C199 1.486 . S
C201 H205 0.960 . S
C201 H206 0.960 . S
C201 H207 0.959 . S
H202 C198 0.960 . S
H203 C198 0.961 . S
H204 C198 0.960 . S
H205 C201 0.960 . S
H206 C201 0.960 . S
H207 C201 0.959 . S
C208 N209 1.317 . S
C208 N210 1.348 . S
C208 C211 1.485 . S
N209 C208 1.317 . S
N209 N213 1.370 . S
N210 C208 1.348 . S
N210 C212 1.346 . S
C211 C208 1.485 . S
C211 H215 0.960 . S
C211 H216 0.961 . S
C211 H217 0.960 . S
C212 N210 1.346 . S
C212 N213 1.307 . S
C212 C214 1.486 . S
N213 N209 1.370 . S
N213 C212 1.307 . S
C214 C212 1.486 . S
C214 H218 0.960 . S
C214 H219 0.960 . S
C214 H220 0.959 . S
H215 C211 0.960 . S
H216 C211 0.961 . S
H217 C211 0.960 . S
H218 C214 0.960 . S
H219 C214 0.960 . S
H220 C214 0.959 . S
C221 N222 1.317 . S
C221 N223 1.348 . S
C221 C224 1.485 . S
N222 C221 1.317 . S
N222 N226 1.370 . S
N223 C221 1.348 . S
N223 C225 1.346 . S
C224 C221 1.485 . S
C224 H228 0.960 . S
C224 H229 0.961 . S
C224 H230 0.960 . S
C225 N223 1.346 . S
C225 N226 1.307 . S
C225 C227 1.486 . S
N226 N222 1.370 . S
N226 C225 1.307 . S
C227 C225 1.486 . S
C227 H231 0.960 . S
C227 H232 0.960 . S
C227 H233 0.959 . S
H228 C224 0.960 . S
H229 C224 0.961 . S
H230 C224 0.960 . S
H231 C227 0.960 . S
H232 C227 0.960 . S
H233 C227 0.959 . S
Tb234 C244 2.825 1_565 S
Tb234 O245 2.347 1_566 S
Tb234 O248 2.366 1_565 S
Tb234 O253 2.418 . S
Tb234 O254 2.384 1_556 S
Tb234 O257 2.479 . S
Tb234 O258 2.471 1_565 S
Eu235 O246 2.418 . S
Eu235 O247 2.384 . S
Eu235 O250 2.479 . S
Eu235 O251 2.471 1_545 S
Eu235 O252 2.347 1_545 S
Eu235 O255 2.366 1_545 S
Eu235 C265 2.825 1_545 S
C236 O252 1.259 . S
C236 O253 1.265 1_554 S
C237 O254 1.255 . S
C237 O255 1.265 . S
C238 C240 1.380 . S
C238 C241 1.374 . S
C238 C244 1.507 . S
C239 C240 1.384 . S
C239 C243 1.387 . S
C239 H266 0.930 . S
C240 C238 1.380 . S
C240 C239 1.384 . S
C240 H267 0.931 1_545 S
C241 C238 1.374 . S
C241 C242 1.390 . S
C241 H268 0.930 . S
C242 C241 1.390 . S
C242 C243 1.391 . S
C242 H269 0.930 . S
C243 C239 1.387 . S
C243 C242 1.391 . S
C244 Tb234 2.825 1_545 S
C244 C238 1.507 . S
C244 O257 1.238 1_545 S
C244 O258 1.247 . S
O245 Tb234 2.347 1_544 S
O245 C249 1.259 . S
O246 Eu235 2.418 . S
O246 C249 1.265 . S
O247 Eu235 2.384 . S
O247 C256 1.261 1_554 S
O248 Tb234 2.366 1_545 S
O248 C256 1.261 . S
C249 O245 1.259 . S
C249 O246 1.265 . S
O250 Eu235 2.479 . S
O250 C265 1.238 1_545 S
O251 Eu235 2.471 1_565 S
O251 C265 1.247 . S
O252 Eu235 2.347 1_565 S
O252 C236 1.259 . S
O253 Tb234 2.418 . S
O253 C236 1.265 1_556 S
O254 Tb234 2.384 1_554 S
O254 C237 1.255 . S
O255 Eu235 2.366 1_565 S
O255 C237 1.265 . S
C256 O247 1.261 1_556 S
C256 O248 1.261 . S
O257 Tb234 2.479 . S
O257 C244 1.238 1_565 S
O258 Tb234 2.471 1_545 S
O258 C244 1.247 . S
C259 C262 1.380 . S
C259 C263 1.374 . S
C259 C265 1.507 . S
C260 C261 1.387 . S
C260 C264 1.391 . S
C261 C260 1.387 . S
C261 C262 1.384 . S
C261 H270 0.930 . S
C262 C259 1.380 . S
C262 C261 1.384 . S
C262 H271 0.931 1_565 S
C263 C259 1.374 . S
C263 C264 1.390 . S
C263 H272 0.930 . S
C264 C260 1.391 . S
C264 C263 1.390 . S
C264 H273 0.930 . S
C265 Eu235 2.825 1_565 S
C265 O250 1.238 1_565 S
C265 O251 1.247 . S
C265 C259 1.507 . S
H266 C239 0.930 . S
H267 C240 0.931 1_565 S
H268 C241 0.930 . S
H269 C242 0.930 . S
H270 C261 0.930 . S
H271 C262 0.931 1_545 S
H272 C263 0.930 . S
H273 C264 0.930 . S
Tb274 C284 2.825 . S
Tb274 O285 2.347 1_455 S
Tb274 O288 2.366 1_455 S
Tb274 O293 2.418 . S
Tb274 O294 2.384 1_556 S
Tb274 O297 2.479 . S
Tb274 O298 2.461 1_455 S
Eu275 O286 2.418 . S
Eu275 O287 2.384 . S
Eu275 O290 2.479 . S
Eu275 O291 2.471 1_655 S
Eu275 O292 2.347 1_655 S
Eu275 O295 2.366 1_655 S
Eu275 C305 2.825 1_655 S
C276 O292 1.259 . S
C276 O293 1.265 1_554 S
C277 O294 1.255 . S
C277 O295 1.265 . S
C278 C280 1.376 1_655 S
C278 C281 1.383 . S
C278 C284 1.502 1_655 S
C279 C280 1.384 . S
C279 C283 1.387 1_455 S
C279 H306 0.930 . S
C280 C278 1.376 1_455 S
C280 C279 1.384 . S
C280 H307 0.931 . S
C281 C278 1.383 . S
C281 C282 1.390 . S
C281 H308 0.930 . S
C282 C281 1.390 . S
C282 C283 1.391 . S
C282 H309 0.930 . S
C283 C279 1.387 1_655 S
C283 C282 1.391 . S
C284 Tb274 2.825 . S
C284 C278 1.502 1_455 S
C284 O297 1.238 . S
C284 O298 1.246 1_455 S
O285 Tb274 2.347 1_655 S
O285 C289 1.259 1_556 S
O286 Eu275 2.418 . S
O286 C289 1.265 . S
O287 Eu275 2.384 . S
O287 C296 1.255 1_554 S
O288 Tb274 2.366 1_655 S
O288 C296 1.265 . S
C289 O285 1.259 1_554 S
C289 O286 1.265 . S
O290 Eu275 2.479 . S
O290 C305 1.238 1_655 S
O291 Eu275 2.471 1_455 S
O291 C305 1.247 . S
O292 Eu275 2.347 1_455 S
O292 C276 1.259 . S
O293 Tb274 2.418 . S
O293 C276 1.265 1_556 S
O294 Tb274 2.384 1_554 S
O294 C277 1.255 . S
O295 Eu275 2.366 1_455 S
O295 C277 1.265 . S
C296 O287 1.255 1_556 S
C296 O288 1.265 . S
O297 Tb274 2.479 . S
O297 C284 1.238 . S
O298 Tb274 2.461 1_655 S
O298 C284 1.246 1_655 S
C299 C302 1.373 1_455 S
C299 C303 1.374 . S
C299 C305 1.507 . S
C300 C301 1.387 . S
C300 C304 1.391 . S
C301 C300 1.387 . S
C301 C302 1.377 1_455 S
C301 H310 0.930 1_455 S
C302 C299 1.373 1_655 S
C302 C301 1.377 1_655 S
C302 H311 0.945 . S
C303 C299 1.374 . S
C303 C304 1.390 . S
C303 H312 0.930 . S
C304 C300 1.391 . S
C304 C303 1.390 . S
C304 H313 0.930 . S
C305 Eu275 2.825 1_455 S
C305 O290 1.238 1_455 S
C305 O291 1.247 . S
C305 C299 1.507 . S
H306 C279 0.930 . S
H307 C280 0.931 . S
H308 C281 0.930 . S
H309 C282 0.930 . S
H310 C301 0.930 1_655 S
H311 C302 0.945 . S
H312 C303 0.930 . S
H313 C304 0.930 . S
Tb314 C324 2.825 . S
Tb314 O325 2.347 . S
Tb314 O328 2.366 . S
Tb314 O333 2.418 . S
Tb314 O334 2.384 . S
Tb314 O337 2.479 . S
Tb314 O338 2.471 . S
Eu315 O326 2.418 . S
Eu315 O327 2.384 1_556 S
Eu315 O330 2.479 . S
Eu315 O331 2.471 . S
Eu315 O332 2.347 1_556 S
Eu315 O335 2.366 . S
Eu315 C345 2.825 . S
C316 O332 1.259 . S
C316 O333 1.265 . S
C317 O334 1.266 . S
C317 O335 1.259 1_554 S
C318 C320 1.380 . S
C318 C321 1.374 . S
C318 C324 1.507 . S
C319 C320 1.384 . S
C319 C323 1.387 . S
C319 H346 0.930 . S
C320 C318 1.380 . S
C320 C319 1.384 . S
C320 H347 0.931 . S
C321 C318 1.374 . S
C321 C322 1.390 . S
C321 H348 0.930 . S
C322 C321 1.390 . S
C322 C323 1.391 . S
C322 H349 0.930 . S
C323 C319 1.387 . S
C323 C322 1.391 . S
C324 Tb314 2.825 . S
C324 C318 1.507 . S
C324 O337 1.238 . S
C324 O338 1.247 . S
O325 Tb314 2.347 . S
O325 C329 1.259 . S
O326 Eu315 2.418 . S
O326 C329 1.265 1_556 S
O327 Eu315 2.384 1_554 S
O327 C336 1.255 . S
O328 Tb314 2.366 . S
O328 C336 1.265 . S
C329 O325 1.259 . S
C329 O326 1.265 1_554 S
O330 Eu315 2.479 . S
O330 C345 1.238 . S
O331 Eu315 2.471 . S
O331 C345 1.247 . S
O332 Eu315 2.347 1_554 S
O332 C316 1.259 . S
O333 Tb314 2.418 . S
O333 C316 1.265 . S
O334 Tb314 2.384 . S
O334 C317 1.266 . S
O335 Eu315 2.366 . S
O335 C317 1.259 1_556 S
C336 O327 1.255 . S
C336 O328 1.265 . S
O337 Tb314 2.479 . S
O337 C324 1.238 . S
O338 Tb314 2.471 . S
O338 C324 1.247 . S
C339 C342 1.380 . S
C339 C343 1.374 . S
C339 C345 1.507 . S
C340 C341 1.387 . S
C340 C344 1.391 . S
C341 C340 1.387 . S
C341 C342 1.384 . S
C341 H350 0.930 . S
C342 C339 1.380 . S
C342 C341 1.384 . S
C342 H351 0.931 . S
C343 C339 1.374 . S
C343 C344 1.390 . S
C343 H352 0.930 . S
C344 C340 1.391 . S
C344 C343 1.390 . S
C344 H353 0.930 . S
C345 Eu315 2.825 . S
C345 O330 1.238 . S
C345 O331 1.247 . S
C345 C339 1.507 . S
H346 C319 0.930 . S
H347 C320 0.931 . S
H348 C321 0.930 . S
H349 C322 0.930 . S
H350 C341 0.930 . S
H351 C342 0.931 . S
H352 C343 0.930 . S
H353 C344 0.930 . S
Tb354 C364 2.825 . S
Tb354 O365 2.347 . S
Tb354 O368 2.366 . S
Tb354 O373 2.418 . S
Tb354 O374 2.384 . S
Tb354 O377 2.479 . S
Tb354 O378 2.471 . S
Eu355 O366 2.418 . S
Eu355 O367 2.384 . S
Eu355 O370 2.479 . S
Eu355 O371 2.471 . S
Eu355 O372 2.347 . S
Eu355 O375 2.366 . S
Eu355 C385 2.825 . S
C356 O372 1.259 . S
C356 O373 1.265 . S
C357 O374 1.255 . S
C357 O375 1.265 . S
C358 C360 1.380 . S
C358 C361 1.374 . S
C358 C364 1.507 . S
C359 C360 1.384 . S
C359 C363 1.387 . S
C359 H386 0.930 . S
C360 C358 1.380 . S
C360 C359 1.384 . S
C360 H387 0.931 . S
C361 C358 1.374 . S
C361 C362 1.390 . S
C361 H388 0.930 . S
C362 C361 1.390 . S
C362 C363 1.391 . S
C362 H389 0.930 . S
C363 C359 1.387 . S
C363 C362 1.391 . S
C364 Tb354 2.825 . S
C364 C358 1.507 . S
C364 O377 1.238 . S
C364 O378 1.247 . S
O365 Tb354 2.347 . S
O365 C369 1.259 . S
O366 Eu355 2.418 . S
O366 C369 1.265 . S
O367 Eu355 2.384 . S
O367 C376 1.255 . S
O368 Tb354 2.366 . S
O368 C376 1.265 . S
C369 O365 1.259 . S
C369 O366 1.265 . S
O370 Eu355 2.479 . S
O370 C385 1.238 . S
O371 Eu355 2.471 . S
O371 C385 1.247 . S
O372 Eu355 2.347 . S
O372 C356 1.259 . S
O373 Tb354 2.418 . S
O373 C356 1.265 . S
O374 Tb354 2.384 . S
O374 C357 1.255 . S
O375 Eu355 2.366 . S
O375 C357 1.265 . S
C376 O367 1.255 . S
C376 O368 1.265 . S
O377 Tb354 2.479 . S
O377 C364 1.238 . S
O378 Tb354 2.471 . S
O378 C364 1.247 . S
C379 C382 1.380 . S
C379 C383 1.374 . S
C379 C385 1.507 . S
C380 C381 1.387 . S
C380 C384 1.391 . S
C381 C380 1.387 . S
C381 C382 1.384 . S
C381 H390 0.930 . S
C382 C379 1.380 . S
C382 C381 1.384 . S
C382 H391 0.931 . S
C383 C379 1.374 . S
C383 C384 1.390 . S
C383 H392 0.930 . S
C384 C380 1.391 . S
C384 C383 1.390 . S
C384 H393 0.930 . S
C385 Eu355 2.825 . S
C385 O370 1.238 . S
C385 O371 1.247 . S
C385 C379 1.507 . S
H386 C359 0.930 . S
H387 C360 0.931 . S
H388 C361 0.930 . S
H389 C362 0.930 . S
H390 C381 0.930 . S
H391 C382 0.931 . S
H392 C383 0.930 . S
H393 C384 0.930 . S
Tb394 C404 2.825 . S
Tb394 O405 2.347 . S
Tb394 O408 2.366 . S
Tb394 O413 2.418 . S
Tb394 O414 2.384 . S
Tb394 O417 2.479 . S
Tb394 O418 2.471 . S
Eu395 O406 2.418 . S
Eu395 O407 2.384 . S
Eu395 O410 2.479 . S
Eu395 O411 2.471 . S
Eu395 O412 2.347 . S
Eu395 O415 2.366 . S
Eu395 C425 2.825 . S
C396 O412 1.259 . S
C396 O413 1.265 . S
C397 O414 1.255 . S
C397 O415 1.265 . S
C398 C400 1.380 . S
C398 C401 1.374 . S
C398 C404 1.507 . S
C399 C400 1.384 . S
C399 C403 1.387 . S
C399 H426 0.930 . S
C400 C398 1.380 . S
C400 C399 1.384 . S
C400 H427 0.931 . S
C401 C398 1.374 . S
C401 C402 1.390 . S
C401 H428 0.930 . S
C402 C401 1.390 . S
C402 C403 1.391 . S
C402 H429 0.930 . S
C403 C399 1.387 . S
C403 C402 1.391 . S
C404 Tb394 2.825 . S
C404 C398 1.507 . S
C404 O417 1.238 . S
C404 O418 1.247 . S
O405 Tb394 2.347 . S
O405 C409 1.259 . S
O406 Eu395 2.418 . S
O406 C409 1.265 . S
O407 Eu395 2.384 . S
O407 C416 1.255 . S
O408 Tb394 2.366 . S
O408 C416 1.265 . S
C409 O405 1.259 . S
C409 O406 1.265 . S
O410 Eu395 2.479 . S
O410 C425 1.238 . S
O411 Eu395 2.471 . S
O411 C425 1.247 . S
O412 Eu395 2.347 . S
O412 C396 1.259 . S
O413 Tb394 2.418 . S
O413 C396 1.265 . S
O414 Tb394 2.384 . S
O414 C397 1.255 . S
O415 Eu395 2.366 . S
O415 C397 1.265 . S
C416 O407 1.255 . S
C416 O408 1.265 . S
O417 Tb394 2.479 . S
O417 C404 1.238 . S
O418 Tb394 2.471 . S
O418 C404 1.247 . S
C419 C422 1.380 . S
C419 C423 1.374 . S
C419 C425 1.507 . S
C420 C421 1.387 . S
C420 C424 1.391 . S
C421 C420 1.387 . S
C421 C422 1.384 . S
C421 H430 0.930 . S
C422 C419 1.380 . S
C422 C421 1.384 . S
C422 H431 0.931 . S
C423 C419 1.374 . S
C423 C424 1.390 . S
C423 H432 0.930 . S
C424 C420 1.391 . S
C424 C423 1.390 . S
C424 H433 0.930 . S
C425 Eu395 2.825 . S
C425 O410 1.238 . S
C425 O411 1.247 . S
C425 C419 1.507 . S
H426 C399 0.930 . S
H427 C400 0.931 . S
H428 C401 0.930 . S
H429 C402 0.930 . S
H430 C421 0.930 . S
H431 C422 0.931 . S
H432 C423 0.930 . S
H433 C424 0.930 . S
Tb434 C444 2.825 . S
Tb434 O445 2.347 . S
Tb434 O448 2.366 . S
Tb434 O453 2.418 . S
Tb434 O454 2.384 . S
Tb434 O457 2.479 . S
Tb434 O458 2.471 . S
Eu435 O446 2.418 . S
Eu435 O447 2.384 . S
Eu435 O450 2.479 . S
Eu435 O451 2.471 . S
Eu435 O452 2.347 . S
Eu435 O455 2.366 . S
Eu435 C465 2.825 . S
C436 O452 1.259 . S
C436 O453 1.265 . S
C437 O454 1.255 . S
C437 O455 1.265 . S
C438 C440 1.380 . S
C438 C441 1.374 . S
C438 C444 1.507 . S
C439 C440 1.384 . S
C439 C443 1.387 . S
C439 H466 0.930 . S
C440 C438 1.380 . S
C440 C439 1.384 . S
C440 H467 0.931 . S
C441 C438 1.374 . S
C441 C442 1.390 . S
C441 H468 0.930 . S
C442 C441 1.390 . S
C442 C443 1.391 . S
C442 H469 0.930 . S
C443 C439 1.387 . S
C443 C442 1.391 . S
C444 Tb434 2.825 . S
C444 C438 1.507 . S
C444 O457 1.238 . S
C444 O458 1.247 . S
O445 Tb434 2.347 . S
O445 C449 1.259 . S
O446 Eu435 2.418 . S
O446 C449 1.265 . S
O447 Eu435 2.384 . S
O447 C456 1.255 . S
O448 Tb434 2.366 . S
O448 C456 1.265 . S
C449 O445 1.259 . S
C449 O446 1.265 . S
O450 Eu435 2.479 . S
O450 C465 1.238 . S
O451 Eu435 2.471 . S
O451 C465 1.247 . S
O452 Eu435 2.347 . S
O452 C436 1.259 . S
O453 Tb434 2.418 . S
O453 C436 1.265 . S
O454 Tb434 2.384 . S
O454 C437 1.255 . S
O455 Eu435 2.366 . S
O455 C437 1.265 . S
C456 O447 1.255 . S
C456 O448 1.265 . S
O457 Tb434 2.479 . S
O457 C444 1.238 . S
O458 Tb434 2.471 . S
O458 C444 1.247 . S
C459 C462 1.380 . S
C459 C463 1.374 . S
C459 C465 1.507 . S
C460 C461 1.387 . S
C460 C464 1.391 . S
C461 C460 1.387 . S
C461 C462 1.384 . S
C461 H470 0.930 . S
C462 C459 1.380 . S
C462 C461 1.384 . S
C462 H471 0.931 . S
C463 C459 1.374 . S
C463 C464 1.390 . S
C463 H472 0.930 . S
C464 C460 1.391 . S
C464 C463 1.390 . S
C464 H473 0.930 . S
C465 Eu435 2.825 . S
C465 O450 1.238 . S
C465 O451 1.247 . S
C465 C459 1.507 . S
H466 C439 0.930 . S
H467 C440 0.931 . S
H468 C441 0.930 . S
H469 C442 0.930 . S
H470 C461 0.930 . S
H471 C462 0.931 . S
H472 C463 0.930 . S
H473 C464 0.930 . S
Tb474 C484 2.825 . S
Tb474 O485 2.347 . S
Tb474 O488 2.366 . S
Tb474 O493 2.418 . S
Tb474 O494 2.384 . S
Tb474 O497 2.479 . S
Tb474 O498 2.471 . S
Eu475 O486 2.418 . S
Eu475 O487 2.384 . S
Eu475 O490 2.479 . S
Eu475 O491 2.471 . S
Eu475 O492 2.347 . S
Eu475 O495 2.366 . S
Eu475 C505 2.825 . S
C476 O492 1.259 . S
C476 O493 1.265 . S
C477 O494 1.255 . S
C477 O495 1.265 . S
C478 C480 1.380 . S
C478 C481 1.374 . S
C478 C484 1.507 . S
C479 C480 1.384 . S
C479 C483 1.387 . S
C479 H506 0.930 . S
C480 C478 1.380 . S
C480 C479 1.384 . S
C480 H507 0.931 . S
C481 C478 1.374 . S
C481 C482 1.390 . S
C481 H508 0.930 . S
C482 C481 1.390 . S
C482 C483 1.391 . S
C482 H509 0.930 . S
C483 C479 1.387 . S
C483 C482 1.391 . S
C484 Tb474 2.825 . S
C484 C478 1.507 . S
C484 O497 1.238 . S
C484 O498 1.247 . S
O485 Tb474 2.347 . S
O485 C489 1.259 . S
O486 Eu475 2.418 . S
O486 C489 1.265 . S
O487 Eu475 2.384 . S
O487 C496 1.255 . S
O488 Tb474 2.366 . S
O488 C496 1.265 . S
C489 O485 1.259 . S
C489 O486 1.265 . S
O490 Eu475 2.479 . S
O490 C505 1.238 . S
O491 Eu475 2.471 . S
O491 C505 1.247 . S
O492 Eu475 2.347 . S
O492 C476 1.259 . S
O493 Tb474 2.418 . S
O493 C476 1.265 . S
O494 Tb474 2.384 . S
O494 C477 1.255 . S
O495 Eu475 2.366 . S
O495 C477 1.265 . S
C496 O487 1.255 . S
C496 O488 1.265 . S
O497 Tb474 2.479 . S
O497 C484 1.238 . S
O498 Tb474 2.471 . S
O498 C484 1.247 . S
C499 C502 1.380 . S
C499 C503 1.374 . S
C499 C505 1.507 . S
C500 C501 1.387 . S
C500 C504 1.391 . S
C501 C500 1.387 . S
C501 C502 1.384 . S
C501 H510 0.930 . S
C502 C499 1.380 . S
C502 C501 1.384 . S
C502 H511 0.931 . S
C503 C499 1.374 . S
C503 C504 1.390 . S
C503 H512 0.930 . S
C504 C500 1.391 . S
C504 C503 1.390 . S
C504 H513 0.930 . S
C505 Eu475 2.825 . S
C505 O490 1.238 . S
C505 O491 1.247 . S
C505 C499 1.507 . S
H506 C479 0.930 . S
H507 C480 0.931 . S
H508 C481 0.930 . S
H509 C482 0.930 . S
H510 C501 0.930 . S
H511 C502 0.931 . S
H512 C503 0.930 . S
H513 C504 0.930 . S
Tb514 C524 2.825 . S
Tb514 O525 2.347 . S
Tb514 O528 2.366 . S
Tb514 O533 2.418 . S
Tb514 O534 2.384 . S
Tb514 O537 2.479 . S
Tb514 O538 2.471 . S
Eu515 O526 2.418 . S
Eu515 O527 2.384 . S
Eu515 O530 2.479 . S
Eu515 O531 2.471 . S
Eu515 O532 2.347 . S
Eu515 O535 2.366 . S
Eu515 C545 2.825 . S
C516 O532 1.259 . S
C516 O533 1.265 . S
C517 O534 1.255 . S
C517 O535 1.265 . S
C518 C520 1.380 . S
C518 C521 1.374 . S
C518 C524 1.507 . S
C519 C520 1.384 . S
C519 C523 1.387 . S
C519 H546 0.930 . S
C520 C518 1.380 . S
C520 C519 1.384 . S
C520 H547 0.931 . S
C521 C518 1.374 . S
C521 C522 1.390 . S
C521 H548 0.930 . S
C522 C521 1.390 . S
C522 C523 1.391 . S
C522 H549 0.930 . S
C523 C519 1.387 . S
C523 C522 1.391 . S
C524 Tb514 2.825 . S
C524 C518 1.507 . S
C524 O537 1.238 . S
C524 O538 1.247 . S
O525 Tb514 2.347 . S
O525 C529 1.259 . S
O526 Eu515 2.418 . S
O526 C529 1.265 . S
O527 Eu515 2.384 . S
O527 C536 1.255 . S
O528 Tb514 2.366 . S
O528 C536 1.265 . S
C529 O525 1.259 . S
C529 O526 1.265 . S
O530 Eu515 2.479 . S
O530 C545 1.238 . S
O531 Eu515 2.471 . S
O531 C545 1.247 . S
O532 Eu515 2.347 . S
O532 C516 1.259 . S
O533 Tb514 2.418 . S
O533 C516 1.265 . S
O534 Tb514 2.384 . S
O534 C517 1.255 . S
O535 Eu515 2.366 . S
O535 C517 1.265 . S
C536 O527 1.255 . S
C536 O528 1.265 . S
O537 Tb514 2.479 . S
O537 C524 1.238 . S
O538 Tb514 2.471 . S
O538 C524 1.247 . S
C539 C542 1.380 . S
C539 C543 1.374 . S
C539 C545 1.507 . S
C540 C541 1.387 . S
C540 C544 1.391 . S
C541 C540 1.387 . S
C541 C542 1.384 . S
C541 H550 0.930 . S
C542 C539 1.380 . S
C542 C541 1.384 . S
C542 H551 0.931 . S
C543 C539 1.374 . S
C543 C544 1.390 . S
C543 H552 0.930 . S
C544 C540 1.391 . S
C544 C543 1.390 . S
C544 H553 0.930 . S
C545 Eu515 2.825 . S
C545 O530 1.238 . S
C545 O531 1.247 . S
C545 C539 1.507 . S
H546 C519 0.930 . S
H547 C520 0.931 . S
H548 C521 0.930 . S
H549 C522 0.930 . S
H550 C541 0.930 . S
H551 C542 0.931 . S
H552 C543 0.930 . S
H553 C544 0.930 . S
Tb554 C564 2.825 . S
Tb554 O565 2.347 . S
Tb554 O568 2.366 . S
Tb554 O573 2.418 . S
Tb554 O574 2.384 . S
Tb554 O577 2.479 . S
Tb554 O578 2.471 . S
Eu555 O566 2.418 . S
Eu555 O567 2.384 . S
Eu555 O570 2.479 . S
Eu555 O571 2.471 . S
Eu555 O572 2.347 . S
Eu555 O575 2.366 . S
Eu555 C585 2.825 . S
C556 O572 1.259 . S
C556 O573 1.265 . S
C557 O574 1.255 . S
C557 O575 1.265 . S
C558 C560 1.380 . S
C558 C561 1.374 . S
C558 C564 1.507 . S
C559 C560 1.384 . S
C559 C563 1.387 . S
C559 H586 0.930 . S
C560 C558 1.380 . S
C560 C559 1.384 . S
C560 H587 0.931 . S
C561 C558 1.374 . S
C561 C562 1.390 . S
C561 H588 0.930 . S
C562 C561 1.390 . S
C562 C563 1.391 . S
C562 H589 0.930 . S
C563 C559 1.387 . S
C563 C562 1.391 . S
C564 Tb554 2.825 . S
C564 C558 1.507 . S
C564 O577 1.238 . S
C564 O578 1.247 . S
O565 Tb554 2.347 . S
O565 C569 1.259 . S
O566 Eu555 2.418 . S
O566 C569 1.265 . S
O567 Eu555 2.384 . S
O567 C576 1.255 . S
O568 Tb554 2.366 . S
O568 C576 1.265 . S
C569 O565 1.259 . S
C569 O566 1.265 . S
O570 Eu555 2.479 . S
O570 C585 1.238 . S
O571 Eu555 2.471 . S
O571 C585 1.247 . S
O572 Eu555 2.347 . S
O572 C556 1.259 . S
O573 Tb554 2.418 . S
O573 C556 1.265 . S
O574 Tb554 2.384 . S
O574 C557 1.255 . S
O575 Eu555 2.366 . S
O575 C557 1.265 . S
C576 O567 1.255 . S
C576 O568 1.265 . S
O577 Tb554 2.479 . S
O577 C564 1.238 . S
O578 Tb554 2.471 . S
O578 C564 1.247 . S
C579 C582 1.380 . S
C579 C583 1.374 . S
C579 C585 1.507 . S
C580 C581 1.387 . S
C580 C584 1.391 . S
C581 C580 1.387 . S
C581 C582 1.384 . S
C581 H590 0.930 . S
C582 C579 1.380 . S
C582 C581 1.384 . S
C582 H591 0.931 . S
C583 C579 1.374 . S
C583 C584 1.390 . S
C583 H592 0.930 . S
C584 C580 1.391 . S
C584 C583 1.390 . S
C584 H593 0.930 . S
C585 Eu555 2.825 . S
C585 O570 1.238 . S
C585 O571 1.247 . S
C585 C579 1.507 . S
H586 C559 0.930 . S
H587 C560 0.931 . S
H588 C561 0.930 . S
H589 C562 0.930 . S
H590 C581 0.930 . S
H591 C582 0.931 . S
H592 C583 0.930 . S
H593 C584 0.930 . S
H594 C606 0.930 . S
H595 C608 0.930 . S
H596 C609 0.930 . S
H597 C613 0.959 . S
H598 C613 0.959 . S
H599 C613 0.961 . S
H600 C614 0.960 . S
H601 C614 0.961 . S
H602 C614 0.959 . S
H603 C617 0.929 . S
H604 C618 0.931 . S
H605 C620 0.930 . S
C606 H594 0.930 . S
C606 C607 1.399 . S
C606 C611 1.399 . S
C607 C606 1.399 . S
C607 C608 1.376 . S
C608 H595 0.930 . S
C608 C607 1.376 . S
C608 C609 1.388 . S
C609 H596 0.930 . S
C609 C608 1.388 . S
C609 C610 1.390 . S
C610 C609 1.390 . S
C610 C611 1.394 . S
C610 C616 1.465 . S
C611 C606 1.399 . S
C611 C610 1.394 . S
C611 C612 1.516 . S
C612 C611 1.516 . S
C612 C613 1.502 . S
C612 C614 1.561 . S
C612 C615 1.526 . S
C613 H597 0.959 . S
C613 H598 0.959 . S
C613 H599 0.961 . S
C613 C612 1.502 . S
C614 H600 0.960 . S
C614 H601 0.961 . S
C614 H602 0.959 . S
C614 C612 1.561 . S
C615 C612 1.526 . S
C615 C616 1.396 . S
C615 C620 1.390 . S
C616 C610 1.465 . S
C616 C615 1.396 . S
C616 C617 1.399 . S
C617 H603 0.929 . S
C617 C616 1.399 . S
C617 C618 1.385 . S
C618 H604 0.931 . S
C618 C617 1.385 . S
C618 C619 1.389 . S
C619 C618 1.389 . S
C619 C620 1.387 . S
C620 H605 0.930 . S
C620 C615 1.390 . S
C620 C619 1.387 . S
H621 C633 0.930 . S
H622 C635 0.930 . S
H623 C636 0.930 . S
H624 C640 0.959 . S
H625 C640 0.959 . S
H626 C640 0.961 . S
H627 C641 0.960 . S
H628 C641 0.961 . S
H629 C641 0.959 . S
H630 C644 0.929 . S
H631 C645 0.931 . S
H632 C647 0.930 . S
C633 H621 0.930 . S
C633 C634 1.399 . S
C633 C638 1.399 . S
C634 C633 1.399 . S
C634 C635 1.376 . S
C635 H622 0.930 . S
C635 C634 1.376 . S
C635 C636 1.388 . S
C636 H623 0.930 . S
C636 C635 1.388 . S
C636 C637 1.390 . S
C637 C636 1.390 . S
C637 C638 1.394 . S
C637 C643 1.465 . S
C638 C633 1.399 . S
C638 C637 1.394 . S
C638 C639 1.516 . S
C639 C638 1.516 . S
C639 C640 1.502 . S
C639 C641 1.561 . S
C639 C642 1.526 . S
C640 H624 0.959 . S
C640 H625 0.959 . S
C640 H626 0.961 . S
C640 C639 1.502 . S
C641 H627 0.960 . S
C641 H628 0.961 . S
C641 H629 0.959 . S
C641 C639 1.561 . S
C642 C639 1.526 . S
C642 C643 1.396 . S
C642 C647 1.390 . S
C643 C637 1.465 . S
C643 C642 1.396 . S
C643 C644 1.399 . S
C644 H630 0.929 . S
C644 C643 1.399 . S
C644 C645 1.385 . S
C645 H631 0.931 . S
C645 C644 1.385 . S
C645 C646 1.389 . S
C646 C645 1.389 . S
C646 C647 1.387 . S
C647 H632 0.930 . S
C647 C642 1.390 . S
C647 C646 1.387 . S
H648 C660 0.930 . S
H649 C662 0.930 . S
H650 C663 0.930 1_556 S
H651 C667 0.959 . S
H652 C667 0.959 . S
H653 C667 0.961 . S
H654 C668 0.960 . S
H655 C668 0.961 . S
H656 C668 0.959 . S
H657 C671 0.929 1_556 S
H658 C672 0.931 1_556 S
H659 C674 0.930 . S
C660 H648 0.930 . S
C660 C661 1.399 . S
C660 C665 1.399 . S
C661 C660 1.399 . S
C661 C662 1.376 . S
C662 H649 0.930 . S
C662 C661 1.376 . S
C662 C663 1.388 . S
C663 H650 0.930 1_554 S
C663 C662 1.388 . S
C663 C664 1.390 . S
C664 C663 1.390 . S
C664 C665 1.394 . S
C664 C670 1.465 . S
C665 C660 1.399 . S
C665 C664 1.394 . S
C665 C666 1.516 . S
C666 C665 1.516 . S
C666 C667 1.502 . S
C666 C668 1.561 . S
C666 C669 1.526 . S
C667 H651 0.959 . S
C667 H652 0.959 . S
C667 H653 0.961 . S
C667 C666 1.502 . S
C668 H654 0.960 . S
C668 H655 0.961 . S
C668 H656 0.959 . S
C668 C666 1.561 . S
C669 C666 1.526 . S
C669 C670 1.396 . S
C669 C674 1.390 . S
C670 C664 1.465 . S
C670 C669 1.396 . S
C670 C671 1.399 . S
C671 H657 0.929 1_554 S
C671 C670 1.399 . S
C671 C672 1.385 . S
C672 H658 0.931 1_554 S
C672 C671 1.385 . S
C672 C673 1.389 . S
C673 C672 1.389 . S
C673 C674 1.387 . S
C674 H659 0.930 . S
C674 C669 1.390 . S
C674 C673 1.387 . S
H675 C687 0.930 1_554 S
H676 C689 0.930 . S
H677 C690 0.930 . S
H678 C694 0.959 . S
H679 C694 0.959 . S
H680 C694 0.961 . S
H681 C695 0.960 . S
H682 C695 0.961 . S
H683 C695 0.959 . S
H684 C698 0.929 . S
H685 C699 0.931 . S
H686 C701 0.930 . S
C687 H675 0.930 1_556 S
C687 C688 1.399 . S
C687 C692 1.399 . S
C688 C687 1.399 . S
C688 C689 1.376 . S
C689 H676 0.930 . S
C689 C688 1.376 . S
C689 C690 1.388 . S
C690 H677 0.930 . S
C690 C689 1.388 . S
C690 C691 1.390 . S
C691 C690 1.390 . S
C691 C692 1.394 . S
C691 C697 1.465 . S
C692 C687 1.399 . S
C692 C691 1.394 . S
C692 C693 1.516 1_556 S
C693 C692 1.516 1_554 S
C693 C694 1.502 . S
C693 C695 1.561 . S
C693 C696 1.526 1_554 S
C694 H678 0.959 . S
C694 H679 0.959 . S
C694 H680 0.961 . S
C694 C693 1.502 . S
C695 H681 0.960 . S
C695 H682 0.961 . S
C695 H683 0.959 . S
C695 C693 1.561 . S
C696 C693 1.526 1_556 S
C696 C697 1.396 . S
C696 C701 1.390 1_556 S
C697 C691 1.465 . S
C697 C696 1.396 . S
C697 C698 1.399 . S
C698 H684 0.929 . S
C698 C697 1.399 . S
C698 C699 1.385 . S
C699 H685 0.931 . S
C699 C698 1.385 . S
C699 C700 1.389 . S
C700 C699 1.389 . S
C700 C701 1.387 1_556 S
C701 H686 0.930 . S
C701 C696 1.390 1_554 S
C701 C700 1.387 1_554 S
H702 C714 0.930 . S
H703 C716 0.930 . S
H704 C717 0.930 . S
H705 C721 0.959 . S
H706 C721 0.959 . S
H707 C721 0.961 . S
H708 C722 0.960 . S
H709 C722 0.961 1_554 S
H710 C722 0.959 . S
H711 C725 0.929 . S
H712 C726 0.931 . S
H713 C728 0.930 1_554 S
C714 H702 0.930 . S
C714 C715 1.399 . S
C714 C719 1.399 . S
C715 C714 1.399 . S
C715 C716 1.376 . S
C716 H703 0.930 . S
C716 C715 1.376 . S
C716 C717 1.388 . S
C717 H704 0.930 . S
C717 C716 1.388 . S
C717 C718 1.390 . S
C718 C717 1.390 . S
C718 C719 1.394 . S
C718 C724 1.465 . S
C719 C714 1.399 . S
C719 C718 1.394 . S
C719 C720 1.516 . S
C720 C719 1.516 . S
C720 C721 1.502 1_556 S
C720 C722 1.561 . S
C720 C723 1.526 . S
C721 H705 0.959 . S
C721 H706 0.959 . S
C721 H707 0.961 . S
C721 C720 1.502 1_554 S
C722 H708 0.960 . S
C722 H709 0.961 1_556 S
C722 H710 0.959 . S
C722 C720 1.561 . S
C723 C720 1.526 . S
C723 C724 1.396 . S
C723 C728 1.389 . S
C724 C718 1.465 . S
C724 C723 1.396 . S
C724 C725 1.399 . S
C725 H711 0.929 . S
C725 C724 1.399 . S
C725 C726 1.385 . S
C726 H712 0.931 . S
C726 C725 1.385 . S
C726 C727 1.389 . S
C727 C726 1.389 . S
C727 C728 1.387 . S
C728 H713 0.930 1_556 S
C728 C723 1.389 . S
C728 C727 1.387 . S
H729 C741 0.930 1_554 S
H730 C743 0.930 . S
H731 C744 0.930 . S
H732 C748 0.959 . S
H733 C748 0.959 . S
H734 C748 0.961 . S
H735 C749 0.960 . S
H736 C749 0.961 . S
H737 C749 0.959 . S
H738 C752 0.929 . S
H739 C753 0.931 . S
H740 C755 0.930 . S
C741 H729 0.930 1_556 S
C741 C742 1.399 . S
C741 C746 1.399 . S
C742 C741 1.399 . S
C742 C743 1.376 . S
C743 H730 0.930 . S
C743 C742 1.376 . S
C743 C744 1.388 . S
C744 H731 0.930 . S
C744 C743 1.388 . S
C744 C745 1.390 . S
C745 C744 1.390 . S
C745 C746 1.394 . S
C745 C751 1.465 . S
C746 C741 1.399 . S
C746 C745 1.394 . S
C746 C747 1.516 1_556 S
C747 C746 1.516 1_554 S
C747 C748 1.502 . S
C747 C749 1.561 . S
C747 C750 1.526 . S
C748 H732 0.959 . S
C748 H733 0.959 . S
C748 H734 0.961 . S
C748 C747 1.502 . S
C749 H735 0.960 . S
C749 H736 0.961 . S
C749 H737 0.959 . S
C749 C747 1.561 . S
C750 C747 1.526 . S
C750 C751 1.396 1_554 S
C750 C755 1.390 . S
C751 C745 1.465 . S
C751 C750 1.396 1_556 S
C751 C752 1.399 . S
C752 H738 0.929 . S
C752 C751 1.399 . S
C752 C753 1.385 . S
C753 H739 0.931 . S
C753 C752 1.385 . S
C753 C754 1.448 . S
C754 C753 1.448 . S
C754 C755 1.349 1_556 S
C755 H740 0.930 . S
C755 C750 1.390 . S
C755 C754 1.349 1_554 S
H756 C768 0.930 . S
H757 C770 0.930 . S
H758 C771 0.930 1_554 S
H759 C775 0.959 . S
H760 C775 0.959 . S
H761 C775 0.961 . S
H762 C776 0.960 . S
H763 C776 0.961 . S
H764 C776 0.959 . S
H765 C779 0.929 . S
H766 C780 0.931 . S
H767 C782 0.930 . S
C768 H756 0.930 . S
C768 C769 1.399 . S
C768 C773 1.399 . S
C769 C768 1.399 . S
C769 C770 1.376 . S
C770 H757 0.930 . S
C770 C769 1.376 . S
C770 C771 1.388 . S
C771 H758 0.930 1_556 S
C771 C770 1.388 . S
C771 C772 1.390 . S
C772 C771 1.390 . S
C772 C773 1.394 . S
C772 C778 1.465 . S
C773 C768 1.399 . S
C773 C772 1.394 . S
C773 C774 1.516 . S
C774 C773 1.516 . S
C774 C775 1.502 . S
C774 C776 1.561 . S
C774 C777 1.526 . S
C775 H759 0.959 . S
C775 H760 0.959 . S
C775 H761 0.961 . S
C775 C774 1.502 . S
C776 H762 0.960 . S
C776 H763 0.961 . S
C776 H764 0.959 . S
C776 C774 1.561 . S
C777 C774 1.526 . S
C777 C778 1.396 . S
C777 C782 1.390 . S
C778 C772 1.465 . S
C778 C777 1.396 . S
C778 C779 1.399 1_556 S
C779 H765 0.929 . S
C779 C778 1.399 1_554 S
C779 C780 1.385 . S
C780 H766 0.931 . S
C780 C779 1.385 . S
C780 C781 1.389 1_554 S
C781 C780 1.389 1_556 S
C781 C782 1.387 . S
C782 H767 0.930 . S
C782 C777 1.390 . S
C782 C781 1.387 . S
H783 C795 0.930 . S
H784 C797 0.930 . S
H785 C798 0.930 . S
H786 C802 0.959 . S
H787 C802 0.959 . S
H788 C802 0.961 . S
H789 C803 0.960 . S
H790 C803 0.961 . S
H791 C803 0.959 . S
H792 C806 0.929 . S
H793 C807 0.931 . S
H794 C809 0.930 . S
C795 H783 0.930 . S
C795 C796 1.399 . S
C795 C800 1.399 . S
C796 C795 1.399 . S
C796 C797 1.376 . S
C797 H784 0.930 . S
C797 C796 1.376 . S
C797 C798 1.388 . S
C798 H785 0.930 . S
C798 C797 1.388 . S
C798 C799 1.390 . S
C799 C798 1.390 . S
C799 C800 1.394 . S
C799 C805 1.465 . S
C800 C795 1.399 . S
C800 C799 1.394 . S
C800 C801 1.516 . S
C801 C800 1.516 . S
C801 C802 1.502 . S
C801 C803 1.561 . S
C801 C804 1.526 . S
C802 H786 0.959 . S
C802 H787 0.959 . S
C802 H788 0.961 . S
C802 C801 1.502 . S
C803 H789 0.960 . S
C803 H790 0.961 . S
C803 H791 0.959 . S
C803 C801 1.561 . S
C804 C801 1.526 . S
C804 C805 1.396 . S
C804 C809 1.390 . S
C805 C799 1.465 . S
C805 C804 1.396 . S
C805 C806 1.399 . S
C806 H792 0.929 . S
C806 C805 1.399 . S
C806 C807 1.385 . S
C807 H793 0.931 . S
C807 C806 1.385 . S
C807 C808 1.389 . S
C808 C807 1.389 . S
C808 C809 1.387 . S
C809 H794 0.930 . S
C809 C804 1.390 . S
C809 C808 1.387 . S
H810 C822 0.930 . S
H811 C824 0.930 . S
H812 C825 0.930 . S
H813 C829 0.959 . S
H814 C829 0.959 . S
H815 C829 0.961 . S
H816 C830 0.960 . S
H817 C830 0.961 . S
H818 C830 0.959 . S
H819 C833 0.929 . S
H820 C834 0.931 . S
H821 C836 0.930 . S
C822 H810 0.930 . S
C822 C823 1.399 1_554 S
C822 C827 1.399 . S
C823 C822 1.399 1_556 S
C823 C824 1.376 . S
C824 H811 0.930 . S
C824 C823 1.376 . S
C824 C825 1.388 . S
C825 H812 0.930 . S
C825 C824 1.388 . S
C825 C826 1.390 . S
C826 C825 1.390 . S
C826 C827 1.394 1_556 S
C826 C832 1.465 . S
C827 C822 1.399 . S
C827 C826 1.394 1_554 S
C827 C828 1.516 . S
C828 C827 1.516 . S
C828 C829 1.502 . S
C828 C830 1.561 . S
C828 C831 1.526 . S
C829 H813 0.959 . S
C829 H814 0.959 . S
C829 H815 0.961 . S
C829 C828 1.502 . S
C830 H816 0.960 . S
C830 H817 0.961 . S
C830 H818 0.959 . S
C830 C828 1.561 . S
C831 C828 1.526 . S
C831 C832 1.396 1_554 S
C831 C836 1.390 . S
C832 C826 1.465 . S
C832 C831 1.396 1_556 S
C832 C833 1.399 . S
C833 H819 0.929 . S
C833 C832 1.399 . S
C833 C834 1.385 . S
C834 H820 0.931 . S
C834 C833 1.385 . S
C834 C835 1.389 1_556 S
C835 C834 1.389 1_554 S
C835 C836 1.387 . S
C836 H821 0.930 . S
C836 C831 1.390 . S
C836 C835 1.387 . S
H837 C849 0.930 . S
H838 C851 0.930 . S
H839 C852 0.901 1_556 S
H840 C856 0.959 . S
H841 C856 0.959 . S
H842 C856 0.961 . S
H843 C857 0.960 . S
H844 C857 0.961 . S
H845 C857 0.959 . S
H846 C860 0.929 . S
H847 C861 0.931 . S
H848 C863 0.930 . S
C849 H837 0.930 . S
C849 C850 1.399 . S
C849 C854 1.399 . S
C850 C849 1.399 . S
C850 C851 1.376 . S
C851 H838 0.930 . S
C851 C850 1.376 . S
C851 C852 1.388 . S
C852 H839 0.901 1_554 S
C852 C851 1.388 . S
C852 C853 1.390 . S
C853 C852 1.390 . S
C853 C854 1.394 . S
C853 C859 1.465 . S
C854 C849 1.399 . S
C854 C853 1.394 . S
C854 C855 1.516 . S
C855 C854 1.516 . S
C855 C856 1.502 . S
C855 C857 1.561 . S
C855 C858 1.526 . S
C856 H840 0.959 . S
C856 H841 0.959 . S
C856 H842 0.961 . S
C856 C855 1.502 . S
C857 H843 0.960 . S
C857 H844 0.961 . S
C857 H845 0.959 . S
C857 C855 1.561 . S
C858 C855 1.526 . S
C858 C859 1.396 . S
C858 C863 1.390 . S
C859 C853 1.465 . S
C859 C858 1.396 . S
C859 C860 1.399 1_554 S
C860 H846 0.929 . S
C860 C859 1.399 1_556 S
C860 C861 1.385 . S
C861 H847 0.931 . S
C861 C860 1.385 . S
C861 C862 1.389 1_556 S
C862 C861 1.389 1_554 S
C862 C863 1.387 . S
C863 H848 0.930 . S
C863 C858 1.390 . S
C863 C862 1.387 . S
H864 C876 0.930 . S
H865 C878 0.930 . S
H866 C879 0.930 . S
H867 C883 0.959 . S
H868 C883 0.959 . S
H869 C883 0.961 . S
H870 C884 0.960 . S
H871 C884 0.961 . S
H872 C884 0.959 . S
H873 C887 0.929 . S
H874 C888 0.931 . S
H875 C890 0.930 . S
C876 H864 0.930 . S
C876 C877 1.399 . S
C876 C881 1.399 . S
C877 C876 1.399 . S
C877 C878 1.376 . S
C878 H865 0.930 . S
C878 C877 1.376 . S
C878 C879 1.388 . S
C879 H866 0.930 . S
C879 C878 1.388 . S
C879 C880 1.390 . S
C880 C879 1.390 . S
C880 C881 1.394 . S
C880 C886 1.465 . S
C881 C876 1.399 . S
C881 C880 1.394 . S
C881 C882 1.516 . S
C882 C881 1.516 . S
C882 C883 1.502 . S
C882 C884 1.561 . S
C882 C885 1.526 . S
C883 H867 0.959 . S
C883 H868 0.959 . S
C883 H869 0.961 . S
C883 C882 1.502 . S
C884 H870 0.960 . S
C884 H871 0.961 . S
C884 H872 0.959 . S
C884 C882 1.561 . S
C885 C882 1.526 . S
C885 C886 1.396 . S
C885 C890 1.390 . S
C886 C880 1.465 . S
C886 C885 1.396 . S
C886 C887 1.399 . S
C887 H873 0.929 . S
C887 C886 1.399 . S
C887 C888 1.385 . S
C888 H874 0.931 . S
C888 C887 1.385 . S
C888 C889 1.389 . S
C889 C888 1.389 . S
C889 C890 1.387 . S
C890 H875 0.930 . S
C890 C885 1.390 . S
C890 C889 1.387 . S
H891 C903 0.930 . S
H892 C905 0.930 . S
H893 C906 0.930 1_556 S
H894 C910 0.959 . S
H895 C910 0.959 . S
H896 C910 0.961 . S
H897 C911 0.960 . S
H898 C911 0.961 . S
H899 C911 0.959 . S
H900 C914 0.942 . S
H901 C915 0.920 1_556 S
H902 C917 0.930 . S
C903 H891 0.930 . S
C903 C904 1.399 . S
C903 C908 1.399 . S
C904 C903 1.399 . S
C904 C905 1.376 . S
C905 H892 0.930 . S
C905 C904 1.376 . S
C905 C906 1.388 . S
C906 H893 0.930 1_554 S
C906 C905 1.388 . S
C906 C907 1.390 . S
C907 C906 1.390 . S
C907 C908 1.394 . S
C907 C913 1.465 . S
C908 C903 1.399 . S
C908 C907 1.394 . S
C908 C909 1.516 . S
C909 C908 1.516 . S
C909 C910 1.502 . S
C909 C911 1.561 . S
C909 C912 1.526 . S
C910 H894 0.959 . S
C910 H895 0.959 . S
C910 H896 0.961 . S
C910 C909 1.502 . S
C911 H897 0.960 . S
C911 H898 0.961 . S
C911 H899 0.959 . S
C911 C909 1.561 . S
C912 C909 1.526 . S
C912 C913 1.396 . S
C912 C917 1.390 . S
C913 C907 1.465 . S
C913 C912 1.396 . S
C913 C914 1.387 1_554 S
C914 H900 0.942 . S
C914 C913 1.387 1_556 S
C914 C915 1.383 1_556 S
C915 H901 0.920 1_554 S
C915 C914 1.383 1_554 S
C915 C916 1.402 . S
C916 C915 1.402 . S
C916 C917 1.387 . S
C917 H902 0.930 . S
C917 C912 1.390 . S
C917 C916 1.387 . S
H918 C930 0.930 . S
H919 C932 0.930 . S
H920 C933 0.930 . S
H921 C937 0.959 . S
H922 C937 0.959 . S
H923 C937 0.961 1_655 S
H924 C938 0.960 . S
H925 C938 0.961 . S
H926 C938 0.959 . S
H927 C941 0.929 . S
H928 C942 0.931 . S
H929 C944 0.930 . S
C930 H918 0.930 . S
C930 C931 1.399 . S
C930 C935 1.399 . S
C931 C930 1.399 . S
C931 C932 1.376 . S
C932 H919 0.930 . S
C932 C931 1.376 . S
C932 C933 1.388 . S
C933 H920 0.930 . S
C933 C932 1.388 . S
C933 C934 1.390 . S
C934 C933 1.390 . S
C934 C935 1.394 . S
C934 C940 1.465 1_655 S
C935 C930 1.399 . S
C935 C934 1.394 . S
C935 C936 1.516 1_655 S
C936 C935 1.516 1_455 S
C936 C937 1.502 . S
C936 C938 1.561 . S
C936 C939 1.526 . S
C937 H921 0.959 . S
C937 H922 0.959 . S
C937 H923 0.961 1_455 S
C937 C936 1.502 . S
C938 H924 0.960 . S
C938 H925 0.961 . S
C938 H926 0.959 . S
C938 C936 1.561 . S
C939 C936 1.526 . S
C939 C940 1.396 . S
C939 C944 1.390 . S
C940 C934 1.465 1_455 S
C940 C939 1.396 . S
C940 C941 1.399 . S
C941 H927 0.929 . S
C941 C940 1.399 . S
C941 C942 1.385 . S
C942 H928 0.931 . S
C942 C941 1.385 . S
C942 C943 1.389 . S
C943 C942 1.389 . S
C943 C944 1.387 . S
C944 H929 0.930 . S
C944 C939 1.390 . S
C944 C943 1.387 . S
H945 C957 0.930 . S
H946 C959 0.930 . S
H947 C960 0.930 . S
H948 C964 0.959 . S
H949 C964 0.959 . S
H950 C964 0.961 . S
H951 C965 0.960 . S
H952 C965 0.961 . S
H953 C965 0.959 . S
H954 C968 0.929 . S
H955 C969 0.931 . S
H956 C971 0.930 . S
C957 H945 0.930 . S
C957 C958 1.399 . S
C957 C962 1.399 . S
C958 C957 1.399 . S
C958 C959 1.376 . S
C959 H946 0.930 . S
C959 C958 1.376 . S
C959 C960 1.388 . S
C960 H947 0.930 . S
C960 C959 1.388 . S
C960 C961 1.390 . S
C961 C960 1.390 . S
C961 C962 1.394 . S
C961 C967 1.465 . S
C962 C957 1.399 . S
C962 C961 1.394 . S
C962 C963 1.516 . S
C963 C962 1.516 . S
C963 C964 1.502 . S
C963 C965 1.561 . S
C963 C966 1.526 . S
C964 H948 0.959 . S
C964 H949 0.959 . S
C964 H950 0.961 . S
C964 C963 1.502 . S
C965 H951 0.960 . S
C965 H952 0.961 . S
C965 H953 0.959 . S
C965 C963 1.561 . S
C966 C963 1.526 . S
C966 C967 1.396 . S
C966 C971 1.390 . S
C967 C961 1.465 . S
C967 C966 1.396 . S
C967 C968 1.399 . S
C968 H954 0.929 . S
C968 C967 1.399 . S
C968 C969 1.385 . S
C969 H955 0.931 . S
C969 C968 1.385 . S
C969 C970 1.389 . S
C970 C969 1.389 . S
C970 C971 1.387 . S
C971 H956 0.930 . S
C971 C966 1.390 . S
C971 C970 1.387 . S
H972 C984 0.930 . S
H973 C986 0.930 . S
H974 C987 0.930 . S
H975 C991 0.959 . S
H976 C991 0.959 . S
H977 C991 0.961 1_545 S
H978 C992 0.960 1_545 S
H979 C992 0.961 . S
H980 C992 0.959 . S
H981 C995 0.929 . S
H982 C996 0.931 . S
H983 C998 0.930 . S
C984 H972 0.930 . S
C984 C985 1.399 . S
C984 C989 1.399 . S
C985 C984 1.399 . S
C985 C986 1.376 . S
C986 H973 0.930 . S
C986 C985 1.376 . S
C986 C987 1.388 . S
C987 H974 0.930 . S
C987 C986 1.388 . S
C987 C988 1.390 . S
C988 C987 1.390 . S
C988 C989 1.394 . S
C988 C994 1.465 1_545 S
C989 C984 1.399 . S
C989 C988 1.394 . S
C989 C990 1.516 1_545 S
C990 C989 1.516 1_565 S
C990 C991 1.502 . S
C990 C992 1.561 . S
C990 C993 1.526 . S
C991 H975 0.959 . S
C991 H976 0.959 . S
C991 H977 0.961 1_565 S
C991 C990 1.502 . S
C992 H978 0.960 1_565 S
C992 H979 0.961 . S
C992 H980 0.959 . S
C992 C990 1.561 . S
C993 C990 1.526 . S
C993 C994 1.396 . S
C993 C998 1.390 . S
C994 C988 1.465 1_565 S
C994 C993 1.396 . S
C994 C995 1.399 . S
C995 H981 0.929 . S
C995 C994 1.399 . S
C995 C996 1.385 . S
C996 H982 0.931 . S
C996 C995 1.385 . S
C996 C997 1.389 . S
C997 C996 1.389 . S
C997 C998 1.387 . S
C998 H983 0.930 . S
C998 C993 1.390 . S
C998 C997 1.387 . S
H999 C1011 0.930 . S
H1000 C1013 0.930 . S
H1001 C1014 0.930 . S
H1002 C1018 0.959 . S
H1003 C1018 0.959 . S
H1004 C1018 0.961 . S
H1005 C1019 0.960 . S
H1006 C1019 0.961 . S
H1007 C1019 0.959 . S
H1008 C1022 0.929 . S
H1009 C1023 0.931 . S
H1010 C1025 0.930 . S
C1011 H999 0.930 . S
C1011 C1012 1.399 . S
C1011 C1016 1.399 . S
C1012 C1011 1.399 . S
C1012 C1013 1.376 . S
C1013 H1000 0.930 . S
C1013 C1012 1.376 . S
C1013 C1014 1.388 . S
C1014 H1001 0.930 . S
C1014 C1013 1.388 . S
C1014 C1015 1.390 . S
C1015 C1014 1.390 . S
C1015 C1016 1.394 . S
C1015 C1021 1.465 . S
C1016 C1011 1.399 . S
C1016 C1015 1.394 . S
C1016 C1017 1.516 . S
C1017 C1016 1.516 . S
C1017 C1018 1.502 . S
C1017 C1019 1.561 . S
C1017 C1020 1.526 . S
C1018 H1002 0.959 . S
C1018 H1003 0.959 . S
C1018 H1004 0.961 . S
C1018 C1017 1.502 . S
C1019 H1005 0.960 . S
C1019 H1006 0.961 . S
C1019 H1007 0.959 . S
C1019 C1017 1.561 . S
C1020 C1017 1.526 . S
C1020 C1021 1.396 . S
C1020 C1025 1.390 . S
C1021 C1015 1.465 . S
C1021 C1020 1.396 . S
C1021 C1022 1.399 . S
C1022 H1008 0.929 . S
C1022 C1021 1.399 . S
C1022 C1023 1.385 . S
C1023 H1009 0.931 . S
C1023 C1022 1.385 . S
C1023 C1024 1.389 . S
C1024 C1023 1.389 . S
C1024 C1025 1.387 . S
C1025 H1010 0.930 . S
C1025 C1020 1.390 . S
C1025 C1024 1.387 . S
H1026 C1038 0.930 . S
H1027 C1040 0.930 . S
H1028 C1041 0.930 . S
H1029 C1045 0.959 . S
H1030 C1045 0.959 . S
H1031 C1045 0.961 . S
H1032 C1046 0.960 . S
H1033 C1046 0.961 . S
H1034 C1046 0.959 . S
H1035 C1049 0.929 . S
H1036 C1050 0.931 . S
H1037 C1052 0.930 . S
C1038 H1026 0.930 . S
C1038 C1039 1.399 . S
C1038 C1043 1.399 . S
C1039 C1038 1.399 . S
C1039 C1040 1.376 . S
C1040 H1027 0.930 . S
C1040 C1039 1.376 . S
C1040 C1041 1.388 . S
C1041 H1028 0.930 . S
C1041 C1040 1.388 . S
C1041 C1042 1.390 . S
C1042 C1041 1.390 . S
C1042 C1043 1.394 . S
C1042 C1048 1.465 . S
C1043 C1038 1.399 . S
C1043 C1042 1.394 . S
C1043 C1044 1.516 . S
C1044 C1043 1.516 . S
C1044 C1045 1.502 . S
C1044 C1046 1.561 . S
C1044 C1047 1.526 . S
C1045 H1029 0.959 . S
C1045 H1030 0.959 . S
C1045 H1031 0.961 . S
C1045 C1044 1.502 . S
C1046 H1032 0.960 . S
C1046 H1033 0.961 . S
C1046 H1034 0.959 . S
C1046 C1044 1.561 . S
C1047 C1044 1.526 . S
C1047 C1048 1.396 . S
C1047 C1052 1.390 . S
C1048 C1042 1.465 . S
C1048 C1047 1.396 . S
C1048 C1049 1.399 . S
C1049 H1035 0.929 . S
C1049 C1048 1.399 . S
C1049 C1050 1.385 . S
C1050 H1036 0.931 . S
C1050 C1049 1.385 . S
C1050 C1051 1.389 . S
C1051 C1050 1.389 . S
C1051 C1052 1.387 . S
C1052 H1037 0.930 . S
C1052 C1047 1.390 . S
C1052 C1051 1.387 . S
H1053 C1065 0.930 . S
H1054 C1067 0.930 . S
H1055 C1068 0.930 . S
H1056 C1072 0.959 . S
H1057 C1072 0.959 . S
H1058 C1072 0.961 . S
H1059 C1073 0.960 . S
H1060 C1073 0.961 . S
H1061 C1073 0.959 . S
H1062 C1076 0.929 . S
H1063 C1077 0.931 . S
H1064 C1079 0.930 . S
C1065 H1053 0.930 . S
C1065 C1066 1.399 . S
C1065 C1070 1.399 . S
C1066 C1065 1.399 . S
C1066 C1067 1.376 . S
C1067 H1054 0.930 . S
C1067 C1066 1.376 . S
C1067 C1068 1.388 . S
C1068 H1055 0.930 . S
C1068 C1067 1.388 . S
C1068 C1069 1.390 . S
C1069 C1068 1.390 . S
C1069 C1070 1.394 . S
C1069 C1075 1.465 . S
C1070 C1065 1.399 . S
C1070 C1069 1.394 . S
C1070 C1071 1.516 . S
C1071 C1070 1.516 . S
C1071 C1072 1.502 . S
C1071 C1073 1.561 . S
C1071 C1074 1.526 . S
C1072 H1056 0.959 . S
C1072 H1057 0.959 . S
C1072 H1058 0.961 . S
C1072 C1071 1.502 . S
C1073 H1059 0.960 . S
C1073 H1060 0.961 . S
C1073 H1061 0.959 . S
C1073 C1071 1.561 . S
C1074 C1071 1.526 . S
C1074 C1075 1.396 . S
C1074 C1079 1.390 . S
C1075 C1069 1.465 . S
C1075 C1074 1.396 . S
C1075 C1076 1.399 . S
C1076 H1062 0.929 . S
C1076 C1075 1.399 . S
C1076 C1077 1.385 . S
C1077 H1063 0.931 . S
C1077 C1076 1.385 . S
C1077 C1078 1.389 . S
C1078 C1077 1.389 . S
C1078 C1079 1.387 . S
C1079 H1064 0.930 . S
C1079 C1074 1.390 . S
C1079 C1078 1.387 . S
H1080 C1092 0.930 . S
H1081 C1094 0.930 . S
H1082 C1095 0.930 . S
H1083 C1099 0.959 . S
H1084 C1099 0.959 . S
H1085 C1099 0.961 . S
H1086 C1100 0.960 . S
H1087 C1100 0.961 . S
H1088 C1100 0.959 . S
H1089 C1103 0.929 . S
H1090 C1104 0.931 . S
H1091 C1106 0.930 . S
C1092 H1080 0.930 . S
C1092 C1093 1.399 . S
C1092 C1097 1.399 . S
C1093 C1092 1.399 . S
C1093 C1094 1.376 . S
C1094 H1081 0.930 . S
C1094 C1093 1.376 . S
C1094 C1095 1.388 . S
C1095 H1082 0.930 . S
C1095 C1094 1.388 . S
C1095 C1096 1.390 . S
C1096 C1095 1.390 . S
C1096 C1097 1.394 . S
C1096 C1102 1.465 . S
C1097 C1092 1.399 . S
C1097 C1096 1.394 . S
C1097 C1098 1.516 . S
C1098 C1097 1.516 . S
C1098 C1099 1.502 . S
C1098 C1100 1.561 . S
C1098 C1101 1.526 . S
C1099 H1083 0.959 . S
C1099 H1084 0.959 . S
C1099 H1085 0.961 . S
C1099 C1098 1.502 . S
C1100 H1086 0.960 . S
C1100 H1087 0.961 . S
C1100 H1088 0.959 . S
C1100 C1098 1.561 . S
C1101 C1098 1.526 . S
C1101 C1102 1.396 . S
C1101 C1106 1.390 . S
C1102 C1096 1.465 . S
C1102 C1101 1.396 . S
C1102 C1103 1.399 . S
C1103 H1089 0.929 . S
C1103 C1102 1.399 . S
C1103 C1104 1.385 . S
C1104 H1090 0.931 . S
C1104 C1103 1.385 . S
C1104 C1105 1.389 . S
C1105 C1104 1.389 . S
C1105 C1106 1.387 . S
C1106 H1091 0.930 . S
C1106 C1101 1.390 . S
C1106 C1105 1.387 . S
H1107 C1119 0.930 . S
H1108 C1121 0.930 . S
H1109 C1122 0.930 . S
H1110 C1126 0.959 . S
H1111 C1126 0.959 . S
H1112 C1126 0.961 . S
H1113 C1127 0.960 . S
H1114 C1127 0.961 . S
H1115 C1127 0.959 . S
H1116 C1130 0.929 . S
H1117 C1131 0.931 . S
H1118 C1133 0.930 . S
C1119 H1107 0.930 . S
C1119 C1120 1.399 . S
C1119 C1124 1.399 . S
C1120 C1119 1.399 . S
C1120 C1121 1.376 . S
C1121 H1108 0.930 . S
C1121 C1120 1.376 . S
C1121 C1122 1.388 . S
C1122 H1109 0.930 . S
C1122 C1121 1.388 . S
C1122 C1123 1.390 . S
C1123 C1122 1.390 . S
C1123 C1124 1.394 . S
C1123 C1129 1.465 . S
C1124 C1119 1.399 . S
C1124 C1123 1.394 . S
C1124 C1125 1.516 . S
C1125 C1124 1.516 . S
C1125 C1126 1.502 . S
C1125 C1127 1.561 . S
C1125 C1128 1.526 . S
C1126 H1110 0.959 . S
C1126 H1111 0.959 . S
C1126 H1112 0.961 . S
C1126 C1125 1.502 . S
C1127 H1113 0.960 . S
C1127 H1114 0.961 . S
C1127 H1115 0.959 . S
C1127 C1125 1.561 . S
C1128 C1125 1.526 . S
C1128 C1129 1.396 . S
C1128 C1133 1.390 . S
C1129 C1123 1.465 . S
C1129 C1128 1.396 . S
C1129 C1130 1.399 . S
C1130 H1116 0.929 . S
C1130 C1129 1.399 . S
C1130 C1131 1.385 . S
C1131 H1117 0.931 . S
C1131 C1130 1.385 . S
C1131 C1132 1.389 . S
C1132 C1131 1.389 . S
C1132 C1133 1.387 . S
C1133 H1118 0.930 . S
C1133 C1128 1.390 . S
C1133 C1132 1.387 . S
H1134 C1146 0.930 . S
H1135 C1148 0.930 . S
H1136 C1149 0.930 . S
H1137 C1153 0.959 . S
H1138 C1153 0.959 . S
H1139 C1153 0.961 . S
H1140 C1154 0.960 . S
H1141 C1154 0.961 . S
H1142 C1154 0.959 . S
H1143 C1157 0.929 . S
H1144 C1158 0.931 . S
H1145 C1160 0.930 . S
C1146 H1134 0.930 . S
C1146 C1147 1.399 . S
C1146 C1151 1.399 . S
C1147 C1146 1.399 . S
C1147 C1148 1.376 . S
C1148 H1135 0.930 . S
C1148 C1147 1.376 . S
C1148 C1149 1.388 . S
C1149 H1136 0.930 . S
C1149 C1148 1.388 . S
C1149 C1150 1.390 . S
C1150 C1149 1.390 . S
C1150 C1151 1.394 . S
C1150 C1156 1.465 . S
C1151 C1146 1.399 . S
C1151 C1150 1.394 . S
C1151 C1152 1.516 . S
C1152 C1151 1.516 . S
C1152 C1153 1.502 . S
C1152 C1154 1.561 . S
C1152 C1155 1.526 . S
C1153 H1137 0.959 . S
C1153 H1138 0.959 . S
C1153 H1139 0.961 . S
C1153 C1152 1.502 . S
C1154 H1140 0.960 . S
C1154 H1141 0.961 . S
C1154 H1142 0.959 . S
C1154 C1152 1.561 . S
C1155 C1152 1.526 . S
C1155 C1156 1.396 . S
C1155 C1160 1.390 . S
C1156 C1150 1.465 . S
C1156 C1155 1.396 . S
C1156 C1157 1.399 . S
C1157 H1143 0.929 . S
C1157 C1156 1.399 . S
C1157 C1158 1.385 . S
C1158 H1144 0.931 . S
C1158 C1157 1.385 . S
C1158 C1159 1.389 . S
C1159 C1158 1.389 . S
C1159 C1160 1.387 . S
C1160 H1145 0.930 . S
C1160 C1155 1.390 . S
C1160 C1159 1.387 . S
H1161 C1173 0.930 . S
H1162 C1175 0.930 . S
H1163 C1176 0.930 . S
H1164 C1180 0.959 . S
H1165 C1180 0.959 . S
H1166 C1180 0.961 . S
H1167 C1181 0.960 . S
H1168 C1181 0.961 . S
H1169 C1181 0.959 . S
H1170 C1184 0.929 . S
H1171 C1185 0.931 . S
H1172 C1187 0.930 . S
C1173 H1161 0.930 . S
C1173 C1174 1.399 . S
C1173 C1178 1.399 . S
C1174 C1173 1.399 . S
C1174 C1175 1.376 . S
C1175 H1162 0.930 . S
C1175 C1174 1.376 . S
C1175 C1176 1.388 . S
C1176 H1163 0.930 . S
C1176 C1175 1.388 . S
C1176 C1177 1.390 . S
C1177 C1176 1.390 . S
C1177 C1178 1.394 . S
C1177 C1183 1.465 1_545 S
C1178 C1173 1.399 . S
C1178 C1177 1.394 . S
C1178 C1179 1.516 . S
C1179 C1178 1.516 . S
C1179 C1180 1.502 . S
C1179 C1181 1.561 . S
C1179 C1182 1.526 1_545 S
C1180 H1164 0.959 . S
C1180 H1165 0.959 . S
C1180 H1166 0.961 . S
C1180 C1179 1.502 . S
C1181 H1167 0.960 . S
C1181 H1168 0.961 . S
C1181 H1169 0.959 . S
C1181 C1179 1.561 . S
C1182 C1179 1.526 1_565 S
C1182 C1183 1.396 . S
C1182 C1187 1.390 . S
C1183 C1177 1.465 1_565 S
C1183 C1182 1.396 . S
C1183 C1184 1.399 . S
C1184 H1170 0.929 . S
C1184 C1183 1.399 . S
C1184 C1185 1.385 . S
C1185 H1171 0.931 . S
C1185 C1184 1.385 . S
C1185 C1186 1.389 . S
C1186 C1185 1.389 . S
C1186 C1187 1.387 . S
C1187 H1172 0.930 . S
C1187 C1182 1.390 . S
C1187 C1186 1.387 . S
H1188 C1200 0.930 . S
H1189 C1202 0.930 . S
H1190 C1203 0.930 . S
H1191 C1207 0.959 1_655 S
H1192 C1207 0.959 . S
H1193 C1207 0.961 1_655 S
H1194 C1208 0.960 . S
H1195 C1208 0.961 . S
H1196 C1208 0.959 . S
H1197 C1211 0.929 . S
H1198 C1212 0.931 . S
H1199 C1214 0.930 . S
C1200 H1188 0.930 . S
C1200 C1201 1.399 . S
C1200 C1205 1.399 . S
C1201 C1200 1.399 . S
C1201 C1202 1.376 . S
C1202 H1189 0.930 . S
C1202 C1201 1.376 . S
C1202 C1203 1.388 . S
C1203 H1190 0.930 . S
C1203 C1202 1.388 . S
C1203 C1204 1.390 1_655 S
C1204 C1203 1.390 1_455 S
C1204 C1205 1.394 1_455 S
C1204 C1210 1.465 . S
C1205 C1200 1.399 . S
C1205 C1204 1.394 1_655 S
C1205 C1206 1.516 1_655 S
C1206 C1205 1.516 1_455 S
C1206 C1207 1.502 . S
C1206 C1208 1.561 . S
C1206 C1209 1.526 . S
C1207 H1191 0.959 1_455 S
C1207 H1192 0.959 . S
C1207 H1193 0.961 1_455 S
C1207 C1206 1.502 . S
C1208 H1194 0.960 . S
C1208 H1195 0.961 . S
C1208 H1196 0.959 . S
C1208 C1206 1.561 . S
C1209 C1206 1.526 . S
C1209 C1210 1.396 . S
C1209 C1214 1.390 . S
C1210 C1204 1.465 . S
C1210 C1209 1.396 . S
C1210 C1211 1.399 . S
C1211 H1197 0.929 . S
C1211 C1210 1.399 . S
C1211 C1212 1.385 . S
C1212 H1198 0.931 . S
C1212 C1211 1.385 . S
C1212 C1213 1.389 . S
C1213 C1212 1.389 . S
C1213 C1214 1.387 . S
C1214 H1199 0.930 . S
C1214 C1209 1.390 . S
C1214 C1213 1.387 . S
H1215 C1227 0.930 . S
H1216 C1229 0.930 . S
H1217 C1230 0.930 . S
H1218 C1234 0.959 . S
H1219 C1234 0.959 . S
H1220 C1234 0.961 . S
H1221 C1235 0.960 . S
H1222 C1235 0.961 . S
H1223 C1235 0.959 . S
H1224 C1238 0.929 . S
H1225 C1239 0.931 . S
H1226 C1241 0.930 . S
C1227 H1215 0.930 . S
C1227 C1228 1.399 . S
C1227 C1232 1.399 . S
C1228 C1227 1.399 . S
C1228 C1229 1.376 . S
C1229 H1216 0.930 . S
C1229 C1228 1.376 . S
C1229 C1230 1.388 . S
C1230 H1217 0.930 . S
C1230 C1229 1.388 . S
C1230 C1231 1.390 . S
C1231 C1230 1.390 . S
C1231 C1232 1.394 . S
C1231 C1237 1.465 . S
C1232 C1227 1.399 . S
C1232 C1231 1.394 . S
C1232 C1233 1.516 . S
C1233 C1232 1.516 . S
C1233 C1234 1.502 . S
C1233 C1235 1.561 . S
C1233 C1236 1.526 . S
C1234 H1218 0.959 . S
C1234 H1219 0.959 . S
C1234 H1220 0.961 . S
C1234 C1233 1.502 . S
C1235 H1221 0.960 . S
C1235 H1222 0.961 . S
C1235 H1223 0.959 . S
C1235 C1233 1.561 . S
C1236 C1233 1.526 . S
C1236 C1237 1.396 . S
C1236 C1241 1.390 . S
C1237 C1231 1.465 . S
C1237 C1236 1.396 . S
C1237 C1238 1.399 . S
C1238 H1224 0.929 . S
C1238 C1237 1.399 . S
C1238 C1239 1.385 . S
C1239 H1225 0.931 . S
C1239 C1238 1.385 . S
C1239 C1240 1.389 . S
C1240 C1239 1.389 . S
C1240 C1241 1.387 . S
C1241 H1226 0.930 . S
C1241 C1236 1.390 . S
C1241 C1240 1.387 . S
H1242 C1254 0.930 . S
H1243 C1256 0.930 . S
H1244 C1257 0.930 . S
H1245 C1261 0.959 . S
H1246 C1261 0.959 . S
H1247 C1261 0.961 . S
H1248 C1262 0.960 . S
H1249 C1262 0.961 . S
H1250 C1262 0.959 . S
H1251 C1265 0.929 . S
H1252 C1266 0.931 . S
H1253 C1268 0.930 . S
C1254 H1242 0.930 . S
C1254 C1255 1.399 . S
C1254 C1259 1.399 . S
C1255 C1254 1.399 . S
C1255 C1256 1.376 . S
C1256 H1243 0.930 . S
C1256 C1255 1.376 . S
C1256 C1257 1.388 . S
C1257 H1244 0.930 . S
C1257 C1256 1.388 . S
C1257 C1258 1.390 . S
C1258 C1257 1.390 . S
C1258 C1259 1.394 . S
C1258 C1264 1.465 . S
C1259 C1254 1.399 . S
C1259 C1258 1.394 . S
C1259 C1260 1.516 . S
C1260 C1259 1.516 . S
C1260 C1261 1.502 . S
C1260 C1262 1.561 . S
C1260 C1263 1.526 . S
C1261 H1245 0.959 . S
C1261 H1246 0.959 . S
C1261 H1247 0.961 . S
C1261 C1260 1.502 . S
C1262 H1248 0.960 . S
C1262 H1249 0.961 . S
C1262 H1250 0.959 . S
C1262 C1260 1.561 . S
C1263 C1260 1.526 . S
C1263 C1264 1.396 . S
C1263 C1268 1.390 . S
C1264 C1258 1.465 . S
C1264 C1263 1.396 . S
C1264 C1265 1.399 . S
C1265 H1251 0.929 . S
C1265 C1264 1.399 . S
C1265 C1266 1.385 . S
C1266 H1252 0.931 . S
C1266 C1265 1.385 . S
C1266 C1267 1.389 . S
C1267 C1266 1.389 . S
C1267 C1268 1.387 . S
C1268 H1253 0.930 . S
C1268 C1263 1.390 . S
C1268 C1267 1.387 . S
H1269 C1281 0.930 . S
H1270 C1283 0.930 . S
H1271 C1284 0.930 . S
H1272 C1288 0.959 . S
H1273 C1288 0.959 . S
H1274 C1288 0.961 . S
H1275 C1289 0.960 . S
H1276 C1289 0.961 . S
H1277 C1289 0.959 . S
H1278 C1292 0.929 . S
H1279 C1293 0.931 . S
H1280 C1295 0.930 . S
C1281 H1269 0.930 . S
C1281 C1282 1.399 . S
C1281 C1286 1.399 . S
C1282 C1281 1.399 . S
C1282 C1283 1.376 . S
C1283 H1270 0.930 . S
C1283 C1282 1.376 . S
C1283 C1284 1.388 . S
C1284 H1271 0.930 . S
C1284 C1283 1.388 . S
C1284 C1285 1.390 . S
C1285 C1284 1.390 . S
C1285 C1286 1.394 . S
C1285 C1291 1.465 . S
C1286 C1281 1.399 . S
C1286 C1285 1.394 . S
C1286 C1287 1.516 . S
C1287 C1286 1.516 . S
C1287 C1288 1.502 . S
C1287 C1289 1.561 . S
C1287 C1290 1.526 . S
C1288 H1272 0.959 . S
C1288 H1273 0.959 . S
C1288 H1274 0.961 . S
C1288 C1287 1.502 . S
C1289 H1275 0.960 . S
C1289 H1276 0.961 . S
C1289 H1277 0.959 . S
C1289 C1287 1.561 . S
C1290 C1287 1.526 . S
C1290 C1291 1.396 . S
C1290 C1295 1.390 . S
C1291 C1285 1.465 . S
C1291 C1290 1.396 . S
C1291 C1292 1.399 . S
C1292 H1278 0.929 . S
C1292 C1291 1.399 . S
C1292 C1293 1.385 . S
C1293 H1279 0.931 . S
C1293 C1292 1.385 . S
C1293 C1294 1.389 . S
C1294 C1293 1.389 . S
C1294 C1295 1.387 . S
C1295 H1280 0.930 . S
C1295 C1290 1.390 . S
C1295 C1294 1.387 . S
H1296 C1308 0.930 . S
H1297 C1310 0.930 . S
H1298 C1311 0.930 . S
H1299 C1315 0.959 . S
H1300 C1315 0.959 . S
H1301 C1315 0.961 . S
H1302 C1316 0.960 . S
H1303 C1316 0.961 . S
H1304 C1316 0.959 . S
H1305 C1319 0.929 . S
H1306 C1320 0.931 . S
H1307 C1322 0.930 . S
C1308 H1296 0.930 . S
C1308 C1309 1.399 . S
C1308 C1313 1.399 . S
C1309 C1308 1.399 . S
C1309 C1310 1.376 . S
C1310 H1297 0.930 . S
C1310 C1309 1.376 . S
C1310 C1311 1.388 . S
C1311 H1298 0.930 . S
C1311 C1310 1.388 . S
C1311 C1312 1.390 . S
C1312 C1311 1.390 . S
C1312 C1313 1.394 . S
C1312 C1318 1.465 . S
C1313 C1308 1.399 . S
C1313 C1312 1.394 . S
C1313 C1314 1.516 . S
C1314 C1313 1.516 . S
C1314 C1315 1.502 . S
C1314 C1316 1.561 . S
C1314 C1317 1.526 . S
C1315 H1299 0.959 . S
C1315 H1300 0.959 . S
C1315 H1301 0.961 . S
C1315 C1314 1.502 . S
C1316 H1302 0.960 . S
C1316 H1303 0.961 . S
C1316 H1304 0.959 . S
C1316 C1314 1.561 . S
C1317 C1314 1.526 . S
C1317 C1318 1.396 . S
C1317 C1322 1.390 . S
C1318 C1312 1.465 . S
C1318 C1317 1.396 . S
C1318 C1319 1.399 . S
C1319 H1305 0.929 . S
C1319 C1318 1.399 . S
C1319 C1320 1.385 . S
C1320 H1306 0.931 . S
C1320 C1319 1.385 . S
C1320 C1321 1.389 . S
C1321 C1320 1.389 . S
C1321 C1322 1.387 . S
C1322 H1307 0.930 . S
C1322 C1317 1.390 . S
C1322 C1321 1.387 . S
H1323 C1335 0.930 . S
H1324 C1337 0.930 . S
H1325 C1338 0.930 . S
H1326 C1342 0.959 . S
H1327 C1342 0.959 . S
H1328 C1342 0.961 . S
H1329 C1343 0.960 . S
H1330 C1343 0.961 . S
H1331 C1343 0.959 . S
H1332 C1346 0.929 . S
H1333 C1347 0.931 . S
H1334 C1349 0.930 . S
C1335 H1323 0.930 . S
C1335 C1336 1.399 . S
C1335 C1340 1.399 . S
C1336 C1335 1.399 . S
C1336 C1337 1.376 . S
C1337 H1324 0.930 . S
C1337 C1336 1.376 . S
C1337 C1338 1.388 . S
C1338 H1325 0.930 . S
C1338 C1337 1.388 . S
C1338 C1339 1.397 . S
C1339 C1338 1.397 . S
C1339 C1340 1.401 . S
C1339 C1345 1.452 1_565 S
C1340 C1335 1.399 . S
C1340 C1339 1.401 . S
C1340 C1341 1.516 1_565 S
C1341 C1340 1.516 1_545 S
C1341 C1342 1.502 . S
C1341 C1343 1.561 . S
C1341 C1344 1.526 . S
C1342 H1326 0.959 . S
C1342 H1327 0.959 . S
C1342 H1328 0.961 . S
C1342 C1341 1.502 . S
C1343 H1329 0.960 . S
C1343 H1330 0.961 . S
C1343 H1331 0.959 . S
C1343 C1341 1.561 . S
C1344 C1341 1.526 . S
C1344 C1345 1.396 . S
C1344 C1349 1.390 . S
C1345 C1339 1.452 1_545 S
C1345 C1344 1.396 . S
C1345 C1346 1.399 . S
C1346 H1332 0.929 . S
C1346 C1345 1.399 . S
C1346 C1347 1.385 . S
C1347 H1333 0.931 . S
C1347 C1346 1.385 . S
C1347 C1348 1.389 . S
C1348 C1347 1.389 . S
C1348 C1349 1.387 . S
C1349 H1334 0.930 . S
C1349 C1344 1.390 . S
C1349 C1348 1.387 . S
H1350 C1362 0.930 . S
H1351 C1364 0.930 . S
H1352 C1365 0.930 . S
H1353 C1369 0.966 1_655 S
H1354 C1369 0.959 1_655 S
H1355 C1369 0.961 . S
H1356 C1370 0.960 1_455 S
H1357 C1370 0.961 . S
H1358 C1370 0.959 . S
H1359 C1373 0.929 . S
H1360 C1374 0.931 . S
H1361 C1376 0.930 . S
C1362 H1350 0.930 . S
C1362 C1363 1.399 . S
C1362 C1367 1.399 . S
C1363 C1362 1.399 . S
C1363 C1364 1.376 . S
C1364 H1351 0.930 . S
C1364 C1363 1.376 . S
C1364 C1365 1.388 1_455 S
C1365 H1352 0.930 . S
C1365 C1364 1.388 1_655 S
C1365 C1366 1.390 . S
C1366 C1365 1.390 . S
C1366 C1367 1.394 1_655 S
C1366 C1372 1.465 . S
C1367 C1362 1.399 . S
C1367 C1366 1.394 1_455 S
C1367 C1368 1.516 1_455 S
C1368 C1367 1.516 1_655 S
C1368 C1369 1.502 1_655 S
C1368 C1370 1.561 . S
C1368 C1371 1.526 . S
C1369 H1353 0.966 1_455 S
C1369 H1354 0.959 1_455 S
C1369 H1355 0.961 . S
C1369 C1368 1.502 1_455 S
C1370 H1356 0.960 1_655 S
C1370 H1357 0.961 . S
C1370 H1358 0.959 . S
C1370 C1368 1.561 . S
C1371 C1368 1.526 . S
C1371 C1372 1.396 . S
C1371 C1376 1.390 . S
C1372 C1366 1.465 . S
C1372 C1371 1.396 . S
C1372 C1373 1.399 . S
C1373 H1359 0.929 . S
C1373 C1372 1.399 . S
C1373 C1374 1.385 . S
C1374 H1360 0.931 . S
C1374 C1373 1.385 . S
C1374 C1375 1.389 . S
C1375 C1374 1.389 . S
C1375 C1376 1.387 . S
C1376 H1361 0.930 . S
C1376 C1371 1.390 . S
C1376 C1375 1.387 . S
H1377 C1389 0.930 . S
H1378 C1391 0.930 . S
H1379 C1392 0.930 . S
H1380 C1396 0.959 . S
H1381 C1396 0.959 . S
H1382 C1396 0.961 . S
H1383 C1397 0.960 . S
H1384 C1397 0.961 . S
H1385 C1397 0.959 . S
H1386 C1400 0.929 . S
H1387 C1401 0.931 . S
H1388 C1403 0.930 . S
C1389 H1377 0.930 . S
C1389 C1390 1.399 . S
C1389 C1394 1.399 . S
C1390 C1389 1.399 . S
C1390 C1391 1.376 . S
C1391 H1378 0.930 . S
C1391 C1390 1.376 . S
C1391 C1392 1.388 . S
C1392 H1379 0.930 . S
C1392 C1391 1.388 . S
C1392 C1393 1.390 . S
C1393 C1392 1.390 . S
C1393 C1394 1.394 . S
C1393 C1399 1.465 . S
C1394 C1389 1.399 . S
C1394 C1393 1.394 . S
C1394 C1395 1.516 . S
C1395 C1394 1.516 . S
C1395 C1396 1.502 . S
C1395 C1397 1.561 . S
C1395 C1398 1.526 . S
C1396 H1380 0.959 . S
C1396 H1381 0.959 . S
C1396 H1382 0.961 . S
C1396 C1395 1.502 . S
C1397 H1383 0.960 . S
C1397 H1384 0.961 . S
C1397 H1385 0.959 . S
C1397 C1395 1.561 . S
C1398 C1395 1.526 . S
C1398 C1399 1.396 . S
C1398 C1403 1.390 . S
C1399 C1393 1.465 . S
C1399 C1398 1.396 . S
C1399 C1400 1.399 . S
C1400 H1386 0.929 . S
C1400 C1399 1.399 . S
C1400 C1401 1.385 . S
C1401 H1387 0.931 . S
C1401 C1400 1.385 . S
C1401 C1402 1.389 . S
C1402 C1401 1.389 . S
C1402 C1403 1.387 . S
C1403 H1388 0.930 . S
C1403 C1398 1.390 . S
C1403 C1402 1.387 . S
H1404 C1416 0.930 . S
H1405 C1418 0.930 . S
H1406 C1419 0.930 . S
H1407 C1423 0.959 . S
H1408 C1423 0.959 1_655 S
H1409 C1423 0.961 . S
H1410 C1424 0.960 . S
H1411 C1424 0.961 1_655 S
H1412 C1424 0.959 . S
H1413 C1427 0.929 . S
H1414 C1428 0.931 . S
H1415 C1430 0.930 . S
C1416 H1404 0.930 . S
C1416 C1417 1.399 . S
C1416 C1421 1.399 . S
C1417 C1416 1.399 . S
C1417 C1418 1.376 . S
C1418 H1405 0.930 . S
C1418 C1417 1.376 . S
C1418 C1419 1.388 . S
C1419 H1406 0.930 . S
C1419 C1418 1.388 . S
C1419 C1420 1.390 . S
C1420 C1419 1.390 . S
C1420 C1421 1.394 . S
C1420 C1426 1.465 . S
C1421 C1416 1.399 . S
C1421 C1420 1.394 . S
C1421 C1422 1.516 . S
C1422 C1421 1.516 . S
C1422 C1423 1.502 . S
C1422 C1424 1.561 . S
C1422 C1425 1.526 1_455 S
C1423 H1407 0.959 . S
C1423 H1408 0.959 1_455 S
C1423 H1409 0.961 . S
C1423 C1422 1.502 . S
C1424 H1410 0.960 . S
C1424 H1411 0.961 1_455 S
C1424 H1412 0.959 . S
C1424 C1422 1.561 . S
C1425 C1422 1.526 1_655 S
C1425 C1426 1.396 1_655 S
C1425 C1430 1.390 . S
C1426 C1420 1.465 . S
C1426 C1425 1.396 1_455 S
C1426 C1427 1.399 . S
C1427 H1413 0.929 . S
C1427 C1426 1.399 . S
C1427 C1428 1.385 1_455 S
C1428 H1414 0.931 . S
C1428 C1427 1.385 1_655 S
C1428 C1429 1.389 . S
C1429 C1428 1.389 . S
C1429 C1430 1.387 . S
C1430 H1415 0.930 . S
C1430 C1425 1.390 . S
C1430 C1429 1.387 . S
H1431 C1443 0.930 . S
H1432 C1445 0.930 . S
H1433 C1446 0.930 . S
H1434 C1450 0.959 . S
H1435 C1450 0.959 . S
H1436 C1450 0.961 . S
H1437 C1451 0.960 . S
H1438 C1451 0.961 . S
H1439 C1451 0.959 . S
H1440 C1454 0.929 . S
H1441 C1455 0.931 . S
H1442 C1457 0.930 . S
C1443 H1431 0.930 . S
C1443 C1444 1.399 . S
C1443 C1448 1.399 . S
C1444 C1443 1.399 . S
C1444 C1445 1.376 . S
C1445 H1432 0.930 . S
C1445 C1444 1.376 . S
C1445 C1446 1.388 . S
C1446 H1433 0.930 . S
C1446 C1445 1.388 . S
C1446 C1447 1.390 . S
C1447 C1446 1.390 . S
C1447 C1448 1.394 . S
C1447 C1453 1.465 . S
C1448 C1443 1.399 . S
C1448 C1447 1.394 . S
C1448 C1449 1.516 . S
C1449 C1448 1.516 . S
C1449 C1450 1.502 . S
C1449 C1451 1.561 . S
C1449 C1452 1.526 . S
C1450 H1434 0.959 . S
C1450 H1435 0.959 . S
C1450 H1436 0.961 . S
C1450 C1449 1.502 . S
C1451 H1437 0.960 . S
C1451 H1438 0.961 . S
C1451 H1439 0.959 . S
C1451 C1449 1.561 . S
C1452 C1449 1.526 . S
C1452 C1453 1.396 . S
C1452 C1457 1.390 . S
C1453 C1447 1.465 . S
C1453 C1452 1.396 . S
C1453 C1454 1.399 . S
C1454 H1440 0.929 . S
C1454 C1453 1.399 . S
C1454 C1455 1.385 . S
C1455 H1441 0.931 . S
C1455 C1454 1.385 . S
C1455 C1456 1.389 . S
C1456 C1455 1.389 . S
C1456 C1457 1.387 . S
C1457 H1442 0.930 . S
C1457 C1452 1.390 . S
C1457 C1456 1.387 . S
H1458 C1470 0.930 . S
H1459 C1472 0.930 . S
H1460 C1473 0.930 . S
H1461 C1477 0.959 . S
H1462 C1477 0.959 1_545 S
H1463 C1477 0.961 . S
H1464 C1478 0.960 . S
H1465 C1478 0.961 . S
H1466 C1478 0.959 . S
H1467 C1481 0.929 . S
H1468 C1482 0.931 . S
H1469 C1484 0.930 . S
C1470 H1458 0.930 . S
C1470 C1471 1.399 . S
C1470 C1475 1.399 . S
C1471 C1470 1.399 . S
C1471 C1472 1.376 . S
C1472 H1459 0.930 . S
C1472 C1471 1.376 . S
C1472 C1473 1.388 . S
C1473 H1460 0.930 . S
C1473 C1472 1.388 . S
C1473 C1474 1.390 . S
C1474 C1473 1.390 . S
C1474 C1475 1.394 . S
C1474 C1480 1.465 1_565 S
C1475 C1470 1.399 . S
C1475 C1474 1.394 . S
C1475 C1476 1.516 . S
C1476 C1475 1.516 . S
C1476 C1477 1.502 . S
C1476 C1478 1.561 . S
C1476 C1479 1.526 1_565 S
C1477 H1461 0.959 . S
C1477 H1462 0.959 1_565 S
C1477 H1463 0.961 . S
C1477 C1476 1.502 . S
C1478 H1464 0.960 . S
C1478 H1465 0.961 . S
C1478 H1466 0.959 . S
C1478 C1476 1.561 . S
C1479 C1476 1.526 1_545 S
C1479 C1480 1.396 . S
C1479 C1484 1.390 . S
C1480 C1474 1.465 1_545 S
C1480 C1479 1.396 . S
C1480 C1481 1.399 . S
C1481 H1467 0.929 . S
C1481 C1480 1.399 . S
C1481 C1482 1.385 . S
C1482 H1468 0.931 . S
C1482 C1481 1.385 . S
C1482 C1483 1.389 . S
C1483 C1482 1.389 . S
C1483 C1484 1.387 . S
C1484 H1469 0.930 . S
C1484 C1479 1.390 . S
C1484 C1483 1.387 . S
H1485 C1497 0.930 . S
H1486 C1499 0.930 . S
H1487 C1500 0.930 . S
H1488 C1504 0.959 . S
H1489 C1504 0.959 . S
H1490 C1504 0.961 . S
H1491 C1505 0.960 . S
H1492 C1505 0.961 . S
H1493 C1505 0.959 . S
H1494 C1508 0.929 . S
H1495 C1509 0.931 . S
H1496 C1511 0.930 . S
C1497 H1485 0.930 . S
C1497 C1498 1.399 . S
C1497 C1502 1.399 . S
C1498 C1497 1.399 . S
C1498 C1499 1.376 . S
C1499 H1486 0.930 . S
C1499 C1498 1.376 . S
C1499 C1500 1.388 . S
C1500 H1487 0.930 . S
C1500 C1499 1.388 . S
C1500 C1501 1.390 . S
C1501 C1500 1.390 . S
C1501 C1502 1.394 . S
C1501 C1507 1.465 . S
C1502 C1497 1.399 . S
C1502 C1501 1.394 . S
C1502 C1503 1.516 . S
C1503 C1502 1.516 . S
C1503 C1504 1.502 . S
C1503 C1505 1.561 . S
C1503 C1506 1.526 . S
C1504 H1488 0.959 . S
C1504 H1489 0.959 . S
C1504 H1490 0.961 . S
C1504 C1503 1.502 . S
C1505 H1491 0.960 . S
C1505 H1492 0.961 . S
C1505 H1493 0.959 . S
C1505 C1503 1.561 . S
C1506 C1503 1.526 . S
C1506 C1507 1.396 . S
C1506 C1511 1.390 . S
C1507 C1501 1.465 . S
C1507 C1506 1.396 . S
C1507 C1508 1.399 . S
C1508 H1494 0.929 . S
C1508 C1507 1.399 . S
C1508 C1509 1.385 . S
C1509 H1495 0.931 . S
C1509 C1508 1.385 . S
C1509 C1510 1.389 . S
C1510 C1509 1.389 . S
C1510 C1511 1.387 . S
C1511 H1496 0.930 . S
C1511 C1506 1.390 . S
C1511 C1510 1.387 . S
H1512 C1524 0.930 . S
H1513 C1526 0.930 . S
H1514 C1527 0.930 . S
H1515 C1531 0.959 . S
H1516 C1531 0.959 . S
H1517 C1531 0.961 . S
H1518 C1532 0.960 . S
H1519 C1532 0.961 . S
H1520 C1532 0.959 . S
H1521 C1535 0.929 . S
H1522 C1536 0.931 . S
H1523 C1538 0.930 . S
C1524 H1512 0.930 . S
C1524 C1525 1.399 . S
C1524 C1529 1.399 . S
C1525 C1524 1.399 . S
C1525 C1526 1.376 . S
C1526 H1513 0.930 . S
C1526 C1525 1.376 . S
C1526 C1527 1.388 . S
C1527 H1514 0.930 . S
C1527 C1526 1.388 . S
C1527 C1528 1.390 . S
C1528 C1527 1.390 . S
C1528 C1529 1.394 . S
C1528 C1534 1.465 . S
C1529 C1524 1.399 . S
C1529 C1528 1.394 . S
C1529 C1530 1.516 . S
C1530 C1529 1.516 . S
C1530 C1531 1.502 . S
C1530 C1532 1.561 . S
C1530 C1533 1.526 . S
C1531 H1515 0.959 . S
C1531 H1516 0.959 . S
C1531 H1517 0.961 . S
C1531 C1530 1.502 . S
C1532 H1518 0.960 . S
C1532 H1519 0.961 . S
C1532 H1520 0.959 . S
C1532 C1530 1.561 . S
C1533 C1530 1.526 . S
C1533 C1534 1.396 . S
C1533 C1538 1.390 . S
C1534 C1528 1.465 . S
C1534 C1533 1.396 . S
C1534 C1535 1.399 . S
C1535 H1521 0.929 . S
C1535 C1534 1.399 . S
C1535 C1536 1.385 . S
C1536 H1522 0.931 . S
C1536 C1535 1.385 . S
C1536 C1537 1.389 . S
C1537 C1536 1.389 . S
C1537 C1538 1.387 . S
C1538 H1523 0.930 . S
C1538 C1533 1.390 . S
C1538 C1537 1.387 . S
H1539 C1551 0.930 . S
H1540 C1553 0.930 . S
H1541 C1554 0.930 . S
H1542 C1558 0.959 . S
H1543 C1558 0.959 . S
H1544 C1558 0.961 . S
H1545 C1559 0.960 . S
H1546 C1559 0.961 . S
H1547 C1559 0.959 . S
H1548 C1562 0.929 . S
H1549 C1563 0.931 . S
H1550 C1565 0.930 . S
C1551 H1539 0.930 . S
C1551 C1552 1.399 . S
C1551 C1556 1.399 . S
C1552 C1551 1.399 . S
C1552 C1553 1.376 . S
C1553 H1540 0.930 . S
C1553 C1552 1.376 . S
C1553 C1554 1.388 . S
C1554 H1541 0.930 . S
C1554 C1553 1.388 . S
C1554 C1555 1.390 . S
C1555 C1554 1.390 . S
C1555 C1556 1.394 . S
C1555 C1561 1.465 . S
C1556 C1551 1.399 . S
C1556 C1555 1.394 . S
C1556 C1557 1.516 . S
C1557 C1556 1.516 . S
C1557 C1558 1.502 . S
C1557 C1559 1.561 . S
C1557 C1560 1.526 . S
C1558 H1542 0.959 . S
C1558 H1543 0.959 . S
C1558 H1544 0.961 . S
C1558 C1557 1.502 . S
C1559 H1545 0.960 . S
C1559 H1546 0.961 . S
C1559 H1547 0.959 . S
C1559 C1557 1.561 . S
C1560 C1557 1.526 . S
C1560 C1561 1.396 . S
C1560 C1565 1.390 . S
C1561 C1555 1.465 . S
C1561 C1560 1.396 . S
C1561 C1562 1.399 . S
C1562 H1548 0.929 . S
C1562 C1561 1.399 . S
C1562 C1563 1.385 . S
C1563 H1549 0.931 . S
C1563 C1562 1.385 . S
C1563 C1564 1.389 . S
C1564 C1563 1.389 . S
C1564 C1565 1.387 . S
C1565 H1550 0.930 . S
C1565 C1560 1.390 . S
C1565 C1564 1.387 . S
H1566 C1578 0.930 . S
H1567 C1580 0.930 . S
H1568 C1581 0.930 . S
H1569 C1585 0.959 . S
H1570 C1585 0.959 . S
H1571 C1585 0.961 . S
H1572 C1586 0.960 . S
H1573 C1586 0.961 . S
H1574 C1586 0.959 . S
H1575 C1589 0.929 . S
H1576 C1590 0.931 . S
H1577 C1592 0.930 . S
C1578 H1566 0.930 . S
C1578 C1579 1.399 . S
C1578 C1583 1.399 . S
C1579 C1578 1.399 . S
C1579 C1580 1.376 . S
C1580 H1567 0.930 . S
C1580 C1579 1.376 . S
C1580 C1581 1.388 . S
C1581 H1568 0.930 . S
C1581 C1580 1.388 . S
C1581 C1582 1.390 . S
C1582 C1581 1.390 . S
C1582 C1583 1.394 . S
C1582 C1588 1.465 . S
C1583 C1578 1.399 . S
C1583 C1582 1.394 . S
C1583 C1584 1.516 . S
C1584 C1583 1.516 . S
C1584 C1585 1.502 . S
C1584 C1586 1.561 . S
C1584 C1587 1.526 . S
C1585 H1569 0.959 . S
C1585 H1570 0.959 . S
C1585 H1571 0.961 . S
C1585 C1584 1.502 . S
C1586 H1572 0.960 . S
C1586 H1573 0.961 . S
C1586 H1574 0.959 . S
C1586 C1584 1.561 . S
C1587 C1584 1.526 . S
C1587 C1588 1.396 . S
C1587 C1592 1.390 . S
C1588 C1582 1.465 . S
C1588 C1587 1.396 . S
C1588 C1589 1.399 . S
C1589 H1575 0.929 . S
C1589 C1588 1.399 . S
C1589 C1590 1.385 . S
C1590 H1576 0.931 . S
C1590 C1589 1.385 . S
C1590 C1591 1.389 . S
C1591 C1590 1.389 . S
C1591 C1592 1.387 . S
C1592 H1577 0.930 . S
C1592 C1587 1.390 . S
C1592 C1591 1.387 . S
H1593 C1605 0.930 . S
H1594 C1607 0.930 . S
H1595 C1608 0.930 . S
H1596 C1612 0.959 . S
H1597 C1612 0.959 . S
H1598 C1612 0.961 . S
H1599 C1613 0.960 . S
H1600 C1613 0.961 . S
H1601 C1613 0.959 . S
H1602 C1616 0.929 . S
H1603 C1617 0.931 . S
H1604 C1619 0.930 . S
C1605 H1593 0.930 . S
C1605 C1606 1.399 . S
C1605 C1610 1.399 . S
C1606 C1605 1.399 . S
C1606 C1607 1.376 . S
C1607 H1594 0.930 . S
C1607 C1606 1.376 . S
C1607 C1608 1.388 . S
C1608 H1595 0.930 . S
C1608 C1607 1.388 . S
C1608 C1609 1.390 . S
C1609 C1608 1.390 . S
C1609 C1610 1.394 . S
C1609 C1615 1.465 . S
C1610 C1605 1.399 . S
C1610 C1609 1.394 . S
C1610 C1611 1.516 . S
C1611 C1610 1.516 . S
C1611 C1612 1.502 . S
C1611 C1613 1.561 . S
C1611 C1614 1.526 . S
C1612 H1596 0.959 . S
C1612 H1597 0.959 . S
C1612 H1598 0.961 . S
C1612 C1611 1.502 . S
C1613 H1599 0.960 . S
C1613 H1600 0.961 . S
C1613 H1601 0.959 . S
C1613 C1611 1.561 . S
C1614 C1611 1.526 . S
C1614 C1615 1.396 . S
C1614 C1619 1.390 . S
C1615 C1609 1.465 . S
C1615 C1614 1.396 . S
C1615 C1616 1.399 . S
C1616 H1602 0.929 . S
C1616 C1615 1.399 . S
C1616 C1617 1.385 . S
C1617 H1603 0.931 . S
C1617 C1616 1.385 . S
C1617 C1618 1.389 . S
C1618 C1617 1.389 . S
C1618 C1619 1.387 . S
C1619 H1604 0.930 . S
C1619 C1614 1.390 . S
C1619 C1618 1.387 . S
H1620 C1632 0.930 . S
H1621 C1634 0.930 . S
H1622 C1635 0.930 . S
H1623 C1639 0.959 . S
H1624 C1639 0.959 . S
H1625 C1639 0.961 . S
H1626 C1640 0.960 . S
H1627 C1640 0.961 . S
H1628 C1640 0.959 . S
H1629 C1643 0.929 . S
H1630 C1644 0.931 . S
H1631 C1646 0.930 . S
C1632 H1620 0.930 . S
C1632 C1633 1.399 . S
C1632 C1637 1.399 . S
C1633 C1632 1.399 . S
C1633 C1634 1.376 . S
C1634 H1621 0.930 . S
C1634 C1633 1.376 . S
C1634 C1635 1.388 . S
C1635 H1622 0.930 . S
C1635 C1634 1.388 . S
C1635 C1636 1.390 . S
C1636 C1635 1.390 . S
C1636 C1637 1.394 . S
C1636 C1642 1.465 . S
C1637 C1632 1.399 . S
C1637 C1636 1.394 . S
C1637 C1638 1.516 . S
C1638 C1637 1.516 . S
C1638 C1639 1.502 . S
C1638 C1640 1.561 . S
C1638 C1641 1.526 . S
C1639 H1623 0.959 . S
C1639 H1624 0.959 . S
C1639 H1625 0.961 . S
C1639 C1638 1.502 . S
C1640 H1626 0.960 . S
C1640 H1627 0.961 . S
C1640 H1628 0.959 . S
C1640 C1638 1.561 . S
C1641 C1638 1.526 . S
C1641 C1642 1.396 . S
C1641 C1646 1.390 . S
C1642 C1636 1.465 . S
C1642 C1641 1.396 . S
C1642 C1643 1.399 . S
C1643 H1629 0.929 . S
C1643 C1642 1.399 . S
C1643 C1644 1.385 . S
C1644 H1630 0.931 . S
C1644 C1643 1.385 . S
C1644 C1645 1.389 . S
C1645 C1644 1.389 . S
C1645 C1646 1.387 . S
C1646 H1631 0.930 . S
C1646 C1641 1.390 . S
C1646 C1645 1.387 . S
H1647 C1659 0.930 . S
H1648 C1661 0.930 . S
H1649 C1662 0.930 . S
H1650 C1666 0.959 . S
H1651 C1666 0.959 . S
H1652 C1666 0.961 . S
H1653 C1667 0.960 . S
H1654 C1667 0.961 . S
H1655 C1667 0.959 . S
H1656 C1670 0.929 . S
H1657 C1671 0.931 . S
H1658 C1673 0.930 . S
C1659 H1647 0.930 . S
C1659 C1660 1.399 . S
C1659 C1664 1.399 . S
C1660 C1659 1.399 . S
C1660 C1661 1.376 . S
C1661 H1648 0.930 . S
C1661 C1660 1.376 . S
C1661 C1662 1.388 . S
C1662 H1649 0.930 . S
C1662 C1661 1.388 . S
C1662 C1663 1.390 . S
C1663 C1662 1.390 . S
C1663 C1664 1.394 . S
C1663 C1669 1.465 . S
C1664 C1659 1.399 . S
C1664 C1663 1.394 . S
C1664 C1665 1.516 . S
C1665 C1664 1.516 . S
C1665 C1666 1.502 1_655 S
C1665 C1667 1.561 . S
C1665 C1668 1.526 . S
C1666 H1650 0.959 . S
C1666 H1651 0.959 . S
C1666 H1652 0.961 . S
C1666 C1665 1.502 1_455 S
C1667 H1653 0.960 . S
C1667 H1654 0.961 . S
C1667 H1655 0.959 . S
C1667 C1665 1.561 . S
C1668 C1665 1.526 . S
C1668 C1669 1.396 . S
C1668 C1673 1.390 . S
C1669 C1663 1.465 . S
C1669 C1668 1.396 . S
C1669 C1670 1.399 . S
C1670 H1656 0.929 . S
C1670 C1669 1.399 . S
C1670 C1671 1.385 . S
C1671 H1657 0.931 . S
C1671 C1670 1.385 . S
C1671 C1672 1.389 . S
C1672 C1671 1.389 . S
C1672 C1673 1.387 . S
C1673 H1658 0.930 . S
C1673 C1668 1.390 . S
C1673 C1672 1.387 . S
H1674 C1686 0.930 . S
H1675 C1688 0.930 . S
H1676 C1689 0.930 . S
H1677 C1693 0.959 . S
H1678 C1693 0.959 . S
H1679 C1693 0.961 . S
H1680 C1694 0.960 . S
H1681 C1694 0.961 . S
H1682 C1694 0.959 . S
H1683 C1697 0.929 . S
H1684 C1698 0.931 . S
H1685 C1700 0.930 . S
C1686 H1674 0.930 . S
C1686 C1687 1.399 . S
C1686 C1691 1.399 . S
C1687 C1686 1.399 . S
C1687 C1688 1.376 . S
C1688 H1675 0.930 . S
C1688 C1687 1.376 . S
C1688 C1689 1.388 . S
C1689 H1676 0.930 . S
C1689 C1688 1.388 . S
C1689 C1690 1.390 . S
C1690 C1689 1.390 . S
C1690 C1691 1.394 . S
C1690 C1696 1.465 . S
C1691 C1686 1.399 . S
C1691 C1690 1.394 . S
C1691 C1692 1.516 . S
C1692 C1691 1.516 . S
C1692 C1693 1.502 . S
C1692 C1694 1.561 . S
C1692 C1695 1.526 . S
C1693 H1677 0.959 . S
C1693 H1678 0.959 . S
C1693 H1679 0.961 . S
C1693 C1692 1.502 . S
C1694 H1680 0.960 . S
C1694 H1681 0.961 . S
C1694 H1682 0.959 . S
C1694 C1692 1.561 . S
C1695 C1692 1.526 . S
C1695 C1696 1.396 . S
C1695 C1700 1.390 . S
C1696 C1690 1.465 . S
C1696 C1695 1.396 . S
C1696 C1697 1.399 . S
C1697 H1683 0.929 . S
C1697 C1696 1.399 . S
C1697 C1698 1.385 . S
C1698 H1684 0.931 . S
C1698 C1697 1.385 . S
C1698 C1699 1.389 . S
C1699 C1698 1.389 . S
C1699 C1700 1.387 . S
C1700 H1685 0.930 . S
C1700 C1695 1.390 . S
C1700 C1699 1.387 . S
H1701 C1713 0.930 . S
H1702 C1715 0.930 . S
H1703 C1716 0.930 . S
H1704 C1720 0.959 . S
H1705 C1720 0.959 . S
H1706 C1720 0.961 . S
H1707 C1721 0.960 . S
H1708 C1721 0.961 . S
H1709 C1721 0.959 . S
H1710 C1724 0.929 . S
H1711 C1725 0.931 . S
H1712 C1727 0.930 . S
C1713 H1701 0.930 . S
C1713 C1714 1.399 . S
C1713 C1718 1.399 . S
C1714 C1713 1.399 . S
C1714 C1715 1.376 . S
C1715 H1702 0.930 . S
C1715 C1714 1.376 . S
C1715 C1716 1.388 . S
C1716 H1703 0.930 . S
C1716 C1715 1.388 . S
C1716 C1717 1.390 . S
C1717 C1716 1.390 . S
C1717 C1718 1.394 . S
C1717 C1723 1.465 . S
C1718 C1713 1.399 . S
C1718 C1717 1.394 . S
C1718 C1719 1.516 . S
C1719 C1718 1.516 . S
C1719 C1720 1.502 . S
C1719 C1721 1.561 . S
C1719 C1722 1.526 . S
C1720 H1704 0.959 . S
C1720 H1705 0.959 . S
C1720 H1706 0.961 . S
C1720 C1719 1.502 . S
C1721 H1707 0.960 . S
C1721 H1708 0.961 . S
C1721 H1709 0.959 . S
C1721 C1719 1.561 . S
C1722 C1719 1.526 . S
C1722 C1723 1.396 . S
C1722 C1727 1.390 . S
C1723 C1717 1.465 . S
C1723 C1722 1.396 . S
C1723 C1724 1.399 . S
C1724 H1710 0.929 . S
C1724 C1723 1.399 . S
C1724 C1725 1.385 . S
C1725 H1711 0.931 . S
C1725 C1724 1.385 . S
C1725 C1726 1.389 . S
C1726 C1725 1.389 . S
C1726 C1727 1.387 . S
C1727 H1712 0.930 . S
C1727 C1722 1.390 . S
C1727 C1726 1.387 . S
H1728 C1740 0.930 . S
H1729 C1742 0.930 . S
H1730 C1743 0.930 . S
H1731 C1747 0.959 . S
H1732 C1747 0.959 . S
H1733 C1747 0.961 . S
H1734 C1748 0.960 . S
H1735 C1748 0.961 . S
H1736 C1748 0.959 . S
H1737 C1751 0.929 . S
H1738 C1752 0.931 . S
H1739 C1754 0.930 . S
C1740 H1728 0.930 . S
C1740 C1741 1.399 . S
C1740 C1745 1.399 . S
C1741 C1740 1.399 . S
C1741 C1742 1.376 . S
C1742 H1729 0.930 . S
C1742 C1741 1.376 . S
C1742 C1743 1.388 . S
C1743 H1730 0.930 . S
C1743 C1742 1.388 . S
C1743 C1744 1.390 . S
C1744 C1743 1.390 . S
C1744 C1745 1.394 . S
C1744 C1750 1.465 . S
C1745 C1740 1.399 . S
C1745 C1744 1.394 . S
C1745 C1746 1.516 . S
C1746 C1745 1.516 . S
C1746 C1747 1.502 . S
C1746 C1748 1.561 . S
C1746 C1749 1.526 . S
C1747 H1731 0.959 . S
C1747 H1732 0.959 . S
C1747 H1733 0.961 . S
C1747 C1746 1.502 . S
C1748 H1734 0.960 . S
C1748 H1735 0.961 . S
C1748 H1736 0.959 . S
C1748 C1746 1.561 . S
C1749 C1746 1.526 . S
C1749 C1750 1.396 . S
C1749 C1754 1.390 . S
C1750 C1744 1.465 . S
C1750 C1749 1.396 . S
C1750 C1751 1.399 . S
C1751 H1737 0.929 . S
C1751 C1750 1.399 . S
C1751 C1752 1.385 . S
C1752 H1738 0.931 . S
C1752 C1751 1.385 . S
C1752 C1753 1.389 . S
C1753 C1752 1.389 . S
C1753 C1754 1.387 . S
C1754 H1739 0.930 . S
C1754 C1749 1.390 . S
C1754 C1753 1.387 . S
H1755 C1767 0.930 . S
H1756 C1769 0.930 . S
H1757 C1770 0.930 . S
H1758 C1774 0.959 . S
H1759 C1774 0.959 . S
H1760 C1774 0.961 . S
H1761 C1775 0.960 . S
H1762 C1775 0.961 . S
H1763 C1775 0.959 . S
H1764 C1778 0.929 . S
H1765 C1779 0.931 . S
H1766 C1781 0.930 . S
C1767 H1755 0.930 . S
C1767 C1768 1.399 . S
C1767 C1772 1.399 . S
C1768 C1767 1.399 . S
C1768 C1769 1.376 . S
C1769 H1756 0.930 . S
C1769 C1768 1.376 . S
C1769 C1770 1.388 . S
C1770 H1757 0.930 . S
C1770 C1769 1.388 . S
C1770 C1771 1.390 . S
C1771 C1770 1.390 . S
C1771 C1772 1.394 . S
C1771 C1777 1.465 . S
C1772 C1767 1.399 . S
C1772 C1771 1.394 . S
C1772 C1773 1.516 . S
C1773 C1772 1.516 . S
C1773 C1774 1.502 . S
C1773 C1775 1.561 . S
C1773 C1776 1.526 . S
C1774 H1758 0.959 . S
C1774 H1759 0.959 . S
C1774 H1760 0.961 . S
C1774 C1773 1.502 . S
C1775 H1761 0.960 . S
C1775 H1762 0.961 . S
C1775 H1763 0.959 . S
C1775 C1773 1.561 . S
C1776 C1773 1.526 . S
C1776 C1777 1.396 . S
C1776 C1781 1.390 . S
C1777 C1771 1.465 . S
C1777 C1776 1.396 . S
C1777 C1778 1.399 . S
C1778 H1764 0.929 . S
C1778 C1777 1.399 . S
C1778 C1779 1.385 . S
C1779 H1765 0.931 . S
C1779 C1778 1.385 . S
C1779 C1780 1.389 . S
C1780 C1779 1.389 . S
C1780 C1781 1.387 . S
C1781 H1766 0.930 . S
C1781 C1776 1.390 . S
C1781 C1780 1.387 . S
H1782 C1794 0.930 . S
H1783 C1796 0.930 . S
H1784 C1797 0.930 . S
H1785 C1801 0.959 . S
H1786 C1801 0.959 . S
H1787 C1801 0.961 . S
H1788 C1802 0.960 . S
H1789 C1802 0.961 . S
H1790 C1802 0.959 . S
H1791 C1805 0.929 . S
H1792 C1806 0.931 . S
H1793 C1808 0.930 . S
C1794 H1782 0.930 . S
C1794 C1795 1.399 . S
C1794 C1799 1.399 . S
C1795 C1794 1.399 . S
C1795 C1796 1.376 . S
C1796 H1783 0.930 . S
C1796 C1795 1.376 . S
C1796 C1797 1.388 . S
C1797 H1784 0.930 . S
C1797 C1796 1.388 . S
C1797 C1798 1.390 . S
C1798 C1797 1.390 . S
C1798 C1799 1.394 . S
C1798 C1804 1.465 . S
C1799 C1794 1.399 . S
C1799 C1798 1.394 . S
C1799 C1800 1.516 . S
C1800 C1799 1.516 . S
C1800 C1801 1.502 . S
C1800 C1802 1.561 . S
C1800 C1803 1.526 . S
C1801 H1785 0.959 . S
C1801 H1786 0.959 . S
C1801 H1787 0.961 . S
C1801 C1800 1.502 . S
C1802 H1788 0.960 . S
C1802 H1789 0.961 . S
C1802 H1790 0.959 . S
C1802 C1800 1.561 . S
C1803 C1800 1.526 . S
C1803 C1804 1.396 . S
C1803 C1808 1.390 . S
C1804 C1798 1.465 . S
C1804 C1803 1.396 . S
C1804 C1805 1.399 . S
C1805 H1791 0.929 . S
C1805 C1804 1.399 . S
C1805 C1806 1.385 . S
C1806 H1792 0.931 . S
C1806 C1805 1.385 . S
C1806 C1807 1.389 . S
C1807 C1806 1.389 . S
C1807 C1808 1.387 . S
C1808 H1793 0.930 . S
C1808 C1803 1.390 . S
C1808 C1807 1.387 . S
H1809 C1821 0.930 . S
H1810 C1823 0.930 . S
H1811 C1824 0.930 . S
H1812 C1828 0.959 . S
H1813 C1828 0.959 . S
H1814 C1828 0.961 . S
H1815 C1829 0.960 . S
H1816 C1829 0.961 . S
H1817 C1829 0.959 . S
H1818 C1832 0.929 . S
H1819 C1833 0.931 . S
H1820 C1835 0.930 . S
C1821 H1809 0.930 . S
C1821 C1822 1.399 . S
C1821 C1826 1.399 . S
C1822 C1821 1.399 . S
C1822 C1823 1.376 . S
C1823 H1810 0.930 . S
C1823 C1822 1.376 . S
C1823 C1824 1.388 . S
C1824 H1811 0.930 . S
C1824 C1823 1.388 . S
C1824 C1825 1.390 . S
C1825 C1824 1.390 . S
C1825 C1826 1.394 . S
C1825 C1831 1.465 . S
C1826 C1821 1.399 . S
C1826 C1825 1.394 . S
C1826 C1827 1.516 . S
C1827 C1826 1.516 . S
C1827 C1828 1.502 . S
C1827 C1829 1.561 . S
C1827 C1830 1.526 . S
C1828 H1812 0.959 . S
C1828 H1813 0.959 . S
C1828 H1814 0.961 . S
C1828 C1827 1.502 . S
C1829 H1815 0.960 . S
C1829 H1816 0.961 . S
C1829 H1817 0.959 . S
C1829 C1827 1.561 . S
C1830 C1827 1.526 . S
C1830 C1831 1.396 . S
C1830 C1835 1.390 . S
C1831 C1825 1.465 . S
C1831 C1830 1.396 . S
C1831 C1832 1.399 . S
C1832 H1818 0.929 . S
C1832 C1831 1.399 . S
C1832 C1833 1.385 . S
C1833 H1819 0.931 . S
C1833 C1832 1.385 . S
C1833 C1834 1.389 . S
C1834 C1833 1.389 . S
C1834 C1835 1.387 . S
C1835 H1820 0.930 . S
C1835 C1830 1.390 . S
C1835 C1834 1.387 . S
H1836 C1848 0.930 . S
H1837 C1850 0.930 . S
H1838 C1851 0.930 . S
H1839 C1855 0.959 . S
H1840 C1855 0.959 . S
H1841 C1855 0.961 . S
H1842 C1856 0.960 . S
H1843 C1856 0.961 . S
H1844 C1856 0.959 . S
H1845 C1859 0.929 . S
H1846 C1860 0.931 . S
H1847 C1862 0.930 . S
C1848 H1836 0.930 . S
C1848 C1849 1.399 . S
C1848 C1853 1.399 . S
C1849 C1848 1.399 . S
C1849 C1850 1.376 . S
C1850 H1837 0.930 . S
C1850 C1849 1.376 . S
C1850 C1851 1.388 . S
C1851 H1838 0.930 . S
C1851 C1850 1.388 . S
C1851 C1852 1.390 . S
C1852 C1851 1.390 . S
C1852 C1853 1.394 . S
C1852 C1858 1.465 . S
C1853 C1848 1.399 . S
C1853 C1852 1.394 . S
C1853 C1854 1.516 . S
C1854 C1853 1.516 . S
C1854 C1855 1.502 . S
C1854 C1856 1.561 . S
C1854 C1857 1.526 . S
C1855 H1839 0.959 . S
C1855 H1840 0.959 . S
C1855 H1841 0.961 . S
C1855 C1854 1.502 . S
C1856 H1842 0.960 . S
C1856 H1843 0.961 . S
C1856 H1844 0.959 . S
C1856 C1854 1.561 . S
C1857 C1854 1.526 . S
C1857 C1858 1.396 . S
C1857 C1862 1.390 . S
C1858 C1852 1.465 . S
C1858 C1857 1.396 . S
C1858 C1859 1.399 . S
C1859 H1845 0.929 . S
C1859 C1858 1.399 . S
C1859 C1860 1.385 . S
C1860 H1846 0.931 . S
C1860 C1859 1.385 . S
C1860 C1861 1.389 . S
C1861 C1860 1.389 . S
C1861 C1862 1.387 . S
C1862 H1847 0.930 . S
C1862 C1857 1.390 . S
C1862 C1861 1.387 . S
H1863 C1875 0.930 . S
H1864 C1877 0.930 . S
H1865 C1878 0.930 . S
H1866 C1882 0.959 . S
H1867 C1882 0.959 . S
H1868 C1882 0.961 . S
H1869 C1883 0.960 . S
H1870 C1883 0.961 . S
H1871 C1883 0.959 . S
H1872 C1886 0.929 . S
H1873 C1887 0.931 . S
H1874 C1889 0.930 . S
C1875 H1863 0.930 . S
C1875 C1876 1.399 . S
C1875 C1880 1.399 . S
C1876 C1875 1.399 . S
C1876 C1877 1.376 . S
C1877 H1864 0.930 . S
C1877 C1876 1.376 . S
C1877 C1878 1.388 . S
C1878 H1865 0.930 . S
C1878 C1877 1.388 . S
C1878 C1879 1.390 . S
C1879 C1878 1.390 . S
C1879 C1880 1.394 . S
C1879 C1885 1.465 . S
C1880 C1875 1.399 . S
C1880 C1879 1.394 . S
C1880 C1881 1.516 . S
C1881 C1880 1.516 . S
C1881 C1882 1.502 . S
C1881 C1883 1.561 . S
C1881 C1884 1.526 . S
C1882 H1866 0.959 . S
C1882 H1867 0.959 . S
C1882 H1868 0.961 . S
C1882 C1881 1.502 . S
C1883 H1869 0.960 . S
C1883 H1870 0.961 . S
C1883 H1871 0.959 . S
C1883 C1881 1.561 . S
C1884 C1881 1.526 . S
C1884 C1885 1.396 . S
C1884 C1889 1.390 . S
C1885 C1879 1.465 . S
C1885 C1884 1.396 . S
C1885 C1886 1.399 . S
C1886 H1872 0.929 . S
C1886 C1885 1.399 . S
C1886 C1887 1.385 . S
C1887 H1873 0.931 . S
C1887 C1886 1.385 . S
C1887 C1888 1.389 . S
C1888 C1887 1.389 . S
C1888 C1889 1.387 . S
C1889 H1874 0.930 . S
C1889 C1884 1.390 . S
C1889 C1888 1.387 . S
H1890 C1902 0.930 . S
H1891 C1904 0.930 . S
H1892 C1905 0.930 . S
H1893 C1909 0.959 . S
H1894 C1909 0.959 . S
H1895 C1909 0.961 . S
H1896 C1910 0.960 . S
H1897 C1910 0.961 . S
H1898 C1910 0.959 . S
H1899 C1913 0.929 . S
H1900 C1914 0.931 . S
H1901 C1916 0.930 . S
C1902 H1890 0.930 . S
C1902 C1903 1.399 . S
C1902 C1907 1.399 . S
C1903 C1902 1.399 . S
C1903 C1904 1.376 . S
C1904 H1891 0.930 . S
C1904 C1903 1.376 . S
C1904 C1905 1.388 . S
C1905 H1892 0.930 . S
C1905 C1904 1.388 . S
C1905 C1906 1.390 . S
C1906 C1905 1.390 . S
C1906 C1907 1.394 . S
C1906 C1912 1.465 . S
C1907 C1902 1.399 . S
C1907 C1906 1.394 . S
C1907 C1908 1.516 . S
C1908 C1907 1.516 . S
C1908 C1909 1.502 . S
C1908 C1910 1.561 . S
C1908 C1911 1.526 . S
C1909 H1893 0.959 . S
C1909 H1894 0.959 . S
C1909 H1895 0.961 . S
C1909 C1908 1.502 . S
C1910 H1896 0.960 . S
C1910 H1897 0.961 . S
C1910 H1898 0.959 . S
C1910 C1908 1.561 . S
C1911 C1908 1.526 . S
C1911 C1912 1.396 . S
C1911 C1916 1.390 . S
C1912 C1906 1.465 . S
C1912 C1911 1.396 . S
C1912 C1913 1.399 . S
C1913 H1899 0.929 . S
C1913 C1912 1.399 . S
C1913 C1914 1.385 . S
C1914 H1900 0.931 . S
C1914 C1913 1.385 . S
C1914 C1915 1.389 . S
C1915 C1914 1.389 . S
C1915 C1916 1.387 . S
C1916 H1901 0.930 . S
C1916 C1911 1.390 . S
C1916 C1915 1.387 . S
H1917 C1929 0.930 . S
H1918 C1931 0.930 . S
H1919 C1932 0.930 . S
H1920 C1936 0.959 . S
H1921 C1936 0.959 . S
H1922 C1936 0.961 . S
H1923 C1937 0.960 . S
H1924 C1937 0.961 . S
H1925 C1937 0.959 . S
H1926 C1940 0.929 . S
H1927 C1941 0.931 . S
H1928 C1943 0.930 . S
C1929 H1917 0.930 . S
C1929 C1930 1.399 . S
C1929 C1934 1.399 . S
C1930 C1929 1.399 . S
C1930 C1931 1.376 . S
C1931 H1918 0.930 . S
C1931 C1930 1.376 . S
C1931 C1932 1.388 . S
C1932 H1919 0.930 . S
C1932 C1931 1.388 . S
C1932 C1933 1.390 . S
C1933 C1932 1.390 . S
C1933 C1934 1.394 . S
C1933 C1939 1.465 . S
C1934 C1929 1.399 . S
C1934 C1933 1.394 . S
C1934 C1935 1.516 . S
C1935 C1934 1.516 . S
C1935 C1936 1.502 . S
C1935 C1937 1.561 . S
C1935 C1938 1.526 . S
C1936 H1920 0.959 . S
C1936 H1921 0.959 . S
C1936 H1922 0.961 . S
C1936 C1935 1.502 . S
C1937 H1923 0.960 . S
C1937 H1924 0.961 . S
C1937 H1925 0.959 . S
C1937 C1935 1.561 . S
C1938 C1935 1.526 . S
C1938 C1939 1.396 . S
C1938 C1943 1.390 . S
C1939 C1933 1.465 . S
C1939 C1938 1.396 . S
C1939 C1940 1.399 . S
C1940 H1926 0.929 . S
C1940 C1939 1.399 . S
C1940 C1941 1.385 . S
C1941 H1927 0.931 . S
C1941 C1940 1.385 . S
C1941 C1942 1.389 . S
C1942 C1941 1.389 . S
C1942 C1943 1.387 . S
C1943 H1928 0.930 . S
C1943 C1938 1.390 . S
C1943 C1942 1.387 . S
H1944 C1956 0.930 . S
H1945 C1958 0.930 . S
H1946 C1959 0.930 . S
H1947 C1963 0.959 . S
H1948 C1963 0.959 . S
H1949 C1963 0.961 . S
H1950 C1964 0.960 . S
H1951 C1964 0.961 . S
H1952 C1964 0.959 . S
H1953 C1967 0.929 . S
H1954 C1968 0.931 . S
H1955 C1970 0.930 . S
C1956 H1944 0.930 . S
C1956 C1957 1.399 . S
C1956 C1961 1.399 . S
C1957 C1956 1.399 . S
C1957 C1958 1.376 . S
C1958 H1945 0.930 . S
C1958 C1957 1.376 . S
C1958 C1959 1.388 . S
C1959 H1946 0.930 . S
C1959 C1958 1.388 . S
C1959 C1960 1.390 . S
C1960 C1959 1.390 . S
C1960 C1961 1.394 . S
C1960 C1966 1.465 . S
C1961 C1956 1.399 . S
C1961 C1960 1.394 . S
C1961 C1962 1.516 . S
C1962 C1961 1.516 . S
C1962 C1963 1.502 . S
C1962 C1964 1.561 . S
C1962 C1965 1.526 . S
C1963 H1947 0.959 . S
C1963 H1948 0.959 . S
C1963 H1949 0.961 . S
C1963 C1962 1.502 . S
C1964 H1950 0.960 . S
C1964 H1951 0.961 . S
C1964 H1952 0.959 . S
C1964 C1962 1.561 . S
C1965 C1962 1.526 . S
C1965 C1966 1.396 . S
C1965 C1970 1.390 . S
C1966 C1960 1.465 . S
C1966 C1965 1.396 . S
C1966 C1967 1.399 . S
C1967 H1953 0.929 . S
C1967 C1966 1.399 . S
C1967 C1968 1.385 . S
C1968 H1954 0.931 . S
C1968 C1967 1.385 . S
C1968 C1969 1.389 . S
C1969 C1968 1.389 . S
C1969 C1970 1.387 . S
C1970 H1955 0.930 . S
C1970 C1965 1.390 . S
C1970 C1969 1.387 . S
H1971 C1983 0.930 . S
H1972 C1985 0.930 . S
H1973 C1986 0.930 . S
H1974 C1990 0.959 . S
H1975 C1990 0.959 . S
H1976 C1990 0.961 . S
H1977 C1991 0.960 . S
H1978 C1991 0.961 . S
H1979 C1991 0.959 . S
H1980 C1994 0.929 . S
H1981 C1995 0.931 . S
H1982 C1997 0.930 . S
C1983 H1971 0.930 . S
C1983 C1984 1.399 . S
C1983 C1988 1.399 . S
C1984 C1983 1.399 . S
C1984 C1985 1.376 . S
C1985 H1972 0.930 . S
C1985 C1984 1.376 . S
C1985 C1986 1.388 . S
C1986 H1973 0.930 . S
C1986 C1985 1.388 . S
C1986 C1987 1.390 . S
C1987 C1986 1.390 . S
C1987 C1988 1.394 . S
C1987 C1993 1.465 . S
C1988 C1983 1.399 . S
C1988 C1987 1.394 . S
C1988 C1989 1.516 . S
C1989 C1988 1.516 . S
C1989 C1990 1.502 . S
C1989 C1991 1.561 . S
C1989 C1992 1.526 . S
C1990 H1974 0.959 . S
C1990 H1975 0.959 . S
C1990 H1976 0.961 . S
C1990 C1989 1.502 . S
C1991 H1977 0.960 . S
C1991 H1978 0.961 . S
C1991 H1979 0.959 . S
C1991 C1989 1.561 . S
C1992 C1989 1.526 . S
C1992 C1993 1.396 . S
C1992 C1997 1.390 . S
C1993 C1987 1.465 . S
C1993 C1992 1.396 . S
C1993 C1994 1.399 . S
C1994 H1980 0.929 . S
C1994 C1993 1.399 . S
C1994 C1995 1.385 . S
C1995 H1981 0.931 . S
C1995 C1994 1.385 . S
C1995 C1996 1.389 . S
C1996 C1995 1.389 . S
C1996 C1997 1.387 . S
C1997 H1982 0.930 . S
C1997 C1992 1.390 . S
C1997 C1996 1.387 . S
H1998 C2010 0.930 . S
H1999 C2012 0.930 . S
H2000 C2013 0.930 . S
H2001 C2017 0.959 . S
H2002 C2017 0.959 . S
H2003 C2017 0.961 . S
H2004 C2018 0.960 . S
H2005 C2018 0.961 . S
H2006 C2018 0.959 . S
H2007 C2021 0.929 . S
H2008 C2022 0.931 . S
H2009 C2024 0.930 . S
C2010 H1998 0.930 . S
C2010 C2011 1.399 . S
C2010 C2015 1.399 . S
C2011 C2010 1.399 . S
C2011 C2012 1.376 . S
C2012 H1999 0.930 . S
C2012 C2011 1.376 . S
C2012 C2013 1.388 . S
C2013 H2000 0.930 . S
C2013 C2012 1.388 . S
C2013 C2014 1.390 . S
C2014 C2013 1.390 . S
C2014 C2015 1.394 . S
C2014 C2020 1.465 . S
C2015 C2010 1.399 . S
C2015 C2014 1.394 . S
C2015 C2016 1.516 . S
C2016 C2015 1.516 . S
C2016 C2017 1.502 . S
C2016 C2018 1.561 . S
C2016 C2019 1.526 . S
C2017 H2001 0.959 . S
C2017 H2002 0.959 . S
C2017 H2003 0.961 . S
C2017 C2016 1.502 . S
C2018 H2004 0.960 . S
C2018 H2005 0.961 . S
C2018 H2006 0.959 . S
C2018 C2016 1.561 . S
C2019 C2016 1.526 . S
C2019 C2020 1.396 . S
C2019 C2024 1.390 . S
C2020 C2014 1.465 . S
C2020 C2019 1.396 . S
C2020 C2021 1.399 . S
C2021 H2007 0.929 . S
C2021 C2020 1.399 . S
C2021 C2022 1.385 . S
C2022 H2008 0.931 . S
C2022 C2021 1.385 . S
C2022 C2023 1.389 . S
C2023 C2022 1.389 . S
C2023 C2024 1.387 . S
C2024 H2009 0.930 . S
C2024 C2019 1.390 . S
C2024 C2023 1.387 . S
H2025 C2037 0.930 . S
H2026 C2039 0.930 . S
H2027 C2040 0.930 . S
H2028 C2044 0.959 . S
H2029 C2044 0.959 . S
H2030 C2044 0.961 . S
H2031 C2045 0.960 . S
H2032 C2045 0.961 . S
H2033 C2045 0.959 . S
H2034 C2048 0.929 . S
H2035 C2049 0.931 . S
H2036 C2051 0.930 . S
C2037 H2025 0.930 . S
C2037 C2038 1.399 . S
C2037 C2042 1.399 . S
C2038 C2037 1.399 . S
C2038 C2039 1.376 . S
C2039 H2026 0.930 . S
C2039 C2038 1.376 . S
C2039 C2040 1.388 . S
C2040 H2027 0.930 . S
C2040 C2039 1.388 . S
C2040 C2041 1.390 . S
C2041 C2040 1.390 . S
C2041 C2042 1.394 . S
C2041 C2047 1.465 . S
C2042 C2037 1.399 . S
C2042 C2041 1.394 . S
C2042 C2043 1.516 . S
C2043 C2042 1.516 . S
C2043 C2044 1.502 . S
C2043 C2045 1.561 . S
C2043 C2046 1.526 . S
C2044 H2028 0.959 . S
C2044 H2029 0.959 . S
C2044 H2030 0.961 . S
C2044 C2043 1.502 . S
C2045 H2031 0.960 . S
C2045 H2032 0.961 . S
C2045 H2033 0.959 . S
C2045 C2043 1.561 . S
C2046 C2043 1.526 . S
C2046 C2047 1.396 . S
C2046 C2051 1.390 . S
C2047 C2041 1.465 . S
C2047 C2046 1.396 . S
C2047 C2048 1.399 . S
C2048 H2034 0.929 . S
C2048 C2047 1.399 . S
C2048 C2049 1.385 . S
C2049 H2035 0.931 . S
C2049 C2048 1.385 . S
C2049 C2050 1.389 . S
C2050 C2049 1.389 . S
C2050 C2051 1.387 . S
C2051 H2036 0.930 . S
C2051 C2046 1.390 . S
C2051 C2050 1.387 . S
C607 N170 2.103 . S
C619 C237 2.121 . S
C634 N184 1.167 . S
C646 C277 1.140 . S
C661 N158 1.678 . S
C673 C329 1.637 . S
C688 N145 1.545 . S
C700 C289 1.561 1_556 S
C727 C317 0.833 1_556 S
C715 N119 0.842 . S
C742 N131 1.844 . S
C754 C249 1.857 1_556 S
C781 C256 1.771 . S
C769 N144 1.781 . S
C808 C296 1.652 . S
C796 N118 1.662 . S
C823 N132 1.529 . S
C835 C316 1.578 . S
C850 N171 1.492 . S
C862 C276 1.463 . S
C877 N183 1.331 . S
C889 C336 1.336 . S
C916 C236 1.433 . S
C904 N157 1.467 . S
C943 C357 2.128 . S
C931 N14 2.057 . S
C958 N28 1.147 . S
C970 C397 1.166 . S
C985 N2 1.675 . S
C997 C449 1.638 . S
C1012 N223 1.553 . S
C1024 C409 1.508 . S
C1039 N197 0.832 . S
C1051 C437 0.830 . S
C1066 N209 1.854 . S
C1078 C369 1.869 . S
C1093 N222 1.767 . S
C1105 C376 1.787 . S
C1120 N196 1.680 . S
C1132 C416 1.678 . S
C1159 C436 1.578 . S
C1147 N210 1.529 . S
C1174 N15 1.442 . S
C1186 C396 1.478 . S
C1213 C456 1.340 . S
C1201 N27 1.340 . S
C1228 N1 1.485 . S
C1240 C356 1.448 . S
C1267 C477 2.120 . S
C1255 N92 2.102 . S
C1282 N106 1.148 . S
C1294 C517 1.164 . S
C1321 C569 1.688 . S
C1309 N80 1.666 . S
C1348 C529 1.509 . S
C1336 N67 1.551 . S
C1375 C557 0.842 . S
C1363 N41 0.841 . S
C1390 N53 1.810 . S
C1402 C489 1.845 . S
C1417 N66 1.783 . S
C1429 C496 1.776 . S
C1444 N40 1.674 . S
C1456 C536 1.673 . S
C1483 C556 1.560 . S
C1471 N54 1.542 . S
C1498 N93 1.447 . S
C1510 C516 1.465 . S
C1525 N105 1.323 . S
C1537 C576 1.332 . S
C1552 N79 1.467 . S
C1564 C476 1.483 . S
C1579 N200 0.990 . S
C1591 C260 1.028 . S
C1618 C300 2.012 . S
C1606 N213 2.004 . S
C1633 N226 1.587 . S
C1645 C323 1.573 . S
C1660 N83 1.786 . S
C1672 C283 1.769 . S
C1687 N96 1.778 . S
C1699 C340 1.840 . S
C1726 C243 1.156 . S
C1714 N109 1.176 . S
C1741 N44 0.986 . S
C1753 C380 1.034 . S
C1768 N57 1.975 . S
C1780 C420 1.992 . S
C1795 N70 1.563 . S
C1807 C443 1.579 . S
C1822 N161 1.789 . S
C1834 C403 1.760 . S
C1861 C460 1.845 . S
C1849 N174 1.822 . S
C1876 N187 1.168 . S
C1888 C363 1.142 . S
C1903 N122 1.047 . S
C1915 C500 1.030 . S
C1930 N135 2.007 . S
C1942 C540 2.007 . S
C1969 C563 1.599 . S
C1957 N148 1.593 . S
C1984 N5 1.821 . S
C1996 C523 1.774 . S
C2011 N18 1.778 . S
C2023 C580 1.836 . S
C2038 N31 1.157 . S
C2050 C483 1.128 . S
