# Generated by pormake.
# Topology sit, (3,6)-cn, num edge types: 1
# Building blocks:
#     Node 0, Type 0, BuildingBlock: MIDCAF_clean_linker_0, # of connection points: 3
#     Node 1, Type 0, BuildingBlock: MIDCAF_clean_linker_0, # of connection points: 3
#     Node 2, Type 0, BuildingBlock: MIDCAF_clean_linker_0, # of connection points: 3
#     Node 3, Type 0, BuildingBlock: MIDCAF_clean_linker_0, # of connection points: 3
#     Node 4, Type 1, BuildingBlock: MIDCAF_clean_sbu_0, # of connection points: 6
#     Node 5, Type 1, BuildingBlock: MIDCAF_clean_sbu_0, # of connection points: 6
#     Edge 6, Type (0, 1), BuildingBlock: KIFKEQ_clean_linker_1, # of connection points: 2
#     Edge 7, Type (0, 1), BuildingBlock: KIFKEQ_clean_linker_1, # of connection points: 2
#     Edge 8, Type (0, 1), BuildingBlock: KIFKEQ_clean_linker_1, # of connection points: 2
#     Edge 9, Type (0, 1), BuildingBlock: KIFKEQ_clean_linker_1, # of connection points: 2
#     Edge 10, Type (0, 1), BuildingBlock: KIFKEQ_clean_linker_1, # of connection points: 2
#     Edge 11, Type (0, 1), BuildingBlock: KIFKEQ_clean_linker_1, # of connection points: 2
#     Edge 12, Type (0, 1), BuildingBlock: KIFKEQ_clean_linker_1, # of connection points: 2
#     Edge 13, Type (0, 1), BuildingBlock: KIFKEQ_clean_linker_1, # of connection points: 2
#     Edge 14, Type (0, 1), BuildingBlock: KIFKEQ_clean_linker_1, # of connection points: 2
#     Edge 15, Type (0, 1), BuildingBlock: KIFKEQ_clean_linker_1, # of connection points: 2
#     Edge 16, Type (0, 1), BuildingBlock: KIFKEQ_clean_linker_1, # of connection points: 2
#     Edge 17, Type (0, 1), BuildingBlock: KIFKEQ_clean_linker_1, # of connection points: 2
# Relax obj value: 0.111
# Max RMSD: 0.194
# Mean RMSD: 0.108
data_MOF--net-sit--node1-MIDCAF_clean_sbu_0--node2-MIDCAF_clean_linker_0--edge1-KIFKEQ_clean_linker_1
_symmetry_space_group_name_H-M    P1
_symmetry_Int_Tables_number       1
_symmetry_cell_setting            triclinic
loop_
_symmetry_equiv_pos_as_xyz
'x, y, z'
_cell_length_a     29.034469
_cell_length_b     38.66827
_cell_length_c     43.712385
_cell_angle_alpha  90.242351
_cell_angle_beta   89.321045
_cell_angle_gamma 84.307722
loop_
_atom_site_label
_atom_site_type_symbol
_atom_site_fract_x
_atom_site_fract_y
_atom_site_fract_z
_atom_type_partial_charge
C0 C 0.92285 0.43081 0.01425 0.0
C1 C 0.8814 0.41552 0.01861 0.0
C2 C 0.88243 0.38404 0.03472 0.0
C3 C 0.9245 0.36679 0.04397 0.0
H4 H 0.98332 0.26696 0.06244 0.0
H5 H 0.985 0.20981 0.08567 0.0
H6 H 0.13083 0.21169 0.10381 0.0
H7 H 0.12948 0.26813 0.07931 0.0
H8 H 0.1818 0.32161 0.03259 0.0
H9 H 0.24842 0.34124 0.00537 0.0
H10 H 0.16342 0.43193 0.97433 0.0
H11 H 0.09704 0.41265 0.00121 0.0
H12 H -0.00369 0.42548 0.01841 0.0
H13 H 0.92338 0.4549 0.00177 0.0
H14 H 0.8509 0.37191 0.03889 0.0
H15 H 0.92425 0.34175 0.05495 0.0
N16 N 0.01346 0.32761 0.05417 0.0
N17 N 0.0939 0.32021 0.04561 0.0
N18 N 0.05086 0.37196 0.03137 0.0
C19 C 0.0546 0.30766 0.05625 0.0
C20 C 0.09218 0.35242 0.03304 0.0
C21 C 0.01141 0.35996 0.04197 0.0
C22 C 0.05619 0.27228 0.0693 0.0
C23 C 0.01582 0.25507 0.07122 0.0
C24 C 0.01677 0.22227 0.08462 0.0
C25 C 0.05796 0.20605 0.09688 0.0
C26 C 0.0986 0.22296 0.09421 0.0
C27 C 0.09778 0.25556 0.08039 0.0
C28 C 0.13387 0.36534 0.01895 0.0
C29 C 0.17737 0.34588 0.02018 0.0
C30 C 0.21557 0.35715 0.0047 0.0
C31 C 0.21088 0.38793 0.98753 0.0
C32 C 0.16782 0.40784 0.98701 0.0
C33 C 0.12983 0.39678 0.00261 0.0
C34 C 0.96637 0.38073 0.03732 0.0
C35 C 0.96485 0.41364 0.02354 0.0
C36 C 0.89389 0.62194 -0.0001 0.0
C37 C 0.85225 0.64377 0.00111 0.0
C38 C 0.85086 0.67525 0.01753 0.0
C39 C 0.89071 0.68525 0.03139 0.0
H40 H 0.94923 0.75977 0.09147 0.0
H41 H 0.95386 0.8161 0.11568 0.0
H42 H 0.09475 0.81645 0.08249 0.0
H43 H 0.0907 0.7594 0.0597 0.0
H44 H 0.14655 0.68108 0.05564 0.0
H45 H 0.21782 0.65049 0.03539 0.0
H46 H 0.13964 0.57291 -0.00489 0.0
H47 H 0.0685 0.60285 0.01584 0.0
H48 H 0.96515 0.61456 0.01163 0.0
H49 H 0.89651 0.59774 0.98715 0.0
H50 H 0.81911 0.69241 0.01934 0.0
H51 H 0.88872 0.71005 0.04319 0.0
N52 N 0.97736 0.70791 0.05329 0.0
N53 N 0.05834 0.69871 0.05659 0.0
N54 N 0.01675 0.65533 0.03639 0.0
C55 C 0.01831 0.71952 0.06129 0.0
C56 C 0.0578 0.66643 0.04436 0.0
C57 C 0.9764 0.67573 0.04074 0.0
C58 C 0.01979 0.75489 0.07408 0.0
C59 C 0.98107 0.77201 0.08922 0.0
C60 C 0.98366 0.80453 0.10287 0.0
C61 C 0.02482 0.82095 0.10125 0.0
C62 C 0.06283 0.80437 0.08486 0.0
C63 C 0.06048 0.77163 0.0717 0.0
C64 C 0.10159 0.64493 0.03677 0.0
C65 C 0.14454 0.65714 0.043 0.0
C66 C 0.18542 0.63963 0.03138 0.0
C67 C 0.18423 0.60963 0.01323 0.0
C68 C 0.14176 0.59587 0.00911 0.0
C69 C 0.10086 0.61331 0.02079 0.0
C70 C 0.93275 0.66392 0.02917 0.0
C71 C 0.93352 0.6318 0.01383 0.0
C72 C 0.4664 0.91574 0.49648 0.0
C73 C 0.42688 0.89772 0.49464 0.0
C74 C 0.4268 0.86539 0.50923 0.0
C75 C 0.46635 0.85051 0.52391 0.0
H76 H 0.5185 0.76687 0.5735 0.0
H77 H 0.5179 0.71113 0.59816 0.0
H78 H 0.66749 0.69868 0.59705 0.0
H79 H 0.66821 0.75549 0.57289 0.0
H80 H 0.72241 0.82153 0.54916 0.0
H81 H 0.7924 0.84566 0.53115 0.0
H82 H 0.7085 0.93287 0.49241 0.0
H83 H 0.63946 0.90984 0.51124 0.0
H84 H 0.53634 0.91501 0.51107 0.0
H85 H 0.46762 0.94059 0.48531 0.0
H86 H 0.3965 0.85116 0.50861 0.0
H87 H 0.46561 0.82503 0.53399 0.0
N88 N 0.55211 0.81821 0.54887 0.0
N89 N 0.63308 0.81573 0.55227 0.0
N90 N 0.59081 0.86442 0.53107 0.0
C91 C 0.59301 0.80091 0.55734 0.0
C92 C 0.63206 0.84768 0.53919 0.0
C93 C 0.55073 0.85003 0.5358 0.0
C94 C 0.59343 0.76596 0.57133 0.0
C95 C 0.55142 0.75232 0.57825 0.0
C96 C 0.55105 0.71998 0.59216 0.0
C97 C 0.59266 0.70013 0.59942 0.0
C98 C 0.6348 0.71337 0.59197 0.0
C99 C 0.63519 0.74595 0.5781 0.0
C100 C 0.67517 0.86345 0.53139 0.0
C101 C 0.71902 0.84612 0.53722 0.0
C102 C 0.75913 0.85987 0.52673 0.0
C103 C 0.75615 0.89111 0.51009 0.0
C104 C 0.71237 0.90905 0.50548 0.0
C105 C 0.67251 0.89553 0.51609 0.0
C106 C 0.50683 0.86764 0.5242 0.0
C107 C 0.50594 0.90088 0.51108 0.0
C108 C 0.43687 0.11847 0.49723 0.0
C109 C 0.39239 0.13618 0.498 0.0
C110 C 0.38472 0.16771 0.51425 0.0
C111 C 0.42155 0.18207 0.52833 0.0
H112 H 0.46202 0.27428 0.56789 0.0
H113 H 0.45669 0.33283 0.5898 0.0
H114 H 0.60507 0.32312 0.60108 0.0
H115 H 0.61061 0.26561 0.57876 0.0
H116 H 0.67249 0.20407 0.54907 0.0
H117 H 0.74635 0.17814 0.52839 0.0
H118 H 0.68194 0.08702 0.50109 0.0
H119 H 0.6086 0.11232 0.52227 0.0
H120 H 0.50743 0.11828 0.50978 0.0
H121 H 0.44352 0.09389 0.48519 0.0
H122 H 0.35062 0.18189 0.51507 0.0
H123 H 0.41494 0.20694 0.53986 0.0
N124 N 0.50249 0.21384 0.55052 0.0
N125 N 0.58324 0.21125 0.55561 0.0
N126 N 0.5497 0.16387 0.53537 0.0
C127 C 0.54069 0.22904 0.55923 0.0
C128 C 0.58799 0.17859 0.54381 0.0
C129 C 0.50691 0.18107 0.53861 0.0
C130 C 0.53671 0.26501 0.57169 0.0
C131 C 0.49353 0.28479 0.57483 0.0
C132 C 0.49044 0.31836 0.58739 0.0
C133 C 0.53046 0.33285 0.59704 0.0
C134 C 0.57358 0.31325 0.5933 0.0
C135 C 0.57668 0.27989 0.58077 0.0
C136 C 0.63433 0.16063 0.53673 0.0
C137 C 0.67426 0.17818 0.53929 0.0
C138 C 0.71656 0.1634 0.52733 0.0
C139 C 0.71975 0.13081 0.51266 0.0
C140 C 0.68072 0.11211 0.51235 0.0
C141 C 0.63848 0.12683 0.52428 0.0
C142 C 0.46654 0.1649 0.52659 0.0
C143 C 0.47345 0.13253 0.51147 0.0
Zn144 Zn 0.05283 0.08168 0.3345 0.0
Zn145 Zn 0.08356 0.94884 0.33462 0.0
Zn146 Zn 0.06786 0.01514 0.33635 0.0
C147 C 0.05675 0.96689 0.2767 0.0
C148 C 0.01163 0.96452 0.37649 0.0
O149 O 0.12703 0.03592 0.359 0.0
O150 O 0.10099 0.09138 0.36403 0.0
C151 C 0.06785 0.06183 0.27489 0.0
O152 O 0.06171 0.997 0.28826 0.0
O153 O 0.06147 0.94009 0.29311 0.0
O154 O 0.04169 0.93996 0.36916 0.0
O155 O 0.0132 0.99487 0.3647 0.0
O156 O 0.06641 0.0891 0.2909 0.0
O157 O 0.06518 0.03208 0.28764 0.0
O158 O 0.00471 0.03167 0.36331 0.0
O159 O -0.01194 0.08651 0.34979 0.0
C160 C 0.97792 0.06027 0.36455 0.0
O161 O 0.13509 0.999 0.35771 0.0
O162 O 0.15066 0.94418 0.34317 0.0
C163 C 0.13144 0.06663 0.36941 0.0
C164 C 0.16248 0.97066 0.35683 0.0
Zn165 Zn 0.51082 0.58438 0.83501 0.0
Zn166 Zn 0.56923 0.44893 0.83426 0.0
Zn167 Zn 0.5407 0.5167 0.83697 0.0
C168 C 0.56248 0.47071 0.77452 0.0
C169 C 0.48158 0.45691 0.86325 0.0
O170 O 0.59173 0.54359 0.86201 0.0
O171 O 0.563 0.5988 0.8599 0.0
C172 C 0.52839 0.56445 0.77524 0.0
O173 O 0.5484 0.49928 0.78852 0.0
O174 O 0.57569 0.44377 0.78946 0.0
O175 O 0.51345 0.4338 0.85548 0.0
O176 O 0.48574 0.48924 0.85804 0.0
O177 O 0.51179 0.5908 0.79027 0.0
O178 O 0.54075 0.53564 0.78899 0.0
O179 O 0.47315 0.52542 0.8614 0.0
O180 O 0.45096 0.58148 0.85574 0.0
C181 C 0.44375 0.55215 0.86626 0.0
O182 O 0.60433 0.50728 0.86464 0.0
O183 O 0.62547 0.45105 0.85836 0.0
C184 C 0.5941 0.57587 0.86859 0.0
C185 C 0.63213 0.47997 0.8701 0.0
H186 H -0.01037 0.18629 0.13485 0.0
H187 H 0.1262 0.15129 0.09957 0.0
H188 H -0.00595 0.13776 0.16994 0.0
H189 H 0.13101 0.10313 0.13577 0.0
H190 H 0.13898 0.08572 0.24457 0.0
H191 H 0.13699 0.10951 0.19308 0.0
H192 H 0.00305 0.07257 0.17948 0.0
H193 H 0.00575 0.04811 0.23132 0.0
C194 C 0.02008 0.16773 0.13383 0.0
C195 C 0.05786 0.17317 0.11458 0.0
C196 C 0.02253 0.13975 0.15402 0.0
C197 C 0.06296 0.11671 0.1557 0.0
C198 C 0.09954 0.12066 0.13508 0.0
C199 C 0.09691 0.14847 0.1146 0.0
C200 C 0.11014 0.08135 0.23001 0.0
C201 C 0.07251 0.06528 0.24165 0.0
C202 C 0.10897 0.09488 0.2005 0.0
C203 C 0.06961 0.09323 0.18237 0.0
C204 C 0.03368 0.07435 0.19308 0.0
C205 C 0.03529 0.0602 0.22256 0.0
H206 H 0.95877 0.87628 0.11137 0.0
H207 H 0.1009 0.83984 0.13123 0.0
H208 H 0.96283 0.92443 0.1473 0.0
H209 H 0.10513 0.8884 0.16593 0.0
H210 H 0.10878 0.97903 0.22629 0.0
H211 H 0.09949 0.95385 0.17526 0.0
H212 H 0.96976 0.91834 0.20479 0.0
H213 H 0.97966 0.94283 0.25543 0.0
C214 C -0.00893 0.87875 0.12292 0.0
C215 C 0.02925 0.85369 0.11868 0.0
C216 C -0.00653 0.90657 0.14323 0.0
C217 C 0.03427 0.91017 0.1594 0.0
C218 C 0.07343 0.88669 0.15343 0.0
C219 C 0.0709 0.8587 0.13347 0.0
C220 C 0.07751 0.96704 0.22128 0.0
C221 C 0.04494 0.96259 0.2445 0.0
C222 C 0.07229 0.95251 0.19226 0.0
C223 C 0.0341 0.93387 0.18617 0.0
C224 C -0.00069 0.93277 0.20864 0.0
C225 C 0.00497 0.94669 0.23766 0.0
H226 H 0.5329 0.6499 0.59272 0.0
H227 H 0.64892 0.67609 0.64623 0.0
H228 H 0.51922 0.60417 0.6291 0.0
H229 H 0.63604 0.62968 0.6818 0.0
H230 H 0.60619 0.54221 0.7424 0.0
H231 H 0.62762 0.56402 0.69201 0.0
H232 H 0.49093 0.61826 0.68427 0.0
H233 H 0.47024 0.59731 0.73457 0.0
C234 C 0.55611 0.64546 0.61183 0.0
C235 C 0.5913 0.6673 0.61696 0.0
C236 C 0.54848 0.61905 0.63245 0.0
C237 C 0.57634 0.61359 0.65834 0.0
C238 C 0.6143 0.63309 0.66186 0.0
C239 C 0.62163 0.65978 0.64143 0.0
C240 C 0.58037 0.55776 0.72932 0.0
C241 C 0.53676 0.56844 0.74226 0.0
C242 C 0.59266 0.57034 0.70066 0.0
C243 C 0.56103 0.59299 0.68439 0.0
C244 C 0.51591 0.60064 0.69615 0.0
C245 C 0.50407 0.58878 0.72498 0.0
H246 H 0.58932 0.384 0.5924 0.0
H247 H 0.4656 0.35835 0.63954 0.0
H248 H 0.59583 0.43145 0.62864 0.0
H249 H 0.47149 0.40631 0.67499 0.0
H250 H 0.49029 0.49323 0.73804 0.0
H251 H 0.47742 0.47173 0.68618 0.0
H252 H 0.61569 0.41893 0.68472 0.0
H253 H 0.62781 0.43957 0.7364 0.0
C254 C 0.56289 0.38897 0.61 0.0
C255 C 0.52763 0.36676 0.61356 0.0
C256 C 0.56644 0.41634 0.63053 0.0
C257 C 0.53444 0.42232 0.65476 0.0
C258 C 0.49644 0.40251 0.65635 0.0
C259 C 0.49313 0.37491 0.63601 0.0
C260 C 0.51839 0.47815 0.72603 0.0
C261 C 0.55985 0.46766 0.74108 0.0
C262 C 0.51098 0.46575 0.69652 0.0
C263 C 0.54542 0.44346 0.68157 0.0
C264 C 0.58864 0.43627 0.69553 0.0
C265 C 0.59558 0.44794 0.72516 0.0
H266 H 0.21003 0.40959 0.92832 0.0
H267 H 0.30028 0.39059 0.00549 0.0
H268 H 0.27471 0.42626 0.8976 0.0
H269 H 0.36496 0.40817 0.9751 0.0
H270 H 0.48001 0.40444 0.90397 0.0
H271 H 0.41417 0.38791 0.93356 0.0
H272 H 0.32597 0.47005 0.8907 0.0
H273 H 0.39166 0.48488 0.85961 0.0
C274 C 0.24368 0.40941 0.9388 0.0
C275 C 0.25022 0.39875 0.96926 0.0
C276 C 0.28073 0.41908 0.92123 0.0
C277 C 0.32512 0.41852 0.93381 0.0
C278 C 0.33145 0.40827 0.96447 0.0
C279 C 0.29444 0.39829 0.98195 0.0
C280 C 0.44641 0.41873 0.90072 0.0
C281 C 0.44098 0.44648 0.88008 0.0
C282 C 0.40879 0.40957 0.91795 0.0
C283 C 0.36485 0.42798 0.91492 0.0
C284 C 0.35924 0.4552 0.89357 0.0
C285 C 0.39692 0.4641 0.8761 0.0
H286 H 0.82156 0.57935 -0.00602 0.0
H287 H 0.79107 0.68701 0.96831 0.0
H288 H 0.75923 0.56359 0.96128 0.0
H289 H 0.72812 0.67109 0.93637 0.0
H290 H 0.58955 0.62947 0.90912 0.0
H291 H 0.65084 0.64648 0.94211 0.0
H292 H 0.74506 0.56364 0.90381 0.0
H293 H 0.684 0.54743 0.87 0.0
C294 C 0.80162 0.59965 0.98144 0.0
C295 C 0.81153 0.63447 0.98369 0.0
C296 C 0.76602 0.59055 0.96275 0.0
C297 C 0.73927 0.61604 0.94618 0.0
C298 C 0.7481 0.65094 0.94908 0.0
C299 C 0.78398 0.66006 0.96754 0.0
C300 C 0.62347 0.61507 0.90761 0.0
C301 C 0.63186 0.58656 0.88759 0.0
C302 C 0.65847 0.6248 0.92648 0.0
C303 C 0.70247 0.60615 0.92571 0.0
C304 C 0.71114 0.57806 0.90523 0.0
C305 C 0.67624 0.56863 0.88607 0.0
H306 H 0.84588 0.48387 0.01191 0.0
H307 H 0.82238 0.3787 0.98723 0.0
H308 H 0.78506 0.50604 0.9765 0.0
H309 H 0.76178 0.40089 0.95268 0.0
H310 H 0.71736 0.44664 0.86308 0.0
H311 H 0.77572 0.43561 0.90233 0.0
H312 H 0.69213 0.50217 0.9653 0.0
H313 H 0.63289 0.51308 0.92567 0.0
C314 C 0.82721 0.46556 -0.00058 0.0
C315 C 0.83913 0.42951 0.00226 0.0
C316 C 0.7924 0.47828 0.97931 0.0
C317 C 0.7695 0.45514 0.96159 0.0
C318 C 0.77947 0.41924 0.96584 0.0
C319 C 0.81382 0.40656 0.98594 0.0
C320 C 0.7119 0.45954 0.88507 0.0
C321 C 0.67076 0.48058 0.89147 0.0
C322 C 0.74511 0.45313 0.90752 0.0
C323 C 0.7378 0.4675 0.9369 0.0
C324 C 0.6983 0.49071 0.94278 0.0
C325 C 0.66466 0.49703 0.92018 0.0
H326 H 0.24301 0.64716 0.98201 0.0
H327 H 0.2175 0.54131 0.00216 0.0
H328 H 0.30433 0.62613 0.94644 0.0
H329 H 0.27943 0.52018 0.96578 0.0
H330 H 0.43769 0.5174 0.9203 0.0
H331 H 0.37369 0.5257 0.95786 0.0
H332 H 0.29514 0.59257 0.89436 0.0
H333 H 0.35841 0.58416 0.85708 0.0
C334 C 0.25116 0.61935 0.97938 0.0
C335 C 0.22546 0.5959 -0.00502 0.0
C336 C 0.28589 0.60735 0.9587 0.0
C337 C 0.29592 0.57163 0.95314 0.0
C338 C 0.27201 0.54787 0.96968 0.0
C339 C 0.23667 0.55996 0.99034 0.0
C340 C 0.40607 0.53293 0.91416 0.0
C341 C 0.40275 0.55026 0.88596 0.0
C342 C 0.36965 0.53768 0.93557 0.0
C343 C 0.33006 0.56018 0.92901 0.0
C344 C 0.32565 0.57543 0.89999 0.0
C345 C 0.36171 0.57059 0.8787 0.0
H346 H 0.77679 0.95857 0.50301 0.0
H347 H 0.82927 0.85218 0.4829 0.0
H348 H 0.8397 0.97891 0.47251 0.0
H349 H 0.89265 0.87268 0.45346 0.0
H350 H 0.02212 0.92143 0.4249 0.0
H351 H 0.9627 0.90569 0.46069 0.0
H352 H 0.86088 0.97557 0.41488 0.0
H353 H 0.92047 0.99066 0.37839 0.0
C354 C 0.80182 0.93951 0.49231 0.0
C355 C 0.79772 0.90368 0.4953 0.0
C356 C 0.83779 0.95123 0.47491 0.0
C357 C 0.87077 0.92738 0.46056 0.0
C358 C 0.86788 0.89163 0.46455 0.0
C359 C 0.83167 0.8799 0.48161 0.0
C360 C -0.01293 0.93357 0.42259 0.0
C361 C 0.97585 0.95758 0.39917 0.0
C362 C 0.95316 0.92456 0.44305 0.0
C363 C 0.9073 0.93941 0.44053 0.0
C364 C 0.89616 0.96406 0.41753 0.0
C365 C 0.93015 0.97279 0.39676 0.0
H366 H 0.30474 0.12713 0.51755 0.0
H367 H 0.39585 0.11468 0.43871 0.0
H368 H 0.24261 0.10593 0.48774 0.0
H369 H 0.33361 0.09487 0.40848 0.0
H370 H 0.22165 0.03832 0.36553 0.0
H371 H 0.28526 0.05044 0.39892 0.0
H372 H 0.19257 0.12605 0.44843 0.0
H373 H 0.12903 0.11187 0.41668 0.0
C374 C 0.31128 0.11998 0.49379 0.0
C375 C 0.35489 0.12258 0.48038 0.0
C376 C 0.27577 0.10794 0.47665 0.0
C377 C 0.28295 0.09885 0.44558 0.0
C378 C 0.32696 0.10102 0.43241 0.0
C379 C 0.36258 0.11258 0.44967 0.0
C380 C 0.21492 0.05679 0.38412 0.0
C381 C 0.17039 0.07351 0.38905 0.0
C382 C 0.25139 0.0642 0.40294 0.0
C383 C 0.24406 0.08913 0.42656 0.0
C384 C 0.1994 0.1061 0.43106 0.0
C385 C 0.16304 0.09831 0.41258 0.0
H386 H 0.38602 0.96468 0.49064 0.0
H387 H 0.37991 0.86114 0.45432 0.0
H388 H 0.32488 0.98684 0.45562 0.0
H389 H 0.31836 0.88299 0.4202 0.0
H390 H 0.24451 0.93492 0.34127 0.0
H391 H 0.31048 0.92036 0.37461 0.0
H392 H 0.24044 0.98155 0.44735 0.0
H393 H 0.1745 0.99607 0.41386 0.0
C394 C 0.37148 0.94668 0.47531 0.0
C395 C 0.38761 0.91115 0.47529 0.0
C396 C 0.33643 0.95932 0.45541 0.0
C397 C 0.31728 0.93668 0.43499 0.0
C398 C 0.33305 0.90115 0.43531 0.0
C399 C 0.36779 0.88854 0.45521 0.0
C400 C 0.24376 0.94576 0.36419 0.0
C401 C 0.20491 0.96692 0.37496 0.0
C402 C 0.28125 0.93729 0.38331 0.0
C403 C 0.28032 0.94954 0.41366 0.0
C404 C 0.24223 0.97196 0.42401 0.0
C405 C 0.20462 0.98034 0.40486 0.0
H406 H 0.76303 0.0644 0.50786 0.0
H407 H 0.76945 0.1691 0.47496 0.0
H408 H 0.82471 0.04352 0.47162 0.0
H409 H 0.83143 0.14842 0.43966 0.0
H410 H 0.89543 0.09741 0.35497 0.0
H411 H 0.83362 0.11212 0.3925 0.0
H412 H 0.9097 0.04871 0.45972 0.0
H413 H 0.97182 0.0342 0.42203 0.0
C414 C 0.77798 0.08296 0.49321 0.0
C415 C 0.76136 0.11839 0.49425 0.0
C416 C 0.81331 0.07103 0.4726 0.0
C417 C 0.83223 0.09429 0.45255 0.0
C418 C 0.81684 0.12982 0.45447 0.0
C419 C 0.78182 0.14174 0.47506 0.0
C420 C 0.89849 0.0862 0.37762 0.0
C421 C 0.93791 0.06436 0.38559 0.0
C422 C 0.86338 0.09476 0.39913 0.0
C423 C 0.86723 0.08189 0.4291 0.0
C424 C 0.90581 0.05886 0.43674 0.0
C425 C 0.94114 0.05043 0.41519 0.0
loop_
_geom_bond_atom_site_label_1
_geom_bond_atom_site_label_2
_geom_bond_distance
_geom_bond_site_symmetry_2
_ccdc_geom_bond_type
C0 C1 1.384 . S
C0 H13 0.947 . S
C0 C35 1.382 1_655 S
C1 C0 1.384 . S
C1 C2 1.387 . S
C2 C1 1.387 . S
C2 C3 1.373 1_556 S
C2 H14 0.949 1_556 S
C3 C2 1.373 1_554 S
C3 H15 0.950 . S
C3 C34 1.383 1_655 S
H4 C23 0.947 . S
H5 C24 0.946 . S
H6 C26 0.953 . S
H7 C27 0.945 . S
H8 C29 0.952 . S
H9 C30 0.947 1_554 S
H10 C32 0.950 . S
H11 C33 0.948 . S
H12 C35 0.951 . S
H13 C0 0.947 . S
H14 C2 0.949 1_554 S
H15 C3 0.950 . S
N16 C19 1.382 . S
N16 C21 1.363 . S
N17 C19 1.371 . S
N17 C20 1.372 . S
N18 C20 1.361 . S
N18 C21 1.377 . S
C19 N16 1.382 . S
C19 N17 1.371 . S
C19 C22 1.480 . S
C20 N17 1.372 . S
C20 N18 1.361 . S
C20 C28 1.457 . S
C21 N16 1.363 . S
C21 N18 1.377 . S
C21 C34 1.479 . S
C22 C19 1.480 . S
C22 C23 1.383 . S
C22 C27 1.385 . S
C23 H4 0.947 . S
C23 C22 1.383 . S
C23 C24 1.388 . S
C24 H5 0.946 . S
C24 C23 1.388 . S
C24 C25 1.384 . S
C25 C24 1.384 . S
C25 C26 1.377 . S
C26 H6 0.953 . S
C26 C25 1.377 . S
C26 C27 1.369 . S
C27 H7 0.945 . S
C27 C22 1.385 . S
C27 C26 1.369 . S
C28 C20 1.457 . S
C28 C29 1.372 . S
C28 C33 1.364 1_554 S
C29 H8 0.952 . S
C29 C28 1.372 . S
C29 C30 1.386 1_554 S
C30 H9 0.947 1_556 S
C30 C29 1.386 1_556 S
C30 C31 1.391 . S
C31 C30 1.391 . S
C31 C32 1.372 . S
C32 H10 0.950 . S
C32 C31 1.372 . S
C32 C33 1.379 . S
C33 H11 0.948 . S
C33 C28 1.364 1_556 S
C33 C32 1.379 . S
C34 C3 1.383 1_455 S
C34 C21 1.479 . S
C34 C35 1.398 1_554 S
C35 C0 1.382 1_455 S
C35 H12 0.951 . S
C35 C34 1.398 1_556 S
C36 C37 1.384 . S
C36 H49 0.947 . S
C36 C71 1.382 . S
C37 C36 1.384 . S
C37 C38 1.364 1_556 S
C38 C37 1.364 1_554 S
C38 C39 1.385 . S
C38 H50 0.960 . S
C39 C38 1.385 . S
C39 H51 0.950 . S
C39 C70 1.394 . S
H40 C59 0.947 . S
H41 C60 0.946 . S
H42 C62 0.953 . S
H43 C63 0.945 . S
H44 C65 0.952 . S
H45 C66 0.949 1_554 S
H46 C68 0.950 . S
H47 C69 0.948 . S
H48 C71 0.951 . S
H49 C36 0.947 . S
H50 C38 0.960 . S
H51 C39 0.950 . S
N52 C55 1.382 1_655 S
N52 C57 1.363 . S
N53 C55 1.371 . S
N53 C56 1.372 . S
N54 C56 1.361 1_556 S
N54 C57 1.377 1_456 S
C55 N52 1.382 1_455 S
C55 N53 1.371 . S
C55 C58 1.480 . S
C56 N53 1.372 . S
C56 N54 1.361 1_554 S
C56 C64 1.457 1_554 S
C57 N52 1.363 . S
C57 N54 1.377 1_654 S
C57 C70 1.488 . S
C58 C55 1.480 . S
C58 C59 1.383 1_455 S
C58 C63 1.385 . S
C59 H40 0.947 . S
C59 C58 1.383 1_655 S
C59 C60 1.388 . S
C60 H41 0.946 . S
C60 C59 1.388 . S
C60 C61 1.384 1_655 S
C61 C60 1.384 1_455 S
C61 C62 1.377 . S
C62 H42 0.953 . S
C62 C61 1.377 . S
C62 C63 1.369 . S
C63 H43 0.945 . S
C63 C58 1.385 . S
C63 C62 1.369 . S
C64 C56 1.457 1_556 S
C64 C65 1.372 1_556 S
C64 C69 1.364 . S
C65 H44 0.952 . S
C65 C64 1.372 1_554 S
C65 C66 1.389 1_554 S
C66 H45 0.949 1_556 S
C66 C65 1.389 1_556 S
C66 C67 1.387 . S
C67 C66 1.387 . S
C67 C68 1.372 . S
C68 H46 0.950 . S
C68 C67 1.372 . S
C68 C69 1.379 . S
C69 H47 0.948 . S
C69 C64 1.364 . S
C69 C68 1.379 . S
C70 C39 1.394 . S
C70 C57 1.488 . S
C70 C71 1.374 1_554 S
C71 C36 1.382 . S
C71 H48 0.951 . S
C71 C70 1.374 1_556 S
C72 C73 1.384 . S
C72 H85 0.947 . S
C72 C107 1.382 . S
C73 C72 1.384 . S
C73 C74 1.378 . S
C74 C73 1.378 . S
C74 C75 1.378 . S
C74 H86 0.952 . S
C75 C74 1.378 . S
C75 H87 0.950 . S
C75 C106 1.383 . S
H76 C95 0.947 . S
H77 C96 0.946 . S
H78 C98 0.953 . S
H79 C99 0.945 . S
H80 C101 0.952 . S
H81 C102 0.949 . S
H82 C104 0.950 . S
H83 C105 0.948 . S
H84 C107 0.951 . S
H85 C72 0.947 . S
H86 C74 0.952 . S
H87 C75 0.950 . S
N88 C91 1.382 . S
N88 C93 1.363 . S
N89 C91 1.371 . S
N89 C92 1.372 . S
N90 C92 1.361 . S
N90 C93 1.377 . S
C91 N88 1.382 . S
C91 N89 1.371 . S
C91 C94 1.480 . S
C92 N89 1.372 . S
C92 N90 1.361 . S
C92 C100 1.457 . S
C93 N88 1.363 . S
C93 N90 1.377 . S
C93 C106 1.479 . S
C94 C91 1.480 . S
C94 C95 1.383 . S
C94 C99 1.385 . S
C95 H76 0.947 . S
C95 C94 1.383 . S
C95 C96 1.388 . S
C96 H77 0.946 . S
C96 C95 1.388 . S
C96 C97 1.384 . S
C97 C96 1.384 . S
C97 C98 1.377 . S
C98 H78 0.953 . S
C98 C97 1.377 . S
C98 C99 1.369 . S
C99 H79 0.945 . S
C99 C94 1.385 . S
C99 C98 1.369 . S
C100 C92 1.457 . S
C100 C101 1.372 . S
C100 C105 1.364 . S
C101 H80 0.952 . S
C101 C100 1.372 . S
C101 C102 1.389 . S
C102 H81 0.949 . S
C102 C101 1.389 . S
C102 C103 1.387 . S
C103 C102 1.387 . S
C103 C104 1.372 . S
C104 H82 0.950 . S
C104 C103 1.372 . S
C104 C105 1.379 . S
C105 H83 0.948 . S
C105 C100 1.364 . S
C105 C104 1.379 . S
C106 C75 1.383 . S
C106 C93 1.479 . S
C106 C107 1.398 . S
C107 C72 1.382 . S
C107 H84 0.951 . S
C107 C106 1.398 . S
C108 C109 1.384 . S
C108 H121 0.947 . S
C108 C143 1.382 . S
C109 C108 1.384 . S
C109 C110 1.378 . S
C110 C109 1.378 . S
C110 C111 1.378 . S
C110 H122 0.952 . S
C111 C110 1.378 . S
C111 H123 0.950 . S
C111 C142 1.383 . S
H112 C131 0.947 . S
H113 C132 0.946 . S
H114 C134 0.953 . S
H115 C135 0.945 . S
H116 C137 0.952 . S
H117 C138 0.949 . S
H118 C140 0.950 . S
H119 C141 0.948 . S
H120 C143 0.951 . S
H121 C108 0.947 . S
H122 C110 0.952 . S
H123 C111 0.950 . S
N124 C127 1.382 . S
N124 C129 1.363 . S
N125 C127 1.371 . S
N125 C128 1.372 . S
N126 C128 1.361 . S
N126 C129 1.377 . S
C127 N124 1.382 . S
C127 N125 1.371 . S
C127 C130 1.480 . S
C128 N125 1.372 . S
C128 N126 1.361 . S
C128 C136 1.457 . S
C129 N124 1.363 . S
C129 N126 1.377 . S
C129 C142 1.479 . S
C130 C127 1.480 . S
C130 C131 1.383 . S
C130 C135 1.385 . S
C131 H112 0.947 . S
C131 C130 1.383 . S
C131 C132 1.388 . S
C132 H113 0.946 . S
C132 C131 1.388 . S
C132 C133 1.384 . S
C133 C132 1.384 . S
C133 C134 1.377 . S
C134 H114 0.953 . S
C134 C133 1.377 . S
C134 C135 1.369 . S
C135 H115 0.945 . S
C135 C130 1.385 . S
C135 C134 1.369 . S
C136 C128 1.457 . S
C136 C137 1.372 . S
C136 C141 1.364 . S
C137 H116 0.952 . S
C137 C136 1.372 . S
C137 C138 1.389 . S
C138 H117 0.949 . S
C138 C137 1.389 . S
C138 C139 1.387 . S
C139 C138 1.387 . S
C139 C140 1.372 . S
C140 H118 0.950 . S
C140 C139 1.372 . S
C140 C141 1.379 . S
C141 H119 0.948 . S
C141 C136 1.364 . S
C141 C140 1.379 . S
C142 C111 1.383 . S
C142 C129 1.479 . S
C142 C143 1.398 . S
C143 C108 1.382 . S
C143 H120 0.951 . S
C143 C142 1.398 . S
Zn144 O150 1.920 . S
Zn144 O156 1.898 . S
Zn144 O159 1.905 1_455 S
Zn145 O153 1.905 . S
Zn145 O154 1.898 . S
Zn145 O162 1.920 . S
Zn146 O149 2.080 . S
Zn146 O152 2.114 1_545 S
Zn146 O155 2.120 1_545 S
Zn146 O157 2.120 . S
Zn146 O158 2.114 . S
Zn146 O161 2.080 1_545 S
C147 O152 1.166 . S
C147 O153 1.182 . S
C148 O154 1.167 . S
C148 O155 1.299 . S
O149 Zn146 2.080 . S
O149 C163 1.305 . S
O150 Zn144 1.920 . S
O150 C163 1.234 . S
C151 O156 1.167 . S
C151 O157 1.299 . S
O152 Zn146 2.114 1_565 S
O152 C147 1.166 . S
O153 Zn145 1.905 . S
O153 C147 1.182 . S
O154 Zn145 1.898 . S
O154 C148 1.167 . S
O155 Zn146 2.120 1_565 S
O155 C148 1.299 . S
O156 Zn144 1.898 . S
O156 C151 1.167 . S
O157 Zn146 2.120 . S
O157 C151 1.299 . S
O158 Zn146 2.114 . S
O158 C160 1.166 1_455 S
O159 Zn144 1.905 1_655 S
O159 C160 1.182 . S
C160 O158 1.166 1_655 S
C160 O159 1.182 . S
O161 Zn146 2.080 1_565 S
O161 C164 1.305 . S
O162 Zn145 1.920 . S
O162 C164 1.234 . S
C163 O149 1.305 . S
C163 O150 1.234 . S
C164 O161 1.305 . S
C164 O162 1.234 . S
Zn165 O171 1.920 . S
Zn165 O177 1.898 . S
Zn165 O180 1.905 . S
Zn166 O174 1.905 . S
Zn166 O175 1.898 . S
Zn166 O183 1.920 . S
Zn167 O170 2.080 . S
Zn167 O173 2.114 . S
Zn167 O176 2.120 . S
Zn167 O178 2.120 . S
Zn167 O179 2.114 . S
Zn167 O182 2.080 . S
C168 O173 1.166 . S
C168 O174 1.182 . S
C169 O175 1.167 . S
C169 O176 1.299 . S
O170 Zn167 2.080 . S
O170 C184 1.305 . S
O171 Zn165 1.920 . S
O171 C184 1.234 . S
C172 O177 1.167 . S
C172 O178 1.299 . S
O173 Zn167 2.114 . S
O173 C168 1.166 . S
O174 Zn166 1.905 . S
O174 C168 1.182 . S
O175 Zn166 1.898 . S
O175 C169 1.167 . S
O176 Zn167 2.120 . S
O176 C169 1.299 . S
O177 Zn165 1.898 . S
O177 C172 1.167 . S
O178 Zn167 2.120 . S
O178 C172 1.299 . S
O179 Zn167 2.114 . S
O179 C181 1.166 . S
O180 Zn165 1.905 . S
O180 C181 1.182 . S
C181 O179 1.166 . S
C181 O180 1.182 . S
O182 Zn167 2.080 . S
O182 C185 1.305 . S
O183 Zn166 1.920 . S
O183 C185 1.234 . S
C184 O170 1.305 . S
C184 O171 1.234 . S
C185 O182 1.305 . S
C185 O183 1.234 . S
H186 C194 0.950 . S
H187 C199 0.950 . S
H188 C196 0.950 . S
H189 C198 0.950 . S
H190 C200 0.950 . S
H191 C202 0.950 . S
H192 C204 0.950 . S
H193 C205 0.950 . S
C194 H186 0.950 . S
C194 C195 1.386 . S
C194 C196 1.391 . S
C195 C194 1.386 . S
C195 C199 1.393 . S
C196 H188 0.950 . S
C196 C194 1.391 . S
C196 C197 1.400 . S
C197 C196 1.400 . S
C197 C198 1.398 . S
C197 C203 1.491 . S
C198 H189 0.950 . S
C198 C197 1.398 . S
C198 C199 1.391 . S
C199 H187 0.950 . S
C199 C195 1.393 . S
C199 C198 1.391 . S
C200 H190 0.950 . S
C200 C201 1.386 . S
C200 C202 1.391 . S
C201 C200 1.386 . S
C201 C205 1.393 . S
C202 H191 0.950 . S
C202 C200 1.391 . S
C202 C203 1.400 . S
C203 C197 1.491 . S
C203 C202 1.400 . S
C203 C204 1.398 . S
C204 H192 0.950 . S
C204 C203 1.398 . S
C204 C205 1.391 . S
C205 H193 0.950 . S
C205 C201 1.393 . S
C205 C204 1.391 . S
H206 C214 0.950 . S
H207 C219 0.950 . S
H208 C216 0.950 . S
H209 C218 0.950 . S
H210 C220 0.950 . S
H211 C222 0.950 . S
H212 C224 0.950 . S
H213 C225 0.950 . S
C214 H206 0.950 . S
C214 C215 1.386 1_655 S
C214 C216 1.391 . S
C215 C214 1.386 1_455 S
C215 C219 1.393 . S
C216 H208 0.950 . S
C216 C214 1.391 . S
C216 C217 1.400 1_655 S
C217 C216 1.400 1_455 S
C217 C218 1.398 . S
C217 C223 1.491 . S
C218 H209 0.950 . S
C218 C217 1.398 . S
C218 C219 1.391 . S
C219 H207 0.950 . S
C219 C215 1.393 . S
C219 C218 1.391 . S
C220 H210 0.950 . S
C220 C221 1.386 . S
C220 C222 1.391 . S
C221 C220 1.386 . S
C221 C225 1.393 1_455 S
C222 H211 0.950 . S
C222 C220 1.391 . S
C222 C223 1.400 . S
C223 C217 1.491 . S
C223 C222 1.400 . S
C223 C224 1.398 1_455 S
C224 H212 0.950 . S
C224 C223 1.398 1_655 S
C224 C225 1.391 . S
C225 H213 0.950 . S
C225 C221 1.393 1_655 S
C225 C224 1.391 . S
H226 C234 0.950 . S
H227 C239 0.950 . S
H228 C236 0.950 . S
H229 C238 0.950 . S
H230 C240 0.950 . S
H231 C242 0.950 . S
H232 C244 0.950 . S
H233 C245 0.950 . S
C234 H226 0.950 . S
C234 C235 1.386 . S
C234 C236 1.391 . S
C235 C234 1.386 . S
C235 C239 1.393 . S
C236 H228 0.950 . S
C236 C234 1.391 . S
C236 C237 1.400 . S
C237 C236 1.400 . S
C237 C238 1.398 . S
C237 C243 1.491 . S
C238 H229 0.950 . S
C238 C237 1.398 . S
C238 C239 1.391 . S
C239 H227 0.950 . S
C239 C235 1.393 . S
C239 C238 1.391 . S
C240 H230 0.950 . S
C240 C241 1.386 . S
C240 C242 1.391 . S
C241 C240 1.386 . S
C241 C245 1.393 . S
C242 H231 0.950 . S
C242 C240 1.391 . S
C242 C243 1.400 . S
C243 C237 1.491 . S
C243 C242 1.400 . S
C243 C244 1.398 . S
C244 H232 0.950 . S
C244 C243 1.398 . S
C244 C245 1.391 . S
C245 H233 0.950 . S
C245 C241 1.393 . S
C245 C244 1.391 . S
H246 C254 0.950 . S
H247 C259 0.950 . S
H248 C256 0.950 . S
H249 C258 0.950 . S
H250 C260 0.950 . S
H251 C262 0.950 . S
H252 C264 0.950 . S
H253 C265 0.950 . S
C254 H246 0.950 . S
C254 C255 1.386 . S
C254 C256 1.391 . S
C255 C254 1.386 . S
C255 C259 1.393 . S
C256 H248 0.950 . S
C256 C254 1.391 . S
C256 C257 1.400 . S
C257 C256 1.400 . S
C257 C258 1.398 . S
C257 C263 1.491 . S
C258 H249 0.950 . S
C258 C257 1.398 . S
C258 C259 1.391 . S
C259 H247 0.950 . S
C259 C255 1.393 . S
C259 C258 1.391 . S
C260 H250 0.950 . S
C260 C261 1.386 . S
C260 C262 1.391 . S
C261 C260 1.386 . S
C261 C265 1.393 . S
C262 H251 0.950 . S
C262 C260 1.391 . S
C262 C263 1.400 . S
C263 C257 1.491 . S
C263 C262 1.400 . S
C263 C264 1.398 . S
C264 H252 0.950 . S
C264 C263 1.398 . S
C264 C265 1.391 . S
C265 H253 0.950 . S
C265 C261 1.393 . S
C265 C264 1.391 . S
H266 C274 0.950 . S
H267 C279 0.950 1_554 S
H268 C276 0.950 . S
H269 C278 0.950 . S
H270 C280 0.950 . S
H271 C282 0.950 . S
H272 C284 0.950 . S
H273 C285 0.950 . S
C274 H266 0.950 . S
C274 C275 1.386 . S
C274 C276 1.391 . S
C275 C274 1.386 . S
C275 C279 1.393 . S
C276 H268 0.950 . S
C276 C274 1.391 . S
C276 C277 1.400 . S
C277 C276 1.400 . S
C277 C278 1.398 . S
C277 C283 1.491 . S
C278 H269 0.950 . S
C278 C277 1.398 . S
C278 C279 1.391 . S
C279 H267 0.950 1_556 S
C279 C275 1.393 . S
C279 C278 1.391 . S
C280 H270 0.950 . S
C280 C281 1.386 . S
C280 C282 1.391 . S
C281 C280 1.386 . S
C281 C285 1.393 . S
C282 H271 0.950 . S
C282 C280 1.391 . S
C282 C283 1.400 . S
C283 C277 1.491 . S
C283 C282 1.400 . S
C283 C284 1.398 . S
C284 H272 0.950 . S
C284 C283 1.398 . S
C284 C285 1.391 . S
C285 H273 0.950 . S
C285 C281 1.393 . S
C285 C284 1.391 . S
H286 C294 0.950 . S
H287 C299 0.950 . S
H288 C296 0.950 . S
H289 C298 0.950 . S
H290 C300 0.950 . S
H291 C302 0.950 . S
H292 C304 0.950 . S
H293 C305 0.950 . S
C294 H286 0.950 . S
C294 C295 1.386 . S
C294 C296 1.391 . S
C295 C294 1.386 . S
C295 C299 1.393 . S
C296 H288 0.950 . S
C296 C294 1.391 . S
C296 C297 1.400 . S
C297 C296 1.400 . S
C297 C298 1.398 . S
C297 C303 1.491 . S
C298 H289 0.950 . S
C298 C297 1.398 . S
C298 C299 1.391 . S
C299 H287 0.950 . S
C299 C295 1.393 . S
C299 C298 1.391 . S
C300 H290 0.950 . S
C300 C301 1.386 . S
C300 C302 1.391 . S
C301 C300 1.386 . S
C301 C305 1.393 . S
C302 H291 0.950 . S
C302 C300 1.391 . S
C302 C303 1.400 . S
C303 C297 1.491 . S
C303 C302 1.400 . S
C303 C304 1.398 . S
C304 H292 0.950 . S
C304 C303 1.398 . S
C304 C305 1.391 . S
C305 H293 0.950 . S
C305 C301 1.393 . S
C305 C304 1.391 . S
H306 C314 0.950 . S
H307 C319 0.950 . S
H308 C316 0.950 . S
H309 C318 0.950 . S
H310 C320 0.950 . S
H311 C322 0.950 . S
H312 C324 0.950 . S
H313 C325 0.950 . S
C314 H306 0.950 . S
C314 C315 1.386 . S
C314 C316 1.391 . S
C315 C314 1.386 . S
C315 C319 1.393 . S
C316 H308 0.950 . S
C316 C314 1.391 . S
C316 C317 1.400 . S
C317 C316 1.400 . S
C317 C318 1.398 . S
C317 C323 1.491 . S
C318 H309 0.950 . S
C318 C317 1.398 . S
C318 C319 1.391 . S
C319 H307 0.950 . S
C319 C315 1.393 . S
C319 C318 1.391 . S
C320 H310 0.950 . S
C320 C321 1.386 . S
C320 C322 1.391 . S
C321 C320 1.386 . S
C321 C325 1.393 . S
C322 H311 0.950 . S
C322 C320 1.391 . S
C322 C323 1.400 . S
C323 C317 1.491 . S
C323 C322 1.400 . S
C323 C324 1.398 . S
C324 H312 0.950 . S
C324 C323 1.398 . S
C324 C325 1.391 . S
C325 H313 0.950 . S
C325 C321 1.393 . S
C325 C324 1.391 . S
H326 C334 0.950 . S
H327 C339 0.950 . S
H328 C336 0.950 . S
H329 C338 0.950 . S
H330 C340 0.950 . S
H331 C342 0.950 . S
H332 C344 0.950 . S
H333 C345 0.950 . S
C334 H326 0.950 . S
C334 C335 1.386 . S
C334 C336 1.391 . S
C335 C334 1.386 . S
C335 C339 1.393 . S
C336 H328 0.950 . S
C336 C334 1.391 . S
C336 C337 1.400 . S
C337 C336 1.400 . S
C337 C338 1.398 . S
C337 C343 1.491 . S
C338 H329 0.950 . S
C338 C337 1.398 . S
C338 C339 1.391 . S
C339 H327 0.950 . S
C339 C335 1.393 . S
C339 C338 1.391 . S
C340 H330 0.950 . S
C340 C341 1.386 . S
C340 C342 1.391 . S
C341 C340 1.386 . S
C341 C345 1.393 . S
C342 H331 0.950 . S
C342 C340 1.391 . S
C342 C343 1.400 . S
C343 C337 1.491 . S
C343 C342 1.400 . S
C343 C344 1.398 . S
C344 H332 0.950 . S
C344 C343 1.398 . S
C344 C345 1.391 . S
C345 H333 0.950 . S
C345 C341 1.393 . S
C345 C344 1.391 . S
H346 C354 0.950 . S
H347 C359 0.950 . S
H348 C356 0.950 . S
H349 C358 0.950 . S
H350 C360 0.948 1_455 S
H351 C362 0.950 . S
H352 C364 0.950 . S
H353 C365 0.950 . S
C354 H346 0.950 . S
C354 C355 1.386 . S
C354 C356 1.391 . S
C355 C354 1.386 . S
C355 C359 1.393 . S
C356 H348 0.950 . S
C356 C354 1.391 . S
C356 C357 1.400 . S
C357 C356 1.400 . S
C357 C358 1.398 . S
C357 C363 1.491 . S
C358 H349 0.950 . S
C358 C357 1.398 . S
C358 C359 1.391 . S
C359 H347 0.950 . S
C359 C355 1.393 . S
C359 C358 1.391 . S
C360 H350 0.948 1_655 S
C360 C361 1.386 . S
C360 C362 1.393 . S
C361 C360 1.386 . S
C361 C365 1.393 . S
C362 H351 0.950 . S
C362 C360 1.393 . S
C362 C363 1.400 . S
C363 C357 1.491 . S
C363 C362 1.400 . S
C363 C364 1.398 . S
C364 H352 0.950 . S
C364 C363 1.398 . S
C364 C365 1.391 . S
C365 H353 0.950 . S
C365 C361 1.393 . S
C365 C364 1.391 . S
H366 C374 0.950 . S
H367 C379 0.950 . S
H368 C376 0.950 . S
H369 C378 0.950 . S
H370 C380 0.950 . S
H371 C382 0.950 . S
H372 C384 0.950 . S
H373 C385 0.950 . S
C374 H366 0.950 . S
C374 C375 1.386 . S
C374 C376 1.391 . S
C375 C374 1.386 . S
C375 C379 1.393 . S
C376 H368 0.950 . S
C376 C374 1.391 . S
C376 C377 1.400 . S
C377 C376 1.400 . S
C377 C378 1.398 . S
C377 C383 1.491 . S
C378 H369 0.950 . S
C378 C377 1.398 . S
C378 C379 1.391 . S
C379 H367 0.950 . S
C379 C375 1.393 . S
C379 C378 1.391 . S
C380 H370 0.950 . S
C380 C381 1.386 . S
C380 C382 1.391 . S
C381 C380 1.386 . S
C381 C385 1.393 . S
C382 H371 0.950 . S
C382 C380 1.391 . S
C382 C383 1.400 . S
C383 C377 1.491 . S
C383 C382 1.400 . S
C383 C384 1.398 . S
C384 H372 0.950 . S
C384 C383 1.398 . S
C384 C385 1.391 . S
C385 H373 0.950 . S
C385 C381 1.393 . S
C385 C384 1.391 . S
H386 C394 0.950 . S
H387 C399 0.950 . S
H388 C396 0.950 . S
H389 C398 0.950 . S
H390 C400 0.950 . S
H391 C402 0.950 . S
H392 C404 0.950 . S
H393 C405 0.950 . S
C394 H386 0.950 . S
C394 C395 1.386 . S
C394 C396 1.391 . S
C395 C394 1.386 . S
C395 C399 1.393 . S
C396 H388 0.950 . S
C396 C394 1.391 . S
C396 C397 1.400 . S
C397 C396 1.400 . S
C397 C398 1.398 . S
C397 C403 1.491 . S
C398 H389 0.950 . S
C398 C397 1.398 . S
C398 C399 1.391 . S
C399 H387 0.950 . S
C399 C395 1.393 . S
C399 C398 1.391 . S
C400 H390 0.950 . S
C400 C401 1.386 . S
C400 C402 1.391 . S
C401 C400 1.386 . S
C401 C405 1.393 . S
C402 H391 0.950 . S
C402 C400 1.391 . S
C402 C403 1.400 . S
C403 C397 1.491 . S
C403 C402 1.400 . S
C403 C404 1.398 . S
C404 H392 0.950 . S
C404 C403 1.398 . S
C404 C405 1.391 . S
C405 H393 0.950 . S
C405 C401 1.393 . S
C405 C404 1.391 . S
H406 C414 0.950 . S
H407 C419 0.950 . S
H408 C416 0.950 . S
H409 C418 0.950 . S
H410 C420 0.950 . S
H411 C422 0.950 . S
H412 C424 0.950 . S
H413 C425 0.950 . S
C414 H406 0.950 . S
C414 C415 1.386 . S
C414 C416 1.391 . S
C415 C414 1.386 . S
C415 C419 1.393 . S
C416 H408 0.950 . S
C416 C414 1.391 . S
C416 C417 1.400 . S
C417 C416 1.400 . S
C417 C418 1.398 . S
C417 C423 1.491 . S
C418 H409 0.950 . S
C418 C417 1.398 . S
C418 C419 1.391 . S
C419 H407 0.950 . S
C419 C415 1.393 . S
C419 C418 1.391 . S
C420 H410 0.950 . S
C420 C421 1.386 . S
C420 C422 1.391 . S
C421 C420 1.386 . S
C421 C425 1.393 . S
C422 H411 0.950 . S
C422 C420 1.391 . S
C422 C423 1.400 . S
C423 C417 1.491 . S
C423 C422 1.400 . S
C423 C424 1.398 . S
C424 H412 0.950 . S
C424 C423 1.398 . S
C424 C425 1.391 . S
C425 H413 0.950 . S
C425 C421 1.393 . S
C425 C424 1.391 . S
C201 C151 1.425 . S
C195 C25 1.517 . S
C221 C147 1.456 . S
C215 C61 1.526 . S
C241 C172 1.420 . S
C235 C97 1.520 . S
C255 C133 1.533 . S
C261 C168 1.438 . S
C275 C31 1.178 . S
C281 C169 1.047 . S
C301 C184 1.079 . S
C295 C37 1.243 . S
C315 C1 1.693 . S
C321 C185 1.550 . S
C341 C181 1.589 . S
C335 C67 1.720 . S
C361 C148 1.062 1_655 S
C355 C103 1.193 . S
C375 C109 1.249 . S
C381 C163 1.118 . S
C401 C164 1.561 . S
C395 C73 1.697 . S
C421 C160 1.579 . S
C415 C139 1.714 . S
